# Generated by pormake.
# Topology pyr, (3,6)-cn, num edge types: 1
# Building blocks:
#     Node 0, Type 0, BuildingBlock: INOVEN_clean_linker_0, # of connection points: 3
#     Node 1, Type 0, BuildingBlock: INOVEN_clean_linker_0, # of connection points: 3
#     Node 2, Type 0, BuildingBlock: INOVEN_clean_linker_0, # of connection points: 3
#     Node 3, Type 0, BuildingBlock: INOVEN_clean_linker_0, # of connection points: 3
#     Node 4, Type 0, BuildingBlock: INOVEN_clean_linker_0, # of connection points: 3
#     Node 5, Type 0, BuildingBlock: INOVEN_clean_linker_0, # of connection points: 3
#     Node 6, Type 0, BuildingBlock: INOVEN_clean_linker_0, # of connection points: 3
#     Node 7, Type 0, BuildingBlock: INOVEN_clean_linker_0, # of connection points: 3
#     Node 8, Type 1, BuildingBlock: MIFKUJ_clean_sbu_0, # of connection points: 6
#     Node 9, Type 1, BuildingBlock: MIFKUJ_clean_sbu_0, # of connection points: 6
#     Node 10, Type 1, BuildingBlock: MIFKUJ_clean_sbu_0, # of connection points: 6
#     Node 11, Type 1, BuildingBlock: MIFKUJ_clean_sbu_0, # of connection points: 6
#     Edge 12, Type (0, 1), BuildingBlock: AJUNOK_clean_linker_0, # of connection points: 2
#     Edge 13, Type (0, 1), BuildingBlock: AJUNOK_clean_linker_0, # of connection points: 2
#     Edge 14, Type (0, 1), BuildingBlock: AJUNOK_clean_linker_0, # of connection points: 2
#     Edge 15, Type (0, 1), BuildingBlock: AJUNOK_clean_linker_0, # of connection points: 2
#     Edge 16, Type (0, 1), BuildingBlock: AJUNOK_clean_linker_0, # of connection points: 2
#     Edge 17, Type (0, 1), BuildingBlock: AJUNOK_clean_linker_0, # of connection points: 2
#     Edge 18, Type (0, 1), BuildingBlock: AJUNOK_clean_linker_0, # of connection points: 2
#     Edge 19, Type (0, 1), BuildingBlock: AJUNOK_clean_linker_0, # of connection points: 2
#     Edge 20, Type (0, 1), BuildingBlock: AJUNOK_clean_linker_0, # of connection points: 2
#     Edge 21, Type (0, 1), BuildingBlock: AJUNOK_clean_linker_0, # of connection points: 2
#     Edge 22, Type (0, 1), BuildingBlock: AJUNOK_clean_linker_0, # of connection points: 2
#     Edge 23, Type (0, 1), BuildingBlock: AJUNOK_clean_linker_0, # of connection points: 2
#     Edge 24, Type (0, 1), BuildingBlock: AJUNOK_clean_linker_0, # of connection points: 2
#     Edge 25, Type (0, 1), BuildingBlock: AJUNOK_clean_linker_0, # of connection points: 2
#     Edge 26, Type (0, 1), BuildingBlock: AJUNOK_clean_linker_0, # of connection points: 2
#     Edge 27, Type (0, 1), BuildingBlock: AJUNOK_clean_linker_0, # of connection points: 2
#     Edge 28, Type (0, 1), BuildingBlock: AJUNOK_clean_linker_0, # of connection points: 2
#     Edge 29, Type (0, 1), BuildingBlock: AJUNOK_clean_linker_0, # of connection points: 2
#     Edge 30, Type (0, 1), BuildingBlock: AJUNOK_clean_linker_0, # of connection points: 2
#     Edge 31, Type (0, 1), BuildingBlock: AJUNOK_clean_linker_0, # of connection points: 2
#     Edge 32, Type (0, 1), BuildingBlock: AJUNOK_clean_linker_0, # of connection points: 2
#     Edge 33, Type (0, 1), BuildingBlock: AJUNOK_clean_linker_0, # of connection points: 2
#     Edge 34, Type (0, 1), BuildingBlock: AJUNOK_clean_linker_0, # of connection points: 2
#     Edge 35, Type (0, 1), BuildingBlock: AJUNOK_clean_linker_0, # of connection points: 2
# Relax obj value: 0.058
# Max RMSD: 0.191
# Mean RMSD: 0.123
data_MOF--net-pyr--node1-MIFKUJ_clean_sbu_0--node2-INOVEN_clean_linker_0--edge1-AJUNOK_clean_linker_0
_symmetry_space_group_name_H-M    P1
_symmetry_Int_Tables_number       1
_symmetry_cell_setting            triclinic
loop_
_symmetry_equiv_pos_as_xyz
'x, y, z'
_cell_length_a     28.468228
_cell_length_b     26.109298
_cell_length_c     28.4119
_cell_angle_alpha  85.406914
_cell_angle_beta   88.46798
_cell_angle_gamma 104.79017
loop_
_atom_site_label
_atom_site_type_symbol
_atom_site_fract_x
_atom_site_fract_y
_atom_site_fract_z
_atom_type_partial_charge
H0 H 0.12989 0.20274 0.27261 0.0
H1 H 0.22384 0.09749 0.27969 0.0
H2 H 0.23079 0.20748 0.15638 0.0
N3 N 0.16025 0.25064 0.19001 0.0
N4 N 0.17488 0.27317 0.15007 0.0
C5 C 0.15835 0.18787 0.25685 0.0
C6 C 0.17409 0.14714 0.28119 0.0
C7 C 0.17876 0.21002 0.21238 0.0
C8 C 0.21554 0.19101 0.19134 0.0
C9 C 0.23175 0.14974 0.21518 0.0
C10 C 0.21129 0.12867 0.26057 0.0
H11 H 0.32312 0.80249 0.66016 0.0
H12 H 0.4266 0.79232 0.76589 0.0
H13 H 0.33048 0.89447 0.77957 0.0
N14 N 0.28417 0.87011 0.69875 0.0
N15 N 0.26352 0.89832 0.72076 0.0
C16 C 0.33922 0.81395 0.69314 0.0
C17 C 0.37602 0.79185 0.71065 0.0
C18 C 0.32246 0.85048 0.71772 0.0
C19 C 0.34348 0.86628 0.76022 0.0
C20 C 0.38113 0.84549 0.77801 0.0
C21 C 0.39744 0.80843 0.75276 0.0
H22 H 0.58959 0.3185 0.84833 0.0
H23 H 0.71046 0.33668 0.93878 0.0
H24 H 0.71128 0.45574 0.82446 0.0
N25 N 0.62454 0.40519 0.79194 0.0
N26 N 0.6414 0.44843 0.76784 0.0
C27 C 0.62471 0.34133 0.85843 0.0
C28 C 0.647 0.32232 0.89705 0.0
C29 C 0.64775 0.38896 0.83191 0.0
C30 C 0.69343 0.41855 0.84467 0.0
C31 C 0.71623 0.40024 0.88349 0.0
C32 C 0.69289 0.35175 0.90933 0.0
H33 H 0.78692 0.57482 0.31166 0.0
H34 H 0.78537 0.7034 0.39679 0.0
H35 H 0.9019 0.71997 0.29323 0.0
N36 N 0.86706 0.62287 0.2606 0.0
N37 N 0.90045 0.65068 0.23317 0.0
C38 C 0.80375 0.61414 0.32201 0.0
C39 C 0.78151 0.63496 0.35804 0.0
C40 C 0.84713 0.64436 0.2984 0.0
C41 C 0.86874 0.6958 0.31142 0.0
C42 C 0.84637 0.71674 0.34705 0.0
C43 C 0.80313 0.68623 0.37018 0.0
H44 H 0.84445 0.96079 0.75945 0.0
H45 H 0.94112 0.85827 0.77428 0.0
H46 H 0.83573 0.85715 0.88594 0.0
N47 N 0.79717 0.93093 0.84119 0.0
N48 N 0.77451 0.91299 0.87963 0.0
C49 C 0.85868 0.93211 0.78034 0.0
C50 C 0.89713 0.91381 0.762 0.0
C51 C 0.83662 0.91209 0.82481 0.0
C52 C 0.85281 0.87284 0.85143 0.0
C53 C 0.89045 0.85302 0.83349 0.0
C54 C 0.91268 0.87398 0.78881 0.0
H55 H 0.62145 0.19689 0.32295 0.0
H56 H 0.72184 0.10504 0.29181 0.0
H57 H 0.73856 0.19368 0.41472 0.0
N58 N 0.66387 0.23502 0.40138 0.0
N59 N 0.62555 0.24904 0.39518 0.0
C60 C 0.65294 0.18273 0.33209 0.0
C61 C 0.66804 0.14806 0.30338 0.0
C62 C 0.67863 0.19976 0.37202 0.0
C63 C 0.71959 0.1815 0.38328 0.0
C64 C 0.73508 0.14638 0.35512 0.0
C65 C 0.70974 0.13113 0.31446 0.0
H66 H 0.41633 0.75964 0.24023 0.0
H67 H 0.30609 0.73954 0.13804 0.0
H68 H 0.2928 0.62415 0.25838 0.0
N69 N 0.37941 0.67112 0.2933 0.0
N70 N 0.36382 0.62577 0.31423 0.0
C71 C 0.38232 0.73696 0.22767 0.0
C72 C 0.36376 0.75554 0.18634 0.0
C73 C 0.35759 0.68911 0.25304 0.0
C74 C 0.31281 0.66006 0.23765 0.0
C75 C 0.29368 0.6779 0.19602 0.0
C76 C 0.31963 0.72579 0.1707 0.0
H77 H 0.08289 0.32849 0.72585 0.0
H78 H 0.20884 0.32667 0.63957 0.0
H79 H 0.21765 0.44697 0.7361 0.0
N80 N 0.12438 0.41269 0.76981 0.0
N81 N 0.14813 0.44609 0.79499 0.0
C82 C 0.12088 0.34525 0.71498 0.0
C83 C 0.14282 0.32263 0.68022 0.0
C84 C 0.14777 0.38976 0.73558 0.0
C85 C 0.19694 0.41179 0.72105 0.0
C86 C 0.21908 0.38977 0.68588 0.0
C87 C 0.19182 0.34485 0.66593 0.0
Zn88 Zn 0.06977 0.03207 0.56514 0.0
Zn89 Zn 0.95431 0.00731 0.46942 0.0
C90 C 0.06379 0.1351 0.58576 0.0
O91 O 0.05025 0.13746 0.54197 0.0
C92 C 0.89952 0.91827 0.42584 0.0
O93 O 0.86337 0.93344 0.44503 0.0
O94 O 0.10591 0.98215 0.59638 0.0
O95 O 1.00246 0.00234 0.55089 0.0
O96 O 0.92695 0.97623 0.53635 0.0
C97 C 0.11253 0.98349 0.64044 0.0
O98 O 0.09069 0.01226 0.66468 0.0
O99 O 0.07349 0.09311 0.60351 0.0
C100 C 0.89758 0.05738 0.40398 0.0
O101 O 0.91076 0.02704 0.37426 0.0
O102 O 0.91395 0.05824 0.44527 0.0
O103 O 0.02938 0.04068 0.4654 0.0
O104 O 0.09944 0.06065 0.5007 0.0
O105 O 0.9429 0.94437 0.43109 0.0
C106 C 0.95963 0.98054 0.5661 0.0
C107 C 0.07546 0.06105 0.46338 0.0
Zn108 Zn 0.53472 -0.00111 0.00303 0.0
Zn109 Zn 0.47198 0.06814 0.08134 0.0
C110 C 0.47686 0.92019 0.94817 0.0
O111 O 0.49634 0.88902 0.97552 0.0
C112 C 0.55972 0.08577 0.13678 0.0
O113 O 0.58337 0.09323 0.09545 0.0
O114 O 0.59337 0.97361 0.98661 0.0
O115 O 0.55574 0.0783 0.99027 0.0
O116 O 0.51008 0.12013 0.02875 0.0
C117 C 0.61254 0.98671 0.94508 0.0
O118 O 0.59401 0.01706 0.91587 0.0
O119 O 0.48611 0.96935 0.95482 0.0
C120 C 0.38547 0.06883 0.13341 0.0
O121 O 0.39172 0.02298 0.1507 0.0
O122 O 0.41582 0.09674 0.10179 0.0
O123 O 0.44281 0.99054 0.07086 0.0
O124 O 0.51072 0.96538 0.06839 0.0
O125 O 0.51347 0.07294 0.13844 0.0
C126 C 0.54404 0.12059 0.99858 0.0
C127 C 0.466 0.95579 0.08088 0.0
Zn128 Zn 0.51554 0.48336 0.5122 0.0
Zn129 Zn 0.49123 0.57358 0.56431 0.0
C130 C 0.58852 0.53461 0.44296 0.0
O131 O 0.55591 0.50668 0.41674 0.0
C132 C 0.41838 0.50156 0.6266 0.0
O133 O 0.44592 0.52567 0.65881 0.0
O134 O 0.52226 0.41503 0.48697 0.0
O135 O 0.51806 0.47219 0.58314 0.0
O136 O 0.5509 0.55669 0.59006 0.0
C137 C 0.56159 0.40303 0.49754 0.0
O138 O 0.59033 0.43245 0.52597 0.0
O139 O 0.57799 0.5348 0.48671 0.0
C140 C 0.43563 0.64018 0.59801 0.0
O141 O 0.40384 0.60973 0.57273 0.0
O142 O 0.47882 0.63487 0.59805 0.0
O143 O 0.48989 0.59096 0.49445 0.0
O144 O 0.45954 0.50684 0.48242 0.0
O145 O 0.43235 0.51302 0.58333 0.0
C146 C 0.54629 0.50823 0.60409 0.0
C147 C 0.4633 0.55598 0.47109 0.0
Zn148 Zn 0.98464 0.59407 0.96938 0.0
Zn149 Zn 0.05165 0.52055 0.04877 0.0
C150 C 0.90643 0.53107 0.92527 0.0
O151 O 0.93483 0.55681 0.88914 0.0
C152 C 0.11361 0.56246 0.11967 0.0
O153 O 0.08562 0.51978 0.14324 0.0
O154 O 0.97657 0.66174 0.93493 0.0
O155 O 0.99849 0.61053 0.037 0.0
O156 O 0.98701 0.52971 0.07217 0.0
C157 C 0.93631 0.67361 0.94051 0.0
O158 O 0.90218 0.64227 0.96928 0.0
O159 O 0.92023 0.53958 0.9668 0.0
C160 C 0.10173 0.44201 0.06312 0.0
O161 O 0.13159 0.47706 0.03311 0.0
O162 O 0.06109 0.45032 0.07513 0.0
O163 O 0.06581 0.52111 0.97962 0.0
O164 O 0.03208 0.56896 0.92967 0.0
O165 O 0.10503 0.5743 0.077 0.0
C166 C 0.98188 0.57665 0.07204 0.0
C167 C 0.05978 0.53857 0.93797 0.0
C168 C 0.09927 0.10602 0.33251 0.0
C169 C 0.1503 0.12355 0.32768 0.0
C170 C 0.07546 0.08579 0.3764 0.0
C171 C 0.10176 0.08258 0.41729 0.0
H172 H 0.07753 0.10796 0.30201 0.0
H173 H 0.03609 0.07288 0.3782 0.0
S174 S 0.23646 0.12461 0.42322 0.0
N175 N 0.22652 0.13726 0.36705 0.0
N176 N 0.18226 0.0992 0.44978 0.0
C177 C 0.15304 0.10006 0.4128 0.0
C178 C 0.17719 0.12041 0.36794 0.0
C179 C 0.41865 0.91777 0.82905 0.0
C180 C 0.40362 0.8632 0.82266 0.0
C181 C 0.44103 0.93568 0.87023 0.0
C182 C 0.44939 0.89976 0.90677 0.0
H183 H 0.41401 0.94702 0.80153 0.0
H184 H 0.45289 0.97817 0.87285 0.0
S185 S 0.41234 0.75234 0.90932 0.0
N186 N 0.39529 0.77318 0.85772 0.0
N187 N 0.4378 0.80658 0.93488 0.0
C188 C 0.43326 0.84493 0.90135 0.0
C189 C 0.41036 0.82674 0.85939 0.0
C190 C 0.57835 0.42719 0.70933 0.0
C191 C 0.61796 0.46317 0.72736 0.0
C192 C 0.55575 0.44213 0.66925 0.0
C193 C 0.57157 0.49364 0.64595 0.0
H194 H 0.56477 0.38717 0.72609 0.0
H195 H 0.52531 0.41314 0.65679 0.0
S196 S 0.67477 0.6016 0.67889 0.0
N197 N 0.67277 0.55138 0.71883 0.0
N198 N 0.63017 0.58018 0.64354 0.0
C199 C 0.61132 0.52979 0.66361 0.0
C200 C 0.63452 0.51428 0.70425 0.0
C201 C 0.94958 0.66597 0.15996 0.0
C202 C 0.92036 0.62996 0.19476 0.0
C203 C 0.96909 0.64837 0.12042 0.0
C204 C 0.96074 0.59375 0.11455 0.0
H205 H 0.95681 0.70831 0.16315 0.0
H206 H 0.99114 0.67796 0.0944 0.0
S207 S 0.88774 0.48261 0.19697 0.0
N208 N 0.88452 0.53679 0.22172 0.0
N209 N 0.92166 0.50351 0.14771 0.0
C210 C 0.93209 0.55705 0.1497 0.0
C211 C 0.91174 0.57511 0.18977 0.0
C212 C 0.31203 0.16302 0.17056 0.0
C213 C 0.26965 0.12826 0.19266 0.0
C214 C 0.3489 0.14353 0.15052 0.0
C215 C 0.34495 0.08856 0.15223 0.0
H216 H 0.31724 0.20568 0.16958 0.0
H217 H 0.38124 0.17181 0.13466 0.0
S218 S 0.23912 0.98069 0.20138 0.0
N219 N 0.22413 0.03607 0.21122 0.0
N220 N 0.2939 -0.00041 0.17495 0.0
C221 C 0.30229 0.05337 0.17318 0.0
C222 C 0.26456 0.07316 0.19305 0.0
C223 C 0.21068 0.90886 0.65484 0.0
C224 C 0.22517 0.91756 0.7012 0.0
C225 C 0.17337 0.92915 0.63596 0.0
C226 C 0.14907 0.95869 0.66266 0.0
H227 H 0.22854 0.88683 0.63279 0.0
H228 H 0.16405 0.92218 0.59989 0.0
S229 S 0.17352 0.99075 0.78634 0.0
N230 N 0.21262 0.9563 0.77336 0.0
N231 N 0.14222 0.99435 0.73862 0.0
C232 C 0.16295 0.96669 0.70939 0.0
C233 C 0.2011 0.9462 0.72834 0.0
C234 C 0.80201 0.45045 0.86038 0.0
C235 C 0.76495 0.43146 0.89596 0.0
C236 C 0.84775 0.48163 0.87058 0.0
C237 C 0.85842 0.4952 0.91681 0.0
H238 H 0.7956 0.44113 0.82424 0.0
H239 H 0.87485 0.49545 0.84174 0.0
S240 S 0.77356 0.45589 0.02267 0.0
N241 N 0.74158 0.42877 0.9792 0.0
N242 N 0.82787 0.48689 0.99865 0.0
C243 C 0.82187 0.47584 0.95293 0.0
C244 C 0.77511 0.44411 0.94245 0.0
C245 C 0.69418 0.58679 0.35269 0.0
C246 C 0.73368 0.60578 0.38075 0.0
C247 C 0.64736 0.56445 0.37318 0.0
C248 C 0.63822 0.56031 0.42252 0.0
H249 H 0.69924 0.59058 0.31452 0.0
H250 H 0.61803 0.55076 0.35 0.0
S251 S 0.73048 0.60072 0.51168 0.0
N252 N 0.76151 0.61644 0.46035 0.0
N253 N 0.67352 0.5749 0.49903 0.0
C254 C 0.67774 0.57829 0.45104 0.0
C255 C 0.72544 0.60083 0.43012 0.0
C256 C 0.1746 0.34027 0.08579 0.0
C257 C 0.15452 0.31353 0.12927 0.0
C258 C 0.15672 0.38118 0.06426 0.0
C259 C 0.11763 0.39645 0.08532 0.0
H260 H 0.20482 0.32975 0.06861 0.0
H261 H 0.17384 0.4011 0.03089 0.0
S262 S 0.0518 0.33876 0.19958 0.0
N263 N 0.09294 0.30507 0.19298 0.0
N264 N 0.05936 0.38163 0.15234 0.0
C265 C 0.09669 0.36953 0.12867 0.0
C266 C 0.11511 0.32815 0.15079 0.0
C267 C 0.57547 0.26411 0.9449 0.0
C268 C 0.62221 0.27117 0.92391 0.0
C269 C 0.55065 0.21552 0.96938 0.0
C270 C 0.57133 0.17186 0.973 0.0
H271 H 0.55804 0.29653 0.94248 0.0
H272 H 0.51471 0.21198 0.98499 0.0
S273 S 0.69312 0.17032 0.92343 0.0
N274 N 0.68839 0.23107 0.90802 0.0
N275 N 0.64193 0.13947 0.95351 0.0
C276 C 0.61822 0.1786 0.95197 0.0
C277 C 0.64363 0.22832 0.92761 0.0
C278 C 0.90731 0.78607 0.38476 0.0
C279 C 0.86526 0.77183 0.35896 0.0
C280 C 0.91962 0.83499 0.40468 0.0
C281 C 0.88973 0.87036 0.39986 0.0
H282 H 0.92929 0.75822 0.39154 0.0
H283 H 0.95121 0.84391 0.42597 0.0
S284 S 0.77963 0.85379 0.32996 0.0
N285 N 0.79696 0.79867 0.32521 0.0
N286 N 0.81939 0.88992 0.36335 0.0
C287 C 0.84918 0.85749 0.37197 0.0
C288 C 0.83715 0.80833 0.35126 0.0
C289 C 0.44056 0.75695 0.67182 0.0
C290 C 0.39126 0.75114 0.68462 0.0
C291 C 0.45483 0.72072 0.64413 0.0
C292 C 0.42027 0.67755 0.62811 0.0
H293 H 0.46813 0.79046 0.68229 0.0
H294 H 0.4931 0.72718 0.63446 0.0
S295 S 0.28722 0.64107 0.6573 0.0
N296 N 0.30846 0.69626 0.68303 0.0
N297 N 0.33492 0.62871 0.63076 0.0
C298 C 0.37103 0.67041 0.64213 0.0
C299 C 0.35664 0.70702 0.67043 0.0
C300 C 0.92434 0.89594 0.68173 0.0
C301 C 0.91782 0.93294 0.71318 0.0
C302 C 0.93886 0.91191 0.63416 0.0
C303 C 0.94755 0.96534 0.61655 0.0
H304 H 0.91641 0.85398 0.69343 0.0
H305 H 0.94246 0.88215 0.61081 0.0
S306 S 0.93935 0.07861 0.6838 0.0
N307 N 0.92443 0.02636 0.72323 0.0
N308 N 0.95093 0.0557 0.63342 0.0
C309 C 0.94287 0.00307 0.64746 0.0
C310 C 0.92814 0.98702 0.69592 0.0
C311 C 0.66374 0.13364 0.21722 0.0
C312 C 0.63998 0.12924 0.26193 0.0
C313 C 0.63763 0.11824 0.17726 0.0
C314 C 0.58669 0.09761 0.18044 0.0
H315 H 0.70272 0.15033 0.21286 0.0
H316 H 0.65759 0.1236 0.14347 0.0
S317 S 0.508 0.07334 0.29073 0.0
N318 N 0.56327 0.09938 0.30794 0.0
N319 N 0.51398 0.07063 0.23309 0.0
C320 C 0.56272 0.09141 0.22542 0.0
C321 C 0.58938 0.10723 0.26603 0.0
C322 C 0.42685 0.64368 0.37318 0.0
C323 C 0.38746 0.60877 0.35376 0.0
C324 C 0.45083 0.62613 0.41117 0.0
C325 C 0.43675 0.57297 0.43102 0.0
H326 H 0.43943 0.68483 0.35894 0.0
H327 H 0.48106 0.65447 0.42469 0.0
S328 S 0.33452 0.46678 0.39372 0.0
N329 N 0.33454 0.51965 0.35761 0.0
N330 N 0.37968 0.48606 0.42898 0.0
C331 C 0.39709 0.53787 0.41212 0.0
C332 C 0.37246 0.55601 0.37359 0.0
C333 C 0.1515 0.49016 0.86712 0.0
C334 C 0.12534 0.4706 0.82844 0.0
C335 C 0.13035 0.51324 0.90207 0.0
C336 C 0.08282 0.51912 0.8985 0.0
H337 H 0.18821 0.48622 0.8709 0.0
H338 H 0.15123 0.52632 0.93222 0.0
S339 S 0.99959 0.47652 0.80266 0.0
N340 N 0.04968 0.45963 0.78766 0.0
N341 N 0.01037 0.50442 0.85277 0.0
C342 C 0.0567 0.50119 0.85913 0.0
C343 C 0.07782 0.47652 0.82412 0.0
C344 C 0.71882 0.97119 0.86913 0.0
C345 C 0.73481 0.93162 0.89576 0.0
C346 C 0.67935 0.98876 0.88558 0.0
C347 C 0.65455 0.96758 0.92921 0.0
H348 H 0.73673 0.98867 0.83539 0.0
H349 H 0.66836 0.01931 0.86387 0.0
S350 S 0.68254 0.8623 0.01119 0.0
N351 N 0.7233 0.87141 0.96677 0.0
N352 N 0.64897 0.90413 0.99826 0.0
C353 C 0.6704 0.92791 0.956 0.0
C354 C 0.71054 0.91005 0.93905 0.0
C355 C 0.8201 0.15594 0.38365 0.0
C356 C 0.7762 0.12353 0.3691 0.0
C357 C 0.85936 0.13452 0.39576 0.0
C358 C 0.85615 0.08021 0.39302 0.0
H359 H 0.82443 0.19823 0.38497 0.0
H360 H 0.89266 0.16071 0.40629 0.0
S361 S 0.74743 0.97738 0.36364 0.0
N362 N 0.73052 0.03335 0.35812 0.0
N363 N 0.80455 0.99402 0.37878 0.0
C364 C 0.81218 0.04739 0.37986 0.0
C365 C 0.77215 0.06879 0.36843 0.0
C366 C 0.21376 0.67408 0.15899 0.0
C367 C 0.2469 0.64707 0.17834 0.0
C368 C 0.17073 0.64663 0.13967 0.0
C369 C 0.15859 0.59108 0.14023 0.0
H370 H 0.2211 0.7169 0.15869 0.0
H371 H 0.14651 0.66892 0.12477 0.0
S372 S 0.23264 0.50108 0.18419 0.0
N373 N 0.26494 0.56107 0.19414 0.0
N374 N 0.18265 0.50965 0.16032 0.0
C375 C 0.19068 0.56332 0.15977 0.0
C376 C 0.23511 0.59123 0.17835 0.0
C377 C 0.30626 0.42804 0.70274 0.0
C378 C 0.27042 0.41447 0.66956 0.0
C379 C 0.35442 0.45432 0.68836 0.0
C380 C 0.36865 0.46811 0.64021 0.0
H381 H 0.2969 0.41871 0.74021 0.0
H382 H 0.38043 0.46481 0.71538 0.0
S383 S 0.28833 0.44104 0.53918 0.0
N384 N 0.25218 0.41649 0.58644 0.0
N385 N 0.34274 0.46507 0.55917 0.0
C386 C 0.3333 0.45346 0.60653 0.0
C387 C 0.2842 0.42688 0.62126 0.0
C388 C 0.86696 0.76438 0.88049 0.0
C389 C 0.90388 0.80804 0.86043 0.0
C390 C 0.87799 0.7215 0.90647 0.0
C391 C 0.92643 0.72012 0.9131 0.0
H392 H 0.82904 0.76301 0.8757 0.0
H393 H 0.84815 0.68882 0.92094 0.0
S394 S 0.0367 0.82536 0.86947 0.0
N395 N 0.99094 0.84819 0.85045 0.0
N396 N 0.01184 0.76671 0.89823 0.0
C397 C 0.96385 0.76337 0.89315 0.0
C398 C 0.95254 0.80747 0.86705 0.0
C399 C 0.36658 0.84564 0.14694 0.0
C400 C 0.39055 0.80596 0.15918 0.0
C401 C 0.39121 0.89377 0.12162 0.0
C402 C 0.44079 0.90409 0.10734 0.0
H403 H 0.32857 0.83966 0.15749 0.0
H404 H 0.37106 0.92307 0.11329 0.0
S405 S 0.51909 0.81101 0.12826 0.0
N406 N 0.46575 0.77871 0.15354 0.0
N407 N 0.51236 0.86898 0.10615 0.0
C408 C 0.46495 0.86414 0.11886 0.0
C409 C 0.4398 0.81522 0.14477 0.0
C410 C 0.11116 0.27892 0.60882 0.0
C411 C 0.11515 0.27578 0.65807 0.0
C412 C 0.09133 0.23344 0.58586 0.0
C413 C 0.07583 0.18322 0.61139 0.0
H414 H 0.12495 0.31658 0.58779 0.0
H415 H 0.09073 0.23732 0.54764 0.0
S416 S 0.07475 0.15478 0.74152 0.0
N417 N 0.09873 0.21961 0.73214 0.0
N418 N 0.06233 0.13356 0.68891 0.0
C419 C 0.0775 0.17999 0.66095 0.0
C420 C 0.09696 0.22649 0.68436 0.0
C421 C 0.56567 0.29654 0.41468 0.0
C422 C 0.61039 0.28519 0.42333 0.0
C423 C 0.54946 0.33352 0.43966 0.0
C424 C 0.5776 0.3608 0.47433 0.0
H425 H 0.5433 0.27697 0.38777 0.0
H426 H 0.51501 0.34143 0.43101 0.0
S427 S 0.69763 0.34429 0.51136 0.0
N428 N 0.68254 0.30327 0.46978 0.0
N429 N 0.65239 0.3726 0.51678 0.0
C430 C 0.62229 0.349 0.48397 0.0
C431 C 0.63871 0.31128 0.45848 0.0
loop_
_geom_bond_atom_site_label_1
_geom_bond_atom_site_label_2
_geom_bond_distance
_geom_bond_site_symmetry_2
_ccdc_geom_bond_type
H0 C5 0.929 . S
H1 C10 0.931 . S
H2 C8 0.930 . S
N3 N4 1.234 . S
N3 C7 1.453 . S
N4 N3 1.234 . S
C5 H0 0.929 . S
C5 C6 1.373 . S
C5 C7 1.368 . S
C6 C5 1.373 . S
C6 C10 1.397 . S
C7 N3 1.453 . S
C7 C5 1.368 . S
C7 C8 1.373 . S
C8 H2 0.930 . S
C8 C7 1.373 . S
C8 C9 1.371 . S
C9 C8 1.371 . S
C9 C10 1.383 . S
C10 H1 0.931 . S
C10 C6 1.397 . S
C10 C9 1.383 . S
H11 C16 0.929 . S
H12 C21 0.931 . S
H13 C19 0.930 . S
N14 N15 1.234 . S
N14 C18 1.453 . S
N15 N14 1.234 . S
C16 H11 0.929 . S
C16 C17 1.373 . S
C16 C18 1.368 . S
C17 C16 1.373 . S
C17 C21 1.397 . S
C18 N14 1.453 . S
C18 C16 1.368 . S
C18 C19 1.373 . S
C19 H13 0.930 . S
C19 C18 1.373 . S
C19 C20 1.371 . S
C20 C19 1.371 . S
C20 C21 1.383 . S
C21 H12 0.931 . S
C21 C17 1.397 . S
C21 C20 1.383 . S
H22 C27 0.929 . S
H23 C32 0.931 . S
H24 C30 0.930 . S
N25 N26 1.234 . S
N25 C29 1.453 . S
N26 N25 1.234 . S
C27 H22 0.929 . S
C27 C28 1.373 . S
C27 C29 1.368 . S
C28 C27 1.373 . S
C28 C32 1.397 . S
C29 N25 1.453 . S
C29 C27 1.368 . S
C29 C30 1.373 . S
C30 H24 0.930 . S
C30 C29 1.373 . S
C30 C31 1.371 . S
C31 C30 1.371 . S
C31 C32 1.383 . S
C32 H23 0.931 . S
C32 C28 1.397 . S
C32 C31 1.383 . S
H33 C38 0.929 . S
H34 C43 0.931 . S
H35 C41 0.930 . S
N36 N37 1.234 . S
N36 C40 1.453 . S
N37 N36 1.234 . S
C38 H33 0.929 . S
C38 C39 1.373 . S
C38 C40 1.368 . S
C39 C38 1.373 . S
C39 C43 1.397 . S
C40 N36 1.453 . S
C40 C38 1.368 . S
C40 C41 1.373 . S
C41 H35 0.930 . S
C41 C40 1.373 . S
C41 C42 1.371 . S
C42 C41 1.371 . S
C42 C43 1.383 . S
C43 H34 0.931 . S
C43 C39 1.397 . S
C43 C42 1.383 . S
H44 C49 0.929 . S
H45 C54 0.931 . S
H46 C52 0.930 . S
N47 N48 1.234 . S
N47 C51 1.453 . S
N48 N47 1.234 . S
C49 H44 0.929 . S
C49 C50 1.373 . S
C49 C51 1.368 . S
C50 C49 1.373 . S
C50 C54 1.397 . S
C51 N47 1.453 . S
C51 C49 1.368 . S
C51 C52 1.373 . S
C52 H46 0.930 . S
C52 C51 1.373 . S
C52 C53 1.371 . S
C53 C52 1.371 . S
C53 C54 1.383 . S
C54 H45 0.931 . S
C54 C50 1.397 . S
C54 C53 1.383 . S
H55 C60 0.929 . S
H56 C65 0.931 . S
H57 C63 0.930 . S
N58 N59 1.234 . S
N58 C62 1.453 . S
N59 N58 1.234 . S
C60 H55 0.929 . S
C60 C61 1.373 . S
C60 C62 1.368 . S
C61 C60 1.373 . S
C61 C65 1.397 . S
C62 N58 1.453 . S
C62 C60 1.368 . S
C62 C63 1.373 . S
C63 H57 0.930 . S
C63 C62 1.373 . S
C63 C64 1.371 . S
C64 C63 1.371 . S
C64 C65 1.383 . S
C65 H56 0.931 . S
C65 C61 1.397 . S
C65 C64 1.383 . S
H66 C71 0.929 . S
H67 C76 0.931 . S
H68 C74 0.930 . S
N69 N70 1.234 . S
N69 C73 1.453 . S
N70 N69 1.234 . S
C71 H66 0.929 . S
C71 C72 1.373 . S
C71 C73 1.368 . S
C72 C71 1.373 . S
C72 C76 1.397 . S
C73 N69 1.453 . S
C73 C71 1.368 . S
C73 C74 1.373 . S
C74 H68 0.930 . S
C74 C73 1.373 . S
C74 C75 1.371 . S
C75 C74 1.371 . S
C75 C76 1.383 . S
C76 H67 0.931 . S
C76 C72 1.397 . S
C76 C75 1.383 . S
H77 C82 0.929 . S
H78 C87 0.931 . S
H79 C85 0.930 . S
N80 N81 1.234 . S
N80 C84 1.453 . S
N81 N80 1.234 . S
C82 H77 0.929 . S
C82 C83 1.373 . S
C82 C84 1.368 . S
C83 C82 1.373 . S
C83 C87 1.397 . S
C84 N80 1.453 . S
C84 C82 1.368 . S
C84 C85 1.373 . S
C85 H79 0.930 . S
C85 C84 1.373 . S
C85 C86 1.371 . S
C86 C85 1.371 . S
C86 C87 1.383 . S
C87 H78 0.931 . S
C87 C83 1.397 . S
C87 C86 1.383 . S
Zn88 O94 1.969 1_545 S
Zn88 O95 1.965 1_545 S
Zn88 O99 2.024 . S
Zn88 O104 1.969 . S
Zn89 O96 1.969 1_545 S
Zn89 O102 1.969 . S
Zn89 O103 1.965 1_655 S
Zn89 O105 2.024 1_545 S
C90 O91 1.229 . S
C90 O99 1.058 . S
O91 C90 1.229 . S
C92 O93 1.229 . S
C92 O105 1.058 . S
O93 C92 1.229 . S
O94 Zn88 1.969 1_565 S
O94 C97 1.267 . S
O95 Zn88 1.965 1_565 S
O95 C106 1.260 1_455 S
O96 Zn89 1.969 1_565 S
O96 C106 1.258 . S
C97 O94 1.267 . S
C97 O98 1.228 . S
O98 C97 1.228 . S
O99 Zn88 2.024 . S
O99 C90 1.058 . S
C100 O101 1.228 . S
C100 O102 1.267 . S
O101 C100 1.228 . S
O102 Zn89 1.969 . S
O102 C100 1.267 . S
O103 Zn89 1.965 1_455 S
O103 C107 1.260 . S
O104 Zn88 1.969 . S
O104 C107 1.258 . S
O105 Zn89 2.024 1_565 S
O105 C92 1.058 . S
C106 O95 1.260 1_655 S
C106 O96 1.258 . S
C107 O103 1.260 . S
C107 O104 1.258 . S
Zn108 O114 1.969 . S
Zn108 O115 1.965 1_566 S
Zn108 O119 2.024 . S
Zn108 O124 1.969 1_556 S
Zn109 O116 1.969 . S
Zn109 O122 1.969 . S
Zn109 O123 1.965 1_545 S
Zn109 O125 2.024 . S
C110 O111 1.229 . S
C110 O119 1.058 . S
O111 C110 1.229 . S
C112 O113 1.229 . S
C112 O125 1.058 . S
O113 C112 1.229 . S
O114 Zn108 1.969 . S
O114 C117 1.267 . S
O115 Zn108 1.965 1_544 S
O115 C126 1.260 . S
O116 Zn109 1.969 . S
O116 C126 1.258 . S
C117 O114 1.267 . S
C117 O118 1.228 . S
O118 C117 1.228 . S
O119 Zn108 2.024 . S
O119 C110 1.058 . S
C120 O121 1.228 . S
C120 O122 1.267 . S
O121 C120 1.228 . S
O122 Zn109 1.969 . S
O122 C120 1.267 . S
O123 Zn109 1.965 1_565 S
O123 C127 1.260 . S
O124 Zn108 1.969 1_554 S
O124 C127 1.258 . S
O125 Zn109 2.024 . S
O125 C112 1.058 . S
C126 O115 1.260 . S
C126 O116 1.258 . S
C127 O123 1.260 . S
C127 O124 1.258 . S
Zn128 O134 1.969 . S
Zn128 O135 1.965 . S
Zn128 O139 2.024 . S
Zn128 O144 1.969 . S
Zn129 O136 1.969 . S
Zn129 O142 1.969 . S
Zn129 O143 1.965 . S
Zn129 O145 2.024 . S
C130 O131 1.229 . S
C130 O139 1.058 . S
O131 C130 1.229 . S
C132 O133 1.229 . S
C132 O145 1.058 . S
O133 C132 1.229 . S
O134 Zn128 1.969 . S
O134 C137 1.267 . S
O135 Zn128 1.965 . S
O135 C146 1.260 . S
O136 Zn129 1.969 . S
O136 C146 1.258 . S
C137 O134 1.267 . S
C137 O138 1.228 . S
O138 C137 1.228 . S
O139 Zn128 2.024 . S
O139 C130 1.058 . S
C140 O141 1.228 . S
C140 O142 1.267 . S
O141 C140 1.228 . S
O142 Zn129 1.969 . S
O142 C140 1.267 . S
O143 Zn129 1.965 . S
O143 C147 1.260 . S
O144 Zn128 1.969 . S
O144 C147 1.258 . S
O145 Zn129 2.024 . S
O145 C132 1.058 . S
C146 O135 1.260 . S
C146 O136 1.258 . S
C147 O143 1.260 . S
C147 O144 1.258 . S
Zn148 O154 1.969 . S
Zn148 O155 1.965 1_556 S
Zn148 O159 2.024 . S
Zn148 O164 1.969 1_655 S
Zn149 O156 1.969 . S
Zn149 O162 1.969 . S
Zn149 O163 1.965 1_554 S
Zn149 O165 2.024 . S
C150 O151 1.229 . S
C150 O159 1.058 . S
O151 C150 1.229 . S
C152 O153 1.229 . S
C152 O165 1.058 . S
O153 C152 1.229 . S
O154 Zn148 1.969 . S
O154 C157 1.267 . S
O155 Zn148 1.965 1_554 S
O155 C166 1.260 . S
O156 Zn149 1.969 . S
O156 C166 1.258 1_455 S
C157 O154 1.267 . S
C157 O158 1.228 . S
O158 C157 1.228 . S
O159 Zn148 2.024 . S
O159 C150 1.058 . S
C160 O161 1.228 . S
C160 O162 1.267 . S
O161 C160 1.228 . S
O162 Zn149 1.969 . S
O162 C160 1.267 . S
O163 Zn149 1.965 1_556 S
O163 C167 1.260 . S
O164 Zn148 1.969 1_455 S
O164 C167 1.258 . S
O165 Zn149 2.024 . S
O165 C152 1.058 . S
C166 O155 1.260 . S
C166 O156 1.258 1_655 S
C167 O163 1.260 . S
C167 O164 1.258 . S
C168 C169 1.369 . S
C168 C170 1.419 . S
C168 H172 0.930 . S
C169 C168 1.369 . S
C169 C178 1.429 . S
C170 C168 1.419 . S
C170 C171 1.363 . S
C170 H173 0.929 . S
C171 C170 1.363 . S
C171 C177 1.428 . S
H172 C168 0.930 . S
H173 C170 0.929 . S
S174 N175 1.613 . S
S174 N176 1.610 . S
N175 S174 1.613 . S
N175 C178 1.350 . S
N176 S174 1.610 . S
N176 C177 1.351 . S
C177 C171 1.428 . S
C177 N176 1.351 . S
C177 C178 1.434 . S
C178 C169 1.429 . S
C178 N175 1.350 . S
C178 C177 1.434 . S
C179 C180 1.369 . S
C179 C181 1.419 . S
C179 H183 0.930 . S
C180 C179 1.369 . S
C180 C189 1.429 . S
C181 C179 1.419 . S
C181 C182 1.363 . S
C181 H184 0.929 . S
C182 C181 1.363 . S
C182 C188 1.428 . S
H183 C179 0.930 . S
H184 C181 0.929 . S
S185 N186 1.613 . S
S185 N187 1.610 . S
N186 S185 1.613 . S
N186 C189 1.350 . S
N187 S185 1.610 . S
N187 C188 1.351 . S
C188 C182 1.428 . S
C188 N187 1.351 . S
C188 C189 1.434 . S
C189 C180 1.429 . S
C189 N186 1.350 . S
C189 C188 1.434 . S
C190 C191 1.369 . S
C190 C192 1.419 . S
C190 H194 0.930 . S
C191 C190 1.369 . S
C191 C200 1.429 . S
C192 C190 1.419 . S
C192 C193 1.363 . S
C192 H195 0.929 . S
C193 C192 1.363 . S
C193 C199 1.428 . S
H194 C190 0.930 . S
H195 C192 0.929 . S
S196 N197 1.613 . S
S196 N198 1.610 . S
N197 S196 1.613 . S
N197 C200 1.350 . S
N198 S196 1.610 . S
N198 C199 1.351 . S
C199 C193 1.428 . S
C199 N198 1.351 . S
C199 C200 1.434 . S
C200 C191 1.429 . S
C200 N197 1.350 . S
C200 C199 1.434 . S
C201 C202 1.369 . S
C201 C203 1.419 . S
C201 H205 0.930 . S
C202 C201 1.369 . S
C202 C211 1.429 . S
C203 C201 1.419 . S
C203 C204 1.363 . S
C203 H206 0.929 . S
C204 C203 1.363 . S
C204 C210 1.428 . S
H205 C201 0.930 . S
H206 C203 0.929 . S
S207 N208 1.613 . S
S207 N209 1.610 . S
N208 S207 1.613 . S
N208 C211 1.350 . S
N209 S207 1.610 . S
N209 C210 1.351 . S
C210 C204 1.428 . S
C210 N209 1.351 . S
C210 C211 1.434 . S
C211 C202 1.429 . S
C211 N208 1.350 . S
C211 C210 1.434 . S
C212 C213 1.369 . S
C212 C214 1.419 . S
C212 H216 0.930 . S
C213 C212 1.369 . S
C213 C222 1.429 . S
C214 C212 1.419 . S
C214 C215 1.363 . S
C214 H217 0.929 . S
C215 C214 1.363 . S
C215 C221 1.428 . S
H216 C212 0.930 . S
H217 C214 0.929 . S
S218 N219 1.613 . S
S218 N220 1.610 . S
N219 S218 1.613 . S
N219 C222 1.350 . S
N220 S218 1.610 . S
N220 C221 1.351 . S
C221 C215 1.428 . S
C221 N220 1.351 . S
C221 C222 1.434 . S
C222 C213 1.429 . S
C222 N219 1.350 . S
C222 C221 1.434 . S
C223 C224 1.369 . S
C223 C225 1.419 . S
C223 H227 0.930 . S
C224 C223 1.369 . S
C224 C233 1.429 . S
C225 C223 1.419 . S
C225 C226 1.363 . S
C225 H228 0.929 . S
C226 C225 1.363 . S
C226 C232 1.428 . S
H227 C223 0.930 . S
H228 C225 0.929 . S
S229 N230 1.613 1_545 S
S229 N231 1.610 . S
N230 S229 1.613 1_565 S
N230 C233 1.350 . S
N231 S229 1.610 . S
N231 C232 1.351 1_545 S
C232 C226 1.428 . S
C232 N231 1.351 1_565 S
C232 C233 1.434 . S
C233 C224 1.429 . S
C233 N230 1.350 . S
C233 C232 1.434 . S
C234 C235 1.369 . S
C234 C236 1.419 . S
C234 H238 0.930 . S
C235 C234 1.369 . S
C235 C244 1.429 . S
C236 C234 1.419 . S
C236 C237 1.363 . S
C236 H239 0.929 . S
C237 C236 1.363 . S
C237 C243 1.428 . S
H238 C234 0.930 . S
H239 C236 0.929 . S
S240 N241 1.613 . S
S240 N242 1.610 . S
N241 S240 1.613 . S
N241 C244 1.350 . S
N242 S240 1.610 . S
N242 C243 1.351 . S
C243 C237 1.428 . S
C243 N242 1.351 . S
C243 C244 1.434 . S
C244 C235 1.429 . S
C244 N241 1.350 . S
C244 C243 1.434 . S
C245 C246 1.369 . S
C245 C247 1.419 . S
C245 H249 0.930 . S
C246 C245 1.369 . S
C246 C255 1.429 . S
C247 C245 1.419 . S
C247 C248 1.363 . S
C247 H250 0.929 . S
C248 C247 1.363 . S
C248 C254 1.428 . S
H249 C245 0.930 . S
H250 C247 0.929 . S
S251 N252 1.613 . S
S251 N253 1.610 . S
N252 S251 1.613 . S
N252 C255 1.350 . S
N253 S251 1.610 . S
N253 C254 1.351 . S
C254 C248 1.428 . S
C254 N253 1.351 . S
C254 C255 1.434 . S
C255 C246 1.429 . S
C255 N252 1.350 . S
C255 C254 1.434 . S
C256 C257 1.369 . S
C256 C258 1.419 . S
C256 H260 0.930 . S
C257 C256 1.369 . S
C257 C266 1.429 . S
C258 C256 1.419 . S
C258 C259 1.363 . S
C258 H261 0.929 . S
C259 C258 1.363 . S
C259 C265 1.428 . S
H260 C256 0.930 . S
H261 C258 0.929 . S
S262 N263 1.613 . S
S262 N264 1.610 . S
N263 S262 1.613 . S
N263 C266 1.350 . S
N264 S262 1.610 . S
N264 C265 1.351 . S
C265 C259 1.428 . S
C265 N264 1.351 . S
C265 C266 1.434 . S
C266 C257 1.429 . S
C266 N263 1.350 . S
C266 C265 1.434 . S
C267 C268 1.369 . S
C267 C269 1.419 . S
C267 H271 0.930 . S
C268 C267 1.369 . S
C268 C277 1.429 . S
C269 C267 1.419 . S
C269 C270 1.363 . S
C269 H272 0.929 . S
C270 C269 1.363 . S
C270 C276 1.428 . S
H271 C267 0.930 . S
H272 C269 0.929 . S
S273 N274 1.613 . S
S273 N275 1.610 . S
N274 S273 1.613 . S
N274 C277 1.350 . S
N275 S273 1.610 . S
N275 C276 1.351 . S
C276 C270 1.428 . S
C276 N275 1.351 . S
C276 C277 1.434 . S
C277 C268 1.429 . S
C277 N274 1.350 . S
C277 C276 1.434 . S
C278 C279 1.369 . S
C278 C280 1.419 . S
C278 H282 0.930 . S
C279 C278 1.369 . S
C279 C288 1.429 . S
C280 C278 1.419 . S
C280 C281 1.363 . S
C280 H283 0.929 . S
C281 C280 1.363 . S
C281 C287 1.428 . S
H282 C278 0.930 . S
H283 C280 0.929 . S
S284 N285 1.613 . S
S284 N286 1.610 . S
N285 S284 1.613 . S
N285 C288 1.350 . S
N286 S284 1.610 . S
N286 C287 1.351 . S
C287 C281 1.428 . S
C287 N286 1.351 . S
C287 C288 1.434 . S
C288 C279 1.429 . S
C288 N285 1.350 . S
C288 C287 1.434 . S
C289 C290 1.369 . S
C289 C291 1.419 . S
C289 H293 0.930 . S
C290 C289 1.369 . S
C290 C299 1.429 . S
C291 C289 1.419 . S
C291 C292 1.363 . S
C291 H294 0.929 . S
C292 C291 1.363 . S
C292 C298 1.428 . S
H293 C289 0.930 . S
H294 C291 0.929 . S
S295 N296 1.613 . S
S295 N297 1.610 . S
N296 S295 1.613 . S
N296 C299 1.350 . S
N297 S295 1.610 . S
N297 C298 1.351 . S
C298 C292 1.428 . S
C298 N297 1.351 . S
C298 C299 1.434 . S
C299 C290 1.429 . S
C299 N296 1.350 . S
C299 C298 1.434 . S
C300 C301 1.369 . S
C300 C302 1.419 . S
C300 H304 0.930 . S
C301 C300 1.369 . S
C301 C310 1.429 . S
C302 C300 1.419 . S
C302 C303 1.363 . S
C302 H305 0.929 . S
C303 C302 1.363 . S
C303 C309 1.428 . S
H304 C300 0.930 . S
H305 C302 0.929 . S
S306 N307 1.613 1_545 S
S306 N308 1.610 . S
N307 S306 1.613 1_565 S
N307 C310 1.350 . S
N308 S306 1.610 . S
N308 C309 1.351 1_545 S
C309 C303 1.428 . S
C309 N308 1.351 1_565 S
C309 C310 1.434 . S
C310 C301 1.429 . S
C310 N307 1.350 . S
C310 C309 1.434 . S
C311 C312 1.369 . S
C311 C313 1.419 . S
C311 H315 0.930 . S
C312 C311 1.369 . S
C312 C321 1.429 . S
C313 C311 1.419 . S
C313 C314 1.363 . S
C313 H316 0.929 . S
C314 C313 1.363 . S
C314 C320 1.428 . S
H315 C311 0.930 . S
H316 C313 0.929 . S
S317 N318 1.613 . S
S317 N319 1.610 . S
N318 S317 1.613 . S
N318 C321 1.350 . S
N319 S317 1.610 . S
N319 C320 1.351 . S
C320 C314 1.428 . S
C320 N319 1.351 . S
C320 C321 1.434 . S
C321 C312 1.429 . S
C321 N318 1.350 . S
C321 C320 1.434 . S
C322 C323 1.369 . S
C322 C324 1.419 . S
C322 H326 0.930 . S
C323 C322 1.369 . S
C323 C332 1.429 . S
C324 C322 1.419 . S
C324 C325 1.363 . S
C324 H327 0.929 . S
C325 C324 1.363 . S
C325 C331 1.428 . S
H326 C322 0.930 . S
H327 C324 0.929 . S
S328 N329 1.613 . S
S328 N330 1.610 . S
N329 S328 1.613 . S
N329 C332 1.350 . S
N330 S328 1.610 . S
N330 C331 1.351 . S
C331 C325 1.428 . S
C331 N330 1.351 . S
C331 C332 1.434 . S
C332 C323 1.429 . S
C332 N329 1.350 . S
C332 C331 1.434 . S
C333 C334 1.369 . S
C333 C335 1.419 . S
C333 H337 0.930 . S
C334 C333 1.369 . S
C334 C343 1.429 . S
C335 C333 1.419 . S
C335 C336 1.363 . S
C335 H338 0.929 . S
C336 C335 1.363 . S
C336 C342 1.428 . S
H337 C333 0.930 . S
H338 C335 0.929 . S
S339 N340 1.613 . S
S339 N341 1.610 . S
N340 S339 1.613 . S
N340 C343 1.350 . S
N341 S339 1.610 . S
N341 C342 1.351 . S
C342 C336 1.428 . S
C342 N341 1.351 . S
C342 C343 1.434 . S
C343 C334 1.429 . S
C343 N340 1.350 . S
C343 C342 1.434 . S
C344 C345 1.369 . S
C344 C346 1.419 . S
C344 H348 0.930 . S
C345 C344 1.369 . S
C345 C354 1.429 . S
C346 C344 1.419 . S
C346 C347 1.363 . S
C346 H349 0.929 . S
C347 C346 1.363 . S
C347 C353 1.428 . S
H348 C344 0.930 . S
H349 C346 0.929 . S
S350 N351 1.613 . S
S350 N352 1.610 . S
N351 S350 1.613 . S
N351 C354 1.350 . S
N352 S350 1.610 . S
N352 C353 1.351 . S
C353 C347 1.428 . S
C353 N352 1.351 . S
C353 C354 1.434 . S
C354 C345 1.429 . S
C354 N351 1.350 . S
C354 C353 1.434 . S
C355 C356 1.369 . S
C355 C357 1.419 . S
C355 H359 0.930 . S
C356 C355 1.369 . S
C356 C365 1.429 . S
C357 C355 1.419 . S
C357 C358 1.363 . S
C357 H360 0.929 . S
C358 C357 1.363 . S
C358 C364 1.428 . S
H359 C355 0.930 . S
H360 C357 0.929 . S
S361 N362 1.613 . S
S361 N363 1.610 . S
N362 S361 1.613 . S
N362 C365 1.350 . S
N363 S361 1.610 . S
N363 C364 1.351 . S
C364 C358 1.428 . S
C364 N363 1.351 . S
C364 C365 1.434 . S
C365 C356 1.429 . S
C365 N362 1.350 . S
C365 C364 1.434 . S
C366 C367 1.369 . S
C366 C368 1.419 . S
C366 H370 0.930 . S
C367 C366 1.369 . S
C367 C376 1.429 . S
C368 C366 1.419 . S
C368 C369 1.363 . S
C368 H371 0.929 . S
C369 C368 1.363 . S
C369 C375 1.428 . S
H370 C366 0.930 . S
H371 C368 0.929 . S
S372 N373 1.613 . S
S372 N374 1.610 . S
N373 S372 1.613 . S
N373 C376 1.350 . S
N374 S372 1.610 . S
N374 C375 1.351 . S
C375 C369 1.428 . S
C375 N374 1.351 . S
C375 C376 1.434 . S
C376 C367 1.429 . S
C376 N373 1.350 . S
C376 C375 1.434 . S
C377 C378 1.369 . S
C377 C379 1.419 . S
C377 H381 0.930 . S
C378 C377 1.369 . S
C378 C387 1.429 . S
C379 C377 1.419 . S
C379 C380 1.363 . S
C379 H382 0.929 . S
C380 C379 1.363 . S
C380 C386 1.428 . S
H381 C377 0.930 . S
H382 C379 0.929 . S
S383 N384 1.613 . S
S383 N385 1.610 . S
N384 S383 1.613 . S
N384 C387 1.350 . S
N385 S383 1.610 . S
N385 C386 1.351 . S
C386 C380 1.428 . S
C386 N385 1.351 . S
C386 C387 1.434 . S
C387 C378 1.429 . S
C387 N384 1.350 . S
C387 C386 1.434 . S
C388 C389 1.369 . S
C388 C390 1.419 . S
C388 H392 0.930 . S
C389 C388 1.369 . S
C389 C398 1.429 . S
C390 C388 1.419 . S
C390 C391 1.363 . S
C390 H393 0.929 . S
C391 C390 1.363 . S
C391 C397 1.428 . S
H392 C388 0.930 . S
H393 C390 0.929 . S
S394 N395 1.613 . S
S394 N396 1.610 . S
N395 S394 1.613 . S
N395 C398 1.350 . S
N396 S394 1.610 . S
N396 C397 1.351 . S
C397 C391 1.428 . S
C397 N396 1.351 . S
C397 C398 1.434 . S
C398 C389 1.429 . S
C398 N395 1.350 . S
C398 C397 1.434 . S
C399 C400 1.369 . S
C399 C401 1.419 . S
C399 H403 0.930 . S
C400 C399 1.369 . S
C400 C409 1.429 . S
C401 C399 1.419 . S
C401 C402 1.363 . S
C401 H404 0.929 . S
C402 C401 1.363 . S
C402 C408 1.428 . S
H403 C399 0.930 . S
H404 C401 0.929 . S
S405 N406 1.613 . S
S405 N407 1.610 . S
N406 S405 1.613 . S
N406 C409 1.350 . S
N407 S405 1.610 . S
N407 C408 1.351 . S
C408 C402 1.428 . S
C408 N407 1.351 . S
C408 C409 1.434 . S
C409 C400 1.429 . S
C409 N406 1.350 . S
C409 C408 1.434 . S
C410 C411 1.369 . S
C410 C412 1.419 . S
C410 H414 0.930 . S
C411 C410 1.369 . S
C411 C420 1.429 . S
C412 C410 1.419 . S
C412 C413 1.363 . S
C412 H415 0.929 . S
C413 C412 1.363 . S
C413 C419 1.428 . S
H414 C410 0.930 . S
H415 C412 0.929 . S
S416 N417 1.613 . S
S416 N418 1.610 . S
N417 S416 1.613 . S
N417 C420 1.350 . S
N418 S416 1.610 . S
N418 C419 1.351 . S
C419 C413 1.428 . S
C419 N418 1.351 . S
C419 C420 1.434 . S
C420 C411 1.429 . S
C420 N417 1.350 . S
C420 C419 1.434 . S
C421 C422 1.369 . S
C421 C423 1.419 . S
C421 H425 0.930 . S
C422 C421 1.369 . S
C422 C431 1.429 . S
C423 C421 1.419 . S
C423 C424 1.363 . S
C423 H426 0.929 . S
C424 C423 1.363 . S
C424 C430 1.428 . S
H425 C421 0.930 . S
H426 C423 0.929 . S
S427 N428 1.613 . S
S427 N429 1.610 . S
N428 S427 1.613 . S
N428 C431 1.350 . S
N429 S427 1.610 . S
N429 C430 1.351 . S
C430 C424 1.428 . S
C430 N429 1.351 . S
C430 C431 1.434 . S
C431 C422 1.429 . S
C431 N428 1.350 . S
C431 C430 1.434 . S
C169 C6 1.587 . S
C171 C107 1.582 . S
C180 C20 1.447 . S
C182 C110 1.398 . S
C193 C146 1.468 . S
C191 N26 1.491 . S
C202 N37 1.591 . S
C204 C166 1.594 . S
C215 C120 1.937 . S
C213 C9 1.950 . S
C226 C97 1.267 . S
C224 N15 1.300 . S
C237 C150 1.498 . S
C235 C31 1.564 . S
C248 C130 1.299 . S
C246 C39 1.417 . S
C257 N4 1.403 . S
C259 C160 1.321 . S
C270 C126 1.768 1_556 S
C268 C28 1.797 . S
C279 C42 1.479 . S
C281 C92 1.451 . S
C290 C17 1.444 . S
C292 C140 1.386 . S
C303 C106 1.626 . S
C301 C50 1.627 . S
C312 C61 1.312 . S
C314 C112 1.284 . S
C323 N70 1.764 . S
C325 C147 1.749 . S
C334 N81 1.487 . S
C336 C167 1.466 . S
C345 N48 1.511 . S
C347 C117 1.472 . S
C358 C100 1.818 . S
C356 C64 1.804 . S
C369 C152 1.459 . S
C367 C75 1.612 . S
C380 C132 1.325 . S
C378 C86 1.351 . S
C389 C53 1.587 . S
C391 C157 1.504 . S
C402 C127 1.465 . S
C400 C72 1.476 . S
C413 C90 1.669 . S
C411 C83 1.715 . S
C422 N59 1.325 . S
C424 C137 1.272 . S
