# Generated by pormake.
# Topology eea, (3,6)-cn, num edge types: 1
# Building blocks:
#     Node 0, Type 0, BuildingBlock: QEWDON_clean_linker_0, # of connection points: 3
#     Node 1, Type 0, BuildingBlock: QEWDON_clean_linker_0, # of connection points: 3
#     Node 2, Type 0, BuildingBlock: QEWDON_clean_linker_0, # of connection points: 3
#     Node 3, Type 0, BuildingBlock: QEWDON_clean_linker_0, # of connection points: 3
#     Node 4, Type 0, BuildingBlock: QEWDON_clean_linker_0, # of connection points: 3
#     Node 5, Type 0, BuildingBlock: QEWDON_clean_linker_0, # of connection points: 3
#     Node 6, Type 0, BuildingBlock: QEWDON_clean_linker_0, # of connection points: 3
#     Node 7, Type 0, BuildingBlock: QEWDON_clean_linker_0, # of connection points: 3
#     Node 8, Type 0, BuildingBlock: QEWDON_clean_linker_0, # of connection points: 3
#     Node 9, Type 0, BuildingBlock: QEWDON_clean_linker_0, # of connection points: 3
#     Node 10, Type 0, BuildingBlock: QEWDON_clean_linker_0, # of connection points: 3
#     Node 11, Type 0, BuildingBlock: QEWDON_clean_linker_0, # of connection points: 3
#     Node 12, Type 0, BuildingBlock: QEWDON_clean_linker_0, # of connection points: 3
#     Node 13, Type 0, BuildingBlock: QEWDON_clean_linker_0, # of connection points: 3
#     Node 14, Type 0, BuildingBlock: QEWDON_clean_linker_0, # of connection points: 3
#     Node 15, Type 0, BuildingBlock: QEWDON_clean_linker_0, # of connection points: 3
#     Node 16, Type 0, BuildingBlock: QEWDON_clean_linker_0, # of connection points: 3
#     Node 17, Type 0, BuildingBlock: QEWDON_clean_linker_0, # of connection points: 3
#     Node 18, Type 1, BuildingBlock: HISSIN_clean_sbu_0, # of connection points: 6
#     Node 19, Type 1, BuildingBlock: HISSIN_clean_sbu_0, # of connection points: 6
#     Node 20, Type 1, BuildingBlock: HISSIN_clean_sbu_0, # of connection points: 6
#     Node 21, Type 1, BuildingBlock: HISSIN_clean_sbu_0, # of connection points: 6
#     Node 22, Type 1, BuildingBlock: HISSIN_clean_sbu_0, # of connection points: 6
#     Node 23, Type 1, BuildingBlock: HISSIN_clean_sbu_0, # of connection points: 6
#     Node 24, Type 1, BuildingBlock: HISSIN_clean_sbu_0, # of connection points: 6
#     Node 25, Type 1, BuildingBlock: HISSIN_clean_sbu_0, # of connection points: 6
#     Node 26, Type 1, BuildingBlock: HISSIN_clean_sbu_0, # of connection points: 6
#     Edge 27, Type (0, 1), BuildingBlock: AJUNOK_clean_linker_0, # of connection points: 2
#     Edge 28, Type (0, 1), BuildingBlock: AJUNOK_clean_linker_0, # of connection points: 2
#     Edge 29, Type (0, 1), BuildingBlock: AJUNOK_clean_linker_0, # of connection points: 2
#     Edge 30, Type (0, 1), BuildingBlock: AJUNOK_clean_linker_0, # of connection points: 2
#     Edge 31, Type (0, 1), BuildingBlock: AJUNOK_clean_linker_0, # of connection points: 2
#     Edge 32, Type (0, 1), BuildingBlock: AJUNOK_clean_linker_0, # of connection points: 2
#     Edge 33, Type (0, 1), BuildingBlock: AJUNOK_clean_linker_0, # of connection points: 2
#     Edge 34, Type (0, 1), BuildingBlock: AJUNOK_clean_linker_0, # of connection points: 2
#     Edge 35, Type (0, 1), BuildingBlock: AJUNOK_clean_linker_0, # of connection points: 2
#     Edge 36, Type (0, 1), BuildingBlock: AJUNOK_clean_linker_0, # of connection points: 2
#     Edge 37, Type (0, 1), BuildingBlock: AJUNOK_clean_linker_0, # of connection points: 2
#     Edge 38, Type (0, 1), BuildingBlock: AJUNOK_clean_linker_0, # of connection points: 2
#     Edge 39, Type (0, 1), BuildingBlock: AJUNOK_clean_linker_0, # of connection points: 2
#     Edge 40, Type (0, 1), BuildingBlock: AJUNOK_clean_linker_0, # of connection points: 2
#     Edge 41, Type (0, 1), BuildingBlock: AJUNOK_clean_linker_0, # of connection points: 2
#     Edge 42, Type (0, 1), BuildingBlock: AJUNOK_clean_linker_0, # of connection points: 2
#     Edge 43, Type (0, 1), BuildingBlock: AJUNOK_clean_linker_0, # of connection points: 2
#     Edge 44, Type (0, 1), BuildingBlock: AJUNOK_clean_linker_0, # of connection points: 2
#     Edge 45, Type (0, 1), BuildingBlock: AJUNOK_clean_linker_0, # of connection points: 2
#     Edge 46, Type (0, 1), BuildingBlock: AJUNOK_clean_linker_0, # of connection points: 2
#     Edge 47, Type (0, 1), BuildingBlock: AJUNOK_clean_linker_0, # of connection points: 2
#     Edge 48, Type (0, 1), BuildingBlock: AJUNOK_clean_linker_0, # of connection points: 2
#     Edge 49, Type (0, 1), BuildingBlock: AJUNOK_clean_linker_0, # of connection points: 2
#     Edge 50, Type (0, 1), BuildingBlock: AJUNOK_clean_linker_0, # of connection points: 2
#     Edge 51, Type (0, 1), BuildingBlock: AJUNOK_clean_linker_0, # of connection points: 2
#     Edge 52, Type (0, 1), BuildingBlock: AJUNOK_clean_linker_0, # of connection points: 2
#     Edge 53, Type (0, 1), BuildingBlock: AJUNOK_clean_linker_0, # of connection points: 2
#     Edge 54, Type (0, 1), BuildingBlock: AJUNOK_clean_linker_0, # of connection points: 2
#     Edge 55, Type (0, 1), BuildingBlock: AJUNOK_clean_linker_0, # of connection points: 2
#     Edge 56, Type (0, 1), BuildingBlock: AJUNOK_clean_linker_0, # of connection points: 2
#     Edge 57, Type (0, 1), BuildingBlock: AJUNOK_clean_linker_0, # of connection points: 2
#     Edge 58, Type (0, 1), BuildingBlock: AJUNOK_clean_linker_0, # of connection points: 2
#     Edge 59, Type (0, 1), BuildingBlock: AJUNOK_clean_linker_0, # of connection points: 2
#     Edge 60, Type (0, 1), BuildingBlock: AJUNOK_clean_linker_0, # of connection points: 2
#     Edge 61, Type (0, 1), BuildingBlock: AJUNOK_clean_linker_0, # of connection points: 2
#     Edge 62, Type (0, 1), BuildingBlock: AJUNOK_clean_linker_0, # of connection points: 2
#     Edge 63, Type (0, 1), BuildingBlock: AJUNOK_clean_linker_0, # of connection points: 2
#     Edge 64, Type (0, 1), BuildingBlock: AJUNOK_clean_linker_0, # of connection points: 2
#     Edge 65, Type (0, 1), BuildingBlock: AJUNOK_clean_linker_0, # of connection points: 2
#     Edge 66, Type (0, 1), BuildingBlock: AJUNOK_clean_linker_0, # of connection points: 2
#     Edge 67, Type (0, 1), BuildingBlock: AJUNOK_clean_linker_0, # of connection points: 2
#     Edge 68, Type (0, 1), BuildingBlock: AJUNOK_clean_linker_0, # of connection points: 2
#     Edge 69, Type (0, 1), BuildingBlock: AJUNOK_clean_linker_0, # of connection points: 2
#     Edge 70, Type (0, 1), BuildingBlock: AJUNOK_clean_linker_0, # of connection points: 2
#     Edge 71, Type (0, 1), BuildingBlock: AJUNOK_clean_linker_0, # of connection points: 2
#     Edge 72, Type (0, 1), BuildingBlock: AJUNOK_clean_linker_0, # of connection points: 2
#     Edge 73, Type (0, 1), BuildingBlock: AJUNOK_clean_linker_0, # of connection points: 2
#     Edge 74, Type (0, 1), BuildingBlock: AJUNOK_clean_linker_0, # of connection points: 2
#     Edge 75, Type (0, 1), BuildingBlock: AJUNOK_clean_linker_0, # of connection points: 2
#     Edge 76, Type (0, 1), BuildingBlock: AJUNOK_clean_linker_0, # of connection points: 2
#     Edge 77, Type (0, 1), BuildingBlock: AJUNOK_clean_linker_0, # of connection points: 2
#     Edge 78, Type (0, 1), BuildingBlock: AJUNOK_clean_linker_0, # of connection points: 2
#     Edge 79, Type (0, 1), BuildingBlock: AJUNOK_clean_linker_0, # of connection points: 2
#     Edge 80, Type (0, 1), BuildingBlock: AJUNOK_clean_linker_0, # of connection points: 2
# Relax obj value: 0.090
# Max RMSD: 0.275
# Mean RMSD: 0.192
data_MOF--net-eea--node1-HISSIN_clean_sbu_0--node2-QEWDON_clean_linker_0--edge1-AJUNOK_clean_linker_0
_symmetry_space_group_name_H-M    P1
_symmetry_Int_Tables_number       1
_symmetry_cell_setting            triclinic
loop_
_symmetry_equiv_pos_as_xyz
'x, y, z'
_cell_length_a     42.896065
_cell_length_b     43.524999
_cell_length_c     53.20204
_cell_angle_alpha  92.915803
_cell_angle_beta   92.784352
_cell_angle_gamma 120.00243
loop_
_atom_site_label
_atom_site_type_symbol
_atom_site_fract_x
_atom_site_fract_y
_atom_site_fract_z
_atom_type_partial_charge
H0 H 0.2219 0.13364 0.44031 0.0
C1 C 0.22382 0.11235 0.43038 0.0
C2 C 0.24603 0.10043 0.44108 0.0
C3 C 0.20198 0.09489 0.40781 0.0
H4 H 0.26598 0.06417 0.43639 0.0
C5 C 0.24788 0.07243 0.4284 0.0
C6 C 0.22529 0.05383 0.40647 0.0
C7 C 0.20285 0.06563 0.39607 0.0
C8 C 0.17574 0.10473 0.39748 0.0
H9 H 0.18507 0.05129 0.37923 0.0
C10 C 0.18657 0.1402 0.39304 0.0
C11 C 0.16172 0.14839 0.38145 0.0
C12 C 0.13956 0.07798 0.39115 0.0
H13 H 0.13043 0.05059 0.39471 0.0
C14 C 0.11479 0.08626 0.38021 0.0
H15 H 0.2144 0.16104 0.39768 0.0
C16 C 0.12579 0.12119 0.37522 0.0
H17 H 0.1062 0.12704 0.36652 0.0
H18 H 0.08701 0.06548 0.37542 0.0
H19 H 0.90596 0.10511 0.44374 0.0
C20 C 0.92573 0.12591 0.43332 0.0
C21 C 0.93963 0.16188 0.44188 0.0
C22 C 0.93873 0.11658 0.41231 0.0
H23 H 0.97816 0.2163 0.43569 0.0
C24 C 0.96695 0.18858 0.42902 0.0
C25 C 0.98037 0.17962 0.40791 0.0
C26 C 0.96504 0.14353 0.39928 0.0
C27 C 0.92787 0.07888 0.40547 0.0
H28 H 0.97397 0.13612 0.38252 0.0
C29 C 0.89128 0.05177 0.40278 0.0
C30 C 0.8819 0.01609 0.39713 0.0
C31 C 0.95475 0.06985 0.40224 0.0
H32 H 0.98311 0.09014 0.40446 0.0
C33 C 0.94542 0.03449 0.39665 0.0
H34 H 0.87026 0.05836 0.40505 0.0
C35 C 0.90923 0.00772 0.39415 0.0
H36 H 0.90248 0.98041 0.38959 0.0
H37 H 0.96633 0.02782 0.39429 0.0
H38 H 0.93125 0.78437 0.44406 0.0
C39 C 0.90772 0.78376 0.43507 0.0
C40 C 0.87342 0.76261 0.44394 0.0
C41 C 0.91194 0.80543 0.41528 0.0
H42 H 0.81674 0.74533 0.43818 0.0
C43 C 0.84321 0.76209 0.43178 0.0
C44 C 0.84705 0.78409 0.41228 0.0
C45 C 0.88154 0.80538 0.40411 0.0
C46 C 0.94827 0.8313 0.40777 0.0
H47 H 0.88511 0.82307 0.3895 0.0
C48 C 0.97229 0.82051 0.39927 0.0
C49 C 1.00506 0.84556 0.39008 0.0
C50 C 0.95815 0.86739 0.40793 0.0
H51 H 0.94035 0.87639 0.4146 0.0
C52 C 0.99086 0.89218 0.39935 0.0
H53 H 0.96502 0.79279 0.39894 0.0
C54 C 1.01407 0.88134 0.3903 0.0
H55 H 0.03929 0.90098 0.38353 0.0
H56 H 0.99812 0.91985 0.39952 0.0
H57 H 0.14072 0.22228 0.59067 0.0
C58 C 0.11981 0.22394 0.60025 0.0
C59 C 0.10648 0.24562 0.5916 0.0
C60 C 0.10444 0.20234 0.62006 0.0
H61 H 0.06777 0.26275 0.59709 0.0
C62 C 0.07791 0.24586 0.60345 0.0
C63 C 0.0621 0.22422 0.62321 0.0
C64 C 0.07587 0.20291 0.63149 0.0
C65 C 0.11525 0.17622 0.62721 0.0
H66 H 0.06343 0.1856 0.64634 0.0
C67 C 0.15166 0.18656 0.63373 0.0
C68 C 0.16072 0.16108 0.64086 0.0
C69 C 0.08841 0.14028 0.62771 0.0
H70 H 0.06028 0.13159 0.62257 0.0
C71 C 0.09753 0.1151 0.63455 0.0
H72 H 0.17265 0.21417 0.63355 0.0
C73 C 0.13347 0.12539 0.64111 0.0
H74 H 0.14008 0.1055 0.64649 0.0
H75 H 0.07666 0.0875 0.6348 0.0
H76 H 0.81028 0.91864 0.59827 0.0
C77 C 0.81099 0.89697 0.60692 0.0
C78 C 0.78959 0.8619 0.59572 0.0
C79 C 0.8344 0.90453 0.62863 0.0
H80 H 0.77747 0.80753 0.59747 0.0
C81 C 0.79199 0.8343 0.6067 0.0
C82 C 0.81435 0.84127 0.62899 0.0
C83 C 0.83485 0.8764 0.64003 0.0
C84 C 0.86058 0.94194 0.63821 0.0
H85 H 0.85159 0.88205 0.65749 0.0
C86 C 0.85014 0.96787 0.63986 0.0
C87 C 0.87578 1.00358 0.64751 0.0
C88 C 0.89692 0.95221 0.64462 0.0
H89 H 0.90589 0.93297 0.64318 0.0
C90 C 0.92234 0.98765 0.65225 0.0
H91 H 0.82224 0.96039 0.63507 0.0
C92 C 0.91194 0.01329 0.65357 0.0
H93 H 0.93205 0.04069 0.65957 0.0
H94 H 0.95026 0.99531 0.65699 0.0
H95 H 0.09784 0.86897 0.59088 0.0
C96 C 0.12087 0.89334 0.59958 0.0
C97 C 0.15415 0.9088 0.58846 0.0
C98 C 0.11697 0.91006 0.62158 0.0
H99 H 0.20859 0.95391 0.5911 0.0
C100 C 0.18343 0.94095 0.59998 0.0
C101 C 0.18009 0.95742 0.62225 0.0
C102 C 0.14711 0.94112 0.63321 0.0
C103 C 0.08112 0.89835 0.63136 0.0
H104 H 0.14449 0.95318 0.65072 0.0
C105 C 0.05764 0.86291 0.63679 0.0
C106 C 0.02554 0.85425 0.64829 0.0
C107 C 0.07113 0.92419 0.63643 0.0
H108 H 0.08824 0.95144 0.63202 0.0
C109 C 0.0393 0.91547 0.64747 0.0
H110 H 0.06481 0.84264 0.63294 0.0
C111 C 0.01687 0.88088 0.65363 0.0
H112 H 0.9924 0.87478 0.6624 0.0
H113 H 0.03213 0.93569 0.65143 0.0
H114 H 0.88714 0.46679 0.77128 0.0
C115 C 0.88827 0.44451 0.76226 0.0
C116 C 0.91188 0.43411 0.7729 0.0
C117 C 0.86529 0.42549 0.74046 0.0
H118 H 0.93172 0.39755 0.76892 0.0
C119 C 0.91324 0.40534 0.76094 0.0
C120 C 0.88995 0.38562 0.73948 0.0
C121 C 0.86637 0.39614 0.72924 0.0
C122 C 0.83892 0.43498 0.72979 0.0
H123 H 0.84824 0.38099 0.71271 0.0
C124 C 0.84945 0.47056 0.72606 0.0
C125 C 0.82474 0.47883 0.71443 0.0
C126 C 0.80309 0.40805 0.72248 0.0
H127 H 0.79406 0.38052 0.72553 0.0
C128 C 0.77849 0.41634 0.7112 0.0
H129 H 0.87703 0.49158 0.73137 0.0
C130 C 0.78928 0.45149 0.70699 0.0
H131 H 0.76986 0.45744 0.69812 0.0
H132 H 0.75102 0.39542 0.7056 0.0
H133 H 0.57656 0.43737 0.77959 0.0
C134 C 0.59632 0.45842 0.76933 0.0
C135 C 0.61168 0.49417 0.77894 0.0
C136 C 0.60728 0.4496 0.74702 0.0
H137 H 0.65065 0.54856 0.7737 0.0
C138 C 0.63772 0.52122 0.76564 0.0
C139 C 0.64824 0.5129 0.74275 0.0
C140 C 0.63258 0.47691 0.73364 0.0
C141 C 0.59508 0.41193 0.73886 0.0
H142 H 0.64033 0.4699 0.71613 0.0
C143 C 0.55816 0.38567 0.73616 0.0
C144 C 0.54753 0.34995 0.72905 0.0
C145 C 0.62103 0.40205 0.73429 0.0
H146 H 0.64959 0.4217 0.73643 0.0
C147 C 0.61048 0.36663 0.72744 0.0
H148 H 0.53787 0.39297 0.73949 0.0
C149 C 0.57397 0.34067 0.72491 0.0
H150 H 0.56628 0.31333 0.71937 0.0
H151 H 0.63068 0.35927 0.72411 0.0
H152 H 0.59938 0.12516 0.78573 0.0
C153 C 0.57691 0.12419 0.77475 0.0
C154 C 0.54193 0.10638 0.78323 0.0
C155 C 0.58335 0.14291 0.75303 0.0
H156 H 0.48709 0.09549 0.77669 0.0
C157 C 0.51372 0.10806 0.7698 0.0
C158 C 0.51986 0.12672 0.74804 0.0
C159 C 0.55451 0.14287 0.73941 0.0
C160 C 0.62052 0.16777 0.74657 0.0
H161 H 0.55966 0.15682 0.72242 0.0
C162 C 0.64329 0.15588 0.73728 0.0
C163 C 0.67682 0.18057 0.72877 0.0
C164 C 0.63214 0.20432 0.74805 0.0
H165 H 0.61505 0.21399 0.75512 0.0
C166 C 0.66552 0.22867 0.74012 0.0
H167 H 0.6345 0.12773 0.73585 0.0
C168 C 0.68762 0.2169 0.73036 0.0
H169 H 0.7134 0.23626 0.72413 0.0
H170 H 0.67413 0.25674 0.7413 0.0
H171 H 0.80104 0.55318 0.91783 0.0
C172 C 0.78056 0.55464 0.92813 0.0
C173 C 0.76391 0.57315 0.9188 0.0
C174 C 0.76908 0.53598 0.94972 0.0
H175 H 0.72247 0.58655 0.92411 0.0
C176 C 0.73596 0.57321 0.93169 0.0
C177 C 0.72501 0.55564 0.95393 0.0
C178 C 0.74216 0.53745 0.96276 0.0
C179 C 0.78129 0.51101 0.95705 0.0
H180 H 0.73406 0.52354 0.97971 0.0
C181 C 0.81801 0.52234 0.96332 0.0
C182 C 0.82799 0.49765 0.97089 0.0
C183 C 0.75511 0.47498 0.95819 0.0
H184 H 0.72676 0.46565 0.95336 0.0
C185 C 0.76515 0.4506 0.96539 0.0
H186 H 0.83845 0.55006 0.96269 0.0
C187 C 0.80137 0.46183 0.97173 0.0
H188 H 0.80867 0.44255 0.97746 0.0
H189 H 0.74477 0.42293 0.96615 0.0
H190 H 0.48615 0.25379 0.92956 0.0
C191 C 0.48533 0.2329 0.94027 0.0
C192 C 0.46278 0.19705 0.93109 0.0
C193 C 0.50827 0.24205 0.96245 0.0
H194 H 0.44751 0.14274 0.93669 0.0
C195 C 0.46402 0.17033 0.94415 0.0
C196 C 0.48681 0.17902 0.96649 0.0
C197 C 0.50807 0.21497 0.97579 0.0
C198 C 0.53452 0.27991 0.97068 0.0
H199 H 0.52483 0.22212 0.99341 0.0
C200 C 0.52376 0.30563 0.97181 0.0
C201 C 0.54935 0.34165 0.9786 0.0
C202 C 0.57104 0.29064 0.97671 0.0
H203 H 0.58009 0.27144 0.97575 0.0
C204 C 0.59641 0.32638 0.98345 0.0
H205 H 0.49566 0.29772 0.9674 0.0
C206 C 0.5857 0.35182 0.98433 0.0
H207 H 0.60574 0.37943 0.98976 0.0
H208 H 0.62447 0.3344 0.98793 0.0
H209 H 0.76725 0.20566 0.92058 0.0
C210 C 0.79052 0.2279 0.93119 0.0
C211 C 0.82425 0.24409 0.92096 0.0
C212 C 0.78628 0.24251 0.95407 0.0
H213 H 0.87918 0.28751 0.92554 0.0
C214 C 0.85376 0.27431 0.93407 0.0
C215 C 0.85021 0.28859 0.95729 0.0
C216 C 0.81638 0.27212 0.96723 0.0
C217 C 0.74997 0.23153 0.96242 0.0
H218 H 0.81293 0.28322 0.98488 0.0
C219 C 0.72682 0.19706 0.96968 0.0
C220 C 0.69407 0.18927 0.97979 0.0
C221 C 0.73935 0.25727 0.9644 0.0
H222 H 0.75661 0.28383 0.95877 0.0
C223 C 0.70667 0.24926 0.97384 0.0
H224 H 0.73478 0.17704 0.96838 0.0
C225 C 0.68432 0.21561 0.98169 0.0
H226 H 0.65928 0.2101 0.98929 0.0
H227 H 0.69884 0.26933 0.97536 0.0
H228 H 0.5607 0.80291 0.10867 0.0
C229 C 0.56187 0.78112 0.09883 0.0
C230 C 0.58541 0.77014 0.10868 0.0
C231 C 0.53879 0.76303 0.07689 0.0
H232 H 0.60446 0.73303 0.10371 0.0
C233 C 0.58651 0.74165 0.096 0.0
C234 C 0.56352 0.72321 0.07414 0.0
C235 C 0.53973 0.73408 0.0648 0.0
C236 C 0.51215 0.77272 0.0671 0.0
H237 H 0.52112 0.71936 0.04839 0.0
C238 C 0.52262 0.80823 0.06308 0.0
C239 C 0.49749 0.81643 0.05197 0.0
C240 C 0.47605 0.74583 0.06067 0.0
H241 H 0.46715 0.71838 0.06389 0.0
C242 C 0.45106 0.75403 0.05 0.0
H243 H 0.55042 0.82917 0.06772 0.0
C244 C 0.46172 0.78905 0.04547 0.0
H245 H 0.44194 0.79487 0.03706 0.0
H246 H 0.42337 0.73313 0.04508 0.0
H247 H 0.23497 0.77118 0.10671 0.0
C248 C 0.25611 0.79292 0.09774 0.0
C249 C 0.26884 0.82824 0.1074 0.0
C250 C 0.27154 0.7854 0.07733 0.0
H251 H 0.30752 0.88345 0.10367 0.0
C252 C 0.29701 0.85619 0.09606 0.0
C253 C 0.31274 0.84916 0.07557 0.0
C254 C 0.29953 0.81372 0.06618 0.0
C255 C 0.26073 0.74799 0.06914 0.0
H256 H 0.31191 0.80811 0.05066 0.0
C257 C 0.22406 0.72102 0.06591 0.0
C258 C 0.21451 0.68548 0.05945 0.0
C259 C 0.28748 0.73888 0.06548 0.0
H260 H 0.31588 0.75892 0.06819 0.0
C261 C 0.27793 0.70363 0.05897 0.0
H262 H 0.20306 0.72754 0.06851 0.0
C263 C 0.24166 0.67701 0.05607 0.0
H264 H 0.23471 0.64975 0.05103 0.0
H265 H 0.29873 0.69689 0.05634 0.0
H266 H 0.26672 0.46299 0.11796 0.0
C267 C 0.24422 0.46213 0.10709 0.0
C268 C 0.20964 0.44557 0.11621 0.0
C269 C 0.25021 0.47981 0.08487 0.0
H270 H 0.15476 0.43453 0.10988 0.0
C271 C 0.18118 0.44662 0.10267 0.0
C272 C 0.18682 0.46412 0.08041 0.0
C273 C 0.22117 0.47953 0.07132 0.0
C274 C 0.28718 0.50409 0.07775 0.0
H275 H 0.22592 0.49273 0.05401 0.0
C276 C 0.30962 0.49166 0.06866 0.0
C277 C 0.34285 0.51574 0.05943 0.0
C278 C 0.29886 0.54062 0.07832 0.0
H279 H 0.28204 0.55072 0.08523 0.0
C280 C 0.33191 0.56438 0.06967 0.0
H281 H 0.30081 0.46353 0.06796 0.0
C282 C 0.35365 0.55204 0.0601 0.0
H283 H 0.37922 0.57098 0.05336 0.0
H284 H 0.34054 0.59243 0.07014 0.0
H285 H 0.47165 0.89063 0.25567 0.0
C286 C 0.4506 0.89146 0.26565 0.0
C287 C 0.43569 0.91191 0.25729 0.0
C288 C 0.43737 0.87079 0.28613 0.0
H289 H 0.3941 0.92513 0.26219 0.0
C290 C 0.40712 0.91132 0.26973 0.0
C291 C 0.39412 0.89147 0.29082 0.0
C292 C 0.41 0.87176 0.29895 0.0
C293 C 0.4485 0.84461 0.29229 0.0
H294 H 0.40049 0.85624 0.31506 0.0
C295 C 0.48506 0.85468 0.29771 0.0
C296 C 0.4944 0.82875 0.30308 0.0
C297 C 0.42168 0.80859 0.29233 0.0
H298 H 0.39344 0.80018 0.28805 0.0
C299 C 0.43098 0.78298 0.29742 0.0
H300 H 0.50598 0.88237 0.29786 0.0
C301 C 0.46708 0.79292 0.3027 0.0
H302 H 0.47372 0.77262 0.30683 0.0
H303 H 0.41012 0.75532 0.29729 0.0
H304 H 0.15253 0.58597 0.2603 0.0
C305 C 0.15188 0.5651 0.27095 0.0
C306 C 0.12974 0.52931 0.26158 0.0
C307 C 0.17385 0.5741 0.29362 0.0
H308 H 0.11415 0.47495 0.26714 0.0
C309 C 0.13003 0.50243 0.27497 0.0
C310 C 0.1519 0.51097 0.29773 0.0
C311 C 0.17303 0.54689 0.30716 0.0
C312 C 0.19974 0.61193 0.30224 0.0
H313 H 0.18918 0.55387 0.32505 0.0
C314 C 0.18881 0.63754 0.30314 0.0
C315 C 0.21412 0.67351 0.31041 0.0
C316 C 0.23611 0.62271 0.30895 0.0
H317 H 0.24528 0.60359 0.30819 0.0
C318 C 0.26119 0.65839 0.31616 0.0
H319 H 0.16082 0.62958 0.2982 0.0
C320 C 0.25034 0.68371 0.31683 0.0
H321 H 0.27016 0.71128 0.32265 0.0
H322 H 0.28915 0.66645 0.32118 0.0
H323 H 0.43021 0.53992 0.25525 0.0
C324 C 0.45381 0.56214 0.26558 0.0
C325 C 0.48747 0.57737 0.25515 0.0
C326 C 0.4502 0.57765 0.28836 0.0
H327 H 0.54345 0.61898 0.26026 0.0
C328 C 0.5175 0.60716 0.26819 0.0
C329 C 0.51411 0.6229 0.29073 0.0
C330 C 0.48067 0.60758 0.30095 0.0
C331 C 0.41433 0.56671 0.29762 0.0
H332 H 0.47782 0.62028 0.31807 0.0
C333 C 0.39105 0.5318 0.30401 0.0
C334 C 0.35914 0.52385 0.31547 0.0
C335 C 0.40451 0.59283 0.30171 0.0
H336 H 0.42174 0.61973 0.29668 0.0
C337 C 0.37279 0.5848 0.31267 0.0
H338 H 0.3983 0.51144 0.30098 0.0
C339 C 0.35046 0.55069 0.31978 0.0
H340 H 0.32611 0.54515 0.32849 0.0
H341 H 0.36566 0.6052 0.31589 0.0
Eu342 Eu 0.49476 0.99428 0.99121 0.0
Eu343 Eu 0.51814 0.02591 0.05222 0.0
C344 C 0.49439 0.06406 1.01223 0.0
C345 C 0.48876 0.99515 0.91959 0.0
C346 C 0.50513 0.03242 0.92121 0.0
C347 C 0.49155 0.99468 0.87401 0.0
C348 C 0.51464 0.05069 0.89935 0.0
C349 C 0.48197 0.97644 0.89585 0.0
C350 C 0.50828 0.03205 0.8755 0.0
C351 C 0.48016 0.97575 0.94256 0.0
O352 O 0.45758 0.99241 0.0463 0.0
O353 O 0.45003 0.95369 1.01255 0.0
C354 C 0.439 0.96117 0.03342 0.0
O355 O 0.5181 0.96277 1.00804 0.0
O356 O 0.5072 0.04832 0.08612 0.0
O357 O 0.55044 0.0362 0.08791 0.0
O358 O 0.51229 0.97161 0.05013 0.0
C359 C 0.51754 0.95429 0.03147 0.0
O360 O 0.5486 0.04496 0.99243 0.0
O361 O 0.5708 0.05178 0.03387 0.0
O362 O 0.51786 0.06937 0.03113 0.0
O363 O 0.50763 0.97766 0.95569 0.0
O364 O 0.45825 0.97948 0.95694 0.0
O365 O 0.4752 0.03289 0.99937 0.0
C366 C 0.51638 0.02573 0.12396 0.0
C367 C 0.52791 1.00289 0.13301 0.0
C368 C 0.47792 0.01271 0.15886 0.0
C369 C 0.51461 0.98522 0.15468 0.0
C370 C 0.49136 0.03053 0.13724 0.0
C371 C 0.4895 0.98993 0.16794 0.0
C372 C 0.53008 0.04443 0.10081 0.0
C373 C 0.57528 0.06006 1.01034 0.0
H374 H 0.51083 0.0474 0.9394 0.0
H375 H 0.48556 0.97948 0.8559 0.0
H376 H 0.52747 0.07946 0.90112 0.0
H377 H 0.46941 0.94769 0.89421 0.0
H378 H 0.54724 0.99857 0.12337 0.0
H379 H 0.45794 0.0163 0.16818 0.0
H380 H 0.52427 0.96803 0.16119 0.0
H381 H 0.48187 0.04786 0.13076 0.0
Eu382 Eu 0.0328 0.50198 0.99006 0.0
Eu383 Eu 1.0031 0.48781 0.04679 0.0
C384 C 0.96636 0.42645 1.00175 0.0
C385 C 0.03292 0.50183 0.91888 0.0
C386 C 0.99785 0.47224 0.91509 0.0
C387 C 0.02909 0.51349 0.875 0.0
C388 C 0.97856 0.46329 0.89139 0.0
C389 C 0.04845 0.52233 0.89871 0.0
C390 C 0.99379 0.48409 0.87116 0.0
C391 C 0.05248 0.51277 0.94412 0.0
O392 O 0.03987 0.46475 0.04321 0.0
O393 O 0.0763 0.50035 0.01436 0.0
C394 C 0.07062 0.47954 0.0327 0.0
O395 O 0.05952 0.5557 1.01246 0.0
O396 O 0.98324 0.4535 0.07774 0.0
O397 O 0.99031 0.5065 0.0814 0.0
O398 O 0.05802 0.53702 0.05191 0.0
C399 C 0.07219 0.56187 0.03627 0.0
O400 O 0.97815 0.49723 0.98647 0.0
O401 O 0.9756 0.51419 0.02735 0.0
O402 O 0.96009 0.44235 0.02082 0.0
O403 O 0.0468 0.53462 0.95815 0.0
O404 O 0.0521 0.48762 0.95672 0.0
O405 O 0.99671 0.44243 0.99079 0.0
C406 C 1.00498 0.48561 0.11806 0.0
C407 C 0.0307 0.52045 0.12788 0.0
C408 C 0.01892 0.46302 0.15534 0.0
C409 C 0.05015 0.52646 0.15121 0.0
C410 C 0.99923 0.457 0.13207 0.0
C411 C 0.04447 0.49785 0.16524 0.0
C412 C 0.98481 0.47873 0.09306 0.0
C413 C 0.96412 0.50873 1.00328 0.0
H414 H 0.9853 0.45622 0.93051 0.0
H415 H 0.04149 0.52996 0.85977 0.0
H416 H 0.9518 0.43994 0.88886 0.0
H417 H 0.07538 0.54544 0.90138 0.0
H418 H 0.03601 0.54316 0.11756 0.0
H419 H 1.01452 0.44034 0.16538 0.0
H420 H 0.06954 0.55361 0.15836 0.0
H421 H 0.97975 0.42989 0.12487 0.0
Eu422 Eu 0.54062 0.51516 0.04307 0.0
Eu423 Eu 0.52292 0.53006 0.98469 0.0
C424 C 0.54654 0.58991 0.03057 0.0
C425 C 0.53908 0.51406 0.11366 0.0
C426 C 0.51816 0.5306 0.11288 0.0
C427 C 0.53772 0.51491 0.15933 0.0
C428 C 0.50711 0.53925 0.13514 0.0
C429 C 0.54861 0.50607 0.13699 0.0
C430 C 0.51714 0.53193 0.15867 0.0
C431 C 0.55002 0.50443 0.09006 0.0
O432 O 0.5835 0.55698 0.99224 0.0
O433 O 0.5871 0.52134 0.02116 0.0
C434 C 0.60107 0.54325 1.00343 0.0
O435 O 0.51453 0.46222 0.01988 0.0
O436 O 0.53454 0.56496 0.95421 0.0
O437 O 0.49336 0.50925 0.94747 0.0
O438 O 0.5317 0.48328 0.98155 0.0
C439 C 0.52186 0.45786 0.99677 0.0
O440 O 0.48869 0.51568 0.04338 0.0
O441 O 0.46862 0.50335 1.00127 0.0
O442 O 0.52612 0.57518 1.00931 0.0
O443 O 0.52348 0.48117 0.0742 0.0
O444 O 0.57442 0.53086 0.07878 0.0
O445 O 0.56009 0.57386 0.04369 0.0
C446 C 0.53036 0.53552 0.91464 0.0
C447 C 0.56376 0.53677 0.9169 0.0
C448 C 0.52747 0.52448 0.86912 0.0
C449 C 0.5789 0.53192 0.89542 0.0
C450 C 0.51244 0.52955 0.89062 0.0
C451 C 0.56068 0.5252 0.87129 0.0
C452 C 0.51351 0.53888 0.93731 0.0
C453 C 0.46282 0.50531 0.02524 0.0
H454 H 0.51029 0.53676 0.09503 0.0
H455 H 0.54595 0.50905 0.17717 0.0
H456 H 0.49065 0.55164 0.13391 0.0
H457 H 0.56458 0.49314 0.13794 0.0
H458 H 0.578 0.54123 0.93532 0.0
H459 H 0.51272 0.5192 0.85082 0.0
H460 H 0.60487 0.53342 0.89771 0.0
H461 H 0.48657 0.52829 0.88851 0.0
Eu462 Eu 0.16005 0.32706 0.32188 0.0
Eu463 Eu 0.18077 0.35618 0.3833 0.0
C464 C 0.15757 0.39529 0.34376 0.0
C465 C 0.15651 0.33104 0.2508 0.0
C466 C 0.17601 0.36844 0.25376 0.0
C467 C 0.1571 0.33326 0.20522 0.0
C468 C 0.18588 0.3881 0.23258 0.0
C469 C 0.1472 0.31361 0.22641 0.0
C470 C 0.17639 0.37073 0.20804 0.0
C471 C 0.1472 0.31019 0.27304 0.0
O472 O 0.12002 0.32203 0.37609 0.0
O473 O 0.11628 0.28475 0.34256 0.0
C474 C 0.10285 0.29126 0.36246 0.0
O475 O 0.18566 0.2974 0.33836 0.0
O476 O 0.16805 0.37597 0.41769 0.0
O477 O 0.2131 0.36651 0.41897 0.0
O478 O 0.17627 0.30232 0.38014 0.0
C479 C 0.18323 0.28675 0.36123 0.0
O480 O 0.21285 0.37837 0.32414 0.0
O481 O 0.23418 0.38412 0.36566 0.0
O482 O 0.18049 0.40022 0.36295 0.0
O483 O 0.17447 0.31209 0.28644 0.0
O484 O 0.12434 0.31258 0.2872 0.0
O485 O 0.13908 0.36444 0.33038 0.0
C486 C 0.17977 0.35465 0.45548 0.0
C487 C 0.19411 0.33417 0.46481 0.0
C488 C 0.14271 0.34075 0.49125 0.0
C489 C 0.18291 0.31725 0.48705 0.0
C490 C 0.15401 0.3578 0.46905 0.0
C491 C 0.15721 0.32047 0.50062 0.0
C492 C 0.192 0.37335 0.43213 0.0
C493 C 0.23923 0.39272 0.34219 0.0
H494 H 0.18384 0.3824 0.27247 0.0
H495 H 0.14933 0.31914 0.18658 0.0
H496 H 0.20134 0.4169 0.23542 0.0
H497 H 0.1324 0.28479 0.22376 0.0
H498 H 0.21402 0.33111 0.45494 0.0
H499 H 0.12293 0.34381 0.5013 0.0
H500 H 0.1941 0.30127 0.49349 0.0
H501 H 0.14263 0.37358 0.46252 0.0
Eu502 Eu 0.70115 0.83482 0.32528 0.0
Eu503 Eu 0.66756 0.82181 0.38144 0.0
C504 C 0.63042 0.75978 0.33541 0.0
C505 C 0.7066 0.83584 0.25444 0.0
C506 C 0.67607 0.80197 0.24844 0.0
C507 C 0.69977 0.85126 0.21201 0.0
C508 C 0.6573 0.793 0.22456 0.0
C509 C 0.71855 0.86028 0.23598 0.0
C510 C 0.66856 0.81778 0.20629 0.0
C511 C 0.72443 0.84677 0.28032 0.0
O512 O 0.70296 0.79723 0.38155 0.0
O513 O 0.73944 0.82526 0.35 0.0
C514 C 0.73238 0.80669 0.36987 0.0
O515 O 0.7271 0.88803 0.34816 0.0
O516 O 0.64316 0.79032 0.41303 0.0
O517 O 0.65652 0.84542 0.41449 0.0
O518 O 0.72451 0.86778 0.387 0.0
C519 C 0.73966 0.8931 0.37187 0.0
O520 O 0.64657 0.82995 0.31952 0.0
O521 O 0.64275 0.8487 0.35955 0.0
O522 O 0.62604 0.77352 0.35662 0.0
O523 O 0.71742 0.86819 0.29372 0.0
O524 O 0.72382 0.82183 0.29333 0.0
O525 O 0.65907 0.77659 0.32274 0.0
C526 C 0.66627 0.8244 0.45208 0.0
C527 C 0.70354 0.83733 0.45397 0.0
C528 C 0.66699 0.82449 0.49775 0.0
C529 C 0.72232 0.84306 0.4775 0.0
C530 C 0.6481 0.81826 0.47408 0.0
C531 C 0.70427 0.83635 0.49972 0.0
C532 C 0.64672 0.81751 0.42712 0.0
C533 C 0.63183 0.8419 0.33537 0.0
H534 H 0.66647 0.78261 0.26233 0.0
H535 H 0.70907 0.87073 0.19816 0.0
H536 H 0.63387 0.76671 0.22033 0.0
H537 H 0.74197 0.8866 0.24027 0.0
H538 H 0.71809 0.84282 0.43717 0.0
H539 H 0.65244 0.82041 0.51447 0.0
H540 H 0.75098 0.85238 0.47822 0.0
H541 H 0.61938 0.8088 0.47296 0.0
Eu542 Eu 0.20411 0.84575 0.37523 0.0
Eu543 Eu 0.18763 0.86199 0.31693 0.0
C544 C 0.21045 0.92089 0.3635 0.0
C545 C 0.20252 0.84215 0.44616 0.0
C546 C 0.18476 0.86182 0.4469 0.0
C547 C 0.19951 0.8385 0.49152 0.0
C548 C 0.17509 0.87042 0.46984 0.0
C549 C 0.20971 0.83043 0.46859 0.0
C550 C 0.18208 0.85867 0.49249 0.0
C551 C 0.2127 0.8332 0.42194 0.0
O552 O 0.24824 0.88831 0.32437 0.0
O553 O 0.25132 0.85283 0.35378 0.0
C554 C 0.26574 0.87494 0.3362 0.0
O555 O 0.17806 0.79337 0.35128 0.0
O556 O 0.19943 0.89668 0.28628 0.0
O557 O 0.15651 0.84157 0.28024 0.0
O558 O 0.1966 0.81534 0.31339 0.0
C559 C 0.18621 0.78953 0.32832 0.0
O560 O 0.15279 0.84755 0.37561 0.0
O561 O 0.13338 0.83456 0.33347 0.0
O562 O 0.19085 0.90695 0.34185 0.0
O563 O 0.18577 0.81099 0.40591 0.0
O564 O 0.23745 0.85985 0.41103 0.0
O565 O 0.22403 0.90458 0.37629 0.0
C566 C 0.19089 0.86676 0.24605 0.0
C567 C 0.22213 0.86397 0.24641 0.0
C568 C 0.18521 0.85896 0.20018 0.0
C569 C 0.23491 0.85887 0.22378 0.0
C570 C 0.17254 0.86422 0.22283 0.0
C571 C 0.21664 0.85636 0.20038 0.0
C572 C 0.17658 0.87093 0.26978 0.0
C573 C 0.1273 0.83754 0.35724 0.0
H574 H 0.17847 0.87062 0.4297 0.0
H575 H 0.20516 0.82883 0.50851 0.0
H576 H 0.16272 0.88683 0.46981 0.0
H577 H 0.2231 0.8149 0.46836 0.0
H578 H 0.23649 0.86552 0.2642 0.0
H579 H 0.16997 0.85618 0.18254 0.0
H580 H 0.25916 0.85695 0.22457 0.0
H581 H 0.14814 0.86587 0.22222 0.0
Eu582 Eu 0.82518 0.6556 0.65294 0.0
Eu583 Eu 0.84464 0.68764 0.7137 0.0
C584 C 0.82277 0.72521 0.67208 0.0
C585 C 0.82206 0.65364 0.58114 0.0
C586 C 0.83182 0.68962 0.58112 0.0
C587 C 0.83295 0.65306 0.5367 0.0
C588 C 0.84187 0.70712 0.559 0.0
C589 C 0.82271 0.63553 0.55879 0.0
C590 C 0.84287 0.68915 0.53653 0.0
C591 C 0.81298 0.63527 0.60455 0.0
O592 O 0.78407 0.65459 0.70571 0.0
O593 O 0.78081 0.61489 0.67434 0.0
C594 C 0.76695 0.62293 0.69333 0.0
O595 O 0.85092 0.6273 0.67138 0.0
O596 O 0.83156 0.70898 0.74706 0.0
O597 O 0.87529 0.69769 0.75012 0.0
O598 O 0.83887 0.63337 0.71226 0.0
C599 C 0.84741 0.61757 0.69452 0.0
O600 O 0.87801 0.70701 0.65461 0.0
O601 O 0.89849 0.71471 0.69654 0.0
O602 O 0.84492 0.73078 0.69195 0.0
O603 O 0.84035 0.63855 0.61866 0.0
O604 O 0.78988 0.6386 0.61788 0.0
O605 O 0.80495 0.69416 0.65885 0.0
C606 C 0.8396 0.68608 0.78466 0.0
C607 C 0.81531 0.64917 0.78199 0.0
C608 C 0.83685 0.68533 0.83022 0.0
C609 C 0.80193 0.63047 0.8033 0.0
C610 C 0.8502 0.70399 0.80891 0.0
C611 C 0.81249 0.64835 0.82771 0.0
C612 C 0.85437 0.70582 0.76234 0.0
C613 C 0.90404 0.7224 0.67291 0.0
H614 H 0.83174 0.70418 0.59824 0.0
H615 H 0.83351 0.63847 0.51978 0.0
H616 H 0.84843 0.73462 0.55944 0.0
H617 H 0.8156 0.60786 0.55847 0.0
H618 H 0.80695 0.63477 0.76343 0.0
H619 H 0.84545 0.69988 0.84872 0.0
H620 H 0.78385 0.60192 0.80071 0.0
H621 H 0.86893 0.73243 0.81137 0.0
Eu622 Eu 0.36689 0.16727 0.6583 0.0
Eu623 Eu 0.33762 0.15212 0.71517 0.0
C624 C 0.29912 0.09214 0.66895 0.0
C625 C 0.36524 0.1688 0.58762 0.0
C626 C 0.32738 0.15103 0.58627 0.0
C627 C 0.36268 0.16785 0.54187 0.0
C628 C 0.30728 0.1416 0.56289 0.0
C629 C 0.38282 0.17741 0.56534 0.0
C630 C 0.3247 0.14948 0.54042 0.0
C631 C 0.38615 0.17896 0.61232 0.0
O632 O 0.37356 0.12833 0.71061 0.0
O633 O 0.41029 0.16494 0.68235 0.0
C634 C 0.40441 0.14343 0.70025 0.0
O635 O 0.39217 0.22067 0.68094 0.0
O636 O 0.31915 0.11802 0.74637 0.0
O637 O 0.32412 0.17016 0.7497 0.0
O638 O 0.39244 0.20171 0.72009 0.0
C639 C 0.40537 0.22691 0.7046 0.0
O640 O 0.31233 0.16269 0.65504 0.0
O641 O 0.30937 0.17814 0.69623 0.0
O642 O 0.29394 0.10736 0.689 0.0
O643 O 0.38207 0.20122 0.62718 0.0
O644 O 0.38494 0.15293 0.62423 0.0
O645 O 0.32947 0.10774 0.65797 0.0
C646 C 0.3393 0.1504 0.78677 0.0
C647 C 0.3627 0.18563 0.79708 0.0
C648 C 0.35402 0.12908 0.82447 0.0
C649 C 0.3814 0.19245 0.82082 0.0
C650 C 0.33508 0.12222 0.80076 0.0
C651 C 0.37718 0.16427 0.83478 0.0
C652 C 0.31952 0.14279 0.76152 0.0
C653 C 0.29788 0.17318 0.67217 0.0
H654 H 0.31337 0.14443 0.60332 0.0
H655 H 0.37674 0.17412 0.52483 0.0
H656 H 0.27809 0.12806 0.56237 0.0
H657 H 0.41205 0.19132 0.56609 0.0
H658 H 0.36681 0.20804 0.78681 0.0
H659 H 0.35031 0.10689 0.83487 0.0
H660 H 0.39958 0.21982 0.82815 0.0
H661 H 0.31719 0.09484 0.7933 0.0
Eu662 Eu 0.87502 0.18169 0.70869 0.0
Eu663 Eu 0.85372 0.19382 0.65019 0.0
C664 C 0.87834 0.25473 0.69564 0.0
C665 C 0.87586 0.18156 0.77943 0.0
C666 C 0.85188 0.19467 0.77883 0.0
C667 C 0.87791 0.18528 0.82528 0.0
C668 C 0.84114 0.20321 0.80125 0.0
C669 C 0.88864 0.17669 0.80277 0.0
C670 C 0.85437 0.19902 0.82474 0.0
C671 C 0.88697 0.17263 0.75568 0.0
O672 O 0.91425 0.22001 0.65587 0.0
O673 O 0.92082 0.18741 0.68612 0.0
C674 C 0.93276 0.20724 0.66705 0.0
O675 O 0.84534 0.12799 0.68676 0.0
O676 O 0.86456 0.22755 0.61893 0.0
O677 O 0.82151 0.17239 0.61399 0.0
O678 O 0.86173 0.14645 0.64774 0.0
C679 C 0.85128 0.1218 0.66366 0.0
O680 O 0.82307 0.18217 0.71017 0.0
O681 O 0.80075 0.16777 0.66844 0.0
O682 O 0.85728 0.23941 0.67468 0.0
O683 O 0.86074 0.14828 0.74017 0.0
O684 O 0.90986 0.19954 0.74403 0.0
O685 O 0.89402 0.23998 0.70792 0.0
C686 C 0.85581 0.19655 0.57877 0.0
C687 C 0.84621 0.1625 0.56788 0.0
C688 C 0.89348 0.22261 0.54418 0.0
C689 C 0.86011 0.1586 0.54546 0.0
C690 C 0.87941 0.22653 0.56656 0.0
C691 C 0.88407 0.18859 0.53346 0.0
C692 C 0.8418 0.20111 0.60284 0.0
C693 C 0.79628 0.17086 0.69258 0.0
H694 H 0.84154 0.19841 0.76099 0.0
H695 H 0.88858 0.18188 0.84313 0.0
H696 H 0.8225 0.21315 0.8002 0.0
H697 H 0.90703 0.16644 0.8036 0.0
H698 H 0.82811 0.13877 0.5767 0.0
H699 H 0.91149 0.24616 0.53515 0.0
H700 H 0.85251 0.13206 0.53767 0.0
H701 H 0.88711 0.25307 0.57439 0.0
C702 C 0.34612 0.88043 0.03867 0.0
C703 C 0.34463 0.87852 0.065 0.0
C704 C 0.37663 0.90722 0.02841 0.0
C705 C 0.40654 0.93327 0.04414 0.0
H706 H 0.32348 0.86106 0.0259 0.0
H707 H 0.37669 0.90772 1.00808 0.0
S708 S 0.41793 0.93768 0.11413 0.0
N709 N 0.37712 0.90328 0.10637 0.0
N710 N 0.43385 0.95396 0.08727 0.0
C711 C 0.40558 0.93135 0.07046 0.0
C712 C 0.37479 0.90394 0.08085 0.0
C713 C 0.12179 0.43938 0.06413 0.0
C714 C 0.15756 0.46824 0.06753 0.0
C715 C 0.09378 0.44304 0.0526 0.0
C716 C 0.10062 0.47546 0.04357 0.0
H717 H 0.11535 0.41373 0.07041 0.0
H718 H 0.06661 0.42027 0.05061 0.0
S719 S 0.18854 0.56001 0.0496 0.0
N720 N 0.19736 0.53125 0.0626 0.0
N721 N 0.14521 0.53735 0.03974 0.0
C722 C 0.13611 0.5045 0.04679 0.0
C723 C 0.16444 0.50108 0.05905 0.0
C724 C 0.56063 0.66472 0.07782 0.0
C725 C 0.56194 0.69064 0.06241 0.0
C726 C 0.5565 0.6326 0.06731 0.0
C727 C 0.55303 0.62493 0.04099 0.0
H728 H 0.56174 0.66878 0.09817 0.0
H729 H 0.55488 0.61317 0.07994 0.0
S730 S 0.5583 0.68508 0.99237 0.0
N731 N 0.56249 0.70759 0.01948 0.0
N732 N 0.55347 0.64661 0.99974 0.0
C733 C 0.5551 0.65083 0.02534 0.0
C734 C 0.55986 0.68381 0.03605 0.0
C735 C 0.87343 0.34924 0.97955 0.0
C736 C 0.8805 0.32282 0.96978 0.0
C737 C 0.90134 0.38233 0.99034 0.0
C738 C 0.93754 0.39068 0.99132 0.0
H739 H 0.84617 0.34474 0.97835 0.0
H740 H 0.89456 0.40193 0.99729 0.0
S741 S 0.97078 0.33053 0.97025 0.0
N742 N 0.92657 0.30671 0.96359 0.0
N743 N 0.97915 0.3697 0.98276 0.0
C744 C 0.94517 0.36464 0.9819 0.0
C745 C 0.91665 0.33056 0.97139 0.0
C746 C 0.66923 0.52202 0.97705 0.0
C747 C 0.69433 0.55402 0.96732 0.0
C748 C 0.64028 0.5194 0.98983 0.0
C749 C 0.6345 0.54835 0.99285 0.0
H750 H 0.67141 0.49834 0.97435 0.0
H751 H 0.62144 0.49401 0.99647 0.0
S752 S 0.69264 0.63864 0.9724 0.0
N753 N 0.71232 0.6161 0.9633 0.0
N754 N 0.65647 0.6103 0.98588 0.0
C755 C 0.65918 0.58052 0.9834 0.0
C756 C 0.68933 0.58354 0.97094 0.0
C757 C 0.45766 0.11789 0.98213 0.0
C758 C 0.48916 0.15066 0.97963 0.0
C759 C 0.45939 0.0902 0.9933 0.0
C760 C 0.49255 0.09453 1.00295 0.0
H761 H 0.43143 0.11345 0.97525 0.0
H762 H 0.4346 0.06515 0.99429 0.0
S763 S 0.58303 0.1739 1.0002 0.0
N764 N 0.55485 0.18477 0.9867 0.0
N765 N 0.55759 0.1334 1.0089 0.0
C766 C 0.52415 0.12717 1.00102 0.0
C767 C 0.52258 0.15506 0.98909 0.0
C768 C 0.64843 0.1245 0.97129 0.0
C769 C 0.66938 0.15409 0.98876 0.0
C770 C 0.61914 0.09332 0.97875 0.0
C771 C 0.61004 0.0905 1.004 0.0
H772 H 0.65334 0.12623 0.95149 0.0
H773 H 0.60264 0.07177 0.9644 0.0
S774 S 0.65848 0.16023 0.05718 0.0
N775 N 0.68051 0.17834 0.03245 0.0
N776 N 0.626 0.11975 0.04666 0.0
C777 C 0.63224 0.11933 0.02188 0.0
C778 C 0.66173 0.15114 0.01419 0.0
C779 C 0.88513 0.49973 0.96136 0.0
C780 C 0.86589 0.50814 0.97827 0.0
C781 C 0.9178 0.50184 0.96941 0.0
C782 C 0.93226 0.51193 0.99485 0.0
H783 H 0.87398 0.48988 0.942 0.0
H784 H 0.93089 0.49393 0.95571 0.0
S785 S 0.8927 0.53893 0.0461 0.0
N786 N 0.86398 0.52877 0.02103 0.0
N787 N 0.92538 0.53279 0.03648 0.0
C788 C 0.91391 0.52204 1.01168 0.0
C789 C 0.88068 0.52005 1.00332 0.0
C790 C 0.51544 0.36777 0.9987 0.0
C791 C 0.53844 0.3689 0.98041 0.0
C792 C 0.50893 0.39604 1.00318 0.0
C793 C 0.52476 0.42614 0.98924 0.0
H794 H 0.50373 0.34564 1.01038 0.0
H795 H 0.49217 0.39471 0.01816 0.0
S796 S 0.58452 0.4399 0.93746 0.0
N797 N 0.57532 0.40105 0.94724 0.0
N798 N 0.56259 0.45385 0.95501 0.0
C799 C 0.54627 0.4265 0.96988 0.0
C800 C 0.5533 0.39799 0.96567 0.0
C801 C 0.15442 0.65402 0.03454 0.0
C802 C 0.17631 0.65676 0.056 0.0
C803 C 0.11999 0.62391 0.02886 0.0
C804 C 0.10615 0.59567 0.04462 0.0
H805 H 0.16465 0.67453 0.02146 0.0
H806 H 0.10463 0.6223 1.01158 0.0
S807 S 0.15239 0.59224 0.10451 0.0
N808 N 0.1815 0.63037 0.09386 0.0
N809 N 0.11664 0.57411 0.08379 0.0
C810 C 0.12726 0.59927 0.06696 0.0
C811 C 0.16243 0.62969 0.07246 0.0
C812 C 0.37734 0.51094 0.02438 0.0
C813 C 0.36742 0.50437 0.04924 0.0
C814 C 0.40665 0.50849 0.016 0.0
C815 C 0.42751 0.50007 0.03237 0.0
H816 H 0.36348 0.51984 1.01174 0.0
H817 H 0.41442 0.51559 0.99715 0.0
S818 S 0.41025 0.47702 0.09853 0.0
N819 N 0.37868 0.48623 0.08941 0.0
N820 N 0.43385 0.48176 0.07393 0.0
C821 C 0.41635 0.49126 0.05679 0.0
C822 C 0.38628 0.49337 0.06517 0.0
C823 C 0.50219 0.86065 0.02209 0.0
C824 C 0.50799 0.85331 0.04675 0.0
C825 C 0.50743 0.89414 0.01706 0.0
C826 C 0.5181 0.92137 0.03661 0.0
H827 H 0.49255 0.83998 1.00666 0.0
H828 H 0.50136 0.89805 0.99789 0.0
S829 S 0.53903 0.91604 0.10431 0.0
N830 N 0.52692 0.87626 0.09069 0.0
N831 N 0.53653 0.93923 0.08147 0.0
C832 C 0.52542 0.91473 0.06125 0.0
C833 C 0.52046 0.8807 0.06626 0.0
C834 C 1.01348 0.24038 0.39147 0.0
C835 C 1.01136 0.20762 0.39548 0.0
C836 C 0.04285 0.26725 0.38032 0.0
C837 C 0.0706 0.26197 0.37214 0.0
H838 H 0.99235 0.24537 0.39699 0.0
H839 H 0.04383 0.29232 0.37804 0.0
S840 S 0.08015 0.18293 0.38008 0.0
N841 N 0.04187 0.17316 0.39219 0.0
N842 N 0.09535 0.22266 0.36974 0.0
C843 C 0.0689 0.22952 0.37587 0.0
C844 C 0.03971 0.20261 0.38789 0.0
C845 C 0.81155 0.79007 0.37548 0.0
C846 C 0.81586 0.78713 0.40156 0.0
C847 C 0.78426 0.79588 0.36531 0.0
C848 C 0.75966 0.7983 0.38067 0.0
H849 H 0.82964 0.7882 0.36281 0.0
H850 H 0.78248 0.79854 0.34522 0.0
S851 S 0.75937 0.79315 0.45015 0.0
N852 N 0.79368 0.78848 0.44259 0.0
N853 N 0.74133 0.79717 0.42331 0.0
C854 C 0.7631 0.79461 0.40665 0.0
C855 C 0.79138 0.78954 0.41711 0.0
C856 C 0.22095 0.01306 0.36943 0.0
C857 C 0.22284 0.02033 0.39574 0.0
C858 C 0.21721 0.98094 0.35906 0.0
C859 C 0.21585 0.95522 0.37465 0.0
H860 H 0.22235 0.03232 0.35674 0.0
H861 H 0.21558 0.97633 0.33871 0.0
S862 S 0.21702 0.95996 0.44456 0.0
N863 N 0.22038 0.99771 0.43697 0.0
N864 N 0.21547 0.93858 0.41759 0.0
C865 C 0.21784 0.96218 0.40094 0.0
C866 C 0.2208 0.9944 0.41146 0.0
C867 C 0.55584 0.66277 0.32788 0.0
C868 C 0.54427 0.65768 0.302 0.0
C869 C 0.58366 0.69603 0.33878 0.0
C870 C 0.60082 0.72506 0.32409 0.0
H871 H 0.5434 0.64086 0.3397 0.0
H872 H 0.5921 0.69893 0.3587 0.0
S873 S 0.57677 0.72696 0.25655 0.0
N874 N 0.54959 0.68544 0.26273 0.0
N875 N 0.60198 0.74761 0.28312 0.0
C876 C 0.58881 0.72055 0.29843 0.0
C877 C 0.5605 0.68692 0.2874 0.0
C878 C 0.33629 0.85592 0.31152 0.0
C879 C 0.36238 0.88882 0.30339 0.0
C880 C 0.30615 0.85223 0.32324 0.0
C881 C 0.30008 0.88094 0.32669 0.0
H882 H 0.33858 0.83238 0.30833 0.0
H883 H 0.28668 0.82625 0.32871 0.0
S884 S 0.36036 0.97319 0.31045 0.0
N885 N 0.38087 0.95141 0.30153 0.0
N886 N 0.32281 0.94361 0.32195 0.0
C887 C 0.32571 0.91398 0.31885 0.0
C888 C 0.35708 0.9181 0.30756 0.0
C889 C 0.12193 0.44983 0.31337 0.0
C890 C 0.15367 0.48247 0.31107 0.0
C891 C 0.12319 0.42196 0.32463 0.0
C892 C 0.15612 0.42599 0.33454 0.0
H893 H 0.09589 0.44563 0.3062 0.0
H894 H 0.09825 0.39699 0.32545 0.0
S895 S 0.24708 0.50479 0.33205 0.0
N896 N 0.2193 0.51608 0.31845 0.0
N897 N 0.22122 0.46436 0.34072 0.0
C898 C 0.18795 0.45848 0.33274 0.0
C899 C 0.18684 0.48656 0.32076 0.0
C900 C 0.32466 0.4832 0.34797 0.0
C901 C 0.33387 0.48776 0.32284 0.0
C902 C 0.29557 0.45123 0.35456 0.0
C903 C 0.27423 0.42294 0.33612 0.0
H904 H 0.33905 0.50514 0.36243 0.0
H905 H 0.28839 0.44961 0.37387 0.0
S906 S 0.28916 0.42066 0.26799 0.0
N907 N 0.32117 0.46067 0.27985 0.0
N908 N 0.26632 0.40065 0.29197 0.0
C909 C 0.2845 0.42656 0.31116 0.0
C910 C 0.31437 0.45895 0.30458 0.0
C911 C 0.54758 0.82222 0.29481 0.0
C912 C 0.53228 0.83809 0.30957 0.0
C913 C 0.5807 0.82524 0.30275 0.0
C914 C 0.59957 0.84375 0.32605 0.0
H915 H 0.53316 0.80625 0.27738 0.0
H916 H 0.59063 0.81149 0.29101 0.0
S917 S 0.57183 0.89216 0.3708 0.0
N918 N 0.53912 0.8747 0.34769 0.0
N919 N 0.60132 0.88023 0.36296 0.0
C920 C 0.5852 0.86104 0.34048 0.0
C921 C 0.5516 0.85828 0.33216 0.0
C922 C 0.17921 0.6991 0.32974 0.0
C923 C 0.20308 0.70071 0.31201 0.0
C924 C 0.17262 0.72734 0.33418 0.0
C925 C 0.18925 0.75789 0.32075 0.0
H926 H 0.16687 0.67662 0.34107 0.0
H927 H 0.15517 0.72562 0.34876 0.0
S928 S 0.2516 0.7731 0.27053 0.0
N929 N 0.24172 0.73387 0.2799 0.0
N930 N 0.22886 0.7866 0.28758 0.0
C931 C 0.21167 0.75876 0.30192 0.0
C932 C 0.21877 0.73028 0.29776 0.0
C933 C 0.82126 0.98621 0.37295 0.0
C934 C 0.84373 0.9872 0.39345 0.0
C935 C 0.78698 0.95614 0.36661 0.0
C936 C 0.77386 0.92624 0.38077 0.0
H937 H 0.83093 0.00811 0.36102 0.0
H938 H 0.7711 0.95599 0.3501 0.0
S939 S 0.82165 0.91743 0.4377 0.0
N940 N 0.85007 0.95712 0.42881 0.0
N941 N 0.78561 0.9008 0.41734 0.0
C942 C 0.79553 0.92786 0.40216 0.0
C943 C 0.83051 0.95828 0.40837 0.0
C944 C 0.05256 0.82902 0.39705 0.0
C945 C 0.03075 0.83555 0.38022 0.0
C946 C 0.08267 0.8278 0.38905 0.0
C947 C 0.09194 0.83283 0.36387 0.0
H948 H 0.04758 0.82697 0.41684 0.0
H949 H 0.09963 0.82428 0.403 0.0
S950 S 0.04096 0.84753 0.31207 0.0
N951 N 0.01863 0.84474 0.33709 0.0
N952 N 0.0748 0.84194 0.32182 0.0
C953 C 0.06884 0.83714 0.34654 0.0
C954 C 0.03842 0.83872 0.3548 0.0
C955 C 0.18426 0.21241 0.39501 0.0
C956 C 0.1727 0.18511 0.3755 0.0
C957 C 0.18932 0.24591 0.39004 0.0
C958 C 0.1835 0.2534 0.36533 0.0
H959 H 0.18768 0.2073 0.41438 0.0
H960 H 0.19674 0.2657 0.40581 0.0
S961 S 0.15588 0.1912 0.30747 0.0
N962 N 0.15768 0.168 0.33053 0.0
N963 N 0.16754 0.23089 0.32097 0.0
C964 C 0.17381 0.22672 0.3455 0.0
C965 C 0.16825 0.19257 0.35066 0.0
C966 C 0.70329 0.53504 0.7184 0.0
C967 C 0.67716 0.54118 0.72902 0.0
C968 C 0.73118 0.56107 0.7058 0.0
C969 C 0.73462 0.59464 0.70374 0.0
H970 H 0.70286 0.51018 0.72037 0.0
H971 H 0.75109 0.55536 0.69856 0.0
S972 S 0.67265 0.62405 0.72653 0.0
N973 N 0.65546 0.58297 0.73482 0.0
N974 N 0.70924 0.63255 0.7124 0.0
C975 C 0.70875 0.60124 0.71396 0.0
C976 C 0.67975 0.57442 0.72631 0.0
C977 C 0.45507 0.10231 0.73112 0.0
C978 C 0.49078 0.13118 0.73516 0.0
C979 C 0.42728 0.10626 0.7195 0.0
C980 C 0.43428 0.13901 0.71099 0.0
H981 H 0.4485 0.07641 0.73695 0.0
H982 H 0.40014 0.08346 0.71707 0.0
S983 S 0.52204 0.2237 0.71883 0.0
N984 N 0.53062 0.19455 0.73142 0.0
N985 N 0.47894 0.20118 0.70834 0.0
C986 C 0.46971 0.16805 0.71483 0.0
C987 C 0.4978 0.16434 0.72721 0.0
C988 C 0.88633 0.34571 0.7022 0.0
C989 C 0.88853 0.35274 0.72858 0.0
C990 C 0.88317 0.314 0.69155 0.0
C991 C 0.88277 0.28852 0.70693 0.0
H992 H 0.88698 0.36483 0.68966 0.0
H993 H 0.88127 0.30952 0.67118 0.0
S994 S 0.8852 0.29273 0.77687 0.0
N995 N 0.88764 0.33024 0.76966 0.0
N996 N 0.88348 0.27165 0.74971 0.0
C997 C 0.88506 0.29521 0.73328 0.0
C998 C 0.88754 0.32707 0.74409 0.0
C999 C 0.24599 0.99835 0.63644 0.0
C1000 C 0.21048 0.99236 0.63367 0.0
C1001 C 0.27473 0.03079 0.64775 0.0
C1002 C 0.26884 0.0581 0.65709 0.0
H1003 H 0.25154 0.97763 0.63013 0.0
H1004 H 0.3016 0.03429 0.64961 0.0
S1005 S 0.18232 0.058 0.65164 0.0
N1006 N 0.17214 0.01837 0.63888 0.0
N1007 N 0.22578 0.07841 0.66108 0.0
C1008 C 0.23378 0.05286 0.65399 0.0
C1009 C 0.20471 0.02023 0.64206 0.0
C1010 C 0.02726 0.22194 0.66063 0.0
C1011 C 0.02966 0.22178 0.63426 0.0
C1012 C 0.99594 0.21729 0.67128 0.0
C1013 C 0.96609 0.21282 0.65597 0.0
H1014 H 0.04974 0.22555 0.67315 0.0
H1015 H 0.9952 0.21743 0.6916 0.0
S1016 S 0.95701 0.20676 0.5859 0.0
N1017 N 0.99811 0.21399 0.59313 0.0
N1018 N 0.93996 0.20635 0.61309 0.0
C1019 C 0.96803 0.2124 0.62962 0.0
C1020 C 0.99962 0.21666 0.61879 0.0
C1021 C 0.78561 0.77903 0.64251 0.0
C1022 C 0.81702 0.81202 0.6404 0.0
C1023 C 0.78753 0.75109 0.65313 0.0
C1024 C 0.8208 0.75541 0.66249 0.0
H1025 H 0.75933 0.77478 0.636 0.0
H1026 H 0.76279 0.72598 0.65414 0.0
S1027 S 0.91117 0.83476 0.65928 0.0
N1028 N 0.88274 0.84599 0.64669 0.0
N1029 N 0.88592 0.79405 0.66771 0.0
C1030 C 0.85236 0.78802 0.66043 0.0
C1031 C 0.85058 0.81618 0.64914 0.0
C1032 C 0.99114 0.81181 0.67987 0.0
C1033 C 0.99999 0.81769 0.65475 0.0
C1034 C 0.96151 0.77982 0.68589 0.0
C1035 C 0.9392 0.75273 0.66692 0.0
H1036 H 1.00626 0.83285 0.69483 0.0
H1037 H 0.95484 0.77731 0.70532 0.0
S1038 S 0.95275 0.75418 0.59837 0.0
N1039 N 0.9858 0.79315 0.61106 0.0
N1040 N 0.93001 0.73303 0.62207 0.0
C1041 C 0.94906 0.75762 0.64186 0.0
C1042 C 0.97947 0.79008 0.63584 0.0
C1043 C 0.21744 0.16241 0.63109 0.0
C1044 C 0.19838 0.17075 0.6482 0.0
C1045 C 0.25044 0.16502 0.63882 0.0
C1046 C 0.26543 0.17555 0.66413 0.0
H1047 H 0.20604 0.15248 0.61178 0.0
H1048 H 0.26343 0.15724 0.62496 0.0
S1049 S 0.22615 0.20195 0.7159 0.0
N1050 N 0.19694 0.19138 0.69106 0.0
N1051 N 0.25893 0.19624 0.70593 0.0
C1052 C 0.24706 0.18527 0.6812 0.0
C1053 C 0.21351 0.18281 0.67317 0.0
C1054 C 0.88281 0.06136 0.6359 0.0
C1055 C 0.86525 0.03111 0.6494 0.0
C1056 C 0.87635 0.08973 0.6395 0.0
C1057 C 0.85258 0.08907 0.65709 0.0
H1058 H 0.90238 0.06347 0.62294 0.0
H1059 H 0.89152 0.11304 0.62936 0.0
S1060 S 0.79813 0.01471 0.69585 0.0
N1061 N 0.82159 1.00103 0.67979 0.0
N1062 N 0.80969 0.05458 0.68693 0.0
C1063 C 0.83378 0.0583 0.66996 0.0
C1064 C 0.84003 0.02922 0.666 0.0
C1065 C 0.49603 0.29222 0.7395 0.0
C1066 C 0.50899 0.32187 0.72525 0.0
C1067 C 0.46147 0.26254 0.73364 0.0
C1068 C 0.43888 0.26105 0.7129 0.0
H1069 H 0.51327 0.29149 0.75476 0.0
H1070 H 0.45331 0.23986 0.74464 0.0
S1071 S 0.45945 0.33338 0.67099 0.0
N1072 N 0.49601 0.34932 0.6908 0.0
N1073 N 0.43115 0.29329 0.67934 0.0
C1074 C 0.45099 0.29134 0.69925 0.0
C1075 C 0.48603 0.32181 0.70553 0.0
C1076 C 0.71097 0.17658 0.69325 0.0
C1077 C 0.70151 0.1697 0.71816 0.0
C1078 C 0.74014 0.17431 0.6844 0.0
C1079 C 0.76133 0.16578 0.70035 0.0
H1080 H 0.69679 0.18551 0.68092 0.0
H1081 H 0.7475 0.18156 0.66551 0.0
S1082 S 0.74539 0.14203 0.76645 0.0
N1083 N 0.71361 0.15125 0.75795 0.0
N1084 N 0.76858 0.14715 0.74156 0.0
C1085 C 0.75074 0.1568 0.72484 0.0
C1086 C 0.72078 0.15871 0.7337 0.0
C1087 C 0.83252 0.52428 0.68485 0.0
C1088 C 0.83557 0.51585 0.70965 0.0
C1089 C 0.83863 0.55809 0.67999 0.0
C1090 C 0.84735 0.58448 0.69983 0.0
H1091 H 0.82445 0.50424 0.66914 0.0
H1092 H 0.8347 0.56291 0.66063 0.0
S1093 S 0.86054 0.57601 0.76811 0.0
N1094 N 0.84971 0.53677 0.75414 0.0
N1095 N 0.86075 0.60034 0.74521 0.0
C1096 C 0.85178 0.57669 0.72469 0.0
C1097 C 0.84602 0.54237 0.72956 0.0
C1098 C 0.4517 0.91554 0.21227 0.0
C1099 C 0.44872 0.93226 0.23464 0.0
C1100 C 0.46453 0.93425 0.19084 0.0
C1101 C 0.47515 0.97058 0.19089 0.0
H1102 H 0.44375 0.8876 0.21124 0.0
H1103 H 0.4659 0.92003 0.17402 0.0
S1104 S 0.47439 0.02718 0.24525 0.0
N1105 N 0.45826 0.98742 0.25579 0.0
N1106 N 0.48293 0.0228 0.21576 0.0
C1107 C 0.47238 0.98764 0.21321 0.0
C1108 C 0.45907 0.96847 0.23499 0.0
C1109 C 0.12369 0.53636 0.21551 0.0
C1110 C 0.10753 0.52018 0.23717 0.0
C1111 C 0.10319 0.52864 0.19233 0.0
C1112 C 0.06566 0.50461 0.18994 0.0
H1113 H 0.1525 0.55497 0.21646 0.0
H1114 H 0.11689 0.5415 0.1761 0.0
S1115 S 1.01025 0.45656 0.24147 0.0
N1116 N 0.05187 0.47969 0.25505 0.0
N1117 N 1.01307 0.4656 0.21161 0.0
C1118 C 0.04919 0.48829 0.21153 0.0
C1119 C 0.07017 0.49599 0.2351 0.0
C1120 C 0.4841 0.52974 0.22433 0.0
C1121 C 0.49146 0.56482 0.22963 0.0
C1122 C 0.49206 0.51909 0.20123 0.0
C1123 C 0.50724 0.54305 0.18254 0.0
H1124 H 0.47327 0.51079 0.23844 0.0
H1125 H 0.48654 0.49198 0.19805 0.0
S1126 S 0.53004 0.63755 0.18695 0.0
N1127 N 0.51324 0.62301 0.21397 0.0
N1128 N 0.52867 0.60333 0.17094 0.0
C1129 C 0.51374 0.57793 0.18744 0.0
C1130 C 0.50573 0.58871 0.21087 0.0
C1131 C 0.97 0.46081 0.80041 0.0
C1132 C 0.93331 0.45103 0.79751 0.0
C1133 C 0.98962 0.47246 0.82415 0.0
C1134 C 0.97325 0.47458 0.84595 0.0
H1135 H 0.98344 0.45867 0.78425 0.0
H1136 H 0.01749 0.47867 0.82556 0.0
S1137 S 0.87853 0.45421 0.84839 0.0
N1138 N 0.88173 0.44545 0.81837 0.0
N1139 N 0.91887 0.46825 0.86287 0.0
C1140 C 0.93696 0.46615 0.84318 0.0
C1141 C 0.91697 0.45425 0.81901 0.0
C1142 C 0.58911 0.52812 0.80427 0.0
C1143 C 0.60084 0.50317 0.80312 0.0
C1144 C 0.5766 0.53539 0.82644 0.0
C1145 C 0.57571 0.51829 0.8484 0.0
H1146 H 0.58879 0.5415 0.78772 0.0
H1147 H 0.56745 0.55452 0.82636 0.0
S1148 S 0.6055 0.45223 0.85559 0.0
N1149 N 0.61254 0.4627 0.82618 0.0
N1150 N 0.58852 0.47584 0.86766 0.0
C1151 C 0.58825 0.49394 0.84765 0.0
C1152 C 0.60087 0.48647 0.82507 0.0
C1153 C 0.51601 0.09458 0.82542 0.0
C1154 C 0.53496 0.08796 0.807 0.0
C1155 C 0.50804 0.07685 0.84761 0.0
C1156 C 0.51837 0.0515 0.85222 0.0
H1157 H 0.5073 0.11373 0.82271 0.0
H1158 H 0.49304 0.08257 0.86104 0.0
S1159 S 0.56952 0.02522 0.81046 0.0
N1160 N 0.56441 0.0547 0.79515 0.0
N1161 N 0.54978 0.02166 0.83691 0.0
C1162 C 0.53777 0.04497 0.83414 0.0
C1163 C 0.54606 0.06318 0.81159 0.0
C1164 C 0.09587 0.26376 0.54933 0.0
C1165 C 0.12033 0.26587 0.56896 0.0
C1166 C 0.108 0.28164 0.52747 0.0
C1167 C 0.1451 0.30231 0.52426 0.0
H1168 H 0.06704 0.24759 0.55065 0.0
H1169 H 0.08812 0.27871 0.51275 0.0
S1170 S 0.22031 0.31904 0.57087 0.0
N1171 N 0.18347 0.29204 0.58431 0.0
N1172 N 0.20624 0.3255 0.54326 0.0
C1173 C 0.16987 0.30514 0.5439 0.0
C1174 C 0.15751 0.28698 0.56619 0.0
C1175 C 0.78019 0.87823 0.55256 0.0
C1176 C 0.76669 0.85478 0.57168 0.0
C1177 C 0.75962 0.87232 0.52972 0.0
C1178 C 0.72477 0.84236 0.5247 0.0
H1179 H 0.80718 0.90125 0.55506 0.0
H1180 H 0.77124 0.89154 0.51587 0.0
S1181 S 0.67675 0.77249 0.56835 0.0
N1182 N 0.71562 0.80086 0.58433 0.0
N1183 N 0.67794 0.7884 0.54068 0.0
C1184 C 0.71091 0.81852 0.54357 0.0
C1185 C 0.73165 0.82494 0.56713 0.0
C1186 C 0.1908 0.89189 0.56164 0.0
C1187 C 0.15877 0.89286 0.56433 0.0
C1188 C 0.19768 0.88021 0.53861 0.0
C1189 C 0.17275 0.86869 0.51717 0.0
H1190 H 0.21111 0.90075 0.57743 0.0
H1191 H 0.22329 0.88118 0.53747 0.0
S1192 S 0.08357 0.86367 0.51441 0.0
N1193 N 0.1014 0.88043 0.5435 0.0
N1194 N 0.11344 0.85669 0.50067 0.0
C1195 C 0.13999 0.86828 0.5198 0.0
C1196 C 0.13316 0.88063 0.54323 0.0
C1197 C 0.64433 0.79942 0.13538 0.0
C1198 C 0.60681 0.78601 0.13334 0.0
C1199 C 0.66442 0.81082 0.15899 0.0
C1200 C 0.64751 0.80853 0.18138 0.0
H1201 H 0.6581 0.80049 0.11862 0.0
H1202 H 0.69314 0.82034 0.15982 0.0
S1203 S 0.55017 0.77635 0.18618 0.0
N1204 N 0.55374 0.77197 0.1556 0.0
N1205 N 0.59141 0.7932 0.19997 0.0
C1206 C 0.61017 0.79591 0.17952 0.0
C1207 C 0.58984 0.78473 0.1555 0.0
C1208 C 0.25145 0.81631 0.15172 0.0
C1209 C 0.25469 0.83564 0.13061 0.0
C1210 C 0.23928 0.82328 0.17412 0.0
C1211 C 0.22974 0.84983 0.17636 0.0
H1212 H 0.25889 0.7959 0.15109 0.0
H1213 H 0.23705 0.8075 0.18976 0.0
S1214 S 0.23342 0.90817 0.12667 0.0
N1215 N 0.24692 0.88224 0.1133 0.0
N1216 N 0.22497 0.89602 0.15561 0.0
C1217 C 0.23286 0.86941 0.15541 0.0
C1218 C 0.24519 0.86224 0.13255 0.0
C1219 C 0.21154 0.4015 0.14412 0.0
C1220 C 0.20321 0.42847 0.14046 0.0
C1221 C 0.20303 0.38316 0.16606 0.0
C1222 C 0.18635 0.39143 0.18536 0.0
H1223 H 0.22386 0.3939 0.12961 0.0
H1224 H 0.20952 0.36227 0.16793 0.0
S1225 S 0.16048 0.46107 0.18547 0.0
N1226 N 0.17861 0.46351 0.15842 0.0
N1227 N 0.16246 0.429 0.19946 0.0
C1228 C 0.17869 0.41895 0.18217 0.0
C1229 C 0.18712 0.43743 0.15979 0.0
C1230 C 0.81215 0.6159 0.89304 0.0
C1231 C 0.77537 0.59176 0.89528 0.0
C1232 C 0.82377 0.63408 0.87125 0.0
C1233 C 0.79915 0.62856 0.85061 0.0
H1234 H 0.83213 0.62109 0.90842 0.0
H1235 H 0.85238 0.65236 0.87045 0.0
S1236 S 0.69981 0.56739 0.84666 0.0
N1237 N 0.71437 0.5627 0.87473 0.0
N1238 N 0.73609 0.59698 0.83389 0.0
C1239 C 0.76227 0.60423 0.85251 0.0
C1240 C 0.75042 0.58589 0.8748 0.0
C1241 C 0.4393 0.16397 0.8881 0.0
C1242 C 0.43938 0.18774 0.90712 0.0
C1243 C 0.41864 0.15603 0.86492 0.0
C1244 C 0.39744 0.17169 0.85987 0.0
H1245 H 0.45598 0.15204 0.89091 0.0
H1246 H 0.41993 0.13815 0.85062 0.0
S1247 S 0.38544 0.23285 0.90416 0.0
N1248 N 0.41432 0.22478 0.91995 0.0
N1249 N 0.37587 0.21016 0.8763 0.0
C1250 C 0.39659 0.1948 0.8789 0.0
C1251 C 0.41745 0.20275 0.90253 0.0
C1252 C 0.82362 0.19729 0.89098 0.0
C1253 C 0.82867 0.23164 0.89561 0.0
C1254 C 0.83169 0.18673 0.86793 0.0
C1255 C 0.84458 0.21001 0.84864 0.0
H1256 H 0.81447 0.17892 0.90555 0.0
H1257 H 0.828 0.16024 0.86521 0.0
S1258 S 0.86098 0.30235 0.85126 0.0
N1259 N 0.84612 0.28841 0.87886 0.0
N1260 N 0.8614 0.26876 0.83574 0.0
C1261 C 0.8488 0.24409 0.8529 0.0
C1262 C 0.84082 0.25485 0.87634 0.0
C1263 C 0.29105 0.14946 0.47276 0.0
C1264 C 0.26413 0.11367 0.46692 0.0
C1265 C 0.3105 0.16104 0.49666 0.0
C1266 C 0.30325 0.13728 0.51552 0.0
H1267 H 0.29774 0.16831 0.45857 0.0
H1268 H 0.3314 0.18873 0.50041 0.0
S1269 S 0.2344 0.04104 0.50963 0.0
N1270 N 0.2303 0.0549 0.48201 0.0
N1271 N 0.26701 0.07641 0.52662 0.0
C1272 C 0.27582 0.10161 0.50996 0.0
C1273 C 0.25622 0.08989 0.48574 0.0
C1274 C 0.88892 0.15368 0.46763 0.0
C1275 C 0.92627 0.171 0.46485 0.0
C1276 C 0.87555 0.15995 0.48967 0.0
C1277 C 0.89895 0.18402 0.50977 0.0
H1278 H 0.8698 0.1349 0.45267 0.0
H1279 H 0.84662 0.14578 0.49101 0.0
S1280 S 0.99905 0.23542 0.51251 0.0
N1281 N 0.98654 0.21255 0.48457 0.0
N1282 N 0.96129 0.22503 0.52564 0.0
C1283 C 0.93631 0.20195 0.50715 0.0
C1284 C 0.94999 0.19529 0.4848 0.0
C1285 C 0.83962 0.70814 0.46752 0.0
C1286 C 0.86879 0.74313 0.4671 0.0
C1287 C 0.83198 0.69073 0.48984 0.0
C1288 C 0.85311 0.70753 0.51277 0.0
H1289 H 0.82208 0.69428 0.45051 0.0
H1290 H 0.80862 0.66422 0.48925 0.0
S1291 S 0.93395 0.79818 0.52172 0.0
N1292 N 0.91961 0.79355 0.49165 0.0
N1293 N 0.90598 0.76037 0.53328 0.0
C1294 C 0.88311 0.74204 0.51247 0.0
C1295 C 0.89083 0.75986 0.48974 0.0
loop_
_geom_bond_atom_site_label_1
_geom_bond_atom_site_label_2
_geom_bond_distance
_geom_bond_site_symmetry_2
_ccdc_geom_bond_type
H0 C1 0.949 . S
C1 H0 0.949 . S
C1 C2 1.395 . S
C1 C3 1.391 . S
C2 C1 1.395 . S
C2 C5 1.390 . S
C3 C1 1.391 . S
C3 C7 1.387 . S
C3 C8 1.491 . S
H4 C5 0.950 . S
C5 C2 1.390 . S
C5 H4 0.950 . S
C5 C6 1.378 . S
C6 C5 1.378 . S
C6 C7 1.409 . S
C7 C3 1.387 . S
C7 C6 1.409 . S
C7 H9 0.951 . S
C8 C3 1.491 . S
C8 C10 1.382 . S
C8 C12 1.404 . S
H9 C7 0.951 . S
C10 C8 1.382 . S
C10 C11 1.390 . S
C10 H15 0.949 . S
C11 C10 1.390 . S
C11 C16 1.399 . S
C12 C8 1.404 . S
C12 H13 0.950 . S
C12 C14 1.375 . S
H13 C12 0.950 . S
C14 C12 1.375 . S
C14 C16 1.382 . S
C14 H18 0.950 . S
H15 C10 0.949 . S
C16 C11 1.399 . S
C16 C14 1.382 . S
C16 H17 0.952 . S
H17 C16 0.952 . S
H18 C14 0.950 . S
H19 C20 0.949 . S
C20 H19 0.949 . S
C20 C21 1.395 . S
C20 C22 1.391 . S
C21 C20 1.395 . S
C21 C24 1.390 . S
C22 C20 1.391 . S
C22 C26 1.387 . S
C22 C27 1.491 . S
H23 C24 0.950 . S
C24 C21 1.390 . S
C24 H23 0.950 . S
C24 C25 1.378 . S
C25 C24 1.378 . S
C25 C26 1.409 . S
C26 C22 1.387 . S
C26 C25 1.409 . S
C26 H28 0.951 . S
C27 C22 1.491 . S
C27 C29 1.382 . S
C27 C31 1.404 . S
H28 C26 0.951 . S
C29 C27 1.382 . S
C29 C30 1.390 . S
C29 H34 0.949 . S
C30 C29 1.390 . S
C30 C35 1.399 1_545 S
C31 C27 1.404 . S
C31 H32 0.950 . S
C31 C33 1.375 . S
H32 C31 0.950 . S
C33 C31 1.375 . S
C33 C35 1.382 1_545 S
C33 H37 0.950 . S
H34 C29 0.949 . S
C35 C30 1.399 1_565 S
C35 C33 1.382 1_565 S
C35 H36 0.952 . S
H36 C35 0.952 . S
H37 C33 0.950 . S
H38 C39 0.949 . S
C39 H38 0.949 . S
C39 C40 1.395 . S
C39 C41 1.391 . S
C40 C39 1.395 . S
C40 C43 1.390 . S
C41 C39 1.391 . S
C41 C45 1.387 . S
C41 C46 1.491 . S
H42 C43 0.950 . S
C43 C40 1.390 . S
C43 H42 0.950 . S
C43 C44 1.378 . S
C44 C43 1.378 . S
C44 C45 1.409 . S
C45 C41 1.387 . S
C45 C44 1.409 . S
C45 H47 0.951 . S
C46 C41 1.491 . S
C46 C48 1.382 . S
C46 C50 1.404 . S
H47 C45 0.951 . S
C48 C46 1.382 . S
C48 C49 1.390 1_655 S
C48 H53 0.949 . S
C49 C48 1.390 1_455 S
C49 C54 1.399 . S
C50 C46 1.404 . S
C50 H51 0.950 . S
C50 C52 1.361 1_655 S
H51 C50 0.950 . S
C52 C50 1.361 1_455 S
C52 C54 1.399 . S
C52 H56 0.947 . S
H53 C48 0.949 . S
C54 C49 1.399 . S
C54 C52 1.399 . S
C54 H55 0.952 . S
H55 C54 0.952 . S
H56 C52 0.947 . S
H57 C58 0.949 . S
C58 H57 0.949 . S
C58 C59 1.395 . S
C58 C60 1.391 . S
C59 C58 1.395 . S
C59 C62 1.390 . S
C60 C58 1.391 . S
C60 C64 1.387 . S
C60 C65 1.491 . S
H61 C62 0.950 . S
C62 C59 1.390 . S
C62 H61 0.950 . S
C62 C63 1.378 . S
C63 C62 1.378 . S
C63 C64 1.409 . S
C64 C60 1.387 . S
C64 C63 1.409 . S
C64 H66 0.951 . S
C65 C60 1.491 . S
C65 C67 1.382 . S
C65 C69 1.404 . S
H66 C64 0.951 . S
C67 C65 1.382 . S
C67 C68 1.390 . S
C67 H72 0.949 . S
C68 C67 1.390 . S
C68 C73 1.399 . S
C69 C65 1.404 . S
C69 H70 0.950 . S
C69 C71 1.375 . S
H70 C69 0.950 . S
C71 C69 1.375 . S
C71 C73 1.382 . S
C71 H75 0.950 . S
H72 C67 0.949 . S
C73 C68 1.399 . S
C73 C71 1.382 . S
C73 H74 0.952 . S
H74 C73 0.952 . S
H75 C71 0.950 . S
H76 C77 0.949 . S
C77 H76 0.949 . S
C77 C78 1.395 . S
C77 C79 1.391 . S
C78 C77 1.395 . S
C78 C81 1.390 . S
C79 C77 1.391 . S
C79 C83 1.387 . S
C79 C84 1.491 . S
H80 C81 0.950 . S
C81 C78 1.390 . S
C81 H80 0.950 . S
C81 C82 1.378 . S
C82 C81 1.378 . S
C82 C83 1.409 . S
C83 C79 1.387 . S
C83 C82 1.409 . S
C83 H85 0.951 . S
C84 C79 1.491 . S
C84 C86 1.382 . S
C84 C88 1.404 . S
H85 C83 0.951 . S
C86 C84 1.382 . S
C86 C87 1.390 . S
C86 H91 0.949 . S
C87 C86 1.390 . S
C87 C92 1.400 1_565 S
C88 C84 1.404 . S
C88 H89 0.950 . S
C88 C90 1.375 . S
H89 C88 0.950 . S
C90 C88 1.375 . S
C90 C92 1.379 1_565 S
C90 H94 0.950 . S
H91 C86 0.949 . S
C92 C87 1.400 1_545 S
C92 C90 1.379 1_545 S
C92 H93 0.954 . S
H93 C92 0.954 . S
H94 C90 0.950 . S
H95 C96 0.949 . S
C96 H95 0.949 . S
C96 C97 1.395 . S
C96 C98 1.391 . S
C97 C96 1.395 . S
C97 C100 1.390 . S
C98 C96 1.391 . S
C98 C102 1.387 . S
C98 C103 1.491 . S
H99 C100 0.950 . S
C100 C97 1.390 . S
C100 H99 0.950 . S
C100 C101 1.378 . S
C101 C100 1.378 . S
C101 C102 1.409 . S
C102 C98 1.387 . S
C102 C101 1.409 . S
C102 H104 0.951 . S
C103 C98 1.491 . S
C103 C105 1.382 . S
C103 C107 1.404 . S
H104 C102 0.951 . S
C105 C103 1.382 . S
C105 C106 1.390 . S
C105 H110 0.949 . S
C106 C105 1.390 . S
C106 C111 1.399 . S
C107 C103 1.404 . S
C107 H108 0.950 . S
C107 C109 1.375 . S
H108 C107 0.950 . S
C109 C107 1.375 . S
C109 C111 1.382 . S
C109 H113 0.950 . S
H110 C105 0.949 . S
C111 C106 1.399 . S
C111 C109 1.382 . S
C111 H112 0.952 1_455 S
H112 C111 0.952 1_655 S
H113 C109 0.950 . S
H114 C115 0.949 . S
C115 H114 0.949 . S
C115 C116 1.395 . S
C115 C117 1.391 . S
C116 C115 1.395 . S
C116 C119 1.390 . S
C117 C115 1.391 . S
C117 C121 1.387 . S
C117 C122 1.491 . S
H118 C119 0.950 . S
C119 C116 1.390 . S
C119 H118 0.950 . S
C119 C120 1.378 . S
C120 C119 1.378 . S
C120 C121 1.409 . S
C121 C117 1.387 . S
C121 C120 1.409 . S
C121 H123 0.951 . S
C122 C117 1.491 . S
C122 C124 1.382 . S
C122 C126 1.404 . S
H123 C121 0.951 . S
C124 C122 1.382 . S
C124 C125 1.390 . S
C124 H129 0.949 . S
C125 C124 1.390 . S
C125 C130 1.399 . S
C126 C122 1.404 . S
C126 H127 0.950 . S
C126 C128 1.375 . S
H127 C126 0.950 . S
C128 C126 1.375 . S
C128 C130 1.382 . S
C128 H132 0.950 . S
H129 C124 0.949 . S
C130 C125 1.399 . S
C130 C128 1.382 . S
C130 H131 0.952 . S
H131 C130 0.952 . S
H132 C128 0.950 . S
H133 C134 0.949 . S
C134 H133 0.949 . S
C134 C135 1.395 . S
C134 C136 1.391 . S
C135 C134 1.395 . S
C135 C138 1.390 . S
C136 C134 1.391 . S
C136 C140 1.387 . S
C136 C141 1.491 . S
H137 C138 0.950 . S
C138 C135 1.390 . S
C138 H137 0.950 . S
C138 C139 1.378 . S
C139 C138 1.378 . S
C139 C140 1.409 . S
C140 C136 1.387 . S
C140 C139 1.409 . S
C140 H142 0.951 . S
C141 C136 1.491 . S
C141 C143 1.382 . S
C141 C145 1.404 . S
H142 C140 0.951 . S
C143 C141 1.382 . S
C143 C144 1.390 . S
C143 H148 0.949 . S
C144 C143 1.390 . S
C144 C149 1.399 . S
C145 C141 1.404 . S
C145 H146 0.950 . S
C145 C147 1.375 . S
H146 C145 0.950 . S
C147 C145 1.375 . S
C147 C149 1.382 . S
C147 H151 0.950 . S
H148 C143 0.949 . S
C149 C144 1.399 . S
C149 C147 1.382 . S
C149 H150 0.952 . S
H150 C149 0.952 . S
H151 C147 0.950 . S
H152 C153 0.949 . S
C153 H152 0.949 . S
C153 C154 1.395 . S
C153 C155 1.391 . S
C154 C153 1.395 . S
C154 C157 1.390 . S
C155 C153 1.391 . S
C155 C159 1.387 . S
C155 C160 1.491 . S
H156 C157 0.950 . S
C157 C154 1.390 . S
C157 H156 0.950 . S
C157 C158 1.378 . S
C158 C157 1.378 . S
C158 C159 1.409 . S
C159 C155 1.387 . S
C159 C158 1.409 . S
C159 H161 0.951 . S
C160 C155 1.491 . S
C160 C162 1.382 . S
C160 C164 1.404 . S
H161 C159 0.951 . S
C162 C160 1.382 . S
C162 C163 1.390 . S
C162 H167 0.949 . S
C163 C162 1.390 . S
C163 C168 1.399 . S
C164 C160 1.404 . S
C164 H165 0.950 . S
C164 C166 1.375 . S
H165 C164 0.950 . S
C166 C164 1.375 . S
C166 C168 1.382 . S
C166 H170 0.950 . S
H167 C162 0.949 . S
C168 C163 1.399 . S
C168 C166 1.382 . S
C168 H169 0.952 . S
H169 C168 0.952 . S
H170 C166 0.950 . S
H171 C172 0.949 . S
C172 H171 0.949 . S
C172 C173 1.395 . S
C172 C174 1.391 . S
C173 C172 1.395 . S
C173 C176 1.390 . S
C174 C172 1.391 . S
C174 C178 1.387 . S
C174 C179 1.491 . S
H175 C176 0.950 . S
C176 C173 1.390 . S
C176 H175 0.950 . S
C176 C177 1.378 . S
C177 C176 1.378 . S
C177 C178 1.409 . S
C178 C174 1.387 . S
C178 C177 1.409 . S
C178 H180 0.951 . S
C179 C174 1.491 . S
C179 C181 1.382 . S
C179 C183 1.404 . S
H180 C178 0.951 . S
C181 C179 1.382 . S
C181 C182 1.390 . S
C181 H186 0.949 . S
C182 C181 1.390 . S
C182 C187 1.399 . S
C183 C179 1.404 . S
C183 H184 0.950 . S
C183 C185 1.375 . S
H184 C183 0.950 . S
C185 C183 1.375 . S
C185 C187 1.382 . S
C185 H189 0.950 . S
H186 C181 0.949 . S
C187 C182 1.399 . S
C187 C185 1.382 . S
C187 H188 0.952 . S
H188 C187 0.952 . S
H189 C185 0.950 . S
H190 C191 0.949 . S
C191 H190 0.949 . S
C191 C192 1.395 . S
C191 C193 1.391 . S
C192 C191 1.395 . S
C192 C195 1.390 . S
C193 C191 1.391 . S
C193 C197 1.387 . S
C193 C198 1.491 . S
H194 C195 0.950 . S
C195 C192 1.390 . S
C195 H194 0.950 . S
C195 C196 1.378 . S
C196 C195 1.378 . S
C196 C197 1.409 . S
C197 C193 1.387 . S
C197 C196 1.409 . S
C197 H199 0.951 1_556 S
C198 C193 1.491 . S
C198 C200 1.382 . S
C198 C202 1.404 1_556 S
H199 C197 0.951 1_554 S
C200 C198 1.382 . S
C200 C201 1.390 1_556 S
C200 H205 0.949 . S
C201 C200 1.390 1_554 S
C201 C206 1.399 . S
C202 C198 1.404 1_554 S
C202 H203 0.950 . S
C202 C204 1.375 . S
H203 C202 0.950 . S
C204 C202 1.375 . S
C204 C206 1.382 . S
C204 H208 0.950 . S
H205 C200 0.949 . S
C206 C201 1.399 . S
C206 C204 1.382 . S
C206 H207 0.952 . S
H207 C206 0.952 . S
H208 C204 0.950 . S
H209 C210 0.949 . S
C210 H209 0.949 . S
C210 C211 1.395 . S
C210 C212 1.391 . S
C211 C210 1.395 . S
C211 C214 1.390 . S
C212 C210 1.391 . S
C212 C216 1.387 . S
C212 C217 1.491 . S
H213 C214 0.950 . S
C214 C211 1.390 . S
C214 H213 0.950 . S
C214 C215 1.378 . S
C215 C214 1.378 . S
C215 C216 1.409 . S
C216 C212 1.387 . S
C216 C215 1.409 . S
C216 H218 0.951 . S
C217 C212 1.491 . S
C217 C219 1.382 . S
C217 C221 1.404 . S
H218 C216 0.951 . S
C219 C217 1.382 . S
C219 C220 1.390 . S
C219 H224 0.949 . S
C220 C219 1.390 . S
C220 C225 1.399 . S
C221 C217 1.404 . S
C221 H222 0.950 . S
C221 C223 1.374 . S
H222 C221 0.950 . S
C223 C221 1.374 . S
C223 C225 1.382 . S
C223 H227 0.950 1_556 S
H224 C219 0.949 . S
C225 C220 1.399 . S
C225 C223 1.382 . S
C225 H226 0.952 1_556 S
H226 C225 0.952 1_554 S
H227 C223 0.950 1_554 S
H228 C229 0.949 . S
C229 H228 0.949 . S
C229 C230 1.395 . S
C229 C231 1.391 . S
C230 C229 1.395 . S
C230 C233 1.390 . S
C231 C229 1.391 . S
C231 C235 1.387 . S
C231 C236 1.491 . S
H232 C233 0.950 . S
C233 C230 1.390 . S
C233 H232 0.950 . S
C233 C234 1.378 . S
C234 C233 1.378 . S
C234 C235 1.409 . S
C235 C231 1.387 . S
C235 C234 1.409 . S
C235 H237 0.927 1_554 S
C236 C231 1.491 . S
C236 C238 1.382 . S
C236 C240 1.384 1_554 S
H237 C235 0.927 1_556 S
C238 C236 1.382 . S
C238 C239 1.390 . S
C238 H243 0.949 . S
C239 C238 1.390 . S
C239 C244 1.399 1_554 S
C240 C236 1.384 1_556 S
C240 H241 0.953 . S
C240 C242 1.393 . S
H241 C240 0.953 . S
C242 C240 1.393 . S
C242 C244 1.382 . S
C242 H246 0.950 . S
H243 C238 0.949 . S
C244 C239 1.399 1_556 S
C244 C242 1.382 . S
C244 H245 0.952 . S
H245 C244 0.952 . S
H246 C242 0.950 . S
H247 C248 0.949 . S
C248 H247 0.949 . S
C248 C249 1.395 . S
C248 C250 1.391 . S
C249 C248 1.395 . S
C249 C252 1.390 . S
C250 C248 1.391 . S
C250 C254 1.387 . S
C250 C255 1.491 . S
H251 C252 0.950 . S
C252 C249 1.390 . S
C252 H251 0.950 . S
C252 C253 1.378 . S
C253 C252 1.378 . S
C253 C254 1.409 . S
C254 C250 1.387 . S
C254 C253 1.409 . S
C254 H256 0.951 . S
C255 C250 1.491 . S
C255 C257 1.382 . S
C255 C259 1.404 . S
H256 C254 0.951 . S
C257 C255 1.382 . S
C257 C258 1.390 . S
C257 H262 0.949 . S
C258 C257 1.390 . S
C258 C263 1.397 . S
C259 C255 1.404 . S
C259 H260 0.950 . S
C259 C261 1.364 1_554 S
H260 C259 0.950 . S
C261 C259 1.364 1_556 S
C261 C263 1.379 1_556 S
C261 H265 0.966 . S
H262 C257 0.949 . S
C263 C258 1.397 . S
C263 C261 1.379 1_554 S
C263 H264 0.953 1_554 S
H264 C263 0.953 1_556 S
H265 C261 0.966 . S
H266 C267 0.949 . S
C267 H266 0.949 . S
C267 C268 1.395 . S
C267 C269 1.391 . S
C268 C267 1.395 . S
C268 C271 1.390 . S
C269 C267 1.391 . S
C269 C273 1.387 . S
C269 C274 1.491 . S
H270 C271 0.950 . S
C271 C268 1.390 . S
C271 H270 0.950 . S
C271 C272 1.378 . S
C272 C271 1.378 . S
C272 C273 1.409 . S
C273 C269 1.387 . S
C273 C272 1.409 . S
C273 H275 0.951 . S
C274 C269 1.491 . S
C274 C276 1.382 . S
C274 C278 1.404 . S
H275 C273 0.951 . S
C276 C274 1.382 . S
C276 C277 1.390 . S
C276 H281 0.949 . S
C277 C276 1.390 . S
C277 C282 1.399 . S
C278 C274 1.404 . S
C278 H279 0.950 . S
C278 C280 1.375 . S
H279 C278 0.950 . S
C280 C278 1.375 . S
C280 C282 1.382 . S
C280 H284 0.950 . S
H281 C276 0.949 . S
C282 C277 1.399 . S
C282 C280 1.382 . S
C282 H283 0.952 . S
H283 C282 0.952 . S
H284 C280 0.950 . S
H285 C286 0.949 . S
C286 H285 0.949 . S
C286 C287 1.395 . S
C286 C288 1.391 . S
C287 C286 1.395 . S
C287 C290 1.390 . S
C288 C286 1.391 . S
C288 C292 1.387 . S
C288 C293 1.491 . S
H289 C290 0.950 . S
C290 C287 1.390 . S
C290 H289 0.950 . S
C290 C291 1.378 . S
C291 C290 1.378 . S
C291 C292 1.409 . S
C292 C288 1.387 . S
C292 C291 1.409 . S
C292 H294 0.951 . S
C293 C288 1.491 . S
C293 C295 1.382 . S
C293 C297 1.404 . S
H294 C292 0.951 . S
C295 C293 1.382 . S
C295 C296 1.390 . S
C295 H300 0.949 . S
C296 C295 1.390 . S
C296 C301 1.399 . S
C297 C293 1.404 . S
C297 H298 0.950 . S
C297 C299 1.375 . S
H298 C297 0.950 . S
C299 C297 1.375 . S
C299 C301 1.382 . S
C299 H303 0.950 . S
H300 C295 0.949 . S
C301 C296 1.399 . S
C301 C299 1.382 . S
C301 H302 0.952 . S
H302 C301 0.952 . S
H303 C299 0.950 . S
H304 C305 0.949 . S
C305 H304 0.949 . S
C305 C306 1.395 . S
C305 C307 1.391 . S
C306 C305 1.395 . S
C306 C309 1.390 . S
C307 C305 1.391 . S
C307 C311 1.387 . S
C307 C312 1.491 . S
H308 C309 0.950 . S
C309 C306 1.390 . S
C309 H308 0.950 . S
C309 C310 1.378 . S
C310 C309 1.378 . S
C310 C311 1.409 . S
C311 C307 1.387 . S
C311 C310 1.409 . S
C311 H313 0.951 . S
C312 C307 1.491 . S
C312 C314 1.382 . S
C312 C316 1.404 . S
H313 C311 0.951 . S
C314 C312 1.382 . S
C314 C315 1.390 . S
C314 H319 0.949 . S
C315 C314 1.390 . S
C315 C320 1.399 . S
C316 C312 1.404 . S
C316 H317 0.950 . S
C316 C318 1.375 . S
H317 C316 0.950 . S
C318 C316 1.375 . S
C318 C320 1.382 . S
C318 H322 0.950 . S
H319 C314 0.949 . S
C320 C315 1.399 . S
C320 C318 1.382 . S
C320 H321 0.952 . S
H321 C320 0.952 . S
H322 C318 0.950 . S
H323 C324 0.949 . S
C324 H323 0.949 . S
C324 C325 1.395 . S
C324 C326 1.391 . S
C325 C324 1.395 . S
C325 C328 1.390 . S
C326 C324 1.391 . S
C326 C330 1.387 . S
C326 C331 1.491 . S
H327 C328 0.950 . S
C328 C325 1.390 . S
C328 H327 0.950 . S
C328 C329 1.378 . S
C329 C328 1.378 . S
C329 C330 1.409 . S
C330 C326 1.387 . S
C330 C329 1.409 . S
C330 H332 0.951 . S
C331 C326 1.491 . S
C331 C333 1.382 . S
C331 C335 1.404 . S
H332 C330 0.951 . S
C333 C331 1.382 . S
C333 C334 1.390 . S
C333 H338 0.949 . S
C334 C333 1.390 . S
C334 C339 1.399 . S
C335 C331 1.404 . S
C335 H336 0.950 . S
C335 C337 1.375 . S
H336 C335 0.950 . S
C337 C335 1.375 . S
C337 C339 1.382 . S
C337 H341 0.950 . S
H338 C333 0.949 . S
C339 C334 1.399 . S
C339 C337 1.382 . S
C339 H340 0.952 . S
H340 C339 0.952 . S
H341 C337 0.950 . S
Eu342 C351 2.828 1_565 S
Eu342 O353 2.392 . S
Eu342 O355 2.418 . S
Eu342 O360 2.373 1_565 S
Eu342 O363 2.488 . S
Eu342 O364 2.471 1_565 S
Eu342 O365 2.349 1_565 S
Eu343 O352 2.373 1_545 S
Eu343 O356 2.488 . S
Eu343 O357 2.471 1_545 S
Eu343 O358 2.349 1_545 S
Eu343 O361 2.392 . S
Eu343 O362 2.418 . S
Eu343 C372 2.828 1_545 S
C344 O362 1.244 . S
C344 O365 1.265 1_554 S
C345 C346 1.379 . S
C345 C349 1.373 . S
C345 C351 1.505 . S
C346 C345 1.379 . S
C346 C348 1.369 . S
C346 H374 0.930 . S
C347 C349 1.383 . S
C347 C350 1.382 . S
C347 H375 0.930 . S
C348 C346 1.369 . S
C348 C350 1.392 . S
C348 H376 0.930 . S
C349 C345 1.373 . S
C349 C347 1.383 . S
C349 H377 0.931 1_545 S
C350 C347 1.382 . S
C350 C348 1.392 . S
C351 Eu342 2.828 1_545 S
C351 C345 1.505 . S
C351 O363 1.249 1_545 S
C351 O364 1.244 . S
O352 Eu343 2.373 1_565 S
O352 C354 1.258 . S
O353 Eu342 2.392 . S
O353 C354 1.242 1_556 S
C354 O352 1.258 . S
C354 O353 1.242 1_554 S
O355 Eu342 2.418 . S
O355 C359 1.281 . S
O356 Eu343 2.488 . S
O356 C372 1.249 1_545 S
O357 Eu343 2.471 1_565 S
O357 C372 1.244 . S
O358 Eu343 2.349 1_565 S
O358 C359 1.246 1_554 S
C359 O355 1.281 . S
C359 O358 1.246 1_556 S
O360 Eu342 2.373 1_545 S
O360 C373 1.258 . S
O361 Eu343 2.392 . S
O361 C373 1.242 1_554 S
O362 Eu343 2.418 . S
O362 C344 1.244 . S
O363 Eu342 2.488 . S
O363 C351 1.249 1_565 S
O364 Eu342 2.471 1_545 S
O364 C351 1.244 . S
O365 Eu342 2.349 1_545 S
O365 C344 1.265 1_556 S
C366 C367 1.379 . S
C366 C370 1.373 1_565 S
C366 C372 1.505 . S
C367 C366 1.379 . S
C367 C369 1.369 . S
C367 H378 0.930 . S
C368 C370 1.383 1_565 S
C368 C371 1.382 . S
C368 H379 0.930 1_565 S
C369 C367 1.369 . S
C369 C371 1.392 . S
C369 H380 0.930 . S
C370 C366 1.373 1_545 S
C370 C368 1.383 1_545 S
C370 H381 0.931 . S
C371 C368 1.382 . S
C371 C369 1.392 . S
C372 Eu343 2.828 1_565 S
C372 O356 1.249 1_565 S
C372 O357 1.244 . S
C372 C366 1.505 . S
C373 O360 1.258 . S
C373 O361 1.242 1_556 S
H374 C346 0.930 . S
H375 C347 0.930 . S
H376 C348 0.930 . S
H377 C349 0.931 1_565 S
H378 C367 0.930 . S
H379 C368 0.930 1_545 S
H380 C369 0.930 . S
H381 C370 0.931 . S
Eu382 C391 2.828 1_455 S
Eu382 O393 2.395 . S
Eu382 O395 2.418 . S
Eu382 O400 2.373 1_455 S
Eu382 O403 2.488 . S
Eu382 O404 2.471 1_455 S
Eu382 O405 2.349 1_455 S
Eu383 O392 2.373 1_655 S
Eu383 O396 2.488 . S
Eu383 O397 2.471 1_655 S
Eu383 O398 2.349 1_655 S
Eu383 O401 2.392 . S
Eu383 O402 2.418 . S
Eu383 C412 2.828 1_655 S
C384 O402 1.204 1_556 S
C384 O405 1.287 . S
C385 C386 1.379 . S
C385 C389 1.373 . S
C385 C391 1.505 . S
C386 C385 1.379 . S
C386 C388 1.369 . S
C386 H414 0.930 . S
C387 C389 1.383 . S
C387 C390 1.382 . S
C387 H415 0.930 . S
C388 C386 1.369 . S
C388 C390 1.392 . S
C388 H416 0.930 . S
C389 C385 1.373 . S
C389 C387 1.383 . S
C389 H417 0.931 1_655 S
C390 C387 1.382 . S
C390 C388 1.392 . S
C391 Eu382 2.828 1_655 S
C391 C385 1.505 . S
C391 O403 1.249 1_655 S
C391 O404 1.244 . S
O392 Eu383 2.373 1_455 S
O392 C394 1.258 . S
O393 Eu382 2.395 . S
O393 C394 1.238 1_556 S
C394 O392 1.258 . S
C394 O393 1.238 1_554 S
O395 Eu382 2.418 . S
O395 C399 1.244 1_556 S
O396 Eu383 2.488 . S
O396 C412 1.249 1_655 S
O397 Eu383 2.471 1_455 S
O397 C412 1.244 . S
O398 Eu383 2.349 1_455 S
O398 C399 1.265 . S
C399 O395 1.244 1_554 S
C399 O398 1.265 . S
O400 Eu382 2.373 1_655 S
O400 C413 1.258 . S
O401 Eu383 2.392 . S
O401 C413 1.242 1_554 S
O402 Eu383 2.418 . S
O402 C384 1.204 1_554 S
O403 Eu382 2.488 . S
O403 C391 1.249 1_455 S
O404 Eu382 2.471 1_655 S
O404 C391 1.244 . S
O405 Eu382 2.349 1_655 S
O405 C384 1.287 . S
C406 C407 1.379 . S
C406 C410 1.373 . S
C406 C412 1.505 . S
C407 C406 1.379 . S
C407 C409 1.369 . S
C407 H418 0.930 . S
C408 C410 1.383 . S
C408 C411 1.382 . S
C408 H419 0.930 . S
C409 C407 1.369 . S
C409 C411 1.392 . S
C409 H420 0.930 . S
C410 C406 1.373 . S
C410 C408 1.383 . S
C410 H421 0.931 1_455 S
C411 C408 1.382 . S
C411 C409 1.392 . S
C412 Eu383 2.828 1_455 S
C412 O396 1.249 1_455 S
C412 O397 1.244 . S
C412 C406 1.505 . S
C413 O400 1.258 . S
C413 O401 1.242 1_556 S
H414 C386 0.930 . S
H415 C387 0.930 . S
H416 C388 0.930 . S
H417 C389 0.931 1_455 S
H418 C407 0.930 . S
H419 C408 0.930 . S
H420 C409 0.930 . S
H421 C410 0.931 1_655 S
Eu422 C431 2.828 . S
Eu422 O433 2.392 . S
Eu422 O435 2.418 . S
Eu422 O440 2.373 . S
Eu422 O443 2.488 . S
Eu422 O444 2.471 . S
Eu422 O445 2.349 . S
Eu423 O432 2.373 . S
Eu423 O436 2.488 . S
Eu423 O437 2.471 . S
Eu423 O438 2.349 . S
Eu423 O441 2.392 1_556 S
Eu423 O442 2.418 . S
Eu423 C452 2.828 . S
C424 O442 1.244 1_554 S
C424 O445 1.265 . S
C425 C426 1.379 . S
C425 C429 1.373 . S
C425 C431 1.505 . S
C426 C425 1.379 . S
C426 C428 1.369 . S
C426 H454 0.930 . S
C427 C429 1.383 . S
C427 C430 1.382 . S
C427 H455 0.930 . S
C428 C426 1.369 . S
C428 C430 1.392 . S
C428 H456 0.930 . S
C429 C425 1.373 . S
C429 C427 1.383 . S
C429 H457 0.931 . S
C430 C427 1.382 . S
C430 C428 1.392 . S
C431 Eu422 2.828 . S
C431 C425 1.505 . S
C431 O443 1.249 . S
C431 O444 1.244 . S
O432 Eu423 2.373 . S
O432 C434 1.258 . S
O433 Eu422 2.392 . S
O433 C434 1.242 1_554 S
C434 O432 1.258 . S
C434 O433 1.242 1_556 S
O435 Eu422 2.418 . S
O435 C439 1.244 . S
O436 Eu423 2.488 . S
O436 C452 1.249 . S
O437 Eu423 2.471 . S
O437 C452 1.244 . S
O438 Eu423 2.349 . S
O438 C439 1.265 1_556 S
C439 O435 1.244 . S
C439 O438 1.265 1_554 S
O440 Eu422 2.373 . S
O440 C453 1.258 . S
O441 Eu423 2.392 1_554 S
O441 C453 1.242 . S
O442 Eu423 2.418 . S
O442 C424 1.244 1_556 S
O443 Eu422 2.488 . S
O443 C431 1.249 . S
O444 Eu422 2.471 . S
O444 C431 1.244 . S
O445 Eu422 2.349 . S
O445 C424 1.265 . S
C446 C447 1.379 . S
C446 C450 1.373 . S
C446 C452 1.505 . S
C447 C446 1.379 . S
C447 C449 1.369 . S
C447 H458 0.930 . S
C448 C450 1.383 . S
C448 C451 1.382 . S
C448 H459 0.930 . S
C449 C447 1.369 . S
C449 C451 1.392 . S
C449 H460 0.930 . S
C450 C446 1.373 . S
C450 C448 1.383 . S
C450 H461 0.931 . S
C451 C448 1.382 . S
C451 C449 1.392 . S
C452 Eu423 2.828 . S
C452 O436 1.249 . S
C452 O437 1.244 . S
C452 C446 1.505 . S
C453 O440 1.258 . S
C453 O441 1.242 . S
H454 C426 0.930 . S
H455 C427 0.930 . S
H456 C428 0.930 . S
H457 C429 0.931 . S
H458 C447 0.930 . S
H459 C448 0.930 . S
H460 C449 0.930 . S
H461 C450 0.931 . S
Eu462 C471 2.828 . S
Eu462 O473 2.392 . S
Eu462 O475 2.418 . S
Eu462 O480 2.373 . S
Eu462 O483 2.488 . S
Eu462 O484 2.471 . S
Eu462 O485 2.349 . S
Eu463 O472 2.373 . S
Eu463 O476 2.488 . S
Eu463 O477 2.471 . S
Eu463 O478 2.349 . S
Eu463 O481 2.392 . S
Eu463 O482 2.418 . S
Eu463 C492 2.828 . S
C464 O482 1.244 . S
C464 O485 1.265 . S
C465 C466 1.379 . S
C465 C469 1.373 . S
C465 C471 1.505 . S
C466 C465 1.379 . S
C466 C468 1.369 . S
C466 H494 0.930 . S
C467 C469 1.383 . S
C467 C470 1.382 . S
C467 H495 0.930 . S
C468 C466 1.369 . S
C468 C470 1.392 . S
C468 H496 0.930 . S
C469 C465 1.373 . S
C469 C467 1.383 . S
C469 H497 0.931 . S
C470 C467 1.382 . S
C470 C468 1.392 . S
C471 Eu462 2.828 . S
C471 C465 1.505 . S
C471 O483 1.249 . S
C471 O484 1.244 . S
O472 Eu463 2.373 . S
O472 C474 1.258 . S
O473 Eu462 2.392 . S
O473 C474 1.242 . S
C474 O472 1.258 . S
C474 O473 1.242 . S
O475 Eu462 2.418 . S
O475 C479 1.244 . S
O476 Eu463 2.488 . S
O476 C492 1.249 . S
O477 Eu463 2.471 . S
O477 C492 1.244 . S
O478 Eu463 2.349 . S
O478 C479 1.265 . S
C479 O475 1.244 . S
C479 O478 1.265 . S
O480 Eu462 2.373 . S
O480 C493 1.258 . S
O481 Eu463 2.392 . S
O481 C493 1.242 . S
O482 Eu463 2.418 . S
O482 C464 1.244 . S
O483 Eu462 2.488 . S
O483 C471 1.249 . S
O484 Eu462 2.471 . S
O484 C471 1.244 . S
O485 Eu462 2.349 . S
O485 C464 1.265 . S
C486 C487 1.379 . S
C486 C490 1.373 . S
C486 C492 1.505 . S
C487 C486 1.379 . S
C487 C489 1.369 . S
C487 H498 0.930 . S
C488 C490 1.383 . S
C488 C491 1.382 . S
C488 H499 0.930 . S
C489 C487 1.369 . S
C489 C491 1.392 . S
C489 H500 0.930 . S
C490 C486 1.373 . S
C490 C488 1.383 . S
C490 H501 0.931 . S
C491 C488 1.382 . S
C491 C489 1.392 . S
C492 Eu463 2.828 . S
C492 O476 1.249 . S
C492 O477 1.244 . S
C492 C486 1.505 . S
C493 O480 1.258 . S
C493 O481 1.242 . S
H494 C466 0.930 . S
H495 C467 0.930 . S
H496 C468 0.930 . S
H497 C469 0.931 . S
H498 C487 0.930 . S
H499 C488 0.930 . S
H500 C489 0.930 . S
H501 C490 0.931 . S
Eu502 C511 2.828 . S
Eu502 O513 2.392 . S
Eu502 O515 2.418 . S
Eu502 O520 2.373 . S
Eu502 O523 2.488 . S
Eu502 O524 2.471 . S
Eu502 O525 2.349 . S
Eu503 O512 2.373 . S
Eu503 O516 2.488 . S
Eu503 O517 2.471 . S
Eu503 O518 2.349 . S
Eu503 O521 2.392 . S
Eu503 O522 2.418 . S
Eu503 C532 2.828 . S
C504 O522 1.244 . S
C504 O525 1.265 . S
C505 C506 1.379 . S
C505 C509 1.373 . S
C505 C511 1.505 . S
C506 C505 1.379 . S
C506 C508 1.369 . S
C506 H534 0.930 . S
C507 C509 1.383 . S
C507 C510 1.382 . S
C507 H535 0.930 . S
C508 C506 1.369 . S
C508 C510 1.392 . S
C508 H536 0.930 . S
C509 C505 1.373 . S
C509 C507 1.383 . S
C509 H537 0.931 . S
C510 C507 1.382 . S
C510 C508 1.392 . S
C511 Eu502 2.828 . S
C511 C505 1.505 . S
C511 O523 1.249 . S
C511 O524 1.244 . S
O512 Eu503 2.373 . S
O512 C514 1.258 . S
O513 Eu502 2.392 . S
O513 C514 1.242 . S
C514 O512 1.258 . S
C514 O513 1.242 . S
O515 Eu502 2.418 . S
O515 C519 1.244 . S
O516 Eu503 2.488 . S
O516 C532 1.249 . S
O517 Eu503 2.471 . S
O517 C532 1.244 . S
O518 Eu503 2.349 . S
O518 C519 1.265 . S
C519 O515 1.244 . S
C519 O518 1.265 . S
O520 Eu502 2.373 . S
O520 C533 1.258 . S
O521 Eu503 2.392 . S
O521 C533 1.242 . S
O522 Eu503 2.418 . S
O522 C504 1.244 . S
O523 Eu502 2.488 . S
O523 C511 1.249 . S
O524 Eu502 2.471 . S
O524 C511 1.244 . S
O525 Eu502 2.349 . S
O525 C504 1.265 . S
C526 C527 1.379 . S
C526 C530 1.373 . S
C526 C532 1.505 . S
C527 C526 1.379 . S
C527 C529 1.369 . S
C527 H538 0.930 . S
C528 C530 1.383 . S
C528 C531 1.382 . S
C528 H539 0.930 . S
C529 C527 1.369 . S
C529 C531 1.392 . S
C529 H540 0.930 . S
C530 C526 1.373 . S
C530 C528 1.383 . S
C530 H541 0.931 . S
C531 C528 1.382 . S
C531 C529 1.392 . S
C532 Eu503 2.828 . S
C532 O516 1.249 . S
C532 O517 1.244 . S
C532 C526 1.505 . S
C533 O520 1.258 . S
C533 O521 1.242 . S
H534 C506 0.930 . S
H535 C507 0.930 . S
H536 C508 0.930 . S
H537 C509 0.931 . S
H538 C527 0.930 . S
H539 C528 0.930 . S
H540 C529 0.930 . S
H541 C530 0.931 . S
Eu542 C551 2.828 . S
Eu542 O553 2.392 . S
Eu542 O555 2.418 . S
Eu542 O560 2.373 . S
Eu542 O563 2.488 . S
Eu542 O564 2.471 . S
Eu542 O565 2.349 . S
Eu543 O552 2.373 . S
Eu543 O556 2.488 . S
Eu543 O557 2.471 . S
Eu543 O558 2.349 . S
Eu543 O561 2.392 . S
Eu543 O562 2.418 . S
Eu543 C572 2.828 . S
C544 O562 1.244 . S
C544 O565 1.265 . S
C545 C546 1.379 . S
C545 C549 1.373 . S
C545 C551 1.505 . S
C546 C545 1.379 . S
C546 C548 1.369 . S
C546 H574 0.930 . S
C547 C549 1.383 . S
C547 C550 1.382 . S
C547 H575 0.930 . S
C548 C546 1.369 . S
C548 C550 1.392 . S
C548 H576 0.930 . S
C549 C545 1.373 . S
C549 C547 1.383 . S
C549 H577 0.931 . S
C550 C547 1.382 . S
C550 C548 1.392 . S
C551 Eu542 2.828 . S
C551 C545 1.505 . S
C551 O563 1.249 . S
C551 O564 1.244 . S
O552 Eu543 2.373 . S
O552 C554 1.258 . S
O553 Eu542 2.392 . S
O553 C554 1.242 . S
C554 O552 1.258 . S
C554 O553 1.242 . S
O555 Eu542 2.418 . S
O555 C559 1.244 . S
O556 Eu543 2.488 . S
O556 C572 1.249 . S
O557 Eu543 2.471 . S
O557 C572 1.244 . S
O558 Eu543 2.349 . S
O558 C559 1.265 . S
C559 O555 1.244 . S
C559 O558 1.265 . S
O560 Eu542 2.373 . S
O560 C573 1.258 . S
O561 Eu543 2.392 . S
O561 C573 1.242 . S
O562 Eu543 2.418 . S
O562 C544 1.244 . S
O563 Eu542 2.488 . S
O563 C551 1.249 . S
O564 Eu542 2.471 . S
O564 C551 1.244 . S
O565 Eu542 2.349 . S
O565 C544 1.265 . S
C566 C567 1.379 . S
C566 C570 1.373 . S
C566 C572 1.505 . S
C567 C566 1.379 . S
C567 C569 1.369 . S
C567 H578 0.930 . S
C568 C570 1.383 . S
C568 C571 1.382 . S
C568 H579 0.930 . S
C569 C567 1.369 . S
C569 C571 1.392 . S
C569 H580 0.930 . S
C570 C566 1.373 . S
C570 C568 1.383 . S
C570 H581 0.931 . S
C571 C568 1.382 . S
C571 C569 1.392 . S
C572 Eu543 2.828 . S
C572 O556 1.249 . S
C572 O557 1.244 . S
C572 C566 1.505 . S
C573 O560 1.258 . S
C573 O561 1.242 . S
H574 C546 0.930 . S
H575 C547 0.930 . S
H576 C548 0.930 . S
H577 C549 0.931 . S
H578 C567 0.930 . S
H579 C568 0.930 . S
H580 C569 0.930 . S
H581 C570 0.931 . S
Eu582 C591 2.828 . S
Eu582 O593 2.392 . S
Eu582 O595 2.418 . S
Eu582 O600 2.373 . S
Eu582 O603 2.488 . S
Eu582 O604 2.471 . S
Eu582 O605 2.349 . S
Eu583 O592 2.373 . S
Eu583 O596 2.488 . S
Eu583 O597 2.471 . S
Eu583 O598 2.349 . S
Eu583 O601 2.392 . S
Eu583 O602 2.418 . S
Eu583 C612 2.828 . S
C584 O602 1.244 . S
C584 O605 1.265 . S
C585 C586 1.379 . S
C585 C589 1.373 . S
C585 C591 1.505 . S
C586 C585 1.379 . S
C586 C588 1.369 . S
C586 H614 0.930 . S
C587 C589 1.383 . S
C587 C590 1.382 . S
C587 H615 0.930 . S
C588 C586 1.369 . S
C588 C590 1.392 . S
C588 H616 0.930 . S
C589 C585 1.373 . S
C589 C587 1.383 . S
C589 H617 0.931 . S
C590 C587 1.382 . S
C590 C588 1.392 . S
C591 Eu582 2.828 . S
C591 C585 1.505 . S
C591 O603 1.249 . S
C591 O604 1.244 . S
O592 Eu583 2.373 . S
O592 C594 1.258 . S
O593 Eu582 2.392 . S
O593 C594 1.242 . S
C594 O592 1.258 . S
C594 O593 1.242 . S
O595 Eu582 2.418 . S
O595 C599 1.244 . S
O596 Eu583 2.488 . S
O596 C612 1.249 . S
O597 Eu583 2.471 . S
O597 C612 1.244 . S
O598 Eu583 2.349 . S
O598 C599 1.265 . S
C599 O595 1.244 . S
C599 O598 1.265 . S
O600 Eu582 2.373 . S
O600 C613 1.258 . S
O601 Eu583 2.392 . S
O601 C613 1.242 . S
O602 Eu583 2.418 . S
O602 C584 1.244 . S
O603 Eu582 2.488 . S
O603 C591 1.249 . S
O604 Eu582 2.471 . S
O604 C591 1.244 . S
O605 Eu582 2.349 . S
O605 C584 1.265 . S
C606 C607 1.379 . S
C606 C610 1.373 . S
C606 C612 1.505 . S
C607 C606 1.379 . S
C607 C609 1.369 . S
C607 H618 0.930 . S
C608 C610 1.383 . S
C608 C611 1.382 . S
C608 H619 0.930 . S
C609 C607 1.369 . S
C609 C611 1.392 . S
C609 H620 0.930 . S
C610 C606 1.373 . S
C610 C608 1.383 . S
C610 H621 0.931 . S
C611 C608 1.382 . S
C611 C609 1.392 . S
C612 Eu583 2.828 . S
C612 O596 1.249 . S
C612 O597 1.244 . S
C612 C606 1.505 . S
C613 O600 1.258 . S
C613 O601 1.242 . S
H614 C586 0.930 . S
H615 C587 0.930 . S
H616 C588 0.930 . S
H617 C589 0.931 . S
H618 C607 0.930 . S
H619 C608 0.930 . S
H620 C609 0.930 . S
H621 C610 0.931 . S
Eu622 C631 2.828 . S
Eu622 O633 2.392 . S
Eu622 O635 2.418 . S
Eu622 O640 2.373 . S
Eu622 O643 2.488 . S
Eu622 O644 2.471 . S
Eu622 O645 2.349 . S
Eu623 O632 2.373 . S
Eu623 O636 2.488 . S
Eu623 O637 2.471 . S
Eu623 O638 2.349 . S
Eu623 O641 2.392 . S
Eu623 O642 2.418 . S
Eu623 C652 2.828 . S
C624 O642 1.244 . S
C624 O645 1.265 . S
C625 C626 1.379 . S
C625 C629 1.373 . S
C625 C631 1.505 . S
C626 C625 1.379 . S
C626 C628 1.369 . S
C626 H654 0.930 . S
C627 C629 1.383 . S
C627 C630 1.382 . S
C627 H655 0.930 . S
C628 C626 1.369 . S
C628 C630 1.392 . S
C628 H656 0.930 . S
C629 C625 1.373 . S
C629 C627 1.383 . S
C629 H657 0.931 . S
C630 C627 1.382 . S
C630 C628 1.392 . S
C631 Eu622 2.828 . S
C631 C625 1.505 . S
C631 O643 1.249 . S
C631 O644 1.244 . S
O632 Eu623 2.373 . S
O632 C634 1.258 . S
O633 Eu622 2.392 . S
O633 C634 1.242 . S
C634 O632 1.258 . S
C634 O633 1.242 . S
O635 Eu622 2.418 . S
O635 C639 1.244 . S
O636 Eu623 2.488 . S
O636 C652 1.249 . S
O637 Eu623 2.471 . S
O637 C652 1.244 . S
O638 Eu623 2.349 . S
O638 C639 1.265 . S
C639 O635 1.244 . S
C639 O638 1.265 . S
O640 Eu622 2.373 . S
O640 C653 1.258 . S
O641 Eu623 2.392 . S
O641 C653 1.242 . S
O642 Eu623 2.418 . S
O642 C624 1.244 . S
O643 Eu622 2.488 . S
O643 C631 1.249 . S
O644 Eu622 2.471 . S
O644 C631 1.244 . S
O645 Eu622 2.349 . S
O645 C624 1.265 . S
C646 C647 1.379 . S
C646 C650 1.373 . S
C646 C652 1.505 . S
C647 C646 1.379 . S
C647 C649 1.369 . S
C647 H658 0.930 . S
C648 C650 1.383 . S
C648 C651 1.382 . S
C648 H659 0.930 . S
C649 C647 1.369 . S
C649 C651 1.392 . S
C649 H660 0.930 . S
C650 C646 1.373 . S
C650 C648 1.383 . S
C650 H661 0.931 . S
C651 C648 1.382 . S
C651 C649 1.392 . S
C652 Eu623 2.828 . S
C652 O636 1.249 . S
C652 O637 1.244 . S
C652 C646 1.505 . S
C653 O640 1.258 . S
C653 O641 1.242 . S
H654 C626 0.930 . S
H655 C627 0.930 . S
H656 C628 0.930 . S
H657 C629 0.931 . S
H658 C647 0.930 . S
H659 C648 0.930 . S
H660 C649 0.930 . S
H661 C650 0.931 . S
Eu662 C671 2.828 . S
Eu662 O673 2.392 . S
Eu662 O675 2.418 . S
Eu662 O680 2.373 . S
Eu662 O683 2.488 . S
Eu662 O684 2.471 . S
Eu662 O685 2.349 . S
Eu663 O672 2.373 . S
Eu663 O676 2.488 . S
Eu663 O677 2.471 . S
Eu663 O678 2.349 . S
Eu663 O681 2.392 . S
Eu663 O682 2.418 . S
Eu663 C692 2.828 . S
C664 O682 1.244 . S
C664 O685 1.265 . S
C665 C666 1.379 . S
C665 C669 1.373 . S
C665 C671 1.505 . S
C666 C665 1.379 . S
C666 C668 1.369 . S
C666 H694 0.930 . S
C667 C669 1.383 . S
C667 C670 1.382 . S
C667 H695 0.930 . S
C668 C666 1.369 . S
C668 C670 1.392 . S
C668 H696 0.930 . S
C669 C665 1.373 . S
C669 C667 1.383 . S
C669 H697 0.931 . S
C670 C667 1.382 . S
C670 C668 1.392 . S
C671 Eu662 2.828 . S
C671 C665 1.505 . S
C671 O683 1.249 . S
C671 O684 1.244 . S
O672 Eu663 2.373 . S
O672 C674 1.258 . S
O673 Eu662 2.392 . S
O673 C674 1.242 . S
C674 O672 1.258 . S
C674 O673 1.242 . S
O675 Eu662 2.418 . S
O675 C679 1.244 . S
O676 Eu663 2.488 . S
O676 C692 1.249 . S
O677 Eu663 2.471 . S
O677 C692 1.244 . S
O678 Eu663 2.349 . S
O678 C679 1.265 . S
C679 O675 1.244 . S
C679 O678 1.265 . S
O680 Eu662 2.373 . S
O680 C693 1.258 . S
O681 Eu663 2.392 . S
O681 C693 1.242 . S
O682 Eu663 2.418 . S
O682 C664 1.244 . S
O683 Eu662 2.488 . S
O683 C671 1.249 . S
O684 Eu662 2.471 . S
O684 C671 1.244 . S
O685 Eu662 2.349 . S
O685 C664 1.265 . S
C686 C687 1.379 . S
C686 C690 1.373 . S
C686 C692 1.505 . S
C687 C686 1.379 . S
C687 C689 1.369 . S
C687 H698 0.930 . S
C688 C690 1.383 . S
C688 C691 1.382 . S
C688 H699 0.930 . S
C689 C687 1.369 . S
C689 C691 1.392 . S
C689 H700 0.930 . S
C690 C686 1.373 . S
C690 C688 1.383 . S
C690 H701 0.931 . S
C691 C688 1.382 . S
C691 C689 1.392 . S
C692 Eu663 2.828 . S
C692 O676 1.249 . S
C692 O677 1.244 . S
C692 C686 1.505 . S
C693 O680 1.258 . S
C693 O681 1.242 . S
H694 C666 0.930 . S
H695 C667 0.930 . S
H696 C668 0.930 . S
H697 C669 0.931 . S
H698 C687 0.930 . S
H699 C688 0.930 . S
H700 C689 0.930 . S
H701 C690 0.931 . S
C702 C703 1.369 . S
C702 C704 1.419 . S
C702 H706 0.930 1_554 S
C703 C702 1.369 . S
C703 C712 1.429 . S
C704 C702 1.419 . S
C704 C705 1.363 . S
C704 H707 0.929 1_554 S
C705 C704 1.363 . S
C705 C711 1.428 . S
H706 C702 0.930 1_556 S
H707 C704 0.929 1_556 S
S708 N709 1.613 . S
S708 N710 1.610 . S
N709 S708 1.613 . S
N709 C712 1.350 . S
N710 S708 1.610 . S
N710 C711 1.351 . S
C711 C705 1.428 . S
C711 N710 1.351 . S
C711 C712 1.434 . S
C712 C703 1.429 . S
C712 N709 1.350 . S
C712 C711 1.434 . S
C713 C714 1.369 . S
C713 C715 1.419 . S
C713 H717 0.930 . S
C714 C713 1.369 . S
C714 C723 1.429 . S
C715 C713 1.419 . S
C715 C716 1.363 . S
C715 H718 0.929 . S
C716 C715 1.363 . S
C716 C722 1.428 . S
H717 C713 0.930 . S
H718 C715 0.929 . S
S719 N720 1.613 1_556 S
S719 N721 1.623 . S
N720 S719 1.613 1_554 S
N720 C723 1.350 . S
N721 S719 1.623 . S
N721 C722 1.318 1_556 S
C722 C716 1.428 . S
C722 N721 1.318 1_554 S
C722 C723 1.434 . S
C723 C714 1.429 . S
C723 N720 1.350 . S
C723 C722 1.434 . S
C724 C725 1.369 . S
C724 C726 1.419 . S
C724 H728 0.930 . S
C725 C724 1.369 . S
C725 C734 1.429 . S
C726 C724 1.419 . S
C726 C727 1.363 . S
C726 H729 0.929 . S
C727 C726 1.363 . S
C727 C733 1.428 . S
H728 C724 0.930 . S
H729 C726 0.929 . S
S730 N731 1.613 . S
S730 N732 1.610 . S
N731 S730 1.613 . S
N731 C734 1.350 1_556 S
N732 S730 1.610 . S
N732 C733 1.351 1_556 S
C733 C727 1.428 . S
C733 N732 1.351 1_554 S
C733 C734 1.434 . S
C734 C725 1.429 . S
C734 N731 1.350 1_554 S
C734 C733 1.434 . S
C735 C736 1.369 . S
C735 C737 1.419 . S
C735 H739 0.930 . S
C736 C735 1.369 . S
C736 C745 1.429 . S
C737 C735 1.419 . S
C737 C738 1.363 . S
C737 H740 0.929 . S
C738 C737 1.363 . S
C738 C744 1.428 . S
H739 C735 0.930 . S
H740 C737 0.929 . S
S741 N742 1.613 . S
S741 N743 1.610 . S
N742 S741 1.613 . S
N742 C745 1.350 . S
N743 S741 1.610 . S
N743 C744 1.351 . S
C744 C738 1.428 . S
C744 N743 1.351 . S
C744 C745 1.434 . S
C745 C736 1.429 . S
C745 N742 1.350 . S
C745 C744 1.434 . S
C746 C747 1.369 . S
C746 C748 1.419 . S
C746 H750 0.930 . S
C747 C746 1.369 . S
C747 C756 1.429 . S
C748 C746 1.419 . S
C748 C749 1.363 . S
C748 H751 0.929 . S
C749 C748 1.363 . S
C749 C755 1.428 . S
H750 C746 0.930 . S
H751 C748 0.929 . S
S752 N753 1.613 . S
S752 N754 1.610 . S
N753 S752 1.613 . S
N753 C756 1.350 . S
N754 S752 1.610 . S
N754 C755 1.351 . S
C755 C749 1.428 . S
C755 N754 1.351 . S
C755 C756 1.434 . S
C756 C747 1.429 . S
C756 N753 1.350 . S
C756 C755 1.434 . S
C757 C758 1.369 . S
C757 C759 1.419 . S
C757 H761 0.930 . S
C758 C757 1.369 . S
C758 C767 1.429 . S
C759 C757 1.419 . S
C759 C760 1.363 . S
C759 H762 0.929 . S
C760 C759 1.363 . S
C760 C766 1.428 . S
H761 C757 0.930 . S
H762 C759 0.929 . S
S763 N764 1.613 . S
S763 N765 1.610 . S
N764 S763 1.613 . S
N764 C767 1.350 . S
N765 S763 1.610 . S
N765 C766 1.351 . S
C766 C760 1.428 . S
C766 N765 1.351 . S
C766 C767 1.434 . S
C767 C758 1.429 . S
C767 N764 1.350 . S
C767 C766 1.434 . S
C768 C769 1.369 . S
C768 C770 1.419 . S
C768 H772 0.930 . S
C769 C768 1.369 . S
C769 C778 1.429 . S
C770 C768 1.419 . S
C770 C771 1.363 . S
C770 H773 0.929 . S
C771 C770 1.363 . S
C771 C777 1.406 1_556 S
H772 C768 0.930 . S
H773 C770 0.929 . S
S774 N775 1.613 . S
S774 N776 1.610 . S
N775 S774 1.613 . S
N775 C778 1.350 1_554 S
N776 S774 1.610 . S
N776 C777 1.381 . S
C777 C771 1.406 1_554 S
C777 N776 1.381 . S
C777 C778 1.427 1_554 S
C778 C769 1.429 . S
C778 N775 1.350 1_556 S
C778 C777 1.427 1_556 S
C779 C780 1.369 . S
C779 C781 1.419 . S
C779 H783 0.930 . S
C780 C779 1.369 . S
C780 C789 1.429 . S
C781 C779 1.419 . S
C781 C782 1.363 . S
C781 H784 0.929 . S
C782 C781 1.363 . S
C782 C788 1.428 . S
H783 C779 0.930 . S
H784 C781 0.929 . S
S785 N786 1.613 . S
S785 N787 1.610 . S
N786 S785 1.613 . S
N786 C789 1.350 1_554 S
N787 S785 1.610 . S
N787 C788 1.351 1_554 S
C788 C782 1.428 . S
C788 N787 1.351 1_556 S
C788 C789 1.434 . S
C789 C780 1.429 . S
C789 N786 1.350 1_556 S
C789 C788 1.434 . S
C790 C791 1.369 . S
C790 C792 1.419 . S
C790 H794 0.930 . S
C791 C790 1.369 . S
C791 C800 1.429 . S
C792 C790 1.419 . S
C792 C793 1.363 . S
C792 H795 0.929 . S
C793 C792 1.363 . S
C793 C799 1.428 1_554 S
H794 C790 0.930 . S
H795 C792 0.929 . S
S796 N797 1.624 . S
S796 N798 1.610 . S
N797 S796 1.624 . S
N797 C800 1.346 1_556 S
N798 S796 1.610 . S
N798 C799 1.351 . S
C799 C793 1.428 1_556 S
C799 N798 1.351 . S
C799 C800 1.434 1_556 S
C800 C791 1.429 . S
C800 N797 1.346 1_554 S
C800 C799 1.434 1_554 S
C801 C802 1.369 1_556 S
C801 C803 1.419 . S
C801 H805 0.930 . S
C802 C801 1.369 1_554 S
C802 C811 1.429 . S
C803 C801 1.419 . S
C803 C804 1.363 1_556 S
C803 H806 0.929 . S
C804 C803 1.363 1_554 S
C804 C810 1.428 . S
H805 C801 0.930 . S
H806 C803 0.929 . S
S807 N808 1.613 . S
S807 N809 1.610 . S
N808 S807 1.613 . S
N808 C811 1.350 . S
N809 S807 1.610 . S
N809 C810 1.351 . S
C810 C804 1.428 . S
C810 N809 1.351 . S
C810 C811 1.434 . S
C811 C802 1.429 . S
C811 N808 1.350 . S
C811 C810 1.434 . S
C812 C813 1.369 . S
C812 C814 1.419 . S
C812 H816 0.930 . S
C813 C812 1.369 . S
C813 C822 1.429 . S
C814 C812 1.419 . S
C814 C815 1.363 . S
C814 H817 0.929 . S
C815 C814 1.363 . S
C815 C821 1.428 . S
H816 C812 0.930 . S
H817 C814 0.929 . S
S818 N819 1.613 . S
S818 N820 1.610 . S
N819 S818 1.613 . S
N819 C822 1.350 . S
N820 S818 1.610 . S
N820 C821 1.351 . S
C821 C815 1.428 . S
C821 N820 1.351 . S
C821 C822 1.434 . S
C822 C813 1.429 . S
C822 N819 1.350 . S
C822 C821 1.434 . S
C823 C824 1.369 . S
C823 C825 1.419 . S
C823 H827 0.930 . S
C824 C823 1.369 . S
C824 C833 1.429 . S
C825 C823 1.419 . S
C825 C826 1.363 . S
C825 H828 0.929 . S
C826 C825 1.363 . S
C826 C832 1.428 . S
H827 C823 0.930 . S
H828 C825 0.929 . S
S829 N830 1.613 . S
S829 N831 1.610 . S
N830 S829 1.613 . S
N830 C833 1.350 . S
N831 S829 1.610 . S
N831 C832 1.351 . S
C832 C826 1.428 . S
C832 N831 1.351 . S
C832 C833 1.434 . S
C833 C824 1.429 . S
C833 N830 1.350 . S
C833 C832 1.434 . S
C834 C835 1.369 . S
C834 C836 1.419 . S
C834 H838 0.930 . S
C835 C834 1.369 . S
C835 C844 1.429 . S
C836 C834 1.419 . S
C836 C837 1.363 1_655 S
C836 H839 0.929 1_655 S
C837 C836 1.363 1_455 S
C837 C843 1.428 . S
H838 C834 0.930 . S
H839 C836 0.929 1_455 S
S840 N841 1.613 1_455 S
S840 N842 1.610 . S
N841 S840 1.613 1_655 S
N841 C844 1.350 . S
N842 S840 1.610 . S
N842 C843 1.351 . S
C843 C837 1.428 . S
C843 N842 1.351 . S
C843 C844 1.434 1_455 S
C844 C835 1.429 . S
C844 N841 1.350 . S
C844 C843 1.434 1_655 S
C845 C846 1.369 . S
C845 C847 1.419 . S
C845 H849 0.930 . S
C846 C845 1.369 . S
C846 C855 1.429 . S
C847 C845 1.419 . S
C847 C848 1.363 . S
C847 H850 0.929 . S
C848 C847 1.363 . S
C848 C854 1.428 . S
H849 C845 0.930 . S
H850 C847 0.929 . S
S851 N852 1.613 . S
S851 N853 1.610 . S
N852 S851 1.613 . S
N852 C855 1.350 . S
N853 S851 1.610 . S
N853 C854 1.351 . S
C854 C848 1.428 . S
C854 N853 1.351 . S
C854 C855 1.434 . S
C855 C846 1.429 . S
C855 N852 1.350 . S
C855 C854 1.434 . S
C856 C857 1.369 . S
C856 C858 1.419 . S
C856 H860 0.930 . S
C857 C856 1.369 . S
C857 C866 1.429 . S
C858 C856 1.419 . S
C858 C859 1.363 1_545 S
C858 H861 0.929 . S
C859 C858 1.363 1_565 S
C859 C865 1.428 1_565 S
H860 C856 0.930 . S
H861 C858 0.929 . S
S862 N863 1.613 . S
S862 N864 1.610 1_545 S
N863 S862 1.613 . S
N863 C866 1.350 . S
N864 S862 1.610 1_565 S
N864 C865 1.351 1_565 S
C865 C859 1.428 1_545 S
C865 N864 1.351 1_545 S
C865 C866 1.434 . S
C866 C857 1.429 . S
C866 N863 1.350 . S
C866 C865 1.434 . S
C867 C868 1.369 . S
C867 C869 1.419 . S
C867 H871 0.930 . S
C868 C867 1.369 . S
C868 C877 1.429 . S
C869 C867 1.419 . S
C869 C870 1.363 . S
C869 H872 0.929 . S
C870 C869 1.363 . S
C870 C876 1.428 . S
H871 C867 0.930 . S
H872 C869 0.929 . S
S873 N874 1.613 . S
S873 N875 1.610 . S
N874 S873 1.613 . S
N874 C877 1.350 . S
N875 S873 1.610 . S
N875 C876 1.351 . S
C876 C870 1.428 . S
C876 N875 1.351 . S
C876 C877 1.434 . S
C877 C868 1.429 . S
C877 N874 1.350 . S
C877 C876 1.434 . S
C878 C879 1.369 . S
C878 C880 1.419 . S
C878 H882 0.930 . S
C879 C878 1.369 . S
C879 C888 1.429 . S
C880 C878 1.419 . S
C880 C881 1.363 . S
C880 H883 0.929 . S
C881 C880 1.363 . S
C881 C887 1.428 . S
H882 C878 0.930 . S
H883 C880 0.929 . S
S884 N885 1.613 . S
S884 N886 1.610 . S
N885 S884 1.613 . S
N885 C888 1.350 . S
N886 S884 1.610 . S
N886 C887 1.351 . S
C887 C881 1.428 . S
C887 N886 1.351 . S
C887 C888 1.434 . S
C888 C879 1.429 . S
C888 N885 1.350 . S
C888 C887 1.434 . S
C889 C890 1.369 . S
C889 C891 1.419 . S
C889 H893 0.930 . S
C890 C889 1.369 . S
C890 C899 1.429 . S
C891 C889 1.419 . S
C891 C892 1.363 . S
C891 H894 0.929 . S
C892 C891 1.363 . S
C892 C898 1.428 . S
H893 C889 0.930 . S
H894 C891 0.929 . S
S895 N896 1.613 . S
S895 N897 1.610 . S
N896 S895 1.613 . S
N896 C899 1.350 . S
N897 S895 1.610 . S
N897 C898 1.351 . S
C898 C892 1.428 . S
C898 N897 1.351 . S
C898 C899 1.434 . S
C899 C890 1.429 . S
C899 N896 1.350 . S
C899 C898 1.434 . S
C900 C901 1.369 . S
C900 C902 1.419 . S
C900 H904 0.930 . S
C901 C900 1.369 . S
C901 C910 1.429 . S
C902 C900 1.419 . S
C902 C903 1.363 . S
C902 H905 0.929 . S
C903 C902 1.363 . S
C903 C909 1.428 . S
H904 C900 0.930 . S
H905 C902 0.929 . S
S906 N907 1.613 . S
S906 N908 1.610 . S
N907 S906 1.613 . S
N907 C910 1.350 . S
N908 S906 1.610 . S
N908 C909 1.351 . S
C909 C903 1.428 . S
C909 N908 1.351 . S
C909 C910 1.434 . S
C910 C901 1.429 . S
C910 N907 1.350 . S
C910 C909 1.434 . S
C911 C912 1.369 . S
C911 C913 1.419 . S
C911 H915 0.930 . S
C912 C911 1.369 . S
C912 C921 1.429 . S
C913 C911 1.419 . S
C913 C914 1.363 . S
C913 H916 0.929 . S
C914 C913 1.363 . S
C914 C920 1.428 . S
H915 C911 0.930 . S
H916 C913 0.929 . S
S917 N918 1.613 . S
S917 N919 1.610 . S
N918 S917 1.613 . S
N918 C921 1.350 . S
N919 S917 1.610 . S
N919 C920 1.351 . S
C920 C914 1.428 . S
C920 N919 1.351 . S
C920 C921 1.434 . S
C921 C912 1.429 . S
C921 N918 1.350 . S
C921 C920 1.434 . S
C922 C923 1.369 . S
C922 C924 1.419 . S
C922 H926 0.930 . S
C923 C922 1.369 . S
C923 C932 1.429 . S
C924 C922 1.419 . S
C924 C925 1.363 . S
C924 H927 0.929 . S
C925 C924 1.363 . S
C925 C931 1.428 . S
H926 C922 0.930 . S
H927 C924 0.929 . S
S928 N929 1.613 . S
S928 N930 1.610 . S
N929 S928 1.613 . S
N929 C932 1.350 . S
N930 S928 1.610 . S
N930 C931 1.351 . S
C931 C925 1.428 . S
C931 N930 1.351 . S
C931 C932 1.434 . S
C932 C923 1.429 . S
C932 N929 1.350 . S
C932 C931 1.434 . S
C933 C934 1.369 . S
C933 C935 1.419 . S
C933 H937 0.930 . S
C934 C933 1.369 . S
C934 C943 1.429 . S
C935 C933 1.419 . S
C935 C936 1.363 . S
C935 H938 0.929 . S
C936 C935 1.363 . S
C936 C942 1.428 . S
H937 C933 0.930 . S
H938 C935 0.929 . S
S939 N940 1.613 . S
S939 N941 1.610 . S
N940 S939 1.613 . S
N940 C943 1.350 . S
N941 S939 1.610 . S
N941 C942 1.351 . S
C942 C936 1.428 . S
C942 N941 1.351 . S
C942 C943 1.434 . S
C943 C934 1.429 . S
C943 N940 1.350 . S
C943 C942 1.434 . S
C944 C945 1.369 . S
C944 C946 1.419 . S
C944 H948 0.930 . S
C945 C944 1.369 . S
C945 C954 1.429 . S
C946 C944 1.419 . S
C946 C947 1.363 . S
C946 H949 0.929 . S
C947 C946 1.363 . S
C947 C953 1.428 . S
H948 C944 0.930 . S
H949 C946 0.929 . S
S950 N951 1.613 . S
S950 N952 1.610 . S
N951 S950 1.613 . S
N951 C954 1.350 . S
N952 S950 1.610 . S
N952 C953 1.351 . S
C953 C947 1.428 . S
C953 N952 1.351 . S
C953 C954 1.434 . S
C954 C945 1.429 . S
C954 N951 1.350 . S
C954 C953 1.434 . S
C955 C956 1.369 . S
C955 C957 1.419 . S
C955 H959 0.930 . S
C956 C955 1.369 . S
C956 C965 1.429 . S
C957 C955 1.419 . S
C957 C958 1.363 . S
C957 H960 0.929 . S
C958 C957 1.363 . S
C958 C964 1.428 . S
H959 C955 0.930 . S
H960 C957 0.929 . S
S961 N962 1.613 . S
S961 N963 1.610 . S
N962 S961 1.613 . S
N962 C965 1.350 . S
N963 S961 1.610 . S
N963 C964 1.351 . S
C964 C958 1.428 . S
C964 N963 1.351 . S
C964 C965 1.434 . S
C965 C956 1.429 . S
C965 N962 1.350 . S
C965 C964 1.434 . S
C966 C967 1.369 . S
C966 C968 1.419 . S
C966 H970 0.930 . S
C967 C966 1.369 . S
C967 C976 1.429 . S
C968 C966 1.419 . S
C968 C969 1.363 . S
C968 H971 0.929 . S
C969 C968 1.363 . S
C969 C975 1.428 . S
H970 C966 0.930 . S
H971 C968 0.929 . S
S972 N973 1.613 . S
S972 N974 1.610 . S
N973 S972 1.613 . S
N973 C976 1.350 . S
N974 S972 1.610 . S
N974 C975 1.351 . S
C975 C969 1.428 . S
C975 N974 1.351 . S
C975 C976 1.434 . S
C976 C967 1.429 . S
C976 N973 1.350 . S
C976 C975 1.434 . S
C977 C978 1.369 . S
C977 C979 1.419 . S
C977 H981 0.930 . S
C978 C977 1.369 . S
C978 C987 1.429 . S
C979 C977 1.419 . S
C979 C980 1.363 . S
C979 H982 0.929 . S
C980 C979 1.363 . S
C980 C986 1.428 . S
H981 C977 0.930 . S
H982 C979 0.929 . S
S983 N984 1.613 . S
S983 N985 1.610 . S
N984 S983 1.613 . S
N984 C987 1.350 . S
N985 S983 1.610 . S
N985 C986 1.351 . S
C986 C980 1.428 . S
C986 N985 1.351 . S
C986 C987 1.434 . S
C987 C978 1.429 . S
C987 N984 1.350 . S
C987 C986 1.434 . S
C988 C989 1.369 . S
C988 C990 1.419 . S
C988 H992 0.930 . S
C989 C988 1.369 . S
C989 C998 1.429 . S
C990 C988 1.419 . S
C990 C991 1.363 . S
C990 H993 0.929 . S
C991 C990 1.363 . S
C991 C997 1.428 . S
H992 C988 0.930 . S
H993 C990 0.929 . S
S994 N995 1.613 . S
S994 N996 1.610 . S
N995 S994 1.613 . S
N995 C998 1.350 . S
N996 S994 1.610 . S
N996 C997 1.351 . S
C997 C991 1.428 . S
C997 N996 1.351 . S
C997 C998 1.434 . S
C998 C989 1.429 . S
C998 N995 1.350 . S
C998 C997 1.434 . S
C999 C1000 1.369 . S
C999 C1001 1.419 . S
C999 H1003 0.930 . S
C1000 C999 1.369 . S
C1000 C1009 1.429 . S
C1001 C999 1.419 . S
C1001 C1002 1.363 1_565 S
C1001 H1004 0.929 . S
C1002 C1001 1.363 1_545 S
C1002 C1008 1.428 . S
H1003 C999 0.930 . S
H1004 C1001 0.929 . S
S1005 N1006 1.613 1_545 S
S1005 N1007 1.610 . S
N1006 S1005 1.613 1_565 S
N1006 C1009 1.350 . S
N1007 S1005 1.610 . S
N1007 C1008 1.351 . S
C1008 C1002 1.428 . S
C1008 N1007 1.351 . S
C1008 C1009 1.434 1_545 S
C1009 C1000 1.429 . S
C1009 N1006 1.350 . S
C1009 C1008 1.434 1_565 S
C1010 C1011 1.369 . S
C1010 C1012 1.419 . S
C1010 H1014 0.930 . S
C1011 C1010 1.369 . S
C1011 C1020 1.430 . S
C1012 C1010 1.419 . S
C1012 C1013 1.363 1_455 S
C1012 H1015 0.929 . S
C1013 C1012 1.363 1_655 S
C1013 C1019 1.428 . S
H1014 C1010 0.930 . S
H1015 C1012 0.929 . S
S1016 N1017 1.613 . S
S1016 N1018 1.610 . S
N1017 S1016 1.613 . S
N1017 C1020 1.350 1_655 S
N1018 S1016 1.610 . S
N1018 C1019 1.351 . S
C1019 C1013 1.428 . S
C1019 N1018 1.351 . S
C1019 C1020 1.432 1_655 S
C1020 C1011 1.430 . S
C1020 N1017 1.350 1_455 S
C1020 C1019 1.432 1_455 S
C1021 C1022 1.369 . S
C1021 C1023 1.419 . S
C1021 H1025 0.930 . S
C1022 C1021 1.369 . S
C1022 C1031 1.429 . S
C1023 C1021 1.419 . S
C1023 C1024 1.363 . S
C1023 H1026 0.929 . S
C1024 C1023 1.363 . S
C1024 C1030 1.428 . S
H1025 C1021 0.930 . S
H1026 C1023 0.929 . S
S1027 N1028 1.613 . S
S1027 N1029 1.610 . S
N1028 S1027 1.613 . S
N1028 C1031 1.350 . S
N1029 S1027 1.610 . S
N1029 C1030 1.351 . S
C1030 C1024 1.428 . S
C1030 N1029 1.351 . S
C1030 C1031 1.434 . S
C1031 C1022 1.429 . S
C1031 N1028 1.350 . S
C1031 C1030 1.434 . S
C1032 C1033 1.369 . S
C1032 C1034 1.419 . S
C1032 H1036 0.930 . S
C1033 C1032 1.369 . S
C1033 C1042 1.429 . S
C1034 C1032 1.419 . S
C1034 C1035 1.363 . S
C1034 H1037 0.929 . S
C1035 C1034 1.363 . S
C1035 C1041 1.428 . S
H1036 C1032 0.930 . S
H1037 C1034 0.929 . S
S1038 N1039 1.613 . S
S1038 N1040 1.610 . S
N1039 S1038 1.613 . S
N1039 C1042 1.350 . S
N1040 S1038 1.610 . S
N1040 C1041 1.351 . S
C1041 C1035 1.428 . S
C1041 N1040 1.351 . S
C1041 C1042 1.434 . S
C1042 C1033 1.429 . S
C1042 N1039 1.350 . S
C1042 C1041 1.434 . S
C1043 C1044 1.369 . S
C1043 C1045 1.419 . S
C1043 H1047 0.930 . S
C1044 C1043 1.369 . S
C1044 C1053 1.429 . S
C1045 C1043 1.419 . S
C1045 C1046 1.363 . S
C1045 H1048 0.929 . S
C1046 C1045 1.363 . S
C1046 C1052 1.428 . S
H1047 C1043 0.930 . S
H1048 C1045 0.929 . S
S1049 N1050 1.613 . S
S1049 N1051 1.610 . S
N1050 S1049 1.613 . S
N1050 C1053 1.350 . S
N1051 S1049 1.610 . S
N1051 C1052 1.351 . S
C1052 C1046 1.428 . S
C1052 N1051 1.351 . S
C1052 C1053 1.434 . S
C1053 C1044 1.429 . S
C1053 N1050 1.350 . S
C1053 C1052 1.434 . S
C1054 C1055 1.369 . S
C1054 C1056 1.419 . S
C1054 H1058 0.930 . S
C1055 C1054 1.369 . S
C1055 C1064 1.429 . S
C1056 C1054 1.419 . S
C1056 C1057 1.363 . S
C1056 H1059 0.929 . S
C1057 C1056 1.363 . S
C1057 C1063 1.428 . S
H1058 C1054 0.930 . S
H1059 C1056 0.929 . S
S1060 N1061 1.613 . S
S1060 N1062 1.610 . S
N1061 S1060 1.613 . S
N1061 C1064 1.350 . S
N1062 S1060 1.610 . S
N1062 C1063 1.351 . S
C1063 C1057 1.428 . S
C1063 N1062 1.351 . S
C1063 C1064 1.434 . S
C1064 C1055 1.429 . S
C1064 N1061 1.350 . S
C1064 C1063 1.434 . S
C1065 C1066 1.369 . S
C1065 C1067 1.419 . S
C1065 H1069 0.930 . S
C1066 C1065 1.369 . S
C1066 C1075 1.429 . S
C1067 C1065 1.419 . S
C1067 C1068 1.363 . S
C1067 H1070 0.929 . S
C1068 C1067 1.363 . S
C1068 C1074 1.428 . S
H1069 C1065 0.930 . S
H1070 C1067 0.929 . S
S1071 N1072 1.613 . S
S1071 N1073 1.610 . S
N1072 S1071 1.613 . S
N1072 C1075 1.350 . S
N1073 S1071 1.610 . S
N1073 C1074 1.351 . S
C1074 C1068 1.428 . S
C1074 N1073 1.351 . S
C1074 C1075 1.434 . S
C1075 C1066 1.429 . S
C1075 N1072 1.350 . S
C1075 C1074 1.434 . S
C1076 C1077 1.369 . S
C1076 C1078 1.419 . S
C1076 H1080 0.930 . S
C1077 C1076 1.369 . S
C1077 C1086 1.429 . S
C1078 C1076 1.419 . S
C1078 C1079 1.363 . S
C1078 H1081 0.929 . S
C1079 C1078 1.363 . S
C1079 C1085 1.428 . S
H1080 C1076 0.930 . S
H1081 C1078 0.929 . S
S1082 N1083 1.613 . S
S1082 N1084 1.610 . S
N1083 S1082 1.613 . S
N1083 C1086 1.350 . S
N1084 S1082 1.610 . S
N1084 C1085 1.351 . S
C1085 C1079 1.428 . S
C1085 N1084 1.351 . S
C1085 C1086 1.434 . S
C1086 C1077 1.429 . S
C1086 N1083 1.350 . S
C1086 C1085 1.434 . S
C1087 C1088 1.369 . S
C1087 C1089 1.419 . S
C1087 H1091 0.930 . S
C1088 C1087 1.369 . S
C1088 C1097 1.429 . S
C1089 C1087 1.419 . S
C1089 C1090 1.363 . S
C1089 H1092 0.929 . S
C1090 C1089 1.363 . S
C1090 C1096 1.428 . S
H1091 C1087 0.930 . S
H1092 C1089 0.929 . S
S1093 N1094 1.613 . S
S1093 N1095 1.610 . S
N1094 S1093 1.613 . S
N1094 C1097 1.350 . S
N1095 S1093 1.610 . S
N1095 C1096 1.351 . S
C1096 C1090 1.428 . S
C1096 N1095 1.351 . S
C1096 C1097 1.434 . S
C1097 C1088 1.429 . S
C1097 N1094 1.350 . S
C1097 C1096 1.434 . S
C1098 C1099 1.369 . S
C1098 C1100 1.419 . S
C1098 H1102 0.930 . S
C1099 C1098 1.369 . S
C1099 C1108 1.429 . S
C1100 C1098 1.419 . S
C1100 C1101 1.363 . S
C1100 H1103 0.929 . S
C1101 C1100 1.363 . S
C1101 C1107 1.428 . S
H1102 C1098 0.930 . S
H1103 C1100 0.929 . S
S1104 N1105 1.613 1_545 S
S1104 N1106 1.614 . S
N1105 S1104 1.613 1_565 S
N1105 C1108 1.350 . S
N1106 S1104 1.614 . S
N1106 C1107 1.316 1_545 S
C1107 C1101 1.428 . S
C1107 N1106 1.316 1_565 S
C1107 C1108 1.434 . S
C1108 C1099 1.429 . S
C1108 N1105 1.350 . S
C1108 C1107 1.434 . S
C1109 C1110 1.369 . S
C1109 C1111 1.419 . S
C1109 H1113 0.930 . S
C1110 C1109 1.369 . S
C1110 C1119 1.429 . S
C1111 C1109 1.419 . S
C1111 C1112 1.363 . S
C1111 H1114 0.929 . S
C1112 C1111 1.363 . S
C1112 C1118 1.428 . S
H1113 C1109 0.930 . S
H1114 C1111 0.929 . S
S1115 N1116 1.616 . S
S1115 N1117 1.619 . S
N1116 S1115 1.616 . S
N1116 C1119 1.342 1_655 S
N1117 S1115 1.619 . S
N1117 C1118 1.343 1_655 S
C1118 C1112 1.428 . S
C1118 N1117 1.343 1_455 S
C1118 C1119 1.434 . S
C1119 C1110 1.429 . S
C1119 N1116 1.342 1_455 S
C1119 C1118 1.434 . S
C1120 C1121 1.369 . S
C1120 C1122 1.419 . S
C1120 H1124 0.930 . S
C1121 C1120 1.369 . S
C1121 C1130 1.429 . S
C1122 C1120 1.419 . S
C1122 C1123 1.363 . S
C1122 H1125 0.929 . S
C1123 C1122 1.363 . S
C1123 C1129 1.428 . S
H1124 C1120 0.930 . S
H1125 C1122 0.929 . S
S1126 N1127 1.613 . S
S1126 N1128 1.610 . S
N1127 S1126 1.613 . S
N1127 C1130 1.350 . S
N1128 S1126 1.610 . S
N1128 C1129 1.351 . S
C1129 C1123 1.428 . S
C1129 N1128 1.351 . S
C1129 C1130 1.434 . S
C1130 C1121 1.429 . S
C1130 N1127 1.350 . S
C1130 C1129 1.434 . S
C1131 C1132 1.369 . S
C1131 C1133 1.419 . S
C1131 H1135 0.930 . S
C1132 C1131 1.369 . S
C1132 C1141 1.429 . S
C1133 C1131 1.419 . S
C1133 C1134 1.363 . S
C1133 H1136 0.929 . S
C1134 C1133 1.363 . S
C1134 C1140 1.428 . S
H1135 C1131 0.930 . S
H1136 C1133 0.929 . S
S1137 N1138 1.613 . S
S1137 N1139 1.610 . S
N1138 S1137 1.613 . S
N1138 C1141 1.350 . S
N1139 S1137 1.610 . S
N1139 C1140 1.351 . S
C1140 C1134 1.428 . S
C1140 N1139 1.351 . S
C1140 C1141 1.434 . S
C1141 C1132 1.429 . S
C1141 N1138 1.350 . S
C1141 C1140 1.434 . S
C1142 C1143 1.369 . S
C1142 C1144 1.419 . S
C1142 H1146 0.930 . S
C1143 C1142 1.369 . S
C1143 C1152 1.429 . S
C1144 C1142 1.419 . S
C1144 C1145 1.363 . S
C1144 H1147 0.929 . S
C1145 C1144 1.363 . S
C1145 C1151 1.428 . S
H1146 C1142 0.930 . S
H1147 C1144 0.929 . S
S1148 N1149 1.613 . S
S1148 N1150 1.610 . S
N1149 S1148 1.613 . S
N1149 C1152 1.350 . S
N1150 S1148 1.610 . S
N1150 C1151 1.351 . S
C1151 C1145 1.428 . S
C1151 N1150 1.351 . S
C1151 C1152 1.434 . S
C1152 C1143 1.429 . S
C1152 N1149 1.350 . S
C1152 C1151 1.434 . S
C1153 C1154 1.369 . S
C1153 C1155 1.419 . S
C1153 H1157 0.930 . S
C1154 C1153 1.369 . S
C1154 C1163 1.429 . S
C1155 C1153 1.419 . S
C1155 C1156 1.363 . S
C1155 H1158 0.929 . S
C1156 C1155 1.363 . S
C1156 C1162 1.428 . S
H1157 C1153 0.930 . S
H1158 C1155 0.929 . S
S1159 N1160 1.613 . S
S1159 N1161 1.610 . S
N1160 S1159 1.613 . S
N1160 C1163 1.350 . S
N1161 S1159 1.610 . S
N1161 C1162 1.351 . S
C1162 C1156 1.428 . S
C1162 N1161 1.351 . S
C1162 C1163 1.434 . S
C1163 C1154 1.429 . S
C1163 N1160 1.350 . S
C1163 C1162 1.434 . S
C1164 C1165 1.369 . S
C1164 C1166 1.419 . S
C1164 H1168 0.930 . S
C1165 C1164 1.369 . S
C1165 C1174 1.429 . S
C1166 C1164 1.419 . S
C1166 C1167 1.363 . S
C1166 H1169 0.929 . S
C1167 C1166 1.363 . S
C1167 C1173 1.428 . S
H1168 C1164 0.930 . S
H1169 C1166 0.929 . S
S1170 N1171 1.613 . S
S1170 N1172 1.610 . S
N1171 S1170 1.613 . S
N1171 C1174 1.350 . S
N1172 S1170 1.610 . S
N1172 C1173 1.351 . S
C1173 C1167 1.428 . S
C1173 N1172 1.351 . S
C1173 C1174 1.434 . S
C1174 C1165 1.429 . S
C1174 N1171 1.350 . S
C1174 C1173 1.434 . S
C1175 C1176 1.369 . S
C1175 C1177 1.419 . S
C1175 H1179 0.930 . S
C1176 C1175 1.369 . S
C1176 C1185 1.429 . S
C1177 C1175 1.419 . S
C1177 C1178 1.363 . S
C1177 H1180 0.929 . S
C1178 C1177 1.363 . S
C1178 C1184 1.428 . S
H1179 C1175 0.930 . S
H1180 C1177 0.929 . S
S1181 N1182 1.613 . S
S1181 N1183 1.610 . S
N1182 S1181 1.613 . S
N1182 C1185 1.350 . S
N1183 S1181 1.610 . S
N1183 C1184 1.351 . S
C1184 C1178 1.428 . S
C1184 N1183 1.351 . S
C1184 C1185 1.434 . S
C1185 C1176 1.429 . S
C1185 N1182 1.350 . S
C1185 C1184 1.434 . S
C1186 C1187 1.369 . S
C1186 C1188 1.419 . S
C1186 H1190 0.930 . S
C1187 C1186 1.369 . S
C1187 C1196 1.429 . S
C1188 C1186 1.419 . S
C1188 C1189 1.363 . S
C1188 H1191 0.929 . S
C1189 C1188 1.363 . S
C1189 C1195 1.428 . S
H1190 C1186 0.930 . S
H1191 C1188 0.929 . S
S1192 N1193 1.613 . S
S1192 N1194 1.610 . S
N1193 S1192 1.613 . S
N1193 C1196 1.350 . S
N1194 S1192 1.610 . S
N1194 C1195 1.351 . S
C1195 C1189 1.428 . S
C1195 N1194 1.351 . S
C1195 C1196 1.434 . S
C1196 C1187 1.429 . S
C1196 N1193 1.350 . S
C1196 C1195 1.434 . S
C1197 C1198 1.369 . S
C1197 C1199 1.419 . S
C1197 H1201 0.930 . S
C1198 C1197 1.369 . S
C1198 C1207 1.429 . S
C1199 C1197 1.419 . S
C1199 C1200 1.363 . S
C1199 H1202 0.929 . S
C1200 C1199 1.363 . S
C1200 C1206 1.428 . S
H1201 C1197 0.930 . S
H1202 C1199 0.929 . S
S1203 N1204 1.613 . S
S1203 N1205 1.610 . S
N1204 S1203 1.613 . S
N1204 C1207 1.350 . S
N1205 S1203 1.610 . S
N1205 C1206 1.351 . S
C1206 C1200 1.428 . S
C1206 N1205 1.351 . S
C1206 C1207 1.434 . S
C1207 C1198 1.429 . S
C1207 N1204 1.350 . S
C1207 C1206 1.434 . S
C1208 C1209 1.369 . S
C1208 C1210 1.419 . S
C1208 H1212 0.930 . S
C1209 C1208 1.369 . S
C1209 C1218 1.429 . S
C1210 C1208 1.419 . S
C1210 C1211 1.363 . S
C1210 H1213 0.929 . S
C1211 C1210 1.363 . S
C1211 C1217 1.428 . S
H1212 C1208 0.930 . S
H1213 C1210 0.929 . S
S1214 N1215 1.613 . S
S1214 N1216 1.610 . S
N1215 S1214 1.613 . S
N1215 C1218 1.350 . S
N1216 S1214 1.610 . S
N1216 C1217 1.351 . S
C1217 C1211 1.428 . S
C1217 N1216 1.351 . S
C1217 C1218 1.434 . S
C1218 C1209 1.429 . S
C1218 N1215 1.350 . S
C1218 C1217 1.434 . S
C1219 C1220 1.369 . S
C1219 C1221 1.419 . S
C1219 H1223 0.930 . S
C1220 C1219 1.369 . S
C1220 C1229 1.429 . S
C1221 C1219 1.419 . S
C1221 C1222 1.363 . S
C1221 H1224 0.929 . S
C1222 C1221 1.363 . S
C1222 C1228 1.428 . S
H1223 C1219 0.930 . S
H1224 C1221 0.929 . S
S1225 N1226 1.613 . S
S1225 N1227 1.610 . S
N1226 S1225 1.613 . S
N1226 C1229 1.350 . S
N1227 S1225 1.610 . S
N1227 C1228 1.351 . S
C1228 C1222 1.428 . S
C1228 N1227 1.351 . S
C1228 C1229 1.434 . S
C1229 C1220 1.429 . S
C1229 N1226 1.350 . S
C1229 C1228 1.434 . S
C1230 C1231 1.369 . S
C1230 C1232 1.419 . S
C1230 H1234 0.930 . S
C1231 C1230 1.369 . S
C1231 C1240 1.429 . S
C1232 C1230 1.419 . S
C1232 C1233 1.363 . S
C1232 H1235 0.929 . S
C1233 C1232 1.363 . S
C1233 C1239 1.428 . S
H1234 C1230 0.930 . S
H1235 C1232 0.929 . S
S1236 N1237 1.613 . S
S1236 N1238 1.610 . S
N1237 S1236 1.613 . S
N1237 C1240 1.350 . S
N1238 S1236 1.610 . S
N1238 C1239 1.351 . S
C1239 C1233 1.428 . S
C1239 N1238 1.351 . S
C1239 C1240 1.434 . S
C1240 C1231 1.429 . S
C1240 N1237 1.350 . S
C1240 C1239 1.434 . S
C1241 C1242 1.369 . S
C1241 C1243 1.419 . S
C1241 H1245 0.930 . S
C1242 C1241 1.369 . S
C1242 C1251 1.429 . S
C1243 C1241 1.419 . S
C1243 C1244 1.363 . S
C1243 H1246 0.929 . S
C1244 C1243 1.363 . S
C1244 C1250 1.428 . S
H1245 C1241 0.930 . S
H1246 C1243 0.929 . S
S1247 N1248 1.613 . S
S1247 N1249 1.610 . S
N1248 S1247 1.613 . S
N1248 C1251 1.350 . S
N1249 S1247 1.610 . S
N1249 C1250 1.351 . S
C1250 C1244 1.428 . S
C1250 N1249 1.351 . S
C1250 C1251 1.434 . S
C1251 C1242 1.429 . S
C1251 N1248 1.350 . S
C1251 C1250 1.434 . S
C1252 C1253 1.369 . S
C1252 C1254 1.419 . S
C1252 H1256 0.930 . S
C1253 C1252 1.369 . S
C1253 C1262 1.429 . S
C1254 C1252 1.419 . S
C1254 C1255 1.363 . S
C1254 H1257 0.929 . S
C1255 C1254 1.363 . S
C1255 C1261 1.428 . S
H1256 C1252 0.930 . S
H1257 C1254 0.929 . S
S1258 N1259 1.613 . S
S1258 N1260 1.610 . S
N1259 S1258 1.613 . S
N1259 C1262 1.350 . S
N1260 S1258 1.610 . S
N1260 C1261 1.351 . S
C1261 C1255 1.428 . S
C1261 N1260 1.351 . S
C1261 C1262 1.434 . S
C1262 C1253 1.429 . S
C1262 N1259 1.350 . S
C1262 C1261 1.434 . S
C1263 C1264 1.369 . S
C1263 C1265 1.419 . S
C1263 H1267 0.930 . S
C1264 C1263 1.369 . S
C1264 C1273 1.429 . S
C1265 C1263 1.419 . S
C1265 C1266 1.363 . S
C1265 H1268 0.929 . S
C1266 C1265 1.363 . S
C1266 C1272 1.428 . S
H1267 C1263 0.930 . S
H1268 C1265 0.929 . S
S1269 N1270 1.613 . S
S1269 N1271 1.610 . S
N1270 S1269 1.613 . S
N1270 C1273 1.350 . S
N1271 S1269 1.610 . S
N1271 C1272 1.351 . S
C1272 C1266 1.428 . S
C1272 N1271 1.351 . S
C1272 C1273 1.434 . S
C1273 C1264 1.429 . S
C1273 N1270 1.350 . S
C1273 C1272 1.434 . S
C1274 C1275 1.369 . S
C1274 C1276 1.419 . S
C1274 H1278 0.930 . S
C1275 C1274 1.369 . S
C1275 C1284 1.429 . S
C1276 C1274 1.419 . S
C1276 C1277 1.363 . S
C1276 H1279 0.929 . S
C1277 C1276 1.363 . S
C1277 C1283 1.428 . S
H1278 C1274 0.930 . S
H1279 C1276 0.929 . S
S1280 N1281 1.613 . S
S1280 N1282 1.610 . S
N1281 S1280 1.613 . S
N1281 C1284 1.350 . S
N1282 S1280 1.610 . S
N1282 C1283 1.351 . S
C1283 C1277 1.428 . S
C1283 N1282 1.351 . S
C1283 C1284 1.434 . S
C1284 C1275 1.429 . S
C1284 N1281 1.350 . S
C1284 C1283 1.434 . S
C1285 C1286 1.369 . S
C1285 C1287 1.419 . S
C1285 H1289 0.930 . S
C1286 C1285 1.369 . S
C1286 C1295 1.429 . S
C1287 C1285 1.419 . S
C1287 C1288 1.363 . S
C1287 H1290 0.929 . S
C1288 C1287 1.363 . S
C1288 C1294 1.428 . S
H1289 C1285 0.930 . S
H1290 C1287 0.929 . S
S1291 N1292 1.613 . S
S1291 N1293 1.610 . S
N1292 S1291 1.613 . S
N1292 C1295 1.350 . S
N1293 S1291 1.610 . S
N1293 C1294 1.351 . S
C1294 C1288 1.428 . S
C1294 N1293 1.351 . S
C1294 C1295 1.434 . S
C1295 C1286 1.429 . S
C1295 N1292 1.350 . S
C1295 C1294 1.434 . S
C703 C253 1.704 . S
C705 C354 1.718 . S
C714 C272 1.802 . S
C716 C394 1.789 . S
C725 C234 1.608 . S
C727 C424 1.585 . S
C736 C215 1.502 . S
C738 C384 1.478 . S
C749 C434 1.576 . S
C747 C177 1.589 . S
C758 C196 1.432 . S
C760 C344 1.426 1_556 S
C771 C373 1.693 . S
C769 C220 1.518 . S
C782 C413 1.631 . S
C780 C182 1.541 . S
C791 C201 1.605 . S
C793 C439 1.720 . S
C802 C258 1.445 . S
C804 C399 1.557 . S
C813 C277 1.322 . S
C815 C453 1.483 . S
C826 C359 1.564 1_554 S
C824 C239 1.406 . S
C837 C474 1.717 . S
C835 C25 1.704 . S
C846 C44 1.801 . S
C848 C514 1.790 . S
C857 C6 1.601 . S
C859 C544 1.589 . S
C868 C329 1.497 . S
C870 C504 1.468 . S
C879 C291 1.589 . S
C881 C554 1.576 . S
C890 C310 1.432 . S
C892 C464 1.426 . S
C901 C334 1.517 . S
C903 C493 1.696 . S
C912 C296 1.542 . S
C914 C533 1.633 . S
C925 C559 1.718 . S
C923 C315 1.608 . S
C934 C30 1.444 1_565 S
C936 C519 1.556 . S
C947 C573 1.480 . S
C945 C49 1.333 . S
C956 C11 1.422 . S
C958 C479 1.570 . S
C969 C594 1.718 . S
C967 C139 1.706 . S
C978 C158 1.802 . S
C980 C634 1.789 . S
C991 C664 1.588 . S
C989 C120 1.601 . S
C1002 C624 1.466 . S
C1000 C101 1.497 . S
C1013 C674 1.573 . S
C1011 C63 1.589 . S
C1022 C82 1.433 . S
C1024 C584 1.425 . S
C1033 C106 1.506 1_655 S
C1035 C613 1.697 . S
C1044 C68 1.533 . S
C1046 C653 1.632 . S
C1057 C679 1.721 . S
C1055 C87 1.618 1_545 S
C1066 C144 1.457 . S
C1068 C639 1.552 . S
C1077 C163 1.331 . S
C1079 C693 1.483 . S
C1088 C125 1.406 . S
C1090 C599 1.573 . S
C1099 C287 1.679 . S
C1101 C371 1.645 . S
C1112 C411 1.995 . S
C1110 C306 2.046 . S
C1121 C325 1.622 . S
C1123 C430 1.666 . S
C1132 C116 1.801 . S
C1134 C390 1.815 . S
C1143 C135 1.797 . S
C1145 C451 1.764 . S
C1156 C350 1.399 . S
C1154 C154 1.374 . S
C1165 C59 1.684 . S
C1167 C491 1.641 . S
C1176 C78 2.042 . S
C1178 C531 1.998 . S
C1187 C97 1.630 . S
C1189 C550 1.663 . S
C1198 C230 1.804 . S
C1200 C510 1.813 . S
C1211 C571 1.769 . S
C1209 C249 1.791 . S
C1220 C268 1.371 . S
C1222 C470 1.400 . S
C1231 C173 1.681 . S
C1233 C611 1.645 . S
C1242 C192 2.049 . S
C1244 C651 1.992 . S
C1255 C670 1.666 . S
C1253 C211 1.624 . S
C1264 C2 1.798 . S
C1266 C630 1.814 . S
C1275 C21 1.790 . S
C1277 C691 1.770 . S
C1286 C40 1.372 . S
C1288 C590 1.400 . S
