# Generated by pormake.
# Topology anh, (6,3)-cn, num edge types: 1
# Building blocks:
#     Node 0, Type 0, BuildingBlock: HISSIN_clean_sbu_0, # of connection points: 6
#     Node 1, Type 0, BuildingBlock: HISSIN_clean_sbu_0, # of connection points: 6
#     Node 2, Type 0, BuildingBlock: HISSIN_clean_sbu_0, # of connection points: 6
#     Node 3, Type 1, BuildingBlock: PAMTOO_clean_linker_0, # of connection points: 3
#     Node 4, Type 1, BuildingBlock: PAMTOO_clean_linker_0, # of connection points: 3
#     Node 5, Type 1, BuildingBlock: PAMTOO_clean_linker_0, # of connection points: 3
#     Node 6, Type 1, BuildingBlock: PAMTOO_clean_linker_0, # of connection points: 3
#     Node 7, Type 1, BuildingBlock: PAMTOO_clean_linker_0, # of connection points: 3
#     Node 8, Type 1, BuildingBlock: PAMTOO_clean_linker_0, # of connection points: 3
#     Edge 9, Type (0, 1), BuildingBlock: KIFKEQ_clean_linker_1, # of connection points: 2
#     Edge 10, Type (0, 1), BuildingBlock: KIFKEQ_clean_linker_1, # of connection points: 2
#     Edge 11, Type (0, 1), BuildingBlock: KIFKEQ_clean_linker_1, # of connection points: 2
#     Edge 12, Type (0, 1), BuildingBlock: KIFKEQ_clean_linker_1, # of connection points: 2
#     Edge 13, Type (0, 1), BuildingBlock: KIFKEQ_clean_linker_1, # of connection points: 2
#     Edge 14, Type (0, 1), BuildingBlock: KIFKEQ_clean_linker_1, # of connection points: 2
#     Edge 15, Type (0, 1), BuildingBlock: KIFKEQ_clean_linker_1, # of connection points: 2
#     Edge 16, Type (0, 1), BuildingBlock: KIFKEQ_clean_linker_1, # of connection points: 2
#     Edge 17, Type (0, 1), BuildingBlock: KIFKEQ_clean_linker_1, # of connection points: 2
#     Edge 18, Type (0, 1), BuildingBlock: KIFKEQ_clean_linker_1, # of connection points: 2
#     Edge 19, Type (0, 1), BuildingBlock: KIFKEQ_clean_linker_1, # of connection points: 2
#     Edge 20, Type (0, 1), BuildingBlock: KIFKEQ_clean_linker_1, # of connection points: 2
#     Edge 21, Type (0, 1), BuildingBlock: KIFKEQ_clean_linker_1, # of connection points: 2
#     Edge 22, Type (0, 1), BuildingBlock: KIFKEQ_clean_linker_1, # of connection points: 2
#     Edge 23, Type (0, 1), BuildingBlock: KIFKEQ_clean_linker_1, # of connection points: 2
#     Edge 24, Type (0, 1), BuildingBlock: KIFKEQ_clean_linker_1, # of connection points: 2
#     Edge 25, Type (0, 1), BuildingBlock: KIFKEQ_clean_linker_1, # of connection points: 2
#     Edge 26, Type (0, 1), BuildingBlock: KIFKEQ_clean_linker_1, # of connection points: 2
# Relax obj value: 0.243
# Max RMSD: 0.148
# Mean RMSD: 0.117
data_MOF--net-anh--node1-HISSIN_clean_sbu_0--node2-PAMTOO_clean_linker_0--edge1-KIFKEQ_clean_linker_1
_symmetry_space_group_name_H-M    P1
_symmetry_Int_Tables_number       1
_symmetry_cell_setting            triclinic
loop_
_symmetry_equiv_pos_as_xyz
'x, y, z'
_cell_length_a     31.845797
_cell_length_b     31.936061
_cell_length_c     50.242344
_cell_angle_alpha  88.422753
_cell_angle_beta   92.319335
_cell_angle_gamma 119.7777
loop_
_atom_site_label
_atom_site_type_symbol
_atom_site_fract_x
_atom_site_fract_y
_atom_site_fract_z
_atom_type_partial_charge
Eu0 Eu 0.13977 0.50334 0.15269 0.0
Eu1 Eu 0.19433 0.61299 0.17062 0.0
C2 C 0.15178 0.53132 0.21474 0.0
C3 C 1.03753 0.37919 0.14316 0.0
C4 C 1.01578 0.38398 0.16574 0.0
C5 C 0.95842 0.31947 0.12569 0.0
C6 C 0.96582 0.35723 0.16814 0.0
C7 C 1.0087 0.34628 0.12333 0.0
C8 C 0.93646 0.32559 0.14786 0.0
C9 C 1.0887 0.41353 0.13864 0.0
O10 O 0.25886 0.59934 0.16316 0.0
O11 O 0.21873 0.51724 0.158 0.0
C12 C 0.26025 0.55876 0.1598 0.0
O13 O 0.18276 0.54766 0.11771 0.0
O14 O 0.25085 0.68765 0.16475 0.0
O15 O 0.20433 0.66814 0.19872 0.0
O16 O 0.17699 0.61341 0.12709 0.0
C17 C 0.18615 0.58879 0.11028 0.0
O18 O 1.07886 0.52338 0.14679 0.0
O19 O 0.11356 0.59562 0.1684 0.0
O20 O 0.19059 0.57092 0.20784 0.0
O21 O 1.09591 0.44949 0.12285 0.0
O22 O 0.1174 0.42754 0.15985 0.0
O23 O 0.12159 0.50284 0.19622 0.0
C24 C 0.23399 0.74693 0.18024 0.0
C25 C 0.19365 0.74992 0.18812 0.0
C26 C 0.2726 0.83087 0.16641 0.0
C27 C 0.19336 0.79356 0.18565 0.0
C28 C 0.273 0.78755 0.16902 0.0
C29 C 0.23319 0.83468 0.17511 0.0
C30 C 0.23782 0.70316 0.18486 0.0
C31 C 1.07493 0.55962 0.15638 0.0
H32 H 1.03722 0.40969 0.18114 0.0
H33 H 0.93665 0.29548 0.10972 0.0
H34 H 0.95008 0.362 0.18572 0.0
H35 H 1.02486 0.34276 0.10556 0.0
H36 H 0.16289 0.71902 0.19677 0.0
H37 H 0.30439 0.86205 0.15876 0.0
H38 H 0.1625 0.79541 0.19248 0.0
H39 H 0.3046 0.78621 0.16297 0.0
Eu40 Eu 0.6355 1.00877 0.4849 0.0
Eu41 Eu 0.57893 0.06583 0.49392 0.0
C42 C 0.61949 1.03183 0.54465 0.0
C43 C 0.72748 0.96514 0.49124 0.0
C44 C 0.72217 0.93234 0.51177 0.0
C45 C 0.81472 0.99697 0.4939 0.0
C46 C 0.76239 0.93169 0.52316 0.0
C47 C 0.77423 0.9978 0.48252 0.0
C48 C 0.80912 0.96359 0.51422 0.0
C49 C 0.68387 0.96368 0.47882 0.0
O50 O 0.65952 0.12964 0.49352 0.0
O51 O 0.69768 0.08878 0.48111 0.0
C52 C 0.69984 0.13044 0.48635 0.0
O53 O 0.60057 1.01029 0.44503 0.0
O54 O 0.56165 0.11 0.51847 0.0
O55 O 0.52589 0.08632 0.47976 0.0
O56 O 0.60422 0.08172 0.45215 0.0
C57 C 0.59953 1.04854 0.43581 0.0
O58 O 0.55631 0.94541 0.48888 0.0
O59 O 0.51522 0.98719 0.48543 0.0
O60 O 0.58433 1.03818 0.53486 0.0
O61 O 0.64655 0.948 0.49394 0.0
O62 O 0.68979 1.00035 0.46402 0.0
O63 O 0.64854 1.02681 0.52889 0.0
C64 C 0.547 0.16428 0.49364 0.0
C65 C 0.52593 0.18649 0.50729 0.0
C66 C 0.60304 0.24119 0.47378 0.0
C67 C 0.54417 0.2362 0.50472 0.0
C68 C 0.58487 0.19164 0.4764 0.0
C69 C 0.58381 0.26423 0.4885 0.0
C70 C 0.53408 0.11442 0.50001 0.0
C71 C 0.51444 0.94506 0.48637 0.0
H72 H 0.68668 0.90631 0.51874 0.0
H73 H 0.85023 1.02182 0.48651 0.0
H74 H 0.75647 0.90451 0.53821 0.0
H75 H 0.77951 1.02343 0.46664 0.0
H76 H 0.49686 0.1658 0.52082 0.0
H77 H 0.63408 0.2618 0.46148 0.0
H78 H 0.52844 0.25297 0.51613 0.0
H79 H 0.60197 0.17508 0.46598 0.0
Eu80 Eu 0.61915 0.53996 0.81967 0.0
Eu81 Eu 0.73413 0.59889 0.82065 0.0
C82 C 0.68097 0.56738 0.87648 0.0
C83 C 0.49825 0.52249 0.83207 0.0
C84 C 0.472 0.53812 0.81554 0.0
C85 C 0.4914 0.56648 0.86883 0.0
C86 C 0.45765 0.56958 0.82525 0.0
C87 C 0.50589 0.53527 0.85913 0.0
C88 C 0.46923 0.58578 0.8517 0.0
C89 C 0.52568 0.50207 0.82002 0.0
O90 O 0.71706 0.51856 0.81623 0.0
O91 O 0.63454 0.47603 0.81994 0.0
C92 C 0.67601 0.47623 0.81734 0.0
O93 O 0.64238 0.5356 0.77825 0.0
O94 O 0.80699 0.65028 0.83507 0.0
O95 O 0.79601 0.61688 0.79629 0.0
O96 O 0.70372 0.61135 0.78225 0.0
C97 C 0.67451 0.57556 0.76705 0.0
O98 O 0.63612 0.62016 0.81541 0.0
O99 O 0.71736 0.66167 0.82544 0.0
O100 O 0.72022 0.57757 0.86383 0.0
O101 O 0.55151 0.52676 0.79985 0.0
O102 O 0.54965 0.48848 0.83642 0.0
O103 O 0.64084 0.55868 0.86337 0.0
C104 C 0.87289 0.6449 0.81764 0.0
C105 C 0.90122 0.65315 0.79534 0.0
C106 C 0.93701 0.64592 0.84591 0.0
C107 C 0.94743 0.65868 0.79831 0.0
C108 C 0.89067 0.64031 0.84292 0.0
C109 C 0.96629 0.65628 0.82369 0.0
C110 C 0.82732 0.64588 0.81403 0.0
C111 C 0.67629 0.66204 0.82002 0.0
H112 H 0.46581 0.52895 0.7946 0.0
H113 H 0.49986 0.57751 0.88945 0.0
H114 H 0.44069 0.58387 0.81153 0.0
H115 H 0.52594 0.52389 0.8725 0.0
H116 H 0.88818 0.6569 0.77565 0.0
H117 H 0.9507 0.64435 0.86578 0.0
H118 H 0.96885 0.66598 0.78079 0.0
H119 H 0.86955 0.63402 0.86046 0.0
H120 H 0.62482 0.14035 0.23933 0.0
H121 H 0.47319 0.09477 0.24202 0.0
H122 H 0.55335 0.17163 0.17365 0.0
H123 H 0.45597 0.18551 0.18703 0.0
C124 C 0.44622 0.15526 0.20144 0.0
O125 O 0.46871 0.12964 0.19486 0.0
H126 H 0.45763 0.17074 0.2218 0.0
C127 C 0.5922 0.13746 0.23002 0.0
C128 C 0.59429 0.1576 0.20455 0.0
C129 C 0.54894 0.11506 0.24394 0.0
C130 C 0.5073 0.113 0.232 0.0
C131 C 0.50942 0.13442 0.20698 0.0
C132 C 0.55278 0.15681 0.19338 0.0
H133 H 0.85534 0.73251 0.60028 0.0
H134 H 0.80941 0.58873 0.57351 0.0
H135 H 0.90746 0.71057 0.52719 0.0
H136 H 0.8545 0.62521 0.48811 0.0
C137 C 0.82935 0.61429 0.5049 0.0
O138 O 0.85499 0.61763 0.5284 0.0
H139 H 0.81478 0.63967 0.50441 0.0
C140 C 0.85812 0.7087 0.58639 0.0
C141 C 0.88491 0.72812 0.56326 0.0
C142 C 0.83167 0.65847 0.5908 0.0
C143 C 0.83088 0.62752 0.57115 0.0
C144 C 0.85835 0.64673 0.54834 0.0
C145 C 0.88688 0.69663 0.54511 0.0
H146 H 0.25858 0.7127 0.92163 0.0
H147 H 0.3983 0.82153 0.95157 0.0
H148 H 0.34514 0.83977 0.87482 0.0
H149 H 0.49036 0.91106 0.90777 0.0
C150 C 0.45728 0.8865 0.89591 0.0
O151 O 0.41708 0.87817 0.90986 0.0
H152 H 0.45807 0.90591 0.87707 0.0
C153 C 0.29242 0.74588 0.91873 0.0
C154 C 0.29811 0.7731 0.89538 0.0
C155 C 0.32788 0.76299 0.93933 0.0
C156 C 0.37034 0.80753 0.93598 0.0
C157 C 0.37651 0.83484 0.91266 0.0
C158 C 0.34027 0.81794 0.89256 0.0
H159 H 1.01724 0.42832 0.41273 0.0
H160 H 0.14461 0.56784 0.41847 0.0
H161 H 1.0652 0.49909 0.48934 0.0
H162 H 0.2084 0.58718 0.45362 0.0
C163 C 0.19688 0.59792 0.47158 0.0
O164 O 0.14624 0.58198 0.46871 0.0
H165 H 0.20111 0.57655 0.48822 0.0
C166 C 1.04229 0.45829 0.42511 0.0
C167 C 1.03389 0.45665 0.45271 0.0
C168 C 1.0822 0.49732 0.41287 0.0
C169 C 0.11509 0.5373 0.42821 0.0
C170 C 0.11146 0.53933 0.45578 0.0
C171 C 1.06974 0.49838 0.46817 0.0
H172 H 0.65988 0.96267 0.74815 0.0
H173 H 0.66743 0.10042 0.75124 0.0
H174 H 0.68194 1.03275 0.82419 0.0
H175 H 0.63947 0.11964 0.82861 0.0
C176 C 0.65029 0.13067 0.80772 0.0
O177 O 0.68445 0.11594 0.80173 0.0
H178 H 0.61683 0.10897 0.79538 0.0
C179 C 0.66385 0.99226 0.76011 0.0
C180 C 0.66996 0.99027 0.78801 0.0
C181 C 0.6626 1.03117 0.74698 0.0
C182 C 0.66759 0.07034 0.76169 0.0
C183 C 0.67452 0.07266 0.78949 0.0
C184 C 0.67602 1.03192 0.80281 0.0
H185 H 0.76465 0.5625 0.08097 0.0
H186 H 0.62742 0.55658 0.08559 0.0
H187 H 0.70601 0.5574 0.15802 0.0
H188 H 0.61202 0.60634 0.11755 0.0
C189 C 0.6053 0.58786 0.13726 0.0
O190 O 0.62072 0.55285 0.13687 0.0
H191 H 0.62985 0.61613 0.1516 0.0
C192 C 0.73682 0.56143 0.09317 0.0
C193 C 0.74218 0.5596 0.12116 0.0
C194 C 0.6963 0.56076 0.08024 0.0
C195 C 0.65887 0.55798 0.09558 0.0
C196 C 0.66128 0.55813 0.12359 0.0
C197 C 0.70385 0.55911 0.1365 0.0
H198 H 0.28028 0.48667 0.14356 0.0
H199 H 0.35572 0.63371 0.17011 0.0
H200 H 0.35794 0.48886 0.13914 0.0
H201 H 0.43321 0.63593 0.16599 0.0
H202 H 0.5709 0.62252 0.17638 0.0
H203 H 0.49164 0.61503 0.18163 0.0
H204 H 0.43386 0.5144 0.11686 0.0
H205 H 0.51435 0.52263 0.11147 0.0
C206 C 0.3132 0.51971 0.14864 0.0
C207 C 0.30982 0.55991 0.15741 0.0
C208 C 0.35866 0.52109 0.14591 0.0
C209 C 0.40405 0.56254 0.1522 0.0
C210 C 0.40048 0.60262 0.1611 0.0
C211 C 0.35511 0.60148 0.16341 0.0
C212 C 0.54133 0.59758 0.16353 0.0
C213 C 0.55069 0.57208 0.14398 0.0
C214 C 0.49503 0.59387 0.16629 0.0
C215 C 0.45414 0.56427 0.14969 0.0
C216 C 0.46292 0.53753 0.13052 0.0
C217 C 0.50978 0.54182 0.12752 0.0
H218 H 0.79203 0.14642 0.47414 0.0
H219 H 0.72308 0.22831 0.49204 0.0
H220 H 0.86884 0.22065 0.4693 0.0
H221 H 0.80026 0.30359 0.48661 0.0
H222 H 0.95534 0.44316 0.48493 0.0
H223 H 0.8784 0.36883 0.49374 0.0
H224 H 0.92709 0.28726 0.45026 0.0
H225 H 1.00301 0.36025 0.44239 0.0
C226 C 0.79268 0.18022 0.47702 0.0
C227 C 0.7492 0.17922 0.48361 0.0
C228 C 0.83791 0.22414 0.47397 0.0
C229 C 0.84357 0.27099 0.47714 0.0
C230 C 0.79992 0.26994 0.48397 0.0
C231 C 0.75449 0.22575 0.48707 0.0
C232 C 0.95038 0.40929 0.47776 0.0
C233 C 0.9878 0.4097 0.46299 0.0
C234 C 0.90494 0.36568 0.48251 0.0
C235 C 0.89367 0.31928 0.47293 0.0
C236 C 0.93187 0.32013 0.45873 0.0
C237 C 0.97674 0.36331 0.45398 0.0
H238 H 0.75235 0.75893 0.82338 0.0
H239 H 0.59768 0.67857 0.81196 0.0
H240 H 0.75058 0.83467 0.81868 0.0
H241 H 0.59537 0.75368 0.8079 0.0
H242 H 0.5996 0.89485 0.77989 0.0
H243 H 0.60134 0.82038 0.7879 0.0
H244 H 0.74087 0.90028 0.8278 0.0
H245 H 0.73908 0.97568 0.81899 0.0
C246 C 0.71758 0.75687 0.82003 0.0
C247 C 0.67523 0.71071 0.81806 0.0
C248 C 0.71644 0.80131 0.81738 0.0
C249 C 0.67282 0.80294 0.81256 0.0
C250 C 0.63045 0.75647 0.81097 0.0
C251 C 0.63165 0.71217 0.81355 0.0
C252 C 0.63052 0.89701 0.79095 0.0
C253 C 0.66863 0.94309 0.79909 0.0
C254 C 0.63165 0.85317 0.79564 0.0
C255 C 0.67131 0.85162 0.80874 0.0
C256 C 0.70929 0.89778 0.81744 0.0
C257 C 0.70801 0.94197 0.81276 0.0
H258 H 0.98432 0.48759 0.13697 0.0
H259 H 1.05025 0.63076 0.16882 0.0
H260 H 0.90715 0.48575 0.13191 0.0
H261 H 0.97292 0.62991 0.16308 0.0
H262 H 0.81817 0.61534 0.15937 0.0
H263 H 0.89488 0.61554 0.16874 0.0
H264 H 0.84942 0.49834 0.11381 0.0
H265 H 0.77364 0.49753 0.10547 0.0
C266 C 0.9829 0.51925 0.14281 0.0
C267 C 1.02554 0.55939 0.15332 0.0
C268 C 0.93753 0.51843 0.13969 0.0
C269 C 0.93112 0.55789 0.14663 0.0
C270 C 0.97394 0.59804 0.15739 0.0
C271 C 1.01943 0.59872 0.16065 0.0
C272 C 0.8238 0.58865 0.14979 0.0
C273 C 0.78745 0.55592 0.13174 0.0
C274 C 0.86907 0.58918 0.15487 0.0
C275 C 0.8811 0.55701 0.14224 0.0
C276 C 0.8439 0.5238 0.12472 0.0
C277 C 0.79916 0.52334 0.11973 0.0
H278 H 0.49528 0.85075 0.49824 0.0
H279 H 0.41955 0.92412 0.46998 0.0
H280 H 0.41978 0.77339 0.49556 0.0
H281 H 0.34363 0.84621 0.46678 0.0
H282 H 0.21839 0.68481 0.44189 0.0
H283 H 0.29066 0.76607 0.44528 0.0
H284 H 0.34273 0.71856 0.51336 0.0
H285 H 0.27099 0.63886 0.51022 0.0
C286 C 0.46271 0.85095 0.49139 0.0
C287 C 0.46547 0.89572 0.48452 0.0
C288 C 0.41834 0.80561 0.48993 0.0
C289 C 0.37333 0.80129 0.48097 0.0
C290 C 0.37619 0.84608 0.4737 0.0
C291 C 0.42055 0.89169 0.47569 0.0
C292 C 0.2442 0.69189 0.45823 0.0
C293 C 0.23599 0.65369 0.47634 0.0
C294 C 0.28678 0.73919 0.46007 0.0
C295 C 0.32485 0.75102 0.47958 0.0
C296 C 0.3161 0.71281 0.4977 0.0
C297 C 0.27352 0.66624 0.49614 0.0
H298 H 0.75311 0.45544 0.8206 0.0
H299 H 0.59836 0.38241 0.80922 0.0
H300 H 0.75156 0.37783 0.81732 0.0
H301 H 0.59672 0.30539 0.80563 0.0
H302 H 0.60303 0.17179 0.77872 0.0
H303 H 0.61026 0.2513 0.78091 0.0
H304 H 0.73333 0.29767 0.83493 0.0
H305 H 0.72536 0.21681 0.8329 0.0
C306 C 0.71848 0.42314 0.81734 0.0
C307 C 0.67588 0.42713 0.81523 0.0
C308 C 0.71752 0.3777 0.81554 0.0
C309 C 0.67399 0.33315 0.81095 0.0
C310 C 0.63156 0.33746 0.80875 0.0
C311 C 0.63244 0.38259 0.81101 0.0
C312 C 0.63269 0.19891 0.79066 0.0
C313 C 0.66438 0.18622 0.80488 0.0
C314 C 0.6364 0.24534 0.79232 0.0
C315 C 0.67226 0.28312 0.80835 0.0
C316 C 0.7051 0.27113 0.82207 0.0
C317 C 0.70087 0.22406 0.82069 0.0
H318 H 0.83007 0.94694 0.5654 0.0
H319 H 0.88065 0.96473 0.4852 0.0
H320 H 0.87506 0.90636 0.57811 0.0
H321 H 0.92849 0.92689 0.49833 0.0
H322 H 0.88066 0.76441 0.5142 0.0
H323 H 0.89003 0.84229 0.50378 0.0
H324 H 0.93831 0.88765 0.58494 0.0
H325 H 0.92887 0.80828 0.59553 0.0
C326 C 0.85241 0.94387 0.55075 0.0
C327 C 0.85007 0.957 0.52404 0.0
C328 C 0.87889 0.92112 0.55812 0.0
C329 C 0.90397 0.91162 0.53894 0.0
C330 C 0.90816 0.93219 0.51335 0.0
C331 C 0.88104 0.95434 0.50587 0.0
C332 C 0.89534 0.79138 0.52968 0.0
C333 C 0.90313 0.77959 0.55588 0.0
C334 C 0.90091 0.8366 0.52362 0.0
C335 C 0.91421 0.87129 0.54362 0.0
C336 C 0.92704 0.86139 0.56919 0.0
C337 C 0.92147 0.81589 0.57528 0.0
H338 H 1.04511 0.72918 0.79973 0.0
H339 H 1.0034 0.61156 0.85614 0.0
H340 H 0.13015 0.75538 0.80951 0.0
H341 H 1.0884 0.63881 0.86664 0.0
H342 H 0.24342 0.68278 0.8748 0.0
H343 H 0.16543 0.65108 0.85087 0.0
H344 H 0.18182 0.79381 0.84871 0.0
H345 H 0.25964 0.82533 0.87242 0.0
C346 C 1.05407 0.70835 0.81384 0.0
C347 C 1.01754 0.66846 0.82732 0.0
C348 C 0.10279 0.72366 0.8196 0.0
C349 C 0.11601 0.69938 0.83894 0.0
C350 C 1.07945 0.65804 0.85143 0.0
C351 C 1.03074 0.64276 0.84568 0.0
C352 C 0.2307 0.70745 0.86866 0.0
C353 C 0.25719 0.75636 0.87574 0.0
C354 C 0.18607 0.68932 0.85506 0.0
C355 C 0.16714 0.71978 0.84829 0.0
C356 C 0.19553 0.76943 0.85347 0.0
C357 C 0.24019 0.78757 0.86705 0.0
H358 H 0.2085 0.87374 0.21535 0.0
H359 H 0.26735 0.90497 0.13672 0.0
H360 H 0.23773 0.95923 0.22194 0.0
H361 H 0.29927 0.99016 0.14378 0.0
H362 H 0.38154 0.13852 0.15983 0.0
H363 H 0.305 1.06399 0.15244 0.0
H364 H 0.3181 1.01629 0.23224 0.0
H365 H 0.39244 0.09162 0.23979 0.0
C366 C 0.22633 0.89866 0.19912 0.0
C367 C 0.23712 0.88291 0.17585 0.0
C368 C 0.24358 0.94782 0.20301 0.0
C369 C 0.27251 0.98203 0.18386 0.0
C370 C 0.27747 0.96534 0.15917 0.0
C371 C 0.25972 0.91629 0.15519 0.0
C372 C 0.36646 0.11302 0.17616 0.0
C373 C 0.39284 0.1204 0.2003 0.0
C374 C 0.32293 0.07005 0.17187 0.0
C375 C 0.306 1.03321 0.19137 0.0
C376 C 0.32956 1.04349 0.21665 0.0
C377 C 0.37254 0.08673 0.22105 0.0
H378 H 0.62055 0.32804 0.44685 0.0
H379 H 0.6054 0.32093 0.53218 0.0
H380 H 0.67521 0.41501 0.44963 0.0
H381 H 0.6598 0.40755 0.53494 0.0
H382 H 0.74206 0.5716 0.52881 0.0
H383 H 0.67481 0.48893 0.52317 0.0
H384 H 0.75858 0.46137 0.46783 0.0
H385 H 0.8251 0.54392 0.47331 0.0
C386 C 0.62835 0.34517 0.46612 0.0
C387 C 0.60907 0.31762 0.48931 0.0
C388 C 0.65968 0.39486 0.46773 0.0
C389 C 0.67231 0.41792 0.49255 0.0
C390 C 0.6505 0.39088 0.5155 0.0
C391 C 0.6192 0.34121 0.5139 0.0
C392 C 0.74564 0.5477 0.51536 0.0
C393 C 0.78825 0.56384 0.50129 0.0
C394 C 0.70739 0.50057 0.51215 0.0
C395 C 0.71126 0.46887 0.49485 0.0
C396 C 0.75409 0.48526 0.48084 0.0
C397 C 0.79229 0.53227 0.48412 0.0
H398 H 0.3924 0.60127 0.84219 0.0
H399 H 0.53457 0.66381 0.88021 0.0
H400 H 0.38718 0.67236 0.85399 0.0
H401 H 0.52951 0.73445 0.89182 0.0
H402 H 0.48872 0.83708 0.92865 0.0
H403 H 0.48745 0.76145 0.91986 0.0
H404 H 0.42513 0.75741 0.84126 0.0
H405 H 0.42556 0.83241 0.85049 0.0
C406 C 0.42236 0.63005 0.85316 0.0
C407 C 0.46368 0.62672 0.86047 0.0
C408 C 0.41948 0.67078 0.85985 0.0
C409 C 0.45794 0.70903 0.87387 0.0
C410 C 0.49887 0.70527 0.88147 0.0
C411 C 0.50171 0.66467 0.87485 0.0
C412 C 0.47518 0.82001 0.90947 0.0
C413 C 0.45835 0.84086 0.88998 0.0
C414 C 0.47435 0.77682 0.90442 0.0
C415 C 0.45646 0.75357 0.87979 0.0
C416 C 0.43876 0.77415 0.8605 0.0
C417 C 0.43957 0.81732 0.8656 0.0
H418 H 0.87095 0.23143 0.136 0.0
H419 H 0.88146 0.36322 0.16381 0.0
H420 H 0.78392 0.18894 0.14313 0.0
H421 H 0.7955 0.32057 0.17222 0.0
H422 H 0.6354 0.24108 0.17486 0.0
H423 H 0.71438 0.27977 0.15446 0.0
H424 H 0.73604 0.16223 0.182 0.0
H425 H 0.65636 0.12252 0.201 0.0
C426 C 0.85459 0.25139 0.14338 0.0
C427 C 0.88312 0.30041 0.1498 0.0
C428 C 0.80486 0.22701 0.14767 0.0
C429 C 0.7828 0.25123 0.1585 0.0
C430 C 0.81109 0.30082 0.16365 0.0
C431 C 0.86059 0.32514 0.15925 0.0
C432 C 0.65661 0.22304 0.176 0.0
C433 C 0.64002 0.17916 0.18992 0.0
C434 C 0.70203 0.24539 0.16453 0.0
C435 C 0.73179 0.22438 0.16686 0.0
C436 C 0.71402 0.1793 0.17962 0.0
C437 C 0.66861 0.15688 0.19091 0.0
H438 H 0.22756 0.55844 0.07425 0.0
H439 H 0.19186 0.67003 0.0879 0.0
H440 H 0.2688 0.60043 0.03379 0.0
H441 H 0.23196 0.71119 0.04739 0.0
H442 H 0.28623 0.66551 0.94774 0.0
H443 H 0.25313 0.62165 0.98912 0.0
H444 H 0.31297 0.75684 0.03085 0.0
H445 H 0.34409 0.80064 0.98929 0.0
C446 C 0.22792 0.59153 0.06844 0.0
C447 C 0.20651 0.61094 0.08431 0.0
C448 C 0.25163 0.61563 0.04529 0.0
C449 C 0.25432 0.65955 0.03758 0.0
C450 C 0.23169 0.67811 0.05312 0.0
C451 C 0.20818 0.65418 0.07621 0.0
C452 C 0.29271 0.68581 0.96583 0.0
C453 C 0.31719 0.73655 0.96517 0.0
C454 C 0.27403 0.66067 0.98958 0.0
C455 C 0.27961 0.68577 0.01318 0.0
C456 C 0.30708 0.73646 0.01286 0.0
C457 C 0.3256 0.76159 0.98911 0.0
H458 H 0.59815 0.12503 0.41163 0.0
H459 H 0.58048 0.98491 0.3951 0.0
H460 H 0.58052 0.13436 0.36522 0.0
H461 H 0.56197 0.99418 0.3482 0.0
H462 H 0.59246 1.06391 0.26247 0.0
H463 H 0.60193 1.04362 0.30867 0.0
H464 H 0.51251 0.10129 0.33336 0.0
H465 H 0.50466 0.12333 0.28736 0.0
C466 C 0.59039 0.09605 0.3981 0.0
C467 C 0.59068 1.05413 0.40712 0.0
C468 C 0.57979 0.10127 0.37146 0.0
C469 C 0.56913 1.06473 0.35308 0.0
C470 C 0.57009 1.023 0.36192 0.0
C471 C 0.58068 1.01769 0.38874 0.0
C472 C 0.57467 0.07208 0.27777 0.0
C473 C 0.54844 0.09594 0.2713 0.0
C474 C 0.57969 1.05997 0.3042 0.0
C475 C 0.55855 0.07146 0.32471 0.0
C476 C 0.53001 0.09278 0.31804 0.0
C477 C 0.52502 0.10491 0.29164 0.0
H478 H 0.66045 0.50596 0.73097 0.0
H479 H 0.70873 0.65772 0.73825 0.0
H480 H 0.69385 0.52107 0.6861 0.0
H481 H 0.74129 0.67254 0.69391 0.0
H482 H 0.86133 0.6922 0.64107 0.0
H483 H 0.81465 0.66711 0.68126 0.0
H484 H 0.69254 0.55551 0.63751 0.0
H485 H 0.73939 0.58127 0.5967 0.0
C486 C 0.67674 0.54212 0.72266 0.0
C487 C 0.68263 0.58079 0.73814 0.0
C488 C 0.69597 0.55079 0.6971 0.0
C489 C 0.72116 0.59817 0.68686 0.0
C490 C 0.7231 0.63586 0.70155 0.0
C491 C 0.70421 0.62731 0.72688 0.0
C492 C 0.82449 0.66243 0.63989 0.0
C493 C 0.80388 0.6393 0.61557 0.0
C494 C 0.79774 0.64803 0.66293 0.0
C495 C 0.74966 0.60994 0.66238 0.0
C496 C 0.7295 0.58507 0.63843 0.0
C497 C 0.75637 0.59975 0.61515 0.0
H498 H 0.66209 0.98859 0.57448 0.0
H499 H 0.59351 0.07489 0.58166 0.0
H500 H 0.67127 0.98665 0.62288 0.0
H501 H 0.60548 0.07612 0.62966 0.0
H502 H 0.59279 1.03858 0.71727 0.0
H503 H 0.58152 1.03653 0.66899 0.0
H504 H 0.71009 1.02459 0.66145 0.0
H505 H 0.71876 1.02327 0.70987 0.0
C506 C 0.64947 1.00764 0.58642 0.0
C507 C 0.62673 1.03155 0.57416 0.0
C508 C 0.65504 1.00692 0.61431 0.0
C509 C 0.63905 1.0311 0.63076 0.0
C510 C 0.61717 1.0558 0.61819 0.0
C511 C 0.6106 1.0555 0.59043 0.0
C512 C 0.61848 1.03543 0.70518 0.0
C513 C 0.65659 1.03106 0.71735 0.0
C514 C 0.61239 1.03465 0.67734 0.0
C515 C 0.645 1.03071 0.66073 0.0
C516 C 0.68345 1.0267 0.67316 0.0
C517 C 0.6888 1.02635 0.70103 0.0
H518 H 0.75547 0.57803 0.91035 0.0
H519 H 0.60963 0.5542 0.91064 0.0
H520 H 0.75812 0.57603 0.95879 0.0
H521 H 0.61273 0.55354 0.95928 0.0
H522 H 0.61733 0.50763 0.0467 0.0
H523 H 0.61297 0.50909 -0.00192 0.0
H524 H 0.76354 0.6197 -0.00285 0.0
H525 H 0.76789 0.6177 0.04564 0.0
C526 C 0.72396 0.57263 0.9207 0.0
C527 C 0.68233 0.56631 0.90634 0.0
C528 C 0.7256 0.57181 0.94867 0.0
C529 C 0.68575 0.56484 0.96331 0.0
C530 C 0.64401 0.55839 0.94892 0.0
C531 C 0.64232 0.55906 0.92089 0.0
C532 C 0.64943 0.53255 0.03614 0.0
C533 C 0.69304 0.56237 0.05029 0.0
C534 C 0.64693 0.53347 0.00813 0.0
C535 C 0.68794 0.56437 0.99334 0.0
C536 C 0.73135 0.59461 0.00758 0.0
C537 C 0.73388 0.59355 0.03554 0.0
H538 H 1.07172 0.45622 0.2383 0.0
H539 H 0.20727 0.58461 0.25712 0.0
H540 H 1.05374 0.44382 0.2858 0.0
H541 H 0.18897 0.57312 0.30398 0.0
H542 H 0.16735 0.52207 0.38906 0.0
H543 H 0.18302 0.52561 0.34184 0.0
H544 H 1.03197 0.47512 0.32286 0.0
H545 H 1.01622 0.47082 0.37045 0.0
C546 C 1.0978 0.48167 0.25251 0.0
C547 C 0.1411 0.52131 0.24371 0.0
C548 C 1.0873 0.4748 0.27979 0.0
C549 C 0.11987 0.50733 0.29902 0.0
C550 C 0.16325 0.54664 0.29007 0.0
C551 C 0.1737 0.55344 0.26297 0.0
C552 C 0.1374 0.51179 0.37485 0.0
C553 C 1.09058 0.49667 0.3837 0.0
C554 C 0.14642 0.51392 0.34763 0.0
C555 C 0.10898 0.50129 0.32821 0.0
C556 C 1.06177 0.48479 0.33707 0.0
C557 C 1.05269 0.48241 0.36443 0.0
loop_
_geom_bond_atom_site_label_1
_geom_bond_atom_site_label_2
_geom_bond_distance
_geom_bond_site_symmetry_2
_ccdc_geom_bond_type
Eu0 C9 2.828 . S
Eu0 O11 2.392 1_655 S
Eu0 O13 2.418 . S
Eu0 O18 2.373 . S
Eu0 O21 2.488 . S
Eu0 O22 2.471 . S
Eu0 O23 2.349 1_655 S
Eu1 O10 2.373 . S
Eu1 O14 2.488 . S
Eu1 O15 2.471 . S
Eu1 O16 2.349 . S
Eu1 O19 2.392 1_455 S
Eu1 O20 2.418 . S
Eu1 C30 2.828 . S
C2 O20 1.244 . S
C2 O23 1.265 . S
C3 C4 1.379 . S
C3 C7 1.373 . S
C3 C9 1.505 . S
C4 C3 1.379 . S
C4 C6 1.369 . S
C4 H32 0.930 . S
C5 C7 1.383 . S
C5 C8 1.382 . S
C5 H33 0.930 . S
C6 C4 1.369 . S
C6 C8 1.392 . S
C6 H34 0.930 . S
C7 C3 1.373 . S
C7 C5 1.383 . S
C7 H35 0.931 . S
C8 C5 1.382 . S
C8 C6 1.392 . S
C9 Eu0 2.828 . S
C9 C3 1.505 . S
C9 O21 1.249 . S
C9 O22 1.244 . S
O10 Eu1 2.373 . S
O10 C12 1.258 . S
O11 Eu0 2.392 1_455 S
O11 C12 1.242 . S
C12 O10 1.258 . S
C12 O11 1.242 . S
O13 Eu0 2.418 . S
O13 C17 1.244 1_655 S
O14 Eu1 2.488 . S
O14 C30 1.249 . S
O15 Eu1 2.471 . S
O15 C30 1.244 . S
O16 Eu1 2.349 . S
O16 C17 1.265 . S
C17 O13 1.244 1_455 S
C17 O16 1.265 . S
O18 Eu0 2.373 . S
O18 C31 1.258 . S
O19 Eu1 2.392 1_655 S
O19 C31 1.242 . S
O20 Eu1 2.418 . S
O20 C2 1.244 . S
O21 Eu0 2.488 . S
O21 C9 1.249 . S
O22 Eu0 2.471 . S
O22 C9 1.244 . S
O23 Eu0 2.349 1_455 S
O23 C2 1.265 . S
C24 C25 1.379 . S
C24 C28 1.373 . S
C24 C30 1.505 . S
C25 C24 1.379 . S
C25 C27 1.369 . S
C25 H36 0.930 . S
C26 C28 1.383 . S
C26 C29 1.382 . S
C26 H37 0.930 . S
C27 C25 1.369 . S
C27 C29 1.392 . S
C27 H38 0.930 . S
C28 C24 1.373 . S
C28 C26 1.383 . S
C28 H39 0.931 . S
C29 C26 1.382 . S
C29 C27 1.392 . S
C30 Eu1 2.828 . S
C30 O14 1.249 . S
C30 O15 1.244 . S
C30 C24 1.505 . S
C31 O18 1.258 . S
C31 O19 1.242 . S
H32 C4 0.930 . S
H33 C5 0.930 . S
H34 C6 0.930 . S
H35 C7 0.931 . S
H36 C25 0.930 . S
H37 C26 0.930 . S
H38 C27 0.930 . S
H39 C28 0.931 . S
Eu40 C49 2.828 . S
Eu40 O51 2.392 1_565 S
Eu40 O53 2.418 1_565 S
Eu40 O58 2.373 . S
Eu40 O61 2.488 . S
Eu40 O62 2.471 . S
Eu40 O63 2.349 1_565 S
Eu41 O50 2.373 . S
Eu41 O54 2.488 . S
Eu41 O55 2.471 . S
Eu41 O56 2.349 . S
Eu41 O59 2.392 1_545 S
Eu41 O60 2.418 . S
Eu41 C70 2.828 . S
C42 O60 1.244 . S
C42 O63 1.265 . S
C43 C44 1.379 . S
C43 C47 1.373 . S
C43 C49 1.505 . S
C44 C43 1.379 . S
C44 C46 1.369 . S
C44 H72 0.930 . S
C45 C47 1.383 . S
C45 C48 1.382 . S
C45 H73 0.930 . S
C46 C44 1.369 . S
C46 C48 1.392 . S
C46 H74 0.930 . S
C47 C43 1.373 . S
C47 C45 1.383 . S
C47 H75 0.931 . S
C48 C45 1.382 . S
C48 C46 1.392 . S
C49 Eu40 2.828 . S
C49 C43 1.505 . S
C49 O61 1.249 . S
C49 O62 1.244 . S
O50 Eu41 2.373 . S
O50 C52 1.258 . S
O51 Eu40 2.392 1_545 S
O51 C52 1.242 . S
C52 O50 1.258 . S
C52 O51 1.242 . S
O53 Eu40 2.418 1_545 S
O53 C57 1.244 . S
O54 Eu41 2.488 . S
O54 C70 1.249 . S
O55 Eu41 2.471 . S
O55 C70 1.244 . S
O56 Eu41 2.349 . S
O56 C57 1.265 . S
C57 O53 1.244 . S
C57 O56 1.265 . S
O58 Eu40 2.373 . S
O58 C71 1.258 . S
O59 Eu41 2.392 1_565 S
O59 C71 1.242 . S
O60 Eu41 2.418 . S
O60 C42 1.244 . S
O61 Eu40 2.488 . S
O61 C49 1.249 . S
O62 Eu40 2.471 . S
O62 C49 1.244 . S
O63 Eu40 2.349 1_545 S
O63 C42 1.265 . S
C64 C65 1.379 . S
C64 C68 1.373 . S
C64 C70 1.505 . S
C65 C64 1.379 . S
C65 C67 1.369 . S
C65 H76 0.930 . S
C66 C68 1.383 . S
C66 C69 1.382 . S
C66 H77 0.930 . S
C67 C65 1.369 . S
C67 C69 1.392 . S
C67 H78 0.930 . S
C68 C64 1.373 . S
C68 C66 1.383 . S
C68 H79 0.931 . S
C69 C66 1.382 . S
C69 C67 1.392 . S
C70 Eu41 2.828 . S
C70 O54 1.249 . S
C70 O55 1.244 . S
C70 C64 1.505 . S
C71 O58 1.258 . S
C71 O59 1.242 . S
H72 C44 0.930 . S
H73 C45 0.930 . S
H74 C46 0.930 . S
H75 C47 0.931 . S
H76 C65 0.930 . S
H77 C66 0.930 . S
H78 C67 0.930 . S
H79 C68 0.931 . S
Eu80 C89 2.828 . S
Eu80 O91 2.392 . S
Eu80 O93 2.418 . S
Eu80 O98 2.373 . S
Eu80 O101 2.488 . S
Eu80 O102 2.471 . S
Eu80 O103 2.349 . S
Eu81 O90 2.373 . S
Eu81 O94 2.488 . S
Eu81 O95 2.471 . S
Eu81 O96 2.349 . S
Eu81 O99 2.392 . S
Eu81 O100 2.418 . S
Eu81 C110 2.828 . S
C82 O100 1.244 . S
C82 O103 1.265 . S
C83 C84 1.379 . S
C83 C87 1.373 . S
C83 C89 1.505 . S
C84 C83 1.379 . S
C84 C86 1.369 . S
C84 H112 0.930 . S
C85 C87 1.383 . S
C85 C88 1.382 . S
C85 H113 0.930 . S
C86 C84 1.369 . S
C86 C88 1.392 . S
C86 H114 0.930 . S
C87 C83 1.373 . S
C87 C85 1.383 . S
C87 H115 0.931 . S
C88 C85 1.382 . S
C88 C86 1.392 . S
C89 Eu80 2.828 . S
C89 C83 1.505 . S
C89 O101 1.249 . S
C89 O102 1.244 . S
O90 Eu81 2.373 . S
O90 C92 1.258 . S
O91 Eu80 2.392 . S
O91 C92 1.242 . S
C92 O90 1.258 . S
C92 O91 1.242 . S
O93 Eu80 2.418 . S
O93 C97 1.244 . S
O94 Eu81 2.488 . S
O94 C110 1.249 . S
O95 Eu81 2.471 . S
O95 C110 1.244 . S
O96 Eu81 2.349 . S
O96 C97 1.265 . S
C97 O93 1.244 . S
C97 O96 1.265 . S
O98 Eu80 2.373 . S
O98 C111 1.258 . S
O99 Eu81 2.392 . S
O99 C111 1.242 . S
O100 Eu81 2.418 . S
O100 C82 1.244 . S
O101 Eu80 2.488 . S
O101 C89 1.249 . S
O102 Eu80 2.471 . S
O102 C89 1.244 . S
O103 Eu80 2.349 . S
O103 C82 1.265 . S
C104 C105 1.379 . S
C104 C108 1.373 . S
C104 C110 1.505 . S
C105 C104 1.379 . S
C105 C107 1.369 . S
C105 H116 0.930 . S
C106 C108 1.383 . S
C106 C109 1.382 . S
C106 H117 0.930 . S
C107 C105 1.369 . S
C107 C109 1.392 . S
C107 H118 0.930 . S
C108 C104 1.373 . S
C108 C106 1.383 . S
C108 H119 0.931 . S
C109 C106 1.382 . S
C109 C107 1.392 . S
C110 Eu81 2.828 . S
C110 O94 1.249 . S
C110 O95 1.244 . S
C110 C104 1.505 . S
C111 O98 1.258 . S
C111 O99 1.242 . S
H112 C84 0.930 . S
H113 C85 0.930 . S
H114 C86 0.930 . S
H115 C87 0.931 . S
H116 C105 0.930 . S
H117 C106 0.930 . S
H118 C107 0.930 . S
H119 C108 0.931 . S
H120 C127 0.929 . S
H121 C130 0.930 1_565 S
H122 C132 0.929 . S
H123 C124 0.969 . S
C124 H123 0.969 . S
C124 O125 1.550 . S
C124 H126 0.973 . S
O125 C124 1.550 . S
O125 C131 1.412 1_565 S
H126 C124 0.973 . S
C127 H120 0.929 . S
C127 C128 1.400 . S
C127 C129 1.364 . S
C128 C127 1.400 . S
C128 C132 1.377 . S
C129 C127 1.364 . S
C129 C130 1.374 . S
C130 H121 0.930 1_545 S
C130 C129 1.374 . S
C130 C131 1.383 . S
C131 O125 1.412 1_545 S
C131 C130 1.383 . S
C131 C132 1.394 . S
C132 H122 0.929 . S
C132 C128 1.377 . S
C132 C131 1.394 . S
H133 C140 0.929 . S
H134 C143 0.930 . S
H135 C145 0.929 . S
H136 C137 0.969 . S
C137 H136 0.969 . S
C137 O138 1.550 . S
C137 H139 0.973 . S
O138 C137 1.550 . S
O138 C144 1.412 . S
H139 C137 0.973 . S
C140 H133 0.929 . S
C140 C141 1.400 . S
C140 C142 1.364 . S
C141 C140 1.400 . S
C141 C145 1.377 . S
C142 C140 1.364 . S
C142 C143 1.374 . S
C143 H134 0.930 . S
C143 C142 1.374 . S
C143 C144 1.383 . S
C144 O138 1.412 . S
C144 C143 1.383 . S
C144 C145 1.394 . S
C145 H135 0.929 . S
C145 C141 1.377 . S
C145 C144 1.394 . S
H146 C153 0.929 . S
H147 C156 0.930 . S
H148 C158 0.929 . S
H149 C150 0.969 . S
C150 H149 0.969 . S
C150 O151 1.550 . S
C150 H152 0.973 . S
O151 C150 1.550 . S
O151 C157 1.412 . S
H152 C150 0.973 . S
C153 H146 0.929 . S
C153 C154 1.400 . S
C153 C155 1.364 . S
C154 C153 1.400 . S
C154 C158 1.377 . S
C155 C153 1.364 . S
C155 C156 1.374 . S
C156 H147 0.930 . S
C156 C155 1.374 . S
C156 C157 1.383 . S
C157 O151 1.412 . S
C157 C156 1.383 . S
C157 C158 1.394 . S
C158 H148 0.929 . S
C158 C154 1.377 . S
C158 C157 1.394 . S
H159 C166 0.929 . S
H160 C169 0.930 . S
H161 C171 0.929 . S
H162 C163 0.969 . S
C163 H162 0.969 . S
C163 O164 1.550 . S
C163 H165 0.973 . S
O164 C163 1.550 . S
O164 C170 1.412 . S
H165 C163 0.973 . S
C166 H159 0.929 . S
C166 C167 1.400 . S
C166 C168 1.364 . S
C167 C166 1.400 . S
C167 C171 1.377 . S
C168 C166 1.364 . S
C168 C169 1.374 . S
C169 H160 0.930 . S
C169 C168 1.374 . S
C169 C170 1.383 . S
C170 O164 1.412 . S
C170 C169 1.383 . S
C170 C171 1.394 . S
C171 H161 0.929 . S
C171 C167 1.377 . S
C171 C170 1.394 . S
H172 C179 0.907 1_565 S
H173 C182 0.930 . S
H174 C184 0.929 . S
H175 C176 0.969 . S
C176 H175 0.969 . S
C176 O177 1.550 . S
C176 H178 0.973 . S
O177 C176 1.550 . S
O177 C183 1.412 . S
H178 C176 0.973 . S
C179 H172 0.907 1_545 S
C179 C180 1.398 1_545 S
C179 C181 1.388 . S
C180 C179 1.398 1_565 S
C180 C184 1.377 1_565 S
C181 C179 1.388 . S
C181 C182 1.374 . S
C182 H173 0.930 . S
C182 C181 1.374 . S
C182 C183 1.383 . S
C183 O177 1.412 . S
C183 C182 1.383 . S
C183 C184 1.394 . S
C184 H174 0.929 . S
C184 C180 1.377 1_545 S
C184 C183 1.394 . S
H185 C192 0.929 . S
H186 C195 0.930 . S
H187 C197 0.929 . S
H188 C189 0.969 . S
C189 H188 0.969 . S
C189 O190 1.550 . S
C189 H191 0.973 . S
O190 C189 1.550 . S
O190 C196 1.412 . S
H191 C189 0.973 . S
C192 H185 0.929 . S
C192 C193 1.400 . S
C192 C194 1.364 . S
C193 C192 1.400 . S
C193 C197 1.377 . S
C194 C192 1.364 . S
C194 C195 1.374 . S
C195 H186 0.930 . S
C195 C194 1.374 . S
C195 C196 1.383 . S
C196 O190 1.412 . S
C196 C195 1.383 . S
C196 C197 1.394 . S
C197 H187 0.929 . S
C197 C193 1.377 . S
C197 C196 1.394 . S
H198 C206 0.950 . S
H199 C211 0.950 . S
H200 C208 0.950 . S
H201 C210 0.950 . S
H202 C212 0.950 . S
H203 C214 0.950 . S
H204 C216 0.950 . S
H205 C217 0.950 . S
C206 H198 0.950 . S
C206 C207 1.386 . S
C206 C208 1.391 . S
C207 C206 1.386 . S
C207 C211 1.393 . S
C208 H200 0.950 . S
C208 C206 1.391 . S
C208 C209 1.400 . S
C209 C208 1.400 . S
C209 C210 1.398 . S
C209 C215 1.491 . S
C210 H201 0.950 . S
C210 C209 1.398 . S
C210 C211 1.391 . S
C211 H199 0.950 . S
C211 C207 1.393 . S
C211 C210 1.391 . S
C212 H202 0.950 . S
C212 C213 1.386 . S
C212 C214 1.391 . S
C213 C212 1.386 . S
C213 C217 1.393 . S
C214 H203 0.950 . S
C214 C212 1.391 . S
C214 C215 1.400 . S
C215 C209 1.491 . S
C215 C214 1.400 . S
C215 C216 1.398 . S
C216 H204 0.950 . S
C216 C215 1.398 . S
C216 C217 1.391 . S
C217 H205 0.950 . S
C217 C213 1.393 . S
C217 C216 1.391 . S
H218 C226 0.950 . S
H219 C231 0.950 . S
H220 C228 0.950 . S
H221 C230 0.950 . S
H222 C232 0.950 . S
H223 C234 0.950 . S
H224 C236 0.950 . S
H225 C237 0.950 . S
C226 H218 0.950 . S
C226 C227 1.386 . S
C226 C228 1.391 . S
C227 C226 1.386 . S
C227 C231 1.393 . S
C228 H220 0.950 . S
C228 C226 1.391 . S
C228 C229 1.400 . S
C229 C228 1.400 . S
C229 C230 1.398 . S
C229 C235 1.491 . S
C230 H221 0.950 . S
C230 C229 1.398 . S
C230 C231 1.391 . S
C231 H219 0.950 . S
C231 C227 1.393 . S
C231 C230 1.391 . S
C232 H222 0.950 . S
C232 C233 1.386 . S
C232 C234 1.391 . S
C233 C232 1.386 . S
C233 C237 1.393 . S
C234 H223 0.950 . S
C234 C232 1.391 . S
C234 C235 1.400 . S
C235 C229 1.491 . S
C235 C234 1.400 . S
C235 C236 1.398 . S
C236 H224 0.950 . S
C236 C235 1.398 . S
C236 C237 1.391 . S
C237 H225 0.950 . S
C237 C233 1.393 . S
C237 C236 1.391 . S
H238 C246 0.950 . S
H239 C251 0.950 . S
H240 C248 0.950 . S
H241 C250 0.950 . S
H242 C252 0.950 . S
H243 C254 0.950 . S
H244 C256 0.950 . S
H245 C257 0.950 . S
C246 H238 0.950 . S
C246 C247 1.386 . S
C246 C248 1.391 . S
C247 C246 1.386 . S
C247 C251 1.393 . S
C248 H240 0.950 . S
C248 C246 1.391 . S
C248 C249 1.400 . S
C249 C248 1.400 . S
C249 C250 1.398 . S
C249 C255 1.491 . S
C250 H241 0.950 . S
C250 C249 1.398 . S
C250 C251 1.391 . S
C251 H239 0.950 . S
C251 C247 1.393 . S
C251 C250 1.391 . S
C252 H242 0.950 . S
C252 C253 1.386 . S
C252 C254 1.391 . S
C253 C252 1.386 . S
C253 C257 1.393 . S
C254 H243 0.950 . S
C254 C252 1.391 . S
C254 C255 1.400 . S
C255 C249 1.491 . S
C255 C254 1.400 . S
C255 C256 1.398 . S
C256 H244 0.950 . S
C256 C255 1.398 . S
C256 C257 1.391 . S
C257 H245 0.950 . S
C257 C253 1.393 . S
C257 C256 1.391 . S
H258 C266 0.950 . S
H259 C271 0.950 . S
H260 C268 0.950 . S
H261 C270 0.950 . S
H262 C272 0.950 . S
H263 C274 0.950 . S
H264 C276 0.950 . S
H265 C277 0.950 . S
C266 H258 0.950 . S
C266 C267 1.386 . S
C266 C268 1.391 . S
C267 C266 1.386 . S
C267 C271 1.393 . S
C268 H260 0.950 . S
C268 C266 1.391 . S
C268 C269 1.400 . S
C269 C268 1.400 . S
C269 C270 1.398 . S
C269 C275 1.491 . S
C270 H261 0.950 . S
C270 C269 1.398 . S
C270 C271 1.391 . S
C271 H259 0.950 . S
C271 C267 1.393 . S
C271 C270 1.391 . S
C272 H262 0.950 . S
C272 C273 1.386 . S
C272 C274 1.391 . S
C273 C272 1.386 . S
C273 C277 1.393 . S
C274 H263 0.950 . S
C274 C272 1.391 . S
C274 C275 1.400 . S
C275 C269 1.491 . S
C275 C274 1.400 . S
C275 C276 1.398 . S
C276 H264 0.950 . S
C276 C275 1.398 . S
C276 C277 1.391 . S
C277 H265 0.950 . S
C277 C273 1.393 . S
C277 C276 1.391 . S
H278 C286 0.950 . S
H279 C291 0.950 . S
H280 C288 0.950 . S
H281 C290 0.950 . S
H282 C292 0.950 . S
H283 C294 0.950 . S
H284 C296 0.950 . S
H285 C297 0.950 . S
C286 H278 0.950 . S
C286 C287 1.386 . S
C286 C288 1.391 . S
C287 C286 1.386 . S
C287 C291 1.393 . S
C288 H280 0.950 . S
C288 C286 1.391 . S
C288 C289 1.400 . S
C289 C288 1.400 . S
C289 C290 1.398 . S
C289 C295 1.491 . S
C290 H281 0.950 . S
C290 C289 1.398 . S
C290 C291 1.391 . S
C291 H279 0.950 . S
C291 C287 1.393 . S
C291 C290 1.391 . S
C292 H282 0.950 . S
C292 C293 1.386 . S
C292 C294 1.391 . S
C293 C292 1.386 . S
C293 C297 1.393 . S
C294 H283 0.950 . S
C294 C292 1.391 . S
C294 C295 1.400 . S
C295 C289 1.491 . S
C295 C294 1.400 . S
C295 C296 1.398 . S
C296 H284 0.950 . S
C296 C295 1.398 . S
C296 C297 1.391 . S
C297 H285 0.950 . S
C297 C293 1.393 . S
C297 C296 1.391 . S
H298 C306 0.950 . S
H299 C311 0.950 . S
H300 C308 0.950 . S
H301 C310 0.950 . S
H302 C312 0.950 . S
H303 C314 0.950 . S
H304 C316 0.950 . S
H305 C317 0.950 . S
C306 H298 0.950 . S
C306 C307 1.386 . S
C306 C308 1.391 . S
C307 C306 1.386 . S
C307 C311 1.393 . S
C308 H300 0.950 . S
C308 C306 1.391 . S
C308 C309 1.400 . S
C309 C308 1.400 . S
C309 C310 1.398 . S
C309 C315 1.491 . S
C310 H301 0.950 . S
C310 C309 1.398 . S
C310 C311 1.391 . S
C311 H299 0.950 . S
C311 C307 1.393 . S
C311 C310 1.391 . S
C312 H302 0.950 . S
C312 C313 1.386 . S
C312 C314 1.391 . S
C313 C312 1.386 . S
C313 C317 1.393 . S
C314 H303 0.950 . S
C314 C312 1.391 . S
C314 C315 1.400 . S
C315 C309 1.491 . S
C315 C314 1.400 . S
C315 C316 1.398 . S
C316 H304 0.950 . S
C316 C315 1.398 . S
C316 C317 1.391 . S
C317 H305 0.950 . S
C317 C313 1.393 . S
C317 C316 1.391 . S
H318 C326 0.950 . S
H319 C331 0.950 . S
H320 C328 0.950 . S
H321 C330 0.950 . S
H322 C332 0.950 . S
H323 C334 0.950 . S
H324 C336 0.950 . S
H325 C337 0.950 . S
C326 H318 0.950 . S
C326 C327 1.386 . S
C326 C328 1.391 . S
C327 C326 1.386 . S
C327 C331 1.393 . S
C328 H320 0.950 . S
C328 C326 1.391 . S
C328 C329 1.400 . S
C329 C328 1.400 . S
C329 C330 1.398 . S
C329 C335 1.491 . S
C330 H321 0.950 . S
C330 C329 1.398 . S
C330 C331 1.391 . S
C331 H319 0.950 . S
C331 C327 1.393 . S
C331 C330 1.391 . S
C332 H322 0.950 . S
C332 C333 1.386 . S
C332 C334 1.391 . S
C333 C332 1.386 . S
C333 C337 1.393 . S
C334 H323 0.950 . S
C334 C332 1.391 . S
C334 C335 1.400 . S
C335 C329 1.491 . S
C335 C334 1.400 . S
C335 C336 1.398 . S
C336 H324 0.950 . S
C336 C335 1.398 . S
C336 C337 1.391 . S
C337 H325 0.950 . S
C337 C333 1.393 . S
C337 C336 1.391 . S
H338 C346 0.950 . S
H339 C351 0.950 . S
H340 C348 0.950 . S
H341 C350 0.950 . S
H342 C352 0.950 . S
H343 C354 0.950 . S
H344 C356 0.950 . S
H345 C357 0.950 . S
C346 H338 0.950 . S
C346 C347 1.386 . S
C346 C348 1.391 . S
C347 C346 1.386 . S
C347 C351 1.393 . S
C348 H340 0.950 . S
C348 C346 1.391 . S
C348 C349 1.400 . S
C349 C348 1.400 . S
C349 C350 1.398 . S
C349 C355 1.491 . S
C350 H341 0.950 . S
C350 C349 1.398 . S
C350 C351 1.391 . S
C351 H339 0.950 . S
C351 C347 1.393 . S
C351 C350 1.391 . S
C352 H342 0.950 . S
C352 C353 1.386 1_655 S
C352 C354 1.391 . S
C353 C352 1.386 1_455 S
C353 C357 1.393 . S
C354 H343 0.950 . S
C354 C352 1.391 . S
C354 C355 1.400 . S
C355 C349 1.491 . S
C355 C354 1.400 . S
C355 C356 1.398 . S
C356 H344 0.950 . S
C356 C355 1.398 . S
C356 C357 1.391 1_655 S
C357 H345 0.950 . S
C357 C353 1.393 . S
C357 C356 1.391 1_455 S
H358 C366 0.950 . S
H359 C371 0.950 . S
H360 C368 0.950 . S
H361 C370 0.950 . S
H362 C372 0.950 . S
H363 C374 0.950 . S
H364 C376 0.950 . S
H365 C377 0.950 . S
C366 H358 0.950 . S
C366 C367 1.386 . S
C366 C368 1.391 . S
C367 C366 1.386 . S
C367 C371 1.393 . S
C368 H360 0.950 . S
C368 C366 1.391 . S
C368 C369 1.400 . S
C369 C368 1.400 . S
C369 C370 1.398 . S
C369 C375 1.491 . S
C370 H361 0.950 . S
C370 C369 1.398 . S
C370 C371 1.391 . S
C371 H359 0.950 . S
C371 C367 1.393 . S
C371 C370 1.391 . S
C372 H362 0.950 . S
C372 C373 1.386 . S
C372 C374 1.391 . S
C373 C372 1.386 . S
C373 C377 1.393 . S
C374 H363 0.950 . S
C374 C372 1.391 . S
C374 C375 1.400 . S
C375 C369 1.491 . S
C375 C374 1.400 . S
C375 C376 1.398 . S
C376 H364 0.950 . S
C376 C375 1.398 . S
C376 C377 1.391 . S
C377 H365 0.950 . S
C377 C373 1.393 . S
C377 C376 1.391 . S
H378 C386 0.950 . S
H379 C391 0.950 . S
H380 C388 0.950 . S
H381 C390 0.950 . S
H382 C392 0.950 . S
H383 C394 0.950 . S
H384 C396 0.950 . S
H385 C397 0.950 . S
C386 H378 0.950 . S
C386 C387 1.386 . S
C386 C388 1.391 . S
C387 C386 1.386 . S
C387 C391 1.393 . S
C388 H380 0.950 . S
C388 C386 1.391 . S
C388 C389 1.400 . S
C389 C388 1.400 . S
C389 C390 1.398 . S
C389 C395 1.491 . S
C390 H381 0.950 . S
C390 C389 1.398 . S
C390 C391 1.391 . S
C391 H379 0.950 . S
C391 C387 1.393 . S
C391 C390 1.391 . S
C392 H382 0.950 . S
C392 C393 1.386 . S
C392 C394 1.391 . S
C393 C392 1.386 . S
C393 C397 1.393 . S
C394 H383 0.950 . S
C394 C392 1.391 . S
C394 C395 1.400 . S
C395 C389 1.491 . S
C395 C394 1.400 . S
C395 C396 1.398 . S
C396 H384 0.950 . S
C396 C395 1.398 . S
C396 C397 1.391 . S
C397 H385 0.950 . S
C397 C393 1.393 . S
C397 C396 1.391 . S
H398 C406 0.950 . S
H399 C411 0.950 . S
H400 C408 0.950 . S
H401 C410 0.950 . S
H402 C412 0.950 . S
H403 C414 0.950 . S
H404 C416 0.950 . S
H405 C417 0.950 . S
C406 H398 0.950 . S
C406 C407 1.386 . S
C406 C408 1.391 . S
C407 C406 1.386 . S
C407 C411 1.393 . S
C408 H400 0.950 . S
C408 C406 1.391 . S
C408 C409 1.400 . S
C409 C408 1.400 . S
C409 C410 1.398 . S
C409 C415 1.491 . S
C410 H401 0.950 . S
C410 C409 1.398 . S
C410 C411 1.391 . S
C411 H399 0.950 . S
C411 C407 1.393 . S
C411 C410 1.391 . S
C412 H402 0.950 . S
C412 C413 1.386 . S
C412 C414 1.391 . S
C413 C412 1.386 . S
C413 C417 1.393 . S
C414 H403 0.950 . S
C414 C412 1.391 . S
C414 C415 1.400 . S
C415 C409 1.491 . S
C415 C414 1.400 . S
C415 C416 1.398 . S
C416 H404 0.950 . S
C416 C415 1.398 . S
C416 C417 1.391 . S
C417 H405 0.950 . S
C417 C413 1.393 . S
C417 C416 1.391 . S
H418 C426 0.950 . S
H419 C431 0.950 . S
H420 C428 0.950 . S
H421 C430 0.950 . S
H422 C432 0.950 . S
H423 C434 0.950 . S
H424 C436 0.950 . S
H425 C437 0.950 . S
C426 H418 0.950 . S
C426 C427 1.386 . S
C426 C428 1.391 . S
C427 C426 1.386 . S
C427 C431 1.393 . S
C428 H420 0.950 . S
C428 C426 1.391 . S
C428 C429 1.400 . S
C429 C428 1.400 . S
C429 C430 1.398 . S
C429 C435 1.491 . S
C430 H421 0.950 . S
C430 C429 1.398 . S
C430 C431 1.391 . S
C431 H419 0.950 . S
C431 C427 1.393 . S
C431 C430 1.391 . S
C432 H422 0.950 . S
C432 C433 1.386 . S
C432 C434 1.391 . S
C433 C432 1.386 . S
C433 C437 1.393 . S
C434 H423 0.950 . S
C434 C432 1.391 . S
C434 C435 1.400 . S
C435 C429 1.491 . S
C435 C434 1.400 . S
C435 C436 1.398 . S
C436 H424 0.950 . S
C436 C435 1.398 . S
C436 C437 1.391 . S
C437 H425 0.950 . S
C437 C433 1.393 . S
C437 C436 1.391 . S
H438 C446 0.950 . S
H439 C451 0.950 . S
H440 C448 0.950 . S
H441 C450 0.950 . S
H442 C452 0.950 1_655 S
H443 C454 0.950 1_655 S
H444 C456 0.950 1_554 S
H445 C457 0.950 . S
C446 H438 0.950 . S
C446 C447 1.386 . S
C446 C448 1.391 . S
C447 C446 1.386 . S
C447 C451 1.393 1_455 S
C448 H440 0.950 . S
C448 C446 1.391 . S
C448 C449 1.400 . S
C449 C448 1.400 . S
C449 C450 1.398 1_455 S
C449 C455 1.491 . S
C450 H441 0.950 . S
C450 C449 1.398 1_655 S
C450 C451 1.391 . S
C451 H439 0.950 . S
C451 C447 1.393 1_655 S
C451 C450 1.391 . S
C452 H442 0.950 1_455 S
C452 C453 1.386 . S
C452 C454 1.391 . S
C453 C452 1.386 . S
C453 C457 1.393 . S
C454 H443 0.950 1_455 S
C454 C452 1.391 . S
C454 C455 1.400 1_556 S
C455 C449 1.491 . S
C455 C454 1.400 1_554 S
C455 C456 1.398 1_554 S
C456 H444 0.950 1_556 S
C456 C455 1.398 1_556 S
C456 C457 1.391 . S
C457 H445 0.950 . S
C457 C453 1.393 . S
C457 C456 1.391 . S
H458 C466 0.950 . S
H459 C471 0.950 1_565 S
H460 C468 0.950 . S
H461 C470 0.950 1_565 S
H462 C472 0.950 1_565 S
H463 C474 0.950 1_565 S
H464 C476 0.950 . S
H465 C477 0.950 . S
C466 H458 0.950 . S
C466 C467 1.386 . S
C466 C468 1.391 . S
C467 C466 1.386 . S
C467 C471 1.393 . S
C468 H460 0.950 . S
C468 C466 1.391 . S
C468 C469 1.400 . S
C469 C468 1.400 . S
C469 C470 1.398 . S
C469 C475 1.491 . S
C470 H461 0.950 1_545 S
C470 C469 1.398 . S
C470 C471 1.391 . S
C471 H459 0.950 1_545 S
C471 C467 1.393 . S
C471 C470 1.391 . S
C472 H462 0.950 1_545 S
C472 C473 1.386 . S
C472 C474 1.391 . S
C473 C472 1.386 . S
C473 C477 1.393 . S
C474 H463 0.950 1_545 S
C474 C472 1.391 . S
C474 C475 1.400 . S
C475 C469 1.491 . S
C475 C474 1.400 . S
C475 C476 1.398 . S
C476 H464 0.950 . S
C476 C475 1.398 . S
C476 C477 1.391 . S
C477 H465 0.950 . S
C477 C473 1.393 . S
C477 C476 1.391 . S
H478 C486 0.950 . S
H479 C491 0.950 . S
H480 C488 0.950 . S
H481 C490 0.950 . S
H482 C492 0.950 . S
H483 C494 0.950 . S
H484 C496 0.950 . S
H485 C497 0.950 . S
C486 H478 0.950 . S
C486 C487 1.386 . S
C486 C488 1.391 . S
C487 C486 1.386 . S
C487 C491 1.393 . S
C488 H480 0.950 . S
C488 C486 1.391 . S
C488 C489 1.400 . S
C489 C488 1.400 . S
C489 C490 1.398 . S
C489 C495 1.491 . S
C490 H481 0.950 . S
C490 C489 1.398 . S
C490 C491 1.391 . S
C491 H479 0.950 . S
C491 C487 1.393 . S
C491 C490 1.391 . S
C492 H482 0.950 . S
C492 C493 1.386 . S
C492 C494 1.391 . S
C493 C492 1.386 . S
C493 C497 1.393 . S
C494 H483 0.950 . S
C494 C492 1.391 . S
C494 C495 1.400 . S
C495 C489 1.491 . S
C495 C494 1.400 . S
C495 C496 1.398 . S
C496 H484 0.950 . S
C496 C495 1.398 . S
C496 C497 1.391 . S
C497 H485 0.950 . S
C497 C493 1.393 . S
C497 C496 1.391 . S
H498 C506 0.950 . S
H499 C511 0.950 . S
H500 C508 0.950 . S
H501 C510 0.950 . S
H502 C512 0.950 . S
H503 C514 0.950 . S
H504 C516 0.950 . S
H505 C517 0.950 . S
C506 H498 0.950 . S
C506 C507 1.386 . S
C506 C508 1.391 . S
C507 C506 1.386 . S
C507 C511 1.393 . S
C508 H500 0.950 . S
C508 C506 1.391 . S
C508 C509 1.400 . S
C509 C508 1.400 . S
C509 C510 1.398 . S
C509 C515 1.491 . S
C510 H501 0.950 . S
C510 C509 1.398 . S
C510 C511 1.391 . S
C511 H499 0.950 . S
C511 C507 1.393 . S
C511 C510 1.391 . S
C512 H502 0.950 . S
C512 C513 1.386 . S
C512 C514 1.391 . S
C513 C512 1.386 . S
C513 C517 1.393 . S
C514 H503 0.950 . S
C514 C512 1.391 . S
C514 C515 1.400 . S
C515 C509 1.491 . S
C515 C514 1.400 . S
C515 C516 1.398 . S
C516 H504 0.950 . S
C516 C515 1.398 . S
C516 C517 1.391 . S
C517 H505 0.950 . S
C517 C513 1.393 . S
C517 C516 1.391 . S
H518 C526 0.950 . S
H519 C531 0.950 . S
H520 C528 0.950 . S
H521 C530 0.950 . S
H522 C532 0.950 . S
H523 C534 0.933 1_556 S
H524 C536 0.950 . S
H525 C537 0.950 . S
C526 H518 0.950 . S
C526 C527 1.386 . S
C526 C528 1.391 . S
C527 C526 1.386 . S
C527 C531 1.393 . S
C528 H520 0.950 . S
C528 C526 1.391 . S
C528 C529 1.400 . S
C529 C528 1.400 . S
C529 C530 1.398 . S
C529 C535 1.491 1_556 S
C530 H521 0.950 . S
C530 C529 1.398 . S
C530 C531 1.391 . S
C531 H519 0.950 . S
C531 C527 1.393 . S
C531 C530 1.391 . S
C532 H522 0.950 . S
C532 C533 1.386 . S
C532 C534 1.391 . S
C533 C532 1.386 . S
C533 C537 1.393 . S
C534 H523 0.933 1_554 S
C534 C532 1.391 . S
C534 C535 1.400 . S
C535 C529 1.491 1_554 S
C535 C534 1.400 . S
C535 C536 1.398 . S
C536 H524 0.950 . S
C536 C535 1.398 . S
C536 C537 1.391 . S
C537 H525 0.950 . S
C537 C533 1.393 . S
C537 C536 1.391 . S
H538 C546 0.950 . S
H539 C551 0.950 . S
H540 C548 0.950 . S
H541 C550 0.950 . S
H542 C552 0.950 . S
H543 C554 0.950 . S
H544 C556 0.950 1_655 S
H545 C557 0.950 1_655 S
C546 H538 0.950 . S
C546 C547 1.386 1_655 S
C546 C548 1.391 . S
C547 C546 1.386 1_455 S
C547 C551 1.393 . S
C548 H540 0.950 . S
C548 C546 1.391 . S
C548 C549 1.400 1_655 S
C549 C548 1.400 1_455 S
C549 C550 1.398 . S
C549 C555 1.491 . S
C550 H541 0.950 . S
C550 C549 1.398 . S
C550 C551 1.391 . S
C551 H539 0.950 . S
C551 C547 1.393 . S
C551 C550 1.391 . S
C552 H542 0.950 . S
C552 C553 1.386 . S
C552 C554 1.391 . S
C553 C552 1.386 . S
C553 C557 1.393 . S
C554 H543 0.950 . S
C554 C552 1.391 . S
C554 C555 1.400 . S
C555 C549 1.491 . S
C555 C554 1.400 . S
C555 C556 1.398 . S
C556 H544 0.950 1_455 S
C556 C555 1.398 . S
C556 C557 1.391 . S
C557 H545 0.950 1_455 S
C557 C553 1.393 . S
C557 C556 1.391 . S
C207 C12 3.017 . S
C213 C189 2.836 . S
C227 C52 2.891 . S
C233 C167 2.863 1_655 S
C247 C111 2.928 . S
C253 C180 2.894 . S
C267 C31 3.037 . S
C273 C193 2.989 . S
C293 C163 2.949 . S
C287 C71 3.171 . S
C313 C176 2.920 . S
C307 C92 3.127 . S
C327 C48 0.319 . S
C333 C141 0.296 . S
C347 C109 0.315 . S
C353 C154 0.200 . S
C367 C29 0.499 . S
C373 C124 0.537 . S
C393 C137 0.434 . S
C387 C69 0.499 . S
C413 C150 0.434 . S
C407 C88 0.424 . S
C427 C8 0.230 . S
C433 C128 0.244 . S
C453 C155 1.249 . S
C447 C17 1.219 . S
C467 C57 1.273 . S
C473 C129 1.287 . S
C487 C97 1.198 . S
C493 C142 1.249 . S
C513 C181 1.798 . S
C507 C42 1.705 . S
C533 C194 1.748 . S
C527 C82 1.735 . S
C547 C2 1.726 . S
C553 C168 1.787 . S
