# Generated by pormake.
# Topology nom, (4,4)-cn, num edge types: 1
# Building blocks:
#     Node 0, Type 0, BuildingBlock: NAWXER_clean_linker_0, # of connection points: 4
#     Node 1, Type 0, BuildingBlock: NAWXER_clean_linker_0, # of connection points: 4
#     Node 2, Type 0, BuildingBlock: NAWXER_clean_linker_0, # of connection points: 4
#     Node 3, Type 0, BuildingBlock: NAWXER_clean_linker_0, # of connection points: 4
#     Node 4, Type 0, BuildingBlock: NAWXER_clean_linker_0, # of connection points: 4
#     Node 5, Type 0, BuildingBlock: NAWXER_clean_linker_0, # of connection points: 4
#     Node 6, Type 1, BuildingBlock: QUQFOY_clean_sbu_3, # of connection points: 4
#     Node 7, Type 1, BuildingBlock: QUQFOY_clean_sbu_3, # of connection points: 4
#     Node 8, Type 1, BuildingBlock: QUQFOY_clean_sbu_3, # of connection points: 4
#     Node 9, Type 1, BuildingBlock: QUQFOY_clean_sbu_3, # of connection points: 4
#     Node 10, Type 1, BuildingBlock: QUQFOY_clean_sbu_3, # of connection points: 4
#     Node 11, Type 1, BuildingBlock: QUQFOY_clean_sbu_3, # of connection points: 4
#     Edge 12, Type (0, 1), BuildingBlock: KIFKEQ_clean_linker_1, # of connection points: 2
#     Edge 13, Type (0, 1), BuildingBlock: KIFKEQ_clean_linker_1, # of connection points: 2
#     Edge 14, Type (0, 1), BuildingBlock: KIFKEQ_clean_linker_1, # of connection points: 2
#     Edge 15, Type (0, 1), BuildingBlock: KIFKEQ_clean_linker_1, # of connection points: 2
#     Edge 16, Type (0, 1), BuildingBlock: KIFKEQ_clean_linker_1, # of connection points: 2
#     Edge 17, Type (0, 1), BuildingBlock: KIFKEQ_clean_linker_1, # of connection points: 2
#     Edge 18, Type (0, 1), BuildingBlock: KIFKEQ_clean_linker_1, # of connection points: 2
#     Edge 19, Type (0, 1), BuildingBlock: KIFKEQ_clean_linker_1, # of connection points: 2
#     Edge 20, Type (0, 1), BuildingBlock: KIFKEQ_clean_linker_1, # of connection points: 2
#     Edge 21, Type (0, 1), BuildingBlock: KIFKEQ_clean_linker_1, # of connection points: 2
#     Edge 22, Type (0, 1), BuildingBlock: KIFKEQ_clean_linker_1, # of connection points: 2
#     Edge 23, Type (0, 1), BuildingBlock: KIFKEQ_clean_linker_1, # of connection points: 2
#     Edge 24, Type (0, 1), BuildingBlock: KIFKEQ_clean_linker_1, # of connection points: 2
#     Edge 25, Type (0, 1), BuildingBlock: KIFKEQ_clean_linker_1, # of connection points: 2
#     Edge 26, Type (0, 1), BuildingBlock: KIFKEQ_clean_linker_1, # of connection points: 2
#     Edge 27, Type (0, 1), BuildingBlock: KIFKEQ_clean_linker_1, # of connection points: 2
#     Edge 28, Type (0, 1), BuildingBlock: KIFKEQ_clean_linker_1, # of connection points: 2
#     Edge 29, Type (0, 1), BuildingBlock: KIFKEQ_clean_linker_1, # of connection points: 2
#     Edge 30, Type (0, 1), BuildingBlock: KIFKEQ_clean_linker_1, # of connection points: 2
#     Edge 31, Type (0, 1), BuildingBlock: KIFKEQ_clean_linker_1, # of connection points: 2
#     Edge 32, Type (0, 1), BuildingBlock: KIFKEQ_clean_linker_1, # of connection points: 2
#     Edge 33, Type (0, 1), BuildingBlock: KIFKEQ_clean_linker_1, # of connection points: 2
#     Edge 34, Type (0, 1), BuildingBlock: KIFKEQ_clean_linker_1, # of connection points: 2
#     Edge 35, Type (0, 1), BuildingBlock: KIFKEQ_clean_linker_1, # of connection points: 2
# Relax obj value: 0.007
# Max RMSD: 0.110
# Mean RMSD: 0.075
data_MOF--net-nom--node1-QUQFOY_clean_sbu_3--node2-NAWXER_clean_linker_0--edge1-KIFKEQ_clean_linker_1
_symmetry_space_group_name_H-M    P1
_symmetry_Int_Tables_number       1
_symmetry_cell_setting            triclinic
loop_
_symmetry_equiv_pos_as_xyz
'x, y, z'
_cell_length_a     53.604381
_cell_length_b     54.888502
_cell_length_c     59.465855
_cell_angle_alpha  89.867639
_cell_angle_beta   90.193821
_cell_angle_gamma 120.05058
loop_
_atom_site_label
_atom_site_type_symbol
_atom_site_fract_x
_atom_site_fract_y
_atom_site_fract_z
_atom_type_partial_charge
C0 C 0.898 0.48678 0.3289 0.0
C1 C 0.88512 0.46501 0.34474 0.0
C2 C 0.92543 0.49507 0.32069 0.0
C3 C 0.94055 0.48189 0.32836 0.0
C4 C 0.89981 0.45124 0.352 0.0
C5 C 0.9276 0.45992 0.34408 0.0
C6 C 0.97088 0.49326 0.32168 0.0
C7 C 0.91923 0.44791 0.26037 0.0
C8 C 0.92491 0.46449 0.24096 0.0
C9 C 0.93665 0.45889 0.27948 0.0
C10 C 0.9597 0.48682 0.27965 0.0
C11 C 0.94781 0.49243 0.24122 0.0
C12 C 0.96502 0.50344 0.26033 0.0
C13 C 0.9798 0.49834 0.29902 0.0
C14 C 0.10997 0.56171 0.30401 0.0
C15 C 0.11511 0.5844 0.28991 0.0
C16 C 0.08192 0.54236 0.31096 0.0
C17 C 0.05866 0.54559 0.30405 0.0
C18 C 0.09163 0.58729 0.28297 0.0
C19 C 0.06375 0.56801 0.28983 0.0
C20 C 0.02873 0.52584 0.31102 0.0
C21 C 0.07889 0.56906 0.37355 0.0
C22 C 0.07786 0.55037 0.39025 0.0
C23 C 0.05999 0.55917 0.35523 0.0
C24 C 0.04013 0.5303 0.35294 0.0
C25 C 0.05727 0.5216 0.38824 0.0
C26 C 0.0386 0.51171 0.3698 0.0
C27 C 0.01995 0.51931 0.33367 0.0
H28 H 0.88699 0.4977 0.3232 0.0
H29 H 0.93528 0.51249 0.30896 0.0
H30 H 0.89023 0.43453 0.36436 0.0
H31 H 0.93911 0.44978 0.3504 0.0
H32 H 0.9019 0.42622 0.26053 0.0
H33 H 0.93257 0.44524 0.29383 0.0
H34 H 0.95245 0.50583 0.2266 0.0
H35 H 0.98266 0.525 0.25994 0.0
H36 H 0.12755 0.55871 0.30944 0.0
H37 H 0.07838 0.52489 0.32161 0.0
H38 H 0.09481 0.60477 0.27247 0.0
H39 H 0.04611 0.57091 0.28432 0.0
H40 H 0.09449 0.59133 0.37448 0.0
H41 H 0.06091 0.57412 0.34288 0.0
H42 H 0.05536 0.50668 0.40102 0.0
H43 H 0.02305 0.48943 0.36862 0.0
N44 N -0.00871 0.50341 0.33812 0.0
N45 N 0.00834 0.51484 0.29464 0.0
C46 C 0.41452 0.90059 0.49492 0.0
C47 C 0.42534 0.89089 0.51218 0.0
C48 C 0.43079 0.92798 0.48669 0.0
C49 C 0.45847 0.94619 0.49529 0.0
C50 C 0.45313 0.90906 0.52068 0.0
C51 C 0.46945 0.93652 0.51241 0.0
C52 C 0.47463 0.97603 0.48811 0.0
C53 C 0.47429 0.93043 0.42449 0.0
C54 C 0.45444 0.92936 0.40836 0.0
C55 C 0.48105 0.94766 0.44346 0.0
C56 C 0.46848 0.9645 0.44648 0.0
C57 C 0.44127 0.94573 0.41199 0.0
C58 C 0.44862 0.96346 0.43062 0.0
C59 C 0.47727 0.98446 0.46541 0.0
C60 C 0.5519 0.11083 0.47001 0.0
C61 C 0.53662 0.11854 0.45506 0.0
C62 C 0.54022 0.08287 0.477 0.0
C63 C 0.51287 0.06219 0.46942 0.0
C64 C 0.50959 0.09761 0.44706 0.0
C65 C 0.49792 0.06972 0.4541 0.0
C66 C 0.49982 0.03253 0.47676 0.0
C67 C 0.50843 0.08321 0.53874 0.0
C68 C 0.52433 0.08023 0.55628 0.0
C69 C 0.49962 0.06504 0.52027 0.0
C70 C 0.50728 0.04406 0.51871 0.0
C71 C 0.53138 0.05883 0.55495 0.0
C72 C 0.52292 0.04093 0.53635 0.0
C73 C 0.49775 0.02417 0.49953 0.0
H74 H 0.3933 0.88707 0.48787 0.0
H75 H 0.42129 0.93513 0.47408 0.0
H76 H 0.46195 0.90232 0.53415 0.0
H77 H 0.49054 0.95033 0.51956 0.0
H78 H 0.48531 0.91862 0.42223 0.0
H79 H 0.49675 0.94849 0.45542 0.0
H80 H 0.42529 0.945 0.40042 0.0
H81 H 0.43863 0.97626 0.43275 0.0
H82 H 0.573 0.12637 0.47616 0.0
H83 H 0.55255 0.07742 0.48831 0.0
H84 H 0.49713 0.10287 0.43572 0.0
H85 H 0.47688 0.05407 0.44788 0.0
H86 H 0.50229 0.09923 0.53955 0.0
H87 H 0.48656 0.06721 0.50738 0.0
H88 H 0.54373 0.05615 0.56819 0.0
H89 H 0.52878 0.0247 0.53567 0.0
N90 N 0.48525 -0.00377 0.50427 0.0
N91 N 0.48947 0.0123 0.46061 0.0
C92 C 0.548 0.46659 0.60445 0.0
C93 C 0.52797 0.45087 0.58753 0.0
C94 C 0.53989 0.47709 0.62267 0.0
C95 C 0.51154 0.47194 0.62441 0.0
C96 C 0.49958 0.44576 0.58935 0.0
C97 C 0.49152 0.45635 0.60753 0.0
C98 C 0.50305 0.484 0.64312 0.0
C99 C 0.51732 0.41841 0.67487 0.0
C100 C 0.53989 0.42807 0.69064 0.0
C101 C 0.50799 0.43633 0.66669 0.0
C102 C 0.52133 0.46451 0.67374 0.0
C103 C 0.55304 0.45622 0.69791 0.0
C104 C 0.5437 0.47422 0.68963 0.0
C105 C 0.51039 0.48304 0.66581 0.0
C106 C 0.44812 0.5297 0.71747 0.0
C107 C 0.47021 0.54831 0.73199 0.0
C108 C 0.45436 0.51776 0.69916 0.0
C109 C 0.48289 0.52464 0.69478 0.0
C110 C 0.49872 0.55509 0.72759 0.0
C111 C 0.50497 0.54328 0.7092 0.0
C112 C 0.48977 0.51112 0.67622 0.0
C113 C 0.45014 0.55895 0.64454 0.0
C114 C 0.42427 0.54079 0.63327 0.0
C115 C 0.4689 0.54942 0.65117 0.0
C116 C 0.46198 0.52161 0.64659 0.0
C117 C 0.41792 0.51327 0.62824 0.0
C118 C 0.43663 0.50386 0.63473 0.0
C119 C 0.48067 0.51036 0.65378 0.0
H120 H 0.57018 0.47143 0.60335 0.0
H121 H 0.55597 0.48973 0.63514 0.0
H122 H 0.48353 0.43347 0.57676 0.0
H123 H 0.46955 0.45221 0.60848 0.0
H124 H 0.50689 0.39696 0.66874 0.0
H125 H 0.49001 0.42796 0.65505 0.0
H126 H 0.57024 0.46422 0.71025 0.0
H127 H 0.55395 0.49573 0.69563 0.0
H128 H 0.42587 0.52361 0.7207 0.0
H129 H 0.43681 0.50268 0.68874 0.0
H130 H 0.5162 0.56945 0.73843 0.0
H131 H 0.52708 0.54865 0.70626 0.0
H132 H 0.45559 0.58029 0.64856 0.0
H133 H 0.48866 0.56365 0.65993 0.0
H134 H 0.39845 0.49898 0.61916 0.0
H135 H 0.43101 0.48242 0.63082 0.0
N136 N 0.48795 0.4971 0.63808 0.0
N137 N 0.50408 0.4972 0.6814 0.0
C138 C 0.89738 0.42361 0.80562 0.0
C139 C 0.88528 0.43102 0.78778 0.0
C140 C 0.92539 0.44212 0.81289 0.0
C141 C 0.94164 0.46881 0.80294 0.0
C142 C 0.90163 0.45748 0.7775 0.0
C143 C 0.92958 0.47623 0.78504 0.0
C144 C 0.97199 0.48779 0.80978 0.0
C145 C 0.91911 0.47806 0.87083 0.0
C146 C 0.92258 0.46271 0.8883 0.0
C147 C 0.93819 0.48772 0.85269 0.0
C148 C 0.96104 0.48215 0.85169 0.0
C149 C 0.94573 0.45755 0.88742 0.0
C150 C 0.96491 0.46738 0.86936 0.0
C151 C 0.98118 0.49191 0.83245 0.0
C152 C 0.1119 0.56231 0.82432 0.0
C153 C 0.11827 0.54819 0.84105 0.0
C154 C 0.0833 0.55247 0.81784 0.0
C155 C 0.06081 0.52771 0.82739 0.0
C156 C 0.09584 0.52423 0.85125 0.0
C157 C 0.06741 0.51401 0.84441 0.0
C158 C 0.03025 0.51585 0.8205 0.0
C159 C 0.07542 0.51957 0.75473 0.0
C160 C 0.07871 0.54239 0.74155 0.0
C161 C 0.05689 0.51029 0.77323 0.0
C162 C 0.04101 0.52336 0.77873 0.0
C163 C 0.06274 0.55547 0.74736 0.0
C164 C 0.04378 0.54576 0.76557 0.0
C165 C 0.02101 0.51336 0.7979 0.0
H166 H 0.88552 0.40308 0.81345 0.0
H167 H 0.93455 0.43515 0.82592 0.0
H168 H 0.89278 0.46361 0.76364 0.0
H169 H 0.94185 0.49647 0.77682 0.0
H170 H 0.90142 0.48228 0.87104 0.0
H171 H 0.9351 0.49955 0.83945 0.0
H172 H 0.94918 0.44613 0.90081 0.0
H173 H 0.98253 0.46305 0.86902 0.0
H174 H 0.129 0.5811 0.8165 0.0
H175 H 0.07891 0.5644 0.80555 0.0
H176 H 0.1004 0.51307 0.8642 0.0
H177 H 0.05057 0.49506 0.85224 0.0
H178 H 0.08671 0.50846 0.75058 0.0
H179 H 0.05469 0.4927 0.78309 0.0
H180 H 0.06499 0.57339 0.738 0.0
H181 H 0.03162 0.55607 0.76964 0.0
N182 N -0.00772 0.49923 0.79339 0.0
N183 N 0.00989 0.50526 0.83688 0.0
C184 C 0.48928 0.90416 0.9697 0.0
C185 C 0.46763 0.89264 0.95314 0.0
C186 C 0.49926 0.93137 0.97772 0.0
C187 C 0.4875 0.94754 0.96964 0.0
C188 C 0.4561 0.90898 0.94486 0.0
C189 C 0.4661 0.93626 0.95294 0.0
C190 C 0.49881 0.97678 0.97757 0.0
C191 C 0.45572 0.92215 0.03763 0.0
C192 C 0.47458 0.92527 0.05532 0.0
C193 C 0.4652 0.94116 0.01969 0.0
C194 C 0.49377 0.96358 0.01904 0.0
C195 C 0.50313 0.94778 0.05465 0.0
C196 C 0.51255 0.96687 0.03676 0.0
C197 C 0.50382 0.98439 0.00051 0.0
C198 C 0.55022 0.11 -0.0011 0.0
C199 C 0.57338 0.11835 0.01398 0.0
C200 C 0.53473 0.0822 0.99125 0.0
C201 C 0.5424 0.06238 -0.0017 0.0
C202 C 0.58047 0.09825 0.02143 0.0
C203 C 0.56506 0.07055 0.01373 0.0
C204 C 0.52672 0.03292 0.99029 0.0
C205 C 0.56822 0.08595 0.9286 0.0
C206 C 0.54866 0.08289 0.91149 0.0
C207 C 0.55922 0.06754 0.94695 0.0
C208 C 0.53036 0.04596 0.94875 0.0
C209 C 0.51978 0.06123 0.91336 0.0
C210 C 0.51079 0.04289 0.93174 0.0
C211 C 0.52079 0.02528 0.96737 0.0
H212 H 0.49846 0.89209 0.97659 0.0
H213 H 0.51645 0.93988 0.99007 0.0
H214 H 0.43968 0.90086 0.93189 0.0
H215 H 0.45705 0.94853 0.9462 0.0
H216 H 0.43364 0.90496 0.03764 0.0
H217 H 0.4501 0.93854 0.00648 0.0
H218 H 0.51803 0.95096 0.06818 0.0
H219 H 0.53459 0.98417 0.03672 0.0
H220 H 0.54394 0.1249 -0.00685 0.0
H221 H 0.51676 0.0762 0.97987 0.0
H222 H 0.59838 0.10405 0.03283 0.0
H223 H 0.57124 0.05557 0.01953 0.0
H224 H 0.59057 0.10249 0.92776 0.0
H225 H 0.57495 0.0699 0.95951 0.0
H226 H 0.50427 0.05794 0.90031 0.0
H227 H 0.48852 0.02613 0.93261 0.0
N228 N 0.5071 -0.00251 0.96192 0.0
N229 N 0.51791 0.01215 0.00593 0.0
C230 C 0.47654 0.58374 0.16819 0.0
C231 C 0.45532 0.57458 0.18493 0.0
C232 C 0.48727 0.56655 0.16119 0.0
C233 C 0.4765 0.53949 0.17035 0.0
C234 C 0.44516 0.5479 0.19466 0.0
C235 C 0.4557 0.5305 0.18743 0.0
C236 C 0.48845 0.52155 0.16323 0.0
C237 C 0.44587 0.53205 0.1016 0.0
C238 C 0.46518 0.54756 0.08424 0.0
C239 C 0.45503 0.52254 0.11996 0.0
C240 C 0.4837 0.52848 0.12137 0.0
C241 C 0.49382 0.5533 0.08571 0.0
C242 C 0.5029 0.54369 0.10399 0.0
C243 C 0.49377 0.51833 0.1405 0.0
C244 C 0.55724 0.45227 0.14705 0.0
C245 C 0.57826 0.46782 0.13068 0.0
C246 C 0.53735 0.46033 0.15363 0.0
C247 C 0.53876 0.48468 0.14458 0.0
C248 C 0.5782 0.491 0.12062 0.0
C249 C 0.55893 0.49943 0.12762 0.0
C250 C 0.51952 0.49532 0.15197 0.0
C251 C 0.56195 0.48833 0.21575 0.0
C252 C 0.54201 0.4694 0.23143 0.0
C253 C 0.55259 0.4974 0.19724 0.0
C254 C 0.52309 0.48734 0.19386 0.0
C255 C 0.5125 0.45966 0.22808 0.0
C256 C 0.50318 0.46867 0.20954 0.0
C257 C 0.51282 0.49715 0.17469 0.0
H258 H 0.48526 0.60447 0.16079 0.0
H259 H 0.50433 0.57464 0.1488 0.0
H260 H 0.42883 0.54038 0.20764 0.0
H261 H 0.44749 0.50995 0.19506 0.0
H262 H 0.42354 0.52681 0.10081 0.0
H263 H 0.43964 0.51028 0.13291 0.0
H264 H 0.50938 0.56552 0.07284 0.0
H265 H 0.52512 0.54849 0.10471 0.0
H266 H 0.55644 0.43421 0.15513 0.0
H267 H 0.52116 0.44768 0.16597 0.0
H268 H 0.59317 0.50289 0.10733 0.0
H269 H 0.56018 0.51792 0.11993 0.0
H270 H 0.58481 0.49614 0.21775 0.0
H271 H 0.5684 0.51232 0.18561 0.0
H272 H 0.49663 0.44554 0.24005 0.0
H273 H 0.48035 0.46102 0.20741 0.0
N274 N 0.49762 0.51029 0.17941 0.0
N275 N 0.50943 0.50576 0.13585 0.0
C276 C 0.69268 0.42724 0.40339 0.0
O277 O 0.69055 0.44788 0.41057 0.0
Cd278 Cd 0.64635 0.44366 0.42367 0.0
O279 O 0.67076 0.40255 0.40288 0.0
Cd280 Cd 0.61875 0.37873 0.41244 0.0
C281 C 0.60692 0.41864 0.37501 0.0
O282 O 0.62405 0.40336 0.44778 0.0
O283 O 0.58055 0.37811 0.43546 0.0
O284 O 0.62578 0.34083 0.426 0.0
C285 C 0.59729 0.39313 0.4511 0.0
O286 O 0.61882 0.43817 0.38957 0.0
C287 C 0.60416 0.32112 0.41602 0.0
O288 O 0.60541 0.39495 0.37816 0.0
O289 O 0.58933 0.32817 0.40377 0.0
C290 C 0.27575 0.58476 0.57221 0.0
O291 O 0.25348 0.56417 0.5636 0.0
Cd292 Cd 0.21215 0.56654 0.55206 0.0
O293 O 0.27778 0.60886 0.57376 0.0
Cd294 Cd 0.24947 0.63184 0.56269 0.0
C295 C 0.1991 0.59178 0.60111 0.0
O296 O 0.22931 0.60646 0.52767 0.0
O297 O 0.21032 0.63039 0.54003 0.0
O298 O 0.29432 0.67042 0.54825 0.0
C299 C 0.21206 0.61559 0.52445 0.0
O300 O 0.19217 0.57147 0.5875 0.0
C301 C 0.29266 0.68983 0.55846 0.0
O302 O 0.21985 0.61636 0.59672 0.0
O303 O 0.27096 0.68228 0.57115 0.0
C304 C 0.6936 0.27295 0.73533 0.0
O305 O 0.69309 0.25154 0.72676 0.0
Cd306 Cd 0.64859 0.21006 0.71726 0.0
O307 O 0.67033 0.27355 0.73789 0.0
Cd308 Cd 0.61814 0.24466 0.7294 0.0
C309 C 0.61186 0.19623 0.76754 0.0
O310 O 0.62231 0.22503 0.69379 0.0
O311 O 0.57955 0.20583 0.70789 0.0
O312 O 0.62283 0.28815 0.71521 0.0
C313 C 0.59559 0.20779 0.69154 0.0
O314 O 0.62458 0.18933 0.75297 0.0
C315 C 0.60223 0.28709 0.72642 0.0
O316 O 0.60774 0.21684 0.76395 0.0
O317 O 0.58871 0.26605 0.73942 0.0
C318 C 0.31117 0.58576 0.89618 0.0
O319 O 0.31256 0.56431 0.90236 0.0
Cd320 Cd 0.35513 0.56691 0.91815 0.0
O321 O 0.33308 0.61034 0.8978 0.0
Cd322 Cd 0.38401 0.63249 0.90997 0.0
C323 C 0.39946 0.59519 0.87271 0.0
O324 O 0.37564 0.60514 0.94443 0.0
O325 O 0.42005 0.63105 0.9345 0.0
O326 O 0.37837 0.67098 0.92416 0.0
C327 C 0.40207 0.61488 0.94902 0.0
O328 O 0.38653 0.57461 0.88625 0.0
C329 C 0.40009 0.69042 0.91409 0.0
O330 O 0.40006 0.61838 0.87624 0.0
O331 O 0.4144 0.68293 0.90177 0.0
C332 C 0.73072 0.42568 0.07549 0.0
O333 O 0.7542 0.44667 0.06895 0.0
Cd334 Cd 0.79318 0.44325 0.05277 0.0
O335 O 0.72656 0.40078 0.07396 0.0
Cd336 Cd 0.75376 0.37768 0.0614 0.0
C337 C 0.8078 0.41452 0.09864 0.0
O338 O 0.77335 0.40474 0.02688 0.0
O339 O 0.79096 0.37864 0.03698 0.0
O340 O 0.7079 0.3402 0.0473 0.0
C341 C 0.78957 0.39477 0.02236 0.0
O342 O 0.81593 0.43498 0.08496 0.0
C343 C 0.70961 0.32021 0.05649 0.0
O344 O 0.78456 0.39133 0.09518 0.0
O345 O 0.73182 0.32693 0.06846 0.0
C346 C 0.31062 0.73885 0.23975 0.0
O347 O 0.31274 0.7613 0.23178 0.0
Cd348 Cd 0.35752 0.79996 0.21859 0.0
O349 O 0.33252 0.73559 0.24043 0.0
Cd350 Cd 0.38385 0.76104 0.22939 0.0
C351 C 0.3986 0.81315 0.26629 0.0
O352 O 0.37833 0.78062 0.19409 0.0
O353 O 0.42201 0.79756 0.20589 0.0
O354 O 0.37487 0.71599 0.21536 0.0
C355 C 0.40504 0.79633 0.19044 0.0
O356 O 0.38751 0.82197 0.25172 0.0
C357 C 0.39584 0.71606 0.22538 0.0
O358 O 0.39819 0.78993 0.26361 0.0
O359 O 0.41142 0.73718 0.23781 0.0
H360 H 0.16521 0.60775 0.31456 0.0
H361 H 0.13201 0.60835 0.24835 0.0
H362 H 0.2131 0.64468 0.30279 0.0
H363 H 0.17957 0.64553 0.23686 0.0
H364 H 0.25789 0.73466 0.23488 0.0
H365 H 0.21129 0.6964 0.24726 0.0
H366 H 0.25279 0.65307 0.27532 0.0
H367 H 0.29954 0.69136 0.26298 0.0
C368 C 0.16817 0.61549 0.29745 0.0
C369 C 0.14471 0.60529 0.28247 0.0
C370 C 0.19555 0.63668 0.29075 0.0
C371 C 0.19992 0.64818 0.26901 0.0
C372 C 0.17668 0.63745 0.25387 0.0
C373 C 0.14944 0.61618 0.26048 0.0
C374 C 0.25714 0.71704 0.24374 0.0
C375 C 0.28243 0.71603 0.24786 0.0
C376 C 0.23043 0.69506 0.25072 0.0
C377 C 0.22844 0.67171 0.26213 0.0
C378 C 0.25373 0.67089 0.26665 0.0
C379 C 0.28046 0.69276 0.25948 0.0
H380 H 0.56395 0.16551 0.48141 0.0
H381 H 0.53583 0.139 0.41314 0.0
H382 H 0.58154 0.21424 0.47057 0.0
H383 H 0.55348 0.18785 0.40225 0.0
H384 H 0.55668 0.27391 0.39987 0.0
H385 H 0.54165 0.2249 0.40838 0.0
H386 H 0.61858 0.25218 0.44837 0.0
H387 H 0.63328 0.30104 0.44027 0.0
C388 C 0.56189 0.17013 0.46401 0.0
C389 C 0.54847 0.14836 0.44815 0.0
C390 C 0.57197 0.19808 0.45778 0.0
C391 C 0.56891 0.20495 0.43553 0.0
C392 C 0.55579 0.18322 0.4196 0.0
C393 C 0.5457 0.15525 0.42584 0.0
C394 C 0.57047 0.2694 0.41033 0.0
C395 C 0.59606 0.29135 0.41951 0.0
C396 C 0.56193 0.24132 0.41513 0.0
C397 C 0.57882 0.23464 0.42919 0.0
C398 C 0.60482 0.25662 0.43781 0.0
C399 C 0.61333 0.28463 0.43304 0.0
H400 H 0.36616 0.51216 0.63884 0.0
H401 H 0.43572 0.59021 0.61289 0.0
H402 H 0.3313 0.52456 0.62472 0.0
H403 H 0.40063 0.60266 0.59854 0.0
H404 H 0.326 0.62294 0.59331 0.0
H405 H 0.36284 0.61424 0.60953 0.0
H406 H 0.31492 0.52791 0.58706 0.0
H407 H 0.27813 0.53632 0.57123 0.0
C408 C 0.37398 0.53201 0.63011 0.0
C409 C 0.40362 0.55004 0.62667 0.0
C410 C 0.35402 0.53909 0.62198 0.0
C411 C 0.3632 0.56437 0.61018 0.0
C412 C 0.39293 0.58307 0.60762 0.0
C413 C 0.41299 0.57596 0.61583 0.0
C414 C 0.3234 0.60214 0.59179 0.0
C415 C 0.299 0.58028 0.5811 0.0
C416 C 0.34455 0.59721 0.60101 0.0
C417 C 0.3416 0.57031 0.5998 0.0
C418 C 0.31752 0.54871 0.58869 0.0
C419 C 0.2965 0.55361 0.57947 0.0
H420 H 0.83635 0.40049 0.81231 0.0
H421 H 0.86891 0.41486 0.74437 0.0
H422 H 0.7894 0.36338 0.79886 0.0
H423 H 0.82189 0.37774 0.7309 0.0
H424 H 0.74793 0.28419 0.72467 0.0
H425 H 0.79369 0.32437 0.73657 0.0
H426 H 0.74793 0.35724 0.77371 0.0
H427 H 0.70207 0.31715 0.76176 0.0
C428 C 0.83334 0.39582 0.79448 0.0
C429 C 0.8562 0.41045 0.77937 0.0
C430 C 0.80648 0.37475 0.78679 0.0
C431 C 0.80211 0.36766 0.76387 0.0
C432 C 0.8248 0.38268 0.74868 0.0
C433 C 0.85156 0.40403 0.75634 0.0
C434 C 0.7476 0.3 0.73533 0.0
C435 C 0.72136 0.29744 0.74231 0.0
C436 C 0.7738 0.32309 0.742 0.0
C437 C 0.7743 0.3439 0.75601 0.0
C438 C 0.74811 0.34139 0.76299 0.0
C439 C 0.7219 0.3185 0.75608 0.0
H440 H 0.49966 0.86795 0.94314 0.0
H441 H 0.41206 0.85176 0.94393 0.0
H442 H 0.48246 0.81947 0.93193 0.0
H443 H 0.39491 0.80351 0.93172 0.0
H444 H 0.37441 0.71182 0.94076 0.0
H445 H 0.39018 0.76105 0.94802 0.0
H446 H 0.46073 0.78609 0.90155 0.0
H447 H 0.4453 0.73668 0.89469 0.0
C448 C 0.47672 0.85406 0.94081 0.0
C449 C 0.45721 0.86365 0.94466 0.0
C450 C 0.46688 0.82635 0.93408 0.0
C451 C 0.43729 0.80755 0.93097 0.0
C452 C 0.41782 0.81735 0.93423 0.0
C453 C 0.42767 0.84509 0.941 0.0
C454 C 0.39319 0.72781 0.93197 0.0
C455 C 0.40871 0.72035 0.91725 0.0
C456 C 0.40212 0.75607 0.93602 0.0
C457 C 0.42676 0.77755 0.9254 0.0
C458 C 0.44189 0.77006 0.91024 0.0
C459 C 0.43298 0.74176 0.90622 0.0
H460 H 0.57322 0.41529 0.12797 0.0
H461 H 0.63438 0.50387 0.11899 0.0
H462 H 0.61007 0.4041 0.1172 0.0
H463 H 0.66988 0.49259 0.10597 0.0
H464 H 0.73853 0.47028 0.1004 0.0
H465 H 0.70188 0.4788 0.11622 0.0
H466 H 0.6354 0.40083 0.08702 0.0
H467 H 0.6724 0.3915 0.07273 0.0
C468 C 0.59443 0.43241 0.12368 0.0
C469 C 0.60058 0.46051 0.12423 0.0
C470 C 0.61551 0.42594 0.11711 0.0
C471 C 0.64313 0.44737 0.11058 0.0
C472 C 0.64918 0.47543 0.11124 0.0
C473 C 0.62843 0.4819 0.11827 0.0
C474 C 0.71604 0.45495 0.0975 0.0
C475 C 0.70824 0.43037 0.08523 0.0
C476 C 0.69494 0.45988 0.10641 0.0
C477 C 0.66547 0.44077 0.10267 0.0
C478 C 0.65775 0.41591 0.09058 0.0
C479 C 0.67893 0.41062 0.0822 0.0
H480 H 0.44196 0.85265 0.52356 0.0
H481 H 0.36793 0.86418 0.52214 0.0
H482 H 0.41171 0.80485 0.5378 0.0
H483 H 0.33758 0.8162 0.5355 0.0
H484 H 0.29371 0.73623 0.57641 0.0
H485 H 0.3275 0.78558 0.56783 0.0
H486 H 0.37375 0.76032 0.52303 0.0
H487 H 0.34044 0.71118 0.53193 0.0
C488 C 0.41928 0.84504 0.52641 0.0
C489 C 0.40731 0.86213 0.52155 0.0
C490 C 0.40191 0.81759 0.53438 0.0
C491 C 0.37221 0.80667 0.53772 0.0
C492 C 0.36041 0.82402 0.53335 0.0
C493 C 0.37775 0.85141 0.52538 0.0
C494 C 0.31128 0.74125 0.56493 0.0
C495 C 0.3143 0.7198 0.55476 0.0
C496 C 0.33055 0.76951 0.55991 0.0
C497 C 0.35323 0.77689 0.54464 0.0
C498 C 0.35673 0.75542 0.53505 0.0
C499 C 0.3375 0.72721 0.54005 0.0
H500 H 0.50653 0.37274 0.7026 0.0
H501 H 0.59521 0.4396 0.69814 0.0
H502 H 0.52243 0.33985 0.7133 0.0
H503 H 0.61112 0.40696 0.70989 0.0
H504 H 0.62709 0.33295 0.69901 0.0
H505 H 0.61265 0.36794 0.69296 0.0
H506 H 0.54511 0.3266 0.7423 0.0
H507 H 0.5592 0.29099 0.74796 0.0
C508 C 0.52944 0.38047 0.70406 0.0
C509 C 0.54961 0.40873 0.69923 0.0
C510 C 0.53855 0.36168 0.7105 0.0
C511 C 0.56806 0.37071 0.71235 0.0
C512 C 0.58822 0.39922 0.70831 0.0
C513 C 0.5791 0.41801 0.70182 0.0
C514 C 0.60925 0.33137 0.70868 0.0
C515 C 0.59419 0.3091 0.72388 0.0
C516 C 0.60111 0.3516 0.70533 0.0
C517 C 0.57774 0.35013 0.71716 0.0
C518 C 0.563 0.32815 0.73272 0.0
C519 C 0.57114 0.30783 0.73605 0.0
H520 H 0.14281 0.56792 0.88188 0.0
H521 H 0.16052 0.54921 0.81539 0.0
H522 H 0.19133 0.57958 0.89414 0.0
H523 H 0.2088 0.56007 0.82781 0.0
H524 H 0.26806 0.53939 0.87553 0.0
H525 H 0.2227 0.53331 0.86056 0.0
H526 H 0.24707 0.61756 0.88151 0.0
H527 H 0.29287 0.62407 0.896 0.0
C528 C 0.1573 0.56665 0.86989 0.0
C529 C 0.14827 0.55786 0.84774 0.0
C530 C 0.18492 0.57332 0.87685 0.0
C531 C 0.20358 0.57062 0.86187 0.0
C532 C 0.19467 0.56223 0.8396 0.0
C533 C 0.16727 0.55619 0.83251 0.0
C534 C 0.26379 0.55665 0.87686 0.0
C535 C 0.28393 0.58218 0.88696 0.0
C536 C 0.23799 0.55322 0.86817 0.0
C537 C 0.23161 0.57502 0.86989 0.0
C538 C 0.25163 0.60051 0.88002 0.0
C539 C 0.27776 0.6042 0.88825 0.0
H540 H 0.59244 0.16599 0.98866 0.0
H541 H 0.59365 0.13783 0.05634 0.0
H542 H 0.62347 0.21462 0.00043 0.0
H543 H 0.6247 0.18654 0.06815 0.0
H544 H 0.65988 0.3005 0.0323 0.0
H545 H 0.62478 0.25174 0.02348 0.0
H546 H 0.67431 0.22402 0.06225 0.0
H547 H 0.70916 0.27282 0.07146 0.0
C548 C 0.59895 0.17022 0.00613 0.0
C549 C 0.59067 0.14805 0.02154 0.0
C550 C 0.61674 0.1981 0.01289 0.0
C551 C 0.62663 0.20446 0.03522 0.0
C552 C 0.61783 0.18232 0.05075 0.0
C553 C 0.60004 0.15443 0.04398 0.0
C554 C 0.66316 0.28399 0.03911 0.0
C555 C 0.68737 0.29052 0.0525 0.0
C556 C 0.64312 0.25606 0.03393 0.0
C557 C 0.64684 0.234 0.04202 0.0
C558 C 0.67065 0.2405 0.05593 0.0
C559 C 0.69071 0.26847 0.06113 0.0
H560 H 0.43762 0.60331 0.15818 0.0
H561 H 0.44803 0.58782 0.22785 0.0
H562 H 0.42175 0.636 0.16962 0.0
H563 H 0.43179 0.62048 0.23939 0.0
H564 H 0.43846 0.70935 0.24491 0.0
H565 H 0.45091 0.6731 0.23644 0.0
H566 H 0.38017 0.63486 0.18925 0.0
H567 H 0.36779 0.67093 0.19755 0.0
C568 C 0.4364 0.60685 0.17595 0.0
C569 C 0.44411 0.59311 0.19213 0.0
C570 C 0.42711 0.62539 0.18251 0.0
C571 C 0.42551 0.63076 0.2054 0.0
C572 C 0.43299 0.61684 0.22163 0.0
C573 C 0.44202 0.59802 0.21505 0.0
C574 C 0.42544 0.69305 0.23288 0.0
C575 C 0.40229 0.69313 0.22178 0.0
C576 C 0.43247 0.67224 0.22813 0.0
C577 C 0.41662 0.6513 0.21206 0.0
C578 C 0.39299 0.65096 0.20148 0.0
C579 C 0.38586 0.67158 0.20632 0.0
H580 H 0.8341 0.41565 0.34168 0.0
H581 H 0.87366 0.49911 0.36988 0.0
H582 H 0.78717 0.40589 0.35586 0.0
H583 H 0.82747 0.48915 0.38531 0.0
H584 H 0.73784 0.47632 0.38822 0.0
H585 H 0.78385 0.48437 0.37421 0.0
H586 H 0.75768 0.39722 0.38725 0.0
H587 H 0.7109 0.38892 0.40007 0.0
C588 C 0.83268 0.43168 0.35125 0.0
C589 C 0.85718 0.45813 0.35463 0.0
C590 C 0.80591 0.42612 0.3595 0.0
C591 C 0.80333 0.4468 0.37162 0.0
C592 C 0.82832 0.47295 0.37555 0.0
C593 C 0.85486 0.47864 0.36693 0.0
C594 C 0.74195 0.4589 0.3881 0.0
C595 C 0.72081 0.43202 0.39528 0.0
C596 C 0.76846 0.46353 0.38021 0.0
C597 C 0.77476 0.44153 0.37974 0.0
C598 C 0.75354 0.4146 0.38702 0.0
C599 C 0.72676 0.40985 0.39452 0.0
H600 H 0.10453 0.52472 0.41067 0.0
H601 H 0.0972 0.59955 0.41389 0.0
H602 H 0.13659 0.54088 0.44302 0.0
H603 H 0.1308 0.61659 0.4454 0.0
H604 H 0.16623 0.6234 0.51678 0.0
H605 H 0.13407 0.60803 0.48429 0.0
H606 H 0.18404 0.57483 0.45392 0.0
H607 H 0.21544 0.58925 0.48676 0.0
C608 C 0.10975 0.54464 0.41826 0.0
C609 C 0.09812 0.56074 0.40969 0.0
C610 C 0.12853 0.55413 0.43664 0.0
C611 C 0.13642 0.58012 0.44682 0.0
C612 C 0.12495 0.59633 0.43816 0.0
C613 C 0.10597 0.58673 0.41987 0.0
C614 C 0.17034 0.61286 0.50313 0.0
C615 C 0.19325 0.60739 0.50437 0.0
C616 C 0.15201 0.60418 0.48443 0.0
C617 C 0.15636 0.59008 0.46647 0.0
C618 C 0.17967 0.58512 0.4676 0.0
C619 C 0.19781 0.59356 0.48638 0.0
H620 H 0.51913 0.06571 0.60063 0.0
H621 H 0.55008 0.13754 0.5564 0.0
H622 H 0.53544 0.09709 0.6332 0.0
H623 H 0.56631 0.16896 0.58902 0.0
H624 H 0.62335 0.21273 0.652 0.0
H625 H 0.60493 0.18223 0.61906 0.0
H626 H 0.52361 0.13133 0.65269 0.0
H627 H 0.54194 0.16193 0.68567 0.0
C628 C 0.52942 0.08822 0.59791 0.0
C629 C 0.53343 0.09923 0.57602 0.0
C630 C 0.53852 0.10613 0.61653 0.0
C631 C 0.55214 0.13543 0.61361 0.0
C632 C 0.55603 0.14645 0.59172 0.0
C633 C 0.54659 0.1285 0.5731 0.0
C634 C 0.60151 0.19509 0.65234 0.0
C635 C 0.58411 0.18968 0.67144 0.0
C636 C 0.59093 0.17775 0.63344 0.0
C637 C 0.56287 0.15443 0.63335 0.0
C638 C 0.54541 0.14906 0.65239 0.0
C639 C 0.55586 0.16663 0.67121 0.0
H640 H 0.43364 0.5694 0.7355 0.0
H641 H 0.49086 0.55173 0.77455 0.0
H642 H 0.41929 0.58373 0.76977 0.0
H643 H 0.47696 0.56653 0.80863 0.0
H644 H 0.4114 0.55332 0.86441 0.0
H645 H 0.43117 0.54526 0.83036 0.0
H646 H 0.4382 0.62033 0.80072 0.0
H647 H 0.41821 0.62851 0.83498 0.0
C648 C 0.44331 0.5688 0.75137 0.0
C649 C 0.46326 0.5593 0.75236 0.0
C650 C 0.43532 0.57726 0.77093 0.0
C651 C 0.44693 0.57612 0.79186 0.0
C652 C 0.46747 0.56739 0.79274 0.0
C653 C 0.47561 0.55914 0.7732 0.0
C654 C 0.41729 0.56826 0.85072 0.0
C655 C 0.41313 0.59152 0.85239 0.0
C656 C 0.42882 0.56371 0.83126 0.0
C657 C 0.43627 0.58219 0.8129 0.0
C658 C 0.43247 0.60567 0.81459 0.0
C659 C 0.42118 0.61041 0.83422 0.0
H660 H 0.90187 0.49111 0.91231 0.0
H661 H 0.89735 0.41052 0.90749 0.0
H662 H 0.86916 0.47412 0.94433 0.0
H663 H 0.86419 0.39324 0.93923 0.0
H664 H 0.83181 0.38286 0.01164 0.0
H665 H 0.86349 0.39906 0.97905 0.0
H666 H 0.82009 0.44233 0.95443 0.0
H667 H 0.78904 0.42684 0.98742 0.0
C668 C 0.8936 0.46965 0.91796 0.0
C669 C 0.90221 0.45216 0.90746 0.0
C670 C 0.8748 0.45986 0.93627 0.0
C671 C 0.86402 0.43229 0.94438 0.0
C672 C 0.87245 0.41474 0.93368 0.0
C673 C 0.8914 0.4246 0.91548 0.0
C674 C 0.829 0.39578 -0.00076 0.0
C675 C 0.808 0.40366 0.00214 0.0
C676 C 0.84705 0.40494 0.98048 0.0
C677 C 0.84438 0.42204 0.9641 0.0
C678 C 0.82307 0.42958 0.96688 0.0
C679 C 0.80514 0.42055 0.98572 0.0
H680 H 0.50206 0.90069 0.07607 0.0
H681 H 0.42406 0.90536 0.07832 0.0
H682 H 0.48543 0.86865 0.10817 0.0
H683 H 0.40758 0.87374 0.11058 0.0
H684 H 0.37358 0.79574 0.15411 0.0
H685 H 0.39046 0.8258 0.12096 0.0
H686 H 0.47707 0.86798 0.14792 0.0
H687 H 0.46026 0.83728 0.1808 0.0
C688 C 0.48144 0.895 0.08353 0.0
C689 C 0.46434 0.90549 0.07465 0.0
C690 C 0.47192 0.87669 0.10195 0.0
C691 C 0.44514 0.86858 0.11198 0.0
C692 C 0.42807 0.87911 0.10304 0.0
C693 C 0.43752 0.89727 0.08456 0.0
C694 C 0.39625 0.81136 0.15292 0.0
C695 C 0.41558 0.81419 0.1701 0.0
C696 C 0.40591 0.82872 0.13397 0.0
C697 C 0.43511 0.84945 0.1318 0.0
C698 C 0.4545 0.85203 0.1489 0.0
C699 C 0.44485 0.83454 0.16781 0.0
H700 H 0.58885 0.50203 0.25792 0.0
H701 H 0.51763 0.41704 0.25088 0.0
H702 H 0.60428 0.48839 0.29183 0.0
H703 H 0.53242 0.40367 0.28548 0.0
H704 H 0.58572 0.38526 0.33737 0.0
H705 H 0.57033 0.39662 0.30203 0.0
H706 H 0.58729 0.47608 0.32998 0.0
H707 H 0.6031 0.46511 0.36489 0.0
C708 C 0.57658 0.48037 0.26351 0.0
C709 C 0.55196 0.46066 0.25168 0.0
C710 C 0.58521 0.47263 0.28314 0.0
C711 C 0.56941 0.445 0.29151 0.0
C712 C 0.54514 0.42508 0.27943 0.0
C713 C 0.5365 0.43284 0.25974 0.0
C714 C 0.58604 0.40509 0.33597 0.0
C715 C 0.59584 0.42434 0.35393 0.0
C716 C 0.57715 0.41156 0.31575 0.0
C717 C 0.57788 0.4374 0.3131 0.0
C718 C 0.58705 0.45627 0.33126 0.0
C719 C 0.59595 0.44986 0.35137 0.0
H720 H 0.44169 0.94067 0.36621 0.0
H721 H 0.45303 0.87871 0.40286 0.0
H722 H 0.42954 0.91215 0.33283 0.0
H723 H 0.44403 0.85158 0.36858 0.0
H724 H 0.39455 0.79382 0.30918 0.0
H725 H 0.40923 0.82164 0.34363 0.0
H726 H 0.44679 0.89799 0.30385 0.0
H727 H 0.42997 0.86994 0.26976 0.0
C728 C 0.44168 0.92097 0.36724 0.0
C729 C 0.44809 0.91203 0.38753 0.0
C730 C 0.43534 0.9048 0.34777 0.0
C731 C 0.43601 0.87949 0.3477 0.0
C732 C 0.44288 0.87071 0.3679 0.0
C733 C 0.44856 0.8866 0.38758 0.0
C734 C 0.40616 0.81658 0.30794 0.0
C735 C 0.41091 0.8298 0.28692 0.0
C736 C 0.41474 0.83262 0.32768 0.0
C737 C 0.42891 0.86226 0.32674 0.0
C738 C 0.43507 0.8753 0.30546 0.0
C739 C 0.42574 0.85926 0.28584 0.0
H740 H 0.51264 0.44999 0.54344 0.0
H741 H 0.56363 0.42852 0.58684 0.0
H742 H 0.52846 0.43446 0.51088 0.0
H743 H 0.57974 0.41336 0.55416 0.0
H744 H 0.62825 0.42319 0.48761 0.0
H745 H 0.61057 0.43573 0.52083 0.0
H746 H 0.52403 0.39116 0.49398 0.0
H747 H 0.54173 0.37877 0.46061 0.0
C748 C 0.52693 0.44164 0.54609 0.0
C749 C 0.53689 0.44054 0.56777 0.0
C750 C 0.53602 0.43278 0.52741 0.0
C751 C 0.55538 0.42275 0.52996 0.0
C752 C 0.56512 0.42136 0.55164 0.0
C753 C 0.55593 0.4301 0.57034 0.0
C754 C 0.60544 0.416 0.48882 0.0
C755 C 0.58639 0.40006 0.47147 0.0
C756 C 0.59529 0.42304 0.50791 0.0
C757 C 0.56592 0.41443 0.51001 0.0
C758 C 0.54683 0.39833 0.49272 0.0
C759 C 0.55695 0.39114 0.47368 0.0
H760 H 0.07193 0.56394 0.70159 0.0
H761 H 0.13001 0.54296 0.73604 0.0
H762 H 0.10331 0.57866 0.66879 0.0
H763 H 0.16011 0.556 0.7025 0.0
H764 H 0.1719 0.54251 0.62427 0.0
H765 H 0.14472 0.53279 0.65927 0.0
H766 H 0.16206 0.61846 0.66083 0.0
H767 H 0.19015 0.6286 0.62601 0.0
C768 C 0.09145 0.56272 0.70239 0.0
C769 C 0.09824 0.55211 0.72163 0.0
C770 C 0.1093 0.57103 0.68349 0.0
C771 C 0.13397 0.56838 0.68323 0.0
C772 C 0.14103 0.55806 0.70235 0.0
C773 C 0.12357 0.55033 0.72145 0.0
C774 C 0.17003 0.55932 0.6321 0.0
C775 C 0.18308 0.58631 0.62242 0.0
C776 C 0.15463 0.55377 0.65215 0.0
C777 C 0.15143 0.57491 0.66261 0.0
C778 C 0.16431 0.60188 0.65297 0.0
C779 C 0.18037 0.60765 0.63316 0.0
H780 H 0.5988 0.10125 0.88811 0.0
H781 H 0.52082 0.10613 0.88894 0.0
H782 H 0.61433 0.12991 0.85421 0.0
H783 H 0.53584 0.13388 0.85438 0.0
H784 H 0.58595 0.20567 0.80363 0.0
H785 H 0.57126 0.17965 0.83906 0.0
H786 H 0.60078 0.12423 0.81498 0.0
H787 H 0.61594 0.15041 0.77993 0.0
C788 C 0.58505 0.10861 0.88117 0.0
C789 C 0.55854 0.10135 0.89127 0.0
C790 C 0.59379 0.12475 0.86154 0.0
C791 C 0.57622 0.134 0.85145 0.0
C792 C 0.54997 0.12724 0.86178 0.0
C793 C 0.54122 0.11108 0.88145 0.0
C794 C 0.5893 0.18793 0.80591 0.0
C795 C 0.60223 0.18022 0.78893 0.0
C796 C 0.58076 0.17294 0.82618 0.0
C797 C 0.58499 0.14995 0.82992 0.0
C798 C 0.59768 0.14214 0.81285 0.0
C799 C 0.60621 0.15708 0.79264 0.0
H800 H 0.47978 0.54863 0.04003 0.0
H801 H 0.42866 0.56902 0.08385 0.0
H802 H 0.46476 0.56574 0.00785 0.0
H803 H 0.41324 0.58567 0.05149 0.0
H804 H 0.36849 0.58233 0.98366 0.0
H805 H 0.38362 0.56632 0.01662 0.0
H806 H 0.47166 0.61124 -0.00674 0.0
H807 H 0.45657 0.62713 0.96026 0.0
C808 C 0.46552 0.55696 0.04285 0.0
C809 C 0.45553 0.55754 0.06458 0.0
C810 C 0.45689 0.56672 0.02439 0.0
C811 C 0.43791 0.57713 0.02716 0.0
C812 C 0.42766 0.5775 0.04881 0.0
C813 C 0.43645 0.56789 0.06733 0.0
C814 C 0.39109 0.58885 0.9856 0.0
C815 C 0.41133 0.60591 0.96934 0.0
C816 C 0.39975 0.57979 0.00452 0.0
C817 C 0.4288 0.58746 0.00747 0.0
C818 C 0.44906 0.60472 0.9913 0.0
C819 C 0.44044 0.61394 0.97247 0.0
H820 H 0.86613 0.43328 0.23704 0.0
H821 H 0.94451 0.46916 0.19814 0.0
H822 H 0.83774 0.41793 0.20232 0.0
H823 H 0.91633 0.45355 0.16358 0.0
H824 H 0.85963 0.46004 0.10928 0.0
H825 H 0.88733 0.46872 0.14355 0.0
H826 H 0.82391 0.3871 0.16898 0.0
H827 H 0.79554 0.37849 0.13452 0.0
C828 C 0.87724 0.43745 0.22109 0.0
C829 C 0.9075 0.4528 0.22023 0.0
C830 C 0.86102 0.4286 0.20122 0.0
C831 C 0.87479 0.43483 0.18018 0.0
C832 C 0.90506 0.44898 0.17949 0.0
C833 C 0.92121 0.45793 0.19926 0.0
C834 C 0.85155 0.44378 0.12205 0.0
C835 C 0.82528 0.41857 0.11913 0.0
C836 C 0.86761 0.44871 0.14169 0.0
C837 C 0.85792 0.42855 0.15898 0.0
C838 C 0.83183 0.40312 0.15602 0.0
C839 C 0.81569 0.39813 0.13624 0.0
loop_
_geom_bond_atom_site_label_1
_geom_bond_atom_site_label_2
_geom_bond_distance
_geom_bond_site_symmetry_2
_ccdc_geom_bond_type
C0 C1 1.384 . S
C0 C2 1.384 . S
C0 H28 0.931 . S
C1 C0 1.384 . S
C1 C4 1.382 . S
C2 C0 1.384 . S
C2 C3 1.381 . S
C2 H29 0.930 . S
C3 C2 1.381 . S
C3 C5 1.381 . S
C3 C6 1.487 . S
C4 C1 1.382 . S
C4 C5 1.387 . S
C4 H30 0.930 . S
C5 C3 1.381 . S
C5 C4 1.387 . S
C5 H31 0.931 . S
C6 C3 1.487 . S
C6 C13 1.399 . S
C6 N44 1.343 1_655 S
C7 C8 1.384 . S
C7 C9 1.384 . S
C7 H32 0.931 . S
C8 C7 1.384 . S
C8 C11 1.382 . S
C9 C7 1.384 . S
C9 C10 1.381 . S
C9 H33 0.930 . S
C10 C9 1.381 . S
C10 C12 1.381 . S
C10 C13 1.487 . S
C11 C8 1.382 . S
C11 C12 1.387 . S
C11 H34 0.930 . S
C12 C10 1.381 . S
C12 C11 1.387 . S
C12 H35 0.931 . S
C13 C6 1.399 . S
C13 C10 1.487 . S
C13 N45 1.343 1_655 S
C14 C15 1.384 . S
C14 C16 1.384 . S
C14 H36 0.931 . S
C15 C14 1.384 . S
C15 C18 1.382 . S
C16 C14 1.384 . S
C16 C17 1.381 . S
C16 H37 0.930 . S
C17 C16 1.381 . S
C17 C19 1.381 . S
C17 C20 1.487 . S
C18 C15 1.382 . S
C18 C19 1.387 . S
C18 H38 0.930 . S
C19 C17 1.381 . S
C19 C18 1.387 . S
C19 H39 0.931 . S
C20 C17 1.487 . S
C20 C27 1.399 . S
C20 N45 1.343 . S
C21 C22 1.384 . S
C21 C23 1.384 . S
C21 H40 0.931 . S
C22 C21 1.384 . S
C22 C25 1.382 . S
C23 C21 1.384 . S
C23 C24 1.381 . S
C23 H41 0.930 . S
C24 C23 1.381 . S
C24 C26 1.381 . S
C24 C27 1.487 . S
C25 C22 1.382 . S
C25 C26 1.387 . S
C25 H42 0.930 . S
C26 C24 1.381 . S
C26 C25 1.387 . S
C26 H43 0.931 . S
C27 C20 1.399 . S
C27 C24 1.487 . S
C27 N44 1.343 . S
H28 C0 0.931 . S
H29 C2 0.930 . S
H30 C4 0.930 . S
H31 C5 0.931 . S
H32 C7 0.931 . S
H33 C9 0.930 . S
H34 C11 0.930 . S
H35 C12 0.931 . S
H36 C14 0.931 . S
H37 C16 0.930 . S
H38 C18 0.930 . S
H39 C19 0.931 . S
H40 C21 0.931 . S
H41 C23 0.930 . S
H42 C25 0.930 . S
H43 C26 0.931 . S
N44 C6 1.343 1_455 S
N44 C27 1.343 . S
N45 C13 1.343 1_455 S
N45 C20 1.343 . S
C46 C47 1.384 . S
C46 C48 1.384 . S
C46 H74 0.931 . S
C47 C46 1.384 . S
C47 C50 1.382 . S
C48 C46 1.384 . S
C48 C49 1.381 . S
C48 H75 0.930 . S
C49 C48 1.381 . S
C49 C51 1.381 . S
C49 C52 1.487 . S
C50 C47 1.382 . S
C50 C51 1.387 . S
C50 H76 0.930 . S
C51 C49 1.381 . S
C51 C50 1.387 . S
C51 H77 0.931 . S
C52 C49 1.487 . S
C52 C59 1.399 . S
C52 N90 1.343 1_565 S
C53 C54 1.384 . S
C53 C55 1.384 . S
C53 H78 0.931 . S
C54 C53 1.384 . S
C54 C57 1.382 . S
C55 C53 1.384 . S
C55 C56 1.381 . S
C55 H79 0.930 . S
C56 C55 1.381 . S
C56 C58 1.381 . S
C56 C59 1.487 . S
C57 C54 1.382 . S
C57 C58 1.387 . S
C57 H80 0.930 . S
C58 C56 1.381 . S
C58 C57 1.387 . S
C58 H81 0.931 . S
C59 C52 1.399 . S
C59 C56 1.487 . S
C59 N91 1.343 1_565 S
C60 C61 1.384 . S
C60 C62 1.384 . S
C60 H82 0.931 . S
C61 C60 1.384 . S
C61 C64 1.382 . S
C62 C60 1.384 . S
C62 C63 1.381 . S
C62 H83 0.930 . S
C63 C62 1.381 . S
C63 C65 1.381 . S
C63 C66 1.487 . S
C64 C61 1.382 . S
C64 C65 1.387 . S
C64 H84 0.930 . S
C65 C63 1.381 . S
C65 C64 1.387 . S
C65 H85 0.931 . S
C66 C63 1.487 . S
C66 C73 1.399 . S
C66 N91 1.343 . S
C67 C68 1.384 . S
C67 C69 1.384 . S
C67 H86 0.931 . S
C68 C67 1.384 . S
C68 C71 1.382 . S
C69 C67 1.384 . S
C69 C70 1.381 . S
C69 H87 0.930 . S
C70 C69 1.381 . S
C70 C72 1.381 . S
C70 C73 1.487 . S
C71 C68 1.382 . S
C71 C72 1.387 . S
C71 H88 0.930 . S
C72 C70 1.381 . S
C72 C71 1.387 . S
C72 H89 0.931 . S
C73 C66 1.399 . S
C73 C70 1.487 . S
C73 N90 1.343 . S
H74 C46 0.931 . S
H75 C48 0.930 . S
H76 C50 0.930 . S
H77 C51 0.931 . S
H78 C53 0.931 . S
H79 C55 0.930 . S
H80 C57 0.930 . S
H81 C58 0.931 . S
H82 C60 0.931 . S
H83 C62 0.930 . S
H84 C64 0.930 . S
H85 C65 0.931 . S
H86 C67 0.931 . S
H87 C69 0.930 . S
H88 C71 0.930 . S
H89 C72 0.931 . S
N90 C52 1.343 1_545 S
N90 C73 1.343 . S
N91 C59 1.343 1_545 S
N91 C66 1.343 . S
C92 C93 1.384 . S
C92 C94 1.384 . S
C92 H120 0.931 . S
C93 C92 1.384 . S
C93 C96 1.382 . S
C94 C92 1.384 . S
C94 C95 1.381 . S
C94 H121 0.930 . S
C95 C94 1.381 . S
C95 C97 1.381 . S
C95 C98 1.487 . S
C96 C93 1.382 . S
C96 C97 1.387 . S
C96 H122 0.930 . S
C97 C95 1.381 . S
C97 C96 1.387 . S
C97 H123 0.931 . S
C98 C95 1.487 . S
C98 C105 1.399 . S
C98 N136 1.343 . S
C99 C100 1.384 . S
C99 C101 1.384 . S
C99 H124 0.931 . S
C100 C99 1.384 . S
C100 C103 1.382 . S
C101 C99 1.384 . S
C101 C102 1.381 . S
C101 H125 0.930 . S
C102 C101 1.381 . S
C102 C104 1.381 . S
C102 C105 1.487 . S
C103 C100 1.382 . S
C103 C104 1.387 . S
C103 H126 0.930 . S
C104 C102 1.381 . S
C104 C103 1.387 . S
C104 H127 0.931 . S
C105 C98 1.399 . S
C105 C102 1.487 . S
C105 N137 1.343 . S
C106 C107 1.384 . S
C106 C108 1.384 . S
C106 H128 0.931 . S
C107 C106 1.384 . S
C107 C110 1.382 . S
C108 C106 1.384 . S
C108 C109 1.381 . S
C108 H129 0.930 . S
C109 C108 1.381 . S
C109 C111 1.381 . S
C109 C112 1.487 . S
C110 C107 1.382 . S
C110 C111 1.387 . S
C110 H130 0.930 . S
C111 C109 1.381 . S
C111 C110 1.387 . S
C111 H131 0.931 . S
C112 C109 1.487 . S
C112 C119 1.399 . S
C112 N137 1.343 . S
C113 C114 1.384 . S
C113 C115 1.384 . S
C113 H132 0.931 . S
C114 C113 1.384 . S
C114 C117 1.382 . S
C115 C113 1.384 . S
C115 C116 1.381 . S
C115 H133 0.930 . S
C116 C115 1.381 . S
C116 C118 1.381 . S
C116 C119 1.487 . S
C117 C114 1.382 . S
C117 C118 1.387 . S
C117 H134 0.930 . S
C118 C116 1.381 . S
C118 C117 1.387 . S
C118 H135 0.931 . S
C119 C112 1.399 . S
C119 C116 1.487 . S
C119 N136 1.343 . S
H120 C92 0.931 . S
H121 C94 0.930 . S
H122 C96 0.930 . S
H123 C97 0.931 . S
H124 C99 0.931 . S
H125 C101 0.930 . S
H126 C103 0.930 . S
H127 C104 0.931 . S
H128 C106 0.931 . S
H129 C108 0.930 . S
H130 C110 0.930 . S
H131 C111 0.931 . S
H132 C113 0.931 . S
H133 C115 0.930 . S
H134 C117 0.930 . S
H135 C118 0.931 . S
N136 C98 1.343 . S
N136 C119 1.343 . S
N137 C105 1.343 . S
N137 C112 1.343 . S
C138 C139 1.384 . S
C138 C140 1.384 . S
C138 H166 0.931 . S
C139 C138 1.384 . S
C139 C142 1.382 . S
C140 C138 1.384 . S
C140 C141 1.381 . S
C140 H167 0.930 . S
C141 C140 1.381 . S
C141 C143 1.381 . S
C141 C144 1.487 . S
C142 C139 1.382 . S
C142 C143 1.387 . S
C142 H168 0.930 . S
C143 C141 1.381 . S
C143 C142 1.387 . S
C143 H169 0.931 . S
C144 C141 1.487 . S
C144 C151 1.399 . S
C144 N182 1.349 . S
C145 C146 1.384 . S
C145 C147 1.384 . S
C145 H170 0.931 . S
C146 C145 1.384 . S
C146 C149 1.382 . S
C147 C145 1.384 . S
C147 C148 1.381 . S
C147 H171 0.930 . S
C148 C147 1.381 . S
C148 C150 1.381 . S
C148 C151 1.487 . S
C149 C146 1.382 . S
C149 C150 1.387 . S
C149 H172 0.930 . S
C150 C148 1.381 . S
C150 C149 1.387 . S
C150 H173 0.931 . S
C151 C144 1.399 . S
C151 C148 1.487 . S
C151 N183 1.343 1_655 S
C152 C153 1.384 . S
C152 C154 1.384 . S
C152 H174 0.931 . S
C153 C152 1.384 . S
C153 C156 1.382 . S
C154 C152 1.384 . S
C154 C155 1.381 . S
C154 H175 0.930 . S
C155 C154 1.381 . S
C155 C157 1.381 . S
C155 C158 1.487 . S
C156 C153 1.382 . S
C156 C157 1.387 . S
C156 H176 0.930 . S
C157 C155 1.381 . S
C157 C156 1.387 . S
C157 H177 0.931 . S
C158 C155 1.487 . S
C158 C165 1.399 . S
C158 N183 1.343 . S
C159 C160 1.384 . S
C159 C161 1.384 . S
C159 H178 0.931 . S
C160 C159 1.384 . S
C160 C163 1.382 . S
C161 C159 1.384 . S
C161 C162 1.381 . S
C161 H179 0.930 . S
C162 C161 1.381 . S
C162 C164 1.381 . S
C162 C165 1.487 . S
C163 C160 1.382 . S
C163 C164 1.387 . S
C163 H180 0.930 . S
C164 C162 1.381 . S
C164 C163 1.387 . S
C164 H181 0.931 . S
C165 C158 1.399 . S
C165 C162 1.487 . S
C165 N182 1.332 1_455 S
H166 C138 0.931 . S
H167 C140 0.930 . S
H168 C142 0.930 . S
H169 C143 0.931 . S
H170 C145 0.931 . S
H171 C147 0.930 . S
H172 C149 0.930 . S
H173 C150 0.931 . S
H174 C152 0.931 . S
H175 C154 0.930 . S
H176 C156 0.930 . S
H177 C157 0.931 . S
H178 C159 0.931 . S
H179 C161 0.930 . S
H180 C163 0.930 . S
H181 C164 0.931 . S
N182 C144 1.349 . S
N182 C165 1.332 1_655 S
N183 C151 1.343 1_455 S
N183 C158 1.343 . S
C184 C185 1.384 . S
C184 C186 1.384 . S
C184 H212 0.931 . S
C185 C184 1.384 . S
C185 C188 1.382 . S
C186 C184 1.384 . S
C186 C187 1.381 . S
C186 H213 0.930 1_556 S
C187 C186 1.381 . S
C187 C189 1.381 . S
C187 C190 1.487 . S
C188 C185 1.382 . S
C188 C189 1.387 . S
C188 H214 0.930 . S
C189 C187 1.381 . S
C189 C188 1.387 . S
C189 H215 0.931 . S
C190 C187 1.487 . S
C190 C197 1.399 1_556 S
C190 N228 1.359 . S
C191 C192 1.384 . S
C191 C193 1.384 . S
C191 H216 0.931 . S
C192 C191 1.384 . S
C192 C195 1.382 . S
C193 C191 1.384 . S
C193 C194 1.381 . S
C193 H217 0.930 . S
C194 C193 1.381 . S
C194 C196 1.381 . S
C194 C197 1.487 . S
C195 C192 1.382 . S
C195 C196 1.387 . S
C195 H218 0.930 . S
C196 C194 1.381 . S
C196 C195 1.387 . S
C196 H219 0.931 . S
C197 C190 1.399 1_554 S
C197 C194 1.487 . S
C197 N229 1.343 1_565 S
C198 C199 1.384 . S
C198 C200 1.384 1_554 S
C198 H220 0.941 . S
C199 C198 1.384 . S
C199 C202 1.382 . S
C200 C198 1.384 1_556 S
C200 C201 1.381 1_556 S
C200 H221 0.930 . S
C201 C200 1.381 1_554 S
C201 C203 1.381 . S
C201 C204 1.476 1_554 S
C202 C199 1.382 . S
C202 C203 1.387 . S
C202 H222 0.930 . S
C203 C201 1.381 . S
C203 C202 1.387 . S
C203 H223 0.931 . S
C204 C201 1.476 1_556 S
C204 C211 1.439 . S
C204 N229 1.311 1_556 S
C205 C206 1.384 . S
C205 C207 1.384 . S
C205 H224 0.931 . S
C206 C205 1.384 . S
C206 C209 1.382 . S
C207 C205 1.384 . S
C207 C208 1.381 . S
C207 H225 0.930 . S
C208 C207 1.381 . S
C208 C210 1.381 . S
C208 C211 1.487 . S
C209 C206 1.382 . S
C209 C210 1.387 . S
C209 H226 0.930 . S
C210 C208 1.381 . S
C210 C209 1.387 . S
C210 H227 0.931 . S
C211 C204 1.439 . S
C211 C208 1.487 . S
C211 N228 1.321 1_545 S
H212 C184 0.931 . S
H213 C186 0.930 1_554 S
H214 C188 0.930 . S
H215 C189 0.931 . S
H216 C191 0.931 . S
H217 C193 0.930 . S
H218 C195 0.930 . S
H219 C196 0.931 . S
H220 C198 0.941 . S
H221 C200 0.930 . S
H222 C202 0.930 . S
H223 C203 0.931 . S
H224 C205 0.931 . S
H225 C207 0.930 . S
H226 C209 0.930 . S
H227 C210 0.931 . S
N228 C190 1.359 . S
N228 C211 1.321 1_565 S
N229 C197 1.343 1_545 S
N229 C204 1.311 1_554 S
C230 C231 1.384 . S
C230 C232 1.384 . S
C230 H258 0.931 . S
C231 C230 1.384 . S
C231 C234 1.382 . S
C232 C230 1.384 . S
C232 C233 1.381 . S
C232 H259 0.930 . S
C233 C232 1.381 . S
C233 C235 1.381 . S
C233 C236 1.487 . S
C234 C231 1.382 . S
C234 C235 1.387 . S
C234 H260 0.930 . S
C235 C233 1.381 . S
C235 C234 1.387 . S
C235 H261 0.931 . S
C236 C233 1.487 . S
C236 C243 1.399 . S
C236 N274 1.343 . S
C237 C238 1.384 . S
C237 C239 1.384 . S
C237 H262 0.931 . S
C238 C237 1.384 . S
C238 C241 1.382 . S
C239 C237 1.384 . S
C239 C240 1.381 . S
C239 H263 0.930 . S
C240 C239 1.381 . S
C240 C242 1.381 . S
C240 C243 1.487 . S
C241 C238 1.382 . S
C241 C242 1.387 . S
C241 H264 0.930 . S
C242 C240 1.381 . S
C242 C241 1.387 . S
C242 H265 0.931 . S
C243 C236 1.399 . S
C243 C240 1.487 . S
C243 N275 1.343 . S
C244 C245 1.384 . S
C244 C246 1.384 . S
C244 H266 0.931 . S
C245 C244 1.384 . S
C245 C248 1.382 . S
C246 C244 1.384 . S
C246 C247 1.381 . S
C246 H267 0.930 . S
C247 C246 1.381 . S
C247 C249 1.381 . S
C247 C250 1.487 . S
C248 C245 1.382 . S
C248 C249 1.387 . S
C248 H268 0.930 . S
C249 C247 1.381 . S
C249 C248 1.387 . S
C249 H269 0.931 . S
C250 C247 1.487 . S
C250 C257 1.399 . S
C250 N275 1.343 . S
C251 C252 1.384 . S
C251 C253 1.384 . S
C251 H270 0.931 . S
C252 C251 1.384 . S
C252 C255 1.382 . S
C253 C251 1.384 . S
C253 C254 1.381 . S
C253 H271 0.930 . S
C254 C253 1.381 . S
C254 C256 1.381 . S
C254 C257 1.487 . S
C255 C252 1.382 . S
C255 C256 1.387 . S
C255 H272 0.930 . S
C256 C254 1.381 . S
C256 C255 1.387 . S
C256 H273 0.931 . S
C257 C250 1.399 . S
C257 C254 1.487 . S
C257 N274 1.343 . S
H258 C230 0.931 . S
H259 C232 0.930 . S
H260 C234 0.930 . S
H261 C235 0.931 . S
H262 C237 0.931 . S
H263 C239 0.930 . S
H264 C241 0.930 . S
H265 C242 0.931 . S
H266 C244 0.931 . S
H267 C246 0.930 . S
H268 C248 0.930 . S
H269 C249 0.931 . S
H270 C251 0.931 . S
H271 C253 0.930 . S
H272 C255 0.930 . S
H273 C256 0.931 . S
N274 C236 1.343 . S
N274 C257 1.343 . S
N275 C243 1.343 . S
N275 C250 1.343 . S
C276 O277 1.306 . S
C276 O279 1.160 . S
O277 C276 1.306 . S
O277 Cd278 2.228 . S
Cd278 O277 2.228 . S
Cd278 O282 2.273 . S
Cd278 O286 2.277 . S
O279 C276 1.160 . S
O279 Cd280 2.203 . S
Cd280 O279 2.203 . S
Cd280 O282 2.411 . S
Cd280 O283 2.333 . S
Cd280 O284 2.352 . S
Cd280 O288 2.277 . S
Cd280 O289 2.356 . S
C281 O286 1.209 . S
C281 O288 1.226 . S
O282 Cd278 2.273 . S
O282 Cd280 2.411 . S
O282 C285 1.320 . S
O283 Cd280 2.333 . S
O283 C285 1.214 . S
O284 Cd280 2.352 . S
O284 C287 1.258 . S
C285 O282 1.320 . S
C285 O283 1.214 . S
O286 Cd278 2.277 . S
O286 C281 1.209 . S
C287 O284 1.258 . S
C287 O289 1.282 . S
O288 Cd280 2.277 . S
O288 C281 1.226 . S
O289 Cd280 2.356 . S
O289 C287 1.282 . S
C290 O291 1.306 . S
C290 O293 1.160 . S
O291 C290 1.306 . S
O291 Cd292 2.228 . S
Cd292 O291 2.228 . S
Cd292 O296 2.273 . S
Cd292 O300 2.277 . S
O293 C290 1.160 . S
O293 Cd294 2.203 . S
Cd294 O293 2.203 . S
Cd294 O296 2.411 . S
Cd294 O297 2.333 . S
Cd294 O298 2.352 . S
Cd294 O302 2.277 . S
Cd294 O303 2.356 . S
C295 O300 1.209 . S
C295 O302 1.226 . S
O296 Cd292 2.273 . S
O296 Cd294 2.411 . S
O296 C299 1.320 . S
O297 Cd294 2.333 . S
O297 C299 1.214 . S
O298 Cd294 2.352 . S
O298 C301 1.258 . S
C299 O296 1.320 . S
C299 O297 1.214 . S
O300 Cd292 2.277 . S
O300 C295 1.209 . S
C301 O298 1.258 . S
C301 O303 1.282 . S
O302 Cd294 2.277 . S
O302 C295 1.226 . S
O303 Cd294 2.356 . S
O303 C301 1.282 . S
C304 O305 1.306 . S
C304 O307 1.160 . S
O305 C304 1.306 . S
O305 Cd306 2.228 . S
Cd306 O305 2.228 . S
Cd306 O310 2.273 . S
Cd306 O314 2.277 . S
O307 C304 1.160 . S
O307 Cd308 2.203 . S
Cd308 O307 2.203 . S
Cd308 O310 2.411 . S
Cd308 O311 2.333 . S
Cd308 O312 2.352 . S
Cd308 O316 2.277 . S
Cd308 O317 2.356 . S
C309 O314 1.209 . S
C309 O316 1.226 . S
O310 Cd306 2.273 . S
O310 Cd308 2.411 . S
O310 C313 1.320 . S
O311 Cd308 2.333 . S
O311 C313 1.214 . S
O312 Cd308 2.352 . S
O312 C315 1.258 . S
C313 O310 1.320 . S
C313 O311 1.214 . S
O314 Cd306 2.277 . S
O314 C309 1.209 . S
C315 O312 1.258 . S
C315 O317 1.282 . S
O316 Cd308 2.277 . S
O316 C309 1.226 . S
O317 Cd308 2.356 . S
O317 C315 1.282 . S
C318 O319 1.306 . S
C318 O321 1.160 . S
O319 C318 1.306 . S
O319 Cd320 2.228 . S
Cd320 O319 2.228 . S
Cd320 O324 2.273 . S
Cd320 O328 2.277 . S
O321 C318 1.160 . S
O321 Cd322 2.203 . S
Cd322 O321 2.203 . S
Cd322 O324 2.411 . S
Cd322 O325 2.333 . S
Cd322 O326 2.352 . S
Cd322 O330 2.277 . S
Cd322 O331 2.356 . S
C323 O328 1.209 . S
C323 O330 1.226 . S
O324 Cd320 2.273 . S
O324 Cd322 2.411 . S
O324 C327 1.320 . S
O325 Cd322 2.333 . S
O325 C327 1.214 . S
O326 Cd322 2.352 . S
O326 C329 1.258 . S
C327 O324 1.320 . S
C327 O325 1.214 . S
O328 Cd320 2.277 . S
O328 C323 1.209 . S
C329 O326 1.258 . S
C329 O331 1.282 . S
O330 Cd322 2.277 . S
O330 C323 1.226 . S
O331 Cd322 2.356 . S
O331 C329 1.282 . S
C332 O333 1.306 . S
C332 O335 1.160 . S
O333 C332 1.306 . S
O333 Cd334 2.228 . S
Cd334 O333 2.228 . S
Cd334 O338 2.273 . S
Cd334 O342 2.277 . S
O335 C332 1.160 . S
O335 Cd336 2.203 . S
Cd336 O335 2.203 . S
Cd336 O338 2.411 . S
Cd336 O339 2.333 . S
Cd336 O340 2.352 . S
Cd336 O344 2.277 . S
Cd336 O345 2.356 . S
C337 O342 1.209 . S
C337 O344 1.226 . S
O338 Cd334 2.273 . S
O338 Cd336 2.411 . S
O338 C341 1.320 . S
O339 Cd336 2.333 . S
O339 C341 1.214 . S
O340 Cd336 2.352 . S
O340 C343 1.258 . S
C341 O338 1.320 . S
C341 O339 1.214 . S
O342 Cd334 2.277 . S
O342 C337 1.209 . S
C343 O340 1.258 . S
C343 O345 1.282 . S
O344 Cd336 2.277 . S
O344 C337 1.226 . S
O345 Cd336 2.356 . S
O345 C343 1.282 . S
C346 O347 1.306 . S
C346 O349 1.160 . S
O347 C346 1.306 . S
O347 Cd348 2.228 . S
Cd348 O347 2.228 . S
Cd348 O352 2.273 . S
Cd348 O356 2.277 . S
O349 C346 1.160 . S
O349 Cd350 2.203 . S
Cd350 O349 2.203 . S
Cd350 O352 2.411 . S
Cd350 O353 2.333 . S
Cd350 O354 2.352 . S
Cd350 O358 2.277 . S
Cd350 O359 2.356 . S
C351 O356 1.209 . S
C351 O358 1.226 . S
O352 Cd348 2.273 . S
O352 Cd350 2.411 . S
O352 C355 1.320 . S
O353 Cd350 2.333 . S
O353 C355 1.214 . S
O354 Cd350 2.352 . S
O354 C357 1.258 . S
C355 O352 1.320 . S
C355 O353 1.214 . S
O356 Cd348 2.277 . S
O356 C351 1.209 . S
C357 O354 1.258 . S
C357 O359 1.282 . S
O358 Cd350 2.277 . S
O358 C351 1.226 . S
O359 Cd350 2.356 . S
O359 C357 1.282 . S
H360 C368 0.950 . S
H361 C373 0.950 . S
H362 C370 0.950 . S
H363 C372 0.950 . S
H364 C374 0.950 . S
H365 C376 0.950 . S
H366 C378 0.950 . S
H367 C379 0.950 . S
C368 H360 0.950 . S
C368 C369 1.386 . S
C368 C370 1.391 . S
C369 C368 1.386 . S
C369 C373 1.393 . S
C370 H362 0.950 . S
C370 C368 1.391 . S
C370 C371 1.400 . S
C371 C370 1.400 . S
C371 C372 1.398 . S
C371 C377 1.491 . S
C372 H363 0.950 . S
C372 C371 1.398 . S
C372 C373 1.391 . S
C373 H361 0.950 . S
C373 C369 1.393 . S
C373 C372 1.391 . S
C374 H364 0.950 . S
C374 C375 1.386 . S
C374 C376 1.391 . S
C375 C374 1.386 . S
C375 C379 1.393 . S
C376 H365 0.950 . S
C376 C374 1.391 . S
C376 C377 1.400 . S
C377 C371 1.491 . S
C377 C376 1.400 . S
C377 C378 1.398 . S
C378 H366 0.950 . S
C378 C377 1.398 . S
C378 C379 1.391 . S
C379 H367 0.950 . S
C379 C375 1.393 . S
C379 C378 1.391 . S
H380 C388 0.950 . S
H381 C393 0.950 . S
H382 C390 0.950 . S
H383 C392 0.950 . S
H384 C394 0.950 . S
H385 C396 0.950 . S
H386 C398 0.950 . S
H387 C399 0.950 . S
C388 H380 0.950 . S
C388 C389 1.386 . S
C388 C390 1.391 . S
C389 C388 1.386 . S
C389 C393 1.393 . S
C390 H382 0.950 . S
C390 C388 1.391 . S
C390 C391 1.400 . S
C391 C390 1.400 . S
C391 C392 1.398 . S
C391 C397 1.491 . S
C392 H383 0.950 . S
C392 C391 1.398 . S
C392 C393 1.391 . S
C393 H381 0.950 . S
C393 C389 1.393 . S
C393 C392 1.391 . S
C394 H384 0.950 . S
C394 C395 1.386 . S
C394 C396 1.391 . S
C395 C394 1.386 . S
C395 C399 1.393 . S
C396 H385 0.950 . S
C396 C394 1.391 . S
C396 C397 1.400 . S
C397 C391 1.491 . S
C397 C396 1.400 . S
C397 C398 1.398 . S
C398 H386 0.950 . S
C398 C397 1.398 . S
C398 C399 1.391 . S
C399 H387 0.950 . S
C399 C395 1.393 . S
C399 C398 1.391 . S
H400 C408 0.950 . S
H401 C413 0.950 . S
H402 C410 0.950 . S
H403 C412 0.950 . S
H404 C414 0.950 . S
H405 C416 0.950 . S
H406 C418 0.950 . S
H407 C419 0.950 . S
C408 H400 0.950 . S
C408 C409 1.386 . S
C408 C410 1.391 . S
C409 C408 1.386 . S
C409 C413 1.393 . S
C410 H402 0.950 . S
C410 C408 1.391 . S
C410 C411 1.400 . S
C411 C410 1.400 . S
C411 C412 1.398 . S
C411 C417 1.491 . S
C412 H403 0.950 . S
C412 C411 1.398 . S
C412 C413 1.391 . S
C413 H401 0.950 . S
C413 C409 1.393 . S
C413 C412 1.391 . S
C414 H404 0.950 . S
C414 C415 1.386 . S
C414 C416 1.391 . S
C415 C414 1.386 . S
C415 C419 1.393 . S
C416 H405 0.950 . S
C416 C414 1.391 . S
C416 C417 1.400 . S
C417 C411 1.491 . S
C417 C416 1.400 . S
C417 C418 1.398 . S
C418 H406 0.950 . S
C418 C417 1.398 . S
C418 C419 1.391 . S
C419 H407 0.950 . S
C419 C415 1.393 . S
C419 C418 1.391 . S
H420 C428 0.950 . S
H421 C433 0.950 . S
H422 C430 0.950 . S
H423 C432 0.950 . S
H424 C434 0.950 . S
H425 C436 0.950 . S
H426 C438 0.950 . S
H427 C439 0.950 . S
C428 H420 0.950 . S
C428 C429 1.386 . S
C428 C430 1.391 . S
C429 C428 1.386 . S
C429 C433 1.393 . S
C430 H422 0.950 . S
C430 C428 1.391 . S
C430 C431 1.400 . S
C431 C430 1.400 . S
C431 C432 1.398 . S
C431 C437 1.491 . S
C432 H423 0.950 . S
C432 C431 1.398 . S
C432 C433 1.391 . S
C433 H421 0.950 . S
C433 C429 1.393 . S
C433 C432 1.391 . S
C434 H424 0.950 . S
C434 C435 1.386 . S
C434 C436 1.391 . S
C435 C434 1.386 . S
C435 C439 1.393 . S
C436 H425 0.950 . S
C436 C434 1.391 . S
C436 C437 1.400 . S
C437 C431 1.491 . S
C437 C436 1.400 . S
C437 C438 1.398 . S
C438 H426 0.950 . S
C438 C437 1.398 . S
C438 C439 1.391 . S
C439 H427 0.950 . S
C439 C435 1.393 . S
C439 C438 1.391 . S
H440 C448 0.950 . S
H441 C453 0.950 . S
H442 C450 0.950 . S
H443 C452 0.950 . S
H444 C454 0.950 . S
H445 C456 0.950 . S
H446 C458 0.950 . S
H447 C459 0.950 . S
C448 H440 0.950 . S
C448 C449 1.386 . S
C448 C450 1.391 . S
C449 C448 1.386 . S
C449 C453 1.393 . S
C450 H442 0.950 . S
C450 C448 1.391 . S
C450 C451 1.400 . S
C451 C450 1.400 . S
C451 C452 1.398 . S
C451 C457 1.491 . S
C452 H443 0.950 . S
C452 C451 1.398 . S
C452 C453 1.391 . S
C453 H441 0.950 . S
C453 C449 1.393 . S
C453 C452 1.391 . S
C454 H444 0.950 . S
C454 C455 1.386 . S
C454 C456 1.391 . S
C455 C454 1.386 . S
C455 C459 1.393 . S
C456 H445 0.950 . S
C456 C454 1.391 . S
C456 C457 1.400 . S
C457 C451 1.491 . S
C457 C456 1.400 . S
C457 C458 1.398 . S
C458 H446 0.950 . S
C458 C457 1.398 . S
C458 C459 1.391 . S
C459 H447 0.950 . S
C459 C455 1.393 . S
C459 C458 1.391 . S
H460 C468 0.950 . S
H461 C473 0.950 . S
H462 C470 0.950 . S
H463 C472 0.950 . S
H464 C474 0.950 . S
H465 C476 0.950 . S
H466 C478 0.950 . S
H467 C479 0.950 . S
C468 H460 0.950 . S
C468 C469 1.386 . S
C468 C470 1.391 . S
C469 C468 1.386 . S
C469 C473 1.393 . S
C470 H462 0.950 . S
C470 C468 1.391 . S
C470 C471 1.400 . S
C471 C470 1.400 . S
C471 C472 1.398 . S
C471 C477 1.491 . S
C472 H463 0.950 . S
C472 C471 1.398 . S
C472 C473 1.391 . S
C473 H461 0.950 . S
C473 C469 1.393 . S
C473 C472 1.391 . S
C474 H464 0.950 . S
C474 C475 1.386 . S
C474 C476 1.391 . S
C475 C474 1.386 . S
C475 C479 1.393 . S
C476 H465 0.950 . S
C476 C474 1.391 . S
C476 C477 1.400 . S
C477 C471 1.491 . S
C477 C476 1.400 . S
C477 C478 1.398 . S
C478 H466 0.950 . S
C478 C477 1.398 . S
C478 C479 1.391 . S
C479 H467 0.950 . S
C479 C475 1.393 . S
C479 C478 1.391 . S
H480 C488 0.950 . S
H481 C493 0.950 . S
H482 C490 0.950 . S
H483 C492 0.950 . S
H484 C494 0.950 . S
H485 C496 0.950 . S
H486 C498 0.950 . S
H487 C499 0.950 . S
C488 H480 0.950 . S
C488 C489 1.386 . S
C488 C490 1.391 . S
C489 C488 1.386 . S
C489 C493 1.393 . S
C490 H482 0.950 . S
C490 C488 1.391 . S
C490 C491 1.400 . S
C491 C490 1.400 . S
C491 C492 1.398 . S
C491 C497 1.491 . S
C492 H483 0.950 . S
C492 C491 1.398 . S
C492 C493 1.391 . S
C493 H481 0.950 . S
C493 C489 1.393 . S
C493 C492 1.391 . S
C494 H484 0.950 . S
C494 C495 1.386 . S
C494 C496 1.391 . S
C495 C494 1.386 . S
C495 C499 1.393 . S
C496 H485 0.950 . S
C496 C494 1.391 . S
C496 C497 1.400 . S
C497 C491 1.491 . S
C497 C496 1.400 . S
C497 C498 1.398 . S
C498 H486 0.950 . S
C498 C497 1.398 . S
C498 C499 1.391 . S
C499 H487 0.950 . S
C499 C495 1.393 . S
C499 C498 1.391 . S
H500 C508 0.950 . S
H501 C513 0.950 . S
H502 C510 0.950 . S
H503 C512 0.950 . S
H504 C514 0.950 . S
H505 C516 0.950 . S
H506 C518 0.950 . S
H507 C519 0.950 . S
C508 H500 0.950 . S
C508 C509 1.386 . S
C508 C510 1.391 . S
C509 C508 1.386 . S
C509 C513 1.393 . S
C510 H502 0.950 . S
C510 C508 1.391 . S
C510 C511 1.400 . S
C511 C510 1.400 . S
C511 C512 1.398 . S
C511 C517 1.491 . S
C512 H503 0.950 . S
C512 C511 1.398 . S
C512 C513 1.391 . S
C513 H501 0.950 . S
C513 C509 1.393 . S
C513 C512 1.391 . S
C514 H504 0.950 . S
C514 C515 1.386 . S
C514 C516 1.391 . S
C515 C514 1.386 . S
C515 C519 1.393 . S
C516 H505 0.950 . S
C516 C514 1.391 . S
C516 C517 1.400 . S
C517 C511 1.491 . S
C517 C516 1.400 . S
C517 C518 1.398 . S
C518 H506 0.950 . S
C518 C517 1.398 . S
C518 C519 1.391 . S
C519 H507 0.950 . S
C519 C515 1.393 . S
C519 C518 1.391 . S
H520 C528 0.950 . S
H521 C533 0.950 . S
H522 C530 0.950 . S
H523 C532 0.950 . S
H524 C534 0.950 . S
H525 C536 0.950 . S
H526 C538 0.950 . S
H527 C539 0.950 . S
C528 H520 0.950 . S
C528 C529 1.386 . S
C528 C530 1.391 . S
C529 C528 1.386 . S
C529 C533 1.393 . S
C530 H522 0.950 . S
C530 C528 1.391 . S
C530 C531 1.400 . S
C531 C530 1.400 . S
C531 C532 1.398 . S
C531 C537 1.491 . S
C532 H523 0.950 . S
C532 C531 1.398 . S
C532 C533 1.391 . S
C533 H521 0.950 . S
C533 C529 1.393 . S
C533 C532 1.391 . S
C534 H524 0.950 . S
C534 C535 1.386 . S
C534 C536 1.391 . S
C535 C534 1.386 . S
C535 C539 1.393 . S
C536 H525 0.950 . S
C536 C534 1.391 . S
C536 C537 1.400 . S
C537 C531 1.491 . S
C537 C536 1.400 . S
C537 C538 1.398 . S
C538 H526 0.950 . S
C538 C537 1.398 . S
C538 C539 1.391 . S
C539 H527 0.950 . S
C539 C535 1.393 . S
C539 C538 1.391 . S
H540 C548 0.950 . S
H541 C553 0.950 . S
H542 C550 0.950 . S
H543 C552 0.950 . S
H544 C554 0.950 . S
H545 C556 0.950 . S
H546 C558 0.950 . S
H547 C559 0.950 . S
C548 H540 0.950 . S
C548 C549 1.386 . S
C548 C550 1.391 . S
C549 C548 1.386 . S
C549 C553 1.393 . S
C550 H542 0.950 . S
C550 C548 1.391 . S
C550 C551 1.400 . S
C551 C550 1.400 . S
C551 C552 1.398 . S
C551 C557 1.491 . S
C552 H543 0.950 . S
C552 C551 1.398 . S
C552 C553 1.391 . S
C553 H541 0.950 . S
C553 C549 1.393 . S
C553 C552 1.391 . S
C554 H544 0.950 . S
C554 C555 1.386 . S
C554 C556 1.391 . S
C555 C554 1.386 . S
C555 C559 1.393 . S
C556 H545 0.950 . S
C556 C554 1.391 . S
C556 C557 1.400 . S
C557 C551 1.491 . S
C557 C556 1.400 . S
C557 C558 1.398 . S
C558 H546 0.950 . S
C558 C557 1.398 . S
C558 C559 1.391 . S
C559 H547 0.950 . S
C559 C555 1.393 . S
C559 C558 1.391 . S
H560 C568 0.950 . S
H561 C573 0.950 . S
H562 C570 0.950 . S
H563 C572 0.950 . S
H564 C574 0.950 . S
H565 C576 0.950 . S
H566 C578 0.950 . S
H567 C579 0.950 . S
C568 H560 0.950 . S
C568 C569 1.386 . S
C568 C570 1.391 . S
C569 C568 1.386 . S
C569 C573 1.393 . S
C570 H562 0.950 . S
C570 C568 1.391 . S
C570 C571 1.400 . S
C571 C570 1.400 . S
C571 C572 1.398 . S
C571 C577 1.491 . S
C572 H563 0.950 . S
C572 C571 1.398 . S
C572 C573 1.391 . S
C573 H561 0.950 . S
C573 C569 1.393 . S
C573 C572 1.391 . S
C574 H564 0.950 . S
C574 C575 1.386 . S
C574 C576 1.391 . S
C575 C574 1.386 . S
C575 C579 1.393 . S
C576 H565 0.950 . S
C576 C574 1.391 . S
C576 C577 1.400 . S
C577 C571 1.491 . S
C577 C576 1.400 . S
C577 C578 1.398 . S
C578 H566 0.950 . S
C578 C577 1.398 . S
C578 C579 1.391 . S
C579 H567 0.950 . S
C579 C575 1.393 . S
C579 C578 1.391 . S
H580 C588 0.950 . S
H581 C593 0.950 . S
H582 C590 0.950 . S
H583 C592 0.950 . S
H584 C594 0.950 . S
H585 C596 0.950 . S
H586 C598 0.950 . S
H587 C599 0.950 . S
C588 H580 0.950 . S
C588 C589 1.386 . S
C588 C590 1.391 . S
C589 C588 1.386 . S
C589 C593 1.393 . S
C590 H582 0.950 . S
C590 C588 1.391 . S
C590 C591 1.400 . S
C591 C590 1.400 . S
C591 C592 1.398 . S
C591 C597 1.491 . S
C592 H583 0.950 . S
C592 C591 1.398 . S
C592 C593 1.391 . S
C593 H581 0.950 . S
C593 C589 1.393 . S
C593 C592 1.391 . S
C594 H584 0.950 . S
C594 C595 1.386 . S
C594 C596 1.391 . S
C595 C594 1.386 . S
C595 C599 1.393 . S
C596 H585 0.950 . S
C596 C594 1.391 . S
C596 C597 1.400 . S
C597 C591 1.491 . S
C597 C596 1.400 . S
C597 C598 1.398 . S
C598 H586 0.950 . S
C598 C597 1.398 . S
C598 C599 1.391 . S
C599 H587 0.950 . S
C599 C595 1.393 . S
C599 C598 1.391 . S
H600 C608 0.950 . S
H601 C613 0.950 . S
H602 C610 0.950 . S
H603 C612 0.950 . S
H604 C614 0.950 . S
H605 C616 0.950 . S
H606 C618 0.950 . S
H607 C619 0.950 . S
C608 H600 0.950 . S
C608 C609 1.386 . S
C608 C610 1.391 . S
C609 C608 1.386 . S
C609 C613 1.393 . S
C610 H602 0.950 . S
C610 C608 1.391 . S
C610 C611 1.400 . S
C611 C610 1.400 . S
C611 C612 1.398 . S
C611 C617 1.491 . S
C612 H603 0.950 . S
C612 C611 1.398 . S
C612 C613 1.391 . S
C613 H601 0.950 . S
C613 C609 1.393 . S
C613 C612 1.391 . S
C614 H604 0.950 . S
C614 C615 1.386 . S
C614 C616 1.391 . S
C615 C614 1.386 . S
C615 C619 1.393 . S
C616 H605 0.950 . S
C616 C614 1.391 . S
C616 C617 1.400 . S
C617 C611 1.491 . S
C617 C616 1.400 . S
C617 C618 1.398 . S
C618 H606 0.950 . S
C618 C617 1.398 . S
C618 C619 1.391 . S
C619 H607 0.950 . S
C619 C615 1.393 . S
C619 C618 1.391 . S
H620 C628 0.950 . S
H621 C633 0.950 . S
H622 C630 0.950 . S
H623 C632 0.950 . S
H624 C634 0.950 . S
H625 C636 0.950 . S
H626 C638 0.950 . S
H627 C639 0.950 . S
C628 H620 0.950 . S
C628 C629 1.386 . S
C628 C630 1.391 . S
C629 C628 1.386 . S
C629 C633 1.393 . S
C630 H622 0.950 . S
C630 C628 1.391 . S
C630 C631 1.400 . S
C631 C630 1.400 . S
C631 C632 1.398 . S
C631 C637 1.491 . S
C632 H623 0.950 . S
C632 C631 1.398 . S
C632 C633 1.391 . S
C633 H621 0.950 . S
C633 C629 1.393 . S
C633 C632 1.391 . S
C634 H624 0.950 . S
C634 C635 1.386 . S
C634 C636 1.391 . S
C635 C634 1.386 . S
C635 C639 1.393 . S
C636 H625 0.950 . S
C636 C634 1.391 . S
C636 C637 1.400 . S
C637 C631 1.491 . S
C637 C636 1.400 . S
C637 C638 1.398 . S
C638 H626 0.950 . S
C638 C637 1.398 . S
C638 C639 1.391 . S
C639 H627 0.950 . S
C639 C635 1.393 . S
C639 C638 1.391 . S
H640 C648 0.950 . S
H641 C653 0.950 . S
H642 C650 0.950 . S
H643 C652 0.950 . S
H644 C654 0.950 . S
H645 C656 0.950 . S
H646 C658 0.950 . S
H647 C659 0.950 . S
C648 H640 0.950 . S
C648 C649 1.386 . S
C648 C650 1.391 . S
C649 C648 1.386 . S
C649 C653 1.393 . S
C650 H642 0.950 . S
C650 C648 1.391 . S
C650 C651 1.400 . S
C651 C650 1.400 . S
C651 C652 1.398 . S
C651 C657 1.491 . S
C652 H643 0.950 . S
C652 C651 1.398 . S
C652 C653 1.391 . S
C653 H641 0.950 . S
C653 C649 1.393 . S
C653 C652 1.391 . S
C654 H644 0.950 . S
C654 C655 1.386 . S
C654 C656 1.391 . S
C655 C654 1.386 . S
C655 C659 1.393 . S
C656 H645 0.950 . S
C656 C654 1.391 . S
C656 C657 1.400 . S
C657 C651 1.491 . S
C657 C656 1.400 . S
C657 C658 1.398 . S
C658 H646 0.950 . S
C658 C657 1.398 . S
C658 C659 1.391 . S
C659 H647 0.950 . S
C659 C655 1.393 . S
C659 C658 1.391 . S
H660 C668 0.950 . S
H661 C673 0.950 . S
H662 C670 0.950 . S
H663 C672 0.950 . S
H664 C674 0.950 . S
H665 C676 0.950 . S
H666 C678 0.948 1_556 S
H667 C679 0.950 . S
C668 H660 0.950 . S
C668 C669 1.386 . S
C668 C670 1.391 . S
C669 C668 1.386 . S
C669 C673 1.393 . S
C670 H662 0.950 . S
C670 C668 1.391 . S
C670 C671 1.400 . S
C671 C670 1.400 . S
C671 C672 1.398 . S
C671 C677 1.491 . S
C672 H663 0.950 . S
C672 C671 1.398 . S
C672 C673 1.391 . S
C673 H661 0.950 . S
C673 C669 1.393 . S
C673 C672 1.391 . S
C674 H664 0.950 . S
C674 C675 1.386 . S
C674 C676 1.391 1_554 S
C675 C674 1.386 . S
C675 C679 1.393 . S
C676 H665 0.950 . S
C676 C674 1.391 1_556 S
C676 C677 1.400 . S
C677 C671 1.491 . S
C677 C676 1.400 . S
C677 C678 1.398 1_556 S
C678 H666 0.948 1_554 S
C678 C677 1.398 1_554 S
C678 C679 1.391 . S
C679 H667 0.950 . S
C679 C675 1.393 . S
C679 C678 1.391 . S
H680 C688 0.950 . S
H681 C693 0.950 . S
H682 C690 0.950 . S
H683 C692 0.950 . S
H684 C694 0.950 . S
H685 C696 0.950 . S
H686 C698 0.950 . S
H687 C699 0.950 . S
C688 H680 0.950 . S
C688 C689 1.386 . S
C688 C690 1.391 . S
C689 C688 1.386 . S
C689 C693 1.393 . S
C690 H682 0.950 . S
C690 C688 1.391 . S
C690 C691 1.400 . S
C691 C690 1.400 . S
C691 C692 1.398 . S
C691 C697 1.491 . S
C692 H683 0.950 . S
C692 C691 1.398 . S
C692 C693 1.391 . S
C693 H681 0.950 . S
C693 C689 1.393 . S
C693 C692 1.391 . S
C694 H684 0.950 . S
C694 C695 1.386 . S
C694 C696 1.391 . S
C695 C694 1.386 . S
C695 C699 1.393 . S
C696 H685 0.950 . S
C696 C694 1.391 . S
C696 C697 1.400 . S
C697 C691 1.491 . S
C697 C696 1.400 . S
C697 C698 1.398 . S
C698 H686 0.950 . S
C698 C697 1.398 . S
C698 C699 1.391 . S
C699 H687 0.950 . S
C699 C695 1.393 . S
C699 C698 1.391 . S
H700 C708 0.950 . S
H701 C713 0.950 . S
H702 C710 0.950 . S
H703 C712 0.950 . S
H704 C714 0.950 . S
H705 C716 0.950 . S
H706 C718 0.950 . S
H707 C719 0.950 . S
C708 H700 0.950 . S
C708 C709 1.386 . S
C708 C710 1.391 . S
C709 C708 1.386 . S
C709 C713 1.393 . S
C710 H702 0.950 . S
C710 C708 1.391 . S
C710 C711 1.400 . S
C711 C710 1.400 . S
C711 C712 1.398 . S
C711 C717 1.491 . S
C712 H703 0.950 . S
C712 C711 1.398 . S
C712 C713 1.391 . S
C713 H701 0.950 . S
C713 C709 1.393 . S
C713 C712 1.391 . S
C714 H704 0.950 . S
C714 C715 1.386 . S
C714 C716 1.391 . S
C715 C714 1.386 . S
C715 C719 1.393 . S
C716 H705 0.950 . S
C716 C714 1.391 . S
C716 C717 1.400 . S
C717 C711 1.491 . S
C717 C716 1.400 . S
C717 C718 1.398 . S
C718 H706 0.950 . S
C718 C717 1.398 . S
C718 C719 1.391 . S
C719 H707 0.950 . S
C719 C715 1.393 . S
C719 C718 1.391 . S
H720 C728 0.950 . S
H721 C733 0.950 . S
H722 C730 0.950 . S
H723 C732 0.950 . S
H724 C734 0.950 . S
H725 C736 0.950 . S
H726 C738 0.950 . S
H727 C739 0.950 . S
C728 H720 0.950 . S
C728 C729 1.386 . S
C728 C730 1.391 . S
C729 C728 1.386 . S
C729 C733 1.393 . S
C730 H722 0.950 . S
C730 C728 1.391 . S
C730 C731 1.400 . S
C731 C730 1.400 . S
C731 C732 1.398 . S
C731 C737 1.491 . S
C732 H723 0.950 . S
C732 C731 1.398 . S
C732 C733 1.391 . S
C733 H721 0.950 . S
C733 C729 1.393 . S
C733 C732 1.391 . S
C734 H724 0.950 . S
C734 C735 1.386 . S
C734 C736 1.391 . S
C735 C734 1.386 . S
C735 C739 1.393 . S
C736 H725 0.950 . S
C736 C734 1.391 . S
C736 C737 1.400 . S
C737 C731 1.491 . S
C737 C736 1.400 . S
C737 C738 1.398 . S
C738 H726 0.950 . S
C738 C737 1.398 . S
C738 C739 1.391 . S
C739 H727 0.950 . S
C739 C735 1.393 . S
C739 C738 1.391 . S
H740 C748 0.950 . S
H741 C753 0.950 . S
H742 C750 0.950 . S
H743 C752 0.950 . S
H744 C754 0.950 . S
H745 C756 0.950 . S
H746 C758 0.950 . S
H747 C759 0.950 . S
C748 H740 0.950 . S
C748 C749 1.386 . S
C748 C750 1.391 . S
C749 C748 1.386 . S
C749 C753 1.393 . S
C750 H742 0.950 . S
C750 C748 1.391 . S
C750 C751 1.400 . S
C751 C750 1.400 . S
C751 C752 1.398 . S
C751 C757 1.491 . S
C752 H743 0.950 . S
C752 C751 1.398 . S
C752 C753 1.391 . S
C753 H741 0.950 . S
C753 C749 1.393 . S
C753 C752 1.391 . S
C754 H744 0.950 . S
C754 C755 1.386 . S
C754 C756 1.391 . S
C755 C754 1.386 . S
C755 C759 1.393 . S
C756 H745 0.950 . S
C756 C754 1.391 . S
C756 C757 1.400 . S
C757 C751 1.491 . S
C757 C756 1.400 . S
C757 C758 1.398 . S
C758 H746 0.950 . S
C758 C757 1.398 . S
C758 C759 1.391 . S
C759 H747 0.950 . S
C759 C755 1.393 . S
C759 C758 1.391 . S
H760 C768 0.950 . S
H761 C773 0.950 . S
H762 C770 0.950 . S
H763 C772 0.950 . S
H764 C774 0.950 . S
H765 C776 0.950 . S
H766 C778 0.950 . S
H767 C779 0.950 . S
C768 H760 0.950 . S
C768 C769 1.386 . S
C768 C770 1.391 . S
C769 C768 1.386 . S
C769 C773 1.393 . S
C770 H762 0.950 . S
C770 C768 1.391 . S
C770 C771 1.400 . S
C771 C770 1.400 . S
C771 C772 1.398 . S
C771 C777 1.491 . S
C772 H763 0.950 . S
C772 C771 1.398 . S
C772 C773 1.391 . S
C773 H761 0.950 . S
C773 C769 1.393 . S
C773 C772 1.391 . S
C774 H764 0.950 . S
C774 C775 1.386 . S
C774 C776 1.391 . S
C775 C774 1.386 . S
C775 C779 1.393 . S
C776 H765 0.950 . S
C776 C774 1.391 . S
C776 C777 1.400 . S
C777 C771 1.491 . S
C777 C776 1.400 . S
C777 C778 1.398 . S
C778 H766 0.950 . S
C778 C777 1.398 . S
C778 C779 1.391 . S
C779 H767 0.950 . S
C779 C775 1.393 . S
C779 C778 1.391 . S
H780 C788 0.950 . S
H781 C793 0.950 . S
H782 C790 0.950 . S
H783 C792 0.950 . S
H784 C794 0.950 . S
H785 C796 0.950 . S
H786 C798 0.950 . S
H787 C799 0.950 . S
C788 H780 0.950 . S
C788 C789 1.386 . S
C788 C790 1.391 . S
C789 C788 1.386 . S
C789 C793 1.393 . S
C790 H782 0.950 . S
C790 C788 1.391 . S
C790 C791 1.400 . S
C791 C790 1.400 . S
C791 C792 1.398 . S
C791 C797 1.491 . S
C792 H783 0.950 . S
C792 C791 1.398 . S
C792 C793 1.391 . S
C793 H781 0.950 . S
C793 C789 1.393 . S
C793 C792 1.391 . S
C794 H784 0.950 . S
C794 C795 1.386 . S
C794 C796 1.391 . S
C795 C794 1.386 . S
C795 C799 1.393 . S
C796 H785 0.950 . S
C796 C794 1.391 . S
C796 C797 1.400 . S
C797 C791 1.491 . S
C797 C796 1.400 . S
C797 C798 1.398 . S
C798 H786 0.950 . S
C798 C797 1.398 . S
C798 C799 1.391 . S
C799 H787 0.950 . S
C799 C795 1.393 . S
C799 C798 1.391 . S
H800 C808 0.950 . S
H801 C813 0.950 . S
H802 C810 0.950 . S
H803 C812 0.950 . S
H804 C814 0.950 . S
H805 C816 0.950 . S
H806 C818 0.950 . S
H807 C819 0.950 . S
C808 H800 0.950 . S
C808 C809 1.386 . S
C808 C810 1.391 . S
C809 C808 1.386 . S
C809 C813 1.393 . S
C810 H802 0.950 . S
C810 C808 1.391 . S
C810 C811 1.400 . S
C811 C810 1.400 . S
C811 C812 1.398 . S
C811 C817 1.482 1_554 S
C812 H803 0.950 . S
C812 C811 1.398 . S
C812 C813 1.391 . S
C813 H801 0.950 . S
C813 C809 1.393 . S
C813 C812 1.391 . S
C814 H804 0.950 . S
C814 C815 1.386 . S
C814 C816 1.391 1_556 S
C815 C814 1.386 . S
C815 C819 1.393 . S
C816 H805 0.950 . S
C816 C814 1.391 1_554 S
C816 C817 1.400 1_554 S
C817 C811 1.482 1_556 S
C817 C816 1.400 1_556 S
C817 C818 1.408 . S
C818 H806 0.950 . S
C818 C817 1.408 . S
C818 C819 1.391 . S
C819 H807 0.950 . S
C819 C815 1.393 . S
C819 C818 1.391 . S
H820 C828 0.950 . S
H821 C833 0.950 . S
H822 C830 0.950 . S
H823 C832 0.950 . S
H824 C834 0.950 . S
H825 C836 0.950 . S
H826 C838 0.950 . S
H827 C839 0.950 . S
C828 H820 0.950 . S
C828 C829 1.386 . S
C828 C830 1.391 . S
C829 C828 1.386 . S
C829 C833 1.393 . S
C830 H822 0.950 . S
C830 C828 1.391 . S
C830 C831 1.400 . S
C831 C830 1.400 . S
C831 C832 1.398 . S
C831 C837 1.491 . S
C832 H823 0.950 . S
C832 C831 1.398 . S
C832 C833 1.391 . S
C833 H821 0.950 . S
C833 C829 1.393 . S
C833 C832 1.391 . S
C834 H824 0.950 . S
C834 C835 1.386 . S
C834 C836 1.391 . S
C835 C834 1.386 . S
C835 C839 1.393 . S
C836 H825 0.950 . S
C836 C834 1.391 . S
C836 C837 1.400 . S
C837 C831 1.491 . S
C837 C836 1.400 . S
C837 C838 1.398 . S
C838 H826 0.950 . S
C838 C837 1.398 . S
C838 C839 1.391 . S
C839 H827 0.950 . S
C839 C835 1.393 . S
C839 C838 1.391 . S
C375 C346 1.608 . S
C369 C15 1.593 . S
C389 C61 1.598 . S
C395 C287 1.619 . S
C409 C114 1.564 . S
C415 C290 1.594 . S
C429 C139 1.601 . S
C435 C304 1.609 . S
C455 C329 1.615 . S
C449 C185 1.598 . S
C469 C245 1.566 . S
C475 C332 1.597 . S
C489 C47 1.569 . S
C495 C301 1.581 . S
C509 C100 1.575 . S
C515 C315 1.590 . S
C529 C153 1.540 . S
C535 C318 1.572 . S
C555 C343 1.580 . S
C549 C199 1.558 . S
C575 C357 1.593 . S
C569 C231 1.585 . S
C595 C276 1.572 . S
C589 C1 1.556 . S
C609 C22 1.465 . S
C615 C299 1.466 . S
C629 C68 1.480 . S
C635 C313 1.476 . S
C655 C323 1.487 . S
C649 C107 1.486 . S
C669 C146 1.467 . S
C675 C341 1.464 . S
C695 C355 1.477 . S
C689 C192 1.486 . S
C715 C281 1.484 . S
C709 C252 1.484 . S
C735 C351 1.511 . S
C729 C54 1.508 . S
C749 C93 1.492 . S
C755 C285 1.482 . S
C775 C295 1.497 . S
C769 C160 1.489 . S
C789 C206 1.510 . S
C795 C309 1.511 . S
C809 C238 1.491 . S
C815 C327 1.482 . S
C829 C8 1.497 . S
C835 C337 1.497 . S
