# Generated by pormake.
# Topology pth, (4,4)-cn, num edge types: 1
# Building blocks:
#     Node 0, Type 0, BuildingBlock: CEKHIL_clean_sbu_0, # of connection points: 4
#     Node 1, Type 0, BuildingBlock: CEKHIL_clean_sbu_0, # of connection points: 4
#     Node 2, Type 0, BuildingBlock: CEKHIL_clean_sbu_0, # of connection points: 4
#     Node 3, Type 1, BuildingBlock: AZAVOO_clean_linker_0, # of connection points: 4
#     Node 4, Type 1, BuildingBlock: AZAVOO_clean_linker_0, # of connection points: 4
#     Node 5, Type 1, BuildingBlock: AZAVOO_clean_linker_0, # of connection points: 4
#     Edge 6, Type (0, 1), BuildingBlock: XUDNAN_clean_linker_2, # of connection points: 2
#     Edge 7, Type (0, 1), BuildingBlock: XUDNAN_clean_linker_2, # of connection points: 2
#     Edge 8, Type (0, 1), BuildingBlock: XUDNAN_clean_linker_2, # of connection points: 2
#     Edge 9, Type (0, 1), BuildingBlock: XUDNAN_clean_linker_2, # of connection points: 2
#     Edge 10, Type (0, 1), BuildingBlock: XUDNAN_clean_linker_2, # of connection points: 2
#     Edge 11, Type (0, 1), BuildingBlock: XUDNAN_clean_linker_2, # of connection points: 2
#     Edge 12, Type (0, 1), BuildingBlock: XUDNAN_clean_linker_2, # of connection points: 2
#     Edge 13, Type (0, 1), BuildingBlock: XUDNAN_clean_linker_2, # of connection points: 2
#     Edge 14, Type (0, 1), BuildingBlock: XUDNAN_clean_linker_2, # of connection points: 2
#     Edge 15, Type (0, 1), BuildingBlock: XUDNAN_clean_linker_2, # of connection points: 2
#     Edge 16, Type (0, 1), BuildingBlock: XUDNAN_clean_linker_2, # of connection points: 2
#     Edge 17, Type (0, 1), BuildingBlock: XUDNAN_clean_linker_2, # of connection points: 2
# Relax obj value: 0.107
# Max RMSD: 0.224
# Mean RMSD: 0.144
data_MOF--net-pth--node1-CEKHIL_clean_sbu_0--node2-AZAVOO_clean_linker_0--edge1-XUDNAN_clean_linker_2
_symmetry_space_group_name_H-M    P1
_symmetry_Int_Tables_number       1
_symmetry_cell_setting            triclinic
loop_
_symmetry_equiv_pos_as_xyz
'x, y, z'
_cell_length_a     25.84376
_cell_length_b     26.225851
_cell_length_c     71.260224
_cell_angle_alpha  93.198505
_cell_angle_beta   88.734166
_cell_angle_gamma 120.3292
loop_
_atom_site_label
_atom_site_type_symbol
_atom_site_fract_x
_atom_site_fract_y
_atom_site_fract_z
_atom_type_partial_charge
Co0 Co 0.08902 0.07368 0.09688 0.0
O1 O 0.0299 0.00978 0.11092 0.0
O2 O 0.10205 0.00677 0.09446 0.0
C3 C 0.11145 0.14333 0.12028 0.0
O4 O 0.15907 0.13179 0.08112 0.0
Co5 Co 0.07226 0.1783 0.088 0.0
O6 O 0.15711 0.21622 0.08008 0.0
C7 C 0.00697 0.0654 0.06529 0.0
C8 C 0.05654 0.98077 0.10568 0.0
C9 C 0.18254 0.18593 0.07658 0.0
O10 O 0.03427 0.04404 0.07407 0.0
O11 O 0.01322 0.11628 0.06965 0.0
O12 O 0.13681 0.11141 0.11961 0.0
O13 O 0.07064 0.12989 0.10772 0.0
Co14 Co 0.05299 0.09264 0.41477 0.0
O15 O 0.013 0.12246 0.4 0.0
O16 O 0.10195 0.17757 0.41357 0.0
C17 C 0.03581 0.0162 0.39451 0.0
O18 O 0.11061 0.07951 0.42998 0.0
Co19 Co 0.98857 0.96658 0.43017 0.0
O20 O 0.0703 0.98442 0.43692 0.0
C21 C 0.98191 0.06419 0.45114 0.0
C22 C 0.06009 0.17445 0.40295 0.0
C23 C 0.11437 0.03725 0.43693 0.0
O24 O 0.01427 0.10158 0.43885 0.0
O25 O 0.96548 0.0092 0.44971 0.0
O26 O 0.08008 0.06906 0.39177 0.0
O27 O 0.001 0.01189 0.40834 0.0
Co28 Co 0.06482 0.08395 0.75235 0.0
O29 O 0.12757 0.11044 0.73388 0.0
O30 O 0.09715 0.03146 0.75048 0.0
C31 C 0.99896 0.09429 0.73489 0.0
O32 O 1.00022 0.04115 0.77201 0.0
Co33 Co 0.02259 0.16778 0.7696 0.0
O34 O 0.95462 0.09359 0.77889 0.0
C35 C 0.14011 0.18558 0.7805 0.0
C36 C 0.13308 0.06566 0.73782 0.0
C37 C 0.95789 0.04689 0.77983 0.0
O38 O 0.12594 0.13502 0.77241 0.0
O39 O 0.10716 0.20898 0.7796 0.0
O40 O 0.00356 0.04722 0.73248 0.0
O41 O 0.03728 0.13489 0.74645 0.0
H42 H 0.06651 0.40205 0.14262 0.0
H43 H 0.05824 0.91674 0.26907 0.0
H44 H 0.99739 0.43018 0.23607 0.0
H45 H 0.0143 0.35998 0.21781 0.0
H46 H 0.1971 0.44778 0.2389 0.0
H47 H 0.18077 0.52256 0.25522 0.0
H48 H 0.99672 0.49883 0.20771 0.0
H49 H 0.0088 0.45337 0.17832 0.0
H50 H 0.19953 0.53942 0.18892 0.0
H51 H 0.18688 0.58538 0.21816 0.0
H52 H 0.97053 0.57673 0.21744 0.0
H53 H 0.95269 0.62087 0.19097 0.0
H54 H 0.13869 0.76085 0.19321 0.0
H55 H 0.15676 0.71266 0.21859 0.0
H56 H 0.96543 0.62818 0.26531 0.0
H57 H 0.9442 0.70855 0.27151 0.0
H58 H 0.12638 0.83526 0.25663 0.0
H59 H 0.14715 0.75453 0.25074 0.0
H60 H 0.99196 0.56333 0.29802 0.0
H61 H 0.97877 0.61755 0.32477 0.0
H62 H 0.1449 0.77422 0.31064 0.0
H63 H 0.16061 0.71734 0.28563 0.0
H64 H 0.98979 0.45978 0.28237 0.0
H65 H 0.99115 0.40635 0.30921 0.0
H66 H 0.18043 0.53174 0.31712 0.0
H67 H 0.17735 0.58635 0.29085 0.0
O68 O 0.06321 0.42313 0.15375 0.0
O69 O 0.16126 0.46993 0.15952 0.0
O70 O 0.97194 0.8171 0.27395 0.0
O71 O 0.06515 0.88405 0.26647 0.0
C72 C 0.08449 0.53675 0.24991 0.0
C73 C 0.08279 0.56638 0.23407 0.0
C74 C 0.07419 0.61518 0.2365 0.0
C75 C 0.07097 0.63676 0.2548 0.0
C76 C 0.07722 0.61004 0.27073 0.0
C77 C 0.08211 0.5587 0.26829 0.0
C78 C 0.08819 0.48231 0.24654 0.0
C79 C 0.0406 0.43315 0.23716 0.0
C80 C 0.05072 0.39262 0.22664 0.0
C81 C 0.1082 0.39872 0.22602 0.0
C82 C 0.15314 0.44301 0.238 0.0
C83 C 0.14354 0.48511 0.24789 0.0
C84 C 0.09104 0.5461 0.21493 0.0
C85 C 0.04129 0.50929 0.20338 0.0
C86 C 0.04825 0.48274 0.18671 0.0
C87 C 0.1051 0.49249 0.18132 0.0
C88 C 0.15512 0.53095 0.19266 0.0
C89 C 0.1481 0.55756 0.20929 0.0
C90 C 0.06486 0.64152 0.21992 0.0
C91 C 0.00758 0.61632 0.21194 0.0
C92 C 0.9974 0.64226 0.19694 0.0
C93 C 0.04395 0.69526 0.18996 0.0
C94 C 0.10174 0.71978 0.19789 0.0
C95 C 0.11216 0.69273 0.21258 0.0
C96 C 0.05759 0.68554 0.25738 0.0
C97 C 1.0005 0.67331 0.26326 0.0
C98 C 0.98857 0.71929 0.26683 0.0
C99 C 0.03361 0.77837 0.26454 0.0
C100 C 0.09065 0.79031 0.25848 0.0
C101 C 0.10253 0.74426 0.25496 0.0
C102 C 0.07701 0.63646 0.28974 0.0
C103 C 0.02685 0.60852 0.30134 0.0
C104 C 0.01871 0.64039 0.31638 0.0
C105 C 0.05943 0.70149 0.31967 0.0
C106 C 0.11223 0.72759 0.30891 0.0
C107 C 0.12137 0.69505 0.29439 0.0
C108 C 0.08336 0.52708 0.28476 0.0
C109 C 0.03137 0.47581 0.29004 0.0
C110 C 0.03247 0.44504 0.30531 0.0
C111 C 0.08596 0.46437 0.31546 0.0
C112 C 0.13808 0.51591 0.30998 0.0
C113 C 0.13665 0.5471 0.29486 0.0
C114 C 0.11182 0.46145 0.1642 0.0
C115 C 0.02146 0.82747 0.26861 0.0
H116 H 0.66705 0.06409 0.47023 0.0
H117 H 0.22285 0.07601 0.62741 0.0
H118 H 0.6608 0.02343 0.58478 0.0
H119 H 0.74914 0.03382 0.56799 0.0
H120 H 0.79546 0.20944 0.55337 0.0
H121 H 0.70796 0.19938 0.57062 0.0
H122 H 0.5904 0.01188 0.54807 0.0
H123 H 0.62329 0.01848 0.51538 0.0
H124 H 0.63957 0.19064 0.51395 0.0
H125 H 0.60714 0.18367 0.54672 0.0
H126 H 0.45868 0.99597 0.54743 0.0
H127 H 0.40006 0.99725 0.52103 0.0
H128 H 0.43509 0.17061 0.54094 0.0
H129 H 0.4942 0.16917 0.56708 0.0
H130 H 0.39338 0.97694 0.5871 0.0
H131 H 0.29409 0.95953 0.59632 0.0
H132 H 0.37495 0.13996 0.61915 0.0
H133 H 0.47372 0.15691 0.6096 0.0
H134 H 0.46178 0.97658 0.62313 0.0
H135 H 0.40199 0.96504 0.65134 0.0
H136 H 0.50318 0.15402 0.66325 0.0
H137 H 0.56283 0.16508 0.6349 0.0
H138 H 0.58796 0.00277 0.62411 0.0
H139 H 0.65499 0.01106 0.64945 0.0
H140 H 0.76638 0.1979 0.64094 0.0
H141 H 0.69871 0.1893 0.61589 0.0
O142 O 0.65433 0.06253 0.48316 0.0
O143 O 0.66912 0.15385 0.48384 0.0
O144 O 0.22205 0.98932 0.6116 0.0
O145 O 0.26137 0.08192 0.62332 0.0
C146 C 0.61684 0.09831 0.58414 0.0
C147 C 0.57746 0.09332 0.56971 0.0
C148 C 0.52001 0.08391 0.5742 0.0
C149 C 0.50098 0.07754 0.59302 0.0
C150 C 0.5391 0.07978 0.60742 0.0
C151 C 0.59743 0.09076 0.60305 0.0
C152 C 0.67785 0.11053 0.57886 0.0
C153 C 0.69136 0.06502 0.57863 0.0
C154 C 0.74158 0.07091 0.56893 0.0
C155 C 0.77854 0.12215 0.55917 0.0
C156 C 0.76729 0.16928 0.56059 0.0
C157 C 0.71773 0.16376 0.57056 0.0
C158 C 0.59627 0.09721 0.54972 0.0
C159 C 0.60108 0.05095 0.54065 0.0
C160 C 0.61982 0.05483 0.52199 0.0
C161 C 0.63396 0.10505 0.51204 0.0
C162 C 0.629 0.15134 0.5212 0.0
C163 C 0.61026 0.1474 0.53987 0.0
C164 C 0.48052 0.08245 0.55913 0.0
C165 C 0.45319 0.03394 0.54612 0.0
C166 C 0.41971 0.03472 0.53111 0.0
C167 C 0.41333 0.08422 0.52885 0.0
C168 C 0.43995 0.13225 0.54215 0.0
C169 C 0.47318 0.1313 0.55717 0.0
C170 C 0.44058 0.06807 0.59774 0.0
C171 C 0.38939 0.01272 0.59394 0.0
C172 C 0.33284 0.00288 0.5993 0.0
C173 C 0.32661 0.04834 0.60854 0.0
C174 C 0.37811 0.10399 0.61208 0.0
C175 C 0.43457 0.11381 0.60666 0.0
C176 C 0.51672 0.07162 0.62702 0.0
C177 C 0.47262 0.01518 0.63225 0.0
C178 C 0.43834 0.00873 0.64833 0.0
C179 C 0.4474 0.05873 0.65938 0.0
C180 C 0.49475 0.1148 0.65487 0.0
C181 C 0.52937 0.12114 0.63885 0.0
C182 C 0.63835 0.09549 0.61822 0.0
C183 C 0.62681 0.04546 0.62778 0.0
C184 C 0.66534 0.0502 0.64214 0.0
C185 C 0.71592 0.10519 0.64727 0.0
C186 C 0.7274 0.15508 0.63753 0.0
C187 C 0.68903 0.15023 0.62314 0.0
C188 C 0.6536 0.10887 0.49218 0.0
C189 C 0.26679 0.03786 0.61454 0.0
H190 H 0.71181 0.72002 0.04306 0.0
H191 H 0.3644 0.20317 0.88057 0.0
H192 H 0.63687 0.71812 0.93988 0.0
H193 H 0.70252 0.80857 0.95844 0.0
H194 H 0.84271 0.76452 0.95551 0.0
H195 H 0.77627 0.67372 0.93675 0.0
H196 H 0.588 0.63702 0.97037 0.0
H197 H 0.62591 0.67493 0.00234 0.0
H198 H 0.75316 0.61445 0.99493 0.0
H199 H 0.71501 0.57715 0.96295 0.0
H200 H 0.47773 0.50728 0.95467 0.0
H201 H 0.42074 0.44052 0.97936 0.0
H202 H 0.55776 0.39318 0.98364 0.0
H203 H 0.61353 0.459 0.95831 0.0
H204 H 0.44553 0.47133 0.91889 0.0
H205 H 0.36684 0.37423 0.90656 0.0
H206 H 0.49867 0.32007 0.89783 0.0
H207 H 0.57683 0.41737 0.91026 0.0
H208 H 0.5013 0.56101 0.89195 0.0
H209 H 0.4364 0.49787 0.86617 0.0
H210 H 0.56265 0.43937 0.85231 0.0
H211 H 0.62561 0.50065 0.8789 0.0
H212 H 0.61994 0.70317 0.90556 0.0
H213 H 0.66485 0.77621 0.88168 0.0
H214 H 0.75977 0.68978 0.85944 0.0
H215 H 0.71686 0.61873 0.8842 0.0
O216 O 0.69621 0.70315 0.03061 0.0
O217 O 0.75656 0.66596 0.02681 0.0
O218 O 0.32775 0.27023 0.89159 0.0
O219 O 0.39418 0.24106 0.88618 0.0
C220 C 0.65701 0.62843 0.93053 0.0
C221 C 0.6297 0.58655 0.94452 0.0
C222 C 0.58325 0.52874 0.9397 0.0
C223 C 0.56523 0.51209 0.92079 0.0
C224 C 0.59257 0.55365 0.9067 0.0
C225 C 0.63848 0.61211 0.91152 0.0
C226 C 0.70221 0.69 0.9366 0.0
C227 C 0.6827 0.72939 0.94244 0.0
C228 C 0.72017 0.78083 0.95323 0.0
C229 C 0.77772 0.79353 0.95856 0.0
C230 C 0.79841 0.75562 0.95178 0.0
C231 C 0.76095 0.7043 0.94081 0.0
C232 C 0.64877 0.60435 0.96444 0.0
C233 C 0.62364 0.63152 0.97578 0.0
C234 C 0.64556 0.65333 0.99399 0.0
C235 C 0.69276 0.64794 1.00116 0.0
C236 C 0.71683 0.61937 0.98984 0.0
C237 C 0.695 0.5978 0.97162 0.0
C238 C 0.54946 0.48763 0.95467 0.0
C239 C 0.49521 0.48221 0.96089 0.0
C240 C 0.46308 0.44448 0.97515 0.0
C241 C 0.48486 0.41173 0.98363 0.0
C242 C 0.53943 0.4173 0.97731 0.0
C243 C 0.57149 0.45501 0.96293 0.0
C244 C 0.51665 0.45106 0.91555 0.0
C245 C 0.45705 0.43802 0.91462 0.0
C246 C 0.41232 0.38269 0.90746 0.0
C247 C 0.42654 0.33946 0.90112 0.0
C248 C 0.4862 0.35234 0.90256 0.0
C249 C 0.53086 0.40769 0.90976 0.0
C250 C 0.56807 0.53535 0.8873 0.0
C251 C 0.51615 0.53651 0.88283 0.0
C252 C 0.47887 0.49995 0.86808 0.0
C253 C 0.49341 0.46221 0.85734 0.0
C254 C 0.54908 0.46645 0.8606 0.0
C255 C 0.58589 0.50243 0.87555 0.0
C256 C 0.66575 0.65613 0.89681 0.0
C257 C 0.65115 0.70057 0.89572 0.0
C258 C 0.6763 0.74183 0.88183 0.0
C259 C 0.71591 0.73898 0.86847 0.0
C260 C 0.7302 0.69401 0.86959 0.0
C261 C 0.70538 0.65305 0.88365 0.0
C262 C 0.71716 0.67269 0.02029 0.0
C263 C 0.37968 0.28155 0.89273 0.0
H264 H 0.03074 0.15099 0.14346 0.0
H265 H 0.22069 0.23437 0.13175 0.0
H266 H 0.24185 0.30853 0.15809 0.0
H267 H 0.02461 0.28148 0.15774 0.0
H268 H 0.97199 0.24665 0.17637 0.0
H269 H 0.97228 0.20295 0.156 0.0
H270 H 0.98639 0.13424 0.17756 0.0
H271 H 0.98641 0.17799 0.19796 0.0
H272 H 0.04854 0.16585 0.19388 0.0
H273 H 0.24006 0.3772 0.18426 0.0
H274 H 0.21822 0.42967 0.20982 0.0
H275 H 0.03085 0.28942 0.20797 0.0
C276 C 0.07667 0.1853 0.1464 0.0
C277 C 0.1242 0.18811 0.13554 0.0
C278 C 0.1839 0.23226 0.13994 0.0
C279 C 0.19619 0.27436 0.15481 0.0
C280 C 0.14827 0.2703 0.16539 0.0
C281 C 0.08981 0.22627 0.16156 0.0
C282 C 0.04681 0.22966 0.17564 0.0
C283 C 0.00124 0.24086 0.16585 0.0
C284 C 0.01519 0.17361 0.18693 0.0
C285 C 0.09004 0.28298 0.18785 0.0
C286 C 0.14813 0.30637 0.18154 0.0
C287 C 0.19493 0.35837 0.18965 0.0
C288 C 0.18191 0.38753 0.20448 0.0
C289 C 0.12262 0.36399 0.21152 0.0
C290 C 0.07663 0.31 0.20314 0.0
H291 H 0.91546 0.11904 0.45815 0.0
H292 H 0.0178 0.05341 0.48489 0.0
H293 H 0.98674 0.07349 0.51608 0.0
H294 H 0.93869 0.2351 0.49621 0.0
H295 H 0.86309 0.22063 0.49379 0.0
H296 H 0.90136 0.2109 0.47366 0.0
H297 H 0.81412 0.10291 0.46832 0.0
H298 H 0.77619 0.11264 0.48844 0.0
H299 H 0.79219 0.05314 0.48722 0.0
H300 H 0.93431 0.08655 0.54372 0.0
H301 H 0.86441 0.09412 0.5664 0.0
H302 H 0.79474 0.15113 0.52239 0.0
C303 C 0.93277 0.11098 0.47065 0.0
C304 C 0.9696 0.08555 0.46927 0.0
C305 C 0.98995 0.07347 0.4858 0.0
C306 C 0.97269 0.08483 0.50355 0.0
C307 C 0.93492 0.10827 0.50455 0.0
C308 C 0.91538 0.12166 0.4886 0.0
C309 C 0.87028 0.14097 0.49366 0.0
C310 C 0.89484 0.20576 0.48906 0.0
C311 C 0.80962 0.09991 0.48382 0.0
C312 C 0.86594 0.13403 0.51474 0.0
C313 C 0.90426 0.1159 0.52074 0.0
C314 C 0.90494 0.1019 0.5393 0.0
C315 C 0.86498 0.10601 0.55205 0.0
C316 C 0.82495 0.12397 0.54619 0.0
C317 C 0.82613 0.13891 0.52735 0.0
H318 H 0.96968 0.96702 0.80028 0.0
H319 H 0.84167 0.01825 0.78454 0.0
H320 H 0.76476 0.94144 0.80406 0.0
H321 H 0.86371 0.80792 0.80269 0.0
H322 H 0.89919 0.80098 0.82311 0.0
H323 H 0.943 0.85653 0.80664 0.0
H324 H 0.97942 0.93767 0.83362 0.0
H325 H 0.93573 0.88243 0.85015 0.0
H326 H 0.92499 0.94466 0.84809 0.0
H327 H 0.70245 0.86122 0.82572 0.0
H328 H 0.65977 0.78589 0.84939 0.0
H329 H 0.82967 0.79043 0.85306 0.0
C330 C 0.92514 0.9613 0.80072 0.0
C331 C 0.91145 0.99828 0.79077 0.0
C332 C 0.8531 0.99041 0.79203 0.0
C333 C 0.80905 0.94676 0.80303 0.0
C334 C 0.82412 0.91159 0.81286 0.0
C335 C 0.88078 0.91849 0.81193 0.0
C336 C 0.88613 0.87734 0.8249 0.0
C337 C 0.89875 0.83307 0.81366 0.0
C338 C 0.93442 0.91265 0.84009 0.0
C339 C 0.8238 0.84662 0.83332 0.0
C340 C 0.78866 0.86666 0.826 0.0
C341 C 0.72963 0.84538 0.83163 0.0
C342 C 0.70595 0.80286 0.84525 0.0
C343 C 0.74133 0.78237 0.85337 0.0
C344 C 0.80102 0.80447 0.8471 0.0
H345 H 0.12647 0.9315 0.11174 0.0
H346 H 0.94735 0.90403 0.11941 0.0
H347 H 0.92153 0.82014 0.13904 0.0
H348 H 0.08273 0.77015 0.11258 0.0
H349 H 0.14961 0.78838 0.12549 0.0
H350 H 0.1509 0.83926 0.10922 0.0
H351 H 0.18996 0.92169 0.13581 0.0
H352 H 0.18791 0.87101 0.15221 0.0
H353 H 0.14752 0.90959 0.15718 0.0
H354 H 0.9202 0.75223 0.16187 0.0
H355 H 0.94059 0.69871 0.18497 0.0
H356 H 0.11934 0.76479 0.162 0.0
C357 C 0.08116 0.90621 0.11694 0.0
C358 C 0.03866 0.92379 0.11392 0.0
C359 C 0.98041 0.89103 0.12148 0.0
C360 C 0.9653 0.84326 0.13263 0.0
C361 C 0.00886 0.82855 0.13606 0.0
C362 C 0.06537 0.85835 0.12826 0.0
C363 C 0.10533 0.83692 0.13569 0.0
C364 C 0.12318 0.80688 0.11979 0.0
C365 C 0.16094 0.88784 0.14582 0.0
C366 C 0.06315 0.79234 0.14941 0.0
C367 C 0.00764 0.78794 0.14923 0.0
C368 C 0.96285 0.75379 0.16176 0.0
C369 C 0.97492 0.72312 0.17481 0.0
C370 C 0.03131 0.72615 0.17526 0.0
C371 C 0.0757 0.76109 0.16217 0.0
H372 H 0.13237 0.96744 0.46018 0.0
H373 H 0.22251 0.14078 0.43673 0.0
H374 H 0.31175 0.16918 0.45617 0.0
H375 H 0.18281 0.01644 0.50615 0.0
H376 H 0.19188 0.9549 0.51134 0.0
H377 H 0.13775 0.94539 0.494 0.0
H378 H 0.1873 0.90775 0.46921 0.0
H379 H 0.24141 0.9167 0.48654 0.0
H380 H 0.26634 0.95258 0.46461 0.0
H381 H 0.38745 0.18191 0.48019 0.0
H382 H 0.44521 0.17705 0.5065 0.0
H383 H 0.30509 0.99604 0.51458 0.0
C384 C 0.17131 0.01092 0.45877 0.0
C385 C 0.17039 0.05177 0.44683 0.0
C386 C 0.22207 0.10861 0.44572 0.0
C387 C 0.27306 0.12516 0.4567 0.0
C388 C 0.27181 0.08435 0.46867 0.0
C389 C 0.22245 0.02825 0.46968 0.0
C390 C 0.23107 0.9941 0.48457 0.0
C391 C 0.18304 0.97672 0.49992 0.0
C392 C 0.23157 0.93955 0.4757 0.0
C393 C 0.29244 0.0402 0.49205 0.0
C394 C 0.31536 0.0918 0.4826 0.0
C395 C 0.37021 0.14157 0.48758 0.0
C396 C 0.40244 0.13854 0.50262 0.0
C397 C 0.37963 0.08619 0.51258 0.0
C398 C 0.3241 0.03634 0.50706 0.0
H399 H 0.20043 0.30318 0.79211 0.0
H400 H 0.20886 0.14218 0.79346 0.0
H401 H 0.30269 0.19648 0.81204 0.0
H402 H 0.36056 0.40266 0.78731 0.0
H403 H 0.36075 0.46117 0.8019 0.0
H404 H 0.29474 0.40981 0.78849 0.0
H405 H 0.23156 0.38391 0.81892 0.0
H406 H 0.29733 0.43522 0.83241 0.0
H407 H 0.25429 0.3591 0.83856 0.0
H408 H 0.39201 0.26701 0.8322 0.0
H409 H 0.47187 0.34872 0.85138 0.0
H410 H 0.40939 0.46565 0.83486 0.0
C411 C 0.22193 0.27923 0.79629 0.0
C412 C 0.19699 0.21823 0.7914 0.0
C413 C 0.22702 0.18885 0.79702 0.0
C414 C 0.28035 0.21932 0.80758 0.0
C415 C 0.30353 0.27933 0.8122 0.0
C416 C 0.27554 0.30908 0.80661 0.0
C417 C 0.30968 0.37359 0.81343 0.0
C418 C 0.33281 0.41419 0.79679 0.0
C419 C 0.2709 0.38882 0.82662 0.0
C420 C 0.36077 0.3753 0.824 0.0
C421 C 0.35635 0.32048 0.82315 0.0
C422 C 0.39661 0.31042 0.83265 0.0
C423 C 0.44235 0.3575 0.84338 0.0
C424 C 0.44802 0.41435 0.84445 0.0
C425 C 0.4067 0.42305 0.8344 0.0
H426 H 0.92275 0.02344 0.7061 0.0
H427 H 0.97498 0.1839 0.74064 0.0
H428 H 0.90523 0.20152 0.72285 0.0
H429 H 0.91283 0.07999 0.66304 0.0
H430 H 0.84864 0.01227 0.6542 0.0
H431 H 0.89969 0.00977 0.67041 0.0
H432 H 0.81169 0.94987 0.69286 0.0
H433 H 0.76029 0.95206 0.67669 0.0
H434 H 0.76445 0.97894 0.70077 0.0
H435 H 0.8339 0.20474 0.7005 0.0
H436 H 0.76449 0.19268 0.67516 0.0
H437 H 0.7587 0.03087 0.65464 0.0
C438 C 0.9189 0.06185 0.71006 0.0
C439 C 0.95421 0.10222 0.7248 0.0
C440 C 0.94838 0.15232 0.72942 0.0
C441 C 0.9088 0.1627 0.71941 0.0
C442 C 0.87525 0.12257 0.7048 0.0
C443 C 0.87965 0.07304 0.70014 0.0
C444 C 0.84 0.03816 0.68335 0.0
C445 C 0.87755 0.03488 0.66677 0.0
C446 C 0.79121 0.97608 0.68875 0.0
C447 C 0.81326 0.07624 0.6792 0.0
C448 C 0.83408 0.12457 0.6918 0.0
C449 C 0.81712 0.16697 0.69058 0.0
C450 C 0.77799 0.15994 0.67605 0.0
C451 C 0.75622 0.11095 0.66286 0.0
C452 C 0.77394 0.06841 0.66461 0.0
H453 H 0.97196 0.95104 0.05212 0.0
H454 H 0.95672 0.10387 0.04039 0.0
H455 H 0.8994 0.05195 0.01164 0.0
H456 H 0.98999 0.91179 0.00454 0.0
H457 H 0.94512 0.8331 0.00701 0.0
H458 H 0.98455 0.88142 0.02707 0.0
H459 H 0.88497 0.83989 0.04559 0.0
H460 H 0.84573 0.79092 0.02564 0.0
H461 H 0.822 0.84057 0.03546 0.0
H462 H 0.84614 0.98555 0.98371 0.0
H463 H 0.79428 0.90531 0.95931 0.0
H464 H 0.84095 0.79411 0.98918 0.0
C465 C 0.95633 0.9735 0.04357 0.0
C466 C 0.96915 0.03175 0.04861 0.0
C467 C 0.94758 0.05931 0.03697 0.0
C468 C 0.91506 0.03027 0.02052 0.0
C469 C 0.90394 0.97341 0.01585 0.0
C470 C 0.92327 0.94493 0.02709 0.0
C471 C 0.90437 0.88334 0.01885 0.0
C472 C 0.95929 0.87708 0.01408 0.0
C473 C 0.86173 0.83589 0.03218 0.0
C474 C 0.87195 0.88208 1.00119 0.0
C475 C 0.87243 0.93459 0.99973 0.0
C476 C 0.8452 0.94407 0.98472 0.0
C477 C 0.81579 0.89824 0.97095 0.0
C478 C 0.81367 0.84353 0.97229 0.0
C479 C 0.84268 0.83576 0.98757 0.0
H480 H 0.12313 0.99636 0.37937 0.0
H481 H 0.93075 0.91605 0.38588 0.0
H482 H 0.91581 0.82551 0.36835 0.0
H483 H 0.12332 0.93482 0.33312 0.0
H484 H 0.18379 0.92193 0.33799 0.0
H485 H 0.17926 0.981 0.3506 0.0
H486 H 0.18099 0.93746 0.3822 0.0
H487 H 0.18533 0.87815 0.36967 0.0
H488 H 0.12611 0.86166 0.38634 0.0
H489 H 0.92165 0.747 0.34842 0.0
H490 H 0.94708 0.68264 0.32915 0.0
H491 H 0.13673 0.80779 0.3393 0.0
C492 C 0.07794 0.95978 0.37694 0.0
C493 C 0.02793 0.96317 0.38369 0.0
C494 C 0.9695 0.91417 0.38069 0.0
C495 C 0.96062 0.86267 0.37077 0.0
C496 C 0.01077 0.86045 0.36434 0.0
C497 C 0.06833 0.90731 0.36749 0.0
C498 C 0.11441 0.89245 0.35963 0.0
C499 C 0.15242 0.93508 0.34443 0.0
C500 C 0.15404 0.89242 0.3754 0.0
C501 C 0.07367 0.83047 0.35122 0.0
C502 C 0.01413 0.81314 0.354 0.0
C503 C 0.96816 0.75945 0.34651 0.0
C504 C 0.98333 0.72264 0.33571 0.0
C505 C 0.04421 0.73884 0.33272 0.0
C506 C 0.08972 0.79344 0.34098 0.0
H507 H 0.21049 0.12864 0.71008 0.0
H508 H 0.15943 0.97909 0.74447 0.0
H509 H 0.23699 0.96282 0.72902 0.0
H510 H 0.23789 0.06504 0.66775 0.0
H511 H 0.30047 0.13434 0.66095 0.0
H512 H 0.24123 0.13369 0.6749 0.0
H513 H 0.31976 0.20441 0.69996 0.0
H514 H 0.37891 0.20439 0.68612 0.0
H515 H 0.36909 0.18343 0.71017 0.0
H516 H 0.31956 0.96216 0.70919 0.0
H517 H 0.39893 0.97639 0.68639 0.0
H518 H 0.39507 0.12638 0.66526 0.0
C519 C 0.21558 0.09246 0.7144 0.0
C520 C 0.17891 0.05513 0.72851 0.0
C521 C 0.18698 0.00822 0.73369 0.0
C522 C 0.23099 0.99872 0.72502 0.0
C523 C 0.26652 0.03651 0.71119 0.0
C524 C 0.25912 0.08235 0.70589 0.0
C525 C 0.30234 0.11616 0.69049 0.0
C526 C 0.26843 0.11202 0.67246 0.0
C527 C 0.34505 0.18093 0.69709 0.0
C528 C 0.3353 0.08226 0.68792 0.0
C529 C 0.31407 0.03645 0.69997 0.0
C530 C 0.33666 0.99807 0.69976 0.0
C531 C 0.38163 0.00641 0.68676 0.0
C532 C 0.40367 0.05289 0.67421 0.0
C533 C 0.38025 0.09136 0.67497 0.0
H534 H 0.24848 0.30077 0.06644 0.0
H535 H 0.24141 0.13169 0.06039 0.0
H536 H 0.32541 0.17397 0.03795 0.0
H537 H 0.27115 0.3327 0.01971 0.0
H538 H 0.32135 0.41112 0.02366 0.0
H539 H 0.26673 0.37027 0.04113 0.0
H540 H 0.35081 0.40686 0.06624 0.0
H541 H 0.40581 0.44843 0.04887 0.0
H542 H 0.41326 0.3954 0.06185 0.0
H543 H 0.40226 0.2319 0.01325 0.0
H544 H 0.46628 0.30068 0.98928 0.0
H545 H 0.42366 0.43175 0.01232 0.0
C546 C 0.26527 0.27278 0.06075 0.0
C547 C 0.23818 0.21281 0.06524 0.0
C548 C 0.26152 0.17784 0.0573 0.0
C549 C 0.30924 0.20147 0.04451 0.0
C550 C 0.33357 0.26028 0.03997 0.0
C551 C 0.31273 0.2956 0.04805 0.0
C552 C 0.34352 0.35612 0.03996 0.0
C553 C 0.29796 0.36821 0.03056 0.0
C554 C 0.38056 0.40456 0.05513 0.0
C555 C 0.38355 0.3488 0.0256 0.0
C556 C 0.37777 0.29352 0.02591 0.0
C557 C 0.40788 0.27566 0.01312 0.0
C558 C 0.44434 0.31514 0.99958 0.0
C559 C 0.45013 0.37173 0.99888 0.0
C560 C 0.41992 0.38873 0.01233 0.0
H561 H 0.0033 0.17568 0.37114 0.0
H562 H 0.13576 0.29121 0.4131 0.0
H563 H 0.15345 0.37839 0.39614 0.0
H564 H 0.08481 0.25657 0.3321 0.0
H565 H 0.01965 0.24348 0.31919 0.0
H566 H 0.01348 0.19076 0.33552 0.0
H567 H 0.92934 0.19953 0.35318 0.0
H568 H 0.93519 0.25225 0.33686 0.0
H569 H 0.94303 0.27132 0.36174 0.0
H570 H 0.15805 0.45289 0.37408 0.0
H571 H 0.15263 0.50859 0.3482 0.0
H572 H 0.02272 0.34338 0.31938 0.0
C573 C 0.03523 0.21939 0.37694 0.0
C574 C 0.06765 0.22679 0.39358 0.0
C575 C 0.11018 0.2846 0.40045 0.0
C576 C 0.12045 0.33435 0.39092 0.0
C577 C 0.08829 0.3255 0.37442 0.0
C578 C 0.04676 0.26942 0.36743 0.0
C579 C 0.02102 0.27173 0.34879 0.0
C580 C 0.03564 0.23868 0.33297 0.0
C581 C 0.95312 0.24726 0.35024 0.0
C582 C 0.05468 0.33784 0.34634 0.0
C583 C 0.09279 0.36812 0.36135 0.0
C584 C 0.12855 0.42955 0.36221 0.0
C585 C 0.12553 0.46081 0.3473 0.0
C586 C 0.08755 0.43073 0.33153 0.0
C587 C 0.05163 0.36823 0.33123 0.0
loop_
_geom_bond_atom_site_label_1
_geom_bond_atom_site_label_2
_geom_bond_distance
_geom_bond_site_symmetry_2
_ccdc_geom_bond_type
Co0 O1 2.216 . S
Co0 O2 2.091 . S
Co0 O4 2.004 . S
Co0 O10 2.021 . S
Co0 O12 2.137 . S
Co0 O13 2.244 . S
O1 Co0 2.216 . S
O1 C8 1.247 . S
O2 Co0 2.091 . S
O2 C8 1.261 . S
C3 O12 1.247 . S
C3 O13 1.272 . S
O4 Co0 2.004 . S
O4 C9 1.259 . S
Co5 O6 2.061 . S
Co5 O11 2.052 1_455 S
Co5 O13 2.135 . S
O6 Co5 2.061 . S
O6 C9 1.235 . S
C7 O10 1.238 . S
C7 O11 1.241 1_455 S
C8 O1 1.247 . S
C8 O2 1.261 . S
C9 O4 1.259 . S
C9 O6 1.235 . S
O10 Co0 2.021 . S
O10 C7 1.238 . S
O11 Co5 2.052 1_655 S
O11 C7 1.241 1_655 S
O12 Co0 2.137 . S
O12 C3 1.247 . S
O13 Co0 2.244 . S
O13 C3 1.272 . S
O13 Co5 2.135 . S
Co14 O15 2.216 . S
Co14 O16 2.091 . S
Co14 O18 2.004 . S
Co14 O24 2.021 . S
Co14 O26 2.137 . S
Co14 O27 2.244 1_545 S
O15 Co14 2.216 . S
O15 C22 1.247 . S
O16 Co14 2.091 . S
O16 C22 1.261 . S
C17 O26 1.247 1_565 S
C17 O27 1.272 . S
O18 Co14 2.004 . S
O18 C23 1.259 . S
Co19 O20 2.061 1_565 S
Co19 O25 2.033 1_465 S
Co19 O27 2.135 . S
O20 Co19 2.061 1_545 S
O20 C23 1.235 . S
C21 O24 1.238 1_655 S
C21 O25 1.263 . S
C22 O15 1.247 . S
C22 O16 1.261 . S
C23 O18 1.259 . S
C23 O20 1.235 . S
O24 Co14 2.021 . S
O24 C21 1.238 1_455 S
O25 Co19 2.033 1_645 S
O25 C21 1.263 . S
O26 Co14 2.137 . S
O26 C17 1.247 1_545 S
O27 Co14 2.244 1_565 S
O27 C17 1.272 . S
O27 Co19 2.135 . S
Co28 O29 2.216 . S
Co28 O30 2.091 . S
Co28 O32 2.004 . S
Co28 O38 2.021 . S
Co28 O40 2.137 . S
Co28 O41 2.244 . S
O29 Co28 2.216 . S
O29 C36 1.247 . S
O30 Co28 2.091 . S
O30 C36 1.261 . S
C31 O40 1.247 . S
C31 O41 1.272 . S
O32 Co28 2.004 . S
O32 C37 1.259 . S
Co33 O34 2.061 . S
Co33 O39 2.052 . S
Co33 O41 2.135 . S
O34 Co33 2.061 . S
O34 C37 1.235 . S
C35 O38 1.238 . S
C35 O39 1.241 . S
C36 O29 1.247 . S
C36 O30 1.261 . S
C37 O32 1.259 . S
C37 O34 1.235 . S
O38 Co28 2.021 . S
O38 C35 1.238 . S
O39 Co33 2.052 . S
O39 C35 1.241 . S
O40 Co28 2.137 . S
O40 C31 1.247 . S
O41 Co28 2.244 . S
O41 C31 1.272 . S
O41 Co33 2.135 . S
H42 O68 0.856 . S
H43 O71 0.854 . S
H44 C79 0.930 . S
H45 C80 0.930 . S
H46 C82 0.930 . S
H47 C83 0.930 . S
H48 C85 0.931 1_655 S
H49 C86 0.930 1_655 S
H50 C88 0.930 . S
H51 C89 0.929 . S
H52 C91 0.930 1_655 S
H53 C92 0.931 1_655 S
H54 C94 0.930 . S
H55 C95 0.929 . S
H56 C97 0.931 1_655 S
H57 C98 0.930 1_655 S
H58 C100 0.930 . S
H59 C101 0.932 . S
H60 C103 0.930 . S
H61 C104 0.929 . S
H62 C106 0.931 . S
H63 C107 0.930 . S
H64 C109 0.929 1_655 S
H65 C110 0.931 1_655 S
H66 C112 0.930 . S
H67 C113 0.929 . S
O68 H42 0.856 . S
O68 C114 1.300 . S
O69 C114 1.209 . S
O70 C115 1.199 . S
O71 H43 0.854 . S
O71 C115 1.297 . S
C72 C73 1.404 . S
C72 C77 1.397 . S
C72 C78 1.492 . S
C73 C72 1.404 . S
C73 C74 1.396 . S
C73 C84 1.492 . S
C74 C73 1.396 . S
C74 C75 1.397 . S
C74 C90 1.509 . S
C75 C74 1.397 . S
C75 C76 1.412 . S
C75 C96 1.485 . S
C76 C75 1.412 . S
C76 C77 1.388 . S
C76 C102 1.490 . S
C77 C72 1.397 . S
C77 C76 1.388 . S
C77 C108 1.519 . S
C78 C72 1.492 . S
C78 C79 1.363 1_455 S
C78 C83 1.390 . S
C79 H44 0.930 . S
C79 C78 1.363 1_655 S
C79 C80 1.372 . S
C80 H45 0.930 . S
C80 C79 1.372 . S
C80 C81 1.383 1_655 S
C81 C80 1.383 1_455 S
C81 C82 1.395 . S
C82 H46 0.930 . S
C82 C81 1.395 . S
C82 C83 1.362 . S
C83 H47 0.930 . S
C83 C78 1.390 . S
C83 C82 1.362 . S
C84 C73 1.492 . S
C84 C85 1.377 . S
C84 C89 1.397 . S
C85 H48 0.931 1_455 S
C85 C84 1.377 . S
C85 C86 1.376 . S
C86 H49 0.930 1_455 S
C86 C85 1.376 . S
C86 C87 1.376 . S
C87 C86 1.376 . S
C87 C88 1.378 . S
C87 C114 1.486 . S
C88 H50 0.930 . S
C88 C87 1.378 . S
C88 C89 1.376 . S
C89 H51 0.929 . S
C89 C84 1.397 . S
C89 C88 1.376 . S
C90 C74 1.509 . S
C90 C91 1.391 . S
C90 C95 1.386 . S
C91 H52 0.930 1_455 S
C91 C90 1.391 . S
C91 C92 1.375 . S
C92 H53 0.931 1_455 S
C92 C91 1.375 . S
C92 C93 1.375 . S
C93 C92 1.375 . S
C93 C94 1.361 . S
C94 H54 0.930 . S
C94 C93 1.361 . S
C94 C95 1.399 . S
C95 H55 0.929 . S
C95 C90 1.386 . S
C95 C94 1.399 . S
C96 C75 1.485 . S
C96 C97 1.394 . S
C96 C101 1.360 . S
C97 H56 0.931 1_455 S
C97 C96 1.394 . S
C97 C98 1.372 . S
C98 H57 0.930 1_455 S
C98 C97 1.372 . S
C98 C99 1.397 . S
C99 C98 1.397 . S
C99 C100 1.390 . S
C99 C115 1.476 . S
C100 H58 0.930 . S
C100 C99 1.390 . S
C100 C101 1.366 . S
C101 H59 0.932 . S
C101 C96 1.360 . S
C101 C100 1.366 . S
C102 C76 1.490 . S
C102 C103 1.380 1_455 S
C102 C107 1.386 . S
C103 H60 0.930 . S
C103 C102 1.380 1_655 S
C103 C104 1.381 . S
C104 H61 0.929 . S
C104 C103 1.381 . S
C104 C105 1.371 1_655 S
C105 C104 1.371 1_455 S
C105 C106 1.380 . S
C106 H62 0.931 . S
C106 C105 1.380 . S
C106 C107 1.387 . S
C107 H63 0.930 . S
C107 C102 1.386 . S
C107 C106 1.387 . S
C108 C77 1.519 . S
C108 C109 1.377 . S
C108 C113 1.361 . S
C109 H64 0.929 1_455 S
C109 C108 1.377 . S
C109 C110 1.386 . S
C110 H65 0.931 1_455 S
C110 C109 1.386 . S
C110 C111 1.363 . S
C111 C110 1.363 . S
C111 C112 1.385 . S
C112 H66 0.930 . S
C112 C111 1.385 . S
C112 C113 1.396 . S
C113 H67 0.929 . S
C113 C108 1.361 . S
C113 C112 1.396 . S
C114 O68 1.300 . S
C114 O69 1.209 . S
C114 C87 1.486 . S
C115 O70 1.199 . S
C115 O71 1.297 . S
C115 C99 1.476 . S
H116 O142 0.856 . S
H117 O145 0.854 . S
H118 C153 0.930 1_565 S
H119 C154 0.930 1_565 S
H120 C156 0.930 . S
H121 C157 0.930 . S
H122 C159 0.931 . S
H123 C160 0.930 . S
H124 C162 0.930 . S
H125 C163 0.929 . S
H126 C165 0.930 . S
H127 C166 0.931 . S
H128 C168 0.930 . S
H129 C169 0.929 . S
H130 C171 0.931 . S
H131 C172 0.930 . S
H132 C174 0.930 . S
H133 C175 0.932 . S
H134 C177 0.930 . S
H135 C178 0.929 1_565 S
H136 C180 0.931 . S
H137 C181 0.930 . S
H138 C183 0.929 . S
H139 C184 0.931 . S
H140 C186 0.930 . S
H141 C187 0.929 . S
O142 H116 0.856 . S
O142 C188 1.300 . S
O143 C188 1.209 . S
O144 C189 1.199 . S
O145 H117 0.854 . S
O145 C189 1.297 . S
C146 C147 1.404 . S
C146 C151 1.397 . S
C146 C152 1.492 . S
C147 C146 1.404 . S
C147 C148 1.396 . S
C147 C158 1.492 . S
C148 C147 1.396 . S
C148 C149 1.397 . S
C148 C164 1.509 . S
C149 C148 1.397 . S
C149 C150 1.412 . S
C149 C170 1.485 . S
C150 C149 1.412 . S
C150 C151 1.388 . S
C150 C176 1.490 . S
C151 C146 1.397 . S
C151 C150 1.388 . S
C151 C182 1.519 . S
C152 C146 1.492 . S
C152 C153 1.363 . S
C152 C157 1.390 . S
C153 H118 0.930 1_545 S
C153 C152 1.363 . S
C153 C154 1.372 . S
C154 H119 0.930 1_545 S
C154 C153 1.372 . S
C154 C155 1.383 . S
C155 C154 1.383 . S
C155 C156 1.395 . S
C156 H120 0.930 . S
C156 C155 1.395 . S
C156 C157 1.362 . S
C157 H121 0.930 . S
C157 C152 1.390 . S
C157 C156 1.362 . S
C158 C147 1.492 . S
C158 C159 1.377 . S
C158 C163 1.397 . S
C159 H122 0.931 . S
C159 C158 1.377 . S
C159 C160 1.376 . S
C160 H123 0.930 . S
C160 C159 1.376 . S
C160 C161 1.376 . S
C161 C160 1.376 . S
C161 C162 1.378 . S
C161 C188 1.486 . S
C162 H124 0.930 . S
C162 C161 1.378 . S
C162 C163 1.376 . S
C163 H125 0.929 . S
C163 C158 1.397 . S
C163 C162 1.376 . S
C164 C148 1.509 . S
C164 C165 1.391 . S
C164 C169 1.386 . S
C165 H126 0.930 . S
C165 C164 1.391 . S
C165 C166 1.375 . S
C166 H127 0.931 . S
C166 C165 1.375 . S
C166 C167 1.375 . S
C167 C166 1.375 . S
C167 C168 1.361 . S
C168 H128 0.930 . S
C168 C167 1.361 . S
C168 C169 1.399 . S
C169 H129 0.929 . S
C169 C164 1.386 . S
C169 C168 1.399 . S
C170 C149 1.485 . S
C170 C171 1.394 . S
C170 C175 1.360 . S
C171 H130 0.931 . S
C171 C170 1.394 . S
C171 C172 1.372 . S
C172 H131 0.930 . S
C172 C171 1.372 . S
C172 C173 1.397 . S
C173 C172 1.397 . S
C173 C174 1.390 . S
C173 C189 1.476 . S
C174 H132 0.930 . S
C174 C173 1.390 . S
C174 C175 1.366 . S
C175 H133 0.932 . S
C175 C170 1.360 . S
C175 C174 1.366 . S
C176 C150 1.490 . S
C176 C177 1.380 . S
C176 C181 1.386 . S
C177 H134 0.930 . S
C177 C176 1.380 . S
C177 C178 1.381 . S
C178 H135 0.929 1_545 S
C178 C177 1.381 . S
C178 C179 1.371 . S
C179 C178 1.371 . S
C179 C180 1.380 . S
C180 H136 0.931 . S
C180 C179 1.380 . S
C180 C181 1.387 . S
C181 H137 0.930 . S
C181 C176 1.386 . S
C181 C180 1.387 . S
C182 C151 1.519 . S
C182 C183 1.377 . S
C182 C187 1.361 . S
C183 H138 0.929 . S
C183 C182 1.377 . S
C183 C184 1.386 . S
C184 H139 0.931 . S
C184 C183 1.386 . S
C184 C185 1.363 . S
C185 C184 1.363 . S
C185 C186 1.385 . S
C186 H140 0.930 . S
C186 C185 1.385 . S
C186 C187 1.396 . S
C187 H141 0.929 . S
C187 C182 1.361 . S
C187 C186 1.396 . S
C188 O142 1.300 . S
C188 O143 1.209 . S
C188 C161 1.486 . S
C189 O144 1.199 . S
C189 O145 1.297 . S
C189 C173 1.476 . S
H190 O216 0.856 . S
H191 O219 0.854 . S
H192 C227 0.930 . S
H193 C228 0.930 . S
H194 C230 0.930 . S
H195 C231 0.930 . S
H196 C233 0.931 . S
H197 C234 0.930 . S
H198 C236 0.930 1_554 S
H199 C237 0.929 . S
H200 C239 0.930 . S
H201 C240 0.931 . S
H202 C242 0.930 . S
H203 C243 0.929 . S
H204 C245 0.931 . S
H205 C246 0.930 . S
H206 C248 0.930 . S
H207 C249 0.932 . S
H208 C251 0.930 . S
H209 C252 0.929 . S
H210 C254 0.931 . S
H211 C255 0.930 . S
H212 C257 0.929 . S
H213 C258 0.931 . S
H214 C260 0.930 . S
H215 C261 0.929 . S
O216 H190 0.856 . S
O216 C262 1.300 . S
O217 C262 1.209 . S
O218 C263 1.199 . S
O219 H191 0.854 . S
O219 C263 1.297 . S
C220 C221 1.404 . S
C220 C225 1.397 . S
C220 C226 1.492 . S
C221 C220 1.404 . S
C221 C222 1.396 . S
C221 C232 1.492 . S
C222 C221 1.396 . S
C222 C223 1.397 . S
C222 C238 1.509 . S
C223 C222 1.397 . S
C223 C224 1.412 . S
C223 C244 1.485 . S
C224 C223 1.412 . S
C224 C225 1.388 . S
C224 C250 1.490 . S
C225 C220 1.397 . S
C225 C224 1.388 . S
C225 C256 1.519 . S
C226 C220 1.492 . S
C226 C227 1.363 . S
C226 C231 1.390 . S
C227 H192 0.930 . S
C227 C226 1.363 . S
C227 C228 1.372 . S
C228 H193 0.930 . S
C228 C227 1.372 . S
C228 C229 1.383 . S
C229 C228 1.383 . S
C229 C230 1.395 . S
C230 H194 0.930 . S
C230 C229 1.395 . S
C230 C231 1.362 . S
C231 H195 0.930 . S
C231 C226 1.390 . S
C231 C230 1.362 . S
C232 C221 1.492 . S
C232 C233 1.377 . S
C232 C237 1.397 . S
C233 H196 0.931 . S
C233 C232 1.377 . S
C233 C234 1.376 1_556 S
C234 H197 0.930 . S
C234 C233 1.376 1_554 S
C234 C235 1.376 . S
C235 C234 1.376 . S
C235 C236 1.378 1_554 S
C235 C262 1.486 . S
C236 H198 0.930 1_556 S
C236 C235 1.378 1_556 S
C236 C237 1.376 . S
C237 H199 0.929 . S
C237 C232 1.397 . S
C237 C236 1.376 . S
C238 C222 1.509 . S
C238 C239 1.391 . S
C238 C243 1.386 . S
C239 H200 0.930 . S
C239 C238 1.391 . S
C239 C240 1.375 . S
C240 H201 0.931 . S
C240 C239 1.375 . S
C240 C241 1.375 . S
C241 C240 1.375 . S
C241 C242 1.361 . S
C242 H202 0.930 . S
C242 C241 1.361 . S
C242 C243 1.399 . S
C243 H203 0.929 . S
C243 C238 1.386 . S
C243 C242 1.399 . S
C244 C223 1.485 . S
C244 C245 1.394 . S
C244 C249 1.360 . S
C245 H204 0.931 . S
C245 C244 1.394 . S
C245 C246 1.372 . S
C246 H205 0.930 . S
C246 C245 1.372 . S
C246 C247 1.397 . S
C247 C246 1.397 . S
C247 C248 1.390 . S
C247 C263 1.476 . S
C248 H206 0.930 . S
C248 C247 1.390 . S
C248 C249 1.366 . S
C249 H207 0.932 . S
C249 C244 1.360 . S
C249 C248 1.366 . S
C250 C224 1.490 . S
C250 C251 1.380 . S
C250 C255 1.386 . S
C251 H208 0.930 . S
C251 C250 1.380 . S
C251 C252 1.381 . S
C252 H209 0.929 . S
C252 C251 1.381 . S
C252 C253 1.371 . S
C253 C252 1.371 . S
C253 C254 1.380 . S
C254 H210 0.931 . S
C254 C253 1.380 . S
C254 C255 1.387 . S
C255 H211 0.930 . S
C255 C250 1.386 . S
C255 C254 1.387 . S
C256 C225 1.519 . S
C256 C257 1.377 . S
C256 C261 1.361 . S
C257 H212 0.929 . S
C257 C256 1.377 . S
C257 C258 1.386 . S
C258 H213 0.931 . S
C258 C257 1.386 . S
C258 C259 1.363 . S
C259 C258 1.363 . S
C259 C260 1.385 . S
C260 H214 0.930 . S
C260 C259 1.385 . S
C260 C261 1.396 . S
C261 H215 0.929 . S
C261 C256 1.361 . S
C261 C260 1.396 . S
C262 O216 1.300 . S
C262 O217 1.209 . S
C262 C235 1.486 . S
C263 O218 1.199 . S
C263 O219 1.297 . S
C263 C247 1.476 . S
H264 C276 0.930 . S
H265 C278 0.930 . S
H266 C279 0.930 . S
H267 C283 0.959 . S
H268 C283 0.959 . S
H269 C283 0.961 . S
H270 C284 0.960 . S
H271 C284 0.961 . S
H272 C284 0.959 . S
H273 C287 0.929 . S
H274 C288 0.931 . S
H275 C290 0.930 1_655 S
C276 H264 0.930 . S
C276 C277 1.399 . S
C276 C281 1.399 . S
C277 C276 1.399 . S
C277 C278 1.376 . S
C278 H265 0.930 . S
C278 C277 1.376 . S
C278 C279 1.388 . S
C279 H266 0.930 . S
C279 C278 1.388 . S
C279 C280 1.390 . S
C280 C279 1.390 . S
C280 C281 1.394 . S
C280 C286 1.465 . S
C281 C276 1.399 . S
C281 C280 1.394 . S
C281 C282 1.516 . S
C282 C281 1.516 . S
C282 C283 1.502 1_455 S
C282 C284 1.561 . S
C282 C285 1.526 . S
C283 H267 0.959 . S
C283 H268 0.959 . S
C283 H269 0.961 . S
C283 C282 1.502 1_655 S
C284 H270 0.960 . S
C284 H271 0.961 . S
C284 H272 0.959 . S
C284 C282 1.561 . S
C285 C282 1.526 . S
C285 C286 1.396 . S
C285 C290 1.390 . S
C286 C280 1.465 . S
C286 C285 1.396 . S
C286 C287 1.399 . S
C287 H273 0.929 . S
C287 C286 1.399 . S
C287 C288 1.385 . S
C288 H274 0.931 . S
C288 C287 1.385 . S
C288 C289 1.389 . S
C289 C288 1.389 . S
C289 C290 1.387 . S
C290 H275 0.930 1_455 S
C290 C285 1.390 . S
C290 C289 1.387 . S
H291 C303 0.930 . S
H292 C305 0.930 1_565 S
H293 C306 0.930 . S
H294 C310 0.959 . S
H295 C310 0.959 . S
H296 C310 0.961 . S
H297 C311 0.960 . S
H298 C311 0.961 . S
H299 C311 0.959 . S
H300 C314 0.929 . S
H301 C315 0.931 1_565 S
H302 C317 0.930 . S
C303 H291 0.930 . S
C303 C304 1.399 . S
C303 C308 1.399 . S
C304 C303 1.399 . S
C304 C305 1.376 . S
C305 H292 0.930 1_545 S
C305 C304 1.376 . S
C305 C306 1.388 1_545 S
C306 H293 0.930 . S
C306 C305 1.388 1_565 S
C306 C307 1.390 1_565 S
C307 C306 1.390 1_545 S
C307 C308 1.394 . S
C307 C313 1.465 . S
C308 C303 1.399 . S
C308 C307 1.394 . S
C308 C309 1.516 . S
C309 C308 1.516 . S
C309 C310 1.502 . S
C309 C311 1.561 . S
C309 C312 1.526 . S
C310 H294 0.959 . S
C310 H295 0.959 . S
C310 H296 0.961 . S
C310 C309 1.502 . S
C311 H297 0.960 . S
C311 H298 0.961 . S
C311 H299 0.959 . S
C311 C309 1.561 . S
C312 C309 1.526 . S
C312 C313 1.396 . S
C312 C317 1.390 . S
C313 C307 1.465 . S
C313 C312 1.396 . S
C313 C314 1.399 1_545 S
C314 H300 0.929 . S
C314 C313 1.399 1_565 S
C314 C315 1.385 1_565 S
C315 H301 0.931 1_545 S
C315 C314 1.385 1_545 S
C315 C316 1.389 . S
C316 C315 1.389 . S
C316 C317 1.387 . S
C317 H302 0.930 . S
C317 C312 1.390 . S
C317 C316 1.387 . S
H318 C330 0.930 1_455 S
H319 C332 0.930 1_545 S
H320 C333 0.930 . S
H321 C337 0.959 . S
H322 C337 0.959 . S
H323 C337 0.961 . S
H324 C338 0.960 1_455 S
H325 C338 0.961 . S
H326 C338 0.959 . S
H327 C341 0.929 . S
H328 C342 0.931 . S
H329 C344 0.930 . S
C330 H318 0.930 1_655 S
C330 C331 1.399 . S
C330 C335 1.399 . S
C331 C330 1.399 . S
C331 C332 1.376 . S
C332 H319 0.930 1_565 S
C332 C331 1.376 . S
C332 C333 1.388 . S
C333 H320 0.930 . S
C333 C332 1.388 . S
C333 C334 1.390 . S
C334 C333 1.390 . S
C334 C335 1.394 . S
C334 C340 1.465 . S
C335 C330 1.399 . S
C335 C334 1.394 . S
C335 C336 1.516 . S
C336 C335 1.516 . S
C336 C337 1.502 . S
C336 C338 1.561 . S
C336 C339 1.526 . S
C337 H321 0.959 . S
C337 H322 0.959 . S
C337 H323 0.961 . S
C337 C336 1.502 . S
C338 H324 0.960 1_655 S
C338 H325 0.961 . S
C338 H326 0.959 . S
C338 C336 1.561 . S
C339 C336 1.526 . S
C339 C340 1.396 . S
C339 C344 1.390 . S
C340 C334 1.465 . S
C340 C339 1.396 . S
C340 C341 1.399 . S
C341 H327 0.929 . S
C341 C340 1.399 . S
C341 C342 1.385 . S
C342 H328 0.931 . S
C342 C341 1.385 . S
C342 C343 1.389 . S
C343 C342 1.389 . S
C343 C344 1.387 . S
C344 H329 0.930 . S
C344 C339 1.390 . S
C344 C343 1.387 . S
H345 C357 0.930 . S
H346 C359 0.930 . S
H347 C360 0.930 . S
H348 C364 0.959 1_655 S
H349 C364 0.959 . S
H350 C364 0.961 . S
H351 C365 0.960 . S
H352 C365 0.961 . S
H353 C365 0.959 . S
H354 C368 0.929 . S
H355 C369 0.931 . S
H356 C371 0.930 . S
C357 H345 0.930 . S
C357 C358 1.399 . S
C357 C362 1.399 . S
C358 C357 1.399 . S
C358 C359 1.376 1_565 S
C359 H346 0.930 . S
C359 C358 1.376 1_545 S
C359 C360 1.388 1_545 S
C360 H347 0.930 . S
C360 C359 1.388 1_565 S
C360 C361 1.390 . S
C361 C360 1.390 . S
C361 C362 1.394 . S
C361 C367 1.465 . S
C362 C357 1.399 . S
C362 C361 1.394 . S
C362 C363 1.516 . S
C363 C362 1.516 . S
C363 C364 1.502 . S
C363 C365 1.561 . S
C363 C366 1.526 . S
C364 H348 0.959 1_455 S
C364 H349 0.959 . S
C364 H350 0.961 . S
C364 C363 1.502 . S
C365 H351 0.960 . S
C365 H352 0.961 . S
C365 H353 0.959 . S
C365 C363 1.561 . S
C366 C363 1.526 . S
C366 C367 1.396 . S
C366 C371 1.390 . S
C367 C361 1.465 . S
C367 C366 1.396 . S
C367 C368 1.399 . S
C368 H354 0.929 . S
C368 C367 1.399 . S
C368 C369 1.385 . S
C369 H355 0.931 . S
C369 C368 1.385 . S
C369 C370 1.389 . S
C370 C369 1.389 . S
C370 C371 1.387 . S
C371 H356 0.930 . S
C371 C366 1.390 . S
C371 C370 1.387 . S
H372 C384 0.930 . S
H373 C386 0.930 . S
H374 C387 0.930 . S
H375 C391 0.959 . S
H376 C391 0.959 1_565 S
H377 C391 0.961 1_565 S
H378 C392 0.960 . S
H379 C392 0.961 . S
H380 C392 0.959 . S
H381 C395 0.929 . S
H382 C396 0.931 . S
H383 C398 0.930 . S
C384 H372 0.930 . S
C384 C385 1.399 . S
C384 C389 1.399 . S
C385 C384 1.399 . S
C385 C386 1.376 . S
C386 H373 0.930 . S
C386 C385 1.376 . S
C386 C387 1.388 . S
C387 H374 0.930 . S
C387 C386 1.388 . S
C387 C388 1.390 . S
C388 C387 1.390 . S
C388 C389 1.394 . S
C388 C394 1.465 . S
C389 C384 1.399 . S
C389 C388 1.394 . S
C389 C390 1.516 . S
C390 C389 1.516 . S
C390 C391 1.502 . S
C390 C392 1.561 1_545 S
C390 C393 1.526 . S
C391 H375 0.959 . S
C391 H376 0.959 1_545 S
C391 H377 0.961 1_545 S
C391 C390 1.502 . S
C392 H378 0.960 . S
C392 H379 0.961 . S
C392 H380 0.959 . S
C392 C390 1.561 1_565 S
C393 C390 1.526 . S
C393 C394 1.396 . S
C393 C398 1.390 . S
C394 C388 1.465 . S
C394 C393 1.396 . S
C394 C395 1.399 . S
C395 H381 0.929 . S
C395 C394 1.399 . S
C395 C396 1.385 . S
C396 H382 0.931 . S
C396 C395 1.385 . S
C396 C397 1.389 . S
C397 C396 1.389 . S
C397 C398 1.387 . S
C398 H383 0.930 . S
C398 C393 1.390 . S
C398 C397 1.387 . S
H399 C411 0.930 . S
H400 C413 0.930 . S
H401 C414 0.930 . S
H402 C418 0.959 . S
H403 C418 0.959 . S
H404 C418 0.961 . S
H405 C419 0.960 . S
H406 C419 0.961 . S
H407 C419 0.959 . S
H408 C422 0.929 . S
H409 C423 0.931 . S
H410 C425 0.930 . S
C411 H399 0.930 . S
C411 C412 1.399 . S
C411 C416 1.399 . S
C412 C411 1.399 . S
C412 C413 1.376 . S
C413 H400 0.930 . S
C413 C412 1.376 . S
C413 C414 1.388 . S
C414 H401 0.930 . S
C414 C413 1.388 . S
C414 C415 1.390 . S
C415 C414 1.390 . S
C415 C416 1.394 . S
C415 C421 1.465 . S
C416 C411 1.399 . S
C416 C415 1.394 . S
C416 C417 1.516 . S
C417 C416 1.516 . S
C417 C418 1.502 . S
C417 C419 1.561 . S
C417 C420 1.526 . S
C418 H402 0.959 . S
C418 H403 0.959 . S
C418 H404 0.961 . S
C418 C417 1.502 . S
C419 H405 0.960 . S
C419 H406 0.961 . S
C419 H407 0.959 . S
C419 C417 1.561 . S
C420 C417 1.526 . S
C420 C421 1.396 . S
C420 C425 1.390 . S
C421 C415 1.465 . S
C421 C420 1.396 . S
C421 C422 1.399 . S
C422 H408 0.929 . S
C422 C421 1.399 . S
C422 C423 1.385 . S
C423 H409 0.931 . S
C423 C422 1.385 . S
C423 C424 1.389 . S
C424 C423 1.389 . S
C424 C425 1.387 . S
C425 H410 0.930 . S
C425 C420 1.390 . S
C425 C424 1.387 . S
H426 C438 0.930 . S
H427 C440 0.930 1_455 S
H428 C441 0.930 . S
H429 C445 0.959 . S
H430 C445 0.959 1_565 S
H431 C445 0.961 1_565 S
H432 C446 0.960 . S
H433 C446 0.961 . S
H434 C446 0.959 1_545 S
H435 C449 0.929 . S
H436 C450 0.931 . S
H437 C452 0.930 . S
C438 H426 0.930 . S
C438 C439 1.399 . S
C438 C443 1.399 . S
C439 C438 1.399 . S
C439 C440 1.376 . S
C440 H427 0.930 1_655 S
C440 C439 1.376 . S
C440 C441 1.388 . S
C441 H428 0.930 . S
C441 C440 1.388 . S
C441 C442 1.390 . S
C442 C441 1.390 . S
C442 C443 1.394 . S
C442 C448 1.465 . S
C443 C438 1.399 . S
C443 C442 1.394 . S
C443 C444 1.516 . S
C444 C443 1.516 . S
C444 C445 1.502 . S
C444 C446 1.561 1_545 S
C444 C447 1.526 . S
C445 H429 0.959 . S
C445 H430 0.959 1_545 S
C445 H431 0.961 1_545 S
C445 C444 1.502 . S
C446 H432 0.960 . S
C446 H433 0.961 . S
C446 H434 0.959 1_565 S
C446 C444 1.561 1_565 S
C447 C444 1.526 . S
C447 C448 1.396 . S
C447 C452 1.390 . S
C448 C442 1.465 . S
C448 C447 1.396 . S
C448 C449 1.399 . S
C449 H435 0.929 . S
C449 C448 1.399 . S
C449 C450 1.385 . S
C450 H436 0.931 . S
C450 C449 1.385 . S
C450 C451 1.389 . S
C451 C450 1.389 . S
C451 C452 1.387 . S
C452 H437 0.930 . S
C452 C447 1.390 . S
C452 C451 1.387 . S
H453 C465 0.930 . S
H454 C467 0.930 . S
H455 C468 0.930 . S
H456 C472 0.959 . S
H457 C472 0.959 . S
H458 C472 0.961 . S
H459 C473 0.960 . S
H460 C473 0.961 . S
H461 C473 0.959 . S
H462 C476 0.929 . S
H463 C477 0.931 . S
H464 C479 0.930 . S
C465 H453 0.930 . S
C465 C466 1.399 . S
C465 C470 1.399 . S
C466 C465 1.399 . S
C466 C467 1.376 1_565 S
C467 H454 0.930 . S
C467 C466 1.376 1_545 S
C467 C468 1.388 . S
C468 H455 0.930 . S
C468 C467 1.388 . S
C468 C469 1.390 1_545 S
C469 C468 1.390 1_565 S
C469 C470 1.394 . S
C469 C475 1.426 1_554 S
C470 C465 1.399 . S
C470 C469 1.394 . S
C470 C471 1.516 . S
C471 C470 1.516 . S
C471 C472 1.502 . S
C471 C473 1.561 . S
C471 C474 1.511 1_554 S
C472 H456 0.959 . S
C472 H457 0.959 . S
C472 H458 0.961 . S
C472 C471 1.502 . S
C473 H459 0.960 . S
C473 H460 0.961 . S
C473 H461 0.959 . S
C473 C471 1.561 . S
C474 C471 1.511 1_556 S
C474 C475 1.394 . S
C474 C479 1.402 . S
C475 C469 1.426 1_556 S
C475 C474 1.394 . S
C475 C476 1.438 . S
C476 H462 0.929 . S
C476 C475 1.438 . S
C476 C477 1.385 . S
C477 H463 0.931 . S
C477 C476 1.385 . S
C477 C478 1.389 . S
C478 C477 1.389 . S
C478 C479 1.387 . S
C479 H464 0.930 . S
C479 C474 1.402 . S
C479 C478 1.387 . S
H480 C492 0.930 . S
H481 C494 0.930 . S
H482 C495 0.930 . S
H483 C499 0.959 . S
H484 C499 0.959 . S
H485 C499 0.961 . S
H486 C500 0.960 . S
H487 C500 0.961 . S
H488 C500 0.959 . S
H489 C503 0.929 . S
H490 C504 0.931 . S
H491 C506 0.930 . S
C492 H480 0.930 . S
C492 C493 1.399 . S
C492 C497 1.399 . S
C493 C492 1.399 . S
C493 C494 1.376 . S
C494 H481 0.930 . S
C494 C493 1.376 . S
C494 C495 1.388 . S
C495 H482 0.930 . S
C495 C494 1.388 . S
C495 C496 1.390 . S
C496 C495 1.390 . S
C496 C497 1.394 . S
C496 C502 1.465 . S
C497 C492 1.399 . S
C497 C496 1.394 . S
C497 C498 1.516 . S
C498 C497 1.516 . S
C498 C499 1.502 . S
C498 C500 1.561 1_455 S
C498 C501 1.526 . S
C499 H483 0.959 . S
C499 H484 0.959 . S
C499 H485 0.961 . S
C499 C498 1.502 . S
C500 H486 0.960 . S
C500 H487 0.961 . S
C500 H488 0.959 . S
C500 C498 1.561 1_655 S
C501 C498 1.526 . S
C501 C502 1.396 . S
C501 C506 1.390 . S
C502 C496 1.465 . S
C502 C501 1.396 . S
C502 C503 1.399 . S
C503 H489 0.929 . S
C503 C502 1.399 . S
C503 C504 1.385 . S
C504 H490 0.931 . S
C504 C503 1.385 . S
C504 C505 1.389 . S
C505 C504 1.389 . S
C505 C506 1.387 . S
C506 H491 0.930 . S
C506 C501 1.390 . S
C506 C505 1.387 . S
H507 C519 0.930 . S
H508 C521 0.930 . S
H509 C522 0.930 . S
H510 C526 0.959 1_545 S
H511 C526 0.959 . S
H512 C526 0.961 . S
H513 C527 0.960 . S
H514 C527 0.961 . S
H515 C527 0.959 . S
H516 C530 0.929 . S
H517 C531 0.931 . S
H518 C533 0.913 1_565 S
C519 H507 0.930 . S
C519 C520 1.399 . S
C519 C524 1.399 . S
C520 C519 1.399 . S
C520 C521 1.376 . S
C521 H508 0.930 . S
C521 C520 1.376 . S
C521 C522 1.388 . S
C522 H509 0.930 . S
C522 C521 1.388 . S
C522 C523 1.390 . S
C523 C522 1.390 . S
C523 C524 1.394 . S
C523 C529 1.465 . S
C524 C519 1.399 . S
C524 C523 1.394 . S
C524 C525 1.516 . S
C525 C524 1.516 . S
C525 C526 1.502 1_545 S
C525 C527 1.561 1_545 S
C525 C528 1.526 . S
C526 H510 0.959 1_565 S
C526 H511 0.959 . S
C526 H512 0.961 . S
C526 C525 1.502 1_565 S
C527 H513 0.960 . S
C527 H514 0.961 . S
C527 H515 0.959 . S
C527 C525 1.561 1_565 S
C528 C525 1.526 . S
C528 C529 1.396 . S
C528 C533 1.390 . S
C529 C523 1.465 . S
C529 C528 1.396 . S
C529 C530 1.399 . S
C530 H516 0.929 . S
C530 C529 1.399 . S
C530 C531 1.385 . S
C531 H517 0.931 . S
C531 C530 1.385 . S
C531 C532 1.389 . S
C532 C531 1.389 . S
C532 C533 1.387 . S
C533 H518 0.913 1_545 S
C533 C528 1.390 . S
C533 C532 1.387 . S
H534 C546 0.930 . S
H535 C548 0.930 . S
H536 C549 0.930 . S
H537 C553 0.959 . S
H538 C553 0.959 . S
H539 C553 0.961 . S
H540 C554 0.960 . S
H541 C554 0.961 . S
H542 C554 0.959 . S
H543 C557 0.929 1_556 S
H544 C558 0.931 . S
H545 C560 0.930 . S
C546 H534 0.930 . S
C546 C547 1.399 . S
C546 C551 1.399 . S
C547 C546 1.399 . S
C547 C548 1.376 . S
C548 H535 0.930 . S
C548 C547 1.376 . S
C548 C549 1.388 . S
C549 H536 0.930 . S
C549 C548 1.388 . S
C549 C550 1.390 . S
C550 C549 1.390 . S
C550 C551 1.394 . S
C550 C556 1.465 . S
C551 C546 1.399 . S
C551 C550 1.394 . S
C551 C552 1.516 . S
C552 C551 1.516 . S
C552 C553 1.502 . S
C552 C554 1.561 . S
C552 C555 1.526 . S
C553 H537 0.959 . S
C553 H538 0.959 . S
C553 H539 0.961 . S
C553 C552 1.502 . S
C554 H540 0.960 . S
C554 H541 0.961 . S
C554 H542 0.959 . S
C554 C552 1.561 . S
C555 C552 1.526 . S
C555 C556 1.396 . S
C555 C560 1.390 . S
C556 C550 1.465 . S
C556 C555 1.396 . S
C556 C557 1.399 . S
C557 H543 0.929 1_554 S
C557 C556 1.399 . S
C557 C558 1.385 1_554 S
C558 H544 0.931 . S
C558 C557 1.385 1_556 S
C558 C559 1.389 . S
C559 C558 1.389 . S
C559 C560 1.387 1_556 S
C560 H545 0.930 . S
C560 C555 1.390 . S
C560 C559 1.387 1_554 S
H561 C573 0.930 . S
H562 C575 0.930 . S
H563 C576 0.930 . S
H564 C580 0.959 . S
H565 C580 0.959 . S
H566 C580 0.961 . S
H567 C581 0.960 . S
H568 C581 0.961 . S
H569 C581 0.959 . S
H570 C584 0.929 . S
H571 C585 0.931 . S
H572 C587 0.930 . S
C573 H561 0.930 . S
C573 C574 1.399 . S
C573 C578 1.399 . S
C574 C573 1.399 . S
C574 C575 1.376 . S
C575 H562 0.930 . S
C575 C574 1.376 . S
C575 C576 1.388 . S
C576 H563 0.930 . S
C576 C575 1.388 . S
C576 C577 1.390 . S
C577 C576 1.390 . S
C577 C578 1.394 . S
C577 C583 1.465 . S
C578 C573 1.399 . S
C578 C577 1.394 . S
C578 C579 1.516 . S
C579 C578 1.516 . S
C579 C580 1.502 . S
C579 C581 1.561 . S
C579 C582 1.526 . S
C580 H564 0.959 . S
C580 H565 0.959 . S
C580 H566 0.961 . S
C580 C579 1.502 . S
C581 H567 0.960 . S
C581 H568 0.961 . S
C581 H569 0.959 . S
C581 C579 1.561 . S
C582 C579 1.526 . S
C582 C583 1.396 . S
C582 C587 1.390 . S
C583 C577 1.465 . S
C583 C582 1.396 . S
C583 C584 1.399 . S
C584 H570 0.929 . S
C584 C583 1.399 . S
C584 C585 1.385 . S
C585 H571 0.931 . S
C585 C584 1.385 . S
C585 C586 1.389 . S
C586 C585 1.389 . S
C586 C587 1.387 . S
C587 H572 0.930 . S
C587 C582 1.390 . S
C587 C586 1.387 . S
C289 C81 1.407 . S
C277 C3 1.545 . S
C304 C21 1.431 . S
C316 C155 1.459 . S
C331 C37 2.075 1_665 S
C343 C259 2.111 . S
C358 C8 0.835 1_565 S
C370 C93 0.842 . S
C397 C167 0.854 . S
C385 C23 0.849 . S
C412 C35 1.550 . S
C424 C253 1.426 . S
C451 C185 2.120 . S
C439 C31 2.123 1_655 S
C466 C7 1.460 1_665 S
C478 C229 1.506 . S
C505 C105 1.448 . S
C493 C17 1.618 . S
C532 C179 1.355 . S
C520 C36 1.508 . S
C559 C241 0.846 . S
C547 C9 0.877 . S
C574 C22 2.150 . S
C586 C111 2.142 . S
