# Generated by pormake.
# Topology anh, (6,3)-cn, num edge types: 1
# Building blocks:
#     Node 0, Type 0, BuildingBlock: INOVEN_clean_sbu_0, # of connection points: 6
#     Node 1, Type 0, BuildingBlock: INOVEN_clean_sbu_0, # of connection points: 6
#     Node 2, Type 0, BuildingBlock: INOVEN_clean_sbu_0, # of connection points: 6
#     Node 3, Type 1, BuildingBlock: BETDIP_clean_linker_0, # of connection points: 3
#     Node 4, Type 1, BuildingBlock: BETDIP_clean_linker_0, # of connection points: 3
#     Node 5, Type 1, BuildingBlock: BETDIP_clean_linker_0, # of connection points: 3
#     Node 6, Type 1, BuildingBlock: BETDIP_clean_linker_0, # of connection points: 3
#     Node 7, Type 1, BuildingBlock: BETDIP_clean_linker_0, # of connection points: 3
#     Node 8, Type 1, BuildingBlock: BETDIP_clean_linker_0, # of connection points: 3
#     Edge 9, Type (0, 1), BuildingBlock: OJICUG_clean_linker_0, # of connection points: 2
#     Edge 10, Type (0, 1), BuildingBlock: OJICUG_clean_linker_0, # of connection points: 2
#     Edge 11, Type (0, 1), BuildingBlock: OJICUG_clean_linker_0, # of connection points: 2
#     Edge 12, Type (0, 1), BuildingBlock: OJICUG_clean_linker_0, # of connection points: 2
#     Edge 13, Type (0, 1), BuildingBlock: OJICUG_clean_linker_0, # of connection points: 2
#     Edge 14, Type (0, 1), BuildingBlock: OJICUG_clean_linker_0, # of connection points: 2
#     Edge 15, Type (0, 1), BuildingBlock: OJICUG_clean_linker_0, # of connection points: 2
#     Edge 16, Type (0, 1), BuildingBlock: OJICUG_clean_linker_0, # of connection points: 2
#     Edge 17, Type (0, 1), BuildingBlock: OJICUG_clean_linker_0, # of connection points: 2
#     Edge 18, Type (0, 1), BuildingBlock: OJICUG_clean_linker_0, # of connection points: 2
#     Edge 19, Type (0, 1), BuildingBlock: OJICUG_clean_linker_0, # of connection points: 2
#     Edge 20, Type (0, 1), BuildingBlock: OJICUG_clean_linker_0, # of connection points: 2
#     Edge 21, Type (0, 1), BuildingBlock: OJICUG_clean_linker_0, # of connection points: 2
#     Edge 22, Type (0, 1), BuildingBlock: OJICUG_clean_linker_0, # of connection points: 2
#     Edge 23, Type (0, 1), BuildingBlock: OJICUG_clean_linker_0, # of connection points: 2
#     Edge 24, Type (0, 1), BuildingBlock: OJICUG_clean_linker_0, # of connection points: 2
#     Edge 25, Type (0, 1), BuildingBlock: OJICUG_clean_linker_0, # of connection points: 2
#     Edge 26, Type (0, 1), BuildingBlock: OJICUG_clean_linker_0, # of connection points: 2
# Relax obj value: 0.215
# Max RMSD: 0.213
# Mean RMSD: 0.135
data_MOF--net-anh--node1-INOVEN_clean_sbu_0--node2-BETDIP_clean_linker_0--edge1-OJICUG_clean_linker_0
_symmetry_space_group_name_H-M    P1
_symmetry_Int_Tables_number       1
_symmetry_cell_setting            triclinic
loop_
_symmetry_equiv_pos_as_xyz
'x, y, z'
_cell_length_a     23.044681
_cell_length_b     29.579789
_cell_length_c     36.117537
_cell_angle_alpha  95.229745
_cell_angle_beta   88.894279
_cell_angle_gamma 132.81516
loop_
_atom_site_label
_atom_site_type_symbol
_atom_site_fract_x
_atom_site_fract_y
_atom_site_fract_z
_atom_type_partial_charge
Gd0 Gd 0.22931 0.60855 0.14471 0.0
Gd1 Gd 1.11104 0.6174 0.16319 0.0
C2 C 0.28563 0.74473 0.15581 0.0
C3 C 0.34163 0.61601 0.12124 0.0
C4 C 0.36519 0.58201 0.12693 0.0
C5 C 0.31705 0.52863 0.14571 0.0
C6 C 0.43776 0.60434 0.11472 0.0
C7 C 0.4129 0.51844 0.1385 0.0
C8 C 0.46147 0.57281 0.12039 0.0
C9 C 0.34066 0.4969 0.15138 0.0
C10 C 0.19849 0.6025 0.21708 0.0
C11 C 1.05293 0.479 0.15037 0.0
C12 C 0.99609 0.60126 0.19285 0.0
C13 C 0.91214 0.54416 0.19464 0.0
C14 C 0.85256 0.54211 0.18308 0.0
C15 C 0.89121 0.48912 0.20268 0.0
C16 C 0.75488 0.42993 0.18197 0.0
C17 C 0.81325 0.43241 0.19614 0.0
C18 C 0.77422 0.4853 0.17694 0.0
C19 C 0.13686 0.61713 0.08981 0.0
O20 O 0.29444 0.70916 0.13713 0.0
O21 O 0.22039 0.71923 0.17354 0.0
O22 O 0.2747 0.58527 0.10183 0.0
O23 O 0.34978 0.64893 0.15097 0.0
O24 O 0.21093 0.57023 0.19893 0.0
O25 O 0.20712 0.63898 0.19671 0.0
O26 O 1.03622 0.51292 0.16139 0.0
O27 O 0.12437 0.50535 0.13975 0.0
O28 O 1.01839 0.61878 0.15949 0.0
O29 O 1.04751 0.60547 0.212 0.0
O30 O 0.12453 0.6504 0.10679 0.0
O31 O 0.13089 0.58381 0.11189 0.0
H32 H 0.26109 0.51135 0.15571 0.0
H33 H 0.47569 0.64578 0.10042 0.0
H34 H 0.51659 0.58986 0.10936 0.0
H35 H 0.30214 0.45525 0.16542 0.0
H36 H 0.86739 0.58391 0.17667 0.0
H37 H 0.93569 0.48922 0.21197 0.0
H38 H 0.79928 0.39015 0.2003 0.0
H39 H 0.72998 0.48423 0.16571 0.0
Gd40 Gd 0.74019 0.09341 0.47064 0.0
Gd41 Gd 0.62221 0.10393 0.46011 0.0
C42 C 0.55026 0.96834 0.45884 0.0
C43 C 0.81452 0.0618 0.49109 0.0
C44 C 0.78976 1.00482 0.50293 0.0
C45 C 0.83926 0.99321 0.49825 0.0
C46 C 0.71556 0.96066 0.51763 0.0
C47 C 0.74037 0.89341 0.52278 0.0
C48 C 0.69092 0.9054 0.52727 0.0
C49 C 0.81497 0.93809 0.50819 0.0
C50 C 0.71735 0.10331 0.40005 0.0
C51 C 0.81307 0.23102 0.47056 0.0
C52 C 0.55145 0.13891 0.44141 0.0
C53 C 0.56282 0.19236 0.45715 0.0
C54 C 0.58476 0.21339 0.49517 0.0
C55 C 0.55583 0.22457 0.43433 0.0
C56 C 0.58908 0.29646 0.48784 0.0
C57 C 0.56925 0.27656 0.44955 0.0
C58 C 0.59716 0.26456 0.51037 0.0
C59 C 0.64313 0.09453 0.53117 0.0
O60 O 0.61967 0.9952 0.47516 0.0
O61 O 0.54094 1.00203 0.44348 0.0
O62 O 0.79618 0.05836 0.4563 0.0
O63 O 0.80138 0.09072 0.51384 0.0
O64 O 0.7862 0.1304 0.4151 0.0
O65 O 0.6637 0.07016 0.42213 0.0
O66 O 0.73931 0.20363 0.46163 0.0
O67 O 0.83016 0.19829 0.47861 0.0
O68 O 0.52157 0.09568 0.46349 0.0
O69 O 0.61096 0.15253 0.42376 0.0
O70 O 0.5762 0.07138 0.51612 0.0
O71 O 0.69752 0.1262 0.50904 0.0
H72 H 0.89671 0.02677 0.48687 0.0
H73 H 0.67638 0.96867 0.52152 0.0
H74 H 0.63264 0.87177 0.53785 0.0
H75 H 0.85505 0.93087 0.50485 0.0
H76 H 0.59248 0.19027 0.51321 0.0
H77 H 0.54014 0.20958 0.40483 0.0
H78 H 0.56274 0.30046 0.43162 0.0
H79 H 0.61371 0.27955 0.53983 0.0
Gd80 Gd 0.70299 0.5992 0.85251 0.0
Gd81 Gd 0.58357 0.46163 0.84225 0.0
C82 C 0.50936 0.52407 0.85071 0.0
C83 C 0.78467 0.71476 0.84504 0.0
C84 C 0.76691 0.74999 0.83162 0.0
C85 C 0.82081 0.81454 0.83978 0.0
C86 C 0.69724 0.71971 0.80975 0.0
C87 C 0.73679 0.81864 0.80326 0.0
C88 C 0.68224 0.75366 0.79578 0.0
C89 C 0.80594 0.84863 0.82574 0.0
C90 C 0.66586 0.54394 0.91532 0.0
C91 C 0.77868 0.53741 0.84711 0.0
C92 C 0.50911 0.34671 0.84611 0.0
C93 C 0.53159 0.31158 0.83458 0.0
C94 C 0.57972 0.32796 0.80446 0.0
C95 C 0.51044 0.26481 0.85524 0.0
C96 C 0.58494 0.25071 0.81545 0.0
C97 C 0.5368 0.23453 0.84576 0.0
C98 C 0.60556 0.2976 0.79483 0.0
C99 C 0.61754 0.5144 0.7789 0.0
O100 O 0.58336 0.57555 0.84441 0.0
O101 O 0.496 0.47358 0.85599 0.0
O102 O 0.75462 0.69071 0.87635 0.0
O103 O 0.77801 0.67663 0.81973 0.0
O104 O 0.73751 0.59421 0.90941 0.0
O105 O 0.61855 0.52828 0.88908 0.0
O106 O 0.70269 0.48392 0.84551 0.0
O107 O 0.79496 0.59026 0.84832 0.0
O108 O 0.49472 0.36541 0.81929 0.0
O109 O 0.55296 0.38974 0.8739 0.0
O110 O 0.54705 0.46465 0.78616 0.0
O111 O 0.66749 0.53203 0.8045 0.0
H112 H 0.87501 0.83869 0.85653 0.0
H113 H 0.65487 0.66989 0.80305 0.0
H114 H 0.62785 0.72893 0.77906 0.0
H115 H 0.84958 0.89861 0.83173 0.0
H116 H 0.59789 0.36463 0.78844 0.0
H117 H 0.47449 0.25233 0.879 0.0
H118 H 0.52045 0.19916 0.86248 0.0
H119 H 0.6411 0.31057 0.77088 0.0
H120 H 0.59648 0.05313 0.1357 0.0
H121 H 0.75524 0.16851 0.23232 0.0
H122 H 0.53734 0.9814 0.24218 0.0
H123 H 0.84396 0.19724 0.17865 0.0
C124 C 0.8185 0.21336 0.16678 0.0
C125 C 0.61094 0.0594 0.16517 0.0
C126 C 0.55888 1.00932 0.18706 0.0
C127 C 0.68207 0.11767 0.18166 0.0
C128 C 0.70049 0.12453 0.21986 0.0
C129 C 0.64901 0.07581 0.24207 0.0
C130 C 0.57823 0.01906 0.22534 0.0
N131 N 0.73395 0.16996 0.16058 0.0
H132 H 0.6488 0.54619 0.51749 0.0
H133 H 0.67595 0.63582 0.6254 0.0
H134 H 0.65369 0.47947 0.6177 0.0
H135 H 0.60556 0.64983 0.59241 0.0
C136 C 0.64137 0.66799 0.56832 0.0
C137 C 0.65503 0.55001 0.54755 0.0
C138 C 0.64953 0.50644 0.56479 0.0
C139 C 0.66361 0.59645 0.56913 0.0
C140 C 0.66901 0.60027 0.60823 0.0
C141 C 0.66567 0.55826 0.62559 0.0
C142 C 0.65726 0.51228 0.60389 0.0
N143 N 0.66582 0.63842 0.55117 0.0
H144 H 1.08431 0.5262 0.82179 0.0
H145 H 0.20798 0.56553 0.92618 0.0
H146 H 1.0223 0.56584 0.92534 0.0
H147 H 0.21408 0.49481 0.8971 0.0
C148 C 0.24246 0.51851 0.87245 0.0
C149 C 1.09282 0.53704 0.85174 0.0
C150 C 1.04389 0.5453 0.87125 0.0
C151 C 0.15281 0.54283 0.87159 0.0
C152 C 0.16221 0.55818 0.91044 0.0
C153 C 1.11629 0.56708 0.92952 0.0
C154 C 1.05814 0.56009 0.90993 0.0
N155 N 0.20556 0.53649 0.85359 0.0
H156 H 0.25688 0.66085 0.48506 0.0
H157 H 0.12003 0.53333 0.38671 0.0
H158 H 0.30839 0.72784 0.37715 0.0
H159 H 1.02308 0.51096 0.4405 0.0
C160 C 1.04837 0.49572 0.45386 0.0
C161 C 0.24512 0.65203 0.45515 0.0
C162 C 0.28964 0.70216 0.43293 0.0
C163 C 0.18228 0.59067 0.43849 0.0
C164 C 0.16732 0.58018 0.39964 0.0
C165 C 0.21253 0.62932 0.37739 0.0
C166 C 0.27288 0.68975 0.39431 0.0
N167 N 0.13263 0.5394 0.46027 0.0
H168 H 0.67738 0.07975 0.79414 0.0
H169 H 0.70052 0.02705 0.68325 0.0
H170 H 0.6615 0.14974 0.69942 0.0
H171 H 0.65596 0.94301 0.70863 0.0
C172 C 0.68226 0.95912 0.73689 0.0
C173 C 0.67929 0.08269 0.76438 0.0
C174 C 0.67026 0.11999 0.74957 0.0
C175 C 0.68961 0.04836 0.74081 0.0
C176 C 0.69185 0.05241 0.70206 0.0
C177 C 0.68109 0.08858 0.6872 0.0
C178 C 0.671 0.1225 0.71104 0.0
N179 N 0.69704 1.01014 0.75685 0.0
H180 H 0.4349 0.30376 0.11768 0.0
H181 H 0.53802 0.31446 0.01456 0.0
H182 H 0.57827 0.47164 0.0648 0.0
H183 H 0.43096 0.17419 0.1025 0.0
C184 C 0.46364 0.22304 0.10247 0.0
C185 C 0.47474 0.33103 0.09626 0.0
C186 C 0.50826 0.39197 0.09565 0.0
C187 C 0.48936 0.30416 0.06823 0.0
C188 C 0.53189 0.33674 0.0377 0.0
C189 C 0.56537 0.39783 0.03695 0.0
C190 C 0.5559 0.4257 0.06661 0.0
N191 N 0.45759 0.2431 0.0696 0.0
C192 C 0.51377 0.51086 0.1458 0.0
C193 C 0.4342 0.48129 0.13975 0.0
H194 H 0.6001 0.50424 0.13725 0.0
C195 C 0.37729 0.41725 0.12855 0.0
H196 H 0.55858 0.55985 0.15533 0.0
C197 C 0.40099 0.38534 0.11878 0.0
C198 C 0.48181 0.41716 0.11993 0.0
H199 H 0.31551 0.39311 0.12365 0.0
H200 H 0.35702 0.33771 0.10637 0.0
C201 C 0.53747 0.47901 0.13586 0.0
C202 C 0.95815 0.33389 0.47415 0.0
C203 C 0.87637 0.30009 0.47006 0.0
H204 H 1.07782 0.42262 0.47262 0.0
C205 C 0.85403 0.33279 0.46336 0.0
H206 H 0.97778 0.31045 0.47929 0.0
C207 C 0.91072 0.39616 0.4595 0.0
C208 C 0.99208 0.42974 0.46243 0.0
H209 H 0.79213 0.30923 0.46025 0.0
H210 H 0.89045 0.41887 0.4534 0.0
C211 C 1.01555 0.3982 0.47043 0.0
C212 C 0.74063 0.90625 0.8074 0.0
C213 C 0.72258 0.85493 0.78672 0.0
H214 H 0.74198 0.97955 0.80814 0.0
C215 C 0.69144 0.83874 0.74977 0.0
H216 H 0.76397 0.91964 0.83603 0.0
C217 C 0.67854 0.87282 0.73392 0.0
C218 C 0.69646 0.92391 0.75457 0.0
H219 H 0.67808 0.80019 0.7328 0.0
H220 H 0.65475 0.85931 0.70535 0.0
C221 C 0.72766 0.9404 0.79149 0.0
C222 C 0.60654 0.35159 0.17798 0.0
C223 C 0.67804 0.37008 0.16676 0.0
H224 H 0.4804 0.28686 0.1675 0.0
C225 C 0.67669 0.33448 0.13761 0.0
H226 H 0.60649 0.37841 0.20048 0.0
C227 C 0.60546 0.28382 0.11811 0.0
C228 C 0.53464 0.26741 0.12802 0.0
H229 H 0.73134 0.34823 0.12839 0.0
H230 H 0.60619 0.25945 0.0941 0.0
C231 C 0.53489 0.29964 0.15912 0.0
C232 C 0.49107 0.85949 0.46656 0.0
C233 C 0.48176 0.89971 0.45737 0.0
H234 H 0.43678 0.76471 0.46673 0.0
C235 C 0.40564 0.87346 0.44556 0.0
H236 H 0.54866 0.87793 0.47588 0.0
C237 C 0.34186 0.80913 0.44105 0.0
C238 C 0.35186 0.76875 0.44814 0.0
H239 H 0.39551 0.90258 0.43867 0.0
H240 H 0.28514 0.79063 0.43002 0.0
C241 C 0.42679 0.7946 0.46181 0.0
C242 C 0.56116 0.1536 0.80532 0.0
C243 C 0.61201 0.21807 0.80433 0.0
H244 H 0.54091 0.07192 0.78914 0.0
C245 C 0.68702 0.25051 0.78988 0.0
H246 H 0.50282 0.12701 0.81598 0.0
C247 C 0.708 0.21877 0.77412 0.0
C248 C 0.65528 0.15416 0.77325 0.0
H249 H 0.72865 0.30033 0.78958 0.0
H250 H 0.76421 0.2444 0.76127 0.0
C251 C 0.58282 0.12196 0.79001 0.0
C252 C 0.73233 0.8037 0.51263 0.0
C253 C 0.71451 0.83497 0.53381 0.0
H254 H 0.72317 0.72616 0.50667 0.0
C255 C 0.67181 0.81005 0.56587 0.0
H256 H 0.76414 0.82106 0.4875 0.0
C257 C 0.64754 0.7554 0.57646 0.0
C258 C 0.66584 0.72459 0.55549 0.0
H259 H 0.65817 0.83329 0.58324 0.0
H260 H 0.6152 0.73761 0.60145 0.0
C261 C 0.70841 0.74908 0.52343 0.0
C262 C 0.83352 0.48343 0.84823 0.0
C263 C 0.84717 0.53814 0.84823 0.0
H264 H 0.88183 0.4418 0.85405 0.0
C265 C 0.92829 0.59411 0.85065 0.0
H266 H 0.77315 0.43889 0.84668 0.0
C267 C 0.99134 0.59553 0.85422 0.0
C268 C 0.97798 0.54113 0.85502 0.0
H269 H 0.9436 0.63779 0.85104 0.0
H270 H 1.05147 0.64027 0.85828 0.0
C271 C 0.89686 0.48495 0.85184 0.0
C272 C 0.42319 0.84307 0.14071 0.0
C273 C 0.35193 0.81425 0.15858 0.0
H274 H 0.54388 0.92758 0.13479 0.0
C275 C 0.34687 0.85262 0.18134 0.0
H276 H 0.42969 0.81541 0.12289 0.0
C277 C 0.41223 0.91687 0.1879 0.0
C278 C 0.48478 0.94521 0.17171 0.0
H279 H 0.2934 0.83273 0.19554 0.0
H280 H 0.40736 0.94418 0.20732 0.0
C281 C 0.48865 0.90766 0.14715 0.0
C282 C 0.65084 0.407 0.49047 0.0
C283 C 0.59993 0.34941 0.50501 0.0
H284 H 0.70776 0.50254 0.49829 0.0
C285 C 0.56189 0.34307 0.53761 0.0
H286 H 0.68101 0.41303 0.46537 0.0
C287 C 0.57645 0.39362 0.55612 0.0
C288 C 0.63029 0.45219 0.54281 0.0
H289 H 0.5212 0.2989 0.54903 0.0
H290 H 0.5458 0.3868 0.58117 0.0
C291 C 0.66609 0.4581 0.50929 0.0
C292 C 0.36671 0.47286 0.86662 0.0
C293 C 0.44039 0.52291 0.85292 0.0
H294 H 0.25066 0.43264 0.88278 0.0
C295 C 0.44582 0.57098 0.84228 0.0
H296 H 0.35781 0.43458 0.8754 0.0
C297 C 0.38164 0.5691 0.84575 0.0
C298 C 0.30869 0.51927 0.86044 0.0
H299 H 0.50045 0.61088 0.83158 0.0
H300 H 0.3907 0.60809 0.83835 0.0
C301 C 0.30387 0.47156 0.87065 0.0
C302 C 1.01305 0.37624 0.15385 0.0
C303 C 0.99078 0.40992 0.15142 0.0
H304 H 0.97635 0.28883 0.16073 0.0
C305 C 0.90917 0.37709 0.15158 0.0
H306 H 1.07495 0.3995 0.15395 0.0
C307 C 0.85187 0.31274 0.15493 0.0
C308 C 0.87503 0.27984 0.15867 0.0
H309 H 0.88961 0.40124 0.14927 0.0
H310 H 0.79001 0.28932 0.15576 0.0
C311 C 0.95628 0.31254 0.15777 0.0
C312 C 0.13346 0.64097 0.02559 0.0
C313 C 0.13791 0.60794 0.04896 0.0
H314 H 0.12447 0.65471 0.96954 0.0
C315 C 0.14004 0.56399 0.03289 0.0
H316 H 0.13226 0.6754 0.03721 0.0
C317 C 0.1353 0.55192 -0.00585 0.0
C318 C 0.12815 0.58347 0.97066 0.0
H319 H 0.14349 0.53782 0.05026 0.0
H320 H 0.13458 0.51643 0.98261 0.0
C321 C 0.12862 0.62888 0.98686 0.0
C322 C 0.7282 0.14815 0.34242 0.0
C323 C 0.70173 0.0971 0.35992 0.0
H324 H 0.72948 0.18121 0.29194 0.0
C325 C 0.65952 0.03963 0.33894 0.0
H326 H 0.76055 0.19283 0.35842 0.0
C327 C 0.64434 0.03322 0.30068 0.0
C328 C 0.66868 0.08375 0.28277 0.0
H329 H 0.63932 0.99986 0.35207 0.0
H330 H 0.6139 0.98854 0.28522 0.0
C331 C 0.7109 0.14141 0.30428 0.0
C332 C 0.70666 0.55568 0.72586 0.0
C333 C 0.63709 0.53538 0.74157 0.0
H334 H 0.76973 0.57793 0.67585 0.0
C335 C 0.58156 0.529 0.71994 0.0
H336 H 0.74998 0.56049 0.74207 0.0
C337 C 0.5938 0.54046 0.68267 0.0
C338 C 0.66082 0.557 0.66628 0.0
H339 H 0.52757 0.51345 0.73161 0.0
H340 H 0.54889 0.53323 0.66611 0.0
C341 C 0.71787 0.56549 0.68817 0.0
C342 C 0.72874 0.11959 0.58653 0.0
C343 C 0.65423 0.09131 0.57061 0.0
H344 H 0.79557 0.13988 0.63646 0.0
C345 C 0.5888 0.05983 0.59293 0.0
H346 H 0.78016 0.14442 0.56995 0.0
C347 C 0.59785 0.05798 0.63063 0.0
C348 C 0.67221 0.08677 0.64666 0.0
H349 H 0.53059 0.03742 0.58143 0.0
H350 H 0.54683 0.03465 0.64748 0.0
C351 C 0.73757 0.11695 0.62437 0.0
C352 C 0.56334 0.45001 0.94712 0.0
C353 C 0.64301 0.50498 0.9455 0.0
H354 H 0.47767 0.37111 0.97652 0.0
C355 C 0.69915 0.52129 0.97253 0.0
H356 H 0.51851 0.43668 0.927 0.0
C357 C 0.67518 0.48398 0.00136 0.0
C358 C 0.59533 0.42915 0.00278 0.0
H359 H 0.76089 0.56353 0.97195 0.0
H360 H 0.71823 0.49888 0.02321 0.0
C361 C 0.53997 0.41204 0.97514 0.0
C362 C 0.19796 0.65127 0.27725 0.0
C363 C 0.19335 0.60558 0.25779 0.0
H364 H 0.20639 0.69403 0.33061 0.0
C365 C 0.188 0.56436 0.27774 0.0
H366 H 0.20155 0.68331 0.26247 0.0
C367 C 0.19086 0.57045 0.3166 0.0
C368 C 0.19933 0.61801 0.33625 0.0
H369 H 0.18387 0.52841 0.26334 0.0
H370 H 0.18989 0.5396 0.33125 0.0
C371 C 0.20106 0.65751 0.31617 0.0
loop_
_geom_bond_atom_site_label_1
_geom_bond_atom_site_label_2
_geom_bond_distance
_geom_bond_site_symmetry_2
_ccdc_geom_bond_type
Gd0 C3 2.818 . S
Gd0 O20 2.377 . S
Gd0 O22 2.448 . S
Gd0 O23 2.506 . S
Gd0 O24 2.435 . S
Gd0 O25 2.717 . S
Gd0 O27 2.395 1_455 S
Gd0 O31 2.327 . S
Gd1 C12 2.818 1_455 S
Gd1 O21 2.395 . S
Gd1 O25 2.327 . S
Gd1 O26 2.377 1_455 S
Gd1 O28 2.448 1_455 S
Gd1 O29 2.506 1_455 S
Gd1 O30 2.435 . S
Gd1 O31 2.717 . S
C2 O20 1.240 . S
C2 O21 1.240 . S
C3 Gd0 2.818 . S
C3 C4 1.510 . S
C3 O22 1.249 . S
C3 O23 1.252 . S
C4 C3 1.510 . S
C4 C5 1.404 . S
C4 C6 1.352 . S
C5 C4 1.404 . S
C5 C9 1.389 . S
C5 H32 0.930 . S
C6 C4 1.352 . S
C6 C8 1.374 . S
C6 H33 0.931 . S
C7 C8 1.359 . S
C7 C9 1.364 . S
C8 C6 1.374 . S
C8 C7 1.359 . S
C8 H34 0.931 . S
C9 C5 1.389 . S
C9 C7 1.364 . S
C9 H35 0.931 . S
C10 O24 1.256 . S
C10 O25 1.257 . S
C11 O26 1.240 . S
C11 O27 1.240 . S
C12 Gd1 2.818 1_655 S
C12 C13 1.510 . S
C12 O28 1.249 . S
C12 O29 1.252 . S
C13 C12 1.510 . S
C13 C14 1.404 . S
C13 C15 1.352 . S
C14 C13 1.404 . S
C14 C18 1.389 . S
C14 H36 0.930 . S
C15 C13 1.352 . S
C15 C17 1.374 . S
C15 H37 0.931 . S
C16 C17 1.359 . S
C16 C18 1.364 . S
C17 C15 1.374 . S
C17 C16 1.359 . S
C17 H38 0.931 . S
C18 C14 1.389 . S
C18 C16 1.364 . S
C18 H39 0.931 . S
C19 O30 1.256 . S
C19 O31 1.257 . S
O20 Gd0 2.377 . S
O20 C2 1.240 . S
O21 Gd1 2.395 . S
O21 C2 1.240 . S
O22 Gd0 2.448 . S
O22 C3 1.249 . S
O23 Gd0 2.506 . S
O23 C3 1.252 . S
O24 Gd0 2.435 . S
O24 C10 1.256 . S
O25 Gd0 2.717 . S
O25 Gd1 2.327 . S
O25 C10 1.257 . S
O26 Gd1 2.377 1_655 S
O26 C11 1.240 . S
O27 Gd0 2.395 1_655 S
O27 C11 1.240 . S
O28 Gd1 2.448 1_655 S
O28 C12 1.249 . S
O29 Gd1 2.506 1_655 S
O29 C12 1.252 . S
O30 Gd1 2.435 . S
O30 C19 1.256 . S
O31 Gd0 2.327 . S
O31 Gd1 2.717 . S
O31 C19 1.257 . S
H32 C5 0.930 . S
H33 C6 0.931 . S
H34 C8 0.931 . S
H35 C9 0.931 . S
H36 C14 0.930 . S
H37 C15 0.931 . S
H38 C17 0.931 . S
H39 C18 0.931 . S
Gd40 C43 2.818 1_545 S
Gd40 O60 2.377 1_545 S
Gd40 O62 2.448 1_545 S
Gd40 O63 2.506 1_545 S
Gd40 O64 2.435 . S
Gd40 O65 2.717 . S
Gd40 O67 2.395 . S
Gd40 O71 2.327 . S
Gd41 C52 2.818 . S
Gd41 O61 2.395 1_545 S
Gd41 O65 2.327 . S
Gd41 O66 2.377 . S
Gd41 O68 2.448 . S
Gd41 O69 2.506 . S
Gd41 O70 2.435 . S
Gd41 O71 2.717 . S
C42 O60 1.240 . S
C42 O61 1.240 . S
C43 Gd40 2.818 1_565 S
C43 C44 1.510 . S
C43 O62 1.249 . S
C43 O63 1.252 . S
C44 C43 1.510 . S
C44 C45 1.404 . S
C44 C46 1.352 . S
C45 C44 1.404 . S
C45 C49 1.389 . S
C45 H72 0.930 . S
C46 C44 1.352 . S
C46 C48 1.374 . S
C46 H73 0.931 . S
C47 C48 1.359 . S
C47 C49 1.364 . S
C48 C46 1.374 . S
C48 C47 1.359 . S
C48 H74 0.931 . S
C49 C45 1.389 . S
C49 C47 1.364 . S
C49 H75 0.931 . S
C50 O64 1.256 . S
C50 O65 1.257 . S
C51 O66 1.240 . S
C51 O67 1.240 . S
C52 Gd41 2.818 . S
C52 C53 1.510 . S
C52 O68 1.249 . S
C52 O69 1.252 . S
C53 C52 1.510 . S
C53 C54 1.404 . S
C53 C55 1.352 . S
C54 C53 1.404 . S
C54 C58 1.389 . S
C54 H76 0.930 . S
C55 C53 1.352 . S
C55 C57 1.374 . S
C55 H77 0.931 . S
C56 C57 1.359 . S
C56 C58 1.364 . S
C57 C55 1.374 . S
C57 C56 1.359 . S
C57 H78 0.931 . S
C58 C54 1.389 . S
C58 C56 1.364 . S
C58 H79 0.931 . S
C59 O70 1.256 . S
C59 O71 1.257 . S
O60 Gd40 2.377 1_565 S
O60 C42 1.240 . S
O61 Gd41 2.395 1_565 S
O61 C42 1.240 . S
O62 Gd40 2.448 1_565 S
O62 C43 1.249 . S
O63 Gd40 2.506 1_565 S
O63 C43 1.252 . S
O64 Gd40 2.435 . S
O64 C50 1.256 . S
O65 Gd40 2.717 . S
O65 Gd41 2.327 . S
O65 C50 1.257 . S
O66 Gd41 2.377 . S
O66 C51 1.240 . S
O67 Gd40 2.395 . S
O67 C51 1.240 . S
O68 Gd41 2.448 . S
O68 C52 1.249 . S
O69 Gd41 2.506 . S
O69 C52 1.252 . S
O70 Gd41 2.435 . S
O70 C59 1.256 . S
O71 Gd40 2.327 . S
O71 Gd41 2.717 . S
O71 C59 1.257 . S
H72 C45 0.930 . S
H73 C46 0.931 . S
H74 C48 0.931 . S
H75 C49 0.931 . S
H76 C54 0.930 . S
H77 C55 0.931 . S
H78 C57 0.931 . S
H79 C58 0.931 . S
Gd80 C83 2.818 . S
Gd80 O100 2.377 . S
Gd80 O102 2.448 . S
Gd80 O103 2.506 . S
Gd80 O104 2.435 . S
Gd80 O105 2.717 . S
Gd80 O107 2.395 . S
Gd80 O111 2.327 . S
Gd81 C92 2.818 . S
Gd81 O101 2.395 . S
Gd81 O105 2.327 . S
Gd81 O106 2.377 . S
Gd81 O108 2.448 . S
Gd81 O109 2.506 . S
Gd81 O110 2.435 . S
Gd81 O111 2.717 . S
C82 O100 1.240 . S
C82 O101 1.240 . S
C83 Gd80 2.818 . S
C83 C84 1.510 . S
C83 O102 1.249 . S
C83 O103 1.252 . S
C84 C83 1.510 . S
C84 C85 1.404 . S
C84 C86 1.352 . S
C85 C84 1.404 . S
C85 C89 1.389 . S
C85 H112 0.930 . S
C86 C84 1.352 . S
C86 C88 1.374 . S
C86 H113 0.931 . S
C87 C88 1.359 . S
C87 C89 1.364 . S
C88 C86 1.374 . S
C88 C87 1.359 . S
C88 H114 0.931 . S
C89 C85 1.389 . S
C89 C87 1.364 . S
C89 H115 0.931 . S
C90 O104 1.256 . S
C90 O105 1.257 . S
C91 O106 1.240 . S
C91 O107 1.240 . S
C92 Gd81 2.818 . S
C92 C93 1.510 . S
C92 O108 1.249 . S
C92 O109 1.252 . S
C93 C92 1.510 . S
C93 C94 1.404 . S
C93 C95 1.352 . S
C94 C93 1.404 . S
C94 C98 1.389 . S
C94 H116 0.930 . S
C95 C93 1.352 . S
C95 C97 1.374 . S
C95 H117 0.931 . S
C96 C97 1.359 . S
C96 C98 1.364 . S
C97 C95 1.374 . S
C97 C96 1.359 . S
C97 H118 0.931 . S
C98 C94 1.389 . S
C98 C96 1.364 . S
C98 H119 0.931 . S
C99 O110 1.256 . S
C99 O111 1.257 . S
O100 Gd80 2.377 . S
O100 C82 1.240 . S
O101 Gd81 2.395 . S
O101 C82 1.240 . S
O102 Gd80 2.448 . S
O102 C83 1.249 . S
O103 Gd80 2.506 . S
O103 C83 1.252 . S
O104 Gd80 2.435 . S
O104 C90 1.256 . S
O105 Gd80 2.717 . S
O105 Gd81 2.327 . S
O105 C90 1.257 . S
O106 Gd81 2.377 . S
O106 C91 1.240 . S
O107 Gd80 2.395 . S
O107 C91 1.240 . S
O108 Gd81 2.448 . S
O108 C92 1.249 . S
O109 Gd81 2.506 . S
O109 C92 1.252 . S
O110 Gd81 2.435 . S
O110 C99 1.256 . S
O111 Gd80 2.327 . S
O111 Gd81 2.717 . S
O111 C99 1.257 . S
H112 C85 0.930 . S
H113 C86 0.931 . S
H114 C88 0.931 . S
H115 C89 0.931 . S
H116 C94 0.930 . S
H117 C95 0.931 . S
H118 C97 0.931 . S
H119 C98 0.931 . S
H120 C125 0.930 . S
H121 C128 0.930 . S
H122 C130 0.930 . S
H123 C124 1.016 . S
C124 H123 1.016 . S
C124 N131 1.286 . S
C125 H120 0.930 . S
C125 C126 1.397 1_545 S
C125 C127 1.361 . S
C126 C125 1.397 1_565 S
C126 C130 1.390 . S
C127 C125 1.361 . S
C127 C128 1.393 . S
C127 N131 1.413 . S
C128 H121 0.930 . S
C128 C127 1.393 . S
C128 C129 1.399 . S
C129 C128 1.399 . S
C129 C130 1.381 1_545 S
C130 H122 0.930 . S
C130 C126 1.390 . S
C130 C129 1.381 1_565 S
N131 C124 1.286 . S
N131 C127 1.413 . S
H132 C137 0.930 . S
H133 C140 0.930 . S
H134 C142 0.930 . S
H135 C136 1.016 . S
C136 H135 1.016 . S
C136 N143 1.286 . S
C137 H132 0.930 . S
C137 C138 1.397 . S
C137 C139 1.361 . S
C138 C137 1.397 . S
C138 C142 1.390 . S
C139 C137 1.361 . S
C139 C140 1.393 . S
C139 N143 1.413 . S
C140 H133 0.930 . S
C140 C139 1.393 . S
C140 C141 1.399 . S
C141 C140 1.399 . S
C141 C142 1.381 . S
C142 H134 0.930 . S
C142 C138 1.390 . S
C142 C141 1.381 . S
N143 C136 1.286 . S
N143 C139 1.413 . S
H144 C149 0.930 . S
H145 C152 0.930 . S
H146 C154 0.919 1_655 S
H147 C148 1.016 . S
C148 H147 1.016 . S
C148 N155 1.286 . S
C149 H144 0.930 . S
C149 C150 1.397 1_455 S
C149 C151 1.361 . S
C150 C149 1.397 1_655 S
C150 C154 1.389 1_655 S
C151 C149 1.361 . S
C151 C152 1.393 . S
C151 N155 1.413 . S
C152 H145 0.930 . S
C152 C151 1.393 . S
C152 C153 1.399 . S
C153 C152 1.399 . S
C153 C154 1.393 . S
C154 H146 0.919 1_455 S
C154 C150 1.389 1_455 S
C154 C153 1.393 . S
N155 C148 1.286 . S
N155 C151 1.413 . S
H156 C161 0.930 . S
H157 C164 0.930 . S
H158 C166 0.930 . S
H159 C160 1.016 . S
C160 H159 1.016 . S
C160 N167 1.286 . S
C161 H156 0.930 . S
C161 C162 1.397 . S
C161 C163 1.361 1_455 S
C162 C161 1.397 . S
C162 C166 1.390 . S
C163 C161 1.361 1_655 S
C163 C164 1.393 . S
C163 N167 1.413 . S
C164 H157 0.930 . S
C164 C163 1.393 . S
C164 C165 1.399 1_655 S
C165 C164 1.399 1_455 S
C165 C166 1.381 . S
C166 H158 0.930 . S
C166 C162 1.390 . S
C166 C165 1.381 . S
N167 C160 1.286 . S
N167 C163 1.413 . S
H168 C173 0.930 . S
H169 C176 0.930 1_565 S
H170 C178 0.930 . S
H171 C172 1.016 . S
C172 H171 1.016 . S
C172 N179 1.286 . S
C173 H168 0.930 . S
C173 C174 1.397 . S
C173 C175 1.361 . S
C174 C173 1.397 . S
C174 C178 1.390 . S
C175 C173 1.361 . S
C175 C176 1.393 . S
C175 N179 1.413 1_545 S
C176 H169 0.930 1_545 S
C176 C175 1.393 . S
C176 C177 1.399 . S
C177 C176 1.399 . S
C177 C178 1.381 . S
C178 H170 0.930 . S
C178 C174 1.390 . S
C178 C177 1.381 . S
N179 C172 1.286 . S
N179 C175 1.413 1_565 S
H180 C185 0.930 . S
H181 C188 0.930 . S
H182 C190 0.930 . S
H183 C184 1.016 . S
C184 H183 1.016 . S
C184 N191 1.286 . S
C185 H180 0.930 . S
C185 C186 1.397 . S
C185 C187 1.361 . S
C186 C185 1.397 . S
C186 C190 1.390 . S
C187 C185 1.361 . S
C187 C188 1.393 . S
C187 N191 1.413 . S
C188 H181 0.930 . S
C188 C187 1.393 . S
C188 C189 1.399 . S
C189 C188 1.399 . S
C189 C190 1.381 . S
C190 H182 0.930 . S
C190 C186 1.390 . S
C190 C189 1.381 . S
N191 C184 1.286 . S
N191 C187 1.413 . S
C192 C193 1.387 . S
C192 H196 0.950 . S
C192 C201 1.390 . S
C193 C192 1.387 . S
C193 C195 1.387 . S
H194 C201 0.950 . S
C195 C193 1.387 . S
C195 C197 1.390 . S
C195 H199 0.950 . S
H196 C192 0.950 . S
C197 C195 1.390 . S
C197 C198 1.387 . S
C197 H200 0.950 . S
C198 C197 1.387 . S
C198 C201 1.387 . S
H199 C195 0.950 . S
H200 C197 0.950 . S
C201 C192 1.390 . S
C201 H194 0.950 . S
C201 C198 1.387 . S
C202 C203 1.387 . S
C202 H206 0.950 . S
C202 C211 1.390 . S
C203 C202 1.387 . S
C203 C205 1.387 . S
H204 C211 0.950 . S
C205 C203 1.387 . S
C205 C207 1.390 . S
C205 H209 0.950 . S
H206 C202 0.950 . S
C207 C205 1.390 . S
C207 C208 1.387 . S
C207 H210 0.950 . S
C208 C207 1.387 . S
C208 C211 1.387 . S
H209 C205 0.950 . S
H210 C207 0.950 . S
C211 C202 1.390 . S
C211 H204 0.950 . S
C211 C208 1.387 . S
C212 C213 1.387 . S
C212 H216 0.950 . S
C212 C221 1.390 . S
C213 C212 1.387 . S
C213 C215 1.387 . S
H214 C221 0.950 . S
C215 C213 1.387 . S
C215 C217 1.390 . S
C215 H219 0.950 . S
H216 C212 0.950 . S
C217 C215 1.390 . S
C217 C218 1.387 . S
C217 H220 0.950 . S
C218 C217 1.387 . S
C218 C221 1.387 . S
H219 C215 0.950 . S
H220 C217 0.950 . S
C221 C212 1.390 . S
C221 H214 0.950 . S
C221 C218 1.387 . S
C222 C223 1.387 . S
C222 H226 0.950 . S
C222 C231 1.390 . S
C223 C222 1.387 . S
C223 C225 1.387 . S
H224 C231 0.950 . S
C225 C223 1.387 . S
C225 C227 1.390 . S
C225 H229 0.950 . S
H226 C222 0.950 . S
C227 C225 1.390 . S
C227 C228 1.387 . S
C227 H230 0.950 . S
C228 C227 1.387 . S
C228 C231 1.387 . S
H229 C225 0.950 . S
H230 C227 0.950 . S
C231 C222 1.390 . S
C231 H224 0.950 . S
C231 C228 1.387 . S
C232 C233 1.387 . S
C232 H236 0.950 . S
C232 C241 1.390 . S
C233 C232 1.387 . S
C233 C235 1.387 . S
H234 C241 0.950 . S
C235 C233 1.387 . S
C235 C237 1.390 . S
C235 H239 0.950 . S
H236 C232 0.950 . S
C237 C235 1.390 . S
C237 C238 1.387 . S
C237 H240 0.950 . S
C238 C237 1.387 . S
C238 C241 1.387 . S
H239 C235 0.950 . S
H240 C237 0.950 . S
C241 C232 1.390 . S
C241 H234 0.950 . S
C241 C238 1.387 . S
C242 C243 1.387 . S
C242 H246 0.950 . S
C242 C251 1.390 . S
C243 C242 1.387 . S
C243 C245 1.387 . S
H244 C251 0.950 . S
C245 C243 1.387 . S
C245 C247 1.390 . S
C245 H249 0.950 . S
H246 C242 0.950 . S
C247 C245 1.390 . S
C247 C248 1.387 . S
C247 H250 0.950 . S
C248 C247 1.387 . S
C248 C251 1.387 . S
H249 C245 0.950 . S
H250 C247 0.950 . S
C251 C242 1.390 . S
C251 H244 0.950 . S
C251 C248 1.387 . S
C252 C253 1.387 . S
C252 H256 0.950 . S
C252 C261 1.390 . S
C253 C252 1.387 . S
C253 C255 1.387 . S
H254 C261 0.950 . S
C255 C253 1.387 . S
C255 C257 1.390 . S
C255 H259 0.950 . S
H256 C252 0.950 . S
C257 C255 1.390 . S
C257 C258 1.387 . S
C257 H260 0.950 . S
C258 C257 1.387 . S
C258 C261 1.387 . S
H259 C255 0.950 . S
H260 C257 0.950 . S
C261 C252 1.390 . S
C261 H254 0.950 . S
C261 C258 1.387 . S
C262 C263 1.387 . S
C262 H266 0.950 . S
C262 C271 1.390 . S
C263 C262 1.387 . S
C263 C265 1.387 . S
H264 C271 0.950 . S
C265 C263 1.387 . S
C265 C267 1.390 . S
C265 H269 0.950 . S
H266 C262 0.950 . S
C267 C265 1.390 . S
C267 C268 1.387 . S
C267 H270 0.950 . S
C268 C267 1.387 . S
C268 C271 1.387 . S
H269 C265 0.950 . S
H270 C267 0.950 . S
C271 C262 1.390 . S
C271 H264 0.950 . S
C271 C268 1.387 . S
C272 C273 1.387 . S
C272 H276 0.950 . S
C272 C281 1.390 . S
C273 C272 1.387 . S
C273 C275 1.387 . S
H274 C281 0.950 . S
C275 C273 1.387 . S
C275 C277 1.390 . S
C275 H279 0.950 . S
H276 C272 0.950 . S
C277 C275 1.390 . S
C277 C278 1.387 . S
C277 H280 0.950 . S
C278 C277 1.387 . S
C278 C281 1.387 . S
H279 C275 0.950 . S
H280 C277 0.950 . S
C281 C272 1.390 . S
C281 H274 0.950 . S
C281 C278 1.387 . S
C282 C283 1.387 . S
C282 H286 0.950 . S
C282 C291 1.390 . S
C283 C282 1.387 . S
C283 C285 1.387 . S
H284 C291 0.950 . S
C285 C283 1.387 . S
C285 C287 1.390 . S
C285 H289 0.950 . S
H286 C282 0.950 . S
C287 C285 1.390 . S
C287 C288 1.387 . S
C287 H290 0.950 . S
C288 C287 1.387 . S
C288 C291 1.387 . S
H289 C285 0.950 . S
H290 C287 0.950 . S
C291 C282 1.390 . S
C291 H284 0.950 . S
C291 C288 1.387 . S
C292 C293 1.387 . S
C292 H296 0.950 . S
C292 C301 1.390 . S
C293 C292 1.387 . S
C293 C295 1.387 . S
H294 C301 0.950 . S
C295 C293 1.387 . S
C295 C297 1.390 . S
C295 H299 0.950 . S
H296 C292 0.950 . S
C297 C295 1.390 . S
C297 C298 1.387 . S
C297 H300 0.950 . S
C298 C297 1.387 . S
C298 C301 1.387 . S
H299 C295 0.950 . S
H300 C297 0.950 . S
C301 C292 1.390 . S
C301 H294 0.950 . S
C301 C298 1.387 . S
C302 C303 1.387 . S
C302 H306 0.950 . S
C302 C311 1.390 . S
C303 C302 1.387 . S
C303 C305 1.387 . S
H304 C311 0.950 . S
C305 C303 1.387 . S
C305 C307 1.390 . S
C305 H309 0.950 . S
H306 C302 0.950 . S
C307 C305 1.390 . S
C307 C308 1.387 . S
C307 H310 0.950 . S
C308 C307 1.387 . S
C308 C311 1.387 . S
H309 C305 0.950 . S
H310 C307 0.950 . S
C311 C302 1.390 . S
C311 H304 0.950 . S
C311 C308 1.387 . S
C312 C313 1.387 . S
C312 H316 0.950 . S
C312 C321 1.390 . S
C313 C312 1.387 . S
C313 C315 1.387 . S
H314 C321 0.950 1_556 S
C315 C313 1.387 . S
C315 C317 1.390 1_554 S
C315 H319 0.950 . S
H316 C312 0.950 . S
C317 C315 1.390 1_556 S
C317 C318 1.387 . S
C317 H320 0.950 1_455 S
C318 C317 1.387 . S
C318 C321 1.387 1_556 S
H319 C315 0.950 . S
H320 C317 0.950 1_655 S
C321 C312 1.390 . S
C321 H314 0.950 1_554 S
C321 C318 1.387 1_554 S
C322 C323 1.387 . S
C322 H326 0.950 . S
C322 C331 1.390 . S
C323 C322 1.387 . S
C323 C325 1.387 1_545 S
H324 C331 0.950 . S
C325 C323 1.387 1_565 S
C325 C327 1.390 . S
C325 H329 0.950 . S
H326 C322 0.950 . S
C327 C325 1.390 . S
C327 C328 1.387 1_565 S
C327 H330 0.950 . S
C328 C327 1.387 1_545 S
C328 C331 1.387 . S
H329 C325 0.950 . S
H330 C327 0.950 . S
C331 C322 1.390 . S
C331 H324 0.950 . S
C331 C328 1.387 . S
C332 C333 1.387 . S
C332 H336 0.950 . S
C332 C341 1.390 . S
C333 C332 1.387 . S
C333 C335 1.387 . S
H334 C341 0.950 . S
C335 C333 1.387 . S
C335 C337 1.390 . S
C335 H339 0.950 . S
H336 C332 0.950 . S
C337 C335 1.390 . S
C337 C338 1.387 . S
C337 H340 0.950 . S
C338 C337 1.387 . S
C338 C341 1.387 . S
H339 C335 0.950 . S
H340 C337 0.950 . S
C341 C332 1.390 . S
C341 H334 0.950 . S
C341 C338 1.387 . S
C342 C343 1.387 . S
C342 H346 0.950 . S
C342 C351 1.390 . S
C343 C342 1.387 . S
C343 C345 1.387 1_545 S
H344 C351 0.950 . S
C345 C343 1.387 1_565 S
C345 C347 1.390 . S
C345 H349 0.950 . S
H346 C342 0.950 . S
C347 C345 1.390 . S
C347 C348 1.387 1_565 S
C347 H350 0.950 . S
C348 C347 1.387 1_545 S
C348 C351 1.387 . S
H349 C345 0.950 . S
H350 C347 0.950 . S
C351 C342 1.390 . S
C351 H344 0.950 . S
C351 C348 1.387 . S
C352 C353 1.387 . S
C352 H356 0.950 . S
C352 C361 1.390 . S
C353 C352 1.387 . S
C353 C355 1.387 . S
H354 C361 0.950 . S
C355 C353 1.387 . S
C355 C357 1.390 1_556 S
C355 H359 0.950 . S
H356 C352 0.950 . S
C357 C355 1.390 1_554 S
C357 C358 1.387 . S
C357 H360 0.950 . S
C358 C357 1.387 . S
C358 C361 1.387 1_554 S
H359 C355 0.950 . S
H360 C357 0.950 . S
C361 C352 1.390 . S
C361 H354 0.950 . S
C361 C358 1.387 1_556 S
C362 C363 1.387 . S
C362 H366 0.950 . S
C362 C371 1.390 . S
C363 C362 1.387 . S
C363 C365 1.387 . S
H364 C371 0.950 . S
C365 C363 1.387 . S
C365 C367 1.390 . S
C365 H369 0.950 . S
H366 C362 0.950 . S
C367 C365 1.390 . S
C367 C368 1.387 . S
C367 H370 0.950 1_455 S
C368 C367 1.387 . S
C368 C371 1.387 . S
H369 C365 0.950 . S
H370 C367 0.950 1_655 S
C371 C362 1.390 . S
C371 H364 0.950 . S
C371 C368 1.387 . S
C193 C7 1.210 . S
C198 C186 1.343 . S
C203 C51 1.964 . S
C208 C160 1.885 . S
C213 C87 1.380 . S
C218 C172 1.437 . S
C223 C16 0.642 . S
C228 C184 0.517 . S
C238 C162 1.875 . S
C233 C42 1.929 . S
C248 C174 1.285 . S
C243 C96 1.264 . S
C253 C47 1.355 . S
C258 C136 1.391 . S
C263 C91 3.323 . S
C268 C150 3.292 . S
C273 C2 1.960 . S
C278 C126 1.934 . S
C288 C138 1.299 . S
C283 C56 1.266 . S
C298 C148 2.788 . S
C293 C82 2.909 . S
C303 C11 1.977 . S
C308 C124 1.913 . S
C318 C153 1.819 . S
C313 C19 1.712 . S
C323 C50 1.393 . S
C328 C129 1.456 . S
C333 C99 1.501 . S
C338 C141 1.518 . S
C348 C177 1.507 . S
C343 C59 1.504 . S
C358 C189 1.198 . S
C353 C90 1.184 . S
C363 C10 1.391 . S
C368 C165 1.418 . S
