# Generated by pormake.
# Topology apo, (3,6)-cn, num edge types: 1
# Building blocks:
#     Node 0, Type 0, BuildingBlock: PAMTOO_clean_linker_0, # of connection points: 3
#     Node 1, Type 0, BuildingBlock: PAMTOO_clean_linker_0, # of connection points: 3
#     Node 2, Type 0, BuildingBlock: PAMTOO_clean_linker_0, # of connection points: 3
#     Node 3, Type 0, BuildingBlock: PAMTOO_clean_linker_0, # of connection points: 3
#     Node 4, Type 0, BuildingBlock: PAMTOO_clean_linker_0, # of connection points: 3
#     Node 5, Type 0, BuildingBlock: PAMTOO_clean_linker_0, # of connection points: 3
#     Node 6, Type 0, BuildingBlock: PAMTOO_clean_linker_0, # of connection points: 3
#     Node 7, Type 0, BuildingBlock: PAMTOO_clean_linker_0, # of connection points: 3
#     Node 8, Type 1, BuildingBlock: KUMBOL_clean_sbu_1, # of connection points: 6
#     Node 9, Type 1, BuildingBlock: KUMBOL_clean_sbu_1, # of connection points: 6
#     Node 10, Type 1, BuildingBlock: KUMBOL_clean_sbu_1, # of connection points: 6
#     Node 11, Type 1, BuildingBlock: KUMBOL_clean_sbu_1, # of connection points: 6
#     Edge 12, Type (0, 1), BuildingBlock: XUDNAN_clean_linker_2, # of connection points: 2
#     Edge 13, Type (0, 1), BuildingBlock: XUDNAN_clean_linker_2, # of connection points: 2
#     Edge 14, Type (0, 1), BuildingBlock: XUDNAN_clean_linker_2, # of connection points: 2
#     Edge 15, Type (0, 1), BuildingBlock: XUDNAN_clean_linker_2, # of connection points: 2
#     Edge 16, Type (0, 1), BuildingBlock: XUDNAN_clean_linker_2, # of connection points: 2
#     Edge 17, Type (0, 1), BuildingBlock: XUDNAN_clean_linker_2, # of connection points: 2
#     Edge 18, Type (0, 1), BuildingBlock: XUDNAN_clean_linker_2, # of connection points: 2
#     Edge 19, Type (0, 1), BuildingBlock: XUDNAN_clean_linker_2, # of connection points: 2
#     Edge 20, Type (0, 1), BuildingBlock: XUDNAN_clean_linker_2, # of connection points: 2
#     Edge 21, Type (0, 1), BuildingBlock: XUDNAN_clean_linker_2, # of connection points: 2
#     Edge 22, Type (0, 1), BuildingBlock: XUDNAN_clean_linker_2, # of connection points: 2
#     Edge 23, Type (0, 1), BuildingBlock: XUDNAN_clean_linker_2, # of connection points: 2
#     Edge 24, Type (0, 1), BuildingBlock: XUDNAN_clean_linker_2, # of connection points: 2
#     Edge 25, Type (0, 1), BuildingBlock: XUDNAN_clean_linker_2, # of connection points: 2
#     Edge 26, Type (0, 1), BuildingBlock: XUDNAN_clean_linker_2, # of connection points: 2
#     Edge 27, Type (0, 1), BuildingBlock: XUDNAN_clean_linker_2, # of connection points: 2
#     Edge 28, Type (0, 1), BuildingBlock: XUDNAN_clean_linker_2, # of connection points: 2
#     Edge 29, Type (0, 1), BuildingBlock: XUDNAN_clean_linker_2, # of connection points: 2
#     Edge 30, Type (0, 1), BuildingBlock: XUDNAN_clean_linker_2, # of connection points: 2
#     Edge 31, Type (0, 1), BuildingBlock: XUDNAN_clean_linker_2, # of connection points: 2
#     Edge 32, Type (0, 1), BuildingBlock: XUDNAN_clean_linker_2, # of connection points: 2
#     Edge 33, Type (0, 1), BuildingBlock: XUDNAN_clean_linker_2, # of connection points: 2
#     Edge 34, Type (0, 1), BuildingBlock: XUDNAN_clean_linker_2, # of connection points: 2
#     Edge 35, Type (0, 1), BuildingBlock: XUDNAN_clean_linker_2, # of connection points: 2
# Relax obj value: 0.040
# Max RMSD: 0.225
# Mean RMSD: 0.162
data_MOF--net-apo--node1-KUMBOL_clean_sbu_1--node2-PAMTOO_clean_linker_0--edge1-XUDNAN_clean_linker_2
_symmetry_space_group_name_H-M    P1
_symmetry_Int_Tables_number       1
_symmetry_cell_setting            triclinic
loop_
_symmetry_equiv_pos_as_xyz
'x, y, z'
_cell_length_a     27.533585
_cell_length_b     42.250994
_cell_length_c     50.967807
_cell_angle_alpha  89.854156
_cell_angle_beta   89.837662
_cell_angle_gamma 90.52941
loop_
_atom_site_label
_atom_site_type_symbol
_atom_site_fract_x
_atom_site_fract_y
_atom_site_fract_z
_atom_type_partial_charge
H0 H 0.37224 0.43893 0.43744 0.0
H1 H 0.28801 0.39978 0.37401 0.0
H2 H 0.29807 0.34952 0.44712 0.0
H3 H 0.2991 0.30795 0.39819 0.0
C4 C 0.27759 0.32373 0.38524 0.0
O5 O 0.26089 0.34895 0.39977 0.0
H6 H 0.30136 0.33248 0.36903 0.0
C7 C 0.34986 0.42004 0.42945 0.0
C8 C 0.33801 0.39379 0.44522 0.0
C9 C 0.33182 0.42257 0.40376 0.0
C10 C 0.3027 0.39805 0.39366 0.0
C11 C 0.29087 0.37167 0.40924 0.0
C12 C 0.30815 0.36969 0.43504 0.0
H13 H 0.14536 0.0828 0.92009 0.0
H14 H 0.23749 0.16299 0.93861 0.0
H15 H 0.21185 0.13788 0.85843 0.0
H16 H 0.31228 0.15589 0.87051 0.0
C17 C 0.30577 0.17418 0.88577 0.0
O18 O 0.25649 0.1775 0.88982 0.0
H19 H 0.32337 0.16605 0.90421 0.0
C20 C 0.16917 0.10208 0.91409 0.0
C21 C 0.1768 0.10758 0.88716 0.0
C22 C 0.19007 0.12221 0.93307 0.0
C23 C 0.21998 0.14751 0.92454 0.0
C24 C 0.22802 0.15296 0.89773 0.0
C25 C 0.20592 0.13328 0.87913 0.0
H26 H 0.85618 0.08797 0.59868 0.0
H27 H 0.76646 0.13363 0.65651 0.0
H28 H 0.78239 0.17527 0.58079 0.0
H29 H 0.77053 0.22452 0.62201 0.0
C30 C 0.75877 0.20799 0.63786 0.0
O31 O 0.74165 0.18038 0.62654 0.0
H32 H 0.79067 0.20314 0.65059 0.0
C33 C 0.83253 0.10711 0.6043 0.0
C34 C 0.82096 0.13094 0.5858 0.0
C35 C 0.81422 0.10808 0.63021 0.0
C36 C 0.78254 0.13269 0.63712 0.0
C37 C 0.7714 0.15662 0.61926 0.0
C38 C 0.79074 0.15589 0.5939 0.0
H39 H 0.65224 0.41709 0.09944 0.0
H40 H 0.74408 0.33517 0.09897 0.0
H41 H 0.73181 0.39114 0.16881 0.0
H42 H 0.82508 0.36965 0.16455 0.0
C43 C 0.82124 0.35025 0.14998 0.0
O44 O 0.77287 0.34182 0.14775 0.0
H45 H 0.83517 0.35928 0.13079 0.0
C46 C 0.67667 0.40124 0.10958 0.0
C47 C 0.68988 0.40755 0.13571 0.0
C48 C 0.69573 0.37512 0.09617 0.0
C49 C 0.72851 0.35518 0.10913 0.0
C50 C 0.74078 0.36075 0.13542 0.0
C51 C 0.72092 0.38659 0.14874 0.0
H52 H 0.67268 0.57246 0.59223 0.0
H53 H 0.74422 0.66329 0.58402 0.0
H54 H 0.74386 0.61587 0.65839 0.0
H55 H 0.72505 0.68635 0.65821 0.0
C56 C 0.75335 0.69309 0.64355 0.0
O57 O 0.77325 0.6663 0.63256 0.0
H58 H 0.73612 0.70742 0.62783 0.0
C59 C 0.69286 0.5921 0.60063 0.0
C60 C 0.70607 0.5912 0.62727 0.0
C61 C 0.7064 0.61809 0.58476 0.0
C62 C 0.73272 0.64332 0.59597 0.0
C63 C 0.74588 0.64259 0.62244 0.0
C64 C 0.73286 0.61648 0.638 0.0
H65 H 0.85344 0.94098 0.09619 0.0
H66 H 0.80566 0.89527 0.16726 0.0
H67 H 0.78832 0.84779 0.09344 0.0
H68 H 0.70509 0.84289 0.12787 0.0
C69 C 0.72317 0.84225 0.14735 0.0
O70 O 0.773 0.84401 0.14409 0.0
H71 H 0.71093 0.86293 0.15905 0.0
C72 C 0.83683 0.92075 0.10593 0.0
C73 C 0.82186 0.89434 0.09119 0.0
C74 C 0.83135 0.92123 0.13329 0.0
C75 C 0.81065 0.89499 0.14616 0.0
C76 C 0.79478 0.8687 0.13171 0.0
C77 C 0.801 0.8682 0.10436 0.0
H78 H 0.19074 0.9374 0.43882 0.0
H79 H 0.26023 0.84684 0.43141 0.0
H80 H 0.25124 0.90826 0.36469 0.0
H81 H 0.2435 0.84344 0.34844 0.0
C82 C 0.25731 0.83173 0.36647 0.0
O83 O 0.2815 0.85373 0.38167 0.0
H84 H 0.22554 0.82169 0.37734 0.0
C85 C 0.21022 0.92029 0.42709 0.0
C86 C 0.21893 0.92648 0.40032 0.0
C87 C 0.22476 0.89159 0.43858 0.0
C88 C 0.24836 0.86901 0.42296 0.0
C89 C 0.25776 0.87518 0.39642 0.0
C90 C 0.24331 0.9038 0.38522 0.0
H91 H 0.37674 0.60522 0.93117 0.0
H92 H 0.32041 0.64072 0.85808 0.0
H93 H 0.2827 0.68605 0.93039 0.0
H94 H 0.20267 0.68432 0.89388 0.0
C95 C 0.22274 0.68345 0.87492 0.0
O96 O 0.27186 0.68699 0.87954 0.0
H97 H 0.21531 0.66007 0.86566 0.0
C98 C 0.35454 0.62187 0.92047 0.0
C99 C 0.33017 0.64572 0.93432 0.0
C100 C 0.35178 0.61979 0.89292 0.0
C101 C 0.32266 0.64148 0.87929 0.0
C102 C 0.29782 0.66524 0.89289 0.0
C103 C 0.30187 0.66743 0.92023 0.0
C104 C 0.87882 0.08368 0.26816 0.0
C105 C 0.89624 0.02995 0.28179 0.0
C106 C 0.90855 0.06245 0.28128 0.0
C107 C 0.85512 0.01908 0.26814 0.0
C108 C 0.83715 0.07291 0.25474 0.0
C109 C 0.82579 0.04046 0.25456 0.0
N110 N 0.8913 0.11486 0.26803 0.0
C111 C 0.8628 0.13677 0.256 0.0
C112 C 0.80825 0.09512 0.24179 0.0
C113 C 0.82098 0.12721 0.24257 0.0
Gd114 Gd 0.08198 0.12295 0.24147 0.0
Gd115 Gd 0.96234 0.12876 0.29033 0.0
N116 N 0.94836 0.07366 0.29427 0.0
C117 C 0.92478 0.00943 0.29666 0.0
C118 C 0.97271 0.05423 0.31107 0.0
C119 C 0.96251 0.02176 0.31183 0.0
H120 H 0.99883 0.06359 0.32472 0.0
H121 H 0.98297 1.0064 0.32465 0.0
H122 H 0.09874 0.20029 0.22937 0.0
H123 H 0.87283 0.16156 0.25651 0.0
H124 H 0.16499 0.24009 0.23222 0.0
H125 H 0.91661 0.98431 0.2975 0.0
H126 H 0.84516 0.99421 0.26837 0.0
H127 H 0.13261 0.05312 0.25335 0.0
H128 H 0.776 0.08776 0.23122 0.0
H129 H 0.79872 0.14454 0.23274 0.0
H130 H 0.30157 0.18105 0.26334 0.0
H131 H 0.7941 0.0317 0.24422 0.0
H132 H 0.28084 0.06915 0.27545 0.0
H133 H 0.21201 0.03232 0.26773 0.0
N134 N 0.1558 0.10114 0.25461 0.0
C135 C 0.1934 0.12171 0.25795 0.0
C136 C 0.16218 0.06935 0.25745 0.0
C137 C 0.24591 0.07841 0.26963 0.0
C138 C 0.20711 0.05753 0.26534 0.0
C139 C 0.23961 0.11089 0.26548 0.0
H140 H 0.31402 0.12478 0.27365 0.0
N141 N 0.14149 0.16291 0.24475 0.0
C142 C 0.18624 0.15349 0.25254 0.0
C143 C 0.21713 0.20681 0.24701 0.0
C144 C 0.22524 0.17523 0.25403 0.0
C145 C 0.13389 0.19337 0.23665 0.0
C146 C 0.17133 0.21587 0.23814 0.0
O147 O 0.95924 0.11529 0.24736 0.0
O148 O 0.02569 0.08438 0.24436 0.0
O149 O 0.06241 0.13027 0.20046 0.0
O150 O 0.12259 0.10021 0.21027 0.0
O151 O 0.03378 0.11237 0.30708 0.0
O152 O 0.06183 0.08604 0.27133 0.0
O153 O 0.0905 0.15846 0.27443 0.0
O154 O 0.01889 0.16616 0.29868 0.0
O155 O 0.93486 0.12055 0.3299 0.0
O156 O 0.90931 0.16036 0.30758 0.0
O157 O 0.02717 0.16095 0.23222 0.0
O158 O 0.96724 0.1716 0.26392 0.0
C159 C 0.98127 0.09078 0.23736 0.0
C160 C 0.06499 0.09302 0.29628 0.0
C161 C 0.12879 0.12912 0.17075 0.0
C162 C 0.15136 0.13567 0.12449 0.0
C163 C 0.19364 0.16557 0.1583 0.0
C164 C 0.16518 0.15102 0.17755 0.0
C165 C 0.18681 0.15805 0.13197 0.0
C166 C 0.12219 0.12125 0.14412 0.0
C167 C 0.09882 0.11397 0.19147 0.0
C168 C 0.27118 0.16467 0.26194 0.0
C169 C 0.27826 0.13263 0.26784 0.0
H170 H 0.24617 0.22425 0.24794 0.0
C171 C 0.06427 0.17307 0.29233 0.0
C172 C 0.99062 0.17763 0.24169 0.0
C173 C 0.91446 0.16638 0.35397 0.0
C174 C 0.9096 0.17206 0.40167 0.0
C175 C 0.92783 0.21775 0.37426 0.0
C176 C 0.92527 0.1989 0.35184 0.0
C177 C 0.91971 0.20451 0.39903 0.0
C178 C 0.9071 0.15302 0.37909 0.0
C179 C 0.90952 0.14632 0.33032 0.0
H180 H 0.2216 0.18242 0.16385 0.0
H181 H 0.17229 0.1566 0.19774 0.0
H182 H 0.21032 0.16916 0.11749 0.0
H183 H 0.0946 0.10402 0.13872 0.0
H184 H 0.93601 0.24277 0.37243 0.0
H185 H 0.93149 0.20985 0.33287 0.0
H186 H 0.92182 0.21952 0.41621 0.0
H187 H 0.89886 0.12798 0.38105 0.0
C188 C 0.67911 0.36717 0.77799 0.0
C189 C 0.72307 0.4173 0.77889 0.0
C190 C 0.67992 0.3996 0.78271 0.0
C191 C 0.76526 0.40203 0.77027 0.0
C192 C 0.72176 0.3517 0.76984 0.0
C193 C 0.7646 0.36934 0.76575 0.0
N194 N 0.63717 0.3506 0.78209 0.0
C195 C 0.63663 0.31832 0.78071 0.0
C196 C 0.72036 0.31883 0.76649 0.0
C197 C 0.67778 0.30203 0.7723 0.0
Gd198 Gd 0.45895 0.39468 0.74295 0.0
Gd199 Gd 0.57028 0.38074 0.79531 0.0
N200 N 0.63829 0.41397 0.7905 0.0
C201 C 0.72237 0.44994 0.78355 0.0
C202 C 0.63749 0.44571 0.79531 0.0
C203 C 0.67942 0.46417 0.79182 0.0
H204 H 0.60444 0.45697 0.80139 0.0
H205 H 0.67852 0.4894 0.7954 0.0
H206 H 0.47666 0.3361 0.69959 0.0
H207 H 0.6045 0.30498 0.7862 0.0
H208 H 0.43321 0.28864 0.68393 0.0
H209 H 0.75472 0.46436 0.78074 0.0
H210 H 0.79866 0.41528 0.76711 0.0
H211 H 0.3869 0.42592 0.7911 0.0
H212 H 0.75228 0.30612 0.76014 0.0
H213 H 0.67677 0.27651 0.77059 0.0
H214 H 0.28335 0.28834 0.73203 0.0
H215 H 0.7976 0.35787 0.75935 0.0
H216 H 0.25825 0.3694 0.79581 0.0
H217 H 0.30755 0.41498 0.81085 0.0
N218 N 0.38412 0.3868 0.76477 0.0
C219 C 0.35734 0.36159 0.75611 0.0
C220 C 0.36654 0.4059 0.78412 0.0
C221 C 0.29339 0.37407 0.7869 0.0
C222 C 0.32115 0.39978 0.79548 0.0
C223 C 0.31132 0.35457 0.76705 0.0
H224 H 0.24938 0.32256 0.76624 0.0
N225 N 0.42219 0.34822 0.72745 0.0
C226 C 0.37686 0.34186 0.73694 0.0
C227 C 0.37125 0.29575 0.70904 0.0
C228 C 0.35039 0.3152 0.72812 0.0
C229 C 0.44204 0.32992 0.70826 0.0
C230 C 0.41716 0.30323 0.69901 0.0
O231 O 0.59018 0.40437 0.75659 0.0
O232 O 0.52042 0.43047 0.74435 0.0
O233 O 0.45758 0.40092 0.70023 0.0
O234 O 0.40558 0.42554 0.72546 0.0
O235 O 0.5285 0.42539 0.80287 0.0
O236 O 0.4644 0.43419 0.77341 0.0
O237 O 0.45343 0.35385 0.7714 0.0
O238 O 0.49052 0.37824 0.80528 0.0
O239 O 0.59466 0.39342 0.83446 0.0
O240 O 0.57562 0.34471 0.82567 0.0
O241 O 0.52565 0.36758 0.73018 0.0
O242 O 0.54408 0.34161 0.7686 0.0
C243 C 0.56746 0.42587 0.74252 0.0
C244 C 0.49131 0.44191 0.79409 0.0
C245 C 0.3979 0.43484 0.67861 0.0
C246 C 0.37899 0.43542 0.63175 0.0
C247 C 0.34302 0.47418 0.66093 0.0
C248 C 0.36731 0.46092 0.68219 0.0
C249 C 0.3485 0.46144 0.63591 0.0
C250 C 0.40424 0.42241 0.65319 0.0
C251 C 0.42053 0.41982 0.7017 0.0
C252 C 0.30417 0.30869 0.7386 0.0
C253 C 0.28481 0.32822 0.75807 0.0
H254 H 0.35205 0.27506 0.7018 0.0
C255 C 0.46231 0.35566 0.79652 0.0
C256 C 0.5449 0.34357 0.74285 0.0
C257 C 0.63176 0.35384 0.86032 0.0
C258 C 0.66391 0.34705 0.90481 0.0
C259 C 0.70947 0.32855 0.86681 0.0
C260 C 0.67315 0.33928 0.85004 0.0
C261 C 0.70487 0.33216 0.89395 0.0
C262 C 0.62759 0.358 0.88759 0.0
C263 C 0.59197 0.3645 0.84324 0.0
H264 H 0.31954 0.49427 0.6639 0.0
H265 H 0.36186 0.47099 0.70149 0.0
H266 H 0.32916 0.47211 0.61971 0.0
H267 H 0.42731 0.40207 0.65023 0.0
H268 H 0.74116 0.31707 0.85875 0.0
H269 H 0.67739 0.336 0.82918 0.0
H270 H 0.73312 0.32276 0.90638 0.0
H271 H 0.59597 0.36996 0.89528 0.0
C272 C 0.85428 0.84668 0.76543 0.0
C273 C 0.8659 0.7905 0.77311 0.0
C274 C 0.88243 0.82211 0.77479 0.0
C275 C 0.8212 0.78385 0.76106 0.0
C276 C 0.80855 0.84014 0.75414 0.0
C277 C 0.79255 0.80862 0.75166 0.0
N278 N 0.8705 0.87696 0.76854 0.0
C279 C 0.84055 0.90171 0.76301 0.0
C280 C 0.7796 0.86552 0.74642 0.0
C281 C 0.79535 0.89643 0.75129 0.0
Gd282 Gd 0.04518 0.90347 0.72799 0.0
Gd283 Gd 0.94863 0.8828 0.78711 0.0
N284 N 0.92594 0.8292 0.78586 0.0
C285 C 0.89461 0.76657 0.78387 0.0
C286 C 0.95315 0.80619 0.79742 0.0
C287 C 0.93818 0.77451 0.79635 0.0
H288 H 0.9864 0.8124 0.80735 0.0
H289 H 0.96017 0.75627 0.80517 0.0
H290 H 0.99207 0.95918 0.69089 0.0
H291 H 0.85071 0.92567 0.76799 0.0
H292 H 0.99373 0.01745 0.6863 0.0
H293 H 0.88315 0.742 0.78299 0.0
H294 H 0.80808 0.75969 0.75932 0.0
H295 H 0.1484 0.88322 0.75778 0.0
H296 H 0.74433 0.8615 0.7376 0.0
H297 H 0.77231 0.91621 0.74643 0.0
H298 H 0.13135 0.04968 0.73766 0.0
H299 H 0.75758 0.80318 0.74299 0.0
H300 H 0.22791 0.9679 0.77616 0.0
H301 H 0.21999 0.90952 0.77764 0.0
N302 N 0.11591 0.92634 0.74586 0.0
C303 C 0.12081 0.95824 0.74368 0.0
C304 C 0.15158 0.90869 0.75716 0.0
C305 C 0.19652 0.95648 0.76742 0.0
C306 C 0.19216 0.92351 0.76833 0.0
C307 C 0.16076 0.97428 0.75485 0.0
H308 H 0.19385 0.02024 0.76178 0.0
N309 N 0.04823 0.95824 0.71924 0.0
C310 C 0.08542 0.97474 0.73032 0.0
C311 C 0.05478 0.02346 0.71218 0.0
C312 C 0.08933 1.00787 0.72744 0.0
C313 C 0.01745 0.97292 0.70232 0.0
C314 C 0.01926 1.0058 0.69911 0.0
O315 O 0.97008 0.84749 0.75624 0.0
O316 O 0.97693 0.87546 0.71813 0.0
O317 O 0.06451 0.91168 0.68728 0.0
O318 O 0.09128 0.87021 0.70704 0.0
O319 O 0.02697 0.86741 0.79368 0.0
O320 O 0.0614 0.85971 0.75215 0.0
O321 O 0.05589 0.91928 0.77017 0.0
O322 O 0.98113 0.932 0.78603 0.0
O323 O 0.96639 0.87927 0.8287 0.0
O324 O 0.89395 0.89168 0.81686 0.0
O325 O 0.96602 0.91638 0.72172 0.0
O326 O 0.93655 0.92754 0.76318 0.0
C327 C 0.96198 0.85034 0.73111 0.0
C328 C 0.05893 0.85399 0.77772 0.0
C329 C 0.13815 0.89147 0.67176 0.0
C330 C 0.18365 0.89123 0.63053 0.0
C331 C 0.22121 0.91106 0.67046 0.0
C332 C 0.17853 0.90474 0.68448 0.0
C333 C 0.22377 0.90453 0.64363 0.0
C334 C 0.14098 0.88456 0.64486 0.0
C335 C 0.09156 0.88681 0.68548 0.0
C336 C 0.12811 0.02418 0.73935 0.0
C337 C 0.16377 1.00742 0.75301 0.0
H338 H 0.05635 0.0489 0.70953 0.0
C339 C 0.02721 0.93881 0.7825 0.0
C340 C 0.93766 0.93247 0.73759 0.0
C341 C 0.90146 0.86443 0.857 0.0
C342 C 0.87675 0.85666 0.90275 0.0
C343 C 0.86116 0.81563 0.87036 0.0
C344 C 0.88189 0.83462 0.85083 0.0
C345 C 0.85852 0.8265 0.89615 0.0
C346 C 0.89882 0.87536 0.88299 0.0
C347 C 0.92228 0.88511 0.83643 0.0
H348 H 0.25225 0.92134 0.68038 0.0
H349 H 0.17695 0.9106 0.70505 0.0
H350 H 0.25719 0.90972 0.63314 0.0
H351 H 0.1094 0.87491 0.63491 0.0
H352 H 0.84613 0.79267 0.86538 0.0
H353 H 0.88163 0.82619 0.83092 0.0
H354 H 0.84071 0.8117 0.91071 0.0
H355 H 0.91344 0.89856 0.8877 0.0
C356 C 0.66667 0.65916 0.27624 0.0
C357 C 0.66089 0.71395 0.28966 0.0
C358 C 0.64084 0.68316 0.28822 0.0
C359 C 0.70632 0.72036 0.27808 0.0
C360 C 0.71281 0.66521 0.2652 0.0
C361 C 0.73227 0.69604 0.26593 0.0
N362 N 0.64612 0.62989 0.27497 0.0
C363 C 0.67072 0.60509 0.26447 0.0
C364 C 0.73782 0.64009 0.25364 0.0
C365 C 0.71685 0.60983 0.2535 0.0
Gd366 Gd 0.45882 0.62696 0.23773 0.0
Gd367 Gd 0.56775 0.62406 0.29219 0.0
N368 N 0.59672 0.67621 0.29899 0.0
C369 C 0.63509 0.73723 0.30311 0.0
C370 C 0.57336 0.69824 0.31385 0.0
C371 C 0.59158 0.72916 0.31567 0.0
H372 H 0.54122 0.69211 0.32488 0.0
H373 H 0.57234 0.74666 0.32706 0.0
H374 H 0.4687 0.55445 0.21283 0.0
H375 H 0.65463 0.58168 0.26444 0.0
H376 H 0.42367 0.50341 0.21389 0.0
H377 H 0.64919 0.76118 0.30465 0.0
H378 H 0.72204 0.74395 0.27877 0.0
H379 H 0.3796 0.68134 0.25995 0.0
H380 H 0.7734 0.64376 0.24495 0.0
H381 H 0.73611 0.59019 0.24488 0.0
H382 H 0.28283 0.52507 0.2666 0.0
H383 H 0.76748 0.70126 0.25732 0.0
H384 H 0.25785 0.63235 0.29354 0.0
H385 H 0.30237 0.68236 0.28451 0.0
N386 N 0.38245 0.63117 0.2584 0.0
C387 C 0.3567 0.60375 0.26128 0.0
C388 C 0.36215 0.65931 0.26525 0.0
C389 C 0.29257 0.63174 0.2835 0.0
C390 C 0.31766 0.66 0.27853 0.0
C391 C 0.31133 0.60321 0.27418 0.0
H392 H 0.25082 0.57356 0.28667 0.0
N393 N 0.41814 0.57787 0.23745 0.0
C394 C 0.37456 0.57639 0.25001 0.0
C395 C 0.36611 0.52126 0.23834 0.0
C396 C 0.34784 0.54784 0.25128 0.0
C397 C 0.43515 0.55249 0.22379 0.0
C398 C 0.4097 0.52369 0.22431 0.0
O399 O 0.58207 0.64168 0.25115 0.0
O400 O 0.51278 0.66794 0.23979 0.0
O401 O 0.46848 0.62318 0.19536 0.0
O402 O 0.40784 0.64886 0.21097 0.0
O403 O 0.499 0.65039 0.30251 0.0
O404 O 0.46582 0.67015 0.26411 0.0
O405 O 0.46665 0.58624 0.26667 0.0
O406 O 0.49156 0.61105 0.30377 0.0
O407 O 0.59168 0.62786 0.33244 0.0
O408 O 0.5958 0.58262 0.31258 0.0
O409 O 0.52766 0.60198 0.22645 0.0
O410 O 0.5608 0.58137 0.26495 0.0
C411 C 0.56035 0.66529 0.23954 0.0
C412 C 0.47187 0.67089 0.28977 0.0
C413 C 0.39592 0.62293 0.17056 0.0
C414 C 0.36616 0.61858 0.12545 0.0
C415 C 0.3307 0.58606 0.16017 0.0
C416 C 0.36178 0.59995 0.17844 0.0
C417 C 0.33274 0.59526 0.13389 0.0
C418 C 0.39796 0.63224 0.14404 0.0
C419 C 0.42846 0.63792 0.18995 0.0
C420 C 0.30364 0.54688 0.26509 0.0
C421 C 0.28549 0.57449 0.27658 0.0
H422 H 0.34648 0.49892 0.23871 0.0
C423 C 0.46476 0.58973 0.29213 0.0
C424 C 0.55495 0.58147 0.23913 0.0
C425 C 0.64747 0.59145 0.34986 0.0
C426 C 0.68622 0.59258 0.39302 0.0
C427 C 0.72775 0.56938 0.35557 0.0
C428 C 0.68833 0.57644 0.33935 0.0
C429 C 0.72672 0.57724 0.38225 0.0
C430 C 0.64673 0.59943 0.3766 0.0
C431 C 0.60397 0.59831 0.33417 0.0
H432 H 0.30441 0.56839 0.16649 0.0
H433 H 0.35858 0.59301 0.19874 0.0
H434 H 0.30722 0.58464 0.1203 0.0
H435 H 0.42422 0.65008 0.13794 0.0
H436 H 0.75924 0.55777 0.34743 0.0
H437 H 0.68971 0.57008 0.3188 0.0
H438 H 0.75785 0.57179 0.39434 0.0
H439 H 0.61477 0.61062 0.38474 0.0
H440 H 0.17427 0.93321 0.35268 0.0
H441 H 0.22396 0.98678 0.42017 0.0
H442 H 0.19348 0.03593 0.39983 0.0
H443 H 0.20458 0.99204 0.30376 0.0
H444 H 0.15157 0.98441 0.28395 0.0
H445 H 0.17747 0.95308 0.3033 0.0
H446 H 0.09549 0.94315 0.32678 0.0
H447 H 0.06834 0.97375 0.30721 0.0
H448 H 0.06509 0.97564 0.3425 0.0
H449 H 0.15445 0.07885 0.37281 0.0
H450 H 0.1092 0.11207 0.34128 0.0
H451 H 0.08663 0.03032 0.29142 0.0
C452 C 0.1794 0.95534 0.36303 0.0
C453 C 0.20166 0.95619 0.38798 0.0
C454 C 0.20668 0.98554 0.40113 0.0
C455 C 0.18978 0.01359 0.38966 0.0
C456 C 0.16799 0.01186 0.36505 0.0
C457 C 0.1627 0.98347 0.35192 0.0
C458 C 0.13663 0.98783 0.32606 0.0
C459 C 0.16953 0.97881 0.30289 0.0
C460 C 0.08854 0.96898 0.32563 0.0
C461 C 0.12776 0.02309 0.32676 0.0
C462 C 0.14618 0.03657 0.34937 0.0
C463 C 0.14033 0.06861 0.35492 0.0
C464 C 0.11459 0.08724 0.33699 0.0
C465 C 0.09535 0.07378 0.31381 0.0
C466 C 0.10228 0.04136 0.30863 0.0
H467 H 0.32624 0.5828 0.85003 0.0
H468 H 0.44532 0.60322 0.90331 0.0
H469 H 0.49392 0.56185 0.88236 0.0
H470 H 0.34073 0.49955 0.84797 0.0
H471 H 0.32772 0.49532 0.81352 0.0
H472 H 0.30196 0.52759 0.83173 0.0
H473 H 0.33958 0.56773 0.79882 0.0
H474 H 0.36524 0.53555 0.7804 0.0
H475 H 0.40396 0.56696 0.79233 0.0
H476 H 0.52705 0.51605 0.85904 0.0
H477 H 0.54588 0.46968 0.83253 0.0
H478 H 0.40954 0.4802 0.79061 0.0
C479 C 0.3628 0.57886 0.857 0.0
C480 C 0.38157 0.59602 0.87867 0.0
C481 C 0.42953 0.58995 0.88726 0.0
C482 C 0.45768 0.56665 0.87532 0.0
C483 C 0.43783 0.5498 0.85448 0.0
C484 C 0.3918 0.55571 0.8451 0.0
C485 C 0.37937 0.53347 0.82261 0.0
C486 C 0.3348 0.51276 0.82937 0.0
C487 C 0.37159 0.55204 0.79702 0.0
C488 C 0.42532 0.51384 0.82128 0.0
C489 C 0.4583 0.5238 0.83995 0.0
C490 C 0.50198 0.50838 0.84397 0.0
C491 C 0.51236 0.48193 0.82862 0.0
C492 C 0.47963 0.47116 0.80903 0.0
C493 C 0.43565 0.48775 0.80518 0.0
H494 H 0.61584 0.57063 0.64319 0.0
H495 H 0.7692 0.54978 0.64897 0.0
H496 H 0.75024 0.50391 0.67772 0.0
H497 H 0.58795 0.55313 0.71044 0.0
H498 H 0.52894 0.53624 0.70371 0.0
H499 H 0.55418 0.56599 0.68215 0.0
H500 H 0.54382 0.52805 0.64264 0.0
H501 H 0.51854 0.49819 0.66412 0.0
H502 H 0.57046 0.48926 0.64393 0.0
H503 H 0.71446 0.46 0.70522 0.0
H504 H 0.66533 0.42351 0.73232 0.0
H505 H 0.53539 0.47547 0.71199 0.0
C506 C 0.6452 0.5561 0.65034 0.0
C507 C 0.69394 0.56332 0.64376 0.0
C508 C 0.73168 0.54435 0.65377 0.0
C509 C 0.72122 0.5183 0.67003 0.0
C510 C 0.67282 0.51181 0.67633 0.0
C511 C 0.63541 0.5303 0.667 0.0
C512 C 0.58684 0.51916 0.67796 0.0
C513 C 0.5631 0.54518 0.69455 0.0
C514 C 0.55292 0.508 0.65584 0.0
C515 C 0.60284 0.49162 0.69491 0.0
C516 C 0.65249 0.48757 0.69341 0.0
C517 C 0.67563 0.46325 0.70683 0.0
C518 C 0.64738 0.44276 0.72244 0.0
C519 C 0.59662 0.44706 0.72509 0.0
C520 C 0.57418 0.47171 0.71081 0.0
H521 H 0.90059 0.92672 0.17164 0.0
H522 H 0.79517 0.98018 0.12722 0.0
H523 H 0.82149 0.0293 0.1496 0.0
H524 H 0.89103 0.97015 0.2321 0.0
H525 H 0.95499 0.9702 0.23958 0.0
H526 H 0.92846 0.93812 0.22109 0.0
H527 H 0.98818 0.94689 0.18286 0.0
H528 H 0.01728 0.97818 0.20108 0.0
H529 H 0.99478 0.98574 0.16851 0.0
H530 H 0.85982 0.07237 0.17585 0.0
H531 H 0.90899 0.10745 0.20415 0.0
H532 H 0.99225 0.0268 0.23058 0.0
C533 C 0.88277 0.94877 0.16699 0.0
C534 C 0.84563 0.94989 0.14798 0.0
C535 C 0.82356 0.97907 0.14186 0.0
C536 C 0.83824 1.00697 0.15445 0.0
C537 C 0.8754 1.00526 0.17287 0.0
C538 C 0.89759 0.977 0.17909 0.0
C539 C 0.93815 0.98209 0.19875 0.0
C540 C 0.92754 0.96409 0.22442 0.0
C541 C 0.98751 0.97267 0.18709 0.0
C542 C 0.93521 0.01759 0.20258 0.0
C543 C 0.89856 0.0304 0.18755 0.0
C544 C 0.88866 0.06265 0.18769 0.0
C545 C 0.91678 0.08237 0.20376 0.0
C546 C 0.95442 0.06979 0.21936 0.0
C547 C 0.96401 0.03703 0.21858 0.0
H548 H 0.83298 0.0438 0.62421 0.0
H549 H 0.83129 0.11879 0.68245 0.0
H550 H 0.85427 0.08061 0.71649 0.0
H551 H 0.78902 0.98011 0.6666 0.0
H552 H 0.82907 0.95099 0.6528 0.0
H553 H 0.80849 0.98353 0.6329 0.0
H554 H 0.89747 0.99882 0.62247 0.0
H555 H 0.91886 0.96669 0.6425 0.0
H556 H 0.93909 1.0066 0.64892 0.0
H557 H 0.87865 0.03504 0.74445 0.0
H558 H 0.9116 0.98606 0.76347 0.0
H559 H 0.90267 0.94064 0.68737 0.0
C560 C 0.8375 0.05229 0.64408 0.0
C561 C 0.82917 0.08444 0.65053 0.0
C562 C 0.83572 0.09426 0.67692 0.0
C563 C 0.84912 0.07274 0.69649 0.0
C564 C 0.85646 0.04135 0.68952 0.0
C565 C 0.85145 0.03112 0.66393 0.0
C566 C 0.86435 0.99636 0.66159 0.0
C567 C 0.82009 0.97658 0.65296 0.0
C568 C 0.90752 0.99186 0.64277 0.0
C569 C 0.87815 0.98893 0.68974 0.0
C570 C 0.87253 0.01514 0.70557 0.0
C571 C 0.88339 0.01438 0.73224 0.0
C572 C 0.902 0.9864 0.74289 0.0
C573 C 0.91056 0.95974 0.72682 0.0
C574 C 0.89691 0.96077 0.70007 0.0
H575 H 0.65184 0.41567 0.18546 0.0
H576 H 0.69391 0.46674 0.11485 0.0
H577 H 0.66963 0.5169 0.13543 0.0
H578 H 0.54617 0.46146 0.19912 0.0
H579 H 0.55354 0.46072 0.23424 0.0
H580 H 0.57661 0.42879 0.21461 0.0
H581 H 0.66221 0.43765 0.23448 0.0
H582 H 0.63936 0.46976 0.25404 0.0
H583 H 0.69037 0.47628 0.23239 0.0
H584 H 0.63864 0.56077 0.16219 0.0
H585 H 0.59825 0.5965 0.19326 0.0
H586 H 0.57559 0.51836 0.24746 0.0
C587 C 0.65624 0.43749 0.17449 0.0
C588 C 0.67456 0.43736 0.1485 0.0
C589 C 0.67936 0.46628 0.13462 0.0
C590 C 0.66609 0.4949 0.14622 0.0
C591 C 0.64805 0.49426 0.17176 0.0
C592 C 0.64279 0.4664 0.18576 0.0
C593 C 0.62008 0.47245 0.21247 0.0
C594 C 0.5712 0.45481 0.21526 0.0
C595 C 0.65511 0.4635 0.23466 0.0
C596 C 0.61302 0.50801 0.2111 0.0
C597 C 0.62985 0.51998 0.18745 0.0
C598 C 0.62557 0.55177 0.18083 0.0
C599 C 0.60247 0.57182 0.19857 0.0
C600 C 0.58396 0.5601 0.22268 0.0
C601 C 0.59016 0.52792 0.22931 0.0
H602 H 0.36783 0.42749 0.35346 0.0
H603 H 0.3179 0.48323 0.41941 0.0
H604 H 0.33748 0.53233 0.39511 0.0
H605 H 0.46887 0.4751 0.3388 0.0
H606 H 0.46511 0.47111 0.30366 0.0
H607 H 0.44131 0.44029 0.32459 0.0
H608 H 0.35666 0.44484 0.30234 0.0
H609 H 0.38168 0.47496 0.28105 0.0
H610 H 0.32817 0.48303 0.30029 0.0
H611 H 0.36912 0.57473 0.36619 0.0
H612 H 0.41434 0.60838 0.33478 0.0
H613 H 0.44455 0.52622 0.28684 0.0
C614 C 0.36013 0.4501 0.36246 0.0
C615 C 0.34125 0.4517 0.38825 0.0
C616 C 0.33256 0.48159 0.39971 0.0
C617 C 0.34318 0.50955 0.38599 0.0
C618 C 0.36242 0.50725 0.36078 0.0
C619 C 0.37093 0.47835 0.34905 0.0
C620 C 0.39605 0.48268 0.32271 0.0
C621 C 0.44578 0.46633 0.32244 0.0
C622 C 0.36366 0.47067 0.30027 0.0
C623 C 0.40153 0.51843 0.32186 0.0
C624 C 0.38117 0.53206 0.3439 0.0
C625 C 0.3846 0.56442 0.34869 0.0
C626 C 0.41051 0.5833 0.33083 0.0
C627 C 0.43259 0.56981 0.30847 0.0
C628 C 0.42713 0.53709 0.30358 0.0
H629 H 0.18743 0.04377 0.87994 0.0
H630 H 0.11178 0.12577 0.85015 0.0
H631 H 0.06778 0.09173 0.81844 0.0
H632 H 0.20076 1.00515 0.81552 0.0
H633 H 0.1928 0.96585 0.82881 0.0
H634 H 0.2195 0.99666 0.84863 0.0
H635 H 0.15435 0.98696 0.88457 0.0
H636 H 0.12753 0.95603 0.86501 0.0
H637 H 0.09093 0.98861 0.87599 0.0
H638 H 0.0266 0.04812 0.79319 0.0
H639 H 0.99572 0.99837 0.77353 0.0
H640 H 0.10282 0.94513 0.81677 0.0
C641 C 0.16183 0.05445 0.86656 0.0
C642 C 0.15263 0.08726 0.86742 0.0
C643 C 0.11922 0.10065 0.84962 0.0
C644 C 0.09415 0.08152 0.83162 0.0
C645 C 0.10371 0.04917 0.83134 0.0
C646 C 0.13731 0.03578 0.84804 0.0
C647 C 0.14077 1.00037 0.84368 0.0
C648 C 0.19148 0.99149 0.83355 0.0
C649 C 0.12759 0.98192 0.8688 0.0
C650 C 0.10264 0.99577 0.82261 0.0
C651 C 0.08164 0.02424 0.81581 0.0
C652 C 0.04321 0.02578 0.79811 0.0
C653 C 0.02562 0.99748 0.78723 0.0
C654 C 0.04698 0.96823 0.79373 0.0
C655 C 0.08636 0.96738 0.81134 0.0
H656 H 0.17641 0.16759 0.97107 0.0
H657 H 0.1807 0.06578 0.96003 0.0
H658 H 0.16348 0.05797 1.0072 0.0
H659 H 0.23839 0.16815 0.03209 0.0
H660 H 0.20327 0.20006 0.04555 0.0
H661 H 0.21217 0.19734 1.01064 0.0
H662 H 0.1189 0.19775 1.00384 0.0
H663 H 0.10972 0.20022 0.03879 0.0
H664 H 0.08146 0.16869 0.02041 0.0
H665 H 0.14901 0.06144 0.05644 0.0
H666 H 0.14403 0.07606 0.1034 0.0
H667 H 0.1511 0.17538 0.08188 0.0
C668 C 0.17401 0.14359 0.97848 0.0
C669 C 0.1798 0.11732 0.96162 0.0
C670 C 0.17563 0.08636 0.97232 0.0
C671 C 0.166 0.08165 0.99915 0.0
C672 C 0.16058 0.10812 0.01515 0.0
C673 C 0.16469 0.13848 1.00518 0.0
C674 C 0.15969 0.16297 0.02664 0.0
C675 C 0.20614 0.18332 0.02886 0.0
C676 C 0.11476 0.18362 0.02214 0.0
C677 C 0.153 0.14168 0.05034 0.0
C678 C 0.15297 0.11011 0.04333 0.0
C679 C 0.14867 0.08611 0.0621 0.0
C680 C 0.14551 0.09462 0.08871 0.0
C681 C 0.14716 0.12683 0.09632 0.0
C682 C 0.14993 0.15053 0.07671 0.0
H683 H 0.28179 0.393 0.48927 0.0
H684 H 0.43144 0.39462 0.46293 0.0
H685 H 0.45911 0.39904 0.50904 0.0
H686 H 0.29621 0.45194 0.536 0.0
H687 H 0.25435 0.43516 0.55959 0.0
H688 H 0.24683 0.42688 0.52524 0.0
H689 H 0.24963 0.36666 0.53487 0.0
H690 H 0.25699 0.37476 0.56934 0.0
H691 H 0.30058 0.35059 0.55241 0.0
H692 H 0.46987 0.40745 0.55786 0.0
H693 H 0.46266 0.42312 0.60455 0.0
H694 H 0.30577 0.41881 0.59833 0.0
C695 C 0.32037 0.39334 0.49338 0.0
C696 C 0.35466 0.39286 0.47278 0.0
C697 C 0.40482 0.39455 0.47862 0.0
C698 C 0.42076 0.39697 0.5047 0.0
C699 C 0.386 0.39796 0.52464 0.0
C700 C 0.3368 0.39632 0.51924 0.0
C701 C 0.30676 0.40136 0.54378 0.0
C702 C 0.27414 0.43057 0.54097 0.0
C703 C 0.27672 0.37156 0.5505 0.0
C704 C 0.34661 0.40687 0.56371 0.0
C705 C 0.39211 0.40416 0.55246 0.0
C706 C 0.43442 0.40936 0.56691 0.0
C707 C 0.43005 0.41814 0.59339 0.0
C708 C 0.38372 0.42218 0.60494 0.0
C709 C 0.34165 0.41592 0.58995 0.0
H710 H 0.75525 0.37021 0.05313 0.0
H711 H 0.60412 0.36751 0.0771 0.0
H712 H 0.57937 0.3593 0.03092 0.0
H713 H 0.73529 0.41417 0.99367 0.0
H714 H 0.78127 0.39377 0.97521 0.0
H715 H 0.78714 0.3978 1.01022 0.0
H716 H 0.79439 0.33694 0.0149 0.0
H717 H 0.78857 0.33273 0.97988 0.0
H718 H 0.74754 0.3117 1.0015 0.0
H719 H 0.57139 0.35054 0.98226 0.0
H720 H 0.57999 0.34437 0.93447 0.0
H721 H 0.7362 0.35735 0.94162 0.0
C722 C 0.71703 0.36753 0.0486 0.0
C723 C 0.6815 0.36914 0.06858 0.0
C724 C 0.63177 0.36622 0.06198 0.0
C725 C 0.61744 0.36152 0.03587 0.0
C726 C 0.6533 0.36022 0.01654 0.0
C727 C 0.70205 0.36339 0.02254 0.0
C728 C 0.73307 0.36249 0.99792 0.0
C729 C 0.76082 0.39393 0.99403 0.0
C730 C 0.76795 0.33428 0.9986 0.0
C731 C 0.69421 0.35804 0.9772 0.0
C732 C 0.64851 0.35659 0.98837 0.0
C733 C 0.60699 0.35198 0.97325 0.0
C734 C 0.61228 0.34879 0.94599 0.0
C735 C 0.65875 0.35062 0.93391 0.0
C736 C 0.70013 0.35541 0.94998 0.0
H737 H 0.77873 0.15386 0.54034 0.0
H738 H 0.90921 0.10759 0.56837 0.0
H739 H 0.94235 0.10851 0.52347 0.0
H740 H 0.77315 0.11906 0.47578 0.0
H741 H 0.75469 0.15535 0.46023 0.0
H742 H 0.73858 0.1477 0.49396 0.0
H743 H 0.77947 0.20053 0.50783 0.0
H744 H 0.79545 0.20843 0.47416 0.0
H745 H 0.84196 0.20808 0.49898 0.0
H746 H 0.9629 0.11628 0.47517 0.0
H747 H 0.97133 0.13428 0.42895 0.0
H748 H 0.83173 0.18023 0.43408 0.0
C749 C 0.81445 0.14403 0.53735 0.0
C750 C 0.84088 0.13043 0.55833 0.0
C751 C 0.88723 0.11744 0.55286 0.0
C752 C 0.90669 0.11805 0.52732 0.0
C753 C 0.87982 0.13206 0.50735 0.0
C754 C 0.8349 0.14511 0.51217 0.0
C755 C 0.81488 0.161 0.48786 0.0
C756 C 0.76752 0.1448 0.47894 0.0
C757 C 0.80753 0.19662 0.49249 0.0
C758 C 0.85576 0.15515 0.46859 0.0
C759 C 0.89257 0.1379 0.48004 0.0
C760 C 0.93426 0.12975 0.46604 0.0
C761 C 0.93872 0.13993 0.43985 0.0
C762 C 0.90209 0.15842 0.42815 0.0
C763 C 0.86004 0.16592 0.44265 0.0
H764 H 0.85176 0.8458 0.05905 0.0
H765 H 0.80437 0.94352 0.05751 0.0
H766 H 0.81671 0.94514 1.0096 0.0
H767 H 0.94413 0.85349 1.00931 0.0
H768 H 0.93186 0.8153 0.99499 0.0
H769 H 0.92001 0.82177 0.02933 0.0
H770 H 0.83067 0.80356 0.02306 0.0
H771 H 0.84233 0.79684 0.98875 0.0
H772 H 0.79384 0.82265 0.9986 0.0
H773 H 0.83362 0.93623 0.96185 0.0
H774 H 0.85038 0.91654 0.91723 0.0
H775 H 0.8868 0.82463 0.94958 0.0
C776 C 0.84359 0.86746 0.04862 0.0
C777 C 0.82746 0.89462 0.06213 0.0
C778 C 0.81759 0.92257 0.04771 0.0
C779 C 0.8243 0.92371 0.02045 0.0
C780 C 0.84077 0.89667 1.00781 0.0
C781 C 0.85005 0.86901 0.02135 0.0
C782 C 0.86684 0.84319 1.00293 0.0
C783 C 0.9188 0.83284 1.00954 0.0
C784 C 0.83129 0.81489 1.00336 0.0
C785 C 0.86519 0.86062 0.97692 0.0
C786 C 0.85033 0.89149 0.9802 0.0
C787 C 0.84551 0.91213 0.95903 0.0
C788 C 0.8555 0.90079 0.93376 0.0
C789 C 0.87009 0.86906 0.92983 0.0
C790 C 0.87539 0.84892 0.95185 0.0
H791 H 0.72117 0.5713 0.54828 0.0
H792 H 0.66727 0.66686 0.55693 0.0
H793 H 0.65483 0.67021 0.50901 0.0
H794 H 0.7874 0.58527 0.48966 0.0
H795 H 0.77373 0.54737 0.47514 0.0
H796 H 0.77514 0.55139 0.51029 0.0
H797 H 0.68737 0.52909 0.51355 0.0
H798 H 0.68583 0.5247 0.47841 0.0
H799 H 0.63975 0.54738 0.49482 0.0
H800 H 0.65126 0.66408 0.46021 0.0
H801 H 0.65602 0.64876 0.41359 0.0
H802 H 0.7132 0.55729 0.43615 0.0
C803 C 0.70586 0.59267 0.5401 0.0
C804 C 0.69494 0.6188 0.5563 0.0
C805 C 0.67598 0.64663 0.54484 0.0
C806 C 0.66871 0.64872 0.51767 0.0
C807 C 0.68071 0.6228 0.50218 0.0
C808 C 0.69875 0.59525 0.51294 0.0
C809 C 0.71054 0.57136 0.49173 0.0
C810 C 0.76494 0.56339 0.49171 0.0
C811 C 0.67898 0.54136 0.49481 0.0
C812 C 0.69673 0.58989 0.46738 0.0
C813 C 0.67932 0.61942 0.47391 0.0
C814 C 0.66453 0.64094 0.45486 0.0
C815 C 0.66725 0.63198 0.42843 0.0
C816 C 0.68481 0.6018 0.42119 0.0
C817 C 0.69996 0.5806 0.44103 0.0
H818 H 0.33057 0.59773 0.97093 0.0
H819 H 0.34355 0.6998 0.96336 0.0
H820 H 0.35643 0.70408 1.0112 0.0
H821 H 0.26707 0.59679 0.03239 0.0
H822 H 0.29806 0.56238 0.04457 0.0
H823 H 0.28965 0.56758 1.00981 0.0
H824 H 0.38248 0.56268 1.00252 0.0
H825 H 0.39119 0.55759 0.03729 0.0
H826 H 0.42333 0.58864 0.02 0.0
H827 H 0.36871 0.69696 0.06017 0.0
H828 H 0.37499 0.67927 0.1063 0.0
H829 H 0.3564 0.58179 0.0813 0.0
C830 C 0.33639 0.621 0.97927 0.0
C831 C 0.33601 0.64844 0.96331 0.0
C832 C 0.34303 0.67846 0.97517 0.0
C833 C 0.35079 0.68111 1.00231 0.0
C834 C 0.35145 0.65353 0.01738 0.0
C835 C 0.34422 0.62407 1.00628 0.0
C836 C 0.34611 0.59811 0.02679 0.0
C837 C 0.29732 0.58017 0.02849 0.0
C838 C 0.38829 0.57542 0.02132 0.0
C839 C 0.3553 0.61756 0.05122 0.0
C840 C 0.35853 0.64946 0.04541 0.0
C841 C 0.3664 0.67201 0.06491 0.0
C842 C 0.3703 0.66171 0.09106 0.0
C843 C 0.36619 0.62913 0.09751 0.0
C844 C 0.35921 0.60689 0.07713 0.0
H845 H 0.24008 0.93147 0.48016 0.0
H846 H 0.18767 0.83731 0.4607 0.0
H847 H 0.17107 0.82684 0.50768 0.0
H848 H 0.29993 0.90985 0.53997 0.0
H849 H 0.28401 0.94575 0.55683 0.0
H850 H 0.29096 0.9459 0.52169 0.0
H851 H 0.204 0.96805 0.51664 0.0
H852 H 0.19682 0.96803 0.55178 0.0
H853 H 0.15356 0.9472 0.53155 0.0
H854 H 0.15856 0.82724 0.55686 0.0
H855 H 0.15478 0.83757 0.60461 0.0
H856 H 0.21716 0.931 0.59181 0.0
C857 C 0.22482 0.90872 0.48578 0.0
C858 C 0.21504 0.88521 0.4668 0.0
C859 C 0.19577 0.85556 0.47496 0.0
C860 C 0.18601 0.84947 0.50156 0.0
C861 C 0.19606 0.87319 0.51977 0.0
C862 C 0.21529 0.90216 0.51224 0.0
C863 C 0.22364 0.92343 0.53571 0.0
C864 C 0.27786 0.93171 0.53872 0.0
C865 C 0.19265 0.95345 0.5338 0.0
C866 C 0.20608 0.90194 0.55764 0.0
C867 C 0.18998 0.87314 0.54805 0.0
C868 C 0.17123 0.84966 0.56459 0.0
C869 C 0.16906 0.85577 0.59164 0.0
C870 C 0.18592 0.88499 0.60189 0.0
C871 C 0.20464 0.90828 0.58457 0.0
H872 H 0.28183 0.26514 0.36332 0.0
H873 H 0.18055 0.34096 0.37881 0.0
H874 H 0.11518 0.31007 0.35762 0.0
H875 H 0.23678 0.24555 0.29939 0.0
H876 H 0.24726 0.20383 0.30404 0.0
H877 H 0.2841 0.2323 0.32112 0.0
H878 H 0.25993 0.20379 0.36471 0.0
H879 H 0.22172 0.17647 0.34696 0.0
H880 H 0.19657 0.19971 0.37321 0.0
H881 H 0.06031 0.27037 0.33533 0.0
H882 H 0.02156 0.22651 0.31082 0.0
H883 H 0.15972 0.17814 0.30717 0.0
C884 C 0.2457 0.27501 0.3625 0.0
C885 C 0.23614 0.30506 0.37331 0.0
C886 C 0.18871 0.31768 0.37125 0.0
C887 C 0.15127 0.30033 0.35918 0.0
C888 C 0.16194 0.27064 0.34892 0.0
C889 C 0.20805 0.25816 0.35032 0.0
C890 C 0.21044 0.22629 0.33687 0.0
C891 C 0.2468 0.22712 0.31397 0.0
C892 C 0.2229 0.20002 0.35662 0.0
C893 C 0.15863 0.22297 0.32728 0.0
C894 C 0.13102 0.24857 0.33485 0.0
C895 C 0.08164 0.25033 0.32914 0.0
C896 C 0.05995 0.22531 0.31529 0.0
C897 C 0.08777 0.19917 0.30691 0.0
C898 C 0.13778 0.1981 0.31295 0.0
H899 H 0.32248 0.19573 0.83548 0.0
H900 H 0.33833 0.22268 0.91698 0.0
H901 H 0.3785 0.27285 0.90326 0.0
H902 H 0.43696 0.2257 0.81363 0.0
H903 H 0.41496 0.2393 0.78233 0.0
H904 H 0.38558 0.20635 0.79852 0.0
H905 H 0.30263 0.23542 0.79688 0.0
H906 H 0.33258 0.2675 0.77989 0.0
H907 H 0.29875 0.27517 0.8095 0.0
H908 H 0.42137 0.31863 0.88043 0.0
H909 H 0.45961 0.35762 0.85033 0.0
H910 H 0.4139 0.30094 0.78375 0.0
C911 C 0.3342 0.21234 0.85037 0.0
C912 C 0.32801 0.20532 0.87729 0.0
C913 C 0.34331 0.22763 0.89628 0.0
C914 C 0.36607 0.25611 0.88866 0.0
C915 C 0.37273 0.26203 0.86195 0.0
C916 C 0.35688 0.24087 0.84309 0.0
C917 C 0.36924 0.25256 0.81573 0.0
C918 C 0.40374 0.22961 0.80174 0.0
C919 C 0.32299 0.258 0.79957 0.0
C920 C 0.39462 0.28353 0.8221 0.0
C921 C 0.39647 0.28855 0.84886 0.0
C922 C 0.41973 0.31506 0.85943 0.0
C923 C 0.44145 0.33704 0.84219 0.0
C924 C 0.43953 0.33246 0.8147 0.0
C925 C 0.41564 0.30533 0.80465 0.0
H926 H 0.73091 0.27052 0.63966 0.0
H927 H 0.70134 0.17886 0.67493 0.0
H928 H 0.64015 0.20315 0.70413 0.0
H929 H 0.72189 0.31483 0.69938 0.0
H930 H 0.69431 0.34869 0.68413 0.0
H931 H 0.73419 0.32383 0.66539 0.0
H932 H 0.6662 0.31528 0.63087 0.0
H933 H 0.62614 0.34003 0.64965 0.0
H934 H 0.60774 0.30026 0.64131 0.0
H935 H 0.58456 0.23773 0.73048 0.0
H936 H 0.53937 0.2804 0.75271 0.0
H937 H 0.60458 0.3496 0.70016 0.0
C938 C 0.71098 0.25554 0.65328 0.0
C939 C 0.71982 0.22267 0.65464 0.0
C940 C 0.69418 0.20394 0.67323 0.0
C941 C 0.65954 0.21755 0.68989 0.0
C942 C 0.65131 0.24998 0.68788 0.0
C943 C 0.67639 0.26878 0.67011 0.0
C944 C 0.66202 0.30321 0.67264 0.0
C945 C 0.70571 0.32384 0.68087 0.0
C946 C 0.63916 0.3154 0.64709 0.0
C947 C 0.62474 0.30082 0.69447 0.0
C948 C 0.61923 0.26991 0.70305 0.0
C949 C 0.58833 0.26195 0.72379 0.0
C950 C 0.56287 0.28627 0.73628 0.0
C951 C 0.56845 0.31807 0.72797 0.0
C952 C 0.59918 0.32535 0.70656 0.0
H953 H 0.8162 0.31923 0.19747 0.0
H954 H 0.89257 0.31908 0.12296 0.0
H955 H 0.94465 0.27573 0.13875 0.0
H956 H 0.91925 0.30439 0.23814 0.0
H957 H 0.88734 0.27865 0.26071 0.0
H958 H 0.85499 0.30918 0.24352 0.0
H959 H 0.79478 0.26729 0.22519 0.0
H960 H 0.82673 0.23666 0.24251 0.0
H961 H 0.81793 0.23366 0.20758 0.0
H962 H 0.99028 0.23435 0.16296 0.0
H963 H 0.02338 0.19431 0.19273 0.0
H964 H 0.91656 0.21984 0.25186 0.0
C965 C 0.84369 0.30978 0.18451 0.0
C966 C 0.85061 0.32243 0.15905 0.0
C967 C 0.88684 0.30969 0.14252 0.0
C968 C 0.91659 0.28515 0.15135 0.0
C969 C 0.90943 0.27352 0.17669 0.0
C970 C 0.8736 0.28513 0.19298 0.0
C971 C 0.87364 0.26824 0.2193 0.0
C972 C 0.88446 0.29151 0.24174 0.0
C973 C 0.8254 0.2504 0.2239 0.0
C974 C 0.91526 0.24549 0.21527 0.0
C975 C 0.93545 0.24912 0.19059 0.0
C976 C 0.97463 0.23115 0.18229 0.0
C977 C 0.99327 0.20846 0.1995 0.0
C978 C 0.97261 0.20367 0.22477 0.0
C979 C 0.93326 0.22276 0.23274 0.0
H980 H 0.77204 0.7575 0.64046 0.0
H981 H 0.82039 0.6716 0.67866 0.0
H982 H 0.88289 0.70237 0.70259 0.0
H983 H 0.8919 0.79542 0.63394 0.0
H984 H 0.86932 0.83443 0.64089 0.0
H985 H 0.83042 0.80548 0.62545 0.0
H986 H 0.76704 0.8134 0.66196 0.0
H987 H 0.80563 0.84154 0.67854 0.0
H988 H 0.78358 0.80689 0.69565 0.0
H989 H 0.93853 0.74195 0.7228 0.0
H990 H 0.98073 0.78874 0.74082 0.0
H991 H 0.89558 0.84997 0.69079 0.0
C992 C 0.7963 0.74519 0.6536 0.0
C993 C 0.79231 0.71206 0.65731 0.0
C994 C 0.82367 0.69684 0.67519 0.0
C995 C 0.85917 0.71411 0.68883 0.0
C996 C 0.86258 0.74664 0.68451 0.0
C997 C 0.83191 0.76214 0.66746 0.0
C998 C 0.84191 0.79756 0.66745 0.0
C999 C 0.85943 0.80888 0.64032 0.0
C1000 C 0.79689 0.81595 0.67645 0.0
C1001 C 0.88248 0.79956 0.68748 0.0
C1002 C 0.89412 0.7698 0.69677 0.0
C1003 C 0.92984 0.76535 0.71563 0.0
C1004 C 0.95357 0.79204 0.72574 0.0
C1005 C 0.9413 0.82283 0.71717 0.0
C1006 C 0.906 0.82662 0.69739 0.0
H1007 H 0.6425 0.83185 0.17792 0.0
H1008 H 0.76791 0.78382 0.14592 0.0
H1009 H 0.74012 0.73387 0.16658 0.0
H1010 H 0.63641 0.78865 0.24014 0.0
H1011 H 0.57098 0.78739 0.24055 0.0
H1012 H 0.6024 0.81976 0.22461 0.0
H1013 H 0.55551 0.80781 0.1816 0.0
H1014 H 0.5244 0.77525 0.19741 0.0
H1015 H 0.55822 0.76871 0.16761 0.0
H1016 H 0.69886 0.68926 0.19052 0.0
H1017 H 0.64514 0.65228 0.21466 0.0
H1018 H 0.54434 0.72843 0.22989 0.0
C1019 C 0.66444 0.81088 0.17565 0.0
C1020 C 0.7082 0.81194 0.16106 0.0
C1021 C 0.73509 0.7838 0.15767 0.0
C1022 C 0.71948 0.7553 0.16924 0.0
C1023 C 0.67647 0.75518 0.18375 0.0
C1024 C 0.64918 0.78217 0.18692 0.0
C1025 C 0.60334 0.77528 0.20261 0.0
C1026 C 0.60331 0.79388 0.22851 0.0
C1027 C 0.55767 0.78217 0.18633 0.0
C1028 C 0.60888 0.74013 0.20753 0.0
C1029 C 0.65161 0.72912 0.1967 0.0
C1030 C 0.66526 0.69761 0.199 0.0
C1031 C 0.63454 0.67681 0.21277 0.0
C1032 C 0.59056 0.68753 0.22402 0.0
C1033 C 0.57745 0.71957 0.22119 0.0
H1034 H 0.30242 0.81997 0.31901 0.0
H1035 H 0.289 0.78474 0.39868 0.0
H1036 H 0.34465 0.74085 0.38801 0.0
H1037 H 0.30411 0.74424 0.28763 0.0
H1038 H 0.34806 0.75544 0.26295 0.0
H1039 H 0.30856 0.78481 0.27678 0.0
H1040 H 0.38297 0.81883 0.29037 0.0
H1041 H 0.4229 0.78981 0.27637 0.0
H1042 H 0.42991 0.80141 0.31017 0.0
H1043 H 0.39911 0.7004 0.36854 0.0
H1044 H 0.44942 0.66527 0.34163 0.0
H1045 H 0.4296 0.72707 0.27436 0.0
C1046 C 0.31133 0.80297 0.33414 0.0
C1047 C 0.29126 0.80534 0.35961 0.0
C1048 C 0.30386 0.78296 0.37904 0.0
C1049 C 0.33541 0.75811 0.37316 0.0
C1050 C 0.3542 0.75617 0.3478 0.0
C1051 C 0.34279 0.77798 0.32858 0.0
C1052 C 0.36749 0.77009 0.3028 0.0
C1053 C 0.32981 0.76324 0.28127 0.0
C1054 C 0.40292 0.79662 0.29444 0.0
C1055 C 0.39437 0.74037 0.31051 0.0
C1056 C 0.38614 0.73284 0.33656 0.0
C1057 C 0.406 0.70611 0.34814 0.0
C1058 C 0.43466 0.68633 0.33265 0.0
C1059 C 0.44326 0.69328 0.30579 0.0
C1060 C 0.42335 0.72098 0.29475 0.0
H1061 H 0.15696 0.73117 0.88472 0.0
H1062 H 0.25005 0.69319 0.82398 0.0
H1063 H 0.2212 0.73423 0.79305 0.0
H1064 H 0.05639 0.74882 0.84301 0.0
H1065 H 0.04053 0.78475 0.85981 0.0
H1066 H 0.06989 0.75329 0.87741 0.0
H1067 H 0.13824 0.79218 0.89166 0.0
H1068 H 0.109 0.82373 0.87407 0.0
H1069 H 0.17137 0.81425 0.86702 0.0
H1070 H 0.17981 0.77779 0.76842 0.0
H1071 H 0.12882 0.82072 0.75145 0.0
H1072 H 0.06325 0.83129 0.82856 0.0
C1073 C 0.17144 0.7317 0.86495 0.0
C1074 C 0.20582 0.70916 0.85662 0.0
C1075 C 0.22381 0.71038 0.83061 0.0
C1076 C 0.20766 0.73356 0.81299 0.0
C1077 C 0.17354 0.75536 0.82174 0.0
C1078 C 0.15563 0.75468 0.8471 0.0
C1079 C 0.11823 0.78034 0.85127 0.0
C1080 C 0.06832 0.76593 0.85829 0.0
C1081 C 0.13525 0.80403 0.87225 0.0
C1082 C 0.11772 0.79543 0.82427 0.0
C1083 C 0.1499 0.78066 0.80755 0.0
C1084 C 0.15469 0.78965 0.78137 0.0
C1085 C 0.12545 0.81414 0.77192 0.0
C1086 C 0.09174 0.82951 0.78859 0.0
C1087 C 0.08855 0.82017 0.81523 0.0
loop_
_geom_bond_atom_site_label_1
_geom_bond_atom_site_label_2
_geom_bond_distance
_geom_bond_site_symmetry_2
_ccdc_geom_bond_type
H0 C7 0.929 . S
H1 C10 0.930 . S
H2 C12 0.929 . S
H3 C4 0.969 . S
C4 H3 0.969 . S
C4 O5 1.550 . S
C4 H6 0.973 . S
O5 C4 1.550 . S
O5 C11 1.412 . S
H6 C4 0.973 . S
C7 H0 0.929 . S
C7 C8 1.400 . S
C7 C9 1.364 . S
C8 C7 1.400 . S
C8 C12 1.377 . S
C9 C7 1.364 . S
C9 C10 1.374 . S
C10 H1 0.930 . S
C10 C9 1.374 . S
C10 C11 1.383 . S
C11 O5 1.412 . S
C11 C10 1.383 . S
C11 C12 1.394 . S
C12 H2 0.929 . S
C12 C8 1.377 . S
C12 C11 1.394 . S
H13 C20 0.929 . S
H14 C23 0.930 . S
H15 C25 0.929 . S
H16 C17 0.969 . S
C17 H16 0.969 . S
C17 O18 1.550 . S
C17 H19 0.973 . S
O18 C17 1.550 . S
O18 C24 1.412 . S
H19 C17 0.973 . S
C20 H13 0.929 . S
C20 C21 1.400 . S
C20 C22 1.364 . S
C21 C20 1.400 . S
C21 C25 1.377 . S
C22 C20 1.364 . S
C22 C23 1.374 . S
C23 H14 0.930 . S
C23 C22 1.374 . S
C23 C24 1.383 . S
C24 O18 1.412 . S
C24 C23 1.383 . S
C24 C25 1.394 . S
C25 H15 0.929 . S
C25 C21 1.377 . S
C25 C24 1.394 . S
H26 C33 0.929 . S
H27 C36 0.930 . S
H28 C38 0.929 . S
H29 C30 0.969 . S
C30 H29 0.969 . S
C30 O31 1.550 . S
C30 H32 0.973 . S
O31 C30 1.550 . S
O31 C37 1.412 . S
H32 C30 0.973 . S
C33 H26 0.929 . S
C33 C34 1.400 . S
C33 C35 1.364 . S
C34 C33 1.400 . S
C34 C38 1.377 . S
C35 C33 1.364 . S
C35 C36 1.374 . S
C36 H27 0.930 . S
C36 C35 1.374 . S
C36 C37 1.383 . S
C37 O31 1.412 . S
C37 C36 1.383 . S
C37 C38 1.394 . S
C38 H28 0.929 . S
C38 C34 1.377 . S
C38 C37 1.394 . S
H39 C46 0.929 . S
H40 C49 0.930 . S
H41 C51 0.929 . S
H42 C43 0.969 . S
C43 H42 0.969 . S
C43 O44 1.550 . S
C43 H45 0.973 . S
O44 C43 1.550 . S
O44 C50 1.412 . S
H45 C43 0.973 . S
C46 H39 0.929 . S
C46 C47 1.400 . S
C46 C48 1.364 . S
C47 C46 1.400 . S
C47 C51 1.377 . S
C48 C46 1.364 . S
C48 C49 1.374 . S
C49 H40 0.930 . S
C49 C48 1.374 . S
C49 C50 1.383 . S
C50 O44 1.412 . S
C50 C49 1.383 . S
C50 C51 1.394 . S
C51 H41 0.929 . S
C51 C47 1.377 . S
C51 C50 1.394 . S
H52 C59 0.929 . S
H53 C62 0.930 . S
H54 C64 0.929 . S
H55 C56 0.969 . S
C56 H55 0.969 . S
C56 O57 1.550 . S
C56 H58 0.973 . S
O57 C56 1.550 . S
O57 C63 1.412 . S
H58 C56 0.973 . S
C59 H52 0.929 . S
C59 C60 1.400 . S
C59 C61 1.364 . S
C60 C59 1.400 . S
C60 C64 1.377 . S
C61 C59 1.364 . S
C61 C62 1.374 . S
C62 H53 0.930 . S
C62 C61 1.374 . S
C62 C63 1.383 . S
C63 O57 1.412 . S
C63 C62 1.383 . S
C63 C64 1.394 . S
C64 H54 0.929 . S
C64 C60 1.377 . S
C64 C63 1.394 . S
H65 C72 0.929 . S
H66 C75 0.930 . S
H67 C77 0.929 . S
H68 C69 0.969 . S
C69 H68 0.969 . S
C69 O70 1.550 . S
C69 H71 0.973 . S
O70 C69 1.550 . S
O70 C76 1.412 . S
H71 C69 0.973 . S
C72 H65 0.929 . S
C72 C73 1.400 . S
C72 C74 1.364 . S
C73 C72 1.400 . S
C73 C77 1.377 . S
C74 C72 1.364 . S
C74 C75 1.374 . S
C75 H66 0.930 . S
C75 C74 1.374 . S
C75 C76 1.383 . S
C76 O70 1.412 . S
C76 C75 1.383 . S
C76 C77 1.394 . S
C77 H67 0.929 . S
C77 C73 1.377 . S
C77 C76 1.394 . S
H78 C85 0.929 . S
H79 C88 0.930 . S
H80 C90 0.929 . S
H81 C82 0.969 . S
C82 H81 0.969 . S
C82 O83 1.550 . S
C82 H84 0.973 . S
O83 C82 1.550 . S
O83 C89 1.412 . S
H84 C82 0.973 . S
C85 H78 0.929 . S
C85 C86 1.400 . S
C85 C87 1.364 . S
C86 C85 1.400 . S
C86 C90 1.377 . S
C87 C85 1.364 . S
C87 C88 1.374 . S
C88 H79 0.930 . S
C88 C87 1.374 . S
C88 C89 1.383 . S
C89 O83 1.412 . S
C89 C88 1.383 . S
C89 C90 1.394 . S
C90 H80 0.929 . S
C90 C86 1.377 . S
C90 C89 1.394 . S
H91 C98 0.929 . S
H92 C101 0.930 . S
H93 C103 0.929 . S
H94 C95 0.969 . S
C95 H94 0.969 . S
C95 O96 1.550 . S
C95 H97 0.973 . S
O96 C95 1.550 . S
O96 C102 1.412 . S
H97 C95 0.973 . S
C98 H91 0.929 . S
C98 C99 1.400 . S
C98 C100 1.364 . S
C99 C98 1.400 . S
C99 C103 1.377 . S
C100 C98 1.364 . S
C100 C101 1.374 . S
C101 H92 0.930 . S
C101 C100 1.374 . S
C101 C102 1.383 . S
C102 O96 1.412 . S
C102 C101 1.383 . S
C102 C103 1.394 . S
C103 H93 0.929 . S
C103 C99 1.377 . S
C103 C102 1.394 . S
C104 C106 1.422 . S
C104 C108 1.415 . S
C104 N110 1.369 . S
C105 C106 1.421 . S
C105 C107 1.417 . S
C105 C117 1.422 1_545 S
C106 C104 1.422 . S
C106 C105 1.421 . S
C106 N116 1.359 . S
C107 C105 1.417 . S
C107 C109 1.329 . S
C107 H126 0.930 . S
C108 C104 1.415 . S
C108 C109 1.437 . S
C108 C112 1.413 . S
C109 C107 1.329 . S
C109 C108 1.437 . S
C109 H131 0.929 . S
N110 C104 1.369 . S
N110 C111 1.338 . S
N110 Gd115 2.622 . S
C111 N110 1.338 . S
C111 C113 1.378 . S
C111 H123 0.929 . S
C112 C108 1.413 . S
C112 C113 1.348 . S
C112 H128 0.931 . S
C113 C111 1.378 . S
C113 C112 1.348 . S
C113 H129 0.930 . S
Gd114 N134 2.622 . S
Gd114 N141 2.570 . S
Gd114 O148 2.353 . S
Gd114 O149 2.468 . S
Gd114 O150 2.427 . S
Gd114 O152 2.388 . S
Gd114 O153 2.386 . S
Gd114 O157 2.307 . S
Gd114 C167 2.805 . S
Gd115 N110 2.622 . S
Gd115 N116 2.570 . S
Gd115 O147 2.386 . S
Gd115 O151 2.307 1_655 S
Gd115 O154 2.353 1_655 S
Gd115 O155 2.468 . S
Gd115 O156 2.427 . S
Gd115 O158 2.388 . S
Gd115 C179 2.805 . S
N116 C106 1.359 . S
N116 Gd115 2.570 . S
N116 C118 1.343 . S
C117 C105 1.422 1_565 S
C117 C119 1.320 1_565 S
C117 H125 0.931 . S
C118 N116 1.343 . S
C118 C119 1.399 . S
C118 H120 0.931 . S
C119 C117 1.320 1_545 S
C119 C118 1.399 . S
C119 H121 0.921 1_545 S
H120 C118 0.931 . S
H121 C119 0.921 1_565 S
H122 C145 0.931 . S
H123 C111 0.929 . S
H124 C146 0.930 . S
H125 C117 0.931 . S
H126 C107 0.930 . S
H127 C136 0.929 . S
H128 C112 0.931 . S
H129 C113 0.930 . S
H130 C168 0.930 . S
H131 C109 0.929 . S
H132 C137 0.931 . S
H133 C138 0.930 . S
N134 Gd114 2.622 . S
N134 C135 1.369 . S
N134 C136 1.338 . S
C135 N134 1.369 . S
C135 C139 1.415 . S
C135 C142 1.422 . S
C136 H127 0.929 . S
C136 N134 1.338 . S
C136 C138 1.378 . S
C137 H132 0.931 . S
C137 C138 1.348 . S
C137 C139 1.413 . S
C138 H133 0.930 . S
C138 C136 1.378 . S
C138 C137 1.348 . S
C139 C135 1.415 . S
C139 C137 1.413 . S
C139 C169 1.437 . S
H140 C169 0.929 . S
N141 Gd114 2.570 . S
N141 C142 1.359 . S
N141 C145 1.343 . S
C142 C135 1.422 . S
C142 N141 1.359 . S
C142 C144 1.421 . S
C143 C144 1.422 . S
C143 C146 1.321 . S
C143 H170 0.931 . S
C144 C142 1.421 . S
C144 C143 1.422 . S
C144 C168 1.417 . S
C145 H122 0.931 . S
C145 N141 1.343 . S
C145 C146 1.390 . S
C146 H124 0.930 . S
C146 C143 1.321 . S
C146 C145 1.390 . S
O147 Gd115 2.386 . S
O147 C159 1.265 . S
O148 Gd114 2.353 . S
O148 C159 1.242 1_455 S
O149 Gd114 2.468 . S
O149 C167 1.263 . S
O150 Gd114 2.427 . S
O150 C167 1.252 . S
O151 Gd115 2.307 1_455 S
O151 C160 1.261 . S
O152 Gd114 2.388 . S
O152 C160 1.252 . S
O153 Gd114 2.386 . S
O153 C171 1.265 . S
O154 Gd115 2.353 1_455 S
O154 C171 1.242 . S
O155 Gd115 2.468 . S
O155 C179 1.263 . S
O156 Gd115 2.427 . S
O156 C179 1.252 . S
O157 Gd114 2.307 . S
O157 C172 1.261 1_455 S
O158 Gd115 2.388 . S
O158 C172 1.252 . S
C159 O147 1.265 . S
C159 O148 1.242 1_655 S
C160 O151 1.261 . S
C160 O152 1.252 . S
C161 C164 1.394 . S
C161 C166 1.370 . S
C161 C167 1.500 . S
C162 C165 1.383 . S
C162 C166 1.395 . S
C163 C164 1.396 . S
C163 C165 1.365 . S
C163 H180 0.929 . S
C164 C161 1.394 . S
C164 C163 1.396 . S
C164 H181 0.930 . S
C165 C162 1.383 . S
C165 C163 1.365 . S
C165 H182 0.931 . S
C166 C161 1.370 . S
C166 C162 1.395 . S
C166 H183 0.930 . S
C167 Gd114 2.805 . S
C167 O149 1.263 . S
C167 O150 1.252 . S
C167 C161 1.500 . S
C168 H130 0.930 . S
C168 C144 1.417 . S
C168 C169 1.329 . S
C169 C139 1.437 . S
C169 H140 0.929 . S
C169 C168 1.329 . S
H170 C143 0.931 . S
C171 O153 1.265 . S
C171 O154 1.242 . S
C172 O157 1.261 1_655 S
C172 O158 1.252 . S
C173 C176 1.394 . S
C173 C178 1.370 . S
C173 C179 1.500 . S
C174 C177 1.383 . S
C174 C178 1.395 . S
C175 C176 1.396 . S
C175 C177 1.365 . S
C175 H184 0.929 . S
C176 C173 1.394 . S
C176 C175 1.396 . S
C176 H185 0.930 . S
C177 C174 1.383 . S
C177 C175 1.365 . S
C177 H186 0.931 . S
C178 C173 1.370 . S
C178 C174 1.395 . S
C178 H187 0.930 . S
C179 Gd115 2.805 . S
C179 O155 1.263 . S
C179 O156 1.252 . S
C179 C173 1.500 . S
H180 C163 0.929 . S
H181 C164 0.930 . S
H182 C165 0.931 . S
H183 C166 0.930 . S
H184 C175 0.929 . S
H185 C176 0.930 . S
H186 C177 0.931 . S
H187 C178 0.930 . S
C188 C190 1.422 . S
C188 C192 1.415 . S
C188 N194 1.369 . S
C189 C190 1.421 . S
C189 C191 1.417 . S
C189 C201 1.422 . S
C190 C188 1.422 . S
C190 C189 1.421 . S
C190 N200 1.359 . S
C191 C189 1.417 . S
C191 C193 1.329 . S
C191 H210 0.930 . S
C192 C188 1.415 . S
C192 C193 1.437 . S
C192 C196 1.413 . S
C193 C191 1.329 . S
C193 C192 1.437 . S
C193 H215 0.929 . S
N194 C188 1.369 . S
N194 C195 1.338 . S
N194 Gd199 2.622 . S
C195 N194 1.338 . S
C195 C197 1.378 . S
C195 H207 0.929 . S
C196 C192 1.413 . S
C196 C197 1.348 . S
C196 H212 0.931 . S
C197 C195 1.378 . S
C197 C196 1.348 . S
C197 H213 0.930 . S
Gd198 N218 2.622 . S
Gd198 N225 2.570 . S
Gd198 O232 2.353 . S
Gd198 O233 2.468 . S
Gd198 O234 2.427 . S
Gd198 O236 2.388 . S
Gd198 O237 2.386 . S
Gd198 O241 2.307 . S
Gd198 C251 2.805 . S
Gd199 N194 2.622 . S
Gd199 N200 2.570 . S
Gd199 O231 2.386 . S
Gd199 O235 2.307 . S
Gd199 O238 2.353 . S
Gd199 O239 2.468 . S
Gd199 O240 2.427 . S
Gd199 O242 2.388 . S
Gd199 C263 2.805 . S
N200 C190 1.359 . S
N200 Gd199 2.570 . S
N200 C202 1.343 . S
C201 C189 1.422 . S
C201 C203 1.321 . S
C201 H209 0.931 . S
C202 N200 1.343 . S
C202 C203 1.390 . S
C202 H204 0.931 . S
C203 C201 1.321 . S
C203 C202 1.390 . S
C203 H205 0.930 . S
H204 C202 0.931 . S
H205 C203 0.930 . S
H206 C229 0.931 . S
H207 C195 0.929 . S
H208 C230 0.930 . S
H209 C201 0.931 . S
H210 C191 0.930 . S
H211 C220 0.929 . S
H212 C196 0.931 . S
H213 C197 0.930 . S
H214 C252 0.930 . S
H215 C193 0.929 . S
H216 C221 0.931 . S
H217 C222 0.930 . S
N218 Gd198 2.622 . S
N218 C219 1.369 . S
N218 C220 1.338 . S
C219 N218 1.369 . S
C219 C223 1.415 . S
C219 C226 1.422 . S
C220 H211 0.929 . S
C220 N218 1.338 . S
C220 C222 1.378 . S
C221 H216 0.931 . S
C221 C222 1.348 . S
C221 C223 1.413 . S
C222 H217 0.930 . S
C222 C220 1.378 . S
C222 C221 1.348 . S
C223 C219 1.415 . S
C223 C221 1.413 . S
C223 C253 1.437 . S
H224 C253 0.929 . S
N225 Gd198 2.570 . S
N225 C226 1.359 . S
N225 C229 1.343 . S
C226 C219 1.422 . S
C226 N225 1.359 . S
C226 C228 1.421 . S
C227 C228 1.422 . S
C227 C230 1.321 . S
C227 H254 0.931 . S
C228 C226 1.421 . S
C228 C227 1.422 . S
C228 C252 1.417 . S
C229 H206 0.931 . S
C229 N225 1.343 . S
C229 C230 1.390 . S
C230 H208 0.930 . S
C230 C227 1.321 . S
C230 C229 1.390 . S
O231 Gd199 2.386 . S
O231 C243 1.265 . S
O232 Gd198 2.353 . S
O232 C243 1.242 . S
O233 Gd198 2.468 . S
O233 C251 1.263 . S
O234 Gd198 2.427 . S
O234 C251 1.252 . S
O235 Gd199 2.307 . S
O235 C244 1.261 . S
O236 Gd198 2.388 . S
O236 C244 1.252 . S
O237 Gd198 2.386 . S
O237 C255 1.265 . S
O238 Gd199 2.353 . S
O238 C255 1.242 . S
O239 Gd199 2.468 . S
O239 C263 1.263 . S
O240 Gd199 2.427 . S
O240 C263 1.252 . S
O241 Gd198 2.307 . S
O241 C256 1.261 . S
O242 Gd199 2.388 . S
O242 C256 1.252 . S
C243 O231 1.265 . S
C243 O232 1.242 . S
C244 O235 1.261 . S
C244 O236 1.252 . S
C245 C248 1.394 . S
C245 C250 1.370 . S
C245 C251 1.500 . S
C246 C249 1.383 . S
C246 C250 1.395 . S
C247 C248 1.396 . S
C247 C249 1.365 . S
C247 H264 0.929 . S
C248 C245 1.394 . S
C248 C247 1.396 . S
C248 H265 0.930 . S
C249 C246 1.383 . S
C249 C247 1.365 . S
C249 H266 0.931 . S
C250 C245 1.370 . S
C250 C246 1.395 . S
C250 H267 0.930 . S
C251 Gd198 2.805 . S
C251 O233 1.263 . S
C251 O234 1.252 . S
C251 C245 1.500 . S
C252 H214 0.930 . S
C252 C228 1.417 . S
C252 C253 1.329 . S
C253 C223 1.437 . S
C253 H224 0.929 . S
C253 C252 1.329 . S
H254 C227 0.931 . S
C255 O237 1.265 . S
C255 O238 1.242 . S
C256 O241 1.261 . S
C256 O242 1.252 . S
C257 C260 1.394 . S
C257 C262 1.370 . S
C257 C263 1.500 . S
C258 C261 1.383 . S
C258 C262 1.395 . S
C259 C260 1.396 . S
C259 C261 1.365 . S
C259 H268 0.929 . S
C260 C257 1.394 . S
C260 C259 1.396 . S
C260 H269 0.930 . S
C261 C258 1.383 . S
C261 C259 1.365 . S
C261 H270 0.931 . S
C262 C257 1.370 . S
C262 C258 1.395 . S
C262 H271 0.930 . S
C263 Gd199 2.805 . S
C263 O239 1.263 . S
C263 O240 1.252 . S
C263 C257 1.500 . S
H264 C247 0.929 . S
H265 C248 0.930 . S
H266 C249 0.931 . S
H267 C250 0.930 . S
H268 C259 0.929 . S
H269 C260 0.930 . S
H270 C261 0.931 . S
H271 C262 0.930 . S
C272 C274 1.422 . S
C272 C276 1.415 . S
C272 N278 1.369 . S
C273 C274 1.421 . S
C273 C275 1.417 . S
C273 C285 1.422 . S
C274 C272 1.422 . S
C274 C273 1.421 . S
C274 N284 1.359 . S
C275 C273 1.417 . S
C275 C277 1.329 . S
C275 H294 0.930 . S
C276 C272 1.415 . S
C276 C277 1.437 . S
C276 C280 1.413 . S
C277 C275 1.329 . S
C277 C276 1.437 . S
C277 H299 0.929 . S
N278 C272 1.369 . S
N278 C279 1.338 . S
N278 Gd283 2.622 . S
C279 N278 1.338 . S
C279 C281 1.378 . S
C279 H291 0.929 . S
C280 C276 1.413 . S
C280 C281 1.348 . S
C280 H296 0.931 . S
C281 C279 1.378 . S
C281 C280 1.348 . S
C281 H297 0.930 . S
Gd282 N302 2.622 . S
Gd282 N309 2.570 . S
Gd282 O316 2.353 . S
Gd282 O317 2.468 . S
Gd282 O318 2.427 . S
Gd282 O320 2.388 . S
Gd282 O321 2.386 . S
Gd282 O325 2.307 . S
Gd282 C335 2.805 . S
Gd283 N278 2.622 . S
Gd283 N284 2.570 . S
Gd283 O315 2.386 . S
Gd283 O319 2.307 1_655 S
Gd283 O322 2.353 1_655 S
Gd283 O323 2.468 . S
Gd283 O324 2.427 . S
Gd283 O326 2.388 . S
Gd283 C347 2.805 . S
N284 C274 1.359 . S
N284 Gd283 2.570 . S
N284 C286 1.343 . S
C285 C273 1.422 . S
C285 C287 1.321 . S
C285 H293 0.931 . S
C286 N284 1.343 . S
C286 C287 1.390 . S
C286 H288 0.931 . S
C287 C285 1.321 . S
C287 C286 1.390 . S
C287 H289 0.930 . S
H288 C286 0.931 . S
H289 C287 0.930 . S
H290 C313 0.931 . S
H291 C279 0.929 . S
H292 C314 0.922 1_545 S
H293 C285 0.931 . S
H294 C275 0.930 . S
H295 C304 0.929 . S
H296 C280 0.931 . S
H297 C281 0.930 . S
H298 C336 0.930 . S
H299 C277 0.929 . S
H300 C305 0.931 . S
H301 C306 0.930 . S
N302 Gd282 2.622 . S
N302 C303 1.369 . S
N302 C304 1.338 . S
C303 N302 1.369 . S
C303 C307 1.415 . S
C303 C310 1.422 . S
C304 H295 0.929 . S
C304 N302 1.338 . S
C304 C306 1.378 . S
C305 H300 0.931 . S
C305 C306 1.348 . S
C305 C307 1.413 . S
C306 H301 0.930 . S
C306 C304 1.378 . S
C306 C305 1.348 . S
C307 C303 1.415 . S
C307 C305 1.413 . S
C307 C337 1.437 . S
H308 C337 0.929 . S
N309 Gd282 2.570 . S
N309 C310 1.359 . S
N309 C313 1.343 . S
C310 C303 1.422 . S
C310 N309 1.359 . S
C310 C312 1.421 . S
C311 C312 1.422 1_545 S
C311 C314 1.320 1_545 S
C311 H338 0.931 . S
C312 C310 1.421 . S
C312 C311 1.422 1_565 S
C312 C336 1.417 . S
C313 H290 0.931 . S
C313 N309 1.343 . S
C313 C314 1.398 . S
C314 H292 0.922 1_565 S
C314 C311 1.320 1_565 S
C314 C313 1.398 . S
O315 Gd283 2.386 . S
O315 C327 1.265 . S
O316 Gd282 2.353 . S
O316 C327 1.242 1_455 S
O317 Gd282 2.468 . S
O317 C335 1.263 . S
O318 Gd282 2.427 . S
O318 C335 1.252 . S
O319 Gd283 2.307 1_455 S
O319 C328 1.261 . S
O320 Gd282 2.388 . S
O320 C328 1.252 . S
O321 Gd282 2.386 . S
O321 C339 1.265 . S
O322 Gd283 2.353 1_455 S
O322 C339 1.242 . S
O323 Gd283 2.468 . S
O323 C347 1.263 . S
O324 Gd283 2.427 . S
O324 C347 1.252 . S
O325 Gd282 2.307 . S
O325 C340 1.261 1_455 S
O326 Gd283 2.388 . S
O326 C340 1.252 . S
C327 O315 1.265 . S
C327 O316 1.242 1_655 S
C328 O319 1.261 . S
C328 O320 1.252 . S
C329 C332 1.394 . S
C329 C334 1.370 . S
C329 C335 1.500 . S
C330 C333 1.383 . S
C330 C334 1.395 . S
C331 C332 1.396 . S
C331 C333 1.365 . S
C331 H348 0.929 . S
C332 C329 1.394 . S
C332 C331 1.396 . S
C332 H349 0.930 . S
C333 C330 1.383 . S
C333 C331 1.365 . S
C333 H350 0.931 . S
C334 C329 1.370 . S
C334 C330 1.395 . S
C334 H351 0.930 . S
C335 Gd282 2.805 . S
C335 O317 1.263 . S
C335 O318 1.252 . S
C335 C329 1.500 . S
C336 H298 0.930 . S
C336 C312 1.417 . S
C336 C337 1.329 . S
C337 C307 1.437 . S
C337 H308 0.929 . S
C337 C336 1.329 . S
H338 C311 0.931 . S
C339 O321 1.265 . S
C339 O322 1.242 . S
C340 O325 1.261 1_655 S
C340 O326 1.252 . S
C341 C344 1.394 . S
C341 C346 1.370 . S
C341 C347 1.500 . S
C342 C345 1.383 . S
C342 C346 1.395 . S
C343 C344 1.396 . S
C343 C345 1.365 . S
C343 H352 0.929 . S
C344 C341 1.394 . S
C344 C343 1.396 . S
C344 H353 0.930 . S
C345 C342 1.383 . S
C345 C343 1.365 . S
C345 H354 0.931 . S
C346 C341 1.370 . S
C346 C342 1.395 . S
C346 H355 0.930 . S
C347 Gd283 2.805 . S
C347 O323 1.263 . S
C347 O324 1.252 . S
C347 C341 1.500 . S
H348 C331 0.929 . S
H349 C332 0.930 . S
H350 C333 0.931 . S
H351 C334 0.930 . S
H352 C343 0.929 . S
H353 C344 0.930 . S
H354 C345 0.931 . S
H355 C346 0.930 . S
C356 C358 1.422 . S
C356 C360 1.415 . S
C356 N362 1.369 . S
C357 C358 1.421 . S
C357 C359 1.417 . S
C357 C369 1.422 . S
C358 C356 1.422 . S
C358 C357 1.421 . S
C358 N368 1.359 . S
C359 C357 1.417 . S
C359 C361 1.329 . S
C359 H378 0.930 . S
C360 C356 1.415 . S
C360 C361 1.437 . S
C360 C364 1.413 . S
C361 C359 1.329 . S
C361 C360 1.437 . S
C361 H383 0.929 . S
N362 C356 1.369 . S
N362 C363 1.338 . S
N362 Gd367 2.622 . S
C363 N362 1.338 . S
C363 C365 1.378 . S
C363 H375 0.929 . S
C364 C360 1.413 . S
C364 C365 1.348 . S
C364 H380 0.931 . S
C365 C363 1.378 . S
C365 C364 1.348 . S
C365 H381 0.930 . S
Gd366 N386 2.622 . S
Gd366 N393 2.570 . S
Gd366 O400 2.353 . S
Gd366 O401 2.468 . S
Gd366 O402 2.427 . S
Gd366 O404 2.388 . S
Gd366 O405 2.386 . S
Gd366 O409 2.307 . S
Gd366 C419 2.805 . S
Gd367 N362 2.622 . S
Gd367 N368 2.570 . S
Gd367 O399 2.386 . S
Gd367 O403 2.307 . S
Gd367 O406 2.353 . S
Gd367 O407 2.468 . S
Gd367 O408 2.427 . S
Gd367 O410 2.388 . S
Gd367 C431 2.805 . S
N368 C358 1.359 . S
N368 Gd367 2.570 . S
N368 C370 1.343 . S
C369 C357 1.422 . S
C369 C371 1.321 . S
C369 H377 0.931 . S
C370 N368 1.343 . S
C370 C371 1.390 . S
C370 H372 0.931 . S
C371 C369 1.321 . S
C371 C370 1.390 . S
C371 H373 0.930 . S
H372 C370 0.931 . S
H373 C371 0.930 . S
H374 C397 0.931 . S
H375 C363 0.929 . S
H376 C398 0.930 . S
H377 C369 0.931 . S
H378 C359 0.930 . S
H379 C388 0.929 . S
H380 C364 0.931 . S
H381 C365 0.930 . S
H382 C420 0.930 . S
H383 C361 0.929 . S
H384 C389 0.931 . S
H385 C390 0.930 . S
N386 Gd366 2.622 . S
N386 C387 1.369 . S
N386 C388 1.338 . S
C387 N386 1.369 . S
C387 C391 1.415 . S
C387 C394 1.422 . S
C388 H379 0.929 . S
C388 N386 1.338 . S
C388 C390 1.378 . S
C389 H384 0.931 . S
C389 C390 1.348 . S
C389 C391 1.413 . S
C390 H385 0.930 . S
C390 C388 1.378 . S
C390 C389 1.348 . S
C391 C387 1.415 . S
C391 C389 1.413 . S
C391 C421 1.437 . S
H392 C421 0.929 . S
N393 Gd366 2.570 . S
N393 C394 1.359 . S
N393 C397 1.343 . S
C394 C387 1.422 . S
C394 N393 1.359 . S
C394 C396 1.421 . S
C395 C396 1.422 . S
C395 C398 1.321 . S
C395 H422 0.931 . S
C396 C394 1.421 . S
C396 C395 1.422 . S
C396 C420 1.417 . S
C397 H374 0.931 . S
C397 N393 1.343 . S
C397 C398 1.390 . S
C398 H376 0.930 . S
C398 C395 1.321 . S
C398 C397 1.390 . S
O399 Gd367 2.386 . S
O399 C411 1.265 . S
O400 Gd366 2.353 . S
O400 C411 1.242 . S
O401 Gd366 2.468 . S
O401 C419 1.263 . S
O402 Gd366 2.427 . S
O402 C419 1.252 . S
O403 Gd367 2.307 . S
O403 C412 1.261 . S
O404 Gd366 2.388 . S
O404 C412 1.252 . S
O405 Gd366 2.386 . S
O405 C423 1.265 . S
O406 Gd367 2.353 . S
O406 C423 1.242 . S
O407 Gd367 2.468 . S
O407 C431 1.263 . S
O408 Gd367 2.427 . S
O408 C431 1.252 . S
O409 Gd366 2.307 . S
O409 C424 1.261 . S
O410 Gd367 2.388 . S
O410 C424 1.252 . S
C411 O399 1.265 . S
C411 O400 1.242 . S
C412 O403 1.261 . S
C412 O404 1.252 . S
C413 C416 1.394 . S
C413 C418 1.370 . S
C413 C419 1.500 . S
C414 C417 1.383 . S
C414 C418 1.395 . S
C415 C416 1.396 . S
C415 C417 1.365 . S
C415 H432 0.929 . S
C416 C413 1.394 . S
C416 C415 1.396 . S
C416 H433 0.930 . S
C417 C414 1.383 . S
C417 C415 1.365 . S
C417 H434 0.931 . S
C418 C413 1.370 . S
C418 C414 1.395 . S
C418 H435 0.930 . S
C419 Gd366 2.805 . S
C419 O401 1.263 . S
C419 O402 1.252 . S
C419 C413 1.500 . S
C420 H382 0.930 . S
C420 C396 1.417 . S
C420 C421 1.329 . S
C421 C391 1.437 . S
C421 H392 0.929 . S
C421 C420 1.329 . S
H422 C395 0.931 . S
C423 O405 1.265 . S
C423 O406 1.242 . S
C424 O409 1.261 . S
C424 O410 1.252 . S
C425 C428 1.394 . S
C425 C430 1.370 . S
C425 C431 1.500 . S
C426 C429 1.383 . S
C426 C430 1.395 . S
C427 C428 1.396 . S
C427 C429 1.365 . S
C427 H436 0.929 . S
C428 C425 1.394 . S
C428 C427 1.396 . S
C428 H437 0.930 . S
C429 C426 1.383 . S
C429 C427 1.365 . S
C429 H438 0.931 . S
C430 C425 1.370 . S
C430 C426 1.395 . S
C430 H439 0.930 . S
C431 Gd367 2.805 . S
C431 O407 1.263 . S
C431 O408 1.252 . S
C431 C425 1.500 . S
H432 C415 0.929 . S
H433 C416 0.930 . S
H434 C417 0.931 . S
H435 C418 0.930 . S
H436 C427 0.929 . S
H437 C428 0.930 . S
H438 C429 0.931 . S
H439 C430 0.930 . S
H440 C452 0.930 . S
H441 C454 0.930 . S
H442 C455 0.930 1_545 S
H443 C459 0.959 . S
H444 C459 0.959 . S
H445 C459 0.961 . S
H446 C460 0.960 . S
H447 C460 0.961 . S
H448 C460 0.959 . S
H449 C463 0.929 . S
H450 C464 0.931 . S
H451 C466 0.930 1_565 S
C452 H440 0.930 . S
C452 C453 1.399 . S
C452 C457 1.399 . S
C453 C452 1.399 . S
C453 C454 1.376 . S
C454 H441 0.930 . S
C454 C453 1.376 . S
C454 C455 1.388 . S
C455 H442 0.930 1_565 S
C455 C454 1.388 . S
C455 C456 1.390 . S
C456 C455 1.390 . S
C456 C457 1.394 . S
C456 C462 1.465 1_565 S
C457 C452 1.399 . S
C457 C456 1.394 . S
C457 C458 1.516 . S
C458 C457 1.516 . S
C458 C459 1.502 . S
C458 C460 1.561 . S
C458 C461 1.526 . S
C459 H443 0.959 . S
C459 H444 0.959 . S
C459 H445 0.961 . S
C459 C458 1.502 . S
C460 H446 0.960 . S
C460 H447 0.961 . S
C460 H448 0.959 . S
C460 C458 1.561 . S
C461 C458 1.526 . S
C461 C462 1.396 1_565 S
C461 C466 1.390 1_565 S
C462 C456 1.465 1_545 S
C462 C461 1.396 1_545 S
C462 C463 1.399 . S
C463 H449 0.929 . S
C463 C462 1.399 . S
C463 C464 1.385 . S
C464 H450 0.931 . S
C464 C463 1.385 . S
C464 C465 1.389 . S
C465 C464 1.389 . S
C465 C466 1.387 . S
C466 H451 0.930 1_545 S
C466 C461 1.390 1_545 S
C466 C465 1.387 . S
H467 C479 0.930 . S
H468 C481 0.930 . S
H469 C482 0.930 . S
H470 C486 0.959 . S
H471 C486 0.959 . S
H472 C486 0.961 . S
H473 C487 0.960 . S
H474 C487 0.961 . S
H475 C487 0.959 . S
H476 C490 0.929 . S
H477 C491 0.931 . S
H478 C493 0.930 . S
C479 H467 0.930 . S
C479 C480 1.399 . S
C479 C484 1.399 . S
C480 C479 1.399 . S
C480 C481 1.376 . S
C481 H468 0.930 . S
C481 C480 1.376 . S
C481 C482 1.388 . S
C482 H469 0.930 . S
C482 C481 1.388 . S
C482 C483 1.390 . S
C483 C482 1.390 . S
C483 C484 1.394 . S
C483 C489 1.465 . S
C484 C479 1.399 . S
C484 C483 1.394 . S
C484 C485 1.516 . S
C485 C484 1.516 . S
C485 C486 1.502 . S
C485 C487 1.561 . S
C485 C488 1.526 . S
C486 H470 0.959 . S
C486 H471 0.959 . S
C486 H472 0.961 . S
C486 C485 1.502 . S
C487 H473 0.960 . S
C487 H474 0.961 . S
C487 H475 0.959 . S
C487 C485 1.561 . S
C488 C485 1.526 . S
C488 C489 1.396 . S
C488 C493 1.390 . S
C489 C483 1.465 . S
C489 C488 1.396 . S
C489 C490 1.399 . S
C490 H476 0.929 . S
C490 C489 1.399 . S
C490 C491 1.385 . S
C491 H477 0.931 . S
C491 C490 1.385 . S
C491 C492 1.389 . S
C492 C491 1.389 . S
C492 C493 1.387 . S
C493 H478 0.930 . S
C493 C488 1.390 . S
C493 C492 1.387 . S
H494 C506 0.930 . S
H495 C508 0.930 . S
H496 C509 0.930 . S
H497 C513 0.959 . S
H498 C513 0.959 . S
H499 C513 0.961 . S
H500 C514 0.960 . S
H501 C514 0.961 . S
H502 C514 0.959 . S
H503 C517 0.929 . S
H504 C518 0.931 . S
H505 C520 0.930 . S
C506 H494 0.930 . S
C506 C507 1.399 . S
C506 C511 1.399 . S
C507 C506 1.399 . S
C507 C508 1.376 . S
C508 H495 0.930 . S
C508 C507 1.376 . S
C508 C509 1.388 . S
C509 H496 0.930 . S
C509 C508 1.388 . S
C509 C510 1.390 . S
C510 C509 1.390 . S
C510 C511 1.394 . S
C510 C516 1.465 . S
C511 C506 1.399 . S
C511 C510 1.394 . S
C511 C512 1.516 . S
C512 C511 1.516 . S
C512 C513 1.502 . S
C512 C514 1.561 . S
C512 C515 1.526 . S
C513 H497 0.959 . S
C513 H498 0.959 . S
C513 H499 0.961 . S
C513 C512 1.502 . S
C514 H500 0.960 . S
C514 H501 0.961 . S
C514 H502 0.959 . S
C514 C512 1.561 . S
C515 C512 1.526 . S
C515 C516 1.396 . S
C515 C520 1.390 . S
C516 C510 1.465 . S
C516 C515 1.396 . S
C516 C517 1.399 . S
C517 H503 0.929 . S
C517 C516 1.399 . S
C517 C518 1.385 . S
C518 H504 0.931 . S
C518 C517 1.385 . S
C518 C519 1.389 . S
C519 C518 1.389 . S
C519 C520 1.387 . S
C520 H505 0.930 . S
C520 C515 1.390 . S
C520 C519 1.387 . S
H521 C533 0.930 . S
H522 C535 0.930 . S
H523 C536 0.930 . S
H524 C540 0.959 . S
H525 C540 0.959 . S
H526 C540 0.961 . S
H527 C541 0.960 . S
H528 C541 0.961 . S
H529 C541 0.959 . S
H530 C544 0.929 . S
H531 C545 0.931 . S
H532 C547 0.930 . S
C533 H521 0.930 . S
C533 C534 1.399 . S
C533 C538 1.399 . S
C534 C533 1.399 . S
C534 C535 1.376 . S
C535 H522 0.930 . S
C535 C534 1.376 . S
C535 C536 1.388 . S
C536 H523 0.930 . S
C536 C535 1.388 . S
C536 C537 1.390 . S
C537 C536 1.390 . S
C537 C538 1.394 . S
C537 C543 1.465 . S
C538 C533 1.399 . S
C538 C537 1.394 . S
C538 C539 1.516 . S
C539 C538 1.516 . S
C539 C540 1.502 . S
C539 C541 1.561 . S
C539 C542 1.526 . S
C540 H524 0.959 . S
C540 H525 0.959 . S
C540 H526 0.961 . S
C540 C539 1.502 . S
C541 H527 0.960 . S
C541 H528 0.961 . S
C541 H529 0.959 . S
C541 C539 1.561 . S
C542 C539 1.526 . S
C542 C543 1.396 . S
C542 C547 1.390 1_565 S
C543 C537 1.465 . S
C543 C542 1.396 . S
C543 C544 1.399 1_565 S
C544 H530 0.929 . S
C544 C543 1.399 1_545 S
C544 C545 1.385 . S
C545 H531 0.931 . S
C545 C544 1.385 . S
C545 C546 1.389 . S
C546 C545 1.389 . S
C546 C547 1.387 . S
C547 H532 0.930 . S
C547 C542 1.390 1_545 S
C547 C546 1.387 . S
H548 C560 0.930 . S
H549 C562 0.930 . S
H550 C563 0.930 . S
H551 C567 0.959 . S
H552 C567 0.959 . S
H553 C567 0.961 . S
H554 C568 0.960 . S
H555 C568 0.961 . S
H556 C568 0.959 . S
H557 C571 0.929 . S
H558 C572 0.931 . S
H559 C574 0.930 . S
C560 H548 0.930 . S
C560 C561 1.399 . S
C560 C565 1.399 . S
C561 C560 1.399 . S
C561 C562 1.376 . S
C562 H549 0.930 . S
C562 C561 1.376 . S
C562 C563 1.388 . S
C563 H550 0.930 . S
C563 C562 1.388 . S
C563 C564 1.390 . S
C564 C563 1.390 . S
C564 C565 1.394 . S
C564 C570 1.465 . S
C565 C560 1.399 . S
C565 C564 1.394 . S
C565 C566 1.516 1_545 S
C566 C565 1.516 1_565 S
C566 C567 1.502 . S
C566 C568 1.561 . S
C566 C569 1.526 . S
C567 H551 0.959 . S
C567 H552 0.959 . S
C567 H553 0.961 . S
C567 C566 1.502 . S
C568 H554 0.960 . S
C568 H555 0.961 . S
C568 H556 0.959 . S
C568 C566 1.561 . S
C569 C566 1.526 . S
C569 C570 1.396 1_565 S
C569 C574 1.390 . S
C570 C564 1.465 . S
C570 C569 1.396 1_545 S
C570 C571 1.399 . S
C571 H557 0.929 . S
C571 C570 1.399 . S
C571 C572 1.385 1_545 S
C572 H558 0.931 . S
C572 C571 1.385 1_565 S
C572 C573 1.389 . S
C573 C572 1.389 . S
C573 C574 1.387 . S
C574 H559 0.930 . S
C574 C569 1.390 . S
C574 C573 1.387 . S
H575 C587 0.930 . S
H576 C589 0.930 . S
H577 C590 0.930 . S
H578 C594 0.959 . S
H579 C594 0.959 . S
H580 C594 0.961 . S
H581 C595 0.960 . S
H582 C595 0.961 . S
H583 C595 0.959 . S
H584 C598 0.929 . S
H585 C599 0.931 . S
H586 C601 0.930 . S
C587 H575 0.930 . S
C587 C588 1.399 . S
C587 C592 1.399 . S
C588 C587 1.399 . S
C588 C589 1.376 . S
C589 H576 0.930 . S
C589 C588 1.376 . S
C589 C590 1.388 . S
C590 H577 0.930 . S
C590 C589 1.388 . S
C590 C591 1.390 . S
C591 C590 1.390 . S
C591 C592 1.394 . S
C591 C597 1.465 . S
C592 C587 1.399 . S
C592 C591 1.394 . S
C592 C593 1.516 . S
C593 C592 1.516 . S
C593 C594 1.502 . S
C593 C595 1.561 . S
C593 C596 1.526 . S
C594 H578 0.959 . S
C594 H579 0.959 . S
C594 H580 0.961 . S
C594 C593 1.502 . S
C595 H581 0.960 . S
C595 H582 0.961 . S
C595 H583 0.959 . S
C595 C593 1.561 . S
C596 C593 1.526 . S
C596 C597 1.396 . S
C596 C601 1.390 . S
C597 C591 1.465 . S
C597 C596 1.396 . S
C597 C598 1.399 . S
C598 H584 0.929 . S
C598 C597 1.399 . S
C598 C599 1.385 . S
C599 H585 0.931 . S
C599 C598 1.385 . S
C599 C600 1.389 . S
C600 C599 1.389 . S
C600 C601 1.387 . S
C601 H586 0.930 . S
C601 C596 1.390 . S
C601 C600 1.387 . S
H602 C614 0.930 . S
H603 C616 0.930 . S
H604 C617 0.930 . S
H605 C621 0.959 . S
H606 C621 0.959 . S
H607 C621 0.961 . S
H608 C622 0.960 . S
H609 C622 0.961 . S
H610 C622 0.959 . S
H611 C625 0.929 . S
H612 C626 0.931 . S
H613 C628 0.930 . S
C614 H602 0.930 . S
C614 C615 1.399 . S
C614 C619 1.399 . S
C615 C614 1.399 . S
C615 C616 1.376 . S
C616 H603 0.930 . S
C616 C615 1.376 . S
C616 C617 1.388 . S
C617 H604 0.930 . S
C617 C616 1.388 . S
C617 C618 1.390 . S
C618 C617 1.390 . S
C618 C619 1.394 . S
C618 C624 1.465 . S
C619 C614 1.399 . S
C619 C618 1.394 . S
C619 C620 1.516 . S
C620 C619 1.516 . S
C620 C621 1.502 . S
C620 C622 1.561 . S
C620 C623 1.526 . S
C621 H605 0.959 . S
C621 H606 0.959 . S
C621 H607 0.961 . S
C621 C620 1.502 . S
C622 H608 0.960 . S
C622 H609 0.961 . S
C622 H610 0.959 . S
C622 C620 1.561 . S
C623 C620 1.526 . S
C623 C624 1.396 . S
C623 C628 1.390 . S
C624 C618 1.465 . S
C624 C623 1.396 . S
C624 C625 1.399 . S
C625 H611 0.929 . S
C625 C624 1.399 . S
C625 C626 1.385 . S
C626 H612 0.931 . S
C626 C625 1.385 . S
C626 C627 1.389 . S
C627 C626 1.389 . S
C627 C628 1.387 . S
C628 H613 0.930 . S
C628 C623 1.390 . S
C628 C627 1.387 . S
H629 C641 0.930 . S
H630 C643 0.930 . S
H631 C644 0.930 . S
H632 C648 0.983 . S
H633 C648 0.930 1_565 S
H634 C648 0.971 . S
H635 C649 0.960 . S
H636 C649 0.961 . S
H637 C649 0.959 . S
H638 C652 0.929 . S
H639 C653 0.931 . S
H640 C655 0.930 . S
C641 H629 0.930 . S
C641 C642 1.399 . S
C641 C646 1.399 . S
C642 C641 1.399 . S
C642 C643 1.376 . S
C643 H630 0.930 . S
C643 C642 1.376 . S
C643 C644 1.388 . S
C644 H631 0.930 . S
C644 C643 1.388 . S
C644 C645 1.390 . S
C645 C644 1.390 . S
C645 C646 1.394 . S
C645 C651 1.465 . S
C646 C641 1.399 . S
C646 C645 1.394 . S
C646 C647 1.516 1_545 S
C647 C646 1.516 1_565 S
C647 C648 1.499 1_565 S
C647 C649 1.561 . S
C647 C650 1.526 . S
C648 H632 0.983 . S
C648 H633 0.930 1_545 S
C648 H634 0.971 . S
C648 C647 1.499 1_545 S
C649 H635 0.960 . S
C649 H636 0.961 . S
C649 H637 0.959 . S
C649 C647 1.561 . S
C650 C647 1.526 . S
C650 C651 1.396 1_565 S
C650 C655 1.390 . S
C651 C645 1.465 . S
C651 C650 1.396 1_545 S
C651 C652 1.399 . S
C652 H638 0.929 . S
C652 C651 1.399 . S
C652 C653 1.385 1_545 S
C653 H639 0.931 . S
C653 C652 1.385 1_565 S
C653 C654 1.389 . S
C654 C653 1.389 . S
C654 C655 1.387 . S
C655 H640 0.930 . S
C655 C650 1.390 . S
C655 C654 1.387 . S
H656 C668 0.930 . S
H657 C670 0.930 . S
H658 C671 0.930 . S
H659 C675 0.959 . S
H660 C675 0.959 . S
H661 C675 0.961 . S
H662 C676 0.935 1_556 S
H663 C676 0.961 . S
H664 C676 0.959 . S
H665 C679 0.929 . S
H666 C680 0.931 . S
H667 C682 0.930 . S
C668 H656 0.930 . S
C668 C669 1.399 . S
C668 C673 1.399 . S
C669 C668 1.399 . S
C669 C670 1.376 . S
C670 H657 0.930 . S
C670 C669 1.376 . S
C670 C671 1.388 . S
C671 H658 0.930 . S
C671 C670 1.388 . S
C671 C672 1.390 . S
C672 C671 1.390 . S
C672 C673 1.394 . S
C672 C678 1.465 1_556 S
C673 C668 1.399 . S
C673 C672 1.394 . S
C673 C674 1.516 1_556 S
C674 C673 1.516 1_554 S
C674 C675 1.502 . S
C674 C676 1.561 . S
C674 C677 1.526 . S
C675 H659 0.959 . S
C675 H660 0.959 . S
C675 H661 0.961 . S
C675 C674 1.502 . S
C676 H662 0.935 1_554 S
C676 H663 0.961 . S
C676 H664 0.959 . S
C676 C674 1.561 . S
C677 C674 1.526 . S
C677 C678 1.396 . S
C677 C682 1.390 . S
C678 C672 1.465 1_554 S
C678 C677 1.396 . S
C678 C679 1.399 . S
C679 H665 0.929 . S
C679 C678 1.399 . S
C679 C680 1.385 . S
C680 H666 0.931 . S
C680 C679 1.385 . S
C680 C681 1.389 . S
C681 C680 1.389 . S
C681 C682 1.387 . S
C682 H667 0.930 . S
C682 C677 1.390 . S
C682 C681 1.387 . S
H683 C695 0.930 . S
H684 C697 0.930 . S
H685 C698 0.930 . S
H686 C702 0.959 . S
H687 C702 0.959 . S
H688 C702 0.961 . S
H689 C703 0.960 . S
H690 C703 0.961 . S
H691 C703 0.959 . S
H692 C706 0.929 . S
H693 C707 0.931 . S
H694 C709 0.930 . S
C695 H683 0.930 . S
C695 C696 1.399 . S
C695 C700 1.399 . S
C696 C695 1.399 . S
C696 C697 1.376 . S
C697 H684 0.930 . S
C697 C696 1.376 . S
C697 C698 1.388 . S
C698 H685 0.930 . S
C698 C697 1.388 . S
C698 C699 1.390 . S
C699 C698 1.390 . S
C699 C700 1.394 . S
C699 C705 1.465 . S
C700 C695 1.399 . S
C700 C699 1.394 . S
C700 C701 1.516 . S
C701 C700 1.516 . S
C701 C702 1.502 . S
C701 C703 1.561 . S
C701 C704 1.526 . S
C702 H686 0.959 . S
C702 H687 0.959 . S
C702 H688 0.961 . S
C702 C701 1.502 . S
C703 H689 0.960 . S
C703 H690 0.961 . S
C703 H691 0.959 . S
C703 C701 1.561 . S
C704 C701 1.526 . S
C704 C705 1.396 . S
C704 C709 1.390 . S
C705 C699 1.465 . S
C705 C704 1.396 . S
C705 C706 1.399 . S
C706 H692 0.929 . S
C706 C705 1.399 . S
C706 C707 1.385 . S
C707 H693 0.931 . S
C707 C706 1.385 . S
C707 C708 1.389 . S
C708 C707 1.389 . S
C708 C709 1.387 . S
C709 H694 0.930 . S
C709 C704 1.390 . S
C709 C708 1.387 . S
H710 C722 0.930 . S
H711 C724 0.930 . S
H712 C725 0.930 . S
H713 C729 0.959 . S
H714 C729 0.959 . S
H715 C729 0.961 . S
H716 C730 0.960 . S
H717 C730 0.961 . S
H718 C730 0.959 . S
H719 C733 0.929 . S
H720 C734 0.931 . S
H721 C736 0.930 . S
C722 H710 0.930 . S
C722 C723 1.399 . S
C722 C727 1.399 . S
C723 C722 1.399 . S
C723 C724 1.376 . S
C724 H711 0.930 . S
C724 C723 1.376 . S
C724 C725 1.388 . S
C725 H712 0.930 . S
C725 C724 1.388 . S
C725 C726 1.390 . S
C726 C725 1.390 . S
C726 C727 1.394 . S
C726 C732 1.465 1_554 S
C727 C722 1.399 . S
C727 C726 1.394 . S
C727 C728 1.516 1_554 S
C728 C727 1.516 1_556 S
C728 C729 1.502 . S
C728 C730 1.561 . S
C728 C731 1.526 . S
C729 H713 0.959 . S
C729 H714 0.959 . S
C729 H715 0.961 . S
C729 C728 1.502 . S
C730 H716 0.960 . S
C730 H717 0.961 . S
C730 H718 0.959 . S
C730 C728 1.561 . S
C731 C728 1.526 . S
C731 C732 1.396 . S
C731 C736 1.390 . S
C732 C726 1.465 1_556 S
C732 C731 1.396 . S
C732 C733 1.399 . S
C733 H719 0.929 . S
C733 C732 1.399 . S
C733 C734 1.385 . S
C734 H720 0.931 . S
C734 C733 1.385 . S
C734 C735 1.389 . S
C735 C734 1.389 . S
C735 C736 1.387 . S
C736 H721 0.930 . S
C736 C731 1.390 . S
C736 C735 1.387 . S
H737 C749 0.930 . S
H738 C751 0.930 . S
H739 C752 0.930 . S
H740 C756 0.959 . S
H741 C756 0.959 . S
H742 C756 0.961 . S
H743 C757 0.960 . S
H744 C757 0.961 . S
H745 C757 0.959 . S
H746 C760 0.929 . S
H747 C761 0.931 . S
H748 C763 0.930 . S
C749 H737 0.930 . S
C749 C750 1.399 . S
C749 C754 1.399 . S
C750 C749 1.399 . S
C750 C751 1.376 . S
C751 H738 0.930 . S
C751 C750 1.376 . S
C751 C752 1.388 . S
C752 H739 0.930 . S
C752 C751 1.388 . S
C752 C753 1.390 . S
C753 C752 1.390 . S
C753 C754 1.394 . S
C753 C759 1.465 . S
C754 C749 1.399 . S
C754 C753 1.394 . S
C754 C755 1.516 . S
C755 C754 1.516 . S
C755 C756 1.502 . S
C755 C757 1.561 . S
C755 C758 1.526 . S
C756 H740 0.959 . S
C756 H741 0.959 . S
C756 H742 0.961 . S
C756 C755 1.502 . S
C757 H743 0.960 . S
C757 H744 0.961 . S
C757 H745 0.959 . S
C757 C755 1.561 . S
C758 C755 1.526 . S
C758 C759 1.396 . S
C758 C763 1.390 . S
C759 C753 1.465 . S
C759 C758 1.396 . S
C759 C760 1.399 . S
C760 H746 0.929 . S
C760 C759 1.399 . S
C760 C761 1.385 . S
C761 H747 0.931 . S
C761 C760 1.385 . S
C761 C762 1.389 . S
C762 C761 1.389 . S
C762 C763 1.387 . S
C763 H748 0.930 . S
C763 C758 1.390 . S
C763 C762 1.387 . S
H764 C776 0.930 . S
H765 C778 0.930 . S
H766 C779 0.920 1_556 S
H767 C783 0.959 . S
H768 C783 0.959 . S
H769 C783 0.961 . S
H770 C784 0.960 . S
H771 C784 0.961 . S
H772 C784 0.959 . S
H773 C787 0.929 . S
H774 C788 0.931 . S
H775 C790 0.930 . S
C776 H764 0.930 . S
C776 C777 1.399 . S
C776 C781 1.399 1_554 S
C777 C776 1.399 . S
C777 C778 1.376 . S
C778 H765 0.930 . S
C778 C777 1.376 . S
C778 C779 1.388 . S
C779 H766 0.920 1_554 S
C779 C778 1.388 . S
C779 C780 1.390 1_554 S
C780 C779 1.390 1_556 S
C780 C781 1.394 . S
C780 C786 1.465 . S
C781 C776 1.399 1_556 S
C781 C780 1.394 . S
C781 C782 1.516 . S
C782 C781 1.516 . S
C782 C783 1.502 . S
C782 C784 1.561 . S
C782 C785 1.526 . S
C783 H767 0.959 . S
C783 H768 0.959 . S
C783 H769 0.961 . S
C783 C782 1.502 . S
C784 H770 0.960 . S
C784 H771 0.961 . S
C784 H772 0.959 . S
C784 C782 1.561 . S
C785 C782 1.526 . S
C785 C786 1.396 . S
C785 C790 1.390 . S
C786 C780 1.465 . S
C786 C785 1.396 . S
C786 C787 1.399 . S
C787 H773 0.929 . S
C787 C786 1.399 . S
C787 C788 1.385 . S
C788 H774 0.931 . S
C788 C787 1.385 . S
C788 C789 1.389 . S
C789 C788 1.389 . S
C789 C790 1.387 . S
C790 H775 0.930 . S
C790 C785 1.390 . S
C790 C789 1.387 . S
H791 C803 0.930 . S
H792 C805 0.930 . S
H793 C806 0.930 . S
H794 C810 0.959 . S
H795 C810 0.959 . S
H796 C810 0.961 . S
H797 C811 0.960 . S
H798 C811 0.961 . S
H799 C811 0.959 . S
H800 C814 0.929 . S
H801 C815 0.931 . S
H802 C817 0.930 . S
C803 H791 0.930 . S
C803 C804 1.399 . S
C803 C808 1.399 . S
C804 C803 1.399 . S
C804 C805 1.376 . S
C805 H792 0.930 . S
C805 C804 1.376 . S
C805 C806 1.388 . S
C806 H793 0.930 . S
C806 C805 1.388 . S
C806 C807 1.390 . S
C807 C806 1.390 . S
C807 C808 1.394 . S
C807 C813 1.465 . S
C808 C803 1.399 . S
C808 C807 1.394 . S
C808 C809 1.516 . S
C809 C808 1.516 . S
C809 C810 1.502 . S
C809 C811 1.561 . S
C809 C812 1.526 . S
C810 H794 0.959 . S
C810 H795 0.959 . S
C810 H796 0.961 . S
C810 C809 1.502 . S
C811 H797 0.960 . S
C811 H798 0.961 . S
C811 H799 0.959 . S
C811 C809 1.561 . S
C812 C809 1.526 . S
C812 C813 1.396 . S
C812 C817 1.390 . S
C813 C807 1.465 . S
C813 C812 1.396 . S
C813 C814 1.399 . S
C814 H800 0.929 . S
C814 C813 1.399 . S
C814 C815 1.385 . S
C815 H801 0.931 . S
C815 C814 1.385 . S
C815 C816 1.389 . S
C816 C815 1.389 . S
C816 C817 1.387 . S
C817 H802 0.930 . S
C817 C812 1.390 . S
C817 C816 1.387 . S
H818 C830 0.930 . S
H819 C832 0.930 . S
H820 C833 0.932 1_554 S
H821 C837 0.959 . S
H822 C837 0.959 . S
H823 C837 0.961 . S
H824 C838 0.960 1_556 S
H825 C838 0.961 . S
H826 C838 0.959 . S
H827 C841 0.929 . S
H828 C842 0.931 . S
H829 C844 0.930 . S
C830 H818 0.930 . S
C830 C831 1.399 . S
C830 C835 1.399 . S
C831 C830 1.399 . S
C831 C832 1.376 . S
C832 H819 0.930 . S
C832 C831 1.376 . S
C832 C833 1.388 . S
C833 H820 0.932 1_556 S
C833 C832 1.388 . S
C833 C834 1.390 1_556 S
C834 C833 1.390 1_554 S
C834 C835 1.394 1_554 S
C834 C840 1.465 . S
C835 C830 1.399 . S
C835 C834 1.394 1_556 S
C835 C836 1.516 1_556 S
C836 C835 1.516 1_554 S
C836 C837 1.502 . S
C836 C838 1.561 . S
C836 C839 1.526 . S
C837 H821 0.959 . S
C837 H822 0.959 . S
C837 H823 0.961 . S
C837 C836 1.502 . S
C838 H824 0.960 1_554 S
C838 H825 0.961 . S
C838 H826 0.959 . S
C838 C836 1.561 . S
C839 C836 1.526 . S
C839 C840 1.396 . S
C839 C844 1.390 . S
C840 C834 1.465 . S
C840 C839 1.396 . S
C840 C841 1.399 . S
C841 H827 0.929 . S
C841 C840 1.399 . S
C841 C842 1.385 . S
C842 H828 0.931 . S
C842 C841 1.385 . S
C842 C843 1.389 . S
C843 C842 1.389 . S
C843 C844 1.387 . S
C844 H829 0.930 . S
C844 C839 1.390 . S
C844 C843 1.387 . S
H845 C857 0.930 . S
H846 C859 0.930 . S
H847 C860 0.930 . S
H848 C864 0.959 . S
H849 C864 0.959 . S
H850 C864 0.961 . S
H851 C865 0.960 . S
H852 C865 0.961 . S
H853 C865 0.959 . S
H854 C868 0.929 . S
H855 C869 0.931 . S
H856 C871 0.930 . S
C857 H845 0.930 . S
C857 C858 1.399 . S
C857 C862 1.399 . S
C858 C857 1.399 . S
C858 C859 1.376 . S
C859 H846 0.930 . S
C859 C858 1.376 . S
C859 C860 1.388 . S
C860 H847 0.930 . S
C860 C859 1.388 . S
C860 C861 1.390 . S
C861 C860 1.390 . S
C861 C862 1.394 . S
C861 C867 1.465 . S
C862 C857 1.399 . S
C862 C861 1.394 . S
C862 C863 1.516 . S
C863 C862 1.516 . S
C863 C864 1.502 . S
C863 C865 1.561 . S
C863 C866 1.526 . S
C864 H848 0.959 . S
C864 H849 0.959 . S
C864 H850 0.961 . S
C864 C863 1.502 . S
C865 H851 0.960 . S
C865 H852 0.961 . S
C865 H853 0.959 . S
C865 C863 1.561 . S
C866 C863 1.526 . S
C866 C867 1.396 . S
C866 C871 1.390 . S
C867 C861 1.465 . S
C867 C866 1.396 . S
C867 C868 1.399 . S
C868 H854 0.929 . S
C868 C867 1.399 . S
C868 C869 1.385 . S
C869 H855 0.931 . S
C869 C868 1.385 . S
C869 C870 1.389 . S
C870 C869 1.389 . S
C870 C871 1.387 . S
C871 H856 0.930 . S
C871 C866 1.390 . S
C871 C870 1.387 . S
H872 C884 0.930 . S
H873 C886 0.930 . S
H874 C887 0.930 . S
H875 C891 0.959 . S
H876 C891 0.959 . S
H877 C891 0.961 . S
H878 C892 0.960 . S
H879 C892 0.961 . S
H880 C892 0.959 . S
H881 C895 0.929 . S
H882 C896 0.931 . S
H883 C898 0.930 . S
C884 H872 0.930 . S
C884 C885 1.399 . S
C884 C889 1.399 . S
C885 C884 1.399 . S
C885 C886 1.376 . S
C886 H873 0.930 . S
C886 C885 1.376 . S
C886 C887 1.388 . S
C887 H874 0.930 . S
C887 C886 1.388 . S
C887 C888 1.390 . S
C888 C887 1.390 . S
C888 C889 1.394 . S
C888 C894 1.465 . S
C889 C884 1.399 . S
C889 C888 1.394 . S
C889 C890 1.516 . S
C890 C889 1.516 . S
C890 C891 1.502 . S
C890 C892 1.561 . S
C890 C893 1.526 . S
C891 H875 0.959 . S
C891 H876 0.959 . S
C891 H877 0.961 . S
C891 C890 1.502 . S
C892 H878 0.960 . S
C892 H879 0.961 . S
C892 H880 0.959 . S
C892 C890 1.561 . S
C893 C890 1.526 . S
C893 C894 1.396 . S
C893 C898 1.390 . S
C894 C888 1.465 . S
C894 C893 1.396 . S
C894 C895 1.399 . S
C895 H881 0.929 . S
C895 C894 1.399 . S
C895 C896 1.385 . S
C896 H882 0.931 . S
C896 C895 1.385 . S
C896 C897 1.389 . S
C897 C896 1.389 . S
C897 C898 1.387 . S
C898 H883 0.930 . S
C898 C893 1.390 . S
C898 C897 1.387 . S
H899 C911 0.930 . S
H900 C913 0.930 . S
H901 C914 0.930 . S
H902 C918 0.959 . S
H903 C918 0.959 . S
H904 C918 0.961 . S
H905 C919 0.960 . S
H906 C919 0.961 . S
H907 C919 0.959 . S
H908 C922 0.929 . S
H909 C923 0.931 . S
H910 C925 0.930 . S
C911 H899 0.930 . S
C911 C912 1.399 . S
C911 C916 1.399 . S
C912 C911 1.399 . S
C912 C913 1.376 . S
C913 H900 0.930 . S
C913 C912 1.376 . S
C913 C914 1.388 . S
C914 H901 0.930 . S
C914 C913 1.388 . S
C914 C915 1.390 . S
C915 C914 1.390 . S
C915 C916 1.394 . S
C915 C921 1.465 . S
C916 C911 1.399 . S
C916 C915 1.394 . S
C916 C917 1.516 . S
C917 C916 1.516 . S
C917 C918 1.502 . S
C917 C919 1.561 . S
C917 C920 1.526 . S
C918 H902 0.959 . S
C918 H903 0.959 . S
C918 H904 0.961 . S
C918 C917 1.502 . S
C919 H905 0.960 . S
C919 H906 0.961 . S
C919 H907 0.959 . S
C919 C917 1.561 . S
C920 C917 1.526 . S
C920 C921 1.396 . S
C920 C925 1.390 . S
C921 C915 1.465 . S
C921 C920 1.396 . S
C921 C922 1.399 . S
C922 H908 0.929 . S
C922 C921 1.399 . S
C922 C923 1.385 . S
C923 H909 0.931 . S
C923 C922 1.385 . S
C923 C924 1.389 . S
C924 C923 1.389 . S
C924 C925 1.387 . S
C925 H910 0.930 . S
C925 C920 1.390 . S
C925 C924 1.387 . S
H926 C938 0.930 . S
H927 C940 0.930 . S
H928 C941 0.930 . S
H929 C945 0.959 . S
H930 C945 0.959 . S
H931 C945 0.961 . S
H932 C946 0.960 . S
H933 C946 0.961 . S
H934 C946 0.959 . S
H935 C949 0.929 . S
H936 C950 0.931 . S
H937 C952 0.930 . S
C938 H926 0.930 . S
C938 C939 1.399 . S
C938 C943 1.399 . S
C939 C938 1.399 . S
C939 C940 1.376 . S
C940 H927 0.930 . S
C940 C939 1.376 . S
C940 C941 1.388 . S
C941 H928 0.930 . S
C941 C940 1.388 . S
C941 C942 1.390 . S
C942 C941 1.390 . S
C942 C943 1.394 . S
C942 C948 1.465 . S
C943 C938 1.399 . S
C943 C942 1.394 . S
C943 C944 1.516 . S
C944 C943 1.516 . S
C944 C945 1.502 . S
C944 C946 1.561 . S
C944 C947 1.526 . S
C945 H929 0.959 . S
C945 H930 0.959 . S
C945 H931 0.961 . S
C945 C944 1.502 . S
C946 H932 0.960 . S
C946 H933 0.961 . S
C946 H934 0.959 . S
C946 C944 1.561 . S
C947 C944 1.526 . S
C947 C948 1.396 . S
C947 C952 1.390 . S
C948 C942 1.465 . S
C948 C947 1.396 . S
C948 C949 1.399 . S
C949 H935 0.929 . S
C949 C948 1.399 . S
C949 C950 1.385 . S
C950 H936 0.931 . S
C950 C949 1.385 . S
C950 C951 1.389 . S
C951 C950 1.389 . S
C951 C952 1.387 . S
C952 H937 0.930 . S
C952 C947 1.390 . S
C952 C951 1.387 . S
H953 C965 0.930 . S
H954 C967 0.930 . S
H955 C968 0.930 . S
H956 C972 0.959 . S
H957 C972 0.959 . S
H958 C972 0.961 . S
H959 C973 0.960 . S
H960 C973 0.961 . S
H961 C973 0.959 . S
H962 C976 0.929 . S
H963 C977 0.931 . S
H964 C979 0.930 . S
C965 H953 0.930 . S
C965 C966 1.399 . S
C965 C970 1.399 . S
C966 C965 1.399 . S
C966 C967 1.376 . S
C967 H954 0.930 . S
C967 C966 1.376 . S
C967 C968 1.388 . S
C968 H955 0.930 . S
C968 C967 1.388 . S
C968 C969 1.390 . S
C969 C968 1.390 . S
C969 C970 1.394 . S
C969 C975 1.465 . S
C970 C965 1.399 . S
C970 C969 1.394 . S
C970 C971 1.516 . S
C971 C970 1.516 . S
C971 C972 1.502 . S
C971 C973 1.561 . S
C971 C974 1.526 . S
C972 H956 0.959 . S
C972 H957 0.959 . S
C972 H958 0.961 . S
C972 C971 1.502 . S
C973 H959 0.960 . S
C973 H960 0.961 . S
C973 H961 0.959 . S
C973 C971 1.561 . S
C974 C971 1.526 . S
C974 C975 1.396 . S
C974 C979 1.390 . S
C975 C969 1.465 . S
C975 C974 1.396 . S
C975 C976 1.399 . S
C976 H962 0.929 . S
C976 C975 1.399 . S
C976 C977 1.385 . S
C977 H963 0.931 . S
C977 C976 1.385 . S
C977 C978 1.389 . S
C978 C977 1.389 . S
C978 C979 1.387 . S
C979 H964 0.930 . S
C979 C974 1.390 . S
C979 C978 1.387 . S
H980 C992 0.930 . S
H981 C994 0.930 . S
H982 C995 0.930 . S
H983 C999 0.959 . S
H984 C999 0.959 . S
H985 C999 0.961 . S
H986 C1000 0.960 . S
H987 C1000 0.961 . S
H988 C1000 0.959 . S
H989 C1003 0.929 . S
H990 C1004 0.931 . S
H991 C1006 0.930 . S
C992 H980 0.930 . S
C992 C993 1.399 . S
C992 C997 1.399 . S
C993 C992 1.399 . S
C993 C994 1.376 . S
C994 H981 0.930 . S
C994 C993 1.376 . S
C994 C995 1.388 . S
C995 H982 0.930 . S
C995 C994 1.388 . S
C995 C996 1.390 . S
C996 C995 1.390 . S
C996 C997 1.394 . S
C996 C1002 1.465 . S
C997 C992 1.399 . S
C997 C996 1.394 . S
C997 C998 1.516 . S
C998 C997 1.516 . S
C998 C999 1.502 . S
C998 C1000 1.561 . S
C998 C1001 1.526 . S
C999 H983 0.959 . S
C999 H984 0.959 . S
C999 H985 0.961 . S
C999 C998 1.502 . S
C1000 H986 0.960 . S
C1000 H987 0.961 . S
C1000 H988 0.959 . S
C1000 C998 1.561 . S
C1001 C998 1.526 . S
C1001 C1002 1.396 . S
C1001 C1006 1.390 . S
C1002 C996 1.465 . S
C1002 C1001 1.396 . S
C1002 C1003 1.399 . S
C1003 H989 0.929 . S
C1003 C1002 1.399 . S
C1003 C1004 1.385 . S
C1004 H990 0.931 . S
C1004 C1003 1.385 . S
C1004 C1005 1.389 . S
C1005 C1004 1.389 . S
C1005 C1006 1.387 . S
C1006 H991 0.930 . S
C1006 C1001 1.390 . S
C1006 C1005 1.387 . S
H1007 C1019 0.930 . S
H1008 C1021 0.930 . S
H1009 C1022 0.930 . S
H1010 C1026 0.959 . S
H1011 C1026 0.959 . S
H1012 C1026 0.961 . S
H1013 C1027 0.960 . S
H1014 C1027 0.961 . S
H1015 C1027 0.959 . S
H1016 C1030 0.929 . S
H1017 C1031 0.931 . S
H1018 C1033 0.930 . S
C1019 H1007 0.930 . S
C1019 C1020 1.399 . S
C1019 C1024 1.399 . S
C1020 C1019 1.399 . S
C1020 C1021 1.376 . S
C1021 H1008 0.930 . S
C1021 C1020 1.376 . S
C1021 C1022 1.388 . S
C1022 H1009 0.930 . S
C1022 C1021 1.388 . S
C1022 C1023 1.390 . S
C1023 C1022 1.390 . S
C1023 C1024 1.394 . S
C1023 C1029 1.465 . S
C1024 C1019 1.399 . S
C1024 C1023 1.394 . S
C1024 C1025 1.516 . S
C1025 C1024 1.516 . S
C1025 C1026 1.502 . S
C1025 C1027 1.561 . S
C1025 C1028 1.526 . S
C1026 H1010 0.959 . S
C1026 H1011 0.959 . S
C1026 H1012 0.961 . S
C1026 C1025 1.502 . S
C1027 H1013 0.960 . S
C1027 H1014 0.961 . S
C1027 H1015 0.959 . S
C1027 C1025 1.561 . S
C1028 C1025 1.526 . S
C1028 C1029 1.396 . S
C1028 C1033 1.390 . S
C1029 C1023 1.465 . S
C1029 C1028 1.396 . S
C1029 C1030 1.399 . S
C1030 H1016 0.929 . S
C1030 C1029 1.399 . S
C1030 C1031 1.385 . S
C1031 H1017 0.931 . S
C1031 C1030 1.385 . S
C1031 C1032 1.389 . S
C1032 C1031 1.389 . S
C1032 C1033 1.387 . S
C1033 H1018 0.930 . S
C1033 C1028 1.390 . S
C1033 C1032 1.387 . S
H1034 C1046 0.930 . S
H1035 C1048 0.930 . S
H1036 C1049 0.930 . S
H1037 C1053 0.959 . S
H1038 C1053 0.959 . S
H1039 C1053 0.961 . S
H1040 C1054 0.960 . S
H1041 C1054 0.961 . S
H1042 C1054 0.959 . S
H1043 C1057 0.929 . S
H1044 C1058 0.931 . S
H1045 C1060 0.930 . S
C1046 H1034 0.930 . S
C1046 C1047 1.399 . S
C1046 C1051 1.399 . S
C1047 C1046 1.399 . S
C1047 C1048 1.376 . S
C1048 H1035 0.930 . S
C1048 C1047 1.376 . S
C1048 C1049 1.388 . S
C1049 H1036 0.930 . S
C1049 C1048 1.388 . S
C1049 C1050 1.390 . S
C1050 C1049 1.390 . S
C1050 C1051 1.394 . S
C1050 C1056 1.465 . S
C1051 C1046 1.399 . S
C1051 C1050 1.394 . S
C1051 C1052 1.516 . S
C1052 C1051 1.516 . S
C1052 C1053 1.502 . S
C1052 C1054 1.561 . S
C1052 C1055 1.526 . S
C1053 H1037 0.959 . S
C1053 H1038 0.959 . S
C1053 H1039 0.961 . S
C1053 C1052 1.502 . S
C1054 H1040 0.960 . S
C1054 H1041 0.961 . S
C1054 H1042 0.959 . S
C1054 C1052 1.561 . S
C1055 C1052 1.526 . S
C1055 C1056 1.396 . S
C1055 C1060 1.390 . S
C1056 C1050 1.465 . S
C1056 C1055 1.396 . S
C1056 C1057 1.399 . S
C1057 H1043 0.929 . S
C1057 C1056 1.399 . S
C1057 C1058 1.385 . S
C1058 H1044 0.931 . S
C1058 C1057 1.385 . S
C1058 C1059 1.389 . S
C1059 C1058 1.389 . S
C1059 C1060 1.387 . S
C1060 H1045 0.930 . S
C1060 C1055 1.390 . S
C1060 C1059 1.387 . S
H1061 C1073 0.930 . S
H1062 C1075 0.930 . S
H1063 C1076 0.930 . S
H1064 C1080 0.959 . S
H1065 C1080 0.959 . S
H1066 C1080 0.961 . S
H1067 C1081 0.960 . S
H1068 C1081 0.961 . S
H1069 C1081 0.959 . S
H1070 C1084 0.929 . S
H1071 C1085 0.931 . S
H1072 C1087 0.930 . S
C1073 H1061 0.930 . S
C1073 C1074 1.399 . S
C1073 C1078 1.399 . S
C1074 C1073 1.399 . S
C1074 C1075 1.376 . S
C1075 H1062 0.930 . S
C1075 C1074 1.376 . S
C1075 C1076 1.388 . S
C1076 H1063 0.930 . S
C1076 C1075 1.388 . S
C1076 C1077 1.390 . S
C1077 C1076 1.390 . S
C1077 C1078 1.394 . S
C1077 C1083 1.465 . S
C1078 C1073 1.399 . S
C1078 C1077 1.394 . S
C1078 C1079 1.516 . S
C1079 C1078 1.516 . S
C1079 C1080 1.502 . S
C1079 C1081 1.561 . S
C1079 C1082 1.526 . S
C1080 H1064 0.959 . S
C1080 H1065 0.959 . S
C1080 H1066 0.961 . S
C1080 C1079 1.502 . S
C1081 H1067 0.960 . S
C1081 H1068 0.961 . S
C1081 H1069 0.959 . S
C1081 C1079 1.561 . S
C1082 C1079 1.526 . S
C1082 C1083 1.396 . S
C1082 C1087 1.390 . S
C1083 C1077 1.465 . S
C1083 C1082 1.396 . S
C1083 C1084 1.399 . S
C1084 H1070 0.929 . S
C1084 C1083 1.399 . S
C1084 C1085 1.385 . S
C1085 H1071 0.931 . S
C1085 C1084 1.385 . S
C1085 C1086 1.389 . S
C1086 C1085 1.389 . S
C1086 C1087 1.387 . S
C1087 H1072 0.930 . S
C1087 C1082 1.390 . S
C1087 C1086 1.387 . S
C453 C86 1.633 . S
C465 C160 1.624 . S
C492 C244 1.692 . S
C480 C100 1.682 . S
C519 C243 1.605 . S
C507 C60 1.625 . S
C534 C74 1.674 . S
C546 C159 1.684 . S
C573 C340 1.661 . S
C561 C35 1.686 . S
C600 C424 1.622 . S
C588 C47 1.633 . S
C615 C9 1.686 . S
C627 C423 1.678 . S
C642 C21 1.619 . S
C654 C339 1.624 . S
C681 C162 1.415 . S
C669 C22 1.557 . S
C708 C246 1.434 . S
C696 C8 1.573 . S
C735 C258 1.394 . S
C723 C48 1.589 . S
C762 C174 1.432 . S
C750 C34 1.582 . S
C789 C342 1.374 . S
C777 C73 1.591 . S
C804 C61 1.575 . S
C816 C426 1.477 . S
C843 C414 1.351 . S
C831 C99 1.595 . S
C858 C87 1.566 . S
C870 C330 1.421 . S
C897 C171 1.604 . S
C885 C4 1.507 . S
C924 C255 1.494 . S
C912 C17 1.456 . S
C939 C30 1.500 . S
C951 C256 1.547 . S
C978 C172 1.484 . S
C966 C43 1.467 . S
C1005 C327 1.496 . S
C993 C56 1.441 . S
C1020 C69 1.539 . S
C1032 C411 1.596 . S
C1047 C82 1.467 . S
C1059 C412 1.480 . S
C1074 C95 1.496 . S
C1086 C328 1.556 . S
