# Generated by pormake.
# Topology zzz, (3,6)-cn, num edge types: 1
# Building blocks:
#     Node 0, Type 0, BuildingBlock: VETTIZ_charged_linker_0, # of connection points: 3
#     Node 1, Type 0, BuildingBlock: VETTIZ_charged_linker_0, # of connection points: 3
#     Node 2, Type 0, BuildingBlock: VETTIZ_charged_linker_0, # of connection points: 3
#     Node 3, Type 0, BuildingBlock: VETTIZ_charged_linker_0, # of connection points: 3
#     Node 4, Type 0, BuildingBlock: VETTIZ_charged_linker_0, # of connection points: 3
#     Node 5, Type 0, BuildingBlock: VETTIZ_charged_linker_0, # of connection points: 3
#     Node 6, Type 0, BuildingBlock: VETTIZ_charged_linker_0, # of connection points: 3
#     Node 7, Type 0, BuildingBlock: VETTIZ_charged_linker_0, # of connection points: 3
#     Node 8, Type 1, BuildingBlock: CUKXOW_clean_sbu_0, # of connection points: 6
#     Node 9, Type 1, BuildingBlock: CUKXOW_clean_sbu_0, # of connection points: 6
#     Node 10, Type 1, BuildingBlock: CUKXOW_clean_sbu_0, # of connection points: 6
#     Node 11, Type 1, BuildingBlock: CUKXOW_clean_sbu_0, # of connection points: 6
#     Edge 12, Type (0, 1), None
#     Edge 13, Type (0, 1), None
#     Edge 14, Type (0, 1), None
#     Edge 15, Type (0, 1), None
#     Edge 16, Type (0, 1), None
#     Edge 17, Type (0, 1), None
#     Edge 18, Type (0, 1), None
#     Edge 19, Type (0, 1), None
#     Edge 20, Type (0, 1), None
#     Edge 21, Type (0, 1), None
#     Edge 22, Type (0, 1), None
#     Edge 23, Type (0, 1), None
#     Edge 24, Type (0, 1), None
#     Edge 25, Type (0, 1), None
#     Edge 26, Type (0, 1), None
#     Edge 27, Type (0, 1), None
#     Edge 28, Type (0, 1), None
#     Edge 29, Type (0, 1), None
#     Edge 30, Type (0, 1), None
#     Edge 31, Type (0, 1), None
#     Edge 32, Type (0, 1), None
#     Edge 33, Type (0, 1), None
#     Edge 34, Type (0, 1), None
#     Edge 35, Type (0, 1), None
# Relax obj value: 0.210
# Max RMSD: 0.232
# Mean RMSD: 0.185
data_MOF--net-zzz--node1-CUKXOW_clean_sbu_0--node2-VETTIZ_charged_linker_0--edge1-none
_symmetry_space_group_name_H-M    P1
_symmetry_Int_Tables_number       1
_symmetry_cell_setting            triclinic
loop_
_symmetry_equiv_pos_as_xyz
'x, y, z'
_cell_length_a     30.047692
_cell_length_b     31.492206
_cell_length_c     11.635758
_cell_angle_alpha  94.385814
_cell_angle_beta   85.571452
_cell_angle_gamma 96.151589
loop_
_atom_site_label
_atom_site_type_symbol
_atom_site_fract_x
_atom_site_fract_y
_atom_site_fract_z
_atom_type_partial_charge
C0 C 0.82562 0.52882 0.49067 0.0
C1 C 0.8514 0.50457 0.55459 0.0
C2 C 0.84221 0.45954 0.54832 0.0
C3 C 0.79953 0.46392 0.38519 0.0
C4 C 0.7963 0.50659 0.41111 0.0
C5 C 0.7667 0.52235 0.32528 0.0
H6 H 0.67975 0.48609 0.79652 0.0
C7 C 0.78815 0.45323 0.26695 0.0
C8 C 0.75868 0.48219 0.24142 0.0
H9 H 0.59462 0.50722 0.10701 0.0
H10 H 0.65797 0.50117 0.22529 0.0
H11 H 0.78582 0.53561 0.90582 0.0
H12 H 0.71289 0.40908 0.87909 0.0
H13 H 0.77065 0.40497 0.85033 0.0
H14 H 0.74138 0.43273 0.75427 0.0
H15 H 0.76879 0.50947 0.77107 0.0
H16 H 0.81834 0.4972 0.83131 0.0
C17 C 0.79173 0.56022 0.26268 0.0
C18 C 0.72286 0.53516 0.38869 0.0
C19 C 0.93139 0.43887 0.02061 0.0
C20 C 0.94201 0.44465 0.90365 0.0
C21 C 0.9076 0.43846 0.82692 0.0
C22 C 0.8625 0.43486 0.86931 0.0
C23 C 0.85235 0.43663 0.98915 0.0
C24 C 0.88622 0.43502 0.06209 0.0
C25 C 0.86906 0.43439 0.18636 0.0
C26 C 0.81921 0.43954 0.17662 0.0
C27 C 0.81062 0.4431 0.06048 0.0
C28 C 0.8943 0.47236 0.25568 0.0
C29 C 0.87666 0.39087 0.22979 0.0
C30 C 0.6752 0.49179 0.88951 0.0
C31 C 0.633 0.50031 0.94185 0.0
C32 C 0.62736 0.50376 0.06412 0.0
C33 C 0.66374 0.50095 0.13251 0.0
C34 C 0.70589 0.49416 0.07804 0.0
C35 C 0.71064 0.48753 0.95889 0.0
C36 C 0.75444 0.46969 0.91931 0.0
C37 C 0.77245 0.46289 0.03497 0.0
C38 C 0.74598 0.48116 0.12599 0.0
C39 C 0.78365 0.50457 0.85303 0.0
C40 C 0.74467 0.42699 0.84614 0.0
H41 H 0.81368 0.40433 0.44747 0.0
H42 H 0.83069 0.56343 0.49642 0.0
H43 H 0.70237 0.50678 0.42304 0.0
H44 H 0.70284 0.55034 0.33007 0.0
H45 H 0.73024 0.55885 0.46232 0.0
H46 H 0.82385 0.5512 0.21867 0.0
H47 H 0.79921 0.58823 0.32471 0.0
H48 H 0.77098 0.57017 0.19637 0.0
H49 H 0.95787 0.43999 0.07906 0.0
H50 H 0.91568 0.43848 0.73474 0.0
H51 H 0.83729 0.43222 0.80802 0.0
H52 H 0.93114 0.47427 0.23719 0.0
H53 H 0.88996 0.46895 0.34908 0.0
H54 H 0.88304 0.50334 0.23624 0.0
H55 H 0.91227 0.38438 0.21175 0.0
H56 H 0.85516 0.36444 0.18641 0.0
H57 H 0.86964 0.39001 0.32398 0.0
H58 H 0.86015 0.44024 0.5982 0.0
C59 C 0.81673 0.43881 0.46102 0.0
C60 C 0.05295 0.89198 0.8904 0.0
C61 C 0.0384 0.93276 0.92265 0.0
C62 C 0.99978 0.9358 -0.00293 0.0
C63 C 0.99259 0.86029 0.01657 0.0
C64 C 0.02995 0.85595 0.94193 0.0
C65 C 0.04036 0.80971 0.9286 0.0
H66 H 0.97112 0.6077 0.09207 0.0
C67 C 0.98096 0.82073 0.07476 0.0
C68 C 1.00837 0.79008 0.02347 0.0
H69 H 0.0622 0.64389 0.802 0.0
H70 H 0.06537 0.71826 0.87391 0.0
H71 H 0.02648 0.69453 0.30433 0.0
H72 H 0.90525 0.69164 0.11935 0.0
H73 H 0.9026 0.69882 0.27472 0.0
H74 H 0.91182 0.64738 0.20412 0.0
H75 H 0.98935 0.64566 0.2979 0.0
H76 H 0.97156 0.6916 0.381 0.0
C77 C 0.09004 0.80753 0.95036 0.0
C78 C 0.02788 0.79174 0.80735 0.0
C79 C 0.91584 0.84321 0.47919 0.0
C80 C 0.94895 0.84424 0.55794 0.0
C81 C 0.97769 0.81125 0.54563 0.0
C82 C 0.9756 0.78048 0.45088 0.0
C83 C 0.94832 0.78574 0.36116 0.0
C84 C 0.92387 0.82114 0.37177 0.0
C85 C 0.93049 0.84469 0.26211 0.0
C86 C 0.95735 0.81445 0.18318 0.0
C87 C 0.96195 0.77768 0.23821 0.0
C88 C 0.95753 0.88968 0.28642 0.0
C89 C 0.88388 0.84721 0.2176 0.0
C90 C 0.9912 0.63188 0.04393 0.0
C91 C 1.01517 0.62034 0.93884 0.0
C92 C 0.04237 0.65231 0.88067 0.0
C93 C 0.04341 0.69546 0.92061 0.0
C94 C 1.01659 0.70708 0.01937 0.0
C95 C 0.9933 0.6756 0.08436 0.0
C96 C 0.97059 0.69519 0.19388 0.0
C97 C 0.98172 0.74292 0.17737 0.0
C98 C 1.00624 0.74946 0.07149 0.0
C99 C 0.99081 0.68113 0.30054 0.0
C100 C 0.91957 0.68248 0.19814 0.0
H101 H 0.94242 0.90271 0.07828 0.0
H102 H 0.08188 0.88859 0.83021 0.0
H103 H 0.02472 0.75665 0.79583 0.0
H104 H 0.05318 0.80467 0.7408 0.0
H105 H 0.99438 0.80093 0.79055 0.0
H106 H 0.09876 0.82704 0.03078 0.0
H107 H 0.11248 0.82013 0.87762 0.0
H108 H 0.09755 0.77464 0.962 0.0
H109 H 0.89534 0.86966 0.48271 0.0
H110 H 1.00556 0.81258 0.59886 0.0
H111 H 1.00149 0.75897 0.43774 0.0
H112 H 0.96527 0.89789 0.37703 0.0
H113 H 0.93903 0.91626 0.2644 0.0
H114 H 0.99158 0.89172 0.24212 0.0
H115 H 0.86458 0.81501 0.21283 0.0
H116 H 0.886 0.85874 0.12977 0.0
H117 H 0.86432 0.8687 0.27705 0.0
H118 H 0.98861 0.96645 0.02572 0.0
C119 C 0.97442 0.89929 0.0337 0.0
C120 C 0.89998 0.0095 0.07166 0.0
C121 C 0.91595 0.02689 0.96472 0.0
C122 C 0.88918 0.05308 0.9139 0.0
C123 C 0.82883 0.03835 0.05956 0.0
C124 C 0.85629 0.01698 0.12016 0.0
C125 C 0.83075 0.0009 0.23037 0.0
H126 H 0.6277 0.92857 0.47565 0.0
C127 C 0.78266 0.0319 0.11175 0.0
C128 C 0.78324 0.01224 0.21621 0.0
H129 H 0.69984 0.03554 0.64953 0.0
H130 H 0.76141 0.03448 0.4966 0.0
H131 H 0.63533 0.01772 0.39758 0.0
H132 H 0.67709 0.90308 0.20861 0.0
H133 H 0.64108 0.92737 0.12668 0.0
H134 H 0.62056 0.90775 0.26504 0.0
H135 H 0.59391 0.97831 0.33642 0.0
H136 H 0.6235 0.02265 0.2621 0.0
C137 C 0.8505 0.0249 0.33778 0.0
C138 C 0.83175 0.95231 0.23376 0.0
C139 C 0.65164 0.06002 0.88513 0.0
C140 C 0.60531 0.0485 0.90586 0.0
C141 C 0.58965 0.0229 -0.00405 0.0
C142 C 0.61932 0.00405 0.05575 0.0
C143 C 0.66517 0.01749 0.04101 0.0
C144 C 0.68109 0.04471 0.95633 0.0
C145 C 0.7314 0.05426 0.95375 0.0
C146 C 0.74149 0.03271 0.06014 0.0
C147 C 0.70253 0.01089 0.10862 0.0
C148 C 0.74291 0.10342 0.96769 0.0
C149 C 0.75199 0.03244 0.84089 0.0
C150 C 0.65895 0.94871 0.48642 0.0
C151 C 0.66052 0.97918 0.58004 0.0
C152 C 0.69908 0.0093 0.58413 0.0
C153 C 0.73421 0.00903 0.49458 0.0
C154 C 0.72796 0.98267 0.39223 0.0
C155 C 0.68652 0.9581 0.38664 0.0
C156 C 0.66479 0.9676 0.28031 0.0
C157 C 0.70285 0.99202 0.21428 0.0
C158 C 0.74151 0.9968 0.2743 0.0
C159 C 0.62686 0.99718 0.31933 0.0
C160 C 0.64959 0.92437 0.21615 0.0
H161 H 0.82649 0.0775 0.91395 0.0
H162 H 0.92032 0.99009 0.1145 0.0
H163 H 0.81793 0.93513 0.15515 0.0
H164 H 0.8115 0.94031 0.31079 0.0
H165 H 0.86669 0.94448 0.2382 0.0
H166 H 0.84788 0.05984 0.33753 0.0
H167 H 0.88649 0.01991 0.33992 0.0
H168 H 0.83247 0.01304 0.4178 0.0
H169 H 0.66448 0.07965 0.81508 0.0
H170 H 0.55406 0.01636 0.01713 0.0
H171 H 0.60486 0.98096 0.11424 0.0
H172 H 0.71856 0.11817 0.03149 0.0
H173 H 0.74156 0.11812 0.88439 0.0
H174 H 0.77614 0.11289 0.00164 0.0
H175 H 0.7826 0.01739 0.85364 0.0
H176 H 0.75984 0.05541 0.77263 0.0
H177 H 0.72888 0.00521 0.80699 0.0
H178 H 0.90097 0.06743 0.83385 0.0
C179 C 0.84591 0.05881 0.9603 0.0
C180 C 0.56238 0.69393 0.56353 0.0
C181 C 0.59264 0.66293 0.57337 0.0
C182 C 0.63032 0.66137 0.49303 0.0
C183 C 0.5941 0.70215 0.3707 0.0
C184 C 0.566 0.71573 0.46118 0.0
C185 C 0.53637 0.74677 0.4197 0.0
H186 H 0.49829 0.82577 0.89978 0.0
C187 C 0.57651 0.71111 0.26401 0.0
C188 C 0.55123 0.74602 0.28998 0.0
H189 H 0.55313 0.90802 0.17845 0.0
H190 H 0.55343 0.84505 0.29452 0.0
H191 H 0.55807 0.75102 0.90012 0.0
H192 H 0.43074 0.71337 0.06251 0.0
H193 H 0.43415 0.73404 0.92143 0.0
H194 H 0.42641 0.7684 0.04919 0.0
H195 H 0.50861 0.75678 0.82689 0.0
H196 H 0.51901 0.70585 0.86793 0.0
C197 C 0.54625 0.7913 0.48129 0.0
C198 C 0.4864 0.73021 0.44014 0.0
C199 C 0.52404 0.57337 0.03424 0.0
C200 C 0.49194 0.56474 0.95226 0.0
C201 C 0.4688 0.59778 0.91944 0.0
C202 C 0.47802 0.63948 0.96727 0.0
C203 C 0.51215 0.64813 0.04378 0.0
C204 C 0.53418 0.61556 0.07815 0.0
C205 C 0.56868 0.63155 0.1631 0.0
C206 C 0.56132 0.67908 0.17864 0.0
C207 C 0.52872 0.68772 0.10654 0.0
C208 C 0.61558 0.62487 0.10574 0.0
C209 C 0.55819 0.60744 0.27466 0.0
C210 C 0.50935 0.83047 0.98669 0.0
C211 C 0.5272 0.87082 0.02962 0.0
C212 C 0.54038 0.87658 0.14397 0.0
C213 C 0.53956 0.84101 0.21116 0.0
C214 C 0.5227 0.80059 0.16474 0.0
C215 C 0.5075 0.79585 0.05475 0.0
C216 C 0.49599 0.74987 0.01457 0.0
C217 C 0.51378 0.72853 0.1115 0.0
C218 C 0.5252 0.75781 0.20366 0.0
C219 C 0.52172 0.7402 0.89607 0.0
C220 C 0.44425 0.74085 0.01139 0.0
H221 H 0.65634 0.67494 0.32093 0.0
H222 H 0.53436 0.69743 0.6266 0.0
H223 H 0.47957 0.69744 0.39828 0.0
H224 H 0.46483 0.75158 0.40346 0.0
H225 H 0.47658 0.72918 0.534 0.0
H226 H 0.58125 0.80487 0.45859 0.0
H227 H 0.54187 0.78937 0.57658 0.0
H228 H 0.52271 0.81347 0.45727 0.0
H229 H 0.5422 0.54817 0.059 0.0
H230 H 0.44412 0.59138 0.85546 0.0
H231 H 0.45949 0.66372 0.94036 0.0
H232 H 0.62177 0.6416 0.02435 0.0
H233 H 0.6187 0.59037 0.08441 0.0
H234 H 0.64241 0.63707 0.1627 0.0
H235 H 0.54835 0.57279 0.25521 0.0
H236 H 0.5303 0.6207 0.32953 0.0
H237 H 0.5879 0.60858 0.32531 0.0
H238 H 0.65564 0.64002 0.50201 0.0
C239 C 0.63052 0.6803 0.38842 0.0
C240 C 0.40881 0.50043 0.39631 0.0
C241 C 0.41491 0.49805 0.51574 0.0
C242 C 0.37722 0.49768 0.59518 0.0
C243 C 0.3294 0.50685 0.44343 0.0
C244 C 0.36498 0.50367 0.36135 0.0
C245 C 0.34947 0.50761 0.24063 0.0
H246 H 0.19029 0.57509 0.93202 0.0
C247 C 0.29061 0.51849 0.38816 0.0
C248 C 0.30063 0.51726 0.26886 0.0
H249 H 0.20857 0.44093 0.91436 0.0
H250 H 0.26629 0.4563 0.05715 0.0
H251 H 0.14627 0.56016 0.09888 0.0
H252 H 0.2679 0.63367 0.12205 0.0
H253 H 0.2241 0.64795 0.22655 0.0
H254 H 0.21341 0.64068 0.07581 0.0
H255 H 0.14774 0.60106 0.20537 0.0
H256 H 0.15405 0.54629 0.23823 0.0
C257 C 0.3526 0.46526 0.16706 0.0
C258 C 0.37744 0.54482 0.18175 0.0
C259 C 0.13939 0.54054 0.57234 0.0
C260 C 0.10562 0.56423 0.54163 0.0
C261 C 0.11717 0.59851 0.47045 0.0
C262 C 0.16125 0.6059 0.42131 0.0
C263 C 0.19188 0.57692 0.43832 0.0
C264 C 0.18304 0.54892 0.52371 0.0
C265 C 0.22427 0.52834 0.54596 0.0
C266 C 0.25393 0.53968 0.43836 0.0
C267 C 0.2331 0.5664 0.37226 0.0
C268 C 0.21336 0.47943 0.55169 0.0
C269 C 0.24345 0.55055 0.65802 0.0
C270 C 0.20837 0.54901 0.95295 0.0
C271 C 0.19494 0.50709 0.91099 0.0
C272 C 0.21815 0.47376 0.94462 0.0
C273 C 0.25171 0.48268 0.02548 0.0
C274 C 0.25921 0.52432 0.07937 0.0
C275 C 0.2326 0.55497 0.05149 0.0
C276 C 0.21612 0.58081 0.15818 0.0
C277 C 0.24137 0.56348 0.25031 0.0
C278 C 0.27131 0.53515 0.19951 0.0
C279 C 0.16381 0.57166 0.1772 0.0
C280 C 0.23118 0.62856 0.14497 0.0
H281 H 0.30736 0.50194 0.62374 0.0
H282 H 0.43718 0.50015 0.33308 0.0
H283 H 0.37587 0.57524 0.23639 0.0
H284 H 0.36455 0.54916 0.09687 0.0
H285 H 0.41317 0.53842 0.16662 0.0
H286 H 0.3298 0.43905 0.20526 0.0
H287 H 0.38744 0.45602 0.16174 0.0
H288 H 0.34356 0.46848 0.07769 0.0
H289 H 0.13138 0.51418 0.62611 0.0
H290 H 0.09212 0.61874 0.45116 0.0
H291 H 0.17026 0.63231 0.36759 0.0
H292 H 0.19614 0.46542 0.47424 0.0
H293 H 0.19129 0.47175 0.62983 0.0
H294 H 0.24419 0.46332 0.55513 0.0
H295 H 0.27542 0.57083 0.63932 0.0
H296 H 0.24965 0.52692 0.71918 0.0
H297 H 0.22006 0.57181 0.70609 0.0
H298 H 0.38088 0.49508 0.6863 0.0
C299 C 0.33481 0.50236 0.55981 0.0
C300 C 0.99796 0.12219 0.57026 0.0
C301 C 1.01365 0.08178 0.53887 0.0
C302 C 0.05278 0.07961 0.46698 0.0
C303 C 0.05861 0.15479 0.44653 0.0
C304 C 1.02068 0.1586 0.51942 0.0
C305 C 1.00879 0.20443 0.52919 0.0
H306 H 0.07973 0.40596 0.36485 0.0
C307 C 0.06935 0.19382 0.38593 0.0
C308 C 0.04093 0.22408 0.43404 0.0
H309 H 0.98236 0.37034 0.64302 0.0
H310 H 0.98025 0.29595 0.57192 0.0
H311 H 0.14487 0.321 0.34337 0.0
H312 H 0.02643 0.31967 0.1483 0.0
H313 H 0.08209 0.32194 0.07591 0.0
H314 H 0.06409 0.36817 0.15732 0.0
H315 H 0.14 0.36557 0.25817 0.0
H316 H 0.14936 0.31409 0.18792 0.0
C317 C 1.01979 0.22358 0.65056 0.0
C318 C 0.95912 0.20486 0.50491 0.0
C319 C 0.1382 0.16915 0.98589 0.0
C320 C 0.10718 0.1686 0.90194 0.0
C321 C 0.07923 0.20219 0.9089 0.0
C322 C 0.07936 0.23276 0.00447 0.0
C323 C 0.10437 0.22717 0.09856 0.0
C324 C 0.12863 0.1917 0.0917 0.0
C325 C 0.12093 0.16888 0.20226 0.0
C326 C 0.09352 0.19954 0.278 0.0
C327 C 0.08907 0.23576 0.22053 0.0
C328 C 0.16706 0.16643 0.25018 0.0
C329 C 0.09377 0.12392 0.17783 0.0
C330 C 0.0588 0.38187 0.4114 0.0
C331 C 0.03271 0.39368 0.51293 0.0
C332 C 1.00403 0.3618 0.56779 0.0
C333 C 1.00365 0.3186 0.52887 0.0
C334 C 0.03244 0.30679 0.43433 0.0
C335 C 0.05702 0.33811 0.37133 0.0
C336 C 0.08069 0.31832 0.26348 0.0
C337 C 0.06867 0.27063 0.27914 0.0
C338 C 0.04296 0.2643 0.38375 0.0
C339 C 0.13173 0.33049 0.26334 0.0
C340 C 0.0621 0.33266 0.15487 0.0
H341 H 0.10979 0.11312 0.38673 0.0
H342 H 0.96843 0.12496 0.62871 0.0
H343 H 0.95131 0.18422 0.42564 0.0
H344 H 0.9508 0.23718 0.48989 0.0
H345 H 0.93667 0.19263 0.57811 0.0
H346 H 0.05563 0.22094 0.66358 0.0
H347 H 0.9984 0.20607 0.71744 0.0
H348 H 1.01491 0.25761 0.6662 0.0
H349 H 0.15813 0.1424 0.98598 0.0
H350 H 0.05343 0.20162 0.84951 0.0
H351 H 0.05388 0.25474 0.01329 0.0
H352 H 0.18831 0.19747 0.24407 0.0
H353 H 0.18517 0.14126 0.20028 0.0
H354 H 0.16419 0.15993 0.34267 0.0
H355 H 0.08558 0.11614 0.08723 0.0
H356 H 0.05986 0.12172 0.22289 0.0
H357 H 0.11235 0.09725 0.19916 0.0
H358 H 0.06421 0.04927 0.43926 0.0
C359 C 0.07771 0.11629 0.43107 0.0
C360 C 0.36345 0.00529 0.91026 0.0
C361 C 0.40487 0.0317 0.89309 0.0
C362 C 0.41428 0.06689 0.97295 0.0
C363 C 0.35322 0.0393 0.10097 0.0
C364 C 0.33607 0.01217 0.01412 0.0
C365 C 0.2919 0.9885 0.06071 0.0
H366 H 0.16958 0.95919 0.59286 0.0
C367 C 0.3315 0.02629 0.21105 0.0
C368 C 0.28907 0.00488 0.18967 0.0
H369 H 0.11477 0.02055 0.32397 0.0
H370 H 0.18554 0.01685 0.20311 0.0
H371 H 0.21642 0.89058 0.45588 0.0
H372 H 0.26821 0.01451 0.58195 0.0
H373 H 0.29893 0.97219 0.61709 0.0
H374 H 0.24091 0.97023 0.65866 0.0
H375 H 0.25537 0.89638 0.56527 0.0
H376 H 0.27468 0.89045 0.41504 0.0
C377 C 0.29427 0.93973 0.04631 0.0
C378 C 0.25246 0.00106 -0.00126 0.0
C379 C 0.44573 0.98195 0.46719 0.0
C380 C 0.44267 0.9508 0.5475 0.0
C381 C 0.4016 0.92544 0.56783 0.0
C382 C 0.36367 0.9328 0.51293 0.0
C383 C 0.36659 0.9668 0.44125 0.0
C384 C 0.40726 0.98966 0.41501 0.0
C385 C 0.40421 0.02118 0.32561 0.0
C386 C 0.35499 0.01172 0.29958 0.0
C387 C 0.33344 0.98131 0.37226 0.0
C388 C 0.43788 0.01167 0.22135 0.0
C389 C 0.41289 0.06671 0.3827 0.0
C390 C 0.17218 0.97093 0.50726 0.0
C391 C 0.13666 0.99046 0.46981 0.0
C392 C 0.14144 0.00578 0.35715 0.0
C393 C 0.18174 0.00307 0.28604 0.0
C394 C 0.21696 0.98399 0.32677 0.0
C395 C 0.21196 0.96863 0.43619 0.0
C396 C 0.25502 0.95505 0.47175 0.0
C397 C 0.28699 0.96999 0.37134 0.0
C398 C 0.26433 0.98273 0.28112 0.0
C399 C 0.25023 0.90565 0.47738 0.0
C400 C 0.26654 0.97932 0.58853 0.0
H401 H 0.39853 0.09548 0.14259 0.0
H402 H 0.35461 0.97857 0.84932 0.0
H403 H 0.24967 0.03602 0.01305 0.0
H404 H 0.22046 0.98356 0.03123 0.0
H405 H 0.25723 0.99298 0.90419 0.0
H406 H 0.32323 0.93079 0.08995 0.0
H407 H 0.29812 0.92866 0.95343 0.0
H408 H 0.2631 0.92251 0.0848 0.0
H409 H 0.47722 -0.00016 0.44611 0.0
H410 H 0.3986 0.90037 0.62755 0.0
H411 H 0.33321 0.9125 0.5289 0.0
H412 H 0.42329 0.98563 0.16125 0.0
H413 H 0.46955 0.00162 0.24846 0.0
H414 H 0.44874 0.0403 0.17363 0.0
H415 H 0.44611 0.07119 0.41842 0.0
H416 H 0.38748 0.07239 0.45544 0.0
H417 H 0.41172 0.09151 0.32128 0.0
H418 H 0.44491 0.08812 0.96111 0.0
C419 C 0.38846 0.07073 0.07797 0.0
C420 C 0.48807 0.30465 0.86891 0.0
C421 C 0.45873 0.33635 0.8578 0.0
C422 C 0.42082 0.33877 0.93715 0.0
C423 C 0.45573 0.29777 0.06153 0.0
C424 C 0.48353 0.28311 0.9718 0.0
C425 C 0.51191 0.25126 0.01464 0.0
H426 H 0.56265 0.17471 0.52317 0.0
C427 C 0.47284 0.28899 0.16886 0.0
C428 C 0.49723 0.25334 0.14455 0.0
H429 H 0.50221 0.0911 0.25478 0.0
H430 H 0.49602 0.15353 0.14228 0.0
H431 H 0.61761 0.293 0.36859 0.0
H432 H 0.49749 0.24002 0.53906 0.0
H433 H 0.52792 0.2907 0.56307 0.0
H434 H 0.55043 0.24424 0.60357 0.0
H435 H 0.62666 0.2384 0.35789 0.0
H436 H 0.62034 0.26546 0.49808 0.0
C437 C 0.56228 0.26607 0.9931 0.0
C438 C 0.50029 0.20666 0.95501 0.0
C439 C 0.52904 0.42685 0.3938 0.0
C440 C 0.56016 0.43459 0.47868 0.0
C441 C 0.58057 0.4007 0.51669 0.0
C442 C 0.56965 0.35902 0.47177 0.0
C443 C 0.53714 0.35126 0.39058 0.0
C444 C 0.51756 0.38461 0.35148 0.0
C445 C 0.48388 0.36938 0.26383 0.0
C446 C 0.48826 0.32109 0.25399 0.0
C447 C 0.51968 0.31174 0.32869 0.0
C448 C 0.49817 0.39147 0.15057 0.0
C449 C 0.43711 0.37991 0.31447 0.0
C450 C 0.54981 0.16946 0.43816 0.0
C451 C 0.53215 0.12874 0.39805 0.0
C452 C 0.51567 0.12256 0.2869 0.0
C453 C 0.51304 0.158 0.22126 0.0
C454 C 0.5296 0.19884 0.26547 0.0
C455 C 0.54771 0.20403 0.37214 0.0
C456 C 0.55624 0.25013 0.4146 0.0
C457 C 0.53418 0.27069 0.32361 0.0
C458 C 0.52264 0.24144 0.23192 0.0
C459 C 0.60776 0.26253 0.41024 0.0
C460 C 0.532 0.25689 0.53662 0.0
H461 H 0.39391 0.32596 0.10924 0.0
H462 H 0.51612 0.3004 0.80645 0.0
H463 H 0.46525 0.19396 0.98053 0.0
H464 H 0.52357 0.18399 0.97749 0.0
H465 H 0.50369 0.20814 0.85952 0.0
H466 H 0.57034 0.29893 0.0332 0.0
H467 H 0.57203 0.26615 0.89904 0.0
H468 H 0.58296 0.24419 0.03092 0.0
H469 H 0.5124 0.45275 0.36586 0.0
H470 H 0.60413 0.40641 0.58359 0.0
H471 H 0.58574 0.33433 0.50509 0.0
H472 H 0.52723 0.3772 0.10359 0.0
H473 H 0.50789 0.42628 0.16764 0.0
H474 H 0.47043 0.38946 0.09305 0.0
H475 H 0.4277 0.36393 0.3961 0.0
H476 H 0.41095 0.36971 0.25404 0.0
H477 H 0.43665 0.41496 0.33349 0.0
H478 H 0.39606 0.36056 0.92695 0.0
C479 C 0.41991 0.3202 0.04248 0.0
Tb480 Tb 1.00052 0.96664 0.66993 0.0
C481 C 0.09713 0.99683 0.55362 0.0
Tb482 Tb 0.05584 0.04665 0.78515 0.0
O483 O 0.98947 0.00522 0.52645 0.0
O484 O 0.99907 0.03363 0.68886 0.0
O485 O 0.06332 0.96578 0.55916 0.0
C486 C 0.09423 0.12661 0.83887 0.0
O487 O 0.0993 0.03176 0.62713 0.0
C488 C 0.05964 0.97213 0.87283 0.0
C489 C 0.95822 0.01715 0.8971 0.0
O490 O 0.10875 0.09083 0.86145 0.0
O491 O 0.05797 0.11703 0.7844 0.0
O492 O 0.06392 0.00899 0.93233 0.0
O493 O 0.05653 0.97954 0.76947 0.0
O494 O 0.99133 0.04879 0.88771 0.0
O495 O 0.95709 0.98112 0.82797 0.0
C496 C 0.96257 0.88627 0.61979 0.0
O497 O 0.94634 0.92175 0.60196 0.0
O498 O 1.00035 0.8964 0.6671 0.0
C499 C 0.99371 0.04179 0.5875 0.0
Tb500 Tb 0.52871 0.03907 0.63974 0.0
C501 C 0.61617 0.98883 0.63802 0.0
Tb502 Tb 0.52832 0.96317 0.79768 0.0
O503 O 0.58266 0.07599 0.73235 0.0
O504 O 0.53776 0.03089 0.81232 0.0
O505 O 0.59211 0.0128 0.58234 0.0
C506 C 0.53309 0.9053 0.95045 0.0
O507 O 0.59925 0.96829 0.72988 0.0
C508 C 0.48029 0.94655 0.61776 0.0
C509 C 0.44416 0.01704 0.82038 0.0
O510 O 0.53917 0.89903 0.83907 0.0
O511 O 0.52541 0.94463 0.97686 0.0
O512 O 0.47458 0.92545 0.70967 0.0
O513 O 0.516 0.9715 0.62385 0.0
O514 O 0.46829 0.99159 0.87069 0.0
O515 O 0.45945 0.03675 0.72473 0.0
C516 C 0.52721 0.09521 0.48042 0.0
O517 O 0.51916 0.10258 0.59098 0.0
O518 O 0.53418 0.05544 0.45787 0.0
C519 C 0.5729 0.05567 0.82495 0.0
Tb520 Tb 0.54654 0.54333 0.67331 0.0
C521 C 0.45914 0.49754 0.56492 0.0
Tb522 Tb 0.50752 0.45545 0.75869 0.0
O523 O 0.56162 0.51243 0.50136 0.0
O524 O 0.56219 0.47978 0.65016 0.0
O525 O 0.48314 0.53491 0.58807 0.0
C526 C 0.47335 0.37479 0.79413 0.0
O527 O 0.46668 0.46179 0.61174 0.0
C528 C 0.48714 0.52317 0.88855 0.0
C529 C 0.59438 0.50014 0.86842 0.0
O530 O 0.45214 0.4088 0.80897 0.0
O531 O 0.5145 0.38633 0.7569 0.0
O532 O 0.49176 0.48692 0.92999 0.0
O533 O 0.49166 0.51906 0.78079 0.0
O534 O 0.57001 0.46303 0.84602 0.0
O535 O 0.58774 0.53604 0.82041 0.0
C536 C 0.57929 0.62433 0.63735 0.0
O537 O 0.60094 0.59063 0.62061 0.0
O538 O 0.5386 0.6123 0.6772 0.0
C539 C 0.56609 0.47604 0.5422 0.0
Tb540 Tb 0.98 0.51777 0.66156 0.0
C541 C 0.03359 0.43822 0.5657 0.0
Tb542 Tb 0.06651 0.49586 0.78714 0.0
O543 O 0.02364 0.55036 0.52509 0.0
O544 O 0.04685 0.54084 0.68252 0.0
O545 O 0.99417 0.45477 0.58012 0.0
C546 C 0.15171 0.50035 0.85323 0.0
O547 O 0.06895 0.45386 0.62501 0.0
C548 C 0.98796 0.46026 0.86372 0.0
C549 C 1.01243 0.57618 0.88354 0.0
O550 O 0.12461 0.46528 0.84126 0.0
O551 O 0.13037 0.53175 0.82842 0.0
O552 O 0.02272 0.46614 0.92601 0.0
O553 O 0.99984 0.47112 0.76383 0.0
O554 O 0.04877 0.55524 0.88464 0.0
O555 O 0.98023 0.5654 0.81048 0.0
C556 C 0.89488 0.52217 0.6009 0.0
O557 O 0.90664 0.51474 0.70224 0.0
O558 O 0.93169 0.52688 0.53438 0.0
C559 C 0.05898 0.55293 0.58434 0.0
loop_
_geom_bond_atom_site_label_1
_geom_bond_atom_site_label_2
_geom_bond_distance
_geom_bond_site_symmetry_2
_ccdc_geom_bond_type
C0 C1 1.391 . S
C0 C4 1.391 . S
C0 H42 0.948 . S
C1 C0 1.391 . S
C1 C2 1.391 . S
C2 C1 1.391 . S
C2 H58 0.947 . S
C2 C59 1.392 . S
C3 C4 1.391 . S
C3 C7 1.397 . S
C3 C59 1.419 . S
C4 C0 1.391 . S
C4 C3 1.391 . S
C4 C5 1.399 . S
C5 C4 1.399 . S
C5 C8 1.396 . S
C5 C17 1.453 . S
C5 C18 1.684 . S
H6 C30 0.948 . S
C7 C3 1.397 . S
C7 C8 1.394 . S
C7 C26 1.723 . S
C8 C5 1.396 . S
C8 C7 1.394 . S
C8 C38 1.723 . S
H9 C32 0.947 . S
H10 C33 0.948 . S
H11 C39 0.982 . S
H12 C40 0.979 . S
H13 C40 0.980 . S
H14 C40 0.983 . S
H15 C39 0.979 . S
H16 C39 0.977 . S
C17 C5 1.453 . S
C17 H46 0.982 . S
C17 H47 0.979 . S
C17 H48 0.977 . S
C18 C5 1.684 . S
C18 H43 0.979 . S
C18 H44 0.980 . S
C18 H45 0.983 . S
C19 C20 1.391 . S
C19 C24 1.391 . S
C19 H49 0.948 . S
C20 C19 1.391 . S
C20 C21 1.391 . S
C21 C20 1.391 . S
C21 C22 1.392 . S
C21 H50 0.947 . S
C22 C21 1.392 . S
C22 C23 1.419 . S
C22 H51 0.948 . S
C23 C22 1.419 . S
C23 C24 1.391 . S
C23 C27 1.397 . S
C24 C19 1.391 . S
C24 C23 1.391 . S
C24 C25 1.399 . S
C25 C24 1.399 . S
C25 C26 1.396 1_556 S
C25 C28 1.453 1_556 S
C25 C29 1.684 1_556 S
C26 C7 1.723 . S
C26 C25 1.396 1_554 S
C26 C27 1.394 1_554 S
C27 C23 1.397 . S
C27 C26 1.394 1_556 S
C27 C37 1.723 . S
C28 C25 1.453 1_554 S
C28 H52 0.982 . S
C28 H53 0.979 . S
C28 H54 0.977 . S
C29 C25 1.684 1_554 S
C29 H55 0.979 . S
C29 H56 0.980 . S
C29 H57 0.983 . S
C30 H6 0.948 . S
C30 C31 1.391 . S
C30 C35 1.391 . S
C31 C30 1.391 . S
C31 C32 1.391 1_556 S
C32 H9 0.947 . S
C32 C31 1.391 1_554 S
C32 C33 1.392 . S
C33 H10 0.948 . S
C33 C32 1.392 . S
C33 C34 1.419 . S
C34 C33 1.419 . S
C34 C35 1.391 1_554 S
C34 C38 1.397 . S
C35 C30 1.391 . S
C35 C34 1.391 1_556 S
C35 C36 1.399 . S
C36 C35 1.399 . S
C36 C37 1.396 . S
C36 C39 1.453 . S
C36 C40 1.684 . S
C37 C27 1.723 . S
C37 C36 1.396 . S
C37 C38 1.394 1_556 S
C38 C8 1.723 . S
C38 C34 1.397 . S
C38 C37 1.394 1_554 S
C39 H11 0.982 . S
C39 H15 0.979 . S
C39 H16 0.977 . S
C39 C36 1.453 . S
C40 H12 0.979 . S
C40 H13 0.980 . S
C40 H14 0.983 . S
C40 C36 1.684 . S
H41 C59 0.948 . S
H42 C0 0.948 . S
H43 C18 0.979 . S
H44 C18 0.980 . S
H45 C18 0.983 . S
H46 C17 0.982 . S
H47 C17 0.979 . S
H48 C17 0.977 . S
H49 C19 0.948 . S
H50 C21 0.947 . S
H51 C22 0.948 . S
H52 C28 0.982 . S
H53 C28 0.979 . S
H54 C28 0.977 . S
H55 C29 0.979 . S
H56 C29 0.980 . S
H57 C29 0.983 . S
H58 C2 0.947 . S
C59 C2 1.392 . S
C59 C3 1.419 . S
C59 H41 0.948 . S
C60 C61 1.391 . S
C60 C64 1.391 . S
C60 H102 0.948 . S
C61 C60 1.391 . S
C61 C62 1.391 . S
C62 C61 1.391 . S
C62 H118 0.947 . S
C62 C119 1.392 . S
C63 C64 1.391 . S
C63 C67 1.397 . S
C63 C119 1.419 . S
C64 C60 1.391 . S
C64 C63 1.391 . S
C64 C65 1.399 . S
C65 C64 1.399 . S
C65 C68 1.396 . S
C65 C77 1.453 . S
C65 C78 1.684 . S
H66 C90 0.948 1_554 S
C67 C63 1.397 . S
C67 C68 1.394 . S
C67 C86 1.723 1_556 S
C68 C65 1.396 . S
C68 C67 1.394 . S
C68 C98 1.723 . S
H69 C92 0.947 . S
H70 C93 0.948 . S
H71 C99 0.982 . S
H72 C100 0.979 . S
H73 C100 0.980 . S
H74 C100 0.983 . S
H75 C99 0.979 . S
H76 C99 0.977 . S
C77 C65 1.453 . S
C77 H106 0.982 . S
C77 H107 0.979 . S
C77 H108 0.977 . S
C78 C65 1.684 . S
C78 H103 0.979 . S
C78 H104 0.980 . S
C78 H105 0.983 . S
C79 C80 1.391 . S
C79 C84 1.391 . S
C79 H109 0.948 . S
C80 C79 1.391 . S
C80 C81 1.391 . S
C81 C80 1.391 . S
C81 C82 1.392 . S
C81 H110 0.947 . S
C82 C81 1.392 . S
C82 C83 1.419 . S
C82 H111 0.948 . S
C83 C82 1.419 . S
C83 C84 1.391 . S
C83 C87 1.397 . S
C84 C79 1.391 . S
C84 C83 1.391 . S
C84 C85 1.399 . S
C85 C84 1.399 . S
C85 C86 1.396 . S
C85 C88 1.453 . S
C85 C89 1.684 . S
C86 C67 1.723 1_554 S
C86 C85 1.396 . S
C86 C87 1.394 . S
C87 C83 1.397 . S
C87 C86 1.394 . S
C87 C97 1.723 . S
C88 C85 1.453 . S
C88 H112 0.982 . S
C88 H113 0.979 . S
C88 H114 0.977 . S
C89 C85 1.684 . S
C89 H115 0.979 . S
C89 H116 0.980 . S
C89 H117 0.983 . S
C90 H66 0.948 1_556 S
C90 C91 1.391 . S
C90 C95 1.391 1_556 S
C91 C90 1.391 . S
C91 C92 1.391 . S
C92 H69 0.947 . S
C92 C91 1.391 . S
C92 C93 1.392 . S
C93 H70 0.948 . S
C93 C92 1.392 . S
C93 C94 1.419 . S
C94 C93 1.419 . S
C94 C95 1.391 1_556 S
C94 C98 1.397 . S
C95 C90 1.391 1_554 S
C95 C94 1.391 1_554 S
C95 C96 1.399 . S
C96 C95 1.399 . S
C96 C97 1.396 . S
C96 C99 1.453 . S
C96 C100 1.684 . S
C97 C87 1.723 . S
C97 C96 1.396 . S
C97 C98 1.394 1_554 S
C98 C68 1.723 . S
C98 C94 1.397 . S
C98 C97 1.394 1_556 S
C99 H71 0.982 . S
C99 H75 0.979 . S
C99 H76 0.977 . S
C99 C96 1.453 . S
C100 H72 0.979 . S
C100 H73 0.980 . S
C100 H74 0.983 . S
C100 C96 1.684 . S
H101 C119 0.948 . S
H102 C60 0.948 . S
H103 C78 0.979 . S
H104 C78 0.980 . S
H105 C78 0.983 . S
H106 C77 0.982 . S
H107 C77 0.979 . S
H108 C77 0.977 . S
H109 C79 0.948 . S
H110 C81 0.947 . S
H111 C82 0.948 . S
H112 C88 0.982 . S
H113 C88 0.979 . S
H114 C88 0.977 . S
H115 C89 0.979 . S
H116 C89 0.980 . S
H117 C89 0.983 . S
H118 C62 0.947 . S
C119 C62 1.392 . S
C119 C63 1.419 . S
C119 H101 0.948 . S
C120 C121 1.391 1_554 S
C120 C124 1.391 . S
C120 H162 0.948 . S
C121 C120 1.391 1_556 S
C121 C122 1.391 . S
C122 C121 1.391 . S
C122 H178 0.947 . S
C122 C179 1.392 . S
C123 C124 1.391 . S
C123 C127 1.397 1_565 S
C123 C179 1.419 1_554 S
C124 C120 1.391 . S
C124 C123 1.391 . S
C124 C125 1.399 . S
C125 C124 1.399 . S
C125 C128 1.396 1_565 S
C125 C137 1.453 1_565 S
C125 C138 1.684 . S
H126 C150 0.948 . S
C127 C123 1.397 1_545 S
C127 C128 1.394 . S
C127 C146 1.723 1_554 S
C128 C125 1.396 1_545 S
C128 C127 1.394 . S
C128 C158 1.723 . S
H129 C152 0.947 . S
H130 C153 0.948 . S
H131 C159 0.982 . S
H132 C160 0.979 . S
H133 C160 0.980 . S
H134 C160 0.983 . S
H135 C159 0.979 . S
H136 C159 0.977 . S
C137 C125 1.453 1_545 S
C137 H166 0.982 . S
C137 H167 0.979 . S
C137 H168 0.977 . S
C138 C125 1.684 . S
C138 H163 0.979 . S
C138 H164 0.980 . S
C138 H165 0.983 . S
C139 C140 1.391 . S
C139 C144 1.391 . S
C139 H169 0.948 . S
C140 C139 1.391 . S
C140 C141 1.391 . S
C141 C140 1.391 . S
C141 C142 1.392 . S
C141 H170 0.947 . S
C142 C141 1.392 . S
C142 C143 1.419 . S
C142 H171 0.948 1_556 S
C143 C142 1.419 . S
C143 C144 1.391 . S
C143 C147 1.397 1_566 S
C144 C139 1.391 . S
C144 C143 1.391 . S
C144 C145 1.399 . S
C145 C144 1.399 . S
C145 C146 1.396 1_565 S
C145 C148 1.453 1_565 S
C145 C149 1.684 . S
C146 C127 1.723 1_556 S
C146 C145 1.396 1_545 S
C146 C147 1.394 1_556 S
C147 C143 1.397 1_544 S
C147 C146 1.394 1_554 S
C147 C157 1.723 . S
C148 C145 1.453 1_545 S
C148 H172 0.982 . S
C148 H173 0.979 . S
C148 H174 0.977 . S
C149 C145 1.684 . S
C149 H175 0.979 . S
C149 H176 0.980 . S
C149 H177 0.983 . S
C150 H126 0.948 . S
C150 C151 1.391 . S
C150 C155 1.391 . S
C151 C150 1.391 . S
C151 C152 1.391 . S
C152 H129 0.947 . S
C152 C151 1.391 . S
C152 C153 1.392 . S
C153 H130 0.948 . S
C153 C152 1.392 . S
C153 C154 1.419 . S
C154 C153 1.419 . S
C154 C155 1.391 . S
C154 C158 1.397 1_565 S
C155 C150 1.391 . S
C155 C154 1.391 . S
C155 C156 1.399 . S
C156 C155 1.399 . S
C156 C157 1.396 1_565 S
C156 C159 1.453 1_565 S
C156 C160 1.684 . S
C157 C147 1.723 . S
C157 C156 1.396 1_545 S
C157 C158 1.395 . S
C158 C128 1.723 . S
C158 C154 1.397 1_545 S
C158 C157 1.395 . S
C159 H131 0.982 . S
C159 H135 0.979 . S
C159 H136 0.977 . S
C159 C156 1.453 1_545 S
C160 H132 0.979 . S
C160 H133 0.980 . S
C160 H134 0.983 . S
C160 C156 1.684 . S
H161 C179 0.948 . S
H162 C120 0.948 . S
H163 C138 0.979 . S
H164 C138 0.980 . S
H165 C138 0.983 . S
H166 C137 0.982 . S
H167 C137 0.979 . S
H168 C137 0.977 . S
H169 C139 0.948 . S
H170 C141 0.947 . S
H171 C142 0.948 1_554 S
H172 C148 0.982 . S
H173 C148 0.979 . S
H174 C148 0.977 . S
H175 C149 0.979 . S
H176 C149 0.980 . S
H177 C149 0.983 . S
H178 C122 0.947 . S
C179 C122 1.392 . S
C179 C123 1.419 1_556 S
C179 H161 0.948 . S
C180 C181 1.391 . S
C180 C184 1.391 . S
C180 H222 0.948 . S
C181 C180 1.391 . S
C181 C182 1.391 . S
C182 C181 1.391 . S
C182 H238 0.947 . S
C182 C239 1.392 . S
C183 C184 1.391 . S
C183 C187 1.397 . S
C183 C239 1.419 . S
C184 C180 1.391 . S
C184 C183 1.391 . S
C184 C185 1.399 . S
C185 C184 1.399 . S
C185 C188 1.396 . S
C185 C197 1.453 . S
C185 C198 1.684 . S
H186 C210 0.948 . S
C187 C183 1.397 . S
C187 C188 1.394 . S
C187 C206 1.723 . S
C188 C185 1.396 . S
C188 C187 1.394 . S
C188 C218 1.723 . S
H189 C212 0.947 . S
H190 C213 0.948 . S
H191 C219 0.982 . S
H192 C220 0.979 . S
H193 C220 0.980 . S
H194 C220 0.983 . S
H195 C219 0.979 . S
H196 C219 0.977 . S
C197 C185 1.453 . S
C197 H226 0.982 . S
C197 H227 0.979 . S
C197 H228 0.977 . S
C198 C185 1.684 . S
C198 H223 0.979 . S
C198 H224 0.980 . S
C198 H225 0.983 . S
C199 C200 1.391 . S
C199 C204 1.391 . S
C199 H229 0.948 . S
C200 C199 1.391 . S
C200 C201 1.391 . S
C201 C200 1.391 . S
C201 C202 1.392 . S
C201 H230 0.947 . S
C202 C201 1.392 . S
C202 C203 1.419 . S
C202 H231 0.948 . S
C203 C202 1.419 . S
C203 C204 1.391 . S
C203 C207 1.397 . S
C204 C199 1.391 . S
C204 C203 1.391 . S
C204 C205 1.399 1_556 S
C205 C204 1.399 1_554 S
C205 C206 1.396 . S
C205 C208 1.453 . S
C205 C209 1.684 . S
C206 C187 1.723 . S
C206 C205 1.396 . S
C206 C207 1.394 1_554 S
C207 C203 1.397 . S
C207 C206 1.394 1_556 S
C207 C217 1.723 . S
C208 C205 1.453 . S
C208 H232 0.982 . S
C208 H233 0.979 . S
C208 H234 0.977 . S
C209 C205 1.684 . S
C209 H235 0.979 . S
C209 H236 0.980 . S
C209 H237 0.983 . S
C210 H186 0.948 . S
C210 C211 1.391 1_556 S
C210 C215 1.391 . S
C211 C210 1.391 1_554 S
C211 C212 1.391 . S
C212 H189 0.947 . S
C212 C211 1.391 . S
C212 C213 1.392 . S
C213 H190 0.948 . S
C213 C212 1.392 . S
C213 C214 1.419 . S
C214 C213 1.419 . S
C214 C215 1.391 1_554 S
C214 C218 1.397 . S
C215 C210 1.391 . S
C215 C214 1.391 1_556 S
C215 C216 1.399 . S
C216 C215 1.399 . S
C216 C217 1.396 . S
C216 C219 1.453 . S
C216 C220 1.684 . S
C217 C207 1.723 . S
C217 C216 1.396 . S
C217 C218 1.394 1_556 S
C218 C188 1.723 . S
C218 C214 1.397 . S
C218 C217 1.394 1_554 S
C219 H191 0.982 . S
C219 H195 0.979 . S
C219 H196 0.977 . S
C219 C216 1.453 . S
C220 H192 0.979 . S
C220 H193 0.980 . S
C220 H194 0.983 . S
C220 C216 1.684 . S
H221 C239 0.948 . S
H222 C180 0.948 . S
H223 C198 0.979 . S
H224 C198 0.980 . S
H225 C198 0.983 . S
H226 C197 0.982 . S
H227 C197 0.979 . S
H228 C197 0.977 . S
H229 C199 0.948 . S
H230 C201 0.947 . S
H231 C202 0.948 . S
H232 C208 0.982 . S
H233 C208 0.979 . S
H234 C208 0.977 . S
H235 C209 0.979 . S
H236 C209 0.980 . S
H237 C209 0.983 . S
H238 C182 0.947 . S
C239 C182 1.392 . S
C239 C183 1.419 . S
C239 H221 0.948 . S
C240 C241 1.391 . S
C240 C244 1.391 . S
C240 H282 0.948 . S
C241 C240 1.391 . S
C241 C242 1.391 . S
C242 C241 1.391 . S
C242 H298 0.947 . S
C242 C299 1.392 . S
C243 C244 1.391 . S
C243 C247 1.397 . S
C243 C299 1.419 . S
C244 C240 1.391 . S
C244 C243 1.391 . S
C244 C245 1.399 . S
C245 C244 1.399 . S
C245 C248 1.396 . S
C245 C257 1.453 . S
C245 C258 1.684 . S
H246 C270 0.948 . S
C247 C243 1.397 . S
C247 C248 1.394 . S
C247 C266 1.723 . S
C248 C245 1.396 . S
C248 C247 1.394 . S
C248 C278 1.723 . S
H249 C272 0.947 . S
H250 C273 0.948 . S
H251 C279 0.982 . S
H252 C280 0.979 . S
H253 C280 0.980 . S
H254 C280 0.983 . S
H255 C279 0.979 . S
H256 C279 0.977 . S
C257 C245 1.453 . S
C257 H286 0.982 . S
C257 H287 0.979 . S
C257 H288 0.977 . S
C258 C245 1.684 . S
C258 H283 0.979 . S
C258 H284 0.980 . S
C258 H285 0.983 . S
C259 C260 1.391 . S
C259 C264 1.391 . S
C259 H289 0.948 . S
C260 C259 1.391 . S
C260 C261 1.391 . S
C261 C260 1.391 . S
C261 C262 1.392 . S
C261 H290 0.947 . S
C262 C261 1.392 . S
C262 C263 1.419 . S
C262 H291 0.948 . S
C263 C262 1.419 . S
C263 C264 1.391 . S
C263 C267 1.397 . S
C264 C259 1.391 . S
C264 C263 1.391 . S
C264 C265 1.399 . S
C265 C264 1.399 . S
C265 C266 1.396 . S
C265 C268 1.453 . S
C265 C269 1.684 . S
C266 C247 1.723 . S
C266 C265 1.396 . S
C266 C267 1.394 . S
C267 C263 1.397 . S
C267 C266 1.394 . S
C267 C277 1.723 . S
C268 C265 1.453 . S
C268 H292 0.982 . S
C268 H293 0.979 . S
C268 H294 0.977 . S
C269 C265 1.684 . S
C269 H295 0.979 . S
C269 H296 0.980 . S
C269 H297 0.983 . S
C270 H246 0.948 . S
C270 C271 1.391 1_554 S
C270 C275 1.391 . S
C271 C270 1.391 1_556 S
C271 C272 1.391 . S
C272 H249 0.947 . S
C272 C271 1.391 . S
C272 C273 1.392 1_556 S
C273 H250 0.948 . S
C273 C272 1.392 1_554 S
C273 C274 1.419 . S
C274 C273 1.419 . S
C274 C275 1.391 . S
C274 C278 1.397 . S
C275 C270 1.391 . S
C275 C274 1.391 . S
C275 C276 1.399 . S
C276 C275 1.399 . S
C276 C277 1.396 . S
C276 C279 1.453 . S
C276 C280 1.684 . S
C277 C267 1.723 . S
C277 C276 1.396 . S
C277 C278 1.394 . S
C278 C248 1.723 . S
C278 C274 1.397 . S
C278 C277 1.394 . S
C279 H251 0.982 . S
C279 H255 0.979 . S
C279 H256 0.977 . S
C279 C276 1.453 . S
C280 H252 0.979 . S
C280 H253 0.980 . S
C280 H254 0.983 . S
C280 C276 1.684 . S
H281 C299 0.948 . S
H282 C240 0.948 . S
H283 C258 0.979 . S
H284 C258 0.980 . S
H285 C258 0.983 . S
H286 C257 0.982 . S
H287 C257 0.979 . S
H288 C257 0.977 . S
H289 C259 0.948 . S
H290 C261 0.947 . S
H291 C262 0.948 . S
H292 C268 0.982 . S
H293 C268 0.979 . S
H294 C268 0.977 . S
H295 C269 0.979 . S
H296 C269 0.980 . S
H297 C269 0.983 . S
H298 C242 0.947 . S
C299 C242 1.392 . S
C299 C243 1.419 . S
C299 H281 0.948 . S
C300 C301 1.391 . S
C300 C304 1.391 . S
C300 H342 0.948 . S
C301 C300 1.391 . S
C301 C302 1.391 . S
C302 C301 1.391 . S
C302 H358 0.947 . S
C302 C359 1.392 . S
C303 C304 1.391 . S
C303 C307 1.397 . S
C303 C359 1.419 . S
C304 C300 1.391 . S
C304 C303 1.391 . S
C304 C305 1.399 . S
C305 C304 1.399 . S
C305 C308 1.396 . S
C305 C317 1.453 . S
C305 C318 1.684 . S
H306 C330 0.948 . S
C307 C303 1.397 . S
C307 C308 1.394 . S
C307 C326 1.723 . S
C308 C305 1.396 . S
C308 C307 1.394 . S
C308 C338 1.723 . S
H309 C332 0.947 . S
H310 C333 0.948 . S
H311 C339 0.982 . S
H312 C340 0.979 . S
H313 C340 0.980 . S
H314 C340 0.983 . S
H315 C339 0.979 . S
H316 C339 0.977 . S
C317 C305 1.453 . S
C317 H346 0.982 . S
C317 H347 0.979 . S
C317 H348 0.977 . S
C318 C305 1.684 . S
C318 H343 0.979 . S
C318 H344 0.980 . S
C318 H345 0.983 . S
C319 C320 1.391 1_554 S
C319 C324 1.391 . S
C319 H349 0.948 . S
C320 C319 1.391 1_556 S
C320 C321 1.391 . S
C321 C320 1.391 . S
C321 C322 1.392 1_556 S
C321 H350 0.947 . S
C322 C321 1.392 1_554 S
C322 C323 1.419 . S
C322 H351 0.948 . S
C323 C322 1.419 . S
C323 C324 1.391 . S
C323 C327 1.397 . S
C324 C319 1.391 . S
C324 C323 1.391 . S
C324 C325 1.399 . S
C325 C324 1.399 . S
C325 C326 1.396 . S
C325 C328 1.453 . S
C325 C329 1.684 . S
C326 C307 1.723 . S
C326 C325 1.396 . S
C326 C327 1.394 . S
C327 C323 1.397 . S
C327 C326 1.394 . S
C327 C337 1.723 . S
C328 C325 1.453 . S
C328 H352 0.982 . S
C328 H353 0.979 . S
C328 H354 0.977 . S
C329 C325 1.684 . S
C329 H355 0.979 . S
C329 H356 0.980 . S
C329 H357 0.983 . S
C330 H306 0.948 . S
C330 C331 1.391 . S
C330 C335 1.391 . S
C331 C330 1.391 . S
C331 C332 1.391 . S
C332 H309 0.947 . S
C332 C331 1.391 . S
C332 C333 1.392 . S
C333 H310 0.948 . S
C333 C332 1.392 . S
C333 C334 1.419 . S
C334 C333 1.419 . S
C334 C335 1.391 . S
C334 C338 1.397 . S
C335 C330 1.391 . S
C335 C334 1.391 . S
C335 C336 1.399 . S
C336 C335 1.399 . S
C336 C337 1.396 . S
C336 C339 1.453 . S
C336 C340 1.684 . S
C337 C327 1.723 . S
C337 C336 1.396 . S
C337 C338 1.394 . S
C338 C308 1.723 . S
C338 C334 1.397 . S
C338 C337 1.394 . S
C339 H311 0.982 . S
C339 H315 0.979 . S
C339 H316 0.977 . S
C339 C336 1.453 . S
C340 H312 0.979 . S
C340 H313 0.980 . S
C340 H314 0.983 . S
C340 C336 1.684 . S
H341 C359 0.948 . S
H342 C300 0.948 . S
H343 C318 0.979 . S
H344 C318 0.980 . S
H345 C318 0.983 . S
H346 C317 0.982 . S
H347 C317 0.979 . S
H348 C317 0.977 . S
H349 C319 0.948 . S
H350 C321 0.947 . S
H351 C322 0.948 . S
H352 C328 0.982 . S
H353 C328 0.979 . S
H354 C328 0.977 . S
H355 C329 0.979 . S
H356 C329 0.980 . S
H357 C329 0.983 . S
H358 C302 0.947 . S
C359 C302 1.392 . S
C359 C303 1.419 . S
C359 H341 0.948 . S
C360 C361 1.391 . S
C360 C364 1.391 1_556 S
C360 H402 0.948 . S
C361 C360 1.391 . S
C361 C362 1.391 . S
C362 C361 1.391 . S
C362 H418 0.947 . S
C362 C419 1.392 1_556 S
C363 C364 1.391 . S
C363 C367 1.397 . S
C363 C419 1.419 . S
C364 C360 1.391 1_554 S
C364 C363 1.391 . S
C364 C365 1.399 . S
C365 C364 1.399 . S
C365 C368 1.396 . S
C365 C377 1.453 1_545 S
C365 C378 1.684 . S
H366 C390 0.948 . S
C367 C363 1.397 . S
C367 C368 1.394 . S
C367 C386 1.723 . S
C368 C365 1.396 . S
C368 C367 1.394 . S
C368 C398 1.723 . S
H369 C392 0.947 . S
H370 C393 0.948 . S
H371 C399 0.982 . S
H372 C400 0.979 . S
H373 C400 0.980 . S
H374 C400 0.983 . S
H375 C399 0.979 . S
H376 C399 0.977 . S
C377 C365 1.453 1_565 S
C377 H406 0.982 . S
C377 H407 0.979 1_554 S
C377 H408 0.977 . S
C378 C365 1.684 . S
C378 H403 0.979 . S
C378 H404 0.980 . S
C378 H405 0.983 1_554 S
C379 C380 1.391 . S
C379 C384 1.391 . S
C379 H409 0.948 . S
C380 C379 1.391 . S
C380 C381 1.391 . S
C381 C380 1.391 . S
C381 C382 1.392 . S
C381 H410 0.947 . S
C382 C381 1.392 . S
C382 C383 1.419 . S
C382 H411 0.948 . S
C383 C382 1.419 . S
C383 C384 1.391 . S
C383 C387 1.397 . S
C384 C379 1.391 . S
C384 C383 1.391 . S
C384 C385 1.399 . S
C385 C384 1.399 . S
C385 C386 1.396 . S
C385 C388 1.453 1_545 S
C385 C389 1.684 . S
C386 C367 1.723 . S
C386 C385 1.396 . S
C386 C387 1.394 . S
C387 C383 1.397 . S
C387 C386 1.394 . S
C387 C397 1.723 . S
C388 C385 1.453 1_565 S
C388 H412 0.982 . S
C388 H413 0.979 . S
C388 H414 0.977 . S
C389 C385 1.684 . S
C389 H415 0.979 . S
C389 H416 0.980 . S
C389 H417 0.983 . S
C390 H366 0.948 . S
C390 C391 1.391 . S
C390 C395 1.391 . S
C391 C390 1.391 . S
C391 C392 1.391 . S
C392 H369 0.947 . S
C392 C391 1.391 . S
C392 C393 1.392 . S
C393 H370 0.948 . S
C393 C392 1.392 . S
C393 C394 1.419 . S
C394 C393 1.419 . S
C394 C395 1.391 . S
C394 C398 1.397 . S
C395 C390 1.391 . S
C395 C394 1.391 . S
C395 C396 1.399 . S
C396 C395 1.399 . S
C396 C397 1.396 . S
C396 C399 1.453 1_545 S
C396 C400 1.684 . S
C397 C387 1.723 . S
C397 C396 1.396 . S
C397 C398 1.394 . S
C398 C368 1.723 . S
C398 C394 1.397 . S
C398 C397 1.394 . S
C399 H371 0.982 . S
C399 H375 0.979 . S
C399 H376 0.977 . S
C399 C396 1.453 1_565 S
C400 H372 0.979 . S
C400 H373 0.980 . S
C400 H374 0.983 . S
C400 C396 1.684 . S
H401 C419 0.948 . S
H402 C360 0.948 . S
H403 C378 0.979 . S
H404 C378 0.980 . S
H405 C378 0.983 1_556 S
H406 C377 0.982 . S
H407 C377 0.979 1_556 S
H408 C377 0.977 . S
H409 C379 0.948 . S
H410 C381 0.947 . S
H411 C382 0.948 . S
H412 C388 0.982 . S
H413 C388 0.979 . S
H414 C388 0.977 . S
H415 C389 0.979 . S
H416 C389 0.980 . S
H417 C389 0.983 . S
H418 C362 0.947 . S
C419 C362 1.392 1_554 S
C419 C363 1.419 . S
C419 H401 0.948 . S
C420 C421 1.391 . S
C420 C424 1.391 1_556 S
C420 H462 0.948 . S
C421 C420 1.391 . S
C421 C422 1.391 1_556 S
C422 C421 1.391 1_554 S
C422 H478 0.947 1_554 S
C422 C479 1.392 . S
C423 C424 1.391 . S
C423 C427 1.397 . S
C423 C479 1.419 . S
C424 C420 1.391 1_554 S
C424 C423 1.391 . S
C424 C425 1.399 . S
C425 C424 1.399 . S
C425 C428 1.396 . S
C425 C437 1.453 . S
C425 C438 1.684 . S
H426 C450 0.948 . S
C427 C423 1.397 . S
C427 C428 1.394 . S
C427 C446 1.723 . S
C428 C425 1.396 . S
C428 C427 1.394 . S
C428 C458 1.723 . S
H429 C452 0.947 . S
H430 C453 0.948 . S
H431 C459 0.982 . S
H432 C460 0.979 . S
H433 C460 0.980 . S
H434 C460 0.983 . S
H435 C459 0.979 . S
H436 C459 0.977 . S
C437 C425 1.453 . S
C437 H466 0.982 . S
C437 H467 0.979 . S
C437 H468 0.977 . S
C438 C425 1.684 . S
C438 H463 0.979 . S
C438 H464 0.980 . S
C438 H465 0.983 . S
C439 C440 1.391 . S
C439 C444 1.391 . S
C439 H469 0.948 . S
C440 C439 1.391 . S
C440 C441 1.391 . S
C441 C440 1.391 . S
C441 C442 1.392 . S
C441 H470 0.947 . S
C442 C441 1.392 . S
C442 C443 1.419 . S
C442 H471 0.948 . S
C443 C442 1.419 . S
C443 C444 1.391 . S
C443 C447 1.397 . S
C444 C439 1.391 . S
C444 C443 1.391 . S
C444 C445 1.399 . S
C445 C444 1.399 . S
C445 C446 1.396 . S
C445 C448 1.453 . S
C445 C449 1.684 . S
C446 C427 1.723 . S
C446 C445 1.396 . S
C446 C447 1.394 . S
C447 C443 1.397 . S
C447 C446 1.394 . S
C447 C457 1.723 . S
C448 C445 1.453 . S
C448 H472 0.982 . S
C448 H473 0.979 . S
C448 H474 0.977 . S
C449 C445 1.684 . S
C449 H475 0.979 . S
C449 H476 0.980 . S
C449 H477 0.983 . S
C450 H426 0.948 . S
C450 C451 1.391 . S
C450 C455 1.391 . S
C451 C450 1.391 . S
C451 C452 1.391 . S
C452 H429 0.947 . S
C452 C451 1.391 . S
C452 C453 1.392 . S
C453 H430 0.948 . S
C453 C452 1.392 . S
C453 C454 1.419 . S
C454 C453 1.419 . S
C454 C455 1.391 . S
C454 C458 1.397 . S
C455 C450 1.391 . S
C455 C454 1.391 . S
C455 C456 1.399 . S
C456 C455 1.399 . S
C456 C457 1.396 . S
C456 C459 1.453 . S
C456 C460 1.684 . S
C457 C447 1.723 . S
C457 C456 1.396 . S
C457 C458 1.394 . S
C458 C428 1.723 . S
C458 C454 1.397 . S
C458 C457 1.394 . S
C459 H431 0.982 . S
C459 H435 0.979 . S
C459 H436 0.977 . S
C459 C456 1.453 . S
C460 H432 0.979 . S
C460 H433 0.980 . S
C460 H434 0.983 . S
C460 C456 1.684 . S
H461 C479 0.948 . S
H462 C420 0.948 . S
H463 C438 0.979 . S
H464 C438 0.980 . S
H465 C438 0.983 . S
H466 C437 0.982 . S
H467 C437 0.979 . S
H468 C437 0.977 . S
H469 C439 0.948 . S
H470 C441 0.947 . S
H471 C442 0.948 . S
H472 C448 0.982 . S
H473 C448 0.979 . S
H474 C448 0.977 . S
H475 C449 0.979 . S
H476 C449 0.980 . S
H477 C449 0.983 . S
H478 C422 0.947 1_556 S
C479 C422 1.392 . S
C479 C423 1.419 . S
C479 H461 0.948 . S
Tb480 O483 2.453 1_665 S
Tb480 O484 2.596 1_665 S
Tb480 O485 2.374 1_655 S
Tb480 O493 2.343 . S
Tb480 O495 2.353 1_565 S
Tb480 O497 2.427 . S
Tb480 O498 2.513 . S
C481 O485 1.251 . S
C481 O487 1.263 . S
Tb482 O484 2.343 . S
Tb482 O487 2.353 1_545 S
Tb482 O490 2.427 . S
Tb482 O491 2.513 . S
Tb482 O492 2.453 1_545 S
Tb482 O493 2.596 1_445 S
Tb482 O494 2.374 1_455 S
O483 Tb480 2.453 1_445 S
O483 C499 1.245 . S
O484 Tb480 2.596 1_445 S
O484 Tb482 2.343 . S
O484 C499 1.259 . S
O485 Tb480 2.374 1_455 S
O485 C481 1.251 . S
C486 O490 1.275 . S
C486 O491 1.246 . S
O487 C481 1.263 . S
O487 Tb482 2.353 1_565 S
C488 O492 1.245 1_655 S
C488 O493 1.259 . S
C489 O494 1.250 . S
C489 O495 1.263 . S
O490 Tb482 2.427 . S
O490 C486 1.275 . S
O491 Tb482 2.513 . S
O491 C486 1.246 . S
O492 Tb482 2.453 1_565 S
O492 C488 1.245 1_455 S
O493 Tb480 2.343 . S
O493 Tb482 2.596 1_665 S
O493 C488 1.259 . S
O494 Tb482 2.374 1_655 S
O494 C489 1.250 . S
O495 Tb480 2.353 1_545 S
O495 C489 1.263 . S
C496 O497 1.275 . S
C496 O498 1.246 . S
O497 Tb480 2.427 . S
O497 C496 1.275 . S
O498 Tb480 2.513 . S
O498 C496 1.246 . S
C499 O483 1.245 . S
C499 O484 1.259 . S
Tb500 O503 2.453 . S
Tb500 O504 2.596 1_545 S
Tb500 O505 2.374 . S
Tb500 O513 2.343 . S
Tb500 O515 2.353 . S
Tb500 O517 2.427 . S
Tb500 O518 2.513 . S
C501 O505 1.251 . S
C501 O507 1.263 1_545 S
Tb502 O504 2.343 . S
Tb502 O507 2.353 . S
Tb502 O510 2.427 . S
Tb502 O511 2.513 . S
Tb502 O512 2.453 . S
Tb502 O513 2.596 1_565 S
Tb502 O514 2.374 . S
O503 Tb500 2.453 . S
O503 C519 1.245 . S
O504 Tb500 2.596 1_565 S
O504 Tb502 2.343 . S
O504 C519 1.259 1_565 S
O505 Tb500 2.374 . S
O505 C501 1.251 . S
C506 O510 1.275 . S
C506 O511 1.246 . S
O507 C501 1.263 1_565 S
O507 Tb502 2.353 . S
C508 O512 1.245 . S
C508 O513 1.259 1_565 S
C509 O514 1.250 1_545 S
C509 O515 1.263 . S
O510 Tb502 2.427 . S
O510 C506 1.275 . S
O511 Tb502 2.513 . S
O511 C506 1.246 . S
O512 Tb502 2.453 . S
O512 C508 1.245 . S
O513 Tb500 2.343 . S
O513 Tb502 2.596 1_545 S
O513 C508 1.259 1_545 S
O514 Tb502 2.374 . S
O514 C509 1.250 1_565 S
O515 Tb500 2.353 . S
O515 C509 1.263 . S
C516 O517 1.275 . S
C516 O518 1.246 . S
O517 Tb500 2.427 . S
O517 C516 1.275 . S
O518 Tb500 2.513 . S
O518 C516 1.246 . S
C519 O503 1.245 . S
C519 O504 1.259 1_545 S
Tb520 O523 2.453 . S
Tb520 O524 2.596 . S
Tb520 O525 2.374 . S
Tb520 O533 2.343 . S
Tb520 O535 2.353 . S
Tb520 O537 2.427 . S
Tb520 O538 2.513 . S
C521 O525 1.251 . S
C521 O527 1.263 . S
Tb522 O524 2.343 . S
Tb522 O527 2.353 . S
Tb522 O530 2.427 . S
Tb522 O531 2.513 . S
Tb522 O532 2.453 . S
Tb522 O533 2.596 . S
Tb522 O534 2.374 . S
O523 Tb520 2.453 . S
O523 C539 1.245 . S
O524 Tb520 2.596 . S
O524 Tb522 2.343 . S
O524 C539 1.259 . S
O525 Tb520 2.374 . S
O525 C521 1.251 . S
C526 O530 1.275 . S
C526 O531 1.246 . S
O527 C521 1.263 . S
O527 Tb522 2.353 . S
C528 O532 1.245 . S
C528 O533 1.259 . S
C529 O534 1.250 . S
C529 O535 1.263 . S
O530 Tb522 2.427 . S
O530 C526 1.275 . S
O531 Tb522 2.513 . S
O531 C526 1.246 . S
O532 Tb522 2.453 . S
O532 C528 1.245 . S
O533 Tb520 2.343 . S
O533 Tb522 2.596 . S
O533 C528 1.259 . S
O534 Tb522 2.374 . S
O534 C529 1.250 . S
O535 Tb520 2.353 . S
O535 C529 1.263 . S
C536 O537 1.275 . S
C536 O538 1.246 . S
O537 Tb520 2.427 . S
O537 C536 1.275 . S
O538 Tb520 2.513 . S
O538 C536 1.246 . S
C539 O523 1.245 . S
C539 O524 1.259 . S
Tb540 O543 2.453 1_655 S
Tb540 O544 2.596 1_655 S
Tb540 O545 2.374 1_655 S
Tb540 O553 2.343 . S
Tb540 O555 2.353 . S
Tb540 O557 2.427 . S
Tb540 O558 2.513 . S
C541 O545 1.251 . S
C541 O547 1.263 . S
Tb542 O544 2.343 . S
Tb542 O547 2.353 . S
Tb542 O550 2.427 . S
Tb542 O551 2.513 . S
Tb542 O552 2.453 1_455 S
Tb542 O553 2.596 1_455 S
Tb542 O554 2.374 1_455 S
O543 Tb540 2.453 1_455 S
O543 C559 1.245 . S
O544 Tb540 2.596 1_455 S
O544 Tb542 2.343 . S
O544 C559 1.259 . S
O545 Tb540 2.374 1_455 S
O545 C541 1.251 . S
C546 O550 1.275 . S
C546 O551 1.246 . S
O547 C541 1.263 . S
O547 Tb542 2.353 . S
C548 O552 1.245 . S
C548 O553 1.259 . S
C549 O554 1.250 . S
C549 O555 1.263 . S
O550 Tb542 2.427 . S
O550 C546 1.275 . S
O551 Tb542 2.513 . S
O551 C546 1.246 . S
O552 Tb542 2.453 1_655 S
O552 C548 1.245 . S
O553 Tb540 2.343 . S
O553 Tb542 2.596 1_655 S
O553 C548 1.259 . S
O554 Tb542 2.374 1_655 S
O554 C549 1.250 . S
O555 Tb540 2.353 . S
O555 C549 1.263 . S
C556 O557 1.275 . S
C556 O558 1.246 . S
O557 Tb540 2.427 . S
O557 C556 1.275 . S
O558 Tb540 2.513 . S
O558 C556 1.246 . S
C559 O543 1.245 . S
C559 O544 1.259 . S
C391 C481 2.427 1_545 S
C516 C451 3.860 . S
C521 C241 1.961 . S
C541 C331 2.991 . S
C489 C121 2.056 1_545 S
C211 C506 3.630 1_554 S
C31 C529 2.311 . S
C91 C549 3.250 . S
C499 C301 3.532 . S
C508 C380 1.831 1_565 S
C539 C440 4.078 . S
C260 C559 2.107 . S
C61 C488 3.772 . S
C519 C140 1.433 1_545 S
C528 C200 3.826 . S
C20 C548 2.510 . S
C320 C486 3.327 . S
C361 C509 3.091 . S
C526 C421 3.612 . S
C546 C271 3.463 . S
C80 C496 3.489 . S
C501 C151 3.536 1_545 S
C536 C181 3.431 . S
C1 C556 3.059 . S
