# Generated by pormake.
# Topology zzz, (3,6)-cn, num edge types: 1
# Building blocks:
#     Node 0, Type 0, BuildingBlock: KAKCAD_clean_linker_0, # of connection points: 3
#     Node 1, Type 0, BuildingBlock: KAKCAD_clean_linker_0, # of connection points: 3
#     Node 2, Type 0, BuildingBlock: KAKCAD_clean_linker_0, # of connection points: 3
#     Node 3, Type 0, BuildingBlock: KAKCAD_clean_linker_0, # of connection points: 3
#     Node 4, Type 0, BuildingBlock: KAKCAD_clean_linker_0, # of connection points: 3
#     Node 5, Type 0, BuildingBlock: KAKCAD_clean_linker_0, # of connection points: 3
#     Node 6, Type 0, BuildingBlock: KAKCAD_clean_linker_0, # of connection points: 3
#     Node 7, Type 0, BuildingBlock: KAKCAD_clean_linker_0, # of connection points: 3
#     Node 8, Type 1, BuildingBlock: BETDEL_clean_sbu_0, # of connection points: 6
#     Node 9, Type 1, BuildingBlock: BETDEL_clean_sbu_0, # of connection points: 6
#     Node 10, Type 1, BuildingBlock: BETDEL_clean_sbu_0, # of connection points: 6
#     Node 11, Type 1, BuildingBlock: BETDEL_clean_sbu_0, # of connection points: 6
#     Edge 12, Type (0, 1), BuildingBlock: UVAHIK_clean_linker_0, # of connection points: 2
#     Edge 13, Type (0, 1), BuildingBlock: UVAHIK_clean_linker_0, # of connection points: 2
#     Edge 14, Type (0, 1), BuildingBlock: UVAHIK_clean_linker_0, # of connection points: 2
#     Edge 15, Type (0, 1), BuildingBlock: UVAHIK_clean_linker_0, # of connection points: 2
#     Edge 16, Type (0, 1), BuildingBlock: UVAHIK_clean_linker_0, # of connection points: 2
#     Edge 17, Type (0, 1), BuildingBlock: UVAHIK_clean_linker_0, # of connection points: 2
#     Edge 18, Type (0, 1), BuildingBlock: UVAHIK_clean_linker_0, # of connection points: 2
#     Edge 19, Type (0, 1), BuildingBlock: UVAHIK_clean_linker_0, # of connection points: 2
#     Edge 20, Type (0, 1), BuildingBlock: UVAHIK_clean_linker_0, # of connection points: 2
#     Edge 21, Type (0, 1), BuildingBlock: UVAHIK_clean_linker_0, # of connection points: 2
#     Edge 22, Type (0, 1), BuildingBlock: UVAHIK_clean_linker_0, # of connection points: 2
#     Edge 23, Type (0, 1), BuildingBlock: UVAHIK_clean_linker_0, # of connection points: 2
#     Edge 24, Type (0, 1), BuildingBlock: UVAHIK_clean_linker_0, # of connection points: 2
#     Edge 25, Type (0, 1), BuildingBlock: UVAHIK_clean_linker_0, # of connection points: 2
#     Edge 26, Type (0, 1), BuildingBlock: UVAHIK_clean_linker_0, # of connection points: 2
#     Edge 27, Type (0, 1), BuildingBlock: UVAHIK_clean_linker_0, # of connection points: 2
#     Edge 28, Type (0, 1), BuildingBlock: UVAHIK_clean_linker_0, # of connection points: 2
#     Edge 29, Type (0, 1), BuildingBlock: UVAHIK_clean_linker_0, # of connection points: 2
#     Edge 30, Type (0, 1), BuildingBlock: UVAHIK_clean_linker_0, # of connection points: 2
#     Edge 31, Type (0, 1), BuildingBlock: UVAHIK_clean_linker_0, # of connection points: 2
#     Edge 32, Type (0, 1), BuildingBlock: UVAHIK_clean_linker_0, # of connection points: 2
#     Edge 33, Type (0, 1), BuildingBlock: UVAHIK_clean_linker_0, # of connection points: 2
#     Edge 34, Type (0, 1), BuildingBlock: UVAHIK_clean_linker_0, # of connection points: 2
#     Edge 35, Type (0, 1), BuildingBlock: UVAHIK_clean_linker_0, # of connection points: 2
# Relax obj value: 0.322
# Max RMSD: 0.226
# Mean RMSD: 0.207
data_MOF--net-zzz--node1-BETDEL_clean_sbu_0--node2-KAKCAD_clean_linker_0--edge1-UVAHIK_clean_linker_0
_symmetry_space_group_name_H-M    P1
_symmetry_Int_Tables_number       1
_symmetry_cell_setting            triclinic
loop_
_symmetry_equiv_pos_as_xyz
'x, y, z'
_cell_length_a     70.941301
_cell_length_b     70.185871
_cell_length_c     24.779878
_cell_angle_alpha  91.158792
_cell_angle_beta   89.513176
_cell_angle_gamma 96.24375
loop_
_atom_site_label
_atom_site_type_symbol
_atom_site_fract_x
_atom_site_fract_y
_atom_site_fract_z
_atom_type_partial_charge
C0 C 0.79568 0.41574 0.93427 0.0
C1 C 0.80661 0.40323 0.96074 0.0
C2 C 0.77984 0.42217 0.95953 0.0
C3 C 0.77463 0.41635 0.01193 0.0
C4 C 0.78451 0.40258 0.03653 0.0
C5 C 0.8003 0.39601 0.01107 0.0
C6 C 0.76122 0.42699 0.04356 0.0
C7 C 0.74445 0.43184 0.02063 0.0
C8 C 0.73351 0.44482 0.04704 0.0
C9 C 0.73971 0.45319 0.09691 0.0
C10 C 0.75622 0.44791 0.12097 0.0
C11 C 0.7667 0.43471 0.09428 0.0
C12 C 0.76418 0.45718 0.1712 0.0
C13 C 0.77036 0.47687 0.17253 0.0
C14 C 0.76933 0.44572 0.21325 0.0
C15 C 0.7817 0.45344 0.25353 0.0
C16 C 0.7893 0.47279 0.25238 0.0
C17 C 0.71627 0.45011 0.02004 0.0
C18 C 0.71353 0.46941 0.01261 0.0
C19 C 0.70338 0.43573 0.99674 0.0
C20 C 0.68865 0.44049 0.96438 0.0
C21 C 0.68649 0.45977 0.9542 0.0
C22 C 0.69878 0.47421 0.97989 0.0
C23 C 0.78288 0.48461 0.21273 0.0
H24 H 0.80017 0.42181 0.89582 0.0
H25 H 0.77263 0.43292 0.93976 0.0
H26 H 0.78062 0.39767 0.07669 0.0
H27 H 0.80814 0.38604 0.03206 0.0
H28 H 0.74029 0.42604 0.98108 0.0
H29 H 0.78 0.43153 0.11142 0.0
H30 H 0.73173 0.46362 0.11698 0.0
H31 H 0.76673 0.48595 0.14021 0.0
H32 H 0.76484 0.43046 0.21279 0.0
H33 H 0.78642 0.44387 0.2831 0.0
H34 H 0.72334 0.48079 0.02979 0.0
H35 H 0.705 0.42074 0.00245 0.0
H36 H 0.78828 0.49963 0.21118 0.0
H37 H 0.69757 0.48919 0.97275 0.0
H38 H 0.67916 0.42902 0.94642 0.0
C39 C 0.93755 0.79441 0.96517 0.0
C40 C 0.95679 0.79774 0.94998 0.0
C41 C 0.93101 0.77836 0.99514 0.0
C42 C 0.94344 0.76508 0.00914 0.0
C43 C 0.9622 0.76744 0.99018 0.0
C44 C 0.96887 0.78368 0.9612 0.0
C45 C 0.93804 0.75094 0.05119 0.0
C46 C 0.9393 0.73141 0.04211 0.0
C47 C 0.93689 0.7185 0.08495 0.0
C48 C 0.93383 0.72546 0.13776 0.0
C49 C 0.9321 0.74507 0.1466 0.0
C50 C 0.93396 0.75756 0.10302 0.0
C51 C 0.93023 0.75376 0.20089 0.0
C52 C 0.91476 0.76417 0.21164 0.0
C53 C 0.94614 0.75655 0.23455 0.0
C54 C 0.9474 0.77103 0.27455 0.0
C55 C 0.93276 0.78291 0.28123 0.0
C56 C 0.93844 0.69799 0.07313 0.0
C57 C 0.92681 0.68837 0.03344 0.0
C58 C 0.95321 0.68887 0.09494 0.0
C59 C 0.95709 0.67093 0.07455 0.0
C60 C 0.9461 0.66176 0.03253 0.0
C61 C 0.93052 0.67039 0.01357 0.0
C62 C 0.91598 0.77857 0.25157 0.0
H63 H 0.92768 0.80459 0.9559 0.0
H64 H 0.91646 0.77676 0.00947 0.0
H65 H 0.97207 0.75746 0.00126 0.0
H66 H 0.98379 0.78575 0.95081 0.0
H67 H 0.94264 0.72632 0.0019 0.0
H68 H 0.93348 0.77281 0.1102 0.0
H69 H 0.93265 0.71575 0.17137 0.0
H70 H 0.90242 0.76237 0.18578 0.0
H71 H 0.95837 0.74893 0.22631 0.0
H72 H 0.96053 0.77404 0.29665 0.0
H73 H 0.91539 0.6952 0.0159 0.0
H74 H 0.96244 0.69613 0.12526 0.0
H75 H 0.90433 0.78725 0.25647 0.0
H76 H 0.9219 0.66385 0.98088 0.0
H77 H 0.96911 0.66456 0.09017 0.0
C78 C 0.73324 0.03278 0.90436 0.0
C79 C 0.72125 0.04719 0.91375 0.0
C80 C 0.74466 0.02725 0.94556 0.0
C81 C 0.74435 0.03608 0.99692 0.0
C82 C 0.73348 0.0515 0.00499 0.0
C83 C 0.72203 0.057 0.96381 0.0
C84 C 0.75377 0.02797 0.04303 0.0
C85 C 0.77163 0.0215 0.03688 0.0
C86 C 0.77976 0.01219 0.07894 0.0
C87 C 0.76993 0.00935 0.12829 0.0
C88 C 0.75205 0.01616 0.13533 0.0
C89 C 0.74417 0.02534 0.09239 0.0
C90 C 0.74056 0.01322 0.18552 0.0
C91 C 0.73592 0.9948 0.20619 0.0
C92 C 0.7315 0.02848 0.20731 0.0
C93 C 0.71697 0.02522 0.2454 0.0
C94 C 0.7112 0.00658 0.26336 0.0
C95 C 0.79853 0.00562 0.06853 0.0
C96 C 0.79971 0.98885 0.03745 0.0
C97 C 0.81482 0.0186 0.07557 0.0
C98 C 0.83165 0.01565 0.04834 0.0
C99 C 0.83241 0.9997 0.01331 0.0
C100 C 0.81654 0.98584 0.0103 0.0
C101 C 0.72138 0.99152 0.2448 0.0
H102 H 0.7331 0.02513 0.86592 0.0
H103 H 0.75284 0.0153 0.93805 0.0
H104 H 0.73323 0.05879 0.0439 0.0
H105 H 0.71289 0.06809 0.97242 0.0
H106 H 0.77926 0.02358 0.99895 0.0
H107 H 0.73003 0.0297 0.09668 0.0
H108 H 0.77614 0.00205 0.16072 0.0
H109 H 0.74264 0.98276 0.19 0.0
H110 H 0.73486 0.04286 0.19231 0.0
H111 H 0.7095 0.03722 0.25796 0.0
H112 H 0.78715 0.97889 0.03046 0.0
H113 H 0.81409 0.03182 0.09848 0.0
H114 H 0.71766 0.97704 0.25851 0.0
H115 H 0.81658 0.97349 0.9834 0.0
H116 H 0.84371 0.02645 0.05208 0.0
C117 C 0.55483 0.72782 0.25039 0.0
C118 C 0.56968 0.71877 0.27236 0.0
C119 C 0.55873 0.74218 0.21202 0.0
C120 C 0.5775 0.74767 0.19555 0.0
C121 C 0.59235 0.74011 0.22215 0.0
C122 C 0.58848 0.72573 0.25999 0.0
C123 C 0.58137 0.75671 0.14252 0.0
C124 C 0.57519 0.77439 0.1291 0.0
C125 C 0.57826 0.7815 0.07649 0.0
C126 C 0.58676 0.77038 0.03719 0.0
C127 C 0.59232 0.75246 0.04983 0.0
C128 C 0.58996 0.74603 0.10279 0.0
C129 C 0.59765 0.73886 0.0072 0.0
C130 C 0.58631 0.73549 0.96105 0.0
C131 C 0.61147 0.72648 0.01747 0.0
C132 C 0.61223 0.70978 0.98637 0.0
C133 C 0.59935 0.70531 0.94412 0.0
C134 C 0.57168 0.7999 0.06033 0.0
C135 C 0.55281 0.80354 0.06911 0.0
C136 C 0.58379 0.81301 0.03054 0.0
C137 C 0.57699 0.82895 0.00787 0.0
C138 C 0.55785 0.83211 0.01413 0.0
C139 C 0.54592 0.81945 0.04595 0.0
C140 C 0.58718 0.71885 0.92967 0.0
H141 H 0.54021 0.72267 0.25926 0.0
H142 H 0.54703 0.74761 0.19162 0.0
H143 H 0.60694 0.7441 0.21005 0.0
H144 H 0.60017 0.71914 0.27686 0.0
H145 H 0.56816 0.78254 0.15929 0.0
H146 H 0.59352 0.73185 0.11242 0.0
H147 H 0.58834 0.77533 0.99606 0.0
H148 H 0.57547 0.74469 0.95217 0.0
H149 H 0.62065 0.72893 0.05221 0.0
H150 H 0.62196 0.6997 0.99775 0.0
H151 H 0.54314 0.79359 0.09161 0.0
H152 H 0.59843 0.81056 0.0233 0.0
H153 H 0.57704 0.71574 0.89739 0.0
H154 H 0.53115 0.82161 0.05192 0.0
H155 H 0.58652 0.8383 0.98325 0.0
C156 C 0.20761 0.6001 0.15073 0.0
C157 C 0.20087 0.59229 0.19997 0.0
C158 C 0.22332 0.59347 0.12501 0.0
C159 C 0.23268 0.57906 0.14828 0.0
C160 C 0.22697 0.57245 0.19957 0.0
C161 C 0.2112 0.57894 0.22508 0.0
C162 C 0.24636 0.56893 0.11623 0.0
C163 C 0.26312 0.56402 0.13916 0.0
C164 C 0.27494 0.55235 0.11069 0.0
C165 C 0.26934 0.54506 0.05902 0.0
C166 C 0.25258 0.55005 0.03585 0.0
C167 C 0.24143 0.56217 0.06425 0.0
C168 C 0.24507 0.54162 0.98433 0.0
C169 C 0.2434 0.55361 0.94045 0.0
C170 C 0.235 0.52327 0.9839 0.0
C171 C 0.22212 0.51768 0.94255 0.0
C172 C 0.21913 0.53037 0.90094 0.0
C173 C 0.29267 0.54749 0.13657 0.0
C174 C 0.30351 0.56131 0.16856 0.0
C175 C 0.29835 0.52893 0.13233 0.0
C176 C 0.31413 0.5242 0.16082 0.0
C177 C 0.32454 0.53788 0.19444 0.0
C178 C 0.31906 0.55654 0.19743 0.0
C179 C 0.23069 0.54797 0.89886 0.0
H180 H 0.20023 0.61068 0.13083 0.0
H181 H 0.22761 0.59898 0.08573 0.0
H182 H 0.2338 0.5612 0.21821 0.0
H183 H 0.20634 0.57241 0.26262 0.0
H184 H 0.26665 0.56895 0.17992 0.0
H185 H 0.22814 0.56533 0.04695 0.0
H186 H 0.27792 0.53569 0.03678 0.0
H187 H 0.25087 0.56792 0.94041 0.0
H188 H 0.2358 0.51397 0.018 0.0
H189 H 0.21343 0.50407 0.94574 0.0
H190 H 0.2998 0.57586 0.17205 0.0
H191 H 0.29029 0.51788 0.10833 0.0
H192 H 0.22909 0.55791 0.86679 0.0
H193 H 0.32645 0.56747 0.2233 0.0
H194 H 0.31808 0.50976 0.15671 0.0
C195 C 0.08014 0.2212 0.20405 0.0
C196 C 0.08964 0.20535 0.18908 0.0
C197 C 0.0827 0.23796 0.1741 0.0
C198 C 0.0949 0.23912 0.12897 0.0
C199 C 0.10595 0.22402 0.11799 0.0
C200 C 0.10322 0.20721 0.14751 0.0
C201 C 0.0933 0.25403 0.08811 0.0
C202 C 0.09116 0.27304 0.10307 0.0
C203 C 0.08623 0.28612 0.06464 0.0
C204 C 0.08332 0.27996 0.01052 0.0
C205 C 0.08618 0.26111 0.9949 0.0
C206 C 0.09121 0.24841 0.0338 0.0
C207 C 0.08221 0.25319 0.93989 0.0
C208 C 0.06353 0.25082 0.9208 0.0
C209 C 0.09597 0.2434 0.91346 0.0
C210 C 0.09079 0.22989 0.87268 0.0
C211 C 0.0717 0.22591 0.85731 0.0
C212 C 0.083 0.30572 0.08322 0.0
C213 C 0.06552 0.31281 0.07465 0.0
C214 C 0.09654 0.31637 0.1159 0.0
C215 C 0.09226 0.33311 0.14245 0.0
C216 C 0.07424 0.33947 0.13744 0.0
C217 C 0.06115 0.32953 0.10166 0.0
C218 C 0.05831 0.2373 0.87973 0.0
H219 H 0.06954 0.22008 0.23589 0.0
H220 H 0.0739 0.24928 0.18346 0.0
H221 H 0.11574 0.22467 0.08411 0.0
H222 H 0.11091 0.19525 0.13578 0.0
H223 H 0.0926 0.27746 0.14515 0.0
H224 H 0.09214 0.23357 0.02207 0.0
H225 H 0.07896 0.28973 0.98089 0.0
H226 H 0.05264 0.25808 0.94089 0.0
H227 H 0.11045 0.2449 0.92786 0.0
H228 H 0.10152 0.22142 0.85678 0.0
H229 H 0.0548 0.30477 0.04992 0.0
H230 H 0.11021 0.31131 0.12266 0.0
H231 H 0.04356 0.23492 0.86799 0.0
H232 H 0.04712 0.33398 0.09705 0.0
H233 H 0.10284 0.34066 0.16864 0.0
C234 C 0.28248 0.94231 0.18148 0.0
C235 C 0.29786 0.95363 0.20519 0.0
C236 C 0.27115 0.9502 0.14375 0.0
C237 C 0.27533 0.96936 0.12839 0.0
C238 C 0.29081 0.98059 0.15179 0.0
C239 C 0.30188 0.97284 0.19018 0.0
C240 C 0.2637 0.9777 0.08776 0.0
C241 C 0.24406 0.97703 0.09455 0.0
C242 C 0.23288 0.98544 0.05695 0.0
C243 C 0.24172 0.99429 0.01119 0.0
C244 C 0.26151 0.99494 0.00414 0.0
C245 C 0.27233 0.98677 0.04283 0.0
C246 C 0.27152 0.0035 0.95634 0.0
C247 C 0.26888 0.99463 0.9053 0.0
C248 C 0.28647 0.01813 0.9637 0.0
C249 C 0.29934 0.02294 0.92188 0.0
C250 C 0.29765 0.01305 0.87193 0.0
C251 C 0.21228 0.98564 0.06853 0.0
C252 C 0.20181 0.96932 0.08985 0.0
C253 C 0.20361 0.00267 0.06564 0.0
C254 C 0.1854 0.00368 0.08731 0.0
C255 C 0.1755 0.9877 0.11246 0.0
C256 C 0.18377 0.97035 0.11181 0.0
C257 C 0.28189 0.99932 0.86346 0.0
H258 H 0.27914 0.92747 0.19255 0.0
H259 H 0.2593 0.94128 0.12595 0.0
H260 H 0.29424 0.99543 0.14069 0.0
H261 H 0.31378 0.98179 0.20762 0.0
H262 H 0.2376 0.97058 0.13056 0.0
H263 H 0.28755 0.98712 0.03731 0.0
H264 H 0.23333 0.00069 0.98155 0.0
H265 H 0.25759 0.98314 0.89894 0.0
H266 H 0.28888 0.02501 0.00295 0.0
H267 H 0.31136 0.03345 0.93004 0.0
H268 H 0.20799 0.9559 0.09199 0.0
H269 H 0.21131 0.0155 0.04951 0.0
H270 H 0.28009 0.99159 0.82525 0.0
H271 H 0.17684 0.95774 0.13105 0.0
H272 H 0.17937 0.01718 0.08593 0.0
C273 C 0.43469 0.27004 0.83005 0.0
C274 C 0.45408 0.2764 0.82455 0.0
C275 C 0.42852 0.25662 0.86908 0.0
C276 C 0.44164 0.24927 0.90308 0.0
C277 C 0.46109 0.25377 0.8929 0.0
C278 C 0.46727 0.26729 0.85406 0.0
C279 C 0.43548 0.24238 0.95718 0.0
C280 C 0.44113 0.22554 0.9787 0.0
C281 C 0.43788 0.22148 0.0337 0.0
C282 C 0.43036 0.23519 0.06754 0.0
C283 C 0.42524 0.25237 0.04676 0.0
C284 C 0.42665 0.25505 0.99089 0.0
C285 C 0.42115 0.26864 0.08331 0.0
C286 C 0.41276 0.26558 0.13466 0.0
C287 C 0.42728 0.28761 0.06852 0.0
C288 C 0.42542 0.30292 0.10388 0.0
C289 C 0.41792 0.29975 0.15572 0.0
C290 C 0.44326 0.2036 0.05758 0.0
C291 C 0.43085 0.19337 0.09386 0.0
C292 C 0.46112 0.19732 0.04735 0.0
C293 C 0.46668 0.18152 0.0744 0.0
C294 C 0.45442 0.17159 0.11179 0.0
C295 C 0.43634 0.17755 0.12054 0.0
C296 C 0.41142 0.281 0.17088 0.0
H297 H 0.42416 0.27677 0.80802 0.0
H298 H 0.41344 0.25344 0.87641 0.0
H299 H 0.47149 0.24845 0.91883 0.0
H300 H 0.48233 0.27167 0.85002 0.0
H301 H 0.44805 0.21574 0.95283 0.0
H302 H 0.42233 0.26797 0.97384 0.0
H303 H 0.42961 0.23286 0.1106 0.0
H304 H 0.40763 0.25128 0.14746 0.0
H305 H 0.4345 0.29079 0.0306 0.0
H306 H 0.43098 0.3172 0.09177 0.0
H307 H 0.41695 0.1978 0.10229 0.0
H308 H 0.47104 0.20501 0.01989 0.0
H309 H 0.40569 0.27827 0.21098 0.0
H310 H 0.42661 0.17038 0.14944 0.0
H311 H 0.48065 0.17718 0.06643 0.0
Dy312 Dy 0.01265 0.99272 0.61804 0.0
C313 C 0.00322 0.03494 0.42607 0.0
C314 C 0.01469 0.97542 0.7146 0.0
Dy315 Dy 1.00029 0.01369 0.51687 0.0
O316 O 0.02931 0.98144 0.68501 0.0
O317 O 0.99917 0.97932 0.69189 0.0
O318 O 0.03218 0.97718 0.56468 0.0
O319 O 0.02664 0.005 0.54643 0.0
C320 C 0.03476 0.9909 0.53014 0.0
C321 C 0.97299 0.00497 0.59043 0.0
O322 O 0.99486 0.98296 0.48972 0.0
O323 O 0.99314 0.97014 0.5755 0.0
O324 O 0.99228 0.03797 0.46713 0.0
O325 O 0.01181 0.01982 0.43394 0.0
O326 O 0.96946 0.00614 0.53909 0.0
O327 O 0.99026 0.01016 0.59918 0.0
O328 O 0.02255 0.02303 0.64412 0.0
O329 O 0.01456 0.03824 0.56573 0.0
C330 C 0.99056 0.96844 0.52263 0.0
C331 C 0.02184 0.03869 0.61504 0.0
Dy332 Dy 0.48765 0.98683 0.53747 0.0
C333 C 0.54769 0.03672 0.63892 0.0
C334 C 0.45535 0.96466 0.50898 0.0
Dy335 Dy 0.51627 0.01674 0.59583 0.0
O336 O 0.47233 0.95938 0.50348 0.0
O337 O 0.45619 0.98187 0.52956 0.0
O338 O 0.50747 0.98676 0.4656 0.0
O339 O 0.51836 0.99192 0.54347 0.0
C340 C 0.52262 0.99154 0.49414 0.0
C341 C 0.47948 0.02001 0.61593 0.0
O342 O 0.51241 0.03099 0.51732 0.0
O343 O 0.48338 0.01418 0.49632 0.0
O344 O 0.53207 0.03173 0.66533 0.0
O345 O 0.54609 0.03086 0.58892 0.0
O346 O 0.49243 0.03463 0.61596 0.0
O347 O 0.48715 0.00478 0.60964 0.0
O348 O 0.49492 0.96927 0.60752 0.0
O349 O 0.51872 0.99083 0.646 0.0
C350 C 0.49661 0.02874 0.48872 0.0
C351 C 0.50828 0.9739 0.64431 0.0
Dy352 Dy 0.50687 0.51057 0.61879 0.0
C353 C 0.50496 0.46559 0.42214 0.0
C354 C 0.51459 0.53217 0.71026 0.0
Dy355 Dy 0.51238 0.48934 0.50965 0.0
O356 O 0.50174 0.53508 0.67522 0.0
O357 O 0.52259 0.51708 0.69619 0.0
O358 O 0.47513 0.50672 0.60771 0.0
O359 O 0.49344 0.50928 0.54061 0.0
C360 C 0.47638 0.50595 0.55518 0.0
C361 C 0.54329 0.49491 0.5712 0.0
O362 O 0.52047 0.51912 0.48138 0.0
O363 O 0.5234 0.53297 0.56774 0.0
O364 O 0.51766 0.46366 0.45846 0.0
O365 O 0.49697 0.48105 0.43238 0.0
O366 O 0.54404 0.49302 0.51883 0.0
O367 O 0.52638 0.4912 0.58732 0.0
O368 O 0.49916 0.4807 0.64636 0.0
O369 O 0.49481 0.46754 0.56 0.0
C370 C 0.52529 0.53397 0.51436 0.0
C371 C 0.49354 0.46617 0.61327 0.0
Dy372 Dy 0.99567 0.4863 0.62244 0.0
C373 C 0.0316 0.53276 0.45731 0.0
C374 C 0.975 0.46734 0.70208 0.0
Dy375 Dy 0.01099 0.51372 0.53688 0.0
O376 O 0.98482 0.45935 0.66538 0.0
O377 O 0.97666 0.48576 0.69573 0.0
O378 O 0.01337 0.46436 0.5894 0.0
O379 O 0.00199 0.48306 0.53613 0.0
C380 C 0.01273 0.46992 0.53987 0.0
C381 C 0.99434 0.53005 0.62075 0.0
O382 O 0.9827 0.50539 0.49996 0.0
O383 O 0.96924 0.49147 0.57722 0.0
O384 O 0.02243 0.54079 0.49542 0.0
O385 O 0.02935 0.51428 0.46226 0.0
O386 O 0.99357 0.53583 0.57144 0.0
O387 O 0.00495 0.5168 0.62321 0.0
O388 O 0.024 0.49504 0.65935 0.0
O389 O 0.03744 0.50815 0.58105 0.0
C390 C 0.96771 0.49807 0.52778 0.0
C391 C 0.03902 0.50195 0.63088 0.0
C392 C 0.14365 0.97351 0.14783 0.0
C393 C 0.15757 0.98934 0.14359 0.0
C394 C 0.12842 0.97399 0.18384 0.0
C395 C 0.09952 0.00458 0.26265 0.0
H396 H 0.09691 0.96453 0.36873 0.0
C397 C 0.05411 0.00787 0.45729 0.0
C398 C 0.04676 0.99066 0.48122 0.0
C399 C 0.06622 0.0077 0.41246 0.0
C400 C 0.09703 0.97561 0.33895 0.0
H401 H 0.16552 0.01855 0.17239 0.0
H402 H 0.13846 0.01954 0.23338 0.0
H403 H 0.11959 0.9644 0.29475 0.0
H404 H 0.04556 0.95976 0.47598 0.0
H405 H 0.0659 0.95926 0.39635 0.0
H406 H 0.07666 0.0156 0.30567 0.0
C407 C 0.1396 0.0067 0.20909 0.0
C408 C 0.11017 0.97556 0.29664 0.0
C409 C 0.15506 0.00613 0.17379 0.0
C410 C 0.05126 0.97324 0.45863 0.0
C411 C 0.06306 0.97302 0.41315 0.0
C412 C 0.08605 0.00443 0.30439 0.0
C413 C 0.12647 0.99044 0.21561 0.0
C414 C 0.11167 0.99012 0.25838 0.0
C415 C 0.07102 0.99025 0.38987 0.0
C416 C 0.08472 0.99003 0.34358 0.0
H417 H 0.14475 0.9605 0.12433 0.0
H418 H 0.11832 0.96134 0.18762 0.0
H419 H 0.10035 0.01593 0.23345 0.0
H420 H 0.05089 0.02153 0.47409 0.0
H421 H 0.07219 0.02131 0.39658 0.0
C422 C 0.47876 0.15723 0.1667 0.0
C423 C 0.46061 0.15565 0.14361 0.0
C424 C 0.48398 0.14297 0.20052 0.0
C425 C 0.47101 0.09253 0.24027 0.0
H426 H 0.4964 0.1091 0.37381 0.0
C427 C 0.47657 0.04136 0.41752 0.0
C428 C 0.49353 0.04295 0.44702 0.0
C429 C 0.47357 0.05477 0.37841 0.0
C430 C 0.48956 0.10419 0.33638 0.0
H431 H 0.43399 0.13746 0.13624 0.0
H432 H 0.44299 0.11274 0.19558 0.0
H433 H 0.48966 0.13284 0.30825 0.0
H434 H 0.52074 0.0599 0.458 0.0
H435 H 0.51556 0.08318 0.38944 0.0
H436 H 0.47076 0.06389 0.2686 0.0
C437 C 0.45324 0.12494 0.18744 0.0
C438 C 0.4857 0.11781 0.29874 0.0
C439 C 0.44801 0.13921 0.15381 0.0
C440 C 0.50747 0.05826 0.43625 0.0
C441 C 0.50446 0.07168 0.39708 0.0
C442 C 0.47489 0.0789 0.27787 0.0
C443 C 0.4712 0.12677 0.21182 0.0
C444 C 0.47623 0.11217 0.25043 0.0
C445 C 0.48746 0.07012 0.36771 0.0
C446 C 0.48406 0.08456 0.32664 0.0
H447 H 0.48875 0.16977 0.16005 0.0
H448 H 0.49799 0.14472 0.21815 0.0
H449 H 0.46396 0.08766 0.20311 0.0
H450 H 0.46548 0.02981 0.4248 0.0
H451 H 0.46019 0.05328 0.35719 0.0
C452 C 0.35634 0.54637 0.23826 0.0
C453 C 0.34067 0.53277 0.22764 0.0
C454 C 0.37078 0.5422 0.27257 0.0
C455 C 0.38175 0.5081 0.37877 0.0
H456 H 0.43278 0.53221 0.35471 0.0
C457 C 0.44158 0.50598 0.53673 0.0
C458 C 0.46032 0.50644 0.51774 0.0
C459 C 0.42675 0.50788 0.50083 0.0
C460 C 0.41872 0.52503 0.36183 0.0
H461 H 0.32834 0.5038 0.24442 0.0
H462 H 0.35408 0.49614 0.30156 0.0
H463 H 0.4082 0.53704 0.29127 0.0
H464 H 0.47819 0.50926 0.44644 0.0
H465 H 0.45251 0.51096 0.38378 0.0
H466 H 0.39261 0.49529 0.44801 0.0
C467 C 0.35488 0.51032 0.28475 0.0
C468 C 0.40443 0.52814 0.32572 0.0
C469 C 0.34022 0.51461 0.25105 0.0
C470 C 0.46387 0.50839 0.46224 0.0
C471 C 0.44909 0.50982 0.42632 0.0
C472 C 0.39617 0.50468 0.41446 0.0
C473 C 0.37028 0.52413 0.29651 0.0
C474 C 0.38567 0.51993 0.3339 0.0
C475 C 0.43033 0.51002 0.44506 0.0
C476 C 0.41487 0.51319 0.40668 0.0
H477 H 0.35745 0.56039 0.22032 0.0
H478 H 0.38217 0.55339 0.28104 0.0
H479 H 0.36747 0.5017 0.38703 0.0
H480 H 0.43845 0.50464 0.57943 0.0
H481 H 0.41258 0.50822 0.51712 0.0
C482 C 0.05724 0.36886 0.15536 0.0
C483 C 0.06855 0.35506 0.17371 0.0
C484 C 0.05107 0.38266 0.19119 0.0
C485 C 0.04173 0.38986 0.33603 0.0
H486 H 0.04388 0.44397 0.30459 0.0
C487 C 0.03164 0.44467 0.50388 0.0
C488 C 0.02005 0.45916 0.49386 0.0
C489 C 0.03747 0.43318 0.46174 0.0
C490 C 0.04299 0.42886 0.31366 0.0
H491 H 0.08218 0.34502 0.24425 0.0
H492 H 0.07175 0.36909 0.30593 0.0
H493 H 0.054 0.4215 0.23584 0.0
H494 H 0.00609 0.4736 0.43162 0.0
H495 H 0.01617 0.45324 0.35738 0.0
H496 H 0.03078 0.39699 0.41346 0.0
C497 C 0.06754 0.36923 0.26403 0.0
C498 C 0.04878 0.41602 0.27434 0.0
C499 C 0.07374 0.35557 0.2284 0.0
C500 C 0.01498 0.46245 0.44042 0.0
C501 C 0.0208 0.45085 0.39799 0.0
C502 C 0.03594 0.40261 0.37505 0.0
C503 C 0.05592 0.38277 0.24612 0.0
C504 C 0.04854 0.39643 0.28559 0.0
C505 C 0.03178 0.43581 0.40843 0.0
C506 C 0.03684 0.42232 0.36485 0.0
H507 H 0.05308 0.36892 0.11342 0.0
H508 H 0.04208 0.39289 0.17625 0.0
H509 H 0.04093 0.37479 0.3455 0.0
H510 H 0.03599 0.44197 0.54458 0.0
H511 H 0.04632 0.42206 0.47107 0.0
C512 C 0.85543 0.01546 0.94642 0.0
C513 C 0.84848 0.99892 0.97451 0.0
C514 C 0.86898 0.0146 0.90549 0.0
C515 C 0.88665 0.00538 0.79732 0.0
H516 H 0.9318 0.97954 0.81404 0.0
C517 C 0.93932 0.99683 0.62095 0.0
C518 C 0.95851 0.00175 0.63353 0.0
C519 C 0.92562 0.99469 0.66209 0.0
C520 C 0.91924 0.98679 0.80878 0.0
H521 H 0.8508 0.96857 0.98255 0.0
H522 H 0.87473 0.9671 0.91104 0.0
H523 H 0.90874 0.97965 0.88815 0.0
H524 H 0.97842 0.00839 0.69889 0.0
H525 H 0.95465 0.00431 0.77052 0.0
H526 H 0.89719 0.01275 0.71838 0.0
C527 C 0.86958 0.98073 0.92086 0.0
C528 C 0.90599 0.98674 0.85106 0.0
C529 C 0.85584 0.98156 0.96161 0.0
C530 C 0.96378 0.00423 0.68797 0.0
C531 C 0.95016 0.0019 0.72905 0.0
C532 C 0.89977 0.00526 0.75493 0.0
C533 C 0.87603 0.99719 0.89168 0.0
C534 C 0.88969 0.99628 0.84606 0.0
C535 C 0.93089 0.9973 0.71662 0.0
C536 C 0.91633 0.99618 0.76037 0.0
H537 H 0.84988 0.02901 0.95463 0.0
H538 H 0.87383 0.02757 0.88423 0.0
H539 H 0.87411 0.01265 0.79198 0.0
H540 H 0.93487 0.99484 0.57933 0.0
H541 H 0.9109 0.99102 0.65126 0.0
C542 C 0.56074 0.86584 0.98012 0.0
C543 C 0.55024 0.84773 0.98414 0.0
C544 C 0.55454 0.87985 0.94724 0.0
C545 C 0.52547 0.88459 0.82715 0.0
H546 H 0.53044 0.93849 0.86823 0.0
C547 C 0.5002 0.94207 0.68857 0.0
C548 C 0.51184 0.95956 0.68524 0.0
C549 C 0.50368 0.9286 0.72715 0.0
C550 C 0.52913 0.92352 0.85589 0.0
H551 H 0.52475 0.83033 0.95759 0.0
H552 H 0.51382 0.85486 0.90068 0.0
H553 H 0.53841 0.9149 0.93286 0.0
H554 H 0.53635 0.97651 0.72006 0.0
H555 H 0.54256 0.95296 0.78638 0.0
H556 H 0.51656 0.89318 0.74989 0.0
C557 C 0.52694 0.85815 0.92267 0.0
C558 C 0.53366 0.90999 0.89302 0.0
C559 C 0.53309 0.84418 0.9558 0.0
C560 C 0.52701 0.96325 0.72151 0.0
C561 C 0.53051 0.94976 0.75991 0.0
C562 C 0.52101 0.89812 0.78994 0.0
C563 C 0.53774 0.87605 0.91736 0.0
C564 C 0.53201 0.89038 0.87898 0.0
C565 C 0.51891 0.93225 0.76326 0.0
C566 C 0.52292 0.91778 0.80366 0.0
H567 H 0.57394 0.86907 0.00176 0.0
H568 H 0.56327 0.89343 0.94381 0.0
H569 H 0.52431 0.86963 0.81473 0.0
H570 H 0.48833 0.93877 0.66153 0.0
H571 H 0.49429 0.91538 0.72899 0.0
C572 C 0.66142 0.48007 0.92374 0.0
C573 C 0.67216 0.46459 0.91455 0.0
C574 C 0.64794 0.48433 0.88607 0.0
C575 C 0.61881 0.46215 0.77353 0.0
H576 H 0.61334 0.51459 0.73566 0.0
C577 C 0.57148 0.47903 0.59721 0.0
C578 C 0.5597 0.49357 0.60629 0.0
C579 C 0.58587 0.47642 0.6337 0.0
C580 C 0.61457 0.49987 0.74616 0.0
H581 H 0.67762 0.44198 0.85739 0.0
H582 H 0.65419 0.44932 0.79223 0.0
H583 H 0.63678 0.5082 0.8028 0.0
H584 H 0.55469 0.51786 0.65716 0.0
H585 H 0.57936 0.51303 0.72227 0.0
H586 H 0.59661 0.45377 0.71731 0.0
C587 C 0.65585 0.45792 0.82901 0.0
C588 C 0.62799 0.49622 0.7847 0.0
C589 C 0.66928 0.45369 0.8665 0.0
C590 C 0.5631 0.50607 0.65078 0.0
C591 C 0.57748 0.5035 0.68737 0.0
C592 C 0.60542 0.46579 0.73514 0.0
C593 C 0.64491 0.47321 0.83841 0.0
C594 C 0.63034 0.47729 0.7986 0.0
C595 C 0.58881 0.48838 0.67985 0.0
C596 C 0.60319 0.48468 0.72071 0.0
H597 H 0.6632 0.48868 0.96047 0.0
H598 H 0.63963 0.4961 0.89476 0.0
H599 H 0.61998 0.44742 0.78403 0.0
H600 H 0.56918 0.46929 0.56282 0.0
H601 H 0.59459 0.4649 0.62601 0.0
C602 C 0.93852 0.62954 0.9867 0.0
C603 C 0.95203 0.64457 0.00379 0.0
C604 C 0.94374 0.61499 0.95202 0.0
C605 C 0.97805 0.60859 0.84499 0.0
H606 H 0.95988 0.55452 0.85182 0.0
C607 C 0.98017 0.55819 0.66044 0.0
C608 C 0.98819 0.54102 0.668 0.0
C609 C 0.9757 0.56951 0.7047 0.0
C610 C 0.96512 0.56957 0.84962 0.0
H611 H 0.98176 0.65562 0.99968 0.0
H612 H 0.99084 0.63022 0.93939 0.0
H613 H 0.95297 0.5763 0.92645 0.0
H614 H 0.99721 0.52185 0.72777 0.0
H615 H 0.98904 0.5416 0.80558 0.0
H616 H 0.98989 0.60205 0.76801 0.0
C617 C 0.97621 0.62974 0.95268 0.0
C618 C 0.96109 0.58202 0.8921 0.0
C619 C 0.97104 0.64418 0.98768 0.0
C620 C 0.99103 0.53503 0.72082 0.0
C621 C 0.98634 0.54629 0.76527 0.0
C622 C 0.98184 0.59624 0.80239 0.0
C623 C 0.96253 0.61529 0.93331 0.0
C624 C 0.9675 0.60168 0.89011 0.0
C625 C 0.97896 0.56383 0.75755 0.0
C626 C 0.97532 0.57663 0.80402 0.0
H627 H 0.92379 0.62939 0.99872 0.0
H628 H 0.93287 0.60407 0.93764 0.0
H629 H 0.98298 0.62369 0.84194 0.0
H630 H 0.97772 0.56312 0.62021 0.0
H631 H 0.96978 0.58283 0.69757 0.0
C632 C 0.0776 0.17102 0.17445 0.0
C633 C 0.08316 0.18624 0.21059 0.0
C634 C 0.06913 0.15355 0.19344 0.0
C635 C 0.06466 0.12218 0.30745 0.0
H636 H 0.01456 0.10441 0.25247 0.0
C637 C 0.02663 0.04825 0.35789 0.0
C638 C 0.00949 0.04948 0.38594 0.0
C639 C 0.03519 0.06399 0.32993 0.0
C640 C 0.02857 0.10919 0.26781 0.0
H641 H 0.0848 0.19505 0.29483 0.0
H642 H 0.07046 0.16405 0.32842 0.0
H643 H 0.0316 0.13415 0.21866 0.0
H644 H 0.98712 0.06741 0.40348 0.0
H645 H 0.00184 0.0948 0.35271 0.0
H646 H 0.06172 0.09716 0.35624 0.0
C647 C 0.07254 0.16582 0.28538 0.0
C648 C 0.0383 0.1261 0.24851 0.0
C649 C 0.0807 0.18348 0.26628 0.0
C650 C 1.0003 0.06611 0.38199 0.0
C651 C 0.00871 0.08175 0.35313 0.0
C652 C 0.0551 0.10508 0.3259 0.0
C653 C 0.06636 0.15089 0.24896 0.0
C654 C 0.05634 0.13278 0.26853 0.0
C655 C 0.02656 0.08103 0.32868 0.0
C656 C 0.03694 0.09853 0.30649 0.0
H657 H 0.07908 0.17288 0.13126 0.0
H658 H 0.06454 0.14218 0.16472 0.0
H659 H 0.07857 0.12707 0.32328 0.0
H660 H 0.03407 0.03561 0.36048 0.0
H661 H 0.04889 0.0631 0.31097 0.0
C662 C 0.31389 0.95521 0.29445 0.0
C663 C 0.31001 0.94557 0.24501 0.0
C664 C 0.3271 0.94905 0.32963 0.0
C665 C 0.37092 0.9278 0.3244 0.0
H666 H 0.36681 0.93149 0.48031 0.0
C667 C 0.43772 0.93782 0.45553 0.0
C668 C 0.43761 0.9538 0.49045 0.0
C669 C 0.4208 0.9295 0.43211 0.0
C670 C 0.36817 0.93025 0.43684 0.0
H671 H 0.31622 0.92155 0.19417 0.0
H672 H 0.3398 0.91093 0.25556 0.0
H673 H 0.33828 0.93024 0.42537 0.0
H674 H 0.41982 0.97281 0.53144 0.0
H675 H 0.39054 0.95858 0.49066 0.0
H676 H 0.40089 0.92928 0.33537 0.0
C677 C 0.33245 0.92313 0.26717 0.0
C678 C 0.35184 0.92949 0.40548 0.0
C679 C 0.31897 0.92915 0.23225 0.0
C680 C 0.42029 0.96056 0.50434 0.0
C681 C 0.40346 0.95224 0.48133 0.0
C682 C 0.38728 0.9287 0.35574 0.0
C683 C 0.33689 0.93327 0.31573 0.0
C684 C 0.35317 0.92914 0.34891 0.0
C685 C 0.40356 0.93698 0.44373 0.0
C686 C 0.38616 0.93088 0.41218 0.0
H687 H 0.30707 0.96786 0.30518 0.0
H688 H 0.33041 0.95731 0.3664 0.0
H689 H 0.37237 0.92764 0.28084 0.0
H690 H 0.45094 0.93233 0.4444 0.0
H691 H 0.4213 0.91766 0.40361 0.0
C692 C 0.43095 0.31525 0.24047 0.0
C693 C 0.41947 0.31592 0.19494 0.0
C694 C 0.4372 0.33208 0.26904 0.0
C695 C 0.44686 0.38369 0.24222 0.0
H696 H 0.46206 0.38637 0.39228 0.0
C697 C 0.48123 0.45245 0.35362 0.0
C698 C 0.49678 0.44991 0.38639 0.0
C699 C 0.47086 0.43664 0.32878 0.0
C700 C 0.45795 0.38575 0.35022 0.0
H701 H 0.40393 0.33413 0.14645 0.0
H702 H 0.41407 0.36346 0.19784 0.0
H703 H 0.44286 0.35785 0.35775 0.0
H704 H 0.51434 0.42912 0.41673 0.0
H705 H 0.49618 0.40151 0.3734 0.0
H706 H 0.46189 0.41173 0.23513 0.0
C707 C 0.41887 0.35012 0.21043 0.0
C708 C 0.44695 0.36944 0.33043 0.0
C709 C 0.41285 0.33333 0.18144 0.0
C710 C 0.50244 0.43148 0.39153 0.0
C711 C 0.49194 0.41568 0.36728 0.0
C712 C 0.45766 0.4001 0.26224 0.0
C713 C 0.43189 0.34985 0.25285 0.0
C714 C 0.44155 0.36805 0.2759 0.0
C715 C 0.47577 0.41806 0.33695 0.0
C716 C 0.4636 0.40111 0.31612 0.0
H717 H 0.43641 0.302 0.25116 0.0
H718 H 0.4473 0.33127 0.3012 0.0
H719 H 0.44333 0.38303 0.19976 0.0
H720 H 0.47653 0.46652 0.34933 0.0
H721 H 0.45845 0.43884 0.30549 0.0
C722 C 0.16656 0.59615 0.18585 0.0
C723 C 0.18189 0.5958 0.22137 0.0
C724 C 0.14801 0.59525 0.20559 0.0
C725 C 0.11251 0.57464 0.25337 0.0
H726 H 0.09787 0.59295 0.39455 0.0
C727 C 0.05587 0.53314 0.38406 0.0
C728 C 0.04471 0.54321 0.41909 0.0
C729 C 0.07004 0.543 0.35278 0.0
C730 C 0.10154 0.58797 0.35457 0.0
H731 H 0.18981 0.59622 0.30575 0.0
H732 H 0.15746 0.59392 0.3401 0.0
H733 H 0.12767 0.60637 0.35399 0.0
H734 H 0.03882 0.57142 0.44711 0.0
H735 H 0.06347 0.58872 0.39184 0.0
H736 H 0.08652 0.5561 0.25417 0.0
C737 C 0.15973 0.59505 0.29697 0.0
C738 C 0.11874 0.59552 0.33161 0.0
C739 C 0.17831 0.59613 0.27725 0.0
C740 C 0.04732 0.56333 0.4205 0.0
C741 C 0.06149 0.57321 0.38914 0.0
C742 C 0.09531 0.56717 0.27619 0.0
C743 C 0.14432 0.5938 0.26124 0.0
C744 C 0.12471 0.5885 0.2815 0.0
C745 C 0.07329 0.56313 0.35584 0.0
C746 C 0.08992 0.57329 0.32781 0.0
H747 H 0.16871 0.5958 0.14254 0.0
H748 H 0.13648 0.59473 0.17702 0.0
H749 H 0.11669 0.56873 0.21494 0.0
H750 H 0.05415 0.51761 0.38236 0.0
H751 H 0.07903 0.53476 0.32814 0.0
C752 C 0.95766 0.83355 0.94594 0.0
C753 C 0.96464 0.81653 0.92767 0.0
C754 C 0.96587 0.85135 0.92862 0.0
C755 C 0.99766 0.87436 0.82315 0.0
H756 H 0.99806 0.91829 0.92096 0.0
C757 C 0.02911 0.94913 0.75915 0.0
C758 C 0.01479 0.96142 0.75781 0.0
C759 C 0.02648 0.93236 0.78905 0.0
C760 C 0.99819 0.90609 0.89354 0.0
H761 H 0.98561 0.80509 0.87552 0.0
H762 H 1.00055 0.83615 0.84754 0.0
H763 H 0.98636 0.88644 0.95264 0.0
H764 H 0.98744 0.96701 0.79022 0.0
H765 H 0.98316 0.93806 0.84408 0.0
H766 H 0.00965 0.89414 0.7643 0.0
C767 C 0.98842 0.83572 0.87446 0.0
C768 C 0.99129 0.88787 0.91131 0.0
C769 C 0.97998 0.81785 0.89108 0.0
C770 C 0.99869 0.95774 0.79084 0.0
C771 C 0.99625 0.94121 0.82159 0.0
C772 C 0.00489 0.89251 0.80578 0.0
C773 C 0.98155 0.85273 0.89332 0.0
C774 C 0.99048 0.87183 0.87592 0.0
C775 C 0.00971 0.92795 0.81888 0.0
C776 C 0.00485 0.90857 0.84046 0.0
H777 H 0.94611 0.83325 0.97487 0.0
H778 H 0.95985 0.86405 0.94308 0.0
H779 H 0.99704 0.86249 0.79442 0.0
H780 H 0.04158 0.95161 0.73366 0.0
H781 H 0.03706 0.92234 0.7866 0.0
C782 C 0.69522 0.03392 0.85239 0.0
C783 C 0.70607 0.05002 0.87493 0.0
C784 C 0.67893 0.03604 0.82319 0.0
C785 C 0.63846 0.04473 0.81163 0.0
H786 H 0.63355 0.07764 0.68982 0.0
C787 C 0.56605 0.04939 0.71941 0.0
C788 C 0.56545 0.04522 0.66384 0.0
C789 C 0.5834 0.05446 0.74483 0.0
C790 C 0.63475 0.0685 0.72404 0.0
H791 H 0.70905 0.08106 0.88155 0.0
H792 H 0.68036 0.08475 0.82983 0.0
H793 H 0.66464 0.07701 0.73251 0.0
H794 H 0.58217 0.04435 0.59038 0.0
H795 H 0.61257 0.05307 0.63495 0.0
H796 H 0.60891 0.03585 0.80309 0.0
C797 C 0.68456 0.07053 0.83521 0.0
C798 C 0.65245 0.0682 0.74843 0.0
C799 C 0.70087 0.0684 0.86494 0.0
C800 C 0.5823 0.04746 0.63338 0.0
C801 C 0.59967 0.05256 0.65882 0.0
C802 C 0.62084 0.04519 0.78782 0.0
C803 C 0.67317 0.05429 0.81569 0.0
C804 C 0.65447 0.05598 0.79168 0.0
C805 C 0.60042 0.05542 0.71507 0.0
C806 C 0.61883 0.05685 0.7433 0.0
H807 H 0.69867 0.01955 0.85986 0.0
H808 H 0.67045 0.02332 0.80799 0.0
H809 H 0.63964 0.03536 0.84538 0.0
H810 H 0.55322 0.04791 0.74368 0.0
H811 H 0.58357 0.05685 0.78816 0.0
C812 C 0.59293 0.68178 0.867 0.0
C813 C 0.59597 0.68545 0.92236 0.0
C814 C 0.58633 0.66332 0.84847 0.0
C815 C 0.55564 0.62233 0.89202 0.0
H816 H 0.57576 0.59482 0.77109 0.0
C817 C 0.51359 0.56304 0.7613 0.0
C818 C 0.52267 0.54662 0.74984 0.0
C819 C 0.52307 0.57849 0.79002 0.0
C820 C 0.57011 0.60231 0.80522 0.0
H821 H 0.59502 0.67265 0.00147 0.0
H822 H 0.58333 0.64053 0.96901 0.0
H823 H 0.59296 0.625 0.80375 0.0
H824 H 0.5483 0.53297 0.7615 0.0
H825 H 0.56497 0.56017 0.81075 0.0
H826 H 0.5324 0.60006 0.89208 0.0
C827 C 0.58621 0.65187 0.94008 0.0
C828 C 0.57986 0.61955 0.82357 0.0
C829 C 0.59308 0.67019 0.95847 0.0
C830 C 0.54095 0.54545 0.77 0.0
C831 C 0.55054 0.56102 0.79779 0.0
C832 C 0.5457 0.60529 0.87299 0.0
C833 C 0.58235 0.64839 0.88517 0.0
C834 C 0.57267 0.62971 0.86703 0.0
C835 C 0.54185 0.57783 0.80679 0.0
C836 C 0.55284 0.59518 0.82936 0.0
H837 H 0.59501 0.69331 0.83843 0.0
H838 H 0.58337 0.66094 0.80589 0.0
H839 H 0.54975 0.63004 0.92532 0.0
H840 H 0.49953 0.56428 0.74595 0.0
H841 H 0.51612 0.59136 0.79642 0.0
C842 C 0.84124 0.40108 0.97512 0.0
C843 C 0.82579 0.40026 0.9396 0.0
C844 C 0.85981 0.40271 0.95525 0.0
C845 C 0.89435 0.42451 0.90585 0.0
H846 H 0.91004 0.40555 0.76643 0.0
C847 C 0.95011 0.46677 0.77367 0.0
C848 C 0.96189 0.45683 0.74018 0.0
C849 C 0.93602 0.45675 0.8049 0.0
C850 C 0.90607 0.41075 0.80591 0.0
H851 H 0.81775 0.39844 0.85525 0.0
H852 H 0.85008 0.40202 0.82063 0.0
H853 H 0.88068 0.39125 0.80764 0.0
H854 H 0.96891 0.42872 0.71476 0.0
H855 H 0.94441 0.41114 0.76997 0.0
H856 H 0.91961 0.44412 0.90394 0.0
C857 C 0.84791 0.40127 0.86387 0.0
C858 C 0.88912 0.40268 0.82924 0.0
C859 C 0.82933 0.39945 0.88374 0.0
C860 C 0.95993 0.43671 0.74018 0.0
C861 C 0.94584 0.42666 0.77149 0.0
C862 C 0.91131 0.4325 0.88266 0.0
C863 C 0.86337 0.40375 0.89947 0.0
C864 C 0.88278 0.40985 0.87876 0.0
C865 C 0.93347 0.43658 0.80335 0.0
C866 C 0.91707 0.42612 0.83168 0.0
H867 H 0.83914 0.40183 0.0184 0.0
H868 H 0.87139 0.40415 0.98376 0.0
H869 H 0.88987 0.43057 0.94375 0.0
H870 H 0.95131 0.4823 0.77425 0.0
H871 H 0.92659 0.46485 0.82839 0.0
C872 C 0.07729 0.20188 0.78328 0.0
C873 C 0.06559 0.20829 0.82447 0.0
C874 C 0.07299 0.18382 0.75867 0.0
C875 C 0.04549 0.13667 0.7838 0.0
H876 H 0.0561 0.12702 0.63267 0.0
C877 C 0.03678 0.05984 0.6902 0.0
C878 C 0.02871 0.05782 0.6385 0.0
C879 C 0.04239 0.07811 0.71237 0.0
C880 C 0.05293 0.12946 0.67491 0.0
H881 H 0.03973 0.20079 0.8704 0.0
H882 H 0.03183 0.16986 0.8259 0.0
H883 H 0.06231 0.1594 0.67002 0.0
H884 H 0.0204 0.07356 0.56949 0.0
H885 H 0.02973 0.10503 0.6083 0.0
H886 H 0.03546 0.10687 0.78821 0.0
C887 C 0.04463 0.17856 0.81359 0.0
C888 C 0.0567 0.14804 0.6965 0.0
C889 C 0.04899 0.19654 0.83844 0.0
C890 C 0.02662 0.07446 0.60935 0.0
C891 C 0.03212 0.09262 0.63151 0.0
C892 C 0.04161 0.11812 0.76212 0.0
C893 C 0.05681 0.17175 0.77434 0.0
C894 C 0.05291 0.15193 0.75117 0.0
C895 C 0.04001 0.09474 0.68338 0.0
C896 C 0.04515 0.11428 0.70728 0.0
H897 H 0.09007 0.21061 0.77099 0.0
H898 H 0.08275 0.17908 0.72874 0.0
H899 H 0.04273 0.13902 0.82632 0.0
H900 H 0.03865 0.04736 0.71374 0.0
H901 H 0.04863 0.07918 0.75219 0.0
C902 C 0.32303 0.03373 0.82184 0.0
C903 C 0.31346 0.01552 0.83185 0.0
C904 C 0.33953 0.03566 0.79011 0.0
C905 C 0.36896 0.00902 0.69498 0.0
H906 H 0.41014 0.04471 0.75045 0.0
C907 C 0.44757 0.00369 0.64068 0.0
C908 C 0.45946 0.02073 0.63224 0.0
C909 C 0.42887 0.00424 0.65835 0.0
C910 C 0.39872 0.03488 0.73388 0.0
H911 H 0.31356 0.98508 0.81513 0.0
H912 H 0.34228 0.98839 0.76039 0.0
H913 H 0.37887 0.04363 0.79227 0.0
H914 H 0.46107 0.05172 0.63525 0.0
H915 H 0.42836 0.05273 0.66672 0.0
H916 H 0.38908 0.99987 0.63768 0.0
C917 C 0.33691 0.00127 0.77611 0.0
C918 C 0.38073 0.03428 0.7578 0.0
C919 C 0.32037 0.99936 0.80756 0.0
C920 C 0.45222 0.03836 0.64145 0.0
C921 C 0.43353 0.03893 0.65962 0.0
C922 C 0.38698 0.00955 0.67127 0.0
C923 C 0.34695 0.01941 0.76786 0.0
C924 C 0.36565 0.02116 0.73918 0.0
C925 C 0.42166 0.02186 0.66859 0.0
C926 C 0.40214 0.02231 0.6909 0.0
H927 H 0.31796 0.04649 0.83947 0.0
H928 H 0.34664 0.04989 0.78376 0.0
H929 H 0.35763 0.99898 0.67886 0.0
H930 H 0.45284 0.98988 0.63478 0.0
H931 H 0.42023 0.99083 0.66562 0.0
C932 C 0.47247 0.30883 0.82129 0.0
C933 C 0.4601 0.29448 0.79578 0.0
C934 C 0.4762 0.32694 0.79884 0.0
C935 C 0.45602 0.35919 0.70299 0.0
H936 H 0.50462 0.38945 0.72306 0.0
C937 C 0.47773 0.4326 0.60281 0.0
C938 C 0.48707 0.44716 0.63582 0.0
C939 C 0.47359 0.41399 0.62192 0.0
C940 C 0.49092 0.38122 0.71758 0.0
H941 H 0.44249 0.2877 0.72554 0.0
H942 H 0.44948 0.31921 0.68518 0.0
H943 H 0.50028 0.35641 0.753 0.0
H944 H 0.49891 0.45366 0.71534 0.0
H945 H 0.49183 0.42108 0.74846 0.0
H946 H 0.44691 0.38404 0.66635 0.0
C947 C 0.45594 0.31661 0.72338 0.0
C948 C 0.48839 0.36226 0.73478 0.0
C949 C 0.45204 0.29848 0.74622 0.0
C950 C 0.49165 0.44281 0.68893 0.0
C951 C 0.48775 0.42413 0.70777 0.0
C952 C 0.45864 0.37809 0.68514 0.0
C953 C 0.4678 0.33121 0.74993 0.0
C954 C 0.47084 0.35102 0.7283 0.0
C955 C 0.47894 0.40946 0.67418 0.0
C956 C 0.47606 0.38936 0.69278 0.0
H957 H 0.47857 0.3064 0.86015 0.0
H958 H 0.4851 0.33783 0.82117 0.0
H959 H 0.44221 0.35115 0.69806 0.0
H960 H 0.47398 0.43546 0.56171 0.0
H961 H 0.46685 0.40296 0.59508 0.0
C962 C 0.19145 0.54132 0.85254 0.0
C963 C 0.20246 0.52646 0.86457 0.0
C964 C 0.17475 0.53763 0.82297 0.0
C965 C 0.1374 0.49887 0.78775 0.0
H966 H 0.12304 0.53583 0.68578 0.0
C967 C 0.06057 0.49853 0.70947 0.0
C968 C 0.05817 0.50325 0.65527 0.0
C969 C 0.07867 0.50021 0.73237 0.0
C970 C 0.12687 0.52523 0.71367 0.0
H971 H 0.20462 0.49604 0.85345 0.0
H972 H 0.17535 0.48958 0.80155 0.0
H973 H 0.15417 0.54063 0.72745 0.0
H974 H 0.07307 0.51303 0.58233 0.0
H975 H 0.10449 0.51573 0.62196 0.0
H976 H 0.1101 0.4834 0.77355 0.0
C977 C 0.17964 0.5041 0.81568 0.0
C978 C 0.14467 0.5281 0.73803 0.0
C979 C 0.19643 0.50781 0.84529 0.0
C980 C 0.07433 0.50942 0.62434 0.0
C981 C 0.09239 0.51106 0.64715 0.0
C982 C 0.11956 0.496 0.76335 0.0
C983 C 0.16851 0.51896 0.80462 0.0
C984 C 0.1501 0.51508 0.77582 0.0
C985 C 0.0948 0.50663 0.70156 0.0
C986 C 0.11401 0.50923 0.72632 0.0
H987 H 0.19531 0.55577 0.86782 0.0
H988 H 0.16638 0.54936 0.81615 0.0
H989 H 0.14104 0.48865 0.81704 0.0
H990 H 0.04845 0.49375 0.7345 0.0
H991 H 0.07998 0.49689 0.77457 0.0
C992 C 0.94533 0.80268 0.36208 0.0
C993 C 0.93614 0.8014 0.31186 0.0
C994 C 0.95007 0.82056 0.38754 0.0
C995 C 0.96157 0.87112 0.35522 0.0
H996 H 0.95126 0.88154 0.50615 0.0
C997 C 0.97636 0.9475 0.44671 0.0
C998 C 0.98312 0.94943 0.49986 0.0
C999 C 0.96983 0.92942 0.4251 0.0
C1000 C 0.95451 0.87883 0.46411 0.0
H1001 H 0.92479 0.81793 0.24909 0.0
H1002 H 0.93303 0.84893 0.2934 0.0
H1003 H 0.94161 0.84975 0.46729 0.0
H1004 H 0.98842 0.93383 0.57192 0.0
H1005 H 0.97767 0.90239 0.53388 0.0
H1006 H 0.97492 0.89986 0.35187 0.0
C1007 C 0.93649 0.83615 0.3132 0.0
C1008 C 0.9489 0.86061 0.44189 0.0
C1009 C 0.93156 0.81834 0.28817 0.0
C1010 C 0.98315 0.93289 0.53095 0.0
C1011 C 0.97686 0.91481 0.50916 0.0
C1012 C 0.96739 0.88923 0.37751 0.0
C1013 C 0.94601 0.8375 0.36277 0.0
C1014 C 0.95227 0.85662 0.38713 0.0
C1015 C 0.97015 0.91279 0.45586 0.0
C1016 C 0.96386 0.89341 0.43221 0.0
H1017 H 0.94906 0.78988 0.38126 0.0
H1018 H 0.95748 0.82121 0.4257 0.0
H1019 H 0.96461 0.86837 0.31303 0.0
H1020 H 0.97602 0.95996 0.42179 0.0
H1021 H 0.96443 0.92854 0.38429 0.0
C1022 C 0.6882 0.01676 0.33397 0.0
C1023 C 0.69354 0.00286 0.29674 0.0
C1024 C 0.67034 0.01466 0.35886 0.0
C1025 C 0.6339 0.00499 0.42197 0.0
H1026 H 0.5923 0.98019 0.33704 0.0
C1027 C 0.55758 0.99279 0.50853 0.0
C1028 C 0.54229 0.99321 0.4731 0.0
C1029 C 0.57617 0.99358 0.48876 0.0
C1030 C 0.60366 0.98741 0.36119 0.0
H1031 H 0.68432 0.97523 0.25924 0.0
H1032 H 0.65382 0.97102 0.30503 0.0
H1033 H 0.62429 0.98211 0.30108 0.0
H1034 H 0.53444 0.99537 0.38946 0.0
H1035 H 0.56689 0.99758 0.35485 0.0
H1036 H 0.61311 0.01129 0.48069 0.0
C1037 C 0.66314 0.98398 0.3134 0.0
C1038 C 0.62219 0.98818 0.34091 0.0
C1039 C 0.6809 0.98623 0.28782 0.0
C1040 C 0.54597 0.99485 0.4176 0.0
C1041 C 0.5646 0.99595 0.39782 0.0
C1042 C 0.61533 0.0045 0.44189 0.0
C1043 C 0.65735 0.99842 0.34811 0.0
C1044 C 0.63763 0.99699 0.37093 0.0
C1045 C 0.58 0.99513 0.43304 0.0
C1046 C 0.59989 0.99571 0.41179 0.0
H1047 H 0.69764 0.02959 0.34294 0.0
H1048 H 0.66652 0.02619 0.38497 0.0
H1049 H 0.64534 0.01167 0.44684 0.0
H1050 H 0.55514 0.99145 0.55158 0.0
H1051 H 0.58748 0.99258 0.51727 0.0
C1052 C 0.57393 0.68421 0.28163 0.0
C1053 C 0.56569 0.70039 0.30092 0.0
C1054 C 0.56968 0.66646 0.30579 0.0
C1055 C 0.5556 0.64316 0.43044 0.0
H1056 H 0.53677 0.59958 0.34006 0.0
C1057 C 0.52971 0.56976 0.52159 0.0
C1058 C 0.53159 0.55293 0.4912 0.0
C1059 C 0.53421 0.58778 0.49905 0.0
C1060 C 0.54236 0.61145 0.36589 0.0
H1061 H 0.54667 0.71076 0.36076 0.0
H1062 H 0.53967 0.67957 0.4046 0.0
H1063 H 0.54385 0.63104 0.3003 0.0
H1064 H 0.54028 0.54185 0.41377 0.0
H1065 H 0.54908 0.57328 0.37511 0.0
H1066 H 0.55496 0.62365 0.49566 0.0
C1067 C 0.5493 0.68075 0.37037 0.0
C1068 C 0.54623 0.62952 0.34306 0.0
C1069 C 0.55325 0.69851 0.34535 0.0
C1070 C 0.53857 0.55455 0.43812 0.0
C1071 C 0.54344 0.57262 0.41583 0.0
C1072 C 0.5521 0.62501 0.45317 0.0
C1073 C 0.55734 0.66454 0.35035 0.0
C1074 C 0.55282 0.64554 0.37513 0.0
C1075 C 0.54109 0.58953 0.44574 0.0
C1076 C 0.54534 0.60886 0.42128 0.0
H1077 H 0.58337 0.68521 0.24696 0.0
H1078 H 0.57611 0.65421 0.28976 0.0
H1079 H 0.5609 0.65527 0.45586 0.0
H1080 H 0.52415 0.56905 0.56244 0.0
H1081 H 0.53178 0.6003 0.52322 0.0
C1082 C 0.80617 0.47379 0.34161 0.0
C1083 C 0.80556 0.47973 0.28785 0.0
C1084 C 0.8227 0.47783 0.37206 0.0
C1085 C 0.86974 0.50722 0.37571 0.0
H1086 H 0.88456 0.46468 0.45695 0.0
C1087 C 0.94631 0.50434 0.4513 0.0
C1088 C 0.94864 0.49703 0.50297 0.0
C1089 C 0.92831 0.50338 0.42807 0.0
C1090 C 0.88054 0.4768 0.4351 0.0
H1091 H 0.82174 0.49511 0.22462 0.0
H1092 H 0.85045 0.50214 0.27753 0.0
H1093 H 0.85385 0.46172 0.41269 0.0
H1094 H 0.93373 0.48311 0.57085 0.0
H1095 H 0.90241 0.48152 0.5304 0.0
H1096 H 0.89665 0.52215 0.39741 0.0
C1097 C 0.83811 0.49458 0.29655 0.0
C1098 C 0.86288 0.47513 0.40979 0.0
C1099 C 0.82158 0.49058 0.26617 0.0
C1100 C 0.93251 0.48882 0.53089 0.0
C1101 C 0.91453 0.48782 0.50761 0.0
C1102 C 0.88744 0.50888 0.40096 0.0
C1103 C 0.83903 0.48786 0.34944 0.0
C1104 C 0.8573 0.49025 0.37939 0.0
C1105 C 0.9122 0.49507 0.45588 0.0
C1106 C 0.89311 0.49363 0.43061 0.0
H1107 H 0.794 0.46561 0.35975 0.0
H1108 H 0.82279 0.47278 0.41305 0.0
H1109 H 0.86581 0.51925 0.35326 0.0
H1110 H 0.95839 0.51076 0.42858 0.0
H1111 H 0.92706 0.50888 0.38788 0.0
loop_
_geom_bond_atom_site_label_1
_geom_bond_atom_site_label_2
_geom_bond_distance
_geom_bond_site_symmetry_2
_ccdc_geom_bond_type
C0 C1 1.386 . S
C0 C2 1.397 . S
C0 H24 0.931 . S
C1 C0 1.386 . S
C1 C5 1.397 . S
C2 C0 1.397 . S
C2 C3 1.384 . S
C2 H25 0.930 . S
C3 C2 1.384 . S
C3 C4 1.377 . S
C3 C6 1.481 . S
C4 C3 1.377 . S
C4 C5 1.389 . S
C4 H26 0.929 . S
C5 C1 1.397 . S
C5 C4 1.389 . S
C5 H27 0.931 . S
C6 C3 1.481 . S
C6 C7 1.387 . S
C6 C11 1.390 1_556 S
C7 C6 1.387 . S
C7 C8 1.401 1_556 S
C7 H28 0.930 . S
C8 C7 1.401 1_554 S
C8 C9 1.376 . S
C8 C17 1.511 1_554 S
C9 C8 1.376 . S
C9 C10 1.392 . S
C9 H30 0.931 . S
C10 C9 1.392 . S
C10 C11 1.361 . S
C10 C12 1.500 . S
C11 C6 1.390 1_554 S
C11 C10 1.361 . S
C11 H29 0.931 . S
C12 C10 1.500 . S
C12 C13 1.371 . S
C12 C14 1.365 . S
C13 C12 1.371 . S
C13 C23 1.386 . S
C13 H31 0.931 . S
C14 C12 1.365 . S
C14 C15 1.409 . S
C14 H32 0.929 . S
C15 C14 1.409 . S
C15 C16 1.380 . S
C15 H33 0.930 . S
C16 C15 1.380 . S
C16 C23 1.357 . S
C17 C8 1.511 1_556 S
C17 C18 1.341 . S
C17 C19 1.371 1_556 S
C18 C17 1.341 . S
C18 C22 1.394 . S
C18 H34 0.930 . S
C19 C17 1.371 1_554 S
C19 C20 1.392 . S
C19 H35 0.931 . S
C20 C19 1.392 . S
C20 C21 1.331 1_554 S
C20 H38 0.932 . S
C21 C20 1.331 1_556 S
C21 C22 1.336 . S
C22 C18 1.394 . S
C22 C21 1.336 . S
C22 H37 0.929 . S
C23 C13 1.386 . S
C23 C16 1.357 . S
C23 H36 0.928 . S
H24 C0 0.931 . S
H25 C2 0.930 . S
H26 C4 0.929 . S
H27 C5 0.931 . S
H28 C7 0.930 . S
H29 C11 0.931 . S
H30 C9 0.931 . S
H31 C13 0.931 . S
H32 C14 0.929 . S
H33 C15 0.930 . S
H34 C18 0.930 . S
H35 C19 0.931 . S
H36 C23 0.928 . S
H37 C22 0.929 . S
H38 C20 0.932 . S
C39 C40 1.386 . S
C39 C41 1.397 . S
C39 H63 0.931 . S
C40 C39 1.386 . S
C40 C44 1.397 . S
C41 C39 1.397 . S
C41 C42 1.384 . S
C41 H64 0.930 . S
C42 C41 1.384 . S
C42 C43 1.377 . S
C42 C45 1.481 . S
C43 C42 1.377 . S
C43 C44 1.389 . S
C43 H65 0.929 . S
C44 C40 1.397 . S
C44 C43 1.389 . S
C44 H66 0.931 . S
C45 C42 1.481 . S
C45 C46 1.387 . S
C45 C50 1.390 1_556 S
C46 C45 1.387 . S
C46 C47 1.401 . S
C46 H67 0.930 . S
C47 C46 1.401 . S
C47 C48 1.376 1_556 S
C47 C56 1.511 . S
C48 C47 1.376 1_554 S
C48 C49 1.392 . S
C48 H69 0.931 . S
C49 C48 1.392 . S
C49 C50 1.361 . S
C49 C51 1.500 . S
C50 C45 1.390 1_554 S
C50 C49 1.361 . S
C50 H68 0.931 . S
C51 C49 1.500 . S
C51 C52 1.371 . S
C51 C53 1.365 . S
C52 C51 1.371 . S
C52 C62 1.386 . S
C52 H70 0.931 . S
C53 C51 1.365 . S
C53 C54 1.409 . S
C53 H71 0.929 . S
C54 C53 1.409 . S
C54 C55 1.380 . S
C54 H72 0.930 . S
C55 C54 1.380 . S
C55 C62 1.357 . S
C56 C47 1.511 . S
C56 C57 1.341 . S
C56 C58 1.371 1_556 S
C57 C56 1.341 . S
C57 C61 1.394 . S
C57 H73 0.930 . S
C58 C56 1.371 1_554 S
C58 C59 1.393 1_554 S
C58 H74 0.931 . S
C59 C58 1.393 1_556 S
C59 C60 1.330 . S
C59 H77 0.933 1_556 S
C60 C59 1.330 . S
C60 C61 1.336 . S
C61 C57 1.394 . S
C61 C60 1.336 . S
C61 H76 0.929 . S
C62 C52 1.386 . S
C62 C55 1.357 . S
C62 H75 0.928 . S
H63 C39 0.931 . S
H64 C41 0.930 . S
H65 C43 0.929 . S
H66 C44 0.931 . S
H67 C46 0.930 . S
H68 C50 0.931 . S
H69 C48 0.931 . S
H70 C52 0.931 . S
H71 C53 0.929 . S
H72 C54 0.930 . S
H73 C57 0.930 . S
H74 C58 0.931 . S
H75 C62 0.928 . S
H76 C61 0.929 . S
H77 C59 0.933 1_554 S
C78 C79 1.396 . S
C78 C80 1.397 . S
C78 H102 0.931 . S
C79 C78 1.396 . S
C79 C83 1.389 1_565 S
C80 C78 1.397 . S
C80 C81 1.389 . S
C80 H103 0.930 . S
C81 C80 1.389 . S
C81 C82 1.372 1_565 S
C81 C84 1.478 . S
C82 C81 1.372 1_545 S
C82 C83 1.389 . S
C82 H104 0.929 . S
C83 C79 1.389 1_545 S
C83 C82 1.389 . S
C83 H105 0.931 . S
C84 C81 1.478 . S
C84 C85 1.392 . S
C84 C89 1.390 1_556 S
C85 C84 1.392 . S
C85 C86 1.399 1_556 S
C85 H106 0.930 . S
C86 C85 1.399 1_554 S
C86 C87 1.376 . S
C86 C95 1.516 . S
C87 C86 1.376 . S
C87 C88 1.387 . S
C87 H108 0.938 . S
C88 C87 1.387 . S
C88 C89 1.362 . S
C88 C90 1.499 1_565 S
C89 C84 1.390 1_554 S
C89 C88 1.362 . S
C89 H107 0.930 . S
C90 C88 1.499 1_545 S
C90 C91 1.362 1_545 S
C90 C92 1.375 . S
C91 C90 1.362 1_565 S
C91 C101 1.386 . S
C91 H109 0.931 . S
C92 C90 1.375 . S
C92 C93 1.409 . S
C92 H110 0.929 . S
C93 C92 1.409 . S
C93 C94 1.378 . S
C93 H111 0.930 . S
C94 C93 1.378 . S
C94 C101 1.360 1_545 S
C95 C86 1.516 . S
C95 C96 1.341 1_554 S
C95 C97 1.371 1_565 S
C96 C95 1.341 1_556 S
C96 C100 1.394 . S
C96 H112 0.930 . S
C97 C95 1.371 1_545 S
C97 C98 1.392 . S
C97 H113 0.931 . S
C98 C97 1.392 . S
C98 C99 1.322 1_544 S
C98 H116 0.932 . S
C99 C98 1.322 1_566 S
C99 C100 1.343 . S
C100 C96 1.394 . S
C100 C99 1.343 . S
C100 H115 0.929 . S
C101 C91 1.386 . S
C101 C94 1.360 1_565 S
C101 H114 0.928 . S
H102 C78 0.931 . S
H103 C80 0.930 . S
H104 C82 0.929 . S
H105 C83 0.931 . S
H106 C85 0.930 . S
H107 C89 0.930 . S
H108 C87 0.938 . S
H109 C91 0.931 . S
H110 C92 0.929 . S
H111 C93 0.930 . S
H112 C96 0.930 . S
H113 C97 0.931 . S
H114 C101 0.928 . S
H115 C100 0.929 . S
H116 C98 0.932 . S
C117 C118 1.386 . S
C117 C119 1.397 . S
C117 H141 0.931 . S
C118 C117 1.386 . S
C118 C122 1.397 . S
C119 C117 1.397 . S
C119 C120 1.384 . S
C119 H142 0.930 . S
C120 C119 1.384 . S
C120 C121 1.377 . S
C120 C123 1.481 . S
C121 C120 1.377 . S
C121 C122 1.389 . S
C121 H143 0.929 . S
C122 C118 1.397 . S
C122 C121 1.389 . S
C122 H144 0.931 . S
C123 C120 1.481 . S
C123 C124 1.387 . S
C123 C128 1.390 . S
C124 C123 1.387 . S
C124 C125 1.401 . S
C124 H145 0.930 . S
C125 C124 1.401 . S
C125 C126 1.376 . S
C125 C134 1.511 . S
C126 C125 1.376 . S
C126 C127 1.392 . S
C126 H147 0.931 1_554 S
C127 C126 1.392 . S
C127 C128 1.361 . S
C127 C129 1.500 1_554 S
C128 C123 1.390 . S
C128 C127 1.361 . S
C128 H146 0.931 . S
C129 C127 1.500 1_556 S
C129 C130 1.371 . S
C129 C131 1.365 . S
C130 C129 1.371 . S
C130 C140 1.386 . S
C130 H148 0.931 . S
C131 C129 1.365 . S
C131 C132 1.409 . S
C131 H149 0.929 1_556 S
C132 C131 1.409 . S
C132 C133 1.380 . S
C132 H150 0.930 . S
C133 C132 1.380 . S
C133 C140 1.357 . S
C134 C125 1.511 . S
C134 C135 1.341 . S
C134 C136 1.371 1_554 S
C135 C134 1.341 . S
C135 C139 1.394 . S
C135 H151 0.930 . S
C136 C134 1.371 1_556 S
C136 C137 1.392 . S
C136 H152 0.931 . S
C137 C136 1.392 . S
C137 C138 1.331 1_556 S
C137 H155 0.932 . S
C138 C137 1.331 1_554 S
C138 C139 1.336 . S
C139 C135 1.394 . S
C139 C138 1.336 . S
C139 H154 0.929 . S
C140 C130 1.386 . S
C140 C133 1.357 . S
C140 H153 0.928 . S
H141 C117 0.931 . S
H142 C119 0.930 . S
H143 C121 0.929 . S
H144 C122 0.931 . S
H145 C124 0.930 . S
H146 C128 0.931 . S
H147 C126 0.931 1_556 S
H148 C130 0.931 . S
H149 C131 0.929 1_554 S
H150 C132 0.930 . S
H151 C135 0.930 . S
H152 C136 0.931 . S
H153 C140 0.928 . S
H154 C139 0.929 . S
H155 C137 0.932 . S
C156 C157 1.386 . S
C156 C158 1.397 . S
C156 H180 0.931 . S
C157 C156 1.386 . S
C157 C161 1.397 . S
C158 C156 1.397 . S
C158 C159 1.384 . S
C158 H181 0.930 . S
C159 C158 1.384 . S
C159 C160 1.377 . S
C159 C162 1.481 . S
C160 C159 1.377 . S
C160 C161 1.389 . S
C160 H182 0.929 . S
C161 C157 1.397 . S
C161 C160 1.389 . S
C161 H183 0.931 . S
C162 C159 1.481 . S
C162 C163 1.387 . S
C162 C167 1.390 . S
C163 C162 1.387 . S
C163 C164 1.401 . S
C163 H184 0.930 . S
C164 C163 1.401 . S
C164 C165 1.376 . S
C164 C173 1.511 . S
C165 C164 1.376 . S
C165 C166 1.392 . S
C165 H186 0.931 . S
C166 C165 1.392 . S
C166 C167 1.361 . S
C166 C168 1.500 . S
C167 C162 1.390 . S
C167 C166 1.361 . S
C167 H185 0.931 . S
C168 C166 1.500 . S
C168 C169 1.371 1_554 S
C168 C170 1.365 1_554 S
C169 C168 1.371 1_556 S
C169 C179 1.386 . S
C169 H187 0.931 . S
C170 C168 1.365 1_556 S
C170 C171 1.409 . S
C170 H188 0.929 1_556 S
C171 C170 1.409 . S
C171 C172 1.380 . S
C171 H189 0.930 . S
C172 C171 1.380 . S
C172 C179 1.357 . S
C173 C164 1.511 . S
C173 C174 1.341 . S
C173 C175 1.371 . S
C174 C173 1.341 . S
C174 C178 1.394 . S
C174 H190 0.930 . S
C175 C173 1.371 . S
C175 C176 1.392 . S
C175 H191 0.931 . S
C176 C175 1.392 . S
C176 C177 1.331 . S
C176 H194 0.932 . S
C177 C176 1.331 . S
C177 C178 1.336 . S
C178 C174 1.394 . S
C178 C177 1.336 . S
C178 H193 0.929 . S
C179 C169 1.386 . S
C179 C172 1.357 . S
C179 H192 0.928 . S
H180 C156 0.931 . S
H181 C158 0.930 . S
H182 C160 0.929 . S
H183 C161 0.931 . S
H184 C163 0.930 . S
H185 C167 0.931 . S
H186 C165 0.931 . S
H187 C169 0.931 . S
H188 C170 0.929 1_554 S
H189 C171 0.930 . S
H190 C174 0.930 . S
H191 C175 0.931 . S
H192 C179 0.928 . S
H193 C178 0.929 . S
H194 C176 0.932 . S
C195 C196 1.386 . S
C195 C197 1.397 . S
C195 H219 0.931 . S
C196 C195 1.386 . S
C196 C200 1.397 . S
C197 C195 1.397 . S
C197 C198 1.384 . S
C197 H220 0.930 . S
C198 C197 1.384 . S
C198 C199 1.377 . S
C198 C201 1.481 . S
C199 C198 1.377 . S
C199 C200 1.389 . S
C199 H221 0.929 . S
C200 C196 1.397 . S
C200 C199 1.389 . S
C200 H222 0.931 . S
C201 C198 1.481 . S
C201 C202 1.387 . S
C201 C206 1.390 . S
C202 C201 1.387 . S
C202 C203 1.401 . S
C202 H223 0.930 . S
C203 C202 1.401 . S
C203 C204 1.376 . S
C203 C212 1.511 . S
C204 C203 1.376 . S
C204 C205 1.392 . S
C204 H225 0.931 . S
C205 C204 1.392 . S
C205 C206 1.361 . S
C205 C207 1.500 . S
C206 C201 1.390 . S
C206 C205 1.361 . S
C206 H224 0.931 . S
C207 C205 1.500 . S
C207 C208 1.371 1_554 S
C207 C209 1.365 . S
C208 C207 1.371 1_556 S
C208 C218 1.386 . S
C208 H226 0.931 . S
C209 C207 1.365 . S
C209 C210 1.409 1_554 S
C209 H227 0.929 . S
C210 C209 1.409 1_556 S
C210 C211 1.380 . S
C210 H228 0.930 . S
C211 C210 1.380 . S
C211 C218 1.357 . S
C212 C203 1.511 . S
C212 C213 1.341 . S
C212 C214 1.371 . S
C213 C212 1.341 . S
C213 C217 1.394 . S
C213 H229 0.930 . S
C214 C212 1.371 . S
C214 C215 1.392 . S
C214 H230 0.931 . S
C215 C214 1.392 . S
C215 C216 1.331 . S
C215 H233 0.932 . S
C216 C215 1.331 . S
C216 C217 1.336 . S
C217 C213 1.394 . S
C217 C216 1.336 . S
C217 H232 0.929 . S
C218 C208 1.386 . S
C218 C211 1.357 . S
C218 H231 0.928 . S
H219 C195 0.931 . S
H220 C197 0.930 . S
H221 C199 0.929 . S
H222 C200 0.931 . S
H223 C202 0.930 . S
H224 C206 0.931 . S
H225 C204 0.931 . S
H226 C208 0.931 . S
H227 C209 0.929 . S
H228 C210 0.930 . S
H229 C213 0.930 . S
H230 C214 0.931 . S
H231 C218 0.928 . S
H232 C217 0.929 . S
H233 C215 0.932 . S
C234 C235 1.386 . S
C234 C236 1.397 . S
C234 H258 0.931 . S
C235 C234 1.386 . S
C235 C239 1.397 1_565 S
C236 C234 1.397 . S
C236 C237 1.380 . S
C236 H259 0.930 . S
C237 C236 1.380 . S
C237 C238 1.380 1_565 S
C237 C240 1.483 . S
C238 C237 1.380 1_545 S
C238 C239 1.389 . S
C238 H260 0.929 . S
C239 C235 1.397 1_545 S
C239 C238 1.389 . S
C239 H261 0.931 . S
C240 C237 1.483 . S
C240 C241 1.391 . S
C240 C245 1.390 . S
C241 C240 1.391 . S
C241 C242 1.397 . S
C241 H262 0.935 . S
C242 C241 1.397 . S
C242 C243 1.376 . S
C242 C251 1.510 . S
C243 C242 1.376 . S
C243 C244 1.395 1_565 S
C243 H264 0.930 . S
C244 C243 1.395 1_545 S
C244 C245 1.362 1_545 S
C244 C246 1.500 1_554 S
C245 C240 1.390 . S
C245 C244 1.362 1_565 S
C245 H263 0.930 1_565 S
C246 C244 1.500 1_556 S
C246 C247 1.359 1_545 S
C246 C248 1.377 . S
C247 C246 1.359 1_565 S
C247 C257 1.386 . S
C247 H265 0.931 . S
C248 C246 1.377 . S
C248 C249 1.409 . S
C248 H266 0.929 1_556 S
C249 C248 1.409 . S
C249 C250 1.384 . S
C249 H267 0.930 . S
C250 C249 1.384 . S
C250 C257 1.354 1_545 S
C251 C242 1.510 . S
C251 C252 1.341 . S
C251 C253 1.371 1_565 S
C252 C251 1.341 . S
C252 C256 1.394 . S
C252 H268 0.930 . S
C253 C251 1.371 1_545 S
C253 C254 1.392 . S
C253 H269 0.931 . S
C254 C253 1.392 . S
C254 C255 1.326 1_545 S
C254 H272 0.932 . S
C255 C254 1.326 1_565 S
C255 C256 1.342 . S
C256 C252 1.394 . S
C256 C255 1.342 . S
C256 H271 0.929 . S
C257 C247 1.386 . S
C257 C250 1.354 1_565 S
C257 H270 0.928 . S
H258 C234 0.931 . S
H259 C236 0.930 . S
H260 C238 0.929 . S
H261 C239 0.931 . S
H262 C241 0.935 . S
H263 C245 0.930 1_545 S
H264 C243 0.930 . S
H265 C247 0.931 . S
H266 C248 0.929 1_554 S
H267 C249 0.930 . S
H268 C252 0.930 . S
H269 C253 0.931 . S
H270 C257 0.928 . S
H271 C256 0.929 . S
H272 C254 0.932 . S
C273 C274 1.386 . S
C273 C275 1.397 . S
C273 H297 0.931 . S
C274 C273 1.386 . S
C274 C278 1.397 . S
C275 C273 1.397 . S
C275 C276 1.384 . S
C275 H298 0.930 . S
C276 C275 1.384 . S
C276 C277 1.377 . S
C276 C279 1.481 1_556 S
C277 C276 1.377 . S
C277 C278 1.389 . S
C277 H299 0.929 . S
C278 C274 1.397 . S
C278 C277 1.389 . S
C278 H300 0.931 . S
C279 C276 1.481 1_554 S
C279 C280 1.387 . S
C279 C284 1.390 . S
C280 C279 1.387 . S
C280 C281 1.401 . S
C280 H301 0.930 . S
C281 C280 1.401 . S
C281 C282 1.376 . S
C281 C290 1.511 . S
C282 C281 1.376 . S
C282 C283 1.392 . S
C282 H303 0.931 . S
C283 C282 1.392 . S
C283 C284 1.361 . S
C283 C285 1.500 . S
C284 C279 1.390 . S
C284 C283 1.361 . S
C284 H302 0.931 . S
C285 C283 1.500 . S
C285 C286 1.371 . S
C285 C287 1.365 . S
C286 C285 1.371 . S
C286 C296 1.386 . S
C286 H304 0.931 . S
C287 C285 1.365 . S
C287 C288 1.409 . S
C287 H305 0.929 . S
C288 C287 1.409 . S
C288 C289 1.380 . S
C288 H306 0.930 . S
C289 C288 1.380 . S
C289 C296 1.357 . S
C290 C281 1.511 . S
C290 C291 1.341 . S
C290 C292 1.371 . S
C291 C290 1.341 . S
C291 C295 1.394 . S
C291 H307 0.930 . S
C292 C290 1.371 . S
C292 C293 1.392 . S
C292 H308 0.931 . S
C293 C292 1.392 . S
C293 C294 1.331 . S
C293 H311 0.932 . S
C294 C293 1.331 . S
C294 C295 1.336 . S
C295 C291 1.394 . S
C295 C294 1.336 . S
C295 H310 0.929 . S
C296 C286 1.386 . S
C296 C289 1.357 . S
C296 H309 0.928 . S
H297 C273 0.931 . S
H298 C275 0.930 . S
H299 C277 0.929 . S
H300 C278 0.931 . S
H301 C280 0.930 . S
H302 C284 0.931 . S
H303 C282 0.931 . S
H304 C286 0.931 . S
H305 C287 0.929 . S
H306 C288 0.930 . S
H307 C291 0.930 . S
H308 C292 0.931 . S
H309 C296 0.928 . S
H310 C295 0.929 . S
H311 C293 0.932 . S
Dy312 O316 2.398 . S
Dy312 O317 2.491 1_455 S
Dy312 O318 2.403 . S
Dy312 O319 2.664 1_565 S
Dy312 O323 2.326 . S
Dy312 O327 2.310 1_455 S
Dy312 O328 2.351 1_565 S
C313 O324 1.185 1_455 S
C313 O325 1.355 . S
C314 O316 1.185 . S
C314 O317 1.355 1_455 S
Dy315 O319 2.289 1_655 S
Dy315 O322 2.356 1_545 S
Dy315 O324 2.404 . S
Dy315 O325 2.477 1_655 S
Dy315 O326 2.424 . S
Dy315 O327 2.671 1_545 S
Dy315 O329 2.321 1_655 S
O316 Dy312 2.398 . S
O316 C314 1.185 . S
O317 Dy312 2.491 1_655 S
O317 C314 1.355 1_655 S
O318 Dy312 2.403 . S
O318 C320 1.254 . S
O319 Dy312 2.664 1_545 S
O319 Dy315 2.289 1_455 S
O319 C320 1.268 1_545 S
C320 O318 1.254 . S
C320 O319 1.268 1_565 S
C321 O326 1.254 . S
C321 O327 1.268 1_545 S
O322 Dy315 2.356 1_565 S
O322 C330 1.249 . S
O323 Dy312 2.326 . S
O323 C330 1.267 1_455 S
O324 C313 1.185 1_655 S
O324 Dy315 2.404 . S
O325 C313 1.355 . S
O325 Dy315 2.477 1_455 S
O326 Dy315 2.424 . S
O326 C321 1.254 . S
O327 Dy312 2.310 1_655 S
O327 Dy315 2.671 1_565 S
O327 C321 1.268 1_565 S
O328 Dy312 2.351 1_545 S
O328 C331 1.249 . S
O329 Dy315 2.321 1_455 S
O329 C331 1.267 . S
C330 O322 1.249 . S
C330 O323 1.267 1_655 S
C331 O328 1.249 . S
C331 O329 1.267 . S
Dy332 O336 2.398 . S
Dy332 O337 2.491 . S
Dy332 O338 2.403 . S
Dy332 O339 2.664 . S
Dy332 O343 2.326 1_565 S
Dy332 O347 2.310 1_565 S
Dy332 O348 2.351 . S
C333 O344 1.185 . S
C333 O345 1.355 . S
C334 O336 1.185 . S
C334 O337 1.355 . S
Dy335 O339 2.310 1_545 S
Dy335 O342 2.351 . S
Dy335 O344 2.398 . S
Dy335 O345 2.491 . S
Dy335 O346 2.403 . S
Dy335 O347 2.664 . S
Dy335 O349 2.326 1_545 S
O336 Dy332 2.398 . S
O336 C334 1.185 . S
O337 Dy332 2.491 . S
O337 C334 1.355 . S
O338 Dy332 2.403 . S
O338 C340 1.254 . S
O339 Dy332 2.664 . S
O339 Dy335 2.310 1_565 S
O339 C340 1.268 . S
C340 O338 1.254 . S
C340 O339 1.268 . S
C341 O346 1.254 . S
C341 O347 1.268 . S
O342 Dy335 2.351 . S
O342 C350 1.249 . S
O343 Dy332 2.326 1_545 S
O343 C350 1.267 . S
O344 C333 1.185 . S
O344 Dy335 2.398 . S
O345 C333 1.355 . S
O345 Dy335 2.491 . S
O346 Dy335 2.403 . S
O346 C341 1.254 . S
O347 Dy332 2.310 1_545 S
O347 Dy335 2.664 . S
O347 C341 1.268 . S
O348 Dy332 2.351 . S
O348 C351 1.249 . S
O349 Dy335 2.326 1_565 S
O349 C351 1.267 . S
C350 O342 1.249 . S
C350 O343 1.267 . S
C351 O348 1.249 . S
C351 O349 1.267 . S
Dy352 O356 2.398 . S
Dy352 O357 2.491 . S
Dy352 O358 2.403 . S
Dy352 O359 2.664 . S
Dy352 O363 2.326 . S
Dy352 O367 2.310 . S
Dy352 O368 2.351 . S
C353 O364 1.185 . S
C353 O365 1.355 . S
C354 O356 1.185 . S
C354 O357 1.355 . S
Dy355 O359 2.310 . S
Dy355 O362 2.351 . S
Dy355 O364 2.398 . S
Dy355 O365 2.491 . S
Dy355 O366 2.403 . S
Dy355 O367 2.664 . S
Dy355 O369 2.326 . S
O356 Dy352 2.398 . S
O356 C354 1.185 . S
O357 Dy352 2.491 . S
O357 C354 1.355 . S
O358 Dy352 2.403 . S
O358 C360 1.254 . S
O359 Dy352 2.664 . S
O359 Dy355 2.310 . S
O359 C360 1.268 . S
C360 O358 1.254 . S
C360 O359 1.268 . S
C361 O366 1.254 . S
C361 O367 1.268 . S
O362 Dy355 2.351 . S
O362 C370 1.249 . S
O363 Dy352 2.326 . S
O363 C370 1.267 . S
O364 C353 1.185 . S
O364 Dy355 2.398 . S
O365 C353 1.355 . S
O365 Dy355 2.491 . S
O366 Dy355 2.403 . S
O366 C361 1.254 . S
O367 Dy352 2.310 . S
O367 Dy355 2.664 . S
O367 C361 1.268 . S
O368 Dy352 2.351 . S
O368 C371 1.249 . S
O369 Dy355 2.326 . S
O369 C371 1.267 . S
C370 O362 1.249 . S
C370 O363 1.267 . S
C371 O368 1.249 . S
C371 O369 1.267 . S
Dy372 O376 2.398 . S
Dy372 O377 2.491 . S
Dy372 O378 2.403 1_655 S
Dy372 O379 2.664 1_655 S
Dy372 O383 2.326 . S
Dy372 O387 2.310 . S
Dy372 O388 2.351 1_655 S
C373 O384 1.185 . S
C373 O385 1.355 . S
C374 O376 1.185 . S
C374 O377 1.355 . S
Dy375 O379 2.310 . S
Dy375 O382 2.351 1_455 S
Dy375 O384 2.398 . S
Dy375 O385 2.491 . S
Dy375 O386 2.403 . S
Dy375 O387 2.664 1_455 S
Dy375 O389 2.326 . S
O376 Dy372 2.398 . S
O376 C374 1.185 . S
O377 Dy372 2.491 . S
O377 C374 1.355 . S
O378 Dy372 2.403 1_455 S
O378 C380 1.254 . S
O379 Dy372 2.664 1_455 S
O379 Dy375 2.310 . S
O379 C380 1.268 . S
C380 O378 1.254 . S
C380 O379 1.268 . S
C381 O386 1.254 1_655 S
C381 O387 1.268 . S
O382 Dy375 2.351 1_655 S
O382 C390 1.249 . S
O383 Dy372 2.326 . S
O383 C390 1.267 . S
O384 C373 1.185 . S
O384 Dy375 2.398 . S
O385 C373 1.355 . S
O385 Dy375 2.491 . S
O386 Dy375 2.403 . S
O386 C381 1.254 1_455 S
O387 Dy372 2.310 . S
O387 Dy375 2.664 1_655 S
O387 C381 1.268 . S
O388 Dy372 2.351 1_455 S
O388 C391 1.249 . S
O389 Dy375 2.326 . S
O389 C391 1.267 . S
C390 O382 1.249 . S
C390 O383 1.267 . S
C391 O388 1.249 . S
C391 O389 1.267 . S
C392 C393 1.352 . S
C392 C394 1.327 . S
C392 H417 0.950 . S
C393 C392 1.352 . S
C393 C409 1.346 1_565 S
C394 C392 1.327 . S
C394 C413 1.472 . S
C394 H418 0.950 . S
C395 C412 1.574 . S
C395 C414 1.368 1_545 S
C395 H419 0.949 . S
H396 C400 0.949 . S
C397 C398 1.349 1_545 S
C397 C399 1.327 . S
C397 H420 0.950 . S
C398 C397 1.349 1_565 S
C398 C410 1.349 . S
C399 C397 1.327 . S
C399 C415 1.429 1_545 S
C399 H421 0.950 . S
C400 H396 0.949 . S
C400 C408 1.574 . S
C400 C416 1.368 . S
H401 C409 0.950 . S
H402 C407 0.950 . S
H403 C408 0.949 . S
H404 C410 0.950 . S
H405 C411 0.950 . S
H406 C412 0.949 . S
C407 H402 0.950 . S
C407 C409 1.327 . S
C407 C413 1.389 1_545 S
C408 C400 1.574 . S
C408 H403 0.949 . S
C408 C414 1.368 . S
C409 C393 1.346 1_545 S
C409 H401 0.950 . S
C409 C407 1.327 . S
C410 C398 1.349 . S
C410 H404 0.950 . S
C410 C411 1.327 . S
C411 H405 0.950 . S
C411 C410 1.327 . S
C411 C415 1.429 . S
C412 C395 1.574 . S
C412 H406 0.949 . S
C412 C416 1.368 1_545 S
C413 C394 1.472 . S
C413 C407 1.389 1_565 S
C413 C414 1.521 . S
C414 C395 1.368 1_565 S
C414 C408 1.368 . S
C414 C413 1.521 . S
C415 C399 1.429 1_565 S
C415 C411 1.429 . S
C415 C416 1.523 . S
C416 C400 1.368 . S
C416 C412 1.368 1_565 S
C416 C415 1.523 . S
H417 C392 0.950 . S
H418 C394 0.950 . S
H419 C395 0.949 . S
H420 C397 0.950 . S
H421 C399 0.950 . S
C422 C423 1.349 . S
C422 C424 1.327 . S
C422 H447 0.950 . S
C423 C422 1.349 . S
C423 C439 1.349 . S
C424 C422 1.327 . S
C424 C443 1.429 . S
C424 H448 0.950 . S
C425 C442 1.574 . S
C425 C444 1.368 . S
C425 H449 0.949 . S
H426 C430 0.949 . S
C427 C428 1.349 . S
C427 C429 1.327 . S
C427 H450 0.950 . S
C428 C427 1.349 . S
C428 C440 1.349 . S
C429 C427 1.327 . S
C429 C445 1.429 . S
C429 H451 0.950 . S
C430 H426 0.949 . S
C430 C438 1.574 . S
C430 C446 1.368 . S
H431 C439 0.950 . S
H432 C437 0.950 . S
H433 C438 0.949 . S
H434 C440 0.950 . S
H435 C441 0.950 . S
H436 C442 0.949 . S
C437 H432 0.950 . S
C437 C439 1.327 . S
C437 C443 1.429 . S
C438 C430 1.574 . S
C438 H433 0.949 . S
C438 C444 1.368 . S
C439 C423 1.349 . S
C439 H431 0.950 . S
C439 C437 1.327 . S
C440 C428 1.349 . S
C440 H434 0.950 . S
C440 C441 1.327 . S
C441 H435 0.950 . S
C441 C440 1.327 . S
C441 C445 1.429 . S
C442 C425 1.574 . S
C442 H436 0.949 . S
C442 C446 1.368 . S
C443 C424 1.429 . S
C443 C437 1.429 . S
C443 C444 1.523 . S
C444 C425 1.368 . S
C444 C438 1.368 . S
C444 C443 1.523 . S
C445 C429 1.429 . S
C445 C441 1.429 . S
C445 C446 1.523 . S
C446 C430 1.368 . S
C446 C442 1.368 . S
C446 C445 1.523 . S
H447 C422 0.950 . S
H448 C424 0.950 . S
H449 C425 0.949 . S
H450 C427 0.950 . S
H451 C429 0.950 . S
C452 C453 1.349 . S
C452 C454 1.327 . S
C452 H477 0.950 . S
C453 C452 1.349 . S
C453 C469 1.349 . S
C454 C452 1.327 . S
C454 C473 1.429 . S
C454 H478 0.950 . S
C455 C472 1.574 . S
C455 C474 1.368 . S
C455 H479 0.949 . S
H456 C460 0.949 . S
C457 C458 1.349 . S
C457 C459 1.327 . S
C457 H480 0.950 . S
C458 C457 1.349 . S
C458 C470 1.349 . S
C459 C457 1.327 . S
C459 C475 1.429 . S
C459 H481 0.950 . S
C460 H456 0.949 . S
C460 C468 1.574 . S
C460 C476 1.368 . S
H461 C469 0.950 . S
H462 C467 0.950 . S
H463 C468 0.949 . S
H464 C470 0.950 . S
H465 C471 0.950 . S
H466 C472 0.949 . S
C467 H462 0.950 . S
C467 C469 1.327 . S
C467 C473 1.429 . S
C468 C460 1.574 . S
C468 H463 0.949 . S
C468 C474 1.368 . S
C469 C453 1.349 . S
C469 H461 0.950 . S
C469 C467 1.327 . S
C470 C458 1.349 . S
C470 H464 0.950 . S
C470 C471 1.327 . S
C471 H465 0.950 . S
C471 C470 1.327 . S
C471 C475 1.429 . S
C472 C455 1.574 . S
C472 H466 0.949 . S
C472 C476 1.368 . S
C473 C454 1.429 . S
C473 C467 1.429 . S
C473 C474 1.523 . S
C474 C455 1.368 . S
C474 C468 1.368 . S
C474 C473 1.523 . S
C475 C459 1.429 . S
C475 C471 1.429 . S
C475 C476 1.523 . S
C476 C460 1.368 . S
C476 C472 1.368 . S
C476 C475 1.523 . S
H477 C452 0.950 . S
H478 C454 0.950 . S
H479 C455 0.949 . S
H480 C457 0.950 . S
H481 C459 0.950 . S
C482 C483 1.349 . S
C482 C484 1.327 . S
C482 H507 0.950 . S
C483 C482 1.349 . S
C483 C499 1.349 . S
C484 C482 1.327 . S
C484 C503 1.429 . S
C484 H508 0.950 . S
C485 C502 1.574 . S
C485 C504 1.368 . S
C485 H509 0.949 . S
H486 C490 0.949 . S
C487 C488 1.349 . S
C487 C489 1.327 . S
C487 H510 0.950 . S
C488 C487 1.349 . S
C488 C500 1.349 . S
C489 C487 1.327 . S
C489 C505 1.429 . S
C489 H511 0.950 . S
C490 H486 0.949 . S
C490 C498 1.574 . S
C490 C506 1.368 . S
H491 C499 0.950 . S
H492 C497 0.950 . S
H493 C498 0.949 . S
H494 C500 0.950 . S
H495 C501 0.950 . S
H496 C502 0.949 . S
C497 H492 0.950 . S
C497 C499 1.327 . S
C497 C503 1.429 . S
C498 C490 1.574 . S
C498 H493 0.949 . S
C498 C504 1.368 . S
C499 C483 1.349 . S
C499 H491 0.950 . S
C499 C497 1.327 . S
C500 C488 1.349 . S
C500 H494 0.950 . S
C500 C501 1.327 . S
C501 H495 0.950 . S
C501 C500 1.327 . S
C501 C505 1.429 . S
C502 C485 1.574 . S
C502 H496 0.949 . S
C502 C506 1.368 . S
C503 C484 1.429 . S
C503 C497 1.429 . S
C503 C504 1.523 . S
C504 C485 1.368 . S
C504 C498 1.368 . S
C504 C503 1.523 . S
C505 C489 1.429 . S
C505 C501 1.429 . S
C505 C506 1.523 . S
C506 C490 1.368 . S
C506 C502 1.368 . S
C506 C505 1.523 . S
H507 C482 0.950 . S
H508 C484 0.950 . S
H509 C485 0.949 . S
H510 C487 0.950 . S
H511 C489 0.950 . S
C512 C513 1.361 . S
C512 C514 1.327 . S
C512 H537 0.950 . S
C513 C512 1.361 . S
C513 C529 1.336 1_545 S
C514 C512 1.327 . S
C514 C533 1.429 . S
C514 H538 0.950 . S
C515 C532 1.574 . S
C515 C534 1.368 1_565 S
C515 H539 0.949 . S
H516 C520 0.949 . S
C517 C518 1.349 1_565 S
C517 C519 1.327 . S
C517 H540 0.950 . S
C518 C517 1.349 1_545 S
C518 C530 1.349 . S
C519 C517 1.327 . S
C519 C535 1.429 1_565 S
C519 H541 0.950 . S
C520 H516 0.949 . S
C520 C528 1.574 . S
C520 C536 1.368 . S
H521 C529 0.950 . S
H522 C527 0.950 . S
H523 C528 0.949 . S
H524 C530 0.950 . S
H525 C531 0.950 . S
H526 C532 0.949 . S
C527 H522 0.950 . S
C527 C529 1.327 . S
C527 C533 1.429 1_565 S
C528 C520 1.574 . S
C528 H523 0.949 . S
C528 C534 1.368 . S
C529 C513 1.336 1_565 S
C529 H521 0.950 . S
C529 C527 1.327 . S
C530 C518 1.349 . S
C530 H524 0.950 . S
C530 C531 1.327 . S
C531 H525 0.950 . S
C531 C530 1.327 . S
C531 C535 1.429 . S
C532 C515 1.574 . S
C532 H526 0.949 . S
C532 C536 1.368 1_565 S
C533 C514 1.429 . S
C533 C527 1.429 1_545 S
C533 C534 1.523 . S
C534 C515 1.368 1_545 S
C534 C528 1.368 . S
C534 C533 1.523 . S
C535 C519 1.429 1_545 S
C535 C531 1.429 . S
C535 C536 1.523 . S
C536 C520 1.368 . S
C536 C532 1.368 1_545 S
C536 C535 1.523 . S
H537 C512 0.950 . S
H538 C514 0.950 . S
H539 C515 0.949 . S
H540 C517 0.950 . S
H541 C519 0.950 . S
C542 C543 1.349 . S
C542 C544 1.327 . S
C542 H567 0.950 1_556 S
C543 C542 1.349 . S
C543 C559 1.349 . S
C544 C542 1.327 . S
C544 C563 1.429 . S
C544 H568 0.950 . S
C545 C562 1.574 . S
C545 C564 1.368 . S
C545 H569 0.949 . S
H546 C550 0.949 . S
C547 C548 1.349 . S
C547 C549 1.327 . S
C547 H570 0.950 . S
C548 C547 1.349 . S
C548 C560 1.349 . S
C549 C547 1.327 . S
C549 C565 1.429 . S
C549 H571 0.950 . S
C550 H546 0.949 . S
C550 C558 1.574 . S
C550 C566 1.368 . S
H551 C559 0.950 . S
H552 C557 0.950 . S
H553 C558 0.949 . S
H554 C560 0.950 . S
H555 C561 0.950 . S
H556 C562 0.949 . S
C557 H552 0.950 . S
C557 C559 1.327 . S
C557 C563 1.429 . S
C558 C550 1.574 . S
C558 H553 0.949 . S
C558 C564 1.368 . S
C559 C543 1.349 . S
C559 H551 0.950 . S
C559 C557 1.327 . S
C560 C548 1.349 . S
C560 H554 0.950 . S
C560 C561 1.327 . S
C561 H555 0.950 . S
C561 C560 1.327 . S
C561 C565 1.429 . S
C562 C545 1.574 . S
C562 H556 0.949 . S
C562 C566 1.368 . S
C563 C544 1.429 . S
C563 C557 1.429 . S
C563 C564 1.523 . S
C564 C545 1.368 . S
C564 C558 1.368 . S
C564 C563 1.523 . S
C565 C549 1.429 . S
C565 C561 1.429 . S
C565 C566 1.523 . S
C566 C550 1.368 . S
C566 C562 1.368 . S
C566 C565 1.523 . S
H567 C542 0.950 1_554 S
H568 C544 0.950 . S
H569 C545 0.949 . S
H570 C547 0.950 . S
H571 C549 0.950 . S
C572 C573 1.349 . S
C572 C574 1.327 . S
C572 H597 0.950 . S
C573 C572 1.349 . S
C573 C589 1.349 . S
C574 C572 1.327 . S
C574 C593 1.429 . S
C574 H598 0.950 . S
C575 C592 1.574 . S
C575 C594 1.368 . S
C575 H599 0.949 . S
H576 C580 0.949 . S
C577 C578 1.349 . S
C577 C579 1.327 . S
C577 H600 0.950 . S
C578 C577 1.349 . S
C578 C590 1.349 . S
C579 C577 1.327 . S
C579 C595 1.429 . S
C579 H601 0.950 . S
C580 H576 0.949 . S
C580 C588 1.574 . S
C580 C596 1.368 . S
H581 C589 0.950 . S
H582 C587 0.950 . S
H583 C588 0.949 . S
H584 C590 0.950 . S
H585 C591 0.950 . S
H586 C592 0.949 . S
C587 H582 0.950 . S
C587 C589 1.327 . S
C587 C593 1.429 . S
C588 C580 1.574 . S
C588 H583 0.949 . S
C588 C594 1.368 . S
C589 C573 1.349 . S
C589 H581 0.950 . S
C589 C587 1.327 . S
C590 C578 1.349 . S
C590 H584 0.950 . S
C590 C591 1.327 . S
C591 H585 0.950 . S
C591 C590 1.327 . S
C591 C595 1.429 . S
C592 C575 1.574 . S
C592 H586 0.949 . S
C592 C596 1.368 . S
C593 C574 1.429 . S
C593 C587 1.429 . S
C593 C594 1.523 . S
C594 C575 1.368 . S
C594 C588 1.368 . S
C594 C593 1.523 . S
C595 C579 1.429 . S
C595 C591 1.429 . S
C595 C596 1.523 . S
C596 C580 1.368 . S
C596 C592 1.368 . S
C596 C595 1.523 . S
H597 C572 0.950 . S
H598 C574 0.950 . S
H599 C575 0.949 . S
H600 C577 0.950 . S
H601 C579 0.950 . S
C602 C603 1.349 . S
C602 C604 1.327 . S
C602 H627 0.950 . S
C603 C602 1.349 . S
C603 C619 1.349 . S
C604 C602 1.327 . S
C604 C623 1.429 . S
C604 H628 0.950 . S
C605 C622 1.574 . S
C605 C624 1.368 . S
C605 H629 0.949 . S
H606 C610 0.949 . S
C607 C608 1.349 . S
C607 C609 1.327 . S
C607 H630 0.950 . S
C608 C607 1.349 . S
C608 C620 1.349 . S
C609 C607 1.327 . S
C609 C625 1.429 . S
C609 H631 0.950 . S
C610 H606 0.949 . S
C610 C618 1.574 . S
C610 C626 1.368 . S
H611 C619 0.950 . S
H612 C617 0.950 . S
H613 C618 0.949 . S
H614 C620 0.950 . S
H615 C621 0.950 . S
H616 C622 0.949 . S
C617 H612 0.950 . S
C617 C619 1.327 . S
C617 C623 1.429 . S
C618 C610 1.574 . S
C618 H613 0.949 . S
C618 C624 1.368 . S
C619 C603 1.349 . S
C619 H611 0.950 . S
C619 C617 1.327 . S
C620 C608 1.349 . S
C620 H614 0.950 . S
C620 C621 1.327 . S
C621 H615 0.950 . S
C621 C620 1.327 . S
C621 C625 1.429 . S
C622 C605 1.574 . S
C622 H616 0.949 . S
C622 C626 1.368 . S
C623 C604 1.429 . S
C623 C617 1.429 . S
C623 C624 1.523 . S
C624 C605 1.368 . S
C624 C618 1.368 . S
C624 C623 1.523 . S
C625 C609 1.429 . S
C625 C621 1.429 . S
C625 C626 1.523 . S
C626 C610 1.368 . S
C626 C622 1.368 . S
C626 C625 1.523 . S
H627 C602 0.950 . S
H628 C604 0.950 . S
H629 C605 0.949 . S
H630 C607 0.950 . S
H631 C609 0.950 . S
C632 C633 1.349 . S
C632 C634 1.327 . S
C632 H657 0.950 . S
C633 C632 1.349 . S
C633 C649 1.349 . S
C634 C632 1.327 . S
C634 C653 1.429 . S
C634 H658 0.950 . S
C635 C652 1.574 . S
C635 C654 1.368 . S
C635 H659 0.949 . S
H636 C640 0.949 . S
C637 C638 1.349 . S
C637 C639 1.327 . S
C637 H660 0.950 . S
C638 C637 1.349 . S
C638 C650 1.349 . S
C639 C637 1.327 . S
C639 C655 1.429 . S
C639 H661 0.950 . S
C640 H636 0.949 . S
C640 C648 1.574 . S
C640 C656 1.368 . S
H641 C649 0.950 . S
H642 C647 0.950 . S
H643 C648 0.949 . S
H644 C650 0.950 1_655 S
H645 C651 0.950 . S
H646 C652 0.949 . S
C647 H642 0.950 . S
C647 C649 1.327 . S
C647 C653 1.429 . S
C648 C640 1.574 . S
C648 H643 0.949 . S
C648 C654 1.368 . S
C649 C633 1.349 . S
C649 H641 0.950 . S
C649 C647 1.327 . S
C650 C638 1.349 . S
C650 H644 0.950 1_455 S
C650 C651 1.327 . S
C651 H645 0.950 . S
C651 C650 1.327 . S
C651 C655 1.429 . S
C652 C635 1.574 . S
C652 H646 0.949 . S
C652 C656 1.368 . S
C653 C634 1.429 . S
C653 C647 1.429 . S
C653 C654 1.523 . S
C654 C635 1.368 . S
C654 C648 1.368 . S
C654 C653 1.523 . S
C655 C639 1.429 . S
C655 C651 1.429 . S
C655 C656 1.523 . S
C656 C640 1.368 . S
C656 C652 1.368 . S
C656 C655 1.523 . S
H657 C632 0.950 . S
H658 C634 0.950 . S
H659 C635 0.949 . S
H660 C637 0.950 . S
H661 C639 0.950 . S
C662 C663 1.349 . S
C662 C664 1.327 . S
C662 H687 0.950 . S
C663 C662 1.349 . S
C663 C679 1.349 1_545 S
C664 C662 1.327 . S
C664 C683 1.429 1_545 S
C664 H688 0.950 . S
C665 C682 1.574 . S
C665 C684 1.368 . S
C665 H689 0.949 . S
H666 C670 0.949 . S
C667 C668 1.349 . S
C667 C669 1.327 . S
C667 H690 0.950 . S
C668 C667 1.349 . S
C668 C680 1.373 . S
C669 C667 1.327 . S
C669 C685 1.429 . S
C669 H691 0.950 . S
C670 H666 0.949 . S
C670 C678 1.574 . S
C670 C686 1.368 1_545 S
H671 C679 0.950 . S
H672 C677 0.950 . S
H673 C678 0.949 . S
H674 C680 0.936 1_545 S
H675 C681 0.969 . S
H676 C682 0.949 . S
C677 H672 0.950 . S
C677 C679 1.327 . S
C677 C683 1.429 . S
C678 C670 1.574 . S
C678 H673 0.949 . S
C678 C684 1.368 1_545 S
C679 C663 1.349 1_565 S
C679 H671 0.950 . S
C679 C677 1.327 . S
C680 C668 1.373 . S
C680 H674 0.936 1_565 S
C680 C681 1.314 1_565 S
C681 H675 0.969 . S
C681 C680 1.314 1_545 S
C681 C685 1.418 1_545 S
C682 C665 1.574 . S
C682 H676 0.949 . S
C682 C686 1.368 . S
C683 C664 1.429 1_565 S
C683 C677 1.429 . S
C683 C684 1.523 . S
C684 C665 1.368 . S
C684 C678 1.368 1_565 S
C684 C683 1.523 . S
C685 C669 1.429 . S
C685 C681 1.418 1_565 S
C685 C686 1.523 . S
C686 C670 1.368 1_565 S
C686 C682 1.368 . S
C686 C685 1.523 . S
H687 C662 0.950 . S
H688 C664 0.950 . S
H689 C665 0.949 . S
H690 C667 0.950 . S
H691 C669 0.950 . S
C692 C693 1.349 . S
C692 C694 1.327 . S
C692 H717 0.950 . S
C693 C692 1.349 . S
C693 C709 1.349 . S
C694 C692 1.327 . S
C694 C713 1.429 . S
C694 H718 0.950 . S
C695 C712 1.574 . S
C695 C714 1.368 . S
C695 H719 0.949 . S
H696 C700 0.949 . S
C697 C698 1.349 . S
C697 C699 1.327 . S
C697 H720 0.950 . S
C698 C697 1.349 . S
C698 C710 1.349 . S
C699 C697 1.327 . S
C699 C715 1.429 . S
C699 H721 0.950 . S
C700 H696 0.949 . S
C700 C708 1.574 . S
C700 C716 1.368 . S
H701 C709 0.950 . S
H702 C707 0.950 . S
H703 C708 0.949 . S
H704 C710 0.950 . S
H705 C711 0.950 . S
H706 C712 0.949 . S
C707 H702 0.950 . S
C707 C709 1.327 . S
C707 C713 1.429 . S
C708 C700 1.574 . S
C708 H703 0.949 . S
C708 C714 1.368 . S
C709 C693 1.349 . S
C709 H701 0.950 . S
C709 C707 1.327 . S
C710 C698 1.349 . S
C710 H704 0.950 . S
C710 C711 1.327 . S
C711 H705 0.950 . S
C711 C710 1.327 . S
C711 C715 1.429 . S
C712 C695 1.574 . S
C712 H706 0.949 . S
C712 C716 1.368 . S
C713 C694 1.429 . S
C713 C707 1.429 . S
C713 C714 1.523 . S
C714 C695 1.368 . S
C714 C708 1.368 . S
C714 C713 1.523 . S
C715 C699 1.429 . S
C715 C711 1.429 . S
C715 C716 1.523 . S
C716 C700 1.368 . S
C716 C712 1.368 . S
C716 C715 1.523 . S
H717 C692 0.950 . S
H718 C694 0.950 . S
H719 C695 0.949 . S
H720 C697 0.950 . S
H721 C699 0.950 . S
C722 C723 1.349 . S
C722 C724 1.327 . S
C722 H747 0.950 . S
C723 C722 1.349 . S
C723 C739 1.349 . S
C724 C722 1.327 . S
C724 C743 1.429 . S
C724 H748 0.950 . S
C725 C742 1.574 . S
C725 C744 1.368 . S
C725 H749 0.949 . S
H726 C730 0.949 . S
C727 C728 1.349 . S
C727 C729 1.327 . S
C727 H750 0.950 . S
C728 C727 1.349 . S
C728 C740 1.349 . S
C729 C727 1.327 . S
C729 C745 1.429 . S
C729 H751 0.950 . S
C730 H726 0.949 . S
C730 C738 1.574 . S
C730 C746 1.368 . S
H731 C739 0.950 . S
H732 C737 0.950 . S
H733 C738 0.949 . S
H734 C740 0.950 . S
H735 C741 0.950 . S
H736 C742 0.949 . S
C737 H732 0.950 . S
C737 C739 1.327 . S
C737 C743 1.429 . S
C738 C730 1.574 . S
C738 H733 0.949 . S
C738 C744 1.368 . S
C739 C723 1.349 . S
C739 H731 0.950 . S
C739 C737 1.327 . S
C740 C728 1.349 . S
C740 H734 0.950 . S
C740 C741 1.327 . S
C741 H735 0.950 . S
C741 C740 1.327 . S
C741 C745 1.429 . S
C742 C725 1.574 . S
C742 H736 0.949 . S
C742 C746 1.368 . S
C743 C724 1.429 . S
C743 C737 1.429 . S
C743 C744 1.523 . S
C744 C725 1.368 . S
C744 C738 1.368 . S
C744 C743 1.523 . S
C745 C729 1.429 . S
C745 C741 1.429 . S
C745 C746 1.523 . S
C746 C730 1.368 . S
C746 C742 1.368 . S
C746 C745 1.523 . S
H747 C722 0.950 . S
H748 C724 0.950 . S
H749 C725 0.949 . S
H750 C727 0.950 . S
H751 C729 0.950 . S
C752 C753 1.349 . S
C752 C754 1.327 . S
C752 H777 0.950 . S
C753 C752 1.349 . S
C753 C769 1.349 . S
C754 C752 1.327 . S
C754 C773 1.429 . S
C754 H778 0.950 . S
C755 C772 1.574 . S
C755 C774 1.368 . S
C755 H779 0.949 . S
H756 C760 0.949 . S
C757 C758 1.337 1_655 S
C757 C759 1.327 . S
C757 H780 0.950 . S
C758 C757 1.337 1_455 S
C758 C770 1.345 1_455 S
C759 C757 1.327 . S
C759 C775 1.429 . S
C759 H781 0.950 . S
C760 H756 0.949 . S
C760 C768 1.574 . S
C760 C776 1.368 . S
H761 C769 0.950 . S
H762 C767 0.950 . S
H763 C768 0.949 . S
H764 C770 0.950 1_455 S
H765 C771 0.950 . S
H766 C772 0.949 . S
C767 H762 0.950 . S
C767 C769 1.327 . S
C767 C773 1.429 . S
C768 C760 1.574 . S
C768 H763 0.949 . S
C768 C774 1.368 . S
C769 C753 1.349 . S
C769 H761 0.950 . S
C769 C767 1.327 . S
C770 C758 1.345 1_655 S
C770 H764 0.950 1_655 S
C770 C771 1.327 . S
C771 H765 0.950 . S
C771 C770 1.327 . S
C771 C775 1.429 . S
C772 C755 1.574 . S
C772 H766 0.949 . S
C772 C776 1.368 . S
C773 C754 1.429 . S
C773 C767 1.429 . S
C773 C774 1.523 . S
C774 C755 1.368 . S
C774 C768 1.368 . S
C774 C773 1.523 . S
C775 C759 1.429 . S
C775 C771 1.429 . S
C775 C776 1.523 . S
C776 C760 1.368 . S
C776 C772 1.368 . S
C776 C775 1.523 . S
H777 C752 0.950 . S
H778 C754 0.950 . S
H779 C755 0.949 . S
H780 C757 0.950 . S
H781 C759 0.950 . S
C782 C783 1.373 . S
C782 C784 1.327 . S
C782 H807 0.950 . S
C783 C782 1.373 . S
C783 C799 1.317 1_565 S
C784 C782 1.327 . S
C784 C803 1.429 1_565 S
C784 H808 0.950 . S
C785 C802 1.574 . S
C785 C804 1.368 . S
C785 H809 0.949 . S
H786 C790 0.949 . S
C787 C788 1.349 . S
C787 C789 1.327 . S
C787 H810 0.950 . S
C788 C787 1.349 . S
C788 C800 1.349 1_545 S
C789 C787 1.327 . S
C789 C805 1.429 . S
C789 H811 0.950 . S
C790 H786 0.949 . S
C790 C798 1.574 . S
C790 C806 1.368 1_565 S
H791 C799 0.950 . S
H792 C797 0.950 . S
H793 C798 0.949 . S
H794 C800 0.950 . S
H795 C801 0.950 . S
H796 C802 0.949 . S
C797 H792 0.950 . S
C797 C799 1.327 . S
C797 C803 1.429 . S
C798 C790 1.574 . S
C798 H793 0.949 . S
C798 C804 1.368 1_565 S
C799 C783 1.317 1_545 S
C799 H791 0.950 . S
C799 C797 1.327 . S
C800 C788 1.349 1_565 S
C800 H794 0.950 . S
C800 C801 1.327 . S
C801 H795 0.950 . S
C801 C800 1.327 . S
C801 C805 1.429 1_565 S
C802 C785 1.574 . S
C802 H796 0.949 . S
C802 C806 1.368 . S
C803 C784 1.429 1_545 S
C803 C797 1.429 . S
C803 C804 1.523 . S
C804 C785 1.368 . S
C804 C798 1.368 1_545 S
C804 C803 1.523 . S
C805 C789 1.429 . S
C805 C801 1.429 1_545 S
C805 C806 1.523 . S
C806 C790 1.368 1_545 S
C806 C802 1.368 . S
C806 C805 1.523 . S
H807 C782 0.950 . S
H808 C784 0.950 . S
H809 C785 0.949 . S
H810 C787 0.950 . S
H811 C789 0.950 . S
C812 C813 1.349 . S
C812 C814 1.327 . S
C812 H837 0.950 . S
C813 C812 1.349 . S
C813 C829 1.349 . S
C814 C812 1.327 . S
C814 C833 1.429 . S
C814 H838 0.950 . S
C815 C832 1.574 . S
C815 C834 1.368 . S
C815 H839 0.949 . S
H816 C820 0.949 . S
C817 C818 1.349 . S
C817 C819 1.327 . S
C817 H840 0.950 . S
C818 C817 1.349 . S
C818 C830 1.349 . S
C819 C817 1.327 . S
C819 C835 1.429 . S
C819 H841 0.950 . S
C820 H816 0.949 . S
C820 C828 1.574 . S
C820 C836 1.368 . S
H821 C829 0.950 . S
H822 C827 0.950 . S
H823 C828 0.949 . S
H824 C830 0.950 . S
H825 C831 0.950 . S
H826 C832 0.949 . S
C827 H822 0.950 . S
C827 C829 1.327 . S
C827 C833 1.429 . S
C828 C820 1.574 . S
C828 H823 0.949 . S
C828 C834 1.368 . S
C829 C813 1.349 . S
C829 H821 0.950 . S
C829 C827 1.327 . S
C830 C818 1.349 . S
C830 H824 0.950 . S
C830 C831 1.327 . S
C831 H825 0.950 . S
C831 C830 1.327 . S
C831 C835 1.429 . S
C832 C815 1.574 . S
C832 H826 0.949 . S
C832 C836 1.368 . S
C833 C814 1.429 . S
C833 C827 1.429 . S
C833 C834 1.523 . S
C834 C815 1.368 . S
C834 C828 1.368 . S
C834 C833 1.523 . S
C835 C819 1.429 . S
C835 C831 1.429 . S
C835 C836 1.523 . S
C836 C820 1.368 . S
C836 C832 1.368 . S
C836 C835 1.523 . S
H837 C812 0.950 . S
H838 C814 0.950 . S
H839 C815 0.949 . S
H840 C817 0.950 . S
H841 C819 0.950 . S
C842 C843 1.349 . S
C842 C844 1.327 . S
C842 H867 0.950 . S
C843 C842 1.349 . S
C843 C859 1.349 . S
C844 C842 1.327 . S
C844 C863 1.429 . S
C844 H868 0.950 . S
C845 C862 1.574 . S
C845 C864 1.368 . S
C845 H869 0.949 . S
H846 C850 0.949 . S
C847 C848 1.349 . S
C847 C849 1.327 . S
C847 H870 0.950 . S
C848 C847 1.349 . S
C848 C860 1.349 . S
C849 C847 1.327 . S
C849 C865 1.429 . S
C849 H871 0.950 . S
C850 H846 0.949 . S
C850 C858 1.574 . S
C850 C866 1.368 . S
H851 C859 0.950 . S
H852 C857 0.950 . S
H853 C858 0.949 . S
H854 C860 0.950 . S
H855 C861 0.950 . S
H856 C862 0.949 . S
C857 H852 0.950 . S
C857 C859 1.327 . S
C857 C863 1.429 . S
C858 C850 1.574 . S
C858 H853 0.949 . S
C858 C864 1.368 . S
C859 C843 1.349 . S
C859 H851 0.950 . S
C859 C857 1.327 . S
C860 C848 1.349 . S
C860 H854 0.950 . S
C860 C861 1.327 . S
C861 H855 0.950 . S
C861 C860 1.327 . S
C861 C865 1.429 . S
C862 C845 1.574 . S
C862 H856 0.949 . S
C862 C866 1.368 . S
C863 C844 1.429 . S
C863 C857 1.429 . S
C863 C864 1.523 . S
C864 C845 1.368 . S
C864 C858 1.368 . S
C864 C863 1.523 . S
C865 C849 1.429 . S
C865 C861 1.429 . S
C865 C866 1.523 . S
C866 C850 1.368 . S
C866 C862 1.368 . S
C866 C865 1.523 . S
H867 C842 0.950 . S
H868 C844 0.950 . S
H869 C845 0.949 . S
H870 C847 0.950 . S
H871 C849 0.950 . S
C872 C873 1.349 . S
C872 C874 1.327 . S
C872 H897 0.950 . S
C873 C872 1.349 . S
C873 C889 1.349 . S
C874 C872 1.327 . S
C874 C893 1.429 . S
C874 H898 0.950 . S
C875 C892 1.574 . S
C875 C894 1.368 . S
C875 H899 0.949 . S
H876 C880 0.949 . S
C877 C878 1.349 . S
C877 C879 1.327 . S
C877 H900 0.950 . S
C878 C877 1.349 . S
C878 C890 1.349 . S
C879 C877 1.327 . S
C879 C895 1.429 . S
C879 H901 0.950 . S
C880 H876 0.949 . S
C880 C888 1.574 . S
C880 C896 1.368 . S
H881 C889 0.950 . S
H882 C887 0.950 . S
H883 C888 0.949 . S
H884 C890 0.950 . S
H885 C891 0.950 . S
H886 C892 0.949 . S
C887 H882 0.950 . S
C887 C889 1.327 . S
C887 C893 1.429 . S
C888 C880 1.574 . S
C888 H883 0.949 . S
C888 C894 1.368 . S
C889 C873 1.349 . S
C889 H881 0.950 . S
C889 C887 1.327 . S
C890 C878 1.349 . S
C890 H884 0.950 . S
C890 C891 1.327 . S
C891 H885 0.950 . S
C891 C890 1.327 . S
C891 C895 1.429 . S
C892 C875 1.574 . S
C892 H886 0.949 . S
C892 C896 1.368 . S
C893 C874 1.429 . S
C893 C887 1.429 . S
C893 C894 1.523 . S
C894 C875 1.368 . S
C894 C888 1.368 . S
C894 C893 1.523 . S
C895 C879 1.429 . S
C895 C891 1.429 . S
C895 C896 1.523 . S
C896 C880 1.368 . S
C896 C892 1.368 . S
C896 C895 1.523 . S
H897 C872 0.950 . S
H898 C874 0.950 . S
H899 C875 0.949 . S
H900 C877 0.950 . S
H901 C879 0.950 . S
C902 C903 1.362 . S
C902 C904 1.327 . S
C902 H927 0.950 . S
C903 C902 1.362 . S
C903 C919 1.335 1_545 S
C904 C902 1.327 . S
C904 C923 1.429 . S
C904 H928 0.950 . S
C905 C922 1.574 . S
C905 C924 1.368 1_565 S
C905 H929 0.949 . S
H906 C910 0.949 . S
C907 C908 1.349 1_565 S
C907 C909 1.327 . S
C907 H930 0.950 . S
C908 C907 1.349 1_545 S
C908 C920 1.349 . S
C909 C907 1.327 . S
C909 C925 1.429 1_565 S
C909 H931 0.950 . S
C910 H906 0.949 . S
C910 C918 1.574 . S
C910 C926 1.368 . S
H911 C919 0.950 . S
H912 C917 0.950 . S
H913 C918 0.949 . S
H914 C920 0.950 . S
H915 C921 0.950 . S
H916 C922 0.949 . S
C917 H912 0.950 . S
C917 C919 1.327 . S
C917 C923 1.429 1_565 S
C918 C910 1.574 . S
C918 H913 0.949 . S
C918 C924 1.368 . S
C919 C903 1.335 1_565 S
C919 H911 0.950 . S
C919 C917 1.327 . S
C920 C908 1.349 . S
C920 H914 0.950 . S
C920 C921 1.327 . S
C921 H915 0.950 . S
C921 C920 1.327 . S
C921 C925 1.429 . S
C922 C905 1.574 . S
C922 H916 0.949 . S
C922 C926 1.368 1_565 S
C923 C904 1.429 . S
C923 C917 1.429 1_545 S
C923 C924 1.523 . S
C924 C905 1.368 1_545 S
C924 C918 1.368 . S
C924 C923 1.523 . S
C925 C909 1.429 1_545 S
C925 C921 1.429 . S
C925 C926 1.523 . S
C926 C910 1.368 . S
C926 C922 1.368 1_545 S
C926 C925 1.523 . S
H927 C902 0.950 . S
H928 C904 0.950 . S
H929 C905 0.949 . S
H930 C907 0.950 . S
H931 C909 0.950 . S
C932 C933 1.349 . S
C932 C934 1.327 . S
C932 H957 0.950 . S
C933 C932 1.349 . S
C933 C949 1.349 . S
C934 C932 1.327 . S
C934 C953 1.429 . S
C934 H958 0.950 . S
C935 C952 1.574 . S
C935 C954 1.368 . S
C935 H959 0.949 . S
H936 C940 0.949 . S
C937 C938 1.349 . S
C937 C939 1.327 . S
C937 H960 0.950 . S
C938 C937 1.349 . S
C938 C950 1.349 . S
C939 C937 1.327 . S
C939 C955 1.429 . S
C939 H961 0.950 . S
C940 H936 0.949 . S
C940 C948 1.574 . S
C940 C956 1.368 . S
H941 C949 0.950 . S
H942 C947 0.950 . S
H943 C948 0.949 . S
H944 C950 0.950 . S
H945 C951 0.950 . S
H946 C952 0.949 . S
C947 H942 0.950 . S
C947 C949 1.327 . S
C947 C953 1.429 . S
C948 C940 1.574 . S
C948 H943 0.949 . S
C948 C954 1.368 . S
C949 C933 1.349 . S
C949 H941 0.950 . S
C949 C947 1.327 . S
C950 C938 1.349 . S
C950 H944 0.950 . S
C950 C951 1.327 . S
C951 H945 0.950 . S
C951 C950 1.327 . S
C951 C955 1.429 . S
C952 C935 1.574 . S
C952 H946 0.949 . S
C952 C956 1.368 . S
C953 C934 1.429 . S
C953 C947 1.429 . S
C953 C954 1.523 . S
C954 C935 1.368 . S
C954 C948 1.368 . S
C954 C953 1.523 . S
C955 C939 1.429 . S
C955 C951 1.429 . S
C955 C956 1.523 . S
C956 C940 1.368 . S
C956 C952 1.368 . S
C956 C955 1.523 . S
H957 C932 0.950 . S
H958 C934 0.950 . S
H959 C935 0.949 . S
H960 C937 0.950 . S
H961 C939 0.950 . S
C962 C963 1.349 . S
C962 C964 1.327 . S
C962 H987 0.950 . S
C963 C962 1.349 . S
C963 C979 1.349 . S
C964 C962 1.327 . S
C964 C983 1.429 . S
C964 H988 0.950 . S
C965 C982 1.574 . S
C965 C984 1.368 . S
C965 H989 0.949 . S
H966 C970 0.949 . S
C967 C968 1.349 . S
C967 C969 1.327 . S
C967 H990 0.950 . S
C968 C967 1.349 . S
C968 C980 1.349 . S
C969 C967 1.327 . S
C969 C985 1.429 . S
C969 H991 0.950 . S
C970 H966 0.949 . S
C970 C978 1.574 . S
C970 C986 1.368 . S
H971 C979 0.950 . S
H972 C977 0.950 . S
H973 C978 0.949 . S
H974 C980 0.950 . S
H975 C981 0.950 . S
H976 C982 0.949 . S
C977 H972 0.950 . S
C977 C979 1.327 . S
C977 C983 1.429 . S
C978 C970 1.574 . S
C978 H973 0.949 . S
C978 C984 1.368 . S
C979 C963 1.349 . S
C979 H971 0.950 . S
C979 C977 1.327 . S
C980 C968 1.349 . S
C980 H974 0.950 . S
C980 C981 1.327 . S
C981 H975 0.950 . S
C981 C980 1.327 . S
C981 C985 1.429 . S
C982 C965 1.574 . S
C982 H976 0.949 . S
C982 C986 1.368 . S
C983 C964 1.429 . S
C983 C977 1.429 . S
C983 C984 1.523 . S
C984 C965 1.368 . S
C984 C978 1.368 . S
C984 C983 1.523 . S
C985 C969 1.429 . S
C985 C981 1.429 . S
C985 C986 1.523 . S
C986 C970 1.368 . S
C986 C982 1.368 . S
C986 C985 1.523 . S
H987 C962 0.950 . S
H988 C964 0.950 . S
H989 C965 0.949 . S
H990 C967 0.950 . S
H991 C969 0.950 . S
C992 C993 1.349 . S
C992 C994 1.327 . S
C992 H1017 0.950 . S
C993 C992 1.349 . S
C993 C1009 1.349 . S
C994 C992 1.327 . S
C994 C1013 1.429 . S
C994 H1018 0.950 . S
C995 C1012 1.574 . S
C995 C1014 1.368 . S
C995 H1019 0.949 . S
H996 C1000 0.949 . S
C997 C998 1.349 . S
C997 C999 1.327 . S
C997 H1020 0.950 . S
C998 C997 1.349 . S
C998 C1010 1.349 . S
C999 C997 1.327 . S
C999 C1015 1.429 . S
C999 H1021 0.950 . S
C1000 H996 0.949 . S
C1000 C1008 1.574 . S
C1000 C1016 1.368 . S
H1001 C1009 0.950 . S
H1002 C1007 0.950 . S
H1003 C1008 0.949 . S
H1004 C1010 0.950 . S
H1005 C1011 0.950 . S
H1006 C1012 0.949 . S
C1007 H1002 0.950 . S
C1007 C1009 1.327 . S
C1007 C1013 1.429 . S
C1008 C1000 1.574 . S
C1008 H1003 0.949 . S
C1008 C1014 1.368 . S
C1009 C993 1.349 . S
C1009 H1001 0.950 . S
C1009 C1007 1.327 . S
C1010 C998 1.349 . S
C1010 H1004 0.950 . S
C1010 C1011 1.327 . S
C1011 H1005 0.950 . S
C1011 C1010 1.327 . S
C1011 C1015 1.429 . S
C1012 C995 1.574 . S
C1012 H1006 0.949 . S
C1012 C1016 1.368 . S
C1013 C994 1.429 . S
C1013 C1007 1.429 . S
C1013 C1014 1.523 . S
C1014 C995 1.368 . S
C1014 C1008 1.368 . S
C1014 C1013 1.523 . S
C1015 C999 1.429 . S
C1015 C1011 1.429 . S
C1015 C1016 1.523 . S
C1016 C1000 1.368 . S
C1016 C1012 1.368 . S
C1016 C1015 1.523 . S
H1017 C992 0.950 . S
H1018 C994 0.950 . S
H1019 C995 0.949 . S
H1020 C997 0.950 . S
H1021 C999 0.950 . S
C1022 C1023 1.345 1_545 S
C1022 C1024 1.327 . S
C1022 H1047 0.950 . S
C1023 C1022 1.345 1_565 S
C1023 C1039 1.352 . S
C1024 C1022 1.327 . S
C1024 C1043 1.391 1_545 S
C1024 H1048 0.950 . S
C1025 C1042 1.574 . S
C1025 C1044 1.368 . S
C1025 H1049 0.949 . S
H1026 C1030 0.949 . S
C1027 C1028 1.349 . S
C1027 C1029 1.327 . S
C1027 H1050 0.950 . S
C1028 C1027 1.349 . S
C1028 C1040 1.349 1_565 S
C1029 C1027 1.327 . S
C1029 C1045 1.429 . S
C1029 H1051 0.950 . S
C1030 H1026 0.949 . S
C1030 C1038 1.574 . S
C1030 C1046 1.368 1_545 S
H1031 C1039 0.950 . S
H1032 C1037 0.950 . S
H1033 C1038 0.949 . S
H1034 C1040 0.950 . S
H1035 C1041 0.950 . S
H1036 C1042 0.949 . S
C1037 H1032 0.950 . S
C1037 C1039 1.327 . S
C1037 C1043 1.472 . S
C1038 C1030 1.574 . S
C1038 H1033 0.949 . S
C1038 C1044 1.368 1_545 S
C1039 C1023 1.352 . S
C1039 H1031 0.950 . S
C1039 C1037 1.327 . S
C1040 C1028 1.349 1_545 S
C1040 H1034 0.950 . S
C1040 C1041 1.327 . S
C1041 H1035 0.950 . S
C1041 C1040 1.327 . S
C1041 C1045 1.429 1_545 S
C1042 C1025 1.574 . S
C1042 H1036 0.949 . S
C1042 C1046 1.368 . S
C1043 C1024 1.391 1_565 S
C1043 C1037 1.472 . S
C1043 C1044 1.520 . S
C1044 C1025 1.368 . S
C1044 C1038 1.368 1_565 S
C1044 C1043 1.520 . S
C1045 C1029 1.429 . S
C1045 C1041 1.429 1_565 S
C1045 C1046 1.523 . S
C1046 C1030 1.368 1_565 S
C1046 C1042 1.368 . S
C1046 C1045 1.523 . S
H1047 C1022 0.950 . S
H1048 C1024 0.950 . S
H1049 C1025 0.949 . S
H1050 C1027 0.950 . S
H1051 C1029 0.950 . S
C1052 C1053 1.349 . S
C1052 C1054 1.327 . S
C1052 H1077 0.950 . S
C1053 C1052 1.349 . S
C1053 C1069 1.349 . S
C1054 C1052 1.327 . S
C1054 C1073 1.429 . S
C1054 H1078 0.950 . S
C1055 C1072 1.574 . S
C1055 C1074 1.368 . S
C1055 H1079 0.949 . S
H1056 C1060 0.949 . S
C1057 C1058 1.349 . S
C1057 C1059 1.327 . S
C1057 H1080 0.950 . S
C1058 C1057 1.349 . S
C1058 C1070 1.349 . S
C1059 C1057 1.327 . S
C1059 C1075 1.429 . S
C1059 H1081 0.950 . S
C1060 H1056 0.949 . S
C1060 C1068 1.574 . S
C1060 C1076 1.368 . S
H1061 C1069 0.950 . S
H1062 C1067 0.950 . S
H1063 C1068 0.949 . S
H1064 C1070 0.950 . S
H1065 C1071 0.950 . S
H1066 C1072 0.949 . S
C1067 H1062 0.950 . S
C1067 C1069 1.327 . S
C1067 C1073 1.429 . S
C1068 C1060 1.574 . S
C1068 H1063 0.949 . S
C1068 C1074 1.368 . S
C1069 C1053 1.349 . S
C1069 H1061 0.950 . S
C1069 C1067 1.327 . S
C1070 C1058 1.349 . S
C1070 H1064 0.950 . S
C1070 C1071 1.327 . S
C1071 H1065 0.950 . S
C1071 C1070 1.327 . S
C1071 C1075 1.429 . S
C1072 C1055 1.574 . S
C1072 H1066 0.949 . S
C1072 C1076 1.368 . S
C1073 C1054 1.429 . S
C1073 C1067 1.429 . S
C1073 C1074 1.523 . S
C1074 C1055 1.368 . S
C1074 C1068 1.368 . S
C1074 C1073 1.523 . S
C1075 C1059 1.429 . S
C1075 C1071 1.429 . S
C1075 C1076 1.523 . S
C1076 C1060 1.368 . S
C1076 C1072 1.368 . S
C1076 C1075 1.523 . S
H1077 C1052 0.950 . S
H1078 C1054 0.950 . S
H1079 C1055 0.949 . S
H1080 C1057 0.950 . S
H1081 C1059 0.950 . S
C1082 C1083 1.349 . S
C1082 C1084 1.327 . S
C1082 H1107 0.950 . S
C1083 C1082 1.349 . S
C1083 C1099 1.349 . S
C1084 C1082 1.327 . S
C1084 C1103 1.429 . S
C1084 H1108 0.950 . S
C1085 C1102 1.574 . S
C1085 C1104 1.368 . S
C1085 H1109 0.949 . S
H1086 C1090 0.949 . S
C1087 C1088 1.349 . S
C1087 C1089 1.327 . S
C1087 H1110 0.950 . S
C1088 C1087 1.349 . S
C1088 C1100 1.349 . S
C1089 C1087 1.327 . S
C1089 C1105 1.429 . S
C1089 H1111 0.950 . S
C1090 H1086 0.949 . S
C1090 C1098 1.574 . S
C1090 C1106 1.368 . S
H1091 C1099 0.950 . S
H1092 C1097 0.950 . S
H1093 C1098 0.949 . S
H1094 C1100 0.950 . S
H1095 C1101 0.950 . S
H1096 C1102 0.949 . S
C1097 H1092 0.950 . S
C1097 C1099 1.327 . S
C1097 C1103 1.429 . S
C1098 C1090 1.574 . S
C1098 H1093 0.949 . S
C1098 C1104 1.368 . S
C1099 C1083 1.349 . S
C1099 H1091 0.950 . S
C1099 C1097 1.327 . S
C1100 C1088 1.349 . S
C1100 H1094 0.950 . S
C1100 C1101 1.327 . S
C1101 H1095 0.950 . S
C1101 C1100 1.327 . S
C1101 C1105 1.429 . S
C1102 C1085 1.574 . S
C1102 H1096 0.949 . S
C1102 C1106 1.368 . S
C1103 C1084 1.429 . S
C1103 C1097 1.429 . S
C1103 C1104 1.523 . S
C1104 C1085 1.368 . S
C1104 C1098 1.368 . S
C1104 C1103 1.523 . S
C1105 C1089 1.429 . S
C1105 C1101 1.429 . S
C1105 C1106 1.523 . S
C1106 C1090 1.368 . S
C1106 C1102 1.368 . S
C1106 C1105 1.523 . S
H1107 C1082 0.950 . S
H1108 C1084 0.950 . S
H1109 C1085 0.949 . S
H1110 C1087 0.950 . S
H1111 C1089 0.950 . S
C393 C255 1.612 . S
C398 C320 1.658 . S
C428 C350 2.396 . S
C423 C294 2.297 . S
C458 C360 1.733 . S
C453 C177 1.691 . S
C488 C380 1.605 . S
C483 C216 1.521 . S
C518 C321 1.658 . S
C513 C99 1.616 1_545 S
C543 C138 2.283 1_556 S
C548 C351 2.401 . S
C573 C21 1.679 . S
C578 C361 1.733 . S
C603 C60 1.534 . S
C608 C381 1.605 . S
C638 C313 0.499 . S
C633 C196 0.548 . S
C668 C334 0.407 . S
C663 C235 0.472 1_545 S
C698 C353 0.856 . S
C693 C289 0.841 . S
C723 C157 0.380 . S
C728 C373 0.313 . S
C753 C40 0.544 . S
C758 C314 0.509 . S
C788 C333 0.407 . S
C783 C79 0.460 . S
C818 C354 0.856 . S
C813 C133 0.842 . S
C843 C1 0.390 . S
C848 C374 0.313 . S
C873 C211 2.228 . S
C878 C331 2.386 . S
C903 C250 1.586 . S
C908 C341 1.737 . S
C938 C371 2.571 . S
C933 C274 2.377 . S
C968 C391 2.436 . S
C963 C172 2.274 . S
C993 C55 2.224 . S
C998 C330 2.397 . S
C1028 C340 1.737 . S
C1023 C94 1.586 1_565 S
C1058 C370 2.571 . S
C1053 C118 2.369 . S
C1083 C16 2.278 . S
C1088 C390 2.436 . S
