# Generated by pormake.
# Topology zzz, (3,6)-cn, num edge types: 1
# Building blocks:
#     Node 0, Type 0, BuildingBlock: KAKCAD_clean_linker_0, # of connection points: 3
#     Node 1, Type 0, BuildingBlock: KAKCAD_clean_linker_0, # of connection points: 3
#     Node 2, Type 0, BuildingBlock: KAKCAD_clean_linker_0, # of connection points: 3
#     Node 3, Type 0, BuildingBlock: KAKCAD_clean_linker_0, # of connection points: 3
#     Node 4, Type 0, BuildingBlock: KAKCAD_clean_linker_0, # of connection points: 3
#     Node 5, Type 0, BuildingBlock: KAKCAD_clean_linker_0, # of connection points: 3
#     Node 6, Type 0, BuildingBlock: KAKCAD_clean_linker_0, # of connection points: 3
#     Node 7, Type 0, BuildingBlock: KAKCAD_clean_linker_0, # of connection points: 3
#     Node 8, Type 1, BuildingBlock: PAMTUU_clean_sbu_0, # of connection points: 6
#     Node 9, Type 1, BuildingBlock: PAMTUU_clean_sbu_0, # of connection points: 6
#     Node 10, Type 1, BuildingBlock: PAMTUU_clean_sbu_0, # of connection points: 6
#     Node 11, Type 1, BuildingBlock: PAMTUU_clean_sbu_0, # of connection points: 6
#     Edge 12, Type (0, 1), BuildingBlock: TEMPAE_clean_linker_10, # of connection points: 2
#     Edge 13, Type (0, 1), BuildingBlock: TEMPAE_clean_linker_10, # of connection points: 2
#     Edge 14, Type (0, 1), BuildingBlock: TEMPAE_clean_linker_10, # of connection points: 2
#     Edge 15, Type (0, 1), BuildingBlock: TEMPAE_clean_linker_10, # of connection points: 2
#     Edge 16, Type (0, 1), BuildingBlock: TEMPAE_clean_linker_10, # of connection points: 2
#     Edge 17, Type (0, 1), BuildingBlock: TEMPAE_clean_linker_10, # of connection points: 2
#     Edge 18, Type (0, 1), BuildingBlock: TEMPAE_clean_linker_10, # of connection points: 2
#     Edge 19, Type (0, 1), BuildingBlock: TEMPAE_clean_linker_10, # of connection points: 2
#     Edge 20, Type (0, 1), BuildingBlock: TEMPAE_clean_linker_10, # of connection points: 2
#     Edge 21, Type (0, 1), BuildingBlock: TEMPAE_clean_linker_10, # of connection points: 2
#     Edge 22, Type (0, 1), BuildingBlock: TEMPAE_clean_linker_10, # of connection points: 2
#     Edge 23, Type (0, 1), BuildingBlock: TEMPAE_clean_linker_10, # of connection points: 2
#     Edge 24, Type (0, 1), BuildingBlock: TEMPAE_clean_linker_10, # of connection points: 2
#     Edge 25, Type (0, 1), BuildingBlock: TEMPAE_clean_linker_10, # of connection points: 2
#     Edge 26, Type (0, 1), BuildingBlock: TEMPAE_clean_linker_10, # of connection points: 2
#     Edge 27, Type (0, 1), BuildingBlock: TEMPAE_clean_linker_10, # of connection points: 2
#     Edge 28, Type (0, 1), BuildingBlock: TEMPAE_clean_linker_10, # of connection points: 2
#     Edge 29, Type (0, 1), BuildingBlock: TEMPAE_clean_linker_10, # of connection points: 2
#     Edge 30, Type (0, 1), BuildingBlock: TEMPAE_clean_linker_10, # of connection points: 2
#     Edge 31, Type (0, 1), BuildingBlock: TEMPAE_clean_linker_10, # of connection points: 2
#     Edge 32, Type (0, 1), BuildingBlock: TEMPAE_clean_linker_10, # of connection points: 2
#     Edge 33, Type (0, 1), BuildingBlock: TEMPAE_clean_linker_10, # of connection points: 2
#     Edge 34, Type (0, 1), BuildingBlock: TEMPAE_clean_linker_10, # of connection points: 2
#     Edge 35, Type (0, 1), BuildingBlock: TEMPAE_clean_linker_10, # of connection points: 2
# Relax obj value: 0.378
# Max RMSD: 0.262
# Mean RMSD: 0.220
data_MOF--net-zzz--node1-PAMTUU_clean_sbu_0--node2-KAKCAD_clean_linker_0--edge1-TEMPAE_clean_linker_10
_symmetry_space_group_name_H-M    P1
_symmetry_Int_Tables_number       1
_symmetry_cell_setting            triclinic
loop_
_symmetry_equiv_pos_as_xyz
'x, y, z'
_cell_length_a     58.745915
_cell_length_b     62.207159
_cell_length_c     20.859022
_cell_angle_alpha  98.662049
_cell_angle_beta   90.01001
_cell_angle_gamma 89.933722
loop_
_atom_site_label
_atom_site_type_symbol
_atom_site_fract_x
_atom_site_fract_y
_atom_site_fract_z
_atom_type_partial_charge
C0 C 0.81269 0.57463 0.23389 0.0
C1 C 0.81341 0.56387 0.16948 0.0
C2 C 0.79622 0.56905 0.27702 0.0
C3 C 0.78007 0.55282 0.25621 0.0
C4 C 0.77907 0.54426 0.19 0.0
C5 C 0.79548 0.54971 0.14725 0.0
C6 C 0.76717 0.54183 0.30328 0.0
C7 C 0.74553 0.5333 0.28712 0.0
C8 C 0.73583 0.51761 0.32031 0.0
C9 C 0.74759 0.51113 0.37354 0.0
C10 C 0.76881 0.52079 0.39324 0.0
C11 C 0.77827 0.53607 0.35774 0.0
C12 C 0.78307 0.51406 0.44599 0.0
C13 C 0.79011 0.52982 0.49774 0.0
C14 C 0.79389 0.49367 0.43737 0.0
C15 C 0.81223 0.48961 0.47729 0.0
C16 C 0.82008 0.50581 0.52704 0.0
C17 C 0.71472 0.50698 0.29176 0.0
C18 C 0.69324 0.51474 0.31388 0.0
C19 C 0.7162 0.49356 0.23138 0.0
C20 C 0.69693 0.48913 0.19205 0.0
C21 C 0.67552 0.49795 0.212 0.0
C22 C 0.67383 0.51014 0.27472 0.0
C23 C 0.80823 0.52571 0.53799 0.0
H24 H 0.82586 0.58608 0.2523 0.0
H25 H 0.79708 0.57635 0.32749 0.0
H26 H 0.76705 0.53159 0.17197 0.0
H27 H 0.79534 0.54085 0.09843 0.0
H28 H 0.73673 0.53784 0.2454 0.0
H29 H 0.79529 0.54212 0.36973 0.0
H30 H 0.74058 0.49856 0.39841 0.0
H31 H 0.7824 0.54583 0.50469 0.0
H32 H 0.78917 0.48139 0.39708 0.0
H33 H 0.82076 0.47402 0.46779 0.0
H34 H 0.6917 0.52554 0.35952 0.0
H35 H 0.73266 0.48788 0.21234 0.0
H36 H 0.81384 0.53866 0.57521 0.0
H37 H 0.65765 0.51689 0.29267 0.0
H38 H 0.69927 0.47997 0.14411 0.0
C39 C 0.01607 0.76709 0.14856 0.0
C40 C 0.03745 0.77731 0.15378 0.0
C41 C 1.00971 0.75329 0.19243 0.0
C42 C 0.02452 0.74979 0.24264 0.0
C43 C 0.04639 0.75898 0.24547 0.0
C44 C 0.05286 0.77252 0.20112 0.0
C45 C 0.01623 0.73892 0.29638 0.0
C46 C 1.00562 0.71865 0.28451 0.0
C47 C 0.99665 0.70894 0.33577 0.0
C48 C 0.9982 0.72005 0.39996 0.0
C49 C 1.00881 0.74062 0.41212 0.0
C50 C 0.0178 0.7497 0.35991 0.0
C51 C 1.00962 0.75411 0.47731 0.0
C52 C 0.98955 0.75986 0.51225 0.0
C53 C 0.02983 0.76515 0.49745 0.0
C54 C 0.02952 0.78323 0.54591 0.0
C55 C 1.00903 0.79054 0.57695 0.0
C56 C 0.98642 0.68695 0.31993 0.0
C57 C 0.97141 0.68264 0.26715 0.0
C58 C 0.99446 0.66949 0.34912 0.0
C59 C 0.98926 0.64801 0.32208 0.0
C60 C 0.97598 0.64362 0.26526 0.0
C61 C 0.96634 0.6613 0.23999 0.0
C62 C 0.98929 0.77782 0.56195 0.0
H63 H 1.00395 0.77051 0.11225 0.0
H64 H 0.99272 0.74645 0.18957 0.0
H65 H 0.0581 0.75641 0.28374 0.0
H66 H 0.06936 0.78034 0.20646 0.0
H67 H 1.00471 0.71025 0.23509 0.0
H68 H 0.02523 0.76584 0.36838 0.0
H69 H 0.99113 0.71286 0.43975 0.0
H70 H 0.97371 0.75162 0.49786 0.0
H71 H 0.04561 0.76095 0.47168 0.0
H72 H 0.04514 0.79237 0.5549 0.0
H73 H 0.96479 0.69582 0.24402 0.0
H74 H 1.00607 0.67235 0.38987 0.0
H75 H 0.97331 0.78236 0.58606 0.0
H76 H 0.95621 0.65881 0.19614 0.0
H77 H 0.99659 0.63485 0.34383 0.0
C78 C 0.75849 0.02915 0.09386 0.0
C79 C 0.74673 0.04888 0.10958 0.0
C80 C 0.76871 0.01937 0.14251 0.0
C81 C 0.76709 0.02907 0.20769 0.0
C82 C 0.75637 0.04937 0.22298 0.0
C83 C 0.74638 0.05927 0.17418 0.0
C84 C 0.77568 0.01747 0.25959 0.0
C85 C 0.79729 0.00818 0.25445 0.0
C86 C 0.80551 0.99625 0.30129 0.0
C87 C 0.7915 0.99339 0.35485 0.0
C88 C 0.76946 0.003 0.361 0.0
C89 C 0.76195 0.01493 0.31274 0.0
C90 C 0.75332 0.00092 0.41554 0.0
C91 C 0.74676 0.98052 0.43077 0.0
C92 C 0.74141 0.01945 0.44522 0.0
C93 C 0.72249 0.01759 0.48478 0.0
C94 C 0.71491 0.99714 0.49672 0.0
C95 C 0.8291 0.98782 0.29058 0.0
C96 C 0.83289 0.96994 0.24185 0.0
C97 C 0.84732 0.00202 0.30911 0.0
C98 C 0.86814 0.99958 0.27571 0.0
C99 C 0.87124 0.98288 0.22273 0.0
C100 C 0.85373 0.96743 0.20852 0.0
C101 C 0.72779 0.97866 0.47116 0.0
H102 H 0.7588 0.02079 0.04438 0.0
H103 H 0.77685 0.00369 0.12953 0.0
H104 H 0.75517 0.05726 0.27284 0.0
H105 H 0.73709 0.07434 0.18753 0.0
H106 H 0.808 0.01041 0.21354 0.0
H107 H 0.74492 0.02176 0.31539 0.0
H108 H 0.79772 0.98417 0.39132 0.0
H109 H 0.75538 0.9659 0.40836 0.0
H110 H 0.7461 0.03546 0.43521 0.0
H111 H 0.71333 0.03222 0.50466 0.0
H112 H 0.81896 0.95915 0.22505 0.0
H113 H 0.84473 0.01628 0.34515 0.0
H114 H 0.72246 0.96265 0.47945 0.0
H115 H 0.85534 0.95443 0.16795 0.0
H116 H 0.88134 0.01157 0.28888 0.0
C117 C 0.54938 0.73765 0.3982 0.0
C118 C 0.56884 0.7254 0.40882 0.0
C119 C 0.54938 0.75112 0.35011 0.0
C120 C 0.56885 0.75268 0.31221 0.0
C121 C 0.58889 0.74213 0.32686 0.0
C122 C 0.58893 0.72868 0.37488 0.0
C123 C 0.56634 0.75891 0.24706 0.0
C124 C 0.56758 0.78053 0.23506 0.0
C125 C 0.56522 0.78516 0.17108 0.0
C126 C 0.56104 0.76794 0.1202 0.0
C127 C 0.55985 0.74641 0.13219 0.0
C128 C 0.56252 0.74213 0.19566 0.0
C129 C 0.55552 0.72808 0.07951 0.0
C130 C 0.53734 0.72874 0.03609 0.0
C131 C 0.56838 0.70892 0.07645 0.0
C132 C 0.56245 0.69041 0.03356 0.0
C133 C 0.54354 0.6906 0.99233 0.0
C134 C 0.5671 0.80774 0.15602 0.0
C135 C 0.55574 0.82516 0.19358 0.0
C136 C 0.57916 0.8117 0.10078 0.0
C137 C 0.57895 0.83225 0.0816 0.0
C138 C 0.56674 0.8495 0.11729 0.0
C139 C 0.55551 0.84582 0.17431 0.0
C140 C 0.53135 0.71012 0.99295 0.0
H141 H 0.53373 0.73573 0.42415 0.0
H142 H 0.53361 0.75876 0.33871 0.0
H143 H 0.60394 0.7427 0.29711 0.0
H144 H 0.60416 0.71941 0.38126 0.0
H145 H 0.57078 0.7935 0.27485 0.0
H146 H 0.56123 0.72554 0.20558 0.0
H147 H 0.55878 0.77126 0.07104 0.0
H148 H 0.52711 0.74331 0.03759 0.0
H149 H 0.58264 0.70804 0.10892 0.0
H150 H 0.57207 0.67563 0.03504 0.0
H151 H 0.54627 0.82263 0.23636 0.0
H152 H 0.58839 0.79872 0.07132 0.0
H153 H 0.51685 0.71085 0.96125 0.0
H154 H 0.54616 0.8588 0.20337 0.0
H155 H 0.58759 0.83432 0.03709 0.0
C156 C 0.26063 0.4694 0.45228 0.0
C157 C 0.23746 0.46399 0.44997 0.0
C158 C 0.27367 0.46611 0.396 0.0
C159 C 0.264 0.45662 0.33652 0.0
C160 C 0.24197 0.44782 0.33713 0.0
C161 C 0.22869 0.45171 0.39321 0.0
C162 C 0.27515 0.45976 0.27436 0.0
C163 C 0.29877 0.46221 0.27178 0.0
C164 C 0.30905 0.47215 0.22332 0.0
C165 C 0.29558 0.4777 0.17181 0.0
C166 C 0.27197 0.47287 0.1697 0.0
C167 C 0.26204 0.4644 0.22178 0.0
C168 C 0.25638 0.47734 0.11672 0.0
C169 C 0.24832 0.49848 0.11432 0.0
C170 C 0.24529 0.45982 0.0789 0.0
C171 C 0.22607 0.46318 0.04174 0.0
C172 C 0.21713 0.48421 0.04176 0.0
C173 C 0.33316 0.47874 0.23573 0.0
C174 C 0.3375 0.49886 0.27428 0.0
C175 C 0.34999 0.46252 0.23183 0.0
C176 C 0.36975 0.46566 0.26993 0.0
C177 C 0.37306 0.485 0.31372 0.0
C178 C 0.35718 0.50197 0.31284 0.0
C179 C 0.22894 0.50189 0.07727 0.0
H180 H 0.26805 0.47827 0.49597 0.0
H181 H 0.29055 0.4731 0.3987 0.0
H182 H 0.23425 0.43955 0.29309 0.0
H183 H 0.21094 0.44701 0.38991 0.0
H184 H 0.30925 0.45799 0.31084 0.0
H185 H 0.24369 0.46276 0.22263 0.0
H186 H 0.30329 0.48555 0.13427 0.0
H187 H 0.25614 0.51225 0.1442 0.0
H188 H 0.25074 0.4433 0.08114 0.0
H189 H 0.21744 0.44909 0.01603 0.0
H190 H 0.32453 0.51141 0.27996 0.0
H191 H 0.34687 0.44667 0.20388 0.0
H192 H 0.22282 0.51835 0.07805 0.0
H193 H 0.3589 0.51706 0.34588 0.0
H194 H 0.38179 0.45238 0.26777 0.0
C195 C 1.00373 0.22056 0.41874 0.0
C196 C 0.01813 0.20366 0.43169 0.0
C197 C 1.01066 0.23466 0.3763 0.0
C198 C 0.03199 0.23192 0.34584 0.0
C199 C 0.04688 0.2159 0.36168 0.0
C200 C 0.04009 0.202 0.40457 0.0
C201 C 0.03781 0.2442 0.29286 0.0
C202 C 0.03608 0.26682 0.30115 0.0
C203 C 0.04096 0.27838 0.24982 0.0
C204 C 0.04729 0.26684 0.1887 0.0
C205 C 0.04882 0.24393 0.18015 0.0
C206 C 0.04427 0.23294 0.23263 0.0
C207 C 0.0538 0.23027 0.11721 0.0
C208 C 0.03668 0.22653 0.0698 0.0
C209 C 0.07243 0.21594 0.11356 0.0
C210 C 0.07271 0.19701 0.06802 0.0
C211 C 0.05443 0.19208 0.02488 0.0
C212 C 0.03969 0.30247 0.26335 0.0
C213 C 0.02022 0.31232 0.29392 0.0
C214 C 0.05913 0.31524 0.25849 0.0
C215 C 0.05964 0.33702 0.28854 0.0
C216 C 0.04072 0.34638 0.324 0.0
C217 C 0.02073 0.33392 0.32399 0.0
C218 C 0.03704 0.20758 0.02369 0.0
H219 H 0.98667 0.22218 0.43855 0.0
H220 H 0.99887 0.24687 0.36445 0.0
H221 H 0.06354 0.21371 0.33931 0.0
H222 H 0.05178 0.18948 0.41486 0.0
H223 H 0.03133 0.27549 0.34832 0.0
H224 H 0.04497 0.2153 0.22582 0.0
H225 H 0.0508 0.27551 0.14849 0.0
H226 H 0.02191 0.23708 0.07244 0.0
H227 H 0.08567 0.21831 0.15012 0.0
H228 H 0.08642 0.18544 0.0696 0.0
H229 H 1.00502 0.30281 0.29849 0.0
H230 H 0.07442 0.30798 0.23558 0.0
H231 H 0.02271 0.20414 0.99108 0.0
H232 H 1.00587 0.34028 0.35116 0.0
H233 H 0.0752 0.3462 0.2864 0.0
C234 C 0.28629 0.0522 0.46664 0.0
C235 C 0.30906 0.05804 0.45824 0.0
C236 C 0.2715 0.04911 0.41386 0.0
C237 C 0.2788 0.05292 0.35215 0.0
C238 C 0.30003 0.06311 0.34774 0.0
C239 C 0.3152 0.06525 0.39987 0.0
C240 C 0.26637 0.04289 0.29241 0.0
C241 C 0.24316 0.03793 0.29493 0.0
C242 C 0.23255 0.02373 0.24525 0.0
C243 C 0.2451 0.01565 0.18856 0.0
C244 C 0.268 0.02228 0.1824 0.0
C245 C 0.27839 0.03528 0.23522 0.0
C246 C 0.28234 0.016 0.12315 0.0
C247 C 0.28911 0.99437 0.1028 0.0
C248 C 0.29326 0.0325 0.09545 0.0
C249 C 0.3113 0.02778 0.05169 0.0
C250 C 0.3191 0.00629 0.03363 0.0
C251 C 0.20898 0.01681 0.25906 0.0
C252 C 0.20541 0.99652 0.27936 0.0
C253 C 0.19191 0.03275 0.27203 0.0
C254 C 0.17271 0.0292 0.30895 0.0
C255 C 0.17002 0.00958 0.33412 0.0
C256 C 0.18609 0.9929 0.31625 0.0
C257 C 0.30724 0.98956 0.05851 0.0
H258 H 0.28063 0.04757 0.51205 0.0
H259 H 0.25526 0.04167 0.42097 0.0
H260 H 0.30583 0.06769 0.30245 0.0
H261 H 0.33241 0.0704 0.39168 0.0
H262 H 0.23332 0.04421 0.33757 0.0
H263 H 0.29643 0.0385 0.23208 0.0
H264 H 0.23708 0.00477 0.14966 0.0
H265 H 0.28131 0.98131 0.12398 0.0
H266 H 0.28868 0.04938 0.1108 0.0
H267 H 0.31994 0.04127 0.03506 0.0
H268 H 0.21852 0.98414 0.27172 0.0
H269 H 0.19437 0.04868 0.25813 0.0
H270 H 0.31235 0.97276 0.04526 0.0
H271 H 0.18467 0.97762 0.33483 0.0
H272 H 0.16052 0.04228 0.32059 0.0
C273 C 0.46521 0.26048 0.16728 0.0
C274 C 0.48541 0.26796 0.14199 0.0
C275 C 0.46608 0.24628 0.21341 0.0
C276 C 0.48712 0.23913 0.23422 0.0
C277 C 0.50713 0.24488 0.20421 0.0
C278 C 0.50629 0.25917 0.15851 0.0
C279 C 0.48883 0.23267 0.29932 0.0
C280 C 0.48877 0.21091 0.3104 0.0
C281 C 0.49182 0.20612 0.374 0.0
C282 C 0.49447 0.22335 0.42575 0.0
C283 C 0.49434 0.24502 0.4148 0.0
C284 C 0.49161 0.24942 0.35143 0.0
C285 C 0.49788 0.26334 0.46824 0.0
C286 C 0.51517 0.26259 0.51446 0.0
C287 C 0.4853 0.2826 0.46943 0.0
C288 C 0.49084 0.30113 0.51268 0.0
C289 C 0.5089 0.30085 0.55687 0.0
C290 C 0.4927 0.18335 0.38782 0.0
C291 C 0.47618 0.16794 0.36319 0.0
C292 C 0.50936 0.17739 0.43021 0.0
C293 C 0.50903 0.15691 0.44971 0.0
C294 C 0.49208 0.14168 0.42717 0.0
C295 C 0.47581 0.14733 0.38292 0.0
C296 C 0.5206 0.28117 0.55847 0.0
H297 H 0.44888 0.26707 0.15585 0.0
H298 H 0.4505 0.24254 0.2372 0.0
H299 H 0.52357 0.23997 0.22062 0.0
H300 H 0.52211 0.26448 0.13934 0.0
H301 H 0.48697 0.1979 0.26991 0.0
H302 H 0.49221 0.2661 0.34198 0.0
H303 H 0.49635 0.2199 0.47489 0.0
H304 H 0.52519 0.24798 0.51467 0.0
H305 H 0.47162 0.28359 0.43514 0.0
H306 H 0.48158 0.31596 0.50913 0.0
H307 H 0.46308 0.1721 0.33063 0.0
H308 H 0.52247 0.1888 0.44951 0.0
H309 H 0.53435 0.28026 0.59255 0.0
H310 H 0.46264 0.13592 0.36415 0.0
H311 H 0.52166 0.15332 0.48443 0.0
Tb312 Tb 1.0035 0.99822 0.74077 0.0
Tb313 Tb 0.04499 0.98731 0.83356 0.0
C314 C 0.99396 0.98828 0.88057 0.0
C315 C 0.96711 0.03294 0.66139 0.0
C316 C 0.96722 0.07554 0.63135 0.0
C317 C 0.96281 0.05773 0.58286 0.0
C318 C 0.9628 0.03656 0.59781 0.0
C319 C 0.97015 0.05085 0.71051 0.0
C320 C 0.97014 0.07194 0.69563 0.0
C321 C 0.97161 0.01078 0.67484 0.0
O322 O 0.01164 0.02811 0.80572 0.0
O323 O 0.04899 0.02171 0.82794 0.0
O324 O 0.05957 0.98519 0.73641 0.0
O325 O 0.03436 0.00686 0.69208 0.0
O326 O 0.06087 0.99074 0.925 0.0
O327 O 0.07492 0.96968 0.84313 0.0
O328 O 0.02614 0.95726 0.80628 0.0
O329 O 1.01133 0.96395 0.70967 0.0
O330 O 0.98763 0.9843 0.81957 0.0
O331 O 0.01503 0.99405 0.89595 0.0
C332 C 0.03193 0.03519 0.82516 0.0
O333 O 0.9902 0.00181 0.6492 0.0
O334 O 0.96946 0.00796 0.73513 0.0
C335 C 0.05406 0.99676 0.6909 0.0
C336 C 0.0735 0.95604 0.9403 0.0
C337 C 0.07068 0.91537 0.98239 0.0
C338 C 0.09175 0.92603 0.98222 0.0
C339 C 0.09319 0.94623 0.96051 0.0
C340 C 0.05232 0.94586 0.94385 0.0
C341 C 0.05095 0.92562 0.96428 0.0
C342 C 0.07498 0.97486 0.90594 0.0
C343 C 0.0175 0.95034 0.74895 0.0
H344 H 0.96074 0.06003 0.53273 0.0
H345 H 0.96062 0.02297 0.55922 0.0
H346 H 0.9736 0.04858 0.76005 0.0
H347 H 0.97336 0.08537 0.73403 0.0
H348 H 0.10715 0.91833 0.9962 0.0
H349 H 0.10969 0.95375 0.95721 0.0
H350 H 0.03693 0.95315 0.92826 0.0
H351 H 0.03449 0.91778 0.96484 0.0
Tb352 Tb 0.51159 0.9725 0.71465 0.0
Tb353 Tb 0.52433 0.01451 0.82128 0.0
C354 C 0.53422 0.96689 0.84896 0.0
C355 C 0.47572 0.94584 0.59256 0.0
C356 C 0.43742 0.969 0.56077 0.0
C357 C 0.43563 0.95475 0.60661 0.0
C358 C 0.45457 0.943 0.62183 0.0
C359 C 0.47647 0.95749 0.53974 0.0
C360 C 0.45746 0.96915 0.52426 0.0
C361 C 0.49683 0.94323 0.62931 0.0
O362 O 0.47916 0.98525 0.75719 0.0
O363 O 0.492 0.00306 0.85461 0.0
O364 O 0.50072 0.02535 0.75269 0.0
O365 O 0.51039 0.00082 0.66511 0.0
O366 O 0.53105 0.03052 0.91554 0.0
O367 O 0.5298 0.0481 0.83416 0.0
O368 O 0.55329 0.00963 0.75424 0.0
O369 O 0.54864 0.97367 0.71111 0.0
O370 O 0.52082 0.95898 0.80077 0.0
O371 O 0.54044 0.98744 0.85931 0.0
C372 C 0.47537 0.99409 0.81774 0.0
O373 O 0.51354 0.95607 0.61903 0.0
O374 O 0.49403 0.94296 0.69123 0.0
C375 C 0.50218 0.01981 0.68984 0.0
C376 C 0.55708 0.05965 0.91465 0.0
C377 C 0.60082 0.07664 0.94539 0.0
C378 C 0.58916 0.08197 0.89122 0.0
C379 C 0.56743 0.07364 0.87615 0.0
C380 C 0.56827 0.05527 0.97062 0.0
C381 C 0.58994 0.06357 0.98563 0.0
C382 C 0.53524 0.04893 0.89497 0.0
C383 C 0.56118 0.99138 0.72134 0.0
H384 H 0.42006 0.95391 0.63399 0.0
H385 H 0.45324 0.93375 0.66171 0.0
H386 H 0.49239 0.9597 0.51534 0.0
H387 H 0.45913 0.97982 0.488 0.0
H388 H 0.59702 0.09218 0.85976 0.0
H389 H 0.55904 0.07766 0.83324 0.0
H390 H 0.56064 0.04478 1.00167 0.0
H391 H 0.59859 0.05885 0.02723 0.0
Tb392 Tb 0.50245 0.48751 0.82003 0.0
Tb393 Tb 0.54106 0.50378 0.72257 0.0
C394 C 0.4906 0.49411 0.67733 0.0
C395 C 0.47377 0.44981 0.91206 0.0
C396 C 0.47507 0.40865 0.95481 0.0
C397 C 0.47145 0.42784 0.99902 0.0
C398 C 0.47072 0.44816 0.9778 0.0
C399 C 0.47745 0.43071 0.86775 0.0
C400 C 0.47793 0.41041 0.88878 0.0
C401 C 0.47427 0.47145 0.89063 0.0
O402 O 0.51524 0.45865 0.76008 0.0
O403 O 0.54935 0.46962 0.71982 0.0
O404 O 0.5564 0.50643 0.81909 0.0
O405 O 0.53515 0.48147 0.86308 0.0
O406 O 0.56997 0.52307 0.71553 0.0
O407 O 0.55364 0.50675 0.62969 0.0
O408 O 0.51757 0.53028 0.752 0.0
O409 O 0.50711 0.52223 0.85109 0.0
O410 O 0.484 0.4978 0.73839 0.0
O411 O 0.51225 0.49132 0.66231 0.0
C412 C 0.53517 0.45447 0.73257 0.0
O413 O 0.47131 0.47172 0.82882 0.0
O414 O 0.49078 0.48433 0.91376 0.0
C415 C 0.55336 0.49368 0.86327 0.0
C416 C 0.56816 0.54201 0.62702 0.0
C417 C 0.56839 0.58343 0.58711 0.0
C418 C 0.5877 0.56987 0.57803 0.0
C419 C 0.58759 0.54937 0.59808 0.0
C420 C 0.54875 0.55532 0.63527 0.0
C421 C 0.54887 0.57586 0.61571 0.0
C422 C 0.56869 0.52123 0.65273 0.0
C423 C 0.51059 0.53642 0.81149 0.0
H424 H 0.46962 0.42727 0.05038 0.0
H425 H 0.46815 0.46265 0.01298 0.0
H426 H 0.48011 0.43141 0.81672 0.0
H427 H 0.48045 0.39608 0.85301 0.0
H428 H 0.60307 0.5753 0.55672 0.0
H429 H 0.6028 0.53941 0.59191 0.0
H430 H 0.53356 0.54991 0.65741 0.0
H431 H 0.53363 0.58575 0.62261 0.0
Tb432 Tb 0.02283 0.51651 0.76563 0.0
Tb433 Tb 1.00826 0.4752 0.83598 0.0
C434 C 0.99961 0.52292 0.90254 0.0
C435 C 0.05696 0.54975 0.67357 0.0
C436 C 0.10131 0.54396 0.62429 0.0
C437 C 0.09685 0.55995 0.67783 0.0
C438 C 0.07476 0.56292 0.70206 0.0
C439 C 0.06106 0.53548 0.6158 0.0
C440 C 0.08307 0.53264 0.59136 0.0
C441 C 0.03603 0.54773 0.71106 0.0
O442 O 0.05508 0.503 0.79379 0.0
O443 O 0.04201 0.48477 0.87431 0.0
O444 O 0.0292 0.46109 0.75501 0.0
O445 O 0.02513 0.48788 0.69115 0.0
O446 O 1.00565 0.46143 0.92158 0.0
O447 O 0.99442 0.44377 0.83029 0.0
O448 O 0.98064 0.47995 0.76895 0.0
O449 O 0.98577 0.51593 0.76119 0.0
O450 O 0.0156 0.52935 0.86602 0.0
O451 O 0.99115 0.50325 0.89034 0.0
C452 C 0.05876 0.4935 0.84516 0.0
O453 O 0.0212 0.53333 0.68561 0.0
O454 O 0.03941 0.54657 0.77216 0.0
C455 C 0.03012 0.46776 0.69827 0.0
C456 C 0.96904 0.4469 0.91911 0.0
C457 C 0.93018 0.47005 0.96634 0.0
C458 C 0.9465 0.46434 0.00983 0.0
C459 C 0.96584 0.45266 0.98631 0.0
C460 C 0.95084 0.44969 0.87709 0.0
C461 C 0.93169 0.46156 0.90049 0.0
C462 C 0.99246 0.44598 0.8933 0.0
C463 C 0.97306 0.49836 0.75317 0.0
H464 H 0.11063 0.5691 0.7034 0.0
H465 H 0.07195 0.57419 0.74628 0.0
H466 H 0.04769 0.52518 0.59232 0.0
H467 H 0.08604 0.52016 0.55004 0.0
H468 H 0.94544 0.4708 0.06098 0.0
H469 H 0.97952 0.45065 0.01976 0.0
H470 H 0.95251 0.44511 0.82514 0.0
H471 H 0.91906 0.46571 0.86648 0.0
C472 C 0.1477 0.02469 0.4341 0.0
C473 C 0.15187 0.00746 0.3836 0.0
C474 C 0.13154 0.0229 0.48294 0.0
C475 C 0.11891 0.00344 0.48154 0.0
C476 C 0.12282 0.98605 0.43031 0.0
C477 C 0.13932 0.98819 0.3824 0.0
C478 C 0.12831 0.04176 0.53686 0.0
C479 C 0.1096 0.9651 0.42627 0.0
C480 C 0.09318 0.99133 0.64103 0.0
C481 C 0.07055 0.99838 0.63704 0.0
C482 C 0.10896 0.99277 0.5909 0.0
C483 C 0.10203 0.00122 0.53449 0.0
C484 C 0.07915 0.00814 0.5298 0.0
C485 C 0.06379 0.00679 0.5811 0.0
C486 C 0.13319 0.98548 0.59872 0.0
C487 C 0.07088 0.01704 0.4705 0.0
H488 H 0.15755 0.03951 0.43648 0.0
H489 H 0.14229 0.97481 0.34362 0.0
H490 H 0.11028 0.04714 0.53882 0.0
H491 H 0.13234 0.03657 0.5842 0.0
H492 H 0.13926 0.05586 0.53076 0.0
H493 H 0.11403 0.95339 0.38241 0.0
H494 H 0.11303 0.95734 0.46981 0.0
H495 H 0.09106 0.96852 0.42556 0.0
H496 H 0.09871 0.98486 0.68389 0.0
H497 H 0.04636 0.01217 0.57703 0.0
H498 H 0.14499 0.99928 0.5968 0.0
H499 H 0.1378 0.97255 0.55817 0.0
H500 H 0.1359 0.97916 0.6452 0.0
H501 H 0.08048 0.03198 0.46485 0.0
H502 H 0.05242 0.021 0.47308 0.0
H503 H 0.07406 0.00503 0.42641 0.0
C504 C 0.51109 0.10956 0.46437 0.0
C505 C 0.49098 0.12059 0.453 0.0
C506 C 0.51079 0.09155 0.49758 0.0
C507 C 0.48982 0.0841 0.51937 0.0
C508 C 0.46928 0.0942 0.50428 0.0
C509 C 0.4701 0.1124 0.47157 0.0
C510 C 0.5331 0.08124 0.51238 0.0
C511 C 0.44653 0.0865 0.52557 0.0
C512 C 0.49316 0.02938 0.57987 0.0
C513 C 0.49617 0.03586 0.64674 0.0
C514 C 0.48975 0.04483 0.53794 0.0
C515 C 0.48982 0.06727 0.56338 0.0
C516 C 0.4919 0.0738 0.63118 0.0
C517 C 0.49487 0.05803 0.672 0.0
C518 C 0.48697 0.03714 0.46624 0.0
C519 C 0.49216 0.09754 0.66041 0.0
H520 H 0.52725 0.11542 0.44887 0.0
H521 H 0.45445 0.12081 0.46333 0.0
H522 H 0.53605 0.08393 0.56555 0.0
H523 H 0.53253 0.06342 0.49642 0.0
H524 H 0.54778 0.08802 0.48847 0.0
H525 H 0.43213 0.09374 0.50163 0.0
H526 H 0.44531 0.06852 0.51474 0.0
H527 H 0.44471 0.09112 0.5788 0.0
H528 H 0.49385 0.01225 0.56008 0.0
H529 H 0.49717 0.0632 0.72358 0.0
H530 H 0.50257 0.04103 0.44033 0.0
H531 H 0.47255 0.04568 0.44662 0.0
H532 H 0.48399 0.01933 0.45547 0.0
H533 H 0.50732 0.10555 0.64283 0.0
H534 H 0.49262 0.09989 0.71426 0.0
H535 H 0.47689 0.10591 0.64488 0.0
C536 C 0.39698 0.46849 0.39456 0.0
C537 C 0.39148 0.4866 0.36444 0.0
C538 C 0.41314 0.46986 0.44493 0.0
C539 C 0.42413 0.48989 0.46675 0.0
C540 C 0.41882 0.50822 0.4365 0.0
C541 C 0.40266 0.50636 0.38585 0.0
C542 C 0.41823 0.44985 0.47543 0.0
C543 C 0.43011 0.52989 0.45801 0.0
C544 C 0.45034 0.49762 0.63701 0.0
C545 C 0.47349 0.49332 0.62378 0.0
C546 C 0.43419 0.49684 0.58657 0.0
C547 C 0.44122 0.49154 0.521 0.0
C548 C 0.46456 0.48727 0.50737 0.0
C549 C 0.48034 0.48825 0.55863 0.0
C550 C 0.40954 0.5016 0.60351 0.0
C551 C 0.47288 0.48143 0.43846 0.0
H552 H 0.3882 0.45323 0.37995 0.0
H553 H 0.39881 0.52046 0.36295 0.0
H554 H 0.4367 0.44611 0.47182 0.0
H555 H 0.41385 0.45289 0.52774 0.0
H556 H 0.40864 0.43538 0.45213 0.0
H557 H 0.42415 0.54261 0.4298 0.0
H558 H 0.42656 0.53541 0.51013 0.0
H559 H 0.44884 0.52823 0.4526 0.0
H560 H 0.44478 0.50162 0.68692 0.0
H561 H 0.49812 0.48487 0.54743 0.0
H562 H 0.39896 0.48717 0.58563 0.0
H563 H 0.40337 0.51517 0.57917 0.0
H564 H 0.40684 0.50597 0.65658 0.0
H565 H 0.46443 0.46631 0.41512 0.0
H566 H 0.49161 0.47893 0.43575 0.0
H567 H 0.46831 0.49447 0.4099 0.0
C568 C 0.02316 0.38148 0.37803 0.0
C569 C 0.04233 0.36788 0.36703 0.0
C570 C 0.02293 0.39943 0.42779 0.0
C571 C 0.04254 0.40431 0.46675 0.0
C572 C 0.06257 0.39182 0.45239 0.0
C573 C 0.06217 0.37366 0.40322 0.0
C574 C 1.00117 0.41223 0.44145 0.0
C575 C 0.08402 0.39678 0.49165 0.0
C576 C 0.04209 0.45826 0.58159 0.0
C577 C 0.03522 0.45162 0.64002 0.0
C578 C 0.04538 0.44302 0.52518 0.0
C579 C 0.04115 0.42069 0.52689 0.0
C580 C 0.03457 0.41391 0.58605 0.0
C581 C 0.03193 0.42939 0.64188 0.0
C582 C 0.053 0.45085 0.46359 0.0
C583 C 0.02958 0.39032 0.59001 0.0
H584 H 1.00792 0.37758 0.34939 0.0
H585 H 0.07708 0.36332 0.39582 0.0
H586 H 0.99412 0.40935 0.48879 0.0
H587 H 1.00453 0.42991 0.44504 0.0
H588 H 0.98807 0.4076 0.40346 0.0
H589 H 0.099 0.38798 0.46806 0.0
H590 H 0.08762 0.41449 0.49899 0.0
H591 H 0.08176 0.39189 0.54024 0.0
H592 H 0.04481 0.4754 0.57986 0.0
H593 H 0.02646 0.4241 0.68661 0.0
H594 H 0.03913 0.44841 0.42713 0.0
H595 H 0.06786 0.44124 0.4426 0.0
H596 H 0.05768 0.46835 0.47178 0.0
H597 H 0.0154 0.38454 0.55667 0.0
H598 H 0.02484 0.38769 0.63979 0.0
H599 H 0.04467 0.38015 0.57434 0.0
C600 C 0.8987 0.0027 0.15948 0.0
C601 C 0.89127 0.98305 0.17801 0.0
C602 C 0.91609 0.00319 0.11322 0.0
C603 C 0.92657 0.98356 0.08443 0.0
C604 C 0.91958 0.9637 0.10398 0.0
C605 C 0.902 0.96367 0.15013 0.0
C606 C 0.92276 0.02472 0.09368 0.0
C607 C 0.93039 0.94241 0.07519 0.0
C608 C 0.95377 0.983 0.91753 0.0
C609 C 0.97693 0.98636 0.93277 0.0
C610 C 0.93736 0.98179 0.96613 0.0
C611 C 0.94412 0.98381 0.03202 0.0
C612 C 0.96751 0.98682 0.04769 0.0
C613 C 0.98357 0.98813 0.9981 0.0
C614 C 0.91266 0.97869 0.94694 0.0
C615 C 0.97556 0.98891 0.11706 0.0
H616 H 0.89032 0.01775 0.17947 0.0
H617 H 0.89656 0.94841 0.1642 0.0
H618 H 0.94134 0.02735 0.10005 0.0
H619 H 0.9189 0.02462 0.04155 0.0
H620 H 0.91366 0.03863 0.12233 0.0
H621 H 0.92399 0.92854 0.09791 0.0
H622 H 0.92684 0.93908 0.02238 0.0
H623 H 0.94915 0.94336 0.08112 0.0
H624 H 0.94834 0.98161 0.86742 0.0
H625 H 1.00138 0.9906 0.01065 0.0
H626 H 0.90252 0.99281 0.97013 0.0
H627 H 0.90578 0.96402 0.96443 0.0
H628 H 0.91019 0.97692 0.8936 0.0
H629 H 0.96784 0.00353 0.14597 0.0
H630 H 0.99438 0.99023 0.12112 0.0
H631 H 0.96994 0.97462 0.13896 0.0
C632 C 0.58272 0.87911 0.06044 0.0
C633 C 0.56439 0.87055 0.09167 0.0
C634 C 0.57976 0.89689 0.02691 0.0
C635 C 0.55796 0.90649 0.02485 0.0
C636 C 0.53977 0.89892 0.06003 0.0
C637 C 0.54318 0.88102 0.09279 0.0
C638 C 0.59963 0.90446 0.99026 0.0
C639 C 0.51629 0.90879 0.05956 0.0
C640 C 0.54991 0.95953 0.95602 0.0
C641 C 0.54204 0.9518 0.89325 0.0
C642 C 0.55552 0.94503 0.99942 0.0
C643 C 0.5534 0.92232 0.97925 0.0
C644 C 0.54616 0.91448 0.91528 0.0
C645 C 0.5405 0.92927 0.87333 0.0
C646 C 0.56307 0.954 0.06732 0.0
C647 C 0.54393 0.89041 0.89134 0.0
H648 H 0.5993 0.87144 0.06041 0.0
H649 H 0.52883 0.8745 0.11624 0.0
H650 H 0.59684 0.8997 0.93741 0.0
H651 H 0.60103 0.92244 0.99969 0.0
H652 H 0.61599 0.8973 1.00343 0.0
H653 H 0.50485 0.90307 0.09587 0.0
H654 H 0.51726 0.92679 0.06955 0.0
H655 H 0.50859 0.90432 0.0108 0.0
H656 H 0.55107 0.9769 0.97189 0.0
H657 H 0.53467 0.9231 0.82474 0.0
H658 H 0.57939 0.94642 0.07874 0.0
H659 H 0.55027 0.94991 0.10268 0.0
H660 H 0.56526 0.97193 0.07422 0.0
H661 H 0.5603 0.88205 0.89756 0.0
H662 H 0.53893 0.88696 0.83945 0.0
H663 H 0.53095 0.88325 0.92045 0.0
C664 C 0.64042 0.51332 0.16458 0.0
C665 C 0.65576 0.49596 0.16537 0.0
C666 C 0.62305 0.5125 0.1176 0.0
C667 C 0.62102 0.49404 0.06904 0.0
C668 C 0.63608 0.47629 0.07017 0.0
C669 C 0.65304 0.47737 0.11841 0.0
C670 C 0.60721 0.53169 0.119 0.0
C671 C 0.63469 0.45632 0.01928 0.0
C672 C 0.56563 0.48463 0.972 0.0
C673 C 0.57077 0.49341 0.91545 0.0
C674 C 0.5817 0.4848 0.02233 0.0
C675 C 0.60367 0.49363 0.01585 0.0
C676 C 0.60905 0.50225 0.95851 0.0
C677 C 0.59254 0.5022 0.90944 0.0
C678 C 0.57504 0.47576 0.08288 0.0
C679 C 0.63233 0.51152 0.94887 0.0
H680 H 0.64237 0.52796 0.19946 0.0
H681 H 0.66436 0.46364 0.11878 0.0
H682 H 0.6099 0.53946 0.07508 0.0
H683 H 0.58924 0.52621 0.11834 0.0
H684 H 0.60989 0.54412 0.16248 0.0
H685 H 0.64731 0.44371 0.02749 0.0
H686 H 0.6174 0.44916 0.01873 0.0
H687 H 0.63772 0.46091 0.97059 0.0
H688 H 0.54886 0.4779 0.97753 0.0
H689 H 0.59679 0.50893 0.86596 0.0
H690 H 0.57668 0.48859 0.12577 0.0
H691 H 0.58671 0.46234 0.09049 0.0
H692 H 0.5573 0.46952 0.08063 0.0
H693 H 0.63571 0.5255 0.98737 0.0
H694 H 0.63406 0.51708 0.90093 0.0
H695 H 0.64559 0.49909 0.95298 0.0
C696 C 0.99392 0.6077 0.22096 0.0
C697 C 0.97466 0.62129 0.22697 0.0
C698 C 0.9948 0.58892 0.17425 0.0
C699 C 0.97624 0.5838 0.13141 0.0
C700 C 0.95602 0.59623 0.14113 0.0
C701 C 0.95538 0.61468 0.18917 0.0
C702 C 0.01634 0.57552 0.16736 0.0
C703 C 0.93562 0.59093 0.09784 0.0
C704 C 0.99562 0.56064 0.96175 0.0
C705 C 0.99137 0.53836 0.959 0.0
C706 C 0.98972 0.57556 0.01643 0.0
C707 C 0.97959 0.56807 0.07059 0.0
C708 C 0.97427 0.54568 0.06711 0.0
C709 C 0.98016 0.53108 0.01116 0.0
C710 C 0.99501 0.59935 0.01687 0.0
C711 C 0.9635 0.53671 0.12312 0.0
H712 H 1.00898 0.61245 0.24955 0.0
H713 H 0.9401 0.62456 0.1948 0.0
H714 H 0.01221 0.55793 0.16129 0.0
H715 H 0.0257 0.57857 0.1234 0.0
H716 H 0.02775 0.57954 0.20996 0.0
H717 H 0.92037 0.60056 0.1159 0.0
H718 H 0.93962 0.59425 0.04826 0.0
H719 H 0.93152 0.57342 0.09413 0.0
H720 H 1.00388 0.56648 0.92121 0.0
H721 H 0.97669 0.51388 0.00936 0.0
H722 H 1.0083 0.60463 0.05368 0.0
H723 H 0.97961 0.60937 0.03037 0.0
H724 H 1.00117 0.60275 0.96905 0.0
H725 H 0.97715 0.53091 0.15311 0.0
H726 H 0.95239 0.5226 0.1054 0.0
H727 H 0.95331 0.54907 0.15467 0.0
C728 C 0.01455 0.16471 0.44561 0.0
C729 C 1.00965 0.18661 0.46825 0.0
C730 C 1.00623 0.14814 0.47756 0.0
C731 C 0.99244 0.15354 0.53326 0.0
C732 C 0.98732 0.17557 0.55647 0.0
C733 C 0.99604 0.1919 0.52366 0.0
C734 C 0.01217 0.12481 0.45145 0.0
C735 C 0.97259 0.18184 0.61562 0.0
C736 C 0.95754 0.10567 0.56878 0.0
C737 C 0.9715 0.09735 0.61367 0.0
C738 C 0.96334 0.12493 0.54536 0.0
C739 C 0.98371 0.13587 0.56688 0.0
C740 C 0.99723 0.12813 0.61467 0.0
C741 C 0.9909 0.109 0.63772 0.0
C742 C 0.9484 0.13283 0.49481 0.0
C743 C 0.01915 0.13928 0.63842 0.0
H744 H 0.02459 0.16045 0.40195 0.0
H745 H 0.99229 0.20881 0.5415 0.0
H746 H 0.02094 0.11715 0.48938 0.0
H747 H 0.99641 0.11538 0.43812 0.0
H748 H 0.02337 0.12343 0.4081 0.0
H749 H 0.96994 0.1997 0.62685 0.0
H750 H 0.95575 0.1738 0.60813 0.0
H751 H 0.98053 0.17613 0.65829 0.0
H752 H 0.9424 0.0968 0.55072 0.0
H753 H 1.00188 0.10251 0.67199 0.0
H754 H 0.9572 0.13014 0.4472 0.0
H755 H 0.9452 0.15055 0.50729 0.0
H756 H 0.9318 0.12422 0.48957 0.0
H757 H 0.03124 0.13896 0.59742 0.0
H758 H 0.02744 0.13141 0.67674 0.0
H759 H 0.01584 0.15658 0.65793 0.0
C760 C 0.32481 0.03108 0.52338 0.0
C761 C 0.32705 0.05123 0.50127 0.0
C762 C 0.34359 0.02066 0.54592 0.0
C763 C 0.36521 0.03057 0.54624 0.0
C764 C 0.36721 0.05198 0.53166 0.0
C765 C 0.34802 0.06212 0.50927 0.0
C766 C 0.34067 0.99792 0.56197 0.0
C767 C 0.38993 0.06334 0.53384 0.0
C768 C 0.41162 0.99819 0.61351 0.0
C769 C 0.4196 0.98544 0.55668 0.0
C770 C 0.39489 0.01409 0.6109 0.0
C771 C 0.38569 0.01693 0.55011 0.0
C772 C 0.39428 0.00458 0.49244 0.0
C773 C 0.41128 0.98906 0.49647 0.0
C774 C 0.38656 0.02719 0.67334 0.0
C775 C 0.38482 0.00708 0.4266 0.0
H776 H 0.30888 0.02226 0.51731 0.0
H777 H 0.34983 0.07794 0.49405 0.0
H778 H 0.34808 0.98604 0.52242 0.0
H779 H 0.34978 0.99607 0.60735 0.0
H780 H 0.32247 0.99372 0.5676 0.0
H781 H 0.38791 0.08119 0.53575 0.0
H782 H 0.40004 0.06017 0.57638 0.0
H783 H 0.39977 0.05702 0.4896 0.0
H784 H 0.41855 0.99577 0.66011 0.0
H785 H 0.41764 0.97931 0.45264 0.0
H786 H 0.37042 0.02011 0.68811 0.0
H787 H 0.3831 0.0443 0.66716 0.0
H788 H 0.39907 0.02706 0.71324 0.0
H789 H 0.36667 0.0021 0.42372 0.0
H790 H 0.39422 0.9971 0.38647 0.0
H791 H 0.38557 0.02435 0.41922 0.0
C792 C 0.53965 0.32624 0.60601 0.0
C793 C 0.51639 0.32151 0.59678 0.0
C794 C 0.54692 0.34696 0.63483 0.0
C795 C 0.53057 0.36346 0.65301 0.0
C796 C 0.50708 0.35848 0.64699 0.0
C797 C 0.50031 0.33748 0.62009 0.0
C798 C 0.57208 0.35144 0.64299 0.0
C799 C 0.48904 0.37564 0.66568 0.0
C800 C 0.53931 0.41742 0.75961 0.0
C801 C 0.54063 0.43145 0.71317 0.0
C802 C 0.53827 0.39485 0.74085 0.0
C803 C 0.53767 0.38634 0.67404 0.0
C804 C 0.54049 0.40044 0.62713 0.0
C805 C 0.54222 0.42294 0.64747 0.0
C806 C 0.53609 0.38031 0.79231 0.0
C807 C 0.53942 0.39205 0.55541 0.0
H808 H 0.55228 0.31411 0.58807 0.0
H809 H 0.48231 0.33381 0.61513 0.0
H810 H 0.57787 0.36125 0.60588 0.0
H811 H 0.57566 0.36097 0.6913 0.0
H812 H 0.58223 0.33619 0.63751 0.0
H813 H 0.47152 0.36903 0.65831 0.0
H814 H 0.49094 0.38289 0.7173 0.0
H815 H 0.4911 0.38896 0.63623 0.0
H816 H 0.53792 0.4242 0.81052 0.0
H817 H 0.54281 0.43395 0.61182 0.0
H818 H 0.54749 0.36599 0.7813 0.0
H819 H 0.51841 0.37413 0.79312 0.0
H820 H 0.54022 0.38903 0.8414 0.0
H821 H 0.55103 0.37799 0.54282 0.0
H822 H 0.54399 0.40475 0.5255 0.0
H823 H 0.52189 0.38632 0.54242 0.0
C824 C 0.2246 0.49778 0.51974 0.0
C825 C 0.22168 0.47538 0.49915 0.0
C826 C 0.20714 0.5104 0.55157 0.0
C827 C 0.18625 0.5004 0.56257 0.0
C828 C 0.18401 0.47753 0.54829 0.0
C829 C 0.20181 0.46522 0.51649 0.0
C830 C 0.21032 0.53469 0.56816 0.0
C831 C 0.16217 0.46631 0.56201 0.0
C832 C 0.13899 0.53153 0.65895 0.0
C833 C 0.12479 0.53643 0.60903 0.0
C834 C 0.15958 0.52046 0.64499 0.0
C835 C 0.16589 0.51405 0.57954 0.0
C836 C 0.15223 0.52004 0.52907 0.0
C837 C 0.1318 0.53118 0.5445 0.0
C838 C 0.17363 0.51463 0.70047 0.0
C839 C 0.1587 0.51386 0.45859 0.0
H840 H 0.2398 0.5059 0.50633 0.0
H841 H 0.19966 0.44787 0.50187 0.0
H842 H 0.20015 0.543 0.53431 0.0
H843 H 0.20413 0.54055 0.618 0.0
H844 H 0.22843 0.53952 0.56463 0.0
H845 H 0.16405 0.44834 0.55506 0.0
H846 H 0.15648 0.47198 0.61247 0.0
H847 H 0.1486 0.47054 0.529 0.0
H848 H 0.13345 0.53528 0.70891 0.0
H849 H 0.12087 0.53513 0.50601 0.0
H850 H 0.19196 0.51273 0.68814 0.0
H851 H 0.16738 0.499 0.71336 0.0
H852 H 0.17186 0.52722 0.74397 0.0
H853 H 0.17611 0.51974 0.45016 0.0
H854 H 0.14675 0.52067 0.42554 0.0
H855 H 0.15884 0.49589 0.44568 0.0
C856 C 0.02714 0.81225 0.11717 0.0
C857 C 0.0426 0.79505 0.11621 0.0
C858 C 0.03282 0.83079 0.09 0.0
C859 C 0.05436 0.83196 0.06033 0.0
C860 C 0.06962 0.81418 0.05641 0.0
C861 C 0.06364 0.79597 0.08515 0.0
C862 C 0.01619 0.84953 0.09585 0.0
C863 C 0.09247 0.81468 0.02361 0.0
C864 C 0.05873 0.8767 0.95646 0.0
C865 C 0.06902 0.8933 0.99961 0.0
C866 C 0.05502 0.85614 0.97415 0.0
C867 C 0.06125 0.85238 0.03706 0.0
C868 C 0.07234 0.86893 0.08 0.0
C869 C 0.07631 0.8892 0.0604 0.0
C870 C 0.04357 0.83882 0.92651 0.0
C871 C 0.07892 0.86563 0.14784 0.0
H872 H 1.011 0.81168 0.14207 0.0
H873 H 0.07555 0.7826 0.08429 0.0
H874 H 0.02381 0.86403 0.12561 0.0
H875 H 0.01249 0.85393 0.04732 0.0
H876 H 0.99987 0.84572 0.11856 0.0
H877 H 0.10142 0.79878 0.01937 0.0
H878 H 0.09036 0.81914 0.9744 0.0
H879 H 0.10339 0.82727 0.05166 0.0
H880 H 0.05327 0.87994 0.90914 0.0
H881 H 0.08416 0.90216 0.09364 0.0
H882 H 0.02571 0.83681 0.94178 0.0
H883 H 0.05225 0.82292 0.92553 0.0
H884 H 0.04341 0.84303 0.87661 0.0
H885 H 0.06335 0.86326 0.17609 0.0
H886 H 0.08853 0.87968 0.17382 0.0
H887 H 0.08948 0.85078 0.14639 0.0
C888 C 0.71438 0.04216 0.03385 0.0
C889 C 0.73121 0.05642 0.06208 0.0
C890 C 0.69574 0.04986 1.0025 0.0
C891 C 0.69427 0.07232 0.99792 0.0
C892 C 0.71262 0.0863 0.01942 0.0
C893 C 0.73074 0.07826 0.0528 0.0
C894 C 0.67653 0.0343 0.98059 0.0
C895 C 0.71244 0.11001 0.01165 0.0
C896 C 0.64073 0.07955 0.90562 0.0
C897 C 0.62504 0.08256 0.95698 0.0
C898 C 0.66419 0.07921 0.91795 0.0
C899 C 0.67184 0.08125 0.98285 0.0
C900 C 0.65625 0.08703 0.03439 0.0
C901 C 0.63302 0.08791 0.02062 0.0
C902 C 0.68044 0.07446 0.8616 0.0
C903 C 0.66369 0.08964 0.10448 0.0
H904 H 0.71475 0.02528 0.04134 0.0
H905 H 0.74398 0.08922 0.07402 0.0
H906 H 0.6611 0.03907 0.01007 0.0
H907 H 0.67219 0.03496 0.92923 0.0
H908 H 0.68084 0.01722 0.98537 0.0
H909 H 0.73005 0.11608 0.00696 0.0
H910 H 0.70242 0.11288 0.96861 0.0
H911 H 0.70474 0.11968 0.05529 0.0
H912 H 0.63475 0.07569 0.85606 0.0
H913 H 0.62092 0.09106 0.06019 0.0
H914 H 0.69736 0.08193 0.87365 0.0
H915 H 0.6736 0.08054 0.81801 0.0
H916 H 0.6828 0.05662 0.84909 0.0
H917 H 0.66955 0.07372 0.11629 0.0
H918 H 0.64971 0.09569 0.13836 0.0
H919 H 0.67814 0.10113 0.11297 0.0
C920 C 0.55164 0.65475 0.92396 0.0
C921 C 0.53572 0.66995 0.95332 0.0
C922 C 0.54494 0.63375 0.89666 0.0
C923 C 0.52168 0.62789 0.89778 0.0
C924 C 0.50531 0.64359 0.92314 0.0
C925 C 0.51253 0.66442 0.95106 0.0
C926 C 0.56295 0.61749 0.86973 0.0
C927 C 0.4803 0.63808 0.92377 0.0
C928 C 0.50779 0.57479 0.79067 0.0
C929 C 0.50917 0.55999 0.83513 0.0
C930 C 0.51051 0.59718 0.81088 0.0
C931 C 0.51496 0.60488 0.87698 0.0
C932 C 0.51509 0.59014 0.9226 0.0
C933 C 0.51201 0.56785 0.90114 0.0
C934 C 0.50979 0.61243 0.761 0.0
C935 C 0.52 0.59771 0.99347 0.0
H936 H 0.56951 0.65907 0.92426 0.0
H937 H 0.50011 0.67599 0.97396 0.0
H938 H 0.56357 0.60403 0.89907 0.0
H939 H 0.55867 0.61026 0.8193 0.0
H940 H 0.58014 0.62492 0.86989 0.0
H941 H 0.46954 0.65278 0.93686 0.0
H942 H 0.47487 0.62956 0.87562 0.0
H943 H 0.47717 0.6269 0.95955 0.0
H944 H 0.50531 0.56882 0.73961 0.0
H945 H 0.51319 0.55648 0.93561 0.0
H946 H 0.52713 0.6187 0.75398 0.0
H947 H 0.49878 0.62665 0.77797 0.0
H948 H 0.5034 0.60429 0.71334 0.0
H949 H 0.53773 0.60386 0.99905 0.0
H950 H 0.51794 0.58447 0.0233 0.0
H951 H 0.50854 0.61133 0.0128 0.0
C952 C 0.83383 0.5581 0.06265 0.0
C953 C 0.83477 0.56285 0.13064 0.0
C954 C 0.85185 0.54717 0.02756 0.0
C955 C 0.8714 0.54179 0.06129 0.0
C956 C 0.87423 0.55059 0.12732 0.0
C957 C 0.85573 0.56082 0.16163 0.0
C958 C 0.84877 0.53901 0.95626 0.0
C959 C 0.89556 0.54664 0.16416 0.0
C960 C 0.89547 0.48482 0.02523 0.0
C961 C 0.91436 0.48796 0.9874 0.0
C962 C 0.88094 0.50221 0.04739 0.0
C963 C 0.88597 0.5233 0.03286 0.0
C964 C 0.9051 0.52642 0.99406 0.0
C965 C 0.91895 0.50857 0.9712 0.0
C966 C 0.86031 0.49801 0.08695 0.0
C967 C 0.91128 0.54826 0.97598 0.0
H968 H 0.8181 0.56071 0.03773 0.0
H969 H 0.85711 0.56483 0.21385 0.0
H970 H 0.86419 0.54245 0.92888 0.0
H971 H 0.84636 0.5211 0.949 0.0
H972 H 0.8338 0.54653 0.93576 0.0
H973 H 0.89887 0.56044 0.20343 0.0
H974 H 0.89331 0.53178 0.18698 0.0
H975 H 0.91062 0.54427 0.13187 0.0
H976 H 0.89211 0.46876 0.03731 0.0
H977 H 0.93374 0.51081 0.94174 0.0
H978 H 0.84481 0.50484 0.06714 0.0
H979 H 0.86246 0.50617 0.13765 0.0
H980 H 0.85754 0.48039 0.08772 0.0
H981 H 0.90687 0.54837 0.92429 0.0
H982 H 0.92995 0.55091 0.98055 0.0
H983 H 0.9024 0.56202 1.0057 0.0
C984 C 0.05288 0.15201 0.02417 0.0
C985 C 0.05184 0.16961 0.9894 0.0
C986 C 0.04947 0.1306 0.9935 0.0
C987 C 0.04536 0.1265 0.92587 0.0
C988 C 0.04453 0.14419 0.89018 0.0
C989 C 0.04747 0.1656 0.92259 0.0
C990 C 0.04993 0.11236 0.03385 0.0
C991 C 0.0406 0.14048 0.81787 0.0
C992 C 0.05723 0.0679 0.85063 0.0
C993 C 0.03531 0.05886 0.84665 0.0
C994 C 0.06064 0.09015 0.87302 0.0
C995 C 0.04173 0.10364 0.89341 0.0
C996 C 0.01952 0.0947 0.88804 0.0
C997 C 0.01657 0.07251 0.86414 0.0
C998 C 0.08455 0.09912 0.87636 0.0
C999 C 0.9989 0.10834 0.91025 0.0
H1000 H 0.05582 0.15509 0.07607 0.0
H1001 H 0.0466 0.17919 0.89567 0.0
H1002 H 0.03357 0.10336 0.02859 0.0
H1003 H 0.06362 0.10063 0.01646 0.0
H1004 H 0.05281 0.11835 0.08614 0.0
H1005 H 0.04114 0.15585 0.79683 0.0
H1006 H 0.05372 0.12922 0.79365 0.0
H1007 H 0.02382 0.13266 0.80669 0.0
H1008 H 0.07178 0.05755 0.83632 0.0
H1009 H 0.99956 0.06571 0.86121 0.0
H1010 H 0.08963 0.10379 0.92778 0.0
H1011 H 0.08532 0.11399 0.85302 0.0
H1012 H 0.09709 0.08714 0.85241 0.0
H1013 H 0.99984 0.11357 0.96345 0.0
H1014 H 0.98272 0.09934 0.89888 0.0
H1015 H 0.99855 0.12326 0.88712 0.0
C1016 C 0.35607 0.98578 1.00486 0.0
C1017 C 0.34041 0.00188 0.99307 0.0
C1018 C 0.37717 0.98308 0.9721 0.0
C1019 C 0.38319 0.99699 0.92679 0.0
C1020 C 0.36719 0.01274 0.91292 0.0
C1021 C 0.34607 0.01484 0.94553 0.0
C1022 C 0.39341 0.96578 0.98774 0.0
C1023 C 0.37274 0.02802 0.86534 0.0
C1024 C 0.44673 0.00751 0.9047 0.0
C1025 C 0.45166 0.99479 0.84474 0.0
C1026 C 0.42461 0.00848 0.93123 0.0
C1027 C 0.40676 0.99618 0.89781 0.0
C1028 C 0.41159 0.98327 0.8372 0.0
C1029 C 0.43386 0.98287 0.81125 0.0
C1030 C 0.42033 0.02284 0.99517 0.0
C1031 C 0.39327 0.96975 0.79987 0.0
H1032 H 0.35229 0.97573 0.04162 0.0
H1033 H 0.33409 0.02699 0.93433 0.0
H1034 H 0.39957 0.95582 0.94242 0.0
H1035 H 0.4085 0.97356 0.01345 0.0
H1036 H 0.38543 0.95486 0.01877 0.0
H1037 H 0.35814 0.03866 0.85728 0.0
H1038 H 0.38737 0.03845 0.88362 0.0
H1039 H 0.37788 0.01867 0.81808 0.0
H1040 H 0.46017 0.01696 0.93102 0.0
H1041 H 0.43735 0.97298 0.76492 0.0
H1042 H 0.41433 0.01286 0.03162 0.0
H1043 H 0.40672 0.03479 0.98941 0.0
H1044 H 0.43581 0.03184 0.01433 0.0
H1045 H 0.3854 0.95877 0.83085 0.0
H1046 H 0.39995 0.95979 0.75512 0.0
H1047 H 0.37961 0.98048 0.78602 0.0
C1048 C 0.4993 0.30483 0.12687 0.0
C1049 C 0.48494 0.28707 0.10675 0.0
C1050 C 0.49777 0.32401 0.09925 0.0
C1051 C 0.48167 0.32546 0.04957 0.0
C1052 C 0.46756 0.30736 0.02765 0.0
C1053 C 0.46919 0.28846 0.05698 0.0
C1054 C 0.51289 0.343 0.12489 0.0
C1055 C 0.45047 0.30813 0.97402 0.0
C1056 C 0.46218 0.38235 0.02828 0.0
C1057 C 0.47618 0.38697 0.97751 0.0
C1058 C 0.46358 0.36232 0.05153 0.0
C1059 C 0.47909 0.34626 0.02268 0.0
C1060 C 0.49287 0.35056 0.97041 0.0
C1061 C 0.49142 0.37089 0.94894 0.0
C1062 C 0.44875 0.35851 0.10786 0.0
C1063 C 0.50947 0.33384 0.93787 0.0
H1064 H 0.51119 0.30404 0.1662 0.0
H1065 H 0.45808 0.27477 0.04125 0.0
H1066 H 0.52281 0.34823 0.08474 0.0
H1067 H 0.50226 0.35702 0.14629 0.0
H1068 H 0.52494 0.33905 0.16248 0.0
H1069 H 0.4418 0.29226 0.95972 0.0
H1070 H 0.43738 0.32067 0.98991 0.0
H1071 H 0.45901 0.31283 0.93076 0.0
H1072 H 0.45002 0.3944 0.05001 0.0
H1073 H 0.50262 0.37429 0.9105 0.0
H1074 H 0.45959 0.35557 0.14926 0.0
H1075 H 0.43815 0.34379 0.09412 0.0
H1076 H 0.43734 0.37251 0.12433 0.0
H1077 H 0.52297 0.33089 0.9727 0.0
H1078 H 0.51766 0.33904 0.89471 0.0
H1079 H 0.50066 0.31814 0.92257 0.0
C1080 C 0.18906 0.47452 0.94945 0.0
C1081 C 0.19478 0.48732 0.00873 0.0
C1082 C 0.16744 0.47599 0.92078 0.0
C1083 C 0.1509 0.49062 0.95177 0.0
C1084 C 0.15675 0.50401 0.01065 0.0
C1085 C 0.17849 0.5022 0.0383 0.0
C1086 C 0.16216 0.46152 0.85776 0.0
C1087 C 0.13982 0.51992 0.04547 0.0
C1088 C 0.09986 0.50585 0.85256 0.0
C1089 C 0.08246 0.4926 0.87142 0.0
C1090 C 0.12205 0.50553 0.8786 0.0
C1091 C 0.12728 0.49136 0.92387 0.0
C1092 C 0.10984 0.47781 0.94256 0.0
C1093 C 0.08774 0.4787 0.91661 0.0
C1094 C 0.13988 0.52055 0.85822 0.0
C1095 C 0.11455 0.4623 0.99012 0.0
H1096 H 0.20149 0.4632 0.92539 0.0
H1097 H 0.18242 0.51199 0.08442 0.0
H1098 H 0.14764 0.45071 0.86472 0.0
H1099 H 0.15698 0.47154 0.82049 0.0
H1100 H 0.17692 0.45129 0.83904 0.0
H1101 H 0.14736 0.53013 0.08849 0.0
H1102 H 0.13315 0.53073 0.01209 0.0
H1103 H 0.1251 0.51095 0.06167 0.0
H1104 H 0.09607 0.51678 0.8181 0.0
H1105 H 0.07457 0.46832 0.93155 0.0
H1106 H 0.15467 0.51096 0.83678 0.0
H1107 H 0.14619 0.5316 0.90125 0.0
H1108 H 0.13326 0.53056 0.82254 0.0
H1109 H 0.12839 0.45091 0.97142 0.0
H1110 H 0.09929 0.45269 0.99932 0.0
H1111 H 0.12044 0.47147 0.03692 0.0
C1112 C 0.02732 0.8216 0.65145 0.0
C1113 C 1.00798 0.81258 0.61778 0.0
C1114 C 0.0282 0.84373 0.67806 0.0
C1115 C 1.0089 0.85709 0.67376 0.0
C1116 C 0.98863 0.8477 0.64555 0.0
C1117 C 0.98852 0.82575 0.6169 0.0
C1118 C 0.0503 0.85308 0.70694 0.0
C1119 C 0.96733 0.86113 0.64258 0.0
C1120 C 1.00928 0.91332 0.77598 0.0
C1121 C 0.01441 0.92667 0.72937 0.0
C1122 C 1.0069 0.8907 0.75856 0.0
C1123 C 1.01055 0.88114 0.69334 0.0
C1124 C 0.01602 0.89458 0.6463 0.0
C1125 C 0.01745 0.91723 0.66469 0.0
C1126 C 1.00017 0.87712 0.80971 0.0
C1127 C 0.02086 0.88501 0.57672 0.0
H1128 H 0.04223 0.81159 0.65492 0.0
H1129 H 0.97344 0.81933 0.591 0.0
H1130 H 0.05707 0.86493 0.67693 0.0
H1131 H 0.04748 0.86202 0.75642 0.0
H1132 H 0.0634 0.84035 0.70957 0.0
H1133 H 0.95214 0.85082 0.62906 0.0
H1134 H 0.96411 0.87137 0.69005 0.0
H1135 H 0.96953 0.87219 0.60603 0.0
H1136 H 1.00679 0.92063 0.82606 0.0
H1137 H 0.0217 0.9275 0.6288 0.0
H1138 H 0.01303 0.86427 0.81295 0.0
H1139 H 0.98379 0.86881 0.79604 0.0
H1140 H 0.99828 0.88703 0.85839 0.0
H1141 H 0.0347 0.87277 0.57487 0.0
H1142 H 0.02594 0.89758 0.5469 0.0
H1143 H 1.00554 0.87651 0.55458 0.0
C1144 C 0.67349 0.00656 0.51533 0.0
C1145 C 0.69286 0.99532 0.532 0.0
C1146 C 0.65256 0.00539 0.54761 0.0
C1147 C 0.65077 0.99291 0.59893 0.0
C1148 C 0.67028 0.98155 0.61622 0.0
C1149 C 0.69097 0.98269 0.58219 0.0
C1150 C 0.63225 0.01745 0.52635 0.0
C1151 C 0.66936 0.96835 0.67119 0.0
C1152 C 0.60055 0.00732 0.71508 0.0
C1153 C 0.58461 0.99106 0.69272 0.0
C1154 C 0.62235 0.00768 0.68673 0.0
C1155 C 0.62839 0.99165 0.63356 0.0
C1156 C 0.61245 0.97507 0.61128 0.0
C1157 C 0.59095 0.97486 0.64138 0.0
C1158 C 0.63882 0.02544 0.71316 0.0
C1159 C 0.61785 0.95787 0.55422 0.0
H1160 H 0.67462 0.01611 0.47606 0.0
H1161 H 0.70583 0.97406 0.59574 0.0
H1162 H 0.61813 0.00589 0.51187 0.0
H1163 H 0.62601 0.02947 0.56729 0.0
H1164 H 0.63628 0.02613 0.48496 0.0
H1165 H 0.6564 0.95533 0.66079 0.0
H1166 H 0.68601 0.96076 0.67952 0.0
H1167 H 0.6641 0.97887 0.71653 0.0
H1168 H 0.59598 0.01985 0.75494 0.0
H1169 H 0.57882 0.96228 0.62332 0.0
H1170 H 0.64212 0.03606 0.67596 0.0
H1171 H 0.65536 0.01827 0.72459 0.0
H1172 H 0.63229 0.03568 0.75763 0.0
H1173 H 0.62064 0.96563 0.51033 0.0
H1174 H 0.604 0.94569 0.54398 0.0
H1175 H 0.63381 0.94927 0.5633 0.0
C1176 C 0.58559 0.70226 0.48635 0.0
C1177 C 0.56739 0.70708 0.44727 0.0
C1178 C 0.58568 0.68317 0.51496 0.0
C1179 C 0.56718 0.66849 0.50401 0.0
C1180 C 0.54832 0.67374 0.46701 0.0
C1181 C 0.54866 0.69292 0.43916 0.0
C1182 C 0.60601 0.67828 0.55463 0.0
C1183 C 0.52827 0.65853 0.45398 0.0
C1184 C 0.57791 0.60833 0.50684 0.0
C1185 C 0.56858 0.60538 0.56678 0.0
C1186 C 0.57781 0.62882 0.48636 0.0
C1187 C 0.56822 0.6469 0.52687 0.0
C1188 C 0.55903 0.6441 0.58782 0.0
C1189 C 0.55927 0.62338 0.60697 0.0
C1190 C 0.58763 0.63105 0.42077 0.0
C1191 C 0.54877 0.66296 0.63259 0.0
H1192 H 0.60004 0.71319 0.49334 0.0
H1193 H 0.53467 0.69625 0.40819 0.0
H1194 H 0.60041 0.67407 0.60199 0.0
H1195 H 0.61528 0.66398 0.52885 0.0
H1196 H 0.61801 0.6922 0.56357 0.0
H1197 H 0.51419 0.66576 0.42873 0.0
H1198 H 0.53379 0.64326 0.42341 0.0
H1199 H 0.52164 0.65412 0.50005 0.0
H1200 H 0.58489 0.59446 0.47522 0.0
H1201 H 0.55233 0.62128 0.65376 0.0
H1202 H 0.6012 0.64358 0.42612 0.0
H1203 H 0.57419 0.63652 0.38949 0.0
H1204 H 0.59491 0.61553 0.39576 0.0
H1205 H 0.56145 0.67622 0.64328 0.0
H1206 H 0.5429 0.6582 0.67911 0.0
H1207 H 0.53407 0.66963 0.60859 0.0
C1208 C 0.8433 0.51043 0.63061 0.0
C1209 C 0.84157 0.50281 0.56381 0.0
C1210 C 0.86396 0.50919 0.66441 0.0
C1211 C 0.88361 0.50031 0.63072 0.0
C1212 C 0.88187 0.49224 0.5636 0.0
C1213 C 0.86096 0.4935 0.53117 0.0
C1214 C 0.86487 0.51772 0.73607 0.0
C1215 C 0.90232 0.48278 0.52545 0.0
C1216 C 0.94265 0.51746 0.69733 0.0
C1217 C 0.9498 0.49919 0.72427 0.0
C1218 C 0.92117 0.51811 0.66751 0.0
C1219 C 0.90616 0.50015 0.66488 0.0
C1220 C 0.91305 0.48186 0.69327 0.0
C1221 C 0.93475 0.48154 0.7221 0.0
C1222 C 0.91468 0.53792 0.63775 0.0
C1223 C 0.8976 0.46246 0.69251 0.0
H1224 H 0.82844 0.51746 0.65657 0.0
H1225 H 0.86002 0.48786 0.47949 0.0
H1226 H 0.87155 0.505 0.7631 0.0
H1227 H 0.87671 0.53173 0.74497 0.0
H1228 H 0.8479 0.52304 0.75602 0.0
H1229 H 0.89806 0.47656 0.47412 0.0
H1230 H 0.9157 0.4954 0.52634 0.0
H1231 H 0.90964 0.46928 0.54801 0.0
H1232 H 0.95404 0.53121 0.69847 0.0
H1233 H 0.93994 0.46735 0.74275 0.0
H1234 H 0.89856 0.54493 0.65938 0.0
H1235 H 0.91169 0.53322 0.58498 0.0
H1236 H 0.92803 0.5507 0.64477 0.0
H1237 H 0.8808 0.46771 0.7136 0.0
H1238 H 0.90484 0.45009 0.72003 0.0
H1239 H 0.89461 0.45471 0.64174 0.0
loop_
_geom_bond_atom_site_label_1
_geom_bond_atom_site_label_2
_geom_bond_distance
_geom_bond_site_symmetry_2
_ccdc_geom_bond_type
C0 C1 1.386 . S
C0 C2 1.397 . S
C0 H24 0.931 . S
C1 C0 1.386 . S
C1 C5 1.397 . S
C2 C0 1.397 . S
C2 C3 1.384 . S
C2 H25 0.930 . S
C3 C2 1.384 . S
C3 C4 1.377 . S
C3 C6 1.481 . S
C4 C3 1.377 . S
C4 C5 1.389 . S
C4 H26 0.929 . S
C5 C1 1.397 . S
C5 C4 1.389 . S
C5 H27 0.931 . S
C6 C3 1.481 . S
C6 C7 1.387 . S
C6 C11 1.390 . S
C7 C6 1.387 . S
C7 C8 1.401 . S
C7 H28 0.930 . S
C8 C7 1.401 . S
C8 C9 1.376 . S
C8 C17 1.511 . S
C9 C8 1.376 . S
C9 C10 1.392 . S
C9 H30 0.931 . S
C10 C9 1.392 . S
C10 C11 1.361 . S
C10 C12 1.500 . S
C11 C6 1.390 . S
C11 C10 1.361 . S
C11 H29 0.931 . S
C12 C10 1.500 . S
C12 C13 1.371 . S
C12 C14 1.365 . S
C13 C12 1.371 . S
C13 C23 1.386 . S
C13 H31 0.931 . S
C14 C12 1.365 . S
C14 C15 1.409 . S
C14 H32 0.929 . S
C15 C14 1.409 . S
C15 C16 1.380 . S
C15 H33 0.930 . S
C16 C15 1.380 . S
C16 C23 1.357 . S
C17 C8 1.511 . S
C17 C18 1.341 . S
C17 C19 1.371 . S
C18 C17 1.341 . S
C18 C22 1.394 . S
C18 H34 0.930 . S
C19 C17 1.371 . S
C19 C20 1.392 . S
C19 H35 0.931 . S
C20 C19 1.392 . S
C20 C21 1.331 . S
C20 H38 0.932 . S
C21 C20 1.331 . S
C21 C22 1.336 . S
C22 C18 1.394 . S
C22 C21 1.336 . S
C22 H37 0.929 . S
C23 C13 1.386 . S
C23 C16 1.357 . S
C23 H36 0.928 . S
H24 C0 0.931 . S
H25 C2 0.930 . S
H26 C4 0.929 . S
H27 C5 0.931 . S
H28 C7 0.930 . S
H29 C11 0.931 . S
H30 C9 0.931 . S
H31 C13 0.931 . S
H32 C14 0.929 . S
H33 C15 0.930 . S
H34 C18 0.930 . S
H35 C19 0.931 . S
H36 C23 0.928 . S
H37 C22 0.929 . S
H38 C20 0.932 . S
C39 C40 1.386 . S
C39 C41 1.397 . S
C39 H63 0.931 . S
C40 C39 1.386 . S
C40 C44 1.397 . S
C41 C39 1.397 . S
C41 C42 1.384 . S
C41 H64 0.930 . S
C42 C41 1.384 . S
C42 C43 1.377 . S
C42 C45 1.481 . S
C43 C42 1.377 . S
C43 C44 1.389 . S
C43 H65 0.929 1_655 S
C44 C40 1.397 . S
C44 C43 1.389 . S
C44 H66 0.931 1_655 S
C45 C42 1.481 . S
C45 C46 1.387 . S
C45 C50 1.390 . S
C46 C45 1.387 . S
C46 C47 1.401 . S
C46 H67 0.930 . S
C47 C46 1.401 . S
C47 C48 1.376 . S
C47 C56 1.511 . S
C48 C47 1.376 . S
C48 C49 1.392 . S
C48 H69 0.931 . S
C49 C48 1.392 . S
C49 C50 1.361 . S
C49 C51 1.500 . S
C50 C45 1.390 . S
C50 C49 1.361 . S
C50 H68 0.931 . S
C51 C49 1.500 . S
C51 C52 1.371 . S
C51 C53 1.365 . S
C52 C51 1.371 . S
C52 C62 1.386 . S
C52 H70 0.931 . S
C53 C51 1.365 . S
C53 C54 1.409 . S
C53 H71 0.951 . S
C54 C53 1.409 . S
C54 C55 1.380 . S
C54 H72 0.930 . S
C55 C54 1.380 . S
C55 C62 1.357 . S
C56 C47 1.511 . S
C56 C57 1.341 . S
C56 C58 1.371 . S
C57 C56 1.341 . S
C57 C61 1.394 . S
C57 H73 0.930 . S
C58 C56 1.371 . S
C58 C59 1.392 . S
C58 H74 0.931 . S
C59 C58 1.392 . S
C59 C60 1.331 . S
C59 H77 0.932 . S
C60 C59 1.331 . S
C60 C61 1.336 . S
C61 C57 1.394 . S
C61 C60 1.336 . S
C61 H76 0.929 . S
C62 C52 1.386 . S
C62 C55 1.357 . S
C62 H75 0.928 . S
H63 C39 0.931 . S
H64 C41 0.930 . S
H65 C43 0.929 1_455 S
H66 C44 0.931 1_455 S
H67 C46 0.930 . S
H68 C50 0.931 . S
H69 C48 0.931 . S
H70 C52 0.931 . S
H71 C53 0.951 . S
H72 C54 0.930 . S
H73 C57 0.930 . S
H74 C58 0.931 . S
H75 C62 0.928 . S
H76 C61 0.929 . S
H77 C59 0.932 . S
C78 C79 1.394 . S
C78 C80 1.397 . S
C78 H102 0.931 . S
C79 C78 1.394 . S
C79 C83 1.390 1_565 S
C80 C78 1.397 . S
C80 C81 1.388 . S
C80 H103 0.930 . S
C81 C80 1.388 . S
C81 C82 1.373 1_565 S
C81 C84 1.478 . S
C82 C81 1.373 1_545 S
C82 C83 1.389 . S
C82 H104 0.929 . S
C83 C79 1.390 1_545 S
C83 C82 1.389 . S
C83 H105 0.931 . S
C84 C81 1.478 . S
C84 C85 1.387 . S
C84 C89 1.393 . S
C85 C84 1.387 . S
C85 C86 1.399 . S
C85 H106 0.930 . S
C86 C85 1.399 . S
C86 C87 1.374 . S
C86 C95 1.511 . S
C87 C86 1.374 . S
C87 C88 1.393 . S
C87 H108 0.939 . S
C88 C87 1.393 . S
C88 C89 1.362 . S
C88 C90 1.503 1_565 S
C89 C84 1.393 . S
C89 C88 1.362 . S
C89 H107 0.931 . S
C90 C88 1.503 1_545 S
C90 C91 1.360 1_545 S
C90 C92 1.373 . S
C91 C90 1.360 1_565 S
C91 C101 1.386 . S
C91 H109 0.931 . S
C92 C90 1.373 . S
C92 C93 1.409 . S
C92 H110 0.929 . S
C93 C92 1.409 . S
C93 C94 1.378 . S
C93 H111 0.930 . S
C94 C93 1.378 . S
C94 C101 1.358 1_545 S
C95 C86 1.511 . S
C95 C96 1.341 . S
C95 C97 1.371 1_565 S
C96 C95 1.341 . S
C96 C100 1.394 . S
C96 H112 0.930 . S
C97 C95 1.371 1_545 S
C97 C98 1.392 . S
C97 H113 0.931 . S
C98 C97 1.392 . S
C98 C99 1.326 1_545 S
C98 H116 0.932 . S
C99 C98 1.326 1_565 S
C99 C100 1.342 . S
C100 C96 1.394 . S
C100 C99 1.342 . S
C100 H115 0.929 . S
C101 C91 1.386 . S
C101 C94 1.358 1_565 S
C101 H114 0.928 . S
H102 C78 0.931 . S
H103 C80 0.930 . S
H104 C82 0.929 . S
H105 C83 0.931 . S
H106 C85 0.930 . S
H107 C89 0.931 . S
H108 C87 0.939 . S
H109 C91 0.931 . S
H110 C92 0.929 . S
H111 C93 0.930 . S
H112 C96 0.930 . S
H113 C97 0.931 . S
H114 C101 0.928 . S
H115 C100 0.929 . S
H116 C98 0.932 . S
C117 C118 1.386 . S
C117 C119 1.397 . S
C117 H141 0.931 . S
C118 C117 1.386 . S
C118 C122 1.397 . S
C119 C117 1.397 . S
C119 C120 1.384 . S
C119 H142 0.930 . S
C120 C119 1.384 . S
C120 C121 1.377 . S
C120 C123 1.481 . S
C121 C120 1.377 . S
C121 C122 1.389 . S
C121 H143 0.929 . S
C122 C118 1.397 . S
C122 C121 1.389 . S
C122 H144 0.931 . S
C123 C120 1.481 . S
C123 C124 1.387 . S
C123 C128 1.390 . S
C124 C123 1.387 . S
C124 C125 1.401 1_554 S
C124 H145 0.930 . S
C125 C124 1.401 1_556 S
C125 C126 1.376 . S
C125 C134 1.511 . S
C126 C125 1.376 . S
C126 C127 1.392 . S
C126 H147 0.931 . S
C127 C126 1.392 . S
C127 C128 1.361 1_556 S
C127 C129 1.500 . S
C128 C123 1.390 . S
C128 C127 1.361 1_554 S
C128 H146 0.931 . S
C129 C127 1.500 . S
C129 C130 1.371 . S
C129 C131 1.365 . S
C130 C129 1.371 . S
C130 C140 1.386 . S
C130 H148 0.931 . S
C131 C129 1.365 . S
C131 C132 1.409 . S
C131 H149 0.929 . S
C132 C131 1.409 . S
C132 C133 1.380 . S
C132 H150 0.930 . S
C133 C132 1.380 . S
C133 C140 1.357 . S
C134 C125 1.511 . S
C134 C135 1.341 1_556 S
C134 C136 1.371 . S
C135 C134 1.341 1_554 S
C135 C139 1.394 . S
C135 H151 0.930 . S
C136 C134 1.371 . S
C136 C137 1.392 . S
C136 H152 0.931 . S
C137 C136 1.392 . S
C137 C138 1.331 . S
C137 H155 0.932 . S
C138 C137 1.331 . S
C138 C139 1.336 1_556 S
C139 C135 1.394 . S
C139 C138 1.336 1_554 S
C139 H154 0.929 . S
C140 C130 1.386 . S
C140 C133 1.357 . S
C140 H153 0.928 . S
H141 C117 0.931 . S
H142 C119 0.930 . S
H143 C121 0.929 . S
H144 C122 0.931 . S
H145 C124 0.930 . S
H146 C128 0.931 . S
H147 C126 0.931 . S
H148 C130 0.931 . S
H149 C131 0.929 . S
H150 C132 0.930 . S
H151 C135 0.930 . S
H152 C136 0.931 . S
H153 C140 0.928 . S
H154 C139 0.929 . S
H155 C137 0.932 . S
C156 C157 1.386 . S
C156 C158 1.397 . S
C156 H180 0.931 . S
C157 C156 1.386 . S
C157 C161 1.397 . S
C158 C156 1.397 . S
C158 C159 1.384 . S
C158 H181 0.930 . S
C159 C158 1.384 . S
C159 C160 1.377 . S
C159 C162 1.481 . S
C160 C159 1.377 . S
C160 C161 1.389 . S
C160 H182 0.929 . S
C161 C157 1.397 . S
C161 C160 1.389 . S
C161 H183 0.931 . S
C162 C159 1.481 . S
C162 C163 1.387 . S
C162 C167 1.390 . S
C163 C162 1.387 . S
C163 C164 1.401 . S
C163 H184 0.930 . S
C164 C163 1.401 . S
C164 C165 1.376 . S
C164 C173 1.511 . S
C165 C164 1.376 . S
C165 C166 1.392 . S
C165 H186 0.931 . S
C166 C165 1.392 . S
C166 C167 1.361 . S
C166 C168 1.500 . S
C167 C162 1.390 . S
C167 C166 1.361 . S
C167 H185 0.931 . S
C168 C166 1.500 . S
C168 C169 1.371 1_554 S
C168 C170 1.365 . S
C169 C168 1.371 1_556 S
C169 C179 1.386 . S
C169 H187 0.931 1_556 S
C170 C168 1.365 . S
C170 C171 1.409 1_554 S
C170 H188 0.929 . S
C171 C170 1.409 1_556 S
C171 C172 1.380 . S
C171 H189 0.930 . S
C172 C171 1.380 . S
C172 C179 1.357 . S
C173 C164 1.511 . S
C173 C174 1.341 . S
C173 C175 1.371 . S
C174 C173 1.341 . S
C174 C178 1.394 . S
C174 H190 0.930 . S
C175 C173 1.371 . S
C175 C176 1.392 . S
C175 H191 0.931 . S
C176 C175 1.392 . S
C176 C177 1.331 . S
C176 H194 0.932 . S
C177 C176 1.331 . S
C177 C178 1.336 . S
C178 C174 1.394 . S
C178 C177 1.336 . S
C178 H193 0.929 . S
C179 C169 1.386 . S
C179 C172 1.357 . S
C179 H192 0.928 . S
H180 C156 0.931 . S
H181 C158 0.930 . S
H182 C160 0.929 . S
H183 C161 0.931 . S
H184 C163 0.930 . S
H185 C167 0.931 . S
H186 C165 0.931 . S
H187 C169 0.931 1_554 S
H188 C170 0.929 . S
H189 C171 0.930 . S
H190 C174 0.930 . S
H191 C175 0.931 . S
H192 C179 0.928 . S
H193 C178 0.929 . S
H194 C176 0.932 . S
C195 C196 1.386 . S
C195 C197 1.397 . S
C195 H219 0.931 . S
C196 C195 1.386 . S
C196 C200 1.397 . S
C197 C195 1.397 . S
C197 C198 1.384 . S
C197 H220 0.930 . S
C198 C197 1.384 . S
C198 C199 1.377 . S
C198 C201 1.481 . S
C199 C198 1.377 . S
C199 C200 1.389 . S
C199 H221 0.929 . S
C200 C196 1.397 . S
C200 C199 1.389 . S
C200 H222 0.931 . S
C201 C198 1.481 . S
C201 C202 1.387 . S
C201 C206 1.390 . S
C202 C201 1.387 . S
C202 C203 1.401 . S
C202 H223 0.930 . S
C203 C202 1.401 . S
C203 C204 1.376 . S
C203 C212 1.511 . S
C204 C203 1.376 . S
C204 C205 1.392 . S
C204 H225 0.931 . S
C205 C204 1.392 . S
C205 C206 1.361 . S
C205 C207 1.500 . S
C206 C201 1.390 . S
C206 C205 1.361 . S
C206 H224 0.931 . S
C207 C205 1.500 . S
C207 C208 1.371 . S
C207 C209 1.365 . S
C208 C207 1.371 . S
C208 C218 1.386 1_554 S
C208 H226 0.931 . S
C209 C207 1.365 . S
C209 C210 1.409 1_554 S
C209 H227 0.929 . S
C210 C209 1.409 1_556 S
C210 C211 1.380 . S
C210 H228 0.930 . S
C211 C210 1.380 . S
C211 C218 1.357 . S
C212 C203 1.511 . S
C212 C213 1.341 . S
C212 C214 1.371 . S
C213 C212 1.341 . S
C213 C217 1.394 . S
C213 H229 0.930 . S
C214 C212 1.371 . S
C214 C215 1.392 . S
C214 H230 0.931 . S
C215 C214 1.392 . S
C215 C216 1.331 . S
C215 H233 0.932 . S
C216 C215 1.331 . S
C216 C217 1.336 . S
C217 C213 1.394 . S
C217 C216 1.336 . S
C217 H232 0.929 . S
C218 C208 1.386 1_556 S
C218 C211 1.357 . S
C218 H231 0.928 . S
H219 C195 0.931 . S
H220 C197 0.930 . S
H221 C199 0.929 . S
H222 C200 0.931 . S
H223 C202 0.930 . S
H224 C206 0.931 . S
H225 C204 0.931 . S
H226 C208 0.931 . S
H227 C209 0.929 . S
H228 C210 0.930 . S
H229 C213 0.930 . S
H230 C214 0.931 . S
H231 C218 0.928 . S
H232 C217 0.929 . S
H233 C215 0.932 . S
C234 C235 1.387 . S
C234 C236 1.397 . S
C234 H258 0.931 . S
C235 C234 1.387 . S
C235 C239 1.396 1_565 S
C236 C234 1.397 . S
C236 C237 1.381 . S
C236 H259 0.930 . S
C237 C236 1.381 . S
C237 C238 1.380 1_565 S
C237 C240 1.483 . S
C238 C237 1.380 1_545 S
C238 C239 1.389 . S
C238 H260 0.929 . S
C239 C235 1.396 1_545 S
C239 C238 1.389 . S
C239 H261 0.931 . S
C240 C237 1.483 . S
C240 C241 1.389 . S
C240 C245 1.387 . S
C241 C240 1.389 . S
C241 C242 1.404 . S
C241 H262 0.930 . S
C242 C241 1.404 . S
C242 C243 1.378 . S
C242 C251 1.513 . S
C243 C242 1.378 . S
C243 C244 1.390 1_565 S
C243 H264 0.929 . S
C244 C243 1.390 1_545 S
C244 C245 1.361 1_545 S
C244 C246 1.494 . S
C245 C240 1.387 . S
C245 C244 1.361 1_565 S
C245 H263 0.931 . S
C246 C244 1.494 . S
C246 C247 1.361 1_544 S
C246 C248 1.382 . S
C247 C246 1.361 1_566 S
C247 C257 1.386 . S
C247 H265 0.931 1_556 S
C248 C246 1.382 . S
C248 C249 1.409 1_554 S
C248 H266 0.929 . S
C249 C248 1.409 1_556 S
C249 C250 1.383 . S
C249 H267 0.930 . S
C250 C249 1.383 . S
C250 C257 1.353 1_545 S
C251 C242 1.513 . S
C251 C252 1.341 . S
C251 C253 1.371 1_565 S
C252 C251 1.341 . S
C252 C256 1.394 . S
C252 H268 0.930 . S
C253 C251 1.371 1_545 S
C253 C254 1.392 . S
C253 H269 0.931 . S
C254 C253 1.392 . S
C254 C255 1.323 1_545 S
C254 H272 0.932 . S
C255 C254 1.323 1_565 S
C255 C256 1.343 . S
C256 C252 1.394 . S
C256 C255 1.343 . S
C256 H271 0.929 . S
C257 C247 1.386 . S
C257 C250 1.353 1_565 S
C257 H270 0.928 . S
H258 C234 0.931 . S
H259 C236 0.930 . S
H260 C238 0.929 . S
H261 C239 0.931 . S
H262 C241 0.930 . S
H263 C245 0.931 . S
H264 C243 0.929 . S
H265 C247 0.931 1_554 S
H266 C248 0.929 . S
H267 C249 0.930 . S
H268 C252 0.930 . S
H269 C253 0.931 . S
H270 C257 0.928 . S
H271 C256 0.929 . S
H272 C254 0.932 . S
C273 C274 1.386 . S
C273 C275 1.397 . S
C273 H297 0.931 . S
C274 C273 1.386 . S
C274 C278 1.397 . S
C275 C273 1.397 . S
C275 C276 1.384 . S
C275 H298 0.930 . S
C276 C275 1.384 . S
C276 C277 1.377 . S
C276 C279 1.481 . S
C277 C276 1.377 . S
C277 C278 1.389 . S
C277 H299 0.929 . S
C278 C274 1.397 . S
C278 C277 1.389 . S
C278 H300 0.931 . S
C279 C276 1.481 . S
C279 C280 1.387 . S
C279 C284 1.390 . S
C280 C279 1.387 . S
C280 C281 1.401 . S
C280 H301 0.930 . S
C281 C280 1.401 . S
C281 C282 1.376 . S
C281 C290 1.511 . S
C282 C281 1.376 . S
C282 C283 1.392 . S
C282 H303 0.931 . S
C283 C282 1.392 . S
C283 C284 1.361 . S
C283 C285 1.500 . S
C284 C279 1.390 . S
C284 C283 1.361 . S
C284 H302 0.931 . S
C285 C283 1.500 . S
C285 C286 1.371 . S
C285 C287 1.365 . S
C286 C285 1.371 . S
C286 C296 1.386 . S
C286 H304 0.931 . S
C287 C285 1.365 . S
C287 C288 1.409 . S
C287 H305 0.929 . S
C288 C287 1.409 . S
C288 C289 1.380 . S
C288 H306 0.930 . S
C289 C288 1.380 . S
C289 C296 1.357 . S
C290 C281 1.511 . S
C290 C291 1.341 . S
C290 C292 1.371 . S
C291 C290 1.341 . S
C291 C295 1.394 . S
C291 H307 0.930 . S
C292 C290 1.371 . S
C292 C293 1.392 . S
C292 H308 0.931 . S
C293 C292 1.392 . S
C293 C294 1.331 . S
C293 H311 0.932 . S
C294 C293 1.331 . S
C294 C295 1.336 . S
C295 C291 1.394 . S
C295 C294 1.336 . S
C295 H310 0.929 . S
C296 C286 1.386 . S
C296 C289 1.357 . S
C296 H309 0.928 . S
H297 C273 0.931 . S
H298 C275 0.930 . S
H299 C277 0.929 . S
H300 C278 0.931 . S
H301 C280 0.930 . S
H302 C284 0.931 . S
H303 C282 0.931 . S
H304 C286 0.931 . S
H305 C287 0.929 . S
H306 C288 0.930 . S
H307 C291 0.930 . S
H308 C292 0.931 . S
H309 C296 0.928 . S
H310 C295 0.929 . S
H311 C293 0.932 . S
Tb312 C321 2.764 . S
Tb312 O322 2.325 1_655 S
Tb312 O325 2.303 1_655 S
Tb312 O329 2.322 1_545 S
Tb312 O330 2.349 . S
Tb312 O333 2.415 1_655 S
Tb312 O334 2.399 . S
Tb313 O323 2.322 1_565 S
Tb313 O324 2.349 . S
Tb313 O326 2.415 . S
Tb313 O327 2.399 . S
Tb313 O328 2.325 . S
Tb313 O331 2.303 1_455 S
Tb313 C342 2.764 . S
C314 O330 1.261 . S
C314 O331 1.257 1_545 S
C315 C318 1.358 . S
C315 C319 1.332 1_655 S
C315 C321 1.504 . S
C316 C317 1.373 . S
C316 C320 1.308 1_655 S
C317 C316 1.373 . S
C317 C318 1.429 . S
C317 H344 0.932 . S
C318 C315 1.358 . S
C318 C317 1.429 . S
C318 H345 0.930 . S
C319 C315 1.332 1_455 S
C319 C320 1.394 . S
C319 H346 0.932 . S
C320 C316 1.308 1_455 S
C320 C319 1.394 . S
C320 H347 0.929 . S
C321 Tb312 2.764 . S
C321 C315 1.504 . S
C321 O333 1.239 1_655 S
C321 O334 1.263 . S
O322 Tb312 2.325 1_455 S
O322 C332 1.236 . S
O323 Tb313 2.322 1_545 S
O323 C332 1.257 . S
O324 Tb313 2.349 . S
O324 C335 1.261 . S
O325 Tb312 2.303 1_455 S
O325 C335 1.257 1_545 S
O326 Tb313 2.415 . S
O326 C342 1.239 . S
O327 Tb313 2.399 . S
O327 C342 1.263 . S
O328 Tb313 2.325 . S
O328 C343 1.236 1_455 S
O329 Tb312 2.322 1_565 S
O329 C343 1.257 . S
O330 Tb312 2.349 . S
O330 C314 1.261 . S
O331 Tb313 2.303 1_655 S
O331 C314 1.257 1_565 S
C332 O322 1.236 . S
C332 O323 1.257 . S
O333 Tb312 2.415 1_455 S
O333 C321 1.239 1_455 S
O334 Tb312 2.399 . S
O334 C321 1.263 . S
C335 O324 1.261 . S
C335 O325 1.257 1_565 S
C336 C339 1.358 . S
C336 C340 1.332 . S
C336 C342 1.504 . S
C337 C338 1.373 . S
C337 C341 1.308 . S
C338 C337 1.373 . S
C338 C339 1.429 . S
C338 H348 0.932 . S
C339 C336 1.358 . S
C339 C338 1.429 . S
C339 H349 0.930 . S
C340 C336 1.332 . S
C340 C341 1.394 . S
C340 H350 0.932 1_455 S
C341 C337 1.308 . S
C341 C340 1.394 . S
C341 H351 0.966 . S
C342 Tb313 2.764 . S
C342 O326 1.239 . S
C342 O327 1.263 . S
C342 C336 1.504 . S
C343 O328 1.236 1_655 S
C343 O329 1.257 . S
H344 C317 0.932 . S
H345 C318 0.930 . S
H346 C319 0.932 . S
H347 C320 0.929 . S
H348 C338 0.932 . S
H349 C339 0.930 . S
H350 C340 0.932 1_655 S
H351 C341 0.966 . S
Tb352 C361 2.764 . S
Tb352 O362 2.325 . S
Tb352 O365 2.303 1_565 S
Tb352 O369 2.322 . S
Tb352 O370 2.349 . S
Tb352 O373 2.415 1_565 S
Tb352 O374 2.399 . S
Tb353 O363 2.322 . S
Tb353 O364 2.349 . S
Tb353 O366 2.415 1_545 S
Tb353 O367 2.399 . S
Tb353 O368 2.325 . S
Tb353 O371 2.303 1_545 S
Tb353 C382 2.764 . S
C354 O370 1.261 . S
C354 O371 1.257 . S
C355 C358 1.358 . S
C355 C359 1.335 1_565 S
C355 C361 1.504 . S
C356 C357 1.373 . S
C356 C360 1.308 . S
C357 C356 1.373 . S
C357 C358 1.429 . S
C357 H384 0.932 . S
C358 C355 1.358 . S
C358 C357 1.429 . S
C358 H385 0.930 . S
C359 C355 1.335 1_545 S
C359 C360 1.394 1_545 S
C359 H386 0.929 . S
C360 C356 1.308 . S
C360 C359 1.394 1_565 S
C360 H387 0.929 1_565 S
C361 Tb352 2.764 . S
C361 C355 1.504 . S
C361 O373 1.239 1_565 S
C361 O374 1.263 . S
O362 Tb352 2.325 . S
O362 C372 1.236 1_565 S
O363 Tb353 2.322 . S
O363 C372 1.257 . S
O364 Tb353 2.349 . S
O364 C375 1.261 . S
O365 Tb352 2.303 1_545 S
O365 C375 1.257 . S
O366 Tb353 2.415 1_565 S
O366 C382 1.239 1_565 S
O367 Tb353 2.399 . S
O367 C382 1.263 . S
O368 Tb353 2.325 . S
O368 C383 1.236 1_545 S
O369 Tb352 2.322 . S
O369 C383 1.257 . S
O370 Tb352 2.349 . S
O370 C354 1.261 . S
O371 Tb353 2.303 1_565 S
O371 C354 1.257 . S
C372 O362 1.236 1_545 S
C372 O363 1.257 . S
O373 Tb352 2.415 1_545 S
O373 C361 1.239 1_545 S
O374 Tb352 2.399 . S
O374 C361 1.263 . S
C375 O364 1.261 . S
C375 O365 1.257 . S
C376 C379 1.358 . S
C376 C380 1.335 . S
C376 C382 1.504 . S
C377 C378 1.373 . S
C377 C381 1.308 1_554 S
C378 C377 1.373 . S
C378 C379 1.429 1_554 S
C378 H388 0.932 . S
C379 C376 1.358 . S
C379 C378 1.429 1_556 S
C379 H389 0.930 . S
C380 C376 1.335 . S
C380 C381 1.394 . S
C380 H390 0.929 1_545 S
C381 C377 1.308 1_556 S
C381 C380 1.394 . S
C381 H391 0.929 1_545 S
C382 Tb353 2.764 . S
C382 O366 1.239 1_545 S
C382 O367 1.263 . S
C382 C376 1.504 . S
C383 O368 1.236 1_565 S
C383 O369 1.257 . S
H384 C357 0.932 . S
H385 C358 0.930 . S
H386 C359 0.929 . S
H387 C360 0.929 1_545 S
H388 C378 0.932 . S
H389 C379 0.930 . S
H390 C380 0.929 1_565 S
H391 C381 0.929 1_565 S
Tb392 C401 2.764 . S
Tb392 O402 2.325 . S
Tb392 O405 2.303 . S
Tb392 O409 2.322 . S
Tb392 O410 2.349 . S
Tb392 O413 2.415 . S
Tb392 O414 2.399 . S
Tb393 O403 2.322 . S
Tb393 O404 2.349 . S
Tb393 O406 2.415 . S
Tb393 O407 2.399 . S
Tb393 O408 2.325 . S
Tb393 O411 2.303 . S
Tb393 C422 2.764 . S
C394 O410 1.261 . S
C394 O411 1.257 . S
C395 C398 1.358 . S
C395 C399 1.332 . S
C395 C401 1.504 . S
C396 C397 1.373 . S
C396 C400 1.308 . S
C397 C396 1.373 . S
C397 C398 1.429 1_554 S
C397 H424 0.932 . S
C398 C395 1.358 . S
C398 C397 1.429 1_556 S
C398 H425 0.930 . S
C399 C395 1.332 . S
C399 C400 1.394 1_556 S
C399 H426 0.932 . S
C400 C396 1.308 . S
C400 C399 1.394 1_554 S
C400 H427 0.929 . S
C401 Tb392 2.764 . S
C401 C395 1.504 . S
C401 O413 1.239 . S
C401 O414 1.263 . S
O402 Tb392 2.325 . S
O402 C412 1.236 . S
O403 Tb393 2.322 . S
O403 C412 1.257 . S
O404 Tb393 2.349 . S
O404 C415 1.261 . S
O405 Tb392 2.303 . S
O405 C415 1.257 . S
O406 Tb393 2.415 . S
O406 C422 1.239 . S
O407 Tb393 2.399 . S
O407 C422 1.263 . S
O408 Tb393 2.325 . S
O408 C423 1.236 . S
O409 Tb392 2.322 . S
O409 C423 1.257 . S
O410 Tb392 2.349 . S
O410 C394 1.261 . S
O411 Tb393 2.303 . S
O411 C394 1.257 . S
C412 O402 1.236 . S
C412 O403 1.257 . S
O413 Tb392 2.415 . S
O413 C401 1.239 . S
O414 Tb392 2.399 . S
O414 C401 1.263 . S
C415 O404 1.261 . S
C415 O405 1.257 . S
C416 C419 1.358 . S
C416 C420 1.332 . S
C416 C422 1.504 . S
C417 C418 1.373 . S
C417 C421 1.308 . S
C418 C417 1.373 . S
C418 C419 1.429 . S
C418 H428 0.932 . S
C419 C416 1.358 . S
C419 C418 1.429 . S
C419 H429 0.930 . S
C420 C416 1.332 . S
C420 C421 1.394 . S
C420 H430 0.932 . S
C421 C417 1.308 . S
C421 C420 1.394 . S
C421 H431 0.929 . S
C422 Tb393 2.764 . S
C422 O406 1.239 . S
C422 O407 1.263 . S
C422 C416 1.504 . S
C423 O408 1.236 . S
C423 O409 1.257 . S
H424 C397 0.932 . S
H425 C398 0.930 . S
H426 C399 0.932 . S
H427 C400 0.929 . S
H428 C418 0.932 . S
H429 C419 0.930 . S
H430 C420 0.932 . S
H431 C421 0.929 . S
Tb432 C441 2.764 . S
Tb432 O442 2.325 . S
Tb432 O445 2.303 . S
Tb432 O449 2.322 1_455 S
Tb432 O450 2.349 . S
Tb432 O453 2.415 . S
Tb432 O454 2.399 . S
Tb433 O443 2.322 1_655 S
Tb433 O444 2.349 1_655 S
Tb433 O446 2.415 . S
Tb433 O447 2.399 . S
Tb433 O448 2.325 . S
Tb433 O451 2.303 1_655 S
Tb433 C462 2.764 . S
C434 O450 1.261 . S
C434 O451 1.257 . S
C435 C438 1.358 . S
C435 C439 1.332 . S
C435 C441 1.504 . S
C436 C437 1.373 . S
C436 C440 1.308 . S
C437 C436 1.373 . S
C437 C438 1.429 . S
C437 H464 0.932 . S
C438 C435 1.358 . S
C438 C437 1.429 . S
C438 H465 0.930 . S
C439 C435 1.332 . S
C439 C440 1.394 . S
C439 H466 0.932 . S
C440 C436 1.308 . S
C440 C439 1.394 . S
C440 H467 0.929 . S
C441 Tb432 2.764 . S
C441 C435 1.504 . S
C441 O453 1.239 . S
C441 O454 1.263 . S
O442 Tb432 2.325 . S
O442 C452 1.236 . S
O443 Tb433 2.322 1_455 S
O443 C452 1.257 . S
O444 Tb433 2.349 1_455 S
O444 C455 1.261 . S
O445 Tb432 2.303 . S
O445 C455 1.257 . S
O446 Tb433 2.415 . S
O446 C462 1.239 . S
O447 Tb433 2.399 . S
O447 C462 1.263 . S
O448 Tb433 2.325 . S
O448 C463 1.236 . S
O449 Tb432 2.322 1_655 S
O449 C463 1.257 . S
O450 Tb432 2.349 . S
O450 C434 1.261 . S
O451 Tb433 2.303 1_455 S
O451 C434 1.257 . S
C452 O442 1.236 . S
C452 O443 1.257 . S
O453 Tb432 2.415 . S
O453 C441 1.239 . S
O454 Tb432 2.399 . S
O454 C441 1.263 . S
C455 O444 1.261 . S
C455 O445 1.257 . S
C456 C459 1.358 . S
C456 C460 1.332 . S
C456 C462 1.504 . S
C457 C458 1.373 . S
C457 C461 1.308 . S
C458 C457 1.373 . S
C458 C459 1.429 . S
C458 H468 0.932 . S
C459 C456 1.358 . S
C459 C458 1.429 . S
C459 H469 0.930 . S
C460 C456 1.332 . S
C460 C461 1.394 . S
C460 H470 0.932 . S
C461 C457 1.308 . S
C461 C460 1.394 . S
C461 H471 0.929 . S
C462 Tb433 2.764 . S
C462 O446 1.239 . S
C462 O447 1.263 . S
C462 C456 1.504 . S
C463 O448 1.236 . S
C463 O449 1.257 . S
H464 C437 0.932 . S
H465 C438 0.930 . S
H466 C439 0.932 . S
H467 C440 0.929 . S
H468 C458 0.932 . S
H469 C459 0.930 . S
H470 C460 0.932 . S
H471 C461 0.929 . S
C472 C473 1.391 . S
C472 C474 1.394 . S
C472 H488 0.931 . S
C473 C472 1.391 . S
C473 C477 1.376 1_545 S
C474 C472 1.394 . S
C474 C475 1.369 . S
C474 C478 1.531 . S
C475 C474 1.369 . S
C475 C476 1.410 1_545 S
C475 C483 1.503 . S
C476 C475 1.410 1_565 S
C476 C477 1.392 . S
C476 C479 1.511 . S
C477 C473 1.376 1_565 S
C477 C476 1.392 . S
C477 H489 0.929 . S
C478 C474 1.531 . S
C478 H490 0.960 . S
C478 H491 0.962 . S
C478 H492 0.960 . S
C479 C476 1.511 . S
C479 H493 0.961 . S
C479 H494 0.961 . S
C479 H495 0.961 . S
C480 C481 1.341 1_565 S
C480 C482 1.363 . S
C480 H496 0.931 . S
C481 C480 1.341 1_545 S
C481 C485 1.449 . S
C482 C480 1.363 . S
C482 C483 1.370 1_565 S
C482 C486 1.524 . S
C483 C475 1.503 . S
C483 C482 1.370 1_545 S
C483 C484 1.403 . S
C484 C483 1.403 . S
C484 C485 1.404 . S
C484 C487 1.539 . S
C485 C481 1.449 . S
C485 C484 1.404 . S
C485 H497 0.930 . S
C486 C482 1.524 . S
C486 H498 0.956 . S
C486 H499 0.961 . S
C486 H500 0.961 . S
C487 C484 1.539 . S
C487 H501 0.958 . S
C487 H502 0.961 . S
C487 H503 0.960 . S
H488 C472 0.931 . S
H489 C477 0.929 . S
H490 C478 0.960 . S
H491 C478 0.962 . S
H492 C478 0.960 . S
H493 C479 0.961 . S
H494 C479 0.961 . S
H495 C479 0.961 . S
H496 C480 0.931 . S
H497 C485 0.930 . S
H498 C486 0.956 . S
H499 C486 0.961 . S
H500 C486 0.961 . S
H501 C487 0.958 . S
H502 C487 0.961 . S
H503 C487 0.960 . S
C504 C505 1.391 . S
C504 C506 1.394 . S
C504 H520 0.931 . S
C505 C504 1.391 . S
C505 C509 1.376 . S
C506 C504 1.394 . S
C506 C507 1.369 . S
C506 C510 1.531 . S
C507 C506 1.369 . S
C507 C508 1.410 . S
C507 C515 1.503 . S
C508 C507 1.410 . S
C508 C509 1.392 . S
C508 C511 1.511 . S
C509 C505 1.376 . S
C509 C508 1.392 . S
C509 H521 0.929 . S
C510 C506 1.531 . S
C510 H522 0.960 . S
C510 H523 0.962 . S
C510 H524 0.960 . S
C511 C508 1.511 . S
C511 H525 0.961 . S
C511 H526 0.961 . S
C511 H527 0.961 . S
C512 C513 1.370 . S
C512 C514 1.363 . S
C512 H528 0.931 . S
C513 C512 1.370 . S
C513 C517 1.408 . S
C514 C512 1.363 . S
C514 C515 1.370 . S
C514 C518 1.524 . S
C515 C507 1.503 . S
C515 C514 1.370 . S
C515 C516 1.403 . S
C516 C515 1.403 . S
C516 C517 1.404 . S
C516 C519 1.539 . S
C517 C513 1.408 . S
C517 C516 1.404 . S
C517 H529 0.930 . S
C518 C514 1.524 . S
C518 H530 0.956 . S
C518 H531 0.961 . S
C518 H532 0.961 . S
C519 C516 1.539 . S
C519 H533 0.958 . S
C519 H534 0.961 . S
C519 H535 0.960 . S
H520 C504 0.931 . S
H521 C509 0.929 . S
H522 C510 0.960 . S
H523 C510 0.962 . S
H524 C510 0.960 . S
H525 C511 0.961 . S
H526 C511 0.961 . S
H527 C511 0.961 . S
H528 C512 0.931 . S
H529 C517 0.930 . S
H530 C518 0.956 . S
H531 C518 0.961 . S
H532 C518 0.961 . S
H533 C519 0.958 . S
H534 C519 0.961 . S
H535 C519 0.960 . S
C536 C537 1.391 . S
C536 C538 1.394 . S
C536 H552 0.931 . S
C537 C536 1.391 . S
C537 C541 1.376 . S
C538 C536 1.394 . S
C538 C539 1.369 . S
C538 C542 1.531 . S
C539 C538 1.369 . S
C539 C540 1.410 . S
C539 C547 1.503 . S
C540 C539 1.410 . S
C540 C541 1.392 . S
C540 C543 1.511 . S
C541 C537 1.376 . S
C541 C540 1.392 . S
C541 H553 0.929 . S
C542 C538 1.531 . S
C542 H554 0.960 . S
C542 H555 0.962 . S
C542 H556 0.960 . S
C543 C540 1.511 . S
C543 H557 0.961 . S
C543 H558 0.961 . S
C543 H559 0.961 . S
C544 C545 1.370 . S
C544 C546 1.363 . S
C544 H560 0.931 . S
C545 C544 1.370 . S
C545 C549 1.408 . S
C546 C544 1.363 . S
C546 C547 1.370 . S
C546 C550 1.524 . S
C547 C539 1.503 . S
C547 C546 1.370 . S
C547 C548 1.403 . S
C548 C547 1.403 . S
C548 C549 1.404 . S
C548 C551 1.539 . S
C549 C545 1.408 . S
C549 C548 1.404 . S
C549 H561 0.930 . S
C550 C546 1.524 . S
C550 H562 0.956 . S
C550 H563 0.961 . S
C550 H564 0.961 . S
C551 C548 1.539 . S
C551 H565 0.958 . S
C551 H566 0.961 . S
C551 H567 0.960 . S
H552 C536 0.931 . S
H553 C541 0.929 . S
H554 C542 0.960 . S
H555 C542 0.962 . S
H556 C542 0.960 . S
H557 C543 0.961 . S
H558 C543 0.961 . S
H559 C543 0.961 . S
H560 C544 0.931 . S
H561 C549 0.930 . S
H562 C550 0.956 . S
H563 C550 0.961 . S
H564 C550 0.961 . S
H565 C551 0.958 . S
H566 C551 0.961 . S
H567 C551 0.960 . S
C568 C569 1.391 . S
C568 C570 1.394 . S
C568 H584 0.931 . S
C569 C568 1.391 . S
C569 C573 1.376 . S
C570 C568 1.394 . S
C570 C571 1.369 . S
C570 C574 1.531 1_455 S
C571 C570 1.369 . S
C571 C572 1.410 . S
C571 C579 1.503 . S
C572 C571 1.410 . S
C572 C573 1.392 . S
C572 C575 1.511 . S
C573 C569 1.376 . S
C573 C572 1.392 . S
C573 H585 0.929 . S
C574 C570 1.531 1_655 S
C574 H586 0.960 . S
C574 H587 0.962 . S
C574 H588 0.960 . S
C575 C572 1.511 . S
C575 H589 0.961 . S
C575 H590 0.961 . S
C575 H591 0.961 . S
C576 C577 1.370 . S
C576 C578 1.363 . S
C576 H592 0.931 . S
C577 C576 1.370 . S
C577 C581 1.408 . S
C578 C576 1.363 . S
C578 C579 1.370 . S
C578 C582 1.524 . S
C579 C571 1.503 . S
C579 C578 1.370 . S
C579 C580 1.403 . S
C580 C579 1.403 . S
C580 C581 1.404 . S
C580 C583 1.539 . S
C581 C577 1.408 . S
C581 C580 1.404 . S
C581 H593 0.930 . S
C582 C578 1.524 . S
C582 H594 0.956 . S
C582 H595 0.961 . S
C582 H596 0.961 . S
C583 C580 1.539 . S
C583 H597 0.958 . S
C583 H598 0.961 . S
C583 H599 0.960 . S
H584 C568 0.931 . S
H585 C573 0.929 . S
H586 C574 0.960 . S
H587 C574 0.962 . S
H588 C574 0.960 . S
H589 C575 0.961 . S
H590 C575 0.961 . S
H591 C575 0.961 . S
H592 C576 0.931 . S
H593 C581 0.930 . S
H594 C582 0.956 . S
H595 C582 0.961 . S
H596 C582 0.961 . S
H597 C583 0.958 . S
H598 C583 0.961 . S
H599 C583 0.960 . S
C600 C601 1.391 . S
C600 C602 1.394 . S
C600 H616 0.931 . S
C601 C600 1.391 . S
C601 C605 1.376 1_545 S
C602 C600 1.394 . S
C602 C603 1.369 . S
C602 C606 1.531 . S
C603 C602 1.369 . S
C603 C604 1.406 1_545 S
C603 C611 1.503 . S
C604 C603 1.406 1_565 S
C604 C605 1.394 . S
C604 C607 1.513 . S
C605 C601 1.376 1_565 S
C605 C604 1.394 . S
C605 H617 0.929 . S
C606 C602 1.531 . S
C606 H618 0.960 . S
C606 H619 0.962 . S
C606 H620 0.960 . S
C607 C604 1.513 . S
C607 H621 0.961 . S
C607 H622 0.961 . S
C607 H623 0.961 1_565 S
C608 C609 1.341 1_565 S
C608 C610 1.363 1_556 S
C608 H624 0.931 . S
C609 C608 1.341 1_545 S
C609 C613 1.436 . S
C610 C608 1.363 1_554 S
C610 C611 1.370 1_565 S
C610 C614 1.524 . S
C611 C603 1.503 . S
C611 C610 1.370 1_545 S
C611 C612 1.403 . S
C612 C611 1.403 . S
C612 C613 1.404 1_554 S
C612 C615 1.539 . S
C613 C609 1.436 . S
C613 C612 1.404 1_556 S
C613 H625 0.930 . S
C614 C610 1.524 . S
C614 H626 0.956 . S
C614 H627 0.961 . S
C614 H628 0.961 1_554 S
C615 C612 1.539 . S
C615 H629 0.958 . S
C615 H630 0.961 . S
C615 H631 0.960 . S
H616 C600 0.931 . S
H617 C605 0.929 . S
H618 C606 0.960 . S
H619 C606 0.962 . S
H620 C606 0.960 . S
H621 C607 0.961 . S
H622 C607 0.961 . S
H623 C607 0.961 1_545 S
H624 C608 0.931 . S
H625 C613 0.930 . S
H626 C614 0.956 . S
H627 C614 0.961 . S
H628 C614 0.961 1_556 S
H629 C615 0.958 . S
H630 C615 0.961 . S
H631 C615 0.960 . S
C632 C633 1.391 . S
C632 C634 1.394 . S
C632 H648 0.931 . S
C633 C632 1.391 . S
C633 C637 1.376 . S
C634 C632 1.394 . S
C634 C635 1.369 . S
C634 C638 1.531 . S
C635 C634 1.369 . S
C635 C636 1.410 . S
C635 C643 1.503 . S
C636 C635 1.410 . S
C636 C637 1.392 . S
C636 C639 1.511 . S
C637 C633 1.376 . S
C637 C636 1.392 . S
C637 H649 0.929 . S
C638 C634 1.531 . S
C638 H650 0.960 . S
C638 H651 0.962 . S
C638 H652 0.960 . S
C639 C636 1.511 . S
C639 H653 0.961 . S
C639 H654 0.961 . S
C639 H655 0.961 . S
C640 C641 1.370 . S
C640 C642 1.363 . S
C640 H656 0.931 . S
C641 C640 1.370 . S
C641 C645 1.408 . S
C642 C640 1.363 . S
C642 C643 1.370 . S
C642 C646 1.524 . S
C643 C635 1.503 . S
C643 C642 1.370 . S
C643 C644 1.403 . S
C644 C643 1.403 . S
C644 C645 1.404 . S
C644 C647 1.539 . S
C645 C641 1.408 . S
C645 C644 1.404 . S
C645 H657 0.930 . S
C646 C642 1.524 . S
C646 H658 0.956 . S
C646 H659 0.961 . S
C646 H660 0.961 . S
C647 C644 1.539 . S
C647 H661 0.958 . S
C647 H662 0.961 . S
C647 H663 0.960 . S
H648 C632 0.931 . S
H649 C637 0.929 . S
H650 C638 0.960 . S
H651 C638 0.962 . S
H652 C638 0.960 . S
H653 C639 0.961 . S
H654 C639 0.961 . S
H655 C639 0.961 . S
H656 C640 0.931 . S
H657 C645 0.930 . S
H658 C646 0.956 . S
H659 C646 0.961 . S
H660 C646 0.961 . S
H661 C647 0.958 . S
H662 C647 0.961 . S
H663 C647 0.960 . S
C664 C665 1.391 . S
C664 C666 1.394 . S
C664 H680 0.931 . S
C665 C664 1.391 . S
C665 C669 1.376 . S
C666 C664 1.394 . S
C666 C667 1.369 . S
C666 C670 1.531 . S
C667 C666 1.369 . S
C667 C668 1.410 . S
C667 C675 1.503 . S
C668 C667 1.410 . S
C668 C669 1.392 . S
C668 C671 1.511 . S
C669 C665 1.376 . S
C669 C668 1.392 . S
C669 H681 0.929 . S
C670 C666 1.531 . S
C670 H682 0.960 . S
C670 H683 0.962 . S
C670 H684 0.960 . S
C671 C668 1.511 . S
C671 H685 0.961 . S
C671 H686 0.961 . S
C671 H687 0.961 . S
C672 C673 1.370 . S
C672 C674 1.363 1_556 S
C672 H688 0.931 . S
C673 C672 1.370 . S
C673 C677 1.408 . S
C674 C672 1.363 1_554 S
C674 C675 1.370 . S
C674 C678 1.524 . S
C675 C667 1.503 . S
C675 C674 1.370 . S
C675 C676 1.403 1_554 S
C676 C675 1.403 1_556 S
C676 C677 1.404 . S
C676 C679 1.539 . S
C677 C673 1.408 . S
C677 C676 1.404 . S
C677 H689 0.930 . S
C678 C674 1.524 . S
C678 H690 0.956 . S
C678 H691 0.961 . S
C678 H692 0.961 . S
C679 C676 1.539 . S
C679 H693 0.958 . S
C679 H694 0.961 . S
C679 H695 0.960 1_556 S
H680 C664 0.931 . S
H681 C669 0.929 . S
H682 C670 0.960 . S
H683 C670 0.962 . S
H684 C670 0.960 . S
H685 C671 0.961 . S
H686 C671 0.961 . S
H687 C671 0.961 . S
H688 C672 0.931 . S
H689 C677 0.930 . S
H690 C678 0.956 . S
H691 C678 0.961 . S
H692 C678 0.961 . S
H693 C679 0.958 . S
H694 C679 0.961 . S
H695 C679 0.960 1_554 S
C696 C697 1.391 1_455 S
C696 C698 1.394 . S
C696 H712 0.931 . S
C697 C696 1.391 1_655 S
C697 C701 1.376 . S
C698 C696 1.394 . S
C698 C699 1.369 1_455 S
C698 C702 1.531 . S
C699 C698 1.369 1_655 S
C699 C700 1.410 . S
C699 C707 1.503 . S
C700 C699 1.410 . S
C700 C701 1.392 . S
C700 C703 1.511 . S
C701 C697 1.376 . S
C701 C700 1.392 . S
C701 H713 0.929 . S
C702 C698 1.531 . S
C702 H714 0.960 . S
C702 H715 0.962 . S
C702 H716 0.960 . S
C703 C700 1.511 . S
C703 H717 0.961 . S
C703 H718 0.961 . S
C703 H719 0.961 . S
C704 C705 1.370 . S
C704 C706 1.361 1_455 S
C704 H720 0.933 . S
C705 C704 1.370 . S
C705 C709 1.405 1_455 S
C706 C704 1.361 1_655 S
C706 C707 1.370 1_556 S
C706 C710 1.524 . S
C707 C699 1.503 . S
C707 C706 1.370 1_554 S
C707 C708 1.403 . S
C708 C707 1.403 . S
C708 C709 1.404 1_554 S
C708 C711 1.539 . S
C709 C705 1.405 1_655 S
C709 C708 1.404 1_556 S
C709 H721 0.930 . S
C710 C706 1.524 . S
C710 H722 0.956 1_656 S
C710 H723 0.961 1_556 S
C710 H724 0.961 . S
C711 C708 1.539 . S
C711 H725 0.958 1_655 S
C711 H726 0.961 . S
C711 H727 0.960 . S
H712 C696 0.931 . S
H713 C701 0.929 . S
H714 C702 0.960 . S
H715 C702 0.962 . S
H716 C702 0.960 . S
H717 C703 0.961 . S
H718 C703 0.961 . S
H719 C703 0.961 . S
H720 C704 0.933 . S
H721 C709 0.930 . S
H722 C710 0.956 1_454 S
H723 C710 0.961 1_554 S
H724 C710 0.961 . S
H725 C711 0.958 1_455 S
H726 C711 0.961 . S
H727 C711 0.960 . S
C728 C729 1.391 . S
C728 C730 1.394 . S
C728 H744 0.931 . S
C729 C728 1.391 . S
C729 C733 1.376 . S
C730 C728 1.394 . S
C730 C731 1.369 . S
C730 C734 1.552 . S
C731 C730 1.369 . S
C731 C732 1.410 . S
C731 C739 1.503 . S
C732 C731 1.410 . S
C732 C733 1.392 . S
C732 C735 1.511 . S
C733 C729 1.376 . S
C733 C732 1.392 . S
C733 H745 0.929 . S
C734 C730 1.552 . S
C734 H746 0.961 . S
C734 H747 0.932 1_455 S
C734 H748 0.968 . S
C735 C732 1.511 . S
C735 H749 0.961 . S
C735 H750 0.961 . S
C735 H751 0.961 . S
C736 C737 1.370 . S
C736 C738 1.363 . S
C736 H752 0.931 . S
C737 C736 1.370 . S
C737 C741 1.408 1_655 S
C738 C736 1.363 . S
C738 C739 1.370 1_655 S
C738 C742 1.524 . S
C739 C731 1.503 . S
C739 C738 1.370 1_455 S
C739 C740 1.403 . S
C740 C739 1.403 . S
C740 C741 1.404 . S
C740 C743 1.539 . S
C741 C737 1.408 1_455 S
C741 C740 1.404 . S
C741 H753 0.930 . S
C742 C738 1.524 . S
C742 H754 0.956 . S
C742 H755 0.961 . S
C742 H756 0.961 . S
C743 C740 1.539 . S
C743 H757 0.958 . S
C743 H758 0.961 . S
C743 H759 0.960 . S
H744 C728 0.931 . S
H745 C733 0.929 . S
H746 C734 0.961 . S
H747 C734 0.932 1_655 S
H748 C734 0.968 . S
H749 C735 0.961 . S
H750 C735 0.961 . S
H751 C735 0.961 . S
H752 C736 0.931 . S
H753 C741 0.930 . S
H754 C742 0.956 . S
H755 C742 0.961 . S
H756 C742 0.961 . S
H757 C743 0.958 . S
H758 C743 0.961 . S
H759 C743 0.960 . S
C760 C761 1.391 1_565 S
C760 C762 1.394 . S
C760 H776 0.931 . S
C761 C760 1.391 1_545 S
C761 C765 1.376 . S
C762 C760 1.394 . S
C762 C763 1.369 . S
C762 C766 1.531 . S
C763 C762 1.369 . S
C763 C764 1.410 1_565 S
C763 C771 1.503 . S
C764 C763 1.410 1_545 S
C764 C765 1.392 . S
C764 C767 1.511 . S
C765 C761 1.376 . S
C765 C764 1.392 . S
C765 H777 0.929 . S
C766 C762 1.531 . S
C766 H778 0.960 . S
C766 H779 0.962 . S
C766 H780 0.960 . S
C767 C764 1.511 . S
C767 H781 0.961 . S
C767 H782 0.942 1_545 S
C767 H783 0.961 . S
C768 C769 1.370 . S
C768 C770 1.363 . S
C768 H784 0.931 . S
C769 C768 1.370 . S
C769 C773 1.408 . S
C770 C768 1.363 . S
C770 C771 1.370 . S
C770 C774 1.524 . S
C771 C763 1.503 . S
C771 C770 1.370 . S
C771 C772 1.403 1_565 S
C772 C771 1.403 1_545 S
C772 C773 1.404 1_545 S
C772 C775 1.539 . S
C773 C769 1.408 . S
C773 C772 1.404 1_565 S
C773 H785 0.930 1_565 S
C774 C770 1.524 . S
C774 H786 0.956 . S
C774 H787 0.961 . S
C774 H788 0.961 . S
C775 C772 1.539 . S
C775 H789 0.958 . S
C775 H790 0.961 . S
C775 H791 0.960 . S
H776 C760 0.931 . S
H777 C765 0.929 . S
H778 C766 0.960 . S
H779 C766 0.962 . S
H780 C766 0.960 . S
H781 C767 0.961 . S
H782 C767 0.942 1_565 S
H783 C767 0.961 . S
H784 C768 0.931 . S
H785 C773 0.930 1_545 S
H786 C774 0.956 . S
H787 C774 0.961 . S
H788 C774 0.961 . S
H789 C775 0.958 . S
H790 C775 0.961 . S
H791 C775 0.960 . S
C792 C793 1.391 . S
C792 C794 1.394 . S
C792 H808 0.931 . S
C793 C792 1.391 . S
C793 C797 1.376 . S
C794 C792 1.394 . S
C794 C795 1.369 . S
C794 C798 1.531 . S
C795 C794 1.369 . S
C795 C796 1.410 . S
C795 C803 1.503 . S
C796 C795 1.410 . S
C796 C797 1.392 . S
C796 C799 1.511 . S
C797 C793 1.376 . S
C797 C796 1.392 . S
C797 H809 0.929 . S
C798 C794 1.531 . S
C798 H810 0.960 . S
C798 H811 0.962 . S
C798 H812 0.960 . S
C799 C796 1.511 . S
C799 H813 0.961 . S
C799 H814 0.961 . S
C799 H815 0.961 . S
C800 C801 1.370 . S
C800 C802 1.363 . S
C800 H816 0.931 . S
C801 C800 1.370 . S
C801 C805 1.408 . S
C802 C800 1.363 . S
C802 C803 1.370 . S
C802 C806 1.524 . S
C803 C795 1.503 . S
C803 C802 1.370 . S
C803 C804 1.403 . S
C804 C803 1.403 . S
C804 C805 1.404 . S
C804 C807 1.539 . S
C805 C801 1.408 . S
C805 C804 1.404 . S
C805 H817 0.930 . S
C806 C802 1.524 . S
C806 H818 0.956 . S
C806 H819 0.961 . S
C806 H820 0.961 . S
C807 C804 1.539 . S
C807 H821 0.958 . S
C807 H822 0.961 . S
C807 H823 0.960 . S
H808 C792 0.931 . S
H809 C797 0.929 . S
H810 C798 0.960 . S
H811 C798 0.962 . S
H812 C798 0.960 . S
H813 C799 0.961 . S
H814 C799 0.961 . S
H815 C799 0.961 . S
H816 C800 0.931 . S
H817 C805 0.930 . S
H818 C806 0.956 . S
H819 C806 0.961 . S
H820 C806 0.961 . S
H821 C807 0.958 . S
H822 C807 0.961 . S
H823 C807 0.960 . S
C824 C825 1.391 . S
C824 C826 1.394 . S
C824 H840 0.931 . S
C825 C824 1.391 . S
C825 C829 1.376 . S
C826 C824 1.394 . S
C826 C827 1.369 . S
C826 C830 1.531 . S
C827 C826 1.369 . S
C827 C828 1.410 . S
C827 C835 1.503 . S
C828 C827 1.410 . S
C828 C829 1.392 . S
C828 C831 1.511 . S
C829 C825 1.376 . S
C829 C828 1.392 . S
C829 H841 0.929 . S
C830 C826 1.531 . S
C830 H842 0.960 . S
C830 H843 0.962 . S
C830 H844 0.960 . S
C831 C828 1.511 . S
C831 H845 0.961 . S
C831 H846 0.961 . S
C831 H847 0.961 . S
C832 C833 1.370 . S
C832 C834 1.363 . S
C832 H848 0.931 . S
C833 C832 1.370 . S
C833 C837 1.408 . S
C834 C832 1.363 . S
C834 C835 1.370 . S
C834 C838 1.524 . S
C835 C827 1.503 . S
C835 C834 1.370 . S
C835 C836 1.403 . S
C836 C835 1.403 . S
C836 C837 1.404 . S
C836 C839 1.539 . S
C837 C833 1.408 . S
C837 C836 1.404 . S
C837 H849 0.930 . S
C838 C834 1.524 . S
C838 H850 0.956 . S
C838 H851 0.961 . S
C838 H852 0.961 . S
C839 C836 1.539 . S
C839 H853 0.958 . S
C839 H854 0.961 . S
C839 H855 0.960 . S
H840 C824 0.931 . S
H841 C829 0.929 . S
H842 C830 0.960 . S
H843 C830 0.962 . S
H844 C830 0.960 . S
H845 C831 0.961 . S
H846 C831 0.961 . S
H847 C831 0.961 . S
H848 C832 0.931 . S
H849 C837 0.930 . S
H850 C838 0.956 . S
H851 C838 0.961 . S
H852 C838 0.961 . S
H853 C839 0.958 . S
H854 C839 0.961 . S
H855 C839 0.960 . S
C856 C857 1.391 . S
C856 C858 1.394 . S
C856 H872 0.931 . S
C857 C856 1.391 . S
C857 C861 1.376 . S
C858 C856 1.394 . S
C858 C859 1.369 1_655 S
C858 C862 1.531 . S
C859 C858 1.369 1_455 S
C859 C860 1.410 . S
C859 C867 1.503 . S
C860 C859 1.410 . S
C860 C861 1.392 1_455 S
C860 C863 1.511 1_554 S
C861 C857 1.376 . S
C861 C860 1.392 1_655 S
C861 H873 0.929 . S
C862 C858 1.531 . S
C862 H874 0.960 1_655 S
C862 H875 0.962 . S
C862 H876 0.960 . S
C863 C860 1.511 1_556 S
C863 H877 0.961 . S
C863 H878 0.961 . S
C863 H879 0.961 . S
C864 C865 1.370 . S
C864 C866 1.363 1_556 S
C864 H880 0.931 . S
C865 C864 1.370 . S
C865 C869 1.408 1_556 S
C866 C864 1.363 1_554 S
C866 C867 1.370 . S
C866 C870 1.524 1_454 S
C867 C859 1.503 . S
C867 C866 1.370 . S
C867 C868 1.403 . S
C868 C867 1.403 . S
C868 C869 1.404 . S
C868 C871 1.539 . S
C869 C865 1.408 1_554 S
C869 C868 1.404 . S
C869 H881 0.930 . S
C870 C866 1.524 1_656 S
C870 H882 0.956 1_556 S
C870 H883 0.961 . S
C870 H884 0.961 . S
C871 C868 1.539 . S
C871 H885 0.958 . S
C871 H886 0.961 . S
C871 H887 0.960 . S
H872 C856 0.931 . S
H873 C861 0.929 . S
H874 C862 0.960 1_455 S
H875 C862 0.962 . S
H876 C862 0.960 . S
H877 C863 0.961 . S
H878 C863 0.961 . S
H879 C863 0.961 . S
H880 C864 0.931 . S
H881 C869 0.930 . S
H882 C870 0.956 1_554 S
H883 C870 0.961 . S
H884 C870 0.961 . S
H885 C871 0.958 . S
H886 C871 0.961 . S
H887 C871 0.960 . S
C888 C889 1.391 . S
C888 C890 1.394 . S
C888 H904 0.931 . S
C889 C888 1.391 . S
C889 C893 1.376 1_565 S
C890 C888 1.394 . S
C890 C891 1.369 1_565 S
C890 C894 1.531 . S
C891 C890 1.369 1_545 S
C891 C892 1.410 . S
C891 C899 1.503 . S
C892 C891 1.410 . S
C892 C893 1.392 . S
C892 C895 1.511 . S
C893 C889 1.376 1_545 S
C893 C892 1.392 . S
C893 H905 0.929 . S
C894 C890 1.531 . S
C894 H906 0.960 . S
C894 H907 0.962 . S
C894 H908 0.960 . S
C895 C892 1.511 . S
C895 H909 0.961 . S
C895 H910 0.961 . S
C895 H911 0.961 . S
C896 C897 1.370 1_556 S
C896 C898 1.363 1_556 S
C896 H912 0.931 . S
C897 C896 1.370 1_554 S
C897 C901 1.408 . S
C898 C896 1.363 1_554 S
C898 C899 1.370 . S
C898 C902 1.524 1_554 S
C899 C891 1.503 . S
C899 C898 1.370 . S
C899 C900 1.403 . S
C900 C899 1.403 . S
C900 C901 1.404 . S
C900 C903 1.539 . S
C901 C897 1.408 . S
C901 C900 1.404 . S
C901 H913 0.930 . S
C902 C898 1.524 1_556 S
C902 H914 0.956 1_545 S
C902 H915 0.957 1_556 S
C902 H916 0.961 . S
C903 C900 1.539 . S
C903 H917 0.958 . S
C903 H918 0.961 . S
C903 H919 0.960 . S
H904 C888 0.931 . S
H905 C893 0.929 . S
H906 C894 0.960 . S
H907 C894 0.962 . S
H908 C894 0.960 . S
H909 C895 0.961 . S
H910 C895 0.961 . S
H911 C895 0.961 . S
H912 C896 0.931 . S
H913 C901 0.930 . S
H914 C902 0.956 1_565 S
H915 C902 0.957 1_554 S
H916 C902 0.961 . S
H917 C903 0.958 . S
H918 C903 0.961 . S
H919 C903 0.960 . S
C920 C921 1.391 . S
C920 C922 1.394 . S
C920 H936 0.931 . S
C921 C920 1.391 . S
C921 C925 1.376 . S
C922 C920 1.394 . S
C922 C923 1.369 . S
C922 C926 1.531 . S
C923 C922 1.369 . S
C923 C924 1.410 . S
C923 C931 1.503 . S
C924 C923 1.410 . S
C924 C925 1.392 . S
C924 C927 1.511 . S
C925 C921 1.376 . S
C925 C924 1.392 . S
C925 H937 0.929 . S
C926 C922 1.531 . S
C926 H938 0.960 . S
C926 H939 0.962 . S
C926 H940 0.960 . S
C927 C924 1.511 . S
C927 H941 0.961 . S
C927 H942 0.961 . S
C927 H943 0.961 . S
C928 C929 1.370 . S
C928 C930 1.363 . S
C928 H944 0.931 . S
C929 C928 1.370 . S
C929 C933 1.408 . S
C930 C928 1.363 . S
C930 C931 1.370 . S
C930 C934 1.524 . S
C931 C923 1.503 . S
C931 C930 1.370 . S
C931 C932 1.403 . S
C932 C931 1.403 . S
C932 C933 1.404 . S
C932 C935 1.539 . S
C933 C929 1.408 . S
C933 C932 1.404 . S
C933 H945 0.930 . S
C934 C930 1.524 . S
C934 H946 0.956 . S
C934 H947 0.961 . S
C934 H948 0.961 . S
C935 C932 1.539 . S
C935 H949 0.958 . S
C935 H950 0.961 . S
C935 H951 0.960 . S
H936 C920 0.931 . S
H937 C925 0.929 . S
H938 C926 0.960 . S
H939 C926 0.962 . S
H940 C926 0.960 . S
H941 C927 0.961 . S
H942 C927 0.961 . S
H943 C927 0.961 . S
H944 C928 0.931 . S
H945 C933 0.930 . S
H946 C934 0.956 . S
H947 C934 0.961 . S
H948 C934 0.961 . S
H949 C935 0.958 . S
H950 C935 0.961 . S
H951 C935 0.960 . S
C952 C953 1.391 . S
C952 C954 1.394 . S
C952 H968 0.931 . S
C953 C952 1.391 . S
C953 C957 1.376 . S
C954 C952 1.394 . S
C954 C955 1.369 . S
C954 C958 1.531 . S
C955 C954 1.369 . S
C955 C956 1.410 . S
C955 C963 1.503 . S
C956 C955 1.410 . S
C956 C957 1.392 . S
C956 C959 1.511 . S
C957 C953 1.376 . S
C957 C956 1.392 . S
C957 H969 0.929 . S
C958 C954 1.531 . S
C958 H970 0.960 . S
C958 H971 0.962 1_554 S
C958 H972 0.960 . S
C959 C956 1.511 . S
C959 H973 0.961 . S
C959 H974 0.961 . S
C959 H975 0.961 . S
C960 C961 1.370 1_556 S
C960 C962 1.361 1_556 S
C960 H976 0.933 . S
C961 C960 1.370 1_554 S
C961 C965 1.408 . S
C962 C960 1.361 1_554 S
C962 C963 1.370 . S
C962 C966 1.524 . S
C963 C955 1.503 . S
C963 C962 1.370 . S
C963 C964 1.403 . S
C964 C963 1.403 . S
C964 C965 1.404 . S
C964 C967 1.539 . S
C965 C961 1.408 . S
C965 C964 1.404 . S
C965 H977 0.930 . S
C966 C962 1.524 . S
C966 H978 0.956 . S
C966 H979 0.961 . S
C966 H980 0.961 . S
C967 C964 1.539 . S
C967 H981 0.958 . S
C967 H982 0.961 . S
C967 H983 0.960 . S
H968 C952 0.931 . S
H969 C957 0.929 . S
H970 C958 0.960 . S
H971 C958 0.962 1_556 S
H972 C958 0.960 . S
H973 C959 0.961 . S
H974 C959 0.961 . S
H975 C959 0.961 . S
H976 C960 0.933 . S
H977 C965 0.930 . S
H978 C966 0.956 . S
H979 C966 0.961 . S
H980 C966 0.961 . S
H981 C967 0.958 . S
H982 C967 0.961 . S
H983 C967 0.960 . S
C984 C985 1.391 . S
C984 C986 1.394 . S
C984 H1000 0.931 . S
C985 C984 1.391 . S
C985 C989 1.376 . S
C986 C984 1.394 . S
C986 C987 1.369 . S
C986 C990 1.531 . S
C987 C986 1.369 . S
C987 C988 1.410 . S
C987 C995 1.503 . S
C988 C987 1.410 . S
C988 C989 1.392 . S
C988 C991 1.511 1_455 S
C989 C985 1.376 . S
C989 C988 1.392 . S
C989 H1001 0.929 . S
C990 C986 1.531 . S
C990 H1002 0.960 . S
C990 H1003 0.962 . S
C990 H1004 0.960 . S
C991 C988 1.511 1_655 S
C991 H1005 0.961 . S
C991 H1006 0.971 . S
C991 H1007 0.961 . S
C992 C993 1.370 . S
C992 C994 1.363 . S
C992 H1008 0.931 . S
C993 C992 1.370 . S
C993 C997 1.408 . S
C994 C992 1.363 . S
C994 C995 1.370 . S
C994 C998 1.524 . S
C995 C987 1.503 . S
C995 C994 1.370 . S
C995 C996 1.403 . S
C996 C995 1.403 . S
C996 C997 1.404 . S
C996 C999 1.539 . S
C997 C993 1.408 . S
C997 C996 1.404 . S
C997 H1009 0.930 . S
C998 C994 1.524 . S
C998 H1010 0.956 . S
C998 H1011 0.961 . S
C998 H1012 0.961 . S
C999 C996 1.539 . S
C999 H1013 0.958 1_556 S
C999 H1014 0.961 1_455 S
C999 H1015 0.960 . S
H1000 C984 0.931 . S
H1001 C989 0.929 . S
H1002 C990 0.960 . S
H1003 C990 0.962 . S
H1004 C990 0.960 . S
H1005 C991 0.961 . S
H1006 C991 0.971 . S
H1007 C991 0.961 . S
H1008 C992 0.931 . S
H1009 C997 0.930 . S
H1010 C998 0.956 . S
H1011 C998 0.961 . S
H1012 C998 0.961 . S
H1013 C999 0.958 1_554 S
H1014 C999 0.961 1_655 S
H1015 C999 0.960 . S
C1016 C1017 1.406 . S
C1016 C1018 1.394 . S
C1016 H1032 0.931 . S
C1017 C1016 1.406 . S
C1017 C1021 1.362 1_565 S
C1018 C1016 1.394 . S
C1018 C1019 1.369 . S
C1018 C1022 1.531 . S
C1019 C1018 1.369 . S
C1019 C1020 1.410 1_565 S
C1019 C1027 1.505 . S
C1020 C1019 1.410 1_545 S
C1020 C1021 1.392 . S
C1020 C1023 1.511 . S
C1021 C1017 1.362 1_545 S
C1021 C1020 1.392 . S
C1021 H1033 0.929 . S
C1022 C1018 1.531 . S
C1022 H1034 0.960 . S
C1022 H1035 0.962 . S
C1022 H1036 0.960 . S
C1023 C1020 1.511 . S
C1023 H1037 0.961 . S
C1023 H1038 0.961 . S
C1023 H1039 0.961 . S
C1024 C1025 1.370 . S
C1024 C1026 1.363 . S
C1024 H1040 0.931 . S
C1025 C1024 1.370 . S
C1025 C1029 1.408 1_545 S
C1026 C1024 1.363 . S
C1026 C1027 1.359 1_545 S
C1026 C1030 1.524 . S
C1027 C1019 1.505 . S
C1027 C1026 1.359 1_565 S
C1027 C1028 1.413 . S
C1028 C1027 1.413 . S
C1028 C1029 1.404 . S
C1028 C1031 1.539 . S
C1029 C1025 1.408 1_565 S
C1029 C1028 1.404 . S
C1029 H1041 0.930 . S
C1030 C1026 1.524 . S
C1030 H1042 0.956 . S
C1030 H1043 0.961 . S
C1030 H1044 0.961 . S
C1031 C1028 1.539 . S
C1031 H1045 0.958 . S
C1031 H1046 0.961 . S
C1031 H1047 0.960 . S
H1032 C1016 0.931 . S
H1033 C1021 0.929 . S
H1034 C1022 0.960 . S
H1035 C1022 0.962 . S
H1036 C1022 0.960 . S
H1037 C1023 0.961 . S
H1038 C1023 0.961 . S
H1039 C1023 0.961 . S
H1040 C1024 0.931 . S
H1041 C1029 0.930 . S
H1042 C1030 0.956 . S
H1043 C1030 0.961 . S
H1044 C1030 0.961 . S
H1045 C1031 0.958 . S
H1046 C1031 0.961 . S
H1047 C1031 0.960 . S
C1048 C1049 1.391 . S
C1048 C1050 1.394 . S
C1048 H1064 0.931 . S
C1049 C1048 1.391 . S
C1049 C1053 1.376 . S
C1050 C1048 1.394 . S
C1050 C1051 1.369 . S
C1050 C1054 1.531 . S
C1051 C1050 1.369 . S
C1051 C1052 1.410 . S
C1051 C1059 1.503 . S
C1052 C1051 1.410 . S
C1052 C1053 1.392 . S
C1052 C1055 1.511 . S
C1053 C1049 1.376 . S
C1053 C1052 1.392 . S
C1053 H1065 0.929 . S
C1054 C1050 1.531 . S
C1054 H1066 0.960 . S
C1054 H1067 0.962 . S
C1054 H1068 0.960 . S
C1055 C1052 1.511 . S
C1055 H1069 0.961 . S
C1055 H1070 0.961 . S
C1055 H1071 0.961 . S
C1056 C1057 1.370 . S
C1056 C1058 1.363 . S
C1056 H1072 0.931 . S
C1057 C1056 1.370 . S
C1057 C1061 1.408 . S
C1058 C1056 1.363 . S
C1058 C1059 1.370 . S
C1058 C1062 1.524 . S
C1059 C1051 1.503 . S
C1059 C1058 1.370 . S
C1059 C1060 1.403 . S
C1060 C1059 1.403 . S
C1060 C1061 1.404 . S
C1060 C1063 1.539 . S
C1061 C1057 1.408 . S
C1061 C1060 1.404 . S
C1061 H1073 0.930 . S
C1062 C1058 1.524 . S
C1062 H1074 0.956 . S
C1062 H1075 0.961 . S
C1062 H1076 0.961 . S
C1063 C1060 1.539 . S
C1063 H1077 0.958 . S
C1063 H1078 0.961 . S
C1063 H1079 0.960 . S
H1064 C1048 0.931 . S
H1065 C1053 0.929 . S
H1066 C1054 0.960 . S
H1067 C1054 0.962 . S
H1068 C1054 0.960 . S
H1069 C1055 0.961 . S
H1070 C1055 0.961 . S
H1071 C1055 0.961 . S
H1072 C1056 0.931 . S
H1073 C1061 0.930 . S
H1074 C1062 0.956 . S
H1075 C1062 0.961 . S
H1076 C1062 0.961 . S
H1077 C1063 0.958 . S
H1078 C1063 0.961 . S
H1079 C1063 0.960 . S
C1080 C1081 1.391 . S
C1080 C1082 1.394 . S
C1080 H1096 0.931 . S
C1081 C1080 1.391 . S
C1081 C1085 1.376 . S
C1082 C1080 1.394 . S
C1082 C1083 1.369 . S
C1082 C1086 1.531 . S
C1083 C1082 1.369 . S
C1083 C1084 1.410 . S
C1083 C1091 1.503 . S
C1084 C1083 1.410 . S
C1084 C1085 1.392 . S
C1084 C1087 1.511 . S
C1085 C1081 1.376 . S
C1085 C1084 1.392 . S
C1085 H1097 0.929 . S
C1086 C1082 1.531 . S
C1086 H1098 0.960 . S
C1086 H1099 0.962 . S
C1086 H1100 0.960 . S
C1087 C1084 1.511 . S
C1087 H1101 0.961 . S
C1087 H1102 0.961 . S
C1087 H1103 0.961 . S
C1088 C1089 1.370 . S
C1088 C1090 1.363 . S
C1088 H1104 0.931 . S
C1089 C1088 1.370 . S
C1089 C1093 1.408 . S
C1090 C1088 1.363 . S
C1090 C1091 1.370 . S
C1090 C1094 1.524 . S
C1091 C1083 1.503 . S
C1091 C1090 1.370 . S
C1091 C1092 1.403 . S
C1092 C1091 1.403 . S
C1092 C1093 1.404 . S
C1092 C1095 1.539 . S
C1093 C1089 1.408 . S
C1093 C1092 1.404 . S
C1093 H1105 0.930 . S
C1094 C1090 1.524 . S
C1094 H1106 0.956 . S
C1094 H1107 0.961 . S
C1094 H1108 0.961 . S
C1095 C1092 1.539 . S
C1095 H1109 0.958 . S
C1095 H1110 0.961 1_556 S
C1095 H1111 0.960 . S
H1096 C1080 0.931 . S
H1097 C1085 0.929 . S
H1098 C1086 0.960 . S
H1099 C1086 0.962 . S
H1100 C1086 0.960 . S
H1101 C1087 0.961 . S
H1102 C1087 0.961 . S
H1103 C1087 0.961 . S
H1104 C1088 0.931 . S
H1105 C1093 0.930 . S
H1106 C1094 0.956 . S
H1107 C1094 0.961 . S
H1108 C1094 0.961 . S
H1109 C1095 0.958 . S
H1110 C1095 0.961 1_554 S
H1111 C1095 0.960 . S
C1112 C1113 1.391 1_455 S
C1112 C1114 1.394 . S
C1112 H1128 0.931 . S
C1113 C1112 1.391 1_655 S
C1113 C1117 1.376 . S
C1114 C1112 1.394 . S
C1114 C1115 1.369 1_455 S
C1114 C1118 1.531 . S
C1115 C1114 1.369 1_655 S
C1115 C1116 1.410 . S
C1115 C1123 1.503 . S
C1116 C1115 1.410 . S
C1116 C1117 1.392 . S
C1116 C1119 1.511 . S
C1117 C1113 1.376 . S
C1117 C1116 1.392 . S
C1117 H1129 0.929 . S
C1118 C1114 1.531 . S
C1118 H1130 0.960 . S
C1118 H1131 0.962 . S
C1118 H1132 0.960 . S
C1119 C1116 1.511 . S
C1119 H1133 0.961 . S
C1119 H1134 0.961 . S
C1119 H1135 0.961 . S
C1120 C1121 1.370 . S
C1120 C1122 1.363 . S
C1120 H1136 0.931 . S
C1121 C1120 1.370 . S
C1121 C1125 1.406 . S
C1122 C1120 1.363 . S
C1122 C1123 1.370 . S
C1122 C1126 1.524 . S
C1123 C1115 1.503 . S
C1123 C1122 1.370 . S
C1123 C1124 1.423 . S
C1124 C1123 1.423 . S
C1124 C1125 1.403 . S
C1124 C1127 1.525 1_655 S
C1125 C1121 1.406 . S
C1125 C1124 1.403 . S
C1125 H1137 0.932 1_655 S
C1126 C1122 1.524 . S
C1126 H1138 0.956 . S
C1126 H1139 0.961 . S
C1126 H1140 0.961 . S
C1127 C1124 1.525 1_455 S
C1127 H1141 0.958 . S
C1127 H1142 0.961 . S
C1127 H1143 0.952 1_455 S
H1128 C1112 0.931 . S
H1129 C1117 0.929 . S
H1130 C1118 0.960 . S
H1131 C1118 0.962 . S
H1132 C1118 0.960 . S
H1133 C1119 0.961 . S
H1134 C1119 0.961 . S
H1135 C1119 0.961 . S
H1136 C1120 0.931 . S
H1137 C1125 0.932 1_455 S
H1138 C1126 0.956 . S
H1139 C1126 0.961 . S
H1140 C1126 0.961 . S
H1141 C1127 0.958 . S
H1142 C1127 0.961 . S
H1143 C1127 0.952 1_655 S
C1144 C1145 1.391 . S
C1144 C1146 1.394 . S
C1144 H1160 0.931 . S
C1145 C1144 1.391 . S
C1145 C1149 1.376 1_565 S
C1146 C1144 1.394 . S
C1146 C1147 1.369 . S
C1146 C1150 1.531 . S
C1147 C1146 1.369 . S
C1147 C1148 1.410 . S
C1147 C1155 1.503 . S
C1148 C1147 1.410 . S
C1148 C1149 1.392 1_565 S
C1148 C1151 1.511 1_565 S
C1149 C1145 1.376 1_545 S
C1149 C1148 1.392 1_545 S
C1149 H1161 0.929 . S
C1150 C1146 1.531 . S
C1150 H1162 0.960 . S
C1150 H1163 0.962 . S
C1150 H1164 0.960 . S
C1151 C1148 1.511 1_545 S
C1151 H1165 0.961 . S
C1151 H1166 0.961 . S
C1151 H1167 0.961 1_545 S
C1152 C1153 1.370 1_545 S
C1152 C1154 1.363 . S
C1152 H1168 0.931 . S
C1153 C1152 1.370 1_565 S
C1153 C1157 1.408 . S
C1154 C1152 1.363 . S
C1154 C1155 1.370 1_545 S
C1154 C1158 1.524 . S
C1155 C1147 1.503 . S
C1155 C1154 1.370 1_565 S
C1155 C1156 1.403 . S
C1156 C1155 1.403 . S
C1156 C1157 1.404 . S
C1156 C1159 1.539 . S
C1157 C1153 1.408 . S
C1157 C1156 1.404 . S
C1157 H1169 0.930 . S
C1158 C1154 1.524 . S
C1158 H1170 0.956 . S
C1158 H1171 0.961 . S
C1158 H1172 0.961 . S
C1159 C1156 1.539 . S
C1159 H1173 0.958 . S
C1159 H1174 0.961 . S
C1159 H1175 0.960 . S
H1160 C1144 0.931 . S
H1161 C1149 0.929 . S
H1162 C1150 0.960 . S
H1163 C1150 0.962 . S
H1164 C1150 0.960 . S
H1165 C1151 0.961 . S
H1166 C1151 0.961 . S
H1167 C1151 0.961 1_565 S
H1168 C1152 0.931 . S
H1169 C1157 0.930 . S
H1170 C1158 0.956 . S
H1171 C1158 0.961 . S
H1172 C1158 0.961 . S
H1173 C1159 0.958 . S
H1174 C1159 0.961 . S
H1175 C1159 0.960 . S
C1176 C1177 1.391 . S
C1176 C1178 1.394 . S
C1176 H1192 0.931 . S
C1177 C1176 1.391 . S
C1177 C1181 1.376 . S
C1178 C1176 1.394 . S
C1178 C1179 1.369 . S
C1178 C1182 1.531 . S
C1179 C1178 1.369 . S
C1179 C1180 1.410 . S
C1179 C1187 1.503 . S
C1180 C1179 1.410 . S
C1180 C1181 1.392 . S
C1180 C1183 1.511 . S
C1181 C1177 1.376 . S
C1181 C1180 1.392 . S
C1181 H1193 0.929 . S
C1182 C1178 1.531 . S
C1182 H1194 0.960 . S
C1182 H1195 0.962 . S
C1182 H1196 0.960 . S
C1183 C1180 1.511 . S
C1183 H1197 0.961 . S
C1183 H1198 0.961 . S
C1183 H1199 0.961 . S
C1184 C1185 1.370 . S
C1184 C1186 1.363 . S
C1184 H1200 0.931 . S
C1185 C1184 1.370 . S
C1185 C1189 1.408 . S
C1186 C1184 1.363 . S
C1186 C1187 1.370 . S
C1186 C1190 1.524 . S
C1187 C1179 1.503 . S
C1187 C1186 1.370 . S
C1187 C1188 1.403 . S
C1188 C1187 1.403 . S
C1188 C1189 1.404 . S
C1188 C1191 1.539 . S
C1189 C1185 1.408 . S
C1189 C1188 1.404 . S
C1189 H1201 0.930 . S
C1190 C1186 1.524 . S
C1190 H1202 0.956 . S
C1190 H1203 0.961 . S
C1190 H1204 0.961 . S
C1191 C1188 1.539 . S
C1191 H1205 0.958 . S
C1191 H1206 0.961 . S
C1191 H1207 0.960 . S
H1192 C1176 0.931 . S
H1193 C1181 0.929 . S
H1194 C1182 0.960 . S
H1195 C1182 0.962 . S
H1196 C1182 0.960 . S
H1197 C1183 0.961 . S
H1198 C1183 0.961 . S
H1199 C1183 0.961 . S
H1200 C1184 0.931 . S
H1201 C1189 0.930 . S
H1202 C1190 0.956 . S
H1203 C1190 0.961 . S
H1204 C1190 0.961 . S
H1205 C1191 0.958 . S
H1206 C1191 0.961 . S
H1207 C1191 0.960 . S
C1208 C1209 1.391 . S
C1208 C1210 1.394 . S
C1208 H1224 0.931 . S
C1209 C1208 1.391 . S
C1209 C1213 1.376 . S
C1210 C1208 1.394 . S
C1210 C1211 1.369 . S
C1210 C1214 1.531 . S
C1211 C1210 1.369 . S
C1211 C1212 1.410 . S
C1211 C1219 1.503 . S
C1212 C1211 1.410 . S
C1212 C1213 1.392 . S
C1212 C1215 1.511 . S
C1213 C1209 1.376 . S
C1213 C1212 1.392 . S
C1213 H1225 0.929 . S
C1214 C1210 1.531 . S
C1214 H1226 0.960 . S
C1214 H1227 0.962 . S
C1214 H1228 0.960 . S
C1215 C1212 1.511 . S
C1215 H1229 0.961 . S
C1215 H1230 0.961 . S
C1215 H1231 0.961 . S
C1216 C1217 1.370 . S
C1216 C1218 1.363 . S
C1216 H1232 0.931 . S
C1217 C1216 1.370 . S
C1217 C1221 1.408 . S
C1218 C1216 1.363 . S
C1218 C1219 1.370 . S
C1218 C1222 1.524 . S
C1219 C1211 1.503 . S
C1219 C1218 1.370 . S
C1219 C1220 1.403 . S
C1220 C1219 1.403 . S
C1220 C1221 1.404 . S
C1220 C1223 1.539 . S
C1221 C1217 1.408 . S
C1221 C1220 1.404 . S
C1221 H1233 0.930 . S
C1222 C1218 1.524 . S
C1222 H1234 0.956 . S
C1222 H1235 0.961 . S
C1222 H1236 0.961 . S
C1223 C1220 1.539 . S
C1223 H1237 0.958 . S
C1223 H1238 0.961 . S
C1223 H1239 0.960 . S
H1224 C1208 0.931 . S
H1225 C1213 0.929 . S
H1226 C1214 0.960 . S
H1227 C1214 0.962 . S
H1228 C1214 0.960 . S
H1229 C1215 0.961 . S
H1230 C1215 0.961 . S
H1231 C1215 0.961 . S
H1232 C1216 0.931 . S
H1233 C1221 0.930 . S
H1234 C1222 0.956 . S
H1235 C1222 0.961 . S
H1236 C1222 0.961 . S
H1237 C1223 0.958 . S
H1238 C1223 0.961 . S
H1239 C1223 0.960 . S
C473 C255 2.207 1_545 S
C481 C335 2.350 1_545 S
C513 C375 1.624 . S
C505 C294 1.576 . S
C545 C394 2.416 . S
C537 C177 2.256 . S
C577 C455 1.809 . S
C569 C216 1.629 . S
C609 C314 2.363 . S
C601 C99 2.195 1_545 S
C633 C138 1.559 . S
C641 C354 1.628 . S
C665 C21 2.212 . S
C673 C415 2.425 . S
C697 C60 1.713 . S
C705 C434 1.809 . S
C737 C316 0.702 . S
C729 C196 0.755 . S
C769 C356 0.285 . S
C761 C235 0.350 1_545 S
C801 C412 0.954 . S
C793 C289 0.843 . S
C825 C157 0.395 . S
C833 C436 0.348 . S
C857 C40 0.667 . S
C865 C337 0.769 . S
C897 C377 0.364 . S
C889 C79 0.168 . S
C929 C423 0.953 . S
C921 C133 0.876 . S
C953 C1 0.359 . S
C961 C457 0.364 1_554 S
C985 C211 2.208 . S
C993 C332 2.536 . S
C1017 C250 2.836 1_565 S
C1025 C372 3.157 . S
C1057 C396 1.937 . S
C1049 C274 1.867 . S
C1089 C452 3.153 . S
C1081 C172 2.784 . S
C1113 C55 2.205 . S
C1121 C343 2.550 . S
C1153 C383 3.163 . S
C1145 C94 2.829 1_565 S
C1185 C417 1.933 . S
C1177 C118 1.904 . S
C1209 C16 2.811 . S
C1217 C463 3.146 . S
