# Generated by pormake.
# Topology eea, (3,6)-cn, num edge types: 1
# Building blocks:
#     Node 0, Type 0, BuildingBlock: MIDCAF_clean_linker_0, # of connection points: 3
#     Node 1, Type 0, BuildingBlock: MIDCAF_clean_linker_0, # of connection points: 3
#     Node 2, Type 0, BuildingBlock: MIDCAF_clean_linker_0, # of connection points: 3
#     Node 3, Type 0, BuildingBlock: MIDCAF_clean_linker_0, # of connection points: 3
#     Node 4, Type 0, BuildingBlock: MIDCAF_clean_linker_0, # of connection points: 3
#     Node 5, Type 0, BuildingBlock: MIDCAF_clean_linker_0, # of connection points: 3
#     Node 6, Type 0, BuildingBlock: MIDCAF_clean_linker_0, # of connection points: 3
#     Node 7, Type 0, BuildingBlock: MIDCAF_clean_linker_0, # of connection points: 3
#     Node 8, Type 0, BuildingBlock: MIDCAF_clean_linker_0, # of connection points: 3
#     Node 9, Type 0, BuildingBlock: MIDCAF_clean_linker_0, # of connection points: 3
#     Node 10, Type 0, BuildingBlock: MIDCAF_clean_linker_0, # of connection points: 3
#     Node 11, Type 0, BuildingBlock: MIDCAF_clean_linker_0, # of connection points: 3
#     Node 12, Type 0, BuildingBlock: MIDCAF_clean_linker_0, # of connection points: 3
#     Node 13, Type 0, BuildingBlock: MIDCAF_clean_linker_0, # of connection points: 3
#     Node 14, Type 0, BuildingBlock: MIDCAF_clean_linker_0, # of connection points: 3
#     Node 15, Type 0, BuildingBlock: MIDCAF_clean_linker_0, # of connection points: 3
#     Node 16, Type 0, BuildingBlock: MIDCAF_clean_linker_0, # of connection points: 3
#     Node 17, Type 0, BuildingBlock: MIDCAF_clean_linker_0, # of connection points: 3
#     Node 18, Type 1, BuildingBlock: CUWYAW_clean_sbu_0, # of connection points: 6
#     Node 19, Type 1, BuildingBlock: CUWYAW_clean_sbu_0, # of connection points: 6
#     Node 20, Type 1, BuildingBlock: CUWYAW_clean_sbu_0, # of connection points: 6
#     Node 21, Type 1, BuildingBlock: CUWYAW_clean_sbu_0, # of connection points: 6
#     Node 22, Type 1, BuildingBlock: CUWYAW_clean_sbu_0, # of connection points: 6
#     Node 23, Type 1, BuildingBlock: CUWYAW_clean_sbu_0, # of connection points: 6
#     Node 24, Type 1, BuildingBlock: CUWYAW_clean_sbu_0, # of connection points: 6
#     Node 25, Type 1, BuildingBlock: CUWYAW_clean_sbu_0, # of connection points: 6
#     Node 26, Type 1, BuildingBlock: CUWYAW_clean_sbu_0, # of connection points: 6
#     Edge 27, Type (0, 1), BuildingBlock: EZIPEK_clean_linker_0, # of connection points: 2
#     Edge 28, Type (0, 1), BuildingBlock: EZIPEK_clean_linker_0, # of connection points: 2
#     Edge 29, Type (0, 1), BuildingBlock: EZIPEK_clean_linker_0, # of connection points: 2
#     Edge 30, Type (0, 1), BuildingBlock: EZIPEK_clean_linker_0, # of connection points: 2
#     Edge 31, Type (0, 1), BuildingBlock: EZIPEK_clean_linker_0, # of connection points: 2
#     Edge 32, Type (0, 1), BuildingBlock: EZIPEK_clean_linker_0, # of connection points: 2
#     Edge 33, Type (0, 1), BuildingBlock: EZIPEK_clean_linker_0, # of connection points: 2
#     Edge 34, Type (0, 1), BuildingBlock: EZIPEK_clean_linker_0, # of connection points: 2
#     Edge 35, Type (0, 1), BuildingBlock: EZIPEK_clean_linker_0, # of connection points: 2
#     Edge 36, Type (0, 1), BuildingBlock: EZIPEK_clean_linker_0, # of connection points: 2
#     Edge 37, Type (0, 1), BuildingBlock: EZIPEK_clean_linker_0, # of connection points: 2
#     Edge 38, Type (0, 1), BuildingBlock: EZIPEK_clean_linker_0, # of connection points: 2
#     Edge 39, Type (0, 1), BuildingBlock: EZIPEK_clean_linker_0, # of connection points: 2
#     Edge 40, Type (0, 1), BuildingBlock: EZIPEK_clean_linker_0, # of connection points: 2
#     Edge 41, Type (0, 1), BuildingBlock: EZIPEK_clean_linker_0, # of connection points: 2
#     Edge 42, Type (0, 1), BuildingBlock: EZIPEK_clean_linker_0, # of connection points: 2
#     Edge 43, Type (0, 1), BuildingBlock: EZIPEK_clean_linker_0, # of connection points: 2
#     Edge 44, Type (0, 1), BuildingBlock: EZIPEK_clean_linker_0, # of connection points: 2
#     Edge 45, Type (0, 1), BuildingBlock: EZIPEK_clean_linker_0, # of connection points: 2
#     Edge 46, Type (0, 1), BuildingBlock: EZIPEK_clean_linker_0, # of connection points: 2
#     Edge 47, Type (0, 1), BuildingBlock: EZIPEK_clean_linker_0, # of connection points: 2
#     Edge 48, Type (0, 1), BuildingBlock: EZIPEK_clean_linker_0, # of connection points: 2
#     Edge 49, Type (0, 1), BuildingBlock: EZIPEK_clean_linker_0, # of connection points: 2
#     Edge 50, Type (0, 1), BuildingBlock: EZIPEK_clean_linker_0, # of connection points: 2
#     Edge 51, Type (0, 1), BuildingBlock: EZIPEK_clean_linker_0, # of connection points: 2
#     Edge 52, Type (0, 1), BuildingBlock: EZIPEK_clean_linker_0, # of connection points: 2
#     Edge 53, Type (0, 1), BuildingBlock: EZIPEK_clean_linker_0, # of connection points: 2
#     Edge 54, Type (0, 1), BuildingBlock: EZIPEK_clean_linker_0, # of connection points: 2
#     Edge 55, Type (0, 1), BuildingBlock: EZIPEK_clean_linker_0, # of connection points: 2
#     Edge 56, Type (0, 1), BuildingBlock: EZIPEK_clean_linker_0, # of connection points: 2
#     Edge 57, Type (0, 1), BuildingBlock: EZIPEK_clean_linker_0, # of connection points: 2
#     Edge 58, Type (0, 1), BuildingBlock: EZIPEK_clean_linker_0, # of connection points: 2
#     Edge 59, Type (0, 1), BuildingBlock: EZIPEK_clean_linker_0, # of connection points: 2
#     Edge 60, Type (0, 1), BuildingBlock: EZIPEK_clean_linker_0, # of connection points: 2
#     Edge 61, Type (0, 1), BuildingBlock: EZIPEK_clean_linker_0, # of connection points: 2
#     Edge 62, Type (0, 1), BuildingBlock: EZIPEK_clean_linker_0, # of connection points: 2
#     Edge 63, Type (0, 1), BuildingBlock: EZIPEK_clean_linker_0, # of connection points: 2
#     Edge 64, Type (0, 1), BuildingBlock: EZIPEK_clean_linker_0, # of connection points: 2
#     Edge 65, Type (0, 1), BuildingBlock: EZIPEK_clean_linker_0, # of connection points: 2
#     Edge 66, Type (0, 1), BuildingBlock: EZIPEK_clean_linker_0, # of connection points: 2
#     Edge 67, Type (0, 1), BuildingBlock: EZIPEK_clean_linker_0, # of connection points: 2
#     Edge 68, Type (0, 1), BuildingBlock: EZIPEK_clean_linker_0, # of connection points: 2
#     Edge 69, Type (0, 1), BuildingBlock: EZIPEK_clean_linker_0, # of connection points: 2
#     Edge 70, Type (0, 1), BuildingBlock: EZIPEK_clean_linker_0, # of connection points: 2
#     Edge 71, Type (0, 1), BuildingBlock: EZIPEK_clean_linker_0, # of connection points: 2
#     Edge 72, Type (0, 1), BuildingBlock: EZIPEK_clean_linker_0, # of connection points: 2
#     Edge 73, Type (0, 1), BuildingBlock: EZIPEK_clean_linker_0, # of connection points: 2
#     Edge 74, Type (0, 1), BuildingBlock: EZIPEK_clean_linker_0, # of connection points: 2
#     Edge 75, Type (0, 1), BuildingBlock: EZIPEK_clean_linker_0, # of connection points: 2
#     Edge 76, Type (0, 1), BuildingBlock: EZIPEK_clean_linker_0, # of connection points: 2
#     Edge 77, Type (0, 1), BuildingBlock: EZIPEK_clean_linker_0, # of connection points: 2
#     Edge 78, Type (0, 1), BuildingBlock: EZIPEK_clean_linker_0, # of connection points: 2
#     Edge 79, Type (0, 1), BuildingBlock: EZIPEK_clean_linker_0, # of connection points: 2
#     Edge 80, Type (0, 1), BuildingBlock: EZIPEK_clean_linker_0, # of connection points: 2
# Relax obj value: 0.035
# Max RMSD: 0.132
# Mean RMSD: 0.088
data_MOF--net-eea--node1-CUWYAW_clean_sbu_0--node2-MIDCAF_clean_linker_0--edge1-EZIPEK_clean_linker_0
_symmetry_space_group_name_H-M    P1
_symmetry_Int_Tables_number       1
_symmetry_cell_setting            triclinic
loop_
_symmetry_equiv_pos_as_xyz
'x, y, z'
_cell_length_a     48.294248
_cell_length_b     47.84293
_cell_length_c     74.109144
_cell_angle_alpha  93.476283
_cell_angle_beta   93.442691
_cell_angle_gamma 119.82311
loop_
_atom_site_label
_atom_site_type_symbol
_atom_site_fract_x
_atom_site_fract_y
_atom_site_fract_z
_atom_type_partial_charge
C0 C 0.2195 0.01565 0.39371 0.0
C1 C 0.21449 0.01131 0.37469 0.0
C2 C 0.21901 0.03732 0.36505 0.0
C3 C 0.22766 0.06724 0.37437 0.0
H4 H 0.22881 0.15137 0.36703 0.0
H5 H 0.21361 0.18551 0.35096 0.0
H6 H 0.22215 0.23949 0.40171 0.0
H7 H 0.23744 0.20541 0.41811 0.0
H8 H 0.25224 0.18102 0.45573 0.0
H9 H 0.26646 0.18867 0.48875 0.0
H10 H 0.28946 0.11246 0.48408 0.0
H11 H 0.27514 0.10432 0.45129 0.0
H12 H 0.23167 0.04814 0.41776 0.0
H13 H 0.21604 0.99569 0.4013 0.0
H14 H 0.21517 0.03422 0.35034 0.0
H15 H 0.23046 0.08675 0.36657 0.0
N16 N 0.2354 0.12476 0.39462 0.0
N17 N 0.24887 0.15813 0.422 0.0
N18 N 0.24819 0.1087 0.42157 0.0
C19 C 0.24014 0.15253 0.40376 0.0
C20 C 0.25317 0.13635 0.43096 0.0
C21 C 0.2393 0.1027 0.40341 0.0
C22 C 0.23406 0.17538 0.39393 0.0
C23 C 0.22782 0.17066 0.37485 0.0
C24 C 0.21926 0.19023 0.36558 0.0
C25 C 0.21677 0.21487 0.37518 0.0
C26 C 0.22409 0.22057 0.39412 0.0
C27 C 0.23276 0.20103 0.40344 0.0
C28 C 0.2625 0.14202 0.45084 0.0
C29 C 0.26042 0.16596 0.46171 0.0
C30 C 0.26842 0.17032 0.48055 0.0
C31 C 0.27895 0.15108 0.48871 0.0
C32 C 0.28134 0.12747 0.47794 0.0
C33 C 0.27309 0.12287 0.4592 0.0
C34 C 0.23217 0.07166 0.39349 0.0
C35 C 0.22846 0.04565 0.40305 0.0
C36 C 0.99317 0.21783 0.40585 0.0
C37 C 0.99002 0.21859 0.38694 0.0
C38 C 0.95979 0.19939 0.37707 0.0
C39 C 0.93336 0.17876 0.38582 0.0
H40 H 0.86228 0.0807 0.37706 0.0
H41 H 0.82342 0.02868 0.36017 0.0
H42 H 0.76468 0.00454 0.40463 0.0
H43 H 0.80343 0.05643 0.42181 0.0
H44 H 0.83314 0.09621 0.45905 0.0
H45 H 0.82666 0.1049 0.49086 0.0
H46 H 0.914 0.19743 0.49638 0.0
H47 H 0.92098 0.18915 0.46431 0.0
H48 H 0.96967 0.197 0.42923 0.0
H49 H 0.01635 0.23247 0.41368 0.0
H50 H 0.95689 0.19975 0.36249 0.0
H51 H 0.91048 0.16368 0.37776 0.0
N52 N 0.88575 0.12604 0.40369 0.0
N53 N 0.8582 0.10914 0.42938 0.0
N54 N 0.90641 0.15889 0.43152 0.0
C55 C 0.86042 0.10356 0.41151 0.0
C56 C 0.88095 0.13667 0.4395 0.0
C57 C 0.9088 0.15372 0.41355 0.0
C58 C 0.83609 0.07278 0.40085 0.0
C59 C 0.84105 0.06452 0.38326 0.0
C60 C 0.81892 0.03481 0.37358 0.0
C61 C 0.79138 0.01298 0.38123 0.0
C62 C 0.78589 0.02124 0.39857 0.0
C63 C 0.80811 0.05087 0.40834 0.0
C64 C 0.87762 0.14203 0.45902 0.0
C65 C 0.85115 0.11847 0.46692 0.0
C66 C 0.84734 0.1233 0.48514 0.0
C67 C 0.86986 0.15171 0.49588 0.0
C68 C 0.89645 0.1753 0.48822 0.0
C69 C 0.90033 0.1705 0.46992 0.0
C70 C 0.93648 0.17739 0.40469 0.0
C71 C 0.96651 0.19762 0.41469 0.0
C72 C 0.79765 0.78017 0.40382 0.0
C73 C 0.79399 0.77699 0.38474 0.0
C74 C 0.81253 0.76729 0.37516 0.0
C75 C 0.8349 0.76153 0.38453 0.0
H76 H 0.93297 0.78844 0.38466 0.0
H77 H 0.98153 0.79921 0.37089 0.0
H78 H 0.00207 0.74824 0.4107 0.0
H79 H 0.95355 0.73762 0.42491 0.0
H80 H 0.91412 0.72384 0.46116 0.0
H81 H 0.90423 0.70597 0.49164 0.0
H82 H 0.82551 0.72439 0.49152 0.0
H83 H 0.83488 0.74209 0.46118 0.0
H84 H 0.8219 0.77647 0.42791 0.0
H85 H 0.78356 0.78765 0.41144 0.0
H86 H 0.80992 0.76458 0.36044 0.0
H87 H 0.84907 0.75434 0.37679 0.0
N88 N 0.8883 0.76208 0.40563 0.0
N89 N 0.90611 0.74775 0.43178 0.0
N90 N 0.85855 0.74993 0.43072 0.0
C91 C 0.9104 0.75685 0.41464 0.0
C92 C 0.88018 0.74426 0.43992 0.0
C93 C 0.86233 0.75864 0.41356 0.0
C94 C 0.93933 0.7622 0.40596 0.0
C95 C 0.94761 0.7793 0.39051 0.0
C96 C 0.97538 0.78556 0.3826 0.0
C97 C 0.99525 0.77454 0.38981 0.0
C98 C 0.9869 0.7569 0.40498 0.0
C99 C 0.95926 0.75097 0.41309 0.0
C100 C 0.87524 0.73434 0.45862 0.0
C101 C 0.8948 0.72427 0.46762 0.0
C102 C 0.88924 0.71406 0.48504 0.0
C103 C 0.8642 0.71397 0.49377 0.0
C104 C 0.84496 0.72437 0.48497 0.0
C105 C 0.85037 0.7344 0.46759 0.0
C106 C 0.83858 0.76464 0.40365 0.0
C107 C 0.81952 0.77374 0.41319 0.0
C108 C 0.00744 0.21868 0.59779 0.0
C109 C 0.01042 0.22486 0.61681 0.0
C110 C 0.04078 0.23812 0.62658 0.0
C111 C 0.0675 0.244 0.61762 0.0
H112 H 0.13575 0.21146 0.62157 0.0
H113 H 0.17458 0.19978 0.63693 0.0
H114 H 0.24102 0.24767 0.59781 0.0
H115 H 0.20223 0.25914 0.5821 0.0
H116 H 0.17259 0.26509 0.54445 0.0
H117 H 0.18039 0.28059 0.51363 0.0
H118 H 0.09 0.27845 0.50925 0.0
H119 H 0.08173 0.2629 0.54028 0.0
H120 H 0.03142 0.21989 0.57411 0.0
H121 H 0.98419 0.20839 0.59001 0.0
H122 H 0.04362 0.24318 0.64124 0.0
H123 H 0.09049 0.2536 0.62559 0.0
N124 N 0.11562 0.23803 0.59865 0.0
N125 N 0.1448 0.24978 0.57335 0.0
N126 N 0.09601 0.2496 0.57205 0.0
C127 C 0.14165 0.24177 0.59066 0.0
C128 C 0.1222 0.25378 0.56391 0.0
C129 C 0.09276 0.24194 0.5895 0.0
C130 C 0.1658 0.23616 0.60054 0.0
C131 C 0.15868 0.21974 0.61626 0.0
C132 C 0.18077 0.21298 0.62506 0.0
C133 C 0.21052 0.22288 0.61846 0.0
C134 C 0.21812 0.2399 0.60306 0.0
C135 C 0.19588 0.24632 0.5941 0.0
C136 C 0.12649 0.26275 0.54497 0.0
C137 C 0.1542 0.2678 0.53703 0.0
C138 C 0.15879 0.27667 0.51937 0.0
C139 C 0.13582 0.28069 0.50923 0.0
C140 C 0.10799 0.27548 0.51693 0.0
C141 C 0.10336 0.26662 0.53467 0.0
C142 C 0.06458 0.23745 0.59862 0.0
C143 C 0.0344 0.2253 0.58874 0.0
C144 C 0.77158 0.78144 0.60864 0.0
C145 C 0.77728 0.78472 0.62764 0.0
C146 C 0.77269 0.8072 0.63805 0.0
C147 C 0.76363 0.82708 0.62958 0.0
H148 H 0.77308 0.91491 0.64034 0.0
H149 H 0.79162 0.96722 0.6577 0.0
H150 H 0.77297 0.00426 0.60971 0.0
H151 H 0.75435 0.95202 0.59206 0.0
H152 H 0.73453 0.91001 0.55487 0.0
H153 H 0.71745 0.90268 0.52244 0.0
H154 H 0.70113 0.80531 0.5189 0.0
H155 H 0.71842 0.8123 0.55145 0.0
H156 H 0.75886 0.79885 0.58539 0.0
H157 H 0.77508 0.76413 0.60044 0.0
H158 H 0.77698 0.80995 0.65274 0.0
H159 H 0.76097 0.8447 0.63803 0.0
N160 N 0.75811 0.87571 0.61161 0.0
N161 N 0.74425 0.89371 0.5858 0.0
N162 N 0.74256 0.84369 0.58362 0.0
C163 C 0.75412 0.89856 0.60383 0.0
C164 C 0.73825 0.8663 0.5756 0.0
C165 C 0.75242 0.84826 0.60169 0.0
C166 C 0.76245 0.92926 0.61472 0.0
C167 C 0.77255 0.93398 0.63344 0.0
C168 C 0.78308 0.9638 0.64343 0.0
C169 C 0.78363 0.9894 0.63493 0.0
C170 C 0.77258 0.98461 0.61645 0.0
C171 C 0.76201 0.95476 0.60641 0.0
C172 C 0.72786 0.86171 0.55585 0.0
C173 C 0.72734 0.88697 0.54729 0.0
C174 C 0.71765 0.88291 0.52873 0.0
C175 C 0.70813 0.85353 0.51835 0.0
C176 C 0.70851 0.8282 0.52675 0.0
C177 C 0.7184 0.83228 0.54534 0.0
C178 C 0.75887 0.82477 0.61049 0.0
C179 C 0.76229 0.80125 0.6001 0.0
C180 C 0.21381 0.97994 0.6112 0.0
C181 C 0.20835 0.98673 0.62886 0.0
C182 C 0.18059 0.96425 0.63609 0.0
C183 C 0.15829 0.93538 0.62571 0.0
H184 H 0.08534 0.83721 0.62873 0.0
H185 H 0.03761 0.80093 0.64296 0.0
H186 H 0.98068 0.77255 0.59104 0.0
H187 H 0.02875 0.80821 0.57651 0.0
H188 H 0.07744 0.81847 0.5416 0.0
H189 H 0.08621 0.81082 0.50981 0.0
H190 H 0.18071 0.89517 0.51914 0.0
H191 H 0.17242 0.90325 0.5507 0.0
H192 H 0.1962 0.9467 0.58709 0.0
H193 H 0.23516 0.99714 0.60545 0.0
H194 H 0.17608 0.96923 0.64973 0.0
H195 H 0.13694 0.91866 0.63164 0.0
N196 N 0.11249 0.87623 0.60367 0.0
N197 N 0.09296 0.84457 0.57544 0.0
N198 N 0.14225 0.8934 0.57878 0.0
C199 C 0.08945 0.84925 0.59328 0.0
C200 C 0.11955 0.86654 0.56813 0.0
C201 C 0.13889 0.89853 0.59653 0.0
C202 C 0.06077 0.82566 0.6015 0.0
C203 C 0.06273 0.82307 0.62028 0.0
C204 C 0.03552 0.80231 0.62844 0.0
C205 C 0.00562 0.78421 0.61808 0.0
C206 C 0.00358 0.78631 0.59926 0.0
C207 C 0.03102 0.80662 0.59099 0.0
C208 C 0.12419 0.8615 0.5488 0.0
C209 C 0.10009 0.83542 0.53692 0.0
C210 C 0.10499 0.831 0.51875 0.0
C211 C 0.13409 0.85247 0.51223 0.0
C212 C 0.15811 0.87841 0.52398 0.0
C213 C 0.15323 0.88294 0.54204 0.0
C214 C 0.1633 0.92855 0.60783 0.0
C215 C 0.19146 0.95111 0.60075 0.0
C216 C 0.89332 0.35314 0.72766 0.0
C217 C 0.88736 0.34831 0.70869 0.0
C218 C 0.89083 0.37387 0.69895 0.0
C219 C 0.89935 0.40384 0.70815 0.0
H220 H 0.90128 0.48917 0.70095 0.0
H221 H 0.88606 0.52365 0.68517 0.0
H222 H 0.89168 0.5748 0.73639 0.0
H223 H 0.90708 0.54053 0.75247 0.0
H224 H 0.92303 0.51688 0.78959 0.0
H225 H 0.93619 0.52374 0.82267 0.0
H226 H 0.96098 0.44883 0.81786 0.0
H227 H 0.94777 0.44149 0.78499 0.0
H228 H 0.90605 0.386 0.75158 0.0
H229 H 0.89068 0.33353 0.73533 0.0
H230 H 0.88624 0.37037 0.68426 0.0
H231 H 0.90129 0.42301 0.7003 0.0
N232 N 0.90727 0.46157 0.72842 0.0
N233 N 0.92044 0.49466 0.75589 0.0
N234 N 0.92059 0.44569 0.75529 0.0
C235 C 0.91166 0.48912 0.73766 0.0
C236 C 0.92518 0.4731 0.76476 0.0
C237 C 0.91163 0.4397 0.73714 0.0
C238 C 0.90517 0.51187 0.72803 0.0
C239 C 0.8996 0.5079 0.70892 0.0
C240 C 0.89103 0.52764 0.69984 0.0
C241 C 0.88778 0.5516 0.70967 0.0
C242 C 0.89421 0.5564 0.72865 0.0
C243 C 0.90297 0.53677 0.73777 0.0
C244 C 0.93426 0.47857 0.78463 0.0
C245 C 0.93144 0.50198 0.79555 0.0
C246 C 0.93882 0.50589 0.81442 0.0
C247 C 0.94946 0.48672 0.82255 0.0
C248 C 0.95275 0.46375 0.81173 0.0
C249 C 0.94513 0.45962 0.79296 0.0
C250 C 0.90476 0.40873 0.72725 0.0
C251 C 0.90213 0.38317 0.73688 0.0
C252 C 0.66578 0.55376 0.74011 0.0
C253 C 0.66226 0.55468 0.72123 0.0
C254 C 0.63191 0.53545 0.7115 0.0
C255 C 0.60575 0.51452 0.72034 0.0
H256 H 0.53168 0.42011 0.70947 0.0
H257 H 0.49545 0.36761 0.69222 0.0
H258 H 0.45101 0.33016 0.74063 0.0
H259 H 0.48701 0.38255 0.75813 0.0
H260 H 0.5113 0.42598 0.79427 0.0
H261 H 0.50221 0.4346 0.82558 0.0
H262 H 0.5787 0.53391 0.82923 0.0
H263 H 0.58826 0.52569 0.79768 0.0
H264 H 0.64284 0.53242 0.76354 0.0
H265 H 0.68905 0.56846 0.74783 0.0
H266 H 0.62871 0.53595 0.69695 0.0
H267 H 0.58279 0.4993 0.71238 0.0
N268 N 0.56009 0.46029 0.73815 0.0
N269 N 0.53293 0.44199 0.76382 0.0
N270 N 0.57935 0.4933 0.76596 0.0
C271 C 0.53551 0.43685 0.74596 0.0
C272 C 0.55455 0.47011 0.77393 0.0
C273 C 0.58211 0.48848 0.74801 0.0
C274 C 0.51242 0.4056 0.73525 0.0
C275 C 0.51413 0.40086 0.7165 0.0
C276 C 0.49343 0.37092 0.70658 0.0
C277 C 0.47073 0.34522 0.71522 0.0
C278 C 0.46844 0.34987 0.73379 0.0
C279 C 0.48906 0.37983 0.74373 0.0
C280 C 0.55046 0.47521 0.79334 0.0
C281 C 0.52642 0.4497 0.80165 0.0
C282 C 0.52117 0.45449 0.81959 0.0
C283 C 0.53979 0.48482 0.82964 0.0
C284 C 0.5642 0.51029 0.82163 0.0
C285 C 0.56957 0.50551 0.80362 0.0
C286 C 0.60928 0.51291 0.73916 0.0
C287 C 0.63939 0.53327 0.74905 0.0
C288 C 0.46932 0.11294 0.73964 0.0
C289 C 0.46421 0.10851 0.72058 0.0
C290 C 0.481 0.09682 0.71076 0.0
C291 C 0.50319 0.09048 0.71984 0.0
H292 H 0.59278 0.10034 0.7143 0.0
H293 H 0.64154 0.11271 0.70024 0.0
H294 H 0.68314 0.10075 0.75016 0.0
H295 H 0.63438 0.08825 0.76451 0.0
H296 H 0.59294 0.06931 0.79906 0.0
H297 H 0.58439 0.05266 0.82988 0.0
H298 H 0.49029 0.04215 0.82394 0.0
H299 H 0.49841 0.05883 0.79335 0.0
H300 H 0.49449 0.10965 0.76345 0.0
H301 H 0.45664 0.122 0.74744 0.0
H302 H 0.47729 0.09315 0.69604 0.0
H303 H 0.51614 0.0819 0.71193 0.0
N304 N 0.55808 0.09239 0.74047 0.0
N305 N 0.57701 0.07935 0.76672 0.0
N306 N 0.52887 0.08037 0.76578 0.0
C307 C 0.58071 0.08789 0.74945 0.0
C308 C 0.55097 0.07534 0.77494 0.0
C309 C 0.5322 0.0888 0.74857 0.0
C310 C 0.60961 0.09343 0.74062 0.0
C311 C 0.61213 0.10011 0.72234 0.0
C312 C 0.63994 0.10713 0.71422 0.0
C313 C 0.6658 0.10766 0.72419 0.0
C314 C 0.6633 0.10039 0.74229 0.0
C315 C 0.63541 0.09326 0.75043 0.0
C316 C 0.54639 0.06546 0.79366 0.0
C317 C 0.57042 0.06348 0.80428 0.0
C318 C 0.56565 0.05402 0.82189 0.0
C319 C 0.53671 0.04619 0.82906 0.0
C320 C 0.51275 0.0481 0.81856 0.0
C321 C 0.51753 0.05771 0.80107 0.0
C322 C 0.50834 0.09491 0.73892 0.0
C323 C 0.4909 0.10584 0.74874 0.0
C324 C 0.67261 0.55379 0.93037 0.0
C325 C 0.67479 0.55806 0.94944 0.0
C326 C 0.70469 0.56988 0.95951 0.0
C327 C 0.73176 0.57636 0.95074 0.0
H328 H 0.81039 0.56362 0.95868 0.0
H329 H 0.84951 0.55238 0.97407 0.0
H330 H 0.8995 0.56901 0.92611 0.0
H331 H 0.86067 0.58041 0.9105 0.0
H332 H 0.84029 0.60779 0.87842 0.0
H333 H 0.84796 0.62491 0.8479 0.0
H334 H 0.75306 0.61244 0.84227 0.0
H335 H 0.74495 0.59532 0.87301 0.0
H336 H 0.69751 0.5571 0.90685 0.0
H337 H 0.64972 0.54459 0.92236 0.0
H338 H 0.70689 0.57341 0.97422 0.0
H339 H 0.75437 0.58492 0.95892 0.0
N340 N 0.78144 0.57374 0.93163 0.0
N341 N 0.81058 0.58647 0.9063 0.0
N342 N 0.76138 0.58541 0.90524 0.0
C343 C 0.80762 0.5781 0.92356 0.0
C344 C 0.78772 0.59032 0.89704 0.0
C345 C 0.75822 0.57728 0.92259 0.0
C346 C 0.83221 0.57283 0.93328 0.0
C347 C 0.82976 0.56511 0.95138 0.0
C348 C 0.8521 0.55872 0.96024 0.0
C349 C 0.87726 0.55989 0.95118 0.0
C350 C 0.8802 0.56807 0.93328 0.0
C351 C 0.85794 0.57455 0.92441 0.0
C352 C 0.79195 0.60015 0.87828 0.0
C353 C 0.82089 0.60853 0.87078 0.0
C354 C 0.8254 0.61838 0.85331 0.0
C355 C 0.8011 0.61992 0.84291 0.0
C356 C 0.77207 0.61137 0.85016 0.0
C357 C 0.76754 0.60164 0.86773 0.0
C358 C 0.72966 0.57182 0.93167 0.0
C359 C 0.69991 0.56097 0.92154 0.0
C360 C 0.44217 0.11647 0.94278 0.0
C361 C 0.44678 0.11959 0.96182 0.0
C362 C 0.44036 0.14104 0.97191 0.0
C363 C 0.43032 0.15992 0.9631 0.0
H364 H 0.43611 0.24707 0.97244 0.0
H365 H 0.45362 0.30001 0.98873 0.0
H366 H 0.43189 0.33261 0.93977 0.0
H367 H 0.41424 0.27969 0.92318 0.0
H368 H 0.38266 0.22974 0.88818 0.0
H369 H 0.36542 0.22042 0.85566 0.0
H370 H 0.37483 0.13539 0.85141 0.0
H371 H 0.39217 0.1443 0.88405 0.0
H372 H 0.42896 0.13275 0.91919 0.0
H373 H 0.44709 0.09998 0.93482 0.0
H374 H 0.44382 0.14368 0.98663 0.0
H375 H 0.4261 0.17669 0.9713 0.0
N376 N 0.4226 0.20688 0.94429 0.0
N377 N 0.4055 0.22166 0.9182 0.0
N378 N 0.40701 0.17327 0.91686 0.0
C379 C 0.41654 0.22817 0.93612 0.0
C380 C 0.40049 0.19421 0.90848 0.0
C381 C 0.41792 0.17942 0.93482 0.0
C382 C 0.424 0.25912 0.94641 0.0
C383 C 0.43466 0.26528 0.9651 0.0
C384 C 0.4446 0.29547 0.97449 0.0
C385 C 0.44405 0.32005 0.9654 0.0
C386 C 0.43237 0.31378 0.94696 0.0
C387 C 0.42235 0.28354 0.93753 0.0
C388 C 0.38897 0.18784 0.8888 0.0
C389 C 0.38103 0.20894 0.88043 0.0
C390 C 0.37109 0.20368 0.86184 0.0
C391 C 0.36894 0.1773 0.85124 0.0
C392 C 0.37639 0.15588 0.85946 0.0
C393 C 0.38629 0.16107 0.8781 0.0
C394 C 0.42625 0.15749 0.94399 0.0
C395 C 0.43176 0.13514 0.9339 0.0
C396 C 0.88391 0.31475 0.94784 0.0
C397 C 0.87641 0.32237 0.96474 0.0
C398 C 0.84741 0.30052 0.97113 0.0
C399 C 0.82593 0.27143 0.96066 0.0
H400 H 0.7342 0.19628 0.95744 0.0
H401 H 0.68535 0.15894 0.97034 0.0
H402 H 0.66985 0.08191 0.93042 0.0
H403 H 0.71869 0.11935 0.91706 0.0
H404 H 0.7523 0.15146 0.87764 0.0
H405 H 0.76218 0.14438 0.84603 0.0
H406 H 0.85758 0.22702 0.8568 0.0
H407 H 0.84819 0.23451 0.88825 0.0
H408 H 0.86871 0.28056 0.92422 0.0
H409 H 0.90623 0.33148 0.94273 0.0
H410 H 0.84129 0.30616 0.98415 0.0
H411 H 0.80362 0.25522 0.96594 0.0
N412 N 0.78219 0.21157 0.93878 0.0
N413 N 0.76599 0.17773 0.91137 0.0
N414 N 0.81501 0.22691 0.91507 0.0
C415 C 0.76029 0.18377 0.92855 0.0
C416 C 0.79337 0.19932 0.90452 0.0
C417 C 0.80964 0.23322 0.93222 0.0
C418 C 0.73041 0.16083 0.93617 0.0
C419 C 0.72053 0.17141 0.95134 0.0
C420 C 0.69259 0.15015 0.95876 0.0
C421 C 0.67414 0.11777 0.95134 0.0
C422 C 0.6839 0.10688 0.93631 0.0
C423 C 0.71169 0.12832 0.92867 0.0
C424 C 0.79939 0.19365 0.88556 0.0
C425 C 0.77546 0.16805 0.87335 0.0
C426 C 0.78099 0.16395 0.85528 0.0
C427 C 0.81055 0.18526 0.84916 0.0
C428 C 0.83461 0.2104 0.86131 0.0
C429 C 0.82911 0.21461 0.8793 0.0
C430 C 0.83302 0.26371 0.94354 0.0
C431 C 0.86238 0.28567 0.93729 0.0
C432 C 0.56508 0.68952 0.0624 0.0
C433 C 0.55719 0.68308 0.04353 0.0
C434 C 0.55943 0.70769 0.03331 0.0
C435 C 0.56872 0.73829 0.04192 0.0
H436 H 0.54828 0.81109 0.03692 0.0
H437 H 0.53213 0.84483 0.02119 0.0
H438 H 0.58441 0.92281 0.06393 0.0
H439 H 0.60053 0.88901 0.08011 0.0
H440 H 0.60365 0.85999 0.12111 0.0
H441 H 0.61967 0.86915 0.15398 0.0
H442 H 0.64342 0.79349 0.14951 0.0
H443 H 0.62743 0.78391 0.11686 0.0
H444 H 0.58019 0.72437 0.08565 0.0
H445 H 0.56335 0.67066 0.07045 0.0
H446 H 0.55332 0.70296 0.01872 0.0
H447 H 0.56974 0.75667 0.03369 0.0
N448 N 0.57809 0.79729 0.06121 0.0
N449 N 0.59589 0.83383 0.0876 0.0
N450 N 0.59613 0.78491 0.0879 0.0
C451 C 0.5839 0.8259 0.06977 0.0
C452 C 0.60218 0.81341 0.09673 0.0
C453 C 0.58416 0.77668 0.07015 0.0
C454 C 0.57563 0.84725 0.05987 0.0
C455 C 0.55663 0.83547 0.04301 0.0
C456 C 0.54732 0.85468 0.03396 0.0
C457 C 0.55707 0.88616 0.04144 0.0
C458 C 0.57673 0.8985 0.05799 0.0
C459 C 0.58578 0.87911 0.06721 0.0
C460 C 0.61406 0.82107 0.11633 0.0
C461 C 0.61258 0.84551 0.12707 0.0
C462 C 0.62165 0.85078 0.14583 0.0
C463 C 0.63262 0.83192 0.15404 0.0
C464 C 0.63499 0.80822 0.14334 0.0
C465 C 0.62574 0.80277 0.12468 0.0
C466 C 0.57617 0.74484 0.0609 0.0
C467 C 0.5747 0.72023 0.07102 0.0
C468 C 0.33397 0.88877 0.07447 0.0
C469 C 0.33078 0.88995 0.0556 0.0
C470 C 0.3006 0.87072 0.04568 0.0
C471 C 0.2743 0.84951 0.05432 0.0
H472 H 0.2004 0.75489 0.04283 0.0
H473 H 0.16426 0.70261 0.02532 0.0
H474 H 0.11936 0.66433 0.07348 0.0
H475 H 0.15523 0.71648 0.09122 0.0
H476 H 0.1747 0.7616 0.12649 0.0
H477 H 0.1658 0.76971 0.15789 0.0
H478 H 0.24969 0.86498 0.16403 0.0
H479 H 0.25907 0.85732 0.13237 0.0
H480 H 0.31062 0.86691 0.09769 0.0
H481 H 0.35712 0.90342 0.08232 0.0
H482 H 0.29768 0.87139 0.03113 0.0
H483 H 0.2515 0.83429 0.04622 0.0
N484 N 0.22844 0.79475 0.07173 0.0
N485 N 0.2007 0.77602 0.09716 0.0
N486 N 0.24707 0.8274 0.09965 0.0
C487 C 0.2037 0.77112 0.07934 0.0
C488 C 0.22209 0.80405 0.10742 0.0
C489 C 0.25022 0.82287 0.08174 0.0
C490 C 0.18086 0.73995 0.06849 0.0
C491 C 0.18279 0.73548 0.04975 0.0
C492 C 0.16216 0.70567 0.03969 0.0
C493 C 0.13934 0.67981 0.04818 0.0
C494 C 0.13692 0.68415 0.06676 0.0
C495 C 0.15745 0.71399 0.07684 0.0
C496 C 0.21762 0.80886 0.12679 0.0
C497 C 0.19147 0.78432 0.13442 0.0
C498 C 0.18628 0.78883 0.1524 0.0
C499 C 0.20709 0.81786 0.16318 0.0
C500 C 0.23346 0.84237 0.15583 0.0
C501 C 0.23871 0.83791 0.13776 0.0
C502 C 0.27751 0.84759 0.07312 0.0
C503 C 0.30742 0.86798 0.08321 0.0
C504 C 0.11871 0.41752 0.06455 0.0
C505 C 0.12929 0.44565 0.05563 0.0
C506 C 0.1624 0.46675 0.05548 0.0
C507 C 0.18453 0.45964 0.06388 0.0
H508 H 0.26186 0.44522 0.04969 0.0
H509 H 0.31025 0.45686 0.03546 0.0
H510 H 0.3466 0.4324 0.08279 0.0
H511 H 0.29809 0.42048 0.0973 0.0
H512 H 0.25161 0.39139 0.12949 0.0
H513 H 0.24224 0.37284 0.15988 0.0
H514 H 0.15486 0.37667 0.15733 0.0
H515 H 0.16364 0.39495 0.12712 0.0
H516 H 0.13217 0.38929 0.08043 0.0
H517 H 0.09328 0.40082 0.06474 0.0
H518 H 0.17109 0.48861 0.04871 0.0
H519 H 0.20993 0.47622 0.06349 0.0
N520 N 0.22468 0.43135 0.07489 0.0
N521 N 0.24119 0.41318 0.09982 0.0
N522 N 0.19219 0.41254 0.09863 0.0
C523 C 0.24659 0.42529 0.0834 0.0
C524 C 0.21402 0.40683 0.10755 0.0
C525 C 0.19743 0.42489 0.08237 0.0
C526 C 0.27598 0.43196 0.07473 0.0
C527 C 0.28001 0.44219 0.05715 0.0
C528 C 0.30762 0.4488 0.04893 0.0
C529 C 0.33183 0.44541 0.05808 0.0
C530 C 0.32802 0.43504 0.07553 0.0
C531 C 0.3003 0.4283 0.08379 0.0
C532 C 0.20841 0.39472 0.12577 0.0
C533 C 0.23033 0.3882 0.13534 0.0
C534 C 0.22508 0.37762 0.1527 0.0
C535 C 0.19791 0.3735 0.16076 0.0
C536 C 0.17597 0.37978 0.15128 0.0
C537 C 0.18109 0.39021 0.13397 0.0
C538 C 0.17397 0.43185 0.07309 0.0
C539 C 0.14088 0.41096 0.07348 0.0
C540 C 0.33549 0.88519 0.26238 0.0
C541 C 0.33851 0.89178 0.28136 0.0
C542 C 0.36895 0.90584 0.29113 0.0
C543 C 0.39576 0.91195 0.2822 0.0
H544 H 0.48302 0.91372 0.29247 0.0
H545 H 0.52175 0.90333 0.30921 0.0
H546 H 0.54793 0.87855 0.2586 0.0
H547 H 0.50996 0.88971 0.24174 0.0
H548 H 0.50041 0.92962 0.20938 0.0
H549 H 0.5093 0.94614 0.17881 0.0
H550 H 0.41817 0.94238 0.17334 0.0
H551 H 0.40886 0.92593 0.20417 0.0
H552 H 0.35949 0.88607 0.23877 0.0
H553 H 0.31216 0.87429 0.25462 0.0
H554 H 0.37177 0.9112 0.30576 0.0
H555 H 0.41881 0.92203 0.29017 0.0
N556 N 0.44383 0.90536 0.26365 0.0
N557 N 0.47193 0.91404 0.23799 0.0
N558 N 0.42372 0.91502 0.23653 0.0
C559 C 0.46928 0.90769 0.2556 0.0
C560 C 0.44949 0.91803 0.22837 0.0
C561 C 0.42088 0.90878 0.25423 0.0
C562 C 0.49339 0.90248 0.26577 0.0
C563 C 0.49711 0.90619 0.2849 0.0
C564 C 0.51922 0.90032 0.29448 0.0
C565 C 0.5375 0.89 0.28512 0.0
C566 C 0.534 0.88647 0.26605 0.0
C567 C 0.51235 0.89293 0.25645 0.0
C568 C 0.4539 0.9265 0.20936 0.0
C569 C 0.48204 0.93207 0.20175 0.0
C570 C 0.48725 0.94154 0.18425 0.0
C571 C 0.46443 0.94547 0.17391 0.0
C572 C 0.43602 0.93941 0.18119 0.0
C573 C 0.4308 0.93005 0.1988 0.0
C574 C 0.39279 0.90478 0.26325 0.0
C575 C 0.36251 0.89199 0.25336 0.0
C576 C 0.10485 0.44743 0.27466 0.0
C577 C 0.1088 0.44951 0.29369 0.0
C578 C 0.10242 0.47071 0.30407 0.0
C579 C 0.09319 0.49045 0.29556 0.0
H580 H 0.10354 0.57939 0.30609 0.0
H581 H 0.12202 0.63198 0.32312 0.0
H582 H 0.10107 0.66726 0.27504 0.0
H583 H 0.08248 0.61474 0.25773 0.0
H584 H 0.05159 0.56699 0.22199 0.0
H585 H 0.0346 0.55919 0.1895 0.0
H586 H 0.03975 0.47177 0.18408 0.0
H587 H 0.05681 0.47914 0.21668 0.0
H588 H 0.09304 0.46545 0.25139 0.0
H589 H 0.10979 0.43116 0.2665 0.0
H590 H 0.10539 0.47256 0.31878 0.0
H591 H 0.08905 0.50706 0.30398 0.0
N592 N 0.08831 0.53966 0.27754 0.0
N593 N 0.07271 0.55647 0.25179 0.0
N594 N 0.07225 0.50707 0.24972 0.0
C595 C 0.08342 0.56197 0.26973 0.0
C596 C 0.06689 0.52903 0.24169 0.0
C597 C 0.0828 0.51219 0.2677 0.0
C598 C 0.09173 0.59282 0.28045 0.0
C599 C 0.1025 0.59813 0.2991 0.0
C600 C 0.11301 0.62813 0.30891 0.0
C601 C 0.1129 0.65332 0.30028 0.0
C602 C 0.10122 0.64795 0.28187 0.0
C603 C 0.09065 0.61792 0.27203 0.0
C604 C 0.05571 0.52374 0.22202 0.0
C605 C 0.04909 0.546 0.21399 0.0
C606 C 0.03933 0.54162 0.19542 0.0
C607 C 0.03603 0.51499 0.1845 0.0
C608 C 0.04222 0.49248 0.19238 0.0
C609 C 0.05196 0.49678 0.211 0.0
C610 C 0.08992 0.48915 0.27648 0.0
C611 C 0.09524 0.46697 0.26609 0.0
C612 C 0.5432 0.64091 0.27368 0.0
C613 C 0.53629 0.65111 0.29006 0.0
C614 C 0.50719 0.631 0.29696 0.0
C615 C 0.48508 0.601 0.28754 0.0
H616 H 0.39344 0.52453 0.28708 0.0
H617 H 0.34533 0.48834 0.30102 0.0
H618 H 0.3297 0.40825 0.26349 0.0
H619 H 0.37769 0.44446 0.2491 0.0
H620 H 0.40852 0.47353 0.20801 0.0
H621 H 0.41747 0.46435 0.17643 0.0
H622 H 0.51368 0.54595 0.18597 0.0
H623 H 0.50526 0.55544 0.2173 0.0
H624 H 0.52701 0.60383 0.2515 0.0
H625 H 0.5656 0.65625 0.26819 0.0
H626 H 0.50155 0.63864 0.3096 0.0
H627 H 0.46273 0.58611 0.29317 0.0
N628 N 0.44085 0.53835 0.26798 0.0
N629 N 0.42377 0.50188 0.24156 0.0
N630 N 0.47251 0.55113 0.24376 0.0
C631 C 0.41876 0.50962 0.25859 0.0
C632 C 0.45068 0.52267 0.23404 0.0
C633 C 0.46784 0.55919 0.2607 0.0
C634 C 0.38944 0.48742 0.26693 0.0
C635 C 0.37988 0.49922 0.28175 0.0
C636 C 0.35239 0.47862 0.28975 0.0
C637 C 0.33412 0.44572 0.28329 0.0
C638 C 0.34362 0.43363 0.26865 0.0
C639 C 0.37092 0.45437 0.26041 0.0
C640 C 0.45609 0.51534 0.21524 0.0
C641 C 0.43166 0.48938 0.20344 0.0
C642 C 0.43666 0.48411 0.18541 0.0
C643 C 0.46617 0.50461 0.17895 0.0
C644 C 0.49074 0.52998 0.19074 0.0
C645 C 0.48578 0.53534 0.20867 0.0
C646 C 0.49165 0.59067 0.27096 0.0
C647 C 0.52105 0.61097 0.26418 0.0
C648 C 0.54296 0.02706 0.05469 0.0
Eu649 Eu 0.51955 0.01901 0.02103 0.0
C650 C 0.52928 0.01469 0.07169 0.0
C651 C 0.49945 0.01084 0.07547 0.0
C652 C 0.48682 0.99905 0.09166 0.0
C653 C 0.50371 0.99065 0.10419 0.0
C654 C 0.53324 0.99401 0.10031 0.0
C655 C 0.54595 0.00598 0.08417 0.0
C656 C 0.49679 0.05204 0.00312 0.0
C657 C 0.44196 0.96593 0.01749 0.0
C658 C 0.45807 0.97672 0.94959 0.0
Eu659 Eu 0.48161 0.98526 0.98325 0.0
C660 C 0.47149 0.98496 0.93212 0.0
C661 C 0.50236 0.99029 0.92974 0.0
C662 C 0.51545 0.99995 0.91335 0.0
C663 C 0.49792 0.00467 0.89926 0.0
C664 C 0.46712 0.99932 0.90165 0.0
C665 C 0.45399 0.98951 0.91798 0.0
C666 C 0.5044 0.95274 0.00171 0.0
C667 C 0.55897 0.03953 0.98616 0.0
O668 O 0.54234 0.00568 0.04252 0.0
O669 O 0.53533 0.04704 0.04757 0.0
O670 O 0.52233 0.06601 0.01475 0.0
O671 O 0.48292 0.0217 0.00332 0.0
O672 O 0.46998 0.98083 0.02763 0.0
O673 O 0.43953 0.96742 0.99976 0.0
O674 O 0.46381 0.00151 0.96093 0.0
O675 O 0.46139 0.95465 0.95753 0.0
O676 O 0.47766 0.93829 0.99101 0.0
O677 O 0.51871 0.98292 1.00085 0.0
O678 O 0.53167 0.01969 0.97605 0.0
O679 O 0.56124 0.04245 0.00418 0.0
H680 H 0.48596 0.01706 0.06597 0.0
H681 H 0.46397 0.99654 0.09446 0.0
H682 H 0.54654 0.98762 0.10986 0.0
H683 H 0.56884 0.00851 0.08144 0.0
H684 H 0.51641 0.9873 0.9406 0.0
H685 H 0.5393 0.00411 0.91171 0.0
H686 H 0.45335 0.00289 0.89088 0.0
H687 H 0.43032 0.98585 0.91966 0.0
C688 C 0.98426 0.52794 0.05336 0.0
Eu689 Eu 0.99345 0.50783 0.02214 0.0
C690 C 0.98833 0.52221 0.07234 0.0
C691 C 0.98608 0.493 0.07669 0.0
C692 C 0.99235 0.48893 0.09472 0.0
C693 C 0.00125 0.51414 0.10853 0.0
C694 C 0.00321 0.54316 0.1042 0.0
C695 C 0.99675 0.54715 0.08621 0.0
C696 C 0.96276 0.44654 0.00544 0.0
C697 C 0.0422 0.48098 0.01989 0.0
C698 C 0.02141 0.48654 0.95177 0.0
Eu699 Eu 0.01574 0.50014 0.98536 0.0
C700 C 0.00657 0.48564 0.9337 0.0
C701 C 0.99447 0.50642 0.93047 0.0
C702 C 0.98306 0.50733 0.91287 0.0
C703 C 0.98338 0.48728 0.89839 0.0
C704 C 0.99446 0.46578 0.90169 0.0
C705 C 0.00605 0.46501 0.91927 0.0
C706 C 0.05721 0.55472 0.00718 0.0
C707 C 0.96448 0.52523 0.9868 0.0
O708 O 0.01094 0.54359 0.04578 0.0
O709 O 0.96136 0.5036 0.04258 0.0
O710 O 0.96966 0.45336 0.02293 0.0
O711 O 0.97087 0.47199 0.99787 0.0
O712 O 0.03494 0.49997 0.02973 0.0
O713 O 0.03168 0.47218 0.00246 0.0
O714 O 0.00346 0.46437 0.96203 0.0
O715 O 0.03877 0.51528 0.96074 0.0
O716 O 0.06627 0.53848 0.99691 0.0
O717 O 0.02719 0.54218 0.00487 0.0
O718 O 0.98281 0.51885 0.97682 0.0
O719 O 0.96419 0.52273 0.00448 0.0
H720 H 0.97998 0.4736 0.06612 0.0
H721 H 0.99088 0.46644 0.09787 0.0
H722 H 0.0101 0.56283 0.11474 0.0
H723 H 0.99889 0.56993 0.08308 0.0
H724 H 0.9946 0.52252 0.94144 0.0
H725 H 0.97456 0.52404 0.91048 0.0
H726 H 0.99487 0.45022 0.89059 0.0
H727 H 0.01529 0.44886 0.92153 0.0
C728 C 0.46079 0.47768 0.95257 0.0
Eu729 Eu 0.48492 0.49697 0.98628 0.0
C730 C 0.47438 0.48142 0.93495 0.0
C731 C 0.49591 0.51219 0.92985 0.0
C732 C 0.5085 0.51515 0.9131 0.0
C733 C 0.50007 0.48742 0.90134 0.0
C734 C 0.47899 0.45671 0.90649 0.0
C735 C 0.46618 0.45374 0.92315 0.0
C736 C 0.50825 0.55585 0.00474 0.0
C737 C 0.56255 0.52337 0.98804 0.0
C738 C 0.54776 0.5255 0.05665 0.0
Eu739 Eu 0.52407 0.50687 0.02283 0.0
C740 C 0.53409 0.51841 0.07413 0.0
C741 C 0.50482 0.49001 0.07548 0.0
C742 C 0.49119 0.48444 0.09197 0.0
C743 C 0.50655 0.50735 0.10722 0.0
C744 C 0.53579 0.53565 0.10586 0.0
C745 C 0.54947 0.54113 0.08942 0.0
C746 C 0.50047 0.44838 0.00384 0.0
C747 C 0.44647 0.48138 0.02153 0.0
O748 O 0.46604 0.4596 0.96325 0.0
O749 O 0.46376 0.50375 0.96138 0.0
O750 O 0.48204 0.54186 0.99368 0.0
O751 O 0.52248 0.53977 0.00384 0.0
O752 O 0.53418 0.50876 0.97829 0.0
O753 O 0.56561 0.5295 0.00591 0.0
O754 O 0.53865 0.54178 0.0467 0.0
O755 O 0.54811 0.50168 0.04714 0.0
O756 O 0.52793 0.46292 0.01383 0.0
O757 O 0.48601 0.4641 0.00548 0.0
O758 O 0.47415 0.49047 0.03109 0.0
O759 O 0.44366 0.47983 0.00355 0.0
H760 H 0.50299 0.53398 0.93874 0.0
H761 H 0.52473 0.53901 0.90929 0.0
H762 H 0.47223 0.4351 0.89751 0.0
H763 H 0.44982 0.42981 0.92684 0.0
H764 H 0.49238 0.47234 0.06375 0.0
H765 H 0.46856 0.46254 0.0928 0.0
H766 H 0.54788 0.55356 0.11753 0.0
H767 H 0.57187 0.5633 0.08857 0.0
C768 C 0.20292 0.35787 0.38732 0.0
Eu769 Eu 0.17928 0.34766 0.35344 0.0
C770 C 0.19112 0.34522 0.4046 0.0
C771 C 0.21317 0.35213 0.41976 0.0
C772 C 0.20239 0.34083 0.43637 0.0
C773 C 0.1694 0.32239 0.43802 0.0
C774 C 0.14729 0.31528 0.42284 0.0
C775 C 0.15808 0.32666 0.40623 0.0
C776 C 0.15744 0.38063 0.3347 0.0
C777 C 0.10184 0.29416 0.34919 0.0
C778 C 0.11986 0.30381 0.28147 0.0
Eu779 Eu 0.14249 0.31345 0.31547 0.0
C780 C 0.13347 0.31188 0.26402 0.0
C781 C 0.11383 0.30983 0.2487 0.0
C782 C 0.12676 0.31939 0.23228 0.0
C783 C 0.15956 0.33129 0.23101 0.0
C784 C 0.17922 0.33302 0.24629 0.0
C785 C 0.16623 0.32334 0.26271 0.0
C786 C 0.16451 0.28109 0.33472 0.0
C787 C 0.21968 0.36832 0.31897 0.0
O788 O 0.20469 0.33782 0.37524 0.0
O789 O 0.19134 0.37474 0.38015 0.0
O790 O 0.18269 0.39459 0.34652 0.0
O791 O 0.14331 0.35031 0.33504 0.0
O792 O 0.12969 0.30869 0.35949 0.0
O793 O 0.09984 0.29594 0.33149 0.0
O794 O 0.12473 0.32856 0.29255 0.0
O795 O 0.12388 0.28247 0.28978 0.0
O796 O 0.13793 0.26663 0.3239 0.0
O797 O 0.17902 0.31123 0.33372 0.0
O798 O 0.19273 0.34798 0.30874 0.0
O799 O 0.22145 0.37164 0.33696 0.0
H800 H 0.23873 0.36642 0.41876 0.0
H801 H 0.21975 0.34653 0.44797 0.0
H802 H 0.12174 0.30113 0.4239 0.0
H803 H 0.14066 0.32116 0.39474 0.0
H804 H 0.08857 0.30125 0.2495 0.0
H805 H 0.1113 0.31794 0.22061 0.0
H806 H 0.20459 0.34218 0.24552 0.0
H807 H 0.18181 0.32514 0.27438 0.0
C808 C 0.63901 0.84305 0.38575 0.0
Eu809 Eu 0.65301 0.83152 0.35375 0.0
C810 C 0.64971 0.84365 0.40501 0.0
C811 C 0.63303 0.81625 0.41441 0.0
C812 C 0.64258 0.81683 0.43267 0.0
C813 C 0.66876 0.84489 0.4419 0.0
C814 C 0.68546 0.87231 0.43263 0.0
C815 C 0.67601 0.87174 0.41434 0.0
C816 C 0.62115 0.77464 0.3321 0.0
C817 C 0.70515 0.81031 0.34995 0.0
C818 C 0.69107 0.82241 0.28468 0.0
Eu819 Eu 0.67659 0.83323 0.31665 0.0
C820 C 0.68278 0.82645 0.26599 0.0
C821 C 0.67408 0.84978 0.26249 0.0
C822 C 0.66595 0.85311 0.24464 0.0
C823 C 0.66607 0.83291 0.23015 0.0
C824 C 0.67461 0.80954 0.23365 0.0
C825 C 0.68297 0.80638 0.25148 0.0
C826 C 0.70793 0.89008 0.33836 0.0
C827 C 0.62446 0.85464 0.3203 0.0
O828 O 0.65906 0.86585 0.37651 0.0
O829 O 0.62358 0.81473 0.37617 0.0
O830 O 0.62757 0.77668 0.34953 0.0
O831 O 0.63032 0.80233 0.32709 0.0
O832 O 0.69417 0.82366 0.36146 0.0
O833 O 0.6977 0.80724 0.33218 0.0
O834 O 0.66764 0.80015 0.29256 0.0
O835 O 0.70889 0.84906 0.29549 0.0
O836 O 0.70135 0.88808 0.32095 0.0
O837 O 0.69919 0.86242 0.34329 0.0
O838 O 0.63636 0.84236 0.30876 0.0
O839 O 0.63084 0.85652 0.33811 0.0
H840 H 0.61247 0.79438 0.40769 0.0
H841 H 0.62938 0.79551 0.43968 0.0
H842 H 0.70566 0.89421 0.43961 0.0
H843 H 0.68919 0.89336 0.40757 0.0
H844 H 0.67351 0.86532 0.27355 0.0
H845 H 0.6593 0.87118 0.24211 0.0
H846 H 0.67476 0.79377 0.22258 0.0
H847 H 0.68946 0.78818 0.25395 0.0
C848 C 0.12459 0.80247 0.28518 0.0
Eu849 Eu 0.14858 0.82561 0.31859 0.0
C850 C 0.13842 0.80765 0.26769 0.0
C851 C 0.16373 0.83819 0.26459 0.0
C852 C 0.17717 0.84262 0.24808 0.0
C853 C 0.16569 0.8165 0.23455 0.0
C854 C 0.14065 0.78595 0.23768 0.0
C855 C 0.12708 0.78157 0.25416 0.0
C856 C 0.16975 0.88552 0.33515 0.0
C857 C 0.22695 0.85588 0.32068 0.0
C858 C 0.21279 0.86369 0.38921 0.0
Eu859 Eu 0.18889 0.84093 0.35572 0.0
C860 C 0.19956 0.85873 0.40687 0.0
C861 C 0.17026 0.83094 0.409 0.0
C862 C 0.15724 0.82724 0.42566 0.0
C863 C 0.17327 0.8514 0.44029 0.0
C864 C 0.20249 0.87916 0.43814 0.0
C865 C 0.21555 0.88279 0.42152 0.0
C866 C 0.16765 0.7815 0.3385 0.0
C867 C 0.11053 0.81166 0.35395 0.0
O868 O 0.13368 0.78757 0.29626 0.0
O869 O 0.12388 0.82705 0.29345 0.0
O870 O 0.14386 0.87004 0.32388 0.0
O871 O 0.18488 0.87033 0.3352 0.0
O872 O 0.19857 0.8395 0.31097 0.0
O873 O 0.22996 0.86336 0.33845 0.0
O874 O 0.20304 0.87827 0.37827 0.0
O875 O 0.21348 0.83912 0.38086 0.0
O876 O 0.1951 0.79774 0.34846 0.0
O877 O 0.15204 0.79615 0.33932 0.0
O878 O 0.13868 0.8239 0.3637 0.0
O879 O 0.10746 0.80742 0.33596 0.0
H880 H 0.17309 0.85859 0.27493 0.0
H881 H 0.19651 0.86632 0.24584 0.0
H882 H 0.13154 0.7656 0.22733 0.0
H883 H 0.10781 0.7578 0.25637 0.0
H884 H 0.15739 0.81224 0.39777 0.0
H885 H 0.13463 0.80572 0.42711 0.0
H886 H 0.21511 0.89801 0.44932 0.0
H887 H 0.238 0.90451 0.42006 0.0
C888 C 0.87349 0.69681 0.72196 0.0
Eu889 Eu 0.85096 0.68568 0.68786 0.0
C890 C 0.86056 0.68596 0.73936 0.0
C891 C 0.83074 0.68201 0.74326 0.0
C892 C 0.81878 0.67111 0.75975 0.0
C893 C 0.83637 0.66381 0.77246 0.0
C894 C 0.86601 0.66755 0.76852 0.0
C895 C 0.87802 0.67857 0.7521 0.0
C896 C 0.82838 0.71795 0.66864 0.0
C897 C 0.77397 0.63146 0.68359 0.0
C898 C 0.79322 0.64045 0.61585 0.0
Eu899 Eu 0.81523 0.65206 0.65004 0.0
C900 C 0.80625 0.65162 0.59839 0.0
C901 C 0.81893 0.63562 0.58821 0.0
C902 C 0.83029 0.64565 0.5715 0.0
C903 C 0.82898 0.67169 0.56463 0.0
C904 C 0.81662 0.6879 0.57477 0.0
C905 C 0.80528 0.67792 0.59148 0.0
C906 C 0.83749 0.61967 0.66931 0.0
C907 C 0.89207 0.70665 0.65431 0.0
O908 O 0.87351 0.67477 0.71062 0.0
O909 O 0.86497 0.71537 0.71388 0.0
O910 O 0.85495 0.73244 0.67945 0.0
O911 O 0.81439 0.68786 0.66955 0.0
O912 O 0.80174 0.64613 0.69397 0.0
O913 O 0.77219 0.6335 0.66589 0.0
O914 O 0.79171 0.6616 0.62721 0.0
O915 O 0.80237 0.62246 0.62405 0.0
O916 O 0.81082 0.60529 0.65861 0.0
O917 O 0.85171 0.64975 0.66832 0.0
O918 O 0.86424 0.69222 0.644 0.0
O919 O 0.8939 0.70423 0.67196 0.0
H920 H 0.81672 0.68732 0.73359 0.0
H921 H 0.79583 0.66829 0.76259 0.0
H922 H 0.87985 0.66201 0.77821 0.0
H923 H 0.90094 0.68125 0.74931 0.0
H924 H 0.81983 0.61515 0.59306 0.0
H925 H 0.83967 0.63282 0.56378 0.0
H926 H 0.81535 0.70798 0.56961 0.0
H927 H 0.79546 0.69064 0.59888 0.0
C928 C 0.31714 0.18758 0.71973 0.0
Eu929 Eu 0.32741 0.16958 0.68822 0.0
C930 C 0.3211 0.18173 0.7387 0.0
C931 C 0.32081 0.15338 0.743 0.0
C932 C 0.327 0.14945 0.76109 0.0
C933 C 0.33394 0.17401 0.77498 0.0
C934 C 0.33391 0.20212 0.77066 0.0
C935 C 0.32748 0.20593 0.75263 0.0
C936 C 0.29811 0.10951 0.66992 0.0
C937 C 0.37787 0.14462 0.68498 0.0
C938 C 0.35812 0.1557 0.61733 0.0
Eu939 Eu 0.35139 0.1659 0.65122 0.0
C940 C 0.34237 0.15421 0.59941 0.0
C941 C 0.32904 0.17403 0.5964 0.0
C942 C 0.31662 0.1743 0.57892 0.0
C943 C 0.31711 0.15453 0.56433 0.0
C944 C 0.32943 0.13397 0.56743 0.0
C945 C 0.34205 0.13387 0.58487 0.0
C946 C 0.3909 0.21961 0.67425 0.0
C947 C 0.29805 0.18819 0.65355 0.0
O948 O 0.3439 0.20412 0.71236 0.0
O949 O 0.2948 0.16316 0.70873 0.0
O950 O 0.30374 0.11497 0.6875 0.0
O951 O 0.30623 0.13562 0.66307 0.0
O952 O 0.36876 0.16121 0.69556 0.0
O953 O 0.36907 0.13818 0.66729 0.0
O954 O 0.34187 0.13217 0.62728 0.0
O955 O 0.37352 0.18421 0.62674 0.0
O956 O 0.40112 0.20519 0.66346 0.0
O957 O 0.36082 0.20596 0.67173 0.0
O958 O 0.31654 0.18256 0.64329 0.0
O959 O 0.29795 0.18506 0.67117 0.0
H960 H 0.31636 0.13462 0.73238 0.0
H961 H 0.32707 0.12767 0.76424 0.0
H962 H 0.33929 0.22128 0.78124 0.0
H963 H 0.3281 0.22807 0.74952 0.0
H964 H 0.32891 0.18985 0.60744 0.0
H965 H 0.30716 0.19029 0.57671 0.0
H966 H 0.32999 0.11864 0.55625 0.0
H967 H 0.3522 0.11844 0.58694 0.0
C968 C 0.79643 0.13868 0.62026 0.0
Eu969 Eu 0.82077 0.16175 0.65366 0.0
C970 C 0.80958 0.1434 0.60257 0.0
C971 C 0.8352 0.17357 0.59925 0.0
C972 C 0.84751 0.17766 0.58239 0.0
C973 C 0.83455 0.15156 0.56875 0.0
C974 C 0.80928 0.12134 0.57214 0.0
C975 C 0.79685 0.1173 0.58895 0.0
C976 C 0.84234 0.22171 0.67022 0.0
C977 C 0.89896 0.19121 0.65596 0.0
C978 C 0.88449 0.19937 0.72445 0.0
Eu979 Eu 0.86053 0.17658 0.69093 0.0
C980 C 0.87205 0.19417 0.74233 0.0
C981 C 0.84316 0.16615 0.74479 0.0
C982 C 0.8311 0.16215 0.76175 0.0
C983 C 0.84767 0.18624 0.77637 0.0
C984 C 0.87647 0.21422 0.77389 0.0
C985 C 0.88858 0.21814 0.75698 0.0
C986 C 0.83903 0.11714 0.6737 0.0
C987 C 0.78217 0.14753 0.68886 0.0
O988 O 0.80556 0.12372 0.63127 0.0
O989 O 0.79625 0.16354 0.62855 0.0
O990 O 0.81648 0.20641 0.65893 0.0
O991 O 0.85725 0.2063 0.67036 0.0
O992 O 0.87066 0.17504 0.64616 0.0
O993 O 0.9018 0.19876 0.67371 0.0
O994 O 0.87369 0.21334 0.71369 0.0
O995 O 0.88578 0.17527 0.71595 0.0
O996 O 0.86632 0.1331 0.68382 0.0
O997 O 0.82365 0.13202 0.6744 0.0
O998 O 0.81009 0.15905 0.69875 0.0
O999 O 0.77946 0.14409 0.67086 0.0
H1000 H 0.84559 0.19397 0.60964 0.0
H1001 H 0.86704 0.20112 0.57996 0.0
H1002 H 0.79905 0.10099 0.56171 0.0
H1003 H 0.77728 0.09382 0.59133 0.0
H1004 H 0.82989 0.14751 0.73358 0.0
H1005 H 0.80879 0.14047 0.76344 0.0
H1006 H 0.88949 0.23304 0.78505 0.0
H1007 H 0.91074 0.24001 0.75529 0.0
C1008 C 0.36961 0.89406 0.03343 0.0
C1009 C 0.35932 0.90979 0.04592 0.0
C1010 C 0.40415 0.96251 0.04038 0.0
C1011 C 0.41249 0.94687 0.02656 0.0
N1012 N 0.3989 0.89788 0.00754 0.0
N1013 N 0.36304 0.95912 0.05889 0.0
C1014 C 0.39379 0.91273 0.02226 0.0
C1015 C 0.3756 0.94409 0.04878 0.0
N1016 N 0.35744 0.86134 0.03287 0.0
N1017 N 0.42341 0.99494 0.04553 0.0
H1018 H 0.34198 0.94646 0.06507 0.0
H1019 H 0.37183 0.98399 0.05983 0.0
H1020 H 0.44341 0.0099 0.03905 0.0
H1021 H 0.42077 0.00669 0.05703 0.0
H1022 H 0.36663 0.84911 0.02552 0.0
H1023 H 0.34038 0.84683 0.04122 0.0
H1024 H 0.38344 0.87369 0.00265 0.0
H1025 H 0.41701 0.91007 0.99927 0.0
C1026 C 0.10611 0.45669 0.02743 0.0
C1027 C 0.10582 0.45304 0.04628 0.0
C1028 C 0.05952 0.46099 0.04663 0.0
C1029 C 0.06338 0.47011 0.02863 0.0
N1030 N 0.09673 0.48413 0.0037 0.0
N1031 N 0.08622 0.45888 0.07472 0.0
C1032 C 0.08835 0.46993 0.01944 0.0
C1033 C 0.08365 0.45722 0.05617 0.0
N1034 N 0.12275 0.4469 0.01701 0.0
N1035 N 0.03229 0.45448 0.05442 0.0
H1036 H 0.10428 0.4575 0.08234 0.0
H1037 H 0.07246 0.46506 0.08255 0.0
H1038 H 0.01289 0.45447 0.04747 0.0
H1039 H 0.02739 0.44521 0.06695 0.0
H1040 H 0.1212 0.44636 0.00289 0.0
H1041 H 0.13519 0.43602 0.02222 0.0
H1042 H 0.11678 0.48708 0.99758 0.0
H1043 H 0.08636 0.49646 0.99791 0.0
C1044 C 0.56663 0.64121 0.02772 0.0
C1045 C 0.54493 0.65002 0.03446 0.0
C1046 C 0.49981 0.59601 0.02372 0.0
C1047 C 0.52116 0.58824 0.01518 0.0
N1048 N 0.57421 0.60715 0.00562 0.0
N1049 N 0.49064 0.63789 0.03702 0.0
C1050 C 0.55447 0.6117 0.01637 0.0
C1051 C 0.51144 0.62802 0.03189 0.0
N1052 N 0.59891 0.6611 0.03212 0.0
N1053 N 0.46868 0.57259 0.02476 0.0
H1054 H 0.4982 0.66063 0.04383 0.0
H1055 H 0.46597 0.62447 0.03337 0.0
H1056 H 0.45894 0.54857 0.01945 0.0
H1057 H 0.45321 0.57604 0.03258 0.0
H1058 H 0.61571 0.65422 0.02936 0.0
H1059 H 0.60875 0.68344 0.03992 0.0
H1060 H 0.59788 0.62488 0.00464 0.0
H1061 H 0.56614 0.58733 0.99598 0.0
C1062 C 0.92465 0.35741 0.98724 0.0
C1063 C 0.89842 0.35384 0.9756 0.0
C1064 C 0.91093 0.40852 0.98664 0.0
C1065 C 0.93954 0.41372 0.99644 0.0
N1066 N 0.97472 0.39381 0.00577 0.0
N1067 N 0.86879 0.37714 0.96225 0.0
C1068 C 0.94661 0.38826 0.99678 0.0
C1069 C 0.8922 0.37975 0.97473 0.0
N1070 N 0.9281 0.33109 0.98945 0.0
N1071 N 0.90063 0.43021 0.98953 0.0
H1072 H 0.85414 0.35623 0.95345 0.0
H1073 H 0.86573 0.39662 0.95957 0.0
H1074 H 0.91272 0.45073 0.99893 0.0
H1075 H 0.87838 0.42615 0.9841 0.0
H1076 H 0.94453 0.33108 0.9992 0.0
H1077 H 0.91288 0.30835 0.98237 0.0
H1078 H 0.98328 0.37772 0.00464 0.0
H1079 H 0.99051 0.4154 0.01371 0.0
C1080 C 0.63508 0.52343 0.97033 0.0
C1081 C 0.64564 0.54901 0.95903 0.0
C1082 C 0.59987 0.55574 0.96539 0.0
C1083 C 0.59163 0.53287 0.9784 0.0
N1084 N 0.60464 0.49835 0.9952 0.0
N1085 N 0.64151 0.59357 0.94836 0.0
C1086 C 0.61035 0.51792 0.98155 0.0
C1087 C 0.62892 0.56624 0.9572 0.0
N1088 N 0.64758 0.5033 0.96969 0.0
N1089 N 0.58001 0.56742 0.96072 0.0
H1090 H 0.66303 0.60243 0.94249 0.0
H1091 H 0.63227 0.60913 0.94833 0.0
H1092 H 0.55924 0.56171 0.96685 0.0
H1093 H 0.58288 0.58093 0.94976 0.0
H1094 H 0.63837 0.48213 0.97609 0.0
H1095 H 0.66501 0.50584 0.96122 0.0
H1096 H 0.61999 0.49005 0.99943 0.0
H1097 H 0.58597 0.49228 0.00329 0.0
C1098 C 0.49328 0.11604 0.97595 0.0
C1099 C 0.45974 0.10155 0.97142 0.0
C1100 C 0.45042 0.0572 0.98954 0.0
C1101 C 0.48412 0.06953 0.99245 0.0
N1102 N 0.53766 0.10876 0.98574 0.0
N1103 N 0.40649 0.05575 0.97109 0.0
C1104 C 0.50562 0.09852 0.98499 0.0
C1105 C 0.43838 0.07119 0.97723 0.0
N1106 N 0.51338 0.14682 0.97185 0.0
N1107 N 0.42994 0.0339 0.99959 0.0
H1108 H 0.39666 0.06572 0.96245 0.0
H1109 H 0.39041 0.03193 0.97328 0.0
H1110 H 0.43773 0.02523 0.0101 0.0
H1111 H 0.40557 0.02622 0.99916 0.0
H1112 H 0.53751 0.16035 0.9769 0.0
H1113 H 0.50548 0.15987 0.96446 0.0
H1114 H 0.55365 0.12761 0.97882 0.0
H1115 H 0.54809 0.09649 0.99152 0.0
C1116 C 0.6144 0.0905 0.9517 0.0
C1117 C 0.64433 0.09559 0.95936 0.0
C1118 C 0.61753 0.05982 0.98271 0.0
C1119 C 0.58824 0.05831 0.97664 0.0
N1120 N 0.55989 0.07576 0.95621 0.0
N1121 N 0.67544 0.08777 0.98307 0.0
C1122 C 0.58684 0.07432 0.96124 0.0
C1123 C 0.64619 0.08107 0.97516 0.0
N1124 N 0.61226 0.10111 0.93522 0.0
N1125 N 0.61776 0.03955 0.99488 0.0
H1126 H 0.69682 0.10173 0.97741 0.0
H1127 H 0.67873 0.08128 0.99585 0.0
H1128 H 0.59721 0.02245 1.00014 0.0
H1129 H 0.63765 0.03714 0.99829 0.0
H1130 H 0.59054 0.0945 0.92778 0.0
H1131 H 0.6321 0.1144 0.9282 0.0
H1132 H 0.559 0.09037 0.9466 0.0
H1133 H 0.53904 0.06494 0.96265 0.0
C1134 C 0.8948 0.51952 0.95656 0.0
C1135 C 0.89987 0.55125 0.96025 0.0
C1136 C 0.94633 0.56552 0.98211 0.0
C1137 C 0.94244 0.53438 0.9776 0.0
N1138 N 0.91551 0.48288 0.95897 0.0
N1139 N 0.93229 0.60592 0.97446 0.0
C1140 C 0.9175 0.51177 0.96429 0.0
C1141 C 0.92612 0.57466 0.9725 0.0
N1142 N 0.86755 0.4964 0.9462 0.0
N1143 N 0.96935 0.58637 0.99559 0.0
H1144 H 0.91772 0.61332 0.96782 0.0
H1145 H 0.95294 0.62509 0.98157 0.0
H1146 H 0.98601 0.58154 0.00211 0.0
H1147 H 0.971 0.60775 1.00107 0.0
H1148 H 0.86036 0.47189 0.94476 0.0
H1149 H 0.85057 0.50123 0.94006 0.0
H1150 H 0.9007 0.46736 0.94772 0.0
H1151 H 0.93 0.47498 0.96509 0.0
C1152 C 0.48952 0.37721 0.97201 0.0
C1153 C 0.45809 0.3531 0.97495 0.0
C1154 C 0.4561 0.39028 0.99837 0.0
C1155 C 0.48608 0.41546 0.99406 0.0
N1156 N 0.52932 0.43418 0.9749 0.0
N1157 N 0.40928 0.3377 0.98878 0.0
C1158 C 0.50229 0.40927 0.98039 0.0
C1159 C 0.4407 0.35995 0.98749 0.0
N1160 N 0.50761 0.36925 0.96166 0.0
N1161 N 0.44321 0.39465 0.01347 0.0
H1162 H 0.39736 0.31509 0.98115 0.0
H1163 H 0.39435 0.3427 0.99623 0.0
H1164 H 0.45431 0.41606 0.02221 0.0
H1165 H 0.42309 0.37609 0.01832 0.0
H1166 H 0.53194 0.38481 0.96078 0.0
H1167 H 0.49907 0.34612 0.95511 0.0
H1168 H 0.53998 0.43189 0.96353 0.0
H1169 H 0.53966 0.45788 0.98083 0.0
C1170 C 0.12665 0.62321 0.03852 0.0
C1171 C 0.11852 0.64781 0.03762 0.0
C1172 C 0.0738 0.61322 0.01456 0.0
C1173 C 0.07933 0.58711 0.0171 0.0
N1174 N 0.10941 0.56628 0.03291 0.0
N1175 N 0.08183 0.66503 0.02695 0.0
C1176 C 0.10544 0.59186 0.02939 0.0
C1177 C 0.09129 0.64243 0.0263 0.0
N1178 N 0.1551 0.63006 0.0477 0.0
N1179 N 0.05338 0.61096 1.0002 0.0
H1180 H 0.09436 0.68699 0.0352 0.0
H1181 H 0.0601 0.6608 0.02053 0.0
H1182 H 0.04181 0.59095 0.99046 0.0
H1183 H 0.05076 0.63035 0.99673 0.0
H1184 H 0.16419 0.61436 0.04708 0.0
H1185 H 0.17102 0.65257 0.05482 0.0
H1186 H 0.12531 0.56738 0.04344 0.0
H1187 H 0.09532 0.54318 0.02615 0.0
C1188 C 0.38934 0.48457 0.05421 0.0
C1189 C 0.36167 0.45376 0.04946 0.0
C1190 C 0.38922 0.44078 0.0264 0.0
C1191 C 0.41749 0.47142 0.0315 0.0
N1192 N 0.44612 0.51977 0.05305 0.0
N1193 N 0.33628 0.40033 0.03347 0.0
C1194 C 0.41812 0.49239 0.0463 0.0
C1195 C 0.36188 0.43126 0.0362 0.0
N1196 N 0.38771 0.50707 0.06572 0.0
N1197 N 0.3885 0.4205 0.01232 0.0
H1198 H 0.31583 0.39269 0.04031 0.0
H1199 H 0.33605 0.38148 0.02557 0.0
H1200 H 0.40871 0.42431 0.00614 0.0
H1201 H 0.36757 0.40022 0.00624 0.0
H1202 H 0.40558 0.53137 0.06784 0.0
H1203 H 0.36734 0.50219 0.07212 0.0
H1204 H 0.44883 0.53282 0.06544 0.0
H1205 H 0.46744 0.52887 0.04707 0.0
C1206 C 0.5604 0.92182 0.01711 0.0
C1207 C 0.54526 0.90541 0.03208 0.0
C1208 C 0.50229 0.91788 0.02629 0.0
C1209 C 0.51815 0.93581 0.01186 0.0
N1210 N 0.56259 0.9559 0.99357 0.0
N1211 N 0.50486 0.89167 0.05282 0.0
C1212 C 0.54745 0.93827 0.00737 0.0
C1213 C 0.51715 0.90468 0.03725 0.0
N1214 N 0.58668 0.92084 0.01196 0.0
N1215 N 0.47249 0.91261 0.02921 0.0
H1216 H 0.51419 0.88051 0.06083 0.0
H1217 H 0.48695 0.89405 0.05863 0.0
H1218 H 0.46102 0.92219 0.02169 0.0
H1219 H 0.45794 0.89665 0.038 0.0
H1220 H 0.59703 0.92903 1.00006 0.0
H1221 H 0.59763 0.91041 0.01934 0.0
H1222 H 0.5857 0.96199 0.99087 0.0
H1223 H 0.55244 0.96564 0.985 0.0
C1224 C 0.03496 0.2726 0.38005 0.0
C1225 C 0.01859 0.23828 0.37723 0.0
C1226 C 0.05335 0.24105 0.35378 0.0
C1227 C 0.07213 0.27518 0.35808 0.0
N1228 N 0.08305 0.32333 0.37696 0.0
N1229 N 0.01656 0.18971 0.36428 0.0
C1230 C 0.06369 0.29091 0.37178 0.0
C1231 C 0.02892 0.22245 0.36484 0.0
N1232 N 0.02232 0.28776 0.38998 0.0
N1233 N 0.05868 0.22616 0.33917 0.0
H1234 H 0.9993 0.17525 0.37255 0.0
H1235 H 0.02573 0.17738 0.35701 0.0
H1236 H 0.077 0.23834 0.33101 0.0
H1237 H 0.04324 0.20198 0.33425 0.0
H1238 H 0.03122 0.31264 0.39087 0.0
H1239 H 0.0011 0.27519 0.39603 0.0
H1240 H 0.08028 0.33512 0.3884 0.0
H1241 H 0.10323 0.33821 0.37059 0.0
C1242 C 0.73752 0.76468 0.37629 0.0
C1243 C 0.77085 0.7841 0.37482 0.0
C1244 C 0.75975 0.81561 0.35364 0.0
C1245 C 0.72711 0.79943 0.35729 0.0
N1246 N 0.6853 0.76028 0.37357 0.0
N1247 N 0.81437 0.83193 0.3647 0.0
C1248 C 0.71611 0.77451 0.36909 0.0
C1249 C 0.78218 0.81054 0.36412 0.0
N1250 N 0.72615 0.73619 0.38395 0.0
N1251 N 0.76955 0.8358 0.3402 0.0
H1252 H 0.83165 0.82973 0.37261 0.0
H1253 H 0.82376 0.85363 0.3588 0.0
H1254 H 0.75428 0.84071 0.33226 0.0
H1255 H 0.79231 0.84539 0.33579 0.0
H1256 H 0.70181 0.71935 0.38371 0.0
H1257 H 0.74102 0.72781 0.38899 0.0
H1258 H 0.67722 0.74496 0.38382 0.0
H1259 H 0.66824 0.76532 0.36788 0.0
C1260 C 0.16971 0.95717 0.36096 0.0
C1261 C 0.20308 0.97904 0.36482 0.0
C1262 C 0.21451 0.94168 0.34727 0.0
C1263 C 0.18122 0.91797 0.34516 0.0
N1264 N 0.12746 0.90183 0.35281 0.0
N1265 N 0.25754 0.99047 0.36433 0.0
C1266 C 0.15884 0.92538 0.35269 0.0
C1267 C 0.22556 0.97068 0.35889 0.0
N1268 N 0.14834 0.9669 0.36505 0.0
N1269 N 0.23536 0.93782 0.33717 0.0
H1270 H 0.26666 0.01249 0.37235 0.0
H1271 H 0.27465 0.98375 0.36215 0.0
H1272 H 0.22808 0.91854 0.32726 0.0
H1273 H 0.25922 0.95574 0.33694 0.0
H1274 H 0.12399 0.95359 0.36048 0.0
H1275 H 0.15527 0.98951 0.37182 0.0
H1276 H 0.11113 0.90512 0.35988 0.0
H1277 H 0.11819 0.87782 0.34764 0.0
C1278 C 0.55428 0.70969 0.29783 0.0
C1279 C 0.55925 0.68324 0.29993 0.0
C1280 C 0.60748 0.71813 0.32086 0.0
C1281 C 0.6003 0.74355 0.32052 0.0
N1282 N 0.56287 0.76099 0.31123 0.0
N1283 N 0.58809 0.66062 0.31493 0.0
C1284 C 0.57277 0.7388 0.30957 0.0
C1285 C 0.58519 0.68699 0.31186 0.0
N1286 N 0.532 0.70708 0.28453 0.0
N1287 N 0.6362 0.72405 0.32914 0.0
H1288 H 0.5727 0.63758 0.30823 0.0
H1289 H 0.60421 0.66105 0.32508 0.0
H1290 H 0.65349 0.74667 0.33548 0.0
H1291 H 0.64423 0.70749 0.32821 0.0
H1292 H 0.52984 0.72671 0.28101 0.0
H1293 H 0.51756 0.68589 0.27588 0.0
H1294 H 0.54118 0.75716 0.305 0.0
H1295 H 0.57447 0.78172 0.32038 0.0
C1296 C 0.30086 0.85851 0.30346 0.0
C1297 C 0.30968 0.8826 0.29125 0.0
C1298 C 0.26284 0.88756 0.29734 0.0
C1299 C 0.25614 0.86613 0.31106 0.0
N1300 N 0.27222 0.83522 0.32922 0.0
N1301 N 0.30257 0.92443 0.279 0.0
C1302 C 0.27633 0.85301 0.31483 0.0
C1303 C 0.29158 0.8983 0.28881 0.0
N1304 N 0.3148 0.83966 0.30357 0.0
N1305 N 0.2418 0.89766 0.29233 0.0
H1306 H 0.32377 0.93337 0.2728 0.0
H1307 H 0.29231 0.93908 0.27841 0.0
H1308 H 0.22131 0.89196 0.29876 0.0
H1309 H 0.24345 0.90983 0.2809 0.0
H1310 H 0.30686 0.81938 0.31071 0.0
H1311 H 0.33215 0.84217 0.29505 0.0
H1312 H 0.28862 0.82842 0.3338 0.0
H1313 H 0.25386 0.82928 0.33752 0.0
C1314 C 0.15487 0.44519 0.30769 0.0
C1315 C 0.12139 0.43095 0.30301 0.0
C1316 C 0.11142 0.38611 0.32086 0.0
C1317 C 0.14507 0.39825 0.32394 0.0
N1318 N 0.1989 0.43746 0.31762 0.0
N1319 N 0.06798 0.38527 0.30223 0.0
C1320 C 0.16687 0.42735 0.31668 0.0
C1321 C 0.09976 0.40046 0.30858 0.0
N1322 N 0.17523 0.47606 0.30382 0.0
N1323 N 0.09061 0.36273 0.33075 0.0
H1324 H 0.05846 0.39549 0.29357 0.0
H1325 H 0.05171 0.3614 0.30425 0.0
H1326 H 0.09809 0.35389 0.34131 0.0
H1327 H 0.06626 0.35518 0.33017 0.0
H1328 H 0.19929 0.4894 0.30901 0.0
H1329 H 0.1676 0.48937 0.29648 0.0
H1330 H 0.21509 0.45637 0.31081 0.0
H1331 H 0.20913 0.42505 0.32344 0.0
C1332 C 0.27442 0.41797 0.28394 0.0
C1333 C 0.30466 0.42422 0.29181 0.0
C1334 C 0.2787 0.39011 0.31595 0.0
C1335 C 0.24899 0.38741 0.30954 0.0
N1336 N 0.21986 0.40298 0.28838 0.0
N1337 N 0.33661 0.4192 0.31627 0.0
C1338 C 0.2471 0.40223 0.29369 0.0
C1339 C 0.30709 0.41124 0.30814 0.0
N1340 N 0.27171 0.427 0.26705 0.0
N1341 N 0.27961 0.371 0.3287 0.0
H1342 H 0.35786 0.43314 0.31048 0.0
H1343 H 0.34021 0.41384 0.32931 0.0
H1344 H 0.25932 0.35396 0.33418 0.0
H1345 H 0.2999 0.36944 0.33242 0.0
H1346 H 0.24975 0.41927 0.25954 0.0
H1347 H 0.29134 0.44003 0.25983 0.0
H1348 H 0.21861 0.41674 0.27834 0.0
H1349 H 0.19917 0.39259 0.29499 0.0
C1350 C 0.59354 0.90155 0.294 0.0
C1351 C 0.56013 0.88246 0.29525 0.0
C1352 C 0.57014 0.85011 0.31632 0.0
C1353 C 0.60292 0.86602 0.3129 0.0
N1354 N 0.64542 0.90529 0.29699 0.0
N1355 N 0.51589 0.83482 0.30502 0.0
C1356 C 0.61449 0.89123 0.30126 0.0
C1357 C 0.5482 0.85582 0.3058 0.0
N1358 N 0.60542 0.9302 0.28645 0.0
N1359 N 0.55971 0.82954 0.32955 0.0
H1360 H 0.49895 0.83756 0.29713 0.0
H1361 H 0.50604 0.81294 0.31075 0.0
H1362 H 0.57448 0.82396 0.33746 0.0
H1363 H 0.53688 0.8202 0.33384 0.0
H1364 H 0.62985 0.94684 0.28687 0.0
H1365 H 0.59087 0.93887 0.28132 0.0
H1366 H 0.65383 0.92065 0.28678 0.0
H1367 H 0.66229 0.90015 0.30283 0.0
C1368 C 0.10984 0.69246 0.32311 0.0
C1369 C 0.1271 0.68603 0.31028 0.0
C1370 C 0.17091 0.7424 0.31566 0.0
C1371 C 0.15455 0.74833 0.32934 0.0
N1372 N 0.11249 0.72699 0.34922 0.0
N1373 N 0.17652 0.70271 0.29679 0.0
C1374 C 0.12507 0.7228 0.33394 0.0
C1375 C 0.15838 0.71039 0.30727 0.0
N1376 N 0.07863 0.66987 0.32465 0.0
N1377 N 0.19775 0.7675 0.31015 0.0
H1378 H 0.16815 0.67958 0.29028 0.0
H1379 H 0.20077 0.71849 0.29579 0.0
H1380 H 0.20805 0.79112 0.3162 0.0
H1381 H 0.2084 0.76541 0.29873 0.0
H1382 H 0.06375 0.67458 0.33232 0.0
H1383 H 0.06678 0.64723 0.31704 0.0
H1384 H 0.0928 0.70823 0.35428 0.0
H1385 H 0.1235 0.74853 0.35785 0.0
C1386 C 0.74238 0.97699 0.35956 0.0
C1387 C 0.76877 0.98097 0.37115 0.0
C1388 C 0.7565 0.92615 0.36063 0.0
C1389 C 0.72855 0.9211 0.35002 0.0
N1390 N 0.6916 0.93968 0.34212 0.0
N1391 N 0.79764 0.95779 0.38551 0.0
C1392 C 0.72059 0.946 0.35021 0.0
C1393 C 0.77468 0.95497 0.37262 0.0
N1394 N 0.7385 0.00301 0.3572 0.0
N1395 N 0.76707 0.90458 0.35837 0.0
H1396 H 0.81206 0.97888 0.39423 0.0
H1397 H 0.8005 0.93837 0.38861 0.0
H1398 H 0.7557 0.88419 0.34896 0.0
H1399 H 0.78902 0.90867 0.36434 0.0
H1400 H 0.72205 0.00263 0.34729 0.0
H1401 H 0.75335 0.02582 0.3643 0.0
H1402 H 0.68297 0.9557 0.34344 0.0
H1403 H 0.67475 0.91718 0.33545 0.0
C1404 C 0.05443 0.81036 0.38878 0.0
C1405 C 0.02527 0.78241 0.38159 0.0
C1406 C 0.0532 0.77078 0.35832 0.0
C1407 C 0.08139 0.80121 0.36382 0.0
N1408 N 0.10725 0.85214 0.38328 0.0
N1409 N 0.99563 0.7373 0.35857 0.0
C1410 C 0.08173 0.82148 0.3789 0.0
C1411 C 0.02429 0.76302 0.36606 0.0
N1412 N 0.05608 0.82635 0.4051 0.0
N1413 N 0.05436 0.74839 0.3465 0.0
H1414 H 0.9742 0.72982 0.36437 0.0
H1415 H 0.99274 0.72477 0.34596 0.0
H1416 H 0.07521 0.75222 0.34108 0.0
H1417 H 0.03551 0.72463 0.34356 0.0
H1418 H 0.07757 0.84432 0.41219 0.0
H1419 H 0.0363 0.81985 0.41239 0.0
H1420 H 0.10697 0.86914 0.39262 0.0
H1421 H 0.12777 0.86214 0.37651 0.0
C1422 C 0.17122 0.22378 0.36603 0.0
C1423 C 0.20386 0.23278 0.36541 0.0
C1424 C 0.2095 0.27046 0.34304 0.0
C1425 C 0.17787 0.26407 0.34511 0.0
N1426 N 0.13029 0.23816 0.36083 0.0
N1427 N 0.25571 0.26816 0.35571 0.0
C1428 C 0.15915 0.24163 0.3572 0.0
C1429 C 0.22353 0.25724 0.35465 0.0
N1430 N 0.15138 0.19744 0.37455 0.0
N1431 N 0.22543 0.28743 0.32925 0.0
H1432 H 0.2667 0.25876 0.36396 0.0
H1433 H 0.27185 0.28835 0.34968 0.0
H1434 H 0.21544 0.29613 0.31984 0.0
H1435 H 0.24721 0.29004 0.32598 0.0
H1436 H 0.12657 0.18738 0.37355 0.0
H1437 H 0.15928 0.18387 0.38139 0.0
H1438 H 0.11746 0.22531 0.37117 0.0
H1439 H 0.1204 0.25038 0.35452 0.0
C1440 C 0.70696 0.6089 0.71451 0.0
C1441 C 0.69059 0.57463 0.7114 0.0
C1442 C 0.72525 0.57811 0.68773 0.0
C1443 C 0.74417 0.61217 0.69239 0.0
N1444 N 0.75522 0.65969 0.71198 0.0
N1445 N 0.68846 0.52637 0.69783 0.0
C1446 C 0.73575 0.62746 0.70636 0.0
C1447 C 0.70084 0.55915 0.69872 0.0
N1448 N 0.6943 0.62381 0.72463 0.0
N1449 N 0.73047 0.56363 0.67289 0.0
H1450 H 0.67125 0.51163 0.70604 0.0
H1451 H 0.6976 0.51425 0.69033 0.0
H1452 H 0.74881 0.57601 0.66478 0.0
H1453 H 0.71492 0.53958 0.66775 0.0
H1454 H 0.70321 0.64871 0.72573 0.0
H1455 H 0.673 0.61106 0.73059 0.0
H1456 H 0.7524 0.67104 0.72359 0.0
H1457 H 0.77561 0.67479 0.70585 0.0
C1458 C 0.40865 0.09977 0.71344 0.0
C1459 C 0.44173 0.11677 0.71091 0.0
C1460 C 0.43147 0.14746 0.6888 0.0
C1461 C 0.39933 0.13376 0.69324 0.0
N1462 N 0.35852 0.09975 0.7119 0.0
N1463 N 0.48582 0.1618 0.69913 0.0
C1464 C 0.3883 0.11087 0.70625 0.0
C1465 C 0.45349 0.14195 0.69935 0.0
N1466 N 0.39635 0.07223 0.72209 0.0
N1467 N 0.44123 0.16572 0.67454 0.0
H1468 H 0.50288 0.15937 0.7071 0.0
H1469 H 0.49571 0.18274 0.69248 0.0
H1470 H 0.42633 0.17093 0.66652 0.0
H1471 H 0.46337 0.17323 0.66962 0.0
H1472 H 0.37185 0.05696 0.72266 0.0
H1473 H 0.41032 0.06284 0.72712 0.0
H1474 H 0.35089 0.08616 0.7229 0.0
H1475 H 0.34223 0.10599 0.70649 0.0
C1476 C 0.8426 0.2936 0.69577 0.0
C1477 C 0.87597 0.31589 0.69903 0.0
C1478 C 0.88722 0.2782 0.68168 0.0
C1479 C 0.85402 0.25428 0.68008 0.0
N1480 N 0.80066 0.23787 0.68848 0.0
N1481 N 0.9305 0.32794 0.69781 0.0
C1482 C 0.8318 0.26164 0.68784 0.0
C1483 C 0.89842 0.30764 0.6929 0.0
N1484 N 0.82116 0.3031 0.7001 0.0
N1485 N 0.90779 0.27401 0.67149 0.0
H1486 H 0.9397 0.35029 0.7055 0.0
H1487 H 0.94772 0.32143 0.69553 0.0
H1488 H 0.90039 0.25417 0.66197 0.0
H1489 H 0.93147 0.29201 0.67082 0.0
H1490 H 0.79665 0.28936 0.69596 0.0
H1491 H 0.82807 0.32588 0.70663 0.0
H1492 H 0.78452 0.24115 0.69574 0.0
H1493 H 0.79153 0.2138 0.68348 0.0
C1494 C 0.25905 0.02139 0.64965 0.0
C1495 C 0.2313 0.01791 0.63969 0.0
C1496 C 0.24478 0.07221 0.65226 0.0
C1497 C 0.2745 0.07729 0.6604 0.0
N1498 N 0.31111 0.05763 0.66631 0.0
N1499 N 0.19969 0.04124 0.62937 0.0
C1500 C 0.2819 0.05204 0.65905 0.0
C1501 C 0.22472 0.0437 0.64038 0.0
N1502 N 0.26312 0.99515 0.65044 0.0
N1503 N 0.23483 0.09374 0.6567 0.0
H1504 H 0.18407 0.0205 0.62067 0.0
H1505 H 0.19604 0.06069 0.62774 0.0
H1506 H 0.24814 0.11421 0.66601 0.0
H1507 H 0.212 0.08966 0.65259 0.0
H1508 H 0.2809 0.99503 0.65904 0.0
H1509 H 0.24719 0.97254 0.64342 0.0
H1510 H 0.31963 0.04173 0.66393 0.0
H1511 H 0.32777 0.07919 0.67398 0.0
C1512 C 0.97241 0.19235 0.63901 0.0
C1513 C 0.98168 0.21632 0.6267 0.0
C1514 C 0.93532 0.2223 0.63262 0.0
C1515 C 0.92824 0.20102 0.64645 0.0
N1516 N 0.94371 0.16997 0.66489 0.0
N1517 N 0.97558 0.25869 0.61437 0.0
C1518 C 0.94805 0.18752 0.65038 0.0
C1519 C 0.96409 0.23254 0.62417 0.0
N1520 N 0.98574 0.17295 0.63921 0.0
N1521 N 0.91463 0.23271 0.62741 0.0
H1522 H 0.99687 0.26737 0.60828 0.0
H1523 H 0.96567 0.27364 0.61372 0.0
H1524 H 0.8941 0.2273 0.63372 0.0
H1525 H 0.91659 0.24481 0.61591 0.0
H1526 H 0.97743 0.15275 0.64645 0.0
H1527 H 0.00288 0.1749 0.63067 0.0
H1528 H 0.95985 0.16289 0.66955 0.0
H1529 H 0.92547 0.16456 0.67323 0.0
C1530 C 0.82325 0.77726 0.63818 0.0
C1531 C 0.78992 0.76609 0.63685 0.0
C1532 C 0.78211 0.72526 0.65747 0.0
C1533 C 0.8151 0.73452 0.65763 0.0
N1534 N 0.86527 0.76488 0.64469 0.0
N1535 N 0.73655 0.72575 0.64218 0.0
C1536 C 0.83521 0.75934 0.64705 0.0
C1537 C 0.769 0.73881 0.6455 0.0
N1538 N 0.8437 0.80552 0.63139 0.0
N1539 N 0.76371 0.7052 0.66957 0.0
H1540 H 0.72619 0.73539 0.63365 0.0
H1541 H 0.71997 0.70376 0.64652 0.0
H1542 H 0.77268 0.69629 0.67936 0.0
H1543 H 0.74051 0.70027 0.67127 0.0
H1544 H 0.86858 0.81692 0.63394 0.0
H1545 H 0.83588 0.819 0.62438 0.0
H1546 H 0.87958 0.78003 0.6355 0.0
H1547 H 0.8747 0.75187 0.65053 0.0
C1548 C 0.96608 0.77932 0.64001 0.0
C1549 C 0.97635 0.76407 0.6272 0.0
C1550 C 0.93022 0.71122 0.63135 0.0
C1551 C 0.92189 0.72618 0.64556 0.0
N1552 N 0.93589 0.7742 0.66565 0.0
N1553 N 0.97184 0.71496 0.6132 0.0
C1554 C 0.94117 0.7601 0.65066 0.0
C1555 C 0.95938 0.72984 0.62351 0.0
N1556 N 0.97902 0.8122 0.64137 0.0
N1557 N 0.9104 0.67923 0.62528 0.0
H1558 H 0.99339 0.72769 0.60747 0.0
H1559 H 0.96245 0.68999 0.6117 0.0
H1560 H 0.88987 0.66397 0.63125 0.0
H1561 H 0.91319 0.66827 0.61349 0.0
H1562 H 0.96999 0.82431 0.64899 0.0
H1563 H 0.99663 0.82714 0.63342 0.0
H1564 H 0.95166 0.798 0.67112 0.0
H1565 H 0.91719 0.76171 0.67352 0.0
C1566 C 0.23367 0.18631 0.62034 0.0
C1567 C 0.23331 0.21436 0.62737 0.0
C1568 C 0.27715 0.2267 0.65074 0.0
C1569 C 0.27568 0.19721 0.64467 0.0
N1570 N 0.2492 0.14628 0.62556 0.0
N1571 N 0.25173 0.25951 0.65031 0.0
C1572 C 0.25315 0.17635 0.6299 0.0
C1573 C 0.25416 0.23402 0.64292 0.0
N1574 N 0.2156 0.16932 0.60441 0.0
N1575 N 0.30146 0.24844 0.66337 0.0
H1576 H 0.23625 0.26654 0.64448 0.0
H1577 H 0.26345 0.27238 0.66285 0.0
H1578 H 0.31889 0.24414 0.66934 0.0
H1579 H 0.30605 0.27188 0.66685 0.0
H1580 H 0.21791 0.15121 0.59737 0.0
H1581 H 0.19978 0.17481 0.59745 0.0
H1582 H 0.23066 0.12853 0.61641 0.0
H1583 H 0.26272 0.13778 0.63222 0.0
C1584 C 0.78072 0.02844 0.65789 0.0
C1585 C 0.79804 0.02195 0.64513 0.0
C1586 C 0.84229 0.07803 0.65088 0.0
C1587 C 0.82582 0.08402 0.66447 0.0
N1588 N 0.78337 0.06277 0.6841 0.0
N1589 N 0.84771 0.03825 0.63199 0.0
C1590 C 0.79609 0.05863 0.66887 0.0
C1591 C 0.82956 0.04609 0.64236 0.0
N1592 N 0.74935 0.00608 0.65922 0.0
N1593 N 0.86945 0.10303 0.64559 0.0
H1594 H 0.83921 0.01514 0.62541 0.0
H1595 H 0.87206 0.05383 0.63117 0.0
H1596 H 0.87992 0.12658 0.65176 0.0
H1597 H 0.88024 0.10095 0.63422 0.0
H1598 H 0.73449 0.01091 0.66684 0.0
H1599 H 0.73739 0.98356 0.65149 0.0
H1600 H 0.76345 0.04406 0.68901 0.0
H1601 H 0.79446 0.0842 0.69283 0.0
C1602 C 0.45854 0.28859 0.70617 0.0
C1603 C 0.45017 0.31297 0.70486 0.0
C1604 C 0.40597 0.27775 0.68164 0.0
C1605 C 0.41188 0.25198 0.68448 0.0
N1606 N 0.44166 0.23171 0.70106 0.0
N1607 N 0.41324 0.32949 0.69359 0.0
C1608 C 0.43768 0.25711 0.69714 0.0
C1609 C 0.42303 0.30714 0.69328 0.0
N1610 N 0.48689 0.2958 0.71563 0.0
N1611 N 0.38564 0.27502 0.6671 0.0
H1612 H 0.42544 0.35154 0.70177 0.0
H1613 H 0.39157 0.32497 0.68694 0.0
H1614 H 0.37423 0.25479 0.6575 0.0
H1615 H 0.38283 0.29419 0.6634 0.0
H1616 H 0.49613 0.28023 0.71531 0.0
H1617 H 0.50259 0.31844 0.72267 0.0
H1618 H 0.45749 0.23309 0.71172 0.0
H1619 H 0.4274 0.20845 0.69454 0.0
C1620 C 0.72209 0.14937 0.71962 0.0
C1621 C 0.69606 0.11725 0.71581 0.0
C1622 C 0.72594 0.10483 0.69414 0.0
C1623 C 0.75275 0.13676 0.69849 0.0
N1624 N 0.77822 0.18737 0.71824 0.0
N1625 N 0.67451 0.06271 0.70204 0.0
C1626 C 0.75147 0.15833 0.71216 0.0
C1627 C 0.69834 0.09451 0.70376 0.0
N1628 N 0.71826 0.17188 0.72974 0.0
N1629 N 0.72682 0.08414 0.68092 0.0
H1630 H 0.65388 0.05443 0.70877 0.0
H1631 H 0.67612 0.04403 0.69517 0.0
H1632 H 0.7474 0.0889 0.67486 0.0
H1633 H 0.70672 0.06255 0.67533 0.0
H1634 H 0.73474 0.19663 0.73102 0.0
H1635 H 0.69733 0.16629 0.73571 0.0
H1636 H 0.77975 0.20147 0.72995 0.0
H1637 H 0.79976 0.19691 0.71247 0.0
C1638 C 0.8963 0.59676 0.69102 0.0
C1639 C 0.87538 0.57004 0.70005 0.0
C1640 C 0.83068 0.57826 0.69078 0.0
C1641 C 0.85069 0.60274 0.68 0.0
N1642 N 0.90127 0.63059 0.66708 0.0
N1643 N 0.82169 0.53184 0.70634 0.0
C1644 C 0.88327 0.61093 0.67945 0.0
C1645 C 0.84228 0.55976 0.6993 0.0
N1646 N 0.92868 0.60878 0.69363 0.0
N1647 N 0.80111 0.57361 0.69367 0.0
H1648 H 0.82927 0.51792 0.71307 0.0
H1649 H 0.79681 0.52106 0.70422 0.0
H1650 H 0.79195 0.58705 0.68807 0.0
H1651 H 0.78701 0.55879 0.70304 0.0
H1652 H 0.94542 0.63041 0.68903 0.0
H1653 H 0.93895 0.59859 0.70178 0.0
H1654 H 0.92404 0.63473 0.66485 0.0
H1655 H 0.89229 0.64002 0.65761 0.0
C1656 C 0.46204 0.93425 0.14008 0.0
C1657 C 0.47118 0.95698 0.15563 0.0
C1658 C 0.50061 0.00186 0.13731 0.0
C1659 C 0.49101 0.97917 0.12169 0.0
N1660 N 0.45858 0.92464 0.10723 0.0
N1661 N 0.4941 0.01218 0.16882 0.0
C1662 C 0.4704 0.94558 0.12278 0.0
C1663 C 0.48889 0.99076 0.15415 0.0
N1664 N 0.44632 0.90183 0.14201 0.0
N1665 N 0.52172 0.03392 0.13612 0.0
H1666 H 0.48639 0.0049 0.18145 0.0
H1667 H 0.50384 0.03696 0.16823 0.0
H1668 H 0.52982 0.04315 0.1239 0.0
H1669 H 0.53277 0.0512 0.14733 0.0
H1670 H 0.44223 0.88401 0.13173 0.0
H1671 H 0.4388 0.89268 0.15434 0.0
H1672 H 0.44081 0.90042 0.10675 0.0
H1673 H 0.46491 0.93202 0.09441 0.0
C1674 C 0.99384 0.49825 0.15827 0.0
C1675 C 0.02661 0.51128 0.16469 0.0
C1676 C 0.04158 0.5202 0.13363 0.0
C1677 C 0.0094 0.51075 0.12759 0.0
N1678 N 0.95493 0.49241 0.13384 0.0
N1679 N 0.08229 0.537 0.15915 0.0
C1680 C 0.98546 0.50002 0.13981 0.0
C1681 C 0.05066 0.52263 0.15252 0.0
N1682 N 0.97078 0.4837 0.1698 0.0
N1683 N 0.06336 0.52659 0.12125 0.0
H1684 H 0.08985 0.5386 0.17285 0.0
H1685 H 0.1012 0.54924 0.15136 0.0
H1686 H 0.05777 0.52591 0.10735 0.0
H1687 H 0.08623 0.53013 0.12447 0.0
H1688 H 0.94628 0.47083 0.16562 0.0
H1689 H 0.97619 0.48226 0.18343 0.0
H1690 H 0.93725 0.48815 0.14243 0.0
H1691 H 0.94763 0.49215 0.12026 0.0
C1692 C 0.46269 0.51523 0.14634 0.0
C1693 C 0.47172 0.50042 0.15972 0.0
C1694 C 0.50109 0.48728 0.13808 0.0
C1695 C 0.4921 0.50213 0.12472 0.0
N1696 N 0.45926 0.52415 0.11456 0.0
N1697 N 0.49347 0.46663 0.16763 0.0
C1698 C 0.47115 0.51408 0.12835 0.0
C1699 C 0.489 0.48456 0.15532 0.0
N1700 N 0.44729 0.53164 0.15106 0.0
N1701 N 0.52204 0.47678 0.13445 0.0
H1702 H 0.48502 0.46438 0.1804 0.0
H1703 H 0.50314 0.45188 0.16475 0.0
H1704 H 0.53034 0.47721 0.12173 0.0
H1705 H 0.53261 0.46927 0.14421 0.0
H1706 H 0.44348 0.54628 0.14262 0.0
H1707 H 0.43986 0.5322 0.16394 0.0
H1708 H 0.44129 0.52993 0.1158 0.0
H1709 H 0.46555 0.5243 0.10133 0.0
C1710 C 0.93315 0.46919 0.85321 0.0
C1711 C 0.95696 0.4901 0.8425 0.0
C1712 C 0.99761 0.51081 0.86877 0.0
C1713 C 0.97379 0.48994 0.8795 0.0
N1714 N 0.91828 0.45367 0.8833 0.0
N1715 N 0.00999 0.53475 0.84026 0.0
C1716 C 0.94129 0.47053 0.87213 0.0
C1717 C 0.98864 0.51224 0.85038 0.0
N1718 N 0.90308 0.44733 0.84512 0.0
N1719 N 0.02898 0.52842 0.87605 0.0
H1720 H 0.00439 0.53594 0.82662 0.0
H1721 H 0.03242 0.55376 0.8456 0.0
H1722 H 0.03628 0.52906 0.88968 0.0
H1723 H 0.04811 0.54107 0.86848 0.0
H1724 H 0.88569 0.42875 0.85159 0.0
H1725 H 0.89587 0.44667 0.83147 0.0
H1726 H 0.89376 0.44169 0.87927 0.0
H1727 H 0.92359 0.45352 0.89714 0.0
C1728 C 0.55065 0.48861 0.86361 0.0
C1729 C 0.5323 0.48982 0.8483 0.0
C1730 C 0.49367 0.49103 0.86789 0.0
C1731 C 0.51229 0.49039 0.88324 0.0
N1732 N 0.56123 0.49469 0.8965 0.0
N1733 N 0.49053 0.49897 0.83596 0.0
C1734 C 0.54174 0.4912 0.88134 0.0
C1735 C 0.50507 0.49315 0.85049 0.0
N1736 N 0.57572 0.48357 0.86112 0.0
N1737 N 0.46463 0.48869 0.86988 0.0
H1738 H 0.49827 0.50064 0.82302 0.0
H1739 H 0.47262 0.5049 0.83696 0.0
H1740 H 0.45607 0.48847 0.88249 0.0
H1741 H 0.44808 0.48496 0.85901 0.0
H1742 H 0.58779 0.47872 0.87146 0.0
H1743 H 0.58332 0.48224 0.84838 0.0
H1744 H 0.58452 0.49895 0.89617 0.0
H1745 H 0.55502 0.49579 0.90966 0.0
C1746 C 0.53852 0.05929 0.86259 0.0
C1747 C 0.53102 0.03586 0.84763 0.0
C1748 C 0.50411 0.99192 0.86691 0.0
C1749 C 0.51162 0.01535 0.88187 0.0
N1750 N 0.54046 0.07087 0.89517 0.0
N1751 N 0.51221 0.98066 0.83586 0.0
C1752 C 0.53037 0.04895 0.88009 0.0
C1753 C 0.51558 0.00237 0.84992 0.0
N1754 N 0.55237 0.09133 0.85988 0.0
N1755 N 0.48512 0.95973 0.86883 0.0
H1756 H 0.51983 0.98748 0.82315 0.0
H1757 H 0.50414 0.95631 0.83707 0.0
H1758 H 0.47748 0.95114 0.88125 0.0
H1759 H 0.47546 0.94153 0.85803 0.0
H1760 H 0.55502 0.10934 0.86961 0.0
H1761 H 0.55981 0.09988 0.84742 0.0
H1762 H 0.55696 0.09543 0.89524 0.0
H1763 H 0.53409 0.06419 0.90809 0.0
C1764 C 0.13775 0.26778 0.47612 0.0
C1765 C 0.14143 0.29067 0.49055 0.0
C1766 C 0.15821 0.33279 0.46963 0.0
C1767 C 0.15817 0.31089 0.45581 0.0
N1768 N 0.15108 0.2585 0.44613 0.0
N1769 N 0.15843 0.34578 0.5018 0.0
C1770 C 0.14863 0.27855 0.45908 0.0
C1771 C 0.15236 0.32339 0.48749 0.0
N1772 N 0.12322 0.23564 0.47865 0.0
N1773 N 0.16325 0.36236 0.46556 0.0
H1774 H 0.15411 0.33981 0.51504 0.0
H1775 H 0.16995 0.37061 0.50085 0.0
H1776 H 0.16787 0.37013 0.45266 0.0
H1777 H 0.16018 0.37805 0.47447 0.0
H1778 H 0.1168 0.21731 0.46819 0.0
H1779 H 0.11502 0.22696 0.49097 0.0
H1780 H 0.14807 0.23595 0.44842 0.0
H1781 H 0.15844 0.26535 0.43338 0.0
C1782 C 0.6673 0.8466 0.49328 0.0
C1783 C 0.69733 0.84939 0.49869 0.0
C1784 C 0.70656 0.84491 0.46673 0.0
C1785 C 0.6783 0.84582 0.46145 0.0
N1786 N 0.6341 0.85235 0.46967 0.0
N1787 N 0.74778 0.85569 0.49089 0.0
C1788 C 0.65923 0.8479 0.47472 0.0
C1789 C 0.71757 0.84966 0.4855 0.0
N1790 N 0.64614 0.84186 0.50583 0.0
N1791 N 0.72238 0.83868 0.45381 0.0
H1792 H 0.7567 0.85919 0.50451 0.0
H1793 H 0.76493 0.8598 0.48194 0.0
H1794 H 0.71504 0.83514 0.43992 0.0
H1795 H 0.74109 0.83426 0.45688 0.0
H1796 H 0.62257 0.83623 0.50241 0.0
H1797 H 0.65116 0.84061 0.51955 0.0
H1798 H 0.62157 0.85767 0.47893 0.0
H1799 H 0.62741 0.85348 0.4562 0.0
C1800 C 0.13106 0.86253 0.47946 0.0
C1801 C 0.14 0.84807 0.4931 0.0
C1802 C 0.1688 0.8336 0.4717 0.0
C1803 C 0.1597 0.84787 0.45803 0.0
N1804 N 0.12742 0.87026 0.44749 0.0
N1805 N 0.16167 0.81446 0.50163 0.0
C1806 C 0.13923 0.86049 0.46148 0.0
C1807 C 0.15707 0.83185 0.489 0.0
N1808 N 0.11589 0.87929 0.48392 0.0
N1809 N 0.18954 0.82271 0.46829 0.0
H1810 H 0.15368 0.81303 0.5145 0.0
H1811 H 0.17104 0.79938 0.49896 0.0
H1812 H 0.19764 0.82247 0.45557 0.0
H1813 H 0.20022 0.81562 0.47823 0.0
H1814 H 0.11209 0.89366 0.47526 0.0
H1815 H 0.1086 0.88037 0.49679 0.0
H1816 H 0.10975 0.8765 0.4486 0.0
H1817 H 0.13351 0.86978 0.43425 0.0
C1818 C 0.67245 0.85665 0.18175 0.0
C1819 C 0.6404 0.83565 0.17403 0.0
C1820 C 0.6243 0.8177 0.20391 0.0
C1821 C 0.65698 0.83582 0.21117 0.0
N1822 N 0.71264 0.87165 0.2074 0.0
N1823 N 0.58576 0.79504 0.17704 0.0
C1824 C 0.6812 0.85529 0.20022 0.0
C1825 C 0.61621 0.81607 0.18495 0.0
N1826 N 0.69436 0.87805 0.17141 0.0
N1827 N 0.60103 0.80228 0.21521 0.0
H1828 H 0.57861 0.79412 0.16334 0.0
H1829 H 0.56794 0.77723 0.18369 0.0
H1830 H 0.60617 0.80217 0.22907 0.0
H1831 H 0.57657 0.79155 0.21124 0.0
H1832 H 0.71732 0.89627 0.17657 0.0
H1833 H 0.68878 0.87921 0.15775 0.0
H1834 H 0.73187 0.88321 0.19972 0.0
H1835 H 0.71977 0.87227 0.22106 0.0
C1836 C 0.17652 0.83108 0.18487 0.0
C1837 C 0.20021 0.82246 0.18203 0.0
C1838 C 0.20582 0.81668 0.2145 0.0
C1839 C 0.17924 0.8211 0.21681 0.0
N1840 N 0.13813 0.83127 0.20448 0.0
N1841 N 0.23673 0.80558 0.19352 0.0
C1842 C 0.16442 0.82823 0.20209 0.0
C1843 C 0.21497 0.8152 0.19673 0.0
N1844 N 0.16599 0.8424 0.17111 0.0
N1845 N 0.22237 0.81414 0.22934 0.0
H1846 H 0.24467 0.80514 0.18078 0.0
H1847 H 0.24559 0.79627 0.20316 0.0
H1848 H 0.2158 0.81433 0.24249 0.0
H1849 H 0.24396 0.81432 0.22891 0.0
H1850 H 0.15114 0.85216 0.17274 0.0
H1851 H 0.17427 0.84458 0.1583 0.0
H1852 H 0.1238 0.83252 0.19387 0.0
H1853 H 0.12939 0.83068 0.21707 0.0
C1854 C 0.17536 0.3292 0.18143 0.0
C1855 C 0.19209 0.36276 0.17926 0.0
C1856 C 0.18946 0.37596 0.2114 0.0
C1857 C 0.17316 0.3424 0.21364 0.0
N1858 N 0.15641 0.28755 0.20217 0.0
N1859 N 0.22083 0.41828 0.19253 0.0
C1860 C 0.16794 0.31915 0.19905 0.0
C1861 C 0.20102 0.38622 0.19441 0.0
N1862 N 0.16553 0.30695 0.16653 0.0
N1863 N 0.19266 0.39789 0.22528 0.0
H1864 H 0.22937 0.42659 0.1802 0.0
H1865 H 0.23097 0.43636 0.20339 0.0
H1866 H 0.18505 0.3914 0.23803 0.0
H1867 H 0.20091 0.42222 0.22388 0.0
H1868 H 0.14997 0.28225 0.1668 0.0
H1869 H 0.17139 0.3134 0.15351 0.0
H1870 H 0.15508 0.26994 0.19261 0.0
H1871 H 0.15064 0.27941 0.21491 0.0
C1872 C 0.79842 0.60794 0.80914 0.0
C1873 C 0.8066 0.63091 0.82445 0.0
C1874 C 0.83277 0.67553 0.80548 0.0
C1875 C 0.82415 0.65255 0.7901 0.0
N1876 N 0.79417 0.59738 0.7763 0.0
N1877 N 0.82619 0.68591 0.83697 0.0
C1878 C 0.80545 0.61885 0.79164 0.0
C1879 C 0.82209 0.66455 0.82252 0.0
N1880 N 0.78492 0.57577 0.81146 0.0
N1881 N 0.85208 0.7078 0.80387 0.0
H1882 H 0.81916 0.67873 0.84972 0.0
H1883 H 0.83423 0.71034 0.83606 0.0
H1884 H 0.85939 0.71681 0.79148 0.0
H1885 H 0.86248 0.72556 0.81488 0.0
H1886 H 0.78182 0.55811 0.80134 0.0
H1887 H 0.77841 0.56681 0.82395 0.0
H1888 H 0.77767 0.57281 0.77618 0.0
H1889 H 0.79945 0.60454 0.76333 0.0
C1890 C 0.38381 0.18519 0.81931 0.0
C1891 C 0.35962 0.17285 0.83136 0.0
C1892 C 0.31816 0.15922 0.8062 0.0
C1893 C 0.3423 0.17105 0.7941 0.0
N1894 N 0.397 0.18982 0.78813 0.0
N1895 N 0.30375 0.14288 0.83622 0.0
C1896 C 0.37481 0.18222 0.80036 0.0
C1897 C 0.32673 0.1582 0.82476 0.0
N1898 N 0.41545 0.20099 0.8261 0.0
N1899 N 0.28722 0.14986 0.80001 0.0
H1900 H 0.30929 0.14198 0.84993 0.0
H1901 H 0.27933 0.12893 0.83196 0.0
H1902 H 0.27986 0.14898 0.78635 0.0
H1903 H 0.26917 0.14468 0.80845 0.0
H1904 H 0.43429 0.21394 0.81839 0.0
H1905 H 0.423 0.20299 0.83984 0.0
H1906 H 0.42031 0.19468 0.79151 0.0
H1907 H 0.39147 0.18888 0.7742 0.0
C1908 C 0.80724 0.19679 0.81668 0.0
C1909 C 0.81655 0.18193 0.8299 0.0
C1910 C 0.84473 0.16813 0.8077 0.0
C1911 C 0.83498 0.18252 0.7944 0.0
N1912 N 0.80227 0.20503 0.78489 0.0
N1913 N 0.83868 0.14828 0.83746 0.0
C1914 C 0.81468 0.19507 0.79849 0.0
C1915 C 0.8336 0.16595 0.82521 0.0
N1916 N 0.79242 0.21364 0.82171 0.0
N1917 N 0.86544 0.15748 0.80373 0.0
H1918 H 0.83111 0.1465 0.85045 0.0
H1919 H 0.84805 0.13334 0.83436 0.0
H1920 H 0.87313 0.15759 0.79086 0.0
H1921 H 0.87654 0.15029 0.81337 0.0
H1922 H 0.78843 0.22827 0.81336 0.0
H1923 H 0.78578 0.21467 0.83477 0.0
H1924 H 0.78465 0.2112 0.78648 0.0
H1925 H 0.80778 0.20476 0.7715 0.0
C1926 C 0.26446 0.13474 0.51984 0.0
C1927 C 0.28752 0.15523 0.50863 0.0
C1928 C 0.32944 0.17707 0.53431 0.0
C1929 C 0.30639 0.15653 0.54552 0.0
N1930 N 0.25138 0.1202 0.55031 0.0
N1931 N 0.34012 0.19976 0.50538 0.0
C1932 C 0.27364 0.13677 0.53869 0.0
C1933 C 0.31947 0.1777 0.51597 0.0
N1934 N 0.23407 0.11264 0.51228 0.0
N1935 N 0.36104 0.19518 0.54111 0.0
H1936 H 0.33383 0.20032 0.49175 0.0
H1937 H 0.36269 0.219 0.51031 0.0
H1938 H 0.36904 0.19651 0.55469 0.0
H1939 H 0.37969 0.20761 0.53319 0.0
H1940 H 0.21714 0.09433 0.51909 0.0
H1941 H 0.22611 0.11153 0.49871 0.0
H1942 H 0.22671 0.10798 0.54669 0.0
H1943 H 0.25745 0.12049 0.56409 0.0
C1944 C 0.84215 0.16634 0.51891 0.0
C1945 C 0.86468 0.15656 0.51509 0.0
C1946 C 0.87228 0.15028 0.54731 0.0
C1947 C 0.84671 0.15586 0.55062 0.0
N1948 N 0.80608 0.16791 0.53985 0.0
N1949 N 0.90034 0.13763 0.52503 0.0
C1950 C 0.83146 0.1638 0.53652 0.0
C1951 C 0.87983 0.14844 0.52916 0.0
N1952 N 0.83137 0.17846 0.50572 0.0
N1953 N 0.8894 0.14694 0.56155 0.0
H1954 H 0.90707 0.13679 0.51198 0.0
H1955 H 0.90927 0.12769 0.53421 0.0
H1956 H 0.88398 0.1474 0.57495 0.0
H1957 H 0.91042 0.14624 0.56038 0.0
H1958 H 0.81739 0.18901 0.50805 0.0
H1959 H 0.83867 0.18049 0.49266 0.0
H1960 H 0.79139 0.1698 0.52972 0.0
H1961 H 0.79842 0.16756 0.55274 0.0
C1962 C 0.82944 0.67146 0.51321 0.0
C1963 C 0.85708 0.70193 0.51192 0.0
C1964 C 0.86908 0.70984 0.5451 0.0
C1965 C 0.83939 0.68134 0.54645 0.0
N1966 N 0.78917 0.63694 0.53205 0.0
N1967 N 0.90163 0.75201 0.5265 0.0
C1968 C 0.81903 0.66255 0.53056 0.0
C1969 C 0.87663 0.7216 0.52783 0.0
N1970 N 0.81355 0.65074 0.49785 0.0
N1971 N 0.89029 0.72525 0.56029 0.0
H1972 H 0.90807 0.76135 0.51409 0.0
H1973 H 0.91452 0.76889 0.53769 0.0
H1974 H 0.88542 0.71735 0.57315 0.0
H1975 H 0.91368 0.74413 0.55995 0.0
H1976 H 0.79529 0.62687 0.49805 0.0
H1977 H 0.82058 0.65641 0.4849 0.0
H1978 H 0.77183 0.62468 0.52102 0.0
H1979 H 0.78067 0.62946 0.5445 0.0
loop_
_geom_bond_atom_site_label_1
_geom_bond_atom_site_label_2
_geom_bond_distance
_geom_bond_site_symmetry_2
_ccdc_geom_bond_type
C0 C1 1.384 . S
C0 H13 0.947 . S
C0 C35 1.382 . S
C1 C0 1.384 . S
C1 C2 1.378 . S
C2 C1 1.378 . S
C2 C3 1.378 . S
C2 H14 0.952 . S
C3 C2 1.378 . S
C3 H15 0.950 . S
C3 C34 1.383 . S
H4 C23 0.947 . S
H5 C24 0.946 . S
H6 C26 0.953 . S
H7 C27 0.945 . S
H8 C29 0.952 . S
H9 C30 0.949 . S
H10 C32 0.950 . S
H11 C33 0.948 . S
H12 C35 0.951 . S
H13 C0 0.947 . S
H14 C2 0.952 . S
H15 C3 0.950 . S
N16 C19 1.382 . S
N16 C21 1.363 . S
N17 C19 1.371 . S
N17 C20 1.372 . S
N18 C20 1.361 . S
N18 C21 1.377 . S
C19 N16 1.382 . S
C19 N17 1.371 . S
C19 C22 1.480 . S
C20 N17 1.372 . S
C20 N18 1.361 . S
C20 C28 1.457 . S
C21 N16 1.363 . S
C21 N18 1.377 . S
C21 C34 1.479 . S
C22 C19 1.480 . S
C22 C23 1.383 . S
C22 C27 1.385 . S
C23 H4 0.947 . S
C23 C22 1.383 . S
C23 C24 1.388 . S
C24 H5 0.946 . S
C24 C23 1.388 . S
C24 C25 1.384 . S
C25 C24 1.384 . S
C25 C26 1.377 . S
C26 H6 0.953 . S
C26 C25 1.377 . S
C26 C27 1.369 . S
C27 H7 0.945 . S
C27 C22 1.385 . S
C27 C26 1.369 . S
C28 C20 1.457 . S
C28 C29 1.372 . S
C28 C33 1.364 . S
C29 H8 0.952 . S
C29 C28 1.372 . S
C29 C30 1.389 . S
C30 H9 0.949 . S
C30 C29 1.389 . S
C30 C31 1.387 . S
C31 C30 1.387 . S
C31 C32 1.372 . S
C32 H10 0.950 . S
C32 C31 1.372 . S
C32 C33 1.379 . S
C33 H11 0.948 . S
C33 C28 1.364 . S
C33 C32 1.379 . S
C34 C3 1.383 . S
C34 C21 1.479 . S
C34 C35 1.398 . S
C35 C0 1.382 . S
C35 H12 0.951 . S
C35 C34 1.398 . S
C36 C37 1.384 . S
C36 H49 0.947 . S
C36 C71 1.382 . S
C37 C36 1.384 . S
C37 C38 1.378 . S
C38 C37 1.378 . S
C38 C39 1.378 . S
C38 H50 0.952 . S
C39 C38 1.378 . S
C39 H51 0.950 . S
C39 C70 1.383 . S
H40 C59 0.947 . S
H41 C60 0.946 . S
H42 C62 0.953 . S
H43 C63 0.945 . S
H44 C65 0.952 . S
H45 C66 0.949 . S
H46 C68 0.950 . S
H47 C69 0.948 . S
H48 C71 0.951 . S
H49 C36 0.947 . S
H50 C38 0.952 . S
H51 C39 0.950 . S
N52 C55 1.382 . S
N52 C57 1.363 . S
N53 C55 1.371 . S
N53 C56 1.372 . S
N54 C56 1.361 . S
N54 C57 1.377 . S
C55 N52 1.382 . S
C55 N53 1.371 . S
C55 C58 1.480 . S
C56 N53 1.372 . S
C56 N54 1.361 . S
C56 C64 1.457 . S
C57 N52 1.363 . S
C57 N54 1.377 . S
C57 C70 1.479 . S
C58 C55 1.480 . S
C58 C59 1.383 . S
C58 C63 1.385 . S
C59 H40 0.947 . S
C59 C58 1.383 . S
C59 C60 1.388 . S
C60 H41 0.946 . S
C60 C59 1.388 . S
C60 C61 1.384 . S
C61 C60 1.384 . S
C61 C62 1.377 . S
C62 H42 0.953 . S
C62 C61 1.377 . S
C62 C63 1.369 . S
C63 H43 0.945 . S
C63 C58 1.385 . S
C63 C62 1.369 . S
C64 C56 1.457 . S
C64 C65 1.372 . S
C64 C69 1.364 . S
C65 H44 0.952 . S
C65 C64 1.372 . S
C65 C66 1.389 . S
C66 H45 0.949 . S
C66 C65 1.389 . S
C66 C67 1.387 . S
C67 C66 1.387 . S
C67 C68 1.372 . S
C68 H46 0.950 . S
C68 C67 1.372 . S
C68 C69 1.379 . S
C69 H47 0.948 . S
C69 C64 1.364 . S
C69 C68 1.379 . S
C70 C39 1.383 . S
C70 C57 1.479 . S
C70 C71 1.398 . S
C71 C36 1.382 . S
C71 H48 0.951 . S
C71 C70 1.398 . S
C72 C73 1.384 . S
C72 H85 0.947 . S
C72 C107 1.382 . S
C73 C72 1.384 . S
C73 C74 1.378 . S
C74 C73 1.378 . S
C74 C75 1.378 . S
C74 H86 0.952 . S
C75 C74 1.378 . S
C75 H87 0.950 . S
C75 C106 1.383 . S
H76 C95 0.947 . S
H77 C96 0.946 . S
H78 C98 0.953 . S
H79 C99 0.945 . S
H80 C101 0.952 . S
H81 C102 0.949 . S
H82 C104 0.950 . S
H83 C105 0.948 . S
H84 C107 0.951 . S
H85 C72 0.947 . S
H86 C74 0.952 . S
H87 C75 0.950 . S
N88 C91 1.382 . S
N88 C93 1.363 . S
N89 C91 1.371 . S
N89 C92 1.372 . S
N90 C92 1.361 . S
N90 C93 1.377 . S
C91 N88 1.382 . S
C91 N89 1.371 . S
C91 C94 1.480 . S
C92 N89 1.372 . S
C92 N90 1.361 . S
C92 C100 1.457 . S
C93 N88 1.363 . S
C93 N90 1.377 . S
C93 C106 1.479 . S
C94 C91 1.480 . S
C94 C95 1.383 . S
C94 C99 1.385 . S
C95 H76 0.947 . S
C95 C94 1.383 . S
C95 C96 1.388 . S
C96 H77 0.946 . S
C96 C95 1.388 . S
C96 C97 1.384 . S
C97 C96 1.384 . S
C97 C98 1.377 . S
C98 H78 0.953 . S
C98 C97 1.377 . S
C98 C99 1.369 . S
C99 H79 0.945 . S
C99 C94 1.385 . S
C99 C98 1.369 . S
C100 C92 1.457 . S
C100 C101 1.372 . S
C100 C105 1.364 . S
C101 H80 0.952 . S
C101 C100 1.372 . S
C101 C102 1.389 . S
C102 H81 0.949 . S
C102 C101 1.389 . S
C102 C103 1.387 . S
C103 C102 1.387 . S
C103 C104 1.372 . S
C104 H82 0.950 . S
C104 C103 1.372 . S
C104 C105 1.379 . S
C105 H83 0.948 . S
C105 C100 1.364 . S
C105 C104 1.379 . S
C106 C75 1.383 . S
C106 C93 1.479 . S
C106 C107 1.398 . S
C107 C72 1.382 . S
C107 H84 0.951 . S
C107 C106 1.398 . S
C108 C109 1.384 . S
C108 H121 0.925 1_455 S
C108 C143 1.382 . S
C109 C108 1.384 . S
C109 C110 1.378 . S
C110 C109 1.378 . S
C110 C111 1.378 . S
C110 H122 0.952 . S
C111 C110 1.378 . S
C111 H123 0.950 . S
C111 C142 1.383 . S
H112 C131 0.947 . S
H113 C132 0.946 . S
H114 C134 0.953 . S
H115 C135 0.945 . S
H116 C137 0.952 . S
H117 C138 0.949 . S
H118 C140 0.950 . S
H119 C141 0.948 . S
H120 C143 0.951 . S
H121 C108 0.925 1_655 S
H122 C110 0.952 . S
H123 C111 0.950 . S
N124 C127 1.382 . S
N124 C129 1.363 . S
N125 C127 1.371 . S
N125 C128 1.372 . S
N126 C128 1.361 . S
N126 C129 1.377 . S
C127 N124 1.382 . S
C127 N125 1.371 . S
C127 C130 1.480 . S
C128 N125 1.372 . S
C128 N126 1.361 . S
C128 C136 1.457 . S
C129 N124 1.363 . S
C129 N126 1.377 . S
C129 C142 1.479 . S
C130 C127 1.480 . S
C130 C131 1.383 . S
C130 C135 1.385 . S
C131 H112 0.947 . S
C131 C130 1.383 . S
C131 C132 1.388 . S
C132 H113 0.946 . S
C132 C131 1.388 . S
C132 C133 1.384 . S
C133 C132 1.384 . S
C133 C134 1.377 . S
C134 H114 0.953 . S
C134 C133 1.377 . S
C134 C135 1.369 . S
C135 H115 0.945 . S
C135 C130 1.385 . S
C135 C134 1.369 . S
C136 C128 1.457 . S
C136 C137 1.372 . S
C136 C141 1.364 . S
C137 H116 0.952 . S
C137 C136 1.372 . S
C137 C138 1.389 . S
C138 H117 0.949 . S
C138 C137 1.389 . S
C138 C139 1.387 . S
C139 C138 1.387 . S
C139 C140 1.372 . S
C140 H118 0.950 . S
C140 C139 1.372 . S
C140 C141 1.379 . S
C141 H119 0.948 . S
C141 C136 1.364 . S
C141 C140 1.379 . S
C142 C111 1.383 . S
C142 C129 1.479 . S
C142 C143 1.398 . S
C143 C108 1.382 . S
C143 H120 0.951 . S
C143 C142 1.398 . S
C144 C145 1.384 . S
C144 H157 0.947 . S
C144 C179 1.382 . S
C145 C144 1.384 . S
C145 C146 1.378 . S
C146 C145 1.378 . S
C146 C147 1.378 . S
C146 H158 0.952 . S
C147 C146 1.378 . S
C147 H159 0.950 . S
C147 C178 1.383 . S
H148 C167 0.947 . S
H149 C168 0.946 . S
H150 C170 0.953 . S
H151 C171 0.945 . S
H152 C173 0.952 . S
H153 C174 0.949 . S
H154 C176 0.950 . S
H155 C177 0.948 . S
H156 C179 0.951 . S
H157 C144 0.947 . S
H158 C146 0.952 . S
H159 C147 0.950 . S
N160 C163 1.382 . S
N160 C165 1.363 . S
N161 C163 1.371 . S
N161 C164 1.372 . S
N162 C164 1.361 . S
N162 C165 1.377 . S
C163 N160 1.382 . S
C163 N161 1.371 . S
C163 C166 1.480 . S
C164 N161 1.372 . S
C164 N162 1.361 . S
C164 C172 1.457 . S
C165 N160 1.363 . S
C165 N162 1.377 . S
C165 C178 1.479 . S
C166 C163 1.480 . S
C166 C167 1.383 . S
C166 C171 1.385 . S
C167 H148 0.947 . S
C167 C166 1.383 . S
C167 C168 1.388 . S
C168 H149 0.946 . S
C168 C167 1.388 . S
C168 C169 1.384 . S
C169 C168 1.384 . S
C169 C170 1.377 . S
C170 H150 0.953 . S
C170 C169 1.377 . S
C170 C171 1.369 . S
C171 H151 0.945 . S
C171 C166 1.385 . S
C171 C170 1.369 . S
C172 C164 1.457 . S
C172 C173 1.372 . S
C172 C177 1.364 . S
C173 H152 0.952 . S
C173 C172 1.372 . S
C173 C174 1.389 . S
C174 H153 0.949 . S
C174 C173 1.389 . S
C174 C175 1.387 . S
C175 C174 1.387 . S
C175 C176 1.372 . S
C176 H154 0.950 . S
C176 C175 1.372 . S
C176 C177 1.379 . S
C177 H155 0.948 . S
C177 C172 1.364 . S
C177 C176 1.379 . S
C178 C147 1.383 . S
C178 C165 1.479 . S
C178 C179 1.398 . S
C179 C144 1.382 . S
C179 H156 0.951 . S
C179 C178 1.398 . S
C180 C181 1.384 . S
C180 H193 0.947 . S
C180 C215 1.382 . S
C181 C180 1.384 . S
C181 C182 1.378 . S
C182 C181 1.378 . S
C182 C183 1.378 . S
C182 H194 0.952 . S
C183 C182 1.378 . S
C183 H195 0.950 . S
C183 C214 1.383 . S
H184 C203 0.947 . S
H185 C204 0.946 . S
H186 C206 0.953 . S
H187 C207 0.945 . S
H188 C209 0.952 . S
H189 C210 0.949 . S
H190 C212 0.950 . S
H191 C213 0.948 . S
H192 C215 0.951 . S
H193 C180 0.947 . S
H194 C182 0.952 . S
H195 C183 0.950 . S
N196 C199 1.382 . S
N196 C201 1.363 . S
N197 C199 1.371 . S
N197 C200 1.372 . S
N198 C200 1.361 . S
N198 C201 1.377 . S
C199 N196 1.382 . S
C199 N197 1.371 . S
C199 C202 1.480 . S
C200 N197 1.372 . S
C200 N198 1.361 . S
C200 C208 1.457 . S
C201 N196 1.363 . S
C201 N198 1.377 . S
C201 C214 1.479 . S
C202 C199 1.480 . S
C202 C203 1.383 . S
C202 C207 1.385 . S
C203 H184 0.947 . S
C203 C202 1.383 . S
C203 C204 1.388 . S
C204 H185 0.946 . S
C204 C203 1.388 . S
C204 C205 1.384 . S
C205 C204 1.384 . S
C205 C206 1.377 . S
C206 H186 0.953 . S
C206 C205 1.377 . S
C206 C207 1.369 . S
C207 H187 0.945 . S
C207 C202 1.385 . S
C207 C206 1.369 . S
C208 C200 1.457 . S
C208 C209 1.372 . S
C208 C213 1.364 . S
C209 H188 0.952 . S
C209 C208 1.372 . S
C209 C210 1.389 . S
C210 H189 0.949 . S
C210 C209 1.389 . S
C210 C211 1.387 . S
C211 C210 1.387 . S
C211 C212 1.372 . S
C212 H190 0.950 . S
C212 C211 1.372 . S
C212 C213 1.379 . S
C213 H191 0.948 . S
C213 C208 1.364 . S
C213 C212 1.379 . S
C214 C183 1.383 . S
C214 C201 1.479 . S
C214 C215 1.398 . S
C215 C180 1.382 . S
C215 H192 0.951 . S
C215 C214 1.398 . S
C216 C217 1.384 . S
C216 H229 0.947 . S
C216 C251 1.382 . S
C217 C216 1.384 . S
C217 C218 1.378 . S
C218 C217 1.378 . S
C218 C219 1.378 . S
C218 H230 0.952 . S
C219 C218 1.378 . S
C219 H231 0.950 . S
C219 C250 1.383 . S
H220 C239 0.947 . S
H221 C240 0.946 . S
H222 C242 0.953 . S
H223 C243 0.945 . S
H224 C245 0.952 . S
H225 C246 0.949 . S
H226 C248 0.940 1_455 S
H227 C249 0.948 . S
H228 C251 0.951 . S
H229 C216 0.947 . S
H230 C218 0.952 . S
H231 C219 0.950 . S
N232 C235 1.382 . S
N232 C237 1.363 . S
N233 C235 1.371 . S
N233 C236 1.372 . S
N234 C236 1.361 . S
N234 C237 1.377 . S
C235 N232 1.382 . S
C235 N233 1.371 . S
C235 C238 1.480 . S
C236 N233 1.372 . S
C236 N234 1.361 . S
C236 C244 1.457 . S
C237 N232 1.363 . S
C237 N234 1.377 . S
C237 C250 1.479 . S
C238 C235 1.480 . S
C238 C239 1.383 . S
C238 C243 1.385 . S
C239 H220 0.947 . S
C239 C238 1.383 . S
C239 C240 1.388 . S
C240 H221 0.946 . S
C240 C239 1.388 . S
C240 C241 1.384 . S
C241 C240 1.384 . S
C241 C242 1.377 . S
C242 H222 0.953 . S
C242 C241 1.377 . S
C242 C243 1.369 . S
C243 H223 0.945 . S
C243 C238 1.385 . S
C243 C242 1.369 . S
C244 C236 1.457 . S
C244 C245 1.372 . S
C244 C249 1.364 . S
C245 H224 0.952 . S
C245 C244 1.372 . S
C245 C246 1.389 . S
C246 H225 0.949 . S
C246 C245 1.389 . S
C246 C247 1.410 . S
C247 C246 1.410 . S
C247 C248 1.362 . S
C248 H226 0.940 1_655 S
C248 C247 1.362 . S
C248 C249 1.381 . S
C249 H227 0.948 . S
C249 C244 1.364 . S
C249 C248 1.381 . S
C250 C219 1.383 . S
C250 C237 1.479 . S
C250 C251 1.398 . S
C251 C216 1.382 . S
C251 H228 0.951 . S
C251 C250 1.398 . S
C252 C253 1.384 . S
C252 H265 0.947 . S
C252 C287 1.382 . S
C253 C252 1.384 . S
C253 C254 1.378 . S
C254 C253 1.378 . S
C254 C255 1.378 . S
C254 H266 0.952 . S
C255 C254 1.378 . S
C255 H267 0.950 . S
C255 C286 1.383 . S
H256 C275 0.947 . S
H257 C276 0.946 . S
H258 C278 0.953 . S
H259 C279 0.945 . S
H260 C281 0.952 . S
H261 C282 0.949 . S
H262 C284 0.950 . S
H263 C285 0.948 . S
H264 C287 0.951 . S
H265 C252 0.947 . S
H266 C254 0.952 . S
H267 C255 0.950 . S
N268 C271 1.382 . S
N268 C273 1.363 . S
N269 C271 1.371 . S
N269 C272 1.372 . S
N270 C272 1.361 . S
N270 C273 1.377 . S
C271 N268 1.382 . S
C271 N269 1.371 . S
C271 C274 1.480 . S
C272 N269 1.372 . S
C272 N270 1.361 . S
C272 C280 1.457 . S
C273 N268 1.363 . S
C273 N270 1.377 . S
C273 C286 1.479 . S
C274 C271 1.480 . S
C274 C275 1.383 . S
C274 C279 1.385 . S
C275 H256 0.947 . S
C275 C274 1.383 . S
C275 C276 1.388 . S
C276 H257 0.946 . S
C276 C275 1.388 . S
C276 C277 1.384 . S
C277 C276 1.384 . S
C277 C278 1.377 . S
C278 H258 0.953 . S
C278 C277 1.377 . S
C278 C279 1.369 . S
C279 H259 0.945 . S
C279 C274 1.385 . S
C279 C278 1.369 . S
C280 C272 1.457 . S
C280 C281 1.372 . S
C280 C285 1.364 . S
C281 H260 0.952 . S
C281 C280 1.372 . S
C281 C282 1.389 . S
C282 H261 0.949 . S
C282 C281 1.389 . S
C282 C283 1.387 . S
C283 C282 1.387 . S
C283 C284 1.372 . S
C284 H262 0.950 . S
C284 C283 1.372 . S
C284 C285 1.379 . S
C285 H263 0.948 . S
C285 C280 1.364 . S
C285 C284 1.379 . S
C286 C255 1.383 . S
C286 C273 1.479 . S
C286 C287 1.398 . S
C287 C252 1.382 . S
C287 H264 0.951 . S
C287 C286 1.398 . S
C288 C289 1.384 . S
C288 H301 0.947 . S
C288 C323 1.382 . S
C289 C288 1.384 . S
C289 C290 1.378 . S
C290 C289 1.378 . S
C290 C291 1.378 . S
C290 H302 0.952 . S
C291 C290 1.378 . S
C291 H303 0.950 . S
C291 C322 1.383 . S
H292 C311 0.947 . S
H293 C312 0.946 . S
H294 C314 0.953 . S
H295 C315 0.945 . S
H296 C317 0.952 . S
H297 C318 0.949 . S
H298 C320 0.950 . S
H299 C321 0.948 . S
H300 C323 0.951 . S
H301 C288 0.947 . S
H302 C290 0.952 . S
H303 C291 0.950 . S
N304 C307 1.382 . S
N304 C309 1.363 . S
N305 C307 1.371 . S
N305 C308 1.372 . S
N306 C308 1.361 . S
N306 C309 1.377 . S
C307 N304 1.382 . S
C307 N305 1.371 . S
C307 C310 1.480 . S
C308 N305 1.372 . S
C308 N306 1.361 . S
C308 C316 1.457 . S
C309 N304 1.363 . S
C309 N306 1.377 . S
C309 C322 1.479 . S
C310 C307 1.480 . S
C310 C311 1.383 . S
C310 C315 1.385 . S
C311 H292 0.947 . S
C311 C310 1.383 . S
C311 C312 1.388 . S
C312 H293 0.946 . S
C312 C311 1.388 . S
C312 C313 1.384 . S
C313 C312 1.384 . S
C313 C314 1.377 . S
C314 H294 0.953 . S
C314 C313 1.377 . S
C314 C315 1.369 . S
C315 H295 0.945 . S
C315 C310 1.385 . S
C315 C314 1.369 . S
C316 C308 1.457 . S
C316 C317 1.372 . S
C316 C321 1.364 . S
C317 H296 0.952 . S
C317 C316 1.372 . S
C317 C318 1.389 . S
C318 H297 0.949 . S
C318 C317 1.389 . S
C318 C319 1.387 . S
C319 C318 1.387 . S
C319 C320 1.372 . S
C320 H298 0.950 . S
C320 C319 1.372 . S
C320 C321 1.379 . S
C321 H299 0.948 . S
C321 C316 1.364 . S
C321 C320 1.379 . S
C322 C291 1.383 . S
C322 C309 1.479 . S
C322 C323 1.398 . S
C323 C288 1.382 . S
C323 H300 0.951 . S
C323 C322 1.398 . S
C324 C325 1.384 . S
C324 H337 0.947 . S
C324 C359 1.382 . S
C325 C324 1.384 . S
C325 C326 1.378 . S
C326 C325 1.378 . S
C326 C327 1.378 . S
C326 H338 0.952 . S
C327 C326 1.378 . S
C327 H339 0.950 . S
C327 C358 1.383 . S
H328 C347 0.947 . S
H329 C348 0.946 . S
H330 C350 0.953 . S
H331 C351 0.945 . S
H332 C353 0.952 . S
H333 C354 0.949 . S
H334 C356 0.950 . S
H335 C357 0.948 . S
H336 C359 0.951 . S
H337 C324 0.947 . S
H338 C326 0.952 . S
H339 C327 0.950 . S
N340 C343 1.382 . S
N340 C345 1.363 . S
N341 C343 1.371 . S
N341 C344 1.372 . S
N342 C344 1.361 . S
N342 C345 1.377 . S
C343 N340 1.382 . S
C343 N341 1.371 . S
C343 C346 1.480 . S
C344 N341 1.372 . S
C344 N342 1.361 . S
C344 C352 1.457 . S
C345 N340 1.363 . S
C345 N342 1.377 . S
C345 C358 1.479 . S
C346 C343 1.480 . S
C346 C347 1.383 . S
C346 C351 1.385 . S
C347 H328 0.947 . S
C347 C346 1.383 . S
C347 C348 1.388 . S
C348 H329 0.946 . S
C348 C347 1.388 . S
C348 C349 1.384 . S
C349 C348 1.384 . S
C349 C350 1.377 . S
C350 H330 0.953 . S
C350 C349 1.377 . S
C350 C351 1.369 . S
C351 H331 0.945 . S
C351 C346 1.385 . S
C351 C350 1.369 . S
C352 C344 1.457 . S
C352 C353 1.372 . S
C352 C357 1.364 . S
C353 H332 0.952 . S
C353 C352 1.372 . S
C353 C354 1.389 . S
C354 H333 0.949 . S
C354 C353 1.389 . S
C354 C355 1.387 . S
C355 C354 1.387 . S
C355 C356 1.372 . S
C356 H334 0.950 . S
C356 C355 1.372 . S
C356 C357 1.379 . S
C357 H335 0.948 . S
C357 C352 1.364 . S
C357 C356 1.379 . S
C358 C327 1.383 . S
C358 C345 1.479 . S
C358 C359 1.398 . S
C359 C324 1.382 . S
C359 H336 0.951 . S
C359 C358 1.398 . S
C360 C361 1.384 . S
C360 H373 0.947 . S
C360 C395 1.382 . S
C361 C360 1.384 . S
C361 C362 1.378 . S
C362 C361 1.378 . S
C362 C363 1.378 . S
C362 H374 0.908 1_556 S
C363 C362 1.378 . S
C363 H375 0.950 . S
C363 C394 1.383 . S
H364 C383 0.947 . S
H365 C384 0.946 1_554 S
H366 C386 0.953 . S
H367 C387 0.945 . S
H368 C389 0.952 . S
H369 C390 0.949 . S
H370 C392 0.950 . S
H371 C393 0.948 . S
H372 C395 0.951 . S
H373 C360 0.947 . S
H374 C362 0.908 1_554 S
H375 C363 0.950 . S
N376 C379 1.382 . S
N376 C381 1.363 . S
N377 C379 1.371 . S
N377 C380 1.372 . S
N378 C380 1.361 . S
N378 C381 1.377 . S
C379 N376 1.382 . S
C379 N377 1.371 . S
C379 C382 1.480 . S
C380 N377 1.372 . S
C380 N378 1.361 . S
C380 C388 1.457 . S
C381 N376 1.363 . S
C381 N378 1.377 . S
C381 C394 1.479 . S
C382 C379 1.480 . S
C382 C383 1.383 . S
C382 C387 1.385 . S
C383 H364 0.947 . S
C383 C382 1.383 . S
C383 C384 1.388 . S
C384 H365 0.946 1_556 S
C384 C383 1.388 . S
C384 C385 1.384 . S
C385 C384 1.384 . S
C385 C386 1.377 . S
C386 H366 0.953 . S
C386 C385 1.377 . S
C386 C387 1.369 . S
C387 H367 0.945 . S
C387 C382 1.385 . S
C387 C386 1.369 . S
C388 C380 1.457 . S
C388 C389 1.372 . S
C388 C393 1.364 . S
C389 H368 0.952 . S
C389 C388 1.372 . S
C389 C390 1.389 . S
C390 H369 0.949 . S
C390 C389 1.389 . S
C390 C391 1.387 . S
C391 C390 1.387 . S
C391 C392 1.372 . S
C392 H370 0.950 . S
C392 C391 1.372 . S
C392 C393 1.379 . S
C393 H371 0.948 . S
C393 C388 1.364 . S
C393 C392 1.379 . S
C394 C363 1.383 . S
C394 C381 1.479 . S
C394 C395 1.398 . S
C395 C360 1.382 . S
C395 H372 0.951 . S
C395 C394 1.398 . S
C396 C397 1.384 . S
C396 H409 0.947 . S
C396 C431 1.382 . S
C397 C396 1.384 . S
C397 C398 1.378 . S
C398 C397 1.378 . S
C398 C399 1.378 . S
C398 H410 0.952 . S
C399 C398 1.378 . S
C399 H411 0.950 . S
C399 C430 1.383 . S
H400 C419 0.947 . S
H401 C420 0.946 . S
H402 C422 0.953 . S
H403 C423 0.945 . S
H404 C425 0.952 . S
H405 C426 0.949 . S
H406 C428 0.950 . S
H407 C429 0.948 . S
H408 C431 0.951 . S
H409 C396 0.947 . S
H410 C398 0.952 . S
H411 C399 0.950 . S
N412 C415 1.382 . S
N412 C417 1.363 . S
N413 C415 1.371 . S
N413 C416 1.372 . S
N414 C416 1.361 . S
N414 C417 1.377 . S
C415 N412 1.382 . S
C415 N413 1.371 . S
C415 C418 1.480 . S
C416 N413 1.372 . S
C416 N414 1.361 . S
C416 C424 1.457 . S
C417 N412 1.363 . S
C417 N414 1.377 . S
C417 C430 1.479 . S
C418 C415 1.480 . S
C418 C419 1.383 . S
C418 C423 1.385 . S
C419 H400 0.947 . S
C419 C418 1.383 . S
C419 C420 1.388 . S
C420 H401 0.946 . S
C420 C419 1.388 . S
C420 C421 1.384 . S
C421 C420 1.384 . S
C421 C422 1.377 . S
C422 H402 0.953 . S
C422 C421 1.377 . S
C422 C423 1.369 . S
C423 H403 0.945 . S
C423 C418 1.385 . S
C423 C422 1.369 . S
C424 C416 1.457 . S
C424 C425 1.372 . S
C424 C429 1.364 . S
C425 H404 0.952 . S
C425 C424 1.372 . S
C425 C426 1.389 . S
C426 H405 0.949 . S
C426 C425 1.389 . S
C426 C427 1.387 . S
C427 C426 1.387 . S
C427 C428 1.372 . S
C428 H406 0.950 . S
C428 C427 1.372 . S
C428 C429 1.379 . S
C429 H407 0.948 . S
C429 C424 1.364 . S
C429 C428 1.379 . S
C430 C399 1.383 . S
C430 C417 1.479 . S
C430 C431 1.398 . S
C431 C396 1.382 . S
C431 H408 0.951 . S
C431 C430 1.398 . S
C432 C433 1.384 . S
C432 H445 0.947 . S
C432 C467 1.382 . S
C433 C432 1.384 . S
C433 C434 1.378 . S
C434 C433 1.378 . S
C434 C435 1.378 . S
C434 H446 0.908 1_554 S
C435 C434 1.378 . S
C435 H447 0.950 . S
C435 C466 1.383 . S
H436 C455 0.947 . S
H437 C456 0.946 . S
H438 C458 0.953 . S
H439 C459 0.945 . S
H440 C461 0.952 . S
H441 C462 0.949 . S
H442 C464 0.950 . S
H443 C465 0.948 . S
H444 C467 0.951 . S
H445 C432 0.947 . S
H446 C434 0.908 1_556 S
H447 C435 0.950 . S
N448 C451 1.382 . S
N448 C453 1.363 . S
N449 C451 1.371 . S
N449 C452 1.372 . S
N450 C452 1.361 . S
N450 C453 1.377 . S
C451 N448 1.382 . S
C451 N449 1.371 . S
C451 C454 1.480 . S
C452 N449 1.372 . S
C452 N450 1.361 . S
C452 C460 1.457 . S
C453 N448 1.363 . S
C453 N450 1.377 . S
C453 C466 1.479 . S
C454 C451 1.480 . S
C454 C455 1.383 . S
C454 C459 1.385 . S
C455 H436 0.947 . S
C455 C454 1.383 . S
C455 C456 1.388 . S
C456 H437 0.946 . S
C456 C455 1.388 . S
C456 C457 1.384 . S
C457 C456 1.384 . S
C457 C458 1.377 . S
C458 H438 0.953 . S
C458 C457 1.377 . S
C458 C459 1.369 . S
C459 H439 0.945 . S
C459 C454 1.385 . S
C459 C458 1.369 . S
C460 C452 1.457 . S
C460 C461 1.372 . S
C460 C465 1.364 . S
C461 H440 0.952 . S
C461 C460 1.372 . S
C461 C462 1.389 . S
C462 H441 0.949 . S
C462 C461 1.389 . S
C462 C463 1.387 . S
C463 C462 1.387 . S
C463 C464 1.372 . S
C464 H442 0.950 . S
C464 C463 1.372 . S
C464 C465 1.379 . S
C465 H443 0.948 . S
C465 C460 1.364 . S
C465 C464 1.379 . S
C466 C435 1.383 . S
C466 C453 1.479 . S
C466 C467 1.398 . S
C467 C432 1.382 . S
C467 H444 0.951 . S
C467 C466 1.398 . S
C468 C469 1.384 . S
C468 H481 0.947 . S
C468 C503 1.382 . S
C469 C468 1.384 . S
C469 C470 1.378 . S
C470 C469 1.378 . S
C470 C471 1.378 . S
C470 H482 0.952 . S
C471 C470 1.378 . S
C471 H483 0.950 . S
C471 C502 1.383 . S
H472 C491 0.947 . S
H473 C492 0.946 . S
H474 C494 0.953 . S
H475 C495 0.945 . S
H476 C497 0.952 . S
H477 C498 0.949 . S
H478 C500 0.950 . S
H479 C501 0.948 . S
H480 C503 0.951 . S
H481 C468 0.947 . S
H482 C470 0.952 . S
H483 C471 0.950 . S
N484 C487 1.382 . S
N484 C489 1.363 . S
N485 C487 1.371 . S
N485 C488 1.372 . S
N486 C488 1.361 . S
N486 C489 1.377 . S
C487 N484 1.382 . S
C487 N485 1.371 . S
C487 C490 1.480 . S
C488 N485 1.372 . S
C488 N486 1.361 . S
C488 C496 1.457 . S
C489 N484 1.363 . S
C489 N486 1.377 . S
C489 C502 1.479 . S
C490 C487 1.480 . S
C490 C491 1.383 . S
C490 C495 1.385 . S
C491 H472 0.947 . S
C491 C490 1.383 . S
C491 C492 1.388 . S
C492 H473 0.946 . S
C492 C491 1.388 . S
C492 C493 1.384 . S
C493 C492 1.384 . S
C493 C494 1.377 . S
C494 H474 0.953 . S
C494 C493 1.377 . S
C494 C495 1.369 . S
C495 H475 0.945 . S
C495 C490 1.385 . S
C495 C494 1.369 . S
C496 C488 1.457 . S
C496 C497 1.372 . S
C496 C501 1.364 . S
C497 H476 0.952 . S
C497 C496 1.372 . S
C497 C498 1.389 . S
C498 H477 0.949 . S
C498 C497 1.389 . S
C498 C499 1.387 . S
C499 C498 1.387 . S
C499 C500 1.372 . S
C500 H478 0.950 . S
C500 C499 1.372 . S
C500 C501 1.379 . S
C501 H479 0.948 . S
C501 C496 1.364 . S
C501 C500 1.379 . S
C502 C471 1.383 . S
C502 C489 1.479 . S
C502 C503 1.398 . S
C503 C468 1.382 . S
C503 H480 0.951 . S
C503 C502 1.398 . S
C504 C505 1.384 . S
C504 H517 0.947 . S
C504 C539 1.382 . S
C505 C504 1.384 . S
C505 C506 1.378 . S
C506 C505 1.378 . S
C506 C507 1.378 . S
C506 H518 0.952 . S
C507 C506 1.378 . S
C507 H519 0.950 . S
C507 C538 1.383 . S
H508 C527 0.947 . S
H509 C528 0.946 . S
H510 C530 0.953 . S
H511 C531 0.945 . S
H512 C533 0.952 . S
H513 C534 0.949 . S
H514 C536 0.950 . S
H515 C537 0.948 . S
H516 C539 0.951 . S
H517 C504 0.947 . S
H518 C506 0.952 . S
H519 C507 0.950 . S
N520 C523 1.382 . S
N520 C525 1.363 . S
N521 C523 1.371 . S
N521 C524 1.372 . S
N522 C524 1.361 . S
N522 C525 1.377 . S
C523 N520 1.382 . S
C523 N521 1.371 . S
C523 C526 1.480 . S
C524 N521 1.372 . S
C524 N522 1.361 . S
C524 C532 1.457 . S
C525 N520 1.363 . S
C525 N522 1.377 . S
C525 C538 1.479 . S
C526 C523 1.480 . S
C526 C527 1.383 . S
C526 C531 1.385 . S
C527 H508 0.947 . S
C527 C526 1.383 . S
C527 C528 1.388 . S
C528 H509 0.946 . S
C528 C527 1.388 . S
C528 C529 1.384 . S
C529 C528 1.384 . S
C529 C530 1.377 . S
C530 H510 0.953 . S
C530 C529 1.377 . S
C530 C531 1.369 . S
C531 H511 0.945 . S
C531 C526 1.385 . S
C531 C530 1.369 . S
C532 C524 1.457 . S
C532 C533 1.372 . S
C532 C537 1.364 . S
C533 H512 0.952 . S
C533 C532 1.372 . S
C533 C534 1.389 . S
C534 H513 0.949 . S
C534 C533 1.389 . S
C534 C535 1.387 . S
C535 C534 1.387 . S
C535 C536 1.372 . S
C536 H514 0.950 . S
C536 C535 1.372 . S
C536 C537 1.379 . S
C537 H515 0.948 . S
C537 C532 1.364 . S
C537 C536 1.379 . S
C538 C507 1.383 . S
C538 C525 1.479 . S
C538 C539 1.398 . S
C539 C504 1.382 . S
C539 H516 0.951 . S
C539 C538 1.398 . S
C540 C541 1.384 . S
C540 H553 0.947 . S
C540 C575 1.382 . S
C541 C540 1.384 . S
C541 C542 1.378 . S
C542 C541 1.378 . S
C542 C543 1.378 . S
C542 H554 0.952 . S
C543 C542 1.378 . S
C543 H555 0.950 . S
C543 C574 1.383 . S
H544 C563 0.947 . S
H545 C564 0.946 . S
H546 C566 0.953 . S
H547 C567 0.945 . S
H548 C569 0.952 . S
H549 C570 0.949 . S
H550 C572 0.950 . S
H551 C573 0.948 . S
H552 C575 0.951 . S
H553 C540 0.947 . S
H554 C542 0.952 . S
H555 C543 0.950 . S
N556 C559 1.382 . S
N556 C561 1.363 . S
N557 C559 1.371 . S
N557 C560 1.372 . S
N558 C560 1.361 . S
N558 C561 1.377 . S
C559 N556 1.382 . S
C559 N557 1.371 . S
C559 C562 1.480 . S
C560 N557 1.372 . S
C560 N558 1.361 . S
C560 C568 1.457 . S
C561 N556 1.363 . S
C561 N558 1.377 . S
C561 C574 1.479 . S
C562 C559 1.480 . S
C562 C563 1.383 . S
C562 C567 1.385 . S
C563 H544 0.947 . S
C563 C562 1.383 . S
C563 C564 1.388 . S
C564 H545 0.946 . S
C564 C563 1.388 . S
C564 C565 1.384 . S
C565 C564 1.384 . S
C565 C566 1.377 . S
C566 H546 0.953 . S
C566 C565 1.377 . S
C566 C567 1.369 . S
C567 H547 0.945 . S
C567 C562 1.385 . S
C567 C566 1.369 . S
C568 C560 1.457 . S
C568 C569 1.372 . S
C568 C573 1.364 . S
C569 H548 0.952 . S
C569 C568 1.372 . S
C569 C570 1.389 . S
C570 H549 0.949 . S
C570 C569 1.389 . S
C570 C571 1.387 . S
C571 C570 1.387 . S
C571 C572 1.372 . S
C572 H550 0.950 . S
C572 C571 1.372 . S
C572 C573 1.379 . S
C573 H551 0.948 . S
C573 C568 1.364 . S
C573 C572 1.379 . S
C574 C543 1.383 . S
C574 C561 1.479 . S
C574 C575 1.398 . S
C575 C540 1.382 . S
C575 H552 0.951 . S
C575 C574 1.398 . S
C576 C577 1.384 . S
C576 H589 0.947 . S
C576 C611 1.382 . S
C577 C576 1.384 . S
C577 C578 1.378 . S
C578 C577 1.378 . S
C578 C579 1.378 . S
C578 H590 0.952 . S
C579 C578 1.378 . S
C579 H591 0.950 . S
C579 C610 1.383 . S
H580 C599 0.947 . S
H581 C600 0.946 . S
H582 C602 0.953 . S
H583 C603 0.945 . S
H584 C605 0.952 . S
H585 C606 0.949 . S
H586 C608 0.950 1_655 S
H587 C609 0.948 . S
H588 C611 0.951 . S
H589 C576 0.947 . S
H590 C578 0.952 . S
H591 C579 0.950 . S
N592 C595 1.382 . S
N592 C597 1.363 . S
N593 C595 1.371 . S
N593 C596 1.372 . S
N594 C596 1.361 . S
N594 C597 1.377 . S
C595 N592 1.382 . S
C595 N593 1.371 . S
C595 C598 1.480 . S
C596 N593 1.372 . S
C596 N594 1.361 . S
C596 C604 1.457 . S
C597 N592 1.363 . S
C597 N594 1.377 . S
C597 C610 1.479 . S
C598 C595 1.480 . S
C598 C599 1.383 . S
C598 C603 1.385 . S
C599 H580 0.947 . S
C599 C598 1.383 . S
C599 C600 1.388 . S
C600 H581 0.946 . S
C600 C599 1.388 . S
C600 C601 1.384 . S
C601 C600 1.384 . S
C601 C602 1.377 . S
C602 H582 0.953 . S
C602 C601 1.377 . S
C602 C603 1.369 . S
C603 H583 0.945 . S
C603 C598 1.385 . S
C603 C602 1.369 . S
C604 C596 1.457 . S
C604 C605 1.372 . S
C604 C609 1.364 . S
C605 H584 0.952 . S
C605 C604 1.372 . S
C605 C606 1.389 . S
C606 H585 0.949 . S
C606 C605 1.389 . S
C606 C607 1.387 . S
C607 C606 1.387 . S
C607 C608 1.371 . S
C608 H586 0.950 1_455 S
C608 C607 1.371 . S
C608 C609 1.379 . S
C609 H587 0.948 . S
C609 C604 1.364 . S
C609 C608 1.379 . S
C610 C579 1.383 . S
C610 C597 1.479 . S
C610 C611 1.398 . S
C611 C576 1.382 . S
C611 H588 0.951 . S
C611 C610 1.398 . S
C612 C613 1.384 . S
C612 H625 0.947 . S
C612 C647 1.382 . S
C613 C612 1.384 . S
C613 C614 1.378 . S
C614 C613 1.378 . S
C614 C615 1.378 . S
C614 H626 0.952 . S
C615 C614 1.378 . S
C615 H627 0.950 . S
C615 C646 1.383 . S
H616 C635 0.947 . S
H617 C636 0.946 . S
H618 C638 0.953 . S
H619 C639 0.945 . S
H620 C641 0.952 . S
H621 C642 0.949 . S
H622 C644 0.950 . S
H623 C645 0.948 . S
H624 C647 0.951 . S
H625 C612 0.947 . S
H626 C614 0.952 . S
H627 C615 0.950 . S
N628 C631 1.382 . S
N628 C633 1.363 . S
N629 C631 1.371 . S
N629 C632 1.372 . S
N630 C632 1.361 . S
N630 C633 1.377 . S
C631 N628 1.382 . S
C631 N629 1.371 . S
C631 C634 1.480 . S
C632 N629 1.372 . S
C632 N630 1.361 . S
C632 C640 1.457 . S
C633 N628 1.363 . S
C633 N630 1.377 . S
C633 C646 1.479 . S
C634 C631 1.480 . S
C634 C635 1.383 . S
C634 C639 1.385 . S
C635 H616 0.947 . S
C635 C634 1.383 . S
C635 C636 1.388 . S
C636 H617 0.946 . S
C636 C635 1.388 . S
C636 C637 1.384 . S
C637 C636 1.384 . S
C637 C638 1.377 . S
C638 H618 0.953 . S
C638 C637 1.377 . S
C638 C639 1.369 . S
C639 H619 0.945 . S
C639 C634 1.385 . S
C639 C638 1.369 . S
C640 C632 1.457 . S
C640 C641 1.372 . S
C640 C645 1.364 . S
C641 H620 0.952 . S
C641 C640 1.372 . S
C641 C642 1.389 . S
C642 H621 0.949 . S
C642 C641 1.389 . S
C642 C643 1.387 . S
C643 C642 1.387 . S
C643 C644 1.372 . S
C644 H622 0.950 . S
C644 C643 1.372 . S
C644 C645 1.379 . S
C645 H623 0.948 . S
C645 C640 1.364 . S
C645 C644 1.379 . S
C646 C615 1.383 . S
C646 C633 1.479 . S
C646 C647 1.398 . S
C647 C612 1.382 . S
C647 H624 0.951 . S
C647 C646 1.398 . S
C648 Eu649 2.835 . S
C648 C650 1.500 . S
C648 O668 1.257 1_545 S
C648 O669 1.260 . S
Eu649 C648 2.835 . S
Eu649 O668 2.473 1_545 S
Eu649 O669 2.480 . S
Eu649 O670 2.430 . S
Eu649 O671 2.670 1_554 S
Eu649 O672 2.394 1_545 S
Eu649 O677 2.355 1_545 S
Eu649 O679 2.374 . S
C650 C648 1.500 . S
C650 C651 1.377 . S
C650 C655 1.377 1_545 S
C651 C650 1.377 . S
C651 C652 1.395 . S
C651 H680 0.931 . S
C652 C651 1.395 . S
C652 C653 1.383 1_545 S
C652 H681 0.931 . S
C653 C652 1.383 1_565 S
C653 C654 1.394 . S
C654 C653 1.394 . S
C654 C655 1.378 . S
C654 H682 0.931 . S
C655 C650 1.377 1_565 S
C655 C654 1.378 . S
C655 H683 0.931 . S
C656 O670 1.259 1_556 S
C656 O671 1.270 . S
C657 O672 1.251 . S
C657 O673 1.251 1_554 S
C658 Eu659 2.835 . S
C658 C660 1.500 . S
C658 O674 1.257 1_565 S
C658 O675 1.260 . S
Eu659 C658 2.835 . S
Eu659 O671 2.355 1_565 S
Eu659 O673 2.374 . S
Eu659 O674 2.473 1_565 S
Eu659 O675 2.480 . S
Eu659 O676 2.430 . S
Eu659 O677 2.670 1_556 S
Eu659 O678 2.394 1_565 S
C660 C658 1.500 . S
C660 C661 1.377 . S
C660 C665 1.377 1_565 S
C661 C660 1.377 . S
C661 C662 1.395 . S
C661 H684 0.931 . S
C662 C661 1.395 . S
C662 C663 1.383 1_565 S
C662 H685 0.931 . S
C663 C662 1.383 1_545 S
C663 C664 1.394 . S
C664 C663 1.394 . S
C664 C665 1.378 . S
C664 H686 0.931 . S
C665 C660 1.377 1_545 S
C665 C664 1.378 . S
C665 H687 0.931 . S
C666 O676 1.259 1_554 S
C666 O677 1.270 . S
C667 O678 1.251 . S
C667 O679 1.251 1_556 S
O668 C648 1.257 1_565 S
O668 Eu649 2.473 1_565 S
O669 C648 1.260 . S
O669 Eu649 2.480 . S
O670 Eu649 2.430 . S
O670 C656 1.259 1_554 S
O671 Eu649 2.670 1_556 S
O671 C656 1.270 . S
O671 Eu659 2.355 1_545 S
O672 Eu649 2.394 1_565 S
O672 C657 1.251 . S
O673 C657 1.251 1_556 S
O673 Eu659 2.374 . S
O674 C658 1.257 1_545 S
O674 Eu659 2.473 1_545 S
O675 C658 1.260 . S
O675 Eu659 2.480 . S
O676 Eu659 2.430 . S
O676 C666 1.259 1_556 S
O677 Eu649 2.355 1_565 S
O677 Eu659 2.670 1_554 S
O677 C666 1.270 . S
O678 Eu659 2.394 1_545 S
O678 C667 1.251 . S
O679 Eu649 2.374 . S
O679 C667 1.251 1_554 S
H680 C651 0.931 . S
H681 C652 0.931 . S
H682 C654 0.931 . S
H683 C655 0.931 . S
H684 C661 0.931 . S
H685 C662 0.931 . S
H686 C664 0.931 . S
H687 C665 0.931 . S
C688 Eu689 2.835 . S
C688 C690 1.500 1_655 S
C688 O708 1.257 1_655 S
C688 O709 1.260 . S
Eu689 C688 2.835 . S
Eu689 O708 2.473 1_655 S
Eu689 O709 2.480 . S
Eu689 O710 2.430 . S
Eu689 O711 2.670 1_554 S
Eu689 O712 2.394 1_655 S
Eu689 O717 2.355 1_655 S
Eu689 O719 2.374 . S
C690 C688 1.500 1_455 S
C690 C691 1.377 1_455 S
C690 C695 1.377 . S
C691 C690 1.377 1_655 S
C691 C692 1.395 . S
C691 H720 0.931 . S
C692 C691 1.395 . S
C692 C693 1.383 1_655 S
C692 H721 0.931 . S
C693 C692 1.383 1_455 S
C693 C694 1.394 . S
C694 C693 1.394 . S
C694 C695 1.378 . S
C694 H722 0.931 . S
C695 C690 1.377 . S
C695 C694 1.378 . S
C695 H723 0.931 . S
C696 O710 1.259 1_556 S
C696 O711 1.270 . S
C697 O712 1.251 . S
C697 O713 1.251 . S
C698 Eu699 2.835 . S
C698 C700 1.500 1_455 S
C698 O714 1.257 1_455 S
C698 O715 1.260 . S
Eu699 C698 2.835 . S
Eu699 O711 2.355 1_455 S
Eu699 O713 2.374 1_556 S
Eu699 O714 2.473 1_455 S
Eu699 O715 2.480 . S
Eu699 O716 2.430 . S
Eu699 O717 2.670 1_556 S
Eu699 O718 2.394 1_455 S
C700 C698 1.500 1_655 S
C700 C701 1.377 1_655 S
C700 C705 1.377 . S
C701 C700 1.377 1_455 S
C701 C702 1.395 . S
C701 H724 0.931 . S
C702 C701 1.395 . S
C702 C703 1.383 1_455 S
C702 H725 0.931 . S
C703 C702 1.383 1_655 S
C703 C704 1.394 . S
C704 C703 1.394 . S
C704 C705 1.378 . S
C704 H726 0.931 . S
C705 C700 1.377 . S
C705 C704 1.378 . S
C705 H727 0.931 . S
C706 O716 1.259 1_554 S
C706 O717 1.270 . S
C707 O718 1.251 . S
C707 O719 1.251 1_556 S
O708 C688 1.257 1_455 S
O708 Eu689 2.473 1_455 S
O709 C688 1.260 . S
O709 Eu689 2.480 . S
O710 Eu689 2.430 . S
O710 C696 1.259 1_554 S
O711 Eu689 2.670 1_556 S
O711 C696 1.270 . S
O711 Eu699 2.355 1_655 S
O712 Eu689 2.394 1_455 S
O712 C697 1.251 . S
O713 C697 1.251 . S
O713 Eu699 2.374 1_554 S
O714 C698 1.257 1_655 S
O714 Eu699 2.473 1_655 S
O715 C698 1.260 . S
O715 Eu699 2.480 . S
O716 Eu699 2.430 . S
O716 C706 1.259 1_556 S
O717 Eu689 2.355 1_455 S
O717 Eu699 2.670 1_554 S
O717 C706 1.270 . S
O718 Eu699 2.394 1_655 S
O718 C707 1.251 . S
O719 Eu689 2.374 . S
O719 C707 1.251 1_554 S
H720 C691 0.931 . S
H721 C692 0.931 . S
H722 C694 0.931 . S
H723 C695 0.931 . S
H724 C701 0.931 . S
H725 C702 0.931 . S
H726 C704 0.931 . S
H727 C705 0.931 . S
C728 Eu729 2.835 . S
C728 C730 1.500 . S
C728 O748 1.257 . S
C728 O749 1.260 . S
Eu729 C728 2.835 . S
Eu729 O748 2.473 . S
Eu729 O749 2.480 . S
Eu729 O750 2.430 . S
Eu729 O751 2.670 1_556 S
Eu729 O752 2.394 . S
Eu729 O757 2.355 . S
Eu729 O759 2.383 . S
C730 C728 1.500 . S
C730 C731 1.377 . S
C730 C735 1.377 . S
C731 C730 1.377 . S
C731 C732 1.395 . S
C731 H760 0.931 . S
C732 C731 1.395 . S
C732 C733 1.383 . S
C732 H761 0.931 . S
C733 C732 1.383 . S
C733 C734 1.394 . S
C734 C733 1.394 . S
C734 C735 1.378 . S
C734 H762 0.931 . S
C735 C730 1.377 . S
C735 C734 1.378 . S
C735 H763 0.931 . S
C736 O750 1.259 1_554 S
C736 O751 1.270 . S
C737 O752 1.251 . S
C737 O753 1.251 1_556 S
C738 Eu739 2.835 . S
C738 C740 1.500 . S
C738 O754 1.257 . S
C738 O755 1.260 . S
Eu739 C738 2.835 . S
Eu739 O751 2.355 . S
Eu739 O753 2.374 . S
Eu739 O754 2.473 . S
Eu739 O755 2.480 . S
Eu739 O756 2.430 . S
Eu739 O757 2.670 1_554 S
Eu739 O758 2.394 . S
C740 C738 1.500 . S
C740 C741 1.377 . S
C740 C745 1.377 . S
C741 C740 1.377 . S
C741 C742 1.395 . S
C741 H764 0.931 . S
C742 C741 1.395 . S
C742 C743 1.383 . S
C742 H765 0.931 . S
C743 C742 1.383 . S
C743 C744 1.394 . S
C744 C743 1.394 . S
C744 C745 1.378 . S
C744 H766 0.931 . S
C745 C740 1.377 . S
C745 C744 1.378 . S
C745 H767 0.931 . S
C746 O756 1.259 1_556 S
C746 O757 1.270 . S
C747 O758 1.251 . S
C747 O759 1.239 1_554 S
O748 C728 1.257 . S
O748 Eu729 2.473 . S
O749 C728 1.260 . S
O749 Eu729 2.480 . S
O750 Eu729 2.430 . S
O750 C736 1.259 1_556 S
O751 Eu729 2.670 1_554 S
O751 C736 1.270 . S
O751 Eu739 2.355 . S
O752 Eu729 2.394 . S
O752 C737 1.251 . S
O753 C737 1.251 1_554 S
O753 Eu739 2.374 . S
O754 C738 1.257 . S
O754 Eu739 2.473 . S
O755 C738 1.260 . S
O755 Eu739 2.480 . S
O756 Eu739 2.430 . S
O756 C746 1.259 1_554 S
O757 Eu729 2.355 . S
O757 Eu739 2.670 1_556 S
O757 C746 1.270 . S
O758 Eu739 2.394 . S
O758 C747 1.251 . S
O759 Eu729 2.383 . S
O759 C747 1.239 1_556 S
H760 C731 0.931 . S
H761 C732 0.931 . S
H762 C734 0.931 . S
H763 C735 0.931 . S
H764 C741 0.931 . S
H765 C742 0.931 . S
H766 C744 0.931 . S
H767 C745 0.931 . S
C768 Eu769 2.835 . S
C768 C770 1.500 . S
C768 O788 1.257 . S
C768 O789 1.260 . S
Eu769 C768 2.835 . S
Eu769 O788 2.473 . S
Eu769 O789 2.480 . S
Eu769 O790 2.430 . S
Eu769 O791 2.670 . S
Eu769 O792 2.394 . S
Eu769 O797 2.355 . S
Eu769 O799 2.374 . S
C770 C768 1.500 . S
C770 C771 1.377 . S
C770 C775 1.377 . S
C771 C770 1.377 . S
C771 C772 1.395 . S
C771 H800 0.931 . S
C772 C771 1.395 . S
C772 C773 1.383 . S
C772 H801 0.931 . S
C773 C772 1.383 . S
C773 C774 1.394 . S
C774 C773 1.394 . S
C774 C775 1.378 . S
C774 H802 0.931 . S
C775 C770 1.377 . S
C775 C774 1.378 . S
C775 H803 0.931 . S
C776 O790 1.259 . S
C776 O791 1.270 . S
C777 O792 1.251 . S
C777 O793 1.251 . S
C778 Eu779 2.835 . S
C778 C780 1.500 . S
C778 O794 1.257 . S
C778 O795 1.260 . S
Eu779 C778 2.835 . S
Eu779 O791 2.355 . S
Eu779 O793 2.374 . S
Eu779 O794 2.473 . S
Eu779 O795 2.480 . S
Eu779 O796 2.430 . S
Eu779 O797 2.670 . S
Eu779 O798 2.394 . S
C780 C778 1.500 . S
C780 C781 1.377 . S
C780 C785 1.377 . S
C781 C780 1.377 . S
C781 C782 1.395 . S
C781 H804 0.931 . S
C782 C781 1.395 . S
C782 C783 1.383 . S
C782 H805 0.931 . S
C783 C782 1.383 . S
C783 C784 1.394 . S
C784 C783 1.394 . S
C784 C785 1.378 . S
C784 H806 0.931 . S
C785 C780 1.377 . S
C785 C784 1.378 . S
C785 H807 0.931 . S
C786 O796 1.259 . S
C786 O797 1.270 . S
C787 O798 1.251 . S
C787 O799 1.251 . S
O788 C768 1.257 . S
O788 Eu769 2.473 . S
O789 C768 1.260 . S
O789 Eu769 2.480 . S
O790 Eu769 2.430 . S
O790 C776 1.259 . S
O791 Eu769 2.670 . S
O791 C776 1.270 . S
O791 Eu779 2.355 . S
O792 Eu769 2.394 . S
O792 C777 1.251 . S
O793 C777 1.251 . S
O793 Eu779 2.374 . S
O794 C778 1.257 . S
O794 Eu779 2.473 . S
O795 C778 1.260 . S
O795 Eu779 2.480 . S
O796 Eu779 2.430 . S
O796 C786 1.259 . S
O797 Eu769 2.355 . S
O797 Eu779 2.670 . S
O797 C786 1.270 . S
O798 Eu779 2.394 . S
O798 C787 1.251 . S
O799 Eu769 2.374 . S
O799 C787 1.251 . S
H800 C771 0.931 . S
H801 C772 0.931 . S
H802 C774 0.931 . S
H803 C775 0.931 . S
H804 C781 0.931 . S
H805 C782 0.931 . S
H806 C784 0.931 . S
H807 C785 0.931 . S
C808 Eu809 2.835 . S
C808 C810 1.500 . S
C808 O828 1.257 . S
C808 O829 1.260 . S
Eu809 C808 2.835 . S
Eu809 O828 2.473 . S
Eu809 O829 2.480 . S
Eu809 O830 2.430 . S
Eu809 O831 2.670 . S
Eu809 O832 2.394 . S
Eu809 O837 2.355 . S
Eu809 O839 2.374 . S
C810 C808 1.500 . S
C810 C811 1.377 . S
C810 C815 1.377 . S
C811 C810 1.377 . S
C811 C812 1.395 . S
C811 H840 0.931 . S
C812 C811 1.395 . S
C812 C813 1.383 . S
C812 H841 0.931 . S
C813 C812 1.383 . S
C813 C814 1.394 . S
C814 C813 1.394 . S
C814 C815 1.378 . S
C814 H842 0.931 . S
C815 C810 1.377 . S
C815 C814 1.378 . S
C815 H843 0.931 . S
C816 O830 1.259 . S
C816 O831 1.270 . S
C817 O832 1.251 . S
C817 O833 1.251 . S
C818 Eu819 2.835 . S
C818 C820 1.500 . S
C818 O834 1.257 . S
C818 O835 1.260 . S
Eu819 C818 2.835 . S
Eu819 O831 2.355 . S
Eu819 O833 2.374 . S
Eu819 O834 2.473 . S
Eu819 O835 2.480 . S
Eu819 O836 2.430 . S
Eu819 O837 2.670 . S
Eu819 O838 2.394 . S
C820 C818 1.500 . S
C820 C821 1.377 . S
C820 C825 1.377 . S
C821 C820 1.377 . S
C821 C822 1.395 . S
C821 H844 0.931 . S
C822 C821 1.395 . S
C822 C823 1.383 . S
C822 H845 0.931 . S
C823 C822 1.383 . S
C823 C824 1.394 . S
C824 C823 1.394 . S
C824 C825 1.378 . S
C824 H846 0.931 . S
C825 C820 1.377 . S
C825 C824 1.378 . S
C825 H847 0.931 . S
C826 O836 1.259 . S
C826 O837 1.270 . S
C827 O838 1.251 . S
C827 O839 1.251 . S
O828 C808 1.257 . S
O828 Eu809 2.473 . S
O829 C808 1.260 . S
O829 Eu809 2.480 . S
O830 Eu809 2.430 . S
O830 C816 1.259 . S
O831 Eu809 2.670 . S
O831 C816 1.270 . S
O831 Eu819 2.355 . S
O832 Eu809 2.394 . S
O832 C817 1.251 . S
O833 C817 1.251 . S
O833 Eu819 2.374 . S
O834 C818 1.257 . S
O834 Eu819 2.473 . S
O835 C818 1.260 . S
O835 Eu819 2.480 . S
O836 Eu819 2.430 . S
O836 C826 1.259 . S
O837 Eu809 2.355 . S
O837 Eu819 2.670 . S
O837 C826 1.270 . S
O838 Eu819 2.394 . S
O838 C827 1.251 . S
O839 Eu809 2.374 . S
O839 C827 1.251 . S
H840 C811 0.931 . S
H841 C812 0.931 . S
H842 C814 0.931 . S
H843 C815 0.931 . S
H844 C821 0.931 . S
H845 C822 0.931 . S
H846 C824 0.931 . S
H847 C825 0.931 . S
C848 Eu849 2.835 . S
C848 C850 1.500 . S
C848 O868 1.257 . S
C848 O869 1.260 . S
Eu849 C848 2.835 . S
Eu849 O868 2.473 . S
Eu849 O869 2.480 . S
Eu849 O870 2.430 . S
Eu849 O871 2.670 . S
Eu849 O872 2.394 . S
Eu849 O877 2.355 . S
Eu849 O879 2.374 . S
C850 C848 1.500 . S
C850 C851 1.377 . S
C850 C855 1.377 . S
C851 C850 1.377 . S
C851 C852 1.395 . S
C851 H880 0.931 . S
C852 C851 1.395 . S
C852 C853 1.383 . S
C852 H881 0.931 . S
C853 C852 1.383 . S
C853 C854 1.394 . S
C854 C853 1.394 . S
C854 C855 1.378 . S
C854 H882 0.931 . S
C855 C850 1.377 . S
C855 C854 1.378 . S
C855 H883 0.931 . S
C856 O870 1.259 . S
C856 O871 1.270 . S
C857 O872 1.251 . S
C857 O873 1.251 . S
C858 Eu859 2.835 . S
C858 C860 1.500 . S
C858 O874 1.257 . S
C858 O875 1.260 . S
Eu859 C858 2.835 . S
Eu859 O871 2.355 . S
Eu859 O873 2.374 . S
Eu859 O874 2.473 . S
Eu859 O875 2.480 . S
Eu859 O876 2.430 . S
Eu859 O877 2.670 . S
Eu859 O878 2.394 . S
C860 C858 1.500 . S
C860 C861 1.377 . S
C860 C865 1.377 . S
C861 C860 1.377 . S
C861 C862 1.395 . S
C861 H884 0.931 . S
C862 C861 1.395 . S
C862 C863 1.383 . S
C862 H885 0.931 . S
C863 C862 1.383 . S
C863 C864 1.394 . S
C864 C863 1.394 . S
C864 C865 1.378 . S
C864 H886 0.931 . S
C865 C860 1.377 . S
C865 C864 1.378 . S
C865 H887 0.931 . S
C866 O876 1.259 . S
C866 O877 1.270 . S
C867 O878 1.251 . S
C867 O879 1.251 . S
O868 C848 1.257 . S
O868 Eu849 2.473 . S
O869 C848 1.260 . S
O869 Eu849 2.480 . S
O870 Eu849 2.430 . S
O870 C856 1.259 . S
O871 Eu849 2.670 . S
O871 C856 1.270 . S
O871 Eu859 2.355 . S
O872 Eu849 2.394 . S
O872 C857 1.251 . S
O873 C857 1.251 . S
O873 Eu859 2.374 . S
O874 C858 1.257 . S
O874 Eu859 2.473 . S
O875 C858 1.260 . S
O875 Eu859 2.480 . S
O876 Eu859 2.430 . S
O876 C866 1.259 . S
O877 Eu849 2.355 . S
O877 Eu859 2.670 . S
O877 C866 1.270 . S
O878 Eu859 2.394 . S
O878 C867 1.251 . S
O879 Eu849 2.374 . S
O879 C867 1.251 . S
H880 C851 0.931 . S
H881 C852 0.931 . S
H882 C854 0.931 . S
H883 C855 0.931 . S
H884 C861 0.931 . S
H885 C862 0.931 . S
H886 C864 0.931 . S
H887 C865 0.931 . S
C888 Eu889 2.835 . S
C888 C890 1.500 . S
C888 O908 1.257 . S
C888 O909 1.260 . S
Eu889 C888 2.835 . S
Eu889 O908 2.473 . S
Eu889 O909 2.480 . S
Eu889 O910 2.430 . S
Eu889 O911 2.670 . S
Eu889 O912 2.394 . S
Eu889 O917 2.355 . S
Eu889 O919 2.374 . S
C890 C888 1.500 . S
C890 C891 1.377 . S
C890 C895 1.377 . S
C891 C890 1.377 . S
C891 C892 1.395 . S
C891 H920 0.931 . S
C892 C891 1.395 . S
C892 C893 1.383 . S
C892 H921 0.931 . S
C893 C892 1.383 . S
C893 C894 1.394 . S
C894 C893 1.394 . S
C894 C895 1.378 . S
C894 H922 0.931 . S
C895 C890 1.377 . S
C895 C894 1.378 . S
C895 H923 0.931 . S
C896 O910 1.259 . S
C896 O911 1.270 . S
C897 O912 1.251 . S
C897 O913 1.251 . S
C898 Eu899 2.835 . S
C898 C900 1.500 . S
C898 O914 1.257 . S
C898 O915 1.260 . S
Eu899 C898 2.835 . S
Eu899 O911 2.355 . S
Eu899 O913 2.374 . S
Eu899 O914 2.473 . S
Eu899 O915 2.480 . S
Eu899 O916 2.430 . S
Eu899 O917 2.670 . S
Eu899 O918 2.394 . S
C900 C898 1.500 . S
C900 C901 1.377 . S
C900 C905 1.377 . S
C901 C900 1.377 . S
C901 C902 1.395 . S
C901 H924 0.931 . S
C902 C901 1.395 . S
C902 C903 1.383 . S
C902 H925 0.931 . S
C903 C902 1.383 . S
C903 C904 1.394 . S
C904 C903 1.394 . S
C904 C905 1.378 . S
C904 H926 0.931 . S
C905 C900 1.377 . S
C905 C904 1.378 . S
C905 H927 0.931 . S
C906 O916 1.259 . S
C906 O917 1.270 . S
C907 O918 1.251 . S
C907 O919 1.251 . S
O908 C888 1.257 . S
O908 Eu889 2.473 . S
O909 C888 1.260 . S
O909 Eu889 2.480 . S
O910 Eu889 2.430 . S
O910 C896 1.259 . S
O911 Eu889 2.670 . S
O911 C896 1.270 . S
O911 Eu899 2.355 . S
O912 Eu889 2.394 . S
O912 C897 1.251 . S
O913 C897 1.251 . S
O913 Eu899 2.374 . S
O914 C898 1.257 . S
O914 Eu899 2.473 . S
O915 C898 1.260 . S
O915 Eu899 2.480 . S
O916 Eu899 2.430 . S
O916 C906 1.259 . S
O917 Eu889 2.355 . S
O917 Eu899 2.670 . S
O917 C906 1.270 . S
O918 Eu899 2.394 . S
O918 C907 1.251 . S
O919 Eu889 2.374 . S
O919 C907 1.251 . S
H920 C891 0.931 . S
H921 C892 0.931 . S
H922 C894 0.931 . S
H923 C895 0.931 . S
H924 C901 0.931 . S
H925 C902 0.931 . S
H926 C904 0.931 . S
H927 C905 0.931 . S
C928 Eu929 2.835 . S
C928 C930 1.500 . S
C928 O948 1.257 . S
C928 O949 1.260 . S
Eu929 C928 2.835 . S
Eu929 O948 2.473 . S
Eu929 O949 2.480 . S
Eu929 O950 2.430 . S
Eu929 O951 2.670 . S
Eu929 O952 2.394 . S
Eu929 O957 2.355 . S
Eu929 O959 2.374 . S
C930 C928 1.500 . S
C930 C931 1.377 . S
C930 C935 1.377 . S
C931 C930 1.377 . S
C931 C932 1.395 . S
C931 H960 0.931 . S
C932 C931 1.395 . S
C932 C933 1.383 . S
C932 H961 0.931 . S
C933 C932 1.383 . S
C933 C934 1.394 . S
C934 C933 1.394 . S
C934 C935 1.378 . S
C934 H962 0.931 . S
C935 C930 1.377 . S
C935 C934 1.378 . S
C935 H963 0.931 . S
C936 O950 1.259 . S
C936 O951 1.270 . S
C937 O952 1.251 . S
C937 O953 1.251 . S
C938 Eu939 2.835 . S
C938 C940 1.500 . S
C938 O954 1.257 . S
C938 O955 1.260 . S
Eu939 C938 2.835 . S
Eu939 O951 2.355 . S
Eu939 O953 2.374 . S
Eu939 O954 2.473 . S
Eu939 O955 2.480 . S
Eu939 O956 2.430 . S
Eu939 O957 2.670 . S
Eu939 O958 2.394 . S
C940 C938 1.500 . S
C940 C941 1.377 . S
C940 C945 1.377 . S
C941 C940 1.377 . S
C941 C942 1.395 . S
C941 H964 0.931 . S
C942 C941 1.395 . S
C942 C943 1.383 . S
C942 H965 0.931 . S
C943 C942 1.383 . S
C943 C944 1.394 . S
C944 C943 1.394 . S
C944 C945 1.378 . S
C944 H966 0.931 . S
C945 C940 1.377 . S
C945 C944 1.378 . S
C945 H967 0.931 . S
C946 O956 1.259 . S
C946 O957 1.270 . S
C947 O958 1.251 . S
C947 O959 1.251 . S
O948 C928 1.257 . S
O948 Eu929 2.473 . S
O949 C928 1.260 . S
O949 Eu929 2.480 . S
O950 Eu929 2.430 . S
O950 C936 1.259 . S
O951 Eu929 2.670 . S
O951 C936 1.270 . S
O951 Eu939 2.355 . S
O952 Eu929 2.394 . S
O952 C937 1.251 . S
O953 C937 1.251 . S
O953 Eu939 2.374 . S
O954 C938 1.257 . S
O954 Eu939 2.473 . S
O955 C938 1.260 . S
O955 Eu939 2.480 . S
O956 Eu939 2.430 . S
O956 C946 1.259 . S
O957 Eu929 2.355 . S
O957 Eu939 2.670 . S
O957 C946 1.270 . S
O958 Eu939 2.394 . S
O958 C947 1.251 . S
O959 Eu929 2.374 . S
O959 C947 1.251 . S
H960 C931 0.931 . S
H961 C932 0.931 . S
H962 C934 0.931 . S
H963 C935 0.931 . S
H964 C941 0.931 . S
H965 C942 0.931 . S
H966 C944 0.931 . S
H967 C945 0.931 . S
C968 Eu969 2.835 . S
C968 C970 1.500 . S
C968 O988 1.257 . S
C968 O989 1.260 . S
Eu969 C968 2.835 . S
Eu969 O988 2.473 . S
Eu969 O989 2.480 . S
Eu969 O990 2.430 . S
Eu969 O991 2.670 . S
Eu969 O992 2.394 . S
Eu969 O997 2.355 . S
Eu969 O999 2.374 . S
C970 C968 1.500 . S
C970 C971 1.377 . S
C970 C975 1.377 . S
C971 C970 1.377 . S
C971 C972 1.395 . S
C971 H1000 0.931 . S
C972 C971 1.395 . S
C972 C973 1.383 . S
C972 H1001 0.931 . S
C973 C972 1.383 . S
C973 C974 1.394 . S
C974 C973 1.394 . S
C974 C975 1.378 . S
C974 H1002 0.931 . S
C975 C970 1.377 . S
C975 C974 1.378 . S
C975 H1003 0.931 . S
C976 O990 1.259 . S
C976 O991 1.270 . S
C977 O992 1.251 . S
C977 O993 1.251 . S
C978 Eu979 2.835 . S
C978 C980 1.500 . S
C978 O994 1.257 . S
C978 O995 1.260 . S
Eu979 C978 2.835 . S
Eu979 O991 2.355 . S
Eu979 O993 2.374 . S
Eu979 O994 2.473 . S
Eu979 O995 2.480 . S
Eu979 O996 2.430 . S
Eu979 O997 2.670 . S
Eu979 O998 2.394 . S
C980 C978 1.500 . S
C980 C981 1.377 . S
C980 C985 1.377 . S
C981 C980 1.377 . S
C981 C982 1.395 . S
C981 H1004 0.931 . S
C982 C981 1.395 . S
C982 C983 1.383 . S
C982 H1005 0.931 . S
C983 C982 1.383 . S
C983 C984 1.394 . S
C984 C983 1.394 . S
C984 C985 1.378 . S
C984 H1006 0.931 . S
C985 C980 1.377 . S
C985 C984 1.378 . S
C985 H1007 0.931 . S
C986 O996 1.259 . S
C986 O997 1.270 . S
C987 O998 1.251 . S
C987 O999 1.251 . S
O988 C968 1.257 . S
O988 Eu969 2.473 . S
O989 C968 1.260 . S
O989 Eu969 2.480 . S
O990 Eu969 2.430 . S
O990 C976 1.259 . S
O991 Eu969 2.670 . S
O991 C976 1.270 . S
O991 Eu979 2.355 . S
O992 Eu969 2.394 . S
O992 C977 1.251 . S
O993 C977 1.251 . S
O993 Eu979 2.374 . S
O994 C978 1.257 . S
O994 Eu979 2.473 . S
O995 C978 1.260 . S
O995 Eu979 2.480 . S
O996 Eu979 2.430 . S
O996 C986 1.259 . S
O997 Eu969 2.355 . S
O997 Eu979 2.670 . S
O997 C986 1.270 . S
O998 Eu979 2.394 . S
O998 C987 1.251 . S
O999 Eu969 2.374 . S
O999 C987 1.251 . S
H1000 C971 0.931 . S
H1001 C972 0.931 . S
H1002 C974 0.931 . S
H1003 C975 0.931 . S
H1004 C981 0.931 . S
H1005 C982 0.931 . S
H1006 C984 0.931 . S
H1007 C985 0.931 . S
C1008 C1009 1.363 . S
C1008 C1014 1.379 . S
C1008 N1016 1.356 . S
C1009 C1008 1.363 . S
C1009 C1015 1.363 . S
C1010 C1011 1.363 . S
C1010 C1015 1.379 . S
C1010 N1017 1.356 . S
C1011 C1010 1.363 . S
C1011 C1014 1.363 . S
N1012 C1014 1.356 . S
N1012 H1024 0.984 . S
N1012 H1025 0.985 . S
N1013 C1015 1.356 . S
N1013 H1018 0.984 . S
N1013 H1019 0.985 . S
C1014 C1008 1.379 . S
C1014 C1011 1.363 . S
C1014 N1012 1.356 . S
C1015 C1009 1.363 . S
C1015 C1010 1.379 . S
C1015 N1013 1.356 . S
N1016 C1008 1.356 . S
N1016 H1022 0.984 . S
N1016 H1023 0.984 . S
N1017 C1010 1.356 . S
N1017 H1020 0.984 . S
N1017 H1021 0.985 1_565 S
H1018 N1013 0.984 . S
H1019 N1013 0.985 . S
H1020 N1017 0.984 . S
H1021 N1017 0.985 1_545 S
H1022 N1016 0.984 . S
H1023 N1016 0.984 . S
H1024 N1012 0.984 . S
H1025 N1012 0.985 . S
C1026 C1027 1.363 . S
C1026 C1032 1.379 . S
C1026 N1034 1.356 . S
C1027 C1026 1.363 . S
C1027 C1033 1.363 . S
C1028 C1029 1.363 . S
C1028 C1033 1.379 . S
C1028 N1035 1.356 . S
C1029 C1028 1.363 . S
C1029 C1032 1.363 . S
N1030 C1032 1.356 1_556 S
N1030 H1042 0.984 . S
N1030 H1043 0.986 . S
N1031 C1033 1.356 . S
N1031 H1036 0.984 . S
N1031 H1037 0.985 . S
C1032 C1026 1.379 . S
C1032 C1029 1.363 . S
C1032 N1030 1.356 1_554 S
C1033 C1027 1.363 . S
C1033 C1028 1.379 . S
C1033 N1031 1.356 . S
N1034 C1026 1.356 . S
N1034 H1040 0.984 1_554 S
N1034 H1041 0.984 . S
N1035 C1028 1.356 . S
N1035 H1038 0.984 . S
N1035 H1039 0.985 . S
H1036 N1031 0.984 . S
H1037 N1031 0.985 . S
H1038 N1035 0.984 . S
H1039 N1035 0.985 . S
H1040 N1034 0.984 1_556 S
H1041 N1034 0.984 . S
H1042 N1030 0.984 . S
H1043 N1030 0.986 . S
C1044 C1045 1.363 . S
C1044 C1050 1.379 . S
C1044 N1052 1.356 . S
C1045 C1044 1.363 . S
C1045 C1051 1.363 . S
C1046 C1047 1.407 . S
C1046 C1051 1.376 . S
C1046 N1053 1.327 1_554 S
C1047 C1046 1.407 . S
C1047 C1050 1.363 . S
N1048 C1050 1.356 . S
N1048 H1060 0.984 . S
N1048 H1061 0.985 . S
N1049 C1051 1.356 1_556 S
N1049 H1054 0.984 . S
N1049 H1055 0.985 . S
C1050 C1044 1.379 . S
C1050 C1047 1.363 . S
C1050 N1048 1.356 . S
C1051 C1045 1.363 . S
C1051 C1046 1.376 . S
C1051 N1049 1.356 1_554 S
N1052 C1044 1.356 . S
N1052 H1058 0.984 . S
N1052 H1059 0.984 . S
N1053 C1046 1.327 1_556 S
N1053 H1056 0.984 . S
N1053 H1057 0.985 . S
H1054 N1049 0.984 . S
H1055 N1049 0.985 . S
H1056 N1053 0.984 . S
H1057 N1053 0.985 . S
H1058 N1052 0.984 . S
H1059 N1052 0.984 . S
H1060 N1048 0.984 . S
H1061 N1048 0.985 . S
C1062 C1063 1.363 . S
C1062 C1068 1.379 . S
C1062 N1070 1.356 . S
C1063 C1062 1.363 . S
C1063 C1069 1.363 . S
C1064 C1065 1.363 . S
C1064 C1069 1.379 . S
C1064 N1071 1.356 1_556 S
C1065 C1064 1.363 . S
C1065 C1068 1.363 . S
N1066 C1068 1.356 . S
N1066 H1078 0.984 . S
N1066 H1079 0.985 . S
N1067 C1069 1.356 1_554 S
N1067 H1072 0.984 1_554 S
N1067 H1073 0.985 . S
C1068 C1062 1.379 . S
C1068 C1065 1.363 . S
C1068 N1066 1.356 . S
C1069 C1063 1.363 . S
C1069 C1064 1.379 . S
C1069 N1067 1.356 1_556 S
N1070 C1062 1.356 . S
N1070 H1076 0.984 . S
N1070 H1077 0.984 . S
N1071 C1064 1.356 1_554 S
N1071 H1074 0.984 . S
N1071 H1075 0.985 . S
H1072 N1067 0.984 1_556 S
H1073 N1067 0.985 . S
H1074 N1071 0.984 . S
H1075 N1071 0.985 . S
H1076 N1070 0.984 . S
H1077 N1070 0.984 . S
H1078 N1066 0.984 . S
H1079 N1066 0.985 . S
C1080 C1081 1.363 . S
C1080 C1086 1.379 . S
C1080 N1088 1.356 . S
C1081 C1080 1.363 . S
C1081 C1087 1.363 . S
C1082 C1083 1.363 . S
C1082 C1087 1.379 . S
C1082 N1089 1.356 . S
C1083 C1082 1.363 . S
C1083 C1086 1.363 . S
N1084 C1086 1.356 . S
N1084 H1096 0.984 1_556 S
N1084 H1097 0.985 . S
N1085 C1087 1.356 . S
N1085 H1090 0.984 . S
N1085 H1091 0.985 . S
C1086 C1080 1.379 . S
C1086 C1083 1.363 . S
C1086 N1084 1.356 . S
C1087 C1081 1.363 . S
C1087 C1082 1.379 . S
C1087 N1085 1.356 . S
N1088 C1080 1.356 . S
N1088 H1094 0.984 . S
N1088 H1095 0.984 . S
N1089 C1082 1.356 . S
N1089 H1092 0.984 . S
N1089 H1093 0.985 . S
H1090 N1085 0.984 . S
H1091 N1085 0.985 . S
H1092 N1089 0.984 . S
H1093 N1089 0.985 . S
H1094 N1088 0.984 . S
H1095 N1088 0.984 . S
H1096 N1084 0.984 1_554 S
H1097 N1084 0.985 . S
C1098 C1099 1.363 . S
C1098 C1104 1.379 . S
C1098 N1106 1.356 . S
C1099 C1098 1.363 . S
C1099 C1105 1.363 . S
C1100 C1101 1.363 . S
C1100 C1105 1.379 . S
C1100 N1107 1.356 . S
C1101 C1100 1.363 . S
C1101 C1104 1.363 . S
N1102 C1104 1.356 1_554 S
N1102 H1114 0.984 . S
N1102 H1115 0.985 . S
N1103 C1105 1.356 . S
N1103 H1108 0.984 . S
N1103 H1109 0.962 1_545 S
C1104 C1098 1.379 . S
C1104 C1101 1.363 . S
C1104 N1102 1.356 1_556 S
C1105 C1099 1.363 . S
C1105 C1100 1.379 . S
C1105 N1103 1.356 . S
N1106 C1098 1.356 . S
N1106 H1112 0.984 1_556 S
N1106 H1113 0.984 . S
N1107 C1100 1.356 . S
N1107 H1110 0.984 . S
N1107 H1111 0.985 1_545 S
H1108 N1103 0.984 . S
H1109 N1103 0.962 1_565 S
H1110 N1107 0.984 . S
H1111 N1107 0.985 1_565 S
H1112 N1106 0.984 1_554 S
H1113 N1106 0.984 . S
H1114 N1102 0.984 . S
H1115 N1102 0.985 . S
C1116 C1117 1.363 . S
C1116 C1122 1.379 . S
C1116 N1124 1.356 . S
C1117 C1116 1.363 . S
C1117 C1123 1.363 . S
C1118 C1119 1.363 . S
C1118 C1123 1.379 . S
C1118 N1125 1.356 1_556 S
C1119 C1118 1.363 . S
C1119 C1122 1.363 . S
N1120 C1122 1.356 . S
N1120 H1132 0.984 . S
N1120 H1133 0.985 . S
N1121 C1123 1.347 1_554 S
N1121 H1126 0.971 1_554 S
N1121 H1127 1.007 . S
C1122 C1116 1.379 . S
C1122 C1119 1.363 . S
C1122 N1120 1.356 . S
C1123 C1117 1.363 . S
C1123 C1118 1.379 . S
C1123 N1121 1.347 1_556 S
N1124 C1116 1.356 . S
N1124 H1130 0.984 . S
N1124 H1131 0.984 . S
N1125 C1118 1.356 1_554 S
N1125 H1128 0.984 . S
N1125 H1129 0.985 . S
H1126 N1121 0.971 1_556 S
H1127 N1121 1.007 . S
H1128 N1125 0.984 . S
H1129 N1125 0.985 . S
H1130 N1124 0.984 . S
H1131 N1124 0.984 . S
H1132 N1120 0.984 . S
H1133 N1120 0.985 . S
C1134 C1135 1.363 . S
C1134 C1140 1.379 . S
C1134 N1142 1.356 . S
C1135 C1134 1.363 . S
C1135 C1141 1.363 . S
C1136 C1137 1.363 . S
C1136 C1141 1.379 . S
C1136 N1143 1.356 . S
C1137 C1136 1.363 . S
C1137 C1140 1.363 . S
N1138 C1140 1.356 . S
N1138 H1150 0.984 . S
N1138 H1151 0.985 . S
N1139 C1141 1.356 . S
N1139 H1144 0.984 . S
N1139 H1145 0.985 . S
C1140 C1134 1.379 . S
C1140 C1137 1.363 . S
C1140 N1138 1.356 . S
C1141 C1135 1.363 . S
C1141 C1136 1.379 . S
C1141 N1139 1.356 . S
N1142 C1134 1.356 . S
N1142 H1148 0.984 . S
N1142 H1149 0.984 . S
N1143 C1136 1.356 . S
N1143 H1146 0.984 . S
N1143 H1147 0.985 1_556 S
H1144 N1139 0.984 . S
H1145 N1139 0.985 . S
H1146 N1143 0.984 . S
H1147 N1143 0.985 1_554 S
H1148 N1142 0.984 . S
H1149 N1142 0.984 . S
H1150 N1138 0.984 . S
H1151 N1138 0.985 . S
C1152 C1153 1.363 . S
C1152 C1158 1.379 . S
C1152 N1160 1.356 . S
C1153 C1152 1.363 . S
C1153 C1159 1.363 1_556 S
C1154 C1155 1.363 1_554 S
C1154 C1159 1.379 . S
C1154 N1161 1.356 . S
C1155 C1154 1.363 1_556 S
C1155 C1158 1.363 . S
N1156 C1158 1.356 . S
N1156 H1168 0.984 . S
N1156 H1169 0.985 . S
N1157 C1159 1.356 . S
N1157 H1162 0.984 . S
N1157 H1163 0.985 . S
C1158 C1152 1.379 . S
C1158 C1155 1.363 . S
C1158 N1156 1.356 . S
C1159 C1153 1.363 1_554 S
C1159 C1154 1.379 . S
C1159 N1157 1.356 . S
N1160 C1152 1.356 . S
N1160 H1166 0.984 . S
N1160 H1167 0.984 . S
N1161 C1154 1.356 . S
N1161 H1164 0.984 . S
N1161 H1165 0.985 . S
H1162 N1157 0.984 . S
H1163 N1157 0.985 . S
H1164 N1161 0.984 . S
H1165 N1161 0.985 . S
H1166 N1160 0.984 . S
H1167 N1160 0.984 . S
H1168 N1156 0.984 . S
H1169 N1156 0.985 . S
C1170 C1171 1.363 . S
C1170 C1176 1.379 . S
C1170 N1178 1.356 . S
C1171 C1170 1.363 . S
C1171 C1177 1.363 . S
C1172 C1173 1.363 . S
C1172 C1177 1.379 . S
C1172 N1179 1.356 1_554 S
C1173 C1172 1.363 . S
C1173 C1176 1.363 . S
N1174 C1176 1.356 . S
N1174 H1186 0.984 . S
N1174 H1187 0.985 . S
N1175 C1177 1.356 1_556 S
N1175 H1180 0.984 1_556 S
N1175 H1181 0.985 . S
C1176 C1170 1.379 . S
C1176 C1173 1.363 . S
C1176 N1174 1.356 . S
C1177 C1171 1.363 . S
C1177 C1172 1.379 . S
C1177 N1175 1.356 1_554 S
N1178 C1170 1.356 . S
N1178 H1184 0.984 . S
N1178 H1185 0.984 . S
N1179 C1172 1.356 1_556 S
N1179 H1182 0.984 . S
N1179 H1183 0.985 . S
H1180 N1175 0.984 1_554 S
H1181 N1175 0.985 . S
H1182 N1179 0.984 . S
H1183 N1179 0.985 . S
H1184 N1178 0.984 . S
H1185 N1178 0.984 . S
H1186 N1174 0.984 . S
H1187 N1174 0.985 . S
C1188 C1189 1.363 . S
C1188 C1194 1.379 . S
C1188 N1196 1.356 . S
C1189 C1188 1.363 . S
C1189 C1195 1.363 . S
C1190 C1191 1.363 . S
C1190 C1195 1.379 . S
C1190 N1197 1.356 . S
C1191 C1190 1.363 . S
C1191 C1194 1.363 . S
N1192 C1194 1.356 . S
N1192 H1204 0.984 . S
N1192 H1205 0.985 . S
N1193 C1195 1.356 . S
N1193 H1198 0.984 . S
N1193 H1199 0.985 . S
C1194 C1188 1.379 . S
C1194 C1191 1.363 . S
C1194 N1192 1.356 . S
C1195 C1189 1.363 . S
C1195 C1190 1.379 . S
C1195 N1193 1.356 . S
N1196 C1188 1.356 . S
N1196 H1202 0.984 . S
N1196 H1203 0.984 . S
N1197 C1190 1.356 . S
N1197 H1200 0.984 . S
N1197 H1201 0.985 . S
H1198 N1193 0.984 . S
H1199 N1193 0.985 . S
H1200 N1197 0.984 . S
H1201 N1197 0.985 . S
H1202 N1196 0.984 . S
H1203 N1196 0.984 . S
H1204 N1192 0.984 . S
H1205 N1192 0.985 . S
C1206 C1207 1.363 . S
C1206 C1212 1.372 1_554 S
C1206 N1214 1.356 1_554 S
C1207 C1206 1.363 . S
C1207 C1213 1.363 . S
C1208 C1209 1.363 . S
C1208 C1213 1.379 . S
C1208 N1215 1.356 . S
C1209 C1208 1.363 . S
C1209 C1212 1.323 1_554 S
N1210 C1212 1.398 . S
N1210 H1222 0.984 . S
N1210 H1223 0.985 . S
N1211 C1213 1.356 . S
N1211 H1216 0.984 . S
N1211 H1217 0.985 . S
C1212 C1206 1.372 1_556 S
C1212 C1209 1.323 1_556 S
C1212 N1210 1.398 . S
C1213 C1207 1.363 . S
C1213 C1208 1.379 . S
C1213 N1211 1.356 . S
N1214 C1206 1.356 1_556 S
N1214 H1220 0.984 . S
N1214 H1221 0.984 . S
N1215 C1208 1.356 . S
N1215 H1218 0.984 . S
N1215 H1219 0.985 . S
H1216 N1211 0.984 . S
H1217 N1211 0.985 . S
H1218 N1215 0.984 . S
H1219 N1215 0.985 . S
H1220 N1214 0.984 . S
H1221 N1214 0.984 . S
H1222 N1210 0.984 . S
H1223 N1210 0.985 . S
C1224 C1225 1.363 . S
C1224 C1230 1.379 . S
C1224 N1232 1.356 . S
C1225 C1224 1.363 . S
C1225 C1231 1.363 . S
C1226 C1227 1.363 . S
C1226 C1231 1.379 . S
C1226 N1233 1.356 . S
C1227 C1226 1.363 . S
C1227 C1230 1.363 . S
N1228 C1230 1.356 . S
N1228 H1240 0.984 . S
N1228 H1241 0.985 . S
N1229 C1231 1.356 1_655 S
N1229 H1234 0.984 . S
N1229 H1235 0.985 . S
C1230 C1224 1.379 . S
C1230 C1227 1.363 . S
C1230 N1228 1.356 . S
C1231 C1225 1.363 . S
C1231 C1226 1.379 . S
C1231 N1229 1.356 1_455 S
N1232 C1224 1.356 . S
N1232 H1238 0.984 . S
N1232 H1239 0.984 1_455 S
N1233 C1226 1.356 . S
N1233 H1236 0.984 . S
N1233 H1237 0.985 . S
H1234 N1229 0.984 . S
H1235 N1229 0.985 . S
H1236 N1233 0.984 . S
H1237 N1233 0.985 . S
H1238 N1232 0.984 . S
H1239 N1232 0.984 1_655 S
H1240 N1228 0.984 . S
H1241 N1228 0.985 . S
C1242 C1243 1.363 . S
C1242 C1248 1.379 . S
C1242 N1250 1.356 . S
C1243 C1242 1.363 . S
C1243 C1249 1.363 . S
C1244 C1245 1.363 . S
C1244 C1249 1.379 . S
C1244 N1251 1.356 . S
C1245 C1244 1.363 . S
C1245 C1248 1.363 . S
N1246 C1248 1.356 . S
N1246 H1258 0.984 . S
N1246 H1259 0.985 . S
N1247 C1249 1.356 . S
N1247 H1252 0.984 . S
N1247 H1253 0.985 . S
C1248 C1242 1.379 . S
C1248 C1245 1.363 . S
C1248 N1246 1.356 . S
C1249 C1243 1.363 . S
C1249 C1244 1.379 . S
C1249 N1247 1.356 . S
N1250 C1242 1.356 . S
N1250 H1256 0.984 . S
N1250 H1257 0.984 . S
N1251 C1244 1.356 . S
N1251 H1254 0.984 . S
N1251 H1255 0.985 . S
H1252 N1247 0.984 . S
H1253 N1247 0.985 . S
H1254 N1251 0.984 . S
H1255 N1251 0.985 . S
H1256 N1250 0.984 . S
H1257 N1250 0.984 . S
H1258 N1246 0.984 . S
H1259 N1246 0.985 . S
C1260 C1261 1.363 1_565 S
C1260 C1266 1.379 . S
C1260 N1268 1.356 1_565 S
C1261 C1260 1.363 1_545 S
C1261 C1267 1.363 1_545 S
C1262 C1263 1.363 . S
C1262 C1267 1.379 . S
C1262 N1269 1.356 . S
C1263 C1262 1.363 . S
C1263 C1266 1.363 . S
N1264 C1266 1.356 . S
N1264 H1276 0.984 . S
N1264 H1277 0.985 . S
N1265 C1267 1.356 1_545 S
N1265 H1270 0.984 . S
N1265 H1271 0.985 . S
C1266 C1260 1.379 . S
C1266 C1263 1.363 . S
C1266 N1264 1.356 . S
C1267 C1261 1.363 1_565 S
C1267 C1262 1.379 . S
C1267 N1265 1.356 1_565 S
N1268 C1260 1.356 1_545 S
N1268 H1274 0.984 . S
N1268 H1275 0.984 . S
N1269 C1262 1.356 . S
N1269 H1272 0.984 . S
N1269 H1273 0.985 . S
H1270 N1265 0.984 . S
H1271 N1265 0.985 . S
H1272 N1269 0.984 . S
H1273 N1269 0.985 . S
H1274 N1268 0.984 . S
H1275 N1268 0.984 . S
H1276 N1264 0.984 . S
H1277 N1264 0.985 . S
C1278 C1279 1.363 . S
C1278 C1284 1.379 . S
C1278 N1286 1.356 . S
C1279 C1278 1.363 . S
C1279 C1285 1.363 . S
C1280 C1281 1.363 . S
C1280 C1285 1.379 . S
C1280 N1287 1.356 . S
C1281 C1280 1.363 . S
C1281 C1284 1.363 . S
N1282 C1284 1.356 . S
N1282 H1294 0.984 . S
N1282 H1295 0.985 . S
N1283 C1285 1.356 . S
N1283 H1288 0.984 . S
N1283 H1289 0.985 . S
C1284 C1278 1.379 . S
C1284 C1281 1.363 . S
C1284 N1282 1.356 . S
C1285 C1279 1.363 . S
C1285 C1280 1.379 . S
C1285 N1283 1.356 . S
N1286 C1278 1.356 . S
N1286 H1292 0.984 . S
N1286 H1293 0.984 . S
N1287 C1280 1.356 . S
N1287 H1290 0.984 . S
N1287 H1291 0.985 . S
H1288 N1283 0.984 . S
H1289 N1283 0.985 . S
H1290 N1287 0.984 . S
H1291 N1287 0.985 . S
H1292 N1286 0.984 . S
H1293 N1286 0.984 . S
H1294 N1282 0.984 . S
H1295 N1282 0.985 . S
C1296 C1297 1.363 . S
C1296 C1302 1.379 . S
C1296 N1304 1.356 . S
C1297 C1296 1.363 . S
C1297 C1303 1.363 . S
C1298 C1299 1.363 . S
C1298 C1303 1.379 . S
C1298 N1305 1.356 . S
C1299 C1298 1.363 . S
C1299 C1302 1.363 . S
N1300 C1302 1.356 . S
N1300 H1312 0.984 . S
N1300 H1313 0.985 . S
N1301 C1303 1.356 . S
N1301 H1306 0.984 . S
N1301 H1307 0.985 . S
C1302 C1296 1.379 . S
C1302 C1299 1.363 . S
C1302 N1300 1.356 . S
C1303 C1297 1.363 . S
C1303 C1298 1.379 . S
C1303 N1301 1.356 . S
N1304 C1296 1.356 . S
N1304 H1310 0.984 . S
N1304 H1311 0.984 . S
N1305 C1298 1.356 . S
N1305 H1308 0.984 . S
N1305 H1309 0.985 . S
H1306 N1301 0.984 . S
H1307 N1301 0.985 . S
H1308 N1305 0.984 . S
H1309 N1305 0.985 . S
H1310 N1304 0.984 . S
H1311 N1304 0.984 . S
H1312 N1300 0.984 . S
H1313 N1300 0.985 . S
C1314 C1315 1.363 . S
C1314 C1320 1.379 . S
C1314 N1322 1.356 . S
C1315 C1314 1.363 . S
C1315 C1321 1.363 . S
C1316 C1317 1.363 . S
C1316 C1321 1.379 . S
C1316 N1323 1.356 . S
C1317 C1316 1.363 . S
C1317 C1320 1.363 . S
N1318 C1320 1.356 . S
N1318 H1330 0.984 . S
N1318 H1331 0.985 . S
N1319 C1321 1.356 . S
N1319 H1324 0.984 . S
N1319 H1325 0.985 . S
C1320 C1314 1.379 . S
C1320 C1317 1.363 . S
C1320 N1318 1.356 . S
C1321 C1315 1.363 . S
C1321 C1316 1.379 . S
C1321 N1319 1.356 . S
N1322 C1314 1.356 . S
N1322 H1328 0.984 . S
N1322 H1329 0.984 . S
N1323 C1316 1.356 . S
N1323 H1326 0.984 . S
N1323 H1327 0.985 . S
H1324 N1319 0.984 . S
H1325 N1319 0.985 . S
H1326 N1323 0.984 . S
H1327 N1323 0.985 . S
H1328 N1322 0.984 . S
H1329 N1322 0.984 . S
H1330 N1318 0.984 . S
H1331 N1318 0.985 . S
C1332 C1333 1.363 . S
C1332 C1338 1.379 . S
C1332 N1340 1.356 . S
C1333 C1332 1.363 . S
C1333 C1339 1.363 . S
C1334 C1335 1.363 . S
C1334 C1339 1.379 . S
C1334 N1341 1.356 . S
C1335 C1334 1.363 . S
C1335 C1338 1.363 . S
N1336 C1338 1.356 . S
N1336 H1348 0.984 . S
N1336 H1349 0.985 . S
N1337 C1339 1.356 . S
N1337 H1342 0.984 . S
N1337 H1343 0.985 . S
C1338 C1332 1.379 . S
C1338 C1335 1.363 . S
C1338 N1336 1.356 . S
C1339 C1333 1.363 . S
C1339 C1334 1.379 . S
C1339 N1337 1.356 . S
N1340 C1332 1.356 . S
N1340 H1346 0.984 . S
N1340 H1347 0.984 . S
N1341 C1334 1.356 . S
N1341 H1344 0.984 . S
N1341 H1345 0.985 . S
H1342 N1337 0.984 . S
H1343 N1337 0.985 . S
H1344 N1341 0.984 . S
H1345 N1341 0.985 . S
H1346 N1340 0.984 . S
H1347 N1340 0.984 . S
H1348 N1336 0.984 . S
H1349 N1336 0.985 . S
C1350 C1351 1.363 . S
C1350 C1356 1.379 . S
C1350 N1358 1.356 . S
C1351 C1350 1.363 . S
C1351 C1357 1.363 . S
C1352 C1353 1.363 . S
C1352 C1357 1.379 . S
C1352 N1359 1.356 . S
C1353 C1352 1.363 . S
C1353 C1356 1.363 . S
N1354 C1356 1.356 . S
N1354 H1366 0.984 . S
N1354 H1367 0.985 . S
N1355 C1357 1.356 . S
N1355 H1360 0.984 . S
N1355 H1361 0.985 . S
C1356 C1350 1.379 . S
C1356 C1353 1.363 . S
C1356 N1354 1.356 . S
C1357 C1351 1.363 . S
C1357 C1352 1.379 . S
C1357 N1355 1.356 . S
N1358 C1350 1.356 . S
N1358 H1364 0.984 . S
N1358 H1365 0.984 . S
N1359 C1352 1.356 . S
N1359 H1362 0.984 . S
N1359 H1363 0.985 . S
H1360 N1355 0.984 . S
H1361 N1355 0.985 . S
H1362 N1359 0.984 . S
H1363 N1359 0.985 . S
H1364 N1358 0.984 . S
H1365 N1358 0.984 . S
H1366 N1354 0.984 . S
H1367 N1354 0.985 . S
C1368 C1369 1.363 . S
C1368 C1374 1.379 . S
C1368 N1376 1.356 . S
C1369 C1368 1.363 . S
C1369 C1375 1.363 . S
C1370 C1371 1.363 . S
C1370 C1375 1.379 . S
C1370 N1377 1.356 . S
C1371 C1370 1.363 . S
C1371 C1374 1.363 . S
N1372 C1374 1.356 . S
N1372 H1384 0.984 . S
N1372 H1385 0.985 . S
N1373 C1375 1.356 . S
N1373 H1378 0.984 . S
N1373 H1379 0.985 . S
C1374 C1368 1.379 . S
C1374 C1371 1.363 . S
C1374 N1372 1.356 . S
C1375 C1369 1.363 . S
C1375 C1370 1.379 . S
C1375 N1373 1.356 . S
N1376 C1368 1.356 . S
N1376 H1382 0.984 . S
N1376 H1383 0.984 . S
N1377 C1370 1.356 . S
N1377 H1380 0.984 . S
N1377 H1381 0.985 . S
H1378 N1373 0.984 . S
H1379 N1373 0.985 . S
H1380 N1377 0.984 . S
H1381 N1377 0.985 . S
H1382 N1376 0.984 . S
H1383 N1376 0.984 . S
H1384 N1372 0.984 . S
H1385 N1372 0.985 . S
C1386 C1387 1.363 . S
C1386 C1392 1.379 . S
C1386 N1394 1.356 1_565 S
C1387 C1386 1.363 . S
C1387 C1393 1.363 . S
C1388 C1389 1.363 . S
C1388 C1393 1.379 . S
C1388 N1395 1.356 . S
C1389 C1388 1.363 . S
C1389 C1392 1.363 . S
N1390 C1392 1.356 . S
N1390 H1402 0.984 . S
N1390 H1403 0.985 . S
N1391 C1393 1.356 1_545 S
N1391 H1396 0.984 . S
N1391 H1397 0.985 . S
C1392 C1386 1.379 . S
C1392 C1389 1.363 . S
C1392 N1390 1.356 . S
C1393 C1387 1.363 . S
C1393 C1388 1.379 . S
C1393 N1391 1.356 1_565 S
N1394 C1386 1.356 1_545 S
N1394 H1400 0.984 1_545 S
N1394 H1401 0.984 . S
N1395 C1388 1.356 . S
N1395 H1398 0.984 . S
N1395 H1399 0.985 . S
H1396 N1391 0.984 . S
H1397 N1391 0.985 . S
H1398 N1395 0.984 . S
H1399 N1395 0.985 . S
H1400 N1394 0.984 1_565 S
H1401 N1394 0.984 . S
H1402 N1390 0.984 . S
H1403 N1390 0.985 . S
C1404 C1405 1.363 . S
C1404 C1410 1.379 . S
C1404 N1412 1.356 . S
C1405 C1404 1.363 . S
C1405 C1411 1.363 . S
C1406 C1407 1.363 . S
C1406 C1411 1.379 . S
C1406 N1413 1.356 . S
C1407 C1406 1.363 . S
C1407 C1410 1.363 . S
N1408 C1410 1.356 . S
N1408 H1420 0.984 . S
N1408 H1421 0.985 . S
N1409 C1411 1.356 1_655 S
N1409 H1414 0.984 . S
N1409 H1415 0.985 . S
C1410 C1404 1.379 . S
C1410 C1407 1.363 . S
C1410 N1408 1.356 . S
C1411 C1405 1.363 . S
C1411 C1406 1.379 . S
C1411 N1409 1.356 1_455 S
N1412 C1404 1.356 . S
N1412 H1418 0.984 . S
N1412 H1419 0.984 . S
N1413 C1406 1.356 . S
N1413 H1416 0.984 . S
N1413 H1417 0.985 . S
H1414 N1409 0.984 . S
H1415 N1409 0.985 . S
H1416 N1413 0.984 . S
H1417 N1413 0.985 . S
H1418 N1412 0.984 . S
H1419 N1412 0.984 . S
H1420 N1408 0.984 . S
H1421 N1408 0.985 . S
C1422 C1423 1.363 . S
C1422 C1428 1.379 . S
C1422 N1430 1.356 . S
C1423 C1422 1.363 . S
C1423 C1429 1.363 . S
C1424 C1425 1.363 . S
C1424 C1429 1.379 . S
C1424 N1431 1.356 . S
C1425 C1424 1.363 . S
C1425 C1428 1.363 . S
N1426 C1428 1.356 . S
N1426 H1438 0.984 . S
N1426 H1439 0.985 . S
N1427 C1429 1.356 . S
N1427 H1432 0.984 . S
N1427 H1433 0.985 . S
C1428 C1422 1.379 . S
C1428 C1425 1.363 . S
C1428 N1426 1.356 . S
C1429 C1423 1.363 . S
C1429 C1424 1.379 . S
C1429 N1427 1.356 . S
N1430 C1422 1.356 . S
N1430 H1436 0.984 . S
N1430 H1437 0.984 . S
N1431 C1424 1.356 . S
N1431 H1434 0.984 . S
N1431 H1435 0.985 . S
H1432 N1427 0.984 . S
H1433 N1427 0.985 . S
H1434 N1431 0.984 . S
H1435 N1431 0.985 . S
H1436 N1430 0.984 . S
H1437 N1430 0.984 . S
H1438 N1426 0.984 . S
H1439 N1426 0.985 . S
C1440 C1441 1.363 . S
C1440 C1446 1.379 . S
C1440 N1448 1.356 . S
C1441 C1440 1.363 . S
C1441 C1447 1.363 . S
C1442 C1443 1.363 . S
C1442 C1447 1.379 . S
C1442 N1449 1.356 . S
C1443 C1442 1.363 . S
C1443 C1446 1.363 . S
N1444 C1446 1.356 . S
N1444 H1456 0.984 . S
N1444 H1457 0.985 . S
N1445 C1447 1.356 . S
N1445 H1450 0.984 . S
N1445 H1451 0.985 . S
C1446 C1440 1.379 . S
C1446 C1443 1.363 . S
C1446 N1444 1.356 . S
C1447 C1441 1.363 . S
C1447 C1442 1.379 . S
C1447 N1445 1.356 . S
N1448 C1440 1.356 . S
N1448 H1454 0.984 . S
N1448 H1455 0.984 . S
N1449 C1442 1.356 . S
N1449 H1452 0.984 . S
N1449 H1453 0.985 . S
H1450 N1445 0.984 . S
H1451 N1445 0.985 . S
H1452 N1449 0.984 . S
H1453 N1449 0.985 . S
H1454 N1448 0.984 . S
H1455 N1448 0.984 . S
H1456 N1444 0.984 . S
H1457 N1444 0.985 . S
C1458 C1459 1.363 . S
C1458 C1464 1.379 . S
C1458 N1466 1.356 . S
C1459 C1458 1.363 . S
C1459 C1465 1.363 . S
C1460 C1461 1.363 . S
C1460 C1465 1.379 . S
C1460 N1467 1.356 . S
C1461 C1460 1.363 . S
C1461 C1464 1.363 . S
N1462 C1464 1.356 . S
N1462 H1474 0.984 . S
N1462 H1475 0.985 . S
N1463 C1465 1.356 . S
N1463 H1468 0.984 . S
N1463 H1469 0.985 . S
C1464 C1458 1.379 . S
C1464 C1461 1.363 . S
C1464 N1462 1.356 . S
C1465 C1459 1.363 . S
C1465 C1460 1.379 . S
C1465 N1463 1.356 . S
N1466 C1458 1.356 . S
N1466 H1472 0.984 . S
N1466 H1473 0.984 . S
N1467 C1460 1.356 . S
N1467 H1470 0.984 . S
N1467 H1471 0.985 . S
H1468 N1463 0.984 . S
H1469 N1463 0.985 . S
H1470 N1467 0.984 . S
H1471 N1467 0.985 . S
H1472 N1466 0.984 . S
H1473 N1466 0.984 . S
H1474 N1462 0.984 . S
H1475 N1462 0.985 . S
C1476 C1477 1.363 . S
C1476 C1482 1.379 . S
C1476 N1484 1.356 . S
C1477 C1476 1.363 . S
C1477 C1483 1.363 . S
C1478 C1479 1.363 . S
C1478 C1483 1.379 . S
C1478 N1485 1.356 . S
C1479 C1478 1.363 . S
C1479 C1482 1.363 . S
N1480 C1482 1.356 . S
N1480 H1492 0.984 . S
N1480 H1493 0.985 . S
N1481 C1483 1.356 . S
N1481 H1486 0.984 . S
N1481 H1487 0.985 . S
C1482 C1476 1.379 . S
C1482 C1479 1.363 . S
C1482 N1480 1.356 . S
C1483 C1477 1.363 . S
C1483 C1478 1.379 . S
C1483 N1481 1.356 . S
N1484 C1476 1.356 . S
N1484 H1490 0.984 . S
N1484 H1491 0.984 . S
N1485 C1478 1.356 . S
N1485 H1488 0.984 . S
N1485 H1489 0.985 . S
H1486 N1481 0.984 . S
H1487 N1481 0.985 . S
H1488 N1485 0.984 . S
H1489 N1485 0.985 . S
H1490 N1484 0.984 . S
H1491 N1484 0.984 . S
H1492 N1480 0.984 . S
H1493 N1480 0.985 . S
C1494 C1495 1.375 . S
C1494 C1500 1.379 . S
C1494 N1502 1.356 1_545 S
C1495 C1494 1.375 . S
C1495 C1501 1.383 . S
C1496 C1497 1.363 . S
C1496 C1501 1.379 . S
C1496 N1503 1.356 . S
C1497 C1496 1.363 . S
C1497 C1500 1.363 . S
N1498 C1500 1.356 . S
N1498 H1510 0.984 . S
N1498 H1511 0.985 . S
N1499 C1501 1.356 1_565 S
N1499 H1504 0.984 . S
N1499 H1505 0.985 . S
C1500 C1494 1.379 . S
C1500 C1497 1.363 . S
C1500 N1498 1.356 . S
C1501 C1495 1.383 . S
C1501 C1496 1.379 . S
C1501 N1499 1.356 1_545 S
N1502 C1494 1.356 1_565 S
N1502 H1508 0.984 1_565 S
N1502 H1509 0.984 . S
N1503 C1496 1.356 . S
N1503 H1506 0.984 . S
N1503 H1507 0.985 . S
H1504 N1499 0.984 . S
H1505 N1499 0.985 . S
H1506 N1503 0.984 . S
H1507 N1503 0.985 . S
H1508 N1502 0.984 1_545 S
H1509 N1502 0.984 . S
H1510 N1498 0.984 . S
H1511 N1498 0.985 . S
C1512 C1513 1.363 . S
C1512 C1518 1.379 . S
C1512 N1520 1.356 . S
C1513 C1512 1.363 . S
C1513 C1519 1.363 . S
C1514 C1515 1.363 . S
C1514 C1519 1.379 . S
C1514 N1521 1.356 . S
C1515 C1514 1.363 . S
C1515 C1518 1.363 . S
N1516 C1518 1.356 . S
N1516 H1528 0.984 . S
N1516 H1529 0.985 . S
N1517 C1519 1.356 . S
N1517 H1522 0.984 1_655 S
N1517 H1523 0.985 . S
C1518 C1512 1.379 . S
C1518 C1515 1.363 . S
C1518 N1516 1.356 . S
C1519 C1513 1.363 . S
C1519 C1514 1.379 . S
C1519 N1517 1.356 . S
N1520 C1512 1.356 . S
N1520 H1526 0.984 . S
N1520 H1527 0.984 . S
N1521 C1514 1.356 . S
N1521 H1524 0.984 . S
N1521 H1525 0.985 . S
H1522 N1517 0.984 1_455 S
H1523 N1517 0.985 . S
H1524 N1521 0.984 . S
H1525 N1521 0.985 . S
H1526 N1520 0.984 . S
H1527 N1520 0.984 . S
H1528 N1516 0.984 . S
H1529 N1516 0.985 . S
C1530 C1531 1.363 . S
C1530 C1536 1.379 . S
C1530 N1538 1.356 . S
C1531 C1530 1.363 . S
C1531 C1537 1.363 . S
C1532 C1533 1.363 . S
C1532 C1537 1.379 . S
C1532 N1539 1.356 . S
C1533 C1532 1.363 . S
C1533 C1536 1.363 . S
N1534 C1536 1.356 . S
N1534 H1546 0.984 . S
N1534 H1547 0.985 . S
N1535 C1537 1.356 . S
N1535 H1540 0.984 . S
N1535 H1541 0.985 . S
C1536 C1530 1.379 . S
C1536 C1533 1.363 . S
C1536 N1534 1.356 . S
C1537 C1531 1.363 . S
C1537 C1532 1.379 . S
C1537 N1535 1.356 . S
N1538 C1530 1.356 . S
N1538 H1544 0.984 . S
N1538 H1545 0.984 . S
N1539 C1532 1.356 . S
N1539 H1542 0.984 . S
N1539 H1543 0.985 . S
H1540 N1535 0.984 . S
H1541 N1535 0.985 . S
H1542 N1539 0.984 . S
H1543 N1539 0.985 . S
H1544 N1538 0.984 . S
H1545 N1538 0.984 . S
H1546 N1534 0.984 . S
H1547 N1534 0.985 . S
C1548 C1549 1.363 . S
C1548 C1554 1.379 . S
C1548 N1556 1.356 1_655 S
C1549 C1548 1.363 . S
C1549 C1555 1.363 . S
C1550 C1551 1.363 . S
C1550 C1555 1.379 . S
C1550 N1557 1.356 . S
C1551 C1550 1.363 . S
C1551 C1554 1.363 . S
N1552 C1554 1.356 . S
N1552 H1564 0.984 . S
N1552 H1565 0.985 . S
N1553 C1555 1.356 . S
N1553 H1558 0.984 1_655 S
N1553 H1559 0.985 . S
C1554 C1548 1.379 . S
C1554 C1551 1.363 . S
C1554 N1552 1.356 . S
C1555 C1549 1.363 . S
C1555 C1550 1.379 . S
C1555 N1553 1.356 . S
N1556 C1548 1.356 1_455 S
N1556 H1562 0.984 . S
N1556 H1563 0.984 . S
N1557 C1550 1.356 . S
N1557 H1560 0.984 . S
N1557 H1561 0.985 . S
H1558 N1553 0.984 1_455 S
H1559 N1553 0.985 . S
H1560 N1557 0.984 . S
H1561 N1557 0.985 . S
H1562 N1556 0.984 . S
H1563 N1556 0.984 . S
H1564 N1552 0.984 . S
H1565 N1552 0.985 . S
C1566 C1567 1.363 . S
C1566 C1572 1.379 . S
C1566 N1574 1.356 . S
C1567 C1566 1.363 . S
C1567 C1573 1.363 . S
C1568 C1569 1.363 . S
C1568 C1573 1.379 . S
C1568 N1575 1.356 . S
C1569 C1568 1.363 . S
C1569 C1572 1.363 . S
N1570 C1572 1.356 . S
N1570 H1582 0.984 . S
N1570 H1583 0.985 . S
N1571 C1573 1.356 . S
N1571 H1576 0.984 . S
N1571 H1577 0.985 . S
C1572 C1566 1.379 . S
C1572 C1569 1.363 . S
C1572 N1570 1.356 . S
C1573 C1567 1.363 . S
C1573 C1568 1.379 . S
C1573 N1571 1.356 . S
N1574 C1566 1.356 . S
N1574 H1580 0.984 . S
N1574 H1581 0.984 . S
N1575 C1568 1.356 . S
N1575 H1578 0.984 . S
N1575 H1579 0.985 . S
H1576 N1571 0.984 . S
H1577 N1571 0.985 . S
H1578 N1575 0.984 . S
H1579 N1575 0.985 . S
H1580 N1574 0.984 . S
H1581 N1574 0.984 . S
H1582 N1570 0.984 . S
H1583 N1570 0.985 . S
C1584 C1585 1.363 1_545 S
C1584 C1590 1.379 . S
C1584 N1592 1.356 1_545 S
C1585 C1584 1.363 1_565 S
C1585 C1591 1.363 1_565 S
C1586 C1587 1.363 . S
C1586 C1591 1.379 . S
C1586 N1593 1.356 . S
C1587 C1586 1.363 . S
C1587 C1590 1.363 . S
N1588 C1590 1.356 . S
N1588 H1600 0.984 . S
N1588 H1601 0.985 . S
N1589 C1591 1.356 1_565 S
N1589 H1594 0.984 . S
N1589 H1595 0.985 . S
C1590 C1584 1.379 . S
C1590 C1587 1.363 . S
C1590 N1588 1.356 . S
C1591 C1585 1.363 1_545 S
C1591 C1586 1.379 . S
C1591 N1589 1.356 1_545 S
N1592 C1584 1.356 1_565 S
N1592 H1598 0.984 1_565 S
N1592 H1599 0.984 . S
N1593 C1586 1.356 . S
N1593 H1596 0.984 . S
N1593 H1597 0.985 . S
H1594 N1589 0.984 . S
H1595 N1589 0.985 . S
H1596 N1593 0.984 . S
H1597 N1593 0.985 . S
H1598 N1592 0.984 1_545 S
H1599 N1592 0.984 . S
H1600 N1588 0.984 . S
H1601 N1588 0.985 . S
C1602 C1603 1.363 . S
C1602 C1608 1.379 . S
C1602 N1610 1.356 . S
C1603 C1602 1.363 . S
C1603 C1609 1.363 . S
C1604 C1605 1.363 . S
C1604 C1609 1.379 . S
C1604 N1611 1.356 . S
C1605 C1604 1.363 . S
C1605 C1608 1.363 . S
N1606 C1608 1.356 . S
N1606 H1618 0.984 . S
N1606 H1619 0.985 . S
N1607 C1609 1.356 . S
N1607 H1612 0.984 . S
N1607 H1613 0.985 . S
C1608 C1602 1.379 . S
C1608 C1605 1.363 . S
C1608 N1606 1.356 . S
C1609 C1603 1.363 . S
C1609 C1604 1.379 . S
C1609 N1607 1.356 . S
N1610 C1602 1.356 . S
N1610 H1616 0.984 . S
N1610 H1617 0.984 . S
N1611 C1604 1.356 . S
N1611 H1614 0.984 . S
N1611 H1615 0.985 . S
H1612 N1607 0.984 . S
H1613 N1607 0.985 . S
H1614 N1611 0.984 . S
H1615 N1611 0.985 . S
H1616 N1610 0.984 . S
H1617 N1610 0.984 . S
H1618 N1606 0.984 . S
H1619 N1606 0.985 . S
C1620 C1621 1.363 . S
C1620 C1626 1.379 . S
C1620 N1628 1.356 . S
C1621 C1620 1.363 . S
C1621 C1627 1.363 . S
C1622 C1623 1.363 . S
C1622 C1627 1.379 . S
C1622 N1629 1.356 . S
C1623 C1622 1.363 . S
C1623 C1626 1.363 . S
N1624 C1626 1.356 . S
N1624 H1636 0.984 . S
N1624 H1637 0.985 . S
N1625 C1627 1.356 . S
N1625 H1630 0.984 . S
N1625 H1631 0.985 . S
C1626 C1620 1.379 . S
C1626 C1623 1.363 . S
C1626 N1624 1.356 . S
C1627 C1621 1.363 . S
C1627 C1622 1.379 . S
C1627 N1625 1.356 . S
N1628 C1620 1.356 . S
N1628 H1634 0.984 . S
N1628 H1635 0.984 . S
N1629 C1622 1.356 . S
N1629 H1632 0.984 . S
N1629 H1633 0.985 . S
H1630 N1625 0.984 . S
H1631 N1625 0.985 . S
H1632 N1629 0.984 . S
H1633 N1629 0.985 . S
H1634 N1628 0.984 . S
H1635 N1628 0.984 . S
H1636 N1624 0.984 . S
H1637 N1624 0.985 . S
C1638 C1639 1.363 . S
C1638 C1644 1.379 . S
C1638 N1646 1.356 . S
C1639 C1638 1.363 . S
C1639 C1645 1.363 . S
C1640 C1641 1.363 . S
C1640 C1645 1.379 . S
C1640 N1647 1.356 . S
C1641 C1640 1.363 . S
C1641 C1644 1.363 . S
N1642 C1644 1.356 . S
N1642 H1654 0.984 . S
N1642 H1655 0.985 . S
N1643 C1645 1.356 . S
N1643 H1648 0.984 . S
N1643 H1649 0.985 . S
C1644 C1638 1.379 . S
C1644 C1641 1.363 . S
C1644 N1642 1.356 . S
C1645 C1639 1.363 . S
C1645 C1640 1.379 . S
C1645 N1643 1.356 . S
N1646 C1638 1.356 . S
N1646 H1652 0.984 . S
N1646 H1653 0.984 . S
N1647 C1640 1.356 . S
N1647 H1650 0.984 . S
N1647 H1651 0.985 . S
H1648 N1643 0.984 . S
H1649 N1643 0.985 . S
H1650 N1647 0.984 . S
H1651 N1647 0.985 . S
H1652 N1646 0.984 . S
H1653 N1646 0.984 . S
H1654 N1642 0.984 . S
H1655 N1642 0.985 . S
C1656 C1657 1.363 . S
C1656 C1662 1.379 . S
C1656 N1664 1.356 . S
C1657 C1656 1.363 . S
C1657 C1663 1.363 1_565 S
C1658 C1659 1.363 1_545 S
C1658 C1663 1.379 . S
C1658 N1665 1.356 . S
C1659 C1658 1.363 1_565 S
C1659 C1662 1.363 . S
N1660 C1662 1.356 . S
N1660 H1672 0.984 . S
N1660 H1673 0.985 . S
N1661 C1663 1.356 . S
N1661 H1666 0.984 . S
N1661 H1667 0.985 . S
C1662 C1656 1.379 . S
C1662 C1659 1.363 . S
C1662 N1660 1.356 . S
C1663 C1657 1.363 1_545 S
C1663 C1658 1.379 . S
C1663 N1661 1.356 . S
N1664 C1656 1.356 . S
N1664 H1670 0.984 . S
N1664 H1671 0.984 . S
N1665 C1658 1.356 . S
N1665 H1668 0.984 . S
N1665 H1669 0.985 . S
H1666 N1661 0.984 . S
H1667 N1661 0.985 . S
H1668 N1665 0.984 . S
H1669 N1665 0.985 . S
H1670 N1664 0.984 . S
H1671 N1664 0.984 . S
H1672 N1660 0.984 . S
H1673 N1660 0.985 . S
C1674 C1675 1.363 . S
C1674 C1680 1.379 . S
C1674 N1682 1.356 1_455 S
C1675 C1674 1.363 . S
C1675 C1681 1.363 . S
C1676 C1677 1.363 . S
C1676 C1681 1.379 . S
C1676 N1683 1.356 . S
C1677 C1676 1.363 . S
C1677 C1680 1.363 . S
N1678 C1680 1.356 . S
N1678 H1690 0.984 . S
N1678 H1691 0.985 . S
N1679 C1681 1.356 . S
N1679 H1684 0.984 . S
N1679 H1685 0.985 . S
C1680 C1674 1.379 . S
C1680 C1677 1.363 . S
C1680 N1678 1.356 . S
C1681 C1675 1.363 . S
C1681 C1676 1.379 . S
C1681 N1679 1.356 . S
N1682 C1674 1.356 1_655 S
N1682 H1688 0.984 . S
N1682 H1689 0.984 . S
N1683 C1676 1.356 . S
N1683 H1686 0.984 . S
N1683 H1687 0.985 . S
H1684 N1679 0.984 . S
H1685 N1679 0.985 . S
H1686 N1683 0.984 . S
H1687 N1683 0.985 . S
H1688 N1682 0.984 . S
H1689 N1682 0.984 . S
H1690 N1678 0.984 . S
H1691 N1678 0.985 . S
C1692 C1693 1.363 . S
C1692 C1698 1.379 . S
C1692 N1700 1.356 . S
C1693 C1692 1.363 . S
C1693 C1699 1.363 . S
C1694 C1695 1.363 . S
C1694 C1699 1.379 . S
C1694 N1701 1.356 . S
C1695 C1694 1.363 . S
C1695 C1698 1.363 . S
N1696 C1698 1.356 . S
N1696 H1708 0.984 . S
N1696 H1709 0.985 . S
N1697 C1699 1.356 . S
N1697 H1702 0.984 . S
N1697 H1703 0.985 . S
C1698 C1692 1.379 . S
C1698 C1695 1.363 . S
C1698 N1696 1.356 . S
C1699 C1693 1.363 . S
C1699 C1694 1.379 . S
C1699 N1697 1.356 . S
N1700 C1692 1.356 . S
N1700 H1706 0.984 . S
N1700 H1707 0.984 . S
N1701 C1694 1.356 . S
N1701 H1704 0.984 . S
N1701 H1705 0.985 . S
H1702 N1697 0.984 . S
H1703 N1697 0.985 . S
H1704 N1701 0.984 . S
H1705 N1701 0.985 . S
H1706 N1700 0.984 . S
H1707 N1700 0.984 . S
H1708 N1696 0.984 . S
H1709 N1696 0.985 . S
C1710 C1711 1.363 . S
C1710 C1716 1.379 . S
C1710 N1718 1.356 . S
C1711 C1710 1.363 . S
C1711 C1717 1.363 1_655 S
C1712 C1713 1.363 1_455 S
C1712 C1717 1.379 . S
C1712 N1719 1.356 . S
C1713 C1712 1.363 1_655 S
C1713 C1716 1.363 . S
N1714 C1716 1.356 . S
N1714 H1726 0.984 . S
N1714 H1727 0.985 . S
N1715 C1717 1.356 . S
N1715 H1720 0.984 . S
N1715 H1721 0.985 . S
C1716 C1710 1.379 . S
C1716 C1713 1.363 . S
C1716 N1714 1.356 . S
C1717 C1711 1.363 1_455 S
C1717 C1712 1.379 . S
C1717 N1715 1.356 . S
N1718 C1710 1.356 . S
N1718 H1724 0.984 . S
N1718 H1725 0.984 . S
N1719 C1712 1.356 . S
N1719 H1722 0.984 . S
N1719 H1723 0.985 . S
H1720 N1715 0.984 . S
H1721 N1715 0.985 . S
H1722 N1719 0.984 . S
H1723 N1719 0.985 . S
H1724 N1718 0.984 . S
H1725 N1718 0.984 . S
H1726 N1714 0.984 . S
H1727 N1714 0.985 . S
C1728 C1729 1.363 . S
C1728 C1734 1.379 . S
C1728 N1736 1.356 . S
C1729 C1728 1.363 . S
C1729 C1735 1.363 . S
C1730 C1731 1.363 . S
C1730 C1735 1.379 . S
C1730 N1737 1.356 . S
C1731 C1730 1.363 . S
C1731 C1734 1.363 . S
N1732 C1734 1.356 . S
N1732 H1744 0.984 . S
N1732 H1745 0.985 . S
N1733 C1735 1.356 . S
N1733 H1738 0.984 . S
N1733 H1739 0.985 . S
C1734 C1728 1.379 . S
C1734 C1731 1.363 . S
C1734 N1732 1.356 . S
C1735 C1729 1.363 . S
C1735 C1730 1.379 . S
C1735 N1733 1.356 . S
N1736 C1728 1.356 . S
N1736 H1742 0.984 . S
N1736 H1743 0.984 . S
N1737 C1730 1.356 . S
N1737 H1740 0.984 . S
N1737 H1741 0.985 . S
H1738 N1733 0.984 . S
H1739 N1733 0.985 . S
H1740 N1737 0.984 . S
H1741 N1737 0.985 . S
H1742 N1736 0.984 . S
H1743 N1736 0.984 . S
H1744 N1732 0.984 . S
H1745 N1732 0.985 . S
C1746 C1747 1.363 . S
C1746 C1752 1.379 . S
C1746 N1754 1.356 . S
C1747 C1746 1.363 . S
C1747 C1753 1.363 1_545 S
C1748 C1749 1.363 1_565 S
C1748 C1753 1.379 . S
C1748 N1755 1.356 . S
C1749 C1748 1.363 1_545 S
C1749 C1752 1.363 . S
N1750 C1752 1.356 . S
N1750 H1762 0.984 . S
N1750 H1763 0.985 . S
N1751 C1753 1.356 . S
N1751 H1756 0.984 . S
N1751 H1757 0.985 . S
C1752 C1746 1.379 . S
C1752 C1749 1.363 . S
C1752 N1750 1.356 . S
C1753 C1747 1.363 1_565 S
C1753 C1748 1.379 . S
C1753 N1751 1.356 . S
N1754 C1746 1.356 . S
N1754 H1760 0.984 . S
N1754 H1761 0.984 . S
N1755 C1748 1.356 . S
N1755 H1758 0.984 . S
N1755 H1759 0.985 . S
H1756 N1751 0.984 . S
H1757 N1751 0.985 . S
H1758 N1755 0.984 . S
H1759 N1755 0.985 . S
H1760 N1754 0.984 . S
H1761 N1754 0.984 . S
H1762 N1750 0.984 . S
H1763 N1750 0.985 . S
C1764 C1765 1.363 . S
C1764 C1770 1.379 . S
C1764 N1772 1.356 . S
C1765 C1764 1.363 . S
C1765 C1771 1.363 . S
C1766 C1767 1.363 . S
C1766 C1771 1.379 . S
C1766 N1773 1.356 . S
C1767 C1766 1.363 . S
C1767 C1770 1.363 . S
N1768 C1770 1.356 . S
N1768 H1780 0.984 . S
N1768 H1781 0.985 . S
N1769 C1771 1.356 . S
N1769 H1774 0.984 . S
N1769 H1775 0.985 . S
C1770 C1764 1.379 . S
C1770 C1767 1.363 . S
C1770 N1768 1.356 . S
C1771 C1765 1.363 . S
C1771 C1766 1.379 . S
C1771 N1769 1.356 . S
N1772 C1764 1.356 . S
N1772 H1778 0.984 . S
N1772 H1779 0.984 . S
N1773 C1766 1.356 . S
N1773 H1776 0.984 . S
N1773 H1777 0.985 . S
H1774 N1769 0.984 . S
H1775 N1769 0.985 . S
H1776 N1773 0.984 . S
H1777 N1773 0.985 . S
H1778 N1772 0.984 . S
H1779 N1772 0.984 . S
H1780 N1768 0.984 . S
H1781 N1768 0.985 . S
C1782 C1783 1.363 . S
C1782 C1788 1.379 . S
C1782 N1790 1.356 . S
C1783 C1782 1.363 . S
C1783 C1789 1.363 . S
C1784 C1785 1.363 . S
C1784 C1789 1.379 . S
C1784 N1791 1.356 . S
C1785 C1784 1.363 . S
C1785 C1788 1.363 . S
N1786 C1788 1.356 . S
N1786 H1798 0.984 . S
N1786 H1799 0.985 . S
N1787 C1789 1.356 . S
N1787 H1792 0.984 . S
N1787 H1793 0.985 . S
C1788 C1782 1.379 . S
C1788 C1785 1.363 . S
C1788 N1786 1.356 . S
C1789 C1783 1.363 . S
C1789 C1784 1.379 . S
C1789 N1787 1.356 . S
N1790 C1782 1.356 . S
N1790 H1796 0.984 . S
N1790 H1797 0.984 . S
N1791 C1784 1.356 . S
N1791 H1794 0.984 . S
N1791 H1795 0.985 . S
H1792 N1787 0.984 . S
H1793 N1787 0.985 . S
H1794 N1791 0.984 . S
H1795 N1791 0.985 . S
H1796 N1790 0.984 . S
H1797 N1790 0.984 . S
H1798 N1786 0.984 . S
H1799 N1786 0.985 . S
C1800 C1801 1.363 . S
C1800 C1806 1.379 . S
C1800 N1808 1.356 . S
C1801 C1800 1.363 . S
C1801 C1807 1.363 . S
C1802 C1803 1.363 . S
C1802 C1807 1.379 . S
C1802 N1809 1.356 . S
C1803 C1802 1.363 . S
C1803 C1806 1.363 . S
N1804 C1806 1.356 . S
N1804 H1816 0.984 . S
N1804 H1817 0.985 . S
N1805 C1807 1.356 . S
N1805 H1810 0.984 . S
N1805 H1811 0.985 . S
C1806 C1800 1.379 . S
C1806 C1803 1.363 . S
C1806 N1804 1.356 . S
C1807 C1801 1.363 . S
C1807 C1802 1.379 . S
C1807 N1805 1.356 . S
N1808 C1800 1.356 . S
N1808 H1814 0.984 . S
N1808 H1815 0.984 . S
N1809 C1802 1.356 . S
N1809 H1812 0.984 . S
N1809 H1813 0.985 . S
H1810 N1805 0.984 . S
H1811 N1805 0.985 . S
H1812 N1809 0.984 . S
H1813 N1809 0.985 . S
H1814 N1808 0.984 . S
H1815 N1808 0.984 . S
H1816 N1804 0.984 . S
H1817 N1804 0.985 . S
C1818 C1819 1.363 . S
C1818 C1824 1.379 . S
C1818 N1826 1.356 . S
C1819 C1818 1.363 . S
C1819 C1825 1.363 . S
C1820 C1821 1.363 . S
C1820 C1825 1.379 . S
C1820 N1827 1.356 . S
C1821 C1820 1.363 . S
C1821 C1824 1.363 . S
N1822 C1824 1.356 . S
N1822 H1834 0.984 . S
N1822 H1835 0.985 . S
N1823 C1825 1.356 . S
N1823 H1828 0.984 . S
N1823 H1829 0.985 . S
C1824 C1818 1.379 . S
C1824 C1821 1.363 . S
C1824 N1822 1.356 . S
C1825 C1819 1.363 . S
C1825 C1820 1.379 . S
C1825 N1823 1.356 . S
N1826 C1818 1.356 . S
N1826 H1832 0.984 . S
N1826 H1833 0.984 . S
N1827 C1820 1.356 . S
N1827 H1830 0.984 . S
N1827 H1831 0.985 . S
H1828 N1823 0.984 . S
H1829 N1823 0.985 . S
H1830 N1827 0.984 . S
H1831 N1827 0.985 . S
H1832 N1826 0.984 . S
H1833 N1826 0.984 . S
H1834 N1822 0.984 . S
H1835 N1822 0.985 . S
C1836 C1837 1.363 . S
C1836 C1842 1.379 . S
C1836 N1844 1.356 . S
C1837 C1836 1.363 . S
C1837 C1843 1.363 . S
C1838 C1839 1.363 . S
C1838 C1843 1.379 . S
C1838 N1845 1.356 . S
C1839 C1838 1.363 . S
C1839 C1842 1.363 . S
N1840 C1842 1.356 . S
N1840 H1852 0.984 . S
N1840 H1853 0.985 . S
N1841 C1843 1.356 . S
N1841 H1846 0.984 . S
N1841 H1847 0.985 . S
C1842 C1836 1.379 . S
C1842 C1839 1.363 . S
C1842 N1840 1.356 . S
C1843 C1837 1.363 . S
C1843 C1838 1.379 . S
C1843 N1841 1.356 . S
N1844 C1836 1.356 . S
N1844 H1850 0.984 . S
N1844 H1851 0.984 . S
N1845 C1838 1.356 . S
N1845 H1848 0.984 . S
N1845 H1849 0.985 . S
H1846 N1841 0.984 . S
H1847 N1841 0.985 . S
H1848 N1845 0.984 . S
H1849 N1845 0.985 . S
H1850 N1844 0.984 . S
H1851 N1844 0.984 . S
H1852 N1840 0.984 . S
H1853 N1840 0.985 . S
C1854 C1855 1.363 . S
C1854 C1860 1.379 . S
C1854 N1862 1.356 . S
C1855 C1854 1.363 . S
C1855 C1861 1.363 . S
C1856 C1857 1.363 . S
C1856 C1861 1.379 . S
C1856 N1863 1.356 . S
C1857 C1856 1.363 . S
C1857 C1860 1.363 . S
N1858 C1860 1.356 . S
N1858 H1870 0.984 . S
N1858 H1871 0.985 . S
N1859 C1861 1.356 . S
N1859 H1864 0.984 . S
N1859 H1865 0.985 . S
C1860 C1854 1.379 . S
C1860 C1857 1.363 . S
C1860 N1858 1.356 . S
C1861 C1855 1.363 . S
C1861 C1856 1.379 . S
C1861 N1859 1.356 . S
N1862 C1854 1.356 . S
N1862 H1868 0.984 . S
N1862 H1869 0.984 . S
N1863 C1856 1.356 . S
N1863 H1866 0.984 . S
N1863 H1867 0.985 . S
H1864 N1859 0.984 . S
H1865 N1859 0.985 . S
H1866 N1863 0.984 . S
H1867 N1863 0.985 . S
H1868 N1862 0.984 . S
H1869 N1862 0.984 . S
H1870 N1858 0.984 . S
H1871 N1858 0.985 . S
C1872 C1873 1.363 . S
C1872 C1878 1.379 . S
C1872 N1880 1.356 . S
C1873 C1872 1.363 . S
C1873 C1879 1.363 . S
C1874 C1875 1.363 . S
C1874 C1879 1.379 . S
C1874 N1881 1.356 . S
C1875 C1874 1.363 . S
C1875 C1878 1.363 . S
N1876 C1878 1.356 . S
N1876 H1888 0.984 . S
N1876 H1889 0.985 . S
N1877 C1879 1.356 . S
N1877 H1882 0.984 . S
N1877 H1883 0.985 . S
C1878 C1872 1.379 . S
C1878 C1875 1.363 . S
C1878 N1876 1.356 . S
C1879 C1873 1.363 . S
C1879 C1874 1.379 . S
C1879 N1877 1.356 . S
N1880 C1872 1.356 . S
N1880 H1886 0.984 . S
N1880 H1887 0.984 . S
N1881 C1874 1.356 . S
N1881 H1884 0.984 . S
N1881 H1885 0.985 . S
H1882 N1877 0.984 . S
H1883 N1877 0.985 . S
H1884 N1881 0.984 . S
H1885 N1881 0.985 . S
H1886 N1880 0.984 . S
H1887 N1880 0.984 . S
H1888 N1876 0.984 . S
H1889 N1876 0.985 . S
C1890 C1891 1.363 . S
C1890 C1896 1.379 . S
C1890 N1898 1.356 . S
C1891 C1890 1.363 . S
C1891 C1897 1.363 . S
C1892 C1893 1.363 . S
C1892 C1897 1.379 . S
C1892 N1899 1.356 . S
C1893 C1892 1.363 . S
C1893 C1896 1.363 . S
N1894 C1896 1.356 . S
N1894 H1906 0.984 . S
N1894 H1907 0.985 . S
N1895 C1897 1.356 . S
N1895 H1900 0.984 . S
N1895 H1901 0.985 . S
C1896 C1890 1.379 . S
C1896 C1893 1.363 . S
C1896 N1894 1.356 . S
C1897 C1891 1.363 . S
C1897 C1892 1.379 . S
C1897 N1895 1.356 . S
N1898 C1890 1.356 . S
N1898 H1904 0.984 . S
N1898 H1905 0.984 . S
N1899 C1892 1.356 . S
N1899 H1902 0.984 . S
N1899 H1903 0.985 . S
H1900 N1895 0.984 . S
H1901 N1895 0.985 . S
H1902 N1899 0.984 . S
H1903 N1899 0.985 . S
H1904 N1898 0.984 . S
H1905 N1898 0.984 . S
H1906 N1894 0.984 . S
H1907 N1894 0.985 . S
C1908 C1909 1.363 . S
C1908 C1914 1.379 . S
C1908 N1916 1.356 . S
C1909 C1908 1.363 . S
C1909 C1915 1.363 . S
C1910 C1911 1.363 . S
C1910 C1915 1.379 . S
C1910 N1917 1.356 . S
C1911 C1910 1.363 . S
C1911 C1914 1.363 . S
N1912 C1914 1.356 . S
N1912 H1924 0.984 . S
N1912 H1925 0.985 . S
N1913 C1915 1.356 . S
N1913 H1918 0.984 . S
N1913 H1919 0.985 . S
C1914 C1908 1.379 . S
C1914 C1911 1.363 . S
C1914 N1912 1.356 . S
C1915 C1909 1.363 . S
C1915 C1910 1.379 . S
C1915 N1913 1.356 . S
N1916 C1908 1.356 . S
N1916 H1922 0.984 . S
N1916 H1923 0.984 . S
N1917 C1910 1.356 . S
N1917 H1920 0.984 . S
N1917 H1921 0.985 . S
H1918 N1913 0.984 . S
H1919 N1913 0.985 . S
H1920 N1917 0.984 . S
H1921 N1917 0.985 . S
H1922 N1916 0.984 . S
H1923 N1916 0.984 . S
H1924 N1912 0.984 . S
H1925 N1912 0.985 . S
C1926 C1927 1.363 . S
C1926 C1932 1.379 . S
C1926 N1934 1.356 . S
C1927 C1926 1.363 . S
C1927 C1933 1.363 . S
C1928 C1929 1.363 . S
C1928 C1933 1.379 . S
C1928 N1935 1.356 . S
C1929 C1928 1.363 . S
C1929 C1932 1.363 . S
N1930 C1932 1.356 . S
N1930 H1942 0.984 . S
N1930 H1943 0.985 . S
N1931 C1933 1.356 . S
N1931 H1936 0.984 . S
N1931 H1937 0.985 . S
C1932 C1926 1.379 . S
C1932 C1929 1.363 . S
C1932 N1930 1.356 . S
C1933 C1927 1.363 . S
C1933 C1928 1.379 . S
C1933 N1931 1.356 . S
N1934 C1926 1.356 . S
N1934 H1940 0.984 . S
N1934 H1941 0.984 . S
N1935 C1928 1.356 . S
N1935 H1938 0.984 . S
N1935 H1939 0.985 . S
H1936 N1931 0.984 . S
H1937 N1931 0.985 . S
H1938 N1935 0.984 . S
H1939 N1935 0.985 . S
H1940 N1934 0.984 . S
H1941 N1934 0.984 . S
H1942 N1930 0.984 . S
H1943 N1930 0.985 . S
C1944 C1945 1.363 . S
C1944 C1950 1.379 . S
C1944 N1952 1.356 . S
C1945 C1944 1.363 . S
C1945 C1951 1.363 . S
C1946 C1947 1.363 . S
C1946 C1951 1.379 . S
C1946 N1953 1.356 . S
C1947 C1946 1.363 . S
C1947 C1950 1.363 . S
N1948 C1950 1.356 . S
N1948 H1960 0.984 . S
N1948 H1961 0.985 . S
N1949 C1951 1.356 . S
N1949 H1954 0.984 . S
N1949 H1955 0.985 . S
C1950 C1944 1.379 . S
C1950 C1947 1.363 . S
C1950 N1948 1.356 . S
C1951 C1945 1.363 . S
C1951 C1946 1.379 . S
C1951 N1949 1.356 . S
N1952 C1944 1.356 . S
N1952 H1958 0.984 . S
N1952 H1959 0.984 . S
N1953 C1946 1.356 . S
N1953 H1956 0.984 . S
N1953 H1957 0.985 . S
H1954 N1949 0.984 . S
H1955 N1949 0.985 . S
H1956 N1953 0.984 . S
H1957 N1953 0.985 . S
H1958 N1952 0.984 . S
H1959 N1952 0.984 . S
H1960 N1948 0.984 . S
H1961 N1948 0.985 . S
C1962 C1963 1.363 . S
C1962 C1968 1.379 . S
C1962 N1970 1.356 . S
C1963 C1962 1.363 . S
C1963 C1969 1.363 . S
C1964 C1965 1.363 . S
C1964 C1969 1.379 . S
C1964 N1971 1.356 . S
C1965 C1964 1.363 . S
C1965 C1968 1.363 . S
N1966 C1968 1.356 . S
N1966 H1978 0.984 . S
N1966 H1979 0.985 . S
N1967 C1969 1.356 . S
N1967 H1972 0.984 . S
N1967 H1973 0.985 . S
C1968 C1962 1.379 . S
C1968 C1965 1.363 . S
C1968 N1966 1.356 . S
C1969 C1963 1.363 . S
C1969 C1964 1.379 . S
C1969 N1967 1.356 . S
N1970 C1962 1.356 . S
N1970 H1976 0.984 . S
N1970 H1977 0.984 . S
N1971 C1964 1.356 . S
N1971 H1974 0.984 . S
N1971 H1975 0.985 . S
H1972 N1967 0.984 . S
H1973 N1967 0.985 . S
H1974 N1971 0.984 . S
H1975 N1971 0.985 . S
H1976 N1970 0.984 . S
H1977 N1970 0.984 . S
H1978 N1966 0.984 . S
H1979 N1966 0.985 . S
C1009 C469 1.738 . S
C1011 C657 1.690 . S
C1027 C505 1.783 . S
C1029 C697 1.735 . S
C1045 C433 1.816 . S
C1047 C736 1.817 . S
C1063 C397 1.653 . S
C1065 C696 1.640 . S
C1083 C737 1.498 . S
C1081 C325 1.529 . S
C1099 C361 1.564 . S
C1101 C656 1.597 . S
C1119 C667 1.690 . S
C1117 C421 1.750 . S
C1137 C707 1.734 . S
C1135 C349 1.780 . S
C1153 C385 1.808 . S
C1155 C746 1.819 . S
C1171 C493 1.649 . S
C1173 C706 1.642 . S
C1189 C529 1.543 . S
C1191 C747 1.498 . S
C1209 C666 1.600 . S
C1207 C457 1.572 . S
C1227 C777 1.690 . S
C1225 C37 1.738 1_455 S
C1243 C73 1.782 . S
C1245 C817 1.735 . S
C1261 C1 1.816 . S
C1263 C856 1.818 . S
C1279 C613 1.653 . S
C1281 C816 1.640 . S
C1297 C541 1.529 . S
C1299 C857 1.498 . S
C1315 C577 1.564 . S
C1317 C776 1.598 . S
C1333 C637 1.750 . S
C1335 C787 1.691 . S
C1351 C565 1.779 . S
C1353 C827 1.734 . S
C1371 C866 1.820 . S
C1369 C601 1.809 . S
C1387 C61 1.649 1_565 S
C1389 C826 1.642 . S
C1407 C867 1.498 . S
C1405 C97 1.543 1_455 S
C1423 C25 1.572 . S
C1425 C786 1.600 . S
C1443 C897 1.690 . S
C1441 C253 1.738 . S
C1459 C289 1.782 . S
C1461 C937 1.735 . S
C1479 C976 1.818 . S
C1477 C217 1.816 . S
C1497 C936 1.640 . S
C1495 C181 1.627 1_545 S
C1515 C977 1.498 . S
C1513 C109 1.529 1_655 S
C1531 C145 1.564 . S
C1533 C896 1.597 . S
C1549 C205 1.750 1_655 S
C1551 C907 1.690 . S
C1567 C133 1.779 . S
C1569 C947 1.734 . S
C1587 C986 1.819 . S
C1585 C169 1.809 . S
C1603 C277 1.649 . S
C1605 C946 1.642 . S
C1621 C313 1.543 . S
C1623 C987 1.498 . S
C1639 C241 1.572 . S
C1641 C906 1.600 . S
C1657 C571 1.406 . S
C1659 C653 1.397 . S
C1677 C693 1.830 . S
C1675 C607 1.831 . S
C1693 C643 1.578 . S
C1695 C743 1.584 . S
C1711 C247 1.838 . S
C1713 C703 1.829 . S
C1729 C283 1.582 . S
C1731 C733 1.585 . S
C1749 C663 1.396 . S
C1747 C319 1.407 . S
C1765 C139 1.406 . S
C1767 C773 1.398 . S
C1783 C175 1.831 . S
C1785 C813 1.830 . S
C1801 C211 1.578 . S
C1803 C863 1.584 . S
C1819 C463 1.832 . S
C1821 C823 1.829 . S
C1839 C853 1.585 . S
C1837 C499 1.582 . S
C1855 C535 1.407 . S
C1857 C783 1.396 . S
C1873 C355 1.406 . S
C1875 C893 1.397 . S
C1891 C391 1.831 . S
C1893 C933 1.829 . S
C1911 C983 1.584 . S
C1909 C427 1.578 . S
C1927 C31 1.832 . S
C1929 C943 1.829 . S
C1945 C67 1.582 . S
C1947 C973 1.585 . S
C1963 C103 1.407 . S
C1965 C903 1.396 . S
