# Generated by pormake.
# Topology ptr, (4,4)-cn, num edge types: 1
# Building blocks:
#     Node 0, Type 0, BuildingBlock: AZAVOO_clean_sbu_0, # of connection points: 4
#     Node 1, Type 0, BuildingBlock: AZAVOO_clean_sbu_0, # of connection points: 4
#     Node 2, Type 0, BuildingBlock: AZAVOO_clean_sbu_0, # of connection points: 4
#     Node 3, Type 0, BuildingBlock: AZAVOO_clean_sbu_0, # of connection points: 4
#     Node 4, Type 0, BuildingBlock: AZAVOO_clean_sbu_0, # of connection points: 4
#     Node 5, Type 0, BuildingBlock: AZAVOO_clean_sbu_0, # of connection points: 4
#     Node 6, Type 0, BuildingBlock: AZAVOO_clean_sbu_0, # of connection points: 4
#     Node 7, Type 0, BuildingBlock: AZAVOO_clean_sbu_0, # of connection points: 4
#     Node 8, Type 0, BuildingBlock: AZAVOO_clean_sbu_0, # of connection points: 4
#     Node 9, Type 0, BuildingBlock: AZAVOO_clean_sbu_0, # of connection points: 4
#     Node 10, Type 0, BuildingBlock: AZAVOO_clean_sbu_0, # of connection points: 4
#     Node 11, Type 0, BuildingBlock: AZAVOO_clean_sbu_0, # of connection points: 4
#     Node 12, Type 0, BuildingBlock: AZAVOO_clean_sbu_0, # of connection points: 4
#     Node 13, Type 0, BuildingBlock: AZAVOO_clean_sbu_0, # of connection points: 4
#     Node 14, Type 0, BuildingBlock: AZAVOO_clean_sbu_0, # of connection points: 4
#     Node 15, Type 0, BuildingBlock: AZAVOO_clean_sbu_0, # of connection points: 4
#     Node 16, Type 0, BuildingBlock: AZAVOO_clean_sbu_0, # of connection points: 4
#     Node 17, Type 0, BuildingBlock: AZAVOO_clean_sbu_0, # of connection points: 4
#     Node 18, Type 1, BuildingBlock: KUFVIS_clean_linker_0, # of connection points: 4
#     Node 19, Type 1, BuildingBlock: KUFVIS_clean_linker_0, # of connection points: 4
#     Node 20, Type 1, BuildingBlock: KUFVIS_clean_linker_0, # of connection points: 4
#     Node 21, Type 1, BuildingBlock: KUFVIS_clean_linker_0, # of connection points: 4
#     Node 22, Type 1, BuildingBlock: KUFVIS_clean_linker_0, # of connection points: 4
#     Node 23, Type 1, BuildingBlock: KUFVIS_clean_linker_0, # of connection points: 4
#     Node 24, Type 1, BuildingBlock: KUFVIS_clean_linker_0, # of connection points: 4
#     Node 25, Type 1, BuildingBlock: KUFVIS_clean_linker_0, # of connection points: 4
#     Node 26, Type 1, BuildingBlock: KUFVIS_clean_linker_0, # of connection points: 4
#     Node 27, Type 1, BuildingBlock: KUFVIS_clean_linker_0, # of connection points: 4
#     Node 28, Type 1, BuildingBlock: KUFVIS_clean_linker_0, # of connection points: 4
#     Node 29, Type 1, BuildingBlock: KUFVIS_clean_linker_0, # of connection points: 4
#     Node 30, Type 1, BuildingBlock: KUFVIS_clean_linker_0, # of connection points: 4
#     Node 31, Type 1, BuildingBlock: KUFVIS_clean_linker_0, # of connection points: 4
#     Node 32, Type 1, BuildingBlock: KUFVIS_clean_linker_0, # of connection points: 4
#     Node 33, Type 1, BuildingBlock: KUFVIS_clean_linker_0, # of connection points: 4
#     Node 34, Type 1, BuildingBlock: KUFVIS_clean_linker_0, # of connection points: 4
#     Node 35, Type 1, BuildingBlock: KUFVIS_clean_linker_0, # of connection points: 4
#     Edge 36, Type (0, 1), None
#     Edge 37, Type (0, 1), None
#     Edge 38, Type (0, 1), None
#     Edge 39, Type (0, 1), None
#     Edge 40, Type (0, 1), None
#     Edge 41, Type (0, 1), None
#     Edge 42, Type (0, 1), None
#     Edge 43, Type (0, 1), None
#     Edge 44, Type (0, 1), None
#     Edge 45, Type (0, 1), None
#     Edge 46, Type (0, 1), None
#     Edge 47, Type (0, 1), None
#     Edge 48, Type (0, 1), None
#     Edge 49, Type (0, 1), None
#     Edge 50, Type (0, 1), None
#     Edge 51, Type (0, 1), None
#     Edge 52, Type (0, 1), None
#     Edge 53, Type (0, 1), None
#     Edge 54, Type (0, 1), None
#     Edge 55, Type (0, 1), None
#     Edge 56, Type (0, 1), None
#     Edge 57, Type (0, 1), None
#     Edge 58, Type (0, 1), None
#     Edge 59, Type (0, 1), None
#     Edge 60, Type (0, 1), None
#     Edge 61, Type (0, 1), None
#     Edge 62, Type (0, 1), None
#     Edge 63, Type (0, 1), None
#     Edge 64, Type (0, 1), None
#     Edge 65, Type (0, 1), None
#     Edge 66, Type (0, 1), None
#     Edge 67, Type (0, 1), None
#     Edge 68, Type (0, 1), None
#     Edge 69, Type (0, 1), None
#     Edge 70, Type (0, 1), None
#     Edge 71, Type (0, 1), None
#     Edge 72, Type (0, 1), None
#     Edge 73, Type (0, 1), None
#     Edge 74, Type (0, 1), None
#     Edge 75, Type (0, 1), None
#     Edge 76, Type (0, 1), None
#     Edge 77, Type (0, 1), None
#     Edge 78, Type (0, 1), None
#     Edge 79, Type (0, 1), None
#     Edge 80, Type (0, 1), None
#     Edge 81, Type (0, 1), None
#     Edge 82, Type (0, 1), None
#     Edge 83, Type (0, 1), None
#     Edge 84, Type (0, 1), None
#     Edge 85, Type (0, 1), None
#     Edge 86, Type (0, 1), None
#     Edge 87, Type (0, 1), None
#     Edge 88, Type (0, 1), None
#     Edge 89, Type (0, 1), None
#     Edge 90, Type (0, 1), None
#     Edge 91, Type (0, 1), None
#     Edge 92, Type (0, 1), None
#     Edge 93, Type (0, 1), None
#     Edge 94, Type (0, 1), None
#     Edge 95, Type (0, 1), None
#     Edge 96, Type (0, 1), None
#     Edge 97, Type (0, 1), None
#     Edge 98, Type (0, 1), None
#     Edge 99, Type (0, 1), None
#     Edge 100, Type (0, 1), None
#     Edge 101, Type (0, 1), None
#     Edge 102, Type (0, 1), None
#     Edge 103, Type (0, 1), None
#     Edge 104, Type (0, 1), None
#     Edge 105, Type (0, 1), None
#     Edge 106, Type (0, 1), None
#     Edge 107, Type (0, 1), None
# Relax obj value: 0.076
# Max RMSD: 0.253
# Mean RMSD: 0.138
data_MOF--net-ptr--node1-AZAVOO_clean_sbu_0--node2-KUFVIS_clean_linker_0--edge1-none
_symmetry_space_group_name_H-M    P1
_symmetry_Int_Tables_number       1
_symmetry_cell_setting            triclinic
loop_
_symmetry_equiv_pos_as_xyz
'x, y, z'
_cell_length_a     37.769271
_cell_length_b     36.72082
_cell_length_c     21.674739
_cell_angle_alpha  90.549947
_cell_angle_beta   91.631194
_cell_angle_gamma 120.04816
loop_
_atom_site_label
_atom_site_type_symbol
_atom_site_fract_x
_atom_site_fract_y
_atom_site_fract_z
_atom_type_partial_charge
Mg0 Mg 0.99154 0.34168 0.9761 0.0
O1 O 0.99077 0.38096 0.05704 0.0
O2 O 0.93939 0.39335 0.0371 0.0
Mg3 Mg 0.9202 0.37744 0.9337 0.0
C4 C 0.96766 0.39523 0.07317 0.0
C5 C 0.04086 0.29569 0.03152 0.0
O6 O 0.05281 0.29307 0.97616 0.0
O7 O 0.92768 0.29177 0.00113 0.0
O8 O 0.89055 0.30486 0.93485 0.0
O9 O 0.04376 0.39782 0.93294 0.0
O10 O 0.97865 0.37841 0.91791 0.0
C11 C 0.8986 0.27857 0.96068 0.0
C12 C 0.0163 0.40476 0.90763 0.0
O13 O 0.01902 0.31271 0.0393 0.0
Mg14 Mg 0.66044 0.64007 0.02428 0.0
O15 O 0.6126 0.61646 0.94628 0.0
O16 O 0.55688 0.61789 0.97394 0.0
Mg17 Mg 0.56887 0.64132 0.07449 0.0
C18 C 0.57688 0.6104 0.93445 0.0
C19 C 0.74476 0.66854 0.96087 0.0
O20 O 0.7606 0.68103 0.01708 0.0
O21 O 0.67577 0.7082 0.01276 0.0
O22 O 0.62202 0.70701 0.05528 0.0
O23 O 0.63215 0.57481 0.06838 0.0
O24 O 0.61649 0.62369 0.0885 0.0
C25 C 0.65858 0.72717 0.03645 0.0
C26 C 0.61177 0.58759 0.10026 0.0
O27 O 0.70614 0.64861 0.95207 0.0
Mg28 Mg 0.34529 0.99901 0.98164 0.0
O29 O 0.39105 0.01716 0.06223 0.0
O30 O 0.45243 0.06506 0.03077 0.0
Mg31 Mg 0.44747 0.07039 0.9256 0.0
C32 C 0.42904 0.04259 0.07297 0.0
C33 C 0.25862 0.94324 0.04176 0.0
O34 O 0.24715 0.9242 0.98722 0.0
O35 O 0.3503 0.06351 0.98285 0.0
O36 O 0.40371 0.09656 0.9229 0.0
O37 O 0.35365 0.94462 0.95352 0.0
O38 O 0.39014 0.00912 0.92023 0.0
C39 C 0.37082 0.09224 0.94477 0.0
C40 C 0.38264 0.97103 0.9196 0.0
O41 O 0.29487 0.97388 0.05062 0.0
Mg42 Mg 0.00337 0.65991 0.02954 0.0
O43 O 0.00403 0.62058 0.94861 0.0
O44 O 0.05534 0.60807 0.96855 0.0
Mg45 Mg 0.07452 0.6239 0.07195 0.0
C46 C 0.0271 0.60625 0.93248 0.0
C47 C 0.95426 0.70612 0.9741 0.0
O48 O 0.9423 0.70876 0.02946 0.0
O49 O 0.06728 0.70967 0.00446 0.0
O50 O 0.10433 0.69649 0.07078 0.0
O51 O 0.95107 0.60384 0.07273 0.0
O52 O 0.01613 0.62307 0.08771 0.0
C53 C 0.09636 0.72283 0.04492 0.0
C54 C 0.97847 0.5968 0.098 0.0
O55 O 0.97602 0.68902 0.96633 0.0
Mg56 Mg 0.33471 0.36146 0.98123 0.0
O57 O 0.38253 0.38508 0.05925 0.0
O58 O 0.43825 0.38363 0.03162 0.0
Mg59 Mg 0.42628 0.36021 0.93106 0.0
C60 C 0.41825 0.39113 0.0711 0.0
C61 C 0.25038 0.33314 0.04462 0.0
O62 O 0.23453 0.32077 0.98839 0.0
O63 O 0.31937 0.29333 -0.00724 0.0
O64 O 0.37311 0.29452 0.95021 0.0
O65 O 0.363 0.42672 0.93715 0.0
O66 O 0.37867 0.37785 0.91703 0.0
C67 C 0.33655 0.27436 0.96903 0.0
C68 C 0.38339 0.41396 0.90528 0.0
O69 O 0.289 0.35294 0.05342 0.0
Mg70 Mg 0.64967 0.00243 0.02363 0.0
O71 O 0.60392 0.98429 0.94303 0.0
O72 O 0.54253 0.93639 0.97448 0.0
Mg73 Mg 0.54748 0.93105 0.07964 0.0
C74 C 0.56593 0.95887 0.93228 0.0
C75 C 0.73636 0.05817 0.96354 0.0
O76 O 0.74784 0.07717 0.01811 0.0
O77 O 0.64465 0.93793 0.02243 0.0
O78 O 0.59124 0.90489 0.08238 0.0
O79 O 0.64132 0.05682 0.05174 0.0
O80 O 0.60481 0.99232 0.08503 0.0
C81 C 0.62413 0.9092 0.06053 0.0
C82 C 0.61232 0.03042 0.08566 0.0
O83 O 0.7001 0.02756 0.95465 0.0
Mg84 Mg 0.6601 0.67538 0.3091 0.0
O85 O 0.65917 0.71448 0.3901 0.0
O86 O 0.60758 0.72655 0.37015 0.0
Mg87 Mg 0.58856 0.71086 0.26669 0.0
C88 C 0.63588 0.72852 0.40625 0.0
C89 C 0.70904 0.62901 0.36469 0.0
O90 O 0.72064 0.62582 0.30931 0.0
O91 O 0.59632 0.6253 0.33411 0.0
O92 O 0.55917 0.63833 0.26774 0.0
O93 O 0.71226 0.73166 0.26598 0.0
O94 O 0.64711 0.71208 0.25099 0.0
C95 C 0.56718 0.61206 0.29376 0.0
C96 C 0.68474 0.73851 0.24071 0.0
O97 O 0.6876 0.64647 0.37234 0.0
Mg98 Mg 0.32676 0.97496 0.35744 0.0
O99 O 0.27898 0.95091 0.27939 0.0
O100 O 0.22306 0.95208 0.30663 0.0
Mg101 Mg 0.23485 0.97565 0.40712 0.0
C102 C 0.24321 0.94465 0.26735 0.0
C103 C 0.41115 0.00324 0.2942 0.0
O104 O 0.42701 0.01544 0.35045 0.0
O105 O 0.34165 0.04288 0.34539 0.0
O106 O 0.2878 0.04146 0.38792 0.0
O107 O 0.29886 0.90985 0.40174 0.0
O108 O 0.28275 0.95844 0.42157 0.0
C109 C 0.32439 0.06173 0.36921 0.0
C110 C 0.27829 0.92245 0.43348 0.0
O111 O 0.37254 0.98361 0.28536 0.0
Mg112 Mg 0.0107 0.331 0.31488 0.0
O113 O 0.05646 0.34911 0.39545 0.0
O114 O 0.1178 0.39707 0.36392 0.0
Mg115 Mg 0.11291 0.40223 0.25873 0.0
C116 C 0.09443 0.37463 0.40616 0.0
C117 C 0.92405 0.27545 0.37508 0.0
O118 O 0.9125 0.25642 0.32053 0.0
O119 O 0.01589 0.39555 0.31612 0.0
O120 O 0.06927 0.42851 0.25607 0.0
O121 O 0.0189 0.27652 0.28664 0.0
O122 O 0.05552 0.34104 0.25352 0.0
C123 C 0.03644 0.42427 0.27803 0.0
C124 C 0.04793 0.30292 0.25279 0.0
O125 O 0.96034 0.30601 0.3839 0.0
Mg126 Mg 0.66873 0.99178 0.36284 0.0
O127 O 0.66958 0.95261 0.28183 0.0
O128 O 0.72126 0.94066 0.3016 0.0
Mg129 Mg 0.7405 0.95654 0.40497 0.0
C130 C 0.69287 0.93859 0.2656 0.0
C131 C 0.6196 0.03802 0.30719 0.0
O132 O 0.60816 0.04146 0.36258 0.0
O133 O 0.73246 0.04192 0.33767 0.0
O134 O 0.76983 0.02907 0.40384 0.0
O135 O 0.61673 0.93549 0.40618 0.0
O136 O 0.68193 0.95524 0.42097 0.0
C137 C 0.76163 0.05524 0.378 0.0
C138 C 0.64434 0.92875 0.43138 0.0
O139 O 0.64101 0.02051 0.29964 0.0
Mg140 Mg 0.0026 0.69459 0.31479 0.0
O141 O 0.05043 0.71848 0.39282 0.0
O142 O 0.10615 0.71693 0.36553 0.0
Mg143 Mg 0.09417 0.6932 0.26511 0.0
C144 C 0.08614 0.72457 0.40481 0.0
C145 C 0.9183 0.66625 0.37809 0.0
O146 O 0.90248 0.65357 0.32192 0.0
O147 O 0.98729 0.62654 0.32682 0.0
O148 O 0.04099 0.62752 0.28447 0.0
O149 O 0.03085 0.75969 0.27035 0.0
O150 O 0.04653 0.71077 0.25062 0.0
C151 C 0.00436 0.60748 0.30302 0.0
C152 C 0.05122 0.74684 0.23862 0.0
O153 O 0.95692 0.68627 0.38688 0.0
Mg154 Mg 0.31643 0.33742 0.35722 0.0
O155 O 0.27066 0.31934 0.27667 0.0
O156 O 0.20931 0.27138 0.30816 0.0
Mg157 Mg 0.21421 0.26613 0.41333 0.0
C158 C 0.23268 0.29385 0.26594 0.0
C159 C 0.40325 0.39259 0.29687 0.0
O160 O 0.41513 0.41136 0.35157 0.0
O161 O 0.31126 0.27285 0.35597 0.0
O162 O 0.25785 0.23985 0.41594 0.0
O163 O 0.30817 0.39186 0.3856 0.0
O164 O 0.2716 0.32732 0.41867 0.0
C165 C 0.2907 0.24411 0.39403 0.0
C166 C 0.27916 0.36543 0.41945 0.0
O167 O 0.36676 0.3624 0.28807 0.0
Mg168 Mg 0.32623 0.00973 0.64247 0.0
O169 O 0.32536 0.04889 0.7235 0.0
O170 O 0.27368 0.06084 0.70374 0.0
Mg171 Mg 0.25444 0.04496 0.60037 0.0
C172 C 0.30208 0.06291 0.73973 0.0
C173 C 0.37539 0.9635 0.69807 0.0
O174 O 0.38684 0.96009 0.64268 0.0
O175 O 0.2625 0.95958 0.66765 0.0
O176 O 0.22512 0.97243 0.6015 0.0
O177 O 0.37822 0.06603 0.59915 0.0
O178 O 0.31301 0.04627 0.58436 0.0
C179 C 0.23333 0.94625 0.62733 0.0
C180 C 0.3506 0.07277 0.57396 0.0
O181 O 0.35396 0.981 0.70565 0.0
Mg182 Mg 0.9924 0.30704 0.69082 0.0
O183 O 0.9446 0.28304 0.61276 0.0
O184 O 0.88878 0.28442 0.63999 0.0
Mg185 Mg 0.90067 0.30814 0.74041 0.0
C186 C 0.90885 0.27685 0.60074 0.0
C187 C 0.07678 0.33554 0.62756 0.0
O188 O 0.09261 0.34817 0.68374 0.0
O189 O 0.00751 0.37503 0.67874 0.0
O190 O 0.95373 0.37388 0.72108 0.0
O191 O 0.96429 0.24195 0.73529 0.0
O192 O 0.94843 0.29074 0.75497 0.0
C193 C 0.99037 0.39401 0.70254 0.0
C194 C 0.94382 0.25471 0.76698 0.0
O195 O 0.03816 0.31552 0.61876 0.0
Mg196 Mg 0.67862 0.66427 0.6483 0.0
O197 O 0.72442 0.68234 0.72883 0.0
O198 O 0.78577 0.73028 0.6973 0.0
Mg199 Mg 0.78084 0.73551 0.59212 0.0
C200 C 0.76241 0.70782 0.73953 0.0
C201 C 0.59185 0.60903 0.70867 0.0
O202 O 0.58003 0.59019 0.65401 0.0
O203 O 0.68383 0.72885 0.64954 0.0
O204 O 0.73721 0.7618 0.58949 0.0
O205 O 0.68683 0.60979 0.61991 0.0
O206 O 0.72343 0.67433 0.58683 0.0
C207 C 0.70436 0.75755 0.61142 0.0
C208 C 0.71584 0.63621 0.58605 0.0
O209 O 0.6283 0.63929 0.71746 0.0
Mg210 Mg 0.33495 0.3262 0.69636 0.0
O211 O 0.33588 0.2871 0.61535 0.0
O212 O 0.38745 0.27499 0.63529 0.0
Mg213 Mg 0.40649 0.2907 0.73873 0.0
C214 C 0.35916 0.27305 0.59918 0.0
C215 C 0.28598 0.37256 0.64082 0.0
O216 O 0.27438 0.37573 0.69621 0.0
O217 O 0.39874 0.37629 0.67136 0.0
O218 O 0.43589 0.36322 0.73766 0.0
O219 O 0.2828 0.2699 0.73948 0.0
O220 O 0.34795 0.2895 0.75446 0.0
C221 C 0.42789 0.3895 0.71168 0.0
C222 C 0.31033 0.26306 0.76474 0.0
O223 O 0.30743 0.3551 0.63315 0.0
Mg224 Mg 0.66822 0.0266 0.64788 0.0
O225 O 0.71602 0.05065 0.72592 0.0
O226 O 0.77192 0.04947 0.69865 0.0
Mg227 Mg 0.76011 0.02589 0.59816 0.0
C228 C 0.75179 0.05691 0.73794 0.0
C229 C 0.58385 0.9983 0.71109 0.0
O230 O 0.568 0.98608 0.65484 0.0
O231 O 0.65331 0.95868 0.65993 0.0
O232 O 0.70714 0.96008 0.61739 0.0
O233 O 0.69612 0.09171 0.60356 0.0
O234 O 0.71221 0.0431 0.58373 0.0
C235 C 0.67057 0.93982 0.63611 0.0
C236 C 0.71668 0.07909 0.57181 0.0
O237 O 0.62245 0.01798 0.71995 0.0
Mg238 Mg 0.9844 0.67072 0.69076 0.0
O239 O 0.93865 0.65271 0.61021 0.0
O240 O 0.87728 0.60486 0.64178 0.0
Mg241 Mg 0.88214 0.59971 0.74696 0.0
C242 C 0.90066 0.62725 0.59952 0.0
C243 C 0.07108 0.72608 0.63049 0.0
O244 O 0.08267 0.74512 0.68503 0.0
O245 O 0.979 0.60607 0.6895 0.0
O246 O 0.92561 0.57324 0.74957 0.0
O247 O 0.97639 0.72532 0.71903 0.0
O248 O 0.93962 0.66081 0.75213 0.0
C249 C 0.95839 0.57737 0.72758 0.0
C250 C 0.94732 0.69896 0.75287 0.0
O251 O 0.03475 0.69558 0.6217 0.0
H252 H 0.27167 0.32048 0.15875 0.0
H253 H 0.17255 0.31624 0.05191 0.0
H254 H 0.15375 0.26844 0.23686 0.0
H255 H 0.11611 0.29808 0.24286 0.0
H256 H 0.01174 0.28592 0.14439 0.0
H257 H 0.10605 0.28268 0.04337 0.0
C258 C 0.23976 0.31202 0.15443 0.0
C259 C 0.21462 0.29472 0.20476 0.0
C260 C 0.224 0.31795 0.09841 0.0
C261 C 0.18315 0.30861 0.09401 0.0
C262 C 0.1573 0.29177 0.1444 0.0
C263 C 0.17313 0.28282 0.19829 0.0
C264 C 0.11542 0.28705 0.1435 0.0
C265 C 0.0988 0.29077 0.19941 0.0
C266 C 0.06089 0.28867 0.19938 0.0
C267 C 0.03991 0.28477 0.14367 0.0
C268 C 0.05736 0.28549 0.08736 0.0
C269 C 0.0938 0.28393 0.08728 0.0
H270 H 0.65555 0.94917 0.1658 0.0
H271 H 0.64152 0.84524 0.05546 0.0
H272 H 0.71139 0.87941 0.22988 0.0
H273 H 0.6822 0.81041 0.23656 0.0
H274 H 0.70017 0.72354 0.1304 0.0
H275 H 0.67097 0.80801 0.0376 0.0
C276 C 0.66233 0.924 0.15883 0.0
C277 C 0.68405 0.91622 0.20489 0.0
C278 C 0.64821 0.89926 0.10438 0.0
C279 C 0.65502 0.8654 0.0961 0.0
C280 C 0.67746 0.85709 0.1418 0.0
C281 C 0.69326 0.88417 0.19479 0.0
C282 C 0.68285 0.81935 0.13716 0.0
C283 C 0.68694 0.80065 0.19173 0.0
C284 C 0.69414 0.76691 0.18887 0.0
C285 C 0.69761 0.75174 0.13161 0.0
C286 C 0.68477 0.76337 0.07775 0.0
C287 C 0.67973 0.79875 0.07991 0.0
H288 H 0.27638 0.97362 0.15931 0.0
H289 H 0.18219 0.8747 0.0441 0.0
H290 H 0.17269 0.87414 0.24258 0.0
H291 H 0.10755 0.83055 0.22276 0.0
H292 H 0.04686 0.70885 0.13384 0.0
H293 H 0.15491 0.80598 0.05627 0.0
C294 C 0.24678 0.94515 0.15379 0.0
C295 C 0.22457 0.92699 0.20618 0.0
C296 C 0.23197 0.92615 0.09519 0.0
C297 C 0.19378 0.88885 0.08956 0.0
C298 C 0.17165 0.86895 0.14239 0.0
C299 C 0.18738 0.88907 0.20061 0.0
C300 C 0.13501 0.82547 0.13779 0.0
C301 C 0.10563 0.81041 0.18456 0.0
C302 C 0.07499 0.76798 0.18433 0.0
C303 C 0.07091 0.74168 0.13444 0.0
C304 C 0.09932 0.75533 0.08831 0.0
C305 C 0.13168 0.79692 0.0902 0.0
H306 H 0.33936 0.05228 0.83952 0.0
H307 H 0.35349 0.15624 0.94988 0.0
H308 H 0.2836 0.12212 0.77547 0.0
H309 H 0.31278 0.19111 0.76883 0.0
H310 H 0.295 0.27808 0.87509 0.0
H311 H 0.3241 0.1935 0.96779 0.0
C312 C 0.3326 0.07747 0.84649 0.0
C313 C 0.3109 0.08527 0.80044 0.0
C314 C 0.34675 0.1022 0.90095 0.0
C315 C 0.33997 0.13608 0.90924 0.0
C316 C 0.31754 0.14442 0.86356 0.0
C317 C 0.30172 0.11734 0.81056 0.0
C318 C 0.31218 0.18217 0.86823 0.0
C319 C 0.30808 0.20089 0.81368 0.0
C320 C 0.30093 0.23466 0.81658 0.0
C321 C 0.29753 0.24985 0.87385 0.0
C322 C 0.31035 0.23819 0.92769 0.0
C323 C 0.31535 0.20278 0.92549 0.0
H324 H 0.7186 0.02788 0.84595 0.0
H325 H 0.8128 0.1267 0.96127 0.0
H326 H 0.82233 0.12741 0.76279 0.0
H327 H 0.88749 0.17098 0.78268 0.0
H328 H 0.94817 0.29261 0.87184 0.0
H329 H 0.84006 0.19543 0.94919 0.0
C330 C 0.74821 0.05634 0.8515 0.0
C331 C 0.77043 0.07453 0.79913 0.0
C332 C 0.76302 0.0753 0.91012 0.0
C333 C 0.80122 0.11258 0.9158 0.0
C334 C 0.82335 0.13252 0.86299 0.0
C335 C 0.80762 0.11244 0.80474 0.0
C336 C 0.86 0.176 0.86766 0.0
C337 C 0.8894 0.19109 0.82093 0.0
C338 C 0.92006 0.23352 0.82125 0.0
C339 C 0.92412 0.25978 0.87118 0.0
C340 C 0.89568 0.24609 0.91728 0.0
C341 C 0.86332 0.20451 0.9153 0.0
H342 H 0.72343 0.68113 0.84672 0.0
H343 H 0.82262 0.68555 0.9536 0.0
H344 H 0.84137 0.7333 0.76862 0.0
H345 H 0.87914 0.70381 0.76269 0.0
H346 H 0.98348 0.716 0.86129 0.0
H347 H 0.88909 0.71916 0.96219 0.0
C348 C 0.75535 0.68964 0.85105 0.0
C349 C 0.78048 0.70696 0.80071 0.0
C350 C 0.77113 0.68374 0.90708 0.0
C351 C 0.812 0.69316 0.91149 0.0
C352 C 0.83785 0.71001 0.8611 0.0
C353 C 0.82199 0.71891 0.80719 0.0
C354 C 0.87977 0.71481 0.86205 0.0
C355 C 0.89643 0.71113 0.80616 0.0
C356 C 0.93436 0.71326 0.80624 0.0
C357 C 0.95531 0.71715 0.86197 0.0
C358 C 0.93782 0.71639 0.91826 0.0
C359 C 0.90137 0.71793 0.91829 0.0
H360 H 0.93965 0.6538 0.4923 0.0
H361 H 0.84048 0.64932 0.38531 0.0
H362 H 0.82172 0.60175 0.5704 0.0
H363 H 0.78398 0.63125 0.57626 0.0
H364 H 0.67985 0.61943 0.47747 0.0
H365 H 0.77403 0.61575 0.37677 0.0
C366 C 0.90773 0.64531 0.48796 0.0
C367 C 0.8826 0.62805 0.53831 0.0
C368 C 0.89195 0.65114 0.4319 0.0
C369 C 0.85109 0.64175 0.42746 0.0
C370 C 0.82525 0.62496 0.47787 0.0
C371 C 0.84109 0.6161 0.53181 0.0
C372 C 0.78336 0.62022 0.47691 0.0
C373 C 0.76671 0.62398 0.53278 0.0
C374 C 0.72884 0.62198 0.53264 0.0
C375 C 0.70796 0.61817 0.47686 0.0
C376 C 0.72542 0.61878 0.42061 0.0
C377 C 0.76178 0.61708 0.42064 0.0
H378 H 0.32221 0.284 0.4993 0.0
H379 H 0.3078 0.17997 0.38887 0.0
H380 H 0.37751 0.21376 0.56342 0.0
H381 H 0.34829 0.1448 0.56991 0.0
H382 H 0.36546 0.05749 0.46343 0.0
H383 H 0.33707 0.14264 0.37091 0.0
C384 C 0.32887 0.25875 0.49231 0.0
C385 C 0.35042 0.25079 0.53842 0.0
C386 C 0.31472 0.23407 0.43782 0.0
C387 C 0.32135 0.2001 0.42953 0.0
C388 C 0.34367 0.19163 0.47523 0.0
C389 C 0.35949 0.21864 0.5283 0.0
C390 C 0.34888 0.15379 0.47052 0.0
C391 C 0.3529 0.13498 0.52503 0.0
C392 C 0.35987 0.10109 0.52205 0.0
C393 C 0.36311 0.08582 0.46474 0.0
C394 C 0.35049 0.0977 0.41092 0.0
C395 C 0.34568 0.13322 0.41321 0.0
H396 H 0.94197 0.30578 0.49266 0.0
H397 H 0.84756 0.20705 0.37748 0.0
H398 H 0.83824 0.20637 0.576 0.0
H399 H 0.77307 0.16281 0.55626 0.0
H400 H 0.71201 0.0413 0.46672 0.0
H401 H 0.82028 0.13833 0.38954 0.0
C402 C 0.91234 0.27734 0.48717 0.0
C403 C 0.89016 0.25919 0.53958 0.0
C404 C 0.89745 0.25839 0.42856 0.0
C405 C 0.85922 0.22116 0.42295 0.0
C406 C 0.83713 0.20124 0.47579 0.0
C407 C 0.85293 0.22131 0.53403 0.0
C408 C 0.80043 0.1578 0.47113 0.0
C409 C 0.77106 0.14272 0.5179 0.0
C410 C 0.74031 0.10033 0.51748 0.0
C411 C 0.73612 0.07411 0.46742 0.0
C412 C 0.76457 0.08776 0.42134 0.0
C413 C 0.79703 0.12929 0.42341 0.0
H414 H 0.00441 0.3841 0.17311 0.0
H415 H 0.01993 0.48878 0.283 0.0
H416 H 0.95 0.45513 0.10866 0.0
H417 H 0.9798 0.52423 0.10208 0.0
H418 H 0.96392 0.61243 0.20852 0.0
H419 H 0.99083 0.52626 0.30111 0.0
C420 C -0.002 0.40954 0.17999 0.0
C421 C 0.97658 0.41764 0.13385 0.0
C422 C 0.01242 0.43436 0.23433 0.0
C423 C 0.00615 0.46857 0.24248 0.0
C424 C 0.98393 0.47717 0.1968 0.0
C425 C 0.96789 0.45008 0.14382 0.0
C426 C 0.97911 0.51525 0.20147 0.0
C427 C 0.97536 0.53421 0.14694 0.0
C428 C 0.96891 0.56843 0.14991 0.0
C429 C 0.96588 0.58388 0.20721 0.0
C430 C 0.97814 0.57169 0.26107 0.0
C431 C 0.98247 0.53588 0.25879 0.0
H432 H 0.38494 0.36245 0.1792 0.0
H433 H 0.48012 0.46041 0.29442 0.0
H434 H 0.48934 0.46104 0.09589 0.0
H435 H 0.55467 0.504 0.11562 0.0
H436 H 0.61695 0.62538 0.20552 0.0
H437 H 0.50792 0.52923 0.28222 0.0
C438 C 0.41476 0.39065 0.1847 0.0
C439 C 0.43703 0.40861 0.13228 0.0
C440 C 0.42984 0.40947 0.24333 0.0
C441 C 0.46833 0.44639 0.24895 0.0
C442 C 0.49051 0.46614 0.19609 0.0
C443 C 0.47454 0.44619 0.13785 0.0
C444 C 0.52754 0.50936 0.20078 0.0
C445 C 0.55694 0.52415 0.15404 0.0
C446 C 0.58808 0.5664 0.15459 0.0
C447 C 0.59256 0.59269 0.20473 0.0
C448 C 0.56401 0.57934 0.25064 0.0
C449 C 0.53122 0.538 0.24846 0.0
H450 H 0.39014 0.01652 0.18028 0.0
H451 H 0.48863 0.01919 0.28672 0.0
H452 H 0.5078 0.06696 0.10174 0.0
H453 H 0.54471 0.03645 0.09569 0.0
H454 H 0.64826 0.04662 0.19417 0.0
H455 H 0.55513 0.05219 0.29518 0.0
C456 C 0.42194 0.02456 0.1845 0.0
C457 C 0.44707 0.04157 0.13409 0.0
C458 C 0.43754 0.01831 0.24043 0.0
C459 C 0.47821 0.02709 0.2447 0.0
C460 C 0.50404 0.04362 0.19424 0.0
C461 C 0.48842 0.05287 0.1404 0.0
C462 C 0.54563 0.04763 0.19506 0.0
C463 C 0.56198 0.04346 0.13913 0.0
C464 C 0.59953 0.04476 0.13918 0.0
C465 C 0.62038 0.04832 0.19489 0.0
C466 C 0.6032 0.04819 0.25121 0.0
C467 C 0.56716 0.0505 0.25127 0.0
H468 H 0.60484 0.98498 0.825 0.0
H469 H 0.50636 0.98233 0.71855 0.0
H470 H 0.48716 0.93449 0.90349 0.0
H471 H 0.45024 0.96499 0.90957 0.0
H472 H 0.34671 0.95485 0.81109 0.0
H473 H 0.43986 0.94934 0.71006 0.0
C474 C 0.57304 0.97694 0.82077 0.0
C475 C 0.5479 0.95991 0.87116 0.0
C476 C 0.55745 0.98321 0.76485 0.0
C477 C 0.51678 0.97442 0.76056 0.0
C478 C 0.49093 0.95787 0.81101 0.0
C479 C 0.50655 0.9486 0.86484 0.0
C480 C 0.44934 0.95385 0.81019 0.0
C481 C 0.43298 0.958 0.86612 0.0
C482 C 0.39543 0.95669 0.86607 0.0
C483 C 0.37459 0.95316 0.81036 0.0
C484 C 0.39177 0.95331 0.75404 0.0
C485 C 0.42782 0.951 0.75397 0.0
H486 H 0.99039 0.61746 0.83255 0.0
H487 H 0.97481 0.51279 0.72257 0.0
H488 H 0.04471 0.54634 0.89693 0.0
H489 H 0.01489 0.47728 0.90352 0.0
H490 H 0.03076 0.38906 0.7971 0.0
H491 H 0.00379 0.47519 0.70448 0.0
C492 C -0.00323 0.592 0.82566 0.0
C493 C 0.01816 0.58386 0.87178 0.0
C494 C 0.98235 0.56721 0.77129 0.0
C495 C 0.98858 0.53298 0.76311 0.0
C496 C 0.01078 0.52434 0.80879 0.0
C497 C 0.02683 0.55141 0.86178 0.0
C498 C 0.01556 0.48623 0.80412 0.0
C499 C 0.01932 0.46729 0.85865 0.0
C500 C 0.02579 0.43308 0.85569 0.0
C501 C 0.02879 0.41761 0.79839 0.0
C502 C 0.01653 0.42979 0.74453 0.0
C503 C 0.01217 0.46558 0.74681 0.0
H504 H 0.61017 0.63912 0.82635 0.0
H505 H 0.51501 0.54117 0.71111 0.0
H506 H 0.50581 0.54047 0.90965 0.0
H507 H 0.44048 0.49754 0.88994 0.0
H508 H 0.37817 0.37618 0.79999 0.0
H509 H 0.48717 0.47233 0.72324 0.0
C510 C 0.58036 0.61092 0.82085 0.0
C511 C 0.5581 0.59292 0.87327 0.0
C512 C 0.56527 0.59211 0.76221 0.0
C513 C 0.5268 0.55518 0.75659 0.0
C514 C 0.50462 0.5354 0.80944 0.0
C515 C 0.5206 0.55533 0.86769 0.0
C516 C 0.46759 0.49219 0.80474 0.0
C517 C 0.4382 0.47739 0.8515 0.0
C518 C 0.40706 0.43515 0.85094 0.0
C519 C 0.40256 0.40887 0.80078 0.0
C520 C 0.43109 0.42222 0.75484 0.0
C521 C 0.46389 0.46356 0.75702 0.0
H522 H 0.67288 0.71763 0.50615 0.0
H523 H 0.68719 0.82164 0.61653 0.0
H524 H 0.61746 0.78776 0.442 0.0
H525 H 0.64666 0.85673 0.43547 0.0
H526 H 0.62947 0.94404 0.5419 0.0
H527 H 0.65787 0.85892 0.63447 0.0
C528 C 0.66618 0.74286 0.51312 0.0
C529 C 0.64461 0.75078 0.46702 0.0
C530 C 0.68032 0.76756 0.56761 0.0
C531 C 0.67365 0.8015 0.57588 0.0
C532 C 0.65131 0.80993 0.53017 0.0
C533 C 0.6355 0.78291 0.47713 0.0
C534 C 0.64607 0.84776 0.53486 0.0
C535 C 0.64204 0.86655 0.48034 0.0
C536 C 0.63507 0.90043 0.4833 0.0
C537 C 0.63183 0.91571 0.5406 0.0
C538 C 0.64445 0.90384 0.59443 0.0
C539 C 0.64926 0.86832 0.59217 0.0
H540 H 0.0531 0.69567 0.51295 0.0
H541 H 0.14757 0.79445 0.62797 0.0
H542 H 0.15677 0.79504 0.42944 0.0
H543 H 0.22194 0.83871 0.44908 0.0
H544 H 0.28292 0.96024 0.53853 0.0
H545 H 0.17475 0.86315 0.61586 0.0
C546 C 0.08274 0.7241 0.5184 0.0
C547 C 0.10489 0.74223 0.46594 0.0
C548 C 0.09766 0.74309 0.57698 0.0
C549 C 0.13589 0.78032 0.58253 0.0
C550 C 0.15794 0.80022 0.52964 0.0
C551 C 0.14211 0.78012 0.47144 0.0
C552 C 0.19461 0.8437 0.53425 0.0
C553 C 0.22395 0.85879 0.48743 0.0
C554 C 0.25466 0.9012 0.48781 0.0
C555 C 0.25883 0.92743 0.53786 0.0
C556 C 0.23041 0.91375 0.58397 0.0
C557 C 0.19799 0.8722 0.58195 0.0
H558 H 0.05546 0.34811 0.51339 0.0
H559 H 0.15458 0.35241 0.62028 0.0
H560 H 0.17337 0.40003 0.43522 0.0
H561 H 0.21106 0.37048 0.42929 0.0
H562 H 0.31514 0.38212 0.52802 0.0
H563 H 0.22103 0.3859 0.6288 0.0
C564 C 0.08737 0.35657 0.51771 0.0
C565 C 0.1125 0.37381 0.46735 0.0
C566 C 0.10314 0.35069 0.57375 0.0
C567 C 0.14399 0.36002 0.57816 0.0
C568 C 0.16983 0.3768 0.52774 0.0
C569 C 0.15399 0.3857 0.47382 0.0
C570 C 0.21169 0.38147 0.52866 0.0
C571 C 0.22832 0.3777 0.47278 0.0
C572 C 0.26617 0.37965 0.47289 0.0
C573 C 0.28705 0.38341 0.52865 0.0
C574 C 0.2696 0.38281 0.58492 0.0
C575 C 0.23326 0.38456 0.58492 0.0
loop_
_geom_bond_atom_site_label_1
_geom_bond_atom_site_label_2
_geom_bond_distance
_geom_bond_site_symmetry_2
_ccdc_geom_bond_type
Mg0 O1 2.028 1_556 S
Mg0 O7 1.986 1_455 S
Mg0 O9 2.114 . S
Mg0 O10 2.251 1_455 S
Mg0 O13 2.010 1_556 S
O1 Mg0 2.028 1_554 S
O1 C4 1.250 1_455 S
O2 Mg3 2.028 1_554 S
O2 C4 1.248 . S
Mg3 O2 2.028 1_556 S
Mg3 O8 2.032 . S
Mg3 O10 2.079 . S
C4 O1 1.250 1_655 S
C4 O2 1.248 . S
C5 O6 1.264 1_554 S
C5 O13 1.249 . S
O6 C5 1.264 1_556 S
O7 Mg0 1.986 1_655 S
O7 C11 1.246 . S
O8 Mg3 2.032 . S
O8 C11 1.259 . S
O9 Mg0 2.114 . S
O9 C12 1.252 . S
O10 Mg0 2.251 1_655 S
O10 Mg3 2.079 . S
O10 C12 1.273 1_655 S
C11 O7 1.246 . S
C11 O8 1.259 . S
C12 O9 1.252 . S
C12 O10 1.273 1_455 S
O13 Mg0 2.010 1_554 S
O13 C5 1.249 . S
Mg14 O15 2.028 1_554 S
Mg14 O21 1.986 . S
Mg14 O23 2.114 . S
Mg14 O24 2.251 . S
Mg14 O27 2.010 . S
O15 Mg14 2.028 1_556 S
O15 C18 1.250 . S
O16 Mg17 2.028 1_556 S
O16 C18 1.248 . S
Mg17 O16 2.028 1_554 S
Mg17 O22 2.032 . S
Mg17 O24 2.079 . S
C18 O15 1.250 . S
C18 O16 1.248 . S
C19 O20 1.264 1_556 S
C19 O27 1.249 1_556 S
O20 C19 1.264 1_554 S
O21 Mg14 1.986 . S
O21 C25 1.246 . S
O22 Mg17 2.032 . S
O22 C25 1.259 . S
O23 Mg14 2.114 . S
O23 C26 1.252 . S
O24 Mg14 2.251 . S
O24 Mg17 2.079 . S
O24 C26 1.273 . S
C25 O21 1.246 . S
C25 O22 1.259 . S
C26 O23 1.252 . S
C26 O24 1.273 . S
O27 Mg14 2.010 . S
O27 C19 1.249 1_554 S
Mg28 O29 2.026 1_556 S
Mg28 O35 1.986 1_565 S
Mg28 O37 2.114 . S
Mg28 O38 2.251 1_565 S
Mg28 O41 2.010 1_556 S
O29 Mg28 2.026 1_554 S
O29 C32 1.248 1_565 S
O30 Mg31 2.028 1_554 S
O30 C32 1.248 . S
Mg31 O30 2.028 1_556 S
Mg31 O36 2.032 . S
Mg31 O38 2.079 . S
C32 O29 1.248 1_545 S
C32 O30 1.248 . S
C33 O34 1.264 1_554 S
C33 O41 1.249 . S
O34 C33 1.264 1_556 S
O35 Mg28 1.986 1_545 S
O35 C39 1.246 . S
O36 Mg31 2.032 . S
O36 C39 1.259 . S
O37 Mg28 2.114 . S
O37 C40 1.252 . S
O38 Mg28 2.251 1_545 S
O38 Mg31 2.079 . S
O38 C40 1.273 1_545 S
C39 O35 1.246 . S
C39 O36 1.259 . S
C40 O37 1.252 . S
C40 O38 1.273 1_565 S
O41 Mg28 2.010 1_554 S
O41 C33 1.249 . S
Mg42 O43 2.028 1_554 S
Mg42 O49 1.986 1_655 S
Mg42 O51 2.114 . S
Mg42 O52 2.251 1_655 S
Mg42 O55 2.010 . S
O43 Mg42 2.028 1_556 S
O43 C46 1.250 1_655 S
O44 Mg45 2.028 1_556 S
O44 C46 1.248 . S
Mg45 O44 2.028 1_554 S
Mg45 O50 2.032 . S
Mg45 O52 2.079 . S
C46 O43 1.250 1_455 S
C46 O44 1.248 . S
C47 O48 1.264 1_556 S
C47 O55 1.249 1_556 S
O48 C47 1.264 1_554 S
O49 Mg42 1.986 1_455 S
O49 C53 1.246 . S
O50 Mg45 2.032 . S
O50 C53 1.259 . S
O51 Mg42 2.114 . S
O51 C54 1.252 . S
O52 Mg42 2.251 1_455 S
O52 Mg45 2.079 . S
O52 C54 1.273 1_455 S
C53 O49 1.246 . S
C53 O50 1.259 . S
C54 O51 1.252 . S
C54 O52 1.273 1_655 S
O55 Mg42 2.010 . S
O55 C47 1.249 1_554 S
Mg56 O57 2.028 1_556 S
Mg56 O63 1.986 . S
Mg56 O65 2.114 . S
Mg56 O66 2.251 . S
Mg56 O69 2.010 1_556 S
O57 Mg56 2.028 1_554 S
O57 C60 1.250 . S
O58 Mg59 2.028 1_554 S
O58 C60 1.248 . S
Mg59 O58 2.028 1_556 S
Mg59 O64 2.032 . S
Mg59 O66 2.079 . S
C60 O57 1.250 . S
C60 O58 1.248 . S
C61 O62 1.264 1_554 S
C61 O69 1.249 . S
O62 C61 1.264 1_556 S
O63 Mg56 1.986 . S
O63 C67 1.246 . S
O64 Mg59 2.032 . S
O64 C67 1.259 . S
O65 Mg56 2.114 . S
O65 C68 1.252 . S
O66 Mg56 2.251 . S
O66 Mg59 2.079 . S
O66 C68 1.273 . S
C67 O63 1.246 . S
C67 O64 1.259 . S
C68 O65 1.252 . S
C68 O66 1.273 . S
O69 Mg56 2.010 1_554 S
O69 C61 1.249 . S
Mg70 O71 2.028 1_554 S
Mg70 O77 1.986 1_545 S
Mg70 O79 2.114 . S
Mg70 O80 2.251 1_545 S
Mg70 O83 2.010 . S
O71 Mg70 2.028 1_556 S
O71 C74 1.250 1_545 S
O72 Mg73 2.028 1_556 S
O72 C74 1.248 . S
Mg73 O72 2.028 1_554 S
Mg73 O78 2.032 . S
Mg73 O80 2.079 . S
C74 O71 1.250 1_565 S
C74 O72 1.248 . S
C75 O76 1.264 . S
C75 O83 1.249 . S
O76 C75 1.264 . S
O77 Mg70 1.986 1_565 S
O77 C81 1.246 . S
O78 Mg73 2.032 . S
O78 C81 1.259 . S
O79 Mg70 2.114 . S
O79 C82 1.252 . S
O80 Mg70 2.251 1_565 S
O80 Mg73 2.079 . S
O80 C82 1.273 1_565 S
C81 O77 1.246 . S
C81 O78 1.259 . S
C82 O79 1.252 . S
C82 O80 1.273 1_545 S
O83 Mg70 2.010 . S
O83 C75 1.249 . S
Mg84 O85 2.028 . S
Mg84 O91 1.986 . S
Mg84 O93 2.114 . S
Mg84 O94 2.251 . S
Mg84 O97 2.010 . S
O85 Mg84 2.028 . S
O85 C88 1.250 . S
O86 Mg87 2.028 . S
O86 C88 1.248 . S
Mg87 O86 2.028 . S
Mg87 O92 2.032 . S
Mg87 O94 2.079 . S
C88 O85 1.250 . S
C88 O86 1.248 . S
C89 O90 1.264 . S
C89 O97 1.249 . S
O90 C89 1.264 . S
O91 Mg84 1.986 . S
O91 C95 1.246 . S
O92 Mg87 2.032 . S
O92 C95 1.259 . S
O93 Mg84 2.114 . S
O93 C96 1.252 . S
O94 Mg84 2.251 . S
O94 Mg87 2.079 . S
O94 C96 1.273 . S
C95 O91 1.246 . S
C95 O92 1.259 . S
C96 O93 1.252 . S
C96 O94 1.273 . S
O97 Mg84 2.010 . S
O97 C89 1.249 . S
Mg98 O99 2.028 . S
Mg98 O105 1.986 1_565 S
Mg98 O107 2.114 . S
Mg98 O108 2.251 . S
Mg98 O111 2.010 . S
O99 Mg98 2.028 . S
O99 C102 1.250 . S
O100 Mg101 2.028 . S
O100 C102 1.248 . S
Mg101 O100 2.028 . S
Mg101 O106 2.032 1_565 S
Mg101 O108 2.079 . S
C102 O99 1.250 . S
C102 O100 1.248 . S
C103 O104 1.264 1_565 S
C103 O111 1.249 . S
O104 C103 1.264 1_545 S
O105 Mg98 1.986 1_545 S
O105 C109 1.246 . S
O106 Mg101 2.032 1_545 S
O106 C109 1.259 . S
O107 Mg98 2.114 . S
O107 C110 1.252 . S
O108 Mg98 2.251 . S
O108 Mg101 2.079 . S
O108 C110 1.273 . S
C109 O105 1.246 . S
C109 O106 1.259 . S
C110 O107 1.252 . S
C110 O108 1.273 . S
O111 Mg98 2.010 . S
O111 C103 1.249 . S
Mg112 O113 2.028 . S
Mg112 O119 1.986 . S
Mg112 O121 2.114 . S
Mg112 O122 2.251 . S
Mg112 O125 2.010 1_455 S
O113 Mg112 2.028 . S
O113 C116 1.250 . S
O114 Mg115 2.028 . S
O114 C116 1.248 . S
Mg115 O114 2.028 . S
Mg115 O120 2.032 . S
Mg115 O122 2.079 . S
C116 O113 1.250 . S
C116 O114 1.248 . S
C117 O118 1.264 . S
C117 O125 1.249 . S
O118 C117 1.264 . S
O119 Mg112 1.986 . S
O119 C123 1.246 . S
O120 Mg115 2.032 . S
O120 C123 1.259 . S
O121 Mg112 2.114 . S
O121 C124 1.252 . S
O122 Mg112 2.251 . S
O122 Mg115 2.079 . S
O122 C124 1.273 . S
C123 O119 1.246 . S
C123 O120 1.259 . S
C124 O121 1.252 . S
C124 O122 1.273 . S
O125 Mg112 2.010 1_655 S
O125 C117 1.249 . S
Mg126 O127 2.028 . S
Mg126 O133 1.986 1_565 S
Mg126 O135 2.114 . S
Mg126 O136 2.251 . S
Mg126 O139 2.010 . S
O127 Mg126 2.028 . S
O127 C130 1.250 . S
O128 Mg129 2.028 . S
O128 C130 1.248 . S
Mg129 O128 2.028 . S
Mg129 O134 2.032 1_565 S
Mg129 O136 2.079 . S
C130 O127 1.250 . S
C130 O128 1.248 . S
C131 O132 1.264 . S
C131 O139 1.249 . S
O132 C131 1.264 . S
O133 Mg126 1.986 1_545 S
O133 C137 1.246 . S
O134 Mg129 2.032 1_545 S
O134 C137 1.259 . S
O135 Mg126 2.114 . S
O135 C138 1.252 . S
O136 Mg126 2.251 . S
O136 Mg129 2.079 . S
O136 C138 1.273 . S
C137 O133 1.246 . S
C137 O134 1.259 . S
C138 O135 1.252 . S
C138 O136 1.273 . S
O139 Mg126 2.010 . S
O139 C131 1.249 . S
Mg140 O141 2.028 . S
Mg140 O147 1.986 . S
Mg140 O149 2.114 . S
Mg140 O150 2.251 . S
Mg140 O153 2.010 1_455 S
O141 Mg140 2.028 . S
O141 C144 1.250 . S
O142 Mg143 2.028 . S
O142 C144 1.248 . S
Mg143 O142 2.028 . S
Mg143 O148 2.032 . S
Mg143 O150 2.079 . S
C144 O141 1.250 . S
C144 O142 1.248 . S
C145 O146 1.264 . S
C145 O153 1.249 . S
O146 C145 1.264 . S
O147 Mg140 1.986 . S
O147 C151 1.246 . S
O148 Mg143 2.032 . S
O148 C151 1.259 . S
O149 Mg140 2.114 . S
O149 C152 1.252 . S
O150 Mg140 2.251 . S
O150 Mg143 2.079 . S
O150 C152 1.273 . S
C151 O147 1.246 . S
C151 O148 1.259 . S
C152 O149 1.252 . S
C152 O150 1.273 . S
O153 Mg140 2.010 1_655 S
O153 C145 1.249 . S
Mg154 O155 2.028 . S
Mg154 O161 1.986 . S
Mg154 O163 2.114 . S
Mg154 O164 2.251 . S
Mg154 O167 2.010 . S
O155 Mg154 2.028 . S
O155 C158 1.250 . S
O156 Mg157 2.028 . S
O156 C158 1.248 . S
Mg157 O156 2.028 . S
Mg157 O162 2.032 . S
Mg157 O164 2.079 . S
C158 O155 1.250 . S
C158 O156 1.248 . S
C159 O160 1.264 . S
C159 O167 1.249 . S
O160 C159 1.264 . S
O161 Mg154 1.986 . S
O161 C165 1.246 . S
O162 Mg157 2.032 . S
O162 C165 1.259 . S
O163 Mg154 2.114 . S
O163 C166 1.252 . S
O164 Mg154 2.251 . S
O164 Mg157 2.079 . S
O164 C166 1.273 . S
C165 O161 1.246 . S
C165 O162 1.259 . S
C166 O163 1.252 . S
C166 O164 1.273 . S
O167 Mg154 2.010 . S
O167 C159 1.249 . S
Mg168 O169 2.028 . S
Mg168 O175 1.986 1_545 S
Mg168 O177 2.114 . S
Mg168 O178 2.251 . S
Mg168 O181 2.010 . S
O169 Mg168 2.028 . S
O169 C172 1.250 . S
O170 Mg171 2.028 . S
O170 C172 1.248 . S
Mg171 O170 2.028 . S
Mg171 O176 2.032 1_545 S
Mg171 O178 2.079 . S
C172 O169 1.250 . S
C172 O170 1.248 . S
C173 O174 1.264 . S
C173 O181 1.249 . S
O174 C173 1.264 . S
O175 Mg168 1.986 1_565 S
O175 C179 1.246 . S
O176 Mg171 2.032 1_565 S
O176 C179 1.259 . S
O177 Mg168 2.114 . S
O177 C180 1.252 . S
O178 Mg168 2.251 . S
O178 Mg171 2.079 . S
O178 C180 1.273 . S
C179 O175 1.246 . S
C179 O176 1.259 . S
C180 O177 1.252 . S
C180 O178 1.273 . S
O181 Mg168 2.010 . S
O181 C173 1.249 . S
Mg182 O183 2.028 . S
Mg182 O189 1.986 . S
Mg182 O191 2.114 . S
Mg182 O192 2.251 . S
Mg182 O195 2.010 1_655 S
O183 Mg182 2.028 . S
O183 C186 1.250 . S
O184 Mg185 2.028 . S
O184 C186 1.248 . S
Mg185 O184 2.028 . S
Mg185 O190 2.032 . S
Mg185 O192 2.079 . S
C186 O183 1.250 . S
C186 O184 1.248 . S
C187 O188 1.264 . S
C187 O195 1.249 . S
O188 C187 1.264 . S
O189 Mg182 1.986 . S
O189 C193 1.246 . S
O190 Mg185 2.032 . S
O190 C193 1.259 . S
O191 Mg182 2.114 . S
O191 C194 1.252 . S
O192 Mg182 2.251 . S
O192 Mg185 2.079 . S
O192 C194 1.273 . S
C193 O189 1.246 . S
C193 O190 1.259 . S
C194 O191 1.252 . S
C194 O192 1.273 . S
O195 Mg182 2.010 1_455 S
O195 C187 1.249 . S
Mg196 O197 2.028 . S
Mg196 O203 1.986 . S
Mg196 O205 2.114 . S
Mg196 O206 2.251 . S
Mg196 O209 2.010 . S
O197 Mg196 2.028 . S
O197 C200 1.250 . S
O198 Mg199 2.028 . S
O198 C200 1.248 . S
Mg199 O198 2.028 . S
Mg199 O204 2.032 . S
Mg199 O206 2.079 . S
C200 O197 1.250 . S
C200 O198 1.248 . S
C201 O202 1.264 . S
C201 O209 1.249 . S
O202 C201 1.264 . S
O203 Mg196 1.986 . S
O203 C207 1.246 . S
O204 Mg199 2.032 . S
O204 C207 1.259 . S
O205 Mg196 2.114 . S
O205 C208 1.252 . S
O206 Mg196 2.251 . S
O206 Mg199 2.079 . S
O206 C208 1.273 . S
C207 O203 1.246 . S
C207 O204 1.259 . S
C208 O205 1.252 . S
C208 O206 1.273 . S
O209 Mg196 2.010 . S
O209 C201 1.249 . S
Mg210 O211 2.028 . S
Mg210 O217 1.986 . S
Mg210 O219 2.114 . S
Mg210 O220 2.251 . S
Mg210 O223 2.010 . S
O211 Mg210 2.028 . S
O211 C214 1.250 . S
O212 Mg213 2.028 . S
O212 C214 1.248 . S
Mg213 O212 2.028 . S
Mg213 O218 2.032 . S
Mg213 O220 2.079 . S
C214 O211 1.250 . S
C214 O212 1.248 . S
C215 O216 1.264 . S
C215 O223 1.249 . S
O216 C215 1.264 . S
O217 Mg210 1.986 . S
O217 C221 1.246 . S
O218 Mg213 2.032 . S
O218 C221 1.259 . S
O219 Mg210 2.114 . S
O219 C222 1.252 . S
O220 Mg210 2.251 . S
O220 Mg213 2.079 . S
O220 C222 1.273 . S
C221 O217 1.246 . S
C221 O218 1.259 . S
C222 O219 1.252 . S
C222 O220 1.273 . S
O223 Mg210 2.010 . S
O223 C215 1.249 . S
Mg224 O225 2.028 . S
Mg224 O231 1.986 1_545 S
Mg224 O233 2.114 . S
Mg224 O234 2.251 . S
Mg224 O237 2.010 . S
O225 Mg224 2.028 . S
O225 C228 1.250 . S
O226 Mg227 2.028 . S
O226 C228 1.248 . S
Mg227 O226 2.028 . S
Mg227 O232 2.032 1_545 S
Mg227 O234 2.079 . S
C228 O225 1.250 . S
C228 O226 1.248 . S
C229 O230 1.265 1_545 S
C229 O237 1.249 . S
O230 C229 1.265 1_565 S
O231 Mg224 1.986 1_565 S
O231 C235 1.246 . S
O232 Mg227 2.032 1_565 S
O232 C235 1.259 . S
O233 Mg224 2.114 . S
O233 C236 1.252 . S
O234 Mg224 2.251 . S
O234 Mg227 2.079 . S
O234 C236 1.273 . S
C235 O231 1.246 . S
C235 O232 1.259 . S
C236 O233 1.252 . S
C236 O234 1.273 . S
O237 Mg224 2.010 . S
O237 C229 1.249 . S
Mg238 O239 2.028 . S
Mg238 O245 1.986 . S
Mg238 O247 2.114 . S
Mg238 O248 2.251 . S
Mg238 O251 2.010 1_655 S
O239 Mg238 2.028 . S
O239 C242 1.250 . S
O240 Mg241 2.028 . S
O240 C242 1.248 . S
Mg241 O240 2.028 . S
Mg241 O246 2.032 . S
Mg241 O248 2.079 . S
C242 O239 1.250 . S
C242 O240 1.248 . S
C243 O244 1.264 . S
C243 O251 1.249 . S
O244 C243 1.264 . S
O245 Mg238 1.986 . S
O245 C249 1.246 . S
O246 Mg241 2.032 . S
O246 C249 1.259 . S
O247 Mg238 2.114 . S
O247 C250 1.252 . S
O248 Mg238 2.251 . S
O248 Mg241 2.079 . S
O248 C250 1.273 . S
C249 O245 1.246 . S
C249 O246 1.259 . S
C250 O247 1.252 . S
C250 O248 1.273 . S
O251 Mg238 2.010 1_455 S
O251 C243 1.249 . S
H252 C258 0.930 . S
H253 C261 0.931 . S
H254 C263 0.931 . S
H255 C265 0.930 . S
H256 C267 0.930 . S
H257 C269 0.931 . S
C258 H252 0.930 . S
C258 C259 1.380 . S
C258 C260 1.394 . S
C259 C258 1.380 . S
C259 C263 1.382 . S
C260 C258 1.394 . S
C260 C261 1.400 . S
C261 H253 0.931 . S
C261 C260 1.400 . S
C261 C262 1.375 . S
C262 C261 1.375 . S
C262 C263 1.415 . S
C262 C264 1.501 . S
C263 H254 0.931 . S
C263 C259 1.382 . S
C263 C262 1.415 . S
C264 C262 1.501 . S
C264 C265 1.384 . S
C264 C269 1.408 . S
C265 H255 0.930 . S
C265 C264 1.384 . S
C265 C266 1.389 . S
C266 C265 1.389 . S
C266 C267 1.405 . S
C267 H256 0.930 . S
C267 C266 1.405 . S
C267 C268 1.364 . S
C268 C267 1.364 . S
C268 C269 1.400 . S
C269 H257 0.931 . S
C269 C264 1.408 . S
C269 C268 1.400 . S
H270 C276 0.930 . S
H271 C279 0.931 . S
H272 C281 0.931 . S
H273 C283 0.930 . S
H274 C285 0.930 . S
H275 C287 0.931 . S
C276 H270 0.930 . S
C276 C277 1.380 . S
C276 C278 1.394 . S
C277 C276 1.380 . S
C277 C281 1.382 . S
C278 C276 1.394 . S
C278 C279 1.400 . S
C279 H271 0.931 . S
C279 C278 1.400 . S
C279 C280 1.375 . S
C280 C279 1.375 . S
C280 C281 1.415 . S
C280 C282 1.501 . S
C281 H272 0.931 . S
C281 C277 1.382 . S
C281 C280 1.415 . S
C282 C280 1.501 . S
C282 C283 1.384 . S
C282 C287 1.408 . S
C283 H273 0.930 . S
C283 C282 1.384 . S
C283 C284 1.389 . S
C284 C283 1.389 . S
C284 C285 1.405 . S
C285 H274 0.930 . S
C285 C284 1.405 . S
C285 C286 1.364 . S
C286 C285 1.364 . S
C286 C287 1.400 . S
C287 H275 0.931 . S
C287 C282 1.408 . S
C287 C286 1.400 . S
H288 C294 0.930 . S
H289 C297 0.931 . S
H290 C299 0.931 . S
H291 C301 0.930 . S
H292 C303 0.930 . S
H293 C305 0.931 . S
C294 H288 0.930 . S
C294 C295 1.380 . S
C294 C296 1.394 . S
C295 C294 1.380 . S
C295 C299 1.382 . S
C296 C294 1.394 . S
C296 C297 1.400 . S
C297 H289 0.931 . S
C297 C296 1.400 . S
C297 C298 1.375 . S
C298 C297 1.375 . S
C298 C299 1.415 . S
C298 C300 1.501 . S
C299 H290 0.931 . S
C299 C295 1.382 . S
C299 C298 1.415 . S
C300 C298 1.501 . S
C300 C301 1.384 . S
C300 C305 1.408 . S
C301 H291 0.930 . S
C301 C300 1.384 . S
C301 C302 1.389 . S
C302 C301 1.389 . S
C302 C303 1.405 . S
C303 H292 0.930 . S
C303 C302 1.405 . S
C303 C304 1.364 . S
C304 C303 1.364 . S
C304 C305 1.400 . S
C305 H293 0.931 . S
C305 C300 1.408 . S
C305 C304 1.400 . S
H306 C312 0.930 . S
H307 C315 0.931 . S
H308 C317 0.931 . S
H309 C319 0.930 . S
H310 C321 0.930 . S
H311 C323 0.931 . S
C312 H306 0.930 . S
C312 C313 1.380 . S
C312 C314 1.394 . S
C313 C312 1.380 . S
C313 C317 1.382 . S
C314 C312 1.394 . S
C314 C315 1.400 . S
C315 H307 0.931 . S
C315 C314 1.400 . S
C315 C316 1.375 . S
C316 C315 1.375 . S
C316 C317 1.415 . S
C316 C318 1.501 . S
C317 H308 0.931 . S
C317 C313 1.382 . S
C317 C316 1.415 . S
C318 C316 1.501 . S
C318 C319 1.384 . S
C318 C323 1.408 . S
C319 H309 0.930 . S
C319 C318 1.384 . S
C319 C320 1.389 . S
C320 C319 1.389 . S
C320 C321 1.405 . S
C321 H310 0.930 . S
C321 C320 1.405 . S
C321 C322 1.364 . S
C322 C321 1.364 . S
C322 C323 1.400 . S
C323 H311 0.931 . S
C323 C318 1.408 . S
C323 C322 1.400 . S
H324 C330 0.930 . S
H325 C333 0.931 . S
H326 C335 0.931 . S
H327 C337 0.930 . S
H328 C339 0.930 . S
H329 C341 0.931 . S
C330 H324 0.930 . S
C330 C331 1.380 . S
C330 C332 1.394 . S
C331 C330 1.380 . S
C331 C335 1.382 . S
C332 C330 1.394 . S
C332 C333 1.400 . S
C333 H325 0.931 . S
C333 C332 1.400 . S
C333 C334 1.375 . S
C334 C333 1.375 . S
C334 C335 1.415 . S
C334 C336 1.501 . S
C335 H326 0.931 . S
C335 C331 1.382 . S
C335 C334 1.415 . S
C336 C334 1.501 . S
C336 C337 1.384 . S
C336 C341 1.408 . S
C337 H327 0.930 . S
C337 C336 1.384 . S
C337 C338 1.389 . S
C338 C337 1.389 . S
C338 C339 1.405 . S
C339 H328 0.930 . S
C339 C338 1.405 . S
C339 C340 1.364 . S
C340 C339 1.364 . S
C340 C341 1.400 . S
C341 H329 0.931 . S
C341 C336 1.408 . S
C341 C340 1.400 . S
H342 C348 0.930 . S
H343 C351 0.931 . S
H344 C353 0.931 . S
H345 C355 0.930 . S
H346 C357 0.930 . S
H347 C359 0.931 . S
C348 H342 0.930 . S
C348 C349 1.380 . S
C348 C350 1.394 . S
C349 C348 1.380 . S
C349 C353 1.382 . S
C350 C348 1.394 . S
C350 C351 1.400 . S
C351 H343 0.931 . S
C351 C350 1.400 . S
C351 C352 1.375 . S
C352 C351 1.375 . S
C352 C353 1.415 . S
C352 C354 1.501 . S
C353 H344 0.931 . S
C353 C349 1.382 . S
C353 C352 1.415 . S
C354 C352 1.501 . S
C354 C355 1.384 . S
C354 C359 1.408 . S
C355 H345 0.930 . S
C355 C354 1.384 . S
C355 C356 1.389 . S
C356 C355 1.389 . S
C356 C357 1.405 . S
C357 H346 0.930 . S
C357 C356 1.405 . S
C357 C358 1.364 . S
C358 C357 1.364 . S
C358 C359 1.400 . S
C359 H347 0.931 . S
C359 C354 1.408 . S
C359 C358 1.400 . S
H360 C366 0.930 . S
H361 C369 0.931 . S
H362 C371 0.931 . S
H363 C373 0.930 . S
H364 C375 0.930 . S
H365 C377 0.931 . S
C366 H360 0.930 . S
C366 C367 1.380 . S
C366 C368 1.394 . S
C367 C366 1.380 . S
C367 C371 1.382 . S
C368 C366 1.394 . S
C368 C369 1.400 . S
C369 H361 0.931 . S
C369 C368 1.400 . S
C369 C370 1.375 . S
C370 C369 1.375 . S
C370 C371 1.415 . S
C370 C372 1.501 . S
C371 H362 0.931 . S
C371 C367 1.382 . S
C371 C370 1.415 . S
C372 C370 1.501 . S
C372 C373 1.384 . S
C372 C377 1.408 . S
C373 H363 0.930 . S
C373 C372 1.384 . S
C373 C374 1.389 . S
C374 C373 1.389 . S
C374 C375 1.405 . S
C375 H364 0.930 . S
C375 C374 1.405 . S
C375 C376 1.364 . S
C376 C375 1.364 . S
C376 C377 1.400 . S
C377 H365 0.931 . S
C377 C372 1.408 . S
C377 C376 1.400 . S
H378 C384 0.930 . S
H379 C387 0.931 . S
H380 C389 0.931 . S
H381 C391 0.930 . S
H382 C393 0.930 . S
H383 C395 0.931 . S
C384 H378 0.930 . S
C384 C385 1.380 . S
C384 C386 1.394 . S
C385 C384 1.380 . S
C385 C389 1.382 . S
C386 C384 1.394 . S
C386 C387 1.400 . S
C387 H379 0.931 . S
C387 C386 1.400 . S
C387 C388 1.375 . S
C388 C387 1.375 . S
C388 C389 1.415 . S
C388 C390 1.501 . S
C389 H380 0.931 . S
C389 C385 1.382 . S
C389 C388 1.415 . S
C390 C388 1.501 . S
C390 C391 1.384 . S
C390 C395 1.408 . S
C391 H381 0.930 . S
C391 C390 1.384 . S
C391 C392 1.389 . S
C392 C391 1.389 . S
C392 C393 1.405 . S
C393 H382 0.930 . S
C393 C392 1.405 . S
C393 C394 1.364 . S
C394 C393 1.364 . S
C394 C395 1.400 . S
C395 H383 0.931 . S
C395 C390 1.408 . S
C395 C394 1.400 . S
H396 C402 0.930 . S
H397 C405 0.931 . S
H398 C407 0.931 . S
H399 C409 0.930 . S
H400 C411 0.930 . S
H401 C413 0.931 . S
C402 H396 0.930 . S
C402 C403 1.380 . S
C402 C404 1.394 . S
C403 C402 1.380 . S
C403 C407 1.382 . S
C404 C402 1.394 . S
C404 C405 1.400 . S
C405 H397 0.931 . S
C405 C404 1.400 . S
C405 C406 1.375 . S
C406 C405 1.375 . S
C406 C407 1.415 . S
C406 C408 1.501 . S
C407 H398 0.931 . S
C407 C403 1.382 . S
C407 C406 1.415 . S
C408 C406 1.501 . S
C408 C409 1.384 . S
C408 C413 1.408 . S
C409 H399 0.930 . S
C409 C408 1.384 . S
C409 C410 1.389 . S
C410 C409 1.389 . S
C410 C411 1.405 . S
C411 H400 0.930 . S
C411 C410 1.405 . S
C411 C412 1.364 . S
C412 C411 1.364 . S
C412 C413 1.400 . S
C413 H401 0.931 . S
C413 C408 1.408 . S
C413 C412 1.400 . S
H414 C420 0.917 . S
H415 C423 0.931 . S
H416 C425 0.931 . S
H417 C427 0.930 . S
H418 C429 0.930 . S
H419 C431 0.931 . S
C420 H414 0.917 . S
C420 C421 1.391 . S
C420 C422 1.397 1_655 S
C421 C420 1.391 . S
C421 C425 1.382 . S
C422 C420 1.397 1_455 S
C422 C423 1.400 . S
C423 H415 0.931 . S
C423 C422 1.400 . S
C423 C424 1.375 . S
C424 C423 1.375 . S
C424 C425 1.415 1_455 S
C424 C426 1.501 . S
C425 H416 0.931 . S
C425 C421 1.382 . S
C425 C424 1.415 1_655 S
C426 C424 1.501 . S
C426 C427 1.384 . S
C426 C431 1.408 . S
C427 H417 0.930 . S
C427 C426 1.384 . S
C427 C428 1.389 . S
C428 C427 1.389 . S
C428 C429 1.405 . S
C429 H418 0.930 . S
C429 C428 1.405 . S
C429 C430 1.364 . S
C430 C429 1.364 . S
C430 C431 1.400 . S
C431 H419 0.931 . S
C431 C426 1.408 . S
C431 C430 1.400 . S
H432 C438 0.930 . S
H433 C441 0.931 . S
H434 C443 0.931 . S
H435 C445 0.930 . S
H436 C447 0.930 . S
H437 C449 0.931 . S
C438 H432 0.930 . S
C438 C439 1.380 . S
C438 C440 1.394 . S
C439 C438 1.380 . S
C439 C443 1.382 . S
C440 C438 1.394 . S
C440 C441 1.400 . S
C441 H433 0.931 . S
C441 C440 1.400 . S
C441 C442 1.375 . S
C442 C441 1.375 . S
C442 C443 1.415 . S
C442 C444 1.501 . S
C443 H434 0.931 . S
C443 C439 1.382 . S
C443 C442 1.415 . S
C444 C442 1.501 . S
C444 C445 1.384 . S
C444 C449 1.408 . S
C445 H435 0.930 . S
C445 C444 1.384 . S
C445 C446 1.389 . S
C446 C445 1.389 . S
C446 C447 1.405 . S
C447 H436 0.930 . S
C447 C446 1.405 . S
C447 C448 1.364 . S
C448 C447 1.364 . S
C448 C449 1.400 . S
C449 H437 0.931 . S
C449 C444 1.408 . S
C449 C448 1.400 . S
H450 C456 0.930 . S
H451 C459 0.931 . S
H452 C461 0.931 . S
H453 C463 0.930 . S
H454 C465 0.930 . S
H455 C467 0.931 . S
C456 H450 0.930 . S
C456 C457 1.380 . S
C456 C458 1.394 1_545 S
C457 C456 1.380 . S
C457 C461 1.382 . S
C458 C456 1.394 1_565 S
C458 C459 1.400 . S
C459 H451 0.931 . S
C459 C458 1.400 . S
C459 C460 1.375 . S
C460 C459 1.375 . S
C460 C461 1.415 1_565 S
C460 C462 1.501 . S
C461 H452 0.931 . S
C461 C457 1.382 . S
C461 C460 1.415 1_545 S
C462 C460 1.501 . S
C462 C463 1.384 . S
C462 C467 1.408 . S
C463 H453 0.930 . S
C463 C462 1.384 . S
C463 C464 1.389 . S
C464 C463 1.389 . S
C464 C465 1.405 . S
C465 H454 0.930 . S
C465 C464 1.405 . S
C465 C466 1.364 . S
C466 C465 1.364 . S
C466 C467 1.400 . S
C467 H455 0.931 . S
C467 C462 1.408 . S
C467 C466 1.400 . S
H468 C474 0.930 . S
H469 C477 0.931 . S
H470 C479 0.939 . S
H471 C481 0.930 . S
H472 C483 0.930 . S
H473 C485 0.931 . S
C474 H468 0.930 . S
C474 C475 1.379 . S
C474 C476 1.394 1_545 S
C475 C474 1.379 . S
C475 C479 1.385 1_545 S
C476 C474 1.394 1_565 S
C476 C477 1.400 . S
C477 H469 0.931 . S
C477 C476 1.400 . S
C477 C478 1.375 . S
C478 C477 1.375 . S
C478 C479 1.415 . S
C478 C480 1.501 . S
C479 H470 0.939 . S
C479 C475 1.385 1_565 S
C479 C478 1.415 . S
C480 C478 1.501 . S
C480 C481 1.384 . S
C480 C485 1.408 1_565 S
C481 H471 0.930 . S
C481 C480 1.384 . S
C481 C482 1.389 . S
C482 C481 1.389 . S
C482 C483 1.405 . S
C483 H472 0.930 . S
C483 C482 1.405 . S
C483 C484 1.364 1_565 S
C484 C483 1.364 1_545 S
C484 C485 1.400 . S
C485 H473 0.931 . S
C485 C480 1.408 1_545 S
C485 C484 1.400 . S
H486 C492 0.930 . S
H487 C495 0.931 . S
H488 C497 0.931 . S
H489 C499 0.930 . S
H490 C501 0.930 . S
H491 C503 0.931 . S
C492 H486 0.930 . S
C492 C493 1.380 1_655 S
C492 C494 1.389 1_655 S
C493 C492 1.380 1_455 S
C493 C497 1.383 . S
C494 C492 1.389 1_455 S
C494 C495 1.410 . S
C495 H487 0.931 . S
C495 C494 1.410 . S
C495 C496 1.375 . S
C496 C495 1.375 . S
C496 C497 1.415 . S
C496 C498 1.501 . S
C497 H488 0.931 . S
C497 C493 1.383 . S
C497 C496 1.415 . S
C498 C496 1.501 . S
C498 C499 1.384 . S
C498 C503 1.408 1_455 S
C499 H489 0.930 . S
C499 C498 1.384 . S
C499 C500 1.389 . S
C500 C499 1.389 . S
C500 C501 1.405 . S
C501 H490 0.930 . S
C501 C500 1.405 . S
C501 C502 1.364 1_455 S
C502 C501 1.364 1_655 S
C502 C503 1.400 . S
C503 H491 0.931 . S
C503 C498 1.408 1_655 S
C503 C502 1.400 . S
H504 C510 0.930 . S
H505 C513 0.931 . S
H506 C515 0.931 . S
H507 C517 0.930 . S
H508 C519 0.930 . S
H509 C521 0.931 . S
C510 H504 0.930 . S
C510 C511 1.380 . S
C510 C512 1.394 . S
C511 C510 1.380 . S
C511 C515 1.382 . S
C512 C510 1.394 . S
C512 C513 1.400 . S
C513 H505 0.931 . S
C513 C512 1.400 . S
C513 C514 1.375 . S
C514 C513 1.375 . S
C514 C515 1.415 . S
C514 C516 1.501 . S
C515 H506 0.931 . S
C515 C511 1.382 . S
C515 C514 1.415 . S
C516 C514 1.501 . S
C516 C517 1.384 . S
C516 C521 1.408 . S
C517 H507 0.930 . S
C517 C516 1.384 . S
C517 C518 1.389 . S
C518 C517 1.389 . S
C518 C519 1.405 . S
C519 H508 0.930 . S
C519 C518 1.405 . S
C519 C520 1.364 . S
C520 C519 1.364 . S
C520 C521 1.400 . S
C521 H509 0.931 . S
C521 C516 1.408 . S
C521 C520 1.400 . S
H522 C528 0.930 . S
H523 C531 0.931 . S
H524 C533 0.931 . S
H525 C535 0.930 . S
H526 C537 0.930 . S
H527 C539 0.931 . S
C528 H522 0.930 . S
C528 C529 1.380 . S
C528 C530 1.394 . S
C529 C528 1.380 . S
C529 C533 1.382 . S
C530 C528 1.394 . S
C530 C531 1.400 . S
C531 H523 0.931 . S
C531 C530 1.400 . S
C531 C532 1.375 . S
C532 C531 1.375 . S
C532 C533 1.415 . S
C532 C534 1.501 . S
C533 H524 0.931 . S
C533 C529 1.382 . S
C533 C532 1.415 . S
C534 C532 1.501 . S
C534 C535 1.384 . S
C534 C539 1.408 . S
C535 H525 0.930 . S
C535 C534 1.384 . S
C535 C536 1.389 . S
C536 C535 1.389 . S
C536 C537 1.405 . S
C537 H526 0.930 . S
C537 C536 1.405 . S
C537 C538 1.364 . S
C538 C537 1.364 . S
C538 C539 1.400 . S
C539 H527 0.931 . S
C539 C534 1.408 . S
C539 C538 1.400 . S
H540 C546 0.930 . S
H541 C549 0.931 . S
H542 C551 0.931 . S
H543 C553 0.930 . S
H544 C555 0.930 . S
H545 C557 0.931 . S
C546 H540 0.930 . S
C546 C547 1.380 . S
C546 C548 1.394 . S
C547 C546 1.380 . S
C547 C551 1.382 . S
C548 C546 1.394 . S
C548 C549 1.400 . S
C549 H541 0.931 . S
C549 C548 1.400 . S
C549 C550 1.375 . S
C550 C549 1.375 . S
C550 C551 1.415 . S
C550 C552 1.501 . S
C551 H542 0.931 . S
C551 C547 1.382 . S
C551 C550 1.415 . S
C552 C550 1.501 . S
C552 C553 1.384 . S
C552 C557 1.408 . S
C553 H543 0.930 . S
C553 C552 1.384 . S
C553 C554 1.389 . S
C554 C553 1.389 . S
C554 C555 1.405 . S
C555 H544 0.930 . S
C555 C554 1.405 . S
C555 C556 1.364 . S
C556 C555 1.364 . S
C556 C557 1.400 . S
C557 H545 0.931 . S
C557 C552 1.408 . S
C557 C556 1.400 . S
H558 C564 0.930 . S
H559 C567 0.931 . S
H560 C569 0.931 . S
H561 C571 0.930 . S
H562 C573 0.930 . S
H563 C575 0.931 . S
C564 H558 0.930 . S
C564 C565 1.380 . S
C564 C566 1.394 . S
C565 C564 1.380 . S
C565 C569 1.382 . S
C566 C564 1.394 . S
C566 C567 1.400 . S
C567 H559 0.931 . S
C567 C566 1.400 . S
C567 C568 1.375 . S
C568 C567 1.375 . S
C568 C569 1.415 . S
C568 C570 1.501 . S
C569 H560 0.931 . S
C569 C565 1.382 . S
C569 C568 1.415 . S
C570 C568 1.501 . S
C570 C571 1.384 . S
C570 C575 1.408 . S
C571 H561 0.930 . S
C571 C570 1.384 . S
C571 C572 1.389 . S
C572 C571 1.389 . S
C572 C573 1.405 . S
C573 H562 0.930 . S
C573 C572 1.405 . S
C573 C574 1.364 . S
C574 C573 1.364 . S
C574 C575 1.400 . S
C575 H563 0.931 . S
C575 C570 1.408 . S
C575 C574 1.400 . S
C4 C421 1.694 . S
C26 C446 1.612 . S
C457 C32 1.653 . S
C40 C482 1.534 . S
C12 C500 1.596 . S
C18 C511 1.646 . S
C46 C493 1.756 . S
C518 C68 1.591 . S
C475 C74 1.705 1_545 S
C82 C464 1.635 1_545 S
C428 C54 1.641 1_455 S
C60 C439 1.668 . S
C88 C529 1.725 . S
C110 C554 1.648 . S
C565 C116 1.655 . S
C124 C266 1.551 . S
C96 C284 1.617 . S
C102 C295 1.672 . S
C130 C277 1.712 . S
C152 C302 1.615 . S
C259 C158 1.665 . S
C572 C166 1.564 . S
C536 C138 1.598 . S
C547 C144 1.691 . S
C172 C313 1.709 . S
C194 C338 1.649 . S
C200 C349 1.661 . S
C208 C374 1.567 . S
C392 C180 1.616 . S
C403 C186 1.677 . S
C385 C214 1.729 . S
C410 C236 1.602 . S
C242 C367 1.648 . S
C356 C250 1.548 . S
C222 C320 1.611 . S
C331 C228 1.690 . S
C268 C5 1.423 . S
C25 C286 1.502 . S
C296 C33 1.527 . S
C314 C39 1.518 . S
C340 C11 1.527 . S
C350 C19 1.394 . S
C47 C358 1.455 . S
C67 C322 1.593 . S
C75 C332 1.654 1_554 S
C81 C278 1.693 . S
C304 C53 1.626 . S
C61 C260 1.480 . S
C376 C89 1.340 . S
C109 C394 1.485 . S
C117 C404 1.418 . S
C422 C123 1.321 . S
C95 C448 1.449 . S
C103 C458 1.385 . S
C131 C466 1.295 . S
C151 C430 1.439 . S
C440 C159 1.515 . S
C165 C386 1.620 . S
C137 C412 1.555 . S
C368 C145 1.471 . S
C484 C173 1.293 . S
C193 C502 1.334 . S
C201 C512 1.410 . S
C530 C207 1.426 . S
C556 C179 1.482 . S
C187 C566 1.391 . S
C215 C574 1.393 . S
C235 C538 1.573 . S
C548 C243 1.516 . S
C494 C249 1.422 1_455 S
C520 C221 1.533 . S
C229 C476 1.383 1_545 S
