# Generated by pormake.
# Topology ctn, (3,4)-cn, num edge types: 1
# Building blocks:
#     Node 0, Type 0, BuildingBlock: MIDCAF_clean_linker_0, # of connection points: 3
#     Node 1, Type 0, BuildingBlock: MIDCAF_clean_linker_0, # of connection points: 3
#     Node 2, Type 0, BuildingBlock: MIDCAF_clean_linker_0, # of connection points: 3
#     Node 3, Type 0, BuildingBlock: MIDCAF_clean_linker_0, # of connection points: 3
#     Node 4, Type 0, BuildingBlock: MIDCAF_clean_linker_0, # of connection points: 3
#     Node 5, Type 0, BuildingBlock: MIDCAF_clean_linker_0, # of connection points: 3
#     Node 6, Type 0, BuildingBlock: MIDCAF_clean_linker_0, # of connection points: 3
#     Node 7, Type 0, BuildingBlock: MIDCAF_clean_linker_0, # of connection points: 3
#     Node 8, Type 0, BuildingBlock: MIDCAF_clean_linker_0, # of connection points: 3
#     Node 9, Type 0, BuildingBlock: MIDCAF_clean_linker_0, # of connection points: 3
#     Node 10, Type 0, BuildingBlock: MIDCAF_clean_linker_0, # of connection points: 3
#     Node 11, Type 0, BuildingBlock: MIDCAF_clean_linker_0, # of connection points: 3
#     Node 12, Type 0, BuildingBlock: MIDCAF_clean_linker_0, # of connection points: 3
#     Node 13, Type 0, BuildingBlock: MIDCAF_clean_linker_0, # of connection points: 3
#     Node 14, Type 0, BuildingBlock: MIDCAF_clean_linker_0, # of connection points: 3
#     Node 15, Type 0, BuildingBlock: MIDCAF_clean_linker_0, # of connection points: 3
#     Node 16, Type 1, BuildingBlock: KUFVIS_clean_sbu_0, # of connection points: 4
#     Node 17, Type 1, BuildingBlock: KUFVIS_clean_sbu_0, # of connection points: 4
#     Node 18, Type 1, BuildingBlock: KUFVIS_clean_sbu_0, # of connection points: 4
#     Node 19, Type 1, BuildingBlock: KUFVIS_clean_sbu_0, # of connection points: 4
#     Node 20, Type 1, BuildingBlock: KUFVIS_clean_sbu_0, # of connection points: 4
#     Node 21, Type 1, BuildingBlock: KUFVIS_clean_sbu_0, # of connection points: 4
#     Node 22, Type 1, BuildingBlock: KUFVIS_clean_sbu_0, # of connection points: 4
#     Node 23, Type 1, BuildingBlock: KUFVIS_clean_sbu_0, # of connection points: 4
#     Node 24, Type 1, BuildingBlock: KUFVIS_clean_sbu_0, # of connection points: 4
#     Node 25, Type 1, BuildingBlock: KUFVIS_clean_sbu_0, # of connection points: 4
#     Node 26, Type 1, BuildingBlock: KUFVIS_clean_sbu_0, # of connection points: 4
#     Node 27, Type 1, BuildingBlock: KUFVIS_clean_sbu_0, # of connection points: 4
#     Edge 28, Type (0, 1), BuildingBlock: XIVTED_clean_linker_0, # of connection points: 2
#     Edge 29, Type (0, 1), BuildingBlock: XIVTED_clean_linker_0, # of connection points: 2
#     Edge 30, Type (0, 1), BuildingBlock: XIVTED_clean_linker_0, # of connection points: 2
#     Edge 31, Type (0, 1), BuildingBlock: XIVTED_clean_linker_0, # of connection points: 2
#     Edge 32, Type (0, 1), BuildingBlock: XIVTED_clean_linker_0, # of connection points: 2
#     Edge 33, Type (0, 1), BuildingBlock: XIVTED_clean_linker_0, # of connection points: 2
#     Edge 34, Type (0, 1), BuildingBlock: XIVTED_clean_linker_0, # of connection points: 2
#     Edge 35, Type (0, 1), BuildingBlock: XIVTED_clean_linker_0, # of connection points: 2
#     Edge 36, Type (0, 1), BuildingBlock: XIVTED_clean_linker_0, # of connection points: 2
#     Edge 37, Type (0, 1), BuildingBlock: XIVTED_clean_linker_0, # of connection points: 2
#     Edge 38, Type (0, 1), BuildingBlock: XIVTED_clean_linker_0, # of connection points: 2
#     Edge 39, Type (0, 1), BuildingBlock: XIVTED_clean_linker_0, # of connection points: 2
#     Edge 40, Type (0, 1), BuildingBlock: XIVTED_clean_linker_0, # of connection points: 2
#     Edge 41, Type (0, 1), BuildingBlock: XIVTED_clean_linker_0, # of connection points: 2
#     Edge 42, Type (0, 1), BuildingBlock: XIVTED_clean_linker_0, # of connection points: 2
#     Edge 43, Type (0, 1), BuildingBlock: XIVTED_clean_linker_0, # of connection points: 2
#     Edge 44, Type (0, 1), BuildingBlock: XIVTED_clean_linker_0, # of connection points: 2
#     Edge 45, Type (0, 1), BuildingBlock: XIVTED_clean_linker_0, # of connection points: 2
#     Edge 46, Type (0, 1), BuildingBlock: XIVTED_clean_linker_0, # of connection points: 2
#     Edge 47, Type (0, 1), BuildingBlock: XIVTED_clean_linker_0, # of connection points: 2
#     Edge 48, Type (0, 1), BuildingBlock: XIVTED_clean_linker_0, # of connection points: 2
#     Edge 49, Type (0, 1), BuildingBlock: XIVTED_clean_linker_0, # of connection points: 2
#     Edge 50, Type (0, 1), BuildingBlock: XIVTED_clean_linker_0, # of connection points: 2
#     Edge 51, Type (0, 1), BuildingBlock: XIVTED_clean_linker_0, # of connection points: 2
#     Edge 52, Type (0, 1), BuildingBlock: XIVTED_clean_linker_0, # of connection points: 2
#     Edge 53, Type (0, 1), BuildingBlock: XIVTED_clean_linker_0, # of connection points: 2
#     Edge 54, Type (0, 1), BuildingBlock: XIVTED_clean_linker_0, # of connection points: 2
#     Edge 55, Type (0, 1), BuildingBlock: XIVTED_clean_linker_0, # of connection points: 2
#     Edge 56, Type (0, 1), BuildingBlock: XIVTED_clean_linker_0, # of connection points: 2
#     Edge 57, Type (0, 1), BuildingBlock: XIVTED_clean_linker_0, # of connection points: 2
#     Edge 58, Type (0, 1), BuildingBlock: XIVTED_clean_linker_0, # of connection points: 2
#     Edge 59, Type (0, 1), BuildingBlock: XIVTED_clean_linker_0, # of connection points: 2
#     Edge 60, Type (0, 1), BuildingBlock: XIVTED_clean_linker_0, # of connection points: 2
#     Edge 61, Type (0, 1), BuildingBlock: XIVTED_clean_linker_0, # of connection points: 2
#     Edge 62, Type (0, 1), BuildingBlock: XIVTED_clean_linker_0, # of connection points: 2
#     Edge 63, Type (0, 1), BuildingBlock: XIVTED_clean_linker_0, # of connection points: 2
#     Edge 64, Type (0, 1), BuildingBlock: XIVTED_clean_linker_0, # of connection points: 2
#     Edge 65, Type (0, 1), BuildingBlock: XIVTED_clean_linker_0, # of connection points: 2
#     Edge 66, Type (0, 1), BuildingBlock: XIVTED_clean_linker_0, # of connection points: 2
#     Edge 67, Type (0, 1), BuildingBlock: XIVTED_clean_linker_0, # of connection points: 2
#     Edge 68, Type (0, 1), BuildingBlock: XIVTED_clean_linker_0, # of connection points: 2
#     Edge 69, Type (0, 1), BuildingBlock: XIVTED_clean_linker_0, # of connection points: 2
#     Edge 70, Type (0, 1), BuildingBlock: XIVTED_clean_linker_0, # of connection points: 2
#     Edge 71, Type (0, 1), BuildingBlock: XIVTED_clean_linker_0, # of connection points: 2
#     Edge 72, Type (0, 1), BuildingBlock: XIVTED_clean_linker_0, # of connection points: 2
#     Edge 73, Type (0, 1), BuildingBlock: XIVTED_clean_linker_0, # of connection points: 2
#     Edge 74, Type (0, 1), BuildingBlock: XIVTED_clean_linker_0, # of connection points: 2
#     Edge 75, Type (0, 1), BuildingBlock: XIVTED_clean_linker_0, # of connection points: 2
# Relax obj value: 0.012
# Max RMSD: 0.063
# Mean RMSD: 0.029
data_MOF--net-ctn--node1-KUFVIS_clean_sbu_0--node2-MIDCAF_clean_linker_0--edge1-XIVTED_clean_linker_0
_symmetry_space_group_name_H-M    P1
_symmetry_Int_Tables_number       1
_symmetry_cell_setting            triclinic
loop_
_symmetry_equiv_pos_as_xyz
'x, y, z'
_cell_length_a     66.792647
_cell_length_b     66.674178
_cell_length_c     67.008867
_cell_angle_alpha  91.022244
_cell_angle_beta   90.26073
_cell_angle_gamma 91.647262
loop_
_atom_site_label
_atom_site_type_symbol
_atom_site_fract_x
_atom_site_fract_y
_atom_site_fract_z
_atom_type_partial_charge
C0 C 0.99174 0.04288 0.09989 0.0
C1 C 0.99686 0.0278 0.11325 0.0
C2 C 0.01458 0.01738 0.10997 0.0
C3 C 0.02682 0.02182 0.09368 0.0
H4 H 0.08227 0.00993 0.06884 0.0
H5 H 0.11094 0.98928 0.06196 0.0
H6 H 0.11172 0.00959 0.00104 0.0
H7 H 0.08362 0.03089 0.00819 0.0
H8 H 0.06642 0.08012 0.00808 0.0
H9 H 0.05844 0.10778 0.98656 0.0
H10 H 0.99741 0.10567 0.00789 0.0
H11 H 0.00569 0.07862 0.03007 0.0
H12 H 0.99946 0.05895 0.07356 0.0
H13 H 0.97806 0.05102 0.10182 0.0
H14 H 0.01913 0.00588 0.12012 0.0
H15 H 0.04035 0.01346 0.09169 0.0
N16 N 0.05111 0.03051 0.05918 0.0
N17 N 0.05816 0.04953 0.03082 0.0
N18 N 0.02996 0.05638 0.05027 0.0
C19 C 0.06293 0.03443 0.04318 0.0
C20 C 0.04172 0.0606 0.03429 0.0
C21 C 0.03458 0.04139 0.06283 0.0
C22 C 0.08062 0.02208 0.03907 0.0
C23 C 0.0886 0.01004 0.05399 0.0
C24 C 0.105 0.99807 0.04999 0.0
C25 C 0.1137 0.99763 0.0309 0.0
C26 C 0.10572 0.00976 0.01601 0.0
C27 C 0.08947 0.02192 0.02009 0.0
C28 C 0.03671 0.07717 0.02084 0.0
C29 C 0.05129 0.08555 0.00817 0.0
C30 C 0.04666 0.10138 0.99571 0.0
C31 C 0.02724 0.10906 0.99538 0.0
C32 C 0.01263 0.10049 0.00796 0.0
C33 C 0.01734 0.08485 0.02063 0.0
C34 C 0.02166 0.03683 0.08025 0.0
C35 C 0.00398 0.04734 0.0836 0.0
C36 C 0.28169 0.62785 0.21026 0.0
C37 C 0.26415 0.62604 0.19866 0.0
C38 C 0.26141 0.63946 0.18301 0.0
C39 C 0.27558 0.65487 0.17956 0.0
H40 H 0.29206 0.70186 0.14085 0.0
H41 H 0.2859 0.72775 0.11643 0.0
H42 H 0.32693 0.76836 0.14801 0.0
H43 H 0.33316 0.74261 0.17243 0.0
H44 H 0.36246 0.72479 0.20388 0.0
H45 H 0.38839 0.73075 0.22905 0.0
H46 H 0.37139 0.67505 0.25717 0.0
H47 H 0.34561 0.66883 0.23182 0.0
H48 H 0.30898 0.64422 0.21634 0.0
H49 H 0.2844 0.6175 0.22219 0.0
H50 H 0.24798 0.63848 0.17387 0.0
H51 H 0.27276 0.66529 0.16773 0.0
N52 N 0.30414 0.68825 0.17506 0.0
N53 N 0.33215 0.70702 0.18684 0.0
N54 N 0.3227 0.67702 0.20226 0.0
C55 C 0.31666 0.70462 0.17372 0.0
C56 C 0.33533 0.69325 0.2011 0.0
C57 C 0.30709 0.67436 0.18932 0.0
C58 C 0.31311 0.72012 0.15862 0.0
C59 C 0.2998 0.71629 0.14259 0.0
C60 C 0.29634 0.73107 0.12854 0.0
C61 C 0.30592 0.75006 0.13035 0.0
C62 C 0.3192 0.75391 0.14635 0.0
C63 C 0.32285 0.73908 0.16026 0.0
C64 C 0.35181 0.69638 0.21584 0.0
C65 C 0.36427 0.71372 0.21533 0.0
C66 C 0.37909 0.71721 0.22984 0.0
C67 C 0.38184 0.70345 0.24519 0.0
C68 C 0.36974 0.68586 0.24544 0.0
C69 C 0.35488 0.68237 0.23094 0.0
C70 C 0.2928 0.65711 0.19167 0.0
C71 C 0.29584 0.64316 0.20681 0.0
C72 C 0.99336 0.41024 0.00091 0.0
C73 C 0.97996 0.40561 0.98517 0.0
C74 C 0.96467 0.419 0.98104 0.0
C75 C 0.96254 0.43642 0.99266 0.0
H76 H 0.93418 0.4914 0.99443 0.0
H77 H 0.90782 0.51465 0.98699 0.0
H78 H 0.91421 0.54092 0.0462 0.0
H79 H 0.94097 0.51821 0.05339 0.0
H80 H 0.98594 0.51186 0.07383 0.0
H81 H 0.00597 0.51666 0.10399 0.0
H82 H 0.02259 0.45449 0.10067 0.0
H83 H 0.00321 0.44994 0.07002 0.0
H84 H 0.00159 0.43051 0.02484 0.0
H85 H 0.00521 0.40014 0.00455 0.0
H86 H 0.95426 0.41598 0.96884 0.0
H87 H 0.95043 0.44624 0.98915 0.0
N88 N 0.95859 0.47228 0.01718 0.0
N89 N 0.96681 0.49106 0.04613 0.0
N90 N 0.98376 0.46157 0.0387 0.0
C91 C 0.95555 0.48847 0.02929 0.0
C92 C 0.98095 0.47769 0.05093 0.0
C93 C 0.9727 0.45876 0.02176 0.0
C94 C 0.93974 0.50288 0.02452 0.0
C95 C 0.93002 0.50219 0.00585 0.0
C96 C 0.9148 0.51547 0.00161 0.0
C97 C 0.90879 0.5297 0.01599 0.0
C98 C 0.91863 0.53044 0.03461 0.0
C99 C 0.93394 0.51728 0.03879 0.0
C100 C 0.99299 0.48053 0.06946 0.0
C101 C 0.99386 0.4992 0.07953 0.0
C102 C 0.00527 0.50191 0.09695 0.0
C103 C 0.01591 0.48596 0.10489 0.0
C104 C 0.0149 0.46723 0.09486 0.0
C105 C 0.00368 0.46458 0.0773 0.0
C106 C 0.9756 0.44082 0.00876 0.0
C107 C 0.99118 0.4276 0.01262 0.0
C108 C 0.7169 0.77586 0.13387 0.0
C109 C 0.70365 0.75927 0.13115 0.0
C110 C 0.68664 0.75766 0.14335 0.0
C111 C 0.683 0.77227 0.158 0.0
H112 H 0.65503 0.7802 0.21337 0.0
H113 H 0.63102 0.77409 0.24007 0.0
H114 H 0.63421 0.83694 0.25673 0.0
H115 H 0.65826 0.84317 0.23007 0.0
H116 H 0.69744 0.86787 0.21729 0.0
H117 H 0.72107 0.89589 0.22249 0.0
H118 H 0.75881 0.87234 0.17598 0.0
H119 H 0.73499 0.84442 0.17043 0.0
H120 H 0.72373 0.80313 0.15003 0.0
H121 H 0.73001 0.77764 0.12454 0.0
H122 H 0.67626 0.74495 0.14174 0.0
H123 H 0.66977 0.7705 0.16717 0.0
N124 N 0.67756 0.80162 0.18981 0.0
N125 N 0.68593 0.83267 0.20507 0.0
N126 N 0.70408 0.82148 0.17739 0.0
C127 C 0.6742 0.81569 0.20424 0.0
C128 C 0.7009 0.83569 0.19171 0.0
C129 C 0.69242 0.80445 0.17626 0.0
C130 C 0.65866 0.81217 0.21961 0.0
C131 C 0.65053 0.79277 0.2226 0.0
C132 C 0.63688 0.78923 0.23798 0.0
C133 C 0.63086 0.80503 0.25053 0.0
C134 C 0.63853 0.82451 0.24722 0.0
C135 C 0.65238 0.82802 0.232 0.0
C136 C 0.71439 0.8537 0.19359 0.0
C137 C 0.71067 0.86869 0.20802 0.0
C138 C 0.72427 0.88475 0.21107 0.0
C139 C 0.74193 0.88622 0.19981 0.0
C140 C 0.74527 0.87172 0.18481 0.0
C141 C 0.73164 0.85563 0.18172 0.0
C142 C 0.69621 0.78892 0.16069 0.0
C143 C 0.7132 0.79054 0.14841 0.0
C144 C 0.03697 0.91715 0.5302 0.0
C145 C 0.01852 0.90646 0.52899 0.0
C146 C 0.00438 0.9122 0.51471 0.0
C147 C 0.00873 0.92792 0.50172 0.0
H148 H 0.99242 0.94869 0.44647 0.0
H149 H 0.97166 0.95293 0.41698 0.0
H150 H 0.00853 0.00409 0.4002 0.0
H151 H 0.02926 1.00007 0.42981 0.0
H152 H 0.08111 0.99089 0.44852 0.0
H153 H 0.11207 0.01058 0.4526 0.0
H154 H 0.09973 0.01789 0.5157 0.0
H155 H 0.06973 0.99663 0.51161 0.0
H156 H 0.05577 0.94058 0.51853 0.0
H157 H 0.04838 0.913 0.54076 0.0
H158 H 0.98988 0.90457 0.51355 0.0
H159 H 0.99753 0.93177 0.49081 0.0
N160 N 0.02056 0.95712 0.47207 0.0
N161 N 0.04267 0.98243 0.46091 0.0
N162 N 0.04927 0.96606 0.49085 0.0
C163 C 0.02555 0.97115 0.45832 0.0
C164 C 0.0545 0.98002 0.47717 0.0
C165 C 0.03236 0.95443 0.48834 0.0
C166 C 0.01262 0.97397 0.44054 0.0
C167 C 0.99612 0.9609 0.43657 0.0
C168 C 0.98424 0.96327 0.4196 0.0
C169 C 0.98849 0.97881 0.40621 0.0
C170 C 0.00476 0.99208 0.41032 0.0
C171 C 0.01673 0.98966 0.42724 0.0
C172 C 0.0731 0.99228 0.47975 0.0
C173 C 0.08516 0.99669 0.46325 0.0
C174 C 0.10287 0.00818 0.46563 0.0
C175 C 0.10862 0.01616 0.4845 0.0
C176 C 0.09628 0.01177 0.50098 0.0
C177 C 0.07891 0.99971 0.49867 0.0
C178 C 0.0273 0.9384 0.50276 0.0
C179 C 0.04127 0.93295 0.51732 0.0
C180 C 0.21656 0.73026 0.87862 0.0
C181 C 0.20388 0.74662 0.88059 0.0
C182 C 0.18754 0.74795 0.86745 0.0
C183 C 0.18438 0.73358 0.85222 0.0
H184 H 0.15226 0.72331 0.80138 0.0
H185 H 0.12578 0.72808 0.7771 0.0
H186 H 0.14126 0.67311 0.74662 0.0
H187 H 0.1678 0.66812 0.77107 0.0
H188 H 0.21615 0.65545 0.77942 0.0
H189 H 0.2428 0.63157 0.77421 0.0
H190 H 0.25907 0.63703 0.83653 0.0
H191 H 0.23256 0.66093 0.84181 0.0
H192 H 0.2237 0.70368 0.86223 0.0
H193 H 0.22908 0.72863 0.88874 0.0
H194 H 0.17757 0.76045 0.86852 0.0
H195 H 0.17191 0.73532 0.84207 0.0
N196 N 0.18021 0.70515 0.81921 0.0
N197 N 0.19201 0.67789 0.80051 0.0
N198 N 0.20838 0.6883 0.83013 0.0
C199 C 0.17848 0.69259 0.80306 0.0
C200 C 0.20699 0.67563 0.81405 0.0
C201 C 0.19508 0.70311 0.83282 0.0
C202 C 0.16225 0.69532 0.78822 0.0
C203 C 0.15008 0.71217 0.78955 0.0
C204 C 0.13494 0.715 0.77554 0.0
C205 C 0.13147 0.70102 0.7599 0.0
C206 C 0.14348 0.68407 0.75861 0.0
C207 C 0.15876 0.68128 0.77257 0.0
C208 C 0.22225 0.66017 0.81102 0.0
C209 C 0.2253 0.65146 0.79205 0.0
C210 C 0.24064 0.63789 0.78903 0.0
C211 C 0.25305 0.63253 0.80495 0.0
C212 C 0.24967 0.64081 0.82401 0.0
C213 C 0.23454 0.65458 0.82698 0.0
C214 C 0.19746 0.71754 0.84984 0.0
C215 C 0.2134 0.71589 0.86345 0.0
C216 C 0.99977 0.60247 0.50106 0.0
C217 C 0.99532 0.60304 0.52148 0.0
C218 C 0.98741 0.58573 0.53054 0.0
C219 C 0.98372 0.56815 0.51922 0.0
H220 H 0.93827 0.52193 0.50965 0.0
H221 H 0.90741 0.50187 0.51354 0.0
H222 H 0.92228 0.46639 0.46146 0.0
H223 H 0.95291 0.48638 0.45737 0.0
H224 H 0.99071 0.49736 0.43156 0.0
H225 H 0.00981 0.49352 0.40075 0.0
H226 H 0.04194 0.54933 0.41392 0.0
H227 H 0.02294 0.55336 0.44444 0.0
H228 H 1.0002 0.5848 0.47413 0.0
H229 H 0.0059 0.61567 0.49382 0.0
H230 H 0.98381 0.58594 0.54629 0.0
H231 H 0.97747 0.55502 0.52648 0.0
N232 N 0.96953 0.53589 0.49108 0.0
N233 N 0.97745 0.51606 0.46305 0.0
N234 N 0.99623 0.54547 0.47038 0.0
C235 C 0.96572 0.51938 0.47927 0.0
C236 C 0.99281 0.52897 0.45857 0.0
C237 C 0.98478 0.54899 0.48667 0.0
C238 C 0.94804 0.50598 0.48304 0.0
C239 C 0.93508 0.50973 0.49912 0.0
C240 C 0.91742 0.49819 0.50143 0.0
C241 C 0.9123 0.48272 0.48767 0.0
C242 C 0.92563 0.47845 0.4721 0.0
C243 C 0.94328 0.48989 0.46983 0.0
C244 C 0.00511 0.52578 0.44045 0.0
C245 C 0.00192 0.50877 0.42794 0.0
C246 C 0.01292 0.50649 0.41034 0.0
C247 C 0.02722 0.52122 0.40483 0.0
C248 C 0.03077 0.53789 0.4176 0.0
C249 C 0.0199 0.54014 0.43517 0.0
C250 C 0.98839 0.5675 0.49879 0.0
C251 C 0.99657 0.5848 0.48987 0.0
C252 C 0.87885 0.79796 0.78122 0.0
C253 C 0.87931 0.80732 0.76261 0.0
C254 C 0.86571 0.82252 0.75885 0.0
C255 C 0.85132 0.82756 0.7731 0.0
H256 H 0.7966 0.85645 0.77968 0.0
H257 H 0.76978 0.87956 0.77277 0.0
H258 H 0.75047 0.87608 0.83403 0.0
H259 H 0.77716 0.85305 0.84103 0.0
H260 H 0.78372 0.80779 0.85876 0.0
H261 H 0.77805 0.78393 0.88507 0.0
H262 H 0.8382 0.76274 0.87776 0.0
H263 H 0.84362 0.78624 0.8507 0.0
H264 H 0.86448 0.7951 0.80942 0.0
H265 H 0.88937 0.78644 0.78469 0.0
H266 H 0.86566 0.82994 0.74461 0.0
H267 H 0.84066 0.83889 0.7695 0.0
N268 N 0.82005 0.8353 0.80218 0.0
N269 N 0.80309 0.82649 0.83147 0.0
N270 N 0.83218 0.80992 0.82241 0.0
C271 C 0.80462 0.83806 0.81504 0.0
C272 C 0.81678 0.81238 0.83528 0.0
C273 C 0.83399 0.82132 0.80585 0.0
C274 C 0.78903 0.85284 0.8109 0.0
C275 C 0.78672 0.8607 0.79172 0.0
C276 C 0.77128 0.87382 0.78771 0.0
C277 C 0.75801 0.87956 0.80285 0.0
C278 C 0.76055 0.87203 0.8221 0.0
C279 C 0.77581 0.85874 0.82606 0.0
C280 C 0.81411 0.79892 0.8525 0.0
C281 C 0.79584 0.7982 0.86283 0.0
C282 C 0.79263 0.78454 0.87809 0.0
C283 C 0.80767 0.77136 0.88366 0.0
C284 C 0.82616 0.77243 0.87369 0.0
C285 C 0.82931 0.786 0.85824 0.0
C286 C 0.85031 0.81753 0.7914 0.0
C287 C 0.86456 0.80299 0.79543 0.0
C288 C 0.38244 0.30175 0.2783 0.0
C289 C 0.3801 0.3093 0.25902 0.0
C290 C 0.36338 0.32084 0.25483 0.0
C291 C 0.349 0.32432 0.26947 0.0
H292 H 0.30548 0.36579 0.28898 0.0
H293 H 0.27898 0.3896 0.28353 0.0
H294 H 0.24086 0.35735 0.32458 0.0
H295 H 0.26727 0.33354 0.33014 0.0
H296 H 0.28647 0.30323 0.35801 0.0
H297 H 0.28226 0.27996 0.38497 0.0
H298 H 0.34076 0.25651 0.3731 0.0
H299 H 0.34481 0.27963 0.3454 0.0
H300 H 0.36987 0.29851 0.30745 0.0
H301 H 0.39513 0.29268 0.28187 0.0
H302 H 0.36129 0.32695 0.24012 0.0
H303 H 0.33611 0.33295 0.26557 0.0
N304 N 0.32012 0.33184 0.30052 0.0
N305 N 0.30354 0.3208 0.32917 0.0
N306 N 0.33345 0.306 0.31941 0.0
C307 C 0.30455 0.33323 0.31338 0.0
C308 C 0.3179 0.3072 0.33238 0.0
C309 C 0.33464 0.31827 0.30341 0.0
C310 C 0.28854 0.34775 0.31002 0.0
C311 C 0.29146 0.36374 0.29684 0.0
C312 C 0.27633 0.37746 0.2938 0.0
C313 C 0.25788 0.37532 0.30364 0.0
C314 C 0.25488 0.35927 0.31668 0.0
C315 C 0.27008 0.34572 0.31994 0.0
C316 C 0.316 0.29337 0.34944 0.0
C317 C 0.29857 0.29325 0.36112 0.0
C318 C 0.2962 0.27994 0.37678 0.0
C319 C 0.31125 0.26643 0.38141 0.0
C320 C 0.32881 0.2666 0.36987 0.0
C321 C 0.33115 0.27993 0.35404 0.0
C322 C 0.35086 0.31607 0.28855 0.0
C323 C 0.3679 0.30498 0.29289 0.0
C324 C 0.48795 0.90488 0.50812 0.0
C325 C 0.48157 0.9034 0.48814 0.0
C326 C 0.47186 0.91965 0.47969 0.0
C327 C 0.46839 0.93699 0.4911 0.0
H328 H 0.42325 0.98107 0.5032 0.0
H329 H 0.39604 0.00364 0.49663 0.0
H330 H 0.42442 0.0487 0.5353 0.0
H331 H 0.45115 0.02591 0.54243 0.0
H332 H 0.48603 0.01258 0.57243 0.0
H333 H 0.5064 0.01843 0.60229 0.0
H334 H 0.52079 0.95562 0.60248 0.0
H335 H 0.50111 0.94997 0.57222 0.0
H336 H 0.48992 0.9229 0.53477 0.0
H337 H 0.49558 0.89262 0.51496 0.0
H338 H 0.46664 0.91881 0.46436 0.0
H339 H 0.46081 0.94925 0.4842 0.0
N340 N 0.45781 0.9704 0.5177 0.0
N341 N 0.46625 0.99067 0.54568 0.0
N342 N 0.48253 0.96045 0.54014 0.0
C343 C 0.45501 0.98731 0.52891 0.0
C344 C 0.48 0.97728 0.55141 0.0
C345 C 0.47163 0.95694 0.52321 0.0
C346 C 0.43931 0.00158 0.5235 0.0
C347 C 0.42375 0.99585 0.51019 0.0
C348 C 0.40817 0.00886 0.50635 0.0
C349 C 0.40786 0.02799 0.51556 0.0
C350 C 0.42384 0.03394 0.5283 0.0
C351 C 0.43928 0.02088 0.5323 0.0
C352 C 0.492 0.98083 0.56986 0.0
C353 C 0.49353 1.00001 0.57886 0.0
C354 C 0.50514 0.00334 0.59608 0.0
C355 C 0.51531 0.98751 0.60487 0.0
C356 C 0.51353 0.96827 0.59596 0.0
C357 C 0.50213 0.965 0.57862 0.0
C358 C 0.47487 0.93852 0.51108 0.0
C359 C 0.48476 0.92228 0.51942 0.0
C360 C 0.20893 0.28089 0.62923 0.0
C361 C 0.20173 0.261 0.63094 0.0
C362 C 0.1912 0.25547 0.64818 0.0
C363 C 0.18791 0.26958 0.66342 0.0
H364 H 0.14375 0.28801 0.70653 0.0
H365 H 0.11863 0.28246 0.73242 0.0
H366 H 0.14891 0.32681 0.77035 0.0
H367 H 0.17397 0.33245 0.74461 0.0
H368 H 0.20103 0.36484 0.72275 0.0
H369 H 0.22496 0.39249 0.72822 0.0
H370 H 0.25981 0.37186 0.67817 0.0
H371 H 0.23563 0.34418 0.67238 0.0
H372 H 0.21182 0.31009 0.64287 0.0
H373 H 0.2172 0.28552 0.61614 0.0
H374 H 0.18537 0.24026 0.6498 0.0
H375 H 0.1798 0.26483 0.67656 0.0
N376 N 0.17835 0.30095 0.69244 0.0
N377 N 0.18843 0.33081 0.70905 0.0
N378 N 0.20471 0.32095 0.67975 0.0
C379 C 0.17616 0.31425 0.70784 0.0
C380 C 0.2027 0.33433 0.69508 0.0
C381 C 0.1926 0.30422 0.67832 0.0
C382 C 0.16088 0.31068 0.72346 0.0
C383 C 0.14508 0.29656 0.72039 0.0
C384 C 0.13063 0.29346 0.73516 0.0
C385 C 0.13185 0.30421 0.75338 0.0
C386 C 0.1477 0.3182 0.75651 0.0
C387 C 0.16198 0.32149 0.74168 0.0
C388 C 0.21648 0.35208 0.69726 0.0
C389 C 0.21369 0.36618 0.71278 0.0
C390 C 0.22746 0.38204 0.71598 0.0
C391 C 0.24441 0.3842 0.7038 0.0
C392 C 0.24684 0.37063 0.68776 0.0
C393 C 0.23302 0.35471 0.68452 0.0
C394 C 0.19537 0.28944 0.66186 0.0
C395 C 0.20592 0.29492 0.64459 0.0
C396 C 0.77945 0.12965 0.71156 0.0
C397 C 0.76171 0.12826 0.70024 0.0
C398 C 0.75905 0.14173 0.68462 0.0
C399 C 0.77357 0.15676 0.68088 0.0
H400 H 0.79093 0.20338 0.64165 0.0
H401 H 0.78517 0.22962 0.61747 0.0
H402 H 0.82756 0.26897 0.64881 0.0
H403 H 0.83342 0.24285 0.67296 0.0
H404 H 0.86522 0.22183 0.70104 0.0
H405 H 0.89216 0.2267 0.72532 0.0
H406 H 0.87105 0.17422 0.75671 0.0
H407 H 0.8443 0.16902 0.73222 0.0
H408 H 0.80726 0.14526 0.7171 0.0
H409 H 0.78209 0.11924 0.72346 0.0
H410 H 0.74548 0.14107 0.67569 0.0
H411 H 0.77085 0.16721 0.66905 0.0
N412 N 0.80298 0.18936 0.67582 0.0
N413 N 0.83217 0.20685 0.68659 0.0
N414 N 0.82205 0.17715 0.70219 0.0
C415 C 0.81611 0.20521 0.6741 0.0
C416 C 0.83531 0.19283 0.70063 0.0
C417 C 0.80588 0.17524 0.68988 0.0
C418 C 0.81266 0.22098 0.65925 0.0
C419 C 0.79903 0.21762 0.6434 0.0
C420 C 0.7958 0.23259 0.62949 0.0
C421 C 0.80592 0.25132 0.63129 0.0
C422 C 0.81944 0.25473 0.64716 0.0
C423 C 0.82288 0.23969 0.66091 0.0
C424 C 0.85244 0.19512 0.71472 0.0
C425 C 0.86635 0.21122 0.71302 0.0
C426 C 0.88177 0.21408 0.72701 0.0
C427 C 0.88364 0.20095 0.74305 0.0
C428 C 0.87012 0.18451 0.74443 0.0
C429 C 0.8547 0.18162 0.73043 0.0
C430 C 0.79106 0.15852 0.69265 0.0
C431 C 0.79394 0.14455 0.70781 0.0
C432 C 0.49717 0.5453 0.60378 0.0
C433 C 0.49678 0.52598 0.61193 0.0
C434 C 0.50891 0.5113 0.60325 0.0
C435 C 0.52116 0.51585 0.58698 0.0
H436 H 0.57304 0.49808 0.55906 0.0
H437 H 0.60126 0.47722 0.55095 0.0
H438 H 0.61971 0.51878 0.50536 0.0
H439 H 0.59124 0.53944 0.5131 0.0
H440 H 0.56719 0.58052 0.50845 0.0
H441 H 0.55944 0.60876 0.48753 0.0
H442 H 0.49872 0.60739 0.50973 0.0
H443 H 0.50678 0.5798 0.53126 0.0
H444 H 0.50914 0.56481 0.58151 0.0
H445 H 0.4884 0.55715 0.61024 0.0
H446 H 0.50878 0.49615 0.60881 0.0
H447 H 0.53025 0.50416 0.58066 0.0
N448 N 0.55024 0.52851 0.55708 0.0
N449 N 0.55829 0.54918 0.53015 0.0
N450 N 0.5304 0.55597 0.55003 0.0
C451 C 0.56236 0.53305 0.54145 0.0
C452 C 0.54228 0.56066 0.53429 0.0
C453 C 0.5343 0.53995 0.56152 0.0
C454 C 0.57977 0.52047 0.53672 0.0
C455 C 0.5831 0.50283 0.54731 0.0
C456 C 0.59938 0.49089 0.54274 0.0
C457 C 0.61279 0.49631 0.5275 0.0
C458 C 0.60953 0.514 0.51699 0.0
C459 C 0.59322 0.52591 0.52152 0.0
C460 C 0.53762 0.57791 0.52157 0.0
C461 C 0.5522 0.58629 0.50889 0.0
C462 C 0.54769 0.60244 0.49678 0.0
C463 C 0.52841 0.61043 0.49683 0.0
C464 C 0.51384 0.60196 0.50951 0.0
C465 C 0.51843 0.58601 0.52182 0.0
C466 C 0.52137 0.53511 0.57879 0.0
C467 C 0.50918 0.54975 0.58733 0.0
C468 C 0.53489 0.42207 0.03358 0.0
C469 C 0.52206 0.40581 0.02799 0.0
C470 C 0.51218 0.40632 0.0094 0.0
C471 C 0.51529 0.42251 0.99665 0.0
H472 H 0.4926 0.45009 0.94644 0.0
H473 H 0.47183 0.45474 0.91702 0.0
H474 H 0.50613 0.50855 0.9032 0.0
H475 H 0.52683 0.50412 0.93274 0.0
H476 H 0.568 0.51284 0.95491 0.0
H477 H 0.59873 0.53297 0.95948 0.0
H478 H 0.61188 0.50089 0.01319 0.0
H479 H 0.58104 0.48097 0.00891 0.0
H480 H 0.54827 0.45027 0.02558 0.0
H481 H 0.54241 0.42248 0.04794 0.0
H482 H 0.50239 0.39398 0.00444 0.0
H483 H 0.50769 0.42225 0.98234 0.0
N484 N 0.52058 0.45826 0.97231 0.0
N485 N 0.54122 0.48545 0.96271 0.0
N486 N 0.54914 0.46741 0.99121 0.0
C487 C 0.52467 0.47345 0.95951 0.0
C488 C 0.55355 0.48252 0.9785 0.0
C489 C 0.53272 0.45521 0.98826 0.0
C490 C 0.51152 0.47665 0.94197 0.0
C491 C 0.4957 0.46298 0.93723 0.0
C492 C 0.48383 0.46559 0.92029 0.0
C493 C 0.48739 0.48196 0.90771 0.0
C494 C 0.50289 0.49588 0.91267 0.0
C495 C 0.51485 0.49323 0.92956 0.0
C496 C 0.57198 0.49522 0.98152 0.0
C497 C 0.57737 0.51009 0.96775 0.0
C498 C 0.59508 0.52157 0.97028 0.0
C499 C 0.6078 0.51848 0.98665 0.0
C500 C 0.60232 0.50379 0.00053 0.0
C501 C 0.58464 0.49228 0.99799 0.0
C502 C 0.52851 0.43849 0.00209 0.0
C503 C 0.53816 0.43812 0.02077 0.0
C504 C 0.71692 0.22879 0.38036 0.0
C505 C 0.70395 0.24488 0.38264 0.0
C506 C 0.68745 0.24606 0.36967 0.0
C507 C 0.68443 0.23183 0.35426 0.0
H508 H 0.64302 0.20892 0.31127 0.0
H509 H 0.61621 0.21354 0.28707 0.0
H510 H 0.64915 0.18052 0.2427 0.0
H511 H 0.676 0.17577 0.26687 0.0
H512 H 0.70745 0.14211 0.29013 0.0
H513 H 0.73361 0.11768 0.28505 0.0
H514 H 0.77189 0.15066 0.32691 0.0
H515 H 0.74588 0.17505 0.33207 0.0
H516 H 0.72445 0.20261 0.36359 0.0
H517 H 0.72954 0.22724 0.39036 0.0
H518 H 0.67726 0.25835 0.371 0.0
H519 H 0.67186 0.23345 0.34422 0.0
N520 N 0.68 0.2028 0.32152 0.0
N521 N 0.69288 0.17647 0.30217 0.0
N522 N 0.70991 0.18805 0.33098 0.0
C523 C 0.67848 0.1902 0.30537 0.0
C524 C 0.70863 0.17529 0.31499 0.0
C525 C 0.69568 0.2018 0.33442 0.0
C526 C 0.66172 0.19203 0.291 0.0
C527 C 0.64454 0.20254 0.29639 0.0
C528 C 0.62911 0.2051 0.28258 0.0
C529 C 0.63063 0.19744 0.263 0.0
C530 C 0.64767 0.18673 0.25765 0.0
C531 C 0.66298 0.18392 0.27154 0.0
C532 C 0.72451 0.16054 0.31154 0.0
C533 C 0.72145 0.14419 0.29821 0.0
C534 C 0.73638 0.13014 0.29538 0.0
C535 C 0.75477 0.13227 0.3056 0.0
C536 C 0.75793 0.14872 0.31872 0.0
C537 C 0.74294 0.16262 0.32174 0.0
C538 C 0.69784 0.21611 0.35155 0.0
C539 C 0.71392 0.2146 0.36502 0.0
C540 C 0.50068 0.10135 0.00288 0.0
C541 C 0.4957 0.10225 0.02318 0.0
C542 C 0.48726 0.08519 0.03223 0.0
C543 C 0.4835 0.06757 0.02102 0.0
H544 H 0.43272 0.02848 0.0054 0.0
H545 H 0.40211 0.00862 0.01088 0.0
H546 H 0.42517 0.96038 0.97475 0.0
H547 H 0.45587 0.98032 0.96897 0.0
H548 H 0.48882 0.99521 0.93443 0.0
H549 H 0.50727 0.99074 0.90325 0.0
H550 H 0.53984 0.04662 0.91487 0.0
H551 H 0.52156 0.05123 0.94571 0.0
H552 H 0.50134 0.08336 0.97613 0.0
H553 H 0.50725 0.11435 0.99564 0.0
H554 H 0.48323 0.08562 0.04787 0.0
H555 H 0.47676 0.05468 0.02829 0.0
N556 N 0.46895 0.03548 0.99349 0.0
N557 N 0.47603 0.01481 0.96581 0.0
N558 N 0.49553 0.04403 0.97232 0.0
C559 C 0.46462 0.01882 0.98211 0.0
C560 C 0.49157 0.02737 0.96085 0.0
C561 C 0.48441 0.04811 0.98871 0.0
C562 C 0.44675 0.00603 0.98665 0.0
C563 C 0.43143 0.01357 0.99876 0.0
C564 C 0.41383 0.00226 0.00185 0.0
C565 C 0.41128 0.98303 0.9932 0.0
C566 C 0.42683 0.97514 0.98168 0.0
C567 C 0.44434 0.98661 0.9783 0.0
C568 C 0.50351 0.02368 0.94256 0.0
C569 C 0.49999 0.00649 0.93039 0.0
C570 C 0.51062 0.00385 0.91258 0.0
C571 C 0.52483 0.01844 0.90653 0.0
C572 C 0.52873 0.03529 0.91897 0.0
C573 C 0.51826 0.03786 0.93674 0.0
C574 C 0.48857 0.0666 0.00069 0.0
C575 C 0.49737 0.08361 0.99179 0.0
Mn576 Mn 0.253 0.87246 0.00746 0.0
Mn577 Mn 0.25037 0.89028 0.96073 0.0
C578 C 0.23584 0.85437 0.98284 0.0
C579 C 0.26877 0.85378 0.03165 0.0
C580 C 0.22565 0.90621 0.99501 0.0
O581 O 0.27572 0.8935 0.00711 0.0
O582 O 0.27332 0.90362 0.97522 0.0
C583 C 0.28798 0.87396 0.94486 0.0
N584 N 0.26771 0.8754 0.94376 0.0
C585 C 0.26597 0.85335 0.91494 0.0
C586 C 0.28685 0.85174 0.91568 0.0
C587 C 0.29789 0.86208 0.93072 0.0
C588 C 0.25694 0.86555 0.92933 0.0
H589 H 0.29652 0.88176 0.95648 0.0
C590 C 0.28168 0.90413 0.9925 0.0
O591 O 0.25674 0.868 0.03653 0.0
O592 O 0.27218 0.85096 0.01278 0.0
N593 N 0.22896 0.87834 0.9451 0.0
C594 C 0.20885 0.88057 0.94716 0.0
C595 C 0.19563 0.87076 0.93359 0.0
C596 C 0.20321 0.85882 0.91805 0.0
C597 C 0.22396 0.85687 0.91616 0.0
C598 C 0.23642 0.86719 0.92998 0.0
H599 H 0.20293 0.88966 0.95913 0.0
O600 O 0.23172 0.85146 0.00149 0.0
O601 O 0.24969 0.86789 0.97926 0.0
O602 O 0.23211 0.89434 0.00813 0.0
O603 O 0.23168 0.90616 0.97694 0.0
C604 C 0.23275 0.84474 0.90136 0.0
C605 C 0.25373 0.84296 0.90077 0.0
H606 H 0.29453 0.84246 0.90491 0.0
H607 H 0.31399 0.86082 0.93146 0.0
H608 H 0.17963 0.87231 0.93518 0.0
H609 H 0.19295 0.85108 0.90776 0.0
H610 H 0.22349 0.83648 0.89054 0.0
H611 H 0.26029 0.83336 0.8895 0.0
Mn612 Mn 0.13885 0.50062 0.25164 0.0
Mn613 Mn 0.12357 0.54822 0.24778 0.0
C614 C 0.15807 0.52399 0.23461 0.0
C615 C 0.15639 0.47634 0.26848 0.0
C616 C 0.10583 0.51339 0.22319 0.0
O617 O 0.11764 0.50254 0.27339 0.0
O618 O 0.11006 0.53512 0.27065 0.0
C619 C 0.14127 0.56511 0.28525 0.0
N620 N 0.13948 0.56546 0.265 0.0
C621 C 0.1624 0.59387 0.26314 0.0
C622 C 0.16439 0.59389 0.28398 0.0
C623 C 0.1538 0.57943 0.29507 0.0
C624 C 0.1496 0.57931 0.25418 0.0
H625 H 0.13324 0.55396 0.29382 0.0
C626 C 0.10823 0.51804 0.27907 0.0
O627 O 0.14203 0.47138 0.25606 0.0
O628 O 0.15991 0.49535 0.2717 0.0
N629 N 0.13575 0.56267 0.22635 0.0
C630 C 0.13291 0.55999 0.20632 0.0
C631 C 0.14279 0.57298 0.19308 0.0
C632 C 0.15538 0.58863 0.20056 0.0
C633 C 0.15791 0.59119 0.22124 0.0
C634 C 0.14752 0.57791 0.23372 0.0
H635 H 0.12328 0.54798 0.20048 0.0
O636 O 0.16016 0.50497 0.23111 0.0
O637 O 0.14486 0.52868 0.24792 0.0
O638 O 0.11715 0.49998 0.22995 0.0
O639 O 0.10668 0.53171 0.22917 0.0
C640 C 0.17064 0.60617 0.22994 0.0
C641 C 0.17292 0.60748 0.25087 0.0
H642 H 0.17414 0.60483 0.29161 0.0
H643 H 0.15534 0.57929 0.31115 0.0
H644 H 0.14077 0.57089 0.17714 0.0
H645 H 0.16314 0.59847 0.19029 0.0
H646 H 0.17897 0.61656 0.22067 0.0
H647 H 0.18297 0.61887 0.25737 0.0
Mn648 Mn 0.7573 0.62959 0.00122 0.0
Mn649 Mn 0.71406 0.64423 0.98019 0.0
C650 C 0.72894 0.609 0.00231 0.0
C651 C 0.78813 0.61408 0.99961 0.0
C652 C 0.72882 0.65983 0.02035 0.0
O653 O 0.76686 0.65215 0.98324 0.0
O654 O 0.7371 0.66086 0.97058 0.0
C655 C 0.72313 0.63112 0.93885 0.0
N656 N 0.71082 0.63064 0.95499 0.0
C657 C 0.68717 0.60853 0.93775 0.0
C658 C 0.69953 0.60889 0.92089 0.0
C659 C 0.71762 0.62019 0.92148 0.0
C660 C 0.69346 0.6197 0.95464 0.0
H661 H 0.73706 0.63976 0.93926 0.0
C662 C 0.75614 0.66309 0.97231 0.0
O663 O 0.7845 0.62765 0.01314 0.0
O664 O 0.77401 0.6099 0.98668 0.0
N665 N 0.69023 0.62978 0.98786 0.0
C666 C 0.68018 0.63076 0.00549 0.0
C667 C 0.66179 0.62024 0.00743 0.0
C668 C 0.65381 0.60904 0.99116 0.0
C669 C 0.66423 0.60857 0.97305 0.0
C670 C 0.68241 0.6195 0.97196 0.0
H671 H 0.6862 0.63944 0.01801 0.0
O672 O 0.74331 0.60703 0.01515 0.0
O673 O 0.73157 0.62286 0.98907 0.0
O674 O 0.74504 0.65014 0.02045 0.0
O675 O 0.71598 0.6585 0.00617 0.0
C676 C 0.65744 0.59747 0.95613 0.0
C677 C 0.66895 0.59737 0.93853 0.0
H678 H 0.69535 0.60047 0.90747 0.0
H679 H 0.72729 0.62047 0.90856 0.0
H680 H 0.65382 0.62072 0.02144 0.0
H681 H 0.63972 0.60077 0.99278 0.0
H682 H 0.64351 0.58876 0.95658 0.0
H683 H 0.6637 0.58858 0.92569 0.0
Mn684 Mn 0.8737 0.00545 0.25629 0.0
Mn685 Mn 0.88585 0.95707 0.24928 0.0
C686 C 0.85279 0.98362 0.23816 0.0
C687 C 0.85753 0.03048 0.27419 0.0
C688 C 0.90522 0.99136 0.22653 0.0
O689 O 0.89485 0.00167 0.27792 0.0
O690 O 0.90083 0.96889 0.27255 0.0
C691 C 0.86842 0.94048 0.28626 0.0
N692 N 0.86948 0.94047 0.26597 0.0
C693 C 0.84474 0.91359 0.26315 0.0
C694 C 0.84348 0.91323 0.28402 0.0
C695 C 0.85535 0.92675 0.29562 0.0
C696 C 0.85811 0.92753 0.25466 0.0
H697 H 0.87745 0.9509 0.29524 0.0
C698 C 0.90362 0.9855 0.28227 0.0
O699 O 0.87223 0.0348 0.26223 0.0
O700 O 0.85308 0.01162 0.27657 0.0
N701 N 0.87208 0.94384 0.22741 0.0
C702 C 0.87436 0.94679 0.20746 0.0
C703 C 0.86317 0.93478 0.19379 0.0
C704 C 0.84985 0.91982 0.20074 0.0
C705 C 0.8479 0.91694 0.22132 0.0
C706 C 0.85957 0.92924 0.23424 0.0
H707 H 0.88454 0.95829 0.20203 0.0
O708 O 0.85199 0.0028 0.23557 0.0
O709 O 0.86589 0.97787 0.25106 0.0
O710 O 0.89525 0.0053 0.23468 0.0
O711 O 0.90306 0.9729 0.23109 0.0
C712 C 0.83457 0.90259 0.22954 0.0
C713 C 0.83297 0.90094 0.25043 0.0
H714 H 0.83333 0.90275 0.2913 0.0
H715 H 0.85439 0.92663 0.31173 0.0
H716 H 0.86474 0.93711 0.17792 0.0
H717 H 0.84108 0.91073 0.19015 0.0
H718 H 0.82526 0.89295 0.21992 0.0
H719 H 0.82246 0.89004 0.25657 0.0
Mn720 Mn 0.25672 0.12981 0.50309 0.0
Mn721 Mn 0.21523 0.14648 0.48024 0.0
C722 C 0.22769 0.11008 0.50228 0.0
C723 C 0.28721 0.11358 0.5028 0.0
C724 C 0.2288 0.16106 0.52121 0.0
O725 O 0.2679 0.15248 0.48605 0.0
O726 O 0.23932 0.16199 0.47139 0.0
C727 C 0.22471 0.13332 0.43902 0.0
N728 N 0.212 0.13329 0.45485 0.0
C729 C 0.18729 0.11344 0.43649 0.0
C730 C 0.20006 0.11335 0.41994 0.0
C731 C 0.21889 0.12326 0.42125 0.0
C732 C 0.19393 0.12368 0.45381 0.0
H733 H 0.23916 0.14099 0.43997 0.0
C734 C 0.25826 0.16359 0.47429 0.0
O735 O 0.28305 0.12686 0.51643 0.0
O736 O 0.27379 0.10999 0.489 0.0
N737 N 0.19062 0.13307 0.48721 0.0
C738 C 0.18054 0.13374 0.50484 0.0
C739 C 0.16168 0.12403 0.50625 0.0
C740 C 0.15323 0.11403 0.48946 0.0
C741 C 0.16375 0.11383 0.4714 0.0
C742 C 0.18251 0.12373 0.4709 0.0
H743 H 0.18691 0.14154 0.51774 0.0
O744 O 0.24134 0.10736 0.51572 0.0
O745 O 0.23144 0.12418 0.48949 0.0
O746 O 0.24417 0.1502 0.52227 0.0
O747 O 0.21695 0.16077 0.50621 0.0
C748 C 0.15651 0.10393 0.45396 0.0
C749 C 0.16832 0.10362 0.43655 0.0
H750 H 0.19563 0.10561 0.4062 0.0
H751 H 0.22886 0.12319 0.40856 0.0
H752 H 0.15364 0.12427 0.52024 0.0
H753 H 0.13873 0.10647 0.49064 0.0
H754 H 0.142 0.09623 0.45386 0.0
H755 H 0.16273 0.09567 0.42334 0.0
Mn756 Mn 0.37402 0.5076 0.75633 0.0
Mn757 Mn 0.38707 0.45936 0.74999 0.0
C758 C 0.35332 0.48511 0.73876 0.0
C759 C 0.35789 0.53289 0.77386 0.0
C760 C 0.40562 0.49363 0.72664 0.0
O761 O 0.39557 0.50453 0.77779 0.0
O762 O 0.40172 0.47168 0.77317 0.0
C763 C 0.36978 0.44281 0.78705 0.0
N764 N 0.37095 0.44262 0.76676 0.0
C765 C 0.34679 0.4152 0.76409 0.0
C766 C 0.34541 0.41504 0.78496 0.0
C767 C 0.35694 0.42892 0.79648 0.0
C768 C 0.35993 0.42932 0.75553 0.0
H769 H 0.37854 0.45352 0.79597 0.0
C770 C 0.40442 0.4885 0.78251 0.0
O771 O 0.37231 0.53697 0.76152 0.0
O772 O 0.35364 0.51407 0.77686 0.0
N773 N 0.37364 0.44568 0.72818 0.0
C774 C 0.37594 0.44848 0.70822 0.0
C775 C 0.36513 0.43607 0.6946 0.0
C776 C 0.35213 0.42086 0.70164 0.0
C777 C 0.35013 0.41816 0.72224 0.0
C778 C 0.36145 0.43086 0.7351 0.0
H779 H 0.38588 0.46016 0.70272 0.0
O780 O 0.35206 0.50423 0.73595 0.0
O781 O 0.36667 0.47981 0.75162 0.0
O782 O 0.39513 0.50739 0.73436 0.0
O783 O 0.40417 0.47527 0.73173 0.0
C784 C 0.33705 0.40362 0.73053 0.0
C785 C 0.33534 0.40218 0.75144 0.0
H786 H 0.33544 0.40444 0.79229 0.0
H787 H 0.35589 0.42896 0.81259 0.0
H788 H 0.36673 0.43827 0.67872 0.0
H789 H 0.34365 0.41146 0.69109 0.0
H790 H 0.328 0.39369 0.72096 0.0
H791 H 0.32501 0.39115 0.75762 0.0
Mn792 Mn 0.75406 0.37263 0.50753 0.0
Mn793 Mn 0.74988 0.38788 0.45999 0.0
C794 C 0.73643 0.3531 0.48419 0.0
C795 C 0.77068 0.35509 0.53205 0.0
C796 C 0.72589 0.40528 0.49417 0.0
O797 O 0.77643 0.39399 0.50564 0.0
O798 O 0.77316 0.40192 0.47323 0.0
C799 C 0.78718 0.37107 0.44388 0.0
N800 N 0.76687 0.37235 0.44325 0.0
C801 C 0.76453 0.3492 0.4153 0.0
C802 C 0.78543 0.34774 0.41558 0.0
C803 C 0.79679 0.3587 0.42995 0.0
C804 C 0.75579 0.36188 0.42947 0.0
H805 H 0.79597 0.37937 0.45497 0.0
C806 C 0.78203 0.40364 0.49022 0.0
O807 O 0.75868 0.36941 0.53671 0.0
O808 O 0.77367 0.35165 0.51321 0.0
N809 N 0.72814 0.37511 0.44547 0.0
C810 C 0.70807 0.37734 0.44791 0.0
C811 C 0.69457 0.36699 0.435 0.0
C812 C 0.70183 0.35453 0.41971 0.0
C813 C 0.72254 0.35258 0.4174 0.0
C814 C 0.73528 0.36343 0.43058 0.0
H815 H 0.7024 0.38684 0.45968 0.0
O816 O 0.73289 0.35105 0.50307 0.0
O817 O 0.74997 0.36657 0.47964 0.0
O818 O 0.73293 0.39426 0.50774 0.0
O819 O 0.73144 0.40432 0.47596 0.0
C820 C 0.73102 0.33998 0.40281 0.0
C821 C 0.752 0.33826 0.40179 0.0
H822 H 0.79289 0.3381 0.40496 0.0
H823 H 0.81292 0.35756 0.43033 0.0
H824 H 0.67861 0.36853 0.43691 0.0
H825 H 0.69137 0.34639 0.40993 0.0
H826 H 0.72154 0.33131 0.39251 0.0
H827 H 0.75832 0.32829 0.39071 0.0
Mn828 Mn 0.6359 0.00273 0.75277 0.0
Mn829 Mn 0.62105 0.05063 0.75046 0.0
C830 C 0.65548 0.02654 0.73673 0.0
C831 C 0.65305 0.97753 0.76862 0.0
C832 C 0.60342 0.01691 0.72436 0.0
O833 O 0.61447 0.00397 0.77438 0.0
O834 O 0.60705 0.03666 0.77254 0.0
C835 C 0.63827 0.06578 0.78882 0.0
N836 N 0.63679 0.06703 0.7686 0.0
C837 C 0.65989 0.09539 0.76827 0.0
C838 C 0.66157 0.09449 0.7891 0.0
C839 C 0.65073 0.0796 0.79941 0.0
C840 C 0.64715 0.08129 0.75853 0.0
H841 H 0.63005 0.0543 0.79679 0.0
C842 C 0.60498 0.01932 0.78036 0.0
O843 O 0.63879 0.97329 0.75586 0.0
O844 O 0.65667 0.99635 0.77283 0.0
N845 N 0.63364 0.06593 0.72986 0.0
C846 C 0.63102 0.06421 0.70971 0.0
C847 C 0.64112 0.07776 0.69719 0.0
C848 C 0.65369 0.09299 0.70549 0.0
C849 C 0.65597 0.0946 0.72628 0.0
C850 C 0.64536 0.08081 0.73802 0.0
H851 H 0.62139 0.05252 0.70324 0.0
O852 O 0.65742 0.00763 0.73261 0.0
O853 O 0.64224 0.03093 0.75014 0.0
O854 O 0.61445 0.00314 0.73088 0.0
O855 O 0.60438 0.03502 0.73094 0.0
C856 C 0.66865 0.10912 0.73578 0.0
C857 C 0.67065 0.10948 0.75675 0.0
H858 H 0.67126 0.10504 0.79731 0.0
H859 H 0.65203 0.07875 0.81547 0.0
H860 H 0.63929 0.0764 0.68116 0.0
H861 H 0.66164 0.10326 0.69577 0.0
H862 H 0.67716 0.1199 0.72707 0.0
H863 H 0.68065 0.12054 0.76386 0.0
Mn864 Mn 0.00462 0.25108 0.87319 0.0
Mn865 Mn 0.9567 0.2446 0.88797 0.0
C866 C 0.98173 0.23343 0.85316 0.0
C867 C 0.02949 0.26906 0.85633 0.0
C868 C 0.99106 0.22146 0.90505 0.0
O869 O 0.00197 0.27267 0.89498 0.0
O870 O 0.9692 0.26816 0.90225 0.0
C871 C 0.93987 0.28156 0.87171 0.0
N872 N 0.93978 0.26117 0.87263 0.0
C873 C 0.91223 0.25803 0.8494 0.0
C874 C 0.91195 0.279 0.8483 0.0
C875 C 0.92585 0.29081 0.85948 0.0
C876 C 0.92646 0.24966 0.86195 0.0
H877 H 0.95058 0.2907 0.8802 0.0
C878 C 0.98613 0.27756 0.90435 0.0
O879 O 0.03391 0.25674 0.87037 0.0
O880 O 0.01064 0.27167 0.85284 0.0
N881 N 0.94298 0.22245 0.87482 0.0
C882 C 0.94603 0.20244 0.87662 0.0
C883 C 0.93375 0.18855 0.86591 0.0
C884 C 0.91846 0.19537 0.8535 0.0
C885 C 0.91553 0.21603 0.85197 0.0
C886 C 0.92811 0.22915 0.86315 0.0
H887 H 0.9578 0.19711 0.88608 0.0
O888 O 0.00075 0.23056 0.85116 0.0
O889 O 0.97682 0.24626 0.86693 0.0
O890 O 0.00468 0.22907 0.89403 0.0
O891 O 0.97278 0.22654 0.90434 0.0
C892 C 0.90089 0.22411 0.8395 0.0
C893 C 0.89925 0.2451 0.8382 0.0
H894 H 0.90126 0.28619 0.83877 0.0
H895 H 0.9258 0.307 0.85863 0.0
H896 H 0.93613 0.17264 0.86713 0.0
H897 H 0.90916 0.18462 0.8451 0.0
H898 H 0.89102 0.21433 0.8306 0.0
H899 H 0.88813 0.25114 0.82833 0.0
Mn900 Mn 0.50617 0.75152 0.3729 0.0
Mn901 Mn 0.45867 0.74593 0.3894 0.0
C902 C 0.48228 0.73456 0.35358 0.0
C903 C 0.53116 0.76891 0.35564 0.0
C904 C 0.49289 0.72161 0.40478 0.0
O905 O 0.50477 0.77301 0.39486 0.0
O906 O 0.47244 0.76861 0.40401 0.0
C907 C 0.44268 0.78397 0.37477 0.0
N908 N 0.44185 0.76355 0.37518 0.0
C909 C 0.4135 0.76204 0.35284 0.0
C910 C 0.41398 0.78306 0.35229 0.0
C911 C 0.42865 0.79406 0.36328 0.0
C912 C 0.42777 0.75281 0.36468 0.0
H913 H 0.45401 0.79248 0.38309 0.0
C914 C 0.4896 0.77768 0.40536 0.0
O915 O 0.53545 0.75621 0.36937 0.0
O916 O 0.51234 0.77219 0.35259 0.0
N917 N 0.44368 0.72463 0.37621 0.0
C918 C 0.44597 0.70445 0.37748 0.0
C919 C 0.43278 0.69129 0.36694 0.0
C920 C 0.41737 0.699 0.35526 0.0
C921 C 0.41523 0.71982 0.3543 0.0
C922 C 0.42868 0.7322 0.36531 0.0
H923 H 0.45783 0.69844 0.38637 0.0
O924 O 0.50114 0.73126 0.35093 0.0
O925 O 0.47803 0.74748 0.36755 0.0
O926 O 0.50631 0.72934 0.39359 0.0
O927 O 0.47466 0.72688 0.40462 0.0
C928 C 0.40054 0.72879 0.34253 0.0
C929 C 0.3997 0.74988 0.34177 0.0
H930 H 0.40328 0.7909 0.34333 0.0
H931 H 0.42918 0.81029 0.36284 0.0
H932 H 0.43456 0.67524 0.36772 0.0
H933 H 0.40738 0.68881 0.34697 0.0
H934 H 0.39002 0.7196 0.33376 0.0
H935 H 0.38853 0.75659 0.33244 0.0
Mn936 Mn 0.0046 0.75321 0.62919 0.0
Mn937 Mn 0.98303 0.70899 0.64264 0.0
C938 C 0.00795 0.72483 0.60919 0.0
C939 C 0.00341 0.7841 0.61343 0.0
C940 C 0.02138 0.72608 0.66136 0.0
O941 O 0.98451 0.76176 0.65035 0.0
O942 O 0.97025 0.73159 0.65682 0.0
C943 C 0.94315 0.71475 0.62449 0.0
N944 N 0.95984 0.70367 0.62637 0.0
C945 C 0.94659 0.6784 0.60345 0.0
C946 C 0.92921 0.68949 0.60135 0.0
C947 C 0.92752 0.70778 0.61187 0.0
C948 C 0.96172 0.68617 0.61615 0.0
H949 H 0.9418 0.72881 0.63256 0.0
C950 C 0.97168 0.75066 0.65937 0.0
O951 O 0.01602 0.78105 0.62777 0.0
O952 O 0.99114 0.76934 0.60855 0.0
N953 N 0.99364 0.68557 0.63015 0.0
C954 C 0.01143 0.67675 0.63373 0.0
C955 C 0.01541 0.65822 0.62451 0.0
C956 C 0.00099 0.64882 0.61192 0.0
C957 C 0.98269 0.65804 0.60866 0.0
C958 C 0.97949 0.67642 0.6184 0.0
H959 H 0.0225 0.68379 0.64356 0.0
O960 O 0.02059 0.73987 0.60775 0.0
O961 O 0.99365 0.72691 0.62206 0.0
O962 O 0.02253 0.74182 0.65082 0.0
O963 O 0.00709 0.71298 0.65974 0.0
C964 C 0.96756 0.64979 0.59602 0.0
C965 C 0.94957 0.66002 0.59332 0.0
H966 H 0.9171 0.68415 0.59165 0.0
H967 H 0.91418 0.71646 0.61027 0.0
H968 H 0.02955 0.65117 0.62715 0.0
H969 H 0.00412 0.63454 0.60482 0.0
H970 H 0.96969 0.63569 0.58814 0.0
H971 H 0.93814 0.65364 0.58339 0.0
Mn972 Mn 0.50917 0.25329 0.12993 0.0
Mn973 Mn 0.48397 0.21131 0.14404 0.0
C974 C 0.51072 0.22437 0.1105 0.0
C975 C 0.50961 0.28399 0.11375 0.0
C976 C 0.52293 0.22649 0.16338 0.0
O977 O 0.48998 0.26341 0.15125 0.0
O978 O 0.47128 0.23521 0.15605 0.0
C979 C 0.44575 0.21766 0.12286 0.0
N980 N 0.46171 0.206 0.12653 0.0
C981 C 0.44904 0.18017 0.1039 0.0
C982 C 0.43234 0.19181 0.10005 0.0
C983 C 0.43074 0.21067 0.10952 0.0
C984 C 0.46352 0.18794 0.11733 0.0
H985 H 0.44454 0.23222 0.13 0.0
C986 C 0.47508 0.25398 0.15894 0.0
O987 O 0.52231 0.28035 0.12787 0.0
O988 O 0.49639 0.26994 0.10933 0.0
N989 N 0.4944 0.18689 0.13346 0.0
C990 C 0.51166 0.17773 0.13844 0.0
C991 C 0.51565 0.15878 0.13013 0.0
C992 C 0.50177 0.14935 0.11697 0.0
C993 C 0.48396 0.15891 0.11231 0.0
C994 C 0.48072 0.1777 0.1212 0.0
H995 H 0.52234 0.18481 0.14866 0.0
O996 O 0.52411 0.23868 0.10857 0.0
O997 O 0.49658 0.22766 0.1233 0.0
O998 O 0.52637 0.24086 0.15145 0.0
O999 O 0.50705 0.21529 0.1626 0.0
C1000 C 0.46942 0.15065 0.099 0.0
C1001 C 0.45202 0.16132 0.09472 0.0
H1002 H 0.42075 0.18649 0.08973 0.0
H1003 H 0.41797 0.2198 0.1065 0.0
H1004 H 0.5294 0.15147 0.13384 0.0
H1005 H 0.50498 0.13482 0.11044 0.0
H1006 H 0.4716 0.13621 0.09178 0.0
H1007 H 0.44108 0.15493 0.08427 0.0
H1008 H 0.24024 0.76385 0.89031 0.0
H1009 H 0.19824 0.83945 0.97346 0.0
H1010 H 0.17753 0.76614 0.90516 0.0
H1011 H 0.26068 0.83331 0.95952 0.0
H1012 H 0.18977 0.81303 0.94841 0.0
H1013 H 0.24756 0.79002 0.91529 0.0
C1014 C 0.22801 0.76975 0.89898 0.0
C1015 C 0.20827 0.76265 0.89578 0.0
C1016 C 0.20531 0.81753 0.95079 0.0
C1017 C 0.21652 0.79283 0.92441 0.0
C1018 C 0.21009 0.83256 0.96501 0.0
C1019 C 0.23007 0.83892 0.96788 0.0
C1020 C 0.22072 0.80865 0.93981 0.0
C1021 C 0.24502 0.82926 0.95714 0.0
C1022 C 0.23218 0.78478 0.91319 0.0
C1023 C 0.19296 0.77123 0.90711 0.0
N1024 N 0.24004 0.8147 0.94349 0.0
N1025 N 0.19741 0.78585 0.92099 0.0
H1026 H 0.0338 0.55092 0.37809 0.0
H1027 H 0.10122 0.48607 0.30411 0.0
H1028 H 0.04478 0.48834 0.38751 0.0
H1029 H 0.08484 0.54739 0.29447 0.0
H1030 H 0.08038 0.48577 0.33419 0.0
H1031 H 0.05236 0.54919 0.347 0.0
C1032 C 0.04021 0.5368 0.37362 0.0
C1033 C 0.03792 0.5198 0.38552 0.0
C1034 C 0.08132 0.49921 0.32538 0.0
C1035 C 0.05917 0.51762 0.34969 0.0
C1036 C 0.09319 0.4994 0.30819 0.0
C1037 C 0.09492 0.51681 0.29671 0.0
C1038 C 0.07116 0.51656 0.3311 0.0
C1039 C 0.08414 0.53362 0.30279 0.0
C1040 C 0.05073 0.53577 0.35578 0.0
C1041 C 0.04618 0.50178 0.37875 0.0
N1042 N 0.07285 0.53308 0.31954 0.0
N1043 N 0.05658 0.50118 0.36132 0.0
H1044 H 0.82054 0.73244 0.88501 0.0
H1045 H 0.74033 0.699 0.96397 0.0
H1046 H 0.78535 0.77514 0.91781 0.0
H1047 H 0.79376 0.66502 0.95571 0.0
H1048 H 0.75537 0.7261 0.94461 0.0
H1049 H 0.81046 0.70665 0.90878 0.0
C1050 C 0.81097 0.73654 0.89733 0.0
C1051 C 0.80357 0.75603 0.89916 0.0
C1052 C 0.76389 0.71279 0.94715 0.0
C1053 C 0.79164 0.72638 0.92606 0.0
C1054 C 0.75527 0.69727 0.95807 0.0
C1055 C 0.7658 0.67972 0.96134 0.0
C1056 C 0.78303 0.71063 0.93901 0.0
C1057 C 0.78519 0.67834 0.95353 0.0
C1058 C 0.80517 0.72175 0.91083 0.0
C1059 C 0.791 0.76025 0.91537 0.0
N1060 N 0.79312 0.69352 0.94243 0.0
N1061 N 0.78521 0.7455 0.92799 0.0
H1062 H 0.97432 0.01312 0.38955 0.0
H1063 H 0.92362 0.95363 0.29673 0.0
H1064 H 0.9751 0.94888 0.38069 0.0
H1065 H 0.91455 0.01668 0.30825 0.0
H1066 H 0.94454 0.9526 0.32633 0.0
H1067 H 0.95437 0.01559 0.35889 0.0
C1068 C 0.97036 0.99955 0.38113 0.0
C1069 C 0.97632 0.98074 0.38775 0.0
C1070 C 0.93803 0.9667 0.32243 0.0
C1071 C 0.95353 0.98347 0.35273 0.0
C1072 C 0.92607 0.96735 0.30541 0.0
C1073 C 0.91718 0.9853 0.29989 0.0
C1074 C 0.9413 0.98411 0.33418 0.0
C1075 C 0.92103 0.00251 0.3119 0.0
C1076 C 0.9589 0.00097 0.3637 0.0
C1077 C 0.97061 0.96366 0.37634 0.0
N1078 N 0.93279 0.00148 0.32851 0.0
N1079 N 0.95959 0.96545 0.35943 0.0
H1080 H 0.1958 0.26513 0.59087 0.0
H1081 H 0.24373 0.16108 0.55953 0.0
H1082 H 0.21581 0.22303 0.63429 0.0
H1083 H 0.20436 0.19326 0.52098 0.0
H1084 H 0.23687 0.18514 0.58657 0.0
H1085 H 0.2022 0.24048 0.56431 0.0
C1086 C 0.20159 0.2507 0.59478 0.0
C1087 C 0.20527 0.24607 0.61477 0.0
C1088 C 0.2297 0.18684 0.57219 0.0
C1089 C 0.2127 0.21787 0.58452 0.0
C1090 C 0.23366 0.17317 0.55674 0.0
C1091 C 0.22461 0.17513 0.53794 0.0
C1092 C 0.21686 0.20274 0.56872 0.0
C1093 C 0.21162 0.19107 0.53523 0.0
C1094 C 0.20513 0.23661 0.57966 0.0
C1095 C 0.21262 0.2271 0.61906 0.0
N1096 N 0.20825 0.20432 0.55039 0.0
N1097 N 0.21622 0.21371 0.60404 0.0
H1098 H 0.50429 0.50078 0.64312 0.0
H1099 H 0.406 0.52735 0.70389 0.0
H1100 H 0.45948 0.54023 0.62074 0.0
H1101 H 0.43718 0.47227 0.71231 0.0
H1102 H 0.42847 0.53544 0.6763 0.0
H1103 H 0.48249 0.49295 0.67127 0.0
C1104 C 0.48986 0.50772 0.64398 0.0
C1105 C 0.48378 0.52119 0.62936 0.0
C1106 C 0.43039 0.5216 0.68422 0.0
C1107 C 0.45899 0.51262 0.66195 0.0
C1108 C 0.41765 0.51701 0.70005 0.0
C1109 C 0.41968 0.49907 0.71045 0.0
C1110 C 0.44547 0.50832 0.6789 0.0
C1111 C 0.435 0.48621 0.70468 0.0
C1112 C 0.47748 0.50331 0.66016 0.0
C1113 C 0.46505 0.53004 0.63171 0.0
N1114 N 0.44736 0.49112 0.68934 0.0
N1115 N 0.45339 0.52566 0.6477 0.0
H1116 H 0.80478 0.24777 0.5906 0.0
H1117 H 0.76844 0.35885 0.57285 0.0
H1118 H 0.79904 0.29107 0.63869 0.0
H1119 H 0.79121 0.32078 0.52591 0.0
H1120 H 0.77868 0.33426 0.59739 0.0
H1121 H 0.79838 0.27412 0.56665 0.0
C1122 C 0.80213 0.26284 0.5961 0.0
C1123 C 0.80237 0.26725 0.61663 0.0
C1124 C 0.78162 0.33142 0.58173 0.0
C1125 C 0.79507 0.29749 0.58936 0.0
C1126 C 0.7758 0.34545 0.56773 0.0
C1127 C 0.77891 0.34182 0.5473 0.0
C1128 C 0.79034 0.31355 0.5752 0.0
C1129 C 0.78849 0.3242 0.54149 0.0
C1130 C 0.79862 0.2779 0.58244 0.0
C1131 C 0.79909 0.28708 0.62296 0.0
N1132 N 0.79367 0.31063 0.55535 0.0
N1133 N 0.79542 0.30145 0.60938 0.0
H1134 H 0.55094 0.97029 0.61452 0.0
H1135 H 0.572 0.03882 0.71122 0.0
H1136 H 0.5086 0.01293 0.63685 0.0
H1137 H 0.60274 0.98376 0.69949 0.0
H1138 H 0.54996 0.03112 0.68273 0.0
H1139 H 0.57141 0.97646 0.64434 0.0
C1140 C 0.5458 0.98081 0.62573 0.0
C1141 C 0.52791 0.99107 0.62307 0.0
C1142 C 0.56146 0.02068 0.68649 0.0
C1143 C 0.55164 0.99851 0.65714 0.0
C1144 C 0.57409 0.02507 0.70272 0.0
C1145 C 0.58929 0.01192 0.70778 0.0
C1146 C 0.56419 0.00315 0.67503 0.0
C1147 C 0.59121 0.99431 0.69621 0.0
C1148 C 0.55759 0.98439 0.64273 0.0
C1149 C 0.52239 0.00489 0.63801 0.0
N1150 N 0.57891 0.99052 0.68029 0.0
N1151 N 0.53425 0.00827 0.65434 0.0
H1152 H 0.90723 0.174 0.76223 0.0
H1153 H 0.95974 0.25887 0.83221 0.0
H1154 H 0.8949 0.23712 0.75996 0.0
H1155 H 0.9737 0.19637 0.83595 0.0
H1156 H 0.93659 0.2508 0.80485 0.0
H1157 H 0.93188 0.18135 0.78878 0.0
C1158 C 0.9097 0.18939 0.7673 0.0
C1159 C 0.89905 0.20499 0.75877 0.0
C1160 C 0.94462 0.23876 0.81159 0.0
C1161 C 0.92728 0.21349 0.78896 0.0
C1162 C 0.95774 0.24337 0.82728 0.0
C1163 C 0.96799 0.22813 0.83665 0.0
C1164 C 0.94185 0.21873 0.8051 0.0
C1165 C 0.9656 0.20842 0.82929 0.0
C1166 C 0.92383 0.19357 0.78237 0.0
C1167 C 0.90298 0.22465 0.76581 0.0
N1168 N 0.95254 0.2042 0.81402 0.0
N1169 N 0.91673 0.22831 0.78048 0.0
H1170 H 0.49664 0.89953 0.45031 0.0
H1171 H 0.4692 0.78336 0.43994 0.0
H1172 H 0.47351 0.86484 0.49925 0.0
H1173 H 0.51323 0.81183 0.40207 0.0
H1174 H 0.46895 0.8137 0.46087 0.0
H1175 H 0.50099 0.86829 0.43104 0.0
C1176 C 0.49248 0.88533 0.45697 0.0
C1177 C 0.48467 0.88472 0.47636 0.0
C1178 C 0.47883 0.81326 0.44811 0.0
C1179 C 0.48954 0.84909 0.45449 0.0
C1180 C 0.47896 0.79597 0.43614 0.0
C1181 C 0.49125 0.79511 0.41925 0.0
C1182 C 0.49076 0.83002 0.44294 0.0
C1183 C 0.50364 0.81185 0.41504 0.0
C1184 C 0.49511 0.86755 0.44606 0.0
C1185 C 0.4797 0.86595 0.48439 0.0
N1186 N 0.50288 0.82877 0.42667 0.0
N1187 N 0.48204 0.8489 0.47336 0.0
H1188 H 0.09108 0.302 0.74924 0.0
H1189 H 0.0703 0.26832 0.86079 0.0
H1190 H 0.1381 0.29882 0.79332 0.0
H1191 H 0.0241 0.28912 0.82165 0.0
H1192 H 0.09552 0.27875 0.83636 0.0
H1193 H 0.06627 0.29599 0.77538 0.0
C1194 C 0.09616 0.29999 0.76443 0.0
C1195 C 0.11665 0.30084 0.76913 0.0
C1196 C 0.07987 0.28124 0.83325 0.0
C1197 C 0.0884 0.294 0.79912 0.0
C1198 C 0.06548 0.27532 0.84719 0.0
C1199 C 0.04507 0.27778 0.84321 0.0
C1200 C 0.07377 0.28939 0.81509 0.0
C1201 C 0.03967 0.28692 0.82534 0.0
C1202 C 0.08201 0.29672 0.77937 0.0
C1203 C 0.12242 0.29839 0.78909 0.0
N1204 N 0.05391 0.29218 0.81184 0.0
N1205 N 0.10838 0.29492 0.80334 0.0
H1206 H 0.50337 0.64175 0.50453 0.0
H1207 H 0.52629 0.69868 0.40321 0.0
H1208 H 0.54207 0.61803 0.45888 0.0
H1209 H 0.47267 0.70785 0.43756 0.0
H1210 H 0.53528 0.6719 0.42578 0.0
H1211 H 0.49475 0.66879 0.48227 0.0
C1212 C 0.51 0.64209 0.48982 0.0
C1213 C 0.52344 0.62739 0.48363 0.0
C1214 C 0.52155 0.67979 0.42834 0.0
C1215 C 0.51392 0.65874 0.45824 0.0
C1216 C 0.51644 0.69514 0.41553 0.0
C1217 C 0.49867 0.70554 0.41847 0.0
C1218 C 0.50898 0.67498 0.44439 0.0
C1219 C 0.48646 0.70019 0.43465 0.0
C1220 C 0.50512 0.65764 0.47717 0.0
C1221 C 0.53189 0.62909 0.46451 0.0
N1222 N 0.49189 0.68535 0.44706 0.0
N1223 N 0.52703 0.64448 0.45254 0.0
H1224 H 0.90272 0.82956 0.73678 0.0
H1225 H 0.94255 0.73158 0.68092 0.0
H1226 H 0.88684 0.76863 0.75227 0.0
H1227 H 0.96857 0.7906 0.67079 0.0
H1228 H 0.92015 0.74597 0.70519 0.0
H1229 H 0.92513 0.8166 0.71082 0.0
C1230 C 0.90393 0.8135 0.7347 0.0
C1231 C 0.89304 0.80015 0.74682 0.0
C1232 C 0.93075 0.75585 0.69772 0.0
C1233 C 0.91845 0.7853 0.71724 0.0
C1234 C 0.94361 0.74763 0.68376 0.0
C1235 C 0.95767 0.75985 0.67379 0.0
C1236 C 0.93174 0.77655 0.70188 0.0
C1237 C 0.95806 0.78057 0.67815 0.0
C1238 C 0.91675 0.80613 0.71997 0.0
C1239 C 0.89519 0.77949 0.74354 0.0
N1240 N 0.94528 0.78829 0.69192 0.0
N1241 N 0.90758 0.77275 0.7291 0.0
H1242 H 0.99835 0.87094 0.5197 0.0
H1243 H 0.02482 0.81874 0.6224 0.0
H1244 H 0.02927 0.90203 0.56838 0.0
H1245 H 0.98307 0.79276 0.57921 0.0
H1246 H 0.02707 0.84922 0.60266 0.0
H1247 H 0.99286 0.84208 0.54108 0.0
C1248 C 0.0038 0.87184 0.53494 0.0
C1249 C 0.01435 0.88904 0.54216 0.0
C1250 C 0.0173 0.83691 0.59757 0.0
C1251 C 0.00842 0.85573 0.56667 0.0
C1252 C 0.01602 0.81949 0.60883 0.0
C1253 C 0.00378 0.80315 0.60242 0.0
C1254 C 0.00642 0.83794 0.57964 0.0
C1255 C 0.99269 0.80499 0.58472 0.0
C1256 C 0.00075 0.85526 0.54712 0.0
C1257 C 0.02138 0.88903 0.56198 0.0
N1258 N 0.9944 0.822 0.57388 0.0
N1259 N 0.01838 0.87262 0.57347 0.0
H1260 H 0.10403 0.67346 0.74443 0.0
H1261 H 0.05216 0.75195 0.67293 0.0
H1262 H 0.12231 0.73593 0.74144 0.0
H1263 H 0.02784 0.69228 0.68308 0.0
H1264 H 0.07906 0.74573 0.69658 0.0
H1265 H 0.07728 0.67938 0.72033 0.0
C1266 C 0.10249 0.68839 0.73861 0.0
C1267 C 0.1154 0.70423 0.745 0.0
C1268 C 0.06782 0.73401 0.69366 0.0
C1269 C 0.08476 0.71115 0.71751 0.0
C1270 C 0.05243 0.73753 0.68012 0.0
C1271 C 0.03763 0.72263 0.67597 0.0
C1272 C 0.06855 0.71539 0.70308 0.0
C1273 C 0.03884 0.70426 0.68581 0.0
C1274 C 0.08714 0.69179 0.72496 0.0
C1275 C 0.11256 0.72333 0.73713 0.0
N1276 N 0.05405 0.70115 0.69885 0.0
N1277 N 0.09758 0.72624 0.72379 0.0
H1278 H 0.01996 0.60937 0.55368 0.0
H1279 H 0.97783 0.7147 0.58356 0.0
H1280 H 0.97839 0.63911 0.51565 0.0
H1281 H 0.03762 0.69885 0.6002 0.0
H1282 H 0.97628 0.68621 0.5599 0.0
H1283 H 0.02529 0.64085 0.5729 0.0
C1284 C 0.01196 0.62256 0.54946 0.0
C1285 C 0.9987 0.62179 0.53319 0.0
C1286 C 0.98983 0.68907 0.56856 0.0
C1287 C 0.00442 0.65749 0.55509 0.0
C1288 C 0.99064 0.70517 0.58212 0.0
C1289 C 0.00763 0.70855 0.59415 0.0
C1290 C 0.00602 0.67615 0.56733 0.0
C1291 C 0.02411 0.69632 0.59142 0.0
C1292 C 0.01508 0.64048 0.56029 0.0
C1293 C 0.98874 0.63922 0.52813 0.0
N1294 N 0.02275 0.68029 0.57857 0.0
N1295 N 0.9916 0.65633 0.53922 0.0
H1296 H 0.76495 0.90876 0.174 0.0
H1297 H 0.8293 0.96145 0.26225 0.0
H1298 H 0.7544 0.89945 0.23671 0.0
H1299 H 0.83706 0.97711 0.20063 0.0
H1300 H 0.80131 0.93898 0.25273 0.0
H1301 H 0.79133 0.93376 0.18285 0.0
C1302 C 0.76813 0.91201 0.18961 0.0
C1303 C 0.75737 0.90206 0.20464 0.0
C1304 C 0.80904 0.94729 0.2412 0.0
C1305 C 0.78737 0.93064 0.21483 0.0
C1306 C 0.82509 0.95999 0.24664 0.0
C1307 C 0.83578 0.97048 0.23207 0.0
C1308 C 0.8036 0.94509 0.22099 0.0
C1309 C 0.82936 0.9688 0.21217 0.0
C1310 C 0.7831 0.92634 0.19464 0.0
C1311 C 0.76203 0.90696 0.22461 0.0
N1312 N 0.81379 0.95605 0.20712 0.0
N1313 N 0.77669 0.92082 0.22909 0.0
H1314 H 0.75056 0.09136 0.30541 0.0
H1315 H 0.8627 0.0714 0.27222 0.0
H1316 H 0.79491 0.13916 0.29942 0.0
H1317 H 0.8226 0.02525 0.29465 0.0
H1318 H 0.83837 0.09664 0.28173 0.0
H1319 H 0.77673 0.06688 0.30041 0.0
C1320 C 0.76582 0.09669 0.30298 0.0
C1321 C 0.77057 0.1173 0.30275 0.0
C1322 C 0.83503 0.081 0.28478 0.0
C1323 C 0.80063 0.0894 0.29708 0.0
C1324 C 0.84893 0.06661 0.27941 0.0
C1325 C 0.84464 0.04618 0.28255 0.0
C1326 C 0.81662 0.07488 0.29311 0.0
C1327 C 0.82654 0.04082 0.29189 0.0
C1328 C 0.78078 0.08272 0.30029 0.0
C1329 C 0.79063 0.12339 0.29981 0.0
N1330 N 0.81311 0.05504 0.29661 0.0
N1331 N 0.80491 0.1095 0.29693 0.0
H1332 H 0.40513 0.94393 0.00427 0.0
H1333 H 0.29058 0.93914 0.97369 0.0
H1334 H 0.37372 0.99644 0.98665 0.0
H1335 H 0.31417 0.89852 0.01674 0.0
H1336 H 0.32188 0.95902 0.97567 0.0
H1337 H 0.37287 0.92538 0.00633 0.0
C1338 C 0.39143 0.95153 0.00089 0.0
C1339 C 0.39202 0.97171 0.9953 0.0
C1340 C 0.32014 0.94587 0.98483 0.0
C1341 C 0.35532 0.95065 0.9974 0.0
C1342 C 0.30232 0.93449 0.98367 0.0
C1343 C 0.2998 0.91718 0.99508 0.0
C1344 C 0.33575 0.93964 0.99713 0.0
C1345 C 0.31547 0.91185 0.0078 0.0
C1346 C 0.37309 0.94101 0.00218 0.0
C1347 C 0.37388 0.98093 0.99116 0.0
N1348 N 0.33293 0.92291 0.00829 0.0
N1349 N 0.35628 0.97027 0.99208 0.0
H1350 H 0.21806 0.3673 0.29617 0.0
H1351 H 0.19045 0.48303 0.29053 0.0
H1352 H 0.26119 0.41628 0.30366 0.0
H1353 H 0.15265 0.43526 0.26551 0.0
H1354 H 0.21435 0.45823 0.30098 0.0
H1355 H 0.19195 0.3916 0.29002 0.0
C1356 C 0.22199 0.38317 0.29665 0.0
C1357 C 0.24182 0.38981 0.30032 0.0
C1358 C 0.20077 0.45316 0.29332 0.0
C1359 C 0.2121 0.41761 0.29341 0.0
C1360 C 0.18704 0.46729 0.28745 0.0
C1361 C 0.16957 0.46121 0.27701 0.0
C1362 C 0.19698 0.43275 0.28886 0.0
C1363 C 0.16597 0.44061 0.27344 0.0
C1364 C 0.20712 0.397 0.29306 0.0
C1365 C 0.24614 0.41053 0.30064 0.0
N1366 N 0.17961 0.4271 0.27929 0.0
N1367 N 0.2314 0.42369 0.29726 0.0
H1368 H 0.12666 0.04113 0.45689 0.0
H1369 H 0.20323 0.09562 0.53139 0.0
H1370 H 0.13341 0.02125 0.51762 0.0
H1371 H 0.21524 0.09021 0.46846 0.0
H1372 H 0.17506 0.07131 0.52724 0.0
H1373 H 0.15697 0.06181 0.46105 0.0
C1374 C 0.13443 0.04089 0.47108 0.0
C1375 C 0.12718 0.02915 0.4869 0.0
C1376 C 0.18387 0.07547 0.51435 0.0
C1377 C 0.16149 0.05404 0.49199 0.0
C1378 C 0.19981 0.08935 0.5167 0.0
C1379 C 0.21084 0.0955 0.50005 0.0
C1380 C 0.17911 0.06769 0.49525 0.0
C1381 C 0.20639 0.08651 0.48145 0.0
C1382 C 0.15168 0.05299 0.47347 0.0
C1383 C 0.13791 0.03025 0.50507 0.0
N1384 N 0.19063 0.07326 0.47946 0.0
N1385 N 0.15435 0.04263 0.50717 0.0
H1386 H 0.74805 0.11875 0.73727 0.0
H1387 H 0.66842 0.0343 0.69893 0.0
H1388 H 0.73902 0.1038 0.6749 0.0
H1389 H 0.67865 0.05051 0.76071 0.0
H1390 H 0.69455 0.05905 0.6894 0.0
H1391 H 0.72254 0.09359 0.74583 0.0
C1392 C 0.74078 0.11004 0.72536 0.0
C1393 C 0.74582 0.11324 0.70535 0.0
C1394 C 0.69104 0.05723 0.70503 0.0
C1395 C 0.71643 0.08435 0.71504 0.0
C1396 C 0.67618 0.04316 0.71042 0.0
C1397 C 0.67101 0.04108 0.73051 0.0
C1398 C 0.70097 0.06885 0.71996 0.0
C1399 C 0.68178 0.05231 0.74499 0.0
C1400 C 0.72614 0.09571 0.73025 0.0
C1401 C 0.73555 0.10184 0.69052 0.0
N1402 N 0.69617 0.06582 0.73943 0.0
N1403 N 0.72138 0.08782 0.69566 0.0
H1404 H 0.38567 0.03353 0.48133 0.0
H1405 H 0.31589 0.11553 0.53197 0.0
H1406 H 0.39052 0.05303 0.54302 0.0
H1407 H 0.30126 0.08598 0.47573 0.0
H1408 H 0.3458 0.09554 0.53436 0.0
H1409 H 0.35687 0.05504 0.47736 0.0
C1410 C 0.38071 0.04226 0.49406 0.0
C1411 C 0.39066 0.04141 0.51255 0.0
C1412 C 0.33609 0.09344 0.52146 0.0
C1413 C 0.35786 0.06632 0.50797 0.0
C1414 C 0.31903 0.10491 0.52004 0.0
C1415 C 0.306 0.10237 0.50365 0.0
C1416 C 0.34028 0.07935 0.50633 0.0
C1417 C 0.31086 0.08838 0.48865 0.0
C1418 C 0.36431 0.05461 0.49173 0.0
C1419 C 0.38366 0.05339 0.52838 0.0
N1420 N 0.32762 0.07736 0.49036 0.0
N1421 N 0.36775 0.06531 0.52571 0.0
H1422 H 0.62757 0.48694 0.49043 0.0
H1423 H 0.71092 0.41395 0.5314 0.0
H1424 H 0.63722 0.47628 0.55306 0.0
H1425 H 0.7044 0.42895 0.4693 0.0
H1426 H 0.68388 0.43651 0.53967 0.0
H1427 H 0.65565 0.46565 0.48247 0.0
C1428 C 0.63567 0.48026 0.50254 0.0
C1429 C 0.62998 0.48346 0.52247 0.0
C1430 C 0.68842 0.43491 0.52425 0.0
C1431 C 0.66208 0.45877 0.5134 0.0
C1432 C 0.70388 0.422 0.51949 0.0
C1433 C 0.71 0.41948 0.4996 0.0
C1434 C 0.67892 0.44533 0.50901 0.0
C1435 C 0.70027 0.43039 0.48485 0.0
C1436 C 0.65166 0.46799 0.49797 0.0
C1437 C 0.64086 0.47405 0.53747 0.0
N1438 N 0.6852 0.44276 0.48985 0.0
N1439 N 0.65636 0.46213 0.53263 0.0
H1440 H 0.7402 0.26245 0.39208 0.0
H1441 H 0.69875 0.33756 0.47588 0.0
H1442 H 0.67765 0.26382 0.4078 0.0
H1443 H 0.76107 0.33118 0.46156 0.0
H1444 H 0.69008 0.31067 0.45135 0.0
H1445 H 0.74759 0.28818 0.4174 0.0
C1446 C 0.72802 0.26805 0.40101 0.0
C1447 C 0.7083 0.26079 0.39796 0.0
C1448 C 0.70564 0.31518 0.45359 0.0
C1449 C 0.71666 0.29051 0.42704 0.0
C1450 C 0.71054 0.33046 0.46752 0.0
C1451 C 0.73053 0.33693 0.47005 0.0
C1452 C 0.72097 0.3062 0.44254 0.0
C1453 C 0.7454 0.32702 0.45943 0.0
C1454 C 0.73224 0.28283 0.41545 0.0
C1455 C 0.69306 0.26903 0.40964 0.0
N1456 N 0.74031 0.31227 0.44604 0.0
N1457 N 0.69756 0.28344 0.42373 0.0
H1458 H 0.54245 0.98548 0.88938 0.0
H1459 H 0.57944 0.04739 0.79443 0.0
H1460 H 0.53031 0.04766 0.87909 0.0
H1461 H 0.59913 0.9875 0.8059 0.0
H1462 H 0.55865 0.04588 0.82391 0.0
H1463 H 0.5606 0.98417 0.85753 0.0
C1464 C 0.54349 0.99878 0.88036 0.0
C1465 C 0.53506 0.01677 0.88697 0.0
C1466 C 0.56744 0.033 0.82003 0.0
C1467 C 0.55568 0.01539 0.85069 0.0
C1468 C 0.57938 0.03383 0.8031 0.0
C1469 C 0.59126 0.0176 0.79766 0.0
C1470 C 0.56729 0.01583 0.83183 0.0
C1471 C 0.59028 0.00041 0.80952 0.0
C1472 C 0.5539 0.99805 0.86227 0.0
C1473 C 0.53688 0.03358 0.87476 0.0
N1474 N 0.57859 1.00001 0.82615 0.0
N1475 N 0.54699 0.03247 0.8573 0.0
H1476 H 0.32196 0.2268 0.38275 0.0
H1477 H 0.24574 0.2011 0.46769 0.0
H1478 H 0.29314 0.27277 0.41753 0.0
H1479 H 0.29513 0.16233 0.45626 0.0
H1480 H 0.26204 0.22693 0.44758 0.0
H1481 H 0.31229 0.20226 0.40804 0.0
C1482 C 0.31392 0.23185 0.39581 0.0
C1483 C 0.30802 0.25187 0.39777 0.0
C1484 C 0.26946 0.21288 0.44963 0.0
C1485 C 0.29662 0.22378 0.42644 0.0
C1486 C 0.26012 0.19811 0.46101 0.0
C1487 C 0.26912 0.1796 0.46355 0.0
C1488 C 0.28771 0.20895 0.44025 0.0
C1489 C 0.2878 0.17649 0.45467 0.0
C1490 C 0.30836 0.2178 0.41019 0.0
C1491 C 0.29748 0.25742 0.41501 0.0
N1492 N 0.29637 0.19094 0.44308 0.0
N1493 N 0.29185 0.24341 0.42847 0.0
H1494 H 0.47168 0.51612 0.89209 0.0
H1495 H 0.42637 0.4576 0.79608 0.0
H1496 H 0.47616 0.4525 0.88077 0.0
H1497 H 0.41337 0.51949 0.80949 0.0
H1498 H 0.44684 0.45675 0.82595 0.0
H1499 H 0.45233 0.51878 0.86105 0.0
C1500 C 0.46865 0.50273 0.88306 0.0
C1501 C 0.47547 0.48402 0.8891 0.0
C1502 C 0.43957 0.47057 0.82242 0.0
C1503 C 0.4534 0.48698 0.85365 0.0
C1504 C 0.42785 0.47111 0.80524 0.0
C1505 C 0.41796 0.48865 0.80018 0.0
C1506 C 0.44159 0.48767 0.83483 0.0
C1507 C 0.42066 0.50563 0.81277 0.0
C1508 C 0.45754 0.50426 0.86541 0.0
C1509 C 0.47096 0.46716 0.8769 0.0
N1510 N 0.43218 0.50471 0.82956 0.0
N1511 N 0.46028 0.46906 0.8598 0.0
H1512 H 0.73926 0.74206 0.12173 0.0
H1513 H 0.69392 0.67882 0.02875 0.0
H1514 H 0.6768 0.74136 0.10493 0.0
H1515 H 0.75423 0.67235 0.05078 0.0
H1516 H 0.68765 0.70229 0.05615 0.0
H1517 H 0.74536 0.71721 0.09532 0.0
C1518 C 0.72684 0.73671 0.11245 0.0
C1519 C 0.7075 0.74382 0.11552 0.0
C1520 C 0.70224 0.69569 0.05504 0.0
C1521 C 0.71435 0.71532 0.08532 0.0
C1522 C 0.70586 0.68228 0.03935 0.0
C1523 C 0.72468 0.67358 0.03737 0.0
C1524 C 0.71755 0.70061 0.06885 0.0
C1525 C 0.7395 0.67864 0.05169 0.0
C1526 C 0.73031 0.72244 0.09746 0.0
C1527 C 0.69191 0.73615 0.10322 0.0
N1528 N 0.73565 0.69189 0.06675 0.0
N1529 N 0.69569 0.7224 0.08862 0.0
H1530 H 0.97669 0.05363 0.13788 0.0
H1531 H 0.92791 0.96607 0.20382 0.0
H1532 H 0.98696 0.99063 0.12782 0.0
H1533 H 0.91527 0.02881 0.21246 0.0
H1534 H 0.95053 0.97499 0.17673 0.0
H1535 H 0.95483 0.04499 0.16578 0.0
C1536 C 0.97429 0.03797 0.14147 0.0
C1537 C 0.98369 0.02284 0.13043 0.0
C1538 C 0.94285 0.98682 0.18458 0.0
C1539 C 0.95882 0.01285 0.16255 0.0
C1540 C 0.92993 0.98174 0.20011 0.0
C1541 C 0.9196 0.99669 0.21051 0.0
C1542 C 0.94553 0.00701 0.17931 0.0
C1543 C 0.92286 0.01674 0.20491 0.0
C1544 C 0.96189 0.03306 0.15748 0.0
C1545 C 0.98026 0.00283 0.13603 0.0
N1546 N 0.9355 0.02129 0.18969 0.0
N1547 N 0.9681 0.99843 0.15165 0.0
H1548 H 0.30478 0.74647 0.08964 0.0
H1549 H 0.26659 0.85707 0.07242 0.0
H1550 H 0.29809 0.78958 0.13774 0.0
H1551 H 0.28896 0.81929 0.02505 0.0
H1552 H 0.27712 0.83243 0.09672 0.0
H1553 H 0.29762 0.77263 0.0657 0.0
C1554 C 0.30176 0.76145 0.09514 0.0
C1555 C 0.30198 0.76587 0.11568 0.0
C1556 C 0.27988 0.82964 0.08102 0.0
C1557 C 0.29381 0.79588 0.08843 0.0
C1558 C 0.27389 0.8437 0.06715 0.0
C1559 C 0.27685 0.84019 0.04668 0.0
C1560 C 0.28866 0.81185 0.07433 0.0
C1561 C 0.28638 0.8226 0.04068 0.0
C1562 C 0.29782 0.77641 0.08149 0.0
C1563 C 0.29821 0.78558 0.12201 0.0
N1564 N 0.29177 0.80901 0.05442 0.0
N1565 N 0.29414 0.79984 0.10845 0.0
H1566 H 0.00778 0.50921 0.13807 0.0
H1567 H 0.10573 0.48005 0.19858 0.0
H1568 H 0.05204 0.46944 0.11419 0.0
H1569 H 0.07329 0.53398 0.21073 0.0
H1570 H 0.08303 0.47225 0.17055 0.0
H1571 H 0.0288 0.51496 0.16762 0.0
C1572 C 0.02193 0.50173 0.13894 0.0
C1573 C 0.02816 0.48893 0.12342 0.0
C1574 C 0.08087 0.48574 0.17942 0.0
C1575 C 0.05207 0.49514 0.15755 0.0
C1576 C 0.09375 0.49016 0.19549 0.0
C1577 C 0.09148 0.50775 0.20699 0.0
C1578 C 0.06546 0.49886 0.17499 0.0
C1579 C 0.0757 0.52033 0.2022 0.0
C1580 C 0.03385 0.50495 0.15591 0.0
C1581 C 0.04644 0.47926 0.12578 0.0
N1582 N 0.06329 0.51563 0.18659 0.0
N1583 N 0.05774 0.48257 0.1425 0.0
H1584 H 0.38969 0.73919 0.26459 0.0
H1585 H 0.4741 0.69738 0.33697 0.0
H1586 H 0.40787 0.67759 0.26252 0.0
H1587 H 0.45892 0.75957 0.33342 0.0
H1588 H 0.44962 0.68919 0.31024 0.0
H1589 H 0.41441 0.74638 0.29076 0.0
C1590 C 0.39903 0.72721 0.26952 0.0
C1591 C 0.39683 0.7078 0.26121 0.0
C1592 C 0.45162 0.70461 0.31536 0.0
C1593 C 0.42516 0.7159 0.29136 0.0
C1594 C 0.46552 0.70923 0.33056 0.0
C1595 C 0.46783 0.72901 0.33775 0.0
C1596 C 0.44038 0.72001 0.30717 0.0
C1597 C 0.45694 0.74401 0.3287 0.0
C1598 C 0.4131 0.7313 0.28454 0.0
C1599 C 0.40901 0.69274 0.26857 0.0
N1600 N 0.44358 0.73919 0.31399 0.0
N1601 N 0.4227 0.69712 0.28321 0.0
H1602 H 0.94944 0.3797 0.97395 0.0
H1603 H 0.018 0.30377 0.91293 0.0
H1604 H 0.01363 0.38786 0.97029 0.0
H1605 H 0.95533 0.29293 0.92588 0.0
H1606 H 0.0172 0.3348 0.93315 0.0
H1607 H 0.95166 0.34827 0.95512 0.0
C1608 C 0.96402 0.37493 0.96905 0.0
C1609 C 0.98136 0.38649 0.9736 0.0
C1610 C 0.0037 0.32551 0.93161 0.0
C1611 C 0.98409 0.35027 0.95214 0.0
C1612 C 0.00414 0.30778 0.92009 0.0
C1613 C 0.9867 0.29566 0.91759 0.0
C1614 C 0.98568 0.33119 0.94056 0.0
C1615 C 0.96918 0.3017 0.92725 0.0
C1616 C 0.96531 0.35688 0.95842 0.0
C1617 C 0.9999 0.37934 0.96719 0.0
N1618 N 0.96912 0.31902 0.93817 0.0
N1619 N 0.00078 0.36171 0.95669 0.0
H1620 H 0.63258 0.77522 0.27784 0.0
H1621 H 0.52731 0.7977 0.32732 0.0
H1622 H 0.59774 0.82591 0.26144 0.0
H1623 H 0.57056 0.75916 0.35375 0.0
H1624 H 0.55242 0.80817 0.3028 0.0
H1625 H 0.60933 0.76847 0.30514 0.0
C1626 C 0.61998 0.7849 0.27998 0.0
C1627 C 0.61699 0.80107 0.26731 0.0
C1628 C 0.55647 0.79761 0.31412 0.0
C1629 C 0.59035 0.7935 0.29856 0.0
C1630 C 0.54216 0.79164 0.32812 0.0
C1631 C 0.54683 0.77747 0.34254 0.0
C1632 C 0.57547 0.78912 0.31437 0.0
C1633 C 0.5663 0.77011 0.34289 0.0
C1634 C 0.60681 0.78114 0.29565 0.0
C1635 C 0.6006 0.81332 0.27093 0.0
N1636 N 0.57982 0.77584 0.32887 0.0
N1637 N 0.58778 0.80918 0.28612 0.0
H1638 H 0.04143 0.11664 0.95763 0.0
H1639 H 0.97003 0.20771 0.93735 0.0
H1640 H 0.00162 0.14005 0.00246 0.0
H1641 H 0.02454 0.19861 0.90441 0.0
H1642 H 0.97903 0.18063 0.95957 0.0
H1643 H 0.03322 0.14445 0.93616 0.0
C1644 C 0.03109 0.12765 0.96308 0.0
C1645 C 0.02227 0.12589 0.98201 0.0
C1646 C 0.98904 0.18464 0.94752 0.0
C1647 C 0.01245 0.15757 0.95716 0.0
C1648 C 0.9839 0.20005 0.93479 0.0
C1649 C 0.99657 0.20549 0.91899 0.0
C1650 C 0.00681 0.17435 0.94425 0.0
C1651 C 0.01437 0.19503 0.91644 0.0
C1652 C 0.02634 0.14348 0.95073 0.0
C1653 C 0.00858 0.14048 0.98792 0.0
N1654 N 0.01889 0.17988 0.92885 0.0
N1655 N 0.00404 0.15563 0.97552 0.0
H1656 H 0.37094 0.29473 0.22178 0.0
H1657 H 0.48355 0.28642 0.18378 0.0
H1658 H 0.42126 0.31142 0.25973 0.0
H1659 H 0.43525 0.24633 0.16416 0.0
H1660 H 0.46049 0.30228 0.20748 0.0
H1661 H 0.39418 0.28367 0.19599 0.0
C1662 C 0.38691 0.29631 0.22456 0.0
C1663 C 0.39422 0.30393 0.24291 0.0
C1664 C 0.45501 0.2901 0.19784 0.0
C1665 C 0.42083 0.29134 0.21349 0.0
C1666 C 0.46807 0.28115 0.18428 0.0
C1667 C 0.4613 0.26499 0.17208 0.0
C1668 C 0.43501 0.28309 0.19879 0.0
C1669 C 0.44114 0.25864 0.17338 0.0
C1670 C 0.40013 0.28989 0.20991 0.0
C1671 C 0.41505 0.30545 0.24583 0.0
N1672 N 0.42871 0.26774 0.18644 0.0
N1673 N 0.42768 0.29922 0.23124 0.0
H1674 H 0.48786 0.38273 0.03457 0.0
H1675 H 0.53892 0.31349 0.11558 0.0
H1676 H 0.55015 0.38866 0.05193 0.0
H1677 H 0.48291 0.29747 0.08626 0.0
H1678 H 0.54148 0.34367 0.09543 0.0
H1679 H 0.4842 0.35365 0.05611 0.0
C1680 C 0.5008 0.37793 0.04281 0.0
C1681 C 0.51936 0.38827 0.04134 0.0
C1682 C 0.5286 0.33358 0.09344 0.0
C1683 C 0.51511 0.35515 0.06637 0.0
C1684 C 0.52708 0.31639 0.10501 0.0
C1685 C 0.51071 0.30291 0.10255 0.0
C1686 C 0.51355 0.33742 0.07942 0.0
C1687 C 0.49583 0.30742 0.08858 0.0
C1688 C 0.49865 0.36137 0.0552 0.0
C1689 C 0.53545 0.38148 0.05276 0.0
N1690 N 0.4976 0.3243 0.07754 0.0
N1691 N 0.53294 0.3654 0.06477 0.0
H1692 H 0.63534 0.21058 0.22488 0.0
H1693 H 0.51904 0.20348 0.19681 0.0
H1694 H 0.58995 0.19298 0.2672 0.0
H1695 H 0.56221 0.23948 0.16436 0.0
H1696 H 0.54515 0.19606 0.22113 0.0
H1697 H 0.60901 0.21757 0.20065 0.0
C1698 C 0.61982 0.20805 0.229 0.0
C1699 C 0.61479 0.20119 0.24805 0.0
C1700 C 0.54885 0.20563 0.20871 0.0
C1701 C 0.58462 0.20918 0.22046 0.0
C1702 C 0.53398 0.20985 0.19479 0.0
C1703 C 0.5384 0.22219 0.17853 0.0
C1704 C 0.56836 0.21355 0.20619 0.0
C1705 C 0.55805 0.23 0.17671 0.0
C1706 C 0.60481 0.21218 0.21524 0.0
C1707 C 0.59444 0.1984 0.25272 0.0
N1708 N 0.57231 0.22546 0.1903 0.0
N1709 N 0.58008 0.20232 0.23898 0.0
H1710 H 0.48114 0.13902 0.01528 0.0
H1711 H 0.53928 0.19667 0.10424 0.0
H1712 H 0.51761 0.1081 0.0574 0.0
H1713 H 0.48121 0.21438 0.084 0.0
H1714 H 0.53697 0.16734 0.08137 0.0
H1715 H 0.48611 0.17009 0.0352 0.0
C1716 C 0.49031 0.13888 0.02865 0.0
C1717 C 0.49896 0.1211 0.03481 0.0
C1718 C 0.52481 0.17773 0.08191 0.0
C1719 C 0.50499 0.15639 0.05728 0.0
C1720 C 0.52612 0.19436 0.09488 0.0
C1721 C 0.51007 0.20731 0.09639 0.0
C1722 C 0.50762 0.1746 0.06998 0.0
C1723 C 0.49357 0.20422 0.08362 0.0
C1724 C 0.49309 0.1565 0.03998 0.0
C1725 C 0.51063 0.12155 0.05227 0.0
N1726 N 0.4927 0.18808 0.07095 0.0
N1727 N 0.51342 0.13898 0.06288 0.0
H1728 H 0.25934 0.3949 0.74049 0.0
H1729 H 0.3379 0.47809 0.7012 0.0
H1730 H 0.26519 0.40897 0.67813 0.0
H1731 H 0.33037 0.46233 0.76282 0.0
H1732 H 0.31044 0.45416 0.69202 0.0
H1733 H 0.28484 0.42052 0.74861 0.0
C1734 C 0.26585 0.40355 0.7285 0.0
C1735 C 0.25997 0.39991 0.70861 0.0
C1736 C 0.31481 0.45597 0.70754 0.0
C1737 C 0.28946 0.42929 0.71781 0.0
C1738 C 0.33041 0.46956 0.71272 0.0
C1739 C 0.33672 0.47147 0.73264 0.0
C1740 C 0.30534 0.44466 0.72251 0.0
C1741 C 0.32632 0.46067 0.74719 0.0
C1742 C 0.28052 0.41815 0.73314 0.0
C1743 C 0.26934 0.41125 0.69365 0.0
N1744 N 0.31125 0.44761 0.74183 0.0
N1745 N 0.28363 0.42549 0.69856 0.0
H1746 H 0.2809 0.63345 0.77521 0.0
H1747 H 0.32879 0.52955 0.80238 0.0
H1748 H 0.26327 0.60025 0.82723 0.0
H1749 H 0.35733 0.57226 0.76324 0.0
H1750 H 0.30433 0.55472 0.81157 0.0
H1751 H 0.30828 0.61039 0.7698 0.0
C1752 C 0.28277 0.62125 0.78545 0.0
C1753 C 0.26975 0.61868 0.80162 0.0
C1754 C 0.31611 0.55866 0.80117 0.0
C1755 C 0.30107 0.59228 0.79559 0.0
C1756 C 0.33009 0.54431 0.79594 0.0
C1757 C 0.34507 0.54879 0.78196 0.0
C1758 C 0.31692 0.57749 0.79209 0.0
C1759 C 0.34604 0.56816 0.77408 0.0
C1760 C 0.29849 0.6082 0.78246 0.0
C1761 C 0.27303 0.60279 0.81462 0.0
N1762 N 0.33199 0.5817 0.77906 0.0
N1763 N 0.28826 0.59008 0.81122 0.0
H1764 H 0.88657 0.4734 0.45701 0.0
H1765 H 0.80727 0.41129 0.52246 0.0
H1766 H 0.89315 0.46739 0.52069 0.0
H1767 H 0.79883 0.42591 0.46048 0.0
H1768 H 0.83866 0.43136 0.5227 0.0
H1769 H 0.85451 0.45523 0.45844 0.0
C1770 C 0.88131 0.46813 0.47131 0.0
C1771 C 0.89266 0.47177 0.48872 0.0
C1772 C 0.82982 0.43023 0.50912 0.0
C1773 C 0.85567 0.45103 0.49055 0.0
C1774 C 0.81189 0.4188 0.50897 0.0
C1775 C 0.80034 0.41679 0.49141 0.0
C1776 C 0.83628 0.43962 0.49157 0.0
C1777 C 0.80715 0.42688 0.47438 0.0
C1778 C 0.86289 0.45787 0.47215 0.0
C1779 C 0.88484 0.46495 0.50691 0.0
N1780 N 0.82464 0.43771 0.47489 0.0
N1781 N 0.86686 0.45479 0.50734 0.0
H1782 H 0.7319 0.8779 0.77122 0.0
H1783 H 0.68068 0.98112 0.79878 0.0
H1784 H 0.7463 0.91214 0.82487 0.0
H1785 H 0.65557 0.93853 0.75564 0.0
H1786 H 0.70523 0.95646 0.80829 0.0
H1787 H 0.70462 0.90063 0.76446 0.0
C1788 C 0.72934 0.89025 0.78153 0.0
C1789 C 0.74141 0.8932 0.79859 0.0
C1790 C 0.69421 0.95243 0.79689 0.0
C1791 C 0.71021 0.91919 0.79101 0.0
C1792 C 0.68018 0.96649 0.79148 0.0
C1793 C 0.6661 0.96189 0.77636 0.0
C1794 C 0.69437 0.93373 0.7869 0.0
C1795 C 0.66614 0.9427 0.7674 0.0
C1796 C 0.71368 0.90311 0.77776 0.0
C1797 C 0.73727 0.90927 0.81161 0.0
N1798 N 0.68021 0.9294 0.77264 0.0
N1799 N 0.72212 0.92175 0.80747 0.0
H1800 H 0.63492 0.52927 0.95789 0.0
H1801 H 0.70445 0.59616 0.03214 0.0
H1802 H 0.62399 0.53495 0.02115 0.0
H1803 H 0.71748 0.58655 0.96989 0.0
H1804 H 0.67602 0.57211 0.02902 0.0
H1805 H 0.66581 0.54937 0.96226 0.0
C1806 C 0.63899 0.53478 0.9727 0.0
C1807 C 0.62679 0.53046 0.98917 0.0
C1808 C 0.68512 0.57518 0.01605 0.0
C1809 C 0.66234 0.55328 0.99433 0.0
C1810 C 0.70127 0.58888 0.01785 0.0
C1811 C 0.71256 0.59387 0.00102 0.0
C1812 C 0.68056 0.56624 0.99734 0.0
C1813 C 0.70846 0.58365 0.98297 0.0
C1814 C 0.65673 0.54612 0.97522 0.0
C1815 C 0.63302 0.53774 0.00806 0.0
N1816 N 0.69262 0.57047 0.98153 0.0
N1817 N 0.6503 0.54887 0.01011 0.0
H1818 H 0.25022 0.61644 0.23553 0.0
H1819 H 0.17148 0.53131 0.1968 0.0
H1820 H 0.24212 0.60115 0.17312 0.0
H1821 H 0.18095 0.54817 0.25853 0.0
H1822 H 0.1977 0.55605 0.18735 0.0
H1823 H 0.22485 0.59109 0.24388 0.0
C1824 C 0.2432 0.6076 0.22357 0.0
C1825 C 0.24844 0.61077 0.20361 0.0
C1826 C 0.194 0.55434 0.20295 0.0
C1827 C 0.21919 0.58167 0.21306 0.0
C1828 C 0.1791 0.54029 0.20829 0.0
C1829 C 0.17371 0.53839 0.22834 0.0
C1830 C 0.20373 0.56613 0.21789 0.0
C1831 C 0.18428 0.5498 0.24283 0.0
C1832 C 0.22863 0.59316 0.22834 0.0
C1833 C 0.23847 0.59921 0.1887 0.0
N1834 N 0.19869 0.56328 0.23732 0.0
N1835 N 0.22435 0.58509 0.19373 0.0
H1836 H 0.90519 0.5692 0.02775 0.0
H1837 H 0.79747 0.58101 0.97713 0.0
H1838 H 0.87408 0.52151 0.99472 0.0
H1839 H 0.82165 0.62175 0.02247 0.0
H1840 H 0.82769 0.56128 0.97951 0.0
H1841 H 0.87674 0.59068 0.02235 0.0
C1842 C 0.8924 0.56319 0.0194 0.0
C1843 C 0.89206 0.54338 0.01183 0.0
C1844 C 0.82642 0.5746 0.98886 0.0
C1845 C 0.85952 0.56814 0.00528 0.0
C1846 C 0.80922 0.58592 0.98745 0.0
C1847 C 0.807 0.603 0.99969 0.0
C1848 C 0.8416 0.58048 0.00251 0.0
C1849 C 0.82269 0.60863 0.01282 0.0
C1850 C 0.87619 0.57553 0.01623 0.0
C1851 C 0.87519 0.53669 0.00068 0.0
N1852 N 0.83931 0.59738 0.01391 0.0
N1853 N 0.85961 0.54901 0.9978 0.0
H1854 H 0.12053 0.95995 0.04521 0.0
H1855 H 0.21394 0.93953 0.97515 0.0
H1856 H 0.14596 0.00484 0.00629 0.0
H1857 H 0.20143 0.90528 0.02797 0.0
H1858 H 0.18725 0.96218 0.9844 0.0
H1859 H 0.14841 0.93837 0.03736 0.0
C1860 C 0.13202 0.96541 0.03517 0.0
C1861 C 0.13078 0.98436 0.02644 0.0
C1862 C 0.19043 0.94976 0.99401 0.0
C1863 C 0.16257 0.95937 0.01703 0.0
C1864 C 0.20562 0.93678 0.98871 0.0
C1865 C 0.20997 0.92045 0.0008 0.0
C1866 C 0.17927 0.94627 0.01137 0.0
C1867 C 0.19869 0.9177 0.01824 0.0
C1868 C 0.1479 0.95298 0.03062 0.0
C1869 C 0.14599 0.99027 0.01314 0.0
N1870 N 0.18377 0.93039 0.02292 0.0
N1871 N 0.16117 0.97779 0.00878 0.0
loop_
_geom_bond_atom_site_label_1
_geom_bond_atom_site_label_2
_geom_bond_distance
_geom_bond_site_symmetry_2
_ccdc_geom_bond_type
C0 C1 1.384 . S
C0 H13 0.947 . S
C0 C35 1.382 . S
C1 C0 1.384 . S
C1 C2 1.378 1_655 S
C2 C1 1.378 1_455 S
C2 C3 1.378 . S
C2 H14 0.952 . S
C3 C2 1.378 . S
C3 H15 0.950 . S
C3 C34 1.383 . S
H4 C23 0.947 . S
H5 C24 0.946 . S
H6 C26 1.004 . S
H7 C27 0.945 . S
H8 C29 0.952 . S
H9 C30 0.949 . S
H10 C32 0.958 . S
H11 C33 0.948 . S
H12 C35 0.951 . S
H13 C0 0.947 . S
H14 C2 0.952 . S
H15 C3 0.950 . S
N16 C19 1.382 . S
N16 C21 1.363 . S
N17 C19 1.371 . S
N17 C20 1.372 . S
N18 C20 1.361 . S
N18 C21 1.377 . S
C19 N16 1.382 . S
C19 N17 1.371 . S
C19 C22 1.480 . S
C20 N17 1.372 . S
C20 N18 1.361 . S
C20 C28 1.457 . S
C21 N16 1.363 . S
C21 N18 1.377 . S
C21 C34 1.479 . S
C22 C19 1.480 . S
C22 C23 1.383 1_545 S
C22 C27 1.385 . S
C23 H4 0.947 . S
C23 C22 1.383 1_565 S
C23 C24 1.388 . S
C24 H5 0.946 . S
C24 C23 1.388 . S
C24 C25 1.384 . S
C25 C24 1.384 . S
C25 C26 1.352 1_565 S
C26 H6 1.004 . S
C26 C25 1.352 1_545 S
C26 C27 1.390 . S
C27 H7 0.945 . S
C27 C22 1.385 . S
C27 C26 1.390 . S
C28 C20 1.457 . S
C28 C29 1.372 1_554 S
C28 C33 1.364 . S
C29 H8 0.952 . S
C29 C28 1.372 1_556 S
C29 C30 1.389 . S
C30 H9 0.949 . S
C30 C29 1.389 . S
C30 C31 1.387 . S
C31 C30 1.387 . S
C31 C32 1.337 1_556 S
C32 H10 0.958 . S
C32 C31 1.337 1_554 S
C32 C33 1.407 . S
C33 H11 0.948 . S
C33 C28 1.364 . S
C33 C32 1.407 . S
C34 C3 1.383 . S
C34 C21 1.479 . S
C34 C35 1.398 1_455 S
C35 C0 1.382 . S
C35 H12 0.951 . S
C35 C34 1.398 1_655 S
C36 C37 1.384 . S
C36 H49 0.947 . S
C36 C71 1.382 . S
C37 C36 1.384 . S
C37 C38 1.378 . S
C38 C37 1.378 . S
C38 C39 1.378 . S
C38 H50 0.952 . S
C39 C38 1.378 . S
C39 H51 0.950 . S
C39 C70 1.383 . S
H40 C59 0.947 . S
H41 C60 0.946 . S
H42 C62 0.953 . S
H43 C63 0.945 . S
H44 C65 0.952 . S
H45 C66 0.949 . S
H46 C68 0.950 . S
H47 C69 0.948 . S
H48 C71 0.951 . S
H49 C36 0.947 . S
H50 C38 0.952 . S
H51 C39 0.950 . S
N52 C55 1.382 . S
N52 C57 1.363 . S
N53 C55 1.371 . S
N53 C56 1.372 . S
N54 C56 1.361 . S
N54 C57 1.377 . S
C55 N52 1.382 . S
C55 N53 1.371 . S
C55 C58 1.480 . S
C56 N53 1.372 . S
C56 N54 1.361 . S
C56 C64 1.457 . S
C57 N52 1.363 . S
C57 N54 1.377 . S
C57 C70 1.479 . S
C58 C55 1.480 . S
C58 C59 1.383 . S
C58 C63 1.385 . S
C59 H40 0.947 . S
C59 C58 1.383 . S
C59 C60 1.388 . S
C60 H41 0.946 . S
C60 C59 1.388 . S
C60 C61 1.384 . S
C61 C60 1.384 . S
C61 C62 1.377 . S
C62 H42 0.953 . S
C62 C61 1.377 . S
C62 C63 1.369 . S
C63 H43 0.945 . S
C63 C58 1.385 . S
C63 C62 1.369 . S
C64 C56 1.457 . S
C64 C65 1.372 . S
C64 C69 1.364 . S
C65 H44 0.952 . S
C65 C64 1.372 . S
C65 C66 1.389 . S
C66 H45 0.949 . S
C66 C65 1.389 . S
C66 C67 1.387 . S
C67 C66 1.387 . S
C67 C68 1.372 . S
C68 H46 0.950 . S
C68 C67 1.372 . S
C68 C69 1.379 . S
C69 H47 0.948 . S
C69 C64 1.364 . S
C69 C68 1.379 . S
C70 C39 1.383 . S
C70 C57 1.479 . S
C70 C71 1.398 . S
C71 C36 1.382 . S
C71 H48 0.951 . S
C71 C70 1.398 . S
C72 C73 1.384 . S
C72 H85 0.947 1_656 S
C72 C107 1.382 1_556 S
C73 C72 1.384 . S
C73 C74 1.378 . S
C74 C73 1.378 . S
C74 C75 1.378 . S
C74 H86 0.952 . S
C75 C74 1.378 . S
C75 H87 0.950 . S
C75 C106 1.383 1_556 S
H76 C95 0.947 . S
H77 C96 0.946 . S
H78 C98 0.953 . S
H79 C99 0.945 . S
H80 C101 0.952 . S
H81 C102 0.949 . S
H82 C104 0.950 . S
H83 C105 0.948 . S
H84 C107 0.951 . S
H85 C72 0.947 1_454 S
H86 C74 0.952 . S
H87 C75 0.950 . S
N88 C91 1.382 . S
N88 C93 1.363 . S
N89 C91 1.371 . S
N89 C92 1.372 . S
N90 C92 1.361 . S
N90 C93 1.377 . S
C91 N88 1.382 . S
C91 N89 1.371 . S
C91 C94 1.480 . S
C92 N89 1.372 . S
C92 N90 1.361 . S
C92 C100 1.457 . S
C93 N88 1.363 . S
C93 N90 1.377 . S
C93 C106 1.479 . S
C94 C91 1.480 . S
C94 C95 1.383 . S
C94 C99 1.385 . S
C95 H76 0.947 . S
C95 C94 1.383 . S
C95 C96 1.388 . S
C96 H77 0.946 . S
C96 C95 1.388 . S
C96 C97 1.384 . S
C97 C96 1.384 . S
C97 C98 1.377 . S
C98 H78 0.953 . S
C98 C97 1.377 . S
C98 C99 1.369 . S
C99 H79 0.945 . S
C99 C94 1.385 . S
C99 C98 1.369 . S
C100 C92 1.457 . S
C100 C101 1.372 . S
C100 C105 1.364 1_655 S
C101 H80 0.952 . S
C101 C100 1.372 . S
C101 C102 1.389 1_655 S
C102 H81 0.949 . S
C102 C101 1.389 1_455 S
C102 C103 1.387 . S
C103 C102 1.387 . S
C103 C104 1.372 . S
C104 H82 0.950 . S
C104 C103 1.372 . S
C104 C105 1.379 . S
C105 H83 0.948 . S
C105 C100 1.364 1_455 S
C105 C104 1.379 . S
C106 C75 1.383 1_554 S
C106 C93 1.479 . S
C106 C107 1.398 . S
C107 C72 1.382 1_554 S
C107 H84 0.951 . S
C107 C106 1.398 . S
C108 C109 1.384 . S
C108 H121 0.947 . S
C108 C143 1.382 . S
C109 C108 1.384 . S
C109 C110 1.378 . S
C110 C109 1.378 . S
C110 C111 1.378 . S
C110 H122 0.952 . S
C111 C110 1.378 . S
C111 H123 0.950 . S
C111 C142 1.383 . S
H112 C131 0.947 . S
H113 C132 0.946 . S
H114 C134 0.953 . S
H115 C135 0.945 . S
H116 C137 0.952 . S
H117 C138 0.949 . S
H118 C140 0.950 . S
H119 C141 0.948 . S
H120 C143 0.951 . S
H121 C108 0.947 . S
H122 C110 0.952 . S
H123 C111 0.950 . S
N124 C127 1.382 . S
N124 C129 1.363 . S
N125 C127 1.371 . S
N125 C128 1.372 . S
N126 C128 1.361 . S
N126 C129 1.377 . S
C127 N124 1.382 . S
C127 N125 1.371 . S
C127 C130 1.480 . S
C128 N125 1.372 . S
C128 N126 1.361 . S
C128 C136 1.457 . S
C129 N124 1.363 . S
C129 N126 1.377 . S
C129 C142 1.479 . S
C130 C127 1.480 . S
C130 C131 1.383 . S
C130 C135 1.385 . S
C131 H112 0.947 . S
C131 C130 1.383 . S
C131 C132 1.388 . S
C132 H113 0.946 . S
C132 C131 1.388 . S
C132 C133 1.384 . S
C133 C132 1.384 . S
C133 C134 1.377 . S
C134 H114 0.953 . S
C134 C133 1.377 . S
C134 C135 1.369 . S
C135 H115 0.945 . S
C135 C130 1.385 . S
C135 C134 1.369 . S
C136 C128 1.457 . S
C136 C137 1.372 . S
C136 C141 1.364 . S
C137 H116 0.952 . S
C137 C136 1.372 . S
C137 C138 1.389 . S
C138 H117 0.949 . S
C138 C137 1.389 . S
C138 C139 1.387 . S
C139 C138 1.387 . S
C139 C140 1.372 . S
C140 H118 0.950 . S
C140 C139 1.372 . S
C140 C141 1.379 . S
C141 H119 0.948 . S
C141 C136 1.364 . S
C141 C140 1.379 . S
C142 C111 1.383 . S
C142 C129 1.479 . S
C142 C143 1.398 . S
C143 C108 1.382 . S
C143 H120 0.951 . S
C143 C142 1.398 . S
C144 C145 1.384 . S
C144 H157 0.947 . S
C144 C179 1.382 . S
C145 C144 1.384 . S
C145 C146 1.378 . S
C146 C145 1.378 . S
C146 C147 1.378 . S
C146 H158 0.952 . S
C147 C146 1.378 . S
C147 H159 0.950 . S
C147 C178 1.383 . S
H148 C167 0.947 . S
H149 C168 0.946 . S
H150 C170 0.953 1_545 S
H151 C171 0.970 . S
H152 C173 0.952 . S
H153 C174 0.949 . S
H154 C176 0.950 . S
H155 C177 0.948 . S
H156 C179 0.951 . S
H157 C144 0.947 . S
H158 C146 0.952 . S
H159 C147 0.950 . S
N160 C163 1.382 . S
N160 C165 1.363 . S
N161 C163 1.371 . S
N161 C164 1.372 . S
N162 C164 1.361 . S
N162 C165 1.377 . S
C163 N160 1.382 . S
C163 N161 1.371 . S
C163 C166 1.480 . S
C164 N161 1.372 . S
C164 N162 1.361 . S
C164 C172 1.457 . S
C165 N160 1.363 . S
C165 N162 1.377 . S
C165 C178 1.479 . S
C166 C163 1.480 . S
C166 C167 1.383 1_455 S
C166 C171 1.385 . S
C167 H148 0.947 . S
C167 C166 1.383 1_655 S
C167 C168 1.388 . S
C168 H149 0.946 . S
C168 C167 1.388 . S
C168 C169 1.384 . S
C169 C168 1.384 . S
C169 C170 1.377 1_655 S
C170 H150 0.953 1_565 S
C170 C169 1.377 1_455 S
C170 C171 1.369 . S
C171 H151 0.970 . S
C171 C166 1.385 . S
C171 C170 1.369 . S
C172 C164 1.457 . S
C172 C173 1.372 1_565 S
C172 C177 1.364 . S
C173 H152 0.952 . S
C173 C172 1.372 1_545 S
C173 C174 1.389 . S
C174 H153 0.949 . S
C174 C173 1.389 . S
C174 C175 1.387 . S
C175 C174 1.387 . S
C175 C176 1.372 . S
C176 H154 0.950 . S
C176 C175 1.372 . S
C176 C177 1.379 1_545 S
C177 H155 0.948 . S
C177 C172 1.364 . S
C177 C176 1.379 1_565 S
C178 C147 1.383 . S
C178 C165 1.479 . S
C178 C179 1.398 . S
C179 C144 1.382 . S
C179 H156 0.951 . S
C179 C178 1.398 . S
C180 C181 1.384 . S
C180 H193 0.947 . S
C180 C215 1.382 . S
C181 C180 1.384 . S
C181 C182 1.378 . S
C182 C181 1.378 . S
C182 C183 1.378 . S
C182 H194 0.952 . S
C183 C182 1.378 . S
C183 H195 0.950 . S
C183 C214 1.383 . S
H184 C203 0.947 . S
H185 C204 0.946 . S
H186 C206 0.953 . S
H187 C207 0.945 . S
H188 C209 0.952 . S
H189 C210 0.949 . S
H190 C212 0.950 . S
H191 C213 0.948 . S
H192 C215 0.951 . S
H193 C180 0.947 . S
H194 C182 0.952 . S
H195 C183 0.950 . S
N196 C199 1.382 . S
N196 C201 1.363 . S
N197 C199 1.371 . S
N197 C200 1.372 . S
N198 C200 1.361 . S
N198 C201 1.377 . S
C199 N196 1.382 . S
C199 N197 1.371 . S
C199 C202 1.480 . S
C200 N197 1.372 . S
C200 N198 1.361 . S
C200 C208 1.457 . S
C201 N196 1.363 . S
C201 N198 1.377 . S
C201 C214 1.479 . S
C202 C199 1.480 . S
C202 C203 1.383 . S
C202 C207 1.385 . S
C203 H184 0.947 . S
C203 C202 1.383 . S
C203 C204 1.388 . S
C204 H185 0.946 . S
C204 C203 1.388 . S
C204 C205 1.384 . S
C205 C204 1.384 . S
C205 C206 1.377 . S
C206 H186 0.953 . S
C206 C205 1.377 . S
C206 C207 1.369 . S
C207 H187 0.945 . S
C207 C202 1.385 . S
C207 C206 1.369 . S
C208 C200 1.457 . S
C208 C209 1.372 . S
C208 C213 1.364 . S
C209 H188 0.952 . S
C209 C208 1.372 . S
C209 C210 1.389 . S
C210 H189 0.949 . S
C210 C209 1.389 . S
C210 C211 1.387 . S
C211 C210 1.387 . S
C211 C212 1.372 . S
C212 H190 0.950 . S
C212 C211 1.372 . S
C212 C213 1.379 . S
C213 H191 0.948 . S
C213 C208 1.364 . S
C213 C212 1.379 . S
C214 C183 1.383 . S
C214 C201 1.479 . S
C214 C215 1.398 . S
C215 C180 1.382 . S
C215 H192 0.951 . S
C215 C214 1.398 . S
C216 C217 1.384 . S
C216 H229 0.947 1_655 S
C216 C251 1.382 . S
C217 C216 1.384 . S
C217 C218 1.378 . S
C218 C217 1.378 . S
C218 C219 1.378 . S
C218 H230 0.952 . S
C219 C218 1.378 . S
C219 H231 0.950 . S
C219 C250 1.383 . S
H220 C239 0.947 . S
H221 C240 0.946 . S
H222 C242 0.953 . S
H223 C243 0.945 . S
H224 C245 0.952 . S
H225 C246 0.949 . S
H226 C248 0.950 . S
H227 C249 0.948 . S
H228 C251 0.951 1_455 S
H229 C216 0.947 1_455 S
H230 C218 0.952 . S
H231 C219 0.950 . S
N232 C235 1.382 . S
N232 C237 1.363 . S
N233 C235 1.371 . S
N233 C236 1.372 . S
N234 C236 1.361 . S
N234 C237 1.377 . S
C235 N232 1.382 . S
C235 N233 1.371 . S
C235 C238 1.480 . S
C236 N233 1.372 . S
C236 N234 1.361 . S
C236 C244 1.457 1_655 S
C237 N232 1.363 . S
C237 N234 1.377 . S
C237 C250 1.479 . S
C238 C235 1.480 . S
C238 C239 1.383 . S
C238 C243 1.385 . S
C239 H220 0.947 . S
C239 C238 1.383 . S
C239 C240 1.388 . S
C240 H221 0.946 . S
C240 C239 1.388 . S
C240 C241 1.384 . S
C241 C240 1.384 . S
C241 C242 1.377 . S
C242 H222 0.953 . S
C242 C241 1.377 . S
C242 C243 1.369 . S
C243 H223 0.945 . S
C243 C238 1.385 . S
C243 C242 1.369 . S
C244 C236 1.457 1_455 S
C244 C245 1.372 1_455 S
C244 C249 1.364 . S
C245 H224 0.952 . S
C245 C244 1.372 1_655 S
C245 C246 1.389 1_655 S
C246 H225 0.949 . S
C246 C245 1.389 1_455 S
C246 C247 1.387 . S
C247 C246 1.387 . S
C247 C248 1.372 . S
C248 H226 0.950 . S
C248 C247 1.372 . S
C248 C249 1.379 . S
C249 H227 0.948 . S
C249 C244 1.364 . S
C249 C248 1.379 . S
C250 C219 1.383 . S
C250 C237 1.479 . S
C250 C251 1.398 . S
C251 C216 1.382 . S
C251 H228 0.951 1_655 S
C251 C250 1.398 . S
C252 C253 1.384 . S
C252 H265 0.947 . S
C252 C287 1.382 . S
C253 C252 1.384 . S
C253 C254 1.378 . S
C254 C253 1.378 . S
C254 C255 1.378 . S
C254 H266 0.952 . S
C255 C254 1.378 . S
C255 H267 0.950 . S
C255 C286 1.383 . S
H256 C275 0.947 . S
H257 C276 0.946 . S
H258 C278 0.953 . S
H259 C279 0.945 . S
H260 C281 0.952 . S
H261 C282 0.949 . S
H262 C284 0.950 . S
H263 C285 0.948 . S
H264 C287 0.951 . S
H265 C252 0.947 . S
H266 C254 0.952 . S
H267 C255 0.950 . S
N268 C271 1.382 . S
N268 C273 1.363 . S
N269 C271 1.371 . S
N269 C272 1.372 . S
N270 C272 1.361 . S
N270 C273 1.377 . S
C271 N268 1.382 . S
C271 N269 1.371 . S
C271 C274 1.480 . S
C272 N269 1.372 . S
C272 N270 1.361 . S
C272 C280 1.457 . S
C273 N268 1.363 . S
C273 N270 1.377 . S
C273 C286 1.479 . S
C274 C271 1.480 . S
C274 C275 1.383 . S
C274 C279 1.385 . S
C275 H256 0.947 . S
C275 C274 1.383 . S
C275 C276 1.388 . S
C276 H257 0.946 . S
C276 C275 1.388 . S
C276 C277 1.384 . S
C277 C276 1.384 . S
C277 C278 1.377 . S
C278 H258 0.953 . S
C278 C277 1.377 . S
C278 C279 1.369 . S
C279 H259 0.945 . S
C279 C274 1.385 . S
C279 C278 1.369 . S
C280 C272 1.457 . S
C280 C281 1.372 . S
C280 C285 1.364 . S
C281 H260 0.952 . S
C281 C280 1.372 . S
C281 C282 1.389 . S
C282 H261 0.949 . S
C282 C281 1.389 . S
C282 C283 1.387 . S
C283 C282 1.387 . S
C283 C284 1.372 . S
C284 H262 0.950 . S
C284 C283 1.372 . S
C284 C285 1.379 . S
C285 H263 0.948 . S
C285 C280 1.364 . S
C285 C284 1.379 . S
C286 C255 1.383 . S
C286 C273 1.479 . S
C286 C287 1.398 . S
C287 C252 1.382 . S
C287 H264 0.951 . S
C287 C286 1.398 . S
C288 C289 1.384 . S
C288 H301 0.947 . S
C288 C323 1.382 . S
C289 C288 1.384 . S
C289 C290 1.378 . S
C290 C289 1.378 . S
C290 C291 1.378 . S
C290 H302 0.952 . S
C291 C290 1.378 . S
C291 H303 0.950 . S
C291 C322 1.383 . S
H292 C311 0.947 . S
H293 C312 0.946 . S
H294 C314 0.953 . S
H295 C315 0.945 . S
H296 C317 0.952 . S
H297 C318 0.949 . S
H298 C320 0.950 . S
H299 C321 0.948 . S
H300 C323 0.951 . S
H301 C288 0.947 . S
H302 C290 0.952 . S
H303 C291 0.950 . S
N304 C307 1.382 . S
N304 C309 1.363 . S
N305 C307 1.371 . S
N305 C308 1.372 . S
N306 C308 1.361 . S
N306 C309 1.377 . S
C307 N304 1.382 . S
C307 N305 1.371 . S
C307 C310 1.480 . S
C308 N305 1.372 . S
C308 N306 1.361 . S
C308 C316 1.457 . S
C309 N304 1.363 . S
C309 N306 1.377 . S
C309 C322 1.479 . S
C310 C307 1.480 . S
C310 C311 1.383 . S
C310 C315 1.385 . S
C311 H292 0.947 . S
C311 C310 1.383 . S
C311 C312 1.388 . S
C312 H293 0.946 . S
C312 C311 1.388 . S
C312 C313 1.384 . S
C313 C312 1.384 . S
C313 C314 1.377 . S
C314 H294 0.953 . S
C314 C313 1.377 . S
C314 C315 1.369 . S
C315 H295 0.945 . S
C315 C310 1.385 . S
C315 C314 1.369 . S
C316 C308 1.457 . S
C316 C317 1.372 . S
C316 C321 1.364 . S
C317 H296 0.952 . S
C317 C316 1.372 . S
C317 C318 1.389 . S
C318 H297 0.949 . S
C318 C317 1.389 . S
C318 C319 1.387 . S
C319 C318 1.387 . S
C319 C320 1.372 . S
C320 H298 0.950 . S
C320 C319 1.372 . S
C320 C321 1.379 . S
C321 H299 0.948 . S
C321 C316 1.364 . S
C321 C320 1.379 . S
C322 C291 1.383 . S
C322 C309 1.479 . S
C322 C323 1.398 . S
C323 C288 1.382 . S
C323 H300 0.951 . S
C323 C322 1.398 . S
C324 C325 1.384 . S
C324 H337 0.947 . S
C324 C359 1.382 . S
C325 C324 1.384 . S
C325 C326 1.378 . S
C326 C325 1.378 . S
C326 C327 1.378 . S
C326 H338 0.952 . S
C327 C326 1.378 . S
C327 H339 0.950 . S
C327 C358 1.383 . S
H328 C347 0.947 . S
H329 C348 0.946 . S
H330 C350 0.953 . S
H331 C351 0.945 . S
H332 C353 0.952 . S
H333 C354 0.949 1_545 S
H334 C356 0.950 . S
H335 C357 0.948 . S
H336 C359 0.951 . S
H337 C324 0.947 . S
H338 C326 0.952 . S
H339 C327 0.950 . S
N340 C343 1.382 . S
N340 C345 1.363 . S
N341 C343 1.371 . S
N341 C344 1.372 . S
N342 C344 1.361 . S
N342 C345 1.377 . S
C343 N340 1.382 . S
C343 N341 1.371 . S
C343 C346 1.480 . S
C344 N341 1.372 . S
C344 N342 1.361 . S
C344 C352 1.457 . S
C345 N340 1.363 . S
C345 N342 1.377 . S
C345 C358 1.479 . S
C346 C343 1.480 . S
C346 C347 1.383 . S
C346 C351 1.385 1_565 S
C347 H328 0.947 . S
C347 C346 1.383 . S
C347 C348 1.388 1_565 S
C348 H329 0.946 . S
C348 C347 1.388 1_545 S
C348 C349 1.384 . S
C349 C348 1.384 . S
C349 C350 1.377 . S
C350 H330 0.953 . S
C350 C349 1.377 . S
C350 C351 1.369 . S
C351 H331 0.945 . S
C351 C346 1.385 1_545 S
C351 C350 1.369 . S
C352 C344 1.457 . S
C352 C353 1.372 . S
C352 C357 1.364 . S
C353 H332 0.952 . S
C353 C352 1.372 . S
C353 C354 1.389 . S
C354 H333 0.949 1_565 S
C354 C353 1.389 . S
C354 C355 1.387 . S
C355 C354 1.387 . S
C355 C356 1.372 . S
C356 H334 0.950 . S
C356 C355 1.372 . S
C356 C357 1.379 . S
C357 H335 0.948 . S
C357 C352 1.364 . S
C357 C356 1.379 . S
C358 C327 1.383 . S
C358 C345 1.479 . S
C358 C359 1.398 . S
C359 C324 1.382 . S
C359 H336 0.951 . S
C359 C358 1.398 . S
C360 C361 1.384 . S
C360 H373 0.947 . S
C360 C395 1.382 . S
C361 C360 1.384 . S
C361 C362 1.378 . S
C362 C361 1.378 . S
C362 C363 1.378 . S
C362 H374 0.952 . S
C363 C362 1.378 . S
C363 H375 0.950 . S
C363 C394 1.383 . S
H364 C383 0.947 . S
H365 C384 0.946 . S
H366 C386 0.953 . S
H367 C387 0.945 . S
H368 C389 0.952 . S
H369 C390 0.949 . S
H370 C392 0.950 . S
H371 C393 0.948 . S
H372 C395 0.951 . S
H373 C360 0.947 . S
H374 C362 0.952 . S
H375 C363 0.950 . S
N376 C379 1.382 . S
N376 C381 1.363 . S
N377 C379 1.371 . S
N377 C380 1.372 . S
N378 C380 1.361 . S
N378 C381 1.377 . S
C379 N376 1.382 . S
C379 N377 1.371 . S
C379 C382 1.480 . S
C380 N377 1.372 . S
C380 N378 1.361 . S
C380 C388 1.457 . S
C381 N376 1.363 . S
C381 N378 1.377 . S
C381 C394 1.479 . S
C382 C379 1.480 . S
C382 C383 1.383 . S
C382 C387 1.385 . S
C383 H364 0.947 . S
C383 C382 1.383 . S
C383 C384 1.388 . S
C384 H365 0.946 . S
C384 C383 1.388 . S
C384 C385 1.384 . S
C385 C384 1.384 . S
C385 C386 1.377 . S
C386 H366 0.953 . S
C386 C385 1.377 . S
C386 C387 1.369 . S
C387 H367 0.945 . S
C387 C382 1.385 . S
C387 C386 1.369 . S
C388 C380 1.457 . S
C388 C389 1.372 . S
C388 C393 1.364 . S
C389 H368 0.952 . S
C389 C388 1.372 . S
C389 C390 1.389 . S
C390 H369 0.949 . S
C390 C389 1.389 . S
C390 C391 1.387 . S
C391 C390 1.387 . S
C391 C392 1.372 . S
C392 H370 0.950 . S
C392 C391 1.372 . S
C392 C393 1.379 . S
C393 H371 0.948 . S
C393 C388 1.364 . S
C393 C392 1.379 . S
C394 C363 1.383 . S
C394 C381 1.479 . S
C394 C395 1.398 . S
C395 C360 1.382 . S
C395 H372 0.951 . S
C395 C394 1.398 . S
C396 C397 1.384 . S
C396 H409 0.947 . S
C396 C431 1.382 . S
C397 C396 1.384 . S
C397 C398 1.378 . S
C398 C397 1.378 . S
C398 C399 1.378 . S
C398 H410 0.952 . S
C399 C398 1.378 . S
C399 H411 0.950 . S
C399 C430 1.383 . S
H400 C419 0.947 . S
H401 C420 0.946 . S
H402 C422 0.953 . S
H403 C423 0.945 . S
H404 C425 0.952 . S
H405 C426 0.949 . S
H406 C428 0.950 . S
H407 C429 0.948 . S
H408 C431 0.951 . S
H409 C396 0.947 . S
H410 C398 0.952 . S
H411 C399 0.950 . S
N412 C415 1.382 . S
N412 C417 1.363 . S
N413 C415 1.371 . S
N413 C416 1.372 . S
N414 C416 1.361 . S
N414 C417 1.377 . S
C415 N412 1.382 . S
C415 N413 1.371 . S
C415 C418 1.480 . S
C416 N413 1.372 . S
C416 N414 1.361 . S
C416 C424 1.457 . S
C417 N412 1.363 . S
C417 N414 1.377 . S
C417 C430 1.479 . S
C418 C415 1.480 . S
C418 C419 1.383 . S
C418 C423 1.385 . S
C419 H400 0.947 . S
C419 C418 1.383 . S
C419 C420 1.388 . S
C420 H401 0.946 . S
C420 C419 1.388 . S
C420 C421 1.384 . S
C421 C420 1.384 . S
C421 C422 1.377 . S
C422 H402 0.953 . S
C422 C421 1.377 . S
C422 C423 1.369 . S
C423 H403 0.945 . S
C423 C418 1.385 . S
C423 C422 1.369 . S
C424 C416 1.457 . S
C424 C425 1.372 . S
C424 C429 1.364 . S
C425 H404 0.952 . S
C425 C424 1.372 . S
C425 C426 1.389 . S
C426 H405 0.949 . S
C426 C425 1.389 . S
C426 C427 1.387 . S
C427 C426 1.387 . S
C427 C428 1.372 . S
C428 H406 0.950 . S
C428 C427 1.372 . S
C428 C429 1.379 . S
C429 H407 0.948 . S
C429 C424 1.364 . S
C429 C428 1.379 . S
C430 C399 1.383 . S
C430 C417 1.479 . S
C430 C431 1.398 . S
C431 C396 1.382 . S
C431 H408 0.951 . S
C431 C430 1.398 . S
C432 C433 1.384 . S
C432 H445 0.947 . S
C432 C467 1.382 . S
C433 C432 1.384 . S
C433 C434 1.378 . S
C434 C433 1.378 . S
C434 C435 1.378 . S
C434 H446 0.952 . S
C435 C434 1.378 . S
C435 H447 0.950 . S
C435 C466 1.383 . S
H436 C455 0.947 . S
H437 C456 0.946 . S
H438 C458 0.953 . S
H439 C459 0.945 . S
H440 C461 0.952 . S
H441 C462 0.949 . S
H442 C464 0.950 . S
H443 C465 0.948 . S
H444 C467 0.951 . S
H445 C432 0.947 . S
H446 C434 0.952 . S
H447 C435 0.950 . S
N448 C451 1.382 . S
N448 C453 1.363 . S
N449 C451 1.371 . S
N449 C452 1.372 . S
N450 C452 1.361 . S
N450 C453 1.377 . S
C451 N448 1.382 . S
C451 N449 1.371 . S
C451 C454 1.480 . S
C452 N449 1.372 . S
C452 N450 1.361 . S
C452 C460 1.457 . S
C453 N448 1.363 . S
C453 N450 1.377 . S
C453 C466 1.479 . S
C454 C451 1.480 . S
C454 C455 1.383 . S
C454 C459 1.385 . S
C455 H436 0.947 . S
C455 C454 1.383 . S
C455 C456 1.388 . S
C456 H437 0.946 . S
C456 C455 1.388 . S
C456 C457 1.384 . S
C457 C456 1.384 . S
C457 C458 1.377 . S
C458 H438 0.953 . S
C458 C457 1.377 . S
C458 C459 1.369 . S
C459 H439 0.945 . S
C459 C454 1.385 . S
C459 C458 1.369 . S
C460 C452 1.457 . S
C460 C461 1.372 . S
C460 C465 1.364 . S
C461 H440 0.952 . S
C461 C460 1.372 . S
C461 C462 1.389 . S
C462 H441 0.949 . S
C462 C461 1.389 . S
C462 C463 1.387 . S
C463 C462 1.387 . S
C463 C464 1.372 . S
C464 H442 0.950 . S
C464 C463 1.372 . S
C464 C465 1.379 . S
C465 H443 0.948 . S
C465 C460 1.364 . S
C465 C464 1.379 . S
C466 C435 1.383 . S
C466 C453 1.479 . S
C466 C467 1.398 . S
C467 C432 1.382 . S
C467 H444 0.951 . S
C467 C466 1.398 . S
C468 C469 1.384 . S
C468 H481 0.947 . S
C468 C503 1.382 . S
C469 C468 1.384 . S
C469 C470 1.388 . S
C470 C469 1.388 . S
C470 C471 1.370 1_554 S
C470 H482 0.951 1_554 S
C471 C470 1.370 1_556 S
C471 H483 0.950 . S
C471 C502 1.383 . S
H472 C491 0.947 . S
H473 C492 0.946 . S
H474 C494 0.953 . S
H475 C495 0.945 . S
H476 C497 0.952 . S
H477 C498 0.949 . S
H478 C500 0.950 . S
H479 C501 0.948 . S
H480 C503 0.951 . S
H481 C468 0.947 . S
H482 C470 0.951 1_556 S
H483 C471 0.950 . S
N484 C487 1.382 . S
N484 C489 1.363 . S
N485 C487 1.371 . S
N485 C488 1.372 . S
N486 C488 1.361 . S
N486 C489 1.377 . S
C487 N484 1.382 . S
C487 N485 1.371 . S
C487 C490 1.480 . S
C488 N485 1.372 . S
C488 N486 1.361 . S
C488 C496 1.457 . S
C489 N484 1.363 . S
C489 N486 1.377 . S
C489 C502 1.479 . S
C490 C487 1.480 . S
C490 C491 1.383 . S
C490 C495 1.385 . S
C491 H472 0.947 . S
C491 C490 1.383 . S
C491 C492 1.388 . S
C492 H473 0.946 . S
C492 C491 1.388 . S
C492 C493 1.384 . S
C493 C492 1.384 . S
C493 C494 1.377 . S
C494 H474 0.953 . S
C494 C493 1.377 . S
C494 C495 1.369 . S
C495 H475 0.945 . S
C495 C490 1.385 . S
C495 C494 1.369 . S
C496 C488 1.457 . S
C496 C497 1.372 . S
C496 C501 1.364 . S
C497 H476 0.952 . S
C497 C496 1.372 . S
C497 C498 1.389 . S
C498 H477 0.949 . S
C498 C497 1.389 . S
C498 C499 1.387 . S
C499 C498 1.387 . S
C499 C500 1.372 . S
C500 H478 0.950 . S
C500 C499 1.372 . S
C500 C501 1.379 . S
C501 H479 0.948 . S
C501 C496 1.364 . S
C501 C500 1.379 . S
C502 C471 1.383 . S
C502 C489 1.479 . S
C502 C503 1.398 1_556 S
C503 C468 1.382 . S
C503 H480 0.951 . S
C503 C502 1.398 1_554 S
C504 C505 1.384 . S
C504 H517 0.947 . S
C504 C539 1.382 . S
C505 C504 1.384 . S
C505 C506 1.378 . S
C506 C505 1.378 . S
C506 C507 1.378 . S
C506 H518 0.952 . S
C507 C506 1.378 . S
C507 H519 0.950 . S
C507 C538 1.383 . S
H508 C527 0.947 . S
H509 C528 0.946 . S
H510 C530 0.953 . S
H511 C531 0.945 . S
H512 C533 0.952 . S
H513 C534 0.949 . S
H514 C536 0.950 . S
H515 C537 0.948 . S
H516 C539 0.951 . S
H517 C504 0.947 . S
H518 C506 0.952 . S
H519 C507 0.950 . S
N520 C523 1.382 . S
N520 C525 1.363 . S
N521 C523 1.371 . S
N521 C524 1.372 . S
N522 C524 1.361 . S
N522 C525 1.377 . S
C523 N520 1.382 . S
C523 N521 1.371 . S
C523 C526 1.480 . S
C524 N521 1.372 . S
C524 N522 1.361 . S
C524 C532 1.457 . S
C525 N520 1.363 . S
C525 N522 1.377 . S
C525 C538 1.479 . S
C526 C523 1.480 . S
C526 C527 1.383 . S
C526 C531 1.385 . S
C527 H508 0.947 . S
C527 C526 1.383 . S
C527 C528 1.388 . S
C528 H509 0.946 . S
C528 C527 1.388 . S
C528 C529 1.384 . S
C529 C528 1.384 . S
C529 C530 1.377 . S
C530 H510 0.953 . S
C530 C529 1.377 . S
C530 C531 1.369 . S
C531 H511 0.945 . S
C531 C526 1.385 . S
C531 C530 1.369 . S
C532 C524 1.457 . S
C532 C533 1.372 . S
C532 C537 1.364 . S
C533 H512 0.952 . S
C533 C532 1.372 . S
C533 C534 1.389 . S
C534 H513 0.949 . S
C534 C533 1.389 . S
C534 C535 1.387 . S
C535 C534 1.387 . S
C535 C536 1.372 . S
C536 H514 0.950 . S
C536 C535 1.372 . S
C536 C537 1.379 . S
C537 H515 0.948 . S
C537 C532 1.364 . S
C537 C536 1.379 . S
C538 C507 1.383 . S
C538 C525 1.479 . S
C538 C539 1.398 . S
C539 C504 1.382 . S
C539 H516 0.951 . S
C539 C538 1.398 . S
C540 C541 1.384 . S
C540 H553 0.947 . S
C540 C575 1.382 1_554 S
C541 C540 1.384 . S
C541 C542 1.378 . S
C542 C541 1.378 . S
C542 C543 1.378 . S
C542 H554 0.952 . S
C543 C542 1.378 . S
C543 H555 0.950 . S
C543 C574 1.392 . S
H544 C563 0.947 1_554 S
H545 C564 0.959 1_554 S
H546 C566 0.953 . S
H547 C567 0.945 . S
H548 C569 0.952 . S
H549 C570 0.949 . S
H550 C572 0.950 . S
H551 C573 0.948 . S
H552 C575 0.951 . S
H553 C540 0.947 . S
H554 C542 0.952 . S
H555 C543 0.950 . S
N556 C559 1.382 . S
N556 C561 1.363 . S
N557 C559 1.371 . S
N557 C560 1.372 . S
N558 C560 1.361 . S
N558 C561 1.377 . S
C559 N556 1.382 . S
C559 N557 1.371 . S
C559 C562 1.480 . S
C560 N557 1.372 . S
C560 N558 1.361 . S
C560 C568 1.457 . S
C561 N556 1.363 . S
C561 N558 1.377 . S
C561 C574 1.473 1_556 S
C562 C559 1.480 . S
C562 C563 1.383 . S
C562 C567 1.385 1_545 S
C563 H544 0.947 1_556 S
C563 C562 1.383 . S
C563 C564 1.414 . S
C564 H545 0.959 1_556 S
C564 C563 1.414 . S
C564 C565 1.347 1_545 S
C565 C564 1.347 1_565 S
C565 C566 1.377 . S
C566 H546 0.953 . S
C566 C565 1.377 . S
C566 C567 1.369 . S
C567 H547 0.945 . S
C567 C562 1.385 1_565 S
C567 C566 1.369 . S
C568 C560 1.457 . S
C568 C569 1.372 . S
C568 C573 1.364 . S
C569 H548 0.952 . S
C569 C568 1.372 . S
C569 C570 1.389 . S
C570 H549 0.949 . S
C570 C569 1.389 . S
C570 C571 1.387 . S
C571 C570 1.387 . S
C571 C572 1.372 . S
C572 H550 0.950 . S
C572 C571 1.372 . S
C572 C573 1.379 . S
C573 H551 0.948 . S
C573 C568 1.364 . S
C573 C572 1.379 . S
C574 C543 1.392 . S
C574 C561 1.473 1_554 S
C574 C575 1.396 1_554 S
C575 C540 1.382 1_556 S
C575 H552 0.951 . S
C575 C574 1.396 1_556 S
Mn576 O581 2.095 . S
Mn576 O591 2.162 . S
Mn576 O592 2.297 . S
Mn576 O600 2.392 . S
Mn576 O601 2.209 1_554 S
Mn576 O602 2.094 . S
Mn577 O582 2.121 . S
Mn577 N584 2.257 . S
Mn577 N593 2.282 . S
Mn577 O601 2.215 . S
Mn577 O603 2.117 . S
C578 O600 1.221 1_556 S
C578 O601 1.283 . S
C579 O591 1.281 . S
C579 O592 1.236 . S
C580 O602 1.240 . S
C580 O603 1.264 1_554 S
O581 Mn576 2.095 . S
O581 C590 1.250 . S
O582 Mn577 2.121 . S
O582 C590 1.258 1_556 S
C583 N584 1.326 . S
C583 C587 1.460 . S
C583 H589 0.929 . S
N584 Mn577 2.257 . S
N584 C583 1.326 . S
N584 C588 1.362 . S
C585 C586 1.258 . S
C585 C588 1.431 . S
C585 C605 1.449 . S
C586 C585 1.258 . S
C586 C587 1.477 . S
C586 H606 0.931 . S
C587 C583 1.460 . S
C587 C586 1.477 . S
C587 H607 0.930 . S
C588 N584 1.362 . S
C588 C585 1.431 . S
C588 C598 1.476 . S
H589 C583 0.929 . S
C590 O581 1.250 . S
C590 O582 1.258 1_554 S
O591 Mn576 2.162 . S
O591 C579 1.281 . S
O592 Mn576 2.297 . S
O592 C579 1.236 . S
N593 Mn577 2.282 . S
N593 C594 1.328 . S
N593 C598 1.318 . S
C594 N593 1.328 . S
C594 C595 1.457 . S
C594 H599 0.929 . S
C595 C594 1.457 . S
C595 C596 1.291 . S
C595 H608 0.931 . S
C596 C595 1.291 . S
C596 C597 1.373 . S
C596 H609 0.929 . S
C597 C596 1.373 . S
C597 C598 1.396 . S
C597 C604 1.403 . S
C598 C588 1.476 . S
C598 N593 1.318 . S
C598 C597 1.396 . S
H599 C594 0.929 . S
O600 Mn576 2.392 . S
O600 C578 1.221 1_554 S
O601 Mn576 2.209 1_556 S
O601 Mn577 2.215 . S
O601 C578 1.283 . S
O602 Mn576 2.094 . S
O602 C580 1.240 . S
O603 Mn577 2.117 . S
O603 C580 1.264 1_556 S
C604 C597 1.403 . S
C604 C605 1.399 . S
C604 H610 0.929 . S
C605 C585 1.449 . S
C605 C604 1.399 . S
C605 H611 0.930 . S
H606 C586 0.931 . S
H607 C587 0.930 . S
H608 C595 0.931 . S
H609 C596 0.929 . S
H610 C604 0.929 . S
H611 C605 0.930 . S
Mn612 O617 2.095 . S
Mn612 O627 2.162 . S
Mn612 O628 2.297 . S
Mn612 O636 2.385 . S
Mn612 O637 2.209 . S
Mn612 O638 2.094 . S
Mn613 O618 2.121 . S
Mn613 N620 2.257 . S
Mn613 N629 2.282 . S
Mn613 O637 2.215 . S
Mn613 O639 2.117 . S
C614 O636 1.234 . S
C614 O637 1.283 . S
C615 O627 1.281 . S
C615 O628 1.236 . S
C616 O638 1.240 . S
C616 O639 1.264 . S
O617 Mn612 2.095 . S
O617 C626 1.250 . S
O618 Mn613 2.121 . S
O618 C626 1.258 . S
C619 N620 1.326 . S
C619 C623 1.460 . S
C619 H625 0.929 . S
N620 Mn613 2.257 . S
N620 C619 1.326 . S
N620 C624 1.362 . S
C621 C622 1.258 . S
C621 C624 1.431 . S
C621 C641 1.449 . S
C622 C621 1.258 . S
C622 C623 1.477 . S
C622 H642 0.931 . S
C623 C619 1.460 . S
C623 C622 1.477 . S
C623 H643 0.930 . S
C624 N620 1.362 . S
C624 C621 1.431 . S
C624 C634 1.476 . S
H625 C619 0.929 . S
C626 O617 1.250 . S
C626 O618 1.258 . S
O627 Mn612 2.162 . S
O627 C615 1.281 . S
O628 Mn612 2.297 . S
O628 C615 1.236 . S
N629 Mn613 2.282 . S
N629 C630 1.328 . S
N629 C634 1.318 . S
C630 N629 1.328 . S
C630 C631 1.457 . S
C630 H635 0.929 . S
C631 C630 1.457 . S
C631 C632 1.291 . S
C631 H644 0.931 . S
C632 C631 1.291 . S
C632 C633 1.373 . S
C632 H645 0.929 . S
C633 C632 1.373 . S
C633 C634 1.396 . S
C633 C640 1.403 . S
C634 C624 1.476 . S
C634 N629 1.318 . S
C634 C633 1.396 . S
H635 C630 0.929 . S
O636 Mn612 2.385 . S
O636 C614 1.234 . S
O637 Mn612 2.209 . S
O637 Mn613 2.215 . S
O637 C614 1.283 . S
O638 Mn612 2.094 . S
O638 C616 1.240 . S
O639 Mn613 2.117 . S
O639 C616 1.264 . S
C640 C633 1.403 . S
C640 C641 1.399 . S
C640 H646 0.929 . S
C641 C621 1.449 . S
C641 C640 1.399 . S
C641 H647 0.930 . S
H642 C622 0.931 . S
H643 C623 0.930 . S
H644 C631 0.931 . S
H645 C632 0.929 . S
H646 C640 0.929 . S
H647 C641 0.930 . S
Mn648 O653 2.095 1_554 S
Mn648 O663 2.162 . S
Mn648 O664 2.297 1_554 S
Mn648 O672 2.385 . S
Mn648 O673 2.209 1_554 S
Mn648 O674 2.094 . S
Mn649 O654 2.121 . S
Mn649 N656 2.257 . S
Mn649 N665 2.282 . S
Mn649 O673 2.215 . S
Mn649 O675 2.117 1_556 S
C650 O672 1.233 . S
C650 O673 1.284 1_554 S
C651 O663 1.281 . S
C651 O664 1.236 1_554 S
C652 O674 1.240 . S
C652 O675 1.264 . S
O653 Mn648 2.095 1_556 S
O653 C662 1.250 . S
O654 Mn649 2.121 . S
O654 C662 1.258 . S
C655 N656 1.326 . S
C655 C659 1.460 . S
C655 H661 0.929 . S
N656 Mn649 2.257 . S
N656 C655 1.326 . S
N656 C660 1.362 . S
C657 C658 1.258 . S
C657 C660 1.431 . S
C657 C677 1.449 . S
C658 C657 1.258 . S
C658 C659 1.477 . S
C658 H678 0.931 . S
C659 C655 1.460 . S
C659 C658 1.477 . S
C659 H679 0.930 . S
C660 N656 1.362 . S
C660 C657 1.431 . S
C660 C670 1.476 . S
H661 C655 0.929 . S
C662 O653 1.250 . S
C662 O654 1.258 . S
O663 Mn648 2.162 . S
O663 C651 1.281 . S
O664 Mn648 2.297 1_556 S
O664 C651 1.236 1_556 S
N665 Mn649 2.282 . S
N665 C666 1.328 1_556 S
N665 C670 1.318 . S
C666 N665 1.328 1_554 S
C666 C667 1.457 . S
C666 H671 0.929 . S
C667 C666 1.457 . S
C667 C668 1.291 . S
C667 H680 0.931 . S
C668 C667 1.291 . S
C668 C669 1.373 1_554 S
C668 H681 0.929 . S
C669 C668 1.373 1_556 S
C669 C670 1.396 . S
C669 C676 1.403 . S
C670 C660 1.476 . S
C670 N665 1.318 . S
C670 C669 1.396 . S
H671 C666 0.929 . S
O672 Mn648 2.385 . S
O672 C650 1.233 . S
O673 Mn648 2.209 1_556 S
O673 Mn649 2.215 . S
O673 C650 1.284 1_556 S
O674 Mn648 2.094 . S
O674 C652 1.240 . S
O675 Mn649 2.117 1_554 S
O675 C652 1.264 . S
C676 C669 1.403 . S
C676 C677 1.399 . S
C676 H682 0.929 . S
C677 C657 1.449 . S
C677 C676 1.399 . S
C677 H683 0.930 . S
H678 C658 0.931 . S
H679 C659 0.930 . S
H680 C667 0.931 . S
H681 C668 0.929 . S
H682 C676 0.929 . S
H683 C677 0.930 . S
Mn684 O689 2.095 . S
Mn684 O699 2.162 . S
Mn684 O700 2.297 . S
Mn684 O708 2.364 1_545 S
Mn684 O709 2.209 1_545 S
Mn684 O710 2.094 . S
Mn685 O690 2.121 . S
Mn685 N692 2.257 . S
Mn685 N701 2.282 . S
Mn685 O709 2.215 . S
Mn685 O711 2.117 . S
C686 O708 1.276 . S
C686 O709 1.283 . S
C687 O699 1.281 . S
C687 O700 1.236 . S
C688 O710 1.240 . S
C688 O711 1.264 1_545 S
O689 Mn684 2.095 . S
O689 C698 1.282 . S
O690 Mn685 2.121 . S
O690 C698 1.217 1_565 S
C691 N692 1.326 . S
C691 C695 1.460 . S
C691 H697 0.929 . S
N692 Mn685 2.257 . S
N692 C691 1.326 . S
N692 C696 1.362 . S
C693 C694 1.258 . S
C693 C696 1.431 . S
C693 C713 1.449 . S
C694 C693 1.258 . S
C694 C695 1.477 . S
C694 H714 0.931 . S
C695 C691 1.460 . S
C695 C694 1.477 . S
C695 H715 0.930 . S
C696 N692 1.362 . S
C696 C693 1.431 . S
C696 C706 1.476 . S
H697 C691 0.929 . S
C698 O689 1.282 . S
C698 O690 1.217 1_545 S
O699 Mn684 2.162 . S
O699 C687 1.281 . S
O700 Mn684 2.297 . S
O700 C687 1.236 . S
N701 Mn685 2.282 . S
N701 C702 1.328 . S
N701 C706 1.318 . S
C702 N701 1.328 . S
C702 C703 1.457 . S
C702 H707 0.929 . S
C703 C702 1.457 . S
C703 C704 1.291 . S
C703 H716 0.931 . S
C704 C703 1.291 . S
C704 C705 1.373 . S
C704 H717 0.929 . S
C705 C704 1.373 . S
C705 C706 1.396 . S
C705 C712 1.403 . S
C706 C696 1.476 . S
C706 N701 1.318 . S
C706 C705 1.396 . S
H707 C702 0.929 . S
O708 Mn684 2.364 1_565 S
O708 C686 1.276 . S
O709 Mn684 2.209 1_565 S
O709 Mn685 2.215 . S
O709 C686 1.283 . S
O710 Mn684 2.094 . S
O710 C688 1.240 . S
O711 Mn685 2.117 . S
O711 C688 1.264 1_565 S
C712 C705 1.403 . S
C712 C713 1.399 . S
C712 H718 0.929 . S
C713 C693 1.449 . S
C713 C712 1.399 . S
C713 H719 0.930 . S
H714 C694 0.931 . S
H715 C695 0.930 . S
H716 C703 0.931 . S
H717 C704 0.929 . S
H718 C712 0.929 . S
H719 C713 0.930 . S
Mn720 O725 2.095 . S
Mn720 O735 2.162 . S
Mn720 O736 2.297 . S
Mn720 O744 2.385 . S
Mn720 O745 2.209 . S
Mn720 O746 2.094 . S
Mn721 O726 2.121 . S
Mn721 N728 2.257 . S
Mn721 N737 2.282 . S
Mn721 O745 2.215 . S
Mn721 O747 2.117 . S
C722 O744 1.234 . S
C722 O745 1.283 . S
C723 O735 1.281 . S
C723 O736 1.236 . S
C724 O746 1.240 . S
C724 O747 1.264 . S
O725 Mn720 2.095 . S
O725 C734 1.250 . S
O726 Mn721 2.121 . S
O726 C734 1.258 . S
C727 N728 1.326 . S
C727 C731 1.460 . S
C727 H733 0.929 . S
N728 Mn721 2.257 . S
N728 C727 1.326 . S
N728 C732 1.362 . S
C729 C730 1.258 . S
C729 C732 1.431 . S
C729 C749 1.449 . S
C730 C729 1.258 . S
C730 C731 1.477 . S
C730 H750 0.931 . S
C731 C727 1.460 . S
C731 C730 1.477 . S
C731 H751 0.930 . S
C732 N728 1.362 . S
C732 C729 1.431 . S
C732 C742 1.476 . S
H733 C727 0.929 . S
C734 O725 1.250 . S
C734 O726 1.258 . S
O735 Mn720 2.162 . S
O735 C723 1.281 . S
O736 Mn720 2.297 . S
O736 C723 1.236 . S
N737 Mn721 2.282 . S
N737 C738 1.328 . S
N737 C742 1.318 . S
C738 N737 1.328 . S
C738 C739 1.457 . S
C738 H743 0.929 . S
C739 C738 1.457 . S
C739 C740 1.291 . S
C739 H752 0.931 . S
C740 C739 1.291 . S
C740 C741 1.373 . S
C740 H753 0.929 . S
C741 C740 1.373 . S
C741 C742 1.396 . S
C741 C748 1.403 . S
C742 C732 1.476 . S
C742 N737 1.318 . S
C742 C741 1.396 . S
H743 C738 0.929 . S
O744 Mn720 2.385 . S
O744 C722 1.234 . S
O745 Mn720 2.209 . S
O745 Mn721 2.215 . S
O745 C722 1.283 . S
O746 Mn720 2.094 . S
O746 C724 1.240 . S
O747 Mn721 2.117 . S
O747 C724 1.264 . S
C748 C741 1.403 . S
C748 C749 1.399 . S
C748 H754 0.929 . S
C749 C729 1.449 . S
C749 C748 1.399 . S
C749 H755 0.930 . S
H750 C730 0.931 . S
H751 C731 0.930 . S
H752 C739 0.931 . S
H753 C740 0.929 . S
H754 C748 0.929 . S
H755 C749 0.930 . S
Mn756 O761 2.095 . S
Mn756 O771 2.162 . S
Mn756 O772 2.297 . S
Mn756 O780 2.385 . S
Mn756 O781 2.209 . S
Mn756 O782 2.094 . S
Mn757 O762 2.121 . S
Mn757 N764 2.257 . S
Mn757 N773 2.282 . S
Mn757 O781 2.215 . S
Mn757 O783 2.117 . S
C758 O780 1.234 . S
C758 O781 1.283 . S
C759 O771 1.281 . S
C759 O772 1.236 . S
C760 O782 1.240 . S
C760 O783 1.264 . S
O761 Mn756 2.095 . S
O761 C770 1.250 . S
O762 Mn757 2.121 . S
O762 C770 1.258 . S
C763 N764 1.326 . S
C763 C767 1.460 . S
C763 H769 0.929 . S
N764 Mn757 2.257 . S
N764 C763 1.326 . S
N764 C768 1.362 . S
C765 C766 1.258 . S
C765 C768 1.431 . S
C765 C785 1.449 . S
C766 C765 1.258 . S
C766 C767 1.477 . S
C766 H786 0.931 . S
C767 C763 1.460 . S
C767 C766 1.477 . S
C767 H787 0.930 . S
C768 N764 1.362 . S
C768 C765 1.431 . S
C768 C778 1.476 . S
H769 C763 0.929 . S
C770 O761 1.250 . S
C770 O762 1.258 . S
O771 Mn756 2.162 . S
O771 C759 1.281 . S
O772 Mn756 2.297 . S
O772 C759 1.236 . S
N773 Mn757 2.282 . S
N773 C774 1.328 . S
N773 C778 1.318 . S
C774 N773 1.328 . S
C774 C775 1.457 . S
C774 H779 0.929 . S
C775 C774 1.457 . S
C775 C776 1.291 . S
C775 H788 0.931 . S
C776 C775 1.291 . S
C776 C777 1.373 . S
C776 H789 0.929 . S
C777 C776 1.373 . S
C777 C778 1.396 . S
C777 C784 1.403 . S
C778 C768 1.476 . S
C778 N773 1.318 . S
C778 C777 1.396 . S
H779 C774 0.929 . S
O780 Mn756 2.385 . S
O780 C758 1.234 . S
O781 Mn756 2.209 . S
O781 Mn757 2.215 . S
O781 C758 1.283 . S
O782 Mn756 2.094 . S
O782 C760 1.240 . S
O783 Mn757 2.117 . S
O783 C760 1.264 . S
C784 C777 1.403 . S
C784 C785 1.399 . S
C784 H790 0.929 . S
C785 C765 1.449 . S
C785 C784 1.399 . S
C785 H791 0.930 . S
H786 C766 0.931 . S
H787 C767 0.930 . S
H788 C775 0.931 . S
H789 C776 0.929 . S
H790 C784 0.929 . S
H791 C785 0.930 . S
Mn792 O797 2.095 . S
Mn792 O807 2.162 . S
Mn792 O808 2.297 . S
Mn792 O816 2.385 . S
Mn792 O817 2.209 . S
Mn792 O818 2.094 . S
Mn793 O798 2.121 . S
Mn793 N800 2.257 . S
Mn793 N809 2.282 . S
Mn793 O817 2.215 . S
Mn793 O819 2.117 . S
C794 O816 1.234 . S
C794 O817 1.283 . S
C795 O807 1.281 . S
C795 O808 1.236 . S
C796 O818 1.240 . S
C796 O819 1.264 . S
O797 Mn792 2.095 . S
O797 C806 1.250 . S
O798 Mn793 2.121 . S
O798 C806 1.258 . S
C799 N800 1.326 . S
C799 C803 1.460 . S
C799 H805 0.929 . S
N800 Mn793 2.257 . S
N800 C799 1.326 . S
N800 C804 1.362 . S
C801 C802 1.258 . S
C801 C804 1.431 . S
C801 C821 1.449 . S
C802 C801 1.258 . S
C802 C803 1.477 . S
C802 H822 0.931 . S
C803 C799 1.460 . S
C803 C802 1.477 . S
C803 H823 0.930 . S
C804 N800 1.362 . S
C804 C801 1.431 . S
C804 C814 1.476 . S
H805 C799 0.929 . S
C806 O797 1.250 . S
C806 O798 1.258 . S
O807 Mn792 2.162 . S
O807 C795 1.281 . S
O808 Mn792 2.297 . S
O808 C795 1.236 . S
N809 Mn793 2.282 . S
N809 C810 1.328 . S
N809 C814 1.318 . S
C810 N809 1.328 . S
C810 C811 1.457 . S
C810 H815 0.929 . S
C811 C810 1.457 . S
C811 C812 1.291 . S
C811 H824 0.931 . S
C812 C811 1.291 . S
C812 C813 1.373 . S
C812 H825 0.929 . S
C813 C812 1.373 . S
C813 C814 1.396 . S
C813 C820 1.403 . S
C814 C804 1.476 . S
C814 N809 1.318 . S
C814 C813 1.396 . S
H815 C810 0.929 . S
O816 Mn792 2.385 . S
O816 C794 1.234 . S
O817 Mn792 2.209 . S
O817 Mn793 2.215 . S
O817 C794 1.283 . S
O818 Mn792 2.094 . S
O818 C796 1.240 . S
O819 Mn793 2.117 . S
O819 C796 1.264 . S
C820 C813 1.403 . S
C820 C821 1.399 . S
C820 H826 0.929 . S
C821 C801 1.449 . S
C821 C820 1.399 . S
C821 H827 0.930 . S
H822 C802 0.931 . S
H823 C803 0.930 . S
H824 C811 0.931 . S
H825 C812 0.929 . S
H826 C820 0.929 . S
H827 C821 0.930 . S
Mn828 O833 2.095 . S
Mn828 O843 2.162 . S
Mn828 O844 2.297 . S
Mn828 O852 2.385 1_565 S
Mn828 O853 2.209 1_565 S
Mn828 O854 2.094 . S
Mn829 O834 2.121 . S
Mn829 N836 2.257 . S
Mn829 N845 2.282 . S
Mn829 O853 2.215 . S
Mn829 O855 2.117 . S
C830 O852 1.234 . S
C830 O853 1.283 . S
C831 O843 1.281 . S
C831 O844 1.236 . S
C832 O854 1.219 1_545 S
C832 O855 1.292 . S
O833 Mn828 2.095 . S
O833 C842 1.250 1_565 S
O834 Mn829 2.121 . S
O834 C842 1.258 . S
C835 N836 1.326 . S
C835 C839 1.460 . S
C835 H841 0.929 . S
N836 Mn829 2.257 . S
N836 C835 1.326 . S
N836 C840 1.362 . S
C837 C838 1.258 . S
C837 C840 1.431 . S
C837 C857 1.449 . S
C838 C837 1.258 . S
C838 C839 1.477 . S
C838 H858 0.931 . S
C839 C835 1.460 . S
C839 C838 1.477 . S
C839 H859 0.930 . S
C840 N836 1.362 . S
C840 C837 1.431 . S
C840 C850 1.476 . S
H841 C835 0.929 . S
C842 O833 1.250 1_545 S
C842 O834 1.258 . S
O843 Mn828 2.162 . S
O843 C831 1.281 . S
O844 Mn828 2.297 . S
O844 C831 1.236 . S
N845 Mn829 2.282 . S
N845 C846 1.328 . S
N845 C850 1.318 . S
C846 N845 1.328 . S
C846 C847 1.457 . S
C846 H851 0.929 . S
C847 C846 1.457 . S
C847 C848 1.291 . S
C847 H860 0.931 . S
C848 C847 1.291 . S
C848 C849 1.373 . S
C848 H861 0.929 . S
C849 C848 1.373 . S
C849 C850 1.396 . S
C849 C856 1.403 . S
C850 C840 1.476 . S
C850 N845 1.318 . S
C850 C849 1.396 . S
H851 C846 0.929 . S
O852 Mn828 2.385 1_545 S
O852 C830 1.234 . S
O853 Mn828 2.209 1_545 S
O853 Mn829 2.215 . S
O853 C830 1.283 . S
O854 Mn828 2.094 . S
O854 C832 1.219 1_565 S
O855 Mn829 2.117 . S
O855 C832 1.292 . S
C856 C849 1.403 . S
C856 C857 1.399 . S
C856 H862 0.929 . S
C857 C837 1.449 . S
C857 C856 1.399 . S
C857 H863 0.930 . S
H858 C838 0.931 . S
H859 C839 0.930 . S
H860 C847 0.931 . S
H861 C848 0.929 . S
H862 C856 0.929 . S
H863 C857 0.930 . S
Mn864 O869 2.095 . S
Mn864 O879 2.162 . S
Mn864 O880 2.297 . S
Mn864 O888 2.385 1_455 S
Mn864 O889 2.209 1_455 S
Mn864 O890 2.094 . S
Mn865 O870 2.121 . S
Mn865 N872 2.257 . S
Mn865 N881 2.282 . S
Mn865 O889 2.215 . S
Mn865 O891 2.117 . S
C866 O888 1.234 . S
C866 O889 1.283 . S
C867 O879 1.281 . S
C867 O880 1.236 . S
C868 O890 1.240 . S
C868 O891 1.264 1_455 S
O869 Mn864 2.095 . S
O869 C878 1.250 1_455 S
O870 Mn865 2.121 . S
O870 C878 1.258 . S
C871 N872 1.326 . S
C871 C875 1.460 . S
C871 H877 0.929 . S
N872 Mn865 2.257 . S
N872 C871 1.326 . S
N872 C876 1.362 . S
C873 C874 1.258 . S
C873 C876 1.431 . S
C873 C893 1.449 . S
C874 C873 1.258 . S
C874 C875 1.477 . S
C874 H894 0.931 . S
C875 C871 1.460 . S
C875 C874 1.477 . S
C875 H895 0.930 . S
C876 N872 1.362 . S
C876 C873 1.431 . S
C876 C886 1.476 . S
H877 C871 0.929 . S
C878 O869 1.250 1_655 S
C878 O870 1.258 . S
O879 Mn864 2.162 . S
O879 C867 1.281 . S
O880 Mn864 2.297 . S
O880 C867 1.236 . S
N881 Mn865 2.282 . S
N881 C882 1.328 . S
N881 C886 1.318 . S
C882 N881 1.328 . S
C882 C883 1.457 . S
C882 H887 0.929 . S
C883 C882 1.457 . S
C883 C884 1.291 . S
C883 H896 0.931 . S
C884 C883 1.291 . S
C884 C885 1.373 . S
C884 H897 0.929 . S
C885 C884 1.373 . S
C885 C886 1.396 . S
C885 C892 1.403 . S
C886 C876 1.476 . S
C886 N881 1.318 . S
C886 C885 1.396 . S
H887 C882 0.929 . S
O888 Mn864 2.385 1_655 S
O888 C866 1.234 . S
O889 Mn864 2.209 1_655 S
O889 Mn865 2.215 . S
O889 C866 1.283 . S
O890 Mn864 2.094 . S
O890 C868 1.240 . S
O891 Mn865 2.117 . S
O891 C868 1.264 1_655 S
C892 C885 1.403 . S
C892 C893 1.399 . S
C892 H898 0.929 . S
C893 C873 1.449 . S
C893 C892 1.399 . S
C893 H899 0.930 . S
H894 C874 0.931 . S
H895 C875 0.930 . S
H896 C883 0.931 . S
H897 C884 0.929 . S
H898 C892 0.929 . S
H899 C893 0.930 . S
Mn900 O905 2.095 . S
Mn900 O915 2.162 . S
Mn900 O916 2.297 . S
Mn900 O924 2.385 . S
Mn900 O925 2.209 . S
Mn900 O926 2.094 . S
Mn901 O906 2.121 . S
Mn901 N908 2.257 . S
Mn901 N917 2.282 . S
Mn901 O925 2.215 . S
Mn901 O927 2.117 . S
C902 O924 1.234 . S
C902 O925 1.283 . S
C903 O915 1.281 . S
C903 O916 1.236 . S
C904 O926 1.240 . S
C904 O927 1.264 . S
O905 Mn900 2.095 . S
O905 C914 1.250 . S
O906 Mn901 2.121 . S
O906 C914 1.258 . S
C907 N908 1.326 . S
C907 C911 1.460 . S
C907 H913 0.929 . S
N908 Mn901 2.257 . S
N908 C907 1.326 . S
N908 C912 1.362 . S
C909 C910 1.258 . S
C909 C912 1.431 . S
C909 C929 1.449 . S
C910 C909 1.258 . S
C910 C911 1.477 . S
C910 H930 0.931 . S
C911 C907 1.460 . S
C911 C910 1.477 . S
C911 H931 0.930 . S
C912 N908 1.362 . S
C912 C909 1.431 . S
C912 C922 1.476 . S
H913 C907 0.929 . S
C914 O905 1.250 . S
C914 O906 1.258 . S
O915 Mn900 2.162 . S
O915 C903 1.281 . S
O916 Mn900 2.297 . S
O916 C903 1.236 . S
N917 Mn901 2.282 . S
N917 C918 1.328 . S
N917 C922 1.318 . S
C918 N917 1.328 . S
C918 C919 1.457 . S
C918 H923 0.929 . S
C919 C918 1.457 . S
C919 C920 1.291 . S
C919 H932 0.931 . S
C920 C919 1.291 . S
C920 C921 1.373 . S
C920 H933 0.929 . S
C921 C920 1.373 . S
C921 C922 1.396 . S
C921 C928 1.403 . S
C922 C912 1.476 . S
C922 N917 1.318 . S
C922 C921 1.396 . S
H923 C918 0.929 . S
O924 Mn900 2.385 . S
O924 C902 1.234 . S
O925 Mn900 2.209 . S
O925 Mn901 2.215 . S
O925 C902 1.283 . S
O926 Mn900 2.094 . S
O926 C904 1.240 . S
O927 Mn901 2.117 . S
O927 C904 1.264 . S
C928 C921 1.403 . S
C928 C929 1.399 . S
C928 H934 0.929 . S
C929 C909 1.449 . S
C929 C928 1.399 . S
C929 H935 0.930 . S
H930 C910 0.931 . S
H931 C911 0.930 . S
H932 C919 0.931 . S
H933 C920 0.929 . S
H934 C928 0.929 . S
H935 C929 0.930 . S
Mn936 O941 2.095 1_455 S
Mn936 O951 2.162 . S
Mn936 O952 2.297 1_455 S
Mn936 O960 2.385 . S
Mn936 O961 2.209 1_455 S
Mn936 O962 2.094 . S
Mn937 O942 2.121 . S
Mn937 N944 2.257 . S
Mn937 N953 2.282 1_655 S
Mn937 O961 2.215 . S
Mn937 O963 2.117 1_655 S
C938 O960 1.234 . S
C938 O961 1.283 1_455 S
C939 O951 1.281 . S
C939 O952 1.236 1_455 S
C940 O962 1.240 . S
C940 O963 1.264 . S
O941 Mn936 2.095 1_655 S
O941 C950 1.250 . S
O942 Mn937 2.121 . S
O942 C950 1.258 . S
C943 N944 1.326 . S
C943 C947 1.460 . S
C943 H949 0.929 . S
N944 Mn937 2.257 . S
N944 C943 1.326 . S
N944 C948 1.362 . S
C945 C946 1.258 . S
C945 C948 1.431 . S
C945 C965 1.449 . S
C946 C945 1.258 . S
C946 C947 1.477 . S
C946 H966 0.931 . S
C947 C943 1.460 . S
C947 C946 1.477 . S
C947 H967 0.930 . S
C948 N944 1.362 . S
C948 C945 1.431 . S
C948 C958 1.476 . S
H949 C943 0.929 . S
C950 O941 1.250 . S
C950 O942 1.258 . S
O951 Mn936 2.162 . S
O951 C939 1.281 . S
O952 Mn936 2.297 1_655 S
O952 C939 1.236 1_655 S
N953 Mn937 2.282 1_455 S
N953 C954 1.328 . S
N953 C958 1.318 1_455 S
C954 N953 1.328 . S
C954 C955 1.457 . S
C954 H959 0.929 . S
C955 C954 1.457 . S
C955 C956 1.291 . S
C955 H968 0.931 . S
C956 C955 1.291 . S
C956 C957 1.373 1_455 S
C956 H969 0.929 . S
C957 C956 1.373 1_655 S
C957 C958 1.396 . S
C957 C964 1.403 . S
C958 C948 1.476 . S
C958 N953 1.318 1_655 S
C958 C957 1.396 . S
H959 C954 0.929 . S
O960 Mn936 2.385 . S
O960 C938 1.234 . S
O961 Mn936 2.209 1_655 S
O961 Mn937 2.215 . S
O961 C938 1.283 1_655 S
O962 Mn936 2.094 . S
O962 C940 1.240 . S
O963 Mn937 2.117 1_455 S
O963 C940 1.264 . S
C964 C957 1.403 . S
C964 C965 1.399 . S
C964 H970 0.929 . S
C965 C945 1.449 . S
C965 C964 1.399 . S
C965 H971 0.930 . S
H966 C946 0.931 . S
H967 C947 0.930 . S
H968 C955 0.931 . S
H969 C956 0.929 . S
H970 C964 0.929 . S
H971 C965 0.930 . S
Mn972 O977 2.095 . S
Mn972 O987 2.162 . S
Mn972 O988 2.297 . S
Mn972 O996 2.385 . S
Mn972 O997 2.209 . S
Mn972 O998 2.094 . S
Mn973 O978 2.121 . S
Mn973 N980 2.257 . S
Mn973 N989 2.282 . S
Mn973 O997 2.215 . S
Mn973 O999 2.117 . S
C974 O996 1.234 . S
C974 O997 1.283 . S
C975 O987 1.281 . S
C975 O988 1.236 . S
C976 O998 1.240 . S
C976 O999 1.264 . S
O977 Mn972 2.095 . S
O977 C986 1.250 . S
O978 Mn973 2.121 . S
O978 C986 1.258 . S
C979 N980 1.326 . S
C979 C983 1.460 . S
C979 H985 0.929 . S
N980 Mn973 2.257 . S
N980 C979 1.326 . S
N980 C984 1.362 . S
C981 C982 1.258 . S
C981 C984 1.431 . S
C981 C1001 1.449 . S
C982 C981 1.258 . S
C982 C983 1.477 . S
C982 H1002 0.931 . S
C983 C979 1.460 . S
C983 C982 1.477 . S
C983 H1003 0.930 . S
C984 N980 1.362 . S
C984 C981 1.431 . S
C984 C994 1.476 . S
H985 C979 0.929 . S
C986 O977 1.250 . S
C986 O978 1.258 . S
O987 Mn972 2.162 . S
O987 C975 1.281 . S
O988 Mn972 2.297 . S
O988 C975 1.236 . S
N989 Mn973 2.282 . S
N989 C990 1.328 . S
N989 C994 1.318 . S
C990 N989 1.328 . S
C990 C991 1.457 . S
C990 H995 0.929 . S
C991 C990 1.457 . S
C991 C992 1.291 . S
C991 H1004 0.931 . S
C992 C991 1.291 . S
C992 C993 1.373 . S
C992 H1005 0.929 . S
C993 C992 1.373 . S
C993 C994 1.396 . S
C993 C1000 1.403 . S
C994 C984 1.476 . S
C994 N989 1.318 . S
C994 C993 1.396 . S
H995 C990 0.929 . S
O996 Mn972 2.385 . S
O996 C974 1.234 . S
O997 Mn972 2.209 . S
O997 Mn973 2.215 . S
O997 C974 1.283 . S
O998 Mn972 2.094 . S
O998 C976 1.240 . S
O999 Mn973 2.117 . S
O999 C976 1.264 . S
C1000 C993 1.403 . S
C1000 C1001 1.399 . S
C1000 H1006 0.929 . S
C1001 C981 1.449 . S
C1001 C1000 1.399 . S
C1001 H1007 0.930 . S
H1002 C982 0.931 . S
H1003 C983 0.930 . S
H1004 C991 0.931 . S
H1005 C992 0.929 . S
H1006 C1000 0.929 . S
H1007 C1001 0.930 . S
H1008 C1014 0.930 . S
H1009 C1018 0.930 . S
H1010 C1023 0.929 . S
H1011 C1021 0.929 . S
H1012 C1016 0.929 . S
H1013 C1022 0.929 . S
C1014 H1008 0.930 . S
C1014 C1015 1.367 . S
C1014 C1022 1.378 . S
C1015 C1014 1.367 . S
C1015 C1023 1.433 . S
C1016 H1012 0.929 . S
C1016 C1018 1.378 . S
C1016 C1020 1.350 . S
C1017 C1020 1.463 . S
C1017 C1022 1.350 . S
C1017 N1025 1.427 . S
C1018 H1009 0.930 . S
C1018 C1016 1.378 . S
C1018 C1019 1.367 . S
C1019 C1018 1.367 . S
C1019 C1021 1.433 . S
C1020 C1016 1.350 . S
C1020 C1017 1.463 . S
C1020 N1024 1.427 . S
C1021 H1011 0.929 . S
C1021 C1019 1.433 . S
C1021 N1024 1.384 . S
C1022 H1013 0.929 . S
C1022 C1014 1.378 . S
C1022 C1017 1.350 . S
C1023 H1010 0.929 . S
C1023 C1015 1.433 . S
C1023 N1025 1.384 . S
N1024 C1020 1.427 . S
N1024 C1021 1.384 . S
N1025 C1017 1.427 . S
N1025 C1023 1.384 . S
H1026 C1032 0.930 . S
H1027 C1036 0.930 . S
H1028 C1041 0.929 . S
H1029 C1039 0.929 . S
H1030 C1034 0.929 . S
H1031 C1040 0.929 . S
C1032 H1026 0.930 . S
C1032 C1033 1.367 . S
C1032 C1040 1.378 . S
C1033 C1032 1.367 . S
C1033 C1041 1.433 . S
C1034 H1030 0.929 . S
C1034 C1036 1.378 . S
C1034 C1038 1.350 . S
C1035 C1038 1.463 . S
C1035 C1040 1.350 . S
C1035 N1043 1.427 . S
C1036 H1027 0.930 . S
C1036 C1034 1.378 . S
C1036 C1037 1.367 . S
C1037 C1036 1.367 . S
C1037 C1039 1.433 . S
C1038 C1034 1.350 . S
C1038 C1035 1.463 . S
C1038 N1042 1.427 . S
C1039 H1029 0.929 . S
C1039 C1037 1.433 . S
C1039 N1042 1.384 . S
C1040 H1031 0.929 . S
C1040 C1032 1.378 . S
C1040 C1035 1.350 . S
C1041 H1028 0.929 . S
C1041 C1033 1.433 . S
C1041 N1043 1.384 . S
N1042 C1038 1.427 . S
N1042 C1039 1.384 . S
N1043 C1035 1.427 . S
N1043 C1041 1.384 . S
H1044 C1050 0.930 . S
H1045 C1054 0.930 . S
H1046 C1059 0.929 . S
H1047 C1057 0.929 . S
H1048 C1052 0.929 . S
H1049 C1058 0.929 . S
C1050 H1044 0.930 . S
C1050 C1051 1.367 . S
C1050 C1058 1.378 . S
C1051 C1050 1.367 . S
C1051 C1059 1.433 . S
C1052 H1048 0.929 . S
C1052 C1054 1.378 . S
C1052 C1056 1.350 . S
C1053 C1056 1.463 . S
C1053 C1058 1.350 . S
C1053 N1061 1.427 . S
C1054 H1045 0.930 . S
C1054 C1052 1.378 . S
C1054 C1055 1.367 . S
C1055 C1054 1.367 . S
C1055 C1057 1.433 . S
C1056 C1052 1.350 . S
C1056 C1053 1.463 . S
C1056 N1060 1.427 . S
C1057 H1047 0.929 . S
C1057 C1055 1.433 . S
C1057 N1060 1.384 . S
C1058 H1049 0.929 . S
C1058 C1050 1.378 . S
C1058 C1053 1.350 . S
C1059 H1046 0.929 . S
C1059 C1051 1.433 . S
C1059 N1061 1.384 . S
N1060 C1056 1.427 . S
N1060 C1057 1.384 . S
N1061 C1053 1.427 . S
N1061 C1059 1.384 . S
H1062 C1068 0.930 . S
H1063 C1072 0.930 . S
H1064 C1077 0.929 . S
H1065 C1075 0.929 . S
H1066 C1070 0.929 . S
H1067 C1076 0.929 . S
C1068 H1062 0.930 . S
C1068 C1069 1.367 1_545 S
C1068 C1076 1.378 . S
C1069 C1068 1.367 1_565 S
C1069 C1077 1.433 . S
C1070 H1066 0.929 . S
C1070 C1072 1.378 . S
C1070 C1074 1.350 . S
C1071 C1074 1.463 . S
C1071 C1076 1.350 1_565 S
C1071 N1079 1.427 . S
C1072 H1063 0.930 . S
C1072 C1070 1.378 . S
C1072 C1073 1.367 1_565 S
C1073 C1072 1.367 1_545 S
C1073 C1075 1.433 . S
C1074 C1070 1.350 . S
C1074 C1071 1.463 . S
C1074 N1078 1.427 1_565 S
C1075 H1065 0.929 . S
C1075 C1073 1.433 . S
C1075 N1078 1.384 . S
C1076 H1067 0.929 . S
C1076 C1068 1.378 . S
C1076 C1071 1.350 1_545 S
C1077 H1064 0.929 . S
C1077 C1069 1.433 . S
C1077 N1079 1.384 . S
N1078 C1074 1.427 1_545 S
N1078 C1075 1.384 . S
N1079 C1071 1.427 . S
N1079 C1077 1.384 . S
H1080 C1086 0.930 . S
H1081 C1090 0.930 . S
H1082 C1095 0.929 . S
H1083 C1093 0.929 . S
H1084 C1088 0.929 . S
H1085 C1094 0.929 . S
C1086 H1080 0.930 . S
C1086 C1087 1.367 . S
C1086 C1094 1.378 . S
C1087 C1086 1.367 . S
C1087 C1095 1.433 . S
C1088 H1084 0.929 . S
C1088 C1090 1.378 . S
C1088 C1092 1.350 . S
C1089 C1092 1.463 . S
C1089 C1094 1.350 . S
C1089 N1097 1.427 . S
C1090 H1081 0.930 . S
C1090 C1088 1.378 . S
C1090 C1091 1.367 . S
C1091 C1090 1.367 . S
C1091 C1093 1.433 . S
C1092 C1088 1.350 . S
C1092 C1089 1.463 . S
C1092 N1096 1.427 . S
C1093 H1083 0.929 . S
C1093 C1091 1.433 . S
C1093 N1096 1.384 . S
C1094 H1085 0.929 . S
C1094 C1086 1.378 . S
C1094 C1089 1.350 . S
C1095 H1082 0.929 . S
C1095 C1087 1.433 . S
C1095 N1097 1.384 . S
N1096 C1092 1.427 . S
N1096 C1093 1.384 . S
N1097 C1089 1.427 . S
N1097 C1095 1.384 . S
H1098 C1104 0.930 . S
H1099 C1108 0.930 . S
H1100 C1113 0.929 . S
H1101 C1111 0.929 . S
H1102 C1106 0.929 . S
H1103 C1112 0.929 . S
C1104 H1098 0.930 . S
C1104 C1105 1.367 . S
C1104 C1112 1.378 . S
C1105 C1104 1.367 . S
C1105 C1113 1.433 . S
C1106 H1102 0.929 . S
C1106 C1108 1.378 . S
C1106 C1110 1.350 . S
C1107 C1110 1.463 . S
C1107 C1112 1.350 . S
C1107 N1115 1.427 . S
C1108 H1099 0.930 . S
C1108 C1106 1.378 . S
C1108 C1109 1.367 . S
C1109 C1108 1.367 . S
C1109 C1111 1.433 . S
C1110 C1106 1.350 . S
C1110 C1107 1.463 . S
C1110 N1114 1.427 . S
C1111 H1101 0.929 . S
C1111 C1109 1.433 . S
C1111 N1114 1.384 . S
C1112 H1103 0.929 . S
C1112 C1104 1.378 . S
C1112 C1107 1.350 . S
C1113 H1100 0.929 . S
C1113 C1105 1.433 . S
C1113 N1115 1.384 . S
N1114 C1110 1.427 . S
N1114 C1111 1.384 . S
N1115 C1107 1.427 . S
N1115 C1113 1.384 . S
H1116 C1122 0.930 . S
H1117 C1126 0.930 . S
H1118 C1131 0.929 . S
H1119 C1129 0.929 . S
H1120 C1124 0.929 . S
H1121 C1130 0.929 . S
C1122 H1116 0.930 . S
C1122 C1123 1.367 . S
C1122 C1130 1.378 . S
C1123 C1122 1.367 . S
C1123 C1131 1.433 . S
C1124 H1120 0.929 . S
C1124 C1126 1.378 . S
C1124 C1128 1.350 . S
C1125 C1128 1.463 . S
C1125 C1130 1.350 . S
C1125 N1133 1.427 . S
C1126 H1117 0.930 . S
C1126 C1124 1.378 . S
C1126 C1127 1.367 . S
C1127 C1126 1.367 . S
C1127 C1129 1.433 . S
C1128 C1124 1.350 . S
C1128 C1125 1.463 . S
C1128 N1132 1.427 . S
C1129 H1119 0.929 . S
C1129 C1127 1.433 . S
C1129 N1132 1.384 . S
C1130 H1121 0.929 . S
C1130 C1122 1.378 . S
C1130 C1125 1.350 . S
C1131 H1118 0.929 . S
C1131 C1123 1.433 . S
C1131 N1133 1.384 . S
N1132 C1128 1.427 . S
N1132 C1129 1.384 . S
N1133 C1125 1.427 . S
N1133 C1131 1.384 . S
H1134 C1140 0.930 . S
H1135 C1144 0.951 . S
H1136 C1149 0.929 . S
H1137 C1147 0.929 . S
H1138 C1142 0.929 1_545 S
H1139 C1148 0.929 . S
C1140 H1134 0.930 . S
C1140 C1141 1.367 . S
C1140 C1148 1.378 . S
C1141 C1140 1.367 . S
C1141 C1149 1.433 . S
C1142 H1138 0.929 1_565 S
C1142 C1144 1.374 1_565 S
C1142 C1146 1.350 . S
C1143 C1146 1.463 . S
C1143 C1148 1.350 . S
C1143 N1151 1.427 . S
C1144 H1135 0.951 . S
C1144 C1142 1.374 1_545 S
C1144 C1145 1.353 1_545 S
C1145 C1144 1.353 1_565 S
C1145 C1147 1.433 . S
C1146 C1142 1.350 . S
C1146 C1143 1.463 . S
C1146 N1150 1.427 . S
C1147 H1137 0.929 . S
C1147 C1145 1.433 . S
C1147 N1150 1.384 . S
C1148 H1139 0.929 . S
C1148 C1140 1.378 . S
C1148 C1143 1.350 . S
C1149 H1136 0.929 . S
C1149 C1141 1.433 . S
C1149 N1151 1.384 . S
N1150 C1146 1.427 . S
N1150 C1147 1.384 . S
N1151 C1143 1.427 . S
N1151 C1149 1.384 . S
H1152 C1158 0.930 . S
H1153 C1162 0.930 . S
H1154 C1167 0.929 . S
H1155 C1165 0.929 . S
H1156 C1160 0.929 . S
H1157 C1166 0.929 . S
C1158 H1152 0.930 . S
C1158 C1159 1.367 . S
C1158 C1166 1.378 . S
C1159 C1158 1.367 . S
C1159 C1167 1.433 . S
C1160 H1156 0.929 . S
C1160 C1162 1.378 . S
C1160 C1164 1.350 . S
C1161 C1164 1.463 . S
C1161 C1166 1.350 . S
C1161 N1169 1.427 . S
C1162 H1153 0.930 . S
C1162 C1160 1.378 . S
C1162 C1163 1.367 . S
C1163 C1162 1.367 . S
C1163 C1165 1.433 . S
C1164 C1160 1.350 . S
C1164 C1161 1.463 . S
C1164 N1168 1.427 . S
C1165 H1155 0.929 . S
C1165 C1163 1.433 . S
C1165 N1168 1.384 . S
C1166 H1157 0.929 . S
C1166 C1158 1.378 . S
C1166 C1161 1.350 . S
C1167 H1154 0.929 . S
C1167 C1159 1.433 . S
C1167 N1169 1.384 . S
N1168 C1164 1.427 . S
N1168 C1165 1.384 . S
N1169 C1161 1.427 . S
N1169 C1167 1.384 . S
H1170 C1176 0.930 . S
H1171 C1180 0.930 . S
H1172 C1185 0.929 . S
H1173 C1183 0.929 . S
H1174 C1178 0.929 . S
H1175 C1184 0.929 . S
C1176 H1170 0.930 . S
C1176 C1177 1.367 . S
C1176 C1184 1.378 . S
C1177 C1176 1.367 . S
C1177 C1185 1.433 . S
C1178 H1174 0.929 . S
C1178 C1180 1.378 . S
C1178 C1182 1.350 . S
C1179 C1182 1.463 . S
C1179 C1184 1.350 . S
C1179 N1187 1.427 . S
C1180 H1171 0.930 . S
C1180 C1178 1.378 . S
C1180 C1181 1.367 . S
C1181 C1180 1.367 . S
C1181 C1183 1.433 . S
C1182 C1178 1.350 . S
C1182 C1179 1.463 . S
C1182 N1186 1.427 . S
C1183 H1173 0.929 . S
C1183 C1181 1.433 . S
C1183 N1186 1.384 . S
C1184 H1175 0.929 . S
C1184 C1176 1.378 . S
C1184 C1179 1.350 . S
C1185 H1172 0.929 . S
C1185 C1177 1.433 . S
C1185 N1187 1.384 . S
N1186 C1182 1.427 . S
N1186 C1183 1.384 . S
N1187 C1179 1.427 . S
N1187 C1185 1.384 . S
H1188 C1194 0.930 . S
H1189 C1198 0.930 . S
H1190 C1203 0.929 . S
H1191 C1201 0.929 . S
H1192 C1196 0.929 . S
H1193 C1202 0.929 . S
C1194 H1188 0.930 . S
C1194 C1195 1.367 . S
C1194 C1202 1.378 . S
C1195 C1194 1.367 . S
C1195 C1203 1.433 . S
C1196 H1192 0.929 . S
C1196 C1198 1.378 . S
C1196 C1200 1.350 . S
C1197 C1200 1.463 . S
C1197 C1202 1.350 . S
C1197 N1205 1.427 . S
C1198 H1189 0.930 . S
C1198 C1196 1.378 . S
C1198 C1199 1.367 . S
C1199 C1198 1.367 . S
C1199 C1201 1.433 . S
C1200 C1196 1.350 . S
C1200 C1197 1.463 . S
C1200 N1204 1.427 . S
C1201 H1191 0.929 . S
C1201 C1199 1.433 . S
C1201 N1204 1.384 . S
C1202 H1193 0.929 . S
C1202 C1194 1.378 . S
C1202 C1197 1.350 . S
C1203 H1190 0.929 . S
C1203 C1195 1.433 . S
C1203 N1205 1.384 . S
N1204 C1200 1.427 . S
N1204 C1201 1.384 . S
N1205 C1197 1.427 . S
N1205 C1203 1.384 . S
H1206 C1212 0.930 . S
H1207 C1216 0.930 . S
H1208 C1221 0.929 . S
H1209 C1219 0.929 . S
H1210 C1214 0.929 . S
H1211 C1220 0.929 . S
C1212 H1206 0.930 . S
C1212 C1213 1.367 . S
C1212 C1220 1.378 . S
C1213 C1212 1.367 . S
C1213 C1221 1.433 . S
C1214 H1210 0.929 . S
C1214 C1216 1.378 . S
C1214 C1218 1.350 . S
C1215 C1218 1.463 . S
C1215 C1220 1.350 . S
C1215 N1223 1.427 . S
C1216 H1207 0.930 . S
C1216 C1214 1.378 . S
C1216 C1217 1.367 . S
C1217 C1216 1.367 . S
C1217 C1219 1.433 . S
C1218 C1214 1.350 . S
C1218 C1215 1.463 . S
C1218 N1222 1.427 . S
C1219 H1209 0.929 . S
C1219 C1217 1.433 . S
C1219 N1222 1.384 . S
C1220 H1211 0.929 . S
C1220 C1212 1.378 . S
C1220 C1215 1.350 . S
C1221 H1208 0.929 . S
C1221 C1213 1.433 . S
C1221 N1223 1.384 . S
N1222 C1218 1.427 . S
N1222 C1219 1.384 . S
N1223 C1215 1.427 . S
N1223 C1221 1.384 . S
H1224 C1230 0.930 . S
H1225 C1234 0.930 . S
H1226 C1239 0.929 . S
H1227 C1237 0.929 . S
H1228 C1232 0.929 . S
H1229 C1238 0.929 . S
C1230 H1224 0.930 . S
C1230 C1231 1.367 . S
C1230 C1238 1.378 . S
C1231 C1230 1.367 . S
C1231 C1239 1.433 . S
C1232 H1228 0.929 . S
C1232 C1234 1.378 . S
C1232 C1236 1.350 . S
C1233 C1236 1.463 . S
C1233 C1238 1.350 . S
C1233 N1241 1.427 . S
C1234 H1225 0.930 . S
C1234 C1232 1.378 . S
C1234 C1235 1.367 . S
C1235 C1234 1.367 . S
C1235 C1237 1.433 . S
C1236 C1232 1.350 . S
C1236 C1233 1.463 . S
C1236 N1240 1.427 . S
C1237 H1227 0.929 . S
C1237 C1235 1.433 . S
C1237 N1240 1.384 . S
C1238 H1229 0.929 . S
C1238 C1230 1.378 . S
C1238 C1233 1.350 . S
C1239 H1226 0.929 . S
C1239 C1231 1.433 . S
C1239 N1241 1.384 . S
N1240 C1236 1.427 . S
N1240 C1237 1.384 . S
N1241 C1233 1.427 . S
N1241 C1239 1.384 . S
H1242 C1248 0.930 . S
H1243 C1252 0.930 . S
H1244 C1257 0.929 . S
H1245 C1255 0.929 . S
H1246 C1250 0.929 . S
H1247 C1256 0.929 . S
C1248 H1242 0.930 . S
C1248 C1249 1.367 . S
C1248 C1256 1.378 . S
C1249 C1248 1.367 . S
C1249 C1257 1.433 . S
C1250 H1246 0.929 . S
C1250 C1252 1.378 . S
C1250 C1254 1.350 . S
C1251 C1254 1.463 . S
C1251 C1256 1.350 . S
C1251 N1259 1.427 . S
C1252 H1243 0.930 . S
C1252 C1250 1.378 . S
C1252 C1253 1.367 . S
C1253 C1252 1.367 . S
C1253 C1255 1.433 . S
C1254 C1250 1.350 . S
C1254 C1251 1.463 . S
C1254 N1258 1.427 . S
C1255 H1245 0.929 . S
C1255 C1253 1.433 . S
C1255 N1258 1.384 . S
C1256 H1247 0.929 . S
C1256 C1248 1.378 . S
C1256 C1251 1.350 . S
C1257 H1244 0.929 . S
C1257 C1249 1.433 . S
C1257 N1259 1.384 . S
N1258 C1254 1.427 . S
N1258 C1255 1.384 . S
N1259 C1251 1.427 . S
N1259 C1257 1.384 . S
H1260 C1266 0.930 . S
H1261 C1270 0.930 . S
H1262 C1275 0.929 . S
H1263 C1273 0.929 . S
H1264 C1268 0.929 . S
H1265 C1274 0.929 . S
C1266 H1260 0.930 . S
C1266 C1267 1.367 . S
C1266 C1274 1.378 . S
C1267 C1266 1.367 . S
C1267 C1275 1.433 . S
C1268 H1264 0.929 . S
C1268 C1270 1.378 . S
C1268 C1272 1.350 . S
C1269 C1272 1.463 . S
C1269 C1274 1.350 . S
C1269 N1277 1.427 . S
C1270 H1261 0.930 . S
C1270 C1268 1.378 . S
C1270 C1271 1.367 . S
C1271 C1270 1.367 . S
C1271 C1273 1.433 . S
C1272 C1268 1.350 . S
C1272 C1269 1.463 . S
C1272 N1276 1.427 . S
C1273 H1263 0.929 . S
C1273 C1271 1.433 . S
C1273 N1276 1.384 . S
C1274 H1265 0.929 . S
C1274 C1266 1.378 . S
C1274 C1269 1.350 . S
C1275 H1262 0.929 . S
C1275 C1267 1.433 . S
C1275 N1277 1.384 . S
N1276 C1272 1.427 . S
N1276 C1273 1.384 . S
N1277 C1269 1.427 . S
N1277 C1275 1.384 . S
H1278 C1284 0.921 1_455 S
H1279 C1288 0.930 . S
H1280 C1293 0.929 . S
H1281 C1291 0.929 . S
H1282 C1286 0.929 . S
H1283 C1292 0.925 1_455 S
C1284 H1278 0.921 1_655 S
C1284 C1285 1.367 . S
C1284 C1292 1.379 . S
C1285 C1284 1.367 . S
C1285 C1293 1.433 . S
C1286 H1282 0.929 . S
C1286 C1288 1.378 . S
C1286 C1290 1.350 . S
C1287 C1290 1.463 . S
C1287 C1292 1.353 . S
C1287 N1295 1.427 . S
C1288 H1279 0.930 . S
C1288 C1286 1.378 . S
C1288 C1289 1.367 1_655 S
C1289 C1288 1.367 1_455 S
C1289 C1291 1.433 . S
C1290 C1286 1.350 . S
C1290 C1287 1.463 . S
C1290 N1294 1.427 1_655 S
C1291 H1281 0.929 . S
C1291 C1289 1.433 . S
C1291 N1294 1.384 . S
C1292 H1283 0.925 1_655 S
C1292 C1284 1.379 . S
C1292 C1287 1.353 . S
C1293 H1280 0.929 . S
C1293 C1285 1.433 . S
C1293 N1295 1.384 . S
N1294 C1290 1.427 1_455 S
N1294 C1291 1.384 . S
N1295 C1287 1.427 . S
N1295 C1293 1.384 . S
H1296 C1302 0.930 . S
H1297 C1306 0.930 . S
H1298 C1311 0.929 . S
H1299 C1309 0.929 . S
H1300 C1304 0.929 . S
H1301 C1310 0.929 . S
C1302 H1296 0.930 . S
C1302 C1303 1.367 . S
C1302 C1310 1.378 . S
C1303 C1302 1.367 . S
C1303 C1311 1.433 . S
C1304 H1300 0.929 . S
C1304 C1306 1.378 . S
C1304 C1308 1.350 . S
C1305 C1308 1.463 . S
C1305 C1310 1.350 . S
C1305 N1313 1.427 . S
C1306 H1297 0.930 . S
C1306 C1304 1.378 . S
C1306 C1307 1.367 . S
C1307 C1306 1.367 . S
C1307 C1309 1.433 . S
C1308 C1304 1.350 . S
C1308 C1305 1.463 . S
C1308 N1312 1.427 . S
C1309 H1299 0.929 . S
C1309 C1307 1.433 . S
C1309 N1312 1.384 . S
C1310 H1301 0.929 . S
C1310 C1302 1.378 . S
C1310 C1305 1.350 . S
C1311 H1298 0.929 . S
C1311 C1303 1.433 . S
C1311 N1313 1.384 . S
N1312 C1308 1.427 . S
N1312 C1309 1.384 . S
N1313 C1305 1.427 . S
N1313 C1311 1.384 . S
H1314 C1320 0.930 . S
H1315 C1324 0.930 . S
H1316 C1329 0.929 . S
H1317 C1327 0.929 . S
H1318 C1322 0.929 . S
H1319 C1328 0.929 . S
C1320 H1314 0.930 . S
C1320 C1321 1.367 . S
C1320 C1328 1.378 . S
C1321 C1320 1.367 . S
C1321 C1329 1.433 . S
C1322 H1318 0.929 . S
C1322 C1324 1.378 . S
C1322 C1326 1.350 . S
C1323 C1326 1.463 . S
C1323 C1328 1.350 . S
C1323 N1331 1.427 . S
C1324 H1315 0.930 . S
C1324 C1322 1.378 . S
C1324 C1325 1.367 . S
C1325 C1324 1.367 . S
C1325 C1327 1.433 . S
C1326 C1322 1.350 . S
C1326 C1323 1.463 . S
C1326 N1330 1.427 . S
C1327 H1317 0.929 . S
C1327 C1325 1.433 . S
C1327 N1330 1.384 . S
C1328 H1319 0.929 . S
C1328 C1320 1.378 . S
C1328 C1323 1.350 . S
C1329 H1316 0.929 . S
C1329 C1321 1.433 . S
C1329 N1331 1.384 . S
N1330 C1326 1.427 . S
N1330 C1327 1.384 . S
N1331 C1323 1.427 . S
N1331 C1329 1.384 . S
H1332 C1338 0.930 . S
H1333 C1342 0.930 . S
H1334 C1347 0.929 . S
H1335 C1345 0.929 . S
H1336 C1340 0.929 . S
H1337 C1346 0.929 1_554 S
C1338 H1332 0.930 . S
C1338 C1339 1.367 . S
C1338 C1346 1.378 . S
C1339 C1338 1.367 . S
C1339 C1347 1.433 . S
C1340 H1336 0.929 . S
C1340 C1342 1.378 . S
C1340 C1344 1.350 . S
C1341 C1344 1.463 . S
C1341 C1346 1.350 . S
C1341 N1349 1.427 . S
C1342 H1333 0.930 . S
C1342 C1340 1.378 . S
C1342 C1343 1.367 1_556 S
C1343 C1342 1.367 1_554 S
C1343 C1345 1.433 . S
C1344 C1340 1.350 . S
C1344 C1341 1.463 . S
C1344 N1348 1.427 1_556 S
C1345 H1335 0.929 . S
C1345 C1343 1.433 . S
C1345 N1348 1.384 . S
C1346 H1337 0.929 1_556 S
C1346 C1338 1.378 . S
C1346 C1341 1.350 . S
C1347 H1334 0.929 . S
C1347 C1339 1.433 . S
C1347 N1349 1.384 . S
N1348 C1344 1.427 1_554 S
N1348 C1345 1.384 . S
N1349 C1341 1.427 . S
N1349 C1347 1.384 . S
H1350 C1356 0.930 . S
H1351 C1360 0.930 . S
H1352 C1365 0.929 . S
H1353 C1363 0.929 . S
H1354 C1358 0.929 . S
H1355 C1364 0.929 . S
C1356 H1350 0.930 . S
C1356 C1357 1.367 . S
C1356 C1364 1.378 . S
C1357 C1356 1.367 . S
C1357 C1365 1.433 . S
C1358 H1354 0.929 . S
C1358 C1360 1.378 . S
C1358 C1362 1.350 . S
C1359 C1362 1.463 . S
C1359 C1364 1.350 . S
C1359 N1367 1.427 . S
C1360 H1351 0.930 . S
C1360 C1358 1.378 . S
C1360 C1361 1.367 . S
C1361 C1360 1.367 . S
C1361 C1363 1.433 . S
C1362 C1358 1.350 . S
C1362 C1359 1.463 . S
C1362 N1366 1.427 . S
C1363 H1353 0.929 . S
C1363 C1361 1.433 . S
C1363 N1366 1.384 . S
C1364 H1355 0.929 . S
C1364 C1356 1.378 . S
C1364 C1359 1.350 . S
C1365 H1352 0.929 . S
C1365 C1357 1.433 . S
C1365 N1367 1.384 . S
N1366 C1362 1.427 . S
N1366 C1363 1.384 . S
N1367 C1359 1.427 . S
N1367 C1365 1.384 . S
H1368 C1374 0.930 . S
H1369 C1378 0.930 . S
H1370 C1383 0.929 . S
H1371 C1381 0.929 . S
H1372 C1376 0.929 . S
H1373 C1382 0.929 . S
C1374 H1368 0.930 . S
C1374 C1375 1.367 . S
C1374 C1382 1.378 . S
C1375 C1374 1.367 . S
C1375 C1383 1.433 . S
C1376 H1372 0.929 . S
C1376 C1378 1.378 . S
C1376 C1380 1.350 . S
C1377 C1380 1.463 . S
C1377 C1382 1.350 . S
C1377 N1385 1.427 . S
C1378 H1369 0.930 . S
C1378 C1376 1.378 . S
C1378 C1379 1.367 . S
C1379 C1378 1.367 . S
C1379 C1381 1.433 . S
C1380 C1376 1.350 . S
C1380 C1377 1.463 . S
C1380 N1384 1.427 . S
C1381 H1371 0.929 . S
C1381 C1379 1.433 . S
C1381 N1384 1.384 . S
C1382 H1373 0.929 . S
C1382 C1374 1.378 . S
C1382 C1377 1.350 . S
C1383 H1370 0.929 . S
C1383 C1375 1.433 . S
C1383 N1385 1.384 . S
N1384 C1380 1.427 . S
N1384 C1381 1.384 . S
N1385 C1377 1.427 . S
N1385 C1383 1.384 . S
H1386 C1392 0.930 . S
H1387 C1396 0.930 . S
H1388 C1401 0.929 . S
H1389 C1399 0.929 . S
H1390 C1394 0.929 . S
H1391 C1400 0.929 . S
C1392 H1386 0.930 . S
C1392 C1393 1.367 . S
C1392 C1400 1.378 . S
C1393 C1392 1.367 . S
C1393 C1401 1.433 . S
C1394 H1390 0.929 . S
C1394 C1396 1.378 . S
C1394 C1398 1.350 . S
C1395 C1398 1.463 . S
C1395 C1400 1.350 . S
C1395 N1403 1.427 . S
C1396 H1387 0.930 . S
C1396 C1394 1.378 . S
C1396 C1397 1.367 . S
C1397 C1396 1.367 . S
C1397 C1399 1.433 . S
C1398 C1394 1.350 . S
C1398 C1395 1.463 . S
C1398 N1402 1.427 . S
C1399 H1389 0.929 . S
C1399 C1397 1.433 . S
C1399 N1402 1.384 . S
C1400 H1391 0.929 . S
C1400 C1392 1.378 . S
C1400 C1395 1.350 . S
C1401 H1388 0.929 . S
C1401 C1393 1.433 . S
C1401 N1403 1.384 . S
N1402 C1398 1.427 . S
N1402 C1399 1.384 . S
N1403 C1395 1.427 . S
N1403 C1401 1.384 . S
H1404 C1410 0.930 . S
H1405 C1414 0.930 . S
H1406 C1419 0.929 . S
H1407 C1417 0.929 . S
H1408 C1412 0.929 . S
H1409 C1418 0.929 . S
C1410 H1404 0.930 . S
C1410 C1411 1.367 . S
C1410 C1418 1.378 . S
C1411 C1410 1.367 . S
C1411 C1419 1.433 . S
C1412 H1408 0.929 . S
C1412 C1414 1.378 . S
C1412 C1416 1.350 . S
C1413 C1416 1.463 . S
C1413 C1418 1.350 . S
C1413 N1421 1.427 . S
C1414 H1405 0.930 . S
C1414 C1412 1.378 . S
C1414 C1415 1.367 . S
C1415 C1414 1.367 . S
C1415 C1417 1.433 . S
C1416 C1412 1.350 . S
C1416 C1413 1.463 . S
C1416 N1420 1.427 . S
C1417 H1407 0.929 . S
C1417 C1415 1.433 . S
C1417 N1420 1.384 . S
C1418 H1409 0.929 . S
C1418 C1410 1.378 . S
C1418 C1413 1.350 . S
C1419 H1406 0.929 . S
C1419 C1411 1.433 . S
C1419 N1421 1.384 . S
N1420 C1416 1.427 . S
N1420 C1417 1.384 . S
N1421 C1413 1.427 . S
N1421 C1419 1.384 . S
H1422 C1428 0.930 . S
H1423 C1432 0.930 . S
H1424 C1437 0.929 . S
H1425 C1435 0.929 . S
H1426 C1430 0.929 . S
H1427 C1436 0.929 . S
C1428 H1422 0.930 . S
C1428 C1429 1.367 . S
C1428 C1436 1.378 . S
C1429 C1428 1.367 . S
C1429 C1437 1.433 . S
C1430 H1426 0.929 . S
C1430 C1432 1.378 . S
C1430 C1434 1.350 . S
C1431 C1434 1.463 . S
C1431 C1436 1.350 . S
C1431 N1439 1.427 . S
C1432 H1423 0.930 . S
C1432 C1430 1.378 . S
C1432 C1433 1.367 . S
C1433 C1432 1.367 . S
C1433 C1435 1.433 . S
C1434 C1430 1.350 . S
C1434 C1431 1.463 . S
C1434 N1438 1.427 . S
C1435 H1425 0.929 . S
C1435 C1433 1.433 . S
C1435 N1438 1.384 . S
C1436 H1427 0.929 . S
C1436 C1428 1.378 . S
C1436 C1431 1.350 . S
C1437 H1424 0.929 . S
C1437 C1429 1.433 . S
C1437 N1439 1.384 . S
N1438 C1434 1.427 . S
N1438 C1435 1.384 . S
N1439 C1431 1.427 . S
N1439 C1437 1.384 . S
H1440 C1446 0.930 . S
H1441 C1450 0.930 . S
H1442 C1455 0.929 . S
H1443 C1453 0.929 . S
H1444 C1448 0.929 . S
H1445 C1454 0.929 . S
C1446 H1440 0.930 . S
C1446 C1447 1.367 . S
C1446 C1454 1.378 . S
C1447 C1446 1.367 . S
C1447 C1455 1.433 . S
C1448 H1444 0.929 . S
C1448 C1450 1.378 . S
C1448 C1452 1.350 . S
C1449 C1452 1.463 . S
C1449 C1454 1.350 . S
C1449 N1457 1.427 . S
C1450 H1441 0.930 . S
C1450 C1448 1.378 . S
C1450 C1451 1.367 . S
C1451 C1450 1.367 . S
C1451 C1453 1.433 . S
C1452 C1448 1.350 . S
C1452 C1449 1.463 . S
C1452 N1456 1.427 . S
C1453 H1443 0.929 . S
C1453 C1451 1.433 . S
C1453 N1456 1.384 . S
C1454 H1445 0.929 . S
C1454 C1446 1.378 . S
C1454 C1449 1.350 . S
C1455 H1442 0.929 . S
C1455 C1447 1.433 . S
C1455 N1457 1.384 . S
N1456 C1452 1.427 . S
N1456 C1453 1.384 . S
N1457 C1449 1.427 . S
N1457 C1455 1.384 . S
H1458 C1464 0.930 1_565 S
H1459 C1468 0.930 . S
H1460 C1473 0.929 . S
H1461 C1471 0.929 . S
H1462 C1466 0.929 . S
H1463 C1472 0.968 . S
C1464 H1458 0.930 1_545 S
C1464 C1465 1.367 . S
C1464 C1472 1.372 1_545 S
C1465 C1464 1.367 . S
C1465 C1473 1.433 . S
C1466 H1462 0.929 . S
C1466 C1468 1.378 . S
C1466 C1470 1.350 . S
C1467 C1470 1.463 . S
C1467 C1472 1.317 1_545 S
C1467 N1475 1.427 . S
C1468 H1459 0.930 . S
C1468 C1466 1.378 . S
C1468 C1469 1.367 . S
C1469 C1468 1.367 . S
C1469 C1471 1.433 1_545 S
C1470 C1466 1.350 . S
C1470 C1467 1.463 . S
C1470 N1474 1.427 1_545 S
C1471 H1461 0.929 . S
C1471 C1469 1.433 1_565 S
C1471 N1474 1.384 . S
C1472 H1463 0.968 . S
C1472 C1464 1.372 1_565 S
C1472 C1467 1.317 1_565 S
C1473 H1460 0.929 . S
C1473 C1465 1.433 . S
C1473 N1475 1.384 . S
N1474 C1470 1.427 1_565 S
N1474 C1471 1.384 . S
N1475 C1467 1.427 . S
N1475 C1473 1.384 . S
H1476 C1482 0.930 . S
H1477 C1486 0.930 . S
H1478 C1491 0.929 . S
H1479 C1489 0.929 . S
H1480 C1484 0.929 . S
H1481 C1490 0.929 . S
C1482 H1476 0.930 . S
C1482 C1483 1.367 . S
C1482 C1490 1.378 . S
C1483 C1482 1.367 . S
C1483 C1491 1.433 . S
C1484 H1480 0.929 . S
C1484 C1486 1.378 . S
C1484 C1488 1.350 . S
C1485 C1488 1.463 . S
C1485 C1490 1.350 . S
C1485 N1493 1.427 . S
C1486 H1477 0.930 . S
C1486 C1484 1.378 . S
C1486 C1487 1.367 . S
C1487 C1486 1.367 . S
C1487 C1489 1.433 . S
C1488 C1484 1.350 . S
C1488 C1485 1.463 . S
C1488 N1492 1.427 . S
C1489 H1479 0.929 . S
C1489 C1487 1.433 . S
C1489 N1492 1.384 . S
C1490 H1481 0.929 . S
C1490 C1482 1.378 . S
C1490 C1485 1.350 . S
C1491 H1478 0.929 . S
C1491 C1483 1.433 . S
C1491 N1493 1.384 . S
N1492 C1488 1.427 . S
N1492 C1489 1.384 . S
N1493 C1485 1.427 . S
N1493 C1491 1.384 . S
H1494 C1500 0.930 . S
H1495 C1504 0.930 . S
H1496 C1509 0.929 . S
H1497 C1507 0.929 . S
H1498 C1502 0.929 . S
H1499 C1508 0.929 . S
C1500 H1494 0.930 . S
C1500 C1501 1.367 . S
C1500 C1508 1.378 . S
C1501 C1500 1.367 . S
C1501 C1509 1.433 . S
C1502 H1498 0.929 . S
C1502 C1504 1.378 . S
C1502 C1506 1.350 . S
C1503 C1506 1.463 . S
C1503 C1508 1.350 . S
C1503 N1511 1.427 . S
C1504 H1495 0.930 . S
C1504 C1502 1.378 . S
C1504 C1505 1.367 . S
C1505 C1504 1.367 . S
C1505 C1507 1.433 . S
C1506 C1502 1.350 . S
C1506 C1503 1.463 . S
C1506 N1510 1.427 . S
C1507 H1497 0.929 . S
C1507 C1505 1.433 . S
C1507 N1510 1.384 . S
C1508 H1499 0.929 . S
C1508 C1500 1.378 . S
C1508 C1503 1.350 . S
C1509 H1496 0.929 . S
C1509 C1501 1.433 . S
C1509 N1511 1.384 . S
N1510 C1506 1.427 . S
N1510 C1507 1.384 . S
N1511 C1503 1.427 . S
N1511 C1509 1.384 . S
H1512 C1518 0.930 . S
H1513 C1522 0.930 . S
H1514 C1527 0.929 . S
H1515 C1525 0.929 . S
H1516 C1520 0.929 . S
H1517 C1526 0.929 . S
C1518 H1512 0.930 . S
C1518 C1519 1.367 . S
C1518 C1526 1.378 . S
C1519 C1518 1.367 . S
C1519 C1527 1.433 . S
C1520 H1516 0.929 . S
C1520 C1522 1.378 . S
C1520 C1524 1.350 . S
C1521 C1524 1.463 . S
C1521 C1526 1.350 . S
C1521 N1529 1.427 . S
C1522 H1513 0.930 . S
C1522 C1520 1.378 . S
C1522 C1523 1.367 . S
C1523 C1522 1.367 . S
C1523 C1525 1.433 . S
C1524 C1520 1.350 . S
C1524 C1521 1.463 . S
C1524 N1528 1.427 . S
C1525 H1515 0.929 . S
C1525 C1523 1.433 . S
C1525 N1528 1.384 . S
C1526 H1517 0.929 . S
C1526 C1518 1.378 . S
C1526 C1521 1.350 . S
C1527 H1514 0.929 . S
C1527 C1519 1.433 . S
C1527 N1529 1.384 . S
N1528 C1524 1.427 . S
N1528 C1525 1.384 . S
N1529 C1521 1.427 . S
N1529 C1527 1.384 . S
H1530 C1536 0.930 . S
H1531 C1540 0.930 . S
H1532 C1545 0.929 1_565 S
H1533 C1543 0.929 . S
H1534 C1538 0.929 . S
H1535 C1544 0.929 . S
C1536 H1530 0.930 . S
C1536 C1537 1.367 . S
C1536 C1544 1.378 . S
C1537 C1536 1.367 . S
C1537 C1545 1.433 . S
C1538 H1534 0.929 . S
C1538 C1540 1.378 . S
C1538 C1542 1.350 1_565 S
C1539 C1542 1.463 . S
C1539 C1544 1.350 . S
C1539 N1547 1.425 . S
C1540 H1531 0.930 . S
C1540 C1538 1.378 . S
C1540 C1541 1.367 1_565 S
C1541 C1540 1.367 1_545 S
C1541 C1543 1.433 . S
C1542 C1538 1.350 1_545 S
C1542 C1539 1.463 . S
C1542 N1546 1.427 . S
C1543 H1533 0.929 . S
C1543 C1541 1.433 . S
C1543 N1546 1.384 . S
C1544 H1535 0.929 . S
C1544 C1536 1.378 . S
C1544 C1539 1.350 . S
C1545 H1532 0.929 1_545 S
C1545 C1537 1.433 . S
C1545 N1547 1.383 . S
N1546 C1542 1.427 . S
N1546 C1543 1.384 . S
N1547 C1539 1.425 . S
N1547 C1545 1.383 . S
H1548 C1554 0.930 . S
H1549 C1558 0.930 . S
H1550 C1563 0.929 . S
H1551 C1561 0.929 . S
H1552 C1556 0.929 . S
H1553 C1562 0.929 . S
C1554 H1548 0.930 . S
C1554 C1555 1.367 . S
C1554 C1562 1.378 . S
C1555 C1554 1.367 . S
C1555 C1563 1.433 . S
C1556 H1552 0.929 . S
C1556 C1558 1.378 . S
C1556 C1560 1.350 . S
C1557 C1560 1.463 . S
C1557 C1562 1.350 . S
C1557 N1565 1.427 . S
C1558 H1549 0.930 . S
C1558 C1556 1.378 . S
C1558 C1559 1.367 . S
C1559 C1558 1.367 . S
C1559 C1561 1.433 . S
C1560 C1556 1.350 . S
C1560 C1557 1.463 . S
C1560 N1564 1.427 . S
C1561 H1551 0.929 . S
C1561 C1559 1.433 . S
C1561 N1564 1.384 . S
C1562 H1553 0.929 . S
C1562 C1554 1.378 . S
C1562 C1557 1.350 . S
C1563 H1550 0.929 . S
C1563 C1555 1.433 . S
C1563 N1565 1.384 . S
N1564 C1560 1.427 . S
N1564 C1561 1.384 . S
N1565 C1557 1.427 . S
N1565 C1563 1.384 . S
H1566 C1572 0.930 . S
H1567 C1576 0.930 . S
H1568 C1581 0.929 . S
H1569 C1579 0.929 . S
H1570 C1574 0.929 . S
H1571 C1580 0.929 . S
C1572 H1566 0.930 . S
C1572 C1573 1.367 . S
C1572 C1580 1.378 . S
C1573 C1572 1.367 . S
C1573 C1581 1.433 . S
C1574 H1570 0.929 . S
C1574 C1576 1.378 . S
C1574 C1578 1.350 . S
C1575 C1578 1.463 . S
C1575 C1580 1.350 . S
C1575 N1583 1.427 . S
C1576 H1567 0.930 . S
C1576 C1574 1.378 . S
C1576 C1577 1.367 . S
C1577 C1576 1.367 . S
C1577 C1579 1.433 . S
C1578 C1574 1.350 . S
C1578 C1575 1.463 . S
C1578 N1582 1.427 . S
C1579 H1569 0.929 . S
C1579 C1577 1.433 . S
C1579 N1582 1.384 . S
C1580 H1571 0.929 . S
C1580 C1572 1.378 . S
C1580 C1575 1.350 . S
C1581 H1568 0.929 . S
C1581 C1573 1.433 . S
C1581 N1583 1.384 . S
N1582 C1578 1.427 . S
N1582 C1579 1.384 . S
N1583 C1575 1.427 . S
N1583 C1581 1.384 . S
H1584 C1590 0.930 . S
H1585 C1594 0.930 . S
H1586 C1599 0.929 . S
H1587 C1597 0.929 . S
H1588 C1592 0.929 . S
H1589 C1598 0.929 . S
C1590 H1584 0.930 . S
C1590 C1591 1.367 . S
C1590 C1598 1.378 . S
C1591 C1590 1.367 . S
C1591 C1599 1.433 . S
C1592 H1588 0.929 . S
C1592 C1594 1.378 . S
C1592 C1596 1.350 . S
C1593 C1596 1.463 . S
C1593 C1598 1.350 . S
C1593 N1601 1.427 . S
C1594 H1585 0.930 . S
C1594 C1592 1.378 . S
C1594 C1595 1.367 . S
C1595 C1594 1.367 . S
C1595 C1597 1.433 . S
C1596 C1592 1.350 . S
C1596 C1593 1.463 . S
C1596 N1600 1.427 . S
C1597 H1587 0.929 . S
C1597 C1595 1.433 . S
C1597 N1600 1.384 . S
C1598 H1589 0.929 . S
C1598 C1590 1.378 . S
C1598 C1593 1.350 . S
C1599 H1586 0.929 . S
C1599 C1591 1.433 . S
C1599 N1601 1.384 . S
N1600 C1596 1.427 . S
N1600 C1597 1.384 . S
N1601 C1593 1.427 . S
N1601 C1599 1.384 . S
H1602 C1608 0.930 . S
H1603 C1612 0.930 . S
H1604 C1617 0.929 1_455 S
H1605 C1615 0.929 . S
H1606 C1610 0.929 . S
H1607 C1616 0.929 . S
C1608 H1602 0.930 . S
C1608 C1609 1.367 . S
C1608 C1616 1.378 . S
C1609 C1608 1.367 . S
C1609 C1617 1.433 . S
C1610 H1606 0.929 . S
C1610 C1612 1.378 . S
C1610 C1614 1.350 1_455 S
C1611 C1614 1.463 . S
C1611 C1616 1.350 . S
C1611 N1619 1.427 1_655 S
C1612 H1603 0.930 . S
C1612 C1610 1.378 . S
C1612 C1613 1.353 1_455 S
C1613 C1612 1.353 1_655 S
C1613 C1615 1.452 . S
C1614 C1610 1.350 1_655 S
C1614 C1611 1.463 . S
C1614 N1618 1.427 . S
C1615 H1605 0.929 . S
C1615 C1613 1.452 . S
C1615 N1618 1.384 . S
C1616 H1607 0.929 . S
C1616 C1608 1.378 . S
C1616 C1611 1.350 . S
C1617 H1604 0.929 1_655 S
C1617 C1609 1.433 . S
C1617 N1619 1.384 1_655 S
N1618 C1614 1.427 . S
N1618 C1615 1.384 . S
N1619 C1611 1.427 1_455 S
N1619 C1617 1.384 1_455 S
H1620 C1626 0.930 . S
H1621 C1630 0.930 . S
H1622 C1635 0.929 . S
H1623 C1633 0.929 . S
H1624 C1628 0.929 . S
H1625 C1634 0.929 . S
C1626 H1620 0.930 . S
C1626 C1627 1.367 . S
C1626 C1634 1.378 . S
C1627 C1626 1.367 . S
C1627 C1635 1.433 . S
C1628 H1624 0.929 . S
C1628 C1630 1.378 . S
C1628 C1632 1.350 . S
C1629 C1632 1.463 . S
C1629 C1634 1.350 . S
C1629 N1637 1.427 . S
C1630 H1621 0.930 . S
C1630 C1628 1.378 . S
C1630 C1631 1.367 . S
C1631 C1630 1.367 . S
C1631 C1633 1.433 . S
C1632 C1628 1.350 . S
C1632 C1629 1.463 . S
C1632 N1636 1.427 . S
C1633 H1623 0.929 . S
C1633 C1631 1.433 . S
C1633 N1636 1.384 . S
C1634 H1625 0.929 . S
C1634 C1626 1.378 . S
C1634 C1629 1.350 . S
C1635 H1622 0.929 . S
C1635 C1627 1.433 . S
C1635 N1637 1.384 . S
N1636 C1632 1.427 . S
N1636 C1633 1.384 . S
N1637 C1629 1.427 . S
N1637 C1635 1.384 . S
H1638 C1644 0.930 . S
H1639 C1648 0.930 . S
H1640 C1653 0.929 . S
H1641 C1651 0.906 1_655 S
H1642 C1646 0.929 . S
H1643 C1652 0.929 . S
C1644 H1638 0.930 . S
C1644 C1645 1.367 . S
C1644 C1652 1.378 . S
C1645 C1644 1.367 . S
C1645 C1653 1.433 . S
C1646 H1642 0.929 . S
C1646 C1648 1.378 . S
C1646 C1650 1.350 . S
C1647 C1650 1.463 . S
C1647 C1652 1.350 . S
C1647 N1655 1.427 . S
C1648 H1639 0.930 . S
C1648 C1646 1.378 . S
C1648 C1649 1.367 . S
C1649 C1648 1.367 . S
C1649 C1651 1.452 . S
C1650 C1646 1.350 . S
C1650 C1647 1.463 . S
C1650 N1654 1.427 . S
C1651 H1641 0.906 1_455 S
C1651 C1649 1.452 . S
C1651 N1654 1.391 . S
C1652 H1643 0.929 . S
C1652 C1644 1.378 . S
C1652 C1647 1.350 . S
C1653 H1640 0.929 . S
C1653 C1645 1.433 . S
C1653 N1655 1.384 . S
N1654 C1650 1.427 . S
N1654 C1651 1.391 . S
N1655 C1647 1.427 . S
N1655 C1653 1.384 . S
H1656 C1662 0.930 . S
H1657 C1666 0.930 . S
H1658 C1671 0.929 . S
H1659 C1669 0.929 . S
H1660 C1664 0.929 . S
H1661 C1670 0.929 . S
C1662 H1656 0.930 . S
C1662 C1663 1.367 . S
C1662 C1670 1.378 . S
C1663 C1662 1.367 . S
C1663 C1671 1.433 . S
C1664 H1660 0.929 . S
C1664 C1666 1.378 . S
C1664 C1668 1.350 . S
C1665 C1668 1.463 . S
C1665 C1670 1.350 . S
C1665 N1673 1.427 . S
C1666 H1657 0.930 . S
C1666 C1664 1.378 . S
C1666 C1667 1.367 . S
C1667 C1666 1.367 . S
C1667 C1669 1.433 . S
C1668 C1664 1.350 . S
C1668 C1665 1.463 . S
C1668 N1672 1.427 . S
C1669 H1659 0.929 . S
C1669 C1667 1.433 . S
C1669 N1672 1.384 . S
C1670 H1661 0.929 . S
C1670 C1662 1.378 . S
C1670 C1665 1.350 . S
C1671 H1658 0.929 . S
C1671 C1663 1.433 . S
C1671 N1673 1.384 . S
N1672 C1668 1.427 . S
N1672 C1669 1.384 . S
N1673 C1665 1.427 . S
N1673 C1671 1.384 . S
H1674 C1680 0.930 . S
H1675 C1684 0.930 . S
H1676 C1689 0.929 . S
H1677 C1687 0.929 . S
H1678 C1682 0.929 . S
H1679 C1688 0.929 . S
C1680 H1674 0.930 . S
C1680 C1681 1.367 . S
C1680 C1688 1.378 . S
C1681 C1680 1.367 . S
C1681 C1689 1.433 . S
C1682 H1678 0.929 . S
C1682 C1684 1.378 . S
C1682 C1686 1.350 . S
C1683 C1686 1.463 . S
C1683 C1688 1.350 . S
C1683 N1691 1.427 . S
C1684 H1675 0.930 . S
C1684 C1682 1.378 . S
C1684 C1685 1.367 . S
C1685 C1684 1.367 . S
C1685 C1687 1.433 . S
C1686 C1682 1.350 . S
C1686 C1683 1.463 . S
C1686 N1690 1.427 . S
C1687 H1677 0.929 . S
C1687 C1685 1.433 . S
C1687 N1690 1.384 . S
C1688 H1679 0.929 . S
C1688 C1680 1.378 . S
C1688 C1683 1.350 . S
C1689 H1676 0.929 . S
C1689 C1681 1.433 . S
C1689 N1691 1.384 . S
N1690 C1686 1.427 . S
N1690 C1687 1.384 . S
N1691 C1683 1.427 . S
N1691 C1689 1.384 . S
H1692 C1698 0.930 . S
H1693 C1702 0.930 . S
H1694 C1707 0.929 . S
H1695 C1705 0.929 . S
H1696 C1700 0.929 . S
H1697 C1706 0.929 . S
C1698 H1692 0.930 . S
C1698 C1699 1.367 . S
C1698 C1706 1.378 . S
C1699 C1698 1.367 . S
C1699 C1707 1.433 . S
C1700 H1696 0.929 . S
C1700 C1702 1.378 . S
C1700 C1704 1.350 . S
C1701 C1704 1.463 . S
C1701 C1706 1.350 . S
C1701 N1709 1.427 . S
C1702 H1693 0.930 . S
C1702 C1700 1.378 . S
C1702 C1703 1.367 . S
C1703 C1702 1.367 . S
C1703 C1705 1.433 . S
C1704 C1700 1.350 . S
C1704 C1701 1.463 . S
C1704 N1708 1.427 . S
C1705 H1695 0.929 . S
C1705 C1703 1.433 . S
C1705 N1708 1.384 . S
C1706 H1697 0.929 . S
C1706 C1698 1.378 . S
C1706 C1701 1.350 . S
C1707 H1694 0.929 . S
C1707 C1699 1.433 . S
C1707 N1709 1.384 . S
N1708 C1704 1.427 . S
N1708 C1705 1.384 . S
N1709 C1701 1.427 . S
N1709 C1707 1.384 . S
H1710 C1716 0.930 . S
H1711 C1720 0.930 . S
H1712 C1725 0.929 . S
H1713 C1723 0.929 . S
H1714 C1718 0.929 . S
H1715 C1724 0.929 . S
C1716 H1710 0.930 . S
C1716 C1717 1.367 . S
C1716 C1724 1.378 . S
C1717 C1716 1.367 . S
C1717 C1725 1.433 . S
C1718 H1714 0.929 . S
C1718 C1720 1.378 . S
C1718 C1722 1.350 . S
C1719 C1722 1.463 . S
C1719 C1724 1.350 . S
C1719 N1727 1.427 . S
C1720 H1711 0.930 . S
C1720 C1718 1.378 . S
C1720 C1721 1.367 . S
C1721 C1720 1.367 . S
C1721 C1723 1.433 . S
C1722 C1718 1.350 . S
C1722 C1719 1.463 . S
C1722 N1726 1.427 . S
C1723 H1713 0.929 . S
C1723 C1721 1.433 . S
C1723 N1726 1.384 . S
C1724 H1715 0.929 . S
C1724 C1716 1.378 . S
C1724 C1719 1.350 . S
C1725 H1712 0.929 . S
C1725 C1717 1.433 . S
C1725 N1727 1.384 . S
N1726 C1722 1.427 . S
N1726 C1723 1.384 . S
N1727 C1719 1.427 . S
N1727 C1725 1.384 . S
H1728 C1734 0.930 . S
H1729 C1738 0.930 . S
H1730 C1743 0.929 . S
H1731 C1741 0.929 . S
H1732 C1736 0.929 . S
H1733 C1742 0.929 . S
C1734 H1728 0.930 . S
C1734 C1735 1.367 . S
C1734 C1742 1.378 . S
C1735 C1734 1.367 . S
C1735 C1743 1.433 . S
C1736 H1732 0.929 . S
C1736 C1738 1.378 . S
C1736 C1740 1.350 . S
C1737 C1740 1.463 . S
C1737 C1742 1.350 . S
C1737 N1745 1.427 . S
C1738 H1729 0.930 . S
C1738 C1736 1.378 . S
C1738 C1739 1.367 . S
C1739 C1738 1.367 . S
C1739 C1741 1.433 . S
C1740 C1736 1.350 . S
C1740 C1737 1.463 . S
C1740 N1744 1.427 . S
C1741 H1731 0.929 . S
C1741 C1739 1.433 . S
C1741 N1744 1.384 . S
C1742 H1733 0.929 . S
C1742 C1734 1.378 . S
C1742 C1737 1.350 . S
C1743 H1730 0.929 . S
C1743 C1735 1.433 . S
C1743 N1745 1.384 . S
N1744 C1740 1.427 . S
N1744 C1741 1.384 . S
N1745 C1737 1.427 . S
N1745 C1743 1.384 . S
H1746 C1752 0.930 . S
H1747 C1756 0.930 . S
H1748 C1761 0.929 . S
H1749 C1759 0.929 . S
H1750 C1754 0.929 . S
H1751 C1760 0.929 . S
C1752 H1746 0.930 . S
C1752 C1753 1.367 . S
C1752 C1760 1.378 . S
C1753 C1752 1.367 . S
C1753 C1761 1.433 . S
C1754 H1750 0.929 . S
C1754 C1756 1.378 . S
C1754 C1758 1.350 . S
C1755 C1758 1.463 . S
C1755 C1760 1.350 . S
C1755 N1763 1.427 . S
C1756 H1747 0.930 . S
C1756 C1754 1.378 . S
C1756 C1757 1.367 . S
C1757 C1756 1.367 . S
C1757 C1759 1.433 . S
C1758 C1754 1.350 . S
C1758 C1755 1.463 . S
C1758 N1762 1.427 . S
C1759 H1749 0.929 . S
C1759 C1757 1.433 . S
C1759 N1762 1.384 . S
C1760 H1751 0.929 . S
C1760 C1752 1.378 . S
C1760 C1755 1.350 . S
C1761 H1748 0.929 . S
C1761 C1753 1.433 . S
C1761 N1763 1.384 . S
N1762 C1758 1.427 . S
N1762 C1759 1.384 . S
N1763 C1755 1.427 . S
N1763 C1761 1.384 . S
H1764 C1770 0.930 . S
H1765 C1774 0.930 . S
H1766 C1779 0.929 . S
H1767 C1777 0.929 . S
H1768 C1772 0.929 . S
H1769 C1778 0.929 . S
C1770 H1764 0.930 . S
C1770 C1771 1.367 . S
C1770 C1778 1.378 . S
C1771 C1770 1.367 . S
C1771 C1779 1.433 . S
C1772 H1768 0.929 . S
C1772 C1774 1.378 . S
C1772 C1776 1.350 . S
C1773 C1776 1.463 . S
C1773 C1778 1.350 . S
C1773 N1781 1.427 . S
C1774 H1765 0.930 . S
C1774 C1772 1.378 . S
C1774 C1775 1.367 . S
C1775 C1774 1.367 . S
C1775 C1777 1.433 . S
C1776 C1772 1.350 . S
C1776 C1773 1.463 . S
C1776 N1780 1.427 . S
C1777 H1767 0.929 . S
C1777 C1775 1.433 . S
C1777 N1780 1.384 . S
C1778 H1769 0.929 . S
C1778 C1770 1.378 . S
C1778 C1773 1.350 . S
C1779 H1766 0.929 . S
C1779 C1771 1.433 . S
C1779 N1781 1.384 . S
N1780 C1776 1.427 . S
N1780 C1777 1.384 . S
N1781 C1773 1.427 . S
N1781 C1779 1.384 . S
H1782 C1788 0.930 . S
H1783 C1792 0.930 . S
H1784 C1797 0.929 . S
H1785 C1795 0.929 . S
H1786 C1790 0.929 . S
H1787 C1796 0.929 . S
C1788 H1782 0.930 . S
C1788 C1789 1.367 . S
C1788 C1796 1.378 . S
C1789 C1788 1.367 . S
C1789 C1797 1.433 . S
C1790 H1786 0.929 . S
C1790 C1792 1.378 . S
C1790 C1794 1.350 . S
C1791 C1794 1.463 . S
C1791 C1796 1.350 . S
C1791 N1799 1.427 . S
C1792 H1783 0.930 . S
C1792 C1790 1.378 . S
C1792 C1793 1.367 . S
C1793 C1792 1.367 . S
C1793 C1795 1.433 . S
C1794 C1790 1.350 . S
C1794 C1791 1.463 . S
C1794 N1798 1.427 . S
C1795 H1785 0.929 . S
C1795 C1793 1.433 . S
C1795 N1798 1.384 . S
C1796 H1787 0.929 . S
C1796 C1788 1.378 . S
C1796 C1791 1.350 . S
C1797 H1784 0.929 . S
C1797 C1789 1.433 . S
C1797 N1799 1.384 . S
N1798 C1794 1.427 . S
N1798 C1795 1.384 . S
N1799 C1791 1.427 . S
N1799 C1797 1.384 . S
H1800 C1806 0.930 . S
H1801 C1810 0.930 . S
H1802 C1815 0.929 1_554 S
H1803 C1813 0.929 . S
H1804 C1808 0.929 . S
H1805 C1814 0.929 . S
C1806 H1800 0.930 . S
C1806 C1807 1.367 . S
C1806 C1814 1.378 . S
C1807 C1806 1.367 . S
C1807 C1815 1.433 . S
C1808 H1804 0.929 . S
C1808 C1810 1.378 . S
C1808 C1812 1.350 1_554 S
C1809 C1812 1.463 . S
C1809 C1814 1.350 . S
C1809 N1817 1.427 . S
C1810 H1801 0.930 . S
C1810 C1808 1.378 . S
C1810 C1811 1.367 1_554 S
C1811 C1810 1.367 1_556 S
C1811 C1813 1.433 . S
C1812 C1808 1.350 1_556 S
C1812 C1809 1.463 . S
C1812 N1816 1.427 . S
C1813 H1803 0.929 . S
C1813 C1811 1.433 . S
C1813 N1816 1.384 . S
C1814 H1805 0.929 . S
C1814 C1806 1.378 . S
C1814 C1809 1.350 . S
C1815 H1802 0.929 1_556 S
C1815 C1807 1.433 . S
C1815 N1817 1.384 . S
N1816 C1812 1.427 . S
N1816 C1813 1.384 . S
N1817 C1809 1.427 . S
N1817 C1815 1.384 . S
H1818 C1824 0.930 . S
H1819 C1828 0.930 . S
H1820 C1833 0.929 . S
H1821 C1831 0.929 . S
H1822 C1826 0.929 . S
H1823 C1832 0.929 . S
C1824 H1818 0.930 . S
C1824 C1825 1.367 . S
C1824 C1832 1.378 . S
C1825 C1824 1.367 . S
C1825 C1833 1.433 . S
C1826 H1822 0.929 . S
C1826 C1828 1.378 . S
C1826 C1830 1.350 . S
C1827 C1830 1.463 . S
C1827 C1832 1.350 . S
C1827 N1835 1.427 . S
C1828 H1819 0.930 . S
C1828 C1826 1.378 . S
C1828 C1829 1.367 . S
C1829 C1828 1.367 . S
C1829 C1831 1.433 . S
C1830 C1826 1.350 . S
C1830 C1827 1.463 . S
C1830 N1834 1.427 . S
C1831 H1821 0.929 . S
C1831 C1829 1.433 . S
C1831 N1834 1.384 . S
C1832 H1823 0.929 . S
C1832 C1824 1.378 . S
C1832 C1827 1.350 . S
C1833 H1820 0.929 . S
C1833 C1825 1.433 . S
C1833 N1835 1.384 . S
N1834 C1830 1.427 . S
N1834 C1831 1.384 . S
N1835 C1827 1.427 . S
N1835 C1833 1.384 . S
H1836 C1842 0.930 . S
H1837 C1846 0.930 . S
H1838 C1851 0.929 . S
H1839 C1849 0.929 . S
H1840 C1844 0.933 . S
H1841 C1850 0.929 . S
C1842 H1836 0.930 . S
C1842 C1843 1.367 . S
C1842 C1850 1.378 . S
C1843 C1842 1.367 . S
C1843 C1851 1.433 . S
C1844 H1840 0.933 . S
C1844 C1846 1.379 . S
C1844 C1848 1.345 1_556 S
C1845 C1848 1.463 . S
C1845 C1850 1.350 . S
C1845 N1853 1.427 . S
C1846 H1837 0.930 . S
C1846 C1844 1.379 . S
C1846 C1847 1.367 1_556 S
C1847 C1846 1.367 1_554 S
C1847 C1849 1.433 . S
C1848 C1844 1.345 1_554 S
C1848 C1845 1.463 . S
C1848 N1852 1.427 . S
C1849 H1839 0.929 . S
C1849 C1847 1.433 . S
C1849 N1852 1.384 . S
C1850 H1841 0.929 . S
C1850 C1842 1.378 . S
C1850 C1845 1.350 . S
C1851 H1838 0.929 . S
C1851 C1843 1.433 . S
C1851 N1853 1.384 . S
N1852 C1848 1.427 . S
N1852 C1849 1.384 . S
N1853 C1845 1.427 . S
N1853 C1851 1.384 . S
H1854 C1860 0.930 . S
H1855 C1864 0.930 . S
H1856 C1869 0.929 . S
H1857 C1867 0.929 . S
H1858 C1862 0.929 . S
H1859 C1868 0.929 . S
C1860 H1854 0.930 . S
C1860 C1861 1.367 . S
C1860 C1868 1.378 . S
C1861 C1860 1.367 . S
C1861 C1869 1.433 . S
C1862 H1858 0.929 . S
C1862 C1864 1.378 . S
C1862 C1866 1.350 . S
C1863 C1866 1.463 . S
C1863 C1868 1.350 . S
C1863 N1871 1.427 . S
C1864 H1855 0.930 . S
C1864 C1862 1.378 . S
C1864 C1865 1.367 . S
C1865 C1864 1.367 . S
C1865 C1867 1.433 . S
C1866 C1862 1.350 . S
C1866 C1863 1.463 . S
C1866 N1870 1.427 . S
C1867 H1857 0.929 . S
C1867 C1865 1.433 . S
C1867 N1870 1.384 . S
C1868 H1859 0.929 . S
C1868 C1860 1.378 . S
C1868 C1863 1.350 . S
C1869 H1856 0.929 . S
C1869 C1861 1.433 . S
C1869 N1871 1.384 . S
N1870 C1866 1.427 . S
N1870 C1867 1.384 . S
N1871 C1863 1.427 . S
N1871 C1869 1.384 . S
C1019 C578 1.439 . S
C1015 C181 1.455 . S
C1037 C626 1.630 . S
C1033 C247 1.679 . S
C1051 C283 1.442 . S
C1055 C662 1.371 . S
C1073 C698 1.572 . S
C1069 C169 1.617 . S
C1091 C724 1.477 . S
C1087 C361 1.485 . S
C1109 C760 1.582 . S
C1105 C433 1.575 . S
C1123 C421 1.502 . S
C1127 C795 1.504 . S
C1145 C832 1.615 1_565 S
C1141 C355 1.621 . S
C1159 C427 1.468 . S
C1163 C866 1.454 . S
C1181 C914 1.558 . S
C1177 C325 1.606 . S
C1195 C385 1.460 . S
C1199 C867 1.462 . S
C1217 C904 1.617 . S
C1213 C463 1.606 . S
C1231 C253 1.481 . S
C1235 C950 1.412 . S
C1249 C145 1.623 . S
C1253 C939 1.624 . S
C1267 C205 1.488 . S
C1271 C940 1.480 . S
C1285 C217 1.645 . S
C1289 C938 1.641 . S
C1303 C139 1.486 . S
C1307 C686 1.468 . S
C1321 C535 1.450 . S
C1325 C687 1.453 . S
C1343 C590 1.578 . S
C1339 C565 1.633 . S
C1361 C615 1.470 . S
C1357 C313 1.468 . S
C1375 C175 1.639 . S
C1379 C722 1.639 . S
C1397 C830 1.468 . S
C1393 C397 1.484 . S
C1415 C723 1.591 . S
C1411 C349 1.599 . S
C1433 C796 1.625 . S
C1429 C457 1.616 . S
C1451 C794 1.435 . S
C1447 C505 1.452 . S
C1465 C571 1.678 . S
C1469 C842 1.623 . S
C1483 C319 1.442 . S
C1487 C734 1.372 . S
C1505 C770 1.573 . S
C1501 C493 1.616 . S
C1519 C109 1.483 . S
C1523 C652 1.475 . S
C1541 C688 1.581 . S
C1537 C1 1.577 . S
C1559 C579 1.504 . S
C1555 C61 1.502 . S
C1577 C616 1.617 . S
C1573 C103 1.622 . S
C1591 C67 1.465 . S
C1595 C902 1.446 . S
C1609 C73 1.607 . S
C1613 C878 1.566 . S
C1627 C133 1.456 . S
C1631 C903 1.461 . S
C1645 C31 1.612 . S
C1649 C868 1.620 . S
C1667 C986 1.410 . S
C1663 C289 1.479 . S
C1685 C975 1.626 . S
C1681 C469 1.627 . S
C1703 C976 1.476 . S
C1699 C529 1.488 . S
C1717 C541 1.647 . S
C1721 C974 1.639 . S
C1735 C391 1.482 . S
C1739 C758 1.459 . S
C1757 C759 1.452 . S
C1753 C211 1.448 . S
C1775 C806 1.587 . S
C1771 C241 1.634 . S
C1793 C831 1.472 . S
C1789 C277 1.475 . S
C1807 C499 1.639 . S
C1811 C650 1.638 1_556 S
C1829 C614 1.467 . S
C1825 C37 1.486 . S
C1843 C97 1.598 . S
C1847 C651 1.596 . S
C1865 C580 1.625 . S
C1861 C25 1.619 . S
