# Generated by pormake.
# Topology ptr, (4,4)-cn, num edge types: 1
# Building blocks:
#     Node 0, Type 0, BuildingBlock: QUQFOY_clean_sbu_1, # of connection points: 4
#     Node 1, Type 0, BuildingBlock: QUQFOY_clean_sbu_1, # of connection points: 4
#     Node 2, Type 0, BuildingBlock: QUQFOY_clean_sbu_1, # of connection points: 4
#     Node 3, Type 0, BuildingBlock: QUQFOY_clean_sbu_1, # of connection points: 4
#     Node 4, Type 0, BuildingBlock: QUQFOY_clean_sbu_1, # of connection points: 4
#     Node 5, Type 0, BuildingBlock: QUQFOY_clean_sbu_1, # of connection points: 4
#     Node 6, Type 0, BuildingBlock: QUQFOY_clean_sbu_1, # of connection points: 4
#     Node 7, Type 0, BuildingBlock: QUQFOY_clean_sbu_1, # of connection points: 4
#     Node 8, Type 0, BuildingBlock: QUQFOY_clean_sbu_1, # of connection points: 4
#     Node 9, Type 0, BuildingBlock: QUQFOY_clean_sbu_1, # of connection points: 4
#     Node 10, Type 0, BuildingBlock: QUQFOY_clean_sbu_1, # of connection points: 4
#     Node 11, Type 0, BuildingBlock: QUQFOY_clean_sbu_1, # of connection points: 4
#     Node 12, Type 0, BuildingBlock: QUQFOY_clean_sbu_1, # of connection points: 4
#     Node 13, Type 0, BuildingBlock: QUQFOY_clean_sbu_1, # of connection points: 4
#     Node 14, Type 0, BuildingBlock: QUQFOY_clean_sbu_1, # of connection points: 4
#     Node 15, Type 0, BuildingBlock: QUQFOY_clean_sbu_1, # of connection points: 4
#     Node 16, Type 0, BuildingBlock: QUQFOY_clean_sbu_1, # of connection points: 4
#     Node 17, Type 0, BuildingBlock: QUQFOY_clean_sbu_1, # of connection points: 4
#     Node 18, Type 1, BuildingBlock: GIZVER_clean_linker_0, # of connection points: 4
#     Node 19, Type 1, BuildingBlock: GIZVER_clean_linker_0, # of connection points: 4
#     Node 20, Type 1, BuildingBlock: GIZVER_clean_linker_0, # of connection points: 4
#     Node 21, Type 1, BuildingBlock: GIZVER_clean_linker_0, # of connection points: 4
#     Node 22, Type 1, BuildingBlock: GIZVER_clean_linker_0, # of connection points: 4
#     Node 23, Type 1, BuildingBlock: GIZVER_clean_linker_0, # of connection points: 4
#     Node 24, Type 1, BuildingBlock: GIZVER_clean_linker_0, # of connection points: 4
#     Node 25, Type 1, BuildingBlock: GIZVER_clean_linker_0, # of connection points: 4
#     Node 26, Type 1, BuildingBlock: GIZVER_clean_linker_0, # of connection points: 4
#     Node 27, Type 1, BuildingBlock: GIZVER_clean_linker_0, # of connection points: 4
#     Node 28, Type 1, BuildingBlock: GIZVER_clean_linker_0, # of connection points: 4
#     Node 29, Type 1, BuildingBlock: GIZVER_clean_linker_0, # of connection points: 4
#     Node 30, Type 1, BuildingBlock: GIZVER_clean_linker_0, # of connection points: 4
#     Node 31, Type 1, BuildingBlock: GIZVER_clean_linker_0, # of connection points: 4
#     Node 32, Type 1, BuildingBlock: GIZVER_clean_linker_0, # of connection points: 4
#     Node 33, Type 1, BuildingBlock: GIZVER_clean_linker_0, # of connection points: 4
#     Node 34, Type 1, BuildingBlock: GIZVER_clean_linker_0, # of connection points: 4
#     Node 35, Type 1, BuildingBlock: GIZVER_clean_linker_0, # of connection points: 4
#     Edge 36, Type (0, 1), BuildingBlock: CIFDUS_clean_linker_0, # of connection points: 2
#     Edge 37, Type (0, 1), BuildingBlock: CIFDUS_clean_linker_0, # of connection points: 2
#     Edge 38, Type (0, 1), BuildingBlock: CIFDUS_clean_linker_0, # of connection points: 2
#     Edge 39, Type (0, 1), BuildingBlock: CIFDUS_clean_linker_0, # of connection points: 2
#     Edge 40, Type (0, 1), BuildingBlock: CIFDUS_clean_linker_0, # of connection points: 2
#     Edge 41, Type (0, 1), BuildingBlock: CIFDUS_clean_linker_0, # of connection points: 2
#     Edge 42, Type (0, 1), BuildingBlock: CIFDUS_clean_linker_0, # of connection points: 2
#     Edge 43, Type (0, 1), BuildingBlock: CIFDUS_clean_linker_0, # of connection points: 2
#     Edge 44, Type (0, 1), BuildingBlock: CIFDUS_clean_linker_0, # of connection points: 2
#     Edge 45, Type (0, 1), BuildingBlock: CIFDUS_clean_linker_0, # of connection points: 2
#     Edge 46, Type (0, 1), BuildingBlock: CIFDUS_clean_linker_0, # of connection points: 2
#     Edge 47, Type (0, 1), BuildingBlock: CIFDUS_clean_linker_0, # of connection points: 2
#     Edge 48, Type (0, 1), BuildingBlock: CIFDUS_clean_linker_0, # of connection points: 2
#     Edge 49, Type (0, 1), BuildingBlock: CIFDUS_clean_linker_0, # of connection points: 2
#     Edge 50, Type (0, 1), BuildingBlock: CIFDUS_clean_linker_0, # of connection points: 2
#     Edge 51, Type (0, 1), BuildingBlock: CIFDUS_clean_linker_0, # of connection points: 2
#     Edge 52, Type (0, 1), BuildingBlock: CIFDUS_clean_linker_0, # of connection points: 2
#     Edge 53, Type (0, 1), BuildingBlock: CIFDUS_clean_linker_0, # of connection points: 2
#     Edge 54, Type (0, 1), BuildingBlock: CIFDUS_clean_linker_0, # of connection points: 2
#     Edge 55, Type (0, 1), BuildingBlock: CIFDUS_clean_linker_0, # of connection points: 2
#     Edge 56, Type (0, 1), BuildingBlock: CIFDUS_clean_linker_0, # of connection points: 2
#     Edge 57, Type (0, 1), BuildingBlock: CIFDUS_clean_linker_0, # of connection points: 2
#     Edge 58, Type (0, 1), BuildingBlock: CIFDUS_clean_linker_0, # of connection points: 2
#     Edge 59, Type (0, 1), BuildingBlock: CIFDUS_clean_linker_0, # of connection points: 2
#     Edge 60, Type (0, 1), BuildingBlock: CIFDUS_clean_linker_0, # of connection points: 2
#     Edge 61, Type (0, 1), BuildingBlock: CIFDUS_clean_linker_0, # of connection points: 2
#     Edge 62, Type (0, 1), BuildingBlock: CIFDUS_clean_linker_0, # of connection points: 2
#     Edge 63, Type (0, 1), BuildingBlock: CIFDUS_clean_linker_0, # of connection points: 2
#     Edge 64, Type (0, 1), BuildingBlock: CIFDUS_clean_linker_0, # of connection points: 2
#     Edge 65, Type (0, 1), BuildingBlock: CIFDUS_clean_linker_0, # of connection points: 2
#     Edge 66, Type (0, 1), BuildingBlock: CIFDUS_clean_linker_0, # of connection points: 2
#     Edge 67, Type (0, 1), BuildingBlock: CIFDUS_clean_linker_0, # of connection points: 2
#     Edge 68, Type (0, 1), BuildingBlock: CIFDUS_clean_linker_0, # of connection points: 2
#     Edge 69, Type (0, 1), BuildingBlock: CIFDUS_clean_linker_0, # of connection points: 2
#     Edge 70, Type (0, 1), BuildingBlock: CIFDUS_clean_linker_0, # of connection points: 2
#     Edge 71, Type (0, 1), BuildingBlock: CIFDUS_clean_linker_0, # of connection points: 2
#     Edge 72, Type (0, 1), BuildingBlock: CIFDUS_clean_linker_0, # of connection points: 2
#     Edge 73, Type (0, 1), BuildingBlock: CIFDUS_clean_linker_0, # of connection points: 2
#     Edge 74, Type (0, 1), BuildingBlock: CIFDUS_clean_linker_0, # of connection points: 2
#     Edge 75, Type (0, 1), BuildingBlock: CIFDUS_clean_linker_0, # of connection points: 2
#     Edge 76, Type (0, 1), BuildingBlock: CIFDUS_clean_linker_0, # of connection points: 2
#     Edge 77, Type (0, 1), BuildingBlock: CIFDUS_clean_linker_0, # of connection points: 2
#     Edge 78, Type (0, 1), BuildingBlock: CIFDUS_clean_linker_0, # of connection points: 2
#     Edge 79, Type (0, 1), BuildingBlock: CIFDUS_clean_linker_0, # of connection points: 2
#     Edge 80, Type (0, 1), BuildingBlock: CIFDUS_clean_linker_0, # of connection points: 2
#     Edge 81, Type (0, 1), BuildingBlock: CIFDUS_clean_linker_0, # of connection points: 2
#     Edge 82, Type (0, 1), BuildingBlock: CIFDUS_clean_linker_0, # of connection points: 2
#     Edge 83, Type (0, 1), BuildingBlock: CIFDUS_clean_linker_0, # of connection points: 2
#     Edge 84, Type (0, 1), BuildingBlock: CIFDUS_clean_linker_0, # of connection points: 2
#     Edge 85, Type (0, 1), BuildingBlock: CIFDUS_clean_linker_0, # of connection points: 2
#     Edge 86, Type (0, 1), BuildingBlock: CIFDUS_clean_linker_0, # of connection points: 2
#     Edge 87, Type (0, 1), BuildingBlock: CIFDUS_clean_linker_0, # of connection points: 2
#     Edge 88, Type (0, 1), BuildingBlock: CIFDUS_clean_linker_0, # of connection points: 2
#     Edge 89, Type (0, 1), BuildingBlock: CIFDUS_clean_linker_0, # of connection points: 2
#     Edge 90, Type (0, 1), BuildingBlock: CIFDUS_clean_linker_0, # of connection points: 2
#     Edge 91, Type (0, 1), BuildingBlock: CIFDUS_clean_linker_0, # of connection points: 2
#     Edge 92, Type (0, 1), BuildingBlock: CIFDUS_clean_linker_0, # of connection points: 2
#     Edge 93, Type (0, 1), BuildingBlock: CIFDUS_clean_linker_0, # of connection points: 2
#     Edge 94, Type (0, 1), BuildingBlock: CIFDUS_clean_linker_0, # of connection points: 2
#     Edge 95, Type (0, 1), BuildingBlock: CIFDUS_clean_linker_0, # of connection points: 2
#     Edge 96, Type (0, 1), BuildingBlock: CIFDUS_clean_linker_0, # of connection points: 2
#     Edge 97, Type (0, 1), BuildingBlock: CIFDUS_clean_linker_0, # of connection points: 2
#     Edge 98, Type (0, 1), BuildingBlock: CIFDUS_clean_linker_0, # of connection points: 2
#     Edge 99, Type (0, 1), BuildingBlock: CIFDUS_clean_linker_0, # of connection points: 2
#     Edge 100, Type (0, 1), BuildingBlock: CIFDUS_clean_linker_0, # of connection points: 2
#     Edge 101, Type (0, 1), BuildingBlock: CIFDUS_clean_linker_0, # of connection points: 2
#     Edge 102, Type (0, 1), BuildingBlock: CIFDUS_clean_linker_0, # of connection points: 2
#     Edge 103, Type (0, 1), BuildingBlock: CIFDUS_clean_linker_0, # of connection points: 2
#     Edge 104, Type (0, 1), BuildingBlock: CIFDUS_clean_linker_0, # of connection points: 2
#     Edge 105, Type (0, 1), BuildingBlock: CIFDUS_clean_linker_0, # of connection points: 2
#     Edge 106, Type (0, 1), BuildingBlock: CIFDUS_clean_linker_0, # of connection points: 2
#     Edge 107, Type (0, 1), BuildingBlock: CIFDUS_clean_linker_0, # of connection points: 2
# Relax obj value: 0.020
# Max RMSD: 0.065
# Mean RMSD: 0.054
data_MOF--net-ptr--node1-QUQFOY_clean_sbu_1--node2-GIZVER_clean_linker_0--edge1-CIFDUS_clean_linker_0
_symmetry_space_group_name_H-M    P1
_symmetry_Int_Tables_number       1
_symmetry_cell_setting            triclinic
loop_
_symmetry_equiv_pos_as_xyz
'x, y, z'
_cell_length_a     72.455747
_cell_length_b     72.376632
_cell_length_c     44.031385
_cell_angle_alpha  90.316107
_cell_angle_beta   90.303279
_cell_angle_gamma 120.01288
loop_
_atom_site_label
_atom_site_type_symbol
_atom_site_fract_x
_atom_site_fract_y
_atom_site_fract_z
_atom_type_partial_charge
O0 O 0.03165 0.41569 0.04562 0.0
Cd1 Cd 0.03346 0.39944 0.00825 0.0
Cd2 Cd 0.98999 0.37727 0.01602 0.0
O3 O 0.99747 0.39517 0.05588 0.0
O4 O 0.06244 0.4021 0.00857 0.0
O5 O 0.03246 0.37166 0.01549 0.0
C6 C 0.05305 0.38198 0.0146 0.0
C7 C 0.96734 0.34014 0.01392 0.0
C8 C 0.0157 0.41109 0.06237 0.0
C9 C 1.00779 0.40403 0.95912 0.0
O10 O 0.99187 0.39285 0.97599 0.0
O11 O 0.02635 0.40784 0.96677 0.0
O12 O 0.95984 0.35283 0.01772 0.0
O13 O 0.98781 0.34853 0.01297 0.0
O14 O 0.60496 0.61636 0.05405 0.0
Cd15 Cd 0.61651 0.63461 0.01533 0.0
Cd16 Cd 0.64444 0.61977 0.01783 0.0
O17 O 0.63196 0.61072 0.06091 0.0
O18 O 0.60909 0.65781 0.01708 0.0
O19 O 0.64221 0.66392 0.01891 0.0
C20 C 0.62924 0.6713 0.01973 0.0
C21 C 0.68126 0.63517 0.00963 0.0
C22 C 0.61451 0.60899 0.06989 0.0
C23 C 0.61158 0.60422 0.96655 0.0
O24 O 0.62523 0.60185 0.98175 0.0
O25 O 0.60682 0.61823 0.97448 0.0
O26 O 0.66955 0.61526 0.01611 0.0
O27 O 0.67219 0.64664 0.00888 0.0
O28 O 0.41409 0.02264 0.97593 0.0
Cd29 Cd 0.40045 0.02426 0.01631 0.0
Cd30 Cd 0.37995 0.98113 0.00832 0.0
O31 O 0.3946 0.98806 0.96645 0.0
O32 O 0.40597 0.05424 0.01873 0.0
O33 O 0.3737 0.02615 0.01365 0.0
C34 C 0.38576 0.04665 0.01501 0.0
C35 C 0.34327 0.95875 0.01533 0.0
C36 C 0.40915 0.00659 0.95879 0.0
C37 C 0.41 0.99972 0.06195 0.0
O38 O 0.39892 0.98363 0.04485 0.0
O39 O 0.41154 0.01765 0.05607 0.0
O40 O 0.35544 0.95112 0.00834 0.0
O41 O 0.3518 0.97927 0.01677 0.0
O42 O 0.9921 0.59538 0.96985 0.0
Cd43 Cd 0.98586 0.60808 0.00824 0.0
Cd44 Cd 0.02983 0.63095 0.00998 0.0
O45 O 0.02697 0.61668 0.96819 0.0
O46 O 0.95474 0.59801 0.00537 0.0
O47 O 0.97939 0.63211 0.00434 0.0
C48 C 0.95946 0.61764 0.0032 0.0
C49 C 0.05239 0.66772 0.01747 0.0
C50 C 0.00986 0.60149 0.95686 0.0
C51 C 1.00747 0.6005 0.06106 0.0
O52 O 0.02498 0.61225 0.04764 0.0
O53 O 0.99004 0.59788 0.05012 0.0
O54 O 0.05986 0.65501 0.01375 0.0
O55 O 0.03195 0.65963 0.01581 0.0
O56 O 0.4113 0.39619 0.97593 0.0
Cd57 Cd 0.3964 0.37615 0.01232 0.0
Cd58 Cd 0.37825 0.40266 0.01564 0.0
O59 O 0.39243 0.41252 0.97391 0.0
O60 O 0.40252 0.35219 0.00779 0.0
O61 O 0.37 0.34749 0.00487 0.0
C62 C 0.38239 0.33944 0.00364 0.0
C63 C 0.34396 0.39757 0.02345 0.0
C64 C 0.4067 0.40911 0.96307 0.0
C65 C 0.40753 0.40481 0.06665 0.0
O66 O 0.39817 0.41342 0.05332 0.0
O67 O 0.40707 0.38838 0.0554 0.0
O68 O 0.36041 0.41635 0.02121 0.0
O69 O 0.34678 0.3814 0.02021 0.0
O70 O 0.60067 0.98773 0.04896 0.0
Cd71 Cd 0.61343 0.98166 0.01091 0.0
Cd72 Cd 0.63571 0.02562 0.00873 0.0
O73 O 0.62161 0.02275 0.0505 0.0
O74 O 0.60862 0.95194 0.01483 0.0
O75 O 0.64061 0.98077 0.01521 0.0
C76 C 0.62901 0.96026 0.01732 0.0
C77 C 0.67258 0.0483 0.00324 0.0
C78 C 0.60674 0.00566 0.06185 0.0
C79 C 0.60402 1.00152 0.95794 0.0
O80 O 0.61655 0.01946 0.97048 0.0
O81 O 0.60148 0.98433 0.9695 0.0
O82 O 0.65981 0.0558 0.0055 0.0
O83 O 0.66442 0.02784 0.00463 0.0
O84 O 0.69414 0.74786 0.38328 0.0
Cd85 Cd 0.70143 0.73658 0.34465 0.0
Cd86 Cd 0.65676 0.71216 0.34336 0.0
O87 O 0.65942 0.72578 0.38563 0.0
O88 O 0.73299 0.74919 0.34876 0.0
O89 O 0.71073 0.71445 0.34783 0.0
C90 C 0.73004 0.73015 0.35057 0.0
C91 C 0.63534 0.67517 0.33696 0.0
C92 C 0.67647 0.74115 0.39674 0.0
C93 C 0.67888 0.74404 0.29287 0.0
O94 O 0.66146 0.73109 0.30573 0.0
O95 O 0.69662 0.74744 0.30378 0.0
O96 O 0.62709 0.68728 0.33984 0.0
O97 O 0.65588 0.6841 0.33821 0.0
O98 O 0.26418 0.95062 0.38699 0.0
Cd99 Cd 0.27735 0.96947 0.34903 0.0
Cd100 Cd 0.30244 0.95125 0.34978 0.0
O101 O 0.28897 0.94157 0.39213 0.0
O102 O 0.27426 0.99545 0.35215 0.0
O103 O 0.30527 0.99644 0.35441 0.0
C104 C 0.29472 0.00648 0.35554 0.0
C105 C 0.33926 0.96544 0.34353 0.0
C106 C 0.27244 0.94151 0.4019 0.0
C107 C 0.27137 0.94053 0.29722 0.0
O108 O 0.28362 0.93592 0.31206 0.0
O109 O 0.26781 0.95507 0.30677 0.0
O110 O 0.32665 0.94533 0.34775 0.0
O111 O 0.33103 0.97768 0.34371 0.0
O112 O 0.07804 0.35174 0.31027 0.0
Cd113 Cd 0.06658 0.35934 0.34858 0.0
Cd114 Cd 0.04059 0.31546 0.34895 0.0
O115 O 0.0529 0.3179 0.30603 0.0
O116 O 0.07847 0.39082 0.34631 0.0
O117 O 0.04392 0.3677 0.34438 0.0
C118 C 0.05924 0.3873 0.34365 0.0
C119 C 1.00381 0.29401 0.35652 0.0
C120 C 0.06938 0.33411 0.29576 0.0
C121 C 0.07266 0.33624 0.4001 0.0
O122 O 0.06004 0.31908 0.3859 0.0
O123 O 0.07614 0.35416 0.39024 0.0
O124 O 0.01579 0.28581 0.35192 0.0
O125 O 0.01268 0.31457 0.3561 0.0
O126 O 0.64977 0.93159 0.31145 0.0
Cd127 Cd 0.64728 0.94621 0.35058 0.0
Cd128 Cd 0.69094 0.96507 0.34591 0.0
O129 O 0.68463 0.94889 0.30497 0.0
O130 O 0.6162 0.93659 0.3517 0.0
O131 O 0.6409 0.97033 0.34622 0.0
C132 C 0.62094 0.95607 0.34754 0.0
C133 C 0.71261 1.00208 0.35059 0.0
C134 C 0.666 0.93501 0.29611 0.0
C135 C 0.67072 0.93772 0.40037 0.0
O136 O 0.68741 0.94758 0.38441 0.0
O137 O 0.65337 0.93661 0.39191 0.0
O138 O 0.72067 0.98988 0.34655 0.0
O139 O 0.69206 0.99325 0.35068 0.0
O140 O 0.07736 0.72711 0.30999 0.0
Cd141 Cd 0.06169 0.70772 0.34658 0.0
Cd142 Cd 0.04282 0.7323 0.34594 0.0
O143 O 0.0576 0.74225 0.30444 0.0
O144 O 0.06793 0.68369 0.34436 0.0
O145 O 0.0356 0.67904 0.33836 0.0
C146 C 0.04797 0.67097 0.33872 0.0
C147 C 1.00578 0.71542 0.35089 0.0
C148 C 0.07252 0.73922 0.29532 0.0
C149 C 0.07039 0.7372 0.39983 0.0
O150 O 0.06133 0.74544 0.38473 0.0
O151 O 0.07059 0.72079 0.38975 0.0
O152 O 0.01713 0.73589 0.34823 0.0
O153 O 0.01551 0.70455 0.34989 0.0
O154 O 0.27153 0.3215 0.38425 0.0
Cd155 Cd 0.28516 0.3168 0.34603 0.0
Cd156 Cd 0.30625 0.36051 0.34666 0.0
O157 O 0.2923 0.35642 0.3889 0.0
O158 O 0.27996 0.28687 0.34844 0.0
O159 O 0.31211 0.31539 0.35054 0.0
C160 C 0.30027 0.29487 0.35158 0.0
C161 C 0.34312 0.38215 0.34004 0.0
C162 C 0.27726 0.33882 0.39873 0.0
C163 C 0.27514 0.33758 0.29502 0.0
O164 O 0.28679 0.35515 0.30902 0.0
O165 O 0.27355 0.32034 0.30483 0.0
O166 O 0.33106 0.39037 0.3439 0.0
O167 O 0.33427 0.3616 0.34081 0.0
O168 O 0.36168 0.07492 0.72066 0.0
Cd169 Cd 0.36595 0.06423 0.67916 0.0
Cd170 Cd 0.31883 0.04231 0.68549 0.0
O171 O 0.3267 0.05839 0.72689 0.0
O172 O 0.39752 0.076 0.67954 0.0
O173 O 0.37449 0.04145 0.67931 0.0
C174 C 0.39406 0.05675 0.6809 0.0
C175 C 0.28957 0.00742 0.68061 0.0
C176 C 0.34553 0.07122 0.73635 0.0
C177 C 0.34078 0.07228 0.63158 0.0
O178 O 0.32424 0.06018 0.64683 0.0
O179 O 0.35908 0.07569 0.63995 0.0
O180 O 0.28708 0.02368 0.68464 0.0
O181 O 0.30883 0.01074 0.68093 0.0
O182 O 0.93446 0.28147 0.72196 0.0
Cd183 Cd 0.94602 0.29896 0.68275 0.0
Cd184 Cd 0.97518 0.28504 0.68664 0.0
O185 O 0.96146 0.27582 0.72921 0.0
O186 O 0.94162 0.32422 0.68359 0.0
O187 O 0.97337 0.32679 0.68588 0.0
C188 C 0.96207 0.33608 0.68624 0.0
C189 C 0.01198 0.29857 0.68041 0.0
C190 C 0.94405 0.27428 0.73809 0.0
C191 C 0.94303 0.2696 0.63369 0.0
O192 O 0.95736 0.26833 0.64883 0.0
O193 O 0.93647 0.28211 0.64229 0.0
O194 O 0.9992 0.27879 0.68646 0.0
O195 O 1.00404 0.31105 0.67932 0.0
O196 O 0.74837 0.6856 0.63651 0.0
Cd197 Cd 0.73409 0.69069 0.67392 0.0
Cd198 Cd 0.71372 0.64651 0.67537 0.0
O199 O 0.72908 0.65043 0.6346 0.0
O200 O 0.74011 0.72075 0.67086 0.0
O201 O 0.70759 0.69281 0.66792 0.0
C202 C 0.71992 0.71328 0.66724 0.0
C203 C 0.67796 0.61957 0.68059 0.0
C204 C 0.74359 0.66792 0.62371 0.0
C205 C 0.74321 0.6713 0.72765 0.0
O206 O 0.7323 0.65344 0.71409 0.0
O207 O 0.74482 0.68819 0.71646 0.0
O208 O 0.69312 0.61524 0.67836 0.0
O209 O 0.68299 0.63936 0.67886 0.0
O210 O 0.33255 0.26988 0.64019 0.0
Cd211 Cd 0.32732 0.28403 0.67768 0.0
Cd212 Cd 0.37161 0.30454 0.68024 0.0
O213 O 0.36765 0.28928 0.63908 0.0
O214 O 0.29695 0.27689 0.67396 0.0
O215 O 0.32404 0.3099 0.67191 0.0
C216 C 0.3037 0.29694 0.67059 0.0
C217 C 0.39876 0.34031 0.68586 0.0
C218 C 0.35018 0.27473 0.6277 0.0
C219 C 0.34678 0.27471 0.7313 0.0
O220 O 0.36465 0.28576 0.71838 0.0
O221 O 0.32992 0.2732 0.71989 0.0
O222 O 0.4029 0.325 0.68364 0.0
O223 O 0.379 0.3354 0.68424 0.0
O224 O 0.74318 0.06056 0.64813 0.0
Cd225 Cd 0.72546 0.04197 0.68412 0.0
Cd226 Cd 0.71154 0.0712 0.68088 0.0
O227 O 0.7275 0.07957 0.64008 0.0
O228 O 0.73112 0.01761 0.68345 0.0
O229 O 0.69915 0.0134 0.67546 0.0
C230 C 0.71128 1.00508 0.67703 0.0
C231 C 0.6764 0.06419 0.6854 0.0
C232 C 0.74109 0.07417 0.63257 0.0
C233 C 0.73706 0.07264 0.736 0.0
O234 O 0.73021 0.08247 0.71981 0.0
O235 O 0.73472 0.05484 0.72718 0.0
O236 O 0.69218 0.08338 0.68283 0.0
O237 O 0.68045 0.04871 0.68412 0.0
O238 O 0.93347 0.65156 0.71255 0.0
Cd239 Cd 0.94705 0.64644 0.6748 0.0
Cd240 Cd 0.97114 0.69299 0.6815 0.0
O241 O 0.95373 0.6862 0.72132 0.0
O242 O 0.9346 0.61475 0.67545 0.0
O243 O 0.96914 0.6372 0.67981 0.0
C244 C 0.95351 0.61776 0.67974 0.0
C245 C 1.00618 0.72224 0.67891 0.0
C246 C 0.93818 0.66806 0.72851 0.0
C247 C 0.94256 0.67179 0.62508 0.0
O248 O 0.95453 0.6882 0.64119 0.0
O249 O 0.93821 0.65328 0.63354 0.0
O250 O 0.98989 0.72477 0.6815 0.0
O251 O 1.00281 0.70295 0.67956 0.0
H252 H 0.15508 0.33151 0.15653 0.0
H253 H 0.15313 0.34689 0.06228 0.0
H254 H 0.11392 0.35482 0.12795 0.0
H255 H 0.16369 0.31354 0.11223 0.0
H256 H 0.16854 0.32529 0.07567 0.0
H257 H 0.18852 0.33671 0.15741 0.0
H258 H 0.25389 0.37069 0.13065 0.0
H259 H 0.20454 0.34812 0.06248 0.0
C260 C 0.14963 0.33795 0.13877 0.0
C261 C 0.13432 0.34375 0.14573 0.0
C262 C 0.15672 0.33908 0.10868 0.0
C263 C 0.14833 0.34644 0.08565 0.0
C264 C 0.13265 0.35184 0.09255 0.0
C265 C 0.12592 0.35055 0.12257 0.0
C266 C 0.17016 0.32908 0.10041 0.0
C267 C 0.19357 0.34252 0.10906 0.0
C268 C 0.20015 0.3443 0.1397 0.0
C269 C 0.2219 0.35485 0.14745 0.0
C270 C 0.23714 0.36349 0.1246 0.0
C271 C 0.23105 0.36084 0.09395 0.0
C272 C 0.20926 0.3506 0.08622 0.0
H273 H 0.67572 0.82439 0.15156 0.0
H274 H 0.66145 0.80633 0.057 0.0
H275 H 0.641 0.75836 0.12574 0.0
H276 H 0.69772 0.84845 0.10546 0.0
H277 H 0.68466 0.84292 0.06954 0.0
H278 H 0.68201 0.85818 0.15089 0.0
H279 H 0.65451 0.89637 0.12542 0.0
H280 H 0.66236 0.85789 0.05796 0.0
C281 C 0.66772 0.81238 0.13407 0.0
C282 C 0.65737 0.79077 0.14219 0.0
C283 C 0.66854 0.81834 0.10341 0.0
C284 C 0.65977 0.80215 0.08081 0.0
C285 C 0.64986 0.78052 0.08893 0.0
C286 C 0.64819 0.77505 0.11958 0.0
C287 C 0.68176 0.84163 0.09443 0.0
C288 C 0.67224 0.85537 0.10367 0.0
C289 C 0.67444 0.86295 0.13386 0.0
C290 C 0.66751 0.87728 0.14201 0.0
C291 C 0.65907 0.88462 0.11957 0.0
C292 C 0.65736 0.87792 0.08935 0.0
C293 C 0.66344 0.86287 0.08147 0.0
H294 H 0.178 0.80438 0.16485 0.0
H295 H 0.17143 0.78883 0.06949 0.0
H296 H 0.11675 0.7603 0.12759 0.0
H297 H 0.20793 0.80495 0.13141 0.0
H298 H 0.20581 0.80617 0.09145 0.0
H299 H 0.20782 0.83528 0.16425 0.0
H300 H 0.25246 0.89589 0.12751 0.0
H301 H 0.22377 0.84026 0.06953 0.0
C302 C 0.16808 0.7969 0.14509 0.0
C303 C 0.14608 0.78328 0.14907 0.0
C304 C 0.1774 0.79959 0.11626 0.0
C305 C 0.16428 0.78786 0.09141 0.0
C306 C 0.14233 0.77352 0.09525 0.0
C307 C 0.13337 0.77199 0.12397 0.0
C308 C 0.20151 0.81086 0.11325 0.0
C309 C 0.21298 0.83506 0.116 0.0
C310 C 0.21552 0.84487 0.14461 0.0
C311 C 0.22931 0.86689 0.14866 0.0
C312 C 0.24073 0.87923 0.12377 0.0
C313 C 0.23914 0.86981 0.09516 0.0
C314 C 0.22478 0.84777 0.09131 0.0
H315 H 0.37269 0.19999 0.86699 0.0
H316 H 0.37848 0.21552 0.96234 0.0
H317 H 0.35644 0.24573 0.89969 0.0
H318 H 0.39922 0.19736 0.90265 0.0
H319 H 0.39605 0.19797 0.94247 0.0
H320 H 0.36553 0.16638 0.87188 0.0
H321 H 0.35173 0.10731 0.91205 0.0
H322 H 0.38173 0.16487 0.96584 0.0
C323 C 0.36979 0.2077 0.88597 0.0
C324 C 0.36251 0.22207 0.88023 0.0
C325 C 0.37497 0.20463 0.91569 0.0
C326 C 0.37322 0.21668 0.9397 0.0
C327 C 0.36649 0.23158 0.93414 0.0
C328 C 0.36051 0.23352 0.90451 0.0
C329 C 0.38699 0.19267 0.92065 0.0
C330 C 0.3735 0.16844 0.91977 0.0
C331 C 0.36455 0.15757 0.89212 0.0
C332 C 0.3565 0.1355 0.88953 0.0
C333 C 0.3569 0.12411 0.91486 0.0
C334 C 0.36603 0.13447 0.94249 0.0
C335 C 0.37394 0.15661 0.94494 0.0
H336 H 0.85821 0.18752 0.87826 0.0
H337 H 0.86075 0.20624 0.97228 0.0
H338 H 0.89895 0.25255 0.90562 0.0
H339 H 0.85136 0.16221 0.92472 0.0
H340 H 0.845 0.16937 0.96009 0.0
H341 H 0.82683 0.15807 0.87744 0.0
H342 H 0.76148 0.11919 0.90227 0.0
H343 H 0.80832 0.15412 0.97145 0.0
C344 C 0.86343 0.19967 0.89576 0.0
C345 C 0.87858 0.22074 0.88834 0.0
C346 C 0.85652 0.19412 0.92601 0.0
C347 C 0.86512 0.21025 0.94873 0.0
C348 C 0.88059 0.23125 0.94137 0.0
C349 C 0.88697 0.23633 0.91122 0.0
C350 C 0.84377 0.17078 0.9351 0.0
C351 C 0.82043 0.15903 0.92537 0.0
C352 C 0.81473 0.153 0.89466 0.0
C353 C 0.79349 0.13873 0.88636 0.0
C354 C 0.77784 0.13055 0.90866 0.0
C355 C 0.78301 0.13601 0.93922 0.0
C356 C 0.80425 0.15051 0.94761 0.0
H357 H 0.85099 0.65504 0.8676 0.0
H358 H 0.85773 0.64225 0.96118 0.0
H359 H 0.91298 0.67732 0.90573 0.0
H360 H 0.82272 0.62129 0.89998 0.0
H361 H 0.82341 0.62532 0.93976 0.0
H362 H 0.81699 0.64577 0.8644 0.0
H363 H 0.77087 0.66061 0.89905 0.0
H364 H 0.80469 0.64169 0.96035 0.0
C365 C 0.86081 0.65767 0.88748 0.0
C366 C 0.88306 0.66842 0.88411 0.0
C367 C 0.85138 0.64887 0.91562 0.0
C368 C 0.86473 0.65036 0.94012 0.0
C369 C 0.88701 0.66062 0.93674 0.0
C370 C 0.89597 0.67039 0.90906 0.0
C371 C 0.82744 0.63388 0.91774 0.0
C372 C 0.81387 0.64428 0.91323 0.0
C373 C 0.80958 0.64862 0.88372 0.0
C374 C 0.79455 0.65513 0.87863 0.0
C375 C 0.78354 0.6571 0.90335 0.0
C376 C 0.78676 0.65198 0.93289 0.0
C377 C 0.80239 0.64611 0.93777 0.0
H378 H 0.82432 0.66657 0.48193 0.0
H379 H 0.81688 0.67608 0.38699 0.0
H380 H 0.79351 0.70143 0.45554 0.0
H381 H 0.82331 0.6416 0.43627 0.0
H382 H 0.83085 0.65371 0.40004 0.0
H383 H 0.84919 0.65585 0.4806 0.0
H384 H 0.9148 0.68397 0.4551 0.0
H385 H 0.86826 0.67743 0.38873 0.0
C386 C 0.81986 0.67391 0.46422 0.0
C387 C 0.8094 0.68513 0.47218 0.0
C388 C 0.82356 0.67132 0.43348 0.0
C389 C 0.81553 0.6792 0.41074 0.0
C390 C 0.8048 0.69021 0.41865 0.0
C391 C 0.80249 0.69367 0.44935 0.0
C392 C 0.83278 0.65724 0.42485 0.0
C393 C 0.85602 0.66641 0.43394 0.0
C394 C 0.86148 0.66366 0.46375 0.0
C395 C 0.88277 0.67052 0.47172 0.0
C396 C 0.89846 0.67942 0.44943 0.0
C397 C 0.89338 0.68179 0.41958 0.0
C398 C 0.87224 0.67579 0.41194 0.0
H399 H 0.35892 0.1656 0.48618 0.0
H400 H 0.33554 0.14453 0.39473 0.0
H401 H 0.32853 0.09913 0.46247 0.0
H402 H 0.37307 0.19041 0.44077 0.0
H403 H 0.35995 0.1819 0.40484 0.0
H404 H 0.34978 0.19171 0.48639 0.0
H405 H 0.31627 0.22373 0.45896 0.0
H406 H 0.33771 0.196 0.39123 0.0
C407 C 0.3505 0.15292 0.46966 0.0
C408 C 0.34314 0.13169 0.47823 0.0
C409 C 0.34733 0.15778 0.43969 0.0
C410 C 0.33734 0.14104 0.4181 0.0
C411 C 0.33089 0.11994 0.42631 0.0
C412 C 0.33349 0.11546 0.45634 0.0
C413 C 0.35715 0.18084 0.42975 0.0
C414 C 0.34396 0.19112 0.43795 0.0
C415 C 0.34238 0.19602 0.46853 0.0
C416 C 0.33202 0.20739 0.47612 0.0
C417 C 0.32351 0.2142 0.45312 0.0
C418 C 0.32571 0.21038 0.42258 0.0
C419 C 0.33564 0.19856 0.41494 0.0
H420 H 0.83076 0.14499 0.49546 0.0
H421 H 0.82933 0.12532 0.40264 0.0
H422 H 0.77143 0.10036 0.45391 0.0
H423 H 0.86186 0.14263 0.46817 0.0
H424 H 0.86242 0.14362 0.42799 0.0
H425 H 0.86344 0.17381 0.49882 0.0
H426 H 0.90937 0.23349 0.46139 0.0
H427 H 0.88007 0.17737 0.40435 0.0
C428 C 0.82195 0.13688 0.47511 0.0
C429 C 0.79974 0.1238 0.47681 0.0
C430 C 0.83281 0.13809 0.44813 0.0
C431 C 0.821 0.12545 0.42294 0.0
C432 C 0.79878 0.1116 0.42472 0.0
C433 C 0.7883 0.11161 0.45147 0.0
C434 C 0.85696 0.1487 0.44833 0.0
C435 C 0.86881 0.17291 0.45059 0.0
C436 C 0.87122 0.18309 0.47892 0.0
C437 C 0.88544 0.20502 0.48244 0.0
C438 C 0.89738 0.2169 0.45767 0.0
C439 C 0.8958 0.20715 0.4294 0.0
C440 C 0.88102 0.1852 0.42582 0.0
H441 H 0.03958 0.53285 0.19934 0.0
H442 H 0.04477 0.54764 0.29493 0.0
H443 H 0.0237 0.57875 0.2322 0.0
H444 H 0.06467 0.52804 0.23623 0.0
H445 H 0.06012 0.52763 0.27589 0.0
H446 H 0.03202 0.49966 0.20216 0.0
H447 H 1.00698 0.43777 0.24074 0.0
H448 H 0.04212 0.49344 0.29717 0.0
C449 C 0.03674 0.54053 0.2184 0.0
C450 C 0.02963 0.55501 0.21273 0.0
C451 C 0.04144 0.537 0.24815 0.0
C452 C 0.0399 0.54915 0.27221 0.0
C453 C 0.03352 0.56434 0.26666 0.0
C454 C 0.02774 0.56651 0.237 0.0
C455 C 0.05194 0.5236 0.25337 0.0
C456 C 0.03697 0.49961 0.25072 0.0
C457 C 0.02867 0.48999 0.22218 0.0
C458 C 0.01738 0.4677 0.21872 0.0
C459 C 0.01441 0.45491 0.24398 0.0
C460 C 0.02363 0.46399 0.27219 0.0
C461 C 0.03448 0.48636 0.27562 0.0
H462 H 0.52816 0.5188 0.20847 0.0
H463 H 0.5305 0.53884 0.30181 0.0
H464 H 0.56764 0.58441 0.23377 0.0
H465 H 0.52162 0.4943 0.25578 0.0
H466 H 0.51529 0.50187 0.29084 0.0
H467 H 0.49671 0.48972 0.20835 0.0
H468 H 0.43173 0.44961 0.23388 0.0
H469 H 0.47857 0.48591 0.30252 0.0
C470 C 0.53311 0.53119 0.22555 0.0
C471 C 0.54785 0.55225 0.21753 0.0
C472 C 0.52628 0.52603 0.25594 0.0
C473 C 0.5347 0.54252 0.27815 0.0
C474 C 0.54986 0.5635 0.27015 0.0
C475 C 0.55596 0.56819 0.23988 0.0
C476 C 0.51389 0.50284 0.2658 0.0
C477 C 0.49049 0.49063 0.25635 0.0
C478 C 0.48472 0.48441 0.22574 0.0
C479 C 0.46354 0.46976 0.21769 0.0
C480 C 0.44802 0.46124 0.24014 0.0
C481 C 0.45326 0.46703 0.27063 0.0
C482 C 0.47443 0.48199 0.27875 0.0
H483 H 0.50616 0.97579 0.19852 0.0
H484 H 0.51815 0.9773 0.29464 0.0
H485 H 0.56985 0.99956 0.23165 0.0
H486 H 0.47797 0.9517 0.2357 0.0
H487 H 0.48264 0.95654 0.27541 0.0
H488 H 0.48238 0.98669 0.20455 0.0
H489 H 0.43657 1.00086 0.24204 0.0
H490 H 0.46117 0.96874 0.29645 0.0
C491 C 0.51724 0.9807 0.21746 0.0
C492 C 0.53909 0.98943 0.21167 0.0
C493 C 0.50953 0.97705 0.24743 0.0
C494 C 0.52402 0.98143 0.27166 0.0
C495 C 0.54586 0.98963 0.26608 0.0
C496 C 0.55323 0.99422 0.23617 0.0
C497 C 0.48568 0.96463 0.25307 0.0
C498 C 0.47464 0.97778 0.2516 0.0
C499 C 0.47375 0.98722 0.22413 0.0
C500 C 0.46044 0.99604 0.22097 0.0
C501 C 0.44791 0.99542 0.24546 0.0
C502 C 0.44773 0.98533 0.27268 0.0
C503 C 0.46155 0.97699 0.2758 0.0
H504 H 0.48509 0.99062 0.81498 0.0
H505 H 0.48383 0.0065 0.72095 0.0
H506 H 0.44766 0.01851 0.78701 0.0
H507 H 0.49457 0.97342 0.77147 0.0
H508 H 0.49918 0.98485 0.73464 0.0
H509 H 0.51934 0.9974 0.81622 0.0
H510 H 0.58466 0.03298 0.7893 0.0
H511 H 0.53523 0.00804 0.72115 0.0
C512 C 0.48028 0.9978 0.79745 0.0
C513 C 0.46626 1.00526 0.8048 0.0
C514 C 0.48742 0.99886 0.76742 0.0
C515 C 0.47951 0.00668 0.74443 0.0
C516 C 0.46525 0.01387 0.75161 0.0
C517 C 0.45918 0.01356 0.78179 0.0
C518 C 0.50085 0.98882 0.75931 0.0
C519 C 0.52429 1.00259 0.76777 0.0
C520 C 0.53093 1.00495 0.79844 0.0
C521 C 0.55268 0.01627 0.80621 0.0
C522 C 0.56786 0.0251 0.78328 0.0
C523 C 0.56176 0.02192 0.75263 0.0
C524 C 0.53995 0.01086 0.74489 0.0
H525 H 0.02242 0.49499 0.81328 0.0
H526 H 0.99934 0.47418 0.72169 0.0
H527 H 0.99232 0.42862 0.78919 0.0
H528 H 0.03663 0.51992 0.76832 0.0
H529 H 0.02362 0.51159 0.73229 0.0
H530 H 0.01167 0.51967 0.81409 0.0
H531 H 0.98025 0.55373 0.78674 0.0
H532 H 1.0039 0.52822 0.71884 0.0
C533 C 0.01398 0.48235 0.79673 0.0
C534 C 1.00674 0.46113 0.80515 0.0
C535 C 0.01083 0.4873 0.76683 0.0
C536 C 1.00102 0.47061 0.74507 0.0
C537 C 0.99461 0.44949 0.75317 0.0
C538 C 0.99714 0.44494 0.78319 0.0
C539 C 0.02073 0.51046 0.75718 0.0
C540 C 1.00767 0.52089 0.76542 0.0
C541 C 1.00507 0.52478 0.79611 0.0
C542 C 0.99486 0.5363 0.80374 0.0
C543 C 0.98731 0.54406 0.78072 0.0
C544 C 0.99075 0.54149 0.75013 0.0
C545 C 1.00079 0.52976 0.74249 0.0
H546 H 0.51154 0.47971 0.83188 0.0
H547 H 0.502 0.46659 0.73575 0.0
H548 H 0.44886 0.4381 0.79636 0.0
H549 H 0.54103 0.48368 0.79623 0.0
H550 H 0.53732 0.48382 0.75629 0.0
H551 H 0.53814 0.51339 0.82847 0.0
H552 H 0.57717 0.5745 0.78866 0.0
H553 H 0.55483 0.51779 0.73395 0.0
C554 C 0.50098 0.47289 0.81248 0.0
C555 C 0.47905 0.45955 0.81737 0.0
C556 C 0.50942 0.47636 0.78292 0.0
C557 C 0.49558 0.46534 0.7583 0.0
C558 C 0.47366 0.45159 0.76307 0.0
C559 C 0.46555 0.44945 0.79245 0.0
C560 C 0.5334 0.48851 0.77839 0.0
C561 C 0.54346 0.51264 0.78024 0.0
C562 C 0.545 0.52276 0.80833 0.0
C563 C 0.55671 0.54507 0.81117 0.0
C564 C 0.56703 0.55739 0.78579 0.0
C565 C 0.56683 0.54774 0.75798 0.0
C566 C 0.55464 0.52535 0.75516 0.0
H567 H 0.70882 0.87235 0.53479 0.0
H568 H 0.71259 0.88466 0.631 0.0
H569 H 0.68842 0.91409 0.57035 0.0
H570 H 0.73658 0.87101 0.57166 0.0
H571 H 0.73088 0.86814 0.61102 0.0
H572 H 0.70704 0.84172 0.53487 0.0
H573 H 0.69141 0.78013 0.56707 0.0
H574 H 0.7159 0.83323 0.62944 0.0
C575 C 0.70509 0.87891 0.5543 0.0
C576 C 0.6964 0.8922 0.54951 0.0
C577 C 0.71032 0.87538 0.58376 0.0
C578 C 0.70742 0.88617 0.60847 0.0
C579 C 0.6996 0.9003 0.60387 0.0
C580 C 0.69348 0.90253 0.57444 0.0
C581 C 0.72324 0.86424 0.58812 0.0
C582 C 0.71105 0.84016 0.5833 0.0
C583 C 0.70475 0.83147 0.55384 0.0
C584 C 0.69714 0.80973 0.54805 0.0
C585 C 0.69578 0.79652 0.57205 0.0
C586 C 0.70276 0.8048 0.60143 0.0
C587 C 0.70991 0.82657 0.60704 0.0
H588 H 0.18868 0.85363 0.54011 0.0
H589 H 0.19596 0.8685 0.63609 0.0
H590 H 0.22681 0.91833 0.57057 0.0
H591 H 0.18551 0.82709 0.58274 0.0
H592 H 0.18055 0.83225 0.62038 0.0
H593 H 0.15826 0.82244 0.54 0.0
H594 H 0.09423 0.78287 0.57028 0.0
H595 H 0.14444 0.81612 0.63594 0.0
C596 C 0.19402 0.86512 0.55856 0.0
C597 C 0.20743 0.88677 0.552 0.0
C598 C 0.18917 0.85823 0.5889 0.0
C599 C 0.19841 0.87355 0.61261 0.0
C600 C 0.21182 0.89528 0.60601 0.0
C601 C 0.21588 0.9017 0.57572 0.0
C602 C 0.17791 0.83454 0.5961 0.0
C603 C 0.15415 0.82231 0.58878 0.0
C604 C 0.14699 0.81694 0.5584 0.0
C605 C 0.1254 0.8028 0.55175 0.0
C606 C 0.11081 0.79425 0.57545 0.0
C607 C 0.11751 0.79901 0.60575 0.0
C608 C 0.13917 0.8131 0.61243 0.0
H609 H 0.17288 0.30223 0.53125 0.0
H610 H 0.18135 0.29449 0.62624 0.0
H611 H 0.23498 0.32091 0.56629 0.0
H612 H 0.14392 0.27241 0.56619 0.0
H613 H 0.14654 0.27715 0.60593 0.0
H614 H 0.14121 0.29963 0.53134 0.0
H615 H 0.09904 0.31882 0.56885 0.0
H616 H 0.12993 0.2951 0.62763 0.0
C617 C 0.18319 0.30503 0.55061 0.0
C618 C 0.20515 0.31368 0.54581 0.0
C619 C 0.1744 0.29856 0.57975 0.0
C620 C 0.18805 0.30054 0.6041 0.0
C621 C 0.20999 0.30863 0.59948 0.0
C622 C 0.21837 0.31576 0.57047 0.0
C623 C 0.15037 0.28536 0.58363 0.0
C624 C 0.13849 0.29761 0.58023 0.0
C625 C 0.13457 0.30295 0.55114 0.0
C626 C 0.12083 0.31118 0.54709 0.0
C627 C 0.11077 0.31391 0.5724 0.0
C628 C 0.11364 0.3079 0.60153 0.0
C629 C 0.12797 0.30023 0.60538 0.0
H630 H 0.98613 0.40598 0.10499 0.0
H631 H 0.05181 0.44741 0.07998 0.0
H632 H 0.05722 0.46998 0.12411 0.0
H633 H 0.04418 0.47681 0.17165 0.0
H634 H 0.97923 0.43486 0.19846 0.0
H635 H 0.97255 0.41388 0.15164 0.0
C636 C 1.0016 0.41997 0.10913 0.0
C637 C 0.01855 0.42481 0.08922 0.0
C638 C 1.00472 0.43292 0.13481 0.0
C639 C 0.03848 0.44311 0.09495 0.0
C640 C 0.04161 0.45613 0.12018 0.0
C641 C 0.02842 0.46341 0.16681 0.0
C642 C 0.01214 0.45749 0.1882 0.0
C643 C 0.02493 0.45108 0.14043 0.0
C644 C 0.99193 0.43976 0.18212 0.0
C645 C 0.98818 0.4277 0.1555 0.0
H646 H 0.57249 0.58692 0.08446 0.0
H647 H 0.63525 0.60575 0.11948 0.0
H648 H 0.61985 0.58814 0.16751 0.0
H649 H 0.58875 0.56914 0.2005 0.0
H650 H 0.52583 0.54909 0.16546 0.0
H651 H 0.54096 0.56499 0.11613 0.0
C652 C 0.58276 0.58716 0.10265 0.0
C653 C 0.60501 0.5979 0.09864 0.0
C654 C 0.57375 0.57662 0.12999 0.0
C655 C 0.61811 0.5977 0.1221 0.0
C656 C 0.60931 0.58762 0.14954 0.0
C657 C 0.57838 0.56797 0.18181 0.0
C658 C 0.55627 0.55806 0.18639 0.0
C659 C 0.5872 0.57723 0.15381 0.0
C660 C 0.54288 0.55653 0.16222 0.0
C661 C 0.55156 0.5658 0.1342 0.0
H662 H 0.42991 0.0279 0.10895 0.0
H663 H 0.41536 0.96595 0.07481 0.0
H664 H 0.43228 0.96072 0.11922 0.0
H665 H 0.44868 0.97231 0.16958 0.0
H666 H 0.46155 0.03311 0.20565 0.0
H667 H 0.44818 0.04038 0.15858 0.0
C668 C 0.43057 0.01333 0.11114 0.0
C669 C 0.42117 0.99729 0.08863 0.0
C670 C 0.44013 0.01024 0.13707 0.0
C671 C 0.42223 0.9785 0.09187 0.0
C672 C 0.43198 0.97549 0.11724 0.0
C673 C 0.44907 0.98739 0.16677 0.0
C674 C 0.45627 1.00226 0.19081 0.0
C675 C 0.4407 0.99108 0.14018 0.0
C676 C 0.4562 0.02151 0.18726 0.0
C677 C 0.44843 0.02559 0.16048 0.0
H678 H 0.41537 0.97743 0.92788 0.0
H679 H 0.42986 0.04295 0.92585 0.0
H680 H 0.44992 0.04867 0.87911 0.0
H681 H 0.46266 0.0349 0.83812 0.0
H682 H 0.44901 0.96972 0.84031 0.0
H683 H 0.4298 0.96415 0.88803 0.0
C684 C 0.42284 0.99292 0.9171 0.0
C685 C 0.42093 0.00967 0.93015 0.0
C686 C 0.43473 0.99623 0.89048 0.0
C687 C 0.43103 0.02977 0.91623 0.0
C688 C 0.44254 0.03307 0.88953 0.0
C689 C 0.45559 0.01953 0.8492 0.0
C690 C 0.45721 1.00274 0.83571 0.0
C691 C 0.44444 0.01642 0.87641 0.0
C692 C 0.44818 0.98296 0.85042 0.0
C693 C 0.43701 0.97971 0.87753 0.0
H694 H 0.03706 0.43858 0.92721 0.0
H695 H 0.97068 0.38959 0.92771 0.0
H696 H 0.96427 0.40407 0.88162 0.0
H697 H 0.97753 0.42984 0.84031 0.0
H698 H 0.04361 0.47912 0.83904 0.0
H699 H 0.05002 0.46576 0.88671 0.0
C700 C 0.02123 0.43105 0.91712 0.0
C701 C 1.00442 0.4129 0.93075 0.0
C702 C 0.01753 0.43967 0.89072 0.0
C703 C 0.98392 0.40353 0.91768 0.0
C704 C 0.9802 0.41182 0.89134 0.0
C705 C 0.9933 0.43775 0.85063 0.0
C706 C 0.01009 0.45536 0.83618 0.0
C707 C 0.99688 0.4298 0.87763 0.0
C708 C 0.03039 0.46564 0.84991 0.0
C709 C 0.0341 0.45786 0.87696 0.0
H710 H 0.58603 0.60774 0.92373 0.0
H711 H 0.61298 0.56866 0.94971 0.0
H712 H 0.59606 0.54542 0.90591 0.0
H713 H 0.57549 0.53734 0.85846 0.0
H714 H 0.55038 0.57739 0.83028 0.0
H715 H 0.56432 0.59887 0.87687 0.0
C716 C 0.58812 0.59409 0.91989 0.0
C717 C 0.6009 0.59009 0.93995 0.0
C718 C 0.57853 0.58085 0.89434 0.0
C719 C 0.60342 0.57229 0.93455 0.0
C720 C 0.59367 0.5589 0.90955 0.0
C721 C 0.57265 0.55046 0.86296 0.0
C722 C 0.5617 0.55565 0.84136 0.0
C723 C 0.58139 0.56314 0.88913 0.0
C724 C 0.55858 0.57302 0.84689 0.0
C725 C 0.56669 0.58536 0.87336 0.0
H726 H 0.97684 0.56776 0.92743 0.0
H727 H 0.04495 0.61003 0.92346 0.0
H728 H 0.04656 0.59177 0.87768 0.0
H729 H 0.0284 0.56496 0.83709 0.0
H730 H 0.96028 0.52402 0.8395 0.0
H731 H 0.95889 0.54022 0.88788 0.0
C732 C 0.99206 0.57299 0.91661 0.0
C733 C 0.01072 0.59037 0.92888 0.0
C734 C 0.99288 0.56246 0.89016 0.0
C735 C 0.03029 0.5968 0.91452 0.0
C736 C 0.03126 0.58632 0.88835 0.0
C737 C 0.01337 0.5593 0.84871 0.0
C738 C 0.99451 0.54312 0.8353 0.0
C739 C 0.01266 0.56923 0.87586 0.0
C740 C 0.97499 0.53623 0.84987 0.0
C741 C 0.9742 0.54563 0.8773 0.0
H742 H 0.44576 0.41704 0.94473 0.0
H743 H 0.39397 0.42746 0.92002 0.0
H744 H 0.4128 0.44589 0.87409 0.0
H745 H 0.44309 0.45733 0.83957 0.0
H746 H 0.49494 0.44712 0.86436 0.0
H747 H 0.47728 0.4309 0.91203 0.0
C748 C 0.43859 0.42333 0.92927 0.0
C749 C 0.41836 0.42062 0.93557 0.0
C750 C 0.44963 0.43417 0.9031 0.0
C751 C 0.40947 0.42923 0.91562 0.0
C752 C 0.42023 0.43979 0.88937 0.0
C753 C 0.45062 0.45178 0.85563 0.0
C754 C 0.47027 0.45339 0.84843 0.0
C755 C 0.44021 0.44216 0.88273 0.0
C756 C 0.47996 0.44631 0.86951 0.0
C757 C 0.46974 0.43679 0.89661 0.0
H758 H 0.6043 0.03472 0.92848 0.0
H759 H 0.57569 0.96614 0.9254 0.0
H760 H 0.55524 0.96449 0.88023 0.0
H761 H 0.54688 0.98269 0.83981 0.0
H762 H 0.57671 0.05121 0.84157 0.0
H763 H 0.59494 0.05274 0.88934 0.0
C764 C 0.59359 0.01939 0.91799 0.0
C765 C 0.59171 1.00061 0.9303 0.0
C766 C 0.58189 0.01854 0.89192 0.0
C767 C 0.57761 0.98089 0.91639 0.0
C768 C 0.56582 0.97991 0.89057 0.0
C769 C 0.55696 0.99786 0.85116 0.0
C770 C 0.56025 0.0168 0.83763 0.0
C771 C 0.56794 0.99863 0.87801 0.0
C772 C 0.57378 0.03646 0.85194 0.0
C773 C 0.58432 0.03732 0.87904 0.0
H774 H 0.56821 0.97551 0.08313 0.0
H775 H 0.62118 0.03825 0.10342 0.0
H776 H 0.60397 0.03956 0.15033 0.0
H777 H 0.57469 0.02213 0.18681 0.0
H778 H 0.52187 0.95936 0.16649 0.0
H779 H 0.53792 0.95909 0.11798 0.0
C780 C 0.57601 0.98948 0.09782 0.0
C781 C 0.59609 0.00664 0.08996 0.0
C782 C 0.56594 0.99022 0.12459 0.0
C783 C 0.60578 0.02477 0.10899 0.0
C784 C 0.59595 0.02554 0.13581 0.0
C785 C 0.56662 0.00848 0.1716 0.0
C786 C 0.54713 0.99079 0.18029 0.0
C787 C 0.57613 0.00827 0.14398 0.0
C788 C 0.53673 0.97331 0.16022 0.0
C789 C 0.54603 0.97303 0.13263 0.0
H790 H 0.03763 0.59158 0.08102 0.0
H791 H 0.97707 0.58523 0.10504 0.0
H792 H 0.97781 0.56908 0.15332 0.0
H793 H 0.99666 0.55857 0.18988 0.0
H794 H 0.05695 0.56452 0.16541 0.0
H795 H 0.05511 0.57859 0.11587 0.0
C796 C 0.02458 0.58663 0.09681 0.0
C797 C 1.00745 0.58984 0.08964 0.0
C798 C 0.02499 0.57714 0.12434 0.0
C799 C 0.99048 0.58301 0.11008 0.0
C800 C 0.99089 0.57378 0.13769 0.0
C801 C 0.00926 0.56275 0.17351 0.0
C802 C 0.02691 0.56054 0.18126 0.0
C803 C 0.00819 0.57101 0.1452 0.0
C804 C 0.04308 0.56584 0.15984 0.0
C805 C 0.04214 0.57409 0.13164 0.0
H806 H 0.42706 0.44635 0.08445 0.0
H807 H 0.41432 0.38418 0.11312 0.0
H808 H 0.43204 0.39923 0.16183 0.0
H809 H 0.44921 0.42969 0.19738 0.0
H810 H 0.4634 0.49212 0.16828 0.0
H811 H 0.44737 0.4775 0.11829 0.0
C812 C 0.42822 0.43614 0.10138 0.0
C813 C 0.41914 0.41414 0.09545 0.0
C814 C 0.43878 0.44498 0.12907 0.0
C815 C 0.4211 0.40113 0.11726 0.0
C816 C 0.43122 0.40972 0.14509 0.0
C817 C 0.44907 0.44008 0.17981 0.0
C818 C 0.45735 0.46187 0.18621 0.0
C819 C 0.43987 0.43155 0.15135 0.0
C820 C 0.45719 0.47532 0.16355 0.0
C821 C 0.4479 0.46692 0.13517 0.0
H822 H 0.70516 0.78098 0.41611 0.0
H823 H 0.64628 0.72511 0.44121 0.0
H824 H 0.64643 0.74221 0.48942 0.0
H825 H 0.66456 0.7723 0.52565 0.0
H826 H 0.72342 0.82799 0.4999 0.0
H827 H 0.72171 0.81191 0.45041 0.0
C828 C 0.69234 0.77254 0.43211 0.0
C829 C 0.6759 0.7517 0.42531 0.0
C830 C 0.69242 0.78252 0.45954 0.0
C831 C 0.65918 0.74113 0.446 0.0
C832 C 0.65926 0.7509 0.47355 0.0
C833 C 0.67686 0.78098 0.50902 0.0
C834 C 0.69407 0.80131 0.51646 0.0
C835 C 0.67596 0.77148 0.48072 0.0
C836 C 0.70983 0.81247 0.49464 0.0
C837 C 0.709 0.80318 0.46645 0.0
H838 H 0.2312 0.92481 0.42009 0.0
H839 H 0.29227 0.93379 0.44858 0.0
H840 H 0.27715 0.91664 0.49685 0.0
H841 H 0.24695 0.90026 0.53182 0.0
H842 H 0.18547 0.88976 0.50344 0.0
H843 H 0.20018 0.90605 0.45406 0.0
C844 C 0.24117 0.92301 0.43691 0.0
C845 C 0.26289 0.93076 0.43088 0.0
C846 C 0.23225 0.91275 0.46449 0.0
C847 C 0.27554 0.92801 0.45267 0.0
C848 C 0.26691 0.91821 0.48028 0.0
C849 C 0.23679 0.90134 0.51457 0.0
C850 C 0.21525 0.89391 0.52095 0.0
C851 C 0.24535 0.91064 0.48649 0.0
C852 C 0.20208 0.8953 0.49872 0.0
C853 C 0.21054 0.90473 0.47067 0.0
H854 H 0.08002 0.30456 0.41784 0.0
H855 H 0.09002 0.36629 0.44517 0.0
H856 H 0.10723 0.36469 0.49215 0.0
H857 H 0.11801 0.34502 0.52654 0.0
H858 H 0.10845 0.28356 0.4989 0.0
H859 H 0.09297 0.286 0.4507 0.0
C860 C 0.08596 0.31766 0.43409 0.0
C861 C 0.08352 0.3354 0.42818 0.0
C862 C 0.0961 0.31677 0.46088 0.0
C863 C 0.09163 0.35241 0.44922 0.0
C864 C 0.10148 0.35152 0.47609 0.0
C865 C 0.11272 0.33228 0.50979 0.0
C866 C 0.11437 0.31415 0.51626 0.0
C867 C 0.10364 0.33369 0.48228 0.0
C868 C 0.10761 0.29781 0.49431 0.0
C869 C 0.09854 0.29909 0.46688 0.0
H870 H 0.11101 0.35554 0.27936 0.0
H871 H 0.04834 0.30855 0.24731 0.0
H872 H 0.06316 0.3065 0.19847 0.0
H873 H 0.09371 0.31936 0.16405 0.0
H874 H 0.15666 0.36483 0.19658 0.0
H875 H 0.14211 0.366 0.24633 0.0
C876 C 0.10064 0.34485 0.26165 0.0
C877 C 0.07859 0.33242 0.26671 0.0
C878 C 0.10935 0.34341 0.23388 0.0
C879 C 0.06535 0.31832 0.24386 0.0
C880 C 0.07381 0.31715 0.21596 0.0
C881 C 0.10421 0.32928 0.18226 0.0
C882 C 0.12615 0.34206 0.17688 0.0
C883 C 0.09573 0.32976 0.21064 0.0
C884 C 0.13973 0.35481 0.20045 0.0
C885 C 0.13138 0.35558 0.22872 0.0
H886 H 0.64428 0.74204 0.26482 0.0
H887 H 0.71284 0.77269 0.2594 0.0
H888 H 0.71239 0.79192 0.21432 0.0
H889 H 0.69234 0.79852 0.17455 0.0
H890 H 0.62385 0.76666 0.1787 0.0
H891 H 0.62443 0.74976 0.22647 0.0
C892 C 0.65915 0.75294 0.25385 0.0
C893 C 0.67854 0.75574 0.26545 0.0
C894 C 0.65879 0.76392 0.22784 0.0
C895 C 0.69764 0.77007 0.25094 0.0
C896 C 0.69743 0.78116 0.22517 0.0
C897 C 0.67764 0.78829 0.18642 0.0
C898 C 0.6581 0.78401 0.17357 0.0
C899 C 0.67809 0.77809 0.21327 0.0
C900 C 0.63905 0.77032 0.18855 0.0
C901 C 0.6394 0.76054 0.21565 0.0
H902 H 0.26379 0.90121 0.2807 0.0
H903 H 0.25605 0.95342 0.24984 0.0
H904 H 0.24108 0.93467 0.20165 0.0
H905 H 0.2319 0.90411 0.16729 0.0
H906 H 0.23911 0.85177 0.19905 0.0
H907 H 0.25218 0.86969 0.24806 0.0
C908 C 0.25879 0.90847 0.26345 0.0
C909 C 0.26127 0.92879 0.26869 0.0
C910 C 0.24997 0.8975 0.23603 0.0
C911 C 0.25437 0.93783 0.24633 0.0
C912 C 0.24583 0.92712 0.21877 0.0
C913 C 0.23614 0.89658 0.1851 0.0
C914 C 0.23451 0.87664 0.17956 0.0
C915 C 0.24379 0.90705 0.21323 0.0
C916 C 0.23993 0.86697 0.20286 0.0
C917 C 0.24762 0.8773 0.2308 0.0
H918 H 0.69527 0.92841 0.26628 0.0
H919 H 0.62952 0.91307 0.26281 0.0
H920 H 0.62386 0.89244 0.21631 0.0
H921 H 0.63775 0.87988 0.1755 0.0
H922 H 0.70322 0.89469 0.17828 0.0
H923 H 0.70869 0.9139 0.22656 0.0
C924 C 0.67972 0.92057 0.2553 0.0
C925 C 0.66291 0.92248 0.26789 0.0
C926 C 0.67646 0.90845 0.22862 0.0
C927 C 0.64277 0.91194 0.25362 0.0
C928 C 0.63948 0.9001 0.22702 0.0
C929 C 0.65317 0.88718 0.18685 0.0
C930 C 0.67009 0.88598 0.17334 0.0
C931 C 0.65623 0.89838 0.21422 0.0
C932 C 0.68991 0.89526 0.18839 0.0
C933 C 0.69309 0.90642 0.2158 0.0
H934 H 0.112 0.74723 0.27942 0.0
H935 H 0.05977 0.7552 0.24873 0.0
H936 H 0.07864 0.77106 0.20159 0.0
H937 H 0.10919 0.78084 0.16788 0.0
H938 H 0.16151 0.77324 0.19911 0.0
H939 H 0.14363 0.75952 0.24747 0.0
C940 C 0.10476 0.75248 0.26244 0.0
C941 C 0.08439 0.74979 0.26742 0.0
C942 C 0.11579 0.7618 0.23557 0.0
C943 C 0.07539 0.75701 0.24542 0.0
C944 C 0.08617 0.76607 0.21845 0.0
C945 C 0.11674 0.77639 0.18545 0.0
C946 C 0.13664 0.77806 0.17991 0.0
C947 C 0.10627 0.76831 0.21312 0.0
C948 C 0.14634 0.77238 0.20292 0.0
C949 C 0.13602 0.76431 0.23047 0.0
H950 H 0.27261 0.37067 0.26998 0.0
H951 H 0.24937 0.30321 0.25885 0.0
H952 H 0.22871 0.30218 0.21429 0.0
H953 H 0.21867 0.32079 0.17671 0.0
H954 H 0.24316 0.38836 0.18632 0.0
H955 H 0.26153 0.38897 0.23359 0.0
C956 C 0.26303 0.35572 0.25786 0.0
C957 C 0.26272 0.33708 0.26774 0.0
C958 C 0.25118 0.35522 0.23215 0.0
C959 C 0.25006 0.31784 0.25175 0.0
C960 C 0.23815 0.3172 0.22628 0.0
C961 C 0.2276 0.33549 0.18969 0.0
C962 C 0.2293 0.35443 0.17862 0.0
C963 C 0.23869 0.3358 0.21616 0.0
C964 C 0.24139 0.37356 0.1949 0.0
C965 C 0.25204 0.37392 0.22168 0.0
H966 H 0.23762 0.30841 0.4155 0.0
H967 H 0.29115 0.36849 0.44471 0.0
H968 H 0.27266 0.36702 0.49178 0.0
H969 H 0.24207 0.34757 0.52584 0.0
H970 H 0.18867 0.28755 0.49619 0.0
H971 H 0.20606 0.2904 0.44774 0.0
C972 C 0.24526 0.3212 0.43216 0.0
C973 C 0.26587 0.33838 0.42681 0.0
C974 C 0.23445 0.32037 0.45895 0.0
C975 C 0.27535 0.35502 0.44835 0.0
C976 C 0.26478 0.3542 0.47526 0.0
C977 C 0.23416 0.33526 0.50859 0.0
C978 C 0.2141 0.31738 0.51466 0.0
C979 C 0.24443 0.33682 0.48095 0.0
C980 C 0.20395 0.30162 0.49201 0.0
C981 C 0.21401 0.30311 0.46442 0.0
H982 H 0.70165 0.9293 0.41863 0.0
H983 H 0.64139 0.92239 0.44593 0.0
H984 H 0.6432 0.90609 0.49347 0.0
H985 H 0.66272 0.89531 0.5283 0.0
H986 H 0.72315 0.90268 0.50105 0.0
H987 H 0.72016 0.91675 0.45218 0.0
C988 C 0.68889 0.92423 0.43495 0.0
C989 C 0.67152 0.92729 0.42883 0.0
C990 C 0.68997 0.91475 0.46215 0.0
C991 C 0.65499 0.92032 0.45009 0.0
C992 C 0.65601 0.91098 0.47728 0.0
C993 C 0.67515 0.89986 0.51154 0.0
C994 C 0.69312 0.89793 0.51835 0.0
C995 C 0.67352 0.90832 0.48368 0.0
C996 C 0.709 0.90369 0.4963 0.0
C997 C 0.70742 0.91198 0.46845 0.0
H998 H 0.08825 0.77876 0.41819 0.0
H999 H 0.07628 0.71694 0.44744 0.0
H1000 H 0.09302 0.73206 0.49654 0.0
H1001 H 0.11008 0.76257 0.53179 0.0
H1002 H 0.12392 0.82483 0.50247 0.0
H1003 H 0.10771 0.80999 0.45256 0.0
C1004 C 0.08929 0.76863 0.43537 0.0
C1005 C 0.08083 0.74671 0.42933 0.0
C1006 C 0.09939 0.77755 0.46339 0.0
C1007 C 0.08262 0.73383 0.45156 0.0
C1008 C 0.09219 0.74247 0.47964 0.0
C1009 C 0.1097 0.77287 0.51427 0.0
C1010 C 0.11803 0.79468 0.52056 0.0
C1011 C 0.10052 0.76425 0.48583 0.0
C1012 C 0.11763 0.808 0.49788 0.0
C1013 C 0.10826 0.79948 0.46952 0.0
H1014 H 0.32279 0.0878 0.76286 0.0
H1015 H 0.37706 0.07922 0.77624 0.0
H1016 H 0.38516 0.09846 0.82455 0.0
H1017 H 0.37724 0.11801 0.86274 0.0
H1018 H 0.32464 0.12903 0.84931 0.0
H1019 H 0.31555 0.10888 0.80105 0.0
C1020 C 0.33624 0.09003 0.77658 0.0
C1021 C 0.34922 0.08197 0.76621 0.0
C1022 C 0.34121 0.10173 0.80406 0.0
C1023 C 0.36685 0.08527 0.78381 0.0
C1024 C 0.37151 0.09629 0.81139 0.0
C1025 C 0.36379 0.11599 0.84916 0.0
C1026 C 0.35149 0.12475 0.85945 0.0
C1027 C 0.3589 0.10466 0.82163 0.0
C1028 C 0.33429 0.12236 0.84166 0.0
C1029 C 0.32907 0.11078 0.81423 0.0
H1030 H 0.90218 0.25281 0.75365 0.0
H1031 H 0.96522 0.27221 0.78802 0.0
H1032 H 0.95032 0.25619 0.83707 0.0
H1033 H 0.91954 0.23815 0.87092 0.0
H1034 H 0.8563 0.21716 0.83638 0.0
H1035 H 0.87098 0.23196 0.78641 0.0
C1036 C 0.91262 0.25351 0.77191 0.0
C1037 C 0.9348 0.26393 0.76738 0.0
C1038 C 0.90388 0.24386 0.79987 0.0
C1039 C 0.94812 0.26436 0.791 0.0
C1040 C 0.93961 0.25521 0.81903 0.0
C1041 C 0.90901 0.23663 0.85227 0.0
C1042 C 0.88694 0.22674 0.85716 0.0
C1043 C 0.91756 0.2451 0.82379 0.0
C1044 C 0.87334 0.22465 0.83295 0.0
C1045 C 0.88175 0.23325 0.80453 0.0
H1046 H 0.75439 0.64288 0.74773 0.0
H1047 H 0.75755 0.70229 0.77176 0.0
H1048 H 0.77514 0.70333 0.81986 0.0
H1049 H 0.78812 0.68644 0.85607 0.0
H1050 H 0.78517 0.62724 0.8314 0.0
H1051 H 0.76944 0.6273 0.78227 0.0
C1052 C 0.75891 0.65607 0.76349 0.0
C1053 C 0.75442 0.67234 0.75636 0.0
C1054 C 0.76924 0.6567 0.79086 0.0
C1055 C 0.76074 0.68951 0.77677 0.0
C1056 C 0.7708 0.69012 0.80427 0.0
C1057 C 0.7842 0.67368 0.83977 0.0
C1058 C 0.78783 0.65688 0.84735 0.0
C1059 C 0.77494 0.67369 0.81167 0.0
C1060 C 0.78283 0.64051 0.82598 0.0
C1061 C 0.77362 0.64041 0.798 0.0
H1062 H 0.77555 0.70191 0.59434 0.0
H1063 H 0.73837 0.63308 0.5918 0.0
H1064 H 0.75751 0.63231 0.54687 0.0
H1065 H 0.78331 0.65124 0.50631 0.0
H1066 H 0.81913 0.71993 0.50724 0.0
H1067 H 0.8024 0.72074 0.55508 0.0
C1068 C 0.77164 0.68672 0.58404 0.0
C1069 C 0.75539 0.6676 0.5964 0.0
C1070 C 0.78265 0.68637 0.55803 0.0
C1071 C 0.75067 0.64808 0.58273 0.0
C1072 C 0.76167 0.6476 0.55705 0.0
C1073 C 0.78781 0.66632 0.5175 0.0
C1074 C 0.8026 0.68549 0.50369 0.0
C1075 C 0.77756 0.66664 0.54434 0.0
C1076 C 0.80795 0.705 0.51781 0.0
C1077 C 0.79825 0.70545 0.54495 0.0
H1078 H 0.37121 0.10705 0.60066 0.0
H1079 H 0.30415 0.05991 0.59996 0.0
H1080 H 0.29881 0.07544 0.55431 0.0
H1081 H 0.31311 0.10125 0.51329 0.0
H1082 H 0.37984 0.14864 0.51261 0.0
H1083 H 0.3853 0.1346 0.56041 0.0
C1084 C 0.35547 0.10019 0.59046 0.0
C1085 C 0.33816 0.08221 0.60368 0.0
C1086 C 0.35238 0.10937 0.56412 0.0
C1087 C 0.31779 0.0737 0.59036 0.0
C1088 C 0.31467 0.08258 0.56421 0.0
C1089 C 0.32882 0.10863 0.5238 0.0
C1090 C 0.34606 0.12585 0.50945 0.0
C1091 C 0.33183 0.10028 0.55081 0.0
C1092 C 0.36629 0.13545 0.52339 0.0
C1093 C 0.36943 0.12727 0.55052 0.0
H1094 H 0.9057 0.25888 0.60369 0.0
H1095 H 0.9605 0.25023 0.60131 0.0
H1096 H 0.94666 0.22838 0.55556 0.0
H1097 H 0.91975 0.21268 0.51509 0.0
H1098 H 0.86467 0.2205 0.51665 0.0
H1099 H 0.8776 0.24146 0.56405 0.0
C1100 C 0.91459 0.25222 0.59311 0.0
C1101 C 0.93418 0.25633 0.60586 0.0
C1102 C 0.9064 0.23939 0.56682 0.0
C1103 C 0.94539 0.24736 0.59205 0.0
C1104 C 0.9375 0.23484 0.56586 0.0
C1105 C 0.91048 0.21874 0.52618 0.0
C1106 C 0.8913 0.21506 0.51285 0.0
C1107 C 0.91811 0.23082 0.553 0.0
C1108 C 0.87939 0.22306 0.52692 0.0
C1109 C 0.88687 0.23513 0.5538 0.0
H1110 H 0.31627 0.24182 0.59864 0.0
H1111 H 0.38482 0.28094 0.59507 0.0
H1112 H 0.38539 0.26165 0.54982 0.0
H1113 H 0.36625 0.23498 0.50943 0.0
H1114 H 0.29777 0.19717 0.51158 0.0
H1115 H 0.29732 0.21427 0.55955 0.0
C1116 C 0.33136 0.24613 0.58803 0.0
C1117 C 0.35045 0.26294 0.60019 0.0
C1118 C 0.33159 0.23502 0.56191 0.0
C1119 C 0.36985 0.26818 0.58616 0.0
C1120 C 0.37022 0.2571 0.5603 0.0
C1121 C 0.35133 0.23019 0.52091 0.0
C1122 C 0.33209 0.2147 0.50749 0.0
C1123 C 0.35119 0.24062 0.54784 0.0
C1124 C 0.31275 0.20891 0.52191 0.0
C1125 C 0.3125 0.2188 0.54911 0.0
H1126 H 0.73633 0.09686 0.58673 0.0
H1127 H 0.77752 0.07386 0.61902 0.0
H1128 H 0.80063 0.08949 0.57544 0.0
H1129 H 0.80814 0.10784 0.5266 0.0
H1130 H 0.76592 0.12866 0.49193 0.0
H1131 H 0.7444 0.11609 0.53808 0.0
C1132 C 0.75042 0.09537 0.58429 0.0
C1133 C 0.75508 0.08409 0.60608 0.0
C1134 C 0.76354 0.10414 0.5588 0.0
C1135 C 0.7734 0.08227 0.6025 0.0
C1136 C 0.78671 0.09129 0.57762 0.0
C1137 C 0.7945 0.11004 0.52956 0.0
C1138 C 0.78874 0.11943 0.50632 0.0
C1139 C 0.78183 0.10206 0.5555 0.0
C1140 C 0.77072 0.12168 0.50984 0.0
C1141 C 0.75837 0.11437 0.53607 0.0
H1142 H 0.90691 0.64224 0.59424 0.0
H1143 H 0.95737 0.70805 0.59229 0.0
H1144 H 0.94223 0.71376 0.54623 0.0
H1145 H 0.91538 0.70006 0.50575 0.0
H1146 H 0.86469 0.63451 0.50667 0.0
H1147 H 0.8788 0.62884 0.55432 0.0
C1148 C 0.91462 0.65778 0.58361 0.0
C1149 C 0.93336 0.67464 0.59658 0.0
C1150 C 0.90564 0.66108 0.5572 0.0
C1151 C 0.94298 0.69478 0.5828 0.0
C1152 C 0.93431 0.6981 0.55647 0.0
C1153 C 0.90735 0.68456 0.51652 0.0
C1154 C 0.88912 0.6677 0.5027 0.0
C1155 C 0.91572 0.68138 0.54345 0.0
C1156 C 0.87867 0.64778 0.51704 0.0
C1157 C 0.88686 0.64449 0.54408 0.0
H1158 H 0.9442 0.69829 0.77145 0.0
H1159 H 0.90151 0.63263 0.74531 0.0
H1160 H 0.87922 0.62803 0.78887 0.0
H1161 H 0.87296 0.64161 0.83634 0.0
H1162 H 0.91622 0.70634 0.8648 0.0
H1163 H 0.93688 0.71247 0.81825 0.0
C1164 C 0.92999 0.68301 0.77523 0.0
C1165 C 0.92474 0.66582 0.75515 0.0
C1166 C 0.91719 0.68033 0.80067 0.0
C1167 C 0.90616 0.64614 0.76043 0.0
C1168 C 0.89328 0.64346 0.78533 0.0
C1169 C 0.88656 0.65723 0.8319 0.0
C1170 C 0.89292 0.6736 0.85365 0.0
C1171 C 0.89874 0.66034 0.80576 0.0
C1172 C 0.91094 0.69359 0.84812 0.0
C1173 C 0.92283 0.69702 0.82167 0.0
H1174 H 0.37496 0.26302 0.75099 0.0
H1175 H 0.31559 0.25969 0.77423 0.0
H1176 H 0.3141 0.24108 0.82116 0.0
H1177 H 0.33076 0.22759 0.8569 0.0
H1178 H 0.39013 0.23106 0.83339 0.0
H1179 H 0.39019 0.24718 0.78484 0.0
C1180 C 0.3617 0.25824 0.76633 0.0
C1181 C 0.34558 0.26302 0.75936 0.0
C1182 C 0.36081 0.24734 0.79304 0.0
C1183 C 0.32828 0.25633 0.77917 0.0
C1184 C 0.3274 0.24567 0.80598 0.0
C1185 C 0.34356 0.23165 0.84094 0.0
C1186 C 0.36041 0.22814 0.84876 0.0
C1187 C 0.3437 0.24131 0.8133 0.0
C1188 C 0.37682 0.2333 0.82779 0.0
C1189 C 0.377 0.24279 0.80017 0.0
H1190 H 0.75889 0.11467 0.75206 0.0
H1191 H 0.74026 0.05174 0.78511 0.0
H1192 H 0.75762 0.06698 0.83386 0.0
H1193 H 0.77644 0.09793 0.86796 0.0
H1194 H 0.79625 0.16104 0.83512 0.0
H1195 H 0.78046 0.14611 0.78509 0.0
C1196 C 0.75864 0.10433 0.76997 0.0
C1197 C 0.74806 0.08209 0.76516 0.0
C1198 C 0.769 0.11324 0.79779 0.0
C1199 C 0.74821 0.06889 0.78831 0.0
C1200 C 0.75814 0.07758 0.81617 0.0
C1201 C 0.77753 0.10839 0.84962 0.0
C1202 C 0.78734 0.13047 0.85498 0.0
C1203 C 0.76838 0.09968 0.82123 0.0
C1204 C 0.78884 0.14399 0.83126 0.0
C1205 C 0.77966 0.13543 0.80284 0.0
H1206 H 0.0964 0.39917 0.01505 0.0
H1207 H 0.03759 0.3412 0.03401 0.0
H1208 H 0.05754 0.3256 0.0561 0.0
H1209 H 0.09129 0.33009 0.07598 0.0
H1210 H 0.15018 0.38784 0.05807 0.0
H1211 H 0.13074 0.40175 0.02914 0.0
C1212 C 0.08796 0.383 0.02354 0.0
C1213 C 0.06547 0.37151 0.02322 0.0
C1214 C 0.09958 0.37411 0.03649 0.0
C1215 C 0.05484 0.3505 0.03412 0.0
C1216 C 0.06625 0.34155 0.04685 0.0
C1217 C 0.09987 0.34548 0.06498 0.0
C1218 C 0.12207 0.35796 0.069 0.0
C1219 C 0.08854 0.35343 0.04899 0.0
C1220 C 0.13311 0.37791 0.05494 0.0
C1221 C 0.12195 0.38592 0.03871 0.0
H1222 H 0.60568 0.69101 0.02564 0.0
H1223 H 0.67045 0.70334 0.02778 0.0
H1224 H 0.68302 0.74 0.04443 0.0
H1225 H 0.67508 0.76703 0.0648 0.0
H1226 H 0.61031 0.75411 0.06562 0.0
H1227 H 0.59825 0.71944 0.04081 0.0
C1228 C 0.62259 0.7018 0.02928 0.0
C1229 C 0.63705 0.69429 0.02577 0.0
C1230 C 0.62969 0.72282 0.03933 0.0
C1231 C 0.65892 0.70858 0.03049 0.0
C1232 C 0.66614 0.72958 0.04005 0.0
C1233 C 0.65846 0.7569 0.05844 0.0
C1234 C 0.64361 0.76316 0.06635 0.0
C1235 C 0.65162 0.73669 0.04535 0.0
C1236 C 0.62201 0.74972 0.05904 0.0
C1237 C 0.61512 0.72982 0.04525 0.0
H1238 H 0.32136 0.91526 0.01514 0.0
H1239 H 0.31469 0.96989 0.03649 0.0
H1240 H 0.28002 0.94659 0.05927 0.0
H1241 H 0.25373 0.91124 0.07862 0.0
H1242 H 0.26156 0.85703 0.05944 0.0
H1243 H 0.29312 0.87945 0.02957 0.0
C1244 C 0.31219 0.92207 0.02432 0.0
C1245 C 0.3208 0.94437 0.02442 0.0
C1246 C 0.29238 0.9086 0.03785 0.0
C1247 C 0.30856 0.95284 0.03624 0.0
C1248 C 0.28873 0.9395 0.04938 0.0
C1249 C 0.26217 0.90427 0.06755 0.0
C1250 C 0.25527 0.88245 0.07159 0.0
C1251 C 0.2808 0.91744 0.05117 0.0
C1252 C 0.26625 0.87366 0.0566 0.0
C1253 C 0.28453 0.88656 0.03978 0.0
H1254 H 0.40744 0.09012 0.01506 0.0
H1255 H 0.34464 0.03563 0.0011 0.0
H1256 H 0.33188 0.05894 0.98215 0.0
H1257 H 0.33988 0.09399 0.96281 0.0
H1258 H 0.4033 0.14798 0.97399 0.0
H1259 H 0.41421 0.12588 0.00167 0.0
C1260 C 0.39086 0.08336 0.00841 0.0
C1261 C 0.37712 0.06108 0.00908 0.0
C1262 C 0.38371 0.09682 0.99697 0.0
C1263 C 0.35563 0.05267 0.00061 0.0
C1264 C 0.34832 0.066 0.98967 0.0
C1265 C 0.35599 0.10101 0.97181 0.0
C1266 C 0.37078 0.1226 0.96598 0.0
C1267 C 0.36241 0.08799 0.98672 0.0
C1268 C 0.39149 0.1315 0.97825 0.0
C1269 C 0.39785 0.11877 0.99377 0.0
H1270 H 0.92375 0.31805 0.01247 0.0
H1271 H 0.9786 0.31027 0.00053 0.0
H1272 H 0.95566 0.27408 0.98131 0.0
H1273 H 0.92082 0.24665 0.96115 0.0
H1274 H 0.86606 0.25444 0.9714 0.0
H1275 H 0.88798 0.2884 -0.00148 0.0
C1276 C 0.93065 0.3083 0.00622 0.0
C1277 C 0.95295 0.31704 0.00757 0.0
C1278 C 0.91735 0.28749 0.99478 0.0
C1279 C 0.96156 0.30408 -0.00046 0.0
C1280 C 0.94844 0.28336 0.98845 0.0
C1281 C 0.91362 0.25551 0.97027 0.0
C1282 C 0.89191 0.24811 0.96464 0.0
C1283 C 0.92644 0.27518 0.98505 0.0
C1284 C 0.88269 0.25975 0.97596 0.0
C1285 C 0.89529 0.27925 0.99111 0.0
H1286 H 0.70504 0.61568 0.01333 0.0
H1287 H 0.70828 0.67431 0.98554 0.0
H1288 H 0.7433 0.68635 0.96339 0.0
H1289 H 0.77075 0.67818 0.94622 0.0
H1290 H 0.76655 0.61881 0.97222 0.0
H1291 H 0.73466 0.60951 0.00158 0.0
C1292 C 0.71353 0.63124 0.00284 0.0
C1293 C 0.70386 0.64392 0.00072 0.0
C1294 C 0.73358 0.63797 0.98982 0.0
C1295 C 0.71524 0.66414 0.98734 0.0
C1296 C 0.73527 0.67103 0.97458 0.0
C1297 C 0.76307 0.66338 0.95877 0.0
C1298 C 0.77099 0.64915 0.95671 0.0
C1299 C 0.74427 0.65778 0.97483 0.0
C1300 C 0.761 0.63018 0.97351 0.0
C1301 C 0.74254 0.6247 0.99002 0.0
H1302 H 0.96372 0.65719 0.99679 0.0
H1303 H 0.91682 0.59006 0.99725 0.0
H1304 H 0.88922 0.59797 0.98181 0.0
H1305 H 0.87938 0.62332 0.96146 0.0
H1306 H 0.92609 0.69035 0.95947 0.0
H1307 H 0.95258 0.68318 0.98279 0.0
C1308 C 0.9474 0.64433 0.99393 0.0
C1309 C 0.94248 0.62304 0.99772 0.0
C1310 C 0.93152 0.64897 0.98474 0.0
C1311 C 0.92118 0.60658 0.99419 0.0
C1312 C 0.90532 0.61108 0.98535 0.0
C1313 C 0.89511 0.63646 0.96716 0.0
C1314 C 0.90077 0.65733 0.95867 0.0
C1315 C 0.91042 0.63214 0.9797 0.0
C1316 C 0.92138 0.67413 0.96573 0.0
C1317 C 0.93657 0.67001 0.97883 0.0
H1318 H 0.40342 0.31719 0.00785 0.0
H1319 H 0.34281 0.31039 0.98176 0.0
H1320 H 0.33102 0.27443 0.96232 0.0
H1321 H 0.33967 0.24684 0.94706 0.0
H1322 H 0.40085 0.25446 0.97155 0.0
H1323 H 0.41031 0.2877 -0.00177 0.0
C1324 C 0.38752 0.30775 -0.00174 0.0
C1325 C 0.37415 0.31663 0.99583 0.0
C1326 C 0.38089 0.28713 0.98694 0.0
C1327 C 0.35349 0.30404 0.98374 0.0
C1328 C 0.34675 0.28346 0.97256 0.0
C1329 C 0.3549 0.25557 0.95878 0.0
C1330 C 0.36958 0.2482 0.95702 0.0
C1331 C 0.36055 0.27511 0.97323 0.0
C1332 C 0.38914 0.25957 0.97268 0.0
C1333 C 0.3947 0.2788 0.9876 0.0
H1334 H 0.69479 0.09189 0.00354 0.0
H1335 H 0.70226 0.03693 0.98936 0.0
H1336 H 0.73892 0.06008 0.9731 0.0
H1337 H 0.76716 0.0954 0.95659 0.0
H1338 H 0.75961 0.15026 0.96904 0.0
H1339 H 0.72491 0.12787 0.99296 0.0
C1340 C 0.70452 0.08499 0.99729 0.0
C1341 C 0.69563 0.06264 0.99727 0.0
C1342 C 0.72563 0.09843 0.98775 0.0
C1343 C 0.70858 0.05402 0.9894 0.0
C1344 C 0.72958 0.06727 0.98006 0.0
C1345 C 0.7582 0.1025 0.9656 0.0
C1346 C 0.76593 0.12442 0.96156 0.0
C1347 C 0.73806 0.08941 0.97836 0.0
C1348 C 0.75409 0.13349 0.97254 0.0
C1349 C 0.73414 0.12062 0.98579 0.0
H1350 H 0.60914 0.91674 0.02025 0.0
H1351 H 0.67059 0.97367 0.03129 0.0
H1352 H 0.68562 0.95236 0.05033 0.0
H1353 H 0.68024 0.91826 0.06987 0.0
H1354 H 0.61894 0.8614 0.06022 0.0
H1355 H 0.60495 0.88179 0.03406 0.0
C1356 C 0.62589 0.92446 0.0264 0.0
C1357 C 0.63863 0.94686 0.0247 0.0
C1358 C 0.63445 0.91208 0.03757 0.0
C1359 C 0.66036 0.95652 0.03252 0.0
C1360 C 0.66898 0.94434 0.04348 0.0
C1361 C 0.66402 0.91028 0.06111 0.0
C1362 C 0.65064 0.8884 0.06658 0.0
C1363 C 0.65605 0.92221 0.04688 0.0
C1364 C 0.62956 0.87817 0.05574 0.0
C1365 C 0.62154 0.88989 0.04115 0.0
H1366 H 0.09572 0.68967 0.01687 0.0
H1367 H 0.04146 0.69678 0.03773 0.0
H1368 H 0.06512 0.7321 0.05964 0.0
H1369 H 0.10077 0.75887 0.07864 0.0
H1370 H 0.15463 0.75067 0.05954 0.0
H1371 H 0.13172 0.71838 0.03036 0.0
C1372 C 0.08907 0.69907 0.02579 0.0
C1373 C 0.06681 0.69042 0.02605 0.0
C1374 C 0.10274 0.71926 0.03869 0.0
C1375 C 0.05851 0.70295 0.03738 0.0
C1376 C 0.07204 0.72315 0.05002 0.0
C1377 C 0.10755 0.7502 0.06766 0.0
C1378 C 0.12941 0.75717 0.0716 0.0
C1379 C 0.09412 0.73117 0.05167 0.0
C1380 C 0.13796 0.7459 0.05677 0.0
C1381 C 0.12479 0.72721 0.04036 0.0
H1382 H 0.30451 0.36174 0.01873 0.0
H1383 H 0.33643 0.42772 0.04769 0.0
H1384 H 0.30324 0.423 0.06834 0.0
H1385 H 0.26624 0.39908 0.08384 0.0
H1386 H 0.23378 0.33337 0.05442 0.0
H1387 H 0.26578 0.33909 0.02768 0.0
C1388 C 0.3041 0.37513 0.02919 0.0
C1389 C 0.32302 0.39496 0.03205 0.0
C1390 C 0.28481 0.37237 0.04089 0.0
C1391 C 0.32216 0.41225 0.04529 0.0
C1392 C 0.30317 0.40957 0.0572 0.0
C1393 C 0.26603 0.38623 0.07074 0.0
C1394 C 0.24776 0.36587 0.07099 0.0
C1395 C 0.28455 0.38958 0.05585 0.0
C1396 C 0.24762 0.34925 0.05418 0.0
C1397 C 0.266 0.35246 0.03925 0.0
H1398 H 0.73173 0.69319 0.34637 0.0
H1399 H 0.76905 0.75962 0.37232 0.0
H1400 H 0.79721 0.75378 0.39184 0.0
H1401 H 0.80928 0.72896 0.40741 0.0
H1402 H 0.77276 0.66275 0.38104 0.0
H1403 H 0.74659 0.66937 0.35521 0.0
C1404 C 0.74616 0.70642 0.35589 0.0
C1405 C 0.74809 0.72673 0.35827 0.0
C1406 C 0.7625 0.703 0.36698 0.0
C1407 C 0.76704 0.74378 0.37033 0.0
C1408 C 0.78319 0.74047 0.38159 0.0
C1409 C 0.79592 0.71617 0.39515 0.0
C1410 C 0.79292 0.69544 0.39601 0.0
C1411 C 0.78084 0.72005 0.38079 0.0
C1412 C 0.77551 0.6789 0.38031 0.0
C1413 C 0.76041 0.68264 0.3659 0.0
H1414 H 0.27717 0.03224 0.35903 0.0
H1415 H 0.33686 0.0329 0.36835 0.0
H1416 H 0.35414 0.06966 0.38679 0.0
H1417 H 0.35129 0.09997 0.40628 0.0
H1418 H 0.29181 0.09949 0.39857 0.0
H1419 H 0.2755 0.06453 0.37292 0.0
C1420 C 0.29403 0.04053 0.36468 0.0
C1421 C 0.30561 0.02967 0.36269 0.0
C1422 C 0.30389 0.06172 0.37554 0.0
C1423 C 0.32749 0.04074 0.36987 0.0
C1424 C 0.33741 0.0618 0.38046 0.0
C1425 C 0.33494 0.09243 0.39809 0.0
C1426 C 0.32274 0.1022 0.40398 0.0
C1427 C 0.32565 0.07222 0.38418 0.0
C1428 C 0.30152 0.09231 0.3938 0.0
C1429 C 0.29217 0.07225 0.3795 0.0
H1430 H 0.98082 0.25062 0.35596 0.0
H1431 H 0.97547 0.30634 0.37464 0.0
H1432 H 0.93958 0.28371 0.39431 0.0
H1433 H 0.91167 0.24856 0.41199 0.0
H1434 H 0.91819 0.19324 0.39581 0.0
H1435 H 0.95117 0.2151 0.36839 0.0
C1436 C 0.97172 0.25783 0.36395 0.0
C1437 C 0.98099 0.2802 0.36424 0.0
C1438 C 0.95119 0.24473 0.37562 0.0
C1439 C 0.96882 0.2892 0.37436 0.0
C1440 C 0.94829 0.27626 0.38567 0.0
C1441 C 0.92014 0.24123 0.40203 0.0
C1442 C 0.91249 0.21928 0.4063 0.0
C1443 C 0.93959 0.25406 0.38727 0.0
C1444 C 0.92349 0.20999 0.39275 0.0
C1445 C 0.94257 0.22257 0.37739 0.0
H1446 H 0.02094 0.38549 0.33508 0.0
H1447 H 0.08873 0.4295 0.33908 0.0
H1448 H 0.08314 0.45839 0.32251 0.0
H1449 H 0.05965 0.46996 0.29987 0.0
H1450 H 0.99203 0.42602 0.29413 0.0
H1451 H 0.99682 0.39853 0.31899 0.0
C1452 C 0.03445 0.40147 0.33279 0.0
C1453 C 0.05524 0.40519 0.33784 0.0
C1454 C 0.03116 0.41809 0.32289 0.0
C1455 C 0.07256 0.42607 0.33502 0.0
C1456 C 0.06939 0.44266 0.32553 0.0
C1457 C 0.04588 0.45464 0.3051 0.0
C1458 C 0.02553 0.45001 0.2951 0.0
C1459 C 0.04885 0.43872 0.31849 0.0
C1460 C 1.00787 0.42993 0.30159 0.0
C1461 C 0.01063 0.41416 0.31554 0.0
H1462 H 0.59189 0.65157 0.33745 0.0
H1463 H 0.64806 0.64668 0.32165 0.0
H1464 H 0.6258 0.60985 0.30428 0.0
H1465 H 0.59082 0.5808 0.28726 0.0
H1466 H 0.53469 0.58574 0.30128 0.0
H1467 H 0.55635 0.62058 0.32635 0.0
C1468 C 0.59926 0.64236 0.33061 0.0
C1469 C 0.62167 0.65202 0.33043 0.0
C1470 C 0.58633 0.62117 0.3204 0.0
C1471 C 0.63091 0.63975 0.32181 0.0
C1472 C 0.61818 0.61866 0.31183 0.0
C1473 C 0.58331 0.58925 0.29678 0.0
C1474 C 0.56125 0.58079 0.29279 0.0
C1475 C 0.59594 0.60944 0.31022 0.0
C1476 C 0.5516 0.59188 0.30462 0.0
C1477 C 0.56404 0.61189 0.31854 0.0
H1478 H 0.36064 0.94343 0.34153 0.0
H1479 H 0.36923 0.00637 0.32923 0.0
H1480 H 0.40529 0.01907 0.31066 0.0
H1481 H 0.43267 0.01121 0.29233 0.0
H1482 H 0.42295 0.94763 0.30189 0.0
H1483 H 0.38954 0.93657 0.3281 0.0
C1484 C 0.37049 0.96001 0.33519 0.0
C1485 C 0.36209 0.97384 0.3364 0.0
C1486 C 0.39111 0.96714 0.32409 0.0
C1487 C 0.37518 0.99532 0.32833 0.0
C1488 C 0.39582 1.0026 0.31765 0.0
C1489 C 0.42339 0.995 0.30053 0.0
C1490 C 0.43033 0.98027 0.29481 0.0
C1491 C 0.40371 0.98849 0.31458 0.0
C1492 C 0.41824 0.95943 0.30613 0.0
C1493 C 0.39891 0.95298 0.32079 0.0
H1494 H 0.62521 0.99423 0.33009 0.0
H1495 H 0.57806 0.92933 0.35125 0.0
H1496 H 0.54981 0.93543 0.33287 0.0
H1497 H 0.53912 0.95727 0.30341 0.0
H1498 H 0.58614 0.02166 0.28024 0.0
H1499 H 0.61364 0.01787 0.30727 0.0
C1500 C 0.60872 0.98156 0.33126 0.0
C1501 C 0.60385 0.96125 0.34158 0.0
C1502 C 0.59247 0.98506 0.32011 0.0
C1503 C 0.58235 0.94506 0.34308 0.0
C1504 C 0.56612 0.94851 0.33253 0.0
C1505 C 0.55521 0.97073 0.30526 0.0
C1506 C 0.56061 0.98968 0.28974 0.0
C1507 C 0.57106 0.96819 0.31998 0.0
C1508 C 0.58163 0.00688 0.29195 0.0
C1509 C 0.59738 1.00466 0.30719 0.0
H1510 H 0.06924 0.64888 0.34285 0.0
H1511 H 0.00869 0.64194 0.31606 0.0
H1512 H 0.99738 0.60636 0.29562 0.0
H1513 H 1.00646 0.57925 0.27961 0.0
H1514 H 0.06753 0.5869 0.30478 0.0
H1515 H 0.07651 0.6197 0.33245 0.0
C1516 C 0.05345 0.63948 0.33293 0.0
C1517 C 0.03997 0.64824 0.33058 0.0
C1518 C 0.0471 0.61907 0.32096 0.0
C1519 C 0.01946 0.63569 0.31799 0.0
C1520 C 0.01298 0.61533 0.30622 0.0
C1521 C 0.02156 0.58789 0.29168 0.0
C1522 C 0.03636 0.58068 0.28984 0.0
C1523 C 0.02692 0.60714 0.30675 0.0
C1524 C 0.05575 0.59191 0.30594 0.0
C1525 C 0.06103 0.61087 0.32146 0.0
H1526 H 0.36688 0.42574 0.34048 0.0
H1527 H 0.37101 0.36919 0.32284 0.0
H1528 H 0.40718 0.39113 0.30403 0.0
H1529 H 0.43582 0.42592 0.28661 0.0
H1530 H 0.43182 0.48248 0.30299 0.0
H1531 H 0.39765 0.46117 0.32884 0.0
C1532 C 0.3758 0.41823 0.33293 0.0
C1533 C 0.36607 0.39578 0.3327 0.0
C1534 C 0.39665 0.43099 0.32194 0.0
C1535 C 0.37798 0.38637 0.3231 0.0
C1536 C 0.39869 0.39892 0.31228 0.0
C1537 C 0.42774 0.4336 0.29676 0.0
C1538 C 0.43629 0.45569 0.29326 0.0
C1539 C 0.40795 0.42117 0.31082 0.0
C1540 C 0.42563 0.46554 0.30593 0.0
C1541 C 0.406 0.4533 0.32033 0.0
H1542 H 0.27951 0.25136 0.35413 0.0
H1543 H 0.34174 0.30726 0.36511 0.0
H1544 H 0.35599 0.2851 0.38354 0.0
H1545 H 0.34971 0.25052 0.40275 0.0
H1546 H 0.28739 0.19494 0.39391 0.0
H1547 H 0.27428 0.21609 0.36788 0.0
C1548 C 0.29627 0.25868 0.3601 0.0
C1549 C 0.30946 0.28102 0.35856 0.0
C1550 C 0.30434 0.24583 0.37104 0.0
C1551 C 0.33117 0.29016 0.36622 0.0
C1552 C 0.33935 0.27749 0.37683 0.0
C1553 C 0.33348 0.24297 0.39409 0.0
C1554 C 0.31957 0.2212 0.39964 0.0
C1555 C 0.32596 0.2554 0.38012 0.0
C1556 C 0.29841 0.21158 0.38922 0.0
C1557 C 0.29089 0.22375 0.37473 0.0
H1558 H 0.75598 0.02452 0.35329 0.0
H1559 H 0.70061 0.0315 0.36426 0.0
H1560 H 0.72317 0.06781 0.38365 0.0
H1561 H 0.75795 0.09579 0.40337 0.0
H1562 H 0.81275 0.0875 0.39538 0.0
H1563 H 0.79127 0.05403 0.36797 0.0
C1564 C 0.74884 0.03408 0.35946 0.0
C1565 C 0.72656 0.02514 0.35768 0.0
C1566 C 0.76187 0.05483 0.37113 0.0
C1567 C 0.71767 0.03787 0.36558 0.0
C1568 C 0.73058 0.05865 0.37675 0.0
C1569 C 0.76528 0.08681 0.39528 0.0
C1570 C 0.78697 0.09419 0.40182 0.0
C1571 C 0.75261 0.06704 0.38054 0.0
C1572 C 0.79622 0.08248 0.39055 0.0
C1573 C 0.78384 0.0631 0.37519 0.0
H1574 H 0.9807 0.73374 0.35387 0.0
H1575 H 0.97864 0.67332 0.36226 0.0
H1576 H 0.9419 0.65668 0.37956 0.0
H1577 H 0.91211 0.66035 0.39872 0.0
H1578 H 0.91412 0.72063 0.3922 0.0
H1579 H 0.94887 0.73621 0.36711 0.0
C1580 C 0.97211 0.71686 0.35904 0.0
C1581 C 0.98258 0.70489 0.35716 0.0
C1582 C 0.95094 0.70738 0.36928 0.0
C1583 C 0.97111 0.68299 0.36371 0.0
C1584 C 0.95006 0.67343 0.37365 0.0
C1585 C 0.9199 0.6767 0.39083 0.0
C1586 C 0.91063 0.68934 0.39695 0.0
C1587 C 0.94005 0.6856 0.37735 0.0
C1588 C 0.92088 0.71058 0.38721 0.0
C1589 C 0.94085 0.71951 0.37327 0.0
H1590 H 0.39403 0.01885 0.67795 0.0
H1591 H 0.43417 0.08569 0.6998 0.0
H1592 H 0.46154 0.07881 0.71978 0.0
H1593 H 0.47195 0.05309 0.7377 0.0
H1594 H 0.43258 0.98649 0.71525 0.0
H1595 H 0.40731 0.99394 0.68842 0.0
C1596 C 0.40893 0.03195 0.68655 0.0
C1597 C 0.41184 0.0527 0.68775 0.0
C1598 C 0.42478 0.02791 0.69799 0.0
C1599 C 0.43137 0.06953 0.6987 0.0
C1600 C 0.44707 0.06562 0.71027 0.0
C1601 C 0.45823 0.0404 0.72591 0.0
C1602 C 0.45416 0.01934 0.72808 0.0
C1603 C 0.44369 0.0448 0.7109 0.0
C1604 C 0.43616 1.00287 0.71333 0.0
C1605 C 0.42159 0.00711 0.69835 0.0
H1606 H 0.94269 0.36021 0.68983 0.0
H1607 H 1.00426 0.36456 0.69567 0.0
H1608 H 0.02045 0.4017 0.7121 0.0
H1609 H 0.01634 0.43136 0.73133 0.0
H1610 H 0.95495 0.42705 0.72757 0.0
H1611 H 0.93951 0.39173 0.7032 0.0
C1612 C 0.95971 0.36938 0.69423 0.0
C1613 C 0.97216 0.35944 0.69189 0.0
C1614 C 0.96895 0.39079 0.70403 0.0
C1615 C 0.99422 0.37166 0.6975 0.0
C1616 C 1.00353 0.39295 0.70694 0.0
C1617 C 0.99975 0.42294 0.72415 0.0
C1618 C 0.9868 0.43177 0.7308 0.0
C1619 C 0.99095 0.40246 0.71112 0.0
C1620 C 0.96524 0.42066 0.7221 0.0
C1621 C 0.9564 0.40037 0.70857 0.0
H1622 H 0.64274 0.62337 0.69066 0.0
H1623 H 0.66364 0.57706 0.68622 0.0
H1624 H 0.62928 0.54955 0.70507 0.0
H1625 H 0.59536 0.53989 0.72961 0.0
H1626 H 0.57456 0.58613 0.73552 0.0
H1627 H 0.60652 0.6122 0.70884 0.0
C1628 C 0.63965 0.60718 0.69331 0.0
C1629 C 0.65592 0.60243 0.68745 0.0
C1630 C 0.61984 0.59137 0.70457 0.0
C1631 C 0.65154 0.58129 0.69084 0.0
C1632 C 0.63186 0.56549 0.70166 0.0
C1633 C 0.59744 0.5554 0.72411 0.0
C1634 C 0.58265 0.56108 0.73467 0.0
C1635 C 0.61614 0.5705 0.70951 0.0
C1636 C 0.58578 0.58141 0.72774 0.0
C1637 C 0.60413 0.59637 0.71268 0.0
H1638 H 0.7411 0.7566 0.67157 0.0
H1639 H 0.67985 0.70263 0.6477 0.0
H1640 H 0.66771 0.72671 0.62978 0.0
H1641 H 0.67611 0.76285 0.615 0.0
H1642 H 0.738 0.81654 0.63694 0.0
H1643 H 0.74792 0.79293 0.66249 0.0
C1644 C 0.72499 0.75008 0.66282 0.0
C1645 C 0.71153 0.72781 0.66052 0.0
C1646 C 0.71818 0.76402 0.6523 0.0
C1647 C 0.69061 0.71968 0.64952 0.0
C1648 C 0.68366 0.73346 0.63921 0.0
C1649 C 0.69162 0.76943 0.6259 0.0
C1650 C 0.70634 0.79145 0.62374 0.0
C1651 C 0.69753 0.75563 0.63964 0.0
C1652 C 0.72626 0.79974 0.63839 0.0
C1653 C 0.73208 0.78617 0.65266 0.0
H1654 H 0.2873 0.96839 0.67971 0.0
H1655 H 0.24998 0.99881 0.66331 0.0
H1656 H 0.22099 0.96559 0.64259 0.0
H1657 H 0.20811 0.92924 0.62287 0.0
H1658 H 0.24455 0.8982 0.63995 0.0
H1659 H 0.27172 0.92999 0.66713 0.0
C1660 C 0.27268 0.96763 0.67207 0.0
C1661 C 0.27101 0.98621 0.67269 0.0
C1662 C 0.25586 0.94831 0.66026 0.0
C1663 C 0.25182 0.98485 0.663 0.0
C1664 C 0.23519 0.96584 0.65103 0.0
C1665 C 0.22165 0.92924 0.63353 0.0
C1666 C 0.22431 0.91144 0.62972 0.0
C1667 C 0.23727 0.94765 0.64875 0.0
C1668 C 0.24205 0.91164 0.64311 0.0
C1669 C 0.2577 0.92991 0.65827 0.0
H1670 H 0.03316 0.27639 0.68339 0.0
H1671 H 0.04124 0.33745 0.65776 0.0
H1672 H 0.07567 0.34729 0.63526 0.0
H1673 H 0.10098 0.33654 0.61675 0.0
H1674 H 0.09178 0.27471 0.64033 0.0
H1675 H 0.06081 0.26754 0.67055 0.0
C1676 C 0.0426 0.29201 0.67335 0.0
C1677 C 0.03443 0.30602 0.67188 0.0
C1678 C 0.06226 0.29744 0.66003 0.0
C1679 C 0.04703 0.32628 0.65906 0.0
C1680 C 0.06672 0.33189 0.64608 0.0
C1681 C 0.09242 0.32165 0.62898 0.0
C1682 C 0.09863 0.30611 0.62594 0.0
C1683 C 0.07413 0.3173 0.6455 0.0
C1684 C 0.08755 0.28705 0.64235 0.0
C1685 C 0.06961 0.2828 0.65935 0.0
H1686 H 0.26045 0.27427 0.6732 0.0
H1687 H 0.31287 0.33648 0.65114 0.0
H1688 H 0.28783 0.34699 0.63161 0.0
H1689 H 0.25145 0.33683 0.61484 0.0
H1690 H 0.19942 0.27395 0.63493 0.0
H1691 H 0.22376 0.26572 0.66214 0.0
C1692 C 0.26641 0.29024 0.66451 0.0
C1693 C 0.28854 0.30444 0.66318 0.0
C1694 C 0.25194 0.29609 0.65303 0.0
C1695 C 0.29594 0.32517 0.65224 0.0
C1696 C 0.28162 0.33118 0.641 0.0
C1697 C 0.24539 0.32147 0.62568 0.0
C1698 C 0.22363 0.30598 0.62253 0.0
C1699 C 0.25964 0.31653 0.6404 0.0
C1700 C 0.21599 0.28627 0.63712 0.0
C1701 C 0.22999 0.28142 0.65236 0.0
H1702 H 0.73251 0.98316 0.68264 0.0
H1703 H 0.67222 0.97588 0.65357 0.0
H1704 H 0.66154 0.94045 0.63298 0.0
H1705 H 0.67141 0.91388 0.61707 0.0
H1706 H 0.73271 0.92257 0.64357 0.0
H1707 H 0.74048 0.95456 0.67229 0.0
C1708 C 0.71688 0.97371 0.67222 0.0
C1709 C 0.70333 0.98234 0.66921 0.0
C1710 C 0.71099 0.9535 0.65999 0.0
C1711 C 0.68304 0.96973 0.65599 0.0
C1712 C 0.67694 0.94946 0.64413 0.0
C1713 C 0.68632 0.92257 0.62959 0.0
C1714 C 0.70154 0.91589 0.62776 0.0
C1715 C 0.69109 0.94152 0.64507 0.0
C1716 C 0.7206 0.92714 0.64463 0.0
C1717 C 0.72521 0.94567 0.66076 0.0
H1718 H 0.0449 0.72393 0.67776 0.0
H1719 H 0.01533 0.76232 0.66397 0.0
H1720 H 0.04851 0.79113 0.64409 0.0
H1721 H 0.08441 0.80351 0.62395 0.0
H1722 H 0.11454 0.76591 0.63815 0.0
H1723 H 0.083 0.73899 0.66499 0.0
C1724 C 0.04584 0.73875 0.67093 0.0
C1725 C 0.02748 0.74075 0.67196 0.0
C1726 C 0.06513 0.75545 0.65952 0.0
C1727 C 0.02909 0.76019 0.66329 0.0
C1728 C 0.04809 0.77673 0.6518 0.0
C1729 C 0.08429 0.78978 0.63395 0.0
C1730 C 0.10174 0.78671 0.62943 0.0
C1731 C 0.06601 0.77429 0.64893 0.0
C1732 C 0.10137 0.76872 0.6419 0.0
C1733 C 0.08324 0.75321 0.65687 0.0
H1734 H 0.99063 0.61628 0.67946 0.0
H1735 H 0.9233 0.57818 0.69739 0.0
H1736 H 0.92841 0.54966 0.71708 0.0
H1737 H 0.95258 0.53734 0.73516 0.0
H1738 H 0.01964 0.5745 0.71635 0.0
H1739 H 0.01409 0.60128 0.69054 0.0
C1740 C 0.97705 0.6016 0.68725 0.0
C1741 C 0.95667 0.59954 0.68732 0.0
C1742 C 0.98006 0.58504 0.6984 0.0
C1743 C 0.9392 0.58029 0.69716 0.0
C1744 C 0.94209 0.56393 0.70854 0.0
C1745 C 0.96581 0.55098 0.7245 0.0
C1746 C 0.98644 0.55395 0.72744 0.0
C1747 C 0.9625 0.56636 0.71003 0.0
C1748 C 1.00358 0.57176 0.71392 0.0
C1749 C 1.00043 0.5872 0.69953 0.0
H1750 H 0.39533 0.37553 0.69852 0.0
H1751 H 0.44144 0.35486 0.68773 0.0
H1752 H 0.46979 0.38955 0.70541 0.0
H1753 H 0.4806 0.42374 0.73099 0.0
H1754 H 0.43446 0.44394 0.74429 0.0
H1755 H 0.40723 0.41184 0.71798 0.0
C1756 C 0.41164 0.37875 0.69953 0.0
C1757 C 0.41614 0.36245 0.69224 0.0
C1758 C 0.42793 0.39872 0.71023 0.0
C1759 C 0.43741 0.36697 0.69353 0.0
C1760 C 0.4537 0.38686 0.70365 0.0
C1761 C 0.4648 0.42149 0.72708 0.0
C1762 C 0.45953 0.43617 0.73948 0.0
C1763 C 0.44904 0.40261 0.71299 0.0
C1764 C 0.43887 0.43285 0.73481 0.0
C1765 C 0.42326 0.4144 0.72006 0.0
H1766 H 0.63825 0.02678 0.68092 0.0
H1767 H 0.66598 0.09319 0.70612 0.0
H1768 H 0.63173 0.08659 0.72521 0.0
H1769 H 0.59515 0.06111 0.74095 0.0
H1770 H 0.56687 0.99492 0.71516 0.0
H1771 H 0.59976 1.00228 0.68949 0.0
C1772 C 0.63669 0.03985 0.69016 0.0
C1773 C 0.65477 0.06038 0.6925 0.0
C1774 C 0.6168 0.03598 0.70097 0.0
C1775 C 0.6524 0.0772 0.70416 0.0
C1776 C 0.6328 0.07345 0.71518 0.0
C1777 C 0.59602 0.04849 0.72879 0.0
C1778 C 0.57868 0.02755 0.7298 0.0
C1779 C 0.61506 0.05281 0.71451 0.0
C1780 C 0.57995 0.01122 0.71428 0.0
C1781 C 0.59886 0.01539 0.69998 0.0
loop_
_geom_bond_atom_site_label_1
_geom_bond_atom_site_label_2
_geom_bond_distance
_geom_bond_site_symmetry_2
_ccdc_geom_bond_type
O0 Cd1 2.223 . S
O0 C8 1.315 . S
Cd1 O0 2.223 . S
Cd1 O4 2.297 . S
Cd1 O5 2.439 . S
Cd1 O11 2.240 1_554 S
Cd2 O3 2.240 . S
Cd2 O10 2.223 1_554 S
Cd2 O12 2.297 1_554 S
Cd2 O13 2.439 1_554 S
O3 Cd2 2.240 . S
O3 C8 1.279 1_655 S
O4 Cd1 2.297 . S
O4 C6 1.247 . S
O5 Cd1 2.439 . S
O5 C6 1.208 . S
C6 O4 1.247 . S
C6 O5 1.208 . S
C7 O12 1.247 . S
C7 O13 1.208 . S
C8 O0 1.315 . S
C8 O3 1.279 1_455 S
C9 O10 1.315 . S
C9 O11 1.279 1_655 S
O10 Cd2 2.223 1_556 S
O10 C9 1.315 . S
O11 Cd1 2.240 1_556 S
O11 C9 1.279 1_455 S
O12 Cd2 2.297 1_556 S
O12 C7 1.247 . S
O13 Cd2 2.439 1_556 S
O13 C7 1.208 . S
O14 Cd15 2.223 . S
O14 C22 1.315 . S
Cd15 O14 2.223 . S
Cd15 O18 2.297 . S
Cd15 O19 2.439 . S
Cd15 O25 2.240 1_554 S
Cd16 O17 2.240 . S
Cd16 O24 2.223 1_554 S
Cd16 O26 2.297 1_554 S
Cd16 O27 2.439 1_554 S
O17 Cd16 2.240 . S
O17 C22 1.279 . S
O18 Cd15 2.297 . S
O18 C20 1.247 . S
O19 Cd15 2.439 . S
O19 C20 1.208 . S
C20 O18 1.247 . S
C20 O19 1.208 . S
C21 O26 1.247 . S
C21 O27 1.208 . S
C22 O14 1.315 . S
C22 O17 1.279 . S
C23 O24 1.315 . S
C23 O25 1.279 . S
O24 Cd16 2.223 1_556 S
O24 C23 1.315 . S
O25 Cd15 2.240 1_556 S
O25 C23 1.279 . S
O26 Cd16 2.297 1_556 S
O26 C21 1.247 . S
O27 Cd16 2.439 1_556 S
O27 C21 1.208 . S
O28 Cd29 2.223 1_556 S
O28 C36 1.315 . S
Cd29 O28 2.223 1_554 S
Cd29 O32 2.297 1_554 S
Cd29 O33 2.439 1_554 S
Cd29 O39 2.240 . S
Cd30 O31 2.240 1_554 S
Cd30 O38 2.223 . S
Cd30 O40 2.297 . S
Cd30 O41 2.439 . S
O31 Cd30 2.240 1_556 S
O31 C36 1.279 1_565 S
O32 Cd29 2.297 1_556 S
O32 C34 1.247 . S
O33 Cd29 2.439 1_556 S
O33 C34 1.208 . S
C34 O32 1.247 . S
C34 O33 1.208 . S
C35 O40 1.247 . S
C35 O41 1.208 . S
C36 O28 1.315 . S
C36 O31 1.279 1_545 S
C37 O38 1.315 . S
C37 O39 1.279 1_565 S
O38 Cd30 2.223 . S
O38 C37 1.315 . S
O39 Cd29 2.240 . S
O39 C37 1.279 1_545 S
O40 Cd30 2.297 . S
O40 C35 1.247 . S
O41 Cd30 2.439 . S
O41 C35 1.208 . S
O42 Cd43 2.223 1_556 S
O42 C50 1.315 . S
Cd43 O42 2.223 1_554 S
Cd43 O46 2.297 1_554 S
Cd43 O47 2.439 1_554 S
Cd43 O53 2.240 . S
Cd44 O45 2.240 1_554 S
Cd44 O52 2.223 . S
Cd44 O54 2.297 . S
Cd44 O55 2.439 . S
O45 Cd44 2.240 1_556 S
O45 C50 1.279 1_455 S
O46 Cd43 2.297 1_556 S
O46 C48 1.247 . S
O47 Cd43 2.439 1_556 S
O47 C48 1.208 . S
C48 O46 1.247 . S
C48 O47 1.208 . S
C49 O54 1.247 . S
C49 O55 1.208 . S
C50 O42 1.315 . S
C50 O45 1.279 1_655 S
C51 O52 1.315 . S
C51 O53 1.279 1_455 S
O52 Cd44 2.223 . S
O52 C51 1.315 . S
O53 Cd43 2.240 . S
O53 C51 1.279 1_655 S
O54 Cd44 2.297 . S
O54 C49 1.247 . S
O55 Cd44 2.439 . S
O55 C49 1.208 . S
O56 Cd57 2.223 1_556 S
O56 C64 1.315 . S
Cd57 O56 2.223 1_554 S
Cd57 O60 2.297 1_554 S
Cd57 O61 2.439 1_554 S
Cd57 O67 2.240 . S
Cd58 O59 2.240 1_554 S
Cd58 O66 2.223 . S
Cd58 O68 2.297 . S
Cd58 O69 2.439 . S
O59 Cd58 2.240 1_556 S
O59 C64 1.279 . S
O60 Cd57 2.297 1_556 S
O60 C62 1.247 . S
O61 Cd57 2.439 1_556 S
O61 C62 1.208 . S
C62 O60 1.247 . S
C62 O61 1.208 . S
C63 O68 1.247 . S
C63 O69 1.208 . S
C64 O56 1.315 . S
C64 O59 1.279 . S
C65 O66 1.315 . S
C65 O67 1.279 . S
O66 Cd58 2.223 . S
O66 C65 1.315 . S
O67 Cd57 2.240 . S
O67 C65 1.279 . S
O68 Cd58 2.297 . S
O68 C63 1.247 . S
O69 Cd58 2.439 . S
O69 C63 1.208 . S
O70 Cd71 2.223 . S
O70 C78 1.315 . S
Cd71 O70 2.223 . S
Cd71 O74 2.297 . S
Cd71 O75 2.439 . S
Cd71 O81 2.240 1_554 S
Cd72 O73 2.240 . S
Cd72 O80 2.223 1_554 S
Cd72 O82 2.297 1_554 S
Cd72 O83 2.439 1_554 S
O73 Cd72 2.240 . S
O73 C78 1.279 1_545 S
O74 Cd71 2.297 . S
O74 C76 1.247 . S
O75 Cd71 2.439 . S
O75 C76 1.208 . S
C76 O74 1.247 . S
C76 O75 1.208 . S
C77 O82 1.247 . S
C77 O83 1.208 . S
C78 O70 1.315 . S
C78 O73 1.279 1_565 S
C79 O80 1.315 . S
C79 O81 1.279 1_545 S
O80 Cd72 2.223 1_556 S
O80 C79 1.315 . S
O81 Cd71 2.240 1_556 S
O81 C79 1.279 1_565 S
O82 Cd72 2.297 1_556 S
O82 C77 1.247 . S
O83 Cd72 2.439 1_556 S
O83 C77 1.208 . S
O84 Cd85 2.223 . S
O84 C92 1.315 . S
Cd85 O84 2.223 . S
Cd85 O88 2.297 . S
Cd85 O89 2.439 . S
Cd85 O95 2.240 . S
Cd86 O87 2.240 . S
Cd86 O94 2.223 . S
Cd86 O96 2.297 . S
Cd86 O97 2.439 . S
O87 Cd86 2.240 . S
O87 C92 1.279 . S
O88 Cd85 2.297 . S
O88 C90 1.247 . S
O89 Cd85 2.439 . S
O89 C90 1.208 . S
C90 O88 1.247 . S
C90 O89 1.208 . S
C91 O96 1.247 . S
C91 O97 1.208 . S
C92 O84 1.315 . S
C92 O87 1.279 . S
C93 O94 1.315 . S
C93 O95 1.279 . S
O94 Cd86 2.223 . S
O94 C93 1.315 . S
O95 Cd85 2.240 . S
O95 C93 1.279 . S
O96 Cd86 2.297 . S
O96 C91 1.247 . S
O97 Cd86 2.439 . S
O97 C91 1.208 . S
O98 Cd99 2.223 . S
O98 C106 1.315 . S
Cd99 O98 2.223 . S
Cd99 O102 2.297 1_565 S
Cd99 O103 2.439 1_565 S
Cd99 O109 2.240 . S
Cd100 O101 2.240 . S
Cd100 O108 2.223 . S
Cd100 O110 2.297 . S
Cd100 O111 2.439 . S
O101 Cd100 2.240 . S
O101 C106 1.279 . S
O102 Cd99 2.297 1_545 S
O102 C104 1.247 . S
O103 Cd99 2.439 1_545 S
O103 C104 1.208 . S
C104 O102 1.247 . S
C104 O103 1.208 . S
C105 O110 1.247 . S
C105 O111 1.208 . S
C106 O98 1.315 . S
C106 O101 1.279 . S
C107 O108 1.315 . S
C107 O109 1.279 . S
O108 Cd100 2.223 . S
O108 C107 1.315 . S
O109 Cd99 2.240 . S
O109 C107 1.279 . S
O110 Cd100 2.297 . S
O110 C105 1.247 . S
O111 Cd100 2.439 . S
O111 C105 1.208 . S
O112 Cd113 2.223 . S
O112 C120 1.315 . S
Cd113 O112 2.223 . S
Cd113 O116 2.297 . S
Cd113 O117 2.439 . S
Cd113 O123 2.240 . S
Cd114 O115 2.240 . S
Cd114 O122 2.223 . S
Cd114 O124 2.297 1_455 S
Cd114 O125 2.439 1_455 S
O115 Cd114 2.240 . S
O115 C120 1.279 . S
O116 Cd113 2.297 . S
O116 C118 1.247 . S
O117 Cd113 2.439 . S
O117 C118 1.208 . S
C118 O116 1.247 . S
C118 O117 1.208 . S
C119 O124 1.247 . S
C119 O125 1.208 . S
C120 O112 1.315 . S
C120 O115 1.279 . S
C121 O122 1.315 . S
C121 O123 1.279 . S
O122 Cd114 2.223 . S
O122 C121 1.315 . S
O123 Cd113 2.240 . S
O123 C121 1.279 . S
O124 Cd114 2.297 1_655 S
O124 C119 1.247 . S
O125 Cd114 2.439 1_655 S
O125 C119 1.208 . S
O126 Cd127 2.223 . S
O126 C134 1.315 . S
Cd127 O126 2.223 . S
Cd127 O130 2.297 . S
Cd127 O131 2.439 . S
Cd127 O137 2.240 . S
Cd128 O129 2.240 . S
Cd128 O136 2.223 . S
Cd128 O138 2.297 1_565 S
Cd128 O139 2.439 1_565 S
O129 Cd128 2.240 . S
O129 C134 1.279 . S
O130 Cd127 2.297 . S
O130 C132 1.247 . S
O131 Cd127 2.439 . S
O131 C132 1.208 . S
C132 O130 1.247 . S
C132 O131 1.208 . S
C133 O138 1.247 . S
C133 O139 1.208 . S
C134 O126 1.315 . S
C134 O129 1.279 . S
C135 O136 1.315 . S
C135 O137 1.279 . S
O136 Cd128 2.223 . S
O136 C135 1.315 . S
O137 Cd127 2.240 . S
O137 C135 1.279 . S
O138 Cd128 2.297 1_545 S
O138 C133 1.247 . S
O139 Cd128 2.439 1_545 S
O139 C133 1.208 . S
O140 Cd141 2.223 . S
O140 C148 1.315 . S
Cd141 O140 2.223 . S
Cd141 O144 2.297 . S
Cd141 O145 2.439 . S
Cd141 O151 2.240 . S
Cd142 O143 2.240 . S
Cd142 O150 2.223 . S
Cd142 O152 2.297 1_455 S
Cd142 O153 2.439 1_455 S
O143 Cd142 2.240 . S
O143 C148 1.279 . S
O144 Cd141 2.297 . S
O144 C146 1.247 . S
O145 Cd141 2.439 . S
O145 C146 1.208 . S
C146 O144 1.247 . S
C146 O145 1.208 . S
C147 O152 1.247 . S
C147 O153 1.208 . S
C148 O140 1.315 . S
C148 O143 1.279 . S
C149 O150 1.315 . S
C149 O151 1.279 . S
O150 Cd142 2.223 . S
O150 C149 1.315 . S
O151 Cd141 2.240 . S
O151 C149 1.279 . S
O152 Cd142 2.297 1_655 S
O152 C147 1.247 . S
O153 Cd142 2.439 1_655 S
O153 C147 1.208 . S
O154 Cd155 2.223 . S
O154 C162 1.315 . S
Cd155 O154 2.223 . S
Cd155 O158 2.297 . S
Cd155 O159 2.439 . S
Cd155 O165 2.240 . S
Cd156 O157 2.240 . S
Cd156 O164 2.223 . S
Cd156 O166 2.297 . S
Cd156 O167 2.439 . S
O157 Cd156 2.240 . S
O157 C162 1.279 . S
O158 Cd155 2.297 . S
O158 C160 1.247 . S
O159 Cd155 2.439 . S
O159 C160 1.208 . S
C160 O158 1.247 . S
C160 O159 1.208 . S
C161 O166 1.247 . S
C161 O167 1.208 . S
C162 O154 1.315 . S
C162 O157 1.279 . S
C163 O164 1.315 . S
C163 O165 1.279 . S
O164 Cd156 2.223 . S
O164 C163 1.315 . S
O165 Cd155 2.240 . S
O165 C163 1.279 . S
O166 Cd156 2.297 . S
O166 C161 1.247 . S
O167 Cd156 2.439 . S
O167 C161 1.208 . S
O168 Cd169 2.223 . S
O168 C176 1.315 . S
Cd169 O168 2.223 . S
Cd169 O172 2.297 . S
Cd169 O173 2.439 . S
Cd169 O179 2.240 . S
Cd170 O171 2.240 . S
Cd170 O178 2.223 . S
Cd170 O180 2.297 1_545 S
Cd170 O181 2.439 1_545 S
O171 Cd170 2.240 . S
O171 C176 1.279 . S
O172 Cd169 2.297 . S
O172 C174 1.247 . S
O173 Cd169 2.439 . S
O173 C174 1.208 . S
C174 O172 1.247 . S
C174 O173 1.208 . S
C175 O180 1.247 . S
C175 O181 1.208 . S
C176 O168 1.315 . S
C176 O171 1.279 . S
C177 O178 1.315 . S
C177 O179 1.279 . S
O178 Cd170 2.223 . S
O178 C177 1.315 . S
O179 Cd169 2.240 . S
O179 C177 1.279 . S
O180 Cd170 2.297 1_565 S
O180 C175 1.247 . S
O181 Cd170 2.439 1_565 S
O181 C175 1.208 . S
O182 Cd183 2.223 . S
O182 C190 1.315 . S
Cd183 O182 2.223 . S
Cd183 O186 2.297 . S
Cd183 O187 2.439 . S
Cd183 O193 2.240 . S
Cd184 O185 2.240 . S
Cd184 O192 2.223 . S
Cd184 O194 2.297 1_655 S
Cd184 O195 2.439 1_655 S
O185 Cd184 2.240 . S
O185 C190 1.279 . S
O186 Cd183 2.297 . S
O186 C188 1.247 . S
O187 Cd183 2.439 . S
O187 C188 1.208 . S
C188 O186 1.247 . S
C188 O187 1.208 . S
C189 O194 1.247 . S
C189 O195 1.208 . S
C190 O182 1.315 . S
C190 O185 1.279 . S
C191 O192 1.315 . S
C191 O193 1.279 . S
O192 Cd184 2.223 . S
O192 C191 1.315 . S
O193 Cd183 2.240 . S
O193 C191 1.279 . S
O194 Cd184 2.297 1_455 S
O194 C189 1.247 . S
O195 Cd184 2.439 1_455 S
O195 C189 1.208 . S
O196 Cd197 2.223 . S
O196 C204 1.315 . S
Cd197 O196 2.223 . S
Cd197 O200 2.297 . S
Cd197 O201 2.439 . S
Cd197 O207 2.240 . S
Cd198 O199 2.240 . S
Cd198 O206 2.223 . S
Cd198 O208 2.297 . S
Cd198 O209 2.439 . S
O199 Cd198 2.240 . S
O199 C204 1.279 . S
O200 Cd197 2.297 . S
O200 C202 1.247 . S
O201 Cd197 2.439 . S
O201 C202 1.208 . S
C202 O200 1.247 . S
C202 O201 1.208 . S
C203 O208 1.247 . S
C203 O209 1.208 . S
C204 O196 1.315 . S
C204 O199 1.279 . S
C205 O206 1.315 . S
C205 O207 1.279 . S
O206 Cd198 2.223 . S
O206 C205 1.315 . S
O207 Cd197 2.240 . S
O207 C205 1.279 . S
O208 Cd198 2.297 . S
O208 C203 1.247 . S
O209 Cd198 2.439 . S
O209 C203 1.208 . S
O210 Cd211 2.223 . S
O210 C218 1.315 . S
Cd211 O210 2.223 . S
Cd211 O214 2.297 . S
Cd211 O215 2.439 . S
Cd211 O221 2.240 . S
Cd212 O213 2.240 . S
Cd212 O220 2.223 . S
Cd212 O222 2.297 . S
Cd212 O223 2.439 . S
O213 Cd212 2.240 . S
O213 C218 1.279 . S
O214 Cd211 2.297 . S
O214 C216 1.247 . S
O215 Cd211 2.439 . S
O215 C216 1.208 . S
C216 O214 1.247 . S
C216 O215 1.208 . S
C217 O222 1.247 . S
C217 O223 1.208 . S
C218 O210 1.315 . S
C218 O213 1.279 . S
C219 O220 1.315 . S
C219 O221 1.279 . S
O220 Cd212 2.223 . S
O220 C219 1.315 . S
O221 Cd211 2.240 . S
O221 C219 1.279 . S
O222 Cd212 2.297 . S
O222 C217 1.247 . S
O223 Cd212 2.439 . S
O223 C217 1.208 . S
O224 Cd225 2.223 . S
O224 C232 1.315 . S
Cd225 O224 2.223 . S
Cd225 O228 2.297 1_545 S
Cd225 O229 2.439 1_545 S
Cd225 O235 2.240 . S
Cd226 O227 2.240 . S
Cd226 O234 2.223 . S
Cd226 O236 2.297 . S
Cd226 O237 2.439 . S
O227 Cd226 2.240 . S
O227 C232 1.279 . S
O228 Cd225 2.297 1_565 S
O228 C230 1.247 . S
O229 Cd225 2.439 1_565 S
O229 C230 1.208 . S
C230 O228 1.247 . S
C230 O229 1.208 . S
C231 O236 1.247 . S
C231 O237 1.208 . S
C232 O224 1.315 . S
C232 O227 1.279 . S
C233 O234 1.315 . S
C233 O235 1.279 . S
O234 Cd226 2.223 . S
O234 C233 1.315 . S
O235 Cd225 2.240 . S
O235 C233 1.279 . S
O236 Cd226 2.297 . S
O236 C231 1.247 . S
O237 Cd226 2.439 . S
O237 C231 1.208 . S
O238 Cd239 2.223 . S
O238 C246 1.315 . S
Cd239 O238 2.223 . S
Cd239 O242 2.297 . S
Cd239 O243 2.439 . S
Cd239 O249 2.240 . S
Cd240 O241 2.240 . S
Cd240 O248 2.223 . S
Cd240 O250 2.297 1_655 S
Cd240 O251 2.439 1_655 S
O241 Cd240 2.240 . S
O241 C246 1.279 . S
O242 Cd239 2.297 . S
O242 C244 1.247 . S
O243 Cd239 2.439 . S
O243 C244 1.208 . S
C244 O242 1.247 . S
C244 O243 1.208 . S
C245 O250 1.247 . S
C245 O251 1.208 . S
C246 O238 1.315 . S
C246 O241 1.279 . S
C247 O248 1.315 . S
C247 O249 1.279 . S
O248 Cd240 2.223 . S
O248 C247 1.315 . S
O249 Cd239 2.240 . S
O249 C247 1.279 . S
O250 Cd240 2.297 1_455 S
O250 C245 1.247 . S
O251 Cd240 2.439 1_455 S
O251 C245 1.208 . S
H252 C260 0.930 . S
H253 C263 0.930 . S
H254 C265 0.930 . S
H255 C266 0.970 . S
H256 C266 0.970 . S
H257 C268 0.930 . S
H258 C270 0.930 . S
H259 C272 0.930 . S
C260 H252 0.930 . S
C260 C261 1.382 . S
C260 C262 1.426 . S
C261 C260 1.382 . S
C261 C265 1.389 . S
C262 C260 1.426 . S
C262 C263 1.375 . S
C262 C266 1.532 . S
C263 H253 0.930 . S
C263 C262 1.375 . S
C263 C264 1.416 . S
C264 C263 1.416 . S
C264 C265 1.371 . S
C265 H254 0.930 . S
C265 C261 1.389 . S
C265 C264 1.371 . S
C266 H255 0.970 . S
C266 H256 0.970 . S
C266 C262 1.532 . S
C266 C267 1.499 . S
C267 C266 1.499 . S
C267 C268 1.370 . S
C267 C272 1.415 . S
C268 H257 0.930 . S
C268 C267 1.370 . S
C268 C269 1.407 . S
C269 C268 1.407 . S
C269 C270 1.365 . S
C270 H258 0.930 . S
C270 C269 1.365 . S
C270 C271 1.393 . S
C271 C270 1.393 . S
C271 C272 1.387 . S
C272 H259 0.930 . S
C272 C267 1.415 . S
C272 C271 1.387 . S
H273 C281 0.930 . S
H274 C284 0.930 . S
H275 C286 0.930 . S
H276 C287 0.970 . S
H277 C287 0.970 . S
H278 C289 0.930 . S
H279 C291 0.930 . S
H280 C293 0.930 . S
C281 H273 0.930 . S
C281 C282 1.382 . S
C281 C283 1.426 . S
C282 C281 1.382 . S
C282 C286 1.389 . S
C283 C281 1.426 . S
C283 C284 1.375 . S
C283 C287 1.532 . S
C284 H274 0.930 . S
C284 C283 1.375 . S
C284 C285 1.416 . S
C285 C284 1.416 . S
C285 C286 1.371 . S
C286 H275 0.930 . S
C286 C282 1.389 . S
C286 C285 1.371 . S
C287 H276 0.970 . S
C287 H277 0.970 . S
C287 C283 1.532 . S
C287 C288 1.499 . S
C288 C287 1.499 . S
C288 C289 1.370 . S
C288 C293 1.415 . S
C289 H278 0.930 . S
C289 C288 1.370 . S
C289 C290 1.407 . S
C290 C289 1.407 . S
C290 C291 1.365 . S
C291 H279 0.930 . S
C291 C290 1.365 . S
C291 C292 1.393 . S
C292 C291 1.393 . S
C292 C293 1.387 . S
C293 H280 0.930 . S
C293 C288 1.415 . S
C293 C292 1.387 . S
H294 C302 0.930 . S
H295 C305 0.930 . S
H296 C307 0.930 . S
H297 C308 0.970 . S
H298 C308 0.970 . S
H299 C310 0.930 . S
H300 C312 0.930 . S
H301 C314 0.930 . S
C302 H294 0.930 . S
C302 C303 1.382 . S
C302 C304 1.426 . S
C303 C302 1.382 . S
C303 C307 1.389 . S
C304 C302 1.426 . S
C304 C305 1.375 . S
C304 C308 1.532 . S
C305 H295 0.930 . S
C305 C304 1.375 . S
C305 C306 1.416 . S
C306 C305 1.416 . S
C306 C307 1.371 . S
C307 H296 0.930 . S
C307 C303 1.389 . S
C307 C306 1.371 . S
C308 H297 0.970 . S
C308 H298 0.970 . S
C308 C304 1.532 . S
C308 C309 1.499 . S
C309 C308 1.499 . S
C309 C310 1.370 . S
C309 C314 1.415 . S
C310 H299 0.930 . S
C310 C309 1.370 . S
C310 C311 1.407 . S
C311 C310 1.407 . S
C311 C312 1.365 . S
C312 H300 0.930 . S
C312 C311 1.365 . S
C312 C313 1.393 . S
C313 C312 1.393 . S
C313 C314 1.387 . S
C314 H301 0.930 . S
C314 C309 1.415 . S
C314 C313 1.387 . S
H315 C323 0.930 . S
H316 C326 0.930 . S
H317 C328 0.930 . S
H318 C329 0.970 . S
H319 C329 0.970 . S
H320 C331 0.930 . S
H321 C333 0.930 . S
H322 C335 0.930 . S
C323 H315 0.930 . S
C323 C324 1.382 . S
C323 C325 1.426 . S
C324 C323 1.382 . S
C324 C328 1.389 . S
C325 C323 1.426 . S
C325 C326 1.375 . S
C325 C329 1.532 . S
C326 H316 0.930 . S
C326 C325 1.375 . S
C326 C327 1.416 . S
C327 C326 1.416 . S
C327 C328 1.371 . S
C328 H317 0.930 . S
C328 C324 1.389 . S
C328 C327 1.371 . S
C329 H318 0.970 . S
C329 H319 0.970 . S
C329 C325 1.532 . S
C329 C330 1.499 . S
C330 C329 1.499 . S
C330 C331 1.370 . S
C330 C335 1.415 . S
C331 H320 0.930 . S
C331 C330 1.370 . S
C331 C332 1.407 . S
C332 C331 1.407 . S
C332 C333 1.365 . S
C333 H321 0.930 . S
C333 C332 1.365 . S
C333 C334 1.393 . S
C334 C333 1.393 . S
C334 C335 1.387 . S
C335 H322 0.930 . S
C335 C330 1.415 . S
C335 C334 1.387 . S
H336 C344 0.930 . S
H337 C347 0.930 . S
H338 C349 0.930 . S
H339 C350 0.970 . S
H340 C350 0.970 . S
H341 C352 0.930 . S
H342 C354 0.930 . S
H343 C356 0.930 . S
C344 H336 0.930 . S
C344 C345 1.382 . S
C344 C346 1.426 . S
C345 C344 1.382 . S
C345 C349 1.389 . S
C346 C344 1.426 . S
C346 C347 1.375 . S
C346 C350 1.532 . S
C347 H337 0.930 . S
C347 C346 1.375 . S
C347 C348 1.416 . S
C348 C347 1.416 . S
C348 C349 1.371 . S
C349 H338 0.930 . S
C349 C345 1.389 . S
C349 C348 1.371 . S
C350 H339 0.970 . S
C350 H340 0.970 . S
C350 C346 1.532 . S
C350 C351 1.499 . S
C351 C350 1.499 . S
C351 C352 1.370 . S
C351 C356 1.415 . S
C352 H341 0.930 . S
C352 C351 1.370 . S
C352 C353 1.407 . S
C353 C352 1.407 . S
C353 C354 1.365 . S
C354 H342 0.930 . S
C354 C353 1.365 . S
C354 C355 1.393 . S
C355 C354 1.393 . S
C355 C356 1.387 . S
C356 H343 0.930 . S
C356 C351 1.415 . S
C356 C355 1.387 . S
H357 C365 0.930 . S
H358 C368 0.930 . S
H359 C370 0.930 . S
H360 C371 0.970 . S
H361 C371 0.970 . S
H362 C373 0.930 . S
H363 C375 0.930 . S
H364 C377 0.930 . S
C365 H357 0.930 . S
C365 C366 1.382 . S
C365 C367 1.426 . S
C366 C365 1.382 . S
C366 C370 1.389 . S
C367 C365 1.426 . S
C367 C368 1.375 . S
C367 C371 1.532 . S
C368 H358 0.930 . S
C368 C367 1.375 . S
C368 C369 1.416 . S
C369 C368 1.416 . S
C369 C370 1.371 . S
C370 H359 0.930 . S
C370 C366 1.389 . S
C370 C369 1.371 . S
C371 H360 0.970 . S
C371 H361 0.970 . S
C371 C367 1.532 . S
C371 C372 1.499 . S
C372 C371 1.499 . S
C372 C373 1.370 . S
C372 C377 1.415 . S
C373 H362 0.930 . S
C373 C372 1.370 . S
C373 C374 1.407 . S
C374 C373 1.407 . S
C374 C375 1.365 . S
C375 H363 0.930 . S
C375 C374 1.365 . S
C375 C376 1.393 . S
C376 C375 1.393 . S
C376 C377 1.387 . S
C377 H364 0.930 . S
C377 C372 1.415 . S
C377 C376 1.387 . S
H378 C386 0.930 . S
H379 C389 0.930 . S
H380 C391 0.930 . S
H381 C392 0.970 . S
H382 C392 0.970 . S
H383 C394 0.930 . S
H384 C396 0.930 . S
H385 C398 0.930 . S
C386 H378 0.930 . S
C386 C387 1.382 . S
C386 C388 1.426 . S
C387 C386 1.382 . S
C387 C391 1.389 . S
C388 C386 1.426 . S
C388 C389 1.375 . S
C388 C392 1.532 . S
C389 H379 0.930 . S
C389 C388 1.375 . S
C389 C390 1.416 . S
C390 C389 1.416 . S
C390 C391 1.371 . S
C391 H380 0.930 . S
C391 C387 1.389 . S
C391 C390 1.371 . S
C392 H381 0.970 . S
C392 H382 0.970 . S
C392 C388 1.532 . S
C392 C393 1.499 . S
C393 C392 1.499 . S
C393 C394 1.370 . S
C393 C398 1.415 . S
C394 H383 0.930 . S
C394 C393 1.370 . S
C394 C395 1.407 . S
C395 C394 1.407 . S
C395 C396 1.365 . S
C396 H384 0.930 . S
C396 C395 1.365 . S
C396 C397 1.393 . S
C397 C396 1.393 . S
C397 C398 1.387 . S
C398 H385 0.930 . S
C398 C393 1.415 . S
C398 C397 1.387 . S
H399 C407 0.930 . S
H400 C410 0.930 . S
H401 C412 0.930 . S
H402 C413 0.970 . S
H403 C413 0.970 . S
H404 C415 0.930 . S
H405 C417 0.930 . S
H406 C419 0.930 . S
C407 H399 0.930 . S
C407 C408 1.382 . S
C407 C409 1.426 . S
C408 C407 1.382 . S
C408 C412 1.389 . S
C409 C407 1.426 . S
C409 C410 1.375 . S
C409 C413 1.532 . S
C410 H400 0.930 . S
C410 C409 1.375 . S
C410 C411 1.416 . S
C411 C410 1.416 . S
C411 C412 1.371 . S
C412 H401 0.930 . S
C412 C408 1.389 . S
C412 C411 1.371 . S
C413 H402 0.970 . S
C413 H403 0.970 . S
C413 C409 1.532 . S
C413 C414 1.499 . S
C414 C413 1.499 . S
C414 C415 1.370 . S
C414 C419 1.415 . S
C415 H404 0.930 . S
C415 C414 1.370 . S
C415 C416 1.407 . S
C416 C415 1.407 . S
C416 C417 1.365 . S
C417 H405 0.930 . S
C417 C416 1.365 . S
C417 C418 1.393 . S
C418 C417 1.393 . S
C418 C419 1.387 . S
C419 H406 0.930 . S
C419 C414 1.415 . S
C419 C418 1.387 . S
H420 C428 0.930 . S
H421 C431 0.930 . S
H422 C433 0.930 . S
H423 C434 0.970 . S
H424 C434 0.970 . S
H425 C436 0.930 . S
H426 C438 0.930 . S
H427 C440 0.930 . S
C428 H420 0.930 . S
C428 C429 1.382 . S
C428 C430 1.426 . S
C429 C428 1.382 . S
C429 C433 1.389 . S
C430 C428 1.426 . S
C430 C431 1.375 . S
C430 C434 1.532 . S
C431 H421 0.930 . S
C431 C430 1.375 . S
C431 C432 1.416 . S
C432 C431 1.416 . S
C432 C433 1.371 . S
C433 H422 0.930 . S
C433 C429 1.389 . S
C433 C432 1.371 . S
C434 H423 0.970 . S
C434 H424 0.970 . S
C434 C430 1.532 . S
C434 C435 1.499 . S
C435 C434 1.499 . S
C435 C436 1.370 . S
C435 C440 1.415 . S
C436 H425 0.930 . S
C436 C435 1.370 . S
C436 C437 1.407 . S
C437 C436 1.407 . S
C437 C438 1.365 . S
C438 H426 0.930 . S
C438 C437 1.365 . S
C438 C439 1.393 . S
C439 C438 1.393 . S
C439 C440 1.387 . S
C440 H427 0.930 . S
C440 C435 1.415 . S
C440 C439 1.387 . S
H441 C449 0.930 . S
H442 C452 0.930 . S
H443 C454 0.930 . S
H444 C455 0.970 . S
H445 C455 0.970 . S
H446 C457 0.930 . S
H447 C459 0.930 . S
H448 C461 0.930 . S
C449 H441 0.930 . S
C449 C450 1.382 . S
C449 C451 1.426 . S
C450 C449 1.382 . S
C450 C454 1.389 1_455 S
C451 C449 1.426 . S
C451 C452 1.375 . S
C451 C455 1.532 . S
C452 H442 0.930 . S
C452 C451 1.375 . S
C452 C453 1.416 . S
C453 C452 1.416 . S
C453 C454 1.371 1_455 S
C454 H443 0.930 . S
C454 C450 1.389 1_655 S
C454 C453 1.371 1_655 S
C455 H444 0.970 . S
C455 H445 0.970 . S
C455 C451 1.532 . S
C455 C456 1.499 . S
C456 C455 1.499 . S
C456 C457 1.370 . S
C456 C461 1.415 . S
C457 H446 0.930 . S
C457 C456 1.370 . S
C457 C458 1.407 . S
C458 C457 1.407 . S
C458 C459 1.365 1_455 S
C459 H447 0.930 . S
C459 C458 1.365 1_655 S
C459 C460 1.393 1_655 S
C460 C459 1.393 1_455 S
C460 C461 1.387 . S
C461 H448 0.930 . S
C461 C456 1.415 . S
C461 C460 1.387 . S
H462 C470 0.930 . S
H463 C473 0.930 . S
H464 C475 0.930 . S
H465 C476 0.970 . S
H466 C476 0.970 . S
H467 C478 0.930 . S
H468 C480 0.930 . S
H469 C482 0.930 . S
C470 H462 0.930 . S
C470 C471 1.382 . S
C470 C472 1.426 . S
C471 C470 1.382 . S
C471 C475 1.389 . S
C472 C470 1.426 . S
C472 C473 1.375 . S
C472 C476 1.532 . S
C473 H463 0.930 . S
C473 C472 1.375 . S
C473 C474 1.416 . S
C474 C473 1.416 . S
C474 C475 1.371 . S
C475 H464 0.930 . S
C475 C471 1.389 . S
C475 C474 1.371 . S
C476 H465 0.970 . S
C476 H466 0.970 . S
C476 C472 1.532 . S
C476 C477 1.499 . S
C477 C476 1.499 . S
C477 C478 1.370 . S
C477 C482 1.415 . S
C478 H467 0.930 . S
C478 C477 1.370 . S
C478 C479 1.407 . S
C479 C478 1.407 . S
C479 C480 1.365 . S
C480 H468 0.930 . S
C480 C479 1.365 . S
C480 C481 1.393 . S
C481 C480 1.393 . S
C481 C482 1.387 . S
C482 H469 0.930 . S
C482 C477 1.415 . S
C482 C481 1.387 . S
H483 C491 0.930 . S
H484 C494 0.930 . S
H485 C496 0.930 . S
H486 C497 0.970 . S
H487 C497 0.970 . S
H488 C499 0.930 . S
H489 C501 0.930 . S
H490 C503 0.930 . S
C491 H483 0.930 . S
C491 C492 1.382 . S
C491 C493 1.426 . S
C492 C491 1.382 . S
C492 C496 1.389 1_565 S
C493 C491 1.426 . S
C493 C494 1.375 . S
C493 C497 1.532 . S
C494 H484 0.930 . S
C494 C493 1.375 . S
C494 C495 1.416 . S
C495 C494 1.416 . S
C495 C496 1.371 1_565 S
C496 H485 0.930 . S
C496 C492 1.389 1_545 S
C496 C495 1.371 1_545 S
C497 H486 0.970 . S
C497 H487 0.970 . S
C497 C493 1.532 . S
C497 C498 1.499 . S
C498 C497 1.499 . S
C498 C499 1.370 . S
C498 C503 1.415 . S
C499 H488 0.930 . S
C499 C498 1.370 . S
C499 C500 1.460 . S
C500 C499 1.460 . S
C500 C501 1.345 1_565 S
C501 H489 0.930 . S
C501 C500 1.345 1_545 S
C501 C502 1.393 1_545 S
C502 C501 1.393 1_565 S
C502 C503 1.387 . S
C503 H490 0.930 . S
C503 C498 1.415 . S
C503 C502 1.387 . S
H504 C512 0.930 . S
H505 C515 0.930 . S
H506 C517 0.930 . S
H507 C518 0.970 . S
H508 C518 0.970 . S
H509 C520 0.930 . S
H510 C522 0.930 . S
H511 C524 0.930 . S
C512 H504 0.930 . S
C512 C513 1.382 . S
C512 C514 1.426 . S
C513 C512 1.382 . S
C513 C517 1.389 1_565 S
C514 C512 1.426 . S
C514 C515 1.375 . S
C514 C518 1.532 . S
C515 H505 0.930 . S
C515 C514 1.375 . S
C515 C516 1.416 . S
C516 C515 1.416 . S
C516 C517 1.371 1_565 S
C517 H506 0.930 . S
C517 C513 1.389 1_545 S
C517 C516 1.371 1_545 S
C518 H507 0.970 . S
C518 H508 0.970 . S
C518 C514 1.532 . S
C518 C519 1.499 . S
C519 C518 1.499 . S
C519 C520 1.370 . S
C519 C524 1.415 . S
C520 H509 0.930 . S
C520 C519 1.370 . S
C520 C521 1.407 . S
C521 C520 1.407 . S
C521 C522 1.365 1_565 S
C522 H510 0.930 . S
C522 C521 1.365 1_545 S
C522 C523 1.393 1_545 S
C523 C522 1.393 1_565 S
C523 C524 1.387 . S
C524 H511 0.930 . S
C524 C519 1.415 . S
C524 C523 1.387 . S
H525 C533 0.930 . S
H526 C536 0.930 . S
H527 C538 0.930 . S
H528 C539 0.970 . S
H529 C539 0.970 . S
H530 C541 0.930 . S
H531 C543 0.930 . S
H532 C545 0.930 . S
C533 H525 0.930 . S
C533 C534 1.382 . S
C533 C535 1.426 . S
C534 C533 1.382 . S
C534 C538 1.389 1_455 S
C535 C533 1.426 . S
C535 C536 1.375 . S
C535 C539 1.532 . S
C536 H526 0.930 . S
C536 C535 1.375 . S
C536 C537 1.416 . S
C537 C536 1.416 . S
C537 C538 1.371 1_455 S
C538 H527 0.930 . S
C538 C534 1.389 1_655 S
C538 C537 1.371 1_655 S
C539 H528 0.970 . S
C539 H529 0.970 . S
C539 C535 1.532 . S
C539 C540 1.499 . S
C540 C539 1.499 . S
C540 C541 1.370 . S
C540 C545 1.415 . S
C541 H530 0.930 . S
C541 C540 1.370 . S
C541 C542 1.407 . S
C542 C541 1.407 . S
C542 C543 1.365 1_455 S
C543 H531 0.930 . S
C543 C542 1.365 1_655 S
C543 C544 1.393 1_655 S
C544 C543 1.393 1_455 S
C544 C545 1.387 . S
C545 H532 0.930 . S
C545 C540 1.415 . S
C545 C544 1.387 . S
H546 C554 0.930 . S
H547 C557 0.930 . S
H548 C559 0.930 . S
H549 C560 0.970 . S
H550 C560 0.970 . S
H551 C562 0.930 . S
H552 C564 0.930 . S
H553 C566 0.930 . S
C554 H546 0.930 . S
C554 C555 1.382 . S
C554 C556 1.426 . S
C555 C554 1.382 . S
C555 C559 1.389 . S
C556 C554 1.426 . S
C556 C557 1.375 . S
C556 C560 1.532 . S
C557 H547 0.930 . S
C557 C556 1.375 . S
C557 C558 1.416 . S
C558 C557 1.416 . S
C558 C559 1.371 . S
C559 H548 0.930 . S
C559 C555 1.389 . S
C559 C558 1.371 . S
C560 H549 0.970 . S
C560 H550 0.970 . S
C560 C556 1.532 . S
C560 C561 1.499 . S
C561 C560 1.499 . S
C561 C562 1.370 . S
C561 C566 1.415 . S
C562 H551 0.930 . S
C562 C561 1.370 . S
C562 C563 1.407 . S
C563 C562 1.407 . S
C563 C564 1.365 . S
C564 H552 0.930 . S
C564 C563 1.365 . S
C564 C565 1.393 . S
C565 C564 1.393 . S
C565 C566 1.387 . S
C566 H553 0.930 . S
C566 C561 1.415 . S
C566 C565 1.387 . S
H567 C575 0.930 . S
H568 C578 0.930 . S
H569 C580 0.930 . S
H570 C581 0.970 . S
H571 C581 0.970 . S
H572 C583 0.930 . S
H573 C585 0.930 . S
H574 C587 0.930 . S
C575 H567 0.930 . S
C575 C576 1.382 . S
C575 C577 1.426 . S
C576 C575 1.382 . S
C576 C580 1.389 . S
C577 C575 1.426 . S
C577 C578 1.375 . S
C577 C581 1.532 . S
C578 H568 0.930 . S
C578 C577 1.375 . S
C578 C579 1.416 . S
C579 C578 1.416 . S
C579 C580 1.371 . S
C580 H569 0.930 . S
C580 C576 1.389 . S
C580 C579 1.371 . S
C581 H570 0.970 . S
C581 H571 0.970 . S
C581 C577 1.532 . S
C581 C582 1.499 . S
C582 C581 1.499 . S
C582 C583 1.370 . S
C582 C587 1.415 . S
C583 H572 0.930 . S
C583 C582 1.370 . S
C583 C584 1.407 . S
C584 C583 1.407 . S
C584 C585 1.365 . S
C585 H573 0.930 . S
C585 C584 1.365 . S
C585 C586 1.393 . S
C586 C585 1.393 . S
C586 C587 1.387 . S
C587 H574 0.930 . S
C587 C582 1.415 . S
C587 C586 1.387 . S
H588 C596 0.930 . S
H589 C599 0.930 . S
H590 C601 0.930 . S
H591 C602 0.970 . S
H592 C602 0.970 . S
H593 C604 0.930 . S
H594 C606 0.930 . S
H595 C608 0.930 . S
C596 H588 0.930 . S
C596 C597 1.382 . S
C596 C598 1.426 . S
C597 C596 1.382 . S
C597 C601 1.389 . S
C598 C596 1.426 . S
C598 C599 1.375 . S
C598 C602 1.532 . S
C599 H589 0.930 . S
C599 C598 1.375 . S
C599 C600 1.416 . S
C600 C599 1.416 . S
C600 C601 1.371 . S
C601 H590 0.930 . S
C601 C597 1.389 . S
C601 C600 1.371 . S
C602 H591 0.970 . S
C602 H592 0.970 . S
C602 C598 1.532 . S
C602 C603 1.499 . S
C603 C602 1.499 . S
C603 C604 1.370 . S
C603 C608 1.415 . S
C604 H593 0.930 . S
C604 C603 1.370 . S
C604 C605 1.407 . S
C605 C604 1.407 . S
C605 C606 1.365 . S
C606 H594 0.930 . S
C606 C605 1.365 . S
C606 C607 1.393 . S
C607 C606 1.393 . S
C607 C608 1.387 . S
C608 H595 0.930 . S
C608 C603 1.415 . S
C608 C607 1.387 . S
H609 C617 0.930 . S
H610 C620 0.930 . S
H611 C622 0.930 . S
H612 C623 0.970 . S
H613 C623 0.970 . S
H614 C625 0.930 . S
H615 C627 0.930 . S
H616 C629 0.930 . S
C617 H609 0.930 . S
C617 C618 1.382 . S
C617 C619 1.426 . S
C618 C617 1.382 . S
C618 C622 1.389 . S
C619 C617 1.426 . S
C619 C620 1.375 . S
C619 C623 1.532 . S
C620 H610 0.930 . S
C620 C619 1.375 . S
C620 C621 1.416 . S
C621 C620 1.416 . S
C621 C622 1.371 . S
C622 H611 0.930 . S
C622 C618 1.389 . S
C622 C621 1.371 . S
C623 H612 0.970 . S
C623 H613 0.970 . S
C623 C619 1.532 . S
C623 C624 1.499 . S
C624 C623 1.499 . S
C624 C625 1.370 . S
C624 C629 1.415 . S
C625 H614 0.930 . S
C625 C624 1.370 . S
C625 C626 1.407 . S
C626 C625 1.407 . S
C626 C627 1.365 . S
C627 H615 0.930 . S
C627 C626 1.365 . S
C627 C628 1.393 . S
C628 C627 1.393 . S
C628 C629 1.387 . S
C629 H616 0.930 . S
C629 C624 1.415 . S
C629 C628 1.387 . S
H630 C636 0.930 . S
H631 C639 0.930 . S
H632 C640 0.930 . S
H633 C641 0.930 . S
H634 C644 0.930 . S
H635 C645 0.930 . S
C636 H630 0.930 . S
C636 C637 1.355 . S
C636 C638 1.415 . S
C637 C636 1.355 . S
C637 C639 1.419 1_455 S
C638 C636 1.415 . S
C638 C643 1.425 1_455 S
C638 C645 1.409 . S
C639 H631 0.930 . S
C639 C637 1.419 1_655 S
C639 C640 1.362 . S
C640 H632 0.930 . S
C640 C639 1.362 . S
C640 C643 1.409 . S
C641 H633 0.930 . S
C641 C642 1.355 . S
C641 C643 1.415 . S
C642 C641 1.355 . S
C642 C644 1.419 1_655 S
C643 C638 1.425 1_655 S
C643 C640 1.409 . S
C643 C641 1.415 . S
C644 H634 0.930 . S
C644 C642 1.419 1_455 S
C644 C645 1.362 . S
C645 H635 0.930 . S
C645 C638 1.409 . S
C645 C644 1.362 . S
H646 C652 0.930 . S
H647 C655 0.930 . S
H648 C656 0.930 . S
H649 C657 0.930 . S
H650 C660 0.930 . S
H651 C661 0.930 . S
C652 H646 0.930 . S
C652 C653 1.355 . S
C652 C654 1.415 . S
C653 C652 1.355 . S
C653 C655 1.419 . S
C654 C652 1.415 . S
C654 C659 1.425 . S
C654 C661 1.409 . S
C655 H647 0.930 . S
C655 C653 1.419 . S
C655 C656 1.362 . S
C656 H648 0.930 . S
C656 C655 1.362 . S
C656 C659 1.409 . S
C657 H649 0.930 . S
C657 C658 1.355 . S
C657 C659 1.415 . S
C658 C657 1.355 . S
C658 C660 1.419 . S
C659 C654 1.425 . S
C659 C656 1.409 . S
C659 C657 1.415 . S
C660 H650 0.930 . S
C660 C658 1.419 . S
C660 C661 1.362 . S
C661 H651 0.930 . S
C661 C654 1.409 . S
C661 C660 1.362 . S
H662 C668 0.930 . S
H663 C671 0.930 . S
H664 C672 0.930 . S
H665 C673 0.930 . S
H666 C676 0.930 . S
H667 C677 0.930 . S
C668 H662 0.930 . S
C668 C669 1.347 1_545 S
C668 C670 1.415 . S
C669 C668 1.347 1_565 S
C669 C671 1.443 . S
C670 C668 1.415 . S
C670 C675 1.425 1_545 S
C670 C677 1.409 . S
C671 H663 0.930 . S
C671 C669 1.443 . S
C671 C672 1.362 . S
C672 H664 0.930 . S
C672 C671 1.362 . S
C672 C675 1.409 . S
C673 H665 0.930 . S
C673 C674 1.355 1_565 S
C673 C675 1.415 . S
C674 C673 1.355 1_545 S
C674 C676 1.419 . S
C675 C670 1.425 1_565 S
C675 C672 1.409 . S
C675 C673 1.415 . S
C676 H666 0.930 . S
C676 C674 1.419 . S
C676 C677 1.362 . S
C677 H667 0.930 . S
C677 C670 1.409 . S
C677 C676 1.362 . S
H678 C684 0.930 . S
H679 C687 0.930 . S
H680 C688 0.930 . S
H681 C689 0.930 . S
H682 C692 0.930 . S
H683 C693 0.930 . S
C684 H678 0.930 . S
C684 C685 1.355 1_565 S
C684 C686 1.415 . S
C685 C684 1.355 1_545 S
C685 C687 1.419 . S
C686 C684 1.415 . S
C686 C691 1.425 1_565 S
C686 C693 1.409 . S
C687 H679 0.930 . S
C687 C685 1.419 . S
C687 C688 1.362 . S
C688 H680 0.930 . S
C688 C687 1.362 . S
C688 C691 1.409 . S
C689 H681 0.930 . S
C689 C690 1.355 1_545 S
C689 C691 1.415 . S
C690 C689 1.355 1_565 S
C690 C692 1.419 . S
C691 C686 1.425 1_545 S
C691 C688 1.409 . S
C691 C689 1.415 . S
C692 H682 0.930 . S
C692 C690 1.419 . S
C692 C693 1.362 . S
C693 H683 0.930 . S
C693 C686 1.409 . S
C693 C692 1.362 . S
H694 C700 0.930 . S
H695 C703 0.930 . S
H696 C704 0.930 . S
H697 C705 0.930 . S
H698 C708 0.930 . S
H699 C709 0.930 . S
C700 H694 0.930 . S
C700 C701 1.335 1_455 S
C700 C702 1.415 . S
C701 C700 1.335 1_655 S
C701 C703 1.470 . S
C702 C700 1.415 . S
C702 C707 1.425 1_455 S
C702 C709 1.409 . S
C703 H695 0.930 . S
C703 C701 1.470 . S
C703 C704 1.362 . S
C704 H696 0.930 . S
C704 C703 1.362 . S
C704 C707 1.409 . S
C705 H697 0.930 . S
C705 C706 1.355 1_655 S
C705 C707 1.415 . S
C706 C705 1.355 1_455 S
C706 C708 1.419 . S
C707 C702 1.425 1_655 S
C707 C704 1.409 . S
C707 C705 1.415 . S
C708 H698 0.930 . S
C708 C706 1.419 . S
C708 C709 1.362 . S
C709 H699 0.930 . S
C709 C702 1.409 . S
C709 C708 1.362 . S
H710 C716 0.930 . S
H711 C719 0.930 . S
H712 C720 0.930 . S
H713 C721 0.930 . S
H714 C724 0.930 . S
H715 C725 0.930 . S
C716 H710 0.930 . S
C716 C717 1.355 . S
C716 C718 1.415 . S
C717 C716 1.355 . S
C717 C719 1.419 . S
C718 C716 1.415 . S
C718 C723 1.425 . S
C718 C725 1.409 . S
C719 H711 0.930 . S
C719 C717 1.419 . S
C719 C720 1.362 . S
C720 H712 0.930 . S
C720 C719 1.362 . S
C720 C723 1.409 . S
C721 H713 0.930 . S
C721 C722 1.355 . S
C721 C723 1.415 . S
C722 C721 1.355 . S
C722 C724 1.419 . S
C723 C718 1.425 . S
C723 C720 1.409 . S
C723 C721 1.415 . S
C724 H714 0.930 . S
C724 C722 1.419 . S
C724 C725 1.362 . S
C725 H715 0.930 . S
C725 C718 1.409 . S
C725 C724 1.362 . S
H726 C732 0.930 . S
H727 C735 0.930 . S
H728 C736 0.930 . S
H729 C737 0.930 . S
H730 C740 0.930 . S
H731 C741 0.930 . S
C732 H726 0.930 . S
C732 C733 1.331 1_655 S
C732 C734 1.415 . S
C733 C732 1.331 1_455 S
C733 C735 1.478 . S
C734 C732 1.415 . S
C734 C739 1.425 1_655 S
C734 C741 1.409 . S
C735 H727 0.930 . S
C735 C733 1.478 . S
C735 C736 1.362 . S
C736 H728 0.930 . S
C736 C735 1.362 . S
C736 C739 1.409 . S
C737 H729 0.930 . S
C737 C738 1.355 1_455 S
C737 C739 1.415 . S
C738 C737 1.355 1_655 S
C738 C740 1.419 . S
C739 C734 1.425 1_455 S
C739 C736 1.409 . S
C739 C737 1.415 . S
C740 H730 0.930 . S
C740 C738 1.419 . S
C740 C741 1.362 . S
C741 H731 0.930 . S
C741 C734 1.409 . S
C741 C740 1.362 . S
H742 C748 0.930 . S
H743 C751 0.930 . S
H744 C752 0.930 . S
H745 C753 0.930 . S
H746 C756 0.930 . S
H747 C757 0.930 . S
C748 H742 0.930 . S
C748 C749 1.355 . S
C748 C750 1.415 . S
C749 C748 1.355 . S
C749 C751 1.419 . S
C750 C748 1.415 . S
C750 C755 1.425 . S
C750 C757 1.409 . S
C751 H743 0.930 . S
C751 C749 1.419 . S
C751 C752 1.362 . S
C752 H744 0.930 . S
C752 C751 1.362 . S
C752 C755 1.409 . S
C753 H745 0.930 . S
C753 C754 1.355 . S
C753 C755 1.415 . S
C754 C753 1.355 . S
C754 C756 1.419 . S
C755 C750 1.425 . S
C755 C752 1.409 . S
C755 C753 1.415 . S
C756 H746 0.930 . S
C756 C754 1.419 . S
C756 C757 1.362 . S
C757 H747 0.930 . S
C757 C750 1.409 . S
C757 C756 1.362 . S
H758 C764 0.930 . S
H759 C767 0.930 . S
H760 C768 0.930 . S
H761 C769 0.933 . S
H762 C772 0.930 . S
H763 C773 0.930 . S
C764 H758 0.930 . S
C764 C765 1.352 . S
C764 C766 1.415 . S
C765 C764 1.352 . S
C765 C767 1.420 1_545 S
C766 C764 1.415 . S
C766 C771 1.420 1_545 S
C766 C773 1.409 . S
C767 H759 0.930 . S
C767 C765 1.420 1_565 S
C767 C768 1.362 . S
C768 H760 0.930 . S
C768 C767 1.362 . S
C768 C771 1.424 . S
C769 H761 0.933 . S
C769 C770 1.320 1_565 S
C769 C771 1.411 . S
C770 C769 1.320 1_545 S
C770 C772 1.431 . S
C771 C766 1.420 1_565 S
C771 C768 1.424 . S
C771 C769 1.411 . S
C772 H762 0.930 . S
C772 C770 1.431 . S
C772 C773 1.362 . S
C773 H763 0.930 . S
C773 C766 1.409 . S
C773 C772 1.362 . S
H774 C780 0.930 . S
H775 C783 0.930 . S
H776 C784 0.930 . S
H777 C785 0.930 . S
H778 C788 0.930 . S
H779 C789 0.930 . S
C780 H774 0.930 . S
C780 C781 1.355 1_565 S
C780 C782 1.415 . S
C781 C780 1.355 1_545 S
C781 C783 1.419 . S
C782 C780 1.415 . S
C782 C787 1.425 1_565 S
C782 C789 1.409 . S
C783 H775 0.930 . S
C783 C781 1.419 . S
C783 C784 1.362 . S
C784 H776 0.930 . S
C784 C783 1.362 . S
C784 C787 1.409 . S
C785 H777 0.930 . S
C785 C786 1.355 1_545 S
C785 C787 1.415 . S
C786 C785 1.355 1_565 S
C786 C788 1.419 . S
C787 C782 1.425 1_545 S
C787 C784 1.409 . S
C787 C785 1.415 . S
C788 H778 0.930 . S
C788 C786 1.419 . S
C788 C789 1.362 . S
C789 H779 0.930 . S
C789 C782 1.409 . S
C789 C788 1.362 . S
H790 C796 0.930 . S
H791 C799 0.930 . S
H792 C800 0.930 . S
H793 C801 0.930 . S
H794 C804 0.930 . S
H795 C805 0.930 . S
C796 H790 0.930 . S
C796 C797 1.308 1_455 S
C796 C798 1.415 . S
C797 C796 1.308 1_655 S
C797 C799 1.456 . S
C798 C796 1.415 . S
C798 C803 1.425 1_455 S
C798 C805 1.409 . S
C799 H791 0.930 . S
C799 C797 1.456 . S
C799 C800 1.362 . S
C800 H792 0.930 . S
C800 C799 1.362 . S
C800 C803 1.409 . S
C801 H793 0.930 . S
C801 C802 1.355 1_655 S
C801 C803 1.415 . S
C802 C801 1.355 1_455 S
C802 C804 1.419 . S
C803 C798 1.425 1_655 S
C803 C800 1.409 . S
C803 C801 1.415 . S
C804 H794 0.930 . S
C804 C802 1.419 . S
C804 C805 1.362 . S
C805 H795 0.930 . S
C805 C798 1.409 . S
C805 C804 1.362 . S
H806 C812 0.930 . S
H807 C815 0.930 . S
H808 C816 0.930 . S
H809 C817 0.930 . S
H810 C820 0.930 . S
H811 C821 0.930 . S
C812 H806 0.930 . S
C812 C813 1.355 . S
C812 C814 1.415 . S
C813 C812 1.355 . S
C813 C815 1.419 . S
C814 C812 1.415 . S
C814 C819 1.425 . S
C814 C821 1.409 . S
C815 H807 0.930 . S
C815 C813 1.419 . S
C815 C816 1.362 . S
C816 H808 0.930 . S
C816 C815 1.362 . S
C816 C819 1.409 . S
C817 H809 0.930 . S
C817 C818 1.355 . S
C817 C819 1.415 . S
C818 C817 1.355 . S
C818 C820 1.419 . S
C819 C814 1.425 . S
C819 C816 1.409 . S
C819 C817 1.415 . S
C820 H810 0.930 . S
C820 C818 1.419 . S
C820 C821 1.362 . S
C821 H811 0.930 . S
C821 C814 1.409 . S
C821 C820 1.362 . S
H822 C828 0.930 . S
H823 C831 0.930 . S
H824 C832 0.930 . S
H825 C833 0.930 . S
H826 C836 0.930 . S
H827 C837 0.930 . S
C828 H822 0.930 . S
C828 C829 1.355 . S
C828 C830 1.415 . S
C829 C828 1.355 . S
C829 C831 1.419 . S
C830 C828 1.415 . S
C830 C835 1.425 . S
C830 C837 1.409 . S
C831 H823 0.930 . S
C831 C829 1.419 . S
C831 C832 1.362 . S
C832 H824 0.930 . S
C832 C831 1.362 . S
C832 C835 1.409 . S
C833 H825 0.930 . S
C833 C834 1.355 . S
C833 C835 1.415 . S
C834 C833 1.355 . S
C834 C836 1.419 . S
C835 C830 1.425 . S
C835 C832 1.409 . S
C835 C833 1.415 . S
C836 H826 0.930 . S
C836 C834 1.419 . S
C836 C837 1.362 . S
C837 H827 0.930 . S
C837 C830 1.409 . S
C837 C836 1.362 . S
H838 C844 0.930 . S
H839 C847 0.930 . S
H840 C848 0.930 . S
H841 C849 0.930 . S
H842 C852 0.930 . S
H843 C853 0.930 . S
C844 H838 0.930 . S
C844 C845 1.355 . S
C844 C846 1.415 . S
C845 C844 1.355 . S
C845 C847 1.419 . S
C846 C844 1.415 . S
C846 C851 1.425 . S
C846 C853 1.409 . S
C847 H839 0.930 . S
C847 C845 1.419 . S
C847 C848 1.362 . S
C848 H840 0.930 . S
C848 C847 1.362 . S
C848 C851 1.409 . S
C849 H841 0.930 . S
C849 C850 1.355 . S
C849 C851 1.415 . S
C850 C849 1.355 . S
C850 C852 1.419 . S
C851 C846 1.425 . S
C851 C848 1.409 . S
C851 C849 1.415 . S
C852 H842 0.930 . S
C852 C850 1.419 . S
C852 C853 1.362 . S
C853 H843 0.930 . S
C853 C846 1.409 . S
C853 C852 1.362 . S
H854 C860 0.930 . S
H855 C863 0.930 . S
H856 C864 0.930 . S
H857 C865 0.930 . S
H858 C868 0.930 . S
H859 C869 0.930 . S
C860 H854 0.930 . S
C860 C861 1.355 . S
C860 C862 1.415 . S
C861 C860 1.355 . S
C861 C863 1.419 . S
C862 C860 1.415 . S
C862 C867 1.425 . S
C862 C869 1.409 . S
C863 H855 0.930 . S
C863 C861 1.419 . S
C863 C864 1.362 . S
C864 H856 0.930 . S
C864 C863 1.362 . S
C864 C867 1.409 . S
C865 H857 0.930 . S
C865 C866 1.355 . S
C865 C867 1.415 . S
C866 C865 1.355 . S
C866 C868 1.419 . S
C867 C862 1.425 . S
C867 C864 1.409 . S
C867 C865 1.415 . S
C868 H858 0.930 . S
C868 C866 1.419 . S
C868 C869 1.362 . S
C869 H859 0.930 . S
C869 C862 1.409 . S
C869 C868 1.362 . S
H870 C876 0.930 . S
H871 C879 0.930 . S
H872 C880 0.930 . S
H873 C881 0.930 . S
H874 C884 0.930 . S
H875 C885 0.930 . S
C876 H870 0.930 . S
C876 C877 1.355 . S
C876 C878 1.415 . S
C877 C876 1.355 . S
C877 C879 1.419 . S
C878 C876 1.415 . S
C878 C883 1.425 . S
C878 C885 1.409 . S
C879 H871 0.930 . S
C879 C877 1.419 . S
C879 C880 1.362 . S
C880 H872 0.930 . S
C880 C879 1.362 . S
C880 C883 1.409 . S
C881 H873 0.930 . S
C881 C882 1.355 . S
C881 C883 1.415 . S
C882 C881 1.355 . S
C882 C884 1.419 . S
C883 C878 1.425 . S
C883 C880 1.409 . S
C883 C881 1.415 . S
C884 H874 0.930 . S
C884 C882 1.419 . S
C884 C885 1.362 . S
C885 H875 0.930 . S
C885 C878 1.409 . S
C885 C884 1.362 . S
H886 C892 0.930 . S
H887 C895 0.930 . S
H888 C896 0.930 . S
H889 C897 0.930 . S
H890 C900 0.930 . S
H891 C901 0.930 . S
C892 H886 0.930 . S
C892 C893 1.355 . S
C892 C894 1.415 . S
C893 C892 1.355 . S
C893 C895 1.419 . S
C894 C892 1.415 . S
C894 C899 1.425 . S
C894 C901 1.409 . S
C895 H887 0.930 . S
C895 C893 1.419 . S
C895 C896 1.362 . S
C896 H888 0.930 . S
C896 C895 1.362 . S
C896 C899 1.409 . S
C897 H889 0.930 . S
C897 C898 1.355 . S
C897 C899 1.415 . S
C898 C897 1.355 . S
C898 C900 1.419 . S
C899 C894 1.425 . S
C899 C896 1.409 . S
C899 C897 1.415 . S
C900 H890 0.930 . S
C900 C898 1.419 . S
C900 C901 1.362 . S
C901 H891 0.930 . S
C901 C894 1.409 . S
C901 C900 1.362 . S
H902 C908 0.930 . S
H903 C911 0.930 . S
H904 C912 0.930 . S
H905 C913 0.930 . S
H906 C916 0.930 . S
H907 C917 0.930 . S
C908 H902 0.930 . S
C908 C909 1.355 . S
C908 C910 1.415 . S
C909 C908 1.355 . S
C909 C911 1.419 . S
C910 C908 1.415 . S
C910 C915 1.425 . S
C910 C917 1.409 . S
C911 H903 0.930 . S
C911 C909 1.419 . S
C911 C912 1.362 . S
C912 H904 0.930 . S
C912 C911 1.362 . S
C912 C915 1.409 . S
C913 H905 0.930 . S
C913 C914 1.355 . S
C913 C915 1.415 . S
C914 C913 1.355 . S
C914 C916 1.419 . S
C915 C910 1.425 . S
C915 C912 1.409 . S
C915 C913 1.415 . S
C916 H906 0.930 . S
C916 C914 1.419 . S
C916 C917 1.362 . S
C917 H907 0.930 . S
C917 C910 1.409 . S
C917 C916 1.362 . S
H918 C924 0.930 . S
H919 C927 0.930 . S
H920 C928 0.930 . S
H921 C929 0.930 . S
H922 C932 0.930 . S
H923 C933 0.930 . S
C924 H918 0.930 . S
C924 C925 1.355 . S
C924 C926 1.415 . S
C925 C924 1.355 . S
C925 C927 1.419 . S
C926 C924 1.415 . S
C926 C931 1.425 . S
C926 C933 1.409 . S
C927 H919 0.930 . S
C927 C925 1.419 . S
C927 C928 1.362 . S
C928 H920 0.930 . S
C928 C927 1.362 . S
C928 C931 1.409 . S
C929 H921 0.930 . S
C929 C930 1.355 . S
C929 C931 1.415 . S
C930 C929 1.355 . S
C930 C932 1.419 . S
C931 C926 1.425 . S
C931 C928 1.409 . S
C931 C929 1.415 . S
C932 H922 0.930 . S
C932 C930 1.419 . S
C932 C933 1.362 . S
C933 H923 0.930 . S
C933 C926 1.409 . S
C933 C932 1.362 . S
H934 C940 0.930 . S
H935 C943 0.930 . S
H936 C944 0.930 . S
H937 C945 0.930 . S
H938 C948 0.930 . S
H939 C949 0.930 . S
C940 H934 0.930 . S
C940 C941 1.355 . S
C940 C942 1.415 . S
C941 C940 1.355 . S
C941 C943 1.419 . S
C942 C940 1.415 . S
C942 C947 1.425 . S
C942 C949 1.409 . S
C943 H935 0.930 . S
C943 C941 1.419 . S
C943 C944 1.362 . S
C944 H936 0.930 . S
C944 C943 1.362 . S
C944 C947 1.409 . S
C945 H937 0.930 . S
C945 C946 1.355 . S
C945 C947 1.415 . S
C946 C945 1.355 . S
C946 C948 1.419 . S
C947 C942 1.425 . S
C947 C944 1.409 . S
C947 C945 1.415 . S
C948 H938 0.930 . S
C948 C946 1.419 . S
C948 C949 1.362 . S
C949 H939 0.930 . S
C949 C942 1.409 . S
C949 C948 1.362 . S
H950 C956 0.930 . S
H951 C959 0.930 . S
H952 C960 0.930 . S
H953 C961 0.930 . S
H954 C964 0.930 . S
H955 C965 0.930 . S
C956 H950 0.930 . S
C956 C957 1.355 . S
C956 C958 1.415 . S
C957 C956 1.355 . S
C957 C959 1.419 . S
C958 C956 1.415 . S
C958 C963 1.425 . S
C958 C965 1.409 . S
C959 H951 0.930 . S
C959 C957 1.419 . S
C959 C960 1.362 . S
C960 H952 0.930 . S
C960 C959 1.362 . S
C960 C963 1.409 . S
C961 H953 0.930 . S
C961 C962 1.355 . S
C961 C963 1.415 . S
C962 C961 1.355 . S
C962 C964 1.419 . S
C963 C958 1.425 . S
C963 C960 1.409 . S
C963 C961 1.415 . S
C964 H954 0.930 . S
C964 C962 1.419 . S
C964 C965 1.362 . S
C965 H955 0.930 . S
C965 C958 1.409 . S
C965 C964 1.362 . S
H966 C972 0.930 . S
H967 C975 0.930 . S
H968 C976 0.930 . S
H969 C977 0.930 . S
H970 C980 0.930 . S
H971 C981 0.930 . S
C972 H966 0.930 . S
C972 C973 1.355 . S
C972 C974 1.415 . S
C973 C972 1.355 . S
C973 C975 1.419 . S
C974 C972 1.415 . S
C974 C979 1.425 . S
C974 C981 1.409 . S
C975 H967 0.930 . S
C975 C973 1.419 . S
C975 C976 1.362 . S
C976 H968 0.930 . S
C976 C975 1.362 . S
C976 C979 1.409 . S
C977 H969 0.930 . S
C977 C978 1.355 . S
C977 C979 1.415 . S
C978 C977 1.355 . S
C978 C980 1.419 . S
C979 C974 1.425 . S
C979 C976 1.409 . S
C979 C977 1.415 . S
C980 H970 0.930 . S
C980 C978 1.419 . S
C980 C981 1.362 . S
C981 H971 0.930 . S
C981 C974 1.409 . S
C981 C980 1.362 . S
H982 C988 0.930 . S
H983 C991 0.930 . S
H984 C992 0.930 . S
H985 C993 0.930 . S
H986 C996 0.930 . S
H987 C997 0.930 . S
C988 H982 0.930 . S
C988 C989 1.355 . S
C988 C990 1.415 . S
C989 C988 1.355 . S
C989 C991 1.419 . S
C990 C988 1.415 . S
C990 C995 1.425 . S
C990 C997 1.409 . S
C991 H983 0.930 . S
C991 C989 1.419 . S
C991 C992 1.362 . S
C992 H984 0.930 . S
C992 C991 1.362 . S
C992 C995 1.409 . S
C993 H985 0.930 . S
C993 C994 1.355 . S
C993 C995 1.415 . S
C994 C993 1.355 . S
C994 C996 1.419 . S
C995 C990 1.425 . S
C995 C992 1.409 . S
C995 C993 1.415 . S
C996 H986 0.930 . S
C996 C994 1.419 . S
C996 C997 1.362 . S
C997 H987 0.930 . S
C997 C990 1.409 . S
C997 C996 1.362 . S
H998 C1004 0.930 . S
H999 C1007 0.930 . S
H1000 C1008 0.930 . S
H1001 C1009 0.930 . S
H1002 C1012 0.930 . S
H1003 C1013 0.930 . S
C1004 H998 0.930 . S
C1004 C1005 1.355 . S
C1004 C1006 1.415 . S
C1005 C1004 1.355 . S
C1005 C1007 1.419 . S
C1006 C1004 1.415 . S
C1006 C1011 1.425 . S
C1006 C1013 1.409 . S
C1007 H999 0.930 . S
C1007 C1005 1.419 . S
C1007 C1008 1.362 . S
C1008 H1000 0.930 . S
C1008 C1007 1.362 . S
C1008 C1011 1.409 . S
C1009 H1001 0.930 . S
C1009 C1010 1.355 . S
C1009 C1011 1.415 . S
C1010 C1009 1.355 . S
C1010 C1012 1.419 . S
C1011 C1006 1.425 . S
C1011 C1008 1.409 . S
C1011 C1009 1.415 . S
C1012 H1002 0.930 . S
C1012 C1010 1.419 . S
C1012 C1013 1.362 . S
C1013 H1003 0.930 . S
C1013 C1006 1.409 . S
C1013 C1012 1.362 . S
H1014 C1020 0.930 . S
H1015 C1023 0.930 . S
H1016 C1024 0.930 . S
H1017 C1025 0.930 . S
H1018 C1028 0.930 . S
H1019 C1029 0.930 . S
C1020 H1014 0.930 . S
C1020 C1021 1.355 . S
C1020 C1022 1.415 . S
C1021 C1020 1.355 . S
C1021 C1023 1.419 . S
C1022 C1020 1.415 . S
C1022 C1027 1.425 . S
C1022 C1029 1.409 . S
C1023 H1015 0.930 . S
C1023 C1021 1.419 . S
C1023 C1024 1.362 . S
C1024 H1016 0.930 . S
C1024 C1023 1.362 . S
C1024 C1027 1.409 . S
C1025 H1017 0.930 . S
C1025 C1026 1.355 . S
C1025 C1027 1.415 . S
C1026 C1025 1.355 . S
C1026 C1028 1.419 . S
C1027 C1022 1.425 . S
C1027 C1024 1.409 . S
C1027 C1025 1.415 . S
C1028 H1018 0.930 . S
C1028 C1026 1.419 . S
C1028 C1029 1.362 . S
C1029 H1019 0.930 . S
C1029 C1022 1.409 . S
C1029 C1028 1.362 . S
H1030 C1036 0.930 . S
H1031 C1039 0.930 . S
H1032 C1040 0.930 . S
H1033 C1041 0.930 . S
H1034 C1044 0.930 . S
H1035 C1045 0.930 . S
C1036 H1030 0.930 . S
C1036 C1037 1.355 . S
C1036 C1038 1.415 . S
C1037 C1036 1.355 . S
C1037 C1039 1.419 . S
C1038 C1036 1.415 . S
C1038 C1043 1.425 . S
C1038 C1045 1.409 . S
C1039 H1031 0.930 . S
C1039 C1037 1.419 . S
C1039 C1040 1.362 . S
C1040 H1032 0.930 . S
C1040 C1039 1.362 . S
C1040 C1043 1.409 . S
C1041 H1033 0.930 . S
C1041 C1042 1.355 . S
C1041 C1043 1.415 . S
C1042 C1041 1.355 . S
C1042 C1044 1.419 . S
C1043 C1038 1.425 . S
C1043 C1040 1.409 . S
C1043 C1041 1.415 . S
C1044 H1034 0.930 . S
C1044 C1042 1.419 . S
C1044 C1045 1.362 . S
C1045 H1035 0.930 . S
C1045 C1038 1.409 . S
C1045 C1044 1.362 . S
H1046 C1052 0.930 . S
H1047 C1055 0.930 . S
H1048 C1056 0.930 . S
H1049 C1057 0.930 . S
H1050 C1060 0.930 . S
H1051 C1061 0.930 . S
C1052 H1046 0.930 . S
C1052 C1053 1.355 . S
C1052 C1054 1.415 . S
C1053 C1052 1.355 . S
C1053 C1055 1.419 . S
C1054 C1052 1.415 . S
C1054 C1059 1.425 . S
C1054 C1061 1.409 . S
C1055 H1047 0.930 . S
C1055 C1053 1.419 . S
C1055 C1056 1.362 . S
C1056 H1048 0.930 . S
C1056 C1055 1.362 . S
C1056 C1059 1.409 . S
C1057 H1049 0.930 . S
C1057 C1058 1.355 . S
C1057 C1059 1.415 . S
C1058 C1057 1.355 . S
C1058 C1060 1.419 . S
C1059 C1054 1.425 . S
C1059 C1056 1.409 . S
C1059 C1057 1.415 . S
C1060 H1050 0.930 . S
C1060 C1058 1.419 . S
C1060 C1061 1.362 . S
C1061 H1051 0.930 . S
C1061 C1054 1.409 . S
C1061 C1060 1.362 . S
H1062 C1068 0.930 . S
H1063 C1071 0.930 . S
H1064 C1072 0.930 . S
H1065 C1073 0.930 . S
H1066 C1076 0.930 . S
H1067 C1077 0.930 . S
C1068 H1062 0.930 . S
C1068 C1069 1.355 . S
C1068 C1070 1.415 . S
C1069 C1068 1.355 . S
C1069 C1071 1.419 . S
C1070 C1068 1.415 . S
C1070 C1075 1.425 . S
C1070 C1077 1.409 . S
C1071 H1063 0.930 . S
C1071 C1069 1.419 . S
C1071 C1072 1.362 . S
C1072 H1064 0.930 . S
C1072 C1071 1.362 . S
C1072 C1075 1.409 . S
C1073 H1065 0.930 . S
C1073 C1074 1.355 . S
C1073 C1075 1.415 . S
C1074 C1073 1.355 . S
C1074 C1076 1.419 . S
C1075 C1070 1.425 . S
C1075 C1072 1.409 . S
C1075 C1073 1.415 . S
C1076 H1066 0.930 . S
C1076 C1074 1.419 . S
C1076 C1077 1.362 . S
C1077 H1067 0.930 . S
C1077 C1070 1.409 . S
C1077 C1076 1.362 . S
H1078 C1084 0.930 . S
H1079 C1087 0.930 . S
H1080 C1088 0.930 . S
H1081 C1089 0.930 . S
H1082 C1092 0.930 . S
H1083 C1093 0.930 . S
C1084 H1078 0.930 . S
C1084 C1085 1.355 . S
C1084 C1086 1.415 . S
C1085 C1084 1.355 . S
C1085 C1087 1.419 . S
C1086 C1084 1.415 . S
C1086 C1091 1.425 . S
C1086 C1093 1.409 . S
C1087 H1079 0.930 . S
C1087 C1085 1.419 . S
C1087 C1088 1.362 . S
C1088 H1080 0.930 . S
C1088 C1087 1.362 . S
C1088 C1091 1.409 . S
C1089 H1081 0.930 . S
C1089 C1090 1.355 . S
C1089 C1091 1.415 . S
C1090 C1089 1.355 . S
C1090 C1092 1.419 . S
C1091 C1086 1.425 . S
C1091 C1088 1.409 . S
C1091 C1089 1.415 . S
C1092 H1082 0.930 . S
C1092 C1090 1.419 . S
C1092 C1093 1.362 . S
C1093 H1083 0.930 . S
C1093 C1086 1.409 . S
C1093 C1092 1.362 . S
H1094 C1100 0.930 . S
H1095 C1103 0.930 . S
H1096 C1104 0.930 . S
H1097 C1105 0.930 . S
H1098 C1108 0.930 . S
H1099 C1109 0.930 . S
C1100 H1094 0.930 . S
C1100 C1101 1.355 . S
C1100 C1102 1.415 . S
C1101 C1100 1.355 . S
C1101 C1103 1.419 . S
C1102 C1100 1.415 . S
C1102 C1107 1.425 . S
C1102 C1109 1.409 . S
C1103 H1095 0.930 . S
C1103 C1101 1.419 . S
C1103 C1104 1.362 . S
C1104 H1096 0.930 . S
C1104 C1103 1.362 . S
C1104 C1107 1.409 . S
C1105 H1097 0.930 . S
C1105 C1106 1.355 . S
C1105 C1107 1.415 . S
C1106 C1105 1.355 . S
C1106 C1108 1.419 . S
C1107 C1102 1.425 . S
C1107 C1104 1.409 . S
C1107 C1105 1.415 . S
C1108 H1098 0.930 . S
C1108 C1106 1.419 . S
C1108 C1109 1.362 . S
C1109 H1099 0.930 . S
C1109 C1102 1.409 . S
C1109 C1108 1.362 . S
H1110 C1116 0.930 . S
H1111 C1119 0.930 . S
H1112 C1120 0.930 . S
H1113 C1121 0.930 . S
H1114 C1124 0.930 . S
H1115 C1125 0.930 . S
C1116 H1110 0.930 . S
C1116 C1117 1.355 . S
C1116 C1118 1.415 . S
C1117 C1116 1.355 . S
C1117 C1119 1.419 . S
C1118 C1116 1.415 . S
C1118 C1123 1.425 . S
C1118 C1125 1.409 . S
C1119 H1111 0.930 . S
C1119 C1117 1.419 . S
C1119 C1120 1.362 . S
C1120 H1112 0.930 . S
C1120 C1119 1.362 . S
C1120 C1123 1.409 . S
C1121 H1113 0.930 . S
C1121 C1122 1.355 . S
C1121 C1123 1.415 . S
C1122 C1121 1.355 . S
C1122 C1124 1.419 . S
C1123 C1118 1.425 . S
C1123 C1120 1.409 . S
C1123 C1121 1.415 . S
C1124 H1114 0.930 . S
C1124 C1122 1.419 . S
C1124 C1125 1.362 . S
C1125 H1115 0.930 . S
C1125 C1118 1.409 . S
C1125 C1124 1.362 . S
H1126 C1132 0.930 . S
H1127 C1135 0.930 . S
H1128 C1136 0.930 . S
H1129 C1137 0.930 . S
H1130 C1140 0.930 . S
H1131 C1141 0.930 . S
C1132 H1126 0.930 . S
C1132 C1133 1.355 . S
C1132 C1134 1.415 . S
C1133 C1132 1.355 . S
C1133 C1135 1.419 . S
C1134 C1132 1.415 . S
C1134 C1139 1.425 . S
C1134 C1141 1.409 . S
C1135 H1127 0.930 . S
C1135 C1133 1.419 . S
C1135 C1136 1.362 . S
C1136 H1128 0.930 . S
C1136 C1135 1.362 . S
C1136 C1139 1.409 . S
C1137 H1129 0.930 . S
C1137 C1138 1.355 . S
C1137 C1139 1.415 . S
C1138 C1137 1.355 . S
C1138 C1140 1.419 . S
C1139 C1134 1.425 . S
C1139 C1136 1.409 . S
C1139 C1137 1.415 . S
C1140 H1130 0.930 . S
C1140 C1138 1.419 . S
C1140 C1141 1.362 . S
C1141 H1131 0.930 . S
C1141 C1134 1.409 . S
C1141 C1140 1.362 . S
H1142 C1148 0.930 . S
H1143 C1151 0.930 . S
H1144 C1152 0.930 . S
H1145 C1153 0.930 . S
H1146 C1156 0.930 . S
H1147 C1157 0.930 . S
C1148 H1142 0.930 . S
C1148 C1149 1.355 . S
C1148 C1150 1.415 . S
C1149 C1148 1.355 . S
C1149 C1151 1.419 . S
C1150 C1148 1.415 . S
C1150 C1155 1.425 . S
C1150 C1157 1.409 . S
C1151 H1143 0.930 . S
C1151 C1149 1.419 . S
C1151 C1152 1.362 . S
C1152 H1144 0.930 . S
C1152 C1151 1.362 . S
C1152 C1155 1.409 . S
C1153 H1145 0.930 . S
C1153 C1154 1.355 . S
C1153 C1155 1.415 . S
C1154 C1153 1.355 . S
C1154 C1156 1.419 . S
C1155 C1150 1.425 . S
C1155 C1152 1.409 . S
C1155 C1153 1.415 . S
C1156 H1146 0.930 . S
C1156 C1154 1.419 . S
C1156 C1157 1.362 . S
C1157 H1147 0.930 . S
C1157 C1150 1.409 . S
C1157 C1156 1.362 . S
H1158 C1164 0.930 . S
H1159 C1167 0.930 . S
H1160 C1168 0.930 . S
H1161 C1169 0.930 . S
H1162 C1172 0.930 . S
H1163 C1173 0.930 . S
C1164 H1158 0.930 . S
C1164 C1165 1.355 . S
C1164 C1166 1.415 . S
C1165 C1164 1.355 . S
C1165 C1167 1.419 . S
C1166 C1164 1.415 . S
C1166 C1171 1.425 . S
C1166 C1173 1.409 . S
C1167 H1159 0.930 . S
C1167 C1165 1.419 . S
C1167 C1168 1.362 . S
C1168 H1160 0.930 . S
C1168 C1167 1.362 . S
C1168 C1171 1.409 . S
C1169 H1161 0.930 . S
C1169 C1170 1.355 . S
C1169 C1171 1.415 . S
C1170 C1169 1.355 . S
C1170 C1172 1.419 . S
C1171 C1166 1.425 . S
C1171 C1168 1.409 . S
C1171 C1169 1.415 . S
C1172 H1162 0.930 . S
C1172 C1170 1.419 . S
C1172 C1173 1.362 . S
C1173 H1163 0.930 . S
C1173 C1166 1.409 . S
C1173 C1172 1.362 . S
H1174 C1180 0.930 . S
H1175 C1183 0.930 . S
H1176 C1184 0.930 . S
H1177 C1185 0.930 . S
H1178 C1188 0.930 . S
H1179 C1189 0.930 . S
C1180 H1174 0.930 . S
C1180 C1181 1.355 . S
C1180 C1182 1.415 . S
C1181 C1180 1.355 . S
C1181 C1183 1.419 . S
C1182 C1180 1.415 . S
C1182 C1187 1.425 . S
C1182 C1189 1.409 . S
C1183 H1175 0.930 . S
C1183 C1181 1.419 . S
C1183 C1184 1.362 . S
C1184 H1176 0.930 . S
C1184 C1183 1.362 . S
C1184 C1187 1.409 . S
C1185 H1177 0.930 . S
C1185 C1186 1.355 . S
C1185 C1187 1.415 . S
C1186 C1185 1.355 . S
C1186 C1188 1.419 . S
C1187 C1182 1.425 . S
C1187 C1184 1.409 . S
C1187 C1185 1.415 . S
C1188 H1178 0.930 . S
C1188 C1186 1.419 . S
C1188 C1189 1.362 . S
C1189 H1179 0.930 . S
C1189 C1182 1.409 . S
C1189 C1188 1.362 . S
H1190 C1196 0.930 . S
H1191 C1199 0.930 . S
H1192 C1200 0.930 . S
H1193 C1201 0.930 . S
H1194 C1204 0.930 . S
H1195 C1205 0.930 . S
C1196 H1190 0.930 . S
C1196 C1197 1.355 . S
C1196 C1198 1.415 . S
C1197 C1196 1.355 . S
C1197 C1199 1.419 . S
C1198 C1196 1.415 . S
C1198 C1203 1.425 . S
C1198 C1205 1.409 . S
C1199 H1191 0.930 . S
C1199 C1197 1.419 . S
C1199 C1200 1.362 . S
C1200 H1192 0.930 . S
C1200 C1199 1.362 . S
C1200 C1203 1.409 . S
C1201 H1193 0.930 . S
C1201 C1202 1.355 . S
C1201 C1203 1.415 . S
C1202 C1201 1.355 . S
C1202 C1204 1.419 . S
C1203 C1198 1.425 . S
C1203 C1200 1.409 . S
C1203 C1201 1.415 . S
C1204 H1194 0.930 . S
C1204 C1202 1.419 . S
C1204 C1205 1.362 . S
C1205 H1195 0.930 . S
C1205 C1198 1.409 . S
C1205 C1204 1.362 . S
H1206 C1212 0.930 . S
H1207 C1215 0.930 . S
H1208 C1216 0.930 . S
H1209 C1217 0.930 . S
H1210 C1220 0.930 . S
H1211 C1221 0.930 . S
C1212 H1206 0.930 . S
C1212 C1213 1.355 . S
C1212 C1214 1.415 . S
C1213 C1212 1.355 . S
C1213 C1215 1.419 . S
C1214 C1212 1.415 . S
C1214 C1219 1.425 . S
C1214 C1221 1.409 . S
C1215 H1207 0.930 . S
C1215 C1213 1.419 . S
C1215 C1216 1.362 . S
C1216 H1208 0.930 . S
C1216 C1215 1.362 . S
C1216 C1219 1.409 . S
C1217 H1209 0.930 . S
C1217 C1218 1.355 . S
C1217 C1219 1.415 . S
C1218 C1217 1.355 . S
C1218 C1220 1.419 . S
C1219 C1214 1.425 . S
C1219 C1216 1.409 . S
C1219 C1217 1.415 . S
C1220 H1210 0.930 . S
C1220 C1218 1.419 . S
C1220 C1221 1.362 . S
C1221 H1211 0.930 . S
C1221 C1214 1.409 . S
C1221 C1220 1.362 . S
H1222 C1228 0.930 . S
H1223 C1231 0.930 . S
H1224 C1232 0.930 . S
H1225 C1233 0.930 . S
H1226 C1236 0.930 . S
H1227 C1237 0.930 . S
C1228 H1222 0.930 . S
C1228 C1229 1.355 . S
C1228 C1230 1.415 . S
C1229 C1228 1.355 . S
C1229 C1231 1.419 . S
C1230 C1228 1.415 . S
C1230 C1235 1.425 . S
C1230 C1237 1.409 . S
C1231 H1223 0.930 . S
C1231 C1229 1.419 . S
C1231 C1232 1.362 . S
C1232 H1224 0.930 . S
C1232 C1231 1.362 . S
C1232 C1235 1.409 . S
C1233 H1225 0.930 . S
C1233 C1234 1.355 . S
C1233 C1235 1.415 . S
C1234 C1233 1.355 . S
C1234 C1236 1.419 . S
C1235 C1230 1.425 . S
C1235 C1232 1.409 . S
C1235 C1233 1.415 . S
C1236 H1226 0.930 . S
C1236 C1234 1.419 . S
C1236 C1237 1.362 . S
C1237 H1227 0.930 . S
C1237 C1230 1.409 . S
C1237 C1236 1.362 . S
H1238 C1244 0.930 . S
H1239 C1247 0.930 . S
H1240 C1248 0.930 . S
H1241 C1249 0.930 . S
H1242 C1252 0.930 . S
H1243 C1253 0.930 . S
C1244 H1238 0.930 . S
C1244 C1245 1.355 . S
C1244 C1246 1.415 . S
C1245 C1244 1.355 . S
C1245 C1247 1.419 . S
C1246 C1244 1.415 . S
C1246 C1251 1.425 . S
C1246 C1253 1.409 . S
C1247 H1239 0.930 . S
C1247 C1245 1.419 . S
C1247 C1248 1.362 . S
C1248 H1240 0.930 . S
C1248 C1247 1.362 . S
C1248 C1251 1.409 . S
C1249 H1241 0.930 . S
C1249 C1250 1.355 . S
C1249 C1251 1.415 . S
C1250 C1249 1.355 . S
C1250 C1252 1.419 . S
C1251 C1246 1.425 . S
C1251 C1248 1.409 . S
C1251 C1249 1.415 . S
C1252 H1242 0.930 . S
C1252 C1250 1.419 . S
C1252 C1253 1.362 . S
C1253 H1243 0.930 . S
C1253 C1246 1.409 . S
C1253 C1252 1.362 . S
H1254 C1260 0.930 . S
H1255 C1263 0.930 . S
H1256 C1264 0.930 . S
H1257 C1265 0.930 . S
H1258 C1268 0.930 . S
H1259 C1269 0.930 . S
C1260 H1254 0.930 . S
C1260 C1261 1.355 . S
C1260 C1262 1.415 . S
C1261 C1260 1.355 . S
C1261 C1263 1.419 . S
C1262 C1260 1.415 . S
C1262 C1267 1.425 . S
C1262 C1269 1.409 . S
C1263 H1255 0.930 . S
C1263 C1261 1.419 . S
C1263 C1264 1.362 . S
C1264 H1256 0.930 . S
C1264 C1263 1.362 . S
C1264 C1267 1.409 . S
C1265 H1257 0.930 . S
C1265 C1266 1.355 . S
C1265 C1267 1.415 . S
C1266 C1265 1.355 . S
C1266 C1268 1.419 . S
C1267 C1262 1.425 . S
C1267 C1264 1.409 . S
C1267 C1265 1.415 . S
C1268 H1258 0.930 . S
C1268 C1266 1.419 . S
C1268 C1269 1.362 . S
C1269 H1259 0.930 . S
C1269 C1262 1.409 . S
C1269 C1268 1.362 . S
H1270 C1276 0.930 . S
H1271 C1279 0.930 1_554 S
H1272 C1280 0.930 . S
H1273 C1281 0.930 . S
H1274 C1284 0.930 . S
H1275 C1285 0.930 . S
C1276 H1270 0.930 . S
C1276 C1277 1.355 . S
C1276 C1278 1.415 . S
C1277 C1276 1.355 . S
C1277 C1279 1.419 . S
C1278 C1276 1.415 . S
C1278 C1283 1.425 . S
C1278 C1285 1.409 . S
C1279 H1271 0.930 1_556 S
C1279 C1277 1.419 . S
C1279 C1280 1.362 . S
C1280 H1272 0.930 . S
C1280 C1279 1.362 . S
C1280 C1283 1.409 . S
C1281 H1273 0.930 . S
C1281 C1282 1.355 . S
C1281 C1283 1.415 . S
C1282 C1281 1.355 . S
C1282 C1284 1.419 . S
C1283 C1278 1.425 . S
C1283 C1280 1.409 . S
C1283 C1281 1.415 . S
C1284 H1274 0.930 . S
C1284 C1282 1.419 . S
C1284 C1285 1.362 . S
C1285 H1275 0.930 . S
C1285 C1278 1.409 . S
C1285 C1284 1.362 . S
H1286 C1292 0.930 . S
H1287 C1295 0.930 . S
H1288 C1296 0.930 . S
H1289 C1297 0.930 . S
H1290 C1300 0.930 . S
H1291 C1301 0.930 . S
C1292 H1286 0.930 . S
C1292 C1293 1.355 . S
C1292 C1294 1.415 . S
C1293 C1292 1.355 . S
C1293 C1295 1.419 . S
C1294 C1292 1.415 . S
C1294 C1299 1.425 . S
C1294 C1301 1.409 . S
C1295 H1287 0.930 . S
C1295 C1293 1.419 . S
C1295 C1296 1.362 . S
C1296 H1288 0.930 . S
C1296 C1295 1.362 . S
C1296 C1299 1.409 . S
C1297 H1289 0.930 . S
C1297 C1298 1.355 . S
C1297 C1299 1.415 . S
C1298 C1297 1.355 . S
C1298 C1300 1.419 . S
C1299 C1294 1.425 . S
C1299 C1296 1.409 . S
C1299 C1297 1.415 . S
C1300 H1290 0.930 . S
C1300 C1298 1.419 . S
C1300 C1301 1.362 . S
C1301 H1291 0.930 . S
C1301 C1294 1.409 . S
C1301 C1300 1.362 . S
H1302 C1308 0.930 . S
H1303 C1311 0.930 . S
H1304 C1312 0.930 . S
H1305 C1313 0.930 . S
H1306 C1316 0.930 . S
H1307 C1317 0.930 . S
C1308 H1302 0.930 . S
C1308 C1309 1.355 . S
C1308 C1310 1.415 . S
C1309 C1308 1.355 . S
C1309 C1311 1.419 . S
C1310 C1308 1.415 . S
C1310 C1315 1.425 . S
C1310 C1317 1.409 . S
C1311 H1303 0.930 . S
C1311 C1309 1.419 . S
C1311 C1312 1.362 . S
C1312 H1304 0.930 . S
C1312 C1311 1.362 . S
C1312 C1315 1.409 . S
C1313 H1305 0.930 . S
C1313 C1314 1.355 . S
C1313 C1315 1.415 . S
C1314 C1313 1.355 . S
C1314 C1316 1.419 . S
C1315 C1310 1.425 . S
C1315 C1312 1.409 . S
C1315 C1313 1.415 . S
C1316 H1306 0.930 . S
C1316 C1314 1.419 . S
C1316 C1317 1.362 . S
C1317 H1307 0.930 . S
C1317 C1310 1.409 . S
C1317 C1316 1.362 . S
H1318 C1324 0.930 . S
H1319 C1327 0.930 . S
H1320 C1328 0.930 . S
H1321 C1329 0.930 . S
H1322 C1332 0.930 . S
H1323 C1333 0.930 . S
C1324 H1318 0.930 . S
C1324 C1325 1.355 . S
C1324 C1326 1.415 . S
C1325 C1324 1.355 . S
C1325 C1327 1.419 . S
C1326 C1324 1.415 . S
C1326 C1331 1.425 . S
C1326 C1333 1.409 . S
C1327 H1319 0.930 . S
C1327 C1325 1.419 . S
C1327 C1328 1.362 . S
C1328 H1320 0.930 . S
C1328 C1327 1.362 . S
C1328 C1331 1.409 . S
C1329 H1321 0.930 . S
C1329 C1330 1.355 . S
C1329 C1331 1.415 . S
C1330 C1329 1.355 . S
C1330 C1332 1.419 . S
C1331 C1326 1.425 . S
C1331 C1328 1.409 . S
C1331 C1329 1.415 . S
C1332 H1322 0.930 . S
C1332 C1330 1.419 . S
C1332 C1333 1.362 . S
C1333 H1323 0.930 . S
C1333 C1326 1.409 . S
C1333 C1332 1.362 . S
H1334 C1340 0.930 . S
H1335 C1343 0.930 . S
H1336 C1344 0.930 . S
H1337 C1345 0.930 . S
H1338 C1348 0.930 . S
H1339 C1349 0.930 . S
C1340 H1334 0.930 . S
C1340 C1341 1.355 . S
C1340 C1342 1.415 . S
C1341 C1340 1.355 . S
C1341 C1343 1.419 . S
C1342 C1340 1.415 . S
C1342 C1347 1.425 . S
C1342 C1349 1.409 . S
C1343 H1335 0.930 . S
C1343 C1341 1.419 . S
C1343 C1344 1.362 . S
C1344 H1336 0.930 . S
C1344 C1343 1.362 . S
C1344 C1347 1.409 . S
C1345 H1337 0.930 . S
C1345 C1346 1.355 . S
C1345 C1347 1.415 . S
C1346 C1345 1.355 . S
C1346 C1348 1.419 . S
C1347 C1342 1.425 . S
C1347 C1344 1.409 . S
C1347 C1345 1.415 . S
C1348 H1338 0.930 . S
C1348 C1346 1.419 . S
C1348 C1349 1.362 . S
C1349 H1339 0.930 . S
C1349 C1342 1.409 . S
C1349 C1348 1.362 . S
H1350 C1356 0.930 . S
H1351 C1359 0.930 . S
H1352 C1360 0.930 . S
H1353 C1361 0.930 . S
H1354 C1364 0.930 . S
H1355 C1365 0.930 . S
C1356 H1350 0.930 . S
C1356 C1357 1.355 . S
C1356 C1358 1.415 . S
C1357 C1356 1.355 . S
C1357 C1359 1.419 . S
C1358 C1356 1.415 . S
C1358 C1363 1.425 . S
C1358 C1365 1.409 . S
C1359 H1351 0.930 . S
C1359 C1357 1.419 . S
C1359 C1360 1.362 . S
C1360 H1352 0.930 . S
C1360 C1359 1.362 . S
C1360 C1363 1.409 . S
C1361 H1353 0.930 . S
C1361 C1362 1.355 . S
C1361 C1363 1.415 . S
C1362 C1361 1.355 . S
C1362 C1364 1.419 . S
C1363 C1358 1.425 . S
C1363 C1360 1.409 . S
C1363 C1361 1.415 . S
C1364 H1354 0.930 . S
C1364 C1362 1.419 . S
C1364 C1365 1.362 . S
C1365 H1355 0.930 . S
C1365 C1358 1.409 . S
C1365 C1364 1.362 . S
H1366 C1372 0.930 . S
H1367 C1375 0.930 . S
H1368 C1376 0.930 . S
H1369 C1377 0.930 . S
H1370 C1380 0.930 . S
H1371 C1381 0.930 . S
C1372 H1366 0.930 . S
C1372 C1373 1.355 . S
C1372 C1374 1.415 . S
C1373 C1372 1.355 . S
C1373 C1375 1.419 . S
C1374 C1372 1.415 . S
C1374 C1379 1.425 . S
C1374 C1381 1.409 . S
C1375 H1367 0.930 . S
C1375 C1373 1.419 . S
C1375 C1376 1.362 . S
C1376 H1368 0.930 . S
C1376 C1375 1.362 . S
C1376 C1379 1.409 . S
C1377 H1369 0.930 . S
C1377 C1378 1.355 . S
C1377 C1379 1.415 . S
C1378 C1377 1.355 . S
C1378 C1380 1.419 . S
C1379 C1374 1.425 . S
C1379 C1376 1.409 . S
C1379 C1377 1.415 . S
C1380 H1370 0.930 . S
C1380 C1378 1.419 . S
C1380 C1381 1.362 . S
C1381 H1371 0.930 . S
C1381 C1374 1.409 . S
C1381 C1380 1.362 . S
H1382 C1388 0.930 . S
H1383 C1391 0.930 . S
H1384 C1392 0.930 . S
H1385 C1393 0.930 . S
H1386 C1396 0.930 . S
H1387 C1397 0.930 . S
C1388 H1382 0.930 . S
C1388 C1389 1.355 . S
C1388 C1390 1.415 . S
C1389 C1388 1.355 . S
C1389 C1391 1.419 . S
C1390 C1388 1.415 . S
C1390 C1395 1.425 . S
C1390 C1397 1.409 . S
C1391 H1383 0.930 . S
C1391 C1389 1.419 . S
C1391 C1392 1.362 . S
C1392 H1384 0.930 . S
C1392 C1391 1.362 . S
C1392 C1395 1.409 . S
C1393 H1385 0.930 . S
C1393 C1394 1.355 . S
C1393 C1395 1.415 . S
C1394 C1393 1.355 . S
C1394 C1396 1.419 . S
C1395 C1390 1.425 . S
C1395 C1392 1.409 . S
C1395 C1393 1.415 . S
C1396 H1386 0.930 . S
C1396 C1394 1.419 . S
C1396 C1397 1.362 . S
C1397 H1387 0.930 . S
C1397 C1390 1.409 . S
C1397 C1396 1.362 . S
H1398 C1404 0.930 . S
H1399 C1407 0.930 . S
H1400 C1408 0.930 . S
H1401 C1409 0.930 . S
H1402 C1412 0.930 . S
H1403 C1413 0.930 . S
C1404 H1398 0.930 . S
C1404 C1405 1.355 . S
C1404 C1406 1.415 . S
C1405 C1404 1.355 . S
C1405 C1407 1.419 . S
C1406 C1404 1.415 . S
C1406 C1411 1.425 . S
C1406 C1413 1.409 . S
C1407 H1399 0.930 . S
C1407 C1405 1.419 . S
C1407 C1408 1.362 . S
C1408 H1400 0.930 . S
C1408 C1407 1.362 . S
C1408 C1411 1.409 . S
C1409 H1401 0.930 . S
C1409 C1410 1.355 . S
C1409 C1411 1.415 . S
C1410 C1409 1.355 . S
C1410 C1412 1.419 . S
C1411 C1406 1.425 . S
C1411 C1408 1.409 . S
C1411 C1409 1.415 . S
C1412 H1402 0.930 . S
C1412 C1410 1.419 . S
C1412 C1413 1.362 . S
C1413 H1403 0.930 . S
C1413 C1406 1.409 . S
C1413 C1412 1.362 . S
H1414 C1420 0.930 . S
H1415 C1423 0.930 . S
H1416 C1424 0.930 . S
H1417 C1425 0.930 . S
H1418 C1428 0.930 . S
H1419 C1429 0.930 . S
C1420 H1414 0.930 . S
C1420 C1421 1.355 . S
C1420 C1422 1.415 . S
C1421 C1420 1.355 . S
C1421 C1423 1.419 . S
C1422 C1420 1.415 . S
C1422 C1427 1.425 . S
C1422 C1429 1.409 . S
C1423 H1415 0.930 . S
C1423 C1421 1.419 . S
C1423 C1424 1.362 . S
C1424 H1416 0.930 . S
C1424 C1423 1.362 . S
C1424 C1427 1.409 . S
C1425 H1417 0.930 . S
C1425 C1426 1.355 . S
C1425 C1427 1.415 . S
C1426 C1425 1.355 . S
C1426 C1428 1.419 . S
C1427 C1422 1.425 . S
C1427 C1424 1.409 . S
C1427 C1425 1.415 . S
C1428 H1418 0.930 . S
C1428 C1426 1.419 . S
C1428 C1429 1.362 . S
C1429 H1419 0.930 . S
C1429 C1422 1.409 . S
C1429 C1428 1.362 . S
H1430 C1436 0.930 . S
H1431 C1439 0.930 . S
H1432 C1440 0.930 . S
H1433 C1441 0.930 . S
H1434 C1444 0.930 . S
H1435 C1445 0.930 . S
C1436 H1430 0.930 . S
C1436 C1437 1.355 . S
C1436 C1438 1.415 . S
C1437 C1436 1.355 . S
C1437 C1439 1.419 . S
C1438 C1436 1.415 . S
C1438 C1443 1.425 . S
C1438 C1445 1.409 . S
C1439 H1431 0.930 . S
C1439 C1437 1.419 . S
C1439 C1440 1.362 . S
C1440 H1432 0.930 . S
C1440 C1439 1.362 . S
C1440 C1443 1.409 . S
C1441 H1433 0.930 . S
C1441 C1442 1.355 . S
C1441 C1443 1.415 . S
C1442 C1441 1.355 . S
C1442 C1444 1.419 . S
C1443 C1438 1.425 . S
C1443 C1440 1.409 . S
C1443 C1441 1.415 . S
C1444 H1434 0.930 . S
C1444 C1442 1.419 . S
C1444 C1445 1.362 . S
C1445 H1435 0.930 . S
C1445 C1438 1.409 . S
C1445 C1444 1.362 . S
H1446 C1452 0.930 1_655 S
H1447 C1455 0.930 . S
H1448 C1456 0.930 . S
H1449 C1457 0.930 . S
H1450 C1460 0.930 . S
H1451 C1461 0.930 . S
C1452 H1446 0.930 1_455 S
C1452 C1453 1.355 . S
C1452 C1454 1.415 . S
C1453 C1452 1.355 . S
C1453 C1455 1.419 . S
C1454 C1452 1.415 . S
C1454 C1459 1.425 . S
C1454 C1461 1.409 1_455 S
C1455 H1447 0.930 . S
C1455 C1453 1.419 . S
C1455 C1456 1.362 . S
C1456 H1448 0.930 . S
C1456 C1455 1.362 . S
C1456 C1459 1.409 . S
C1457 H1449 0.930 . S
C1457 C1458 1.355 . S
C1457 C1459 1.415 . S
C1458 C1457 1.355 . S
C1458 C1460 1.419 1_455 S
C1459 C1454 1.425 . S
C1459 C1456 1.409 . S
C1459 C1457 1.415 . S
C1460 H1450 0.930 . S
C1460 C1458 1.419 1_655 S
C1460 C1461 1.362 . S
C1461 H1451 0.930 . S
C1461 C1454 1.409 1_655 S
C1461 C1460 1.362 . S
H1462 C1468 0.930 . S
H1463 C1471 0.930 . S
H1464 C1472 0.930 . S
H1465 C1473 0.930 . S
H1466 C1476 0.930 . S
H1467 C1477 0.930 . S
C1468 H1462 0.930 . S
C1468 C1469 1.355 . S
C1468 C1470 1.415 . S
C1469 C1468 1.355 . S
C1469 C1471 1.419 . S
C1470 C1468 1.415 . S
C1470 C1475 1.425 . S
C1470 C1477 1.409 . S
C1471 H1463 0.930 . S
C1471 C1469 1.419 . S
C1471 C1472 1.362 . S
C1472 H1464 0.930 . S
C1472 C1471 1.362 . S
C1472 C1475 1.409 . S
C1473 H1465 0.930 . S
C1473 C1474 1.355 . S
C1473 C1475 1.415 . S
C1474 C1473 1.355 . S
C1474 C1476 1.419 . S
C1475 C1470 1.425 . S
C1475 C1472 1.409 . S
C1475 C1473 1.415 . S
C1476 H1466 0.930 . S
C1476 C1474 1.419 . S
C1476 C1477 1.362 . S
C1477 H1467 0.930 . S
C1477 C1470 1.409 . S
C1477 C1476 1.362 . S
H1478 C1484 0.930 . S
H1479 C1487 0.917 1_545 S
H1480 C1488 0.930 . S
H1481 C1489 0.918 1_545 S
H1482 C1492 0.930 . S
H1483 C1493 0.930 . S
C1484 H1478 0.930 . S
C1484 C1485 1.355 . S
C1484 C1486 1.415 . S
C1485 C1484 1.355 . S
C1485 C1487 1.419 . S
C1486 C1484 1.415 . S
C1486 C1491 1.425 . S
C1486 C1493 1.409 . S
C1487 H1479 0.917 1_565 S
C1487 C1485 1.419 . S
C1487 C1488 1.362 1_565 S
C1488 H1480 0.930 . S
C1488 C1487 1.362 1_545 S
C1488 C1491 1.409 1_545 S
C1489 H1481 0.918 1_565 S
C1489 C1490 1.355 . S
C1489 C1491 1.415 . S
C1490 C1489 1.355 . S
C1490 C1492 1.419 . S
C1491 C1486 1.425 . S
C1491 C1488 1.409 1_565 S
C1491 C1489 1.415 . S
C1492 H1482 0.930 . S
C1492 C1490 1.419 . S
C1492 C1493 1.362 . S
C1493 H1483 0.930 . S
C1493 C1486 1.409 . S
C1493 C1492 1.362 . S
H1494 C1500 0.930 . S
H1495 C1503 0.930 . S
H1496 C1504 0.930 . S
H1497 C1505 0.930 . S
H1498 C1508 0.930 . S
H1499 C1509 0.930 . S
C1500 H1494 0.930 . S
C1500 C1501 1.355 1_545 S
C1500 C1502 1.415 . S
C1501 C1500 1.355 1_565 S
C1501 C1503 1.419 . S
C1502 C1500 1.415 . S
C1502 C1507 1.425 1_545 S
C1502 C1509 1.409 . S
C1503 H1495 0.930 . S
C1503 C1501 1.419 . S
C1503 C1504 1.362 . S
C1504 H1496 0.930 . S
C1504 C1503 1.362 . S
C1504 C1507 1.409 . S
C1505 H1497 0.930 . S
C1505 C1506 1.357 1_565 S
C1505 C1507 1.415 . S
C1506 C1505 1.357 1_545 S
C1506 C1508 1.418 . S
C1507 C1502 1.425 1_565 S
C1507 C1504 1.409 . S
C1507 C1505 1.415 . S
C1508 H1498 0.930 . S
C1508 C1506 1.418 . S
C1508 C1509 1.362 . S
C1509 H1499 0.930 . S
C1509 C1502 1.409 . S
C1509 C1508 1.362 . S
H1510 C1516 0.930 . S
H1511 C1519 0.930 . S
H1512 C1520 0.930 . S
H1513 C1521 0.930 . S
H1514 C1524 0.930 . S
H1515 C1525 0.930 . S
C1516 H1510 0.930 . S
C1516 C1517 1.355 . S
C1516 C1518 1.415 . S
C1517 C1516 1.355 . S
C1517 C1519 1.419 1_455 S
C1518 C1516 1.415 . S
C1518 C1523 1.425 1_455 S
C1518 C1525 1.409 . S
C1519 H1511 0.930 . S
C1519 C1517 1.419 1_655 S
C1519 C1520 1.362 . S
C1520 H1512 0.930 . S
C1520 C1519 1.362 . S
C1520 C1523 1.409 . S
C1521 H1513 0.930 . S
C1521 C1522 1.355 1_655 S
C1521 C1523 1.415 . S
C1522 C1521 1.355 1_455 S
C1522 C1524 1.419 . S
C1523 C1518 1.425 1_655 S
C1523 C1520 1.409 . S
C1523 C1521 1.415 . S
C1524 H1514 0.930 . S
C1524 C1522 1.419 . S
C1524 C1525 1.362 . S
C1525 H1515 0.930 . S
C1525 C1518 1.409 . S
C1525 C1524 1.362 . S
H1526 C1532 0.930 . S
H1527 C1535 0.930 . S
H1528 C1536 0.930 . S
H1529 C1537 0.930 . S
H1530 C1540 0.930 . S
H1531 C1541 0.930 . S
C1532 H1526 0.930 . S
C1532 C1533 1.355 . S
C1532 C1534 1.415 . S
C1533 C1532 1.355 . S
C1533 C1535 1.419 . S
C1534 C1532 1.415 . S
C1534 C1539 1.425 . S
C1534 C1541 1.409 . S
C1535 H1527 0.930 . S
C1535 C1533 1.419 . S
C1535 C1536 1.362 . S
C1536 H1528 0.930 . S
C1536 C1535 1.362 . S
C1536 C1539 1.409 . S
C1537 H1529 0.930 . S
C1537 C1538 1.355 . S
C1537 C1539 1.415 . S
C1538 C1537 1.355 . S
C1538 C1540 1.419 . S
C1539 C1534 1.425 . S
C1539 C1536 1.409 . S
C1539 C1537 1.415 . S
C1540 H1530 0.930 . S
C1540 C1538 1.419 . S
C1540 C1541 1.362 . S
C1541 H1531 0.930 . S
C1541 C1534 1.409 . S
C1541 C1540 1.362 . S
H1542 C1548 0.930 . S
H1543 C1551 0.930 . S
H1544 C1552 0.930 . S
H1545 C1553 0.930 . S
H1546 C1556 0.930 . S
H1547 C1557 0.930 . S
C1548 H1542 0.930 . S
C1548 C1549 1.355 . S
C1548 C1550 1.415 . S
C1549 C1548 1.355 . S
C1549 C1551 1.419 . S
C1550 C1548 1.415 . S
C1550 C1555 1.425 . S
C1550 C1557 1.409 . S
C1551 H1543 0.930 . S
C1551 C1549 1.419 . S
C1551 C1552 1.362 . S
C1552 H1544 0.930 . S
C1552 C1551 1.362 . S
C1552 C1555 1.409 . S
C1553 H1545 0.930 . S
C1553 C1554 1.355 . S
C1553 C1555 1.415 . S
C1554 C1553 1.355 . S
C1554 C1556 1.419 . S
C1555 C1550 1.425 . S
C1555 C1552 1.409 . S
C1555 C1553 1.415 . S
C1556 H1546 0.930 . S
C1556 C1554 1.419 . S
C1556 C1557 1.362 . S
C1557 H1547 0.930 . S
C1557 C1550 1.409 . S
C1557 C1556 1.362 . S
H1558 C1564 0.930 . S
H1559 C1567 0.930 . S
H1560 C1568 0.930 . S
H1561 C1569 0.930 . S
H1562 C1572 0.930 . S
H1563 C1573 0.930 . S
C1564 H1558 0.930 . S
C1564 C1565 1.355 . S
C1564 C1566 1.415 . S
C1565 C1564 1.355 . S
C1565 C1567 1.419 . S
C1566 C1564 1.415 . S
C1566 C1571 1.425 . S
C1566 C1573 1.409 . S
C1567 H1559 0.930 . S
C1567 C1565 1.419 . S
C1567 C1568 1.362 . S
C1568 H1560 0.930 . S
C1568 C1567 1.362 . S
C1568 C1571 1.409 . S
C1569 H1561 0.930 . S
C1569 C1570 1.355 . S
C1569 C1571 1.415 . S
C1570 C1569 1.355 . S
C1570 C1572 1.419 . S
C1571 C1566 1.425 . S
C1571 C1568 1.409 . S
C1571 C1569 1.415 . S
C1572 H1562 0.930 . S
C1572 C1570 1.419 . S
C1572 C1573 1.362 . S
C1573 H1563 0.930 . S
C1573 C1566 1.409 . S
C1573 C1572 1.362 . S
H1574 C1580 0.930 . S
H1575 C1583 0.930 . S
H1576 C1584 0.930 . S
H1577 C1585 0.930 . S
H1578 C1588 0.930 . S
H1579 C1589 0.930 . S
C1580 H1574 0.930 . S
C1580 C1581 1.355 . S
C1580 C1582 1.415 . S
C1581 C1580 1.355 . S
C1581 C1583 1.419 . S
C1582 C1580 1.415 . S
C1582 C1587 1.425 . S
C1582 C1589 1.409 . S
C1583 H1575 0.930 . S
C1583 C1581 1.419 . S
C1583 C1584 1.362 . S
C1584 H1576 0.930 . S
C1584 C1583 1.362 . S
C1584 C1587 1.409 . S
C1585 H1577 0.930 . S
C1585 C1586 1.355 . S
C1585 C1587 1.415 . S
C1586 C1585 1.355 . S
C1586 C1588 1.419 . S
C1587 C1582 1.425 . S
C1587 C1584 1.409 . S
C1587 C1585 1.415 . S
C1588 H1578 0.930 . S
C1588 C1586 1.419 . S
C1588 C1589 1.362 . S
C1589 H1579 0.930 . S
C1589 C1582 1.409 . S
C1589 C1588 1.362 . S
H1590 C1596 0.930 . S
H1591 C1599 0.930 . S
H1592 C1600 0.930 . S
H1593 C1601 0.930 . S
H1594 C1604 0.930 . S
H1595 C1605 0.930 . S
C1596 H1590 0.930 . S
C1596 C1597 1.355 1_565 S
C1596 C1598 1.415 . S
C1597 C1596 1.355 1_545 S
C1597 C1599 1.419 . S
C1598 C1596 1.415 . S
C1598 C1603 1.425 1_565 S
C1598 C1605 1.409 . S
C1599 H1591 0.930 . S
C1599 C1597 1.419 . S
C1599 C1600 1.362 . S
C1600 H1592 0.930 . S
C1600 C1599 1.362 . S
C1600 C1603 1.409 . S
C1601 H1593 0.930 . S
C1601 C1602 1.355 . S
C1601 C1603 1.415 . S
C1602 C1601 1.355 . S
C1602 C1604 1.419 1_545 S
C1603 C1598 1.425 1_545 S
C1603 C1600 1.409 . S
C1603 C1601 1.415 . S
C1604 H1594 0.930 . S
C1604 C1602 1.419 1_565 S
C1604 C1605 1.362 . S
C1605 H1595 0.930 . S
C1605 C1598 1.409 . S
C1605 C1604 1.362 . S
H1606 C1612 0.930 . S
H1607 C1615 0.930 . S
H1608 C1616 0.930 . S
H1609 C1617 0.930 . S
H1610 C1620 0.930 . S
H1611 C1621 0.930 . S
C1612 H1606 0.930 . S
C1612 C1613 1.355 . S
C1612 C1614 1.415 . S
C1613 C1612 1.355 . S
C1613 C1615 1.419 . S
C1614 C1612 1.415 . S
C1614 C1619 1.425 . S
C1614 C1621 1.409 . S
C1615 H1607 0.930 . S
C1615 C1613 1.419 . S
C1615 C1616 1.362 . S
C1616 H1608 0.930 . S
C1616 C1615 1.362 . S
C1616 C1619 1.409 . S
C1617 H1609 0.930 . S
C1617 C1618 1.355 . S
C1617 C1619 1.415 . S
C1618 C1617 1.355 . S
C1618 C1620 1.419 . S
C1619 C1614 1.425 . S
C1619 C1616 1.409 . S
C1619 C1617 1.415 . S
C1620 H1610 0.930 . S
C1620 C1618 1.419 . S
C1620 C1621 1.362 . S
C1621 H1611 0.930 . S
C1621 C1614 1.409 . S
C1621 C1620 1.362 . S
H1622 C1628 0.930 . S
H1623 C1631 0.930 . S
H1624 C1632 0.930 . S
H1625 C1633 0.930 . S
H1626 C1636 0.930 . S
H1627 C1637 0.930 . S
C1628 H1622 0.930 . S
C1628 C1629 1.355 . S
C1628 C1630 1.415 . S
C1629 C1628 1.355 . S
C1629 C1631 1.419 . S
C1630 C1628 1.415 . S
C1630 C1635 1.425 . S
C1630 C1637 1.409 . S
C1631 H1623 0.930 . S
C1631 C1629 1.419 . S
C1631 C1632 1.362 . S
C1632 H1624 0.930 . S
C1632 C1631 1.362 . S
C1632 C1635 1.409 . S
C1633 H1625 0.930 . S
C1633 C1634 1.355 . S
C1633 C1635 1.415 . S
C1634 C1633 1.355 . S
C1634 C1636 1.419 . S
C1635 C1630 1.425 . S
C1635 C1632 1.409 . S
C1635 C1633 1.415 . S
C1636 H1626 0.930 . S
C1636 C1634 1.419 . S
C1636 C1637 1.362 . S
C1637 H1627 0.930 . S
C1637 C1630 1.409 . S
C1637 C1636 1.362 . S
H1638 C1644 0.930 . S
H1639 C1647 0.930 . S
H1640 C1648 0.930 . S
H1641 C1649 0.930 . S
H1642 C1652 0.930 . S
H1643 C1653 0.930 . S
C1644 H1638 0.930 . S
C1644 C1645 1.355 . S
C1644 C1646 1.415 . S
C1645 C1644 1.355 . S
C1645 C1647 1.419 . S
C1646 C1644 1.415 . S
C1646 C1651 1.425 . S
C1646 C1653 1.409 . S
C1647 H1639 0.930 . S
C1647 C1645 1.419 . S
C1647 C1648 1.362 . S
C1648 H1640 0.930 . S
C1648 C1647 1.362 . S
C1648 C1651 1.409 . S
C1649 H1641 0.930 . S
C1649 C1650 1.355 . S
C1649 C1651 1.415 . S
C1650 C1649 1.355 . S
C1650 C1652 1.419 . S
C1651 C1646 1.425 . S
C1651 C1648 1.409 . S
C1651 C1649 1.415 . S
C1652 H1642 0.930 . S
C1652 C1650 1.419 . S
C1652 C1653 1.362 . S
C1653 H1643 0.930 . S
C1653 C1646 1.409 . S
C1653 C1652 1.362 . S
H1654 C1660 0.930 . S
H1655 C1663 0.930 . S
H1656 C1664 0.930 . S
H1657 C1665 0.930 . S
H1658 C1668 0.930 . S
H1659 C1669 0.930 . S
C1660 H1654 0.930 . S
C1660 C1661 1.355 . S
C1660 C1662 1.415 . S
C1661 C1660 1.355 . S
C1661 C1663 1.419 . S
C1662 C1660 1.415 . S
C1662 C1667 1.425 . S
C1662 C1669 1.409 . S
C1663 H1655 0.930 . S
C1663 C1661 1.419 . S
C1663 C1664 1.362 . S
C1664 H1656 0.930 . S
C1664 C1663 1.362 . S
C1664 C1667 1.409 . S
C1665 H1657 0.930 . S
C1665 C1666 1.355 . S
C1665 C1667 1.415 . S
C1666 C1665 1.355 . S
C1666 C1668 1.419 . S
C1667 C1662 1.425 . S
C1667 C1664 1.409 . S
C1667 C1665 1.415 . S
C1668 H1658 0.930 . S
C1668 C1666 1.419 . S
C1668 C1669 1.362 . S
C1669 H1659 0.930 . S
C1669 C1662 1.409 . S
C1669 C1668 1.362 . S
H1670 C1676 0.930 . S
H1671 C1679 0.930 . S
H1672 C1680 0.930 . S
H1673 C1681 0.930 . S
H1674 C1684 0.930 . S
H1675 C1685 0.930 . S
C1676 H1670 0.930 . S
C1676 C1677 1.355 . S
C1676 C1678 1.415 . S
C1677 C1676 1.355 . S
C1677 C1679 1.419 . S
C1678 C1676 1.415 . S
C1678 C1683 1.425 . S
C1678 C1685 1.409 . S
C1679 H1671 0.930 . S
C1679 C1677 1.419 . S
C1679 C1680 1.362 . S
C1680 H1672 0.930 . S
C1680 C1679 1.362 . S
C1680 C1683 1.409 . S
C1681 H1673 0.930 . S
C1681 C1682 1.355 . S
C1681 C1683 1.415 . S
C1682 C1681 1.355 . S
C1682 C1684 1.419 . S
C1683 C1678 1.425 . S
C1683 C1680 1.409 . S
C1683 C1681 1.415 . S
C1684 H1674 0.930 . S
C1684 C1682 1.419 . S
C1684 C1685 1.362 . S
C1685 H1675 0.930 . S
C1685 C1678 1.409 . S
C1685 C1684 1.362 . S
H1686 C1692 0.930 . S
H1687 C1695 0.930 . S
H1688 C1696 0.930 . S
H1689 C1697 0.930 . S
H1690 C1700 0.930 . S
H1691 C1701 0.930 . S
C1692 H1686 0.930 . S
C1692 C1693 1.355 . S
C1692 C1694 1.415 . S
C1693 C1692 1.355 . S
C1693 C1695 1.419 . S
C1694 C1692 1.415 . S
C1694 C1699 1.425 . S
C1694 C1701 1.409 . S
C1695 H1687 0.930 . S
C1695 C1693 1.419 . S
C1695 C1696 1.362 . S
C1696 H1688 0.930 . S
C1696 C1695 1.362 . S
C1696 C1699 1.409 . S
C1697 H1689 0.930 . S
C1697 C1698 1.355 . S
C1697 C1699 1.415 . S
C1698 C1697 1.355 . S
C1698 C1700 1.419 . S
C1699 C1694 1.425 . S
C1699 C1696 1.409 . S
C1699 C1697 1.415 . S
C1700 H1690 0.930 . S
C1700 C1698 1.419 . S
C1700 C1701 1.362 . S
C1701 H1691 0.930 . S
C1701 C1694 1.409 . S
C1701 C1700 1.362 . S
H1702 C1708 0.930 . S
H1703 C1711 0.930 . S
H1704 C1712 0.930 . S
H1705 C1713 0.930 . S
H1706 C1716 0.930 . S
H1707 C1717 0.930 . S
C1708 H1702 0.930 . S
C1708 C1709 1.355 . S
C1708 C1710 1.415 . S
C1709 C1708 1.355 . S
C1709 C1711 1.419 . S
C1710 C1708 1.415 . S
C1710 C1715 1.425 . S
C1710 C1717 1.409 . S
C1711 H1703 0.930 . S
C1711 C1709 1.419 . S
C1711 C1712 1.362 . S
C1712 H1704 0.930 . S
C1712 C1711 1.362 . S
C1712 C1715 1.409 . S
C1713 H1705 0.930 . S
C1713 C1714 1.355 . S
C1713 C1715 1.415 . S
C1714 C1713 1.355 . S
C1714 C1716 1.419 . S
C1715 C1710 1.425 . S
C1715 C1712 1.409 . S
C1715 C1713 1.415 . S
C1716 H1706 0.930 . S
C1716 C1714 1.419 . S
C1716 C1717 1.362 . S
C1717 H1707 0.930 . S
C1717 C1710 1.409 . S
C1717 C1716 1.362 . S
H1718 C1724 0.930 . S
H1719 C1727 0.930 . S
H1720 C1728 0.930 . S
H1721 C1729 0.930 . S
H1722 C1732 0.930 . S
H1723 C1733 0.930 . S
C1724 H1718 0.930 . S
C1724 C1725 1.355 . S
C1724 C1726 1.415 . S
C1725 C1724 1.355 . S
C1725 C1727 1.419 . S
C1726 C1724 1.415 . S
C1726 C1731 1.425 . S
C1726 C1733 1.409 . S
C1727 H1719 0.930 . S
C1727 C1725 1.419 . S
C1727 C1728 1.362 . S
C1728 H1720 0.930 . S
C1728 C1727 1.362 . S
C1728 C1731 1.409 . S
C1729 H1721 0.930 . S
C1729 C1730 1.355 . S
C1729 C1731 1.415 . S
C1730 C1729 1.355 . S
C1730 C1732 1.419 . S
C1731 C1726 1.425 . S
C1731 C1728 1.409 . S
C1731 C1729 1.415 . S
C1732 H1722 0.930 . S
C1732 C1730 1.419 . S
C1732 C1733 1.362 . S
C1733 H1723 0.930 . S
C1733 C1726 1.409 . S
C1733 C1732 1.362 . S
H1734 C1740 0.918 1_455 S
H1735 C1743 0.930 . S
H1736 C1744 0.930 . S
H1737 C1745 0.930 . S
H1738 C1748 0.930 . S
H1739 C1749 0.930 . S
C1740 H1734 0.918 1_655 S
C1740 C1741 1.378 . S
C1740 C1742 1.405 1_655 S
C1741 C1740 1.378 . S
C1741 C1743 1.419 . S
C1742 C1740 1.405 1_455 S
C1742 C1747 1.428 1_455 S
C1742 C1749 1.405 . S
C1743 H1735 0.930 . S
C1743 C1741 1.419 . S
C1743 C1744 1.362 . S
C1744 H1736 0.930 . S
C1744 C1743 1.362 . S
C1744 C1747 1.409 . S
C1745 H1737 0.930 . S
C1745 C1746 1.365 . S
C1745 C1747 1.415 . S
C1746 C1745 1.365 . S
C1746 C1748 1.414 1_655 S
C1747 C1742 1.428 1_655 S
C1747 C1744 1.409 . S
C1747 C1745 1.415 . S
C1748 H1738 0.930 . S
C1748 C1746 1.414 1_455 S
C1748 C1749 1.362 . S
C1749 H1739 0.930 . S
C1749 C1742 1.405 . S
C1749 C1748 1.362 . S
H1750 C1756 0.930 . S
H1751 C1759 0.930 . S
H1752 C1760 0.930 . S
H1753 C1761 0.930 . S
H1754 C1764 0.930 . S
H1755 C1765 0.930 . S
C1756 H1750 0.930 . S
C1756 C1757 1.355 . S
C1756 C1758 1.415 . S
C1757 C1756 1.355 . S
C1757 C1759 1.419 . S
C1758 C1756 1.415 . S
C1758 C1763 1.425 . S
C1758 C1765 1.409 . S
C1759 H1751 0.930 . S
C1759 C1757 1.419 . S
C1759 C1760 1.362 . S
C1760 H1752 0.930 . S
C1760 C1759 1.362 . S
C1760 C1763 1.409 . S
C1761 H1753 0.930 . S
C1761 C1762 1.355 . S
C1761 C1763 1.415 . S
C1762 C1761 1.355 . S
C1762 C1764 1.419 . S
C1763 C1758 1.425 . S
C1763 C1760 1.409 . S
C1763 C1761 1.415 . S
C1764 H1754 0.930 . S
C1764 C1762 1.419 . S
C1764 C1765 1.362 . S
C1765 H1755 0.930 . S
C1765 C1758 1.409 . S
C1765 C1764 1.362 . S
H1766 C1772 0.930 . S
H1767 C1775 0.930 . S
H1768 C1776 0.930 . S
H1769 C1777 0.930 . S
H1770 C1780 0.930 . S
H1771 C1781 0.930 . S
C1772 H1766 0.930 . S
C1772 C1773 1.355 1_565 S
C1772 C1774 1.415 . S
C1773 C1772 1.355 1_545 S
C1773 C1775 1.419 . S
C1774 C1772 1.415 . S
C1774 C1779 1.425 1_565 S
C1774 C1781 1.409 . S
C1775 H1767 0.930 . S
C1775 C1773 1.419 . S
C1775 C1776 1.362 . S
C1776 H1768 0.930 . S
C1776 C1775 1.362 . S
C1776 C1779 1.409 . S
C1777 H1769 0.930 . S
C1777 C1778 1.378 . S
C1777 C1779 1.415 . S
C1778 C1777 1.378 . S
C1778 C1780 1.368 1_545 S
C1779 C1774 1.425 1_545 S
C1779 C1776 1.409 . S
C1779 C1777 1.415 . S
C1780 H1770 0.930 . S
C1780 C1778 1.368 1_565 S
C1780 C1781 1.362 . S
C1781 H1771 0.930 . S
C1781 C1774 1.409 . S
C1781 C1780 1.362 . S
C637 C8 1.552 . S
C642 C458 1.514 1_655 S
C653 C22 1.558 . S
C658 C471 1.517 . S
C674 C500 1.413 1_545 S
C669 C37 1.524 . S
C685 C36 1.512 . S
C690 C513 1.485 . S
C701 C9 1.520 . S
C706 C534 1.479 . S
C717 C23 1.521 . S
C722 C563 1.489 . S
C733 C50 1.516 1_455 S
C738 C542 1.492 1_655 S
C754 C555 1.473 . S
C749 C64 1.549 . S
C770 C521 1.529 1_545 S
C765 C79 1.539 . S
C781 C78 1.543 1_545 S
C786 C492 1.452 . S
C802 C450 1.463 . S
C797 C51 1.560 1_655 S
C813 C65 1.539 . S
C818 C479 1.523 . S
C829 C92 1.568 . S
C834 C584 1.455 . S
C845 C106 1.560 . S
C850 C597 1.533 . S
C866 C626 1.500 . S
C861 C121 1.545 . S
C877 C120 1.553 . S
C882 C261 1.525 . S
C893 C93 1.563 . S
C898 C282 1.530 . S
C909 C107 1.560 . S
C914 C311 1.445 . S
C925 C134 1.525 . S
C930 C290 1.505 . S
C941 C148 1.547 . S
C946 C303 1.451 . S
C962 C269 1.517 . S
C957 C163 1.546 . S
C978 C618 1.452 . S
C973 C162 1.543 . S
C994 C576 1.470 . S
C989 C135 1.553 . S
C1010 C605 1.488 . S
C1005 C149 1.546 . S
C1021 C176 1.537 . S
C1026 C332 1.522 . S
C1037 C190 1.553 . S
C1042 C345 1.501 . S
C1053 C205 1.558 . S
C1058 C374 1.454 . S
C1069 C204 1.536 . S
C1074 C387 1.531 . S
C1090 C408 1.492 . S
C1085 C177 1.549 . S
C1106 C437 1.517 . S
C1101 C191 1.533 . S
C1122 C416 1.522 . S
C1117 C218 1.557 . S
C1138 C429 1.483 . S
C1133 C232 1.507 . S
C1149 C247 1.519 . S
C1154 C395 1.450 . S
C1170 C366 1.509 . S
C1165 C246 1.501 . S
C1181 C219 1.528 . S
C1186 C324 1.453 . S
C1202 C353 1.518 . S
C1197 C233 1.532 . S
C1218 C264 1.450 . S
C1213 C6 1.506 . S
C1229 C20 1.469 . S
C1234 C285 1.363 . S
C1250 C313 1.411 . S
C1245 C35 1.497 . S
C1266 C334 1.394 . S
C1261 C34 1.483 . S
C1282 C348 1.360 . S
C1277 C7 1.467 . S
C1298 C376 1.383 . S
C1293 C21 1.488 . S
C1309 C48 1.466 . S
C1314 C369 1.358 . S
C1325 C62 1.480 . S
C1330 C327 1.435 . S
C1341 C77 1.503 . S
C1346 C355 1.459 . S
C1357 C76 1.493 . S
C1362 C292 1.467 . S
C1378 C306 1.436 . S
C1373 C49 1.486 . S
C1389 C63 1.468 . S
C1394 C271 1.389 . S
C1410 C390 1.437 . S
C1405 C90 1.485 . S
C1421 C104 1.495 . S
C1426 C411 1.442 . S
C1437 C119 1.450 . S
C1442 C439 1.376 . S
C1458 C460 1.455 . S
C1453 C118 1.467 . S
C1469 C91 1.491 . S
C1474 C474 1.443 . S
C1485 C105 1.494 . S
C1490 C502 1.446 . S
C1501 C132 1.465 . S
C1506 C495 1.433 1_545 S
C1517 C146 1.504 . S
C1522 C453 1.388 . S
C1538 C481 1.446 . S
C1533 C161 1.466 . S
C1549 C160 1.496 . S
C1554 C418 1.457 . S
C1565 C133 1.503 . S
C1570 C432 1.408 . S
C1586 C397 1.429 . S
C1581 C147 1.497 . S
C1602 C516 1.421 1_545 S
C1597 C174 1.473 . S
C1613 C188 1.485 . S
C1618 C537 1.438 1_655 S
C1629 C203 1.438 . S
C1634 C565 1.438 . S
C1650 C586 1.386 . S
C1645 C202 1.486 . S
C1666 C600 1.342 . S
C1661 C175 1.440 . S
C1677 C189 1.454 . S
C1682 C628 1.378 . S
C1693 C216 1.487 . S
C1698 C621 1.337 . S
C1709 C230 1.472 . S
C1714 C579 1.437 . S
C1730 C607 1.383 . S
C1725 C245 1.449 . S
C1746 C544 1.426 1_655 S
C1741 C244 1.452 . S
C1762 C558 1.339 . S
C1757 C217 1.467 . S
C1773 C231 1.453 . S
C1778 C523 1.399 1_545 S
