# Generated by pormake.
# Topology pyr, (3,6)-cn, num edge types: 1
# Building blocks:
#     Node 0, Type 0, BuildingBlock: PAMTOO_clean_linker_0, # of connection points: 3
#     Node 1, Type 0, BuildingBlock: PAMTOO_clean_linker_0, # of connection points: 3
#     Node 2, Type 0, BuildingBlock: PAMTOO_clean_linker_0, # of connection points: 3
#     Node 3, Type 0, BuildingBlock: PAMTOO_clean_linker_0, # of connection points: 3
#     Node 4, Type 0, BuildingBlock: PAMTOO_clean_linker_0, # of connection points: 3
#     Node 5, Type 0, BuildingBlock: PAMTOO_clean_linker_0, # of connection points: 3
#     Node 6, Type 0, BuildingBlock: PAMTOO_clean_linker_0, # of connection points: 3
#     Node 7, Type 0, BuildingBlock: PAMTOO_clean_linker_0, # of connection points: 3
#     Node 8, Type 1, BuildingBlock: MIDCAF_clean_sbu_0, # of connection points: 6
#     Node 9, Type 1, BuildingBlock: MIDCAF_clean_sbu_0, # of connection points: 6
#     Node 10, Type 1, BuildingBlock: MIDCAF_clean_sbu_0, # of connection points: 6
#     Node 11, Type 1, BuildingBlock: MIDCAF_clean_sbu_0, # of connection points: 6
#     Edge 12, Type (0, 1), BuildingBlock: CIFDUS_clean_linker_0, # of connection points: 2
#     Edge 13, Type (0, 1), BuildingBlock: CIFDUS_clean_linker_0, # of connection points: 2
#     Edge 14, Type (0, 1), BuildingBlock: CIFDUS_clean_linker_0, # of connection points: 2
#     Edge 15, Type (0, 1), BuildingBlock: CIFDUS_clean_linker_0, # of connection points: 2
#     Edge 16, Type (0, 1), BuildingBlock: CIFDUS_clean_linker_0, # of connection points: 2
#     Edge 17, Type (0, 1), BuildingBlock: CIFDUS_clean_linker_0, # of connection points: 2
#     Edge 18, Type (0, 1), BuildingBlock: CIFDUS_clean_linker_0, # of connection points: 2
#     Edge 19, Type (0, 1), BuildingBlock: CIFDUS_clean_linker_0, # of connection points: 2
#     Edge 20, Type (0, 1), BuildingBlock: CIFDUS_clean_linker_0, # of connection points: 2
#     Edge 21, Type (0, 1), BuildingBlock: CIFDUS_clean_linker_0, # of connection points: 2
#     Edge 22, Type (0, 1), BuildingBlock: CIFDUS_clean_linker_0, # of connection points: 2
#     Edge 23, Type (0, 1), BuildingBlock: CIFDUS_clean_linker_0, # of connection points: 2
#     Edge 24, Type (0, 1), BuildingBlock: CIFDUS_clean_linker_0, # of connection points: 2
#     Edge 25, Type (0, 1), BuildingBlock: CIFDUS_clean_linker_0, # of connection points: 2
#     Edge 26, Type (0, 1), BuildingBlock: CIFDUS_clean_linker_0, # of connection points: 2
#     Edge 27, Type (0, 1), BuildingBlock: CIFDUS_clean_linker_0, # of connection points: 2
#     Edge 28, Type (0, 1), BuildingBlock: CIFDUS_clean_linker_0, # of connection points: 2
#     Edge 29, Type (0, 1), BuildingBlock: CIFDUS_clean_linker_0, # of connection points: 2
#     Edge 30, Type (0, 1), BuildingBlock: CIFDUS_clean_linker_0, # of connection points: 2
#     Edge 31, Type (0, 1), BuildingBlock: CIFDUS_clean_linker_0, # of connection points: 2
#     Edge 32, Type (0, 1), BuildingBlock: CIFDUS_clean_linker_0, # of connection points: 2
#     Edge 33, Type (0, 1), BuildingBlock: CIFDUS_clean_linker_0, # of connection points: 2
#     Edge 34, Type (0, 1), BuildingBlock: CIFDUS_clean_linker_0, # of connection points: 2
#     Edge 35, Type (0, 1), BuildingBlock: CIFDUS_clean_linker_0, # of connection points: 2
# Relax obj value: 0.098
# Max RMSD: 0.202
# Mean RMSD: 0.141
data_MOF--net-pyr--node1-MIDCAF_clean_sbu_0--node2-PAMTOO_clean_linker_0--edge1-CIFDUS_clean_linker_0
_symmetry_space_group_name_H-M    P1
_symmetry_Int_Tables_number       1
_symmetry_cell_setting            triclinic
loop_
_symmetry_equiv_pos_as_xyz
'x, y, z'
_cell_length_a     30.207366
_cell_length_b     31.357581
_cell_length_c     30.837657
_cell_angle_alpha  89.849108
_cell_angle_beta   91.146899
_cell_angle_gamma 95.502273
loop_
_atom_site_label
_atom_site_type_symbol
_atom_site_fract_x
_atom_site_fract_y
_atom_site_fract_z
_atom_type_partial_charge
H0 H 0.20332 0.27668 0.27968 0.0
H1 H 0.30019 0.18414 0.28461 0.0
H2 H 0.29695 0.26841 0.17651 0.0
H3 H 0.30457 0.17485 0.15755 0.0
C4 C 0.3252 0.16776 0.18651 0.0
O5 O 0.33478 0.20465 0.21071 0.0
H6 H 0.30539 0.14329 0.20622 0.0
C7 C 0.23116 0.26268 0.26583 0.0
C8 C 0.247 0.27698 0.2248 0.0
C9 C 0.25049 0.22967 0.28863 0.0
C10 C 0.28584 0.21089 0.26937 0.0
C11 C 0.30201 0.22466 0.22912 0.0
C12 C 0.28323 0.25793 0.20735 0.0
H13 H 0.26853 0.89226 0.76562 0.0
H14 H 0.26667 0.79754 0.66474 0.0
H15 H 0.36287 0.79695 0.76732 0.0
H16 H 0.39317 0.79412 0.67424 0.0
C17 C 0.36554 0.77088 0.66207 0.0
O18 O 0.33494 0.76199 0.69434 0.0
H19 H 0.34931 0.78623 0.63415 0.0
C20 C 0.28151 0.86449 0.75197 0.0
C21 C 0.31886 0.84782 0.77191 0.0
C22 C 0.26131 0.84635 0.71375 0.0
C23 C 0.27952 0.81107 0.69525 0.0
C24 C 0.31624 0.79401 0.71442 0.0
C25 C 0.33508 0.81159 0.75296 0.0
H26 H 0.84223 0.22949 0.86313 0.0
H27 H 0.74153 0.22755 0.76224 0.0
H28 H 0.82631 0.342 0.78523 0.0
H29 H 0.72298 0.33824 0.7769 0.0
C30 C 0.72177 0.32167 0.74493 0.0
O31 O 0.76181 0.3055 0.7372 0.0
H32 H 0.69506 0.29469 0.74595 0.0
C33 C 0.82579 0.24558 0.8372 0.0
C34 C 0.83958 0.2888 0.82742 0.0
C35 C 0.78964 0.22323 0.81487 0.0
C36 C 0.77 0.24335 0.7796 0.0
C37 C 0.78384 0.28572 0.76881 0.0
C38 C 0.81805 0.30849 0.79282 0.0
H39 H 0.83042 0.78452 0.38596 0.0
H40 H 0.80178 0.68503 0.29127 0.0
H41 H 0.89987 0.78881 0.26466 0.0
H42 H 0.86351 0.75051 0.18477 0.0
C43 C 0.85064 0.71852 0.19734 0.0
O44 O 0.86539 0.71387 0.23949 0.0
H45 H 0.81363 0.71615 0.19583 0.0
C46 C 0.83516 0.77226 0.35375 0.0
C47 C 0.86767 0.79297 0.32673 0.0
C48 C 0.81047 0.73393 0.34076 0.0
C49 C 0.81857 0.71588 0.30046 0.0
C50 C 0.85145 0.73549 0.2737 0.0
C51 C 0.87479 0.77437 0.28616 0.0
H52 H 0.88996 0.95655 0.85838 0.0
H53 H 0.89191 0.85068 0.94741 0.0
H54 H 0.99874 0.87677 0.85922 0.0
H55 H 0.97167 0.78169 0.87164 0.0
C56 C 0.95345 0.7848 0.90226 0.0
O57 O 0.96521 0.82487 0.91986 0.0
H58 H 0.91713 0.78093 0.89428 0.0
C59 C 0.90652 0.93033 0.87212 0.0
C60 C 0.94759 0.92072 0.85537 0.0
C61 C 0.88564 0.90504 0.90495 0.0
C62 C 0.9069 0.87041 0.9217 0.0
C63 C 0.94705 0.85997 0.90485 0.0
C64 C 0.96745 0.88505 0.8718 0.0
H65 H 0.7013 0.06277 0.35108 0.0
H66 H 0.60702 0.15808 0.34746 0.0
H67 H 0.70974 0.16398 0.44562 0.0
H68 H 0.63652 0.18669 0.48154 0.0
C69 C 0.61525 0.19471 0.45337 0.0
O70 O 0.64062 0.19913 0.41658 0.0
H71 H 0.58851 0.16793 0.44909 0.0
C72 C 0.68912 0.09156 0.36379 0.0
C73 C 0.70974 0.11099 0.4009 0.0
C74 C 0.65204 0.10842 0.34389 0.0
C75 C 0.63614 0.14527 0.36151 0.0
C76 C 0.65704 0.16503 0.39819 0.0
C77 C 0.6941 0.1484 0.41712 0.0
H78 H 0.35679 0.66196 0.05263 0.0
H79 H 0.41717 0.60249 0.16175 0.0
H80 H 0.48776 0.70956 0.09854 0.0
H81 H 0.55164 0.64468 0.16543 0.0
C82 C 0.51807 0.63039 0.1747 0.0
O83 O 0.4876 0.65933 0.16517 0.0
H84 H 0.51027 0.59994 0.1564 0.0
C85 C 0.38538 0.65912 0.07391 0.0
C86 C 0.42308 0.68868 0.07063 0.0
C87 C 0.38381 0.62706 0.10592 0.0
C88 C 0.41934 0.6257 0.13563 0.0
C89 C 0.45707 0.65523 0.13247 0.0
C90 C 0.45943 0.68556 0.0992 0.0
H91 H 0.0806 0.35706 0.6913 0.0
H92 H 0.11643 0.49318 0.68418 0.0
H93 H 0.17267 0.40945 0.5955 0.0
H94 H 0.21449 0.49413 0.6734 0.0
C95 C 0.20652 0.51119 0.64285 0.0
O96 O 0.17077 0.48947 0.62088 0.0
H97 H 0.1973 0.54336 0.65201 0.0
C98 C 0.09896 0.38449 0.6764 0.0
C99 C 0.12658 0.37827 0.64116 0.0
C100 C 0.09469 0.42579 0.69231 0.0
C101 C 0.11803 0.46101 0.67196 0.0
C102 C 0.14655 0.45512 0.63779 0.0
C103 C 0.15061 0.41381 0.62208 0.0
Zn104 Zn 0.98991 0.09226 0.57814 0.0
Zn105 Zn 0.09589 0.00875 0.48679 0.0
Zn106 Zn 0.03948 0.05058 0.5312 0.0
C107 C 0.11781 0.09518 0.46913 0.0
C108 C 0.00806 0.98242 0.45624 0.0
O109 O 0.04027 0.02491 0.59977 0.0
O110 O 0.99086 0.06045 0.63258 0.0
C111 C 0.05692 0.15176 0.55173 0.0
O112 O 0.08597 0.098 0.49601 0.0
O113 O 0.13011 0.05903 0.45972 0.0
O114 O 0.04833 0.97568 0.45197 0.0
O115 O 0.99772 0.01094 0.48337 0.0
O116 O 0.02519 0.14806 0.57779 0.0
O117 O 0.06607 0.11944 0.52898 0.0
O118 O 0.9715 0.04127 0.50115 0.0
O119 O 0.93572 0.08425 0.54166 0.0
C120 C 0.93602 0.05927 0.50968 0.0
O121 O 0.07466 0.00913 0.57681 0.0
O122 O 0.12248 0.97882 0.53604 0.0
C123 C 0.01778 0.03213 0.63378 0.0
C124 C 0.10616 0.98445 0.57269 0.0
Zn125 Zn 0.52811 0.06128 0.95352 0.0
Zn126 Zn 0.59191 0.95092 0.05984 0.0
Zn127 Zn 0.56417 0.00744 0.00941 0.0
C128 C 0.66151 0.97572 0.00386 0.0
C129 C 0.52486 0.907 0.01591 0.0
O130 O 0.53243 0.05445 0.04977 0.0
O131 O 0.50725 0.09784 1.00021 0.0
C132 C 0.62054 0.06663 0.94015 0.0
O133 O 0.63553 0.00464 0.99367 0.0
O134 O 0.64929 0.94702 0.03102 0.0
O135 O 0.54736 0.90226 0.05009 0.0
O136 O 0.52831 0.94306 0.99554 0.0
O137 O 0.58533 0.0798 0.92454 0.0
O138 O 0.61902 0.03979 0.97191 0.0
O139 O 0.5132 0.97216 0.96602 0.0
O140 O 0.48346 0.01963 0.92393 0.0
C141 C 0.48543 0.98132 0.93582 0.0
O142 O 0.55836 0.03047 0.0777 0.0
O143 O 0.5913 0.98173 0.11487 0.0
C144 C 0.51188 0.08742 0.03956 0.0
C145 C 0.57322 0.01636 0.11403 0.0
Zn146 Zn 0.6094 0.57342 0.57234 0.0
Zn147 Zn 0.49227 0.49054 0.4727 0.0
Zn148 Zn 0.55181 0.53221 0.51904 0.0
C149 C 0.54764 0.4303 0.49859 0.0
C150 C 0.53723 0.54815 0.41738 0.0
O151 O 0.51451 0.5701 0.5648 0.0
O152 O 0.56721 0.60457 0.60572 0.0
C153 C 0.61918 0.48753 0.58514 0.0
O154 O 0.5658 0.46332 0.51949 0.0
O155 O 0.51359 0.43361 0.475 0.0
O156 O 0.50269 0.52232 0.41901 0.0
O157 O 0.56207 0.55581 0.45149 0.0
O158 O 0.63403 0.52377 0.59972 0.0
O159 O 0.58955 0.48464 0.55426 0.0
O160 O 0.59481 0.57832 0.47879 0.0
O161 O 0.64473 0.60516 0.5273 0.0
C162 C 0.63038 0.60289 0.48855 0.0
O163 O 0.48363 0.54025 0.54408 0.0
O164 O 0.43752 0.49868 0.50232 0.0
C165 C 0.52656 0.5971 0.59537 0.0
C166 C 0.44385 0.52385 0.53407 0.0
Zn167 Zn 0.11294 0.53191 0.98393 0.0
Zn168 Zn 0.0063 0.45731 0.09453 0.0
Zn169 Zn 0.05987 0.49494 0.03496 0.0
C170 C 0.09243 0.44512 0.12218 0.0
C171 C 0.98614 0.41587 0.01373 0.0
O172 O 0.04626 0.56374 0.02856 0.0
O173 O 0.10593 0.59265 0.99543 0.0
C174 C 0.16761 0.49682 0.04016 0.0
O175 O 0.10064 0.46533 0.08627 0.0
O176 O 0.05299 0.43867 0.13522 0.0
O177 O 0.97591 0.41455 0.0533 0.0
O178 O 0.01718 0.44374 1.0005 0.0
O179 O 0.16947 0.51057 1.00178 0.0
O180 O 0.12973 0.4909 0.05895 0.0
O181 O 0.04782 0.46355 0.97027 0.0
O182 O 0.08706 0.51004 0.92883 0.0
C183 C 0.0607 0.47667 0.93248 0.0
O184 O 0.01895 0.54396 0.06148 0.0
O185 O 0.97528 0.5084 0.1088 0.0
C186 C 0.06923 0.5969 0.01287 0.0
C187 C 0.98784 0.54298 0.08966 0.0
H188 H 0.16408 0.22339 0.31821 0.0
H189 H 0.29747 0.19803 0.35676 0.0
H190 H 0.26855 0.15722 0.4187 0.0
H191 H 0.20466 0.1208 0.45669 0.0
H192 H 0.07234 0.15191 0.42391 0.0
H193 H 0.10178 0.19981 0.36614 0.0
C194 C 0.18718 0.21012 0.34063 0.0
C195 C 0.23296 0.21253 0.33118 0.0
C196 C 0.17049 0.18765 0.37749 0.0
C197 C 0.26189 0.19509 0.36145 0.0
C198 C 0.24546 0.17201 0.3974 0.0
C199 C 0.18252 0.13916 0.43773 0.0
C200 C 0.13648 0.13276 0.44422 0.0
C201 C 0.19972 0.16677 0.40485 0.0
C202 C 0.10799 0.15664 0.41962 0.0
C203 C 0.12479 0.18364 0.38627 0.0
H204 H 0.40723 0.84832 0.79774 0.0
H205 H 0.2843 0.89729 0.83523 0.0
H206 H 0.32464 0.94209 0.88964 0.0
H207 H 0.39604 0.97199 0.92301 0.0
H208 H 0.51601 0.91486 0.89368 0.0
H209 H 0.4749 0.86692 0.8411 0.0
C210 C 0.38841 0.86748 0.81835 0.0
C211 C 0.34242 0.86995 0.8104 0.0
C212 C 0.41138 0.89173 0.8515 0.0
C213 C 0.31984 0.89585 0.83823 0.0
C214 C 0.34283 0.92126 0.87012 0.0
C215 C 0.41282 0.94835 0.90568 0.0
C216 C 0.45889 0.94706 0.91161 0.0
C217 C 0.38878 0.9203 0.87627 0.0
C218 C 0.48047 0.91623 0.88949 0.0
C219 C 0.45704 0.8891 0.85926 0.0
H220 H 0.64873 0.32001 0.6907 0.0
H221 H 0.77204 0.39493 0.72316 0.0
H222 H 0.75303 0.45114 0.67277 0.0
H223 H 0.69878 0.48124 0.62445 0.0
H224 H 0.5735 0.4084 0.5947 0.0
H225 H 0.59615 0.3485 0.63821 0.0
C226 C 0.67162 0.34842 0.68619 0.0
C227 C 0.71176 0.35351 0.7104 0.0
C228 C 0.6601 0.38078 0.65769 0.0
C229 C 0.7411 0.39046 0.70461 0.0
C230 C 0.73017 0.42254 0.67598 0.0
C231 C 0.67663 0.45203 0.62709 0.0
C232 C 0.63466 0.44908 0.60616 0.0
C233 C 0.68939 0.41839 0.65306 0.0
C234 C 0.60629 0.41113 0.60985 0.0
C235 C 0.61906 0.37708 0.63511 0.0
H236 H 0.93101 0.71892 0.15826 0.0
H237 H 0.80894 0.63934 0.17925 0.0
H238 H 0.83958 0.57897 0.14431 0.0
H239 H 0.90288 0.54747 0.113 0.0
H240 H 0.02656 0.62546 0.09517 0.0
H241 H 0.99338 0.68816 0.12243 0.0
C242 C 0.91095 0.68855 0.15426 0.0
C243 C 0.86755 0.68363 0.17053 0.0
C244 C 0.92911 0.65383 0.1347 0.0
C245 C 0.84212 0.64395 0.16625 0.0
C246 C 0.85971 0.60944 0.14652 0.0
C247 C 0.9224 0.57834 0.11462 0.0
C248 C 0.96692 0.58203 0.10145 0.0
C249 C 0.90341 0.6138 0.13138 0.0
C250 C 0.99189 0.62211 0.10388 0.0
C251 C 0.97306 0.65781 0.12005 0.0
H252 H 0.38675 0.20531 0.13166 0.0
H253 H 0.35671 0.09054 0.2067 0.0
H254 H 0.41746 0.05739 0.17275 0.0
H255 H 0.47235 0.05762 0.11421 0.0
H256 H 0.49948 0.17176 0.0372 0.0
H257 H 0.44783 0.20876 0.07982 0.0
C258 C 0.39424 0.17341 0.14114 0.0
C259 C 0.36719 0.15032 0.17131 0.0
C260 C 0.42869 0.15428 0.12089 0.0
C261 C 0.37701 0.10892 0.18337 0.0
C262 C 0.41168 0.08989 0.16388 0.0
C263 C 0.46786 0.09094 0.10766 0.0
C264 C 0.48944 0.11179 0.07237 0.0
C265 C 0.43687 0.11174 0.13153 0.0
C266 C 0.48299 0.1549 0.064 0.0
C267 C 0.45327 0.17606 0.08822 0.0
H268 H 0.24175 0.93084 0.71221 0.0
H269 H 0.19277 0.8048 0.66531 0.0
H270 H 0.13758 0.83614 0.62018 0.0
H271 H 0.1084 0.90008 0.58799 0.0
H272 H 0.15127 0.02475 0.64013 0.0
H273 H 0.20226 0.99282 0.69095 0.0
C274 C 0.21837 0.90971 0.69334 0.0
C275 C 0.22301 0.86531 0.69151 0.0
C276 C 0.18525 0.92774 0.66848 0.0
C277 C 0.19188 0.83921 0.6662 0.0
C278 C 0.1597 0.85703 0.64063 0.0
C279 C 0.12799 0.91996 0.61147 0.0
C280 C 0.12641 0.96454 0.61051 0.0
C281 C 0.15694 0.90135 0.64056 0.0
C282 C 0.15183 0.99025 0.64075 0.0
C283 C 0.18128 0.97203 0.6694 0.0
H284 H 0.85545 0.27956 0.91462 0.0
H285 H 0.9 0.35651 0.80441 0.0
H286 H 0.94864 0.40277 0.85209 0.0
H287 H 0.97408 0.42416 0.92615 0.0
H288 H 0.93749 0.34116 0.0337 0.0
H289 H 0.88962 0.29451 0.98579 0.0
C290 C 0.8766 0.30551 0.90037 0.0
C291 C 0.87326 0.31437 0.85562 0.0
C292 C 0.90567 0.33125 0.92768 0.0
C293 C 0.90059 0.34924 0.83873 0.0
C294 C 0.9288 0.37567 0.86597 0.0
C295 C 0.95763 0.39482 0.93867 0.0
C296 C 0.96058 0.38582 0.98325 0.0
C297 C 0.93113 0.3673 0.91061 0.0
C298 C 0.93611 0.34897 0.99949 0.0
C299 C 0.90872 0.32216 0.9721 0.0
H300 H 0.72129 0.70924 0.33306 0.0
H301 H 0.83538 0.70373 0.41843 0.0
H302 H 0.78984 0.66169 0.47073 0.0
H303 H 0.71832 0.62642 0.4921 0.0
H304 H 0.60158 0.63736 0.412 0.0
H305 H 0.64723 0.67654 0.35711 0.0
C306 C 0.73589 0.69877 0.3632 0.0
C307 C 0.78149 0.70949 0.37212 0.0
C308 C 0.70919 0.67521 0.39361 0.0
C309 C 0.80027 0.69605 0.41121 0.0
C310 C 0.77431 0.67194 0.44099 0.0
C311 C 0.70272 0.63739 0.46265 0.0
C312 C 0.65681 0.62745 0.45521 0.0
C313 C 0.72883 0.66138 0.43254 0.0
C314 C 0.63716 0.64254 0.41726 0.0
C315 C 0.6632 0.66563 0.38633 0.0
H316 H 0.20593 0.3459 0.25472 0.0
H317 H 0.23643 0.28257 0.13612 0.0
H318 H 0.19867 0.33412 0.094 0.0
H319 H 0.15036 0.39304 0.09034 0.0
H320 H 0.1106 0.44953 0.20877 0.0
H321 H 0.15817 0.40514 0.25109 0.0
C322 C 0.20416 0.34296 0.21971 0.0
C323 C 0.22461 0.30999 0.19912 0.0
C324 C 0.18053 0.37181 0.19536 0.0
C325 C 0.22227 0.30782 0.15341 0.0
C326 C 0.20016 0.33721 0.12901 0.0
C327 C 0.15308 0.39628 0.12534 0.0
C328 C 0.12762 0.42488 0.14645 0.0
C329 C 0.17858 0.36894 0.14959 0.0
C330 C 0.13036 0.42803 0.19187 0.0
C331 C 0.15726 0.4024 0.21606 0.0
H332 H 0.77973 0.19965 0.8996 0.0
H333 H 0.74908 0.15433 0.76925 0.0
H334 H 0.69666 0.09745 0.79746 0.0
H335 H 0.65102 0.06832 0.85829 0.0
H336 H 0.68365 0.1124 0.9882 0.0
H337 H 0.74495 0.16133 0.96112 0.0
C338 C 0.763 0.17651 0.87724 0.0
C339 C 0.76764 0.18219 0.83215 0.0
C340 C 0.73295 0.14379 0.89366 0.0
C341 C 0.7452 0.1517 0.80401 0.0
C342 C 0.71525 0.11903 0.82011 0.0
C343 C 0.67255 0.08777 0.88061 0.0
C344 C 0.66326 0.08696 0.92503 0.0
C345 C 0.70743 0.116 0.86472 0.0
C346 C 0.69075 0.1124 0.95389 0.0
C347 C 0.7255 0.14053 0.93837 0.0
H348 H 0.84767 0.85774 0.38142 0.0
H349 H 0.95605 0.8133 0.30974 0.0
H350 H 0.00618 0.87142 0.33883 0.0
H351 H 0.0217 0.93073 0.38893 0.0
H352 H 0.91754 0.96981 0.46924 0.0
H353 H 0.86364 0.91818 0.4325 0.0
C354 C 0.88226 0.86051 0.37222 0.0
C355 C 0.89744 0.83082 0.34287 0.0
C356 C 0.91193 0.89319 0.39075 0.0
C357 C 0.94249 0.83585 0.33109 0.0
C358 C 0.97163 0.86896 0.34822 0.0
C359 C 0.98713 0.92837 0.39832 0.0
C360 C 0.9737 0.95477 0.43149 0.0
C361 C 0.95694 0.89726 0.3786 0.0
C362 C 0.92872 0.95092 0.44308 0.0
C363 C 0.89797 0.92088 0.42244 0.0
H364 H 0.42868 0.72847 0.70302 0.0
H365 H 0.34494 0.72373 0.58815 0.0
H366 H 0.38406 0.66544 0.55906 0.0
H367 H 0.44852 0.62248 0.56246 0.0
H368 H 0.5329 0.62871 0.67721 0.0
H369 H 0.48735 0.67953 0.71012 0.0
C370 C 0.41868 0.71411 0.67195 0.0
C371 C 0.38468 0.73074 0.64738 0.0
C372 C 0.44182 0.6812 0.65517 0.0
C373 C 0.37149 0.71172 0.60735 0.0
C374 C 0.39393 0.67852 0.59067 0.0
C375 C 0.45618 0.63411 0.59509 0.0
C376 C 0.49411 0.62189 0.61729 0.0
C377 C 0.4301 0.66392 0.61368 0.0
C378 C 0.50403 0.63781 0.65932 0.0
C379 C 0.47802 0.66692 0.67818 0.0
H380 H 0.98626 0.89462 0.7813 0.0
H381 H 0.95664 0.00763 0.85055 0.0
H382 H 0.98251 0.05253 0.78983 0.0
H383 H 0.00527 0.05913 0.71465 0.0
H384 H 0.03295 0.94725 0.64295 0.0
H385 H 0.01798 0.90262 0.70756 0.0
C386 C 0.9863 0.92914 0.78337 0.0
C387 C 0.96871 0.94767 0.82017 0.0
C388 C 1.00101 0.95494 0.74797 0.0
C389 C 0.96897 0.99246 0.82228 0.0
C390 C 0.98399 0.0182 0.78766 0.0
C391 C 0.00884 0.02504 0.71334 0.0
C392 C 0.01985 0.00644 0.67402 0.0
C393 C 0.9988 0.99969 0.74995 0.0
C394 C 0.02487 0.96239 0.67291 0.0
C395 C 0.01571 0.93683 0.70972 0.0
H396 H 0.62385 0.14373 0.26799 0.0
H397 H 0.62785 0.02321 0.33522 0.0
H398 H 0.59639 0.98488 0.27143 0.0
H399 H 0.57557 0.98476 0.19491 0.0
H400 H 0.57488 0.1038 0.12477 0.0
H401 H 0.59528 0.14374 0.19173 0.0
C402 C 0.61718 0.10914 0.26876 0.0
C403 C 0.629 0.08625 0.30603 0.0
C404 C 0.59944 0.08711 0.23157 0.0
C405 C 0.6201 0.04145 0.30664 0.0
C406 C 0.60183 0.01953 0.27028 0.0
C407 C 0.57911 0.01952 0.19434 0.0
C408 C 0.57412 0.04127 0.15485 0.0
C409 C 0.59255 0.04192 0.2323 0.0
C410 C 0.57824 0.08628 0.15477 0.0
C411 C 0.59052 0.10907 0.19297 0.0
H412 H 0.58577 0.60692 0.22744 0.0
H413 H 0.44715 0.63033 0.22928 0.0
H414 H 0.44388 0.61236 0.30548 0.0
H415 H 0.4781 0.58613 0.37061 0.0
H416 H 0.61433 0.55652 0.37075 0.0
H417 H 0.62151 0.58206 0.29536 0.0
C418 C 0.5551 0.60844 0.2448 0.0
C419 C 0.51706 0.62061 0.22264 0.0
C420 C 0.55314 0.59739 0.28906 0.0
C421 C 0.47716 0.62159 0.24527 0.0
C422 C 0.47517 0.61138 0.28905 0.0
C423 C 0.50961 0.58597 0.35427 0.0
C424 C 0.54581 0.57021 0.37595 0.0
C425 C 0.51271 0.59888 0.31105 0.0
C426 C 0.58633 0.56941 0.35464 0.0
C427 C 0.59018 0.58351 0.31153 0.0
H428 H 0.09127 0.37702 0.76603 0.0
H429 H 0.04183 0.48966 0.70921 0.0
H430 H 0.01775 0.51132 0.78013 0.0
H431 H 0.02523 0.5057 0.85921 0.0
H432 H 0.07429 0.39368 0.91657 0.0
H433 H 0.08233 0.36322 0.84428 0.0
C434 C 0.07383 0.40551 0.76878 0.0
C435 C 0.06975 0.43245 0.73251 0.0
C436 C 0.0602 0.41793 0.80981 0.0
C437 C 0.04683 0.46914 0.73684 0.0
C438 C 0.03286 0.48148 0.77736 0.0
C439 C 0.03603 0.47388 0.85574 0.0
C440 C 0.04968 0.45202 0.89267 0.0
C441 C 0.04157 0.45732 0.81428 0.0
C442 C 0.06355 0.41087 0.88833 0.0
C443 C 0.06865 0.39378 0.84703 0.0
H444 H 0.85292 0.98207 0.92245 0.0
H445 H 0.8166 0.84541 0.92113 0.0
H446 H 0.74429 0.85602 0.95017 0.0
H447 H 0.69226 0.90307 0.97831 0.0
H448 H 0.72579 0.03954 0.98031 0.0
H449 H 0.79773 0.03037 0.94738 0.0
C450 C 0.82898 0.9547 0.9281 0.0
C451 C 0.84068 0.9129 0.92036 0.0
C452 C 0.78688 0.96103 0.94461 0.0
C453 C 0.80914 0.87781 0.92788 0.0
C454 C 0.76756 0.88383 0.94419 0.0
C455 C 0.71528 0.93088 0.9714 0.0
C456 C 0.70377 0.97202 0.98141 0.0
C457 C 0.75636 0.92513 0.9532 0.0
C458 C 0.73359 0.00775 0.97194 0.0
C459 C 0.77489 1.00234 0.95364 0.0
H460 H 0.78735 0.08516 0.36971 0.0
H461 H 0.71198 0.0925 0.48638 0.0
H462 H 0.77382 0.06966 0.52962 0.0
H463 H 0.85187 0.05708 0.53556 0.0
H464 H 0.93025 0.05248 0.42081 0.0
H465 H 0.86453 0.06333 0.37529 0.0
C466 C 0.78439 0.08094 0.40448 0.0
C467 C 0.74557 0.09131 0.42503 0.0
C468 C 0.82059 0.06836 0.42941 0.0
C469 C 0.74191 0.08559 0.47005 0.0
C470 C 0.77716 0.0724 0.49476 0.0
C471 C 0.85433 0.05755 0.50049 0.0
C472 C 0.89574 0.0544 0.4815 0.0
C473 C 0.81706 0.06513 0.47498 0.0
C474 C 0.89857 0.05468 0.43609 0.0
C475 C 0.86113 0.06136 0.41016 0.0
H476 H 0.36561 0.55033 0.06702 0.0
H477 H 0.31182 0.63855 0.15376 0.0
H478 H 0.23943 0.59587 0.15103 0.0
H479 H 0.18884 0.54224 0.11228 0.0
H480 H 0.24136 0.45897 0.01955 0.0
H481 H 0.31713 0.48893 0.0378 0.0
C482 C 0.33818 0.55936 0.08607 0.0
C483 C 0.34334 0.59739 0.1102 0.0
C484 C 0.29657 0.53523 0.08343 0.0
C485 C 0.30803 0.60931 0.13484 0.0
C486 C 0.26681 0.58495 0.13325 0.0
C487 C 0.21712 0.52923 0.09782 0.0
C488 C 0.20985 0.49854 0.06474 0.0
C489 C 0.2602 0.54887 0.1062 0.0
C490 C 0.24646 0.48239 0.04539 0.0
C491 C 0.28966 0.5001 0.05523 0.0
H492 H 0.29224 0.52578 0.67061 0.0
H493 H 0.21177 0.51228 0.55336 0.0
H494 H 0.27858 0.52008 0.5098 0.0
H495 H 0.3596 0.5254 0.50516 0.0
H496 H 0.441 0.5372 0.62174 0.0
H497 H 0.37415 0.53685 0.66554 0.0
C498 C 0.28952 0.52443 0.6355 0.0
C499 C 0.24732 0.51674 0.6153 0.0
C500 C 0.32812 0.52918 0.61063 0.0
C501 C 0.2439 0.51664 0.56978 0.0
C502 C 0.28208 0.5214 0.54483 0.0
C503 C 0.36271 0.52845 0.54016 0.0
C504 C 0.40506 0.53146 0.56027 0.0
C505 C 0.32428 0.52687 0.56495 0.0
C506 C 0.40876 0.53556 0.60553 0.0
C507 C 0.37053 0.53479 0.63055 0.0
H508 H 0.03227 0.77783 0.94511 0.0
H509 H 0.90099 0.71288 0.92667 0.0
H510 H 0.92313 0.6509 0.96709 0.0
H511 H 0.98292 0.61147 0.99838 0.0
H512 H 0.11501 0.67564 0.01373 0.0
H513 H 0.08931 0.74186 0.98523 0.0
C514 C 0.00832 0.75047 0.95091 0.0
C515 C 0.96511 0.74993 0.93309 0.0
C516 C 0.02149 0.71471 0.97362 0.0
C517 C 0.93444 0.71409 0.94025 0.0
C518 C 0.9471 0.6786 0.96327 0.0
C519 C 0.00565 0.64037 0.99682 0.0
C520 C 0.0508 0.63868 0.00794 0.0
C521 C 0.99095 0.67801 0.97894 0.0
C522 C 0.08009 0.6762 0.00524 0.0
C523 C 0.0655 0.71398 0.98863 0.0
H524 H 0.4788 0.71575 0.00628 0.0
H525 H 0.36667 0.74999 0.07809 0.0
H526 H 0.38206 0.82477 0.05608 0.0
H527 H 0.43951 0.8813 0.03364 0.0
H528 H 0.55275 0.84701 0.96381 0.0
H529 H 0.52427 0.77145 0.9661 0.0
C530 C 0.45668 0.73938 0.01535 0.0
C531 C 0.42215 0.72786 0.04414 0.0
C532 C 0.46634 0.7824 1.00328 0.0
C533 C 0.39347 0.75838 0.05588 0.0
C534 C 0.40255 0.8012 0.04366 0.0
C535 C 0.45646 0.8574 0.01687 0.0
C536 C 0.49808 0.86918 0.99882 0.0
C537 C 0.4406 0.81391 0.01978 0.0
C538 C 0.52042 0.83831 0.97762 0.0
C539 C 0.50448 0.79508 0.97954 0.0
H540 H 0.1098 0.34727 0.55937 0.0
H541 H 0.15023 0.31079 0.68801 0.0
H542 H 0.14193 0.23539 0.66703 0.0
H543 H 0.11007 0.18018 0.61688 0.0
H544 H 0.06333 0.21489 0.49015 0.0
H545 H 0.08835 0.29053 0.50466 0.0
C546 C 0.11791 0.32275 0.58227 0.0
C547 C 0.13006 0.33425 0.62529 0.0
C548 C 0.11174 0.27923 0.57025 0.0
C549 C 0.14033 0.30242 0.65491 0.0
C550 C 0.13558 0.2594 0.64293 0.0
C551 C 0.1071 0.20424 0.59187 0.0
C552 C 0.08535 0.19241 0.55251 0.0
C553 C 0.1195 0.24741 0.60136 0.0
C554 C 0.0807 0.22349 0.52041 0.0
C555 C 0.09438 0.26671 0.52904 0.0
H556 H 0.65773 0.26934 0.48476 0.0
H557 H 0.52887 0.21192 0.4421 0.0
H558 H 0.49629 0.27866 0.45667 0.0
H559 H 0.50478 0.35344 0.47885 0.0
H560 H 0.63398 0.41382 0.51689 0.0
H561 H 0.66601 0.34547 0.5083 0.0
C562 C 0.62252 0.27165 0.4789 0.0
C563 C 0.59557 0.2359 0.46267 0.0
C564 C 0.60411 0.31033 0.48702 0.0
C565 C 0.55009 0.23902 0.45478 0.0
C566 C 0.5315 0.27709 0.46316 0.0
C567 C 0.53995 0.35168 0.48563 0.0
C568 C 0.56686 0.38859 0.49903 0.0
C569 C 0.55823 0.31293 0.479 0.0
C570 C 0.61233 0.3857 0.50753 0.0
C571 C 0.63074 0.34675 0.50205 0.0
loop_
_geom_bond_atom_site_label_1
_geom_bond_atom_site_label_2
_geom_bond_distance
_geom_bond_site_symmetry_2
_ccdc_geom_bond_type
H0 C7 0.929 . S
H1 C10 0.930 . S
H2 C12 0.929 . S
H3 C4 0.969 . S
C4 H3 0.969 . S
C4 O5 1.550 . S
C4 H6 0.973 . S
O5 C4 1.550 . S
O5 C11 1.412 . S
H6 C4 0.973 . S
C7 H0 0.929 . S
C7 C8 1.400 . S
C7 C9 1.364 . S
C8 C7 1.400 . S
C8 C12 1.377 . S
C9 C7 1.364 . S
C9 C10 1.374 . S
C10 H1 0.930 . S
C10 C9 1.374 . S
C10 C11 1.383 . S
C11 O5 1.412 . S
C11 C10 1.383 . S
C11 C12 1.394 . S
C12 H2 0.929 . S
C12 C8 1.377 . S
C12 C11 1.394 . S
H13 C20 0.929 . S
H14 C23 0.930 . S
H15 C25 0.929 . S
H16 C17 0.969 . S
C17 H16 0.969 . S
C17 O18 1.550 . S
C17 H19 0.973 . S
O18 C17 1.550 . S
O18 C24 1.412 . S
H19 C17 0.973 . S
C20 H13 0.929 . S
C20 C21 1.400 . S
C20 C22 1.364 . S
C21 C20 1.400 . S
C21 C25 1.377 . S
C22 C20 1.364 . S
C22 C23 1.374 . S
C23 H14 0.930 . S
C23 C22 1.374 . S
C23 C24 1.383 . S
C24 O18 1.412 . S
C24 C23 1.383 . S
C24 C25 1.394 . S
C25 H15 0.929 . S
C25 C21 1.377 . S
C25 C24 1.394 . S
H26 C33 0.929 . S
H27 C36 0.930 . S
H28 C38 0.929 . S
H29 C30 0.969 . S
C30 H29 0.969 . S
C30 O31 1.550 . S
C30 H32 0.973 . S
O31 C30 1.550 . S
O31 C37 1.412 . S
H32 C30 0.973 . S
C33 H26 0.929 . S
C33 C34 1.400 . S
C33 C35 1.364 . S
C34 C33 1.400 . S
C34 C38 1.377 . S
C35 C33 1.364 . S
C35 C36 1.374 . S
C36 H27 0.930 . S
C36 C35 1.374 . S
C36 C37 1.383 . S
C37 O31 1.412 . S
C37 C36 1.383 . S
C37 C38 1.394 . S
C38 H28 0.929 . S
C38 C34 1.377 . S
C38 C37 1.394 . S
H39 C46 0.929 . S
H40 C49 0.930 . S
H41 C51 0.929 . S
H42 C43 0.969 . S
C43 H42 0.969 . S
C43 O44 1.550 . S
C43 H45 0.973 . S
O44 C43 1.550 . S
O44 C50 1.412 . S
H45 C43 0.973 . S
C46 H39 0.929 . S
C46 C47 1.400 . S
C46 C48 1.364 . S
C47 C46 1.400 . S
C47 C51 1.377 . S
C48 C46 1.364 . S
C48 C49 1.374 . S
C49 H40 0.930 . S
C49 C48 1.374 . S
C49 C50 1.383 . S
C50 O44 1.412 . S
C50 C49 1.383 . S
C50 C51 1.394 . S
C51 H41 0.929 . S
C51 C47 1.377 . S
C51 C50 1.394 . S
H52 C59 0.929 . S
H53 C62 0.930 . S
H54 C64 0.929 1_455 S
H55 C56 0.969 . S
C56 H55 0.969 . S
C56 O57 1.550 1_655 S
C56 H58 0.973 1_556 S
O57 C56 1.550 1_455 S
O57 C63 1.412 1_455 S
H58 C56 0.973 1_554 S
C59 H52 0.929 . S
C59 C60 1.400 . S
C59 C61 1.364 . S
C60 C59 1.400 . S
C60 C64 1.377 . S
C61 C59 1.364 . S
C61 C62 1.374 . S
C62 H53 0.930 . S
C62 C61 1.374 . S
C62 C63 1.383 . S
C63 O57 1.412 1_655 S
C63 C62 1.383 . S
C63 C64 1.394 . S
C64 H54 0.929 1_655 S
C64 C60 1.377 . S
C64 C63 1.394 . S
H65 C72 0.929 . S
H66 C75 0.930 . S
H67 C77 0.929 . S
H68 C69 0.969 . S
C69 H68 0.969 . S
C69 O70 1.550 . S
C69 H71 0.973 . S
O70 C69 1.550 . S
O70 C76 1.412 . S
H71 C69 0.973 . S
C72 H65 0.929 . S
C72 C73 1.400 . S
C72 C74 1.364 . S
C73 C72 1.400 . S
C73 C77 1.377 . S
C74 C72 1.364 . S
C74 C75 1.374 . S
C75 H66 0.930 . S
C75 C74 1.374 . S
C75 C76 1.383 . S
C76 O70 1.412 . S
C76 C75 1.383 . S
C76 C77 1.394 . S
C77 H67 0.929 . S
C77 C73 1.377 . S
C77 C76 1.394 . S
H78 C85 0.929 . S
H79 C88 0.930 . S
H80 C90 0.929 . S
H81 C82 0.969 . S
C82 H81 0.969 . S
C82 O83 1.550 . S
C82 H84 0.973 . S
O83 C82 1.550 . S
O83 C89 1.412 . S
H84 C82 0.973 . S
C85 H78 0.929 . S
C85 C86 1.400 . S
C85 C87 1.364 . S
C86 C85 1.400 . S
C86 C90 1.377 . S
C87 C85 1.364 . S
C87 C88 1.374 . S
C88 H79 0.930 . S
C88 C87 1.374 . S
C88 C89 1.383 . S
C89 O83 1.412 . S
C89 C88 1.383 . S
C89 C90 1.394 . S
C90 H80 0.929 . S
C90 C86 1.377 . S
C90 C89 1.394 . S
H91 C98 0.929 . S
H92 C101 0.930 . S
H93 C103 0.929 . S
H94 C95 0.969 . S
C95 H94 0.969 . S
C95 O96 1.550 . S
C95 H97 0.973 . S
O96 C95 1.550 . S
O96 C102 1.412 . S
H97 C95 0.973 . S
C98 H91 0.929 . S
C98 C99 1.400 . S
C98 C100 1.364 . S
C99 C98 1.400 . S
C99 C103 1.377 . S
C100 C98 1.364 . S
C100 C101 1.374 . S
C101 H92 0.930 . S
C101 C100 1.374 . S
C101 C102 1.383 . S
C102 O96 1.412 . S
C102 C101 1.383 . S
C102 C103 1.394 . S
C103 H93 0.929 . S
C103 C99 1.377 . S
C103 C102 1.394 . S
Zn104 O110 1.920 . S
Zn104 O116 1.898 . S
Zn104 O119 1.905 . S
Zn105 O113 1.905 1_565 S
Zn105 O114 1.898 . S
Zn105 O122 1.920 . S
Zn106 O109 2.080 1_455 S
Zn106 O112 2.114 . S
Zn106 O115 2.120 1_445 S
Zn106 O117 2.120 . S
Zn106 O118 2.114 1_455 S
Zn106 O121 2.080 . S
C107 O112 1.166 . S
C107 O113 1.182 . S
C108 O114 1.167 1_655 S
C108 O115 1.299 . S
O109 Zn106 2.080 1_655 S
O109 C123 1.305 . S
O110 Zn104 1.920 . S
O110 C123 1.234 . S
C111 O116 1.167 1_455 S
C111 O117 1.299 . S
O112 Zn106 2.114 . S
O112 C107 1.166 . S
O113 Zn105 1.905 1_545 S
O113 C107 1.182 . S
O114 Zn105 1.898 . S
O114 C108 1.167 1_455 S
O115 Zn106 2.120 1_665 S
O115 C108 1.299 . S
O116 Zn104 1.898 . S
O116 C111 1.167 1_655 S
O117 Zn106 2.120 . S
O117 C111 1.299 . S
O118 Zn106 2.114 1_655 S
O118 C120 1.166 . S
O119 Zn104 1.905 . S
O119 C120 1.182 . S
C120 O118 1.166 . S
C120 O119 1.182 . S
O121 Zn106 2.080 . S
O121 C124 1.305 1_545 S
O122 Zn105 1.920 . S
O122 C124 1.234 . S
C123 O109 1.305 . S
C123 O110 1.234 . S
C124 O121 1.305 1_565 S
C124 O122 1.234 . S
Zn125 O131 1.920 1_556 S
Zn125 O137 1.898 . S
Zn125 O140 1.905 . S
Zn126 O134 1.905 . S
Zn126 O135 1.898 . S
Zn126 O143 1.920 . S
Zn127 O130 2.080 . S
Zn127 O133 2.114 1_545 S
Zn127 O136 2.120 1_545 S
Zn127 O138 2.120 1_554 S
Zn127 O139 2.114 1_544 S
Zn127 O142 2.080 . S
C128 O133 1.166 . S
C128 O134 1.182 . S
C129 O135 1.167 . S
C129 O136 1.299 . S
O130 Zn127 2.080 . S
O130 C144 1.305 . S
O131 Zn125 1.920 1_554 S
O131 C144 1.234 . S
C132 O137 1.167 . S
C132 O138 1.299 . S
O133 Zn127 2.114 1_565 S
O133 C128 1.166 . S
O134 Zn126 1.905 . S
O134 C128 1.182 . S
O135 Zn126 1.898 . S
O135 C129 1.167 . S
O136 Zn127 2.120 1_565 S
O136 C129 1.299 . S
O137 Zn125 1.898 . S
O137 C132 1.167 . S
O138 Zn127 2.120 1_556 S
O138 C132 1.299 . S
O139 Zn127 2.114 1_566 S
O139 C141 1.166 . S
O140 Zn125 1.905 . S
O140 C141 1.182 1_545 S
C141 O139 1.166 . S
C141 O140 1.182 1_565 S
O142 Zn127 2.080 . S
O142 C145 1.305 . S
O143 Zn126 1.920 . S
O143 C145 1.234 1_565 S
C144 O130 1.305 . S
C144 O131 1.234 . S
C145 O142 1.305 . S
C145 O143 1.234 1_545 S
Zn146 O152 1.920 . S
Zn146 O158 1.898 . S
Zn146 O161 1.905 . S
Zn147 O155 1.905 . S
Zn147 O156 1.898 . S
Zn147 O164 1.920 . S
Zn148 O151 2.080 . S
Zn148 O154 2.114 . S
Zn148 O157 2.120 . S
Zn148 O159 2.120 . S
Zn148 O160 2.114 . S
Zn148 O163 2.080 . S
C149 O154 1.166 . S
C149 O155 1.182 . S
C150 O156 1.167 . S
C150 O157 1.299 . S
O151 Zn148 2.080 . S
O151 C165 1.305 . S
O152 Zn146 1.920 . S
O152 C165 1.234 . S
C153 O158 1.167 . S
C153 O159 1.299 . S
O154 Zn148 2.114 . S
O154 C149 1.166 . S
O155 Zn147 1.905 . S
O155 C149 1.182 . S
O156 Zn147 1.898 . S
O156 C150 1.167 . S
O157 Zn148 2.120 . S
O157 C150 1.299 . S
O158 Zn146 1.898 . S
O158 C153 1.167 . S
O159 Zn148 2.120 . S
O159 C153 1.299 . S
O160 Zn148 2.114 . S
O160 C162 1.166 . S
O161 Zn146 1.905 . S
O161 C162 1.182 . S
C162 O160 1.166 . S
C162 O161 1.182 . S
O163 Zn148 2.080 . S
O163 C166 1.305 . S
O164 Zn147 1.920 . S
O164 C166 1.234 . S
C165 O151 1.305 . S
C165 O152 1.234 . S
C166 O163 1.305 . S
C166 O164 1.234 . S
Zn167 O173 1.920 . S
Zn167 O179 1.898 . S
Zn167 O182 1.905 . S
Zn168 O176 1.905 1_655 S
Zn168 O177 1.898 . S
Zn168 O185 1.920 . S
Zn169 O172 2.080 1_554 S
Zn169 O175 2.114 . S
Zn169 O178 2.120 1_454 S
Zn169 O180 2.120 . S
Zn169 O181 2.114 1_554 S
Zn169 O184 2.080 . S
C170 O175 1.166 . S
C170 O176 1.182 . S
C171 O177 1.167 1_556 S
C171 O178 1.299 . S
O172 Zn169 2.080 1_556 S
O172 C186 1.305 . S
O173 Zn167 1.920 . S
O173 C186 1.234 . S
C174 O179 1.167 1_554 S
C174 O180 1.299 . S
O175 Zn169 2.114 . S
O175 C170 1.166 . S
O176 Zn168 1.905 1_455 S
O176 C170 1.182 . S
O177 Zn168 1.898 . S
O177 C171 1.167 1_554 S
O178 Zn169 2.120 1_656 S
O178 C171 1.299 . S
O179 Zn167 1.898 . S
O179 C174 1.167 1_556 S
O180 Zn169 2.120 . S
O180 C174 1.299 . S
O181 Zn169 2.114 1_556 S
O181 C183 1.166 . S
O182 Zn167 1.905 . S
O182 C183 1.182 . S
C183 O181 1.166 . S
C183 O182 1.182 . S
O184 Zn169 2.080 . S
O184 C187 1.305 . S
O185 Zn168 1.920 . S
O185 C187 1.234 1_655 S
C186 O172 1.305 . S
C186 O173 1.234 . S
C187 O184 1.305 . S
C187 O185 1.234 1_455 S
H188 C194 0.930 . S
H189 C197 0.930 . S
H190 C198 0.930 . S
H191 C199 0.930 . S
H192 C202 0.930 . S
H193 C203 0.930 . S
C194 H188 0.930 . S
C194 C195 1.355 . S
C194 C196 1.415 . S
C195 C194 1.355 . S
C195 C197 1.419 . S
C196 C194 1.415 . S
C196 C201 1.425 . S
C196 C203 1.409 . S
C197 H189 0.930 . S
C197 C195 1.419 . S
C197 C198 1.362 . S
C198 H190 0.930 . S
C198 C197 1.362 . S
C198 C201 1.409 . S
C199 H191 0.930 . S
C199 C200 1.355 . S
C199 C201 1.415 . S
C200 C199 1.355 . S
C200 C202 1.419 . S
C201 C196 1.425 . S
C201 C198 1.409 . S
C201 C199 1.415 . S
C202 H192 0.930 . S
C202 C200 1.419 . S
C202 C203 1.362 . S
C203 H193 0.930 . S
C203 C196 1.409 . S
C203 C202 1.362 . S
H204 C210 0.930 . S
H205 C213 0.930 . S
H206 C214 0.930 . S
H207 C215 0.930 . S
H208 C218 0.930 . S
H209 C219 0.930 . S
C210 H204 0.930 . S
C210 C211 1.355 . S
C210 C212 1.415 . S
C211 C210 1.355 . S
C211 C213 1.419 . S
C212 C210 1.415 . S
C212 C217 1.425 . S
C212 C219 1.409 . S
C213 H205 0.930 . S
C213 C211 1.419 . S
C213 C214 1.362 . S
C214 H206 0.930 . S
C214 C213 1.362 . S
C214 C217 1.409 . S
C215 H207 0.930 . S
C215 C216 1.355 . S
C215 C217 1.415 . S
C216 C215 1.355 . S
C216 C218 1.419 . S
C217 C212 1.425 . S
C217 C214 1.409 . S
C217 C215 1.415 . S
C218 H208 0.930 . S
C218 C216 1.419 . S
C218 C219 1.362 . S
C219 H209 0.930 . S
C219 C212 1.409 . S
C219 C218 1.362 . S
H220 C226 0.930 . S
H221 C229 0.930 . S
H222 C230 0.930 . S
H223 C231 0.930 . S
H224 C234 0.930 . S
H225 C235 0.930 . S
C226 H220 0.930 . S
C226 C227 1.355 . S
C226 C228 1.415 . S
C227 C226 1.355 . S
C227 C229 1.419 . S
C228 C226 1.415 . S
C228 C233 1.425 . S
C228 C235 1.409 . S
C229 H221 0.930 . S
C229 C227 1.419 . S
C229 C230 1.362 . S
C230 H222 0.930 . S
C230 C229 1.362 . S
C230 C233 1.409 . S
C231 H223 0.930 . S
C231 C232 1.355 . S
C231 C233 1.415 . S
C232 C231 1.355 . S
C232 C234 1.419 . S
C233 C228 1.425 . S
C233 C230 1.409 . S
C233 C231 1.415 . S
C234 H224 0.930 . S
C234 C232 1.419 . S
C234 C235 1.362 . S
C235 H225 0.930 . S
C235 C228 1.409 . S
C235 C234 1.362 . S
H236 C242 0.930 . S
H237 C245 0.930 . S
H238 C246 0.930 . S
H239 C247 0.930 . S
H240 C250 0.930 . S
H241 C251 0.930 . S
C242 H236 0.930 . S
C242 C243 1.355 . S
C242 C244 1.415 . S
C243 C242 1.355 . S
C243 C245 1.419 . S
C244 C242 1.415 . S
C244 C249 1.425 . S
C244 C251 1.409 1_655 S
C245 H237 0.930 . S
C245 C243 1.419 . S
C245 C246 1.362 . S
C246 H238 0.930 . S
C246 C245 1.362 . S
C246 C249 1.409 . S
C247 H239 0.930 . S
C247 C248 1.355 1_655 S
C247 C249 1.415 . S
C248 C247 1.355 1_455 S
C248 C250 1.419 . S
C249 C244 1.425 . S
C249 C246 1.409 . S
C249 C247 1.415 . S
C250 H240 0.930 . S
C250 C248 1.419 . S
C250 C251 1.362 . S
C251 H241 0.930 . S
C251 C244 1.409 1_455 S
C251 C250 1.362 . S
H252 C258 0.930 . S
H253 C261 0.930 . S
H254 C262 0.930 . S
H255 C263 0.930 . S
H256 C266 0.930 . S
H257 C267 0.930 . S
C258 H252 0.930 . S
C258 C259 1.355 . S
C258 C260 1.415 . S
C259 C258 1.355 . S
C259 C261 1.419 . S
C260 C258 1.415 . S
C260 C265 1.425 . S
C260 C267 1.409 . S
C261 H253 0.930 . S
C261 C259 1.419 . S
C261 C262 1.362 . S
C262 H254 0.930 . S
C262 C261 1.362 . S
C262 C265 1.409 . S
C263 H255 0.930 . S
C263 C264 1.355 . S
C263 C265 1.415 . S
C264 C263 1.355 . S
C264 C266 1.419 . S
C265 C260 1.425 . S
C265 C262 1.409 . S
C265 C263 1.415 . S
C266 H256 0.930 . S
C266 C264 1.419 . S
C266 C267 1.362 . S
C267 H257 0.930 . S
C267 C260 1.409 . S
C267 C266 1.362 . S
H268 C274 0.930 . S
H269 C277 0.930 . S
H270 C278 0.930 . S
H271 C279 0.930 . S
H272 C282 0.935 . S
H273 C283 0.930 1_545 S
C274 H268 0.930 . S
C274 C275 1.355 . S
C274 C276 1.415 . S
C275 C274 1.355 . S
C275 C277 1.419 . S
C276 C274 1.415 . S
C276 C281 1.425 . S
C276 C283 1.409 . S
C277 H269 0.930 . S
C277 C275 1.419 . S
C277 C278 1.362 . S
C278 H270 0.930 . S
C278 C277 1.362 . S
C278 C281 1.409 . S
C279 H271 0.930 . S
C279 C280 1.355 . S
C279 C281 1.415 . S
C280 C279 1.355 . S
C280 C282 1.416 1_565 S
C281 C276 1.425 . S
C281 C278 1.409 . S
C281 C279 1.415 . S
C282 H272 0.935 . S
C282 C280 1.416 1_545 S
C282 C283 1.360 1_545 S
C283 H273 0.930 1_565 S
C283 C276 1.409 . S
C283 C282 1.360 1_565 S
H284 C290 0.930 . S
H285 C293 0.930 . S
H286 C294 0.930 . S
H287 C295 0.930 . S
H288 C298 0.930 1_554 S
H289 C299 0.930 1_554 S
C290 H284 0.930 . S
C290 C291 1.355 . S
C290 C292 1.415 . S
C291 C290 1.355 . S
C291 C293 1.419 . S
C292 C290 1.415 . S
C292 C297 1.425 . S
C292 C299 1.409 . S
C293 H285 0.930 . S
C293 C291 1.419 . S
C293 C294 1.362 . S
C294 H286 0.930 . S
C294 C293 1.362 . S
C294 C297 1.409 . S
C295 H287 0.930 . S
C295 C296 1.355 . S
C295 C297 1.415 . S
C296 C295 1.355 . S
C296 C298 1.419 . S
C297 C292 1.425 . S
C297 C294 1.409 . S
C297 C295 1.415 . S
C298 H288 0.930 1_556 S
C298 C296 1.419 . S
C298 C299 1.362 . S
C299 H289 0.930 1_556 S
C299 C292 1.409 . S
C299 C298 1.362 . S
H300 C306 0.930 . S
H301 C309 0.930 . S
H302 C310 0.930 . S
H303 C311 0.930 . S
H304 C314 0.930 . S
H305 C315 0.930 . S
C306 H300 0.930 . S
C306 C307 1.355 . S
C306 C308 1.415 . S
C307 C306 1.355 . S
C307 C309 1.419 . S
C308 C306 1.415 . S
C308 C313 1.425 . S
C308 C315 1.409 . S
C309 H301 0.930 . S
C309 C307 1.419 . S
C309 C310 1.362 . S
C310 H302 0.930 . S
C310 C309 1.362 . S
C310 C313 1.409 . S
C311 H303 0.930 . S
C311 C312 1.355 . S
C311 C313 1.415 . S
C312 C311 1.355 . S
C312 C314 1.419 . S
C313 C308 1.425 . S
C313 C310 1.409 . S
C313 C311 1.415 . S
C314 H304 0.930 . S
C314 C312 1.419 . S
C314 C315 1.362 . S
C315 H305 0.930 . S
C315 C308 1.409 . S
C315 C314 1.362 . S
H316 C322 0.930 . S
H317 C325 0.930 . S
H318 C326 0.930 . S
H319 C327 0.930 . S
H320 C330 0.930 . S
H321 C331 0.930 . S
C322 H316 0.930 . S
C322 C323 1.355 . S
C322 C324 1.415 . S
C323 C322 1.355 . S
C323 C325 1.419 . S
C324 C322 1.415 . S
C324 C329 1.425 . S
C324 C331 1.409 . S
C325 H317 0.930 . S
C325 C323 1.419 . S
C325 C326 1.362 . S
C326 H318 0.930 . S
C326 C325 1.362 . S
C326 C329 1.409 . S
C327 H319 0.930 . S
C327 C328 1.355 . S
C327 C329 1.415 . S
C328 C327 1.355 . S
C328 C330 1.419 . S
C329 C324 1.425 . S
C329 C326 1.409 . S
C329 C327 1.415 . S
C330 H320 0.930 . S
C330 C328 1.419 . S
C330 C331 1.362 . S
C331 H321 0.930 . S
C331 C324 1.409 . S
C331 C330 1.362 . S
H332 C338 0.930 . S
H333 C341 0.930 . S
H334 C342 0.930 . S
H335 C343 0.930 . S
H336 C346 0.930 . S
H337 C347 0.930 . S
C338 H332 0.930 . S
C338 C339 1.355 . S
C338 C340 1.415 . S
C339 C338 1.355 . S
C339 C341 1.419 . S
C340 C338 1.415 . S
C340 C345 1.425 . S
C340 C347 1.409 . S
C341 H333 0.930 . S
C341 C339 1.419 . S
C341 C342 1.362 . S
C342 H334 0.930 . S
C342 C341 1.362 . S
C342 C345 1.409 . S
C343 H335 0.930 . S
C343 C344 1.355 . S
C343 C345 1.415 . S
C344 C343 1.355 . S
C344 C346 1.419 . S
C345 C340 1.425 . S
C345 C342 1.409 . S
C345 C343 1.415 . S
C346 H336 0.930 . S
C346 C344 1.419 . S
C346 C347 1.362 . S
C347 H337 0.930 . S
C347 C340 1.409 . S
C347 C346 1.362 . S
H348 C354 0.930 . S
H349 C357 0.930 . S
H350 C358 0.930 1_455 S
H351 C359 0.930 1_455 S
H352 C362 0.930 . S
H353 C363 0.930 . S
C354 H348 0.930 . S
C354 C355 1.355 . S
C354 C356 1.415 . S
C355 C354 1.355 . S
C355 C357 1.419 . S
C356 C354 1.415 . S
C356 C361 1.425 . S
C356 C363 1.409 . S
C357 H349 0.930 . S
C357 C355 1.419 . S
C357 C358 1.362 . S
C358 H350 0.930 1_655 S
C358 C357 1.362 . S
C358 C361 1.409 . S
C359 H351 0.930 1_655 S
C359 C360 1.355 . S
C359 C361 1.415 . S
C360 C359 1.355 . S
C360 C362 1.419 . S
C361 C356 1.425 . S
C361 C358 1.409 . S
C361 C359 1.415 . S
C362 H352 0.930 . S
C362 C360 1.419 . S
C362 C363 1.362 . S
C363 H353 0.930 . S
C363 C356 1.409 . S
C363 C362 1.362 . S
H364 C370 0.930 . S
H365 C373 0.930 . S
H366 C374 0.930 . S
H367 C375 0.930 . S
H368 C378 0.930 . S
H369 C379 0.930 . S
C370 H364 0.930 . S
C370 C371 1.355 . S
C370 C372 1.415 . S
C371 C370 1.355 . S
C371 C373 1.419 . S
C372 C370 1.415 . S
C372 C377 1.425 . S
C372 C379 1.409 . S
C373 H365 0.930 . S
C373 C371 1.419 . S
C373 C374 1.362 . S
C374 H366 0.930 . S
C374 C373 1.362 . S
C374 C377 1.409 . S
C375 H367 0.930 . S
C375 C376 1.355 . S
C375 C377 1.415 . S
C376 C375 1.355 . S
C376 C378 1.419 . S
C377 C372 1.425 . S
C377 C374 1.409 . S
C377 C375 1.415 . S
C378 H368 0.930 . S
C378 C376 1.419 . S
C378 C379 1.362 . S
C379 H369 0.930 . S
C379 C372 1.409 . S
C379 C378 1.362 . S
H380 C386 0.930 1_545 S
H381 C389 0.930 . S
H382 C390 0.930 . S
H383 C391 0.930 . S
H384 C394 0.930 . S
H385 C395 0.930 . S
C386 H380 0.930 1_565 S
C386 C387 1.355 . S
C386 C388 1.415 1_565 S
C387 C386 1.355 . S
C387 C389 1.419 1_655 S
C388 C386 1.415 1_545 S
C388 C393 1.425 1_645 S
C388 C395 1.409 . S
C389 H381 0.930 . S
C389 C387 1.419 1_455 S
C389 C390 1.362 . S
C390 H382 0.930 . S
C390 C389 1.362 . S
C390 C393 1.409 . S
C391 H383 0.930 . S
C391 C392 1.355 1_465 S
C391 C393 1.415 . S
C392 C391 1.355 1_645 S
C392 C394 1.419 . S
C393 C388 1.425 1_465 S
C393 C390 1.409 . S
C393 C391 1.415 . S
C394 H384 0.930 . S
C394 C392 1.419 . S
C394 C395 1.362 . S
C395 H385 0.930 . S
C395 C388 1.409 . S
C395 C394 1.362 . S
H396 C402 0.930 . S
H397 C405 0.930 . S
H398 C406 0.930 1_565 S
H399 C407 0.930 1_565 S
H400 C410 0.930 . S
H401 C411 0.930 . S
C402 H396 0.930 . S
C402 C403 1.355 . S
C402 C404 1.415 . S
C403 C402 1.355 . S
C403 C405 1.419 . S
C404 C402 1.415 . S
C404 C409 1.425 . S
C404 C411 1.409 . S
C405 H397 0.930 . S
C405 C403 1.419 . S
C405 C406 1.362 . S
C406 H398 0.930 1_545 S
C406 C405 1.362 . S
C406 C409 1.409 . S
C407 H399 0.930 1_545 S
C407 C408 1.355 . S
C407 C409 1.415 . S
C408 C407 1.355 . S
C408 C410 1.419 . S
C409 C404 1.425 . S
C409 C406 1.409 . S
C409 C407 1.415 . S
C410 H400 0.930 . S
C410 C408 1.419 . S
C410 C411 1.362 . S
C411 H401 0.930 . S
C411 C404 1.409 . S
C411 C410 1.362 . S
H412 C418 0.930 . S
H413 C421 0.930 . S
H414 C422 0.930 . S
H415 C423 0.930 . S
H416 C426 0.930 . S
H417 C427 0.930 . S
C418 H412 0.930 . S
C418 C419 1.355 . S
C418 C420 1.415 . S
C419 C418 1.355 . S
C419 C421 1.419 . S
C420 C418 1.415 . S
C420 C425 1.425 . S
C420 C427 1.409 . S
C421 H413 0.930 . S
C421 C419 1.419 . S
C421 C422 1.362 . S
C422 H414 0.930 . S
C422 C421 1.362 . S
C422 C425 1.409 . S
C423 H415 0.930 . S
C423 C424 1.355 . S
C423 C425 1.415 . S
C424 C423 1.355 . S
C424 C426 1.419 . S
C425 C420 1.425 . S
C425 C422 1.409 . S
C425 C423 1.415 . S
C426 H416 0.930 . S
C426 C424 1.419 . S
C426 C427 1.362 . S
C427 H417 0.930 . S
C427 C420 1.409 . S
C427 C426 1.362 . S
H428 C434 0.930 . S
H429 C437 0.930 . S
H430 C438 0.930 . S
H431 C439 0.930 . S
H432 C442 0.930 . S
H433 C443 0.930 . S
C434 H428 0.930 . S
C434 C435 1.355 . S
C434 C436 1.415 . S
C435 C434 1.355 . S
C435 C437 1.419 . S
C436 C434 1.415 . S
C436 C441 1.425 . S
C436 C443 1.409 . S
C437 H429 0.930 . S
C437 C435 1.419 . S
C437 C438 1.362 . S
C438 H430 0.930 . S
C438 C437 1.362 . S
C438 C441 1.409 . S
C439 H431 0.930 . S
C439 C440 1.355 . S
C439 C441 1.415 . S
C440 C439 1.355 . S
C440 C442 1.419 . S
C441 C436 1.425 . S
C441 C438 1.409 . S
C441 C439 1.415 . S
C442 H432 0.930 . S
C442 C440 1.419 . S
C442 C443 1.362 . S
C443 H433 0.930 . S
C443 C436 1.409 . S
C443 C442 1.362 . S
H444 C450 0.930 1_545 S
H445 C453 0.930 . S
H446 C454 0.930 . S
H447 C455 0.930 . S
H448 C458 0.930 1_554 S
H449 C459 0.930 . S
C450 H444 0.930 1_565 S
C450 C451 1.355 . S
C450 C452 1.415 . S
C451 C450 1.355 . S
C451 C453 1.419 . S
C452 C450 1.415 . S
C452 C457 1.425 . S
C452 C459 1.409 1_565 S
C453 H445 0.930 . S
C453 C451 1.419 . S
C453 C454 1.362 . S
C454 H446 0.930 . S
C454 C453 1.362 . S
C454 C457 1.409 . S
C455 H447 0.930 . S
C455 C456 1.355 . S
C455 C457 1.415 . S
C456 C455 1.355 . S
C456 C458 1.419 1_565 S
C457 C452 1.425 . S
C457 C454 1.409 . S
C457 C455 1.415 . S
C458 H448 0.930 1_556 S
C458 C456 1.419 1_545 S
C458 C459 1.362 . S
C459 H449 0.930 . S
C459 C452 1.409 1_545 S
C459 C458 1.362 . S
H460 C466 0.930 . S
H461 C469 0.930 . S
H462 C470 0.930 . S
H463 C471 0.930 . S
H464 C474 0.930 . S
H465 C475 0.930 . S
C466 H460 0.930 . S
C466 C467 1.355 . S
C466 C468 1.415 . S
C467 C466 1.355 . S
C467 C469 1.419 . S
C468 C466 1.415 . S
C468 C473 1.425 . S
C468 C475 1.409 . S
C469 H461 0.930 . S
C469 C467 1.419 . S
C469 C470 1.362 . S
C470 H462 0.930 . S
C470 C469 1.362 . S
C470 C473 1.409 . S
C471 H463 0.930 . S
C471 C472 1.355 . S
C471 C473 1.415 . S
C472 C471 1.355 . S
C472 C474 1.419 . S
C473 C468 1.425 . S
C473 C470 1.409 . S
C473 C471 1.415 . S
C474 H464 0.930 . S
C474 C472 1.419 . S
C474 C475 1.362 . S
C475 H465 0.930 . S
C475 C468 1.409 . S
C475 C474 1.362 . S
H476 C482 0.930 . S
H477 C485 0.930 . S
H478 C486 0.930 . S
H479 C487 0.930 . S
H480 C490 0.930 . S
H481 C491 0.930 . S
C482 H476 0.930 . S
C482 C483 1.355 . S
C482 C484 1.415 . S
C483 C482 1.355 . S
C483 C485 1.419 . S
C484 C482 1.415 . S
C484 C489 1.425 . S
C484 C491 1.409 . S
C485 H477 0.930 . S
C485 C483 1.419 . S
C485 C486 1.362 . S
C486 H478 0.930 . S
C486 C485 1.362 . S
C486 C489 1.409 . S
C487 H479 0.930 . S
C487 C488 1.355 . S
C487 C489 1.415 . S
C488 C487 1.355 . S
C488 C490 1.419 . S
C489 C484 1.425 . S
C489 C486 1.409 . S
C489 C487 1.415 . S
C490 H480 0.930 . S
C490 C488 1.419 . S
C490 C491 1.362 . S
C491 H481 0.930 . S
C491 C484 1.409 . S
C491 C490 1.362 . S
H492 C498 0.930 . S
H493 C501 0.930 . S
H494 C502 0.930 . S
H495 C503 0.930 . S
H496 C506 0.930 . S
H497 C507 0.930 . S
C498 H492 0.930 . S
C498 C499 1.355 . S
C498 C500 1.415 . S
C499 C498 1.355 . S
C499 C501 1.419 . S
C500 C498 1.415 . S
C500 C505 1.425 . S
C500 C507 1.409 . S
C501 H493 0.930 . S
C501 C499 1.419 . S
C501 C502 1.362 . S
C502 H494 0.930 . S
C502 C501 1.362 . S
C502 C505 1.409 . S
C503 H495 0.930 . S
C503 C504 1.355 . S
C503 C505 1.415 . S
C504 C503 1.355 . S
C504 C506 1.419 . S
C505 C500 1.425 . S
C505 C502 1.409 . S
C505 C503 1.415 . S
C506 H496 0.930 . S
C506 C504 1.419 . S
C506 C507 1.362 . S
C507 H497 0.930 . S
C507 C500 1.409 . S
C507 C506 1.362 . S
H508 C514 0.930 . S
H509 C517 0.930 . S
H510 C518 0.930 . S
H511 C519 0.930 . S
H512 C522 0.930 . S
H513 C523 0.930 . S
C514 H508 0.930 . S
C514 C515 1.355 . S
C514 C516 1.415 . S
C515 C514 1.355 . S
C515 C517 1.419 1_456 S
C516 C514 1.415 . S
C516 C521 1.425 1_556 S
C516 C523 1.409 . S
C517 H509 0.930 . S
C517 C515 1.419 1_654 S
C517 C518 1.362 . S
C518 H510 0.930 . S
C518 C517 1.362 . S
C518 C521 1.409 1_655 S
C519 H511 0.930 . S
C519 C520 1.355 1_554 S
C519 C521 1.415 . S
C520 C519 1.355 1_556 S
C520 C522 1.419 . S
C521 C516 1.425 1_554 S
C521 C518 1.409 1_455 S
C521 C519 1.415 . S
C522 H512 0.930 . S
C522 C520 1.419 . S
C522 C523 1.362 . S
C523 H513 0.930 . S
C523 C516 1.409 . S
C523 C522 1.362 . S
H524 C530 0.930 . S
H525 C533 0.930 . S
H526 C534 0.930 1_556 S
H527 C535 0.930 . S
H528 C538 0.930 . S
H529 C539 0.930 . S
C530 H524 0.930 . S
C530 C531 1.355 . S
C530 C532 1.415 . S
C531 C530 1.355 . S
C531 C533 1.419 . S
C532 C530 1.415 . S
C532 C537 1.425 . S
C532 C539 1.409 . S
C533 H525 0.930 . S
C533 C531 1.419 . S
C533 C534 1.362 . S
C534 H526 0.930 1_554 S
C534 C533 1.362 . S
C534 C537 1.409 . S
C535 H527 0.930 . S
C535 C536 1.355 . S
C535 C537 1.415 . S
C536 C535 1.355 . S
C536 C538 1.419 . S
C537 C532 1.425 . S
C537 C534 1.409 . S
C537 C535 1.415 . S
C538 H528 0.930 . S
C538 C536 1.419 . S
C538 C539 1.362 . S
C539 H529 0.930 . S
C539 C532 1.409 . S
C539 C538 1.362 . S
H540 C546 0.930 . S
H541 C549 0.930 . S
H542 C550 0.930 . S
H543 C551 0.930 . S
H544 C554 0.930 . S
H545 C555 0.930 . S
C546 H540 0.930 . S
C546 C547 1.355 . S
C546 C548 1.415 . S
C547 C546 1.355 . S
C547 C549 1.419 . S
C548 C546 1.415 . S
C548 C553 1.425 . S
C548 C555 1.409 . S
C549 H541 0.930 . S
C549 C547 1.419 . S
C549 C550 1.362 . S
C550 H542 0.930 . S
C550 C549 1.362 . S
C550 C553 1.409 . S
C551 H543 0.930 . S
C551 C552 1.355 . S
C551 C553 1.415 . S
C552 C551 1.355 . S
C552 C554 1.419 . S
C553 C548 1.425 . S
C553 C550 1.409 . S
C553 C551 1.415 . S
C554 H544 0.930 . S
C554 C552 1.419 . S
C554 C555 1.362 . S
C555 H545 0.930 . S
C555 C548 1.409 . S
C555 C554 1.362 . S
H556 C562 0.930 . S
H557 C565 0.930 . S
H558 C566 0.930 . S
H559 C567 0.930 . S
H560 C570 0.930 . S
H561 C571 0.930 . S
C562 H556 0.930 . S
C562 C563 1.355 . S
C562 C564 1.415 . S
C563 C562 1.355 . S
C563 C565 1.419 . S
C564 C562 1.415 . S
C564 C569 1.425 . S
C564 C571 1.409 . S
C565 H557 0.930 . S
C565 C563 1.419 . S
C565 C566 1.362 . S
C566 H558 0.930 . S
C566 C565 1.362 . S
C566 C569 1.409 . S
C567 H559 0.930 . S
C567 C568 1.355 . S
C567 C569 1.415 . S
C568 C567 1.355 . S
C568 C570 1.419 . S
C569 C564 1.425 . S
C569 C566 1.409 . S
C569 C567 1.415 . S
C570 H560 0.930 . S
C570 C568 1.419 . S
C570 C571 1.362 . S
C571 H561 0.930 . S
C571 C564 1.409 . S
C571 C570 1.362 . S
C195 C9 1.906 . S
C200 C107 1.751 . S
C211 C21 1.555 . S
C216 C141 1.383 . S
C232 C153 1.286 . S
C227 C30 1.266 . S
C243 C43 1.240 . S
C248 C187 1.285 . S
C264 C144 1.346 . S
C259 C4 1.422 . S
C280 C124 1.777 . S
C275 C22 1.950 . S
C296 C171 1.107 . S
C291 C34 1.241 . S
C312 C162 1.347 . S
C307 C48 1.385 . S
C323 C8 1.621 . S
C328 C170 1.506 . S
C344 C132 1.347 . S
C339 C35 1.514 . S
C355 C47 1.578 . S
C360 C108 1.479 . S
C371 C17 1.395 . S
C376 C165 1.329 . S
C392 C123 1.500 . S
C387 C60 1.617 . S
C403 C74 1.829 . S
C408 C145 1.728 . S
C419 C82 1.202 . S
C424 C150 1.169 . S
C435 C100 1.845 . S
C440 C183 1.721 . S
C451 C61 1.833 . S
C456 C128 1.752 1_556 S
C472 C120 1.612 . S
C467 C73 1.686 . S
C488 C174 1.531 . S
C483 C87 1.638 . S
C504 C166 1.224 . S
C499 C95 1.232 . S
C515 C56 1.530 1_455 S
C520 C186 1.519 . S
C536 C129 1.574 . S
C531 C86 1.689 . S
C552 C111 1.462 . S
C547 C99 1.530 . S
C563 C69 1.510 . S
C568 C149 1.474 . S
