# Generated by pormake.
# Topology pyr, (3,6)-cn, num edge types: 1
# Building blocks:
#     Node 0, Type 0, BuildingBlock: BELTOD_clean_linker_0, # of connection points: 3
#     Node 1, Type 0, BuildingBlock: BELTOD_clean_linker_0, # of connection points: 3
#     Node 2, Type 0, BuildingBlock: BELTOD_clean_linker_0, # of connection points: 3
#     Node 3, Type 0, BuildingBlock: BELTOD_clean_linker_0, # of connection points: 3
#     Node 4, Type 0, BuildingBlock: BELTOD_clean_linker_0, # of connection points: 3
#     Node 5, Type 0, BuildingBlock: BELTOD_clean_linker_0, # of connection points: 3
#     Node 6, Type 0, BuildingBlock: BELTOD_clean_linker_0, # of connection points: 3
#     Node 7, Type 0, BuildingBlock: BELTOD_clean_linker_0, # of connection points: 3
#     Node 8, Type 1, BuildingBlock: BETDAH_clean_sbu_0, # of connection points: 6
#     Node 9, Type 1, BuildingBlock: BETDAH_clean_sbu_0, # of connection points: 6
#     Node 10, Type 1, BuildingBlock: BETDAH_clean_sbu_0, # of connection points: 6
#     Node 11, Type 1, BuildingBlock: BETDAH_clean_sbu_0, # of connection points: 6
#     Edge 12, Type (0, 1), BuildingBlock: TEMPAE_clean_linker_10, # of connection points: 2
#     Edge 13, Type (0, 1), BuildingBlock: TEMPAE_clean_linker_10, # of connection points: 2
#     Edge 14, Type (0, 1), BuildingBlock: TEMPAE_clean_linker_10, # of connection points: 2
#     Edge 15, Type (0, 1), BuildingBlock: TEMPAE_clean_linker_10, # of connection points: 2
#     Edge 16, Type (0, 1), BuildingBlock: TEMPAE_clean_linker_10, # of connection points: 2
#     Edge 17, Type (0, 1), BuildingBlock: TEMPAE_clean_linker_10, # of connection points: 2
#     Edge 18, Type (0, 1), BuildingBlock: TEMPAE_clean_linker_10, # of connection points: 2
#     Edge 19, Type (0, 1), BuildingBlock: TEMPAE_clean_linker_10, # of connection points: 2
#     Edge 20, Type (0, 1), BuildingBlock: TEMPAE_clean_linker_10, # of connection points: 2
#     Edge 21, Type (0, 1), BuildingBlock: TEMPAE_clean_linker_10, # of connection points: 2
#     Edge 22, Type (0, 1), BuildingBlock: TEMPAE_clean_linker_10, # of connection points: 2
#     Edge 23, Type (0, 1), BuildingBlock: TEMPAE_clean_linker_10, # of connection points: 2
#     Edge 24, Type (0, 1), BuildingBlock: TEMPAE_clean_linker_10, # of connection points: 2
#     Edge 25, Type (0, 1), BuildingBlock: TEMPAE_clean_linker_10, # of connection points: 2
#     Edge 26, Type (0, 1), BuildingBlock: TEMPAE_clean_linker_10, # of connection points: 2
#     Edge 27, Type (0, 1), BuildingBlock: TEMPAE_clean_linker_10, # of connection points: 2
#     Edge 28, Type (0, 1), BuildingBlock: TEMPAE_clean_linker_10, # of connection points: 2
#     Edge 29, Type (0, 1), BuildingBlock: TEMPAE_clean_linker_10, # of connection points: 2
#     Edge 30, Type (0, 1), BuildingBlock: TEMPAE_clean_linker_10, # of connection points: 2
#     Edge 31, Type (0, 1), BuildingBlock: TEMPAE_clean_linker_10, # of connection points: 2
#     Edge 32, Type (0, 1), BuildingBlock: TEMPAE_clean_linker_10, # of connection points: 2
#     Edge 33, Type (0, 1), BuildingBlock: TEMPAE_clean_linker_10, # of connection points: 2
#     Edge 34, Type (0, 1), BuildingBlock: TEMPAE_clean_linker_10, # of connection points: 2
#     Edge 35, Type (0, 1), BuildingBlock: TEMPAE_clean_linker_10, # of connection points: 2
# Relax obj value: 0.103
# Max RMSD: 0.127
# Mean RMSD: 0.060
data_MOF--net-pyr--node1-BETDAH_clean_sbu_0--node2-BELTOD_clean_linker_0--edge1-TEMPAE_clean_linker_10
_symmetry_space_group_name_H-M    P1
_symmetry_Int_Tables_number       1
_symmetry_cell_setting            triclinic
loop_
_symmetry_equiv_pos_as_xyz
'x, y, z'
_cell_length_a     43.943065
_cell_length_b     46.676218
_cell_length_c     41.8051
_cell_angle_alpha  91.556989
_cell_angle_beta   88.610367
_cell_angle_gamma 99.866691
loop_
_atom_site_label
_atom_site_type_symbol
_atom_site_fract_x
_atom_site_fract_y
_atom_site_fract_z
_atom_type_partial_charge
P0 P 0.36477 0.30893 0.25878 0.0
H1 H 0.42837 0.29936 0.24581 0.0
H2 H 0.4495 0.25919 0.2204 0.0
H3 H 0.35713 0.21775 0.19528 0.0
H4 H 0.33625 0.25685 0.22299 0.0
H5 H 0.34677 0.36511 0.27275 0.0
H6 H 0.30786 0.38992 0.24977 0.0
H7 H 0.29517 0.32593 0.17275 0.0
H8 H 0.3334 0.30072 0.1961 0.0
H9 H 0.37083 0.26106 0.30062 0.0
H10 H 0.3025 0.31512 0.28357 0.0
O11 O 0.39312 0.33084 0.27761 0.0
H12 H 0.33393 0.23131 0.33641 0.0
H13 H 0.26672 0.28647 0.31962 0.0
C14 C 0.38074 0.28157 0.23556 0.0
C15 C 0.41271 0.28178 0.23451 0.0
C16 C 0.4248 0.2587 0.21982 0.0
C17 C 0.40516 0.23496 0.20559 0.0
C18 C 0.37311 0.23522 0.20636 0.0
C19 C 0.36107 0.25799 0.2216 0.0
C20 C 0.3432 0.33101 0.23621 0.0
C21 C 0.33628 0.35682 0.25042 0.0
C22 C 0.31378 0.3708 0.23754 0.0
C23 C 0.29841 0.35968 0.20966 0.0
C24 C 0.30672 0.33491 0.1943 0.0
C25 C 0.32867 0.3205 0.20766 0.0
C26 C 0.33935 0.28995 0.28864 0.0
C27 C 0.3482 0.26683 0.30484 0.0
C28 C 0.32725 0.25 0.32544 0.0
C29 C 0.29734 0.25635 0.33022 0.0
C30 C 0.28942 0.28073 0.31573 0.0
C31 C 0.31014 0.29728 0.29506 0.0
P32 P 0.3096 0.90656 0.58419 0.0
H33 H 0.3615 0.9403 0.61776 0.0
H34 H 0.37169 0.94511 0.67478 0.0
H35 H 0.27734 0.90492 0.69574 0.0
H36 H 0.26661 0.90291 0.63906 0.0
H37 H 0.32472 0.86757 0.53336 0.0
H38 H 0.32675 0.81534 0.5321 0.0
H39 H 0.3054 0.81167 0.63337 0.0
H40 H 0.30379 0.86301 0.6349 0.0
H41 H 0.2753 0.95341 0.58144 0.0
H42 H 0.25801 0.86004 0.56579 0.0
O43 O 0.33433 0.92624 0.5591 0.0
H44 H 0.21964 0.95285 0.58555 0.0
H45 H 0.20262 0.85979 0.56969 0.0
C46 C 0.31358 0.92088 0.62426 0.0
C47 C 0.34271 0.93381 0.6347 0.0
C48 C 0.34858 0.93595 0.66725 0.0
C49 C 0.32574 0.92386 0.68954 0.0
C50 C 0.29554 0.91409 0.6792 0.0
C51 C 0.28937 0.9131 0.64666 0.0
C52 C 0.31527 0.86956 0.5843 0.0
C53 C 0.32085 0.85555 0.5553 0.0
C54 C 0.32115 0.82576 0.55444 0.0
C55 C 0.31583 0.80988 0.58263 0.0
C56 C 0.3093 0.82368 0.61139 0.0
C57 C 0.30895 0.85331 0.61222 0.0
C58 C 0.27076 0.90689 0.57368 0.0
C59 C 0.25963 0.93303 0.57785 0.0
C60 C 0.2281 0.9326 0.58087 0.0
C61 C 0.20765 0.90605 0.57924 0.0
C62 C 0.21847 0.88022 0.57191 0.0
C63 C 0.2501 0.88059 0.5693 0.0
P64 P 0.67409 0.34247 0.83197 0.0
H65 H 0.74061 0.34047 0.8303 0.0
H66 H 0.78462 0.36625 0.8586 0.0
H67 H 0.72475 0.415 0.91271 0.0
H68 H 0.68045 0.38974 0.88237 0.0
H69 H 0.62378 0.29439 0.81698 0.0
H70 H 0.59891 0.25199 0.84675 0.0
H71 H 0.64655 0.28749 0.9318 0.0
H72 H 0.67181 0.32951 0.90167 0.0
H73 H 0.6983 0.3791 0.77893 0.0
H74 H 0.60962 0.35565 0.82563 0.0
O75 O 0.68966 0.32122 0.80579 0.0
H76 H 0.67552 0.40428 0.73823 0.0
H77 H 0.58638 0.3827 0.78594 0.0
C78 C 0.70682 0.36301 0.85389 0.0
C79 C 0.73667 0.35681 0.84803 0.0
C80 C 0.76215 0.37153 0.86482 0.0
C81 C 0.75885 0.39276 0.88872 0.0
C82 C 0.72877 0.39913 0.89445 0.0
C83 C 0.70316 0.38452 0.87718 0.0
C84 C 0.64935 0.31581 0.85693 0.0
C85 C 0.62821 0.29357 0.84228 0.0
C86 C 0.61404 0.26909 0.85944 0.0
C87 C 0.62061 0.26591 0.89191 0.0
C88 C 0.64108 0.28873 0.90682 0.0
C89 C 0.65528 0.31321 0.88959 0.0
C90 C 0.65597 0.36552 0.80581 0.0
C91 C 0.67386 0.38003 0.78094 0.0
C92 C 0.66056 0.39478 0.75745 0.0
C93 C 0.62866 0.39618 0.75804 0.0
C94 C 0.61083 0.38209 0.7837 0.0
C95 C 0.62422 0.36681 0.80701 0.0
P96 P 0.84185 0.69693 0.34546 0.0
H97 H 0.87227 0.75443 0.3262 0.0
H98 H 0.89584 0.79792 0.35606 0.0
H99 H 0.88932 0.74859 0.44249 0.0
H100 H 0.86539 0.70482 0.41228 0.0
H101 H 0.82542 0.67593 0.2808 0.0
H102 H 0.8493 0.64952 0.23955 0.0
H103 H 0.92267 0.64104 0.30388 0.0
H104 H 0.89897 0.6695 0.34497 0.0
H105 H 0.80455 0.71298 0.39942 0.0
H106 H 0.81565 0.63405 0.34797 0.0
O107 O 0.81961 0.71444 0.32397 0.0
H108 H 0.76029 0.68681 0.42882 0.0
H109 H 0.7706 0.60775 0.37666 0.0
C110 C 0.86679 0.72621 0.36683 0.0
C111 C 0.87638 0.75269 0.35145 0.0
C112 C 0.88959 0.77774 0.36869 0.0
C113 C 0.89403 0.77702 0.40187 0.0
C114 C 0.88621 0.75001 0.417 0.0
C115 C 0.87261 0.72488 0.39967 0.0
C116 C 0.86057 0.67545 0.31604 0.0
C117 C 0.84682 0.66871 0.28618 0.0
C118 C 0.86047 0.65299 0.26244 0.0
C119 C 0.88822 0.64266 0.26776 0.0
C120 C 0.90169 0.64887 0.29821 0.0
C121 C 0.88803 0.66506 0.32202 0.0
C122 C 0.8141 0.67544 0.37197 0.0
C123 C 0.79797 0.6898 0.39499 0.0
C124 C 0.77219 0.67485 0.41143 0.0
C125 C 0.76145 0.64513 0.40496 0.0
C126 C 0.77826 0.63053 0.38257 0.0
C127 C 0.80419 0.64558 0.36613 0.0
P128 P 0.68891 0.79309 0.84097 0.0
H129 H 0.65798 0.78863 0.90346 0.0
H130 H 0.61808 0.81513 0.92468 0.0
H131 H 0.59713 0.83581 0.82867 0.0
H132 H 0.6361 0.8087 0.80744 0.0
H133 H 0.74843 0.77824 0.82759 0.0
H134 H 0.77219 0.7362 0.83859 0.0
H135 H 0.6864 0.69329 0.88083 0.0
H136 H 0.66209 0.73577 0.86894 0.0
H137 H 0.70058 0.84833 0.80936 0.0
H138 H 0.6908 0.7576 0.78166 0.0
O139 O 0.7121 0.81869 0.86168 0.0
H140 H 0.72047 0.86193 0.75633 0.0
H141 H 0.71023 0.771 0.72779 0.0
C142 C 0.65038 0.79689 0.85392 0.0
C143 C 0.64354 0.79732 0.88685 0.0
C144 C 0.62087 0.81264 0.89899 0.0
C145 C 0.605 0.82784 0.87825 0.0
C146 C 0.60925 0.82439 0.8451 0.0
C147 C 0.63159 0.80878 0.833 0.0
C148 C 0.70353 0.76005 0.84743 0.0
C149 C 0.73443 0.75959 0.83865 0.0
C150 C 0.74797 0.73551 0.84474 0.0
C151 C 0.73101 0.71147 0.86018 0.0
C152 C 0.69981 0.71161 0.86867 0.0
C153 C 0.686 0.73578 0.86204 0.0
C154 C 0.69543 0.80206 0.79963 0.0
C155 C 0.70206 0.83134 0.7915 0.0
C156 C 0.71306 0.83904 0.76092 0.0
C157 C 0.71738 0.8175 0.73783 0.0
C158 C 0.7077 0.78807 0.74522 0.0
C159 C 0.69664 0.7804 0.77598 0.0
P160 P 0.7898 0.23627 0.39859 0.0
H161 H 0.78587 0.29187 0.42983 0.0
H162 H 0.74737 0.30737 0.4663 0.0
H163 H 0.69106 0.22195 0.45756 0.0
H164 H 0.72861 0.20733 0.41994 0.0
H165 H 0.84996 0.21966 0.3907 0.0
H166 H 0.87467 0.18608 0.42107 0.0
H167 H 0.80322 0.18248 0.4941 0.0
H168 H 0.77902 0.21635 0.46476 0.0
H169 H 0.76008 0.23989 0.33853 0.0
H170 H 0.77688 0.17226 0.40103 0.0
O171 O 0.81124 0.26321 0.37857 0.0
H172 H 0.72149 0.20471 0.31052 0.0
H173 H 0.73814 0.13724 0.37296 0.0
C174 C 0.75965 0.24892 0.4214 0.0
C175 C 0.76491 0.27679 0.43529 0.0
C176 C 0.74322 0.28529 0.45673 0.0
C177 C 0.7163 0.26571 0.46515 0.0
C178 C 0.71135 0.23762 0.45135 0.0
C179 C 0.73275 0.22937 0.42949 0.0
C180 C 0.81283 0.2206 0.42541 0.0
C181 C 0.84043 0.21272 0.41391 0.0
C182 C 0.85437 0.19359 0.43108 0.0
C183 C 0.84051 0.18219 0.45954 0.0
C184 C 0.81415 0.19151 0.47223 0.0
C185 C 0.80039 0.21083 0.45526 0.0
C186 C 0.77154 0.20869 0.37152 0.0
C187 C 0.75641 0.21732 0.34536 0.0
C188 C 0.73424 0.1974 0.32969 0.0
C189 C 0.72703 0.16875 0.34017 0.0
C190 C 0.74364 0.15939 0.36477 0.0
C191 C 0.76591 0.17937 0.38049 0.0
P192 P 0.3639 0.69373 0.19431 0.0
H193 H 0.33534 0.69789 0.13296 0.0
H194 H 0.2848 0.67859 0.11113 0.0
H195 H 0.25454 0.64306 0.20317 0.0
H196 H 0.30528 0.66324 0.22504 0.0
H197 H 0.4238 0.727 0.17406 0.0
H198 H 0.43983 0.7757 0.1531 0.0
H199 H 0.34886 0.79522 0.17414 0.0
H200 H 0.3328 0.74598 0.19493 0.0
H201 H 0.3584 0.63474 0.21751 0.0
H202 H 0.39007 0.72064 0.25631 0.0
O203 O 0.38467 0.67661 0.16856 0.0
H204 H 0.37609 0.61338 0.26446 0.0
H205 H 0.40659 0.69949 0.30481 0.0
C206 C 0.32436 0.68218 0.18073 0.0
C207 C 0.31772 0.68629 0.14864 0.0
C208 C 0.28873 0.67485 0.13602 0.0
C209 C 0.26528 0.65878 0.15508 0.0
C210 C 0.27172 0.6554 0.18762 0.0
C211 C 0.30091 0.6669 0.20025 0.0
C212 C 0.37701 0.73245 0.18628 0.0
C213 C 0.40731 0.74179 0.17473 0.0
C214 C 0.41641 0.76974 0.16229 0.0
C215 C 0.39563 0.7896 0.16131 0.0
C216 C 0.36564 0.78073 0.17442 0.0
C217 C 0.35641 0.75249 0.18654 0.0
C218 C 0.37231 0.67943 0.23317 0.0
C219 C 0.36845 0.64914 0.23666 0.0
C220 C 0.37864 0.63683 0.26398 0.0
C221 C 0.39297 0.65431 0.28936 0.0
C222 C 0.39622 0.68488 0.28604 0.0
C223 C 0.38628 0.69722 0.25831 0.0
P224 P 0.17418 0.36254 0.71387 0.0
H225 H 0.19858 0.32105 0.67208 0.0
H226 H 0.1751 0.27688 0.64334 0.0
H227 H 0.08447 0.2951 0.66908 0.0
H228 H 0.10837 0.33958 0.698 0.0
H229 H 0.24106 0.37394 0.72212 0.0
H230 H 0.28391 0.40006 0.69204 0.0
H231 H 0.22037 0.4298 0.62834 0.0
H232 H 0.17687 0.40148 0.65807 0.0
H233 H 0.13356 0.34309 0.76746 0.0
H234 H 0.16087 0.42353 0.71864 0.0
O235 O 0.19148 0.3443 0.73977 0.0
H236 H 0.10893 0.3674 0.80917 0.0
H237 H 0.13373 0.44857 0.75891 0.0
C238 C 0.15534 0.33386 0.68713 0.0
C239 C 0.17363 0.31593 0.67103 0.0
C240 C 0.16012 0.2904 0.65485 0.0
C241 C 0.12781 0.28203 0.65415 0.0
C242 C 0.10942 0.30081 0.669 0.0
C243 C 0.12306 0.32634 0.68556 0.0
C244 C 0.20542 0.38577 0.69272 0.0
C245 C 0.236 0.38615 0.70187 0.0
C246 C 0.26084 0.40155 0.68459 0.0
C247 C 0.2561 0.41769 0.65772 0.0
C248 C 0.22526 0.41757 0.64867 0.0
C249 C 0.20021 0.40164 0.6659 0.0
C250 C 0.14929 0.38125 0.73973 0.0
C251 C 0.13344 0.36615 0.76529 0.0
C252 C 0.11893 0.38058 0.78958 0.0
C253 C 0.11875 0.41092 0.78903 0.0
C254 C 0.13342 0.42565 0.76193 0.0
C255 C 0.14877 0.41114 0.738 0.0
Ho256 Ho 0.01931 0.03688 0.50272 0.0
Ho257 Ho 0.99639 1.01741 0.56942 0.0
C258 C 0.03232 0.08262 0.56378 0.0
C259 C 0.03608 0.06496 0.45145 0.0
C260 C 0.06499 0.08477 0.44374 0.0
C261 C 0.06394 0.11211 0.4312 0.0
C262 C 0.0913 0.13117 0.42424 0.0
C263 C 0.12008 0.12306 0.4296 0.0
C264 C 0.12109 0.09594 0.44282 0.0
C265 C 0.0938 0.07704 0.45003 0.0
C266 C 0.05897 1.01285 0.53637 0.0
C267 C 0.98223 0.97223 0.5073 0.0
C268 C 0.98066 0.98947 0.62086 0.0
C269 C 0.95275 0.96786 0.62723 0.0
C270 C 0.95544 0.93901 0.63352 0.0
C271 C 0.929 0.91806 0.63788 0.0
C272 C 0.89968 0.92573 0.63568 0.0
C273 C 0.89684 0.95433 0.62901 0.0
C274 C 0.92316 0.97527 0.62472 0.0
C275 C 0.95647 0.04197 0.53725 0.0
O276 O 0.02932 0.07877 0.53241 0.0
O277 O 0.02503 0.06061 0.5835 0.0
O278 O 0.03849 0.03766 0.45477 0.0
O279 O 0.01835 0.07438 0.47352 0.0
O280 O 0.05696 1.01001 0.50569 0.0
O281 O 0.04171 0.0295 0.54723 0.0
O282 O 0.98439 0.97583 0.53885 0.0
O283 O 0.99033 0.99432 0.48787 0.0
O284 O 0.9763 1.01618 0.61703 0.0
O285 O 1.00018 0.98143 0.59981 0.0
O286 O 0.9587 0.04347 0.568 0.0
O287 O 0.97334 1.02531 0.52503 0.0
H288 H 0.04197 0.11865 0.42667 0.0
H289 H 0.08995 0.15194 0.4139 0.0
H290 H 0.143 0.08938 0.44757 0.0
H291 H 0.09534 0.05635 0.46044 0.0
H292 H 0.97797 0.93272 0.635 0.0
H293 H 0.93136 0.89599 0.64331 0.0
H294 H 0.87424 0.96055 0.62773 0.0
H295 H 0.92022 0.9972 0.6194 0.0
Ho296 Ho 0.53122 0.03642 0.054 0.0
Ho297 Ho 0.47711 0.03235 1.01407 0.0
C298 C 0.47847 0.07048 0.08001 0.0
C299 C 0.58289 0.05602 0.08013 0.0
C300 C 0.58763 0.0689 0.11235 0.0
C301 C 0.57609 0.09436 0.1213 0.0
C302 C 0.57778 0.10458 0.15291 0.0
C303 C 0.59075 0.08937 0.17601 0.0
C304 C 0.602 0.06384 0.1671 0.0
C305 C 0.60051 0.05373 0.13551 0.0
C306 C 0.49245 0.98839 0.07513 0.0
C307 C 0.52702 0.99433 0.99221 0.0
C308 C 0.42534 1.02242 0.9858 0.0
C309 C 0.4185 1.00555 0.95613 0.0
C310 C 0.39474 0.98138 0.95596 0.0
C311 C 0.38934 0.96396 0.92843 0.0
C312 C 0.40766 0.97065 0.90081 0.0
C313 C 0.43242 0.99401 0.90149 0.0
C314 C 0.43785 1.01133 0.92896 0.0
C315 C 0.52562 0.07276 0.99408 0.0
O316 O 0.50481 0.06233 0.08672 0.0
O317 O 0.4635 0.06156 0.0536 0.0
O318 O 0.57104 0.0284 0.07928 0.0
O319 O 0.57033 0.07094 0.0597 0.0
O320 O 0.51857 0.99952 0.08755 0.0
O321 O 0.48678 1.0045 0.05271 0.0
O322 O 0.49754 0.99613 0.99139 0.0
O323 O 0.54599 1.01159 1.01115 0.0
O324 O 0.44448 0.04701 0.98327 0.0
O325 O 0.43135 1.00716 1.00984 0.0
O326 O 0.50951 0.05365 0.97533 0.0
O327 O 0.51575 0.06831 1.02252 0.0
H328 H 0.56544 0.10625 0.10407 0.0
H329 H 0.56913 0.12441 0.15928 0.0
H330 H 0.6128 0.05211 0.18438 0.0
H331 H 0.6091 0.03385 0.12923 0.0
H332 H 0.38031 0.97606 0.97708 0.0
H333 H 0.37003 0.94609 0.92833 0.0
H334 H 0.44704 0.9993 0.88049 0.0
H335 H 0.45713 0.02923 0.92881 0.0
Ho336 Ho 0.50775 0.50306 0.50587 0.0
Ho337 Ho 0.50817 0.55184 0.54819 0.0
C338 C 0.53471 0.49992 0.57828 0.0
C339 C 0.52187 0.45936 0.47387 0.0
C340 C 0.54126 0.43841 0.48291 0.0
C341 C 0.57176 0.4479 0.49287 0.0
C342 C 0.58949 0.42786 0.50259 0.0
C343 C 0.57682 0.39823 0.50298 0.0
C344 C 0.54613 0.38879 0.49411 0.0
C345 C 0.52847 0.4088 0.48396 0.0
C346 C 0.45197 0.50338 0.53544 0.0
C347 C 0.4812 0.55462 0.47584 0.0
C348 C 0.49568 0.59629 0.57996 0.0
C349 C 0.47376 0.61516 0.57261 0.0
C350 C 0.44614 0.60358 0.55723 0.0
C351 C 0.42501 0.62141 0.55051 0.0
C352 C 0.43164 0.65104 0.55853 0.0
C353 C 0.46002 0.66302 0.57212 0.0
C354 C 0.48104 0.64504 0.57924 0.0
C355 C 0.56359 0.55207 0.51851 0.0
O356 O 0.53464 0.49016 0.54815 0.0
O357 O 0.52255 0.52328 0.58555 0.0
O358 O 0.49608 0.45808 0.49031 0.0
O359 O 0.53603 0.48602 0.46967 0.0
O360 O 0.45578 0.496 0.50571 0.0
O361 O 0.47806 0.50921 0.54838 0.0
O362 O 0.47977 0.56346 0.50623 0.0
O363 O 0.49477 0.53218 0.46843 0.0
O364 O 0.51904 0.59773 0.55992 0.0
O365 O 0.4835 0.56959 0.587 0.0
O366 O 0.55984 0.55781 0.54866 0.0
O367 O 0.53751 0.54605 0.5055 0.0
H368 H 0.58204 0.47072 0.49302 0.0
H369 H 0.61327 0.43536 0.50921 0.0
H370 H 0.53626 0.36586 0.49386 0.0
H371 H 0.50486 0.40117 0.47685 0.0
H372 H 0.44062 0.58068 0.55096 0.0
H373 H 0.40313 0.61201 0.54 0.0
H374 H 0.46519 0.68594 0.57862 0.0
H375 H 0.50264 0.6543 0.59038 0.0
Ho376 Ho 0.01504 0.49624 0.04693 0.0
Ho377 Ho 0.9986 0.55602 1.01557 0.0
C378 C 0.06166 0.5596 0.05624 0.0
C379 C 0.04555 0.45462 0.05615 0.0
C380 C 0.07122 0.44939 0.07671 0.0
C381 C 0.10141 0.45175 0.06374 0.0
C382 C 0.12545 0.4449 0.08188 0.0
C383 C 0.11986 0.43536 0.11331 0.0
C384 C 0.08999 0.43348 0.12669 0.0
C385 C 0.06588 0.4405 0.1086 0.0
C386 C 0.98664 0.52925 0.09026 0.0
C387 C 0.95257 0.49283 1.00511 0.0
C388 C 0.96853 0.59777 1.00645 0.0
C389 C 0.94326 0.60251 0.98518 0.0
C390 C 0.91216 0.59422 0.99491 0.0
C391 C 0.88822 0.59999 0.97598 0.0
C392 C 0.8947 0.61443 0.94692 0.0
C393 C 0.92573 0.62218 0.93678 0.0
C394 C 0.94974 0.6163 0.9557 0.0
C395 C 0.02586 0.52217 0.97238 0.0
O396 O 0.05621 0.53078 0.0586 0.0
O397 O 0.04241 0.57441 0.04217 0.0
O398 O 0.01852 0.45579 0.06981 0.0
O399 O 0.05285 0.47398 0.03386 0.0
O400 O 0.99395 0.50407 0.09624 0.0
O401 O 0.99495 0.53429 0.06147 0.0
O402 O 0.95761 0.52162 1.00294 0.0
O403 O 0.9716 0.47798 1.01946 0.0
O404 O 0.99592 0.59699 0.99336 0.0
O405 O 0.96087 0.57816 0.02843 0.0
O406 O 0.01716 0.54648 0.96529 0.0
O407 O 0.01939 0.51849 1.00169 0.0
H408 H 0.10636 0.4583 0.03923 0.0
H409 H 0.14829 0.44627 0.07104 0.0
H410 H 0.0852 0.42601 0.1509 0.0
H411 H 0.04298 0.43835 0.1194 0.0
H412 H 0.9062 0.58377 1.01757 0.0
H413 H 0.86464 0.59413 0.98476 0.0
H414 H 0.93148 0.63316 0.91438 0.0
H415 H 0.97339 0.623 0.94746 0.0
C416 C 0.24417 0.22831 0.33436 0.0
C417 C 0.27336 0.23646 0.34781 0.0
C418 C 0.22071 0.20976 0.35026 0.0
C419 C 0.22662 0.19903 0.38038 0.0
C420 C 0.25612 0.20691 0.39407 0.0
C421 C 0.27932 0.22553 0.37748 0.0
C422 C 0.18961 0.20159 0.33471 0.0
C423 C 0.26307 0.19575 0.42617 0.0
C424 C 0.15345 0.17203 0.42759 0.0
C425 C 0.14899 0.14222 0.42 0.0
C426 C 0.17974 0.19068 0.4164 0.0
C427 C 0.20175 0.17916 0.39695 0.0
C428 C 0.19794 0.14891 0.39024 0.0
C429 C 0.17158 0.13076 0.40195 0.0
C430 C 0.18328 0.22284 0.42422 0.0
C431 C 0.22072 0.13595 0.36914 0.0
H432 H 0.23975 0.23626 0.31108 0.0
H433 H 0.30192 0.23189 0.38786 0.0
H434 H 0.18363 0.17761 0.33174 0.0
H435 H 0.17143 0.20882 0.35027 0.0
H436 H 0.1891 0.21145 0.31088 0.0
H437 H 0.28708 0.20424 0.43366 0.0
H438 H 0.24679 0.20208 0.44468 0.0
H439 H 0.25967 0.17164 0.42527 0.0
H440 H 0.13615 0.18079 0.44192 0.0
H441 H 0.16799 0.10772 0.39582 0.0
H442 H 0.18097 0.23485 0.40211 0.0
H443 H 0.20661 0.23106 0.43367 0.0
H444 H 0.1657 0.22789 0.44207 0.0
H445 H 0.21934 0.14313 0.3442 0.0
H446 H 0.21616 0.11179 0.36906 0.0
H447 H 0.24468 0.14369 0.37709 0.0
C448 C 0.31495 0.92262 0.74872 0.0
C449 C 0.33454 0.919 0.72252 0.0
C450 C 0.32545 0.92176 0.77994 0.0
C451 C 0.35647 0.91859 0.78455 0.0
C452 C 0.37495 0.9115 0.75846 0.0
C453 C 0.36342 0.91115 0.7277 0.0
C454 C 0.30458 0.92746 0.80774 0.0
C455 C 0.40805 0.90761 0.76263 0.0
C456 C 0.3951 0.97352 0.84412 0.0
C457 C 0.39811 0.95622 0.87022 0.0
C458 C 0.38213 0.9612 0.8159 0.0
C459 C 0.37177 0.93078 0.81392 0.0
C460 C 0.3758 0.91293 0.83972 0.0
C461 C 0.38893 0.92599 0.86785 0.0
C462 C 0.37848 0.98104 0.78871 0.0
C463 C 0.36478 0.88048 0.83855 0.0
H464 H 0.29221 0.92782 0.74498 0.0
H465 H 0.37785 0.90639 0.70753 0.0
H466 H 0.30855 0.91458 0.82871 0.0
H467 H 0.30971 0.95082 0.81491 0.0
H468 H 0.27984 0.92208 0.80132 0.0
H469 H 0.41885 0.90105 0.7399 0.0
H470 H 0.42189 0.92834 0.7715 0.0
H471 H 0.40924 0.89093 0.78072 0.0
H472 H 0.40164 0.99697 0.84624 0.0
H473 H 0.39134 0.91271 0.88822 0.0
H474 H 0.35362 0.98169 0.78551 0.0
H475 H 0.38762 0.97276 0.76594 0.0
H476 H 0.3906 1.00366 0.79313 0.0
H477 H 0.33999 0.87598 0.84579 0.0
H478 H 0.37774 0.86922 0.85534 0.0
H479 H 0.36694 0.87104 0.81415 0.0
C480 C 0.6323 0.43442 0.71435 0.0
C481 C 0.61444 0.41173 0.7318 0.0
C482 C 0.61996 0.44825 0.68908 0.0
C483 C 0.58843 0.4402 0.68094 0.0
C484 C 0.57001 0.41781 0.69869 0.0
C485 C 0.58313 0.4038 0.72337 0.0
C486 C 0.64086 0.47177 0.67112 0.0
C487 C 0.53623 0.40852 0.6915 0.0
C488 C 0.54924 0.49512 0.63624 0.0
C489 C 0.54873 0.48459 0.60432 0.0
C490 C 0.56191 0.48103 0.66108 0.0
C491 C 0.57467 0.45547 0.65436 0.0
C492 C 0.57433 0.44474 0.62215 0.0
C493 C 0.56148 0.45929 0.59774 0.0
C494 C 0.56152 0.49357 0.69471 0.0
C495 C 0.58771 0.41783 0.61336 0.0
H496 H 0.65617 0.44184 0.72051 0.0
H497 H 0.56869 0.38622 0.73571 0.0
H498 H 0.63968 0.46702 0.64498 0.0
H499 H 0.63302 0.49291 0.67551 0.0
H500 H 0.66533 0.47404 0.67839 0.0
H501 H 0.52454 0.39171 0.70807 0.0
H502 H 0.52421 0.42758 0.69323 0.0
H503 H 0.53372 0.39969 0.66662 0.0
H504 H 0.53961 0.51455 0.64199 0.0
H505 H 0.56141 0.45073 0.57337 0.0
H506 H 0.58546 0.4993 0.7035 0.0
H507 H 0.54878 0.47709 0.711 0.0
H508 H 0.55055 0.51332 0.69627 0.0
H509 H 0.61254 0.42133 0.61941 0.0
H510 H 0.58545 0.41191 0.5875 0.0
H511 H 0.57594 0.3992 0.62748 0.0
C512 C 0.93497 0.62748 0.23836 0.0
C513 C 0.90272 0.62591 0.24144 0.0
C514 C 0.94856 0.61261 0.21326 0.0
C515 C 0.92976 0.59593 0.18991 0.0
C516 C 0.89727 0.5942 0.19284 0.0
C517 C 0.88428 0.60874 0.21849 0.0
C518 C 0.98321 0.61479 0.21173 0.0
C519 C 0.87603 0.57669 0.16891 0.0
C520 C 0.96724 0.57575 0.10948 0.0
C521 C 0.97112 0.54692 0.11431 0.0
C522 C 0.95353 0.59183 0.13354 0.0
C523 C 0.94387 0.57911 0.16349 0.0
C524 C 0.9478 0.55003 0.16829 0.0
C525 C 0.96117 0.53449 0.14387 0.0
C526 C 0.94954 0.62257 0.12702 0.0
C527 C 0.93833 0.53533 0.19958 0.0
H528 H 0.94985 0.64072 0.25531 0.0
H529 H 0.85937 0.60629 0.22061 0.0
H530 H 0.98943 0.59273 0.21167 0.0
H531 H 0.99248 0.6251 0.18911 0.0
H532 H 0.99467 0.62768 0.23215 0.0
H533 H 0.85152 0.57909 0.17305 0.0
H534 H 0.88311 0.58355 0.14424 0.0
H535 H 0.87774 0.55333 0.17035 0.0
H536 H 0.9754 0.58594 0.08724 0.0
H537 H 0.96414 0.51235 0.14817 0.0
H538 H 0.96313 0.63783 0.14427 0.0
H539 H 0.92494 0.62482 0.13056 0.0
H540 H 0.95705 0.62912 0.10233 0.0
H541 H 0.95218 0.54707 0.21924 0.0
H542 H 0.94162 0.51225 0.19915 0.0
H543 H 0.91371 0.53611 0.20532 0.0
C544 C 0.44655 0.21424 0.17399 0.0
C545 C 0.4178 0.20993 0.19028 0.0
C546 C 0.45785 0.191 0.15836 0.0
C547 C 0.43974 0.16281 0.15833 0.0
C548 C 0.41118 0.15812 0.17536 0.0
C549 C 0.40077 0.18157 0.1914 0.0
C550 C 0.48867 0.19688 0.14085 0.0
C551 C 0.39115 0.12841 0.17593 0.0
C552 C 0.44861 0.11117 0.08813 0.0
C553 C 0.46714 0.09278 0.10086 0.0
C554 C 0.43997 0.13423 0.10647 0.0
C555 C 0.44947 0.13867 0.13862 0.0
C556 C 0.46777 0.11987 0.1518 0.0
C557 C 0.4767 0.09737 0.13263 0.0
C558 C 0.42105 0.15415 0.09126 0.0
C559 C 0.47837 0.12379 0.18594 0.0
H560 H 0.45994 0.23594 0.1726 0.0
H561 H 0.37906 0.17758 0.20469 0.0
H562 H 0.50295 0.18035 0.14663 0.0
H563 H 0.48494 0.19538 0.11467 0.0
H564 H 0.50182 0.2188 0.14686 0.0
H565 H 0.37013 0.12807 0.19131 0.0
H566 H 0.38387 0.12148 0.15128 0.0
H567 H 0.40449 0.11218 0.18474 0.0
H568 H 0.44163 0.10815 0.0634 0.0
H569 H 0.49122 0.08337 0.14252 0.0
H570 H 0.43384 0.17681 0.09192 0.0
H571 H 0.39911 0.15403 0.10499 0.0
H572 H 0.41553 0.14777 0.06599 0.0
H573 H 0.49477 0.14456 0.1886 0.0
H574 H 0.49002 0.10579 0.19341 0.0
H575 H 0.45846 0.12505 0.20245 0.0
C576 C 0.16461 0.91605 0.61374 0.0
C577 C 0.17495 0.90629 0.58416 0.0
C578 C 0.13793 0.92849 0.6156 0.0
C579 C 0.12256 0.93171 0.58703 0.0
C580 C 0.13046 0.91778 0.55816 0.0
C581 C 0.15671 0.90479 0.55725 0.0
C582 C 0.12899 0.94171 0.64704 0.0
C583 C 0.11466 0.92086 0.527 0.0
C584 C 0.05764 0.96806 0.56607 0.0
C585 C 0.07397 0.99464 0.55587 0.0
C586 C 0.07263 0.94881 0.58196 0.0
C587 C 0.10497 0.95547 0.58456 0.0
C588 C 0.12128 0.98327 0.57605 0.0
C589 C 0.10523 1.00284 0.56207 0.0
C590 C 0.05439 0.92026 0.59289 0.0
C591 C 0.15603 0.99114 0.57819 0.0
H592 H 0.17903 0.91673 0.63454 0.0
H593 H 0.16517 0.89705 0.53457 0.0
H594 H 0.14128 0.96447 0.6493 0.0
H595 H 0.10379 0.94197 0.64864 0.0
H596 H 0.13567 0.92959 0.66751 0.0
H597 H 0.1218 0.90644 0.50768 0.0
H598 H 0.08923 0.91567 0.53009 0.0
H599 H 0.12061 0.94369 0.51908 0.0
H600 H 0.03363 0.96155 0.56012 0.0
H601 H 0.11744 1.02366 0.55397 0.0
H602 H 0.06444 0.91283 0.61465 0.0
H603 H 0.05486 0.90337 0.57379 0.0
H604 H 0.02986 0.92209 0.59804 0.0
H605 H 0.16359 0.98727 0.60255 0.0
H606 H 0.16461 1.01426 0.57243 0.0
H607 H 0.16713 0.97722 0.56118 0.0
C608 C 0.81171 0.39332 0.91277 0.0
C609 C 0.78667 0.40774 0.90731 0.0
C610 C 0.83847 0.40715 0.92865 0.0
C611 C 0.8404 0.43607 0.94068 0.0
C612 C 0.81504 0.45064 0.93609 0.0
C613 C 0.78884 0.43654 0.91925 0.0
C614 C 0.86495 0.39077 0.93227 0.0
C615 C 0.81565 0.48139 0.94854 0.0
C616 C 0.90054 0.45989 1.00593 0.0
C617 C 0.92456 0.47694 0.98881 0.0
C618 C 0.87275 0.44728 0.99086 0.0
C619 C 0.86915 0.45092 0.95757 0.0
C620 C 0.89365 0.46792 0.94022 0.0
C621 C 0.92068 0.48105 0.95611 0.0
C622 C 0.84693 0.4305 1.01071 0.0
C623 C 0.89157 0.4719 0.90469 0.0
H624 H 0.81054 0.37092 0.90477 0.0
H625 H 0.77027 0.44843 0.91505 0.0
H626 H 0.88644 0.40331 0.92176 0.0
H627 H 0.86911 0.38816 0.958 0.0
H628 H 0.86054 0.36888 0.92048 0.0
H629 H 0.79253 0.48792 0.94789 0.0
H630 H 0.82394 0.48386 0.97349 0.0
H631 H 0.83191 0.49661 0.93366 0.0
H632 H 0.9031 0.4572 0.03134 0.0
H633 H 0.93908 0.49442 0.94282 0.0
H634 H 0.84187 0.40757 1.00194 0.0
H635 H 0.82556 0.43986 1.0082 0.0
H636 H 0.85261 0.43077 0.03648 0.0
H637 H 0.88955 0.45045 0.89206 0.0
H638 H 0.91207 0.48653 0.89483 0.0
H639 H 0.87058 0.48099 0.89939 0.0
C640 C 0.70679 0.6443 0.42544 0.0
C641 C 0.73221 0.62991 0.42057 0.0
C642 C 0.67927 0.63058 0.44037 0.0
C643 C 0.6768 0.60158 0.45065 0.0
C644 C 0.70214 0.58676 0.44545 0.0
C645 C 0.72946 0.60106 0.43053 0.0
C646 C 0.65293 0.64728 0.44549 0.0
C647 C 0.70048 0.55584 0.45594 0.0
C648 C 0.61849 0.57753 0.51777 0.0
C649 C 0.59303 0.5627 0.50098 0.0
C650 C 0.64584 0.59001 0.50173 0.0
C651 C 0.64816 0.58727 0.46797 0.0
C652 C 0.62279 0.57166 0.4509 0.0
C653 C 0.59546 0.55973 0.46758 0.0
C654 C 0.67202 0.60677 0.52092 0.0
C655 C 0.62427 0.56813 0.41494 0.0
H656 H 0.70825 0.66634 0.41731 0.0
H657 H 0.74891 0.58975 0.4272 0.0
H658 H 0.63178 0.63535 0.4341 0.0
H659 H 0.64764 0.64928 0.47147 0.0
H660 H 0.65822 0.66945 0.43555 0.0
H661 H 0.72194 0.54715 0.44975 0.0
H662 H 0.69647 0.55466 0.48221 0.0
H663 H 0.68069 0.54161 0.44451 0.0
H664 H 0.61681 0.58005 0.54357 0.0
H665 H 0.57586 0.54837 0.45444 0.0
H666 H 0.67687 0.62972 0.51332 0.0
H667 H 0.69338 0.5975 0.51638 0.0
H668 H 0.66679 0.6065 0.54706 0.0
H669 H 0.62539 0.58962 0.40385 0.0
H670 H 0.60388 0.55315 0.40552 0.0
H671 H 0.64551 0.5597 0.40736 0.0
C672 C 0.27344 0.38265 0.16612 0.0
C673 C 0.27264 0.37291 0.19755 0.0
C674 C 0.24868 0.3943 0.15405 0.0
C675 C 0.2221 0.39555 0.17363 0.0
C676 C 0.22128 0.3858 0.20551 0.0
C677 C 0.24671 0.37489 0.21719 0.0
C678 C 0.25083 0.40499 0.12019 0.0
C679 C 0.19321 0.38608 0.22697 0.0
C680 C 0.16679 0.44495 0.14752 0.0
C681 C 0.14471 0.42521 0.13095 0.0
C682 C 0.1917 0.43553 0.16233 0.0
C683 C 0.19468 0.40575 0.16014 0.0
C684 C 0.17196 0.38573 0.14389 0.0
C685 C 0.14725 0.39572 0.12952 0.0
C686 C 0.21516 0.45751 0.17971 0.0
C687 C 0.17413 0.35383 0.14102 0.0
H688 H 0.29357 0.38124 0.15102 0.0
H689 H 0.24598 0.36707 0.24143 0.0
H690 H 0.2322 0.39213 0.10575 0.0
H691 H 0.24748 0.42801 0.1201 0.0
H692 H 0.27344 0.40336 0.10844 0.0
H693 H 0.19677 0.37906 0.25158 0.0
H694 H 0.18717 0.40821 0.22839 0.0
H695 H 0.17313 0.37131 0.21673 0.0
H696 H 0.16475 0.46778 0.14851 0.0
H697 H 0.13018 0.38055 0.11652 0.0
H698 H 0.23822 0.45845 0.16798 0.0
H699 H 0.21718 0.45081 0.20472 0.0
H700 H 0.20905 0.47965 0.18014 0.0
H701 H 0.19521 0.35101 0.12698 0.0
H702 H 0.15376 0.34086 0.12912 0.0
H703 H 0.17617 0.34493 0.16506 0.0
C704 C 0.62481 0.22577 0.93095 0.0
C705 C 0.60703 0.23858 0.90962 0.0
C706 C 0.61282 0.19947 0.94644 0.0
C707 C 0.58204 0.18536 0.94096 0.0
C708 C 0.56376 0.19855 0.92008 0.0
C709 C 0.57643 0.22464 0.90463 0.0
C710 C 0.6335 0.18633 0.96802 0.0
C711 C 0.53065 0.18499 0.91394 0.0
C712 C 0.55717 0.10297 0.95196 0.0
C713 C 0.54233 0.10142 0.98214 0.0
C714 C 0.57103 0.12987 0.93896 0.0
C715 C 0.56927 0.15635 0.95591 0.0
C716 C 0.55442 0.1549 0.98658 0.0
C717 C 0.54165 0.12756 0.99949 0.0
C718 C 0.58728 0.12993 0.90675 0.0
C719 C 0.55135 0.18229 1.00549 0.0
H720 H 0.64855 0.23587 0.93489 0.0
H721 H 0.56214 0.23431 0.88872 0.0
H722 H 0.62225 0.18213 0.99186 0.0
H723 H 0.6374 0.16506 0.95772 0.0
H724 H 0.65626 0.20057 0.97126 0.0
H725 H 0.51903 0.19838 0.89816 0.0
H726 H 0.52974 0.16312 0.90257 0.0
H727 H 0.51748 0.18207 0.93694 0.0
H728 H 0.5579 0.08298 0.93837 0.0
H729 H 0.53006 0.12674 1.02272 0.0
H730 H 0.61114 0.14231 0.90842 0.0
H731 H 0.57501 0.14096 0.88917 0.0
H732 H 0.58845 0.1076 0.89751 0.0
H733 H 0.57457 0.19415 1.01185 0.0
H734 H 0.53742 0.1777 0.02788 0.0
H735 H 0.54037 0.19696 0.99077 0.0
C736 C 0.92916 0.80605 0.4429 0.0
C737 C 0.90574 0.80467 0.42034 0.0
C738 C 0.94146 0.83252 0.45874 0.0
C739 C 0.92971 0.85828 0.45246 0.0
C740 C 0.90524 0.8567 0.43065 0.0
C741 C 0.89382 0.83014 0.41475 0.0
C742 C 0.96767 0.83309 0.48154 0.0
C743 C 0.89135 0.88324 0.42368 0.0
C744 C 0.9463 0.92411 0.51044 0.0
C745 C 0.96911 0.94295 0.4936 0.0
C746 C 0.9332 0.89664 0.49745 0.0
C747 C 0.94389 0.88717 0.4673 0.0
C748 C 0.96755 0.90588 0.45065 0.0
C749 C 0.97944 0.93364 0.46369 0.0
C750 C 0.9074 0.87807 0.51572 0.0
C751 C 0.98039 0.89652 0.41898 0.0
H752 H 0.9386 0.78659 0.44742 0.0
H753 H 0.87534 0.8293 0.39786 0.0
H754 H 0.98823 0.84839 0.47297 0.0
H755 H 0.96116 0.84112 0.50552 0.0
H756 H 0.97416 0.81129 0.48403 0.0
H757 H 0.8707 0.87795 0.40842 0.0
H758 H 0.88463 0.89365 0.44634 0.0
H759 H 0.90875 0.89945 0.41126 0.0
H760 H 0.93808 0.93118 0.5335 0.0
H761 H 0.99731 0.94791 0.45068 0.0
H762 H 0.91391 0.85676 0.52081 0.0
H763 H 0.88638 0.8737 0.50096 0.0
H764 H 0.90161 0.88856 0.53873 0.0
H765 H 0.98882 0.87562 0.42156 0.0
H766 H 0.99971 0.91292 0.40971 0.0
H767 H 0.96191 0.8928 0.40098 0.0
C768 C 0.34767 0.77616 0.60194 0.0
C769 C 0.32315 0.78063 0.58315 0.0
C770 C 0.36065 0.75116 0.59764 0.0
C771 C 0.34811 0.73005 0.57448 0.0
C772 C 0.3214 0.73319 0.55765 0.0
C773 C 0.30937 0.75892 0.56185 0.0
C774 C 0.38954 0.74884 0.61563 0.0
C775 C 0.30704 0.71044 0.53365 0.0
C776 C 0.41078 0.69319 0.53903 0.0
C777 C 0.40723 0.66848 0.55772 0.0
C778 C 0.38976 0.71243 0.54236 0.0
C779 C 0.36545 0.70681 0.56542 0.0
C780 C 0.36102 0.68107 0.58314 0.0
C781 C 0.38199 0.66196 0.57884 0.0
C782 C 0.3949 0.73978 0.52301 0.0
C783 C 0.33585 0.675 0.60851 0.0
H784 H 0.35832 0.79332 0.61817 0.0
H785 H 0.2902 0.76266 0.54759 0.0
H786 H 0.38827 0.72678 0.62529 0.0
H787 H 0.4098 0.75275 0.59897 0.0
H788 H 0.39359 0.76501 0.63574 0.0
H789 H 0.28382 0.71402 0.52647 0.0
H790 H 0.32214 0.7111 0.51193 0.0
H791 H 0.30492 0.68836 0.54355 0.0
H792 H 0.43054 0.69791 0.52281 0.0
H793 H 0.37984 0.64284 0.59346 0.0
H794 H 0.40211 0.75896 0.53905 0.0
H795 H 0.37313 0.74273 0.51166 0.0
H796 H 0.41298 0.73941 0.50403 0.0
H797 H 0.34141 0.69032 0.62914 0.0
H798 H 0.33327 0.65245 0.61733 0.0
H799 H 0.31342 0.67851 0.59913 0.0
C800 C 0.76075 0.81066 0.70039 0.0
C801 C 0.73681 0.82595 0.709 0.0
C802 C 0.78537 0.82319 0.68066 0.0
C803 C 0.78623 0.8518 0.67001 0.0
C804 C 0.76034 0.86576 0.67525 0.0
C805 C 0.73564 0.85241 0.69436 0.0
C806 C 0.8122 0.80726 0.67474 0.0
C807 C 0.76035 0.89631 0.66424 0.0
C808 C 0.86341 0.90125 0.67593 0.0
C809 C 0.87196 0.9049 0.64377 0.0
C810 C 0.83561 0.88371 0.68465 0.0
C811 C 0.81621 0.8693 0.66045 0.0
C812 C 0.82525 0.87235 0.62783 0.0
C813 C 0.85312 0.89049 0.61979 0.0
C814 C 0.82672 0.88119 0.71976 0.0
C815 C 0.80547 0.85666 0.60162 0.0
H816 H 0.76194 0.79015 0.71144 0.0
H817 H 0.71669 0.86389 0.70015 0.0
H818 H 0.82263 0.81162 0.65056 0.0
H819 H 0.83031 0.8149 0.69254 0.0
H820 H 0.805 0.7834 0.6772 0.0
H821 H 0.73691 0.90221 0.66578 0.0
H822 H 0.7759 0.91189 0.67957 0.0
H823 H 0.76921 0.89891 0.63925 0.0
H824 H 0.87818 0.91281 0.6942 0.0
H825 H 0.86008 0.89366 0.5949 0.0
H826 H 0.82366 0.85812 0.72682 0.0
H827 H 0.80436 0.88875 0.72428 0.0
H828 H 0.84434 0.89415 0.73538 0.0
H829 H 0.80223 0.83284 0.6051 0.0
H830 H 0.81582 0.86148 0.57744 0.0
H831 H 0.78221 0.86287 0.60271 0.0
C832 C 0.67069 0.15499 0.33571 0.0
C833 C 0.70023 0.14988 0.32687 0.0
C834 C 0.64512 0.14293 0.31762 0.0
C835 C 0.64977 0.12592 0.29007 0.0
C836 C 0.67926 0.11859 0.28291 0.0
C837 C 0.70433 0.13078 0.30159 0.0
C838 C 0.61395 0.15076 0.32617 0.0
C839 C 0.68507 0.10042 0.25364 0.0
C840 C 0.59212 0.08365 0.23485 0.0
C841 C 0.59656 0.10177 0.20838 0.0
C842 C 0.60663 0.09258 0.2637 0.0
C843 C 0.62587 0.12006 0.26558 0.0
C844 C 0.62691 0.13986 0.24036 0.0
C845 C 0.6121 0.13041 0.21188 0.0
C846 C 0.60431 0.07136 0.29058 0.0
C847 C 0.64684 0.16965 0.24176 0.0
H848 H 0.66796 0.16996 0.35547 0.0
H849 H 0.72743 0.1272 0.295 0.0
H850 H 0.6098 0.16872 0.31091 0.0
H851 H 0.59515 0.13204 0.32183 0.0
H852 H 0.61268 0.15812 0.35159 0.0
H853 H 0.70809 0.09364 0.25398 0.0
H854 H 0.6671 0.08067 0.25174 0.0
H855 H 0.68399 0.11326 0.23185 0.0
H856 H 0.57941 0.06168 0.23219 0.0
H857 H 0.61541 0.14446 0.1914 0.0
H858 H 0.6037 0.08267 0.31421 0.0
H859 H 0.62496 0.06057 0.28974 0.0
H860 H 0.58344 0.05426 0.28853 0.0
H861 H 0.64381 0.18072 0.26513 0.0
H862 H 0.64146 0.18372 0.22239 0.0
H863 H 0.67152 0.16735 0.23919 0.0
C864 C 0.39127 0.61258 0.32856 0.0
C865 C 0.40493 0.64057 0.31837 0.0
C866 C 0.40296 0.59889 0.35438 0.0
C867 C 0.42889 0.61337 0.3715 0.0
C868 C 0.44244 0.64178 0.36193 0.0
C869 C 0.43058 0.65483 0.33568 0.0
C870 C 0.38745 0.56869 0.3633 0.0
C871 C 0.47004 0.65833 0.37914 0.0
C872 C 0.44524 0.58771 0.45592 0.0
C873 C 0.46765 0.56995 0.44953 0.0
C874 C 0.4323 0.60164 0.43101 0.0
C875 C 0.44232 0.59851 0.39864 0.0
C876 C 0.46525 0.58093 0.39224 0.0
C877 C 0.47725 0.56677 0.41744 0.0
C878 C 0.40765 0.61959 0.43935 0.0
C879 C 0.47727 0.57701 0.35856 0.0
H880 H 0.37108 0.60115 0.31649 0.0
H881 H 0.44205 0.6761 0.32836 0.0
H882 H 0.40446 0.55364 0.36216 0.0
H883 H 0.37844 0.56898 0.38831 0.0
H884 H 0.36804 0.55991 0.34733 0.0
H885 H 0.47704 0.68074 0.3702 0.0
H886 H 0.46485 0.65966 0.40519 0.0
H887 H 0.48986 0.64658 0.37602 0.0
H888 H 0.43738 0.59037 0.48042 0.0
H889 H 0.49464 0.55339 0.41195 0.0
H890 H 0.38611 0.61053 0.42664 0.0
H891 H 0.41504 0.6422 0.43124 0.0
H892 H 0.4024 0.62019 0.46547 0.0
H893 H 0.45817 0.56626 0.34325 0.0
H894 H 0.49598 0.56371 0.35754 0.0
H895 H 0.48628 0.59852 0.34822 0.0
C896 C 0.10898 0.45748 0.81968 0.0
C897 C 0.10428 0.42676 0.81672 0.0
C898 C 0.09597 0.47216 0.84534 0.0
C899 C 0.07846 0.4562 0.86994 0.0
C900 C 0.0738 0.42546 0.86764 0.0
C901 C 0.08599 0.41132 0.84114 0.0
C902 C 0.10119 0.50499 0.84618 0.0
C903 C 0.0556 0.40729 0.89325 0.0
C904 C 0.06724 0.49427 0.95158 0.0
C905 C 0.03808 0.50224 0.94854 0.0
C906 C 0.08067 0.47939 0.92633 0.0
C907 C 0.0643 0.47156 0.89755 0.0
C908 C 0.03432 0.4787 0.89508 0.0
C909 C 0.02195 0.49432 0.9202 0.0
C910 C 0.11281 0.47283 0.93005 0.0
C911 C 0.0155 0.4705 0.86548 0.0
H912 H 0.12307 0.47061 0.80223 0.0
H913 H 0.08058 0.38792 0.84005 0.0
H914 H 0.07877 0.51282 0.84851 0.0
H915 H 0.1149 0.51336 0.86742 0.0
H916 H 0.11354 0.5144 0.82438 0.0
H917 H 0.05542 0.38364 0.8892 0.0
H918 H 0.06548 0.41371 0.91708 0.0
H919 H 0.03139 0.41121 0.89398 0.0
H920 H 0.08017 0.50086 0.97308 0.0
H921 H 0.99953 0.50063 0.91755 0.0
H922 H 0.12855 0.48455 0.91172 0.0
H923 H 0.11284 0.44925 0.92599 0.0
H924 H 0.12217 0.47936 0.95411 0.0
H925 H 0.02697 0.48266 0.84481 0.0
H926 H 0.99167 0.47532 0.86833 0.0
H927 H 0.01406 0.44698 0.85965 0.0
C928 C 0.56498 0.84659 0.91308 0.0
C929 C 0.5897 0.85173 0.89106 0.0
C930 C 0.55285 0.86992 0.92753 0.0
C931 C 0.56648 0.89891 0.92046 0.0
C932 C 0.59107 0.90405 0.89772 0.0
C933 C 0.60217 0.88039 0.88311 0.0
C934 C 0.52612 0.86361 0.95109 0.0
C935 C 0.60666 0.93454 0.88993 0.0
C936 C 0.52392 0.961 0.94422 0.0
C937 C 0.53843 0.97129 0.9728 0.0
C938 C 0.53299 0.93767 0.92668 0.0
C939 C 0.55662 0.92388 0.93845 0.0
C940 C 0.57136 0.93425 0.96732 0.0
C941 C 0.56233 0.95807 0.98396 0.0
C942 C 0.5172 0.92773 0.89567 0.0
C943 C 0.59634 0.91987 0.9809 0.0
H944 H 0.55544 0.8244 0.91923 0.0
H945 H 0.62165 0.88432 0.86643 0.0
H946 H 0.53372 0.87167 0.97531 0.0
H947 H 0.5073 0.87526 0.94444 0.0
H948 H 0.51671 0.83999 0.95224 0.0
H949 H 0.62359 0.93484 0.86971 0.0
H950 H 0.58926 0.94803 0.8838 0.0
H951 H 0.61901 0.94487 0.91124 0.0
H952 H 0.50545 0.97125 0.93554 0.0
H953 H 0.57327 0.96571 1.0063 0.0
H954 H 0.50585 0.90466 0.89725 0.0
H955 H 0.53453 0.92897 0.87579 0.0
H956 H 0.49953 0.94103 0.88964 0.0
H957 H 0.58707 0.89669 0.98562 0.0
H958 H 0.60556 0.9306 1.00354 0.0
H959 H 0.6157 0.92031 0.96329 0.0
C960 C 0.83746 0.12943 0.46138 0.0
C961 C 0.85059 0.15712 0.47272 0.0
C962 C 0.84967 0.10511 0.4699 0.0
C963 C 0.87537 0.10911 0.49009 0.0
C964 C 0.88762 0.13704 0.5029 0.0
C965 C 0.87502 0.16095 0.49382 0.0
C966 C 0.83609 0.07556 0.45613 0.0
C967 C 0.91493 0.14187 0.5249 0.0
C968 C 0.90436 0.05386 0.53775 0.0
C969 C 0.9318 0.05201 0.52085 0.0
C970 C 0.88333 0.0698 0.52584 0.0
C971 C 0.89077 0.08463 0.49699 0.0
C972 C 0.91685 0.08015 0.47818 0.0
C973 C 0.93704 0.06327 0.4903 0.0
C974 C 0.8552 0.07354 0.54594 0.0
C975 C 0.92515 0.09566 0.44712 0.0
H976 H 0.81845 0.12704 0.4449 0.0
H977 H 0.88482 0.18268 0.50226 0.0
H978 H 0.85217 0.06888 0.43764 0.0
H979 H 0.83305 0.05892 0.47492 0.0
H980 H 0.81345 0.07562 0.4449 0.0
H981 H 0.9201 0.16462 0.53438 0.0
H982 H 0.91056 0.12706 0.54543 0.0
H983 H 0.93571 0.1369 0.51173 0.0
H984 H 0.90021 0.04428 0.56115 0.0
H985 H 0.95814 0.06108 0.47723 0.0
H986 H 0.83477 0.07305 0.53075 0.0
H987 H 0.85955 0.09501 0.55861 0.0
H988 H 0.84972 0.05639 0.56412 0.0
H989 H 0.90516 0.09182 0.43093 0.0
H990 H 0.94525 0.08848 0.43463 0.0
H991 H 0.93088 0.11946 0.45191 0.0
C992 C 0.20675 0.64368 0.15821 0.0
C993 C 0.23474 0.64521 0.14072 0.0
C994 C 0.17816 0.63101 0.14484 0.0
C995 C 0.17715 0.61945 0.11304 0.0
C996 C 0.20524 0.621 0.09523 0.0
C997 C 0.23346 0.63367 0.1092 0.0
C998 C 0.14898 0.62973 0.16492 0.0
C999 C 0.20554 0.60894 0.06136 0.0
C1000 C 0.10983 0.56014 0.08812 0.0
C1001 C 0.09095 0.57551 0.07084 0.0
C1002 C 0.13747 0.57416 0.10213 0.0
C1003 C 0.14706 0.60453 0.09888 0.0
C1004 C 0.12817 0.62028 0.08155 0.0
C1005 C 0.10039 0.60568 0.06792 0.0
C1006 C 0.1565 0.55631 0.12039 0.0
C1007 C 0.13736 0.65261 0.07732 0.0
H1008 H 0.20709 0.65269 0.18238 0.0
H1009 H 0.25472 0.63404 0.09542 0.0
H1010 H 0.13214 0.64047 0.15246 0.0
H1011 H 0.13806 0.60672 0.16824 0.0
H1012 H 0.15337 0.64036 0.18885 0.0
H1013 H 0.22908 0.61252 0.05029 0.0
H1014 H 0.1965 0.58524 0.06107 0.0
H1015 H 0.19014 0.61928 0.04639 0.0
H1016 H 0.10304 0.53689 0.09088 0.0
H1017 H 0.08618 0.61792 0.05479 0.0
H1018 H 0.1597 0.56504 0.14526 0.0
H1019 H 0.1798 0.5578 0.10908 0.0
H1020 H 0.14568 0.533 0.12129 0.0
H1021 H 0.13817 0.66396 0.10102 0.0
H1022 H 0.12105 0.66156 0.06206 0.0
H1023 H 0.16087 0.65755 0.06636 0.0
C1024 C 0.28294 0.43653 0.60587 0.0
C1025 C 0.28347 0.43372 0.63928 0.0
C1026 C 0.30938 0.44961 0.58839 0.0
C1027 C 0.33744 0.45957 0.60442 0.0
C1028 C 0.33796 0.45749 0.63811 0.0
C1029 C 0.31104 0.44516 0.65505 0.0
C1030 C 0.30745 0.45214 0.55262 0.0
C1031 C 0.36727 0.46769 0.65631 0.0
C1032 C 0.41386 0.46264 0.55782 0.0
C1033 C 0.423 0.49254 0.55343 0.0
C1034 C 0.38609 0.45168 0.5742 0.0
C1035 C 0.36663 0.47104 0.58606 0.0
C1036 C 0.37574 0.50133 0.58133 0.0
C1037 C 0.40392 0.51171 0.56524 0.0
C1038 C 0.37775 0.41934 0.57909 0.0
C1039 C 0.3555 0.52275 0.59277 0.0
H1040 H 0.26212 0.42778 0.59309 0.0
H1041 H 0.31182 0.44426 0.68087 0.0
H1042 H 0.31721 0.47457 0.54527 0.0
H1043 H 0.32138 0.43726 0.54037 0.0
H1044 H 0.28331 0.44661 0.54422 0.0
H1045 H 0.36404 0.46424 0.68245 0.0
H1046 H 0.38572 0.45588 0.64727 0.0
H1047 H 0.37549 0.49118 0.65242 0.0
H1048 H 0.42862 0.44782 0.54857 0.0
H1049 H 0.4108 0.53478 0.56149 0.0
H1050 H 0.35537 0.41075 0.56774 0.0
H1051 H 0.37488 0.41492 0.60504 0.0
H1052 H 0.39556 0.40726 0.56887 0.0
H1053 H 0.33353 0.51864 0.57954 0.0
H1054 H 0.36675 0.54566 0.58916 0.0
H1055 H 0.34949 0.51987 0.61854 0.0
C1056 C 0.76421 0.67401 0.84773 0.0
C1057 C 0.74754 0.68825 0.87027 0.0
C1058 C 0.78573 0.65711 0.8575 0.0
C1059 C 0.79129 0.65521 0.89055 0.0
C1060 C 0.77306 0.66812 0.91336 0.0
C1061 C 0.75117 0.68426 0.90291 0.0
C1062 C 0.80388 0.64289 0.83244 0.0
C1063 C 0.77848 0.66703 0.94879 0.0
C1064 C 0.84094 0.60456 0.92485 0.0
C1065 C 0.86922 0.62343 0.92881 0.0
C1066 C 0.81568 0.61409 0.91098 0.0
C1067 C 0.81865 0.64328 0.90127 0.0
C1068 C 0.84752 0.66202 0.90399 0.0
C1069 C 0.87243 0.65184 0.91757 0.0
C1070 C 0.78558 0.59323 0.90764 0.0
C1071 C 0.85175 0.69331 0.89387 0.0
H1072 H 0.76139 0.67719 0.82244 0.0
H1073 H 0.73856 0.69563 0.92028 0.0
H1074 H 0.82798 0.65478 0.83121 0.0
H1075 H 0.80485 0.62016 0.83885 0.0
H1076 H 0.79375 0.64279 0.80833 0.0
H1077 H 0.76037 0.67549 0.96341 0.0
H1078 H 0.77914 0.64443 0.95589 0.0
H1079 H 0.80123 0.68034 0.95447 0.0
H1080 H 0.83844 0.58242 0.93303 0.0
H1081 H 0.89407 0.66663 0.92076 0.0
H1082 H 0.77711 0.59331 0.88286 0.0
H1083 H 0.76776 0.60029 0.92383 0.0
H1084 H 0.78784 0.57063 0.91352 0.0
H1085 H 0.8456 0.69434 0.86841 0.0
H1086 H 0.87585 0.70484 0.89688 0.0
H1087 H 0.83604 0.70507 0.90826 0.0
C1088 C 0.42336 0.82169 0.11771 0.0
C1089 C 0.40531 0.81898 0.14612 0.0
C1090 C 0.43409 0.84903 0.10396 0.0
C1091 C 0.4271 0.87485 0.11895 0.0
C1092 C 0.40806 0.87222 0.14706 0.0
C1093 C 0.39729 0.8445 0.1601 0.0
C1094 C 0.45385 0.85032 0.07384 0.0
C1095 C 0.39992 0.89889 0.16407 0.0
C1096 C 0.48708 0.9442 0.1088 0.0
C1097 C 0.4742 0.9598 0.08581 0.0
C1098 C 0.47199 0.91698 0.11959 0.0
C1099 C 0.44273 0.90448 0.1075 0.0
C1100 C 0.42927 0.92015 0.08439 0.0
C1101 C 0.4452 0.94748 0.07367 0.0
C1102 C 0.48766 0.90147 0.14396 0.0
C1103 C 0.39818 0.9079 0.07073 0.0
H1104 H 0.42928 0.80227 0.10613 0.0
H1105 H 0.38344 0.84296 0.18198 0.0
H1106 H 0.4451 0.86374 0.05581 0.0
H1107 H 0.47783 0.86082 0.07933 0.0
H1108 H 0.45449 0.82838 0.06314 0.0
H1109 H 0.38381 0.89333 0.18473 0.0
H1110 H 0.42124 0.91284 0.17286 0.0
H1111 H 0.38914 0.91193 0.14719 0.0
H1112 H 0.5095 0.9532 0.11836 0.0
H1113 H 0.43497 0.95913 0.05586 0.0
H1114 H 0.4916 0.88012 0.13395 0.0
H1115 H 0.47257 0.89716 0.16557 0.0
H1116 H 0.51023 0.91417 0.15135 0.0
H1117 H 0.39984 0.88783 0.05645 0.0
H1118 H 0.38959 0.92357 0.05515 0.0
H1119 H 0.38098 0.90178 0.09031 0.0
C1120 C 0.08726 0.2503 0.62057 0.0
C1121 C 0.1137 0.25318 0.63944 0.0
C1122 C 0.07386 0.22312 0.60704 0.0
C1123 C 0.08689 0.19797 0.61273 0.0
C1124 C 0.11368 0.2008 0.63155 0.0
C1125 C 0.1267 0.2282 0.64457 0.0
C1126 C 0.04555 0.22129 0.58686 0.0
C1127 C 0.12853 0.17474 0.63818 0.0
C1128 C 0.03761 0.12195 0.6068 0.0
C1129 C 0.04608 0.11204 0.57645 0.0
C1130 C 0.05002 0.1501 0.61844 0.0
C1131 C 0.07224 0.16856 0.59977 0.0
C1132 C 0.08112 0.15843 0.56923 0.0
C1133 C 0.06762 0.13058 0.55779 0.0
C1134 C 0.03932 0.16013 0.65076 0.0
C1135 C 0.1051 0.1769 0.54864 0.0
H1136 H 0.07718 0.2694 0.61611 0.0
H1137 H 0.14685 0.22994 0.6594 0.0
H1138 H 0.04959 0.2114 0.56304 0.0
H1139 H 0.02579 0.207 0.59842 0.0
H1140 H 0.03906 0.24296 0.58338 0.0
H1141 H 0.14965 0.18059 0.65266 0.0
H1142 H 0.11189 0.15828 0.65118 0.0
H1143 H 0.13477 0.16438 0.61531 0.0
H1144 H 0.02077 0.10788 0.62122 0.0
H1145 H 0.07442 0.12304 0.53436 0.0
H1146 H 0.03022 0.18072 0.64844 0.0
H1147 H 0.05913 0.16468 0.66716 0.0
H1148 H 0.02102 0.14376 0.66179 0.0
H1149 H 0.09662 0.19697 0.54209 0.0
H1150 H 0.11071 0.16527 0.5263 0.0
H1151 H 0.12665 0.18369 0.56217 0.0
C1152 C 0.66117 0.26863 0.47719 0.0
C1153 C 0.69225 0.27573 0.48573 0.0
C1154 C 0.63936 0.28447 0.49002 0.0
C1155 C 0.64925 0.30818 0.51121 0.0
C1156 C 0.67937 0.31245 0.52359 0.0
C1157 C 0.7006 0.2959 0.51079 0.0
C1158 C 0.60718 0.27878 0.47675 0.0
C1159 C 0.69058 0.33727 0.54658 0.0
C1160 C 0.62105 0.37551 0.48602 0.0
C1161 C 0.59687 0.37688 0.50793 0.0
C1162 C 0.6387 0.35352 0.48748 0.0
C1163 C 0.63221 0.33277 0.51195 0.0
C1164 C 0.60857 0.33479 0.53504 0.0
C1165 C 0.59072 0.35679 0.53248 0.0
C1166 C 0.66336 0.35183 0.46191 0.0
C1167 C 0.6015 0.31327 0.5616 0.0
H1168 H 0.65435 0.25283 0.4581 0.0
H1169 H 0.72439 0.30056 0.51841 0.0
H1170 H 0.58978 0.28325 0.495 0.0
H1171 H 0.60621 0.29336 0.45639 0.0
H1172 H 0.60084 0.25595 0.46782 0.0
H1173 H 0.71135 0.33358 0.55944 0.0
H1174 H 0.69684 0.35763 0.533 0.0
H1175 H 0.67225 0.34054 0.56433 0.0
H1176 H 0.62528 0.39102 0.46688 0.0
H1177 H 0.57183 0.35815 0.54931 0.0
H1178 H 0.65744 0.33135 0.44759 0.0
H1179 H 0.68598 0.35167 0.47303 0.0
H1180 H 0.66597 0.37033 0.44533 0.0
H1181 H 0.59121 0.29167 0.55147 0.0
H1182 H 0.5851 0.32004 0.57976 0.0
H1183 H 0.62303 0.3106 0.57364 0.0
loop_
_geom_bond_atom_site_label_1
_geom_bond_atom_site_label_2
_geom_bond_distance
_geom_bond_site_symmetry_2
_ccdc_geom_bond_type
P0 O11 1.490 . S
P0 C14 1.812 . S
P0 C20 1.803 . S
P0 C26 1.819 . S
H1 C15 0.941 . S
H2 C16 0.939 . S
H3 C18 0.940 . S
H4 C19 0.940 . S
H5 C21 0.939 . S
H6 C22 0.942 . S
H7 C24 0.940 . S
H8 C25 0.939 . S
H9 C27 0.941 . S
H10 C31 0.939 . S
O11 P0 1.490 . S
H12 C28 0.939 . S
H13 C30 0.940 . S
C14 P0 1.812 . S
C14 C15 1.389 . S
C14 C19 1.391 . S
C15 H1 0.941 . S
C15 C14 1.389 . S
C15 C16 1.397 . S
C16 H2 0.939 . S
C16 C15 1.397 . S
C16 C17 1.378 . S
C17 C16 1.378 . S
C17 C18 1.378 . S
C18 H3 0.940 . S
C18 C17 1.378 . S
C18 C19 1.396 . S
C19 H4 0.940 . S
C19 C14 1.391 . S
C19 C18 1.396 . S
C20 P0 1.803 . S
C20 C21 1.378 . S
C20 C25 1.400 . S
C21 H5 0.939 . S
C21 C20 1.378 . S
C21 C22 1.361 . S
C22 H6 0.942 . S
C22 C21 1.361 . S
C22 C23 1.369 . S
C23 C22 1.369 . S
C23 C24 1.404 . S
C24 H7 0.940 . S
C24 C23 1.404 . S
C24 C25 1.389 . S
C25 H8 0.939 . S
C25 C20 1.400 . S
C25 C24 1.389 . S
C26 P0 1.819 . S
C26 C27 1.391 . S
C26 C31 1.391 . S
C27 H9 0.941 . S
C27 C26 1.391 . S
C27 C28 1.396 . S
C28 H12 0.939 . S
C28 C27 1.396 . S
C28 C29 1.397 . S
C29 C28 1.397 . S
C29 C30 1.385 . S
C30 H13 0.940 . S
C30 C29 1.385 . S
C30 C31 1.388 . S
C31 H10 0.939 . S
C31 C26 1.391 . S
C31 C30 1.388 . S
P32 O43 1.490 . S
P32 C46 1.812 . S
P32 C52 1.803 . S
P32 C58 1.819 . S
H33 C47 0.941 . S
H34 C48 0.939 . S
H35 C50 0.940 . S
H36 C51 0.940 . S
H37 C53 0.939 . S
H38 C54 0.942 . S
H39 C56 0.940 . S
H40 C57 0.939 . S
H41 C59 0.941 . S
H42 C63 0.939 . S
O43 P32 1.490 . S
H44 C60 0.939 . S
H45 C62 0.940 . S
C46 P32 1.812 . S
C46 C47 1.389 . S
C46 C51 1.391 . S
C47 H33 0.941 . S
C47 C46 1.389 . S
C47 C48 1.397 . S
C48 H34 0.939 . S
C48 C47 1.397 . S
C48 C49 1.378 . S
C49 C48 1.378 . S
C49 C50 1.378 . S
C50 H35 0.940 . S
C50 C49 1.378 . S
C50 C51 1.396 . S
C51 H36 0.940 . S
C51 C46 1.391 . S
C51 C50 1.396 . S
C52 P32 1.803 . S
C52 C53 1.378 . S
C52 C57 1.400 . S
C53 H37 0.939 . S
C53 C52 1.378 . S
C53 C54 1.361 . S
C54 H38 0.942 . S
C54 C53 1.361 . S
C54 C55 1.369 . S
C55 C54 1.369 . S
C55 C56 1.404 . S
C56 H39 0.940 . S
C56 C55 1.404 . S
C56 C57 1.389 . S
C57 H40 0.939 . S
C57 C52 1.400 . S
C57 C56 1.389 . S
C58 P32 1.819 . S
C58 C59 1.391 . S
C58 C63 1.391 . S
C59 H41 0.941 . S
C59 C58 1.391 . S
C59 C60 1.396 . S
C60 H44 0.939 . S
C60 C59 1.396 . S
C60 C61 1.397 . S
C61 C60 1.397 . S
C61 C62 1.385 . S
C62 H45 0.940 . S
C62 C61 1.385 . S
C62 C63 1.388 . S
C63 H42 0.939 . S
C63 C58 1.391 . S
C63 C62 1.388 . S
P64 O75 1.490 . S
P64 C78 1.812 . S
P64 C84 1.803 . S
P64 C90 1.819 . S
H65 C79 0.941 . S
H66 C80 0.939 . S
H67 C82 0.940 . S
H68 C83 0.940 . S
H69 C85 0.939 . S
H70 C86 0.942 . S
H71 C88 0.940 . S
H72 C89 0.939 . S
H73 C91 0.941 . S
H74 C95 0.939 . S
O75 P64 1.490 . S
H76 C92 0.939 . S
H77 C94 0.940 . S
C78 P64 1.812 . S
C78 C79 1.389 . S
C78 C83 1.391 . S
C79 H65 0.941 . S
C79 C78 1.389 . S
C79 C80 1.397 . S
C80 H66 0.939 . S
C80 C79 1.397 . S
C80 C81 1.378 . S
C81 C80 1.378 . S
C81 C82 1.378 . S
C82 H67 0.940 . S
C82 C81 1.378 . S
C82 C83 1.396 . S
C83 H68 0.940 . S
C83 C78 1.391 . S
C83 C82 1.396 . S
C84 P64 1.803 . S
C84 C85 1.378 . S
C84 C89 1.400 . S
C85 H69 0.939 . S
C85 C84 1.378 . S
C85 C86 1.361 . S
C86 H70 0.942 . S
C86 C85 1.361 . S
C86 C87 1.369 . S
C87 C86 1.369 . S
C87 C88 1.404 . S
C88 H71 0.940 . S
C88 C87 1.404 . S
C88 C89 1.389 . S
C89 H72 0.939 . S
C89 C84 1.400 . S
C89 C88 1.389 . S
C90 P64 1.819 . S
C90 C91 1.391 . S
C90 C95 1.391 . S
C91 H73 0.941 . S
C91 C90 1.391 . S
C91 C92 1.396 . S
C92 H76 0.939 . S
C92 C91 1.396 . S
C92 C93 1.397 . S
C93 C92 1.397 . S
C93 C94 1.385 . S
C94 H77 0.940 . S
C94 C93 1.385 . S
C94 C95 1.388 . S
C95 H74 0.939 . S
C95 C90 1.391 . S
C95 C94 1.388 . S
P96 O107 1.490 . S
P96 C110 1.812 . S
P96 C116 1.803 . S
P96 C122 1.819 . S
H97 C111 0.941 . S
H98 C112 0.939 . S
H99 C114 0.940 . S
H100 C115 0.940 . S
H101 C117 0.939 . S
H102 C118 0.942 . S
H103 C120 0.940 . S
H104 C121 0.939 . S
H105 C123 0.941 . S
H106 C127 0.939 . S
O107 P96 1.490 . S
H108 C124 0.939 . S
H109 C126 0.940 . S
C110 P96 1.812 . S
C110 C111 1.389 . S
C110 C115 1.391 . S
C111 H97 0.941 . S
C111 C110 1.389 . S
C111 C112 1.397 . S
C112 H98 0.939 . S
C112 C111 1.397 . S
C112 C113 1.378 . S
C113 C112 1.378 . S
C113 C114 1.378 . S
C114 H99 0.940 . S
C114 C113 1.378 . S
C114 C115 1.396 . S
C115 H100 0.940 . S
C115 C110 1.391 . S
C115 C114 1.396 . S
C116 P96 1.803 . S
C116 C117 1.378 . S
C116 C121 1.400 . S
C117 H101 0.939 . S
C117 C116 1.378 . S
C117 C118 1.361 . S
C118 H102 0.942 . S
C118 C117 1.361 . S
C118 C119 1.369 . S
C119 C118 1.369 . S
C119 C120 1.404 . S
C120 H103 0.940 . S
C120 C119 1.404 . S
C120 C121 1.389 . S
C121 H104 0.939 . S
C121 C116 1.400 . S
C121 C120 1.389 . S
C122 P96 1.819 . S
C122 C123 1.391 . S
C122 C127 1.391 . S
C123 H105 0.941 . S
C123 C122 1.391 . S
C123 C124 1.396 . S
C124 H108 0.939 . S
C124 C123 1.396 . S
C124 C125 1.397 . S
C125 C124 1.397 . S
C125 C126 1.385 . S
C126 H109 0.940 . S
C126 C125 1.385 . S
C126 C127 1.388 . S
C127 H106 0.939 . S
C127 C122 1.391 . S
C127 C126 1.388 . S
P128 O139 1.490 . S
P128 C142 1.812 . S
P128 C148 1.803 . S
P128 C154 1.819 . S
H129 C143 0.941 . S
H130 C144 0.939 . S
H131 C146 0.940 . S
H132 C147 0.940 . S
H133 C149 0.939 . S
H134 C150 0.942 . S
H135 C152 0.940 . S
H136 C153 0.939 . S
H137 C155 0.941 . S
H138 C159 0.939 . S
O139 P128 1.490 . S
H140 C156 0.939 . S
H141 C158 0.940 . S
C142 P128 1.812 . S
C142 C143 1.389 . S
C142 C147 1.391 . S
C143 H129 0.941 . S
C143 C142 1.389 . S
C143 C144 1.397 . S
C144 H130 0.939 . S
C144 C143 1.397 . S
C144 C145 1.378 . S
C145 C144 1.378 . S
C145 C146 1.378 . S
C146 H131 0.940 . S
C146 C145 1.378 . S
C146 C147 1.396 . S
C147 H132 0.940 . S
C147 C142 1.391 . S
C147 C146 1.396 . S
C148 P128 1.803 . S
C148 C149 1.378 . S
C148 C153 1.400 . S
C149 H133 0.939 . S
C149 C148 1.378 . S
C149 C150 1.361 . S
C150 H134 0.942 . S
C150 C149 1.361 . S
C150 C151 1.369 . S
C151 C150 1.369 . S
C151 C152 1.404 . S
C152 H135 0.940 . S
C152 C151 1.404 . S
C152 C153 1.389 . S
C153 H136 0.939 . S
C153 C148 1.400 . S
C153 C152 1.389 . S
C154 P128 1.819 . S
C154 C155 1.391 . S
C154 C159 1.391 . S
C155 H137 0.941 . S
C155 C154 1.391 . S
C155 C156 1.396 . S
C156 H140 0.939 . S
C156 C155 1.396 . S
C156 C157 1.397 . S
C157 C156 1.397 . S
C157 C158 1.385 . S
C158 H141 0.940 . S
C158 C157 1.385 . S
C158 C159 1.388 . S
C159 H138 0.939 . S
C159 C154 1.391 . S
C159 C158 1.388 . S
P160 O171 1.490 . S
P160 C174 1.812 . S
P160 C180 1.803 . S
P160 C186 1.819 . S
H161 C175 0.941 . S
H162 C176 0.939 . S
H163 C178 0.940 . S
H164 C179 0.940 . S
H165 C181 0.939 . S
H166 C182 0.942 . S
H167 C184 0.940 . S
H168 C185 0.939 . S
H169 C187 0.941 . S
H170 C191 0.939 . S
O171 P160 1.490 . S
H172 C188 0.939 . S
H173 C190 0.940 . S
C174 P160 1.812 . S
C174 C175 1.389 . S
C174 C179 1.391 . S
C175 H161 0.941 . S
C175 C174 1.389 . S
C175 C176 1.397 . S
C176 H162 0.939 . S
C176 C175 1.397 . S
C176 C177 1.378 . S
C177 C176 1.378 . S
C177 C178 1.378 . S
C178 H163 0.940 . S
C178 C177 1.378 . S
C178 C179 1.396 . S
C179 H164 0.940 . S
C179 C174 1.391 . S
C179 C178 1.396 . S
C180 P160 1.803 . S
C180 C181 1.378 . S
C180 C185 1.400 . S
C181 H165 0.939 . S
C181 C180 1.378 . S
C181 C182 1.361 . S
C182 H166 0.942 . S
C182 C181 1.361 . S
C182 C183 1.369 . S
C183 C182 1.369 . S
C183 C184 1.404 . S
C184 H167 0.940 . S
C184 C183 1.404 . S
C184 C185 1.389 . S
C185 H168 0.939 . S
C185 C180 1.400 . S
C185 C184 1.389 . S
C186 P160 1.819 . S
C186 C187 1.391 . S
C186 C191 1.391 . S
C187 H169 0.941 . S
C187 C186 1.391 . S
C187 C188 1.396 . S
C188 H172 0.939 . S
C188 C187 1.396 . S
C188 C189 1.397 . S
C189 C188 1.397 . S
C189 C190 1.385 . S
C190 H173 0.940 . S
C190 C189 1.385 . S
C190 C191 1.388 . S
C191 H170 0.939 . S
C191 C186 1.391 . S
C191 C190 1.388 . S
P192 O203 1.490 . S
P192 C206 1.812 . S
P192 C212 1.803 . S
P192 C218 1.819 . S
H193 C207 0.941 . S
H194 C208 0.939 . S
H195 C210 0.940 . S
H196 C211 0.940 . S
H197 C213 0.939 . S
H198 C214 0.942 . S
H199 C216 0.940 . S
H200 C217 0.939 . S
H201 C219 0.941 . S
H202 C223 0.939 . S
O203 P192 1.490 . S
H204 C220 0.939 . S
H205 C222 0.940 . S
C206 P192 1.812 . S
C206 C207 1.389 . S
C206 C211 1.391 . S
C207 H193 0.941 . S
C207 C206 1.389 . S
C207 C208 1.397 . S
C208 H194 0.939 . S
C208 C207 1.397 . S
C208 C209 1.378 . S
C209 C208 1.378 . S
C209 C210 1.378 . S
C210 H195 0.940 . S
C210 C209 1.378 . S
C210 C211 1.396 . S
C211 H196 0.940 . S
C211 C206 1.391 . S
C211 C210 1.396 . S
C212 P192 1.803 . S
C212 C213 1.378 . S
C212 C217 1.400 . S
C213 H197 0.939 . S
C213 C212 1.378 . S
C213 C214 1.361 . S
C214 H198 0.942 . S
C214 C213 1.361 . S
C214 C215 1.369 . S
C215 C214 1.369 . S
C215 C216 1.404 . S
C216 H199 0.940 . S
C216 C215 1.404 . S
C216 C217 1.389 . S
C217 H200 0.939 . S
C217 C212 1.400 . S
C217 C216 1.389 . S
C218 P192 1.819 . S
C218 C219 1.391 . S
C218 C223 1.391 . S
C219 H201 0.941 . S
C219 C218 1.391 . S
C219 C220 1.396 . S
C220 H204 0.939 . S
C220 C219 1.396 . S
C220 C221 1.397 . S
C221 C220 1.397 . S
C221 C222 1.385 . S
C222 H205 0.940 . S
C222 C221 1.385 . S
C222 C223 1.388 . S
C223 H202 0.939 . S
C223 C218 1.391 . S
C223 C222 1.388 . S
P224 O235 1.490 . S
P224 C238 1.812 . S
P224 C244 1.803 . S
P224 C250 1.819 . S
H225 C239 0.941 . S
H226 C240 0.939 . S
H227 C242 0.940 . S
H228 C243 0.940 . S
H229 C245 0.939 . S
H230 C246 0.942 . S
H231 C248 0.940 . S
H232 C249 0.939 . S
H233 C251 0.941 . S
H234 C255 0.939 . S
O235 P224 1.490 . S
H236 C252 0.939 . S
H237 C254 0.940 . S
C238 P224 1.812 . S
C238 C239 1.389 . S
C238 C243 1.391 . S
C239 H225 0.941 . S
C239 C238 1.389 . S
C239 C240 1.397 . S
C240 H226 0.939 . S
C240 C239 1.397 . S
C240 C241 1.378 . S
C241 C240 1.378 . S
C241 C242 1.378 . S
C242 H227 0.940 . S
C242 C241 1.378 . S
C242 C243 1.396 . S
C243 H228 0.940 . S
C243 C238 1.391 . S
C243 C242 1.396 . S
C244 P224 1.803 . S
C244 C245 1.378 . S
C244 C249 1.400 . S
C245 H229 0.939 . S
C245 C244 1.378 . S
C245 C246 1.361 . S
C246 H230 0.942 . S
C246 C245 1.361 . S
C246 C247 1.369 . S
C247 C246 1.369 . S
C247 C248 1.404 . S
C248 H231 0.940 . S
C248 C247 1.404 . S
C248 C249 1.389 . S
C249 H232 0.939 . S
C249 C244 1.400 . S
C249 C248 1.389 . S
C250 P224 1.819 . S
C250 C251 1.391 . S
C250 C255 1.391 . S
C251 H233 0.941 . S
C251 C250 1.391 . S
C251 C252 1.396 . S
C252 H236 0.939 . S
C252 C251 1.396 . S
C252 C253 1.397 . S
C253 C252 1.397 . S
C253 C254 1.385 . S
C254 H237 0.940 . S
C254 C253 1.385 . S
C254 C255 1.388 . S
C255 H234 0.939 . S
C255 C250 1.391 . S
C255 C254 1.388 . S
Ho256 C259 2.811 . S
Ho256 O276 2.322 . S
Ho256 O278 2.378 . S
Ho256 O279 2.524 . S
Ho256 O280 2.381 1_545 S
Ho256 O281 2.669 1_545 S
Ho256 O283 2.346 1_445 S
Ho256 O287 2.305 1_455 S
Ho257 C268 2.811 . S
Ho257 O277 2.346 1_665 S
Ho257 O281 2.305 1_655 S
Ho257 O282 2.322 . S
Ho257 O284 2.378 . S
Ho257 O285 2.524 . S
Ho257 O286 2.381 1_565 S
Ho257 O287 2.669 1_565 S
C258 O276 1.259 . S
C258 O277 1.268 . S
C259 Ho256 2.811 . S
C259 C260 1.488 . S
C259 O278 1.215 . S
C259 O279 1.289 . S
C260 C259 1.488 . S
C260 C261 1.348 . S
C260 C265 1.413 . S
C261 C260 1.348 . S
C261 C262 1.442 . S
C261 H288 0.930 . S
C262 C261 1.442 . S
C262 C263 1.381 . S
C262 H289 0.931 . S
C263 C262 1.381 . S
C263 C264 1.321 . S
C264 C263 1.321 . S
C264 C265 1.403 . S
C264 H290 0.934 . S
C265 C260 1.413 . S
C265 C264 1.403 . S
C265 H291 0.930 . S
C266 O280 1.275 . S
C266 O281 1.256 . S
C267 O282 1.259 . S
C267 O283 1.268 . S
C268 Ho257 2.811 . S
C268 C269 1.488 . S
C268 O284 1.215 . S
C268 O285 1.289 . S
C269 C268 1.488 . S
C269 C270 1.348 . S
C269 C274 1.413 . S
C270 C269 1.348 . S
C270 C271 1.442 . S
C270 H292 0.930 . S
C271 C270 1.442 . S
C271 C272 1.381 . S
C271 H293 0.931 . S
C272 C271 1.381 . S
C272 C273 1.321 . S
C273 C272 1.321 . S
C273 C274 1.403 . S
C273 H294 0.934 . S
C274 C269 1.413 . S
C274 C273 1.403 . S
C274 H295 0.930 . S
C275 O286 1.275 . S
C275 O287 1.256 . S
O276 Ho256 2.322 . S
O276 C258 1.259 . S
O277 Ho257 2.346 1_445 S
O277 C258 1.268 . S
O278 Ho256 2.378 . S
O278 C259 1.215 . S
O279 Ho256 2.524 . S
O279 C259 1.289 . S
O280 Ho256 2.381 1_565 S
O280 C266 1.275 . S
O281 Ho256 2.669 1_565 S
O281 Ho257 2.305 1_455 S
O281 C266 1.256 . S
O282 Ho257 2.322 . S
O282 C267 1.259 . S
O283 Ho256 2.346 1_665 S
O283 C267 1.268 . S
O284 Ho257 2.378 . S
O284 C268 1.215 . S
O285 Ho257 2.524 . S
O285 C268 1.289 . S
O286 Ho257 2.381 1_545 S
O286 C275 1.275 . S
O287 Ho256 2.305 1_655 S
O287 Ho257 2.669 1_545 S
O287 C275 1.256 . S
H288 C261 0.930 . S
H289 C262 0.931 . S
H290 C264 0.934 . S
H291 C265 0.930 . S
H292 C270 0.930 . S
H293 C271 0.931 . S
H294 C273 0.934 . S
H295 C274 0.930 . S
Ho296 C299 2.811 . S
Ho296 O316 2.322 . S
Ho296 O318 2.378 . S
Ho296 O319 2.524 . S
Ho296 O320 2.381 1_545 S
Ho296 O321 2.669 1_545 S
Ho296 O323 2.346 1_544 S
Ho296 O327 2.278 1_554 S
Ho297 C308 2.811 1_545 S
Ho297 O317 2.346 1_556 S
Ho297 O321 2.305 1_546 S
Ho297 O322 2.322 1_545 S
Ho297 O324 2.376 1_545 S
Ho297 O325 2.524 1_545 S
Ho297 O326 2.381 . S
Ho297 O327 2.682 . S
C298 O316 1.259 . S
C298 O317 1.268 . S
C299 Ho296 2.811 . S
C299 C300 1.488 . S
C299 O318 1.215 . S
C299 O319 1.289 . S
C300 C299 1.488 . S
C300 C301 1.348 . S
C300 C305 1.413 . S
C301 C300 1.348 . S
C301 C302 1.442 . S
C301 H328 0.930 . S
C302 C301 1.442 . S
C302 C303 1.381 . S
C302 H329 0.931 . S
C303 C302 1.381 . S
C303 C304 1.321 . S
C304 C303 1.321 . S
C304 C305 1.403 . S
C304 H330 0.934 . S
C305 C300 1.413 . S
C305 C304 1.403 . S
C305 H331 0.930 . S
C306 O320 1.275 . S
C306 O321 1.256 . S
C307 O322 1.259 . S
C307 O323 1.268 . S
C308 Ho297 2.811 1_565 S
C308 C309 1.488 . S
C308 O324 1.248 . S
C308 O325 1.289 . S
C309 C308 1.488 . S
C309 C310 1.348 . S
C309 C314 1.413 . S
C310 C309 1.348 . S
C310 C311 1.442 . S
C310 H332 0.930 . S
C311 C310 1.442 . S
C311 C312 1.381 . S
C311 H333 0.931 . S
C312 C311 1.381 . S
C312 C313 1.321 . S
C313 C312 1.321 . S
C313 C314 1.403 . S
C313 H334 0.934 . S
C314 C309 1.413 . S
C314 C313 1.403 . S
C314 H335 0.930 . S
C315 O326 1.275 . S
C315 O327 1.286 . S
O316 Ho296 2.322 . S
O316 C298 1.259 . S
O317 Ho297 2.346 1_554 S
O317 C298 1.268 . S
O318 Ho296 2.378 . S
O318 C299 1.215 . S
O319 Ho296 2.524 . S
O319 C299 1.289 . S
O320 Ho296 2.381 1_565 S
O320 C306 1.275 . S
O321 Ho296 2.669 1_565 S
O321 Ho297 2.305 1_564 S
O321 C306 1.256 . S
O322 Ho297 2.322 1_565 S
O322 C307 1.259 . S
O323 Ho296 2.346 1_566 S
O323 C307 1.268 . S
O324 Ho297 2.376 1_565 S
O324 C308 1.248 . S
O325 Ho297 2.524 1_565 S
O325 C308 1.289 . S
O326 Ho297 2.381 . S
O326 C315 1.275 . S
O327 Ho296 2.278 1_556 S
O327 Ho297 2.682 . S
O327 C315 1.286 . S
H328 C301 0.930 . S
H329 C302 0.931 . S
H330 C304 0.934 . S
H331 C305 0.930 . S
H332 C310 0.930 . S
H333 C311 0.931 . S
H334 C313 0.934 . S
H335 C314 0.930 . S
Ho336 C339 2.811 . S
Ho336 O356 2.322 . S
Ho336 O358 2.378 . S
Ho336 O359 2.524 . S
Ho336 O360 2.381 . S
Ho336 O361 2.669 . S
Ho336 O363 2.346 . S
Ho336 O367 2.305 . S
Ho337 C348 2.811 . S
Ho337 O357 2.346 . S
Ho337 O361 2.305 . S
Ho337 O362 2.322 . S
Ho337 O364 2.378 . S
Ho337 O365 2.524 . S
Ho337 O366 2.381 . S
Ho337 O367 2.669 . S
C338 O356 1.259 . S
C338 O357 1.268 . S
C339 Ho336 2.811 . S
C339 C340 1.488 . S
C339 O358 1.215 . S
C339 O359 1.289 . S
C340 C339 1.488 . S
C340 C341 1.348 . S
C340 C345 1.413 . S
C341 C340 1.348 . S
C341 C342 1.442 . S
C341 H368 0.930 . S
C342 C341 1.442 . S
C342 C343 1.381 . S
C342 H369 0.931 . S
C343 C342 1.381 . S
C343 C344 1.321 . S
C344 C343 1.321 . S
C344 C345 1.403 . S
C344 H370 0.934 . S
C345 C340 1.413 . S
C345 C344 1.403 . S
C345 H371 0.930 . S
C346 O360 1.275 . S
C346 O361 1.256 . S
C347 O362 1.259 . S
C347 O363 1.268 . S
C348 Ho337 2.811 . S
C348 C349 1.488 . S
C348 O364 1.215 . S
C348 O365 1.289 . S
C349 C348 1.488 . S
C349 C350 1.348 . S
C349 C354 1.413 . S
C350 C349 1.348 . S
C350 C351 1.442 . S
C350 H372 0.930 . S
C351 C350 1.442 . S
C351 C352 1.381 . S
C351 H373 0.931 . S
C352 C351 1.381 . S
C352 C353 1.321 . S
C353 C352 1.321 . S
C353 C354 1.403 . S
C353 H374 0.934 . S
C354 C349 1.413 . S
C354 C353 1.403 . S
C354 H375 0.930 . S
C355 O366 1.275 . S
C355 O367 1.256 . S
O356 Ho336 2.322 . S
O356 C338 1.259 . S
O357 Ho337 2.346 . S
O357 C338 1.268 . S
O358 Ho336 2.378 . S
O358 C339 1.215 . S
O359 Ho336 2.524 . S
O359 C339 1.289 . S
O360 Ho336 2.381 . S
O360 C346 1.275 . S
O361 Ho336 2.669 . S
O361 Ho337 2.305 . S
O361 C346 1.256 . S
O362 Ho337 2.322 . S
O362 C347 1.259 . S
O363 Ho336 2.346 . S
O363 C347 1.268 . S
O364 Ho337 2.378 . S
O364 C348 1.215 . S
O365 Ho337 2.524 . S
O365 C348 1.289 . S
O366 Ho337 2.381 . S
O366 C355 1.275 . S
O367 Ho336 2.305 . S
O367 Ho337 2.669 . S
O367 C355 1.256 . S
H368 C341 0.930 . S
H369 C342 0.931 . S
H370 C344 0.934 . S
H371 C345 0.930 . S
H372 C350 0.930 . S
H373 C351 0.931 . S
H374 C353 0.934 . S
H375 C354 0.930 . S
Ho376 C379 2.811 . S
Ho376 O396 2.322 . S
Ho376 O398 2.378 . S
Ho376 O399 2.524 . S
Ho376 O400 2.381 1_455 S
Ho376 O401 2.669 1_455 S
Ho376 O403 2.353 1_455 S
Ho376 O407 2.305 1_554 S
Ho377 C388 2.811 . S
Ho377 O397 2.346 1_656 S
Ho377 O401 2.305 1_556 S
Ho377 O402 2.322 . S
Ho377 O404 2.378 . S
Ho377 O405 2.524 . S
Ho377 O406 2.381 1_655 S
Ho377 O407 2.669 1_655 S
C378 O396 1.259 . S
C378 O397 1.268 . S
C379 Ho376 2.811 . S
C379 C380 1.488 . S
C379 O398 1.215 . S
C379 O399 1.289 . S
C380 C379 1.488 . S
C380 C381 1.348 . S
C380 C385 1.413 . S
C381 C380 1.348 . S
C381 C382 1.442 . S
C381 H408 0.930 . S
C382 C381 1.442 . S
C382 C383 1.381 . S
C382 H409 0.931 . S
C383 C382 1.381 . S
C383 C384 1.321 . S
C384 C383 1.321 . S
C384 C385 1.403 . S
C384 H410 0.934 . S
C385 C380 1.413 . S
C385 C384 1.403 . S
C385 H411 0.930 . S
C386 O400 1.275 . S
C386 O401 1.256 . S
C387 O402 1.259 . S
C387 O403 1.257 1_556 S
C388 Ho377 2.811 . S
C388 C389 1.488 . S
C388 O404 1.215 . S
C388 O405 1.289 . S
C389 C388 1.488 . S
C389 C390 1.348 . S
C389 C394 1.413 . S
C390 C389 1.348 . S
C390 C391 1.442 . S
C390 H412 0.930 . S
C391 C390 1.442 . S
C391 C392 1.381 . S
C391 H413 0.931 . S
C392 C391 1.381 . S
C392 C393 1.321 . S
C393 C392 1.321 . S
C393 C394 1.403 . S
C393 H414 0.934 . S
C394 C389 1.413 . S
C394 C393 1.403 . S
C394 H415 0.930 . S
C395 O406 1.275 . S
C395 O407 1.256 . S
O396 Ho376 2.322 . S
O396 C378 1.259 . S
O397 Ho377 2.346 1_454 S
O397 C378 1.268 . S
O398 Ho376 2.378 . S
O398 C379 1.215 . S
O399 Ho376 2.524 . S
O399 C379 1.289 . S
O400 Ho376 2.381 1_655 S
O400 C386 1.275 . S
O401 Ho376 2.669 1_655 S
O401 Ho377 2.305 1_554 S
O401 C386 1.256 . S
O402 Ho377 2.322 . S
O402 C387 1.259 . S
O403 Ho376 2.353 1_655 S
O403 C387 1.257 1_554 S
O404 Ho377 2.378 . S
O404 C388 1.215 . S
O405 Ho377 2.524 . S
O405 C388 1.289 . S
O406 Ho377 2.381 1_455 S
O406 C395 1.275 . S
O407 Ho376 2.305 1_556 S
O407 Ho377 2.669 1_455 S
O407 C395 1.256 . S
H408 C381 0.930 . S
H409 C382 0.931 . S
H410 C384 0.934 . S
H411 C385 0.930 . S
H412 C390 0.930 . S
H413 C391 0.931 . S
H414 C393 0.934 . S
H415 C394 0.930 . S
C416 C417 1.391 . S
C416 C418 1.394 . S
C416 H432 0.931 . S
C417 C416 1.391 . S
C417 C421 1.376 . S
C418 C416 1.394 . S
C418 C419 1.369 . S
C418 C422 1.531 . S
C419 C418 1.369 . S
C419 C420 1.410 . S
C419 C427 1.503 . S
C420 C419 1.410 . S
C420 C421 1.392 . S
C420 C423 1.511 . S
C421 C417 1.376 . S
C421 C420 1.392 . S
C421 H433 0.929 . S
C422 C418 1.531 . S
C422 H434 0.960 . S
C422 H435 0.962 . S
C422 H436 0.960 . S
C423 C420 1.511 . S
C423 H437 0.961 . S
C423 H438 0.961 . S
C423 H439 0.961 . S
C424 C425 1.370 . S
C424 C426 1.363 . S
C424 H440 0.931 . S
C425 C424 1.370 . S
C425 C429 1.408 . S
C426 C424 1.363 . S
C426 C427 1.370 . S
C426 C430 1.524 . S
C427 C419 1.503 . S
C427 C426 1.370 . S
C427 C428 1.403 . S
C428 C427 1.403 . S
C428 C429 1.404 . S
C428 C431 1.539 . S
C429 C425 1.408 . S
C429 C428 1.404 . S
C429 H441 0.930 . S
C430 C426 1.524 . S
C430 H442 0.956 . S
C430 H443 0.961 . S
C430 H444 0.961 . S
C431 C428 1.539 . S
C431 H445 0.958 . S
C431 H446 0.961 . S
C431 H447 0.960 . S
H432 C416 0.931 . S
H433 C421 0.929 . S
H434 C422 0.960 . S
H435 C422 0.962 . S
H436 C422 0.960 . S
H437 C423 0.961 . S
H438 C423 0.961 . S
H439 C423 0.961 . S
H440 C424 0.931 . S
H441 C429 0.930 . S
H442 C430 0.956 . S
H443 C430 0.961 . S
H444 C430 0.961 . S
H445 C431 0.958 . S
H446 C431 0.961 . S
H447 C431 0.960 . S
C448 C449 1.391 . S
C448 C450 1.394 . S
C448 H464 0.931 . S
C449 C448 1.391 . S
C449 C453 1.376 . S
C450 C448 1.394 . S
C450 C451 1.369 . S
C450 C454 1.531 . S
C451 C450 1.369 . S
C451 C452 1.410 . S
C451 C459 1.503 . S
C452 C451 1.410 . S
C452 C453 1.392 . S
C452 C455 1.511 . S
C453 C449 1.376 . S
C453 C452 1.392 . S
C453 H465 0.929 . S
C454 C450 1.531 . S
C454 H466 0.960 . S
C454 H467 0.962 . S
C454 H468 0.960 . S
C455 C452 1.511 . S
C455 H469 0.961 . S
C455 H470 0.961 . S
C455 H471 0.961 . S
C456 C457 1.370 . S
C456 C458 1.363 . S
C456 H472 0.931 . S
C457 C456 1.370 . S
C457 C461 1.408 . S
C458 C456 1.363 . S
C458 C459 1.370 . S
C458 C462 1.524 . S
C459 C451 1.503 . S
C459 C458 1.370 . S
C459 C460 1.403 . S
C460 C459 1.403 . S
C460 C461 1.404 . S
C460 C463 1.539 . S
C461 C457 1.408 . S
C461 C460 1.404 . S
C461 H473 0.930 . S
C462 C458 1.524 . S
C462 H474 0.956 . S
C462 H475 0.961 . S
C462 H476 0.961 . S
C463 C460 1.539 . S
C463 H477 0.958 . S
C463 H478 0.961 . S
C463 H479 0.960 . S
H464 C448 0.931 . S
H465 C453 0.929 . S
H466 C454 0.960 . S
H467 C454 0.962 . S
H468 C454 0.960 . S
H469 C455 0.961 . S
H470 C455 0.961 . S
H471 C455 0.961 . S
H472 C456 0.931 . S
H473 C461 0.930 . S
H474 C462 0.956 . S
H475 C462 0.961 . S
H476 C462 0.961 . S
H477 C463 0.958 . S
H478 C463 0.961 . S
H479 C463 0.960 . S
C480 C481 1.391 . S
C480 C482 1.394 . S
C480 H496 0.931 . S
C481 C480 1.391 . S
C481 C485 1.376 . S
C482 C480 1.394 . S
C482 C483 1.369 . S
C482 C486 1.531 . S
C483 C482 1.369 . S
C483 C484 1.410 . S
C483 C491 1.503 . S
C484 C483 1.410 . S
C484 C485 1.392 . S
C484 C487 1.511 . S
C485 C481 1.376 . S
C485 C484 1.392 . S
C485 H497 0.929 . S
C486 C482 1.531 . S
C486 H498 0.960 . S
C486 H499 0.962 . S
C486 H500 0.960 . S
C487 C484 1.511 . S
C487 H501 0.961 . S
C487 H502 0.961 . S
C487 H503 0.961 . S
C488 C489 1.370 . S
C488 C490 1.363 . S
C488 H504 0.931 . S
C489 C488 1.370 . S
C489 C493 1.408 . S
C490 C488 1.363 . S
C490 C491 1.370 . S
C490 C494 1.524 . S
C491 C483 1.503 . S
C491 C490 1.370 . S
C491 C492 1.403 . S
C492 C491 1.403 . S
C492 C493 1.404 . S
C492 C495 1.539 . S
C493 C489 1.408 . S
C493 C492 1.404 . S
C493 H505 0.930 . S
C494 C490 1.524 . S
C494 H506 0.956 . S
C494 H507 0.961 . S
C494 H508 0.961 . S
C495 C492 1.539 . S
C495 H509 0.958 . S
C495 H510 0.961 . S
C495 H511 0.960 . S
H496 C480 0.931 . S
H497 C485 0.929 . S
H498 C486 0.960 . S
H499 C486 0.962 . S
H500 C486 0.960 . S
H501 C487 0.961 . S
H502 C487 0.961 . S
H503 C487 0.961 . S
H504 C488 0.931 . S
H505 C493 0.930 . S
H506 C494 0.956 . S
H507 C494 0.961 . S
H508 C494 0.961 . S
H509 C495 0.958 . S
H510 C495 0.961 . S
H511 C495 0.960 . S
C512 C513 1.391 . S
C512 C514 1.394 . S
C512 H528 0.931 . S
C513 C512 1.391 . S
C513 C517 1.376 . S
C514 C512 1.394 . S
C514 C515 1.369 . S
C514 C518 1.531 . S
C515 C514 1.369 . S
C515 C516 1.410 . S
C515 C523 1.503 . S
C516 C515 1.410 . S
C516 C517 1.392 . S
C516 C519 1.511 . S
C517 C513 1.376 . S
C517 C516 1.392 . S
C517 H529 0.929 . S
C518 C514 1.531 . S
C518 H530 0.960 . S
C518 H531 0.962 . S
C518 H532 0.960 . S
C519 C516 1.511 . S
C519 H533 0.961 . S
C519 H534 0.961 . S
C519 H535 0.961 . S
C520 C521 1.370 . S
C520 C522 1.363 . S
C520 H536 0.931 . S
C521 C520 1.370 . S
C521 C525 1.408 . S
C522 C520 1.363 . S
C522 C523 1.370 . S
C522 C526 1.524 . S
C523 C515 1.503 . S
C523 C522 1.370 . S
C523 C524 1.403 . S
C524 C523 1.403 . S
C524 C525 1.404 . S
C524 C527 1.539 . S
C525 C521 1.408 . S
C525 C524 1.404 . S
C525 H537 0.930 . S
C526 C522 1.524 . S
C526 H538 0.956 . S
C526 H539 0.961 . S
C526 H540 0.961 . S
C527 C524 1.539 . S
C527 H541 0.958 . S
C527 H542 0.961 . S
C527 H543 0.960 . S
H528 C512 0.931 . S
H529 C517 0.929 . S
H530 C518 0.960 . S
H531 C518 0.962 . S
H532 C518 0.960 . S
H533 C519 0.961 . S
H534 C519 0.961 . S
H535 C519 0.961 . S
H536 C520 0.931 . S
H537 C525 0.930 . S
H538 C526 0.956 . S
H539 C526 0.961 . S
H540 C526 0.961 . S
H541 C527 0.958 . S
H542 C527 0.961 . S
H543 C527 0.960 . S
C544 C545 1.391 . S
C544 C546 1.394 . S
C544 H560 0.931 . S
C545 C544 1.391 . S
C545 C549 1.376 . S
C546 C544 1.394 . S
C546 C547 1.369 . S
C546 C550 1.531 . S
C547 C546 1.369 . S
C547 C548 1.410 . S
C547 C555 1.503 . S
C548 C547 1.410 . S
C548 C549 1.392 . S
C548 C551 1.511 . S
C549 C545 1.376 . S
C549 C548 1.392 . S
C549 H561 0.929 . S
C550 C546 1.531 . S
C550 H562 0.960 . S
C550 H563 0.962 . S
C550 H564 0.960 . S
C551 C548 1.511 . S
C551 H565 0.961 . S
C551 H566 0.961 . S
C551 H567 0.961 . S
C552 C553 1.370 . S
C552 C554 1.363 . S
C552 H568 0.931 . S
C553 C552 1.370 . S
C553 C557 1.408 . S
C554 C552 1.363 . S
C554 C555 1.370 . S
C554 C558 1.524 . S
C555 C547 1.503 . S
C555 C554 1.370 . S
C555 C556 1.403 . S
C556 C555 1.403 . S
C556 C557 1.404 . S
C556 C559 1.539 . S
C557 C553 1.408 . S
C557 C556 1.404 . S
C557 H569 0.930 . S
C558 C554 1.524 . S
C558 H570 0.956 . S
C558 H571 0.961 . S
C558 H572 0.961 . S
C559 C556 1.539 . S
C559 H573 0.958 . S
C559 H574 0.961 . S
C559 H575 0.960 . S
H560 C544 0.931 . S
H561 C549 0.929 . S
H562 C550 0.960 . S
H563 C550 0.962 . S
H564 C550 0.960 . S
H565 C551 0.961 . S
H566 C551 0.961 . S
H567 C551 0.961 . S
H568 C552 0.931 . S
H569 C557 0.930 . S
H570 C558 0.956 . S
H571 C558 0.961 . S
H572 C558 0.961 . S
H573 C559 0.958 . S
H574 C559 0.961 . S
H575 C559 0.960 . S
C576 C577 1.391 . S
C576 C578 1.394 . S
C576 H592 0.931 . S
C577 C576 1.391 . S
C577 C581 1.376 . S
C578 C576 1.394 . S
C578 C579 1.369 . S
C578 C582 1.531 . S
C579 C578 1.369 . S
C579 C580 1.410 . S
C579 C587 1.503 . S
C580 C579 1.410 . S
C580 C581 1.392 . S
C580 C583 1.511 . S
C581 C577 1.376 . S
C581 C580 1.392 . S
C581 H593 0.929 . S
C582 C578 1.531 . S
C582 H594 0.960 . S
C582 H595 0.962 . S
C582 H596 0.960 . S
C583 C580 1.511 . S
C583 H597 0.961 . S
C583 H598 0.961 . S
C583 H599 0.961 . S
C584 C585 1.370 . S
C584 C586 1.363 . S
C584 H600 0.931 . S
C585 C584 1.370 . S
C585 C589 1.408 . S
C586 C584 1.363 . S
C586 C587 1.370 . S
C586 C590 1.524 . S
C587 C579 1.503 . S
C587 C586 1.370 . S
C587 C588 1.403 . S
C588 C587 1.403 . S
C588 C589 1.404 . S
C588 C591 1.539 . S
C589 C585 1.408 . S
C589 C588 1.404 . S
C589 H601 0.906 1_565 S
C590 C586 1.524 . S
C590 H602 0.956 . S
C590 H603 0.961 . S
C590 H604 0.961 . S
C591 C588 1.539 . S
C591 H605 0.958 . S
C591 H606 0.961 . S
C591 H607 0.960 . S
H592 C576 0.931 . S
H593 C581 0.929 . S
H594 C582 0.960 . S
H595 C582 0.962 . S
H596 C582 0.960 . S
H597 C583 0.961 . S
H598 C583 0.961 . S
H599 C583 0.961 . S
H600 C584 0.931 . S
H601 C589 0.906 1_545 S
H602 C590 0.956 . S
H603 C590 0.961 . S
H604 C590 0.961 . S
H605 C591 0.958 . S
H606 C591 0.961 . S
H607 C591 0.960 . S
C608 C609 1.391 . S
C608 C610 1.394 . S
C608 H624 0.931 . S
C609 C608 1.391 . S
C609 C613 1.376 . S
C610 C608 1.394 . S
C610 C611 1.369 . S
C610 C614 1.531 . S
C611 C610 1.369 . S
C611 C612 1.410 . S
C611 C619 1.503 . S
C612 C611 1.410 . S
C612 C613 1.392 . S
C612 C615 1.511 . S
C613 C609 1.376 . S
C613 C612 1.392 . S
C613 H625 0.929 . S
C614 C610 1.531 . S
C614 H626 0.960 . S
C614 H627 0.962 . S
C614 H628 0.960 . S
C615 C612 1.511 . S
C615 H629 0.961 . S
C615 H630 0.961 . S
C615 H631 0.961 . S
C616 C617 1.370 . S
C616 C618 1.363 . S
C616 H632 0.931 . S
C617 C616 1.370 . S
C617 C621 1.408 . S
C618 C616 1.363 . S
C618 C619 1.370 . S
C618 C622 1.524 . S
C619 C611 1.503 . S
C619 C618 1.370 . S
C619 C620 1.403 . S
C620 C619 1.403 . S
C620 C621 1.404 . S
C620 C623 1.539 . S
C621 C617 1.408 . S
C621 C620 1.404 . S
C621 H633 0.930 . S
C622 C618 1.524 . S
C622 H634 0.956 . S
C622 H635 0.961 . S
C622 H636 0.961 . S
C623 C620 1.539 . S
C623 H637 0.958 . S
C623 H638 0.961 . S
C623 H639 0.960 . S
H624 C608 0.931 . S
H625 C613 0.929 . S
H626 C614 0.960 . S
H627 C614 0.962 . S
H628 C614 0.960 . S
H629 C615 0.961 . S
H630 C615 0.961 . S
H631 C615 0.961 . S
H632 C616 0.931 . S
H633 C621 0.930 . S
H634 C622 0.956 . S
H635 C622 0.961 . S
H636 C622 0.961 . S
H637 C623 0.958 . S
H638 C623 0.961 . S
H639 C623 0.960 . S
C640 C641 1.391 . S
C640 C642 1.394 . S
C640 H656 0.931 . S
C641 C640 1.391 . S
C641 C645 1.376 . S
C642 C640 1.394 . S
C642 C643 1.369 . S
C642 C646 1.531 . S
C643 C642 1.369 . S
C643 C644 1.410 . S
C643 C651 1.503 . S
C644 C643 1.410 . S
C644 C645 1.392 . S
C644 C647 1.511 . S
C645 C641 1.376 . S
C645 C644 1.392 . S
C645 H657 0.929 . S
C646 C642 1.531 . S
C646 H658 0.960 . S
C646 H659 0.962 . S
C646 H660 0.960 . S
C647 C644 1.511 . S
C647 H661 0.961 . S
C647 H662 0.961 . S
C647 H663 0.961 . S
C648 C649 1.370 . S
C648 C650 1.363 . S
C648 H664 0.931 . S
C649 C648 1.370 . S
C649 C653 1.408 . S
C650 C648 1.363 . S
C650 C651 1.370 . S
C650 C654 1.524 . S
C651 C643 1.503 . S
C651 C650 1.370 . S
C651 C652 1.403 . S
C652 C651 1.403 . S
C652 C653 1.404 . S
C652 C655 1.539 . S
C653 C649 1.408 . S
C653 C652 1.404 . S
C653 H665 0.930 . S
C654 C650 1.524 . S
C654 H666 0.956 . S
C654 H667 0.961 . S
C654 H668 0.961 . S
C655 C652 1.539 . S
C655 H669 0.958 . S
C655 H670 0.961 . S
C655 H671 0.960 . S
H656 C640 0.931 . S
H657 C645 0.929 . S
H658 C646 0.960 . S
H659 C646 0.962 . S
H660 C646 0.960 . S
H661 C647 0.961 . S
H662 C647 0.961 . S
H663 C647 0.961 . S
H664 C648 0.931 . S
H665 C653 0.930 . S
H666 C654 0.956 . S
H667 C654 0.961 . S
H668 C654 0.961 . S
H669 C655 0.958 . S
H670 C655 0.961 . S
H671 C655 0.960 . S
C672 C673 1.391 . S
C672 C674 1.394 . S
C672 H688 0.931 . S
C673 C672 1.391 . S
C673 C677 1.376 . S
C674 C672 1.394 . S
C674 C675 1.369 . S
C674 C678 1.531 . S
C675 C674 1.369 . S
C675 C676 1.410 . S
C675 C683 1.503 . S
C676 C675 1.410 . S
C676 C677 1.392 . S
C676 C679 1.511 . S
C677 C673 1.376 . S
C677 C676 1.392 . S
C677 H689 0.929 . S
C678 C674 1.531 . S
C678 H690 0.960 . S
C678 H691 0.962 . S
C678 H692 0.960 . S
C679 C676 1.511 . S
C679 H693 0.961 . S
C679 H694 0.961 . S
C679 H695 0.961 . S
C680 C681 1.370 . S
C680 C682 1.363 . S
C680 H696 0.931 . S
C681 C680 1.370 . S
C681 C685 1.408 . S
C682 C680 1.363 . S
C682 C683 1.370 . S
C682 C686 1.524 . S
C683 C675 1.503 . S
C683 C682 1.370 . S
C683 C684 1.403 . S
C684 C683 1.403 . S
C684 C685 1.404 . S
C684 C687 1.539 . S
C685 C681 1.408 . S
C685 C684 1.404 . S
C685 H697 0.930 . S
C686 C682 1.524 . S
C686 H698 0.956 . S
C686 H699 0.961 . S
C686 H700 0.961 . S
C687 C684 1.539 . S
C687 H701 0.958 . S
C687 H702 0.961 . S
C687 H703 0.960 . S
H688 C672 0.931 . S
H689 C677 0.929 . S
H690 C678 0.960 . S
H691 C678 0.962 . S
H692 C678 0.960 . S
H693 C679 0.961 . S
H694 C679 0.961 . S
H695 C679 0.961 . S
H696 C680 0.931 . S
H697 C685 0.930 . S
H698 C686 0.956 . S
H699 C686 0.961 . S
H700 C686 0.961 . S
H701 C687 0.958 . S
H702 C687 0.961 . S
H703 C687 0.960 . S
C704 C705 1.391 . S
C704 C706 1.394 . S
C704 H720 0.931 . S
C705 C704 1.391 . S
C705 C709 1.376 . S
C706 C704 1.394 . S
C706 C707 1.369 . S
C706 C710 1.531 . S
C707 C706 1.369 . S
C707 C708 1.410 . S
C707 C715 1.503 . S
C708 C707 1.410 . S
C708 C709 1.392 . S
C708 C711 1.511 . S
C709 C705 1.376 . S
C709 C708 1.392 . S
C709 H721 0.929 . S
C710 C706 1.531 . S
C710 H722 0.960 . S
C710 H723 0.962 . S
C710 H724 0.960 . S
C711 C708 1.511 . S
C711 H725 0.961 . S
C711 H726 0.961 . S
C711 H727 0.961 . S
C712 C713 1.370 . S
C712 C714 1.363 . S
C712 H728 0.931 . S
C713 C712 1.370 . S
C713 C717 1.408 . S
C714 C712 1.363 . S
C714 C715 1.370 . S
C714 C718 1.524 . S
C715 C707 1.503 . S
C715 C714 1.370 . S
C715 C716 1.403 . S
C716 C715 1.403 . S
C716 C717 1.404 . S
C716 C719 1.539 . S
C717 C713 1.408 . S
C717 C716 1.404 . S
C717 H729 0.930 . S
C718 C714 1.524 . S
C718 H730 0.956 . S
C718 H731 0.961 . S
C718 H732 0.961 . S
C719 C716 1.539 . S
C719 H733 0.958 . S
C719 H734 0.961 . S
C719 H735 0.960 . S
H720 C704 0.931 . S
H721 C709 0.929 . S
H722 C710 0.960 . S
H723 C710 0.962 . S
H724 C710 0.960 . S
H725 C711 0.961 . S
H726 C711 0.961 . S
H727 C711 0.961 . S
H728 C712 0.931 . S
H729 C717 0.930 . S
H730 C718 0.956 . S
H731 C718 0.961 . S
H732 C718 0.961 . S
H733 C719 0.958 . S
H734 C719 0.961 . S
H735 C719 0.960 . S
C736 C737 1.391 . S
C736 C738 1.394 . S
C736 H752 0.931 . S
C737 C736 1.391 . S
C737 C741 1.376 . S
C738 C736 1.394 . S
C738 C739 1.369 . S
C738 C742 1.531 . S
C739 C738 1.369 . S
C739 C740 1.410 . S
C739 C747 1.503 . S
C740 C739 1.410 . S
C740 C741 1.392 . S
C740 C743 1.511 . S
C741 C737 1.376 . S
C741 C740 1.392 . S
C741 H753 0.929 . S
C742 C738 1.531 . S
C742 H754 0.960 . S
C742 H755 0.962 . S
C742 H756 0.960 . S
C743 C740 1.511 . S
C743 H757 0.961 . S
C743 H758 0.961 . S
C743 H759 0.961 . S
C744 C745 1.370 . S
C744 C746 1.363 . S
C744 H760 0.931 . S
C745 C744 1.370 . S
C745 C749 1.408 . S
C746 C744 1.363 . S
C746 C747 1.370 . S
C746 C750 1.524 . S
C747 C739 1.503 . S
C747 C746 1.370 . S
C747 C748 1.403 . S
C748 C747 1.403 . S
C748 C749 1.404 . S
C748 C751 1.539 . S
C749 C745 1.408 . S
C749 C748 1.404 . S
C749 H761 0.930 . S
C750 C746 1.524 . S
C750 H762 0.956 . S
C750 H763 0.961 . S
C750 H764 0.961 . S
C751 C748 1.539 . S
C751 H765 0.958 . S
C751 H766 0.961 . S
C751 H767 0.960 . S
H752 C736 0.931 . S
H753 C741 0.929 . S
H754 C742 0.960 . S
H755 C742 0.962 . S
H756 C742 0.960 . S
H757 C743 0.961 . S
H758 C743 0.961 . S
H759 C743 0.961 . S
H760 C744 0.931 . S
H761 C749 0.930 . S
H762 C750 0.956 . S
H763 C750 0.961 . S
H764 C750 0.961 . S
H765 C751 0.958 . S
H766 C751 0.961 . S
H767 C751 0.960 . S
C768 C769 1.391 . S
C768 C770 1.394 . S
C768 H784 0.931 . S
C769 C768 1.391 . S
C769 C773 1.376 . S
C770 C768 1.394 . S
C770 C771 1.369 . S
C770 C774 1.531 . S
C771 C770 1.369 . S
C771 C772 1.410 . S
C771 C779 1.503 . S
C772 C771 1.410 . S
C772 C773 1.392 . S
C772 C775 1.511 . S
C773 C769 1.376 . S
C773 C772 1.392 . S
C773 H785 0.929 . S
C774 C770 1.531 . S
C774 H786 0.960 . S
C774 H787 0.962 . S
C774 H788 0.960 . S
C775 C772 1.511 . S
C775 H789 0.961 . S
C775 H790 0.961 . S
C775 H791 0.961 . S
C776 C777 1.370 . S
C776 C778 1.363 . S
C776 H792 0.931 . S
C777 C776 1.370 . S
C777 C781 1.408 . S
C778 C776 1.363 . S
C778 C779 1.370 . S
C778 C782 1.524 . S
C779 C771 1.503 . S
C779 C778 1.370 . S
C779 C780 1.403 . S
C780 C779 1.403 . S
C780 C781 1.404 . S
C780 C783 1.539 . S
C781 C777 1.408 . S
C781 C780 1.404 . S
C781 H793 0.930 . S
C782 C778 1.524 . S
C782 H794 0.956 . S
C782 H795 0.961 . S
C782 H796 0.961 . S
C783 C780 1.539 . S
C783 H797 0.958 . S
C783 H798 0.961 . S
C783 H799 0.960 . S
H784 C768 0.931 . S
H785 C773 0.929 . S
H786 C774 0.960 . S
H787 C774 0.962 . S
H788 C774 0.960 . S
H789 C775 0.961 . S
H790 C775 0.961 . S
H791 C775 0.961 . S
H792 C776 0.931 . S
H793 C781 0.930 . S
H794 C782 0.956 . S
H795 C782 0.961 . S
H796 C782 0.961 . S
H797 C783 0.958 . S
H798 C783 0.961 . S
H799 C783 0.960 . S
C800 C801 1.391 . S
C800 C802 1.394 . S
C800 H816 0.931 . S
C801 C800 1.391 . S
C801 C805 1.376 . S
C802 C800 1.394 . S
C802 C803 1.369 . S
C802 C806 1.531 . S
C803 C802 1.369 . S
C803 C804 1.410 . S
C803 C811 1.503 . S
C804 C803 1.410 . S
C804 C805 1.392 . S
C804 C807 1.511 . S
C805 C801 1.376 . S
C805 C804 1.392 . S
C805 H817 0.929 . S
C806 C802 1.531 . S
C806 H818 0.960 . S
C806 H819 0.962 . S
C806 H820 0.960 . S
C807 C804 1.511 . S
C807 H821 0.961 . S
C807 H822 0.961 . S
C807 H823 0.961 . S
C808 C809 1.370 . S
C808 C810 1.363 . S
C808 H824 0.931 . S
C809 C808 1.370 . S
C809 C813 1.408 . S
C810 C808 1.363 . S
C810 C811 1.370 . S
C810 C814 1.524 . S
C811 C803 1.503 . S
C811 C810 1.370 . S
C811 C812 1.403 . S
C812 C811 1.403 . S
C812 C813 1.404 . S
C812 C815 1.539 . S
C813 C809 1.408 . S
C813 C812 1.404 . S
C813 H825 0.930 . S
C814 C810 1.524 . S
C814 H826 0.956 . S
C814 H827 0.961 . S
C814 H828 0.961 . S
C815 C812 1.539 . S
C815 H829 0.958 . S
C815 H830 0.961 . S
C815 H831 0.960 . S
H816 C800 0.931 . S
H817 C805 0.929 . S
H818 C806 0.960 . S
H819 C806 0.962 . S
H820 C806 0.960 . S
H821 C807 0.961 . S
H822 C807 0.961 . S
H823 C807 0.961 . S
H824 C808 0.931 . S
H825 C813 0.930 . S
H826 C814 0.956 . S
H827 C814 0.961 . S
H828 C814 0.961 . S
H829 C815 0.958 . S
H830 C815 0.961 . S
H831 C815 0.960 . S
C832 C833 1.391 . S
C832 C834 1.394 . S
C832 H848 0.931 . S
C833 C832 1.391 . S
C833 C837 1.376 . S
C834 C832 1.394 . S
C834 C835 1.369 . S
C834 C838 1.531 . S
C835 C834 1.369 . S
C835 C836 1.410 . S
C835 C843 1.503 . S
C836 C835 1.410 . S
C836 C837 1.392 . S
C836 C839 1.511 . S
C837 C833 1.376 . S
C837 C836 1.392 . S
C837 H849 0.929 . S
C838 C834 1.531 . S
C838 H850 0.960 . S
C838 H851 0.962 . S
C838 H852 0.960 . S
C839 C836 1.511 . S
C839 H853 0.961 . S
C839 H854 0.961 . S
C839 H855 0.961 . S
C840 C841 1.370 . S
C840 C842 1.363 . S
C840 H856 0.931 . S
C841 C840 1.370 . S
C841 C845 1.408 . S
C842 C840 1.363 . S
C842 C843 1.370 . S
C842 C846 1.524 . S
C843 C835 1.503 . S
C843 C842 1.370 . S
C843 C844 1.403 . S
C844 C843 1.403 . S
C844 C845 1.404 . S
C844 C847 1.539 . S
C845 C841 1.408 . S
C845 C844 1.404 . S
C845 H857 0.930 . S
C846 C842 1.524 . S
C846 H858 0.956 . S
C846 H859 0.961 . S
C846 H860 0.961 . S
C847 C844 1.539 . S
C847 H861 0.958 . S
C847 H862 0.961 . S
C847 H863 0.960 . S
H848 C832 0.931 . S
H849 C837 0.929 . S
H850 C838 0.960 . S
H851 C838 0.962 . S
H852 C838 0.960 . S
H853 C839 0.961 . S
H854 C839 0.961 . S
H855 C839 0.961 . S
H856 C840 0.931 . S
H857 C845 0.930 . S
H858 C846 0.956 . S
H859 C846 0.961 . S
H860 C846 0.961 . S
H861 C847 0.958 . S
H862 C847 0.961 . S
H863 C847 0.960 . S
C864 C865 1.391 . S
C864 C866 1.394 . S
C864 H880 0.931 . S
C865 C864 1.391 . S
C865 C869 1.376 . S
C866 C864 1.394 . S
C866 C867 1.369 . S
C866 C870 1.531 . S
C867 C866 1.369 . S
C867 C868 1.410 . S
C867 C875 1.503 . S
C868 C867 1.410 . S
C868 C869 1.392 . S
C868 C871 1.511 . S
C869 C865 1.376 . S
C869 C868 1.392 . S
C869 H881 0.929 . S
C870 C866 1.531 . S
C870 H882 0.960 . S
C870 H883 0.962 . S
C870 H884 0.960 . S
C871 C868 1.511 . S
C871 H885 0.961 . S
C871 H886 0.961 . S
C871 H887 0.961 . S
C872 C873 1.370 . S
C872 C874 1.363 . S
C872 H888 0.931 . S
C873 C872 1.370 . S
C873 C877 1.408 . S
C874 C872 1.363 . S
C874 C875 1.370 . S
C874 C878 1.524 . S
C875 C867 1.503 . S
C875 C874 1.370 . S
C875 C876 1.403 . S
C876 C875 1.403 . S
C876 C877 1.404 . S
C876 C879 1.539 . S
C877 C873 1.408 . S
C877 C876 1.404 . S
C877 H889 0.930 . S
C878 C874 1.524 . S
C878 H890 0.956 . S
C878 H891 0.961 . S
C878 H892 0.961 . S
C879 C876 1.539 . S
C879 H893 0.958 . S
C879 H894 0.961 . S
C879 H895 0.960 . S
H880 C864 0.931 . S
H881 C869 0.929 . S
H882 C870 0.960 . S
H883 C870 0.962 . S
H884 C870 0.960 . S
H885 C871 0.961 . S
H886 C871 0.961 . S
H887 C871 0.961 . S
H888 C872 0.931 . S
H889 C877 0.930 . S
H890 C878 0.956 . S
H891 C878 0.961 . S
H892 C878 0.961 . S
H893 C879 0.958 . S
H894 C879 0.961 . S
H895 C879 0.960 . S
C896 C897 1.391 . S
C896 C898 1.394 . S
C896 H912 0.931 . S
C897 C896 1.391 . S
C897 C901 1.376 . S
C898 C896 1.394 . S
C898 C899 1.369 . S
C898 C902 1.531 . S
C899 C898 1.369 . S
C899 C900 1.410 . S
C899 C907 1.503 . S
C900 C899 1.410 . S
C900 C901 1.392 . S
C900 C903 1.511 . S
C901 C897 1.376 . S
C901 C900 1.392 . S
C901 H913 0.929 . S
C902 C898 1.531 . S
C902 H914 0.960 . S
C902 H915 0.962 . S
C902 H916 0.960 . S
C903 C900 1.511 . S
C903 H917 0.961 . S
C903 H918 0.961 . S
C903 H919 0.961 . S
C904 C905 1.370 . S
C904 C906 1.363 . S
C904 H920 0.931 . S
C905 C904 1.370 . S
C905 C909 1.408 . S
C906 C904 1.363 . S
C906 C907 1.370 . S
C906 C910 1.524 . S
C907 C899 1.503 . S
C907 C906 1.370 . S
C907 C908 1.403 . S
C908 C907 1.403 . S
C908 C909 1.404 . S
C908 C911 1.539 . S
C909 C905 1.408 . S
C909 C908 1.404 . S
C909 H921 0.930 . S
C910 C906 1.524 . S
C910 H922 0.956 . S
C910 H923 0.961 . S
C910 H924 0.961 . S
C911 C908 1.539 . S
C911 H925 0.958 . S
C911 H926 0.961 1_455 S
C911 H927 0.960 . S
H912 C896 0.931 . S
H913 C901 0.929 . S
H914 C902 0.960 . S
H915 C902 0.962 . S
H916 C902 0.960 . S
H917 C903 0.961 . S
H918 C903 0.961 . S
H919 C903 0.961 . S
H920 C904 0.931 . S
H921 C909 0.930 . S
H922 C910 0.956 . S
H923 C910 0.961 . S
H924 C910 0.961 . S
H925 C911 0.958 . S
H926 C911 0.961 1_655 S
H927 C911 0.960 . S
C928 C929 1.391 . S
C928 C930 1.394 . S
C928 H944 0.931 . S
C929 C928 1.391 . S
C929 C933 1.376 . S
C930 C928 1.394 . S
C930 C931 1.369 . S
C930 C934 1.531 . S
C931 C930 1.369 . S
C931 C932 1.410 . S
C931 C939 1.503 . S
C932 C931 1.410 . S
C932 C933 1.392 . S
C932 C935 1.511 . S
C933 C929 1.376 . S
C933 C932 1.392 . S
C933 H945 0.929 . S
C934 C930 1.531 . S
C934 H946 0.960 . S
C934 H947 0.962 . S
C934 H948 0.960 . S
C935 C932 1.511 . S
C935 H949 0.961 . S
C935 H950 0.961 . S
C935 H951 0.961 . S
C936 C937 1.370 . S
C936 C938 1.363 . S
C936 H952 0.931 . S
C937 C936 1.370 . S
C937 C941 1.408 . S
C938 C936 1.363 . S
C938 C939 1.370 . S
C938 C942 1.524 . S
C939 C931 1.503 . S
C939 C938 1.370 . S
C939 C940 1.403 . S
C940 C939 1.403 . S
C940 C941 1.404 . S
C940 C943 1.539 . S
C941 C937 1.408 . S
C941 C940 1.404 . S
C941 H953 0.930 . S
C942 C938 1.524 . S
C942 H954 0.956 . S
C942 H955 0.961 . S
C942 H956 0.961 . S
C943 C940 1.539 . S
C943 H957 0.958 . S
C943 H958 0.961 . S
C943 H959 0.960 . S
H944 C928 0.931 . S
H945 C933 0.929 . S
H946 C934 0.960 . S
H947 C934 0.962 . S
H948 C934 0.960 . S
H949 C935 0.961 . S
H950 C935 0.961 . S
H951 C935 0.961 . S
H952 C936 0.931 . S
H953 C941 0.930 . S
H954 C942 0.956 . S
H955 C942 0.961 . S
H956 C942 0.961 . S
H957 C943 0.958 . S
H958 C943 0.961 . S
H959 C943 0.960 . S
C960 C961 1.391 . S
C960 C962 1.394 . S
C960 H976 0.931 . S
C961 C960 1.391 . S
C961 C965 1.376 . S
C962 C960 1.394 . S
C962 C963 1.369 . S
C962 C966 1.531 . S
C963 C962 1.369 . S
C963 C964 1.410 . S
C963 C971 1.503 . S
C964 C963 1.410 . S
C964 C965 1.392 . S
C964 C967 1.511 . S
C965 C961 1.376 . S
C965 C964 1.392 . S
C965 H977 0.929 . S
C966 C962 1.531 . S
C966 H978 0.960 . S
C966 H979 0.962 . S
C966 H980 0.960 . S
C967 C964 1.511 . S
C967 H981 0.961 . S
C967 H982 0.961 . S
C967 H983 0.961 . S
C968 C969 1.370 . S
C968 C970 1.363 . S
C968 H984 0.931 . S
C969 C968 1.370 . S
C969 C973 1.408 . S
C970 C968 1.363 . S
C970 C971 1.370 . S
C970 C974 1.524 . S
C971 C963 1.503 . S
C971 C970 1.370 . S
C971 C972 1.403 . S
C972 C971 1.403 . S
C972 C973 1.404 . S
C972 C975 1.539 . S
C973 C969 1.408 . S
C973 C972 1.404 . S
C973 H985 0.930 . S
C974 C970 1.524 . S
C974 H986 0.956 . S
C974 H987 0.961 . S
C974 H988 0.961 . S
C975 C972 1.539 . S
C975 H989 0.958 . S
C975 H990 0.961 . S
C975 H991 0.960 . S
H976 C960 0.931 . S
H977 C965 0.929 . S
H978 C966 0.960 . S
H979 C966 0.962 . S
H980 C966 0.960 . S
H981 C967 0.961 . S
H982 C967 0.961 . S
H983 C967 0.961 . S
H984 C968 0.931 . S
H985 C973 0.930 . S
H986 C974 0.956 . S
H987 C974 0.961 . S
H988 C974 0.961 . S
H989 C975 0.958 . S
H990 C975 0.961 . S
H991 C975 0.960 . S
C992 C993 1.391 . S
C992 C994 1.394 . S
C992 H1008 0.931 . S
C993 C992 1.391 . S
C993 C997 1.376 . S
C994 C992 1.394 . S
C994 C995 1.369 . S
C994 C998 1.531 . S
C995 C994 1.369 . S
C995 C996 1.410 . S
C995 C1003 1.503 . S
C996 C995 1.410 . S
C996 C997 1.392 . S
C996 C999 1.511 . S
C997 C993 1.376 . S
C997 C996 1.392 . S
C997 H1009 0.929 . S
C998 C994 1.531 . S
C998 H1010 0.960 . S
C998 H1011 0.962 . S
C998 H1012 0.960 . S
C999 C996 1.511 . S
C999 H1013 0.961 . S
C999 H1014 0.961 . S
C999 H1015 0.961 . S
C1000 C1001 1.370 . S
C1000 C1002 1.363 . S
C1000 H1016 0.931 . S
C1001 C1000 1.370 . S
C1001 C1005 1.408 . S
C1002 C1000 1.363 . S
C1002 C1003 1.370 . S
C1002 C1006 1.524 . S
C1003 C995 1.503 . S
C1003 C1002 1.370 . S
C1003 C1004 1.403 . S
C1004 C1003 1.403 . S
C1004 C1005 1.404 . S
C1004 C1007 1.539 . S
C1005 C1001 1.408 . S
C1005 C1004 1.404 . S
C1005 H1017 0.930 . S
C1006 C1002 1.524 . S
C1006 H1018 0.956 . S
C1006 H1019 0.961 . S
C1006 H1020 0.961 . S
C1007 C1004 1.539 . S
C1007 H1021 0.958 . S
C1007 H1022 0.961 . S
C1007 H1023 0.960 . S
H1008 C992 0.931 . S
H1009 C997 0.929 . S
H1010 C998 0.960 . S
H1011 C998 0.962 . S
H1012 C998 0.960 . S
H1013 C999 0.961 . S
H1014 C999 0.961 . S
H1015 C999 0.961 . S
H1016 C1000 0.931 . S
H1017 C1005 0.930 . S
H1018 C1006 0.956 . S
H1019 C1006 0.961 . S
H1020 C1006 0.961 . S
H1021 C1007 0.958 . S
H1022 C1007 0.961 . S
H1023 C1007 0.960 . S
C1024 C1025 1.391 . S
C1024 C1026 1.394 . S
C1024 H1040 0.931 . S
C1025 C1024 1.391 . S
C1025 C1029 1.376 . S
C1026 C1024 1.394 . S
C1026 C1027 1.369 . S
C1026 C1030 1.531 . S
C1027 C1026 1.369 . S
C1027 C1028 1.410 . S
C1027 C1035 1.503 . S
C1028 C1027 1.410 . S
C1028 C1029 1.392 . S
C1028 C1031 1.511 . S
C1029 C1025 1.376 . S
C1029 C1028 1.392 . S
C1029 H1041 0.929 . S
C1030 C1026 1.531 . S
C1030 H1042 0.960 . S
C1030 H1043 0.962 . S
C1030 H1044 0.960 . S
C1031 C1028 1.511 . S
C1031 H1045 0.961 . S
C1031 H1046 0.961 . S
C1031 H1047 0.961 . S
C1032 C1033 1.370 . S
C1032 C1034 1.363 . S
C1032 H1048 0.931 . S
C1033 C1032 1.370 . S
C1033 C1037 1.408 . S
C1034 C1032 1.363 . S
C1034 C1035 1.370 . S
C1034 C1038 1.524 . S
C1035 C1027 1.503 . S
C1035 C1034 1.370 . S
C1035 C1036 1.403 . S
C1036 C1035 1.403 . S
C1036 C1037 1.404 . S
C1036 C1039 1.539 . S
C1037 C1033 1.408 . S
C1037 C1036 1.404 . S
C1037 H1049 0.930 . S
C1038 C1034 1.524 . S
C1038 H1050 0.956 . S
C1038 H1051 0.961 . S
C1038 H1052 0.961 . S
C1039 C1036 1.539 . S
C1039 H1053 0.958 . S
C1039 H1054 0.961 . S
C1039 H1055 0.960 . S
H1040 C1024 0.931 . S
H1041 C1029 0.929 . S
H1042 C1030 0.960 . S
H1043 C1030 0.962 . S
H1044 C1030 0.960 . S
H1045 C1031 0.961 . S
H1046 C1031 0.961 . S
H1047 C1031 0.961 . S
H1048 C1032 0.931 . S
H1049 C1037 0.930 . S
H1050 C1038 0.956 . S
H1051 C1038 0.961 . S
H1052 C1038 0.961 . S
H1053 C1039 0.958 . S
H1054 C1039 0.961 . S
H1055 C1039 0.960 . S
C1056 C1057 1.391 . S
C1056 C1058 1.394 . S
C1056 H1072 0.931 . S
C1057 C1056 1.391 . S
C1057 C1061 1.376 . S
C1058 C1056 1.394 . S
C1058 C1059 1.369 . S
C1058 C1062 1.531 . S
C1059 C1058 1.369 . S
C1059 C1060 1.410 . S
C1059 C1067 1.503 . S
C1060 C1059 1.410 . S
C1060 C1061 1.392 . S
C1060 C1063 1.511 . S
C1061 C1057 1.376 . S
C1061 C1060 1.392 . S
C1061 H1073 0.929 . S
C1062 C1058 1.531 . S
C1062 H1074 0.960 . S
C1062 H1075 0.962 . S
C1062 H1076 0.960 . S
C1063 C1060 1.511 . S
C1063 H1077 0.961 . S
C1063 H1078 0.961 . S
C1063 H1079 0.961 . S
C1064 C1065 1.370 . S
C1064 C1066 1.363 . S
C1064 H1080 0.931 . S
C1065 C1064 1.370 . S
C1065 C1069 1.408 . S
C1066 C1064 1.363 . S
C1066 C1067 1.370 . S
C1066 C1070 1.524 . S
C1067 C1059 1.503 . S
C1067 C1066 1.370 . S
C1067 C1068 1.403 . S
C1068 C1067 1.403 . S
C1068 C1069 1.404 . S
C1068 C1071 1.539 . S
C1069 C1065 1.408 . S
C1069 C1068 1.404 . S
C1069 H1081 0.930 . S
C1070 C1066 1.524 . S
C1070 H1082 0.956 . S
C1070 H1083 0.961 . S
C1070 H1084 0.961 . S
C1071 C1068 1.539 . S
C1071 H1085 0.958 . S
C1071 H1086 0.961 . S
C1071 H1087 0.960 . S
H1072 C1056 0.931 . S
H1073 C1061 0.929 . S
H1074 C1062 0.960 . S
H1075 C1062 0.962 . S
H1076 C1062 0.960 . S
H1077 C1063 0.961 . S
H1078 C1063 0.961 . S
H1079 C1063 0.961 . S
H1080 C1064 0.931 . S
H1081 C1069 0.930 . S
H1082 C1070 0.956 . S
H1083 C1070 0.961 . S
H1084 C1070 0.961 . S
H1085 C1071 0.958 . S
H1086 C1071 0.961 . S
H1087 C1071 0.960 . S
C1088 C1089 1.391 . S
C1088 C1090 1.394 . S
C1088 H1104 0.931 . S
C1089 C1088 1.391 . S
C1089 C1093 1.376 . S
C1090 C1088 1.394 . S
C1090 C1091 1.369 . S
C1090 C1094 1.531 . S
C1091 C1090 1.369 . S
C1091 C1092 1.410 . S
C1091 C1099 1.503 . S
C1092 C1091 1.410 . S
C1092 C1093 1.392 . S
C1092 C1095 1.511 . S
C1093 C1089 1.376 . S
C1093 C1092 1.392 . S
C1093 H1105 0.929 . S
C1094 C1090 1.531 . S
C1094 H1106 0.960 . S
C1094 H1107 0.962 . S
C1094 H1108 0.960 . S
C1095 C1092 1.511 . S
C1095 H1109 0.961 . S
C1095 H1110 0.961 . S
C1095 H1111 0.961 . S
C1096 C1097 1.370 . S
C1096 C1098 1.363 . S
C1096 H1112 0.931 . S
C1097 C1096 1.370 . S
C1097 C1101 1.408 . S
C1098 C1096 1.363 . S
C1098 C1099 1.370 . S
C1098 C1102 1.524 . S
C1099 C1091 1.503 . S
C1099 C1098 1.370 . S
C1099 C1100 1.403 . S
C1100 C1099 1.403 . S
C1100 C1101 1.404 . S
C1100 C1103 1.539 . S
C1101 C1097 1.408 . S
C1101 C1100 1.404 . S
C1101 H1113 0.930 . S
C1102 C1098 1.524 . S
C1102 H1114 0.956 . S
C1102 H1115 0.961 . S
C1102 H1116 0.961 . S
C1103 C1100 1.539 . S
C1103 H1117 0.958 . S
C1103 H1118 0.961 . S
C1103 H1119 0.960 . S
H1104 C1088 0.931 . S
H1105 C1093 0.929 . S
H1106 C1094 0.960 . S
H1107 C1094 0.962 . S
H1108 C1094 0.960 . S
H1109 C1095 0.961 . S
H1110 C1095 0.961 . S
H1111 C1095 0.961 . S
H1112 C1096 0.931 . S
H1113 C1101 0.930 . S
H1114 C1102 0.956 . S
H1115 C1102 0.961 . S
H1116 C1102 0.961 . S
H1117 C1103 0.958 . S
H1118 C1103 0.961 . S
H1119 C1103 0.960 . S
C1120 C1121 1.391 . S
C1120 C1122 1.394 . S
C1120 H1136 0.931 . S
C1121 C1120 1.391 . S
C1121 C1125 1.376 . S
C1122 C1120 1.394 . S
C1122 C1123 1.369 . S
C1122 C1126 1.531 . S
C1123 C1122 1.369 . S
C1123 C1124 1.410 . S
C1123 C1131 1.503 . S
C1124 C1123 1.410 . S
C1124 C1125 1.392 . S
C1124 C1127 1.511 . S
C1125 C1121 1.376 . S
C1125 C1124 1.392 . S
C1125 H1137 0.929 . S
C1126 C1122 1.531 . S
C1126 H1138 0.960 . S
C1126 H1139 0.962 . S
C1126 H1140 0.960 . S
C1127 C1124 1.511 . S
C1127 H1141 0.961 . S
C1127 H1142 0.961 . S
C1127 H1143 0.961 . S
C1128 C1129 1.370 . S
C1128 C1130 1.363 . S
C1128 H1144 0.931 . S
C1129 C1128 1.370 . S
C1129 C1133 1.408 . S
C1130 C1128 1.363 . S
C1130 C1131 1.370 . S
C1130 C1134 1.524 . S
C1131 C1123 1.503 . S
C1131 C1130 1.370 . S
C1131 C1132 1.403 . S
C1132 C1131 1.403 . S
C1132 C1133 1.404 . S
C1132 C1135 1.539 . S
C1133 C1129 1.408 . S
C1133 C1132 1.404 . S
C1133 H1145 0.930 . S
C1134 C1130 1.524 . S
C1134 H1146 0.956 . S
C1134 H1147 0.961 . S
C1134 H1148 0.961 . S
C1135 C1132 1.539 . S
C1135 H1149 0.958 . S
C1135 H1150 0.961 . S
C1135 H1151 0.960 . S
H1136 C1120 0.931 . S
H1137 C1125 0.929 . S
H1138 C1126 0.960 . S
H1139 C1126 0.962 . S
H1140 C1126 0.960 . S
H1141 C1127 0.961 . S
H1142 C1127 0.961 . S
H1143 C1127 0.961 . S
H1144 C1128 0.931 . S
H1145 C1133 0.930 . S
H1146 C1134 0.956 . S
H1147 C1134 0.961 . S
H1148 C1134 0.961 . S
H1149 C1135 0.958 . S
H1150 C1135 0.961 . S
H1151 C1135 0.960 . S
C1152 C1153 1.391 . S
C1152 C1154 1.394 . S
C1152 H1168 0.931 . S
C1153 C1152 1.391 . S
C1153 C1157 1.376 . S
C1154 C1152 1.394 . S
C1154 C1155 1.369 . S
C1154 C1158 1.531 . S
C1155 C1154 1.369 . S
C1155 C1156 1.410 . S
C1155 C1163 1.503 . S
C1156 C1155 1.410 . S
C1156 C1157 1.392 . S
C1156 C1159 1.511 . S
C1157 C1153 1.376 . S
C1157 C1156 1.392 . S
C1157 H1169 0.929 . S
C1158 C1154 1.531 . S
C1158 H1170 0.960 . S
C1158 H1171 0.962 . S
C1158 H1172 0.960 . S
C1159 C1156 1.511 . S
C1159 H1173 0.961 . S
C1159 H1174 0.961 . S
C1159 H1175 0.961 . S
C1160 C1161 1.370 . S
C1160 C1162 1.363 . S
C1160 H1176 0.931 . S
C1161 C1160 1.370 . S
C1161 C1165 1.408 . S
C1162 C1160 1.363 . S
C1162 C1163 1.370 . S
C1162 C1166 1.524 . S
C1163 C1155 1.503 . S
C1163 C1162 1.370 . S
C1163 C1164 1.403 . S
C1164 C1163 1.403 . S
C1164 C1165 1.404 . S
C1164 C1167 1.539 . S
C1165 C1161 1.408 . S
C1165 C1164 1.404 . S
C1165 H1177 0.930 . S
C1166 C1162 1.524 . S
C1166 H1178 0.956 . S
C1166 H1179 0.961 . S
C1166 H1180 0.961 . S
C1167 C1164 1.539 . S
C1167 H1181 0.958 . S
C1167 H1182 0.961 . S
C1167 H1183 0.960 . S
H1168 C1152 0.931 . S
H1169 C1157 0.929 . S
H1170 C1158 0.960 . S
H1171 C1158 0.962 . S
H1172 C1158 0.960 . S
H1173 C1159 0.961 . S
H1174 C1159 0.961 . S
H1175 C1159 0.961 . S
H1176 C1160 0.931 . S
H1177 C1165 0.930 . S
H1178 C1166 0.956 . S
H1179 C1166 0.961 . S
H1180 C1166 0.961 . S
H1181 C1167 0.958 . S
H1182 C1167 0.961 . S
H1183 C1167 0.960 . S
C417 C29 1.226 . S
C425 C263 1.212 . S
C449 C49 0.907 . S
C457 C312 0.944 . S
C489 C338 2.506 . S
C481 C93 2.486 . S
C513 C119 2.302 . S
C521 C386 2.288 . S
C553 C298 2.319 . S
C545 C17 2.292 . S
C585 C266 0.842 . S
C577 C61 0.826 . S
C617 C387 1.887 . S
C609 C81 1.908 . S
C649 C355 1.661 . S
C641 C125 1.616 . S
C673 C23 1.601 . S
C681 C383 1.619 . S
C713 C315 2.303 . S
C705 C87 2.342 . S
C737 C113 2.317 . S
C745 C267 2.360 . S
C769 C55 0.871 . S
C777 C352 0.851 . S
C809 C272 1.192 . S
C801 C157 1.137 . S
C833 C189 0.925 . S
C841 C303 0.986 . S
C865 C221 2.443 . S
C873 C347 2.457 . S
C897 C253 2.377 . S
C905 C395 2.376 . S
C929 C145 2.128 . S
C937 C307 2.400 . S
C969 C275 0.833 . S
C961 C183 0.764 . S
C1001 C378 1.927 . S
C993 C209 1.922 . S
C1033 C346 1.618 . S
C1025 C247 1.607 . S
C1057 C151 1.437 . S
C1065 C392 1.635 . S
C1097 C306 2.309 . S
C1089 C215 2.321 . S
C1129 C258 2.326 . S
C1121 C241 2.270 . S
C1153 C177 0.874 . S
C1161 C343 0.850 . S
