# Generated by pormake.
# Topology ptr, (4,4)-cn, num edge types: 1
# Building blocks:
#     Node 0, Type 0, BuildingBlock: QUQFOY_clean_sbu_3, # of connection points: 4
#     Node 1, Type 0, BuildingBlock: QUQFOY_clean_sbu_3, # of connection points: 4
#     Node 2, Type 0, BuildingBlock: QUQFOY_clean_sbu_3, # of connection points: 4
#     Node 3, Type 0, BuildingBlock: QUQFOY_clean_sbu_3, # of connection points: 4
#     Node 4, Type 0, BuildingBlock: QUQFOY_clean_sbu_3, # of connection points: 4
#     Node 5, Type 0, BuildingBlock: QUQFOY_clean_sbu_3, # of connection points: 4
#     Node 6, Type 0, BuildingBlock: QUQFOY_clean_sbu_3, # of connection points: 4
#     Node 7, Type 0, BuildingBlock: QUQFOY_clean_sbu_3, # of connection points: 4
#     Node 8, Type 0, BuildingBlock: QUQFOY_clean_sbu_3, # of connection points: 4
#     Node 9, Type 0, BuildingBlock: QUQFOY_clean_sbu_3, # of connection points: 4
#     Node 10, Type 0, BuildingBlock: QUQFOY_clean_sbu_3, # of connection points: 4
#     Node 11, Type 0, BuildingBlock: QUQFOY_clean_sbu_3, # of connection points: 4
#     Node 12, Type 0, BuildingBlock: QUQFOY_clean_sbu_3, # of connection points: 4
#     Node 13, Type 0, BuildingBlock: QUQFOY_clean_sbu_3, # of connection points: 4
#     Node 14, Type 0, BuildingBlock: QUQFOY_clean_sbu_3, # of connection points: 4
#     Node 15, Type 0, BuildingBlock: QUQFOY_clean_sbu_3, # of connection points: 4
#     Node 16, Type 0, BuildingBlock: QUQFOY_clean_sbu_3, # of connection points: 4
#     Node 17, Type 0, BuildingBlock: QUQFOY_clean_sbu_3, # of connection points: 4
#     Node 18, Type 1, BuildingBlock: MIFKUJ_clean_linker_1, # of connection points: 4
#     Node 19, Type 1, BuildingBlock: MIFKUJ_clean_linker_1, # of connection points: 4
#     Node 20, Type 1, BuildingBlock: MIFKUJ_clean_linker_1, # of connection points: 4
#     Node 21, Type 1, BuildingBlock: MIFKUJ_clean_linker_1, # of connection points: 4
#     Node 22, Type 1, BuildingBlock: MIFKUJ_clean_linker_1, # of connection points: 4
#     Node 23, Type 1, BuildingBlock: MIFKUJ_clean_linker_1, # of connection points: 4
#     Node 24, Type 1, BuildingBlock: MIFKUJ_clean_linker_1, # of connection points: 4
#     Node 25, Type 1, BuildingBlock: MIFKUJ_clean_linker_1, # of connection points: 4
#     Node 26, Type 1, BuildingBlock: MIFKUJ_clean_linker_1, # of connection points: 4
#     Node 27, Type 1, BuildingBlock: MIFKUJ_clean_linker_1, # of connection points: 4
#     Node 28, Type 1, BuildingBlock: MIFKUJ_clean_linker_1, # of connection points: 4
#     Node 29, Type 1, BuildingBlock: MIFKUJ_clean_linker_1, # of connection points: 4
#     Node 30, Type 1, BuildingBlock: MIFKUJ_clean_linker_1, # of connection points: 4
#     Node 31, Type 1, BuildingBlock: MIFKUJ_clean_linker_1, # of connection points: 4
#     Node 32, Type 1, BuildingBlock: MIFKUJ_clean_linker_1, # of connection points: 4
#     Node 33, Type 1, BuildingBlock: MIFKUJ_clean_linker_1, # of connection points: 4
#     Node 34, Type 1, BuildingBlock: MIFKUJ_clean_linker_1, # of connection points: 4
#     Node 35, Type 1, BuildingBlock: MIFKUJ_clean_linker_1, # of connection points: 4
#     Edge 36, Type (0, 1), BuildingBlock: TEMPAE_clean_linker_10, # of connection points: 2
#     Edge 37, Type (0, 1), BuildingBlock: TEMPAE_clean_linker_10, # of connection points: 2
#     Edge 38, Type (0, 1), BuildingBlock: TEMPAE_clean_linker_10, # of connection points: 2
#     Edge 39, Type (0, 1), BuildingBlock: TEMPAE_clean_linker_10, # of connection points: 2
#     Edge 40, Type (0, 1), BuildingBlock: TEMPAE_clean_linker_10, # of connection points: 2
#     Edge 41, Type (0, 1), BuildingBlock: TEMPAE_clean_linker_10, # of connection points: 2
#     Edge 42, Type (0, 1), BuildingBlock: TEMPAE_clean_linker_10, # of connection points: 2
#     Edge 43, Type (0, 1), BuildingBlock: TEMPAE_clean_linker_10, # of connection points: 2
#     Edge 44, Type (0, 1), BuildingBlock: TEMPAE_clean_linker_10, # of connection points: 2
#     Edge 45, Type (0, 1), BuildingBlock: TEMPAE_clean_linker_10, # of connection points: 2
#     Edge 46, Type (0, 1), BuildingBlock: TEMPAE_clean_linker_10, # of connection points: 2
#     Edge 47, Type (0, 1), BuildingBlock: TEMPAE_clean_linker_10, # of connection points: 2
#     Edge 48, Type (0, 1), BuildingBlock: TEMPAE_clean_linker_10, # of connection points: 2
#     Edge 49, Type (0, 1), BuildingBlock: TEMPAE_clean_linker_10, # of connection points: 2
#     Edge 50, Type (0, 1), BuildingBlock: TEMPAE_clean_linker_10, # of connection points: 2
#     Edge 51, Type (0, 1), BuildingBlock: TEMPAE_clean_linker_10, # of connection points: 2
#     Edge 52, Type (0, 1), BuildingBlock: TEMPAE_clean_linker_10, # of connection points: 2
#     Edge 53, Type (0, 1), BuildingBlock: TEMPAE_clean_linker_10, # of connection points: 2
#     Edge 54, Type (0, 1), BuildingBlock: TEMPAE_clean_linker_10, # of connection points: 2
#     Edge 55, Type (0, 1), BuildingBlock: TEMPAE_clean_linker_10, # of connection points: 2
#     Edge 56, Type (0, 1), BuildingBlock: TEMPAE_clean_linker_10, # of connection points: 2
#     Edge 57, Type (0, 1), BuildingBlock: TEMPAE_clean_linker_10, # of connection points: 2
#     Edge 58, Type (0, 1), BuildingBlock: TEMPAE_clean_linker_10, # of connection points: 2
#     Edge 59, Type (0, 1), BuildingBlock: TEMPAE_clean_linker_10, # of connection points: 2
#     Edge 60, Type (0, 1), BuildingBlock: TEMPAE_clean_linker_10, # of connection points: 2
#     Edge 61, Type (0, 1), BuildingBlock: TEMPAE_clean_linker_10, # of connection points: 2
#     Edge 62, Type (0, 1), BuildingBlock: TEMPAE_clean_linker_10, # of connection points: 2
#     Edge 63, Type (0, 1), BuildingBlock: TEMPAE_clean_linker_10, # of connection points: 2
#     Edge 64, Type (0, 1), BuildingBlock: TEMPAE_clean_linker_10, # of connection points: 2
#     Edge 65, Type (0, 1), BuildingBlock: TEMPAE_clean_linker_10, # of connection points: 2
#     Edge 66, Type (0, 1), BuildingBlock: TEMPAE_clean_linker_10, # of connection points: 2
#     Edge 67, Type (0, 1), BuildingBlock: TEMPAE_clean_linker_10, # of connection points: 2
#     Edge 68, Type (0, 1), BuildingBlock: TEMPAE_clean_linker_10, # of connection points: 2
#     Edge 69, Type (0, 1), BuildingBlock: TEMPAE_clean_linker_10, # of connection points: 2
#     Edge 70, Type (0, 1), BuildingBlock: TEMPAE_clean_linker_10, # of connection points: 2
#     Edge 71, Type (0, 1), BuildingBlock: TEMPAE_clean_linker_10, # of connection points: 2
#     Edge 72, Type (0, 1), BuildingBlock: TEMPAE_clean_linker_10, # of connection points: 2
#     Edge 73, Type (0, 1), BuildingBlock: TEMPAE_clean_linker_10, # of connection points: 2
#     Edge 74, Type (0, 1), BuildingBlock: TEMPAE_clean_linker_10, # of connection points: 2
#     Edge 75, Type (0, 1), BuildingBlock: TEMPAE_clean_linker_10, # of connection points: 2
#     Edge 76, Type (0, 1), BuildingBlock: TEMPAE_clean_linker_10, # of connection points: 2
#     Edge 77, Type (0, 1), BuildingBlock: TEMPAE_clean_linker_10, # of connection points: 2
#     Edge 78, Type (0, 1), BuildingBlock: TEMPAE_clean_linker_10, # of connection points: 2
#     Edge 79, Type (0, 1), BuildingBlock: TEMPAE_clean_linker_10, # of connection points: 2
#     Edge 80, Type (0, 1), BuildingBlock: TEMPAE_clean_linker_10, # of connection points: 2
#     Edge 81, Type (0, 1), BuildingBlock: TEMPAE_clean_linker_10, # of connection points: 2
#     Edge 82, Type (0, 1), BuildingBlock: TEMPAE_clean_linker_10, # of connection points: 2
#     Edge 83, Type (0, 1), BuildingBlock: TEMPAE_clean_linker_10, # of connection points: 2
#     Edge 84, Type (0, 1), BuildingBlock: TEMPAE_clean_linker_10, # of connection points: 2
#     Edge 85, Type (0, 1), BuildingBlock: TEMPAE_clean_linker_10, # of connection points: 2
#     Edge 86, Type (0, 1), BuildingBlock: TEMPAE_clean_linker_10, # of connection points: 2
#     Edge 87, Type (0, 1), BuildingBlock: TEMPAE_clean_linker_10, # of connection points: 2
#     Edge 88, Type (0, 1), BuildingBlock: TEMPAE_clean_linker_10, # of connection points: 2
#     Edge 89, Type (0, 1), BuildingBlock: TEMPAE_clean_linker_10, # of connection points: 2
#     Edge 90, Type (0, 1), BuildingBlock: TEMPAE_clean_linker_10, # of connection points: 2
#     Edge 91, Type (0, 1), BuildingBlock: TEMPAE_clean_linker_10, # of connection points: 2
#     Edge 92, Type (0, 1), BuildingBlock: TEMPAE_clean_linker_10, # of connection points: 2
#     Edge 93, Type (0, 1), BuildingBlock: TEMPAE_clean_linker_10, # of connection points: 2
#     Edge 94, Type (0, 1), BuildingBlock: TEMPAE_clean_linker_10, # of connection points: 2
#     Edge 95, Type (0, 1), BuildingBlock: TEMPAE_clean_linker_10, # of connection points: 2
#     Edge 96, Type (0, 1), BuildingBlock: TEMPAE_clean_linker_10, # of connection points: 2
#     Edge 97, Type (0, 1), BuildingBlock: TEMPAE_clean_linker_10, # of connection points: 2
#     Edge 98, Type (0, 1), BuildingBlock: TEMPAE_clean_linker_10, # of connection points: 2
#     Edge 99, Type (0, 1), BuildingBlock: TEMPAE_clean_linker_10, # of connection points: 2
#     Edge 100, Type (0, 1), BuildingBlock: TEMPAE_clean_linker_10, # of connection points: 2
#     Edge 101, Type (0, 1), BuildingBlock: TEMPAE_clean_linker_10, # of connection points: 2
#     Edge 102, Type (0, 1), BuildingBlock: TEMPAE_clean_linker_10, # of connection points: 2
#     Edge 103, Type (0, 1), BuildingBlock: TEMPAE_clean_linker_10, # of connection points: 2
#     Edge 104, Type (0, 1), BuildingBlock: TEMPAE_clean_linker_10, # of connection points: 2
#     Edge 105, Type (0, 1), BuildingBlock: TEMPAE_clean_linker_10, # of connection points: 2
#     Edge 106, Type (0, 1), BuildingBlock: TEMPAE_clean_linker_10, # of connection points: 2
#     Edge 107, Type (0, 1), BuildingBlock: TEMPAE_clean_linker_10, # of connection points: 2
# Relax obj value: 0.033
# Max RMSD: 0.122
# Mean RMSD: 0.057
data_MOF--net-ptr--node1-QUQFOY_clean_sbu_3--node2-MIFKUJ_clean_linker_1--edge1-TEMPAE_clean_linker_10
_symmetry_space_group_name_H-M    P1
_symmetry_Int_Tables_number       1
_symmetry_cell_setting            triclinic
loop_
_symmetry_equiv_pos_as_xyz
'x, y, z'
_cell_length_a     91.66752
_cell_length_b     92.189084
_cell_length_c     63.511863
_cell_angle_alpha  90.399994
_cell_angle_beta   89.525098
_cell_angle_gamma 120.55819
loop_
_atom_site_label
_atom_site_type_symbol
_atom_site_fract_x
_atom_site_fract_y
_atom_site_fract_z
_atom_type_partial_charge
C0 C 0.9618 0.31687 0.99329 0.0
O1 O 0.95441 0.32491 -0.00166 0.0
Cd2 Cd 0.96812 0.35161 0.01659 0.0
O3 O 0.9773 0.32273 -0.00206 0.0
Cd4 Cd 0.0006 0.3477 0.01557 0.0
C5 C -0.00052 0.37449 0.98049 0.0
O6 O 0.9846 0.35068 0.04485 0.0
O7 O 0.00995 0.37147 0.03965 0.0
O8 O 0.00766 0.3281 0.03129 0.0
C9 C -0.00339 0.36492 0.05084 0.0
O10 O 0.98672 0.37252 0.99102 0.0
C11 C 0.02332 0.33635 0.0267 0.0
O12 O 0.00634 0.36574 0.98435 0.0
O13 O 0.02851 0.34987 0.01633 0.0
C14 C 0.63503 0.67842 0.02475 0.0
O15 O 0.61908 0.67005 0.02225 0.0
Cd16 Cd 0.60406 0.64306 0.00493 0.0
O17 O 0.64422 0.67263 0.01812 0.0
Cd18 Cd 0.64006 0.64684 0.00047 0.0
C19 C 0.61393 0.62045 0.03817 0.0
O20 O 0.61937 0.64371 0.97401 0.0
O21 O 0.62291 0.62246 0.97788 0.0
O22 O 0.665 0.66271 0.97839 0.0
C23 C 0.61618 0.62931 0.96766 0.0
O24 O 0.60241 0.62219 0.02961 0.0
C25 C 0.67315 0.65608 0.98549 0.0
O26 O 0.62932 0.62913 0.03217 0.0
O27 O 0.66606 0.64524 1e-05 0.0
C28 C 0.31297 0.9573 0.02022 0.0
O29 O 0.31952 0.94871 0.01412 0.0
Cd30 Cd 0.34739 0.96125 -0.00103 0.0
O31 O 0.32055 0.97311 0.01706 0.0
Cd32 Cd 0.34628 -0.00455 -0.00048 0.0
C33 C 0.37059 0.99183 0.03633 0.0
O34 O 0.34832 0.97876 0.97094 0.0
O35 O 0.36989 0.00377 0.97519 0.0
O36 O 0.32873 0.00404 0.98165 0.0
C37 C 0.36276 0.99022 0.96456 0.0
O38 O 0.36682 0.97805 0.0271 0.0
C39 C 0.33656 0.01916 0.98818 0.0
O40 O 0.3643 0.00063 0.03021 0.0
O41 O 0.34891 0.02332 0.00058 0.0
C42 C 0.94935 0.63552 -0.00293 0.0
O43 O 0.94089 0.6212 0.00573 0.0
Cd44 Cd 0.95465 0.60729 0.02011 0.0
O45 O 0.96545 0.64388 -0.00189 0.0
Cd46 Cd 0.98863 0.64235 0.01597 0.0
C47 C 0.98328 0.61315 0.98015 0.0
O48 O 0.97356 0.62509 0.04682 0.0
O49 O -0.00214 0.62789 0.0394 0.0
O50 O -0.0029 0.67039 0.02898 0.0
C51 C 0.98528 0.62229 0.05183 0.0
O52 O 0.96994 0.60348 0.9907 0.0
C53 C 0.01277 0.67673 0.02504 0.0
O54 O -0.00748 0.62863 0.98517 0.0
O55 O 0.01729 0.66718 0.01628 0.0
C56 C 0.31692 0.35749 0.02773 0.0
O57 O 0.32456 0.37316 0.02377 0.0
Cd58 Cd 0.35147 0.38786 0.00587 0.0
O59 O 0.32333 0.34865 0.02204 0.0
Cd60 Cd 0.3486 0.35221 0.00345 0.0
C61 C 0.37539 0.37971 0.03961 0.0
O62 O 0.34986 0.37121 0.97606 0.0
O63 O 0.37174 0.36836 0.97855 0.0
O64 O 0.33046 0.32612 0.98485 0.0
C65 C 0.36403 0.37433 0.9686 0.0
O66 O 0.37298 0.3906 0.03058 0.0
C67 C 0.33832 0.31873 0.99025 0.0
O68 O 0.36703 0.36423 0.03432 0.0
O69 O 0.35097 0.32681 0.00234 0.0
C70 C 0.67946 0.03478 0.98984 0.0
O71 O 0.67251 0.04332 0.99436 0.0
Cd72 Cd 0.64507 0.03144 0.01045 0.0
O73 O 0.67216 0.0192 0.99451 0.0
Cd74 Cd 0.64576 -0.0026 0.01214 0.0
C75 C 0.62198 0.00034 0.97383 0.0
O76 O 0.64375 0.01495 0.04012 0.0
O77 O 0.6218 0.99032 0.03536 0.0
O78 O 0.6647 0.98939 0.0281 0.0
C79 C 0.629 0.00381 0.04607 0.0
O80 O 0.62554 0.01411 0.98292 0.0
C81 C 0.655 0.97363 0.02578 0.0
O82 O 0.62839 0.99171 0.98025 0.0
O83 O 0.64098 0.96876 0.0166 0.0
C84 C 0.62938 0.65265 0.32416 0.0
O85 O 0.62059 0.65932 0.32879 0.0
Cd86 Cd 0.63183 0.68609 0.34605 0.0
O87 O 0.645 0.65998 0.32908 0.0
Cd88 Cd 0.66671 0.68596 0.34737 0.0
C89 C 0.6636 0.71084 0.31067 0.0
O90 O 0.64806 0.68604 0.3753 0.0
O91 O 0.67296 0.7081 0.37328 0.0
O92 O 0.67517 0.66668 0.36084 0.0
C93 C 0.65887 0.70026 0.38286 0.0
O94 O 0.64951 0.70669 0.31957 0.0
C95 C 0.691 0.6767 0.35901 0.0
O96 O 0.67239 0.70446 0.31667 0.0
O97 O 0.69572 0.69115 0.35138 0.0
C98 C 0.30153 0.00896 0.36101 0.0
O99 O 0.28558 0.00153 0.35869 0.0
Cd100 Cd 0.26898 0.97438 0.34262 0.0
O101 O 0.30981 0.00216 0.35434 0.0
Cd102 Cd 0.30382 0.97579 0.33606 0.0
C103 C 0.27844 0.95106 0.37564 0.0
O104 O 0.28293 0.974 0.31074 0.0
O105 O 0.28547 0.95205 0.3132 0.0
O106 O 0.32906 0.99173 0.3144 0.0
C107 C 0.27899 0.95952 0.30383 0.0
O108 O 0.26749 0.95434 0.36855 0.0
C109 C 0.33619 0.9836 0.31976 0.0
O110 O 0.29325 0.95792 0.36757 0.0
O111 O 0.32837 0.97189 0.33312 0.0
C112 C 0.98099 0.29567 0.36326 0.0
O113 O 0.98736 0.28641 0.3602 0.0
Cd114 Cd 0.01483 0.2968 0.34501 0.0
O115 O 0.98911 0.3111 0.35786 0.0
Cd116 Cd 0.01646 0.33109 0.3409 0.0
C117 C 0.0389 0.32808 0.38047 0.0
O118 O 0.01642 0.31205 0.3137 0.0
O119 O 0.03997 0.33536 0.31835 0.0
O120 O -7e-05 0.34172 0.32433 0.0
C121 C 0.03142 0.32212 0.3075 0.0
O122 O 0.03506 0.31395 0.37223 0.0
C123 C 0.01103 0.35717 0.32643 0.0
O124 O 0.03289 0.33675 0.3731 0.0
O125 O 0.02466 0.36059 0.33565 0.0
C126 C 0.61845 0.96602 0.32811 0.0
O127 O 0.61082 0.95105 0.33509 0.0
Cd128 Cd 0.62534 0.93873 0.35151 0.0
O129 O 0.63428 0.97573 0.33113 0.0
Cd130 Cd 0.65804 0.9759 0.3499 0.0
C131 C 0.65677 0.94804 0.31422 0.0
O132 O 0.64169 0.95759 0.37909 0.0
O133 O 0.66729 0.96272 0.3757 0.0
O134 O 0.66422 0.0034 0.36256 0.0
C135 C 0.65358 0.95583 0.38618 0.0
O136 O 0.64328 0.93732 0.32375 0.0
C137 C 0.68009 0.01069 0.35949 0.0
O138 O 0.6646 0.96348 0.31977 0.0
O139 O 0.68579 0.00186 0.35147 0.0
C140 C 0.98549 0.68972 0.36297 0.0
O141 O 0.99185 0.70488 0.35701 0.0
Cd142 Cd 0.01957 0.72071 0.34199 0.0
O143 O -0.00692 0.68157 0.35948 0.0
Cd144 Cd 0.01868 0.68584 0.34022 0.0
C145 C 0.04359 0.7134 0.37748 0.0
O146 O 0.0194 0.7044 0.31262 0.0
O147 O 0.04191 0.70272 0.31557 0.0
O148 O 0.00141 0.65953 0.32152 0.0
C149 C 0.03383 0.70819 0.30543 0.0
O150 O 0.03961 0.72349 0.36929 0.0
C151 C 0.00992 0.65278 0.3268 0.0
O152 O 0.03724 0.69839 0.37056 0.0
O153 O 0.0224 0.66125 0.33899 0.0
C154 C 0.34448 0.367 0.32617 0.0
O155 O 0.3369 0.37512 0.32954 0.0
Cd156 Cd 0.31028 0.36412 0.34789 0.0
O157 O 0.3381 0.35192 0.33267 0.0
Cd158 Cd 0.31258 0.33067 0.35203 0.0
C159 C 0.28515 0.33027 0.31603 0.0
O160 O 0.31136 0.34963 0.3782 0.0
O161 O 0.28988 0.32431 0.37738 0.0
O162 O 0.33021 0.323 0.37181 0.0
C163 C 0.29725 0.33872 0.38608 0.0
O164 O 0.28852 0.34432 0.32407 0.0
C165 C 0.32251 0.30762 0.36633 0.0
O166 O 0.29304 0.3229 0.32185 0.0
O167 O 0.31019 0.30284 0.35372 0.0
C168 C 0.29514 0.9846 0.65855 0.0
O169 O 0.28631 0.99137 0.66241 0.0
Cd170 Cd 0.29727 0.01841 0.67884 0.0
O171 O 0.31068 0.99201 0.66383 0.0
Cd172 Cd 0.3318 0.01856 0.6817 0.0
C173 C 0.32917 0.04279 0.64372 0.0
O174 O 0.31314 0.01943 0.70912 0.0
O175 O 0.33777 0.04171 0.70567 0.0
O176 O 0.34112 0.00115 0.69891 0.0
C177 C 0.32393 0.03399 0.7158 0.0
O178 O 0.31499 0.03882 0.65223 0.0
C179 C 0.35682 0.01089 0.69542 0.0
O180 O 0.33781 0.03644 0.65034 0.0
O181 O 0.361 0.0242 0.68505 0.0
C182 C 0.96516 0.3403 0.68422 0.0
O183 O 0.94994 0.33292 0.67788 0.0
Cd184 Cd 0.93646 0.30597 0.66098 0.0
O185 O 0.97456 0.33409 0.68043 0.0
Cd186 Cd 0.97336 0.31001 0.66076 0.0
C187 C 0.94541 0.2834 0.69686 0.0
O188 O 0.95483 0.30875 0.63251 0.0
O189 O 0.95906 0.28785 0.63407 0.0
O190 O 0.0015 0.33117 0.64845 0.0
C191 C 0.95242 0.29508 0.62452 0.0
O192 O 0.93471 0.28628 0.688 0.0
C193 C 0.00808 0.32204 0.65054 0.0
O194 O 0.96082 0.29095 0.69077 0.0
O195 O -0.00142 0.30729 0.65775 0.0
C196 C 0.65176 0.6274 0.68882 0.0
O197 O 0.65946 0.61999 0.6824 0.0
Cd198 Cd 0.68615 0.6344 0.66443 0.0
O199 O 0.65758 0.64292 0.68485 0.0
Cd200 Cd 0.6812 0.66617 0.66516 0.0
C201 C 0.70889 0.6667 0.69994 0.0
O202 O 0.68203 0.64901 0.63643 0.0
O203 O 0.70324 0.67438 0.63809 0.0
O204 O 0.6595 0.67192 0.65344 0.0
C205 C 0.69561 0.66051 0.62818 0.0
O206 O 0.70662 0.65349 0.69044 0.0
C207 C 0.66853 0.6878 0.65533 0.0
O208 O 0.70038 0.67359 0.69495 0.0
O209 O 0.68345 0.69367 0.66233 0.0
C210 C 0.28637 0.30292 0.6565 0.0
O211 O 0.27781 0.28735 0.66087 0.0
Cd212 Cd 0.29042 0.27264 0.67598 0.0
O213 O 0.30206 0.31144 0.66095 0.0
Cd214 Cd 0.32354 0.30685 0.67823 0.0
C215 C 0.32184 0.28084 0.63983 0.0
O216 O 0.30651 0.28758 0.70648 0.0
O217 O 0.32987 0.28832 0.6986 0.0
O218 O 0.33308 0.33212 0.69933 0.0
C219 C 0.31737 0.28348 0.71104 0.0
O220 O 0.30789 0.27017 0.6485 0.0
C221 C 0.34829 0.33966 0.69281 0.0
O222 O 0.33006 0.29597 0.64653 0.0
O223 O 0.35212 0.332 0.67913 0.0
C224 C 0.65666 0.02485 0.69071 0.0
O225 O 0.66453 0.04048 0.68651 0.0
Cd226 Cd 0.69093 0.05433 0.66787 0.0
O227 O 0.66258 0.01561 0.6848 0.0
Cd228 Cd 0.68714 0.01786 0.6652 0.0
C229 C 0.71454 0.04506 0.70134 0.0
O230 O 0.68748 0.03671 0.63824 0.0
O231 O 0.70854 0.03249 0.63771 0.0
O232 O 0.66573 0.99027 0.65234 0.0
C233 C 0.70091 0.03914 0.62919 0.0
O234 O 0.71149 0.05582 0.69317 0.0
C235 C 0.67491 0.98365 0.6534 0.0
O236 O 0.70677 0.02981 0.69502 0.0
O237 O 0.68985 0.99288 0.66037 0.0
C238 C 0.01014 0.69702 0.65211 0.0
O239 O 0.00291 0.70556 0.65466 0.0
Cd240 Cd 0.97564 0.69516 0.6706 0.0
O241 O 0.003 0.6818 0.65841 0.0
Cd242 Cd 0.97609 0.66122 0.67646 0.0
C243 C 0.95101 0.66186 0.63772 0.0
O244 O 0.97494 0.68069 0.70205 0.0
O245 O 0.95281 0.65584 0.70025 0.0
O246 O 0.99151 0.65191 0.69821 0.0
C247 C 0.96047 0.67007 0.70934 0.0
O248 O 0.9552 0.67643 0.64476 0.0
C249 C 0.98319 0.63656 0.69265 0.0
O250 O 0.95731 0.65357 0.64557 0.0
O251 O 0.97172 0.63261 0.67897 0.0
H252 H 0.13547 0.32526 0.17842 0.0
H253 H 0.11328 0.32675 0.19842 0.0
H254 H 0.07921 0.27359 0.18779 0.0
H255 H 0.10141 0.27229 0.16724 0.0
H256 H 0.14485 0.29678 0.18985 0.0
H257 H 0.134 0.32703 0.13642 0.0
H258 H 0.11519 0.33247 0.11528 0.0
H259 H 0.09217 0.28209 0.08948 0.0
H260 H 0.11135 0.27686 0.11062 0.0
H261 H 0.16524 0.27957 0.11021 0.0
H262 H 0.19133 0.28608 0.09126 0.0
H263 H 0.21937 0.33099 0.12911 0.0
H264 H 0.19343 0.32455 0.14771 0.0
H265 H 0.15046 0.29934 0.11196 0.0
H266 H 0.17103 0.27494 0.16609 0.0
H267 H 0.19336 0.2767 0.18918 0.0
H268 H 0.2016 0.32393 0.21414 0.0
H269 H 0.17912 0.32195 0.19159 0.0
C270 C 0.11996 0.29869 0.17141 0.0
C271 C 0.12313 0.31401 0.18014 0.0
C272 C 0.11046 0.31485 0.19142 0.0
C273 C 0.09458 0.30029 0.1945 0.0
C274 C 0.09137 0.28497 0.18555 0.0
C275 C 0.10397 0.28421 0.17388 0.0
C276 C 0.13374 0.29777 0.16058 0.0
C277 C 0.14602 0.29712 0.17282 0.0
C278 C 0.13524 0.29841 0.13845 0.0
C279 C 0.12385 0.30147 0.12529 0.0
C280 C 0.12482 0.31713 0.1263 0.0
C281 C 0.11403 0.32019 0.11424 0.0
C282 C 0.10205 0.30765 0.10084 0.0
C283 C 0.10133 0.29204 0.09955 0.0
C284 C 0.11219 0.289 0.11166 0.0
C285 C 0.17747 0.30138 0.13065 0.0
C286 C 0.17707 0.29071 0.11452 0.0
C287 C 0.19193 0.29446 0.1037 0.0
C288 C 0.20739 0.30896 0.10885 0.0
C289 C 0.20773 0.31953 0.12511 0.0
C290 C 0.19291 0.31584 0.13579 0.0
C291 C 0.16169 0.29822 0.14122 0.0
C292 C 0.14898 0.29819 0.12894 0.0
C293 C 0.1601 0.29752 0.16342 0.0
C294 C 0.17343 0.2983 0.17721 0.0
C295 C 0.17764 0.28562 0.1766 0.0
C296 C 0.19034 0.28662 0.18973 0.0
C297 C 0.1992 0.3005 0.20325 0.0
C298 C 0.19503 0.31319 0.2037 0.0
C299 C 0.18214 0.31201 0.19096 0.0
H300 H 0.7202 0.88549 0.18319 0.0
H301 H 0.71778 0.90512 0.20712 0.0
H302 H 0.66698 0.88722 0.18474 0.0
H303 H 0.6696 0.86787 0.16075 0.0
H304 H 0.70003 0.85122 0.18448 0.0
H305 H 0.71189 0.8954 0.13524 0.0
H306 H 0.70634 0.915 0.11584 0.0
H307 H 0.66256 0.87302 0.08728 0.0
H308 H 0.66747 0.85344 0.10745 0.0
H309 H 0.66599 0.81512 0.10975 0.0
H310 H 0.65965 0.78983 0.08999 0.0
H311 H 0.70492 0.79268 0.11416 0.0
H312 H 0.71164 0.81849 0.1335 0.0
H313 H 0.68952 0.84559 0.10765 0.0
H314 H 0.67024 0.80331 0.16118 0.0
H315 H 0.66882 0.78169 0.18451 0.0
H316 H 0.71966 0.81643 0.20584 0.0
H317 H 0.72094 0.83808 0.18248 0.0
C318 C 0.69515 0.87534 0.17007 0.0
C319 C 0.70865 0.88599 0.18327 0.0
C320 C 0.70721 0.89714 0.19698 0.0
C321 C 0.69218 0.89773 0.19786 0.0
C322 C 0.67884 0.88732 0.18421 0.0
C323 C 0.6803 0.87621 0.17051 0.0
C324 C 0.69598 0.86235 0.1571 0.0
C325 C 0.69809 0.85017 0.16758 0.0
C326 C 0.69284 0.86072 0.13516 0.0
C327 C 0.69001 0.87287 0.12306 0.0
C328 C 0.70094 0.89037 0.12508 0.0
C329 C 0.69785 0.90156 0.11391 0.0
C330 C 0.68406 0.89545 0.10009 0.0
C331 C 0.67335 0.878 0.09773 0.0
C332 C 0.6762 0.86684 0.10922 0.0
C333 C 0.68927 0.81873 0.1232 0.0
C334 C 0.67472 0.81048 0.11063 0.0
C335 C 0.67108 0.79602 0.09935 0.0
C336 C 0.68184 0.78938 0.10052 0.0
C337 C 0.6964 0.79755 0.11311 0.0
C338 C 0.70019 0.81223 0.12419 0.0
C339 C 0.69273 0.83405 0.13519 0.0
C340 C 0.69168 0.84678 0.1245 0.0
C341 C 0.69607 0.83582 0.15707 0.0
C342 C 0.69577 0.82227 0.16991 0.0
C343 C 0.68121 0.80617 0.17056 0.0
C344 C 0.68043 0.7938 0.1839 0.0
C345 C 0.69415 0.79731 0.19703 0.0
C346 C 0.70883 0.81336 0.19607 0.0
C347 C 0.7096 0.82573 0.18269 0.0
H348 H 0.104 0.83344 0.17655 0.0
H349 H 0.08473 0.81096 0.20045 0.0
H350 H 0.10223 0.77874 0.17538 0.0
H351 H 0.12138 0.80117 0.15155 0.0
H352 H 0.13798 0.84824 0.17735 0.0
H353 H 0.09418 0.81633 0.12755 0.0
H354 H 0.07408 0.79085 0.10827 0.0
H355 H 0.1157 0.7889 0.07903 0.0
H356 H 0.1358 0.81375 0.0991 0.0
H357 H 0.17826 0.85168 0.11017 0.0
H358 H 0.20517 0.87141 0.09305 0.0
H359 H 0.19549 0.91201 0.10416 0.0
H360 H 0.1686 0.89222 0.12188 0.0
H361 H 0.14484 0.84386 0.10047 0.0
H362 H 0.1861 0.86664 0.15483 0.0
H363 H 0.20779 0.88689 0.17857 0.0
H364 H 0.17336 0.90293 0.20011 0.0
H365 H 0.15166 0.88267 0.17605 0.0
C366 C 0.114 0.81893 0.16216 0.0
C367 C 0.10349 0.82144 0.17602 0.0
C368 C 0.09255 0.80863 0.1897 0.0
C369 C 0.09202 0.79311 0.18983 0.0
C370 C 0.10218 0.79046 0.17545 0.0
C371 C 0.11313 0.80328 0.16182 0.0
C372 C 0.12706 0.83312 0.14953 0.0
C373 C 0.13919 0.84748 0.16042 0.0
C374 C 0.12892 0.83181 0.12754 0.0
C375 C 0.11657 0.8169 0.11506 0.0
C376 C 0.09903 0.81034 0.11721 0.0
C377 C 0.08755 0.79587 0.10611 0.0
C378 C 0.09343 0.78803 0.09222 0.0
C379 C 0.11091 0.79485 0.08955 0.0
C380 C 0.12237 0.80907 0.10099 0.0
C381 C 0.17151 0.87054 0.11723 0.0
C382 C 0.18188 0.86481 0.10883 0.0
C383 C 0.19724 0.87605 0.09921 0.0
C384 C 0.20228 0.89312 0.09746 0.0
C385 C 0.19175 0.89885 0.10541 0.0
C386 C 0.17649 0.88762 0.11546 0.0
C387 C 0.1558 0.85857 0.12845 0.0
C388 C 0.14322 0.84473 0.11728 0.0
C389 C 0.15375 0.86004 0.15026 0.0
C390 C 0.16735 0.87336 0.16336 0.0
C391 C 0.18335 0.87483 0.1642 0.0
C392 C 0.19574 0.88639 0.17784 0.0
C393 C 0.19229 0.89654 0.19116 0.0
C394 C 0.17633 0.8952 0.19012 0.0
C395 C 0.16397 0.88369 0.17635 0.0
H396 H 0.27937 0.16032 0.83599 0.0
H397 H 0.28082 0.18133 0.81194 0.0
H398 H 0.32536 0.21973 0.84427 0.0
H399 H 0.32521 0.19826 0.86607 0.0
H400 H 0.29842 0.1487 0.83864 0.0
H401 H 0.2828 0.17665 0.89331 0.0
H402 H 0.28721 0.20173 0.91271 0.0
H403 H 0.33762 0.21326 0.92915 0.0
H404 H 0.33314 0.1882 0.91 0.0
H405 H 0.33391 0.14571 0.90887 0.0
H406 H 0.33857 0.12557 0.9283 0.0
H407 H 0.28771 0.08597 0.91366 0.0
H408 H 0.28312 0.10617 0.89404 0.0
H409 H 0.30973 0.155 0.91534 0.0
H410 H 0.32714 0.12979 0.86274 0.0
H411 H 0.32763 0.1086 0.83998 0.0
H412 H 0.27749 0.09376 0.81777 0.0
H413 H 0.27706 0.115 0.84071 0.0
C414 C 0.30201 0.1776 0.8532 0.0
C415 C 0.2895 0.17327 0.83785 0.0
C416 C 0.29022 0.18545 0.82423 0.0
C417 C 0.30322 0.20243 0.82597 0.0
C418 C 0.31534 0.20681 0.84195 0.0
C419 C 0.315 0.19451 0.85498 0.0
C420 C 0.30223 0.16423 0.86601 0.0
C421 C 0.30038 0.1499 0.85553 0.0
C422 C 0.3055 0.16596 0.88793 0.0
C423 C 0.30768 0.18065 0.90017 0.0
C424 C 0.29475 0.18455 0.9012 0.0
C425 C 0.29724 0.19879 0.91231 0.0
C426 C 0.31277 0.20939 0.9223 0.0
C427 C 0.32559 0.20533 0.92144 0.0
C428 C 0.32301 0.191 0.91063 0.0
C429 C 0.30821 0.12737 0.89998 0.0
C430 C 0.32375 0.1327 0.90993 0.0
C431 C 0.32642 0.12121 0.92091 0.0
C432 C 0.31349 0.10428 0.92242 0.0
C433 C 0.29782 0.09901 0.9128 0.0
C434 C 0.29523 0.11047 0.90154 0.0
C435 C 0.30572 0.13959 0.88794 0.0
C436 C 0.3072 0.15363 0.89856 0.0
C437 C 0.30226 0.13766 0.86615 0.0
C438 C 0.30197 0.12385 0.85364 0.0
C439 C 0.31608 0.12171 0.85336 0.0
C440 C 0.31635 0.10959 0.84031 0.0
C441 C 0.30259 0.09949 0.82709 0.0
C442 C 0.28835 0.10145 0.82765 0.0
C443 C 0.28806 0.11354 0.84078 0.0
H444 H 0.84025 0.10976 0.8329 0.0
H445 H 0.8187 0.08908 0.8091 0.0
H446 H 0.78367 0.10448 0.83038 0.0
H447 H 0.80514 0.12488 0.85421 0.0
H448 H 0.85293 0.144 0.83047 0.0
H449 H 0.821 0.09965 0.88135 0.0
H450 H 0.79519 0.07975 0.90063 0.0
H451 H 0.79168 0.12134 0.9263 0.0
H452 H 0.81683 0.14109 0.90642 0.0
H453 H 0.85314 0.17961 0.90546 0.0
H454 H 0.87157 0.2053 0.92511 0.0
H455 H 0.91552 0.20596 0.899 0.0
H456 H 0.89701 0.17977 0.8798 0.0
H457 H 0.84738 0.15001 0.90723 0.0
H458 H 0.86776 0.19126 0.85317 0.0
H459 H 0.88608 0.2132 0.82831 0.0
H460 H 0.90603 0.1822 0.80637 0.0
H461 H 0.88748 0.16017 0.83123 0.0
C462 C 0.82424 0.11873 0.84547 0.0
C463 C 0.82783 0.10846 0.83264 0.0
C464 C 0.81553 0.09671 0.819 0.0
C465 C 0.79946 0.09512 0.81783 0.0
C466 C 0.79579 0.10513 0.83115 0.0
C467 C 0.80807 0.11685 0.84477 0.0
C468 C 0.83781 0.13246 0.85815 0.0
C469 C 0.85194 0.14515 0.84737 0.0
C470 C 0.83604 0.13426 0.88003 0.0
C471 C 0.82086 0.12192 0.89225 0.0
C472 C 0.81459 0.10449 0.89095 0.0
C473 C 0.79992 0.09314 0.90202 0.0
C474 C 0.79157 0.09907 0.91499 0.0
C475 C 0.79802 0.11647 0.91661 0.0
C476 C 0.81243 0.12775 0.90527 0.0
C477 C 0.87363 0.1777 0.89107 0.0
C478 C 0.86674 0.18512 0.90409 0.0
C479 C 0.87726 0.19982 0.91531 0.0
C480 C 0.89494 0.20756 0.91359 0.0
C481 C 0.90191 0.20027 0.90046 0.0
C482 C 0.89135 0.18536 0.88946 0.0
C483 C 0.86211 0.16193 0.8794 0.0
C484 C 0.84853 0.14874 0.8904 0.0
C485 C 0.8638 0.16009 0.85752 0.0
C486 C 0.87637 0.17414 0.84421 0.0
C487 C 0.87636 0.18934 0.84336 0.0
C488 C 0.88686 0.20189 0.82913 0.0
C489 C 0.89752 0.19945 0.81533 0.0
C490 C 0.89784 0.18439 0.81662 0.0
C491 C 0.88732 0.17183 0.83087 0.0
H492 H 0.80703 0.66892 0.827 0.0
H493 H 0.78499 0.66883 0.8055 0.0
H494 H 0.79495 0.71546 0.83449 0.0
H495 H 0.81686 0.71526 0.85666 0.0
H496 H 0.84195 0.69582 0.82792 0.0
H497 H 0.79225 0.66605 0.86979 0.0
H498 H 0.76755 0.66158 0.88952 0.0
H499 H 0.80021 0.69883 0.93522 0.0
H500 H 0.82488 0.70442 0.91406 0.0
H501 H 0.86781 0.70128 0.91406 0.0
H502 H 0.88479 0.69313 0.93451 0.0
H503 H 0.8802 0.65865 0.88486 0.0
H504 H 0.86155 0.66534 0.86588 0.0
H505 H 0.83689 0.68456 0.90459 0.0
H506 H 0.88802 0.70984 0.86019 0.0
H507 H 0.90983 0.70984 0.83736 0.0
H508 H 0.87078 0.6739 0.7961 0.0
H509 H 0.84915 0.6735 0.81902 0.0
C510 C 0.81348 0.69206 0.8434 0.0
C511 C 0.80439 0.67907 0.82886 0.0
C512 C 0.79178 0.67897 0.81671 0.0
C513 C 0.78828 0.69208 0.81853 0.0
C514 C 0.79744 0.70521 0.83296 0.0
C515 C 0.80988 0.7051 0.84555 0.0
C516 C 0.82698 0.69189 0.85575 0.0
C517 C 0.84097 0.69344 0.84473 0.0
C518 C 0.82557 0.68891 0.87767 0.0
C519 C 0.81046 0.686 0.88998 0.0
C520 C 0.79412 0.67366 0.88367 0.0
C521 C 0.77995 0.67082 0.89534 0.0
C522 C 0.78177 0.67979 0.91411 0.0
C523 C 0.79821 0.69189 0.92067 0.0
C524 C 0.81238 0.695 0.90868 0.0
C525 C 0.86359 0.6842 0.88818 0.0
C526 C 0.8704 0.6919 0.90764 0.0
C527 C 0.88035 0.68736 0.91922 0.0
C528 C 0.88406 0.67523 0.91143 0.0
C529 C 0.87745 0.66779 0.89171 0.0
C530 C 0.86705 0.67193 0.88049 0.0
C531 C 0.85198 0.68819 0.8767 0.0
C532 C 0.83829 0.68745 0.88791 0.0
C533 C 0.85338 0.69137 0.85474 0.0
C534 C 0.86692 0.69167 0.84135 0.0
C535 C 0.88417 0.70187 0.84632 0.0
C536 C 0.8966 0.7019 0.83329 0.0
C537 C 0.89194 0.692 0.8149 0.0
C538 C 0.87471 0.68186 0.81 0.0
C539 C 0.86236 0.68164 0.8231 0.0
H540 H 0.79186 0.65541 0.48623 0.0
H541 H 0.77089 0.6586 0.50648 0.0
H542 H 0.75019 0.60817 0.53071 0.0
H543 H 0.77114 0.60497 0.51022 0.0
H544 H 0.80449 0.62302 0.51516 0.0
H545 H 0.8101 0.65824 0.43689 0.0
H546 H 0.79187 0.66473 0.41592 0.0
H547 H 0.74775 0.62008 0.43952 0.0
H548 H 0.76598 0.61306 0.45968 0.0
H549 H 0.83237 0.61943 0.43253 0.0
H550 H 0.8594 0.62764 0.41576 0.0
H551 H 0.88547 0.6598 0.46907 0.0
H552 H 0.85846 0.65322 0.48424 0.0
H553 H 0.81844 0.63646 0.43962 0.0
H554 H 0.83784 0.60826 0.48704 0.0
H555 H 0.85853 0.60799 0.51119 0.0
H556 H 0.8537 0.6429 0.55218 0.0
H557 H 0.8336 0.64354 0.52799 0.0
C558 C 0.78296 0.62989 0.49657 0.0
C559 C 0.78255 0.64488 0.49549 0.0
C560 C 0.77056 0.6467 0.50706 0.0
C561 C 0.75894 0.63364 0.52017 0.0
C562 C 0.7591 0.61848 0.52084 0.0
C563 C 0.77102 0.61663 0.50915 0.0
C564 C 0.79674 0.62865 0.48596 0.0
C565 C 0.80747 0.62573 0.49857 0.0
C566 C 0.80047 0.63213 0.46428 0.0
C567 C 0.78945 0.63526 0.45017 0.0
C568 C 0.79654 0.64961 0.43724 0.0
C569 C 0.78613 0.65337 0.42532 0.0
C570 C 0.76845 0.64297 0.42632 0.0
C571 C 0.76136 0.62837 0.43871 0.0
C572 C 0.77177 0.62441 0.45027 0.0
C573 C 0.84328 0.63544 0.45987 0.0
C574 C 0.84394 0.62832 0.44054 0.0
C575 C 0.85949 0.63287 0.43109 0.0
C576 C 0.87482 0.64439 0.441 0.0
C577 C 0.87407 0.65117 0.46064 0.0
C578 C 0.85852 0.64709 0.46966 0.0
C579 C 0.8267 0.63153 0.46904 0.0
C580 C 0.81533 0.63335 0.4561 0.0
C581 C 0.82255 0.62737 0.49058 0.0
C582 C 0.83418 0.62598 0.5056 0.0
C583 C 0.84124 0.61583 0.50124 0.0
C584 C 0.85302 0.61566 0.51503 0.0
C585 C 0.85762 0.62534 0.53362 0.0
C586 C 0.85019 0.63509 0.53817 0.0
C587 C 0.83867 0.63545 0.52432 0.0
H588 H 0.38879 0.21791 0.51496 0.0
H589 H 0.38603 0.23791 0.5379 0.0
H590 H 0.33547 0.21946 0.51434 0.0
H591 H 0.33828 0.19959 0.49166 0.0
H592 H 0.36899 0.18353 0.51643 0.0
H593 H 0.38278 0.22627 0.46156 0.0
H594 H 0.37679 0.24582 0.44266 0.0
H595 H 0.32711 0.20452 0.42682 0.0
H596 H 0.33318 0.18504 0.44549 0.0
H597 H 0.33532 0.14654 0.44151 0.0
H598 H 0.32961 0.12128 0.42215 0.0
H599 H 0.37498 0.12507 0.44748 0.0
H600 H 0.3811 0.15088 0.46638 0.0
H601 H 0.35791 0.17704 0.43966 0.0
H602 H 0.33919 0.1354 0.49303 0.0
H603 H 0.3374 0.11375 0.51658 0.0
H604 H 0.38783 0.14847 0.53915 0.0
H605 H 0.38953 0.17016 0.51548 0.0
C606 C 0.36385 0.20745 0.50135 0.0
C607 C 0.37721 0.21836 0.51458 0.0
C608 C 0.3756 0.22973 0.52769 0.0
C609 C 0.36056 0.23033 0.52785 0.0
C610 C 0.34735 0.21958 0.51428 0.0
C611 C 0.34894 0.2082 0.50128 0.0
C612 C 0.36484 0.19433 0.48881 0.0
C613 C 0.36705 0.18232 0.49952 0.0
C614 C 0.36156 0.19239 0.46696 0.0
C615 C 0.35841 0.20423 0.45492 0.0
C616 C 0.37065 0.22144 0.45391 0.0
C617 C 0.36725 0.23256 0.44307 0.0
C618 C 0.35148 0.22663 0.43337 0.0
C619 C 0.33932 0.20939 0.43429 0.0
C620 C 0.34281 0.19827 0.44482 0.0
C621 C 0.35862 0.15064 0.4555 0.0
C622 C 0.34422 0.14214 0.44271 0.0
C623 C 0.34095 0.12769 0.43165 0.0
C624 C 0.3519 0.12131 0.43329 0.0
C625 C 0.36632 0.12974 0.44606 0.0
C626 C 0.36977 0.14442 0.4569 0.0
C627 C 0.36171 0.16591 0.46732 0.0
C628 C 0.36035 0.1784 0.45646 0.0
C629 C 0.36506 0.16788 0.48922 0.0
C630 C 0.36458 0.15435 0.50229 0.0
C631 C 0.35001 0.13826 0.50271 0.0
C632 C 0.34901 0.12587 0.51618 0.0
C633 C 0.3625 0.12936 0.52971 0.0
C634 C 0.37719 0.14542 0.52904 0.0
C635 C 0.37819 0.15781 0.51549 0.0
H636 H 0.77153 0.16878 0.5089 0.0
H637 H 0.75308 0.14532 0.53207 0.0
H638 H 0.76813 0.11365 0.49951 0.0
H639 H 0.78659 0.13716 0.47643 0.0
H640 H 0.8058 0.18282 0.50626 0.0
H641 H 0.75806 0.1526 0.4594 0.0
H642 H 0.73759 0.12684 0.44086 0.0
H643 H 0.77833 0.12786 0.4051 0.0
H644 H 0.79884 0.15306 0.42423 0.0
H645 H 0.837 0.19151 0.42523 0.0
H646 H 0.86265 0.21259 0.40735 0.0
H647 H 0.86081 0.25203 0.44216 0.0
H648 H 0.83466 0.23084 0.45966 0.0
H649 H 0.80608 0.18315 0.42821 0.0
H650 H 0.85194 0.20321 0.47651 0.0
H651 H 0.87559 0.22229 0.49901 0.0
H652 H 0.84296 0.2361 0.53196 0.0
H653 H 0.81933 0.21694 0.50938 0.0
C654 C 0.7803 0.15467 0.49084 0.0
C655 C 0.7707 0.15672 0.50662 0.0
C656 C 0.76022 0.14335 0.51987 0.0
C657 C 0.75922 0.12768 0.51762 0.0
C658 C 0.76849 0.12551 0.50144 0.0
C659 C 0.77904 0.13893 0.48825 0.0
C660 C 0.79267 0.16935 0.47828 0.0
C661 C 0.80565 0.18308 0.48918 0.0
C662 C 0.79282 0.16929 0.45599 0.0
C663 C 0.78006 0.15467 0.44349 0.0
C664 C 0.76262 0.14726 0.44765 0.0
C665 C 0.75093 0.13261 0.43702 0.0
C666 C 0.75645 0.12544 0.42163 0.0
C667 C 0.77378 0.13326 0.41679 0.0
C668 C 0.78548 0.14767 0.42771 0.0
C669 C 0.83398 0.20955 0.44397 0.0
C670 C 0.84183 0.2047 0.42869 0.0
C671 C 0.8565 0.21676 0.41847 0.0
C672 C 0.86368 0.23391 0.42343 0.0
C673 C 0.85555 0.23886 0.4382 0.0
C674 C 0.84067 0.22677 0.44821 0.0
C675 C 0.81943 0.19641 0.4562 0.0
C676 C 0.80601 0.18305 0.44529 0.0
C677 C 0.81929 0.19634 0.47848 0.0
C678 C 0.83392 0.2088 0.49112 0.0
C679 C 0.84996 0.21057 0.48833 0.0
C680 C 0.86347 0.22149 0.50119 0.0
C681 C 0.86113 0.23069 0.51727 0.0
C682 C 0.8451 0.22904 0.51985 0.0
C683 C 0.83161 0.21816 0.50693 0.0
H684 H 0.95366 0.49802 0.17417 0.0
H685 H 0.95145 0.51882 0.1528 0.0
H686 H 0.0019 0.55688 0.17174 0.0
H687 H 0.004 0.53608 0.19304 0.0
H688 H 0.97663 0.48764 0.16942 0.0
H689 H 0.96092 0.5134 0.22682 0.0
H690 H 0.9646 0.53782 0.24711 0.0
H691 H 0.01673 0.55271 0.25882 0.0
H692 H 0.01297 0.52827 0.23871 0.0
H693 H 0.01163 0.485 0.2445 0.0
H694 H 0.01561 0.46463 0.26439 0.0
H695 H 0.96986 0.42393 0.23751 0.0
H696 H 0.96534 0.4443 0.21842 0.0
H697 H 0.98986 0.49388 0.24566 0.0
H698 H 0.00751 0.46981 0.19218 0.0
H699 H 0.0081 0.44843 0.16982 0.0
H700 H 0.95787 0.43309 0.14754 0.0
H701 H 0.95729 0.45444 0.17008 0.0
C702 C 0.97892 0.51553 0.18536 0.0
C703 C 0.96418 0.51088 0.17383 0.0
C704 C 0.96295 0.52276 0.16161 0.0
C705 C 0.97649 0.5395 0.16062 0.0
C706 C 0.99113 0.54417 0.17246 0.0
C707 C 0.99236 0.53229 0.18463 0.0
C708 C 0.98062 0.50268 0.1972 0.0
C709 C 0.9792 0.48878 0.18618 0.0
C710 C 0.98471 0.50459 0.21882 0.0
C711 C 0.9867 0.51912 0.23125 0.0
C712 C 0.97311 0.52193 0.23381 0.0
C713 C 0.97519 0.53578 0.24545 0.0
C714 C 0.99095 0.5471 0.25446 0.0
C715 C 0.0045 0.54421 0.25191 0.0
C716 C 0.00234 0.53025 0.24054 0.0
C717 C 0.98828 0.46621 0.22973 0.0
C718 C 0.00234 0.47171 0.24301 0.0
C719 C 0.00464 0.46011 0.25432 0.0
C720 C -0.00693 0.4428 0.25232 0.0
C721 C 0.97902 0.43724 0.23908 0.0
C722 C 0.97651 0.44886 0.22811 0.0
C723 C 0.98584 0.47866 0.21793 0.0
C724 C 0.98712 0.49252 0.22893 0.0
C725 C 0.9821 0.47692 0.19612 0.0
C726 C 0.98228 0.46362 0.18299 0.0
C727 C -0.00348 0.46168 0.18273 0.0
C728 C -0.00316 0.44944 0.16995 0.0
C729 C 0.98301 0.43905 0.15697 0.0
C730 C 0.96877 0.441 0.15725 0.0
C731 C 0.96841 0.45318 0.17013 0.0
H732 H 0.50256 0.45155 0.16262 0.0
H733 H 0.47996 0.43298 0.13897 0.0
H734 H 0.44397 0.43857 0.17761 0.0
H735 H 0.46703 0.4587 0.19968 0.0
H736 H 0.51437 0.4829 0.16818 0.0
H737 H 0.48535 0.43478 0.2161 0.0
H738 H 0.45986 0.41407 0.23528 0.0
H739 H 0.45863 0.45452 0.26835 0.0
H740 H 0.4836 0.47506 0.2489 0.0
H741 H 0.52198 0.51312 0.24928 0.0
H742 H 0.54257 0.53805 0.26859 0.0
H743 H 0.58334 0.5375 0.23478 0.0
H744 H 0.56261 0.51202 0.21582 0.0
H745 H 0.51443 0.48265 0.24614 0.0
H746 H 0.53807 0.52982 0.19981 0.0
H747 H 0.55809 0.55296 0.17773 0.0
H748 H 0.56448 0.51772 0.139 0.0
H749 H 0.54602 0.49505 0.16265 0.0
C750 C 0.48657 0.45644 0.18317 0.0
C751 C 0.48979 0.44878 0.166 0.0
C752 C 0.47671 0.4379 0.15259 0.0
C753 C 0.45995 0.43409 0.15623 0.0
C754 C 0.45669 0.44136 0.17391 0.0
C755 C 0.46988 0.45267 0.18692 0.0
C756 C 0.50092 0.46933 0.19597 0.0
C757 C 0.5146 0.48263 0.18525 0.0
C758 C 0.50084 0.46938 0.21829 0.0
C759 C 0.48633 0.45651 0.2309 0.0
C760 C 0.47958 0.43917 0.22749 0.0
C761 C 0.46507 0.42736 0.23844 0.0
C762 C 0.45733 0.43272 0.25331 0.0
C763 C 0.46445 0.45002 0.25719 0.0
C764 C 0.47875 0.46178 0.24607 0.0
C765 C 0.5407 0.51072 0.23093 0.0
C766 C 0.53535 0.5181 0.24627 0.0
C767 C 0.54713 0.53237 0.25731 0.0
C768 C 0.56453 0.53969 0.25315 0.0
C769 C 0.56997 0.53214 0.23815 0.0
C770 C 0.55815 0.51763 0.22732 0.0
C771 C 0.5278 0.49629 0.21832 0.0
C772 C 0.51444 0.48269 0.22906 0.0
C773 C 0.52787 0.49627 0.196 0.0
C774 C 0.54073 0.51066 0.18323 0.0
C775 C 0.54425 0.52716 0.18702 0.0
C776 C 0.5555 0.54039 0.17403 0.0
C777 C 0.56294 0.53735 0.15631 0.0
C778 C 0.55941 0.52078 0.15265 0.0
C779 C 0.54859 0.50767 0.16605 0.0
H780 H 0.54143 0.04444 0.16966 0.0
H781 H 0.5638 0.04525 0.14735 0.0
H782 H 0.54693 0.9937 0.16398 0.0
H783 H 0.52453 0.99287 0.18587 0.0
H784 H 0.50757 0.02455 0.16568 0.0
H785 H 0.54739 0.03442 0.22335 0.0
H786 H 0.56688 0.02817 0.24222 0.0
H787 H 0.52719 0.97612 0.2477 0.0
H788 H 0.50768 0.98246 0.2293 0.0
H789 H 0.46428 0.98426 0.23278 0.0
H790 H 0.43891 0.97943 0.252 0.0
H791 H 0.45247 0.03095 0.24063 0.0
H792 H 0.47784 0.03572 0.22136 0.0
H793 H 0.49773 0.00618 0.24028 0.0
H794 H 0.45809 0.99376 0.18665 0.0
H795 H 0.43728 0.99428 0.16358 0.0
H796 H 0.47373 0.04553 0.14613 0.0
H797 H 0.49461 0.04493 0.16942 0.0
C798 C 0.53148 0.0187 0.17975 0.0
C799 C 0.54265 0.03336 0.1686 0.0
C800 C 0.55539 0.03381 0.15585 0.0
C801 C 0.55719 0.01958 0.15405 0.0
C802 C 0.54609 0.00497 0.16538 0.0
C803 C 0.53329 0.0045 0.17796 0.0
C804 C 0.51731 0.01783 0.19228 0.0
C805 C 0.50566 0.02101 0.18217 0.0
C806 C 0.51438 0.01245 0.21348 0.0
C807 C 0.52615 0.00888 0.22498 0.0
C808 C 0.54292 0.02169 0.22869 0.0
C809 C 0.55398 0.01814 0.23944 0.0
C810 C 0.54847 0.00168 0.24625 0.0
C811 C 0.53171 0.98888 0.24244 0.0
C812 C 0.52058 0.9925 0.23208 0.0
C813 C 0.47288 0.01033 0.2256 0.0
C814 C 0.46181 0.99453 0.2345 0.0
C815 C 0.4473 0.99176 0.24534 0.0
C816 C 0.44376 0.00482 0.24776 0.0
C817 C 0.45498 0.0207 0.2391 0.0
C818 C 0.46939 0.02341 0.22801 0.0
C819 C 0.48807 0.01306 0.21375 0.0
C820 C 0.49986 0.0102 0.22397 0.0
C821 C 0.49089 0.01837 0.1925 0.0
C822 C 0.47785 0.01938 0.17999 0.0
C823 C 0.46149 0.00527 0.17831 0.0
C824 C 0.44958 0.00559 0.16509 0.0
C825 C 0.45383 0.01998 0.15308 0.0
C826 C 0.47012 0.03424 0.15509 0.0
C827 C 0.48203 0.03392 0.16841 0.0
H828 H 0.47833 0.99137 0.85511 0.0
H829 H 0.45721 0.99238 0.87771 0.0
H830 H 0.41729 0.95548 0.83816 0.0
H831 H 0.43852 0.95413 0.81575 0.0
H832 H 0.48458 0.96774 0.84727 0.0
H833 H 0.46985 0.00159 0.80475 0.0
H834 H 0.45081 0.00827 0.78607 0.0
H835 H 0.43307 0.96321 0.74834 0.0
H836 H 0.45255 0.95693 0.76674 0.0
H837 H 0.51364 0.95266 0.79531 0.0
H838 H 0.53932 0.95793 0.77641 0.0
H839 H 0.54477 0.00376 0.75104 0.0
H840 H 0.5196 -0.00113 0.77045 0.0
H841 H 0.48826 0.97711 0.77016 0.0
H842 H 0.49597 0.94541 0.8443 0.0
H843 H 0.51753 0.94583 0.86721 0.0
H844 H 0.55376 -0.00424 0.84496 0.0
H845 H 0.53222 -0.00486 0.82196 0.0
C846 C 0.46003 0.97269 0.83371 0.0
C847 C 0.46503 0.98338 0.85135 0.0
C848 C 0.45298 0.98397 0.86424 0.0
C849 C 0.43566 0.97395 0.85969 0.0
C850 C 0.4306 0.96339 0.8419 0.0
C851 C 0.4427 0.96265 0.8291 0.0
C852 C 0.47311 0.9721 0.82044 0.0
C853 C 0.48531 0.96965 0.83037 0.0
C854 C 0.47418 0.97477 0.79845 0.0
C855 C 0.46249 0.97869 0.78724 0.0
C856 C 0.46181 0.99314 0.79249 0.0
C857 C 0.45086 -0.0031 0.78184 0.0
C858 C 0.44033 0.98625 0.76572 0.0
C859 C 0.44115 0.97182 0.76045 0.0
C860 C 0.4522 0.96814 0.77102 0.0
C861 C 0.51477 0.97546 0.7845 0.0
C862 C 0.5204 0.96388 0.78576 0.0
C863 C 0.53501 0.96685 0.77493 0.0
C864 C 0.54395 0.98122 0.76229 0.0
C865 C 0.53799 0.99249 0.76051 0.0
C866 C 0.52359 0.98968 0.77157 0.0
C867 C 0.50007 0.97326 0.7971 0.0
C868 C 0.48742 0.97494 0.78701 0.0
C869 C 0.49897 0.97056 0.81912 0.0
C870 C 0.51252 0.97018 0.83132 0.0
C871 C 0.50863 0.95634 0.84417 0.0
C872 C 0.52095 0.95663 0.8573 0.0
C873 C 0.53737 0.97085 0.85796 0.0
C874 C 0.54134 0.9845 0.8446 0.0
C875 C 0.52902 0.98419 0.83147 0.0
H876 H 0.03619 0.54024 0.85014 0.0
H877 H 0.03529 0.56109 0.87337 0.0
H878 H 0.98426 0.54427 0.85288 0.0
H879 H 0.98529 0.52363 0.82969 0.0
H880 H 0.01595 0.50641 0.85262 0.0
H881 H 0.02957 0.54797 0.79774 0.0
H882 H 0.02561 0.5683 0.77754 0.0
H883 H 0.97458 0.52923 0.76261 0.0
H884 H 0.97863 0.50893 0.78269 0.0
H885 H 0.97873 0.46464 0.78485 0.0
H886 H 0.97421 0.4395 0.76578 0.0
H887 H 0.02644 0.45412 0.77588 0.0
H888 H 0.03085 0.47917 0.79551 0.0
H889 H 0.00204 0.49883 0.77657 0.0
H890 H 0.98894 0.4566 0.82726 0.0
H891 H 0.99053 0.43574 0.84853 0.0
H892 H 0.0371 0.47504 0.87613 0.0
H893 H 0.03642 0.49554 0.85284 0.0
C894 C 0.01088 0.53049 0.83802 0.0
C895 C 0.0249 0.54121 0.85049 0.0
C896 C 0.02434 0.55307 0.8638 0.0
C897 C 0.0097 0.55435 0.86498 0.0
C898 C -0.00416 0.54385 0.85208 0.0
C899 C -0.0036 0.53201 0.83881 0.0
C900 C 0.01081 0.51684 0.82542 0.0
C901 C 0.01339 0.50495 0.83586 0.0
C902 C 0.00677 0.51464 0.80377 0.0
C903 C 0.00437 0.52698 0.79174 0.0
C904 C 0.01753 0.54381 0.79013 0.0
C905 C 0.0153 0.55536 0.77852 0.0
C906 C -0.00021 0.55029 0.76854 0.0
C907 C 0.98661 0.53346 0.77027 0.0
C908 C 0.98894 0.52187 0.78162 0.0
C909 C 0.0051 0.47368 0.79162 0.0
C910 C 0.98922 0.46246 0.78293 0.0
C911 C 0.98662 0.4481 0.77218 0.0
C912 C -2e-05 0.44495 0.76953 0.0
C913 C 0.01599 0.45636 0.7778 0.0
C914 C 0.0185 0.47059 0.78896 0.0
C915 C 0.00741 0.48846 0.80371 0.0
C916 C 0.00509 0.50048 0.79321 0.0
C917 C 0.01154 0.49063 0.82539 0.0
C918 C 0.01278 0.47769 0.83793 0.0
C919 C -0.00013 0.46068 0.83722 0.0
C920 C 0.0006 0.44874 0.84989 0.0
C921 C 0.01387 0.45359 0.86435 0.0
C922 C 0.02682 0.47064 0.86499 0.0
C923 C 0.02634 0.48249 0.85183 0.0
H924 H 0.44089 0.49865 0.83847 0.0
H925 H 0.41956 0.47685 0.86155 0.0
H926 H 0.43622 0.44266 0.84171 0.0
H927 H 0.45752 0.46442 0.81893 0.0
H928 H 0.47463 0.51237 0.84248 0.0
H929 H 0.43433 0.48291 0.78582 0.0
H930 H 0.41459 0.45724 0.76653 0.0
H931 H 0.45518 0.44748 0.7538 0.0
H932 H 0.47484 0.47309 0.77309 0.0
H933 H 0.51871 0.51559 0.77879 0.0
H934 H 0.54578 0.53597 0.76243 0.0
H935 H 0.53341 0.57504 0.77028 0.0
H936 H 0.50642 0.55467 0.7872 0.0
H937 H 0.48514 0.50593 0.76718 0.0
H938 H 0.52388 0.52989 0.82292 0.0
H939 H 0.54525 0.5509 0.84629 0.0
H940 H 0.51051 0.56745 0.86451 0.0
H941 H 0.48914 0.54647 0.84069 0.0
C942 C 0.45065 0.4831 0.82677 0.0
C943 C 0.43976 0.48636 0.83889 0.0
C944 C 0.42763 0.47395 0.85208 0.0
C945 C 0.42622 0.45806 0.85339 0.0
C946 C 0.4368 0.45467 0.84075 0.0
C947 C 0.44897 0.4671 0.82769 0.0
C948 C 0.46483 0.4968 0.81477 0.0
C949 C 0.47665 0.51123 0.82584 0.0
C950 C 0.46787 0.49491 0.79333 0.0
C951 C 0.45601 0.47985 0.78093 0.0
C952 C 0.43897 0.47526 0.7788 0.0
C953 C 0.42775 0.46068 0.7677 0.0
C954 C 0.43339 0.4504 0.75874 0.0
C955 C 0.4505 0.45513 0.7607 0.0
C956 C 0.46174 0.46979 0.77157 0.0
C957 C 0.51065 0.53368 0.78415 0.0
C958 C 0.5218 0.52853 0.77691 0.0
C959 C 0.53724 0.54014 0.76774 0.0
C960 C 0.54155 0.55697 0.76527 0.0
C961 C 0.53025 0.56208 0.77209 0.0
C962 C 0.51493 0.55052 0.78169 0.0
C963 C 0.49478 0.52147 0.79489 0.0
C964 C 0.48277 0.50735 0.78362 0.0
C965 C 0.4918 0.5234 0.8163 0.0
C966 C 0.50502 0.53683 0.82969 0.0
C967 C 0.52098 0.53831 0.83149 0.0
C968 C 0.53318 0.5503 0.84492 0.0
C969 C 0.52958 0.56089 0.85713 0.0
C970 C 0.5136 0.55941 0.85533 0.0
C971 C 0.50142 0.54748 0.84172 0.0
H972 H 0.6053 0.82514 0.50195 0.0
H973 H 0.6084 0.84815 0.47974 0.0
H974 H 0.65682 0.88172 0.50835 0.0
H975 H 0.65366 0.85867 0.53047 0.0
H976 H 0.6261 0.81196 0.50279 0.0
H977 H 0.60988 0.84241 0.55111 0.0
H978 H 0.61535 0.86802 0.56992 0.0
H979 H 0.65716 0.86915 0.60218 0.0
H980 H 0.65226 0.84412 0.58277 0.0
H981 H 0.65088 0.80542 0.58329 0.0
H982 H 0.65399 0.78467 0.60334 0.0
H983 H 0.61169 0.74449 0.57015 0.0
H984 H 0.608 0.76529 0.55069 0.0
H985 H 0.62883 0.81368 0.58073 0.0
H986 H 0.65235 0.7919 0.53101 0.0
H987 H 0.65548 0.77215 0.50825 0.0
H988 H 0.60795 0.75829 0.47832 0.0
H989 H 0.60492 0.77813 0.50112 0.0
C990 C 0.62916 0.84024 0.51799 0.0
C991 C 0.61653 0.83748 0.50349 0.0
C992 C 0.61834 0.85061 0.4908 0.0
C993 C 0.63285 0.86673 0.49233 0.0
C994 C 0.64539 0.86951 0.50705 0.0
C995 C 0.64361 0.85635 0.51966 0.0
C996 C 0.62757 0.82606 0.53064 0.0
C997 C 0.62638 0.81216 0.51987 0.0
C998 C 0.62858 0.8267 0.55289 0.0
C999 C 0.63081 0.84143 0.56526 0.0
C1000 C 0.62031 0.84822 0.56211 0.0
C1001 C 0.62336 0.86278 0.57291 0.0
C1002 C 0.63666 0.87047 0.58745 0.0
C1003 C 0.64674 0.86334 0.59117 0.0
C1004 C 0.64392 0.84903 0.5801 0.0
C1005 C 0.6293 0.78696 0.5653 0.0
C1006 C 0.64205 0.79216 0.58053 0.0
C1007 C 0.64385 0.78032 0.59197 0.0
C1008 C 0.63307 0.76306 0.58822 0.0
C1009 C 0.62019 0.75778 0.57318 0.0
C1010 C 0.61816 0.76964 0.56201 0.0
C1011 C 0.62794 0.79981 0.55287 0.0
C1012 C 0.62836 0.81335 0.56366 0.0
C1013 C 0.62703 0.79925 0.53061 0.0
C1014 C 0.62831 0.78637 0.51791 0.0
C1015 C 0.64245 0.78438 0.51981 0.0
C1016 C 0.64422 0.77307 0.5068 0.0
C1017 C 0.63197 0.76366 0.49147 0.0
C1018 C 0.61769 0.76549 0.48982 0.0
C1019 C 0.61592 0.77677 0.50288 0.0
H1020 H 0.17281 0.77613 0.50303 0.0
H1021 H 0.15006 0.75734 0.47911 0.0
H1022 H 0.11746 0.77356 0.5068 0.0
H1023 H 0.14015 0.79216 0.53065 0.0
H1024 H 0.18724 0.81036 0.50426 0.0
H1025 H 0.15565 0.76421 0.55246 0.0
H1026 H 0.12935 0.74368 0.57028 0.0
H1027 H 0.12674 0.78435 0.60064 0.0
H1028 H 0.15258 0.80477 0.58245 0.0
H1029 H 0.19021 0.84323 0.58252 0.0
H1030 H 0.20954 0.86893 0.60155 0.0
H1031 H 0.25224 0.86897 0.57234 0.0
H1032 H 0.23283 0.84275 0.55375 0.0
H1033 H 0.18335 0.8131 0.58191 0.0
H1034 H 0.2046 0.8568 0.53047 0.0
H1035 H 0.22336 0.87934 0.50652 0.0
H1036 H 0.24087 0.84741 0.48041 0.0
H1037 H 0.22192 0.82482 0.50441 0.0
C1038 C 0.15812 0.7854 0.51878 0.0
C1039 C 0.16067 0.77544 0.5041 0.0
C1040 C 0.14769 0.76477 0.4904 0.0
C1041 C 0.13194 0.76396 0.49105 0.0
C1042 C 0.12932 0.77366 0.50612 0.0
C1043 C 0.1423 0.78432 0.51977 0.0
C1044 C 0.17238 0.79799 0.5318 0.0
C1045 C 0.18663 0.81074 0.52131 0.0
C1046 C 0.17119 0.79877 0.55397 0.0
C1047 C 0.15606 0.78608 0.56593 0.0
C1048 C 0.14939 0.76871 0.56292 0.0
C1049 C 0.13442 0.75699 0.57312 0.0
C1050 C 0.12606 0.76244 0.58685 0.0
C1051 C 0.13304 0.77978 0.59036 0.0
C1052 C 0.14783 0.79147 0.57996 0.0
C1053 C 0.21 0.84104 0.56654 0.0
C1054 C 0.20373 0.84853 0.58044 0.0
C1055 C 0.21478 0.86325 0.59131 0.0
C1056 C 0.23236 0.87091 0.5884 0.0
C1057 C 0.23872 0.86335 0.57473 0.0
C1058 C 0.22763 0.84842 0.56408 0.0
C1059 C 0.19792 0.82586 0.55427 0.0
C1060 C 0.18419 0.81252 0.56491 0.0
C1061 C 0.19915 0.82489 0.53212 0.0
C1062 C 0.21198 0.83918 0.51936 0.0
C1063 C 0.21277 0.85479 0.51995 0.0
C1064 C 0.22353 0.86768 0.50625 0.0
C1065 C 0.23361 0.86516 0.49154 0.0
C1066 C 0.23314 0.84968 0.49142 0.0
C1067 C 0.22239 0.83679 0.50516 0.0
H1068 H 0.13436 0.34433 0.53119 0.0
H1069 H 0.11143 0.34143 0.50897 0.0
H1070 H 0.14483 0.39084 0.483 0.0
H1071 H 0.16782 0.39358 0.50521 0.0
H1072 H 0.18044 0.37236 0.50234 0.0
H1073 H 0.14906 0.34347 0.58252 0.0
H1074 H 0.12399 0.33851 0.60237 0.0
H1075 H 0.12704 0.38234 0.57394 0.0
H1076 H 0.15271 0.38788 0.55485 0.0
H1077 H 0.21474 0.38289 0.58248 0.0
H1078 H 0.23327 0.37492 0.60023 0.0
H1079 H 0.2148 0.33134 0.55958 0.0
H1080 H 0.19643 0.3394 0.54194 0.0
H1081 H 0.1799 0.36462 0.57958 0.0
H1082 H 0.22784 0.38602 0.53119 0.0
H1083 H 0.24793 0.38319 0.50823 0.0
H1084 H 0.20628 0.34635 0.47069 0.0
H1085 H 0.18632 0.34889 0.49378 0.0
C1086 C 0.15276 0.36922 0.51993 0.0
C1087 C 0.13663 0.3547 0.52108 0.0
C1088 C 0.12352 0.35308 0.50839 0.0
C1089 C 0.12633 0.3659 0.49418 0.0
C1090 C 0.14234 0.38068 0.49363 0.0
C1091 C 0.15545 0.38229 0.50633 0.0
C1092 C 0.16715 0.36998 0.53137 0.0
C1093 C 0.18045 0.37088 0.51928 0.0
C1094 C 0.16698 0.3679 0.55346 0.0
C1095 C 0.15272 0.36594 0.56691 0.0
C1096 C 0.14464 0.35229 0.58089 0.0
C1097 C 0.13028 0.34941 0.59219 0.0
C1098 C 0.12359 0.35999 0.58952 0.0
C1099 C 0.13192 0.37394 0.57608 0.0
C1100 C 0.14651 0.37704 0.56512 0.0
C1101 C 0.20441 0.36187 0.56072 0.0
C1102 C 0.21478 0.37168 0.57737 0.0
C1103 C 0.22531 0.36709 0.58751 0.0
C1104 C 0.22556 0.35255 0.58121 0.0
C1105 C 0.21515 0.34278 0.56452 0.0
C1106 C 0.20462 0.34735 0.55445 0.0
C1107 C 0.1928 0.36633 0.55041 0.0
C1108 C 0.18008 0.3665 0.56272 0.0
C1109 C 0.19307 0.36867 0.52839 0.0
C1110 C 0.20554 0.36763 0.51428 0.0
C1111 C 0.22304 0.37727 0.51809 0.0
C1112 C 0.2345 0.37566 0.50497 0.0
C1113 C 0.22865 0.3646 0.48764 0.0
C1114 C 0.21117 0.35514 0.48375 0.0
C1115 C 0.19975 0.35661 0.49694 0.0
C1116 C 0.97917 0.3676 0.07957 0.0
C1117 C -0.00559 0.37451 0.06815 0.0
C1118 C 0.97666 0.37705 0.09511 0.0
C1119 C 0.98967 0.39382 0.09922 0.0
C1120 C 0.00522 0.40072 0.08809 0.0
C1121 C 0.00741 0.39097 0.07274 0.0
C1122 C 0.95996 0.36925 0.10677 0.0
C1123 C 0.01939 0.41856 0.09199 0.0
C1124 C 0.97866 0.42539 0.12156 0.0
C1125 C 0.98376 0.42666 0.14258 0.0
C1126 C 0.98016 0.41445 0.10742 0.0
C1127 C 0.98685 0.40449 0.11448 0.0
C1128 C 0.99163 0.4054 0.13581 0.0
C1129 C 0.99007 0.41652 0.1496 0.0
C1130 C 0.97503 0.41393 0.08476 0.0
C1131 C -0.00132 0.39487 0.14396 0.0
H1132 H 0.96909 0.35487 0.07615 0.0
H1133 H 0.01924 0.3964 0.06403 0.0
H1134 H 0.96213 0.37029 0.12401 0.0
H1135 H 0.95333 0.37616 0.10304 0.0
H1136 H 0.95153 0.35576 0.10262 0.0
H1137 H 0.0309 0.42183 0.08253 0.0
H1138 H 0.01511 0.42751 0.088 0.0
H1139 H 0.02283 0.42039 0.1089 0.0
H1140 H 0.97396 0.43334 0.11599 0.0
H1141 H -0.00617 0.41732 0.1659 0.0
H1142 H 0.96574 0.4008 0.08005 0.0
H1143 H 0.98628 0.41837 0.07435 0.0
H1144 H 0.96935 0.4219 0.08201 0.0
H1145 H 0.98988 0.38137 0.14036 0.0
H1146 H 0.00088 0.39633 0.16122 0.0
H1147 H 0.01088 0.39857 0.13593 0.0
C1148 C 0.6187 0.61263 0.07396 0.0
C1149 C 0.60914 0.60828 0.05548 0.0
C1150 C 0.61301 0.60178 0.09142 0.0
C1151 C 0.59773 0.58605 0.08997 0.0
C1152 C 0.58856 0.58129 0.07087 0.0
C1153 C 0.59422 0.5926 0.05399 0.0
C1154 C 0.62286 0.60751 0.1117 0.0
C1155 C 0.57249 0.56442 0.06843 0.0
C1156 C 0.5864 0.55094 0.12925 0.0
C1157 C 0.57336 0.55106 0.14094 0.0
C1158 C 0.59482 0.56255 0.11296 0.0
C1159 C 0.59055 0.57497 0.10871 0.0
C1160 C 0.57823 0.57588 0.12128 0.0
C1161 C 0.56959 0.56378 0.13694 0.0
C1162 C 0.60766 0.56096 0.09963 0.0
C1163 C 0.57361 0.58923 0.1176 0.0
H1164 H 0.63017 0.62485 0.07511 0.0
H1165 H 0.58691 0.58922 0.03958 0.0
H1166 H 0.61523 0.60948 0.12383 0.0
H1167 H 0.62533 0.59772 0.11776 0.0
H1168 H 0.63514 0.61945 0.10977 0.0
H1169 H 0.56786 0.56198 0.05194 0.0
H1170 H 0.57461 0.55414 0.07346 0.0
H1171 H 0.56241 0.56395 0.07869 0.0
H1172 H 0.58982 0.54154 0.13248 0.0
H1173 H 0.55942 0.56398 0.14546 0.0
H1174 H 0.61966 0.57324 0.0986 0.0
H1175 H 0.60276 0.55726 0.08337 0.0
H1176 H 0.61046 0.55141 0.10591 0.0
H1177 H 0.5852 0.60184 0.11634 0.0
H1178 H 0.56547 0.58959 0.1304 0.0
H1179 H 0.56668 0.58668 0.10252 0.0
C1180 C 0.3876 0.01301 0.06443 0.0
C1181 C 0.38251 -0.00242 0.05431 0.0
C1182 C 0.39911 0.01853 0.08125 0.0
C1183 C 0.40564 0.00837 0.08806 0.0
C1184 C 0.40045 0.99275 0.07801 0.0
C1185 C 0.38899 0.98756 0.0613 0.0
C1186 C 0.40437 0.03525 0.09161 0.0
C1187 C 0.40711 0.98152 0.08483 0.0
C1188 C 0.44726 0.02542 0.11682 0.0
C1189 C 0.4417 0.01945 0.13729 0.0
C1190 C 0.43568 0.0228 0.10085 0.0
C1191 C 0.41811 0.01397 0.10548 0.0
C1192 C 0.41249 0.00882 0.12639 0.0
C1193 C 0.42436 0.01162 0.14205 0.0
C1194 C 0.44219 0.02852 0.07875 0.0
C1195 C 0.39387 -0.00052 0.13198 0.0
H1196 H 0.38267 0.02084 0.05916 0.0
H1197 H 0.38514 0.97561 0.05366 0.0
H1198 H 0.40154 0.03348 0.10873 0.0
H1199 H 0.41825 0.04378 0.08988 0.0
H1200 H 0.39786 0.04149 0.08476 0.0
H1201 H 0.40166 0.96966 0.07552 0.0
H1202 H 0.4211 0.98829 0.0831 0.0
H1203 H 0.40413 0.97823 0.10171 0.0
H1204 H 0.46062 0.03134 0.11296 0.0
H1205 H 0.42002 0.00723 0.15794 0.0
H1206 H 0.43623 0.03525 0.07184 0.0
H1207 H 0.43876 0.01736 0.06867 0.0
H1208 H 0.45617 0.03693 0.07825 0.0
H1209 H 0.3876 0.00606 0.12551 0.0
H1210 H 0.39171 -0.00186 0.14928 0.0
H1211 H 0.38767 0.9867 0.12485 0.0
C1212 C 0.38682 0.00072 0.93903 0.0
C1213 C 0.37165 0.98734 0.94699 0.0
C1214 C 0.39604 -0.00198 0.92337 0.0
C1215 C 0.39002 0.9815 0.91565 0.0
C1216 C 0.37444 0.96801 0.92313 0.0
C1217 C 0.36538 0.97111 0.93867 0.0
C1218 C 0.41254 0.01275 0.91562 0.0
C1219 C 0.36769 0.95022 0.91535 0.0
C1220 C 0.41038 0.97712 0.86552 0.0
C1221 C 0.42303 0.97456 0.87374 0.0
C1222 C 0.39924 0.97905 0.87896 0.0
C1223 C 0.40075 0.97821 0.90103 0.0
C1224 C 0.41313 0.97503 0.90932 0.0
C1225 C 0.42418 0.97332 0.89556 0.0
C1226 C 0.38626 0.98256 0.8696 0.0
C1227 C 0.41501 0.97385 0.93275 0.0
H1228 H 0.39163 0.01332 0.94528 0.0
H1229 H 0.35364 0.96072 0.94476 0.0
H1230 H 0.42323 0.01113 0.92042 0.0
H1231 H 0.41266 0.01328 0.89817 0.0
H1232 H 0.41475 0.02496 0.92197 0.0
H1233 H 0.35478 0.94139 0.92152 0.0
H1234 H 0.36733 0.94981 0.8979 0.0
H1235 H 0.37629 0.94572 0.92034 0.0
H1236 H 0.40958 0.97817 0.84863 0.0
H1237 H 0.43384 0.97112 0.90187 0.0
H1238 H 0.38911 -0.00466 0.87431 0.0
H1239 H 0.37344 0.97348 0.87574 0.0
H1240 H 0.38604 0.98179 0.85213 0.0
H1241 H 0.41878 0.98614 0.94033 0.0
H1242 H 0.42464 0.97037 0.93656 0.0
H1243 H 0.40271 0.96435 0.9398 0.0
C1244 C 0.00717 0.40252 0.96645 0.0
C1245 C 0.0058 0.38684 0.96324 0.0
C1246 C 0.01075 0.41365 0.94967 0.0
C1247 C 0.0124 0.4087 0.92905 0.0
C1248 C 0.0117 0.39312 0.92585 0.0
C1249 C 0.00863 0.38243 0.94311 0.0
C1250 C 0.01189 0.43034 0.95389 0.0
C1251 C 0.01299 0.38722 0.90407 0.0
C1252 C -0.00183 0.42812 0.88756 0.0
C1253 C 0.01364 0.44115 0.87956 0.0
C1254 C -0.00235 0.41692 0.90277 0.0
C1255 C 0.01297 0.41905 0.91082 0.0
C1256 C 0.02863 0.4319 0.90264 0.0
C1257 C 0.02878 0.44264 0.88691 0.0
C1258 C 0.98064 0.40318 0.9108 0.0
C1259 C 0.04524 0.43476 0.9111 0.0
H1260 H 0.00507 0.40593 0.98209 0.0
H1261 H 0.00738 0.3702 0.94065 0.0
H1262 H 0.02324 0.4407 0.94605 0.0
H1263 H 0.00061 0.43014 0.9473 0.0
H1264 H 0.0125 0.43319 0.971 0.0
H1265 H 0.01427 0.37587 0.90449 0.0
H1266 H 0.00142 0.38409 0.89507 0.0
H1267 H 0.02395 0.39733 0.89537 0.0
H1268 H 0.98636 0.42693 0.88249 0.0
H1269 H 0.04082 0.45236 0.88062 0.0
H1270 H 0.97881 0.40591 0.92733 0.0
H1271 H 0.9801 0.39087 0.91065 0.0
H1272 H 0.96998 0.402 0.90127 0.0
H1273 H 0.04658 0.43888 0.92779 0.0
H1274 H 0.05629 0.44448 0.90206 0.0
H1275 H 0.0455 0.42287 0.91075 0.0
C1276 C 0.59904 0.60355 0.94573 0.0
C1277 C 0.60389 0.62026 0.95061 0.0
C1278 C 0.58701 0.59461 0.93007 0.0
C1279 C 0.57973 0.6026 0.91892 0.0
C1280 C 0.58473 0.61954 0.92357 0.0
C1281 C 0.59672 0.62816 0.93941 0.0
C1282 C 0.58195 0.57653 0.92561 0.0
C1283 C 0.57731 0.62849 0.91191 0.0
C1284 C 0.55937 0.5825 0.86672 0.0
C1285 C 0.54223 0.57276 0.87244 0.0
C1286 C 0.57166 0.5927 0.88154 0.0
C1287 C 0.5667 0.59307 0.90261 0.0
C1288 C 0.54936 0.58364 0.90834 0.0
C1289 C 0.53732 0.57362 0.89316 0.0
C1290 C 0.59001 0.60272 0.87479 0.0
C1291 C 0.54359 0.58365 0.93068 0.0
H1292 H 0.60451 0.59736 0.95432 0.0
H1293 H 0.60045 0.64109 0.94307 0.0
H1294 H 0.56816 0.56818 0.92843 0.0
H1295 H 0.58443 0.57506 0.90883 0.0
H1296 H 0.58889 0.5722 0.93558 0.0
H1297 H 0.58286 0.64181 0.91704 0.0
H1298 H 0.57949 0.62825 0.89474 0.0
H1299 H 0.56341 0.62188 0.91448 0.0
H1300 H 0.56317 0.58201 0.85065 0.0
H1301 H 0.52411 0.56597 0.89771 0.0
H1302 H 0.59739 0.59801 0.88307 0.0
H1303 H 0.5955 0.61616 0.87921 0.0
H1304 H 0.59164 0.6019 0.85755 0.0
H1305 H 0.54899 0.57808 0.94129 0.0
H1306 H 0.52957 0.57636 0.9323 0.0
H1307 H 0.54828 0.59674 0.93612 0.0
C1308 C 0.00337 0.61596 0.95113 0.0
C1309 C 0.98808 0.60611 0.96209 0.0
C1310 C 0.00817 0.60911 0.93447 0.0
C1311 C -0.00258 0.59205 0.92863 0.0
C1312 C 0.98187 0.58215 0.93941 0.0
C1313 C 0.97741 0.58928 0.95598 0.0
C1314 C 0.02485 0.62004 0.92333 0.0
C1315 C 0.97002 0.56391 0.93362 0.0
C1316 C 0.00031 0.57469 0.87538 0.0
C1317 C 0.00834 0.56569 0.88062 0.0
C1318 C -0.00268 0.58397 0.89067 0.0
C1319 C 0.0025 0.58426 0.91168 0.0
C1320 C 0.01128 0.57583 0.91686 0.0
C1321 C 0.01407 0.56663 0.90128 0.0
C1322 C 0.98799 0.59286 0.88452 0.0
C1323 C 0.01701 0.57583 0.93909 0.0
H1324 H 0.0117 0.62897 0.95571 0.0
H1325 H 0.96554 0.58156 0.96425 0.0
H1326 H 0.03325 0.61478 0.92553 0.0
H1327 H 0.02278 0.62013 0.90616 0.0
H1328 H 0.03147 0.63323 0.92923 0.0
H1329 H 0.9582 0.55806 0.9432 0.0
H1330 H 0.96656 0.56286 0.91675 0.0
H1331 H 0.97645 0.55659 0.93589 0.0
H1332 H -0.00391 0.57423 0.85937 0.0
H1333 H 0.0201 0.55956 0.90553 0.0
H1334 H -0.00503 0.60614 0.89 0.0
H1335 H 0.97536 0.58666 0.89226 0.0
H1336 H 0.98619 0.59269 0.86722 0.0
H1337 H 0.02431 0.58889 0.94528 0.0
H1338 H 0.02499 0.56998 0.94012 0.0
H1339 H 0.00578 0.56875 0.94946 0.0
C1340 C 0.36298 0.39203 0.93969 0.0
C1341 C 0.37189 0.38573 0.95046 0.0
C1342 C 0.37053 0.40338 0.92296 0.0
C1343 C 0.38739 0.40858 0.91699 0.0
C1344 C 0.39634 0.40205 0.92758 0.0
C1345 C 0.38846 0.39066 0.94416 0.0
C1346 C 0.36058 0.41001 0.91193 0.0
C1347 C 0.41437 0.40737 0.92167 0.0
C1348 C 0.40514 0.4284 0.86375 0.0
C1349 C 0.41481 0.44552 0.86909 0.0
C1350 C 0.39566 0.41624 0.87906 0.0
C1351 C 0.39598 0.42135 0.9002 0.0
C1352 C 0.40527 0.43867 0.90555 0.0
C1353 C 0.41455 0.45055 0.88991 0.0
C1354 C 0.38575 0.3979 0.87275 0.0
C1355 C 0.40595 0.44459 0.92794 0.0
H1356 H 0.35014 0.38821 0.94443 0.0
H1357 H 0.39539 0.38582 0.9524 0.0
H1358 H 0.36682 0.42383 0.91429 0.0
H1359 H 0.36035 0.40772 0.89473 0.0
H1360 H 0.34732 0.40407 0.9178 0.0
H1361 H 0.4194 0.40078 0.9311 0.0
H1362 H 0.41515 0.40477 0.90475 0.0
H1363 H 0.42266 0.42114 0.9241 0.0
H1364 H 0.40519 0.4245 0.84761 0.0
H1365 H 0.42219 0.46374 0.89417 0.0
H1366 H 0.37242 0.39212 0.87821 0.0
H1367 H 0.39122 0.39097 0.88043 0.0
H1368 H 0.38585 0.39613 0.85544 0.0
H1369 H 0.39296 0.43964 0.93425 0.0
H1370 H 0.41298 0.45855 0.92926 0.0
H1371 H 0.41225 0.43965 0.93805 0.0
C1372 C 0.6041 0.00479 0.9482 0.0
C1373 C 0.61019 0.99455 0.95567 0.0
C1374 C 0.59262 -0.00041 0.9315 0.0
C1375 C 0.58699 0.98373 0.92192 0.0
C1376 C 0.59322 0.97339 0.9291 0.0
C1377 C 0.60477 0.97892 0.94592 0.0
C1378 C 0.58632 0.01104 0.92432 0.0
C1379 C 0.58748 0.95639 0.91924 0.0
C1380 C 0.54481 0.96679 0.89447 0.0
C1381 C 0.54991 0.97205 0.87366 0.0
C1382 C 0.5567 0.96961 0.91012 0.0
C1383 C 0.57414 0.97795 0.90487 0.0
C1384 C 0.57931 0.98251 0.88369 0.0
C1385 C 0.56713 0.97951 0.86834 0.0
C1386 C 0.55065 0.96457 0.93251 0.0
C1387 C 0.59778 0.99135 0.87744 0.0
H1388 H 0.60823 0.01692 0.9555 0.0
H1389 H 0.6094 0.97093 0.95154 0.0
H1390 H 0.589 0.0138 0.90729 0.0
H1391 H 0.57239 0.00467 0.9265 0.0
H1392 H 0.59227 0.02316 0.9331 0.0
H1393 H 0.59407 0.95019 0.926 0.0
H1394 H 0.57364 0.94805 0.92163 0.0
H1395 H 0.58982 0.95773 0.902 0.0
H1396 H 0.53157 0.96118 0.89881 0.0
H1397 H 0.57115 0.98336 0.85222 0.0
H1398 H 0.55467 0.97603 0.94222 0.0
H1399 H 0.55642 0.95765 0.93945 0.0
H1400 H 0.53664 0.95653 0.93359 0.0
H1401 H 0.6044 0.00429 0.88409 0.0
H1402 H 0.59955 0.99223 0.86007 0.0
H1403 H 0.60394 0.98467 0.88395 0.0
C1404 C 0.62779 0.022 0.0748 0.0
C1405 C 0.61986 0.00694 0.0632 0.0
C1406 C 0.61891 0.02523 0.09054 0.0
C1407 C 0.60172 0.01315 0.09464 0.0
C1408 C 0.59374 -0.00216 0.08314 0.0
C1409 C 0.60292 0.99491 0.06763 0.0
C1410 C 0.62786 0.04163 0.1026 0.0
C1411 C 0.5754 0.98465 0.08698 0.0
C1412 C 0.57959 0.01242 0.14576 0.0
C1413 C 0.56995 0.01953 0.13953 0.0
C1414 C 0.59056 0.01091 0.13155 0.0
C1415 C 0.59181 0.01653 0.11057 0.0
C1416 C 0.58255 0.02425 0.1044 0.0
C1417 C 0.57176 0.0257 0.11897 0.0
C1418 C 0.60036 0.00276 0.13879 0.0
C1419 C 0.58344 0.03031 0.08213 0.0
H1420 H 0.64089 0.03133 0.07149 0.0
H1421 H 0.5967 0.98323 0.05876 0.0
H1422 H 0.62158 0.04901 0.0997 0.0
H1423 H 0.62701 0.03912 0.11976 0.0
H1424 H 0.64144 0.04942 0.09809 0.0
H1425 H 0.57115 0.97333 0.07688 0.0
H1426 H 0.57347 0.98067 0.10371 0.0
H1427 H 0.56721 0.99003 0.08385 0.0
H1428 H 0.57839 0.00783 0.16172 0.0
H1429 H 0.56421 0.03105 0.11401 0.0
H1430 H 0.61398 0.01083 0.13477 0.0
H1431 H 0.59568 0.99056 0.1305 0.0
H1432 H 0.59912 0.0004 0.15602 0.0
H1433 H 0.59682 0.0388 0.07734 0.0
H1434 H 0.57641 0.0371 0.08026 0.0
H1435 H 0.578 0.01938 0.07119 0.0
C1436 C 0.96872 0.60359 0.08201 0.0
C1437 C 0.98356 0.61135 0.06975 0.0
C1438 C 0.96662 0.59231 0.09812 0.0
C1439 C 0.97966 0.58872 0.102 0.0
C1440 C -0.00516 0.59688 0.09005 0.0
C1441 C -0.0034 0.6081 0.0741 0.0
C1442 C 0.9503 0.58388 0.11061 0.0
C1443 C 0.00904 0.59341 0.09372 0.0
C1444 C 0.98205 0.56853 0.15276 0.0
C1445 C 0.97583 0.55182 0.1463 0.0
C1446 C 0.98278 0.58059 0.13873 0.0
C1447 C 0.97722 0.57581 0.11775 0.0
C1448 C 0.9704 0.55884 0.11136 0.0
C1449 C 0.96979 0.54706 0.12571 0.0
C1450 C 0.99002 0.59854 0.14615 0.0
C1451 C 0.96439 0.55327 0.0891 0.0
H1452 H 0.95861 0.60608 0.07876 0.0
H1453 H 0.00814 0.6141 0.06477 0.0
H1454 H 0.94339 0.57013 0.10747 0.0
H1455 H 0.95301 0.58566 0.12773 0.0
H1456 H 0.94189 0.58887 0.10663 0.0
H1457 H 0.0203 0.60134 0.08368 0.0
H1458 H 0.01297 0.59574 0.11046 0.0
H1459 H 0.00459 0.57998 0.09032 0.0
H1460 H 0.98653 0.57222 0.16874 0.0
H1461 H 0.96517 0.53422 0.12053 0.0
H1462 H 0.98122 0.60308 0.14243 0.0
H1463 H 0.0021 0.60682 0.13772 0.0
H1464 H -0.00749 0.59991 0.16335 0.0
H1465 H 0.95514 0.55706 0.0846 0.0
H1466 H 0.95837 0.53942 0.08704 0.0
H1467 H 0.97529 0.55954 0.07804 0.0
C1468 C 0.4033 0.40048 0.05469 0.0
C1469 C 0.38789 0.38531 0.05671 0.0
C1470 C 0.41491 0.40678 0.0713 0.0
C1471 C 0.41069 0.398 0.09068 0.0
C1472 C 0.3952 0.38252 0.09269 0.0
C1473 C 0.38408 0.37619 0.0755 0.0
C1474 C 0.43151 0.42305 0.06827 0.0
C1475 C 0.39002 0.37307 0.11328 0.0
C1476 C 0.44666 0.41066 0.12931 0.0
C1477 C 0.44623 0.42348 0.14093 0.0
C1478 C 0.43496 0.40196 0.1132 0.0
C1479 C 0.42208 0.4057 0.10907 0.0
C1480 C 0.4209 0.41785 0.12152 0.0
C1481 C 0.43312 0.42678 0.13698 0.0
C1482 C 0.43686 0.38934 0.09997 0.0
C1483 C 0.40708 0.4219 0.11798 0.0
H1484 H 0.40626 0.40745 0.04006 0.0
H1485 H 0.37205 0.36453 0.07707 0.0
H1486 H 0.43177 0.43305 0.07836 0.0
H1487 H 0.44223 0.42147 0.07311 0.0
H1488 H 0.43356 0.4274 0.05166 0.0
H1489 H 0.37813 0.36069 0.11187 0.0
H1490 H 0.40017 0.37099 0.11911 0.0
H1491 H 0.38809 0.38072 0.12533 0.0
H1492 H 0.45637 0.40758 0.13249 0.0
H1493 H 0.43266 0.43679 0.14543 0.0
H1494 H 0.44005 0.39396 0.08353 0.0
H1495 H 0.42475 0.37713 0.0995 0.0
H1496 H 0.44693 0.38715 0.10595 0.0
H1497 H 0.40924 0.42852 0.10274 0.0
H1498 H 0.40663 0.43004 0.13065 0.0
H1499 H 0.39454 0.41014 0.11714 0.0
C1500 C 0.66665 0.7244 0.4074 0.0
C1501 C 0.65464 0.7082 0.40038 0.0
C1502 C 0.66259 0.73258 0.42308 0.0
C1503 C 0.64612 0.72435 0.43203 0.0
C1504 C 0.63407 0.70783 0.42542 0.0
C1505 C 0.63847 0.69995 0.40965 0.0
C1506 C 0.67581 0.7502 0.4297 0.0
C1507 C 0.6164 0.69864 0.43465 0.0
C1508 C 0.64072 0.74241 0.48356 0.0
C1509 C 0.63454 0.75267 0.47652 0.0
C1510 C 0.64414 0.73276 0.46933 0.0
C1511 C 0.64136 0.73343 0.44755 0.0
C1512 C 0.63478 0.74347 0.44042 0.0
C1513 C 0.63145 0.75295 0.45498 0.0
C1514 C 0.65105 0.72212 0.47754 0.0
C1515 C 0.63171 0.74459 0.41731 0.0
H1516 H 0.67919 0.73085 0.40037 0.0
H1517 H 0.62913 0.68741 0.40434 0.0
H1518 H 0.67144 0.7591 0.42582 0.0
H1519 H 0.67765 0.75076 0.44699 0.0
H1520 H 0.68822 0.75457 0.42183 0.0
H1521 H 0.60884 0.6855 0.42871 0.0
H1522 H 0.61698 0.69836 0.45207 0.0
H1523 H 0.6097 0.70544 0.43067 0.0
H1524 H 0.64295 0.74198 0.50022 0.0
H1525 H 0.6269 0.76102 0.44938 0.0
H1526 H 0.66399 0.72683 0.47117 0.0
H1527 H 0.64307 0.7089 0.47212 0.0
H1528 H 0.65162 0.72225 0.49501 0.0
H1529 H 0.64389 0.75023 0.40855 0.0
H1530 H 0.62579 0.75233 0.41445 0.0
H1531 H 0.62336 0.73181 0.41072 0.0
C1532 C 0.28523 0.93476 0.40144 0.0
C1533 C 0.27371 0.93905 0.39338 0.0
C1534 C 0.28058 0.92315 0.418 0.0
C1535 C 0.26404 0.91566 0.42664 0.0
C1536 C 0.25244 0.92008 0.41872 0.0
C1537 C 0.2574 0.93169 0.40223 0.0
C1538 C 0.29328 0.91873 0.42608 0.0
C1539 C 0.23466 0.91238 0.42751 0.0
C1540 C 0.24287 0.87339 0.45418 0.0
C1541 C 0.24341 0.87814 0.47532 0.0
C1542 C 0.25033 0.88552 0.43825 0.0
C1543 C 0.2585 0.90283 0.44358 0.0
C1544 C 0.25983 0.90772 0.46499 0.0
C1545 C 0.25224 0.89532 0.48061 0.0
C1546 C 0.24862 0.87977 0.41561 0.0
C1547 C 0.26854 0.92606 0.47131 0.0
H1548 H 0.29786 0.94039 0.39474 0.0
H1549 H 0.24839 0.93492 0.3962 0.0
H1550 H 0.295 0.92108 0.44329 0.0
H1551 H 0.28848 0.90513 0.42353 0.0
H1552 H 0.30581 0.92609 0.41818 0.0
H1553 H 0.22729 0.91741 0.41986 0.0
H1554 H 0.22781 0.89851 0.42529 0.0
H1555 H 0.2351 0.91484 0.44468 0.0
H1556 H 0.23591 0.86016 0.44992 0.0
H1557 H 0.25291 0.89906 0.49695 0.0
H1558 H 0.26108 0.88643 0.40749 0.0
H1559 H 0.24002 0.88292 0.40721 0.0
H1560 H 0.24344 0.86598 0.41427 0.0
H1561 H 0.28121 0.93318 0.46375 0.0
H1562 H 0.27006 0.92779 0.48864 0.0
H1563 H 0.261 0.93163 0.4658 0.0
C1564 C 0.05725 0.32487 0.40668 0.0
C1565 C 0.05074 0.33452 0.39851 0.0
C1566 C 0.069 0.33097 0.42313 0.0
C1567 C 0.07439 0.34713 0.43168 0.0
C1568 C 0.06763 0.35682 0.42387 0.0
C1569 C 0.05587 0.3504 0.40735 0.0
C1570 C 0.07592 0.32024 0.43105 0.0
C1571 C 0.07309 0.37409 0.43266 0.0
C1572 C 0.09597 0.35515 0.48471 0.0
C1573 C 0.11309 0.36311 0.4787 0.0
C1574 C 0.08321 0.35059 0.46967 0.0
C1575 C 0.0877 0.35405 0.44814 0.0
C1576 C 0.10499 0.3628 0.44211 0.0
C1577 C 0.11747 0.3672 0.45746 0.0
C1578 C 0.06491 0.34138 0.4767 0.0
C1579 C 0.1103 0.3667 0.41931 0.0
H1580 H 0.05333 0.31257 0.40004 0.0
H1581 H 0.05089 0.35794 0.40119 0.0
H1582 H 0.08979 0.32678 0.42826 0.0
H1583 H 0.0738 0.31831 0.44828 0.0
H1584 H 0.06997 0.30772 0.42321 0.0
H1585 H 0.06592 0.37961 0.4257 0.0
H1586 H 0.0713 0.37344 0.44999 0.0
H1587 H 0.08678 0.38269 0.4295 0.0
H1588 H 0.09254 0.35216 0.50115 0.0
H1589 H 0.13064 0.37315 0.45265 0.0
H1590 H 0.05859 0.32818 0.47095 0.0
H1591 H 0.05811 0.3473 0.46983 0.0
H1592 H 0.06362 0.34123 0.49411 0.0
H1593 H 0.10623 0.35479 0.41056 0.0
H1594 H 0.12423 0.37493 0.41746 0.0
H1595 H 0.10404 0.37297 0.4119 0.0
C1596 C 0.02889 0.30577 0.27477 0.0
C1597 C 0.0391 0.31795 0.28969 0.0
C1598 C 0.03616 0.30179 0.2578 0.0
C1599 C 0.05402 0.30993 0.25606 0.0
C1600 C 0.06435 0.32216 0.27118 0.0
C1601 C 0.05676 0.32615 0.28769 0.0
C1602 C 0.02478 0.28896 0.2417 0.0
C1603 C 0.08345 0.33091 0.27007 0.0
C1604 C 0.07576 0.29049 0.22606 0.0
C1605 C 0.082 0.30102 0.20845 0.0
C1606 C 0.06594 0.29275 0.24131 0.0
C1607 C 0.06208 0.30567 0.23862 0.0
C1608 C 0.06747 0.31563 0.22016 0.0
C1609 C 0.07755 0.3133 0.20538 0.0
C1610 C 0.06066 0.28206 0.26093 0.0
C1611 C 0.06329 0.32928 0.21651 0.0
H1612 H 0.01522 0.2995 0.27623 0.0
H1613 H 0.06469 0.3355 0.29926 0.0
H1614 H 0.02785 0.29465 0.22576 0.0
H1615 H 0.02698 0.27818 0.24137 0.0
H1616 H 0.01115 0.28409 0.24502 0.0
H1617 H 0.08963 0.33985 0.28334 0.0
H1618 H 0.08752 0.32145 0.2703 0.0
H1619 H 0.08807 0.33796 0.25508 0.0
H1620 H 0.07936 0.28109 0.22849 0.0
H1621 H 0.08233 0.32136 0.19164 0.0
H1622 H 0.04693 0.27662 0.26404 0.0
H1623 H 0.06756 0.29004 0.27468 0.0
H1624 H 0.06336 0.27162 0.25976 0.0
H1625 H 0.04962 0.32439 0.2194 0.0
H1626 H 0.06652 0.33436 0.20026 0.0
H1627 H 0.07048 0.33978 0.22775 0.0
C1628 C 0.68523 0.7287 0.28316 0.0
C1629 C 0.66958 0.72323 0.29319 0.0
C1630 C 0.69087 0.74063 0.26681 0.0
C1631 C 0.68062 0.7472 0.26037 0.0
C1632 C 0.66478 0.74163 0.27032 0.0
C1633 C 0.65948 0.72976 0.28655 0.0
C1634 C 0.70783 0.74629 0.25654 0.0
C1635 C 0.65344 0.7483 0.26394 0.0
C1636 C 0.69813 0.78948 0.23338 0.0
C1637 C 0.69262 0.78461 0.2126 0.0
C1638 C 0.69513 0.77746 0.24887 0.0
C1639 C 0.68637 0.76014 0.24349 0.0
C1640 C 0.68151 0.7552 0.22234 0.0
C1641 C 0.68468 0.76748 0.20716 0.0
C1642 C 0.7005 0.78327 0.27123 0.0
C1643 C 0.67222 0.73687 0.21594 0.0
H1644 H 0.69312 0.72375 0.28815 0.0
H1645 H 0.64735 0.72563 0.2941 0.0
H1646 H 0.70624 0.74397 0.23932 0.0
H1647 H 0.7163 0.76004 0.25886 0.0
H1648 H 0.71411 0.73969 0.26301 0.0
H1649 H 0.64141 0.74252 0.27309 0.0
H1650 H 0.66013 0.76215 0.26629 0.0
H1651 H 0.65035 0.74582 0.24697 0.0
H1652 H 0.70411 0.80265 0.23779 0.0
H1653 H 0.68064 0.76365 0.19106 0.0
H1654 H 0.70737 0.77731 0.27778 0.0
H1655 H 0.68911 0.77934 0.28122 0.0
H1656 H 0.70876 0.79717 0.2724 0.0
H1657 H 0.67889 0.73052 0.22189 0.0
H1658 H 0.67095 0.73522 0.19858 0.0
H1659 H 0.65935 0.73041 0.22305 0.0
C1660 C 0.25972 0.95985 0.27636 0.0
C1661 C 0.26657 0.95127 0.28668 0.0
C1662 C 0.24773 0.95202 0.26028 0.0
C1663 C 0.24244 0.93522 0.25447 0.0
C1664 C 0.24939 0.92653 0.26475 0.0
C1665 C 0.26139 0.93468 0.28069 0.0
C1666 C 0.24065 0.96169 0.2496 0.0
C1667 C 0.24403 0.90857 0.25904 0.0
C1668 C 0.20005 0.90782 0.22786 0.0
C1669 C 0.20499 0.90768 0.20694 0.0
C1670 C 0.21208 0.91711 0.2434 0.0
C1671 C 0.22946 0.92653 0.23785 0.0
C1672 C 0.23447 0.9269 0.21662 0.0
C1673 C 0.22218 0.91743 0.20143 0.0
C1674 C 0.20624 0.91634 0.26588 0.0
C1675 C 0.25287 0.93692 0.21007 0.0
H1676 H 0.26369 0.97269 0.28088 0.0
H1677 H 0.26663 0.92797 0.28858 0.0
H1678 H 0.24294 0.96214 0.23238 0.0
H1679 H 0.22674 0.95518 0.25205 0.0
H1680 H 0.24636 0.9748 0.25564 0.0
H1681 H 0.25073 0.90364 0.26844 0.0
H1682 H 0.23019 0.90032 0.26161 0.0
H1683 H 0.24656 0.90772 0.2421 0.0
H1684 H 0.18682 0.90015 0.23226 0.0
H1685 H 0.22602 0.91751 0.18522 0.0
H1686 H 0.21115 0.92925 0.2722 0.0
H1687 H 0.21139 0.91017 0.27586 0.0
H1688 H 0.19221 0.90924 0.26738 0.0
H1689 H 0.25854 0.95019 0.21536 0.0
H1690 H 0.25456 0.93674 0.19275 0.0
H1691 H 0.26003 0.93169 0.21774 0.0
C1692 C 0.65383 0.92559 0.28932 0.0
C1693 C 0.66325 0.94231 0.29646 0.0
C1694 C 0.65971 0.91978 0.27273 0.0
C1695 C 0.67544 0.93092 0.26302 0.0
C1696 C 0.685 0.94783 0.27001 0.0
C1697 C 0.67877 0.95335 0.28664 0.0
C1698 C 0.64909 0.90165 0.26568 0.0
C1699 C 0.70186 0.96003 0.26006 0.0
C1700 C 0.69514 0.90865 0.23475 0.0
C1701 C 0.68984 0.90817 0.21396 0.0
C1702 C 0.69131 0.91681 0.2507 0.0
C1703 C 0.68185 0.92459 0.24579 0.0
C1704 C 0.67715 0.92484 0.22468 0.0
C1705 C 0.68122 0.91665 0.20901 0.0
C1706 C 0.6966 0.9163 0.27302 0.0
C1707 C 0.6671 0.93306 0.21881 0.0
H1708 H 0.6418 0.91696 0.29671 0.0
H1709 H 0.68615 0.96628 0.29204 0.0
H1710 H 0.6461 0.9011 0.2487 0.0
H1711 H 0.65631 0.89508 0.2677 0.0
H1712 H 0.63701 0.8947 0.27465 0.0
H1713 H 0.70758 0.97286 0.26702 0.0
H1714 H 0.7108 0.95539 0.26206 0.0
H1715 H 0.70031 0.96089 0.24289 0.0
H1716 H 0.70164 0.90199 0.23878 0.0
H1717 H 0.67733 0.91657 0.19292 0.0
H1718 H 0.68521 0.90811 0.2827 0.0
H1719 H 0.70285 0.92907 0.28015 0.0
H1720 H 0.70539 0.91136 0.27386 0.0
H1721 H 0.65422 0.92587 0.2258 0.0
H1722 H 0.66586 0.9336 0.20148 0.0
H1723 H 0.67317 0.94605 0.22526 0.0
C1724 C 0.058 0.72482 0.2807 0.0
C1725 C 0.04144 0.71967 0.28731 0.0
C1726 C 0.0656 0.73627 0.26409 0.0
C1727 C 0.05639 0.74266 0.25385 0.0
C1728 C 0.03955 0.73725 0.26015 0.0
C1729 C 0.03228 0.72582 0.27684 0.0
C1730 C 0.0836 0.74178 0.25779 0.0
C1731 C 0.02934 0.74377 0.24955 0.0
C1732 C 0.08219 0.78496 0.22696 0.0
C1733 C 0.08186 0.78019 0.20588 0.0
C1734 C 0.0737 0.77287 0.24267 0.0
C1735 C 0.06467 0.75558 0.23715 0.0
C1736 C 0.06397 0.75068 0.21584 0.0
C1737 C 0.07261 0.76306 0.20044 0.0
C1738 C 0.07477 0.77857 0.26525 0.0
C1739 C 0.05435 0.73237 0.20937 0.0
H1740 H 0.06513 0.72008 0.28869 0.0
H1741 H 0.01945 0.72184 0.28183 0.0
H1742 H 0.08425 0.7394 0.24076 0.0
H1743 H 0.09183 0.75554 0.26042 0.0
H1744 H 0.0888 0.73516 0.26683 0.0
H1745 H 0.01613 0.73769 0.25565 0.0
H1746 H 0.03547 0.75757 0.25206 0.0
H1747 H 0.02895 0.7416 0.23231 0.0
H1748 H 0.08954 0.79815 0.23131 0.0
H1749 H 0.07219 0.75934 0.18412 0.0
H1750 H 0.08121 0.77352 0.2749 0.0
H1751 H 0.06186 0.77356 0.27191 0.0
H1752 H 0.08181 0.79252 0.26679 0.0
H1753 H 0.05997 0.72556 0.21699 0.0
H1754 H 0.0545 0.7307 0.19204 0.0
H1755 H 0.04099 0.72638 0.21479 0.0
C1756 C 0.27265 0.31257 0.28357 0.0
C1757 C 0.27197 0.32276 0.29959 0.0
C1758 C 0.261 0.30689 0.26686 0.0
C1759 C 0.24824 0.31125 0.26649 0.0
C1760 C 0.24706 0.32085 0.2832 0.0
C1761 C 0.25902 0.32661 0.2994 0.0
C1762 C 0.26278 0.29687 0.24919 0.0
C1763 C 0.23345 0.32551 0.28368 0.0
C1764 C 0.22873 0.31627 0.21682 0.0
C1765 C 0.2126 0.30182 0.21733 0.0
C1766 C 0.24093 0.31887 0.23189 0.0
C1767 C 0.23674 0.3069 0.24812 0.0
C1768 C 0.22072 0.29186 0.24806 0.0
C1769 C 0.20885 0.28943 0.2325 0.0
C1770 C 0.25797 0.33492 0.23113 0.0
C1771 C 0.21567 0.27889 0.26521 0.0
H1772 H 0.28268 0.30962 0.28363 0.0
H1773 H 0.25831 0.33431 0.31189 0.0
H1774 H 0.25046 0.28529 0.24603 0.0
H1775 H 0.26664 0.30447 0.23455 0.0
H1776 H 0.27236 0.29325 0.2527 0.0
H1777 H 0.23347 0.33187 0.2986 0.0
H1778 H 0.23539 0.33408 0.2704 0.0
H1779 H 0.22078 0.31408 0.2817 0.0
H1780 H 0.23163 0.32576 0.20493 0.0
H1781 H 0.19631 0.2783 0.23291 0.0
H1782 H 0.26831 0.33214 0.23313 0.0
H1783 H 0.25886 0.34332 0.24428 0.0
H1784 H 0.26002 0.3418 0.21609 0.0
H1785 H 0.22586 0.276 0.26794 0.0
H1786 H 0.20377 0.267 0.26142 0.0
H1787 H 0.21373 0.28402 0.28016 0.0
C1788 C 0.29558 0.35992 0.40925 0.0
C1789 C 0.28882 0.34312 0.40282 0.0
C1790 C 0.28704 0.36438 0.42402 0.0
C1791 C 0.27145 0.35173 0.43265 0.0
C1792 C 0.26487 0.33469 0.42674 0.0
C1793 C 0.2736 0.3306 0.41184 0.0
C1794 C 0.29441 0.38269 0.42987 0.0
C1795 C 0.24834 0.32081 0.43571 0.0
C1796 C 0.25314 0.36006 0.48212 0.0
C1797 C 0.24058 0.36266 0.47365 0.0
C1798 C 0.26357 0.35683 0.46895 0.0
C1799 C 0.26144 0.35634 0.44684 0.0
C1800 C 0.24915 0.35953 0.43823 0.0
C1801 C 0.23884 0.36259 0.45174 0.0
C1802 C 0.27648 0.3534 0.47871 0.0
C1803 C 0.2466 0.3593 0.41473 0.0
H1804 H 0.30734 0.36966 0.40234 0.0
H1805 H 0.26836 0.31758 0.40704 0.0
H1806 H 0.28586 0.38712 0.42445 0.0
H1807 H 0.29542 0.38426 0.44723 0.0
H1808 H 0.30714 0.39086 0.42278 0.0
H1809 H 0.24551 0.30811 0.43052 0.0
H1810 H 0.24867 0.3213 0.45317 0.0
H1811 H 0.2378 0.32262 0.43069 0.0
H1812 H 0.25442 0.35998 0.49906 0.0
H1813 H 0.22927 0.36482 0.44516 0.0
H1814 H 0.2892 0.36182 0.47179 0.0
H1815 H 0.27313 0.34026 0.47521 0.0
H1816 H 0.27723 0.35521 0.49606 0.0
H1817 H 0.25877 0.36808 0.40681 0.0
H1818 H 0.23711 0.36289 0.41055 0.0
H1819 H 0.24228 0.3465 0.40841 0.0
C1820 C 0.66367 0.9412 0.40978 0.0
C1821 C 0.65082 0.94432 0.40385 0.0
C1822 C 0.66081 0.92929 0.42532 0.0
C1823 C 0.64473 0.92034 0.43521 0.0
C1824 C 0.6319 0.92387 0.42985 0.0
C1825 C 0.63509 0.93582 0.41419 0.0
C1826 C 0.67481 0.92585 0.43061 0.0
C1827 C 0.61462 0.91464 0.44015 0.0
C1828 C 0.63181 0.87709 0.45644 0.0
C1829 C 0.63525 0.8804 0.47797 0.0
C1830 C 0.63464 0.88995 0.44243 0.0
C1831 C 0.64104 0.90653 0.45014 0.0
C1832 C 0.6443 0.90994 0.47191 0.0
C1833 C 0.64141 0.89682 0.48557 0.0
C1834 C 0.63109 0.88585 0.4193 0.0
C1835 C 0.65102 0.92745 0.48069 0.0
H1836 H 0.67588 0.94777 0.40191 0.0
H1837 H 0.62512 0.93823 0.40975 0.0
H1838 H 0.6771 0.92704 0.44783 0.0
H1839 H 0.67096 0.91274 0.42609 0.0
H1840 H 0.68687 0.93457 0.42239 0.0
H1841 H 0.60648 0.91975 0.43538 0.0
H1842 H 0.60816 0.90111 0.43581 0.0
H1843 H 0.61587 0.91544 0.45754 0.0
H1844 H 0.62728 0.86447 0.45045 0.0
H1845 H 0.64392 0.89938 0.50225 0.0
H1846 H 0.64296 0.89312 0.41007 0.0
H1847 H 0.62204 0.88958 0.41368 0.0
H1848 H 0.62574 0.87223 0.41595 0.0
H1849 H 0.66358 0.9362 0.47362 0.0
H1850 H 0.65235 0.92787 0.49809 0.0
H1851 H 0.64244 0.93216 0.4765 0.0
C1852 C 0.0613 0.70889 0.40368 0.0
C1853 C 0.05592 0.71936 0.39504 0.0
C1854 C 0.07333 0.71467 0.41991 0.0
C1855 C 0.08012 0.73129 0.42767 0.0
C1856 C 0.07457 0.74182 0.41924 0.0
C1857 C 0.06256 0.73575 0.40305 0.0
C1858 C 0.07896 0.70308 0.42853 0.0
C1859 C 0.08148 0.75963 0.42713 0.0
C1860 C 0.10153 0.74484 0.48095 0.0
C1861 C 0.1187 0.754 0.47515 0.0
C1862 C 0.08882 0.73681 0.46573 0.0
C1863 C 0.0934 0.73797 0.4442 0.0
C1864 C 0.11072 0.74664 0.43832 0.0
C1865 C 0.12316 0.75456 0.45386 0.0
C1866 C 0.07049 0.72761 0.47263 0.0
C1867 C 0.11612 0.74817 0.41553 0.0
H1868 H 0.05624 0.69621 0.39763 0.0
H1869 H 0.05848 0.74394 0.39657 0.0
H1870 H 0.09271 0.70853 0.42557 0.0
H1871 H 0.07699 0.70185 0.44583 0.0
H1872 H 0.07202 0.69033 0.42132 0.0
H1873 H 0.07554 0.76606 0.41925 0.0
H1874 H 0.07933 0.75958 0.44435 0.0
H1875 H 0.09536 0.76709 0.42437 0.0
H1876 H 0.09802 0.74417 0.49741 0.0
H1877 H 0.13637 0.76178 0.4492 0.0
H1878 H 0.06375 0.71471 0.46587 0.0
H1879 H 0.06416 0.73429 0.46664 0.0
H1880 H 0.06909 0.7267 0.49004 0.0
H1881 H 0.11 0.73557 0.40793 0.0
H1882 H 0.13007 0.75416 0.41372 0.0
H1883 H 0.11196 0.75587 0.40692 0.0
C1884 C 0.33198 0.05879 0.7392 0.0
C1885 C 0.32006 0.04224 0.73329 0.0
C1886 C 0.32837 0.06711 0.75515 0.0
C1887 C 0.31246 0.05866 0.76553 0.0
C1888 C 0.30046 0.04185 0.75991 0.0
C1889 C 0.3044 0.03383 0.74382 0.0
C1890 C 0.34149 0.08506 0.76065 0.0
C1891 C 0.2834 0.03243 0.77069 0.0
C1892 C 0.31039 0.07776 0.81786 0.0
C1893 C 0.30361 0.08773 0.81183 0.0
C1894 C 0.31276 0.06772 0.8031 0.0
C1895 C 0.30831 0.06772 0.78181 0.0
C1896 C 0.30094 0.07732 0.77578 0.0
C1897 C 0.29867 0.0872 0.79087 0.0
C1898 C 0.32052 0.05753 0.81016 0.0
C1899 C 0.29609 0.07771 0.75321 0.0
H1900 H 0.34412 0.06537 0.73117 0.0
H1901 H 0.29514 0.02102 0.73936 0.0
H1902 H 0.33635 0.09346 0.75768 0.0
H1903 H 0.34459 0.08606 0.77764 0.0
H1904 H 0.35338 0.08972 0.7514 0.0
H1905 H 0.27576 0.0192 0.76509 0.0
H1906 H 0.28505 0.03237 0.78797 0.0
H1907 H 0.27619 0.0389 0.76779 0.0
H1908 H 0.31403 0.07796 0.8341 0.0
H1909 H 0.29361 0.09503 0.78604 0.0
H1910 H 0.33315 0.06251 0.80266 0.0
H1911 H 0.31255 0.04422 0.80508 0.0
H1912 H 0.32207 0.05788 0.82752 0.0
H1913 H 0.30763 0.08362 0.74317 0.0
H1914 H 0.28944 0.08489 0.75138 0.0
H1915 H 0.28776 0.06471 0.74725 0.0
C1916 C 0.92292 0.26346 0.72175 0.0
C1917 C 0.93976 0.27127 0.71459 0.0
C1918 C 0.91727 0.25201 0.7385 0.0
C1919 C 0.9287 0.2482 0.74839 0.0
C1920 C 0.94572 0.25602 0.74131 0.0
C1921 C 0.95106 0.26748 0.7245 0.0
C1922 C 0.89901 0.24394 0.7456 0.0
C1923 C 0.95824 0.25223 0.75145 0.0
C1924 C 0.91526 0.22938 0.80305 0.0
C1925 C 0.90727 0.21207 0.79868 0.0
C1926 C 0.92294 0.24135 0.78695 0.0
C1927 C 0.92263 0.23587 0.76599 0.0
C1928 C 0.91524 0.21846 0.76163 0.0
C1929 C 0.90762 0.20677 0.778 0.0
C1930 C 0.93076 0.25981 0.79225 0.0
C1931 C 0.91467 0.21211 0.73949 0.0
H1932 H 0.91408 0.26628 0.71427 0.0
H1933 H 0.9641 0.27344 0.7191 0.0
H1934 H 0.89269 0.23005 0.74403 0.0
H1935 H 0.89841 0.24681 0.76247 0.0
H1936 H 0.89178 0.24836 0.73635 0.0
H1937 H 0.97106 0.25948 0.74424 0.0
H1938 H 0.95924 0.25524 0.76851 0.0
H1939 H 0.95374 0.23859 0.75 0.0
H1940 H 0.91525 0.23357 0.81903 0.0
H1941 H 0.90131 0.19343 0.77442 0.0
H1942 H 0.92328 0.26481 0.78489 0.0
H1943 H 0.94381 0.26706 0.78578 0.0
H1944 H 0.93121 0.26207 0.8095 0.0
H1945 H 0.90626 0.21468 0.72971 0.0
H1946 H 0.90988 0.19837 0.73902 0.0
H1947 H 0.92746 0.21884 0.73218 0.0
C1948 C 0.71987 0.68383 0.73302 0.0
C1949 C 0.72113 0.67363 0.71746 0.0
C1950 C 0.73056 0.68917 0.75065 0.0
C1951 C 0.74291 0.68437 0.75254 0.0
C1952 C 0.7447 0.6747 0.73641 0.0
C1953 C 0.73372 0.66935 0.71917 0.0
C1954 C 0.72819 0.69934 0.76763 0.0
C1955 C 0.75789 0.66953 0.73765 0.0
C1956 C 0.7805 0.70476 0.78938 0.0
C1957 C 0.77556 0.69208 0.80446 0.0
C1958 C 0.76952 0.703 0.77297 0.0
C1959 C 0.75326 0.68832 0.77191 0.0
C1960 C 0.7478 0.67618 0.78817 0.0
C1961 C 0.7591 0.67814 0.80415 0.0
C1962 C 0.77585 0.71616 0.75589 0.0
C1963 C 0.73046 0.6605 0.78785 0.0
H1964 H 0.71013 0.68715 0.7318 0.0
H1965 H 0.73489 0.66163 0.70709 0.0
H1966 H 0.72331 0.69167 0.78215 0.0
H1967 H 0.74049 0.71067 0.77161 0.0
H1968 H 0.71915 0.70337 0.7629 0.0
H1969 H 0.75844 0.66306 0.7231 0.0
H1970 H 0.7706 0.68073 0.74039 0.0
H1971 H 0.75501 0.66089 0.75115 0.0
H1972 H 0.79331 0.71547 0.7896 0.0
H1973 H 0.75534 0.66839 0.81593 0.0
H1974 H 0.76605 0.7193 0.75177 0.0
H1975 H 0.77864 0.71111 0.74148 0.0
H1976 H 0.78758 0.7279 0.76061 0.0
H1977 H 0.72059 0.66372 0.7845 0.0
H1978 H 0.72734 0.65356 0.803 0.0
H1979 H 0.72998 0.65197 0.77511 0.0
C1980 C 0.69458 0.64156 0.59922 0.0
C1981 C 0.70344 0.657 0.60992 0.0
C1982 C 0.70236 0.63744 0.58303 0.0
C1983 C 0.71941 0.64898 0.57758 0.0
C1984 C 0.72821 0.66483 0.5878 0.0
C1985 C 0.72008 0.66868 0.6038 0.0
C1986 C 0.69253 0.62049 0.57231 0.0
C1987 C 0.74645 0.67745 0.58245 0.0
C1988 C 0.7465 0.63215 0.5557 0.0
C1989 C 0.74766 0.63638 0.53436 0.0
C1990 C 0.73707 0.63591 0.56983 0.0
C1991 C 0.72851 0.64401 0.5624 0.0
C1992 C 0.72922 0.64789 0.54076 0.0
C1993 C 0.73888 0.64409 0.52698 0.0
C1994 C 0.7367 0.63167 0.59284 0.0
C1995 C 0.72008 0.65635 0.53226 0.0
H1996 H 0.68166 0.63252 0.60377 0.0
H1997 H 0.72697 0.68066 0.61197 0.0
H1998 H 0.69343 0.62201 0.55496 0.0
H1999 H 0.69806 0.61262 0.57645 0.0
H2000 H 0.67894 0.61363 0.57697 0.0
H2001 H 0.75113 0.6896 0.59091 0.0
H2002 H 0.75458 0.67221 0.58668 0.0
H2003 H 0.74792 0.67992 0.56528 0.0
H2004 H 0.75348 0.62641 0.56151 0.0
H2005 H 0.73966 0.64725 0.51043 0.0
H2006 H 0.72342 0.62374 0.59835 0.0
H2007 H 0.74254 0.64341 0.60237 0.0
H2008 H 0.74359 0.62489 0.59593 0.0
H2009 H 0.70648 0.6491 0.53676 0.0
H2010 H 0.72107 0.65757 0.51484 0.0
H2011 H 0.72546 0.6691 0.53927 0.0
C2012 C 0.32557 0.06155 0.61872 0.0
C2013 C 0.3355 0.05506 0.62609 0.0
C2014 C 0.33129 0.07343 0.60247 0.0
C2015 C 0.34738 0.07903 0.59324 0.0
C2016 C 0.35745 0.07244 0.60038 0.0
C2017 C 0.35139 0.06052 0.61674 0.0
C2018 C 0.32014 0.08012 0.59532 0.0
C2019 C 0.37466 0.07811 0.59088 0.0
C2020 C 0.3529 0.09953 0.53987 0.0
C2021 C 0.36068 0.11663 0.5454 0.0
C2022 C 0.34933 0.08718 0.55512 0.0
C2023 C 0.35361 0.09204 0.57641 0.0
C2024 C 0.36223 0.10934 0.5819 0.0
C2025 C 0.36565 0.12142 0.56634 0.0
C2026 C 0.34022 0.06888 0.5486 0.0
C2027 C 0.36699 0.11504 0.60443 0.0
H2028 H 0.31326 0.05743 0.62575 0.0
H2029 H 0.35915 0.05558 0.6223 0.0
H2030 H 0.32674 0.09395 0.59774 0.0
H2031 H 0.31753 0.07772 0.57823 0.0
H2032 H 0.30785 0.07428 0.60392 0.0
H2033 H 0.38072 0.07142 0.59775 0.0
H2034 H 0.37356 0.07594 0.57361 0.0
H2035 H 0.38311 0.09184 0.59344 0.0
H2036 H 0.34927 0.09577 0.52366 0.0
H2037 H 0.37152 0.13457 0.5708 0.0
H2038 H 0.32714 0.06241 0.5551 0.0
H2039 H 0.34668 0.06248 0.55508 0.0
H2040 H 0.33948 0.06731 0.53121 0.0
H2041 H 0.35533 0.11108 0.61389 0.0
H2042 H 0.37523 0.12894 0.60575 0.0
H2043 H 0.37366 0.10905 0.61146 0.0
C2044 C 0.93679 0.27087 0.59969 0.0
C2045 C 0.94052 0.28681 0.60686 0.0
C2046 C 0.92458 0.26232 0.58406 0.0
C2047 C 0.91592 0.26993 0.57537 0.0
C2048 C 0.92003 0.28625 0.58203 0.0
C2049 C 0.93227 0.2945 0.59772 0.0
C2050 C 0.92057 0.24493 0.57734 0.0
C2051 C 0.91111 0.29479 0.57307 0.0
C2052 C 0.89172 0.2517 0.52443 0.0
C2053 C 0.87514 0.24131 0.53195 0.0
C2054 C 0.90512 0.26127 0.53834 0.0
C2055 C 0.90186 0.26036 0.56027 0.0
C2056 C 0.88513 0.25002 0.56791 0.0
C2057 C 0.87199 0.24063 0.55367 0.0
C2058 C 0.92278 0.27223 0.5296 0.0
C2059 C 0.88115 0.24865 0.59119 0.0
H2060 H 0.94316 0.26488 0.60662 0.0
H2061 H 0.93514 0.30685 0.60312 0.0
H2062 H 0.90731 0.23557 0.58173 0.0
H2063 H 0.92163 0.24437 0.55998 0.0
H2064 H 0.9291 0.2412 0.58473 0.0
H2065 H 0.91657 0.30793 0.57887 0.0
H2066 H 0.91186 0.29496 0.55563 0.0
H2067 H 0.89749 0.28759 0.57746 0.0
H2068 H 0.89419 0.2524 0.50764 0.0
H2069 H 0.85926 0.23243 0.55961 0.0
H2070 H 0.9313 0.26805 0.53586 0.0
H2071 H 0.92793 0.28548 0.53475 0.0
H2072 H 0.92312 0.27187 0.51213 0.0
H2073 H 0.88822 0.2436 0.5995 0.0
H2074 H 0.86741 0.24032 0.59453 0.0
H2075 H 0.8853 0.26131 0.59788 0.0
C2076 C 0.31935 0.25874 0.61465 0.0
C2077 C 0.32864 0.27535 0.62219 0.0
C2078 C 0.32579 0.253 0.59862 0.0
C2079 C 0.34193 0.26412 0.58985 0.0
C2080 C 0.35129 0.28098 0.59709 0.0
C2081 C 0.34453 0.28641 0.61319 0.0
C2082 C 0.31538 0.23492 0.5913 0.0
C2083 C 0.36854 0.29318 0.58807 0.0
C2084 C 0.36257 0.2417 0.5643 0.0
C2085 C 0.35801 0.24111 0.54315 0.0
C2086 C 0.3582 0.24995 0.57953 0.0
C2087 C 0.34903 0.25779 0.57347 0.0
C2088 C 0.34519 0.25803 0.55198 0.0
C2089 C 0.34972 0.24968 0.53707 0.0
C2090 C 0.36255 0.24942 0.60229 0.0
C2091 C 0.33554 0.26636 0.54487 0.0
H2092 H 0.30705 0.25009 0.62141 0.0
H2093 H 0.35181 0.29926 0.61889 0.0
H2094 H 0.31318 0.23448 0.5741 0.0
H2095 H 0.32239 0.22825 0.59421 0.0
H2096 H 0.30291 0.228 0.59943 0.0
H2097 H 0.3739 0.30604 0.5948 0.0
H2098 H 0.37742 0.28863 0.59125 0.0
H2099 H 0.36776 0.29392 0.57072 0.0
H2100 H 0.36883 0.23498 0.56915 0.0
H2101 H 0.34639 0.24949 0.52069 0.0
H2102 H 0.35077 0.24129 0.61134 0.0
H2103 H 0.36858 0.2622 0.60938 0.0
H2104 H 0.37121 0.2444 0.60411 0.0
H2105 H 0.32232 0.25914 0.55086 0.0
H2106 H 0.33518 0.26705 0.52744 0.0
H2107 H 0.34131 0.2793 0.55143 0.0
C2108 C 0.69977 0.05828 0.60242 0.0
C2109 C 0.70825 0.05065 0.61105 0.0
C2110 C 0.70709 0.07005 0.58608 0.0
C2111 C 0.72329 0.07432 0.57827 0.0
C2112 C 0.7317 0.0663 0.58649 0.0
C2113 C 0.72406 0.05453 0.60277 0.0
C2114 C 0.69772 0.07829 0.57762 0.0
C2115 C 0.74901 0.07056 0.57858 0.0
C2116 C 0.73904 0.09731 0.52616 0.0
C2117 C 0.74938 0.114 0.53295 0.0
C2118 C 0.73025 0.08424 0.54071 0.0
C2119 C 0.73196 0.08799 0.56252 0.0
C2120 C 0.74228 0.10483 0.56944 0.0
C2121 C 0.75084 0.11763 0.55456 0.0
C2122 C 0.71925 0.06643 0.53279 0.0
C2123 C 0.74452 0.10931 0.59257 0.0
H2124 H 0.68751 0.05527 0.60867 0.0
H2125 H 0.73065 0.04864 0.60931 0.0
H2126 H 0.70481 0.09193 0.58144 0.0
H2127 H 0.69683 0.07711 0.56022 0.0
H2128 H 0.68472 0.07269 0.5843 0.0
H2129 H 0.7534 0.0625 0.58576 0.0
H2130 H 0.74886 0.0691 0.56122 0.0
H2131 H 0.75835 0.08392 0.58225 0.0
H2132 H 0.73779 0.0945 0.50944 0.0
H2133 H 0.75903 0.13048 0.55989 0.0
H2134 H 0.70612 0.06112 0.53882 0.0
H2135 H 0.72405 0.05837 0.53878 0.0
H2136 H 0.7189 0.0657 0.51531 0.0
H2137 H 0.73202 0.10506 0.60008 0.0
H2138 H 0.75276 0.12307 0.59531 0.0
H2139 H 0.7502 0.10271 0.60057 0.0
C2140 C 0.93036 0.63738 0.61535 0.0
C2141 C 0.9383 0.65455 0.6206 0.0
C2142 C 0.91737 0.63032 0.60024 0.0
C2143 C 0.91232 0.64069 0.59013 0.0
C2144 C 0.92074 0.65813 0.59482 0.0
C2145 C 0.93356 0.66481 0.60997 0.0
C2146 C 0.9087 0.61168 0.59563 0.0
C2147 C 0.91584 0.66969 0.5843 0.0
C2148 C 0.88649 0.62958 0.53998 0.0
C2149 C 0.87073 0.62613 0.54793 0.0
C2150 C 0.89996 0.63325 0.55361 0.0
C2151 C 0.89753 0.63341 0.57565 0.0
C2152 C 0.88128 0.62873 0.58373 0.0
C2153 C 0.8681 0.62519 0.56977 0.0
C2154 C 0.91707 0.63814 0.54436 0.0
C2155 C 0.87809 0.62857 0.60712 0.0
H2156 H 0.93394 0.62936 0.62346 0.0
H2157 H 0.93972 0.67812 0.61372 0.0
H2158 H 0.8954 0.60543 0.60136 0.0
H2159 H 0.90828 0.60944 0.5784 0.0
H2160 H 0.91513 0.60566 0.60328 0.0
H2161 H 0.92426 0.68309 0.58885 0.0
H2162 H 0.91631 0.66863 0.56693 0.0
H2163 H 0.90263 0.66591 0.58867 0.0
H2164 H 0.88859 0.63038 0.52309 0.0
H2165 H 0.85585 0.62228 0.57595 0.0
H2166 H 0.92282 0.63181 0.55286 0.0
H2167 H 0.9257 0.65193 0.54616 0.0
H2168 H 0.91627 0.63492 0.52736 0.0
H2169 H 0.8832 0.62163 0.61556 0.0
H2170 H 0.86438 0.62271 0.6109 0.0
H2171 H 0.88473 0.64169 0.61321 0.0
C2172 C 0.93675 0.66205 0.73489 0.0
C2173 C 0.95235 0.67442 0.72652 0.0
C2174 C 0.92843 0.66606 0.75046 0.0
C2175 C 0.93584 0.68288 0.75779 0.0
C2176 C 0.95179 0.69535 0.74979 0.0
C2177 C 0.95988 0.69096 0.73427 0.0
C2178 C 0.91147 0.65237 0.75868 0.0
C2179 C 0.96004 0.71342 0.75717 0.0
C2180 C 0.90384 0.69377 0.77896 0.0
C2181 C 0.90479 0.69192 0.8007 0.0
C2182 C 0.91449 0.69167 0.76489 0.0
C2183 C 0.92627 0.68747 0.77276 0.0
C2184 C 0.92782 0.68634 0.79478 0.0
C2185 C 0.91709 0.68867 0.80854 0.0
C2186 C 0.91257 0.6932 0.74154 0.0
C2187 C 0.9402 0.68183 0.80375 0.0
H2188 H 0.9309 0.64922 0.72908 0.0
H2189 H 0.97196 0.70058 0.72789 0.0
H2190 H 0.91167 0.65188 0.77612 0.0
H2191 H 0.90148 0.65521 0.75435 0.0
H2192 H 0.90793 0.63976 0.75228 0.0
H2193 H 0.97298 0.72134 0.7505 0.0
H2194 H 0.95219 0.71884 0.75245 0.0
H2195 H 0.96085 0.71405 0.7746 0.0
H2196 H 0.89446 0.69649 0.77292 0.0
H2197 H 0.91776 0.68715 0.82535 0.0
H2198 H 0.90751 0.68069 0.73392 0.0
H2199 H 0.92508 0.70181 0.73424 0.0
H2200 H 0.90387 0.69795 0.73812 0.0
H2201 H 0.93614 0.66861 0.79956 0.0
H2202 H 0.94106 0.68312 0.82117 0.0
H2203 H 0.953 0.68994 0.79687 0.0
C2204 C 0.31612 0.25773 0.72472 0.0
C2205 C 0.31446 0.27181 0.72833 0.0
C2206 C 0.31333 0.2464 0.741 0.0
C2207 C 0.30954 0.24969 0.76153 0.0
C2208 C 0.30804 0.26405 0.76525 0.0
C2209 C 0.31015 0.27477 0.74843 0.0
C2210 C 0.31443 0.23091 0.73622 0.0
C2211 C 0.30472 0.26835 0.78708 0.0
C2212 C 0.29019 0.21367 0.80073 0.0
C2213 C 0.30466 0.21528 0.8105 0.0
C2214 C 0.29155 0.2248 0.78482 0.0
C2215 C 0.30771 0.23835 0.77915 0.0
C2216 C 0.32228 0.24061 0.78961 0.0
C2217 C 0.32063 0.22887 0.80475 0.0
C2218 C 0.27576 0.22169 0.77357 0.0
C2219 C 0.33971 0.25523 0.78447 0.0
H2220 H 0.31929 0.25543 0.70904 0.0
H2221 H 0.309 0.28577 0.75111 0.0
H2222 H 0.32523 0.23154 0.74479 0.0
H2223 H 0.30275 0.21946 0.7417 0.0
H2224 H 0.31615 0.22953 0.71913 0.0
H2225 H 0.30394 0.27999 0.7873 0.0
H2226 H 0.29271 0.25784 0.79347 0.0
H2227 H 0.31501 0.27014 0.7978 0.0
H2228 H 0.27772 0.20359 0.80529 0.0
H2229 H 0.33201 0.2302 0.81163 0.0
H2230 H 0.27686 0.21961 0.75654 0.0
H2231 H 0.27431 0.23289 0.77495 0.0
H2232 H 0.26413 0.21059 0.77988 0.0
H2233 H 0.34352 0.25362 0.76841 0.0
H2234 H 0.34943 0.25633 0.79574 0.0
H2235 H 0.3396 0.26722 0.78465 0.0
C2236 C 0.73461 0.06708 0.72637 0.0
C2237 C 0.72703 0.05052 0.71867 0.0
C2238 C 0.74629 0.0726 0.74287 0.0
C2239 C 0.75062 0.06133 0.75195 0.0
C2240 C 0.74311 0.0446 0.74428 0.0
C2241 C 0.73136 0.03937 0.72773 0.0
C2242 C 0.75399 0.09055 0.75061 0.0
C2243 C 0.7475 0.03227 0.75354 0.0
C2244 C 0.79239 0.08397 0.78093 0.0
C2245 C 0.78701 0.08416 0.80163 0.0
C2246 C 0.78065 0.07561 0.76478 0.0
C2247 C 0.7631 0.06732 0.7694 0.0
C2248 C 0.7576 0.06662 0.79046 0.0
C2249 C 0.76962 0.07503 0.80633 0.0
C2250 C 0.78704 0.07659 0.74254 0.0
C2251 C 0.739 0.05786 0.79606 0.0
H2252 H 0.73137 0.07582 0.71955 0.0
H2253 H 0.72559 0.02655 0.7219 0.0
H2254 H 0.75113 0.09067 0.7676 0.0
H2255 H 0.76797 0.09723 0.74885 0.0
H2256 H 0.7492 0.0977 0.74192 0.0
H2257 H 0.74055 0.01971 0.74582 0.0
H2258 H 0.7613 0.03722 0.75191 0.0
H2259 H 0.74448 0.03071 0.77062 0.0
H2260 H 0.80578 0.09111 0.77709 0.0
H2261 H 0.76538 0.07486 0.82236 0.0
H2262 H 0.78435 0.08505 0.73313 0.0
H2263 H 0.7804 0.064 0.73492 0.0
H2264 H 0.8009 0.08151 0.74198 0.0
H2265 H 0.7334 0.06507 0.78955 0.0
H2266 H 0.73683 0.05673 0.81335 0.0
H2267 H 0.73216 0.04508 0.78896 0.0
C2268 C 0.02857 0.3153 0.04439 0.0
C2269 C 0.03502 0.3309 0.03431 0.0
C2270 C 0.0394 0.31063 0.05367 0.0
C2271 C 0.05713 0.32186 0.05297 0.0
C2272 C 0.06376 0.33733 0.04208 0.0
C2273 C 0.05262 0.34165 0.03281 0.0
C2274 C 0.03184 0.29395 0.06496 0.0
C2275 C 0.08258 0.34966 0.04103 0.0
C2276 C 0.08291 0.31952 0.09784 0.0
C2277 C 0.09029 0.31093 0.08851 0.0
C2278 C 0.07217 0.32319 0.0864 0.0
C2279 C 0.06859 0.31804 0.0651 0.0
C2280 C 0.07582 0.30919 0.0556 0.0
C2281 C 0.08661 0.30575 0.06742 0.0
C2282 C 0.06466 0.33259 0.09715 0.0
C2283 C 0.07223 0.30345 0.03295 0.0
H2284 H 0.01498 0.30687 0.04549 0.0
H2285 H 0.05769 0.35371 0.02503 0.0
H2286 H 0.03795 0.28684 0.05952 0.0
H2287 H 0.0342 0.29619 0.08211 0.0
H2288 H 0.01796 0.28603 0.06247 0.0
H2289 H 0.08578 0.36049 0.03056 0.0
H2290 H 0.08738 0.35456 0.05705 0.0
H2291 H 0.08936 0.34327 0.0353 0.0
H2292 H 0.08544 0.32329 0.11423 0.0
H2293 H 0.09239 0.29925 0.06004 0.0
H2294 H 0.05063 0.32483 0.09698 0.0
H2295 H 0.06831 0.34437 0.08848 0.0
H2296 H 0.06887 0.33587 0.11374 0.0
H2297 H 0.05839 0.29514 0.03064 0.0
H2298 H 0.07867 0.29651 0.02798 0.0
H2299 H 0.07649 0.31448 0.02248 0.0
C2300 C 0.66063 0.70566 0.03542 0.0
C2301 C 0.64297 0.6949 0.03577 0.0
C2302 C 0.66828 0.7213 0.0458 0.0
C2303 C 0.65804 0.7262 0.05697 0.0
C2304 C 0.64025 0.71532 0.05756 0.0
C2305 C 0.63292 0.69986 0.04686 0.0
C2306 C 0.68728 0.73266 0.04462 0.0
C2307 C 0.62892 0.72005 0.06948 0.0
C2308 C 0.67679 0.76006 0.09929 0.0
C2309 C 0.67749 0.77374 0.08887 0.0
C2310 C 0.6709 0.74457 0.08893 0.0
C2311 C 0.66581 0.74287 0.06762 0.0
C2312 C 0.66721 0.7569 0.0568 0.0
C2313 C 0.67293 0.77215 0.06761 0.0
C2314 C 0.66945 0.72985 0.10102 0.0
C2315 C 0.66215 0.75567 0.03399 0.0
H2316 H 0.66849 0.70194 0.02685 0.0
H2317 H 0.61929 0.69158 0.04734 0.0
H2318 H 0.69048 0.74477 0.03713 0.0
H2319 H 0.69268 0.73562 0.06071 0.0
H2320 H 0.69346 0.7269 0.0355 0.0
H2321 H 0.61538 0.70995 0.06895 0.0
H2322 H 0.63289 0.72275 0.08619 0.0
H2323 H 0.63015 0.7317 0.06274 0.0
H2324 H 0.68019 0.76127 0.11578 0.0
H2325 H 0.67365 0.7828 0.05951 0.0
H2326 H 0.67598 0.72424 0.0924 0.0
H2327 H 0.65592 0.71992 0.10253 0.0
H2328 H 0.67493 0.73353 0.11706 0.0
H2329 H 0.66866 0.75056 0.02433 0.0
H2330 H 0.66521 0.76805 0.02746 0.0
H2331 H 0.64832 0.74682 0.03245 0.0
C2332 C 0.28535 0.93156 0.02893 0.0
C2333 C 0.29647 0.94892 0.03129 0.0
C2334 C 0.26977 0.92342 0.0396 0.0
C2335 C 0.26539 0.93281 0.0533 0.0
C2336 C 0.27653 0.95035 0.0557 0.0
C2337 C 0.29189 0.95824 0.04449 0.0
C2338 C 0.25805 0.90473 0.03636 0.0
C2339 C 0.27242 0.96069 0.0705 0.0
C2340 C 0.21901 0.91285 0.06855 0.0
C2341 C 0.21858 0.90478 0.08731 0.0
C2342 C 0.23428 0.92239 0.05746 0.0
C2343 C 0.2494 0.92408 0.06565 0.0
C2344 C 0.24908 0.91656 0.08514 0.0
C2345 C 0.23359 0.90681 0.09563 0.0
C2346 C 0.23411 0.93001 0.03656 0.0
C2347 C 0.26499 0.91838 0.0946 0.0
H2348 H 0.28879 0.92434 0.01861 0.0
H2349 H 0.3005 0.97166 0.04645 0.0
H2350 H 0.25636 0.89798 0.05139 0.0
H2351 H 0.24536 0.90215 0.03144 0.0
H2352 H 0.26292 0.89946 0.02428 0.0
H2353 H 0.28227 0.97428 0.0702 0.0
H2354 H 0.26007 0.95935 0.0663 0.0
H2355 H 0.27122 0.95599 0.08682 0.0
H2356 H 0.20729 0.91111 0.06214 0.0
H2357 H 0.23314 0.90055 0.11023 0.0
H2358 H 0.23758 0.92402 0.0238 0.0
H2359 H 0.24366 0.94366 0.03641 0.0
H2360 H 0.2215 0.92834 0.03299 0.0
H2361 H 0.26982 0.91186 0.08448 0.0
H2362 H 0.26279 0.91299 0.1107 0.0
H2363 H 0.27503 0.93186 0.09535 0.0
C2364 C 0.32113 0.02741 0.96341 0.0
C2365 C 0.33199 0.03146 0.98067 0.0
C2366 C 0.31761 0.03928 0.95491 0.0
C2367 C 0.32491 0.05549 0.96411 0.0
C2368 C 0.33539 0.05947 0.98203 0.0
C2369 C 0.33893 0.04742 0.99 0.0
C2370 C 0.30656 0.03464 0.93562 0.0
C2371 C 0.34315 0.07655 0.99245 0.0
C2372 C 0.33083 0.09092 0.92853 0.0
C2373 C 0.31655 0.09207 0.93357 0.0
C2374 C 0.33379 0.07917 0.93855 0.0
C2375 C 0.32231 0.06853 0.9542 0.0
C2376 C 0.30803 0.06987 0.95964 0.0
C2377 C 0.30522 0.08155 0.94908 0.0
C2378 C 0.34899 0.0779 0.93204 0.0
C2379 C 0.29567 0.05889 0.97647 0.0
H2380 H 0.31576 0.0151 0.95609 0.0
H2381 H 0.34725 0.05056 0.00343 0.0
H2382 H 0.29581 0.03671 0.9386 0.0
H2383 H 0.314 0.04287 0.92229 0.0
H2384 H 0.3014 0.02131 0.93081 0.0
H2385 H 0.34991 0.0772 0.00718 0.0
H2386 H 0.35227 0.08635 0.9815 0.0
H2387 H 0.33319 0.07965 0.99619 0.0
H2388 H 0.33949 0.09899 0.91639 0.0
H2389 H 0.29426 0.08258 0.95306 0.0
H2390 H 0.34475 0.0651 0.92577 0.0
H2391 H 0.35707 0.07982 0.9459 0.0
H2392 H 0.3568 0.08728 0.91982 0.0
H2393 H 0.28943 0.04548 0.97162 0.0
H2394 H 0.28572 0.06214 0.97961 0.0
H2395 H 0.3025 0.06018 0.99134 0.0
C2396 C 0.93704 0.2961 0.97184 0.0
C2397 C 0.95245 0.3007 0.98168 0.0
C2398 C 0.9282 0.28096 0.96049 0.0
C2399 C 0.9348 0.27003 0.9592 0.0
C2400 C 0.95029 0.27454 0.96919 0.0
C2401 C 0.95899 0.28988 0.98018 0.0
C2402 C 0.91181 0.27667 0.94983 0.0
C2403 C 0.95759 0.2631 0.96843 0.0
C2404 C 0.90303 0.22422 0.947 0.0
C2405 C 0.90593 0.22325 0.92548 0.0
C2406 C 0.91264 0.23926 0.95829 0.0
C2407 C 0.92529 0.25374 0.9477 0.0
C2408 C 0.92844 0.25276 0.92601 0.0
C2409 C 0.91879 0.23746 0.91518 0.0
C2410 C 0.90909 0.23972 0.98147 0.0
C2411 C 0.94168 0.26798 0.91413 0.0
H2412 H 0.93195 0.30444 0.97279 0.0
H2413 H 0.97086 0.29331 0.98781 0.0
H2414 H 0.91265 0.27459 0.93275 0.0
H2415 H 0.90126 0.26479 0.95637 0.0
H2416 H 0.90864 0.28674 0.95184 0.0
H2417 H 0.96976 0.26844 0.97704 0.0
H2418 H 0.94845 0.2507 0.9754 0.0
H2419 H 0.95975 0.26078 0.95184 0.0
H2420 H 0.89318 0.21317 0.95501 0.0
H2421 H 0.92093 0.23674 0.89848 0.0
H2422 H 0.90449 0.24861 0.9843 0.0
H2423 H 0.92091 0.24436 0.99063 0.0
H2424 H 0.89945 0.22714 0.98758 0.0
H2425 H 0.93833 0.27798 0.91443 0.0
H2426 H 0.9429 0.265 0.89746 0.0
H2427 H 0.95418 0.27321 0.92184 0.0
C2428 C 0.69408 0.66662 0.95602 0.0
C2429 C 0.6898 0.66036 0.97658 0.0
C2430 C 0.70942 0.66999 0.94677 0.0
C2431 C 0.72098 0.66747 0.95859 0.0
C2432 C 0.71694 0.66161 0.97959 0.0
C2433 C 0.70125 0.65788 0.98825 0.0
C2434 C 0.71307 0.67582 0.92417 0.0
C2435 C 0.72915 0.65923 0.99285 0.0
C2436 C 0.75228 0.6602 0.92764 0.0
C2437 C 0.76655 0.6765 0.92666 0.0
C2438 C 0.73745 0.65706 0.93818 0.0
C2439 C 0.737 0.67044 0.9486 0.0
C2440 C 0.75153 0.68677 0.94849 0.0
C2441 C 0.76604 0.68966 0.93729 0.0
C2442 C 0.72212 0.63952 0.93763 0.0
C2443 C 0.75164 0.70128 0.95981 0.0
H2444 H 0.68519 0.66844 0.94691 0.0
H2445 H 0.698 0.65315 0.00421 0.0
H2446 H 0.72502 0.68815 0.92314 0.0
H2447 H 0.71481 0.66671 0.91456 0.0
H2448 H 0.70273 0.67712 0.91715 0.0
H2449 H 0.72454 0.65558 0.00929 0.0
H2450 H 0.73113 0.64932 0.98581 0.0
H2451 H 0.74166 0.67104 0.99319 0.0
H2452 H 0.75261 0.64981 0.92004 0.0
H2453 H 0.77684 0.70234 0.9365 0.0
H2454 H 0.71143 0.63979 0.92993 0.0
H2455 H 0.71798 0.63479 0.95387 0.0
H2456 H 0.72459 0.63047 0.92896 0.0
H2457 H 0.74276 0.70435 0.95202 0.0
H2458 H 0.76443 0.71277 0.95996 0.0
H2459 H 0.74722 0.69774 0.97631 0.0
C2460 C 0.92493 0.63999 0.99245 0.0
C2461 C 0.94047 0.64238 0.9852 0.0
C2462 C 0.91621 0.64618 0.98104 0.0
C2463 C 0.9229 0.65434 0.96154 0.0
C2464 C 0.93858 0.65671 0.95414 0.0
C2465 C 0.94734 0.65097 0.96628 0.0
C2466 C 0.89983 0.64394 0.9898 0.0
C2467 C 0.94583 0.66482 0.93309 0.0
C2468 C 0.89107 0.6534 0.92294 0.0
C2469 C 0.89431 0.67001 0.92406 0.0
C2470 C 0.90056 0.64828 0.93465 0.0
C2471 C 0.91318 0.65983 0.94854 0.0
C2472 C 0.91639 0.67652 0.95006 0.0
C2473 C 0.90717 0.6815 0.93752 0.0
C2474 C 0.89705 0.63047 0.93218 0.0
C2475 C 0.92946 0.68907 0.96512 0.0
H2476 H 0.91972 0.63346 0.0072 0.0
H2477 H 0.9593 0.65266 0.96061 0.0
H2478 H 0.90039 0.65625 0.99035 0.0
H2479 H 0.88917 0.63551 0.97936 0.0
H2480 H 0.89703 0.63848 0.00589 0.0
H2481 H 0.95818 0.66575 0.92965 0.0
H2482 H 0.93681 0.65738 0.92039 0.0
H2483 H 0.94762 0.67765 0.93264 0.0
H2484 H 0.88095 0.64421 0.9131 0.0
H2485 H 0.91012 0.69445 0.9383 0.0
H2486 H 0.89219 0.62357 0.94722 0.0
H2487 H 0.90895 0.63062 0.92828 0.0
H2488 H 0.88763 0.62341 0.91966 0.0
H2489 H 0.92659 0.68395 0.98136 0.0
H2490 H 0.92992 0.70135 0.96508 0.0
H2491 H 0.94219 0.69129 0.96088 0.0
C2492 C 0.33992 0.29241 0.99071 0.0
C2493 C 0.33338 0.30183 0.98195 0.0
C2494 C 0.33588 0.27671 0.98216 0.0
C2495 C 0.32533 0.2705 0.96423 0.0
C2496 C 0.31849 0.27986 0.95555 0.0
C2497 C 0.32248 0.29533 0.96463 0.0
C2498 C 0.34315 0.26693 0.99206 0.0
C2499 C 0.30742 0.27379 0.93623 0.0
C2500 C 0.33029 0.24036 0.9281 0.0
C2501 C 0.31586 0.22493 0.93313 0.0
C2502 C 0.33351 0.25528 0.93813 0.0
C2503 C 0.32215 0.25468 0.95382 0.0
C2504 C 0.30763 0.23908 0.95911 0.0
C2505 C 0.30456 0.22438 0.94852 0.0
C2506 C 0.34895 0.27172 0.93174 0.0
C2507 C 0.29539 0.23793 0.97598 0.0
H2508 H 0.34826 0.29734 0.00417 0.0
H2509 H 0.31743 0.30259 0.95774 0.0
H2510 H 0.33288 0.25389 0.99561 0.0
H2511 H 0.35199 0.26601 0.98084 0.0
H2512 H 0.3501 0.2729 0.00682 0.0
H2513 H 0.30269 0.28231 0.93182 0.0
H2514 H 0.31469 0.27289 0.92273 0.0
H2515 H 0.29639 0.261 0.93892 0.0
H2516 H 0.33894 0.24077 0.91604 0.0
H2517 H 0.29347 0.21239 0.95249 0.0
H2518 H 0.35724 0.27771 0.94555 0.0
H2519 H 0.34503 0.28057 0.92598 0.0
H2520 H 0.35645 0.27001 0.91917 0.0
H2521 H 0.30222 0.24315 0.99101 0.0
H2522 H 0.285 0.22477 0.97869 0.0
H2523 H 0.28972 0.24561 0.9715 0.0
C2524 C 0.70599 0.03537 0.97828 0.0
C2525 C 0.69606 0.04297 0.97882 0.0
C2526 C 0.72183 0.04319 0.96807 0.0
C2527 C 0.72772 0.05883 0.95789 0.0
C2528 C 0.71762 0.06642 0.95811 0.0
C2529 C 0.70199 0.05847 0.96871 0.0
C2530 C 0.73237 0.03486 0.96843 0.0
C2531 C 0.72336 0.083 0.94721 0.0
C2532 C 0.77434 0.08967 0.94802 0.0
C2533 C 0.77585 0.0873 0.92647 0.0
C2534 C 0.75894 0.07986 0.9587 0.0
C2535 C 0.74463 0.06761 0.94744 0.0
C2536 C 0.74626 0.06476 0.92582 0.0
C2537 C 0.76192 0.07458 0.91561 0.0
C2538 C 0.75781 0.08308 0.98183 0.0
C2539 C 0.73125 0.05195 0.91323 0.0
H2540 H 0.70151 0.02342 0.98613 0.0
H2541 H 0.69433 0.06436 0.96889 0.0
H2542 H 0.73532 0.03274 0.95212 0.0
H2543 H 0.74462 0.04325 0.97632 0.0
H2544 H 0.72588 0.02258 0.97678 0.0
H2545 H 0.71372 0.08689 0.94816 0.0
H2546 H 0.73524 0.09302 0.95444 0.0
H2547 H 0.72613 0.08207 0.93038 0.0
H2548 H 0.78518 0.09944 0.95643 0.0
H2549 H 0.76308 0.07285 0.8989 0.0
H2550 H 0.75192 0.07107 0.99071 0.0
H2551 H 0.74961 0.08861 0.98406 0.0
H2552 H 0.77043 0.09184 0.9887 0.0
H2553 H 0.72497 0.03957 0.92125 0.0
H2554 H 0.73491 0.05033 0.89705 0.0
H2555 H 0.72179 0.05603 0.91207 0.0
C2556 C 0.64693 0.94523 0.03983 0.0
C2557 C 0.65957 0.96162 0.03443 0.0
C2558 C 0.65103 0.93427 0.04996 0.0
C2559 C 0.6682 0.93972 0.05429 0.0
C2560 C 0.68106 0.95603 0.0481 0.0
C2561 C 0.67656 0.96687 0.03848 0.0
C2562 C 0.63694 0.91708 0.05667 0.0
C2563 C 0.69954 0.96215 0.05194 0.0
C2564 C 0.67829 0.91914 0.09908 0.0
C2565 C 0.68063 0.90717 0.0883 0.0
C2566 C 0.67413 0.92974 0.08821 0.0
C2567 C 0.67268 0.92858 0.06598 0.0
C2568 C 0.6754 0.91674 0.05499 0.0
C2569 C 0.67914 0.90601 0.06633 0.0
C2570 C 0.671 0.94197 0.10053 0.0
C2571 C 0.67439 0.9154 0.03128 0.0
H2572 H 0.63377 0.94118 0.03685 0.0
H2573 H 0.68638 0.97951 0.03421 0.0
H2574 H 0.63897 0.90714 0.04984 0.0
H2575 H 0.63698 0.91598 0.07406 0.0
H2576 H 0.62427 0.91464 0.05178 0.0
H2577 H 0.70802 0.9747 0.04481 0.0
H2578 H 0.70197 0.96304 0.06911 0.0
H2579 H 0.70288 0.95303 0.04535 0.0
H2580 H 0.6793 0.91989 0.11611 0.0
H2581 H 0.68105 0.89678 0.05803 0.0
H2582 H 0.65804 0.9395 0.09734 0.0
H2583 H 0.68003 0.95506 0.09544 0.0
H2584 H 0.67235 0.9411 0.11777 0.0
H2585 H 0.66146 0.91181 0.02607 0.0
H2586 H 0.67747 0.90597 0.02509 0.0
H2587 H 0.68327 0.92782 0.02416 0.0
C2588 C 0.02 0.70578 0.03539 0.0
C2589 C 0.0252 0.69407 0.03173 0.0
C2590 C 0.03123 0.72179 0.04367 0.0
C2591 C 0.04791 0.72599 0.04893 0.0
C2592 C 0.05334 0.71435 0.04478 0.0
C2593 C 0.04196 0.69858 0.03597 0.0
C2594 C 0.02511 0.73403 0.04734 0.0
C2595 C 0.07093 0.71824 0.05054 0.0
C2596 C 0.08196 0.77151 0.05903 0.0
C2597 C 0.08138 0.77242 0.08101 0.0
C2598 C 0.07089 0.75656 0.04828 0.0
C2599 C 0.05933 0.74213 0.05991 0.0
C2600 C 0.05877 0.74303 0.08216 0.0
C2601 C 0.06968 0.75825 0.09243 0.0
C2602 C 0.07157 0.7562 0.02454 0.0
C2603 C 0.04686 0.72783 0.09514 0.0
H2604 H 0.00706 0.70235 0.03198 0.0
H2605 H 0.04597 0.6895 0.03329 0.0
H2606 H 0.02451 0.73605 0.06449 0.0
H2607 H 0.03413 0.74644 0.0403 0.0
H2608 H 0.01235 0.72945 0.04057 0.0
H2609 H 0.0734 0.70812 0.04552 0.0
H2610 H 0.0806 0.73024 0.04322 0.0
H2611 H 0.07258 0.71986 0.06786 0.0
H2612 H 0.091 0.78255 0.05026 0.0
H2613 H 0.06941 0.75898 0.10947 0.0
H2614 H 0.05886 0.7521 0.01797 0.0
H2615 H 0.07513 0.74691 0.01928 0.0
H2616 H 0.0808 0.76869 0.01783 0.0
H2617 H 0.03355 0.72331 0.09065 0.0
H2618 H 0.04821 0.73058 0.11231 0.0
H2619 H 0.04931 0.7174 0.09197 0.0
C2620 C 0.29209 0.33212 0.04372 0.0
C2621 C 0.30051 0.3494 0.03913 0.0
C2622 C 0.27666 0.32432 0.05476 0.0
C2623 C 0.26947 0.33403 0.06133 0.0
C2624 C 0.27781 0.35143 0.05663 0.0
C2625 C 0.29324 0.35892 0.04558 0.0
C2626 C 0.2681 0.30572 0.05951 0.0
C2627 C 0.27049 0.36218 0.0634 0.0
C2628 C 0.22269 0.31321 0.07462 0.0
C2629 C 0.22303 0.3137 0.09668 0.0
C2630 C 0.2377 0.31935 0.06286 0.0
C2631 C 0.25336 0.3261 0.07347 0.0
C2632 C 0.2537 0.32605 0.09574 0.0
C2633 C 0.23852 0.31984 0.10708 0.0
C2634 C 0.23686 0.3192 0.03912 0.0
C2635 C 0.27015 0.33303 0.10759 0.0
H2636 H 0.29759 0.32465 0.03878 0.0
H2637 H 0.29962 0.37226 0.04209 0.0
H2638 H 0.26683 0.30372 0.07679 0.0
H2639 H 0.25512 0.29906 0.05289 0.0
H2640 H 0.27522 0.2999 0.05298 0.0
H2641 H 0.27842 0.37547 0.05821 0.0
H2642 H 0.25759 0.35697 0.05685 0.0
H2643 H 0.26929 0.36201 0.08081 0.0
H2644 H 0.21076 0.30863 0.06652 0.0
H2645 H 0.23877 0.32003 0.12415 0.0
H2646 H 0.2436 0.31309 0.03232 0.0
H2647 H 0.24331 0.33232 0.03319 0.0
H2648 H 0.22361 0.31247 0.0333 0.0
H2649 H 0.27726 0.32691 0.10208 0.0
H2650 H 0.26813 0.33117 0.12487 0.0
H2651 H 0.27823 0.34671 0.10445 0.0
C2652 C 0.69821 0.65485 0.36846 0.0
C2653 C 0.70323 0.6719 0.36637 0.0
C2654 C 0.70921 0.65001 0.37683 0.0
C2655 C 0.72548 0.66252 0.38379 0.0
C2656 C 0.73074 0.67977 0.38137 0.0
C2657 C 0.71961 0.68426 0.37244 0.0
C2658 C 0.70328 0.6315 0.37867 0.0
C2659 C 0.74785 0.69348 0.38897 0.0
C2660 C 0.74522 0.64954 0.4266 0.0
C2661 C 0.7574 0.64778 0.41525 0.0
C2662 C 0.73494 0.65457 0.41658 0.0
C2663 C 0.73662 0.65754 0.39459 0.0
C2664 C 0.74879 0.65557 0.38302 0.0
C2665 C 0.7592 0.65092 0.39356 0.0
C2666 C 0.72236 0.65685 0.42957 0.0
C2667 C 0.75068 0.65822 0.3595 0.0
H2668 H 0.68559 0.64526 0.36364 0.0
H2669 H 0.72349 0.69745 0.37097 0.0
H2670 H 0.71274 0.62882 0.37146 0.0
H2671 H 0.70206 0.62794 0.39551 0.0
H2672 H 0.69086 0.62341 0.37094 0.0
H2673 H 0.75026 0.70628 0.38527 0.0
H2674 H 0.74867 0.69248 0.40627 0.0
H2675 H 0.75804 0.69196 0.38172 0.0
H2676 H 0.74399 0.64728 0.44343 0.0
H2677 H 0.7686 0.64948 0.38482 0.0
H2678 H 0.70931 0.64804 0.42405 0.0
H2679 H 0.72472 0.66982 0.42757 0.0
H2680 H 0.72305 0.65461 0.4466 0.0
H2681 H 0.73845 0.64964 0.35168 0.0
H2682 H 0.76056 0.65593 0.35277 0.0
H2683 H 0.75404 0.67129 0.35569 0.0
C2684 C 0.30121 0.03148 0.38278 0.0
C2685 C 0.31047 0.02555 0.37174 0.0
C2686 C 0.30937 0.04716 0.39296 0.0
C2687 C 0.32724 0.05729 0.3919 0.0
C2688 C 0.33671 0.05138 0.3809 0.0
C2689 C 0.32821 0.03552 0.37103 0.0
C2690 C 0.29884 0.05296 0.40471 0.0
C2691 C 0.35577 0.06191 0.37928 0.0
C2692 C 0.34342 0.10368 0.40071 0.0
C2693 C 0.34781 0.10558 0.42205 0.0
C2694 C 0.33755 0.08822 0.39039 0.0
C2695 C 0.33583 0.07428 0.40179 0.0
C2696 C 0.34094 0.07634 0.42311 0.0
C2697 C 0.34698 0.09204 0.43298 0.0
C2698 C 0.33247 0.08661 0.36755 0.0
C2699 C 0.33918 0.06174 0.43582 0.0
H2700 H 0.28751 0.02381 0.38355 0.0
H2701 H 0.33546 0.03104 0.36251 0.0
H2702 H 0.30315 0.05604 0.42127 0.0
H2703 H 0.3005 0.06462 0.39743 0.0
H2704 H 0.28513 0.0433 0.40472 0.0
H2705 H 0.3613 0.05531 0.37062 0.0
H2706 H 0.35945 0.07388 0.37104 0.0
H2707 H 0.3614 0.06527 0.39523 0.0
H2708 H 0.34424 0.11423 0.39222 0.0
H2709 H 0.35028 0.09349 0.44953 0.0
H2710 H 0.31853 0.07832 0.36622 0.0
H2711 H 0.33838 0.08068 0.35829 0.0
H2712 H 0.33616 0.09899 0.36043 0.0
H2713 H 0.32554 0.05232 0.43807 0.0
H2714 H 0.34517 0.06578 0.45155 0.0
H2715 H 0.34497 0.05537 0.42729 0.0
C2716 C 0.95587 0.27214 0.38132 0.0
C2717 C 0.96392 0.28841 0.37283 0.0
C2718 C 0.93952 0.26485 0.3899 0.0
C2719 C 0.93096 0.27401 0.38986 0.0
C2720 C 0.93906 0.29052 0.38158 0.0
C2721 C 0.9555 0.29756 0.37321 0.0
C2722 C 0.93133 0.24723 0.39876 0.0
C2723 C 0.93025 0.3006 0.3812 0.0
C2724 C 0.88333 0.2459 0.39269 0.0
C2725 C 0.8803 0.24627 0.41429 0.0
C2726 C 0.89968 0.25569 0.3843 0.0
C2727 C 0.9133 0.26592 0.3979 0.0
C2728 C 0.91014 0.26703 0.41954 0.0
C2729 C 0.89362 0.25721 0.42748 0.0
C2730 C 0.90251 0.25434 0.36108 0.0
C2731 C 0.92435 0.27775 0.43454 0.0
H2732 H 0.96232 0.26502 0.38121 0.0
H2733 H 0.96162 0.31015 0.36666 0.0
H2734 H 0.92734 0.24716 0.41531 0.0
H2735 H 0.91978 0.2387 0.38965 0.0
H2736 H 0.93995 0.24206 0.39829 0.0
H2737 H 0.93854 0.31351 0.37493 0.0
H2738 H 0.91875 0.29406 0.37128 0.0
H2739 H 0.92604 0.30158 0.3973 0.0
H2740 H 0.87297 0.23755 0.38247 0.0
H2741 H 0.8913 0.25737 0.44423 0.0
H2742 H 0.90971 0.24774 0.35889 0.0
H2743 H 0.91017 0.26705 0.35407 0.0
H2744 H 0.89041 0.24729 0.35233 0.0
H2745 H 0.93252 0.27219 0.43645 0.0
H2746 H 0.91957 0.2787 0.45032 0.0
H2747 H 0.93242 0.29063 0.42814 0.0
C2748 C 0.99202 0.3671 0.31344 0.0
C2749 C 0.00844 0.37044 0.31763 0.0
C2750 C 0.98937 0.37921 0.30385 0.0
C2751 C 0.00349 0.39486 0.29785 0.0
C2752 C 0.0201 0.39839 0.30229 0.0
C2753 C 0.02237 0.38619 0.31238 0.0
C2754 C 0.97146 0.37516 0.29983 0.0
C2755 C 0.03548 0.41481 0.29575 0.0
C2756 C -0.00331 0.41781 0.25315 0.0
C2757 C -0.0043 0.43055 0.264 0.0
C2758 C -0.00053 0.40624 0.26398 0.0
C2759 C 0.0009 0.40726 0.2862 0.0
C2760 C -0.00029 0.42003 0.29723 0.0
C2761 C -0.00268 0.43167 0.28594 0.0
C2762 C 0.00101 0.39302 0.25163 0.0
C2763 C 0.00079 0.42126 0.32095 0.0
H2764 H 0.98123 0.35496 0.31763 0.0
H2765 H 0.03508 0.38875 0.31548 0.0
H2766 H 0.96951 0.38521 0.30647 0.0
H2767 H 0.96923 0.37466 0.28263 0.0
H2768 H 0.96188 0.36291 0.30679 0.0
H2769 H 0.0475 0.41575 0.3008 0.0
H2770 H 0.03573 0.41605 0.27836 0.0
H2771 H 0.03483 0.42559 0.30254 0.0
H2772 H -0.00444 0.4171 0.23614 0.0
H2773 H -0.00356 0.44151 0.29426 0.0
H2774 H 0.99084 0.38027 0.25644 0.0
H2775 H 0.01329 0.39393 0.2551 0.0
H2776 H 0.00015 0.3943 0.23437 0.0
H2777 H 0.99075 0.40931 0.32802 0.0
H2778 H -0.00064 0.43178 0.32714 0.0
H2779 H 0.01314 0.42316 0.32622 0.0
C2780 C 0.60522 0.62951 0.30427 0.0
C2781 C 0.62134 0.63615 0.31315 0.0
C2782 C 0.59725 0.61379 0.29414 0.0
C2783 C 0.60551 0.60435 0.29305 0.0
C2784 C 0.62184 0.611 0.30183 0.0
C2785 C 0.62961 0.62687 0.31168 0.0
C2786 C 0.57989 0.6072 0.28479 0.0
C2787 C 0.63097 0.60123 0.30113 0.0
C2788 C 0.57559 0.55747 0.28554 0.0
C2789 C 0.5767 0.55566 0.26375 0.0
C2790 C 0.58555 0.5731 0.29545 0.0
C2791 C 0.59673 0.58731 0.28322 0.0
C2792 C 0.59842 0.5854 0.26134 0.0
C2793 C 0.58843 0.56955 0.25187 0.0
C2794 C 0.58355 0.57456 0.31886 0.0
C2795 C 0.6101 0.60027 0.24775 0.0
H2796 H 0.59877 0.63663 0.3052 0.0
H2797 H 0.64206 0.63188 0.31855 0.0
H2798 H 0.58003 0.6042 0.26787 0.0
H2799 H 0.57057 0.59536 0.29278 0.0
H2800 H 0.57547 0.61637 0.28628 0.0
H2801 H 0.64379 0.60834 0.3082 0.0
H2802 H 0.62347 0.58918 0.30975 0.0
H2803 H 0.63224 0.59801 0.28461 0.0
H2804 H 0.56664 0.54668 0.29476 0.0
H2805 H 0.58919 0.5682 0.23499 0.0
H2806 H 0.57761 0.5823 0.3218 0.0
H2807 H 0.59612 0.58103 0.32659 0.0
H2808 H 0.57556 0.56208 0.32638 0.0
H2809 H 0.60532 0.60915 0.24705 0.0
H2810 H 0.61109 0.59642 0.23143 0.0
H2811 H 0.62296 0.6072 0.25467 0.0
C2812 C 0.36155 0.98009 0.31855 0.0
C2813 C 0.35253 0.98729 0.31032 0.0
C2814 C 0.3768 0.98314 0.30924 0.0
C2815 C 0.38302 0.99342 0.2911 0.0
C2816 C 0.37403 0.0008 0.28281 0.0
C2817 C 0.35896 -0.00226 0.29262 0.0
C2818 C 0.38618 0.97524 0.31868 0.0
C2819 C 0.38014 0.01168 0.26335 0.0
C2820 C 0.42922 0.013 0.27483 0.0
C2821 C 0.42828 0.0018 0.25911 0.0
C2822 C 0.41463 0.01026 0.28567 0.0
C2823 C 0.39871 -0.00386 0.2804 0.0
C2824 C 0.39771 0.98481 0.26452 0.0
C2825 C 0.41253 0.98773 0.25416 0.0
C2826 C 0.41623 0.02248 0.30271 0.0
C2827 C 0.38094 0.96976 0.25824 0.0
H2828 H 0.35668 0.97206 0.33229 0.0
H2829 H 0.35202 0.0033 0.28612 0.0
H2830 H 0.3868 0.96647 0.30716 0.0
H2831 H 0.39941 0.98512 0.3223 0.0
H2832 H 0.38005 0.96818 0.33333 0.0
H2833 H 0.37176 0.01662 0.25903 0.0
H2834 H 0.39313 0.02249 0.26585 0.0
H2835 H 0.38077 0.00428 0.24987 0.0
H2836 H 0.44143 0.0238 0.2788 0.0
H2837 H 0.41178 0.97916 0.24187 0.0
H2838 H 0.41087 0.01565 0.3177 0.0
H2839 H 0.40885 0.02852 0.2984 0.0
H2840 H 0.4296 0.0325 0.30538 0.0
H2841 H 0.37475 0.96159 0.27209 0.0
H2842 H 0.38236 0.96211 0.24568 0.0
H2843 H 0.37233 0.97403 0.25251 0.0
C2844 C 0.61724 0.98564 0.30216 0.0
C2845 C 0.60887 0.97219 0.31628 0.0
C2846 C 0.60819 0.99122 0.2903 0.0
C2847 C 0.59042 0.98339 0.293 0.0
C2848 C 0.58197 0.97004 0.30756 0.0
C2849 C 0.59128 0.96448 0.31885 0.0
C2850 C 0.61757 0.00526 0.27461 0.0
C2851 C 0.56308 0.9616 0.31116 0.0
C2852 C 0.56793 0.00639 0.27608 0.0
C2853 C 0.56007 -0.00223 0.25752 0.0
C2854 C 0.57803 0.00197 0.28773 0.0
C2855 C 0.58056 0.98888 0.28032 0.0
C2856 C 0.57307 0.98053 0.26117 0.0
C2857 C 0.56273 0.98496 0.25011 0.0
C2858 C 0.58555 0.01093 0.30826 0.0
C2859 C 0.57576 0.96676 0.25254 0.0
H2860 H 0.63083 0.99157 0.30002 0.0
H2861 H 0.58478 0.95416 0.32987 0.0
H2862 H 0.61255 0.00072 0.25856 0.0
H2863 H 0.61551 0.01587 0.27828 0.0
H2864 H 0.63141 0.01008 0.27447 0.0
H2865 H 0.55857 0.95192 0.32373 0.0
H2866 H 0.55962 0.97113 0.31559 0.0
H2867 H 0.55628 0.95548 0.29641 0.0
H2868 H 0.56573 0.01622 0.28182 0.0
H2869 H 0.55671 0.97841 0.23564 0.0
H2870 H 0.59949 0.01645 0.30807 0.0
H2871 H 0.58043 0.00177 0.32141 0.0
H2872 H 0.58276 0.02114 0.31152 0.0
H2873 H 0.5895 0.97131 0.25133 0.0
H2874 H 0.56997 0.96233 0.23677 0.0
H2875 H 0.57013 0.95587 0.26344 0.0
C2876 C -0.00507 0.62933 0.30099 0.0
C2877 C 0.00598 0.63626 0.31811 0.0
C2878 C 0.99201 0.61436 0.29137 0.0
C2879 C 0.00013 0.60597 0.29928 0.0
C2880 C 0.01085 0.61258 0.31702 0.0
C2881 C 0.01377 0.62775 0.32613 0.0
C2882 C 0.98067 0.60783 0.27231 0.0
C2883 C 0.0195 0.60382 0.32609 0.0
C2884 C 0.98208 0.56041 0.28232 0.0
C2885 C -0.00662 0.56207 0.26623 0.0
C2886 C 0.98433 0.57456 0.29358 0.0
C2887 C -0.00199 0.59073 0.28831 0.0
C2888 C 0.00943 0.59244 0.27203 0.0
C2889 C 0.00704 0.57806 0.26129 0.0
C2890 C 0.97207 0.57223 0.31106 0.0
C2891 C 0.02399 0.60949 0.26569 0.0
H2892 H 0.98891 0.63587 0.29466 0.0
H2893 H 0.02226 0.63302 0.33942 0.0
H2894 H 0.98809 0.60777 0.25845 0.0
H2895 H 0.97036 0.59465 0.27494 0.0
H2896 H 0.97491 0.61557 0.26852 0.0
H2897 H 0.02647 0.60994 0.34079 0.0
H2898 H 0.01004 0.59045 0.3295 0.0
H2899 H 0.0286 0.60388 0.31442 0.0
H2900 H 0.97161 0.54801 0.28624 0.0
H2901 H 0.01567 0.57933 0.2487 0.0
H2902 H 0.96533 0.57901 0.3072 0.0
H2903 H 0.97906 0.57773 0.32592 0.0
H2904 H 0.96252 0.55875 0.31377 0.0
H2905 H 0.01907 0.61764 0.26042 0.0
H2906 H 0.03177 0.60863 0.25279 0.0
H2907 H 0.03229 0.61578 0.27941 0.0
C2908 C 0.36699 0.39091 0.30517 0.0
C2909 C 0.36093 0.3752 0.31479 0.0
C2910 C 0.38269 0.39902 0.29474 0.0
C2911 C 0.39268 0.39132 0.29402 0.0
C2912 C 0.38659 0.37539 0.30347 0.0
C2913 C 0.37076 0.36748 0.31368 0.0
C2914 C 0.38869 0.41596 0.28471 0.0
C2915 C 0.39695 0.36685 0.30313 0.0
C2916 C 0.42754 0.40842 0.25255 0.0
C2917 C 0.44139 0.42053 0.26415 0.0
C2918 C 0.41169 0.39833 0.26222 0.0
C2919 C 0.40975 0.40033 0.28401 0.0
C2920 C 0.42394 0.41194 0.29598 0.0
C2921 C 0.43958 0.42195 0.28588 0.0
C2922 C 0.39684 0.38614 0.24893 0.0
C2923 C 0.42245 0.41431 0.31929 0.0
H2924 H 0.35946 0.39693 0.30582 0.0
H2925 H 0.36621 0.35535 0.32107 0.0
H2926 H 0.40052 0.42568 0.29239 0.0
H2927 H 0.39166 0.41556 0.26782 0.0
H2928 H 0.37912 0.41993 0.28595 0.0
H2929 H 0.39016 0.3542 0.31057 0.0
H2930 H 0.40022 0.36546 0.28668 0.0
H2931 H 0.40903 0.37474 0.3116 0.0
H2932 H 0.42888 0.4074 0.23572 0.0
H2933 H 0.45034 0.43119 0.2949 0.0
H2934 H 0.38758 0.39048 0.24795 0.0
H2935 H 0.39022 0.37348 0.25627 0.0
H2936 H 0.40075 0.38499 0.23269 0.0
H2937 H 0.41425 0.41978 0.32191 0.0
H2938 H 0.43496 0.42277 0.32662 0.0
H2939 H 0.4164 0.40198 0.32745 0.0
C2940 C 0.32132 0.27984 0.36592 0.0
C2941 C 0.32741 0.29582 0.37491 0.0
C2942 C 0.32559 0.26846 0.37443 0.0
C2943 C 0.33592 0.27308 0.39257 0.0
C2944 C 0.34217 0.28923 0.40162 0.0
C2945 C 0.33796 0.30045 0.39258 0.0
C2946 C 0.31893 0.25144 0.36414 0.0
C2947 C 0.35299 0.29454 0.42117 0.0
C2948 C 0.33257 0.23838 0.42777 0.0
C2949 C 0.3475 0.23843 0.4227 0.0
C2950 C 0.32863 0.24957 0.41803 0.0
C2951 C 0.33976 0.26086 0.40257 0.0
C2952 C 0.35475 0.26079 0.39718 0.0
C2953 C 0.35853 0.24967 0.40748 0.0
C2954 C 0.3127 0.24948 0.42452 0.0
C2955 C 0.36679 0.27246 0.38055 0.0
H2956 H 0.31323 0.27623 0.3522 0.0
H2957 H 0.34265 0.31276 0.39967 0.0
H2958 H 0.32958 0.24939 0.36027 0.0
H2959 H 0.31043 0.24136 0.37523 0.0
H2960 H 0.31181 0.25012 0.3495 0.0
H2961 H 0.35699 0.30762 0.42611 0.0
H2962 H 0.34586 0.2859 0.43432 0.0
H2963 H 0.36449 0.29368 0.41839 0.0
H2964 H 0.32412 0.22978 0.43969 0.0
H2965 H 0.37001 0.24958 0.40345 0.0
H2966 H 0.30445 0.24693 0.41065 0.0
H2967 H 0.316 0.26205 0.43076 0.0
H2968 H 0.30538 0.23987 0.43675 0.0
H2969 H 0.35992 0.27063 0.36556 0.0
H2970 H 0.37754 0.27037 0.37761 0.0
H2971 H 0.37194 0.28575 0.38546 0.0
C2972 C 0.68484 0.03895 0.36975 0.0
C2973 C 0.69141 0.02836 0.36604 0.0
C2974 C 0.69515 0.05536 0.3775 0.0
C2975 C 0.71234 0.06116 0.38207 0.0
C2976 C 0.71913 0.05063 0.37797 0.0
C2977 C 0.70861 0.0344 0.36977 0.0
C2978 C 0.68756 0.06637 0.38122 0.0
C2979 C 0.73734 0.05627 0.38296 0.0
C2980 C 0.74396 0.1078 0.38939 0.0
C2981 C 0.74436 0.10932 0.41137 0.0
C2982 C 0.73325 0.09228 0.37957 0.0
C2983 C 0.72303 0.07792 0.39209 0.0
C2984 C 0.7233 0.07946 0.41432 0.0
C2985 C 0.73386 0.0952 0.42368 0.0
C2986 C 0.73302 0.0912 0.35583 0.0
C2987 C 0.7128 0.06438 0.42823 0.0
H2988 H 0.67156 0.03436 0.36673 0.0
H2989 H 0.71372 0.02621 0.36703 0.0
H2990 H 0.68748 0.06886 0.39832 0.0
H2991 H 0.69537 0.07872 0.37337 0.0
H2992 H 0.67437 0.06047 0.3753 0.0
H2993 H 0.74078 0.04675 0.37829 0.0
H2994 H 0.74598 0.06826 0.37478 0.0
H2995 H 0.73952 0.05868 0.40012 0.0
H2996 H 0.75206 0.11878 0.3799 0.0
H2997 H 0.73434 0.09638 0.4407 0.0
H2998 H 0.71985 0.08567 0.35004 0.0
H2999 H 0.73768 0.08276 0.3506 0.0
H3000 H 0.741 0.10371 0.34838 0.0
H3001 H 0.69919 0.05854 0.42426 0.0
H3002 H 0.71441 0.06774 0.44522 0.0
H3003 H 0.71644 0.05474 0.42544 0.0
C3004 C 0.96676 0.67201 0.39218 0.0
C3005 C 0.9691 0.68151 0.37404 0.0
C3006 C 0.95155 0.66514 0.40369 0.0
C3007 C 0.93825 0.66732 0.39633 0.0
C3008 C 0.94036 0.67632 0.37748 0.0
C3009 C 0.95593 0.68362 0.36679 0.0
C3010 C 0.94998 0.65615 0.42411 0.0
C3011 C 0.92627 0.67842 0.36875 0.0
C3012 C 0.89358 0.63888 0.41703 0.0
C3013 C 0.89145 0.64986 0.43047 0.0
C3014 C 0.90875 0.64434 0.40584 0.0
C3015 C 0.9224 0.66097 0.40881 0.0
C3016 C 0.92067 0.67188 0.42302 0.0
C3017 C 0.90514 0.66634 0.4333 0.0
C3018 C 0.91 0.63249 0.39038 0.0
C3019 C 0.93511 0.68958 0.42704 0.0
H3020 H 0.97707 0.67054 0.3978 0.0
H3021 H 0.95777 0.69087 0.35262 0.0
H3022 H 0.94823 0.66307 0.43734 0.0
H3023 H 0.93866 0.64332 0.42383 0.0
H3024 H 0.96131 0.65512 0.42731 0.0
H3025 H 0.92945 0.68443 0.35297 0.0
H3026 H 0.91445 0.66599 0.3675 0.0
H3027 H 0.92364 0.68632 0.37957 0.0
H3028 H 0.88333 0.62602 0.41502 0.0
H3029 H 0.90371 0.67515 0.44318 0.0
H3030 H 0.9208 0.63083 0.39443 0.0
H3031 H 0.91244 0.63796 0.37433 0.0
H3032 H 0.89826 0.61991 0.39001 0.0
H3033 H 0.94683 0.68943 0.4308 0.0
H3034 H 0.93231 0.69581 0.4402 0.0
H3035 H 0.93771 0.6973 0.41266 0.0
C3036 C 0.3644 0.99128 0.7125 0.0
C3037 C 0.36957 0.00714 0.70384 0.0
C3038 C 0.37613 0.98778 0.72172 0.0
C3039 C 0.39344 0.00051 0.72252 0.0
C3040 C 0.39879 0.01647 0.71349 0.0
C3041 C 0.38679 0.01956 0.70414 0.0
C3042 C 0.36995 0.97053 0.73092 0.0
C3043 C 0.41711 0.0304 0.71421 0.0
C3044 C 0.41973 -0.00339 0.76562 0.0
C3045 C 0.42852 0.99016 0.75452 0.0
C3046 C 0.4085 0.00028 0.75533 0.0
C3047 C 0.40581 -0.00275 0.73343 0.0
C3048 C 0.41462 0.99077 0.7221 0.0
C3049 C 0.42593 0.98738 0.73276 0.0
C3050 C 0.39939 0.00725 0.76796 0.0
C3051 C 0.412 0.98727 0.69876 0.0
H3052 H 0.35112 0.98159 0.71224 0.0
H3053 H 0.39086 0.03186 0.69755 0.0
H3054 H 0.37715 0.96494 0.724 0.0
H3055 H 0.37221 0.97161 0.74814 0.0
H3056 H 0.35623 0.96179 0.72812 0.0
H3057 H 0.41931 0.0419 0.70587 0.0
H3058 H 0.42112 0.03376 0.73083 0.0
H3059 H 0.42531 0.02608 0.707 0.0
H3060 H 0.42142 -0.00145 0.78248 0.0
H3061 H 0.43284 0.98266 0.72396 0.0
H3062 H 0.38552 -0.00165 0.76737 0.0
H3063 H 0.40183 0.01931 0.76103 0.0
H3064 H 0.40337 0.00948 0.78471 0.0
H3065 H 0.39848 0.97799 0.69561 0.0
H3066 H 0.41987 0.98228 0.69223 0.0
H3067 H 0.41516 -0.00102 0.69022 0.0
C3068 C 0.96452 0.36618 0.69426 0.0
C3069 C 0.97192 0.35619 0.69629 0.0
C3070 C 0.9704 0.38103 0.70604 0.0
C3071 C 0.98374 0.38579 0.72054 0.0
C3072 C 0.99137 0.37583 0.72254 0.0
C3073 C 0.98548 0.36122 0.7102 0.0
C3074 C 0.96216 0.3915 0.70314 0.0
C3075 C 0.00539 0.38034 0.73814 0.0
C3076 C 0.00622 0.43117 0.73969 0.0
C3077 C -0.00297 0.42973 0.75804 0.0
C3078 C 0.00232 0.41689 0.7275 0.0
C3079 C 0.98916 0.40084 0.73415 0.0
C3080 C 0.98038 0.39931 0.75322 0.0
C3081 C 0.98429 0.41382 0.76482 0.0
C3082 C 0.01174 0.41906 0.70707 0.0
C3083 C 0.96651 0.38239 0.76107 0.0
H3084 H 0.95415 0.36243 0.68338 0.0
H3085 H 0.99118 0.35347 0.71189 0.0
H3086 H 0.95574 0.39165 0.71795 0.0
H3087 H 0.97192 0.40473 0.69953 0.0
H3088 H 0.95268 0.38662 0.69028 0.0
H3089 H 0.01034 0.37157 0.73732 0.0
H3090 H 0.01601 0.39333 0.73528 0.0
H3091 H 0.00064 0.38006 0.75435 0.0
H3092 H 0.016 0.44354 0.73445 0.0
H3093 H 0.97729 0.41279 0.77913 0.0
H3094 H 0.00284 0.41553 0.69368 0.0
H3095 H 0.01699 0.41055 0.70657 0.0
H3096 H 0.02227 0.43222 0.70476 0.0
H3097 H 0.9556 0.37722 0.75016 0.0
H3098 H 0.96199 0.3832 0.77708 0.0
H3099 H 0.97108 0.37332 0.76144 0.0
C3100 C 0.63017 0.62626 0.71407 0.0
C3101 C 0.63574 0.61786 0.7007 0.0
C3102 C 0.61497 0.61732 0.72546 0.0
C3103 C 0.60498 0.59963 0.72301 0.0
C3104 C 0.61045 0.59112 0.70935 0.0
C3105 C 0.62587 0.60032 0.69854 0.0
C3106 C 0.6097 0.62674 0.74026 0.0
C3107 C 0.59995 0.57229 0.70604 0.0
C3108 C 0.57301 0.57193 0.76428 0.0
C3109 C 0.55784 0.56906 0.75541 0.0
C3110 C 0.58856 0.58247 0.75431 0.0
C3111 C 0.58881 0.58991 0.73479 0.0
C3112 C 0.5735 0.58728 0.72599 0.0
C3113 C 0.55815 0.57699 0.73657 0.0
C3114 C 0.60467 0.5853 0.76441 0.0
C3115 C 0.57325 0.59477 0.70502 0.0
H3116 H 0.63783 0.63982 0.71588 0.0
H3117 H 0.63007 0.59381 0.68808 0.0
H3118 H 0.59724 0.62486 0.73548 0.0
H3119 H 0.60818 0.6217 0.75645 0.0
H3120 H 0.61904 0.64047 0.7406 0.0
H3121 H 0.60577 0.56768 0.69437 0.0
H3122 H 0.59837 0.56569 0.72116 0.0
H3123 H 0.58711 0.56878 0.70052 0.0
H3124 H 0.57265 0.5658 0.77895 0.0
H3125 H 0.54632 0.5746 0.72975 0.0
H3126 H 0.61403 0.59898 0.7655 0.0
H3127 H 0.61043 0.57953 0.75452 0.0
H3128 H 0.60241 0.57978 0.78044 0.0
H3129 H 0.58194 0.60861 0.70527 0.0
H3130 H 0.56037 0.59207 0.70079 0.0
H3131 H 0.57784 0.58958 0.6925 0.0
C3132 C 0.67376 0.71574 0.64329 0.0
C3133 C 0.66228 0.69889 0.64835 0.0
C3134 C 0.66815 0.72592 0.63445 0.0
C3135 C 0.65061 0.71917 0.63105 0.0
C3136 C 0.63889 0.70239 0.63702 0.0
C3137 C 0.6449 0.69238 0.64541 0.0
C3138 C 0.68104 0.7437 0.628 0.0
C3139 C 0.62007 0.6949 0.63408 0.0
C3140 C 0.63707 0.75116 0.62136 0.0
C3141 C 0.63592 0.75074 0.59936 0.0
C3142 C 0.64122 0.74048 0.632 0.0
C3143 C 0.64466 0.72944 0.62027 0.0
C3144 C 0.64318 0.72875 0.59805 0.0
C3145 C 0.63866 0.73932 0.58786 0.0
C3146 C 0.64231 0.74128 0.65573 0.0
C3147 C 0.647 0.71732 0.58497 0.0
H3148 H 0.68722 0.72078 0.64545 0.0
H3149 H 0.63598 0.67938 0.64945 0.0
H3150 H 0.68051 0.74504 0.61071 0.0
H3151 H 0.67806 0.75278 0.63557 0.0
H3152 H 0.69415 0.74719 0.63227 0.0
H3153 H 0.61259 0.68217 0.64117 0.0
H3154 H 0.61591 0.70322 0.64126 0.0
H3155 H 0.61714 0.69391 0.61704 0.0
H3156 H 0.63486 0.75998 0.6302 0.0
H3157 H 0.63792 0.73916 0.57082 0.0
H3158 H 0.6556 0.74617 0.66063 0.0
H3159 H 0.63456 0.72848 0.66248 0.0
H3160 H 0.63792 0.74954 0.66257 0.0
H3161 H 0.66041 0.72086 0.58721 0.0
H3162 H 0.64483 0.71799 0.56791 0.0
H3163 H 0.63899 0.70408 0.59021 0.0
C3164 C 0.29533 0.9585 0.64752 0.0
C3165 C 0.28724 0.96796 0.64789 0.0
C3166 C 0.2877 0.94254 0.63789 0.0
C3167 C 0.27171 0.93601 0.62819 0.0
C3168 C 0.26362 0.94563 0.62819 0.0
C3169 C 0.27143 0.96142 0.63814 0.0
C3170 C 0.29661 0.93256 0.6384 0.0
C3171 C 0.24664 0.93918 0.6178 0.0
C3172 C 0.256 0.90093 0.58744 0.0
C3173 C 0.24384 0.88711 0.59906 0.0
C3174 C 0.2656 0.91686 0.59688 0.0
C3175 C 0.26309 0.91892 0.61848 0.0
C3176 C 0.25139 0.90481 0.63048 0.0
C3177 C 0.24183 0.8891 0.62059 0.0
C3178 C 0.27783 0.93162 0.5835 0.0
C3179 C 0.24853 0.90643 0.65362 0.0
H3180 H 0.30753 0.96343 0.65507 0.0
H3181 H 0.26513 0.96869 0.6382 0.0
H3182 H 0.28866 0.92056 0.64693 0.0
H3183 H 0.29845 0.92927 0.62215 0.0
H3184 H 0.30915 0.93956 0.6462 0.0
H3185 H 0.24235 0.94848 0.61851 0.0
H3186 H 0.24732 0.93607 0.60105 0.0
H3187 H 0.23695 0.92743 0.62562 0.0
H3188 H 0.25746 0.89943 0.57074 0.0
H3189 H 0.23254 0.87837 0.62962 0.0
H3190 H 0.29047 0.93842 0.59102 0.0
H3191 H 0.27327 0.94066 0.58217 0.0
H3192 H 0.27924 0.92769 0.5674 0.0
H3193 H 0.26079 0.91277 0.66208 0.0
H3194 H 0.24009 0.89402 0.66108 0.0
H3195 H 0.24271 0.91437 0.65565 0.0
C3196 C 0.03729 0.34541 0.64191 0.0
C3197 C 0.02575 0.3281 0.64395 0.0
C3198 C 0.05381 0.35134 0.63442 0.0
C3199 C 0.05876 0.33965 0.62833 0.0
C3200 C 0.04723 0.32216 0.63065 0.0
C3201 C 0.03092 0.3166 0.63868 0.0
C3202 C 0.06587 0.37009 0.63266 0.0
C3203 C 0.05193 0.3093 0.62395 0.0
C3204 C 0.09375 0.3535 0.58744 0.0
C3205 C 0.10738 0.3558 0.59974 0.0
C3206 C 0.07786 0.34828 0.59657 0.0
C3207 C 0.07569 0.34566 0.6186 0.0
C3208 C 0.08958 0.34843 0.63118 0.0
C3209 C 0.10523 0.35327 0.62153 0.0
C3210 C 0.0633 0.34514 0.58257 0.0
C3211 C 0.08786 0.34616 0.65476 0.0
H3212 H 0.03337 0.35434 0.64613 0.0
H3213 H 0.022 0.3032 0.64012 0.0
H3214 H 0.07795 0.37367 0.64073 0.0
H3215 H 0.06894 0.37363 0.61587 0.0
H3216 H 0.06051 0.37749 0.63959 0.0
H3217 H 0.04165 0.29619 0.62723 0.0
H3218 H 0.05478 0.31049 0.60682 0.0
H3219 H 0.06354 0.31162 0.63221 0.0
H3220 H 0.09541 0.35528 0.57054 0.0
H3221 H 0.11584 0.35511 0.631 0.0
H3222 H 0.05811 0.35319 0.58759 0.0
H3223 H 0.05292 0.33184 0.58406 0.0
H3224 H 0.0671 0.34774 0.56574 0.0
H3225 H 0.08292 0.35393 0.66165 0.0
H3226 H 0.1001 0.34972 0.66238 0.0
H3227 H 0.0786 0.33283 0.65859 0.0
C3228 C 0.28733 0.32841 0.64125 0.0
C3229 C 0.2781 0.31115 0.64595 0.0
C3230 C 0.27969 0.33625 0.63093 0.0
C3231 C 0.26243 0.32658 0.62516 0.0
C3232 C 0.25303 0.3092 0.62995 0.0
C3233 C 0.26097 0.30169 0.6403 0.0
C3234 C 0.29009 0.35483 0.6261 0.0
C3235 C 0.23459 0.29847 0.62402 0.0
C3236 C 0.2367 0.34748 0.61452 0.0
C3237 C 0.23614 0.34717 0.59245 0.0
C3238 C 0.24563 0.34126 0.62539 0.0
C3239 C 0.25416 0.33454 0.6139 0.0
C3240 C 0.25406 0.33465 0.59161 0.0
C3241 C 0.24505 0.34098 0.58116 0.0
C3242 C 0.24548 0.34136 0.64917 0.0
C3243 C 0.26308 0.32767 0.57882 0.0
H3244 H 0.30057 0.33583 0.64557 0.0
H3245 H 0.25373 0.28835 0.64385 0.0
H3246 H 0.29046 0.35683 0.60886 0.0
H3247 H 0.28413 0.36153 0.63341 0.0
H3248 H 0.3033 0.36061 0.6319 0.0
H3249 H 0.22903 0.28517 0.62907 0.0
H3250 H 0.22716 0.30367 0.6313 0.0
H3251 H 0.23322 0.2987 0.6067 0.0
H3252 H 0.22969 0.35209 0.62334 0.0
H3253 H 0.24486 0.34095 0.56409 0.0
H3254 H 0.25861 0.34752 0.65526 0.0
H3255 H 0.23871 0.32823 0.65508 0.0
H3256 H 0.23918 0.34801 0.65572 0.0
H3257 H 0.27657 0.33383 0.58353 0.0
H3258 H 0.2625 0.32948 0.56163 0.0
H3259 H 0.25727 0.314 0.58193 0.0
C3260 C 0.65124 0.95517 0.64317 0.0
C3261 C 0.66865 0.96628 0.64588 0.0
C3262 C 0.64514 0.939 0.63475 0.0
C3263 C 0.65677 0.93397 0.62851 0.0
C3264 C 0.67436 0.94504 0.63151 0.0
C3265 C 0.68008 0.96102 0.64038 0.0
C3266 C 0.62628 0.92741 0.6322 0.0
C3267 C 0.68716 0.9402 0.62477 0.0
C3268 C 0.64242 0.88781 0.62007 0.0
C3269 C 0.64058 0.88633 0.59815 0.0
C3270 C 0.64724 0.90314 0.63026 0.0
C3271 C 0.65062 0.91736 0.61814 0.0
C3272 C 0.64858 0.91585 0.596 0.0
C3273 C 0.64342 0.90028 0.58628 0.0
C3274 C 0.64892 0.90417 0.65393 0.0
C3275 C 0.65231 0.9308 0.58252 0.0
H3276 H 0.64235 0.95916 0.64754 0.0
H3277 H 0.69356 0.9696 0.64235 0.0
H3278 H 0.62314 0.92488 0.61524 0.0
H3279 H 0.62219 0.91512 0.63982 0.0
H3280 H 0.61889 0.93281 0.63911 0.0
H3281 H 0.70036 0.95014 0.62854 0.0
H3282 H 0.68442 0.92835 0.6326 0.0
H3283 H 0.68626 0.93784 0.60754 0.0
H3284 H 0.64013 0.87695 0.62921 0.0
H3285 H 0.64216 0.89914 0.5693 0.0
H3286 H 0.64119 0.90919 0.6608 0.0
H3287 H 0.66229 0.91302 0.6583 0.0
H3288 H 0.64486 0.89173 0.66112 0.0
H3289 H 0.64442 0.93614 0.58768 0.0
H3290 H 0.64991 0.92745 0.56555 0.0
H3291 H 0.66576 0.94084 0.5844 0.0
C3292 C 0.03684 0.69718 0.64235 0.0
C3293 C 0.02708 0.70497 0.6419 0.0
C3294 C 0.05315 0.705 0.63336 0.0
C3295 C 0.05976 0.72089 0.62356 0.0
C3296 C 0.04982 0.72863 0.62268 0.0
C3297 C 0.03366 0.72062 0.63193 0.0
C3298 C 0.06344 0.69644 0.63471 0.0
C3299 C 0.05635 0.74551 0.6122 0.0
C3300 C 0.10688 0.75178 0.61826 0.0
C3301 C 0.10968 0.75027 0.59684 0.0
C3302 C 0.09086 0.74164 0.62743 0.0
C3303 C 0.07727 0.72985 0.61479 0.0
C3304 C 0.0802 0.72777 0.59335 0.0
C3305 C 0.09642 0.73797 0.58464 0.0
C3306 C 0.08831 0.7441 0.65041 0.0
C3307 C 0.06602 0.71541 0.57934 0.0
H3308 H 0.03187 0.6851 0.65005 0.0
H3309 H 0.02618 0.72669 0.63136 0.0
H3310 H 0.06754 0.69498 0.61875 0.0
H3311 H 0.07507 0.70437 0.644 0.0
H3312 H 0.05625 0.68383 0.64218 0.0
H3313 H 0.04678 0.7495 0.61213 0.0
H3314 H 0.06779 0.75527 0.62052 0.0
H3315 H 0.06014 0.74499 0.5957 0.0
H3316 H 0.11718 0.76115 0.62777 0.0
H3317 H 0.09852 0.73688 0.56803 0.0
H3318 H 0.08186 0.73181 0.65867 0.0
H3319 H 0.08003 0.74961 0.65188 0.0
H3320 H 0.10046 0.75259 0.65849 0.0
H3321 H 0.0591 0.70281 0.58683 0.0
H3322 H 0.0707 0.71414 0.56363 0.0
H3323 H 0.0568 0.71967 0.57706 0.0
C3324 C -0.004 0.62787 0.72081 0.0
C3325 C 0.98627 0.62384 0.70245 0.0
C3326 C -0.00169 0.61578 0.73109 0.0
C3327 C 0.99094 0.59931 0.72263 0.0
C3328 C 0.98143 0.59525 0.70382 0.0
C3329 C 0.97908 0.60753 0.69404 0.0
C3330 C 0.00835 0.62054 0.75127 0.0
C3331 C 0.97361 0.57789 0.69415 0.0
C3332 C 0.00931 0.57283 0.74126 0.0
C3333 C -0.00265 0.56256 0.75641 0.0
C3334 C 0.00718 0.58457 0.72976 0.0
C3335 C -0.0071 0.58626 0.7338 0.0
C3336 C 0.98077 0.57589 0.74907 0.0
C3337 C 0.98307 0.56406 0.76008 0.0
C3338 C 0.02025 0.59522 0.71337 0.0
C3339 C 0.96553 0.57751 0.75409 0.0
H3340 H 0.00152 0.64043 0.72747 0.0
H3341 H 0.9716 0.60437 0.67982 0.0
H3342 H 0.00023 0.61244 0.76432 0.0
H3343 H 0.01916 0.61838 0.74964 0.0
H3344 H 0.01335 0.63393 0.75569 0.0
H3345 H 0.96725 0.57698 0.67898 0.0
H3346 H 0.98349 0.5745 0.6914 0.0
H3347 H 0.96415 0.56843 0.70517 0.0
H3348 H 0.02026 0.57154 0.73827 0.0
H3349 H 0.97389 0.55621 0.77192 0.0
H3350 H 0.02642 0.60872 0.71785 0.0
H3351 H 0.01405 0.59378 0.69795 0.0
H3352 H 0.0302 0.59182 0.71146 0.0
H3353 H 0.96973 0.59042 0.75988 0.0
H3354 H 0.95716 0.56834 0.7662 0.0
H3355 H 0.95801 0.57552 0.73964 0.0
C3356 C 0.35703 0.36279 0.71914 0.0
C3357 C 0.36093 0.35637 0.70125 0.0
C3358 C 0.36896 0.37833 0.72789 0.0
C3359 C 0.38513 0.38782 0.71836 0.0
C3360 C 0.38906 0.38158 0.70007 0.0
C3361 C 0.37694 0.36584 0.6918 0.0
C3362 C 0.36436 0.38447 0.74757 0.0
C3363 C 0.4061 0.39146 0.68933 0.0
C3364 C 0.41028 0.43429 0.73264 0.0
C3365 C 0.42137 0.43451 0.74786 0.0
C3366 C 0.39869 0.41924 0.72248 0.0
C3367 C 0.39803 0.40405 0.72796 0.0
C3368 C 0.40927 0.40424 0.74327 0.0
C3369 C 0.42088 0.4195 0.75294 0.0
C3370 C 0.38705 0.41955 0.70604 0.0
C3371 C 0.40877 0.38827 0.74977 0.0
H3372 H 0.3447 0.35551 0.72657 0.0
H3373 H 0.37999 0.36098 0.67792 0.0
H3374 H 0.37317 0.38609 0.76046 0.0
H3375 H 0.36572 0.39695 0.74471 0.0
H3376 H 0.35119 0.37564 0.75294 0.0
H3377 H 0.40692 0.38518 0.67475 0.0
H3378 H 0.40865 0.40423 0.68525 0.0
H3379 H 0.41624 0.3931 0.70021 0.0
H3380 H 0.41078 0.44594 0.72857 0.0
H3381 H 0.42934 0.41964 0.76488 0.0
H3382 H 0.37368 0.41177 0.71132 0.0
H3383 H 0.38833 0.41398 0.6911 0.0
H3384 H 0.38972 0.43252 0.70287 0.0
H3385 H 0.39616 0.3793 0.75657 0.0
H3386 H 0.41862 0.39064 0.76159 0.0
H3387 H 0.41064 0.38207 0.73583 0.0
C3388 C 0.63545 0.02755 0.71273 0.0
C3389 C 0.6403 0.01726 0.70213 0.0
C3390 C 0.61975 0.02061 0.72304 0.0
C3391 C 0.60853 0.00297 0.7225 0.0
C3392 C 0.6134 0.99247 0.71206 0.0
C3393 C 0.6293 -0.00026 0.7021 0.0
C3394 C 0.61507 0.03219 0.73426 0.0
C3395 C 0.60167 0.97362 0.71097 0.0
C3396 C 0.573 0.98524 0.76298 0.0
C3397 C 0.55986 0.98499 0.75157 0.0
C3398 C 0.58883 0.99063 0.75356 0.0
C3399 C 0.59144 -0.00434 0.73219 0.0
C3400 C 0.57795 0.99472 0.72038 0.0
C3401 C 0.56234 0.98949 0.73027 0.0
C3402 C 0.60298 0.99164 0.76671 0.0
C3403 C 0.58017 -0.00026 0.69747 0.0
H3404 H 0.64394 0.04109 0.71296 0.0
H3405 H 0.63294 0.99171 0.69388 0.0
H3406 H 0.60386 0.03147 0.72665 0.0
H3407 H 0.61155 0.02817 0.75086 0.0
H3408 H 0.62556 0.04553 0.73411 0.0
H3409 H 0.6076 0.96717 0.70286 0.0
H3410 H 0.59781 0.96836 0.72706 0.0
H3411 H 0.58997 0.97068 0.70242 0.0
H3412 H 0.5711 0.98189 0.77952 0.0
H3413 H 0.5521 0.98915 0.72143 0.0
H3414 H 0.61314 0.00501 0.76846 0.0
H3415 H 0.60867 0.98493 0.75876 0.0
H3416 H 0.59857 0.98619 0.78265 0.0
H3417 H 0.5894 0.01343 0.69602 0.0
H3418 H 0.56807 -0.00297 0.69013 0.0
H3419 H 0.58535 0.99299 0.68848 0.0
loop_
_geom_bond_atom_site_label_1
_geom_bond_atom_site_label_2
_geom_bond_distance
_geom_bond_site_symmetry_2
_ccdc_geom_bond_type
C0 O1 1.306 1_556 S
C0 O3 1.160 . S
O1 C0 1.306 1_554 S
O1 Cd2 2.228 . S
Cd2 O1 2.228 . S
Cd2 O6 2.273 . S
Cd2 O10 2.277 1_554 S
O3 C0 1.160 . S
O3 Cd4 2.203 1_656 S
Cd4 O3 2.203 1_454 S
Cd4 O6 2.411 1_455 S
Cd4 O7 2.333 . S
Cd4 O8 2.352 . S
Cd4 O12 2.277 1_554 S
Cd4 O13 2.356 . S
C5 O10 1.209 1_455 S
C5 O12 1.226 . S
O6 Cd2 2.273 . S
O6 Cd4 2.411 1_655 S
O6 C9 1.299 1_655 S
O7 Cd4 2.333 . S
O7 C9 1.268 . S
O8 Cd4 2.352 . S
O8 C11 1.258 . S
C9 O6 1.299 1_455 S
C9 O7 1.268 . S
O10 Cd2 2.277 1_556 S
O10 C5 1.209 1_655 S
C11 O8 1.258 . S
C11 O13 1.282 . S
O12 Cd4 2.277 1_556 S
O12 C5 1.226 . S
O13 Cd4 2.356 . S
O13 C11 1.282 . S
C14 O15 1.306 . S
C14 O17 1.160 . S
O15 C14 1.306 . S
O15 Cd16 2.228 . S
Cd16 O15 2.228 . S
Cd16 O20 2.273 1_554 S
Cd16 O24 2.277 . S
O17 C14 1.160 . S
O17 Cd18 2.203 . S
Cd18 O17 2.203 . S
Cd18 O20 2.411 1_554 S
Cd18 O21 2.333 1_554 S
Cd18 O22 2.352 1_554 S
Cd18 O26 2.277 . S
Cd18 O27 2.356 . S
C19 O24 1.209 . S
C19 O26 1.226 . S
O20 Cd16 2.273 1_556 S
O20 Cd18 2.411 1_556 S
O20 C23 1.320 . S
O21 Cd18 2.333 1_556 S
O21 C23 1.214 . S
O22 Cd18 2.352 1_556 S
O22 C25 1.258 . S
C23 O20 1.320 . S
C23 O21 1.214 . S
O24 Cd16 2.277 . S
O24 C19 1.209 . S
C25 O22 1.258 . S
C25 O27 1.282 1_556 S
O26 Cd18 2.277 . S
O26 C19 1.226 . S
O27 Cd18 2.356 . S
O27 C25 1.282 1_554 S
C28 O29 1.306 . S
C28 O31 1.160 . S
O29 C28 1.306 . S
O29 Cd30 2.228 . S
Cd30 O29 2.228 . S
Cd30 O34 2.273 1_554 S
Cd30 O38 2.277 . S
O31 C28 1.160 . S
O31 Cd32 2.203 1_565 S
Cd32 O31 2.203 1_545 S
Cd32 O34 2.411 1_544 S
Cd32 O35 2.333 1_554 S
Cd32 O36 2.352 1_554 S
Cd32 O40 2.277 . S
Cd32 O41 2.356 . S
C33 O38 1.209 1_545 S
C33 O40 1.226 . S
O34 Cd30 2.273 1_556 S
O34 Cd32 2.411 1_566 S
O34 C37 1.320 1_565 S
O35 Cd32 2.333 1_556 S
O35 C37 1.214 . S
O36 Cd32 2.352 1_556 S
O36 C39 1.258 . S
C37 O34 1.320 1_545 S
C37 O35 1.214 . S
O38 Cd30 2.277 . S
O38 C33 1.209 1_565 S
C39 O36 1.258 . S
C39 O41 1.282 1_556 S
O40 Cd32 2.277 . S
O40 C33 1.226 . S
O41 Cd32 2.356 . S
O41 C39 1.282 1_554 S
C42 O43 1.306 1_556 S
C42 O45 1.160 . S
O43 C42 1.306 1_554 S
O43 Cd44 2.228 . S
Cd44 O43 2.228 . S
Cd44 O48 2.273 . S
Cd44 O52 2.277 1_554 S
O45 C42 1.160 . S
O45 Cd46 2.203 1_656 S
Cd46 O45 2.203 1_454 S
Cd46 O48 2.411 1_455 S
Cd46 O49 2.333 . S
Cd46 O50 2.352 . S
Cd46 O54 2.277 1_554 S
Cd46 O55 2.356 . S
C47 O52 1.209 1_455 S
C47 O54 1.226 . S
O48 Cd44 2.273 . S
O48 Cd46 2.411 1_655 S
O48 C51 1.369 . S
O49 Cd46 2.333 . S
O49 C51 1.174 1_455 S
O50 Cd46 2.352 . S
O50 C53 1.258 . S
C51 O48 1.369 . S
C51 O49 1.174 1_655 S
O52 Cd44 2.277 1_556 S
O52 C47 1.209 1_655 S
C53 O50 1.258 . S
C53 O55 1.282 . S
O54 Cd46 2.277 1_556 S
O54 C47 1.226 . S
O55 Cd46 2.356 . S
O55 C53 1.282 . S
C56 O57 1.306 . S
C56 O59 1.160 . S
O57 C56 1.306 . S
O57 Cd58 2.228 . S
Cd58 O57 2.228 . S
Cd58 O62 2.273 1_554 S
Cd58 O66 2.277 . S
O59 C56 1.160 . S
O59 Cd60 2.203 . S
Cd60 O59 2.203 . S
Cd60 O62 2.411 1_554 S
Cd60 O63 2.333 1_554 S
Cd60 O64 2.352 1_554 S
Cd60 O68 2.277 . S
Cd60 O69 2.356 . S
C61 O66 1.209 . S
C61 O68 1.226 . S
O62 Cd58 2.273 1_556 S
O62 Cd60 2.411 1_556 S
O62 C65 1.320 . S
O63 Cd60 2.333 1_556 S
O63 C65 1.214 . S
O64 Cd60 2.352 1_556 S
O64 C67 1.258 . S
C65 O62 1.320 . S
C65 O63 1.214 . S
O66 Cd58 2.277 . S
O66 C61 1.209 . S
C67 O64 1.258 . S
C67 O69 1.282 1_556 S
O68 Cd60 2.277 . S
O68 C61 1.226 . S
O69 Cd60 2.356 . S
O69 C67 1.282 1_554 S
C70 O71 1.306 1_556 S
C70 O73 1.160 . S
O71 C70 1.306 1_554 S
O71 Cd72 2.228 . S
Cd72 O71 2.228 . S
Cd72 O76 2.273 . S
Cd72 O80 2.277 1_554 S
O73 C70 1.160 . S
O73 Cd74 2.203 1_546 S
Cd74 O73 2.203 1_564 S
Cd74 O76 2.411 1_565 S
Cd74 O77 2.333 . S
Cd74 O78 2.352 . S
Cd74 O82 2.277 1_554 S
Cd74 O83 2.356 . S
C75 O80 1.209 1_565 S
C75 O82 1.226 . S
O76 Cd72 2.273 . S
O76 Cd74 2.411 1_545 S
O76 C79 1.320 . S
O77 Cd74 2.333 . S
O77 C79 1.214 1_565 S
O78 Cd74 2.352 . S
O78 C81 1.258 . S
C79 O76 1.320 . S
C79 O77 1.214 1_545 S
O80 Cd72 2.277 1_556 S
O80 C75 1.209 1_545 S
C81 O78 1.258 . S
C81 O83 1.282 . S
O82 Cd74 2.277 1_556 S
O82 C75 1.226 . S
O83 Cd74 2.356 . S
O83 C81 1.282 . S
C84 O85 1.306 . S
C84 O87 1.160 . S
O85 C84 1.306 . S
O85 Cd86 2.228 . S
Cd86 O85 2.228 . S
Cd86 O90 2.273 . S
Cd86 O94 2.277 . S
O87 C84 1.160 . S
O87 Cd88 2.203 . S
Cd88 O87 2.203 . S
Cd88 O90 2.411 . S
Cd88 O91 2.333 . S
Cd88 O92 2.352 . S
Cd88 O96 2.277 . S
Cd88 O97 2.356 . S
C89 O94 1.209 . S
C89 O96 1.226 . S
O90 Cd86 2.273 . S
O90 Cd88 2.411 . S
O90 C93 1.320 . S
O91 Cd88 2.333 . S
O91 C93 1.214 . S
O92 Cd88 2.352 . S
O92 C95 1.258 . S
C93 O90 1.320 . S
C93 O91 1.214 . S
O94 Cd86 2.277 . S
O94 C89 1.209 . S
C95 O92 1.258 . S
C95 O97 1.282 . S
O96 Cd88 2.277 . S
O96 C89 1.226 . S
O97 Cd88 2.356 . S
O97 C95 1.282 . S
C98 O99 1.306 . S
C98 O101 1.160 . S
O99 C98 1.306 . S
O99 Cd100 2.228 1_545 S
Cd100 O99 2.228 1_565 S
Cd100 O104 2.273 . S
Cd100 O108 2.277 . S
O101 C98 1.160 . S
O101 Cd102 2.203 1_545 S
Cd102 O101 2.203 1_565 S
Cd102 O104 2.411 . S
Cd102 O105 2.333 . S
Cd102 O106 2.352 . S
Cd102 O110 2.277 . S
Cd102 O111 2.356 . S
C103 O108 1.209 . S
C103 O110 1.226 . S
O104 Cd100 2.273 . S
O104 Cd102 2.411 . S
O104 C107 1.320 . S
O105 Cd102 2.333 . S
O105 C107 1.214 . S
O106 Cd102 2.352 . S
O106 C109 1.258 . S
C107 O104 1.320 . S
C107 O105 1.214 . S
O108 Cd100 2.277 . S
O108 C103 1.209 . S
C109 O106 1.258 . S
C109 O111 1.282 . S
O110 Cd102 2.277 . S
O110 C103 1.226 . S
O111 Cd102 2.356 . S
O111 C109 1.282 . S
C112 O113 1.306 . S
C112 O115 1.160 1_655 S
O113 C112 1.306 . S
O113 Cd114 2.228 1_655 S
Cd114 O113 2.228 1_455 S
Cd114 O118 2.273 . S
Cd114 O122 2.277 . S
O115 C112 1.160 1_455 S
O115 Cd116 2.243 . S
Cd116 O115 2.243 . S
Cd116 O118 2.411 . S
Cd116 O119 2.333 . S
Cd116 O120 2.352 . S
Cd116 O124 2.277 . S
Cd116 O125 2.356 . S
C117 O122 1.209 . S
C117 O124 1.226 . S
O118 Cd114 2.273 . S
O118 Cd116 2.411 . S
O118 C121 1.320 . S
O119 Cd116 2.333 . S
O119 C121 1.214 . S
O120 Cd116 2.352 . S
O120 C123 1.258 . S
C121 O118 1.320 . S
C121 O119 1.214 . S
O122 Cd114 2.277 . S
O122 C117 1.209 . S
C123 O120 1.258 . S
C123 O125 1.282 . S
O124 Cd116 2.277 . S
O124 C117 1.226 . S
O125 Cd116 2.356 . S
O125 C123 1.282 . S
C126 O127 1.306 . S
C126 O129 1.160 . S
O127 C126 1.306 . S
O127 Cd128 2.228 . S
Cd128 O127 2.228 . S
Cd128 O132 2.273 . S
Cd128 O136 2.277 . S
O129 C126 1.160 . S
O129 Cd130 2.203 . S
Cd130 O129 2.203 . S
Cd130 O132 2.411 . S
Cd130 O133 2.333 . S
Cd130 O134 2.352 1_565 S
Cd130 O138 2.277 . S
Cd130 O139 2.356 1_565 S
C131 O136 1.209 . S
C131 O138 1.226 . S
O132 Cd128 2.273 . S
O132 Cd130 2.411 . S
O132 C135 1.320 . S
O133 Cd130 2.333 . S
O133 C135 1.214 . S
O134 Cd130 2.352 1_545 S
O134 C137 1.258 . S
C135 O132 1.320 . S
C135 O133 1.214 . S
O136 Cd128 2.277 . S
O136 C131 1.209 . S
C137 O134 1.258 . S
C137 O139 1.282 . S
O138 Cd130 2.277 . S
O138 C131 1.226 . S
O139 Cd130 2.356 1_545 S
O139 C137 1.282 . S
C140 O141 1.306 . S
C140 O143 1.160 . S
O141 C140 1.306 . S
O141 Cd142 2.228 1_655 S
Cd142 O141 2.228 1_455 S
Cd142 O146 2.273 . S
Cd142 O150 2.277 . S
O143 C140 1.160 . S
O143 Cd144 2.203 1_655 S
Cd144 O143 2.203 1_455 S
Cd144 O146 2.411 . S
Cd144 O147 2.333 . S
Cd144 O148 2.352 . S
Cd144 O152 2.277 . S
Cd144 O153 2.356 . S
C145 O150 1.209 . S
C145 O152 1.226 . S
O146 Cd142 2.273 . S
O146 Cd144 2.411 . S
O146 C149 1.320 . S
O147 Cd144 2.333 . S
O147 C149 1.214 . S
O148 Cd144 2.352 . S
O148 C151 1.258 . S
C149 O146 1.320 . S
C149 O147 1.214 . S
O150 Cd142 2.277 . S
O150 C145 1.209 . S
C151 O148 1.258 . S
C151 O153 1.282 . S
O152 Cd144 2.277 . S
O152 C145 1.226 . S
O153 Cd144 2.356 . S
O153 C151 1.282 . S
C154 O155 1.306 . S
C154 O157 1.160 . S
O155 C154 1.306 . S
O155 Cd156 2.228 . S
Cd156 O155 2.228 . S
Cd156 O160 2.273 . S
Cd156 O164 2.277 . S
O157 C154 1.160 . S
O157 Cd158 2.203 . S
Cd158 O157 2.203 . S
Cd158 O160 2.411 . S
Cd158 O161 2.333 . S
Cd158 O162 2.352 . S
Cd158 O166 2.277 . S
Cd158 O167 2.356 . S
C159 O164 1.209 . S
C159 O166 1.226 . S
O160 Cd156 2.273 . S
O160 Cd158 2.411 . S
O160 C163 1.320 . S
O161 Cd158 2.333 . S
O161 C163 1.214 . S
O162 Cd158 2.352 . S
O162 C165 1.258 . S
C163 O160 1.320 . S
C163 O161 1.214 . S
O164 Cd156 2.277 . S
O164 C159 1.209 . S
C165 O162 1.258 . S
C165 O167 1.282 . S
O166 Cd158 2.277 . S
O166 C159 1.226 . S
O167 Cd158 2.356 . S
O167 C165 1.282 . S
C168 O169 1.306 . S
C168 O171 1.160 . S
O169 C168 1.306 . S
O169 Cd170 2.228 1_565 S
Cd170 O169 2.228 1_545 S
Cd170 O174 2.273 . S
Cd170 O178 2.277 . S
O171 C168 1.160 . S
O171 Cd172 2.203 1_565 S
Cd172 O171 2.203 1_545 S
Cd172 O174 2.411 . S
Cd172 O175 2.333 . S
Cd172 O176 2.352 . S
Cd172 O180 2.277 . S
Cd172 O181 2.356 . S
C173 O178 1.209 . S
C173 O180 1.226 . S
O174 Cd170 2.273 . S
O174 Cd172 2.411 . S
O174 C177 1.320 . S
O175 Cd172 2.333 . S
O175 C177 1.214 . S
O176 Cd172 2.352 . S
O176 C179 1.258 . S
C177 O174 1.320 . S
C177 O175 1.214 . S
O178 Cd170 2.277 . S
O178 C173 1.209 . S
C179 O176 1.258 . S
C179 O181 1.282 . S
O180 Cd172 2.277 . S
O180 C173 1.226 . S
O181 Cd172 2.356 . S
O181 C179 1.282 . S
C182 O183 1.306 . S
C182 O185 1.160 . S
O183 C182 1.306 . S
O183 Cd184 2.228 . S
Cd184 O183 2.228 . S
Cd184 O188 2.273 . S
Cd184 O192 2.277 . S
O185 C182 1.160 . S
O185 Cd186 2.203 . S
Cd186 O185 2.203 . S
Cd186 O188 2.411 . S
Cd186 O189 2.333 . S
Cd186 O190 2.352 1_655 S
Cd186 O194 2.277 . S
Cd186 O195 2.356 1_655 S
C187 O192 1.209 . S
C187 O194 1.226 . S
O188 Cd184 2.273 . S
O188 Cd186 2.411 . S
O188 C191 1.320 . S
O189 Cd186 2.333 . S
O189 C191 1.214 . S
O190 Cd186 2.352 1_455 S
O190 C193 1.258 . S
C191 O188 1.320 . S
C191 O189 1.214 . S
O192 Cd184 2.277 . S
O192 C187 1.209 . S
C193 O190 1.258 . S
C193 O195 1.282 . S
O194 Cd186 2.277 . S
O194 C187 1.226 . S
O195 Cd186 2.356 1_455 S
O195 C193 1.282 . S
C196 O197 1.306 . S
C196 O199 1.160 . S
O197 C196 1.306 . S
O197 Cd198 2.228 . S
Cd198 O197 2.228 . S
Cd198 O202 2.273 . S
Cd198 O206 2.277 . S
O199 C196 1.160 . S
O199 Cd200 2.203 . S
Cd200 O199 2.203 . S
Cd200 O202 2.411 . S
Cd200 O203 2.333 . S
Cd200 O204 2.352 . S
Cd200 O208 2.277 . S
Cd200 O209 2.356 . S
C201 O206 1.209 . S
C201 O208 1.226 . S
O202 Cd198 2.273 . S
O202 Cd200 2.411 . S
O202 C205 1.320 . S
O203 Cd200 2.333 . S
O203 C205 1.214 . S
O204 Cd200 2.352 . S
O204 C207 1.258 . S
C205 O202 1.320 . S
C205 O203 1.214 . S
O206 Cd198 2.277 . S
O206 C201 1.209 . S
C207 O204 1.258 . S
C207 O209 1.282 . S
O208 Cd200 2.277 . S
O208 C201 1.226 . S
O209 Cd200 2.356 . S
O209 C207 1.282 . S
C210 O211 1.306 . S
C210 O213 1.160 . S
O211 C210 1.306 . S
O211 Cd212 2.228 . S
Cd212 O211 2.228 . S
Cd212 O216 2.273 . S
Cd212 O220 2.277 . S
O213 C210 1.160 . S
O213 Cd214 2.203 . S
Cd214 O213 2.203 . S
Cd214 O216 2.411 . S
Cd214 O217 2.333 . S
Cd214 O218 2.352 . S
Cd214 O222 2.277 . S
Cd214 O223 2.356 . S
C215 O220 1.209 . S
C215 O222 1.226 . S
O216 Cd212 2.273 . S
O216 Cd214 2.411 . S
O216 C219 1.320 . S
O217 Cd214 2.333 . S
O217 C219 1.214 . S
O218 Cd214 2.352 . S
O218 C221 1.258 . S
C219 O216 1.320 . S
C219 O217 1.214 . S
O220 Cd212 2.277 . S
O220 C215 1.209 . S
C221 O218 1.258 . S
C221 O223 1.282 . S
O222 Cd214 2.277 . S
O222 C215 1.226 . S
O223 Cd214 2.356 . S
O223 C221 1.282 . S
C224 O225 1.306 . S
C224 O227 1.160 . S
O225 C224 1.306 . S
O225 Cd226 2.228 . S
Cd226 O225 2.228 . S
Cd226 O230 2.273 . S
Cd226 O234 2.277 . S
O227 C224 1.160 . S
O227 Cd228 2.203 . S
Cd228 O227 2.203 . S
Cd228 O230 2.411 . S
Cd228 O231 2.333 . S
Cd228 O232 2.352 1_545 S
Cd228 O236 2.277 . S
Cd228 O237 2.356 1_545 S
C229 O234 1.209 . S
C229 O236 1.226 . S
O230 Cd226 2.273 . S
O230 Cd228 2.411 . S
O230 C233 1.320 . S
O231 Cd228 2.333 . S
O231 C233 1.214 . S
O232 Cd228 2.352 1_565 S
O232 C235 1.258 . S
C233 O230 1.320 . S
C233 O231 1.214 . S
O234 Cd226 2.277 . S
O234 C229 1.209 . S
C235 O232 1.258 . S
C235 O237 1.282 . S
O236 Cd228 2.277 . S
O236 C229 1.226 . S
O237 Cd228 2.356 1_565 S
O237 C235 1.282 . S
C238 O239 1.306 . S
C238 O241 1.160 . S
O239 C238 1.306 . S
O239 Cd240 2.228 1_455 S
Cd240 O239 2.228 1_655 S
Cd240 O244 2.273 . S
Cd240 O248 2.277 . S
O241 C238 1.160 . S
O241 Cd242 2.203 1_455 S
Cd242 O241 2.203 1_655 S
Cd242 O244 2.411 . S
Cd242 O245 2.333 . S
Cd242 O246 2.352 . S
Cd242 O250 2.277 . S
Cd242 O251 2.356 . S
C243 O248 1.209 . S
C243 O250 1.226 . S
O244 Cd240 2.273 . S
O244 Cd242 2.411 . S
O244 C247 1.320 . S
O245 Cd242 2.333 . S
O245 C247 1.214 . S
O246 Cd242 2.352 . S
O246 C249 1.258 . S
C247 O244 1.320 . S
C247 O245 1.214 . S
O248 Cd240 2.277 . S
O248 C243 1.209 . S
C249 O246 1.258 . S
C249 O251 1.282 . S
O250 Cd242 2.277 . S
O250 C243 1.226 . S
O251 Cd242 2.356 . S
O251 C249 1.282 . S
H252 C271 0.949 . S
H253 C272 0.950 . S
H254 C274 0.950 . S
H255 C275 0.950 . S
H256 C277 0.950 . S
H257 C280 0.950 . S
H258 C281 0.950 . S
H259 C283 0.951 . S
H260 C284 0.949 . S
H261 C286 0.949 . S
H262 C287 0.950 . S
H263 C289 0.950 . S
H264 C290 0.950 . S
H265 C292 0.950 . S
H266 C295 0.950 . S
H267 C296 0.950 . S
H268 C298 0.951 . S
H269 C299 0.949 . S
C270 C271 1.376 . S
C270 C275 1.386 . S
C270 C276 1.483 . S
C271 H252 0.949 . S
C271 C270 1.376 . S
C271 C272 1.397 . S
C272 H253 0.950 . S
C272 C271 1.397 . S
C272 C273 1.391 . S
C273 C272 1.391 . S
C273 C274 1.405 . S
C274 H254 0.950 . S
C274 C273 1.405 . S
C274 C275 1.367 . S
C275 H255 0.950 . S
C275 C270 1.386 . S
C275 C274 1.367 . S
C276 C270 1.483 . S
C276 C277 1.382 . S
C276 C278 1.403 . S
C277 H256 0.950 . S
C277 C276 1.382 . S
C277 C293 1.411 . S
C278 C276 1.403 . S
C278 C279 1.489 . S
C278 C292 1.411 . S
C279 C278 1.489 . S
C279 C280 1.383 . S
C279 C284 1.382 . S
C280 H257 0.950 . S
C280 C279 1.383 . S
C280 C281 1.395 . S
C281 H258 0.950 . S
C281 C280 1.395 . S
C281 C282 1.288 . S
C282 C281 1.288 . S
C282 C283 1.392 . S
C283 H259 0.951 . S
C283 C282 1.392 . S
C283 C284 1.392 . S
C284 H260 0.949 . S
C284 C279 1.382 . S
C284 C283 1.392 . S
C285 C286 1.376 . S
C285 C290 1.386 . S
C285 C291 1.483 . S
C286 H261 0.949 . S
C286 C285 1.376 . S
C286 C287 1.397 . S
C287 H262 0.950 . S
C287 C286 1.397 . S
C287 C288 1.391 . S
C288 C287 1.391 . S
C288 C289 1.405 . S
C289 H263 0.950 . S
C289 C288 1.405 . S
C289 C290 1.367 . S
C290 H264 0.950 . S
C290 C285 1.386 . S
C290 C289 1.367 . S
C291 C285 1.483 . S
C291 C292 1.382 . S
C291 C293 1.403 . S
C292 H265 0.950 . S
C292 C278 1.411 . S
C292 C291 1.382 . S
C293 C277 1.411 . S
C293 C291 1.403 . S
C293 C294 1.489 . S
C294 C293 1.489 . S
C294 C295 1.383 . S
C294 C299 1.382 . S
C295 H266 0.950 . S
C295 C294 1.383 . S
C295 C296 1.395 . S
C296 H267 0.950 . S
C296 C295 1.395 . S
C296 C297 1.288 . S
C297 C296 1.288 . S
C297 C298 1.392 . S
C298 H268 0.951 . S
C298 C297 1.392 . S
C298 C299 1.392 . S
C299 H269 0.949 . S
C299 C294 1.382 . S
C299 C298 1.392 . S
H300 C319 0.949 . S
H301 C320 0.950 . S
H302 C322 0.950 . S
H303 C323 0.950 . S
H304 C325 0.950 . S
H305 C328 0.950 . S
H306 C329 0.950 . S
H307 C331 0.951 . S
H308 C332 0.949 . S
H309 C334 0.949 . S
H310 C335 0.950 . S
H311 C337 0.950 . S
H312 C338 0.950 . S
H313 C340 0.950 . S
H314 C343 0.950 . S
H315 C344 0.950 . S
H316 C346 0.951 . S
H317 C347 0.949 . S
C318 C319 1.376 . S
C318 C323 1.386 . S
C318 C324 1.483 . S
C319 H300 0.949 . S
C319 C318 1.376 . S
C319 C320 1.397 . S
C320 H301 0.950 . S
C320 C319 1.397 . S
C320 C321 1.391 . S
C321 C320 1.391 . S
C321 C322 1.405 . S
C322 H302 0.950 . S
C322 C321 1.405 . S
C322 C323 1.367 . S
C323 H303 0.950 . S
C323 C318 1.386 . S
C323 C322 1.367 . S
C324 C318 1.483 . S
C324 C325 1.382 . S
C324 C326 1.403 . S
C325 H304 0.950 . S
C325 C324 1.382 . S
C325 C341 1.411 . S
C326 C324 1.403 . S
C326 C327 1.489 . S
C326 C340 1.411 . S
C327 C326 1.489 . S
C327 C328 1.383 . S
C327 C332 1.382 . S
C328 H305 0.950 . S
C328 C327 1.383 . S
C328 C329 1.395 . S
C329 H306 0.950 . S
C329 C328 1.395 . S
C329 C330 1.288 . S
C330 C329 1.288 . S
C330 C331 1.392 . S
C331 H307 0.951 . S
C331 C330 1.392 . S
C331 C332 1.392 . S
C332 H308 0.949 . S
C332 C327 1.382 . S
C332 C331 1.392 . S
C333 C334 1.376 . S
C333 C338 1.386 . S
C333 C339 1.483 . S
C334 H309 0.949 . S
C334 C333 1.376 . S
C334 C335 1.397 . S
C335 H310 0.950 . S
C335 C334 1.397 . S
C335 C336 1.391 . S
C336 C335 1.391 . S
C336 C337 1.405 . S
C337 H311 0.950 . S
C337 C336 1.405 . S
C337 C338 1.367 . S
C338 H312 0.950 . S
C338 C333 1.386 . S
C338 C337 1.367 . S
C339 C333 1.483 . S
C339 C340 1.382 . S
C339 C341 1.403 . S
C340 H313 0.950 . S
C340 C326 1.411 . S
C340 C339 1.382 . S
C341 C325 1.411 . S
C341 C339 1.403 . S
C341 C342 1.489 . S
C342 C341 1.489 . S
C342 C343 1.383 . S
C342 C347 1.382 . S
C343 H314 0.950 . S
C343 C342 1.383 . S
C343 C344 1.395 . S
C344 H315 0.950 . S
C344 C343 1.395 . S
C344 C345 1.288 . S
C345 C344 1.288 . S
C345 C346 1.392 . S
C346 H316 0.951 . S
C346 C345 1.392 . S
C346 C347 1.392 . S
C347 H317 0.949 . S
C347 C342 1.382 . S
C347 C346 1.392 . S
H348 C367 0.949 . S
H349 C368 0.950 . S
H350 C370 0.950 . S
H351 C371 0.950 . S
H352 C373 0.950 . S
H353 C376 0.950 . S
H354 C377 0.950 . S
H355 C379 0.951 . S
H356 C380 0.949 . S
H357 C382 0.949 . S
H358 C383 0.950 . S
H359 C385 0.950 . S
H360 C386 0.950 . S
H361 C388 0.950 . S
H362 C391 0.950 . S
H363 C392 0.950 . S
H364 C394 0.951 . S
H365 C395 0.949 . S
C366 C367 1.376 . S
C366 C371 1.386 . S
C366 C372 1.483 . S
C367 H348 0.949 . S
C367 C366 1.376 . S
C367 C368 1.397 . S
C368 H349 0.950 . S
C368 C367 1.397 . S
C368 C369 1.391 . S
C369 C368 1.391 . S
C369 C370 1.405 . S
C370 H350 0.950 . S
C370 C369 1.405 . S
C370 C371 1.367 . S
C371 H351 0.950 . S
C371 C366 1.386 . S
C371 C370 1.367 . S
C372 C366 1.483 . S
C372 C373 1.382 . S
C372 C374 1.403 . S
C373 H352 0.950 . S
C373 C372 1.382 . S
C373 C389 1.411 . S
C374 C372 1.403 . S
C374 C375 1.489 . S
C374 C388 1.411 . S
C375 C374 1.489 . S
C375 C376 1.383 . S
C375 C380 1.382 . S
C376 H353 0.950 . S
C376 C375 1.383 . S
C376 C377 1.395 . S
C377 H354 0.950 . S
C377 C376 1.395 . S
C377 C378 1.288 . S
C378 C377 1.288 . S
C378 C379 1.392 . S
C379 H355 0.951 . S
C379 C378 1.392 . S
C379 C380 1.392 . S
C380 H356 0.949 . S
C380 C375 1.382 . S
C380 C379 1.392 . S
C381 C382 1.376 . S
C381 C386 1.386 . S
C381 C387 1.483 . S
C382 H357 0.949 . S
C382 C381 1.376 . S
C382 C383 1.397 . S
C383 H358 0.950 . S
C383 C382 1.397 . S
C383 C384 1.391 . S
C384 C383 1.391 . S
C384 C385 1.405 . S
C385 H359 0.950 . S
C385 C384 1.405 . S
C385 C386 1.367 . S
C386 H360 0.950 . S
C386 C381 1.386 . S
C386 C385 1.367 . S
C387 C381 1.483 . S
C387 C388 1.382 . S
C387 C389 1.403 . S
C388 H361 0.950 . S
C388 C374 1.411 . S
C388 C387 1.382 . S
C389 C373 1.411 . S
C389 C387 1.403 . S
C389 C390 1.489 . S
C390 C389 1.489 . S
C390 C391 1.383 . S
C390 C395 1.382 . S
C391 H362 0.950 . S
C391 C390 1.383 . S
C391 C392 1.395 . S
C392 H363 0.950 . S
C392 C391 1.395 . S
C392 C393 1.288 . S
C393 C392 1.288 . S
C393 C394 1.392 . S
C394 H364 0.951 . S
C394 C393 1.392 . S
C394 C395 1.392 . S
C395 H365 0.949 . S
C395 C390 1.382 . S
C395 C394 1.392 . S
H396 C415 0.949 . S
H397 C416 0.950 . S
H398 C418 0.950 . S
H399 C419 0.950 . S
H400 C421 0.950 . S
H401 C424 0.950 . S
H402 C425 0.950 . S
H403 C427 0.951 . S
H404 C428 0.949 . S
H405 C430 0.949 . S
H406 C431 0.950 . S
H407 C433 0.950 . S
H408 C434 0.950 . S
H409 C436 0.950 . S
H410 C439 0.950 . S
H411 C440 0.950 . S
H412 C442 0.951 . S
H413 C443 0.949 . S
C414 C415 1.376 . S
C414 C419 1.386 . S
C414 C420 1.483 . S
C415 H396 0.949 . S
C415 C414 1.376 . S
C415 C416 1.397 . S
C416 H397 0.950 . S
C416 C415 1.397 . S
C416 C417 1.391 . S
C417 C416 1.391 . S
C417 C418 1.405 . S
C418 H398 0.950 . S
C418 C417 1.405 . S
C418 C419 1.367 . S
C419 H399 0.950 . S
C419 C414 1.386 . S
C419 C418 1.367 . S
C420 C414 1.483 . S
C420 C421 1.382 . S
C420 C422 1.403 . S
C421 H400 0.950 . S
C421 C420 1.382 . S
C421 C437 1.411 . S
C422 C420 1.403 . S
C422 C423 1.489 . S
C422 C436 1.411 . S
C423 C422 1.489 . S
C423 C424 1.383 . S
C423 C428 1.382 . S
C424 H401 0.950 . S
C424 C423 1.383 . S
C424 C425 1.395 . S
C425 H402 0.950 . S
C425 C424 1.395 . S
C425 C426 1.288 . S
C426 C425 1.288 . S
C426 C427 1.392 . S
C427 H403 0.951 . S
C427 C426 1.392 . S
C427 C428 1.392 . S
C428 H404 0.949 . S
C428 C423 1.382 . S
C428 C427 1.392 . S
C429 C430 1.376 . S
C429 C434 1.386 . S
C429 C435 1.483 . S
C430 H405 0.949 . S
C430 C429 1.376 . S
C430 C431 1.397 . S
C431 H406 0.950 . S
C431 C430 1.397 . S
C431 C432 1.391 . S
C432 C431 1.391 . S
C432 C433 1.405 . S
C433 H407 0.950 . S
C433 C432 1.405 . S
C433 C434 1.367 . S
C434 H408 0.950 . S
C434 C429 1.386 . S
C434 C433 1.367 . S
C435 C429 1.483 . S
C435 C436 1.382 . S
C435 C437 1.403 . S
C436 H409 0.950 . S
C436 C422 1.411 . S
C436 C435 1.382 . S
C437 C421 1.411 . S
C437 C435 1.403 . S
C437 C438 1.489 . S
C438 C437 1.489 . S
C438 C439 1.383 . S
C438 C443 1.382 . S
C439 H410 0.950 . S
C439 C438 1.383 . S
C439 C440 1.395 . S
C440 H411 0.950 . S
C440 C439 1.395 . S
C440 C441 1.288 . S
C441 C440 1.288 . S
C441 C442 1.392 . S
C442 H412 0.951 . S
C442 C441 1.392 . S
C442 C443 1.392 . S
C443 H413 0.949 . S
C443 C438 1.382 . S
C443 C442 1.392 . S
H444 C463 0.949 . S
H445 C464 0.950 . S
H446 C466 0.950 . S
H447 C467 0.950 . S
H448 C469 0.950 . S
H449 C472 0.950 . S
H450 C473 0.950 . S
H451 C475 0.951 . S
H452 C476 0.949 . S
H453 C478 0.949 . S
H454 C479 0.950 . S
H455 C481 0.950 . S
H456 C482 0.950 . S
H457 C484 0.950 . S
H458 C487 0.950 . S
H459 C488 0.950 . S
H460 C490 0.951 . S
H461 C491 0.949 . S
C462 C463 1.376 . S
C462 C467 1.386 . S
C462 C468 1.483 . S
C463 H444 0.949 . S
C463 C462 1.376 . S
C463 C464 1.397 . S
C464 H445 0.950 . S
C464 C463 1.397 . S
C464 C465 1.391 . S
C465 C464 1.391 . S
C465 C466 1.405 . S
C466 H446 0.950 . S
C466 C465 1.405 . S
C466 C467 1.367 . S
C467 H447 0.950 . S
C467 C462 1.386 . S
C467 C466 1.367 . S
C468 C462 1.483 . S
C468 C469 1.382 . S
C468 C470 1.403 . S
C469 H448 0.950 . S
C469 C468 1.382 . S
C469 C485 1.411 . S
C470 C468 1.403 . S
C470 C471 1.489 . S
C470 C484 1.411 . S
C471 C470 1.489 . S
C471 C472 1.383 . S
C471 C476 1.382 . S
C472 H449 0.950 . S
C472 C471 1.383 . S
C472 C473 1.395 . S
C473 H450 0.950 . S
C473 C472 1.395 . S
C473 C474 1.288 . S
C474 C473 1.288 . S
C474 C475 1.392 . S
C475 H451 0.951 . S
C475 C474 1.392 . S
C475 C476 1.392 . S
C476 H452 0.949 . S
C476 C471 1.382 . S
C476 C475 1.392 . S
C477 C478 1.376 . S
C477 C482 1.386 . S
C477 C483 1.483 . S
C478 H453 0.949 . S
C478 C477 1.376 . S
C478 C479 1.397 . S
C479 H454 0.950 . S
C479 C478 1.397 . S
C479 C480 1.391 . S
C480 C479 1.391 . S
C480 C481 1.405 . S
C481 H455 0.950 . S
C481 C480 1.405 . S
C481 C482 1.367 . S
C482 H456 0.950 . S
C482 C477 1.386 . S
C482 C481 1.367 . S
C483 C477 1.483 . S
C483 C484 1.382 . S
C483 C485 1.403 . S
C484 H457 0.950 . S
C484 C470 1.411 . S
C484 C483 1.382 . S
C485 C469 1.411 . S
C485 C483 1.403 . S
C485 C486 1.489 . S
C486 C485 1.489 . S
C486 C487 1.383 . S
C486 C491 1.382 . S
C487 H458 0.950 . S
C487 C486 1.383 . S
C487 C488 1.395 . S
C488 H459 0.950 . S
C488 C487 1.395 . S
C488 C489 1.288 . S
C489 C488 1.288 . S
C489 C490 1.392 . S
C490 H460 0.951 . S
C490 C489 1.392 . S
C490 C491 1.392 . S
C491 H461 0.949 . S
C491 C486 1.382 . S
C491 C490 1.392 . S
H492 C511 0.949 . S
H493 C512 0.950 . S
H494 C514 0.950 . S
H495 C515 0.950 . S
H496 C517 0.950 . S
H497 C520 0.950 . S
H498 C521 0.950 . S
H499 C523 0.951 . S
H500 C524 0.949 . S
H501 C526 0.949 . S
H502 C527 0.950 . S
H503 C529 0.950 . S
H504 C530 0.950 . S
H505 C532 0.950 . S
H506 C535 0.950 . S
H507 C536 0.950 . S
H508 C538 0.951 . S
H509 C539 0.949 . S
C510 C511 1.376 . S
C510 C515 1.386 . S
C510 C516 1.483 . S
C511 H492 0.949 . S
C511 C510 1.376 . S
C511 C512 1.397 . S
C512 H493 0.950 . S
C512 C511 1.397 . S
C512 C513 1.391 . S
C513 C512 1.391 . S
C513 C514 1.405 . S
C514 H494 0.950 . S
C514 C513 1.405 . S
C514 C515 1.367 . S
C515 H495 0.950 . S
C515 C510 1.386 . S
C515 C514 1.367 . S
C516 C510 1.483 . S
C516 C517 1.382 . S
C516 C518 1.403 . S
C517 H496 0.950 . S
C517 C516 1.382 . S
C517 C533 1.411 . S
C518 C516 1.403 . S
C518 C519 1.489 . S
C518 C532 1.411 . S
C519 C518 1.489 . S
C519 C520 1.383 . S
C519 C524 1.382 . S
C520 H497 0.950 . S
C520 C519 1.383 . S
C520 C521 1.395 . S
C521 H498 0.950 . S
C521 C520 1.395 . S
C521 C522 1.288 . S
C522 C521 1.288 . S
C522 C523 1.392 . S
C523 H499 0.951 . S
C523 C522 1.392 . S
C523 C524 1.392 . S
C524 H500 0.949 . S
C524 C519 1.382 . S
C524 C523 1.392 . S
C525 C526 1.376 . S
C525 C530 1.386 . S
C525 C531 1.483 . S
C526 H501 0.949 . S
C526 C525 1.376 . S
C526 C527 1.397 . S
C527 H502 0.950 . S
C527 C526 1.397 . S
C527 C528 1.391 . S
C528 C527 1.391 . S
C528 C529 1.405 . S
C529 H503 0.950 . S
C529 C528 1.405 . S
C529 C530 1.367 . S
C530 H504 0.950 . S
C530 C525 1.386 . S
C530 C529 1.367 . S
C531 C525 1.483 . S
C531 C532 1.382 . S
C531 C533 1.403 . S
C532 H505 0.950 . S
C532 C518 1.411 . S
C532 C531 1.382 . S
C533 C517 1.411 . S
C533 C531 1.403 . S
C533 C534 1.489 . S
C534 C533 1.489 . S
C534 C535 1.383 . S
C534 C539 1.382 . S
C535 H506 0.950 . S
C535 C534 1.383 . S
C535 C536 1.395 . S
C536 H507 0.950 . S
C536 C535 1.395 . S
C536 C537 1.288 . S
C537 C536 1.288 . S
C537 C538 1.392 . S
C538 H508 0.951 . S
C538 C537 1.392 . S
C538 C539 1.392 . S
C539 H509 0.949 . S
C539 C534 1.382 . S
C539 C538 1.392 . S
H540 C559 0.949 . S
H541 C560 0.950 . S
H542 C562 0.950 . S
H543 C563 0.950 . S
H544 C565 0.950 . S
H545 C568 0.950 . S
H546 C569 0.950 . S
H547 C571 0.951 . S
H548 C572 0.949 . S
H549 C574 0.949 . S
H550 C575 0.950 . S
H551 C577 0.950 . S
H552 C578 0.950 . S
H553 C580 0.950 . S
H554 C583 0.950 . S
H555 C584 0.950 . S
H556 C586 0.951 . S
H557 C587 0.949 . S
C558 C559 1.376 . S
C558 C563 1.386 . S
C558 C564 1.483 . S
C559 H540 0.949 . S
C559 C558 1.376 . S
C559 C560 1.397 . S
C560 H541 0.950 . S
C560 C559 1.397 . S
C560 C561 1.391 . S
C561 C560 1.391 . S
C561 C562 1.405 . S
C562 H542 0.950 . S
C562 C561 1.405 . S
C562 C563 1.367 . S
C563 H543 0.950 . S
C563 C558 1.386 . S
C563 C562 1.367 . S
C564 C558 1.483 . S
C564 C565 1.382 . S
C564 C566 1.403 . S
C565 H544 0.950 . S
C565 C564 1.382 . S
C565 C581 1.411 . S
C566 C564 1.403 . S
C566 C567 1.489 . S
C566 C580 1.411 . S
C567 C566 1.489 . S
C567 C568 1.383 . S
C567 C572 1.382 . S
C568 H545 0.950 . S
C568 C567 1.383 . S
C568 C569 1.395 . S
C569 H546 0.950 . S
C569 C568 1.395 . S
C569 C570 1.288 . S
C570 C569 1.288 . S
C570 C571 1.392 . S
C571 H547 0.951 . S
C571 C570 1.392 . S
C571 C572 1.392 . S
C572 H548 0.949 . S
C572 C567 1.382 . S
C572 C571 1.392 . S
C573 C574 1.376 . S
C573 C578 1.386 . S
C573 C579 1.483 . S
C574 H549 0.949 . S
C574 C573 1.376 . S
C574 C575 1.397 . S
C575 H550 0.950 . S
C575 C574 1.397 . S
C575 C576 1.391 . S
C576 C575 1.391 . S
C576 C577 1.405 . S
C577 H551 0.950 . S
C577 C576 1.405 . S
C577 C578 1.367 . S
C578 H552 0.950 . S
C578 C573 1.386 . S
C578 C577 1.367 . S
C579 C573 1.483 . S
C579 C580 1.382 . S
C579 C581 1.403 . S
C580 H553 0.950 . S
C580 C566 1.411 . S
C580 C579 1.382 . S
C581 C565 1.411 . S
C581 C579 1.403 . S
C581 C582 1.489 . S
C582 C581 1.489 . S
C582 C583 1.383 . S
C582 C587 1.382 . S
C583 H554 0.950 . S
C583 C582 1.383 . S
C583 C584 1.395 . S
C584 H555 0.950 . S
C584 C583 1.395 . S
C584 C585 1.288 . S
C585 C584 1.288 . S
C585 C586 1.392 . S
C586 H556 0.951 . S
C586 C585 1.392 . S
C586 C587 1.392 . S
C587 H557 0.949 . S
C587 C582 1.382 . S
C587 C586 1.392 . S
H588 C607 0.949 . S
H589 C608 0.950 . S
H590 C610 0.950 . S
H591 C611 0.950 . S
H592 C613 0.950 . S
H593 C616 0.950 . S
H594 C617 0.950 . S
H595 C619 0.951 . S
H596 C620 0.949 . S
H597 C622 0.949 . S
H598 C623 0.950 . S
H599 C625 0.950 . S
H600 C626 0.950 . S
H601 C628 0.950 . S
H602 C631 0.950 . S
H603 C632 0.950 . S
H604 C634 0.951 . S
H605 C635 0.949 . S
C606 C607 1.376 . S
C606 C611 1.386 . S
C606 C612 1.483 . S
C607 H588 0.949 . S
C607 C606 1.376 . S
C607 C608 1.397 . S
C608 H589 0.950 . S
C608 C607 1.397 . S
C608 C609 1.391 . S
C609 C608 1.391 . S
C609 C610 1.405 . S
C610 H590 0.950 . S
C610 C609 1.405 . S
C610 C611 1.367 . S
C611 H591 0.950 . S
C611 C606 1.386 . S
C611 C610 1.367 . S
C612 C606 1.483 . S
C612 C613 1.382 . S
C612 C614 1.403 . S
C613 H592 0.950 . S
C613 C612 1.382 . S
C613 C629 1.411 . S
C614 C612 1.403 . S
C614 C615 1.489 . S
C614 C628 1.411 . S
C615 C614 1.489 . S
C615 C616 1.383 . S
C615 C620 1.382 . S
C616 H593 0.950 . S
C616 C615 1.383 . S
C616 C617 1.395 . S
C617 H594 0.950 . S
C617 C616 1.395 . S
C617 C618 1.288 . S
C618 C617 1.288 . S
C618 C619 1.392 . S
C619 H595 0.951 . S
C619 C618 1.392 . S
C619 C620 1.392 . S
C620 H596 0.949 . S
C620 C615 1.382 . S
C620 C619 1.392 . S
C621 C622 1.376 . S
C621 C626 1.386 . S
C621 C627 1.483 . S
C622 H597 0.949 . S
C622 C621 1.376 . S
C622 C623 1.397 . S
C623 H598 0.950 . S
C623 C622 1.397 . S
C623 C624 1.391 . S
C624 C623 1.391 . S
C624 C625 1.405 . S
C625 H599 0.950 . S
C625 C624 1.405 . S
C625 C626 1.367 . S
C626 H600 0.950 . S
C626 C621 1.386 . S
C626 C625 1.367 . S
C627 C621 1.483 . S
C627 C628 1.382 . S
C627 C629 1.403 . S
C628 H601 0.950 . S
C628 C614 1.411 . S
C628 C627 1.382 . S
C629 C613 1.411 . S
C629 C627 1.403 . S
C629 C630 1.489 . S
C630 C629 1.489 . S
C630 C631 1.383 . S
C630 C635 1.382 . S
C631 H602 0.950 . S
C631 C630 1.383 . S
C631 C632 1.395 . S
C632 H603 0.950 . S
C632 C631 1.395 . S
C632 C633 1.288 . S
C633 C632 1.288 . S
C633 C634 1.392 . S
C634 H604 0.951 . S
C634 C633 1.392 . S
C634 C635 1.392 . S
C635 H605 0.949 . S
C635 C630 1.382 . S
C635 C634 1.392 . S
H636 C655 0.949 . S
H637 C656 0.950 . S
H638 C658 0.950 . S
H639 C659 0.950 . S
H640 C661 0.950 . S
H641 C664 0.950 . S
H642 C665 0.950 . S
H643 C667 0.951 . S
H644 C668 0.949 . S
H645 C670 0.949 . S
H646 C671 0.950 . S
H647 C673 0.950 . S
H648 C674 0.950 . S
H649 C676 0.950 . S
H650 C679 0.950 . S
H651 C680 0.950 . S
H652 C682 0.951 . S
H653 C683 0.949 . S
C654 C655 1.376 . S
C654 C659 1.386 . S
C654 C660 1.483 . S
C655 H636 0.949 . S
C655 C654 1.376 . S
C655 C656 1.397 . S
C656 H637 0.950 . S
C656 C655 1.397 . S
C656 C657 1.391 . S
C657 C656 1.391 . S
C657 C658 1.405 . S
C658 H638 0.950 . S
C658 C657 1.405 . S
C658 C659 1.367 . S
C659 H639 0.950 . S
C659 C654 1.386 . S
C659 C658 1.367 . S
C660 C654 1.483 . S
C660 C661 1.382 . S
C660 C662 1.403 . S
C661 H640 0.950 . S
C661 C660 1.382 . S
C661 C677 1.411 . S
C662 C660 1.403 . S
C662 C663 1.489 . S
C662 C676 1.411 . S
C663 C662 1.489 . S
C663 C664 1.383 . S
C663 C668 1.382 . S
C664 H641 0.950 . S
C664 C663 1.383 . S
C664 C665 1.395 . S
C665 H642 0.950 . S
C665 C664 1.395 . S
C665 C666 1.288 . S
C666 C665 1.288 . S
C666 C667 1.392 . S
C667 H643 0.951 . S
C667 C666 1.392 . S
C667 C668 1.392 . S
C668 H644 0.949 . S
C668 C663 1.382 . S
C668 C667 1.392 . S
C669 C670 1.376 . S
C669 C674 1.386 . S
C669 C675 1.483 . S
C670 H645 0.949 . S
C670 C669 1.376 . S
C670 C671 1.397 . S
C671 H646 0.950 . S
C671 C670 1.397 . S
C671 C672 1.391 . S
C672 C671 1.391 . S
C672 C673 1.405 . S
C673 H647 0.950 . S
C673 C672 1.405 . S
C673 C674 1.367 . S
C674 H648 0.950 . S
C674 C669 1.386 . S
C674 C673 1.367 . S
C675 C669 1.483 . S
C675 C676 1.382 . S
C675 C677 1.403 . S
C676 H649 0.950 . S
C676 C662 1.411 . S
C676 C675 1.382 . S
C677 C661 1.411 . S
C677 C675 1.403 . S
C677 C678 1.489 . S
C678 C677 1.489 . S
C678 C679 1.383 . S
C678 C683 1.382 . S
C679 H650 0.950 . S
C679 C678 1.383 . S
C679 C680 1.395 . S
C680 H651 0.950 . S
C680 C679 1.395 . S
C680 C681 1.288 . S
C681 C680 1.288 . S
C681 C682 1.392 . S
C682 H652 0.951 . S
C682 C681 1.392 . S
C682 C683 1.392 . S
C683 H653 0.949 . S
C683 C678 1.382 . S
C683 C682 1.392 . S
H684 C703 0.949 . S
H685 C704 0.950 . S
H686 C706 0.950 . S
H687 C707 0.950 . S
H688 C709 0.950 . S
H689 C712 0.950 . S
H690 C713 0.950 . S
H691 C715 0.951 . S
H692 C716 0.949 . S
H693 C718 0.949 . S
H694 C719 0.950 . S
H695 C721 0.950 . S
H696 C722 0.950 . S
H697 C724 0.950 . S
H698 C727 0.950 . S
H699 C728 0.950 . S
H700 C730 0.951 . S
H701 C731 0.949 . S
C702 C703 1.376 . S
C702 C707 1.386 1_655 S
C702 C708 1.483 . S
C703 H684 0.949 . S
C703 C702 1.376 . S
C703 C704 1.397 . S
C704 H685 0.950 . S
C704 C703 1.397 . S
C704 C705 1.391 . S
C705 C704 1.391 . S
C705 C706 1.405 1_655 S
C706 H686 0.950 . S
C706 C705 1.405 1_455 S
C706 C707 1.367 . S
C707 H687 0.950 . S
C707 C702 1.386 1_455 S
C707 C706 1.367 . S
C708 C702 1.483 . S
C708 C709 1.382 . S
C708 C710 1.403 1_655 S
C709 H688 0.950 . S
C709 C708 1.382 . S
C709 C725 1.411 . S
C710 C708 1.403 1_455 S
C710 C711 1.489 . S
C710 C724 1.411 . S
C711 C710 1.489 . S
C711 C712 1.383 1_455 S
C711 C716 1.382 . S
C712 H689 0.950 . S
C712 C711 1.383 1_655 S
C712 C713 1.395 . S
C713 H690 0.950 . S
C713 C712 1.395 . S
C713 C714 1.288 1_655 S
C714 C713 1.288 1_455 S
C714 C715 1.392 . S
C715 H691 0.951 . S
C715 C714 1.392 . S
C715 C716 1.392 . S
C716 H692 0.949 . S
C716 C711 1.382 . S
C716 C715 1.392 . S
C717 C718 1.376 . S
C717 C722 1.386 1_455 S
C717 C723 1.483 . S
C718 H693 0.949 . S
C718 C717 1.376 . S
C718 C719 1.397 . S
C719 H694 0.950 . S
C719 C718 1.397 . S
C719 C720 1.391 . S
C720 C719 1.391 . S
C720 C721 1.405 1_455 S
C721 H695 0.950 . S
C721 C720 1.405 1_655 S
C721 C722 1.367 . S
C722 H696 0.950 . S
C722 C717 1.386 1_655 S
C722 C721 1.367 . S
C723 C717 1.483 . S
C723 C724 1.382 . S
C723 C725 1.403 1_455 S
C724 H697 0.950 . S
C724 C710 1.411 . S
C724 C723 1.382 . S
C725 C709 1.411 . S
C725 C723 1.403 1_655 S
C725 C726 1.489 . S
C726 C725 1.489 . S
C726 C727 1.383 1_655 S
C726 C731 1.382 . S
C727 H698 0.950 . S
C727 C726 1.383 1_455 S
C727 C728 1.395 . S
C728 H699 0.950 . S
C728 C727 1.395 . S
C728 C729 1.288 1_455 S
C729 C728 1.288 1_655 S
C729 C730 1.392 . S
C730 H700 0.951 . S
C730 C729 1.392 . S
C730 C731 1.392 . S
C731 H701 0.949 . S
C731 C726 1.382 . S
C731 C730 1.392 . S
H732 C751 0.949 . S
H733 C752 0.950 . S
H734 C754 0.950 . S
H735 C755 0.950 . S
H736 C757 0.950 . S
H737 C760 0.950 . S
H738 C761 0.950 . S
H739 C763 0.951 . S
H740 C764 0.949 . S
H741 C766 0.949 . S
H742 C767 0.950 . S
H743 C769 0.950 . S
H744 C770 0.950 . S
H745 C772 0.950 . S
H746 C775 0.950 . S
H747 C776 0.950 . S
H748 C778 0.951 . S
H749 C779 0.949 . S
C750 C751 1.376 . S
C750 C755 1.386 . S
C750 C756 1.483 . S
C751 H732 0.949 . S
C751 C750 1.376 . S
C751 C752 1.397 . S
C752 H733 0.950 . S
C752 C751 1.397 . S
C752 C753 1.391 . S
C753 C752 1.391 . S
C753 C754 1.405 . S
C754 H734 0.950 . S
C754 C753 1.405 . S
C754 C755 1.367 . S
C755 H735 0.950 . S
C755 C750 1.386 . S
C755 C754 1.367 . S
C756 C750 1.483 . S
C756 C757 1.382 . S
C756 C758 1.403 . S
C757 H736 0.950 . S
C757 C756 1.382 . S
C757 C773 1.411 . S
C758 C756 1.403 . S
C758 C759 1.489 . S
C758 C772 1.411 . S
C759 C758 1.489 . S
C759 C760 1.383 . S
C759 C764 1.382 . S
C760 H737 0.950 . S
C760 C759 1.383 . S
C760 C761 1.395 . S
C761 H738 0.950 . S
C761 C760 1.395 . S
C761 C762 1.288 . S
C762 C761 1.288 . S
C762 C763 1.392 . S
C763 H739 0.951 . S
C763 C762 1.392 . S
C763 C764 1.392 . S
C764 H740 0.949 . S
C764 C759 1.382 . S
C764 C763 1.392 . S
C765 C766 1.376 . S
C765 C770 1.386 . S
C765 C771 1.483 . S
C766 H741 0.949 . S
C766 C765 1.376 . S
C766 C767 1.397 . S
C767 H742 0.950 . S
C767 C766 1.397 . S
C767 C768 1.391 . S
C768 C767 1.391 . S
C768 C769 1.405 . S
C769 H743 0.950 . S
C769 C768 1.405 . S
C769 C770 1.367 . S
C770 H744 0.950 . S
C770 C765 1.386 . S
C770 C769 1.367 . S
C771 C765 1.483 . S
C771 C772 1.382 . S
C771 C773 1.403 . S
C772 H745 0.950 . S
C772 C758 1.411 . S
C772 C771 1.382 . S
C773 C757 1.411 . S
C773 C771 1.403 . S
C773 C774 1.489 . S
C774 C773 1.489 . S
C774 C775 1.383 . S
C774 C779 1.382 . S
C775 H746 0.950 . S
C775 C774 1.383 . S
C775 C776 1.395 . S
C776 H747 0.950 . S
C776 C775 1.395 . S
C776 C777 1.288 . S
C777 C776 1.288 . S
C777 C778 1.392 . S
C778 H748 0.951 . S
C778 C777 1.392 . S
C778 C779 1.392 . S
C779 H749 0.949 . S
C779 C774 1.382 . S
C779 C778 1.392 . S
H780 C799 0.949 . S
H781 C800 0.950 . S
H782 C802 0.950 . S
H783 C803 0.950 . S
H784 C805 0.950 . S
H785 C808 0.950 . S
H786 C809 0.950 . S
H787 C811 0.951 . S
H788 C812 0.949 . S
H789 C814 0.949 . S
H790 C815 0.950 . S
H791 C817 0.950 . S
H792 C818 0.950 . S
H793 C820 0.950 . S
H794 C823 0.950 . S
H795 C824 0.950 . S
H796 C826 0.951 . S
H797 C827 0.949 . S
C798 C799 1.376 . S
C798 C803 1.386 1_545 S
C798 C804 1.483 . S
C799 H780 0.949 . S
C799 C798 1.376 . S
C799 C800 1.397 . S
C800 H781 0.950 . S
C800 C799 1.397 . S
C800 C801 1.391 . S
C801 C800 1.391 . S
C801 C802 1.405 1_545 S
C802 H782 0.950 . S
C802 C801 1.405 1_565 S
C802 C803 1.367 . S
C803 H783 0.950 . S
C803 C798 1.386 1_565 S
C803 C802 1.367 . S
C804 C798 1.483 . S
C804 C805 1.382 . S
C804 C806 1.403 1_545 S
C805 H784 0.950 . S
C805 C804 1.382 . S
C805 C821 1.411 . S
C806 C804 1.403 1_565 S
C806 C807 1.489 . S
C806 C820 1.411 . S
C807 C806 1.489 . S
C807 C808 1.383 1_565 S
C807 C812 1.382 . S
C808 H785 0.950 . S
C808 C807 1.383 1_545 S
C808 C809 1.395 . S
C809 H786 0.950 . S
C809 C808 1.395 . S
C809 C810 1.288 1_545 S
C810 C809 1.288 1_565 S
C810 C811 1.392 . S
C811 H787 0.951 . S
C811 C810 1.392 . S
C811 C812 1.392 . S
C812 H788 0.949 . S
C812 C807 1.382 . S
C812 C811 1.392 . S
C813 C814 1.376 . S
C813 C818 1.386 1_565 S
C813 C819 1.483 . S
C814 H789 0.949 . S
C814 C813 1.376 . S
C814 C815 1.397 . S
C815 H790 0.950 . S
C815 C814 1.397 . S
C815 C816 1.391 . S
C816 C815 1.391 . S
C816 C817 1.405 1_565 S
C817 H791 0.950 . S
C817 C816 1.405 1_545 S
C817 C818 1.367 . S
C818 H792 0.950 . S
C818 C813 1.386 1_545 S
C818 C817 1.367 . S
C819 C813 1.483 . S
C819 C820 1.382 . S
C819 C821 1.403 1_565 S
C820 H793 0.950 . S
C820 C806 1.411 . S
C820 C819 1.382 . S
C821 C805 1.411 . S
C821 C819 1.403 1_545 S
C821 C822 1.489 . S
C822 C821 1.489 . S
C822 C823 1.383 1_545 S
C822 C827 1.382 . S
C823 H794 0.950 . S
C823 C822 1.383 1_565 S
C823 C824 1.395 . S
C824 H795 0.950 . S
C824 C823 1.395 . S
C824 C825 1.288 1_565 S
C825 C824 1.288 1_545 S
C825 C826 1.392 . S
C826 H796 0.951 . S
C826 C825 1.392 . S
C826 C827 1.392 . S
C827 H797 0.949 . S
C827 C822 1.382 . S
C827 C826 1.392 . S
H828 C847 0.949 . S
H829 C848 0.950 . S
H830 C850 0.950 . S
H831 C851 0.950 . S
H832 C853 0.950 . S
H833 C856 0.950 . S
H834 C857 0.950 . S
H835 C859 0.951 . S
H836 C860 0.949 . S
H837 C862 0.949 . S
H838 C863 0.950 . S
H839 C865 0.950 . S
H840 C866 0.950 . S
H841 C868 0.950 . S
H842 C871 0.950 . S
H843 C872 0.950 . S
H844 C874 0.951 . S
H845 C875 0.949 . S
C846 C847 1.395 . S
C846 C851 1.377 1_545 S
C846 C852 1.501 . S
C847 H828 0.949 . S
C847 C846 1.395 . S
C847 C848 1.397 . S
C848 H829 0.950 . S
C848 C847 1.397 . S
C848 C849 1.391 1_545 S
C849 C848 1.391 1_565 S
C849 C850 1.405 . S
C850 H830 0.950 . S
C850 C849 1.405 . S
C850 C851 1.367 . S
C851 H831 0.950 . S
C851 C846 1.377 1_565 S
C851 C850 1.367 . S
C852 C846 1.501 . S
C852 C853 1.355 . S
C852 C854 1.399 1_545 S
C853 H832 0.950 . S
C853 C852 1.355 . S
C853 C869 1.443 . S
C854 C852 1.399 1_565 S
C854 C855 1.482 . S
C854 C868 1.434 . S
C855 C854 1.482 . S
C855 C856 1.354 1_565 S
C855 C860 1.397 . S
C856 H833 0.950 . S
C856 C855 1.354 1_545 S
C856 C857 1.395 . S
C857 H834 0.950 . S
C857 C856 1.395 . S
C857 C858 1.288 . S
C858 C857 1.288 . S
C858 C859 1.392 1_545 S
C859 H835 0.951 . S
C859 C858 1.392 1_565 S
C859 C860 1.392 . S
C860 H836 0.949 . S
C860 C855 1.397 . S
C860 C859 1.392 . S
C861 C862 1.381 . S
C861 C866 1.384 1_565 S
C861 C867 1.501 . S
C862 H837 0.949 . S
C862 C861 1.381 . S
C862 C863 1.397 . S
C863 H838 0.950 . S
C863 C862 1.397 . S
C863 C864 1.391 1_565 S
C864 C863 1.391 1_545 S
C864 C865 1.405 . S
C865 H839 0.950 . S
C865 C864 1.405 . S
C865 C866 1.367 . S
C866 H840 0.950 . S
C866 C861 1.384 1_545 S
C866 C865 1.367 . S
C867 C861 1.501 . S
C867 C868 1.362 . S
C867 C869 1.399 1_565 S
C868 H841 0.950 . S
C868 C854 1.434 . S
C868 C867 1.362 . S
C869 C853 1.443 . S
C869 C867 1.399 1_545 S
C869 C870 1.482 . S
C870 C869 1.482 . S
C870 C871 1.337 1_545 S
C870 C875 1.407 . S
C871 H842 0.950 . S
C871 C870 1.337 1_565 S
C871 C872 1.395 . S
C872 H843 0.950 . S
C872 C871 1.395 . S
C872 C873 1.288 . S
C873 C872 1.288 . S
C873 C874 1.392 1_565 S
C874 H844 0.951 . S
C874 C873 1.392 1_545 S
C874 C875 1.392 . S
C875 H845 0.949 . S
C875 C870 1.407 . S
C875 C874 1.392 . S
H876 C895 0.949 . S
H877 C896 0.950 . S
H878 C898 0.950 . S
H879 C899 0.950 . S
H880 C901 0.950 . S
H881 C904 0.950 . S
H882 C905 0.950 . S
H883 C907 0.951 . S
H884 C908 0.949 . S
H885 C910 0.949 . S
H886 C911 0.950 . S
H887 C913 0.950 . S
H888 C914 0.950 . S
H889 C916 0.950 . S
H890 C919 0.950 . S
H891 C920 0.950 . S
H892 C922 0.951 . S
H893 C923 0.949 . S
C894 C895 1.376 . S
C894 C899 1.386 1_455 S
C894 C900 1.483 . S
C895 H876 0.949 . S
C895 C894 1.376 . S
C895 C896 1.397 . S
C896 H877 0.950 . S
C896 C895 1.397 . S
C896 C897 1.391 . S
C897 C896 1.391 . S
C897 C898 1.405 1_455 S
C898 H878 0.950 . S
C898 C897 1.405 1_655 S
C898 C899 1.367 . S
C899 H879 0.950 . S
C899 C894 1.386 1_655 S
C899 C898 1.367 . S
C900 C894 1.483 . S
C900 C901 1.382 . S
C900 C902 1.403 1_455 S
C901 H880 0.950 . S
C901 C900 1.382 . S
C901 C917 1.411 . S
C902 C900 1.403 1_655 S
C902 C903 1.489 . S
C902 C916 1.411 . S
C903 C902 1.489 . S
C903 C904 1.383 1_655 S
C903 C908 1.382 . S
C904 H881 0.950 . S
C904 C903 1.383 1_455 S
C904 C905 1.395 . S
C905 H882 0.950 . S
C905 C904 1.395 . S
C905 C906 1.288 1_455 S
C906 C905 1.288 1_655 S
C906 C907 1.392 . S
C907 H883 0.951 . S
C907 C906 1.392 . S
C907 C908 1.392 . S
C908 H884 0.949 . S
C908 C903 1.382 . S
C908 C907 1.392 . S
C909 C910 1.376 . S
C909 C914 1.386 1_655 S
C909 C915 1.483 . S
C910 H885 0.949 . S
C910 C909 1.376 . S
C910 C911 1.397 . S
C911 H886 0.950 . S
C911 C910 1.397 . S
C911 C912 1.391 . S
C912 C911 1.391 . S
C912 C913 1.405 1_655 S
C913 H887 0.950 . S
C913 C912 1.405 1_455 S
C913 C914 1.367 . S
C914 H888 0.950 . S
C914 C909 1.386 1_455 S
C914 C913 1.367 . S
C915 C909 1.483 . S
C915 C916 1.382 . S
C915 C917 1.403 1_655 S
C916 H889 0.950 . S
C916 C902 1.411 . S
C916 C915 1.382 . S
C917 C901 1.411 . S
C917 C915 1.403 1_455 S
C917 C918 1.489 . S
C918 C917 1.489 . S
C918 C919 1.383 1_455 S
C918 C923 1.382 . S
C919 H890 0.950 . S
C919 C918 1.383 1_655 S
C919 C920 1.395 . S
C920 H891 0.950 . S
C920 C919 1.395 . S
C920 C921 1.288 1_655 S
C921 C920 1.288 1_455 S
C921 C922 1.392 . S
C922 H892 0.951 . S
C922 C921 1.392 . S
C922 C923 1.392 . S
C923 H893 0.949 . S
C923 C918 1.382 . S
C923 C922 1.392 . S
H924 C943 0.949 . S
H925 C944 0.950 . S
H926 C946 0.950 . S
H927 C947 0.950 . S
H928 C949 0.950 . S
H929 C952 0.950 . S
H930 C953 0.950 . S
H931 C955 0.951 . S
H932 C956 0.949 . S
H933 C958 0.949 . S
H934 C959 0.950 . S
H935 C961 0.950 . S
H936 C962 0.950 . S
H937 C964 0.950 . S
H938 C967 0.950 . S
H939 C968 0.950 . S
H940 C970 0.951 . S
H941 C971 0.949 . S
C942 C943 1.376 . S
C942 C947 1.386 . S
C942 C948 1.483 . S
C943 H924 0.949 . S
C943 C942 1.376 . S
C943 C944 1.397 . S
C944 H925 0.950 . S
C944 C943 1.397 . S
C944 C945 1.391 . S
C945 C944 1.391 . S
C945 C946 1.405 . S
C946 H926 0.950 . S
C946 C945 1.405 . S
C946 C947 1.367 . S
C947 H927 0.950 . S
C947 C942 1.386 . S
C947 C946 1.367 . S
C948 C942 1.483 . S
C948 C949 1.382 . S
C948 C950 1.403 . S
C949 H928 0.950 . S
C949 C948 1.382 . S
C949 C965 1.411 . S
C950 C948 1.403 . S
C950 C951 1.489 . S
C950 C964 1.411 . S
C951 C950 1.489 . S
C951 C952 1.383 . S
C951 C956 1.382 . S
C952 H929 0.950 . S
C952 C951 1.383 . S
C952 C953 1.395 . S
C953 H930 0.950 . S
C953 C952 1.395 . S
C953 C954 1.288 . S
C954 C953 1.288 . S
C954 C955 1.392 . S
C955 H931 0.951 . S
C955 C954 1.392 . S
C955 C956 1.392 . S
C956 H932 0.949 . S
C956 C951 1.382 . S
C956 C955 1.392 . S
C957 C958 1.376 . S
C957 C962 1.386 . S
C957 C963 1.483 . S
C958 H933 0.949 . S
C958 C957 1.376 . S
C958 C959 1.397 . S
C959 H934 0.950 . S
C959 C958 1.397 . S
C959 C960 1.391 . S
C960 C959 1.391 . S
C960 C961 1.405 . S
C961 H935 0.950 . S
C961 C960 1.405 . S
C961 C962 1.367 . S
C962 H936 0.950 . S
C962 C957 1.386 . S
C962 C961 1.367 . S
C963 C957 1.483 . S
C963 C964 1.382 . S
C963 C965 1.403 . S
C964 H937 0.950 . S
C964 C950 1.411 . S
C964 C963 1.382 . S
C965 C949 1.411 . S
C965 C963 1.403 . S
C965 C966 1.489 . S
C966 C965 1.489 . S
C966 C967 1.383 . S
C966 C971 1.382 . S
C967 H938 0.950 . S
C967 C966 1.383 . S
C967 C968 1.395 . S
C968 H939 0.950 . S
C968 C967 1.395 . S
C968 C969 1.288 . S
C969 C968 1.288 . S
C969 C970 1.392 . S
C970 H940 0.951 . S
C970 C969 1.392 . S
C970 C971 1.392 . S
C971 H941 0.949 . S
C971 C966 1.382 . S
C971 C970 1.392 . S
H972 C991 0.949 . S
H973 C992 0.950 . S
H974 C994 0.950 . S
H975 C995 0.950 . S
H976 C997 0.950 . S
H977 C1000 0.950 . S
H978 C1001 0.950 . S
H979 C1003 0.951 . S
H980 C1004 0.949 . S
H981 C1006 0.949 . S
H982 C1007 0.950 . S
H983 C1009 0.950 . S
H984 C1010 0.950 . S
H985 C1012 0.950 . S
H986 C1015 0.950 . S
H987 C1016 0.950 . S
H988 C1018 0.951 . S
H989 C1019 0.949 . S
C990 C991 1.376 . S
C990 C995 1.386 . S
C990 C996 1.483 . S
C991 H972 0.949 . S
C991 C990 1.376 . S
C991 C992 1.397 . S
C992 H973 0.950 . S
C992 C991 1.397 . S
C992 C993 1.391 . S
C993 C992 1.391 . S
C993 C994 1.405 . S
C994 H974 0.950 . S
C994 C993 1.405 . S
C994 C995 1.367 . S
C995 H975 0.950 . S
C995 C990 1.386 . S
C995 C994 1.367 . S
C996 C990 1.483 . S
C996 C997 1.382 . S
C996 C998 1.403 . S
C997 H976 0.950 . S
C997 C996 1.382 . S
C997 C1013 1.411 . S
C998 C996 1.403 . S
C998 C999 1.489 . S
C998 C1012 1.411 . S
C999 C998 1.489 . S
C999 C1000 1.383 . S
C999 C1004 1.382 . S
C1000 H977 0.950 . S
C1000 C999 1.383 . S
C1000 C1001 1.395 . S
C1001 H978 0.950 . S
C1001 C1000 1.395 . S
C1001 C1002 1.288 . S
C1002 C1001 1.288 . S
C1002 C1003 1.392 . S
C1003 H979 0.951 . S
C1003 C1002 1.392 . S
C1003 C1004 1.392 . S
C1004 H980 0.949 . S
C1004 C999 1.382 . S
C1004 C1003 1.392 . S
C1005 C1006 1.376 . S
C1005 C1010 1.386 . S
C1005 C1011 1.483 . S
C1006 H981 0.949 . S
C1006 C1005 1.376 . S
C1006 C1007 1.397 . S
C1007 H982 0.950 . S
C1007 C1006 1.397 . S
C1007 C1008 1.391 . S
C1008 C1007 1.391 . S
C1008 C1009 1.405 . S
C1009 H983 0.950 . S
C1009 C1008 1.405 . S
C1009 C1010 1.367 . S
C1010 H984 0.950 . S
C1010 C1005 1.386 . S
C1010 C1009 1.367 . S
C1011 C1005 1.483 . S
C1011 C1012 1.382 . S
C1011 C1013 1.403 . S
C1012 H985 0.950 . S
C1012 C998 1.411 . S
C1012 C1011 1.382 . S
C1013 C997 1.411 . S
C1013 C1011 1.403 . S
C1013 C1014 1.489 . S
C1014 C1013 1.489 . S
C1014 C1015 1.383 . S
C1014 C1019 1.382 . S
C1015 H986 0.950 . S
C1015 C1014 1.383 . S
C1015 C1016 1.395 . S
C1016 H987 0.950 . S
C1016 C1015 1.395 . S
C1016 C1017 1.288 . S
C1017 C1016 1.288 . S
C1017 C1018 1.392 . S
C1018 H988 0.951 . S
C1018 C1017 1.392 . S
C1018 C1019 1.392 . S
C1019 H989 0.949 . S
C1019 C1014 1.382 . S
C1019 C1018 1.392 . S
H1020 C1039 0.949 . S
H1021 C1040 0.950 . S
H1022 C1042 0.950 . S
H1023 C1043 0.950 . S
H1024 C1045 0.950 . S
H1025 C1048 0.950 . S
H1026 C1049 0.950 . S
H1027 C1051 0.951 . S
H1028 C1052 0.949 . S
H1029 C1054 0.949 . S
H1030 C1055 0.950 . S
H1031 C1057 0.950 . S
H1032 C1058 0.950 . S
H1033 C1060 0.950 . S
H1034 C1063 0.950 . S
H1035 C1064 0.950 . S
H1036 C1066 0.951 . S
H1037 C1067 0.949 . S
C1038 C1039 1.376 . S
C1038 C1043 1.386 . S
C1038 C1044 1.483 . S
C1039 H1020 0.949 . S
C1039 C1038 1.376 . S
C1039 C1040 1.397 . S
C1040 H1021 0.950 . S
C1040 C1039 1.397 . S
C1040 C1041 1.391 . S
C1041 C1040 1.391 . S
C1041 C1042 1.405 . S
C1042 H1022 0.950 . S
C1042 C1041 1.405 . S
C1042 C1043 1.367 . S
C1043 H1023 0.950 . S
C1043 C1038 1.386 . S
C1043 C1042 1.367 . S
C1044 C1038 1.483 . S
C1044 C1045 1.382 . S
C1044 C1046 1.403 . S
C1045 H1024 0.950 . S
C1045 C1044 1.382 . S
C1045 C1061 1.411 . S
C1046 C1044 1.403 . S
C1046 C1047 1.489 . S
C1046 C1060 1.411 . S
C1047 C1046 1.489 . S
C1047 C1048 1.383 . S
C1047 C1052 1.382 . S
C1048 H1025 0.950 . S
C1048 C1047 1.383 . S
C1048 C1049 1.395 . S
C1049 H1026 0.950 . S
C1049 C1048 1.395 . S
C1049 C1050 1.288 . S
C1050 C1049 1.288 . S
C1050 C1051 1.392 . S
C1051 H1027 0.951 . S
C1051 C1050 1.392 . S
C1051 C1052 1.392 . S
C1052 H1028 0.949 . S
C1052 C1047 1.382 . S
C1052 C1051 1.392 . S
C1053 C1054 1.376 . S
C1053 C1058 1.386 . S
C1053 C1059 1.483 . S
C1054 H1029 0.949 . S
C1054 C1053 1.376 . S
C1054 C1055 1.397 . S
C1055 H1030 0.950 . S
C1055 C1054 1.397 . S
C1055 C1056 1.391 . S
C1056 C1055 1.391 . S
C1056 C1057 1.405 . S
C1057 H1031 0.950 . S
C1057 C1056 1.405 . S
C1057 C1058 1.367 . S
C1058 H1032 0.950 . S
C1058 C1053 1.386 . S
C1058 C1057 1.367 . S
C1059 C1053 1.483 . S
C1059 C1060 1.382 . S
C1059 C1061 1.403 . S
C1060 H1033 0.950 . S
C1060 C1046 1.411 . S
C1060 C1059 1.382 . S
C1061 C1045 1.411 . S
C1061 C1059 1.403 . S
C1061 C1062 1.489 . S
C1062 C1061 1.489 . S
C1062 C1063 1.383 . S
C1062 C1067 1.382 . S
C1063 H1034 0.950 . S
C1063 C1062 1.383 . S
C1063 C1064 1.395 . S
C1064 H1035 0.950 . S
C1064 C1063 1.395 . S
C1064 C1065 1.288 . S
C1065 C1064 1.288 . S
C1065 C1066 1.392 . S
C1066 H1036 0.951 . S
C1066 C1065 1.392 . S
C1066 C1067 1.392 . S
C1067 H1037 0.949 . S
C1067 C1062 1.382 . S
C1067 C1066 1.392 . S
H1068 C1087 0.949 . S
H1069 C1088 0.950 . S
H1070 C1090 0.950 . S
H1071 C1091 0.950 . S
H1072 C1093 0.950 . S
H1073 C1096 0.950 . S
H1074 C1097 0.950 . S
H1075 C1099 0.951 . S
H1076 C1100 0.949 . S
H1077 C1102 0.949 . S
H1078 C1103 0.950 . S
H1079 C1105 0.950 . S
H1080 C1106 0.950 . S
H1081 C1108 0.950 . S
H1082 C1111 0.950 . S
H1083 C1112 0.950 . S
H1084 C1114 0.951 . S
H1085 C1115 0.949 . S
C1086 C1087 1.376 . S
C1086 C1091 1.386 . S
C1086 C1092 1.483 . S
C1087 H1068 0.949 . S
C1087 C1086 1.376 . S
C1087 C1088 1.397 . S
C1088 H1069 0.950 . S
C1088 C1087 1.397 . S
C1088 C1089 1.391 . S
C1089 C1088 1.391 . S
C1089 C1090 1.405 . S
C1090 H1070 0.950 . S
C1090 C1089 1.405 . S
C1090 C1091 1.367 . S
C1091 H1071 0.950 . S
C1091 C1086 1.386 . S
C1091 C1090 1.367 . S
C1092 C1086 1.483 . S
C1092 C1093 1.382 . S
C1092 C1094 1.403 . S
C1093 H1072 0.950 . S
C1093 C1092 1.382 . S
C1093 C1109 1.411 . S
C1094 C1092 1.403 . S
C1094 C1095 1.489 . S
C1094 C1108 1.411 . S
C1095 C1094 1.489 . S
C1095 C1096 1.383 . S
C1095 C1100 1.382 . S
C1096 H1073 0.950 . S
C1096 C1095 1.383 . S
C1096 C1097 1.395 . S
C1097 H1074 0.950 . S
C1097 C1096 1.395 . S
C1097 C1098 1.288 . S
C1098 C1097 1.288 . S
C1098 C1099 1.392 . S
C1099 H1075 0.951 . S
C1099 C1098 1.392 . S
C1099 C1100 1.392 . S
C1100 H1076 0.949 . S
C1100 C1095 1.382 . S
C1100 C1099 1.392 . S
C1101 C1102 1.376 . S
C1101 C1106 1.386 . S
C1101 C1107 1.483 . S
C1102 H1077 0.949 . S
C1102 C1101 1.376 . S
C1102 C1103 1.397 . S
C1103 H1078 0.950 . S
C1103 C1102 1.397 . S
C1103 C1104 1.391 . S
C1104 C1103 1.391 . S
C1104 C1105 1.405 . S
C1105 H1079 0.950 . S
C1105 C1104 1.405 . S
C1105 C1106 1.367 . S
C1106 H1080 0.950 . S
C1106 C1101 1.386 . S
C1106 C1105 1.367 . S
C1107 C1101 1.483 . S
C1107 C1108 1.382 . S
C1107 C1109 1.403 . S
C1108 H1081 0.950 . S
C1108 C1094 1.411 . S
C1108 C1107 1.382 . S
C1109 C1093 1.411 . S
C1109 C1107 1.403 . S
C1109 C1110 1.489 . S
C1110 C1109 1.489 . S
C1110 C1111 1.383 . S
C1110 C1115 1.382 . S
C1111 H1082 0.950 . S
C1111 C1110 1.383 . S
C1111 C1112 1.395 . S
C1112 H1083 0.950 . S
C1112 C1111 1.395 . S
C1112 C1113 1.288 . S
C1113 C1112 1.288 . S
C1113 C1114 1.392 . S
C1114 H1084 0.951 . S
C1114 C1113 1.392 . S
C1114 C1115 1.392 . S
C1115 H1085 0.949 . S
C1115 C1110 1.382 . S
C1115 C1114 1.392 . S
C1116 C1117 1.391 . S
C1116 C1118 1.394 . S
C1116 H1132 0.931 . S
C1117 C1116 1.391 . S
C1117 C1121 1.376 1_655 S
C1118 C1116 1.394 . S
C1118 C1119 1.369 . S
C1118 C1122 1.531 . S
C1119 C1118 1.369 . S
C1119 C1120 1.410 1_655 S
C1119 C1127 1.503 . S
C1120 C1119 1.410 1_455 S
C1120 C1121 1.392 . S
C1120 C1123 1.511 . S
C1121 C1117 1.376 1_455 S
C1121 C1120 1.392 . S
C1121 H1133 0.929 . S
C1122 C1118 1.531 . S
C1122 H1134 0.960 . S
C1122 H1135 0.962 . S
C1122 H1136 0.960 . S
C1123 C1120 1.511 . S
C1123 H1137 0.961 . S
C1123 H1138 0.961 . S
C1123 H1139 0.961 . S
C1124 C1125 1.370 . S
C1124 C1126 1.363 . S
C1124 H1140 0.931 . S
C1125 C1124 1.370 . S
C1125 C1129 1.408 1_655 S
C1126 C1124 1.363 . S
C1126 C1127 1.370 . S
C1126 C1130 1.524 . S
C1127 C1119 1.503 . S
C1127 C1126 1.370 . S
C1127 C1128 1.403 1_655 S
C1128 C1127 1.403 1_455 S
C1128 C1129 1.404 . S
C1128 C1131 1.539 . S
C1129 C1125 1.408 1_455 S
C1129 C1128 1.404 . S
C1129 H1141 0.930 . S
C1130 C1126 1.524 . S
C1130 H1142 0.956 . S
C1130 H1143 0.961 . S
C1130 H1144 0.961 . S
C1131 C1128 1.539 . S
C1131 H1145 0.958 . S
C1131 H1146 0.961 . S
C1131 H1147 0.960 . S
H1132 C1116 0.931 . S
H1133 C1121 0.929 . S
H1134 C1122 0.960 . S
H1135 C1122 0.962 . S
H1136 C1122 0.960 . S
H1137 C1123 0.961 . S
H1138 C1123 0.961 . S
H1139 C1123 0.961 . S
H1140 C1124 0.931 . S
H1141 C1129 0.930 . S
H1142 C1130 0.956 . S
H1143 C1130 0.961 . S
H1144 C1130 0.961 . S
H1145 C1131 0.958 . S
H1146 C1131 0.961 . S
H1147 C1131 0.960 . S
C1148 C1149 1.391 . S
C1148 C1150 1.394 . S
C1148 H1164 0.931 . S
C1149 C1148 1.391 . S
C1149 C1153 1.376 . S
C1150 C1148 1.394 . S
C1150 C1151 1.369 . S
C1150 C1154 1.531 . S
C1151 C1150 1.369 . S
C1151 C1152 1.410 . S
C1151 C1159 1.503 . S
C1152 C1151 1.410 . S
C1152 C1153 1.392 . S
C1152 C1155 1.511 . S
C1153 C1149 1.376 . S
C1153 C1152 1.392 . S
C1153 H1165 0.929 . S
C1154 C1150 1.531 . S
C1154 H1166 0.960 . S
C1154 H1167 0.962 . S
C1154 H1168 0.960 . S
C1155 C1152 1.511 . S
C1155 H1169 0.961 . S
C1155 H1170 0.961 . S
C1155 H1171 0.961 . S
C1156 C1157 1.370 . S
C1156 C1158 1.363 . S
C1156 H1172 0.931 . S
C1157 C1156 1.370 . S
C1157 C1161 1.408 . S
C1158 C1156 1.363 . S
C1158 C1159 1.370 . S
C1158 C1162 1.524 . S
C1159 C1151 1.503 . S
C1159 C1158 1.370 . S
C1159 C1160 1.403 . S
C1160 C1159 1.403 . S
C1160 C1161 1.404 . S
C1160 C1163 1.539 . S
C1161 C1157 1.408 . S
C1161 C1160 1.404 . S
C1161 H1173 0.930 . S
C1162 C1158 1.524 . S
C1162 H1174 0.956 . S
C1162 H1175 0.961 . S
C1162 H1176 0.961 . S
C1163 C1160 1.539 . S
C1163 H1177 0.958 . S
C1163 H1178 0.961 . S
C1163 H1179 0.960 . S
H1164 C1148 0.931 . S
H1165 C1153 0.929 . S
H1166 C1154 0.960 . S
H1167 C1154 0.962 . S
H1168 C1154 0.960 . S
H1169 C1155 0.961 . S
H1170 C1155 0.961 . S
H1171 C1155 0.961 . S
H1172 C1156 0.931 . S
H1173 C1161 0.930 . S
H1174 C1162 0.956 . S
H1175 C1162 0.961 . S
H1176 C1162 0.961 . S
H1177 C1163 0.958 . S
H1178 C1163 0.961 . S
H1179 C1163 0.960 . S
C1180 C1181 1.391 . S
C1180 C1182 1.394 . S
C1180 H1196 0.931 . S
C1181 C1180 1.391 . S
C1181 C1185 1.376 1_545 S
C1182 C1180 1.394 . S
C1182 C1183 1.369 . S
C1182 C1186 1.531 . S
C1183 C1182 1.369 . S
C1183 C1184 1.410 1_545 S
C1183 C1191 1.503 . S
C1184 C1183 1.410 1_565 S
C1184 C1185 1.392 . S
C1184 C1187 1.511 . S
C1185 C1181 1.376 1_565 S
C1185 C1184 1.392 . S
C1185 H1197 0.929 . S
C1186 C1182 1.531 . S
C1186 H1198 0.960 . S
C1186 H1199 0.962 . S
C1186 H1200 0.960 . S
C1187 C1184 1.511 . S
C1187 H1201 0.961 . S
C1187 H1202 0.961 . S
C1187 H1203 0.961 . S
C1188 C1189 1.370 1_565 S
C1188 C1190 1.363 . S
C1188 H1204 0.931 . S
C1189 C1188 1.370 1_545 S
C1189 C1193 1.408 . S
C1190 C1188 1.363 . S
C1190 C1191 1.370 1_565 S
C1190 C1194 1.524 . S
C1191 C1183 1.503 . S
C1191 C1190 1.370 1_545 S
C1191 C1192 1.403 . S
C1192 C1191 1.403 . S
C1192 C1193 1.404 . S
C1192 C1195 1.539 . S
C1193 C1189 1.408 . S
C1193 C1192 1.404 . S
C1193 H1205 0.930 . S
C1194 C1190 1.524 . S
C1194 H1206 0.956 . S
C1194 H1207 0.961 . S
C1194 H1208 0.961 . S
C1195 C1192 1.539 . S
C1195 H1209 0.958 . S
C1195 H1210 0.961 . S
C1195 H1211 0.960 . S
H1196 C1180 0.931 . S
H1197 C1185 0.929 . S
H1198 C1186 0.960 . S
H1199 C1186 0.962 . S
H1200 C1186 0.960 . S
H1201 C1187 0.961 . S
H1202 C1187 0.961 . S
H1203 C1187 0.961 . S
H1204 C1188 0.931 . S
H1205 C1193 0.930 . S
H1206 C1194 0.956 . S
H1207 C1194 0.961 . S
H1208 C1194 0.961 . S
H1209 C1195 0.958 . S
H1210 C1195 0.961 . S
H1211 C1195 0.960 . S
C1212 C1213 1.391 1_545 S
C1212 C1214 1.394 . S
C1212 H1228 0.931 . S
C1213 C1212 1.391 1_565 S
C1213 C1217 1.376 . S
C1214 C1212 1.394 . S
C1214 C1215 1.369 1_545 S
C1214 C1218 1.531 . S
C1215 C1214 1.369 1_565 S
C1215 C1216 1.410 . S
C1215 C1223 1.503 . S
C1216 C1215 1.410 . S
C1216 C1217 1.392 . S
C1216 C1219 1.511 . S
C1217 C1213 1.376 . S
C1217 C1216 1.392 . S
C1217 H1229 0.929 . S
C1218 C1214 1.531 . S
C1218 H1230 0.960 . S
C1218 H1231 0.962 . S
C1218 H1232 0.960 . S
C1219 C1216 1.511 . S
C1219 H1233 0.961 . S
C1219 H1234 0.961 . S
C1219 H1235 0.961 . S
C1220 C1221 1.370 1_545 S
C1220 C1222 1.363 . S
C1220 H1236 0.931 . S
C1221 C1220 1.370 1_565 S
C1221 C1225 1.408 . S
C1222 C1220 1.363 . S
C1222 C1223 1.370 1_545 S
C1222 C1226 1.524 . S
C1223 C1215 1.503 . S
C1223 C1222 1.370 1_565 S
C1223 C1224 1.403 . S
C1224 C1223 1.403 . S
C1224 C1225 1.404 . S
C1224 C1227 1.539 . S
C1225 C1221 1.408 . S
C1225 C1224 1.404 . S
C1225 H1237 0.930 . S
C1226 C1222 1.524 . S
C1226 H1238 0.956 . S
C1226 H1239 0.961 1_545 S
C1226 H1240 0.961 . S
C1227 C1224 1.539 . S
C1227 H1241 0.958 . S
C1227 H1242 0.961 . S
C1227 H1243 0.960 . S
H1228 C1212 0.931 . S
H1229 C1217 0.929 . S
H1230 C1218 0.960 . S
H1231 C1218 0.962 . S
H1232 C1218 0.960 . S
H1233 C1219 0.961 . S
H1234 C1219 0.961 . S
H1235 C1219 0.961 . S
H1236 C1220 0.931 . S
H1237 C1225 0.930 . S
H1238 C1226 0.956 . S
H1239 C1226 0.961 1_565 S
H1240 C1226 0.961 . S
H1241 C1227 0.958 . S
H1242 C1227 0.961 . S
H1243 C1227 0.960 . S
C1244 C1245 1.404 . S
C1244 C1246 1.412 . S
C1244 H1260 0.924 1_455 S
C1245 C1244 1.404 . S
C1245 C1249 1.376 . S
C1246 C1244 1.412 . S
C1246 C1247 1.398 . S
C1246 C1250 1.478 1_455 S
C1247 C1246 1.398 . S
C1247 C1248 1.410 . S
C1247 C1255 1.503 . S
C1248 C1247 1.410 . S
C1248 C1249 1.392 . S
C1248 C1251 1.511 . S
C1249 C1245 1.376 . S
C1249 C1248 1.392 . S
C1249 H1261 0.929 . S
C1250 C1246 1.478 1_655 S
C1250 H1262 0.960 . S
C1250 H1263 0.962 . S
C1250 H1264 0.960 . S
C1251 C1248 1.511 . S
C1251 H1265 0.961 . S
C1251 H1266 0.961 . S
C1251 H1267 0.961 . S
C1252 C1253 1.370 1_655 S
C1252 C1254 1.363 . S
C1252 H1268 0.931 . S
C1253 C1252 1.370 1_455 S
C1253 C1257 1.408 . S
C1254 C1252 1.363 . S
C1254 C1255 1.370 1_655 S
C1254 C1258 1.524 . S
C1255 C1247 1.503 . S
C1255 C1254 1.370 1_455 S
C1255 C1256 1.403 . S
C1256 C1255 1.403 . S
C1256 C1257 1.404 . S
C1256 C1259 1.539 . S
C1257 C1253 1.408 . S
C1257 C1256 1.404 . S
C1257 H1269 0.930 . S
C1258 C1254 1.524 . S
C1258 H1270 0.956 . S
C1258 H1271 0.961 . S
C1258 H1272 0.961 . S
C1259 C1256 1.539 . S
C1259 H1273 0.958 . S
C1259 H1274 0.961 . S
C1259 H1275 0.960 . S
H1260 C1244 0.924 1_655 S
H1261 C1249 0.929 . S
H1262 C1250 0.960 . S
H1263 C1250 0.962 . S
H1264 C1250 0.960 . S
H1265 C1251 0.961 . S
H1266 C1251 0.961 . S
H1267 C1251 0.961 . S
H1268 C1252 0.931 . S
H1269 C1257 0.930 . S
H1270 C1258 0.956 . S
H1271 C1258 0.961 . S
H1272 C1258 0.961 . S
H1273 C1259 0.958 . S
H1274 C1259 0.961 . S
H1275 C1259 0.960 . S
C1276 C1277 1.391 . S
C1276 C1278 1.394 . S
C1276 H1292 0.931 . S
C1277 C1276 1.391 . S
C1277 C1281 1.376 . S
C1278 C1276 1.394 . S
C1278 C1279 1.369 . S
C1278 C1282 1.531 . S
C1279 C1278 1.369 . S
C1279 C1280 1.410 . S
C1279 C1287 1.503 . S
C1280 C1279 1.410 . S
C1280 C1281 1.392 . S
C1280 C1283 1.511 . S
C1281 C1277 1.376 . S
C1281 C1280 1.392 . S
C1281 H1293 0.929 . S
C1282 C1278 1.531 . S
C1282 H1294 0.960 . S
C1282 H1295 0.962 . S
C1282 H1296 0.960 . S
C1283 C1280 1.511 . S
C1283 H1297 0.961 . S
C1283 H1298 0.961 . S
C1283 H1299 0.961 . S
C1284 C1285 1.370 . S
C1284 C1286 1.363 . S
C1284 H1300 0.931 . S
C1285 C1284 1.370 . S
C1285 C1289 1.408 . S
C1286 C1284 1.363 . S
C1286 C1287 1.370 . S
C1286 C1290 1.524 . S
C1287 C1279 1.503 . S
C1287 C1286 1.370 . S
C1287 C1288 1.403 . S
C1288 C1287 1.403 . S
C1288 C1289 1.404 . S
C1288 C1291 1.539 . S
C1289 C1285 1.408 . S
C1289 C1288 1.404 . S
C1289 H1301 0.930 . S
C1290 C1286 1.524 . S
C1290 H1302 0.956 . S
C1290 H1303 0.961 . S
C1290 H1304 0.961 . S
C1291 C1288 1.539 . S
C1291 H1305 0.958 . S
C1291 H1306 0.961 . S
C1291 H1307 0.960 . S
H1292 C1276 0.931 . S
H1293 C1281 0.929 . S
H1294 C1282 0.960 . S
H1295 C1282 0.962 . S
H1296 C1282 0.960 . S
H1297 C1283 0.961 . S
H1298 C1283 0.961 . S
H1299 C1283 0.961 . S
H1300 C1284 0.931 . S
H1301 C1289 0.930 . S
H1302 C1290 0.956 . S
H1303 C1290 0.961 . S
H1304 C1290 0.961 . S
H1305 C1291 0.958 . S
H1306 C1291 0.961 . S
H1307 C1291 0.960 . S
C1308 C1309 1.391 . S
C1308 C1310 1.394 . S
C1308 H1324 0.931 . S
C1309 C1308 1.391 . S
C1309 C1313 1.376 1_455 S
C1310 C1308 1.394 . S
C1310 C1311 1.369 . S
C1310 C1314 1.531 . S
C1311 C1310 1.369 . S
C1311 C1312 1.410 1_455 S
C1311 C1319 1.503 . S
C1312 C1311 1.410 1_655 S
C1312 C1313 1.392 . S
C1312 C1315 1.511 . S
C1313 C1309 1.376 1_655 S
C1313 C1312 1.392 . S
C1313 H1325 0.929 . S
C1314 C1310 1.531 . S
C1314 H1326 0.960 . S
C1314 H1327 0.962 . S
C1314 H1328 0.960 . S
C1315 C1312 1.511 . S
C1315 H1329 0.961 . S
C1315 H1330 0.961 . S
C1315 H1331 0.961 . S
C1316 C1317 1.370 . S
C1316 C1318 1.363 . S
C1316 H1332 0.931 . S
C1317 C1316 1.370 . S
C1317 C1321 1.408 1_455 S
C1318 C1316 1.363 . S
C1318 C1319 1.370 . S
C1318 C1322 1.524 . S
C1319 C1311 1.503 . S
C1319 C1318 1.370 . S
C1319 C1320 1.403 1_455 S
C1320 C1319 1.403 1_655 S
C1320 C1321 1.404 . S
C1320 C1323 1.539 . S
C1321 C1317 1.408 1_655 S
C1321 C1320 1.404 . S
C1321 H1333 0.930 . S
C1322 C1318 1.524 . S
C1322 H1334 0.956 . S
C1322 H1335 0.961 . S
C1322 H1336 0.961 . S
C1323 C1320 1.539 . S
C1323 H1337 0.958 . S
C1323 H1338 0.961 . S
C1323 H1339 0.960 . S
H1324 C1308 0.931 . S
H1325 C1313 0.929 . S
H1326 C1314 0.960 . S
H1327 C1314 0.962 . S
H1328 C1314 0.960 . S
H1329 C1315 0.961 . S
H1330 C1315 0.961 . S
H1331 C1315 0.961 . S
H1332 C1316 0.931 . S
H1333 C1321 0.930 . S
H1334 C1322 0.956 . S
H1335 C1322 0.961 . S
H1336 C1322 0.961 . S
H1337 C1323 0.958 . S
H1338 C1323 0.961 . S
H1339 C1323 0.960 . S
C1340 C1341 1.391 . S
C1340 C1342 1.394 . S
C1340 H1356 0.931 . S
C1341 C1340 1.391 . S
C1341 C1345 1.376 . S
C1342 C1340 1.394 . S
C1342 C1343 1.369 . S
C1342 C1346 1.531 . S
C1343 C1342 1.369 . S
C1343 C1344 1.410 . S
C1343 C1351 1.503 . S
C1344 C1343 1.410 . S
C1344 C1345 1.392 . S
C1344 C1347 1.511 . S
C1345 C1341 1.376 . S
C1345 C1344 1.392 . S
C1345 H1357 0.929 . S
C1346 C1342 1.531 . S
C1346 H1358 0.960 . S
C1346 H1359 0.962 . S
C1346 H1360 0.960 . S
C1347 C1344 1.511 . S
C1347 H1361 0.961 . S
C1347 H1362 0.961 . S
C1347 H1363 0.961 . S
C1348 C1349 1.370 . S
C1348 C1350 1.363 . S
C1348 H1364 0.931 . S
C1349 C1348 1.370 . S
C1349 C1353 1.408 . S
C1350 C1348 1.363 . S
C1350 C1351 1.370 . S
C1350 C1354 1.524 . S
C1351 C1343 1.503 . S
C1351 C1350 1.370 . S
C1351 C1352 1.403 . S
C1352 C1351 1.403 . S
C1352 C1353 1.404 . S
C1352 C1355 1.539 . S
C1353 C1349 1.408 . S
C1353 C1352 1.404 . S
C1353 H1365 0.930 . S
C1354 C1350 1.524 . S
C1354 H1366 0.956 . S
C1354 H1367 0.961 . S
C1354 H1368 0.961 . S
C1355 C1352 1.539 . S
C1355 H1369 0.958 . S
C1355 H1370 0.961 . S
C1355 H1371 0.960 . S
H1356 C1340 0.931 . S
H1357 C1345 0.929 . S
H1358 C1346 0.960 . S
H1359 C1346 0.962 . S
H1360 C1346 0.960 . S
H1361 C1347 0.961 . S
H1362 C1347 0.961 . S
H1363 C1347 0.961 . S
H1364 C1348 0.931 . S
H1365 C1353 0.930 . S
H1366 C1354 0.956 . S
H1367 C1354 0.961 . S
H1368 C1354 0.961 . S
H1369 C1355 0.958 . S
H1370 C1355 0.961 . S
H1371 C1355 0.960 . S
C1372 C1373 1.391 1_545 S
C1372 C1374 1.394 . S
C1372 H1388 0.931 . S
C1373 C1372 1.391 1_565 S
C1373 C1377 1.376 . S
C1374 C1372 1.394 . S
C1374 C1375 1.386 . S
C1374 C1378 1.531 . S
C1375 C1374 1.386 . S
C1375 C1376 1.365 1_545 S
C1375 C1383 1.533 1_545 S
C1376 C1375 1.365 1_565 S
C1376 C1377 1.392 . S
C1376 C1379 1.511 . S
C1377 C1373 1.376 . S
C1377 C1376 1.392 . S
C1377 H1389 0.929 . S
C1378 C1374 1.531 . S
C1378 H1390 0.960 . S
C1378 H1391 0.962 1_545 S
C1378 H1392 0.960 . S
C1379 C1376 1.511 . S
C1379 H1393 0.961 . S
C1379 H1394 0.961 . S
C1379 H1395 0.961 1_565 S
C1380 C1381 1.370 . S
C1380 C1382 1.363 . S
C1380 H1396 0.931 . S
C1381 C1380 1.370 . S
C1381 C1385 1.408 1_565 S
C1382 C1380 1.363 . S
C1382 C1383 1.376 . S
C1382 C1386 1.524 . S
C1383 C1375 1.533 1_565 S
C1383 C1382 1.376 . S
C1383 C1384 1.393 1_565 S
C1384 C1383 1.393 1_545 S
C1384 C1385 1.404 . S
C1384 C1387 1.539 . S
C1385 C1381 1.408 1_545 S
C1385 C1384 1.404 . S
C1385 H1397 0.930 . S
C1386 C1382 1.524 . S
C1386 H1398 0.956 . S
C1386 H1399 0.961 . S
C1386 H1400 0.961 . S
C1387 C1384 1.539 . S
C1387 H1401 0.958 . S
C1387 H1402 0.961 . S
C1387 H1403 0.960 . S
H1388 C1372 0.931 . S
H1389 C1377 0.929 . S
H1390 C1378 0.960 . S
H1391 C1378 0.962 1_565 S
H1392 C1378 0.960 . S
H1393 C1379 0.961 . S
H1394 C1379 0.961 . S
H1395 C1379 0.961 1_545 S
H1396 C1380 0.931 . S
H1397 C1385 0.930 . S
H1398 C1386 0.956 . S
H1399 C1386 0.961 . S
H1400 C1386 0.961 . S
H1401 C1387 0.958 . S
H1402 C1387 0.961 . S
H1403 C1387 0.960 . S
C1404 C1405 1.391 . S
C1404 C1406 1.394 . S
C1404 H1420 0.931 . S
C1405 C1404 1.391 . S
C1405 C1409 1.376 1_545 S
C1406 C1404 1.394 . S
C1406 C1407 1.369 . S
C1406 C1410 1.531 . S
C1407 C1406 1.369 . S
C1407 C1408 1.410 1_545 S
C1407 C1415 1.503 . S
C1408 C1407 1.410 1_565 S
C1408 C1409 1.392 . S
C1408 C1411 1.511 . S
C1409 C1405 1.376 1_565 S
C1409 C1408 1.392 . S
C1409 H1421 0.929 . S
C1410 C1406 1.531 . S
C1410 H1422 0.960 . S
C1410 H1423 0.962 . S
C1410 H1424 0.960 . S
C1411 C1408 1.511 . S
C1411 H1425 0.961 . S
C1411 H1426 0.961 . S
C1411 H1427 0.961 . S
C1412 C1413 1.370 1_565 S
C1412 C1414 1.363 . S
C1412 H1428 0.931 . S
C1413 C1412 1.370 1_545 S
C1413 C1417 1.408 . S
C1414 C1412 1.363 . S
C1414 C1415 1.370 1_565 S
C1414 C1418 1.524 . S
C1415 C1407 1.503 . S
C1415 C1414 1.370 1_545 S
C1415 C1416 1.403 . S
C1416 C1415 1.403 . S
C1416 C1417 1.404 . S
C1416 C1419 1.539 . S
C1417 C1413 1.408 . S
C1417 C1416 1.404 . S
C1417 H1429 0.930 . S
C1418 C1414 1.524 . S
C1418 H1430 0.956 . S
C1418 H1431 0.961 . S
C1418 H1432 0.961 . S
C1419 C1416 1.539 . S
C1419 H1433 0.958 . S
C1419 H1434 0.961 . S
C1419 H1435 0.960 . S
H1420 C1404 0.931 . S
H1421 C1409 0.929 . S
H1422 C1410 0.960 . S
H1423 C1410 0.962 . S
H1424 C1410 0.960 . S
H1425 C1411 0.961 . S
H1426 C1411 0.961 . S
H1427 C1411 0.961 . S
H1428 C1412 0.931 . S
H1429 C1417 0.930 . S
H1430 C1418 0.956 . S
H1431 C1418 0.961 . S
H1432 C1418 0.961 . S
H1433 C1419 0.958 . S
H1434 C1419 0.961 . S
H1435 C1419 0.960 . S
C1436 C1437 1.391 . S
C1436 C1438 1.394 . S
C1436 H1452 0.931 . S
C1437 C1436 1.391 . S
C1437 C1441 1.376 1_655 S
C1438 C1436 1.394 . S
C1438 C1439 1.369 . S
C1438 C1442 1.531 . S
C1439 C1438 1.369 . S
C1439 C1440 1.410 1_655 S
C1439 C1447 1.503 . S
C1440 C1439 1.410 1_455 S
C1440 C1441 1.392 . S
C1440 C1443 1.511 . S
C1441 C1437 1.376 1_455 S
C1441 C1440 1.392 . S
C1441 H1453 0.929 . S
C1442 C1438 1.531 . S
C1442 H1454 0.960 . S
C1442 H1455 0.962 . S
C1442 H1456 0.960 . S
C1443 C1440 1.511 . S
C1443 H1457 0.961 . S
C1443 H1458 0.961 . S
C1443 H1459 0.961 . S
C1444 C1445 1.370 1_455 S
C1444 C1446 1.363 . S
C1444 H1460 0.931 . S
C1445 C1444 1.370 1_655 S
C1445 C1449 1.408 . S
C1446 C1444 1.363 . S
C1446 C1447 1.370 1_455 S
C1446 C1450 1.524 . S
C1447 C1439 1.503 . S
C1447 C1446 1.370 1_655 S
C1447 C1448 1.403 . S
C1448 C1447 1.403 . S
C1448 C1449 1.404 . S
C1448 C1451 1.539 . S
C1449 C1445 1.408 . S
C1449 C1448 1.404 . S
C1449 H1461 0.930 . S
C1450 C1446 1.524 . S
C1450 H1462 0.956 . S
C1450 H1463 0.961 . S
C1450 H1464 0.961 . S
C1451 C1448 1.539 . S
C1451 H1465 0.958 . S
C1451 H1466 0.961 . S
C1451 H1467 0.960 . S
H1452 C1436 0.931 . S
H1453 C1441 0.929 . S
H1454 C1442 0.960 . S
H1455 C1442 0.962 . S
H1456 C1442 0.960 . S
H1457 C1443 0.961 . S
H1458 C1443 0.961 . S
H1459 C1443 0.961 . S
H1460 C1444 0.931 . S
H1461 C1449 0.930 . S
H1462 C1450 0.956 . S
H1463 C1450 0.961 . S
H1464 C1450 0.961 . S
H1465 C1451 0.958 . S
H1466 C1451 0.961 . S
H1467 C1451 0.960 . S
C1468 C1469 1.391 . S
C1468 C1470 1.394 . S
C1468 H1484 0.931 . S
C1469 C1468 1.391 . S
C1469 C1473 1.376 . S
C1470 C1468 1.394 . S
C1470 C1471 1.369 . S
C1470 C1474 1.531 . S
C1471 C1470 1.369 . S
C1471 C1472 1.410 . S
C1471 C1479 1.503 . S
C1472 C1471 1.410 . S
C1472 C1473 1.392 . S
C1472 C1475 1.511 . S
C1473 C1469 1.376 . S
C1473 C1472 1.392 . S
C1473 H1485 0.929 . S
C1474 C1470 1.531 . S
C1474 H1486 0.960 . S
C1474 H1487 0.962 . S
C1474 H1488 0.960 . S
C1475 C1472 1.511 . S
C1475 H1489 0.961 . S
C1475 H1490 0.961 . S
C1475 H1491 0.961 . S
C1476 C1477 1.370 . S
C1476 C1478 1.363 . S
C1476 H1492 0.931 . S
C1477 C1476 1.370 . S
C1477 C1481 1.408 . S
C1478 C1476 1.363 . S
C1478 C1479 1.370 . S
C1478 C1482 1.524 . S
C1479 C1471 1.503 . S
C1479 C1478 1.370 . S
C1479 C1480 1.403 . S
C1480 C1479 1.403 . S
C1480 C1481 1.404 . S
C1480 C1483 1.539 . S
C1481 C1477 1.408 . S
C1481 C1480 1.404 . S
C1481 H1493 0.930 . S
C1482 C1478 1.524 . S
C1482 H1494 0.956 . S
C1482 H1495 0.961 . S
C1482 H1496 0.961 . S
C1483 C1480 1.539 . S
C1483 H1497 0.958 . S
C1483 H1498 0.961 . S
C1483 H1499 0.960 . S
H1484 C1468 0.931 . S
H1485 C1473 0.929 . S
H1486 C1474 0.960 . S
H1487 C1474 0.962 . S
H1488 C1474 0.960 . S
H1489 C1475 0.961 . S
H1490 C1475 0.961 . S
H1491 C1475 0.961 . S
H1492 C1476 0.931 . S
H1493 C1481 0.930 . S
H1494 C1482 0.956 . S
H1495 C1482 0.961 . S
H1496 C1482 0.961 . S
H1497 C1483 0.958 . S
H1498 C1483 0.961 . S
H1499 C1483 0.960 . S
C1500 C1501 1.391 . S
C1500 C1502 1.394 . S
C1500 H1516 0.931 . S
C1501 C1500 1.391 . S
C1501 C1505 1.376 . S
C1502 C1500 1.394 . S
C1502 C1503 1.369 . S
C1502 C1506 1.531 . S
C1503 C1502 1.369 . S
C1503 C1504 1.410 . S
C1503 C1511 1.503 . S
C1504 C1503 1.410 . S
C1504 C1505 1.392 . S
C1504 C1507 1.511 . S
C1505 C1501 1.376 . S
C1505 C1504 1.392 . S
C1505 H1517 0.929 . S
C1506 C1502 1.531 . S
C1506 H1518 0.960 . S
C1506 H1519 0.962 . S
C1506 H1520 0.960 . S
C1507 C1504 1.511 . S
C1507 H1521 0.961 . S
C1507 H1522 0.961 . S
C1507 H1523 0.961 . S
C1508 C1509 1.370 . S
C1508 C1510 1.363 . S
C1508 H1524 0.931 . S
C1509 C1508 1.370 . S
C1509 C1513 1.408 . S
C1510 C1508 1.363 . S
C1510 C1511 1.370 . S
C1510 C1514 1.524 . S
C1511 C1503 1.503 . S
C1511 C1510 1.370 . S
C1511 C1512 1.403 . S
C1512 C1511 1.403 . S
C1512 C1513 1.404 . S
C1512 C1515 1.539 . S
C1513 C1509 1.408 . S
C1513 C1512 1.404 . S
C1513 H1525 0.930 . S
C1514 C1510 1.524 . S
C1514 H1526 0.956 . S
C1514 H1527 0.961 . S
C1514 H1528 0.961 . S
C1515 C1512 1.539 . S
C1515 H1529 0.958 . S
C1515 H1530 0.961 . S
C1515 H1531 0.960 . S
H1516 C1500 0.931 . S
H1517 C1505 0.929 . S
H1518 C1506 0.960 . S
H1519 C1506 0.962 . S
H1520 C1506 0.960 . S
H1521 C1507 0.961 . S
H1522 C1507 0.961 . S
H1523 C1507 0.961 . S
H1524 C1508 0.931 . S
H1525 C1513 0.930 . S
H1526 C1514 0.956 . S
H1527 C1514 0.961 . S
H1528 C1514 0.961 . S
H1529 C1515 0.958 . S
H1530 C1515 0.961 . S
H1531 C1515 0.960 . S
C1532 C1533 1.391 . S
C1532 C1534 1.394 . S
C1532 H1548 0.931 . S
C1533 C1532 1.391 . S
C1533 C1537 1.376 . S
C1534 C1532 1.394 . S
C1534 C1535 1.369 . S
C1534 C1538 1.531 . S
C1535 C1534 1.369 . S
C1535 C1536 1.410 . S
C1535 C1543 1.503 . S
C1536 C1535 1.410 . S
C1536 C1537 1.392 . S
C1536 C1539 1.511 . S
C1537 C1533 1.376 . S
C1537 C1536 1.392 . S
C1537 H1549 0.929 . S
C1538 C1534 1.531 . S
C1538 H1550 0.960 . S
C1538 H1551 0.962 . S
C1538 H1552 0.960 . S
C1539 C1536 1.511 . S
C1539 H1553 0.961 . S
C1539 H1554 0.961 . S
C1539 H1555 0.961 . S
C1540 C1541 1.370 . S
C1540 C1542 1.363 . S
C1540 H1556 0.931 . S
C1541 C1540 1.370 . S
C1541 C1545 1.408 . S
C1542 C1540 1.363 . S
C1542 C1543 1.370 . S
C1542 C1546 1.524 . S
C1543 C1535 1.503 . S
C1543 C1542 1.370 . S
C1543 C1544 1.403 . S
C1544 C1543 1.403 . S
C1544 C1545 1.404 . S
C1544 C1547 1.539 . S
C1545 C1541 1.408 . S
C1545 C1544 1.404 . S
C1545 H1557 0.930 . S
C1546 C1542 1.524 . S
C1546 H1558 0.956 . S
C1546 H1559 0.961 . S
C1546 H1560 0.961 . S
C1547 C1544 1.539 . S
C1547 H1561 0.958 . S
C1547 H1562 0.961 . S
C1547 H1563 0.960 . S
H1548 C1532 0.931 . S
H1549 C1537 0.929 . S
H1550 C1538 0.960 . S
H1551 C1538 0.962 . S
H1552 C1538 0.960 . S
H1553 C1539 0.961 . S
H1554 C1539 0.961 . S
H1555 C1539 0.961 . S
H1556 C1540 0.931 . S
H1557 C1545 0.930 . S
H1558 C1546 0.956 . S
H1559 C1546 0.961 . S
H1560 C1546 0.961 . S
H1561 C1547 0.958 . S
H1562 C1547 0.961 . S
H1563 C1547 0.960 . S
C1564 C1565 1.391 . S
C1564 C1566 1.394 . S
C1564 H1580 0.931 . S
C1565 C1564 1.391 . S
C1565 C1569 1.376 . S
C1566 C1564 1.394 . S
C1566 C1567 1.369 . S
C1566 C1570 1.531 . S
C1567 C1566 1.369 . S
C1567 C1568 1.410 . S
C1567 C1575 1.503 . S
C1568 C1567 1.410 . S
C1568 C1569 1.392 . S
C1568 C1571 1.511 . S
C1569 C1565 1.376 . S
C1569 C1568 1.392 . S
C1569 H1581 0.929 . S
C1570 C1566 1.531 . S
C1570 H1582 0.960 . S
C1570 H1583 0.962 . S
C1570 H1584 0.960 . S
C1571 C1568 1.511 . S
C1571 H1585 0.961 . S
C1571 H1586 0.961 . S
C1571 H1587 0.961 . S
C1572 C1573 1.370 . S
C1572 C1574 1.363 . S
C1572 H1588 0.931 . S
C1573 C1572 1.370 . S
C1573 C1577 1.408 . S
C1574 C1572 1.363 . S
C1574 C1575 1.370 . S
C1574 C1578 1.524 . S
C1575 C1567 1.503 . S
C1575 C1574 1.370 . S
C1575 C1576 1.403 . S
C1576 C1575 1.403 . S
C1576 C1577 1.404 . S
C1576 C1579 1.539 . S
C1577 C1573 1.408 . S
C1577 C1576 1.404 . S
C1577 H1589 0.930 . S
C1578 C1574 1.524 . S
C1578 H1590 0.956 . S
C1578 H1591 0.961 . S
C1578 H1592 0.961 . S
C1579 C1576 1.539 . S
C1579 H1593 0.958 . S
C1579 H1594 0.961 . S
C1579 H1595 0.960 . S
H1580 C1564 0.931 . S
H1581 C1569 0.929 . S
H1582 C1570 0.960 . S
H1583 C1570 0.962 . S
H1584 C1570 0.960 . S
H1585 C1571 0.961 . S
H1586 C1571 0.961 . S
H1587 C1571 0.961 . S
H1588 C1572 0.931 . S
H1589 C1577 0.930 . S
H1590 C1578 0.956 . S
H1591 C1578 0.961 . S
H1592 C1578 0.961 . S
H1593 C1579 0.958 . S
H1594 C1579 0.961 . S
H1595 C1579 0.960 . S
C1596 C1597 1.391 . S
C1596 C1598 1.394 . S
C1596 H1612 0.931 . S
C1597 C1596 1.391 . S
C1597 C1601 1.376 . S
C1598 C1596 1.394 . S
C1598 C1599 1.369 . S
C1598 C1602 1.531 . S
C1599 C1598 1.369 . S
C1599 C1600 1.410 . S
C1599 C1607 1.503 . S
C1600 C1599 1.410 . S
C1600 C1601 1.392 . S
C1600 C1603 1.511 . S
C1601 C1597 1.376 . S
C1601 C1600 1.392 . S
C1601 H1613 0.929 . S
C1602 C1598 1.531 . S
C1602 H1614 0.960 . S
C1602 H1615 0.962 . S
C1602 H1616 0.960 . S
C1603 C1600 1.511 . S
C1603 H1617 0.961 . S
C1603 H1618 0.961 . S
C1603 H1619 0.961 . S
C1604 C1605 1.370 . S
C1604 C1606 1.363 . S
C1604 H1620 0.931 . S
C1605 C1604 1.370 . S
C1605 C1609 1.408 . S
C1606 C1604 1.363 . S
C1606 C1607 1.370 . S
C1606 C1610 1.524 . S
C1607 C1599 1.503 . S
C1607 C1606 1.370 . S
C1607 C1608 1.403 . S
C1608 C1607 1.403 . S
C1608 C1609 1.404 . S
C1608 C1611 1.539 . S
C1609 C1605 1.408 . S
C1609 C1608 1.404 . S
C1609 H1621 0.930 . S
C1610 C1606 1.524 . S
C1610 H1622 0.956 . S
C1610 H1623 0.961 . S
C1610 H1624 0.961 . S
C1611 C1608 1.539 . S
C1611 H1625 0.958 . S
C1611 H1626 0.961 . S
C1611 H1627 0.960 . S
H1612 C1596 0.931 . S
H1613 C1601 0.929 . S
H1614 C1602 0.960 . S
H1615 C1602 0.962 . S
H1616 C1602 0.960 . S
H1617 C1603 0.961 . S
H1618 C1603 0.961 . S
H1619 C1603 0.961 . S
H1620 C1604 0.931 . S
H1621 C1609 0.930 . S
H1622 C1610 0.956 . S
H1623 C1610 0.961 . S
H1624 C1610 0.961 . S
H1625 C1611 0.958 . S
H1626 C1611 0.961 . S
H1627 C1611 0.960 . S
C1628 C1629 1.391 . S
C1628 C1630 1.394 . S
C1628 H1644 0.931 . S
C1629 C1628 1.391 . S
C1629 C1633 1.376 . S
C1630 C1628 1.394 . S
C1630 C1631 1.369 . S
C1630 C1634 1.531 . S
C1631 C1630 1.369 . S
C1631 C1632 1.410 . S
C1631 C1639 1.503 . S
C1632 C1631 1.410 . S
C1632 C1633 1.392 . S
C1632 C1635 1.511 . S
C1633 C1629 1.376 . S
C1633 C1632 1.392 . S
C1633 H1645 0.929 . S
C1634 C1630 1.531 . S
C1634 H1646 0.960 . S
C1634 H1647 0.962 . S
C1634 H1648 0.960 . S
C1635 C1632 1.511 . S
C1635 H1649 0.961 . S
C1635 H1650 0.961 . S
C1635 H1651 0.961 . S
C1636 C1637 1.370 . S
C1636 C1638 1.363 . S
C1636 H1652 0.931 . S
C1637 C1636 1.370 . S
C1637 C1641 1.408 . S
C1638 C1636 1.363 . S
C1638 C1639 1.370 . S
C1638 C1642 1.524 . S
C1639 C1631 1.503 . S
C1639 C1638 1.370 . S
C1639 C1640 1.403 . S
C1640 C1639 1.403 . S
C1640 C1641 1.404 . S
C1640 C1643 1.539 . S
C1641 C1637 1.408 . S
C1641 C1640 1.404 . S
C1641 H1653 0.930 . S
C1642 C1638 1.524 . S
C1642 H1654 0.956 . S
C1642 H1655 0.961 . S
C1642 H1656 0.961 . S
C1643 C1640 1.539 . S
C1643 H1657 0.958 . S
C1643 H1658 0.961 . S
C1643 H1659 0.960 . S
H1644 C1628 0.931 . S
H1645 C1633 0.929 . S
H1646 C1634 0.960 . S
H1647 C1634 0.962 . S
H1648 C1634 0.960 . S
H1649 C1635 0.961 . S
H1650 C1635 0.961 . S
H1651 C1635 0.961 . S
H1652 C1636 0.931 . S
H1653 C1641 0.930 . S
H1654 C1642 0.956 . S
H1655 C1642 0.961 . S
H1656 C1642 0.961 . S
H1657 C1643 0.958 . S
H1658 C1643 0.961 . S
H1659 C1643 0.960 . S
C1660 C1661 1.391 . S
C1660 C1662 1.394 . S
C1660 H1676 0.931 . S
C1661 C1660 1.391 . S
C1661 C1665 1.376 . S
C1662 C1660 1.394 . S
C1662 C1663 1.369 . S
C1662 C1666 1.531 . S
C1663 C1662 1.369 . S
C1663 C1664 1.410 . S
C1663 C1671 1.503 . S
C1664 C1663 1.410 . S
C1664 C1665 1.392 . S
C1664 C1667 1.511 . S
C1665 C1661 1.376 . S
C1665 C1664 1.392 . S
C1665 H1677 0.929 . S
C1666 C1662 1.531 . S
C1666 H1678 0.960 . S
C1666 H1679 0.962 . S
C1666 H1680 0.960 . S
C1667 C1664 1.511 . S
C1667 H1681 0.961 . S
C1667 H1682 0.961 . S
C1667 H1683 0.961 . S
C1668 C1669 1.370 . S
C1668 C1670 1.363 . S
C1668 H1684 0.931 . S
C1669 C1668 1.370 . S
C1669 C1673 1.408 . S
C1670 C1668 1.363 . S
C1670 C1671 1.370 . S
C1670 C1674 1.524 . S
C1671 C1663 1.503 . S
C1671 C1670 1.370 . S
C1671 C1672 1.403 . S
C1672 C1671 1.403 . S
C1672 C1673 1.404 . S
C1672 C1675 1.539 . S
C1673 C1669 1.408 . S
C1673 C1672 1.404 . S
C1673 H1685 0.930 . S
C1674 C1670 1.524 . S
C1674 H1686 0.956 . S
C1674 H1687 0.961 . S
C1674 H1688 0.961 . S
C1675 C1672 1.539 . S
C1675 H1689 0.958 . S
C1675 H1690 0.961 . S
C1675 H1691 0.960 . S
H1676 C1660 0.931 . S
H1677 C1665 0.929 . S
H1678 C1666 0.960 . S
H1679 C1666 0.962 . S
H1680 C1666 0.960 . S
H1681 C1667 0.961 . S
H1682 C1667 0.961 . S
H1683 C1667 0.961 . S
H1684 C1668 0.931 . S
H1685 C1673 0.930 . S
H1686 C1674 0.956 . S
H1687 C1674 0.961 . S
H1688 C1674 0.961 . S
H1689 C1675 0.958 . S
H1690 C1675 0.961 . S
H1691 C1675 0.960 . S
C1692 C1693 1.391 . S
C1692 C1694 1.394 . S
C1692 H1708 0.931 . S
C1693 C1692 1.391 . S
C1693 C1697 1.376 . S
C1694 C1692 1.394 . S
C1694 C1695 1.369 . S
C1694 C1698 1.531 . S
C1695 C1694 1.369 . S
C1695 C1696 1.410 . S
C1695 C1703 1.503 . S
C1696 C1695 1.410 . S
C1696 C1697 1.392 . S
C1696 C1699 1.511 . S
C1697 C1693 1.376 . S
C1697 C1696 1.392 . S
C1697 H1709 0.929 . S
C1698 C1694 1.531 . S
C1698 H1710 0.960 . S
C1698 H1711 0.962 . S
C1698 H1712 0.960 . S
C1699 C1696 1.511 . S
C1699 H1713 0.961 . S
C1699 H1714 0.961 . S
C1699 H1715 0.961 . S
C1700 C1701 1.370 . S
C1700 C1702 1.363 . S
C1700 H1716 0.931 . S
C1701 C1700 1.370 . S
C1701 C1705 1.408 . S
C1702 C1700 1.363 . S
C1702 C1703 1.370 . S
C1702 C1706 1.524 . S
C1703 C1695 1.503 . S
C1703 C1702 1.370 . S
C1703 C1704 1.403 . S
C1704 C1703 1.403 . S
C1704 C1705 1.404 . S
C1704 C1707 1.539 . S
C1705 C1701 1.408 . S
C1705 C1704 1.404 . S
C1705 H1717 0.930 . S
C1706 C1702 1.524 . S
C1706 H1718 0.956 . S
C1706 H1719 0.961 . S
C1706 H1720 0.961 . S
C1707 C1704 1.539 . S
C1707 H1721 0.958 . S
C1707 H1722 0.961 . S
C1707 H1723 0.960 . S
H1708 C1692 0.931 . S
H1709 C1697 0.929 . S
H1710 C1698 0.960 . S
H1711 C1698 0.962 . S
H1712 C1698 0.960 . S
H1713 C1699 0.961 . S
H1714 C1699 0.961 . S
H1715 C1699 0.961 . S
H1716 C1700 0.931 . S
H1717 C1705 0.930 . S
H1718 C1706 0.956 . S
H1719 C1706 0.961 . S
H1720 C1706 0.961 . S
H1721 C1707 0.958 . S
H1722 C1707 0.961 . S
H1723 C1707 0.960 . S
C1724 C1725 1.391 . S
C1724 C1726 1.394 . S
C1724 H1740 0.931 . S
C1725 C1724 1.391 . S
C1725 C1729 1.376 . S
C1726 C1724 1.394 . S
C1726 C1727 1.369 . S
C1726 C1730 1.531 . S
C1727 C1726 1.369 . S
C1727 C1728 1.410 . S
C1727 C1735 1.503 . S
C1728 C1727 1.410 . S
C1728 C1729 1.392 . S
C1728 C1731 1.511 . S
C1729 C1725 1.376 . S
C1729 C1728 1.392 . S
C1729 H1741 0.929 . S
C1730 C1726 1.531 . S
C1730 H1742 0.960 . S
C1730 H1743 0.962 . S
C1730 H1744 0.960 . S
C1731 C1728 1.511 . S
C1731 H1745 0.961 . S
C1731 H1746 0.961 . S
C1731 H1747 0.961 . S
C1732 C1733 1.370 . S
C1732 C1734 1.363 . S
C1732 H1748 0.931 . S
C1733 C1732 1.370 . S
C1733 C1737 1.408 . S
C1734 C1732 1.363 . S
C1734 C1735 1.370 . S
C1734 C1738 1.524 . S
C1735 C1727 1.503 . S
C1735 C1734 1.370 . S
C1735 C1736 1.403 . S
C1736 C1735 1.403 . S
C1736 C1737 1.404 . S
C1736 C1739 1.539 . S
C1737 C1733 1.408 . S
C1737 C1736 1.404 . S
C1737 H1749 0.930 . S
C1738 C1734 1.524 . S
C1738 H1750 0.956 . S
C1738 H1751 0.961 . S
C1738 H1752 0.961 . S
C1739 C1736 1.539 . S
C1739 H1753 0.958 . S
C1739 H1754 0.961 . S
C1739 H1755 0.960 . S
H1740 C1724 0.931 . S
H1741 C1729 0.929 . S
H1742 C1730 0.960 . S
H1743 C1730 0.962 . S
H1744 C1730 0.960 . S
H1745 C1731 0.961 . S
H1746 C1731 0.961 . S
H1747 C1731 0.961 . S
H1748 C1732 0.931 . S
H1749 C1737 0.930 . S
H1750 C1738 0.956 . S
H1751 C1738 0.961 . S
H1752 C1738 0.961 . S
H1753 C1739 0.958 . S
H1754 C1739 0.961 . S
H1755 C1739 0.960 . S
C1756 C1757 1.391 . S
C1756 C1758 1.394 . S
C1756 H1772 0.931 . S
C1757 C1756 1.391 . S
C1757 C1761 1.376 . S
C1758 C1756 1.394 . S
C1758 C1759 1.369 . S
C1758 C1762 1.531 . S
C1759 C1758 1.369 . S
C1759 C1760 1.410 . S
C1759 C1767 1.503 . S
C1760 C1759 1.410 . S
C1760 C1761 1.392 . S
C1760 C1763 1.511 . S
C1761 C1757 1.376 . S
C1761 C1760 1.392 . S
C1761 H1773 0.929 . S
C1762 C1758 1.531 . S
C1762 H1774 0.960 . S
C1762 H1775 0.962 . S
C1762 H1776 0.960 . S
C1763 C1760 1.511 . S
C1763 H1777 0.961 . S
C1763 H1778 0.961 . S
C1763 H1779 0.961 . S
C1764 C1765 1.370 . S
C1764 C1766 1.363 . S
C1764 H1780 0.931 . S
C1765 C1764 1.370 . S
C1765 C1769 1.408 . S
C1766 C1764 1.363 . S
C1766 C1767 1.370 . S
C1766 C1770 1.524 . S
C1767 C1759 1.503 . S
C1767 C1766 1.370 . S
C1767 C1768 1.403 . S
C1768 C1767 1.403 . S
C1768 C1769 1.404 . S
C1768 C1771 1.539 . S
C1769 C1765 1.408 . S
C1769 C1768 1.404 . S
C1769 H1781 0.930 . S
C1770 C1766 1.524 . S
C1770 H1782 0.956 . S
C1770 H1783 0.961 . S
C1770 H1784 0.961 . S
C1771 C1768 1.539 . S
C1771 H1785 0.958 . S
C1771 H1786 0.961 . S
C1771 H1787 0.960 . S
H1772 C1756 0.931 . S
H1773 C1761 0.929 . S
H1774 C1762 0.960 . S
H1775 C1762 0.962 . S
H1776 C1762 0.960 . S
H1777 C1763 0.961 . S
H1778 C1763 0.961 . S
H1779 C1763 0.961 . S
H1780 C1764 0.931 . S
H1781 C1769 0.930 . S
H1782 C1770 0.956 . S
H1783 C1770 0.961 . S
H1784 C1770 0.961 . S
H1785 C1771 0.958 . S
H1786 C1771 0.961 . S
H1787 C1771 0.960 . S
C1788 C1789 1.391 . S
C1788 C1790 1.394 . S
C1788 H1804 0.931 . S
C1789 C1788 1.391 . S
C1789 C1793 1.376 . S
C1790 C1788 1.394 . S
C1790 C1791 1.369 . S
C1790 C1794 1.531 . S
C1791 C1790 1.369 . S
C1791 C1792 1.410 . S
C1791 C1799 1.503 . S
C1792 C1791 1.410 . S
C1792 C1793 1.392 . S
C1792 C1795 1.511 . S
C1793 C1789 1.376 . S
C1793 C1792 1.392 . S
C1793 H1805 0.929 . S
C1794 C1790 1.531 . S
C1794 H1806 0.960 . S
C1794 H1807 0.962 . S
C1794 H1808 0.960 . S
C1795 C1792 1.511 . S
C1795 H1809 0.961 . S
C1795 H1810 0.961 . S
C1795 H1811 0.961 . S
C1796 C1797 1.370 . S
C1796 C1798 1.363 . S
C1796 H1812 0.931 . S
C1797 C1796 1.370 . S
C1797 C1801 1.408 . S
C1798 C1796 1.363 . S
C1798 C1799 1.370 . S
C1798 C1802 1.524 . S
C1799 C1791 1.503 . S
C1799 C1798 1.370 . S
C1799 C1800 1.403 . S
C1800 C1799 1.403 . S
C1800 C1801 1.404 . S
C1800 C1803 1.539 . S
C1801 C1797 1.408 . S
C1801 C1800 1.404 . S
C1801 H1813 0.930 . S
C1802 C1798 1.524 . S
C1802 H1814 0.956 . S
C1802 H1815 0.961 . S
C1802 H1816 0.961 . S
C1803 C1800 1.539 . S
C1803 H1817 0.958 . S
C1803 H1818 0.961 . S
C1803 H1819 0.960 . S
H1804 C1788 0.931 . S
H1805 C1793 0.929 . S
H1806 C1794 0.960 . S
H1807 C1794 0.962 . S
H1808 C1794 0.960 . S
H1809 C1795 0.961 . S
H1810 C1795 0.961 . S
H1811 C1795 0.961 . S
H1812 C1796 0.931 . S
H1813 C1801 0.930 . S
H1814 C1802 0.956 . S
H1815 C1802 0.961 . S
H1816 C1802 0.961 . S
H1817 C1803 0.958 . S
H1818 C1803 0.961 . S
H1819 C1803 0.960 . S
C1820 C1821 1.391 . S
C1820 C1822 1.394 . S
C1820 H1836 0.931 . S
C1821 C1820 1.391 . S
C1821 C1825 1.376 . S
C1822 C1820 1.394 . S
C1822 C1823 1.369 . S
C1822 C1826 1.531 . S
C1823 C1822 1.369 . S
C1823 C1824 1.410 . S
C1823 C1831 1.503 . S
C1824 C1823 1.410 . S
C1824 C1825 1.392 . S
C1824 C1827 1.511 . S
C1825 C1821 1.376 . S
C1825 C1824 1.392 . S
C1825 H1837 0.929 . S
C1826 C1822 1.531 . S
C1826 H1838 0.960 . S
C1826 H1839 0.962 . S
C1826 H1840 0.960 . S
C1827 C1824 1.511 . S
C1827 H1841 0.961 . S
C1827 H1842 0.961 . S
C1827 H1843 0.961 . S
C1828 C1829 1.370 . S
C1828 C1830 1.363 . S
C1828 H1844 0.931 . S
C1829 C1828 1.370 . S
C1829 C1833 1.408 . S
C1830 C1828 1.363 . S
C1830 C1831 1.370 . S
C1830 C1834 1.524 . S
C1831 C1823 1.503 . S
C1831 C1830 1.370 . S
C1831 C1832 1.403 . S
C1832 C1831 1.403 . S
C1832 C1833 1.404 . S
C1832 C1835 1.539 . S
C1833 C1829 1.408 . S
C1833 C1832 1.404 . S
C1833 H1845 0.930 . S
C1834 C1830 1.524 . S
C1834 H1846 0.956 . S
C1834 H1847 0.961 . S
C1834 H1848 0.961 . S
C1835 C1832 1.539 . S
C1835 H1849 0.958 . S
C1835 H1850 0.961 . S
C1835 H1851 0.960 . S
H1836 C1820 0.931 . S
H1837 C1825 0.929 . S
H1838 C1826 0.960 . S
H1839 C1826 0.962 . S
H1840 C1826 0.960 . S
H1841 C1827 0.961 . S
H1842 C1827 0.961 . S
H1843 C1827 0.961 . S
H1844 C1828 0.931 . S
H1845 C1833 0.930 . S
H1846 C1834 0.956 . S
H1847 C1834 0.961 . S
H1848 C1834 0.961 . S
H1849 C1835 0.958 . S
H1850 C1835 0.961 . S
H1851 C1835 0.960 . S
C1852 C1853 1.391 . S
C1852 C1854 1.394 . S
C1852 H1868 0.931 . S
C1853 C1852 1.391 . S
C1853 C1857 1.376 . S
C1854 C1852 1.394 . S
C1854 C1855 1.369 . S
C1854 C1858 1.531 . S
C1855 C1854 1.369 . S
C1855 C1856 1.410 . S
C1855 C1863 1.503 . S
C1856 C1855 1.410 . S
C1856 C1857 1.392 . S
C1856 C1859 1.511 . S
C1857 C1853 1.376 . S
C1857 C1856 1.392 . S
C1857 H1869 0.929 . S
C1858 C1854 1.531 . S
C1858 H1870 0.960 . S
C1858 H1871 0.962 . S
C1858 H1872 0.960 . S
C1859 C1856 1.511 . S
C1859 H1873 0.961 . S
C1859 H1874 0.961 . S
C1859 H1875 0.961 . S
C1860 C1861 1.370 . S
C1860 C1862 1.363 . S
C1860 H1876 0.931 . S
C1861 C1860 1.370 . S
C1861 C1865 1.408 . S
C1862 C1860 1.363 . S
C1862 C1863 1.370 . S
C1862 C1866 1.524 . S
C1863 C1855 1.503 . S
C1863 C1862 1.370 . S
C1863 C1864 1.403 . S
C1864 C1863 1.403 . S
C1864 C1865 1.404 . S
C1864 C1867 1.539 . S
C1865 C1861 1.408 . S
C1865 C1864 1.404 . S
C1865 H1877 0.930 . S
C1866 C1862 1.524 . S
C1866 H1878 0.956 . S
C1866 H1879 0.961 . S
C1866 H1880 0.961 . S
C1867 C1864 1.539 . S
C1867 H1881 0.958 . S
C1867 H1882 0.961 . S
C1867 H1883 0.960 . S
H1868 C1852 0.931 . S
H1869 C1857 0.929 . S
H1870 C1858 0.960 . S
H1871 C1858 0.962 . S
H1872 C1858 0.960 . S
H1873 C1859 0.961 . S
H1874 C1859 0.961 . S
H1875 C1859 0.961 . S
H1876 C1860 0.931 . S
H1877 C1865 0.930 . S
H1878 C1866 0.956 . S
H1879 C1866 0.961 . S
H1880 C1866 0.961 . S
H1881 C1867 0.958 . S
H1882 C1867 0.961 . S
H1883 C1867 0.960 . S
C1884 C1885 1.391 . S
C1884 C1886 1.394 . S
C1884 H1900 0.931 . S
C1885 C1884 1.391 . S
C1885 C1889 1.376 . S
C1886 C1884 1.394 . S
C1886 C1887 1.369 . S
C1886 C1890 1.531 . S
C1887 C1886 1.369 . S
C1887 C1888 1.410 . S
C1887 C1895 1.503 . S
C1888 C1887 1.410 . S
C1888 C1889 1.392 . S
C1888 C1891 1.511 . S
C1889 C1885 1.376 . S
C1889 C1888 1.392 . S
C1889 H1901 0.929 . S
C1890 C1886 1.531 . S
C1890 H1902 0.960 . S
C1890 H1903 0.962 . S
C1890 H1904 0.960 . S
C1891 C1888 1.511 . S
C1891 H1905 0.961 . S
C1891 H1906 0.961 . S
C1891 H1907 0.961 . S
C1892 C1893 1.370 . S
C1892 C1894 1.363 . S
C1892 H1908 0.931 . S
C1893 C1892 1.370 . S
C1893 C1897 1.408 . S
C1894 C1892 1.363 . S
C1894 C1895 1.370 . S
C1894 C1898 1.524 . S
C1895 C1887 1.503 . S
C1895 C1894 1.370 . S
C1895 C1896 1.403 . S
C1896 C1895 1.403 . S
C1896 C1897 1.404 . S
C1896 C1899 1.539 . S
C1897 C1893 1.408 . S
C1897 C1896 1.404 . S
C1897 H1909 0.930 . S
C1898 C1894 1.524 . S
C1898 H1910 0.956 . S
C1898 H1911 0.961 . S
C1898 H1912 0.961 . S
C1899 C1896 1.539 . S
C1899 H1913 0.958 . S
C1899 H1914 0.961 . S
C1899 H1915 0.960 . S
H1900 C1884 0.931 . S
H1901 C1889 0.929 . S
H1902 C1890 0.960 . S
H1903 C1890 0.962 . S
H1904 C1890 0.960 . S
H1905 C1891 0.961 . S
H1906 C1891 0.961 . S
H1907 C1891 0.961 . S
H1908 C1892 0.931 . S
H1909 C1897 0.930 . S
H1910 C1898 0.956 . S
H1911 C1898 0.961 . S
H1912 C1898 0.961 . S
H1913 C1899 0.958 . S
H1914 C1899 0.961 . S
H1915 C1899 0.960 . S
C1916 C1917 1.391 . S
C1916 C1918 1.394 . S
C1916 H1932 0.931 . S
C1917 C1916 1.391 . S
C1917 C1921 1.376 . S
C1918 C1916 1.394 . S
C1918 C1919 1.369 . S
C1918 C1922 1.531 . S
C1919 C1918 1.369 . S
C1919 C1920 1.410 . S
C1919 C1927 1.503 . S
C1920 C1919 1.410 . S
C1920 C1921 1.392 . S
C1920 C1923 1.511 . S
C1921 C1917 1.376 . S
C1921 C1920 1.392 . S
C1921 H1933 0.929 . S
C1922 C1918 1.531 . S
C1922 H1934 0.960 . S
C1922 H1935 0.962 . S
C1922 H1936 0.960 . S
C1923 C1920 1.511 . S
C1923 H1937 0.961 . S
C1923 H1938 0.961 . S
C1923 H1939 0.961 . S
C1924 C1925 1.370 . S
C1924 C1926 1.363 . S
C1924 H1940 0.931 . S
C1925 C1924 1.370 . S
C1925 C1929 1.408 . S
C1926 C1924 1.363 . S
C1926 C1927 1.370 . S
C1926 C1930 1.524 . S
C1927 C1919 1.503 . S
C1927 C1926 1.370 . S
C1927 C1928 1.403 . S
C1928 C1927 1.403 . S
C1928 C1929 1.404 . S
C1928 C1931 1.539 . S
C1929 C1925 1.408 . S
C1929 C1928 1.404 . S
C1929 H1941 0.930 . S
C1930 C1926 1.524 . S
C1930 H1942 0.956 . S
C1930 H1943 0.961 . S
C1930 H1944 0.961 . S
C1931 C1928 1.539 . S
C1931 H1945 0.958 . S
C1931 H1946 0.961 . S
C1931 H1947 0.960 . S
H1932 C1916 0.931 . S
H1933 C1921 0.929 . S
H1934 C1922 0.960 . S
H1935 C1922 0.962 . S
H1936 C1922 0.960 . S
H1937 C1923 0.961 . S
H1938 C1923 0.961 . S
H1939 C1923 0.961 . S
H1940 C1924 0.931 . S
H1941 C1929 0.930 . S
H1942 C1930 0.956 . S
H1943 C1930 0.961 . S
H1944 C1930 0.961 . S
H1945 C1931 0.958 . S
H1946 C1931 0.961 . S
H1947 C1931 0.960 . S
C1948 C1949 1.391 . S
C1948 C1950 1.394 . S
C1948 H1964 0.931 . S
C1949 C1948 1.391 . S
C1949 C1953 1.376 . S
C1950 C1948 1.394 . S
C1950 C1951 1.369 . S
C1950 C1954 1.531 . S
C1951 C1950 1.369 . S
C1951 C1952 1.410 . S
C1951 C1959 1.503 . S
C1952 C1951 1.410 . S
C1952 C1953 1.392 . S
C1952 C1955 1.511 . S
C1953 C1949 1.376 . S
C1953 C1952 1.392 . S
C1953 H1965 0.929 . S
C1954 C1950 1.531 . S
C1954 H1966 0.960 . S
C1954 H1967 0.962 . S
C1954 H1968 0.960 . S
C1955 C1952 1.511 . S
C1955 H1969 0.961 . S
C1955 H1970 0.961 . S
C1955 H1971 0.961 . S
C1956 C1957 1.370 . S
C1956 C1958 1.363 . S
C1956 H1972 0.931 . S
C1957 C1956 1.370 . S
C1957 C1961 1.408 . S
C1958 C1956 1.363 . S
C1958 C1959 1.370 . S
C1958 C1962 1.524 . S
C1959 C1951 1.503 . S
C1959 C1958 1.370 . S
C1959 C1960 1.403 . S
C1960 C1959 1.403 . S
C1960 C1961 1.404 . S
C1960 C1963 1.539 . S
C1961 C1957 1.408 . S
C1961 C1960 1.404 . S
C1961 H1973 0.930 . S
C1962 C1958 1.524 . S
C1962 H1974 0.956 . S
C1962 H1975 0.961 . S
C1962 H1976 0.961 . S
C1963 C1960 1.539 . S
C1963 H1977 0.958 . S
C1963 H1978 0.961 . S
C1963 H1979 0.960 . S
H1964 C1948 0.931 . S
H1965 C1953 0.929 . S
H1966 C1954 0.960 . S
H1967 C1954 0.962 . S
H1968 C1954 0.960 . S
H1969 C1955 0.961 . S
H1970 C1955 0.961 . S
H1971 C1955 0.961 . S
H1972 C1956 0.931 . S
H1973 C1961 0.930 . S
H1974 C1962 0.956 . S
H1975 C1962 0.961 . S
H1976 C1962 0.961 . S
H1977 C1963 0.958 . S
H1978 C1963 0.961 . S
H1979 C1963 0.960 . S
C1980 C1981 1.391 . S
C1980 C1982 1.394 . S
C1980 H1996 0.931 . S
C1981 C1980 1.391 . S
C1981 C1985 1.376 . S
C1982 C1980 1.394 . S
C1982 C1983 1.369 . S
C1982 C1986 1.531 . S
C1983 C1982 1.369 . S
C1983 C1984 1.410 . S
C1983 C1991 1.503 . S
C1984 C1983 1.410 . S
C1984 C1985 1.392 . S
C1984 C1987 1.511 . S
C1985 C1981 1.376 . S
C1985 C1984 1.392 . S
C1985 H1997 0.929 . S
C1986 C1982 1.531 . S
C1986 H1998 0.960 . S
C1986 H1999 0.962 . S
C1986 H2000 0.960 . S
C1987 C1984 1.511 . S
C1987 H2001 0.961 . S
C1987 H2002 0.961 . S
C1987 H2003 0.961 . S
C1988 C1989 1.370 . S
C1988 C1990 1.363 . S
C1988 H2004 0.931 . S
C1989 C1988 1.370 . S
C1989 C1993 1.408 . S
C1990 C1988 1.363 . S
C1990 C1991 1.370 . S
C1990 C1994 1.524 . S
C1991 C1983 1.503 . S
C1991 C1990 1.370 . S
C1991 C1992 1.403 . S
C1992 C1991 1.403 . S
C1992 C1993 1.404 . S
C1992 C1995 1.539 . S
C1993 C1989 1.408 . S
C1993 C1992 1.404 . S
C1993 H2005 0.930 . S
C1994 C1990 1.524 . S
C1994 H2006 0.956 . S
C1994 H2007 0.961 . S
C1994 H2008 0.961 . S
C1995 C1992 1.539 . S
C1995 H2009 0.958 . S
C1995 H2010 0.961 . S
C1995 H2011 0.960 . S
H1996 C1980 0.931 . S
H1997 C1985 0.929 . S
H1998 C1986 0.960 . S
H1999 C1986 0.962 . S
H2000 C1986 0.960 . S
H2001 C1987 0.961 . S
H2002 C1987 0.961 . S
H2003 C1987 0.961 . S
H2004 C1988 0.931 . S
H2005 C1993 0.930 . S
H2006 C1994 0.956 . S
H2007 C1994 0.961 . S
H2008 C1994 0.961 . S
H2009 C1995 0.958 . S
H2010 C1995 0.961 . S
H2011 C1995 0.960 . S
C2012 C2013 1.391 . S
C2012 C2014 1.394 . S
C2012 H2028 0.931 . S
C2013 C2012 1.391 . S
C2013 C2017 1.376 . S
C2014 C2012 1.394 . S
C2014 C2015 1.369 . S
C2014 C2018 1.531 . S
C2015 C2014 1.369 . S
C2015 C2016 1.410 . S
C2015 C2023 1.503 . S
C2016 C2015 1.410 . S
C2016 C2017 1.392 . S
C2016 C2019 1.511 . S
C2017 C2013 1.376 . S
C2017 C2016 1.392 . S
C2017 H2029 0.929 . S
C2018 C2014 1.531 . S
C2018 H2030 0.960 . S
C2018 H2031 0.962 . S
C2018 H2032 0.960 . S
C2019 C2016 1.511 . S
C2019 H2033 0.961 . S
C2019 H2034 0.961 . S
C2019 H2035 0.961 . S
C2020 C2021 1.370 . S
C2020 C2022 1.363 . S
C2020 H2036 0.931 . S
C2021 C2020 1.370 . S
C2021 C2025 1.408 . S
C2022 C2020 1.363 . S
C2022 C2023 1.370 . S
C2022 C2026 1.524 . S
C2023 C2015 1.503 . S
C2023 C2022 1.370 . S
C2023 C2024 1.403 . S
C2024 C2023 1.403 . S
C2024 C2025 1.404 . S
C2024 C2027 1.539 . S
C2025 C2021 1.408 . S
C2025 C2024 1.404 . S
C2025 H2037 0.930 . S
C2026 C2022 1.524 . S
C2026 H2038 0.956 . S
C2026 H2039 0.961 . S
C2026 H2040 0.961 . S
C2027 C2024 1.539 . S
C2027 H2041 0.958 . S
C2027 H2042 0.961 . S
C2027 H2043 0.960 . S
H2028 C2012 0.931 . S
H2029 C2017 0.929 . S
H2030 C2018 0.960 . S
H2031 C2018 0.962 . S
H2032 C2018 0.960 . S
H2033 C2019 0.961 . S
H2034 C2019 0.961 . S
H2035 C2019 0.961 . S
H2036 C2020 0.931 . S
H2037 C2025 0.930 . S
H2038 C2026 0.956 . S
H2039 C2026 0.961 . S
H2040 C2026 0.961 . S
H2041 C2027 0.958 . S
H2042 C2027 0.961 . S
H2043 C2027 0.960 . S
C2044 C2045 1.391 . S
C2044 C2046 1.394 . S
C2044 H2060 0.931 . S
C2045 C2044 1.391 . S
C2045 C2049 1.376 . S
C2046 C2044 1.394 . S
C2046 C2047 1.369 . S
C2046 C2050 1.531 . S
C2047 C2046 1.369 . S
C2047 C2048 1.410 . S
C2047 C2055 1.503 . S
C2048 C2047 1.410 . S
C2048 C2049 1.392 . S
C2048 C2051 1.511 . S
C2049 C2045 1.376 . S
C2049 C2048 1.392 . S
C2049 H2061 0.929 . S
C2050 C2046 1.531 . S
C2050 H2062 0.960 . S
C2050 H2063 0.962 . S
C2050 H2064 0.960 . S
C2051 C2048 1.511 . S
C2051 H2065 0.961 . S
C2051 H2066 0.961 . S
C2051 H2067 0.961 . S
C2052 C2053 1.370 . S
C2052 C2054 1.363 . S
C2052 H2068 0.931 . S
C2053 C2052 1.370 . S
C2053 C2057 1.408 . S
C2054 C2052 1.363 . S
C2054 C2055 1.370 . S
C2054 C2058 1.524 . S
C2055 C2047 1.503 . S
C2055 C2054 1.370 . S
C2055 C2056 1.403 . S
C2056 C2055 1.403 . S
C2056 C2057 1.404 . S
C2056 C2059 1.539 . S
C2057 C2053 1.408 . S
C2057 C2056 1.404 . S
C2057 H2069 0.930 . S
C2058 C2054 1.524 . S
C2058 H2070 0.956 . S
C2058 H2071 0.961 . S
C2058 H2072 0.961 . S
C2059 C2056 1.539 . S
C2059 H2073 0.958 . S
C2059 H2074 0.961 . S
C2059 H2075 0.960 . S
H2060 C2044 0.931 . S
H2061 C2049 0.929 . S
H2062 C2050 0.960 . S
H2063 C2050 0.962 . S
H2064 C2050 0.960 . S
H2065 C2051 0.961 . S
H2066 C2051 0.961 . S
H2067 C2051 0.961 . S
H2068 C2052 0.931 . S
H2069 C2057 0.930 . S
H2070 C2058 0.956 . S
H2071 C2058 0.961 . S
H2072 C2058 0.961 . S
H2073 C2059 0.958 . S
H2074 C2059 0.961 . S
H2075 C2059 0.960 . S
C2076 C2077 1.391 . S
C2076 C2078 1.394 . S
C2076 H2092 0.931 . S
C2077 C2076 1.391 . S
C2077 C2081 1.376 . S
C2078 C2076 1.394 . S
C2078 C2079 1.369 . S
C2078 C2082 1.531 . S
C2079 C2078 1.369 . S
C2079 C2080 1.410 . S
C2079 C2087 1.503 . S
C2080 C2079 1.410 . S
C2080 C2081 1.392 . S
C2080 C2083 1.511 . S
C2081 C2077 1.376 . S
C2081 C2080 1.392 . S
C2081 H2093 0.929 . S
C2082 C2078 1.531 . S
C2082 H2094 0.960 . S
C2082 H2095 0.962 . S
C2082 H2096 0.960 . S
C2083 C2080 1.511 . S
C2083 H2097 0.961 . S
C2083 H2098 0.961 . S
C2083 H2099 0.961 . S
C2084 C2085 1.370 . S
C2084 C2086 1.363 . S
C2084 H2100 0.931 . S
C2085 C2084 1.370 . S
C2085 C2089 1.408 . S
C2086 C2084 1.363 . S
C2086 C2087 1.370 . S
C2086 C2090 1.524 . S
C2087 C2079 1.503 . S
C2087 C2086 1.370 . S
C2087 C2088 1.403 . S
C2088 C2087 1.403 . S
C2088 C2089 1.404 . S
C2088 C2091 1.539 . S
C2089 C2085 1.408 . S
C2089 C2088 1.404 . S
C2089 H2101 0.930 . S
C2090 C2086 1.524 . S
C2090 H2102 0.956 . S
C2090 H2103 0.961 . S
C2090 H2104 0.961 . S
C2091 C2088 1.539 . S
C2091 H2105 0.958 . S
C2091 H2106 0.961 . S
C2091 H2107 0.960 . S
H2092 C2076 0.931 . S
H2093 C2081 0.929 . S
H2094 C2082 0.960 . S
H2095 C2082 0.962 . S
H2096 C2082 0.960 . S
H2097 C2083 0.961 . S
H2098 C2083 0.961 . S
H2099 C2083 0.961 . S
H2100 C2084 0.931 . S
H2101 C2089 0.930 . S
H2102 C2090 0.956 . S
H2103 C2090 0.961 . S
H2104 C2090 0.961 . S
H2105 C2091 0.958 . S
H2106 C2091 0.961 . S
H2107 C2091 0.960 . S
C2108 C2109 1.391 . S
C2108 C2110 1.394 . S
C2108 H2124 0.931 . S
C2109 C2108 1.391 . S
C2109 C2113 1.376 . S
C2110 C2108 1.394 . S
C2110 C2111 1.369 . S
C2110 C2114 1.531 . S
C2111 C2110 1.369 . S
C2111 C2112 1.410 . S
C2111 C2119 1.503 . S
C2112 C2111 1.410 . S
C2112 C2113 1.392 . S
C2112 C2115 1.511 . S
C2113 C2109 1.376 . S
C2113 C2112 1.392 . S
C2113 H2125 0.929 . S
C2114 C2110 1.531 . S
C2114 H2126 0.960 . S
C2114 H2127 0.962 . S
C2114 H2128 0.960 . S
C2115 C2112 1.511 . S
C2115 H2129 0.961 . S
C2115 H2130 0.961 . S
C2115 H2131 0.961 . S
C2116 C2117 1.370 . S
C2116 C2118 1.363 . S
C2116 H2132 0.931 . S
C2117 C2116 1.370 . S
C2117 C2121 1.408 . S
C2118 C2116 1.363 . S
C2118 C2119 1.370 . S
C2118 C2122 1.524 . S
C2119 C2111 1.503 . S
C2119 C2118 1.370 . S
C2119 C2120 1.403 . S
C2120 C2119 1.403 . S
C2120 C2121 1.404 . S
C2120 C2123 1.539 . S
C2121 C2117 1.408 . S
C2121 C2120 1.404 . S
C2121 H2133 0.930 . S
C2122 C2118 1.524 . S
C2122 H2134 0.956 . S
C2122 H2135 0.961 . S
C2122 H2136 0.961 . S
C2123 C2120 1.539 . S
C2123 H2137 0.958 . S
C2123 H2138 0.961 . S
C2123 H2139 0.960 . S
H2124 C2108 0.931 . S
H2125 C2113 0.929 . S
H2126 C2114 0.960 . S
H2127 C2114 0.962 . S
H2128 C2114 0.960 . S
H2129 C2115 0.961 . S
H2130 C2115 0.961 . S
H2131 C2115 0.961 . S
H2132 C2116 0.931 . S
H2133 C2121 0.930 . S
H2134 C2122 0.956 . S
H2135 C2122 0.961 . S
H2136 C2122 0.961 . S
H2137 C2123 0.958 . S
H2138 C2123 0.961 . S
H2139 C2123 0.960 . S
C2140 C2141 1.391 . S
C2140 C2142 1.394 . S
C2140 H2156 0.931 . S
C2141 C2140 1.391 . S
C2141 C2145 1.376 . S
C2142 C2140 1.394 . S
C2142 C2143 1.369 . S
C2142 C2146 1.531 . S
C2143 C2142 1.369 . S
C2143 C2144 1.410 . S
C2143 C2151 1.503 . S
C2144 C2143 1.410 . S
C2144 C2145 1.392 . S
C2144 C2147 1.511 . S
C2145 C2141 1.376 . S
C2145 C2144 1.392 . S
C2145 H2157 0.929 . S
C2146 C2142 1.531 . S
C2146 H2158 0.960 . S
C2146 H2159 0.962 . S
C2146 H2160 0.960 . S
C2147 C2144 1.511 . S
C2147 H2161 0.961 . S
C2147 H2162 0.961 . S
C2147 H2163 0.961 . S
C2148 C2149 1.370 . S
C2148 C2150 1.363 . S
C2148 H2164 0.931 . S
C2149 C2148 1.370 . S
C2149 C2153 1.408 . S
C2150 C2148 1.363 . S
C2150 C2151 1.370 . S
C2150 C2154 1.524 . S
C2151 C2143 1.503 . S
C2151 C2150 1.370 . S
C2151 C2152 1.403 . S
C2152 C2151 1.403 . S
C2152 C2153 1.404 . S
C2152 C2155 1.539 . S
C2153 C2149 1.408 . S
C2153 C2152 1.404 . S
C2153 H2165 0.930 . S
C2154 C2150 1.524 . S
C2154 H2166 0.956 . S
C2154 H2167 0.961 . S
C2154 H2168 0.961 . S
C2155 C2152 1.539 . S
C2155 H2169 0.958 . S
C2155 H2170 0.961 . S
C2155 H2171 0.960 . S
H2156 C2140 0.931 . S
H2157 C2145 0.929 . S
H2158 C2146 0.960 . S
H2159 C2146 0.962 . S
H2160 C2146 0.960 . S
H2161 C2147 0.961 . S
H2162 C2147 0.961 . S
H2163 C2147 0.961 . S
H2164 C2148 0.931 . S
H2165 C2153 0.930 . S
H2166 C2154 0.956 . S
H2167 C2154 0.961 . S
H2168 C2154 0.961 . S
H2169 C2155 0.958 . S
H2170 C2155 0.961 . S
H2171 C2155 0.960 . S
C2172 C2173 1.391 . S
C2172 C2174 1.394 . S
C2172 H2188 0.931 . S
C2173 C2172 1.391 . S
C2173 C2177 1.376 . S
C2174 C2172 1.394 . S
C2174 C2175 1.369 . S
C2174 C2178 1.531 . S
C2175 C2174 1.369 . S
C2175 C2176 1.410 . S
C2175 C2183 1.503 . S
C2176 C2175 1.410 . S
C2176 C2177 1.392 . S
C2176 C2179 1.511 . S
C2177 C2173 1.376 . S
C2177 C2176 1.392 . S
C2177 H2189 0.929 . S
C2178 C2174 1.531 . S
C2178 H2190 0.960 . S
C2178 H2191 0.962 . S
C2178 H2192 0.960 . S
C2179 C2176 1.511 . S
C2179 H2193 0.961 . S
C2179 H2194 0.961 . S
C2179 H2195 0.961 . S
C2180 C2181 1.370 . S
C2180 C2182 1.363 . S
C2180 H2196 0.931 . S
C2181 C2180 1.370 . S
C2181 C2185 1.408 . S
C2182 C2180 1.363 . S
C2182 C2183 1.370 . S
C2182 C2186 1.524 . S
C2183 C2175 1.503 . S
C2183 C2182 1.370 . S
C2183 C2184 1.403 . S
C2184 C2183 1.403 . S
C2184 C2185 1.404 . S
C2184 C2187 1.539 . S
C2185 C2181 1.408 . S
C2185 C2184 1.404 . S
C2185 H2197 0.930 . S
C2186 C2182 1.524 . S
C2186 H2198 0.956 . S
C2186 H2199 0.961 . S
C2186 H2200 0.961 . S
C2187 C2184 1.539 . S
C2187 H2201 0.958 . S
C2187 H2202 0.961 . S
C2187 H2203 0.960 . S
H2188 C2172 0.931 . S
H2189 C2177 0.929 . S
H2190 C2178 0.960 . S
H2191 C2178 0.962 . S
H2192 C2178 0.960 . S
H2193 C2179 0.961 . S
H2194 C2179 0.961 . S
H2195 C2179 0.961 . S
H2196 C2180 0.931 . S
H2197 C2185 0.930 . S
H2198 C2186 0.956 . S
H2199 C2186 0.961 . S
H2200 C2186 0.961 . S
H2201 C2187 0.958 . S
H2202 C2187 0.961 . S
H2203 C2187 0.960 . S
C2204 C2205 1.391 . S
C2204 C2206 1.394 . S
C2204 H2220 0.931 . S
C2205 C2204 1.391 . S
C2205 C2209 1.376 . S
C2206 C2204 1.394 . S
C2206 C2207 1.369 . S
C2206 C2210 1.531 . S
C2207 C2206 1.369 . S
C2207 C2208 1.410 . S
C2207 C2215 1.503 . S
C2208 C2207 1.410 . S
C2208 C2209 1.392 . S
C2208 C2211 1.511 . S
C2209 C2205 1.376 . S
C2209 C2208 1.392 . S
C2209 H2221 0.929 . S
C2210 C2206 1.531 . S
C2210 H2222 0.960 . S
C2210 H2223 0.962 . S
C2210 H2224 0.960 . S
C2211 C2208 1.511 . S
C2211 H2225 0.961 . S
C2211 H2226 0.961 . S
C2211 H2227 0.961 . S
C2212 C2213 1.370 . S
C2212 C2214 1.363 . S
C2212 H2228 0.931 . S
C2213 C2212 1.370 . S
C2213 C2217 1.408 . S
C2214 C2212 1.363 . S
C2214 C2215 1.370 . S
C2214 C2218 1.524 . S
C2215 C2207 1.503 . S
C2215 C2214 1.370 . S
C2215 C2216 1.403 . S
C2216 C2215 1.403 . S
C2216 C2217 1.404 . S
C2216 C2219 1.539 . S
C2217 C2213 1.408 . S
C2217 C2216 1.404 . S
C2217 H2229 0.930 . S
C2218 C2214 1.524 . S
C2218 H2230 0.956 . S
C2218 H2231 0.961 . S
C2218 H2232 0.961 . S
C2219 C2216 1.539 . S
C2219 H2233 0.958 . S
C2219 H2234 0.961 . S
C2219 H2235 0.960 . S
H2220 C2204 0.931 . S
H2221 C2209 0.929 . S
H2222 C2210 0.960 . S
H2223 C2210 0.962 . S
H2224 C2210 0.960 . S
H2225 C2211 0.961 . S
H2226 C2211 0.961 . S
H2227 C2211 0.961 . S
H2228 C2212 0.931 . S
H2229 C2217 0.930 . S
H2230 C2218 0.956 . S
H2231 C2218 0.961 . S
H2232 C2218 0.961 . S
H2233 C2219 0.958 . S
H2234 C2219 0.961 . S
H2235 C2219 0.960 . S
C2236 C2237 1.391 . S
C2236 C2238 1.394 . S
C2236 H2252 0.931 . S
C2237 C2236 1.391 . S
C2237 C2241 1.376 . S
C2238 C2236 1.394 . S
C2238 C2239 1.369 . S
C2238 C2242 1.531 . S
C2239 C2238 1.369 . S
C2239 C2240 1.410 . S
C2239 C2247 1.503 . S
C2240 C2239 1.410 . S
C2240 C2241 1.392 . S
C2240 C2243 1.511 . S
C2241 C2237 1.376 . S
C2241 C2240 1.392 . S
C2241 H2253 0.929 . S
C2242 C2238 1.531 . S
C2242 H2254 0.960 . S
C2242 H2255 0.962 . S
C2242 H2256 0.960 . S
C2243 C2240 1.511 . S
C2243 H2257 0.961 . S
C2243 H2258 0.961 . S
C2243 H2259 0.961 . S
C2244 C2245 1.370 . S
C2244 C2246 1.363 . S
C2244 H2260 0.931 . S
C2245 C2244 1.370 . S
C2245 C2249 1.408 . S
C2246 C2244 1.363 . S
C2246 C2247 1.370 . S
C2246 C2250 1.524 . S
C2247 C2239 1.503 . S
C2247 C2246 1.370 . S
C2247 C2248 1.403 . S
C2248 C2247 1.403 . S
C2248 C2249 1.404 . S
C2248 C2251 1.539 . S
C2249 C2245 1.408 . S
C2249 C2248 1.404 . S
C2249 H2261 0.930 . S
C2250 C2246 1.524 . S
C2250 H2262 0.956 . S
C2250 H2263 0.961 . S
C2250 H2264 0.961 . S
C2251 C2248 1.539 . S
C2251 H2265 0.958 . S
C2251 H2266 0.961 . S
C2251 H2267 0.960 . S
H2252 C2236 0.931 . S
H2253 C2241 0.929 . S
H2254 C2242 0.960 . S
H2255 C2242 0.962 . S
H2256 C2242 0.960 . S
H2257 C2243 0.961 . S
H2258 C2243 0.961 . S
H2259 C2243 0.961 . S
H2260 C2244 0.931 . S
H2261 C2249 0.930 . S
H2262 C2250 0.956 . S
H2263 C2250 0.961 . S
H2264 C2250 0.961 . S
H2265 C2251 0.958 . S
H2266 C2251 0.961 . S
H2267 C2251 0.960 . S
C2268 C2269 1.391 . S
C2268 C2270 1.394 . S
C2268 H2284 0.931 . S
C2269 C2268 1.391 . S
C2269 C2273 1.376 . S
C2270 C2268 1.394 . S
C2270 C2271 1.369 . S
C2270 C2274 1.531 . S
C2271 C2270 1.369 . S
C2271 C2272 1.410 . S
C2271 C2279 1.503 . S
C2272 C2271 1.410 . S
C2272 C2273 1.392 . S
C2272 C2275 1.511 . S
C2273 C2269 1.376 . S
C2273 C2272 1.392 . S
C2273 H2285 0.929 . S
C2274 C2270 1.531 . S
C2274 H2286 0.960 . S
C2274 H2287 0.962 . S
C2274 H2288 0.960 . S
C2275 C2272 1.511 . S
C2275 H2289 0.961 . S
C2275 H2290 0.961 . S
C2275 H2291 0.961 . S
C2276 C2277 1.370 . S
C2276 C2278 1.363 . S
C2276 H2292 0.931 . S
C2277 C2276 1.370 . S
C2277 C2281 1.408 . S
C2278 C2276 1.363 . S
C2278 C2279 1.370 . S
C2278 C2282 1.524 . S
C2279 C2271 1.503 . S
C2279 C2278 1.370 . S
C2279 C2280 1.403 . S
C2280 C2279 1.403 . S
C2280 C2281 1.404 . S
C2280 C2283 1.539 . S
C2281 C2277 1.408 . S
C2281 C2280 1.404 . S
C2281 H2293 0.930 . S
C2282 C2278 1.524 . S
C2282 H2294 0.956 . S
C2282 H2295 0.961 . S
C2282 H2296 0.961 . S
C2283 C2280 1.539 . S
C2283 H2297 0.958 . S
C2283 H2298 0.961 . S
C2283 H2299 0.960 . S
H2284 C2268 0.931 . S
H2285 C2273 0.929 . S
H2286 C2274 0.960 . S
H2287 C2274 0.962 . S
H2288 C2274 0.960 . S
H2289 C2275 0.961 . S
H2290 C2275 0.961 . S
H2291 C2275 0.961 . S
H2292 C2276 0.931 . S
H2293 C2281 0.930 . S
H2294 C2282 0.956 . S
H2295 C2282 0.961 . S
H2296 C2282 0.961 . S
H2297 C2283 0.958 . S
H2298 C2283 0.961 . S
H2299 C2283 0.960 . S
C2300 C2301 1.391 . S
C2300 C2302 1.394 . S
C2300 H2316 0.931 . S
C2301 C2300 1.391 . S
C2301 C2305 1.376 . S
C2302 C2300 1.394 . S
C2302 C2303 1.369 . S
C2302 C2306 1.531 . S
C2303 C2302 1.369 . S
C2303 C2304 1.410 . S
C2303 C2311 1.503 . S
C2304 C2303 1.410 . S
C2304 C2305 1.392 . S
C2304 C2307 1.511 . S
C2305 C2301 1.376 . S
C2305 C2304 1.392 . S
C2305 H2317 0.929 . S
C2306 C2302 1.531 . S
C2306 H2318 0.960 . S
C2306 H2319 0.962 . S
C2306 H2320 0.960 . S
C2307 C2304 1.511 . S
C2307 H2321 0.961 . S
C2307 H2322 0.961 . S
C2307 H2323 0.961 . S
C2308 C2309 1.370 . S
C2308 C2310 1.363 . S
C2308 H2324 0.931 . S
C2309 C2308 1.370 . S
C2309 C2313 1.408 . S
C2310 C2308 1.363 . S
C2310 C2311 1.370 . S
C2310 C2314 1.524 . S
C2311 C2303 1.503 . S
C2311 C2310 1.370 . S
C2311 C2312 1.403 . S
C2312 C2311 1.403 . S
C2312 C2313 1.404 . S
C2312 C2315 1.539 . S
C2313 C2309 1.408 . S
C2313 C2312 1.404 . S
C2313 H2325 0.930 . S
C2314 C2310 1.524 . S
C2314 H2326 0.956 . S
C2314 H2327 0.961 . S
C2314 H2328 0.961 . S
C2315 C2312 1.539 . S
C2315 H2329 0.958 . S
C2315 H2330 0.961 . S
C2315 H2331 0.960 . S
H2316 C2300 0.931 . S
H2317 C2305 0.929 . S
H2318 C2306 0.960 . S
H2319 C2306 0.962 . S
H2320 C2306 0.960 . S
H2321 C2307 0.961 . S
H2322 C2307 0.961 . S
H2323 C2307 0.961 . S
H2324 C2308 0.931 . S
H2325 C2313 0.930 . S
H2326 C2314 0.956 . S
H2327 C2314 0.961 . S
H2328 C2314 0.961 . S
H2329 C2315 0.958 . S
H2330 C2315 0.961 . S
H2331 C2315 0.960 . S
C2332 C2333 1.391 . S
C2332 C2334 1.394 . S
C2332 H2348 0.931 . S
C2333 C2332 1.391 . S
C2333 C2337 1.376 . S
C2334 C2332 1.394 . S
C2334 C2335 1.369 . S
C2334 C2338 1.531 . S
C2335 C2334 1.369 . S
C2335 C2336 1.410 . S
C2335 C2343 1.503 . S
C2336 C2335 1.410 . S
C2336 C2337 1.392 . S
C2336 C2339 1.511 . S
C2337 C2333 1.376 . S
C2337 C2336 1.392 . S
C2337 H2349 0.929 . S
C2338 C2334 1.531 . S
C2338 H2350 0.960 . S
C2338 H2351 0.962 . S
C2338 H2352 0.960 . S
C2339 C2336 1.511 . S
C2339 H2353 0.961 . S
C2339 H2354 0.961 . S
C2339 H2355 0.961 . S
C2340 C2341 1.370 . S
C2340 C2342 1.363 . S
C2340 H2356 0.931 . S
C2341 C2340 1.370 . S
C2341 C2345 1.408 . S
C2342 C2340 1.363 . S
C2342 C2343 1.370 . S
C2342 C2346 1.524 . S
C2343 C2335 1.503 . S
C2343 C2342 1.370 . S
C2343 C2344 1.403 . S
C2344 C2343 1.403 . S
C2344 C2345 1.404 . S
C2344 C2347 1.539 . S
C2345 C2341 1.408 . S
C2345 C2344 1.404 . S
C2345 H2357 0.930 . S
C2346 C2342 1.524 . S
C2346 H2358 0.956 . S
C2346 H2359 0.961 . S
C2346 H2360 0.961 . S
C2347 C2344 1.539 . S
C2347 H2361 0.958 . S
C2347 H2362 0.961 . S
C2347 H2363 0.960 . S
H2348 C2332 0.931 . S
H2349 C2337 0.929 . S
H2350 C2338 0.960 . S
H2351 C2338 0.962 . S
H2352 C2338 0.960 . S
H2353 C2339 0.961 . S
H2354 C2339 0.961 . S
H2355 C2339 0.961 . S
H2356 C2340 0.931 . S
H2357 C2345 0.930 . S
H2358 C2346 0.956 . S
H2359 C2346 0.961 . S
H2360 C2346 0.961 . S
H2361 C2347 0.958 . S
H2362 C2347 0.961 . S
H2363 C2347 0.960 . S
C2364 C2365 1.391 . S
C2364 C2366 1.394 . S
C2364 H2380 0.931 . S
C2365 C2364 1.391 . S
C2365 C2369 1.376 . S
C2366 C2364 1.394 . S
C2366 C2367 1.369 . S
C2366 C2370 1.531 . S
C2367 C2366 1.369 . S
C2367 C2368 1.410 . S
C2367 C2375 1.503 . S
C2368 C2367 1.410 . S
C2368 C2369 1.392 . S
C2368 C2371 1.511 . S
C2369 C2365 1.376 . S
C2369 C2368 1.392 . S
C2369 H2381 0.929 . S
C2370 C2366 1.531 . S
C2370 H2382 0.960 . S
C2370 H2383 0.962 . S
C2370 H2384 0.960 . S
C2371 C2368 1.511 . S
C2371 H2385 0.961 . S
C2371 H2386 0.961 . S
C2371 H2387 0.961 . S
C2372 C2373 1.370 . S
C2372 C2374 1.363 . S
C2372 H2388 0.931 . S
C2373 C2372 1.370 . S
C2373 C2377 1.408 . S
C2374 C2372 1.363 . S
C2374 C2375 1.370 . S
C2374 C2378 1.524 . S
C2375 C2367 1.503 . S
C2375 C2374 1.370 . S
C2375 C2376 1.403 . S
C2376 C2375 1.403 . S
C2376 C2377 1.404 . S
C2376 C2379 1.539 . S
C2377 C2373 1.408 . S
C2377 C2376 1.404 . S
C2377 H2389 0.930 . S
C2378 C2374 1.524 . S
C2378 H2390 0.956 . S
C2378 H2391 0.961 . S
C2378 H2392 0.961 . S
C2379 C2376 1.539 . S
C2379 H2393 0.958 . S
C2379 H2394 0.961 . S
C2379 H2395 0.960 . S
H2380 C2364 0.931 . S
H2381 C2369 0.929 . S
H2382 C2370 0.960 . S
H2383 C2370 0.962 . S
H2384 C2370 0.960 . S
H2385 C2371 0.961 . S
H2386 C2371 0.961 . S
H2387 C2371 0.961 . S
H2388 C2372 0.931 . S
H2389 C2377 0.930 . S
H2390 C2378 0.956 . S
H2391 C2378 0.961 . S
H2392 C2378 0.961 . S
H2393 C2379 0.958 . S
H2394 C2379 0.961 . S
H2395 C2379 0.960 . S
C2396 C2397 1.391 . S
C2396 C2398 1.394 . S
C2396 H2412 0.931 . S
C2397 C2396 1.391 . S
C2397 C2401 1.376 . S
C2398 C2396 1.394 . S
C2398 C2399 1.369 . S
C2398 C2402 1.531 . S
C2399 C2398 1.369 . S
C2399 C2400 1.410 . S
C2399 C2407 1.503 . S
C2400 C2399 1.410 . S
C2400 C2401 1.392 . S
C2400 C2403 1.511 . S
C2401 C2397 1.376 . S
C2401 C2400 1.392 . S
C2401 H2413 0.929 . S
C2402 C2398 1.531 . S
C2402 H2414 0.960 . S
C2402 H2415 0.962 . S
C2402 H2416 0.960 . S
C2403 C2400 1.511 . S
C2403 H2417 0.961 . S
C2403 H2418 0.961 . S
C2403 H2419 0.961 . S
C2404 C2405 1.370 . S
C2404 C2406 1.363 . S
C2404 H2420 0.931 . S
C2405 C2404 1.370 . S
C2405 C2409 1.408 . S
C2406 C2404 1.363 . S
C2406 C2407 1.370 . S
C2406 C2410 1.524 . S
C2407 C2399 1.503 . S
C2407 C2406 1.370 . S
C2407 C2408 1.403 . S
C2408 C2407 1.403 . S
C2408 C2409 1.404 . S
C2408 C2411 1.539 . S
C2409 C2405 1.408 . S
C2409 C2408 1.404 . S
C2409 H2421 0.930 . S
C2410 C2406 1.524 . S
C2410 H2422 0.956 . S
C2410 H2423 0.961 . S
C2410 H2424 0.961 . S
C2411 C2408 1.539 . S
C2411 H2425 0.958 . S
C2411 H2426 0.961 . S
C2411 H2427 0.960 . S
H2412 C2396 0.931 . S
H2413 C2401 0.929 . S
H2414 C2402 0.960 . S
H2415 C2402 0.962 . S
H2416 C2402 0.960 . S
H2417 C2403 0.961 . S
H2418 C2403 0.961 . S
H2419 C2403 0.961 . S
H2420 C2404 0.931 . S
H2421 C2409 0.930 . S
H2422 C2410 0.956 . S
H2423 C2410 0.961 . S
H2424 C2410 0.961 . S
H2425 C2411 0.958 . S
H2426 C2411 0.961 . S
H2427 C2411 0.960 . S
C2428 C2429 1.391 . S
C2428 C2430 1.394 . S
C2428 H2444 0.931 . S
C2429 C2428 1.391 . S
C2429 C2433 1.376 . S
C2430 C2428 1.394 . S
C2430 C2431 1.369 . S
C2430 C2434 1.531 . S
C2431 C2430 1.369 . S
C2431 C2432 1.410 . S
C2431 C2439 1.503 . S
C2432 C2431 1.410 . S
C2432 C2433 1.392 . S
C2432 C2435 1.511 . S
C2433 C2429 1.376 . S
C2433 C2432 1.392 . S
C2433 H2445 0.929 1_556 S
C2434 C2430 1.531 . S
C2434 H2446 0.960 . S
C2434 H2447 0.962 . S
C2434 H2448 0.960 . S
C2435 C2432 1.511 . S
C2435 H2449 0.961 1_556 S
C2435 H2450 0.961 . S
C2435 H2451 0.961 1_556 S
C2436 C2437 1.370 . S
C2436 C2438 1.363 . S
C2436 H2452 0.931 . S
C2437 C2436 1.370 . S
C2437 C2441 1.408 . S
C2438 C2436 1.363 . S
C2438 C2439 1.370 . S
C2438 C2442 1.524 . S
C2439 C2431 1.503 . S
C2439 C2438 1.370 . S
C2439 C2440 1.403 . S
C2440 C2439 1.403 . S
C2440 C2441 1.404 . S
C2440 C2443 1.539 . S
C2441 C2437 1.408 . S
C2441 C2440 1.404 . S
C2441 H2453 0.930 . S
C2442 C2438 1.524 . S
C2442 H2454 0.956 . S
C2442 H2455 0.961 . S
C2442 H2456 0.961 . S
C2443 C2440 1.539 . S
C2443 H2457 0.958 . S
C2443 H2458 0.961 . S
C2443 H2459 0.960 . S
H2444 C2428 0.931 . S
H2445 C2433 0.929 1_554 S
H2446 C2434 0.960 . S
H2447 C2434 0.962 . S
H2448 C2434 0.960 . S
H2449 C2435 0.961 1_554 S
H2450 C2435 0.961 . S
H2451 C2435 0.961 1_554 S
H2452 C2436 0.931 . S
H2453 C2441 0.930 . S
H2454 C2442 0.956 . S
H2455 C2442 0.961 . S
H2456 C2442 0.961 . S
H2457 C2443 0.958 . S
H2458 C2443 0.961 . S
H2459 C2443 0.960 . S
C2460 C2461 1.391 . S
C2460 C2462 1.394 . S
C2460 H2476 0.931 1_556 S
C2461 C2460 1.391 . S
C2461 C2465 1.376 . S
C2462 C2460 1.394 . S
C2462 C2463 1.369 . S
C2462 C2466 1.531 . S
C2463 C2462 1.369 . S
C2463 C2464 1.410 . S
C2463 C2471 1.503 . S
C2464 C2463 1.410 . S
C2464 C2465 1.392 . S
C2464 C2467 1.511 . S
C2465 C2461 1.376 . S
C2465 C2464 1.392 . S
C2465 H2477 0.929 . S
C2466 C2462 1.531 . S
C2466 H2478 0.960 . S
C2466 H2479 0.961 . S
C2466 H2480 0.960 1_556 S
C2467 C2464 1.511 . S
C2467 H2481 0.961 . S
C2467 H2482 0.961 . S
C2467 H2483 0.961 . S
C2468 C2469 1.370 . S
C2468 C2470 1.363 . S
C2468 H2484 0.931 . S
C2469 C2468 1.370 . S
C2469 C2473 1.408 . S
C2470 C2468 1.363 . S
C2470 C2471 1.370 . S
C2470 C2474 1.524 . S
C2471 C2463 1.503 . S
C2471 C2470 1.370 . S
C2471 C2472 1.403 . S
C2472 C2471 1.403 . S
C2472 C2473 1.404 . S
C2472 C2475 1.539 . S
C2473 C2469 1.408 . S
C2473 C2472 1.404 . S
C2473 H2485 0.930 . S
C2474 C2470 1.524 . S
C2474 H2486 0.956 . S
C2474 H2487 0.961 . S
C2474 H2488 0.961 . S
C2475 C2472 1.539 . S
C2475 H2489 0.958 . S
C2475 H2490 0.961 . S
C2475 H2491 0.960 . S
H2476 C2460 0.931 1_554 S
H2477 C2465 0.929 . S
H2478 C2466 0.960 . S
H2479 C2466 0.961 . S
H2480 C2466 0.960 1_554 S
H2481 C2467 0.961 . S
H2482 C2467 0.961 . S
H2483 C2467 0.961 . S
H2484 C2468 0.931 . S
H2485 C2473 0.930 . S
H2486 C2474 0.956 . S
H2487 C2474 0.961 . S
H2488 C2474 0.961 . S
H2489 C2475 0.958 . S
H2490 C2475 0.961 . S
H2491 C2475 0.960 . S
C2492 C2493 1.391 . S
C2492 C2494 1.394 . S
C2492 H2508 0.931 1_556 S
C2493 C2492 1.391 . S
C2493 C2497 1.376 . S
C2494 C2492 1.394 . S
C2494 C2495 1.369 . S
C2494 C2498 1.531 . S
C2495 C2494 1.369 . S
C2495 C2496 1.410 . S
C2495 C2503 1.503 . S
C2496 C2495 1.410 . S
C2496 C2497 1.392 . S
C2496 C2499 1.511 . S
C2497 C2493 1.376 . S
C2497 C2496 1.392 . S
C2497 H2509 0.929 . S
C2498 C2494 1.531 . S
C2498 H2510 0.960 . S
C2498 H2511 0.962 . S
C2498 H2512 0.960 1_556 S
C2499 C2496 1.511 . S
C2499 H2513 0.961 . S
C2499 H2514 0.961 . S
C2499 H2515 0.961 . S
C2500 C2501 1.370 . S
C2500 C2502 1.363 . S
C2500 H2516 0.931 . S
C2501 C2500 1.370 . S
C2501 C2505 1.408 . S
C2502 C2500 1.363 . S
C2502 C2503 1.370 . S
C2502 C2506 1.524 . S
C2503 C2495 1.503 . S
C2503 C2502 1.370 . S
C2503 C2504 1.403 . S
C2504 C2503 1.403 . S
C2504 C2505 1.404 . S
C2504 C2507 1.539 . S
C2505 C2501 1.408 . S
C2505 C2504 1.404 . S
C2505 H2517 0.930 . S
C2506 C2502 1.524 . S
C2506 H2518 0.956 . S
C2506 H2519 0.961 . S
C2506 H2520 0.961 . S
C2507 C2504 1.539 . S
C2507 H2521 0.958 . S
C2507 H2522 0.961 . S
C2507 H2523 0.960 . S
H2508 C2492 0.931 1_554 S
H2509 C2497 0.929 . S
H2510 C2498 0.960 . S
H2511 C2498 0.962 . S
H2512 C2498 0.960 1_554 S
H2513 C2499 0.961 . S
H2514 C2499 0.961 . S
H2515 C2499 0.961 . S
H2516 C2500 0.931 . S
H2517 C2505 0.930 . S
H2518 C2506 0.956 . S
H2519 C2506 0.961 . S
H2520 C2506 0.961 . S
H2521 C2507 0.958 . S
H2522 C2507 0.961 . S
H2523 C2507 0.960 . S
C2524 C2525 1.391 . S
C2524 C2526 1.394 . S
C2524 H2540 0.931 . S
C2525 C2524 1.391 . S
C2525 C2529 1.376 . S
C2526 C2524 1.394 . S
C2526 C2527 1.369 . S
C2526 C2530 1.531 . S
C2527 C2526 1.369 . S
C2527 C2528 1.410 . S
C2527 C2535 1.503 . S
C2528 C2527 1.410 . S
C2528 C2529 1.392 . S
C2528 C2531 1.511 . S
C2529 C2525 1.376 . S
C2529 C2528 1.392 . S
C2529 H2541 0.929 . S
C2530 C2526 1.531 . S
C2530 H2542 0.960 . S
C2530 H2543 0.962 . S
C2530 H2544 0.960 . S
C2531 C2528 1.511 . S
C2531 H2545 0.961 . S
C2531 H2546 0.961 . S
C2531 H2547 0.961 . S
C2532 C2533 1.370 . S
C2532 C2534 1.363 . S
C2532 H2548 0.931 . S
C2533 C2532 1.370 . S
C2533 C2537 1.408 . S
C2534 C2532 1.363 . S
C2534 C2535 1.370 . S
C2534 C2538 1.524 . S
C2535 C2527 1.503 . S
C2535 C2534 1.370 . S
C2535 C2536 1.403 . S
C2536 C2535 1.403 . S
C2536 C2537 1.404 . S
C2536 C2539 1.539 . S
C2537 C2533 1.408 . S
C2537 C2536 1.404 . S
C2537 H2549 0.930 . S
C2538 C2534 1.524 . S
C2538 H2550 0.956 . S
C2538 H2551 0.961 . S
C2538 H2552 0.961 . S
C2539 C2536 1.539 . S
C2539 H2553 0.958 . S
C2539 H2554 0.961 . S
C2539 H2555 0.960 . S
H2540 C2524 0.931 . S
H2541 C2529 0.929 . S
H2542 C2530 0.960 . S
H2543 C2530 0.962 . S
H2544 C2530 0.960 . S
H2545 C2531 0.961 . S
H2546 C2531 0.961 . S
H2547 C2531 0.961 . S
H2548 C2532 0.931 . S
H2549 C2537 0.930 . S
H2550 C2538 0.956 . S
H2551 C2538 0.961 . S
H2552 C2538 0.961 . S
H2553 C2539 0.958 . S
H2554 C2539 0.961 . S
H2555 C2539 0.960 . S
C2556 C2557 1.391 . S
C2556 C2558 1.394 . S
C2556 H2572 0.931 . S
C2557 C2556 1.391 . S
C2557 C2561 1.376 . S
C2558 C2556 1.394 . S
C2558 C2559 1.369 . S
C2558 C2562 1.531 . S
C2559 C2558 1.369 . S
C2559 C2560 1.410 . S
C2559 C2567 1.503 . S
C2560 C2559 1.410 . S
C2560 C2561 1.392 . S
C2560 C2563 1.511 . S
C2561 C2557 1.376 . S
C2561 C2560 1.392 . S
C2561 H2573 0.929 . S
C2562 C2558 1.531 . S
C2562 H2574 0.960 . S
C2562 H2575 0.962 . S
C2562 H2576 0.960 . S
C2563 C2560 1.511 . S
C2563 H2577 0.961 . S
C2563 H2578 0.961 . S
C2563 H2579 0.961 . S
C2564 C2565 1.370 . S
C2564 C2566 1.363 . S
C2564 H2580 0.931 . S
C2565 C2564 1.370 . S
C2565 C2569 1.408 . S
C2566 C2564 1.363 . S
C2566 C2567 1.370 . S
C2566 C2570 1.524 . S
C2567 C2559 1.503 . S
C2567 C2566 1.370 . S
C2567 C2568 1.403 . S
C2568 C2567 1.403 . S
C2568 C2569 1.404 . S
C2568 C2571 1.539 . S
C2569 C2565 1.408 . S
C2569 C2568 1.404 . S
C2569 H2581 0.930 . S
C2570 C2566 1.524 . S
C2570 H2582 0.956 . S
C2570 H2583 0.961 . S
C2570 H2584 0.961 . S
C2571 C2568 1.539 . S
C2571 H2585 0.958 . S
C2571 H2586 0.961 . S
C2571 H2587 0.960 . S
H2572 C2556 0.931 . S
H2573 C2561 0.929 . S
H2574 C2562 0.960 . S
H2575 C2562 0.962 . S
H2576 C2562 0.960 . S
H2577 C2563 0.961 . S
H2578 C2563 0.961 . S
H2579 C2563 0.961 . S
H2580 C2564 0.931 . S
H2581 C2569 0.930 . S
H2582 C2570 0.956 . S
H2583 C2570 0.961 . S
H2584 C2570 0.961 . S
H2585 C2571 0.958 . S
H2586 C2571 0.961 . S
H2587 C2571 0.960 . S
C2588 C2589 1.391 . S
C2588 C2590 1.394 . S
C2588 H2604 0.931 . S
C2589 C2588 1.391 . S
C2589 C2593 1.376 . S
C2590 C2588 1.394 . S
C2590 C2591 1.369 . S
C2590 C2594 1.531 . S
C2591 C2590 1.369 . S
C2591 C2592 1.410 . S
C2591 C2599 1.503 . S
C2592 C2591 1.410 . S
C2592 C2593 1.392 . S
C2592 C2595 1.511 . S
C2593 C2589 1.376 . S
C2593 C2592 1.392 . S
C2593 H2605 0.929 . S
C2594 C2590 1.531 . S
C2594 H2606 0.960 . S
C2594 H2607 0.962 . S
C2594 H2608 0.960 . S
C2595 C2592 1.511 . S
C2595 H2609 0.961 . S
C2595 H2610 0.961 . S
C2595 H2611 0.961 . S
C2596 C2597 1.370 . S
C2596 C2598 1.363 . S
C2596 H2612 0.931 . S
C2597 C2596 1.370 . S
C2597 C2601 1.408 . S
C2598 C2596 1.363 . S
C2598 C2599 1.370 . S
C2598 C2602 1.524 . S
C2599 C2591 1.503 . S
C2599 C2598 1.370 . S
C2599 C2600 1.403 . S
C2600 C2599 1.403 . S
C2600 C2601 1.404 . S
C2600 C2603 1.539 . S
C2601 C2597 1.408 . S
C2601 C2600 1.404 . S
C2601 H2613 0.930 . S
C2602 C2598 1.524 . S
C2602 H2614 0.956 . S
C2602 H2615 0.961 . S
C2602 H2616 0.961 . S
C2603 C2600 1.539 . S
C2603 H2617 0.958 . S
C2603 H2618 0.961 . S
C2603 H2619 0.960 . S
H2604 C2588 0.931 . S
H2605 C2593 0.929 . S
H2606 C2594 0.960 . S
H2607 C2594 0.962 . S
H2608 C2594 0.960 . S
H2609 C2595 0.961 . S
H2610 C2595 0.961 . S
H2611 C2595 0.961 . S
H2612 C2596 0.931 . S
H2613 C2601 0.930 . S
H2614 C2602 0.956 . S
H2615 C2602 0.961 . S
H2616 C2602 0.961 . S
H2617 C2603 0.958 . S
H2618 C2603 0.961 . S
H2619 C2603 0.960 . S
C2620 C2621 1.391 . S
C2620 C2622 1.394 . S
C2620 H2636 0.931 . S
C2621 C2620 1.391 . S
C2621 C2625 1.376 . S
C2622 C2620 1.394 . S
C2622 C2623 1.369 . S
C2622 C2626 1.531 . S
C2623 C2622 1.369 . S
C2623 C2624 1.410 . S
C2623 C2631 1.503 . S
C2624 C2623 1.410 . S
C2624 C2625 1.392 . S
C2624 C2627 1.511 . S
C2625 C2621 1.376 . S
C2625 C2624 1.392 . S
C2625 H2637 0.929 . S
C2626 C2622 1.531 . S
C2626 H2638 0.960 . S
C2626 H2639 0.962 . S
C2626 H2640 0.960 . S
C2627 C2624 1.511 . S
C2627 H2641 0.961 . S
C2627 H2642 0.961 . S
C2627 H2643 0.961 . S
C2628 C2629 1.370 . S
C2628 C2630 1.363 . S
C2628 H2644 0.931 . S
C2629 C2628 1.370 . S
C2629 C2633 1.408 . S
C2630 C2628 1.363 . S
C2630 C2631 1.370 . S
C2630 C2634 1.524 . S
C2631 C2623 1.503 . S
C2631 C2630 1.370 . S
C2631 C2632 1.403 . S
C2632 C2631 1.403 . S
C2632 C2633 1.404 . S
C2632 C2635 1.539 . S
C2633 C2629 1.408 . S
C2633 C2632 1.404 . S
C2633 H2645 0.930 . S
C2634 C2630 1.524 . S
C2634 H2646 0.956 . S
C2634 H2647 0.961 . S
C2634 H2648 0.961 . S
C2635 C2632 1.539 . S
C2635 H2649 0.958 . S
C2635 H2650 0.961 . S
C2635 H2651 0.960 . S
H2636 C2620 0.931 . S
H2637 C2625 0.929 . S
H2638 C2626 0.960 . S
H2639 C2626 0.962 . S
H2640 C2626 0.960 . S
H2641 C2627 0.961 . S
H2642 C2627 0.961 . S
H2643 C2627 0.961 . S
H2644 C2628 0.931 . S
H2645 C2633 0.930 . S
H2646 C2634 0.956 . S
H2647 C2634 0.961 . S
H2648 C2634 0.961 . S
H2649 C2635 0.958 . S
H2650 C2635 0.961 . S
H2651 C2635 0.960 . S
C2652 C2653 1.391 . S
C2652 C2654 1.394 . S
C2652 H2668 0.931 . S
C2653 C2652 1.391 . S
C2653 C2657 1.376 . S
C2654 C2652 1.394 . S
C2654 C2655 1.369 . S
C2654 C2658 1.531 . S
C2655 C2654 1.369 . S
C2655 C2656 1.410 . S
C2655 C2663 1.503 . S
C2656 C2655 1.410 . S
C2656 C2657 1.392 . S
C2656 C2659 1.511 . S
C2657 C2653 1.376 . S
C2657 C2656 1.392 . S
C2657 H2669 0.929 . S
C2658 C2654 1.531 . S
C2658 H2670 0.960 . S
C2658 H2671 0.962 . S
C2658 H2672 0.960 . S
C2659 C2656 1.511 . S
C2659 H2673 0.961 . S
C2659 H2674 0.961 . S
C2659 H2675 0.961 . S
C2660 C2661 1.370 . S
C2660 C2662 1.363 . S
C2660 H2676 0.931 . S
C2661 C2660 1.370 . S
C2661 C2665 1.408 . S
C2662 C2660 1.363 . S
C2662 C2663 1.370 . S
C2662 C2666 1.524 . S
C2663 C2655 1.503 . S
C2663 C2662 1.370 . S
C2663 C2664 1.403 . S
C2664 C2663 1.403 . S
C2664 C2665 1.404 . S
C2664 C2667 1.539 . S
C2665 C2661 1.408 . S
C2665 C2664 1.404 . S
C2665 H2677 0.930 . S
C2666 C2662 1.524 . S
C2666 H2678 0.956 . S
C2666 H2679 0.961 . S
C2666 H2680 0.961 . S
C2667 C2664 1.539 . S
C2667 H2681 0.958 . S
C2667 H2682 0.961 . S
C2667 H2683 0.960 . S
H2668 C2652 0.931 . S
H2669 C2657 0.929 . S
H2670 C2658 0.960 . S
H2671 C2658 0.962 . S
H2672 C2658 0.960 . S
H2673 C2659 0.961 . S
H2674 C2659 0.961 . S
H2675 C2659 0.961 . S
H2676 C2660 0.931 . S
H2677 C2665 0.930 . S
H2678 C2666 0.956 . S
H2679 C2666 0.961 . S
H2680 C2666 0.961 . S
H2681 C2667 0.958 . S
H2682 C2667 0.961 . S
H2683 C2667 0.960 . S
C2684 C2685 1.391 . S
C2684 C2686 1.394 . S
C2684 H2700 0.931 . S
C2685 C2684 1.391 . S
C2685 C2689 1.376 . S
C2686 C2684 1.394 . S
C2686 C2687 1.369 . S
C2686 C2690 1.531 . S
C2687 C2686 1.369 . S
C2687 C2688 1.410 . S
C2687 C2695 1.503 . S
C2688 C2687 1.410 . S
C2688 C2689 1.392 . S
C2688 C2691 1.511 . S
C2689 C2685 1.376 . S
C2689 C2688 1.392 . S
C2689 H2701 0.929 . S
C2690 C2686 1.531 . S
C2690 H2702 0.960 . S
C2690 H2703 0.962 . S
C2690 H2704 0.960 . S
C2691 C2688 1.511 . S
C2691 H2705 0.961 . S
C2691 H2706 0.961 . S
C2691 H2707 0.961 . S
C2692 C2693 1.370 . S
C2692 C2694 1.363 . S
C2692 H2708 0.931 . S
C2693 C2692 1.370 . S
C2693 C2697 1.408 . S
C2694 C2692 1.363 . S
C2694 C2695 1.370 . S
C2694 C2698 1.524 . S
C2695 C2687 1.503 . S
C2695 C2694 1.370 . S
C2695 C2696 1.403 . S
C2696 C2695 1.403 . S
C2696 C2697 1.404 . S
C2696 C2699 1.539 . S
C2697 C2693 1.408 . S
C2697 C2696 1.404 . S
C2697 H2709 0.930 . S
C2698 C2694 1.524 . S
C2698 H2710 0.956 . S
C2698 H2711 0.961 . S
C2698 H2712 0.961 . S
C2699 C2696 1.539 . S
C2699 H2713 0.958 . S
C2699 H2714 0.961 . S
C2699 H2715 0.960 . S
H2700 C2684 0.931 . S
H2701 C2689 0.929 . S
H2702 C2690 0.960 . S
H2703 C2690 0.962 . S
H2704 C2690 0.960 . S
H2705 C2691 0.961 . S
H2706 C2691 0.961 . S
H2707 C2691 0.961 . S
H2708 C2692 0.931 . S
H2709 C2697 0.930 . S
H2710 C2698 0.956 . S
H2711 C2698 0.961 . S
H2712 C2698 0.961 . S
H2713 C2699 0.958 . S
H2714 C2699 0.961 . S
H2715 C2699 0.960 . S
C2716 C2717 1.391 . S
C2716 C2718 1.394 . S
C2716 H2732 0.931 . S
C2717 C2716 1.391 . S
C2717 C2721 1.376 . S
C2718 C2716 1.394 . S
C2718 C2719 1.369 . S
C2718 C2722 1.531 . S
C2719 C2718 1.369 . S
C2719 C2720 1.410 . S
C2719 C2727 1.503 . S
C2720 C2719 1.410 . S
C2720 C2721 1.392 . S
C2720 C2723 1.511 . S
C2721 C2717 1.376 . S
C2721 C2720 1.392 . S
C2721 H2733 0.929 . S
C2722 C2718 1.531 . S
C2722 H2734 0.960 . S
C2722 H2735 0.962 . S
C2722 H2736 0.960 . S
C2723 C2720 1.511 . S
C2723 H2737 0.961 . S
C2723 H2738 0.961 . S
C2723 H2739 0.961 . S
C2724 C2725 1.370 . S
C2724 C2726 1.363 . S
C2724 H2740 0.931 . S
C2725 C2724 1.370 . S
C2725 C2729 1.408 . S
C2726 C2724 1.363 . S
C2726 C2727 1.370 . S
C2726 C2730 1.524 . S
C2727 C2719 1.503 . S
C2727 C2726 1.370 . S
C2727 C2728 1.403 . S
C2728 C2727 1.403 . S
C2728 C2729 1.404 . S
C2728 C2731 1.539 . S
C2729 C2725 1.408 . S
C2729 C2728 1.404 . S
C2729 H2741 0.930 . S
C2730 C2726 1.524 . S
C2730 H2742 0.956 . S
C2730 H2743 0.961 . S
C2730 H2744 0.961 . S
C2731 C2728 1.539 . S
C2731 H2745 0.958 . S
C2731 H2746 0.961 . S
C2731 H2747 0.960 . S
H2732 C2716 0.931 . S
H2733 C2721 0.929 . S
H2734 C2722 0.960 . S
H2735 C2722 0.962 . S
H2736 C2722 0.960 . S
H2737 C2723 0.961 . S
H2738 C2723 0.961 . S
H2739 C2723 0.961 . S
H2740 C2724 0.931 . S
H2741 C2729 0.930 . S
H2742 C2730 0.956 . S
H2743 C2730 0.961 . S
H2744 C2730 0.961 . S
H2745 C2731 0.958 . S
H2746 C2731 0.961 . S
H2747 C2731 0.960 . S
C2748 C2749 1.391 . S
C2748 C2750 1.394 . S
C2748 H2764 0.931 1_455 S
C2749 C2748 1.391 . S
C2749 C2753 1.376 . S
C2750 C2748 1.394 . S
C2750 C2751 1.369 . S
C2750 C2754 1.531 1_455 S
C2751 C2750 1.369 . S
C2751 C2752 1.410 . S
C2751 C2759 1.503 . S
C2752 C2751 1.410 . S
C2752 C2753 1.392 . S
C2752 C2755 1.511 . S
C2753 C2749 1.376 . S
C2753 C2752 1.392 . S
C2753 H2765 0.929 . S
C2754 C2750 1.531 1_655 S
C2754 H2766 0.960 . S
C2754 H2767 0.962 . S
C2754 H2768 0.960 . S
C2755 C2752 1.511 . S
C2755 H2769 0.961 . S
C2755 H2770 0.961 . S
C2755 H2771 0.961 . S
C2756 C2757 1.370 1_655 S
C2756 C2758 1.363 . S
C2756 H2772 0.931 . S
C2757 C2756 1.370 1_455 S
C2757 C2761 1.408 . S
C2758 C2756 1.363 . S
C2758 C2759 1.370 1_655 S
C2758 C2762 1.524 . S
C2759 C2751 1.503 . S
C2759 C2758 1.370 1_455 S
C2759 C2760 1.403 . S
C2760 C2759 1.403 . S
C2760 C2761 1.404 . S
C2760 C2763 1.539 . S
C2761 C2757 1.408 . S
C2761 C2760 1.404 . S
C2761 H2773 0.930 . S
C2762 C2758 1.524 . S
C2762 H2774 0.956 . S
C2762 H2775 0.961 . S
C2762 H2776 0.961 . S
C2763 C2760 1.539 . S
C2763 H2777 0.958 . S
C2763 H2778 0.961 . S
C2763 H2779 0.960 . S
H2764 C2748 0.931 1_655 S
H2765 C2753 0.929 . S
H2766 C2754 0.960 . S
H2767 C2754 0.962 . S
H2768 C2754 0.960 . S
H2769 C2755 0.961 . S
H2770 C2755 0.961 . S
H2771 C2755 0.961 . S
H2772 C2756 0.931 . S
H2773 C2761 0.930 . S
H2774 C2762 0.956 . S
H2775 C2762 0.961 . S
H2776 C2762 0.961 . S
H2777 C2763 0.958 . S
H2778 C2763 0.961 . S
H2779 C2763 0.960 . S
C2780 C2781 1.391 . S
C2780 C2782 1.394 . S
C2780 H2796 0.931 . S
C2781 C2780 1.391 . S
C2781 C2785 1.376 . S
C2782 C2780 1.394 . S
C2782 C2783 1.369 . S
C2782 C2786 1.531 . S
C2783 C2782 1.369 . S
C2783 C2784 1.410 . S
C2783 C2791 1.503 . S
C2784 C2783 1.410 . S
C2784 C2785 1.392 . S
C2784 C2787 1.511 . S
C2785 C2781 1.376 . S
C2785 C2784 1.392 . S
C2785 H2797 0.929 . S
C2786 C2782 1.531 . S
C2786 H2798 0.960 . S
C2786 H2799 0.962 . S
C2786 H2800 0.960 . S
C2787 C2784 1.511 . S
C2787 H2801 0.961 . S
C2787 H2802 0.961 . S
C2787 H2803 0.961 . S
C2788 C2789 1.370 . S
C2788 C2790 1.363 . S
C2788 H2804 0.931 . S
C2789 C2788 1.370 . S
C2789 C2793 1.408 . S
C2790 C2788 1.363 . S
C2790 C2791 1.370 . S
C2790 C2794 1.524 . S
C2791 C2783 1.503 . S
C2791 C2790 1.370 . S
C2791 C2792 1.403 . S
C2792 C2791 1.403 . S
C2792 C2793 1.404 . S
C2792 C2795 1.539 . S
C2793 C2789 1.408 . S
C2793 C2792 1.404 . S
C2793 H2805 0.930 . S
C2794 C2790 1.524 . S
C2794 H2806 0.956 . S
C2794 H2807 0.961 . S
C2794 H2808 0.961 . S
C2795 C2792 1.539 . S
C2795 H2809 0.958 . S
C2795 H2810 0.961 . S
C2795 H2811 0.960 . S
H2796 C2780 0.931 . S
H2797 C2785 0.929 . S
H2798 C2786 0.960 . S
H2799 C2786 0.962 . S
H2800 C2786 0.960 . S
H2801 C2787 0.961 . S
H2802 C2787 0.961 . S
H2803 C2787 0.961 . S
H2804 C2788 0.931 . S
H2805 C2793 0.930 . S
H2806 C2794 0.956 . S
H2807 C2794 0.961 . S
H2808 C2794 0.961 . S
H2809 C2795 0.958 . S
H2810 C2795 0.961 . S
H2811 C2795 0.960 . S
C2812 C2813 1.391 . S
C2812 C2814 1.394 . S
C2812 H2828 0.931 . S
C2813 C2812 1.391 . S
C2813 C2817 1.376 . S
C2814 C2812 1.394 . S
C2814 C2815 1.369 . S
C2814 C2818 1.531 . S
C2815 C2814 1.369 . S
C2815 C2816 1.410 . S
C2815 C2823 1.503 . S
C2816 C2815 1.410 . S
C2816 C2817 1.392 . S
C2816 C2819 1.524 . S
C2817 C2813 1.376 . S
C2817 C2816 1.392 . S
C2817 H2829 0.929 . S
C2818 C2814 1.531 . S
C2818 H2830 0.960 . S
C2818 H2831 0.962 . S
C2818 H2832 0.960 . S
C2819 C2816 1.524 . S
C2819 H2833 0.902 1_565 S
C2819 H2834 0.967 1_565 S
C2819 H2835 1.006 . S
C2820 C2821 1.370 1_545 S
C2820 C2822 1.363 . S
C2820 H2836 0.931 . S
C2821 C2820 1.370 1_565 S
C2821 C2825 1.408 . S
C2822 C2820 1.363 . S
C2822 C2823 1.370 1_545 S
C2822 C2826 1.524 . S
C2823 C2815 1.503 . S
C2823 C2822 1.370 1_565 S
C2823 C2824 1.403 . S
C2824 C2823 1.403 . S
C2824 C2825 1.404 . S
C2824 C2827 1.539 . S
C2825 C2821 1.408 . S
C2825 C2824 1.404 . S
C2825 H2837 0.930 . S
C2826 C2822 1.524 . S
C2826 H2838 0.956 . S
C2826 H2839 0.961 . S
C2826 H2840 0.961 . S
C2827 C2824 1.539 . S
C2827 H2841 0.958 . S
C2827 H2842 0.961 . S
C2827 H2843 0.960 . S
H2828 C2812 0.931 . S
H2829 C2817 0.929 . S
H2830 C2818 0.960 . S
H2831 C2818 0.962 . S
H2832 C2818 0.960 . S
H2833 C2819 0.902 1_545 S
H2834 C2819 0.967 1_545 S
H2835 C2819 1.006 . S
H2836 C2820 0.931 . S
H2837 C2825 0.930 . S
H2838 C2826 0.956 . S
H2839 C2826 0.961 . S
H2840 C2826 0.961 . S
H2841 C2827 0.958 . S
H2842 C2827 0.961 . S
H2843 C2827 0.960 . S
C2844 C2845 1.391 . S
C2844 C2846 1.394 . S
C2844 H2860 0.931 . S
C2845 C2844 1.391 . S
C2845 C2849 1.376 . S
C2846 C2844 1.394 . S
C2846 C2847 1.369 . S
C2846 C2850 1.531 . S
C2847 C2846 1.369 . S
C2847 C2848 1.410 . S
C2847 C2855 1.503 . S
C2848 C2847 1.410 . S
C2848 C2849 1.392 . S
C2848 C2851 1.511 . S
C2849 C2845 1.376 . S
C2849 C2848 1.392 . S
C2849 H2861 0.929 . S
C2850 C2846 1.531 . S
C2850 H2862 0.960 . S
C2850 H2863 0.922 1_565 S
C2850 H2864 0.960 . S
C2851 C2848 1.511 . S
C2851 H2865 0.961 . S
C2851 H2866 0.961 . S
C2851 H2867 0.961 . S
C2852 C2853 1.370 1_545 S
C2852 C2854 1.363 . S
C2852 H2868 0.931 . S
C2853 C2852 1.370 1_565 S
C2853 C2857 1.408 . S
C2854 C2852 1.363 . S
C2854 C2855 1.370 1_545 S
C2854 C2858 1.524 . S
C2855 C2847 1.503 . S
C2855 C2854 1.370 1_565 S
C2855 C2856 1.403 . S
C2856 C2855 1.403 . S
C2856 C2857 1.404 . S
C2856 C2859 1.539 . S
C2857 C2853 1.408 . S
C2857 C2856 1.404 . S
C2857 H2869 0.930 . S
C2858 C2854 1.524 . S
C2858 H2870 0.956 . S
C2858 H2871 0.961 . S
C2858 H2872 0.961 . S
C2859 C2856 1.539 . S
C2859 H2873 0.958 . S
C2859 H2874 0.961 . S
C2859 H2875 0.960 . S
H2860 C2844 0.931 . S
H2861 C2849 0.929 . S
H2862 C2850 0.960 . S
H2863 C2850 0.922 1_545 S
H2864 C2850 0.960 . S
H2865 C2851 0.961 . S
H2866 C2851 0.961 . S
H2867 C2851 0.961 . S
H2868 C2852 0.931 . S
H2869 C2857 0.930 . S
H2870 C2858 0.956 . S
H2871 C2858 0.961 . S
H2872 C2858 0.961 . S
H2873 C2859 0.958 . S
H2874 C2859 0.961 . S
H2875 C2859 0.960 . S
C2876 C2877 1.391 . S
C2876 C2878 1.394 . S
C2876 H2892 0.931 . S
C2877 C2876 1.391 . S
C2877 C2881 1.376 . S
C2878 C2876 1.394 . S
C2878 C2879 1.369 . S
C2878 C2882 1.531 . S
C2879 C2878 1.369 . S
C2879 C2880 1.410 . S
C2879 C2887 1.503 . S
C2880 C2879 1.410 . S
C2880 C2881 1.392 . S
C2880 C2883 1.511 . S
C2881 C2877 1.376 . S
C2881 C2880 1.392 . S
C2881 H2893 0.929 . S
C2882 C2878 1.531 . S
C2882 H2894 0.960 . S
C2882 H2895 0.962 . S
C2882 H2896 0.960 . S
C2883 C2880 1.511 . S
C2883 H2897 0.961 1_455 S
C2883 H2898 0.959 1_455 S
C2883 H2899 0.961 . S
C2884 C2885 1.370 1_655 S
C2884 C2886 1.363 . S
C2884 H2900 0.931 . S
C2885 C2884 1.370 1_455 S
C2885 C2889 1.408 . S
C2886 C2884 1.363 . S
C2886 C2887 1.370 1_655 S
C2886 C2890 1.524 . S
C2887 C2879 1.503 . S
C2887 C2886 1.370 1_455 S
C2887 C2888 1.403 . S
C2888 C2887 1.403 . S
C2888 C2889 1.404 . S
C2888 C2891 1.539 . S
C2889 C2885 1.408 . S
C2889 C2888 1.404 . S
C2889 H2901 0.930 . S
C2890 C2886 1.524 . S
C2890 H2902 0.956 . S
C2890 H2903 0.961 . S
C2890 H2904 0.961 . S
C2891 C2888 1.539 . S
C2891 H2905 0.958 . S
C2891 H2906 0.961 . S
C2891 H2907 0.960 . S
H2892 C2876 0.931 . S
H2893 C2881 0.929 . S
H2894 C2882 0.960 . S
H2895 C2882 0.962 . S
H2896 C2882 0.960 . S
H2897 C2883 0.961 1_655 S
H2898 C2883 0.959 1_655 S
H2899 C2883 0.961 . S
H2900 C2884 0.931 . S
H2901 C2889 0.930 . S
H2902 C2890 0.956 . S
H2903 C2890 0.961 . S
H2904 C2890 0.961 . S
H2905 C2891 0.958 . S
H2906 C2891 0.961 . S
H2907 C2891 0.960 . S
C2908 C2909 1.391 . S
C2908 C2910 1.394 . S
C2908 H2924 0.931 . S
C2909 C2908 1.391 . S
C2909 C2913 1.376 . S
C2910 C2908 1.394 . S
C2910 C2911 1.369 . S
C2910 C2914 1.531 . S
C2911 C2910 1.369 . S
C2911 C2912 1.410 . S
C2911 C2919 1.503 . S
C2912 C2911 1.410 . S
C2912 C2913 1.392 . S
C2912 C2915 1.511 . S
C2913 C2909 1.376 . S
C2913 C2912 1.392 . S
C2913 H2925 0.929 . S
C2914 C2910 1.531 . S
C2914 H2926 0.960 . S
C2914 H2927 0.962 . S
C2914 H2928 0.960 . S
C2915 C2912 1.511 . S
C2915 H2929 0.961 . S
C2915 H2930 0.961 . S
C2915 H2931 0.961 . S
C2916 C2917 1.370 . S
C2916 C2918 1.363 . S
C2916 H2932 0.931 . S
C2917 C2916 1.370 . S
C2917 C2921 1.408 . S
C2918 C2916 1.363 . S
C2918 C2919 1.370 . S
C2918 C2922 1.524 . S
C2919 C2911 1.503 . S
C2919 C2918 1.370 . S
C2919 C2920 1.403 . S
C2920 C2919 1.403 . S
C2920 C2921 1.404 . S
C2920 C2923 1.539 . S
C2921 C2917 1.408 . S
C2921 C2920 1.404 . S
C2921 H2933 0.930 . S
C2922 C2918 1.524 . S
C2922 H2934 0.956 . S
C2922 H2935 0.961 . S
C2922 H2936 0.961 . S
C2923 C2920 1.539 . S
C2923 H2937 0.958 . S
C2923 H2938 0.961 . S
C2923 H2939 0.960 . S
H2924 C2908 0.931 . S
H2925 C2913 0.929 . S
H2926 C2914 0.960 . S
H2927 C2914 0.962 . S
H2928 C2914 0.960 . S
H2929 C2915 0.961 . S
H2930 C2915 0.961 . S
H2931 C2915 0.961 . S
H2932 C2916 0.931 . S
H2933 C2921 0.930 . S
H2934 C2922 0.956 . S
H2935 C2922 0.961 . S
H2936 C2922 0.961 . S
H2937 C2923 0.958 . S
H2938 C2923 0.961 . S
H2939 C2923 0.960 . S
C2940 C2941 1.391 . S
C2940 C2942 1.394 . S
C2940 H2956 0.931 . S
C2941 C2940 1.391 . S
C2941 C2945 1.376 . S
C2942 C2940 1.394 . S
C2942 C2943 1.369 . S
C2942 C2946 1.531 . S
C2943 C2942 1.369 . S
C2943 C2944 1.410 . S
C2943 C2951 1.503 . S
C2944 C2943 1.410 . S
C2944 C2945 1.392 . S
C2944 C2947 1.511 . S
C2945 C2941 1.376 . S
C2945 C2944 1.392 . S
C2945 H2957 0.929 . S
C2946 C2942 1.531 . S
C2946 H2958 0.960 . S
C2946 H2959 0.962 . S
C2946 H2960 0.960 . S
C2947 C2944 1.511 . S
C2947 H2961 0.961 . S
C2947 H2962 0.961 . S
C2947 H2963 0.961 . S
C2948 C2949 1.370 . S
C2948 C2950 1.363 . S
C2948 H2964 0.931 . S
C2949 C2948 1.370 . S
C2949 C2953 1.408 . S
C2950 C2948 1.363 . S
C2950 C2951 1.370 . S
C2950 C2954 1.524 . S
C2951 C2943 1.503 . S
C2951 C2950 1.370 . S
C2951 C2952 1.403 . S
C2952 C2951 1.403 . S
C2952 C2953 1.404 . S
C2952 C2955 1.539 . S
C2953 C2949 1.408 . S
C2953 C2952 1.404 . S
C2953 H2965 0.930 . S
C2954 C2950 1.524 . S
C2954 H2966 0.956 . S
C2954 H2967 0.961 . S
C2954 H2968 0.961 . S
C2955 C2952 1.539 . S
C2955 H2969 0.958 . S
C2955 H2970 0.961 . S
C2955 H2971 0.960 . S
H2956 C2940 0.931 . S
H2957 C2945 0.929 . S
H2958 C2946 0.960 . S
H2959 C2946 0.962 . S
H2960 C2946 0.960 . S
H2961 C2947 0.961 . S
H2962 C2947 0.961 . S
H2963 C2947 0.961 . S
H2964 C2948 0.931 . S
H2965 C2953 0.930 . S
H2966 C2954 0.956 . S
H2967 C2954 0.961 . S
H2968 C2954 0.961 . S
H2969 C2955 0.958 . S
H2970 C2955 0.961 . S
H2971 C2955 0.960 . S
C2972 C2973 1.391 . S
C2972 C2974 1.394 . S
C2972 H2988 0.931 . S
C2973 C2972 1.391 . S
C2973 C2977 1.376 . S
C2974 C2972 1.394 . S
C2974 C2975 1.369 . S
C2974 C2978 1.531 . S
C2975 C2974 1.369 . S
C2975 C2976 1.410 . S
C2975 C2983 1.503 . S
C2976 C2975 1.410 . S
C2976 C2977 1.392 . S
C2976 C2979 1.511 . S
C2977 C2973 1.376 . S
C2977 C2976 1.392 . S
C2977 H2989 0.929 . S
C2978 C2974 1.531 . S
C2978 H2990 0.960 . S
C2978 H2991 0.962 . S
C2978 H2992 0.960 . S
C2979 C2976 1.511 . S
C2979 H2993 0.961 . S
C2979 H2994 0.961 . S
C2979 H2995 0.961 . S
C2980 C2981 1.370 . S
C2980 C2982 1.363 . S
C2980 H2996 0.931 . S
C2981 C2980 1.370 . S
C2981 C2985 1.408 . S
C2982 C2980 1.363 . S
C2982 C2983 1.370 . S
C2982 C2986 1.524 . S
C2983 C2975 1.503 . S
C2983 C2982 1.370 . S
C2983 C2984 1.403 . S
C2984 C2983 1.403 . S
C2984 C2985 1.404 . S
C2984 C2987 1.539 . S
C2985 C2981 1.408 . S
C2985 C2984 1.404 . S
C2985 H2997 0.930 . S
C2986 C2982 1.524 . S
C2986 H2998 0.956 . S
C2986 H2999 0.961 . S
C2986 H3000 0.961 . S
C2987 C2984 1.539 . S
C2987 H3001 0.958 . S
C2987 H3002 0.961 . S
C2987 H3003 0.960 . S
H2988 C2972 0.931 . S
H2989 C2977 0.929 . S
H2990 C2978 0.960 . S
H2991 C2978 0.962 . S
H2992 C2978 0.960 . S
H2993 C2979 0.961 . S
H2994 C2979 0.961 . S
H2995 C2979 0.961 . S
H2996 C2980 0.931 . S
H2997 C2985 0.930 . S
H2998 C2986 0.956 . S
H2999 C2986 0.961 . S
H3000 C2986 0.961 . S
H3001 C2987 0.958 . S
H3002 C2987 0.961 . S
H3003 C2987 0.960 . S
C3004 C3005 1.391 . S
C3004 C3006 1.394 . S
C3004 H3020 0.931 . S
C3005 C3004 1.391 . S
C3005 C3009 1.376 . S
C3006 C3004 1.394 . S
C3006 C3007 1.369 . S
C3006 C3010 1.531 . S
C3007 C3006 1.369 . S
C3007 C3008 1.410 . S
C3007 C3015 1.503 . S
C3008 C3007 1.410 . S
C3008 C3009 1.392 . S
C3008 C3011 1.511 . S
C3009 C3005 1.376 . S
C3009 C3008 1.392 . S
C3009 H3021 0.929 . S
C3010 C3006 1.531 . S
C3010 H3022 0.960 . S
C3010 H3023 0.962 . S
C3010 H3024 0.960 . S
C3011 C3008 1.511 . S
C3011 H3025 0.961 . S
C3011 H3026 0.961 . S
C3011 H3027 0.961 . S
C3012 C3013 1.370 . S
C3012 C3014 1.363 . S
C3012 H3028 0.931 . S
C3013 C3012 1.370 . S
C3013 C3017 1.408 . S
C3014 C3012 1.363 . S
C3014 C3015 1.370 . S
C3014 C3018 1.524 . S
C3015 C3007 1.503 . S
C3015 C3014 1.370 . S
C3015 C3016 1.403 . S
C3016 C3015 1.403 . S
C3016 C3017 1.404 . S
C3016 C3019 1.539 . S
C3017 C3013 1.408 . S
C3017 C3016 1.404 . S
C3017 H3029 0.930 . S
C3018 C3014 1.524 . S
C3018 H3030 0.956 . S
C3018 H3031 0.961 . S
C3018 H3032 0.961 . S
C3019 C3016 1.539 . S
C3019 H3033 0.958 . S
C3019 H3034 0.961 . S
C3019 H3035 0.960 . S
H3020 C3004 0.931 . S
H3021 C3009 0.929 . S
H3022 C3010 0.960 . S
H3023 C3010 0.962 . S
H3024 C3010 0.960 . S
H3025 C3011 0.961 . S
H3026 C3011 0.961 . S
H3027 C3011 0.961 . S
H3028 C3012 0.931 . S
H3029 C3017 0.930 . S
H3030 C3018 0.956 . S
H3031 C3018 0.961 . S
H3032 C3018 0.961 . S
H3033 C3019 0.958 . S
H3034 C3019 0.961 . S
H3035 C3019 0.960 . S
C3036 C3037 1.391 1_565 S
C3036 C3038 1.394 . S
C3036 H3052 0.931 . S
C3037 C3036 1.391 1_545 S
C3037 C3041 1.376 . S
C3038 C3036 1.394 . S
C3038 C3039 1.369 1_565 S
C3038 C3042 1.531 . S
C3039 C3038 1.369 1_545 S
C3039 C3040 1.410 . S
C3039 C3047 1.503 . S
C3040 C3039 1.410 . S
C3040 C3041 1.392 . S
C3040 C3043 1.511 . S
C3041 C3037 1.376 . S
C3041 C3040 1.392 . S
C3041 H3053 0.929 . S
C3042 C3038 1.531 . S
C3042 H3054 0.960 . S
C3042 H3055 0.962 . S
C3042 H3056 0.960 . S
C3043 C3040 1.511 . S
C3043 H3057 0.961 . S
C3043 H3058 0.961 . S
C3043 H3059 0.961 . S
C3044 C3045 1.370 . S
C3044 C3046 1.363 . S
C3044 H3060 0.931 . S
C3045 C3044 1.370 . S
C3045 C3049 1.408 . S
C3046 C3044 1.363 . S
C3046 C3047 1.370 . S
C3046 C3050 1.524 . S
C3047 C3039 1.503 . S
C3047 C3046 1.370 . S
C3047 C3048 1.403 . S
C3048 C3047 1.403 . S
C3048 C3049 1.404 . S
C3048 C3051 1.539 . S
C3049 C3045 1.408 . S
C3049 C3048 1.404 . S
C3049 H3061 0.930 . S
C3050 C3046 1.524 . S
C3050 H3062 0.956 1_545 S
C3050 H3063 0.961 . S
C3050 H3064 0.961 . S
C3051 C3048 1.539 . S
C3051 H3065 0.958 1_545 S
C3051 H3066 0.961 . S
C3051 H3067 0.960 . S
H3052 C3036 0.931 . S
H3053 C3041 0.929 . S
H3054 C3042 0.960 . S
H3055 C3042 0.962 . S
H3056 C3042 0.960 . S
H3057 C3043 0.961 . S
H3058 C3043 0.961 . S
H3059 C3043 0.961 . S
H3060 C3044 0.931 . S
H3061 C3049 0.930 . S
H3062 C3050 0.956 1_565 S
H3063 C3050 0.961 . S
H3064 C3050 0.961 . S
H3065 C3051 0.958 1_565 S
H3066 C3051 0.961 . S
H3067 C3051 0.960 . S
C3068 C3069 1.391 . S
C3068 C3070 1.394 . S
C3068 H3084 0.916 1_655 S
C3069 C3068 1.391 . S
C3069 C3073 1.376 . S
C3070 C3068 1.394 . S
C3070 C3071 1.369 . S
C3070 C3074 1.531 1_655 S
C3071 C3070 1.369 . S
C3071 C3072 1.410 . S
C3071 C3079 1.503 . S
C3072 C3071 1.410 . S
C3072 C3073 1.392 . S
C3072 C3075 1.511 . S
C3073 C3069 1.376 . S
C3073 C3072 1.392 . S
C3073 H3085 0.929 . S
C3074 C3070 1.531 1_455 S
C3074 H3086 0.960 1_455 S
C3074 H3087 0.962 . S
C3074 H3088 0.961 1_455 S
C3075 C3072 1.511 . S
C3075 H3089 0.961 . S
C3075 H3090 0.961 . S
C3075 H3091 0.961 . S
C3076 C3077 1.370 1_455 S
C3076 C3078 1.363 . S
C3076 H3092 0.931 . S
C3077 C3076 1.370 1_655 S
C3077 C3081 1.408 . S
C3078 C3076 1.363 . S
C3078 C3079 1.370 1_455 S
C3078 C3082 1.524 . S
C3079 C3071 1.503 . S
C3079 C3078 1.370 1_655 S
C3079 C3080 1.403 . S
C3080 C3079 1.403 . S
C3080 C3081 1.404 . S
C3080 C3083 1.539 . S
C3081 C3077 1.408 . S
C3081 C3080 1.404 . S
C3081 H3093 0.930 . S
C3082 C3078 1.524 . S
C3082 H3094 0.956 . S
C3082 H3095 0.961 . S
C3082 H3096 0.961 . S
C3083 C3080 1.539 . S
C3083 H3097 0.958 . S
C3083 H3098 0.961 . S
C3083 H3099 0.960 . S
H3084 C3068 0.916 1_455 S
H3085 C3073 0.929 . S
H3086 C3074 0.960 1_655 S
H3087 C3074 0.962 . S
H3088 C3074 0.961 1_655 S
H3089 C3075 0.961 . S
H3090 C3075 0.961 . S
H3091 C3075 0.961 . S
H3092 C3076 0.931 . S
H3093 C3081 0.930 . S
H3094 C3082 0.956 . S
H3095 C3082 0.961 . S
H3096 C3082 0.961 . S
H3097 C3083 0.958 . S
H3098 C3083 0.961 . S
H3099 C3083 0.960 . S
C3100 C3101 1.391 . S
C3100 C3102 1.394 . S
C3100 H3116 0.931 . S
C3101 C3100 1.391 . S
C3101 C3105 1.376 . S
C3102 C3100 1.394 . S
C3102 C3103 1.369 . S
C3102 C3106 1.531 . S
C3103 C3102 1.369 . S
C3103 C3104 1.410 . S
C3103 C3111 1.503 . S
C3104 C3103 1.410 . S
C3104 C3105 1.392 . S
C3104 C3107 1.511 . S
C3105 C3101 1.376 . S
C3105 C3104 1.392 . S
C3105 H3117 0.929 . S
C3106 C3102 1.531 . S
C3106 H3118 0.960 . S
C3106 H3119 0.962 . S
C3106 H3120 0.960 . S
C3107 C3104 1.511 . S
C3107 H3121 0.961 . S
C3107 H3122 0.961 . S
C3107 H3123 0.961 . S
C3108 C3109 1.370 . S
C3108 C3110 1.363 . S
C3108 H3124 0.931 . S
C3109 C3108 1.370 . S
C3109 C3113 1.408 . S
C3110 C3108 1.363 . S
C3110 C3111 1.370 . S
C3110 C3114 1.524 . S
C3111 C3103 1.503 . S
C3111 C3110 1.370 . S
C3111 C3112 1.403 . S
C3112 C3111 1.403 . S
C3112 C3113 1.404 . S
C3112 C3115 1.539 . S
C3113 C3109 1.408 . S
C3113 C3112 1.404 . S
C3113 H3125 0.930 . S
C3114 C3110 1.524 . S
C3114 H3126 0.956 . S
C3114 H3127 0.961 . S
C3114 H3128 0.961 . S
C3115 C3112 1.539 . S
C3115 H3129 0.958 . S
C3115 H3130 0.961 . S
C3115 H3131 0.960 . S
H3116 C3100 0.931 . S
H3117 C3105 0.929 . S
H3118 C3106 0.960 . S
H3119 C3106 0.962 . S
H3120 C3106 0.960 . S
H3121 C3107 0.961 . S
H3122 C3107 0.961 . S
H3123 C3107 0.961 . S
H3124 C3108 0.931 . S
H3125 C3113 0.930 . S
H3126 C3114 0.956 . S
H3127 C3114 0.961 . S
H3128 C3114 0.961 . S
H3129 C3115 0.958 . S
H3130 C3115 0.961 . S
H3131 C3115 0.960 . S
C3132 C3133 1.391 . S
C3132 C3134 1.394 . S
C3132 H3148 0.931 . S
C3133 C3132 1.391 . S
C3133 C3137 1.376 . S
C3134 C3132 1.394 . S
C3134 C3135 1.369 . S
C3134 C3138 1.531 . S
C3135 C3134 1.369 . S
C3135 C3136 1.410 . S
C3135 C3143 1.503 . S
C3136 C3135 1.410 . S
C3136 C3137 1.392 . S
C3136 C3139 1.511 . S
C3137 C3133 1.376 . S
C3137 C3136 1.392 . S
C3137 H3149 0.929 . S
C3138 C3134 1.531 . S
C3138 H3150 0.960 . S
C3138 H3151 0.962 . S
C3138 H3152 0.960 . S
C3139 C3136 1.511 . S
C3139 H3153 0.961 . S
C3139 H3154 0.961 . S
C3139 H3155 0.961 . S
C3140 C3141 1.370 . S
C3140 C3142 1.363 . S
C3140 H3156 0.931 . S
C3141 C3140 1.370 . S
C3141 C3145 1.408 . S
C3142 C3140 1.363 . S
C3142 C3143 1.370 . S
C3142 C3146 1.524 . S
C3143 C3135 1.503 . S
C3143 C3142 1.370 . S
C3143 C3144 1.403 . S
C3144 C3143 1.403 . S
C3144 C3145 1.404 . S
C3144 C3147 1.539 . S
C3145 C3141 1.408 . S
C3145 C3144 1.404 . S
C3145 H3157 0.930 . S
C3146 C3142 1.524 . S
C3146 H3158 0.956 . S
C3146 H3159 0.961 . S
C3146 H3160 0.961 . S
C3147 C3144 1.539 . S
C3147 H3161 0.958 . S
C3147 H3162 0.961 . S
C3147 H3163 0.960 . S
H3148 C3132 0.931 . S
H3149 C3137 0.929 . S
H3150 C3138 0.960 . S
H3151 C3138 0.962 . S
H3152 C3138 0.960 . S
H3153 C3139 0.961 . S
H3154 C3139 0.961 . S
H3155 C3139 0.961 . S
H3156 C3140 0.931 . S
H3157 C3145 0.930 . S
H3158 C3146 0.956 . S
H3159 C3146 0.961 . S
H3160 C3146 0.961 . S
H3161 C3147 0.958 . S
H3162 C3147 0.961 . S
H3163 C3147 0.960 . S
C3164 C3165 1.391 . S
C3164 C3166 1.394 . S
C3164 H3180 0.931 . S
C3165 C3164 1.391 . S
C3165 C3169 1.376 . S
C3166 C3164 1.394 . S
C3166 C3167 1.369 . S
C3166 C3170 1.531 . S
C3167 C3166 1.369 . S
C3167 C3168 1.410 . S
C3167 C3175 1.503 . S
C3168 C3167 1.410 . S
C3168 C3169 1.392 . S
C3168 C3171 1.511 . S
C3169 C3165 1.376 . S
C3169 C3168 1.392 . S
C3169 H3181 0.929 . S
C3170 C3166 1.531 . S
C3170 H3182 0.960 . S
C3170 H3183 0.962 . S
C3170 H3184 0.960 . S
C3171 C3168 1.511 . S
C3171 H3185 0.961 . S
C3171 H3186 0.961 . S
C3171 H3187 0.961 . S
C3172 C3173 1.370 . S
C3172 C3174 1.363 . S
C3172 H3188 0.931 . S
C3173 C3172 1.370 . S
C3173 C3177 1.408 . S
C3174 C3172 1.363 . S
C3174 C3175 1.370 . S
C3174 C3178 1.524 . S
C3175 C3167 1.503 . S
C3175 C3174 1.370 . S
C3175 C3176 1.403 . S
C3176 C3175 1.403 . S
C3176 C3177 1.404 . S
C3176 C3179 1.539 . S
C3177 C3173 1.408 . S
C3177 C3176 1.404 . S
C3177 H3189 0.930 . S
C3178 C3174 1.524 . S
C3178 H3190 0.956 . S
C3178 H3191 0.961 . S
C3178 H3192 0.961 . S
C3179 C3176 1.539 . S
C3179 H3193 0.958 . S
C3179 H3194 0.961 . S
C3179 H3195 0.960 . S
H3180 C3164 0.931 . S
H3181 C3169 0.929 . S
H3182 C3170 0.960 . S
H3183 C3170 0.962 . S
H3184 C3170 0.960 . S
H3185 C3171 0.961 . S
H3186 C3171 0.961 . S
H3187 C3171 0.961 . S
H3188 C3172 0.931 . S
H3189 C3177 0.930 . S
H3190 C3178 0.956 . S
H3191 C3178 0.961 . S
H3192 C3178 0.961 . S
H3193 C3179 0.958 . S
H3194 C3179 0.961 . S
H3195 C3179 0.960 . S
C3196 C3197 1.391 . S
C3196 C3198 1.394 . S
C3196 H3212 0.931 . S
C3197 C3196 1.391 . S
C3197 C3201 1.376 . S
C3198 C3196 1.394 . S
C3198 C3199 1.369 . S
C3198 C3202 1.531 . S
C3199 C3198 1.369 . S
C3199 C3200 1.410 . S
C3199 C3207 1.503 . S
C3200 C3199 1.410 . S
C3200 C3201 1.392 . S
C3200 C3203 1.511 . S
C3201 C3197 1.376 . S
C3201 C3200 1.392 . S
C3201 H3213 0.929 . S
C3202 C3198 1.531 . S
C3202 H3214 0.960 . S
C3202 H3215 0.962 . S
C3202 H3216 0.960 . S
C3203 C3200 1.511 . S
C3203 H3217 0.961 . S
C3203 H3218 0.961 . S
C3203 H3219 0.961 . S
C3204 C3205 1.370 . S
C3204 C3206 1.363 . S
C3204 H3220 0.931 . S
C3205 C3204 1.370 . S
C3205 C3209 1.408 . S
C3206 C3204 1.363 . S
C3206 C3207 1.370 . S
C3206 C3210 1.524 . S
C3207 C3199 1.503 . S
C3207 C3206 1.370 . S
C3207 C3208 1.403 . S
C3208 C3207 1.403 . S
C3208 C3209 1.404 . S
C3208 C3211 1.539 . S
C3209 C3205 1.408 . S
C3209 C3208 1.404 . S
C3209 H3221 0.930 . S
C3210 C3206 1.524 . S
C3210 H3222 0.956 . S
C3210 H3223 0.961 . S
C3210 H3224 0.961 . S
C3211 C3208 1.539 . S
C3211 H3225 0.958 . S
C3211 H3226 0.961 . S
C3211 H3227 0.960 . S
H3212 C3196 0.931 . S
H3213 C3201 0.929 . S
H3214 C3202 0.960 . S
H3215 C3202 0.962 . S
H3216 C3202 0.960 . S
H3217 C3203 0.961 . S
H3218 C3203 0.961 . S
H3219 C3203 0.961 . S
H3220 C3204 0.931 . S
H3221 C3209 0.930 . S
H3222 C3210 0.956 . S
H3223 C3210 0.961 . S
H3224 C3210 0.961 . S
H3225 C3211 0.958 . S
H3226 C3211 0.961 . S
H3227 C3211 0.960 . S
C3228 C3229 1.391 . S
C3228 C3230 1.394 . S
C3228 H3244 0.931 . S
C3229 C3228 1.391 . S
C3229 C3233 1.376 . S
C3230 C3228 1.394 . S
C3230 C3231 1.369 . S
C3230 C3234 1.531 . S
C3231 C3230 1.369 . S
C3231 C3232 1.410 . S
C3231 C3239 1.503 . S
C3232 C3231 1.410 . S
C3232 C3233 1.392 . S
C3232 C3235 1.511 . S
C3233 C3229 1.376 . S
C3233 C3232 1.392 . S
C3233 H3245 0.929 . S
C3234 C3230 1.531 . S
C3234 H3246 0.960 . S
C3234 H3247 0.962 . S
C3234 H3248 0.960 . S
C3235 C3232 1.511 . S
C3235 H3249 0.961 . S
C3235 H3250 0.961 . S
C3235 H3251 0.961 . S
C3236 C3237 1.370 . S
C3236 C3238 1.363 . S
C3236 H3252 0.931 . S
C3237 C3236 1.370 . S
C3237 C3241 1.408 . S
C3238 C3236 1.363 . S
C3238 C3239 1.370 . S
C3238 C3242 1.524 . S
C3239 C3231 1.503 . S
C3239 C3238 1.370 . S
C3239 C3240 1.403 . S
C3240 C3239 1.403 . S
C3240 C3241 1.404 . S
C3240 C3243 1.539 . S
C3241 C3237 1.408 . S
C3241 C3240 1.404 . S
C3241 H3253 0.930 . S
C3242 C3238 1.524 . S
C3242 H3254 0.956 . S
C3242 H3255 0.961 . S
C3242 H3256 0.961 . S
C3243 C3240 1.539 . S
C3243 H3257 0.958 . S
C3243 H3258 0.961 . S
C3243 H3259 0.960 . S
H3244 C3228 0.931 . S
H3245 C3233 0.929 . S
H3246 C3234 0.960 . S
H3247 C3234 0.962 . S
H3248 C3234 0.960 . S
H3249 C3235 0.961 . S
H3250 C3235 0.961 . S
H3251 C3235 0.961 . S
H3252 C3236 0.931 . S
H3253 C3241 0.930 . S
H3254 C3242 0.956 . S
H3255 C3242 0.961 . S
H3256 C3242 0.961 . S
H3257 C3243 0.958 . S
H3258 C3243 0.961 . S
H3259 C3243 0.960 . S
C3260 C3261 1.391 . S
C3260 C3262 1.394 . S
C3260 H3276 0.931 . S
C3261 C3260 1.391 . S
C3261 C3265 1.376 . S
C3262 C3260 1.394 . S
C3262 C3263 1.369 . S
C3262 C3266 1.531 . S
C3263 C3262 1.369 . S
C3263 C3264 1.410 . S
C3263 C3271 1.503 . S
C3264 C3263 1.410 . S
C3264 C3265 1.392 . S
C3264 C3267 1.511 . S
C3265 C3261 1.376 . S
C3265 C3264 1.392 . S
C3265 H3277 0.929 . S
C3266 C3262 1.531 . S
C3266 H3278 0.960 . S
C3266 H3279 0.962 . S
C3266 H3280 0.960 . S
C3267 C3264 1.511 . S
C3267 H3281 0.961 . S
C3267 H3282 0.961 . S
C3267 H3283 0.961 . S
C3268 C3269 1.370 . S
C3268 C3270 1.363 . S
C3268 H3284 0.931 . S
C3269 C3268 1.370 . S
C3269 C3273 1.408 . S
C3270 C3268 1.363 . S
C3270 C3271 1.370 . S
C3270 C3274 1.524 . S
C3271 C3263 1.503 . S
C3271 C3270 1.370 . S
C3271 C3272 1.403 . S
C3272 C3271 1.403 . S
C3272 C3273 1.404 . S
C3272 C3275 1.539 . S
C3273 C3269 1.408 . S
C3273 C3272 1.404 . S
C3273 H3285 0.930 . S
C3274 C3270 1.524 . S
C3274 H3286 0.956 . S
C3274 H3287 0.961 . S
C3274 H3288 0.961 . S
C3275 C3272 1.539 . S
C3275 H3289 0.958 . S
C3275 H3290 0.961 . S
C3275 H3291 0.960 . S
H3276 C3260 0.931 . S
H3277 C3265 0.929 . S
H3278 C3266 0.960 . S
H3279 C3266 0.962 . S
H3280 C3266 0.960 . S
H3281 C3267 0.961 . S
H3282 C3267 0.961 . S
H3283 C3267 0.961 . S
H3284 C3268 0.931 . S
H3285 C3273 0.930 . S
H3286 C3274 0.956 . S
H3287 C3274 0.961 . S
H3288 C3274 0.961 . S
H3289 C3275 0.958 . S
H3290 C3275 0.961 . S
H3291 C3275 0.960 . S
C3292 C3293 1.391 . S
C3292 C3294 1.394 . S
C3292 H3308 0.931 . S
C3293 C3292 1.391 . S
C3293 C3297 1.376 . S
C3294 C3292 1.394 . S
C3294 C3295 1.369 . S
C3294 C3298 1.531 . S
C3295 C3294 1.369 . S
C3295 C3296 1.410 . S
C3295 C3303 1.503 . S
C3296 C3295 1.410 . S
C3296 C3297 1.392 . S
C3296 C3299 1.511 . S
C3297 C3293 1.376 . S
C3297 C3296 1.392 . S
C3297 H3309 0.929 . S
C3298 C3294 1.531 . S
C3298 H3310 0.960 . S
C3298 H3311 0.962 . S
C3298 H3312 0.960 . S
C3299 C3296 1.511 . S
C3299 H3313 0.961 . S
C3299 H3314 0.961 . S
C3299 H3315 0.961 . S
C3300 C3301 1.370 . S
C3300 C3302 1.363 . S
C3300 H3316 0.931 . S
C3301 C3300 1.370 . S
C3301 C3305 1.408 . S
C3302 C3300 1.363 . S
C3302 C3303 1.370 . S
C3302 C3306 1.524 . S
C3303 C3295 1.503 . S
C3303 C3302 1.370 . S
C3303 C3304 1.403 . S
C3304 C3303 1.403 . S
C3304 C3305 1.404 . S
C3304 C3307 1.539 . S
C3305 C3301 1.408 . S
C3305 C3304 1.404 . S
C3305 H3317 0.930 . S
C3306 C3302 1.524 . S
C3306 H3318 0.956 . S
C3306 H3319 0.961 . S
C3306 H3320 0.961 . S
C3307 C3304 1.539 . S
C3307 H3321 0.958 . S
C3307 H3322 0.961 . S
C3307 H3323 0.960 . S
H3308 C3292 0.931 . S
H3309 C3297 0.929 . S
H3310 C3298 0.960 . S
H3311 C3298 0.962 . S
H3312 C3298 0.960 . S
H3313 C3299 0.961 . S
H3314 C3299 0.961 . S
H3315 C3299 0.961 . S
H3316 C3300 0.931 . S
H3317 C3305 0.930 . S
H3318 C3306 0.956 . S
H3319 C3306 0.961 . S
H3320 C3306 0.961 . S
H3321 C3307 0.958 . S
H3322 C3307 0.961 . S
H3323 C3307 0.960 . S
C3324 C3325 1.391 1_455 S
C3324 C3326 1.394 . S
C3324 H3340 0.931 . S
C3325 C3324 1.391 1_655 S
C3325 C3329 1.376 . S
C3326 C3324 1.394 . S
C3326 C3327 1.369 1_455 S
C3326 C3330 1.531 . S
C3327 C3326 1.369 1_655 S
C3327 C3328 1.410 . S
C3327 C3335 1.503 . S
C3328 C3327 1.410 . S
C3328 C3329 1.392 . S
C3328 C3331 1.511 . S
C3329 C3325 1.376 . S
C3329 C3328 1.392 . S
C3329 H3341 0.929 . S
C3330 C3326 1.531 . S
C3330 H3342 0.960 . S
C3330 H3343 0.962 . S
C3330 H3344 0.960 . S
C3331 C3328 1.511 . S
C3331 H3345 0.961 . S
C3331 H3346 0.961 . S
C3331 H3347 0.961 . S
C3332 C3333 1.370 1_455 S
C3332 C3334 1.363 . S
C3332 H3348 0.931 . S
C3333 C3332 1.370 1_655 S
C3333 C3337 1.408 . S
C3334 C3332 1.363 . S
C3334 C3335 1.370 1_455 S
C3334 C3338 1.524 . S
C3335 C3327 1.503 . S
C3335 C3334 1.370 1_655 S
C3335 C3336 1.403 . S
C3336 C3335 1.403 . S
C3336 C3337 1.404 . S
C3336 C3339 1.539 . S
C3337 C3333 1.408 . S
C3337 C3336 1.404 . S
C3337 H3349 0.930 . S
C3338 C3334 1.524 . S
C3338 H3350 0.956 . S
C3338 H3351 0.961 . S
C3338 H3352 0.961 . S
C3339 C3336 1.539 . S
C3339 H3353 0.958 . S
C3339 H3354 0.961 . S
C3339 H3355 0.960 . S
H3340 C3324 0.931 . S
H3341 C3329 0.929 . S
H3342 C3330 0.960 . S
H3343 C3330 0.962 . S
H3344 C3330 0.960 . S
H3345 C3331 0.961 . S
H3346 C3331 0.961 . S
H3347 C3331 0.961 . S
H3348 C3332 0.931 . S
H3349 C3337 0.930 . S
H3350 C3338 0.956 . S
H3351 C3338 0.961 . S
H3352 C3338 0.961 . S
H3353 C3339 0.958 . S
H3354 C3339 0.961 . S
H3355 C3339 0.960 . S
C3356 C3357 1.391 . S
C3356 C3358 1.394 . S
C3356 H3372 0.931 . S
C3357 C3356 1.391 . S
C3357 C3361 1.376 . S
C3358 C3356 1.394 . S
C3358 C3359 1.369 . S
C3358 C3362 1.531 . S
C3359 C3358 1.369 . S
C3359 C3360 1.410 . S
C3359 C3367 1.503 . S
C3360 C3359 1.410 . S
C3360 C3361 1.392 . S
C3360 C3363 1.511 . S
C3361 C3357 1.376 . S
C3361 C3360 1.392 . S
C3361 H3373 0.929 . S
C3362 C3358 1.531 . S
C3362 H3374 0.960 . S
C3362 H3375 0.962 . S
C3362 H3376 0.960 . S
C3363 C3360 1.511 . S
C3363 H3377 0.961 . S
C3363 H3378 0.961 . S
C3363 H3379 0.961 . S
C3364 C3365 1.370 . S
C3364 C3366 1.363 . S
C3364 H3380 0.931 . S
C3365 C3364 1.370 . S
C3365 C3369 1.408 . S
C3366 C3364 1.363 . S
C3366 C3367 1.370 . S
C3366 C3370 1.524 . S
C3367 C3359 1.503 . S
C3367 C3366 1.370 . S
C3367 C3368 1.403 . S
C3368 C3367 1.403 . S
C3368 C3369 1.404 . S
C3368 C3371 1.539 . S
C3369 C3365 1.408 . S
C3369 C3368 1.404 . S
C3369 H3381 0.930 . S
C3370 C3366 1.524 . S
C3370 H3382 0.956 . S
C3370 H3383 0.961 . S
C3370 H3384 0.961 . S
C3371 C3368 1.539 . S
C3371 H3385 0.958 . S
C3371 H3386 0.961 . S
C3371 H3387 0.960 . S
H3372 C3356 0.931 . S
H3373 C3361 0.929 . S
H3374 C3362 0.960 . S
H3375 C3362 0.962 . S
H3376 C3362 0.960 . S
H3377 C3363 0.961 . S
H3378 C3363 0.961 . S
H3379 C3363 0.961 . S
H3380 C3364 0.931 . S
H3381 C3369 0.930 . S
H3382 C3370 0.956 . S
H3383 C3370 0.961 . S
H3384 C3370 0.961 . S
H3385 C3371 0.958 . S
H3386 C3371 0.961 . S
H3387 C3371 0.960 . S
C3388 C3389 1.391 . S
C3388 C3390 1.394 . S
C3388 H3404 0.931 . S
C3389 C3388 1.391 . S
C3389 C3393 1.376 . S
C3390 C3388 1.394 . S
C3390 C3391 1.369 . S
C3390 C3394 1.531 . S
C3391 C3390 1.369 . S
C3391 C3392 1.410 . S
C3391 C3399 1.503 . S
C3392 C3391 1.410 . S
C3392 C3393 1.392 . S
C3392 C3395 1.511 1_545 S
C3393 C3389 1.376 . S
C3393 C3392 1.392 . S
C3393 H3405 0.929 1_545 S
C3394 C3390 1.531 . S
C3394 H3406 0.960 . S
C3394 H3407 0.962 . S
C3394 H3408 0.960 . S
C3395 C3392 1.511 1_565 S
C3395 H3409 0.961 . S
C3395 H3410 0.961 . S
C3395 H3411 1.007 . S
C3396 C3397 1.370 1_565 S
C3396 C3398 1.363 . S
C3396 H3412 0.931 . S
C3397 C3396 1.370 1_545 S
C3397 C3401 1.408 . S
C3398 C3396 1.363 . S
C3398 C3399 1.370 1_565 S
C3398 C3402 1.524 . S
C3399 C3391 1.503 . S
C3399 C3398 1.370 1_545 S
C3399 C3400 1.403 . S
C3400 C3399 1.403 . S
C3400 C3401 1.404 . S
C3400 C3403 1.539 . S
C3401 C3397 1.408 . S
C3401 C3400 1.404 . S
C3401 H3413 0.930 . S
C3402 C3398 1.524 . S
C3402 H3414 0.956 . S
C3402 H3415 0.961 . S
C3402 H3416 0.961 . S
C3403 C3400 1.539 . S
C3403 H3417 0.958 . S
C3403 H3418 0.961 . S
C3403 H3419 0.960 . S
H3404 C3388 0.931 . S
H3405 C3393 0.929 1_565 S
H3406 C3394 0.960 . S
H3407 C3394 0.962 . S
H3408 C3394 0.960 . S
H3409 C3395 0.961 . S
H3410 C3395 0.961 . S
H3411 C3395 1.007 . S
H3412 C3396 0.931 . S
H3413 C3401 0.930 . S
H3414 C3402 0.956 . S
H3415 C3402 0.961 . S
H3416 C3402 0.961 . S
H3417 C3403 0.958 . S
H3418 C3403 0.961 . S
H3419 C3403 0.960 . S
C1117 C9 1.451 1_655 S
C1125 C729 1.488 . S
C1149 C19 1.576 . S
C1157 C777 1.570 . S
C1189 C825 1.527 . S
C1181 C33 1.537 . S
C1213 C37 1.495 1_565 S
C1221 C849 1.506 . S
C1245 C5 1.477 . S
C1253 C921 1.475 . S
C1277 C23 1.609 . S
C1285 C969 1.603 . S
C1309 C47 1.481 . S
C1317 C897 1.501 . S
C1349 C945 1.622 . S
C1341 C65 1.626 . S
C1381 C873 1.486 . S
C1373 C75 1.487 . S
C1405 C79 1.442 . S
C1413 C801 1.443 . S
C1445 C705 1.526 . S
C1437 C51 1.510 . S
C1469 C61 1.598 . S
C1477 C753 1.591 . S
C1501 C93 1.699 . S
C1509 C1017 1.692 . S
C1533 C103 1.646 . S
C1541 C1065 1.636 . S
C1573 C1089 1.652 . S
C1565 C117 1.656 . S
C1597 C121 1.618 . S
C1605 C273 1.597 . S
C1629 C89 1.642 . S
C1637 C345 1.633 . S
C1661 C107 1.655 . S
C1669 C393 1.652 . S
C1693 C131 1.609 . S
C1701 C321 1.605 . S
C1725 C149 1.667 . S
C1733 C369 1.663 . S
C1765 C297 1.596 . S
C1757 C159 1.623 . S
C1797 C1113 1.625 . S
C1789 C163 1.669 . S
C1829 C993 1.681 . S
C1821 C135 1.687 . S
C1861 C1041 1.659 . S
C1853 C145 1.658 . S
C1885 C177 1.617 . S
C1893 C441 1.611 . S
C1917 C187 1.604 . S
C1925 C489 1.596 . S
C1949 C201 1.669 . S
C1957 C513 1.643 . S
C1981 C205 1.700 . S
C1989 C561 1.676 . S
C2021 C633 1.630 . S
C2013 C173 1.626 . S
C2053 C681 1.674 . S
C2045 C191 1.687 . S
C2085 C609 1.687 . S
C2077 C215 1.698 . S
C2117 C657 1.689 . S
C2109 C233 1.700 . S
C2141 C243 1.613 . S
C2149 C585 1.570 . S
C2181 C537 1.524 . S
C2173 C247 1.573 . S
C2205 C219 1.684 . S
C2213 C417 1.677 . S
C2245 C465 1.642 . S
C2237 C229 1.646 . S
C2277 C282 1.569 . S
C2269 C11 1.567 . S
C2301 C14 1.509 . S
C2309 C336 1.485 . S
C2341 C384 1.611 . S
C2333 C28 1.644 . S
C2373 C432 1.617 . S
C2365 C39 1.637 . S
C2405 C480 1.558 . S
C2397 C0 1.578 . S
C2437 C522 1.479 . S
C2429 C25 1.475 . S
C2461 C42 1.638 . S
C2469 C528 1.632 . S
C2493 C67 1.530 . S
C2501 C426 1.504 . S
C2525 C70 1.528 . S
C2533 C474 1.497 . S
C2557 C81 1.560 . S
C2565 C330 1.531 . S
C2597 C378 1.569 . S
C2589 C53 1.612 . S
C2621 C56 1.548 . S
C2629 C288 1.531 . S
C2661 C570 1.535 . S
C2653 C95 1.528 . S
C2685 C98 1.629 . S
C2693 C624 1.608 . S
C2717 C112 1.693 . S
C2725 C672 1.666 . S
C2757 C720 1.442 . S
C2749 C123 1.422 . S
C2781 C84 1.553 . S
C2789 C768 1.531 . S
C2813 C109 1.357 . S
C2821 C816 1.381 . S
C2845 C126 1.437 . S
C2853 C810 1.457 . S
C2877 C151 1.397 . S
C2885 C714 1.416 . S
C2917 C762 1.509 . S
C2909 C154 1.530 . S
C2941 C165 1.522 . S
C2949 C618 1.499 . S
C2973 C137 1.649 . S
C2981 C666 1.606 . S
C3013 C576 1.647 . S
C3005 C140 1.653 . S
C3045 C858 1.417 . S
C3037 C179 1.397 . S
C3069 C182 1.385 . S
C3077 C912 1.419 . S
C3101 C196 1.622 . S
C3109 C960 1.604 . S
C3141 C1008 1.579 . S
C3133 C207 1.604 . S
C3173 C1056 1.605 . S
C3165 C168 1.621 . S
C3197 C193 1.586 . S
C3205 C1098 1.596 . S
C3229 C210 1.610 . S
C3237 C1104 1.597 . S
C3261 C235 1.645 . S
C3269 C1002 1.604 . S
C3301 C1050 1.559 . S
C3293 C238 1.588 . S
C3333 C906 1.372 . S
C3325 C249 1.352 . S
C3365 C954 1.537 . S
C3357 C221 1.580 . S
C3389 C224 1.423 . S
C3397 C864 1.451 . S
