# Generated by pormake.
# Topology anh, (6,3)-cn, num edge types: 1
# Building blocks:
#     Node 0, Type 0, BuildingBlock: PAMTUU_clean_sbu_0, # of connection points: 6
#     Node 1, Type 0, BuildingBlock: PAMTUU_clean_sbu_0, # of connection points: 6
#     Node 2, Type 0, BuildingBlock: PAMTUU_clean_sbu_0, # of connection points: 6
#     Node 3, Type 1, BuildingBlock: ESEHIV_clean_linker_0, # of connection points: 3
#     Node 4, Type 1, BuildingBlock: ESEHIV_clean_linker_0, # of connection points: 3
#     Node 5, Type 1, BuildingBlock: ESEHIV_clean_linker_0, # of connection points: 3
#     Node 6, Type 1, BuildingBlock: ESEHIV_clean_linker_0, # of connection points: 3
#     Node 7, Type 1, BuildingBlock: ESEHIV_clean_linker_0, # of connection points: 3
#     Node 8, Type 1, BuildingBlock: ESEHIV_clean_linker_0, # of connection points: 3
#     Edge 9, Type (0, 1), BuildingBlock: UVAHIK_clean_linker_0, # of connection points: 2
#     Edge 10, Type (0, 1), BuildingBlock: UVAHIK_clean_linker_0, # of connection points: 2
#     Edge 11, Type (0, 1), BuildingBlock: UVAHIK_clean_linker_0, # of connection points: 2
#     Edge 12, Type (0, 1), BuildingBlock: UVAHIK_clean_linker_0, # of connection points: 2
#     Edge 13, Type (0, 1), BuildingBlock: UVAHIK_clean_linker_0, # of connection points: 2
#     Edge 14, Type (0, 1), BuildingBlock: UVAHIK_clean_linker_0, # of connection points: 2
#     Edge 15, Type (0, 1), BuildingBlock: UVAHIK_clean_linker_0, # of connection points: 2
#     Edge 16, Type (0, 1), BuildingBlock: UVAHIK_clean_linker_0, # of connection points: 2
#     Edge 17, Type (0, 1), BuildingBlock: UVAHIK_clean_linker_0, # of connection points: 2
#     Edge 18, Type (0, 1), BuildingBlock: UVAHIK_clean_linker_0, # of connection points: 2
#     Edge 19, Type (0, 1), BuildingBlock: UVAHIK_clean_linker_0, # of connection points: 2
#     Edge 20, Type (0, 1), BuildingBlock: UVAHIK_clean_linker_0, # of connection points: 2
#     Edge 21, Type (0, 1), BuildingBlock: UVAHIK_clean_linker_0, # of connection points: 2
#     Edge 22, Type (0, 1), BuildingBlock: UVAHIK_clean_linker_0, # of connection points: 2
#     Edge 23, Type (0, 1), BuildingBlock: UVAHIK_clean_linker_0, # of connection points: 2
#     Edge 24, Type (0, 1), BuildingBlock: UVAHIK_clean_linker_0, # of connection points: 2
#     Edge 25, Type (0, 1), BuildingBlock: UVAHIK_clean_linker_0, # of connection points: 2
#     Edge 26, Type (0, 1), BuildingBlock: UVAHIK_clean_linker_0, # of connection points: 2
# Relax obj value: 0.237
# Max RMSD: 0.188
# Mean RMSD: 0.155
data_MOF--net-anh--node1-PAMTUU_clean_sbu_0--node2-ESEHIV_clean_linker_0--edge1-UVAHIK_clean_linker_0
_symmetry_space_group_name_H-M    P1
_symmetry_Int_Tables_number       1
_symmetry_cell_setting            triclinic
loop_
_symmetry_equiv_pos_as_xyz
'x, y, z'
_cell_length_a     36.930592
_cell_length_b     36.859612
_cell_length_c     66.979635
_cell_angle_alpha  93.304884
_cell_angle_beta   90.495463
_cell_angle_gamma 120.01352
loop_
_atom_site_label
_atom_site_type_symbol
_atom_site_fract_x
_atom_site_fract_y
_atom_site_fract_z
_atom_type_partial_charge
Tb0 Tb 0.09801 0.63103 0.16199 0.0
Tb1 Tb 0.14451 0.5783 0.16882 0.0
C2 C 0.13487 0.60359 0.12516 0.0
C3 C 1.01544 0.65062 0.17338 0.0
C4 C 0.93756 0.60096 0.19024 0.0
C5 C 0.94035 0.62195 0.17288 0.0
C6 C 0.97902 0.64647 0.16448 0.0
C7 C 1.01313 0.63283 0.1917 0.0
C8 C 0.97456 0.60826 0.20007 0.0
C9 C 1.053 0.66414 0.16164 0.0
O10 O 1.04843 0.56686 0.16858 0.0
O11 O 1.08029 0.52898 0.16003 0.0
O12 O 0.10932 0.57509 0.19525 0.0
O13 O 0.11782 0.63962 0.19319 0.0
O14 O 0.16651 0.53722 0.16025 0.0
O15 O 0.17449 0.56323 0.19076 0.0
O16 O 0.19362 0.6452 0.17383 0.0
O17 O 0.16379 0.6784 0.15816 0.0
O18 O 0.1092 0.61626 0.1316 0.0
O19 O 0.15452 0.59158 0.13732 0.0
C20 C 1.04619 0.53032 0.16426 0.0
O21 O 0.08848 0.68072 0.1719 0.0
O22 O 1.04971 0.63595 0.14794 0.0
C23 C 0.10974 0.60806 0.20375 0.0
C24 C 0.22774 0.55276 0.17894 0.0
C25 C 0.31276 0.57657 0.18287 0.0
C26 C 0.28337 0.54713 0.1952 0.0
C27 C 0.2412 0.53526 0.19319 0.0
C28 C 0.25693 0.58292 0.16692 0.0
C29 C 0.29911 0.59455 0.16878 0.0
C30 C 0.18376 0.54155 0.17796 0.0
C31 C 0.19678 0.67923 0.1665 0.0
H32 H 0.91238 0.61656 0.16479 0.0
H33 H 0.98001 0.65934 0.15022 0.0
H34 H 1.04073 0.63514 0.1988 0.0
H35 H 0.97345 0.59283 0.21352 0.0
H36 H 0.29294 0.5332 0.2064 0.0
H37 H 0.21908 0.51259 0.20287 0.0
H38 H 0.24709 0.59735 0.15609 0.0
H39 H 0.3208 0.61687 0.15887 0.0
Tb40 Tb 0.59151 0.05624 0.4912 0.0
Tb41 Tb 0.69126 0.10949 0.49767 0.0
C42 C 0.64814 0.08658 0.45492 0.0
C43 C 0.48435 0.97126 0.495 0.0
C44 C 0.42859 0.89187 0.50813 0.0
C45 C 0.41398 0.91836 0.50197 0.0
C46 C 0.4417 0.95775 0.49545 0.0
C47 C 0.4994 0.94559 0.50167 0.0
C48 C 0.47163 0.90597 0.50807 0.0
C49 C 0.51319 1.01251 0.48805 0.0
O50 O 0.61069 1.0082 0.48756 0.0
O51 O 0.67857 1.04503 0.50052 0.0
O52 O 0.66252 0.11009 0.52607 0.0
O53 O 0.60718 1.04471 0.52023 0.0
O54 O 0.75016 0.1507 0.48691 0.0
O55 O 0.74436 0.13127 0.51703 0.0
O56 O 0.6735 0.15701 0.49262 0.0
O57 O 0.60476 0.12052 0.50051 0.0
O58 O 0.61536 0.08449 0.46334 0.0
O59 O 0.67829 0.08741 0.46591 0.0
C60 C 0.64499 1.00915 0.49433 0.0
O61 O 0.53332 1.04196 0.50226 0.0
O62 O 0.53773 1.01299 0.47401 0.0
C63 C 0.63271 0.07547 0.53281 0.0
C64 C 0.78477 0.20349 0.51216 0.0
C65 C 0.79792 0.28562 0.51446 0.0
C66 C 0.82525 0.27598 0.50393 0.0
C67 C 0.81859 0.2351 0.50272 0.0
C68 C 0.76037 0.21424 0.52448 0.0
C69 C 0.76691 0.25498 0.52563 0.0
C70 C 0.76773 0.1594 0.50483 0.0
C71 C 0.63875 0.15643 0.49743 0.0
H72 H 0.38086 0.908 0.50144 0.0
H73 H 0.42976 0.97741 0.49049 0.0
H74 H 0.53251 0.956 0.5017 0.0
H75 H 0.48367 0.8862 0.51272 0.0
H76 H 0.84995 0.29933 0.49547 0.0
H77 H 0.83747 0.22743 0.493 0.0
H78 H 0.73365 0.19036 0.53173 0.0
H79 H 0.74524 0.26135 0.53377 0.0
Tb80 Tb 0.6488 0.54627 0.82311 0.0
Tb81 Tb 0.7016 0.64796 0.83151 0.0
C82 C 0.67819 0.60516 0.78784 0.0
C83 C 0.59794 0.42935 0.82642 0.0
C84 C 0.56492 0.34859 0.84022 0.0
C85 C 0.58314 0.35747 0.82147 0.0
C86 C 0.59928 0.39749 0.81459 0.0
C87 C 0.58338 0.42155 0.84595 0.0
C88 C 0.56671 0.38136 0.85273 0.0
C89 C 0.60525 0.46756 0.8171 0.0
O90 O 0.71466 0.5603 0.82407 0.0
O91 O 0.75082 0.63128 0.83359 0.0
O92 O 0.67688 0.62113 0.85993 0.0
O93 O 0.6711 0.55679 0.85374 0.0
O94 O 0.72208 0.7079 0.82172 0.0
O95 O 0.74 0.70039 0.85124 0.0
O96 O 0.63626 0.63398 0.82776 0.0
O97 O 0.60218 0.56372 0.8328 0.0
O98 O 0.64743 0.57199 0.79509 0.0
O99 O 0.70777 0.63513 0.79975 0.0
C100 C 0.75 0.5954 0.8295 0.0
O101 O 0.5932 0.49082 0.82698 0.0
O102 O 0.64085 0.48998 0.80877 0.0
C103 C 0.6738 0.58663 0.86623 0.0
C104 C 0.72478 0.75434 0.84751 0.0
C105 C 0.69144 0.80734 0.85528 0.0
C106 C 0.73456 0.82434 0.85236 0.0
C107 C 0.751 0.79794 0.84826 0.0
C108 C 0.68286 0.73738 0.85244 0.0
C109 C 0.6662 0.76356 0.85615 0.0
C110 C 0.73929 0.72651 0.83917 0.0
C111 C 0.60166 0.599 0.83129 0.0
H112 H 0.58179 0.33267 0.81142 0.0
H113 H 0.61023 0.40274 0.7995 0.0
H114 H 0.58234 0.44569 0.85553 0.0
H115 H 0.55307 0.3753 0.86728 0.0
H116 H 0.75517 0.85793 0.85212 0.0
H117 H 0.7836 0.81148 0.84467 0.0
H118 H 0.66237 0.7037 0.85215 0.0
H119 H 0.63287 0.74904 0.85817 0.0
H120 H 0.57931 1.04439 0.23587 0.0
H121 H 0.69481 0.16152 0.23792 0.0
H122 H 0.62843 0.10404 0.18108 0.0
C123 C 0.60301 0.07034 0.22815 0.0
C124 C 0.59887 0.06977 0.20721 0.0
C125 C 0.63736 0.10306 0.23928 0.0
C126 C 0.66861 0.13608 0.22921 0.0
C127 C 0.66655 0.1374 0.20823 0.0
C128 C 0.63069 0.10411 0.19721 0.0
H129 H 0.65029 0.65361 0.56915 0.0
H130 H 0.65694 0.54095 0.5691 0.0
H131 H 0.64347 0.58607 0.51295 0.0
C132 C 0.65029 0.62749 0.56083 0.0
C133 C 0.64601 0.62401 0.53975 0.0
C134 C 0.65402 0.59773 0.57145 0.0
C135 C 0.65401 0.56382 0.5608 0.0
C136 C 0.65066 0.55886 0.53972 0.0
C137 C 0.64641 0.58931 0.52914 0.0
H138 H 0.11677 0.59753 0.90677 0.0
H139 H 0.2315 0.59577 0.90888 0.0
H140 H 0.17694 0.59744 0.85167 0.0
C141 C 0.14213 0.59725 0.89885 0.0
C142 C 0.14266 0.59866 0.87786 0.0
C143 C 0.17389 0.59635 0.91001 0.0
C144 C 0.20694 0.596 0.90001 0.0
C145 C 0.20865 0.59531 0.87891 0.0
C146 C 0.17616 0.59714 0.86781 0.0
H147 H 0.94361 0.60266 0.41148 0.0
H148 H 1.07738 0.66415 0.40817 0.0
H149 H 1.02272 0.64755 0.46541 0.0
C150 C 0.97433 0.61942 0.41897 0.0
C151 C 0.97853 0.62327 0.44005 0.0
C152 C 1.01016 0.63565 0.40749 0.0
C153 C 1.04994 0.6539 0.41705 0.0
C154 C 1.05441 0.65713 0.43793 0.0
C155 C 1.01893 0.64421 0.44924 0.0
H156 H 0.41817 1.00957 0.72459 0.0
H157 H 0.48396 0.94119 0.7277 0.0
H158 H 0.42961 0.96208 0.7801 0.0
C159 C 0.42803 0.99156 0.73302 0.0
C160 C 0.4194 0.98656 0.75344 0.0
C161 C 0.45155 0.97553 0.72366 0.0
C162 C 0.4647 0.95251 0.73462 0.0
C163 C 0.4562 0.94702 0.75493 0.0
C164 C 0.43316 0.96361 0.76409 0.0
H165 H 0.61062 0.53958 0.07754 0.0
H166 H 0.65178 0.44907 0.07264 0.0
H167 H 0.6081 0.47338 0.12849 0.0
C168 C 0.61577 0.51631 0.08417 0.0
C169 C 0.60703 0.50851 0.10426 0.0
C170 C 0.63199 0.49515 0.07265 0.0
C171 C 0.63855 0.46496 0.08135 0.0
C172 C 0.62997 0.45677 0.10156 0.0
C173 C 0.61394 0.4786 0.1128 0.0
C174 C 0.36566 0.55359 0.18561 0.0
C175 C 0.35682 0.58614 0.18365 0.0
C176 C 0.40616 0.56084 0.18357 0.0
C177 C 0.49608 0.58339 0.1816 0.0
H178 H 0.53476 0.6307 0.1306 0.0
C179 C 0.60757 0.54827 0.13609 0.0
C180 C 0.59158 0.53241 0.11642 0.0
C181 C 0.59162 0.56929 0.14775 0.0
C182 C 0.52475 0.6179 0.145 0.0
H183 H 0.38424 0.6527 0.17969 0.0
H184 H 0.45526 0.66517 0.17567 0.0
H185 H 0.48254 0.64146 0.14755 0.0
H186 H 0.54707 0.52685 0.09342 0.0
H187 H 0.51918 0.56321 0.11369 0.0
H188 H 0.53553 0.55664 0.17812 0.0
C189 C 0.4306 0.634 0.17869 0.0
C190 C 0.4952 0.62447 0.15485 0.0
C191 C 0.38995 0.62678 0.18085 0.0
C192 C 0.56034 0.53912 0.10843 0.0
C193 C 0.54455 0.5602 0.12003 0.0
C194 C 0.52556 0.5767 0.17171 0.0
C195 C 0.4388 0.60076 0.17941 0.0
C196 C 0.47879 0.60519 0.17265 0.0
C197 C 0.55959 0.575 0.13989 0.0
C198 C 0.53828 0.59188 0.15276 0.0
H199 H 0.34088 0.5218 0.1875 0.0
H200 H 0.41118 0.53432 0.18382 0.0
H201 H 0.48449 0.56881 0.1955 0.0
H202 H 0.63226 0.54427 0.1425 0.0
H203 H 0.60389 0.58055 0.16298 0.0
C204 C 0.80061 0.33806 0.49187 0.0
C205 C 0.79758 0.32488 0.51132 0.0
C206 C 0.79879 0.3739 0.48831 0.0
C207 C 0.82193 0.47406 0.51337 0.0
H208 H 0.80013 0.48762 0.45838 0.0
C209 C 0.94617 0.5816 0.46942 0.0
C210 C 0.94184 0.60063 0.45267 0.0
C211 C 0.91242 0.55831 0.48099 0.0
C212 C 0.80507 0.4848 0.47405 0.0
H213 H 0.78864 0.33806 0.54226 0.0
H214 H 0.78566 0.40136 0.53607 0.0
H215 H 0.7644 0.41825 0.47112 0.0
H216 H 0.89788 0.60996 0.43511 0.0
H217 H 0.83734 0.56635 0.45499 0.0
H218 H 0.86368 0.54039 0.51604 0.0
C219 C 0.78989 0.38404 0.52358 0.0
C220 C 0.78524 0.44482 0.48126 0.0
C221 C 0.79154 0.34781 0.52713 0.0
C222 C 0.90233 0.5957 0.44789 0.0
C223 C 0.86785 0.57125 0.45939 0.0
C224 C 0.84071 0.51414 0.50634 0.0
C225 C 0.7936 0.39759 0.50408 0.0
C226 C 0.79747 0.43867 0.50016 0.0
C227 C 0.87263 0.55206 0.47599 0.0
C228 C 0.83645 0.51894 0.48592 0.0
H229 H 0.80415 0.32046 0.47927 0.0
H230 H 0.80293 0.38368 0.47317 0.0
H231 H 0.83117 0.47085 0.52824 0.0
H232 H 0.97532 0.58278 0.47321 0.0
H233 H 0.91712 0.54264 0.49311 0.0
C234 C 0.63449 0.82361 0.86389 0.0
C235 C 0.6715 0.83365 0.85398 0.0
C236 C 0.61025 0.84131 0.85865 0.0
C237 C 0.60899 0.92326 0.82957 0.0
H238 H 0.49753 0.83514 0.81141 0.0
C239 C 0.51994 0.94488 0.76578 0.0
C240 C 0.47709 0.93053 0.76757 0.0
C241 C 0.5414 0.93462 0.77949 0.0
C242 C 0.52823 0.86025 0.81671 0.0
H243 H 0.71362 0.87314 0.83198 0.0
H244 H 0.67235 0.90462 0.82347 0.0
H245 H 0.54078 0.81862 0.8325 0.0
H246 H 0.42273 0.89281 0.78464 0.0
H247 H 0.46045 0.8749 0.80874 0.0
H248 H 0.59706 0.96458 0.81321 0.0
C249 C 0.66186 0.88292 0.8352 0.0
C250 C 0.55293 0.85085 0.82887 0.0
C251 C 0.68572 0.86487 0.84019 0.0
C252 C 0.45581 0.9044 0.78296 0.0
C253 C 0.47734 0.8941 0.7967 0.0
C254 C 0.58431 0.93267 0.81747 0.0
C255 C 0.62303 0.86995 0.8437 0.0
C256 C 0.59406 0.88198 0.83483 0.0
C257 C 0.52056 0.9099 0.79535 0.0
C258 C 0.54426 0.90094 0.81033 0.0
H259 H 0.62308 0.80047 0.87494 0.0
H260 H 0.58067 0.83125 0.86563 0.0
H261 H 0.64041 0.94792 0.83416 0.0
H262 H 0.5374 0.96555 0.75429 0.0
H263 H 0.57452 0.94649 0.77779 0.0
C264 C 0.89144 0.52691 0.19917 0.0
C265 C 0.89633 0.56644 0.19579 0.0
C266 C 0.8516 0.49121 0.19845 0.0
C267 C 0.77772 0.43065 0.17106 0.0
H268 H 0.67666 0.436 0.17857 0.0
C269 C 0.68374 0.43689 0.10922 0.0
C270 C 0.64358 0.43095 0.11211 0.0
C271 C 0.7028 0.42499 0.12346 0.0
C272 C 0.70387 0.43252 0.17664 0.0
H273 H 0.86338 0.60054 0.192 0.0
H274 H 0.79412 0.53862 0.19051 0.0
H275 H 0.73558 0.47448 0.20236 0.0
H276 H 0.58908 0.40107 0.13017 0.0
H277 H 0.6229 0.38117 0.15535 0.0
H278 H 0.74722 0.39149 0.14442 0.0
C279 C 0.82079 0.53479 0.19365 0.0
C280 C 0.73788 0.45502 0.19026 0.0
C281 C 0.86057 0.57037 0.19426 0.0
C282 C 0.62063 0.40727 0.12791 0.0
C283 C 0.63987 0.39564 0.14228 0.0
C284 C 0.74362 0.40794 0.1575 0.0
C285 C 0.81602 0.49453 0.19447 0.0
C286 C 0.77632 0.45738 0.18652 0.0
C287 C 0.68219 0.40722 0.14093 0.0
C288 C 0.70791 0.41202 0.15913 0.0
H289 H 0.91839 0.52285 0.20057 0.0
H290 H 0.84882 0.46069 0.19941 0.0
H291 H 0.80673 0.43138 0.1678 0.0
H292 H 0.70234 0.4549 0.09723 0.0
H293 H 0.73546 0.4345 0.12186 0.0
C294 C 0.40028 0.81465 0.50248 0.0
C295 C 0.39799 0.84816 0.51226 0.0
C296 C 0.36499 0.7745 0.50069 0.0
C297 C 0.25026 0.71629 0.51069 0.0
H298 H 0.24089 0.70171 0.45272 0.0
C299 C 0.10854 0.69426 0.46585 0.0
C300 C 0.0948 0.66827 0.44804 0.0
C301 C 0.14431 0.70107 0.47646 0.0
C302 C 0.24281 0.70432 0.46893 0.0
H303 H 0.36012 0.86482 0.53086 0.0
H304 H 0.29838 0.79569 0.52722 0.0
H305 H 0.3093 0.73699 0.46944 0.0
H306 H 0.10726 0.62845 0.42753 0.0
H307 H 0.17046 0.64123 0.44586 0.0
H308 H 0.18337 0.68643 0.50982 0.0
C309 C 0.32691 0.79971 0.52086 0.0
C310 C 0.28223 0.7244 0.47862 0.0
C311 C 0.3622 0.83966 0.52276 0.0
C312 C 0.11768 0.64943 0.44098 0.0
C313 C 0.15352 0.65629 0.45158 0.0
C314 C 0.21074 0.69637 0.50095 0.0
C315 C 0.32695 0.76761 0.50844 0.0
C316 C 0.28652 0.73307 0.49953 0.0
C317 C 0.16708 0.68205 0.46948 0.0
C318 C 0.20692 0.69251 0.47994 0.0
H319 H 0.42772 0.8202 0.49445 0.0
H320 H 0.3663 0.75006 0.49151 0.0
H321 H 0.25249 0.72161 0.52684 0.0
H322 H 0.09159 0.7093 0.47159 0.0
H323 H 0.15464 0.72201 0.48992 0.0
C324 C 0.49585 0.28999 0.84918 0.0
C325 C 0.53784 0.30433 0.84478 0.0
C326 C 0.46662 0.24707 0.84756 0.0
C327 C 0.45227 0.14053 0.83789 0.0
H328 H 0.37926 0.13127 0.79346 0.0
C329 C 0.4179 1.05334 0.76031 0.0
C330 C 0.40385 1.01165 0.76479 0.0
C331 C 0.41423 0.08104 0.77407 0.0
C332 C 0.3984 0.13296 0.80623 0.0
H333 H 0.58326 0.28531 0.83766 0.0
H334 H 0.53236 0.21028 0.835 0.0
H335 H 0.41506 0.19627 0.81486 0.0
H336 H 0.36938 0.96505 0.78605 0.0
H337 H 0.3656 1.01453 0.81066 0.0
H338 H 0.43807 0.07829 0.82819 0.0
C339 C 0.52188 0.23205 0.83963 0.0
C340 C 0.41883 0.17007 0.81854 0.0
C341 C 0.55101 0.27498 0.841 0.0
C342 C 0.3818 0.99729 0.78239 0.0
C343 C 0.37921 1.02538 0.79642 0.0
C344 C 0.43129 0.10314 0.82576 0.0
C345 C 0.47909 0.2179 0.84176 0.0
C346 C 0.44785 0.17502 0.83371 0.0
C347 C 0.39712 0.06787 0.79271 0.0
C348 C 0.40617 0.10006 0.80913 0.0
H349 H 0.4848 0.31197 0.85203 0.0
H350 H 0.43384 0.2369 0.84934 0.0
H351 H 0.47439 0.14358 0.84952 0.0
H352 H 0.43532 0.06595 0.7471 0.0
H353 H 0.42862 0.1138 0.77093 0.0
C354 C 0.60958 0.92896 0.49023 0.0
C355 C 0.645 0.96824 0.49612 0.0
C356 C 0.60898 0.89084 0.49284 0.0
C357 C 0.67922 0.84565 0.50451 0.0
H358 H 0.57424 0.74753 0.51548 0.0
C359 C 0.66809 0.68247 0.51551 0.0
C360 C 0.64087 0.65747 0.52995 0.0
C361 C 0.66769 0.71864 0.50955 0.0
C362 C 0.60411 0.77448 0.5126 0.0
H363 H 0.70778 0.99694 0.50949 0.0
H364 H 0.70662 0.93131 0.51424 0.0
H365 H 0.57607 0.81284 0.50968 0.0
H366 H 0.59079 0.65091 0.54873 0.0
H367 H 0.59005 0.71274 0.53862 0.0
H368 H 0.70743 0.80746 0.50812 0.0
C369 C 0.67927 0.92963 0.50722 0.0
C370 C 0.60506 0.81232 0.50893 0.0
C371 C 0.67989 0.96773 0.50458 0.0
C372 C 0.6122 0.66901 0.53753 0.0
C373 C 0.6117 0.70481 0.53159 0.0
C374 C 0.67828 0.80775 0.50822 0.0
C375 C 0.64373 0.8902 0.50152 0.0
C376 C 0.64267 0.84897 0.50492 0.0
C377 C 0.63989 0.73102 0.51773 0.0
C378 C 0.64074 0.77132 0.51253 0.0
H379 H 0.58195 0.92752 0.48368 0.0
H380 H 0.58107 0.86176 0.48785 0.0
H381 H 0.70891 0.87241 0.50122 0.0
H382 H 0.69098 0.67517 0.50946 0.0
H383 H 0.68963 0.73716 0.49864 0.0
C384 C 0.82976 0.63245 0.8318 0.0
C385 C 0.79082 0.59491 0.83164 0.0
C386 C 0.86799 0.63291 0.83454 0.0
C387 C 0.9158 0.56148 0.83788 0.0
H388 H 1.01198 0.66558 0.85873 0.0
C389 C 1.0808 0.57413 0.85217 0.0
C390 C 0.10761 0.60253 0.86781 0.0
C391 C 1.04354 0.57365 0.84601 0.0
C392 C 0.98569 0.63575 0.85317 0.0
H393 H 0.76278 0.52804 0.83438 0.0
H394 H 0.82863 0.52879 0.83995 0.0
H395 H 0.94612 0.66262 0.85302 0.0
H396 H 0.11596 0.6538 0.88846 0.0
H397 H 1.05232 0.65241 0.87847 0.0
H398 H 0.95536 0.53419 0.83918 0.0
C399 C 0.83015 0.5582 0.83737 0.0
C400 C 0.94724 0.63424 0.84941 0.0
C401 C 0.79181 0.55768 0.83424 0.0
C402 C 0.09653 0.63136 0.87637 0.0
C403 C 1.05951 0.63068 0.87042 0.0
C404 C 0.95428 0.56284 0.84195 0.0
C405 C 0.86937 0.59593 0.83772 0.0
C406 C 0.91111 0.59712 0.84164 0.0
C407 C 1.03156 0.6015 0.85527 0.0
C408 C 0.99025 0.6 0.84984 0.0
H409 H 0.83086 0.66188 0.82968 0.0
H410 H 0.89655 0.66274 0.83398 0.0
H411 H 0.88977 0.53214 0.83164 0.0
H412 H 0.08763 0.55105 0.84527 0.0
H413 H 1.02394 0.55094 0.83408 0.0
C414 C 0.24312 0.75819 0.16264 0.0
C415 C 0.23867 0.71994 0.1684 0.0
C416 C 0.28202 0.79618 0.16494 0.0
C417 C 0.39861 0.83895 0.17357 0.0
H418 H 0.40219 0.94416 0.18759 0.0
C419 C 0.55522 0.99104 0.20003 0.0
C420 C 0.56152 1.03129 0.19689 0.0
C421 C 0.51691 0.95419 0.19467 0.0
C422 C 0.40214 0.91535 0.18338 0.0
H423 H 0.27322 0.6929 0.18112 0.0
H424 H 0.34015 0.75828 0.18516 0.0
H425 H 0.33484 0.87934 0.18243 0.0
H426 H 0.53129 0.06341 0.18524 0.0
H427 H 0.46469 0.99923 0.17534 0.0
H428 H 0.46573 0.87471 0.17449 0.0
C429 C 0.31372 0.75916 0.17863 0.0
C430 C 0.36305 0.87771 0.18041 0.0
C431 C 0.27485 0.72128 0.17641 0.0
C432 C 0.5282 1.03317 0.18755 0.0
C433 C 0.48953 0.99608 0.1822 0.0
C434 C 0.43761 0.87651 0.17648 0.0
C435 C 0.31828 0.79759 0.173 0.0
C436 C 0.36035 0.83852 0.17561 0.0
C437 C 0.48276 0.95572 0.18597 0.0
C438 C 0.44042 0.91562 0.18166 0.0
H439 H 0.21638 0.75894 0.1564 0.0
H440 H 0.28366 0.82447 0.16012 0.0
H441 H 0.39862 0.81012 0.16947 0.0
H442 H 0.57965 0.98812 0.20753 0.0
H443 H 0.51365 0.92448 0.19825 0.0
C444 C 0.67331 0.23541 0.49432 0.0
C445 C 0.63857 0.1976 0.49964 0.0
C446 C 0.67388 0.27403 0.49656 0.0
C447 C 0.60497 0.32274 0.50755 0.0
H448 H 0.71284 0.42418 0.51573 0.0
C449 C 0.61983 0.49049 0.51701 0.0
C450 C 0.65223 0.5214 0.52998 0.0
C451 C 0.61796 0.45175 0.51149 0.0
C452 C 0.68213 0.39648 0.5137 0.0
H453 H 0.57703 0.17206 0.51176 0.0
H454 H 0.57836 0.23899 0.51624 0.0
H455 H 0.70885 0.35679 0.51123 0.0
H456 H 0.70885 0.53545 0.54658 0.0
H457 H 0.70559 0.46934 0.53743 0.0
H458 H 0.578 0.3626 0.51107 0.0
C459 C 0.60508 0.23893 0.50979 0.0
C460 C 0.67995 0.35723 0.51069 0.0
C461 C 0.60436 0.20012 0.50733 0.0
C462 C 0.68344 0.5128 0.5365 0.0
C463 C 0.68157 0.4744 0.53109 0.0
C464 C 0.60706 0.36214 0.51078 0.0
C465 C 0.63994 0.27696 0.50451 0.0
C466 C 0.64148 0.31929 0.50756 0.0
C467 C 0.64846 0.44251 0.51873 0.0
C468 C 0.64575 0.40001 0.51409 0.0
H469 H 0.70037 0.23531 0.48828 0.0
H470 H 0.70116 0.30158 0.49176 0.0
H471 H 0.57444 0.29499 0.50495 0.0
H472 H 0.59488 0.49543 0.51183 0.0
H473 H 0.59216 0.42885 0.50171 0.0
C474 C 0.5221 0.56111 0.83354 0.0
C475 C 0.56075 0.59904 0.83408 0.0
C476 C 0.48392 0.56054 0.83645 0.0
C477 C 0.435 0.63146 0.8415 0.0
H478 H 0.34215 0.53043 0.85978 0.0
C479 C 0.26986 0.61811 0.85489 0.0
C480 C 0.24482 0.59211 0.86969 0.0
C481 C 0.30711 0.61858 0.84905 0.0
C482 C 0.36753 0.55945 0.85497 0.0
H483 H 0.58817 0.66654 0.83824 0.0
H484 H 0.52269 0.66575 0.84417 0.0
H485 H 0.40778 0.53334 0.85419 0.0
H486 H 0.23962 0.54463 0.88899 0.0
H487 H 0.30336 0.54641 0.87969 0.0
H488 H 0.39484 0.65817 0.84341 0.0
C489 C 0.52125 0.63597 0.84092 0.0
C490 C 0.40581 0.56085 0.85127 0.0
C491 C 0.55945 0.63652 0.83763 0.0
C492 C 0.25778 0.56559 0.87773 0.0
C493 C 0.29478 0.56629 0.8721 0.0
C494 C 0.3967 0.63026 0.84551 0.0
C495 C 0.48234 0.59789 0.84048 0.0
C496 C 0.44074 0.59682 0.84441 0.0
C497 C 0.32086 0.59303 0.85776 0.0
C498 C 0.36194 0.59425 0.85247 0.0
H499 H 0.52115 0.53142 0.83066 0.0
H500 H 0.45553 0.53028 0.83529 0.0
H501 H 0.46003 0.65985 0.83599 0.0
H502 H 0.26154 0.63924 0.84832 0.0
H503 H 0.32519 0.63932 0.83774 0.0
C504 C 1.00129 0.45033 0.1601 0.0
C505 C 1.0052 0.48954 0.166 0.0
C506 C 0.96394 0.41216 0.16258 0.0
C507 C 0.84895 0.36592 0.17536 0.0
H508 H 0.858 0.26758 0.18337 0.0
C509 C 0.69927 0.19996 0.18586 0.0
C510 C 0.70361 0.17353 0.19891 0.0
C511 C 0.73472 0.23743 0.18021 0.0
C512 C 0.85439 0.29454 0.18138 0.0
H513 H 0.97135 0.51818 0.17916 0.0
H514 H 0.90709 0.45223 0.18395 0.0
H515 H 0.92025 0.3335 0.17798 0.0
H516 H 0.74983 0.16602 0.21545 0.0
H517 H 0.81017 0.23002 0.20611 0.0
H518 H 0.78301 0.32691 0.17963 0.0
C519 C 0.9326 0.45068 0.17697 0.0
C520 C 0.89065 0.33287 0.17788 0.0
C521 C 0.96991 0.48894 0.17431 0.0
C522 C 0.74473 0.18522 0.20542 0.0
C523 C 0.77984 0.22231 0.19986 0.0
C524 C 0.81257 0.3275 0.179 0.0
C525 C 0.92875 0.41124 0.17132 0.0
C526 C 0.88901 0.36966 0.17482 0.0
C527 C 0.77588 0.24975 0.18732 0.0
C528 C 0.81446 0.29089 0.18227 0.0
H529 H 1.02731 0.44897 0.15353 0.0
H530 H 0.96286 0.38325 0.15745 0.0
H531 H 0.84539 0.39271 0.17285 0.0
H532 H 0.66835 0.19257 0.18061 0.0
H533 H 0.72969 0.25686 0.17034 0.0
C534 C 0.1585 0.57938 0.09442 0.0
C535 C 0.1419 0.60321 0.10326 0.0
C536 C 0.16376 0.57828 0.07368 0.0
C537 C 0.17673 0.63767 0.02916 0.0
H538 H 0.13618 0.53075 0.99876 0.0
C539 C 0.20743 0.62432 0.94465 0.0
C540 C 0.17239 0.59596 0.93231 0.0
C541 C 0.20535 0.62501 0.96558 0.0
C542 C 0.14768 0.56086 0.00704 0.0
H543 H 0.11862 0.64522 0.09707 0.0
H544 H 0.12856 0.64389 0.06113 0.0
H545 H 0.13001 0.53276 0.03515 0.0
H546 H 0.10803 0.5454 0.93235 0.0
H547 H 0.10459 0.54613 0.96884 0.0
H548 H 0.19443 0.66579 0.00108 0.0
C549 C 0.13728 0.62585 0.07021 0.0
C550 C 0.14443 0.56203 0.0279 0.0
C551 C 0.13136 0.6264 0.09084 0.0
C552 C 0.13549 0.56778 0.94143 0.0
C553 C 0.13362 0.56801 0.96234 0.0
C554 C 0.1806 0.63655 0.00835 0.0
C555 C 0.15329 0.6016 0.06132 0.0
C556 C 0.15853 0.60043 0.03922 0.0
C557 C 0.1684 0.59688 0.9747 0.0
C558 C 0.16578 0.59811 0.99698 0.0
H559 H 0.16688 0.56106 0.10349 0.0
H560 H 0.17641 0.55948 0.06733 0.0
H561 H 0.18814 0.66779 0.03742 0.0
H562 H 0.23623 0.64658 0.93811 0.0
H563 H 0.23278 0.64746 0.97466 0.0
C564 C 0.68646 0.09576 0.4227 0.0
C565 C 0.65009 0.08768 0.43272 0.0
C566 C 0.68741 0.09705 0.40174 0.0
C567 C 0.61696 0.06085 0.35612 0.0
H568 H 0.71099 0.14996 0.33096 0.0
C569 C 0.60562 0.09015 0.27317 0.0
C570 C 0.64084 0.10218 0.26151 0.0
C571 C 0.60847 0.08825 0.29391 0.0
C572 C 0.68467 0.12448 0.33767 0.0
H573 H 0.58618 0.0745 0.42834 0.0
H574 H 0.5879 0.07668 0.39223 0.0
H575 H 0.71344 0.14602 0.36722 0.0
H576 H 0.70679 0.12153 0.26272 0.0
H577 H 0.71174 0.11792 0.29886 0.0
H578 H 0.58811 1.03908 0.32676 0.0
C579 C 0.61564 0.08174 0.40043 0.0
C580 C 0.68611 0.12226 0.35851 0.0
C581 C 0.6148 0.08079 0.42125 0.0
C582 C 0.67913 0.11263 0.27124 0.0
C583 C 0.68196 0.11058 0.29201 0.0
C584 C 0.61558 0.06293 0.33535 0.0
C585 C 0.65186 0.08982 0.39034 0.0
C586 C 0.652 0.09074 0.36804 0.0
C587 C 0.6466 0.09812 0.30366 0.0
C588 C 0.64914 0.09511 0.32581 0.0
H589 H 0.71423 0.10128 0.43104 0.0
H590 H 0.71577 0.10316 0.39445 0.0
H591 H 0.59043 1.03564 0.36288 0.0
H592 H 0.5758 0.08255 0.26627 0.0
H593 H 0.58073 0.07943 0.30234 0.0
C594 C 0.64968 0.5731 0.75323 0.0
C595 C 0.67848 0.60806 0.76572 0.0
C596 C 0.64841 0.57507 0.73249 0.0
C597 C 0.70928 0.63524 0.69021 0.0
H598 H 0.60056 0.57439 0.66221 0.0
C599 C 0.68465 0.64042 0.60437 0.0
C600 C 0.65751 0.60168 0.59382 0.0
C601 C 0.68817 0.64376 0.62536 0.0
C602 C 0.63122 0.5913 0.66975 0.0
H603 H 0.72896 0.67262 0.76592 0.0
H604 H 0.72636 0.67634 0.72954 0.0
H605 H 0.60523 0.57645 0.69855 0.0
H606 H 0.61233 0.53624 0.59722 0.0
H607 H 0.61843 0.542 0.6337 0.0
H608 H 0.73505 0.65023 0.66121 0.0
C609 C 0.705 0.64712 0.73589 0.0
C610 C 0.63396 0.59244 0.69065 0.0
C611 C 0.70641 0.64507 0.75678 0.0
C612 C 0.63379 0.56648 0.60482 0.0
C613 C 0.637 0.56988 0.62577 0.0
C614 C 0.70649 0.63432 0.66923 0.0
C615 C 0.67567 0.61217 0.72346 0.0
C616 C 0.67305 0.61379 0.70121 0.0
C617 C 0.66425 0.60853 0.63635 0.0
C618 C 0.66743 0.61177 0.65872 0.0
H619 H 0.62792 0.54383 0.75945 0.0
H620 H 0.62611 0.54713 0.7235 0.0
H621 H 0.73995 0.65172 0.69773 0.0
H622 H 0.70361 0.66809 0.59636 0.0
H623 H 0.70925 0.67405 0.63301 0.0
C624 C 0.60352 1.03054 0.56122 0.0
C625 C 0.62476 0.07102 0.5543 0.0
C626 C 0.59043 1.0246 0.58079 0.0
C627 C 0.55659 0.07037 0.62055 0.0
H628 H 0.56162 0.98738 0.6517 0.0
C629 C 0.48687 1.03011 0.69899 0.0
C630 C 0.46789 0.98782 0.7035 0.0
C631 C 0.50786 1.04306 0.68123 0.0
C632 C 0.55954 1.01032 0.6431 0.0
H633 H 0.65029 0.13728 0.56256 0.0
H634 H 0.62676 0.12681 0.59708 0.0
H635 H 0.59925 1.00699 0.62087 0.0
H636 H 0.45419 0.92563 0.69254 0.0
H637 H 0.49003 0.94795 0.66133 0.0
H638 H 0.51592 0.07286 0.64251 0.0
C639 C 0.62042 0.09975 0.58722 0.0
C640 C 0.58138 1.02178 0.62553 0.0
C641 C 0.63414 0.10577 0.56759 0.0
C642 C 0.46885 0.95847 0.68952 0.0
C643 C 0.48966 0.97136 0.67174 0.0
C644 C 0.53455 0.05876 0.63813 0.0
C645 C 0.59789 0.05898 0.59388 0.0
C646 C 0.57952 1.05133 0.61387 0.0
C647 C 0.51025 1.01396 0.66759 0.0
C648 C 0.53514 1.028 0.6494 0.0
H649 H 0.59597 1.00317 0.55131 0.0
H650 H 0.5728 0.99281 0.58538 0.0
H651 H 0.5542 0.09287 0.61174 0.0
H652 H 0.48728 1.05361 0.70963 0.0
H653 H 0.52363 0.07613 0.6786 0.0
C654 C 0.68298 0.61318 0.90237 0.0
C655 C 0.67218 0.58003 0.8878 0.0
C656 C 0.6824 0.60631 0.92273 0.0
C657 C 0.6828 0.53077 0.95699 0.0
H658 H 0.63867 0.58117 0.99463 0.0
C659 C 0.63246 0.47484 0.03624 0.0
C660 C 0.64331 0.50619 0.0518 0.0
C661 C 0.64004 0.48556 0.01641 0.0
C662 C 0.65152 0.56726 0.98432 0.0
H663 H 0.65116 0.51345 0.88315 0.0
H664 H 0.64923 0.50145 0.91838 0.0
H665 H 0.64379 0.59748 0.95964 0.0
H666 H 0.6731 0.57347 0.05894 0.0
H667 H 0.68574 0.59198 0.02436 0.0
H668 H 0.68945 0.49972 0.98164 0.0
C669 C 0.65934 0.53299 0.91421 0.0
C670 C 0.65456 0.57669 0.9643 0.0
C671 C 0.66019 0.53987 0.89397 0.0
C672 C 0.66341 0.54851 0.04722 0.0
C673 C 0.67073 0.55916 0.02745 0.0
C674 C 0.67944 0.5211 0.97697 0.0
C675 C 0.67077 0.56612 0.92885 0.0
C676 C 0.66986 0.55823 0.95036 0.0
C677 C 0.6585 0.52778 0.01183 0.0
C678 C 0.66351 0.53904 0.99079 0.0
H679 H 0.69245 0.64448 0.89805 0.0
H680 H 0.69165 0.63257 0.93366 0.0
H681 H 0.6955 0.51665 0.94672 0.0
H682 H 0.61677 0.44199 0.03932 0.0
H683 H 0.63011 0.46073 0.0046 0.0
C684 C 1.07814 0.57195 0.23493 0.0
C685 C 0.09777 0.60885 0.22469 0.0
C686 C 1.06482 0.57284 0.25437 0.0
C687 C 0.08539 0.64465 0.29865 0.0
H688 H 0.97386 0.56303 0.31363 0.0
C689 C 1.02748 0.66615 0.37447 0.0
C690 C 1.00722 0.63052 0.38545 0.0
C691 C 1.03334 0.66201 0.35411 0.0
C692 C 1.00521 0.58583 0.30972 0.0
H693 H 0.11896 0.67556 0.22678 0.0
H694 H 0.09627 0.67711 0.26063 0.0
H695 H 0.99618 0.55772 0.27979 0.0
H696 H 0.97555 0.56266 0.38389 0.0
H697 H 0.98639 0.55518 0.34822 0.0
H698 H 0.0951 0.67242 0.32845 0.0
C699 C 0.09123 0.64756 0.25371 0.0
C700 C 1.01797 0.58273 0.29038 0.0
C701 C 0.10414 0.64661 0.23429 0.0
C702 C 0.99077 0.5905 0.37557 0.0
C703 C 0.99708 0.58631 0.35518 0.0
C704 C 1.07282 0.64758 0.31794 0.0
C705 C 1.07137 0.61072 0.26394 0.0
C706 C 1.05807 0.61239 0.28463 0.0
C707 C 1.01977 0.62216 0.3444 0.0
C708 C 1.03243 0.61853 0.32369 0.0
H709 H 1.07251 0.54231 0.22784 0.0
H710 H 1.0498 0.54404 0.26199 0.0
H711 H 0.11675 0.6675 0.29474 0.0
H712 H 1.04046 0.69731 0.38187 0.0
H713 H 1.04994 0.69022 0.34615 0.0
loop_
_geom_bond_atom_site_label_1
_geom_bond_atom_site_label_2
_geom_bond_distance
_geom_bond_site_symmetry_2
_ccdc_geom_bond_type
Tb0 C9 2.764 1_455 S
Tb0 O10 2.325 1_455 S
Tb0 O13 2.303 . S
Tb0 O17 2.322 . S
Tb0 O18 2.349 . S
Tb0 O21 2.415 1_455 S
Tb0 O22 2.399 1_455 S
Tb1 O11 2.322 . S
Tb1 O12 2.349 . S
Tb1 O14 2.415 . S
Tb1 O15 2.399 . S
Tb1 O16 2.325 . S
Tb1 O19 2.303 . S
Tb1 C30 2.764 . S
C2 O18 1.261 . S
C2 O19 1.257 . S
C3 C6 1.358 . S
C3 C7 1.332 . S
C3 C9 1.504 . S
C4 C5 1.373 . S
C4 C8 1.308 . S
C5 C4 1.373 . S
C5 C6 1.429 . S
C5 H32 0.932 . S
C6 C3 1.358 . S
C6 C5 1.429 . S
C6 H33 0.930 . S
C7 C3 1.332 . S
C7 C8 1.394 . S
C7 H34 0.932 . S
C8 C4 1.308 . S
C8 C7 1.394 . S
C8 H35 0.929 . S
C9 Tb0 2.764 1_655 S
C9 C3 1.504 . S
C9 O21 1.239 . S
C9 O22 1.263 . S
O10 Tb0 2.325 1_655 S
O10 C20 1.236 . S
O11 Tb1 2.322 . S
O11 C20 1.257 1_455 S
O12 Tb1 2.349 . S
O12 C23 1.261 . S
O13 Tb0 2.303 . S
O13 C23 1.257 . S
O14 Tb1 2.415 . S
O14 C30 1.239 . S
O15 Tb1 2.399 . S
O15 C30 1.263 . S
O16 Tb1 2.325 . S
O16 C31 1.236 . S
O17 Tb0 2.322 . S
O17 C31 1.257 . S
O18 Tb0 2.349 . S
O18 C2 1.261 . S
O19 Tb1 2.303 . S
O19 C2 1.257 . S
C20 O10 1.236 . S
C20 O11 1.257 1_655 S
O21 Tb0 2.415 1_655 S
O21 C9 1.239 . S
O22 Tb0 2.399 1_655 S
O22 C9 1.263 . S
C23 O12 1.261 . S
C23 O13 1.257 . S
C24 C27 1.358 . S
C24 C28 1.332 . S
C24 C30 1.504 . S
C25 C26 1.373 . S
C25 C29 1.308 . S
C26 C25 1.373 . S
C26 C27 1.429 . S
C26 H36 0.932 . S
C27 C24 1.358 . S
C27 C26 1.429 . S
C27 H37 0.930 . S
C28 C24 1.332 . S
C28 C29 1.394 . S
C28 H38 0.932 . S
C29 C25 1.308 . S
C29 C28 1.394 . S
C29 H39 0.929 . S
C30 Tb1 2.764 . S
C30 O14 1.239 . S
C30 O15 1.263 . S
C30 C24 1.504 . S
C31 O16 1.236 . S
C31 O17 1.257 . S
H32 C5 0.932 . S
H33 C6 0.930 . S
H34 C7 0.932 . S
H35 C8 0.929 . S
H36 C26 0.932 . S
H37 C27 0.930 . S
H38 C28 0.932 . S
H39 C29 0.929 . S
Tb40 C49 2.764 . S
Tb40 O50 2.325 . S
Tb40 O53 2.303 1_565 S
Tb40 O57 2.322 1_565 S
Tb40 O58 2.349 1_565 S
Tb40 O61 2.415 . S
Tb40 O62 2.399 . S
Tb41 O51 2.322 1_545 S
Tb41 O52 2.349 . S
Tb41 O54 2.415 . S
Tb41 O55 2.399 . S
Tb41 O56 2.325 . S
Tb41 O59 2.303 . S
Tb41 C70 2.764 . S
C42 O58 1.261 . S
C42 O59 1.257 . S
C43 C46 1.358 . S
C43 C47 1.332 . S
C43 C49 1.504 . S
C44 C45 1.373 . S
C44 C48 1.308 . S
C45 C44 1.373 . S
C45 C46 1.429 . S
C45 H72 0.932 . S
C46 C43 1.358 . S
C46 C45 1.429 . S
C46 H73 0.930 . S
C47 C43 1.332 . S
C47 C48 1.394 . S
C47 H74 0.932 . S
C48 C44 1.308 . S
C48 C47 1.394 . S
C48 H75 0.929 . S
C49 Tb40 2.764 . S
C49 C43 1.504 . S
C49 O61 1.239 . S
C49 O62 1.263 . S
O50 Tb40 2.325 . S
O50 C60 1.236 . S
O51 Tb41 2.322 1_565 S
O51 C60 1.257 . S
O52 Tb41 2.349 . S
O52 C63 1.261 . S
O53 Tb40 2.303 1_545 S
O53 C63 1.257 . S
O54 Tb41 2.415 . S
O54 C70 1.239 . S
O55 Tb41 2.399 . S
O55 C70 1.263 . S
O56 Tb41 2.325 . S
O56 C71 1.236 . S
O57 Tb40 2.322 1_545 S
O57 C71 1.257 . S
O58 Tb40 2.349 1_545 S
O58 C42 1.261 . S
O59 Tb41 2.303 . S
O59 C42 1.257 . S
C60 O50 1.236 . S
C60 O51 1.257 . S
O61 Tb40 2.415 . S
O61 C49 1.239 . S
O62 Tb40 2.399 . S
O62 C49 1.263 . S
C63 O52 1.261 . S
C63 O53 1.257 . S
C64 C67 1.358 . S
C64 C68 1.332 . S
C64 C70 1.504 . S
C65 C66 1.373 . S
C65 C69 1.308 . S
C66 C65 1.373 . S
C66 C67 1.429 . S
C66 H76 0.932 . S
C67 C64 1.358 . S
C67 C66 1.429 . S
C67 H77 0.930 . S
C68 C64 1.332 . S
C68 C69 1.394 . S
C68 H78 0.932 . S
C69 C65 1.308 . S
C69 C68 1.394 . S
C69 H79 0.929 . S
C70 Tb41 2.764 . S
C70 O54 1.239 . S
C70 O55 1.263 . S
C70 C64 1.504 . S
C71 O56 1.236 . S
C71 O57 1.257 . S
H72 C45 0.932 . S
H73 C46 0.930 . S
H74 C47 0.932 . S
H75 C48 0.929 . S
H76 C66 0.932 . S
H77 C67 0.930 . S
H78 C68 0.932 . S
H79 C69 0.929 . S
Tb80 C89 2.764 . S
Tb80 O90 2.325 . S
Tb80 O93 2.303 . S
Tb80 O97 2.322 . S
Tb80 O98 2.349 . S
Tb80 O101 2.415 . S
Tb80 O102 2.399 . S
Tb81 O91 2.322 . S
Tb81 O92 2.349 . S
Tb81 O94 2.415 . S
Tb81 O95 2.399 . S
Tb81 O96 2.325 . S
Tb81 O99 2.303 . S
Tb81 C110 2.764 . S
C82 O98 1.261 . S
C82 O99 1.257 . S
C83 C86 1.358 . S
C83 C87 1.332 . S
C83 C89 1.504 . S
C84 C85 1.373 . S
C84 C88 1.308 . S
C85 C84 1.373 . S
C85 C86 1.429 . S
C85 H112 0.932 . S
C86 C83 1.358 . S
C86 C85 1.429 . S
C86 H113 0.930 . S
C87 C83 1.332 . S
C87 C88 1.394 . S
C87 H114 0.932 . S
C88 C84 1.308 . S
C88 C87 1.394 . S
C88 H115 0.929 . S
C89 Tb80 2.764 . S
C89 C83 1.504 . S
C89 O101 1.239 . S
C89 O102 1.263 . S
O90 Tb80 2.325 . S
O90 C100 1.236 . S
O91 Tb81 2.322 . S
O91 C100 1.257 . S
O92 Tb81 2.349 . S
O92 C103 1.261 . S
O93 Tb80 2.303 . S
O93 C103 1.257 . S
O94 Tb81 2.415 . S
O94 C110 1.239 . S
O95 Tb81 2.399 . S
O95 C110 1.263 . S
O96 Tb81 2.325 . S
O96 C111 1.236 . S
O97 Tb80 2.322 . S
O97 C111 1.257 . S
O98 Tb80 2.349 . S
O98 C82 1.261 . S
O99 Tb81 2.303 . S
O99 C82 1.257 . S
C100 O90 1.236 . S
C100 O91 1.257 . S
O101 Tb80 2.415 . S
O101 C89 1.239 . S
O102 Tb80 2.399 . S
O102 C89 1.263 . S
C103 O92 1.261 . S
C103 O93 1.257 . S
C104 C107 1.358 . S
C104 C108 1.332 . S
C104 C110 1.504 . S
C105 C106 1.373 . S
C105 C109 1.308 . S
C106 C105 1.373 . S
C106 C107 1.429 . S
C106 H116 0.932 . S
C107 C104 1.358 . S
C107 C106 1.429 . S
C107 H117 0.930 . S
C108 C104 1.332 . S
C108 C109 1.394 . S
C108 H118 0.932 . S
C109 C105 1.308 . S
C109 C108 1.394 . S
C109 H119 0.929 . S
C110 Tb81 2.764 . S
C110 O94 1.239 . S
C110 O95 1.263 . S
C110 C104 1.504 . S
C111 O96 1.236 . S
C111 O97 1.257 . S
H112 C85 0.932 . S
H113 C86 0.930 . S
H114 C87 0.932 . S
H115 C88 0.929 . S
H116 C106 0.932 . S
H117 C107 0.930 . S
H118 C108 0.932 . S
H119 C109 0.929 . S
H120 C123 0.931 . S
H121 C126 0.928 . S
H122 C128 0.930 . S
C123 H120 0.931 . S
C123 C124 1.413 . S
C123 C125 1.360 1_565 S
C124 C123 1.413 . S
C124 C128 1.429 1_565 S
C125 C123 1.360 1_545 S
C125 C126 1.372 . S
C126 H121 0.928 . S
C126 C125 1.372 . S
C126 C127 1.404 . S
C127 C126 1.404 . S
C127 C128 1.391 . S
C128 H122 0.930 . S
C128 C124 1.429 1_545 S
C128 C127 1.391 . S
H129 C132 0.931 . S
H130 C135 0.928 . S
H131 C137 0.930 . S
C132 H129 0.931 . S
C132 C133 1.413 . S
C132 C134 1.360 . S
C133 C132 1.413 . S
C133 C137 1.429 . S
C134 C132 1.360 . S
C134 C135 1.372 . S
C135 H130 0.928 . S
C135 C134 1.372 . S
C135 C136 1.404 . S
C136 C135 1.404 . S
C136 C137 1.391 . S
C137 H131 0.930 . S
C137 C133 1.429 . S
C137 C136 1.391 . S
H138 C141 0.931 . S
H139 C144 0.928 . S
H140 C146 0.930 . S
C141 H138 0.931 . S
C141 C142 1.413 . S
C141 C143 1.360 . S
C142 C141 1.413 . S
C142 C146 1.429 . S
C143 C141 1.360 . S
C143 C144 1.372 . S
C144 H139 0.928 . S
C144 C143 1.372 . S
C144 C145 1.404 . S
C145 C144 1.404 . S
C145 C146 1.391 . S
C146 H140 0.930 . S
C146 C142 1.429 . S
C146 C145 1.391 . S
H147 C150 0.931 . S
H148 C153 0.928 . S
H149 C155 0.930 . S
C150 H147 0.931 . S
C150 C151 1.413 . S
C150 C152 1.358 1_655 S
C151 C150 1.413 . S
C151 C155 1.429 1_655 S
C152 C150 1.358 1_455 S
C152 C153 1.373 . S
C153 H148 0.928 . S
C153 C152 1.373 . S
C153 C154 1.404 . S
C154 C153 1.404 . S
C154 C155 1.391 . S
C155 H149 0.930 . S
C155 C151 1.429 1_455 S
C155 C154 1.391 . S
H156 C159 0.931 . S
H157 C162 0.928 . S
H158 C164 0.930 . S
C159 H156 0.931 . S
C159 C160 1.413 . S
C159 C161 1.360 1_545 S
C160 C159 1.413 . S
C160 C164 1.429 . S
C161 C159 1.360 1_565 S
C161 C162 1.372 . S
C162 H157 0.928 . S
C162 C161 1.372 . S
C162 C163 1.404 . S
C163 C162 1.404 . S
C163 C164 1.391 1_565 S
C164 H158 0.930 . S
C164 C160 1.429 . S
C164 C163 1.391 1_545 S
H165 C168 0.931 . S
H166 C171 0.928 . S
H167 C173 0.930 . S
C168 H165 0.931 . S
C168 C169 1.413 . S
C168 C170 1.360 . S
C169 C168 1.413 . S
C169 C173 1.429 . S
C170 C168 1.360 . S
C170 C171 1.372 . S
C171 H166 0.928 . S
C171 C170 1.372 . S
C171 C172 1.404 . S
C172 C171 1.404 . S
C172 C173 1.391 . S
C173 H167 0.930 . S
C173 C169 1.429 . S
C173 C172 1.391 . S
C174 C175 1.349 . S
C174 C176 1.327 . S
C174 H199 0.950 . S
C175 C174 1.349 . S
C175 C191 1.349 . S
C176 C174 1.327 . S
C176 C195 1.429 . S
C176 H200 0.950 . S
C177 C194 1.574 . S
C177 C196 1.368 . S
C177 H201 0.949 . S
H178 C182 0.949 . S
C179 C180 1.349 . S
C179 C181 1.327 . S
C179 H202 0.950 . S
C180 C179 1.349 . S
C180 C192 1.349 . S
C181 C179 1.327 . S
C181 C197 1.429 . S
C181 H203 0.950 . S
C182 H178 0.949 . S
C182 C190 1.574 . S
C182 C198 1.368 . S
H183 C191 0.950 . S
H184 C189 0.950 . S
H185 C190 0.949 . S
H186 C192 0.950 . S
H187 C193 0.950 . S
H188 C194 0.949 . S
C189 H184 0.950 . S
C189 C191 1.327 . S
C189 C195 1.429 . S
C190 C182 1.574 . S
C190 H185 0.949 . S
C190 C196 1.368 . S
C191 C175 1.349 . S
C191 H183 0.950 . S
C191 C189 1.327 . S
C192 C180 1.349 . S
C192 H186 0.950 . S
C192 C193 1.327 . S
C193 H187 0.950 . S
C193 C192 1.327 . S
C193 C197 1.429 . S
C194 C177 1.574 . S
C194 H188 0.949 . S
C194 C198 1.368 . S
C195 C176 1.429 . S
C195 C189 1.429 . S
C195 C196 1.523 . S
C196 C177 1.368 . S
C196 C190 1.368 . S
C196 C195 1.523 . S
C197 C181 1.429 . S
C197 C193 1.429 . S
C197 C198 1.523 . S
C198 C182 1.368 . S
C198 C194 1.368 . S
C198 C197 1.523 . S
H199 C174 0.950 . S
H200 C176 0.950 . S
H201 C177 0.949 . S
H202 C179 0.950 . S
H203 C181 0.950 . S
C204 C205 1.349 . S
C204 C206 1.327 . S
C204 H229 0.950 . S
C205 C204 1.349 . S
C205 C221 1.349 . S
C206 C204 1.327 . S
C206 C225 1.429 . S
C206 H230 0.950 . S
C207 C224 1.574 . S
C207 C226 1.368 . S
C207 H231 0.949 . S
H208 C212 0.949 . S
C209 C210 1.349 . S
C209 C211 1.327 . S
C209 H232 0.950 . S
C210 C209 1.349 . S
C210 C222 1.349 . S
C211 C209 1.327 . S
C211 C227 1.429 . S
C211 H233 0.950 . S
C212 H208 0.949 . S
C212 C220 1.574 . S
C212 C228 1.368 . S
H213 C221 0.950 . S
H214 C219 0.950 . S
H215 C220 0.949 . S
H216 C222 0.950 . S
H217 C223 0.950 . S
H218 C224 0.949 . S
C219 H214 0.950 . S
C219 C221 1.327 . S
C219 C225 1.429 . S
C220 C212 1.574 . S
C220 H215 0.949 . S
C220 C226 1.368 . S
C221 C205 1.349 . S
C221 H213 0.950 . S
C221 C219 1.327 . S
C222 C210 1.349 . S
C222 H216 0.950 . S
C222 C223 1.327 . S
C223 H217 0.950 . S
C223 C222 1.327 . S
C223 C227 1.429 . S
C224 C207 1.574 . S
C224 H218 0.949 . S
C224 C228 1.368 . S
C225 C206 1.429 . S
C225 C219 1.429 . S
C225 C226 1.523 . S
C226 C207 1.368 . S
C226 C220 1.368 . S
C226 C225 1.523 . S
C227 C211 1.429 . S
C227 C223 1.429 . S
C227 C228 1.523 . S
C228 C212 1.368 . S
C228 C224 1.368 . S
C228 C227 1.523 . S
H229 C204 0.950 . S
H230 C206 0.950 . S
H231 C207 0.949 . S
H232 C209 0.950 . S
H233 C211 0.950 . S
C234 C235 1.349 . S
C234 C236 1.327 . S
C234 H259 0.950 . S
C235 C234 1.349 . S
C235 C251 1.349 . S
C236 C234 1.327 . S
C236 C255 1.429 . S
C236 H260 0.950 . S
C237 C254 1.574 . S
C237 C256 1.368 . S
C237 H261 0.949 . S
H238 C242 0.949 . S
C239 C240 1.349 . S
C239 C241 1.327 . S
C239 H262 0.950 1_565 S
C240 C239 1.349 . S
C240 C252 1.349 . S
C241 C239 1.327 . S
C241 C257 1.429 . S
C241 H263 0.950 . S
C242 H238 0.949 . S
C242 C250 1.574 . S
C242 C258 1.368 . S
H243 C251 0.950 . S
H244 C249 0.950 . S
H245 C250 0.949 . S
H246 C252 0.950 . S
H247 C253 0.950 . S
H248 C254 0.949 . S
C249 H244 0.950 . S
C249 C251 1.327 . S
C249 C255 1.429 . S
C250 C242 1.574 . S
C250 H245 0.949 . S
C250 C256 1.368 . S
C251 C235 1.349 . S
C251 H243 0.950 . S
C251 C249 1.327 . S
C252 C240 1.349 . S
C252 H246 0.950 . S
C252 C253 1.327 . S
C253 H247 0.950 . S
C253 C252 1.327 . S
C253 C257 1.429 . S
C254 C237 1.574 . S
C254 H248 0.949 . S
C254 C258 1.368 . S
C255 C236 1.429 . S
C255 C249 1.429 . S
C255 C256 1.523 . S
C256 C237 1.368 . S
C256 C250 1.368 . S
C256 C255 1.523 . S
C257 C241 1.429 . S
C257 C253 1.429 . S
C257 C258 1.523 . S
C258 C242 1.368 . S
C258 C254 1.368 . S
C258 C257 1.523 . S
H259 C234 0.950 . S
H260 C236 0.950 . S
H261 C237 0.949 . S
H262 C239 0.950 1_545 S
H263 C241 0.950 . S
C264 C265 1.349 . S
C264 C266 1.327 . S
C264 H289 0.950 . S
C265 C264 1.349 . S
C265 C281 1.349 . S
C266 C264 1.327 . S
C266 C285 1.429 . S
C266 H290 0.950 . S
C267 C284 1.574 . S
C267 C286 1.368 . S
C267 H291 0.949 . S
H268 C272 0.949 . S
C269 C270 1.349 . S
C269 C271 1.327 . S
C269 H292 0.950 . S
C270 C269 1.349 . S
C270 C282 1.349 . S
C271 C269 1.327 . S
C271 C287 1.429 . S
C271 H293 0.950 . S
C272 H268 0.949 . S
C272 C280 1.574 . S
C272 C288 1.368 . S
H273 C281 0.950 . S
H274 C279 0.950 . S
H275 C280 0.949 . S
H276 C282 0.950 . S
H277 C283 0.950 . S
H278 C284 0.949 . S
C279 H274 0.950 . S
C279 C281 1.327 . S
C279 C285 1.429 . S
C280 C272 1.574 . S
C280 H275 0.949 . S
C280 C286 1.368 . S
C281 C265 1.349 . S
C281 H273 0.950 . S
C281 C279 1.327 . S
C282 C270 1.349 . S
C282 H276 0.950 . S
C282 C283 1.327 . S
C283 H277 0.950 . S
C283 C282 1.327 . S
C283 C287 1.429 . S
C284 C267 1.574 . S
C284 H278 0.949 . S
C284 C288 1.368 . S
C285 C266 1.429 . S
C285 C279 1.429 . S
C285 C286 1.523 . S
C286 C267 1.368 . S
C286 C280 1.368 . S
C286 C285 1.523 . S
C287 C271 1.429 . S
C287 C283 1.429 . S
C287 C288 1.523 . S
C288 C272 1.368 . S
C288 C284 1.368 . S
C288 C287 1.523 . S
H289 C264 0.950 . S
H290 C266 0.950 . S
H291 C267 0.949 . S
H292 C269 0.950 . S
H293 C271 0.950 . S
C294 C295 1.349 . S
C294 C296 1.327 . S
C294 H319 0.950 . S
C295 C294 1.349 . S
C295 C311 1.349 . S
C296 C294 1.327 . S
C296 C315 1.429 . S
C296 H320 0.950 . S
C297 C314 1.574 . S
C297 C316 1.368 . S
C297 H321 0.949 . S
H298 C302 0.949 . S
C299 C300 1.349 . S
C299 C301 1.327 . S
C299 H322 0.950 . S
C300 C299 1.349 . S
C300 C312 1.349 . S
C301 C299 1.327 . S
C301 C317 1.429 . S
C301 H323 0.950 . S
C302 H298 0.949 . S
C302 C310 1.574 . S
C302 C318 1.368 . S
H303 C311 0.950 . S
H304 C309 0.950 . S
H305 C310 0.949 . S
H306 C312 0.950 . S
H307 C313 0.950 . S
H308 C314 0.949 . S
C309 H304 0.950 . S
C309 C311 1.327 . S
C309 C315 1.429 . S
C310 C302 1.574 . S
C310 H305 0.949 . S
C310 C316 1.368 . S
C311 C295 1.349 . S
C311 H303 0.950 . S
C311 C309 1.327 . S
C312 C300 1.349 . S
C312 H306 0.950 . S
C312 C313 1.327 . S
C313 H307 0.950 . S
C313 C312 1.327 . S
C313 C317 1.429 . S
C314 C297 1.574 . S
C314 H308 0.949 . S
C314 C318 1.368 . S
C315 C296 1.429 . S
C315 C309 1.429 . S
C315 C316 1.523 . S
C316 C297 1.368 . S
C316 C310 1.368 . S
C316 C315 1.523 . S
C317 C301 1.429 . S
C317 C313 1.429 . S
C317 C318 1.523 . S
C318 C302 1.368 . S
C318 C314 1.368 . S
C318 C317 1.523 . S
H319 C294 0.950 . S
H320 C296 0.950 . S
H321 C297 0.949 . S
H322 C299 0.950 . S
H323 C301 0.950 . S
C324 C325 1.349 . S
C324 C326 1.327 . S
C324 H349 0.950 . S
C325 C324 1.349 . S
C325 C341 1.349 . S
C326 C324 1.327 . S
C326 C345 1.429 . S
C326 H350 0.950 . S
C327 C344 1.574 . S
C327 C346 1.368 . S
C327 H351 0.949 . S
H328 C332 0.949 . S
C329 C330 1.349 . S
C329 C331 1.327 . S
C329 H352 0.950 . S
C330 C329 1.349 . S
C330 C342 1.349 . S
C331 C329 1.327 . S
C331 C347 1.429 . S
C331 H353 0.950 . S
C332 H328 0.949 . S
C332 C340 1.574 . S
C332 C348 1.368 . S
H333 C341 0.950 . S
H334 C339 0.950 . S
H335 C340 0.949 . S
H336 C342 0.950 . S
H337 C343 0.950 . S
H338 C344 0.949 . S
C339 H334 0.950 . S
C339 C341 1.327 . S
C339 C345 1.429 . S
C340 C332 1.574 . S
C340 H335 0.949 . S
C340 C346 1.368 . S
C341 C325 1.349 . S
C341 H333 0.950 . S
C341 C339 1.327 . S
C342 C330 1.349 . S
C342 H336 0.950 . S
C342 C343 1.327 . S
C343 H337 0.950 . S
C343 C342 1.327 . S
C343 C347 1.429 . S
C344 C327 1.574 . S
C344 H338 0.949 . S
C344 C348 1.368 . S
C345 C326 1.429 . S
C345 C339 1.429 . S
C345 C346 1.523 . S
C346 C327 1.368 . S
C346 C340 1.368 . S
C346 C345 1.523 . S
C347 C331 1.429 . S
C347 C343 1.429 . S
C347 C348 1.523 . S
C348 C332 1.368 . S
C348 C344 1.368 . S
C348 C347 1.523 . S
H349 C324 0.950 . S
H350 C326 0.950 . S
H351 C327 0.949 . S
H352 C329 0.950 . S
H353 C331 0.950 . S
C354 C355 1.349 . S
C354 C356 1.327 . S
C354 H379 0.950 . S
C355 C354 1.349 . S
C355 C371 1.349 . S
C356 C354 1.327 . S
C356 C375 1.429 . S
C356 H380 0.950 . S
C357 C374 1.574 . S
C357 C376 1.368 . S
C357 H381 0.949 . S
H358 C362 0.949 . S
C359 C360 1.349 . S
C359 C361 1.327 . S
C359 H382 0.950 . S
C360 C359 1.349 . S
C360 C372 1.349 . S
C361 C359 1.327 . S
C361 C377 1.429 . S
C361 H383 0.950 . S
C362 H358 0.949 . S
C362 C370 1.574 . S
C362 C378 1.368 . S
H363 C371 0.950 . S
H364 C369 0.950 . S
H365 C370 0.949 . S
H366 C372 0.950 . S
H367 C373 0.950 . S
H368 C374 0.949 . S
C369 H364 0.950 . S
C369 C371 1.327 . S
C369 C375 1.429 . S
C370 C362 1.574 . S
C370 H365 0.949 . S
C370 C376 1.368 . S
C371 C355 1.349 . S
C371 H363 0.950 . S
C371 C369 1.327 . S
C372 C360 1.349 . S
C372 H366 0.950 . S
C372 C373 1.327 . S
C373 H367 0.950 . S
C373 C372 1.327 . S
C373 C377 1.429 . S
C374 C357 1.574 . S
C374 H368 0.949 . S
C374 C378 1.368 . S
C375 C356 1.429 . S
C375 C369 1.429 . S
C375 C376 1.523 . S
C376 C357 1.368 . S
C376 C370 1.368 . S
C376 C375 1.523 . S
C377 C361 1.429 . S
C377 C373 1.429 . S
C377 C378 1.523 . S
C378 C362 1.368 . S
C378 C374 1.368 . S
C378 C377 1.523 . S
H379 C354 0.950 . S
H380 C356 0.950 . S
H381 C357 0.949 . S
H382 C359 0.950 . S
H383 C361 0.950 . S
C384 C385 1.349 . S
C384 C386 1.327 . S
C384 H409 0.950 . S
C385 C384 1.349 . S
C385 C401 1.349 . S
C386 C384 1.327 . S
C386 C405 1.429 . S
C386 H410 0.950 . S
C387 C404 1.574 . S
C387 C406 1.368 . S
C387 H411 0.949 . S
H388 C392 0.949 . S
C389 C390 1.349 . S
C389 C391 1.327 . S
C389 H412 0.950 . S
C390 C389 1.349 . S
C390 C402 1.349 . S
C391 C389 1.327 . S
C391 C407 1.429 . S
C391 H413 0.950 . S
C392 H388 0.949 . S
C392 C400 1.574 . S
C392 C408 1.368 . S
H393 C401 0.950 . S
H394 C399 0.950 . S
H395 C400 0.949 . S
H396 C402 0.950 . S
H397 C403 0.950 . S
H398 C404 0.949 . S
C399 H394 0.950 . S
C399 C401 1.327 . S
C399 C405 1.429 . S
C400 C392 1.574 . S
C400 H395 0.949 . S
C400 C406 1.368 . S
C401 C385 1.349 . S
C401 H393 0.950 . S
C401 C399 1.327 . S
C402 C390 1.349 . S
C402 H396 0.950 . S
C402 C403 1.327 . S
C403 H397 0.950 . S
C403 C402 1.327 . S
C403 C407 1.429 . S
C404 C387 1.574 . S
C404 H398 0.949 . S
C404 C408 1.368 . S
C405 C386 1.429 . S
C405 C399 1.429 . S
C405 C406 1.523 . S
C406 C387 1.368 . S
C406 C400 1.368 . S
C406 C405 1.523 . S
C407 C391 1.429 . S
C407 C403 1.429 . S
C407 C408 1.523 . S
C408 C392 1.368 . S
C408 C404 1.368 . S
C408 C407 1.523 . S
H409 C384 0.950 . S
H410 C386 0.950 . S
H411 C387 0.949 . S
H412 C389 0.950 . S
H413 C391 0.950 . S
C414 C415 1.349 . S
C414 C416 1.327 . S
C414 H439 0.950 . S
C415 C414 1.349 . S
C415 C431 1.349 . S
C416 C414 1.327 . S
C416 C435 1.429 . S
C416 H440 0.950 . S
C417 C434 1.574 . S
C417 C436 1.368 . S
C417 H441 0.949 . S
H418 C422 0.949 . S
C419 C420 1.349 . S
C419 C421 1.327 . S
C419 H442 0.950 . S
C420 C419 1.349 . S
C420 C432 1.349 . S
C421 C419 1.327 . S
C421 C437 1.429 . S
C421 H443 0.950 . S
C422 H418 0.949 . S
C422 C430 1.574 . S
C422 C438 1.368 . S
H423 C431 0.950 . S
H424 C429 0.950 . S
H425 C430 0.949 . S
H426 C432 0.950 . S
H427 C433 0.950 . S
H428 C434 0.949 . S
C429 H424 0.950 . S
C429 C431 1.327 . S
C429 C435 1.429 . S
C430 C422 1.574 . S
C430 H425 0.949 . S
C430 C436 1.368 . S
C431 C415 1.349 . S
C431 H423 0.950 . S
C431 C429 1.327 . S
C432 C420 1.349 . S
C432 H426 0.950 . S
C432 C433 1.327 . S
C433 H427 0.950 . S
C433 C432 1.327 . S
C433 C437 1.429 . S
C434 C417 1.574 . S
C434 H428 0.949 . S
C434 C438 1.368 . S
C435 C416 1.429 . S
C435 C429 1.429 . S
C435 C436 1.523 . S
C436 C417 1.368 . S
C436 C430 1.368 . S
C436 C435 1.523 . S
C437 C421 1.429 . S
C437 C433 1.429 . S
C437 C438 1.523 . S
C438 C422 1.368 . S
C438 C434 1.368 . S
C438 C437 1.523 . S
H439 C414 0.950 . S
H440 C416 0.950 . S
H441 C417 0.949 . S
H442 C419 0.950 . S
H443 C421 0.950 . S
C444 C445 1.349 . S
C444 C446 1.327 . S
C444 H469 0.950 . S
C445 C444 1.349 . S
C445 C461 1.349 . S
C446 C444 1.327 . S
C446 C465 1.429 . S
C446 H470 0.950 . S
C447 C464 1.574 . S
C447 C466 1.368 . S
C447 H471 0.949 . S
H448 C452 0.949 . S
C449 C450 1.349 . S
C449 C451 1.327 . S
C449 H472 0.950 . S
C450 C449 1.349 . S
C450 C462 1.349 . S
C451 C449 1.327 . S
C451 C467 1.429 . S
C451 H473 0.950 . S
C452 H448 0.949 . S
C452 C460 1.574 . S
C452 C468 1.368 . S
H453 C461 0.950 . S
H454 C459 0.950 . S
H455 C460 0.949 . S
H456 C462 0.950 . S
H457 C463 0.950 . S
H458 C464 0.949 . S
C459 H454 0.950 . S
C459 C461 1.327 . S
C459 C465 1.429 . S
C460 C452 1.574 . S
C460 H455 0.949 . S
C460 C466 1.368 . S
C461 C445 1.349 . S
C461 H453 0.950 . S
C461 C459 1.327 . S
C462 C450 1.349 . S
C462 H456 0.950 . S
C462 C463 1.327 . S
C463 H457 0.950 . S
C463 C462 1.327 . S
C463 C467 1.429 . S
C464 C447 1.574 . S
C464 H458 0.949 . S
C464 C468 1.368 . S
C465 C446 1.429 . S
C465 C459 1.429 . S
C465 C466 1.523 . S
C466 C447 1.368 . S
C466 C460 1.368 . S
C466 C465 1.523 . S
C467 C451 1.429 . S
C467 C463 1.429 . S
C467 C468 1.523 . S
C468 C452 1.368 . S
C468 C464 1.368 . S
C468 C467 1.523 . S
H469 C444 0.950 . S
H470 C446 0.950 . S
H471 C447 0.949 . S
H472 C449 0.950 . S
H473 C451 0.950 . S
C474 C475 1.349 . S
C474 C476 1.327 . S
C474 H499 0.950 . S
C475 C474 1.349 . S
C475 C491 1.349 . S
C476 C474 1.327 . S
C476 C495 1.429 . S
C476 H500 0.950 . S
C477 C494 1.574 . S
C477 C496 1.368 . S
C477 H501 0.949 . S
H478 C482 0.949 . S
C479 C480 1.349 . S
C479 C481 1.327 . S
C479 H502 0.950 . S
C480 C479 1.349 . S
C480 C492 1.349 . S
C481 C479 1.327 . S
C481 C497 1.429 . S
C481 H503 0.950 . S
C482 H478 0.949 . S
C482 C490 1.574 . S
C482 C498 1.368 . S
H483 C491 0.950 . S
H484 C489 0.950 . S
H485 C490 0.949 . S
H486 C492 0.950 . S
H487 C493 0.950 . S
H488 C494 0.949 . S
C489 H484 0.950 . S
C489 C491 1.327 . S
C489 C495 1.429 . S
C490 C482 1.574 . S
C490 H485 0.949 . S
C490 C496 1.368 . S
C491 C475 1.349 . S
C491 H483 0.950 . S
C491 C489 1.327 . S
C492 C480 1.349 . S
C492 H486 0.950 . S
C492 C493 1.327 . S
C493 H487 0.950 . S
C493 C492 1.327 . S
C493 C497 1.429 . S
C494 C477 1.574 . S
C494 H488 0.949 . S
C494 C498 1.368 . S
C495 C476 1.429 . S
C495 C489 1.429 . S
C495 C496 1.523 . S
C496 C477 1.368 . S
C496 C490 1.368 . S
C496 C495 1.523 . S
C497 C481 1.429 . S
C497 C493 1.429 . S
C497 C498 1.523 . S
C498 C482 1.368 . S
C498 C494 1.368 . S
C498 C497 1.523 . S
H499 C474 0.950 . S
H500 C476 0.950 . S
H501 C477 0.949 . S
H502 C479 0.950 . S
H503 C481 0.950 . S
C504 C505 1.349 . S
C504 C506 1.327 . S
C504 H529 0.950 . S
C505 C504 1.349 . S
C505 C521 1.349 . S
C506 C504 1.327 . S
C506 C525 1.429 . S
C506 H530 0.950 . S
C507 C524 1.574 . S
C507 C526 1.368 . S
C507 H531 0.949 . S
H508 C512 0.949 . S
C509 C510 1.349 . S
C509 C511 1.327 . S
C509 H532 0.950 . S
C510 C509 1.349 . S
C510 C522 1.349 . S
C511 C509 1.327 . S
C511 C527 1.429 . S
C511 H533 0.950 . S
C512 H508 0.949 . S
C512 C520 1.574 . S
C512 C528 1.368 . S
H513 C521 0.950 . S
H514 C519 0.950 . S
H515 C520 0.949 . S
H516 C522 0.950 . S
H517 C523 0.950 . S
H518 C524 0.949 . S
C519 H514 0.950 . S
C519 C521 1.327 . S
C519 C525 1.429 . S
C520 C512 1.574 . S
C520 H515 0.949 . S
C520 C526 1.368 . S
C521 C505 1.349 . S
C521 H513 0.950 . S
C521 C519 1.327 . S
C522 C510 1.349 . S
C522 H516 0.950 . S
C522 C523 1.327 . S
C523 H517 0.950 . S
C523 C522 1.327 . S
C523 C527 1.429 . S
C524 C507 1.574 . S
C524 H518 0.949 . S
C524 C528 1.368 . S
C525 C506 1.429 . S
C525 C519 1.429 . S
C525 C526 1.523 . S
C526 C507 1.368 . S
C526 C520 1.368 . S
C526 C525 1.523 . S
C527 C511 1.429 . S
C527 C523 1.429 . S
C527 C528 1.523 . S
C528 C512 1.368 . S
C528 C524 1.368 . S
C528 C527 1.523 . S
H529 C504 0.950 . S
H530 C506 0.950 . S
H531 C507 0.949 . S
H532 C509 0.950 . S
H533 C511 0.950 . S
C534 C535 1.349 . S
C534 C536 1.327 . S
C534 H559 0.950 1_455 S
C535 C534 1.349 . S
C535 C551 1.349 . S
C536 C534 1.327 . S
C536 C555 1.429 . S
C536 H560 0.950 1_455 S
C537 C554 1.574 . S
C537 C556 1.368 . S
C537 H561 0.949 . S
H538 C542 0.952 1_556 S
C539 C540 1.349 . S
C539 C541 1.327 . S
C539 H562 0.950 . S
C540 C539 1.349 . S
C540 C552 1.349 . S
C541 C539 1.327 . S
C541 C557 1.429 . S
C541 H563 0.950 . S
C542 H538 0.952 1_554 S
C542 C550 1.574 . S
C542 C558 1.368 . S
H543 C551 0.950 . S
H544 C549 0.950 . S
H545 C550 0.949 1_655 S
H546 C552 0.950 . S
H547 C553 0.950 . S
H548 C554 0.949 . S
C549 H544 0.950 . S
C549 C551 1.327 . S
C549 C555 1.429 . S
C550 C542 1.574 . S
C550 H545 0.949 1_455 S
C550 C556 1.368 . S
C551 C535 1.349 . S
C551 H543 0.950 . S
C551 C549 1.327 . S
C552 C540 1.349 . S
C552 H546 0.950 . S
C552 C553 1.327 . S
C553 H547 0.950 . S
C553 C552 1.327 . S
C553 C557 1.429 . S
C554 C537 1.574 . S
C554 H548 0.949 . S
C554 C558 1.368 . S
C555 C536 1.429 . S
C555 C549 1.429 . S
C555 C556 1.523 . S
C556 C537 1.368 . S
C556 C550 1.368 . S
C556 C555 1.523 . S
C557 C541 1.429 . S
C557 C553 1.429 . S
C557 C558 1.523 1_556 S
C558 C542 1.368 . S
C558 C554 1.368 . S
C558 C557 1.523 1_554 S
H559 C534 0.950 1_655 S
H560 C536 0.950 1_655 S
H561 C537 0.949 . S
H562 C539 0.950 . S
H563 C541 0.950 . S
C564 C565 1.349 . S
C564 C566 1.327 . S
C564 H589 0.950 . S
C565 C564 1.349 . S
C565 C581 1.349 . S
C566 C564 1.327 . S
C566 C585 1.429 . S
C566 H590 0.950 . S
C567 C584 1.574 . S
C567 C586 1.368 . S
C567 H591 0.949 1_545 S
H568 C572 0.949 . S
C569 C570 1.349 . S
C569 C571 1.327 . S
C569 H592 0.950 1_545 S
C570 C569 1.349 . S
C570 C582 1.349 . S
C571 C569 1.327 . S
C571 C587 1.429 . S
C571 H593 0.950 1_545 S
C572 H568 0.949 . S
C572 C580 1.574 . S
C572 C588 1.368 . S
H573 C581 0.950 1_565 S
H574 C579 0.950 1_565 S
H575 C580 0.949 . S
H576 C582 0.950 . S
H577 C583 0.950 . S
H578 C584 0.949 1_565 S
C579 H574 0.950 1_545 S
C579 C581 1.327 . S
C579 C585 1.429 . S
C580 C572 1.574 . S
C580 H575 0.949 . S
C580 C586 1.368 . S
C581 C565 1.349 . S
C581 H573 0.950 1_545 S
C581 C579 1.327 . S
C582 C570 1.349 . S
C582 H576 0.950 . S
C582 C583 1.327 . S
C583 H577 0.950 . S
C583 C582 1.327 . S
C583 C587 1.429 . S
C584 C567 1.574 . S
C584 H578 0.949 1_545 S
C584 C588 1.368 . S
C585 C566 1.429 . S
C585 C579 1.429 . S
C585 C586 1.523 . S
C586 C567 1.368 . S
C586 C580 1.368 . S
C586 C585 1.523 . S
C587 C571 1.429 . S
C587 C583 1.429 . S
C587 C588 1.523 . S
C588 C572 1.368 . S
C588 C584 1.368 . S
C588 C587 1.523 . S
H589 C564 0.950 . S
H590 C566 0.950 . S
H591 C567 0.949 1_565 S
H592 C569 0.950 1_565 S
H593 C571 0.950 1_565 S
C594 C595 1.349 . S
C594 C596 1.327 . S
C594 H619 0.950 . S
C595 C594 1.349 . S
C595 C611 1.349 . S
C596 C594 1.327 . S
C596 C615 1.429 . S
C596 H620 0.950 . S
C597 C614 1.574 . S
C597 C616 1.368 . S
C597 H621 0.949 . S
H598 C602 0.949 . S
C599 C600 1.349 . S
C599 C601 1.327 . S
C599 H622 0.950 . S
C600 C599 1.349 . S
C600 C612 1.349 . S
C601 C599 1.327 . S
C601 C617 1.429 . S
C601 H623 0.950 . S
C602 H598 0.949 . S
C602 C610 1.574 . S
C602 C618 1.368 . S
H603 C611 0.950 . S
H604 C609 0.950 . S
H605 C610 0.949 . S
H606 C612 0.950 . S
H607 C613 0.950 . S
H608 C614 0.949 . S
C609 H604 0.950 . S
C609 C611 1.327 . S
C609 C615 1.429 . S
C610 C602 1.574 . S
C610 H605 0.949 . S
C610 C616 1.368 . S
C611 C595 1.349 . S
C611 H603 0.950 . S
C611 C609 1.327 . S
C612 C600 1.349 . S
C612 H606 0.950 . S
C612 C613 1.327 . S
C613 H607 0.950 . S
C613 C612 1.327 . S
C613 C617 1.429 . S
C614 C597 1.574 . S
C614 H608 0.949 . S
C614 C618 1.368 . S
C615 C596 1.429 . S
C615 C609 1.429 . S
C615 C616 1.523 . S
C616 C597 1.368 . S
C616 C610 1.368 . S
C616 C615 1.523 . S
C617 C601 1.429 . S
C617 C613 1.429 . S
C617 C618 1.523 . S
C618 C602 1.368 . S
C618 C614 1.368 . S
C618 C617 1.523 . S
H619 C594 0.950 . S
H620 C596 0.950 . S
H621 C597 0.949 . S
H622 C599 0.950 . S
H623 C601 0.950 . S
C624 C625 1.349 1_565 S
C624 C626 1.327 . S
C624 H649 0.950 . S
C625 C624 1.349 1_545 S
C625 C641 1.349 . S
C626 C624 1.327 . S
C626 C645 1.429 1_565 S
C626 H650 0.950 . S
C627 C644 1.574 . S
C627 C646 1.368 . S
C627 H651 0.949 . S
H628 C632 0.949 . S
C629 C630 1.349 1_545 S
C629 C631 1.327 . S
C629 H652 0.950 . S
C630 C629 1.349 1_565 S
C630 C642 1.349 . S
C631 C629 1.327 . S
C631 C647 1.429 . S
C631 H653 0.950 . S
C632 H628 0.949 . S
C632 C640 1.574 . S
C632 C648 1.368 1_565 S
H633 C641 0.950 . S
H634 C639 0.950 . S
H635 C640 0.949 . S
H636 C642 0.950 . S
H637 C643 0.950 . S
H638 C644 0.949 . S
C639 H634 0.950 . S
C639 C641 1.327 . S
C639 C645 1.429 . S
C640 C632 1.574 . S
C640 H635 0.949 . S
C640 C646 1.368 1_565 S
C641 C625 1.349 . S
C641 H633 0.950 . S
C641 C639 1.327 . S
C642 C630 1.349 . S
C642 H636 0.950 . S
C642 C643 1.327 . S
C643 H637 0.950 . S
C643 C642 1.327 . S
C643 C647 1.429 1_565 S
C644 C627 1.574 . S
C644 H638 0.949 . S
C644 C648 1.368 . S
C645 C626 1.429 1_545 S
C645 C639 1.429 . S
C645 C646 1.523 . S
C646 C627 1.368 . S
C646 C640 1.368 1_545 S
C646 C645 1.523 . S
C647 C631 1.429 . S
C647 C643 1.429 1_545 S
C647 C648 1.523 . S
C648 C632 1.368 1_545 S
C648 C644 1.368 . S
C648 C647 1.523 . S
H649 C624 0.950 . S
H650 C626 0.950 . S
H651 C627 0.949 . S
H652 C629 0.950 . S
H653 C631 0.950 . S
C654 C655 1.349 . S
C654 C656 1.327 . S
C654 H679 0.950 . S
C655 C654 1.349 . S
C655 C671 1.349 . S
C656 C654 1.327 . S
C656 C675 1.429 . S
C656 H680 0.950 . S
C657 C674 1.574 . S
C657 C676 1.368 . S
C657 H681 0.949 . S
H658 C662 0.949 . S
C659 C660 1.349 . S
C659 C661 1.327 . S
C659 H682 0.950 . S
C660 C659 1.349 . S
C660 C672 1.349 . S
C661 C659 1.327 . S
C661 C677 1.429 . S
C661 H683 0.950 . S
C662 H658 0.949 . S
C662 C670 1.574 . S
C662 C678 1.368 . S
H663 C671 0.950 . S
H664 C669 0.950 . S
H665 C670 0.949 . S
H666 C672 0.950 . S
H667 C673 0.950 . S
H668 C674 0.949 . S
C669 H664 0.950 . S
C669 C671 1.327 . S
C669 C675 1.429 . S
C670 C662 1.574 . S
C670 H665 0.949 . S
C670 C676 1.368 . S
C671 C655 1.349 . S
C671 H663 0.950 . S
C671 C669 1.327 . S
C672 C660 1.349 . S
C672 H666 0.950 . S
C672 C673 1.327 . S
C673 H667 0.950 . S
C673 C672 1.327 . S
C673 C677 1.429 . S
C674 C657 1.574 . S
C674 H668 0.949 . S
C674 C678 1.368 . S
C675 C656 1.429 . S
C675 C669 1.429 . S
C675 C676 1.523 . S
C676 C657 1.368 . S
C676 C670 1.368 . S
C676 C675 1.523 . S
C677 C661 1.429 . S
C677 C673 1.429 . S
C677 C678 1.523 1_554 S
C678 C662 1.368 . S
C678 C674 1.368 . S
C678 C677 1.523 1_556 S
H679 C654 0.950 . S
H680 C656 0.950 . S
H681 C657 0.949 . S
H682 C659 0.950 . S
H683 C661 0.950 . S
C684 C685 1.349 . S
C684 C686 1.327 . S
C684 H709 0.950 . S
C685 C684 1.349 . S
C685 C701 1.349 . S
C686 C684 1.327 . S
C686 C705 1.429 . S
C686 H710 0.950 . S
C687 C704 1.574 . S
C687 C706 1.368 . S
C687 H711 0.949 . S
H688 C692 0.949 . S
C689 C690 1.341 . S
C689 C691 1.325 1_655 S
C689 H712 0.960 . S
C690 C689 1.341 . S
C690 C702 1.350 1_655 S
C691 C689 1.325 1_455 S
C691 C707 1.429 . S
C691 H713 0.950 . S
C692 H688 0.949 . S
C692 C700 1.574 . S
C692 C708 1.368 . S
H693 C701 0.950 . S
H694 C699 0.950 . S
H695 C700 0.949 . S
H696 C702 0.950 . S
H697 C703 0.950 . S
H698 C704 0.949 . S
C699 H694 0.950 . S
C699 C701 1.327 . S
C699 C705 1.429 . S
C700 C692 1.574 . S
C700 H695 0.949 . S
C700 C706 1.368 . S
C701 C685 1.349 . S
C701 H693 0.950 . S
C701 C699 1.327 . S
C702 C690 1.350 1_455 S
C702 H696 0.950 . S
C702 C703 1.327 . S
C703 H697 0.950 . S
C703 C702 1.327 . S
C703 C707 1.429 . S
C704 C687 1.574 . S
C704 H698 0.949 . S
C704 C708 1.368 . S
C705 C686 1.429 . S
C705 C699 1.429 . S
C705 C706 1.523 . S
C706 C687 1.368 . S
C706 C700 1.368 . S
C706 C705 1.523 . S
C707 C691 1.429 . S
C707 C703 1.429 . S
C707 C708 1.523 . S
C708 C692 1.368 . S
C708 C704 1.368 . S
C708 C707 1.523 . S
H709 C684 0.950 . S
H710 C686 0.950 . S
H711 C687 0.949 . S
H712 C689 0.960 . S
H713 C691 0.950 . S
C175 C25 0.367 . S
C180 C169 0.307 . S
C205 C65 0.347 . S
C210 C151 0.161 . S
C235 C105 0.398 . S
C240 C163 0.225 . S
C265 C4 0.386 . S
C270 C172 0.225 . S
C300 C154 0.297 . S
C295 C44 0.369 . S
C330 C160 0.348 . S
C325 C84 0.398 . S
C355 C60 2.787 . S
C360 C133 2.762 . S
C385 C100 2.927 . S
C390 C142 2.893 1_655 S
C415 C31 2.906 . S
C420 C124 2.891 . S
C450 C136 2.873 . S
C445 C71 2.888 . S
C480 C145 2.747 . S
C475 C111 2.746 . S
C505 C20 2.776 . S
C510 C127 2.748 . S
C540 C143 1.805 . S
C535 C2 1.738 . S
C565 C42 1.744 . S
C570 C125 1.792 . S
C595 C82 1.744 . S
C600 C134 1.800 . S
C630 C161 1.045 . S
C625 C63 1.029 . S
C660 C170 1.084 . S
C655 C103 1.070 . S
C685 C23 1.034 . S
C690 C152 1.048 1_655 S
