# Generated by pormake.
# Topology ctn, (3,4)-cn, num edge types: 1
# Building blocks:
#     Node 0, Type 0, BuildingBlock: QEWDON_clean_linker_0, # of connection points: 3
#     Node 1, Type 0, BuildingBlock: QEWDON_clean_linker_0, # of connection points: 3
#     Node 2, Type 0, BuildingBlock: QEWDON_clean_linker_0, # of connection points: 3
#     Node 3, Type 0, BuildingBlock: QEWDON_clean_linker_0, # of connection points: 3
#     Node 4, Type 0, BuildingBlock: QEWDON_clean_linker_0, # of connection points: 3
#     Node 5, Type 0, BuildingBlock: QEWDON_clean_linker_0, # of connection points: 3
#     Node 6, Type 0, BuildingBlock: QEWDON_clean_linker_0, # of connection points: 3
#     Node 7, Type 0, BuildingBlock: QEWDON_clean_linker_0, # of connection points: 3
#     Node 8, Type 0, BuildingBlock: QEWDON_clean_linker_0, # of connection points: 3
#     Node 9, Type 0, BuildingBlock: QEWDON_clean_linker_0, # of connection points: 3
#     Node 10, Type 0, BuildingBlock: QEWDON_clean_linker_0, # of connection points: 3
#     Node 11, Type 0, BuildingBlock: QEWDON_clean_linker_0, # of connection points: 3
#     Node 12, Type 0, BuildingBlock: QEWDON_clean_linker_0, # of connection points: 3
#     Node 13, Type 0, BuildingBlock: QEWDON_clean_linker_0, # of connection points: 3
#     Node 14, Type 0, BuildingBlock: QEWDON_clean_linker_0, # of connection points: 3
#     Node 15, Type 0, BuildingBlock: QEWDON_clean_linker_0, # of connection points: 3
#     Node 16, Type 1, BuildingBlock: QUQFOY_clean_sbu_1, # of connection points: 4
#     Node 17, Type 1, BuildingBlock: QUQFOY_clean_sbu_1, # of connection points: 4
#     Node 18, Type 1, BuildingBlock: QUQFOY_clean_sbu_1, # of connection points: 4
#     Node 19, Type 1, BuildingBlock: QUQFOY_clean_sbu_1, # of connection points: 4
#     Node 20, Type 1, BuildingBlock: QUQFOY_clean_sbu_1, # of connection points: 4
#     Node 21, Type 1, BuildingBlock: QUQFOY_clean_sbu_1, # of connection points: 4
#     Node 22, Type 1, BuildingBlock: QUQFOY_clean_sbu_1, # of connection points: 4
#     Node 23, Type 1, BuildingBlock: QUQFOY_clean_sbu_1, # of connection points: 4
#     Node 24, Type 1, BuildingBlock: QUQFOY_clean_sbu_1, # of connection points: 4
#     Node 25, Type 1, BuildingBlock: QUQFOY_clean_sbu_1, # of connection points: 4
#     Node 26, Type 1, BuildingBlock: QUQFOY_clean_sbu_1, # of connection points: 4
#     Node 27, Type 1, BuildingBlock: QUQFOY_clean_sbu_1, # of connection points: 4
#     Edge 28, Type (0, 1), BuildingBlock: TEMPAE_clean_linker_10, # of connection points: 2
#     Edge 29, Type (0, 1), BuildingBlock: TEMPAE_clean_linker_10, # of connection points: 2
#     Edge 30, Type (0, 1), BuildingBlock: TEMPAE_clean_linker_10, # of connection points: 2
#     Edge 31, Type (0, 1), BuildingBlock: TEMPAE_clean_linker_10, # of connection points: 2
#     Edge 32, Type (0, 1), BuildingBlock: TEMPAE_clean_linker_10, # of connection points: 2
#     Edge 33, Type (0, 1), BuildingBlock: TEMPAE_clean_linker_10, # of connection points: 2
#     Edge 34, Type (0, 1), BuildingBlock: TEMPAE_clean_linker_10, # of connection points: 2
#     Edge 35, Type (0, 1), BuildingBlock: TEMPAE_clean_linker_10, # of connection points: 2
#     Edge 36, Type (0, 1), BuildingBlock: TEMPAE_clean_linker_10, # of connection points: 2
#     Edge 37, Type (0, 1), BuildingBlock: TEMPAE_clean_linker_10, # of connection points: 2
#     Edge 38, Type (0, 1), BuildingBlock: TEMPAE_clean_linker_10, # of connection points: 2
#     Edge 39, Type (0, 1), BuildingBlock: TEMPAE_clean_linker_10, # of connection points: 2
#     Edge 40, Type (0, 1), BuildingBlock: TEMPAE_clean_linker_10, # of connection points: 2
#     Edge 41, Type (0, 1), BuildingBlock: TEMPAE_clean_linker_10, # of connection points: 2
#     Edge 42, Type (0, 1), BuildingBlock: TEMPAE_clean_linker_10, # of connection points: 2
#     Edge 43, Type (0, 1), BuildingBlock: TEMPAE_clean_linker_10, # of connection points: 2
#     Edge 44, Type (0, 1), BuildingBlock: TEMPAE_clean_linker_10, # of connection points: 2
#     Edge 45, Type (0, 1), BuildingBlock: TEMPAE_clean_linker_10, # of connection points: 2
#     Edge 46, Type (0, 1), BuildingBlock: TEMPAE_clean_linker_10, # of connection points: 2
#     Edge 47, Type (0, 1), BuildingBlock: TEMPAE_clean_linker_10, # of connection points: 2
#     Edge 48, Type (0, 1), BuildingBlock: TEMPAE_clean_linker_10, # of connection points: 2
#     Edge 49, Type (0, 1), BuildingBlock: TEMPAE_clean_linker_10, # of connection points: 2
#     Edge 50, Type (0, 1), BuildingBlock: TEMPAE_clean_linker_10, # of connection points: 2
#     Edge 51, Type (0, 1), BuildingBlock: TEMPAE_clean_linker_10, # of connection points: 2
#     Edge 52, Type (0, 1), BuildingBlock: TEMPAE_clean_linker_10, # of connection points: 2
#     Edge 53, Type (0, 1), BuildingBlock: TEMPAE_clean_linker_10, # of connection points: 2
#     Edge 54, Type (0, 1), BuildingBlock: TEMPAE_clean_linker_10, # of connection points: 2
#     Edge 55, Type (0, 1), BuildingBlock: TEMPAE_clean_linker_10, # of connection points: 2
#     Edge 56, Type (0, 1), BuildingBlock: TEMPAE_clean_linker_10, # of connection points: 2
#     Edge 57, Type (0, 1), BuildingBlock: TEMPAE_clean_linker_10, # of connection points: 2
#     Edge 58, Type (0, 1), BuildingBlock: TEMPAE_clean_linker_10, # of connection points: 2
#     Edge 59, Type (0, 1), BuildingBlock: TEMPAE_clean_linker_10, # of connection points: 2
#     Edge 60, Type (0, 1), BuildingBlock: TEMPAE_clean_linker_10, # of connection points: 2
#     Edge 61, Type (0, 1), BuildingBlock: TEMPAE_clean_linker_10, # of connection points: 2
#     Edge 62, Type (0, 1), BuildingBlock: TEMPAE_clean_linker_10, # of connection points: 2
#     Edge 63, Type (0, 1), BuildingBlock: TEMPAE_clean_linker_10, # of connection points: 2
#     Edge 64, Type (0, 1), BuildingBlock: TEMPAE_clean_linker_10, # of connection points: 2
#     Edge 65, Type (0, 1), BuildingBlock: TEMPAE_clean_linker_10, # of connection points: 2
#     Edge 66, Type (0, 1), BuildingBlock: TEMPAE_clean_linker_10, # of connection points: 2
#     Edge 67, Type (0, 1), BuildingBlock: TEMPAE_clean_linker_10, # of connection points: 2
#     Edge 68, Type (0, 1), BuildingBlock: TEMPAE_clean_linker_10, # of connection points: 2
#     Edge 69, Type (0, 1), BuildingBlock: TEMPAE_clean_linker_10, # of connection points: 2
#     Edge 70, Type (0, 1), BuildingBlock: TEMPAE_clean_linker_10, # of connection points: 2
#     Edge 71, Type (0, 1), BuildingBlock: TEMPAE_clean_linker_10, # of connection points: 2
#     Edge 72, Type (0, 1), BuildingBlock: TEMPAE_clean_linker_10, # of connection points: 2
#     Edge 73, Type (0, 1), BuildingBlock: TEMPAE_clean_linker_10, # of connection points: 2
#     Edge 74, Type (0, 1), BuildingBlock: TEMPAE_clean_linker_10, # of connection points: 2
#     Edge 75, Type (0, 1), BuildingBlock: TEMPAE_clean_linker_10, # of connection points: 2
# Relax obj value: 0.130
# Max RMSD: 0.256
# Mean RMSD: 0.171
data_MOF--net-ctn--node1-QUQFOY_clean_sbu_1--node2-QEWDON_clean_linker_0--edge1-TEMPAE_clean_linker_10
_symmetry_space_group_name_H-M    P1
_symmetry_Int_Tables_number       1
_symmetry_cell_setting            triclinic
loop_
_symmetry_equiv_pos_as_xyz
'x, y, z'
_cell_length_a     52.814375
_cell_length_b     54.84135
_cell_length_c     59.685989
_cell_angle_alpha  101.93222
_cell_angle_beta   92.288427
_cell_angle_gamma 101.68692
loop_
_atom_site_label
_atom_site_type_symbol
_atom_site_fract_x
_atom_site_fract_y
_atom_site_fract_z
_atom_type_partial_charge
H0 H 0.11823 0.04646 0.07438 0.0
C1 C 0.1047 0.04355 0.08727 0.0
C2 C 0.10116 0.02105 0.0957 0.0
C3 C 0.09151 0.06278 0.09587 0.0
H4 H 0.08134 0.00101 0.1198 0.0
C5 C 0.08387 0.01796 0.11275 0.0
C6 C 0.07032 0.03704 0.12125 0.0
C7 C 0.07417 0.05938 0.1127 0.0
C8 C 0.09866 0.08776 0.08962 0.0
H9 H 0.06447 0.07453 0.11979 0.0
C10 C 0.08774 0.09222 0.06935 0.0
C11 C 0.09534 0.11618 0.06352 0.0
C12 C 0.11722 0.10715 0.10401 0.0
H13 H 0.12585 0.10392 0.11962 0.0
C14 C 0.12507 0.13072 0.09823 0.0
H15 H 0.07316 0.07724 0.05845 0.0
C16 C 0.11434 0.13521 0.07814 0.0
H17 H 0.12115 0.1536 0.07395 0.0
H18 H 0.13961 0.14553 0.1093 0.0
H19 H 0.37864 0.7681 0.25567 0.0
C20 C 0.36093 0.75345 0.25198 0.0
C21 C 0.36047 0.72954 0.25726 0.0
C22 C 0.33855 0.75874 0.24217 0.0
H23 H 0.33637 0.69285 0.25746 0.0
C24 C 0.33733 0.71088 0.2524 0.0
C25 C 0.31477 0.71591 0.24277 0.0
C26 C 0.31555 0.73983 0.23748 0.0
C27 C 0.33868 0.78473 0.23869 0.0
H28 H 0.29804 0.74404 0.23053 0.0
C29 C 0.33035 0.78861 0.21725 0.0
C30 C 0.33055 0.81348 0.21415 0.0
C31 C 0.34697 0.80583 0.25712 0.0
H32 H 0.35328 0.80326 0.27381 0.0
C33 C 0.34672 0.83038 0.25431 0.0
H34 H 0.32451 0.77236 0.20291 0.0
C35 C 0.33853 0.83423 0.23305 0.0
H36 H 0.33834 0.85352 0.23148 0.0
H37 H 0.35286 0.84651 0.26869 0.0
H38 H 0.04054 0.48317 0.03786 0.0
C39 C 0.02589 0.494 0.0358 0.0
C40 C 0.01568 0.5064 0.05529 0.0
C41 C 0.01765 0.49597 0.01371 0.0
H42 H 0.98936 0.53085 0.0674 0.0
C43 C 0.997 0.52077 0.05249 0.0
C44 C 0.98852 0.52258 0.03046 0.0
C45 C 0.99878 0.51011 0.01119 0.0
C46 C 0.02909 0.48382 0.99321 0.0
H47 H 0.99221 0.51166 0.99419 0.0
C48 C 0.03082 0.45808 0.98972 0.0
C49 C 0.04051 0.44626 0.96966 0.0
C50 C 0.03773 0.49783 0.97671 0.0
H51 H 0.03682 0.51775 0.97913 0.0
C52 C 0.04779 0.4863 0.957 0.0
H53 H 0.0237 0.44702 0.00215 0.0
C54 C 0.04909 0.46064 0.9534 0.0
H55 H 0.05688 0.45204 0.93792 0.0
H56 H 0.05448 0.49724 0.94441 0.0
H57 H 0.80361 0.76682 0.27399 0.0
C58 C 0.80641 0.75964 0.25613 0.0
C59 C 0.81374 0.77683 0.24191 0.0
C60 C 0.80268 0.7332 0.24731 0.0
H61 H 0.82483 0.78098 0.20849 0.0
C62 C 0.81789 0.76747 0.21897 0.0
C63 C 0.81367 0.74115 0.20962 0.0
C64 C 0.80602 0.72415 0.22403 0.0
C65 C 0.79471 0.71482 0.26212 0.0
H66 H 0.80188 0.70375 0.21706 0.0
C67 C 0.7741 0.71706 0.27607 0.0
C68 C 0.76531 0.69859 0.28883 0.0
C69 C 0.80696 0.69424 0.2616 0.0
H70 H 0.82302 0.69217 0.25115 0.0
C71 C 0.79859 0.67611 0.27457 0.0
H72 H 0.76413 0.73253 0.27618 0.0
C73 C 0.77774 0.67812 0.28798 0.0
H74 H 0.77132 0.66371 0.29771 0.0
H75 H 0.80813 0.66032 0.27404 0.0
H76 H 0.12602 0.95718 0.4723 0.0
C77 C 0.1089 0.96289 0.46635 0.0
C78 C 0.11149 0.98545 0.45828 0.0
C79 C 0.08436 0.94719 0.46623 0.0
H80 H 0.09119 0.00938 0.4435 0.0
C81 C 0.08919 0.99215 0.45006 0.0
C82 C 0.06447 0.9765 0.44951 0.0
C83 C 0.06215 0.95403 0.45787 0.0
C84 C 0.08246 0.92276 0.47335 0.0
H85 H 0.04327 0.94156 0.45734 0.0
C86 C 0.07251 0.91937 0.49424 0.0
C87 C 0.07239 0.89651 0.50159 0.0
C88 C 0.09205 0.90319 0.45966 0.0
H89 H 0.09996 0.90563 0.44359 0.0
C90 C 0.09165 0.88041 0.46667 0.0
H91 H 0.06519 0.93458 0.50479 0.0
C92 C 0.082 0.87707 0.4875 0.0
H93 H 0.08253 0.85943 0.4928 0.0
H94 H 0.09914 0.8654 0.45606 0.0
H95 H 0.2731 0.69138 0.76505 0.0
C96 C 0.26875 0.70162 0.7815 0.0
C97 C 0.2749 0.69368 0.80159 0.0
C98 C 0.25744 0.72293 0.78253 0.0
H99 H 0.27389 0.70111 0.83848 0.0
C100 C 0.26918 0.70704 0.82286 0.0
C101 C 0.25793 0.72835 0.82421 0.0
C102 C 0.25215 0.7362 0.804 0.0
C103 C 0.25189 0.73179 0.76127 0.0
H104 H 0.24386 0.7529 0.80508 0.0
C105 C 0.22857 0.73967 0.75751 0.0
C106 C 0.22324 0.74786 0.7373 0.0
C107 C 0.26997 0.73249 0.74463 0.0
H108 H 0.28826 0.72698 0.74718 0.0
C109 C 0.26484 0.74073 0.72464 0.0
H110 H 0.21425 0.73874 0.76998 0.0
C111 C 0.24164 0.74831 0.72093 0.0
H112 H 0.23818 0.75476 0.70533 0.0
H113 H 0.27895 0.74129 0.71199 0.0
H114 H 0.95001 0.63845 0.48618 0.0
C115 C 0.94271 0.61903 0.48792 0.0
C116 C 0.9366 0.61428 0.50948 0.0
C117 C 0.93896 0.59899 0.46841 0.0
H118 H 0.9208 0.58564 0.52782 0.0
C119 C 0.92625 0.58916 0.51129 0.0
C120 C 0.92235 0.56874 0.49194 0.0
C121 C 0.92926 0.57385 0.47055 0.0
C122 C 0.94367 0.6048 0.44563 0.0
H123 H 0.9264 0.55846 0.4554 0.0
C124 C 0.96114 0.59377 0.43179 0.0
C125 C 0.9666 0.60075 0.41078 0.0
C126 C 0.93115 0.62226 0.43803 0.0
H127 H 0.91754 0.63086 0.44839 0.0
C128 C 0.93598 0.62869 0.41696 0.0
H129 H 0.9712 0.58066 0.43781 0.0
C130 C 0.95366 0.61812 0.40345 0.0
H131 H 0.9572 0.62352 0.3872 0.0
H132 H 0.92615 0.64206 0.41118 0.0
H133 H 0.8396 0.87975 0.8379 0.0
C134 C 0.83833 0.86421 0.84674 0.0
C135 C 0.8518 0.84475 0.8393 0.0
C136 C 0.82354 0.86375 0.86579 0.0
H137 H 0.86115 0.81009 0.84565 0.0
C138 C 0.85051 0.82495 0.85112 0.0
C139 C 0.83578 0.82427 0.87007 0.0
C140 C 0.82219 0.84356 0.87718 0.0
C141 C 0.81012 0.88463 0.87459 0.0
H142 H 0.81083 0.84307 0.89189 0.0
C143 C 0.79372 0.89283 0.85986 0.0
C144 C 0.77953 0.91122 0.86892 0.0
C145 C 0.81288 0.8957 0.89826 0.0
H146 H 0.82561 0.88994 0.9099 0.0
C147 C 0.79927 0.91428 0.90716 0.0
H148 H 0.79122 0.88425 0.84163 0.0
C149 C 0.78256 0.92189 0.89265 0.0
H150 H 0.77212 0.93632 0.89997 0.0
H151 H 0.80155 0.92269 0.9254 0.0
H152 H 0.35132 0.38532 0.33804 0.0
C153 C 0.34966 0.36938 0.34643 0.0
C154 C 0.3629 0.34982 0.33864 0.0
C155 C 0.33463 0.36855 0.36529 0.0
H156 H 0.37153 0.31456 0.34419 0.0
C157 C 0.36107 0.32951 0.3499 0.0
C158 C 0.34605 0.32843 0.36863 0.0
C159 C 0.33276 0.34788 0.37613 0.0
C160 C 0.32162 0.38957 0.37456 0.0
H161 H 0.32127 0.34716 0.39073 0.0
C162 C 0.30487 0.39795 0.3603 0.0
C163 C 0.29099 0.41642 0.36985 0.0
C164 C 0.32507 0.40053 0.39825 0.0
H165 H 0.33804 0.39456 0.40952 0.0
C166 C 0.31182 0.41924 0.40763 0.0
H167 H 0.30184 0.3894 0.34206 0.0
C168 C 0.29475 0.42703 0.3936 0.0
H169 H 0.28454 0.44151 0.40129 0.0
H170 H 0.31463 0.42758 0.42589 0.0
H171 H 0.55148 0.99046 0.53438 0.0
C172 C 0.53737 0.00171 0.53181 0.0
C173 C 0.5244 0.01179 0.55047 0.0
C174 C 0.53261 0.00649 0.50998 0.0
H175 H 0.4963 0.03454 0.56139 0.0
C176 C 0.50611 0.02635 0.54703 0.0
C177 C 0.5015 0.03158 0.52537 0.0
C178 C 0.5148 0.02161 0.50697 0.0
C179 C 0.54607 0.99565 0.49022 0.0
H180 H 0.51081 0.0252 0.49013 0.0
C181 C 0.5476 0.9698 0.48585 0.0
C182 C 0.55888 0.95908 0.46631 0.0
C183 C 0.5566 0.01084 0.47514 0.0
H184 H 0.55591 0.03086 0.47824 0.0
C185 C 0.56818 0.00033 0.45591 0.0
H186 H 0.53905 0.95778 0.49709 0.0
C187 C 0.56918 0.97456 0.4514 0.0
H188 H 0.57808 0.96672 0.4363 0.0
H189 H 0.57623 0.01216 0.44439 0.0
H190 H 0.29342 0.26001 0.7706 0.0
C191 C 0.29616 0.25295 0.75271 0.0
C192 C 0.30403 0.27032 0.73875 0.0
C193 C 0.29183 0.22652 0.74358 0.0
H194 H 0.31564 0.27475 0.70556 0.0
C195 C 0.3082 0.26113 0.71579 0.0
C196 C 0.30337 0.23486 0.7061 0.0
C197 C 0.29511 0.21768 0.72022 0.0
C198 C 0.28345 0.20795 0.75816 0.0
H199 H 0.29051 0.19734 0.71297 0.0
C200 C 0.26343 0.2108 0.7727 0.0
C201 C 0.25434 0.19225 0.78531 0.0
C202 C 0.2948 0.18667 0.75692 0.0
H203 H 0.31043 0.18413 0.74606 0.0
C204 C 0.28608 0.16845 0.7697 0.0
H205 H 0.25414 0.22683 0.77345 0.0
C206 C 0.26582 0.17107 0.78368 0.0
H207 H 0.25913 0.15659 0.79328 0.0
H208 H 0.29492 0.15212 0.7686 0.0
H209 H 0.87768 0.26164 0.75234 0.0
C210 C 0.85973 0.24732 0.74858 0.0
C211 C 0.85861 0.22343 0.75412 0.0
C212 C 0.83771 0.25299 0.73847 0.0
H213 H 0.83378 0.18713 0.7544 0.0
C214 C 0.83522 0.20513 0.74918 0.0
C215 C 0.81301 0.21054 0.73929 0.0
C216 C 0.81442 0.23444 0.73377 0.0
C217 C 0.8385 0.279 0.73465 0.0
H218 H 0.79717 0.23892 0.72663 0.0
C219 C 0.82927 0.28272 0.7134 0.0
C220 C 0.82997 0.30757 0.71002 0.0
C221 C 0.84823 0.30031 0.75259 0.0
H222 H 0.85519 0.29793 0.76916 0.0
C223 C 0.84855 0.32487 0.74951 0.0
H224 H 0.82227 0.26632 0.69939 0.0
C225 C 0.83946 0.32853 0.72846 0.0
H226 H 0.83972 0.34784 0.72669 0.0
H227 H 0.85581 0.34116 0.76353 0.0
H228 H 0.60783 0.54865 0.56946 0.0
C229 C 0.59427 0.54444 0.58201 0.0
C230 C 0.59005 0.52043 0.58794 0.0
C231 C 0.58182 0.56342 0.59288 0.0
H232 H 0.56941 0.49721 0.60944 0.0
C233 C 0.57239 0.51537 0.60434 0.0
C234 C 0.55981 0.53426 0.6153 0.0
C235 C 0.56464 0.55815 0.60943 0.0
C236 C 0.5879 0.58945 0.58836 0.0
H237 H 0.55499 0.5728 0.61784 0.0
C238 C 0.58512 0.59359 0.56595 0.0
C239 C 0.58921 0.61867 0.56224 0.0
C240 C 0.59559 0.61047 0.60696 0.0
H241 H 0.59802 0.60772 0.62431 0.0
C242 C 0.60008 0.63522 0.6034 0.0
H243 H 0.57928 0.57735 0.55162 0.0
C244 C 0.59669 0.63935 0.58132 0.0
H245 H 0.59931 0.65888 0.57936 0.0
H246 H 0.60577 0.65131 0.61787 0.0
H247 H 0.61235 0.46487 0.97875 0.0
C248 C 0.59715 0.47 0.96914 0.0
C249 C 0.60217 0.49262 0.96094 0.0
C250 C 0.57277 0.4533 0.96422 0.0
H251 H 0.58594 0.5154 0.94114 0.0
C252 C 0.58203 0.49865 0.94846 0.0
C253 C 0.55723 0.48255 0.94411 0.0
C254 C 0.55284 0.45965 0.95186 0.0
C255 C 0.56906 0.42801 0.96994 0.0
H256 H 0.53403 0.44664 0.94818 0.0
C257 C 0.56734 0.42536 0.99277 0.0
C258 C 0.56449 0.40109 0.99806 0.0
C259 C 0.56809 0.40644 0.95233 0.0
H260 H 0.56952 0.40825 0.93466 0.0
C261 C 0.56582 0.38247 0.95745 0.0
H262 H 0.5676 0.44209 0.00621 0.0
C263 C 0.56415 0.37977 0.98011 0.0
H264 H 0.56269 0.36093 0.98357 0.0
H265 H 0.56543 0.36592 0.94382 0.0
H266 H 0.78748 0.19548 0.26747 0.0
C267 C 0.78247 0.20559 0.2837 0.0
C268 C 0.78983 0.19895 0.30415 0.0
C269 C 0.769 0.22537 0.28407 0.0
H270 H 0.78885 0.20727 0.3411 0.0
C271 C 0.78342 0.21222 0.32517 0.0
C272 C 0.76949 0.23151 0.32576 0.0
C273 C 0.76229 0.238 0.30527 0.0
C274 C 0.76284 0.23344 0.2625 0.0
H275 H 0.75228 0.25352 0.30603 0.0
C276 C 0.73915 0.2406 0.25855 0.0
C277 C 0.73353 0.2485 0.23824 0.0
C278 C 0.7809 0.23444 0.24582 0.0
H279 H 0.79952 0.22963 0.24848 0.0
C280 C 0.77538 0.24218 0.22567 0.0
H281 H 0.72481 0.23949 0.27099 0.0
C282 C 0.75187 0.24915 0.22184 0.0
H283 H 0.74818 0.25537 0.20618 0.0
H284 H 0.78947 0.24297 0.21301 0.0
H285 H 0.4531 0.14576 0.98693 0.0
C286 C 0.44506 0.12644 0.98857 0.0
C287 C 0.43914 0.1217 0.01017 0.0
C288 C 0.4403 0.10654 0.96892 0.0
H289 H 0.42248 0.09334 0.02845 0.0
C290 C 0.42781 0.09677 0.01187 0.0
C291 C 0.42299 0.07643 0.99239 0.0
C292 C 0.42982 0.08152 0.97096 0.0
C293 C 0.44499 0.11239 0.94615 0.0
H294 H 0.4264 0.06623 0.95572 0.0
C295 C 0.46143 0.10041 0.93178 0.0
C296 C 0.46689 0.10734 0.91076 0.0
C297 C 0.43347 0.1308 0.93906 0.0
H298 H 0.42065 0.14015 0.94983 0.0
C299 C 0.4383 0.13723 0.918 0.0
H300 H 0.47073 0.08655 0.93739 0.0
C301 C 0.45497 0.12569 0.90395 0.0
H302 H 0.45853 0.13109 0.88771 0.0
H303 H 0.42925 0.15134 0.91261 0.0
O304 O 0.27394 0.83812 0.99577 0.0
Cd305 Cd 0.28723 0.86529 0.02533 0.0
Cd306 Cd 0.24887 0.88714 0.01075 0.0
O307 O 0.24241 0.85478 0.98421 0.0
O308 O 0.30708 0.84888 0.04472 0.0
O309 O 0.27228 0.86331 0.05556 0.0
C310 C 0.29083 0.85239 0.06001 0.0
C311 C 0.21381 0.90244 0.02691 0.0
C312 C 0.25553 0.83746 0.98114 0.0
C313 C 0.30481 0.91651 0.01496 0.0
O314 O 0.28093 0.91576 0.01035 0.0
O315 O 0.31195 0.89805 0.02132 0.0
O316 O 0.21933 0.90377 0.00631 0.0
O317 O 0.22761 0.89128 0.03819 0.0
O318 O 0.17171 0.56855 0.28105 0.0
Cd319 Cd 0.15 0.53804 0.2917 0.0
Cd320 Cd 0.11274 0.54438 0.25404 0.0
O321 O 0.14494 0.57257 0.25333 0.0
O322 O 0.17517 0.53259 0.31491 0.0
O323 O 0.15954 0.50348 0.2834 0.0
C324 C 0.17468 0.51047 0.30216 0.0
C325 C 0.08906 0.53041 0.21798 0.0
C326 C 0.16663 0.57964 0.26527 0.0
C327 C 0.09616 0.54579 0.30299 0.0
O328 O 0.091 0.5464 0.28214 0.0
O329 O 0.11824 0.54289 0.30987 0.0
O330 O 0.08909 0.55221 0.23105 0.0
O331 O 0.1019 0.51576 0.22569 0.0
O332 O 0.81762 0.68832 0.97832 0.0
Cd333 Cd 0.81086 0.66258 0.99964 0.0
Cd334 Cd 0.82948 0.63336 0.96449 0.0
O335 O 0.83434 0.66501 0.95047 0.0
O336 O 0.79723 0.68088 0.02726 0.0
O337 O 0.83435 0.6682 0.02862 0.0
C338 C 0.81712 0.67865 0.03921 0.0
C339 C 0.86354 0.6197 0.97997 0.0
C340 C 0.8275 0.68564 0.95909 0.0
C341 C 0.77721 0.61129 0.9739 0.0
O342 O 0.7937 0.60903 0.95914 0.0
O343 O 0.78143 0.63025 0.99091 0.0
O344 O 0.85766 0.61437 0.95801 0.0
O345 O 0.85049 0.63357 0.99302 0.0
O346 O 0.95447 0.00946 0.3139 0.0
Cd347 Cd 0.93451 0.00308 0.28201 0.0
Cd348 Cd 0.89658 0.01756 0.30941 0.0
O349 O 0.92378 0.01954 0.33583 0.0
O350 O 0.9603 0.99314 0.26024 0.0
O351 O 0.94386 0.02707 0.26039 0.0
C352 C 0.95888 0.01245 0.25155 0.0
C353 C 0.87865 0.05275 0.30762 0.0
C354 C 0.94642 0.01524 0.33371 0.0
C355 C 0.8833 0.96496 0.28057 0.0
O356 O 0.87526 0.98149 0.29507 0.0
O357 O 0.90557 0.97042 0.27327 0.0
O358 O 0.87152 0.03847 0.32192 0.0
O359 O 0.8963 0.04709 0.29429 0.0
O360 O 0.32092 0.19289 0.47619 0.0
Cd361 Cd 0.30956 0.16649 0.49592 0.0
Cd362 Cd 0.3333 0.1374 0.46528 0.0
O363 O 0.33805 0.16819 0.4497 0.0
O364 O 0.29564 0.18443 0.52353 0.0
O365 O 0.33044 0.1679 0.52534 0.0
C366 C 0.31377 0.17941 0.53574 0.0
C367 C 0.36841 0.12308 0.47826 0.0
C368 C 0.3318 0.18938 0.45751 0.0
C369 C 0.27809 0.11558 0.46935 0.0
O370 O 0.2983 0.11161 0.45971 0.0
O371 O 0.27871 0.13638 0.48364 0.0
O372 O 0.36022 0.11739 0.45675 0.0
O373 O 0.35715 0.13785 0.49236 0.0
O374 O 0.44307 0.50997 0.80719 0.0
Cd375 Cd 0.42246 0.49895 0.77535 0.0
Cd376 Cd 0.38372 0.51277 0.80302 0.0
O377 O 0.41193 0.51775 0.82943 0.0
O378 O 0.45022 0.48964 0.75564 0.0
O379 O 0.42929 0.51922 0.75052 0.0
C380 C 0.44676 0.5064 0.7443 0.0
C381 C 0.3632 0.54616 0.8005 0.0
C382 C 0.4353 0.51583 0.82708 0.0
C383 C 0.37347 0.45888 0.77646 0.0
O384 O 0.36442 0.47562 0.78984 0.0
O385 O 0.39563 0.46474 0.76903 0.0
O386 O 0.35725 0.53211 0.81519 0.0
O387 O 0.38097 0.54118 0.78705 0.0
O388 O 0.76234 0.33481 0.49429 0.0
Cd389 Cd 0.7776 0.36126 0.52394 0.0
Cd390 Cd 0.74233 0.38754 0.50904 0.0
O391 O 0.73684 0.35692 0.48104 0.0
O392 O 0.79696 0.34285 0.5418 0.0
O393 O 0.76416 0.35941 0.55486 0.0
C394 C 0.78199 0.34714 0.55803 0.0
C395 C 0.70667 0.40381 0.52271 0.0
C396 C 0.74674 0.33731 0.47857 0.0
C397 C 0.79932 0.41316 0.51552 0.0
O398 O 0.77599 0.41489 0.51166 0.0
O399 O 0.80445 0.39297 0.5201 0.0
O400 O 0.71493 0.40626 0.50311 0.0
O401 O 0.71813 0.39118 0.5344 0.0
O402 O 0.66681 0.066 0.77771 0.0
Cd403 Cd 0.64428 0.03606 0.78855 0.0
Cd404 Cd 0.60748 0.04341 0.75134 0.0
O405 O 0.64014 0.07101 0.7504 0.0
O406 O 0.66906 0.0301 0.81177 0.0
O407 O 0.65272 0.00099 0.78045 0.0
C408 C 0.66791 0.00775 0.79918 0.0
C409 C 0.5839 0.02927 0.71525 0.0
C410 C 0.66198 0.0774 0.76208 0.0
C411 C 0.59115 0.04568 0.80035 0.0
O412 O 0.58589 0.04629 0.77952 0.0
O413 O 0.61302 0.04211 0.807 0.0
O414 O 0.5841 0.05122 0.72814 0.0
O415 O 0.59645 0.01455 0.72321 0.0
O416 O 0.02529 0.24307 0.92409 0.0
Cd417 Cd 0.01982 0.20521 0.90766 0.0
Cd418 Cd 0.05551 0.22292 0.88064 0.0
O419 O 0.0581 0.25637 0.90477 0.0
O420 O 0.00868 0.18376 0.93017 0.0
O421 O 0.04653 0.18615 0.91503 0.0
C422 C 0.03096 0.17747 0.92914 0.0
C423 C 0.09418 0.21551 0.86552 0.0
C424 C 0.04303 0.26092 0.92045 0.0
C425 C 0.00029 0.20005 0.85941 0.0
O426 O 0.02319 0.21162 0.85732 0.0
O427 O 0.99458 0.19389 0.87828 0.0
O428 O 0.08294 0.23252 0.86022 0.0
O429 O 0.08365 0.20265 0.87984 0.0
O430 O 0.5374 0.75478 0.42153 0.0
Cd431 Cd 0.52942 0.71632 0.40654 0.0
Cd432 Cd 0.56349 0.73109 0.37718 0.0
O433 O 0.56809 0.76612 0.39943 0.0
O434 O 0.51749 0.69839 0.43122 0.0
O435 O 0.55322 0.6942 0.41393 0.0
C436 C 0.53795 0.68886 0.42946 0.0
C437 C 0.60119 0.72093 0.36216 0.0
C438 C 0.55457 0.77188 0.41607 0.0
C439 C 0.50717 0.7091 0.35876 0.0
O440 O 0.53009 0.71917 0.35513 0.0
O441 O 0.50233 0.70484 0.37847 0.0
O442 O 0.59032 0.73744 0.35542 0.0
O443 O 0.59066 0.70995 0.37769 0.0
O444 O 0.98472 0.80632 0.71489 0.0
Cd445 Cd 0.00724 0.78999 0.69099 0.0
Cd446 Cd 0.98585 0.8188 0.66502 0.0
O447 O 0.96918 0.83052 0.69489 0.0
O448 O 0.02855 0.77277 0.70833 0.0
O449 O 0.04575 0.80425 0.69204 0.0
C450 C 0.04898 0.78744 0.70357 0.0
C451 C 0.00707 0.84738 0.64443 0.0
C452 C 0.97083 0.82243 0.71327 0.0
C453 C 0.97513 0.7623 0.64647 0.0
O454 O 0.97015 0.7835 0.64453 0.0
O455 O 0.98972 0.76108 0.66347 0.0
O456 O 0.9822 0.84291 0.64499 0.0
O457 O 0.02017 0.83674 0.65687 0.0
O458 O 0.4975 0.31189 0.21633 0.0
Cd459 Cd 0.51939 0.29498 0.1922 0.0
Cd460 Cd 0.50004 0.32532 0.16673 0.0
O461 O 0.48362 0.33729 0.19667 0.0
O462 O 0.53994 0.27679 0.20918 0.0
O463 O 0.55805 0.30819 0.19316 0.0
C464 C 0.5607 0.29105 0.2045 0.0
C465 C 0.52149 0.3541 0.14641 0.0
C466 C 0.48451 0.32875 0.21486 0.0
C467 C 0.48684 0.26884 0.14761 0.0
O468 O 0.48308 0.29054 0.14587 0.0
O469 O 0.50097 0.26675 0.16454 0.0
O470 O 0.49671 0.35024 0.14748 0.0
O471 O 0.53447 0.34262 0.1581 0.0
C472 C 0.26341 0.76962 0.85292 0.0
C473 C 0.25355 0.74321 0.84691 0.0
C474 C 0.26115 0.78378 0.87491 0.0
C475 C 0.24834 0.77127 0.89116 0.0
C476 C 0.23749 0.74474 0.88487 0.0
C477 C 0.24047 0.73096 0.86287 0.0
C478 C 0.27337 0.81195 0.88103 0.0
C479 C 0.22328 0.73083 0.90155 0.0
C480 C 0.26999 0.80316 0.95349 0.0
C481 C 0.25143 0.81797 0.95923 0.0
C482 C 0.2687 0.78726 0.93164 0.0
C483 C 0.24809 0.78573 0.91516 0.0
C484 C 0.22847 0.79947 0.92121 0.0
C485 C 0.23048 0.81561 0.94313 0.0
C486 C 0.29017 0.77314 0.92582 0.0
C487 C 0.2059 0.79789 0.90426 0.0
H488 H 0.27373 0.77906 0.84066 0.0
H489 H 0.23264 0.71055 0.85813 0.0
H490 H 0.25877 0.82307 0.88741 0.0
H491 H 0.28902 0.81582 0.89509 0.0
H492 H 0.28178 0.81896 0.86618 0.0
H493 H 0.21392 0.71075 0.89333 0.0
H494 H 0.23704 0.73078 0.91606 0.0
H495 H 0.20818 0.74079 0.90888 0.0
H496 H 0.28628 0.80481 0.96576 0.0
H497 H 0.21597 0.82685 0.94744 0.0
H498 H 0.30101 0.78045 0.91216 0.0
H499 H 0.28196 0.75251 0.91901 0.0
H500 H 0.30409 0.77531 0.94092 0.0
H501 H 0.21292 0.8072 0.89017 0.0
H502 H 0.19082 0.80735 0.9124 0.0
H503 H 0.19688 0.77766 0.89636 0.0
C504 C 0.98638 0.56462 0.39176 0.0
C505 C 0.98633 0.59074 0.39673 0.0
C506 C 0.00417 0.555 0.37735 0.0
C507 C 0.02238 0.57197 0.36791 0.0
C508 C 0.02287 0.59844 0.37345 0.0
C509 C 0.00482 0.60747 0.38774 0.0
C510 C 0.00301 0.52665 0.37174 0.0
C511 C 0.04214 0.61722 0.36393 0.0
C512 C 0.08321 0.55439 0.3434 0.0
C513 C 0.07651 0.54984 0.31968 0.0
C514 C 0.06542 0.56063 0.35937 0.0
C515 C 0.04031 0.56219 0.35142 0.0
C516 C 0.03306 0.55648 0.32751 0.0
C517 C 0.05124 0.55047 0.31195 0.0
C518 C 0.0739 0.56665 0.38473 0.0
C519 C 0.00639 0.55773 0.31834 0.0
H520 H 0.97204 0.55163 0.39861 0.0
H521 H 0.00512 0.62774 0.39187 0.0
H522 H 0.99758 0.51889 0.35309 0.0
H523 H 0.02238 0.52283 0.37559 0.0
H524 H 0.98872 0.51621 0.38149 0.0
H525 H 0.04067 0.63729 0.37071 0.0
H526 H 0.0622 0.61538 0.36823 0.0
H527 H 0.03883 0.61295 0.34492 0.0
H528 H 0.10264 0.55391 0.34957 0.0
H529 H 0.04577 0.54675 0.29366 0.0
H530 H 0.05947 0.55565 0.39393 0.0
H531 H 0.07503 0.5872 0.39205 0.0
H532 H 0.09316 0.56232 0.38815 0.0
H533 H 0.99121 0.54632 0.32657 0.0
H534 H 0.00305 0.55063 0.29941 0.0
H535 H 0.00399 0.57776 0.3226 0.0
C536 C 0.81133 0.78948 0.88706 0.0
C537 C 0.83511 0.80376 0.88287 0.0
C538 C 0.81042 0.77015 0.89936 0.0
C539 C 0.83388 0.76539 0.90803 0.0
C540 C 0.85796 0.77992 0.90397 0.0
C541 C 0.85828 0.79879 0.89122 0.0
C542 C 0.78438 0.75474 0.90297 0.0
C543 C 0.88335 0.77572 0.91329 0.0
C544 C 0.82958 0.73127 0.95752 0.0
C545 C 0.83018 0.7063 0.94626 0.0
C546 C 0.83132 0.75082 0.94536 0.0
C547 C 0.83317 0.74514 0.92131 0.0
C548 C 0.83388 0.71999 0.90987 0.0
C549 C 0.83262 0.70093 0.92252 0.0
C550 C 0.83102 0.77753 0.95822 0.0
C551 C 0.83542 0.71309 0.8842 0.0
H552 H 0.79343 0.79327 0.88045 0.0
H553 H 0.87667 0.81005 0.88815 0.0
H554 H 0.78331 0.73415 0.89589 0.0
H555 H 0.78196 0.7571 0.92161 0.0
H556 H 0.76799 0.76046 0.89465 0.0
H557 H 0.90038 0.7889 0.90889 0.0
H558 H 0.8839 0.7785 0.93227 0.0
H559 H 0.88512 0.7558 0.90635 0.0
H560 H 0.82786 0.73558 0.97588 0.0
H561 H 0.83292 0.68163 0.91368 0.0
H562 H 0.81374 0.78355 0.95188 0.0
H563 H 0.84841 0.79114 0.95503 0.0
H564 H 0.83063 0.77903 0.97705 0.0
H565 H 0.81844 0.71713 0.87522 0.0
H566 H 0.83588 0.69266 0.87792 0.0
H567 H 0.85307 0.72497 0.87935 0.0
C568 C 0.02516 0.96398 0.4214 0.0
C569 C 0.04192 0.98279 0.43798 0.0
C570 C 0.00731 0.97056 0.4069 0.0
C571 C 0.00637 0.99656 0.40894 0.0
C572 C 0.02184 0.01537 0.42677 0.0
C573 C 0.03933 0.00823 0.44117 0.0
C574 C 0.9908 0.94986 0.38832 0.0
C575 C 0.02135 0.04327 0.4296 0.0
C576 C 0.9888 0.01333 0.35265 0.0
C577 C 0.96254 0.01404 0.35419 0.0
C578 C 0.00348 0.00861 0.37076 0.0
C579 C 0.99155 0.00422 0.39082 0.0
C580 C 0.96534 0.00594 0.39289 0.0
C581 C 0.95116 0.01098 0.37458 0.0
C582 C 0.03155 0.0074 0.36805 0.0
C583 C 0.95193 0.00127 0.41396 0.0
H584 H 0.02712 0.94432 0.41874 0.0
H585 H 0.05191 0.02279 0.45426 0.0
H586 H 0.97034 0.95195 0.38782 0.0
H587 H 0.99787 0.95161 0.37134 0.0
H588 H 0.99138 0.93046 0.39084 0.0
H589 H 0.03183 0.05498 0.44605 0.0
H590 H 0.03067 0.05054 0.41524 0.0
H591 H 0.0011 0.04595 0.42892 0.0
H592 H 0.99777 0.01583 0.33702 0.0
H593 H 0.93083 0.01137 0.37587 0.0
H594 H 0.03407 0.98772 0.36768 0.0
H595 H 0.04413 0.02024 0.38293 0.0
H596 H 0.03835 0.01287 0.35204 0.0
H597 H 0.94984 0.98093 0.41475 0.0
H598 H 0.93236 0.00578 0.41389 0.0
H599 H 0.96373 0.01289 0.42979 0.0
C600 C 0.30134 0.23991 0.66518 0.0
C601 C 0.30654 0.22565 0.68121 0.0
C602 C 0.30471 0.23201 0.64185 0.0
C603 C 0.31227 0.20862 0.63399 0.0
C604 C 0.31717 0.19385 0.64986 0.0
C605 C 0.31471 0.20276 0.67332 0.0
C606 C 0.29979 0.24861 0.62554 0.0
C607 C 0.32443 0.16838 0.64197 0.0
C608 C 0.29101 0.17979 0.57117 0.0
C609 C 0.31422 0.18545 0.56092 0.0
C610 C 0.29045 0.18597 0.59508 0.0
C611 C 0.31349 0.1991 0.60896 0.0
C612 C 0.3371 0.20466 0.59865 0.0
C613 C 0.33727 0.19726 0.57467 0.0
C614 C 0.26508 0.17891 0.60544 0.0
C615 C 0.36184 0.21943 0.61281 0.0
H616 H 0.29428 0.25721 0.67073 0.0
H617 H 0.31923 0.19172 0.68544 0.0
H618 H 0.31641 0.25182 0.61491 0.0
H619 H 0.28233 0.23887 0.61367 0.0
H620 H 0.29674 0.26745 0.63473 0.0
H621 H 0.32763 0.15921 0.65649 0.0
H622 H 0.3088 0.15533 0.6296 0.0
H623 H 0.34235 0.17073 0.63285 0.0
H624 H 0.27326 0.17034 0.56043 0.0
H625 H 0.35516 0.20166 0.56659 0.0
H626 H 0.25823 0.19643 0.61293 0.0
H627 H 0.26779 0.16908 0.61957 0.0
H628 H 0.2497 0.16628 0.59252 0.0
H629 H 0.3595 0.2389 0.62083 0.0
H630 H 0.37877 0.22111 0.60234 0.0
H631 H 0.36602 0.21014 0.62696 0.0
C632 C 0.54623 0.54769 0.6548 0.0
C633 C 0.54267 0.52977 0.63382 0.0
C634 C 0.53014 0.54408 0.6725 0.0
C635 C 0.50976 0.52214 0.66905 0.0
C636 C 0.50595 0.50404 0.64783 0.0
C637 C 0.52262 0.50796 0.63051 0.0
C638 C 0.53518 0.56359 0.695 0.0
C639 C 0.48427 0.48055 0.64343 0.0
C640 C 0.48481 0.50028 0.72199 0.0
C641 C 0.46259 0.51057 0.72493 0.0
C642 C 0.50023 0.50385 0.70385 0.0
C643 C 0.4931 0.51775 0.68802 0.0
C644 C 0.47054 0.52798 0.69073 0.0
C645 C 0.45564 0.52444 0.70928 0.0
C646 C 0.52436 0.49299 0.70181 0.0
C647 C 0.46217 0.54267 0.67403 0.0
H648 H 0.56193 0.56443 0.65748 0.0
H649 H 0.51973 0.4942 0.61423 0.0
H650 H 0.51763 0.57135 0.69888 0.0
H651 H 0.5395 0.5544 0.70919 0.0
H652 H 0.55169 0.57972 0.69483 0.0
H653 H 0.48334 0.4688 0.62574 0.0
H654 H 0.48695 0.4686 0.65586 0.0
H655 H 0.46538 0.48615 0.64606 0.0
H656 H 0.49039 0.48963 0.73406 0.0
H657 H 0.43842 0.53231 0.7114 0.0
H658 H 0.54169 0.5086 0.70278 0.0
H659 H 0.52328 0.47969 0.68488 0.0
H660 H 0.52717 0.48261 0.71553 0.0
H661 H 0.47742 0.55995 0.6743 0.0
H662 H 0.44368 0.54864 0.67807 0.0
H663 H 0.45968 0.53081 0.65629 0.0
C664 C 0.79934 0.2959 0.67409 0.0
C665 C 0.82135 0.3119 0.68733 0.0
C666 C 0.79105 0.30018 0.65282 0.0
C667 C 0.80498 0.32105 0.64466 0.0
C668 C 0.82716 0.33725 0.65794 0.0
C669 C 0.83515 0.33238 0.67897 0.0
C670 C 0.76744 0.28235 0.63905 0.0
C671 C 0.84258 0.35972 0.64989 0.0
C672 C 0.80248 0.32207 0.58121 0.0
C673 C 0.78593 0.33884 0.57979 0.0
C674 C 0.80798 0.3153 0.60202 0.0
C675 C 0.79691 0.32578 0.622 0.0
C676 C 0.7796 0.34216 0.62056 0.0
C677 C 0.7742 0.34839 0.59942 0.0
C678 C 0.82629 0.29754 0.60275 0.0
C679 C 0.76758 0.35388 0.64152 0.0
H680 H 0.78838 0.28019 0.68049 0.0
H681 H 0.85247 0.34456 0.68879 0.0
H682 H 0.7525 0.29321 0.63612 0.0
H683 H 0.77272 0.27348 0.62192 0.0
H684 H 0.7588 0.26695 0.64773 0.0
H685 H 0.85886 0.37096 0.66259 0.0
H686 H 0.85064 0.35295 0.63343 0.0
H687 H 0.82974 0.37255 0.64663 0.0
H688 H 0.81146 0.31443 0.56608 0.0
H689 H 0.76141 0.36137 0.59846 0.0
H690 H 0.81736 0.28159 0.61064 0.0
H691 H 0.84432 0.308 0.6136 0.0
H692 H 0.83163 0.28946 0.58538 0.0
H693 H 0.75779 0.33882 0.65006 0.0
H694 H 0.75324 0.36487 0.63726 0.0
H695 H 0.78301 0.3669 0.65411 0.0
C696 C 0.55751 0.01474 0.58243 0.0
C697 C 0.53138 0.0088 0.57389 0.0
C698 C 0.56456 0.0147 0.60531 0.0
C699 C 0.545 0.00824 0.61992 0.0
C700 C 0.51864 0.00089 0.61105 0.0
C701 C 0.51211 0.00152 0.58816 0.0
C702 C 0.59285 0.02305 0.61416 0.0
C703 C 0.49729 0.9934 0.62598 0.0
C704 C 0.56972 0.99824 0.67739 0.0
C705 C 0.57126 0.02242 0.69154 0.0
C706 C 0.55996 0.9928 0.6542 0.0
C707 C 0.55205 0.01216 0.64498 0.0
C708 C 0.55276 0.03629 0.65943 0.0
C709 C 0.56214 0.04103 0.68253 0.0
C710 C 0.55893 0.96668 0.63939 0.0
C711 C 0.54479 0.05757 0.65025 0.0
H712 H 0.57242 0.02061 0.57149 0.0
H713 H 0.49191 0.99666 0.58148 0.0
H714 H 0.59597 0.04141 0.627 0.0
H715 H 0.59866 0.00884 0.62296 0.0
H716 H 0.60577 0.02564 0.60021 0.0
H717 H 0.47835 0.98487 0.61577 0.0
H718 H 0.50226 0.97953 0.63565 0.0
H719 H 0.4951 0.0105 0.63877 0.0
H720 H 0.57659 0.98373 0.68428 0.0
H721 H 0.56322 0.05978 0.69333 0.0
H722 H 0.57359 0.96805 0.62666 0.0
H723 H 0.53964 0.95906 0.62964 0.0
H724 H 0.56281 0.95292 0.64969 0.0
H725 H 0.55786 0.06288 0.63712 0.0
H726 H 0.54552 0.07488 0.66397 0.0
H727 H 0.5248 0.05114 0.64173 0.0
C728 C 0.89486 0.2367 0.78546 0.0
C729 C 0.88098 0.21817 0.76689 0.0
C730 C 0.9145 0.23134 0.79897 0.0
C731 C 0.92041 0.20681 0.79386 0.0
C732 C 0.90688 0.18818 0.77485 0.0
C733 C 0.88734 0.19409 0.76157 0.0
C734 C 0.92855 0.25178 0.81907 0.0
C735 C 0.91272 0.16188 0.76879 0.0
C736 C 0.98615 0.20443 0.82019 0.0
C737 C 0.97967 0.19706 0.84078 0.0
C738 C 0.96693 0.20638 0.80413 0.0
C739 C 0.94057 0.20081 0.80873 0.0
C740 C 0.93376 0.19171 0.82871 0.0
C741 C 0.95339 0.18992 0.84449 0.0
C742 C 0.975 0.21595 0.78296 0.0
C743 C 0.90581 0.18533 0.83411 0.0
H744 H 0.88979 0.25519 0.78993 0.0
H745 H 0.87686 0.17976 0.7471 0.0
H746 H 0.92515 0.24526 0.83531 0.0
H747 H 0.94977 0.25536 0.81745 0.0
H748 H 0.92212 0.27006 0.82037 0.0
H749 H 0.90105 0.14984 0.75302 0.0
H750 H 0.9336 0.16333 0.76616 0.0
H751 H 0.90863 0.15214 0.78321 0.0
H752 H 0.00638 0.20979 0.81702 0.0
H753 H 0.94815 0.18413 0.86029 0.0
H754 H 0.97146 0.23546 0.78442 0.0
H755 H 0.96326 0.20361 0.76738 0.0
H756 H 0.99587 0.21663 0.78056 0.0
H757 H 0.8983 0.20309 0.83817 0.0
H758 H 0.90353 0.17599 0.84896 0.0
H759 H 0.89363 0.17253 0.81898 0.0
C760 C 0.5497 0.9166 0.4391 0.0
C761 C 0.55901 0.93152 0.46098 0.0
C762 C 0.54945 0.89043 0.43369 0.0
C763 C 0.55912 0.87902 0.45049 0.0
C764 C 0.56859 0.89402 0.47263 0.0
C765 C 0.56821 0.92011 0.47769 0.0
C766 C 0.53877 0.875 0.41 0.0
C767 C 0.57939 0.88257 0.49085 0.0
C768 C 0.53708 0.80702 0.43965 0.0
C769 C 0.55732 0.79898 0.42768 0.0
C770 C 0.53783 0.83305 0.44797 0.0
C771 C 0.55952 0.85142 0.44457 0.0
C772 C 0.58067 0.84335 0.4337 0.0
C773 C 0.57922 0.81723 0.42521 0.0
C774 C 0.51476 0.84092 0.45924 0.0
C775 C 0.60435 0.86236 0.43014 0.0
H776 H 0.54227 0.92538 0.42628 0.0
H777 H 0.57552 0.93173 0.49459 0.0
H778 H 0.55414 0.86668 0.40115 0.0
H779 H 0.52281 0.85889 0.41137 0.0
H780 H 0.53127 0.88663 0.39917 0.0
H781 H 0.58586 0.89682 0.50725 0.0
H782 H 0.56451 0.86665 0.49426 0.0
H783 H 0.59613 0.87449 0.48466 0.0
H784 H 0.52005 0.79303 0.44156 0.0
H785 H 0.59503 0.81113 0.41617 0.0
H786 H 0.50491 0.85063 0.44806 0.0
H787 H 0.52114 0.85472 0.47586 0.0
H788 H 0.50045 0.82435 0.46236 0.0
H789 H 0.59907 0.87319 0.41755 0.0
H790 H 0.6202 0.85297 0.42366 0.0
H791 H 0.61175 0.87635 0.44648 0.0
C792 C 0.23212 0.21691 0.81547 0.0
C793 C 0.23204 0.19441 0.79928 0.0
C794 C 0.21053 0.21958 0.828 0.0
C795 C 0.18817 0.19948 0.82378 0.0
C796 C 0.18822 0.17653 0.80772 0.0
C797 C 0.21028 0.17419 0.79581 0.0
C798 C 0.2114 0.24415 0.84529 0.0
C799 C 0.16458 0.15489 0.80237 0.0
C800 C 0.13531 0.19927 0.86535 0.0
C801 C 0.11812 0.2109 0.85501 0.0
C802 C 0.15841 0.19564 0.85555 0.0
C803 C 0.16402 0.20327 0.83469 0.0
C804 C 0.14646 0.21461 0.82403 0.0
C805 C 0.12389 0.21853 0.83445 0.0
C806 C 0.17695 0.18393 0.86761 0.0
C807 C 0.15144 0.22254 0.80153 0.0
H808 H 0.24908 0.23245 0.81827 0.0
H809 H 0.21018 0.15687 0.78313 0.0
H810 H 0.19748 0.25453 0.83919 0.0
H811 H 0.20544 0.24003 0.86198 0.0
H812 H 0.23103 0.25686 0.84815 0.0
H813 H 0.16828 0.13781 0.7904 0.0
H814 H 0.15809 0.14934 0.8184 0.0
H815 H 0.14838 0.16123 0.79446 0.0
H816 H 0.13095 0.19348 0.88132 0.0
H817 H 0.11054 0.22734 0.82628 0.0
H818 H 0.19617 0.19729 0.87162 0.0
H819 H 0.17988 0.1662 0.85617 0.0
H820 H 0.16988 0.17929 0.88383 0.0
H821 H 0.16969 0.23725 0.80362 0.0
H822 H 0.13542 0.23037 0.79515 0.0
H823 H 0.1539 0.20593 0.78826 0.0
C824 C 0.56319 0.60873 0.52384 0.0
C825 C 0.58427 0.62374 0.53898 0.0
C826 C 0.5562 0.61568 0.50342 0.0
C827 C 0.57018 0.63851 0.49832 0.0
C828 C 0.59232 0.65291 0.51283 0.0
C829 C 0.59932 0.64511 0.53271 0.0
C830 C 0.53298 0.59934 0.488 0.0
C831 C 0.60764 0.67754 0.50823 0.0
C832 C 0.56209 0.65779 0.44113 0.0
C833 C 0.54452 0.67385 0.44597 0.0
C834 C 0.56965 0.645 0.45757 0.0
C835 C 0.56005 0.64907 0.47956 0.0
C836 C 0.54192 0.66489 0.48431 0.0
C837 C 0.53413 0.67678 0.46737 0.0
C838 C 0.58831 0.6276 0.45159 0.0
C839 C 0.53159 0.67021 0.50767 0.0
H840 H 0.55131 0.59222 0.5284 0.0
H841 H 0.61615 0.6564 0.54384 0.0
H842 H 0.51632 0.60885 0.4902 0.0
H843 H 0.53713 0.59692 0.46969 0.0
H844 H 0.52716 0.5802 0.49203 0.0
H845 H 0.62527 0.68564 0.52035 0.0
H846 H 0.6136 0.67448 0.49044 0.0
H847 H 0.59524 0.69181 0.50986 0.0
H848 H 0.57002 0.65533 0.42453 0.0
H849 H 0.52065 0.68927 0.47127 0.0
H850 H 0.58106 0.6091 0.45642 0.0
H851 H 0.60736 0.63636 0.46146 0.0
H852 H 0.59133 0.6239 0.43298 0.0
H853 H 0.52215 0.65207 0.51216 0.0
H854 H 0.5173 0.68263 0.50846 0.0
H855 H 0.54788 0.67969 0.52094 0.0
C856 C 0.88781 0.86619 0.81938 0.0
C857 C 0.86788 0.84506 0.81956 0.0
C858 C 0.90514 0.86536 0.80209 0.0
C859 C 0.90214 0.84299 0.7845 0.0
C860 C 0.88127 0.82207 0.78411 0.0
C861 C 0.86453 0.82329 0.80175 0.0
C862 C 0.92728 0.88793 0.80322 0.0
C863 C 0.87712 0.79803 0.76546 0.0
C864 C 0.93479 0.84266 0.72888 0.0
C865 C 0.95506 0.8304 0.73237 0.0
C866 C 0.91792 0.84775 0.74601 0.0
C867 C 0.92155 0.84065 0.76721 0.0
C868 C 0.94271 0.82941 0.77123 0.0
C869 C 0.95911 0.8243 0.75374 0.0
C870 C 0.89549 0.85961 0.74102 0.0
C871 C 0.94745 0.82186 0.79373 0.0
H872 H 0.8905 0.88294 0.83329 0.0
H873 H 0.84898 0.80703 0.80185 0.0
H874 H 0.94595 0.88247 0.80663 0.0
H875 H 0.92792 0.89381 0.78651 0.0
H876 H 0.92576 0.90456 0.81693 0.0
H877 H 0.85893 0.78427 0.76672 0.0
H878 H 0.87639 0.80275 0.74828 0.0
H879 H 0.89366 0.78856 0.76663 0.0
H880 H 0.93148 0.84743 0.71243 0.0
H881 H 0.97484 0.81503 0.75667 0.0
H882 H 0.89486 0.87618 0.75509 0.0
H883 H 0.87697 0.84548 0.7401 0.0
H884 H 0.89665 0.86605 0.72455 0.0
H885 H 0.94786 0.83817 0.80836 0.0
H886 H 0.96598 0.81539 0.79488 0.0
H887 H 0.93134 0.80615 0.79564 0.0
C888 C 0.04776 0.86939 0.52587 0.0
C889 C 0.0629 0.89295 0.52406 0.0
C890 C 0.03989 0.86504 0.54712 0.0
C891 C 0.04717 0.8848 0.56711 0.0
C892 C 0.062 0.90882 0.56539 0.0
C893 C 0.06973 0.91261 0.54387 0.0
C894 C 0.02397 0.83916 0.54818 0.0
C895 C 0.07001 0.93035 0.58631 0.0
C896 C 0.00497 0.87408 0.6155 0.0
C897 C 0.01951 0.86165 0.62781 0.0
C898 C 0.01452 0.88335 0.59657 0.0
C899 C 0.03914 0.87995 0.5897 0.0
C900 C 0.05467 0.86906 0.60304 0.0
C901 C 0.0447 0.86011 0.62202 0.0
C902 C 0.99749 0.89517 0.583 0.0
C903 C 0.08106 0.86516 0.59632 0.0
H904 H 0.04205 0.85425 0.5106 0.0
H905 H 0.08167 0.93077 0.54265 0.0
H906 H 0.03432 0.83048 0.55993 0.0
H907 H 0.00519 0.84122 0.55519 0.0
H908 H 0.01995 0.82586 0.53105 0.0
H909 H 0.08063 0.94818 0.58193 0.0
H910 H 0.05268 0.93432 0.59507 0.0
H911 H 0.08267 0.92475 0.59876 0.0
H912 H 0.98557 0.87556 0.61999 0.0
H913 H 0.05608 0.85056 0.63146 0.0
H914 H 0.99013 0.88177 0.56634 0.0
H915 H 0.00876 0.91298 0.57913 0.0
H916 H 0.98059 0.89959 0.59228 0.0
H917 H 0.07872 0.85001 0.58039 0.0
H918 H 0.09197 0.85942 0.60994 0.0
H919 H 0.09277 0.88285 0.59259 0.0
C920 C 0.18417 0.74644 0.71149 0.0
C921 C 0.19834 0.75547 0.73302 0.0
C922 C 0.16041 0.75306 0.7072 0.0
C923 C 0.15063 0.76925 0.72483 0.0
C924 C 0.16502 0.77875 0.74651 0.0
C925 C 0.18865 0.77163 0.75039 0.0
C926 C 0.14552 0.74228 0.68393 0.0
C927 C 0.15534 0.79622 0.76566 0.0
C928 C 0.09763 0.80041 0.70598 0.0
C929 C 0.07517 0.78408 0.71035 0.0
C930 C 0.12241 0.79627 0.7112 0.0
C931 C 0.12474 0.77519 0.72081 0.0
C932 C 0.10216 0.75897 0.72567 0.0
C933 C 0.0777 0.76367 0.72047 0.0
C934 C 0.14607 0.81413 0.70598 0.0
C935 C 0.10377 0.73618 0.73576 0.0
H936 H 0.19142 0.73371 0.6981 0.0
H937 H 0.19969 0.77888 0.76697 0.0
H938 H 0.1265 0.73023 0.68588 0.0
H939 H 0.14153 0.75798 0.67618 0.0
H940 H 0.15616 0.73055 0.67188 0.0
H941 H 0.16938 0.80286 0.78115 0.0
H942 H 0.15154 0.81313 0.75972 0.0
H943 H 0.1367 0.78615 0.77059 0.0
H944 H 0.09585 0.81627 0.69823 0.0
H945 H 0.06048 0.75092 0.72392 0.0
H946 H 0.15624 0.80359 0.69258 0.0
H947 H 0.15989 0.8216 0.72155 0.0
H948 H 0.14108 0.83051 0.69985 0.0
H949 H 0.11259 0.72262 0.72374 0.0
H950 H 0.08444 0.72593 0.73924 0.0
H951 H 0.11647 0.7423 0.75206 0.0
C952 C 0.9216 0.63704 0.54578 0.0
C953 C 0.94059 0.63561 0.53005 0.0
C954 C 0.92532 0.65698 0.56539 0.0
C955 C 0.94855 0.67596 0.56931 0.0
C956 C 0.96773 0.67469 0.55345 0.0
C957 C 0.96353 0.65452 0.53404 0.0
C958 C 0.90442 0.65775 0.5819 0.0
C959 C 0.99276 0.6946 0.55705 0.0
C960 C 0.95192 0.74111 0.60779 0.0
C961 C 0.96571 0.73934 0.62778 0.0
C962 C 0.94548 0.72035 0.58887 0.0
C963 C 0.95293 0.69723 0.58998 0.0
C964 C 0.96588 0.69494 0.61042 0.0
C965 C 0.97213 0.71602 0.62908 0.0
C966 C 0.93161 0.7235 0.56737 0.0
C967 C 0.97398 0.67051 0.61229 0.0
H968 H 0.90366 0.62269 0.54261 0.0
H969 H 0.9784 0.65335 0.52209 0.0
H970 H 0.91242 0.65747 0.59929 0.0
H971 H 0.8975 0.67576 0.58335 0.0
H972 H 0.88755 0.64143 0.57643 0.0
H973 H 0.0056 0.69096 0.54299 0.0
H974 H 0.98853 0.71379 0.55812 0.0
H975 H 0.00343 0.69501 0.57357 0.0
H976 H 0.94682 0.75901 0.60661 0.0
H977 H 0.9827 0.71441 0.64446 0.0
H978 H 0.91414 0.70789 0.56188 0.0
H979 H 0.94455 0.72225 0.55318 0.0
H980 H 0.92557 0.74208 0.56983 0.0
H981 H 0.95713 0.65412 0.60757 0.0
H982 H 0.9823 0.67124 0.62987 0.0
H983 H 0.98874 0.66683 0.60003 0.0
C984 C 0.83464 0.81704 0.27017 0.0
C985 C 0.81774 0.80475 0.25064 0.0
C986 C 0.84205 0.84378 0.27616 0.0
C987 C 0.8321 0.85842 0.26235 0.0
C988 C 0.81354 0.84609 0.24361 0.0
C989 C 0.80666 0.81937 0.23792 0.0
C990 C 0.86188 0.85626 0.29629 0.0
C991 C 0.80222 0.86099 0.22865 0.0
C992 C 0.84566 0.9304 0.28469 0.0
C993 C 0.86811 0.9383 0.27394 0.0
C994 C 0.83324 0.90448 0.2807 0.0
C995 C 0.84358 0.88614 0.26568 0.0
C996 C 0.86559 0.89412 0.2541 0.0
C997 C 0.87751 0.92007 0.25832 0.0
C998 C 0.80962 0.89666 0.29311 0.0
C999 C 0.87712 0.87515 0.23782 0.0
H1000 H 0.84325 0.80572 0.27996 0.0
H1001 H 0.7933 0.80981 0.22296 0.0
H1002 H 0.8805 0.86432 0.28989 0.0
H1003 H 0.85548 0.87228 0.30751 0.0
H1004 H 0.86546 0.84256 0.30678 0.0
H1005 H 0.78546 0.84893 0.2169 0.0
H1006 H 0.79584 0.87736 0.23935 0.0
H1007 H 0.81732 0.86885 0.2181 0.0
H1008 H 0.83824 0.94433 0.29679 0.0
H1009 H 0.89475 0.92595 0.24983 0.0
H1010 H 0.81428 0.88534 0.3055 0.0
H1011 H 0.79359 0.88431 0.28075 0.0
H1012 H 0.8027 0.91338 0.30264 0.0
H1013 H 0.88375 0.8618 0.24722 0.0
H1014 H 0.89387 0.88456 0.22972 0.0
H1015 H 0.86221 0.86359 0.22402 0.0
C1016 C 0.79612 0.15488 0.28757 0.0
C1017 C 0.80417 0.17815 0.3036 0.0
C1018 C 0.80892 0.13475 0.28739 0.0
C1019 C 0.83038 0.13801 0.30355 0.0
C1020 C 0.83894 0.16165 0.31945 0.0
C1021 C 0.82569 0.1814 0.31933 0.0
C1022 C 0.79907 0.10978 0.27028 0.0
C1023 C 0.86186 0.16596 0.33684 0.0
C1024 C 0.84588 0.07888 0.31977 0.0
C1025 C 0.86662 0.07474 0.30655 0.0
C1026 C 0.83395 0.09936 0.31891 0.0
C1027 C 0.84305 0.11628 0.30458 0.0
C1028 C 0.86408 0.11233 0.29127 0.0
C1029 C 0.87557 0.09155 0.29236 0.0
C1030 C 0.81151 0.10282 0.33328 0.0
C1031 C 0.87441 0.13006 0.2759 0.0
H1032 H 0.77936 0.15217 0.27552 0.0
H1033 H 0.83221 0.19947 0.33154 0.0
H1034 H 0.815 0.10434 0.26015 0.0
H1035 H 0.79219 0.09441 0.27953 0.0
H1036 H 0.78287 0.11068 0.25823 0.0
H1037 H 0.86684 0.18583 0.34727 0.0
H1038 H 0.85753 0.1527 0.3486 0.0
H1039 H 0.87909 0.1618 0.328 0.0
H1040 H 0.83878 0.06599 0.33076 0.0
H1041 H 0.89161 0.08852 0.28213 0.0
H1042 H 0.79404 0.10219 0.32203 0.0
H1043 H 0.81618 0.1218 0.34528 0.0
H1044 H 0.8067 0.08792 0.34345 0.0
H1045 H 0.85883 0.1301 0.26289 0.0
H1046 H 0.89106 0.12454 0.26685 0.0
H1047 H 0.88074 0.14988 0.2862 0.0
C1048 C 0.39077 0.03508 0.97699 0.0
C1049 C 0.40932 0.05044 0.99441 0.0
C1050 C 0.37576 0.01183 0.97975 0.0
C1051 C 0.37876 0.00406 0.00071 0.0
C1052 C 0.39802 0.01893 0.01803 0.0
C1053 C 0.41336 0.04166 0.01451 0.0
C1054 C 0.3559 0.99612 0.96059 0.0
C1055 C 0.40154 0.01152 0.04078 0.0
C1056 C 0.31843 0.96314 0.01696 0.0
C1057 C 0.32433 0.93892 0.01237 0.0
C1058 C 0.33632 0.98459 0.01384 0.0
C1059 C 0.36034 0.98156 0.00518 0.0
C1060 C 0.36639 0.9571 0.00047 0.0
C1061 C 0.34844 0.93609 0.00449 0.0
C1062 C 0.32944 0.01046 0.01971 0.0
C1063 C 0.39145 0.95301 0.99057 0.0
H1064 H 0.38715 0.04163 0.96148 0.0
H1065 H 0.42812 0.05291 0.02784 0.0
H1066 H 0.35732 0.97579 0.95719 0.0
H1067 H 0.3361 0.99701 0.96575 0.0
H1068 H 0.3583 0.00301 0.94439 0.0
H1069 H 0.41833 0.02438 0.05198 0.0
H1070 H 0.38375 0.01222 0.04998 0.0
H1071 H 0.40437 0.99167 0.03804 0.0
H1072 H 0.29984 0.96535 0.02321 0.0
H1073 H 0.35288 0.91728 0.00071 0.0
H1074 H 0.32813 0.01804 0.00396 0.0
H1075 H 0.34489 0.02414 0.03183 0.0
H1076 H 0.31068 0.00976 0.02759 0.0
H1077 H 0.39239 0.95842 0.97365 0.0
H1078 H 0.39341 0.93287 0.98823 0.0
H1079 H 0.40828 0.96544 0.00192 0.0
C1080 C 0.27986 0.43401 0.33607 0.0
C1081 C 0.27226 0.42471 0.35548 0.0
C1082 C 0.2634 0.44543 0.32446 0.0
C1083 C 0.23876 0.44726 0.33238 0.0
C1084 C 0.23039 0.43628 0.35102 0.0
C1085 C 0.24731 0.42527 0.36241 0.0
C1086 C 0.27308 0.457 0.30473 0.0
C1087 C 0.20417 0.43751 0.35984 0.0
C1088 C 0.21081 0.50445 0.32715 0.0
C1089 C 0.19142 0.49411 0.30899 0.0
C1090 C 0.22677 0.48953 0.33438 0.0
C1091 C 0.22315 0.46347 0.32336 0.0
C1092 C 0.20387 0.45291 0.30478 0.0
C1093 C 0.18827 0.46842 0.29771 0.0
C1094 C 0.24724 0.50163 0.35415 0.0
C1095 C 0.19933 0.42516 0.29274 0.0
H1096 H 0.29918 0.43361 0.33073 0.0
H1097 H 0.2413 0.41773 0.37725 0.0
H1098 H 0.25799 0.45156 0.29007 0.0
H1099 H 0.27739 0.47812 0.31027 0.0
H1100 H 0.29099 0.45103 0.29873 0.0
H1101 H 0.19936 0.4254 0.37253 0.0
H1102 H 0.20401 0.45751 0.36824 0.0
H1103 H 0.18875 0.43134 0.34543 0.0
H1104 H 0.21357 0.52433 0.33583 0.0
H1105 H 0.17335 0.46033 0.28365 0.0
H1106 H 0.26653 0.49866 0.349 0.0
H1107 H 0.24285 0.49242 0.36885 0.0
H1108 H 0.24844 0.52245 0.36007 0.0
H1109 H 0.21773 0.42045 0.28674 0.0
H1110 H 0.18462 0.42022 0.27778 0.0
H1111 H 0.19264 0.41298 0.30498 0.0
C1112 C 0.15576 0.00772 0.47698 0.0
C1113 C 0.13742 0.00195 0.45798 0.0
C1114 C 0.17956 0.02483 0.47756 0.0
C1115 C 0.18501 0.03653 0.45874 0.0
C1116 C 0.16698 0.03011 0.43918 0.0
C1117 C 0.14345 0.01278 0.43899 0.0
C1118 C 0.19845 0.0311 0.49865 0.0
C1119 C 0.1721 0.04224 0.41882 0.0
C1120 C 0.23067 0.10148 0.47245 0.0
C1121 C 0.25399 0.09553 0.46503 0.0
C1122 C 0.20798 0.08248 0.47008 0.0
C1123 C 0.2087 0.05686 0.46025 0.0
C1124 C 0.23203 0.05075 0.45232 0.0
C1125 C 0.25442 0.07022 0.4547 0.0
C1126 C 0.18335 0.08978 0.47846 0.0
C1127 C 0.23348 0.02359 0.44188 0.0
H1128 H 0.15115 0.99951 0.49175 0.0
H1129 H 0.12959 0.00795 0.42403 0.0
H1130 H 0.21801 0.02888 0.49369 0.0
H1131 H 0.2002 0.0513 0.50759 0.0
H1132 H 0.19227 0.01878 0.51093 0.0
H1133 H 0.15682 0.03398 0.40437 0.0
H1134 H 0.173 0.06305 0.4241 0.0
H1135 H 0.19114 0.03986 0.41256 0.0
H1136 H 0.23015 0.12102 0.48033 0.0
H1137 H 0.27242 0.06548 0.44903 0.0
H1138 H 0.17697 0.08012 0.4925 0.0
H1139 H 0.16757 0.08333 0.46434 0.0
H1140 H 0.18586 0.1107 0.48494 0.0
H1141 H 0.22929 0.01168 0.45478 0.0
H1142 H 0.25285 0.02215 0.43581 0.0
H1143 H 0.21858 0.01542 0.42717 0.0
C1144 C 0.76658 0.19987 0.7475 0.0
C1145 C 0.78792 0.19205 0.73735 0.0
C1146 C 0.74429 0.1819 0.7497 0.0
C1147 C 0.74335 0.15558 0.74137 0.0
C1148 C 0.76417 0.14775 0.72973 0.0
C1149 C 0.78629 0.1661 0.72798 0.0
C1150 C 0.72254 0.19098 0.7623 0.0
C1151 C 0.76374 0.11989 0.72032 0.0
C1152 C 0.70489 0.10808 0.77202 0.0
C1153 C 0.68232 0.09803 0.75708 0.0
C1154 C 0.72466 0.1271 0.76724 0.0
C1155 C 0.72194 0.13615 0.74689 0.0
C1156 C 0.69915 0.12626 0.7318 0.0
C1157 C 0.67953 0.1074 0.73712 0.0
C1158 C 0.74861 0.13734 0.78388 0.0
C1159 C 0.69569 0.13531 0.70986 0.0
H1160 H 0.76792 0.21991 0.75498 0.0
H1161 H 0.80275 0.16009 0.71999 0.0
H1162 H 0.70354 0.18186 0.75246 0.0
H1163 H 0.72202 0.18538 0.77913 0.0
H1164 H 0.72493 0.21204 0.7654 0.0
H1165 H 0.78 0.1172 0.70948 0.0
H1166 H 0.76521 0.11021 0.73475 0.0
H1167 H 0.74515 0.11034 0.70994 0.0
H1168 H 0.70717 0.10107 0.78752 0.0
H1169 H 0.6622 0.09968 0.72543 0.0
H1170 H 0.75159 0.15838 0.78962 0.0
H1171 H 0.76597 0.13328 0.77522 0.0
H1172 H 0.74735 0.12886 0.79928 0.0
H1173 H 0.69763 0.15631 0.71375 0.0
H1174 H 0.67652 0.12617 0.70025 0.0
H1175 H 0.71115 0.131 0.6986 0.0
C1176 C 0.45736 0.04145 0.52747 0.0
C1177 C 0.48298 0.04763 0.52175 0.0
C1178 C 0.43901 0.05508 0.52201 0.0
C1179 C 0.44668 0.0756 0.51096 0.0
C1180 C 0.47286 0.08264 0.50618 0.0
C1181 C 0.49065 0.0684 0.51144 0.0
C1182 C 0.41119 0.04676 0.52709 0.0
C1183 C 0.4819 0.10468 0.49481 0.0
C1184 C 0.39617 0.09093 0.47227 0.0
C1185 C 0.38919 0.11181 0.48655 0.0
C1186 C 0.41471 0.07893 0.48011 0.0
C1187 C 0.42695 0.0883 0.50267 0.0
C1188 C 0.42035 0.10967 0.51706 0.0
C1189 C 0.40135 0.12105 0.50889 0.0
C1190 C 0.42096 0.05598 0.46433 0.0
C1191 C 0.43334 0.12045 0.54106 0.0
H1192 H 0.45145 0.02529 0.53535 0.0
H1193 H 0.51057 0.07332 0.50726 0.0
H1194 H 0.40415 0.06324 0.53684 0.0
H1195 H 0.3987 0.03941 0.5107 0.0
H1196 H 0.40875 0.03158 0.53708 0.0
H1197 H 0.50332 0.10923 0.49433 0.0
H1198 H 0.47284 0.09996 0.47692 0.0
H1199 H 0.47574 0.12196 0.50403 0.0
H1200 H 0.38671 0.08356 0.45505 0.0
H1201 H 0.39605 0.13722 0.51998 0.0
H1202 H 0.41716 0.0393 0.47249 0.0
H1203 H 0.44185 0.05982 0.46133 0.0
H1204 H 0.40938 0.05082 0.44743 0.0
H1205 H 0.42948 0.10577 0.55151 0.0
H1206 H 0.4265 0.13754 0.54986 0.0
H1207 H 0.45468 0.12575 0.54043 0.0
C1208 C 0.63221 0.50922 0.57691 0.0
C1209 C 0.60543 0.50139 0.57823 0.0
C1210 C 0.64724 0.49162 0.56819 0.0
C1211 C 0.63524 0.46547 0.5605 0.0
C1212 C 0.60824 0.45736 0.5619 0.0
C1213 C 0.59366 0.47541 0.57081 0.0
C1214 C 0.676 0.50106 0.56713 0.0
C1215 C 0.59472 0.42969 0.55374 0.0
C1216 C 0.67233 0.42808 0.51776 0.0
C1217 C 0.68597 0.41675 0.53192 0.0
C1218 C 0.65486 0.44302 0.52666 0.0
C1219 C 0.65102 0.44691 0.55036 0.0
C1220 C 0.66388 0.43464 0.56457 0.0
C1221 C 0.68115 0.41962 0.55516 0.0
C1222 C 0.64139 0.45556 0.51086 0.0
C1223 C 0.66032 0.43834 0.58993 0.0
H1224 H 0.64154 0.52917 0.58304 0.0
H1225 H 0.57295 0.46926 0.57169 0.0
H1226 H 0.68711 0.49089 0.57684 0.0
H1227 H 0.68096 0.49692 0.54905 0.0
H1228 H 0.68245 0.52191 0.5743 0.0
H1229 H 0.57375 0.42636 0.55657 0.0
H1230 H 0.5967 0.42328 0.53513 0.0
H1231 H 0.60398 0.41762 0.56284 0.0
H1232 H 0.67579 0.42583 0.49975 0.0
H1233 H 0.69162 0.41095 0.56622 0.0
H1234 H 0.64865 0.47655 0.51574 0.0
H1235 H 0.6202 0.45167 0.51259 0.0
H1236 H 0.64468 0.44885 0.49255 0.0
H1237 H 0.66869 0.45848 0.59862 0.0
H1238 H 0.66986 0.42576 0.5982 0.0
H1239 H 0.63938 0.43446 0.59274 0.0
C1240 C 0.73767 0.2424 0.35394 0.0
C1241 C 0.76331 0.24561 0.34797 0.0
C1242 C 0.7317 0.25564 0.37517 0.0
C1243 C 0.75181 0.27289 0.39037 0.0
C1244 C 0.77772 0.27632 0.38416 0.0
C1245 C 0.78318 0.26237 0.36312 0.0
C1246 C 0.70398 0.25104 0.38141 0.0
C1247 C 0.79965 0.29489 0.39965 0.0
C1248 C 0.73828 0.32713 0.43584 0.0
C1249 C 0.74314 0.319 0.45608 0.0
C1250 C 0.73996 0.31184 0.4142 0.0
C1251 C 0.74602 0.28759 0.41276 0.0
C1252 C 0.749 0.27851 0.43305 0.0
C1253 C 0.74787 0.29447 0.4545 0.0
C1254 C 0.73707 0.3224 0.39302 0.0
C1255 C 0.75475 0.25249 0.43221 0.0
H1256 H 0.7224 0.22929 0.34211 0.0
H1257 H 0.80297 0.26481 0.35829 0.0
H1258 H 0.70287 0.24446 0.39779 0.0
H1259 H 0.69699 0.2691 0.38415 0.0
H1260 H 0.69073 0.23657 0.3679 0.0
H1261 H 0.81854 0.29587 0.39195 0.0
H1262 H 0.79541 0.31427 0.40332 0.0
H1263 H 0.80154 0.28922 0.41632 0.0
H1264 H 0.73482 0.34615 0.43694 0.0
H1265 H 0.75146 0.28802 0.47009 0.0
H1266 H 0.72334 0.30838 0.37964 0.0
H1267 H 0.75611 0.32608 0.38571 0.0
H1268 H 0.7301 0.34051 0.39681 0.0
H1269 H 0.74134 0.23781 0.41903 0.0
H1270 H 0.75305 0.24693 0.44905 0.0
H1271 H 0.77478 0.25248 0.42726 0.0
C1272 C 0.50461 0.11224 0.88691 0.0
C1273 C 0.48561 0.09625 0.89614 0.0
C1274 C 0.52178 0.10222 0.87219 0.0
C1275 C 0.51988 0.07551 0.86643 0.0
C1276 C 0.50111 0.05926 0.87607 0.0
C1277 C 0.48423 0.06985 0.89092 0.0
C1278 C 0.54168 0.12024 0.86247 0.0
C1279 C 0.49845 0.03069 0.87025 0.0
C1280 C 0.54701 0.05249 0.80994 0.0
C1281 C 0.57197 0.05061 0.81731 0.0
C1282 C 0.52941 0.05942 0.82579 0.0
C1283 C 0.53699 0.06477 0.84962 0.0
C1284 C 0.56175 0.06193 0.85721 0.0
C1285 C 0.57892 0.05481 0.84096 0.0
C1286 C 0.5031 0.06204 0.81702 0.0
C1287 C 0.57054 0.06751 0.88248 0.0
H1288 H 0.50602 0.13269 0.89123 0.0
H1289 H 0.46949 0.05744 0.89795 0.0
H1290 H 0.56144 0.1174 0.86646 0.0
H1291 H 0.53809 0.1161 0.84348 0.0
H1292 H 0.54127 0.14057 0.86937 0.0
H1293 H 0.48381 0.02082 0.8801 0.0
H1294 H 0.49264 0.0232 0.85163 0.0
H1295 H 0.51738 0.02582 0.87383 0.0
H1296 H 0.54134 0.04907 0.79171 0.0
H1297 H 0.59813 0.05335 0.84685 0.0
H1298 H 0.50178 0.08239 0.82142 0.0
H1299 H 0.48757 0.05127 0.8254 0.0
H1300 H 0.49934 0.05506 0.79809 0.0
H1301 H 0.57274 0.0882 0.88992 0.0
H1302 H 0.58936 0.06217 0.8856 0.0
H1303 H 0.55578 0.05709 0.89181 0.0
C1304 C 0.36773 0.30175 0.38905 0.0
C1305 C 0.34483 0.30737 0.38084 0.0
C1306 C 0.36688 0.2825 0.40144 0.0
C1307 C 0.34254 0.26828 0.4053 0.0
C1308 C 0.31937 0.27358 0.39663 0.0
C1309 C 0.3208 0.29327 0.38468 0.0
C1310 C 0.39198 0.27773 0.41079 0.0
C1311 C 0.29306 0.25855 0.40005 0.0
C1312 C 0.33905 0.2039 0.42074 0.0
C1313 C 0.33617 0.20977 0.44438 0.0
C1314 C 0.34133 0.22279 0.4078 0.0
C1315 C 0.34124 0.24823 0.41887 0.0
C1316 C 0.33914 0.25441 0.44286 0.0
C1317 C 0.33638 0.23506 0.45529 0.0
C1318 C 0.34312 0.21541 0.38219 0.0
C1319 C 0.33948 0.28142 0.45536 0.0
H1320 H 0.38631 0.31286 0.38624 0.0
H1321 H 0.30312 0.29754 0.37816 0.0
H1322 H 0.39265 0.281 0.42981 0.0
H1323 H 0.39312 0.25757 0.40421 0.0
H1324 H 0.40928 0.2903 0.40608 0.0
H1325 H 0.27697 0.26433 0.39136 0.0
H1326 H 0.29179 0.23787 0.39329 0.0
H1327 H 0.29031 0.26127 0.41866 0.0
H1328 H 0.33874 0.18436 0.41219 0.0
H1329 H 0.33434 0.23976 0.47359 0.0
H1330 H 0.36089 0.22704 0.37729 0.0
H1331 H 0.32629 0.21938 0.37294 0.0
H1332 H 0.34346 0.1949 0.37628 0.0
H1333 H 0.3571 0.29457 0.45196 0.0
H1334 H 0.33911 0.2833 0.47423 0.0
H1335 H 0.32243 0.2877 0.44892 0.0
C1336 C 0.52107 0.47045 0.91269 0.0
C1337 C 0.53669 0.48914 0.93016 0.0
C1338 C 0.50343 0.47692 0.89793 0.0
C1339 C 0.5015 0.50274 0.90059 0.0
C1340 C 0.51647 0.52155 0.91872 0.0
C1341 C 0.53381 0.51451 0.93335 0.0
C1342 C 0.48763 0.45626 0.87889 0.0
C1343 C 0.51495 0.54926 0.9221 0.0
C1344 C 0.47951 0.51874 0.84526 0.0
C1345 C 0.45291 0.5171 0.84742 0.0
C1346 C 0.49581 0.51543 0.86299 0.0
C1347 C 0.48521 0.51012 0.88331 0.0
C1348 C 0.4587 0.50991 0.88617 0.0
C1349 C 0.44286 0.51354 0.86821 0.0
C1350 C 0.52411 0.51625 0.85944 0.0
C1351 C 0.44671 0.50431 0.90759 0.0
H1352 H 0.52335 0.45088 0.90993 0.0
H1353 H 0.5455 0.52899 0.94707 0.0
H1354 H 0.46676 0.45684 0.87915 0.0
H1355 H 0.49377 0.45956 0.862 0.0
H1356 H 0.48988 0.4369 0.88026 0.0
H1357 H 0.52624 0.56116 0.93812 0.0
H1358 H 0.52263 0.55688 0.90731 0.0
H1359 H 0.49448 0.5512 0.9227 0.0
H1360 H 0.48747 0.52171 0.82933 0.0
H1361 H 0.42231 0.51218 0.87 0.0
H1362 H 0.52806 0.4969 0.85807 0.0
H1363 H 0.53658 0.52908 0.87439 0.0
H1364 H 0.52979 0.5229 0.84363 0.0
H1365 H 0.44592 0.48404 0.90805 0.0
H1366 H 0.42671 0.50775 0.90831 0.0
H1367 H 0.45874 0.5162 0.9232 0.0
C1368 C 0.82531 0.70895 0.17714 0.0
C1369 C 0.81668 0.73164 0.18476 0.0
C1370 C 0.82713 0.69944 0.15367 0.0
C1371 C 0.82108 0.7134 0.13748 0.0
C1372 C 0.8133 0.73673 0.14506 0.0
C1373 C 0.81063 0.74524 0.16846 0.0
C1374 C 0.83475 0.67409 0.14613 0.0
C1375 C 0.80718 0.75247 0.12838 0.0
C1376 C 0.84255 0.69925 0.07695 0.0
C1377 C 0.81896 0.68648 0.0644 0.0
C1378 C 0.8437 0.70798 0.10091 0.0
C1379 C 0.82093 0.70286 0.11245 0.0
C1380 C 0.79736 0.6889 0.09984 0.0
C1381 C 0.79658 0.68133 0.0759 0.0
C1382 C 0.86894 0.72357 0.11371 0.0
C1383 C 0.77286 0.68231 0.11156 0.0
H1384 H 0.83056 0.69846 0.18948 0.0
H1385 H 0.80329 0.76241 0.17383 0.0
H1386 H 0.81862 0.66033 0.13485 0.0
H1387 H 0.85183 0.67622 0.13592 0.0
H1388 H 0.83943 0.66587 0.16091 0.0
H1389 H 0.80435 0.7715 0.13729 0.0
H1390 H 0.82306 0.75525 0.11692 0.0
H1391 H 0.78921 0.74229 0.11734 0.0
H1392 H 0.8598 0.70325 0.06792 0.0
H1393 H 0.77842 0.67111 0.06612 0.0
H1394 H 0.87432 0.71516 0.12811 0.0
H1395 H 0.86657 0.74315 0.12129 0.0
H1396 H 0.88512 0.7249 0.10237 0.0
H1397 H 0.77667 0.6732 0.12595 0.0
H1398 H 0.7569 0.66921 0.09954 0.0
H1399 H 0.76621 0.69997 0.11897 0.0
C1400 C 0.02666 0.03268 0.13652 0.0
C1401 C 0.05338 0.0344 0.14011 0.0
C1402 C 0.01038 0.02988 0.1543 0.0
C1403 C 0.02126 0.02952 0.1763 0.0
C1404 C 0.04841 0.03193 0.18007 0.0
C1405 C 0.0641 0.03401 0.16182 0.0
C1406 C 0.98149 0.0267 0.14941 0.0
C1407 C 0.06087 0.03218 0.20336 0.0
C1408 C 0.98197 0.0418 0.22813 0.0
C1409 C 0.97385 0.01711 0.23184 0.0
C1410 C 0.99743 0.0462 0.21009 0.0
C1411 C 0.00421 0.02531 0.19507 0.0
C1412 C 0.9953 0.00028 0.19838 0.0
C1413 C 0.98057 0.99654 0.2169 0.0
C1414 C 0.00708 0.07323 0.20746 0.0
C1415 C 0.00149 0.97741 0.18244 0.0
H1416 H 0.01849 0.03301 0.11966 0.0
H1417 H 0.08486 0.03562 0.16455 0.0
H1418 H 0.97127 0.00797 0.15228 0.0
H1419 H 0.97436 0.04165 0.1614 0.0
H1420 H 0.97616 0.02778 0.1315 0.0
H1421 H 0.08238 0.03596 0.20384 0.0
H1422 H 0.05524 0.047 0.2167 0.0
H1423 H 0.05387 0.01352 0.20796 0.0
H1424 H 0.97691 0.05774 0.23974 0.0
H1425 H 0.97409 0.97737 0.21958 0.0
H1426 H 0.00092 0.07509 0.19002 0.0
H1427 H 0.02861 0.07806 0.20936 0.0
H1428 H 0.99982 0.08733 0.22035 0.0
H1429 H 0.99543 0.97719 0.16437 0.0
H1430 H 0.99172 0.9591 0.18652 0.0
H1431 H 0.02274 0.97861 0.18365 0.0
C1432 C 0.30227 0.80148 0.17682 0.0
C1433 C 0.3231 0.81803 0.19124 0.0
C1434 C 0.29525 0.80579 0.15522 0.0
C1435 C 0.30925 0.82725 0.14795 0.0
C1436 C 0.33018 0.84407 0.16245 0.0
C1437 C 0.33695 0.83916 0.18378 0.0
C1438 C 0.27295 0.78731 0.14014 0.0
C1439 C 0.34561 0.8672 0.15536 0.0
C1440 C 0.31121 0.82879 0.08475 0.0
C1441 C 0.29393 0.84454 0.0821 0.0
C1442 C 0.31561 0.82223 0.10585 0.0
C1443 C 0.30265 0.83191 0.12491 0.0
C1444 C 0.28471 0.84734 0.12223 0.0
C1445 C 0.28044 0.85335 0.1008 0.0
C1446 C 0.33465 0.80548 0.10791 0.0
C1447 C 0.27071 0.85821 0.14221 0.0
H1448 H 0.29125 0.78528 0.18251 0.0
H1449 H 0.35341 0.85178 0.19453 0.0
H1450 H 0.25782 0.79752 0.13614 0.0
H1451 H 0.27982 0.7789 0.12356 0.0
H1452 H 0.26398 0.77158 0.14832 0.0
H1453 H 0.36068 0.87892 0.169 0.0
H1454 H 0.35526 0.8611 0.13963 0.0
H1455 H 0.33247 0.87935 0.15117 0.0
H1456 H 0.32155 0.82172 0.07032 0.0
H1457 H 0.26708 0.86555 0.09888 0.0
H1458 H 0.32555 0.78909 0.11519 0.0
H1459 H 0.35164 0.81651 0.11986 0.0
H1460 H 0.34167 0.79801 0.09109 0.0
H1461 H 0.2606 0.84275 0.15012 0.0
H1462 H 0.25628 0.86862 0.137 0.0
H1463 H 0.28498 0.87157 0.15562 0.0
C1464 C 0.00814 0.49977 0.09495 0.0
C1465 C 0.02546 0.50545 0.07863 0.0
C1466 C 0.01724 0.50049 0.11756 0.0
C1467 C 0.04425 0.50756 0.12403 0.0
C1468 C 0.06184 0.51256 0.1074 0.0
C1469 C 0.05222 0.51127 0.08485 0.0
C1470 C 0.99792 0.49462 0.1347 0.0
C1471 C 0.09076 0.52056 0.11369 0.0
C1472 C 0.06693 0.54218 0.18546 0.0
C1473 C 0.07593 0.5235 0.19445 0.0
C1474 C 0.05622 0.53703 0.1627 0.0
C1475 C 0.05405 0.51244 0.14861 0.0
C1476 C 0.06227 0.49318 0.15775 0.0
C1477 C 0.07335 0.499 0.18057 0.0
C1478 C 0.04798 0.55821 0.15356 0.0
C1479 C 0.0598 0.46661 0.14331 0.0
H1480 H 0.98744 0.49497 0.09005 0.0
H1481 H 0.06562 0.51586 0.07227 0.0
H1482 H 0.00365 0.48088 0.14415 0.0
H1483 H 0.99769 0.51233 0.14756 0.0
H1484 H 0.97794 0.48656 0.12636 0.0
H1485 H 0.10187 0.52198 0.09842 0.0
H1486 H 0.09533 0.53944 0.12586 0.0
H1487 H 0.09748 0.50679 0.12248 0.0
H1488 H 0.0689 0.5612 0.19603 0.0
H1489 H 0.08018 0.48447 0.18746 0.0
H1490 H 0.02728 0.5523 0.14678 0.0
H1491 H 0.05951 0.56221 0.13909 0.0
H1492 H 0.05056 0.57616 0.1669 0.0
H1493 H 0.03957 0.45886 0.13555 0.0
H1494 H 0.06526 0.45332 0.15345 0.0
H1495 H 0.07247 0.46724 0.12897 0.0
C1496 C 0.38993 0.70062 0.26415 0.0
C1497 C 0.38331 0.72458 0.2696 0.0
C1498 C 0.41006 0.69504 0.27697 0.0
C1499 C 0.42402 0.71393 0.29559 0.0
C1500 C 0.41785 0.73833 0.30085 0.0
C1501 C 0.39754 0.74332 0.28785 0.0
C1502 C 0.41609 0.66883 0.27085 0.0
C1503 C 0.43239 0.75906 0.32051 0.0
C1504 C 0.45976 0.69843 0.34549 0.0
C1505 C 0.4857 0.70565 0.3408 0.0
C1506 C 0.43932 0.69966 0.33025 0.0
C1507 C 0.44498 0.70836 0.30988 0.0
C1508 C 0.471 0.71405 0.30432 0.0
C1509 C 0.49102 0.71256 0.31981 0.0
C1510 C 0.41178 0.69309 0.33661 0.0
C1511 C 0.47785 0.72329 0.28273 0.0
H1512 H 0.37921 0.68612 0.24991 0.0
H1513 H 0.39231 0.76172 0.29247 0.0
H1514 H 0.43678 0.6704 0.26742 0.0
H1515 H 0.41298 0.65936 0.28554 0.0
H1516 H 0.40383 0.65647 0.25551 0.0
H1517 H 0.4257 0.77722 0.32192 0.0
H1518 H 0.42981 0.75276 0.33693 0.0
H1519 H 0.45348 0.76279 0.31824 0.0
H1520 H 0.4554 0.69294 0.36158 0.0
H1521 H 0.51097 0.718 0.31589 0.0
H1522 H 0.39913 0.68005 0.32188 0.0
H1523 H 0.40409 0.71073 0.34091 0.0
H1524 H 0.4104 0.68394 0.35161 0.0
H1525 H 0.46562 0.71065 0.26756 0.0
H1526 H 0.49858 0.72415 0.27963 0.0
H1527 H 0.47396 0.74268 0.2842 0.0
C1528 C 0.05081 0.40826 0.98233 0.0
C1529 C 0.04089 0.41875 0.96524 0.0
C1530 C 0.05187 0.38233 0.97794 0.0
C1531 C 0.04256 0.3666 0.95605 0.0
C1532 C 0.03201 0.37702 0.93894 0.0
C1533 C 0.0314 0.40298 0.94373 0.0
C1534 C 0.06341 0.3719 0.99652 0.0
C1535 C 0.02161 0.3608 0.91545 0.0
C1536 C 0.06605 0.30675 0.93099 0.0
C1537 C 0.04471 0.28759 0.93289 0.0
C1538 C 0.06628 0.33257 0.93976 0.0
C1539 C 0.04454 0.33939 0.95049 0.0
C1540 C 0.02358 0.3201 0.95364 0.0
C1541 C 0.02397 0.29438 0.94489 0.0
C1542 C 0.08916 0.35259 0.93635 0.0
C1543 C 3e-05 0.32664 0.96496 0.0
H1544 H 0.05827 0.42048 0.99895 0.0
H1545 H 0.02333 0.41097 0.93063 0.0
H1546 H 0.04948 0.35516 0.99973 0.0
H1547 H 0.08106 0.36522 0.99082 0.0
H1548 H 0.06873 0.38637 0.01293 0.0
H1549 H 0.0132 0.37165 0.90438 0.0
H1550 H 0.03742 0.3532 0.90668 0.0
H1551 H 0.00642 0.3442 0.91714 0.0
H1552 H 0.08228 0.30165 0.92197 0.0
H1553 H 0.00741 0.27969 0.94646 0.0
H1554 H 0.09587 0.36685 0.95266 0.0
H1555 H 0.0832 0.36293 0.92359 0.0
H1556 H 0.1057 0.34416 0.9301 0.0
H1557 H 0.00592 0.341 0.98133 0.0
H1558 H 0.98687 0.30958 0.96852 0.0
H1559 H 0.98905 0.33519 0.95354 0.0
C1560 C 0.74083 0.72277 0.31725 0.0
C1561 C 0.74234 0.70004 0.30206 0.0
C1562 C 0.71843 0.72489 0.32872 0.0
C1563 C 0.69689 0.70393 0.32449 0.0
C1564 C 0.69859 0.68072 0.30958 0.0
C1565 C 0.72141 0.67899 0.29867 0.0
C1566 C 0.71752 0.74983 0.34478 0.0
C1567 C 0.67589 0.65811 0.30429 0.0
C1568 C 0.6422 0.70478 0.36412 0.0
C1569 C 0.62509 0.7152 0.3523 0.0
C1570 C 0.66571 0.70089 0.35528 0.0
C1571 C 0.67186 0.7071 0.33397 0.0
C1572 C 0.65425 0.71693 0.32171 0.0
C1573 C 0.63123 0.72108 0.33113 0.0
C1574 C 0.68422 0.69074 0.36897 0.0
C1575 C 0.65984 0.72332 0.29871 0.0
H1576 H 0.75714 0.73897 0.32001 0.0
H1577 H 0.72252 0.66148 0.28676 0.0
H1578 H 0.70332 0.75898 0.33733 0.0
H1579 H 0.71091 0.74638 0.36149 0.0
H1580 H 0.7367 0.76334 0.34796 0.0
H1581 H 0.68099 0.64089 0.29369 0.0
H1582 H 0.66866 0.65345 0.32043 0.0
H1583 H 0.65971 0.66292 0.29485 0.0
H1584 H 0.63755 0.70034 0.38055 0.0
H1585 H 0.61795 0.72893 0.32184 0.0
H1586 H 0.70281 0.70503 0.37364 0.0
H1587 H 0.68869 0.6732 0.35845 0.0
H1588 H 0.67629 0.68629 0.38498 0.0
H1589 H 0.67752 0.73875 0.30075 0.0
H1590 H 0.64354 0.72965 0.2909 0.0
H1591 H 0.66367 0.70643 0.28662 0.0
C1592 C 0.07874 0.10337 0.0216 0.0
C1593 C 0.0837 0.12168 0.04242 0.0
C1594 C 0.0691 0.10913 0.00143 0.0
C1595 C 0.06458 0.13385 0.00205 0.0
C1596 C 0.06908 0.15221 0.0231 0.0
C1597 C 0.07832 0.14583 0.04299 0.0
C1598 C 0.06416 0.08895 0.97939 0.0
C1599 C 0.06455 0.17881 0.02456 0.0
C1600 C 0.0655 0.1628 0.94945 0.0
C1601 C 0.03915 0.16263 0.94518 0.0
C1602 C 0.07397 0.15229 0.96721 0.0
C1603 C 0.0556 0.14102 0.98079 0.0
C1604 C 0.02883 0.13926 0.97552 0.0
C1605 C 0.02094 0.15028 0.95791 0.0
C1606 C 0.10271 0.15476 0.97237 0.0
C1607 C 0.00858 0.12696 0.98928 0.0
H1608 H 0.08298 0.08472 0.02091 0.0
H1609 H 0.08145 0.15992 0.05907 0.0
H1610 H 0.04405 0.08652 0.97177 0.0
H1611 H 0.07746 0.09502 0.9667 0.0
H1612 H 0.06703 0.0702 0.98207 0.0
H1613 H 0.06912 0.19088 0.04222 0.0
H1614 H 0.07675 0.18827 0.01277 0.0
H1615 H 0.044 0.17786 0.01903 0.0
H1616 H 0.07969 0.17233 0.9397 0.0
H1617 H 0.00051 0.14986 0.95457 0.0
H1618 H 0.10687 0.13614 0.97397 0.0
H1619 H 0.10929 0.16839 0.98907 0.0
H1620 H 0.11424 0.16172 0.9589 0.0
H1621 H 0.01213 0.10826 0.99136 0.0
H1622 H 0.9886 0.12403 0.98112 0.0
H1623 H 0.00979 0.13926 0.00673 0.0
C1624 C 0.39938 0.37187 0.31957 0.0
C1625 C 0.37942 0.35059 0.31922 0.0
C1626 C 0.41717 0.3714 0.30267 0.0
C1627 C 0.41465 0.34922 0.28495 0.0
C1628 C 0.39377 0.32816 0.28399 0.0
C1629 C 0.37651 0.32905 0.30123 0.0
C1630 C 0.43929 0.39413 0.30436 0.0
C1631 C 0.39014 0.3043 0.26519 0.0
C1632 C 0.44862 0.34939 0.23006 0.0
C1633 C 0.46867 0.33697 0.2338 0.0
C1634 C 0.43143 0.35445 0.24692 0.0
C1635 C 0.43457 0.34719 0.2681 0.0
C1636 C 0.4556 0.33591 0.27244 0.0
C1637 C 0.47229 0.33079 0.25519 0.0
C1638 C 0.40914 0.36635 0.24159 0.0
C1639 C 0.45983 0.32823 0.29495 0.0
H1640 H 0.40173 0.38845 0.33362 0.0
H1641 H 0.36094 0.31267 0.30089 0.0
H1642 H 0.4579 0.38877 0.30821 0.0
H1643 H 0.44045 0.40015 0.28773 0.0
H1644 H 0.43731 0.41062 0.31801 0.0
H1645 H 0.3719 0.29039 0.266 0.0
H1646 H 0.38986 0.30924 0.24808 0.0
H1647 H 0.40669 0.29492 0.26663 0.0
H1648 H 0.44564 0.35422 0.21358 0.0
H1649 H 0.48787 0.32141 0.25832 0.0
H1650 H 0.40809 0.38269 0.25574 0.0
H1651 H 0.3906 0.35211 0.24011 0.0
H1652 H 0.41083 0.37311 0.22529 0.0
H1653 H 0.4598 0.34441 0.30959 0.0
H1654 H 0.47841 0.32191 0.29645 0.0
H1655 H 0.4437 0.31235 0.2965 0.0
C1656 C 0.54382 0.37621 0.0258 0.0
C1657 C 0.56116 0.39769 0.02198 0.0
C1658 C 0.54047 0.37228 0.04803 0.0
C1659 C 0.5544 0.39052 0.06712 0.0
C1660 C 0.57174 0.41242 0.06353 0.0
C1661 C 0.57504 0.41568 0.04098 0.0
C1662 C 0.5218 0.34859 0.05107 0.0
C1663 C 0.58668 0.43241 0.08349 0.0
C1664 C 0.52065 0.38477 0.121 0.0
C1665 C 0.53373 0.36852 0.12986 0.0
C1666 C 0.52869 0.39408 0.10167 0.0
C1667 C 0.55004 0.38656 0.09072 0.0
C1668 C 0.56457 0.37185 0.1007 0.0
C1669 C 0.55634 0.36315 0.12031 0.0
C1670 C 0.51301 0.4102 0.09191 0.0
C1671 C 0.58736 0.3633 0.0895 0.0
H1672 H 0.53252 0.36249 0.01135 0.0
H1673 H 0.58869 0.43221 0.03824 0.0
H1674 H 0.53189 0.33774 0.06093 0.0
H1675 H 0.50577 0.35403 0.06105 0.0
H1676 H 0.51328 0.33578 0.03439 0.0
H1677 H 0.59932 0.44841 0.07782 0.0
H1678 H 0.57299 0.44023 0.09513 0.0
H1679 H 0.59892 0.42369 0.09367 0.0
H1680 H 0.50331 0.38921 0.12849 0.0
H1681 H 0.5665 0.35056 0.12707 0.0
H1682 H 0.50095 0.39846 0.07625 0.0
H1683 H 0.52594 0.42641 0.08682 0.0
H1684 H 0.49993 0.41785 0.10436 0.0
H1685 H 0.58016 0.34821 0.0738 0.0
H1686 H 0.59894 0.35548 0.10112 0.0
H1687 H 0.60025 0.37934 0.08415 0.0
C1688 C 0.6943 0.24692 0.21256 0.0
C1689 C 0.70854 0.25597 0.23405 0.0
C1690 C 0.67068 0.25379 0.20825 0.0
C1691 C 0.66113 0.27026 0.22582 0.0
C1692 C 0.67553 0.27967 0.2475 0.0
C1693 C 0.69902 0.27231 0.25139 0.0
C1694 C 0.65575 0.24309 0.18499 0.0
C1695 C 0.66608 0.29742 0.26659 0.0
C1696 C 0.60939 0.30278 0.20682 0.0
C1697 C 0.58659 0.28695 0.2112 0.0
C1698 C 0.63388 0.29799 0.21204 0.0
C1699 C 0.63555 0.27677 0.22169 0.0
C1700 C 0.61263 0.26104 0.22653 0.0
C1701 C 0.58847 0.26637 0.22132 0.0
C1702 C 0.65793 0.31532 0.20683 0.0
C1703 C 0.61356 0.23815 0.23668 0.0
H1704 H 0.70144 0.23407 0.19918 0.0
H1705 H 0.71014 0.2796 0.26794 0.0
H1706 H 0.63649 0.23151 0.18697 0.0
H1707 H 0.65228 0.25886 0.17708 0.0
H1708 H 0.66611 0.23093 0.17305 0.0
H1709 H 0.67997 0.30369 0.28219 0.0
H1710 H 0.66292 0.31454 0.26066 0.0
H1711 H 0.64715 0.28776 0.27134 0.0
H1712 H 0.60811 0.31875 0.19907 0.0
H1713 H 0.57098 0.25401 0.22477 0.0
H1714 H 0.66792 0.30442 0.19353 0.0
H1715 H 0.67171 0.32263 0.22243 0.0
H1716 H 0.65344 0.33182 0.20056 0.0
H1717 H 0.6221 0.22429 0.22471 0.0
H1718 H 0.59402 0.22832 0.24011 0.0
H1719 H 0.62619 0.24405 0.25301 0.0
C1720 C 0.42623 0.14524 0.04716 0.0
C1721 C 0.44458 0.14288 0.03092 0.0
C1722 C 0.43131 0.16511 0.06688 0.0
C1723 C 0.45528 0.18304 0.07039 0.0
C1724 C 0.47385 0.18078 0.05405 0.0
C1725 C 0.46828 0.16072 0.03453 0.0
C1726 C 0.41103 0.16696 0.08391 0.0
C1727 C 0.49966 0.19953 0.0572 0.0
C1728 C 0.46259 0.24871 0.10915 0.0
C1729 C 0.47634 0.24618 0.12887 0.0
C1730 C 0.45489 0.22807 0.09025 0.0
C1731 C 0.46105 0.20432 0.09108 0.0
C1732 C 0.47402 0.20134 0.11123 0.0
C1733 C 0.48152 0.22231 0.12988 0.0
C1734 C 0.44103 0.23196 0.06907 0.0
C1735 C 0.4808 0.17624 0.11278 0.0
H1736 H 0.40774 0.13171 0.0443 0.0
H1737 H 0.48266 0.15879 0.02219 0.0
H1738 H 0.41924 0.16632 0.10113 0.0
H1739 H 0.40509 0.1855 0.0856 0.0
H1740 H 0.3935 0.15132 0.07877 0.0
H1741 H 0.51193 0.19513 0.04285 0.0
H1742 H 0.49653 0.21915 0.05845 0.0
H1743 H 0.51043 0.19939 0.07351 0.0
H1744 H 0.45842 0.26704 0.10819 0.0
H1745 H 0.49205 0.22012 0.14505 0.0
H1746 H 0.42288 0.21717 0.06394 0.0
H1747 H 0.45348 0.22992 0.05454 0.0
H1748 H 0.43615 0.25108 0.07173 0.0
H1749 H 0.46326 0.16056 0.10839 0.0
H1750 H 0.48934 0.17657 0.13018 0.0
H1751 H 0.49495 0.17173 0.10015 0.0
C1752 C 0.298 0.31324 0.73501 0.0
C1753 C 0.30846 0.29824 0.74773 0.0
C1754 C 0.30533 0.33992 0.74089 0.0
C1755 C 0.32366 0.35186 0.75989 0.0
C1756 C 0.33295 0.33686 0.77372 0.0
C1757 C 0.32516 0.31014 0.76749 0.0
C1758 C 0.29477 0.3552 0.72585 0.0
C1759 C 0.35247 0.34892 0.79416 0.0
C1760 C 0.36934 0.41347 0.75605 0.0
C1761 C 0.35928 0.43183 0.77091 0.0
C1762 C 0.35775 0.38746 0.75224 0.0
C1763 C 0.33547 0.37953 0.76352 0.0
C1764 C 0.32476 0.39794 0.77808 0.0
C1765 C 0.3368 0.42392 0.78161 0.0
C1766 C 0.36967 0.36841 0.73643 0.0
C1767 C 0.30093 0.39016 0.79026 0.0
H1768 H 0.28478 0.304 0.71989 0.0
H1769 H 0.33329 0.29854 0.77729 0.0
H1770 H 0.28822 0.37151 0.73648 0.0
H1771 H 0.31035 0.36318 0.71579 0.0
H1772 H 0.27827 0.3434 0.71364 0.0
H1773 H 0.35534 0.33504 0.80468 0.0
H1774 H 0.37142 0.35663 0.7881 0.0
H1775 H 0.34622 0.36514 0.80524 0.0
H1776 H 0.38664 0.41935 0.74765 0.0
H1777 H 0.32891 0.43794 0.79317 0.0
H1778 H 0.35513 0.35697 0.72228 0.0
H1779 H 0.37572 0.35496 0.74605 0.0
H1780 H 0.38685 0.37775 0.7288 0.0
H1781 H 0.28481 0.37849 0.77764 0.0
H1782 H 0.29437 0.40687 0.80023 0.0
H1783 H 0.30508 0.37812 0.80218 0.0
C1784 C 0.30944 0.67402 0.81601 0.0
C1785 C 0.28805 0.67195 0.80048 0.0
C1786 C 0.32207 0.65371 0.81528 0.0
C1787 C 0.31304 0.63067 0.79869 0.0
C1788 C 0.29157 0.62851 0.78284 0.0
C1789 C 0.27939 0.64921 0.78388 0.0
C1790 C 0.345 0.65686 0.83237 0.0
C1791 C 0.28123 0.6042 0.76503 0.0
C1792 C 0.35854 0.58475 0.78554 0.0
C1793 C 0.35007 0.56744 0.7994 0.0
C1794 C 0.34656 0.60534 0.78498 0.0
C1795 C 0.32552 0.60857 0.79848 0.0
C1796 C 0.31668 0.59094 0.81224 0.0
C1797 C 0.3291 0.57067 0.81259 0.0
C1798 C 0.35663 0.62383 0.7702 0.0
C1799 C 0.29421 0.5936 0.82677 0.0
H1800 H 0.31647 0.6917 0.82864 0.0
H1801 H 0.26276 0.64743 0.77195 0.0
H1802 H 0.34065 0.64268 0.84328 0.0
H1803 H 0.36217 0.6532 0.82318 0.0
H1804 H 0.35011 0.67627 0.8437 0.0
H1805 H 0.26484 0.60582 0.75357 0.0
H1806 H 0.29688 0.59911 0.75434 0.0
H1807 H 0.27447 0.58825 0.77365 0.0
H1808 H 0.37474 0.58241 0.77532 0.0
H1809 H 0.32234 0.55735 0.82329 0.0
H1810 H 0.36352 0.64328 0.78112 0.0
H1811 H 0.34078 0.62478 0.75786 0.0
H1812 H 0.37285 0.61841 0.76041 0.0
H1813 H 0.29903 0.61199 0.83963 0.0
H1814 H 0.28921 0.57786 0.836 0.0
H1815 H 0.27682 0.59385 0.81583 0.0
C1816 C 0.89034 0.52729 0.47681 0.0
C1817 C 0.90911 0.54267 0.49402 0.0
C1818 C 0.87505 0.50436 0.47999 0.0
C1819 C 0.87814 0.49691 0.50109 0.0
C1820 C 0.89792 0.51157 0.51804 0.0
C1821 C 0.91341 0.53406 0.51416 0.0
C1822 C 0.85456 0.48889 0.46125 0.0
C1823 C 0.90166 0.50443 0.54087 0.0
C1824 C 0.81645 0.45957 0.5186 0.0
C1825 C 0.82049 0.43462 0.51366 0.0
C1826 C 0.8355 0.48008 0.51534 0.0
C1827 C 0.85889 0.47542 0.50631 0.0
C1828 C 0.86327 0.45029 0.5016 0.0
C1829 C 0.8441 0.43018 0.50562 0.0
C1830 C 0.83035 0.50669 0.52115 0.0
C1831 C 0.88769 0.44452 0.49146 0.0
H1832 H 0.88661 0.53373 0.46126 0.0
H1833 H 0.92833 0.54539 0.52731 0.0
H1834 H 0.85512 0.46836 0.45819 0.0
H1835 H 0.83507 0.49078 0.46665 0.0
H1836 H 0.85703 0.49526 0.44481 0.0
H1837 H 0.91944 0.51639 0.5513 0.0
H1838 H 0.88467 0.50685 0.55079 0.0
H1839 H 0.90285 0.48409 0.53831 0.0
H1840 H 0.79828 0.46305 0.52497 0.0
H1841 H 0.84714 0.41084 0.50159 0.0
H1842 H 0.82915 0.51406 0.50526 0.0
H1843 H 0.84659 0.51979 0.53281 0.0
H1844 H 0.81201 0.50727 0.52952 0.0
H1845 H 0.88837 0.44873 0.47407 0.0
H1846 H 0.88881 0.42426 0.49005 0.0
H1847 H 0.90509 0.4569 0.50208 0.0
C1848 C 0.76975 0.92883 0.83479 0.0
C1849 C 0.76136 0.91952 0.854 0.0
C1850 C 0.75389 0.94046 0.8228 0.0
C1851 C 0.72906 0.94253 0.83012 0.0
C1852 C 0.71986 0.93145 0.84848 0.0
C1853 C 0.73618 0.92021 0.86027 0.0
C1854 C 0.76444 0.95209 0.80335 0.0
C1855 C 0.69341 0.93293 0.85668 0.0
C1856 C 0.70293 0.00067 0.82472 0.0
C1857 C 0.68391 0.99086 0.8062 0.0
C1858 C 0.71816 0.98525 0.83216 0.0
C1859 C 0.71421 0.95922 0.82094 0.0
C1860 C 0.69532 0.9492 0.80198 0.0
C1861 C 0.68043 0.96519 0.79475 0.0
C1862 C 0.73819 0.99679 0.85236 0.0
C1863 C 0.69049 0.9215 0.7897 0.0
H1864 H 0.78924 0.92832 0.82996 0.0
H1865 H 0.72956 0.91266 0.87494 0.0
H1866 H 0.7497 0.94707 0.78844 0.0
H1867 H 0.76915 0.9732 0.80907 0.0
H1868 H 0.78229 0.94577 0.79766 0.0
H1869 H 0.68789 0.92062 0.86909 0.0
H1870 H 0.6934 0.95292 0.86521 0.0
H1871 H 0.67841 0.92717 0.84193 0.0
H1872 H 0.70593 0.02053 0.83356 0.0
H1873 H 0.6658 0.9575 0.78039 0.0
H1874 H 0.75753 0.99355 0.84759 0.0
H1875 H 0.73311 0.98738 0.86683 0.0
H1876 H 0.73971 0.01763 0.85846 0.0
H1877 H 0.70891 0.91648 0.78409 0.0
H1878 H 0.67624 0.91702 0.77444 0.0
H1879 H 0.68305 0.90922 0.80164 0.0
C1880 C 0.65076 0.49857 0.96271 0.0
C1881 C 0.62869 0.50925 0.96406 0.0
C1882 C 0.67576 0.51401 0.96449 0.0
C1883 C 0.67872 0.54068 0.96703 0.0
C1884 C 0.65661 0.55161 0.96843 0.0
C1885 C 0.63194 0.53584 0.96731 0.0
C1886 C 0.69897 0.50177 0.96352 0.0
C1887 C 0.65897 0.57998 0.97087 0.0
C1888 C 0.7419 0.58667 0.99171 0.0
C1889 C 0.75297 0.59187 0.9718 0.0
C1890 C 0.71822 0.56923 0.99035 0.0
C1891 C 0.70494 0.55732 0.96856 0.0
C1892 C 0.71619 0.56227 0.94835 0.0
C1893 C 0.74035 0.57926 0.95021 0.0
C1894 C 0.70721 0.56388 0.01225 0.0
C1895 C 0.70228 0.55037 0.92484 0.0
H1896 H 0.64856 0.47806 0.9598 0.0
H1897 H 0.61513 0.5444 0.96887 0.0
H1898 H 0.70947 0.50491 0.94829 0.0
H1899 H 0.71272 0.51075 0.97894 0.0
H1900 H 0.69343 0.4809 0.96257 0.0
H1901 H 0.63977 0.58531 0.97072 0.0
H1902 H 0.67048 0.59053 0.98718 0.0
H1903 H 0.66944 0.58638 0.95664 0.0
H1904 H 0.75184 0.59624 0.00843 0.0
H1905 H 0.74889 0.58342 0.93484 0.0
H1906 H 0.70228 0.54301 0.01126 0.0
H1907 H 0.68902 0.57093 0.01453 0.0
H1908 H 0.72095 0.57315 0.02766 0.0
H1909 H 0.69754 0.52928 0.9222 0.0
H1910 H 0.71397 0.55567 0.91083 0.0
H1911 H 0.68365 0.55661 0.92352 0.0
C1912 C 0.26849 0.7042 0.25116 0.0
C1913 C 0.29 0.69696 0.24085 0.0
C1914 C 0.24657 0.68579 0.25335 0.0
C1915 C 0.24619 0.65961 0.24487 0.0
C1916 C 0.26715 0.65235 0.23308 0.0
C1917 C 0.28889 0.67114 0.23132 0.0
C1918 C 0.22464 0.69427 0.26608 0.0
C1919 C 0.26731 0.62466 0.2235 0.0
C1920 C 0.20901 0.61117 0.2753 0.0
C1921 C 0.18649 0.60073 0.26037 0.0
C1922 C 0.22835 0.63062 0.27059 0.0
C1923 C 0.22521 0.63973 0.25034 0.0
C1924 C 0.20245 0.62947 0.23527 0.0
C1925 C 0.18329 0.61015 0.24051 0.0
C1926 C 0.25228 0.64125 0.2872 0.0
C1927 C 0.19856 0.63859 0.21344 0.0
H1928 H 0.26943 0.72415 0.25875 0.0
H1929 H 0.30548 0.66557 0.2232 0.0
H1930 H 0.20568 0.68482 0.25629 0.0
H1931 H 0.22442 0.68856 0.28287 0.0
H1932 H 0.22655 0.71528 0.2693 0.0
H1933 H 0.28362 0.62241 0.21261 0.0
H1934 H 0.26913 0.61493 0.23786 0.0
H1935 H 0.24879 0.61481 0.21314 0.0
H1936 H 0.21161 0.60411 0.29073 0.0
H1937 H 0.16599 0.60215 0.22882 0.0
H1938 H 0.25481 0.66222 0.29305 0.0
H1939 H 0.26975 0.63767 0.27846 0.0
H1940 H 0.25136 0.63265 0.30252 0.0
H1941 H 0.20005 0.65953 0.21746 0.0
H1942 H 0.17944 0.62916 0.20386 0.0
H1943 H 0.21407 0.63472 0.20208 0.0
C1944 C 0.97701 0.56487 0.0333 0.0
C1945 C 0.96961 0.53822 0.02726 0.0
C1946 C 0.96039 0.58004 0.02753 0.0
C1947 C 0.93571 0.56814 0.01581 0.0
C1948 C 0.92778 0.54117 0.01066 0.0
C1949 C 0.945 0.52651 0.0162 0.0
C1950 C 0.96971 0.60868 0.03294 0.0
C1951 C 0.90143 0.52777 0.99861 0.0
C1952 C 0.88322 0.60585 0.01268 0.0
C1953 C 0.88364 0.60888 0.98992 0.0
C1954 C 0.90044 0.59308 0.02158 0.0
C1955 C 0.91881 0.58364 0.00751 0.0
C1956 C 0.92008 0.58772 0.98487 0.0
C1957 C 0.90226 0.60003 0.97626 0.0
C1958 C 0.8982 0.58871 0.04564 0.0
C1959 C 0.93978 0.57844 0.9695 0.0
H1960 H 0.99624 0.57377 0.04166 0.0
H1961 H 0.93947 0.50584 0.01153 0.0
H1962 H 0.97194 0.61542 0.01669 0.0
H1963 H 0.95522 0.61803 0.04222 0.0
H1964 H 0.98861 0.615 0.04352 0.0
H1965 H 0.89738 0.5069 0.99775 0.0
H1966 H 0.886 0.53585 0.0076 0.0
H1967 H 0.90031 0.53084 0.98083 0.0
H1968 H 0.86873 0.61254 0.02326 0.0
H1969 H 0.90276 0.60251 0.95871 0.0
H1970 H 0.91734 0.59535 0.05575 0.0
H1971 H 0.89191 0.56796 0.0449 0.0
H1972 H 0.88404 0.59867 0.05486 0.0
H1973 H 0.95956 0.58525 0.97845 0.0
H1974 H 0.93964 0.58501 0.9531 0.0
H1975 H 0.93565 0.55727 0.96543 0.0
C1976 C 0.10455 0.97535 0.08181 0.0
C1977 C 0.11641 0.00141 0.08734 0.0
C1978 C 0.11866 0.95684 0.07298 0.0
C1979 C 0.14525 0.96459 0.06967 0.0
C1980 C 0.15745 0.99082 0.07583 0.0
C1981 C 0.14291 0.00886 0.08458 0.0
C1982 C 0.10496 0.92908 0.06661 0.0
C1983 C 0.18579 -9e-05 0.0727 0.0
C1984 C 0.19139 0.91896 0.06136 0.0
C1985 C 0.19368 0.91521 0.03762 0.0
C1986 C 0.17479 0.9341 0.07199 0.0
C1987 C 0.16012 0.94566 0.05852 0.0
C1988 C 0.16138 0.94083 0.03441 0.0
C1989 C 0.17814 0.92572 0.02428 0.0
C1990 C 0.17393 0.93873 0.09774 0.0
C1991 C 0.14596 0.95264 0.01938 0.0
H1992 H 0.08405 0.96947 0.08382 0.0
H1993 H 0.15233 0.02891 0.08927 0.0
H1994 H 0.10434 0.92194 0.04775 0.0
H1995 H 0.11578 0.91746 0.07487 0.0
H1996 H 0.08477 0.926 0.07176 0.0
H1997 H 0.19263 0.02082 0.07929 0.0
H1998 H 0.19784 0.98994 0.08173 0.0
H1999 H 0.18902 0.99524 0.05419 0.0
H2000 H 0.20331 0.91092 0.0718 0.0
H2001 H 0.17963 0.9228 0.00589 0.0
H2002 H 0.15355 0.93538 0.1023 0.0
H2003 H 0.18307 0.95894 0.10558 0.0
H2004 H 0.18428 0.92629 0.10542 0.0
H2005 H 0.12521 0.94884 0.02284 0.0
H2006 H 0.1474 0.94528 0.00079 0.0
H2007 H 0.15318 0.97365 0.02344 0.0
loop_
_geom_bond_atom_site_label_1
_geom_bond_atom_site_label_2
_geom_bond_distance
_geom_bond_site_symmetry_2
_ccdc_geom_bond_type
H0 C1 0.949 . S
C1 H0 0.949 . S
C1 C2 1.395 . S
C1 C3 1.391 . S
C2 C1 1.395 . S
C2 C5 1.390 . S
C3 C1 1.391 . S
C3 C7 1.387 . S
C3 C8 1.491 . S
H4 C5 0.950 . S
C5 C2 1.390 . S
C5 H4 0.950 . S
C5 C6 1.378 . S
C6 C5 1.378 . S
C6 C7 1.409 . S
C7 C3 1.387 . S
C7 C6 1.409 . S
C7 H9 0.951 . S
C8 C3 1.491 . S
C8 C10 1.382 . S
C8 C12 1.404 . S
H9 C7 0.951 . S
C10 C8 1.382 . S
C10 C11 1.390 . S
C10 H15 0.949 . S
C11 C10 1.390 . S
C11 C16 1.399 . S
C12 C8 1.404 . S
C12 H13 0.950 . S
C12 C14 1.375 . S
H13 C12 0.950 . S
C14 C12 1.375 . S
C14 C16 1.382 . S
C14 H18 0.950 . S
H15 C10 0.949 . S
C16 C11 1.399 . S
C16 C14 1.382 . S
C16 H17 0.952 . S
H17 C16 0.952 . S
H18 C14 0.950 . S
H19 C20 0.949 . S
C20 H19 0.949 . S
C20 C21 1.395 . S
C20 C22 1.391 . S
C21 C20 1.395 . S
C21 C24 1.390 . S
C22 C20 1.391 . S
C22 C26 1.387 . S
C22 C27 1.491 . S
H23 C24 0.950 . S
C24 C21 1.390 . S
C24 H23 0.950 . S
C24 C25 1.378 . S
C25 C24 1.378 . S
C25 C26 1.409 . S
C26 C22 1.387 . S
C26 C25 1.409 . S
C26 H28 0.951 . S
C27 C22 1.491 . S
C27 C29 1.382 . S
C27 C31 1.404 . S
H28 C26 0.951 . S
C29 C27 1.382 . S
C29 C30 1.390 . S
C29 H34 0.949 . S
C30 C29 1.390 . S
C30 C35 1.399 . S
C31 C27 1.404 . S
C31 H32 0.950 . S
C31 C33 1.375 . S
H32 C31 0.950 . S
C33 C31 1.375 . S
C33 C35 1.382 . S
C33 H37 0.950 . S
H34 C29 0.949 . S
C35 C30 1.399 . S
C35 C33 1.382 . S
C35 H36 0.952 . S
H36 C35 0.952 . S
H37 C33 0.950 . S
H38 C39 0.949 . S
C39 H38 0.949 . S
C39 C40 1.395 . S
C39 C41 1.391 . S
C40 C39 1.395 . S
C40 C43 1.390 . S
C41 C39 1.391 . S
C41 C45 1.387 . S
C41 C46 1.491 . S
H42 C43 0.950 . S
C43 C40 1.390 . S
C43 H42 0.950 . S
C43 C44 1.378 . S
C44 C43 1.378 . S
C44 C45 1.409 . S
C45 C41 1.387 . S
C45 C44 1.409 . S
C45 H47 0.951 . S
C46 C41 1.491 . S
C46 C48 1.382 . S
C46 C50 1.404 1_554 S
H47 C45 0.951 . S
C48 C46 1.382 . S
C48 C49 1.390 1_554 S
C48 H53 0.949 . S
C49 C48 1.390 1_556 S
C49 C54 1.399 . S
C50 C46 1.404 1_556 S
C50 H51 0.950 . S
C50 C52 1.375 . S
H51 C50 0.950 . S
C52 C50 1.375 . S
C52 C54 1.382 . S
C52 H56 0.950 . S
H53 C48 0.949 . S
C54 C49 1.399 . S
C54 C52 1.382 . S
C54 H55 0.952 . S
H55 C54 0.952 . S
H56 C52 0.950 . S
H57 C58 0.949 . S
C58 H57 0.949 . S
C58 C59 1.395 . S
C58 C60 1.391 . S
C59 C58 1.395 . S
C59 C62 1.390 . S
C60 C58 1.391 . S
C60 C64 1.387 . S
C60 C65 1.491 . S
H61 C62 0.950 . S
C62 C59 1.390 . S
C62 H61 0.950 . S
C62 C63 1.378 . S
C63 C62 1.378 . S
C63 C64 1.409 . S
C64 C60 1.387 . S
C64 C63 1.409 . S
C64 H66 0.951 . S
C65 C60 1.491 . S
C65 C67 1.382 . S
C65 C69 1.404 . S
H66 C64 0.951 . S
C67 C65 1.382 . S
C67 C68 1.390 . S
C67 H72 0.949 . S
C68 C67 1.390 . S
C68 C73 1.399 . S
C69 C65 1.404 . S
C69 H70 0.950 . S
C69 C71 1.375 . S
H70 C69 0.950 . S
C71 C69 1.375 . S
C71 C73 1.382 . S
C71 H75 0.950 . S
H72 C67 0.949 . S
C73 C68 1.399 . S
C73 C71 1.382 . S
C73 H74 0.952 . S
H74 C73 0.952 . S
H75 C71 0.950 . S
H76 C77 0.949 . S
C77 H76 0.949 . S
C77 C78 1.395 . S
C77 C79 1.391 . S
C78 C77 1.395 . S
C78 C81 1.390 . S
C79 C77 1.391 . S
C79 C83 1.387 . S
C79 C84 1.491 . S
H80 C81 0.950 . S
C81 C78 1.390 . S
C81 H80 0.950 . S
C81 C82 1.378 . S
C82 C81 1.378 . S
C82 C83 1.409 . S
C83 C79 1.387 . S
C83 C82 1.409 . S
C83 H85 0.951 . S
C84 C79 1.491 . S
C84 C86 1.382 . S
C84 C88 1.404 . S
H85 C83 0.951 . S
C86 C84 1.382 . S
C86 C87 1.390 . S
C86 H91 0.949 . S
C87 C86 1.390 . S
C87 C92 1.399 . S
C88 C84 1.404 . S
C88 H89 0.950 . S
C88 C90 1.375 . S
H89 C88 0.950 . S
C90 C88 1.375 . S
C90 C92 1.382 . S
C90 H94 0.950 . S
H91 C86 0.949 . S
C92 C87 1.399 . S
C92 C90 1.382 . S
C92 H93 0.952 . S
H93 C92 0.952 . S
H94 C90 0.950 . S
H95 C96 0.949 . S
C96 H95 0.949 . S
C96 C97 1.395 . S
C96 C98 1.391 . S
C97 C96 1.395 . S
C97 C100 1.390 . S
C98 C96 1.391 . S
C98 C102 1.387 . S
C98 C103 1.491 . S
H99 C100 0.950 . S
C100 C97 1.390 . S
C100 H99 0.950 . S
C100 C101 1.378 . S
C101 C100 1.378 . S
C101 C102 1.409 . S
C102 C98 1.387 . S
C102 C101 1.409 . S
C102 H104 0.951 . S
C103 C98 1.491 . S
C103 C105 1.382 . S
C103 C107 1.404 . S
H104 C102 0.951 . S
C105 C103 1.382 . S
C105 C106 1.390 . S
C105 H110 0.949 . S
C106 C105 1.390 . S
C106 C111 1.399 . S
C107 C103 1.404 . S
C107 H108 0.950 . S
C107 C109 1.375 . S
H108 C107 0.950 . S
C109 C107 1.375 . S
C109 C111 1.382 . S
C109 H113 0.950 . S
H110 C105 0.949 . S
C111 C106 1.399 . S
C111 C109 1.382 . S
C111 H112 0.952 . S
H112 C111 0.952 . S
H113 C109 0.950 . S
H114 C115 0.949 . S
C115 H114 0.949 . S
C115 C116 1.395 . S
C115 C117 1.391 . S
C116 C115 1.395 . S
C116 C119 1.390 . S
C117 C115 1.391 . S
C117 C121 1.387 . S
C117 C122 1.491 . S
H118 C119 0.950 . S
C119 C116 1.390 . S
C119 H118 0.950 . S
C119 C120 1.378 . S
C120 C119 1.378 . S
C120 C121 1.409 . S
C121 C117 1.387 . S
C121 C120 1.409 . S
C121 H123 0.951 . S
C122 C117 1.491 . S
C122 C124 1.382 . S
C122 C126 1.404 . S
H123 C121 0.951 . S
C124 C122 1.382 . S
C124 C125 1.390 . S
C124 H129 0.949 . S
C125 C124 1.390 . S
C125 C130 1.399 . S
C126 C122 1.404 . S
C126 H127 0.950 . S
C126 C128 1.375 . S
H127 C126 0.950 . S
C128 C126 1.375 . S
C128 C130 1.382 . S
C128 H132 0.950 . S
H129 C124 0.949 . S
C130 C125 1.399 . S
C130 C128 1.382 . S
C130 H131 0.952 . S
H131 C130 0.952 . S
H132 C128 0.950 . S
H133 C134 0.949 . S
C134 H133 0.949 . S
C134 C135 1.395 . S
C134 C136 1.391 . S
C135 C134 1.395 . S
C135 C138 1.390 . S
C136 C134 1.391 . S
C136 C140 1.387 . S
C136 C141 1.491 . S
H137 C138 0.950 . S
C138 C135 1.390 . S
C138 H137 0.950 . S
C138 C139 1.378 . S
C139 C138 1.378 . S
C139 C140 1.409 . S
C140 C136 1.387 . S
C140 C139 1.409 . S
C140 H142 0.951 . S
C141 C136 1.491 . S
C141 C143 1.382 . S
C141 C145 1.404 . S
H142 C140 0.951 . S
C143 C141 1.382 . S
C143 C144 1.390 . S
C143 H148 0.949 . S
C144 C143 1.390 . S
C144 C149 1.399 . S
C145 C141 1.404 . S
C145 H146 0.950 . S
C145 C147 1.375 . S
H146 C145 0.950 . S
C147 C145 1.375 . S
C147 C149 1.382 . S
C147 H151 0.950 . S
H148 C143 0.949 . S
C149 C144 1.399 . S
C149 C147 1.382 . S
C149 H150 0.952 . S
H150 C149 0.952 . S
H151 C147 0.950 . S
H152 C153 0.949 . S
C153 H152 0.949 . S
C153 C154 1.395 . S
C153 C155 1.391 . S
C154 C153 1.395 . S
C154 C157 1.390 . S
C155 C153 1.391 . S
C155 C159 1.387 . S
C155 C160 1.491 . S
H156 C157 0.950 . S
C157 C154 1.390 . S
C157 H156 0.950 . S
C157 C158 1.378 . S
C158 C157 1.378 . S
C158 C159 1.409 . S
C159 C155 1.387 . S
C159 C158 1.409 . S
C159 H161 0.951 . S
C160 C155 1.491 . S
C160 C162 1.382 . S
C160 C164 1.404 . S
H161 C159 0.951 . S
C162 C160 1.382 . S
C162 C163 1.390 . S
C162 H167 0.949 . S
C163 C162 1.390 . S
C163 C168 1.399 . S
C164 C160 1.404 . S
C164 H165 0.950 . S
C164 C166 1.375 . S
H165 C164 0.950 . S
C166 C164 1.375 . S
C166 C168 1.382 . S
C166 H170 0.950 . S
H167 C162 0.949 . S
C168 C163 1.399 . S
C168 C166 1.382 . S
C168 H169 0.952 . S
H169 C168 0.952 . S
H170 C166 0.950 . S
H171 C172 0.949 . S
C172 H171 0.949 . S
C172 C173 1.395 . S
C172 C174 1.391 . S
C173 C172 1.395 . S
C173 C176 1.390 . S
C174 C172 1.391 . S
C174 C178 1.387 . S
C174 C179 1.491 . S
H175 C176 0.950 . S
C176 C173 1.390 . S
C176 H175 0.950 . S
C176 C177 1.378 . S
C177 C176 1.378 . S
C177 C178 1.409 . S
C178 C174 1.387 . S
C178 C177 1.409 . S
C178 H180 0.951 . S
C179 C174 1.491 . S
C179 C181 1.382 . S
C179 C183 1.404 . S
H180 C178 0.951 . S
C181 C179 1.382 . S
C181 C182 1.390 . S
C181 H186 0.949 . S
C182 C181 1.390 . S
C182 C187 1.399 . S
C183 C179 1.404 . S
C183 H184 0.950 . S
C183 C185 1.375 . S
H184 C183 0.950 . S
C185 C183 1.375 . S
C185 C187 1.382 . S
C185 H189 0.950 . S
H186 C181 0.949 . S
C187 C182 1.399 . S
C187 C185 1.382 . S
C187 H188 0.952 . S
H188 C187 0.952 . S
H189 C185 0.950 . S
H190 C191 0.949 . S
C191 H190 0.949 . S
C191 C192 1.395 . S
C191 C193 1.391 . S
C192 C191 1.395 . S
C192 C195 1.390 . S
C193 C191 1.391 . S
C193 C197 1.387 . S
C193 C198 1.491 . S
H194 C195 0.950 . S
C195 C192 1.390 . S
C195 H194 0.950 . S
C195 C196 1.378 . S
C196 C195 1.378 . S
C196 C197 1.409 . S
C197 C193 1.387 . S
C197 C196 1.409 . S
C197 H199 0.951 . S
C198 C193 1.491 . S
C198 C200 1.382 . S
C198 C202 1.404 . S
H199 C197 0.951 . S
C200 C198 1.382 . S
C200 C201 1.390 . S
C200 H205 0.949 . S
C201 C200 1.390 . S
C201 C206 1.399 . S
C202 C198 1.404 . S
C202 H203 0.950 . S
C202 C204 1.375 . S
H203 C202 0.950 . S
C204 C202 1.375 . S
C204 C206 1.382 . S
C204 H208 0.950 . S
H205 C200 0.949 . S
C206 C201 1.399 . S
C206 C204 1.382 . S
C206 H207 0.952 . S
H207 C206 0.952 . S
H208 C204 0.950 . S
H209 C210 0.949 . S
C210 H209 0.949 . S
C210 C211 1.395 . S
C210 C212 1.391 . S
C211 C210 1.395 . S
C211 C214 1.390 . S
C212 C210 1.391 . S
C212 C216 1.387 . S
C212 C217 1.491 . S
H213 C214 0.950 . S
C214 C211 1.390 . S
C214 H213 0.950 . S
C214 C215 1.378 . S
C215 C214 1.378 . S
C215 C216 1.409 . S
C216 C212 1.387 . S
C216 C215 1.409 . S
C216 H218 0.951 . S
C217 C212 1.491 . S
C217 C219 1.382 . S
C217 C221 1.404 . S
H218 C216 0.951 . S
C219 C217 1.382 . S
C219 C220 1.390 . S
C219 H224 0.949 . S
C220 C219 1.390 . S
C220 C225 1.399 . S
C221 C217 1.404 . S
C221 H222 0.950 . S
C221 C223 1.375 . S
H222 C221 0.950 . S
C223 C221 1.375 . S
C223 C225 1.382 . S
C223 H227 0.950 . S
H224 C219 0.949 . S
C225 C220 1.399 . S
C225 C223 1.382 . S
C225 H226 0.952 . S
H226 C225 0.952 . S
H227 C223 0.950 . S
H228 C229 0.949 . S
C229 H228 0.949 . S
C229 C230 1.395 . S
C229 C231 1.391 . S
C230 C229 1.395 . S
C230 C233 1.390 . S
C231 C229 1.391 . S
C231 C235 1.387 . S
C231 C236 1.491 . S
H232 C233 0.950 . S
C233 C230 1.390 . S
C233 H232 0.950 . S
C233 C234 1.378 . S
C234 C233 1.378 . S
C234 C235 1.409 . S
C235 C231 1.387 . S
C235 C234 1.409 . S
C235 H237 0.951 . S
C236 C231 1.491 . S
C236 C238 1.382 . S
C236 C240 1.404 . S
H237 C235 0.951 . S
C238 C236 1.382 . S
C238 C239 1.390 . S
C238 H243 0.949 . S
C239 C238 1.390 . S
C239 C244 1.399 . S
C240 C236 1.404 . S
C240 H241 0.950 . S
C240 C242 1.375 . S
H241 C240 0.950 . S
C242 C240 1.375 . S
C242 C244 1.382 . S
C242 H246 0.950 . S
H243 C238 0.949 . S
C244 C239 1.399 . S
C244 C242 1.382 . S
C244 H245 0.952 . S
H245 C244 0.952 . S
H246 C242 0.950 . S
H247 C248 0.949 . S
C248 H247 0.949 . S
C248 C249 1.395 . S
C248 C250 1.391 . S
C249 C248 1.395 . S
C249 C252 1.390 . S
C250 C248 1.391 . S
C250 C254 1.387 . S
C250 C255 1.491 . S
H251 C252 0.950 . S
C252 C249 1.390 . S
C252 H251 0.950 . S
C252 C253 1.378 . S
C253 C252 1.378 . S
C253 C254 1.409 . S
C254 C250 1.387 . S
C254 C253 1.409 . S
C254 H256 0.951 . S
C255 C250 1.491 . S
C255 C257 1.382 . S
C255 C259 1.404 . S
H256 C254 0.951 . S
C257 C255 1.382 . S
C257 C258 1.390 . S
C257 H262 0.949 . S
C258 C257 1.390 . S
C258 C263 1.399 . S
C259 C255 1.404 . S
C259 H260 0.950 . S
C259 C261 1.375 . S
H260 C259 0.950 . S
C261 C259 1.375 . S
C261 C263 1.382 . S
C261 H265 0.950 . S
H262 C257 0.949 . S
C263 C258 1.399 . S
C263 C261 1.382 . S
C263 H264 0.952 . S
H264 C263 0.952 . S
H265 C261 0.950 . S
H266 C267 0.949 . S
C267 H266 0.949 . S
C267 C268 1.395 . S
C267 C269 1.391 . S
C268 C267 1.395 . S
C268 C271 1.390 . S
C269 C267 1.391 . S
C269 C273 1.387 . S
C269 C274 1.491 . S
H270 C271 0.950 . S
C271 C268 1.390 . S
C271 H270 0.950 . S
C271 C272 1.378 . S
C272 C271 1.378 . S
C272 C273 1.409 . S
C273 C269 1.387 . S
C273 C272 1.409 . S
C273 H275 0.951 . S
C274 C269 1.491 . S
C274 C276 1.382 . S
C274 C278 1.404 . S
H275 C273 0.951 . S
C276 C274 1.382 . S
C276 C277 1.390 . S
C276 H281 0.949 . S
C277 C276 1.390 . S
C277 C282 1.399 . S
C278 C274 1.404 . S
C278 H279 0.950 . S
C278 C280 1.375 . S
H279 C278 0.950 . S
C280 C278 1.375 . S
C280 C282 1.382 . S
C280 H284 0.950 . S
H281 C276 0.949 . S
C282 C277 1.399 . S
C282 C280 1.382 . S
C282 H283 0.952 . S
H283 C282 0.952 . S
H284 C280 0.950 . S
H285 C286 0.949 . S
C286 H285 0.949 . S
C286 C287 1.395 . S
C286 C288 1.391 . S
C287 C286 1.395 . S
C287 C290 1.390 . S
C288 C286 1.391 . S
C288 C292 1.387 . S
C288 C293 1.491 . S
H289 C290 0.950 . S
C290 C287 1.390 . S
C290 H289 0.950 . S
C290 C291 1.378 . S
C291 C290 1.378 . S
C291 C292 1.409 . S
C292 C288 1.387 . S
C292 C291 1.409 . S
C292 H294 0.951 . S
C293 C288 1.491 . S
C293 C295 1.382 . S
C293 C297 1.404 . S
H294 C292 0.951 . S
C295 C293 1.382 . S
C295 C296 1.390 . S
C295 H300 0.949 . S
C296 C295 1.390 . S
C296 C301 1.399 . S
C297 C293 1.404 . S
C297 H298 0.950 . S
C297 C299 1.375 . S
H298 C297 0.950 . S
C299 C297 1.375 . S
C299 C301 1.382 . S
C299 H303 0.950 . S
H300 C295 0.949 . S
C301 C296 1.399 . S
C301 C299 1.382 . S
C301 H302 0.952 . S
H302 C301 0.952 . S
H303 C299 0.950 . S
O304 Cd305 2.223 . S
O304 C312 1.315 . S
Cd305 O304 2.223 . S
Cd305 O308 2.297 . S
Cd305 O309 2.439 . S
Cd305 O315 2.240 . S
Cd306 O307 2.240 . S
Cd306 O314 2.223 . S
Cd306 O316 2.297 . S
Cd306 O317 2.439 . S
O307 Cd306 2.240 . S
O307 C312 1.279 . S
O308 Cd305 2.297 . S
O308 C310 1.247 . S
O309 Cd305 2.439 . S
O309 C310 1.208 . S
C310 O308 1.247 . S
C310 O309 1.208 . S
C311 O316 1.247 . S
C311 O317 1.208 . S
C312 O304 1.315 . S
C312 O307 1.279 . S
C313 O314 1.315 . S
C313 O315 1.279 . S
O314 Cd306 2.223 . S
O314 C313 1.315 . S
O315 Cd305 2.240 . S
O315 C313 1.279 . S
O316 Cd306 2.297 . S
O316 C311 1.247 . S
O317 Cd306 2.439 . S
O317 C311 1.208 . S
O318 Cd319 2.223 . S
O318 C326 1.315 . S
Cd319 O318 2.223 . S
Cd319 O322 2.297 . S
Cd319 O323 2.439 . S
Cd319 O329 2.240 . S
Cd320 O321 2.240 . S
Cd320 O328 2.223 . S
Cd320 O330 2.297 . S
Cd320 O331 2.439 . S
O321 Cd320 2.240 . S
O321 C326 1.279 . S
O322 Cd319 2.297 . S
O322 C324 1.247 . S
O323 Cd319 2.439 . S
O323 C324 1.208 . S
C324 O322 1.247 . S
C324 O323 1.208 . S
C325 O330 1.247 . S
C325 O331 1.208 . S
C326 O318 1.315 . S
C326 O321 1.279 . S
C327 O328 1.315 . S
C327 O329 1.279 . S
O328 Cd320 2.223 . S
O328 C327 1.315 . S
O329 Cd319 2.240 . S
O329 C327 1.279 . S
O330 Cd320 2.297 . S
O330 C325 1.247 . S
O331 Cd320 2.439 . S
O331 C325 1.208 . S
O332 Cd333 2.223 1_556 S
O332 C340 1.315 . S
Cd333 O332 2.223 1_554 S
Cd333 O336 2.297 . S
Cd333 O337 2.439 . S
Cd333 O343 2.236 1_554 S
Cd334 O335 2.240 . S
Cd334 O342 2.223 . S
Cd334 O344 2.297 . S
Cd334 O345 2.439 1_556 S
O335 Cd334 2.240 . S
O335 C340 1.279 . S
O336 Cd333 2.297 . S
O336 C338 1.247 . S
O337 Cd333 2.439 . S
O337 C338 1.208 . S
C338 O336 1.247 . S
C338 O337 1.208 . S
C339 O344 1.247 1_554 S
C339 O345 1.208 . S
C340 O332 1.315 . S
C340 O335 1.279 . S
C341 O342 1.315 . S
C341 O343 1.296 . S
O342 Cd334 2.223 . S
O342 C341 1.315 . S
O343 Cd333 2.236 1_556 S
O343 C341 1.296 . S
O344 Cd334 2.297 . S
O344 C339 1.247 1_556 S
O345 Cd334 2.439 1_554 S
O345 C339 1.208 . S
O346 Cd347 2.223 1_455 S
O346 C354 1.315 . S
Cd347 O346 2.223 1_655 S
Cd347 O350 2.297 1_655 S
Cd347 O351 2.439 1_655 S
Cd347 O357 2.240 . S
Cd348 O349 2.240 . S
Cd348 O356 2.223 . S
Cd348 O358 2.297 . S
Cd348 O359 2.439 . S
O349 Cd348 2.240 . S
O349 C354 1.279 1_655 S
O350 Cd347 2.297 1_455 S
O350 C352 1.247 . S
O351 Cd347 2.439 1_455 S
O351 C352 1.208 . S
C352 O350 1.247 . S
C352 O351 1.208 . S
C353 O358 1.247 . S
C353 O359 1.208 . S
C354 O346 1.315 . S
C354 O349 1.279 1_455 S
C355 O356 1.315 . S
C355 O357 1.279 . S
O356 Cd348 2.223 . S
O356 C355 1.315 . S
O357 Cd347 2.240 . S
O357 C355 1.279 . S
O358 Cd348 2.297 . S
O358 C353 1.247 . S
O359 Cd348 2.439 . S
O359 C353 1.208 . S
O360 Cd361 2.223 . S
O360 C368 1.315 . S
Cd361 O360 2.223 . S
Cd361 O364 2.297 . S
Cd361 O365 2.439 . S
Cd361 O371 2.240 . S
Cd362 O363 2.240 . S
Cd362 O370 2.223 . S
Cd362 O372 2.297 . S
Cd362 O373 2.439 . S
O363 Cd362 2.240 . S
O363 C368 1.279 . S
O364 Cd361 2.297 . S
O364 C366 1.247 . S
O365 Cd361 2.439 . S
O365 C366 1.208 . S
C366 O364 1.247 . S
C366 O365 1.208 . S
C367 O372 1.247 . S
C367 O373 1.208 . S
C368 O360 1.315 . S
C368 O363 1.279 . S
C369 O370 1.315 . S
C369 O371 1.279 . S
O370 Cd362 2.223 . S
O370 C369 1.315 . S
O371 Cd361 2.240 . S
O371 C369 1.279 . S
O372 Cd362 2.297 . S
O372 C367 1.247 . S
O373 Cd362 2.439 . S
O373 C367 1.208 . S
O374 Cd375 2.223 . S
O374 C382 1.315 . S
Cd375 O374 2.223 . S
Cd375 O378 2.297 . S
Cd375 O379 2.439 . S
Cd375 O385 2.240 . S
Cd376 O377 2.240 . S
Cd376 O384 2.223 . S
Cd376 O386 2.297 . S
Cd376 O387 2.439 . S
O377 Cd376 2.240 . S
O377 C382 1.279 . S
O378 Cd375 2.297 . S
O378 C380 1.247 . S
O379 Cd375 2.439 . S
O379 C380 1.208 . S
C380 O378 1.247 . S
C380 O379 1.208 . S
C381 O386 1.247 . S
C381 O387 1.208 . S
C382 O374 1.315 . S
C382 O377 1.279 . S
C383 O384 1.315 . S
C383 O385 1.279 . S
O384 Cd376 2.223 . S
O384 C383 1.315 . S
O385 Cd375 2.240 . S
O385 C383 1.279 . S
O386 Cd376 2.297 . S
O386 C381 1.247 . S
O387 Cd376 2.439 . S
O387 C381 1.208 . S
O388 Cd389 2.223 . S
O388 C396 1.315 . S
Cd389 O388 2.223 . S
Cd389 O392 2.297 . S
Cd389 O393 2.439 . S
Cd389 O399 2.240 . S
Cd390 O391 2.240 . S
Cd390 O398 2.223 . S
Cd390 O400 2.297 . S
Cd390 O401 2.439 . S
O391 Cd390 2.240 . S
O391 C396 1.279 . S
O392 Cd389 2.297 . S
O392 C394 1.247 . S
O393 Cd389 2.439 . S
O393 C394 1.208 . S
C394 O392 1.247 . S
C394 O393 1.208 . S
C395 O400 1.247 . S
C395 O401 1.208 . S
C396 O388 1.315 . S
C396 O391 1.279 . S
C397 O398 1.315 . S
C397 O399 1.279 . S
O398 Cd390 2.223 . S
O398 C397 1.315 . S
O399 Cd389 2.240 . S
O399 C397 1.279 . S
O400 Cd390 2.297 . S
O400 C395 1.247 . S
O401 Cd390 2.439 . S
O401 C395 1.208 . S
O402 Cd403 2.223 1_545 S
O402 C410 1.315 . S
Cd403 O402 2.223 1_565 S
Cd403 O406 2.297 . S
Cd403 O407 2.439 . S
Cd403 O413 2.240 1_565 S
Cd404 O405 2.240 . S
Cd404 O412 2.223 . S
Cd404 O414 2.293 1_545 S
Cd404 O415 2.439 1_545 S
O405 Cd404 2.240 . S
O405 C410 1.279 . S
O406 Cd403 2.297 . S
O406 C408 1.247 . S
O407 Cd403 2.439 . S
O407 C408 1.208 . S
C408 O406 1.247 . S
C408 O407 1.208 . S
C409 O414 1.273 . S
C409 O415 1.208 . S
C410 O402 1.315 . S
C410 O405 1.279 . S
C411 O412 1.315 . S
C411 O413 1.279 . S
O412 Cd404 2.223 . S
O412 C411 1.315 . S
O413 Cd403 2.240 1_545 S
O413 C411 1.279 . S
O414 Cd404 2.293 1_565 S
O414 C409 1.273 . S
O415 Cd404 2.439 1_565 S
O415 C409 1.208 . S
O416 Cd417 2.223 . S
O416 C424 1.315 . S
Cd417 O416 2.223 . S
Cd417 O420 2.297 1_655 S
Cd417 O421 2.439 1_655 S
Cd417 O427 2.240 . S
Cd418 O419 2.240 . S
Cd418 O426 2.223 1_455 S
Cd418 O428 2.297 . S
Cd418 O429 2.439 . S
O419 Cd418 2.240 . S
O419 C424 1.279 1_455 S
O420 Cd417 2.297 1_455 S
O420 C422 1.247 . S
O421 Cd417 2.439 1_455 S
O421 C422 1.208 . S
C422 O420 1.247 . S
C422 O421 1.208 . S
C423 O428 1.247 . S
C423 O429 1.208 . S
C424 O416 1.315 . S
C424 O419 1.279 1_655 S
C425 O426 1.315 . S
C425 O427 1.279 . S
O426 Cd418 2.223 1_655 S
O426 C425 1.315 . S
O427 Cd417 2.240 . S
O427 C425 1.279 . S
O428 Cd418 2.297 . S
O428 C423 1.247 . S
O429 Cd418 2.439 . S
O429 C423 1.208 . S
O430 Cd431 2.223 . S
O430 C438 1.315 . S
Cd431 O430 2.223 . S
Cd431 O434 2.297 . S
Cd431 O435 2.439 . S
Cd431 O441 2.240 . S
Cd432 O433 2.240 . S
Cd432 O440 2.223 . S
Cd432 O442 2.297 . S
Cd432 O443 2.439 . S
O433 Cd432 2.240 . S
O433 C438 1.279 . S
O434 Cd431 2.297 . S
O434 C436 1.247 . S
O435 Cd431 2.439 . S
O435 C436 1.208 . S
C436 O434 1.247 . S
C436 O435 1.208 . S
C437 O442 1.247 . S
C437 O443 1.208 . S
C438 O430 1.315 . S
C438 O433 1.279 . S
C439 O440 1.315 . S
C439 O441 1.279 . S
O440 Cd432 2.223 . S
O440 C439 1.315 . S
O441 Cd431 2.240 . S
O441 C439 1.279 . S
O442 Cd432 2.297 . S
O442 C437 1.247 . S
O443 Cd432 2.439 . S
O443 C437 1.208 . S
O444 Cd445 2.223 1_655 S
O444 C452 1.315 . S
Cd445 O444 2.223 1_455 S
Cd445 O448 2.297 . S
Cd445 O449 2.439 . S
Cd445 O455 2.240 . S
Cd446 O447 2.240 . S
Cd446 O454 2.223 1_455 S
Cd446 O456 2.297 . S
Cd446 O457 2.439 . S
O447 Cd446 2.240 . S
O447 C452 1.279 1_455 S
O448 Cd445 2.297 . S
O448 C450 1.247 . S
O449 Cd445 2.439 . S
O449 C450 1.208 . S
C450 O448 1.247 . S
C450 O449 1.208 . S
C451 O456 1.247 . S
C451 O457 1.208 . S
C452 O444 1.315 . S
C452 O447 1.279 1_655 S
C453 O454 1.315 . S
C453 O455 1.279 1_655 S
O454 Cd446 2.223 1_655 S
O454 C453 1.315 . S
O455 Cd445 2.240 . S
O455 C453 1.279 1_455 S
O456 Cd446 2.297 . S
O456 C451 1.247 . S
O457 Cd446 2.439 . S
O457 C451 1.208 . S
O458 Cd459 2.223 . S
O458 C466 1.315 . S
Cd459 O458 2.223 . S
Cd459 O462 2.297 . S
Cd459 O463 2.439 . S
Cd459 O469 2.240 . S
Cd460 O461 2.240 . S
Cd460 O468 2.223 . S
Cd460 O470 2.297 . S
Cd460 O471 2.439 . S
O461 Cd460 2.240 . S
O461 C466 1.279 . S
O462 Cd459 2.297 . S
O462 C464 1.247 . S
O463 Cd459 2.439 . S
O463 C464 1.208 . S
C464 O462 1.247 . S
C464 O463 1.208 . S
C465 O470 1.247 . S
C465 O471 1.208 . S
C466 O458 1.315 . S
C466 O461 1.279 . S
C467 O468 1.315 . S
C467 O469 1.279 . S
O468 Cd460 2.223 . S
O468 C467 1.315 . S
O469 Cd459 2.240 . S
O469 C467 1.279 . S
O470 Cd460 2.297 . S
O470 C465 1.247 . S
O471 Cd460 2.439 . S
O471 C465 1.208 . S
C472 C473 1.391 . S
C472 C474 1.394 . S
C472 H488 0.931 . S
C473 C472 1.391 . S
C473 C477 1.376 . S
C474 C472 1.394 . S
C474 C475 1.369 . S
C474 C478 1.531 . S
C475 C474 1.369 . S
C475 C476 1.410 . S
C475 C483 1.503 . S
C476 C475 1.410 . S
C476 C477 1.392 . S
C476 C479 1.511 . S
C477 C473 1.376 . S
C477 C476 1.392 . S
C477 H489 0.929 . S
C478 C474 1.531 . S
C478 H490 0.960 . S
C478 H491 0.962 . S
C478 H492 0.960 . S
C479 C476 1.511 . S
C479 H493 0.961 . S
C479 H494 0.961 . S
C479 H495 0.961 . S
C480 C481 1.370 . S
C480 C482 1.363 1_554 S
C480 H496 0.931 . S
C481 C480 1.370 . S
C481 C485 1.411 1_554 S
C482 C480 1.363 1_556 S
C482 C483 1.370 . S
C482 C486 1.524 . S
C483 C475 1.503 . S
C483 C482 1.370 . S
C483 C484 1.403 . S
C484 C483 1.403 . S
C484 C485 1.402 . S
C484 C487 1.539 . S
C485 C481 1.411 1_556 S
C485 C484 1.402 . S
C485 H497 0.934 1_556 S
C486 C482 1.524 . S
C486 H498 0.956 . S
C486 H499 0.961 . S
C486 H500 0.961 1_556 S
C487 C484 1.539 . S
C487 H501 0.958 . S
C487 H502 0.961 . S
C487 H503 0.960 . S
H488 C472 0.931 . S
H489 C477 0.929 . S
H490 C478 0.960 . S
H491 C478 0.962 . S
H492 C478 0.960 . S
H493 C479 0.961 . S
H494 C479 0.961 . S
H495 C479 0.961 . S
H496 C480 0.931 . S
H497 C485 0.934 1_554 S
H498 C486 0.956 . S
H499 C486 0.961 . S
H500 C486 0.961 1_554 S
H501 C487 0.958 . S
H502 C487 0.961 . S
H503 C487 0.960 . S
C504 C505 1.391 . S
C504 C506 1.394 1_655 S
C504 H520 0.931 . S
C505 C504 1.391 . S
C505 C509 1.376 . S
C506 C504 1.394 1_455 S
C506 C507 1.369 . S
C506 C510 1.531 . S
C507 C506 1.369 . S
C507 C508 1.410 1_455 S
C507 C515 1.503 . S
C508 C507 1.410 1_655 S
C508 C509 1.392 . S
C508 C511 1.511 . S
C509 C505 1.376 . S
C509 C508 1.392 . S
C509 H521 0.929 . S
C510 C506 1.531 . S
C510 H522 0.960 . S
C510 H523 0.962 . S
C510 H524 0.960 . S
C511 C508 1.511 . S
C511 H525 0.961 . S
C511 H526 0.961 1_655 S
C511 H527 0.961 . S
C512 C513 1.370 . S
C512 C514 1.363 . S
C512 H528 0.931 . S
C513 C512 1.370 . S
C513 C517 1.408 . S
C514 C512 1.363 . S
C514 C515 1.370 . S
C514 C518 1.524 . S
C515 C507 1.503 . S
C515 C514 1.370 . S
C515 C516 1.403 . S
C516 C515 1.403 . S
C516 C517 1.404 . S
C516 C519 1.539 1_455 S
C517 C513 1.408 . S
C517 C516 1.404 . S
C517 H529 0.930 . S
C518 C514 1.524 . S
C518 H530 0.956 . S
C518 H531 0.961 . S
C518 H532 0.961 . S
C519 C516 1.539 1_655 S
C519 H533 0.958 . S
C519 H534 0.961 . S
C519 H535 0.960 . S
H520 C504 0.931 . S
H521 C509 0.929 . S
H522 C510 0.960 . S
H523 C510 0.962 . S
H524 C510 0.960 . S
H525 C511 0.961 . S
H526 C511 0.961 1_455 S
H527 C511 0.961 . S
H528 C512 0.931 . S
H529 C517 0.930 . S
H530 C518 0.956 . S
H531 C518 0.961 . S
H532 C518 0.961 . S
H533 C519 0.958 . S
H534 C519 0.961 . S
H535 C519 0.960 . S
C536 C537 1.391 . S
C536 C538 1.394 . S
C536 H552 0.931 . S
C537 C536 1.391 . S
C537 C541 1.376 . S
C538 C536 1.394 . S
C538 C539 1.369 . S
C538 C542 1.531 . S
C539 C538 1.369 . S
C539 C540 1.410 . S
C539 C547 1.503 . S
C540 C539 1.410 . S
C540 C541 1.392 . S
C540 C543 1.511 . S
C541 C537 1.376 . S
C541 C540 1.392 . S
C541 H553 0.929 . S
C542 C538 1.531 . S
C542 H554 0.960 . S
C542 H555 0.962 . S
C542 H556 0.960 . S
C543 C540 1.511 . S
C543 H557 0.961 . S
C543 H558 0.961 . S
C543 H559 0.961 . S
C544 C545 1.370 . S
C544 C546 1.363 . S
C544 H560 0.931 . S
C545 C544 1.370 . S
C545 C549 1.408 . S
C546 C544 1.363 . S
C546 C547 1.370 . S
C546 C550 1.524 . S
C547 C539 1.503 . S
C547 C546 1.370 . S
C547 C548 1.403 . S
C548 C547 1.403 . S
C548 C549 1.404 . S
C548 C551 1.539 . S
C549 C545 1.408 . S
C549 C548 1.404 . S
C549 H561 0.930 . S
C550 C546 1.524 . S
C550 H562 0.956 . S
C550 H563 0.961 . S
C550 H564 0.961 . S
C551 C548 1.539 . S
C551 H565 0.958 . S
C551 H566 0.961 . S
C551 H567 0.960 . S
H552 C536 0.931 . S
H553 C541 0.929 . S
H554 C542 0.960 . S
H555 C542 0.962 . S
H556 C542 0.960 . S
H557 C543 0.961 . S
H558 C543 0.961 . S
H559 C543 0.961 . S
H560 C544 0.931 . S
H561 C549 0.930 . S
H562 C550 0.956 . S
H563 C550 0.961 . S
H564 C550 0.961 . S
H565 C551 0.958 . S
H566 C551 0.961 . S
H567 C551 0.960 . S
C568 C569 1.391 . S
C568 C570 1.394 . S
C568 H584 0.931 . S
C569 C568 1.391 . S
C569 C573 1.376 . S
C570 C568 1.394 . S
C570 C571 1.369 . S
C570 C574 1.531 . S
C571 C570 1.369 . S
C571 C572 1.410 . S
C571 C579 1.503 1_565 S
C572 C571 1.410 . S
C572 C573 1.392 . S
C572 C575 1.511 1_565 S
C573 C569 1.376 . S
C573 C572 1.392 . S
C573 H585 0.929 . S
C574 C570 1.531 . S
C574 H586 0.960 . S
C574 H587 0.962 . S
C574 H588 0.960 . S
C575 C572 1.511 1_545 S
C575 H589 0.961 . S
C575 H590 0.961 . S
C575 H591 0.961 1_545 S
C576 C577 1.370 . S
C576 C578 1.363 . S
C576 H592 0.931 . S
C577 C576 1.370 . S
C577 C581 1.408 . S
C578 C576 1.363 . S
C578 C579 1.370 . S
C578 C582 1.524 . S
C579 C571 1.503 1_545 S
C579 C578 1.370 . S
C579 C580 1.403 1_545 S
C580 C579 1.403 1_565 S
C580 C581 1.404 1_565 S
C580 C583 1.539 . S
C581 C577 1.408 . S
C581 C580 1.404 1_545 S
C581 H593 0.939 1_455 S
C582 C578 1.524 . S
C582 H594 0.956 . S
C582 H595 0.961 . S
C582 H596 0.961 . S
C583 C580 1.539 . S
C583 H597 0.958 . S
C583 H598 0.961 1_455 S
C583 H599 0.960 . S
H584 C568 0.931 . S
H585 C573 0.929 . S
H586 C574 0.960 . S
H587 C574 0.962 . S
H588 C574 0.960 . S
H589 C575 0.961 . S
H590 C575 0.961 . S
H591 C575 0.961 1_565 S
H592 C576 0.931 . S
H593 C581 0.939 1_655 S
H594 C582 0.956 . S
H595 C582 0.961 . S
H596 C582 0.961 . S
H597 C583 0.958 . S
H598 C583 0.961 1_655 S
H599 C583 0.960 . S
C600 C601 1.391 . S
C600 C602 1.394 . S
C600 H616 0.931 . S
C601 C600 1.391 . S
C601 C605 1.376 . S
C602 C600 1.394 . S
C602 C603 1.369 . S
C602 C606 1.531 . S
C603 C602 1.369 . S
C603 C604 1.410 . S
C603 C611 1.503 . S
C604 C603 1.410 . S
C604 C605 1.392 . S
C604 C607 1.511 . S
C605 C601 1.376 . S
C605 C604 1.392 . S
C605 H617 0.929 . S
C606 C602 1.531 . S
C606 H618 0.960 . S
C606 H619 0.962 . S
C606 H620 0.960 . S
C607 C604 1.511 . S
C607 H621 0.961 . S
C607 H622 0.961 . S
C607 H623 0.961 . S
C608 C609 1.370 . S
C608 C610 1.363 . S
C608 H624 0.931 . S
C609 C608 1.370 . S
C609 C613 1.408 . S
C610 C608 1.363 . S
C610 C611 1.370 . S
C610 C614 1.524 . S
C611 C603 1.503 . S
C611 C610 1.370 . S
C611 C612 1.403 . S
C612 C611 1.403 . S
C612 C613 1.404 . S
C612 C615 1.539 . S
C613 C609 1.408 . S
C613 C612 1.404 . S
C613 H625 0.930 . S
C614 C610 1.524 . S
C614 H626 0.956 . S
C614 H627 0.961 . S
C614 H628 0.961 . S
C615 C612 1.539 . S
C615 H629 0.958 . S
C615 H630 0.961 . S
C615 H631 0.960 . S
H616 C600 0.931 . S
H617 C605 0.929 . S
H618 C606 0.960 . S
H619 C606 0.962 . S
H620 C606 0.960 . S
H621 C607 0.961 . S
H622 C607 0.961 . S
H623 C607 0.961 . S
H624 C608 0.931 . S
H625 C613 0.930 . S
H626 C614 0.956 . S
H627 C614 0.961 . S
H628 C614 0.961 . S
H629 C615 0.958 . S
H630 C615 0.961 . S
H631 C615 0.960 . S
C632 C633 1.391 . S
C632 C634 1.394 . S
C632 H648 0.931 . S
C633 C632 1.391 . S
C633 C637 1.376 . S
C634 C632 1.394 . S
C634 C635 1.369 . S
C634 C638 1.531 . S
C635 C634 1.369 . S
C635 C636 1.410 . S
C635 C643 1.503 . S
C636 C635 1.410 . S
C636 C637 1.392 . S
C636 C639 1.511 . S
C637 C633 1.376 . S
C637 C636 1.392 . S
C637 H649 0.929 . S
C638 C634 1.531 . S
C638 H650 0.960 . S
C638 H651 0.962 . S
C638 H652 0.960 . S
C639 C636 1.511 . S
C639 H653 0.961 . S
C639 H654 0.961 . S
C639 H655 0.961 . S
C640 C641 1.370 . S
C640 C642 1.363 . S
C640 H656 0.931 . S
C641 C640 1.370 . S
C641 C645 1.408 . S
C642 C640 1.363 . S
C642 C643 1.370 . S
C642 C646 1.524 . S
C643 C635 1.503 . S
C643 C642 1.370 . S
C643 C644 1.403 . S
C644 C643 1.403 . S
C644 C645 1.404 . S
C644 C647 1.539 . S
C645 C641 1.408 . S
C645 C644 1.404 . S
C645 H657 0.930 . S
C646 C642 1.524 . S
C646 H658 0.956 . S
C646 H659 0.961 . S
C646 H660 0.961 . S
C647 C644 1.539 . S
C647 H661 0.958 . S
C647 H662 0.961 . S
C647 H663 0.960 . S
H648 C632 0.931 . S
H649 C637 0.929 . S
H650 C638 0.960 . S
H651 C638 0.962 . S
H652 C638 0.960 . S
H653 C639 0.961 . S
H654 C639 0.961 . S
H655 C639 0.961 . S
H656 C640 0.931 . S
H657 C645 0.930 . S
H658 C646 0.956 . S
H659 C646 0.961 . S
H660 C646 0.961 . S
H661 C647 0.958 . S
H662 C647 0.961 . S
H663 C647 0.960 . S
C664 C665 1.391 . S
C664 C666 1.394 . S
C664 H680 0.931 . S
C665 C664 1.391 . S
C665 C669 1.376 . S
C666 C664 1.394 . S
C666 C667 1.369 . S
C666 C670 1.531 . S
C667 C666 1.369 . S
C667 C668 1.410 . S
C667 C675 1.503 . S
C668 C667 1.410 . S
C668 C669 1.392 . S
C668 C671 1.511 . S
C669 C665 1.376 . S
C669 C668 1.392 . S
C669 H681 0.929 . S
C670 C666 1.531 . S
C670 H682 0.960 . S
C670 H683 0.962 . S
C670 H684 0.960 . S
C671 C668 1.511 . S
C671 H685 0.961 . S
C671 H686 0.961 . S
C671 H687 0.961 . S
C672 C673 1.370 . S
C672 C674 1.363 . S
C672 H688 0.931 . S
C673 C672 1.370 . S
C673 C677 1.408 . S
C674 C672 1.363 . S
C674 C675 1.370 . S
C674 C678 1.524 . S
C675 C667 1.503 . S
C675 C674 1.370 . S
C675 C676 1.403 . S
C676 C675 1.403 . S
C676 C677 1.404 . S
C676 C679 1.539 . S
C677 C673 1.408 . S
C677 C676 1.404 . S
C677 H689 0.930 . S
C678 C674 1.524 . S
C678 H690 0.956 . S
C678 H691 0.961 . S
C678 H692 0.961 . S
C679 C676 1.539 . S
C679 H693 0.958 . S
C679 H694 0.961 . S
C679 H695 0.960 . S
H680 C664 0.931 . S
H681 C669 0.929 . S
H682 C670 0.960 . S
H683 C670 0.962 . S
H684 C670 0.960 . S
H685 C671 0.961 . S
H686 C671 0.961 . S
H687 C671 0.961 . S
H688 C672 0.931 . S
H689 C677 0.930 . S
H690 C678 0.956 . S
H691 C678 0.961 . S
H692 C678 0.961 . S
H693 C679 0.958 . S
H694 C679 0.961 . S
H695 C679 0.960 . S
C696 C697 1.391 . S
C696 C698 1.394 . S
C696 H712 0.931 . S
C697 C696 1.391 . S
C697 C701 1.376 . S
C698 C696 1.394 . S
C698 C699 1.369 . S
C698 C702 1.531 . S
C699 C698 1.369 . S
C699 C700 1.410 . S
C699 C707 1.503 . S
C700 C699 1.410 . S
C700 C701 1.392 . S
C700 C703 1.511 . S
C701 C697 1.376 . S
C701 C700 1.392 . S
C701 H713 0.929 . S
C702 C698 1.531 . S
C702 H714 0.960 . S
C702 H715 0.962 . S
C702 H716 0.960 . S
C703 C700 1.511 . S
C703 H717 0.961 . S
C703 H718 0.961 . S
C703 H719 0.961 . S
C704 C705 1.370 . S
C704 C706 1.363 . S
C704 H720 0.931 . S
C705 C704 1.370 . S
C705 C709 1.408 . S
C706 C704 1.363 . S
C706 C707 1.370 . S
C706 C710 1.524 . S
C707 C699 1.503 . S
C707 C706 1.370 . S
C707 C708 1.403 . S
C708 C707 1.403 . S
C708 C709 1.404 . S
C708 C711 1.539 . S
C709 C705 1.408 . S
C709 C708 1.404 . S
C709 H721 0.930 . S
C710 C706 1.524 . S
C710 H722 0.956 . S
C710 H723 0.961 . S
C710 H724 0.961 . S
C711 C708 1.539 . S
C711 H725 0.958 . S
C711 H726 0.961 1_565 S
C711 H727 0.960 . S
H712 C696 0.931 . S
H713 C701 0.929 . S
H714 C702 0.960 . S
H715 C702 0.962 . S
H716 C702 0.960 . S
H717 C703 0.961 . S
H718 C703 0.961 . S
H719 C703 0.961 . S
H720 C704 0.931 . S
H721 C709 0.930 . S
H722 C710 0.956 . S
H723 C710 0.961 . S
H724 C710 0.961 . S
H725 C711 0.958 . S
H726 C711 0.961 1_545 S
H727 C711 0.960 . S
C728 C729 1.391 . S
C728 C730 1.394 . S
C728 H744 0.931 . S
C729 C728 1.391 . S
C729 C733 1.376 . S
C730 C728 1.394 . S
C730 C731 1.369 . S
C730 C734 1.531 . S
C731 C730 1.369 . S
C731 C732 1.410 . S
C731 C739 1.503 . S
C732 C731 1.410 . S
C732 C733 1.392 . S
C732 C735 1.511 . S
C733 C729 1.376 . S
C733 C732 1.392 . S
C733 H745 0.929 . S
C734 C730 1.531 . S
C734 H746 0.960 . S
C734 H747 0.962 . S
C734 H748 0.960 . S
C735 C732 1.511 . S
C735 H749 0.961 . S
C735 H750 0.961 . S
C735 H751 0.961 . S
C736 C737 1.370 . S
C736 C738 1.363 . S
C736 H752 0.931 . S
C737 C736 1.370 . S
C737 C741 1.408 . S
C738 C736 1.363 . S
C738 C739 1.370 . S
C738 C742 1.524 . S
C739 C731 1.503 . S
C739 C738 1.370 . S
C739 C740 1.403 . S
C740 C739 1.403 . S
C740 C741 1.404 . S
C740 C743 1.539 . S
C741 C737 1.408 . S
C741 C740 1.404 . S
C741 H753 0.930 . S
C742 C738 1.524 . S
C742 H754 0.956 . S
C742 H755 0.961 . S
C742 H756 0.961 . S
C743 C740 1.539 . S
C743 H757 0.958 . S
C743 H758 0.961 . S
C743 H759 0.960 . S
H744 C728 0.931 . S
H745 C733 0.929 . S
H746 C734 0.960 . S
H747 C734 0.962 . S
H748 C734 0.960 . S
H749 C735 0.961 . S
H750 C735 0.961 . S
H751 C735 0.961 . S
H752 C736 0.931 . S
H753 C741 0.930 . S
H754 C742 0.956 . S
H755 C742 0.961 . S
H756 C742 0.961 . S
H757 C743 0.958 . S
H758 C743 0.961 . S
H759 C743 0.960 . S
C760 C761 1.391 . S
C760 C762 1.394 . S
C760 H776 0.931 . S
C761 C760 1.391 . S
C761 C765 1.376 . S
C762 C760 1.394 . S
C762 C763 1.369 . S
C762 C766 1.531 . S
C763 C762 1.369 . S
C763 C764 1.410 . S
C763 C771 1.503 . S
C764 C763 1.410 . S
C764 C765 1.392 . S
C764 C767 1.511 . S
C765 C761 1.376 . S
C765 C764 1.392 . S
C765 H777 0.929 . S
C766 C762 1.531 . S
C766 H778 0.960 . S
C766 H779 0.962 . S
C766 H780 0.960 . S
C767 C764 1.511 . S
C767 H781 0.961 . S
C767 H782 0.961 . S
C767 H783 0.961 . S
C768 C769 1.370 . S
C768 C770 1.363 . S
C768 H784 0.931 . S
C769 C768 1.370 . S
C769 C773 1.408 . S
C770 C768 1.363 . S
C770 C771 1.370 . S
C770 C774 1.524 . S
C771 C763 1.503 . S
C771 C770 1.370 . S
C771 C772 1.403 . S
C772 C771 1.403 . S
C772 C773 1.404 . S
C772 C775 1.539 . S
C773 C769 1.408 . S
C773 C772 1.404 . S
C773 H785 0.930 . S
C774 C770 1.524 . S
C774 H786 0.956 . S
C774 H787 0.961 . S
C774 H788 0.961 . S
C775 C772 1.539 . S
C775 H789 0.958 . S
C775 H790 0.961 . S
C775 H791 0.960 . S
H776 C760 0.931 . S
H777 C765 0.929 . S
H778 C766 0.960 . S
H779 C766 0.962 . S
H780 C766 0.960 . S
H781 C767 0.961 . S
H782 C767 0.961 . S
H783 C767 0.961 . S
H784 C768 0.931 . S
H785 C773 0.930 . S
H786 C774 0.956 . S
H787 C774 0.961 . S
H788 C774 0.961 . S
H789 C775 0.958 . S
H790 C775 0.961 . S
H791 C775 0.960 . S
C792 C793 1.391 . S
C792 C794 1.394 . S
C792 H808 0.931 . S
C793 C792 1.391 . S
C793 C797 1.376 . S
C794 C792 1.394 . S
C794 C795 1.369 . S
C794 C798 1.531 . S
C795 C794 1.369 . S
C795 C796 1.410 . S
C795 C803 1.503 . S
C796 C795 1.410 . S
C796 C797 1.392 . S
C796 C799 1.511 . S
C797 C793 1.376 . S
C797 C796 1.392 . S
C797 H809 0.929 . S
C798 C794 1.531 . S
C798 H810 0.960 . S
C798 H811 0.962 . S
C798 H812 0.960 . S
C799 C796 1.511 . S
C799 H813 0.961 . S
C799 H814 0.961 . S
C799 H815 0.961 . S
C800 C801 1.370 . S
C800 C802 1.363 . S
C800 H816 0.931 . S
C801 C800 1.370 . S
C801 C805 1.408 . S
C802 C800 1.363 . S
C802 C803 1.370 . S
C802 C806 1.524 . S
C803 C795 1.503 . S
C803 C802 1.370 . S
C803 C804 1.403 . S
C804 C803 1.403 . S
C804 C805 1.404 . S
C804 C807 1.539 . S
C805 C801 1.408 . S
C805 C804 1.404 . S
C805 H817 0.930 . S
C806 C802 1.524 . S
C806 H818 0.956 . S
C806 H819 0.961 . S
C806 H820 0.961 . S
C807 C804 1.539 . S
C807 H821 0.958 . S
C807 H822 0.961 . S
C807 H823 0.960 . S
H808 C792 0.931 . S
H809 C797 0.929 . S
H810 C798 0.960 . S
H811 C798 0.962 . S
H812 C798 0.960 . S
H813 C799 0.961 . S
H814 C799 0.961 . S
H815 C799 0.961 . S
H816 C800 0.931 . S
H817 C805 0.930 . S
H818 C806 0.956 . S
H819 C806 0.961 . S
H820 C806 0.961 . S
H821 C807 0.958 . S
H822 C807 0.961 . S
H823 C807 0.960 . S
C824 C825 1.391 . S
C824 C826 1.394 . S
C824 H840 0.931 . S
C825 C824 1.391 . S
C825 C829 1.376 . S
C826 C824 1.394 . S
C826 C827 1.369 . S
C826 C830 1.531 . S
C827 C826 1.369 . S
C827 C828 1.410 . S
C827 C835 1.503 . S
C828 C827 1.410 . S
C828 C829 1.392 . S
C828 C831 1.511 . S
C829 C825 1.376 . S
C829 C828 1.392 . S
C829 H841 0.929 . S
C830 C826 1.531 . S
C830 H842 0.960 . S
C830 H843 0.962 . S
C830 H844 0.960 . S
C831 C828 1.511 . S
C831 H845 0.961 . S
C831 H846 0.961 . S
C831 H847 0.961 . S
C832 C833 1.370 . S
C832 C834 1.363 . S
C832 H848 0.931 . S
C833 C832 1.370 . S
C833 C837 1.408 . S
C834 C832 1.363 . S
C834 C835 1.370 . S
C834 C838 1.524 . S
C835 C827 1.503 . S
C835 C834 1.370 . S
C835 C836 1.403 . S
C836 C835 1.403 . S
C836 C837 1.404 . S
C836 C839 1.539 . S
C837 C833 1.408 . S
C837 C836 1.404 . S
C837 H849 0.930 . S
C838 C834 1.524 . S
C838 H850 0.956 . S
C838 H851 0.961 . S
C838 H852 0.961 . S
C839 C836 1.539 . S
C839 H853 0.958 . S
C839 H854 0.961 . S
C839 H855 0.960 . S
H840 C824 0.931 . S
H841 C829 0.929 . S
H842 C830 0.960 . S
H843 C830 0.962 . S
H844 C830 0.960 . S
H845 C831 0.961 . S
H846 C831 0.961 . S
H847 C831 0.961 . S
H848 C832 0.931 . S
H849 C837 0.930 . S
H850 C838 0.956 . S
H851 C838 0.961 . S
H852 C838 0.961 . S
H853 C839 0.958 . S
H854 C839 0.961 . S
H855 C839 0.960 . S
C856 C857 1.391 . S
C856 C858 1.394 . S
C856 H872 0.931 . S
C857 C856 1.391 . S
C857 C861 1.376 . S
C858 C856 1.394 . S
C858 C859 1.369 . S
C858 C862 1.531 . S
C859 C858 1.369 . S
C859 C860 1.410 . S
C859 C867 1.503 . S
C860 C859 1.410 . S
C860 C861 1.392 . S
C860 C863 1.511 . S
C861 C857 1.376 . S
C861 C860 1.392 . S
C861 H873 0.929 . S
C862 C858 1.531 . S
C862 H874 0.960 . S
C862 H875 0.962 . S
C862 H876 0.960 . S
C863 C860 1.511 . S
C863 H877 0.961 . S
C863 H878 0.961 . S
C863 H879 0.961 . S
C864 C865 1.370 . S
C864 C866 1.363 . S
C864 H880 0.931 . S
C865 C864 1.370 . S
C865 C869 1.408 . S
C866 C864 1.363 . S
C866 C867 1.370 . S
C866 C870 1.524 . S
C867 C859 1.503 . S
C867 C866 1.370 . S
C867 C868 1.403 . S
C868 C867 1.403 . S
C868 C869 1.404 . S
C868 C871 1.539 . S
C869 C865 1.408 . S
C869 C868 1.404 . S
C869 H881 0.930 . S
C870 C866 1.524 . S
C870 H882 0.956 . S
C870 H883 0.961 . S
C870 H884 0.961 . S
C871 C868 1.539 . S
C871 H885 0.958 . S
C871 H886 0.961 . S
C871 H887 0.960 . S
H872 C856 0.931 . S
H873 C861 0.929 . S
H874 C862 0.960 . S
H875 C862 0.962 . S
H876 C862 0.960 . S
H877 C863 0.961 . S
H878 C863 0.961 . S
H879 C863 0.961 . S
H880 C864 0.931 . S
H881 C869 0.930 . S
H882 C870 0.956 . S
H883 C870 0.961 . S
H884 C870 0.961 . S
H885 C871 0.958 . S
H886 C871 0.961 . S
H887 C871 0.960 . S
C888 C889 1.391 . S
C888 C890 1.394 . S
C888 H904 0.931 . S
C889 C888 1.391 . S
C889 C893 1.376 . S
C890 C888 1.394 . S
C890 C891 1.369 . S
C890 C894 1.531 . S
C891 C890 1.369 . S
C891 C892 1.410 . S
C891 C899 1.503 . S
C892 C891 1.410 . S
C892 C893 1.392 . S
C892 C895 1.511 . S
C893 C889 1.376 . S
C893 C892 1.392 . S
C893 H905 0.929 . S
C894 C890 1.531 . S
C894 H906 0.960 . S
C894 H907 0.962 . S
C894 H908 0.960 . S
C895 C892 1.511 . S
C895 H909 0.961 . S
C895 H910 0.961 . S
C895 H911 0.961 . S
C896 C897 1.370 . S
C896 C898 1.363 . S
C896 H912 0.931 . S
C897 C896 1.370 . S
C897 C901 1.408 . S
C898 C896 1.363 . S
C898 C899 1.370 . S
C898 C902 1.524 . S
C899 C891 1.503 . S
C899 C898 1.370 . S
C899 C900 1.403 . S
C900 C899 1.403 . S
C900 C901 1.404 . S
C900 C903 1.539 . S
C901 C897 1.408 . S
C901 C900 1.404 . S
C901 H913 0.930 . S
C902 C898 1.524 . S
C902 H914 0.956 . S
C902 H915 0.961 . S
C902 H916 0.961 . S
C903 C900 1.539 . S
C903 H917 0.958 . S
C903 H918 0.961 . S
C903 H919 0.960 . S
H904 C888 0.931 . S
H905 C893 0.929 . S
H906 C894 0.960 . S
H907 C894 0.962 . S
H908 C894 0.960 . S
H909 C895 0.961 . S
H910 C895 0.961 . S
H911 C895 0.961 . S
H912 C896 0.931 . S
H913 C901 0.930 . S
H914 C902 0.956 . S
H915 C902 0.961 . S
H916 C902 0.961 . S
H917 C903 0.958 . S
H918 C903 0.961 . S
H919 C903 0.960 . S
C920 C921 1.391 . S
C920 C922 1.394 . S
C920 H936 0.931 . S
C921 C920 1.391 . S
C921 C925 1.376 . S
C922 C920 1.394 . S
C922 C923 1.369 . S
C922 C926 1.531 . S
C923 C922 1.369 . S
C923 C924 1.410 . S
C923 C931 1.503 . S
C924 C923 1.410 . S
C924 C925 1.392 . S
C924 C927 1.511 . S
C925 C921 1.376 . S
C925 C924 1.392 . S
C925 H937 0.929 . S
C926 C922 1.531 . S
C926 H938 0.960 . S
C926 H939 0.962 . S
C926 H940 0.960 . S
C927 C924 1.511 . S
C927 H941 0.961 . S
C927 H942 0.961 . S
C927 H943 0.961 . S
C928 C929 1.370 . S
C928 C930 1.363 . S
C928 H944 0.931 . S
C929 C928 1.370 . S
C929 C933 1.408 . S
C930 C928 1.363 . S
C930 C931 1.370 . S
C930 C934 1.524 . S
C931 C923 1.503 . S
C931 C930 1.370 . S
C931 C932 1.403 . S
C932 C931 1.403 . S
C932 C933 1.404 . S
C932 C935 1.539 . S
C933 C929 1.408 . S
C933 C932 1.404 . S
C933 H945 0.930 . S
C934 C930 1.524 . S
C934 H946 0.956 . S
C934 H947 0.961 . S
C934 H948 0.961 . S
C935 C932 1.539 . S
C935 H949 0.958 . S
C935 H950 0.961 . S
C935 H951 0.960 . S
H936 C920 0.931 . S
H937 C925 0.929 . S
H938 C926 0.960 . S
H939 C926 0.962 . S
H940 C926 0.960 . S
H941 C927 0.961 . S
H942 C927 0.961 . S
H943 C927 0.961 . S
H944 C928 0.931 . S
H945 C933 0.930 . S
H946 C934 0.956 . S
H947 C934 0.961 . S
H948 C934 0.961 . S
H949 C935 0.958 . S
H950 C935 0.961 . S
H951 C935 0.960 . S
C952 C953 1.391 . S
C952 C954 1.394 . S
C952 H968 0.931 . S
C953 C952 1.391 . S
C953 C957 1.376 . S
C954 C952 1.394 . S
C954 C955 1.369 . S
C954 C958 1.531 . S
C955 C954 1.369 . S
C955 C956 1.410 . S
C955 C963 1.503 . S
C956 C955 1.410 . S
C956 C957 1.392 . S
C956 C959 1.511 . S
C957 C953 1.376 . S
C957 C956 1.392 . S
C957 H969 0.929 . S
C958 C954 1.531 . S
C958 H970 0.960 . S
C958 H971 0.962 . S
C958 H972 0.960 . S
C959 C956 1.511 . S
C959 H973 0.961 1_655 S
C959 H974 0.961 . S
C959 H975 0.961 1_655 S
C960 C961 1.370 . S
C960 C962 1.363 . S
C960 H976 0.931 . S
C961 C960 1.370 . S
C961 C965 1.408 . S
C962 C960 1.363 . S
C962 C963 1.370 . S
C962 C966 1.524 . S
C963 C955 1.503 . S
C963 C962 1.370 . S
C963 C964 1.403 . S
C964 C963 1.403 . S
C964 C965 1.404 . S
C964 C967 1.539 . S
C965 C961 1.408 . S
C965 C964 1.404 . S
C965 H977 0.930 . S
C966 C962 1.524 . S
C966 H978 0.956 . S
C966 H979 0.961 . S
C966 H980 0.961 . S
C967 C964 1.539 . S
C967 H981 0.958 . S
C967 H982 0.934 1_655 S
C967 H983 0.960 . S
H968 C952 0.931 . S
H969 C957 0.929 . S
H970 C958 0.960 . S
H971 C958 0.962 . S
H972 C958 0.960 . S
H973 C959 0.961 1_455 S
H974 C959 0.961 . S
H975 C959 0.961 1_455 S
H976 C960 0.931 . S
H977 C965 0.930 . S
H978 C966 0.956 . S
H979 C966 0.961 . S
H980 C966 0.961 . S
H981 C967 0.958 . S
H982 C967 0.934 1_455 S
H983 C967 0.960 . S
C984 C985 1.391 . S
C984 C986 1.394 . S
C984 H1000 0.931 . S
C985 C984 1.391 . S
C985 C989 1.376 . S
C986 C984 1.394 . S
C986 C987 1.369 . S
C986 C990 1.531 . S
C987 C986 1.369 . S
C987 C988 1.410 . S
C987 C995 1.503 . S
C988 C987 1.410 . S
C988 C989 1.392 . S
C988 C991 1.511 . S
C989 C985 1.376 . S
C989 C988 1.392 . S
C989 H1001 0.929 . S
C990 C986 1.531 . S
C990 H1002 0.960 . S
C990 H1003 0.962 . S
C990 H1004 0.960 . S
C991 C988 1.511 . S
C991 H1005 0.961 . S
C991 H1006 0.961 . S
C991 H1007 0.961 . S
C992 C993 1.370 . S
C992 C994 1.363 . S
C992 H1008 0.931 . S
C993 C992 1.370 . S
C993 C997 1.408 . S
C994 C992 1.363 . S
C994 C995 1.370 . S
C994 C998 1.524 . S
C995 C987 1.503 . S
C995 C994 1.370 . S
C995 C996 1.403 . S
C996 C995 1.403 . S
C996 C997 1.404 . S
C996 C999 1.539 . S
C997 C993 1.408 . S
C997 C996 1.404 . S
C997 H1009 0.930 1_565 S
C998 C994 1.524 . S
C998 H1010 0.956 . S
C998 H1011 0.961 . S
C998 H1012 0.961 . S
C999 C996 1.539 . S
C999 H1013 0.958 . S
C999 H1014 0.961 . S
C999 H1015 0.960 . S
H1000 C984 0.931 . S
H1001 C989 0.929 . S
H1002 C990 0.960 . S
H1003 C990 0.962 . S
H1004 C990 0.960 . S
H1005 C991 0.961 . S
H1006 C991 0.961 . S
H1007 C991 0.961 . S
H1008 C992 0.931 . S
H1009 C997 0.930 1_545 S
H1010 C998 0.956 . S
H1011 C998 0.961 . S
H1012 C998 0.961 . S
H1013 C999 0.958 . S
H1014 C999 0.961 . S
H1015 C999 0.960 . S
C1016 C1017 1.391 . S
C1016 C1018 1.394 . S
C1016 H1032 0.931 . S
C1017 C1016 1.391 . S
C1017 C1021 1.376 . S
C1018 C1016 1.394 . S
C1018 C1019 1.369 . S
C1018 C1022 1.531 . S
C1019 C1018 1.369 . S
C1019 C1020 1.410 . S
C1019 C1027 1.503 . S
C1020 C1019 1.410 . S
C1020 C1021 1.392 . S
C1020 C1023 1.511 . S
C1021 C1017 1.376 . S
C1021 C1020 1.392 . S
C1021 H1033 0.929 . S
C1022 C1018 1.531 . S
C1022 H1034 0.960 . S
C1022 H1035 0.962 . S
C1022 H1036 0.960 . S
C1023 C1020 1.511 . S
C1023 H1037 0.961 . S
C1023 H1038 0.961 . S
C1023 H1039 0.961 . S
C1024 C1025 1.370 . S
C1024 C1026 1.363 . S
C1024 H1040 0.931 . S
C1025 C1024 1.370 . S
C1025 C1029 1.408 . S
C1026 C1024 1.363 . S
C1026 C1027 1.370 . S
C1026 C1030 1.524 . S
C1027 C1019 1.503 . S
C1027 C1026 1.370 . S
C1027 C1028 1.403 . S
C1028 C1027 1.403 . S
C1028 C1029 1.404 . S
C1028 C1031 1.539 . S
C1029 C1025 1.408 . S
C1029 C1028 1.404 . S
C1029 H1041 0.930 . S
C1030 C1026 1.524 . S
C1030 H1042 0.956 . S
C1030 H1043 0.961 . S
C1030 H1044 0.961 . S
C1031 C1028 1.539 . S
C1031 H1045 0.958 . S
C1031 H1046 0.961 . S
C1031 H1047 0.960 . S
H1032 C1016 0.931 . S
H1033 C1021 0.929 . S
H1034 C1022 0.960 . S
H1035 C1022 0.962 . S
H1036 C1022 0.960 . S
H1037 C1023 0.961 . S
H1038 C1023 0.961 . S
H1039 C1023 0.961 . S
H1040 C1024 0.931 . S
H1041 C1029 0.930 . S
H1042 C1030 0.956 . S
H1043 C1030 0.961 . S
H1044 C1030 0.961 . S
H1045 C1031 0.958 . S
H1046 C1031 0.961 . S
H1047 C1031 0.960 . S
C1048 C1049 1.391 . S
C1048 C1050 1.394 . S
C1048 H1064 0.931 . S
C1049 C1048 1.391 . S
C1049 C1053 1.376 . S
C1050 C1048 1.394 . S
C1050 C1051 1.369 . S
C1050 C1054 1.531 1_545 S
C1051 C1050 1.369 . S
C1051 C1052 1.410 1_556 S
C1051 C1059 1.503 1_556 S
C1052 C1051 1.410 1_554 S
C1052 C1053 1.392 1_554 S
C1052 C1055 1.511 . S
C1053 C1049 1.376 . S
C1053 C1052 1.392 1_556 S
C1053 H1065 0.929 . S
C1054 C1050 1.531 1_565 S
C1054 H1066 0.960 . S
C1054 H1067 0.962 . S
C1054 H1068 0.960 . S
C1055 C1052 1.511 . S
C1055 H1069 0.961 . S
C1055 H1070 0.961 . S
C1055 H1071 0.961 . S
C1056 C1057 1.370 1_545 S
C1056 C1058 1.363 . S
C1056 H1072 0.931 . S
C1057 C1056 1.370 1_565 S
C1057 C1061 1.408 . S
C1058 C1056 1.363 . S
C1058 C1059 1.370 . S
C1058 C1062 1.524 . S
C1059 C1051 1.503 1_554 S
C1059 C1058 1.370 . S
C1059 C1060 1.403 1_545 S
C1060 C1059 1.403 1_565 S
C1060 C1061 1.404 . S
C1060 C1063 1.539 . S
C1061 C1057 1.408 . S
C1061 C1060 1.404 . S
C1061 H1073 0.930 . S
C1062 C1058 1.524 . S
C1062 H1074 0.956 . S
C1062 H1075 0.961 . S
C1062 H1076 0.961 . S
C1063 C1060 1.539 . S
C1063 H1077 0.958 1_554 S
C1063 H1078 0.961 . S
C1063 H1079 0.960 1_564 S
H1064 C1048 0.931 . S
H1065 C1053 0.929 . S
H1066 C1054 0.960 . S
H1067 C1054 0.962 . S
H1068 C1054 0.960 . S
H1069 C1055 0.961 . S
H1070 C1055 0.961 . S
H1071 C1055 0.961 . S
H1072 C1056 0.931 . S
H1073 C1061 0.930 . S
H1074 C1062 0.956 . S
H1075 C1062 0.961 . S
H1076 C1062 0.961 . S
H1077 C1063 0.958 1_556 S
H1078 C1063 0.961 . S
H1079 C1063 0.960 1_546 S
C1080 C1081 1.391 . S
C1080 C1082 1.394 . S
C1080 H1096 0.931 . S
C1081 C1080 1.391 . S
C1081 C1085 1.376 . S
C1082 C1080 1.394 . S
C1082 C1083 1.369 . S
C1082 C1086 1.531 . S
C1083 C1082 1.369 . S
C1083 C1084 1.410 . S
C1083 C1091 1.503 . S
C1084 C1083 1.410 . S
C1084 C1085 1.392 . S
C1084 C1087 1.511 . S
C1085 C1081 1.376 . S
C1085 C1084 1.392 . S
C1085 H1097 0.929 . S
C1086 C1082 1.531 . S
C1086 H1098 0.960 . S
C1086 H1099 0.962 . S
C1086 H1100 0.960 . S
C1087 C1084 1.511 . S
C1087 H1101 0.961 . S
C1087 H1102 0.961 . S
C1087 H1103 0.961 . S
C1088 C1089 1.370 . S
C1088 C1090 1.363 . S
C1088 H1104 0.931 . S
C1089 C1088 1.370 . S
C1089 C1093 1.408 . S
C1090 C1088 1.363 . S
C1090 C1091 1.370 . S
C1090 C1094 1.524 . S
C1091 C1083 1.503 . S
C1091 C1090 1.370 . S
C1091 C1092 1.403 . S
C1092 C1091 1.403 . S
C1092 C1093 1.404 . S
C1092 C1095 1.539 . S
C1093 C1089 1.408 . S
C1093 C1092 1.404 . S
C1093 H1105 0.930 . S
C1094 C1090 1.524 . S
C1094 H1106 0.956 . S
C1094 H1107 0.961 . S
C1094 H1108 0.961 . S
C1095 C1092 1.539 . S
C1095 H1109 0.958 . S
C1095 H1110 0.961 . S
C1095 H1111 0.960 . S
H1096 C1080 0.931 . S
H1097 C1085 0.929 . S
H1098 C1086 0.960 . S
H1099 C1086 0.962 . S
H1100 C1086 0.960 . S
H1101 C1087 0.961 . S
H1102 C1087 0.961 . S
H1103 C1087 0.961 . S
H1104 C1088 0.931 . S
H1105 C1093 0.930 . S
H1106 C1094 0.956 . S
H1107 C1094 0.961 . S
H1108 C1094 0.961 . S
H1109 C1095 0.958 . S
H1110 C1095 0.961 . S
H1111 C1095 0.960 . S
C1112 C1113 1.391 . S
C1112 C1114 1.394 1_565 S
C1112 H1128 0.931 . S
C1113 C1112 1.391 . S
C1113 C1117 1.376 1_565 S
C1114 C1112 1.394 1_545 S
C1114 C1115 1.369 . S
C1114 C1118 1.531 . S
C1115 C1114 1.369 . S
C1115 C1116 1.410 . S
C1115 C1123 1.503 . S
C1116 C1115 1.410 . S
C1116 C1117 1.392 . S
C1116 C1119 1.511 . S
C1117 C1113 1.376 1_545 S
C1117 C1116 1.392 . S
C1117 H1129 0.929 . S
C1118 C1114 1.531 . S
C1118 H1130 0.960 . S
C1118 H1131 0.962 . S
C1118 H1132 0.960 . S
C1119 C1116 1.511 . S
C1119 H1133 0.961 . S
C1119 H1134 0.961 . S
C1119 H1135 0.961 . S
C1120 C1121 1.370 . S
C1120 C1122 1.363 . S
C1120 H1136 0.931 . S
C1121 C1120 1.370 . S
C1121 C1125 1.408 . S
C1122 C1120 1.363 . S
C1122 C1123 1.370 . S
C1122 C1126 1.524 . S
C1123 C1115 1.503 . S
C1123 C1122 1.370 . S
C1123 C1124 1.403 . S
C1124 C1123 1.403 . S
C1124 C1125 1.404 . S
C1124 C1127 1.539 . S
C1125 C1121 1.408 . S
C1125 C1124 1.404 . S
C1125 H1137 0.930 . S
C1126 C1122 1.524 . S
C1126 H1138 0.956 . S
C1126 H1139 0.961 . S
C1126 H1140 0.961 . S
C1127 C1124 1.539 . S
C1127 H1141 0.958 . S
C1127 H1142 0.961 . S
C1127 H1143 0.960 . S
H1128 C1112 0.931 . S
H1129 C1117 0.929 . S
H1130 C1118 0.960 . S
H1131 C1118 0.962 . S
H1132 C1118 0.960 . S
H1133 C1119 0.961 . S
H1134 C1119 0.961 . S
H1135 C1119 0.961 . S
H1136 C1120 0.931 . S
H1137 C1125 0.930 . S
H1138 C1126 0.956 . S
H1139 C1126 0.961 . S
H1140 C1126 0.961 . S
H1141 C1127 0.958 . S
H1142 C1127 0.961 . S
H1143 C1127 0.960 . S
C1144 C1145 1.391 . S
C1144 C1146 1.394 . S
C1144 H1160 0.931 . S
C1145 C1144 1.391 . S
C1145 C1149 1.376 . S
C1146 C1144 1.394 . S
C1146 C1147 1.369 . S
C1146 C1150 1.531 . S
C1147 C1146 1.369 . S
C1147 C1148 1.410 . S
C1147 C1155 1.503 . S
C1148 C1147 1.410 . S
C1148 C1149 1.392 . S
C1148 C1151 1.511 . S
C1149 C1145 1.376 . S
C1149 C1148 1.392 . S
C1149 H1161 0.929 . S
C1150 C1146 1.531 . S
C1150 H1162 0.960 . S
C1150 H1163 0.962 . S
C1150 H1164 0.960 . S
C1151 C1148 1.511 . S
C1151 H1165 0.961 . S
C1151 H1166 0.961 . S
C1151 H1167 0.961 . S
C1152 C1153 1.370 . S
C1152 C1154 1.363 . S
C1152 H1168 0.931 . S
C1153 C1152 1.370 . S
C1153 C1157 1.408 . S
C1154 C1152 1.363 . S
C1154 C1155 1.370 . S
C1154 C1158 1.524 . S
C1155 C1147 1.503 . S
C1155 C1154 1.370 . S
C1155 C1156 1.403 . S
C1156 C1155 1.403 . S
C1156 C1157 1.404 . S
C1156 C1159 1.539 . S
C1157 C1153 1.408 . S
C1157 C1156 1.404 . S
C1157 H1169 0.930 . S
C1158 C1154 1.524 . S
C1158 H1170 0.956 . S
C1158 H1171 0.961 . S
C1158 H1172 0.961 . S
C1159 C1156 1.539 . S
C1159 H1173 0.958 . S
C1159 H1174 0.961 . S
C1159 H1175 0.960 . S
H1160 C1144 0.931 . S
H1161 C1149 0.929 . S
H1162 C1150 0.960 . S
H1163 C1150 0.962 . S
H1164 C1150 0.960 . S
H1165 C1151 0.961 . S
H1166 C1151 0.961 . S
H1167 C1151 0.961 . S
H1168 C1152 0.931 . S
H1169 C1157 0.930 . S
H1170 C1158 0.956 . S
H1171 C1158 0.961 . S
H1172 C1158 0.961 . S
H1173 C1159 0.958 . S
H1174 C1159 0.961 . S
H1175 C1159 0.960 . S
C1176 C1177 1.391 . S
C1176 C1178 1.394 1_565 S
C1176 H1192 0.931 . S
C1177 C1176 1.391 . S
C1177 C1181 1.376 . S
C1178 C1176 1.394 1_545 S
C1178 C1179 1.369 . S
C1178 C1182 1.531 . S
C1179 C1178 1.369 . S
C1179 C1180 1.410 1_545 S
C1179 C1187 1.503 . S
C1180 C1179 1.410 1_565 S
C1180 C1181 1.392 . S
C1180 C1183 1.511 . S
C1181 C1177 1.376 . S
C1181 C1180 1.392 . S
C1181 H1193 0.929 . S
C1182 C1178 1.531 . S
C1182 H1194 0.960 . S
C1182 H1195 0.962 . S
C1182 H1196 0.960 . S
C1183 C1180 1.511 . S
C1183 H1197 0.961 . S
C1183 H1198 0.961 1_565 S
C1183 H1199 0.961 1_565 S
C1184 C1185 1.370 . S
C1184 C1186 1.363 . S
C1184 H1200 0.931 . S
C1185 C1184 1.370 . S
C1185 C1189 1.408 . S
C1186 C1184 1.363 . S
C1186 C1187 1.370 . S
C1186 C1190 1.524 . S
C1187 C1179 1.503 . S
C1187 C1186 1.370 . S
C1187 C1188 1.403 . S
C1188 C1187 1.403 . S
C1188 C1189 1.404 . S
C1188 C1191 1.539 . S
C1189 C1185 1.408 . S
C1189 C1188 1.404 . S
C1189 H1201 0.930 . S
C1190 C1186 1.524 . S
C1190 H1202 0.956 . S
C1190 H1203 0.961 . S
C1190 H1204 0.961 . S
C1191 C1188 1.539 . S
C1191 H1205 0.958 . S
C1191 H1206 0.961 . S
C1191 H1207 0.960 . S
H1192 C1176 0.931 . S
H1193 C1181 0.929 . S
H1194 C1182 0.960 . S
H1195 C1182 0.962 . S
H1196 C1182 0.960 . S
H1197 C1183 0.961 . S
H1198 C1183 0.961 1_545 S
H1199 C1183 0.961 1_545 S
H1200 C1184 0.931 . S
H1201 C1189 0.930 . S
H1202 C1190 0.956 . S
H1203 C1190 0.961 . S
H1204 C1190 0.961 . S
H1205 C1191 0.958 . S
H1206 C1191 0.961 . S
H1207 C1191 0.960 . S
C1208 C1209 1.391 . S
C1208 C1210 1.394 . S
C1208 H1224 0.931 . S
C1209 C1208 1.391 . S
C1209 C1213 1.376 . S
C1210 C1208 1.394 . S
C1210 C1211 1.369 . S
C1210 C1214 1.531 . S
C1211 C1210 1.369 . S
C1211 C1212 1.410 . S
C1211 C1219 1.503 . S
C1212 C1211 1.410 . S
C1212 C1213 1.392 . S
C1212 C1215 1.511 . S
C1213 C1209 1.376 . S
C1213 C1212 1.392 . S
C1213 H1225 0.929 . S
C1214 C1210 1.531 . S
C1214 H1226 0.960 . S
C1214 H1227 0.962 . S
C1214 H1228 0.960 . S
C1215 C1212 1.511 . S
C1215 H1229 0.961 . S
C1215 H1230 0.961 . S
C1215 H1231 0.961 . S
C1216 C1217 1.370 . S
C1216 C1218 1.363 . S
C1216 H1232 0.931 . S
C1217 C1216 1.370 . S
C1217 C1221 1.408 . S
C1218 C1216 1.363 . S
C1218 C1219 1.370 . S
C1218 C1222 1.524 . S
C1219 C1211 1.503 . S
C1219 C1218 1.370 . S
C1219 C1220 1.403 . S
C1220 C1219 1.403 . S
C1220 C1221 1.404 . S
C1220 C1223 1.539 . S
C1221 C1217 1.408 . S
C1221 C1220 1.404 . S
C1221 H1233 0.930 . S
C1222 C1218 1.524 . S
C1222 H1234 0.956 . S
C1222 H1235 0.961 . S
C1222 H1236 0.961 . S
C1223 C1220 1.539 . S
C1223 H1237 0.958 . S
C1223 H1238 0.961 . S
C1223 H1239 0.960 . S
H1224 C1208 0.931 . S
H1225 C1213 0.929 . S
H1226 C1214 0.960 . S
H1227 C1214 0.962 . S
H1228 C1214 0.960 . S
H1229 C1215 0.961 . S
H1230 C1215 0.961 . S
H1231 C1215 0.961 . S
H1232 C1216 0.931 . S
H1233 C1221 0.930 . S
H1234 C1222 0.956 . S
H1235 C1222 0.961 . S
H1236 C1222 0.961 . S
H1237 C1223 0.958 . S
H1238 C1223 0.961 . S
H1239 C1223 0.960 . S
C1240 C1241 1.391 . S
C1240 C1242 1.394 . S
C1240 H1256 0.931 . S
C1241 C1240 1.391 . S
C1241 C1245 1.376 . S
C1242 C1240 1.394 . S
C1242 C1243 1.369 . S
C1242 C1246 1.531 . S
C1243 C1242 1.369 . S
C1243 C1244 1.410 . S
C1243 C1251 1.503 . S
C1244 C1243 1.410 . S
C1244 C1245 1.392 . S
C1244 C1247 1.511 . S
C1245 C1241 1.376 . S
C1245 C1244 1.392 . S
C1245 H1257 0.929 . S
C1246 C1242 1.531 . S
C1246 H1258 0.960 . S
C1246 H1259 0.962 . S
C1246 H1260 0.960 . S
C1247 C1244 1.511 . S
C1247 H1261 0.961 . S
C1247 H1262 0.961 . S
C1247 H1263 0.961 . S
C1248 C1249 1.370 . S
C1248 C1250 1.363 . S
C1248 H1264 0.931 . S
C1249 C1248 1.370 . S
C1249 C1253 1.408 . S
C1250 C1248 1.363 . S
C1250 C1251 1.370 . S
C1250 C1254 1.524 . S
C1251 C1243 1.503 . S
C1251 C1250 1.370 . S
C1251 C1252 1.403 . S
C1252 C1251 1.403 . S
C1252 C1253 1.404 . S
C1252 C1255 1.539 . S
C1253 C1249 1.408 . S
C1253 C1252 1.404 . S
C1253 H1265 0.930 . S
C1254 C1250 1.524 . S
C1254 H1266 0.956 . S
C1254 H1267 0.961 . S
C1254 H1268 0.961 . S
C1255 C1252 1.539 . S
C1255 H1269 0.958 . S
C1255 H1270 0.961 . S
C1255 H1271 0.960 . S
H1256 C1240 0.931 . S
H1257 C1245 0.929 . S
H1258 C1246 0.960 . S
H1259 C1246 0.962 . S
H1260 C1246 0.960 . S
H1261 C1247 0.961 . S
H1262 C1247 0.961 . S
H1263 C1247 0.961 . S
H1264 C1248 0.931 . S
H1265 C1253 0.930 . S
H1266 C1254 0.956 . S
H1267 C1254 0.961 . S
H1268 C1254 0.961 . S
H1269 C1255 0.958 . S
H1270 C1255 0.961 . S
H1271 C1255 0.960 . S
C1272 C1273 1.391 . S
C1272 C1274 1.394 . S
C1272 H1288 0.931 . S
C1273 C1272 1.391 . S
C1273 C1277 1.376 . S
C1274 C1272 1.394 . S
C1274 C1275 1.369 . S
C1274 C1278 1.531 . S
C1275 C1274 1.369 . S
C1275 C1276 1.410 . S
C1275 C1283 1.503 . S
C1276 C1275 1.410 . S
C1276 C1277 1.392 . S
C1276 C1279 1.511 . S
C1277 C1273 1.376 . S
C1277 C1276 1.392 . S
C1277 H1289 0.929 . S
C1278 C1274 1.531 . S
C1278 H1290 0.960 . S
C1278 H1291 0.962 . S
C1278 H1292 0.960 . S
C1279 C1276 1.511 . S
C1279 H1293 0.961 . S
C1279 H1294 0.961 . S
C1279 H1295 0.961 . S
C1280 C1281 1.370 . S
C1280 C1282 1.363 . S
C1280 H1296 0.931 . S
C1281 C1280 1.370 . S
C1281 C1285 1.408 . S
C1282 C1280 1.363 . S
C1282 C1283 1.370 . S
C1282 C1286 1.524 . S
C1283 C1275 1.503 . S
C1283 C1282 1.370 . S
C1283 C1284 1.403 . S
C1284 C1283 1.403 . S
C1284 C1285 1.404 . S
C1284 C1287 1.539 . S
C1285 C1281 1.408 . S
C1285 C1284 1.404 . S
C1285 H1297 0.930 . S
C1286 C1282 1.524 . S
C1286 H1298 0.956 . S
C1286 H1299 0.961 . S
C1286 H1300 0.961 1_545 S
C1287 C1284 1.539 . S
C1287 H1301 0.958 . S
C1287 H1302 0.961 . S
C1287 H1303 0.960 . S
H1288 C1272 0.931 . S
H1289 C1277 0.929 . S
H1290 C1278 0.960 . S
H1291 C1278 0.962 . S
H1292 C1278 0.960 . S
H1293 C1279 0.961 . S
H1294 C1279 0.961 . S
H1295 C1279 0.961 . S
H1296 C1280 0.931 . S
H1297 C1285 0.930 . S
H1298 C1286 0.956 . S
H1299 C1286 0.961 . S
H1300 C1286 0.961 1_565 S
H1301 C1287 0.958 . S
H1302 C1287 0.961 . S
H1303 C1287 0.960 . S
C1304 C1305 1.391 . S
C1304 C1306 1.394 . S
C1304 H1320 0.931 . S
C1305 C1304 1.391 . S
C1305 C1309 1.376 . S
C1306 C1304 1.394 . S
C1306 C1307 1.369 . S
C1306 C1310 1.531 . S
C1307 C1306 1.369 . S
C1307 C1308 1.410 . S
C1307 C1315 1.503 . S
C1308 C1307 1.410 . S
C1308 C1309 1.392 . S
C1308 C1311 1.511 . S
C1309 C1305 1.376 . S
C1309 C1308 1.392 . S
C1309 H1321 0.929 . S
C1310 C1306 1.531 . S
C1310 H1322 0.960 . S
C1310 H1323 0.962 . S
C1310 H1324 0.960 . S
C1311 C1308 1.511 . S
C1311 H1325 0.961 . S
C1311 H1326 0.961 . S
C1311 H1327 0.961 . S
C1312 C1313 1.370 . S
C1312 C1314 1.363 . S
C1312 H1328 0.931 . S
C1313 C1312 1.370 . S
C1313 C1317 1.408 . S
C1314 C1312 1.363 . S
C1314 C1315 1.370 . S
C1314 C1318 1.524 . S
C1315 C1307 1.503 . S
C1315 C1314 1.370 . S
C1315 C1316 1.403 . S
C1316 C1315 1.403 . S
C1316 C1317 1.404 . S
C1316 C1319 1.539 . S
C1317 C1313 1.408 . S
C1317 C1316 1.404 . S
C1317 H1329 0.930 . S
C1318 C1314 1.524 . S
C1318 H1330 0.956 . S
C1318 H1331 0.961 . S
C1318 H1332 0.961 . S
C1319 C1316 1.539 . S
C1319 H1333 0.958 . S
C1319 H1334 0.961 . S
C1319 H1335 0.960 . S
H1320 C1304 0.931 . S
H1321 C1309 0.929 . S
H1322 C1310 0.960 . S
H1323 C1310 0.962 . S
H1324 C1310 0.960 . S
H1325 C1311 0.961 . S
H1326 C1311 0.961 . S
H1327 C1311 0.961 . S
H1328 C1312 0.931 . S
H1329 C1317 0.930 . S
H1330 C1318 0.956 . S
H1331 C1318 0.961 . S
H1332 C1318 0.961 . S
H1333 C1319 0.958 . S
H1334 C1319 0.961 . S
H1335 C1319 0.960 . S
C1336 C1337 1.391 . S
C1336 C1338 1.394 . S
C1336 H1352 0.931 . S
C1337 C1336 1.391 . S
C1337 C1341 1.376 . S
C1338 C1336 1.394 . S
C1338 C1339 1.369 . S
C1338 C1342 1.531 . S
C1339 C1338 1.369 . S
C1339 C1340 1.410 . S
C1339 C1347 1.503 . S
C1340 C1339 1.410 . S
C1340 C1341 1.392 . S
C1340 C1343 1.511 . S
C1341 C1337 1.376 . S
C1341 C1340 1.392 . S
C1341 H1353 0.929 . S
C1342 C1338 1.531 . S
C1342 H1354 0.960 . S
C1342 H1355 0.962 . S
C1342 H1356 0.960 . S
C1343 C1340 1.511 . S
C1343 H1357 0.961 . S
C1343 H1358 0.961 . S
C1343 H1359 0.961 . S
C1344 C1345 1.370 . S
C1344 C1346 1.363 . S
C1344 H1360 0.931 . S
C1345 C1344 1.370 . S
C1345 C1349 1.408 . S
C1346 C1344 1.363 . S
C1346 C1347 1.370 . S
C1346 C1350 1.524 . S
C1347 C1339 1.503 . S
C1347 C1346 1.370 . S
C1347 C1348 1.403 . S
C1348 C1347 1.403 . S
C1348 C1349 1.404 . S
C1348 C1351 1.539 . S
C1349 C1345 1.408 . S
C1349 C1348 1.404 . S
C1349 H1361 0.930 . S
C1350 C1346 1.524 . S
C1350 H1362 0.956 . S
C1350 H1363 0.961 . S
C1350 H1364 0.961 . S
C1351 C1348 1.539 . S
C1351 H1365 0.958 . S
C1351 H1366 0.961 . S
C1351 H1367 0.960 . S
H1352 C1336 0.931 . S
H1353 C1341 0.929 . S
H1354 C1342 0.960 . S
H1355 C1342 0.962 . S
H1356 C1342 0.960 . S
H1357 C1343 0.961 . S
H1358 C1343 0.961 . S
H1359 C1343 0.961 . S
H1360 C1344 0.931 . S
H1361 C1349 0.930 . S
H1362 C1350 0.956 . S
H1363 C1350 0.961 . S
H1364 C1350 0.961 . S
H1365 C1351 0.958 . S
H1366 C1351 0.961 . S
H1367 C1351 0.960 . S
C1368 C1369 1.391 . S
C1368 C1370 1.394 . S
C1368 H1384 0.931 . S
C1369 C1368 1.391 . S
C1369 C1373 1.376 . S
C1370 C1368 1.394 . S
C1370 C1371 1.369 . S
C1370 C1374 1.531 . S
C1371 C1370 1.369 . S
C1371 C1372 1.410 . S
C1371 C1379 1.503 . S
C1372 C1371 1.410 . S
C1372 C1373 1.392 . S
C1372 C1375 1.511 . S
C1373 C1369 1.376 . S
C1373 C1372 1.392 . S
C1373 H1385 0.929 . S
C1374 C1370 1.531 . S
C1374 H1386 0.960 . S
C1374 H1387 0.962 . S
C1374 H1388 0.960 . S
C1375 C1372 1.511 . S
C1375 H1389 0.961 . S
C1375 H1390 0.961 . S
C1375 H1391 0.961 . S
C1376 C1377 1.370 . S
C1376 C1378 1.363 . S
C1376 H1392 0.931 . S
C1377 C1376 1.370 . S
C1377 C1381 1.408 . S
C1378 C1376 1.363 . S
C1378 C1379 1.370 . S
C1378 C1382 1.524 . S
C1379 C1371 1.503 . S
C1379 C1378 1.370 . S
C1379 C1380 1.403 . S
C1380 C1379 1.403 . S
C1380 C1381 1.404 . S
C1380 C1383 1.539 . S
C1381 C1377 1.408 . S
C1381 C1380 1.404 . S
C1381 H1393 0.930 . S
C1382 C1378 1.524 . S
C1382 H1394 0.956 . S
C1382 H1395 0.961 . S
C1382 H1396 0.961 . S
C1383 C1380 1.539 . S
C1383 H1397 0.958 . S
C1383 H1398 0.961 . S
C1383 H1399 0.960 . S
H1384 C1368 0.931 . S
H1385 C1373 0.929 . S
H1386 C1374 0.960 . S
H1387 C1374 0.962 . S
H1388 C1374 0.960 . S
H1389 C1375 0.961 . S
H1390 C1375 0.961 . S
H1391 C1375 0.961 . S
H1392 C1376 0.931 . S
H1393 C1381 0.930 . S
H1394 C1382 0.956 . S
H1395 C1382 0.961 . S
H1396 C1382 0.961 . S
H1397 C1383 0.958 . S
H1398 C1383 0.961 . S
H1399 C1383 0.960 . S
C1400 C1401 1.391 . S
C1400 C1402 1.394 . S
C1400 H1416 0.931 . S
C1401 C1400 1.391 . S
C1401 C1405 1.376 . S
C1402 C1400 1.394 . S
C1402 C1403 1.369 . S
C1402 C1406 1.531 . S
C1403 C1402 1.369 . S
C1403 C1404 1.410 . S
C1403 C1411 1.503 . S
C1404 C1403 1.410 . S
C1404 C1405 1.392 . S
C1404 C1407 1.511 . S
C1405 C1401 1.376 . S
C1405 C1404 1.392 . S
C1405 H1417 0.929 . S
C1406 C1402 1.531 . S
C1406 H1418 0.960 . S
C1406 H1419 0.962 . S
C1406 H1420 0.960 . S
C1407 C1404 1.511 . S
C1407 H1421 0.961 . S
C1407 H1422 0.961 . S
C1407 H1423 0.961 . S
C1408 C1409 1.370 . S
C1408 C1410 1.363 . S
C1408 H1424 0.931 . S
C1409 C1408 1.370 . S
C1409 C1413 1.408 . S
C1410 C1408 1.363 . S
C1410 C1411 1.370 . S
C1410 C1414 1.524 . S
C1411 C1403 1.503 . S
C1411 C1410 1.370 . S
C1411 C1412 1.403 . S
C1412 C1411 1.403 . S
C1412 C1413 1.404 . S
C1412 C1415 1.539 . S
C1413 C1409 1.408 . S
C1413 C1412 1.404 . S
C1413 H1425 0.930 . S
C1414 C1410 1.524 . S
C1414 H1426 0.956 . S
C1414 H1427 0.961 . S
C1414 H1428 0.961 . S
C1415 C1412 1.539 . S
C1415 H1429 0.958 . S
C1415 H1430 0.961 . S
C1415 H1431 0.960 . S
H1416 C1400 0.931 . S
H1417 C1405 0.929 . S
H1418 C1406 0.960 . S
H1419 C1406 0.962 . S
H1420 C1406 0.960 . S
H1421 C1407 0.961 . S
H1422 C1407 0.961 . S
H1423 C1407 0.961 . S
H1424 C1408 0.931 . S
H1425 C1413 0.930 . S
H1426 C1414 0.956 . S
H1427 C1414 0.961 . S
H1428 C1414 0.961 . S
H1429 C1415 0.958 . S
H1430 C1415 0.961 . S
H1431 C1415 0.960 . S
C1432 C1433 1.391 . S
C1432 C1434 1.394 . S
C1432 H1448 0.931 . S
C1433 C1432 1.391 . S
C1433 C1437 1.376 . S
C1434 C1432 1.394 . S
C1434 C1435 1.369 . S
C1434 C1438 1.531 . S
C1435 C1434 1.369 . S
C1435 C1436 1.410 . S
C1435 C1443 1.503 . S
C1436 C1435 1.410 . S
C1436 C1437 1.392 . S
C1436 C1439 1.511 . S
C1437 C1433 1.376 . S
C1437 C1436 1.392 . S
C1437 H1449 0.929 . S
C1438 C1434 1.531 . S
C1438 H1450 0.960 . S
C1438 H1451 0.962 . S
C1438 H1452 0.960 . S
C1439 C1436 1.511 . S
C1439 H1453 0.961 . S
C1439 H1454 0.961 . S
C1439 H1455 0.961 . S
C1440 C1441 1.370 . S
C1440 C1442 1.363 . S
C1440 H1456 0.931 . S
C1441 C1440 1.370 . S
C1441 C1445 1.408 . S
C1442 C1440 1.363 . S
C1442 C1443 1.370 . S
C1442 C1446 1.524 . S
C1443 C1435 1.503 . S
C1443 C1442 1.370 . S
C1443 C1444 1.403 . S
C1444 C1443 1.403 . S
C1444 C1445 1.404 . S
C1444 C1447 1.539 . S
C1445 C1441 1.408 . S
C1445 C1444 1.404 . S
C1445 H1457 0.930 . S
C1446 C1442 1.524 . S
C1446 H1458 0.956 . S
C1446 H1459 0.961 . S
C1446 H1460 0.961 . S
C1447 C1444 1.539 . S
C1447 H1461 0.958 . S
C1447 H1462 0.961 . S
C1447 H1463 0.960 . S
H1448 C1432 0.931 . S
H1449 C1437 0.929 . S
H1450 C1438 0.960 . S
H1451 C1438 0.962 . S
H1452 C1438 0.960 . S
H1453 C1439 0.961 . S
H1454 C1439 0.961 . S
H1455 C1439 0.961 . S
H1456 C1440 0.931 . S
H1457 C1445 0.930 . S
H1458 C1446 0.956 . S
H1459 C1446 0.961 . S
H1460 C1446 0.961 . S
H1461 C1447 0.958 . S
H1462 C1447 0.961 . S
H1463 C1447 0.960 . S
C1464 C1465 1.391 . S
C1464 C1466 1.394 . S
C1464 H1480 0.931 . S
C1465 C1464 1.391 . S
C1465 C1469 1.376 . S
C1466 C1464 1.394 . S
C1466 C1467 1.369 . S
C1466 C1470 1.531 . S
C1467 C1466 1.369 . S
C1467 C1468 1.410 . S
C1467 C1475 1.493 1_655 S
C1468 C1467 1.410 . S
C1468 C1469 1.392 . S
C1468 C1471 1.511 1_655 S
C1469 C1465 1.376 . S
C1469 C1468 1.392 . S
C1469 H1481 0.929 . S
C1470 C1466 1.531 . S
C1470 H1482 0.960 . S
C1470 H1483 0.962 . S
C1470 H1484 0.960 . S
C1471 C1468 1.511 1_455 S
C1471 H1485 0.961 . S
C1471 H1486 0.961 . S
C1471 H1487 0.961 . S
C1472 C1473 1.370 . S
C1472 C1474 1.363 . S
C1472 H1488 0.931 . S
C1473 C1472 1.370 . S
C1473 C1477 1.408 . S
C1474 C1472 1.363 . S
C1474 C1475 1.370 . S
C1474 C1478 1.524 1_455 S
C1475 C1467 1.493 1_455 S
C1475 C1474 1.370 . S
C1475 C1476 1.414 . S
C1476 C1475 1.414 . S
C1476 C1477 1.404 . S
C1476 C1479 1.539 . S
C1477 C1473 1.408 . S
C1477 C1476 1.404 . S
C1477 H1489 0.930 . S
C1478 C1474 1.524 1_655 S
C1478 H1490 0.956 . S
C1478 H1491 0.961 . S
C1478 H1492 0.961 . S
C1479 C1476 1.539 . S
C1479 H1493 0.977 . S
C1479 H1494 0.961 . S
C1479 H1495 0.960 . S
H1480 C1464 0.931 . S
H1481 C1469 0.929 . S
H1482 C1470 0.960 . S
H1483 C1470 0.962 . S
H1484 C1470 0.960 . S
H1485 C1471 0.961 . S
H1486 C1471 0.961 . S
H1487 C1471 0.961 . S
H1488 C1472 0.931 . S
H1489 C1477 0.930 . S
H1490 C1478 0.956 . S
H1491 C1478 0.961 . S
H1492 C1478 0.961 . S
H1493 C1479 0.977 . S
H1494 C1479 0.961 . S
H1495 C1479 0.960 . S
C1496 C1497 1.391 . S
C1496 C1498 1.394 . S
C1496 H1512 0.931 . S
C1497 C1496 1.391 . S
C1497 C1501 1.376 . S
C1498 C1496 1.394 . S
C1498 C1499 1.369 . S
C1498 C1502 1.531 . S
C1499 C1498 1.369 . S
C1499 C1500 1.410 . S
C1499 C1507 1.503 . S
C1500 C1499 1.410 . S
C1500 C1501 1.392 . S
C1500 C1503 1.511 . S
C1501 C1497 1.376 . S
C1501 C1500 1.392 . S
C1501 H1513 0.929 . S
C1502 C1498 1.531 . S
C1502 H1514 0.960 . S
C1502 H1515 0.962 . S
C1502 H1516 0.960 . S
C1503 C1500 1.511 . S
C1503 H1517 0.961 . S
C1503 H1518 0.961 . S
C1503 H1519 0.961 . S
C1504 C1505 1.370 . S
C1504 C1506 1.363 . S
C1504 H1520 0.931 . S
C1505 C1504 1.370 . S
C1505 C1509 1.408 . S
C1506 C1504 1.363 . S
C1506 C1507 1.370 . S
C1506 C1510 1.524 . S
C1507 C1499 1.503 . S
C1507 C1506 1.370 . S
C1507 C1508 1.403 . S
C1508 C1507 1.403 . S
C1508 C1509 1.404 . S
C1508 C1511 1.539 . S
C1509 C1505 1.408 . S
C1509 C1508 1.404 . S
C1509 H1521 0.930 . S
C1510 C1506 1.524 . S
C1510 H1522 0.956 . S
C1510 H1523 0.961 . S
C1510 H1524 0.961 . S
C1511 C1508 1.539 . S
C1511 H1525 0.958 . S
C1511 H1526 0.961 . S
C1511 H1527 0.960 . S
H1512 C1496 0.931 . S
H1513 C1501 0.929 . S
H1514 C1502 0.960 . S
H1515 C1502 0.962 . S
H1516 C1502 0.960 . S
H1517 C1503 0.961 . S
H1518 C1503 0.961 . S
H1519 C1503 0.961 . S
H1520 C1504 0.931 . S
H1521 C1509 0.930 . S
H1522 C1510 0.956 . S
H1523 C1510 0.961 . S
H1524 C1510 0.961 . S
H1525 C1511 0.958 . S
H1526 C1511 0.961 . S
H1527 C1511 0.960 . S
C1528 C1529 1.393 . S
C1528 C1530 1.399 . S
C1528 H1544 0.924 1_556 S
C1529 C1528 1.393 . S
C1529 C1533 1.376 . S
C1530 C1528 1.399 . S
C1530 C1531 1.369 . S
C1530 C1534 1.531 . S
C1531 C1530 1.369 . S
C1531 C1532 1.410 . S
C1531 C1539 1.503 . S
C1532 C1531 1.410 . S
C1532 C1533 1.392 . S
C1532 C1535 1.511 . S
C1533 C1529 1.376 . S
C1533 C1532 1.392 . S
C1533 H1545 0.929 . S
C1534 C1530 1.531 . S
C1534 H1546 0.960 . S
C1534 H1547 0.962 . S
C1534 H1548 0.960 1_556 S
C1535 C1532 1.511 . S
C1535 H1549 0.961 . S
C1535 H1550 0.961 . S
C1535 H1551 0.961 . S
C1536 C1537 1.370 . S
C1536 C1538 1.363 . S
C1536 H1552 0.931 . S
C1537 C1536 1.370 . S
C1537 C1541 1.408 . S
C1538 C1536 1.363 . S
C1538 C1539 1.370 . S
C1538 C1542 1.524 . S
C1539 C1531 1.503 . S
C1539 C1538 1.370 . S
C1539 C1540 1.403 . S
C1540 C1539 1.403 . S
C1540 C1541 1.404 . S
C1540 C1543 1.539 . S
C1541 C1537 1.408 . S
C1541 C1540 1.404 . S
C1541 H1553 0.930 . S
C1542 C1538 1.524 . S
C1542 H1554 0.956 . S
C1542 H1555 0.961 . S
C1542 H1556 0.961 . S
C1543 C1540 1.539 . S
C1543 H1557 0.958 . S
C1543 H1558 0.961 . S
C1543 H1559 0.960 . S
H1544 C1528 0.924 1_554 S
H1545 C1533 0.929 . S
H1546 C1534 0.960 . S
H1547 C1534 0.962 . S
H1548 C1534 0.960 1_554 S
H1549 C1535 0.961 . S
H1550 C1535 0.961 . S
H1551 C1535 0.961 . S
H1552 C1536 0.931 . S
H1553 C1541 0.930 . S
H1554 C1542 0.956 . S
H1555 C1542 0.961 . S
H1556 C1542 0.961 . S
H1557 C1543 0.958 . S
H1558 C1543 0.961 . S
H1559 C1543 0.960 . S
C1560 C1561 1.391 . S
C1560 C1562 1.394 . S
C1560 H1576 0.931 . S
C1561 C1560 1.391 . S
C1561 C1565 1.376 . S
C1562 C1560 1.394 . S
C1562 C1563 1.369 . S
C1562 C1566 1.531 . S
C1563 C1562 1.369 . S
C1563 C1564 1.410 . S
C1563 C1571 1.503 . S
C1564 C1563 1.410 . S
C1564 C1565 1.392 . S
C1564 C1567 1.511 . S
C1565 C1561 1.376 . S
C1565 C1564 1.392 . S
C1565 H1577 0.929 . S
C1566 C1562 1.531 . S
C1566 H1578 0.960 . S
C1566 H1579 0.962 . S
C1566 H1580 0.960 . S
C1567 C1564 1.511 . S
C1567 H1581 0.961 . S
C1567 H1582 0.961 . S
C1567 H1583 0.961 . S
C1568 C1569 1.370 . S
C1568 C1570 1.363 . S
C1568 H1584 0.931 . S
C1569 C1568 1.370 . S
C1569 C1573 1.408 . S
C1570 C1568 1.363 . S
C1570 C1571 1.370 . S
C1570 C1574 1.524 . S
C1571 C1563 1.503 . S
C1571 C1570 1.370 . S
C1571 C1572 1.403 . S
C1572 C1571 1.403 . S
C1572 C1573 1.404 . S
C1572 C1575 1.539 . S
C1573 C1569 1.408 . S
C1573 C1572 1.404 . S
C1573 H1585 0.930 . S
C1574 C1570 1.524 . S
C1574 H1586 0.956 . S
C1574 H1587 0.961 . S
C1574 H1588 0.961 . S
C1575 C1572 1.539 . S
C1575 H1589 0.958 . S
C1575 H1590 0.961 . S
C1575 H1591 0.960 . S
H1576 C1560 0.931 . S
H1577 C1565 0.929 . S
H1578 C1566 0.960 . S
H1579 C1566 0.962 . S
H1580 C1566 0.960 . S
H1581 C1567 0.961 . S
H1582 C1567 0.961 . S
H1583 C1567 0.961 . S
H1584 C1568 0.931 . S
H1585 C1573 0.930 . S
H1586 C1574 0.956 . S
H1587 C1574 0.961 . S
H1588 C1574 0.961 . S
H1589 C1575 0.958 . S
H1590 C1575 0.961 . S
H1591 C1575 0.960 . S
C1592 C1593 1.391 . S
C1592 C1594 1.394 . S
C1592 H1608 0.931 . S
C1593 C1592 1.391 . S
C1593 C1597 1.376 . S
C1594 C1592 1.394 . S
C1594 C1595 1.369 . S
C1594 C1598 1.531 1_554 S
C1595 C1594 1.369 . S
C1595 C1596 1.410 . S
C1595 C1603 1.502 1_554 S
C1596 C1595 1.410 . S
C1596 C1597 1.392 . S
C1596 C1599 1.511 . S
C1597 C1593 1.376 . S
C1597 C1596 1.392 . S
C1597 H1609 0.929 . S
C1598 C1594 1.531 1_556 S
C1598 H1610 0.960 . S
C1598 H1611 0.962 . S
C1598 H1612 0.960 . S
C1599 C1596 1.511 . S
C1599 H1613 0.961 . S
C1599 H1614 0.961 . S
C1599 H1615 0.961 . S
C1600 C1601 1.370 . S
C1600 C1602 1.363 . S
C1600 H1616 0.931 . S
C1601 C1600 1.370 . S
C1601 C1605 1.408 . S
C1602 C1600 1.363 . S
C1602 C1603 1.370 . S
C1602 C1606 1.524 . S
C1603 C1595 1.502 1_556 S
C1603 C1602 1.370 . S
C1603 C1604 1.403 . S
C1604 C1603 1.403 . S
C1604 C1605 1.404 . S
C1604 C1607 1.539 . S
C1605 C1601 1.408 . S
C1605 C1604 1.404 . S
C1605 H1617 0.930 . S
C1606 C1602 1.524 . S
C1606 H1618 0.956 . S
C1606 H1619 0.961 . S
C1606 H1620 0.961 . S
C1607 C1604 1.539 . S
C1607 H1621 0.958 . S
C1607 H1622 0.961 . S
C1607 H1623 0.960 . S
H1608 C1592 0.931 . S
H1609 C1597 0.929 . S
H1610 C1598 0.960 . S
H1611 C1598 0.962 . S
H1612 C1598 0.960 . S
H1613 C1599 0.961 . S
H1614 C1599 0.961 . S
H1615 C1599 0.961 . S
H1616 C1600 0.931 . S
H1617 C1605 0.930 . S
H1618 C1606 0.956 . S
H1619 C1606 0.961 . S
H1620 C1606 0.961 . S
H1621 C1607 0.958 . S
H1622 C1607 0.961 . S
H1623 C1607 0.960 . S
C1624 C1625 1.391 . S
C1624 C1626 1.394 . S
C1624 H1640 0.931 . S
C1625 C1624 1.391 . S
C1625 C1629 1.376 . S
C1626 C1624 1.394 . S
C1626 C1627 1.369 . S
C1626 C1630 1.531 . S
C1627 C1626 1.369 . S
C1627 C1628 1.410 . S
C1627 C1635 1.503 . S
C1628 C1627 1.410 . S
C1628 C1629 1.392 . S
C1628 C1631 1.511 . S
C1629 C1625 1.376 . S
C1629 C1628 1.392 . S
C1629 H1641 0.929 . S
C1630 C1626 1.531 . S
C1630 H1642 0.960 . S
C1630 H1643 0.962 . S
C1630 H1644 0.960 . S
C1631 C1628 1.511 . S
C1631 H1645 0.961 . S
C1631 H1646 0.961 . S
C1631 H1647 0.961 . S
C1632 C1633 1.370 . S
C1632 C1634 1.363 . S
C1632 H1648 0.931 . S
C1633 C1632 1.370 . S
C1633 C1637 1.408 . S
C1634 C1632 1.363 . S
C1634 C1635 1.370 . S
C1634 C1638 1.524 . S
C1635 C1627 1.503 . S
C1635 C1634 1.370 . S
C1635 C1636 1.403 . S
C1636 C1635 1.403 . S
C1636 C1637 1.404 . S
C1636 C1639 1.539 . S
C1637 C1633 1.408 . S
C1637 C1636 1.404 . S
C1637 H1649 0.930 . S
C1638 C1634 1.524 . S
C1638 H1650 0.956 . S
C1638 H1651 0.961 . S
C1638 H1652 0.961 . S
C1639 C1636 1.539 . S
C1639 H1653 0.958 . S
C1639 H1654 0.961 . S
C1639 H1655 0.960 . S
H1640 C1624 0.931 . S
H1641 C1629 0.929 . S
H1642 C1630 0.960 . S
H1643 C1630 0.962 . S
H1644 C1630 0.960 . S
H1645 C1631 0.961 . S
H1646 C1631 0.961 . S
H1647 C1631 0.961 . S
H1648 C1632 0.931 . S
H1649 C1637 0.930 . S
H1650 C1638 0.956 . S
H1651 C1638 0.961 . S
H1652 C1638 0.961 . S
H1653 C1639 0.958 . S
H1654 C1639 0.961 . S
H1655 C1639 0.960 . S
C1656 C1657 1.391 . S
C1656 C1658 1.394 1_556 S
C1656 H1672 0.931 . S
C1657 C1656 1.391 . S
C1657 C1661 1.376 1_556 S
C1658 C1656 1.394 1_554 S
C1658 C1659 1.369 . S
C1658 C1662 1.531 . S
C1659 C1658 1.369 . S
C1659 C1660 1.410 . S
C1659 C1667 1.503 . S
C1660 C1659 1.410 . S
C1660 C1661 1.392 . S
C1660 C1663 1.511 . S
C1661 C1657 1.376 1_554 S
C1661 C1660 1.392 . S
C1661 H1673 0.929 . S
C1662 C1658 1.531 . S
C1662 H1674 0.960 . S
C1662 H1675 0.962 . S
C1662 H1676 0.960 1_554 S
C1663 C1660 1.511 . S
C1663 H1677 0.961 . S
C1663 H1678 0.961 . S
C1663 H1679 0.961 . S
C1664 C1665 1.370 . S
C1664 C1666 1.363 . S
C1664 H1680 0.931 . S
C1665 C1664 1.370 . S
C1665 C1669 1.408 . S
C1666 C1664 1.363 . S
C1666 C1667 1.370 . S
C1666 C1670 1.524 . S
C1667 C1659 1.503 . S
C1667 C1666 1.370 . S
C1667 C1668 1.403 . S
C1668 C1667 1.403 . S
C1668 C1669 1.404 . S
C1668 C1671 1.539 . S
C1669 C1665 1.408 . S
C1669 C1668 1.404 . S
C1669 H1681 0.930 . S
C1670 C1666 1.524 . S
C1670 H1682 0.956 . S
C1670 H1683 0.961 . S
C1670 H1684 0.961 . S
C1671 C1668 1.539 . S
C1671 H1685 0.958 . S
C1671 H1686 0.961 . S
C1671 H1687 0.960 . S
H1672 C1656 0.931 . S
H1673 C1661 0.929 . S
H1674 C1662 0.960 . S
H1675 C1662 0.962 . S
H1676 C1662 0.960 1_556 S
H1677 C1663 0.961 . S
H1678 C1663 0.961 . S
H1679 C1663 0.961 . S
H1680 C1664 0.931 . S
H1681 C1669 0.930 . S
H1682 C1670 0.956 . S
H1683 C1670 0.961 . S
H1684 C1670 0.961 . S
H1685 C1671 0.958 . S
H1686 C1671 0.961 . S
H1687 C1671 0.960 . S
C1688 C1689 1.391 . S
C1688 C1690 1.394 . S
C1688 H1704 0.931 . S
C1689 C1688 1.391 . S
C1689 C1693 1.376 . S
C1690 C1688 1.394 . S
C1690 C1691 1.369 . S
C1690 C1694 1.531 . S
C1691 C1690 1.369 . S
C1691 C1692 1.410 . S
C1691 C1699 1.503 . S
C1692 C1691 1.410 . S
C1692 C1693 1.392 . S
C1692 C1695 1.511 . S
C1693 C1689 1.376 . S
C1693 C1692 1.392 . S
C1693 H1705 0.929 . S
C1694 C1690 1.531 . S
C1694 H1706 0.960 . S
C1694 H1707 0.962 . S
C1694 H1708 0.960 . S
C1695 C1692 1.511 . S
C1695 H1709 0.961 . S
C1695 H1710 0.961 . S
C1695 H1711 0.961 . S
C1696 C1697 1.370 . S
C1696 C1698 1.363 . S
C1696 H1712 0.931 . S
C1697 C1696 1.370 . S
C1697 C1701 1.408 . S
C1698 C1696 1.363 . S
C1698 C1699 1.370 . S
C1698 C1702 1.524 . S
C1699 C1691 1.503 . S
C1699 C1698 1.370 . S
C1699 C1700 1.403 . S
C1700 C1699 1.403 . S
C1700 C1701 1.404 . S
C1700 C1703 1.539 . S
C1701 C1697 1.408 . S
C1701 C1700 1.404 . S
C1701 H1713 0.930 . S
C1702 C1698 1.524 . S
C1702 H1714 0.956 . S
C1702 H1715 0.961 . S
C1702 H1716 0.961 . S
C1703 C1700 1.539 . S
C1703 H1717 0.958 . S
C1703 H1718 0.961 . S
C1703 H1719 0.960 . S
H1704 C1688 0.931 . S
H1705 C1693 0.929 . S
H1706 C1694 0.960 . S
H1707 C1694 0.962 . S
H1708 C1694 0.960 . S
H1709 C1695 0.961 . S
H1710 C1695 0.961 . S
H1711 C1695 0.961 . S
H1712 C1696 0.931 . S
H1713 C1701 0.930 . S
H1714 C1702 0.956 . S
H1715 C1702 0.961 . S
H1716 C1702 0.961 . S
H1717 C1703 0.958 . S
H1718 C1703 0.961 . S
H1719 C1703 0.960 . S
C1720 C1721 1.391 . S
C1720 C1722 1.394 1_556 S
C1720 H1736 0.931 . S
C1721 C1720 1.391 . S
C1721 C1725 1.376 . S
C1722 C1720 1.394 1_554 S
C1722 C1723 1.369 . S
C1722 C1726 1.531 . S
C1723 C1722 1.369 . S
C1723 C1724 1.410 . S
C1723 C1731 1.503 . S
C1724 C1723 1.410 . S
C1724 C1725 1.392 1_554 S
C1724 C1727 1.511 . S
C1725 C1721 1.376 . S
C1725 C1724 1.392 1_556 S
C1725 H1737 0.929 . S
C1726 C1722 1.531 . S
C1726 H1738 0.960 . S
C1726 H1739 0.962 . S
C1726 H1740 0.960 . S
C1727 C1724 1.511 . S
C1727 H1741 0.961 1_554 S
C1727 H1742 0.961 . S
C1727 H1743 0.961 . S
C1728 C1729 1.370 . S
C1728 C1730 1.363 . S
C1728 H1744 0.931 . S
C1729 C1728 1.370 . S
C1729 C1733 1.408 . S
C1730 C1728 1.363 . S
C1730 C1731 1.370 . S
C1730 C1734 1.524 . S
C1731 C1723 1.503 . S
C1731 C1730 1.370 . S
C1731 C1732 1.403 . S
C1732 C1731 1.403 . S
C1732 C1733 1.404 . S
C1732 C1735 1.539 . S
C1733 C1729 1.408 . S
C1733 C1732 1.404 . S
C1733 H1745 0.930 . S
C1734 C1730 1.524 . S
C1734 H1746 0.956 . S
C1734 H1747 0.961 . S
C1734 H1748 0.961 . S
C1735 C1732 1.539 . S
C1735 H1749 0.958 . S
C1735 H1750 0.961 . S
C1735 H1751 0.960 . S
H1736 C1720 0.931 . S
H1737 C1725 0.929 . S
H1738 C1726 0.960 . S
H1739 C1726 0.962 . S
H1740 C1726 0.960 . S
H1741 C1727 0.961 1_556 S
H1742 C1727 0.961 . S
H1743 C1727 0.961 . S
H1744 C1728 0.931 . S
H1745 C1733 0.930 . S
H1746 C1734 0.956 . S
H1747 C1734 0.961 . S
H1748 C1734 0.961 . S
H1749 C1735 0.958 . S
H1750 C1735 0.961 . S
H1751 C1735 0.960 . S
C1752 C1753 1.391 . S
C1752 C1754 1.394 . S
C1752 H1768 0.931 . S
C1753 C1752 1.391 . S
C1753 C1757 1.376 . S
C1754 C1752 1.394 . S
C1754 C1755 1.369 . S
C1754 C1758 1.531 . S
C1755 C1754 1.369 . S
C1755 C1756 1.410 . S
C1755 C1763 1.503 . S
C1756 C1755 1.410 . S
C1756 C1757 1.392 . S
C1756 C1759 1.511 . S
C1757 C1753 1.376 . S
C1757 C1756 1.392 . S
C1757 H1769 0.929 . S
C1758 C1754 1.531 . S
C1758 H1770 0.960 . S
C1758 H1771 0.962 . S
C1758 H1772 0.960 . S
C1759 C1756 1.511 . S
C1759 H1773 0.961 . S
C1759 H1774 0.961 . S
C1759 H1775 0.961 . S
C1760 C1761 1.370 . S
C1760 C1762 1.363 . S
C1760 H1776 0.931 . S
C1761 C1760 1.370 . S
C1761 C1765 1.408 . S
C1762 C1760 1.363 . S
C1762 C1763 1.370 . S
C1762 C1766 1.524 . S
C1763 C1755 1.503 . S
C1763 C1762 1.370 . S
C1763 C1764 1.403 . S
C1764 C1763 1.403 . S
C1764 C1765 1.404 . S
C1764 C1767 1.539 . S
C1765 C1761 1.408 . S
C1765 C1764 1.404 . S
C1765 H1777 0.930 . S
C1766 C1762 1.524 . S
C1766 H1778 0.956 . S
C1766 H1779 0.961 . S
C1766 H1780 0.961 . S
C1767 C1764 1.539 . S
C1767 H1781 0.958 . S
C1767 H1782 0.961 . S
C1767 H1783 0.960 . S
H1768 C1752 0.931 . S
H1769 C1757 0.929 . S
H1770 C1758 0.960 . S
H1771 C1758 0.962 . S
H1772 C1758 0.960 . S
H1773 C1759 0.961 . S
H1774 C1759 0.961 . S
H1775 C1759 0.961 . S
H1776 C1760 0.931 . S
H1777 C1765 0.930 . S
H1778 C1766 0.956 . S
H1779 C1766 0.961 . S
H1780 C1766 0.961 . S
H1781 C1767 0.958 . S
H1782 C1767 0.961 . S
H1783 C1767 0.960 . S
C1784 C1785 1.391 . S
C1784 C1786 1.394 . S
C1784 H1800 0.931 . S
C1785 C1784 1.391 . S
C1785 C1789 1.376 . S
C1786 C1784 1.394 . S
C1786 C1787 1.369 . S
C1786 C1790 1.531 . S
C1787 C1786 1.369 . S
C1787 C1788 1.410 . S
C1787 C1795 1.503 . S
C1788 C1787 1.410 . S
C1788 C1789 1.392 . S
C1788 C1791 1.511 . S
C1789 C1785 1.376 . S
C1789 C1788 1.392 . S
C1789 H1801 0.929 . S
C1790 C1786 1.531 . S
C1790 H1802 0.960 . S
C1790 H1803 0.962 . S
C1790 H1804 0.960 . S
C1791 C1788 1.511 . S
C1791 H1805 0.961 . S
C1791 H1806 0.961 . S
C1791 H1807 0.961 . S
C1792 C1793 1.370 . S
C1792 C1794 1.363 . S
C1792 H1808 0.931 . S
C1793 C1792 1.370 . S
C1793 C1797 1.408 . S
C1794 C1792 1.363 . S
C1794 C1795 1.370 . S
C1794 C1798 1.524 . S
C1795 C1787 1.503 . S
C1795 C1794 1.370 . S
C1795 C1796 1.403 . S
C1796 C1795 1.403 . S
C1796 C1797 1.404 . S
C1796 C1799 1.539 . S
C1797 C1793 1.408 . S
C1797 C1796 1.404 . S
C1797 H1809 0.930 . S
C1798 C1794 1.524 . S
C1798 H1810 0.956 . S
C1798 H1811 0.961 . S
C1798 H1812 0.961 . S
C1799 C1796 1.539 . S
C1799 H1813 0.958 . S
C1799 H1814 0.961 . S
C1799 H1815 0.960 . S
H1800 C1784 0.931 . S
H1801 C1789 0.929 . S
H1802 C1790 0.960 . S
H1803 C1790 0.962 . S
H1804 C1790 0.960 . S
H1805 C1791 0.961 . S
H1806 C1791 0.961 . S
H1807 C1791 0.961 . S
H1808 C1792 0.931 . S
H1809 C1797 0.930 . S
H1810 C1798 0.956 . S
H1811 C1798 0.961 . S
H1812 C1798 0.961 . S
H1813 C1799 0.958 . S
H1814 C1799 0.961 . S
H1815 C1799 0.960 . S
C1816 C1817 1.391 . S
C1816 C1818 1.394 . S
C1816 H1832 0.931 . S
C1817 C1816 1.391 . S
C1817 C1821 1.376 . S
C1818 C1816 1.394 . S
C1818 C1819 1.369 . S
C1818 C1822 1.531 . S
C1819 C1818 1.369 . S
C1819 C1820 1.410 . S
C1819 C1827 1.503 . S
C1820 C1819 1.410 . S
C1820 C1821 1.392 . S
C1820 C1823 1.511 . S
C1821 C1817 1.376 . S
C1821 C1820 1.392 . S
C1821 H1833 0.929 . S
C1822 C1818 1.531 . S
C1822 H1834 0.960 . S
C1822 H1835 0.962 . S
C1822 H1836 0.960 . S
C1823 C1820 1.511 . S
C1823 H1837 0.961 . S
C1823 H1838 0.961 . S
C1823 H1839 0.961 . S
C1824 C1825 1.370 . S
C1824 C1826 1.363 . S
C1824 H1840 0.931 . S
C1825 C1824 1.370 . S
C1825 C1829 1.408 . S
C1826 C1824 1.363 . S
C1826 C1827 1.370 . S
C1826 C1830 1.524 . S
C1827 C1819 1.503 . S
C1827 C1826 1.370 . S
C1827 C1828 1.403 . S
C1828 C1827 1.403 . S
C1828 C1829 1.404 . S
C1828 C1831 1.539 . S
C1829 C1825 1.408 . S
C1829 C1828 1.404 . S
C1829 H1841 0.930 . S
C1830 C1826 1.524 . S
C1830 H1842 0.956 . S
C1830 H1843 0.961 . S
C1830 H1844 0.961 . S
C1831 C1828 1.539 . S
C1831 H1845 0.958 . S
C1831 H1846 0.961 . S
C1831 H1847 0.960 . S
H1832 C1816 0.931 . S
H1833 C1821 0.929 . S
H1834 C1822 0.960 . S
H1835 C1822 0.962 . S
H1836 C1822 0.960 . S
H1837 C1823 0.961 . S
H1838 C1823 0.961 . S
H1839 C1823 0.961 . S
H1840 C1824 0.931 . S
H1841 C1829 0.930 . S
H1842 C1830 0.956 . S
H1843 C1830 0.961 . S
H1844 C1830 0.961 . S
H1845 C1831 0.958 . S
H1846 C1831 0.961 . S
H1847 C1831 0.960 . S
C1848 C1849 1.391 . S
C1848 C1850 1.394 . S
C1848 H1864 0.931 . S
C1849 C1848 1.391 . S
C1849 C1853 1.376 . S
C1850 C1848 1.394 . S
C1850 C1851 1.369 . S
C1850 C1854 1.531 . S
C1851 C1850 1.369 . S
C1851 C1852 1.410 . S
C1851 C1859 1.503 . S
C1852 C1851 1.410 . S
C1852 C1853 1.392 . S
C1852 C1855 1.511 . S
C1853 C1849 1.376 . S
C1853 C1852 1.392 . S
C1853 H1865 0.929 . S
C1854 C1850 1.531 . S
C1854 H1866 0.960 . S
C1854 H1867 0.962 . S
C1854 H1868 0.960 . S
C1855 C1852 1.511 . S
C1855 H1869 0.961 . S
C1855 H1870 0.961 . S
C1855 H1871 0.961 . S
C1856 C1857 1.370 . S
C1856 C1858 1.363 . S
C1856 H1872 0.931 . S
C1857 C1856 1.370 . S
C1857 C1861 1.408 . S
C1858 C1856 1.363 . S
C1858 C1859 1.370 . S
C1858 C1862 1.524 . S
C1859 C1851 1.503 . S
C1859 C1858 1.370 . S
C1859 C1860 1.403 . S
C1860 C1859 1.403 . S
C1860 C1861 1.404 . S
C1860 C1863 1.539 . S
C1861 C1857 1.408 . S
C1861 C1860 1.404 . S
C1861 H1873 0.930 . S
C1862 C1858 1.524 . S
C1862 H1874 0.956 . S
C1862 H1875 0.961 . S
C1862 H1876 0.961 . S
C1863 C1860 1.539 . S
C1863 H1877 0.958 . S
C1863 H1878 0.961 . S
C1863 H1879 0.960 . S
H1864 C1848 0.931 . S
H1865 C1853 0.929 . S
H1866 C1854 0.960 . S
H1867 C1854 0.962 . S
H1868 C1854 0.960 . S
H1869 C1855 0.961 . S
H1870 C1855 0.961 . S
H1871 C1855 0.961 . S
H1872 C1856 0.931 . S
H1873 C1861 0.930 . S
H1874 C1862 0.956 . S
H1875 C1862 0.961 . S
H1876 C1862 0.961 . S
H1877 C1863 0.958 . S
H1878 C1863 0.961 . S
H1879 C1863 0.960 . S
C1880 C1881 1.391 . S
C1880 C1882 1.394 . S
C1880 H1896 0.931 . S
C1881 C1880 1.391 . S
C1881 C1885 1.376 . S
C1882 C1880 1.394 . S
C1882 C1883 1.369 . S
C1882 C1886 1.531 . S
C1883 C1882 1.369 . S
C1883 C1884 1.410 . S
C1883 C1891 1.503 . S
C1884 C1883 1.410 . S
C1884 C1885 1.392 . S
C1884 C1887 1.511 . S
C1885 C1881 1.376 . S
C1885 C1884 1.392 . S
C1885 H1897 0.929 . S
C1886 C1882 1.531 . S
C1886 H1898 0.960 . S
C1886 H1899 0.962 . S
C1886 H1900 0.960 . S
C1887 C1884 1.511 . S
C1887 H1901 0.961 . S
C1887 H1902 0.961 . S
C1887 H1903 0.961 . S
C1888 C1889 1.370 . S
C1888 C1890 1.363 . S
C1888 H1904 0.931 . S
C1889 C1888 1.370 . S
C1889 C1893 1.408 . S
C1890 C1888 1.363 . S
C1890 C1891 1.370 . S
C1890 C1894 1.524 . S
C1891 C1883 1.503 . S
C1891 C1890 1.370 . S
C1891 C1892 1.403 . S
C1892 C1891 1.403 . S
C1892 C1893 1.404 . S
C1892 C1895 1.539 . S
C1893 C1889 1.408 . S
C1893 C1892 1.404 . S
C1893 H1905 0.930 . S
C1894 C1890 1.524 . S
C1894 H1906 0.956 . S
C1894 H1907 0.961 . S
C1894 H1908 0.961 1_556 S
C1895 C1892 1.539 . S
C1895 H1909 0.958 . S
C1895 H1910 0.961 . S
C1895 H1911 0.960 . S
H1896 C1880 0.931 . S
H1897 C1885 0.929 . S
H1898 C1886 0.960 . S
H1899 C1886 0.962 . S
H1900 C1886 0.960 . S
H1901 C1887 0.961 . S
H1902 C1887 0.961 . S
H1903 C1887 0.961 . S
H1904 C1888 0.931 . S
H1905 C1893 0.930 . S
H1906 C1894 0.956 . S
H1907 C1894 0.961 . S
H1908 C1894 0.961 1_554 S
H1909 C1895 0.958 . S
H1910 C1895 0.961 . S
H1911 C1895 0.960 . S
C1912 C1913 1.391 . S
C1912 C1914 1.394 . S
C1912 H1928 0.931 . S
C1913 C1912 1.391 . S
C1913 C1917 1.376 . S
C1914 C1912 1.394 . S
C1914 C1915 1.369 . S
C1914 C1918 1.531 . S
C1915 C1914 1.369 . S
C1915 C1916 1.410 . S
C1915 C1923 1.503 . S
C1916 C1915 1.410 . S
C1916 C1917 1.392 . S
C1916 C1919 1.511 . S
C1917 C1913 1.376 . S
C1917 C1916 1.392 . S
C1917 H1929 0.929 . S
C1918 C1914 1.531 . S
C1918 H1930 0.960 . S
C1918 H1931 0.962 . S
C1918 H1932 0.960 . S
C1919 C1916 1.511 . S
C1919 H1933 0.961 . S
C1919 H1934 0.961 . S
C1919 H1935 0.961 . S
C1920 C1921 1.370 . S
C1920 C1922 1.363 . S
C1920 H1936 0.931 . S
C1921 C1920 1.370 . S
C1921 C1925 1.408 . S
C1922 C1920 1.363 . S
C1922 C1923 1.370 . S
C1922 C1926 1.524 . S
C1923 C1915 1.503 . S
C1923 C1922 1.370 . S
C1923 C1924 1.403 . S
C1924 C1923 1.403 . S
C1924 C1925 1.404 . S
C1924 C1927 1.539 . S
C1925 C1921 1.408 . S
C1925 C1924 1.404 . S
C1925 H1937 0.930 . S
C1926 C1922 1.524 . S
C1926 H1938 0.956 . S
C1926 H1939 0.961 . S
C1926 H1940 0.961 . S
C1927 C1924 1.539 . S
C1927 H1941 0.958 . S
C1927 H1942 0.961 . S
C1927 H1943 0.960 . S
H1928 C1912 0.931 . S
H1929 C1917 0.929 . S
H1930 C1918 0.960 . S
H1931 C1918 0.962 . S
H1932 C1918 0.960 . S
H1933 C1919 0.961 . S
H1934 C1919 0.961 . S
H1935 C1919 0.961 . S
H1936 C1920 0.931 . S
H1937 C1925 0.930 . S
H1938 C1926 0.956 . S
H1939 C1926 0.961 . S
H1940 C1926 0.961 . S
H1941 C1927 0.958 . S
H1942 C1927 0.961 . S
H1943 C1927 0.960 . S
C1944 C1945 1.391 . S
C1944 C1946 1.394 . S
C1944 H1960 0.931 . S
C1945 C1944 1.391 . S
C1945 C1949 1.376 . S
C1946 C1944 1.394 . S
C1946 C1947 1.369 . S
C1946 C1950 1.531 . S
C1947 C1946 1.369 . S
C1947 C1948 1.410 . S
C1947 C1955 1.503 . S
C1948 C1947 1.410 . S
C1948 C1949 1.392 . S
C1948 C1951 1.511 . S
C1949 C1945 1.376 . S
C1949 C1948 1.392 . S
C1949 H1961 0.929 . S
C1950 C1946 1.531 . S
C1950 H1962 0.960 . S
C1950 H1963 0.962 . S
C1950 H1964 0.960 . S
C1951 C1948 1.511 . S
C1951 H1965 0.961 . S
C1951 H1966 0.961 . S
C1951 H1967 0.961 . S
C1952 C1953 1.370 . S
C1952 C1954 1.363 . S
C1952 H1968 0.931 . S
C1953 C1952 1.370 . S
C1953 C1957 1.408 . S
C1954 C1952 1.363 . S
C1954 C1955 1.370 . S
C1954 C1958 1.524 . S
C1955 C1947 1.503 . S
C1955 C1954 1.370 . S
C1955 C1956 1.403 . S
C1956 C1955 1.403 . S
C1956 C1957 1.404 . S
C1956 C1959 1.539 1_554 S
C1957 C1953 1.408 . S
C1957 C1956 1.404 . S
C1957 H1969 0.930 1_554 S
C1958 C1954 1.524 . S
C1958 H1970 0.956 . S
C1958 H1971 0.961 . S
C1958 H1972 0.961 . S
C1959 C1956 1.539 1_556 S
C1959 H1973 0.958 . S
C1959 H1974 0.961 . S
C1959 H1975 0.960 1_556 S
H1960 C1944 0.931 . S
H1961 C1949 0.929 . S
H1962 C1950 0.960 . S
H1963 C1950 0.962 . S
H1964 C1950 0.960 . S
H1965 C1951 0.961 . S
H1966 C1951 0.961 . S
H1967 C1951 0.961 . S
H1968 C1952 0.931 . S
H1969 C1957 0.930 1_556 S
H1970 C1958 0.956 . S
H1971 C1958 0.961 . S
H1972 C1958 0.961 . S
H1973 C1959 0.958 . S
H1974 C1959 0.961 . S
H1975 C1959 0.960 1_554 S
C1976 C1977 1.391 . S
C1976 C1978 1.394 . S
C1976 H1992 0.931 . S
C1977 C1976 1.391 . S
C1977 C1981 1.376 . S
C1978 C1976 1.394 . S
C1978 C1979 1.369 . S
C1978 C1982 1.531 . S
C1979 C1978 1.369 . S
C1979 C1980 1.410 . S
C1979 C1987 1.503 . S
C1980 C1979 1.410 . S
C1980 C1981 1.392 . S
C1980 C1983 1.511 . S
C1981 C1977 1.376 . S
C1981 C1980 1.392 . S
C1981 H1993 0.929 . S
C1982 C1978 1.531 . S
C1982 H1994 0.960 . S
C1982 H1995 0.962 . S
C1982 H1996 0.960 . S
C1983 C1980 1.511 . S
C1983 H1997 0.961 . S
C1983 H1998 0.961 . S
C1983 H1999 0.961 . S
C1984 C1985 1.370 . S
C1984 C1986 1.363 . S
C1984 H2000 0.931 . S
C1985 C1984 1.370 . S
C1985 C1989 1.408 . S
C1986 C1984 1.363 . S
C1986 C1987 1.370 . S
C1986 C1990 1.524 . S
C1987 C1979 1.503 . S
C1987 C1986 1.370 . S
C1987 C1988 1.403 . S
C1988 C1987 1.403 . S
C1988 C1989 1.404 . S
C1988 C1991 1.539 . S
C1989 C1985 1.408 . S
C1989 C1988 1.404 . S
C1989 H2001 0.930 . S
C1990 C1986 1.524 . S
C1990 H2002 0.956 . S
C1990 H2003 0.961 . S
C1990 H2004 0.961 . S
C1991 C1988 1.539 . S
C1991 H2005 0.958 . S
C1991 H2006 0.961 . S
C1991 H2007 0.960 . S
H1992 C1976 0.931 . S
H1993 C1981 0.929 . S
H1994 C1982 0.960 . S
H1995 C1982 0.962 . S
H1996 C1982 0.960 . S
H1997 C1983 0.961 . S
H1998 C1983 0.961 . S
H1999 C1983 0.961 . S
H2000 C1984 0.931 . S
H2001 C1989 0.930 . S
H2002 C1990 0.956 . S
H2003 C1990 0.961 . S
H2004 C1990 0.961 . S
H2005 C1991 0.958 . S
H2006 C1991 0.961 . S
H2007 C1991 0.960 . S
C481 C312 2.057 . S
C473 C101 2.043 . S
C513 C327 1.485 . S
C505 C125 1.433 . S
C537 C139 2.232 . S
C545 C340 2.207 . S
C577 C354 1.699 . S
C569 C82 1.719 . S
C609 C366 1.800 . S
C601 C196 1.935 . S
C641 C380 1.590 . S
C633 C234 1.637 . S
C665 C220 1.089 . S
C673 C394 1.172 . S
C705 C409 1.509 . S
C697 C173 1.516 . S
C729 C211 1.397 . S
C737 C425 1.346 . S
C769 C438 1.181 . S
C761 C182 0.960 . S
C793 C201 1.512 . S
C801 C423 1.586 . S
C833 C436 1.650 . S
C825 C239 1.614 . S
C857 C135 2.039 . S
C865 C452 2.039 . S
C889 C87 1.819 . S
C897 C451 1.878 . S
C921 C106 1.360 . S
C929 C450 1.467 . S
C953 C116 1.285 . S
C961 C453 1.347 . S
C985 C59 2.102 . S
C993 C355 2.100 1_565 S
C1017 C268 2.062 . S
C1025 C353 2.049 . S
C1057 C313 1.207 . S
C1049 C291 1.207 . S
C1089 C324 1.711 . S
C1081 C163 1.643 . S
C1113 C78 1.857 . S
C1121 C369 1.849 . S
C1153 C410 1.652 . S
C1145 C215 1.646 . S
C1185 C367 1.921 . S
C1177 C177 1.901 . S
C1217 C395 1.655 . S
C1209 C230 1.661 . S
C1249 C396 2.049 . S
C1241 C272 2.062 . S
C1273 C296 1.492 . S
C1281 C411 1.495 . S
C1305 C158 2.221 . S
C1313 C368 2.200 . S
C1345 C382 1.707 . S
C1337 C253 1.701 . S
C1369 C63 1.942 . S
C1377 C338 1.771 . S
C1409 C352 1.579 . S
C1401 C6 1.631 . S
C1441 C310 1.176 . S
C1433 C30 1.070 . S
C1473 C325 1.531 . S
C1465 C40 1.549 . S
C1497 C21 1.428 . S
C1505 C439 1.319 . S
C1529 C49 1.109 . S
C1537 C424 1.162 . S
C1561 C68 1.526 . S
C1569 C437 1.580 . S
C1593 C11 1.636 . S
C1601 C422 1.659 . S
C1633 C466 2.034 . S
C1625 C154 2.030 . S
C1665 C465 1.881 . S
C1657 C258 1.828 . S
C1697 C464 1.467 . S
C1689 C277 1.373 . S
C1721 C287 1.289 . S
C1729 C467 1.345 . S
C1753 C192 2.106 . S
C1761 C383 2.104 . S
C1793 C381 2.037 . S
C1785 C97 2.049 . S
C1825 C397 1.209 . S
C1817 C120 1.200 . S
C1857 C408 1.695 . S
C1849 C144 1.621 . S
C1881 C249 1.828 . S
C1889 C341 1.860 . S
C1921 C326 1.656 . S
C1913 C25 1.651 . S
C1945 C44 1.935 . S
C1953 C339 1.900 . S
C1985 C311 1.635 1_545 S
C1977 C2 1.686 . S
