# Generated by pormake.
# Topology rtl, (3,6)-cn, num edge types: 1
# Building blocks:
#     Node 0, Type 0, BuildingBlock: KAKCAD_clean_linker_0, # of connection points: 3
#     Node 1, Type 0, BuildingBlock: KAKCAD_clean_linker_0, # of connection points: 3
#     Node 2, Type 0, BuildingBlock: KAKCAD_clean_linker_0, # of connection points: 3
#     Node 3, Type 0, BuildingBlock: KAKCAD_clean_linker_0, # of connection points: 3
#     Node 4, Type 1, BuildingBlock: LEVNOQ01_clean_sbu_1, # of connection points: 6
#     Node 5, Type 1, BuildingBlock: LEVNOQ01_clean_sbu_1, # of connection points: 6
#     Edge 6, Type (0, 1), BuildingBlock: XIVTED_clean_linker_0, # of connection points: 2
#     Edge 7, Type (0, 1), BuildingBlock: XIVTED_clean_linker_0, # of connection points: 2
#     Edge 8, Type (0, 1), BuildingBlock: XIVTED_clean_linker_0, # of connection points: 2
#     Edge 9, Type (0, 1), BuildingBlock: XIVTED_clean_linker_0, # of connection points: 2
#     Edge 10, Type (0, 1), BuildingBlock: XIVTED_clean_linker_0, # of connection points: 2
#     Edge 11, Type (0, 1), BuildingBlock: XIVTED_clean_linker_0, # of connection points: 2
#     Edge 12, Type (0, 1), BuildingBlock: XIVTED_clean_linker_0, # of connection points: 2
#     Edge 13, Type (0, 1), BuildingBlock: XIVTED_clean_linker_0, # of connection points: 2
#     Edge 14, Type (0, 1), BuildingBlock: XIVTED_clean_linker_0, # of connection points: 2
#     Edge 15, Type (0, 1), BuildingBlock: XIVTED_clean_linker_0, # of connection points: 2
#     Edge 16, Type (0, 1), BuildingBlock: XIVTED_clean_linker_0, # of connection points: 2
#     Edge 17, Type (0, 1), BuildingBlock: XIVTED_clean_linker_0, # of connection points: 2
# Relax obj value: 0.026
# Max RMSD: 0.060
# Mean RMSD: 0.046
data_MOF--net-rtl--node1-LEVNOQ01_clean_sbu_1--node2-KAKCAD_clean_linker_0--edge1-XIVTED_clean_linker_0
_symmetry_space_group_name_H-M    P1
_symmetry_Int_Tables_number       1
_symmetry_cell_setting            triclinic
loop_
_symmetry_equiv_pos_as_xyz
'x, y, z'
_cell_length_a     37.905724
_cell_length_b     43.057787
_cell_length_c     30.067329
_cell_angle_alpha  89.959525
_cell_angle_beta   97.670308
_cell_angle_gamma 89.852272
loop_
_atom_site_label
_atom_site_type_symbol
_atom_site_fract_x
_atom_site_fract_y
_atom_site_fract_z
_atom_type_partial_charge
C0 C 0.19691 0.887 0.92892 0.0
C1 C 0.19305 0.91857 0.91723 0.0
C2 C 0.21238 0.87818 0.97196 0.0
C3 C 0.22437 0.90072 0.00434 0.0
C4 C 0.22043 0.93226 0.99263 0.0
C5 C 0.2049 0.94106 0.94971 0.0
C6 C 0.24096 0.89148 0.05016 0.0
C7 C 0.26429 0.86597 0.05624 0.0
C8 C 0.28006 0.8572 0.09932 0.0
C9 C 0.2726 0.87421 0.1367 0.0
C10 C 0.24872 0.89938 0.13156 0.0
C11 C 0.23321 0.90795 0.08812 0.0
C12 C 0.23815 0.91541 0.17159 0.0
C13 C 0.23148 0.89816 0.2093 0.0
C14 C 0.23284 0.94774 0.17161 0.0
C15 C 0.21991 0.96229 0.20777 0.0
C16 C 0.21208 0.94484 0.24476 0.0
C17 C 0.30312 0.82937 0.10541 0.0
C18 C 0.2907 0.8009 0.08688 0.0
C19 C 0.33735 0.83095 0.12981 0.0
C20 C 0.35915 0.80455 0.13469 0.0
C21 C 0.34667 0.77606 0.1161 0.0
C22 C 0.31216 0.77445 0.09246 0.0
C23 C 0.21867 0.9127 0.24546 0.0
H24 H 0.18831 0.86906 0.90468 0.0
H25 H 0.21459 0.85367 0.97999 0.0
H26 H 0.22966 0.95023 0.01653 0.0
H27 H 0.20185 0.9656 0.9422 0.0
H28 H 0.2707 0.85308 0.02739 0.0
H29 H 0.21397 0.92673 0.08394 0.0
H30 H 0.28477 0.86731 0.16992 0.0
H31 H 0.23472 0.87316 0.21016 0.0
H32 H 0.23827 0.96178 0.1434 0.0
H33 H 0.21552 0.98716 0.20646 0.0
H34 H 0.26429 0.79911 0.0682 0.0
H35 H 0.34745 0.85272 0.14433 0.0
H36 H 0.21234 0.89847 0.27302 0.0
H37 H 0.30211 0.75287 0.07724 0.0
H38 H 0.38571 0.80636 0.15294 0.0
C39 C 0.69953 0.62979 0.72788 0.0
C40 C 0.69044 0.59839 0.73181 0.0
C41 C 0.71554 0.64006 0.6914 0.0
C42 C 0.72284 0.61917 0.65789 0.0
C43 C 0.71517 0.58749 0.66279 0.0
C44 C 0.69925 0.57716 0.69954 0.0
C45 C 0.73624 0.63099 0.6168 0.0
C46 C 0.7622 0.65436 0.61988 0.0
C47 C 0.77237 0.66814 0.58115 0.0
C48 C 0.75672 0.65761 0.53874 0.0
C49 C 0.73121 0.63375 0.53496 0.0
C50 C 0.72117 0.62063 0.57422 0.0
C51 C 0.71384 0.62318 0.49024 0.0
C52 C 0.70198 0.64468 0.45621 0.0
C53 C 0.70762 0.59142 0.48199 0.0
C54 C 0.68903 0.58144 0.44131 0.0
C55 C 0.67607 0.60296 0.40782 0.0
C56 C 0.79858 0.69406 0.58527 0.0
C57 C 0.79811 0.71669 0.61895 0.0
C58 C 0.82417 0.6965 0.55566 0.0
C59 C 0.84852 0.721 0.5595 0.0
C60 C 0.84811 0.7436 0.59326 0.0
C61 C 0.82265 0.74103 0.62303 0.0
C62 C 0.6833 0.63468 0.41542 0.0
H63 H 0.69329 0.64663 0.75244 0.0
H64 H 0.72079 0.66464 0.6885 0.0
H65 H 0.72083 0.57079 0.63773 0.0
H66 H 0.69234 0.55286 0.70158 0.0
H67 H 0.77452 0.66183 0.65271 0.0
H68 H 0.70033 0.60328 0.57159 0.0
H69 H 0.76405 0.66819 0.50861 0.0
H70 H 0.70603 0.66935 0.46168 0.0
H71 H 0.71698 0.57422 0.50716 0.0
H72 H 0.68462 0.55678 0.4362 0.0
H73 H 0.77845 0.71588 0.64195 0.0
H74 H 0.82557 0.67936 0.5296 0.0
H75 H 0.67345 0.65188 0.39049 0.0
H76 H 0.82167 0.75776 0.6497 0.0
H77 H 0.8673 0.72246 0.53542 0.0
C78 C 0.77662 0.11286 0.16064 0.0
C79 C 0.81269 0.10449 0.17038 0.0
C80 C 0.76203 0.12063 0.11692 0.0
C81 C 0.78315 0.12017 0.08188 0.0
C82 C 0.81914 0.11152 0.09148 0.0
C83 C 0.83377 0.10383 0.13528 0.0
C84 C 0.76792 0.1298 0.03582 0.0
C85 C 0.74606 0.15616 0.02956 0.0
C86 C 0.73193 0.1662 0.98637 0.0
C87 C 0.74042 0.14969 0.94891 0.0
C88 C 0.76237 0.1231 0.9544 0.0
C89 C 0.77574 0.11327 -0.00189 0.0
C90 C 0.77227 0.10617 0.91465 0.0
C91 C 0.74764 0.10243 0.87564 0.0
C92 C 0.80692 0.09429 0.91503 0.0
C93 C 0.81688 0.07961 0.87722 0.0
C94 C 0.79258 0.07669 0.83788 0.0
C95 C 0.70925 0.19454 0.98126 0.0
C96 C 0.68414 0.19974 0.01089 0.0
C97 C 0.71427 0.21762 0.94951 0.0
C98 C 0.6961 0.24605 0.94935 0.0
C99 C 0.6729 0.25178 0.98113 0.0
C100 C 0.66636 0.22808 0.011 0.0
C101 C 0.75776 0.08801 0.83759 0.0
H102 H 0.75972 0.11381 0.18695 0.0
H103 H 0.73413 0.12695 0.11052 0.0
H104 H 0.83617 0.11123 0.06528 0.0
H105 H 0.86154 0.09709 0.14158 0.0
H106 H 0.74094 0.16955 0.05855 0.0
H107 H 0.79195 0.09247 0.00293 0.0
H108 H 0.73019 0.15775 0.91553 0.0
H109 H 0.72055 0.11076 0.87439 0.0
H110 H 0.82684 0.09719 0.94408 0.0
H111 H 0.84412 0.07166 0.87821 0.0
H112 H 0.67901 0.18218 0.03502 0.0
H113 H 0.73353 0.21436 0.92635 0.0
H114 H 0.7384 0.08589 0.80781 0.0
H115 H 0.6482 0.23187 0.03543 0.0
H116 H 0.70158 0.26408 0.9261 0.0
C117 C 0.25627 0.42296 0.33563 0.0
C118 C 0.29099 0.43431 0.3357 0.0
C119 C 0.24657 0.40805 0.37347 0.0
C120 C 0.27147 0.40391 0.41214 0.0
C121 C 0.30579 0.41637 0.41278 0.0
C122 C 0.3154 0.43147 0.37503 0.0
C123 C 0.26236 0.38508 0.45055 0.0
C124 C 0.2424 0.35769 0.44257 0.0
C125 C 0.2347 0.33891 0.47821 0.0
C126 C 0.24731 0.34778 0.52245 0.0
C127 C 0.2675 0.37495 0.53124 0.0
C128 C 0.27473 0.39354 0.49507 0.0
C129 C 0.28158 0.38354 0.57817 0.0
C130 C 0.26029 0.38052 0.61281 0.0
C131 C 0.31665 0.39436 0.58878 0.0
C132 C 0.33012 0.40196 0.63298 0.0
C133 C 0.30884 0.39897 0.66763 0.0
C134 C 0.214 0.30978 0.46912 0.0
C135 C 0.18402 0.30898 0.43609 0.0
C136 C 0.22398 0.28258 0.49351 0.0
C137 C 0.2041 0.25539 0.48565 0.0
C138 C 0.17377 0.25469 0.45314 0.0
C139 C 0.16414 0.28175 0.42819 0.0
C140 C 0.27375 0.38818 0.657 0.0
H141 H 0.23673 0.4252 0.30603 0.0
H142 H 0.21968 0.39932 0.37217 0.0
H143 H 0.32577 0.41331 0.44174 0.0
H144 H 0.34251 0.4396 0.37596 0.0
H145 H 0.23387 0.35034 0.40838 0.0
H146 H 0.28964 0.41486 0.50163 0.0
H147 H 0.24165 0.33332 0.55014 0.0
H148 H 0.23306 0.37251 0.60571 0.0
H149 H 0.33387 0.39664 0.56298 0.0
H150 H 0.35711 0.4106 0.63988 0.0
H151 H 0.17547 0.32958 0.41691 0.0
H152 H 0.24721 0.28227 0.51876 0.0
H153 H 0.25672 0.38538 0.68292 0.0
H154 H 0.14108 0.28198 0.40269 0.0
H155 H 0.21201 0.23514 0.50599 0.0
O156 O 0.96293 0.06667 0.61753 0.0
Mg157 Mg 0.01652 0.0677 0.6076 0.0
O158 O 0.95542 0.02039 0.58558 0.0
Mg159 Mg 0.00241 0.01076 0.54312 0.0
O160 O 0.02233 0.06153 0.54199 0.0
O161 O 0.03431 0.10632 0.57836 0.0
O162 O 0.04879 0.00086 0.50088 0.0
O163 O 0.96314 0.02988 0.47978 0.0
Mg164 Mg 0.97511 0.97326 0.48251 0.0
O165 O 0.98431 0.95746 0.54729 0.0
O166 O 0.01452 0.98406 0.44143 0.0
O167 O 0.92485 0.99247 0.46369 0.0
O168 O 0.97247 0.92689 0.48631 0.0
C169 C 0.05834 0.01069 0.64126 0.0
C170 C 0.9442 0.04273 0.60794 0.0
C171 C 0.03337 0.09005 0.54222 0.0
C172 C 0.04457 0.99331 0.45963 0.0
C173 C 0.93345 0.0204 0.45922 0.0
C174 C 0.97723 0.93023 0.52927 0.0
O175 O 0.05347 0.03939 0.64788 0.0
O176 O 0.04183 -0.00327 0.60713 0.0
O177 O 0.51029 0.49279 0.13868 0.0
Mg178 Mg 0.49124 0.46521 0.08153 0.0
O179 O 0.52878 0.52746 0.09393 0.0
Mg180 Mg 0.48974 0.50921 0.03352 0.0
O181 O 0.52137 0.46012 0.03068 0.0
O182 O 0.52136 0.42701 0.08866 0.0
O183 O 0.45126 0.4856 0.97346 0.0
O184 O 0.53087 0.52367 0.98549 0.0
Mg185 Mg 0.4519 0.54373 0.97529 0.0
O186 O 0.46585 0.56037 0.03849 0.0
O187 O 0.40578 0.51699 0.96204 0.0
O188 O 0.4908 0.5409 0.93155 0.0
O189 O 0.43952 0.5888 0.9803 0.0
C190 C 0.42536 0.47637 0.08419 0.0
C191 C 0.52808 0.51704 0.13342 0.0
C192 C 0.53262 0.4347 0.05166 0.0
C193 C 0.41926 0.49087 0.95586 0.0
C194 C 0.52282 0.53412 0.94569 0.0
C195 C 0.45179 0.58631 0.02221 0.0
O196 O 0.43754 0.45094 0.07228 0.0
O197 O 0.44361 0.50077 0.0801 0.0
H198 H 0.19477 0.19341 0.45406 0.0
H199 H 0.0028 0.13716 0.49188 0.0
H200 H 0.1009 0.25144 0.43985 0.0
H201 H 0.09527 0.07794 0.50921 0.0
H202 H 0.03526 0.17464 0.45198 0.0
H203 H 0.15691 0.14768 0.45632 0.0
C204 C 0.16619 0.19653 0.45096 0.0
C205 C 0.15109 0.22643 0.44761 0.0
C206 C 0.04827 0.15307 0.4632 0.0
C207 C 0.10756 0.1741 0.44975 0.0
C208 C 0.02952 0.1315 0.48541 0.0
C209 C 0.04648 0.10456 0.50355 0.0
C210 C 0.08455 0.14798 0.46039 0.0
C211 C 0.0813 0.09844 0.49526 0.0
C212 C 0.14457 0.17037 0.45189 0.0
C213 C 0.11383 0.22895 0.4425 0.0
N214 N 0.09958 0.1204 0.4752 0.0
N215 N 0.09344 0.20321 0.4444 0.0
H216 H 0.33156 0.71698 0.141 0.0
H217 H 0.47278 0.64475 0.00739 0.0
H218 H 0.41451 0.77222 0.09556 0.0
H219 H 0.42233 0.58949 0.10029 0.0
H220 H 0.45538 0.69181 0.04422 0.0
H221 H 0.36658 0.67008 0.13186 0.0
C222 C 0.35745 0.71921 0.12983 0.0
C223 C 0.37005 0.74837 0.11847 0.0
C224 C 0.44882 0.66945 0.05741 0.0
C225 C 0.40995 0.695 0.10745 0.0
C226 C 0.45877 0.64264 0.0364 0.0
C227 C 0.44884 0.61345 0.05095 0.0
C228 C 0.42772 0.66703 0.09223 0.0
C229 C 0.43055 0.61173 0.08838 0.0
C230 C 0.3775 0.6925 0.12487 0.0
C231 C 0.40386 0.75013 0.10459 0.0
N232 N 0.41975 0.63828 0.10718 0.0
N233 N 0.42234 0.72373 0.09858 0.0
H234 H 0.91822 0.74369 0.57856 0.0
H235 H 0.9378 0.92827 0.59898 0.0
H236 H 0.836 0.80441 0.61544 0.0
H237 H -0.00223 0.8707 0.51874 0.0
H238 H 0.91106 0.88125 0.62661 0.0
H239 H 0.95719 0.7886 0.57641 0.0
C240 C 0.90832 0.76638 0.58636 0.0
C241 C 0.87342 0.77021 0.5964 0.0
C242 C 0.93078 0.87894 0.60386 0.0
C243 C 0.91837 0.82166 0.59504 0.0
C244 C 0.94634 0.90569 0.58858 0.0
C245 C 0.96982 0.90319 0.55647 0.0
C246 C 0.93924 0.84972 0.5872 0.0
C247 C 0.9796 0.87349 0.54337 0.0
C248 C 0.93074 0.79196 0.58551 0.0
C249 C 0.86264 0.80017 0.60763 0.0
N250 N 0.96401 0.84792 0.55844 0.0
N251 N 0.8849 0.82476 0.60624 0.0
H252 H 0.6808 0.28624 0.0566 0.0
H253 H 0.53877 0.41677 0.96463 0.0
H254 H 0.63184 0.28834 0.91877 0.0
H255 H 0.58676 0.40588 0.10206 0.0
H256 H 0.57833 0.37538 0.94271 0.0
H257 H 0.65265 0.33559 0.06953 0.0
C258 C 0.66408 0.2973 0.02899 0.0
C259 C 0.65811 0.28311 0.98682 0.0
C260 C 0.58046 0.38248 0.97751 0.0
C261 C 0.62526 0.33968 0.0013 0.0
C262 C 0.55811 0.40614 0.9899 0.0
C263 C 0.55935 0.41433 0.03523 0.0
C264 C 0.60418 0.36746 0.01079 0.0
C265 C 0.58463 0.39989 0.06682 0.0
C266 C 0.64802 0.32553 0.03627 0.0
C267 C 0.6368 0.2986 0.95187 0.0
N268 N 0.60578 0.37713 0.05406 0.0
N269 N 0.62062 0.32596 0.96002 0.0
H270 H 0.22413 0.93476 0.33602 0.0
H271 H 0.03968 0.00969 0.3724 0.0
H272 H 0.15815 0.98753 0.2347 0.0
H273 H 0.11555 0.97951 0.48382 0.0
H274 H 0.0852 0.0047 0.32292 0.0
H275 H 0.18763 0.95326 0.3921 0.0
C276 C 0.20225 0.95052 0.32567 0.0
C277 C 0.19398 0.95935 0.28046 0.0
C278 C 0.09224 -0.00046 0.35826 0.0
C279 C 0.15218 0.98053 0.34436 0.0
C280 C 0.0662 0.00234 0.38649 0.0
C281 C 0.07388 -0.00527 0.43207 0.0
C282 C 0.12614 0.98832 0.37541 0.0
C283 C 0.10867 0.98558 0.44878 0.0
C284 C 0.18158 0.9612 0.35774 0.0
C285 C 0.16568 0.98019 0.2691 0.0
N286 N 0.13346 0.98205 0.42021 0.0
N287 N 0.14557 0.98969 0.30067 0.0
H288 H 0.63176 0.62733 0.75435 0.0
H289 H 0.59434 0.51725 0.95526 0.0
H290 H 0.69872 0.54724 0.78794 0.0
H291 H 0.5134 0.56708 0.86831 0.0
H292 H 0.63805 0.53207 0.90489 0.0
H293 H 0.59358 0.61077 0.80874 0.0
C294 C 0.63868 0.60641 0.77363 0.0
C295 C 0.66851 0.58869 0.76672 0.0
C296 C 0.61059 0.53949 0.8971 0.0
C297 C 0.62451 0.56934 0.82891 0.0
C298 C 0.58575 0.53114 0.92574 0.0
C299 C 0.55014 0.54096 0.91611 0.0
C300 C 0.59967 0.55822 0.85942 0.0
C301 C 0.54043 0.55888 0.87732 0.0
C302 C 0.61669 0.59682 0.80442 0.0
C303 C 0.6758 0.56144 0.79218 0.0
N304 N 0.56502 0.56707 0.85081 0.0
N305 N 0.65394 0.55255 0.8224 0.0
H306 H 0.78265 0.06906 0.23091 0.0
H307 H 0.95453 0.07245 0.41712 0.0
H308 H 0.87777 0.12072 0.2158 0.0
H309 H 0.86512 0.01105 0.42065 0.0
H310 H 0.92298 0.09715 0.34973 0.0
H311 H 0.80901 0.05399 0.30631 0.0
C312 C 0.80896 0.0775 0.24361 0.0
C313 C 0.8281 0.09605 0.21686 0.0
C314 C 0.91013 0.07853 0.36564 0.0
C315 C 0.85864 0.07861 0.30319 0.0
C316 C 0.92799 0.0646 0.40428 0.0
C317 C 0.91255 0.03944 0.42418 0.0
C318 C 0.87657 0.06731 0.34709 0.0
C319 C 0.87817 0.03014 0.40607 0.0
C320 C 0.82408 0.06876 0.28663 0.0
C321 C 0.8623 0.10597 0.23498 0.0
N322 N 0.86149 0.04389 0.36838 0.0
N323 N 0.87654 0.09703 0.27696 0.0
H324 H 0.27455 0.43042 0.72863 0.0
H325 H 0.4473 0.44246 0.91246 0.0
H326 H 0.37536 0.38766 0.71341 0.0
H327 H 0.34933 0.49239 0.91957 0.0
H328 H 0.41872 0.41544 0.84558 0.0
H329 H 0.29907 0.44693 0.80403 0.0
C330 C 0.30174 0.42418 0.74131 0.0
C331 C 0.32297 0.40777 0.71445 0.0
C332 C 0.40336 0.43201 0.86215 0.0
C333 C 0.35142 0.42695 0.80082 0.0
C334 C 0.41958 0.44728 0.90053 0.0
C335 C 0.40078 0.46998 0.92132 0.0
C336 C 0.3681 0.43944 0.84463 0.0
C337 C 0.36495 0.47532 0.90432 0.0
C338 C 0.3158 0.43376 0.78434 0.0
C339 C 0.35819 0.40072 0.7326 0.0
N340 N 0.34991 0.46041 0.86678 0.0
N341 N 0.37136 0.41047 0.77454 0.0
H342 H 0.67706 0.62284 0.32068 0.0
H343 H 0.52613 0.50256 0.22113 0.0
H344 H 0.62382 0.55899 0.40004 0.0
H345 H 0.57623 0.56539 0.13687 0.0
H346 H 0.56105 0.52481 0.28679 0.0
H347 H 0.63986 0.60403 0.25298 0.0
C348 C 0.6575 0.60498 0.32392 0.0
C349 C 0.65381 0.59228 0.36614 0.0
C350 C 0.56448 0.53389 0.25406 0.0
C351 C 0.61133 0.57064 0.28892 0.0
C352 C 0.54447 0.52114 0.21637 0.0
C353 C 0.54834 0.53198 0.17326 0.0
C354 C 0.58882 0.55772 0.24898 0.0
C355 C 0.57243 0.55629 0.16946 0.0
C356 C 0.63639 0.59419 0.28526 0.0
C357 C 0.62818 0.56905 0.36823 0.0
N358 N 0.59193 0.56828 0.20688 0.0
N359 N 0.60806 0.55902 0.33029 0.0
H360 H 0.83329 0.02486 0.8286 0.0
H361 H 0.89278 0.08654 0.60579 0.0
H362 H 0.78007 0.10065 0.75306 0.0
H363 H 0.92082 -0.00528 0.65575 0.0
H364 H 0.84613 0.08896 0.65431 0.0
H365 H 0.86102 0.01014 0.76263 0.0
C366 C 0.82704 0.03811 0.7979 0.0
C367 C 0.80472 0.06426 0.79645 0.0
C368 C 0.86179 0.06792 0.654 0.0
C369 C 0.83646 0.04769 0.72103 0.0
C370 C 0.88832 0.06652 0.62617 0.0
C371 C 0.91056 0.04044 0.62702 0.0
C372 C 0.85826 0.04344 0.68398 0.0
C373 C 0.904 0.01516 0.65411 0.0
C374 C 0.84269 0.02958 0.76018 0.0
C375 C 0.79711 0.08033 0.75568 0.0
N376 N 0.87894 0.01757 0.68244 0.0
N377 N 0.81346 0.07214 0.71986 0.0
H378 H 0.33226 0.48557 0.32553 0.0
H379 H 0.37425 0.43212 0.08657 0.0
H380 H 0.27699 0.41068 0.25088 0.0
H381 H 0.41009 0.51973 0.14555 0.0
H382 H 0.33411 0.42661 0.14315 0.0
H383 H 0.35745 0.50106 0.25799 0.0
C384 C 0.32514 0.4726 0.2948 0.0
C385 C 0.30274 0.44663 0.29393 0.0
C386 C 0.35026 0.44733 0.14333 0.0
C387 C 0.33153 0.46411 0.21663 0.0
C388 C 0.37315 0.4505 0.11095 0.0
C389 C 0.3958 0.47624 0.11167 0.0
C390 C 0.3505 0.46978 0.17725 0.0
C391 C 0.39315 0.49944 0.14386 0.0
C392 C 0.33935 0.48154 0.2562 0.0
C393 C 0.29401 0.43091 0.25306 0.0
N394 N 0.37143 0.49537 0.17595 0.0
N395 N 0.30881 0.43962 0.21627 0.0
H396 H 0.13571 0.89264 0.8642 0.0
H397 H 0.11652 0.03366 0.69274 0.0
H398 H 0.21266 0.96653 0.86587 0.0
H399 H 0.05587 0.94943 0.66713 0.0
H400 H 0.1527 0.00832 0.7554 0.0
H401 H 0.10673 0.91154 0.7915 0.0
C402 C 0.14681 0.91258 0.84911 0.0
C403 C 0.17648 0.92824 0.8716 0.0
C404 C 0.13178 -0.00485 0.7359 0.0
C405 C 0.14311 0.95016 0.78867 0.0
C406 C 0.11105 0.00965 0.70013 0.0
C407 C 0.08299 0.99367 0.67498 0.0
C408 C 0.12407 0.96453 0.74736 0.0
C409 C 0.0773 0.96252 0.68574 0.0
C410 C 0.13016 0.92339 0.80764 0.0
C411 C 0.18939 0.95414 0.85047 0.0
N412 N 0.09734 0.94905 0.72167 0.0
N413 N 0.17247 0.9644 0.81051 0.0
loop_
_geom_bond_atom_site_label_1
_geom_bond_atom_site_label_2
_geom_bond_distance
_geom_bond_site_symmetry_2
_ccdc_geom_bond_type
C0 C1 1.386 . S
C0 C2 1.397 . S
C0 H24 0.931 . S
C1 C0 1.386 . S
C1 C5 1.397 . S
C2 C0 1.397 . S
C2 C3 1.382 1_556 S
C2 H25 0.930 . S
C3 C2 1.382 1_554 S
C3 C4 1.377 1_554 S
C3 C6 1.484 . S
C4 C3 1.377 1_556 S
C4 C5 1.389 . S
C4 H26 0.929 1_556 S
C5 C1 1.397 . S
C5 C4 1.389 . S
C5 H27 0.931 . S
C6 C3 1.484 . S
C6 C7 1.387 . S
C6 C11 1.390 . S
C7 C6 1.387 . S
C7 C8 1.401 . S
C7 H28 0.930 . S
C8 C7 1.401 . S
C8 C9 1.376 . S
C8 C17 1.511 . S
C9 C8 1.376 . S
C9 C10 1.392 . S
C9 H30 0.931 . S
C10 C9 1.392 . S
C10 C11 1.361 . S
C10 C12 1.500 . S
C11 C6 1.390 . S
C11 C10 1.361 . S
C11 H29 0.931 . S
C12 C10 1.500 . S
C12 C13 1.371 . S
C12 C14 1.365 . S
C13 C12 1.371 . S
C13 C23 1.386 . S
C13 H31 0.931 . S
C14 C12 1.365 . S
C14 C15 1.409 . S
C14 H32 0.929 . S
C15 C14 1.409 . S
C15 C16 1.380 . S
C15 H33 0.930 . S
C16 C15 1.380 . S
C16 C23 1.357 . S
C17 C8 1.511 . S
C17 C18 1.341 . S
C17 C19 1.371 . S
C18 C17 1.341 . S
C18 C22 1.394 . S
C18 H34 0.930 . S
C19 C17 1.371 . S
C19 C20 1.392 . S
C19 H35 0.931 . S
C20 C19 1.392 . S
C20 C21 1.331 . S
C20 H38 0.932 . S
C21 C20 1.331 . S
C21 C22 1.336 . S
C22 C18 1.394 . S
C22 C21 1.336 . S
C22 H37 0.929 . S
C23 C13 1.386 . S
C23 C16 1.357 . S
C23 H36 0.928 . S
H24 C0 0.931 . S
H25 C2 0.930 . S
H26 C4 0.929 1_554 S
H27 C5 0.931 . S
H28 C7 0.930 . S
H29 C11 0.931 . S
H30 C9 0.931 . S
H31 C13 0.931 . S
H32 C14 0.929 . S
H33 C15 0.930 . S
H34 C18 0.930 . S
H35 C19 0.931 . S
H36 C23 0.928 . S
H37 C22 0.929 . S
H38 C20 0.932 . S
C39 C40 1.386 . S
C39 C41 1.397 . S
C39 H63 0.931 . S
C40 C39 1.386 . S
C40 C44 1.397 . S
C41 C39 1.397 . S
C41 C42 1.384 . S
C41 H64 0.930 . S
C42 C41 1.384 . S
C42 C43 1.377 . S
C42 C45 1.481 . S
C43 C42 1.377 . S
C43 C44 1.389 . S
C43 H65 0.929 . S
C44 C40 1.397 . S
C44 C43 1.389 . S
C44 H66 0.931 . S
C45 C42 1.481 . S
C45 C46 1.387 . S
C45 C50 1.390 . S
C46 C45 1.387 . S
C46 C47 1.401 . S
C46 H67 0.930 . S
C47 C46 1.401 . S
C47 C48 1.376 . S
C47 C56 1.511 . S
C48 C47 1.376 . S
C48 C49 1.392 . S
C48 H69 0.931 . S
C49 C48 1.392 . S
C49 C50 1.361 . S
C49 C51 1.500 . S
C50 C45 1.390 . S
C50 C49 1.361 . S
C50 H68 0.931 . S
C51 C49 1.500 . S
C51 C52 1.371 . S
C51 C53 1.365 . S
C52 C51 1.371 . S
C52 C62 1.386 . S
C52 H70 0.931 . S
C53 C51 1.365 . S
C53 C54 1.409 . S
C53 H71 0.929 . S
C54 C53 1.409 . S
C54 C55 1.380 . S
C54 H72 0.930 . S
C55 C54 1.380 . S
C55 C62 1.357 . S
C56 C47 1.511 . S
C56 C57 1.341 . S
C56 C58 1.371 . S
C57 C56 1.341 . S
C57 C61 1.394 . S
C57 H73 0.930 . S
C58 C56 1.371 . S
C58 C59 1.392 . S
C58 H74 0.931 . S
C59 C58 1.392 . S
C59 C60 1.331 . S
C59 H77 0.932 . S
C60 C59 1.331 . S
C60 C61 1.336 . S
C61 C57 1.394 . S
C61 C60 1.336 . S
C61 H76 0.929 . S
C62 C52 1.386 . S
C62 C55 1.357 . S
C62 H75 0.928 . S
H63 C39 0.931 . S
H64 C41 0.930 . S
H65 C43 0.929 . S
H66 C44 0.931 . S
H67 C46 0.930 . S
H68 C50 0.931 . S
H69 C48 0.931 . S
H70 C52 0.931 . S
H71 C53 0.929 . S
H72 C54 0.930 . S
H73 C57 0.930 . S
H74 C58 0.931 . S
H75 C62 0.928 . S
H76 C61 0.929 . S
H77 C59 0.932 . S
C78 C79 1.386 . S
C78 C80 1.397 . S
C78 H102 0.931 . S
C79 C78 1.386 . S
C79 C83 1.397 . S
C80 C78 1.397 . S
C80 C81 1.384 . S
C80 H103 0.930 . S
C81 C80 1.384 . S
C81 C82 1.377 . S
C81 C84 1.481 . S
C82 C81 1.377 . S
C82 C83 1.389 . S
C82 H104 0.929 . S
C83 C79 1.397 . S
C83 C82 1.389 . S
C83 H105 0.931 . S
C84 C81 1.481 . S
C84 C85 1.387 . S
C84 C89 1.390 . S
C85 C84 1.387 . S
C85 C86 1.401 1_554 S
C85 H106 0.930 . S
C86 C85 1.401 1_556 S
C86 C87 1.376 . S
C86 C95 1.511 . S
C87 C86 1.376 . S
C87 C88 1.392 . S
C87 H108 0.931 . S
C88 C87 1.392 . S
C88 C89 1.361 1_556 S
C88 C90 1.500 . S
C89 C84 1.390 . S
C89 C88 1.361 1_554 S
C89 H107 0.931 . S
C90 C88 1.500 . S
C90 C91 1.371 . S
C90 C92 1.365 . S
C91 C90 1.371 . S
C91 C101 1.386 . S
C91 H109 0.931 . S
C92 C90 1.365 . S
C92 C93 1.409 . S
C92 H110 0.929 . S
C93 C92 1.409 . S
C93 C94 1.380 . S
C93 H111 0.930 . S
C94 C93 1.380 . S
C94 C101 1.357 . S
C95 C86 1.511 . S
C95 C96 1.341 1_556 S
C95 C97 1.371 . S
C96 C95 1.341 1_554 S
C96 C100 1.394 . S
C96 H112 0.930 . S
C97 C95 1.371 . S
C97 C98 1.392 . S
C97 H113 0.931 . S
C98 C97 1.392 . S
C98 C99 1.331 . S
C98 H116 0.932 . S
C99 C98 1.331 . S
C99 C100 1.336 1_556 S
C100 C96 1.394 . S
C100 C99 1.336 1_554 S
C100 H115 0.929 . S
C101 C91 1.386 . S
C101 C94 1.357 . S
C101 H114 0.928 . S
H102 C78 0.931 . S
H103 C80 0.930 . S
H104 C82 0.929 . S
H105 C83 0.931 . S
H106 C85 0.930 . S
H107 C89 0.931 . S
H108 C87 0.931 . S
H109 C91 0.931 . S
H110 C92 0.929 . S
H111 C93 0.930 . S
H112 C96 0.930 . S
H113 C97 0.931 . S
H114 C101 0.928 . S
H115 C100 0.929 . S
H116 C98 0.932 . S
C117 C118 1.386 . S
C117 C119 1.397 . S
C117 H141 0.931 . S
C118 C117 1.386 . S
C118 C122 1.397 . S
C119 C117 1.397 . S
C119 C120 1.384 . S
C119 H142 0.930 . S
C120 C119 1.384 . S
C120 C121 1.377 . S
C120 C123 1.481 . S
C121 C120 1.377 . S
C121 C122 1.389 . S
C121 H143 0.929 . S
C122 C118 1.397 . S
C122 C121 1.389 . S
C122 H144 0.931 . S
C123 C120 1.481 . S
C123 C124 1.387 . S
C123 C128 1.390 . S
C124 C123 1.387 . S
C124 C125 1.401 . S
C124 H145 0.930 . S
C125 C124 1.401 . S
C125 C126 1.376 . S
C125 C134 1.511 . S
C126 C125 1.376 . S
C126 C127 1.392 . S
C126 H147 0.931 . S
C127 C126 1.392 . S
C127 C128 1.361 . S
C127 C129 1.500 . S
C128 C123 1.390 . S
C128 C127 1.361 . S
C128 H146 0.931 . S
C129 C127 1.500 . S
C129 C130 1.371 . S
C129 C131 1.365 . S
C130 C129 1.371 . S
C130 C140 1.386 . S
C130 H148 0.931 . S
C131 C129 1.365 . S
C131 C132 1.409 . S
C131 H149 0.929 . S
C132 C131 1.409 . S
C132 C133 1.380 . S
C132 H150 0.930 . S
C133 C132 1.380 . S
C133 C140 1.357 . S
C134 C125 1.511 . S
C134 C135 1.341 . S
C134 C136 1.371 . S
C135 C134 1.341 . S
C135 C139 1.394 . S
C135 H151 0.930 . S
C136 C134 1.371 . S
C136 C137 1.392 . S
C136 H152 0.931 . S
C137 C136 1.392 . S
C137 C138 1.331 . S
C137 H155 0.932 . S
C138 C137 1.331 . S
C138 C139 1.336 . S
C139 C135 1.394 . S
C139 C138 1.336 . S
C139 H154 0.929 . S
C140 C130 1.386 . S
C140 C133 1.357 . S
C140 H153 0.928 . S
H141 C117 0.931 . S
H142 C119 0.930 . S
H143 C121 0.929 . S
H144 C122 0.931 . S
H145 C124 0.930 . S
H146 C128 0.931 . S
H147 C126 0.931 . S
H148 C130 0.931 . S
H149 C131 0.929 . S
H150 C132 0.930 . S
H151 C135 0.930 . S
H152 C136 0.931 . S
H153 C140 0.928 . S
H154 C139 0.929 . S
H155 C137 0.932 . S
O156 Mg157 1.990 1_655 S
O156 C170 1.253 . S
Mg157 O156 1.990 1_455 S
Mg157 O160 2.180 . S
Mg157 O161 2.117 . S
Mg157 O175 2.030 . S
O158 Mg159 2.072 1_655 S
O158 C170 1.260 . S
Mg159 O158 2.072 1_455 S
Mg159 O160 2.099 . S
Mg159 O162 2.079 1_545 S
Mg159 O163 2.072 1_455 S
Mg159 O165 2.099 1_445 S
Mg159 O176 2.079 1_545 S
O160 Mg157 2.180 . S
O160 Mg159 2.099 . S
O160 C171 1.279 . S
O161 Mg157 2.117 . S
O161 C171 1.250 . S
O162 Mg159 2.079 1_565 S
O162 C172 1.264 . S
O163 Mg159 2.072 1_655 S
O163 C173 1.260 . S
Mg164 O165 2.180 . S
Mg164 O166 2.030 1_655 S
Mg164 O167 1.990 1_565 S
Mg164 O168 2.117 . S
O165 Mg159 2.099 1_665 S
O165 Mg164 2.180 . S
O165 C174 1.279 . S
O166 Mg164 2.030 1_455 S
O166 C172 1.248 . S
O167 Mg164 1.990 1_545 S
O167 C173 1.253 . S
O168 Mg164 2.117 . S
O168 C174 1.250 . S
C169 O175 1.248 1_565 S
C169 O176 1.264 . S
C170 O156 1.253 . S
C170 O158 1.260 . S
C171 O160 1.279 . S
C171 O161 1.250 . S
C172 O162 1.264 . S
C172 O166 1.248 . S
C173 O163 1.260 . S
C173 O167 1.253 . S
C174 O165 1.279 . S
C174 O168 1.250 . S
O175 Mg157 2.030 . S
O175 C169 1.248 1_545 S
O176 Mg159 2.079 1_565 S
O176 C169 1.264 . S
O177 Mg178 1.990 . S
O177 C191 1.253 . S
Mg178 O177 1.990 . S
Mg178 O181 2.180 . S
Mg178 O182 2.117 . S
Mg178 O196 2.030 . S
O179 Mg180 2.072 . S
O179 C191 1.260 . S
Mg180 O179 2.072 . S
Mg180 O181 2.099 . S
Mg180 O183 2.079 1_554 S
Mg180 O184 2.072 1_554 S
Mg180 O186 2.099 . S
Mg180 O197 2.079 . S
O181 Mg178 2.180 . S
O181 Mg180 2.099 . S
O181 C192 1.279 . S
O182 Mg178 2.117 . S
O182 C192 1.250 . S
O183 Mg180 2.079 1_556 S
O183 C193 1.264 . S
O184 Mg180 2.072 1_556 S
O184 C194 1.260 . S
Mg185 O186 2.180 1_556 S
Mg185 O187 2.030 . S
Mg185 O188 1.990 . S
Mg185 O189 2.132 . S
O186 Mg180 2.099 . S
O186 Mg185 2.180 1_554 S
O186 C195 1.279 . S
O187 Mg185 2.030 . S
O187 C193 1.248 . S
O188 Mg185 1.990 . S
O188 C194 1.253 . S
O189 Mg185 2.132 . S
O189 C195 1.234 1_556 S
C190 O196 1.248 . S
C190 O197 1.264 . S
C191 O177 1.253 . S
C191 O179 1.260 . S
C192 O181 1.279 . S
C192 O182 1.250 . S
C193 O183 1.264 . S
C193 O187 1.248 . S
C194 O184 1.260 . S
C194 O188 1.253 . S
C195 O186 1.279 . S
C195 O189 1.234 1_554 S
O196 Mg178 2.030 . S
O196 C190 1.248 . S
O197 Mg180 2.079 . S
O197 C190 1.264 . S
H198 C204 0.930 . S
H199 C208 0.930 . S
H200 C213 0.929 . S
H201 C211 0.929 . S
H202 C206 0.929 . S
H203 C212 0.929 . S
C204 H198 0.930 . S
C204 C205 1.367 . S
C204 C212 1.378 . S
C205 C204 1.367 . S
C205 C213 1.433 . S
C206 H202 0.929 . S
C206 C208 1.378 . S
C206 C210 1.350 . S
C207 C210 1.463 . S
C207 C212 1.350 . S
C207 N215 1.427 . S
C208 H199 0.930 . S
C208 C206 1.378 . S
C208 C209 1.367 . S
C209 C208 1.367 . S
C209 C211 1.433 . S
C210 C206 1.350 . S
C210 C207 1.463 . S
C210 N214 1.427 . S
C211 H201 0.929 . S
C211 C209 1.433 . S
C211 N214 1.384 . S
C212 H203 0.929 . S
C212 C204 1.378 . S
C212 C207 1.350 . S
C213 H200 0.929 . S
C213 C205 1.433 . S
C213 N215 1.384 . S
N214 C210 1.427 . S
N214 C211 1.384 . S
N215 C207 1.427 . S
N215 C213 1.384 . S
H216 C222 0.930 . S
H217 C226 0.930 1_556 S
H218 C231 0.929 . S
H219 C229 0.929 . S
H220 C224 0.929 . S
H221 C230 0.929 . S
C222 H216 0.930 . S
C222 C223 1.367 . S
C222 C230 1.378 . S
C223 C222 1.367 . S
C223 C231 1.433 . S
C224 H220 0.929 . S
C224 C226 1.378 . S
C224 C228 1.350 . S
C225 C228 1.463 . S
C225 C230 1.350 . S
C225 N233 1.427 . S
C226 H217 0.930 1_554 S
C226 C224 1.378 . S
C226 C227 1.367 . S
C227 C226 1.367 . S
C227 C229 1.433 . S
C228 C224 1.350 . S
C228 C225 1.463 . S
C228 N232 1.427 . S
C229 H219 0.929 . S
C229 C227 1.433 . S
C229 N232 1.384 . S
C230 H221 0.929 . S
C230 C222 1.378 . S
C230 C225 1.350 . S
C231 H218 0.929 . S
C231 C223 1.433 . S
C231 N233 1.384 . S
N232 C228 1.427 . S
N232 C229 1.384 . S
N233 C225 1.427 . S
N233 C231 1.384 . S
H234 C240 0.930 . S
H235 C244 0.930 . S
H236 C249 0.929 . S
H237 C247 0.929 . S
H238 C242 0.929 . S
H239 C248 0.929 . S
C240 H234 0.930 . S
C240 C241 1.367 . S
C240 C248 1.378 . S
C241 C240 1.367 . S
C241 C249 1.433 . S
C242 H238 0.929 . S
C242 C244 1.378 . S
C242 C246 1.350 . S
C243 C246 1.463 . S
C243 C248 1.350 . S
C243 N251 1.427 . S
C244 H235 0.930 . S
C244 C242 1.378 . S
C244 C245 1.367 . S
C245 C244 1.367 . S
C245 C247 1.433 . S
C246 C242 1.350 . S
C246 C243 1.463 . S
C246 N250 1.427 . S
C247 H237 0.929 . S
C247 C245 1.433 . S
C247 N250 1.384 . S
C248 H239 0.929 . S
C248 C240 1.378 . S
C248 C243 1.350 . S
C249 H236 0.929 . S
C249 C241 1.433 . S
C249 N251 1.384 . S
N250 C246 1.427 . S
N250 C247 1.384 . S
N251 C243 1.427 . S
N251 C249 1.384 . S
H252 C258 0.930 . S
H253 C262 0.930 . S
H254 C267 0.929 . S
H255 C265 0.929 . S
H256 C260 0.929 . S
H257 C266 0.929 . S
C258 H252 0.930 . S
C258 C259 1.367 1_554 S
C258 C266 1.378 . S
C259 C258 1.367 1_556 S
C259 C267 1.433 . S
C260 H256 0.929 . S
C260 C262 1.378 . S
C260 C264 1.350 1_556 S
C261 C264 1.463 . S
C261 C266 1.350 . S
C261 N269 1.427 1_554 S
C262 H253 0.930 . S
C262 C260 1.378 . S
C262 C263 1.367 1_556 S
C263 C262 1.367 1_554 S
C263 C265 1.433 . S
C264 C260 1.350 1_554 S
C264 C261 1.463 . S
C264 N268 1.427 . S
C265 H255 0.929 . S
C265 C263 1.433 . S
C265 N268 1.384 . S
C266 H257 0.929 . S
C266 C258 1.378 . S
C266 C261 1.350 . S
C267 H254 0.929 . S
C267 C259 1.433 . S
C267 N269 1.384 . S
N268 C264 1.427 . S
N268 C265 1.384 . S
N269 C261 1.427 1_556 S
N269 C267 1.384 . S
H270 C276 0.930 . S
H271 C280 0.919 1_545 S
H272 C285 0.929 . S
H273 C283 0.929 . S
H274 C278 0.929 1_545 S
H275 C284 0.929 . S
C276 H270 0.930 . S
C276 C277 1.367 . S
C276 C284 1.378 . S
C277 C276 1.367 . S
C277 C285 1.433 . S
C278 H274 0.929 1_565 S
C278 C280 1.381 . S
C278 C282 1.350 . S
C279 C282 1.463 . S
C279 C284 1.350 . S
C279 N287 1.427 . S
C280 H271 0.919 1_565 S
C280 C278 1.381 . S
C280 C281 1.375 . S
C281 C280 1.375 . S
C281 C283 1.433 . S
C282 C278 1.350 . S
C282 C279 1.463 . S
C282 N286 1.427 . S
C283 H273 0.929 . S
C283 C281 1.433 . S
C283 N286 1.384 . S
C284 H275 0.929 . S
C284 C276 1.378 . S
C284 C279 1.350 . S
C285 H272 0.929 . S
C285 C277 1.433 . S
C285 N287 1.384 . S
N286 C282 1.427 . S
N286 C283 1.384 . S
N287 C279 1.427 . S
N287 C285 1.384 . S
H288 C294 0.930 . S
H289 C298 0.930 . S
H290 C303 0.929 . S
H291 C301 0.929 . S
H292 C296 0.929 . S
H293 C302 0.929 . S
C294 H288 0.930 . S
C294 C295 1.367 . S
C294 C302 1.378 . S
C295 C294 1.367 . S
C295 C303 1.433 . S
C296 H292 0.929 . S
C296 C298 1.378 . S
C296 C300 1.350 . S
C297 C300 1.463 . S
C297 C302 1.350 . S
C297 N305 1.427 . S
C298 H289 0.930 . S
C298 C296 1.378 . S
C298 C299 1.367 . S
C299 C298 1.367 . S
C299 C301 1.433 . S
C300 C296 1.350 . S
C300 C297 1.463 . S
C300 N304 1.427 . S
C301 H291 0.929 . S
C301 C299 1.433 . S
C301 N304 1.384 . S
C302 H293 0.929 . S
C302 C294 1.378 . S
C302 C297 1.350 . S
C303 H290 0.929 . S
C303 C295 1.433 . S
C303 N305 1.384 . S
N304 C300 1.427 . S
N304 C301 1.384 . S
N305 C297 1.427 . S
N305 C303 1.384 . S
H306 C312 0.930 . S
H307 C316 0.930 . S
H308 C321 0.929 . S
H309 C319 0.952 . S
H310 C314 0.929 . S
H311 C320 0.929 . S
C312 H306 0.930 . S
C312 C313 1.367 . S
C312 C320 1.378 . S
C313 C312 1.367 . S
C313 C321 1.433 . S
C314 H310 0.929 . S
C314 C316 1.378 . S
C314 C318 1.350 . S
C315 C318 1.463 . S
C315 C320 1.350 . S
C315 N323 1.427 . S
C316 H307 0.930 . S
C316 C314 1.378 . S
C316 C317 1.367 . S
C317 C316 1.367 . S
C317 C319 1.433 . S
C318 C314 1.350 . S
C318 C315 1.463 . S
C318 N322 1.427 . S
C319 H309 0.952 . S
C319 C317 1.433 . S
C319 N322 1.384 . S
C320 H311 0.929 . S
C320 C312 1.378 . S
C320 C315 1.350 . S
C321 H308 0.929 . S
C321 C313 1.433 . S
C321 N323 1.384 . S
N322 C318 1.427 . S
N322 C319 1.384 . S
N323 C315 1.427 . S
N323 C321 1.384 . S
H324 C330 0.930 . S
H325 C334 0.930 . S
H326 C339 0.929 . S
H327 C337 0.929 . S
H328 C332 0.929 . S
H329 C338 0.929 . S
C330 H324 0.930 . S
C330 C331 1.367 . S
C330 C338 1.378 . S
C331 C330 1.367 . S
C331 C339 1.433 . S
C332 H328 0.929 . S
C332 C334 1.378 . S
C332 C336 1.350 . S
C333 C336 1.463 . S
C333 C338 1.350 . S
C333 N341 1.427 . S
C334 H325 0.930 . S
C334 C332 1.378 . S
C334 C335 1.367 . S
C335 C334 1.367 . S
C335 C337 1.433 . S
C336 C332 1.350 . S
C336 C333 1.463 . S
C336 N340 1.427 . S
C337 H327 0.929 . S
C337 C335 1.433 . S
C337 N340 1.384 . S
C338 H329 0.929 . S
C338 C330 1.378 . S
C338 C333 1.350 . S
C339 H326 0.929 . S
C339 C331 1.433 . S
C339 N341 1.384 . S
N340 C336 1.427 . S
N340 C337 1.384 . S
N341 C333 1.427 . S
N341 C339 1.384 . S
H342 C348 0.930 . S
H343 C352 0.930 . S
H344 C357 0.929 . S
H345 C355 0.929 . S
H346 C350 0.929 . S
H347 C356 0.929 . S
C348 H342 0.930 . S
C348 C349 1.367 . S
C348 C356 1.378 . S
C349 C348 1.367 . S
C349 C357 1.433 . S
C350 H346 0.929 . S
C350 C352 1.378 . S
C350 C354 1.350 . S
C351 C354 1.463 . S
C351 C356 1.350 . S
C351 N359 1.427 . S
C352 H343 0.930 . S
C352 C350 1.378 . S
C352 C353 1.367 . S
C353 C352 1.367 . S
C353 C355 1.433 . S
C354 C350 1.350 . S
C354 C351 1.463 . S
C354 N358 1.427 . S
C355 H345 0.929 . S
C355 C353 1.433 . S
C355 N358 1.384 . S
C356 H347 0.929 . S
C356 C348 1.378 . S
C356 C351 1.350 . S
C357 H344 0.929 . S
C357 C349 1.433 . S
C357 N359 1.384 . S
N358 C354 1.427 . S
N358 C355 1.384 . S
N359 C351 1.427 . S
N359 C357 1.384 . S
H360 C366 0.930 . S
H361 C370 0.930 . S
H362 C375 0.929 . S
H363 C373 0.929 1_565 S
H364 C368 0.929 . S
H365 C374 0.929 . S
C366 H360 0.930 . S
C366 C367 1.367 . S
C366 C374 1.378 . S
C367 C366 1.367 . S
C367 C375 1.433 . S
C368 H364 0.929 . S
C368 C370 1.378 . S
C368 C372 1.350 . S
C369 C372 1.463 . S
C369 C374 1.350 . S
C369 N377 1.427 . S
C370 H361 0.930 . S
C370 C368 1.378 . S
C370 C371 1.367 . S
C371 C370 1.367 . S
C371 C373 1.433 . S
C372 C368 1.350 . S
C372 C369 1.463 . S
C372 N376 1.427 . S
C373 H363 0.929 1_545 S
C373 C371 1.433 . S
C373 N376 1.384 . S
C374 H365 0.929 . S
C374 C366 1.378 . S
C374 C369 1.350 . S
C375 H362 0.929 . S
C375 C367 1.433 . S
C375 N377 1.384 . S
N376 C372 1.427 . S
N376 C373 1.384 . S
N377 C369 1.427 . S
N377 C375 1.384 . S
H378 C384 0.930 . S
H379 C388 0.930 . S
H380 C393 0.929 . S
H381 C391 0.929 . S
H382 C386 0.929 . S
H383 C392 0.929 . S
C384 H378 0.930 . S
C384 C385 1.367 . S
C384 C392 1.378 . S
C385 C384 1.367 . S
C385 C393 1.433 . S
C386 H382 0.929 . S
C386 C388 1.378 . S
C386 C390 1.350 . S
C387 C390 1.463 . S
C387 C392 1.350 . S
C387 N395 1.427 . S
C388 H379 0.930 . S
C388 C386 1.378 . S
C388 C389 1.367 . S
C389 C388 1.367 . S
C389 C391 1.433 . S
C390 C386 1.350 . S
C390 C387 1.463 . S
C390 N394 1.427 . S
C391 H381 0.929 . S
C391 C389 1.433 . S
C391 N394 1.384 . S
C392 H383 0.929 . S
C392 C384 1.378 . S
C392 C387 1.350 . S
C393 H380 0.929 . S
C393 C385 1.433 . S
C393 N395 1.384 . S
N394 C390 1.427 . S
N394 C391 1.384 . S
N395 C387 1.427 . S
N395 C393 1.384 . S
H396 C402 0.930 . S
H397 C406 0.930 . S
H398 C411 0.929 . S
H399 C409 0.929 . S
H400 C404 0.929 . S
H401 C410 0.929 . S
C402 H396 0.930 . S
C402 C403 1.367 . S
C402 C410 1.378 . S
C403 C402 1.367 . S
C403 C411 1.433 . S
C404 H400 0.929 . S
C404 C406 1.378 . S
C404 C408 1.350 . S
C405 C408 1.463 . S
C405 C410 1.350 . S
C405 N413 1.427 . S
C406 H397 0.930 . S
C406 C404 1.378 . S
C406 C407 1.367 . S
C407 C406 1.367 . S
C407 C409 1.433 . S
C408 C404 1.350 . S
C408 C405 1.463 . S
C408 N412 1.427 . S
C409 H399 0.929 . S
C409 C407 1.433 . S
C409 N412 1.384 . S
C410 H401 0.929 . S
C410 C402 1.378 . S
C410 C405 1.350 . S
C411 H398 0.929 . S
C411 C403 1.433 . S
C411 N413 1.384 . S
N412 C408 1.427 . S
N412 C409 1.384 . S
N413 C405 1.427 . S
N413 C411 1.384 . S
C209 C171 1.349 . S
C205 C138 1.529 . S
C223 C21 1.523 . S
C227 C195 1.344 . S
C241 C60 1.663 . S
C245 C174 1.464 . S
C259 C99 1.668 . S
C263 C192 1.481 . S
C281 C172 1.615 . S
C277 C16 1.612 . S
C299 C194 1.587 . S
C295 C40 1.605 . S
C313 C79 1.593 . S
C317 C173 1.525 . S
C331 C133 1.598 . S
C335 C193 1.535 . S
C353 C191 1.519 . S
C349 C55 1.592 . S
C371 C170 1.575 . S
C367 C94 1.609 . S
C389 C190 1.614 . S
C385 C118 1.617 . S
C403 C1 1.588 . S
C407 C169 1.528 . S
