# Generated by pormake.
# Topology pto, (3,4)-cn, num edge types: 1
# Building blocks:
#     Node 0, Type 0, BuildingBlock: WUSLED_clean_sbu_0, # of connection points: 3
#     Node 1, Type 0, BuildingBlock: WUSLED_clean_sbu_0, # of connection points: 3
#     Node 2, Type 0, BuildingBlock: WUSLED_clean_sbu_0, # of connection points: 3
#     Node 3, Type 0, BuildingBlock: WUSLED_clean_sbu_0, # of connection points: 3
#     Node 4, Type 0, BuildingBlock: WUSLED_clean_sbu_0, # of connection points: 3
#     Node 5, Type 0, BuildingBlock: WUSLED_clean_sbu_0, # of connection points: 3
#     Node 6, Type 0, BuildingBlock: WUSLED_clean_sbu_0, # of connection points: 3
#     Node 7, Type 0, BuildingBlock: WUSLED_clean_sbu_0, # of connection points: 3
#     Node 8, Type 1, BuildingBlock: KUFVIS_clean_linker_0, # of connection points: 4
#     Node 9, Type 1, BuildingBlock: KUFVIS_clean_linker_0, # of connection points: 4
#     Node 10, Type 1, BuildingBlock: KUFVIS_clean_linker_0, # of connection points: 4
#     Node 11, Type 1, BuildingBlock: KUFVIS_clean_linker_0, # of connection points: 4
#     Node 12, Type 1, BuildingBlock: KUFVIS_clean_linker_0, # of connection points: 4
#     Node 13, Type 1, BuildingBlock: KUFVIS_clean_linker_0, # of connection points: 4
#     Edge 14, Type (0, 1), BuildingBlock: AJUNOK_clean_linker_0, # of connection points: 2
#     Edge 15, Type (0, 1), BuildingBlock: AJUNOK_clean_linker_0, # of connection points: 2
#     Edge 16, Type (0, 1), BuildingBlock: AJUNOK_clean_linker_0, # of connection points: 2
#     Edge 17, Type (0, 1), BuildingBlock: AJUNOK_clean_linker_0, # of connection points: 2
#     Edge 18, Type (0, 1), BuildingBlock: AJUNOK_clean_linker_0, # of connection points: 2
#     Edge 19, Type (0, 1), BuildingBlock: AJUNOK_clean_linker_0, # of connection points: 2
#     Edge 20, Type (0, 1), BuildingBlock: AJUNOK_clean_linker_0, # of connection points: 2
#     Edge 21, Type (0, 1), BuildingBlock: AJUNOK_clean_linker_0, # of connection points: 2
#     Edge 22, Type (0, 1), BuildingBlock: AJUNOK_clean_linker_0, # of connection points: 2
#     Edge 23, Type (0, 1), BuildingBlock: AJUNOK_clean_linker_0, # of connection points: 2
#     Edge 24, Type (0, 1), BuildingBlock: AJUNOK_clean_linker_0, # of connection points: 2
#     Edge 25, Type (0, 1), BuildingBlock: AJUNOK_clean_linker_0, # of connection points: 2
#     Edge 26, Type (0, 1), BuildingBlock: AJUNOK_clean_linker_0, # of connection points: 2
#     Edge 27, Type (0, 1), BuildingBlock: AJUNOK_clean_linker_0, # of connection points: 2
#     Edge 28, Type (0, 1), BuildingBlock: AJUNOK_clean_linker_0, # of connection points: 2
#     Edge 29, Type (0, 1), BuildingBlock: AJUNOK_clean_linker_0, # of connection points: 2
#     Edge 30, Type (0, 1), BuildingBlock: AJUNOK_clean_linker_0, # of connection points: 2
#     Edge 31, Type (0, 1), BuildingBlock: AJUNOK_clean_linker_0, # of connection points: 2
#     Edge 32, Type (0, 1), BuildingBlock: AJUNOK_clean_linker_0, # of connection points: 2
#     Edge 33, Type (0, 1), BuildingBlock: AJUNOK_clean_linker_0, # of connection points: 2
#     Edge 34, Type (0, 1), BuildingBlock: AJUNOK_clean_linker_0, # of connection points: 2
#     Edge 35, Type (0, 1), BuildingBlock: AJUNOK_clean_linker_0, # of connection points: 2
#     Edge 36, Type (0, 1), BuildingBlock: AJUNOK_clean_linker_0, # of connection points: 2
#     Edge 37, Type (0, 1), BuildingBlock: AJUNOK_clean_linker_0, # of connection points: 2
# Relax obj value: 0.002
# Max RMSD: 0.051
# Mean RMSD: 0.028
data_MOF--net-pto--node1-WUSLED_clean_sbu_0--node2-KUFVIS_clean_linker_0--edge1-AJUNOK_clean_linker_0
_symmetry_space_group_name_H-M    P1
_symmetry_Int_Tables_number       1
_symmetry_cell_setting            triclinic
loop_
_symmetry_equiv_pos_as_xyz
'x, y, z'
_cell_length_a     32.696519
_cell_length_b     50.635122
_cell_length_c     41.796983
_cell_angle_alpha  89.455723
_cell_angle_beta   90.908215
_cell_angle_gamma 90.54867
loop_
_atom_site_label
_atom_site_type_symbol
_atom_site_fract_x
_atom_site_fract_y
_atom_site_fract_z
_atom_type_partial_charge
C0 C 0.17866 0.23684 0.36504 0.0
C1 C 0.20525 0.21767 0.3534 0.0
C2 C 0.1837 0.18669 0.39504 0.0
C3 C 0.20775 0.19279 0.36828 0.0
C4 C 0.15618 0.20571 0.40588 0.0
C5 C 0.15376 0.23055 0.39105 0.0
U6 U 0.20982 0.28674 0.30076 0.0
O7 O 0.17549 0.31848 0.27635 0.0
O8 O 0.23059 0.32806 0.3048 0.0
C9 C 0.19943 0.33721 0.28793 0.0
C10 C 0.17769 0.26371 0.35115 0.0
C11 C 0.17899 0.36116 0.29966 0.0
C12 C 0.17201 0.39671 0.33808 0.0
C13 C 0.19003 0.37298 0.32893 0.0
C14 C 0.13179 0.39717 0.28897 0.0
C15 C 0.14291 0.40918 0.31806 0.0
C16 C 0.14982 0.37357 0.27982 0.0
C17 C 0.27614 0.26572 0.23223 0.0
C18 C 0.29823 0.29784 0.19236 0.0
C19 C 0.32317 0.25294 0.191 0.0
C20 C 0.2999 0.24648 0.21777 0.0
C21 C 0.32312 0.27878 0.17835 0.0
C22 C 0.27496 0.29136 0.21917 0.0
C23 C 0.25392 0.25915 0.26153 0.0
O24 O 0.21273 0.27666 0.35201 0.0
O25 O 0.15804 0.26621 0.32362 0.0
O26 O 0.21389 0.26067 0.25916 0.0
O27 O 0.26895 0.26993 0.28772 0.0
H28 H 0.22457 0.22213 0.33319 0.0
H29 H 0.22883 0.17843 0.35912 0.0
H30 H 0.13751 0.20171 0.42658 0.0
H31 H 0.13306 0.24508 0.40036 0.0
H32 H 0.18097 0.4054 0.36074 0.0
H33 H 0.2127 0.36405 0.34467 0.0
H34 H 0.10856 0.40577 0.27345 0.0
H35 H 0.141 0.36503 0.25702 0.0
H36 H 0.29723 0.3178 0.18286 0.0
H37 H 0.34234 0.23793 0.18087 0.0
H38 H 0.30115 0.22662 0.22758 0.0
H39 H 0.25659 0.30643 0.23006 0.0
C40 C 0.17285 0.8542 0.66912 0.0
C41 C 0.19532 0.87484 0.68339 0.0
C42 C 0.17633 0.90448 0.63938 0.0
C43 C 0.19696 0.89982 0.66868 0.0
C44 C 0.15268 0.88394 0.62587 0.0
C45 C 0.15104 0.85904 0.64059 0.0
U46 U 0.2102 0.80437 0.73186 0.0
O47 O 0.17951 0.77086 0.75538 0.0
O48 O 0.23301 0.7639 0.72561 0.0
C49 C 0.20354 0.75329 0.74262 0.0
C50 C 0.17393 0.8272 0.68252 0.0
C51 C 0.18318 0.72969 0.72922 0.0
C52 C 0.12462 0.70825 0.70373 0.0
C53 C 0.14528 0.73129 0.71316 0.0
C54 C 0.18029 0.68182 0.725 0.0
C55 C 0.1415 0.68323 0.71016 0.0
C56 C 0.20086 0.70486 0.73453 0.0
C57 C 0.27959 0.82593 0.80107 0.0
C58 C 0.33736 0.80447 0.8275 0.0
C59 C 0.29163 0.83121 0.8583 0.0
C60 C 0.26855 0.8366 0.83057 0.0
C61 C 0.32636 0.81512 0.85706 0.0
C62 C 0.31414 0.80967 0.79987 0.0
C63 C 0.25515 0.83218 0.77189 0.0
O64 O 0.20954 0.81552 0.68093 0.0
O65 O 0.15614 0.82367 0.71026 0.0
O66 O 0.21531 0.82946 0.77453 0.0
O67 O 0.26894 0.82317 0.74472 0.0
H68 H 0.21233 0.87146 0.70549 0.0
H69 H 0.21494 0.91534 0.6799 0.0
H70 H 0.13673 0.88682 0.60321 0.0
H71 H 0.13363 0.84332 0.62918 0.0
H72 H 0.0947 0.70998 0.69243 0.0
H73 H 0.13114 0.75027 0.70873 0.0
H74 H 0.19445 0.6629 0.72968 0.0
H75 H 0.23021 0.70326 0.74678 0.0
H76 H 0.36468 0.79271 0.82548 0.0
H77 H 0.2825 0.8398 0.8807 0.0
H78 H 0.24214 0.84926 0.83214 0.0
H79 H 0.3237 0.80119 0.77753 0.0
C80 C 0.7074 0.83226 0.23873 0.0
C81 C 0.70769 0.80705 0.22504 0.0
C82 C 0.65688 0.82092 0.18537 0.0
C83 C 0.68269 0.80144 0.19847 0.0
C84 C 0.65767 0.84635 0.19862 0.0
C85 C 0.6827 0.85195 0.22515 0.0
U86 U 0.77533 0.8079 0.3065 0.0
O87 O 0.8295 0.82624 0.32951 0.0
O88 O 0.77542 0.81663 0.35792 0.0
C89 C 0.81123 0.82862 0.35713 0.0
C90 C 0.73142 0.83775 0.2679 0.0
C91 C 0.81232 0.85518 0.37121 0.0
C92 C 0.79002 0.90091 0.37153 0.0
C93 C 0.79133 0.87627 0.35659 0.0
C94 C 0.83155 0.8838 0.41538 0.0
C95 C 0.80953 0.90481 0.4014 0.0
C96 C 0.83285 0.85922 0.40044 0.0
C97 C 0.80016 0.73317 0.30522 0.0
C98 C 0.8547 0.71069 0.33426 0.0
C99 C 0.80424 0.68523 0.30436 0.0
C100 C 0.78459 0.70862 0.29527 0.0
C101 C 0.83996 0.68605 0.32347 0.0
C102 C 0.83498 0.73407 0.32521 0.0
C103 C 0.7808 0.75744 0.29301 0.0
O104 O 0.71694 0.82689 0.29411 0.0
O105 O 0.77117 0.83513 0.2653 0.0
O106 O 0.80567 0.77567 0.2816 0.0
O107 O 0.75147 0.76713 0.31039 0.0
H108 H 0.72672 0.79163 0.23526 0.0
H109 H 0.6831 0.7818 0.18846 0.0
H110 H 0.63786 0.86167 0.18913 0.0
H111 H 0.68212 0.87149 0.23549 0.0
H112 H 0.7733 0.9168 0.35995 0.0
H113 H 0.77532 0.8735 0.33396 0.0
H114 H 0.84657 0.88608 0.43849 0.0
H115 H 0.8491 0.84316 0.41212 0.0
H116 H 0.88228 0.71196 0.3489 0.0
H117 H 0.79174 0.66655 0.29619 0.0
H118 H 0.7576 0.70756 0.27994 0.0
H119 H 0.84742 0.75284 0.33318 0.0
C120 C 0.76071 0.2138 0.7037 0.0
C121 C 0.77389 0.21983 0.67269 0.0
C122 C 0.77721 0.17285 0.66042 0.0
C123 C 0.78189 0.19954 0.65119 0.0
C124 C 0.76407 0.16697 0.69157 0.0
C125 C 0.756 0.18728 0.71301 0.0
U126 U 0.76489 0.28579 0.73286 0.0
O127 O 0.7177 0.30948 0.75541 0.0
O128 O 0.77419 0.30018 0.78211 0.0
C129 C 0.73758 0.31061 0.78296 0.0
C130 C 0.75137 0.23478 0.72658 0.0
C131 C 0.71334 0.30433 0.81142 0.0
C132 C 0.65796 0.2804 0.83709 0.0
C133 C 0.68309 0.2845 0.81074 0.0
C134 C 0.69405 0.31519 0.86561 0.0
C135 C 0.663 0.29582 0.86476 0.0
C136 C 0.71901 0.31939 0.83914 0.0
C137 C 0.8174 0.34147 0.68882 0.0
C138 C 0.8196 0.38501 0.71292 0.0
C139 C 0.85613 0.37709 0.66401 0.0
C140 C 0.8422 0.35086 0.66411 0.0
C141 C 0.84538 0.39438 0.68862 0.0
C142 C 0.80566 0.35879 0.71298 0.0
C143 C 0.80557 0.31338 0.6903 0.0
O144 O 0.7829 0.24463 0.74247 0.0
O145 O 0.7256 0.25293 0.71642 0.0
O146 O 0.76611 0.3085 0.6877 0.0
O147 O 0.82343 0.29979 0.71345 0.0
H148 H 0.77759 0.24021 0.66502 0.0
H149 H 0.79093 0.20477 0.62712 0.0
H150 H 0.76015 0.14665 0.69936 0.0
H151 H 0.74586 0.18225 0.73688 0.0
H152 H 0.63365 0.26579 0.83534 0.0
H153 H 0.67815 0.27267 0.78953 0.0
H154 H 0.69864 0.32734 0.88658 0.0
H155 H 0.74221 0.3348 0.84006 0.0
H156 H 0.81099 0.39782 0.73226 0.0
H157 H 0.87682 0.38347 0.64543 0.0
H158 H 0.85175 0.33773 0.64539 0.0
H159 H 0.78655 0.35183 0.73232 0.0
C160 C 0.78783 0.72256 0.72779 0.0
C161 C 0.82391 0.72555 0.71032 0.0
C162 C 0.82846 0.67772 0.70457 0.0
C163 C 0.84414 0.70334 0.69899 0.0
C164 C 0.79163 0.67492 0.72125 0.0
C165 C 0.77154 0.69713 0.73272 0.0
U166 U 0.75697 0.79598 0.73182 0.0
O167 O 0.69968 0.81336 0.74783 0.0
O168 O 0.75702 0.82191 0.77393 0.0
C169 C 0.71698 0.82404 0.77328 0.0
C170 C 0.76819 0.74533 0.74287 0.0
C171 C 0.6961 0.81966 0.804 0.0
C172 C 0.64242 0.79888 0.83532 0.0
C173 C 0.6644 0.8009 0.807 0.0
C174 C 0.68465 0.83338 0.85877 0.0
C175 C 0.65173 0.81546 0.8613 0.0
C176 C 0.70645 0.83556 0.83031 0.0
C177 C 0.78076 0.84563 0.66514 0.0
C178 C 0.7784 0.8936 0.6694 0.0
C179 C 0.77081 0.87291 0.6176 0.0
C180 C 0.77502 0.84805 0.63196 0.0
C181 C 0.77245 0.89596 0.6361 0.0
C182 C 0.78229 0.8686 0.68386 0.0
C183 C 0.78353 0.81894 0.67949 0.0
O184 O 0.79291 0.76395 0.75374 0.0
O185 O 0.7354 0.75465 0.72829 0.0
O186 O 0.74873 0.80582 0.68077 0.0
O187 O 0.80609 0.81647 0.70568 0.0
H188 H 0.83715 0.74497 0.70627 0.0
H189 H 0.87298 0.70623 0.68701 0.0
H190 H 0.77878 0.6555 0.72595 0.0
H191 H 0.74373 0.6944 0.74618 0.0
H192 H 0.6171 0.78497 0.83645 0.0
H193 H 0.65578 0.78824 0.78722 0.0
H194 H 0.69312 0.84602 0.8786 0.0
H195 H 0.7309 0.85007 0.82861 0.0
H196 H 0.77946 0.91103 0.68422 0.0
H197 H 0.76666 0.87414 0.59186 0.0
H198 H 0.77358 0.83063 0.61711 0.0
H199 H 0.78621 0.86721 0.7096 0.0
C200 C 0.705 0.26187 0.24223 0.0
C201 C 0.69111 0.28688 0.23255 0.0
C202 C 0.65774 0.26754 0.1857 0.0
C203 C 0.66752 0.28968 0.20452 0.0
C204 C 0.67306 0.24272 0.19495 0.0
C205 C 0.69651 0.23994 0.22298 0.0
U206 U 0.76741 0.28725 0.31425 0.0
O207 O 0.76249 0.27684 0.36516 0.0
O208 O 0.81874 0.26777 0.33965 0.0
C209 C 0.79756 0.26434 0.36587 0.0
C210 C 0.72682 0.25799 0.27286 0.0
C211 C 0.79599 0.23714 0.37877 0.0
C212 C 0.76006 0.19522 0.38612 0.0
C213 C 0.76264 0.22029 0.37183 0.0
C214 C 0.82504 0.203 0.41322 0.0
C215 C 0.79108 0.18641 0.40717 0.0
C216 C 0.82742 0.22815 0.39915 0.0
C217 C 0.79661 0.36138 0.31854 0.0
C218 C 0.85618 0.38286 0.34268 0.0
C219 C 0.79667 0.40873 0.32829 0.0
C220 C 0.77676 0.38584 0.31738 0.0
C221 C 0.83705 0.40762 0.34029 0.0
C222 C 0.83617 0.35997 0.33199 0.0
C223 C 0.77671 0.33817 0.30354 0.0
O224 O 0.76667 0.26137 0.2722 0.0
O225 O 0.70991 0.26868 0.2979 0.0
O226 O 0.74495 0.32804 0.31833 0.0
O227 O 0.80119 0.32017 0.29217 0.0
H228 H 0.69748 0.30405 0.24715 0.0
H229 H 0.65545 0.30895 0.19836 0.0
H230 H 0.66601 0.22536 0.18088 0.0
H231 H 0.70717 0.22051 0.23005 0.0
H232 H 0.73353 0.18287 0.38114 0.0
H233 H 0.73813 0.22676 0.35595 0.0
H234 H 0.84898 0.19695 0.42985 0.0
H235 H 0.85337 0.24083 0.4048 0.0
H236 H 0.88733 0.3813 0.35167 0.0
H237 H 0.78075 0.42736 0.32677 0.0
H238 H 0.74615 0.38735 0.30726 0.0
H239 H 0.85213 0.34133 0.33334 0.0
C240 C 0.19036 0.2363 0.66598 0.0
C241 C 0.2213 0.21874 0.67567 0.0
C242 C 0.19717 0.18663 0.63651 0.0
C243 C 0.22476 0.19413 0.66098 0.0
C244 C 0.16533 0.20387 0.62775 0.0
C245 C 0.16205 0.22853 0.64229 0.0
U246 U 0.21755 0.28436 0.73219 0.0
O247 O 0.24004 0.32556 0.72978 0.0
O248 O 0.18327 0.316 0.75493 0.0
C249 C 0.20813 0.33471 0.7447 0.0
C250 C 0.18826 0.26301 0.67957 0.0
C251 C 0.18862 0.35832 0.73046 0.0
C252 C 0.13223 0.37929 0.70174 0.0
C253 C 0.15232 0.35642 0.71222 0.0
C254 C 0.18528 0.40625 0.72645 0.0
C255 C 0.14826 0.4045 0.70899 0.0
C256 C 0.20525 0.38337 0.73704 0.0
C257 C 0.27959 0.2572 0.80364 0.0
C258 C 0.31763 0.28412 0.84182 0.0
C259 C 0.31122 0.23688 0.85056 0.0
C260 C 0.2877 0.23477 0.82248 0.0
C261 C 0.32699 0.26151 0.86026 0.0
C262 C 0.29396 0.28199 0.81377 0.0
C263 C 0.25789 0.25411 0.77284 0.0
O264 O 0.16671 0.26512 0.70571 0.0
O265 O 0.22326 0.27596 0.68102 0.0
O266 O 0.27493 0.26591 0.7482 0.0
O267 O 0.21802 0.25696 0.77345 0.0
H268 H 0.24326 0.22428 0.69416 0.0
H269 H 0.2493 0.18111 0.66842 0.0
H270 H 0.14379 0.19866 0.60883 0.0
H271 H 0.13793 0.24177 0.63456 0.0
H272 H 0.10325 0.37718 0.68909 0.0
H273 H 0.13883 0.3373 0.70692 0.0
H274 H 0.19837 0.42534 0.73243 0.0
H275 H 0.23321 0.38526 0.75113 0.0
H276 H 0.33008 0.30327 0.84828 0.0
H277 H 0.31793 0.21916 0.86431 0.0
H278 H 0.27671 0.21549 0.81503 0.0
H279 H 0.28793 0.29954 0.79949 0.0
C280 C 0.17307 0.74375 0.35999 0.0
C281 C 0.15793 0.73025 0.33302 0.0
C282 C 0.14262 0.69142 0.36588 0.0
C283 C 0.14258 0.70447 0.33598 0.0
C284 C 0.15912 0.70471 0.39263 0.0
C285 C 0.17416 0.73062 0.38969 0.0
U286 U 0.22342 0.79972 0.31319 0.0
O287 O 0.20704 0.84161 0.307 0.0
O288 O 0.26662 0.83099 0.32807 0.0
C289 C 0.24116 0.85011 0.32057 0.0
C290 C 0.1869 0.77157 0.35758 0.0
C291 C 0.23694 0.87115 0.34439 0.0
C292 C 0.23127 0.88591 0.39928 0.0
C293 C 0.23368 0.8654 0.37715 0.0
C294 C 0.23469 0.91811 0.35615 0.0
C295 C 0.23179 0.91249 0.38902 0.0
C296 C 0.23725 0.89761 0.33406 0.0
C297 C 0.26556 0.78423 0.23075 0.0
C298 C 0.29124 0.81776 0.19398 0.0
C299 C 0.31188 0.7722 0.18863 0.0
C300 C 0.28753 0.76506 0.21451 0.0
C301 C 0.31471 0.79871 0.17847 0.0
C302 C 0.26708 0.81061 0.22011 0.0
C303 C 0.24377 0.77651 0.25994 0.0
O304 O 0.22671 0.77533 0.35717 0.0
O305 O 0.16706 0.78636 0.33657 0.0
O306 O 0.20785 0.78731 0.2641 0.0
O307 O 0.26659 0.77599 0.28607 0.0
H308 H 0.15696 0.73989 0.30976 0.0
H309 H 0.12909 0.69522 0.31503 0.0
H310 H 0.1596 0.69526 0.41599 0.0
H311 H 0.18596 0.7406 0.41077 0.0
H312 H 0.2288 0.881 0.42446 0.0
H313 H 0.23327 0.84512 0.38562 0.0
H314 H 0.23576 0.93835 0.34757 0.0
H315 H 0.23992 0.90243 0.30886 0.0
H316 H 0.29217 0.83824 0.18633 0.0
H317 H 0.32983 0.7571 0.17739 0.0
H318 H 0.28685 0.74463 0.22249 0.0
H319 H 0.25037 0.82573 0.23241 0.0
H320 H -0.00682 0.45536 0.35441 0.0
H321 H 0.92793 0.52746 0.36329 0.0
H322 H 0.05858 0.52856 0.34563 0.0
H323 H 0.05792 0.56721 0.36934 0.0
H324 H -0.00856 0.63935 0.3608 0.0
H325 H 0.92925 0.56666 0.34134 0.0
C326 C -0.00657 0.47678 0.35536 0.0
C327 C 0.03014 0.49053 0.35104 0.0
C328 C 0.95663 0.49004 0.35883 0.0
C329 C 0.9567 0.51777 0.35933 0.0
C330 C -0.00654 0.53252 0.35511 0.0
C331 C 0.03008 0.51833 0.35026 0.0
C332 C -0.00659 0.56237 0.35581 0.0
C333 C 0.02943 0.57702 0.36375 0.0
C334 C 0.02874 0.60477 0.36531 0.0
C335 C -0.00803 0.61793 0.35987 0.0
C336 C 0.95619 0.60422 0.35183 0.0
C337 C 0.95706 0.57664 0.34895 0.0
H338 H -0.01523 0.6341 0.68351 0.0
H339 H 0.05381 0.56369 0.6943 0.0
H340 H 0.92095 0.56047 0.68442 0.0
H341 H 0.92284 0.51974 0.69267 0.0
H342 H -0.00722 0.44931 0.69237 0.0
H343 H 0.05599 0.523 0.68708 0.0
C344 C -0.01436 0.61267 0.68417 0.0
C345 C 0.94911 0.59832 0.68365 0.0
C346 C 0.0231 0.60006 0.68783 0.0
C347 C 0.02418 0.57239 0.69043 0.0
C348 C -0.01224 0.55679 0.68841 0.0
C349 C 0.95005 0.57059 0.68545 0.0
C350 C -0.01085 0.52667 0.6897 0.0
C351 C 0.95272 0.51106 0.69146 0.0
C352 C 0.95423 0.48335 0.69226 0.0
C353 C -0.00821 0.47074 0.69152 0.0
C354 C 0.02811 0.48515 0.68997 0.0
C355 C 0.02698 0.51288 0.68893 0.0
H356 H 0.20401 0.13774 0.5156 0.0
H357 H 0.21041 0.06556 0.56901 0.0
H358 H 0.19225 0.06475 0.46565 0.0
H359 H 0.22074 1.02605 0.46834 0.0
H360 H 0.20854 0.95345 0.52061 0.0
H361 H 0.18488 1.02584 0.56807 0.0
C362 C 0.20348 0.11629 0.51609 0.0
C363 C 0.19905 0.10254 0.48751 0.0
C364 C 0.20648 0.10296 0.54532 0.0
C365 C 0.20623 0.07522 0.54604 0.0
C366 C 0.20171 0.06048 0.51739 0.0
C367 C 0.1972 0.07479 0.4881 0.0
C368 C 0.20253 1.03056 0.51805 0.0
C369 C 0.21287 1.01608 0.4904 0.0
C370 C 0.21448 0.9883 0.49112 0.0
C371 C 0.20712 0.97486 0.5198 0.0
C372 C 0.19733 0.98843 0.54745 0.0
C373 C 0.19401 1.01606 0.5465 0.0
H374 H 0.48637 0.81057 0.13608 0.0
H375 H 0.55335 0.80464 0.04996 0.0
H376 H 0.42173 0.8164 0.04695 0.0
H377 H 0.422 0.80455 0.99891 0.0
H378 H 0.4896 0.80714 0.91264 0.0
H379 H 0.55424 0.81574 1.00128 0.0
C380 C 0.48665 0.81068 0.11013 0.0
C381 C 0.44996 0.81326 0.09289 0.0
C382 C 0.52375 0.80821 0.09447 0.0
C383 C 0.52417 0.80768 0.06094 0.0
C384 C 0.48761 0.81038 0.04248 0.0
C385 C 0.45055 0.81347 0.05929 0.0
C386 C 0.48814 0.80971 1.00623 0.0
C387 C 0.45145 0.8067 0.9879 0.0
C388 C 0.45208 0.80627 0.95438 0.0
C389 C 0.48923 0.80757 0.9386 0.0
C390 C 0.5258 0.81044 0.9558 0.0
C391 C 0.52532 0.81216 0.98925 0.0
H392 H 0.78581 0.13501 0.52918 0.0
H393 H 0.79323 0.06049 0.57758 0.0
H394 H 0.77721 0.06461 0.4741 0.0
H395 H 0.80101 1.02516 0.47364 0.0
H396 H 0.77994 0.95076 0.51939 0.0
H397 H 0.76855 1.02099 0.57422 0.0
C398 C 0.78572 0.11358 0.52823 0.0
C399 C 0.78225 0.10118 0.49869 0.0
C400 C 0.78916 0.09894 0.55654 0.0
C401 C 0.78922 0.07118 0.55529 0.0
C402 C 0.78521 0.05779 0.52561 0.0
C403 C 0.78151 0.07347 0.49733 0.0
C404 C 0.78452 1.02786 0.52411 0.0
C405 C 0.7925 1.01452 0.49508 0.0
C406 C 0.78981 0.98687 0.49338 0.0
C407 C 0.781 0.97216 0.52075 0.0
C408 C 0.77438 0.98442 0.54991 0.0
C409 C 0.77551 1.01214 0.55156 0.0
H410 H 0.4897 0.28627 0.13343 0.0
H411 H 0.55662 0.27626 0.04752 0.0
H412 H 0.42748 0.29519 0.04319 0.0
H413 H 0.42902 0.27317 0.99814 0.0
H414 H 0.49682 0.27716 0.91142 0.0
H415 H 0.5576 0.29525 0.99986 0.0
C416 C 0.49053 0.28674 0.10748 0.0
C417 C 0.45454 0.29119 0.08986 0.0
C418 C 0.52732 0.28192 0.09221 0.0
C419 C 0.5282 0.28139 0.0587 0.0
C420 C 0.49235 0.28609 0.04012 0.0
C421 C 0.45555 0.29119 0.0563 0.0
C422 C 0.49313 0.28455 1.00423 0.0
C423 C 0.45751 0.27761 0.98636 0.0
C424 C 0.45856 0.27542 0.95291 0.0
C425 C 0.49563 0.27914 0.93722 0.0
C426 C 0.53119 0.28578 0.95427 0.0
C427 C 0.52983 0.28919 0.98745 0.0
C428 C 0.10434 0.43423 0.35899 0.0
C429 C 0.12162 0.43346 0.32841 0.0
C430 C 0.07761 0.45442 0.36729 0.0
C431 C 0.06726 0.4747 0.34541 0.0
H432 H 0.10925 0.41818 0.37589 0.0
H433 H 0.06276 0.45324 0.39026 0.0
S434 S 0.10926 0.48413 0.26429 0.0
N435 N 0.13074 0.4567 0.27775 0.0
N436 N 0.07969 0.49437 0.29326 0.0
C437 C 0.08689 0.47541 0.31581 0.0
C438 C 0.11416 0.45482 0.3073 0.0
C439 C 0.09684 0.65655 0.67316 0.0
C440 C 0.11735 0.6589 0.70285 0.0
C441 C 0.06877 0.63597 0.66747 0.0
C442 C 0.06026 0.6169 0.6912 0.0
H443 H 0.10131 0.67133 0.6546 0.0
H444 H 0.05195 0.63575 0.64491 0.0
S445 S 0.10711 0.6132 0.77234 0.0
N446 N 0.12846 0.63957 0.75579 0.0
N447 N 0.07585 0.60079 0.74481 0.0
C448 C 0.08224 0.61805 0.72026 0.0
C449 C 0.11076 0.63908 0.72616 0.0
C450 C 0.87751 0.65707 0.36266 0.0
C451 C 0.86314 0.66159 0.33121 0.0
C452 C 0.90491 0.63665 0.36971 0.0
C453 C 0.91888 0.61993 0.34561 0.0
H454 H 0.86885 0.67012 0.38175 0.0
H455 H 0.91716 0.63488 0.39387 0.0
S456 S 0.88865 0.62215 0.25992 0.0
N457 N 0.86324 0.64658 0.27604 0.0
N458 N 0.91469 0.60809 0.28957 0.0
C459 C 0.90284 0.62308 0.31451 0.0
C460 C 0.87496 0.64395 0.30724 0.0
C461 C 0.88529 0.42817 0.71957 0.0
C462 C 0.86506 0.42093 0.69094 0.0
C463 C 0.91112 0.4504 0.72078 0.0
C464 C 0.91725 0.46636 0.69355 0.0
H465 H 0.8836 0.41552 0.74056 0.0
H466 H 0.92874 0.45404 0.74249 0.0
S467 S 0.86691 0.45838 0.61424 0.0
N468 N 0.84919 0.43338 0.63581 0.0
N469 N 0.89816 0.4751 0.6382 0.0
C470 C 0.89474 0.46066 0.66559 0.0
C471 C 0.86857 0.43792 0.66424 0.0
C472 C 0.15449 0.14671 0.42305 0.0
C473 C 0.18897 0.16147 0.41329 0.0
C474 C 0.15827 0.12551 0.44485 0.0
C475 C 0.19665 0.11836 0.45758 0.0
H476 H 0.12417 0.15236 0.41491 0.0
H477 H 0.1308 0.11585 0.45345 0.0
S478 S 0.29647 0.14954 0.4389 0.0
N479 N 0.26296 0.16642 0.41717 0.0
N480 N 0.26979 0.12664 0.45798 0.0
C481 C 0.23148 0.13192 0.44673 0.0
C482 C 0.22774 0.15344 0.42456 0.0
C483 C 0.36512 0.83317 0.90429 0.0
C484 C 0.35309 0.81122 0.88582 0.0
C485 C 0.39517 0.83091 0.92843 0.0
C486 C 0.41411 0.80665 0.93491 0.0
H487 H 0.353 0.85257 0.89887 0.0
H488 H 0.40539 0.84855 0.94079 0.0
S489 S 0.39007 0.74259 0.89679 0.0
N490 N 0.35934 0.76379 0.87844 0.0
N491 N 0.4168 0.75991 0.92325 0.0
C492 C 0.40086 0.78429 0.91807 0.0
C493 C 0.37006 0.78648 0.89366 0.0
C494 C 0.83906 0.9418 0.4345 0.0
C495 C 0.80485 0.92989 0.41934 0.0
C496 C 0.83447 0.96253 0.45624 0.0
C497 C 0.79556 0.97214 0.46342 0.0
H498 H 0.86943 0.93418 0.43071 0.0
H499 H 0.8612 0.96984 0.46913 0.0
S500 S 0.6965 0.94897 0.42935 0.0
N501 N 0.73085 0.9303 0.4122 0.0
N502 N 0.72258 0.9693 0.45286 0.0
C503 C 0.76144 0.96155 0.44712 0.0
C504 C 0.76599 0.94045 0.42506 0.0
C505 C 0.61501 0.31556 0.90396 0.0
C506 C 0.63388 0.293 0.89156 0.0
C507 C 0.58332 0.31324 0.9261 0.0
C508 C 0.5697 0.28833 0.93661 0.0
H509 H 0.6233 0.33507 0.89526 0.0
H510 H 0.56803 0.33092 0.93379 0.0
S511 S 0.61167 0.22346 0.91464 0.0
N512 N 0.639 0.24511 0.89405 0.0
N513 N 0.57884 0.2409 0.93514 0.0
C514 C 0.58954 0.26577 0.92578 0.0
C515 C 0.62181 0.26806 0.90338 0.0
C516 C 0.14765 0.94236 0.60699 0.0
C517 C 0.18171 0.92979 0.62132 0.0
C518 C 0.15261 0.96342 0.58519 0.0
C519 C 0.19177 0.97265 0.57707 0.0
H520 H 0.11702 0.93507 0.61154 0.0
H521 H 0.12584 0.97136 0.57304 0.0
S522 S 0.29066 0.9477 0.6087 0.0
N523 N 0.25592 0.92914 0.62662 0.0
N524 N 0.26491 0.96874 0.58587 0.0
C525 C 0.22586 0.96133 0.59249 0.0
C526 C 0.22093 0.93993 0.61462 0.0
C527 C 0.62309 0.83148 0.13259 0.0
C528 C 0.62706 0.81455 0.15936 0.0
C529 C 0.59121 0.82803 0.11011 0.0
C530 C 0.56206 0.80772 0.11384 0.0
H531 H 0.64392 0.84803 0.12963 0.0
H532 H 0.58795 0.84231 0.09074 0.0
S533 S 0.56061 0.75682 0.17813 0.0
N534 N 0.6005 0.77574 0.18712 0.0
N535 N 0.54089 0.76922 0.14469 0.0
C536 C 0.56701 0.78979 0.13944 0.0
C537 C 0.59947 0.79322 0.16224 0.0
C538 C 0.7547 0.13114 0.6327 0.0
C539 C 0.78424 0.15131 0.63711 0.0
C540 C 0.75814 0.11261 0.60805 0.0
C541 C 0.79128 0.1136 0.58707 0.0
H542 H 0.7276 0.13052 0.64727 0.0
H543 H 0.73349 0.0985 0.60416 0.0
S544 S 0.87984 0.15973 0.5913 0.0
N545 N 0.85017 0.16897 0.6207 0.0
N546 N 0.85615 0.13448 0.57419 0.0
C547 C 0.82227 0.13251 0.59252 0.0
C548 C 0.81887 0.15129 0.61755 0.0
C549 C 0.35414 0.26964 0.12516 0.0
C550 C 0.35146 0.28592 0.15216 0.0
C551 C 0.38563 0.27312 0.10306 0.0
C552 C 0.41567 0.29285 0.1074 0.0
H553 H 0.33284 0.25333 0.12191 0.0
H554 H 0.38818 0.25909 0.08379 0.0
S555 S 0.42012 0.34239 0.17207 0.0
N556 N 0.37976 0.32387 0.18044 0.0
N557 N 0.43869 0.33044 0.13873 0.0
C558 C 0.41167 0.31041 0.13295 0.0
C559 C 0.37961 0.30695 0.15539 0.0
C560 C 0.85981 0.63391 0.71854 0.0
C561 C 0.85253 0.65408 0.6957 0.0
C562 C 0.88835 0.61394 0.71306 0.0
C563 C 0.91056 0.61345 0.68458 0.0
H564 H 0.84549 0.63454 0.7417 0.0
H565 H 0.89539 0.60007 0.73222 0.0
S566 S 0.89788 0.65868 0.615 0.0
N567 N 0.86578 0.6699 0.64169 0.0
N568 N 0.92006 0.63276 0.63185 0.0
C569 C 0.90122 0.63215 0.66059 0.0
C570 C 0.87209 0.65238 0.66605 0.0
C571 C 0.88564 0.43276 0.37606 0.0
C572 C 0.86062 0.4321 0.34833 0.0
C573 C 0.91412 0.45325 0.38107 0.0
C574 C 0.91846 0.47398 0.3587 0.0
H575 H 0.88466 0.41662 0.39323 0.0
H576 H 0.93477 0.452 0.40156 0.0
S577 S 0.85838 0.48285 0.28358 0.0
N578 N 0.84046 0.45507 0.29921 0.0
N579 N 0.89365 0.49369 0.30908 0.0
C580 C 0.89164 0.47467 0.33217 0.0
C581 C 0.86279 0.4537 0.32687 0.0
C582 C 0.11725 0.44757 0.72483 0.0
C583 C 0.12437 0.42869 0.70099 0.0
C584 C 0.08882 0.4679 0.71989 0.0
C585 C 0.0667 0.4701 0.69093 0.0
H586 H 0.1316 0.44557 0.74826 0.0
H587 H 0.08183 0.48068 0.73967 0.0
S588 S 0.0786 0.42866 0.61919 0.0
N589 N 0.11077 0.41589 0.64586 0.0
N590 N 0.05675 0.45373 0.637 0.0
C591 C 0.0758 0.45272 0.66612 0.0
C592 C 0.10475 0.4321 0.67104 0.0
C593 C 0.09262 0.66213 0.3944 0.0
C594 C 0.12107 0.66547 0.3697 0.0
C595 C 0.06557 0.6405 0.39488 0.0
C596 C 0.0659 0.6213 0.37076 0.0
H597 H 0.08903 0.67732 0.41218 0.0
H598 H 0.04206 0.63986 0.41286 0.0
S599 S 0.13893 0.61824 0.30408 0.0
N600 N 0.15183 0.64557 0.32319 0.0
N601 N 0.10011 0.60523 0.32379 0.0
C602 C 0.09652 0.62304 0.34766 0.0
C603 C 0.1242 0.64509 0.34714 0.0
C604 C 0.73622 0.92626 0.59781 0.0
C605 C 0.76844 0.92213 0.61995 0.0
C606 C 0.73599 0.94833 0.57733 0.0
C607 C 0.76795 0.96711 0.57823 0.0
H608 H 0.71215 0.91157 0.59508 0.0
H609 H 0.71218 0.94974 0.55908 0.0
S610 S 0.8573 0.96686 0.63381 0.0
N611 N 0.83136 0.93983 0.64336 0.0
N612 N 0.83084 0.98135 0.60468 0.0
C613 C 0.79862 0.96435 0.60189 0.0
C614 C 0.7989 0.94183 0.62282 0.0
C615 C 0.59397 0.25243 0.15766 0.0
C616 C 0.62792 0.2697 0.15867 0.0
C617 C 0.56256 0.25574 0.13491 0.0
C618 C 0.56406 0.2763 0.11214 0.0
H619 H 0.59066 0.23694 0.17553 0.0
H620 H 0.53617 0.24267 0.13582 0.0
S621 S 0.64775 0.32542 0.10259 0.0
N622 N 0.66252 0.30699 0.13343 0.0
N623 N 0.60309 0.31322 0.09059 0.0
C624 C 0.59864 0.29293 0.11177 0.0
C625 C 0.63061 0.28968 0.13514 0.0
C626 C 0.16956 0.14444 0.61311 0.0
C627 C 0.20284 0.16182 0.61838 0.0
C628 C 0.17233 0.12336 0.59166 0.0
C629 C 0.20834 0.11908 0.57464 0.0
H630 H 0.14064 0.14789 0.62457 0.0
H631 H 0.14525 0.1115 0.58666 0.0
S632 S 0.3047 0.15783 0.58097 0.0
N633 N 0.27362 0.1723 0.60602 0.0
N634 N 0.27845 0.13286 0.56554 0.0
C635 C 0.24244 0.13536 0.58097 0.0
C636 C 0.2398 0.15668 0.60292 0.0
C637 C 0.34807 0.79092 0.12574 0.0
C638 C 0.34466 0.80629 0.15349 0.0
C639 C 0.38064 0.7947 0.10467 0.0
C640 C 0.41104 0.81391 0.11067 0.0
H641 H 0.32633 0.77511 0.121 0.0
H642 H 0.38343 0.78138 0.08469 0.0
S643 S 0.41393 0.86135 0.17772 0.0
N644 N 0.37301 0.84286 0.18434 0.0
N645 N 0.43343 0.85035 0.14424 0.0
C646 C 0.40641 0.83065 0.13699 0.0
C647 C 0.3734 0.82677 0.1585 0.0
C648 C 0.75076 0.15697 0.44351 0.0
C649 C 0.78619 0.16126 0.42542 0.0
C650 C 0.74821 0.13592 0.46545 0.0
C651 C 0.78068 0.11815 0.46967 0.0
H652 H 0.72591 0.17097 0.44225 0.0
H653 H 0.72165 0.13439 0.48056 0.0
S654 S 0.87789 0.11871 0.4254 0.0
N655 N 0.85281 0.14453 0.41104 0.0
N656 N 0.84778 0.10484 0.45227 0.0
C657 C 0.81499 0.12107 0.45017 0.0
C658 C 0.81783 0.14269 0.42807 0.0
C659 C 0.39035 0.24594 0.88837 0.0
C660 C 0.35679 0.26314 0.88738 0.0
C661 C 0.42204 0.24912 0.91094 0.0
C662 C 0.42129 0.26951 0.93352 0.0
H663 H 0.39321 0.2307 0.87056 0.0
H664 H 0.44814 0.23614 0.90995 0.0
S665 S 0.33846 0.31811 0.94326 0.0
N666 N 0.32305 0.2999 0.9127 0.0
N667 N 0.38305 0.30603 0.95501 0.0
C668 C 0.38693 0.28593 0.93401 0.0
C669 C 0.35464 0.28277 0.91089 0.0
C670 C 0.25591 0.93362 0.43994 0.0
C671 C 0.22994 0.93414 0.4128 0.0
C672 C 0.25257 0.9524 0.46415 0.0
C673 C 0.22304 0.97244 0.46226 0.0
H674 H 0.2785 0.91822 0.44281 0.0
H675 H 0.27229 0.95066 0.48513 0.0
S676 S 0.14839 0.98303 0.39584 0.0
N677 N 0.17451 0.95692 0.38497 0.0
N678 N 0.1682 0.99218 0.43066 0.0
C679 C 0.19803 0.9739 0.43467 0.0
C680 C 0.20144 0.95474 0.40993 0.0
C681 C 0.61248 0.79059 0.90315 0.0
C682 C 0.6252 0.81494 0.88989 0.0
C683 C 0.58226 0.78936 0.92656 0.0
C684 C 0.56407 0.81244 0.93772 0.0
H685 H 0.62478 0.77227 0.89442 0.0
H686 H 0.57156 0.77019 0.93481 0.0
S687 S 0.58728 0.88105 0.91226 0.0
N688 N 0.61788 0.86276 0.89076 0.0
N689 N 0.56157 0.86021 0.93518 0.0
C690 C 0.57782 0.83692 0.92604 0.0
C691 C 0.60839 0.83824 0.90208 0.0
loop_
_geom_bond_atom_site_label_1
_geom_bond_atom_site_label_2
_geom_bond_distance
_geom_bond_site_symmetry_2
_ccdc_geom_bond_type
C0 C1 1.264 . S
C0 C5 1.479 . S
C0 C10 1.465 . S
C1 C0 1.264 . S
C1 C3 1.339 . S
C1 H28 0.931 . S
C2 C3 1.395 . S
C2 C4 1.320 . S
C3 C1 1.339 . S
C3 C2 1.395 . S
C3 H29 0.929 . S
C4 C2 1.320 . S
C4 C5 1.405 . S
C4 H30 0.930 . S
C5 C0 1.479 . S
C5 C4 1.405 . S
C5 H31 0.931 . S
U6 O7 2.454 . S
U6 O8 2.458 . S
U6 C9 2.984 . S
U6 C10 2.847 . S
U6 C23 2.882 . S
U6 O24 2.441 . S
U6 O25 2.420 . S
U6 O26 2.455 . S
U6 O27 2.449 . S
O7 U6 2.454 . S
O7 C9 1.353 . S
O8 U6 2.458 . S
O8 C9 1.286 . S
C9 U6 2.984 . S
C9 O7 1.353 . S
C9 O8 1.286 . S
C9 C11 1.363 . S
C10 C0 1.465 . S
C10 U6 2.847 . S
C10 O24 1.249 . S
C10 O25 1.202 . S
C11 C9 1.363 . S
C11 C13 1.408 . S
C11 C16 1.342 . S
C12 C13 1.310 . S
C12 C15 1.461 . S
C12 H32 0.932 . S
C13 C11 1.408 . S
C13 C12 1.310 . S
C13 H33 0.930 . S
C14 C15 1.474 . S
C14 C16 1.285 . S
C14 H34 0.929 . S
C15 C12 1.461 . S
C15 C14 1.474 . S
C16 C11 1.342 . S
C16 C14 1.285 . S
C16 H35 0.930 . S
C17 C20 1.424 . S
C17 C22 1.245 . S
C17 C23 1.428 . S
C18 C21 1.260 . S
C18 C22 1.477 . S
C18 H36 0.932 . S
C19 C20 1.384 . S
C19 C21 1.479 . S
C19 H37 0.929 . S
C20 C17 1.424 . S
C20 C19 1.384 . S
C20 H38 0.928 . S
C21 C18 1.260 . S
C21 C19 1.479 . S
C22 C17 1.245 . S
C22 C18 1.477 . S
C22 H39 0.932 . S
C23 U6 2.882 . S
C23 C17 1.428 . S
C23 O26 1.301 . S
C23 O27 1.282 . S
O24 U6 2.441 . S
O24 C10 1.249 . S
O25 U6 2.420 . S
O25 C10 1.202 . S
O26 U6 2.455 . S
O26 C23 1.301 . S
O27 U6 2.449 . S
O27 C23 1.282 . S
H28 C1 0.931 . S
H29 C3 0.929 . S
H30 C4 0.930 . S
H31 C5 0.931 . S
H32 C12 0.932 . S
H33 C13 0.930 . S
H34 C14 0.929 . S
H35 C16 0.930 . S
H36 C18 0.932 . S
H37 C19 0.929 . S
H38 C20 0.928 . S
H39 C22 0.932 . S
C40 C41 1.264 . S
C40 C45 1.479 . S
C40 C50 1.465 . S
C41 C40 1.264 . S
C41 C43 1.339 . S
C41 H68 0.931 . S
C42 C43 1.395 . S
C42 C44 1.320 . S
C43 C41 1.339 . S
C43 C42 1.395 . S
C43 H69 0.929 . S
C44 C42 1.320 . S
C44 C45 1.405 . S
C44 H70 0.930 . S
C45 C40 1.479 . S
C45 C44 1.405 . S
C45 H71 0.931 . S
U46 O47 2.454 . S
U46 O48 2.458 . S
U46 C49 2.984 . S
U46 C50 2.847 . S
U46 C63 2.882 . S
U46 O64 2.441 . S
U46 O65 2.420 . S
U46 O66 2.455 . S
U46 O67 2.449 . S
O47 U46 2.454 . S
O47 C49 1.353 . S
O48 U46 2.458 . S
O48 C49 1.286 . S
C49 U46 2.984 . S
C49 O47 1.353 . S
C49 O48 1.286 . S
C49 C51 1.363 . S
C50 C40 1.465 . S
C50 U46 2.847 . S
C50 O64 1.249 . S
C50 O65 1.202 . S
C51 C49 1.363 . S
C51 C53 1.408 . S
C51 C56 1.342 . S
C52 C53 1.310 . S
C52 C55 1.461 . S
C52 H72 0.932 . S
C53 C51 1.408 . S
C53 C52 1.310 . S
C53 H73 0.930 . S
C54 C55 1.474 . S
C54 C56 1.285 . S
C54 H74 0.929 . S
C55 C52 1.461 . S
C55 C54 1.474 . S
C56 C51 1.342 . S
C56 C54 1.285 . S
C56 H75 0.930 . S
C57 C60 1.424 . S
C57 C62 1.245 . S
C57 C63 1.428 . S
C58 C61 1.260 . S
C58 C62 1.477 . S
C58 H76 0.932 . S
C59 C60 1.384 . S
C59 C61 1.479 . S
C59 H77 0.929 . S
C60 C57 1.424 . S
C60 C59 1.384 . S
C60 H78 0.928 . S
C61 C58 1.260 . S
C61 C59 1.479 . S
C62 C57 1.245 . S
C62 C58 1.477 . S
C62 H79 0.932 . S
C63 U46 2.882 . S
C63 C57 1.428 . S
C63 O66 1.301 . S
C63 O67 1.282 . S
O64 U46 2.441 . S
O64 C50 1.249 . S
O65 U46 2.420 . S
O65 C50 1.202 . S
O66 U46 2.455 . S
O66 C63 1.301 . S
O67 U46 2.449 . S
O67 C63 1.282 . S
H68 C41 0.931 . S
H69 C43 0.929 . S
H70 C44 0.930 . S
H71 C45 0.931 . S
H72 C52 0.932 . S
H73 C53 0.930 . S
H74 C54 0.929 . S
H75 C56 0.930 . S
H76 C58 0.932 . S
H77 C59 0.929 . S
H78 C60 0.928 . S
H79 C62 0.932 . S
C80 C81 1.264 . S
C80 C85 1.479 . S
C80 C90 1.465 . S
C81 C80 1.264 . S
C81 C83 1.339 . S
C81 H108 0.931 . S
C82 C83 1.395 . S
C82 C84 1.320 . S
C83 C81 1.339 . S
C83 C82 1.395 . S
C83 H109 0.929 . S
C84 C82 1.320 . S
C84 C85 1.405 . S
C84 H110 0.930 . S
C85 C80 1.479 . S
C85 C84 1.405 . S
C85 H111 0.931 . S
U86 O87 2.454 . S
U86 O88 2.458 . S
U86 C89 2.984 . S
U86 C90 2.847 . S
U86 C103 2.882 . S
U86 O104 2.441 . S
U86 O105 2.420 . S
U86 O106 2.455 . S
U86 O107 2.449 . S
O87 U86 2.454 . S
O87 C89 1.353 . S
O88 U86 2.458 . S
O88 C89 1.286 . S
C89 U86 2.984 . S
C89 O87 1.353 . S
C89 O88 1.286 . S
C89 C91 1.363 . S
C90 C80 1.465 . S
C90 U86 2.847 . S
C90 O104 1.249 . S
C90 O105 1.202 . S
C91 C89 1.363 . S
C91 C93 1.408 . S
C91 C96 1.342 . S
C92 C93 1.310 . S
C92 C95 1.461 . S
C92 H112 0.932 . S
C93 C91 1.408 . S
C93 C92 1.310 . S
C93 H113 0.930 . S
C94 C95 1.474 . S
C94 C96 1.285 . S
C94 H114 0.929 . S
C95 C92 1.461 . S
C95 C94 1.474 . S
C96 C91 1.342 . S
C96 C94 1.285 . S
C96 H115 0.930 . S
C97 C100 1.424 . S
C97 C102 1.245 . S
C97 C103 1.428 . S
C98 C101 1.260 . S
C98 C102 1.477 . S
C98 H116 0.932 . S
C99 C100 1.384 . S
C99 C101 1.479 . S
C99 H117 0.929 . S
C100 C97 1.424 . S
C100 C99 1.384 . S
C100 H118 0.928 . S
C101 C98 1.260 . S
C101 C99 1.479 . S
C102 C97 1.245 . S
C102 C98 1.477 . S
C102 H119 0.932 . S
C103 U86 2.882 . S
C103 C97 1.428 . S
C103 O106 1.301 . S
C103 O107 1.282 . S
O104 U86 2.441 . S
O104 C90 1.249 . S
O105 U86 2.420 . S
O105 C90 1.202 . S
O106 U86 2.455 . S
O106 C103 1.301 . S
O107 U86 2.449 . S
O107 C103 1.282 . S
H108 C81 0.931 . S
H109 C83 0.929 . S
H110 C84 0.930 . S
H111 C85 0.931 . S
H112 C92 0.932 . S
H113 C93 0.930 . S
H114 C94 0.929 . S
H115 C96 0.930 . S
H116 C98 0.932 . S
H117 C99 0.929 . S
H118 C100 0.928 . S
H119 C102 0.932 . S
C120 C121 1.264 . S
C120 C125 1.479 . S
C120 C130 1.465 . S
C121 C120 1.264 . S
C121 C123 1.339 . S
C121 H148 0.931 . S
C122 C123 1.395 . S
C122 C124 1.320 . S
C123 C121 1.339 . S
C123 C122 1.395 . S
C123 H149 0.929 . S
C124 C122 1.320 . S
C124 C125 1.405 . S
C124 H150 0.930 . S
C125 C120 1.479 . S
C125 C124 1.405 . S
C125 H151 0.931 . S
U126 O127 2.454 . S
U126 O128 2.458 . S
U126 C129 2.984 . S
U126 C130 2.847 . S
U126 C143 2.882 . S
U126 O144 2.441 . S
U126 O145 2.420 . S
U126 O146 2.455 . S
U126 O147 2.449 . S
O127 U126 2.454 . S
O127 C129 1.353 . S
O128 U126 2.458 . S
O128 C129 1.286 . S
C129 U126 2.984 . S
C129 O127 1.353 . S
C129 O128 1.286 . S
C129 C131 1.363 . S
C130 C120 1.465 . S
C130 U126 2.847 . S
C130 O144 1.249 . S
C130 O145 1.202 . S
C131 C129 1.363 . S
C131 C133 1.408 . S
C131 C136 1.342 . S
C132 C133 1.310 . S
C132 C135 1.461 . S
C132 H152 0.932 . S
C133 C131 1.408 . S
C133 C132 1.310 . S
C133 H153 0.930 . S
C134 C135 1.474 . S
C134 C136 1.285 . S
C134 H154 0.929 . S
C135 C132 1.461 . S
C135 C134 1.474 . S
C136 C131 1.342 . S
C136 C134 1.285 . S
C136 H155 0.930 . S
C137 C140 1.424 . S
C137 C142 1.245 . S
C137 C143 1.428 . S
C138 C141 1.260 . S
C138 C142 1.477 . S
C138 H156 0.932 . S
C139 C140 1.384 . S
C139 C141 1.479 . S
C139 H157 0.929 . S
C140 C137 1.424 . S
C140 C139 1.384 . S
C140 H158 0.928 . S
C141 C138 1.260 . S
C141 C139 1.479 . S
C142 C137 1.245 . S
C142 C138 1.477 . S
C142 H159 0.932 . S
C143 U126 2.882 . S
C143 C137 1.428 . S
C143 O146 1.301 . S
C143 O147 1.282 . S
O144 U126 2.441 . S
O144 C130 1.249 . S
O145 U126 2.420 . S
O145 C130 1.202 . S
O146 U126 2.455 . S
O146 C143 1.301 . S
O147 U126 2.449 . S
O147 C143 1.282 . S
H148 C121 0.931 . S
H149 C123 0.929 . S
H150 C124 0.930 . S
H151 C125 0.931 . S
H152 C132 0.932 . S
H153 C133 0.930 . S
H154 C134 0.929 . S
H155 C136 0.930 . S
H156 C138 0.932 . S
H157 C139 0.929 . S
H158 C140 0.928 . S
H159 C142 0.932 . S
C160 C161 1.264 . S
C160 C165 1.479 . S
C160 C170 1.465 . S
C161 C160 1.264 . S
C161 C163 1.339 . S
C161 H188 0.931 . S
C162 C163 1.395 . S
C162 C164 1.320 . S
C163 C161 1.339 . S
C163 C162 1.395 . S
C163 H189 0.929 . S
C164 C162 1.320 . S
C164 C165 1.405 . S
C164 H190 0.930 . S
C165 C160 1.479 . S
C165 C164 1.405 . S
C165 H191 0.931 . S
U166 O167 2.454 . S
U166 O168 2.458 . S
U166 C169 2.984 . S
U166 C170 2.847 . S
U166 C183 2.882 . S
U166 O184 2.441 . S
U166 O185 2.420 . S
U166 O186 2.455 . S
U166 O187 2.449 . S
O167 U166 2.454 . S
O167 C169 1.353 . S
O168 U166 2.458 . S
O168 C169 1.286 . S
C169 U166 2.984 . S
C169 O167 1.353 . S
C169 O168 1.286 . S
C169 C171 1.363 . S
C170 C160 1.465 . S
C170 U166 2.847 . S
C170 O184 1.249 . S
C170 O185 1.202 . S
C171 C169 1.363 . S
C171 C173 1.408 . S
C171 C176 1.342 . S
C172 C173 1.310 . S
C172 C175 1.461 . S
C172 H192 0.932 . S
C173 C171 1.408 . S
C173 C172 1.310 . S
C173 H193 0.930 . S
C174 C175 1.474 . S
C174 C176 1.285 . S
C174 H194 0.929 . S
C175 C172 1.461 . S
C175 C174 1.474 . S
C176 C171 1.342 . S
C176 C174 1.285 . S
C176 H195 0.930 . S
C177 C180 1.424 . S
C177 C182 1.245 . S
C177 C183 1.428 . S
C178 C181 1.260 . S
C178 C182 1.477 . S
C178 H196 0.932 . S
C179 C180 1.384 . S
C179 C181 1.479 . S
C179 H197 0.929 . S
C180 C177 1.424 . S
C180 C179 1.384 . S
C180 H198 0.928 . S
C181 C178 1.260 . S
C181 C179 1.479 . S
C182 C177 1.245 . S
C182 C178 1.477 . S
C182 H199 0.932 . S
C183 U166 2.882 . S
C183 C177 1.428 . S
C183 O186 1.301 . S
C183 O187 1.282 . S
O184 U166 2.441 . S
O184 C170 1.249 . S
O185 U166 2.420 . S
O185 C170 1.202 . S
O186 U166 2.455 . S
O186 C183 1.301 . S
O187 U166 2.449 . S
O187 C183 1.282 . S
H188 C161 0.931 . S
H189 C163 0.929 . S
H190 C164 0.930 . S
H191 C165 0.931 . S
H192 C172 0.932 . S
H193 C173 0.930 . S
H194 C174 0.929 . S
H195 C176 0.930 . S
H196 C178 0.932 . S
H197 C179 0.929 . S
H198 C180 0.928 . S
H199 C182 0.932 . S
C200 C201 1.264 . S
C200 C205 1.479 . S
C200 C210 1.465 . S
C201 C200 1.264 . S
C201 C203 1.339 . S
C201 H228 0.931 . S
C202 C203 1.395 . S
C202 C204 1.320 . S
C203 C201 1.339 . S
C203 C202 1.395 . S
C203 H229 0.929 . S
C204 C202 1.320 . S
C204 C205 1.405 . S
C204 H230 0.930 . S
C205 C200 1.479 . S
C205 C204 1.405 . S
C205 H231 0.931 . S
U206 O207 2.454 . S
U206 O208 2.458 . S
U206 C209 2.984 . S
U206 C210 2.847 . S
U206 C223 2.882 . S
U206 O224 2.441 . S
U206 O225 2.420 . S
U206 O226 2.455 . S
U206 O227 2.449 . S
O207 U206 2.454 . S
O207 C209 1.353 . S
O208 U206 2.458 . S
O208 C209 1.286 . S
C209 U206 2.984 . S
C209 O207 1.353 . S
C209 O208 1.286 . S
C209 C211 1.363 . S
C210 C200 1.465 . S
C210 U206 2.847 . S
C210 O224 1.249 . S
C210 O225 1.202 . S
C211 C209 1.363 . S
C211 C213 1.408 . S
C211 C216 1.342 . S
C212 C213 1.310 . S
C212 C215 1.461 . S
C212 H232 0.932 . S
C213 C211 1.408 . S
C213 C212 1.310 . S
C213 H233 0.930 . S
C214 C215 1.474 . S
C214 C216 1.285 . S
C214 H234 0.929 . S
C215 C212 1.461 . S
C215 C214 1.474 . S
C216 C211 1.342 . S
C216 C214 1.285 . S
C216 H235 0.930 . S
C217 C220 1.424 . S
C217 C222 1.245 . S
C217 C223 1.428 . S
C218 C221 1.260 . S
C218 C222 1.477 . S
C218 H236 0.932 . S
C219 C220 1.384 . S
C219 C221 1.479 . S
C219 H237 0.929 . S
C220 C217 1.424 . S
C220 C219 1.384 . S
C220 H238 0.928 . S
C221 C218 1.260 . S
C221 C219 1.479 . S
C222 C217 1.245 . S
C222 C218 1.477 . S
C222 H239 0.932 . S
C223 U206 2.882 . S
C223 C217 1.428 . S
C223 O226 1.301 . S
C223 O227 1.282 . S
O224 U206 2.441 . S
O224 C210 1.249 . S
O225 U206 2.420 . S
O225 C210 1.202 . S
O226 U206 2.455 . S
O226 C223 1.301 . S
O227 U206 2.449 . S
O227 C223 1.282 . S
H228 C201 0.931 . S
H229 C203 0.929 . S
H230 C204 0.930 . S
H231 C205 0.931 . S
H232 C212 0.932 . S
H233 C213 0.930 . S
H234 C214 0.929 . S
H235 C216 0.930 . S
H236 C218 0.932 . S
H237 C219 0.929 . S
H238 C220 0.928 . S
H239 C222 0.932 . S
C240 C241 1.264 . S
C240 C245 1.479 . S
C240 C250 1.465 . S
C241 C240 1.264 . S
C241 C243 1.339 . S
C241 H268 0.931 . S
C242 C243 1.395 . S
C242 C244 1.320 . S
C243 C241 1.339 . S
C243 C242 1.395 . S
C243 H269 0.929 . S
C244 C242 1.320 . S
C244 C245 1.405 . S
C244 H270 0.930 . S
C245 C240 1.479 . S
C245 C244 1.405 . S
C245 H271 0.931 . S
U246 O247 2.454 . S
U246 O248 2.458 . S
U246 C249 2.984 . S
U246 C250 2.847 . S
U246 C263 2.882 . S
U246 O264 2.441 . S
U246 O265 2.420 . S
U246 O266 2.455 . S
U246 O267 2.449 . S
O247 U246 2.454 . S
O247 C249 1.353 . S
O248 U246 2.458 . S
O248 C249 1.286 . S
C249 U246 2.984 . S
C249 O247 1.353 . S
C249 O248 1.286 . S
C249 C251 1.363 . S
C250 C240 1.465 . S
C250 U246 2.847 . S
C250 O264 1.249 . S
C250 O265 1.202 . S
C251 C249 1.363 . S
C251 C253 1.408 . S
C251 C256 1.342 . S
C252 C253 1.310 . S
C252 C255 1.461 . S
C252 H272 0.932 . S
C253 C251 1.408 . S
C253 C252 1.310 . S
C253 H273 0.930 . S
C254 C255 1.474 . S
C254 C256 1.285 . S
C254 H274 0.929 . S
C255 C252 1.461 . S
C255 C254 1.474 . S
C256 C251 1.342 . S
C256 C254 1.285 . S
C256 H275 0.930 . S
C257 C260 1.424 . S
C257 C262 1.245 . S
C257 C263 1.428 . S
C258 C261 1.260 . S
C258 C262 1.477 . S
C258 H276 0.932 . S
C259 C260 1.384 . S
C259 C261 1.479 . S
C259 H277 0.929 . S
C260 C257 1.424 . S
C260 C259 1.384 . S
C260 H278 0.928 . S
C261 C258 1.260 . S
C261 C259 1.479 . S
C262 C257 1.245 . S
C262 C258 1.477 . S
C262 H279 0.932 . S
C263 U246 2.882 . S
C263 C257 1.428 . S
C263 O266 1.301 . S
C263 O267 1.282 . S
O264 U246 2.441 . S
O264 C250 1.249 . S
O265 U246 2.420 . S
O265 C250 1.202 . S
O266 U246 2.455 . S
O266 C263 1.301 . S
O267 U246 2.449 . S
O267 C263 1.282 . S
H268 C241 0.931 . S
H269 C243 0.929 . S
H270 C244 0.930 . S
H271 C245 0.931 . S
H272 C252 0.932 . S
H273 C253 0.930 . S
H274 C254 0.929 . S
H275 C256 0.930 . S
H276 C258 0.932 . S
H277 C259 0.929 . S
H278 C260 0.928 . S
H279 C262 0.932 . S
C280 C281 1.264 . S
C280 C285 1.479 . S
C280 C290 1.465 . S
C281 C280 1.264 . S
C281 C283 1.339 . S
C281 H308 0.931 . S
C282 C283 1.395 . S
C282 C284 1.320 . S
C283 C281 1.339 . S
C283 C282 1.395 . S
C283 H309 0.929 . S
C284 C282 1.320 . S
C284 C285 1.405 . S
C284 H310 0.930 . S
C285 C280 1.479 . S
C285 C284 1.405 . S
C285 H311 0.931 . S
U286 O287 2.454 . S
U286 O288 2.458 . S
U286 C289 2.984 . S
U286 C290 2.847 . S
U286 C303 2.882 . S
U286 O304 2.441 . S
U286 O305 2.420 . S
U286 O306 2.455 . S
U286 O307 2.449 . S
O287 U286 2.454 . S
O287 C289 1.353 . S
O288 U286 2.458 . S
O288 C289 1.286 . S
C289 U286 2.984 . S
C289 O287 1.353 . S
C289 O288 1.286 . S
C289 C291 1.363 . S
C290 C280 1.465 . S
C290 U286 2.847 . S
C290 O304 1.249 . S
C290 O305 1.202 . S
C291 C289 1.363 . S
C291 C293 1.408 . S
C291 C296 1.342 . S
C292 C293 1.310 . S
C292 C295 1.461 . S
C292 H312 0.932 . S
C293 C291 1.408 . S
C293 C292 1.310 . S
C293 H313 0.930 . S
C294 C295 1.474 . S
C294 C296 1.285 . S
C294 H314 0.929 . S
C295 C292 1.461 . S
C295 C294 1.474 . S
C296 C291 1.342 . S
C296 C294 1.285 . S
C296 H315 0.930 . S
C297 C300 1.424 . S
C297 C302 1.245 . S
C297 C303 1.428 . S
C298 C301 1.260 . S
C298 C302 1.477 . S
C298 H316 0.932 . S
C299 C300 1.384 . S
C299 C301 1.479 . S
C299 H317 0.929 . S
C300 C297 1.424 . S
C300 C299 1.384 . S
C300 H318 0.928 . S
C301 C298 1.260 . S
C301 C299 1.479 . S
C302 C297 1.245 . S
C302 C298 1.477 . S
C302 H319 0.932 . S
C303 U286 2.882 . S
C303 C297 1.428 . S
C303 O306 1.301 . S
C303 O307 1.282 . S
O304 U286 2.441 . S
O304 C290 1.249 . S
O305 U286 2.420 . S
O305 C290 1.202 . S
O306 U286 2.455 . S
O306 C303 1.301 . S
O307 U286 2.449 . S
O307 C303 1.282 . S
H308 C281 0.931 . S
H309 C283 0.929 . S
H310 C284 0.930 . S
H311 C285 0.931 . S
H312 C292 0.932 . S
H313 C293 0.930 . S
H314 C294 0.929 . S
H315 C296 0.930 . S
H316 C298 0.932 . S
H317 C299 0.929 . S
H318 C300 0.928 . S
H319 C302 0.932 . S
H320 C326 0.930 . S
H321 C329 0.931 . S
H322 C331 0.931 . S
H323 C333 0.930 . S
H324 C335 0.930 . S
H325 C337 0.931 . S
C326 H320 0.930 . S
C326 C327 1.380 . S
C326 C328 1.394 1_455 S
C327 C326 1.380 . S
C327 C331 1.382 . S
C328 C326 1.394 1_655 S
C328 C329 1.400 . S
C329 H321 0.931 . S
C329 C328 1.400 . S
C329 C330 1.375 1_655 S
C330 C329 1.375 1_455 S
C330 C331 1.415 . S
C330 C332 1.501 . S
C331 H322 0.931 . S
C331 C327 1.382 . S
C331 C330 1.415 . S
C332 C330 1.501 . S
C332 C333 1.384 . S
C332 C337 1.408 1_455 S
C333 H323 0.930 . S
C333 C332 1.384 . S
C333 C334 1.389 . S
C334 C333 1.389 . S
C334 C335 1.405 . S
C335 H324 0.930 . S
C335 C334 1.405 . S
C335 C336 1.364 1_455 S
C336 C335 1.364 1_655 S
C336 C337 1.400 . S
C337 H325 0.931 . S
C337 C332 1.408 1_655 S
C337 C336 1.400 . S
H338 C344 0.930 . S
H339 C347 0.931 . S
H340 C349 0.931 . S
H341 C351 0.930 . S
H342 C353 0.930 . S
H343 C355 0.931 . S
C344 H338 0.930 . S
C344 C345 1.380 1_455 S
C344 C346 1.394 . S
C345 C344 1.380 1_655 S
C345 C349 1.382 . S
C346 C344 1.394 . S
C346 C347 1.400 . S
C347 H339 0.931 . S
C347 C346 1.400 . S
C347 C348 1.375 . S
C348 C347 1.375 . S
C348 C349 1.415 1_455 S
C348 C350 1.501 . S
C349 H340 0.931 . S
C349 C345 1.382 . S
C349 C348 1.415 1_655 S
C350 C348 1.501 . S
C350 C351 1.384 1_455 S
C350 C355 1.408 . S
C351 H341 0.930 . S
C351 C350 1.384 1_655 S
C351 C352 1.389 . S
C352 C351 1.389 . S
C352 C353 1.405 1_655 S
C353 H342 0.930 . S
C353 C352 1.405 1_455 S
C353 C354 1.364 . S
C354 C353 1.364 . S
C354 C355 1.400 . S
C355 H343 0.931 . S
C355 C350 1.408 . S
C355 C354 1.400 . S
H356 C362 0.930 . S
H357 C365 0.931 . S
H358 C367 0.931 . S
H359 C369 0.930 . S
H360 C371 0.930 . S
H361 C373 0.931 . S
C362 H356 0.930 . S
C362 C363 1.380 . S
C362 C364 1.394 . S
C363 C362 1.380 . S
C363 C367 1.382 . S
C364 C362 1.394 . S
C364 C365 1.400 . S
C365 H357 0.931 . S
C365 C364 1.400 . S
C365 C366 1.375 . S
C366 C365 1.375 . S
C366 C367 1.415 . S
C366 C368 1.501 1_545 S
C367 H358 0.931 . S
C367 C363 1.382 . S
C367 C366 1.415 . S
C368 C366 1.501 1_565 S
C368 C369 1.384 . S
C368 C373 1.408 . S
C369 H359 0.930 . S
C369 C368 1.384 . S
C369 C370 1.389 . S
C370 C369 1.389 . S
C370 C371 1.405 . S
C371 H360 0.930 . S
C371 C370 1.405 . S
C371 C372 1.364 . S
C372 C371 1.364 . S
C372 C373 1.400 . S
C373 H361 0.931 . S
C373 C368 1.408 . S
C373 C372 1.400 . S
H374 C380 0.930 . S
H375 C383 0.931 . S
H376 C385 0.931 . S
H377 C387 0.930 . S
H378 C389 0.930 . S
H379 C391 0.931 . S
C380 H374 0.930 . S
C380 C381 1.380 . S
C380 C382 1.394 . S
C381 C380 1.380 . S
C381 C385 1.382 . S
C382 C380 1.394 . S
C382 C383 1.400 . S
C383 H375 0.931 . S
C383 C382 1.400 . S
C383 C384 1.375 . S
C384 C383 1.375 . S
C384 C385 1.415 . S
C384 C386 1.501 1_554 S
C385 H376 0.931 . S
C385 C381 1.382 . S
C385 C384 1.415 . S
C386 C384 1.501 1_556 S
C386 C387 1.384 . S
C386 C391 1.408 . S
C387 H377 0.930 . S
C387 C386 1.384 . S
C387 C388 1.389 . S
C388 C387 1.389 . S
C388 C389 1.405 . S
C389 H378 0.930 . S
C389 C388 1.405 . S
C389 C390 1.364 . S
C390 C389 1.364 . S
C390 C391 1.400 . S
C391 H379 0.931 . S
C391 C386 1.408 . S
C391 C390 1.400 . S
H392 C398 0.930 . S
H393 C401 0.931 . S
H394 C403 0.931 . S
H395 C405 0.930 . S
H396 C407 0.930 . S
H397 C409 0.931 . S
C398 H392 0.930 . S
C398 C399 1.380 . S
C398 C400 1.394 . S
C399 C398 1.380 . S
C399 C403 1.382 . S
C400 C398 1.394 . S
C400 C401 1.400 . S
C401 H393 0.931 . S
C401 C400 1.400 . S
C401 C402 1.375 . S
C402 C401 1.375 . S
C402 C403 1.415 . S
C402 C404 1.501 1_545 S
C403 H394 0.931 . S
C403 C399 1.382 . S
C403 C402 1.415 . S
C404 C402 1.501 1_565 S
C404 C405 1.384 . S
C404 C409 1.408 . S
C405 H395 0.930 . S
C405 C404 1.384 . S
C405 C406 1.389 . S
C406 C405 1.389 . S
C406 C407 1.405 . S
C407 H396 0.930 . S
C407 C406 1.405 . S
C407 C408 1.364 . S
C408 C407 1.364 . S
C408 C409 1.400 . S
C409 H397 0.931 . S
C409 C404 1.408 . S
C409 C408 1.400 . S
H410 C416 0.930 . S
H411 C419 0.931 . S
H412 C421 0.931 . S
H413 C423 0.930 . S
H414 C425 0.930 . S
H415 C427 0.931 . S
C416 H410 0.930 . S
C416 C417 1.380 . S
C416 C418 1.394 . S
C417 C416 1.380 . S
C417 C421 1.382 . S
C418 C416 1.394 . S
C418 C419 1.400 . S
C419 H411 0.931 . S
C419 C418 1.400 . S
C419 C420 1.375 . S
C420 C419 1.375 . S
C420 C421 1.415 . S
C420 C422 1.501 1_554 S
C421 H412 0.931 . S
C421 C417 1.382 . S
C421 C420 1.415 . S
C422 C420 1.501 1_556 S
C422 C423 1.384 . S
C422 C427 1.408 . S
C423 H413 0.930 . S
C423 C422 1.384 . S
C423 C424 1.389 . S
C424 C423 1.389 . S
C424 C425 1.405 . S
C425 H414 0.930 . S
C425 C424 1.405 . S
C425 C426 1.364 . S
C426 C425 1.364 . S
C426 C427 1.400 . S
C427 H415 0.931 . S
C427 C422 1.408 . S
C427 C426 1.400 . S
C428 C429 1.369 . S
C428 C430 1.419 . S
C428 H432 0.930 . S
C429 C428 1.369 . S
C429 C438 1.429 . S
C430 C428 1.419 . S
C430 C431 1.363 . S
C430 H433 0.929 . S
C431 C430 1.363 . S
C431 C437 1.428 . S
H432 C428 0.930 . S
H433 C430 0.929 . S
S434 N435 1.613 . S
S434 N436 1.610 . S
N435 S434 1.613 . S
N435 C438 1.350 . S
N436 S434 1.610 . S
N436 C437 1.351 . S
C437 C431 1.428 . S
C437 N436 1.351 . S
C437 C438 1.434 . S
C438 C429 1.429 . S
C438 N435 1.350 . S
C438 C437 1.434 . S
C439 C440 1.369 . S
C439 C441 1.419 . S
C439 H443 0.930 . S
C440 C439 1.369 . S
C440 C449 1.429 . S
C441 C439 1.419 . S
C441 C442 1.363 . S
C441 H444 0.929 . S
C442 C441 1.363 . S
C442 C448 1.428 . S
H443 C439 0.930 . S
H444 C441 0.929 . S
S445 N446 1.613 . S
S445 N447 1.610 . S
N446 S445 1.613 . S
N446 C449 1.350 . S
N447 S445 1.610 . S
N447 C448 1.351 . S
C448 C442 1.428 . S
C448 N447 1.351 . S
C448 C449 1.434 . S
C449 C440 1.429 . S
C449 N446 1.350 . S
C449 C448 1.434 . S
C450 C451 1.369 . S
C450 C452 1.419 . S
C450 H454 0.930 . S
C451 C450 1.369 . S
C451 C460 1.429 . S
C452 C450 1.419 . S
C452 C453 1.363 . S
C452 H455 0.929 . S
C453 C452 1.363 . S
C453 C459 1.428 . S
H454 C450 0.930 . S
H455 C452 0.929 . S
S456 N457 1.613 . S
S456 N458 1.610 . S
N457 S456 1.613 . S
N457 C460 1.350 . S
N458 S456 1.610 . S
N458 C459 1.351 . S
C459 C453 1.428 . S
C459 N458 1.351 . S
C459 C460 1.434 . S
C460 C451 1.429 . S
C460 N457 1.350 . S
C460 C459 1.434 . S
C461 C462 1.369 . S
C461 C463 1.419 . S
C461 H465 0.930 . S
C462 C461 1.369 . S
C462 C471 1.429 . S
C463 C461 1.419 . S
C463 C464 1.363 . S
C463 H466 0.929 . S
C464 C463 1.363 . S
C464 C470 1.428 . S
H465 C461 0.930 . S
H466 C463 0.929 . S
S467 N468 1.613 . S
S467 N469 1.610 . S
N468 S467 1.613 . S
N468 C471 1.350 . S
N469 S467 1.610 . S
N469 C470 1.351 . S
C470 C464 1.428 . S
C470 N469 1.351 . S
C470 C471 1.434 . S
C471 C462 1.429 . S
C471 N468 1.350 . S
C471 C470 1.434 . S
C472 C473 1.369 . S
C472 C474 1.419 . S
C472 H476 0.930 . S
C473 C472 1.369 . S
C473 C482 1.429 . S
C474 C472 1.419 . S
C474 C475 1.363 . S
C474 H477 0.929 . S
C475 C474 1.363 . S
C475 C481 1.428 . S
H476 C472 0.930 . S
H477 C474 0.929 . S
S478 N479 1.613 . S
S478 N480 1.610 . S
N479 S478 1.613 . S
N479 C482 1.350 . S
N480 S478 1.610 . S
N480 C481 1.351 . S
C481 C475 1.428 . S
C481 N480 1.351 . S
C481 C482 1.434 . S
C482 C473 1.429 . S
C482 N479 1.350 . S
C482 C481 1.434 . S
C483 C484 1.369 . S
C483 C485 1.419 . S
C483 H487 0.930 . S
C484 C483 1.369 . S
C484 C493 1.429 . S
C485 C483 1.419 . S
C485 C486 1.363 . S
C485 H488 0.929 . S
C486 C485 1.363 . S
C486 C492 1.428 . S
H487 C483 0.930 . S
H488 C485 0.929 . S
S489 N490 1.613 . S
S489 N491 1.610 . S
N490 S489 1.613 . S
N490 C493 1.350 . S
N491 S489 1.610 . S
N491 C492 1.351 . S
C492 C486 1.428 . S
C492 N491 1.351 . S
C492 C493 1.434 . S
C493 C484 1.429 . S
C493 N490 1.350 . S
C493 C492 1.434 . S
C494 C495 1.369 . S
C494 C496 1.419 . S
C494 H498 0.930 . S
C495 C494 1.369 . S
C495 C504 1.429 . S
C496 C494 1.419 . S
C496 C497 1.363 . S
C496 H499 0.929 . S
C497 C496 1.363 . S
C497 C503 1.428 . S
H498 C494 0.930 . S
H499 C496 0.929 . S
S500 N501 1.613 . S
S500 N502 1.610 . S
N501 S500 1.613 . S
N501 C504 1.350 . S
N502 S500 1.610 . S
N502 C503 1.351 . S
C503 C497 1.428 . S
C503 N502 1.351 . S
C503 C504 1.434 . S
C504 C495 1.429 . S
C504 N501 1.350 . S
C504 C503 1.434 . S
C505 C506 1.369 . S
C505 C507 1.419 . S
C505 H509 0.930 . S
C506 C505 1.369 . S
C506 C515 1.429 . S
C507 C505 1.419 . S
C507 C508 1.363 . S
C507 H510 0.929 . S
C508 C507 1.363 . S
C508 C514 1.428 . S
H509 C505 0.930 . S
H510 C507 0.929 . S
S511 N512 1.613 . S
S511 N513 1.610 . S
N512 S511 1.613 . S
N512 C515 1.350 . S
N513 S511 1.610 . S
N513 C514 1.351 . S
C514 C508 1.428 . S
C514 N513 1.351 . S
C514 C515 1.434 . S
C515 C506 1.429 . S
C515 N512 1.350 . S
C515 C514 1.434 . S
C516 C517 1.369 . S
C516 C518 1.419 . S
C516 H520 0.930 . S
C517 C516 1.369 . S
C517 C526 1.429 . S
C518 C516 1.419 . S
C518 C519 1.363 . S
C518 H521 0.929 . S
C519 C518 1.363 . S
C519 C525 1.428 . S
H520 C516 0.930 . S
H521 C518 0.929 . S
S522 N523 1.613 . S
S522 N524 1.610 . S
N523 S522 1.613 . S
N523 C526 1.350 . S
N524 S522 1.610 . S
N524 C525 1.351 . S
C525 C519 1.428 . S
C525 N524 1.351 . S
C525 C526 1.434 . S
C526 C517 1.429 . S
C526 N523 1.350 . S
C526 C525 1.434 . S
C527 C528 1.369 . S
C527 C529 1.419 . S
C527 H531 0.930 . S
C528 C527 1.369 . S
C528 C537 1.429 . S
C529 C527 1.419 . S
C529 C530 1.363 . S
C529 H532 0.929 . S
C530 C529 1.363 . S
C530 C536 1.428 . S
H531 C527 0.930 . S
H532 C529 0.929 . S
S533 N534 1.613 . S
S533 N535 1.610 . S
N534 S533 1.613 . S
N534 C537 1.350 . S
N535 S533 1.610 . S
N535 C536 1.351 . S
C536 C530 1.428 . S
C536 N535 1.351 . S
C536 C537 1.434 . S
C537 C528 1.429 . S
C537 N534 1.350 . S
C537 C536 1.434 . S
C538 C539 1.369 . S
C538 C540 1.419 . S
C538 H542 0.930 . S
C539 C538 1.369 . S
C539 C548 1.429 . S
C540 C538 1.419 . S
C540 C541 1.363 . S
C540 H543 0.929 . S
C541 C540 1.363 . S
C541 C547 1.428 . S
H542 C538 0.930 . S
H543 C540 0.929 . S
S544 N545 1.613 . S
S544 N546 1.610 . S
N545 S544 1.613 . S
N545 C548 1.350 . S
N546 S544 1.610 . S
N546 C547 1.351 . S
C547 C541 1.428 . S
C547 N546 1.351 . S
C547 C548 1.434 . S
C548 C539 1.429 . S
C548 N545 1.350 . S
C548 C547 1.434 . S
C549 C550 1.369 . S
C549 C551 1.419 . S
C549 H553 0.930 . S
C550 C549 1.369 . S
C550 C559 1.429 . S
C551 C549 1.419 . S
C551 C552 1.363 . S
C551 H554 0.929 . S
C552 C551 1.363 . S
C552 C558 1.428 . S
H553 C549 0.930 . S
H554 C551 0.929 . S
S555 N556 1.613 . S
S555 N557 1.610 . S
N556 S555 1.613 . S
N556 C559 1.350 . S
N557 S555 1.610 . S
N557 C558 1.351 . S
C558 C552 1.428 . S
C558 N557 1.351 . S
C558 C559 1.434 . S
C559 C550 1.429 . S
C559 N556 1.350 . S
C559 C558 1.434 . S
C560 C561 1.369 . S
C560 C562 1.419 . S
C560 H564 0.930 . S
C561 C560 1.369 . S
C561 C570 1.429 . S
C562 C560 1.419 . S
C562 C563 1.363 . S
C562 H565 0.929 . S
C563 C562 1.363 . S
C563 C569 1.428 . S
H564 C560 0.930 . S
H565 C562 0.929 . S
S566 N567 1.613 . S
S566 N568 1.610 . S
N567 S566 1.613 . S
N567 C570 1.350 . S
N568 S566 1.610 . S
N568 C569 1.351 . S
C569 C563 1.428 . S
C569 N568 1.351 . S
C569 C570 1.434 . S
C570 C561 1.429 . S
C570 N567 1.350 . S
C570 C569 1.434 . S
C571 C572 1.369 . S
C571 C573 1.419 . S
C571 H575 0.930 . S
C572 C571 1.369 . S
C572 C581 1.429 . S
C573 C571 1.419 . S
C573 C574 1.363 . S
C573 H576 0.929 . S
C574 C573 1.363 . S
C574 C580 1.428 . S
H575 C571 0.930 . S
H576 C573 0.929 . S
S577 N578 1.613 . S
S577 N579 1.610 . S
N578 S577 1.613 . S
N578 C581 1.350 . S
N579 S577 1.610 . S
N579 C580 1.351 . S
C580 C574 1.428 . S
C580 N579 1.351 . S
C580 C581 1.434 . S
C581 C572 1.429 . S
C581 N578 1.350 . S
C581 C580 1.434 . S
C582 C583 1.369 . S
C582 C584 1.419 . S
C582 H586 0.930 . S
C583 C582 1.369 . S
C583 C592 1.429 . S
C584 C582 1.419 . S
C584 C585 1.363 . S
C584 H587 0.929 . S
C585 C584 1.363 . S
C585 C591 1.428 . S
H586 C582 0.930 . S
H587 C584 0.929 . S
S588 N589 1.613 . S
S588 N590 1.610 . S
N589 S588 1.613 . S
N589 C592 1.350 . S
N590 S588 1.610 . S
N590 C591 1.351 . S
C591 C585 1.428 . S
C591 N590 1.351 . S
C591 C592 1.434 . S
C592 C583 1.429 . S
C592 N589 1.350 . S
C592 C591 1.434 . S
C593 C594 1.369 . S
C593 C595 1.419 . S
C593 H597 0.930 . S
C594 C593 1.369 . S
C594 C603 1.429 . S
C595 C593 1.419 . S
C595 C596 1.363 . S
C595 H598 0.929 . S
C596 C595 1.363 . S
C596 C602 1.428 . S
H597 C593 0.930 . S
H598 C595 0.929 . S
S599 N600 1.613 . S
S599 N601 1.610 . S
N600 S599 1.613 . S
N600 C603 1.350 . S
N601 S599 1.610 . S
N601 C602 1.351 . S
C602 C596 1.428 . S
C602 N601 1.351 . S
C602 C603 1.434 . S
C603 C594 1.429 . S
C603 N600 1.350 . S
C603 C602 1.434 . S
C604 C605 1.369 . S
C604 C606 1.419 . S
C604 H608 0.930 . S
C605 C604 1.369 . S
C605 C614 1.429 . S
C606 C604 1.419 . S
C606 C607 1.363 . S
C606 H609 0.929 . S
C607 C606 1.363 . S
C607 C613 1.428 . S
H608 C604 0.930 . S
H609 C606 0.929 . S
S610 N611 1.613 . S
S610 N612 1.610 . S
N611 S610 1.613 . S
N611 C614 1.350 . S
N612 S610 1.610 . S
N612 C613 1.351 . S
C613 C607 1.428 . S
C613 N612 1.351 . S
C613 C614 1.434 . S
C614 C605 1.429 . S
C614 N611 1.350 . S
C614 C613 1.434 . S
C615 C616 1.369 . S
C615 C617 1.419 . S
C615 H619 0.930 . S
C616 C615 1.369 . S
C616 C625 1.429 . S
C617 C615 1.419 . S
C617 C618 1.363 . S
C617 H620 0.929 . S
C618 C617 1.363 . S
C618 C624 1.428 . S
H619 C615 0.930 . S
H620 C617 0.929 . S
S621 N622 1.613 . S
S621 N623 1.610 . S
N622 S621 1.613 . S
N622 C625 1.350 . S
N623 S621 1.610 . S
N623 C624 1.351 . S
C624 C618 1.428 . S
C624 N623 1.351 . S
C624 C625 1.434 . S
C625 C616 1.429 . S
C625 N622 1.350 . S
C625 C624 1.434 . S
C626 C627 1.369 . S
C626 C628 1.419 . S
C626 H630 0.930 . S
C627 C626 1.369 . S
C627 C636 1.429 . S
C628 C626 1.419 . S
C628 C629 1.363 . S
C628 H631 0.929 . S
C629 C628 1.363 . S
C629 C635 1.428 . S
H630 C626 0.930 . S
H631 C628 0.929 . S
S632 N633 1.613 . S
S632 N634 1.610 . S
N633 S632 1.613 . S
N633 C636 1.350 . S
N634 S632 1.610 . S
N634 C635 1.351 . S
C635 C629 1.428 . S
C635 N634 1.351 . S
C635 C636 1.434 . S
C636 C627 1.429 . S
C636 N633 1.350 . S
C636 C635 1.434 . S
C637 C638 1.369 . S
C637 C639 1.419 . S
C637 H641 0.930 . S
C638 C637 1.369 . S
C638 C647 1.429 . S
C639 C637 1.419 . S
C639 C640 1.363 . S
C639 H642 0.929 . S
C640 C639 1.363 . S
C640 C646 1.428 . S
H641 C637 0.930 . S
H642 C639 0.929 . S
S643 N644 1.613 . S
S643 N645 1.610 . S
N644 S643 1.613 . S
N644 C647 1.350 . S
N645 S643 1.610 . S
N645 C646 1.351 . S
C646 C640 1.428 . S
C646 N645 1.351 . S
C646 C647 1.434 . S
C647 C638 1.429 . S
C647 N644 1.350 . S
C647 C646 1.434 . S
C648 C649 1.369 . S
C648 C650 1.419 . S
C648 H652 0.930 . S
C649 C648 1.369 . S
C649 C658 1.429 . S
C650 C648 1.419 . S
C650 C651 1.363 . S
C650 H653 0.929 . S
C651 C650 1.363 . S
C651 C657 1.428 . S
H652 C648 0.930 . S
H653 C650 0.929 . S
S654 N655 1.613 . S
S654 N656 1.610 . S
N655 S654 1.613 . S
N655 C658 1.350 . S
N656 S654 1.610 . S
N656 C657 1.351 . S
C657 C651 1.428 . S
C657 N656 1.351 . S
C657 C658 1.434 . S
C658 C649 1.429 . S
C658 N655 1.350 . S
C658 C657 1.434 . S
C659 C660 1.369 . S
C659 C661 1.419 . S
C659 H663 0.930 . S
C660 C659 1.369 . S
C660 C669 1.429 . S
C661 C659 1.419 . S
C661 C662 1.363 . S
C661 H664 0.929 . S
C662 C661 1.363 . S
C662 C668 1.428 . S
H663 C659 0.930 . S
H664 C661 0.929 . S
S665 N666 1.613 . S
S665 N667 1.610 . S
N666 S665 1.613 . S
N666 C669 1.350 . S
N667 S665 1.610 . S
N667 C668 1.351 . S
C668 C662 1.428 . S
C668 N667 1.351 . S
C668 C669 1.434 . S
C669 C660 1.429 . S
C669 N666 1.350 . S
C669 C668 1.434 . S
C670 C671 1.369 . S
C670 C672 1.419 . S
C670 H674 0.930 . S
C671 C670 1.369 . S
C671 C680 1.429 . S
C672 C670 1.419 . S
C672 C673 1.363 . S
C672 H675 0.929 . S
C673 C672 1.363 . S
C673 C679 1.428 . S
H674 C670 0.930 . S
H675 C672 0.929 . S
S676 N677 1.613 . S
S676 N678 1.610 . S
N677 S676 1.613 . S
N677 C680 1.350 . S
N678 S676 1.610 . S
N678 C679 1.351 . S
C679 C673 1.428 . S
C679 N678 1.351 . S
C679 C680 1.434 . S
C680 C671 1.429 . S
C680 N677 1.350 . S
C680 C679 1.434 . S
C681 C682 1.369 . S
C681 C683 1.419 . S
C681 H685 0.930 . S
C682 C681 1.369 . S
C682 C691 1.429 . S
C683 C681 1.419 . S
C683 C684 1.363 . S
C683 H686 0.929 . S
C684 C683 1.363 . S
C684 C690 1.428 . S
H685 C681 0.930 . S
H686 C683 0.929 . S
S687 N688 1.613 . S
S687 N689 1.610 . S
N688 S687 1.613 . S
N688 C691 1.350 . S
N689 S687 1.610 . S
N689 C690 1.351 . S
C690 C684 1.428 . S
C690 N689 1.351 . S
C690 C691 1.434 . S
C691 C682 1.429 . S
C691 N688 1.350 . S
C691 C690 1.434 . S
C431 C327 1.540 . S
C429 C15 1.572 . S
C442 C346 1.539 . S
C440 C55 1.576 . S
C453 C336 1.588 . S
C451 C101 1.588 . S
C464 C352 1.597 . S
C462 C141 1.644 . S
C475 C363 1.510 . S
C473 C2 1.544 . S
C486 C388 1.470 . S
C484 C61 1.513 . S
C495 C95 1.652 . S
C497 C406 1.563 . S
C508 C426 1.468 . S
C506 C135 1.541 . S
C519 C372 1.510 . S
C517 C42 1.533 . S
C528 C82 1.520 . S
C530 C382 1.478 . S
C541 C400 1.571 . S
C539 C122 1.679 . S
C552 C417 1.468 . S
C550 C21 1.520 . S
C561 C162 1.683 . S
C563 C345 1.617 . S
C574 C328 1.602 . S
C572 C221 1.658 . S
C583 C255 1.630 . S
C585 C354 1.558 . S
C594 C282 1.592 . S
C596 C334 1.570 . S
C607 C408 1.610 . S
C605 C181 1.774 . S
C618 C418 1.493 . S
C616 C202 1.574 . S
C629 C364 1.538 . S
C627 C242 1.639 . S
C638 C301 1.537 . S
C640 C381 1.479 . S
C651 C399 1.602 . S
C649 C215 1.725 . S
C662 C424 1.487 . S
C660 C261 1.577 . S
C673 C370 1.554 . S
C671 C295 1.627 . S
C682 C175 1.566 . S
C684 C390 1.471 . S
