# Generated by pormake.
# Topology dag, (6,3)-cn, num edge types: 1
# Building blocks:
#     Node 0, Type 0, BuildingBlock: OJICUG_clean_sbu_0, # of connection points: 6
#     Node 1, Type 0, BuildingBlock: OJICUG_clean_sbu_0, # of connection points: 6
#     Node 2, Type 0, BuildingBlock: OJICUG_clean_sbu_0, # of connection points: 6
#     Node 3, Type 0, BuildingBlock: OJICUG_clean_sbu_0, # of connection points: 6
#     Node 4, Type 1, BuildingBlock: BETDAH_clean_linker_0, # of connection points: 3
#     Node 5, Type 1, BuildingBlock: BETDAH_clean_linker_0, # of connection points: 3
#     Node 6, Type 1, BuildingBlock: BETDAH_clean_linker_0, # of connection points: 3
#     Node 7, Type 1, BuildingBlock: BETDAH_clean_linker_0, # of connection points: 3
#     Node 8, Type 1, BuildingBlock: BETDAH_clean_linker_0, # of connection points: 3
#     Node 9, Type 1, BuildingBlock: BETDAH_clean_linker_0, # of connection points: 3
#     Node 10, Type 1, BuildingBlock: BETDAH_clean_linker_0, # of connection points: 3
#     Node 11, Type 1, BuildingBlock: BETDAH_clean_linker_0, # of connection points: 3
#     Edge 12, Type (0, 1), BuildingBlock: MIFKUJ_clean_linker_0, # of connection points: 2
#     Edge 13, Type (0, 1), BuildingBlock: MIFKUJ_clean_linker_0, # of connection points: 2
#     Edge 14, Type (0, 1), BuildingBlock: MIFKUJ_clean_linker_0, # of connection points: 2
#     Edge 15, Type (0, 1), BuildingBlock: MIFKUJ_clean_linker_0, # of connection points: 2
#     Edge 16, Type (0, 1), BuildingBlock: MIFKUJ_clean_linker_0, # of connection points: 2
#     Edge 17, Type (0, 1), BuildingBlock: MIFKUJ_clean_linker_0, # of connection points: 2
#     Edge 18, Type (0, 1), BuildingBlock: MIFKUJ_clean_linker_0, # of connection points: 2
#     Edge 19, Type (0, 1), BuildingBlock: MIFKUJ_clean_linker_0, # of connection points: 2
#     Edge 20, Type (0, 1), BuildingBlock: MIFKUJ_clean_linker_0, # of connection points: 2
#     Edge 21, Type (0, 1), BuildingBlock: MIFKUJ_clean_linker_0, # of connection points: 2
#     Edge 22, Type (0, 1), BuildingBlock: MIFKUJ_clean_linker_0, # of connection points: 2
#     Edge 23, Type (0, 1), BuildingBlock: MIFKUJ_clean_linker_0, # of connection points: 2
#     Edge 24, Type (0, 1), BuildingBlock: MIFKUJ_clean_linker_0, # of connection points: 2
#     Edge 25, Type (0, 1), BuildingBlock: MIFKUJ_clean_linker_0, # of connection points: 2
#     Edge 26, Type (0, 1), BuildingBlock: MIFKUJ_clean_linker_0, # of connection points: 2
#     Edge 27, Type (0, 1), BuildingBlock: MIFKUJ_clean_linker_0, # of connection points: 2
#     Edge 28, Type (0, 1), BuildingBlock: MIFKUJ_clean_linker_0, # of connection points: 2
#     Edge 29, Type (0, 1), BuildingBlock: MIFKUJ_clean_linker_0, # of connection points: 2
#     Edge 30, Type (0, 1), BuildingBlock: MIFKUJ_clean_linker_0, # of connection points: 2
#     Edge 31, Type (0, 1), BuildingBlock: MIFKUJ_clean_linker_0, # of connection points: 2
#     Edge 32, Type (0, 1), BuildingBlock: MIFKUJ_clean_linker_0, # of connection points: 2
#     Edge 33, Type (0, 1), BuildingBlock: MIFKUJ_clean_linker_0, # of connection points: 2
#     Edge 34, Type (0, 1), BuildingBlock: MIFKUJ_clean_linker_0, # of connection points: 2
#     Edge 35, Type (0, 1), BuildingBlock: MIFKUJ_clean_linker_0, # of connection points: 2
# Relax obj value: 0.098
# Max RMSD: 0.107
# Mean RMSD: 0.090
data_MOF--net-dag--node1-OJICUG_clean_sbu_0--node2-BETDAH_clean_linker_0--edge1-MIFKUJ_clean_linker_0
_symmetry_space_group_name_H-M    P1
_symmetry_Int_Tables_number       1
_symmetry_cell_setting            triclinic
loop_
_symmetry_equiv_pos_as_xyz
'x, y, z'
_cell_length_a     47.311252
_cell_length_b     50.499915
_cell_length_c     50.216552
_cell_angle_alpha  93.886314
_cell_angle_beta   90.022106
_cell_angle_gamma 90.009603
loop_
_atom_site_label
_atom_site_type_symbol
_atom_site_fract_x
_atom_site_fract_y
_atom_site_fract_z
_atom_type_partial_charge
Sc0 Sc 0.10564 0.87197 0.04821 0.0
Sc1 Sc 0.11666 0.8031 0.04949 0.0
Sc2 Sc 0.17211 0.84809 0.06697 0.0
O3 O 0.13148 0.84102 0.05493 0.0
C4 C 0.164 0.89174 0.02466 0.0
C5 C 0.08891 0.83043 0.00011 0.0
C6 C 0.17912 0.79763 0.02537 0.0
C7 C 0.06323 0.83306 0.0761 0.0
C8 C 0.13876 0.89413 0.10063 0.0
C9 C 0.15459 0.80019 0.10192 0.0
O10 O 0.1372 0.89173 0.02604 0.0
O11 O 0.09716 0.81003 0.0115 0.0
O12 O 0.1888 0.81821 0.03833 0.0
O13 O 0.07076 0.85576 0.06919 0.0
O14 O 0.15992 0.87873 0.09701 0.0
O15 O 0.13463 0.79169 0.08663 0.0
O16 O 0.1178 0.89372 0.08475 0.0
O17 O 0.07777 0.81216 0.07084 0.0
O18 O 0.16965 0.82015 0.09717 0.0
O19 O 0.09084 0.85379 0.01102 0.0
O20 O 0.17948 0.87717 0.03829 0.0
O21 O 0.15369 0.78987 0.02747 0.0
Sc22 Sc 0.68962 0.64772 0.46704 0.0
Sc23 Sc 0.6323 0.69012 0.48508 0.0
Sc24 Sc 0.62467 0.62098 0.48616 0.0
O25 O 0.64889 0.65296 0.47936 0.0
C26 C 0.66063 0.59814 0.43562 0.0
C27 C 0.66813 0.69386 0.43158 0.0
C28 C 0.5811 0.65699 0.45693 0.0
C29 C 0.69498 0.6989 0.50792 0.0
C30 C 0.6834 0.60625 0.51216 0.0
C31 C 0.60421 0.66262 0.53327 0.0
O32 O 0.67932 0.61627 0.43712 0.0
O33 O 0.64791 0.70116 0.44708 0.0
O34 O 0.59084 0.63421 0.46146 0.0
O35 O 0.7051 0.6783 0.49542 0.0
O36 O 0.6565 0.60554 0.51149 0.0
O37 O 0.61473 0.68307 0.52368 0.0
O38 O 0.69808 0.61954 0.49652 0.0
O39 O 0.66931 0.70588 0.5057 0.0
O40 O 0.60533 0.63973 0.5212 0.0
O41 O 0.68516 0.67533 0.43649 0.0
O42 O 0.64057 0.59719 0.45231 0.0
O43 O 0.59314 0.67854 0.46529 0.0
Sc44 Sc 0.87578 0.20983 0.99188 0.0
Sc45 Sc 0.82286 0.16202 0.9747 0.0
Sc46 Sc 0.89164 0.14174 0.99002 0.0
O47 O 0.86338 0.17124 0.9855 0.0
C48 C 0.92975 0.18328 0.96197 0.0
C49 C 0.8374 0.21086 0.93965 0.0
C50 C 0.85657 0.11751 0.93958 0.0
C51 C 0.81327 0.2118 0.01648 0.0
C52 C 0.90755 0.18331 0.03885 0.0
C53 C 0.83655 0.11957 0.01729 0.0
O54 O 0.91573 0.20336 0.97125 0.0
O55 O 0.82281 0.19067 0.94486 0.0
O56 O 0.87799 0.11858 0.95486 0.0
O57 O 0.83784 0.22139 0.0136 0.0
O58 O 0.90891 0.16084 0.02592 0.0
O59 O 0.81918 0.13235 0.00362 0.0
O60 O 0.89505 0.20314 0.02987 0.0
O61 O 0.80516 0.19033 0.00413 0.0
O62 O 0.8632 0.12134 0.01481 0.0
O63 O 0.85748 0.21994 0.95451 0.0
O64 O 0.9227 0.15957 0.96581 0.0
O65 O 0.83518 0.13245 0.94369 0.0
Sc66 Sc 0.38647 0.35663 0.55892 0.0
Sc67 Sc 0.31938 0.3355 0.57723 0.0
Sc68 Sc 0.37197 0.28867 0.55777 0.0
O69 O 0.35921 0.32688 0.56465 0.0
C70 C 0.40108 0.31497 0.50987 0.0
C71 C 0.33066 0.37877 0.53471 0.0
C72 C 0.30837 0.2868 0.53541 0.0
C73 C 0.3532 0.37968 0.61104 0.0
C74 C 0.4265 0.31647 0.58555 0.0
C75 C 0.33635 0.28631 0.61088 0.0
O76 O 0.40452 0.33675 0.5237 0.0
O77 O 0.31477 0.36767 0.55113 0.0
O78 O 0.33223 0.27617 0.53955 0.0
O79 O 0.37202 0.38101 0.59313 0.0
O80 O 0.41363 0.29626 0.5749 0.0
O81 O 0.31969 0.30472 0.60479 0.0
O82 O 0.41764 0.34006 0.58395 0.0
O83 O 0.33366 0.36239 0.60977 0.0
O84 O 0.35767 0.27904 0.59674 0.0
O85 O 0.3572 0.37508 0.53342 0.0
O86 O 0.38718 0.29564 0.51828 0.0
O87 O 0.30129 0.30936 0.54615 0.0
H88 H 0.08038 0.12174 0.24145 0.0
H89 H 0.1133 0.11539 0.32075 0.0
H90 H 0.04765 0.17168 0.3069 0.0
C91 C 0.08119 0.12871 0.26234 0.0
C92 C 0.06256 0.14879 0.27181 0.0
C93 C 0.09945 0.11631 0.27974 0.0
C94 C 0.0995 0.12482 0.307 0.0
C95 C 0.08083 0.14491 0.31669 0.0
C96 C 0.06212 0.15639 0.29918 0.0
N97 N 0.07939 0.15292 0.3442 0.0
C98 C 0.1031 0.16036 0.35918 0.0
H99 H 0.43067 0.59733 0.75019 0.0
H100 H 0.42135 0.68028 0.77389 0.0
H101 H 0.36566 0.62308 0.80588 0.0
C102 C 0.42041 0.61318 0.76221 0.0
C103 C 0.39745 0.60709 0.77841 0.0
C104 C 0.42903 0.63953 0.76 0.0
C105 C 0.4154 0.65974 0.7756 0.0
C106 C 0.39311 0.65402 0.79264 0.0
C107 C 0.38373 0.6276 0.79376 0.0
N108 N 0.37987 0.67576 0.80699 0.0
C109 C 0.36121 0.67417 0.82815 0.0
H110 H 0.80527 0.88704 0.15094 0.0
H111 H 0.75574 0.82081 0.17286 0.0
H112 H 0.71514 0.89515 0.15961 0.0
C113 C 0.7849 0.87893 0.15605 0.0
C114 C 0.76056 0.89464 0.1551 0.0
C115 C 0.78325 0.85243 0.16233 0.0
C116 C 0.757 0.84142 0.16827 0.0
C117 C 0.73234 0.85701 0.16737 0.0
C118 C 0.73421 0.88334 0.16032 0.0
N119 N 0.70538 0.84668 0.17321 0.0
C120 C 0.70155 0.82832 0.19221 0.0
H121 H 0.70069 0.37989 0.63537 0.0
H122 H 0.73573 0.30805 0.66241 0.0
H123 H 0.79088 0.37165 0.64321 0.0
C124 C 0.71901 0.3686 0.64089 0.0
C125 C 0.7462 0.37946 0.63876 0.0
C126 C 0.71499 0.34304 0.64954 0.0
C127 C 0.73859 0.32781 0.65567 0.0
C128 C 0.76597 0.33819 0.6531 0.0
C129 C 0.76967 0.36375 0.64441 0.0
N130 N 0.79009 0.3235 0.6598 0.0
C131 C 0.79153 0.31131 0.68368 0.0
H132 H 0.57156 0.37459 0.30519 0.0
H133 H 0.61294 0.37151 0.22852 0.0
H134 H 0.53999 0.32284 0.24085 0.0
C135 C 0.57359 0.36629 0.2848 0.0
C136 C 0.554 0.34717 0.27525 0.0
C137 C 0.59487 0.37551 0.2682 0.0
C138 C 0.5966 0.3648 0.24159 0.0
C139 C 0.57673 0.34576 0.23174 0.0
C140 C 0.55521 0.33751 0.24849 0.0
N141 N 0.57724 0.33495 0.20494 0.0
C142 C 0.60174 0.33042 0.19007 0.0
H143 H 0.19261 0.12955 0.90019 0.0
H144 H 0.23776 0.20015 0.88316 0.0
H145 H 0.28331 0.13191 0.90686 0.0
C146 C 0.21254 0.13975 0.89796 0.0
C147 C 0.23792 0.12707 0.90391 0.0
C148 C 0.21227 0.16598 0.89041 0.0
C149 C 0.23783 0.1798 0.88875 0.0
C150 C 0.26346 0.16737 0.89473 0.0
C151 C 0.26336 0.14128 0.9026 0.0
N152 N 0.28964 0.18066 0.89273 0.0
C153 C 0.29554 0.19561 0.87125 0.0
H154 H 0.31316 0.61884 0.40887 0.0
H155 H 0.27478 0.67024 0.35448 0.0
H156 H 0.22635 0.60714 0.38602 0.0
C157 C 0.29468 0.62484 0.39802 0.0
C158 C 0.26963 0.6103 0.39931 0.0
C159 C 0.29669 0.64639 0.38199 0.0
C160 C 0.27322 0.65361 0.36693 0.0
C161 C 0.24759 0.63951 0.36876 0.0
C162 C 0.24603 0.61802 0.38491 0.0
N163 N 0.22275 0.64631 0.35503 0.0
C164 C 0.22204 0.66186 0.33333 0.0
H165 H 0.91133 0.88644 0.80057 0.0
H166 H 0.94079 0.8346 0.73503 0.0
H167 H 0.87775 0.89348 0.72166 0.0
C168 C 0.90986 0.87922 0.77979 0.0
C169 C 0.89188 0.89217 0.76256 0.0
C170 C 0.92746 0.85831 0.77025 0.0
C171 C 0.92707 0.85043 0.74291 0.0
C172 C 0.90877 0.86266 0.72555 0.0
C173 C 0.89117 0.88353 0.73534 0.0
N174 N 0.91011 0.85518 0.69793 0.0
C175 C 0.88708 0.84473 0.68366 0.0
H176 H 0.10057 0.93392 0.11156 0.0
H177 H 0.10137 0.96813 0.14798 0.0
H178 H 0.17706 0.93399 0.17918 0.0
H179 H 0.17686 0.8998 0.14216 0.0
H180 H 0.09692 0.96762 0.19933 0.0
H181 H 0.21681 0.98486 0.20998 0.0
H182 H 0.26033 0.97967 0.18302 0.0
H183 H 0.2124 0.98856 0.11154 0.0
H184 H 0.16869 0.99411 0.1381 0.0
H185 H 0.10455 0.06818 0.3013 0.0
H186 H 0.12077 0.02671 0.27817 0.0
H187 H 0.1459 0.06963 0.21063 0.0
H188 H 0.13076 0.11113 0.23402 0.0
H189 H 0.17929 0.02765 0.21419 0.0
H190 H 0.07884 0.0456 0.21551 0.0
H191 H 0.03289 0.05509 0.2373 0.0
H192 H 0.03779 0.98183 0.27579 0.0
H193 H 0.08403 0.97212 0.2545 0.0
C194 C 0.1174 0.93351 0.12615 0.0
C195 C 0.13874 0.91409 0.12377 0.0
C196 C 0.11776 0.95311 0.14708 0.0
C197 C 0.13936 0.9538 0.16628 0.0
C198 C 0.16039 0.93411 0.16441 0.0
C199 C 0.16017 0.91451 0.14327 0.0
C200 C 0.13977 0.97559 0.18774 0.0
C201 C 0.1151 0.9805 0.20278 0.0
C202 C 0.16334 0.99264 0.19216 0.0
C203 C 0.18948 0.98953 0.176 0.0
C204 C 0.2156 0.98574 0.18851 0.0
C205 C 0.24028 0.98274 0.1733 0.0
C206 C 0.23911 0.98367 0.14557 0.0
C207 C 0.21326 0.98772 0.133 0.0
C208 C 0.18853 0.99076 0.14812 0.0
C209 C 0.1146 0.06891 0.28199 0.0
C210 C 0.11591 0.09282 0.26924 0.0
C211 C 0.12365 0.04515 0.26869 0.0
C212 C 0.13387 0.04497 0.24239 0.0
C213 C 0.13791 0.06921 0.23082 0.0
C214 C 0.12905 0.09292 0.24413 0.0
C215 C 0.13633 0.01979 0.22542 0.0
C216 C 0.16145 0.01427 0.21124 0.0
C217 C 0.11285 0.00262 0.22107 0.0
C218 C 0.085 0.0083 0.23371 0.0
C219 C 0.07019 0.03161 0.22876 0.0
C220 C 0.0441 0.03702 0.241 0.0
C221 C 0.03246 0.01911 0.25798 0.0
C222 C 0.04687 0.99571 0.26269 0.0
C223 C 0.07301 0.99025 0.25055 0.0
H224 H 0.01225 0.02332 0.26743 0.0
H225 H 0.25824 0.98133 0.13383 0.0
H226 H 0.60655 0.70356 0.57245 0.0
H227 H 0.57963 0.70741 0.61448 0.0
H228 H 0.54007 0.63192 0.59366 0.0
H229 H 0.56682 0.62768 0.55226 0.0
H230 H 0.50229 0.67603 0.6093 0.0
H231 H 0.58932 0.63222 0.63629 0.0
H232 H 0.64094 0.63069 0.64292 0.0
H233 H 0.63696 0.70204 0.69442 0.0
H234 H 0.58532 0.70416 0.68778 0.0
H235 H 0.43392 0.61697 0.70955 0.0
H236 H 0.46695 0.62767 0.67497 0.0
H237 H 0.5031 0.68969 0.72772 0.0
H238 H 0.47125 0.67742 0.76349 0.0
H239 H 0.54373 0.66493 0.69866 0.0
H240 H 0.45654 0.70512 0.67869 0.0
H241 H 0.40496 0.70812 0.67258 0.0
H242 H 0.40878 0.64793 0.60805 0.0
H243 H 0.46034 0.64428 0.61401 0.0
C244 C 0.59217 0.68778 0.57692 0.0
C245 C 0.58885 0.66531 0.55901 0.0
C246 C 0.5769 0.69 0.60091 0.0
C247 C 0.55789 0.66995 0.60702 0.0
C248 C 0.55462 0.6476 0.58921 0.0
C249 C 0.57005 0.64519 0.56559 0.0
C250 C 0.54067 0.67195 0.63161 0.0
C251 C 0.51127 0.67368 0.62888 0.0
C252 C 0.55259 0.66996 0.6572 0.0
C253 C 0.58355 0.66855 0.66125 0.0
C254 C 0.59949 0.64772 0.64881 0.0
C255 C 0.62874 0.64671 0.65262 0.0
C256 C 0.64223 0.66631 0.669 0.0
C257 C 0.62649 0.6869 0.68168 0.0
C258 C 0.59724 0.68801 0.67791 0.0
C259 C 0.44943 0.6323 0.71417 0.0
C260 C 0.4501 0.64604 0.73944 0.0
C261 C 0.46798 0.63882 0.69415 0.0
C262 C 0.48706 0.65994 0.6985 0.0
C263 C 0.48835 0.67347 0.72385 0.0
C264 C 0.47 0.66658 0.74417 0.0
C265 C 0.50513 0.66774 0.67617 0.0
C266 C 0.53464 0.66798 0.67928 0.0
C267 C 0.49333 0.67197 0.65087 0.0
C268 C 0.46234 0.67439 0.64687 0.0
C269 C 0.44637 0.69245 0.66326 0.0
C270 C 0.41713 0.69426 0.65983 0.0
C271 C 0.4036 0.67822 0.63995 0.0
C272 C 0.4193 0.66037 0.62342 0.0
C273 C 0.44855 0.65845 0.62679 0.0
H274 H 0.38095 0.67963 0.63734 0.0
H275 H 0.66488 0.6655 0.67193 0.0
H276 H 0.78393 0.09707 0.01857 0.0
H277 H 0.76781 0.06332 0.0478 0.0
H278 H 0.84794 0.06737 0.089 0.0
H279 H 0.86442 0.10053 0.05949 0.0
H280 H 0.8355 0.01823 0.075 0.0
H281 H 0.78602 0.09098 0.11885 0.0
H282 H 0.75467 0.13005 0.12247 0.0
H283 H 0.68505 0.082 0.09298 0.0
H284 H 0.71609 0.04268 0.08881 0.0
H285 H 0.79968 0.93151 0.17255 0.0
H286 H 0.80899 0.97433 0.15441 0.0
H287 H 0.73654 0.96354 0.10265 0.0
H288 H 0.72735 0.92034 0.12037 0.0
H289 H 0.74476 0.01723 0.12447 0.0
H290 H 0.7964 0.94537 0.07817 0.0
H291 H 0.8285 0.90683 0.07489 0.0
H292 H 0.89525 0.95474 0.11051 0.0
H293 H 0.86337 0.9935 0.11441 0.0
C294 C 0.79796 0.09102 0.03409 0.0
C295 C 0.82554 0.10123 0.03653 0.0
C296 C 0.78867 0.07182 0.05087 0.0
C297 C 0.80664 0.06289 0.07067 0.0
C298 C 0.83377 0.07387 0.07378 0.0
C299 C 0.84317 0.09279 0.05686 0.0
C300 C 0.79813 0.04056 0.08661 0.0
C301 C 0.8159 0.0183 0.08622 0.0
C302 C 0.77224 0.04035 0.10074 0.0
C303 C 0.75346 0.06392 0.10329 0.0
C304 C 0.76408 0.08878 0.11293 0.0
C305 C 0.74636 0.11096 0.11512 0.0
C306 C 0.71791 0.10852 0.1079 0.0
C307 C 0.70711 0.08386 0.09854 0.0
C308 C 0.72475 0.06161 0.09629 0.0
C309 C 0.78555 0.93838 0.1575 0.0
C310 C 0.76308 0.92239 0.14751 0.0
C311 C 0.7908 0.96288 0.1473 0.0
C312 C 0.77365 0.97184 0.12699 0.0
C313 C 0.74997 0.95689 0.11836 0.0
C314 C 0.74474 0.93226 0.1285 0.0
C315 C 0.78224 0.99524 0.11284 0.0
C316 C 0.76446 0.01749 0.11345 0.0
C317 C 0.80826 0.99561 0.09902 0.0
C318 C 0.82742 0.97228 0.09679 0.0
C319 C 0.81784 0.94764 0.08552 0.0
C320 C 0.83602 0.92577 0.08348 0.0
C321 C 0.86393 0.92837 0.09239 0.0
C322 C 0.87367 0.9528 0.10351 0.0
C323 C 0.85555 0.97471 0.10566 0.0
H324 H 0.87798 0.91143 0.09076 0.0
H325 H 0.70422 0.12572 0.1096 0.0
H326 H 0.45075 0.34896 0.62457 0.0
H327 H 0.49888 0.34673 0.64173 0.0
H328 H 0.5131 0.27426 0.59306 0.0
H329 H 0.46444 0.27589 0.57642 0.0
H330 H 0.54175 0.27368 0.64007 0.0
H331 H 0.53197 0.33274 0.57002 0.0
H332 H 0.51096 0.36949 0.54682 0.0
H333 H 0.53254 0.42423 0.61287 0.0
H334 H 0.55331 0.38771 0.63665 0.0
H335 H 0.69299 0.2968 0.62664 0.0
H336 H 0.6426 0.28548 0.62215 0.0
H337 H 0.62115 0.35548 0.67209 0.0
H338 H 0.6712 0.36687 0.67638 0.0
H339 H 0.5965 0.35473 0.62351 0.0
H340 H 0.60878 0.29391 0.69256 0.0
H341 H 0.63061 0.25622 0.71361 0.0
H342 H 0.6064 0.20378 0.64661 0.0
H343 H 0.58475 0.24123 0.62496 0.0
C344 C 0.46395 0.33229 0.61785 0.0
C345 C 0.45399 0.31282 0.59882 0.0
C346 C 0.49146 0.33104 0.62767 0.0
C347 C 0.5098 0.31068 0.61817 0.0
C348 C 0.49935 0.29021 0.60056 0.0
C349 C 0.47157 0.29121 0.59102 0.0
C350 C 0.54039 0.31241 0.62457 0.0
C351 C 0.55385 0.29127 0.63626 0.0
C352 C 0.55616 0.33538 0.61958 0.0
C353 C 0.54396 0.35745 0.60521 0.0
C354 C 0.53207 0.35259 0.57967 0.0
C355 C 0.52022 0.37337 0.56641 0.0
C356 C 0.52036 0.39917 0.57839 0.0
C357 C 0.53242 0.40423 0.60363 0.0
C358 C 0.54425 0.3835 0.617 0.0
C359 C 0.67749 0.30924 0.6373 0.0
C360 C 0.68581 0.33283 0.65161 0.0
C361 C 0.64876 0.30279 0.63473 0.0
C362 C 0.62814 0.31975 0.64667 0.0
C363 C 0.6367 0.34222 0.6626 0.0
C364 C 0.66525 0.3487 0.66504 0.0
C365 C 0.59781 0.31636 0.63979 0.0
C366 C 0.58445 0.33717 0.62758 0.0
C367 C 0.58244 0.29297 0.644 0.0
C368 C 0.5954 0.27044 0.65702 0.0
C369 C 0.60833 0.27439 0.6822 0.0
C370 C 0.62063 0.25306 0.69426 0.0
C371 C 0.61996 0.22764 0.68143 0.0
C372 C 0.60693 0.22348 0.65652 0.0
C373 C 0.59462 0.24476 0.64435 0.0
H374 H 0.62949 0.21115 0.6908 0.0
H375 H 0.51117 0.41524 0.5681 0.0
H376 H 0.64365 0.54709 0.43838 0.0
H377 H 0.64507 0.51118 0.40332 0.0
H378 H 0.68261 0.56395 0.34936 0.0
H379 H 0.68201 0.60012 0.38485 0.0
H380 H 0.62949 0.5331 0.33198 0.0
H381 H 0.72407 0.52097 0.36441 0.0
H382 H 0.76176 0.51455 0.39732 0.0
H383 H 0.71993 0.44475 0.42173 0.0
H384 H 0.68181 0.45091 0.38926 0.0
H385 H 0.61386 0.41904 0.24312 0.0
H386 H 0.63757 0.45829 0.26395 0.0
H387 H 0.64019 0.42108 0.33884 0.0
H388 H 0.61901 0.38131 0.31767 0.0
H389 H 0.68303 0.44925 0.33759 0.0
H390 H 0.58422 0.46594 0.31785 0.0
H391 H 0.54296 0.46968 0.28825 0.0
H392 H 0.58633 0.52853 0.24581 0.0
H393 H 0.62797 0.5249 0.27501 0.0
C394 C 0.65238 0.55108 0.41911 0.0
C395 C 0.66257 0.57648 0.4143 0.0
C396 C 0.65334 0.53048 0.39917 0.0
C397 C 0.66409 0.5349 0.37385 0.0
C398 C 0.67441 0.56017 0.36887 0.0
C399 C 0.67405 0.58074 0.38911 0.0
C400 C 0.66248 0.5133 0.35242 0.0
C401 C 0.64168 0.51495 0.33271 0.0
C402 C 0.6778 0.48944 0.35397 0.0
C403 C 0.70004 0.48645 0.3744 0.0
C404 C 0.72273 0.50444 0.37701 0.0
C405 C 0.74423 0.50077 0.39551 0.0
C406 C 0.74331 0.47916 0.41147 0.0
C407 C 0.72069 0.46139 0.40925 0.0
C408 C 0.69915 0.46495 0.39079 0.0
C409 C 0.62035 0.41893 0.26379 0.0
C410 C 0.61387 0.39725 0.27889 0.0
C411 C 0.63354 0.44158 0.27581 0.0
C412 C 0.63983 0.44316 0.30327 0.0
C413 C 0.63535 0.42067 0.31772 0.0
C414 C 0.62286 0.39794 0.30563 0.0
C415 C 0.64903 0.46845 0.31783 0.0
C416 C 0.67126 0.46755 0.33631 0.0
C417 C 0.63426 0.49269 0.31584 0.0
C418 C 0.60929 0.4949 0.29834 0.0
C419 C 0.58499 0.47955 0.30209 0.0
C420 C 0.56155 0.48166 0.28541 0.0
C421 C 0.56207 0.49926 0.2651 0.0
C422 C 0.586 0.51485 0.26149 0.0
C423 C 0.60952 0.51278 0.27809 0.0
H424 H 0.5439 0.50087 0.25221 0.0
H425 H 0.76016 0.47612 0.42551 0.0
H426 H 0.96369 0.2274 0.96455 0.0
H427 H 0.01082 0.23142 0.94517 0.0
H428 H 0.00289 0.15269 0.90674 0.0
H429 H 0.95631 0.14826 0.92671 0.0
H430 H 0.05007 0.1562 0.93209 0.0
H431 H 0.00276 0.2108 0.87168 0.0
H432 H 0.97256 0.2475 0.85848 0.0
H433 H 0.02881 0.3041 0.89813 0.0
H434 H 0.05915 0.26771 0.91189 0.0
H435 H 0.17022 0.14822 0.85708 0.0
H436 H 0.12034 0.16036 0.86119 0.0
H437 H 0.14167 0.22371 0.91963 0.0
H438 H 0.19181 0.21158 0.91555 0.0
H439 H 0.08858 0.23051 0.88327 0.0
H440 H 0.13277 0.17372 0.94692 0.0
H441 H 0.16425 0.13651 0.95627 0.0
H442 H 0.11277 0.08312 0.90691 0.0
H443 H 0.08125 0.12015 0.89691 0.0
C444 C 0.97182 0.21114 0.95159 0.0
C445 C 0.95639 0.18742 0.94736 0.0
C446 C 0.99874 0.2135 0.94044 0.0
C447 C 0.01045 0.19237 0.92443 0.0
C448 C 0.99442 0.1692 0.91916 0.0
C449 C 0.96777 0.1667 0.93058 0.0
C450 C 0.04023 0.19326 0.91509 0.0
C451 C 0.05821 0.17236 0.92113 0.0
C452 C 0.05127 0.21458 0.9013 0.0
C453 C 0.03308 0.23651 0.89305 0.0
C454 C 0.00857 0.23106 0.87778 0.0
C455 C 0.99145 0.25181 0.87016 0.0
C456 C 0.99872 0.27811 0.87753 0.0
C457 C 0.02318 0.28372 0.89247 0.0
C458 C 0.04036 0.26304 0.90016 0.0
C459 C 0.16437 0.16545 0.86994 0.0
C460 C 0.18466 0.17877 0.88629 0.0
C461 C 0.13594 0.17242 0.87219 0.0
C462 C 0.12741 0.19269 0.89094 0.0
C463 C 0.14794 0.20809 0.90497 0.0
C464 C 0.17653 0.20113 0.90266 0.0
C465 C 0.09772 0.19341 0.90008 0.0
C466 C 0.08007 0.21451 0.89421 0.0
C467 C 0.08674 0.17223 0.91392 0.0
C468 C 0.10479 0.14972 0.92103 0.0
C469 C 0.12822 0.15406 0.93801 0.0
C470 C 0.14606 0.13301 0.94343 0.0
C471 C 0.14054 0.10748 0.93215 0.0
C472 C 0.11703 0.10291 0.91561 0.0
C473 C 0.09915 0.12391 0.91009 0.0
H474 H 0.15447 0.09124 0.93622 0.0
H475 H 0.98544 0.29414 0.87161 0.0
H476 H 0.34871 0.39126 0.4856 0.0
H477 H 0.33224 0.42778 0.46008 0.0
H478 H 0.26932 0.44774 0.52038 0.0
H479 H 0.28484 0.41042 0.54532 0.0
H480 H 0.2491 0.45741 0.47329 0.0
H481 H 0.33591 0.47846 0.52151 0.0
H482 H 0.38547 0.47043 0.53399 0.0
H483 H 0.41085 0.474 0.4522 0.0
H484 H 0.36138 0.48186 0.43924 0.0
H485 H 0.2896 0.60477 0.44958 0.0
H486 H 0.29418 0.56369 0.47229 0.0
H487 H 0.2539 0.5203 0.40565 0.0
H488 H 0.249 0.56144 0.38298 0.0
H489 H 0.32466 0.52228 0.45614 0.0
H490 H 0.22198 0.4648 0.42753 0.0
H491 H 0.17183 0.47399 0.41831 0.0
H492 H 0.17686 0.54699 0.46717 0.0
H493 H 0.2269 0.53806 0.47697 0.0
C494 C 0.33104 0.40318 0.49315 0.0
C495 C 0.31828 0.39831 0.5176 0.0
C496 C 0.3217 0.42406 0.47861 0.0
C497 C 0.30006 0.44092 0.48871 0.0
C498 C 0.28614 0.43506 0.51228 0.0
C499 C 0.29506 0.41378 0.52654 0.0
C500 C 0.29367 0.46594 0.47612 0.0
C501 C 0.2656 0.47157 0.46943 0.0
C502 C 0.31514 0.48463 0.47154 0.0
C503 C 0.34496 0.48057 0.4794 0.0
C504 C 0.35207 0.47748 0.5062 0.0
C505 C 0.38013 0.47296 0.51336 0.0
C506 C 0.40129 0.47168 0.4939 0.0
C507 C 0.39444 0.47503 0.46726 0.0
C508 C 0.36641 0.47956 0.46001 0.0
C509 C 0.28138 0.58651 0.43996 0.0
C510 C 0.26898 0.58623 0.41453 0.0
C511 C 0.28402 0.56309 0.45292 0.0
C512 C 0.27436 0.53896 0.44068 0.0
C513 C 0.26112 0.53876 0.41564 0.0
C514 C 0.2583 0.56225 0.40273 0.0
C515 C 0.28004 0.51385 0.4533 0.0
C516 C 0.30809 0.50814 0.4599 0.0
C517 C 0.25845 0.49542 0.45825 0.0
C518 C 0.22827 0.50087 0.45274 0.0
C519 C 0.21235 0.48276 0.43638 0.0
C520 C 0.18395 0.48794 0.43104 0.0
C521 C 0.1712 0.5111 0.44208 0.0
C522 C 0.18679 0.5291 0.45855 0.0
C523 C 0.21519 0.52401 0.46396 0.0
H524 H 0.14921 0.51508 0.43791 0.0
H525 H 0.42299 0.46812 0.49946 0.0
H526 H 0.08673 0.78549 0.96576 0.0
H527 H 0.06625 0.78135 0.92075 0.0
H528 H 0.04167 0.86376 0.92874 0.0
H529 H 0.06237 0.86824 0.97301 0.0
H530 H 0.01398 0.78705 0.90305 0.0
H531 H 0.04602 0.89257 0.87244 0.0
H532 H 0.08608 0.92348 0.87954 0.0
H533 H 0.14128 0.85832 0.8932 0.0
H534 H 0.10165 0.82693 0.88581 0.0
H535 H 0.9163 0.84431 0.82071 0.0
H536 H 0.94981 0.82996 0.8536 0.0
H537 H 0.01656 0.82925 0.795 0.0
H538 H 0.98319 0.84482 0.76219 0.0
H539 H 0.03362 0.85469 0.83827 0.0
H540 H 0.99247 0.77065 0.82017 0.0
H541 H 0.95478 0.73738 0.81198 0.0
H542 H 0.92323 0.75437 0.89146 0.0
H543 H 0.96046 0.78803 0.90003 0.0
C544 C 0.07705 0.80273 0.95785 0.0
C545 C 0.07639 0.82724 0.97299 0.0
C546 C 0.06537 0.80032 0.93214 0.0
C547 C 0.05293 0.82237 0.92116 0.0
C548 C 0.05183 0.84664 0.93646 0.0
C549 C 0.06358 0.84911 0.96193 0.0
C550 C 0.04002 0.82028 0.89414 0.0
C551 C 0.01845 0.80161 0.88871 0.0
C552 C 0.0466 0.83866 0.87498 0.0
C553 C 0.07077 0.85738 0.87867 0.0
C554 C 0.06674 0.88478 0.87672 0.0
C555 C 0.08936 0.9024 0.88086 0.0
C556 C 0.11618 0.89287 0.88688 0.0
C557 C 0.12047 0.86567 0.88862 0.0
C558 C 0.09792 0.84796 0.88447 0.0
C559 C 0.93807 0.84093 0.81474 0.0
C560 C 0.94712 0.84594 0.7889 0.0
C561 C 0.95718 0.83236 0.83349 0.0
C562 C 0.98572 0.82822 0.82676 0.0
C563 C 0.99463 0.8322 0.80064 0.0
C564 C 0.97549 0.84092 0.78184 0.0
C565 C 0.00644 0.82244 0.84786 0.0
C566 C 0.02954 0.83965 0.85221 0.0
C567 C 0.0017 0.80229 0.86565 0.0
C568 C 0.97925 0.78197 0.86071 0.0
C569 C 0.9774 0.76742 0.83586 0.0
C570 C 0.95612 0.74847 0.83115 0.0
C571 C 0.93661 0.74378 0.85118 0.0
C572 C 0.93837 0.75801 0.87597 0.0
C573 C 0.9596 0.777 0.88078 0.0
H574 H 0.92015 0.7291 0.84749 0.0
H575 H 0.13361 0.90656 0.89022 0.0
H576 H 0.81811 0.11139 0.89837 0.0
H577 H 0.81764 0.07683 0.86168 0.0
H578 H 0.89359 0.04304 0.89275 0.0
H579 H 0.89468 0.07765 0.92878 0.0
H580 H 0.8977 0.04251 0.84151 0.0
H581 H 0.82573 0.01747 0.90337 0.0
H582 H 0.78207 0.0238 0.92989 0.0
H583 H 0.73425 0.03203 0.85822 0.0
H584 H 0.77772 0.02606 0.8313 0.0
H585 H 0.86147 0.89872 0.80872 0.0
H586 H 0.8476 0.94076 0.83183 0.0
H587 H 0.87331 0.98238 0.7636 0.0
H588 H 0.88827 0.94033 0.74074 0.0
H589 H 0.81482 0.98291 0.82779 0.0
H590 H 0.91039 0.03715 0.78639 0.0
H591 H 0.95647 0.02686 0.76505 0.0
H592 H 0.96093 0.95411 0.80447 0.0
H593 H 0.91512 0.96418 0.82631 0.0
C594 C 0.83479 0.09667 0.8973 0.0
C595 C 0.85639 0.09731 0.91664 0.0
C596 C 0.83443 0.07686 0.87634 0.0
C597 C 0.85544 0.05714 0.87454 0.0
C598 C 0.8772 0.05806 0.89357 0.0
C599 C 0.87773 0.0779 0.91429 0.0
C600 C 0.85481 0.03504 0.85336 0.0
C601 C 0.87941 0.02971 0.83831 0.0
C602 C 0.8311 0.0181 0.84924 0.0
C603 C 0.80499 0.02166 0.86538 0.0
C604 C 0.80593 0.02083 0.8933 0.0
C605 C 0.78122 0.02432 0.90839 0.0
C606 C 0.75542 0.0284 0.89575 0.0
C607 C 0.75426 0.02893 0.86798 0.0
C608 C 0.77892 0.02549 0.8528 0.0
C609 C 0.86363 0.91678 0.79842 0.0
C610 C 0.87649 0.91629 0.77315 0.0
C611 C 0.8555 0.9408 0.81158 0.0
C612 C 0.85999 0.96481 0.7997 0.0
C613 C 0.87009 0.96412 0.77333 0.0
C614 C 0.87841 0.94004 0.76018 0.0
C615 C 0.85783 0.99024 0.81633 0.0
C616 C 0.83279 0.99618 0.8305 0.0
C617 C 0.88144 0.00731 0.82034 0.0
C618 C 0.90919 0.00127 0.80766 0.0
C619 C 0.92127 0.01901 0.79053 0.0
C620 C 0.94733 0.01321 0.77836 0.0
C621 C 0.96156 0.9898 0.78332 0.0
C622 C 0.94985 0.9722 0.80057 0.0
C623 C 0.92384 0.97794 0.81284 0.0
H624 H 0.98171 0.98533 0.77384 0.0
H625 H 0.73631 0.03109 0.90747 0.0
H626 H 0.44094 0.34689 0.48975 0.0
H627 H 0.45839 0.34637 0.44424 0.0
H628 H 0.4059 0.2786 0.42201 0.0
H629 H 0.38843 0.27868 0.46809 0.0
H630 H 0.45788 0.27358 0.39981 0.0
H631 H 0.38598 0.33895 0.40427 0.0
H632 H 0.35957 0.37738 0.42436 0.0
H633 H 0.43234 0.42707 0.41673 0.0
H634 H 0.45939 0.38886 0.39703 0.0
H635 H 0.49638 0.34618 0.26974 0.0
H636 H 0.46148 0.33403 0.30322 0.0
H637 H 0.52928 0.31417 0.35577 0.0
H638 H 0.56392 0.32645 0.32269 0.0
H639 H 0.45612 0.35793 0.35446 0.0
H640 H 0.50955 0.26213 0.3901 0.0
H641 H 0.5346 0.22282 0.37017 0.0
H642 H 0.49393 0.23242 0.29499 0.0
H643 H 0.4683 0.27153 0.31453 0.0
C644 C 0.43305 0.33178 0.47529 0.0
C645 C 0.41305 0.31296 0.48255 0.0
C646 C 0.44298 0.33161 0.4492 0.0
C647 C 0.43291 0.31288 0.42958 0.0
C648 C 0.41371 0.2934 0.43682 0.0
C649 C 0.40382 0.29344 0.46314 0.0
C650 C 0.44292 0.31392 0.40168 0.0
C651 C 0.45723 0.29189 0.38971 0.0
C652 C 0.44123 0.33761 0.38815 0.0
C653 C 0.42477 0.36095 0.39919 0.0
C654 C 0.3964 0.35804 0.40693 0.0
C655 C 0.38131 0.37979 0.41827 0.0
C656 C 0.39427 0.40464 0.42182 0.0
C657 C 0.42232 0.40781 0.41393 0.0
C658 C 0.43753 0.38611 0.40263 0.0
C659 C 0.50367 0.33878 0.28829 0.0
C660 C 0.53273 0.33727 0.29377 0.0
C661 C 0.48381 0.33197 0.30737 0.0
C662 C 0.49281 0.32303 0.33187 0.0
C663 C 0.52186 0.3207 0.33688 0.0
C664 C 0.54161 0.32784 0.31806 0.0
C665 C 0.47238 0.31804 0.35334 0.0
C666 C 0.45614 0.33938 0.36417 0.0
C667 C 0.47193 0.29362 0.36559 0.0
C668 C 0.48709 0.26989 0.35379 0.0
C669 C 0.5058 0.25577 0.36936 0.0
C670 C 0.52014 0.23353 0.35811 0.0
C671 C 0.5159 0.22516 0.33132 0.0
C672 C 0.49727 0.23897 0.31572 0.0
C673 C 0.48286 0.26121 0.32686 0.0
H674 H 0.52703 0.20794 0.32266 0.0
H675 H 0.38257 0.42143 0.43066 0.0
H676 H 0.14123 0.91493 0.98203 0.0
H677 H 0.16178 0.95049 0.95755 0.0
H678 H 0.23763 0.94795 0.00495 0.0
H679 H 0.21741 0.9121 0.02938 0.0
H680 H 0.21033 0.99881 0.00447 0.0
H681 H 0.24259 0.92781 0.94304 0.0
H682 H 0.2363 0.88719 0.91354 0.0
H683 H 0.17804 0.92803 0.86513 0.0
H684 H 0.18354 0.96876 0.89464 0.0
H685 H 0.27072 0.1048 0.94171 0.0
H686 H 0.26626 0.06053 0.95795 0.0
H687 H 0.19817 0.04287 0.90236 0.0
H688 H 0.20388 0.08623 0.88465 0.0
H689 H 0.22704 -2e-05 0.90701 0.0
H690 H 0.18584 0.06574 0.96795 0.0
H691 H 0.18435 0.10691 0.99727 0.0
H692 H 0.2499 0.07689 0.04617 0.0
H693 H 0.25205 0.03567 0.01686 0.0
C694 C 0.16246 0.92166 0.98698 0.0
C695 C 0.17766 0.91084 0.00773 0.0
C696 C 0.1742 0.94186 0.97289 0.0
C697 C 0.2012 0.95173 0.97947 0.0
C698 C 0.21679 0.94046 -0.00042 0.0
C699 C 0.20523 0.91996 0.01343 0.0
C700 C 0.21191 0.97543 0.96703 0.0
C701 C 0.21468 0.99898 0.98326 0.0
C702 C 0.21633 0.97571 0.93922 0.0
C703 C 0.21335 0.95132 0.92119 0.0
C704 C 0.22827 0.92809 0.92623 0.0
C705 C 0.22486 0.90504 0.90949 0.0
C706 C 0.20672 0.90501 0.88752 0.0
C707 C 0.19207 0.92807 0.88217 0.0
C708 C 0.19534 0.95115 0.89889 0.0
C709 C 0.25531 0.09128 0.93242 0.0
C710 C 0.23734 0.09932 0.91216 0.0
C711 C 0.25257 0.06604 0.94194 0.0
C712 C 0.23143 0.04859 0.93181 0.0
C713 C 0.21452 0.05602 0.91063 0.0
C714 C 0.21755 0.08103 0.90079 0.0
C715 C 0.22545 0.02348 0.94447 0.0
C716 C 0.22332 -0.00027 0.92831 0.0
C717 C 0.22064 0.02311 0.97228 0.0
C718 C 0.21936 0.04779 0.99003 0.0
C719 C 0.20009 0.06802 0.98483 0.0
C720 C 0.19911 0.09134 0.00146 0.0
C721 C 0.21709 0.09455 0.02352 0.0
C722 C 0.23603 0.0744 0.02904 0.0
C723 C 0.23714 0.05105 0.01243 0.0
H724 H 0.2163 0.11262 0.03639 0.0
H725 H 0.20406 0.88713 0.87461 0.0
H726 H 0.55057 0.61621 0.43213 0.0
H727 H 0.50406 0.61859 0.41134 0.0
H728 H 0.50287 0.70342 0.42873 0.0
H729 H 0.54959 0.70135 0.449 0.0
H730 H 0.45667 0.63244 0.43422 0.0
H731 H 0.46066 0.73312 0.38453 0.0
H732 H 0.49522 0.76035 0.36177 0.0
H733 H 0.54389 0.69067 0.33919 0.0
H734 H 0.50943 0.66297 0.36147 0.0
H735 H 0.32104 0.67665 0.42197 0.0
H736 H 0.37181 0.68433 0.42733 0.0
H737 H 0.38586 0.65205 0.34673 0.0
H738 H 0.3348 0.64437 0.34132 0.0
H739 H 0.42632 0.6946 0.36724 0.0
H740 H 0.38866 0.60904 0.38658 0.0
H741 H 0.35454 0.57937 0.4068 0.0
H742 H 0.37538 0.61394 0.4848 0.0
H743 H 0.40945 0.644 0.465 0.0
C744 C 0.54061 0.63544 0.43126 0.0
C745 C 0.55386 0.65857 0.44239 0.0
C746 C 0.51397 0.63676 0.41936 0.0
C747 C 0.49997 0.66119 0.41831 0.0
C748 C 0.5134 0.68439 0.42884 0.0
C749 C 0.54012 0.68312 0.4406 0.0
C750 C 0.47048 0.66213 0.40816 0.0
C751 C 0.45022 0.64595 0.41945 0.0
C752 C 0.4619 0.67956 0.38869 0.0
C753 C 0.48256 0.69601 0.3749 0.0
C754 C 0.47866 0.72359 0.3746 0.0
C755 C 0.49825 0.73911 0.3618 0.0
C756 C 0.52178 0.72726 0.34911 0.0
C757 C 0.52571 0.69984 0.34911 0.0
C758 C 0.50617 0.68423 0.36186 0.0
C759 C 0.33483 0.67249 0.40497 0.0
C760 C 0.32418 0.66007 0.38121 0.0
C761 C 0.36381 0.67672 0.40809 0.0
C762 C 0.38254 0.66842 0.38754 0.0
C763 C 0.37168 0.65867 0.36275 0.0
C764 C 0.34256 0.65442 0.35962 0.0
C765 C 0.4129 0.66535 0.39376 0.0
C766 C 0.4331 0.68107 0.38186 0.0
C767 C 0.42168 0.64711 0.41228 0.0
C768 C 0.40142 0.6289 0.4243 0.0
C769 C 0.38583 0.61042 0.40803 0.0
C770 C 0.36657 0.59348 0.41942 0.0
C771 C 0.36276 0.5948 0.44706 0.0
C772 C 0.37832 0.61297 0.46339 0.0
C773 C 0.39766 0.62992 0.4521 0.0
H774 H 0.34781 0.5817 0.45583 0.0
H775 H 0.53693 0.73931 0.33923 0.0
H776 H 0.34391 0.37317 0.66418 0.0
H777 H 0.34891 0.40708 0.70142 0.0
H778 H 0.36701 0.46587 0.6452 0.0
H779 H 0.36402 0.43188 0.60855 0.0
H780 H 0.40221 0.47187 0.68208 0.0
H781 H 0.30017 0.45876 0.68124 0.0
H782 H 0.25706 0.43159 0.68413 0.0
H783 H 0.28091 0.41134 0.76273 0.0
H784 H 0.32432 0.43816 0.76017 0.0
H785 H 0.34576 0.59079 0.76022 0.0
H786 H 0.33419 0.54612 0.74117 0.0
H787 H 0.41322 0.51699 0.77046 0.0
H788 H 0.42511 0.56173 0.78885 0.0
H789 H 0.33061 0.49232 0.75268 0.0
H790 H 0.44627 0.4893 0.72474 0.0
H791 H 0.48614 0.5193 0.71638 0.0
H792 H 0.42836 0.57575 0.68642 0.0
H793 H 0.38823 0.54658 0.69561 0.0
C794 C 0.34883 0.39341 0.65995 0.0
C795 C 0.35377 0.39997 0.6336 0.0
C796 C 0.35151 0.4128 0.68118 0.0
C797 C 0.35816 0.43919 0.67623 0.0
C798 C 0.36217 0.44569 0.64971 0.0
C799 C 0.36037 0.42627 0.62872 0.0
C800 C 0.3622 0.46019 0.69824 0.0
C801 C 0.38654 0.47602 0.69758 0.0
C802 C 0.34194 0.46587 0.71868 0.0
C803 C 0.31558 0.45026 0.72042 0.0
C804 C 0.29625 0.44842 0.69909 0.0
C805 C 0.27177 0.4331 0.70068 0.0
C806 C 0.26628 0.4197 0.72358 0.0
C807 C 0.28518 0.42173 0.74501 0.0
C808 C 0.30972 0.437 0.74351 0.0
C809 C 0.36003 0.57458 0.76361 0.0
C810 C 0.38635 0.57963 0.77587 0.0
C811 C 0.35345 0.54907 0.75267 0.0
C812 C 0.37308 0.52833 0.75397 0.0
C813 C 0.39792 0.53277 0.76894 0.0
C814 C 0.40464 0.55828 0.77958 0.0
C815 C 0.37017 0.504 0.73582 0.0
C816 C 0.34632 0.48761 0.73736 0.0
C817 C 0.39041 0.49803 0.7156 0.0
C818 C 0.41439 0.51594 0.71103 0.0
C819 C 0.44216 0.50825 0.7166 0.0
C820 C 0.46476 0.52518 0.71189 0.0
C821 C 0.45977 0.54961 0.7012 0.0
C822 C 0.43219 0.55714 0.69523 0.0
C823 C 0.40952 0.54049 0.70032 0.0
H824 H 0.47728 0.56261 0.69736 0.0
H825 H 0.24736 0.40778 0.72474 0.0
H826 H 0.045 0.79411 0.10772 0.0
H827 H 0.99857 0.79065 0.12889 0.0
H828 H 0.97237 0.86295 0.09479 0.0
H829 H 0.01882 0.86711 0.07483 0.0
H830 H 0.95362 0.86447 0.1416 0.0
H831 H 0.95341 0.79759 0.06848 0.0
H832 H 0.97064 0.75788 0.04208 0.0
H833 H 0.9584 0.71092 0.10931 0.0
H834 H 0.94139 0.75047 0.13621 0.0
H835 H 0.80266 0.8232 0.11928 0.0
H836 H 0.85212 0.81124 0.1109 0.0
H837 H 0.87266 0.8359 0.19259 0.0
H838 H 0.82319 0.84862 0.20065 0.0
H839 H 0.8957 0.78285 0.12706 0.0
H840 H 0.93062 0.87612 0.19181 0.0
H841 H 0.91046 0.91836 0.21082 0.0
H842 H 0.84884 0.91676 0.14797 0.0
H843 H 0.86892 0.8748 0.12832 0.0
C844 C 0.02933 0.8093 0.10491 0.0
C845 C 0.03559 0.83089 0.08962 0.0
C846 C 0.00275 0.80725 0.1169 0.0
C847 C 0.98174 0.82637 0.11322 0.0
C848 C 0.98817 0.848 0.09813 0.0
C849 C 0.0148 0.85033 0.08664 0.0
C850 C 0.95288 0.82408 0.12466 0.0
C851 C 0.94113 0.84649 0.1386 0.0
C852 C 0.93627 0.80078 0.12054 0.0
C853 C 0.94647 0.77702 0.10443 0.0
C854 C 0.9546 0.77883 0.07768 0.0
C855 C 0.96428 0.75635 0.06263 0.0
C856 C 0.9657 0.73191 0.07404 0.0
C857 C 0.95735 0.72988 0.10052 0.0
C858 C 0.94767 0.75231 0.11567 0.0
C859 C 0.81756 0.82487 0.1357 0.0
C860 C 0.80934 0.8366 0.16061 0.0
C861 C 0.84581 0.81812 0.13092 0.0
C862 C 0.86618 0.82317 0.15098 0.0
C863 C 0.85734 0.83217 0.17675 0.0
C864 C 0.8291 0.83919 0.18144 0.0
C865 C 0.89657 0.82328 0.14365 0.0
C866 C 0.90853 0.80055 0.13053 0.0
C867 C 0.91306 0.84666 0.14746 0.0
C868 C 0.90105 0.87212 0.15885 0.0
C869 C 0.91282 0.88483 0.18202 0.0
C870 C 0.90141 0.90873 0.19288 0.0
C871 C 0.87831 0.92017 0.18065 0.0
C872 C 0.86666 0.90781 0.15746 0.0
C873 C 0.87805 0.88398 0.14645 0.0
H874 H 0.86947 0.93864 0.1891 0.0
H875 H 0.9732 0.71453 0.06235 0.0
H876 H 0.74041 0.59719 0.51619 0.0
H877 H 0.76391 0.56617 0.5443 0.0
H878 H 0.68372 0.54746 0.57926 0.0
H879 H 0.66005 0.57848 0.55156 0.0
H880 H 0.73049 0.54957 0.61614 0.0
H881 H 0.70585 0.51068 0.52478 0.0
H882 H 0.71094 0.51473 0.47626 0.0
H883 H 0.80126 0.51137 0.48377 0.0
H884 H 0.79667 0.50753 0.53234 0.0
H885 H 0.71204 0.42198 0.65215 0.0
H886 H 0.71377 0.46571 0.6355 0.0
H887 H 0.79131 0.44543 0.59362 0.0
H888 H 0.78806 0.40027 0.60806 0.0
H889 H 0.76136 0.46872 0.56225 0.0
H890 H 0.78698 0.4937 0.65056 0.0
H891 H 0.78653 0.49544 0.69973 0.0
H892 H 0.70342 0.52959 0.70063 0.0
H893 H 0.70313 0.52771 0.65146 0.0
C894 C 0.7278 0.58683 0.53017 0.0
C895 C 0.69824 0.58997 0.53124 0.0
C896 C 0.74132 0.5692 0.54627 0.0
C897 C 0.72548 0.55441 0.56364 0.0
C898 C 0.6963 0.55876 0.566 0.0
C899 C 0.68278 0.57632 0.54993 0.0
C900 C 0.73817 0.53189 0.57669 0.0
C901 C 0.73738 0.53184 0.60456 0.0
C902 C 0.74844 0.50936 0.56149 0.0
C903 C 0.75094 0.50898 0.53209 0.0
C904 C 0.72677 0.51061 0.516 0.0
C905 C 0.72956 0.51296 0.48854 0.0
C906 C 0.75641 0.51351 0.47701 0.0
C907 C 0.7805 0.51105 0.49277 0.0
C908 C 0.77781 0.50873 0.52023 0.0
C909 C 0.72938 0.42657 0.63916 0.0
C910 C 0.74959 0.40725 0.63105 0.0
C911 C 0.73074 0.452 0.63016 0.0
C912 C 0.75301 0.45928 0.61369 0.0
C913 C 0.77396 0.44041 0.60641 0.0
C914 C 0.7722 0.41461 0.61489 0.0
C915 C 0.75246 0.48562 0.60208 0.0
C916 C 0.75543 0.48648 0.5743 0.0
C917 C 0.74502 0.50915 0.61757 0.0
C918 C 0.74504 0.5105 0.64724 0.0
C919 C 0.76853 0.50146 0.66121 0.0
C920 C 0.76841 0.50248 0.6891 0.0
C921 C 0.74496 0.51261 0.70329 0.0
C922 C 0.72159 0.52178 0.68961 0.0
C923 C 0.72158 0.5208 0.66172 0.0
H924 H 0.7449 0.51337 0.72488 0.0
H925 H 0.75859 0.51603 0.45591 0.0
H926 H 0.94085 0.14714 0.06173 0.0
H927 H 0.96046 0.14964 0.1065 0.0
H928 H 0.92347 0.22715 0.12241 0.0
H929 H 0.9038 0.22502 0.07705 0.0
H930 H 0.97741 0.22497 0.14139 0.0
H931 H 0.8932 0.17555 0.14907 0.0
H932 H 0.85779 0.14136 0.13567 0.0
H933 H 0.919 0.08016 0.14606 0.0
H934 H 0.95493 0.11397 0.15908 0.0
H935 H 0.00583 0.15848 0.27788 0.0
H936 H 0.97303 0.17401 0.24443 0.0
H937 H 0.04241 0.18073 0.18954 0.0
H938 H 0.07517 0.16592 0.22295 0.0
H939 H 0.96098 0.14939 0.19772 0.0
H940 H 0.03085 0.22751 0.1474 0.0
H941 H 0.06461 0.26305 0.16114 0.0
H942 H 0.02747 0.27025 0.2393 0.0
H943 H 0.99321 0.23504 0.22593 0.0
C944 C 0.9368 0.1648 0.07461 0.0
C945 C 0.92051 0.18581 0.06579 0.0
C946 C 0.94797 0.16613 0.10031 0.0
C947 C 0.94292 0.18833 0.11796 0.0
C948 C 0.9274 0.20974 0.10912 0.0
C949 C 0.9162 0.20848 0.08322 0.0
C950 C 0.95428 0.18877 0.14549 0.0
C951 C 0.97363 0.20864 0.15391 0.0
C952 C 0.94856 0.16789 0.16216 0.0
C953 C 0.92682 0.14736 0.155 0.0
C954 C 0.89916 0.15481 0.14841 0.0
C955 C 0.87899 0.13549 0.14086 0.0
C956 C 0.88615 0.10861 0.13999 0.0
C957 C 0.91347 0.10099 0.14676 0.0
C958 C 0.93374 0.12023 0.15427 0.0
C959 C 0.01411 0.1639 0.25889 0.0
C960 C 0.04302 0.16088 0.25295 0.0
C961 C 0.99536 0.17262 0.23977 0.0
C962 C 0.00527 0.17873 0.21455 0.0
C963 C 0.03429 0.17658 0.20899 0.0
C964 C 0.05297 0.16783 0.228 0.0
C965 C 0.98532 0.18483 0.19299 0.0
C966 C 0.96431 0.16612 0.18564 0.0
C967 C 0.98916 0.20704 0.17759 0.0
C968 C 0.00952 0.2285 0.18567 0.0
C969 C 0.02974 0.23679 0.16746 0.0
C970 C 0.04901 0.25685 0.1752 0.0
C971 C 0.04822 0.26887 0.20109 0.0
C972 C 0.02812 0.26088 0.21927 0.0
C973 C 0.00879 0.24083 0.21163 0.0
H974 H 0.06316 0.28438 0.20704 0.0
H975 H 0.87052 0.09368 0.1341 0.0
H976 H 0.19338 0.81423 0.1407 0.0
H977 H 0.20513 0.79082 0.18004 0.0
H978 H 0.14286 0.73098 0.15774 0.0
H979 H 0.13055 0.75451 0.11831 0.0
H980 H 0.14053 0.74588 0.21044 0.0
H981 H 0.21261 0.71883 0.14718 0.0
H982 H 0.25058 0.72547 0.11468 0.0
H983 H 0.29949 0.76808 0.17558 0.0
H984 H 0.26161 0.76201 0.20838 0.0
H985 H 0.18564 0.64777 0.29439 0.0
H986 H 0.17473 0.67208 0.25506 0.0
H987 H 0.23601 0.73195 0.28042 0.0
H988 H 0.24711 0.70731 0.31983 0.0
H989 H 0.23923 0.71777 0.22663 0.0
H990 H 0.1672 0.74425 0.29001 0.0
H991 H 0.12912 0.7375 0.32237 0.0
H992 H 0.08005 0.69573 0.26104 0.0
H993 H 0.11803 0.70191 0.22837 0.0
C994 C 0.1821 0.7961 0.14406 0.0
C995 C 0.16109 0.78618 0.12618 0.0
C996 C 0.18897 0.78269 0.16656 0.0
C997 C 0.17518 0.75896 0.17157 0.0
C998 C 0.15382 0.74923 0.15413 0.0
C999 C 0.14686 0.76268 0.1316 0.0
C1000 C 0.18305 0.74443 0.19513 0.0
C1001 C 0.16202 0.73939 0.2138 0.0
C1002 C 0.21126 0.73662 0.19982 0.0
C1003 C 0.23414 0.74018 0.18017 0.0
C1004 C 0.23136 0.72979 0.15359 0.0
C1005 C 0.25289 0.73342 0.13513 0.0
C1006 C 0.2774 0.74725 0.14305 0.0
C1007 C 0.28047 0.7574 0.16947 0.0
C1008 C 0.25899 0.75386 0.18801 0.0
C1009 C 0.19683 0.66607 0.29139 0.0
C1010 C 0.21709 0.67589 0.30983 0.0
C1011 C 0.19052 0.67997 0.26908 0.0
C1012 C 0.20428 0.70399 0.26505 0.0
C1013 C 0.22511 0.71349 0.28326 0.0
C1014 C 0.2314 0.69953 0.30567 0.0
C1015 C 0.19668 0.71913 0.24185 0.0
C1016 C 0.21775 0.72429 0.22327 0.0
C1017 C 0.16849 0.72703 0.23721 0.0
C1018 C 0.14558 0.72333 0.2568 0.0
C1019 C 0.14839 0.73344 0.28347 0.0
C1020 C 0.12681 0.72975 0.30186 0.0
C1021 C 0.10222 0.71613 0.29378 0.0
C1022 C 0.09913 0.70624 0.26727 0.0
C1023 C 0.12066 0.70985 0.2488 0.0
H1024 H 0.08553 0.7133 0.30805 0.0
H1025 H 0.29404 0.75004 0.12872 0.0
H1026 H 0.68179 0.74431 0.5386 0.0
H1027 H 0.71257 0.77025 0.56953 0.0
H1028 H 0.78144 0.71653 0.54979 0.0
H1029 H 0.75083 0.69027 0.51907 0.0
H1030 H 0.77736 0.72703 0.60282 0.0
H1031 H 0.77858 0.77776 0.5251 0.0
H1032 H 0.75741 0.8022 0.48917 0.0
H1033 H 0.71922 0.85719 0.54743 0.0
H1034 H 0.73986 0.83285 0.58373 0.0
H1035 H 0.89488 0.80042 0.65242 0.0
H1036 H 0.85984 0.77677 0.62385 0.0
H1037 H 0.79667 0.8347 0.64942 0.0
H1038 H 0.83211 0.85864 0.67789 0.0
H1039 H 0.79486 0.82318 0.59573 0.0
H1040 H 0.79599 0.77363 0.67351 0.0
H1041 H 0.8175 0.74914 0.70922 0.0
H1042 H 0.85139 0.69178 0.65075 0.0
H1043 H 0.83042 0.71613 0.61465 0.0
C1044 C 0.70351 0.73802 0.54072 0.0
C1045 C 0.71379 0.71517 0.52623 0.0
C1046 C 0.72111 0.75295 0.55838 0.0
C1047 C 0.74938 0.74546 0.56182 0.0
C1048 C 0.75969 0.72268 0.54746 0.0
C1049 C 0.74214 0.70774 0.52981 0.0
C1050 C 0.76819 0.76106 0.58068 0.0
C1051 C 0.78143 0.74799 0.60109 0.0
C1052 C 0.77284 0.7886 0.57892 0.0
C1053 C 0.76051 0.80331 0.55712 0.0
C1054 C 0.76548 0.79494 0.53025 0.0
C1055 C 0.75361 0.8088 0.50982 0.0
C1056 C 0.73691 0.83119 0.51601 0.0
C1057 C 0.73212 0.83982 0.54266 0.0
C1058 C 0.74391 0.82601 0.56317 0.0
C1059 C 0.87347 0.808 0.65192 0.0
C1060 C 0.86593 0.83111 0.66724 0.0
C1061 C 0.85346 0.79447 0.63572 0.0
C1062 C 0.82551 0.80375 0.63476 0.0
C1063 C 0.81808 0.82715 0.64994 0.0
C1064 C 0.83819 0.84073 0.66619 0.0
C1065 C 0.80434 0.78904 0.61762 0.0
C1066 C 0.79064 0.80227 0.59757 0.0
C1067 C 0.79926 0.76162 0.61968 0.0
C1068 C 0.81181 0.74684 0.64136 0.0
C1069 C 0.8082 0.7559 0.66825 0.0
C1070 C 0.82027 0.74203 0.68856 0.0
C1071 C 0.83585 0.71895 0.68225 0.0
C1072 C 0.83934 0.70967 0.65561 0.0
C1073 C 0.82733 0.72348 0.63521 0.0
H1074 H 0.84518 0.70824 0.69801 0.0
H1075 H 0.72775 0.84189 0.50017 0.0
H1076 H 0.75698 0.20155 0.02328 0.0
H1077 H 0.72365 0.22569 0.05296 0.0
H1078 H 0.79003 0.279 0.08113 0.0
H1079 H 0.82374 0.2549 0.05148 0.0
H1080 H 0.75684 0.262 0.12224 0.0
H1081 H 0.74327 0.30034 0.03878 0.0
H1082 H 0.73516 0.29995 0.99025 0.0
H1083 H 0.65524 0.2613 0.99929 0.0
H1084 H 0.66305 0.26108 0.04785 0.0
H1085 H 0.65604 0.34813 0.19134 0.0
H1086 H 0.69474 0.33186 0.16173 0.0
H1087 H 0.63717 0.27669 0.12067 0.0
H1088 H 0.59871 0.29325 0.14984 0.0
H1089 H 0.66925 0.29968 0.08575 0.0
H1090 H 0.68472 0.25727 0.16793 0.0
H1091 H 0.69296 0.25602 0.21633 0.0
H1092 H 0.76915 0.3013 0.20957 0.0
H1093 H 0.76115 0.3031 0.16116 0.0
C1094 C 0.76461 0.21838 0.03576 0.0
C1095 C 0.79309 0.22632 0.03483 0.0
C1096 C 0.74545 0.23223 0.05267 0.0
C1097 C 0.75429 0.25432 0.06903 0.0
C1098 C 0.78276 0.26206 0.06858 0.0
C1099 C 0.80196 0.2483 0.05154 0.0
C1100 C 0.73364 0.26921 0.08655 0.0
C1101 C 0.73793 0.27069 0.11427 0.0
C1102 C 0.70879 0.28017 0.07614 0.0
C1103 C 0.70385 0.28051 0.04695 0.0
C1104 C 0.72405 0.29158 0.03041 0.0
C1105 C 0.7195 0.2915 0.00289 0.0
C1106 C 0.69473 0.28056 0.99169 0.0
C1107 C 0.67442 0.26975 0.008 0.0
C1108 C 0.67889 0.26975 0.03553 0.0
C1109 C 0.65184 0.33263 0.17585 0.0
C1110 C 0.62466 0.32184 0.17264 0.0
C1111 C 0.67387 0.32327 0.15906 0.0
C1112 C 0.66893 0.30288 0.13907 0.0
C1113 C 0.64152 0.29245 0.13584 0.0
C1114 C 0.6196 0.30184 0.15252 0.0
C1115 C 0.69209 0.29199 0.12155 0.0
C1116 C 0.68831 0.29129 0.09376 0.0
C1117 C 0.71734 0.28167 0.13192 0.0
C1118 C 0.72216 0.2806 0.161 0.0
C1119 C 0.7031 0.26715 0.17681 0.0
C1120 C 0.70775 0.2663 0.20423 0.0
C1121 C 0.73151 0.27865 0.21604 0.0
C1122 C 0.75072 0.2918 0.20042 0.0
C1123 C 0.74615 0.29273 0.17299 0.0
H1124 H 0.73508 0.27796 0.23727 0.0
H1125 H 0.69126 0.2805 0.97038 0.0
H1126 H 0.2903 0.29246 0.64349 0.0
H1127 H 0.28468 0.27736 0.68821 0.0
H1128 H 0.36601 0.23886 0.68203 0.0
H1129 H 0.3718 0.25365 0.63694 0.0
H1130 H 0.32665 0.20853 0.70525 0.0
H1131 H 0.35953 0.29859 0.71558 0.0
H1132 H 0.35864 0.34629 0.70782 0.0
H1133 H 0.27636 0.3535 0.74357 0.0
H1134 H 0.27655 0.30572 0.7512 0.0
H1135 H 0.34299 0.19033 0.84229 0.0
H1136 H 0.35131 0.2071 0.79822 0.0
H1137 H 0.26934 0.24473 0.80146 0.0
H1138 H 0.26117 0.22806 0.8457 0.0
H1139 H 0.31034 0.27617 0.7801 0.0
H1140 H 0.27633 0.18655 0.76807 0.0
H1141 H 0.27589 0.13865 0.77482 0.0
H1142 H 0.35933 0.13075 0.74162 0.0
H1143 H 0.36043 0.17872 0.73504 0.0
C1144 C 0.30696 0.28059 0.65147 0.0
C1145 C 0.33165 0.27447 0.63668 0.0
C1146 C 0.30373 0.27209 0.67711 0.0
C1147 C 0.3252 0.25751 0.68861 0.0
C1148 C 0.3493 0.25028 0.67354 0.0
C1149 C 0.35253 0.25872 0.64777 0.0
C1150 C 0.32261 0.25025 0.71655 0.0
C1151 C 0.32355 0.22333 0.72168 0.0
C1152 C 0.3179 0.26962 0.73784 0.0
C1153 C 0.31795 0.29849 0.73375 0.0
C1154 C 0.34116 0.3103 0.72164 0.0
C1155 C 0.34079 0.33735 0.71728 0.0
C1156 C 0.31742 0.35288 0.72512 0.0
C1157 C 0.29443 0.34142 0.73747 0.0
C1158 C 0.29467 0.31436 0.74185 0.0
C1159 C 0.32705 0.20258 0.83368 0.0
C1160 C 0.30156 0.20811 0.84705 0.0
C1161 C 0.33171 0.21201 0.80857 0.0
C1162 C 0.31079 0.22689 0.7965 0.0
C1163 C 0.28572 0.2333 0.81046 0.0
C1164 C 0.28106 0.22381 0.8356 0.0
C1165 C 0.31444 0.23445 0.76876 0.0
C1166 C 0.31364 0.26141 0.76368 0.0
C1167 C 0.31921 0.21514 0.74746 0.0
C1168 C 0.31858 0.18628 0.75134 0.0
C1169 C 0.29468 0.17464 0.76242 0.0
C1170 C 0.29429 0.14747 0.76618 0.0
C1171 C 0.3176 0.13168 0.75873 0.0
C1172 C 0.34131 0.14302 0.74743 0.0
C1173 C 0.34182 0.17019 0.74367 0.0
H1174 H 0.31725 0.11064 0.76164 0.0
H1175 H 0.31713 0.37378 0.72166 0.0
H1176 H 0.71193 0.68841 0.39601 0.0
H1177 H 0.71732 0.70972 0.35411 0.0
H1178 H 0.63804 0.75049 0.36795 0.0
H1179 H 0.6323 0.72919 0.40989 0.0
H1180 H 0.64297 0.72812 0.31654 0.0
H1181 H 0.69788 0.78362 0.37838 0.0
H1182 H 0.73433 0.79317 0.41281 0.0
H1183 H 0.79842 0.76222 0.35875 0.0
H1184 H 0.76227 0.75211 0.32411 0.0
H1185 H 0.6558 0.82735 0.22355 0.0
H1186 H 0.64987 0.80178 0.26297 0.0
H1187 H 0.73207 0.76639 0.24891 0.0
H1188 H 0.7381 0.79239 0.20967 0.0
H1189 H 0.72623 0.78438 0.29979 0.0
H1190 H 0.67138 0.73046 0.23714 0.0
H1191 H 0.63477 0.72068 0.20292 0.0
H1192 H 0.57044 0.74836 0.25832 0.0
H1193 H 0.60671 0.75868 0.29277 0.0
C1194 C 0.69562 0.70193 0.39022 0.0
C1195 C 0.67172 0.70716 0.40641 0.0
C1196 C 0.69879 0.71413 0.36629 0.0
C1197 C 0.67817 0.73179 0.35808 0.0
C1198 C 0.65419 0.73691 0.374 0.0
C1199 C 0.65104 0.72482 0.39802 0.0
C1200 C 0.68162 0.74489 0.33282 0.0
C1201 C 0.66098 0.74069 0.31293 0.0
C1202 C 0.70552 0.76068 0.32799 0.0
C1203 C 0.72732 0.76685 0.34875 0.0
C1204 C 0.71971 0.77864 0.37391 0.0
C1205 C 0.74033 0.78419 0.39345 0.0
C1206 C 0.76867 0.77824 0.388 0.0
C1207 C 0.77646 0.76678 0.36296 0.0
C1208 C 0.75592 0.76115 0.34336 0.0
C1209 C 0.67235 0.81379 0.22878 0.0
C1210 C 0.69726 0.81148 0.21378 0.0
C1211 C 0.66895 0.79917 0.25118 0.0
C1212 C 0.69041 0.78196 0.25871 0.0
C1213 C 0.71524 0.77949 0.24339 0.0
C1214 C 0.71863 0.79418 0.221 0.0
C1215 C 0.68752 0.76769 0.28339 0.0
C1216 C 0.70827 0.7717 0.30324 0.0
C1217 C 0.6637 0.75172 0.28817 0.0
C1218 C 0.64182 0.74558 0.26746 0.0
C1219 C 0.64946 0.73468 0.24196 0.0
C1220 C 0.62876 0.729 0.22253 0.0
C1221 C 0.60031 0.73397 0.22842 0.0
C1222 C 0.59249 0.74457 0.25378 0.0
C1223 C 0.61311 0.75031 0.27327 0.0
H1224 H 0.58431 0.72954 0.21336 0.0
H1225 H 0.78459 0.78255 0.40315 0.0
H1226 H 0.86478 0.25303 0.91946 0.0
H1227 H 0.85557 0.27278 0.87719 0.0
H1228 H 0.78748 0.21727 0.86063 0.0
H1229 H 0.79618 0.19764 0.90286 0.0
H1230 H 0.85884 0.25092 0.82731 0.0
H1231 H 0.73613 0.24665 0.82569 0.0
H1232 H 0.6965 0.24968 0.85767 0.0
H1233 H 0.74793 0.29567 0.91405 0.0
H1234 H 0.78772 0.29327 0.88228 0.0
H1235 H 0.80976 0.26288 0.69563 0.0
H1236 H 0.81625 0.24739 0.7406 0.0
H1237 H 0.7855 0.32264 0.77496 0.0
H1238 H 0.77858 0.33782 0.73001 0.0
H1239 H 0.76439 0.28308 0.80104 0.0
H1240 H 0.85592 0.30968 0.77225 0.0
H1241 H 0.89697 0.31038 0.74205 0.0
H1242 H 0.91024 0.22713 0.74971 0.0
H1243 H 0.86901 0.22585 0.77968 0.0
C1244 C 0.84768 0.24514 0.90696 0.0
C1245 C 0.8312 0.22375 0.91464 0.0
C1246 C 0.84253 0.2564 0.88276 0.0
C1247 C 0.82072 0.24661 0.86589 0.0
C1248 C 0.80415 0.22539 0.87354 0.0
C1249 C 0.80925 0.21413 0.89769 0.0
C1250 C 0.8158 0.25797 0.83986 0.0
C1251 C 0.8382 0.258 0.82158 0.0
C1252 C 0.78899 0.26759 0.83259 0.0
C1253 C 0.765 0.26955 0.85167 0.0
C1254 C 0.73894 0.25752 0.84486 0.0
C1255 C 0.71645 0.25911 0.86296 0.0
C1256 C 0.71973 0.27279 0.88791 0.0
C1257 C 0.74546 0.285 0.89476 0.0
C1258 C 0.768 0.2835 0.87672 0.0
C1259 C 0.80419 0.27588 0.71288 0.0
C1260 C 0.79375 0.30141 0.70975 0.0
C1261 C 0.80802 0.26715 0.73847 0.0
C1262 C 0.80169 0.28401 0.76112 0.0
C1263 C 0.79052 0.30933 0.75778 0.0
C1264 C 0.78664 0.31799 0.73222 0.0
C1265 C 0.80729 0.27553 0.78831 0.0
C1266 C 0.78502 0.27602 0.80679 0.0
C1267 C 0.83439 0.26692 0.79599 0.0
C1268 C 0.85922 0.26763 0.77801 0.0
C1269 C 0.86746 0.29148 0.76733 0.0
C1270 C 0.89078 0.29199 0.75028 0.0
C1271 C 0.90616 0.2688 0.74392 0.0
C1272 C 0.89828 0.24507 0.75464 0.0
C1273 C 0.87496 0.24444 0.77167 0.0
H1274 H 0.92421 0.26923 0.73072 0.0
H1275 H 0.70231 0.27396 0.90191 0.0
H1276 H 0.2595 0.30578 0.51457 0.0
H1277 H 0.22606 0.2821 0.48466 0.0
H1278 H 0.27714 0.21139 0.48531 0.0
H1279 H 0.31119 0.23515 0.51476 0.0
H1280 H 0.25953 0.21801 0.43628 0.0
H1281 H 0.21519 0.21826 0.52185 0.0
H1282 H 0.19708 0.23787 0.5648 0.0
H1283 H 0.13917 0.28606 0.52338 0.0
H1284 H 0.15722 0.267 0.48015 0.0
H1285 H 0.14913 0.13499 0.37721 0.0
H1286 H 0.18578 0.15447 0.40742 0.0
H1287 H 0.14332 0.23022 0.40866 0.0
H1288 H 0.10677 0.21068 0.37882 0.0
H1289 H 0.1573 0.21772 0.45819 0.0
H1290 H 0.20363 0.2184 0.37256 0.0
H1291 H 0.22185 0.19827 0.32985 0.0
H1292 H 0.27588 0.14713 0.37207 0.0
H1293 H 0.25769 0.16673 0.41505 0.0
C1294 C 0.26365 0.28517 0.50845 0.0
C1295 C 0.28799 0.27235 0.51725 0.0
C1296 C 0.24442 0.27161 0.49138 0.0
C1297 C 0.24881 0.2448 0.48308 0.0
C1298 C 0.27325 0.23203 0.49152 0.0
C1299 C 0.29267 0.24565 0.50842 0.0
C1300 C 0.22792 0.23025 0.46547 0.0
C1301 C 0.23724 0.21758 0.44128 0.0
C1302 C 0.19876 0.22996 0.47177 0.0
C1303 C 0.18773 0.24135 0.49775 0.0
C1304 C 0.19873 0.23317 0.52189 0.0
C1305 C 0.18845 0.24417 0.54629 0.0
C1306 C 0.16703 0.26324 0.54682 0.0
C1307 C 0.15579 0.2713 0.52294 0.0
C1308 C 0.16601 0.26039 0.49848 0.0
C1309 C 0.1479 0.15581 0.38391 0.0
C1310 C 0.12545 0.17151 0.37587 0.0
C1311 C 0.16877 0.16693 0.40104 0.0
C1312 C 0.16735 0.19386 0.41019 0.0
C1313 C 0.14482 0.20943 0.40191 0.0
C1314 C 0.12406 0.19833 0.38484 0.0
C1315 C 0.18885 0.20589 0.42885 0.0
C1316 C 0.17963 0.21802 0.45329 0.0
C1317 C 0.21807 0.20555 0.42282 0.0
C1318 C 0.22907 0.19382 0.397 0.0
C1319 C 0.21922 0.20271 0.37273 0.0
C1320 C 0.22958 0.19143 0.34847 0.0
C1321 C 0.24994 0.17138 0.34824 0.0
C1322 C 0.26006 0.16263 0.37228 0.0
C1323 C 0.24976 0.17383 0.39659 0.0
H1324 H 0.25794 0.16267 0.32945 0.0
H1325 H 0.15911 0.27173 0.56573 0.0
H1326 H 0.16441 0.76042 0.98562 0.0
H1327 H 0.19559 0.7356 0.95434 0.0
H1328 H 0.26809 0.77416 0.99198 0.0
H1329 H 0.23694 0.79972 0.02284 0.0
H1330 H 0.27346 0.77393 0.9408 0.0
H1331 H 0.24996 0.70748 0.00062 0.0
H1332 H 0.21853 0.67978 0.02632 0.0
H1333 H 0.18119 0.64659 0.95358 0.0
H1334 H 0.21215 0.67437 0.92744 0.0
H1335 H 0.37704 0.69322 0.87684 0.0
H1336 H 0.34575 0.70987 0.91312 0.0
H1337 H 0.27312 0.68368 0.86647 0.0
H1338 H 0.30458 0.66702 0.83005 0.0
H1339 H 0.26824 0.6762 0.92271 0.0
H1340 H 0.29146 0.74459 0.86364 0.0
H1341 H 0.32394 0.77201 0.83871 0.0
H1342 H 0.36315 0.80115 0.91207 0.0
H1343 H 0.33115 0.77358 0.93741 0.0
C1344 C 0.18701 0.76354 0.98738 0.0
C1345 C 0.19816 0.78207 0.0068 0.0
C1346 C 0.20485 0.74919 0.96954 0.0
C1347 C 0.23427 0.75265 0.97103 0.0
C1348 C 0.24547 0.77108 0.99044 0.0
C1349 C 0.22762 0.78569 0.00809 0.0
C1350 C 0.2533 0.73792 0.95164 0.0
C1351 C 0.27258 0.75251 0.93724 0.0
C1352 C 0.25179 0.71 0.94644 0.0
C1353 C 0.2332 0.69319 0.96209 0.0
C1354 C 0.2349 0.69442 0.99011 0.0
C1355 C 0.2172 0.67868 0.00475 0.0
C1356 C 0.19783 0.66148 0.99159 0.0
C1357 C 0.19618 0.65994 0.96375 0.0
C1358 C 0.21382 0.67566 0.949 0.0
C1359 C 0.35442 0.69039 0.87472 0.0
C1360 C 0.34302 0.67879 0.85097 0.0
C1361 C 0.3366 0.7 0.89533 0.0
C1362 C 0.30714 0.69824 0.89234 0.0
C1363 C 0.2958 0.68516 0.86915 0.0
C1364 C 0.31369 0.67564 0.84844 0.0
C1365 C 0.28834 0.71226 0.91225 0.0
C1366 C 0.26911 0.69758 0.92654 0.0
C1367 C 0.28999 0.74009 0.91758 0.0
C1368 C 0.30911 0.75681 0.90239 0.0
C1369 C 0.30716 0.75667 0.87443 0.0
C1370 C 0.32546 0.77227 0.86023 0.0
C1371 C 0.34565 0.78826 0.87379 0.0
C1372 C 0.34753 0.78873 0.90159 0.0
C1373 C 0.32931 0.77313 0.91588 0.0
H1374 H 0.35979 0.80032 0.86277 0.0
H1375 H 0.18413 0.64931 0.00297 0.0
loop_
_geom_bond_atom_site_label_1
_geom_bond_atom_site_label_2
_geom_bond_distance
_geom_bond_site_symmetry_2
_ccdc_geom_bond_type
Sc0 O3 2.025 . S
Sc0 O10 2.105 . S
Sc0 O13 2.105 . S
Sc0 O16 2.105 . S
Sc0 O19 2.103 . S
Sc1 O3 2.025 . S
Sc1 O11 2.070 1_554 S
Sc1 O15 2.105 . S
Sc1 O17 2.105 . S
Sc1 O21 2.105 . S
Sc2 O3 2.025 . S
Sc2 O12 2.105 . S
Sc2 O14 2.105 . S
Sc2 O18 2.105 . S
Sc2 O20 2.105 . S
O3 Sc0 2.025 . S
O3 Sc1 2.025 . S
O3 Sc2 2.025 . S
C4 O10 1.268 . S
C4 O20 1.268 . S
C5 O11 1.288 . S
C5 O19 1.269 1_556 S
C6 O12 1.268 . S
C6 O21 1.268 . S
C7 O13 1.268 . S
C7 O17 1.268 . S
C8 O14 1.268 . S
C8 O16 1.268 . S
C9 O15 1.268 . S
C9 O18 1.268 . S
O10 Sc0 2.105 . S
O10 C4 1.268 . S
O11 Sc1 2.070 1_556 S
O11 C5 1.288 . S
O12 Sc2 2.105 . S
O12 C6 1.268 . S
O13 Sc0 2.105 . S
O13 C7 1.268 . S
O14 Sc2 2.105 . S
O14 C8 1.268 . S
O15 Sc1 2.105 . S
O15 C9 1.268 . S
O16 Sc0 2.105 . S
O16 C8 1.268 . S
O17 Sc1 2.105 . S
O17 C7 1.268 . S
O18 Sc2 2.105 . S
O18 C9 1.268 . S
O19 Sc0 2.103 . S
O19 C5 1.269 1_554 S
O20 Sc2 2.105 . S
O20 C4 1.268 . S
O21 Sc1 2.105 . S
O21 C6 1.268 . S
Sc22 O25 2.025 . S
Sc22 O32 2.105 . S
Sc22 O35 2.105 . S
Sc22 O38 2.105 . S
Sc22 O41 2.105 . S
Sc23 O25 2.025 . S
Sc23 O33 2.105 . S
Sc23 O37 2.105 . S
Sc23 O39 2.105 . S
Sc23 O43 2.105 . S
Sc24 O25 2.025 . S
Sc24 O34 2.105 . S
Sc24 O36 2.105 . S
Sc24 O40 2.105 . S
Sc24 O42 2.105 . S
O25 Sc22 2.025 . S
O25 Sc23 2.025 . S
O25 Sc24 2.025 . S
C26 O32 1.268 . S
C26 O42 1.268 . S
C27 O33 1.268 . S
C27 O41 1.268 . S
C28 O34 1.268 . S
C28 O43 1.268 . S
C29 O35 1.268 . S
C29 O39 1.268 . S
C30 O36 1.268 . S
C30 O38 1.268 . S
C31 O37 1.268 . S
C31 O40 1.268 . S
O32 Sc22 2.105 . S
O32 C26 1.268 . S
O33 Sc23 2.105 . S
O33 C27 1.268 . S
O34 Sc24 2.105 . S
O34 C28 1.268 . S
O35 Sc22 2.105 . S
O35 C29 1.268 . S
O36 Sc24 2.105 . S
O36 C30 1.268 . S
O37 Sc23 2.105 . S
O37 C31 1.268 . S
O38 Sc22 2.105 . S
O38 C30 1.268 . S
O39 Sc23 2.105 . S
O39 C29 1.268 . S
O40 Sc24 2.105 . S
O40 C31 1.268 . S
O41 Sc22 2.105 . S
O41 C27 1.268 . S
O42 Sc24 2.105 . S
O42 C26 1.268 . S
O43 Sc23 2.105 . S
O43 C28 1.268 . S
Sc44 O47 2.025 . S
Sc44 O54 2.105 1_554 S
Sc44 O57 2.105 . S
Sc44 O60 2.105 . S
Sc44 O63 2.105 1_554 S
Sc45 O47 2.025 1_556 S
Sc45 O55 2.105 . S
Sc45 O59 2.105 1_556 S
Sc45 O61 2.105 1_556 S
Sc45 O65 2.105 . S
Sc46 O47 2.025 . S
Sc46 O56 2.105 1_554 S
Sc46 O58 2.105 . S
Sc46 O62 2.105 . S
Sc46 O64 2.105 1_554 S
O47 Sc44 2.025 . S
O47 Sc45 2.025 1_554 S
O47 Sc46 2.025 . S
C48 O54 1.268 . S
C48 O64 1.268 . S
C49 O55 1.268 . S
C49 O63 1.268 . S
C50 O56 1.268 . S
C50 O65 1.268 . S
C51 O57 1.268 . S
C51 O61 1.268 . S
C52 O58 1.268 . S
C52 O60 1.268 . S
C53 O59 1.268 . S
C53 O62 1.268 . S
O54 Sc44 2.105 1_556 S
O54 C48 1.268 . S
O55 Sc45 2.105 . S
O55 C49 1.268 . S
O56 Sc46 2.105 1_556 S
O56 C50 1.268 . S
O57 Sc44 2.105 . S
O57 C51 1.268 . S
O58 Sc46 2.105 . S
O58 C52 1.268 . S
O59 Sc45 2.105 1_554 S
O59 C53 1.268 . S
O60 Sc44 2.105 . S
O60 C52 1.268 . S
O61 Sc45 2.105 1_554 S
O61 C51 1.268 . S
O62 Sc46 2.105 . S
O62 C53 1.268 . S
O63 Sc44 2.105 1_556 S
O63 C49 1.268 . S
O64 Sc46 2.105 1_556 S
O64 C48 1.268 . S
O65 Sc45 2.105 . S
O65 C50 1.268 . S
Sc66 O69 2.025 . S
Sc66 O76 2.105 . S
Sc66 O79 2.105 . S
Sc66 O82 2.105 . S
Sc66 O85 2.105 . S
Sc67 O69 2.025 . S
Sc67 O77 2.105 . S
Sc67 O81 2.105 . S
Sc67 O83 2.105 . S
Sc67 O87 2.105 . S
Sc68 O69 2.025 . S
Sc68 O78 2.105 . S
Sc68 O80 2.105 . S
Sc68 O84 2.105 . S
Sc68 O86 2.105 . S
O69 Sc66 2.025 . S
O69 Sc67 2.025 . S
O69 Sc68 2.025 . S
C70 O76 1.268 . S
C70 O86 1.268 . S
C71 O77 1.268 . S
C71 O85 1.268 . S
C72 O78 1.268 . S
C72 O87 1.268 . S
C73 O79 1.268 . S
C73 O83 1.268 . S
C74 O80 1.268 . S
C74 O82 1.268 . S
C75 O81 1.268 . S
C75 O84 1.268 . S
O76 Sc66 2.105 . S
O76 C70 1.268 . S
O77 Sc67 2.105 . S
O77 C71 1.268 . S
O78 Sc68 2.105 . S
O78 C72 1.268 . S
O79 Sc66 2.105 . S
O79 C73 1.268 . S
O80 Sc68 2.105 . S
O80 C74 1.268 . S
O81 Sc67 2.105 . S
O81 C75 1.268 . S
O82 Sc66 2.105 . S
O82 C74 1.268 . S
O83 Sc67 2.105 . S
O83 C73 1.268 . S
O84 Sc68 2.105 . S
O84 C75 1.268 . S
O85 Sc66 2.105 . S
O85 C71 1.268 . S
O86 Sc68 2.105 . S
O86 C70 1.268 . S
O87 Sc67 2.105 . S
O87 C72 1.268 . S
H88 C91 0.929 . S
H89 C94 0.929 . S
H90 C96 0.930 . S
C91 H88 0.929 . S
C91 C92 1.398 . S
C91 C93 1.396 . S
C92 C91 1.398 . S
C92 C96 1.407 . S
C93 C91 1.396 . S
C93 C94 1.394 . S
C94 H89 0.929 . S
C94 C93 1.394 . S
C94 C95 1.382 . S
C95 C94 1.382 . S
C95 C96 1.392 . S
C95 N97 1.420 . S
C96 H90 0.930 . S
C96 C92 1.407 . S
C96 C95 1.392 . S
N97 C95 1.420 . S
N97 C98 1.244 . S
C98 N97 1.244 . S
H99 C102 0.929 . S
H100 C105 0.929 . S
H101 C107 0.930 . S
C102 H99 0.929 . S
C102 C103 1.398 . S
C102 C104 1.396 . S
C103 C102 1.398 . S
C103 C107 1.407 . S
C104 C102 1.396 . S
C104 C105 1.394 . S
C105 H100 0.929 . S
C105 C104 1.394 . S
C105 C106 1.382 . S
C106 C105 1.382 . S
C106 C107 1.392 . S
C106 N108 1.420 . S
C107 H101 0.930 . S
C107 C103 1.407 . S
C107 C106 1.392 . S
N108 C106 1.420 . S
N108 C109 1.244 . S
C109 N108 1.244 . S
H110 C113 0.929 . S
H111 C116 0.929 . S
H112 C118 0.930 . S
C113 H110 0.929 . S
C113 C114 1.398 . S
C113 C115 1.396 . S
C114 C113 1.398 . S
C114 C118 1.407 . S
C115 C113 1.396 . S
C115 C116 1.394 . S
C116 H111 0.929 . S
C116 C115 1.394 . S
C116 C117 1.382 . S
C117 C116 1.382 . S
C117 C118 1.392 . S
C117 N119 1.420 . S
C118 H112 0.930 . S
C118 C114 1.407 . S
C118 C117 1.392 . S
N119 C117 1.420 . S
N119 C120 1.244 . S
C120 N119 1.244 . S
H121 C124 0.929 . S
H122 C127 0.929 . S
H123 C129 0.930 . S
C124 H121 0.929 . S
C124 C125 1.398 . S
C124 C126 1.396 . S
C125 C124 1.398 . S
C125 C129 1.407 . S
C126 C124 1.396 . S
C126 C127 1.394 . S
C127 H122 0.929 . S
C127 C126 1.394 . S
C127 C128 1.382 . S
C128 C127 1.382 . S
C128 C129 1.392 . S
C128 N130 1.420 . S
C129 H123 0.930 . S
C129 C125 1.407 . S
C129 C128 1.392 . S
N130 C128 1.420 . S
N130 C131 1.244 . S
C131 N130 1.244 . S
H132 C135 0.929 . S
H133 C138 0.929 . S
H134 C140 0.930 . S
C135 H132 0.929 . S
C135 C136 1.398 . S
C135 C137 1.396 . S
C136 C135 1.398 . S
C136 C140 1.407 . S
C137 C135 1.396 . S
C137 C138 1.394 . S
C138 H133 0.929 . S
C138 C137 1.394 . S
C138 C139 1.382 . S
C139 C138 1.382 . S
C139 C140 1.392 . S
C139 N141 1.420 . S
C140 H134 0.930 . S
C140 C136 1.407 . S
C140 C139 1.392 . S
N141 C139 1.420 . S
N141 C142 1.244 . S
C142 N141 1.244 . S
H143 C146 0.929 . S
H144 C149 0.929 . S
H145 C151 0.930 . S
C146 H143 0.929 . S
C146 C147 1.398 . S
C146 C148 1.396 . S
C147 C146 1.398 . S
C147 C151 1.407 . S
C148 C146 1.396 . S
C148 C149 1.394 . S
C149 H144 0.929 . S
C149 C148 1.394 . S
C149 C150 1.382 . S
C150 C149 1.382 . S
C150 C151 1.392 . S
C150 N152 1.420 . S
C151 H145 0.930 . S
C151 C147 1.407 . S
C151 C150 1.392 . S
N152 C150 1.420 . S
N152 C153 1.244 . S
C153 N152 1.244 . S
H154 C157 0.929 . S
H155 C160 0.929 . S
H156 C162 0.930 . S
C157 H154 0.929 . S
C157 C158 1.398 . S
C157 C159 1.396 . S
C158 C157 1.398 . S
C158 C162 1.407 . S
C159 C157 1.396 . S
C159 C160 1.394 . S
C160 H155 0.929 . S
C160 C159 1.394 . S
C160 C161 1.382 . S
C161 C160 1.382 . S
C161 C162 1.392 . S
C161 N163 1.420 . S
C162 H156 0.930 . S
C162 C158 1.407 . S
C162 C161 1.392 . S
N163 C161 1.420 . S
N163 C164 1.244 . S
C164 N163 1.244 . S
H165 C168 0.929 . S
H166 C171 0.929 . S
H167 C173 0.930 . S
C168 H165 0.929 . S
C168 C169 1.398 . S
C168 C170 1.396 . S
C169 C168 1.398 . S
C169 C173 1.407 . S
C170 C168 1.396 . S
C170 C171 1.394 . S
C171 H166 0.929 . S
C171 C170 1.394 . S
C171 C172 1.382 . S
C172 C171 1.382 . S
C172 C173 1.392 . S
C172 N174 1.420 . S
C173 H167 0.930 . S
C173 C169 1.407 . S
C173 C172 1.392 . S
N174 C172 1.420 . S
N174 C175 1.244 . S
C175 N174 1.244 . S
H176 C194 0.951 . S
H177 C196 0.951 . S
H178 C198 0.950 . S
H179 C199 0.950 . S
H180 C201 0.950 . S
H181 C204 0.950 . S
H182 C205 0.950 . S
H183 C207 0.950 . S
H184 C208 0.950 . S
H185 C209 0.951 . S
H186 C211 0.951 . S
H187 C213 0.950 . S
H188 C214 0.950 . S
H189 C216 0.950 . S
H190 C219 0.950 . S
H191 C220 0.950 . S
H192 C222 0.950 . S
H193 C223 0.950 . S
C194 H176 0.951 . S
C194 C195 1.366 . S
C194 C196 1.388 . S
C195 C194 1.366 . S
C195 C199 1.385 . S
C196 H177 0.951 . S
C196 C194 1.388 . S
C196 C197 1.366 . S
C197 C196 1.366 . S
C197 C198 1.414 . S
C197 C200 1.499 . S
C198 H178 0.950 . S
C198 C197 1.414 . S
C198 C199 1.374 . S
C199 H179 0.950 . S
C199 C195 1.385 . S
C199 C198 1.374 . S
C200 C197 1.499 . S
C200 C201 1.373 . S
C200 C202 1.389 1_565 S
C201 H180 0.950 . S
C201 C200 1.373 . S
C201 C217 1.377 1_565 S
C202 C200 1.389 1_545 S
C202 C203 1.524 . S
C202 C216 1.377 . S
C203 C202 1.524 . S
C203 C204 1.397 1_545 S
C203 C208 1.363 . S
C204 H181 0.950 . S
C204 C203 1.397 1_565 S
C204 C205 1.334 . S
C205 H182 0.950 . S
C205 C204 1.334 . S
C205 C206 1.287 1_565 S
C206 C205 1.287 1_545 S
C206 C207 1.524 . S
C206 H225 0.913 . S
C207 H183 0.950 . S
C207 C206 1.524 . S
C207 C208 1.415 . S
C208 H184 0.950 . S
C208 C203 1.363 . S
C208 C207 1.415 . S
C209 H185 0.951 . S
C209 C210 1.366 . S
C209 C211 1.388 . S
C210 C209 1.366 . S
C210 C214 1.385 . S
C211 H186 0.951 . S
C211 C209 1.388 . S
C211 C212 1.366 . S
C212 C211 1.366 . S
C212 C213 1.414 . S
C212 C215 1.499 . S
C213 H187 0.950 . S
C213 C212 1.414 . S
C213 C214 1.374 . S
C214 H188 0.950 . S
C214 C210 1.385 . S
C214 C213 1.374 . S
C215 C212 1.499 . S
C215 C216 1.373 . S
C215 C217 1.389 . S
C216 H189 0.950 . S
C216 C202 1.377 . S
C216 C215 1.373 . S
C217 C201 1.377 1_545 S
C217 C215 1.389 . S
C217 C218 1.524 . S
C218 C217 1.524 . S
C218 C219 1.397 . S
C218 C223 1.363 1_545 S
C219 H190 0.950 . S
C219 C218 1.397 . S
C219 C220 1.334 . S
C220 H191 0.950 . S
C220 C219 1.334 . S
C220 C221 1.287 . S
C221 C220 1.287 . S
C221 C222 1.524 1_545 S
C221 H224 0.999 . S
C222 H192 0.950 . S
C222 C221 1.524 1_565 S
C222 C223 1.415 . S
C223 H193 0.950 . S
C223 C218 1.363 1_565 S
C223 C222 1.415 . S
H224 C221 0.999 . S
H225 C206 0.913 . S
H226 C244 0.951 . S
H227 C246 0.951 . S
H228 C248 0.950 . S
H229 C249 0.950 . S
H230 C251 0.950 . S
H231 C254 0.950 . S
H232 C255 0.950 . S
H233 C257 0.950 . S
H234 C258 0.950 . S
H235 C259 0.951 . S
H236 C261 0.951 . S
H237 C263 0.950 . S
H238 C264 0.950 . S
H239 C266 0.950 . S
H240 C269 0.950 . S
H241 C270 0.950 . S
H242 C272 0.950 . S
H243 C273 0.950 . S
C244 H226 0.951 . S
C244 C245 1.366 . S
C244 C246 1.388 . S
C245 C244 1.366 . S
C245 C249 1.385 . S
C246 H227 0.951 . S
C246 C244 1.388 . S
C246 C247 1.366 . S
C247 C246 1.366 . S
C247 C248 1.414 . S
C247 C250 1.499 . S
C248 H228 0.950 . S
C248 C247 1.414 . S
C248 C249 1.374 . S
C249 H229 0.950 . S
C249 C245 1.385 . S
C249 C248 1.374 . S
C250 C247 1.499 . S
C250 C251 1.373 . S
C250 C252 1.389 . S
C251 H230 0.950 . S
C251 C250 1.373 . S
C251 C267 1.377 . S
C252 C250 1.389 . S
C252 C253 1.524 . S
C252 C266 1.377 . S
C253 C252 1.524 . S
C253 C254 1.397 . S
C253 C258 1.363 . S
C254 H231 0.950 . S
C254 C253 1.397 . S
C254 C255 1.334 . S
C255 H232 0.950 . S
C255 C254 1.334 . S
C255 C256 1.287 . S
C256 C255 1.287 . S
C256 C257 1.524 . S
C256 H275 0.913 . S
C257 H233 0.950 . S
C257 C256 1.524 . S
C257 C258 1.415 . S
C258 H234 0.950 . S
C258 C253 1.363 . S
C258 C257 1.415 . S
C259 H235 0.951 . S
C259 C260 1.366 . S
C259 C261 1.388 . S
C260 C259 1.366 . S
C260 C264 1.385 . S
C261 H236 0.951 . S
C261 C259 1.388 . S
C261 C262 1.366 . S
C262 C261 1.366 . S
C262 C263 1.414 . S
C262 C265 1.499 . S
C263 H237 0.950 . S
C263 C262 1.414 . S
C263 C264 1.374 . S
C264 H238 0.950 . S
C264 C260 1.385 . S
C264 C263 1.374 . S
C265 C262 1.499 . S
C265 C266 1.373 . S
C265 C267 1.389 . S
C266 H239 0.950 . S
C266 C252 1.377 . S
C266 C265 1.373 . S
C267 C251 1.377 . S
C267 C265 1.389 . S
C267 C268 1.524 . S
C268 C267 1.524 . S
C268 C269 1.397 . S
C268 C273 1.363 . S
C269 H240 0.950 . S
C269 C268 1.397 . S
C269 C270 1.334 . S
C270 H241 0.950 . S
C270 C269 1.334 . S
C270 C271 1.287 . S
C271 C270 1.287 . S
C271 C272 1.524 . S
C271 H274 0.999 . S
C272 H242 0.950 . S
C272 C271 1.524 . S
C272 C273 1.415 . S
C273 H243 0.950 . S
C273 C268 1.363 . S
C273 C272 1.415 . S
H274 C271 0.999 . S
H275 C256 0.913 . S
H276 C294 0.951 . S
H277 C296 0.951 . S
H278 C298 0.950 . S
H279 C299 0.950 . S
H280 C301 0.950 . S
H281 C304 0.950 . S
H282 C305 0.950 . S
H283 C307 0.950 . S
H284 C308 0.950 . S
H285 C309 0.951 . S
H286 C311 0.951 . S
H287 C313 0.950 . S
H288 C314 0.950 . S
H289 C316 0.950 . S
H290 C319 0.950 . S
H291 C320 0.950 . S
H292 C322 0.950 . S
H293 C323 0.950 . S
C294 H276 0.951 . S
C294 C295 1.366 . S
C294 C296 1.388 . S
C295 C294 1.366 . S
C295 C299 1.385 . S
C296 H277 0.951 . S
C296 C294 1.388 . S
C296 C297 1.366 . S
C297 C296 1.366 . S
C297 C298 1.414 . S
C297 C300 1.499 . S
C298 H278 0.950 . S
C298 C297 1.414 . S
C298 C299 1.374 . S
C299 H279 0.950 . S
C299 C295 1.385 . S
C299 C298 1.374 . S
C300 C297 1.499 . S
C300 C301 1.373 1_545 S
C300 C302 1.389 . S
C301 H280 0.950 . S
C301 C300 1.373 1_565 S
C301 C317 1.377 . S
C302 C300 1.389 . S
C302 C303 1.524 . S
C302 C316 1.377 1_545 S
C303 C302 1.524 . S
C303 C304 1.397 . S
C303 C308 1.363 . S
C304 H281 0.950 . S
C304 C303 1.397 . S
C304 C305 1.334 . S
C305 H282 0.950 . S
C305 C304 1.334 . S
C305 C306 1.287 . S
C306 C305 1.287 . S
C306 C307 1.524 . S
C306 H325 0.913 . S
C307 H283 0.950 . S
C307 C306 1.524 . S
C307 C308 1.415 . S
C308 H284 0.950 . S
C308 C303 1.363 . S
C308 C307 1.415 . S
C309 H285 0.951 . S
C309 C310 1.366 . S
C309 C311 1.388 . S
C310 C309 1.366 . S
C310 C314 1.385 . S
C311 H286 0.951 . S
C311 C309 1.388 . S
C311 C312 1.366 . S
C312 C311 1.366 . S
C312 C313 1.414 . S
C312 C315 1.499 . S
C313 H287 0.950 . S
C313 C312 1.414 . S
C313 C314 1.374 . S
C314 H288 0.950 . S
C314 C310 1.385 . S
C314 C313 1.374 . S
C315 C312 1.499 . S
C315 C316 1.373 . S
C315 C317 1.389 . S
C316 H289 0.950 . S
C316 C302 1.377 1_565 S
C316 C315 1.373 . S
C317 C301 1.377 . S
C317 C315 1.389 . S
C317 C318 1.524 . S
C318 C317 1.524 . S
C318 C319 1.397 . S
C318 C323 1.363 . S
C319 H290 0.950 . S
C319 C318 1.397 . S
C319 C320 1.334 . S
C320 H291 0.950 . S
C320 C319 1.334 . S
C320 C321 1.287 . S
C321 C320 1.287 . S
C321 C322 1.524 . S
C321 H324 0.999 . S
C322 H292 0.950 . S
C322 C321 1.524 . S
C322 C323 1.415 . S
C323 H293 0.950 . S
C323 C318 1.363 . S
C323 C322 1.415 . S
H324 C321 0.999 . S
H325 C306 0.913 . S
H326 C344 0.951 . S
H327 C346 0.951 . S
H328 C348 0.950 . S
H329 C349 0.950 . S
H330 C351 0.950 . S
H331 C354 0.950 . S
H332 C355 0.950 . S
H333 C357 0.950 . S
H334 C358 0.950 . S
H335 C359 0.951 . S
H336 C361 0.951 . S
H337 C363 0.950 . S
H338 C364 0.950 . S
H339 C366 0.950 . S
H340 C369 0.950 . S
H341 C370 0.950 . S
H342 C372 0.950 . S
H343 C373 0.950 . S
C344 H326 0.951 . S
C344 C345 1.366 . S
C344 C346 1.388 . S
C345 C344 1.366 . S
C345 C349 1.385 . S
C346 H327 0.951 . S
C346 C344 1.388 . S
C346 C347 1.366 . S
C347 C346 1.366 . S
C347 C348 1.414 . S
C347 C350 1.499 . S
C348 H328 0.950 . S
C348 C347 1.414 . S
C348 C349 1.374 . S
C349 H329 0.950 . S
C349 C345 1.385 . S
C349 C348 1.374 . S
C350 C347 1.499 . S
C350 C351 1.373 . S
C350 C352 1.389 . S
C351 H330 0.950 . S
C351 C350 1.373 . S
C351 C367 1.377 . S
C352 C350 1.389 . S
C352 C353 1.524 . S
C352 C366 1.377 . S
C353 C352 1.524 . S
C353 C354 1.397 . S
C353 C358 1.363 . S
C354 H331 0.950 . S
C354 C353 1.397 . S
C354 C355 1.334 . S
C355 H332 0.950 . S
C355 C354 1.334 . S
C355 C356 1.287 . S
C356 C355 1.287 . S
C356 C357 1.524 . S
C356 H375 0.913 . S
C357 H333 0.950 . S
C357 C356 1.524 . S
C357 C358 1.415 . S
C358 H334 0.950 . S
C358 C353 1.363 . S
C358 C357 1.415 . S
C359 H335 0.951 . S
C359 C360 1.366 . S
C359 C361 1.388 . S
C360 C359 1.366 . S
C360 C364 1.385 . S
C361 H336 0.951 . S
C361 C359 1.388 . S
C361 C362 1.366 . S
C362 C361 1.366 . S
C362 C363 1.414 . S
C362 C365 1.499 . S
C363 H337 0.950 . S
C363 C362 1.414 . S
C363 C364 1.374 . S
C364 H338 0.950 . S
C364 C360 1.385 . S
C364 C363 1.374 . S
C365 C362 1.499 . S
C365 C366 1.373 . S
C365 C367 1.389 . S
C366 H339 0.950 . S
C366 C352 1.377 . S
C366 C365 1.373 . S
C367 C351 1.377 . S
C367 C365 1.389 . S
C367 C368 1.524 . S
C368 C367 1.524 . S
C368 C369 1.397 . S
C368 C373 1.363 . S
C369 H340 0.950 . S
C369 C368 1.397 . S
C369 C370 1.334 . S
C370 H341 0.950 . S
C370 C369 1.334 . S
C370 C371 1.287 . S
C371 C370 1.287 . S
C371 C372 1.524 . S
C371 H374 0.999 . S
C372 H342 0.950 . S
C372 C371 1.524 . S
C372 C373 1.415 . S
C373 H343 0.950 . S
C373 C368 1.363 . S
C373 C372 1.415 . S
H374 C371 0.999 . S
H375 C356 0.913 . S
H376 C394 0.951 . S
H377 C396 0.951 . S
H378 C398 0.950 . S
H379 C399 0.950 . S
H380 C401 0.950 . S
H381 C404 0.950 . S
H382 C405 0.950 . S
H383 C407 0.950 . S
H384 C408 0.950 . S
H385 C409 0.951 . S
H386 C411 0.951 . S
H387 C413 0.950 . S
H388 C414 0.950 . S
H389 C416 0.950 . S
H390 C419 0.950 . S
H391 C420 0.950 . S
H392 C422 0.950 . S
H393 C423 0.950 . S
C394 H376 0.951 . S
C394 C395 1.366 . S
C394 C396 1.388 . S
C395 C394 1.366 . S
C395 C399 1.385 . S
C396 H377 0.951 . S
C396 C394 1.388 . S
C396 C397 1.366 . S
C397 C396 1.366 . S
C397 C398 1.414 . S
C397 C400 1.499 . S
C398 H378 0.950 . S
C398 C397 1.414 . S
C398 C399 1.374 . S
C399 H379 0.950 . S
C399 C395 1.385 . S
C399 C398 1.374 . S
C400 C397 1.499 . S
C400 C401 1.373 . S
C400 C402 1.389 . S
C401 H380 0.950 . S
C401 C400 1.373 . S
C401 C417 1.377 . S
C402 C400 1.389 . S
C402 C403 1.524 . S
C402 C416 1.377 . S
C403 C402 1.524 . S
C403 C404 1.397 . S
C403 C408 1.363 . S
C404 H381 0.950 . S
C404 C403 1.397 . S
C404 C405 1.334 . S
C405 H382 0.950 . S
C405 C404 1.334 . S
C405 C406 1.287 . S
C406 C405 1.287 . S
C406 C407 1.524 . S
C406 H425 0.913 . S
C407 H383 0.950 . S
C407 C406 1.524 . S
C407 C408 1.415 . S
C408 H384 0.950 . S
C408 C403 1.363 . S
C408 C407 1.415 . S
C409 H385 0.951 . S
C409 C410 1.366 . S
C409 C411 1.388 . S
C410 C409 1.366 . S
C410 C414 1.385 . S
C411 H386 0.951 . S
C411 C409 1.388 . S
C411 C412 1.366 . S
C412 C411 1.366 . S
C412 C413 1.414 . S
C412 C415 1.499 . S
C413 H387 0.950 . S
C413 C412 1.414 . S
C413 C414 1.374 . S
C414 H388 0.950 . S
C414 C410 1.385 . S
C414 C413 1.374 . S
C415 C412 1.499 . S
C415 C416 1.373 . S
C415 C417 1.389 . S
C416 H389 0.950 . S
C416 C402 1.377 . S
C416 C415 1.373 . S
C417 C401 1.377 . S
C417 C415 1.389 . S
C417 C418 1.524 . S
C418 C417 1.524 . S
C418 C419 1.397 . S
C418 C423 1.363 . S
C419 H390 0.950 . S
C419 C418 1.397 . S
C419 C420 1.334 . S
C420 H391 0.950 . S
C420 C419 1.334 . S
C420 C421 1.287 . S
C421 C420 1.287 . S
C421 C422 1.524 . S
C421 H424 0.999 . S
C422 H392 0.950 . S
C422 C421 1.524 . S
C422 C423 1.415 . S
C423 H393 0.950 . S
C423 C418 1.363 . S
C423 C422 1.415 . S
H424 C421 0.999 . S
H425 C406 0.913 . S
H426 C444 0.951 . S
H427 C446 0.951 . S
H428 C448 0.950 . S
H429 C449 0.950 . S
H430 C451 0.950 . S
H431 C454 0.950 . S
H432 C455 0.950 1_655 S
H433 C457 0.950 . S
H434 C458 0.950 . S
H435 C459 0.951 . S
H436 C461 0.951 . S
H437 C463 0.950 . S
H438 C464 0.950 . S
H439 C466 0.950 . S
H440 C469 0.950 . S
H441 C470 0.950 . S
H442 C472 0.950 . S
H443 C473 0.950 . S
C444 H426 0.951 . S
C444 C445 1.366 . S
C444 C446 1.388 1_655 S
C445 C444 1.366 . S
C445 C449 1.385 . S
C446 H427 0.951 . S
C446 C444 1.388 1_455 S
C446 C447 1.366 . S
C447 C446 1.366 . S
C447 C448 1.414 1_455 S
C447 C450 1.499 . S
C448 H428 0.950 . S
C448 C447 1.414 1_655 S
C448 C449 1.374 . S
C449 H429 0.950 . S
C449 C445 1.385 . S
C449 C448 1.374 . S
C450 C447 1.499 . S
C450 C451 1.373 . S
C450 C452 1.389 . S
C451 H430 0.950 . S
C451 C450 1.373 . S
C451 C467 1.377 . S
C452 C450 1.389 . S
C452 C453 1.524 . S
C452 C466 1.377 . S
C453 C452 1.524 . S
C453 C454 1.397 . S
C453 C458 1.363 . S
C454 H431 0.950 . S
C454 C453 1.397 . S
C454 C455 1.334 . S
C455 H432 0.950 1_455 S
C455 C454 1.334 . S
C455 C456 1.287 . S
C456 C455 1.287 . S
C456 C457 1.524 . S
C456 H475 0.913 . S
C457 H433 0.950 . S
C457 C456 1.524 . S
C457 C458 1.415 . S
C458 H434 0.950 . S
C458 C453 1.363 . S
C458 C457 1.415 . S
C459 H435 0.951 . S
C459 C460 1.366 . S
C459 C461 1.388 . S
C460 C459 1.366 . S
C460 C464 1.385 . S
C461 H436 0.951 . S
C461 C459 1.388 . S
C461 C462 1.366 . S
C462 C461 1.366 . S
C462 C463 1.414 . S
C462 C465 1.499 . S
C463 H437 0.950 . S
C463 C462 1.414 . S
C463 C464 1.374 . S
C464 H438 0.950 . S
C464 C460 1.385 . S
C464 C463 1.374 . S
C465 C462 1.499 . S
C465 C466 1.373 . S
C465 C467 1.389 . S
C466 H439 0.950 . S
C466 C452 1.377 . S
C466 C465 1.373 . S
C467 C451 1.377 . S
C467 C465 1.389 . S
C467 C468 1.524 . S
C468 C467 1.524 . S
C468 C469 1.397 . S
C468 C473 1.363 . S
C469 H440 0.950 . S
C469 C468 1.397 . S
C469 C470 1.334 . S
C470 H441 0.950 . S
C470 C469 1.334 . S
C470 C471 1.287 . S
C471 C470 1.287 . S
C471 C472 1.524 . S
C471 H474 0.999 . S
C472 H442 0.950 . S
C472 C471 1.524 . S
C472 C473 1.415 . S
C473 H443 0.950 . S
C473 C468 1.363 . S
C473 C472 1.415 . S
H474 C471 0.999 . S
H475 C456 0.913 . S
H476 C494 0.951 . S
H477 C496 0.951 . S
H478 C498 0.950 . S
H479 C499 0.950 . S
H480 C501 0.950 . S
H481 C504 0.950 . S
H482 C505 0.950 . S
H483 C507 0.950 . S
H484 C508 0.950 . S
H485 C509 0.951 . S
H486 C511 0.951 . S
H487 C513 0.950 . S
H488 C514 0.950 . S
H489 C516 0.950 . S
H490 C519 0.950 . S
H491 C520 0.950 . S
H492 C522 0.950 . S
H493 C523 0.950 . S
C494 H476 0.951 . S
C494 C495 1.366 . S
C494 C496 1.388 . S
C495 C494 1.366 . S
C495 C499 1.385 . S
C496 H477 0.951 . S
C496 C494 1.388 . S
C496 C497 1.366 . S
C497 C496 1.366 . S
C497 C498 1.414 . S
C497 C500 1.499 . S
C498 H478 0.950 . S
C498 C497 1.414 . S
C498 C499 1.374 . S
C499 H479 0.950 . S
C499 C495 1.385 . S
C499 C498 1.374 . S
C500 C497 1.499 . S
C500 C501 1.373 . S
C500 C502 1.389 . S
C501 H480 0.950 . S
C501 C500 1.373 . S
C501 C517 1.377 . S
C502 C500 1.389 . S
C502 C503 1.524 . S
C502 C516 1.377 . S
C503 C502 1.524 . S
C503 C504 1.397 . S
C503 C508 1.363 . S
C504 H481 0.950 . S
C504 C503 1.397 . S
C504 C505 1.334 . S
C505 H482 0.950 . S
C505 C504 1.334 . S
C505 C506 1.287 . S
C506 C505 1.287 . S
C506 C507 1.524 . S
C506 H525 0.913 . S
C507 H483 0.950 . S
C507 C506 1.524 . S
C507 C508 1.415 . S
C508 H484 0.950 . S
C508 C503 1.363 . S
C508 C507 1.415 . S
C509 H485 0.951 . S
C509 C510 1.366 . S
C509 C511 1.388 . S
C510 C509 1.366 . S
C510 C514 1.385 . S
C511 H486 0.951 . S
C511 C509 1.388 . S
C511 C512 1.366 . S
C512 C511 1.366 . S
C512 C513 1.414 . S
C512 C515 1.499 . S
C513 H487 0.950 . S
C513 C512 1.414 . S
C513 C514 1.374 . S
C514 H488 0.950 . S
C514 C510 1.385 . S
C514 C513 1.374 . S
C515 C512 1.499 . S
C515 C516 1.373 . S
C515 C517 1.389 . S
C516 H489 0.950 . S
C516 C502 1.377 . S
C516 C515 1.373 . S
C517 C501 1.377 . S
C517 C515 1.389 . S
C517 C518 1.524 . S
C518 C517 1.524 . S
C518 C519 1.397 . S
C518 C523 1.363 . S
C519 H490 0.950 . S
C519 C518 1.397 . S
C519 C520 1.334 . S
C520 H491 0.950 . S
C520 C519 1.334 . S
C520 C521 1.287 . S
C521 C520 1.287 . S
C521 C522 1.524 . S
C521 H524 0.999 . S
C522 H492 0.950 . S
C522 C521 1.524 . S
C522 C523 1.415 . S
C523 H493 0.950 . S
C523 C518 1.363 . S
C523 C522 1.415 . S
H524 C521 0.999 . S
H525 C506 0.913 . S
H526 C544 0.951 . S
H527 C546 0.951 . S
H528 C548 0.950 . S
H529 C549 0.950 . S
H530 C551 0.950 1_655 S
H531 C554 0.950 . S
H532 C555 0.950 . S
H533 C557 0.950 . S
H534 C558 0.950 . S
H535 C559 0.951 . S
H536 C561 0.951 . S
H537 C563 0.950 1_455 S
H538 C564 0.950 . S
H539 C566 0.950 . S
H540 C569 0.950 . S
H541 C570 0.950 . S
H542 C572 0.950 . S
H543 C573 0.950 . S
C544 H526 0.951 . S
C544 C545 1.366 . S
C544 C546 1.388 . S
C545 C544 1.366 . S
C545 C549 1.385 . S
C546 H527 0.951 . S
C546 C544 1.388 . S
C546 C547 1.366 . S
C547 C546 1.366 . S
C547 C548 1.414 . S
C547 C550 1.499 . S
C548 H528 0.950 . S
C548 C547 1.414 . S
C548 C549 1.374 . S
C549 H529 0.950 . S
C549 C545 1.385 . S
C549 C548 1.374 . S
C550 C547 1.499 . S
C550 C551 1.373 . S
C550 C552 1.389 . S
C551 H530 0.950 1_455 S
C551 C550 1.373 . S
C551 C567 1.377 1_455 S
C552 C550 1.389 . S
C552 C553 1.524 . S
C552 C566 1.377 . S
C553 C552 1.524 . S
C553 C554 1.397 . S
C553 C558 1.363 . S
C554 H531 0.950 . S
C554 C553 1.397 . S
C554 C555 1.334 . S
C555 H532 0.950 . S
C555 C554 1.334 . S
C555 C556 1.287 . S
C556 C555 1.287 . S
C556 C557 1.524 . S
C556 H575 0.913 . S
C557 H533 0.950 . S
C557 C556 1.524 . S
C557 C558 1.415 . S
C558 H534 0.950 . S
C558 C553 1.363 . S
C558 C557 1.415 . S
C559 H535 0.951 . S
C559 C560 1.366 . S
C559 C561 1.388 . S
C560 C559 1.366 . S
C560 C564 1.385 . S
C561 H536 0.951 . S
C561 C559 1.388 . S
C561 C562 1.366 . S
C562 C561 1.366 . S
C562 C563 1.414 . S
C562 C565 1.499 . S
C563 H537 0.950 1_655 S
C563 C562 1.414 . S
C563 C564 1.374 . S
C564 H538 0.950 . S
C564 C560 1.385 . S
C564 C563 1.374 . S
C565 C562 1.499 . S
C565 C566 1.373 1_655 S
C565 C567 1.389 . S
C566 H539 0.950 . S
C566 C552 1.377 . S
C566 C565 1.373 1_455 S
C567 C551 1.377 1_655 S
C567 C565 1.389 . S
C567 C568 1.524 . S
C568 C567 1.524 . S
C568 C569 1.397 . S
C568 C573 1.363 . S
C569 H540 0.950 . S
C569 C568 1.397 . S
C569 C570 1.334 . S
C570 H541 0.950 . S
C570 C569 1.334 . S
C570 C571 1.287 . S
C571 C570 1.287 . S
C571 C572 1.524 . S
C571 H574 0.999 . S
C572 H542 0.950 . S
C572 C571 1.524 . S
C572 C573 1.415 . S
C573 H543 0.950 . S
C573 C568 1.363 . S
C573 C572 1.415 . S
H574 C571 0.999 . S
H575 C556 0.913 . S
H576 C594 0.951 . S
H577 C596 0.951 . S
H578 C598 0.950 . S
H579 C599 0.950 . S
H580 C601 0.950 . S
H581 C604 0.950 . S
H582 C605 0.950 . S
H583 C607 0.950 . S
H584 C608 0.950 . S
H585 C609 0.951 . S
H586 C611 0.951 . S
H587 C613 0.950 . S
H588 C614 0.950 . S
H589 C616 0.950 . S
H590 C619 0.950 . S
H591 C620 0.950 . S
H592 C622 0.950 . S
H593 C623 0.950 . S
C594 H576 0.951 . S
C594 C595 1.366 . S
C594 C596 1.388 . S
C595 C594 1.366 . S
C595 C599 1.385 . S
C596 H577 0.951 . S
C596 C594 1.388 . S
C596 C597 1.366 . S
C597 C596 1.366 . S
C597 C598 1.414 . S
C597 C600 1.499 . S
C598 H578 0.950 . S
C598 C597 1.414 . S
C598 C599 1.374 . S
C599 H579 0.950 . S
C599 C595 1.385 . S
C599 C598 1.374 . S
C600 C597 1.499 . S
C600 C601 1.373 . S
C600 C602 1.389 . S
C601 H580 0.950 . S
C601 C600 1.373 . S
C601 C617 1.377 1_545 S
C602 C600 1.389 . S
C602 C603 1.524 . S
C602 C616 1.377 1_545 S
C603 C602 1.524 . S
C603 C604 1.397 . S
C603 C608 1.363 . S
C604 H581 0.950 . S
C604 C603 1.397 . S
C604 C605 1.334 . S
C605 H582 0.950 . S
C605 C604 1.334 . S
C605 C606 1.287 . S
C606 C605 1.287 . S
C606 C607 1.524 . S
C606 H625 0.913 . S
C607 H583 0.950 . S
C607 C606 1.524 . S
C607 C608 1.415 . S
C608 H584 0.950 . S
C608 C603 1.363 . S
C608 C607 1.415 . S
C609 H585 0.951 . S
C609 C610 1.366 . S
C609 C611 1.388 . S
C610 C609 1.366 . S
C610 C614 1.385 . S
C611 H586 0.951 . S
C611 C609 1.388 . S
C611 C612 1.366 . S
C612 C611 1.366 . S
C612 C613 1.414 . S
C612 C615 1.499 . S
C613 H587 0.950 . S
C613 C612 1.414 . S
C613 C614 1.374 . S
C614 H588 0.950 . S
C614 C610 1.385 . S
C614 C613 1.374 . S
C615 C612 1.499 . S
C615 C616 1.373 . S
C615 C617 1.389 . S
C616 H589 0.950 . S
C616 C602 1.377 1_565 S
C616 C615 1.373 . S
C617 C601 1.377 1_565 S
C617 C615 1.389 . S
C617 C618 1.524 . S
C618 C617 1.524 . S
C618 C619 1.397 . S
C618 C623 1.363 . S
C619 H590 0.950 . S
C619 C618 1.397 . S
C619 C620 1.334 . S
C620 H591 0.950 . S
C620 C619 1.334 . S
C620 C621 1.287 . S
C621 C620 1.287 . S
C621 C622 1.524 . S
C621 H624 0.999 1_655 S
C622 H592 0.950 . S
C622 C621 1.524 . S
C622 C623 1.415 . S
C623 H593 0.950 . S
C623 C618 1.363 . S
C623 C622 1.415 . S
H624 C621 0.999 1_455 S
H625 C606 0.913 . S
H626 C644 0.951 . S
H627 C646 0.951 . S
H628 C648 0.950 . S
H629 C649 0.950 . S
H630 C651 0.950 . S
H631 C654 0.950 . S
H632 C655 0.950 . S
H633 C657 0.950 . S
H634 C658 0.950 . S
H635 C659 0.951 . S
H636 C661 0.951 . S
H637 C663 0.950 . S
H638 C664 0.950 . S
H639 C666 0.950 . S
H640 C669 0.950 . S
H641 C670 0.950 . S
H642 C672 0.950 . S
H643 C673 0.950 . S
C644 H626 0.951 . S
C644 C645 1.366 . S
C644 C646 1.388 . S
C645 C644 1.366 . S
C645 C649 1.385 . S
C646 H627 0.951 . S
C646 C644 1.388 . S
C646 C647 1.366 . S
C647 C646 1.366 . S
C647 C648 1.414 . S
C647 C650 1.499 . S
C648 H628 0.950 . S
C648 C647 1.414 . S
C648 C649 1.374 . S
C649 H629 0.950 . S
C649 C645 1.385 . S
C649 C648 1.374 . S
C650 C647 1.499 . S
C650 C651 1.373 . S
C650 C652 1.389 . S
C651 H630 0.950 . S
C651 C650 1.373 . S
C651 C667 1.377 . S
C652 C650 1.389 . S
C652 C653 1.524 . S
C652 C666 1.377 . S
C653 C652 1.524 . S
C653 C654 1.397 . S
C653 C658 1.363 . S
C654 H631 0.950 . S
C654 C653 1.397 . S
C654 C655 1.334 . S
C655 H632 0.950 . S
C655 C654 1.334 . S
C655 C656 1.287 . S
C656 C655 1.287 . S
C656 C657 1.524 . S
C656 H675 0.913 . S
C657 H633 0.950 . S
C657 C656 1.524 . S
C657 C658 1.415 . S
C658 H634 0.950 . S
C658 C653 1.363 . S
C658 C657 1.415 . S
C659 H635 0.951 . S
C659 C660 1.366 . S
C659 C661 1.388 . S
C660 C659 1.366 . S
C660 C664 1.385 . S
C661 H636 0.951 . S
C661 C659 1.388 . S
C661 C662 1.366 . S
C662 C661 1.366 . S
C662 C663 1.414 . S
C662 C665 1.499 . S
C663 H637 0.950 . S
C663 C662 1.414 . S
C663 C664 1.374 . S
C664 H638 0.950 . S
C664 C660 1.385 . S
C664 C663 1.374 . S
C665 C662 1.499 . S
C665 C666 1.373 . S
C665 C667 1.389 . S
C666 H639 0.950 . S
C666 C652 1.377 . S
C666 C665 1.373 . S
C667 C651 1.377 . S
C667 C665 1.389 . S
C667 C668 1.524 . S
C668 C667 1.524 . S
C668 C669 1.397 . S
C668 C673 1.363 . S
C669 H640 0.950 . S
C669 C668 1.397 . S
C669 C670 1.334 . S
C670 H641 0.950 . S
C670 C669 1.334 . S
C670 C671 1.287 . S
C671 C670 1.287 . S
C671 C672 1.524 . S
C671 H674 0.999 . S
C672 H642 0.950 . S
C672 C671 1.524 . S
C672 C673 1.415 . S
C673 H643 0.950 . S
C673 C668 1.363 . S
C673 C672 1.415 . S
H674 C671 0.999 . S
H675 C656 0.913 . S
H676 C694 0.951 . S
H677 C696 0.951 . S
H678 C698 0.950 1_554 S
H679 C699 0.950 . S
H680 C701 0.950 . S
H681 C704 0.950 . S
H682 C705 0.950 . S
H683 C707 0.950 . S
H684 C708 0.950 . S
H685 C709 0.951 . S
H686 C711 0.951 . S
H687 C713 0.950 . S
H688 C714 0.950 . S
H689 C716 0.950 . S
H690 C719 0.950 . S
H691 C720 0.950 . S
H692 C722 0.950 1_554 S
H693 C723 0.950 . S
C694 H676 0.951 . S
C694 C695 1.366 . S
C694 C696 1.388 . S
C695 C694 1.366 . S
C695 C699 1.385 1_556 S
C696 H677 0.951 . S
C696 C694 1.388 . S
C696 C697 1.366 . S
C697 C696 1.366 . S
C697 C698 1.414 . S
C697 C700 1.499 . S
C698 H678 0.950 1_556 S
C698 C697 1.414 . S
C698 C699 1.374 1_556 S
C699 H679 0.950 . S
C699 C695 1.385 1_554 S
C699 C698 1.374 1_554 S
C700 C697 1.499 . S
C700 C701 1.373 1_565 S
C700 C702 1.389 . S
C701 H680 0.950 . S
C701 C700 1.373 1_545 S
C701 C717 1.377 . S
C702 C700 1.389 . S
C702 C703 1.524 . S
C702 C716 1.377 1_565 S
C703 C702 1.524 . S
C703 C704 1.397 . S
C703 C708 1.363 . S
C704 H681 0.950 . S
C704 C703 1.397 . S
C704 C705 1.334 . S
C705 H682 0.950 . S
C705 C704 1.334 . S
C705 C706 1.287 . S
C706 C705 1.287 . S
C706 C707 1.524 . S
C706 H725 0.913 . S
C707 H683 0.950 . S
C707 C706 1.524 . S
C707 C708 1.415 . S
C708 H684 0.950 . S
C708 C703 1.363 . S
C708 C707 1.415 . S
C709 H685 0.951 . S
C709 C710 1.366 . S
C709 C711 1.388 . S
C710 C709 1.366 . S
C710 C714 1.385 . S
C711 H686 0.951 . S
C711 C709 1.388 . S
C711 C712 1.366 . S
C712 C711 1.366 . S
C712 C713 1.414 . S
C712 C715 1.499 . S
C713 H687 0.950 . S
C713 C712 1.414 . S
C713 C714 1.374 . S
C714 H688 0.950 . S
C714 C710 1.385 . S
C714 C713 1.374 . S
C715 C712 1.499 . S
C715 C716 1.373 . S
C715 C717 1.389 . S
C716 H689 0.950 . S
C716 C702 1.377 1_545 S
C716 C715 1.373 . S
C717 C701 1.377 . S
C717 C715 1.389 . S
C717 C718 1.524 . S
C718 C717 1.524 . S
C718 C719 1.397 . S
C718 C723 1.363 . S
C719 H690 0.950 . S
C719 C718 1.397 . S
C719 C720 1.334 . S
C720 H691 0.950 . S
C720 C719 1.334 . S
C720 C721 1.287 . S
C721 C720 1.287 . S
C721 C722 1.524 . S
C721 H724 0.999 . S
C722 H692 0.950 1_556 S
C722 C721 1.524 . S
C722 C723 1.415 . S
C723 H693 0.950 . S
C723 C718 1.363 . S
C723 C722 1.415 . S
H724 C721 0.999 . S
H725 C706 0.913 . S
H726 C744 0.951 . S
H727 C746 0.951 . S
H728 C748 0.950 . S
H729 C749 0.950 . S
H730 C751 0.950 . S
H731 C754 0.950 . S
H732 C755 0.950 . S
H733 C757 0.950 . S
H734 C758 0.950 . S
H735 C759 0.951 . S
H736 C761 0.951 . S
H737 C763 0.950 . S
H738 C764 0.950 . S
H739 C766 0.950 . S
H740 C769 0.950 . S
H741 C770 0.950 . S
H742 C772 0.950 . S
H743 C773 0.950 . S
C744 H726 0.951 . S
C744 C745 1.366 . S
C744 C746 1.388 . S
C745 C744 1.366 . S
C745 C749 1.385 . S
C746 H727 0.951 . S
C746 C744 1.388 . S
C746 C747 1.366 . S
C747 C746 1.366 . S
C747 C748 1.414 . S
C747 C750 1.499 . S
C748 H728 0.950 . S
C748 C747 1.414 . S
C748 C749 1.374 . S
C749 H729 0.950 . S
C749 C745 1.385 . S
C749 C748 1.374 . S
C750 C747 1.499 . S
C750 C751 1.373 . S
C750 C752 1.389 . S
C751 H730 0.950 . S
C751 C750 1.373 . S
C751 C767 1.377 . S
C752 C750 1.389 . S
C752 C753 1.524 . S
C752 C766 1.377 . S
C753 C752 1.524 . S
C753 C754 1.397 . S
C753 C758 1.363 . S
C754 H731 0.950 . S
C754 C753 1.397 . S
C754 C755 1.334 . S
C755 H732 0.950 . S
C755 C754 1.334 . S
C755 C756 1.287 . S
C756 C755 1.287 . S
C756 C757 1.524 . S
C756 H775 0.913 . S
C757 H733 0.950 . S
C757 C756 1.524 . S
C757 C758 1.415 . S
C758 H734 0.950 . S
C758 C753 1.363 . S
C758 C757 1.415 . S
C759 H735 0.951 . S
C759 C760 1.366 . S
C759 C761 1.388 . S
C760 C759 1.366 . S
C760 C764 1.385 . S
C761 H736 0.951 . S
C761 C759 1.388 . S
C761 C762 1.366 . S
C762 C761 1.366 . S
C762 C763 1.414 . S
C762 C765 1.499 . S
C763 H737 0.950 . S
C763 C762 1.414 . S
C763 C764 1.374 . S
C764 H738 0.950 . S
C764 C760 1.385 . S
C764 C763 1.374 . S
C765 C762 1.499 . S
C765 C766 1.373 . S
C765 C767 1.389 . S
C766 H739 0.950 . S
C766 C752 1.377 . S
C766 C765 1.373 . S
C767 C751 1.377 . S
C767 C765 1.389 . S
C767 C768 1.524 . S
C768 C767 1.524 . S
C768 C769 1.397 . S
C768 C773 1.363 . S
C769 H740 0.950 . S
C769 C768 1.397 . S
C769 C770 1.334 . S
C770 H741 0.950 . S
C770 C769 1.334 . S
C770 C771 1.287 . S
C771 C770 1.287 . S
C771 C772 1.524 . S
C771 H774 0.999 . S
C772 H742 0.950 . S
C772 C771 1.524 . S
C772 C773 1.415 . S
C773 H743 0.950 . S
C773 C768 1.363 . S
C773 C772 1.415 . S
H774 C771 0.999 . S
H775 C756 0.913 . S
H776 C794 0.951 . S
H777 C796 0.951 . S
H778 C798 0.950 . S
H779 C799 0.950 . S
H780 C801 0.950 . S
H781 C804 0.950 . S
H782 C805 0.950 . S
H783 C807 0.950 . S
H784 C808 0.950 . S
H785 C809 0.951 . S
H786 C811 0.951 . S
H787 C813 0.950 . S
H788 C814 0.950 . S
H789 C816 0.950 . S
H790 C819 0.950 . S
H791 C820 0.950 . S
H792 C822 0.950 . S
H793 C823 0.950 . S
C794 H776 0.951 . S
C794 C795 1.366 . S
C794 C796 1.388 . S
C795 C794 1.366 . S
C795 C799 1.385 . S
C796 H777 0.951 . S
C796 C794 1.388 . S
C796 C797 1.366 . S
C797 C796 1.366 . S
C797 C798 1.414 . S
C797 C800 1.499 . S
C798 H778 0.950 . S
C798 C797 1.414 . S
C798 C799 1.374 . S
C799 H779 0.950 . S
C799 C795 1.385 . S
C799 C798 1.374 . S
C800 C797 1.499 . S
C800 C801 1.373 . S
C800 C802 1.389 . S
C801 H780 0.950 . S
C801 C800 1.373 . S
C801 C817 1.377 . S
C802 C800 1.389 . S
C802 C803 1.524 . S
C802 C816 1.377 . S
C803 C802 1.524 . S
C803 C804 1.397 . S
C803 C808 1.363 . S
C804 H781 0.950 . S
C804 C803 1.397 . S
C804 C805 1.334 . S
C805 H782 0.950 . S
C805 C804 1.334 . S
C805 C806 1.287 . S
C806 C805 1.287 . S
C806 C807 1.524 . S
C806 H825 0.913 . S
C807 H783 0.950 . S
C807 C806 1.524 . S
C807 C808 1.415 . S
C808 H784 0.950 . S
C808 C803 1.363 . S
C808 C807 1.415 . S
C809 H785 0.951 . S
C809 C810 1.366 . S
C809 C811 1.388 . S
C810 C809 1.366 . S
C810 C814 1.385 . S
C811 H786 0.951 . S
C811 C809 1.388 . S
C811 C812 1.366 . S
C812 C811 1.366 . S
C812 C813 1.414 . S
C812 C815 1.499 . S
C813 H787 0.950 . S
C813 C812 1.414 . S
C813 C814 1.374 . S
C814 H788 0.950 . S
C814 C810 1.385 . S
C814 C813 1.374 . S
C815 C812 1.499 . S
C815 C816 1.373 . S
C815 C817 1.389 . S
C816 H789 0.950 . S
C816 C802 1.377 . S
C816 C815 1.373 . S
C817 C801 1.377 . S
C817 C815 1.389 . S
C817 C818 1.524 . S
C818 C817 1.524 . S
C818 C819 1.397 . S
C818 C823 1.363 . S
C819 H790 0.950 . S
C819 C818 1.397 . S
C819 C820 1.334 . S
C820 H791 0.950 . S
C820 C819 1.334 . S
C820 C821 1.287 . S
C821 C820 1.287 . S
C821 C822 1.524 . S
C821 H824 0.999 . S
C822 H792 0.950 . S
C822 C821 1.524 . S
C822 C823 1.415 . S
C823 H793 0.950 . S
C823 C818 1.363 . S
C823 C822 1.415 . S
H824 C821 0.999 . S
H825 C806 0.913 . S
H826 C844 0.951 . S
H827 C846 0.951 . S
H828 C848 0.950 . S
H829 C849 0.950 . S
H830 C851 0.950 . S
H831 C854 0.950 . S
H832 C855 0.950 . S
H833 C857 0.950 . S
H834 C858 0.950 . S
H835 C859 0.951 . S
H836 C861 0.951 . S
H837 C863 0.950 . S
H838 C864 0.950 . S
H839 C866 0.950 . S
H840 C869 0.950 . S
H841 C870 0.950 . S
H842 C872 0.950 . S
H843 C873 0.950 . S
C844 H826 0.951 . S
C844 C845 1.366 . S
C844 C846 1.388 . S
C845 C844 1.366 . S
C845 C849 1.385 . S
C846 H827 0.951 . S
C846 C844 1.388 . S
C846 C847 1.366 1_455 S
C847 C846 1.366 1_655 S
C847 C848 1.414 . S
C847 C850 1.499 . S
C848 H828 0.950 . S
C848 C847 1.414 . S
C848 C849 1.374 1_655 S
C849 H829 0.950 . S
C849 C845 1.385 . S
C849 C848 1.374 1_455 S
C850 C847 1.499 . S
C850 C851 1.373 . S
C850 C852 1.389 . S
C851 H830 0.950 . S
C851 C850 1.373 . S
C851 C867 1.377 . S
C852 C850 1.389 . S
C852 C853 1.524 . S
C852 C866 1.377 . S
C853 C852 1.524 . S
C853 C854 1.397 . S
C853 C858 1.363 . S
C854 H831 0.950 . S
C854 C853 1.397 . S
C854 C855 1.334 . S
C855 H832 0.950 . S
C855 C854 1.334 . S
C855 C856 1.287 . S
C856 C855 1.287 . S
C856 C857 1.524 . S
C856 H875 0.913 . S
C857 H833 0.950 . S
C857 C856 1.524 . S
C857 C858 1.415 . S
C858 H834 0.950 . S
C858 C853 1.363 . S
C858 C857 1.415 . S
C859 H835 0.951 . S
C859 C860 1.366 . S
C859 C861 1.388 . S
C860 C859 1.366 . S
C860 C864 1.385 . S
C861 H836 0.951 . S
C861 C859 1.388 . S
C861 C862 1.366 . S
C862 C861 1.366 . S
C862 C863 1.414 . S
C862 C865 1.499 . S
C863 H837 0.950 . S
C863 C862 1.414 . S
C863 C864 1.374 . S
C864 H838 0.950 . S
C864 C860 1.385 . S
C864 C863 1.374 . S
C865 C862 1.499 . S
C865 C866 1.373 . S
C865 C867 1.389 . S
C866 H839 0.950 . S
C866 C852 1.377 . S
C866 C865 1.373 . S
C867 C851 1.377 . S
C867 C865 1.389 . S
C867 C868 1.524 . S
C868 C867 1.524 . S
C868 C869 1.397 . S
C868 C873 1.363 . S
C869 H840 0.950 . S
C869 C868 1.397 . S
C869 C870 1.334 . S
C870 H841 0.950 . S
C870 C869 1.334 . S
C870 C871 1.287 . S
C871 C870 1.287 . S
C871 C872 1.524 . S
C871 H874 0.999 . S
C872 H842 0.950 . S
C872 C871 1.524 . S
C872 C873 1.415 . S
C873 H843 0.950 . S
C873 C868 1.363 . S
C873 C872 1.415 . S
H874 C871 0.999 . S
H875 C856 0.913 . S
H876 C894 0.951 . S
H877 C896 0.951 . S
H878 C898 0.950 . S
H879 C899 0.950 . S
H880 C901 0.950 . S
H881 C904 0.950 . S
H882 C905 0.950 . S
H883 C907 0.950 . S
H884 C908 0.950 . S
H885 C909 0.951 . S
H886 C911 0.951 . S
H887 C913 0.950 . S
H888 C914 0.950 . S
H889 C916 0.950 . S
H890 C919 0.950 . S
H891 C920 0.950 . S
H892 C922 0.950 . S
H893 C923 0.950 . S
C894 H876 0.951 . S
C894 C895 1.366 . S
C894 C896 1.388 . S
C895 C894 1.366 . S
C895 C899 1.385 . S
C896 H877 0.951 . S
C896 C894 1.388 . S
C896 C897 1.366 . S
C897 C896 1.366 . S
C897 C898 1.414 . S
C897 C900 1.499 . S
C898 H878 0.950 . S
C898 C897 1.414 . S
C898 C899 1.374 . S
C899 H879 0.950 . S
C899 C895 1.385 . S
C899 C898 1.374 . S
C900 C897 1.499 . S
C900 C901 1.373 . S
C900 C902 1.389 . S
C901 H880 0.950 . S
C901 C900 1.373 . S
C901 C917 1.377 . S
C902 C900 1.389 . S
C902 C903 1.524 . S
C902 C916 1.377 . S
C903 C902 1.524 . S
C903 C904 1.397 . S
C903 C908 1.363 . S
C904 H881 0.950 . S
C904 C903 1.397 . S
C904 C905 1.334 . S
C905 H882 0.950 . S
C905 C904 1.334 . S
C905 C906 1.287 . S
C906 C905 1.287 . S
C906 C907 1.524 . S
C906 H925 0.913 . S
C907 H883 0.950 . S
C907 C906 1.524 . S
C907 C908 1.415 . S
C908 H884 0.950 . S
C908 C903 1.363 . S
C908 C907 1.415 . S
C909 H885 0.951 . S
C909 C910 1.366 . S
C909 C911 1.388 . S
C910 C909 1.366 . S
C910 C914 1.385 . S
C911 H886 0.951 . S
C911 C909 1.388 . S
C911 C912 1.366 . S
C912 C911 1.366 . S
C912 C913 1.414 . S
C912 C915 1.499 . S
C913 H887 0.950 . S
C913 C912 1.414 . S
C913 C914 1.374 . S
C914 H888 0.950 . S
C914 C910 1.385 . S
C914 C913 1.374 . S
C915 C912 1.499 . S
C915 C916 1.373 . S
C915 C917 1.389 . S
C916 H889 0.950 . S
C916 C902 1.377 . S
C916 C915 1.373 . S
C917 C901 1.377 . S
C917 C915 1.389 . S
C917 C918 1.524 . S
C918 C917 1.524 . S
C918 C919 1.397 . S
C918 C923 1.363 . S
C919 H890 0.950 . S
C919 C918 1.397 . S
C919 C920 1.334 . S
C920 H891 0.950 . S
C920 C919 1.334 . S
C920 C921 1.287 . S
C921 C920 1.287 . S
C921 C922 1.524 . S
C921 H924 0.999 . S
C922 H892 0.950 . S
C922 C921 1.524 . S
C922 C923 1.415 . S
C923 H893 0.950 . S
C923 C918 1.363 . S
C923 C922 1.415 . S
H924 C921 0.999 . S
H925 C906 0.913 . S
H926 C944 0.951 . S
H927 C946 0.951 . S
H928 C948 0.950 . S
H929 C949 0.950 . S
H930 C951 0.950 . S
H931 C954 0.950 . S
H932 C955 0.950 . S
H933 C957 0.950 . S
H934 C958 0.950 . S
H935 C959 0.951 . S
H936 C961 0.951 1_655 S
H937 C963 0.950 . S
H938 C964 0.950 . S
H939 C966 0.950 . S
H940 C969 0.950 . S
H941 C970 0.950 . S
H942 C972 0.950 . S
H943 C973 0.950 . S
C944 H926 0.951 . S
C944 C945 1.366 . S
C944 C946 1.388 . S
C945 C944 1.366 . S
C945 C949 1.385 . S
C946 H927 0.951 . S
C946 C944 1.388 . S
C946 C947 1.366 . S
C947 C946 1.366 . S
C947 C948 1.414 . S
C947 C950 1.499 . S
C948 H928 0.950 . S
C948 C947 1.414 . S
C948 C949 1.374 . S
C949 H929 0.950 . S
C949 C945 1.385 . S
C949 C948 1.374 . S
C950 C947 1.499 . S
C950 C951 1.373 . S
C950 C952 1.389 . S
C951 H930 0.950 . S
C951 C950 1.373 . S
C951 C967 1.377 . S
C952 C950 1.389 . S
C952 C953 1.524 . S
C952 C966 1.377 1_655 S
C953 C952 1.524 . S
C953 C954 1.397 . S
C953 C958 1.363 1_655 S
C954 H931 0.950 . S
C954 C953 1.397 . S
C954 C955 1.334 . S
C955 H932 0.950 . S
C955 C954 1.334 . S
C955 C956 1.287 . S
C956 C955 1.287 . S
C956 C957 1.524 1_655 S
C956 H975 0.913 . S
C957 H933 0.950 . S
C957 C956 1.524 1_455 S
C957 C958 1.415 . S
C958 H934 0.950 . S
C958 C953 1.363 1_455 S
C958 C957 1.415 . S
C959 H935 0.951 . S
C959 C960 1.366 . S
C959 C961 1.388 . S
C960 C959 1.366 . S
C960 C964 1.385 . S
C961 H936 0.951 1_455 S
C961 C959 1.388 . S
C961 C962 1.366 . S
C962 C961 1.366 . S
C962 C963 1.414 . S
C962 C965 1.499 . S
C963 H937 0.950 . S
C963 C962 1.414 . S
C963 C964 1.374 . S
C964 H938 0.950 . S
C964 C960 1.385 . S
C964 C963 1.374 . S
C965 C962 1.499 . S
C965 C966 1.373 . S
C965 C967 1.389 1_455 S
C966 H939 0.950 . S
C966 C952 1.377 1_455 S
C966 C965 1.373 . S
C967 C951 1.377 . S
C967 C965 1.389 1_655 S
C967 C968 1.524 . S
C968 C967 1.524 . S
C968 C969 1.397 1_655 S
C968 C973 1.363 . S
C969 H940 0.950 . S
C969 C968 1.397 1_455 S
C969 C970 1.334 . S
C970 H941 0.950 . S
C970 C969 1.334 . S
C970 C971 1.287 1_455 S
C971 C970 1.287 1_655 S
C971 C972 1.524 . S
C971 H974 0.999 . S
C972 H942 0.950 . S
C972 C971 1.524 . S
C972 C973 1.415 . S
C973 H943 0.950 . S
C973 C968 1.363 . S
C973 C972 1.415 . S
H974 C971 0.999 . S
H975 C956 0.913 . S
H976 C994 0.951 . S
H977 C996 0.951 . S
H978 C998 0.950 . S
H979 C999 0.950 . S
H980 C1001 0.950 . S
H981 C1004 0.950 . S
H982 C1005 0.950 . S
H983 C1007 0.950 . S
H984 C1008 0.950 . S
H985 C1009 0.951 . S
H986 C1011 0.951 . S
H987 C1013 0.950 . S
H988 C1014 0.950 . S
H989 C1016 0.950 . S
H990 C1019 0.950 . S
H991 C1020 0.950 . S
H992 C1022 0.950 . S
H993 C1023 0.950 . S
C994 H976 0.951 . S
C994 C995 1.366 . S
C994 C996 1.388 . S
C995 C994 1.366 . S
C995 C999 1.385 . S
C996 H977 0.951 . S
C996 C994 1.388 . S
C996 C997 1.366 . S
C997 C996 1.366 . S
C997 C998 1.414 . S
C997 C1000 1.499 . S
C998 H978 0.950 . S
C998 C997 1.414 . S
C998 C999 1.374 . S
C999 H979 0.950 . S
C999 C995 1.385 . S
C999 C998 1.374 . S
C1000 C997 1.499 . S
C1000 C1001 1.373 . S
C1000 C1002 1.389 . S
C1001 H980 0.950 . S
C1001 C1000 1.373 . S
C1001 C1017 1.377 . S
C1002 C1000 1.389 . S
C1002 C1003 1.524 . S
C1002 C1016 1.377 . S
C1003 C1002 1.524 . S
C1003 C1004 1.397 . S
C1003 C1008 1.363 . S
C1004 H981 0.950 . S
C1004 C1003 1.397 . S
C1004 C1005 1.334 . S
C1005 H982 0.950 . S
C1005 C1004 1.334 . S
C1005 C1006 1.287 . S
C1006 C1005 1.287 . S
C1006 C1007 1.524 . S
C1006 H1025 0.913 . S
C1007 H983 0.950 . S
C1007 C1006 1.524 . S
C1007 C1008 1.415 . S
C1008 H984 0.950 . S
C1008 C1003 1.363 . S
C1008 C1007 1.415 . S
C1009 H985 0.951 . S
C1009 C1010 1.366 . S
C1009 C1011 1.388 . S
C1010 C1009 1.366 . S
C1010 C1014 1.385 . S
C1011 H986 0.951 . S
C1011 C1009 1.388 . S
C1011 C1012 1.366 . S
C1012 C1011 1.366 . S
C1012 C1013 1.414 . S
C1012 C1015 1.499 . S
C1013 H987 0.950 . S
C1013 C1012 1.414 . S
C1013 C1014 1.374 . S
C1014 H988 0.950 . S
C1014 C1010 1.385 . S
C1014 C1013 1.374 . S
C1015 C1012 1.499 . S
C1015 C1016 1.373 . S
C1015 C1017 1.389 . S
C1016 H989 0.950 . S
C1016 C1002 1.377 . S
C1016 C1015 1.373 . S
C1017 C1001 1.377 . S
C1017 C1015 1.389 . S
C1017 C1018 1.524 . S
C1018 C1017 1.524 . S
C1018 C1019 1.397 . S
C1018 C1023 1.363 . S
C1019 H990 0.950 . S
C1019 C1018 1.397 . S
C1019 C1020 1.334 . S
C1020 H991 0.950 . S
C1020 C1019 1.334 . S
C1020 C1021 1.287 . S
C1021 C1020 1.287 . S
C1021 C1022 1.524 . S
C1021 H1024 0.999 . S
C1022 H992 0.950 . S
C1022 C1021 1.524 . S
C1022 C1023 1.415 . S
C1023 H993 0.950 . S
C1023 C1018 1.363 . S
C1023 C1022 1.415 . S
H1024 C1021 0.999 . S
H1025 C1006 0.913 . S
H1026 C1044 0.951 . S
H1027 C1046 0.951 . S
H1028 C1048 0.950 . S
H1029 C1049 0.950 . S
H1030 C1051 0.950 . S
H1031 C1054 0.950 . S
H1032 C1055 0.950 . S
H1033 C1057 0.950 . S
H1034 C1058 0.950 . S
H1035 C1059 0.951 . S
H1036 C1061 0.951 . S
H1037 C1063 0.950 . S
H1038 C1064 0.950 . S
H1039 C1066 0.950 . S
H1040 C1069 0.950 . S
H1041 C1070 0.950 . S
H1042 C1072 0.950 . S
H1043 C1073 0.950 . S
C1044 H1026 0.951 . S
C1044 C1045 1.366 . S
C1044 C1046 1.388 . S
C1045 C1044 1.366 . S
C1045 C1049 1.385 . S
C1046 H1027 0.951 . S
C1046 C1044 1.388 . S
C1046 C1047 1.366 . S
C1047 C1046 1.366 . S
C1047 C1048 1.414 . S
C1047 C1050 1.499 . S
C1048 H1028 0.950 . S
C1048 C1047 1.414 . S
C1048 C1049 1.374 . S
C1049 H1029 0.950 . S
C1049 C1045 1.385 . S
C1049 C1048 1.374 . S
C1050 C1047 1.499 . S
C1050 C1051 1.373 . S
C1050 C1052 1.389 . S
C1051 H1030 0.950 . S
C1051 C1050 1.373 . S
C1051 C1067 1.377 . S
C1052 C1050 1.389 . S
C1052 C1053 1.524 . S
C1052 C1066 1.377 . S
C1053 C1052 1.524 . S
C1053 C1054 1.397 . S
C1053 C1058 1.363 . S
C1054 H1031 0.950 . S
C1054 C1053 1.397 . S
C1054 C1055 1.334 . S
C1055 H1032 0.950 . S
C1055 C1054 1.334 . S
C1055 C1056 1.287 . S
C1056 C1055 1.287 . S
C1056 C1057 1.524 . S
C1056 H1075 0.913 . S
C1057 H1033 0.950 . S
C1057 C1056 1.524 . S
C1057 C1058 1.415 . S
C1058 H1034 0.950 . S
C1058 C1053 1.363 . S
C1058 C1057 1.415 . S
C1059 H1035 0.951 . S
C1059 C1060 1.366 . S
C1059 C1061 1.388 . S
C1060 C1059 1.366 . S
C1060 C1064 1.385 . S
C1061 H1036 0.951 . S
C1061 C1059 1.388 . S
C1061 C1062 1.366 . S
C1062 C1061 1.366 . S
C1062 C1063 1.414 . S
C1062 C1065 1.499 . S
C1063 H1037 0.950 . S
C1063 C1062 1.414 . S
C1063 C1064 1.374 . S
C1064 H1038 0.950 . S
C1064 C1060 1.385 . S
C1064 C1063 1.374 . S
C1065 C1062 1.499 . S
C1065 C1066 1.373 . S
C1065 C1067 1.389 . S
C1066 H1039 0.950 . S
C1066 C1052 1.377 . S
C1066 C1065 1.373 . S
C1067 C1051 1.377 . S
C1067 C1065 1.389 . S
C1067 C1068 1.524 . S
C1068 C1067 1.524 . S
C1068 C1069 1.397 . S
C1068 C1073 1.363 . S
C1069 H1040 0.950 . S
C1069 C1068 1.397 . S
C1069 C1070 1.334 . S
C1070 H1041 0.950 . S
C1070 C1069 1.334 . S
C1070 C1071 1.287 . S
C1071 C1070 1.287 . S
C1071 C1072 1.524 . S
C1071 H1074 0.999 . S
C1072 H1042 0.950 . S
C1072 C1071 1.524 . S
C1072 C1073 1.415 . S
C1073 H1043 0.950 . S
C1073 C1068 1.363 . S
C1073 C1072 1.415 . S
H1074 C1071 0.999 . S
H1075 C1056 0.913 . S
H1076 C1094 0.951 . S
H1077 C1096 0.951 . S
H1078 C1098 0.950 . S
H1079 C1099 0.950 . S
H1080 C1101 0.950 . S
H1081 C1104 0.950 . S
H1082 C1105 0.950 . S
H1083 C1107 0.950 . S
H1084 C1108 0.950 . S
H1085 C1109 0.951 . S
H1086 C1111 0.951 . S
H1087 C1113 0.950 . S
H1088 C1114 0.950 . S
H1089 C1116 0.950 . S
H1090 C1119 0.950 . S
H1091 C1120 0.950 . S
H1092 C1122 0.950 . S
H1093 C1123 0.950 . S
C1094 H1076 0.951 . S
C1094 C1095 1.366 . S
C1094 C1096 1.388 . S
C1095 C1094 1.366 . S
C1095 C1099 1.385 . S
C1096 H1077 0.951 . S
C1096 C1094 1.388 . S
C1096 C1097 1.366 . S
C1097 C1096 1.366 . S
C1097 C1098 1.414 . S
C1097 C1100 1.499 . S
C1098 H1078 0.950 . S
C1098 C1097 1.414 . S
C1098 C1099 1.374 . S
C1099 H1079 0.950 . S
C1099 C1095 1.385 . S
C1099 C1098 1.374 . S
C1100 C1097 1.499 . S
C1100 C1101 1.373 . S
C1100 C1102 1.389 . S
C1101 H1080 0.950 . S
C1101 C1100 1.373 . S
C1101 C1117 1.377 . S
C1102 C1100 1.389 . S
C1102 C1103 1.524 . S
C1102 C1116 1.377 . S
C1103 C1102 1.524 . S
C1103 C1104 1.397 . S
C1103 C1108 1.363 . S
C1104 H1081 0.950 . S
C1104 C1103 1.397 . S
C1104 C1105 1.334 . S
C1105 H1082 0.950 . S
C1105 C1104 1.334 . S
C1105 C1106 1.287 . S
C1106 C1105 1.287 . S
C1106 C1107 1.524 . S
C1106 H1125 0.913 1_554 S
C1107 H1083 0.950 . S
C1107 C1106 1.524 . S
C1107 C1108 1.415 . S
C1108 H1084 0.950 . S
C1108 C1103 1.363 . S
C1108 C1107 1.415 . S
C1109 H1085 0.951 . S
C1109 C1110 1.366 . S
C1109 C1111 1.388 . S
C1110 C1109 1.366 . S
C1110 C1114 1.385 . S
C1111 H1086 0.951 . S
C1111 C1109 1.388 . S
C1111 C1112 1.366 . S
C1112 C1111 1.366 . S
C1112 C1113 1.414 . S
C1112 C1115 1.499 . S
C1113 H1087 0.950 . S
C1113 C1112 1.414 . S
C1113 C1114 1.374 . S
C1114 H1088 0.950 . S
C1114 C1110 1.385 . S
C1114 C1113 1.374 . S
C1115 C1112 1.499 . S
C1115 C1116 1.373 . S
C1115 C1117 1.389 . S
C1116 H1089 0.950 . S
C1116 C1102 1.377 . S
C1116 C1115 1.373 . S
C1117 C1101 1.377 . S
C1117 C1115 1.389 . S
C1117 C1118 1.524 . S
C1118 C1117 1.524 . S
C1118 C1119 1.397 . S
C1118 C1123 1.363 . S
C1119 H1090 0.950 . S
C1119 C1118 1.397 . S
C1119 C1120 1.334 . S
C1120 H1091 0.950 . S
C1120 C1119 1.334 . S
C1120 C1121 1.287 . S
C1121 C1120 1.287 . S
C1121 C1122 1.524 . S
C1121 H1124 0.999 . S
C1122 H1092 0.950 . S
C1122 C1121 1.524 . S
C1122 C1123 1.415 . S
C1123 H1093 0.950 . S
C1123 C1118 1.363 . S
C1123 C1122 1.415 . S
H1124 C1121 0.999 . S
H1125 C1106 0.913 1_556 S
H1126 C1144 0.951 . S
H1127 C1146 0.951 . S
H1128 C1148 0.950 . S
H1129 C1149 0.950 . S
H1130 C1151 0.950 . S
H1131 C1154 0.950 . S
H1132 C1155 0.950 . S
H1133 C1157 0.950 . S
H1134 C1158 0.950 . S
H1135 C1159 0.951 . S
H1136 C1161 0.951 . S
H1137 C1163 0.950 . S
H1138 C1164 0.950 . S
H1139 C1166 0.950 . S
H1140 C1169 0.950 . S
H1141 C1170 0.950 . S
H1142 C1172 0.950 . S
H1143 C1173 0.950 . S
C1144 H1126 0.951 . S
C1144 C1145 1.366 . S
C1144 C1146 1.388 . S
C1145 C1144 1.366 . S
C1145 C1149 1.385 . S
C1146 H1127 0.951 . S
C1146 C1144 1.388 . S
C1146 C1147 1.366 . S
C1147 C1146 1.366 . S
C1147 C1148 1.414 . S
C1147 C1150 1.499 . S
C1148 H1128 0.950 . S
C1148 C1147 1.414 . S
C1148 C1149 1.374 . S
C1149 H1129 0.950 . S
C1149 C1145 1.385 . S
C1149 C1148 1.374 . S
C1150 C1147 1.499 . S
C1150 C1151 1.373 . S
C1150 C1152 1.389 . S
C1151 H1130 0.950 . S
C1151 C1150 1.373 . S
C1151 C1167 1.377 . S
C1152 C1150 1.389 . S
C1152 C1153 1.524 . S
C1152 C1166 1.377 . S
C1153 C1152 1.524 . S
C1153 C1154 1.397 . S
C1153 C1158 1.363 . S
C1154 H1131 0.950 . S
C1154 C1153 1.397 . S
C1154 C1155 1.334 . S
C1155 H1132 0.950 . S
C1155 C1154 1.334 . S
C1155 C1156 1.287 . S
C1156 C1155 1.287 . S
C1156 C1157 1.524 . S
C1156 H1175 0.913 . S
C1157 H1133 0.950 . S
C1157 C1156 1.524 . S
C1157 C1158 1.415 . S
C1158 H1134 0.950 . S
C1158 C1153 1.363 . S
C1158 C1157 1.415 . S
C1159 H1135 0.951 . S
C1159 C1160 1.366 . S
C1159 C1161 1.388 . S
C1160 C1159 1.366 . S
C1160 C1164 1.385 . S
C1161 H1136 0.951 . S
C1161 C1159 1.388 . S
C1161 C1162 1.366 . S
C1162 C1161 1.366 . S
C1162 C1163 1.414 . S
C1162 C1165 1.499 . S
C1163 H1137 0.950 . S
C1163 C1162 1.414 . S
C1163 C1164 1.374 . S
C1164 H1138 0.950 . S
C1164 C1160 1.385 . S
C1164 C1163 1.374 . S
C1165 C1162 1.499 . S
C1165 C1166 1.373 . S
C1165 C1167 1.389 . S
C1166 H1139 0.950 . S
C1166 C1152 1.377 . S
C1166 C1165 1.373 . S
C1167 C1151 1.377 . S
C1167 C1165 1.389 . S
C1167 C1168 1.524 . S
C1168 C1167 1.524 . S
C1168 C1169 1.397 . S
C1168 C1173 1.363 . S
C1169 H1140 0.950 . S
C1169 C1168 1.397 . S
C1169 C1170 1.334 . S
C1170 H1141 0.950 . S
C1170 C1169 1.334 . S
C1170 C1171 1.287 . S
C1171 C1170 1.287 . S
C1171 C1172 1.524 . S
C1171 H1174 0.999 . S
C1172 H1142 0.950 . S
C1172 C1171 1.524 . S
C1172 C1173 1.415 . S
C1173 H1143 0.950 . S
C1173 C1168 1.363 . S
C1173 C1172 1.415 . S
H1174 C1171 0.999 . S
H1175 C1156 0.913 . S
H1176 C1194 0.951 . S
H1177 C1196 0.951 . S
H1178 C1198 0.950 . S
H1179 C1199 0.950 . S
H1180 C1201 0.950 . S
H1181 C1204 0.950 . S
H1182 C1205 0.950 . S
H1183 C1207 0.950 . S
H1184 C1208 0.950 . S
H1185 C1209 0.951 . S
H1186 C1211 0.951 . S
H1187 C1213 0.950 . S
H1188 C1214 0.950 . S
H1189 C1216 0.950 . S
H1190 C1219 0.950 . S
H1191 C1220 0.950 . S
H1192 C1222 0.950 . S
H1193 C1223 0.950 . S
C1194 H1176 0.951 . S
C1194 C1195 1.366 . S
C1194 C1196 1.388 . S
C1195 C1194 1.366 . S
C1195 C1199 1.385 . S
C1196 H1177 0.951 . S
C1196 C1194 1.388 . S
C1196 C1197 1.366 . S
C1197 C1196 1.366 . S
C1197 C1198 1.414 . S
C1197 C1200 1.499 . S
C1198 H1178 0.950 . S
C1198 C1197 1.414 . S
C1198 C1199 1.374 . S
C1199 H1179 0.950 . S
C1199 C1195 1.385 . S
C1199 C1198 1.374 . S
C1200 C1197 1.499 . S
C1200 C1201 1.373 . S
C1200 C1202 1.389 . S
C1201 H1180 0.950 . S
C1201 C1200 1.373 . S
C1201 C1217 1.377 . S
C1202 C1200 1.389 . S
C1202 C1203 1.524 . S
C1202 C1216 1.377 . S
C1203 C1202 1.524 . S
C1203 C1204 1.397 . S
C1203 C1208 1.363 . S
C1204 H1181 0.950 . S
C1204 C1203 1.397 . S
C1204 C1205 1.334 . S
C1205 H1182 0.950 . S
C1205 C1204 1.334 . S
C1205 C1206 1.287 . S
C1206 C1205 1.287 . S
C1206 C1207 1.524 . S
C1206 H1225 0.913 . S
C1207 H1183 0.950 . S
C1207 C1206 1.524 . S
C1207 C1208 1.415 . S
C1208 H1184 0.950 . S
C1208 C1203 1.363 . S
C1208 C1207 1.415 . S
C1209 H1185 0.951 . S
C1209 C1210 1.366 . S
C1209 C1211 1.388 . S
C1210 C1209 1.366 . S
C1210 C1214 1.385 . S
C1211 H1186 0.951 . S
C1211 C1209 1.388 . S
C1211 C1212 1.366 . S
C1212 C1211 1.366 . S
C1212 C1213 1.414 . S
C1212 C1215 1.499 . S
C1213 H1187 0.950 . S
C1213 C1212 1.414 . S
C1213 C1214 1.374 . S
C1214 H1188 0.950 . S
C1214 C1210 1.385 . S
C1214 C1213 1.374 . S
C1215 C1212 1.499 . S
C1215 C1216 1.373 . S
C1215 C1217 1.389 . S
C1216 H1189 0.950 . S
C1216 C1202 1.377 . S
C1216 C1215 1.373 . S
C1217 C1201 1.377 . S
C1217 C1215 1.389 . S
C1217 C1218 1.524 . S
C1218 C1217 1.524 . S
C1218 C1219 1.397 . S
C1218 C1223 1.363 . S
C1219 H1190 0.950 . S
C1219 C1218 1.397 . S
C1219 C1220 1.334 . S
C1220 H1191 0.950 . S
C1220 C1219 1.334 . S
C1220 C1221 1.287 . S
C1221 C1220 1.287 . S
C1221 C1222 1.524 . S
C1221 H1224 0.999 . S
C1222 H1192 0.950 . S
C1222 C1221 1.524 . S
C1222 C1223 1.415 . S
C1223 H1193 0.950 . S
C1223 C1218 1.363 . S
C1223 C1222 1.415 . S
H1224 C1221 0.999 . S
H1225 C1206 0.913 . S
H1226 C1244 0.951 . S
H1227 C1246 0.951 . S
H1228 C1248 0.950 . S
H1229 C1249 0.950 . S
H1230 C1251 0.950 . S
H1231 C1254 0.950 . S
H1232 C1255 0.950 . S
H1233 C1257 0.950 . S
H1234 C1258 0.950 . S
H1235 C1259 0.951 . S
H1236 C1261 0.951 . S
H1237 C1263 0.950 . S
H1238 C1264 0.950 . S
H1239 C1266 0.950 . S
H1240 C1269 0.950 . S
H1241 C1270 0.950 . S
H1242 C1272 0.950 . S
H1243 C1273 0.950 . S
C1244 H1226 0.951 . S
C1244 C1245 1.366 . S
C1244 C1246 1.388 . S
C1245 C1244 1.366 . S
C1245 C1249 1.385 . S
C1246 H1227 0.951 . S
C1246 C1244 1.388 . S
C1246 C1247 1.366 . S
C1247 C1246 1.366 . S
C1247 C1248 1.414 . S
C1247 C1250 1.499 . S
C1248 H1228 0.950 . S
C1248 C1247 1.414 . S
C1248 C1249 1.374 . S
C1249 H1229 0.950 . S
C1249 C1245 1.385 . S
C1249 C1248 1.374 . S
C1250 C1247 1.499 . S
C1250 C1251 1.373 . S
C1250 C1252 1.389 . S
C1251 H1230 0.950 . S
C1251 C1250 1.373 . S
C1251 C1267 1.377 . S
C1252 C1250 1.389 . S
C1252 C1253 1.524 . S
C1252 C1266 1.377 . S
C1253 C1252 1.524 . S
C1253 C1254 1.397 . S
C1253 C1258 1.363 . S
C1254 H1231 0.950 . S
C1254 C1253 1.397 . S
C1254 C1255 1.334 . S
C1255 H1232 0.950 . S
C1255 C1254 1.334 . S
C1255 C1256 1.287 . S
C1256 C1255 1.287 . S
C1256 C1257 1.524 . S
C1256 H1275 0.913 . S
C1257 H1233 0.950 . S
C1257 C1256 1.524 . S
C1257 C1258 1.415 . S
C1258 H1234 0.950 . S
C1258 C1253 1.363 . S
C1258 C1257 1.415 . S
C1259 H1235 0.951 . S
C1259 C1260 1.366 . S
C1259 C1261 1.388 . S
C1260 C1259 1.366 . S
C1260 C1264 1.385 . S
C1261 H1236 0.951 . S
C1261 C1259 1.388 . S
C1261 C1262 1.366 . S
C1262 C1261 1.366 . S
C1262 C1263 1.414 . S
C1262 C1265 1.499 . S
C1263 H1237 0.950 . S
C1263 C1262 1.414 . S
C1263 C1264 1.374 . S
C1264 H1238 0.950 . S
C1264 C1260 1.385 . S
C1264 C1263 1.374 . S
C1265 C1262 1.499 . S
C1265 C1266 1.373 . S
C1265 C1267 1.389 . S
C1266 H1239 0.950 . S
C1266 C1252 1.377 . S
C1266 C1265 1.373 . S
C1267 C1251 1.377 . S
C1267 C1265 1.389 . S
C1267 C1268 1.524 . S
C1268 C1267 1.524 . S
C1268 C1269 1.397 . S
C1268 C1273 1.363 . S
C1269 H1240 0.950 . S
C1269 C1268 1.397 . S
C1269 C1270 1.334 . S
C1270 H1241 0.950 . S
C1270 C1269 1.334 . S
C1270 C1271 1.287 . S
C1271 C1270 1.287 . S
C1271 C1272 1.524 . S
C1271 H1274 0.999 . S
C1272 H1242 0.950 . S
C1272 C1271 1.524 . S
C1272 C1273 1.415 . S
C1273 H1243 0.950 . S
C1273 C1268 1.363 . S
C1273 C1272 1.415 . S
H1274 C1271 0.999 . S
H1275 C1256 0.913 . S
H1276 C1294 0.951 . S
H1277 C1296 0.951 . S
H1278 C1298 0.950 . S
H1279 C1299 0.950 . S
H1280 C1301 0.950 . S
H1281 C1304 0.950 . S
H1282 C1305 0.950 . S
H1283 C1307 0.950 . S
H1284 C1308 0.950 . S
H1285 C1309 0.951 . S
H1286 C1311 0.951 . S
H1287 C1313 0.950 . S
H1288 C1314 0.950 . S
H1289 C1316 0.950 . S
H1290 C1319 0.950 . S
H1291 C1320 0.950 . S
H1292 C1322 0.950 . S
H1293 C1323 0.950 . S
C1294 H1276 0.951 . S
C1294 C1295 1.366 . S
C1294 C1296 1.388 . S
C1295 C1294 1.366 . S
C1295 C1299 1.385 . S
C1296 H1277 0.951 . S
C1296 C1294 1.388 . S
C1296 C1297 1.366 . S
C1297 C1296 1.366 . S
C1297 C1298 1.414 . S
C1297 C1300 1.499 . S
C1298 H1278 0.950 . S
C1298 C1297 1.414 . S
C1298 C1299 1.374 . S
C1299 H1279 0.950 . S
C1299 C1295 1.385 . S
C1299 C1298 1.374 . S
C1300 C1297 1.499 . S
C1300 C1301 1.373 . S
C1300 C1302 1.389 . S
C1301 H1280 0.950 . S
C1301 C1300 1.373 . S
C1301 C1317 1.377 . S
C1302 C1300 1.389 . S
C1302 C1303 1.524 . S
C1302 C1316 1.377 . S
C1303 C1302 1.524 . S
C1303 C1304 1.397 . S
C1303 C1308 1.363 . S
C1304 H1281 0.950 . S
C1304 C1303 1.397 . S
C1304 C1305 1.334 . S
C1305 H1282 0.950 . S
C1305 C1304 1.334 . S
C1305 C1306 1.287 . S
C1306 C1305 1.287 . S
C1306 C1307 1.524 . S
C1306 H1325 0.913 . S
C1307 H1283 0.950 . S
C1307 C1306 1.524 . S
C1307 C1308 1.415 . S
C1308 H1284 0.950 . S
C1308 C1303 1.363 . S
C1308 C1307 1.415 . S
C1309 H1285 0.951 . S
C1309 C1310 1.366 . S
C1309 C1311 1.388 . S
C1310 C1309 1.366 . S
C1310 C1314 1.385 . S
C1311 H1286 0.951 . S
C1311 C1309 1.388 . S
C1311 C1312 1.366 . S
C1312 C1311 1.366 . S
C1312 C1313 1.414 . S
C1312 C1315 1.499 . S
C1313 H1287 0.950 . S
C1313 C1312 1.414 . S
C1313 C1314 1.374 . S
C1314 H1288 0.950 . S
C1314 C1310 1.385 . S
C1314 C1313 1.374 . S
C1315 C1312 1.499 . S
C1315 C1316 1.373 . S
C1315 C1317 1.389 . S
C1316 H1289 0.950 . S
C1316 C1302 1.377 . S
C1316 C1315 1.373 . S
C1317 C1301 1.377 . S
C1317 C1315 1.389 . S
C1317 C1318 1.524 . S
C1318 C1317 1.524 . S
C1318 C1319 1.397 . S
C1318 C1323 1.363 . S
C1319 H1290 0.950 . S
C1319 C1318 1.397 . S
C1319 C1320 1.334 . S
C1320 H1291 0.950 . S
C1320 C1319 1.334 . S
C1320 C1321 1.287 . S
C1321 C1320 1.287 . S
C1321 C1322 1.524 . S
C1321 H1324 0.999 . S
C1322 H1292 0.950 . S
C1322 C1321 1.524 . S
C1322 C1323 1.415 . S
C1323 H1293 0.950 . S
C1323 C1318 1.363 . S
C1323 C1322 1.415 . S
H1324 C1321 0.999 . S
H1325 C1306 0.913 . S
H1326 C1344 0.951 . S
H1327 C1346 0.951 . S
H1328 C1348 0.950 . S
H1329 C1349 0.983 . S
H1330 C1351 0.950 . S
H1331 C1354 0.950 . S
H1332 C1355 0.950 . S
H1333 C1357 0.950 . S
H1334 C1358 0.950 . S
H1335 C1359 0.951 . S
H1336 C1361 0.951 . S
H1337 C1363 0.950 . S
H1338 C1364 0.950 . S
H1339 C1366 0.950 . S
H1340 C1369 0.950 . S
H1341 C1370 0.950 . S
H1342 C1372 0.950 . S
H1343 C1373 0.950 . S
C1344 H1326 0.951 . S
C1344 C1345 1.366 . S
C1344 C1346 1.388 . S
C1345 C1344 1.366 . S
C1345 C1349 1.370 1_556 S
C1346 H1327 0.951 . S
C1346 C1344 1.388 . S
C1346 C1347 1.366 . S
C1347 C1346 1.366 . S
C1347 C1348 1.414 . S
C1347 C1350 1.499 . S
C1348 H1328 0.950 . S
C1348 C1347 1.414 . S
C1348 C1349 1.356 1_556 S
C1349 H1329 0.983 . S
C1349 C1345 1.370 1_554 S
C1349 C1348 1.356 1_554 S
C1350 C1347 1.499 . S
C1350 C1351 1.373 . S
C1350 C1352 1.389 . S
C1351 H1330 0.950 . S
C1351 C1350 1.373 . S
C1351 C1367 1.377 . S
C1352 C1350 1.389 . S
C1352 C1353 1.524 . S
C1352 C1366 1.377 . S
C1353 C1352 1.524 . S
C1353 C1354 1.397 . S
C1353 C1358 1.363 . S
C1354 H1331 0.950 . S
C1354 C1353 1.397 . S
C1354 C1355 1.334 . S
C1355 H1332 0.950 . S
C1355 C1354 1.334 . S
C1355 C1356 1.287 . S
C1356 C1355 1.287 . S
C1356 C1357 1.524 . S
C1356 H1375 0.913 . S
C1357 H1333 0.950 . S
C1357 C1356 1.524 . S
C1357 C1358 1.415 . S
C1358 H1334 0.950 . S
C1358 C1353 1.363 . S
C1358 C1357 1.415 . S
C1359 H1335 0.951 . S
C1359 C1360 1.366 . S
C1359 C1361 1.388 . S
C1360 C1359 1.366 . S
C1360 C1364 1.385 . S
C1361 H1336 0.951 . S
C1361 C1359 1.388 . S
C1361 C1362 1.366 . S
C1362 C1361 1.366 . S
C1362 C1363 1.414 . S
C1362 C1365 1.499 . S
C1363 H1337 0.950 . S
C1363 C1362 1.414 . S
C1363 C1364 1.374 . S
C1364 H1338 0.950 . S
C1364 C1360 1.385 . S
C1364 C1363 1.374 . S
C1365 C1362 1.499 . S
C1365 C1366 1.373 . S
C1365 C1367 1.389 . S
C1366 H1339 0.950 . S
C1366 C1352 1.377 . S
C1366 C1365 1.373 . S
C1367 C1351 1.377 . S
C1367 C1365 1.389 . S
C1367 C1368 1.524 . S
C1368 C1367 1.524 . S
C1368 C1369 1.397 . S
C1368 C1373 1.363 . S
C1369 H1340 0.950 . S
C1369 C1368 1.397 . S
C1369 C1370 1.334 . S
C1370 H1341 0.950 . S
C1370 C1369 1.334 . S
C1370 C1371 1.287 . S
C1371 C1370 1.287 . S
C1371 C1372 1.524 . S
C1371 H1374 0.999 . S
C1372 H1342 0.950 . S
C1372 C1371 1.524 . S
C1372 C1373 1.415 . S
C1373 H1343 0.950 . S
C1373 C1368 1.363 . S
C1373 C1372 1.415 . S
H1374 C1371 0.999 . S
H1375 C1356 0.913 . S
C195 C8 1.378 . S
C210 C93 1.335 . S
C245 C31 1.295 . S
C260 C104 1.238 . S
C295 C53 1.303 . S
C310 C114 1.270 . S
C360 C126 1.303 . S
C345 C74 1.315 . S
C410 C137 1.334 . S
C395 C26 1.378 . S
C445 C48 1.314 . S
C460 C148 1.304 . S
C495 C71 1.304 . S
C510 C158 1.269 . S
C545 C5 1.296 . S
C560 C170 1.237 . S
C595 C50 1.236 . S
C610 C169 1.221 . S
C660 C136 1.085 . S
C645 C70 1.108 . S
C710 C147 1.235 . S
C695 C4 1.258 1_556 S
C745 C28 1.326 . S
C760 C159 1.312 . S
C810 C103 1.221 . S
C795 C73 1.236 . S
C845 C7 1.327 . S
C860 C115 1.311 . S
C910 C125 1.234 . S
C895 C30 1.259 . S
C960 C92 1.085 . S
C945 C52 1.108 . S
C1010 C164 1.390 . S
C995 C9 1.405 . S
C1060 C175 1.386 . S
C1045 C29 1.376 . S
C1095 C51 1.322 . S
C1110 C142 1.327 . S
C1160 C153 1.332 . S
C1145 C75 1.350 . S
C1210 C120 1.390 . S
C1195 C27 1.404 . S
C1245 C49 1.351 . S
C1260 C131 1.332 . S
C1310 C98 1.327 . S
C1295 C72 1.322 . S
C1360 C109 1.386 . S
C1345 C6 1.376 1_556 S
