# Generated by pormake.
# Topology pto, (3,4)-cn, num edge types: 1
# Building blocks:
#     Node 0, Type 0, BuildingBlock: OLANEW_clean_sbu_2, # of connection points: 3
#     Node 1, Type 0, BuildingBlock: OLANEW_clean_sbu_2, # of connection points: 3
#     Node 2, Type 0, BuildingBlock: OLANEW_clean_sbu_2, # of connection points: 3
#     Node 3, Type 0, BuildingBlock: OLANEW_clean_sbu_2, # of connection points: 3
#     Node 4, Type 0, BuildingBlock: OLANEW_clean_sbu_2, # of connection points: 3
#     Node 5, Type 0, BuildingBlock: OLANEW_clean_sbu_2, # of connection points: 3
#     Node 6, Type 0, BuildingBlock: OLANEW_clean_sbu_2, # of connection points: 3
#     Node 7, Type 0, BuildingBlock: OLANEW_clean_sbu_2, # of connection points: 3
#     Node 8, Type 1, BuildingBlock: NAWXER_clean_linker_0, # of connection points: 4
#     Node 9, Type 1, BuildingBlock: NAWXER_clean_linker_0, # of connection points: 4
#     Node 10, Type 1, BuildingBlock: NAWXER_clean_linker_0, # of connection points: 4
#     Node 11, Type 1, BuildingBlock: NAWXER_clean_linker_0, # of connection points: 4
#     Node 12, Type 1, BuildingBlock: NAWXER_clean_linker_0, # of connection points: 4
#     Node 13, Type 1, BuildingBlock: NAWXER_clean_linker_0, # of connection points: 4
#     Edge 14, Type (0, 1), BuildingBlock: KIFKEQ_clean_linker_1, # of connection points: 2
#     Edge 15, Type (0, 1), BuildingBlock: KIFKEQ_clean_linker_1, # of connection points: 2
#     Edge 16, Type (0, 1), BuildingBlock: KIFKEQ_clean_linker_1, # of connection points: 2
#     Edge 17, Type (0, 1), BuildingBlock: KIFKEQ_clean_linker_1, # of connection points: 2
#     Edge 18, Type (0, 1), BuildingBlock: KIFKEQ_clean_linker_1, # of connection points: 2
#     Edge 19, Type (0, 1), BuildingBlock: KIFKEQ_clean_linker_1, # of connection points: 2
#     Edge 20, Type (0, 1), BuildingBlock: KIFKEQ_clean_linker_1, # of connection points: 2
#     Edge 21, Type (0, 1), BuildingBlock: KIFKEQ_clean_linker_1, # of connection points: 2
#     Edge 22, Type (0, 1), BuildingBlock: KIFKEQ_clean_linker_1, # of connection points: 2
#     Edge 23, Type (0, 1), BuildingBlock: KIFKEQ_clean_linker_1, # of connection points: 2
#     Edge 24, Type (0, 1), BuildingBlock: KIFKEQ_clean_linker_1, # of connection points: 2
#     Edge 25, Type (0, 1), BuildingBlock: KIFKEQ_clean_linker_1, # of connection points: 2
#     Edge 26, Type (0, 1), BuildingBlock: KIFKEQ_clean_linker_1, # of connection points: 2
#     Edge 27, Type (0, 1), BuildingBlock: KIFKEQ_clean_linker_1, # of connection points: 2
#     Edge 28, Type (0, 1), BuildingBlock: KIFKEQ_clean_linker_1, # of connection points: 2
#     Edge 29, Type (0, 1), BuildingBlock: KIFKEQ_clean_linker_1, # of connection points: 2
#     Edge 30, Type (0, 1), BuildingBlock: KIFKEQ_clean_linker_1, # of connection points: 2
#     Edge 31, Type (0, 1), BuildingBlock: KIFKEQ_clean_linker_1, # of connection points: 2
#     Edge 32, Type (0, 1), BuildingBlock: KIFKEQ_clean_linker_1, # of connection points: 2
#     Edge 33, Type (0, 1), BuildingBlock: KIFKEQ_clean_linker_1, # of connection points: 2
#     Edge 34, Type (0, 1), BuildingBlock: KIFKEQ_clean_linker_1, # of connection points: 2
#     Edge 35, Type (0, 1), BuildingBlock: KIFKEQ_clean_linker_1, # of connection points: 2
#     Edge 36, Type (0, 1), BuildingBlock: KIFKEQ_clean_linker_1, # of connection points: 2
#     Edge 37, Type (0, 1), BuildingBlock: KIFKEQ_clean_linker_1, # of connection points: 2
# Relax obj value: 0.008
# Max RMSD: 0.126
# Mean RMSD: 0.054
data_MOF--net-pto--node1-OLANEW_clean_sbu_2--node2-NAWXER_clean_linker_0--edge1-KIFKEQ_clean_linker_1
_symmetry_space_group_name_H-M    P1
_symmetry_Int_Tables_number       1
_symmetry_cell_setting            triclinic
loop_
_symmetry_equiv_pos_as_xyz
'x, y, z'
_cell_length_a     43.392066
_cell_length_b     61.434339
_cell_length_c     52.616558
_cell_angle_alpha  92.461478
_cell_angle_beta   89.966259
_cell_angle_gamma 104.61181
loop_
_atom_site_label
_atom_site_type_symbol
_atom_site_fract_x
_atom_site_fract_y
_atom_site_fract_z
_atom_type_partial_charge
O0 O 0.337 0.33679 0.2644 0.0
Cd1 Cd 0.30574 0.33973 0.30236 0.0
O2 O 0.31653 0.35986 0.24302 0.0
Cd3 Cd 0.28648 0.36743 0.27372 0.0
O4 O 0.25348 0.38431 0.29257 0.0
C5 C 0.25275 0.40295 0.28336 0.0
O6 O 0.27171 0.4103 0.26438 0.0
C7 C 0.33511 0.3469 0.24411 0.0
C8 C 0.30601 0.30395 0.33304 0.0
O9 O 0.28532 0.30197 0.31516 0.0
O10 O 0.32628 0.32301 0.3367 0.0
O11 O 0.31773 0.89787 0.78398 0.0
Cd12 Cd 0.27652 0.91061 0.76165 0.0
O13 O 0.29611 0.86381 0.76864 0.0
Cd14 Cd 0.28517 0.82704 0.76537 0.0
O15 O 0.26096 0.7917 0.75718 0.0
C16 C 0.23396 0.78399 0.76719 0.0
O17 O 0.22242 0.79729 0.78263 0.0
C18 C 0.31701 0.87705 0.78283 0.0
C19 C 0.29436 0.93198 0.71632 0.0
O20 O 0.29916 0.94298 0.73782 0.0
O21 O 0.28191 0.9107 0.7163 0.0
O22 O 0.80622 0.79407 0.2937 0.0
Cd23 Cd 0.80124 0.76448 0.26032 0.0
O24 O 0.75987 0.77918 0.3108 0.0
Cd25 Cd 0.74431 0.75637 0.27775 0.0
O26 O 0.7169 0.75143 0.24224 0.0
C27 C 0.69872 0.76462 0.24047 0.0
O28 O 0.69784 0.77892 0.2596 0.0
C29 C 0.78614 0.79416 0.31128 0.0
C30 C 0.82701 0.73027 0.27698 0.0
O31 O 0.84468 0.74802 0.26765 0.0
O32 O 0.79699 0.72853 0.27823 0.0
O33 O 0.76767 0.29188 0.66478 0.0
Cd34 Cd 0.72809 0.25655 0.67159 0.0
O35 O 0.7328 0.31182 0.67233 0.0
Cd36 Cd 0.69414 0.28369 0.68334 0.0
O37 O 0.66091 0.26941 0.713 0.0
C38 C 0.67296 0.27201 0.73527 0.0
O39 O 0.70358 0.28145 0.73803 0.0
C40 C 0.76085 0.31084 0.66641 0.0
C41 C 0.74116 0.22032 0.64383 0.0
O42 O 0.724 0.2322 0.63434 0.0
O43 O 0.7522 0.22562 0.66648 0.0
O44 O 0.78266 0.78367 0.65073 0.0
Cd45 Cd 0.77008 0.75215 0.67923 0.0
O46 O 0.78746 0.80858 0.68276 0.0
Cd47 Cd 0.77083 0.78476 0.71246 0.0
O48 O 0.74357 0.77684 0.74727 0.0
C49 C 0.71354 0.76887 0.74609 0.0
O50 O 0.69963 0.76388 0.72367 0.0
C51 C 0.78894 0.80407 0.65905 0.0
C52 C 0.81217 0.72434 0.67616 0.0
O53 O 0.7874 0.72052 0.66176 0.0
O54 O 0.81732 0.74151 0.69177 0.0
O55 O 0.80536 0.28572 0.30535 0.0
Cd56 Cd 0.7729 0.24893 0.28979 0.0
O57 O 0.77156 0.30351 0.29043 0.0
Cd58 Cd 0.73846 0.2748 0.2712 0.0
O59 O 0.70463 0.26343 0.23968 0.0
C60 C 0.71418 0.27088 0.21812 0.0
O61 O 0.74348 0.28334 0.21625 0.0
C62 C 0.79718 0.30393 0.30239 0.0
C63 C 0.77796 0.21391 0.32046 0.0
O64 O 0.79723 0.2199 0.30208 0.0
O65 O 0.75642 0.22458 0.32443 0.0
O66 O 0.26739 0.3224 0.74751 0.0
Cd67 Cd 0.23713 0.32305 0.70823 0.0
O68 O 0.30635 0.35206 0.74002 0.0
Cd69 Cd 0.29124 0.3486 0.70023 0.0
O70 O 0.28939 0.32438 0.66826 0.0
C71 C 0.30563 0.31027 0.67226 0.0
O72 O 0.32138 0.31206 0.6939 0.0
C73 C 0.29279 0.33676 0.75478 0.0
C74 C 0.20427 0.35689 0.70832 0.0
O75 O 0.19171 0.33771 0.71752 0.0
O76 O 0.23248 0.36017 0.69939 0.0
O77 O 0.35628 0.84313 0.26592 0.0
Cd78 Cd 0.33074 0.83845 0.30759 0.0
O79 O 0.31144 0.83008 0.24446 0.0
Cd80 Cd 0.28049 0.82292 0.27737 0.0
O81 O 0.23952 0.80052 0.29474 0.0
C82 C 0.24334 0.78664 0.31094 0.0
O83 O 0.27234 0.7872 0.31866 0.0
C84 C 0.34151 0.8379 0.24478 0.0
C85 C 0.32935 0.87864 0.33388 0.0
O86 O 0.35435 0.87114 0.33408 0.0
O87 O 0.30512 0.86734 0.32093 0.0
C88 C 0.96416 0.46581 0.31997 0.0
C89 C 0.94226 0.45814 0.33937 0.0
C90 C 0.98211 0.48818 0.32041 0.0
C91 C 0.97874 0.5033 0.34035 0.0
C92 C 0.93912 0.47335 0.3594 0.0
C93 C 0.95701 0.49575 0.35976 0.0
C94 C -0.00383 0.52731 0.34017 0.0
C95 C 0.07122 0.48833 0.34931 0.0
C96 C 0.0951 0.49255 0.33078 0.0
C97 C 0.04953 0.50177 0.35153 0.0
C98 C 0.051 0.5193 0.33485 0.0
C99 C 0.09645 0.51007 0.3142 0.0
C100 C 0.0747 0.52328 0.31624 0.0
C101 C 0.02955 0.53461 0.33716 0.0
C102 C 0.0558 0.63547 0.35017 0.0
C103 C 0.07889 0.64152 0.33125 0.0
C104 C 0.03789 0.61317 0.35147 0.0
C105 C 0.04284 0.59653 0.3339 0.0
C106 C 0.08354 0.62486 0.31357 0.0
C107 C 0.06586 0.60257 0.31501 0.0
C108 C 0.0257 0.57261 0.33604 0.0
C109 C 0.95211 0.60451 0.3062 0.0
C110 C 0.9335 0.61043 0.32586 0.0
C111 C 0.97119 0.58981 0.31042 0.0
C112 C 0.97166 0.58054 0.33427 0.0
C113 C 0.9339 0.60109 0.34976 0.0
C114 C 0.95255 0.58596 0.35383 0.0
C115 C -0.00761 0.5653 0.33837 0.0
H116 H 0.96671 0.45473 0.30397 0.0
H117 H -0.0019 0.49378 0.30484 0.0
H118 H 0.92274 0.46799 0.37477 0.0
H119 H 0.95389 0.5072 0.37522 0.0
H120 H 0.06985 0.47504 0.36246 0.0
H121 H 0.0321 0.49874 0.36655 0.0
H122 H 0.11431 0.51351 0.2995 0.0
H123 H 0.07642 0.53668 0.30316 0.0
H124 H 0.0517 0.64797 0.36403 0.0
H125 H 0.02078 0.60883 0.36658 0.0
H126 H 0.10149 0.62894 0.29901 0.0
H127 H 0.07027 0.58998 0.3014 0.0
H128 H 0.95239 0.61163 0.28768 0.0
H129 H 0.98567 0.58569 0.29506 0.0
H130 H 0.91965 0.60541 0.36517 0.0
H131 H 0.95262 0.57887 0.37233 0.0
N132 N 0.97881 0.54296 0.34058 0.0
N133 N 0.04292 0.55699 0.33531 0.0
C134 C 0.96012 0.4615 0.66142 0.0
C135 C 0.93102 0.45658 0.6745 0.0
C136 C 0.98132 0.48284 0.66431 0.0
C137 C 0.97413 0.4995 0.68076 0.0
C138 C 0.92354 0.47362 0.6902 0.0
C139 C 0.94484 0.49473 0.69332 0.0
C140 C -0.00413 0.5223 0.68441 0.0
C141 C 0.0518 0.47395 0.70906 0.0
C142 C 0.08018 0.47521 0.69556 0.0
C143 C 0.03512 0.49055 0.70695 0.0
C144 C 0.04609 0.50852 0.69089 0.0
C145 C 0.09145 0.49356 0.67998 0.0
C146 C 0.07463 0.51003 0.67774 0.0
C147 C 0.02909 0.5265 0.68869 0.0
C148 C 0.06465 0.62319 0.72582 0.0
C149 C 0.09448 0.63074 0.71429 0.0
C150 C 0.04448 0.60231 0.71852 0.0
C151 C 0.05349 0.58867 0.69926 0.0
C152 C 0.10355 0.61695 0.69517 0.0
C153 C 0.08332 0.59607 0.68784 0.0
C154 C 0.03297 0.56605 0.69228 0.0
C155 C 0.97693 0.61512 0.66988 0.0
C156 C 0.94754 0.61258 0.68224 0.0
C157 C -0.00578 0.59882 0.67169 0.0
C158 C 0.98267 0.57982 0.68619 0.0
C159 C 0.93605 0.5935 0.69664 0.0
C160 C 0.95334 0.57728 0.69848 0.0
C161 C -0.00012 0.56186 0.68761 0.0
H162 H 0.96669 0.44884 0.64916 0.0
H163 H 0.00325 0.48629 0.65365 0.0
H164 H 0.90101 0.47076 0.69998 0.0
H165 H 0.93842 0.50738 0.70575 0.0
H166 H 0.04229 0.46005 0.72114 0.0
H167 H 0.01371 0.48935 0.71796 0.0
H168 H 0.11355 0.4954 0.66975 0.0
H169 H 0.08391 0.52397 0.66562 0.0
H170 H 0.05682 0.63343 0.74048 0.0
H171 H 0.02203 0.59671 0.72821 0.0
H172 H 0.12656 0.6221 0.6862 0.0
H173 H 0.09099 0.58567 0.67326 0.0
H174 H 0.98621 0.62942 0.6583 0.0
H175 H 0.0163 0.60089 0.66137 0.0
H176 H 0.91373 0.59114 0.70667 0.0
H177 H 0.94383 0.56273 0.70968 0.0
N178 N 0.98272 0.54016 0.68409 0.0
N179 N 0.04628 0.54824 0.69233 0.0
C180 C 0.28926 0.16437 0.45583 0.0
C181 C 0.31253 0.17115 0.43724 0.0
C182 C 0.28944 0.14604 0.47053 0.0
C183 C 0.31339 0.13446 0.4674 0.0
C184 C 0.33574 0.15902 0.43338 0.0
C185 C 0.33614 0.14081 0.44834 0.0
C186 C 0.31433 0.11548 0.48357 0.0
C187 C 0.33227 0.1771 0.53575 0.0
C188 C 0.30835 0.17701 0.55382 0.0
C189 C 0.33296 0.15746 0.52159 0.0
C190 C 0.30951 0.13738 0.52497 0.0
C191 C 0.28512 0.15681 0.55737 0.0
C192 C 0.28583 0.13716 0.54319 0.0
C193 C 0.31023 0.11642 0.51023 0.0
C194 C 0.33438 0.03097 0.54527 0.0
C195 C 0.30933 0.0248 0.56259 0.0
C196 C 0.33449 0.04766 0.52797 0.0
C197 C 0.30959 0.05849 0.52779 0.0
C198 C 0.28413 0.03534 0.56194 0.0
C199 C 0.28442 0.05215 0.54486 0.0
C200 C 0.31098 0.07781 0.51165 0.0
C201 C 0.29446 0.01783 0.45588 0.0
C202 C 0.32164 0.01745 0.44135 0.0
C203 C 0.29295 0.03704 0.47057 0.0
C204 C 0.31837 0.05637 0.47081 0.0
C205 C 0.34723 0.03688 0.442 0.0
C206 C 0.3454 0.05621 0.45631 0.0
C207 C 0.31622 0.07709 0.48519 0.0
H208 H 0.27068 0.17311 0.4588 0.0
H209 H 0.27083 0.14094 0.48438 0.0
H210 H 0.35394 0.16389 0.41915 0.0
H211 H 0.35458 0.13195 0.44535 0.0
H212 H 0.35044 0.19238 0.53247 0.0
H213 H 0.35195 0.15795 0.50809 0.0
H214 H 0.26671 0.15607 0.57145 0.0
H215 H 0.26773 0.12181 0.54634 0.0
H216 H 0.35409 0.0231 0.54534 0.0
H217 H 0.35454 0.05262 0.51536 0.0
H218 H 0.26474 0.03118 0.5753 0.0
H219 H 0.26516 0.06047 0.54521 0.0
H220 H 0.27395 0.00349 0.45552 0.0
H221 H 0.27161 0.03697 0.48131 0.0
H222 H 0.36884 0.0372 0.43158 0.0
H223 H 0.36526 0.07101 0.45626 0.0
N224 N 0.31761 0.09593 0.47211 0.0
N225 N 0.30828 0.09746 0.52316 0.0
C226 C 0.48277 0.82608 0.90867 0.0
C227 C 0.44949 0.81773 0.90709 0.0
C228 C 0.50005 0.82007 0.9285 0.0
C229 C 0.48441 0.80525 0.94678 0.0
C230 C 0.43403 0.80264 0.92515 0.0
C231 C 0.4513 0.79653 0.9448 0.0
C232 C 0.50142 0.80047 0.96945 0.0
C233 C 0.54857 0.77471 0.90185 0.0
C234 C 0.58166 0.78406 0.90066 0.0
C235 C 0.53169 0.77798 0.92378 0.0
C236 C 0.5475 0.79094 0.94478 0.0
C237 C 0.59741 0.79664 0.92195 0.0
C238 C 0.58053 0.8 0.94371 0.0
C239 C 0.53064 0.79421 0.96858 0.0
C240 C 0.54548 0.76887 0.0765 0.0
C241 C 0.57838 0.77806 0.08024 0.0
C242 C 0.53005 0.77369 0.05493 0.0
C243 C 0.54715 0.78798 0.0368 0.0
C244 C 0.59553 0.79191 0.06171 0.0
C245 C 0.58009 0.79671 0.04015 0.0
C246 C 0.53111 0.79338 0.01396 0.0
C247 C 0.49138 0.82502 0.08071 0.0
C248 C 0.4582 0.81772 0.08349 0.0
C249 C 0.5059 0.8194 0.05851 0.0
C250 C 0.48761 0.80589 0.0389 0.0
C251 C 0.43988 0.80459 0.06366 0.0
C252 C 0.45444 0.79878 0.04158 0.0
C253 C 0.50247 0.80034 0.01488 0.0
H254 H 0.49524 0.838 0.89523 0.0
H255 H 0.52542 0.82762 0.93001 0.0
H256 H 0.40846 0.79579 0.92429 0.0
H257 H 0.43867 0.7852 0.95875 0.0
H258 H 0.53566 0.76499 0.88581 0.0
H259 H 0.50637 0.77018 0.92437 0.0
H260 H 0.62294 0.80365 0.92199 0.0
H261 H 0.59338 0.80976 0.95978 0.0
H262 H 0.53168 0.75779 0.09014 0.0
H263 H 0.50478 0.76618 0.05238 0.0
H264 H 0.62081 0.79946 0.06412 0.0
H265 H 0.5938 0.80762 0.02631 0.0
H266 H 0.50603 0.83547 0.09549 0.0
H267 H 0.53136 0.82592 0.05657 0.0
H268 H 0.41428 0.7986 0.06533 0.0
H269 H 0.43977 0.78859 0.02662 0.0
N270 N 0.48861 0.80329 -0.00742 0.0
N271 N 0.54422 0.7909 0.9909 0.0
C272 C 0.76686 0.07523 0.44527 0.0
C273 C 0.79049 0.08319 0.42723 0.0
C274 C 0.76823 0.0571 0.46 0.0
C275 C 0.79358 0.04678 0.45732 0.0
C276 C 0.81538 0.07244 0.42411 0.0
C277 C 0.81682 0.05437 0.43895 0.0
C278 C 0.79549 0.02768 0.473 0.0
C279 C 0.80542 0.0881 0.52625 0.0
C280 C 0.78066 0.08601 0.54396 0.0
C281 C 0.80936 0.06927 0.51202 0.0
C282 C 0.7883 0.04806 0.51493 0.0
C283 C 0.76014 0.06463 0.54729 0.0
C284 C 0.76402 0.04584 0.53298 0.0
C285 C 0.79176 0.02799 0.49973 0.0
C286 C 0.82289 0.94191 0.52816 0.0
C287 C 0.79865 0.93398 0.54576 0.0
C288 C 0.82213 0.96013 0.51335 0.0
C289 C 0.79701 0.97069 0.51568 0.0
C290 C 0.77368 0.94475 0.54816 0.0
C291 C 0.77301 0.96301 0.53341 0.0
C292 C 0.79593 0.99003 0.50016 0.0
C293 C 0.77957 0.92959 0.44662 0.0
C294 C 0.8042 0.93022 0.42906 0.0
C295 C 0.77806 0.94888 0.46105 0.0
C296 C 0.80129 0.96918 0.45839 0.0
C297 C 0.82723 0.95067 0.42625 0.0
C298 C 0.82565 0.97 0.44067 0.0
C299 C 0.79959 0.9897 0.47348 0.0
H300 H 0.74701 0.08282 0.44775 0.0
H301 H 0.74938 0.05107 0.47341 0.0
H302 H 0.83404 0.07823 0.41048 0.0
H303 H 0.83641 0.04652 0.43636 0.0
H304 H 0.82199 0.10425 0.52361 0.0
H305 H 0.8289 0.07129 0.49879 0.0
H306 H 0.74069 0.06249 0.56062 0.0
H307 H 0.74766 0.0296 0.53569 0.0
H308 H 0.84278 0.93433 0.52616 0.0
H309 H 0.84137 0.96613 0.50025 0.0
H310 H 0.7544 0.93893 0.56126 0.0
H311 H 0.75346 0.97094 0.53557 0.0
H312 H 0.76102 0.91429 0.44884 0.0
H313 H 0.7585 0.948 0.47409 0.0
H314 H 0.84664 0.95171 0.41303 0.0
H315 H 0.84367 0.98555 0.43822 0.0
N316 N 0.79946 0.00857 0.46094 0.0
N317 N 0.79193 0.00911 0.51223 0.0
C318 C 0.45269 0.31454 0.90496 0.0
C319 C 0.41918 0.30909 0.90642 0.0
C320 C 0.47114 0.30952 0.92461 0.0
C321 C 0.45656 0.29795 0.9457 0.0
C322 C 0.40484 0.29846 0.92818 0.0
C323 C 0.42323 0.2928 0.94738 0.0
C324 C 0.47536 0.29263 0.96714 0.0
C325 C 0.51164 0.26172 0.89716 0.0
C326 C 0.54469 0.2692 0.89373 0.0
C327 C 0.4979 0.2667 0.92007 0.0
C328 C 0.51692 0.27985 0.93957 0.0
C329 C 0.56367 0.28192 0.91344 0.0
C330 C 0.54993 0.28719 0.93608 0.0
C331 C 0.50348 0.28503 0.96432 0.0
C332 C 0.5329 0.26433 0.0716 0.0
C333 C 0.56616 0.27291 0.07155 0.0
C334 C 0.5142 0.26829 0.0515 0.0
C335 C 0.52837 0.28127 0.03124 0.0
C336 C 0.58029 0.28551 0.051 0.0
C337 C 0.5616 0.28957 0.03104 0.0
C338 C 0.50922 0.28556 0.00958 0.0
C339 C 0.47469 0.31856 0.07842 0.0
C340 C 0.44224 0.3097 0.08357 0.0
C341 C 0.48757 0.31297 0.05541 0.0
C342 C 0.4683 0.29821 0.03731 0.0
C343 C 0.42307 0.29495 0.06536 0.0
C344 C 0.43594 0.28939 0.04241 0.0
C345 C 0.48104 0.29286 0.0124 0.0
H346 H 0.46489 0.32258 0.88858 0.0
H347 H 0.49681 0.31483 0.92326 0.0
H348 H 0.37932 0.29463 0.9307 0.0
H349 H 0.41127 0.28442 0.9637 0.0
H350 H 0.49657 0.2517 0.8823 0.0
H351 H 0.47253 0.26016 0.92259 0.0
H352 H 0.58917 0.28808 0.9112 0.0
H353 H 0.56517 0.29716 0.95088 0.0
H354 H 0.52138 0.25426 0.08697 0.0
H355 H 0.48873 0.26102 0.05172 0.0
H356 H 0.60581 0.29256 0.05053 0.0
H357 H 0.57312 0.29948 0.01553 0.0
H358 H 0.48996 0.33025 0.09187 0.0
H359 H 0.51241 0.3205 0.05159 0.0
H360 H 0.39808 0.28762 0.06886 0.0
H361 H 0.42062 0.27808 0.02863 0.0
N362 N 0.46525 0.296 0.99112 0.0
N363 N 0.5193 0.28204 0.98567 0.0
H364 H 0.20862 0.3923 0.3213 0.0
H365 H 0.2462 0.44301 0.26713 0.0
H366 H 0.17119 0.41381 0.3362 0.0
H367 H 0.20868 0.46409 0.28158 0.0
H368 H 0.15926 0.50807 0.32646 0.0
H369 H 0.19814 0.48625 0.31799 0.0
H370 H 0.12366 0.42465 0.32107 0.0
H371 H 0.08472 0.44665 0.32998 0.0
C372 C 0.20894 0.40802 0.31261 0.0
C373 C 0.23043 0.41596 0.29305 0.0
C374 C 0.1874 0.42027 0.32106 0.0
C375 C 0.18706 0.44072 0.31018 0.0
C376 C 0.20868 0.44863 0.29072 0.0
C377 C 0.23009 0.43643 0.2823 0.0
C378 C 0.15124 0.48986 0.32547 0.0
C379 C 0.11893 0.47904 0.32852 0.0
C380 C 0.17348 0.47736 0.32056 0.0
C381 C 0.16392 0.45372 0.31844 0.0
C382 C 0.13182 0.44283 0.32271 0.0
C383 C 0.10952 0.4554 0.32778 0.0
H384 H 0.17593 0.76256 0.78569 0.0
H385 H 0.24876 0.75307 0.73339 0.0
H386 H 0.14323 0.72527 0.77316 0.0
H387 H 0.21615 0.71556 0.72114 0.0
H388 H 0.1313 0.66236 0.68434 0.0
H389 H 0.1662 0.69877 0.69777 0.0
H390 H 0.14157 0.68537 0.77612 0.0
H391 H 0.10681 0.64895 0.76274 0.0
C392 C 0.18509 0.75246 0.77166 0.0
C393 C 0.21493 0.76083 0.7605 0.0
C394 C 0.16639 0.73102 0.76458 0.0
C395 C 0.17706 0.71746 0.74612 0.0
C396 C 0.20709 0.72571 0.73518 0.0
C397 C 0.22585 0.74715 0.74233 0.0
C398 C 0.1336 0.66708 0.70446 0.0
C399 C 0.11615 0.65278 0.72245 0.0
C400 C 0.15362 0.68794 0.71215 0.0
C401 C 0.15661 0.69498 0.73801 0.0
C402 C 0.1394 0.68059 0.75602 0.0
C403 C 0.11944 0.65973 0.74834 0.0
H404 H 0.88908 0.73364 0.28935 0.0
H405 H 0.79646 0.68647 0.28507 0.0
H406 H 0.91247 0.70395 0.30364 0.0
H407 H 0.82012 0.65667 0.29895 0.0
H408 H 0.89004 0.60851 0.28803 0.0
H409 H 0.8622 0.63723 0.27812 0.0
H410 H 0.90729 0.67829 0.34303 0.0
H411 H 0.93478 0.64934 0.35317 0.0
C412 C 0.87373 0.71694 0.29147 0.0
C413 C 0.84096 0.71235 0.28603 0.0
C414 C 0.88709 0.70002 0.2998 0.0
C415 C 0.86805 0.67809 0.30243 0.0
C416 C 0.83528 0.67346 0.29702 0.0
C417 C 0.82179 0.6905 0.28914 0.0
C418 C 0.89363 0.62356 0.30032 0.0
C419 C 0.91448 0.62679 0.32134 0.0
C420 C 0.87765 0.6399 0.29473 0.0
C421 C 0.88272 0.65995 0.30978 0.0
C422 C 0.90312 0.663 0.33109 0.0
C423 C 0.91864 0.64644 0.33697 0.0
H424 H 0.75695 0.35357 0.67862 0.0
H425 H 0.82167 0.31597 0.64843 0.0
H426 H 0.79959 0.38803 0.67895 0.0
H427 H 0.86438 0.35086 0.64848 0.0
H428 H 0.91658 0.42821 0.63173 0.0
H429 H 0.87634 0.39218 0.62744 0.0
H430 H 0.853 0.3982 0.70669 0.0
H431 H 0.89388 0.43345 0.71146 0.0
C432 C 0.78013 0.35267 0.67169 0.0
C433 C 0.78596 0.33196 0.66367 0.0
C434 C 0.80454 0.37241 0.67201 0.0
C435 C 0.83521 0.37198 0.66396 0.0
C436 C 0.84085 0.35155 0.65476 0.0
C437 C 0.81646 0.33164 0.6548 0.0
C438 C 0.90333 0.42166 0.64837 0.0
C439 C 0.90822 0.43396 0.67187 0.0
C440 C 0.88024 0.4011 0.64584 0.0
C441 C 0.8614 0.39269 0.66665 0.0
C442 C 0.86688 0.40458 0.69024 0.0
C443 C 0.89019 0.42485 0.69289 0.0
H444 H 0.34048 0.30429 0.37659 0.0
H445 H 0.27366 0.25995 0.32466 0.0
H446 H 0.34267 0.27221 0.4018 0.0
H447 H 0.27597 0.22794 0.34987 0.0
H448 H 0.31831 0.17432 0.38574 0.0
H449 H 0.31707 0.20669 0.36058 0.0
H450 H 0.30511 0.24466 0.42925 0.0
H451 H 0.30656 0.21237 0.45439 0.0
C452 C 0.32624 0.28772 0.37058 0.0
C453 C 0.30687 0.28465 0.34865 0.0
C454 C 0.32741 0.2694 0.38506 0.0
C455 C 0.30955 0.24761 0.37773 0.0
C456 C 0.29023 0.24453 0.3558 0.0
C457 C 0.28876 0.26288 0.34148 0.0
C458 C 0.31564 0.18964 0.39542 0.0
C459 C 0.31247 0.19085 0.42198 0.0
C460 C 0.31467 0.20807 0.38104 0.0
C461 C 0.31092 0.22814 0.39298 0.0
C462 C 0.30821 0.22944 0.41957 0.0
C463 C 0.3088 0.21094 0.43392 0.0
H464 H 0.34165 0.84029 0.77451 0.0
H465 H 0.34111 0.89495 0.82877 0.0
H466 H 0.37432 0.82548 0.80393 0.0
H467 H 0.37406 0.88044 0.85783 0.0
H468 H 0.39551 0.83186 0.91472 0.0
H469 H 0.36457 0.84591 0.8836 0.0
H470 H 0.42993 0.83646 0.82473 0.0
H471 H 0.46095 0.82212 0.85601 0.0
C472 C 0.34827 0.84901 0.79276 0.0
C473 C 0.33825 0.86849 0.79957 0.0
C474 C 0.36731 0.84072 0.80943 0.0
C475 C 0.37642 0.85169 0.83327 0.0
C476 C 0.367 0.87146 0.83975 0.0
C477 C 0.34831 0.87983 0.82303 0.0
C478 C 0.40314 0.83257 0.8951 0.0
C479 C 0.43059 0.82582 0.88777 0.0
C480 C 0.38558 0.84081 0.87733 0.0
C481 C 0.39492 0.84237 0.85177 0.0
C482 C 0.42213 0.83534 0.84429 0.0
C483 C 0.43996 0.8273 0.86219 0.0
H484 H 0.83721 0.83088 0.31545 0.0
H485 H 0.74881 0.79943 0.35187 0.0
H486 H 0.8446 0.86316 0.34549 0.0
H487 H 0.75611 0.83183 0.38169 0.0
H488 H 0.79156 0.88658 0.44366 0.0
H489 H 0.79001 0.8528 0.417 0.0
H490 H 0.81767 0.89384 0.35213 0.0
H491 H 0.81886 0.92754 0.37862 0.0
C492 C 0.8195 0.83073 0.33 0.0
C493 C 0.79229 0.81262 0.33114 0.0
C494 C 0.82367 0.84929 0.34711 0.0
C495 C 0.80082 0.85011 0.36582 0.0
C496 C 0.77426 0.83162 0.36761 0.0
C497 C 0.77001 0.81309 0.35043 0.0
C498 C 0.79722 0.88839 0.42369 0.0
C499 C 0.80519 0.90977 0.41326 0.0
C500 C 0.7964 0.86904 0.40845 0.0
C501 C 0.80369 0.87066 0.38247 0.0
C502 C 0.81239 0.89206 0.37217 0.0
C503 C 0.81309 0.91139 0.38737 0.0
H504 H 0.69167 0.27862 0.78496 0.0
H505 H 0.60828 0.25403 0.73697 0.0
H506 H 0.65836 0.27415 0.82232 0.0
H507 H 0.57476 0.24885 0.7747 0.0
H508 H 0.5271 0.27537 0.84528 0.0
H509 H 0.55651 0.2722 0.80625 0.0
H510 H 0.6253 0.24813 0.84908 0.0
H511 H 0.59638 0.25202 0.88805 0.0
C512 C 0.66622 0.27188 0.78239 0.0
C513 C 0.65264 0.26683 0.75795 0.0
C514 C 0.64707 0.26915 0.8039 0.0
C515 C 0.6138 0.26113 0.80158 0.0
C516 C 0.60025 0.25534 0.77716 0.0
C517 C 0.61948 0.25817 0.75555 0.0
C518 C 0.54822 0.26904 0.84618 0.0
C519 C 0.55974 0.26422 0.86966 0.0
C520 C 0.56504 0.26715 0.82384 0.0
C521 C 0.59355 0.26019 0.82455 0.0
C522 C 0.6039 0.25408 0.84791 0.0
C523 C 0.5873 0.25621 0.87022 0.0
H524 H 0.32629 0.97578 0.71016 0.0
H525 H 0.27752 0.91493 0.668 0.0
H526 H 0.33277 0.99624 0.67102 0.0
H527 H 0.28413 0.93547 0.62879 0.0
H528 H 0.26097 0.98983 0.57709 0.0
H529 H 0.26075 0.96574 0.61287 0.0
H530 H 0.35946 -0.00104 0.6287 0.0
H531 H 0.35954 0.02327 0.5931 0.0
C532 C 0.31731 0.9667 0.6925 0.0
C533 C 0.30122 0.94377 0.69222 0.0
C534 C 0.32119 0.9784 0.67005 0.0
C535 C 0.30885 0.96747 0.64686 0.0
C536 C 0.29362 0.94437 0.64643 0.0
C537 C 0.28999 0.9326 0.66887 0.0
C538 C 0.28268 0.99183 0.5881 0.0
C539 C 0.31022 0.00848 0.58239 0.0
C540 C 0.28264 0.97793 0.60844 0.0
C541 C 0.31007 0.98053 0.62364 0.0
C542 C 0.33791 -0.0033 0.61743 0.0
C543 C 0.33803 0.01047 0.59693 0.0
H544 H 0.65838 0.79105 0.23164 0.0
H545 H 0.69596 0.7384 0.1965 0.0
H546 H 0.62853 0.79254 0.19301 0.0
H547 H 0.66538 0.7396 0.1578 0.0
H548 H 0.63716 0.7695 0.08443 0.0
H549 H 0.66514 0.76482 0.12321 0.0
H550 H 0.58384 0.77116 0.16764 0.0
H551 H 0.55644 0.77679 0.12904 0.0
C552 C 0.66008 0.77963 0.21573 0.0
C553 C 0.67963 0.76463 0.21715 0.0
C554 C 0.64275 0.78039 0.1936 0.0
C555 C 0.64447 0.76615 0.17232 0.0
C556 C 0.66378 0.75096 0.17378 0.0
C557 C 0.68117 0.75019 0.196 0.0
C558 C 0.62532 0.76999 0.10249 0.0
C559 C 0.59464 0.77368 0.10363 0.0
C560 C 0.64121 0.76703 0.12469 0.0
C561 C 0.62678 0.7677 0.14854 0.0
C562 C 0.5958 0.77084 0.14961 0.0
C563 C 0.57993 0.77381 0.12743 0.0
H564 H 0.72177 0.20534 0.59537 0.0
H565 H 0.77565 0.19149 0.65906 0.0
H566 H 0.73202 0.17309 0.57141 0.0
H567 H 0.78632 0.15944 0.6349 0.0
H568 H 0.76678 0.08934 0.59448 0.0
H569 H 0.75754 0.12193 0.61848 0.0
H570 H 0.77585 0.16077 0.55109 0.0
H571 H 0.78405 0.12796 0.52689 0.0
C572 C 0.73593 0.19548 0.60422 0.0
C573 C 0.74786 0.20096 0.62914 0.0
C574 C 0.74196 0.17708 0.59042 0.0
C575 C 0.76 0.16371 0.60124 0.0
C576 C 0.77202 0.16924 0.62614 0.0
C577 C 0.76605 0.18768 0.63993 0.0
C578 C 0.76862 0.1048 0.58476 0.0
C579 C 0.77607 0.10605 0.55877 0.0
C580 C 0.76367 0.12354 0.59857 0.0
C581 C 0.76596 0.14394 0.58669 0.0
C582 C 0.7736 0.14523 0.56073 0.0
C583 C 0.77864 0.12651 0.54694 0.0
H584 H 0.37283 0.31741 0.23793 0.0
H585 H 0.33911 0.36759 0.19887 0.0
H586 H 0.40016 0.30935 0.19949 0.0
H587 H 0.36698 0.35987 0.16073 0.0
H588 H 0.38494 0.31998 0.08954 0.0
H589 H 0.36088 0.32962 0.12879 0.0
H590 H 0.44402 0.3248 0.17113 0.0
H591 H 0.46763 0.31421 0.13181 0.0
C592 C 0.37152 0.32689 0.22125 0.0
C593 C 0.35357 0.34302 0.22142 0.0
C594 C 0.38733 0.32235 0.19925 0.0
C595 C 0.38556 0.33386 0.17699 0.0
C596 C 0.36834 0.35042 0.17742 0.0
C597 C 0.3525 0.35492 0.19935 0.0
C598 C 0.39799 0.32077 0.10724 0.0
C599 C 0.42813 0.31619 0.10756 0.0
C600 C 0.38437 0.3266 0.12972 0.0
C601 C 0.40057 0.32807 0.1531 0.0
C602 C 0.43081 0.32363 0.15345 0.0
C603 C 0.44447 0.31779 0.13091 0.0
H604 H 0.80724 0.68655 0.64543 0.0
H605 H 0.86559 0.72726 0.70511 0.0
H606 H 0.84103 0.6603 0.64541 0.0
H607 H 0.89903 0.70077 0.70542 0.0
H608 H 0.96902 0.65864 0.6838 0.0
H609 H 0.93759 0.68629 0.68055 0.0
H610 H 0.85173 0.63241 0.67299 0.0
H611 H 0.88317 0.60486 0.67531 0.0
C612 C 0.82731 0.68993 0.65852 0.0
C613 C 0.83363 0.70897 0.67534 0.0
C614 C 0.84659 0.6748 0.65861 0.0
C615 C 0.87265 0.67834 0.67552 0.0
C616 C 0.87936 0.69764 0.69197 0.0
C617 C 0.86006 0.71278 0.69189 0.0
C618 C 0.94347 0.65271 0.68114 0.0
C619 C 0.92861 0.62953 0.6799 0.0
C620 C 0.92543 0.66856 0.67955 0.0
C621 C 0.89212 0.66159 0.67655 0.0
C622 C 0.87735 0.6384 0.67502 0.0
C623 C 0.89535 0.62258 0.67667 0.0
H624 H 0.8557 0.31233 0.32614 0.0
H625 H 0.78589 0.34542 0.29914 0.0
H626 H 0.89098 0.34901 0.33852 0.0
H627 H 0.8212 0.38179 0.31089 0.0
H628 H 0.87916 0.44397 0.35135 0.0
H629 H 0.84446 0.40617 0.34641 0.0
H630 H 0.92334 0.38157 0.31784 0.0
H631 H 0.95851 0.41926 0.32399 0.0
C632 C 0.84779 0.32737 0.32298 0.0
C633 C 0.81797 0.3259 0.31159 0.0
C634 C 0.86809 0.34839 0.32993 0.0
C635 C 0.85895 0.36836 0.32569 0.0
C636 C 0.82885 0.36679 0.31481 0.0
C637 C 0.80864 0.34586 0.30789 0.0
C638 C 0.88932 0.43045 0.34454 0.0
C639 C 0.92165 0.43473 0.33795 0.0
C640 C 0.8693 0.40879 0.34141 0.0
C641 C 0.88101 0.39085 0.33148 0.0
C642 C 0.91355 0.39495 0.32569 0.0
C643 C 0.93364 0.41663 0.3289 0.0
H644 H 0.22169 0.39705 0.68509 0.0
H645 H 0.1465 0.35659 0.72946 0.0
H646 H 0.19169 0.42557 0.68248 0.0
H647 H 0.11646 0.38512 0.72671 0.0
H648 H 0.08973 0.45328 0.73817 0.0
H649 H 0.11953 0.42474 0.74174 0.0
H650 H 0.14169 0.42904 0.66183 0.0
H651 H 0.11139 0.45718 0.65804 0.0
C652 C 0.1988 0.39426 0.69435 0.0
C653 C 0.18647 0.37452 0.70745 0.0
C654 C 0.18154 0.41054 0.69271 0.0
C655 C 0.15165 0.40756 0.7043 0.0
C656 C 0.13953 0.38799 0.71775 0.0
C657 C 0.15668 0.3716 0.71921 0.0
C658 C 0.10058 0.44795 0.72126 0.0
C659 C 0.09814 0.45762 0.69781 0.0
C660 C 0.11775 0.43164 0.72335 0.0
C661 C 0.13308 0.42471 0.7021 0.0
C662 C 0.13058 0.43429 0.67866 0.0
C663 C 0.11324 0.45047 0.67651 0.0
H664 H 0.18186 0.77746 0.29341 0.0
H665 H 0.24316 0.75362 0.34425 0.0
H666 H 0.13895 0.74414 0.30064 0.0
H667 H 0.20026 0.72023 0.35127 0.0
H668 H 0.10923 0.66872 0.37093 0.0
H669 H 0.14604 0.70601 0.36894 0.0
H670 H 0.13155 0.70393 0.28757 0.0
H671 H 0.09442 0.66692 0.28964 0.0
C672 C 0.18608 0.76528 0.30639 0.0
C673 C 0.21607 0.7681 0.31805 0.0
C674 C 0.16152 0.74614 0.31042 0.0
C675 C 0.16633 0.72947 0.32632 0.0
C676 C 0.19576 0.73285 0.33904 0.0
C677 C 0.22039 0.75194 0.33491 0.0
C678 C 0.11351 0.67643 0.35271 0.0
C679 C 0.09907 0.66489 0.33041 0.0
C680 C 0.13476 0.69767 0.35154 0.0
C681 C 0.14174 0.70787 0.3281 0.0
C682 C 0.12643 0.69663 0.30595 0.0
C683 C 0.10541 0.67534 0.30709 0.0
H684 H 0.77918 0.8017 0.60738 0.0
H685 H 0.81331 0.84879 0.67066 0.0
H686 H 0.78355 0.83307 0.57948 0.0
H687 H 0.81863 0.88 0.64274 0.0
H688 H 0.783 0.92923 0.59594 0.0
H689 H 0.78317 0.89766 0.6221 0.0
H690 H 0.81832 0.86408 0.55878 0.0
H691 H 0.81653 0.89529 0.5321 0.0
C692 C 0.78819 0.81871 0.61523 0.0
C693 C 0.79557 0.82274 0.64129 0.0
C694 C 0.79079 0.83671 0.59922 0.0
C695 C 0.80102 0.85911 0.60892 0.0
C696 C 0.8099 0.86301 0.63474 0.0
C697 C 0.80707 0.84508 0.65073 0.0
C698 C 0.79044 0.91503 0.58746 0.0
C699 C 0.79961 0.9148 0.56185 0.0
C700 C 0.79101 0.89703 0.60261 0.0
C701 C 0.80099 0.87834 0.59264 0.0
C702 C 0.81029 0.87811 0.56704 0.0
C703 C 0.80961 0.89613 0.55182 0.0
H704 H 0.6505 0.24938 0.21617 0.0
H705 H 0.72779 0.28512 0.1701 0.0
H706 H 0.6136 0.2468 0.18044 0.0
H707 H 0.69099 0.28297 0.13477 0.0
H708 H 0.62289 0.26128 0.06879 0.0
H709 H 0.65776 0.25761 0.10379 0.0
H710 H 0.58978 0.27233 0.15766 0.0
H711 H 0.55479 0.2758 0.1226 0.0
C712 C 0.65967 0.25654 0.1984 0.0
C713 C 0.69208 0.26753 0.19603 0.0
C714 C 0.63849 0.25519 0.17798 0.0
C715 C 0.6493 0.26474 0.15476 0.0
C716 C 0.68188 0.27516 0.15225 0.0
C717 C 0.70299 0.27652 0.1726 0.0
C718 C 0.61539 0.26371 0.08811 0.0
C719 C 0.58622 0.26903 0.09292 0.0
C720 C 0.63536 0.2616 0.10817 0.0
C721 C 0.6267 0.26484 0.13354 0.0
C722 C 0.59703 0.26945 0.13837 0.0
C723 C 0.57699 0.27149 0.11828 0.0
H724 H 0.3405 0.2793 0.67513 0.0
H725 H 0.27262 0.29924 0.62702 0.0
H726 H 0.34114 0.24809 0.64536 0.0
H727 H 0.27366 0.26797 0.59686 0.0
H728 H 0.25707 0.19338 0.56708 0.0
H729 H 0.2567 0.22638 0.59457 0.0
H730 H 0.35901 0.24082 0.60269 0.0
H731 H 0.35926 0.20747 0.57599 0.0
C732 C 0.32583 0.27712 0.6581 0.0
C733 C 0.30648 0.29178 0.65347 0.0
C734 C 0.32638 0.25928 0.64093 0.0
C735 C 0.30755 0.25558 0.61869 0.0
C736 C 0.28824 0.27027 0.61395 0.0
C737 C 0.28778 0.28824 0.63114 0.0
C738 C 0.27945 0.20356 0.57483 0.0
C739 C 0.30817 0.19772 0.56945 0.0
C740 C 0.27928 0.22261 0.59033 0.0
C741 C 0.30781 0.23618 0.60088 0.0
C742 C 0.33657 0.23057 0.5951 0.0
C743 C 0.33675 0.21158 0.57957 0.0
H744 H 0.40585 0.85372 0.23762 0.0
H745 H 0.31753 0.82414 0.19718 0.0
H746 H 0.43525 0.85185 0.19836 0.0
H747 H 0.34682 0.82159 0.15836 0.0
H748 H 0.40467 0.83331 0.08716 0.0
H749 H 0.37779 0.8417 0.12568 0.0
H750 H 0.44953 0.82361 0.17138 0.0
H751 H 0.47672 0.81577 0.13279 0.0
C752 C 0.39268 0.84697 0.22035 0.0
C753 C 0.35933 0.839 0.22061 0.0
C754 C 0.40955 0.84573 0.19787 0.0
C755 C 0.39347 0.83642 0.17517 0.0
C756 C 0.36004 0.82914 0.17533 0.0
C757 C 0.3432 0.83049 0.19771 0.0
C758 C 0.41467 0.83117 0.10546 0.0
C759 C 0.44267 0.82374 0.10697 0.0
C760 C 0.39927 0.83595 0.12756 0.0
C761 C 0.41134 0.83322 0.1517 0.0
C762 C 0.43978 0.82625 0.15316 0.0
C763 C 0.45532 0.82165 0.13105 0.0
H764 H 0.73868 0.19583 0.35897 0.0
H765 H 0.82251 0.18936 0.31808 0.0
H766 H 0.74182 0.16434 0.38461 0.0
H767 H 0.82612 0.15822 0.34415 0.0
H768 H 0.8019 0.08784 0.37631 0.0
H769 H 0.79916 0.11951 0.35078 0.0
H770 H 0.77345 0.15416 0.41755 0.0
H771 H 0.77593 0.12239 0.44301 0.0
C772 C 0.75791 0.18778 0.35556 0.0
C773 C 0.78031 0.19509 0.33644 0.0
C774 C 0.75982 0.16979 0.37037 0.0
C775 C 0.78423 0.15871 0.36647 0.0
C776 C 0.80674 0.16614 0.34743 0.0
C777 C 0.80478 0.18409 0.33258 0.0
C778 C 0.79591 0.1023 0.38557 0.0
C779 C 0.78909 0.10258 0.41168 0.0
C780 C 0.79437 0.12048 0.37094 0.0
C781 C 0.78608 0.13942 0.38209 0.0
C782 C 0.7794 0.13971 0.40825 0.0
C783 C 0.78085 0.12151 0.42285 0.0
H784 H 0.333 0.36916 0.78498 0.0
H785 H 0.28837 0.29792 0.77874 0.0
H786 H 0.36135 0.36368 0.82326 0.0
H787 H 0.31826 0.29199 0.81546 0.0
H788 H 0.35855 0.28601 0.89121 0.0
H789 H 0.32592 0.29463 0.858 0.0
H790 H 0.40287 0.35103 0.83815 0.0
H791 H 0.43407 0.34413 0.87358 0.0
C792 C 0.32931 0.35233 0.79183 0.0
C793 C 0.30833 0.334 0.77901 0.0
C794 C 0.34584 0.34909 0.81363 0.0
C795 C 0.34245 0.32733 0.82268 0.0
C796 C 0.32113 0.30909 0.80975 0.0
C797 C 0.30401 0.31244 0.78846 0.0
C798 C 0.36839 0.30066 0.88034 0.0
C799 C 0.39925 0.31432 0.88543 0.0
C800 C 0.34973 0.30536 0.86071 0.0
C801 C 0.36163 0.32341 0.84488 0.0
C802 C 0.39245 0.33714 0.84997 0.0
C803 C 0.4108 0.33283 0.87012 0.0
H804 H 0.37953 0.91264 0.35093 0.0
H805 H 0.27672 0.89145 0.35055 0.0
H806 H 0.37768 0.94653 0.37653 0.0
H807 H 0.27503 0.92509 0.37668 0.0
H808 H 0.29562 0.97285 0.45096 0.0
H809 H 0.29674 0.93974 0.42406 0.0
H810 H 0.35341 0.98218 0.36918 0.0
H811 H 0.35085 0.01552 0.3951 0.0
C812 C 0.35657 0.91522 0.35631 0.0
C813 C 0.32826 0.89943 0.34872 0.0
C814 C 0.35554 0.93461 0.37087 0.0
C815 C 0.32622 0.9383 0.37858 0.0
C816 C 0.29792 0.92252 0.37106 0.0
C817 C 0.29891 0.90338 0.35602 0.0
C818 C 0.30787 0.97529 0.43298 0.0
C819 C 0.32308 -0.00295 0.42532 0.0
C820 C 0.30864 0.95626 0.41768 0.0
C821 C 0.32517 0.95848 0.39463 0.0
C822 C 0.34073 0.98006 0.38701 0.0
C823 C 0.33943 -0.00087 0.40203 0.0
H824 H 0.64914 0.75199 0.75063 0.0
H825 H 0.73404 0.78399 0.7943 0.0
H826 H 0.61668 0.75441 0.78811 0.0
H827 H 0.70158 0.78629 0.83165 0.0
H828 H 0.63065 0.81463 0.87923 0.0
H829 H 0.66247 0.80883 0.84269 0.0
H830 H 0.60577 0.74032 0.83247 0.0
H831 H 0.57418 0.7459 0.86955 0.0
C832 C 0.66092 0.75929 0.76827 0.0
C833 C 0.69417 0.76796 0.76941 0.0
C834 C 0.64231 0.76059 0.78974 0.0
C835 C 0.65657 0.77076 0.81271 0.0
C836 C 0.68989 0.77869 0.81408 0.0
C837 C 0.7085 0.77723 0.79271 0.0
C838 C 0.62512 0.79822 0.86944 0.0
C839 C 0.59998 0.78068 0.87752 0.0
C840 C 0.64337 0.79492 0.84846 0.0
C841 C 0.63681 0.77406 0.83488 0.0
C842 C 0.61127 0.75662 0.84253 0.0
C843 C 0.59311 0.75987 0.8637 0.0
loop_
_geom_bond_atom_site_label_1
_geom_bond_atom_site_label_2
_geom_bond_distance
_geom_bond_site_symmetry_2
_ccdc_geom_bond_type
O0 Cd1 2.300 . S
O0 C7 1.275 . S
Cd1 O0 2.300 . S
Cd1 O9 2.381 . S
Cd1 O10 2.378 . S
O2 Cd3 2.385 . S
O2 C7 1.255 . S
Cd3 O2 2.385 . S
Cd3 O4 2.317 . S
O4 Cd3 2.317 . S
O4 C5 1.232 . S
C5 O4 1.232 . S
C5 O6 1.218 . S
O6 C5 1.218 . S
C7 O0 1.275 . S
C7 O2 1.255 . S
C8 O9 1.258 . S
C8 O10 1.256 . S
O9 Cd1 2.381 . S
O9 C8 1.258 . S
O10 Cd1 2.378 . S
O10 C8 1.256 . S
O11 Cd12 2.300 . S
O11 C18 1.275 . S
Cd12 O11 2.300 . S
Cd12 O20 2.381 . S
Cd12 O21 2.378 . S
O13 Cd14 2.385 . S
O13 C18 1.255 . S
Cd14 O13 2.385 . S
Cd14 O15 2.317 . S
O15 Cd14 2.317 . S
O15 C16 1.232 . S
C16 O15 1.232 . S
C16 O17 1.218 . S
O17 C16 1.218 . S
C18 O11 1.275 . S
C18 O13 1.255 . S
C19 O20 1.258 . S
C19 O21 1.256 . S
O20 Cd12 2.381 . S
O20 C19 1.258 . S
O21 Cd12 2.378 . S
O21 C19 1.256 . S
O22 Cd23 2.300 . S
O22 C29 1.275 . S
Cd23 O22 2.300 . S
Cd23 O31 2.381 . S
Cd23 O32 2.378 . S
O24 Cd25 2.385 . S
O24 C29 1.255 . S
Cd25 O24 2.385 . S
Cd25 O26 2.317 . S
O26 Cd25 2.317 . S
O26 C27 1.232 . S
C27 O26 1.232 . S
C27 O28 1.218 . S
O28 C27 1.218 . S
C29 O22 1.275 . S
C29 O24 1.255 . S
C30 O31 1.258 . S
C30 O32 1.256 . S
O31 Cd23 2.381 . S
O31 C30 1.258 . S
O32 Cd23 2.378 . S
O32 C30 1.256 . S
O33 Cd34 2.300 . S
O33 C40 1.275 . S
Cd34 O33 2.300 . S
Cd34 O42 2.381 . S
Cd34 O43 2.378 . S
O35 Cd36 2.385 . S
O35 C40 1.255 . S
Cd36 O35 2.385 . S
Cd36 O37 2.317 . S
O37 Cd36 2.317 . S
O37 C38 1.232 . S
C38 O37 1.232 . S
C38 O39 1.218 . S
O39 C38 1.218 . S
C40 O33 1.275 . S
C40 O35 1.255 . S
C41 O42 1.258 . S
C41 O43 1.256 . S
O42 Cd34 2.381 . S
O42 C41 1.258 . S
O43 Cd34 2.378 . S
O43 C41 1.256 . S
O44 Cd45 2.300 . S
O44 C51 1.275 . S
Cd45 O44 2.300 . S
Cd45 O53 2.381 . S
Cd45 O54 2.378 . S
O46 Cd47 2.385 . S
O46 C51 1.255 . S
Cd47 O46 2.385 . S
Cd47 O48 2.317 . S
O48 Cd47 2.317 . S
O48 C49 1.232 . S
C49 O48 1.232 . S
C49 O50 1.218 . S
O50 C49 1.218 . S
C51 O44 1.275 . S
C51 O46 1.255 . S
C52 O53 1.258 . S
C52 O54 1.256 . S
O53 Cd45 2.381 . S
O53 C52 1.258 . S
O54 Cd45 2.378 . S
O54 C52 1.256 . S
O55 Cd56 2.300 . S
O55 C62 1.275 . S
Cd56 O55 2.300 . S
Cd56 O64 2.381 . S
Cd56 O65 2.378 . S
O57 Cd58 2.385 . S
O57 C62 1.255 . S
Cd58 O57 2.385 . S
Cd58 O59 2.317 . S
O59 Cd58 2.317 . S
O59 C60 1.232 . S
C60 O59 1.232 . S
C60 O61 1.218 . S
O61 C60 1.218 . S
C62 O55 1.275 . S
C62 O57 1.255 . S
C63 O64 1.258 . S
C63 O65 1.256 . S
O64 Cd56 2.381 . S
O64 C63 1.258 . S
O65 Cd56 2.378 . S
O65 C63 1.256 . S
O66 Cd67 2.300 . S
O66 C73 1.275 . S
Cd67 O66 2.300 . S
Cd67 O75 2.381 . S
Cd67 O76 2.378 . S
O68 Cd69 2.385 . S
O68 C73 1.255 . S
Cd69 O68 2.385 . S
Cd69 O70 2.317 . S
O70 Cd69 2.317 . S
O70 C71 1.232 . S
C71 O70 1.232 . S
C71 O72 1.218 . S
O72 C71 1.218 . S
C73 O66 1.275 . S
C73 O68 1.255 . S
C74 O75 1.258 . S
C74 O76 1.256 . S
O75 Cd67 2.381 . S
O75 C74 1.258 . S
O76 Cd67 2.378 . S
O76 C74 1.256 . S
O77 Cd78 2.300 . S
O77 C84 1.275 . S
Cd78 O77 2.300 . S
Cd78 O86 2.381 . S
Cd78 O87 2.378 . S
O79 Cd80 2.385 . S
O79 C84 1.255 . S
Cd80 O79 2.385 . S
Cd80 O81 2.317 . S
O81 Cd80 2.317 . S
O81 C82 1.232 . S
C82 O81 1.232 . S
C82 O83 1.218 . S
O83 C82 1.218 . S
C84 O77 1.275 . S
C84 O79 1.255 . S
C85 O86 1.258 . S
C85 O87 1.256 . S
O86 Cd78 2.381 . S
O86 C85 1.258 . S
O87 Cd78 2.378 . S
O87 C85 1.256 . S
C88 C89 1.384 . S
C88 C90 1.384 1_655 S
C88 H116 0.931 . S
C89 C88 1.384 . S
C89 C92 1.382 . S
C90 C88 1.384 1_455 S
C90 C91 1.381 . S
C90 H117 0.930 . S
C91 C90 1.381 . S
C91 C93 1.381 1_455 S
C91 C94 1.487 . S
C92 C89 1.382 . S
C92 C93 1.387 . S
C92 H118 0.930 . S
C93 C91 1.381 1_655 S
C93 C92 1.387 . S
C93 H119 0.931 . S
C94 C91 1.487 . S
C94 C101 1.399 . S
C94 N132 1.343 . S
C95 C96 1.384 . S
C95 C97 1.384 . S
C95 H120 0.931 . S
C96 C95 1.384 . S
C96 C99 1.382 . S
C97 C95 1.384 . S
C97 C98 1.381 . S
C97 H121 0.930 . S
C98 C97 1.381 . S
C98 C100 1.381 . S
C98 C101 1.487 . S
C99 C96 1.382 . S
C99 C100 1.387 . S
C99 H122 0.930 . S
C100 C98 1.381 . S
C100 C99 1.387 . S
C100 H123 0.931 . S
C101 C94 1.399 . S
C101 C98 1.487 . S
C101 N133 1.343 . S
C102 C103 1.384 . S
C102 C104 1.384 . S
C102 H124 0.931 . S
C103 C102 1.384 . S
C103 C106 1.382 . S
C104 C102 1.384 . S
C104 C105 1.381 . S
C104 H125 0.930 . S
C105 C104 1.381 . S
C105 C107 1.381 . S
C105 C108 1.487 . S
C106 C103 1.382 . S
C106 C107 1.387 . S
C106 H126 0.930 . S
C107 C105 1.381 . S
C107 C106 1.387 . S
C107 H127 0.931 . S
C108 C105 1.487 . S
C108 C115 1.399 . S
C108 N133 1.343 . S
C109 C110 1.384 . S
C109 C111 1.384 1_655 S
C109 H128 0.931 . S
C110 C109 1.384 . S
C110 C113 1.382 . S
C111 C109 1.384 1_455 S
C111 C112 1.381 . S
C111 H129 0.930 . S
C112 C111 1.381 . S
C112 C114 1.381 1_455 S
C112 C115 1.487 . S
C113 C110 1.382 . S
C113 C114 1.387 . S
C113 H130 0.930 . S
C114 C112 1.381 1_655 S
C114 C113 1.387 . S
C114 H131 0.931 . S
C115 C108 1.399 . S
C115 C112 1.487 . S
C115 N132 1.343 . S
H116 C88 0.931 . S
H117 C90 0.930 . S
H118 C92 0.930 . S
H119 C93 0.931 . S
H120 C95 0.931 . S
H121 C97 0.930 . S
H122 C99 0.930 . S
H123 C100 0.931 . S
H124 C102 0.931 . S
H125 C104 0.930 . S
H126 C106 0.930 . S
H127 C107 0.931 . S
H128 C109 0.931 . S
H129 C111 0.930 . S
H130 C113 0.930 . S
H131 C114 0.931 . S
N132 C94 1.343 . S
N132 C115 1.343 . S
N133 C101 1.343 . S
N133 C108 1.343 . S
C134 C135 1.384 . S
C134 C136 1.384 . S
C134 H162 0.931 . S
C135 C134 1.384 . S
C135 C138 1.382 . S
C136 C134 1.384 . S
C136 C137 1.381 . S
C136 H163 0.930 . S
C137 C136 1.381 . S
C137 C139 1.381 . S
C137 C140 1.487 . S
C138 C135 1.382 . S
C138 C139 1.387 . S
C138 H164 0.930 . S
C139 C137 1.381 . S
C139 C138 1.387 . S
C139 H165 0.931 . S
C140 C137 1.487 . S
C140 C147 1.399 1_655 S
C140 N178 1.343 . S
C141 C142 1.384 . S
C141 C143 1.384 . S
C141 H166 0.931 . S
C142 C141 1.384 . S
C142 C145 1.382 . S
C143 C141 1.384 . S
C143 C144 1.381 . S
C143 H167 0.930 . S
C144 C143 1.381 . S
C144 C146 1.381 . S
C144 C147 1.487 . S
C145 C142 1.382 . S
C145 C146 1.387 . S
C145 H168 0.930 . S
C146 C144 1.381 . S
C146 C145 1.387 . S
C146 H169 0.931 . S
C147 C140 1.399 1_455 S
C147 C144 1.487 . S
C147 N179 1.343 . S
C148 C149 1.384 . S
C148 C150 1.384 . S
C148 H170 0.931 . S
C149 C148 1.384 . S
C149 C152 1.382 . S
C150 C148 1.384 . S
C150 C151 1.381 . S
C150 H171 0.930 . S
C151 C150 1.381 . S
C151 C153 1.381 . S
C151 C154 1.487 . S
C152 C149 1.382 . S
C152 C153 1.387 . S
C152 H172 0.930 . S
C153 C151 1.381 . S
C153 C152 1.387 . S
C153 H173 0.931 . S
C154 C151 1.487 . S
C154 C161 1.399 1_455 S
C154 N179 1.343 . S
C155 C156 1.384 . S
C155 C157 1.384 . S
C155 H174 0.931 . S
C156 C155 1.384 . S
C156 C159 1.382 . S
C157 C155 1.384 . S
C157 C158 1.381 . S
C157 H175 0.930 . S
C158 C157 1.381 . S
C158 C160 1.381 . S
C158 C161 1.487 . S
C159 C156 1.382 . S
C159 C160 1.387 . S
C159 H176 0.930 . S
C160 C158 1.381 . S
C160 C159 1.387 . S
C160 H177 0.931 . S
C161 C154 1.399 1_655 S
C161 C158 1.487 . S
C161 N178 1.343 . S
H162 C134 0.931 . S
H163 C136 0.930 . S
H164 C138 0.930 . S
H165 C139 0.931 . S
H166 C141 0.931 . S
H167 C143 0.930 . S
H168 C145 0.930 . S
H169 C146 0.931 . S
H170 C148 0.931 . S
H171 C150 0.930 . S
H172 C152 0.930 . S
H173 C153 0.931 . S
H174 C155 0.931 . S
H175 C157 0.930 . S
H176 C159 0.930 . S
H177 C160 0.931 . S
N178 C140 1.343 . S
N178 C161 1.343 . S
N179 C147 1.343 . S
N179 C154 1.343 . S
C180 C181 1.384 . S
C180 C182 1.384 . S
C180 H208 0.931 . S
C181 C180 1.384 . S
C181 C184 1.382 . S
C182 C180 1.384 . S
C182 C183 1.381 . S
C182 H209 0.930 . S
C183 C182 1.381 . S
C183 C185 1.381 . S
C183 C186 1.487 . S
C184 C181 1.382 . S
C184 C185 1.387 . S
C184 H210 0.930 . S
C185 C183 1.381 . S
C185 C184 1.387 . S
C185 H211 0.931 . S
C186 C183 1.487 . S
C186 C193 1.399 . S
C186 N224 1.343 . S
C187 C188 1.384 . S
C187 C189 1.384 . S
C187 H212 0.931 . S
C188 C187 1.384 . S
C188 C191 1.382 . S
C189 C187 1.384 . S
C189 C190 1.381 . S
C189 H213 0.930 . S
C190 C189 1.381 . S
C190 C192 1.381 . S
C190 C193 1.487 . S
C191 C188 1.382 . S
C191 C192 1.387 . S
C191 H214 0.930 . S
C192 C190 1.381 . S
C192 C191 1.387 . S
C192 H215 0.931 . S
C193 C186 1.399 . S
C193 C190 1.487 . S
C193 N225 1.343 . S
C194 C195 1.384 . S
C194 C196 1.384 . S
C194 H216 0.931 . S
C195 C194 1.384 . S
C195 C198 1.382 . S
C196 C194 1.384 . S
C196 C197 1.381 . S
C196 H217 0.930 . S
C197 C196 1.381 . S
C197 C199 1.381 . S
C197 C200 1.487 . S
C198 C195 1.382 . S
C198 C199 1.387 . S
C198 H218 0.930 . S
C199 C197 1.381 . S
C199 C198 1.387 . S
C199 H219 0.931 . S
C200 C197 1.487 . S
C200 C207 1.399 . S
C200 N225 1.343 . S
C201 C202 1.384 . S
C201 C203 1.384 . S
C201 H220 0.931 . S
C202 C201 1.384 . S
C202 C205 1.382 . S
C203 C201 1.384 . S
C203 C204 1.381 . S
C203 H221 0.930 . S
C204 C203 1.381 . S
C204 C206 1.381 . S
C204 C207 1.487 . S
C205 C202 1.382 . S
C205 C206 1.387 . S
C205 H222 0.930 . S
C206 C204 1.381 . S
C206 C205 1.387 . S
C206 H223 0.931 . S
C207 C200 1.399 . S
C207 C204 1.487 . S
C207 N224 1.343 . S
H208 C180 0.931 . S
H209 C182 0.930 . S
H210 C184 0.930 . S
H211 C185 0.931 . S
H212 C187 0.931 . S
H213 C189 0.930 . S
H214 C191 0.930 . S
H215 C192 0.931 . S
H216 C194 0.931 . S
H217 C196 0.930 . S
H218 C198 0.930 . S
H219 C199 0.931 . S
H220 C201 0.931 . S
H221 C203 0.930 . S
H222 C205 0.930 . S
H223 C206 0.931 . S
N224 C186 1.343 . S
N224 C207 1.343 . S
N225 C193 1.343 . S
N225 C200 1.343 . S
C226 C227 1.384 . S
C226 C228 1.384 . S
C226 H254 0.931 . S
C227 C226 1.384 . S
C227 C230 1.382 . S
C228 C226 1.384 . S
C228 C229 1.381 . S
C228 H255 0.930 . S
C229 C228 1.381 . S
C229 C231 1.381 . S
C229 C232 1.487 . S
C230 C227 1.382 . S
C230 C231 1.387 . S
C230 H256 0.930 . S
C231 C229 1.381 . S
C231 C230 1.387 . S
C231 H257 0.931 . S
C232 C229 1.487 . S
C232 C239 1.399 . S
C232 N270 1.343 1_556 S
C233 C234 1.384 . S
C233 C235 1.384 . S
C233 H258 0.931 . S
C234 C233 1.384 . S
C234 C237 1.382 . S
C235 C233 1.384 . S
C235 C236 1.381 . S
C235 H259 0.930 . S
C236 C235 1.381 . S
C236 C238 1.381 . S
C236 C239 1.487 . S
C237 C234 1.382 . S
C237 C238 1.387 . S
C237 H260 0.930 . S
C238 C236 1.381 . S
C238 C237 1.387 . S
C238 H261 0.931 . S
C239 C232 1.399 . S
C239 C236 1.487 . S
C239 N271 1.343 1_556 S
C240 C241 1.384 . S
C240 C242 1.384 . S
C240 H262 0.931 . S
C241 C240 1.384 . S
C241 C244 1.382 . S
C242 C240 1.384 . S
C242 C243 1.381 . S
C242 H263 0.930 . S
C243 C242 1.381 . S
C243 C245 1.381 . S
C243 C246 1.487 . S
C244 C241 1.382 . S
C244 C245 1.387 . S
C244 H264 0.930 . S
C245 C243 1.381 . S
C245 C244 1.387 . S
C245 H265 0.931 . S
C246 C243 1.487 . S
C246 C253 1.399 . S
C246 N271 1.343 . S
C247 C248 1.384 . S
C247 C249 1.384 . S
C247 H266 0.931 . S
C248 C247 1.384 . S
C248 C251 1.382 . S
C249 C247 1.384 . S
C249 C250 1.381 . S
C249 H267 0.930 . S
C250 C249 1.381 . S
C250 C252 1.381 . S
C250 C253 1.487 . S
C251 C248 1.382 . S
C251 C252 1.387 . S
C251 H268 0.930 . S
C252 C250 1.381 . S
C252 C251 1.387 . S
C252 H269 0.931 . S
C253 C246 1.399 . S
C253 C250 1.487 . S
C253 N270 1.343 . S
H254 C226 0.931 . S
H255 C228 0.930 . S
H256 C230 0.930 . S
H257 C231 0.931 . S
H258 C233 0.931 . S
H259 C235 0.930 . S
H260 C237 0.930 . S
H261 C238 0.931 . S
H262 C240 0.931 . S
H263 C242 0.930 . S
H264 C244 0.930 . S
H265 C245 0.931 . S
H266 C247 0.931 . S
H267 C249 0.930 . S
H268 C251 0.930 . S
H269 C252 0.931 . S
N270 C232 1.343 1_554 S
N270 C253 1.343 . S
N271 C239 1.343 1_554 S
N271 C246 1.343 . S
C272 C273 1.384 . S
C272 C274 1.384 . S
C272 H300 0.931 . S
C273 C272 1.384 . S
C273 C276 1.382 . S
C274 C272 1.384 . S
C274 C275 1.381 . S
C274 H301 0.930 . S
C275 C274 1.381 . S
C275 C277 1.381 . S
C275 C278 1.487 . S
C276 C273 1.382 . S
C276 C277 1.387 . S
C276 H302 0.930 . S
C277 C275 1.381 . S
C277 C276 1.387 . S
C277 H303 0.931 . S
C278 C275 1.487 . S
C278 C285 1.399 . S
C278 N316 1.343 . S
C279 C280 1.384 . S
C279 C281 1.384 . S
C279 H304 0.931 . S
C280 C279 1.384 . S
C280 C283 1.382 . S
C281 C279 1.384 . S
C281 C282 1.381 . S
C281 H305 0.930 . S
C282 C281 1.381 . S
C282 C284 1.381 . S
C282 C285 1.487 . S
C283 C280 1.382 . S
C283 C284 1.387 . S
C283 H306 0.930 . S
C284 C282 1.381 . S
C284 C283 1.387 . S
C284 H307 0.931 . S
C285 C278 1.399 . S
C285 C282 1.487 . S
C285 N317 1.343 . S
C286 C287 1.384 . S
C286 C288 1.384 . S
C286 H308 0.931 . S
C287 C286 1.384 . S
C287 C290 1.382 . S
C288 C286 1.384 . S
C288 C289 1.381 . S
C288 H309 0.930 . S
C289 C288 1.381 . S
C289 C291 1.381 . S
C289 C292 1.487 . S
C290 C287 1.382 . S
C290 C291 1.387 . S
C290 H310 0.930 . S
C291 C289 1.381 . S
C291 C290 1.387 . S
C291 H311 0.931 . S
C292 C289 1.487 . S
C292 C299 1.399 . S
C292 N317 1.343 1_565 S
C293 C294 1.384 . S
C293 C295 1.384 . S
C293 H312 0.931 . S
C294 C293 1.384 . S
C294 C297 1.382 . S
C295 C293 1.384 . S
C295 C296 1.381 . S
C295 H313 0.930 . S
C296 C295 1.381 . S
C296 C298 1.381 . S
C296 C299 1.487 . S
C297 C294 1.382 . S
C297 C298 1.387 . S
C297 H314 0.930 . S
C298 C296 1.381 . S
C298 C297 1.387 . S
C298 H315 0.931 . S
C299 C292 1.399 . S
C299 C296 1.487 . S
C299 N316 1.343 1_565 S
H300 C272 0.931 . S
H301 C274 0.930 . S
H302 C276 0.930 . S
H303 C277 0.931 . S
H304 C279 0.931 . S
H305 C281 0.930 . S
H306 C283 0.930 . S
H307 C284 0.931 . S
H308 C286 0.931 . S
H309 C288 0.930 . S
H310 C290 0.930 . S
H311 C291 0.931 . S
H312 C293 0.931 . S
H313 C295 0.930 . S
H314 C297 0.930 . S
H315 C298 0.931 . S
N316 C278 1.343 . S
N316 C299 1.343 1_545 S
N317 C285 1.343 . S
N317 C292 1.343 1_545 S
C318 C319 1.384 . S
C318 C320 1.384 . S
C318 H346 0.931 . S
C319 C318 1.384 . S
C319 C322 1.382 . S
C320 C318 1.384 . S
C320 C321 1.381 . S
C320 H347 0.930 . S
C321 C320 1.381 . S
C321 C323 1.381 . S
C321 C324 1.487 . S
C322 C319 1.382 . S
C322 C323 1.387 . S
C322 H348 0.930 . S
C323 C321 1.381 . S
C323 C322 1.387 . S
C323 H349 0.931 . S
C324 C321 1.487 . S
C324 C331 1.399 . S
C324 N362 1.343 1_556 S
C325 C326 1.384 . S
C325 C327 1.384 . S
C325 H350 0.931 . S
C326 C325 1.384 . S
C326 C329 1.382 . S
C327 C325 1.384 . S
C327 C328 1.381 . S
C327 H351 0.930 . S
C328 C327 1.381 . S
C328 C330 1.381 . S
C328 C331 1.487 . S
C329 C326 1.382 . S
C329 C330 1.387 . S
C329 H352 0.930 . S
C330 C328 1.381 . S
C330 C329 1.387 . S
C330 H353 0.931 . S
C331 C324 1.399 . S
C331 C328 1.487 . S
C331 N363 1.343 1_556 S
C332 C333 1.384 . S
C332 C334 1.384 . S
C332 H354 0.931 . S
C333 C332 1.384 . S
C333 C336 1.382 . S
C334 C332 1.384 . S
C334 C335 1.381 . S
C334 H355 0.930 . S
C335 C334 1.381 . S
C335 C337 1.381 . S
C335 C338 1.487 . S
C336 C333 1.382 . S
C336 C337 1.387 . S
C336 H356 0.930 . S
C337 C335 1.381 . S
C337 C336 1.387 . S
C337 H357 0.931 . S
C338 C335 1.487 . S
C338 C345 1.399 . S
C338 N363 1.343 . S
C339 C340 1.384 . S
C339 C341 1.384 . S
C339 H358 0.931 . S
C340 C339 1.384 . S
C340 C343 1.382 . S
C341 C339 1.384 . S
C341 C342 1.381 . S
C341 H359 0.930 . S
C342 C341 1.381 . S
C342 C344 1.381 . S
C342 C345 1.487 . S
C343 C340 1.382 . S
C343 C344 1.387 . S
C343 H360 0.930 . S
C344 C342 1.381 . S
C344 C343 1.387 . S
C344 H361 0.931 . S
C345 C338 1.399 . S
C345 C342 1.487 . S
C345 N362 1.343 . S
H346 C318 0.931 . S
H347 C320 0.930 . S
H348 C322 0.930 . S
H349 C323 0.931 . S
H350 C325 0.931 . S
H351 C327 0.930 . S
H352 C329 0.930 . S
H353 C330 0.931 . S
H354 C332 0.931 . S
H355 C334 0.930 . S
H356 C336 0.930 . S
H357 C337 0.931 . S
H358 C339 0.931 . S
H359 C341 0.930 . S
H360 C343 0.930 . S
H361 C344 0.931 . S
N362 C324 1.343 1_554 S
N362 C345 1.343 . S
N363 C331 1.343 1_554 S
N363 C338 1.343 . S
H364 C372 0.950 . S
H365 C377 0.950 . S
H366 C374 0.950 . S
H367 C376 0.950 . S
H368 C378 0.950 . S
H369 C380 0.950 . S
H370 C382 0.950 . S
H371 C383 0.950 . S
C372 H364 0.950 . S
C372 C373 1.386 . S
C372 C374 1.391 . S
C373 C372 1.386 . S
C373 C377 1.393 . S
C374 H366 0.950 . S
C374 C372 1.391 . S
C374 C375 1.400 . S
C375 C374 1.400 . S
C375 C376 1.398 . S
C375 C381 1.491 . S
C376 H367 0.950 . S
C376 C375 1.398 . S
C376 C377 1.391 . S
C377 H365 0.950 . S
C377 C373 1.393 . S
C377 C376 1.391 . S
C378 H368 0.950 . S
C378 C379 1.386 . S
C378 C380 1.391 . S
C379 C378 1.386 . S
C379 C383 1.393 . S
C380 H369 0.950 . S
C380 C378 1.391 . S
C380 C381 1.400 . S
C381 C375 1.491 . S
C381 C380 1.400 . S
C381 C382 1.398 . S
C382 H370 0.950 . S
C382 C381 1.398 . S
C382 C383 1.391 . S
C383 H371 0.950 . S
C383 C379 1.393 . S
C383 C382 1.391 . S
H384 C392 0.950 . S
H385 C397 0.950 . S
H386 C394 0.950 . S
H387 C396 0.950 . S
H388 C398 0.950 . S
H389 C400 0.950 . S
H390 C402 0.950 . S
H391 C403 0.950 . S
C392 H384 0.950 . S
C392 C393 1.386 . S
C392 C394 1.391 . S
C393 C392 1.386 . S
C393 C397 1.393 . S
C394 H386 0.950 . S
C394 C392 1.391 . S
C394 C395 1.400 . S
C395 C394 1.400 . S
C395 C396 1.398 . S
C395 C401 1.491 . S
C396 H387 0.950 . S
C396 C395 1.398 . S
C396 C397 1.391 . S
C397 H385 0.950 . S
C397 C393 1.393 . S
C397 C396 1.391 . S
C398 H388 0.950 . S
C398 C399 1.386 . S
C398 C400 1.391 . S
C399 C398 1.386 . S
C399 C403 1.393 . S
C400 H389 0.950 . S
C400 C398 1.391 . S
C400 C401 1.400 . S
C401 C395 1.491 . S
C401 C400 1.400 . S
C401 C402 1.398 . S
C402 H390 0.950 . S
C402 C401 1.398 . S
C402 C403 1.391 . S
C403 H391 0.950 . S
C403 C399 1.393 . S
C403 C402 1.391 . S
H404 C412 0.950 . S
H405 C417 0.950 . S
H406 C414 0.950 . S
H407 C416 0.950 . S
H408 C418 0.950 . S
H409 C420 0.950 . S
H410 C422 0.950 . S
H411 C423 0.950 . S
C412 H404 0.950 . S
C412 C413 1.386 . S
C412 C414 1.391 . S
C413 C412 1.386 . S
C413 C417 1.393 . S
C414 H406 0.950 . S
C414 C412 1.391 . S
C414 C415 1.400 . S
C415 C414 1.400 . S
C415 C416 1.398 . S
C415 C421 1.491 . S
C416 H407 0.950 . S
C416 C415 1.398 . S
C416 C417 1.391 . S
C417 H405 0.950 . S
C417 C413 1.393 . S
C417 C416 1.391 . S
C418 H408 0.950 . S
C418 C419 1.386 . S
C418 C420 1.391 . S
C419 C418 1.386 . S
C419 C423 1.393 . S
C420 H409 0.950 . S
C420 C418 1.391 . S
C420 C421 1.400 . S
C421 C415 1.491 . S
C421 C420 1.400 . S
C421 C422 1.398 . S
C422 H410 0.950 . S
C422 C421 1.398 . S
C422 C423 1.391 . S
C423 H411 0.950 . S
C423 C419 1.393 . S
C423 C422 1.391 . S
H424 C432 0.950 . S
H425 C437 0.950 . S
H426 C434 0.950 . S
H427 C436 0.950 . S
H428 C438 0.950 . S
H429 C440 0.950 . S
H430 C442 0.950 . S
H431 C443 0.950 . S
C432 H424 0.950 . S
C432 C433 1.386 . S
C432 C434 1.391 . S
C433 C432 1.386 . S
C433 C437 1.393 . S
C434 H426 0.950 . S
C434 C432 1.391 . S
C434 C435 1.400 . S
C435 C434 1.400 . S
C435 C436 1.398 . S
C435 C441 1.491 . S
C436 H427 0.950 . S
C436 C435 1.398 . S
C436 C437 1.391 . S
C437 H425 0.950 . S
C437 C433 1.393 . S
C437 C436 1.391 . S
C438 H428 0.950 . S
C438 C439 1.386 . S
C438 C440 1.391 . S
C439 C438 1.386 . S
C439 C443 1.393 . S
C440 H429 0.950 . S
C440 C438 1.391 . S
C440 C441 1.400 . S
C441 C435 1.491 . S
C441 C440 1.400 . S
C441 C442 1.398 . S
C442 H430 0.950 . S
C442 C441 1.398 . S
C442 C443 1.391 . S
C443 H431 0.950 . S
C443 C439 1.393 . S
C443 C442 1.391 . S
H444 C452 0.950 . S
H445 C457 0.950 . S
H446 C454 0.950 . S
H447 C456 0.950 . S
H448 C458 0.950 . S
H449 C460 0.950 . S
H450 C462 0.950 . S
H451 C463 0.950 . S
C452 H444 0.950 . S
C452 C453 1.386 . S
C452 C454 1.391 . S
C453 C452 1.386 . S
C453 C457 1.393 . S
C454 H446 0.950 . S
C454 C452 1.391 . S
C454 C455 1.400 . S
C455 C454 1.400 . S
C455 C456 1.398 . S
C455 C461 1.491 . S
C456 H447 0.950 . S
C456 C455 1.398 . S
C456 C457 1.391 . S
C457 H445 0.950 . S
C457 C453 1.393 . S
C457 C456 1.391 . S
C458 H448 0.950 . S
C458 C459 1.386 . S
C458 C460 1.391 . S
C459 C458 1.386 . S
C459 C463 1.393 . S
C460 H449 0.950 . S
C460 C458 1.391 . S
C460 C461 1.400 . S
C461 C455 1.491 . S
C461 C460 1.400 . S
C461 C462 1.398 . S
C462 H450 0.950 . S
C462 C461 1.398 . S
C462 C463 1.391 . S
C463 H451 0.950 . S
C463 C459 1.393 . S
C463 C462 1.391 . S
H464 C472 0.950 . S
H465 C477 0.950 . S
H466 C474 0.950 . S
H467 C476 0.950 . S
H468 C478 0.950 . S
H469 C480 0.950 . S
H470 C482 0.950 . S
H471 C483 0.950 . S
C472 H464 0.950 . S
C472 C473 1.386 . S
C472 C474 1.391 . S
C473 C472 1.386 . S
C473 C477 1.393 . S
C474 H466 0.950 . S
C474 C472 1.391 . S
C474 C475 1.400 . S
C475 C474 1.400 . S
C475 C476 1.398 . S
C475 C481 1.491 . S
C476 H467 0.950 . S
C476 C475 1.398 . S
C476 C477 1.391 . S
C477 H465 0.950 . S
C477 C473 1.393 . S
C477 C476 1.391 . S
C478 H468 0.950 . S
C478 C479 1.386 . S
C478 C480 1.391 . S
C479 C478 1.386 . S
C479 C483 1.393 . S
C480 H469 0.950 . S
C480 C478 1.391 . S
C480 C481 1.400 . S
C481 C475 1.491 . S
C481 C480 1.400 . S
C481 C482 1.398 . S
C482 H470 0.950 . S
C482 C481 1.398 . S
C482 C483 1.391 . S
C483 H471 0.950 . S
C483 C479 1.393 . S
C483 C482 1.391 . S
H484 C492 0.950 . S
H485 C497 0.950 . S
H486 C494 0.950 . S
H487 C496 0.950 . S
H488 C498 0.950 . S
H489 C500 0.950 . S
H490 C502 0.950 . S
H491 C503 0.950 . S
C492 H484 0.950 . S
C492 C493 1.386 . S
C492 C494 1.391 . S
C493 C492 1.386 . S
C493 C497 1.393 . S
C494 H486 0.950 . S
C494 C492 1.391 . S
C494 C495 1.400 . S
C495 C494 1.400 . S
C495 C496 1.398 . S
C495 C501 1.491 . S
C496 H487 0.950 . S
C496 C495 1.398 . S
C496 C497 1.391 . S
C497 H485 0.950 . S
C497 C493 1.393 . S
C497 C496 1.391 . S
C498 H488 0.950 . S
C498 C499 1.386 . S
C498 C500 1.391 . S
C499 C498 1.386 . S
C499 C503 1.393 . S
C500 H489 0.950 . S
C500 C498 1.391 . S
C500 C501 1.400 . S
C501 C495 1.491 . S
C501 C500 1.400 . S
C501 C502 1.398 . S
C502 H490 0.950 . S
C502 C501 1.398 . S
C502 C503 1.391 . S
C503 H491 0.950 . S
C503 C499 1.393 . S
C503 C502 1.391 . S
H504 C512 0.950 . S
H505 C517 0.950 . S
H506 C514 0.950 . S
H507 C516 0.950 . S
H508 C518 0.950 . S
H509 C520 0.950 . S
H510 C522 0.950 . S
H511 C523 0.950 . S
C512 H504 0.950 . S
C512 C513 1.386 . S
C512 C514 1.391 . S
C513 C512 1.386 . S
C513 C517 1.393 . S
C514 H506 0.950 . S
C514 C512 1.391 . S
C514 C515 1.400 . S
C515 C514 1.400 . S
C515 C516 1.398 . S
C515 C521 1.491 . S
C516 H507 0.950 . S
C516 C515 1.398 . S
C516 C517 1.391 . S
C517 H505 0.950 . S
C517 C513 1.393 . S
C517 C516 1.391 . S
C518 H508 0.950 . S
C518 C519 1.386 . S
C518 C520 1.391 . S
C519 C518 1.386 . S
C519 C523 1.393 . S
C520 H509 0.950 . S
C520 C518 1.391 . S
C520 C521 1.400 . S
C521 C515 1.491 . S
C521 C520 1.400 . S
C521 C522 1.398 . S
C522 H510 0.950 . S
C522 C521 1.398 . S
C522 C523 1.391 . S
C523 H511 0.950 . S
C523 C519 1.393 . S
C523 C522 1.391 . S
H524 C532 0.950 . S
H525 C537 0.950 . S
H526 C534 0.950 . S
H527 C536 0.950 . S
H528 C538 0.962 . S
H529 C540 0.950 . S
H530 C542 0.950 . S
H531 C543 0.950 . S
C532 H524 0.950 . S
C532 C533 1.386 . S
C532 C534 1.391 . S
C533 C532 1.386 . S
C533 C537 1.393 . S
C534 H526 0.950 . S
C534 C532 1.391 . S
C534 C535 1.400 . S
C535 C534 1.400 . S
C535 C536 1.398 . S
C535 C541 1.491 . S
C536 H527 0.950 . S
C536 C535 1.398 . S
C536 C537 1.391 . S
C537 H525 0.950 . S
C537 C533 1.393 . S
C537 C536 1.391 . S
C538 H528 0.962 . S
C538 C539 1.397 . S
C538 C540 1.368 1_545 S
C539 C538 1.397 . S
C539 C543 1.393 . S
C540 H529 0.950 . S
C540 C538 1.368 1_565 S
C540 C541 1.400 . S
C541 C535 1.491 . S
C541 C540 1.400 . S
C541 C542 1.398 . S
C542 H530 0.950 . S
C542 C541 1.398 . S
C542 C543 1.391 1_565 S
C543 H531 0.950 . S
C543 C539 1.393 . S
C543 C542 1.391 1_545 S
H544 C552 0.950 . S
H545 C557 0.950 . S
H546 C554 0.950 . S
H547 C556 0.950 . S
H548 C558 0.950 . S
H549 C560 0.950 . S
H550 C562 0.950 . S
H551 C563 0.950 . S
C552 H544 0.950 . S
C552 C553 1.386 . S
C552 C554 1.391 . S
C553 C552 1.386 . S
C553 C557 1.393 . S
C554 H546 0.950 . S
C554 C552 1.391 . S
C554 C555 1.400 . S
C555 C554 1.400 . S
C555 C556 1.398 . S
C555 C561 1.491 . S
C556 H547 0.950 . S
C556 C555 1.398 . S
C556 C557 1.391 . S
C557 H545 0.950 . S
C557 C553 1.393 . S
C557 C556 1.391 . S
C558 H548 0.950 . S
C558 C559 1.386 . S
C558 C560 1.391 . S
C559 C558 1.386 . S
C559 C563 1.393 . S
C560 H549 0.950 . S
C560 C558 1.391 . S
C560 C561 1.400 . S
C561 C555 1.491 . S
C561 C560 1.400 . S
C561 C562 1.398 . S
C562 H550 0.950 . S
C562 C561 1.398 . S
C562 C563 1.391 . S
C563 H551 0.950 . S
C563 C559 1.393 . S
C563 C562 1.391 . S
H564 C572 0.950 . S
H565 C577 0.950 . S
H566 C574 0.950 . S
H567 C576 0.950 . S
H568 C578 0.950 . S
H569 C580 0.950 . S
H570 C582 0.950 . S
H571 C583 0.950 . S
C572 H564 0.950 . S
C572 C573 1.386 . S
C572 C574 1.391 . S
C573 C572 1.386 . S
C573 C577 1.393 . S
C574 H566 0.950 . S
C574 C572 1.391 . S
C574 C575 1.400 . S
C575 C574 1.400 . S
C575 C576 1.398 . S
C575 C581 1.491 . S
C576 H567 0.950 . S
C576 C575 1.398 . S
C576 C577 1.391 . S
C577 H565 0.950 . S
C577 C573 1.393 . S
C577 C576 1.391 . S
C578 H568 0.950 . S
C578 C579 1.386 . S
C578 C580 1.391 . S
C579 C578 1.386 . S
C579 C583 1.393 . S
C580 H569 0.950 . S
C580 C578 1.391 . S
C580 C581 1.400 . S
C581 C575 1.491 . S
C581 C580 1.400 . S
C581 C582 1.398 . S
C582 H570 0.950 . S
C582 C581 1.398 . S
C582 C583 1.391 . S
C583 H571 0.950 . S
C583 C579 1.393 . S
C583 C582 1.391 . S
H584 C592 0.950 . S
H585 C597 0.950 . S
H586 C594 0.950 . S
H587 C596 0.950 . S
H588 C598 0.950 . S
H589 C600 0.950 . S
H590 C602 0.950 . S
H591 C603 0.950 . S
C592 H584 0.950 . S
C592 C593 1.386 . S
C592 C594 1.391 . S
C593 C592 1.386 . S
C593 C597 1.393 . S
C594 H586 0.950 . S
C594 C592 1.391 . S
C594 C595 1.400 . S
C595 C594 1.400 . S
C595 C596 1.398 . S
C595 C601 1.491 . S
C596 H587 0.950 . S
C596 C595 1.398 . S
C596 C597 1.391 . S
C597 H585 0.950 . S
C597 C593 1.393 . S
C597 C596 1.391 . S
C598 H588 0.950 . S
C598 C599 1.386 . S
C598 C600 1.391 . S
C599 C598 1.386 . S
C599 C603 1.393 . S
C600 H589 0.950 . S
C600 C598 1.391 . S
C600 C601 1.400 . S
C601 C595 1.491 . S
C601 C600 1.400 . S
C601 C602 1.398 . S
C602 H590 0.950 . S
C602 C601 1.398 . S
C602 C603 1.391 . S
C603 H591 0.950 . S
C603 C599 1.393 . S
C603 C602 1.391 . S
H604 C612 0.950 . S
H605 C617 0.950 . S
H606 C614 0.950 . S
H607 C616 0.950 . S
H608 C618 0.950 . S
H609 C620 0.950 . S
H610 C622 0.950 . S
H611 C623 0.950 . S
C612 H604 0.950 . S
C612 C613 1.386 . S
C612 C614 1.391 . S
C613 C612 1.386 . S
C613 C617 1.393 . S
C614 H606 0.950 . S
C614 C612 1.391 . S
C614 C615 1.400 . S
C615 C614 1.400 . S
C615 C616 1.398 . S
C615 C621 1.491 . S
C616 H607 0.950 . S
C616 C615 1.398 . S
C616 C617 1.391 . S
C617 H605 0.950 . S
C617 C613 1.393 . S
C617 C616 1.391 . S
C618 H608 0.950 . S
C618 C619 1.386 . S
C618 C620 1.391 . S
C619 C618 1.386 . S
C619 C623 1.393 . S
C620 H609 0.950 . S
C620 C618 1.391 . S
C620 C621 1.400 . S
C621 C615 1.491 . S
C621 C620 1.400 . S
C621 C622 1.398 . S
C622 H610 0.950 . S
C622 C621 1.398 . S
C622 C623 1.391 . S
C623 H611 0.950 . S
C623 C619 1.393 . S
C623 C622 1.391 . S
H624 C632 0.950 . S
H625 C637 0.950 . S
H626 C634 0.950 . S
H627 C636 0.950 . S
H628 C638 0.950 . S
H629 C640 0.950 . S
H630 C642 0.950 . S
H631 C643 0.950 . S
C632 H624 0.950 . S
C632 C633 1.386 . S
C632 C634 1.391 . S
C633 C632 1.386 . S
C633 C637 1.393 . S
C634 H626 0.950 . S
C634 C632 1.391 . S
C634 C635 1.400 . S
C635 C634 1.400 . S
C635 C636 1.398 . S
C635 C641 1.491 . S
C636 H627 0.950 . S
C636 C635 1.398 . S
C636 C637 1.391 . S
C637 H625 0.950 . S
C637 C633 1.393 . S
C637 C636 1.391 . S
C638 H628 0.950 . S
C638 C639 1.386 . S
C638 C640 1.391 . S
C639 C638 1.386 . S
C639 C643 1.393 . S
C640 H629 0.950 . S
C640 C638 1.391 . S
C640 C641 1.400 . S
C641 C635 1.491 . S
C641 C640 1.400 . S
C641 C642 1.398 . S
C642 H630 0.950 . S
C642 C641 1.398 . S
C642 C643 1.391 . S
C643 H631 0.950 . S
C643 C639 1.393 . S
C643 C642 1.391 . S
H644 C652 0.950 . S
H645 C657 0.950 . S
H646 C654 0.950 . S
H647 C656 0.950 . S
H648 C658 0.950 . S
H649 C660 0.950 . S
H650 C662 0.950 . S
H651 C663 0.950 . S
C652 H644 0.950 . S
C652 C653 1.386 . S
C652 C654 1.391 . S
C653 C652 1.386 . S
C653 C657 1.393 . S
C654 H646 0.950 . S
C654 C652 1.391 . S
C654 C655 1.400 . S
C655 C654 1.400 . S
C655 C656 1.398 . S
C655 C661 1.491 . S
C656 H647 0.950 . S
C656 C655 1.398 . S
C656 C657 1.391 . S
C657 H645 0.950 . S
C657 C653 1.393 . S
C657 C656 1.391 . S
C658 H648 0.950 . S
C658 C659 1.386 . S
C658 C660 1.391 . S
C659 C658 1.386 . S
C659 C663 1.393 . S
C660 H649 0.950 . S
C660 C658 1.391 . S
C660 C661 1.400 . S
C661 C655 1.491 . S
C661 C660 1.400 . S
C661 C662 1.398 . S
C662 H650 0.950 . S
C662 C661 1.398 . S
C662 C663 1.391 . S
C663 H651 0.950 . S
C663 C659 1.393 . S
C663 C662 1.391 . S
H664 C672 0.950 . S
H665 C677 0.950 . S
H666 C674 0.950 . S
H667 C676 0.950 . S
H668 C678 0.950 . S
H669 C680 0.950 . S
H670 C682 0.950 . S
H671 C683 0.950 . S
C672 H664 0.950 . S
C672 C673 1.386 . S
C672 C674 1.391 . S
C673 C672 1.386 . S
C673 C677 1.393 . S
C674 H666 0.950 . S
C674 C672 1.391 . S
C674 C675 1.400 . S
C675 C674 1.400 . S
C675 C676 1.398 . S
C675 C681 1.491 . S
C676 H667 0.950 . S
C676 C675 1.398 . S
C676 C677 1.391 . S
C677 H665 0.950 . S
C677 C673 1.393 . S
C677 C676 1.391 . S
C678 H668 0.950 . S
C678 C679 1.386 . S
C678 C680 1.391 . S
C679 C678 1.386 . S
C679 C683 1.393 . S
C680 H669 0.950 . S
C680 C678 1.391 . S
C680 C681 1.400 . S
C681 C675 1.491 . S
C681 C680 1.400 . S
C681 C682 1.398 . S
C682 H670 0.950 . S
C682 C681 1.398 . S
C682 C683 1.391 . S
C683 H671 0.950 . S
C683 C679 1.393 . S
C683 C682 1.391 . S
H684 C692 0.950 . S
H685 C697 0.950 . S
H686 C694 0.950 . S
H687 C696 0.950 . S
H688 C698 0.950 . S
H689 C700 0.950 . S
H690 C702 0.950 . S
H691 C703 0.950 . S
C692 H684 0.950 . S
C692 C693 1.386 . S
C692 C694 1.391 . S
C693 C692 1.386 . S
C693 C697 1.393 . S
C694 H686 0.950 . S
C694 C692 1.391 . S
C694 C695 1.400 . S
C695 C694 1.400 . S
C695 C696 1.398 . S
C695 C701 1.491 . S
C696 H687 0.950 . S
C696 C695 1.398 . S
C696 C697 1.391 . S
C697 H685 0.950 . S
C697 C693 1.393 . S
C697 C696 1.391 . S
C698 H688 0.950 . S
C698 C699 1.386 . S
C698 C700 1.391 . S
C699 C698 1.386 . S
C699 C703 1.393 . S
C700 H689 0.950 . S
C700 C698 1.391 . S
C700 C701 1.400 . S
C701 C695 1.491 . S
C701 C700 1.400 . S
C701 C702 1.398 . S
C702 H690 0.950 . S
C702 C701 1.398 . S
C702 C703 1.391 . S
C703 H691 0.950 . S
C703 C699 1.393 . S
C703 C702 1.391 . S
H704 C712 0.950 . S
H705 C717 0.950 . S
H706 C714 0.950 . S
H707 C716 0.950 . S
H708 C718 0.950 . S
H709 C720 0.950 . S
H710 C722 0.950 . S
H711 C723 0.950 . S
C712 H704 0.950 . S
C712 C713 1.386 . S
C712 C714 1.391 . S
C713 C712 1.386 . S
C713 C717 1.393 . S
C714 H706 0.950 . S
C714 C712 1.391 . S
C714 C715 1.400 . S
C715 C714 1.400 . S
C715 C716 1.398 . S
C715 C721 1.491 . S
C716 H707 0.950 . S
C716 C715 1.398 . S
C716 C717 1.391 . S
C717 H705 0.950 . S
C717 C713 1.393 . S
C717 C716 1.391 . S
C718 H708 0.950 . S
C718 C719 1.386 . S
C718 C720 1.391 . S
C719 C718 1.386 . S
C719 C723 1.393 . S
C720 H709 0.950 . S
C720 C718 1.391 . S
C720 C721 1.400 . S
C721 C715 1.491 . S
C721 C720 1.400 . S
C721 C722 1.398 . S
C722 H710 0.950 . S
C722 C721 1.398 . S
C722 C723 1.391 . S
C723 H711 0.950 . S
C723 C719 1.393 . S
C723 C722 1.391 . S
H724 C732 0.950 . S
H725 C737 0.950 . S
H726 C734 0.950 . S
H727 C736 0.950 . S
H728 C738 0.950 . S
H729 C740 0.950 . S
H730 C742 0.950 . S
H731 C743 0.950 . S
C732 H724 0.950 . S
C732 C733 1.386 . S
C732 C734 1.391 . S
C733 C732 1.386 . S
C733 C737 1.393 . S
C734 H726 0.950 . S
C734 C732 1.391 . S
C734 C735 1.400 . S
C735 C734 1.400 . S
C735 C736 1.398 . S
C735 C741 1.491 . S
C736 H727 0.950 . S
C736 C735 1.398 . S
C736 C737 1.391 . S
C737 H725 0.950 . S
C737 C733 1.393 . S
C737 C736 1.391 . S
C738 H728 0.950 . S
C738 C739 1.386 . S
C738 C740 1.391 . S
C739 C738 1.386 . S
C739 C743 1.393 . S
C740 H729 0.950 . S
C740 C738 1.391 . S
C740 C741 1.400 . S
C741 C735 1.491 . S
C741 C740 1.400 . S
C741 C742 1.398 . S
C742 H730 0.950 . S
C742 C741 1.398 . S
C742 C743 1.391 . S
C743 H731 0.950 . S
C743 C739 1.393 . S
C743 C742 1.391 . S
H744 C752 0.950 . S
H745 C757 0.950 . S
H746 C754 0.950 . S
H747 C756 0.950 . S
H748 C758 0.950 . S
H749 C760 0.950 . S
H750 C762 0.950 . S
H751 C763 0.950 . S
C752 H744 0.950 . S
C752 C753 1.386 . S
C752 C754 1.391 . S
C753 C752 1.386 . S
C753 C757 1.393 . S
C754 H746 0.950 . S
C754 C752 1.391 . S
C754 C755 1.400 . S
C755 C754 1.400 . S
C755 C756 1.398 . S
C755 C761 1.491 . S
C756 H747 0.950 . S
C756 C755 1.398 . S
C756 C757 1.391 . S
C757 H745 0.950 . S
C757 C753 1.393 . S
C757 C756 1.391 . S
C758 H748 0.950 . S
C758 C759 1.386 . S
C758 C760 1.391 . S
C759 C758 1.386 . S
C759 C763 1.393 . S
C760 H749 0.950 . S
C760 C758 1.391 . S
C760 C761 1.400 . S
C761 C755 1.491 . S
C761 C760 1.400 . S
C761 C762 1.398 . S
C762 H750 0.950 . S
C762 C761 1.398 . S
C762 C763 1.391 . S
C763 H751 0.950 . S
C763 C759 1.393 . S
C763 C762 1.391 . S
H764 C772 0.950 . S
H765 C777 0.950 . S
H766 C774 0.950 . S
H767 C776 0.950 . S
H768 C778 0.950 . S
H769 C780 0.950 . S
H770 C782 0.950 . S
H771 C783 0.950 . S
C772 H764 0.950 . S
C772 C773 1.386 . S
C772 C774 1.391 . S
C773 C772 1.386 . S
C773 C777 1.393 . S
C774 H766 0.950 . S
C774 C772 1.391 . S
C774 C775 1.400 . S
C775 C774 1.400 . S
C775 C776 1.398 . S
C775 C781 1.491 . S
C776 H767 0.950 . S
C776 C775 1.398 . S
C776 C777 1.391 . S
C777 H765 0.950 . S
C777 C773 1.393 . S
C777 C776 1.391 . S
C778 H768 0.950 . S
C778 C779 1.386 . S
C778 C780 1.391 . S
C779 C778 1.386 . S
C779 C783 1.393 . S
C780 H769 0.950 . S
C780 C778 1.391 . S
C780 C781 1.400 . S
C781 C775 1.491 . S
C781 C780 1.400 . S
C781 C782 1.398 . S
C782 H770 0.950 . S
C782 C781 1.398 . S
C782 C783 1.391 . S
C783 H771 0.950 . S
C783 C779 1.393 . S
C783 C782 1.391 . S
H784 C792 0.950 . S
H785 C797 0.950 . S
H786 C794 0.950 . S
H787 C796 0.950 . S
H788 C798 0.950 . S
H789 C800 0.950 . S
H790 C802 0.950 . S
H791 C803 0.950 . S
C792 H784 0.950 . S
C792 C793 1.386 . S
C792 C794 1.391 . S
C793 C792 1.386 . S
C793 C797 1.393 . S
C794 H786 0.950 . S
C794 C792 1.391 . S
C794 C795 1.400 . S
C795 C794 1.400 . S
C795 C796 1.398 . S
C795 C801 1.491 . S
C796 H787 0.950 . S
C796 C795 1.398 . S
C796 C797 1.391 . S
C797 H785 0.950 . S
C797 C793 1.393 . S
C797 C796 1.391 . S
C798 H788 0.950 . S
C798 C799 1.386 . S
C798 C800 1.391 . S
C799 C798 1.386 . S
C799 C803 1.393 . S
C800 H789 0.950 . S
C800 C798 1.391 . S
C800 C801 1.400 . S
C801 C795 1.491 . S
C801 C800 1.400 . S
C801 C802 1.398 . S
C802 H790 0.950 . S
C802 C801 1.398 . S
C802 C803 1.391 . S
C803 H791 0.950 . S
C803 C799 1.393 . S
C803 C802 1.391 . S
H804 C812 0.950 . S
H805 C817 0.950 . S
H806 C814 0.950 . S
H807 C816 0.950 . S
H808 C818 0.950 . S
H809 C820 0.950 . S
H810 C822 0.950 . S
H811 C823 0.950 . S
C812 H804 0.950 . S
C812 C813 1.386 . S
C812 C814 1.391 . S
C813 C812 1.386 . S
C813 C817 1.393 . S
C814 H806 0.950 . S
C814 C812 1.391 . S
C814 C815 1.400 . S
C815 C814 1.400 . S
C815 C816 1.398 . S
C815 C821 1.491 . S
C816 H807 0.950 . S
C816 C815 1.398 . S
C816 C817 1.391 . S
C817 H805 0.950 . S
C817 C813 1.393 . S
C817 C816 1.391 . S
C818 H808 0.950 . S
C818 C819 1.386 1_565 S
C818 C820 1.391 . S
C819 C818 1.386 1_545 S
C819 C823 1.393 . S
C820 H809 0.950 . S
C820 C818 1.391 . S
C820 C821 1.400 . S
C821 C815 1.491 . S
C821 C820 1.400 . S
C821 C822 1.398 . S
C822 H810 0.950 . S
C822 C821 1.398 . S
C822 C823 1.391 1_565 S
C823 H811 0.950 . S
C823 C819 1.393 . S
C823 C822 1.391 1_545 S
H824 C832 0.950 . S
H825 C837 0.950 . S
H826 C834 0.950 . S
H827 C836 0.950 . S
H828 C838 0.950 . S
H829 C840 0.950 . S
H830 C842 0.950 . S
H831 C843 0.950 . S
C832 H824 0.950 . S
C832 C833 1.386 . S
C832 C834 1.391 . S
C833 C832 1.386 . S
C833 C837 1.393 . S
C834 H826 0.950 . S
C834 C832 1.391 . S
C834 C835 1.400 . S
C835 C834 1.400 . S
C835 C836 1.398 . S
C835 C841 1.491 . S
C836 H827 0.950 . S
C836 C835 1.398 . S
C836 C837 1.391 . S
C837 H825 0.950 . S
C837 C833 1.393 . S
C837 C836 1.391 . S
C838 H828 0.950 . S
C838 C839 1.386 . S
C838 C840 1.391 . S
C839 C838 1.386 . S
C839 C843 1.393 . S
C840 H829 0.950 . S
C840 C838 1.391 . S
C840 C841 1.400 . S
C841 C835 1.491 . S
C841 C840 1.400 . S
C841 C842 1.398 . S
C842 H830 0.950 . S
C842 C841 1.398 . S
C842 C843 1.391 . S
C843 H831 0.950 . S
C843 C839 1.393 . S
C843 C842 1.391 . S
C379 C96 1.538 . S
C373 C5 1.358 . S
C399 C149 1.516 . S
C393 C16 1.286 . S
C419 C110 1.715 . S
C413 C30 1.715 . S
C439 C135 1.618 . S
C433 C40 1.555 . S
C459 C181 1.483 . S
C453 C8 1.479 . S
C479 C227 1.474 . S
C473 C18 1.414 . S
C493 C29 1.746 . S
C499 C294 1.771 . S
C519 C326 1.555 . S
C513 C38 1.323 . S
C539 C195 1.437 . S
C533 C19 1.424 . S
C553 C27 1.514 . S
C559 C241 1.647 . S
C579 C280 1.579 . S
C573 C41 1.564 . S
C599 C340 1.540 . S
C593 C7 1.502 . S
C613 C52 1.559 . S
C619 C156 1.591 . S
C639 C89 1.597 . S
C633 C62 1.572 . S
C653 C74 1.386 . S
C659 C142 1.390 . S
C673 C82 1.218 . S
C679 C103 1.412 . S
C699 C287 1.828 . S
C693 C51 1.740 . S
C719 C333 1.616 . S
C713 C60 1.346 . S
C739 C188 1.507 . S
C733 C71 1.281 . S
C753 C84 1.468 . S
C759 C248 1.516 . S
C779 C273 1.702 . S
C773 C63 1.693 . S
C799 C319 1.476 . S
C793 C73 1.439 . S
C819 C202 1.566 . S
C813 C85 1.566 . S
C833 C49 1.369 . S
C839 C234 1.674 . S
