# Generated by pormake.
# Topology zzz, (3,6)-cn, num edge types: 1
# Building blocks:
#     Node 0, Type 0, BuildingBlock: PAMTOO_clean_linker_0, # of connection points: 3
#     Node 1, Type 0, BuildingBlock: PAMTOO_clean_linker_0, # of connection points: 3
#     Node 2, Type 0, BuildingBlock: PAMTOO_clean_linker_0, # of connection points: 3
#     Node 3, Type 0, BuildingBlock: PAMTOO_clean_linker_0, # of connection points: 3
#     Node 4, Type 0, BuildingBlock: PAMTOO_clean_linker_0, # of connection points: 3
#     Node 5, Type 0, BuildingBlock: PAMTOO_clean_linker_0, # of connection points: 3
#     Node 6, Type 0, BuildingBlock: PAMTOO_clean_linker_0, # of connection points: 3
#     Node 7, Type 0, BuildingBlock: PAMTOO_clean_linker_0, # of connection points: 3
#     Node 8, Type 1, BuildingBlock: KUMBUR_clean_sbu_0, # of connection points: 6
#     Node 9, Type 1, BuildingBlock: KUMBUR_clean_sbu_0, # of connection points: 6
#     Node 10, Type 1, BuildingBlock: KUMBUR_clean_sbu_0, # of connection points: 6
#     Node 11, Type 1, BuildingBlock: KUMBUR_clean_sbu_0, # of connection points: 6
#     Edge 12, Type (0, 1), BuildingBlock: UVAHIK_clean_linker_0, # of connection points: 2
#     Edge 13, Type (0, 1), BuildingBlock: UVAHIK_clean_linker_0, # of connection points: 2
#     Edge 14, Type (0, 1), BuildingBlock: UVAHIK_clean_linker_0, # of connection points: 2
#     Edge 15, Type (0, 1), BuildingBlock: UVAHIK_clean_linker_0, # of connection points: 2
#     Edge 16, Type (0, 1), BuildingBlock: UVAHIK_clean_linker_0, # of connection points: 2
#     Edge 17, Type (0, 1), BuildingBlock: UVAHIK_clean_linker_0, # of connection points: 2
#     Edge 18, Type (0, 1), BuildingBlock: UVAHIK_clean_linker_0, # of connection points: 2
#     Edge 19, Type (0, 1), BuildingBlock: UVAHIK_clean_linker_0, # of connection points: 2
#     Edge 20, Type (0, 1), BuildingBlock: UVAHIK_clean_linker_0, # of connection points: 2
#     Edge 21, Type (0, 1), BuildingBlock: UVAHIK_clean_linker_0, # of connection points: 2
#     Edge 22, Type (0, 1), BuildingBlock: UVAHIK_clean_linker_0, # of connection points: 2
#     Edge 23, Type (0, 1), BuildingBlock: UVAHIK_clean_linker_0, # of connection points: 2
#     Edge 24, Type (0, 1), BuildingBlock: UVAHIK_clean_linker_0, # of connection points: 2
#     Edge 25, Type (0, 1), BuildingBlock: UVAHIK_clean_linker_0, # of connection points: 2
#     Edge 26, Type (0, 1), BuildingBlock: UVAHIK_clean_linker_0, # of connection points: 2
#     Edge 27, Type (0, 1), BuildingBlock: UVAHIK_clean_linker_0, # of connection points: 2
#     Edge 28, Type (0, 1), BuildingBlock: UVAHIK_clean_linker_0, # of connection points: 2
#     Edge 29, Type (0, 1), BuildingBlock: UVAHIK_clean_linker_0, # of connection points: 2
#     Edge 30, Type (0, 1), BuildingBlock: UVAHIK_clean_linker_0, # of connection points: 2
#     Edge 31, Type (0, 1), BuildingBlock: UVAHIK_clean_linker_0, # of connection points: 2
#     Edge 32, Type (0, 1), BuildingBlock: UVAHIK_clean_linker_0, # of connection points: 2
#     Edge 33, Type (0, 1), BuildingBlock: UVAHIK_clean_linker_0, # of connection points: 2
#     Edge 34, Type (0, 1), BuildingBlock: UVAHIK_clean_linker_0, # of connection points: 2
#     Edge 35, Type (0, 1), BuildingBlock: UVAHIK_clean_linker_0, # of connection points: 2
# Relax obj value: 0.145
# Max RMSD: 0.152
# Mean RMSD: 0.111
data_MOF--net-zzz--node1-KUMBUR_clean_sbu_0--node2-PAMTOO_clean_linker_0--edge1-UVAHIK_clean_linker_0
_symmetry_space_group_name_H-M    P1
_symmetry_Int_Tables_number       1
_symmetry_cell_setting            triclinic
loop_
_symmetry_equiv_pos_as_xyz
'x, y, z'
_cell_length_a     65.488521
_cell_length_b     65.334627
_cell_length_c     18.985586
_cell_angle_alpha  90.756516
_cell_angle_beta   89.936205
_cell_angle_gamma 90.037492
loop_
_atom_site_label
_atom_site_type_symbol
_atom_site_fract_x
_atom_site_fract_y
_atom_site_fract_z
_atom_type_partial_charge
H0 H 0.80167 0.56276 0.16287 0.0
H1 H 0.74544 0.5592 0.04663 0.0
H2 H 0.75757 0.5162 0.21161 0.0
H3 H 0.72871 0.49856 0.08742 0.0
C4 C 0.72691 0.514 0.06438 0.0
O5 O 0.73032 0.52861 0.11665 0.0
H6 H 0.73848 0.51528 0.02159 0.0
C7 C 0.78672 0.55594 0.15483 0.0
C8 C 0.78112 0.53897 0.19471 0.0
C9 C 0.77414 0.56317 0.10091 0.0
C10 C 0.75518 0.55384 0.08866 0.0
C11 C 0.74896 0.5371 0.12898 0.0
C12 C 0.76211 0.52941 0.18152 0.0
H13 H 0.97677 0.81964 0.13391 0.0
H14 H 0.98646 0.76368 0.01702 0.0
H15 H 0.01719 0.77358 0.21491 0.0
H16 H 0.98525 0.7307 0.12338 0.0
C17 C 1.00215 0.72891 0.12121 0.0
O18 O 0.01149 0.74744 0.10574 0.0
H19 H 1.00709 0.72425 0.17464 0.0
C20 C 0.98349 0.80449 0.13008 0.0
C21 C 0.99703 0.7982 0.18282 0.0
C22 C 0.9797 0.79232 0.06996 0.0
C23 C 0.98914 0.77313 0.06343 0.0
C24 C 1.00228 0.76601 0.11577 0.0
C25 C 1.00653 0.77873 0.17534 0.0
H26 H 0.71778 0.96988 0.17103 0.0
H27 H 0.77655 0.97403 0.07126 0.0
H28 H 0.76485 1.00752 0.26409 0.0
H29 H 0.8035 0.02706 0.16541 0.0
C30 C 0.79974 0.01439 0.12809 0.0
O31 O 0.79301 0.99772 0.1665 0.0
H32 H 0.78732 0.02002 0.09328 0.0
C33 C 0.73339 0.97548 0.17144 0.0
C34 C 0.7396 0.98899 0.22526 0.0
C35 C 0.74643 0.97027 0.11541 0.0
C36 C 0.76638 0.978 0.11438 0.0
C37 C 0.77324 0.99123 0.16795 0.0
C38 C 0.75969 0.99708 0.22307 0.0
H39 H 0.56196 0.72404 0.1496 0.0
H40 H 0.55518 0.78455 0.0682 0.0
H41 H 0.53543 0.77178 0.27951 0.0
H42 H 0.51152 0.81316 0.20013 0.0
C43 C 0.52163 0.80885 0.15531 0.0
O44 O 0.53951 0.80064 0.18198 0.0
H45 H 0.51309 0.79729 0.12322 0.0
C46 C 0.55749 0.73988 0.15772 0.0
C47 C 0.54886 0.74609 0.22241 0.0
C48 C 0.55943 0.75356 0.10192 0.0
C49 C 0.55341 0.77392 0.11104 0.0
C50 C 0.54474 0.7806 0.17463 0.0
C51 C 0.54214 0.7666 0.23026 0.0
H52 H 0.21659 0.47677 0.08827 0.0
H53 H 0.27038 0.48734 0.21262 0.0
H54 H 0.26603 0.5125 1.00436 0.0
H55 H 0.31315 0.50207 0.0491 0.0
C56 C 0.30755 0.49738 0.10177 0.0
O57 O 0.28986 0.50817 0.11734 0.0
H58 H 0.30443 0.48062 0.098 0.0
C59 C 0.23194 0.48293 0.09284 0.0
C60 C 0.2399 0.49467 0.038 0.0
C61 C 0.24269 0.48033 0.15575 0.0
C62 C 0.26211 0.48903 0.16364 0.0
C63 C 0.27087 0.50012 0.1085 0.0
C64 C 0.25957 0.50335 0.04599 0.0
H65 H 0.0474 0.21904 0.11523 0.0
H66 H 0.04252 0.28054 0.1988 0.0
H67 H 0.02133 0.26668 0.98969 0.0
H68 H 0.03397 0.31868 0.02804 0.0
C69 C 0.037 0.31258 0.08136 0.0
O70 O 0.02451 0.29564 0.09151 0.0
H71 H 0.05342 0.3081 0.08178 0.0
C72 C 0.04364 0.23505 0.10872 0.0
C73 C 0.03489 0.24108 0.0447 0.0
C74 C 0.04633 0.24897 0.16535 0.0
C75 C 0.04044 0.26943 0.15662 0.0
C76 C 0.03149 0.27599 0.09413 0.0
C77 C 0.02859 0.26176 0.03778 0.0
H78 H 0.32186 0.06347 0.09983 0.0
H79 H 0.26546 0.0546 0.21175 0.0
H80 H 0.27516 0.02447 0.01161 0.0
H81 H 0.22639 0.03406 0.04697 0.0
C82 C 0.23096 0.0397 0.10015 0.0
O83 O 0.24909 0.0302 0.11881 0.0
H84 H 0.23315 0.05656 0.09588 0.0
C85 C 0.30655 0.05715 0.10194 0.0
C86 C 0.30002 0.04398 0.04741 0.0
C87 C 0.29438 0.06096 0.16166 0.0
C88 C 0.27497 0.05193 0.1658 0.0
C89 C 0.26777 0.03912 0.11155 0.0
C90 C 0.28045 0.03486 0.05259 0.0
H91 H 0.46244 0.30954 0.06727 0.0
H92 H 0.46873 0.25169 0.17014 0.0
H93 H 0.4995 0.26205 0.9732 0.0
H94 H 0.51149 0.24089 0.15553 0.0
C95 C 0.50837 0.22924 0.11353 0.0
O96 O 0.49163 0.23483 0.07342 0.0
H97 H 0.52196 0.22854 0.07844 0.0
C98 C 0.46822 0.29397 0.06719 0.0
C99 C 0.48109 0.28736 0.01237 0.0
C100 C 0.464 0.28138 0.12462 0.0
C101 C 0.4719 0.26149 0.1258 0.0
C102 C 0.48449 0.25433 0.07113 0.0
C103 C 0.48945 0.26743 0.01483 0.0
Tb104 Tb 0.03693 0.01317 0.70097 0.0
C105 C 0.96456 0.9905 0.5179 0.0
C106 C 0.97684 0.96637 0.43002 0.0
C107 C 0.94202 0.96376 0.47306 0.0
C108 C 0.98028 0.98314 0.47627 0.0
C109 C 0.94504 0.98138 0.51488 0.0
C110 C 0.95792 0.95625 0.43069 0.0
C111 C 0.93228 1.00934 0.58673 0.0
N112 N 0.96796 1.0077 0.55675 0.0
C113 C 0.95188 0.01785 0.58784 0.0
C114 C 0.92893 0.99078 0.55138 0.0
Tb115 Tb 1.00111 0.01925 0.56059 0.0
N116 N 0.99832 0.99347 0.47667 0.0
C117 C 0.01238 0.98935 0.42487 0.0
C118 C 0.9922 0.96082 0.38241 0.0
C119 C 0.00983 0.9727 0.37866 0.0
H120 H 0.95431 0.03212 0.61592 0.0
H121 H 0.02136 0.96923 0.33942 0.0
H122 H 0.95517 0.94312 0.39651 0.0
H123 H 0.91981 0.01706 0.61342 0.0
H124 H 0.02551 0.99886 0.41699 0.0
H125 H 0.0176 0.06816 0.90694 0.0
H126 H 0.99021 0.94802 0.34617 0.0
H127 H 0.08238 0.99973 0.63687 0.0
H128 H 0.01167 0.03889 0.82851 0.0
H129 H 0.11756 0.01325 0.63721 0.0
H130 H 0.92723 0.95634 0.47091 0.0
H131 H 0.05071 0.08631 0.90501 0.0
H132 H 0.08649 0.0884 0.85797 0.0
H133 H 0.91372 0.98426 0.55037 0.0
H134 H 0.11377 0.07347 0.78428 0.0
N135 N 0.04081 0.04034 0.77836 0.0
C136 C 0.02619 0.04642 0.82579 0.0
C137 C 0.04819 0.07336 0.86986 0.0
C138 C 0.06359 0.06633 0.82469 0.0
C139 C 0.02951 0.06314 0.87112 0.0
C140 C 0.05945 0.04945 0.77975 0.0
H141 H 0.12559 0.04526 0.70262 0.0
N142 N 0.07034 0.02416 0.69984 0.0
C143 C 0.10566 0.0213 0.66582 0.0
C144 C 0.07474 0.0411 0.73878 0.0
C145 C 0.08571 0.01366 0.66595 0.0
C146 C 0.1101 0.0394 0.70255 0.0
C147 C 0.09466 0.04933 0.74078 0.0
O148 O 0.05688 0.99276 0.74982 0.0
O149 O 0.01827 0.99786 0.62175 0.0
O150 O 0.98542 1.00403 0.64841 0.0
O151 O 1.00538 0.0136 0.74444 0.0
O152 O 0.04615 0.9856 0.63948 0.0
O153 O 0.02709 0.99875 0.7937 0.0
O154 O 0.01331 0.04264 0.4979 0.0
O155 O 0.01895 0.03469 0.6419 0.0
O156 O 0.05155 0.02895 0.61253 0.0
O157 O 0.03271 0.01576 0.51924 0.0
O158 O 0.98973 0.04435 0.6289 0.0
O159 O 0.98156 0.03508 0.49233 0.0
C160 C 0.0297 0.98314 0.60394 0.0
C161 C 0.0403 0.96498 0.7991 0.0
C162 C 0.0214 0.93392 0.76875 0.0
C163 C 0.02291 0.9554 0.77011 0.0
C164 C 0.03758 0.92226 0.79621 0.0
C165 C 0.05613 0.95306 0.82639 0.0
C166 C 0.05478 0.93179 0.82471 0.0
C167 C 0.98787 1.007 0.71702 0.0
C168 C 0.0433 0.98719 0.79553 0.0
C169 C 0.09863 0.06678 0.78254 0.0
C170 C 0.08311 0.07527 0.82449 0.0
C171 C 1.00626 0.04802 0.66308 0.0
C172 C 0.98995 0.07023 0.49557 0.0
C173 C 1.00529 0.08458 0.51221 0.0
C174 C 1.00024 0.10462 0.53387 0.0
C175 C 0.97951 0.11004 0.53983 0.0
C176 C 0.96937 0.07615 0.50086 0.0
C177 C 0.96424 0.09588 0.52338 0.0
C178 C 0.04993 0.02352 0.54535 0.0
C179 C 0.99534 0.04874 0.4784 0.0
H180 H 0.01074 0.96455 0.74814 0.0
H181 H 0.03671 0.90572 0.79766 0.0
H182 H 0.06972 0.96023 0.84799 0.0
H183 H 0.06705 0.92266 0.84589 0.0
H184 H 0.0212 0.08012 0.50895 0.0
H185 H 0.97503 0.12544 0.55485 0.0
H186 H 0.9572 0.06543 0.48872 0.0
H187 H 0.94834 0.10029 0.52754 0.0
Tb188 Tb 0.51965 0.03397 0.68231 0.0
C189 C 0.54096 0.9586 0.50281 0.0
C190 C 0.5646 0.97063 0.4147 0.0
C191 C 0.56638 0.93538 0.45342 0.0
C192 C 0.54828 0.97421 0.4619 0.0
C193 C 0.54952 0.93883 0.49779 0.0
C194 C 0.57394 0.95128 0.41201 0.0
C195 C 0.52292 0.92695 0.57541 0.0
N196 N 0.52466 0.96255 0.54475 0.0
C197 C 0.51506 0.94684 0.57886 0.0
C198 C 0.54045 0.92299 0.53564 0.0
Tb199 Tb 0.51263 0.9956 0.54681 0.0
N200 N 0.53874 0.99263 0.46586 0.0
C201 C 0.54387 1.00763 0.4193 0.0
C202 C 0.57067 0.9864 0.37031 0.0
C203 C 0.56005 1.00488 0.37194 0.0
H204 H 0.50164 0.94982 0.61055 0.0
H205 H 0.56437 0.01708 0.33692 0.0
H206 H 0.58664 0.94832 0.37669 0.0
H207 H 0.51556 0.91475 0.60389 0.0
H208 H 0.53617 0.02212 0.41946 0.0
H209 H 0.46883 0.01222 0.89599 0.0
H210 H 0.5832 0.98432 0.33358 0.0
H211 H 0.53035 0.07994 0.61932 0.0
H212 H 0.49586 1.00692 0.81039 0.0
H213 H 0.51691 0.11504 0.62875 0.0
H214 H 0.57332 0.92036 0.44937 0.0
H215 H 0.45117 0.04553 0.90482 0.0
H216 H 0.44821 0.0818 0.86488 0.0
H217 H 0.54654 0.90758 0.53308 0.0
H218 H 0.46124 0.10984 0.79205 0.0
N219 N 0.49451 0.03706 0.76779 0.0
C220 C 0.48902 0.02177 0.81287 0.0
C221 C 0.46337 0.04341 0.86682 0.0
C222 C 0.46953 0.05932 0.82331 0.0
C223 C 0.47334 0.02463 0.8621 0.0
C224 C 0.48543 0.05567 0.77433 0.0
H225 H 0.48707 0.12246 0.70485 0.0
N226 N 0.50829 0.06727 0.68917 0.0
C227 C 0.50985 0.10288 0.65837 0.0
C228 C 0.49256 0.07133 0.73342 0.0
C229 C 0.51746 0.08292 0.6534 0.0
C230 C 0.49298 0.10699 0.70114 0.0
C231 C 0.48427 0.0912 0.74009 0.0
O232 O 0.54194 0.05401 0.72272 0.0
O233 O 0.5341 0.01488 0.60208 0.0
O234 O 0.53034 0.98185 0.6324 0.0
O235 O 0.52037 1.00273 0.72644 0.0
O236 O 0.54334 0.04447 0.60877 0.0
O237 O 0.5384 0.02408 0.76576 0.0
O238 O 0.4904 0.97535 0.50831 0.0
O239 O 0.49825 0.01509 0.62541 0.0
O240 O 0.50179 0.04796 0.59752 0.0
O241 O 0.51029 0.02677 0.50231 0.0
O242 O 0.48699 0.98631 0.61491 0.0
O243 O 0.49782 1.00277 0.45175 0.0
C244 C 0.54681 0.02738 0.5772 0.0
C245 C 0.57217 0.03543 0.74172 0.0
C246 C 0.60067 0.01141 0.73258 0.0
C247 C 0.58103 0.0164 0.7575 0.0
C248 C 0.61139 0.02557 0.69145 0.0
C249 C 0.58356 0.04962 0.70253 0.0
C250 C 0.60291 0.0446 0.67707 0.0
C251 C 0.52784 0.98521 0.70088 0.0
C252 C 0.55052 0.03976 0.75931 0.0
C253 C 0.46795 0.09475 0.78666 0.0
C254 C 0.46056 0.0788 0.82816 0.0
C255 C 0.48449 1.00336 0.64789 0.0
C256 C 0.46346 0.9912 0.45174 0.0
C257 C 0.45468 1.00937 0.47847 0.0
C258 C 0.43335 0.01187 0.47805 0.0
C259 C 0.42103 0.99588 0.45116 0.0
C260 C 0.4509 0.97556 0.42507 0.0
C261 C 0.42978 0.9779 0.42499 0.0
C262 C 0.50342 0.04443 0.52878 0.0
C263 C 0.48541 0.98723 0.45694 0.0
H264 H 0.57257 1.00536 0.78813 0.0
H265 H 0.62661 0.02217 0.67222 0.0
H266 H 0.5773 0.06444 0.68957 0.0
H267 H 0.61136 0.05549 0.64594 0.0
H268 H 0.46433 0.02138 0.49999 0.0
H269 H 0.40459 0.99749 0.44838 0.0
H270 H 0.45746 0.96138 0.40526 0.0
H271 H 0.42015 0.96577 0.40425 0.0
Tb272 Tb 0.528 0.51039 0.55753 0.0
C273 C 0.44585 0.51096 0.71285 0.0
C274 C 0.42353 0.52779 0.63113 0.0
C275 C 0.40984 0.50198 0.70909 0.0
C276 C 0.44315 0.52453 0.65955 0.0
C277 C 0.42916 0.49999 0.74033 0.0
C278 C 0.40702 0.5159 0.65438 0.0
C279 C 0.45128 0.48842 0.83313 0.0
N280 N 0.4646 0.50998 0.74214 0.0
C281 C 0.46723 0.49982 0.8041 0.0
C282 C 0.43223 0.48816 0.80025 0.0
Tb283 Tb 0.49084 0.52705 0.68734 0.0
N284 N 0.45951 0.53579 0.63977 0.0
C285 C 0.45664 0.55211 0.59626 0.0
C286 C 0.42096 0.54345 0.58259 0.0
C287 C 0.43751 0.55596 0.56635 0.0
H288 H 0.4819 0.49996 0.83005 0.0
H289 H 0.43561 0.56849 0.53022 0.0
H290 H 0.3919 0.51792 0.63242 0.0
H291 H 0.4537 0.47988 0.88086 0.0
H292 H 0.46902 0.56193 0.58167 0.0
H293 H 0.58307 0.46356 0.69751 0.0
H294 H 0.40618 0.54644 0.55928 0.0
H295 H 0.53553 0.54482 0.43328 0.0
H296 H 0.54945 0.47236 0.65392 0.0
H297 H 0.56417 0.56479 0.38509 0.0
H298 H 0.39685 0.49347 0.72865 0.0
H299 H 0.6131 0.48447 0.66664 0.0
H300 H 0.6277 0.51361 0.59819 0.0
H301 H 0.41982 0.47948 0.82307 0.0
H302 H 0.62263 0.54115 0.51273 0.0
N303 N 0.55924 0.49912 0.59873 0.0
C304 C 0.56193 0.48204 0.63898 0.0
C305 C 0.59817 0.48859 0.6468 0.0
C306 C 0.59568 0.50523 0.60226 0.0
C307 C 0.58126 0.47676 0.66424 0.0
C308 C 0.57586 0.51002 0.57835 0.0
H309 H 0.59907 0.56007 0.43193 0.0
N310 N 0.55393 0.52894 0.50731 0.0
C311 C 0.56691 0.55382 0.42626 0.0
C312 C 0.57308 0.52549 0.53091 0.0
C313 C 0.55074 0.54239 0.4535 0.0
C314 C 0.58655 0.55117 0.45301 0.0
C315 C 0.5899 0.53666 0.50524 0.0
O316 O 0.52925 0.50466 0.44866 0.0
O317 O 0.49592 0.51484 0.58254 0.0
O318 O 0.48866 0.4934 0.68355 0.0
O319 O 0.51828 0.48401 0.62143 0.0
O320 O 0.50598 0.52501 0.48747 0.0
O321 O 0.52625 0.47981 0.52091 0.0
O322 O 0.4919 0.53618 0.7938 0.0
O323 O 0.52248 0.5216 0.66207 0.0
O324 O 0.53348 0.54302 0.58149 0.0
O325 O 0.50121 0.55265 0.62025 0.0
O326 O 0.51338 0.51456 0.76134 0.0
O327 O 0.48959 0.55855 0.71276 0.0
C328 C 0.48999 0.52242 0.5253 0.0
C329 C 0.50562 0.47885 0.41773 0.0
C330 C 0.47677 0.45524 0.40455 0.0
C331 C 0.49525 0.46096 0.43734 0.0
C332 C 0.46865 0.46794 0.35221 0.0
C333 C 0.49733 0.491 0.36416 0.0
C334 C 0.47889 0.48565 0.33234 0.0
C335 C 0.50231 0.47963 0.66187 0.0
C336 C 0.5243 0.48554 0.4557 0.0
C337 C 0.60954 0.53259 0.53114 0.0
C338 C 0.61242 0.51691 0.57972 0.0
C339 C 0.52894 0.51516 0.72022 0.0
C340 C 0.51375 0.56474 0.80333 0.0
C341 C 0.52153 0.5824 0.77117 0.0
C342 C 0.54093 0.59007 0.78946 0.0
C343 C 0.55255 0.5797 0.84014 0.0
C344 C 0.5255 0.55502 0.85515 0.0
C345 C 0.54483 0.56236 0.87273 0.0
C346 C 0.51941 0.55721 0.59369 0.0
C347 C 0.49451 0.55527 0.77804 0.0
H348 H 0.50152 0.45154 0.47837 0.0
H349 H 0.4547 0.46391 0.32479 0.0
H350 H 0.50488 0.50487 0.34754 0.0
H351 H 0.47255 0.49523 0.29171 0.0
H352 H 0.51262 0.59004 0.73131 0.0
H353 H 0.56736 0.58538 0.85658 0.0
H354 H 0.52001 0.54141 0.88104 0.0
H355 H 0.55384 0.55461 0.91199 0.0
Tb356 Tb 0.02151 0.53388 0.53767 0.0
C357 C 0.02095 0.46144 0.72385 0.0
C358 C 0.01036 0.43507 0.64133 0.0
C359 C 0.03295 0.42649 0.73783 0.0
C360 C 0.01032 0.45575 0.66419 0.0
C361 C 0.03183 0.44678 0.76279 0.0
C362 C 0.02224 0.42065 0.67707 0.0
C363 C 0.03754 0.47264 0.85248 0.0
N364 N 0.01931 0.48107 0.74681 0.0
C365 C 0.02654 0.48657 0.81212 0.0
C366 C 0.04055 0.45274 0.82707 0.0
Tb367 Tb 1.00264 0.50343 0.67448 0.0
N368 N 0.99885 0.47015 0.63156 0.0
C369 C 0.98577 0.46412 0.57861 0.0
C370 C 0.99791 0.4293 0.58486 0.0
C371 C 0.98527 0.44381 0.55444 0.0
H372 H 0.02448 0.50197 0.83204 0.0
H373 H 0.97527 0.43943 0.51143 0.0
H374 H 0.02266 0.4048 0.65958 0.0
H375 H 0.04374 0.4773 0.90304 0.0
H376 H 0.97598 0.47461 0.55175 0.0
H377 H 0.09945 0.55785 0.49267 0.0
H378 H 0.99755 0.41362 0.56562 0.0
H379 H 0.97917 0.56196 0.58469 0.0
H380 H 0.07057 0.53363 0.49408 0.0
H381 H 0.97106 0.59744 0.60945 0.0
H382 H 0.04146 0.41507 0.76643 0.0
H383 H 0.09416 0.59395 0.52908 0.0
H384 H 0.07005 0.62162 0.56834 0.0
H385 H 0.04901 0.44194 0.85853 0.0
H386 H 0.03508 0.63241 0.59781 0.0
N387 N 0.04919 0.55549 0.53368 0.0
C388 C 0.0681 0.54932 0.51057 0.0
C389 C 0.08145 0.58333 0.53014 0.0
C390 C 0.06191 0.58984 0.55005 0.0
C391 C 0.08449 0.563 0.50954 0.0
C392 C 0.04586 0.5754 0.55065 0.0
H393 H 0.99818 0.62364 0.61161 0.0
N394 N 0.01117 0.567 0.5658 0.0
C395 C 0.98662 0.59319 0.59675 0.0
C396 C 0.02618 0.58142 0.56644 0.0
C397 C 0.99145 0.5728 0.58088 0.0
C398 C 1.00196 0.60792 0.59827 0.0
C399 C 0.02202 0.60215 0.58316 0.0
O400 O 1.00544 0.52494 0.44633 0.0
O401 O 0.01294 0.50292 0.56644 0.0
O402 O 0.03619 0.50459 0.69012 0.0
O403 O 0.04813 0.5278 0.6066 0.0
O404 O 0.04065 0.50678 0.52009 0.0
O405 O 0.03167 0.5438 0.43782 0.0
O406 O 0.98572 0.49277 0.76176 0.0
O407 O 1.00789 0.5347 0.64087 0.0
O408 O 0.98822 0.5331 0.52502 0.0
O409 O 0.97802 0.50643 0.59716 0.0
O410 O 0.01532 0.52771 0.74222 0.0
O411 O 0.97462 0.51727 0.69944 0.0
C412 C 0.02825 0.49308 0.54268 0.0
C413 C 0.02687 0.51761 0.35172 0.0
C414 C 0.05306 0.49266 0.31805 0.0
C415 C 0.04635 0.50911 0.36048 0.0
C416 C 0.04003 0.48505 0.26499 0.0
C417 C 0.01413 0.50986 0.29839 0.0
C418 C 0.02075 0.49372 0.25506 0.0
C419 C 0.05101 0.5156 0.66123 0.0
C420 C 0.01873 0.53244 0.40371 0.0
C421 C 0.038 0.6165 0.58453 0.0
C422 C 0.05791 0.61035 0.56799 0.0
C423 C 0.0153 0.54227 0.69746 0.0
C424 C 0.96789 0.52004 0.81964 0.0
C425 C 0.952 0.53438 0.81602 0.0
C426 C 0.94772 0.54766 0.87299 0.0
C427 C 0.9599 0.54657 0.93383 0.0
C428 C 0.97971 0.51903 0.88113 0.0
C429 C 0.97577 0.53234 0.93768 0.0
C430 C 0.97425 0.52009 0.54793 0.0
C431 C 0.97224 0.50721 0.75695 0.0
H432 H 0.05605 0.51483 0.40219 0.0
H433 H 0.04479 0.47257 0.23065 0.0
H434 H 0.99889 0.51595 0.29148 0.0
H435 H 0.0108 0.48773 0.21422 0.0
H436 H 0.94309 0.53533 0.76806 0.0
H437 H 0.95685 0.5563 0.97922 0.0
H438 H 0.99201 0.50809 0.88556 0.0
H439 H 0.98494 0.5315 0.98495 0.0
C440 C 0.19909 0.02057 0.13973 0.0
C441 C 0.21395 0.03567 0.15314 0.0
C442 C 0.18201 0.01852 0.18405 0.0
C443 C 0.16086 0.03354 0.36149 0.0
H444 H 0.10883 0.02238 0.27172 0.0
C445 C 0.08374 0.03985 0.51465 0.0
C446 C 0.06834 0.02544 0.49902 0.0
C447 C 0.10159 0.04091 0.4736 0.0
C448 C 0.12322 0.02526 0.29808 0.0
H449 H 0.223 0.05977 0.22572 0.0
H450 H 0.19327 0.05635 0.30303 0.0
H451 H 0.13975 0.02388 0.20066 0.0
H452 H 0.0602 1.00047 0.42839 0.0
H453 H 0.09093 1.00246 0.35647 0.0
H454 H 0.14425 0.03501 0.45895 0.0
C455 C 0.19472 0.04599 0.25834 0.0
C456 C 0.14108 0.0261 0.25708 0.0
C457 C 0.2118 0.04802 0.21392 0.0
C458 C 0.07131 0.01219 0.44091 0.0
C459 C 0.08912 0.01327 0.39972 0.0
C460 C 0.14297 0.03271 0.40255 0.0
C461 C 0.1793 0.03147 0.24341 0.0
C462 C 0.16024 0.03024 0.28797 0.0
C463 C 0.10462 0.02761 0.41541 0.0
C464 C 0.12382 0.02856 0.37157 0.0
H465 H 0.20037 0.0107 0.09366 0.0
H466 H 0.17083 1.00684 0.17133 0.0
H467 H 0.17525 0.03649 0.38775 0.0
H468 H 0.08201 0.05033 0.55896 0.0
H469 H 0.11294 0.05234 0.48723 0.0
C470 C 0.48598 0.20084 0.16541 0.0
C471 C 0.50541 0.20868 0.14901 0.0
C472 C 0.48394 0.18241 0.20234 0.0
C473 C 0.51394 0.13624 0.25777 0.0
H474 H 0.46931 0.12915 0.38932 0.0
C475 C 0.50522 0.06048 0.40867 0.0
C476 C 0.49911 0.06162 0.47967 0.0
C477 C 0.5038 0.07758 0.36505 0.0
C478 C 0.482 0.13086 0.35331 0.0
H479 H 0.53784 0.20387 0.1622 0.0
H480 H 0.53444 0.17225 0.22753 0.0
H481 H 0.47177 0.16056 0.32223 0.0
H482 H 0.48447 0.08121 0.55758 0.0
H483 H 0.483 0.11125 0.48341 0.0
H484 H 0.52479 0.10711 0.29112 0.0
C485 C 0.52067 0.17969 0.20954 0.0
C486 C 0.48325 0.14887 0.31378 0.0
C487 C 0.52267 0.19794 0.17219 0.0
C488 C 0.49016 0.07995 0.5042 0.0
C489 C 0.48898 0.09717 0.46091 0.0
C490 C 0.5128 0.11837 0.29768 0.0
C491 C 0.50128 0.17152 0.22512 0.0
C492 C 0.49934 0.15194 0.26565 0.0
C493 C 0.49628 0.09645 0.391 0.0
C494 C 0.49687 0.11535 0.34642 0.0
H495 H 0.47231 0.20894 0.14992 0.0
H496 H 0.46873 0.17669 0.21266 0.0
H497 H 0.52638 0.13768 0.22059 0.0
H498 H 0.51164 0.04652 0.38688 0.0
H499 H 0.50889 0.07601 0.31099 0.0
C500 C 0.32687 0.48773 0.21276 0.0
C501 C 0.32403 0.50129 0.15669 0.0
C502 C 0.34342 0.49013 0.25919 0.0
C503 C 0.3831 0.52761 0.31995 0.0
H504 H 0.4131 0.47909 0.3735 0.0
C505 C 0.46436 0.53265 0.43573 0.0
C506 C 0.46966 0.51984 0.4916 0.0
C507 C 0.44578 0.53019 0.40032 0.0
C508 C 0.40476 0.49279 0.35997 0.0
H509 H 0.33571 0.52858 0.10757 0.0
H510 H 0.36456 0.53285 0.18812 0.0
H511 H 0.38202 0.47566 0.30319 0.0
H512 H 0.46023 0.49345 0.55121 0.0
H513 H 0.42752 0.48907 0.48932 0.0
H514 H 0.40593 0.54475 0.37598 0.0
C515 C 0.35407 0.52031 0.1966 0.0
C516 C 0.38687 0.49083 0.31952 0.0
C517 C 0.33755 0.51786 0.15012 0.0
C518 C 0.45626 0.50392 0.50967 0.0
C519 C 0.43764 0.50131 0.47366 0.0
C520 C 0.40094 0.52956 0.3603 0.0
C521 C 0.35748 0.50628 0.25122 0.0
C522 C 0.37589 0.50824 0.29807 0.0
C523 C 0.43205 0.51457 0.41885 0.0
C524 C 0.41222 0.51221 0.38009 0.0
H525 H 0.31656 0.47493 0.21954 0.0
H526 H 0.34524 0.47924 0.30122 0.0
H527 H 0.37492 0.54137 0.30595 0.0
H528 H 0.47461 0.54474 0.41959 0.0
H529 H 0.44232 0.54038 0.35745 0.0
C530 C 0.04554 0.3307 0.19792 0.0
C531 C 0.0334 0.32941 0.13686 0.0
C532 C 0.04401 0.34758 0.24461 0.0
C533 C 0.02591 0.40215 0.25161 0.0
H534 H 0.03459 0.39705 0.45249 0.0
C535 C 0.01365 0.47092 0.44572 0.0
C536 C 0.02715 0.47327 0.50283 0.0
C537 C 0.01408 0.45322 0.40278 0.0
C538 C 0.03235 0.39885 0.39642 0.0
H539 H 0.00937 0.34448 0.07931 0.0
H540 H 1.00636 0.37366 0.16085 0.0
H541 H 0.03531 0.36655 0.37676 0.0
H542 H 0.0524 0.4593 0.55723 0.0
H543 H 0.05302 0.42819 0.48331 0.0
H544 H 0.02302 0.43444 0.27123 0.0
C545 C 0.01751 0.36192 0.17213 0.0
C546 C 0.03275 0.38126 0.35268 0.0
C547 C 0.01904 0.34503 0.12553 0.0
C548 C 0.04141 0.45765 0.51495 0.0
C549 C 0.04173 0.43981 0.47242 0.0
C550 C 0.02549 0.41972 0.29531 0.0
C551 C 0.03023 0.36373 0.23191 0.0
C552 C 0.02952 0.38255 0.27937 0.0
C553 C 0.02811 0.43731 0.41532 0.0
C554 C 0.02867 0.41841 0.36855 0.0
H555 H 0.05676 0.31895 0.20829 0.0
H556 H 0.05421 0.34827 0.28941 0.0
H557 H 0.02378 0.40405 0.19555 0.0
H558 H 1.00281 0.48289 0.43387 0.0
H559 H 1.00325 0.45199 0.35988 0.0
C560 C 0.82068 0.01727 0.01579 0.0
C561 C 0.81874 1.00948 0.08423 0.0
C562 C 0.83889 0.01499 0.97735 0.0
C563 C 0.8948 1.00442 0.99987 0.0
H564 H 0.89346 0.99948 0.79632 0.0
C565 C 0.96784 0.01504 0.82812 0.0
C566 C 0.96965 1.00423 0.76384 0.0
C567 C 0.94984 0.01409 0.86839 0.0
C568 C 0.89426 1.0006 0.85319 0.0
H569 H 0.83484 0.99348 0.16626 0.0
H570 H 0.86647 0.9889 0.09876 0.0
H571 H 0.86166 0.99995 0.86249 0.0
H572 H 0.95409 0.98291 0.69397 0.0
H573 H 0.92293 0.98096 0.76415 0.0
H574 H 0.92743 1.00459 0.9906 0.0
C575 C 0.85391 0.99695 0.07461 0.0
C576 C 0.87586 1.00118 0.8914 0.0
C577 C 0.83564 0.99932 0.11321 0.0
C578 C 0.95317 0.99178 0.74246 0.0
C579 C 0.93518 0.99074 0.78282 0.0
C580 C 0.91322 1.00375 0.96165 0.0
C581 C 0.85593 1.0049 1.0061 0.0
C582 C 0.87574 1.00329 0.96545 0.0
C583 C 0.93304 1.00213 0.84608 0.0
C584 C 0.91331 1.00199 0.8875 0.0
H585 H 0.80818 0.02562 0.99238 0.0
H586 H 0.83976 0.02177 0.92572 0.0
H587 H 0.89556 1.00627 0.05654 0.0
H588 H 0.98004 0.02489 0.84641 0.0
H589 H 0.94891 0.02332 0.91604 0.0
C590 C 0.53195 0.82497 0.03936 0.0
C591 C 0.52605 0.82739 0.11015 0.0
C592 C 0.53483 0.84205 0.99632 0.0
C593 C 0.54031 0.8995 1.00183 0.0
H594 H 0.52461 0.89459 0.80552 0.0
C595 C 0.5258 0.96942 0.82161 0.0
C596 C 0.53212 0.96816 0.75075 0.0
C597 C 0.52749 0.95253 0.86613 0.0
C598 C 0.52931 0.89619 0.86001 0.0
H599 H 0.51898 0.84971 0.1917 0.0
H600 H 0.52329 0.87946 0.1167 0.0
H601 H 0.5225 0.86484 0.88103 0.0
H602 H 0.54766 0.94868 0.67458 0.0
H603 H 0.54983 0.91897 0.75109 0.0
H604 H 0.54638 0.93114 0.98076 0.0
C605 C 0.52617 0.86444 0.09417 0.0
C606 C 0.52817 0.87904 0.90359 0.0
C607 C 0.52353 0.84734 0.13734 0.0
C608 C 0.54156 0.94994 0.72741 0.0
C609 C 0.54298 0.93292 0.77157 0.0
C610 C 0.5412 0.91672 0.95838 0.0
C611 C 0.53168 0.8621 0.02263 0.0
C612 C 0.53357 0.88038 0.97542 0.0
C613 C 0.53559 0.93386 0.8412 0.0
C614 C 0.53563 0.91533 0.88691 0.0
H615 H 0.53393 0.80981 0.01675 0.0
H616 H 0.53947 0.83944 0.94222 0.0
H617 H 0.54503 0.90124 0.05619 0.0
H618 H 0.51908 0.98328 0.84274 0.0
H619 H 0.52175 0.95391 0.9195 0.0
C620 C 0.70193 0.53149 0.98212 0.0
C621 C 0.7058 0.51632 0.03224 0.0
C622 C 0.68303 0.53235 0.9472 0.0
C623 C 0.63848 0.49936 0.90095 0.0
H624 H 0.6119 0.55046 0.85491 0.0
C625 C 0.55535 0.5015 0.80092 0.0
C626 C 0.55013 0.51525 0.74774 0.0
C627 C 0.57465 0.50214 0.83242 0.0
C628 C 0.61924 0.53604 0.86644 0.0
H629 H 0.69252 0.49078 0.08745 0.0
H630 H 0.65955 0.49235 0.02755 0.0
H631 H 0.64449 0.55097 0.91776 0.0
H632 H 0.56057 0.54149 0.68931 0.0
H633 H 0.59456 0.54252 0.74359 0.0
H634 H 0.61335 0.4844 0.84975 0.0
C635 C 0.67122 0.50335 0.01377 0.0
C636 C 0.63796 0.53633 0.90273 0.0
C637 C 0.69007 0.50254 0.04868 0.0
C638 C 0.56443 0.53021 0.72833 0.0
C639 C 0.5838 0.53097 0.7603 0.0
C640 C 0.61985 0.49907 0.86468 0.0
C641 C 0.6675 0.51804 0.96156 0.0
C642 C 0.64776 0.51797 0.92128 0.0
C643 C 0.58923 0.51684 0.81263 0.0
C644 C 0.60979 0.51738 0.84758 0.0
H645 H 0.71378 0.54232 0.9685 0.0
H646 H 0.68086 0.54383 0.90728 0.0
H647 H 0.64573 0.4849 0.91255 0.0
H648 H 0.54441 0.49017 0.81825 0.0
H649 H 0.57798 0.49131 0.87354 0.0
C650 C 0.01791 0.69444 0.08679 0.0
C651 C 1.00706 0.71205 0.06698 0.0
C652 C 0.01996 0.67756 0.0405 0.0
C653 C 0.996 0.65352 0.87966 0.0
H654 H 0.04329 0.61803 0.88717 0.0
C655 C 0.99617 0.57196 0.75028 0.0
C656 C 0.01451 0.56392 0.72311 0.0
C657 C 0.99578 0.59096 0.78603 0.0
C658 C 0.03001 0.62781 0.88337 0.0
H659 H 0.99027 0.72572 0.98172 0.0
H660 H 0.99422 0.6966 0.90012 0.0
H661 H 0.04247 0.6493 0.95808 0.0
H662 H 0.04701 0.56905 0.71555 0.0
H663 H 0.04641 0.60255 0.77517 0.0
H664 H 0.9837 0.63219 0.80395 0.0
C665 C 1.00091 0.6956 0.95207 0.0
C666 C 0.02941 0.64576 0.92522 0.0
C667 C 0.99885 0.7125 0.99856 0.0
C668 C 0.03254 0.57518 0.73377 0.0
C669 C 0.03218 0.59428 0.76906 0.0
C670 C 0.99661 0.63558 0.83768 0.0
C671 C 0.01123 0.67764 0.97255 0.0
C672 C 0.01232 0.6589 0.92476 0.0
C673 C 0.01382 0.60244 0.79677 0.0
C674 C 0.01356 0.62226 0.83914 0.0
H675 H 0.02426 0.69341 0.13928 0.0
H676 H 0.02779 0.66411 0.05933 0.0
H677 H 0.98242 0.66293 0.87779 0.0
H678 H 0.98215 0.56325 0.74542 0.0
H679 H 0.98138 0.59623 0.80758 0.0
C680 C 0.04541 0.2502 0.29814 0.0
C681 C 0.05339 0.24163 0.23544 0.0
C682 C 0.04902 0.24103 0.36292 0.0
C683 C 0.07339 0.19476 0.44524 0.0
H684 H 0.01971 0.19065 0.52979 0.0
C685 C 0.0328 0.12122 0.49579 0.0
C686 C 0.01637 0.12042 0.54338 0.0
C687 C 0.04523 0.13851 0.49308 0.0
C688 C 0.03507 0.19187 0.50899 0.0
H689 H 0.07376 0.21818 0.19398 0.0
H690 H 0.07841 0.20114 0.30503 0.0
H691 H 0.02731 0.21902 0.45528 0.0
H692 H 1.00207 0.13583 0.63252 0.0
H693 H 0.0235 0.16637 0.62639 0.0
H694 H 0.08012 0.16615 0.49418 0.0
C695 C 0.06971 0.21522 0.30498 0.0
C696 C 0.03951 0.20832 0.46571 0.0
C697 C 0.06661 0.22476 0.24046 0.0
C698 C 0.01416 0.13629 0.59359 0.0
C699 C 0.02654 0.15369 0.59057 0.0
C700 C 0.06882 0.17809 0.48806 0.0
C701 C 0.06007 0.22263 0.36656 0.0
C702 C 0.05824 0.20928 0.4294 0.0
C703 C 0.0414 0.15546 0.5375 0.0
C704 C 0.04912 0.17584 0.51647 0.0
H705 H 0.0352 0.2632 0.29735 0.0
H706 H 0.04194 0.24764 0.40946 0.0
H707 H 0.08826 0.19537 0.42037 0.0
H708 H 0.03499 0.10934 0.45619 0.0
H709 H 0.05641 0.13937 0.45114 0.0
C710 C 0.31546 0.08965 0.21247 0.0
C711 C 0.3033 0.07221 0.22277 0.0
C712 C 0.32823 0.09694 0.26619 0.0
C713 C 0.34555 0.08686 0.45112 0.0
H714 H 0.39825 0.08294 0.35945 0.0
C715 C 0.40461 0.0316 0.53261 0.0
C716 C 0.42365 0.03159 0.49856 0.0
C717 C 0.39178 0.04855 0.52827 0.0
C718 C 0.38393 0.08478 0.38729 0.0
H719 H 0.29325 0.05016 0.29978 0.0
H720 H 0.3156 0.06257 0.39275 0.0
H721 H 0.36878 0.09168 0.29143 0.0
H722 H 0.44602 0.05075 0.44687 0.0
H723 H 0.424 0.08071 0.4421 0.0
H724 H 0.36074 0.07864 0.54641 0.0
C725 C 0.31524 0.07087 0.34376 0.0
C726 C 0.36681 0.08981 0.34762 0.0
C727 C 0.30242 0.06365 0.29017 0.0
C728 C 0.43117 0.05009 0.47191 0.0
C729 C 0.41842 0.06723 0.46857 0.0
C730 C 0.36279 0.08201 0.49117 0.0
C731 C 0.32918 0.08681 0.33102 0.0
C732 C 0.34722 0.08936 0.37788 0.0
C733 C 0.39788 0.06593 0.49044 0.0
C734 C 0.38192 0.07922 0.45839 0.0
H735 H 0.31611 0.09683 0.1614 0.0
H736 H 0.33848 0.10951 0.25515 0.0
H737 H 0.33072 0.08698 0.4764 0.0
H738 H 0.39878 0.01776 0.55621 0.0
H739 H 0.3763 0.04688 0.54731 0.0
C740 C 0.43476 0.29977 0.18137 0.0
C741 C 0.45393 0.29041 0.18718 0.0
C742 C 0.42781 0.3131 0.23437 0.0
C743 C 0.44432 0.33872 0.40506 0.0
H744 H 0.42604 0.38692 0.30656 0.0
C745 C 0.47878 0.41781 0.43197 0.0
C746 C 0.46681 0.43532 0.42037 0.0
C747 C 0.46983 0.39844 0.43295 0.0
C748 C 0.43061 0.37357 0.3359 0.0
H749 H 0.48014 0.28611 0.25447 0.0
H750 H 0.46879 0.31003 0.34481 0.0
H751 H 0.42271 0.3538 0.25061 0.0
H752 H 0.43569 0.44632 0.40969 0.0
H753 H 0.42022 0.41227 0.40798 0.0
H754 H 0.45425 0.35929 0.48717 0.0
C755 C 0.45857 0.30682 0.30131 0.0
C756 C 0.42866 0.35437 0.30375 0.0
C757 C 0.46522 0.2931 0.24921 0.0
C758 C 0.44545 0.43311 0.41633 0.0
C759 C 0.43653 0.41366 0.41622 0.0
C760 C 0.44663 0.35805 0.43667 0.0
C761 C 0.44028 0.31789 0.29277 0.0
C762 C 0.43657 0.33678 0.33605 0.0
C763 C 0.44877 0.39611 0.4215 0.0
C764 C 0.44075 0.37572 0.40062 0.0
H765 H 0.42575 0.29774 0.13395 0.0
H766 H 0.41332 0.32073 0.22694 0.0
H767 H 0.44993 0.32549 0.43276 0.0
H768 H 0.49525 0.41879 0.43493 0.0
H769 H 0.47969 0.38518 0.43634 0.0
C770 C 0.22461 0.48355 0.26975 0.0
C771 C 0.23181 0.4709 0.21506 0.0
C772 C 0.20789 0.47746 0.31015 0.0
C773 C 0.16241 0.44677 0.27338 0.0
H774 H 0.14369 0.47458 0.44298 0.0
C775 C 0.07708 0.46251 0.32204 0.0
C776 C 0.07365 0.4837 0.3296 0.0
C777 C 0.09672 0.45444 0.33013 0.0
C778 C 0.14874 0.46642 0.39607 0.0
H779 H 0.22936 0.44102 0.16545 0.0
H780 H 0.20089 0.42979 0.23858 0.0
H781 H 0.18027 0.47022 0.42265 0.0
H782 H 0.08825 0.51287 0.35313 0.0
H783 H 0.12212 0.49878 0.36861 0.0
H784 H 0.13093 0.44381 0.24544 0.0
C785 C 0.20749 0.44474 0.24877 0.0
C786 C 0.16968 0.464 0.38419 0.0
C787 C 0.22396 0.45101 0.20749 0.0
C788 C 0.09016 0.49646 0.34804 0.0
C789 C 0.10963 0.48837 0.35717 0.0
C790 C 0.14152 0.44896 0.28574 0.0
C791 C 0.19825 0.4585 0.29678 0.0
C792 C 0.1768 0.45526 0.32062 0.0
C793 C 0.11322 0.46736 0.3471 0.0
C794 C 0.13453 0.45983 0.34518 0.0
H795 H 0.23034 0.49903 0.27596 0.0
H796 H 0.20131 0.48857 0.34632 0.0
H797 H 0.16712 0.4401 0.22347 0.0
H798 H 0.06464 0.45217 0.30937 0.0
H799 H 0.09911 0.43817 0.32204 0.0
C800 C 0.95005 0.81237 0.02348 0.0
C801 C 0.96791 0.801 0.01069 0.0
C802 C 0.94188 0.82476 0.97103 0.0
C803 C 0.94628 0.86366 0.89038 0.0
H804 H 0.95849 0.85839 0.69129 0.0
C805 C 0.98334 0.93005 0.77117 0.0
C806 C 1.00241 0.92336 0.74587 0.0
C807 C 0.96678 0.91653 0.77232 0.0
C808 C 0.95477 0.86019 0.7466 0.0
H809 H 0.98992 0.79195 0.93089 0.0
H810 H 0.97609 0.81373 0.84032 0.0
H811 H 0.9514 0.82782 0.75968 0.0
H812 H 0.01791 0.89915 0.68814 0.0
H813 H 0.98973 0.87534 0.69326 0.0
H814 H 0.95146 0.89552 0.88007 0.0
C815 C 0.96808 0.813 0.89013 0.0
C816 C 0.95067 0.84264 0.78578 0.0
C817 C 0.97613 0.80053 0.94237 0.0
C818 C 1.0036 0.90436 0.71078 0.0
C819 C 0.9872 0.89076 0.71289 0.0
C820 C 0.95049 0.88111 0.85152 0.0
C821 C 0.95158 0.82618 0.90511 0.0
C822 C 0.94794 0.8441 0.85918 0.0
C823 C 0.96921 0.89605 0.7496 0.0
C824 C 0.95646 0.87945 0.7804 0.0
H825 H 0.94314 0.81267 0.07536 0.0
H826 H 0.92889 0.83436 0.98384 0.0
H827 H 0.94417 0.86551 0.94668 0.0
H828 H 0.98176 0.94485 0.79697 0.0
H829 H 0.95282 0.92146 0.79802 0.0
C830 C 0.72639 0.94123 0.063 0.0
C831 C 0.73786 0.95916 0.0539 0.0
C832 C 0.71345 0.93413 0.00948 0.0
C833 C 0.69357 0.94829 0.82969 0.0
H834 H 0.64154 0.93902 0.92109 0.0
C835 C 0.61191 0.98752 0.8259 0.0
C836 C 0.61096 0.99236 0.75431 0.0
C837 C 0.62552 0.97268 0.84924 0.0
C838 C 0.65592 0.94157 0.89442 0.0
H839 H 0.74645 0.98259 0.98009 0.0
H840 H 0.72349 0.971 0.88837 0.0
H841 H 0.67273 0.93274 0.98478 0.0
H842 H 0.62149 0.98382 0.64992 0.0
H843 H 0.64484 0.95733 0.69014 0.0
H844 H 0.67672 0.95962 0.74268 0.0
C845 C 0.72458 0.96186 0.93532 0.0
C846 C 0.67399 0.9376 0.9307 0.0
C847 C 0.7378 0.96867 0.98822 0.0
C848 C 0.62226 0.98061 0.70561 0.0
C849 C 0.63569 0.9655 0.72881 0.0
C850 C 0.6755 0.9528 0.79413 0.0
C851 C 0.71133 0.9452 0.94673 0.0
C852 C 0.69307 0.94232 0.9006 0.0
C853 C 0.63833 0.96214 0.80131 0.0
C854 C 0.65648 0.95087 0.82809 0.0
H855 H 0.72642 0.93352 0.11316 0.0
H856 H 0.70405 0.92085 0.01945 0.0
H857 H 0.70795 0.95122 0.80349 0.0
H858 H 0.60343 0.9964 0.86462 0.0
H859 H 0.62712 0.97085 0.90552 0.0
C860 C 0.55114 0.74402 0.97849 0.0
C861 C 0.56573 0.74581 0.03207 0.0
C862 C 0.55543 0.7326 0.91763 0.0
C863 C 0.56566 0.70645 0.79156 0.0
H864 H 0.59269 0.65687 0.85074 0.0
C865 C 0.53502 0.62667 0.75811 0.0
C866 C 0.54836 0.60988 0.76169 0.0
C867 C 0.54275 0.64649 0.75261 0.0
C868 C 0.58559 0.67071 0.83175 0.0
H869 H 0.59681 0.73916 0.0622 0.0
H870 H 0.60493 0.72024 0.95387 0.0
H871 H 0.59686 0.68771 0.91939 0.0
H872 H 0.57991 0.60035 0.74965 0.0
H873 H 0.59345 0.63508 0.74199 0.0
H874 H 0.55263 0.68832 0.70788 0.0
C875 C 0.58983 0.72677 0.95963 0.0
C876 C 0.588 0.68862 0.87147 0.0
C877 C 0.58531 0.73774 0.02144 0.0
C878 C 0.56932 0.61307 0.74967 0.0
C879 C 0.57706 0.63293 0.74461 0.0
C880 C 0.56295 0.68834 0.75242 0.0
C881 C 0.57457 0.72302 0.9087 0.0
C882 C 0.57706 0.70643 0.85451 0.0
C883 C 0.56395 0.64987 0.75104 0.0
C884 C 0.57199 0.67004 0.77464 0.0
H885 H 0.5359 0.75011 0.98607 0.0
H886 H 0.54312 0.73002 0.88064 0.0
H887 H 0.5576 0.72004 0.77521 0.0
H888 H 0.51879 0.62479 0.76674 0.0
H889 H 0.53221 0.6592 0.75771 0.0
C890 C 0.79209 0.59603 0.07694 0.0
C891 C 0.78285 0.57804 0.05126 0.0
C892 C 0.80699 0.6059 0.03704 0.0
C893 C 0.83835 0.59956 0.87124 0.0
H894 H 0.88256 0.60091 0.0068 0.0
C895 C 0.91153 0.55503 0.83893 0.0
C896 C 0.92985 0.56168 0.8703 0.0
C897 C 0.89399 0.56705 0.84289 0.0
C898 C 0.87053 0.6012 0.96774 0.0
H899 H 0.77975 0.55779 0.96088 0.0
H900 H 0.80605 0.57435 0.89232 0.0
H901 H 0.84798 0.60589 0.04682 0.0
H902 H 0.94443 0.58701 0.92568 0.0
H903 H 0.91342 0.60778 0.9347 0.0
H904 H 0.86117 0.59284 0.79327 0.0
C905 C 0.80182 0.58129 0.94232 0.0
C906 C 0.8505 0.60414 0.99071 0.0
C907 C 0.78667 0.57168 0.98172 0.0
C908 C 0.93045 0.58121 0.9024 0.0
C909 C 0.91277 0.5932 0.90694 0.0
C910 C 0.85844 0.59642 0.84835 0.0
C911 C 0.81326 0.59755 0.97177 0.0
C912 C 0.83403 0.60198 0.94351 0.0
C913 C 0.89422 0.58596 0.8789 0.0
C914 C 0.87454 0.59594 0.8972 0.0
H915 H 0.78919 0.6013 0.13036 0.0
H916 H 0.81498 0.61882 0.06037 0.0
H917 H 0.82612 0.59842 0.83307 0.0
H918 H 0.91035 0.53999 0.81464 0.0
H919 H 0.87988 0.56081 0.82196 0.0
C920 C 0.04862 0.21366 0.9626 0.0
C921 C 0.03179 0.22488 0.98861 0.0
C922 C 0.04591 0.19588 0.92093 0.0
C923 C 0.00879 0.15389 0.89006 0.0
H924 H 0.04278 0.13987 0.72947 0.0
C925 C 0.99403 0.07855 0.73221 0.0
C926 C 0.01018 0.0684 0.69774 0.0
C927 C 0.99671 0.09801 0.76323 0.0
C928 C 0.03324 0.14323 0.77467 0.0
H929 H 0.99881 0.22603 0.99042 0.0
H930 H 0.99396 0.19491 0.91809 0.0
H931 H 0.04701 0.17293 0.78889 0.0
H932 H 0.04148 0.07178 0.66351 0.0
H933 H 0.04671 0.1052 0.72066 0.0
H934 H 0.99556 0.12415 0.87859 0.0
C935 C 0.00936 0.2 0.92948 0.0
C936 C 0.03565 0.16242 0.80876 0.0
C937 C 0.01211 0.21803 0.97023 0.0
C938 C 0.02894 0.07877 0.69222 0.0
C939 C 0.03177 0.09823 0.72417 0.0
C940 C 1.00657 0.13464 0.85672 0.0
C941 C 0.02622 0.18841 0.90509 0.0
C942 C 0.02338 0.16814 0.86689 0.0
C943 C 0.01574 0.10819 0.76128 0.0
C944 C 0.0186 0.12889 0.79779 0.0
H945 H 0.06399 0.21828 0.97675 0.0
H946 H 0.05929 0.18742 0.90395 0.0
H947 H 0.99934 0.15741 0.93548 0.0
H948 H 0.97915 0.07135 0.73538 0.0
H949 H 0.98359 0.1051 0.78806 0.0
C950 C 0.32193 0.0193 0.97663 0.0
C951 C 0.3148 0.03932 0.98898 0.0
C952 C 0.33899 0.01565 0.93288 0.0
C953 C 0.38456 0.04318 0.85809 0.0
H954 H 0.39233 0.99234 0.75434 0.0
C955 C 0.45561 0.02801 0.67689 0.0
C956 C 0.46492 1.00874 0.6838 0.0
C957 C 0.43665 0.03218 0.70926 0.0
C958 C 0.39049 1.00661 0.78332 0.0
H959 H 0.31942 0.07106 0.96199 0.0
H960 H 0.34833 0.06475 0.88375 0.0
H961 H 0.36032 0.99847 0.81687 0.0
H962 H 0.46106 0.97845 0.72649 0.0
H963 H 0.42827 0.98563 0.78284 0.0
H964 H 0.41476 0.05129 0.8239 0.0
C965 C 0.34135 0.05181 0.90936 0.0
C966 C 0.37205 0.01012 0.8196 0.0
C967 C 0.32449 0.05543 0.95354 0.0
C968 C 0.45446 0.99356 0.72124 0.0
C969 C 0.43555 0.99764 0.75314 0.0
C970 C 0.40292 0.03973 0.82128 0.0
C971 C 0.34934 0.03193 0.89979 0.0
C972 C 0.36878 0.02841 0.85823 0.0
C973 C 0.42636 0.01703 0.74807 0.0
C974 C 0.40627 0.02129 0.78391 0.0
H975 H 0.31508 1.00658 1.00408 0.0
H976 H 0.34461 1.00013 0.92783 0.0
H977 H 0.38303 0.0573 0.88804 0.0
H978 H 0.46291 0.03981 0.64625 0.0
H979 H 0.42995 0.0472 0.70319 0.0
C980 C 0.50583 0.31092 0.95246 0.0
C981 C 0.48621 0.30229 0.95629 0.0
C982 C 0.50939 0.32841 0.91176 0.0
C983 C 0.4881 0.36116 0.77003 0.0
H984 H 0.51545 0.40543 0.87 0.0
C985 C 0.50602 0.44126 0.64672 0.0
C986 C 0.5007 0.45832 0.68896 0.0
C987 C 0.50516 0.42131 0.67367 0.0
C988 C 0.50781 0.39323 0.84121 0.0
H989 H 0.45517 0.30471 0.91855 0.0
H990 H 0.46145 0.33472 0.84587 0.0
H991 H 0.51296 0.37176 0.92379 0.0
H992 H 0.49191 0.46755 0.79438 0.0
H993 H 0.49026 0.43315 0.84121 0.0
H994 H 0.4828 0.38282 0.68769 0.0
C995 C 0.47413 0.32808 0.87414 0.0
C996 C 0.50656 0.37383 0.8718 0.0
C997 C 0.47052 0.31084 0.91564 0.0
C998 C 0.49511 0.45489 0.75929 0.0
C999 C 0.4946 0.43508 0.78662 0.0
C1000 C 0.48965 0.38052 0.73888 0.0
C1001 C 0.49346 0.33751 0.87329 0.0
C1002 C 0.49642 0.35759 0.83719 0.0
C1003 C 0.49959 0.41798 0.74429 0.0
C1004 C 0.49921 0.39691 0.77464 0.0
H1005 H 0.51811 0.3049 0.98422 0.0
H1006 H 0.5245 0.33517 0.91197 0.0
H1007 H 0.48026 0.349 0.74171 0.0
H1008 H 0.51091 0.44333 0.59289 0.0
H1009 H 0.50934 0.40852 0.63974 0.0
C1010 C 0.2188 0.51801 0.96234 0.0
C1011 C 0.22633 0.49832 0.97624 0.0
C1012 C 0.20163 0.52061 0.91866 0.0
C1013 C 0.15561 0.49151 0.86466 0.0
H1014 H 0.14556 0.53637 0.73774 0.0
C1015 C 0.07441 0.5098 0.76434 0.0
C1016 C 0.0719 0.51444 0.69278 0.0
C1017 C 0.09388 0.50837 0.79442 0.0
C1018 C 0.14816 0.52367 0.7727 0.0
H1019 H 0.22265 0.46612 0.95141 0.0
H1020 H 0.19324 0.47059 0.8744 0.0
H1021 H 0.17912 0.53295 0.7938 0.0
H1022 H 0.08837 0.52147 0.59708 0.0
H1023 H 0.12237 0.51938 0.64969 0.0
H1024 H 0.12479 0.48224 0.84427 0.0
C1025 C 0.2002 0.48405 0.89809 0.0
C1026 C 0.16737 0.52181 0.80529 0.0
C1027 C 0.21726 0.48149 0.94149 0.0
C1028 C 0.08957 0.51809 0.65244 0.0
C1029 C 0.10913 0.51684 0.68268 0.0
C1030 C 0.13644 0.49349 0.83279 0.0
C1031 C 0.1916 0.50354 0.88824 0.0
C1032 C 0.17139 0.50564 0.85167 0.0
C1033 C 0.11158 0.51175 0.75405 0.0
C1034 C 0.13236 0.50961 0.78649 0.0
H1035 H 0.22521 0.53124 0.9893 0.0
H1036 H 0.19545 0.53585 0.91248 0.0
H1037 H 0.15793 0.47903 0.90078 0.0
H1038 H 0.0613 0.50766 0.79786 0.0
H1039 H 0.09506 0.50486 0.84986 0.0
C1040 C 0.98525 0.82179 0.28083 0.0
C1041 C 1.00147 0.81314 0.24186 0.0
C1042 C 0.98827 0.83889 0.3254 0.0
C1043 C 0.02893 0.87256 0.40898 0.0
H1044 H 0.98456 0.91174 0.42109 0.0
C1045 C 0.04054 0.9553 0.52013 0.0
C1046 C 0.02509 0.96421 0.56184 0.0
C1047 C 0.03745 0.93651 0.48485 0.0
C1048 C 0.99707 0.90091 0.4191 0.0
H1049 H 0.03379 0.81573 0.22061 0.0
H1050 H 0.03918 0.84563 0.29746 0.0
H1051 H 0.98003 0.87998 0.35429 0.0
H1052 H 0.99469 0.95951 0.60327 0.0
H1053 H 0.98908 0.92671 0.54109 0.0
H1054 H 0.04609 0.8939 0.47243 0.0
C1055 C 0.02406 0.83899 0.29504 0.0
C1056 C 0.99447 0.88249 0.3807 0.0
C1057 C 0.02103 0.82168 0.2509 0.0
C1058 C 1.00661 0.95346 0.5693 0.0
C1059 C 1.00348 0.93457 0.53392 0.0
C1060 C 0.03158 0.89108 0.44681 0.0
C1061 C 1.00762 0.84826 0.33196 0.0
C1062 C 0.01035 0.8679 0.37469 0.0
C1063 C 0.01887 0.92578 0.49094 0.0
C1064 C 0.01573 0.90563 0.45237 0.0
H1065 H 0.96995 0.81571 0.27485 0.0
H1066 H 0.97523 0.84494 0.35382 0.0
H1067 H 0.04149 0.86182 0.40732 0.0
H1068 H 0.05512 0.96298 0.51457 0.0
H1069 H 0.04965 0.93048 0.45213 0.0
C1070 C 0.71417 0.97933 0.31826 0.0
C1071 C 0.72409 0.99477 0.28004 0.0
C1072 C 0.69638 0.98352 0.35723 0.0
C1073 C 0.65251 0.01927 0.36016 0.0
H1074 H 0.63941 0.99362 0.53751 0.0
C1075 C 0.5773 0.03839 0.50823 0.0
C1076 C 0.56716 0.02288 0.54503 0.0
C1077 C 0.5968 0.03516 0.47958 0.0
C1078 C 0.64262 1.00072 0.48752 0.0
H1079 H 0.72323 0.02689 0.2544 0.0
H1080 H 0.69222 0.03436 0.32291 0.0
H1081 H 0.67301 0.98838 0.48438 0.0
H1082 H 0.57024 0.99215 0.58472 0.0
H1083 H 0.60393 0.98603 0.53198 0.0
H1084 H 0.62207 0.03119 0.36193 0.0
C1085 C 0.69821 0.01892 0.32266 0.0
C1086 C 0.66204 0.99778 0.4571 0.0
C1087 C 0.7162 0.01475 0.28423 0.0
C1088 C 0.57735 1.00419 0.55466 0.0
C1089 C 0.59687 1.00085 0.52535 0.0
C1090 C 0.63307 0.02207 0.39019 0.0
C1091 C 0.68774 1.00325 0.35842 0.0
C1092 C 0.66732 1.00704 0.39292 0.0
C1093 C 0.60692 0.01628 0.48694 0.0
C1094 C 0.62775 0.0129 0.45456 0.0
H1095 H 0.71967 0.9637 0.31518 0.0
H1096 H 0.6888 0.97098 0.38331 0.0
H1097 H 0.65573 0.02632 0.31004 0.0
H1098 H 0.57009 0.05316 0.50147 0.0
H1099 H 0.60403 0.04769 0.45236 0.0
C1100 C 0.56358 0.71793 0.29543 0.0
C1101 C 0.54685 0.73053 0.27927 0.0
C1102 C 0.5613 0.70098 0.33918 0.0
C1103 C 0.52615 0.67508 0.46622 0.0
H1104 H 0.55559 0.62662 0.40422 0.0
C1105 C 0.5076 0.59305 0.56614 0.0
C1106 C 0.52359 0.57877 0.57212 0.0
C1107 C 0.5111 0.61261 0.53887 0.0
C1108 C 0.54748 0.64003 0.42326 0.0
H1109 H 0.51471 0.73556 0.29923 0.0
H1110 H 0.51058 0.7058 0.37554 0.0
H1111 H 0.56009 0.65854 0.34195 0.0
H1112 H 0.55628 0.5749 0.56031 0.0
H1113 H 0.5624 0.60884 0.51225 0.0
H1114 H 0.51327 0.65628 0.54698 0.0
C1115 C 0.5256 0.70916 0.35479 0.0
C1116 C 0.55007 0.65847 0.38733 0.0
C1117 C 0.52794 0.72629 0.3111 0.0
C1118 C 0.54343 0.58513 0.55408 0.0
C1119 C 0.54695 0.60468 0.52657 0.0
C1120 C 0.52353 0.65656 0.50223 0.0
C1121 C 0.54216 0.6959 0.36793 0.0
C1122 C 0.53945 0.67634 0.40804 0.0
C1123 C 0.53075 0.61858 0.51697 0.0
C1124 C 0.53412 0.63871 0.48114 0.0
H1125 H 0.57842 0.72087 0.27239 0.0
H1126 H 0.57458 0.69162 0.34938 0.0
H1127 H 0.51786 0.68847 0.48449 0.0
H1128 H 0.49217 0.58898 0.58054 0.0
H1129 H 0.4982 0.62276 0.53243 0.0
C1130 C 0.80969 0.51523 0.22505 0.0
C1131 C 0.79645 0.53114 0.24551 0.0
C1132 C 0.82784 0.51167 0.26238 0.0
C1133 C 0.8559 0.52343 0.42931 0.0
H1134 H 0.90417 0.51758 0.31232 0.0
C1135 C 0.93717 0.50935 0.54509 0.0
C1136 C 0.95344 0.52045 0.51551 0.0
C1137 C 0.91766 0.50958 0.51444 0.0
C1138 C 0.89087 0.51926 0.34587 0.0
H1139 H 0.79159 0.55548 0.32191 0.0
H1140 H 0.82284 0.54893 0.38851 0.0
H1141 H 0.87048 0.51885 0.25756 0.0
H1142 H 0.9617 0.54047 0.4298 0.0
H1143 H 0.92782 0.54072 0.37625 0.0
H1144 H 0.87637 0.52409 0.51759 0.0
C1145 C 0.81924 0.53906 0.34398 0.0
C1146 C 0.87148 0.51974 0.31446 0.0
C1147 C 0.80123 0.54275 0.30615 0.0
C1148 C 0.94962 0.53174 0.45426 0.0
C1149 C 0.93017 0.53177 0.42318 0.0
C1150 C 0.87529 0.52271 0.46081 0.0
C1151 C 0.83315 0.52391 0.32129 0.0
C1152 C 0.8537 0.52201 0.35561 0.0
C1153 C 0.91388 0.52071 0.4528 0.0
C1154 C 0.89309 0.52082 0.4195 0.0
H1155 H 0.80666 0.5064 0.17749 0.0
H1156 H 0.83806 0.49975 0.24372 0.0
H1157 H 0.84258 0.52511 0.46277 0.0
H1158 H 0.93945 0.50049 0.59224 0.0
H1159 H 0.90558 0.50075 0.53848 0.0
loop_
_geom_bond_atom_site_label_1
_geom_bond_atom_site_label_2
_geom_bond_distance
_geom_bond_site_symmetry_2
_ccdc_geom_bond_type
H0 C7 0.929 . S
H1 C10 0.930 . S
H2 C12 0.929 . S
H3 C4 0.969 . S
C4 H3 0.969 . S
C4 O5 1.550 . S
C4 H6 0.973 . S
O5 C4 1.550 . S
O5 C11 1.412 . S
H6 C4 0.973 . S
C7 H0 0.929 . S
C7 C8 1.400 . S
C7 C9 1.364 . S
C8 C7 1.400 . S
C8 C12 1.377 . S
C9 C7 1.364 . S
C9 C10 1.374 . S
C10 H1 0.930 . S
C10 C9 1.374 . S
C10 C11 1.383 . S
C11 O5 1.412 . S
C11 C10 1.383 . S
C11 C12 1.394 . S
C12 H2 0.929 . S
C12 C8 1.377 . S
C12 C11 1.394 . S
H13 C20 0.929 . S
H14 C23 0.930 . S
H15 C25 0.929 . S
H16 C17 0.969 . S
C17 H16 0.969 . S
C17 O18 1.550 . S
C17 H19 0.973 . S
O18 C17 1.550 . S
O18 C24 1.412 . S
H19 C17 0.973 . S
C20 H13 0.929 . S
C20 C21 1.400 . S
C20 C22 1.364 . S
C21 C20 1.400 . S
C21 C25 1.377 . S
C22 C20 1.364 . S
C22 C23 1.374 . S
C23 H14 0.930 . S
C23 C22 1.374 . S
C23 C24 1.383 . S
C24 O18 1.412 . S
C24 C23 1.383 . S
C24 C25 1.394 . S
C25 H15 0.929 . S
C25 C21 1.377 . S
C25 C24 1.394 . S
H26 C33 0.929 . S
H27 C36 0.930 . S
H28 C38 0.929 . S
H29 C30 0.969 . S
C30 H29 0.969 . S
C30 O31 1.550 . S
C30 H32 0.973 . S
O31 C30 1.550 . S
O31 C37 1.412 . S
H32 C30 0.973 . S
C33 H26 0.929 . S
C33 C34 1.400 . S
C33 C35 1.364 . S
C34 C33 1.400 . S
C34 C38 1.377 . S
C35 C33 1.364 . S
C35 C36 1.374 . S
C36 H27 0.930 . S
C36 C35 1.374 . S
C36 C37 1.383 . S
C37 O31 1.412 . S
C37 C36 1.383 . S
C37 C38 1.394 . S
C38 H28 0.929 . S
C38 C34 1.377 . S
C38 C37 1.394 . S
H39 C46 0.929 . S
H40 C49 0.930 . S
H41 C51 0.929 . S
H42 C43 0.969 . S
C43 H42 0.969 . S
C43 O44 1.550 . S
C43 H45 0.973 . S
O44 C43 1.550 . S
O44 C50 1.412 . S
H45 C43 0.973 . S
C46 H39 0.929 . S
C46 C47 1.400 . S
C46 C48 1.364 . S
C47 C46 1.400 . S
C47 C51 1.377 . S
C48 C46 1.364 . S
C48 C49 1.374 . S
C49 H40 0.930 . S
C49 C48 1.374 . S
C49 C50 1.383 . S
C50 O44 1.412 . S
C50 C49 1.383 . S
C50 C51 1.394 . S
C51 H41 0.929 . S
C51 C47 1.377 . S
C51 C50 1.394 . S
H52 C59 0.929 . S
H53 C62 0.930 . S
H54 C64 0.929 . S
H55 C56 0.969 . S
C56 H55 0.969 . S
C56 O57 1.550 . S
C56 H58 0.973 . S
O57 C56 1.550 . S
O57 C63 1.412 . S
H58 C56 0.973 . S
C59 H52 0.929 . S
C59 C60 1.400 . S
C59 C61 1.364 1_556 S
C60 C59 1.400 . S
C60 C64 1.377 . S
C61 C59 1.364 1_554 S
C61 C62 1.374 . S
C62 H53 0.930 . S
C62 C61 1.374 . S
C62 C63 1.383 . S
C63 O57 1.412 . S
C63 C62 1.383 . S
C63 C64 1.394 1_554 S
C64 H54 0.929 . S
C64 C60 1.377 . S
C64 C63 1.394 1_556 S
H65 C72 0.929 . S
H66 C75 0.930 . S
H67 C77 0.929 . S
H68 C69 0.969 . S
C69 H68 0.969 . S
C69 O70 1.550 . S
C69 H71 0.973 . S
O70 C69 1.550 . S
O70 C76 1.412 . S
H71 C69 0.973 . S
C72 H65 0.929 . S
C72 C73 1.400 . S
C72 C74 1.364 1_556 S
C73 C72 1.400 . S
C73 C77 1.377 . S
C74 C72 1.364 1_554 S
C74 C75 1.374 . S
C75 H66 0.930 . S
C75 C74 1.374 . S
C75 C76 1.383 . S
C76 O70 1.412 . S
C76 C75 1.383 . S
C76 C77 1.394 1_554 S
C77 H67 0.929 . S
C77 C73 1.377 . S
C77 C76 1.394 1_556 S
H78 C85 0.929 . S
H79 C88 0.930 . S
H80 C90 0.929 . S
H81 C82 0.969 . S
C82 H81 0.969 . S
C82 O83 1.550 . S
C82 H84 0.973 . S
O83 C82 1.550 . S
O83 C89 1.412 . S
H84 C82 0.973 . S
C85 H78 0.929 . S
C85 C86 1.400 . S
C85 C87 1.364 1_556 S
C86 C85 1.400 . S
C86 C90 1.377 . S
C87 C85 1.364 1_554 S
C87 C88 1.374 . S
C88 H79 0.930 . S
C88 C87 1.374 . S
C88 C89 1.397 . S
C89 O83 1.412 . S
C89 C88 1.397 . S
C89 C90 1.379 1_554 S
C90 H80 0.929 . S
C90 C86 1.377 . S
C90 C89 1.379 1_556 S
H91 C98 0.929 . S
H92 C101 0.930 . S
H93 C103 0.929 . S
H94 C95 0.969 . S
C95 H94 0.969 . S
C95 O96 1.550 . S
C95 H97 0.973 . S
O96 C95 1.550 . S
O96 C102 1.412 . S
H97 C95 0.973 . S
C98 H91 0.929 . S
C98 C99 1.400 . S
C98 C100 1.364 1_556 S
C99 C98 1.400 . S
C99 C103 1.377 . S
C100 C98 1.364 1_554 S
C100 C101 1.374 . S
C101 H92 0.930 . S
C101 C100 1.374 . S
C101 C102 1.383 . S
C102 O96 1.412 . S
C102 C101 1.383 . S
C102 C103 1.394 1_554 S
C103 H93 0.929 . S
C103 C99 1.377 . S
C103 C102 1.394 1_556 S
Tb104 N135 2.660 1_565 S
Tb104 N142 2.598 1_565 S
Tb104 O148 2.546 . S
Tb104 O149 2.610 1_455 S
Tb104 O151 2.320 1_455 S
Tb104 O152 2.552 . S
Tb104 O153 2.413 . S
Tb104 O155 2.362 1_565 S
Tb104 O156 2.421 . S
Tb104 C168 2.833 . S
C105 C108 1.432 1_545 S
C105 C109 1.414 . S
C105 N112 1.359 . S
C106 C108 1.417 . S
C106 C110 1.432 . S
C106 C118 1.410 . S
C107 C109 1.444 1_565 S
C107 C110 1.317 . S
C107 H130 0.929 . S
C108 C105 1.432 1_565 S
C108 C106 1.417 . S
C108 N116 1.360 1_565 S
C109 C105 1.414 . S
C109 C107 1.444 1_545 S
C109 C114 1.385 . S
C110 C106 1.432 . S
C110 C107 1.317 . S
C110 H122 0.930 . S
C111 C113 1.392 . S
C111 C114 1.370 . S
C111 H123 0.931 . S
N112 C105 1.359 . S
N112 C113 1.327 . S
N112 Tb115 2.600 . S
C113 C111 1.392 . S
C113 N112 1.327 . S
C113 H120 0.930 . S
C114 C109 1.385 . S
C114 C111 1.370 . S
C114 H133 0.930 . S
Tb115 N112 2.600 . S
Tb115 N116 2.660 . S
Tb115 O149 2.362 1_545 S
Tb115 O150 2.421 . S
Tb115 O154 2.546 . S
Tb115 O155 2.610 1_655 S
Tb115 O157 2.320 1_655 S
Tb115 O158 2.552 1_655 S
Tb115 O159 2.414 . S
Tb115 C179 2.833 . S
N116 C108 1.360 1_545 S
N116 Tb115 2.660 . S
N116 C117 1.305 1_645 S
C117 N116 1.305 1_465 S
C117 C119 1.407 . S
C117 H124 0.930 . S
C118 C106 1.410 . S
C118 C119 1.345 1_655 S
C118 H126 0.930 . S
C119 C117 1.407 . S
C119 C118 1.345 1_455 S
C119 H121 0.930 . S
H120 C113 0.930 . S
H121 C119 0.930 . S
H122 C110 0.930 . S
H123 C111 0.931 . S
H124 C117 0.930 . S
H125 C139 0.930 1_655 S
H126 C118 0.930 . S
H127 C145 0.930 . S
H128 C136 0.930 1_655 S
H129 C143 0.931 . S
H130 C107 0.929 . S
H131 C137 0.930 . S
H132 C170 0.930 . S
H133 C114 0.930 . S
H134 C169 0.929 . S
N135 Tb104 2.660 1_545 S
N135 C136 1.305 . S
N135 C140 1.360 . S
C136 H128 0.930 1_455 S
C136 N135 1.305 . S
C136 C139 1.407 . S
C137 H131 0.930 . S
C137 C138 1.410 . S
C137 C139 1.345 . S
C138 C137 1.410 . S
C138 C140 1.417 . S
C138 C170 1.432 . S
C139 H125 0.930 1_455 S
C139 C136 1.407 . S
C139 C137 1.345 . S
C140 N135 1.360 . S
C140 C138 1.417 . S
C140 C144 1.432 . S
H141 C146 0.930 . S
N142 Tb104 2.598 1_545 S
N142 C144 1.365 . S
N142 C145 1.323 1_545 S
C143 H129 0.931 . S
C143 C145 1.392 . S
C143 C146 1.370 1_565 S
C144 C140 1.432 . S
C144 N142 1.365 . S
C144 C147 1.414 . S
C145 H127 0.930 . S
C145 N142 1.323 1_565 S
C145 C143 1.392 . S
C146 H141 0.930 . S
C146 C143 1.370 1_545 S
C146 C147 1.385 . S
C147 C144 1.414 . S
C147 C146 1.385 . S
C147 C169 1.444 . S
O148 Tb104 2.546 . S
O148 C168 1.251 . S
O149 Tb104 2.610 1_655 S
O149 Tb115 2.362 1_565 S
O149 C160 1.283 . S
O150 Tb115 2.421 . S
O150 C167 1.262 . S
O151 Tb104 2.320 1_655 S
O151 C167 1.260 1_565 S
O152 Tb104 2.552 . S
O152 C160 1.243 1_455 S
O153 Tb104 2.413 . S
O153 C168 1.256 . S
O154 Tb115 2.546 . S
O154 C179 1.251 . S
O155 Tb104 2.362 1_545 S
O155 Tb115 2.610 1_455 S
O155 C171 1.283 . S
O156 Tb104 2.421 . S
O156 C178 1.262 1_565 S
O157 Tb115 2.320 1_455 S
O157 C178 1.260 . S
O158 Tb115 2.552 1_455 S
O158 C171 1.243 . S
O159 Tb115 2.414 . S
O159 C179 1.257 . S
C160 O149 1.283 . S
C160 O152 1.243 1_655 S
C161 C163 1.382 . S
C161 C165 1.393 . S
C161 C168 1.500 . S
C162 C163 1.400 . S
C162 C164 1.384 . S
C163 C161 1.382 . S
C163 C162 1.400 . S
C163 H180 0.930 1_455 S
C164 C162 1.384 . S
C164 C166 1.392 . S
C164 H181 0.931 . S
C165 C161 1.393 . S
C165 C166 1.401 . S
C165 H182 0.930 . S
C166 C164 1.392 . S
C166 C165 1.401 . S
C166 H183 0.930 . S
C167 O150 1.262 . S
C167 O151 1.260 1_545 S
C168 Tb104 2.833 . S
C168 O148 1.251 . S
C168 O153 1.256 . S
C168 C161 1.500 . S
C169 H134 0.929 . S
C169 C147 1.444 . S
C169 C170 1.317 . S
C170 H132 0.930 . S
C170 C138 1.432 . S
C170 C169 1.317 . S
C171 O155 1.283 . S
C171 O158 1.243 . S
C172 C173 1.350 1_655 S
C172 C176 1.393 . S
C172 C179 1.500 . S
C173 C172 1.350 1_455 S
C173 C174 1.398 1_455 S
C173 H184 0.965 . S
C174 C173 1.398 1_655 S
C174 C175 1.403 . S
C175 C174 1.403 . S
C175 C177 1.392 . S
C175 H185 0.931 . S
C176 C172 1.393 . S
C176 C177 1.401 . S
C176 H186 0.930 . S
C177 C175 1.392 . S
C177 C176 1.401 . S
C177 H187 0.930 . S
C178 O156 1.262 1_545 S
C178 O157 1.260 . S
C179 Tb115 2.833 . S
C179 O154 1.251 . S
C179 O159 1.257 . S
C179 C172 1.500 . S
H180 C163 0.930 1_655 S
H181 C164 0.931 . S
H182 C165 0.930 . S
H183 C166 0.930 . S
H184 C173 0.965 . S
H185 C175 0.931 . S
H186 C176 0.930 . S
H187 C177 0.930 . S
Tb188 N219 2.660 . S
Tb188 N226 2.600 . S
Tb188 O232 2.546 . S
Tb188 O233 2.608 1_545 S
Tb188 O235 2.320 1_545 S
Tb188 O236 2.552 . S
Tb188 O237 2.413 . S
Tb188 O239 2.362 . S
Tb188 O240 2.421 . S
Tb188 C252 2.833 . S
C189 C192 1.432 . S
C189 C193 1.414 . S
C189 N196 1.359 . S
C190 C192 1.417 . S
C190 C194 1.432 . S
C190 C202 1.410 . S
C191 C193 1.444 . S
C191 C194 1.317 . S
C191 H214 0.929 . S
C192 C189 1.432 . S
C192 C190 1.417 . S
C192 N200 1.360 . S
C193 C189 1.414 . S
C193 C191 1.444 . S
C193 C198 1.385 . S
C194 C190 1.432 . S
C194 C191 1.317 . S
C194 H206 0.930 . S
C195 C197 1.392 . S
C195 C198 1.370 . S
C195 H207 0.931 . S
N196 C189 1.359 . S
N196 C197 1.327 . S
N196 Tb199 2.600 . S
C197 C195 1.392 . S
C197 N196 1.327 . S
C197 H204 0.930 . S
C198 C193 1.385 . S
C198 C195 1.370 . S
C198 H217 0.930 . S
Tb199 N196 2.600 . S
Tb199 N200 2.660 . S
Tb199 O233 2.362 . S
Tb199 O234 2.421 . S
Tb199 O238 2.546 . S
Tb199 O239 2.610 1_565 S
Tb199 O241 2.320 1_565 S
Tb199 O242 2.552 1_565 S
Tb199 O243 2.413 1_565 S
Tb199 C263 2.833 . S
N200 C192 1.360 . S
N200 Tb199 2.660 . S
N200 C201 1.305 1_565 S
C201 N200 1.305 1_545 S
C201 C203 1.407 . S
C201 H208 0.930 . S
C202 C190 1.410 . S
C202 C203 1.345 1_565 S
C202 H210 0.930 . S
C203 C201 1.407 . S
C203 C202 1.345 1_545 S
C203 H205 0.930 . S
H204 C197 0.930 . S
H205 C203 0.930 . S
H206 C194 0.930 . S
H207 C195 0.931 . S
H208 C201 0.930 . S
H209 C223 0.930 1_565 S
H210 C202 0.930 . S
H211 C229 0.930 . S
H212 C220 0.930 1_565 S
H213 C227 0.931 . S
H214 C191 0.929 . S
H215 C221 0.930 . S
H216 C254 0.930 . S
H217 C198 0.930 . S
H218 C253 0.929 . S
N219 Tb188 2.660 . S
N219 C220 1.305 . S
N219 C224 1.360 . S
C220 H212 0.930 1_545 S
C220 N219 1.305 . S
C220 C223 1.407 . S
C221 H215 0.930 . S
C221 C222 1.410 . S
C221 C223 1.345 . S
C222 C221 1.410 . S
C222 C224 1.417 . S
C222 C254 1.432 . S
C223 H209 0.930 1_545 S
C223 C220 1.407 . S
C223 C221 1.345 . S
C224 N219 1.360 . S
C224 C222 1.417 . S
C224 C228 1.432 . S
H225 C230 0.930 . S
N226 Tb188 2.600 . S
N226 C228 1.359 . S
N226 C229 1.327 . S
C227 H213 0.931 . S
C227 C229 1.392 . S
C227 C230 1.370 . S
C228 C224 1.432 . S
C228 N226 1.359 . S
C228 C231 1.414 . S
C229 H211 0.930 . S
C229 N226 1.327 . S
C229 C227 1.392 . S
C230 H225 0.930 . S
C230 C227 1.370 . S
C230 C231 1.385 . S
C231 C228 1.414 . S
C231 C230 1.385 . S
C231 C253 1.444 . S
O232 Tb188 2.546 . S
O232 C252 1.251 . S
O233 Tb188 2.608 1_565 S
O233 Tb199 2.362 . S
O233 C244 1.283 1_565 S
O234 Tb199 2.421 . S
O234 C251 1.262 . S
O235 Tb188 2.320 1_565 S
O235 C251 1.260 . S
O236 Tb188 2.552 . S
O236 C244 1.249 . S
O237 Tb188 2.413 . S
O237 C252 1.256 . S
O238 Tb199 2.546 . S
O238 C263 1.251 . S
O239 Tb188 2.362 . S
O239 Tb199 2.610 1_545 S
O239 C255 1.283 . S
O240 Tb188 2.421 . S
O240 C262 1.262 . S
O241 Tb199 2.320 1_545 S
O241 C262 1.260 . S
O242 Tb199 2.552 1_545 S
O242 C255 1.243 . S
O243 Tb199 2.413 1_545 S
O243 C263 1.256 1_545 S
C244 O233 1.283 1_545 S
C244 O236 1.249 . S
C245 C247 1.382 . S
C245 C249 1.393 . S
C245 C252 1.500 . S
C246 C247 1.400 . S
C246 C248 1.384 . S
C247 C245 1.382 . S
C247 C246 1.400 . S
C247 H264 0.930 . S
C248 C246 1.384 . S
C248 C250 1.392 . S
C248 H265 0.931 . S
C249 C245 1.393 . S
C249 C250 1.401 . S
C249 H266 0.930 . S
C250 C248 1.392 . S
C250 C249 1.401 . S
C250 H267 0.930 . S
C251 O234 1.262 . S
C251 O235 1.260 . S
C252 Tb188 2.833 . S
C252 O232 1.251 . S
C252 O237 1.256 . S
C252 C245 1.500 . S
C253 H218 0.929 . S
C253 C231 1.444 . S
C253 C254 1.317 . S
C254 H216 0.930 . S
C254 C222 1.432 . S
C254 C253 1.317 . S
C255 O239 1.283 . S
C255 O242 1.243 . S
C256 C257 1.382 1_565 S
C256 C260 1.393 . S
C256 C263 1.500 . S
C257 C256 1.382 1_545 S
C257 C258 1.404 . S
C257 H268 0.930 . S
C258 C257 1.404 . S
C258 C259 1.340 1_545 S
C259 C258 1.340 1_565 S
C259 C261 1.392 . S
C259 H269 0.931 . S
C260 C256 1.393 . S
C260 C261 1.401 . S
C260 H270 0.930 . S
C261 C259 1.392 . S
C261 C260 1.401 . S
C261 H271 0.930 . S
C262 O240 1.262 . S
C262 O241 1.260 . S
C263 Tb199 2.833 . S
C263 O238 1.251 . S
C263 O243 1.256 1_565 S
C263 C256 1.500 . S
H264 C247 0.930 . S
H265 C248 0.931 . S
H266 C249 0.930 . S
H267 C250 0.930 . S
H268 C257 0.930 . S
H269 C259 0.931 . S
H270 C260 0.930 . S
H271 C261 0.930 . S
Tb272 N303 2.660 . S
Tb272 N310 2.600 . S
Tb272 O316 2.546 . S
Tb272 O317 2.610 . S
Tb272 O319 2.320 . S
Tb272 O320 2.552 . S
Tb272 O321 2.413 . S
Tb272 O323 2.362 . S
Tb272 O324 2.421 . S
Tb272 C336 2.833 . S
C273 C276 1.432 . S
C273 C277 1.414 . S
C273 N280 1.359 . S
C274 C276 1.417 . S
C274 C278 1.432 . S
C274 C286 1.410 . S
C275 C277 1.444 . S
C275 C278 1.317 . S
C275 H298 0.929 . S
C276 C273 1.432 . S
C276 C274 1.417 . S
C276 N284 1.360 . S
C277 C273 1.414 . S
C277 C275 1.444 . S
C277 C282 1.385 . S
C278 C274 1.432 . S
C278 C275 1.317 . S
C278 H290 0.930 . S
C279 C281 1.392 . S
C279 C282 1.370 . S
C279 H291 0.931 . S
N280 C273 1.359 . S
N280 C281 1.327 . S
N280 Tb283 2.600 . S
C281 C279 1.392 . S
C281 N280 1.327 . S
C281 H288 0.930 . S
C282 C277 1.385 . S
C282 C279 1.370 . S
C282 H301 0.930 . S
Tb283 N280 2.600 . S
Tb283 N284 2.660 . S
Tb283 O317 2.362 . S
Tb283 O318 2.421 . S
Tb283 O322 2.546 . S
Tb283 O323 2.610 . S
Tb283 O325 2.320 . S
Tb283 O326 2.552 . S
Tb283 O327 2.413 . S
Tb283 C347 2.833 . S
N284 C276 1.360 . S
N284 Tb283 2.660 . S
N284 C285 1.305 . S
C285 N284 1.305 . S
C285 C287 1.407 . S
C285 H292 0.930 . S
C286 C274 1.410 . S
C286 C287 1.345 . S
C286 H294 0.930 . S
C287 C285 1.407 . S
C287 C286 1.345 . S
C287 H289 0.930 . S
H288 C281 0.930 . S
H289 C287 0.930 . S
H290 C278 0.930 . S
H291 C279 0.931 . S
H292 C285 0.930 . S
H293 C307 0.930 . S
H294 C286 0.930 . S
H295 C313 0.930 . S
H296 C304 0.930 . S
H297 C311 0.931 . S
H298 C275 0.929 . S
H299 C305 0.930 . S
H300 C338 0.930 . S
H301 C282 0.930 . S
H302 C337 0.929 . S
N303 Tb272 2.660 . S
N303 C304 1.305 . S
N303 C308 1.360 . S
C304 H296 0.930 . S
C304 N303 1.305 . S
C304 C307 1.407 . S
C305 H299 0.930 . S
C305 C306 1.410 . S
C305 C307 1.345 . S
C306 C305 1.410 . S
C306 C308 1.417 . S
C306 C338 1.432 . S
C307 H293 0.930 . S
C307 C304 1.407 . S
C307 C305 1.345 . S
C308 N303 1.360 . S
C308 C306 1.417 . S
C308 C312 1.432 . S
H309 C314 0.930 . S
N310 Tb272 2.600 . S
N310 C312 1.359 . S
N310 C313 1.327 . S
C311 H297 0.931 . S
C311 C313 1.392 . S
C311 C314 1.370 . S
C312 C308 1.432 . S
C312 N310 1.359 . S
C312 C315 1.414 . S
C313 H295 0.930 . S
C313 N310 1.327 . S
C313 C311 1.392 . S
C314 H309 0.930 . S
C314 C311 1.370 . S
C314 C315 1.385 . S
C315 C312 1.414 . S
C315 C314 1.385 . S
C315 C337 1.444 . S
O316 Tb272 2.546 . S
O316 C336 1.251 . S
O317 Tb272 2.610 . S
O317 Tb283 2.362 . S
O317 C328 1.283 . S
O318 Tb283 2.421 . S
O318 C335 1.262 . S
O319 Tb272 2.320 . S
O319 C335 1.260 . S
O320 Tb272 2.552 . S
O320 C328 1.243 . S
O321 Tb272 2.413 . S
O321 C336 1.256 . S
O322 Tb283 2.546 . S
O322 C347 1.251 . S
O323 Tb272 2.362 . S
O323 Tb283 2.610 . S
O323 C339 1.283 . S
O324 Tb272 2.421 . S
O324 C346 1.262 . S
O325 Tb283 2.320 . S
O325 C346 1.260 . S
O326 Tb283 2.552 . S
O326 C339 1.243 . S
O327 Tb283 2.413 . S
O327 C347 1.256 . S
C328 O317 1.283 . S
C328 O320 1.243 . S
C329 C331 1.382 . S
C329 C333 1.393 . S
C329 C336 1.500 . S
C330 C331 1.400 . S
C330 C332 1.384 . S
C331 C329 1.382 . S
C331 C330 1.400 . S
C331 H348 0.930 . S
C332 C330 1.384 . S
C332 C334 1.392 . S
C332 H349 0.931 . S
C333 C329 1.393 . S
C333 C334 1.401 . S
C333 H350 0.930 . S
C334 C332 1.392 . S
C334 C333 1.401 . S
C334 H351 0.930 . S
C335 O318 1.262 . S
C335 O319 1.260 . S
C336 Tb272 2.833 . S
C336 O316 1.251 . S
C336 O321 1.256 . S
C336 C329 1.500 . S
C337 H302 0.929 . S
C337 C315 1.444 . S
C337 C338 1.317 . S
C338 H300 0.930 . S
C338 C306 1.432 . S
C338 C337 1.317 . S
C339 O323 1.283 . S
C339 O326 1.243 . S
C340 C341 1.382 . S
C340 C344 1.393 . S
C340 C347 1.500 . S
C341 C340 1.382 . S
C341 C342 1.400 . S
C341 H352 0.930 . S
C342 C341 1.400 . S
C342 C343 1.384 . S
C343 C342 1.384 . S
C343 C345 1.392 . S
C343 H353 0.931 . S
C344 C340 1.393 . S
C344 C345 1.401 . S
C344 H354 0.930 . S
C345 C343 1.392 . S
C345 C344 1.401 . S
C345 H355 0.930 1_556 S
C346 O324 1.262 . S
C346 O325 1.260 . S
C347 Tb283 2.833 . S
C347 O322 1.251 . S
C347 O327 1.256 . S
C347 C340 1.500 . S
H348 C331 0.930 . S
H349 C332 0.931 . S
H350 C333 0.930 . S
H351 C334 0.930 . S
H352 C341 0.930 . S
H353 C343 0.931 . S
H354 C344 0.930 . S
H355 C345 0.930 1_554 S
Tb356 N387 2.660 . S
Tb356 N394 2.600 . S
Tb356 O400 2.546 . S
Tb356 O401 2.610 . S
Tb356 O403 2.320 . S
Tb356 O404 2.552 . S
Tb356 O405 2.413 . S
Tb356 O407 2.362 . S
Tb356 O408 2.421 1_455 S
Tb356 C420 2.833 . S
C357 C360 1.432 . S
C357 C361 1.414 . S
C357 N364 1.359 . S
C358 C360 1.417 . S
C358 C362 1.432 . S
C358 C370 1.410 . S
C359 C361 1.444 . S
C359 C362 1.317 . S
C359 H382 0.929 . S
C360 C357 1.432 . S
C360 C358 1.417 . S
C360 N368 1.360 . S
C361 C357 1.414 . S
C361 C359 1.444 . S
C361 C366 1.385 1_655 S
C362 C358 1.432 . S
C362 C359 1.317 . S
C362 H374 0.930 . S
C363 C365 1.392 . S
C363 C366 1.370 . S
C363 H375 0.931 . S
N364 C357 1.359 . S
N364 C365 1.327 1_655 S
N364 Tb367 2.600 . S
C365 C363 1.392 . S
C365 N364 1.327 1_455 S
C365 H372 0.930 . S
C366 C361 1.385 1_455 S
C366 C363 1.370 . S
C366 H385 0.930 . S
Tb367 N364 2.600 . S
Tb367 N368 2.660 . S
Tb367 O401 2.362 1_655 S
Tb367 O402 2.421 1_655 S
Tb367 O406 2.546 . S
Tb367 O407 2.610 1_655 S
Tb367 O409 2.320 . S
Tb367 O410 2.552 . S
Tb367 O411 2.413 . S
Tb367 C431 2.833 . S
N368 C360 1.360 . S
N368 Tb367 2.660 . S
N368 C369 1.305 . S
C369 N368 1.305 . S
C369 C371 1.407 . S
C369 H376 0.930 . S
C370 C358 1.410 . S
C370 C371 1.345 . S
C370 H378 0.930 . S
C371 C369 1.407 . S
C371 C370 1.345 . S
C371 H373 0.930 . S
H372 C365 0.930 . S
H373 C371 0.930 . S
H374 C362 0.930 . S
H375 C363 0.931 . S
H376 C369 0.930 . S
H377 C391 0.930 . S
H378 C370 0.930 . S
H379 C397 0.930 1_655 S
H380 C388 0.930 . S
H381 C395 0.931 1_655 S
H382 C359 0.929 . S
H383 C389 0.930 . S
H384 C422 0.930 . S
H385 C366 0.930 . S
H386 C421 0.929 . S
N387 Tb356 2.660 . S
N387 C388 1.305 . S
N387 C392 1.360 . S
C388 H380 0.930 . S
C388 N387 1.305 . S
C388 C391 1.407 . S
C389 H383 0.930 . S
C389 C390 1.410 . S
C389 C391 1.345 . S
C390 C389 1.410 . S
C390 C392 1.417 . S
C390 C422 1.432 . S
C391 H377 0.930 . S
C391 C388 1.407 . S
C391 C389 1.345 . S
C392 N387 1.360 . S
C392 C390 1.417 . S
C392 C396 1.432 . S
H393 C398 0.930 . S
N394 Tb356 2.600 . S
N394 C396 1.359 . S
N394 C397 1.327 . S
C395 H381 0.931 1_455 S
C395 C397 1.392 . S
C395 C398 1.370 . S
C396 C392 1.432 . S
C396 N394 1.359 . S
C396 C399 1.414 . S
C397 H379 0.930 1_455 S
C397 N394 1.327 . S
C397 C395 1.392 . S
C398 H393 0.930 . S
C398 C395 1.370 . S
C398 C399 1.385 . S
C399 C396 1.414 . S
C399 C398 1.385 . S
C399 C421 1.444 . S
O400 Tb356 2.546 . S
O400 C420 1.251 . S
O401 Tb356 2.610 . S
O401 Tb367 2.362 1_455 S
O401 C412 1.283 . S
O402 Tb367 2.421 1_455 S
O402 C419 1.262 . S
O403 Tb356 2.320 . S
O403 C419 1.260 . S
O404 Tb356 2.552 . S
O404 C412 1.243 . S
O405 Tb356 2.413 . S
O405 C420 1.256 . S
O406 Tb367 2.546 . S
O406 C431 1.251 . S
O407 Tb356 2.362 . S
O407 Tb367 2.610 1_455 S
O407 C423 1.283 1_455 S
O408 Tb356 2.421 1_655 S
O408 C430 1.262 . S
O409 Tb367 2.320 . S
O409 C430 1.260 . S
O410 Tb367 2.552 . S
O410 C423 1.243 . S
O411 Tb367 2.413 . S
O411 C431 1.256 . S
C412 O401 1.283 . S
C412 O404 1.243 . S
C413 C415 1.382 . S
C413 C417 1.393 . S
C413 C420 1.500 . S
C414 C415 1.400 . S
C414 C416 1.384 . S
C415 C413 1.382 . S
C415 C414 1.400 . S
C415 H432 0.930 . S
C416 C414 1.384 . S
C416 C418 1.392 . S
C416 H433 0.931 . S
C417 C413 1.393 . S
C417 C418 1.401 . S
C417 H434 0.930 . S
C418 C416 1.392 . S
C418 C417 1.401 . S
C418 H435 0.930 . S
C419 O402 1.262 . S
C419 O403 1.260 . S
C420 Tb356 2.833 . S
C420 O400 1.251 . S
C420 O405 1.256 . S
C420 C413 1.500 . S
C421 H386 0.929 . S
C421 C399 1.444 . S
C421 C422 1.317 . S
C422 H384 0.930 . S
C422 C390 1.432 . S
C422 C421 1.317 . S
C423 O407 1.283 1_655 S
C423 O410 1.243 . S
C424 C425 1.382 . S
C424 C428 1.393 . S
C424 C431 1.500 . S
C425 C424 1.382 . S
C425 C426 1.400 . S
C425 H436 0.930 . S
C426 C425 1.400 . S
C426 C427 1.384 . S
C427 C426 1.384 . S
C427 C429 1.392 . S
C427 H437 0.931 . S
C428 C424 1.393 . S
C428 C429 1.401 . S
C428 H438 0.930 . S
C429 C427 1.392 . S
C429 C428 1.401 . S
C429 H439 0.930 1_556 S
C430 O408 1.262 . S
C430 O409 1.260 . S
C431 Tb367 2.833 . S
C431 O406 1.251 . S
C431 O411 1.256 . S
C431 C424 1.500 . S
H432 C415 0.930 . S
H433 C416 0.931 . S
H434 C417 0.930 . S
H435 C418 0.930 . S
H436 C425 0.930 . S
H437 C427 0.931 . S
H438 C428 0.930 . S
H439 C429 0.930 1_554 S
C440 C441 1.349 . S
C440 C442 1.327 . S
C440 H465 0.950 . S
C441 C440 1.349 . S
C441 C457 1.349 . S
C442 C440 1.327 . S
C442 C461 1.429 . S
C442 H466 0.950 . S
C443 C460 1.574 . S
C443 C462 1.368 . S
C443 H467 0.949 . S
H444 C448 0.949 . S
C445 C446 1.349 . S
C445 C447 1.327 . S
C445 H468 0.950 1_545 S
C446 C445 1.349 . S
C446 C458 1.349 . S
C447 C445 1.327 . S
C447 C463 1.429 . S
C447 H469 0.950 . S
C448 H444 0.949 . S
C448 C456 1.574 . S
C448 C464 1.368 . S
H449 C457 0.950 . S
H450 C455 0.950 . S
H451 C456 0.949 . S
H452 C458 0.950 . S
H453 C459 0.950 . S
H454 C460 0.949 . S
C455 H450 0.950 . S
C455 C457 1.327 . S
C455 C461 1.429 . S
C456 C448 1.574 . S
C456 H451 0.949 . S
C456 C462 1.368 . S
C457 C441 1.349 . S
C457 H449 0.950 . S
C457 C455 1.327 . S
C458 C446 1.349 . S
C458 H452 0.950 . S
C458 C459 1.327 . S
C459 H453 0.950 . S
C459 C458 1.327 . S
C459 C463 1.429 . S
C460 C443 1.574 . S
C460 H454 0.949 . S
C460 C464 1.368 . S
C461 C442 1.429 . S
C461 C455 1.429 . S
C461 C462 1.523 . S
C462 C443 1.368 . S
C462 C456 1.368 . S
C462 C461 1.523 . S
C463 C447 1.429 . S
C463 C459 1.429 . S
C463 C464 1.523 . S
C464 C448 1.368 . S
C464 C460 1.368 . S
C464 C463 1.523 . S
H465 C440 0.950 . S
H466 C442 0.950 . S
H467 C443 0.949 . S
H468 C445 0.950 1_565 S
H469 C447 0.950 . S
C470 C471 1.349 . S
C470 C472 1.327 . S
C470 H495 0.950 . S
C471 C470 1.349 . S
C471 C487 1.349 . S
C472 C470 1.327 . S
C472 C491 1.429 . S
C472 H496 0.950 . S
C473 C490 1.574 . S
C473 C492 1.368 . S
C473 H497 0.949 . S
H474 C478 0.949 . S
C475 C476 1.349 . S
C475 C477 1.327 . S
C475 H498 0.950 . S
C476 C475 1.349 . S
C476 C488 1.349 . S
C477 C475 1.327 . S
C477 C493 1.429 . S
C477 H499 0.950 . S
C478 H474 0.949 . S
C478 C486 1.574 . S
C478 C494 1.368 . S
H479 C487 0.950 . S
H480 C485 0.950 . S
H481 C486 0.949 . S
H482 C488 0.950 . S
H483 C489 0.950 . S
H484 C490 0.949 . S
C485 H480 0.950 . S
C485 C487 1.327 . S
C485 C491 1.429 . S
C486 C478 1.574 . S
C486 H481 0.949 . S
C486 C492 1.368 . S
C487 C471 1.349 . S
C487 H479 0.950 . S
C487 C485 1.327 . S
C488 C476 1.349 . S
C488 H482 0.950 . S
C488 C489 1.327 . S
C489 H483 0.950 . S
C489 C488 1.327 . S
C489 C493 1.429 . S
C490 C473 1.574 . S
C490 H484 0.949 . S
C490 C494 1.368 . S
C491 C472 1.429 . S
C491 C485 1.429 . S
C491 C492 1.523 . S
C492 C473 1.368 . S
C492 C486 1.368 . S
C492 C491 1.523 . S
C493 C477 1.429 . S
C493 C489 1.429 . S
C493 C494 1.523 . S
C494 C478 1.368 . S
C494 C490 1.368 . S
C494 C493 1.523 . S
H495 C470 0.950 . S
H496 C472 0.950 . S
H497 C473 0.949 . S
H498 C475 0.950 . S
H499 C477 0.950 . S
C500 C501 1.349 . S
C500 C502 1.327 . S
C500 H525 0.950 . S
C501 C500 1.349 . S
C501 C517 1.349 . S
C502 C500 1.327 . S
C502 C521 1.429 . S
C502 H526 0.950 . S
C503 C520 1.574 . S
C503 C522 1.368 . S
C503 H527 0.949 . S
H504 C508 0.949 . S
C505 C506 1.349 . S
C505 C507 1.327 . S
C505 H528 0.950 . S
C506 C505 1.349 . S
C506 C518 1.349 . S
C507 C505 1.327 . S
C507 C523 1.429 . S
C507 H529 0.950 . S
C508 H504 0.949 . S
C508 C516 1.574 . S
C508 C524 1.368 . S
H509 C517 0.950 . S
H510 C515 0.950 . S
H511 C516 0.949 . S
H512 C518 0.950 . S
H513 C519 0.950 . S
H514 C520 0.949 . S
C515 H510 0.950 . S
C515 C517 1.327 . S
C515 C521 1.429 . S
C516 C508 1.574 . S
C516 H511 0.949 . S
C516 C522 1.368 . S
C517 C501 1.349 . S
C517 H509 0.950 . S
C517 C515 1.327 . S
C518 C506 1.349 . S
C518 H512 0.950 . S
C518 C519 1.327 . S
C519 H513 0.950 . S
C519 C518 1.327 . S
C519 C523 1.429 . S
C520 C503 1.574 . S
C520 H514 0.949 . S
C520 C524 1.368 . S
C521 C502 1.429 . S
C521 C515 1.429 . S
C521 C522 1.523 . S
C522 C503 1.368 . S
C522 C516 1.368 . S
C522 C521 1.523 . S
C523 C507 1.429 . S
C523 C519 1.429 . S
C523 C524 1.523 . S
C524 C508 1.368 . S
C524 C520 1.368 . S
C524 C523 1.523 . S
H525 C500 0.950 . S
H526 C502 0.950 . S
H527 C503 0.949 . S
H528 C505 0.950 . S
H529 C507 0.950 . S
C530 C531 1.349 . S
C530 C532 1.327 . S
C530 H555 0.950 . S
C531 C530 1.349 . S
C531 C547 1.349 . S
C532 C530 1.327 . S
C532 C551 1.429 . S
C532 H556 0.950 . S
C533 C550 1.574 . S
C533 C552 1.368 . S
C533 H557 0.949 . S
H534 C538 0.949 . S
C535 C536 1.349 . S
C535 C537 1.327 . S
C535 H558 0.950 . S
C536 C535 1.349 . S
C536 C548 1.349 . S
C537 C535 1.327 . S
C537 C553 1.429 . S
C537 H559 0.950 . S
C538 H534 0.949 . S
C538 C546 1.574 . S
C538 C554 1.368 . S
H539 C547 0.950 . S
H540 C545 0.950 . S
H541 C546 0.949 . S
H542 C548 0.950 . S
H543 C549 0.950 . S
H544 C550 0.949 . S
C545 H540 0.950 . S
C545 C547 1.327 . S
C545 C551 1.429 . S
C546 C538 1.574 . S
C546 H541 0.949 . S
C546 C552 1.368 . S
C547 C531 1.349 . S
C547 H539 0.950 . S
C547 C545 1.327 . S
C548 C536 1.349 . S
C548 H542 0.950 . S
C548 C549 1.327 . S
C549 H543 0.950 . S
C549 C548 1.327 . S
C549 C553 1.429 . S
C550 C533 1.574 . S
C550 H544 0.949 . S
C550 C554 1.368 . S
C551 C532 1.429 . S
C551 C545 1.429 . S
C551 C552 1.523 . S
C552 C533 1.368 . S
C552 C546 1.368 . S
C552 C551 1.523 . S
C553 C537 1.429 . S
C553 C549 1.429 . S
C553 C554 1.523 . S
C554 C538 1.368 . S
C554 C550 1.368 . S
C554 C553 1.523 . S
H555 C530 0.950 . S
H556 C532 0.950 . S
H557 C533 0.949 . S
H558 C535 0.950 . S
H559 C537 0.950 . S
C560 C561 1.349 . S
C560 C562 1.327 . S
C560 H585 0.950 . S
C561 C560 1.349 . S
C561 C577 1.349 . S
C562 C560 1.327 . S
C562 C581 1.429 . S
C562 H586 0.950 . S
C563 C580 1.574 . S
C563 C582 1.368 . S
C563 H587 0.949 . S
H564 C568 0.949 1_545 S
C565 C566 1.349 . S
C565 C567 1.327 . S
C565 H588 0.950 . S
C566 C565 1.349 . S
C566 C578 1.349 1_565 S
C567 C565 1.327 . S
C567 C583 1.429 . S
C567 H589 0.950 . S
C568 H564 0.949 1_565 S
C568 C576 1.574 . S
C568 C584 1.368 . S
H569 C577 0.950 . S
H570 C575 0.950 . S
H571 C576 0.949 1_545 S
H572 C578 0.950 . S
H573 C579 0.950 . S
H574 C580 0.949 . S
C575 H570 0.950 . S
C575 C577 1.327 . S
C575 C581 1.429 . S
C576 C568 1.574 . S
C576 H571 0.949 1_565 S
C576 C582 1.368 . S
C577 C561 1.349 . S
C577 H569 0.950 . S
C577 C575 1.327 . S
C578 C566 1.349 1_545 S
C578 H572 0.950 . S
C578 C579 1.327 . S
C579 H573 0.950 . S
C579 C578 1.327 . S
C579 C583 1.429 1_545 S
C580 C563 1.574 . S
C580 H574 0.949 . S
C580 C584 1.368 . S
C581 C562 1.429 . S
C581 C575 1.429 . S
C581 C582 1.523 1_554 S
C582 C563 1.368 . S
C582 C576 1.368 . S
C582 C581 1.523 1_556 S
C583 C567 1.429 . S
C583 C579 1.429 1_565 S
C583 C584 1.523 . S
C584 C568 1.368 . S
C584 C580 1.368 . S
C584 C583 1.523 . S
H585 C560 0.950 . S
H586 C562 0.950 . S
H587 C563 0.949 . S
H588 C565 0.950 . S
H589 C567 0.950 . S
C590 C591 1.349 . S
C590 C592 1.327 . S
C590 H615 0.950 . S
C591 C590 1.349 . S
C591 C607 1.349 . S
C592 C590 1.327 . S
C592 C611 1.429 . S
C592 H616 0.950 . S
C593 C610 1.574 . S
C593 C612 1.368 . S
C593 H617 0.949 . S
H594 C598 0.949 . S
C595 C596 1.349 . S
C595 C597 1.327 . S
C595 H618 0.950 . S
C596 C595 1.349 . S
C596 C608 1.349 . S
C597 C595 1.327 . S
C597 C613 1.429 . S
C597 H619 0.950 . S
C598 H594 0.949 . S
C598 C606 1.574 . S
C598 C614 1.368 . S
H599 C607 0.950 . S
H600 C605 0.950 1_556 S
H601 C606 0.949 1_554 S
H602 C608 0.950 . S
H603 C609 0.950 . S
H604 C610 0.949 . S
C605 H600 0.950 1_554 S
C605 C607 1.327 . S
C605 C611 1.429 . S
C606 C598 1.574 . S
C606 H601 0.949 1_556 S
C606 C612 1.368 . S
C607 C591 1.349 . S
C607 H599 0.950 . S
C607 C605 1.327 . S
C608 C596 1.349 . S
C608 H602 0.950 . S
C608 C609 1.327 . S
C609 H603 0.950 . S
C609 C608 1.327 . S
C609 C613 1.429 . S
C610 C593 1.574 . S
C610 H604 0.949 . S
C610 C614 1.368 . S
C611 C592 1.429 . S
C611 C605 1.429 . S
C611 C612 1.523 1_554 S
C612 C593 1.368 . S
C612 C606 1.368 . S
C612 C611 1.523 1_556 S
C613 C597 1.429 . S
C613 C609 1.429 . S
C613 C614 1.523 . S
C614 C598 1.368 . S
C614 C610 1.368 . S
C614 C613 1.523 . S
H615 C590 0.950 . S
H616 C592 0.950 . S
H617 C593 0.949 . S
H618 C595 0.950 . S
H619 C597 0.950 . S
C620 C621 1.349 . S
C620 C622 1.327 . S
C620 H645 0.950 . S
C621 C620 1.349 . S
C621 C637 1.349 . S
C622 C620 1.327 . S
C622 C641 1.429 . S
C622 H646 0.950 1_554 S
C623 C640 1.574 . S
C623 C642 1.368 . S
C623 H647 0.949 1_556 S
H624 C628 0.949 . S
C625 C626 1.349 . S
C625 C627 1.327 . S
C625 H648 0.950 . S
C626 C625 1.349 . S
C626 C638 1.349 . S
C627 C625 1.327 . S
C627 C643 1.429 . S
C627 H649 0.950 . S
C628 H624 0.949 . S
C628 C636 1.574 . S
C628 C644 1.368 . S
H629 C637 0.950 . S
H630 C635 0.950 . S
H631 C636 0.949 . S
H632 C638 0.950 . S
H633 C639 0.950 . S
H634 C640 0.949 . S
C635 H630 0.950 . S
C635 C637 1.327 . S
C635 C641 1.429 . S
C636 C628 1.574 . S
C636 H631 0.949 . S
C636 C642 1.368 . S
C637 C621 1.349 . S
C637 H629 0.950 . S
C637 C635 1.327 . S
C638 C626 1.349 . S
C638 H632 0.950 . S
C638 C639 1.327 . S
C639 H633 0.950 . S
C639 C638 1.327 . S
C639 C643 1.429 . S
C640 C623 1.574 . S
C640 H634 0.949 . S
C640 C644 1.368 . S
C641 C622 1.429 . S
C641 C635 1.429 . S
C641 C642 1.523 1_554 S
C642 C623 1.368 . S
C642 C636 1.368 . S
C642 C641 1.523 1_556 S
C643 C627 1.429 . S
C643 C639 1.429 . S
C643 C644 1.523 . S
C644 C628 1.368 . S
C644 C640 1.368 . S
C644 C643 1.523 . S
H645 C620 0.950 . S
H646 C622 0.950 1_556 S
H647 C623 0.949 1_554 S
H648 C625 0.950 . S
H649 C627 0.950 . S
C650 C651 1.349 . S
C650 C652 1.327 . S
C650 H675 0.950 . S
C651 C650 1.349 . S
C651 C667 1.349 . S
C652 C650 1.327 . S
C652 C671 1.429 . S
C652 H676 0.950 . S
C653 C670 1.574 . S
C653 C672 1.368 . S
C653 H677 0.949 . S
H654 C658 0.949 . S
C655 C656 1.349 . S
C655 C657 1.327 . S
C655 H678 0.950 1_655 S
C656 C655 1.349 . S
C656 C668 1.349 . S
C657 C655 1.327 . S
C657 C673 1.429 . S
C657 H679 0.950 . S
C658 H654 0.949 . S
C658 C666 1.574 . S
C658 C674 1.368 . S
H659 C667 0.950 . S
H660 C665 0.950 1_556 S
H661 C666 0.949 1_554 S
H662 C668 0.950 . S
H663 C669 0.950 . S
H664 C670 0.949 . S
C665 H660 0.950 1_554 S
C665 C667 1.327 . S
C665 C671 1.429 . S
C666 C658 1.574 . S
C666 H661 0.949 1_556 S
C666 C672 1.368 . S
C667 C651 1.349 . S
C667 H659 0.950 . S
C667 C665 1.327 . S
C668 C656 1.349 . S
C668 H662 0.950 . S
C668 C669 1.327 . S
C669 H663 0.950 . S
C669 C668 1.327 . S
C669 C673 1.429 . S
C670 C653 1.574 . S
C670 H664 0.949 . S
C670 C674 1.368 . S
C671 C652 1.429 . S
C671 C665 1.429 . S
C671 C672 1.523 1_554 S
C672 C653 1.368 . S
C672 C666 1.368 . S
C672 C671 1.523 1_556 S
C673 C657 1.429 . S
C673 C669 1.429 . S
C673 C674 1.523 . S
C674 C658 1.368 . S
C674 C670 1.368 . S
C674 C673 1.523 . S
H675 C650 0.950 . S
H676 C652 0.950 . S
H677 C653 0.949 . S
H678 C655 0.950 1_455 S
H679 C657 0.950 . S
C680 C681 1.349 . S
C680 C682 1.327 . S
C680 H705 0.950 . S
C681 C680 1.349 . S
C681 C697 1.349 . S
C682 C680 1.327 . S
C682 C701 1.429 . S
C682 H706 0.950 . S
C683 C700 1.574 . S
C683 C702 1.368 . S
C683 H707 0.949 . S
H684 C688 0.949 . S
C685 C686 1.349 . S
C685 C687 1.327 . S
C685 H708 0.950 . S
C686 C685 1.349 . S
C686 C698 1.349 1_455 S
C687 C685 1.327 . S
C687 C703 1.429 . S
C687 H709 0.950 . S
C688 H684 0.949 . S
C688 C696 1.574 . S
C688 C704 1.368 . S
H689 C697 0.950 . S
H690 C695 0.950 . S
H691 C696 0.949 . S
H692 C698 0.950 . S
H693 C699 0.950 1_655 S
H694 C700 0.949 . S
C695 H690 0.950 . S
C695 C697 1.327 . S
C695 C701 1.429 . S
C696 C688 1.574 . S
C696 H691 0.949 . S
C696 C702 1.368 . S
C697 C681 1.349 . S
C697 H689 0.950 . S
C697 C695 1.327 . S
C698 C686 1.349 1_655 S
C698 H692 0.950 . S
C698 C699 1.327 1_655 S
C699 H693 0.950 1_455 S
C699 C698 1.327 1_455 S
C699 C703 1.429 . S
C700 C683 1.574 . S
C700 H694 0.949 . S
C700 C704 1.368 . S
C701 C682 1.429 . S
C701 C695 1.429 . S
C701 C702 1.523 . S
C702 C683 1.368 . S
C702 C696 1.368 . S
C702 C701 1.523 . S
C703 C687 1.429 . S
C703 C699 1.429 . S
C703 C704 1.523 . S
C704 C688 1.368 . S
C704 C700 1.368 . S
C704 C703 1.523 . S
H705 C680 0.950 . S
H706 C682 0.950 . S
H707 C683 0.949 . S
H708 C685 0.950 . S
H709 C687 0.950 . S
C710 C711 1.349 . S
C710 C712 1.327 . S
C710 H735 0.950 1_554 S
C711 C710 1.349 . S
C711 C727 1.349 . S
C712 C710 1.327 . S
C712 C731 1.429 . S
C712 H736 0.950 . S
C713 C730 1.574 . S
C713 C732 1.368 . S
C713 H737 0.949 . S
H714 C718 0.949 . S
C715 C716 1.349 . S
C715 C717 1.327 . S
C715 H738 0.950 . S
C716 C715 1.349 . S
C716 C728 1.349 . S
C717 C715 1.327 . S
C717 C733 1.429 . S
C717 H739 0.950 . S
C718 H714 0.949 . S
C718 C726 1.574 . S
C718 C734 1.368 . S
H719 C727 0.950 . S
H720 C725 0.950 . S
H721 C726 0.949 . S
H722 C728 0.950 . S
H723 C729 0.950 . S
H724 C730 0.949 . S
C725 H720 0.950 . S
C725 C727 1.327 . S
C725 C731 1.429 . S
C726 C718 1.574 . S
C726 H721 0.949 . S
C726 C732 1.368 . S
C727 C711 1.349 . S
C727 H719 0.950 . S
C727 C725 1.327 . S
C728 C716 1.349 . S
C728 H722 0.950 . S
C728 C729 1.327 . S
C729 H723 0.950 . S
C729 C728 1.327 . S
C729 C733 1.429 . S
C730 C713 1.574 . S
C730 H724 0.949 . S
C730 C734 1.368 . S
C731 C712 1.429 . S
C731 C725 1.429 . S
C731 C732 1.523 . S
C732 C713 1.368 . S
C732 C726 1.368 . S
C732 C731 1.523 . S
C733 C717 1.429 . S
C733 C729 1.429 . S
C733 C734 1.523 . S
C734 C718 1.368 . S
C734 C730 1.368 . S
C734 C733 1.523 . S
H735 C710 0.950 1_556 S
H736 C712 0.950 . S
H737 C713 0.949 . S
H738 C715 0.950 . S
H739 C717 0.950 . S
C740 C741 1.349 . S
C740 C742 1.327 . S
C740 H765 0.950 . S
C741 C740 1.349 . S
C741 C757 1.349 . S
C742 C740 1.327 . S
C742 C761 1.429 . S
C742 H766 0.950 . S
C743 C760 1.574 . S
C743 C762 1.368 . S
C743 H767 0.949 . S
H744 C748 0.949 . S
C745 C746 1.349 . S
C745 C747 1.327 . S
C745 H768 0.950 . S
C746 C745 1.349 . S
C746 C758 1.349 . S
C747 C745 1.327 . S
C747 C763 1.429 . S
C747 H769 0.950 . S
C748 H744 0.949 . S
C748 C756 1.574 . S
C748 C764 1.368 . S
H749 C757 0.950 . S
H750 C755 0.950 . S
H751 C756 0.949 . S
H752 C758 0.950 . S
H753 C759 0.950 . S
H754 C760 0.949 . S
C755 H750 0.950 . S
C755 C757 1.327 . S
C755 C761 1.429 . S
C756 C748 1.574 . S
C756 H751 0.949 . S
C756 C762 1.368 . S
C757 C741 1.349 . S
C757 H749 0.950 . S
C757 C755 1.327 . S
C758 C746 1.349 . S
C758 H752 0.950 . S
C758 C759 1.327 . S
C759 H753 0.950 . S
C759 C758 1.327 . S
C759 C763 1.429 . S
C760 C743 1.574 . S
C760 H754 0.949 . S
C760 C764 1.368 . S
C761 C742 1.429 . S
C761 C755 1.429 . S
C761 C762 1.523 . S
C762 C743 1.368 . S
C762 C756 1.368 . S
C762 C761 1.523 . S
C763 C747 1.429 . S
C763 C759 1.429 . S
C763 C764 1.523 . S
C764 C748 1.368 . S
C764 C760 1.368 . S
C764 C763 1.523 . S
H765 C740 0.950 . S
H766 C742 0.950 . S
H767 C743 0.949 . S
H768 C745 0.950 . S
H769 C747 0.950 . S
C770 C771 1.349 . S
C770 C772 1.327 . S
C770 H795 0.950 . S
C771 C770 1.349 . S
C771 C787 1.349 . S
C772 C770 1.327 . S
C772 C791 1.429 . S
C772 H796 0.950 . S
C773 C790 1.574 . S
C773 C792 1.368 . S
C773 H797 0.949 . S
H774 C778 0.949 . S
C775 C776 1.349 . S
C775 C777 1.327 . S
C775 H798 0.950 . S
C776 C775 1.349 . S
C776 C788 1.349 . S
C777 C775 1.327 . S
C777 C793 1.429 . S
C777 H799 0.950 . S
C778 H774 0.949 . S
C778 C786 1.574 . S
C778 C794 1.368 . S
H779 C787 0.950 . S
H780 C785 0.950 . S
H781 C786 0.949 . S
H782 C788 0.950 . S
H783 C789 0.950 . S
H784 C790 0.949 . S
C785 H780 0.950 . S
C785 C787 1.327 . S
C785 C791 1.429 . S
C786 C778 1.574 . S
C786 H781 0.949 . S
C786 C792 1.368 . S
C787 C771 1.349 . S
C787 H779 0.950 . S
C787 C785 1.327 . S
C788 C776 1.349 . S
C788 H782 0.950 . S
C788 C789 1.327 . S
C789 H783 0.950 . S
C789 C788 1.327 . S
C789 C793 1.429 . S
C790 C773 1.574 . S
C790 H784 0.949 . S
C790 C794 1.368 . S
C791 C772 1.429 . S
C791 C785 1.429 . S
C791 C792 1.523 . S
C792 C773 1.368 . S
C792 C786 1.368 . S
C792 C791 1.523 . S
C793 C777 1.429 . S
C793 C789 1.429 . S
C793 C794 1.523 . S
C794 C778 1.368 . S
C794 C790 1.368 . S
C794 C793 1.523 . S
H795 C770 0.950 . S
H796 C772 0.950 . S
H797 C773 0.949 . S
H798 C775 0.950 . S
H799 C777 0.950 . S
C800 C801 1.349 . S
C800 C802 1.327 . S
C800 H825 0.950 . S
C801 C800 1.349 . S
C801 C817 1.349 . S
C802 C800 1.327 . S
C802 C821 1.429 . S
C802 H826 0.950 . S
C803 C820 1.574 . S
C803 C822 1.368 . S
C803 H827 0.949 . S
H804 C808 0.949 . S
C805 C806 1.349 . S
C805 C807 1.327 . S
C805 H828 0.950 . S
C806 C805 1.349 . S
C806 C818 1.349 1_455 S
C807 C805 1.327 . S
C807 C823 1.429 1_455 S
C807 H829 0.950 . S
C808 H804 0.949 . S
C808 C816 1.574 . S
C808 C824 1.368 . S
H809 C817 0.950 . S
H810 C815 0.950 . S
H811 C816 0.949 . S
H812 C818 0.950 . S
H813 C819 0.950 . S
H814 C820 0.949 1_455 S
C815 H810 0.950 . S
C815 C817 1.327 . S
C815 C821 1.429 . S
C816 C808 1.574 . S
C816 H811 0.949 . S
C816 C822 1.368 1_556 S
C817 C801 1.349 . S
C817 H809 0.950 . S
C817 C815 1.327 . S
C818 C806 1.349 1_655 S
C818 H812 0.950 . S
C818 C819 1.327 . S
C819 H813 0.950 . S
C819 C818 1.327 . S
C819 C823 1.429 . S
C820 C803 1.574 . S
C820 H814 0.949 1_655 S
C820 C824 1.368 1_554 S
C821 C802 1.429 . S
C821 C815 1.429 . S
C821 C822 1.523 . S
C822 C803 1.368 . S
C822 C816 1.368 1_554 S
C822 C821 1.523 . S
C823 C807 1.429 1_655 S
C823 C819 1.429 . S
C823 C824 1.523 . S
C824 C808 1.368 . S
C824 C820 1.368 1_556 S
C824 C823 1.523 . S
H825 C800 0.950 . S
H826 C802 0.950 . S
H827 C803 0.949 . S
H828 C805 0.950 . S
H829 C807 0.950 . S
C830 C831 1.349 . S
C830 C832 1.327 . S
C830 H855 0.950 . S
C831 C830 1.349 . S
C831 C847 1.349 . S
C832 C830 1.327 . S
C832 C851 1.429 . S
C832 H856 0.950 . S
C833 C850 1.574 1_565 S
C833 C852 1.368 . S
C833 H857 0.949 1_565 S
H834 C838 0.949 . S
C835 C836 1.349 . S
C835 C837 1.327 . S
C835 H858 0.950 . S
C836 C835 1.349 . S
C836 C848 1.349 1_545 S
C837 C835 1.327 . S
C837 C853 1.429 1_545 S
C837 H859 0.950 . S
C838 H834 0.949 . S
C838 C846 1.574 1_556 S
C838 C854 1.368 . S
H839 C847 0.950 . S
H840 C845 0.950 . S
H841 C846 0.949 . S
H842 C848 0.950 . S
H843 C849 0.950 . S
H844 C850 0.949 . S
C845 H840 0.950 . S
C845 C847 1.327 . S
C845 C851 1.429 . S
C846 C838 1.574 1_554 S
C846 H841 0.949 . S
C846 C852 1.368 . S
C847 C831 1.349 . S
C847 H839 0.950 . S
C847 C845 1.327 . S
C848 C836 1.349 1_565 S
C848 H842 0.950 . S
C848 C849 1.327 . S
C849 H843 0.950 . S
C849 C848 1.327 . S
C849 C853 1.429 . S
C850 C833 1.574 1_545 S
C850 H844 0.949 . S
C850 C854 1.368 1_544 S
C851 C832 1.429 . S
C851 C845 1.429 . S
C851 C852 1.523 . S
C852 C833 1.368 . S
C852 C846 1.368 . S
C852 C851 1.523 . S
C853 C837 1.429 1_565 S
C853 C849 1.429 . S
C853 C854 1.523 . S
C854 C838 1.368 . S
C854 C850 1.368 1_566 S
C854 C853 1.523 . S
H855 C830 0.950 . S
H856 C832 0.950 . S
H857 C833 0.949 1_545 S
H858 C835 0.950 . S
H859 C837 0.950 . S
C860 C861 1.349 . S
C860 C862 1.327 . S
C860 H885 0.950 . S
C861 C860 1.349 . S
C861 C877 1.349 . S
C862 C860 1.327 . S
C862 C881 1.429 . S
C862 H886 0.950 . S
C863 C880 1.574 . S
C863 C882 1.368 1_556 S
C863 H887 0.949 . S
H864 C868 0.949 . S
C865 C866 1.349 . S
C865 C867 1.327 . S
C865 H888 0.950 . S
C866 C865 1.349 . S
C866 C878 1.349 . S
C867 C865 1.327 . S
C867 C883 1.429 . S
C867 H889 0.950 . S
C868 H864 0.949 . S
C868 C876 1.574 . S
C868 C884 1.368 1_554 S
H869 C877 0.950 . S
H870 C875 0.950 1_556 S
H871 C876 0.949 . S
H872 C878 0.950 . S
H873 C879 0.950 1_554 S
H874 C880 0.949 . S
C875 H870 0.950 1_554 S
C875 C877 1.327 . S
C875 C881 1.429 . S
C876 C868 1.574 . S
C876 H871 0.949 . S
C876 C882 1.368 . S
C877 C861 1.349 . S
C877 H869 0.950 . S
C877 C875 1.327 . S
C878 C866 1.349 . S
C878 H872 0.950 . S
C878 C879 1.327 . S
C879 H873 0.950 1_556 S
C879 C878 1.327 . S
C879 C883 1.429 . S
C880 C863 1.574 . S
C880 H874 0.949 . S
C880 C884 1.368 . S
C881 C862 1.429 . S
C881 C875 1.429 . S
C881 C882 1.523 . S
C882 C863 1.368 1_554 S
C882 C876 1.368 . S
C882 C881 1.523 . S
C883 C867 1.429 . S
C883 C879 1.429 . S
C883 C884 1.523 . S
C884 C868 1.368 1_556 S
C884 C880 1.368 . S
C884 C883 1.523 . S
H885 C860 0.950 . S
H886 C862 0.950 . S
H887 C863 0.949 . S
H888 C865 0.950 . S
H889 C867 0.950 . S
C890 C891 1.349 . S
C890 C892 1.327 . S
C890 H915 0.950 . S
C891 C890 1.349 . S
C891 C907 1.349 . S
C892 C890 1.327 . S
C892 C911 1.429 . S
C892 H916 0.950 . S
C893 C910 1.574 1_554 S
C893 C912 1.368 . S
C893 H917 0.949 . S
H894 C898 0.951 . S
C895 C896 1.349 . S
C895 C897 1.327 . S
C895 H918 0.950 . S
C896 C895 1.349 . S
C896 C908 1.349 . S
C897 C895 1.327 . S
C897 C913 1.429 . S
C897 H919 0.950 . S
C898 H894 0.951 . S
C898 C906 1.568 1_556 S
C898 C914 1.372 . S
H899 C907 0.950 . S
H900 C905 0.950 . S
H901 C906 0.949 . S
H902 C908 0.950 . S
H903 C909 0.950 . S
H904 C910 0.949 . S
C905 H900 0.950 . S
C905 C907 1.327 . S
C905 C911 1.429 . S
C906 C898 1.568 1_554 S
C906 H901 0.949 . S
C906 C912 1.368 . S
C907 C891 1.349 . S
C907 H899 0.950 . S
C907 C905 1.327 . S
C908 C896 1.349 . S
C908 H902 0.950 . S
C908 C909 1.327 . S
C909 H903 0.950 . S
C909 C908 1.327 . S
C909 C913 1.429 . S
C910 C893 1.574 1_556 S
C910 H904 0.949 . S
C910 C914 1.368 . S
C911 C892 1.429 . S
C911 C905 1.429 . S
C911 C912 1.523 . S
C912 C893 1.368 . S
C912 C906 1.368 . S
C912 C911 1.523 . S
C913 C897 1.429 . S
C913 C909 1.429 . S
C913 C914 1.523 . S
C914 C898 1.372 . S
C914 C910 1.368 . S
C914 C913 1.523 . S
H915 C890 0.950 . S
H916 C892 0.950 . S
H917 C893 0.949 . S
H918 C895 0.950 . S
H919 C897 0.950 . S
C920 C921 1.349 . S
C920 C922 1.327 . S
C920 H945 0.950 . S
C921 C920 1.349 . S
C921 C937 1.349 . S
C922 C920 1.327 . S
C922 C941 1.429 . S
C922 H946 0.950 . S
C923 C940 1.574 . S
C923 C942 1.368 . S
C923 H947 0.949 . S
H924 C928 0.949 . S
C925 C926 1.349 . S
C925 C927 1.327 . S
C925 H948 0.950 . S
C926 C925 1.349 . S
C926 C938 1.349 . S
C927 C925 1.327 . S
C927 C943 1.429 . S
C927 H949 0.950 . S
C928 H924 0.949 . S
C928 C936 1.574 . S
C928 C944 1.368 . S
H929 C937 0.950 . S
H930 C935 0.950 . S
H931 C936 0.949 . S
H932 C938 0.950 . S
H933 C939 0.950 . S
H934 C940 0.949 . S
C935 H930 0.950 . S
C935 C937 1.327 . S
C935 C941 1.429 . S
C936 C928 1.574 . S
C936 H931 0.949 . S
C936 C942 1.368 . S
C937 C921 1.349 . S
C937 H929 0.950 . S
C937 C935 1.327 . S
C938 C926 1.349 . S
C938 H932 0.950 . S
C938 C939 1.327 . S
C939 H933 0.950 . S
C939 C938 1.327 . S
C939 C943 1.429 . S
C940 C923 1.574 . S
C940 H934 0.949 . S
C940 C944 1.368 . S
C941 C922 1.429 . S
C941 C935 1.429 . S
C941 C942 1.523 . S
C942 C923 1.368 . S
C942 C936 1.368 . S
C942 C941 1.523 . S
C943 C927 1.429 . S
C943 C939 1.429 . S
C943 C944 1.523 . S
C944 C928 1.368 . S
C944 C940 1.368 . S
C944 C943 1.523 . S
H945 C920 0.950 . S
H946 C922 0.950 . S
H947 C923 0.949 . S
H948 C925 0.950 . S
H949 C927 0.950 . S
C950 C951 1.349 . S
C950 C952 1.327 . S
C950 H975 0.950 . S
C951 C950 1.349 . S
C951 C967 1.349 . S
C952 C950 1.327 . S
C952 C971 1.429 . S
C952 H976 0.950 . S
C953 C970 1.574 . S
C953 C972 1.368 . S
C953 H977 0.949 . S
H954 C958 0.949 . S
C955 C956 1.349 . S
C955 C957 1.327 . S
C955 H978 0.950 . S
C956 C955 1.349 . S
C956 C968 1.349 . S
C957 C955 1.327 . S
C957 C973 1.429 . S
C957 H979 0.950 . S
C958 H954 0.949 . S
C958 C966 1.574 . S
C958 C974 1.368 . S
H959 C967 0.950 . S
H960 C965 0.950 . S
H961 C966 0.949 . S
H962 C968 0.950 1_565 S
H963 C969 0.950 . S
H964 C970 0.949 . S
C965 H960 0.950 . S
C965 C967 1.327 . S
C965 C971 1.429 . S
C966 C958 1.574 . S
C966 H961 0.949 . S
C966 C972 1.368 . S
C967 C951 1.349 . S
C967 H959 0.950 . S
C967 C965 1.327 . S
C968 C956 1.349 . S
C968 H962 0.950 1_545 S
C968 C969 1.327 . S
C969 H963 0.950 . S
C969 C968 1.327 . S
C969 C973 1.429 . S
C970 C953 1.574 . S
C970 H964 0.949 . S
C970 C974 1.368 . S
C971 C952 1.429 . S
C971 C965 1.429 . S
C971 C972 1.523 . S
C972 C953 1.368 . S
C972 C966 1.368 . S
C972 C971 1.523 . S
C973 C957 1.429 . S
C973 C969 1.429 . S
C973 C974 1.523 . S
C974 C958 1.368 . S
C974 C970 1.368 . S
C974 C973 1.523 . S
H975 C950 0.950 . S
H976 C952 0.950 . S
H977 C953 0.949 . S
H978 C955 0.950 . S
H979 C957 0.950 . S
C980 C981 1.349 . S
C980 C982 1.327 . S
C980 H1005 0.950 . S
C981 C980 1.349 . S
C981 C997 1.349 . S
C982 C980 1.327 . S
C982 C1001 1.429 . S
C982 H1006 0.950 . S
C983 C1000 1.574 . S
C983 C1002 1.368 . S
C983 H1007 0.949 . S
H984 C988 0.949 . S
C985 C986 1.349 . S
C985 C987 1.327 . S
C985 H1008 0.950 . S
C986 C985 1.349 . S
C986 C998 1.349 . S
C987 C985 1.327 . S
C987 C1003 1.429 . S
C987 H1009 0.950 . S
C988 H984 0.949 . S
C988 C996 1.574 . S
C988 C1004 1.368 . S
H989 C997 0.950 . S
H990 C995 0.950 . S
H991 C996 0.949 . S
H992 C998 0.950 . S
H993 C999 0.950 . S
H994 C1000 0.949 . S
C995 H990 0.950 . S
C995 C997 1.327 . S
C995 C1001 1.429 . S
C996 C988 1.574 . S
C996 H991 0.949 . S
C996 C1002 1.368 . S
C997 C981 1.349 . S
C997 H989 0.950 . S
C997 C995 1.327 . S
C998 C986 1.349 . S
C998 H992 0.950 . S
C998 C999 1.327 . S
C999 H993 0.950 . S
C999 C998 1.327 . S
C999 C1003 1.429 . S
C1000 C983 1.574 . S
C1000 H994 0.949 . S
C1000 C1004 1.368 . S
C1001 C982 1.429 . S
C1001 C995 1.429 . S
C1001 C1002 1.523 . S
C1002 C983 1.368 . S
C1002 C996 1.368 . S
C1002 C1001 1.523 . S
C1003 C987 1.429 . S
C1003 C999 1.429 . S
C1003 C1004 1.523 . S
C1004 C988 1.368 . S
C1004 C1000 1.368 . S
C1004 C1003 1.523 . S
H1005 C980 0.950 . S
H1006 C982 0.950 . S
H1007 C983 0.949 . S
H1008 C985 0.950 . S
H1009 C987 0.950 . S
C1010 C1011 1.349 . S
C1010 C1012 1.327 . S
C1010 H1035 0.950 . S
C1011 C1010 1.349 . S
C1011 C1027 1.349 . S
C1012 C1010 1.327 . S
C1012 C1031 1.429 . S
C1012 H1036 0.950 . S
C1013 C1030 1.574 . S
C1013 C1032 1.368 . S
C1013 H1037 0.949 . S
H1014 C1018 0.949 . S
C1015 C1016 1.349 . S
C1015 C1017 1.327 . S
C1015 H1038 0.950 . S
C1016 C1015 1.349 . S
C1016 C1028 1.349 . S
C1017 C1015 1.327 . S
C1017 C1033 1.429 . S
C1017 H1039 0.950 . S
C1018 H1014 0.949 . S
C1018 C1026 1.574 . S
C1018 C1034 1.368 . S
H1019 C1027 0.950 . S
H1020 C1025 0.950 . S
H1021 C1026 0.949 . S
H1022 C1028 0.950 . S
H1023 C1029 0.950 . S
H1024 C1030 0.949 . S
C1025 H1020 0.950 . S
C1025 C1027 1.327 . S
C1025 C1031 1.429 . S
C1026 C1018 1.574 . S
C1026 H1021 0.949 . S
C1026 C1032 1.368 . S
C1027 C1011 1.349 . S
C1027 H1019 0.950 . S
C1027 C1025 1.327 . S
C1028 C1016 1.349 . S
C1028 H1022 0.950 . S
C1028 C1029 1.327 . S
C1029 H1023 0.950 . S
C1029 C1028 1.327 . S
C1029 C1033 1.429 . S
C1030 C1013 1.574 . S
C1030 H1024 0.949 . S
C1030 C1034 1.368 . S
C1031 C1012 1.429 . S
C1031 C1025 1.429 . S
C1031 C1032 1.523 . S
C1032 C1013 1.368 . S
C1032 C1026 1.368 . S
C1032 C1031 1.523 . S
C1033 C1017 1.429 . S
C1033 C1029 1.429 . S
C1033 C1034 1.523 . S
C1034 C1018 1.368 . S
C1034 C1030 1.368 . S
C1034 C1033 1.523 . S
H1035 C1010 0.950 . S
H1036 C1012 0.950 . S
H1037 C1013 0.949 . S
H1038 C1015 0.950 . S
H1039 C1017 0.950 . S
C1040 C1041 1.349 . S
C1040 C1042 1.327 . S
C1040 H1065 0.950 . S
C1041 C1040 1.349 . S
C1041 C1057 1.349 . S
C1042 C1040 1.327 . S
C1042 C1061 1.429 . S
C1042 H1066 0.950 . S
C1043 C1060 1.574 . S
C1043 C1062 1.368 . S
C1043 H1067 0.949 . S
H1044 C1048 0.949 . S
C1045 C1046 1.349 . S
C1045 C1047 1.327 . S
C1045 H1068 0.950 . S
C1046 C1045 1.349 . S
C1046 C1058 1.349 . S
C1047 C1045 1.327 . S
C1047 C1063 1.429 . S
C1047 H1069 0.950 . S
C1048 H1044 0.949 . S
C1048 C1056 1.574 . S
C1048 C1064 1.368 . S
H1049 C1057 0.950 . S
H1050 C1055 0.950 . S
H1051 C1056 0.949 . S
H1052 C1058 0.950 . S
H1053 C1059 0.950 . S
H1054 C1060 0.949 . S
C1055 H1050 0.950 . S
C1055 C1057 1.327 . S
C1055 C1061 1.429 . S
C1056 C1048 1.574 . S
C1056 H1051 0.949 . S
C1056 C1062 1.368 . S
C1057 C1041 1.349 . S
C1057 H1049 0.950 . S
C1057 C1055 1.327 . S
C1058 C1046 1.349 . S
C1058 H1052 0.950 . S
C1058 C1059 1.327 . S
C1059 H1053 0.950 . S
C1059 C1058 1.327 . S
C1059 C1063 1.429 . S
C1060 C1043 1.574 . S
C1060 H1054 0.949 . S
C1060 C1064 1.368 . S
C1061 C1042 1.429 . S
C1061 C1055 1.429 . S
C1061 C1062 1.523 . S
C1062 C1043 1.368 . S
C1062 C1056 1.368 . S
C1062 C1061 1.523 . S
C1063 C1047 1.429 . S
C1063 C1059 1.429 . S
C1063 C1064 1.523 . S
C1064 C1048 1.368 . S
C1064 C1060 1.368 . S
C1064 C1063 1.523 . S
H1065 C1040 0.950 . S
H1066 C1042 0.950 . S
H1067 C1043 0.949 . S
H1068 C1045 0.950 . S
H1069 C1047 0.950 . S
C1070 C1071 1.349 . S
C1070 C1072 1.327 . S
C1070 H1095 0.950 . S
C1071 C1070 1.349 . S
C1071 C1087 1.349 . S
C1072 C1070 1.327 . S
C1072 C1091 1.429 . S
C1072 H1096 0.950 . S
C1073 C1090 1.574 . S
C1073 C1092 1.368 . S
C1073 H1097 0.949 . S
H1074 C1078 0.949 . S
C1075 C1076 1.349 . S
C1075 C1077 1.327 . S
C1075 H1098 0.959 . S
C1076 C1075 1.349 . S
C1076 C1088 1.349 . S
C1077 C1075 1.327 . S
C1077 C1093 1.429 . S
C1077 H1099 0.950 . S
C1078 H1074 0.949 . S
C1078 C1086 1.574 . S
C1078 C1094 1.368 . S
H1079 C1087 0.950 . S
H1080 C1085 0.950 . S
H1081 C1086 0.949 . S
H1082 C1088 0.950 . S
H1083 C1089 0.950 . S
H1084 C1090 0.949 . S
C1085 H1080 0.950 . S
C1085 C1087 1.327 . S
C1085 C1091 1.429 . S
C1086 C1078 1.574 . S
C1086 H1081 0.949 . S
C1086 C1092 1.368 . S
C1087 C1071 1.349 . S
C1087 H1079 0.950 . S
C1087 C1085 1.327 . S
C1088 C1076 1.349 . S
C1088 H1082 0.950 . S
C1088 C1089 1.327 . S
C1089 H1083 0.950 . S
C1089 C1088 1.327 . S
C1089 C1093 1.429 . S
C1090 C1073 1.574 . S
C1090 H1084 0.949 . S
C1090 C1094 1.368 . S
C1091 C1072 1.429 . S
C1091 C1085 1.429 . S
C1091 C1092 1.523 . S
C1092 C1073 1.368 . S
C1092 C1086 1.368 . S
C1092 C1091 1.523 . S
C1093 C1077 1.429 . S
C1093 C1089 1.429 . S
C1093 C1094 1.523 . S
C1094 C1078 1.368 . S
C1094 C1090 1.368 . S
C1094 C1093 1.523 . S
H1095 C1070 0.950 . S
H1096 C1072 0.950 . S
H1097 C1073 0.949 . S
H1098 C1075 0.959 . S
H1099 C1077 0.950 . S
C1100 C1101 1.349 . S
C1100 C1102 1.327 . S
C1100 H1125 0.950 . S
C1101 C1100 1.349 . S
C1101 C1117 1.349 . S
C1102 C1100 1.327 . S
C1102 C1121 1.429 . S
C1102 H1126 0.950 . S
C1103 C1120 1.574 . S
C1103 C1122 1.368 . S
C1103 H1127 0.949 . S
H1104 C1108 0.949 . S
C1105 C1106 1.349 . S
C1105 C1107 1.327 . S
C1105 H1128 0.950 . S
C1106 C1105 1.349 . S
C1106 C1118 1.349 . S
C1107 C1105 1.327 . S
C1107 C1123 1.429 . S
C1107 H1129 0.950 . S
C1108 H1104 0.949 . S
C1108 C1116 1.574 . S
C1108 C1124 1.368 . S
H1109 C1117 0.950 . S
H1110 C1115 0.950 . S
H1111 C1116 0.949 . S
H1112 C1118 0.950 . S
H1113 C1119 0.950 . S
H1114 C1120 0.949 . S
C1115 H1110 0.950 . S
C1115 C1117 1.327 . S
C1115 C1121 1.429 . S
C1116 C1108 1.574 . S
C1116 H1111 0.949 . S
C1116 C1122 1.368 . S
C1117 C1101 1.349 . S
C1117 H1109 0.950 . S
C1117 C1115 1.327 . S
C1118 C1106 1.349 . S
C1118 H1112 0.950 . S
C1118 C1119 1.327 . S
C1119 H1113 0.950 . S
C1119 C1118 1.327 . S
C1119 C1123 1.429 . S
C1120 C1103 1.574 . S
C1120 H1114 0.949 . S
C1120 C1124 1.368 . S
C1121 C1102 1.429 . S
C1121 C1115 1.429 . S
C1121 C1122 1.523 . S
C1122 C1103 1.368 . S
C1122 C1116 1.368 . S
C1122 C1121 1.523 . S
C1123 C1107 1.429 . S
C1123 C1119 1.429 . S
C1123 C1124 1.523 . S
C1124 C1108 1.368 . S
C1124 C1120 1.368 . S
C1124 C1123 1.523 . S
H1125 C1100 0.950 . S
H1126 C1102 0.950 . S
H1127 C1103 0.949 . S
H1128 C1105 0.950 . S
H1129 C1107 0.950 . S
C1130 C1131 1.349 . S
C1130 C1132 1.327 . S
C1130 H1155 0.950 . S
C1131 C1130 1.349 . S
C1131 C1147 1.349 . S
C1132 C1130 1.327 . S
C1132 C1151 1.429 . S
C1132 H1156 0.950 . S
C1133 C1150 1.574 . S
C1133 C1152 1.368 . S
C1133 H1157 0.949 . S
H1134 C1138 0.949 . S
C1135 C1136 1.349 . S
C1135 C1137 1.327 . S
C1135 H1158 0.950 . S
C1136 C1135 1.349 . S
C1136 C1148 1.349 . S
C1137 C1135 1.327 . S
C1137 C1153 1.429 . S
C1137 H1159 0.950 . S
C1138 H1134 0.949 . S
C1138 C1146 1.574 . S
C1138 C1154 1.368 . S
H1139 C1147 0.950 . S
H1140 C1145 0.950 . S
H1141 C1146 0.949 . S
H1142 C1148 0.950 . S
H1143 C1149 0.950 . S
H1144 C1150 0.949 . S
C1145 H1140 0.950 . S
C1145 C1147 1.327 . S
C1145 C1151 1.429 . S
C1146 C1138 1.574 . S
C1146 H1141 0.949 . S
C1146 C1152 1.368 . S
C1147 C1131 1.349 . S
C1147 H1139 0.950 . S
C1147 C1145 1.327 . S
C1148 C1136 1.349 . S
C1148 H1142 0.950 . S
C1148 C1149 1.327 . S
C1149 H1143 0.950 . S
C1149 C1148 1.327 . S
C1149 C1153 1.429 . S
C1150 C1133 1.574 . S
C1150 H1144 0.949 . S
C1150 C1154 1.368 . S
C1151 C1132 1.429 . S
C1151 C1145 1.429 . S
C1151 C1152 1.523 . S
C1152 C1133 1.368 . S
C1152 C1146 1.368 . S
C1152 C1151 1.523 . S
C1153 C1137 1.429 . S
C1153 C1149 1.429 . S
C1153 C1154 1.523 . S
C1154 C1138 1.368 . S
C1154 C1150 1.368 . S
C1154 C1153 1.523 . S
H1155 C1130 0.950 . S
H1156 C1132 0.950 . S
H1157 C1133 0.949 . S
H1158 C1135 0.950 . S
H1159 C1137 0.950 . S
C441 C82 1.705 . S
C446 C178 1.845 . S
C476 C262 1.877 . S
C471 C95 1.740 . S
C506 C328 1.895 . S
C501 C56 1.857 . S
C536 C412 1.868 . S
C531 C69 1.825 . S
C566 C167 1.845 1_565 S
C561 C30 1.644 . S
C591 C43 1.673 . S
C596 C251 1.877 . S
C621 C4 1.784 . S
C626 C339 1.895 . S
C651 C17 1.758 . S
C656 C423 1.868 . S
C686 C174 0.516 1_455 S
C681 C74 0.500 . S
C716 C258 0.569 . S
C711 C87 0.470 . S
C746 C330 0.509 . S
C741 C100 0.448 . S
C771 C61 0.475 . S
C776 C414 0.522 . S
C801 C22 0.505 . S
C806 C162 0.537 . S
C836 C246 0.521 . S
C831 C35 0.475 . S
C866 C342 0.510 . S
C861 C48 0.454 . S
C891 C9 0.481 . S
C896 C426 0.522 . S
C921 C73 1.957 . S
C926 C171 1.995 . S
C951 C86 1.918 . S
C956 C255 1.956 . S
C986 C335 1.938 . S
C981 C99 1.811 . S
C1016 C419 1.973 . S
C1011 C60 1.844 . S
C1041 C21 1.950 . S
C1046 C160 1.994 . S
C1076 C244 1.952 1_565 S
C1071 C34 1.912 . S
C1106 C346 1.938 . S
C1101 C47 1.805 . S
C1131 C8 1.838 . S
C1136 C430 1.973 . S
