# Generated by pormake.
# Topology rtl, (3,6)-cn, num edge types: 1
# Building blocks:
#     Node 0, Type 0, BuildingBlock: QEWDON_clean_linker_0, # of connection points: 3
#     Node 1, Type 0, BuildingBlock: QEWDON_clean_linker_0, # of connection points: 3
#     Node 2, Type 0, BuildingBlock: QEWDON_clean_linker_0, # of connection points: 3
#     Node 3, Type 0, BuildingBlock: QEWDON_clean_linker_0, # of connection points: 3
#     Node 4, Type 1, BuildingBlock: KUMBUR_clean_sbu_1, # of connection points: 6
#     Node 5, Type 1, BuildingBlock: KUMBUR_clean_sbu_1, # of connection points: 6
#     Edge 6, Type (0, 1), BuildingBlock: CIFDUS_clean_linker_0, # of connection points: 2
#     Edge 7, Type (0, 1), BuildingBlock: CIFDUS_clean_linker_0, # of connection points: 2
#     Edge 8, Type (0, 1), BuildingBlock: CIFDUS_clean_linker_0, # of connection points: 2
#     Edge 9, Type (0, 1), BuildingBlock: CIFDUS_clean_linker_0, # of connection points: 2
#     Edge 10, Type (0, 1), BuildingBlock: CIFDUS_clean_linker_0, # of connection points: 2
#     Edge 11, Type (0, 1), BuildingBlock: CIFDUS_clean_linker_0, # of connection points: 2
#     Edge 12, Type (0, 1), BuildingBlock: CIFDUS_clean_linker_0, # of connection points: 2
#     Edge 13, Type (0, 1), BuildingBlock: CIFDUS_clean_linker_0, # of connection points: 2
#     Edge 14, Type (0, 1), BuildingBlock: CIFDUS_clean_linker_0, # of connection points: 2
#     Edge 15, Type (0, 1), BuildingBlock: CIFDUS_clean_linker_0, # of connection points: 2
#     Edge 16, Type (0, 1), BuildingBlock: CIFDUS_clean_linker_0, # of connection points: 2
#     Edge 17, Type (0, 1), BuildingBlock: CIFDUS_clean_linker_0, # of connection points: 2
# Relax obj value: 0.085
# Max RMSD: 0.279
# Mean RMSD: 0.213
data_MOF--net-rtl--node1-KUMBUR_clean_sbu_1--node2-QEWDON_clean_linker_0--edge1-CIFDUS_clean_linker_0
_symmetry_space_group_name_H-M    P1
_symmetry_Int_Tables_number       1
_symmetry_cell_setting            triclinic
loop_
_symmetry_equiv_pos_as_xyz
'x, y, z'
_cell_length_a     33.232198
_cell_length_b     33.223991
_cell_length_c     23.520699
_cell_angle_alpha  77.227196
_cell_angle_beta   100.04883
_cell_angle_gamma 91.396532
loop_
_atom_site_label
_atom_site_type_symbol
_atom_site_fract_x
_atom_site_fract_y
_atom_site_fract_z
_atom_type_partial_charge
H0 H 0.24668 0.853 0.12594 0.0
C1 C 0.23243 0.85514 0.08023 0.0
C2 C 0.19469 0.87587 0.05882 0.0
C3 C 0.25332 0.83981 0.04184 0.0
H4 H 0.14845 0.89648 0.98262 0.0
C5 C 0.17719 0.87968 0.99927 0.0
C6 C 0.19739 0.86508 0.96 0.0
C7 C 0.23556 0.84482 0.98167 0.0
C8 C 0.2963 0.82499 0.06298 0.0
H9 H 0.25225 0.83486 0.95142 0.0
C10 C 0.30943 0.78543 0.05996 0.0
C11 C 0.35018 0.77208 0.08385 0.0
C12 C 0.32457 0.85124 0.0877 0.0
H13 H 0.31535 0.88186 0.08984 0.0
C14 C 0.36495 0.83849 0.10968 0.0
H15 H 0.28785 0.76475 0.0415 0.0
C16 C 0.37764 0.79919 0.10816 0.0
H17 H 0.40911 0.78979 0.12629 0.0
H18 H 0.38644 0.85903 0.12854 0.0
H19 H 0.75748 0.7071 0.62057 0.0
C20 C 0.73647 0.69665 0.65101 0.0
C21 C 0.70385 0.67107 0.63526 0.0
C22 C 0.74285 0.70707 0.70699 0.0
H23 H 0.65474 0.63347 0.66561 0.0
C24 C 0.6784 0.65503 0.67626 0.0
C25 C 0.68454 0.66427 0.73223 0.0
C26 C 0.71557 0.69155 0.74648 0.0
C27 C 0.78009 0.73004 0.7275 0.0
H28 H 0.71968 0.69876 0.78982 0.0
C29 C 0.7972 0.76247 0.68909 0.0
C30 C 0.83264 0.78303 0.71062 0.0
C31 C 0.79952 0.71839 0.78706 0.0
H32 H 0.78875 0.69272 0.81746 0.0
C33 C 0.83353 0.7392 0.80862 0.0
H34 H 0.78322 0.77151 0.64291 0.0
C35 C 0.8497 0.77137 0.77115 0.0
H36 H 0.87576 0.78726 0.79001 0.0
H37 H 0.84758 0.7302 0.85477 0.0
H38 H 0.80462 0.18676 0.18383 0.0
C39 C 0.82243 0.18802 0.14901 0.0
C40 C 0.8619 0.17004 0.16263 0.0
C41 C 0.80521 0.20606 0.09015 0.0
H42 H 0.91451 0.15702 0.12676 0.0
C43 C 0.88442 0.17143 0.1168 0.0
C44 C 0.86737 0.18876 0.05765 0.0
C45 C 0.82768 0.20581 0.04474 0.0
C46 C 0.7621 0.22099 0.07458 0.0
H47 H 0.81415 0.21887 0.99914 0.0
C48 C 0.74876 0.25502 0.09386 0.0
C49 C 0.7081 0.26989 0.07436 0.0
C50 C 0.73423 0.20153 0.03756 0.0
H51 H 0.7438 0.17535 0.02243 0.0
C52 C 0.69388 0.21562 0.01958 0.0
H53 H 0.77012 0.27069 0.1217 0.0
C54 C 0.68094 0.24971 0.03745 0.0
H55 H 0.64963 0.26064 0.02201 0.0
H56 H 0.67268 0.20039 0.99102 0.0
H57 H 0.32213 0.30439 0.52405 0.0
C58 C 0.33423 0.32202 0.48637 0.0
C59 C 0.35026 0.36161 0.48769 0.0
C60 C 0.3357 0.30392 0.43817 0.0
H61 H 0.37997 0.41365 0.43908 0.0
C62 C 0.36795 0.383 0.43943 0.0
C63 C 0.3692 0.36553 0.39051 0.0
C64 C 0.35286 0.3262 0.39007 0.0
C65 C 0.32261 0.26046 0.44005 0.0
H66 H 0.35399 0.31269 0.3524 0.0
C67 C 0.2846 0.24602 0.45543 0.0
C68 C 0.27314 0.20478 0.45548 0.0
C69 C 0.34901 0.23286 0.42655 0.0
H70 H 0.37853 0.24283 0.41557 0.0
C71 C 0.33796 0.192 0.42773 0.0
H72 H 0.26361 0.26695 0.46525 0.0
C73 C 0.30026 0.17809 0.44173 0.0
H74 H 0.29199 0.14639 0.44128 0.0
H75 H 0.35859 0.17109 0.41725 0.0
Tb76 Tb 0.05445 0.98347 0.52371 0.0
C77 C 0.94508 0.12436 0.51581 0.0
N78 N 0.98444 0.11891 0.54417 0.0
C79 C 1.00045 0.187 0.49469 0.0
C80 C 0.93221 0.16079 0.47348 0.0
C81 C 1.01185 0.15008 0.53593 0.0
C82 C 0.9606 0.19219 0.46275 0.0
C83 C 0.87677 0.09718 0.50073 0.0
C84 C 0.918 0.09279 0.52888 0.0
C85 C 0.8639 0.1329 0.45712 0.0
C86 C 0.89158 0.16463 0.44348 0.0
Tb87 Tb 1.00073 0.05651 0.60726 0.0
N88 N 0.93181 0.05847 0.57068 0.0
C89 C 0.84957 0.066 0.51822 0.0
C90 C 0.90459 0.02971 0.59128 0.0
C91 C 0.86339 0.03255 0.56455 0.0
H92 H 0.0427 0.14613 0.56035 0.0
H93 H 0.84225 1.00912 0.58017 0.0
H94 H 0.98996 0.90892 0.49451 0.0
H95 H 0.21528 0.97122 0.61424 0.0
H96 H 0.9141 1.0047 0.62894 0.0
H97 H 0.81763 0.06817 0.49774 0.0
H98 H 0.15163 1.00631 0.55495 0.0
H99 H 0.02244 0.21134 0.48737 0.0
H100 H 0.83246 0.13658 0.43443 0.0
H101 H 0.88115 0.19219 0.41025 0.0
H102 H 0.98372 0.83409 0.53324 0.0
H103 H 0.95194 0.22069 0.43052 0.0
H104 H 0.21343 0.8984 0.66838 0.0
N105 N 0.04574 0.91381 0.55293 0.0
C106 C 0.07751 0.89273 0.59134 0.0
C107 C 1.01003 0.85031 0.5506 0.0
C108 C 0.07585 0.8498 0.61351 0.0
C109 C 1.01342 0.89285 0.52937 0.0
C110 C 0.04091 0.82885 0.59401 0.0
N111 N 0.11442 0.95428 0.57774 0.0
C112 C 0.15075 0.97458 0.57875 0.0
C113 C 0.14871 0.89227 0.63757 0.0
C114 C 0.11339 0.91357 0.60338 0.0
C115 C 0.18556 0.91366 0.64258 0.0
C116 C 0.18674 0.95478 0.61204 0.0
H117 H 0.03838 0.79586 0.60996 0.0
H118 H 0.10905 0.79603 0.66981 0.0
H119 H 0.17297 0.83332 0.69089 0.0
O120 O 0.07409 0.01461 0.44543 0.0
O121 O 0.08071 0.99004 0.6139 0.0
O122 O 0.02706 0.99747 0.66029 0.0
O123 O 0.07055 0.94862 0.46619 0.0
O124 O 0.08011 0.04547 0.5215 0.0
O125 O 0.06561 0.07051 0.60169 0.0
O126 O 0.96638 0.07291 0.66649 0.0
O127 O 1.00668 0.07175 0.51348 0.0
O128 O 0.99573 0.01301 0.47904 0.0
O129 O 0.03084 0.08331 0.67589 0.0
O130 O 0.98208 0.9914 0.61943 0.0
O131 O 0.99005 0.97091 0.53389 0.0
C132 C 0.0626 0.98093 0.6603 0.0
C133 C 0.06319 0.98072 0.3654 0.0
C134 C 0.07331 0.95972 0.2757 0.0
C135 C 0.03697 0.9809 0.24546 0.0
C136 C 0.02684 1.00138 0.3348 0.0
C137 C 1.01386 1.00141 0.275 0.0
C138 C 0.08607 0.95971 0.33589 0.0
C139 C 0.08676 0.07061 0.55869 0.0
C140 C 0.07857 0.98083 0.42778 0.0
C141 C 0.10994 0.82891 0.65158 0.0
C142 C 0.14638 0.85012 0.66349 0.0
C143 C 0.98851 0.05245 0.47345 0.0
C144 C 0.99115 0.12752 0.71233 0.0
C145 C 0.96412 0.16464 0.77714 0.0
C146 C 0.98288 0.20068 0.75088 0.0
C147 C 1.0095 0.16397 0.68675 0.0
C148 C 0.96812 0.12816 0.75713 0.0
C149 C 1.00516 0.20032 0.70579 0.0
C150 C 0.97389 0.96652 0.58228 0.0
C151 C 0.99755 0.08798 0.69591 0.0
H152 H 0.02626 0.98128 0.19913 0.0
H153 H 1.0087 0.01756 0.35695 0.0
H154 H 0.98585 0.01747 0.25141 0.0
H155 H 0.11434 0.94406 0.3596 0.0
H156 H 0.98006 0.22925 0.76496 0.0
H157 H 0.02771 0.16428 0.65279 0.0
H158 H 0.95433 0.09997 0.77759 0.0
H159 H 0.01946 0.22828 0.6859 0.0
Tb160 Tb 0.48352 0.49506 0.99811 0.0
C161 C 0.63715 0.58421 0.05999 0.0
N162 N 0.62524 0.54698 0.08927 0.0
C163 C 0.69093 0.51785 0.0902 0.0
C164 C 0.67549 0.58898 0.04152 0.0
C165 C 0.65298 0.51499 0.1087 0.0
C166 C 0.70185 0.55472 0.05521 0.0
C167 C 0.62431 0.65803 0.02605 0.0
C168 C 0.61202 0.61838 0.05226 0.0
C169 C 0.66155 0.66257 1.00499 0.0
C170 C 0.68699 0.62808 1.01243 0.0
Tb171 Tb 0.56094 0.54665 0.11312 0.0
N172 N 0.57547 0.61268 0.07105 0.0
C173 C 0.59878 0.69184 0.02204 0.0
C174 C 0.55149 0.64566 0.07035 0.0
C175 C 0.56247 0.68567 0.04501 0.0
H176 H 0.6466 0.48734 0.13949 0.0
H177 H 0.54299 0.7117 0.04328 0.0
H178 H 0.39295 0.52985 1.00435 0.0
H179 H 0.54091 0.33899 0.02774 0.0
H180 H 0.52371 0.64096 0.08875 0.0
H181 H 0.60711 0.72284 1.00217 0.0
H182 H 0.53909 0.41407 0.98945 0.0
H183 H 0.71213 0.49188 0.10414 0.0
H184 H 0.67126 0.69268 0.98377 0.0
H185 H 0.7161 0.6322 0.99726 0.0
H186 H 0.3294 0.5014 0.03769 0.0
H187 H 0.73154 0.55705 0.04175 0.0
H188 H 0.48546 0.30535 0.07808 0.0
N189 N 0.4241 0.47182 0.02856 0.0
C190 C 0.42163 0.43052 0.04926 0.0
C191 C 0.35523 0.48116 0.04156 0.0
C192 C 0.38622 0.41292 0.06916 0.0
C193 C 0.39127 0.49721 0.02294 0.0
C194 C 0.35281 0.43888 0.06533 0.0
N195 N 0.48695 0.42429 0.02617 0.0
C196 C 0.51641 0.40044 0.01518 0.0
C197 C 0.45305 0.3628 0.06904 0.0
C198 C 0.4546 0.406 0.04929 0.0
C199 C 0.48541 0.33865 0.06341 0.0
C200 C 0.51683 0.35753 0.03525 0.0
H201 H 0.32496 0.42656 0.07999 0.0
H202 H 0.35844 0.35597 0.1076 0.0
H203 H 0.41701 0.31199 0.10737 0.0
O204 O 0.46781 0.4674 0.92497 0.0
O205 O 0.47156 0.48996 0.08905 0.0
O206 O 0.5354 0.4863 0.14656 0.0
O207 O 0.45111 0.53048 0.91846 0.0
O208 O 0.54928 0.48032 0.01408 0.0
O209 O 0.57534 0.48227 0.11108 0.0
O210 O 0.54443 0.56183 0.1889 0.0
O211 O 0.54213 0.57801 0.01951 0.0
O212 O 0.53856 0.5254 0.97156 0.0
O213 O 0.60713 0.55862 0.17984 0.0
O214 O 0.4963 0.56605 0.09868 0.0
O215 O 0.46541 0.5571 1.00494 0.0
C216 C 0.49619 0.47779 0.14019 0.0
C217 C 0.41029 0.49391 0.85301 0.0
C218 C 0.37571 0.47123 0.76461 0.0
C219 C 0.33838 0.48545 0.77414 0.0
C220 C 0.37271 0.50777 0.86144 0.0
C221 C 0.33698 0.50329 0.82232 0.0
C222 C 0.41153 0.47539 0.80497 0.0
C223 C 0.57493 0.46682 0.06386 0.0
C224 C 0.44907 0.50017 0.89127 0.0
C225 C 0.38519 0.37011 0.09141 0.0
C226 C 0.4186 0.34509 0.09148 0.0
C227 C 0.54836 0.5634 0.97441 0.0
C228 C 0.59445 0.54698 0.27659 0.0
C229 C 0.62112 0.5575 0.37555 0.0
C230 C 0.62876 0.51484 0.39525 0.0
C231 C 0.60205 0.50445 0.29686 0.0
C232 C 0.60346 0.57329 0.31619 0.0
C233 C 0.61885 0.48846 0.35617 0.0
C234 C 0.46763 0.5748 0.05071 0.0
C235 C 0.58218 0.56534 0.21334 0.0
H236 H 0.31026 0.48366 0.74371 0.0
H237 H 0.37097 0.52257 0.89755 0.0
H238 H 0.3081 0.51432 0.82881 0.0
H239 H 0.44064 0.46438 0.79911 0.0
H240 H 0.64215 0.50195 0.4409 0.0
H241 H 0.59608 0.48392 0.26653 0.0
H242 H 0.59827 0.60629 0.30029 0.0
H243 H 0.62488 0.45564 0.37164 0.0
H244 H 0.24315 0.18404 0.55947 0.0
H245 H 0.21245 0.18798 0.37262 0.0
H246 H 0.1506 0.14873 0.38774 0.0
H247 H 0.10903 0.10753 0.45477 0.0
H248 H 0.13804 0.10277 0.64201 0.0
H249 H 0.19648 0.14811 0.62639 0.0
C250 C 0.22223 0.17716 0.52211 0.0
C251 C 0.23207 0.18907 0.4649 0.0
C252 C 0.18686 0.15383 0.53138 0.0
C253 C 0.20521 0.1794 0.41686 0.0
C254 C 0.17006 0.15669 0.42557 0.0
C255 C 0.12801 0.11659 0.49219 0.0
C256 C 0.11963 0.10126 0.5496 0.0
C257 C 0.16121 0.14274 0.48276 0.0
C258 C 0.14396 0.11401 0.59742 0.0
C259 C 0.17743 0.13985 0.58847 0.0
H260 H 0.35274 0.7335 0.99273 0.0
H261 H 0.38232 0.71634 0.18245 0.0
H262 H 0.419 0.6522 0.18939 0.0
H263 H 0.44838 0.60474 0.14127 0.0
H264 H 0.42019 0.62101 0.95143 0.0
H265 H 0.37719 0.68124 0.9448 0.0
C266 C 0.36643 0.7151 0.03554 0.0
C267 C 0.36497 0.72964 0.08702 0.0
C268 C 0.38826 0.67838 0.03914 0.0
C269 C 0.38318 0.70577 0.14226 0.0
C270 C 0.40432 0.66922 0.14623 0.0
C271 C 0.43263 0.62123 0.09839 0.0
C272 C 0.43804 0.60859 0.0469 0.0
C273 C 0.40807 0.65585 0.0949 0.0
C274 C 0.41677 0.63005 0.99186 0.0
C275 C 0.39222 0.66463 0.98799 0.0
H276 H 0.91399 0.79629 0.71417 0.0
H277 H 0.79644 0.84626 0.61975 0.0
H278 H 0.82997 0.9061 0.56686 0.0
H279 H 0.89301 0.94741 0.55426 0.0
H280 H 1.00829 0.89914 0.65854 0.0
H281 H 0.97551 0.83601 0.7016 0.0
C282 C 0.89545 0.82031 0.68232 0.0
C283 C 0.85254 0.81687 0.67195 0.0
C284 C 0.91471 0.85528 0.65419 0.0
C285 C 0.82945 0.84781 0.62876 0.0
C286 C 0.84864 0.88231 0.59887 0.0
C287 C 0.91076 0.92281 0.58608 0.0
C288 C 0.95308 0.92763 0.60316 0.0
C289 C 0.89124 0.88687 0.61221 0.0
C290 C 0.97576 0.89597 0.64493 0.0
C291 C 0.95701 0.85986 0.66941 0.0
H292 H 0.69041 0.34311 0.99915 0.0
H293 H 0.69024 0.28009 0.17974 0.0
H294 H 0.6517 0.33786 0.19535 0.0
H295 H 0.61108 0.40318 0.15303 0.0
H296 H 0.61142 0.46392 0.97096 0.0
H297 H 0.65703 0.41085 0.96064 0.0
C298 C 0.6828 0.34262 0.04233 0.0
C299 C 0.69328 0.30773 0.08836 0.0
C300 C 0.66015 0.37544 0.05041 0.0
C301 C 0.6829 0.30699 0.14395 0.0
C302 C 0.66054 0.33984 0.15261 0.0
C303 C 0.62184 0.40505 0.11159 0.0
C304 C 0.60738 0.43718 0.06257 0.0
C305 C 0.64795 0.3738 0.1056 0.0
C306 C 0.62157 0.43925 1.00909 0.0
C307 C 0.64771 0.40888 1.00309 0.0
H308 H 0.17821 0.84606 0.17073 0.0
H309 H 0.16697 0.95511 0.02948 0.0
H310 H 0.12853 0.99035 0.08366 0.0
H311 H 0.096 0.98986 0.16938 0.0
H312 H 0.10731 0.88202 0.31228 0.0
H313 H 0.14795 0.84688 0.25982 0.0
C314 C 0.16768 0.87766 0.15231 0.0
C315 C 0.17488 0.89766 0.09576 0.0
C316 C 0.14539 0.89794 0.18384 0.0
C317 C 0.16112 0.9387 0.0724 0.0
C318 C 0.13921 0.95897 0.10338 0.0
C319 C 0.10717 0.95857 0.18886 0.0
C320 C 0.09835 0.93845 0.2443 0.0
C321 C 0.13061 0.93872 0.15867 0.0
C322 C 0.11377 0.89821 0.26961 0.0
C323 C 0.13693 0.87808 0.23959 0.0
H324 H 0.63456 0.6937 0.79553 0.0
H325 H 0.68449 0.58158 0.77061 0.0
H326 H 0.64672 0.54044 0.84283 0.0
H327 H 0.59904 0.53606 0.91234 0.0
H328 H 0.54577 0.64716 0.93479 0.0
H329 H 0.58495 0.68899 0.8645 0.0
C330 C 0.63715 0.66029 0.8063 0.0
C331 C 0.66212 0.64061 0.77785 0.0
C332 C 0.61462 0.63668 0.8472 0.0
C333 C 0.66519 0.5973 0.79177 0.0
C334 C 0.64363 0.57378 0.833 0.0
C335 C 0.5958 0.5694 0.9015 0.0
C336 C 0.57004 0.58856 0.92927 0.0
C337 C 0.61804 0.59308 0.86067 0.0
C338 C 0.56601 0.63179 0.91465 0.0
C339 C 0.58832 0.65568 0.87436 0.0
H340 H 0.93711 0.17665 0.22742 0.0
H341 H 0.82421 0.11052 0.23403 0.0
H342 H 0.85366 0.06712 0.33005 0.0
H343 H 0.91277 0.0462 0.41094 0.0
H344 H 0.02382 0.11554 0.40695 0.0
H345 H 0.99431 0.15902 0.31104 0.0
C346 C 0.91896 0.15283 0.25009 0.0
C347 C 0.87862 0.1467 0.22357 0.0
C348 C 0.93602 0.12817 0.30539 0.0
C349 C 0.85524 0.11606 0.25373 0.0
C350 C 0.87217 0.091 0.30839 0.0
C351 C 0.93043 0.07063 0.38852 0.0
C352 C 0.97056 0.07731 0.4149 0.0
C353 C 0.91273 0.09637 0.33429 0.0
C354 C 0.99298 0.1097 0.38677 0.0
C355 C 0.97609 0.1346 0.33216 0.0
H356 H 0.40823 0.40838 0.5404 0.0
H357 H 0.28875 0.35666 0.5528 0.0
H358 H 0.2869 0.38429 0.64 0.0
H359 H 0.31904 0.42273 0.71329 0.0
H360 H 0.43611 0.47916 0.69654 0.0
H361 H 0.43895 0.44984 0.61106 0.0
C362 C 0.38149 0.40357 0.56157 0.0
C363 C 0.34881 0.3801 0.53984 0.0
C364 C 0.38024 0.42016 0.61142 0.0
C365 C 0.31477 0.37382 0.56885 0.0
C366 C 0.31352 0.38987 0.61867 0.0
C367 C 0.34501 0.42918 0.69066 0.0
C368 C 0.37737 0.45312 0.71209 0.0
C369 C 0.3461 0.41302 0.64045 0.0
C370 C 0.41104 0.46023 0.6823 0.0
C371 C 0.41257 0.44376 0.63285 0.0
H372 H 0.63444 0.67514 0.55457 0.0
H373 H 0.75963 0.63232 0.5926 0.0
H374 H 0.74547 0.59401 0.51355 0.0
H375 H 0.69538 0.567 0.4406 0.0
H376 H 0.57054 0.61106 0.40185 0.0
H377 H 0.58639 0.65442 0.47435 0.0
C378 C 0.65877 0.65812 0.54452 0.0
C379 C 0.69798 0.65644 0.57923 0.0
C380 C 0.65021 0.6358 0.49973 0.0
C381 C 0.72935 0.63439 0.566 0.0
C382 C 0.7211 0.61209 0.52134 0.0
C383 C 0.67183 0.58633 0.44799 0.0
C384 C 0.63174 0.58554 0.41675 0.0
C385 C 0.68135 0.61157 0.48916 0.0
C386 C 0.60153 0.61113 0.4257 0.0
C387 C 0.61059 0.63587 0.46708 0.0
H388 H 0.84236 0.15881 0.95856 0.0
H389 H 0.9447 0.21541 0.04917 0.0
H390 H 0.98355 0.21322 0.97047 0.0
H391 H 0.98846 0.19517 0.87574 0.0
H392 H 0.88753 0.1354 0.78736 0.0
H393 H 0.8482 0.13854 0.86525 0.0
C394 C 0.87309 0.17085 0.96075 0.0
C395 C 0.89056 0.18758 1.00931 0.0
C396 C 0.89554 0.16872 0.91587 0.0
C397 C 0.93065 0.20241 1.01223 0.0
C398 C 0.95283 0.20119 0.96723 0.0
C399 C 0.9578 0.18295 0.87351 0.0
C400 C 0.94084 0.16527 0.82565 0.0
C401 C 0.9356 0.18442 0.91884 0.0
C402 C 0.90133 0.14896 0.82385 0.0
C403 C 0.87878 0.15093 0.86824 0.0
H404 H 0.44956 0.37966 0.38402 0.0
H405 H 0.32831 0.40224 0.28191 0.0
H406 H 0.35658 0.44003 0.19615 0.0
H407 H 0.41578 0.46723 0.15087 0.0
H408 H 0.53756 0.43952 0.24956 0.0
H409 H 0.50936 0.40423 0.33629 0.0
C410 C 0.4295 0.39299 0.3429 0.0
C411 C 0.38693 0.38856 0.33917 0.0
C412 C 0.4461 0.41389 0.29333 0.0
C413 C 0.36113 0.40549 0.28566 0.0
C414 C 0.3773 0.42703 0.23671 0.0
C415 C 0.43624 0.45272 0.19071 0.0
C416 C 0.47884 0.4558 0.19293 0.0
C417 C 0.41975 0.43136 0.23996 0.0
C418 C 0.50469 0.43792 0.24621 0.0
C419 C 0.48855 0.4175 0.29592 0.0
H420 H 0.11868 0.85999 0.90718 0.0
H421 H 0.23754 0.89939 0.869 0.0
H422 H 0.20622 0.93704 0.77008 0.0
H423 H 0.14417 0.96768 0.70136 0.0
H424 H 0.02556 0.93153 0.74352 0.0
H425 H 0.05743 0.88531 0.83511 0.0
C426 C 0.1378 0.87621 0.87675 0.0
C427 C 0.18032 0.87725 0.8957 0.0
C428 C 0.11946 0.89946 0.82138 0.0
C429 C 0.20477 0.89784 0.85551 0.0
C430 C 0.18679 0.91996 0.79928 0.0
C431 C 0.12542 0.9487 0.72972 0.0
C432 C 0.0826 0.95232 0.71491 0.0
C433 C 0.14406 0.92237 0.78274 0.0
C434 C 0.05859 0.92904 0.75354 0.0
C435 C 0.07679 0.90248 0.80587 0.0
loop_
_geom_bond_atom_site_label_1
_geom_bond_atom_site_label_2
_geom_bond_distance
_geom_bond_site_symmetry_2
_ccdc_geom_bond_type
H0 C1 0.949 . S
C1 H0 0.949 . S
C1 C2 1.395 . S
C1 C3 1.391 . S
C2 C1 1.395 . S
C2 C5 1.390 . S
C3 C1 1.391 . S
C3 C7 1.387 1_554 S
C3 C8 1.491 . S
H4 C5 0.950 . S
C5 C2 1.390 . S
C5 H4 0.950 . S
C5 C6 1.378 1_554 S
C6 C5 1.378 1_556 S
C6 C7 1.409 . S
C7 C3 1.387 1_556 S
C7 C6 1.409 . S
C7 H9 0.951 . S
C8 C3 1.491 . S
C8 C10 1.382 . S
C8 C12 1.404 1_554 S
H9 C7 0.951 . S
C10 C8 1.382 . S
C10 C11 1.390 . S
C10 H15 0.949 . S
C11 C10 1.390 . S
C11 C16 1.399 . S
C12 C8 1.404 1_556 S
C12 H13 0.950 . S
C12 C14 1.375 . S
H13 C12 0.950 . S
C14 C12 1.375 . S
C14 C16 1.382 1_556 S
C14 H18 0.950 . S
H15 C10 0.949 . S
C16 C11 1.399 . S
C16 C14 1.382 1_554 S
C16 H17 0.952 . S
H17 C16 0.952 . S
H18 C14 0.950 . S
H19 C20 0.949 . S
C20 H19 0.949 . S
C20 C21 1.395 . S
C20 C22 1.391 . S
C21 C20 1.395 . S
C21 C24 1.390 . S
C22 C20 1.391 . S
C22 C26 1.387 . S
C22 C27 1.491 . S
H23 C24 0.950 . S
C24 C21 1.390 . S
C24 H23 0.950 . S
C24 C25 1.378 . S
C25 C24 1.378 . S
C25 C26 1.409 . S
C26 C22 1.387 . S
C26 C25 1.409 . S
C26 H28 0.951 . S
C27 C22 1.491 . S
C27 C29 1.382 . S
C27 C31 1.404 . S
H28 C26 0.951 . S
C29 C27 1.382 . S
C29 C30 1.390 . S
C29 H34 0.949 . S
C30 C29 1.390 . S
C30 C35 1.399 . S
C31 C27 1.404 . S
C31 H32 0.950 . S
C31 C33 1.375 . S
H32 C31 0.950 . S
C33 C31 1.375 . S
C33 C35 1.382 . S
C33 H37 0.950 . S
H34 C29 0.949 . S
C35 C30 1.399 . S
C35 C33 1.382 . S
C35 H36 0.952 . S
H36 C35 0.952 . S
H37 C33 0.950 . S
H38 C39 0.949 . S
C39 H38 0.949 . S
C39 C40 1.395 . S
C39 C41 1.391 . S
C40 C39 1.395 . S
C40 C43 1.390 . S
C41 C39 1.391 . S
C41 C45 1.387 . S
C41 C46 1.491 . S
H42 C43 0.950 . S
C43 C40 1.390 . S
C43 H42 0.950 . S
C43 C44 1.378 . S
C44 C43 1.378 . S
C44 C45 1.409 . S
C45 C41 1.387 . S
C45 C44 1.409 . S
C45 H47 0.951 1_554 S
C46 C41 1.491 . S
C46 C48 1.382 . S
C46 C50 1.404 1_554 S
H47 C45 0.951 1_556 S
C48 C46 1.382 . S
C48 C49 1.390 . S
C48 H53 0.949 . S
C49 C48 1.390 . S
C49 C54 1.399 1_554 S
C50 C46 1.404 1_556 S
C50 H51 0.950 . S
C50 C52 1.375 . S
H51 C50 0.950 . S
C52 C50 1.375 . S
C52 C54 1.382 . S
C52 H56 0.950 . S
H53 C48 0.949 . S
C54 C49 1.399 1_556 S
C54 C52 1.382 . S
C54 H55 0.952 . S
H55 C54 0.952 . S
H56 C52 0.950 . S
H57 C58 0.949 . S
C58 H57 0.949 . S
C58 C59 1.395 . S
C58 C60 1.391 . S
C59 C58 1.395 . S
C59 C62 1.390 . S
C60 C58 1.391 . S
C60 C64 1.387 . S
C60 C65 1.491 . S
H61 C62 0.950 . S
C62 C59 1.390 . S
C62 H61 0.950 . S
C62 C63 1.378 . S
C63 C62 1.378 . S
C63 C64 1.409 . S
C64 C60 1.387 . S
C64 C63 1.409 . S
C64 H66 0.951 . S
C65 C60 1.491 . S
C65 C67 1.382 . S
C65 C69 1.404 . S
H66 C64 0.951 . S
C67 C65 1.382 . S
C67 C68 1.390 . S
C67 H72 0.949 . S
C68 C67 1.390 . S
C68 C73 1.399 . S
C69 C65 1.404 . S
C69 H70 0.950 . S
C69 C71 1.375 . S
H70 C69 0.950 . S
C71 C69 1.375 . S
C71 C73 1.382 . S
C71 H75 0.950 . S
H72 C67 0.949 . S
C73 C68 1.399 . S
C73 C71 1.382 . S
C73 H74 0.952 . S
H74 C73 0.952 . S
H75 C71 0.950 . S
Tb76 N105 2.617 . S
Tb76 N111 2.572 . S
Tb76 O120 2.465 . S
Tb76 O121 2.387 . S
Tb76 O123 2.428 . S
Tb76 O124 2.308 1_565 S
Tb76 O128 2.349 1_465 S
Tb76 O131 2.393 1_455 S
Tb76 C140 2.802 . S
C77 N78 1.379 . S
C77 C80 1.416 . S
C77 C84 1.424 . S
N78 C77 1.379 . S
N78 C81 1.334 1_655 S
N78 Tb87 2.617 . S
C79 C81 1.390 . S
C79 C82 1.339 1_455 S
C79 H99 0.930 . S
C80 C77 1.416 . S
C80 C82 1.416 . S
C80 C86 1.448 . S
C81 N78 1.334 1_455 S
C81 C79 1.390 . S
C81 H92 0.930 . S
C82 C79 1.339 1_655 S
C82 C80 1.416 . S
C82 H103 0.930 . S
C83 C84 1.413 . S
C83 C85 1.427 . S
C83 C89 1.416 . S
C84 C77 1.424 . S
C84 C83 1.413 . S
C84 N88 1.361 . S
C85 C83 1.427 . S
C85 C86 1.328 . S
C85 H100 0.929 . S
C86 C80 1.448 . S
C86 C85 1.328 . S
C86 H101 0.930 . S
Tb87 N78 2.617 . S
Tb87 N88 2.572 . S
Tb87 O122 2.349 1_655 S
Tb87 O125 2.393 1_655 S
Tb87 O126 2.465 . S
Tb87 O127 2.387 . S
Tb87 O129 2.428 . S
Tb87 O130 2.308 1_545 S
Tb87 C151 2.802 . S
N88 C84 1.361 . S
N88 Tb87 2.572 . S
N88 C90 1.340 . S
C89 C83 1.416 . S
C89 C91 1.332 . S
C89 H97 0.931 . S
C90 N88 1.340 . S
C90 C91 1.407 . S
C90 H96 0.930 . S
C91 C89 1.332 . S
C91 C90 1.407 . S
C91 H93 0.929 . S
H92 C81 0.930 . S
H93 C91 0.929 . S
H94 C109 0.930 1_655 S
H95 C116 0.929 . S
H96 C90 0.930 . S
H97 C89 0.931 . S
H98 C112 0.930 . S
H99 C79 0.930 . S
H100 C85 0.929 . S
H101 C86 0.930 . S
H102 C107 0.930 1_655 S
H103 C82 0.930 . S
H104 C115 0.931 . S
N105 Tb76 2.617 . S
N105 C106 1.379 . S
N105 C109 1.334 . S
C106 N105 1.379 . S
C106 C108 1.416 . S
C106 C114 1.424 . S
C107 H102 0.930 1_455 S
C107 C109 1.390 . S
C107 C110 1.339 . S
C108 C106 1.416 . S
C108 C110 1.416 . S
C108 C141 1.448 . S
C109 H94 0.930 1_455 S
C109 N105 1.334 . S
C109 C107 1.390 . S
C110 C107 1.339 . S
C110 C108 1.416 . S
C110 H117 0.930 . S
N111 Tb76 2.572 . S
N111 C112 1.340 . S
N111 C114 1.361 . S
C112 H98 0.930 . S
C112 N111 1.340 . S
C112 C116 1.407 . S
C113 C114 1.413 . S
C113 C115 1.416 . S
C113 C142 1.427 . S
C114 C106 1.424 . S
C114 N111 1.361 . S
C114 C113 1.413 . S
C115 H104 0.931 . S
C115 C113 1.416 . S
C115 C116 1.332 . S
C116 H95 0.929 . S
C116 C112 1.407 . S
C116 C115 1.332 . S
H117 C110 0.930 . S
H118 C141 0.930 . S
H119 C142 0.929 . S
O120 Tb76 2.465 . S
O120 C140 1.264 . S
O121 Tb76 2.387 . S
O121 C132 1.264 . S
O122 Tb87 2.349 1_455 S
O122 C132 1.243 1_545 S
O123 Tb76 2.428 . S
O123 C140 1.256 . S
O124 Tb76 2.308 1_545 S
O124 C139 1.266 . S
O125 Tb87 2.393 1_455 S
O125 C139 1.248 . S
O126 Tb87 2.465 . S
O126 C151 1.264 . S
O127 Tb87 2.387 . S
O127 C143 1.264 . S
O128 Tb76 2.349 1_645 S
O128 C143 1.243 . S
O129 Tb87 2.428 . S
O129 C151 1.256 . S
O130 Tb87 2.308 1_565 S
O130 C150 1.266 . S
O131 Tb76 2.393 1_655 S
O131 C150 1.248 . S
C132 O121 1.264 . S
C132 O122 1.243 1_565 S
C133 C136 1.399 . S
C133 C138 1.383 . S
C133 C140 1.496 . S
C134 C135 1.399 . S
C134 C138 1.389 . S
C135 C134 1.399 . S
C135 C137 1.380 . S
C135 H152 0.929 . S
C136 C133 1.399 . S
C136 C137 1.392 . S
C136 H153 0.929 . S
C137 C135 1.380 . S
C137 C136 1.392 . S
C137 H154 0.929 . S
C138 C133 1.383 . S
C138 C134 1.389 . S
C138 H155 0.931 . S
C139 O124 1.266 . S
C139 O125 1.248 . S
C140 Tb76 2.802 . S
C140 O120 1.264 . S
C140 O123 1.256 . S
C140 C133 1.496 . S
C141 C108 1.448 . S
C141 H118 0.930 . S
C141 C142 1.328 . S
C142 C113 1.427 . S
C142 H119 0.929 . S
C142 C141 1.328 . S
C143 O127 1.264 . S
C143 O128 1.243 . S
C144 C147 1.399 . S
C144 C148 1.383 . S
C144 C151 1.496 . S
C145 C146 1.399 . S
C145 C148 1.389 . S
C146 C145 1.399 . S
C146 C149 1.380 . S
C146 H156 0.929 . S
C147 C144 1.399 . S
C147 C149 1.392 . S
C147 H157 0.929 . S
C148 C144 1.383 . S
C148 C145 1.389 . S
C148 H158 0.931 . S
C149 C146 1.380 . S
C149 C147 1.392 . S
C149 H159 0.929 . S
C150 O130 1.266 . S
C150 O131 1.248 . S
C151 Tb87 2.802 . S
C151 O126 1.264 . S
C151 O129 1.256 . S
C151 C144 1.496 . S
H152 C135 0.929 . S
H153 C136 0.929 . S
H154 C137 0.929 . S
H155 C138 0.931 . S
H156 C146 0.929 . S
H157 C147 0.929 . S
H158 C148 0.931 . S
H159 C149 0.929 . S
Tb160 N189 2.617 . S
Tb160 N195 2.572 . S
Tb160 O204 2.465 1_554 S
Tb160 O205 2.387 . S
Tb160 O207 2.428 1_554 S
Tb160 O208 2.308 . S
Tb160 O212 2.349 1_554 S
Tb160 O215 2.393 . S
Tb160 C224 2.802 1_554 S
C161 N162 1.379 . S
C161 C164 1.416 . S
C161 C168 1.424 . S
N162 C161 1.379 . S
N162 C165 1.334 . S
N162 Tb171 2.617 . S
C163 C165 1.390 . S
C163 C166 1.339 . S
C163 H183 0.930 . S
C164 C161 1.416 . S
C164 C166 1.416 . S
C164 C170 1.448 . S
C165 N162 1.334 . S
C165 C163 1.390 . S
C165 H176 0.930 . S
C166 C163 1.339 . S
C166 C164 1.416 . S
C166 H187 0.930 . S
C167 C168 1.413 . S
C167 C169 1.427 . S
C167 C173 1.416 . S
C168 C161 1.424 . S
C168 C167 1.413 . S
C168 N172 1.361 . S
C169 C167 1.427 . S
C169 C170 1.328 . S
C169 H184 0.929 . S
C170 C164 1.448 . S
C170 C169 1.328 . S
C170 H185 0.930 . S
Tb171 N162 2.617 . S
Tb171 N172 2.572 . S
Tb171 O206 2.349 . S
Tb171 O209 2.393 . S
Tb171 O210 2.465 . S
Tb171 O211 2.387 . S
Tb171 O213 2.428 . S
Tb171 O214 2.308 . S
Tb171 C235 2.802 . S
N172 C168 1.361 . S
N172 Tb171 2.572 . S
N172 C174 1.340 . S
C173 C167 1.416 . S
C173 C175 1.332 . S
C173 H181 0.931 . S
C174 N172 1.340 . S
C174 C175 1.407 . S
C174 H180 0.930 . S
C175 C173 1.332 . S
C175 C174 1.407 . S
C175 H177 0.929 . S
H176 C165 0.930 . S
H177 C175 0.929 . S
H178 C193 0.930 . S
H179 C200 0.929 . S
H180 C174 0.930 . S
H181 C173 0.931 . S
H182 C196 0.930 . S
H183 C163 0.930 . S
H184 C169 0.929 . S
H185 C170 0.930 . S
H186 C191 0.930 . S
H187 C166 0.930 . S
H188 C199 0.931 . S
N189 Tb160 2.617 . S
N189 C190 1.379 . S
N189 C193 1.334 1_554 S
C190 N189 1.379 . S
C190 C192 1.416 . S
C190 C198 1.424 . S
C191 H186 0.930 . S
C191 C193 1.390 . S
C191 C194 1.339 1_556 S
C192 C190 1.416 . S
C192 C194 1.416 . S
C192 C225 1.448 . S
C193 H178 0.930 . S
C193 N189 1.334 1_556 S
C193 C191 1.390 . S
C194 C191 1.339 1_554 S
C194 C192 1.416 . S
C194 H201 0.930 . S
N195 Tb160 2.572 . S
N195 C196 1.340 . S
N195 C198 1.361 . S
C196 H182 0.930 . S
C196 N195 1.340 . S
C196 C200 1.407 . S
C197 C198 1.413 . S
C197 C199 1.416 . S
C197 C226 1.427 . S
C198 C190 1.424 . S
C198 N195 1.361 . S
C198 C197 1.413 . S
C199 H188 0.931 . S
C199 C197 1.416 . S
C199 C200 1.332 . S
C200 H179 0.929 . S
C200 C196 1.407 . S
C200 C199 1.332 . S
H201 C194 0.930 . S
H202 C225 0.930 . S
H203 C226 0.929 . S
O204 Tb160 2.465 1_556 S
O204 C224 1.264 . S
O205 Tb160 2.387 . S
O205 C216 1.264 . S
O206 Tb171 2.349 . S
O206 C216 1.243 . S
O207 Tb160 2.428 1_556 S
O207 C224 1.256 . S
O208 Tb160 2.308 . S
O208 C223 1.266 . S
O209 Tb171 2.393 . S
O209 C223 1.248 . S
O210 Tb171 2.465 . S
O210 C235 1.264 . S
O211 Tb171 2.387 . S
O211 C227 1.264 1_554 S
O212 Tb160 2.349 1_556 S
O212 C227 1.243 . S
O213 Tb171 2.428 . S
O213 C235 1.256 . S
O214 Tb171 2.308 . S
O214 C234 1.266 . S
O215 Tb160 2.393 . S
O215 C234 1.248 . S
C216 O205 1.264 . S
C216 O206 1.243 . S
C217 C220 1.399 . S
C217 C222 1.383 . S
C217 C224 1.496 . S
C218 C219 1.399 . S
C218 C222 1.389 . S
C219 C218 1.399 . S
C219 C221 1.380 . S
C219 H236 0.929 . S
C220 C217 1.399 . S
C220 C221 1.392 . S
C220 H237 0.929 . S
C221 C219 1.380 . S
C221 C220 1.392 . S
C221 H238 0.929 . S
C222 C217 1.383 . S
C222 C218 1.389 . S
C222 H239 0.931 . S
C223 O208 1.266 . S
C223 O209 1.248 . S
C224 Tb160 2.802 1_556 S
C224 O204 1.264 . S
C224 O207 1.256 . S
C224 C217 1.496 . S
C225 C192 1.448 . S
C225 H202 0.930 . S
C225 C226 1.328 . S
C226 C197 1.427 . S
C226 H203 0.929 . S
C226 C225 1.328 . S
C227 O211 1.264 1_556 S
C227 O212 1.243 . S
C228 C231 1.399 . S
C228 C232 1.383 . S
C228 C235 1.496 . S
C229 C230 1.399 . S
C229 C232 1.389 . S
C230 C229 1.399 . S
C230 C233 1.380 . S
C230 H240 0.929 . S
C231 C228 1.399 . S
C231 C233 1.392 . S
C231 H241 0.929 . S
C232 C228 1.383 . S
C232 C229 1.389 . S
C232 H242 0.931 . S
C233 C230 1.380 . S
C233 C231 1.392 . S
C233 H243 0.929 . S
C234 O214 1.266 . S
C234 O215 1.248 . S
C235 Tb171 2.802 . S
C235 O210 1.264 . S
C235 O213 1.256 . S
C235 C228 1.496 . S
H236 C219 0.929 . S
H237 C220 0.929 . S
H238 C221 0.929 . S
H239 C222 0.931 . S
H240 C230 0.929 . S
H241 C231 0.929 . S
H242 C232 0.931 . S
H243 C233 0.929 . S
H244 C250 0.930 . S
H245 C253 0.930 . S
H246 C254 0.930 . S
H247 C255 0.930 . S
H248 C258 0.930 . S
H249 C259 0.930 . S
C250 H244 0.930 . S
C250 C251 1.355 . S
C250 C252 1.415 . S
C251 C250 1.355 . S
C251 C253 1.419 . S
C252 C250 1.415 . S
C252 C257 1.425 . S
C252 C259 1.409 . S
C253 H245 0.930 . S
C253 C251 1.419 . S
C253 C254 1.362 . S
C254 H246 0.930 . S
C254 C253 1.362 . S
C254 C257 1.409 . S
C255 H247 0.930 . S
C255 C256 1.355 . S
C255 C257 1.415 . S
C256 C255 1.355 . S
C256 C258 1.419 . S
C257 C252 1.425 . S
C257 C254 1.409 . S
C257 C255 1.415 . S
C258 H248 0.930 . S
C258 C256 1.419 . S
C258 C259 1.362 . S
C259 H249 0.930 . S
C259 C252 1.409 . S
C259 C258 1.362 . S
H260 C266 0.930 1_556 S
H261 C269 0.930 . S
H262 C270 0.930 . S
H263 C271 0.930 . S
H264 C274 0.930 . S
H265 C275 0.930 . S
C266 H260 0.930 1_554 S
C266 C267 1.355 . S
C266 C268 1.415 . S
C267 C266 1.355 . S
C267 C269 1.419 . S
C268 C266 1.415 . S
C268 C273 1.425 . S
C268 C275 1.409 1_554 S
C269 H261 0.930 . S
C269 C267 1.419 . S
C269 C270 1.362 . S
C270 H262 0.930 . S
C270 C269 1.362 . S
C270 C273 1.409 . S
C271 H263 0.930 . S
C271 C272 1.355 . S
C271 C273 1.415 . S
C272 C271 1.355 . S
C272 C274 1.419 1_554 S
C273 C268 1.425 . S
C273 C270 1.409 . S
C273 C271 1.415 . S
C274 H264 0.930 . S
C274 C272 1.419 1_556 S
C274 C275 1.362 . S
C275 H265 0.930 . S
C275 C268 1.409 1_556 S
C275 C274 1.362 . S
H276 C282 0.930 . S
H277 C285 0.930 . S
H278 C286 0.930 . S
H279 C287 0.930 . S
H280 C290 0.930 . S
H281 C291 0.930 . S
C282 H276 0.930 . S
C282 C283 1.355 . S
C282 C284 1.415 . S
C283 C282 1.355 . S
C283 C285 1.419 . S
C284 C282 1.415 . S
C284 C289 1.425 . S
C284 C291 1.409 . S
C285 H277 0.930 . S
C285 C283 1.419 . S
C285 C286 1.362 . S
C286 H278 0.930 . S
C286 C285 1.362 . S
C286 C289 1.409 . S
C287 H279 0.930 . S
C287 C288 1.355 . S
C287 C289 1.415 . S
C288 C287 1.355 . S
C288 C290 1.419 . S
C289 C284 1.425 . S
C289 C286 1.409 . S
C289 C287 1.415 . S
C290 H280 0.930 . S
C290 C288 1.419 . S
C290 C291 1.362 . S
C291 H281 0.930 . S
C291 C284 1.409 . S
C291 C290 1.362 . S
H292 C298 0.930 . S
H293 C301 0.930 . S
H294 C302 0.930 . S
H295 C303 0.930 . S
H296 C306 0.930 . S
H297 C307 0.938 . S
C298 H292 0.930 . S
C298 C299 1.355 . S
C298 C300 1.415 . S
C299 C298 1.355 . S
C299 C301 1.419 . S
C300 C298 1.415 . S
C300 C305 1.425 . S
C300 C307 1.409 . S
C301 H293 0.930 . S
C301 C299 1.419 . S
C301 C302 1.362 . S
C302 H294 0.930 . S
C302 C301 1.362 . S
C302 C305 1.409 . S
C303 H295 0.930 . S
C303 C304 1.355 . S
C303 C305 1.415 . S
C304 C303 1.355 . S
C304 C306 1.419 . S
C305 C300 1.425 . S
C305 C302 1.409 . S
C305 C303 1.415 . S
C306 H296 0.930 . S
C306 C304 1.419 . S
C306 C307 1.362 . S
C307 H297 0.938 . S
C307 C300 1.409 . S
C307 C306 1.362 . S
H308 C314 0.930 . S
H309 C317 0.930 . S
H310 C318 0.930 . S
H311 C319 0.930 . S
H312 C322 0.930 . S
H313 C323 0.930 . S
C314 H308 0.930 . S
C314 C315 1.355 . S
C314 C316 1.415 . S
C315 C314 1.355 . S
C315 C317 1.419 . S
C316 C314 1.415 . S
C316 C321 1.425 . S
C316 C323 1.409 . S
C317 H309 0.930 . S
C317 C315 1.419 . S
C317 C318 1.362 . S
C318 H310 0.930 . S
C318 C317 1.362 . S
C318 C321 1.409 . S
C319 H311 0.930 . S
C319 C320 1.355 . S
C319 C321 1.415 . S
C320 C319 1.355 . S
C320 C322 1.419 . S
C321 C316 1.425 . S
C321 C318 1.409 . S
C321 C319 1.415 . S
C322 H312 0.930 . S
C322 C320 1.419 . S
C322 C323 1.362 . S
C323 H313 0.930 . S
C323 C316 1.409 . S
C323 C322 1.362 . S
H324 C330 0.930 . S
H325 C333 0.930 . S
H326 C334 0.930 . S
H327 C335 0.930 . S
H328 C338 0.930 . S
H329 C339 0.930 . S
C330 H324 0.930 . S
C330 C331 1.355 . S
C330 C332 1.415 . S
C331 C330 1.355 . S
C331 C333 1.419 . S
C332 C330 1.415 . S
C332 C337 1.425 . S
C332 C339 1.409 . S
C333 H325 0.930 . S
C333 C331 1.419 . S
C333 C334 1.362 . S
C334 H326 0.930 . S
C334 C333 1.362 . S
C334 C337 1.409 . S
C335 H327 0.930 . S
C335 C336 1.355 . S
C335 C337 1.415 . S
C336 C335 1.355 . S
C336 C338 1.419 . S
C337 C332 1.425 . S
C337 C334 1.409 . S
C337 C335 1.415 . S
C338 H328 0.930 . S
C338 C336 1.419 . S
C338 C339 1.362 . S
C339 H329 0.930 . S
C339 C332 1.409 . S
C339 C338 1.362 . S
H340 C346 0.930 . S
H341 C349 0.930 . S
H342 C350 0.930 . S
H343 C351 0.930 . S
H344 C354 0.930 . S
H345 C355 0.930 . S
C346 H340 0.930 . S
C346 C347 1.355 . S
C346 C348 1.415 . S
C347 C346 1.355 . S
C347 C349 1.419 . S
C348 C346 1.415 . S
C348 C353 1.425 . S
C348 C355 1.409 . S
C349 H341 0.930 . S
C349 C347 1.419 . S
C349 C350 1.362 . S
C350 H342 0.930 . S
C350 C349 1.362 . S
C350 C353 1.409 . S
C351 H343 0.930 . S
C351 C352 1.355 . S
C351 C353 1.415 . S
C352 C351 1.355 . S
C352 C354 1.419 . S
C353 C348 1.425 . S
C353 C350 1.409 . S
C353 C351 1.415 . S
C354 H344 0.930 . S
C354 C352 1.419 . S
C354 C355 1.362 . S
C355 H345 0.930 . S
C355 C348 1.409 . S
C355 C354 1.362 . S
H356 C362 0.930 . S
H357 C365 0.930 . S
H358 C366 0.930 . S
H359 C367 0.930 . S
H360 C370 0.930 . S
H361 C371 0.930 . S
C362 H356 0.930 . S
C362 C363 1.355 . S
C362 C364 1.415 . S
C363 C362 1.355 . S
C363 C365 1.419 . S
C364 C362 1.415 . S
C364 C369 1.425 . S
C364 C371 1.409 . S
C365 H357 0.930 . S
C365 C363 1.419 . S
C365 C366 1.362 . S
C366 H358 0.930 . S
C366 C365 1.362 . S
C366 C369 1.409 . S
C367 H359 0.930 . S
C367 C368 1.355 . S
C367 C369 1.415 . S
C368 C367 1.355 . S
C368 C370 1.419 . S
C369 C364 1.425 . S
C369 C366 1.409 . S
C369 C367 1.415 . S
C370 H360 0.930 . S
C370 C368 1.419 . S
C370 C371 1.362 . S
C371 H361 0.930 . S
C371 C364 1.409 . S
C371 C370 1.362 . S
H372 C378 0.930 . S
H373 C381 0.930 . S
H374 C382 0.930 . S
H375 C383 0.930 . S
H376 C386 0.930 . S
H377 C387 0.930 . S
C378 H372 0.930 . S
C378 C379 1.355 . S
C378 C380 1.415 . S
C379 C378 1.355 . S
C379 C381 1.419 . S
C380 C378 1.415 . S
C380 C385 1.425 . S
C380 C387 1.409 . S
C381 H373 0.930 . S
C381 C379 1.419 . S
C381 C382 1.362 . S
C382 H374 0.930 . S
C382 C381 1.362 . S
C382 C385 1.409 . S
C383 H375 0.930 . S
C383 C384 1.355 . S
C383 C385 1.415 . S
C384 C383 1.355 . S
C384 C386 1.419 . S
C385 C380 1.425 . S
C385 C382 1.409 . S
C385 C383 1.415 . S
C386 H376 0.930 . S
C386 C384 1.419 . S
C386 C387 1.362 . S
C387 H377 0.930 . S
C387 C380 1.409 . S
C387 C386 1.362 . S
H388 C394 0.930 . S
H389 C397 0.930 1_554 S
H390 C398 0.930 . S
H391 C399 0.930 . S
H392 C402 0.930 . S
H393 C403 0.930 . S
C394 H388 0.930 . S
C394 C395 1.355 . S
C394 C396 1.415 . S
C395 C394 1.355 . S
C395 C397 1.419 . S
C396 C394 1.415 . S
C396 C401 1.425 . S
C396 C403 1.409 . S
C397 H389 0.930 1_556 S
C397 C395 1.419 . S
C397 C398 1.362 . S
C398 H390 0.930 . S
C398 C397 1.362 . S
C398 C401 1.409 . S
C399 H391 0.930 . S
C399 C400 1.355 . S
C399 C401 1.415 . S
C400 C399 1.355 . S
C400 C402 1.419 . S
C401 C396 1.425 . S
C401 C398 1.409 . S
C401 C399 1.415 . S
C402 H392 0.930 . S
C402 C400 1.419 . S
C402 C403 1.362 . S
C403 H393 0.930 . S
C403 C396 1.409 . S
C403 C402 1.362 . S
H404 C410 0.930 . S
H405 C413 0.930 . S
H406 C414 0.930 . S
H407 C415 0.930 . S
H408 C418 0.930 . S
H409 C419 0.930 . S
C410 H404 0.930 . S
C410 C411 1.355 . S
C410 C412 1.415 . S
C411 C410 1.355 . S
C411 C413 1.419 . S
C412 C410 1.415 . S
C412 C417 1.425 . S
C412 C419 1.409 . S
C413 H405 0.930 . S
C413 C411 1.419 . S
C413 C414 1.362 . S
C414 H406 0.930 . S
C414 C413 1.362 . S
C414 C417 1.409 . S
C415 H407 0.930 . S
C415 C416 1.355 . S
C415 C417 1.415 . S
C416 C415 1.355 . S
C416 C418 1.419 . S
C417 C412 1.425 . S
C417 C414 1.409 . S
C417 C415 1.415 . S
C418 H408 0.930 . S
C418 C416 1.419 . S
C418 C419 1.362 . S
C419 H409 0.930 . S
C419 C412 1.409 . S
C419 C418 1.362 . S
H420 C426 0.930 . S
H421 C429 0.930 . S
H422 C430 0.930 . S
H423 C431 0.930 . S
H424 C434 0.930 . S
H425 C435 0.930 . S
C426 H420 0.930 . S
C426 C427 1.355 . S
C426 C428 1.415 . S
C427 C426 1.355 . S
C427 C429 1.419 . S
C428 C426 1.415 . S
C428 C433 1.425 . S
C428 C435 1.409 . S
C429 H421 0.930 . S
C429 C427 1.419 . S
C429 C430 1.362 . S
C430 H422 0.930 . S
C430 C429 1.362 . S
C430 C433 1.409 . S
C431 H423 0.930 . S
C431 C432 1.355 . S
C431 C433 1.415 . S
C432 C431 1.355 . S
C432 C434 1.419 . S
C433 C428 1.425 . S
C433 C430 1.409 . S
C433 C431 1.415 . S
C434 H424 0.930 . S
C434 C432 1.419 . S
C434 C435 1.362 . S
C435 H425 0.930 . S
C435 C428 1.409 . S
C435 C434 1.362 . S
C256 C139 1.656 . S
C251 C68 1.604 . S
C267 C11 1.597 . S
C272 C234 1.680 . S
C283 C30 1.625 . S
C288 C150 1.687 . S
C299 C49 1.606 . S
C304 C223 1.662 . S
C320 C134 1.451 . S
C315 C2 1.629 . S
C336 C227 1.770 . S
C331 C25 1.751 . S
C347 C40 1.695 . S
C352 C143 1.702 . S
C363 C59 1.671 . S
C368 C218 1.481 . S
C384 C229 1.476 . S
C379 C21 1.582 . S
C400 C145 1.423 . S
C395 C44 1.588 1_556 S
C416 C216 1.669 . S
C411 C63 1.670 . S
C427 C6 1.628 . S
C432 C132 1.636 . S
