# Generated by pormake.
# Topology llk, (3,12)-cn, num edge types: 1
# Building blocks:
#     Node 0, Type 0, BuildingBlock: BETDAH_clean_linker_0, # of connection points: 3
#     Node 1, Type 0, BuildingBlock: BETDAH_clean_linker_0, # of connection points: 3
#     Node 2, Type 0, BuildingBlock: BETDAH_clean_linker_0, # of connection points: 3
#     Node 3, Type 0, BuildingBlock: BETDAH_clean_linker_0, # of connection points: 3
#     Node 4, Type 0, BuildingBlock: BETDAH_clean_linker_0, # of connection points: 3
#     Node 5, Type 0, BuildingBlock: BETDAH_clean_linker_0, # of connection points: 3
#     Node 6, Type 0, BuildingBlock: BETDAH_clean_linker_0, # of connection points: 3
#     Node 7, Type 0, BuildingBlock: BETDAH_clean_linker_0, # of connection points: 3
#     Node 8, Type 0, BuildingBlock: BETDAH_clean_linker_0, # of connection points: 3
#     Node 9, Type 0, BuildingBlock: BETDAH_clean_linker_0, # of connection points: 3
#     Node 10, Type 0, BuildingBlock: BETDAH_clean_linker_0, # of connection points: 3
#     Node 11, Type 0, BuildingBlock: BETDAH_clean_linker_0, # of connection points: 3
#     Node 12, Type 0, BuildingBlock: BETDAH_clean_linker_0, # of connection points: 3
#     Node 13, Type 0, BuildingBlock: BETDAH_clean_linker_0, # of connection points: 3
#     Node 14, Type 0, BuildingBlock: BETDAH_clean_linker_0, # of connection points: 3
#     Node 15, Type 0, BuildingBlock: BETDAH_clean_linker_0, # of connection points: 3
#     Node 16, Type 0, BuildingBlock: BETDAH_clean_linker_0, # of connection points: 3
#     Node 17, Type 0, BuildingBlock: BETDAH_clean_linker_0, # of connection points: 3
#     Node 18, Type 0, BuildingBlock: BETDAH_clean_linker_0, # of connection points: 3
#     Node 19, Type 0, BuildingBlock: BETDAH_clean_linker_0, # of connection points: 3
#     Node 20, Type 0, BuildingBlock: BETDAH_clean_linker_0, # of connection points: 3
#     Node 21, Type 0, BuildingBlock: BETDAH_clean_linker_0, # of connection points: 3
#     Node 22, Type 0, BuildingBlock: BETDAH_clean_linker_0, # of connection points: 3
#     Node 23, Type 0, BuildingBlock: BETDAH_clean_linker_0, # of connection points: 3
#     Node 24, Type 1, BuildingBlock: QEWDON_clean_sbu_0, # of connection points: 12
#     Node 25, Type 1, BuildingBlock: QEWDON_clean_sbu_0, # of connection points: 12
#     Node 26, Type 1, BuildingBlock: QEWDON_clean_sbu_0, # of connection points: 12
#     Node 27, Type 1, BuildingBlock: QEWDON_clean_sbu_0, # of connection points: 12
#     Node 28, Type 1, BuildingBlock: QEWDON_clean_sbu_0, # of connection points: 12
#     Node 29, Type 1, BuildingBlock: QEWDON_clean_sbu_0, # of connection points: 12
#     Edge 30, Type (0, 1), BuildingBlock: XIVTED_clean_linker_0, # of connection points: 2
#     Edge 31, Type (0, 1), BuildingBlock: XIVTED_clean_linker_0, # of connection points: 2
#     Edge 32, Type (0, 1), BuildingBlock: XIVTED_clean_linker_0, # of connection points: 2
#     Edge 33, Type (0, 1), BuildingBlock: XIVTED_clean_linker_0, # of connection points: 2
#     Edge 34, Type (0, 1), BuildingBlock: XIVTED_clean_linker_0, # of connection points: 2
#     Edge 35, Type (0, 1), BuildingBlock: XIVTED_clean_linker_0, # of connection points: 2
#     Edge 36, Type (0, 1), BuildingBlock: XIVTED_clean_linker_0, # of connection points: 2
#     Edge 37, Type (0, 1), BuildingBlock: XIVTED_clean_linker_0, # of connection points: 2
#     Edge 38, Type (0, 1), BuildingBlock: XIVTED_clean_linker_0, # of connection points: 2
#     Edge 39, Type (0, 1), BuildingBlock: XIVTED_clean_linker_0, # of connection points: 2
#     Edge 40, Type (0, 1), BuildingBlock: XIVTED_clean_linker_0, # of connection points: 2
#     Edge 41, Type (0, 1), BuildingBlock: XIVTED_clean_linker_0, # of connection points: 2
#     Edge 42, Type (0, 1), BuildingBlock: XIVTED_clean_linker_0, # of connection points: 2
#     Edge 43, Type (0, 1), BuildingBlock: XIVTED_clean_linker_0, # of connection points: 2
#     Edge 44, Type (0, 1), BuildingBlock: XIVTED_clean_linker_0, # of connection points: 2
#     Edge 45, Type (0, 1), BuildingBlock: XIVTED_clean_linker_0, # of connection points: 2
#     Edge 46, Type (0, 1), BuildingBlock: XIVTED_clean_linker_0, # of connection points: 2
#     Edge 47, Type (0, 1), BuildingBlock: XIVTED_clean_linker_0, # of connection points: 2
#     Edge 48, Type (0, 1), BuildingBlock: XIVTED_clean_linker_0, # of connection points: 2
#     Edge 49, Type (0, 1), BuildingBlock: XIVTED_clean_linker_0, # of connection points: 2
#     Edge 50, Type (0, 1), BuildingBlock: XIVTED_clean_linker_0, # of connection points: 2
#     Edge 51, Type (0, 1), BuildingBlock: XIVTED_clean_linker_0, # of connection points: 2
#     Edge 52, Type (0, 1), BuildingBlock: XIVTED_clean_linker_0, # of connection points: 2
#     Edge 53, Type (0, 1), BuildingBlock: XIVTED_clean_linker_0, # of connection points: 2
#     Edge 54, Type (0, 1), BuildingBlock: XIVTED_clean_linker_0, # of connection points: 2
#     Edge 55, Type (0, 1), BuildingBlock: XIVTED_clean_linker_0, # of connection points: 2
#     Edge 56, Type (0, 1), BuildingBlock: XIVTED_clean_linker_0, # of connection points: 2
#     Edge 57, Type (0, 1), BuildingBlock: XIVTED_clean_linker_0, # of connection points: 2
#     Edge 58, Type (0, 1), BuildingBlock: XIVTED_clean_linker_0, # of connection points: 2
#     Edge 59, Type (0, 1), BuildingBlock: XIVTED_clean_linker_0, # of connection points: 2
#     Edge 60, Type (0, 1), BuildingBlock: XIVTED_clean_linker_0, # of connection points: 2
#     Edge 61, Type (0, 1), BuildingBlock: XIVTED_clean_linker_0, # of connection points: 2
#     Edge 62, Type (0, 1), BuildingBlock: XIVTED_clean_linker_0, # of connection points: 2
#     Edge 63, Type (0, 1), BuildingBlock: XIVTED_clean_linker_0, # of connection points: 2
#     Edge 64, Type (0, 1), BuildingBlock: XIVTED_clean_linker_0, # of connection points: 2
#     Edge 65, Type (0, 1), BuildingBlock: XIVTED_clean_linker_0, # of connection points: 2
#     Edge 66, Type (0, 1), BuildingBlock: XIVTED_clean_linker_0, # of connection points: 2
#     Edge 67, Type (0, 1), BuildingBlock: XIVTED_clean_linker_0, # of connection points: 2
#     Edge 68, Type (0, 1), BuildingBlock: XIVTED_clean_linker_0, # of connection points: 2
#     Edge 69, Type (0, 1), BuildingBlock: XIVTED_clean_linker_0, # of connection points: 2
#     Edge 70, Type (0, 1), BuildingBlock: XIVTED_clean_linker_0, # of connection points: 2
#     Edge 71, Type (0, 1), BuildingBlock: XIVTED_clean_linker_0, # of connection points: 2
#     Edge 72, Type (0, 1), BuildingBlock: XIVTED_clean_linker_0, # of connection points: 2
#     Edge 73, Type (0, 1), BuildingBlock: XIVTED_clean_linker_0, # of connection points: 2
#     Edge 74, Type (0, 1), BuildingBlock: XIVTED_clean_linker_0, # of connection points: 2
#     Edge 75, Type (0, 1), BuildingBlock: XIVTED_clean_linker_0, # of connection points: 2
#     Edge 76, Type (0, 1), BuildingBlock: XIVTED_clean_linker_0, # of connection points: 2
#     Edge 77, Type (0, 1), BuildingBlock: XIVTED_clean_linker_0, # of connection points: 2
#     Edge 78, Type (0, 1), BuildingBlock: XIVTED_clean_linker_0, # of connection points: 2
#     Edge 79, Type (0, 1), BuildingBlock: XIVTED_clean_linker_0, # of connection points: 2
#     Edge 80, Type (0, 1), BuildingBlock: XIVTED_clean_linker_0, # of connection points: 2
#     Edge 81, Type (0, 1), BuildingBlock: XIVTED_clean_linker_0, # of connection points: 2
#     Edge 82, Type (0, 1), BuildingBlock: XIVTED_clean_linker_0, # of connection points: 2
#     Edge 83, Type (0, 1), BuildingBlock: XIVTED_clean_linker_0, # of connection points: 2
#     Edge 84, Type (0, 1), BuildingBlock: XIVTED_clean_linker_0, # of connection points: 2
#     Edge 85, Type (0, 1), BuildingBlock: XIVTED_clean_linker_0, # of connection points: 2
#     Edge 86, Type (0, 1), BuildingBlock: XIVTED_clean_linker_0, # of connection points: 2
#     Edge 87, Type (0, 1), BuildingBlock: XIVTED_clean_linker_0, # of connection points: 2
#     Edge 88, Type (0, 1), BuildingBlock: XIVTED_clean_linker_0, # of connection points: 2
#     Edge 89, Type (0, 1), BuildingBlock: XIVTED_clean_linker_0, # of connection points: 2
#     Edge 90, Type (0, 1), BuildingBlock: XIVTED_clean_linker_0, # of connection points: 2
#     Edge 91, Type (0, 1), BuildingBlock: XIVTED_clean_linker_0, # of connection points: 2
#     Edge 92, Type (0, 1), BuildingBlock: XIVTED_clean_linker_0, # of connection points: 2
#     Edge 93, Type (0, 1), BuildingBlock: XIVTED_clean_linker_0, # of connection points: 2
#     Edge 94, Type (0, 1), BuildingBlock: XIVTED_clean_linker_0, # of connection points: 2
#     Edge 95, Type (0, 1), BuildingBlock: XIVTED_clean_linker_0, # of connection points: 2
#     Edge 96, Type (0, 1), BuildingBlock: XIVTED_clean_linker_0, # of connection points: 2
#     Edge 97, Type (0, 1), BuildingBlock: XIVTED_clean_linker_0, # of connection points: 2
#     Edge 98, Type (0, 1), BuildingBlock: XIVTED_clean_linker_0, # of connection points: 2
#     Edge 99, Type (0, 1), BuildingBlock: XIVTED_clean_linker_0, # of connection points: 2
#     Edge 100, Type (0, 1), BuildingBlock: XIVTED_clean_linker_0, # of connection points: 2
#     Edge 101, Type (0, 1), BuildingBlock: XIVTED_clean_linker_0, # of connection points: 2
# Relax obj value: 0.093
# Max RMSD: 0.167
# Mean RMSD: 0.132
data_MOF--net-llk--node1-QEWDON_clean_sbu_0--node2-BETDAH_clean_linker_0--edge1-XIVTED_clean_linker_0
_symmetry_space_group_name_H-M    P1
_symmetry_Int_Tables_number       1
_symmetry_cell_setting            triclinic
loop_
_symmetry_equiv_pos_as_xyz
'x, y, z'
_cell_length_a     46.271514
_cell_length_b     48.159516
_cell_length_c     47.823413
_cell_angle_alpha  90.055939
_cell_angle_beta   89.996365
_cell_angle_gamma 89.579799
loop_
_atom_site_label
_atom_site_type_symbol
_atom_site_fract_x
_atom_site_fract_y
_atom_site_fract_z
_atom_type_partial_charge
H0 H 0.05803 0.26834 0.35479 0.0
H1 H 0.06789 0.30488 0.2736 0.0
H2 H 0.05563 0.21675 0.28132 0.0
C3 C 0.0596 0.26605 0.33232 0.0
C4 C 0.05659 0.23956 0.32034 0.0
C5 C 0.0633 0.28977 0.31567 0.0
C6 C 0.0648 0.28669 0.28651 0.0
C7 C 0.06218 0.26035 0.27401 0.0
C8 C 0.0584 0.23688 0.29106 0.0
N9 N 0.06223 0.25702 0.24442 0.0
C10 C 0.06074 0.27923 0.22579 0.0
H11 H 0.67833 0.09848 0.2112 0.0
H12 H 0.75727 0.10749 0.25654 0.0
H13 H 0.75986 0.08871 0.16855 0.0
C14 C 0.70173 0.09936 0.2112 0.0
C15 C 0.71712 0.09321 0.18659 0.0
C16 C 0.71612 0.10356 0.23653 0.0
C17 C 0.74631 0.10427 0.2368 0.0
C18 C 0.76227 0.09931 0.21223 0.0
C19 C 0.74755 0.09409 0.18708 0.0
N20 N 0.7929 0.09675 0.21314 0.0
C21 C 0.80724 0.09122 0.23813 0.0
H22 H 0.00952 0.67556 0.263 0.0
H23 H 0.01343 0.75602 0.30164 0.0
H24 H -0.00249 0.74925 0.21333 0.0
C25 C 0.00831 0.69798 0.26129 0.0
C26 C 0.00287 0.71024 0.23516 0.0
C27 C 0.01208 0.71433 0.28533 0.0
C28 C 0.01047 0.74339 0.28312 0.0
C29 C 0.00557 0.75598 0.25697 0.0
C30 C 0.00178 0.73933 0.23325 0.0
N31 N 0.00435 0.78525 0.25363 0.0
C32 C 0.00476 0.80405 0.27566 0.0
H33 H 0.23356 0.99511 0.30606 0.0
H34 H 0.29817 0.95847 0.25265 0.0
H35 H 0.20948 0.96217 0.22585 0.0
C36 C 0.23968 0.98577 0.28626 0.0
C37 C 0.21829 0.98031 0.26623 0.0
C38 C 0.26845 0.97752 0.2818 0.0
C39 C 0.27596 0.96472 0.25634 0.0
C40 C 0.25471 0.9594 0.23599 0.0
C41 C 0.22589 0.9667 0.24133 0.0
N42 N 0.26159 0.94634 0.2102 0.0
C43 C 0.28904 0.94697 0.19847 0.0
H44 H 0.98049 0.76883 0.67677 0.0
H45 H -0.00291 0.71647 0.7478 0.0
H46 H 0.98826 0.8048 0.75871 0.0
C47 C 0.98344 0.7665 0.69911 0.0
C48 C 0.98346 0.79019 0.71621 0.0
C49 C 0.98854 0.73988 0.71018 0.0
C50 C -0.00733 0.73685 0.73917 0.0
C51 C -0.00738 0.76038 0.7567 0.0
C52 C 0.98808 0.78682 0.74507 0.0
N53 N -0.00184 0.75858 0.78589 0.0
C54 C 0.00068 0.73404 0.80108 0.0
H55 H 0.27522 0.02461 0.69151 0.0
H56 H 0.30679 0.00186 0.77242 0.0
H57 H 0.21681 0.99076 0.75261 0.0
C58 C 0.271 0.01721 0.71251 0.0
C59 C 0.24306 0.00858 0.71977 0.0
C60 C 0.29398 0.01456 0.73142 0.0
C61 C 0.28881 0.00382 0.75808 0.0
C62 C 0.26095 0.99531 0.766 0.0
C63 C 0.23822 0.99751 0.74664 0.0
N64 N 0.25558 0.98424 0.79309 0.0
C65 C 0.27668 0.98444 0.81383 0.0
H66 H 0.01887 0.33956 0.74132 0.0
H67 H 0.98901 0.27166 0.69123 0.0
H68 H 0.9789 0.26916 0.78064 0.0
C69 C 0.00935 0.3191 0.73998 0.0
C70 C -0.00016 0.30582 0.76442 0.0
C71 C 0.00546 0.30694 0.71358 0.0
C72 C 0.992 0.28101 0.71162 0.0
C73 C 0.98248 0.26727 0.73588 0.0
C74 C 0.98621 0.27989 0.76207 0.0
N75 N 0.96908 0.24082 0.73459 0.0
C76 C 0.97022 0.22391 0.71103 0.0
H77 H 0.80473 0.09342 0.7173 0.0
H78 H 0.73253 0.11474 0.76981 0.0
H79 H 0.81966 0.12308 0.80072 0.0
C80 C 0.79625 0.10099 0.73706 0.0
C81 C 0.81546 0.10808 0.75844 0.0
C82 C 0.76635 0.10333 0.74091 0.0
C83 C 0.75566 0.11304 0.76664 0.0
C84 C 0.77489 0.12016 0.78836 0.0
C85 C 0.80481 0.11793 0.784 0.0
N86 N 0.7647 0.12891 0.81495 0.0
C87 C 0.73871 0.11971 0.82597 0.0
H88 H 0.31873 0.26996 0.02244 0.0
H89 H 0.23922 0.31029 0.04536 0.0
H90 H 0.24548 0.22082 0.04599 0.0
C91 C 0.29623 0.2686 0.02866 0.0
C92 C 0.28397 0.24256 0.03328 0.0
C93 C 0.28038 0.29298 0.03328 0.0
C94 C 0.25147 0.29134 0.04186 0.0
C95 C 0.23859 0.26518 0.04599 0.0
C96 C 0.25522 0.24092 0.04246 0.0
N97 N 0.20897 0.26274 0.05332 0.0
C98 C 0.1887 0.28303 0.04645 0.0
H99 H 0.299 0.77453 0.01606 0.0
H100 H 0.22833 0.73312 0.05561 0.0
H101 H 0.22701 0.82224 0.04784 0.0
C102 C 0.278 0.77548 0.02612 0.0
C103 C 0.26472 0.80136 0.03093 0.0
C104 C 0.26505 0.75088 0.03519 0.0
C105 C 0.23824 0.7522 0.04867 0.0
C106 C 0.22397 0.77785 0.05261 0.0
C107 C 0.23775 0.80244 0.04451 0.0
N108 N 0.19537 0.77905 0.06348 0.0
C109 C 0.17715 0.7563 0.06134 0.0
H110 H 0.82503 0.33615 0.01507 0.0
H111 H 0.77437 0.26186 0.00843 0.0
H112 H 0.86727 0.25653 0.01036 0.0
C113 C 0.82371 0.31373 0.01349 0.0
C114 C 0.84923 0.29786 0.01287 0.0
C115 C 0.79657 0.30095 0.0121 0.0
C116 C 0.79523 0.27184 0.00959 0.0
C117 C 0.82081 0.25574 0.00895 0.0
C118 C 0.84761 0.26891 0.01083 0.0
N119 N 0.82055 0.22635 0.00635 0.0
C120 C 0.79565 0.21042 0.0057 0.0
H121 H 0.76556 0.68172 0.96437 0.0
H122 H 0.73714 0.76463 0.98068 0.0
H123 H 0.82822 0.74629 0.97885 0.0
C124 C 0.77101 0.70314 0.96862 0.0
C125 C 0.80007 0.71108 0.97163 0.0
C126 C 0.7485 0.72226 0.97269 0.0
C127 C 0.75485 0.75013 0.97754 0.0
C128 C 0.78373 0.75906 0.97864 0.0
C129 C 0.80617 0.7394 0.97628 0.0
N130 N 0.79061 0.7875 0.98282 0.0
C131 C 0.76939 0.80809 0.98303 0.0
H132 H 0.52233 0.7614 0.80925 0.0
H133 H 0.51437 0.80312 0.73047 0.0
H134 H 0.50926 0.71382 0.73412 0.0
C135 C 0.51994 0.76043 0.78671 0.0
C136 C 0.51626 0.7346 0.77361 0.0
C137 C 0.51895 0.78514 0.77128 0.0
C138 C 0.51501 0.78393 0.74226 0.0
C139 C 0.51192 0.75816 0.72861 0.0
C140 C 0.51201 0.73363 0.74451 0.0
N141 N 0.50877 0.75641 0.69907 0.0
C142 C 0.51243 0.77917 0.68156 0.0
H143 H 0.22887 0.55924 0.72889 0.0
H144 H 0.28632 0.58741 0.79346 0.0
H145 H 0.31155 0.59269 0.70684 0.0
C146 C 0.24948 0.5678 0.73526 0.0
C147 C 0.26966 0.575 0.71476 0.0
C148 C 0.25505 0.57256 0.76365 0.0
C149 C 0.28175 0.58393 0.77153 0.0
C150 C 0.3024 0.59091 0.75104 0.0
C151 C 0.29586 0.58709 0.72266 0.0
N152 N 0.3299 0.60161 0.75834 0.0
C153 C 0.34322 0.59602 0.78379 0.0
H154 H 0.45549 0.15806 0.75339 0.0
H155 H 0.44354 0.22837 0.80782 0.0
H156 H 0.43777 0.23873 0.71866 0.0
C157 C 0.45034 0.17988 0.75627 0.0
C158 C 0.44645 0.19687 0.73272 0.0
C159 C 0.44949 0.19106 0.78344 0.0
C160 C 0.44371 0.21954 0.78698 0.0
C161 C 0.43933 0.23679 0.76359 0.0
C162 C 0.44054 0.22528 0.73664 0.0
N163 N 0.43471 0.26588 0.76634 0.0
C164 C 0.44168 0.28112 0.79013 0.0
H165 H 0.70783 0.49885 0.84321 0.0
H166 H 0.77447 0.51256 0.78263 0.0
H167 H 0.68511 0.51369 0.75716 0.0
C168 C 0.71416 0.50267 0.82172 0.0
C169 C 0.69296 0.5053 0.80089 0.0
C170 C 0.74347 0.50533 0.81518 0.0
C171 C 0.75173 0.51042 0.78747 0.0
C172 C 0.73069 0.51364 0.76641 0.0
C173 C 0.70134 0.51119 0.77331 0.0
N174 N 0.73839 0.51968 0.73831 0.0
C175 C 0.76687 0.5216 0.72928 0.0
H176 H 0.48006 0.25939 0.18035 0.0
H177 H 0.50202 0.21902 0.25726 0.0
H178 H 0.51178 0.30727 0.25002 0.0
C179 C 0.48759 0.26081 0.20168 0.0
C180 C 0.49535 0.28681 0.21284 0.0
C181 C 0.49087 0.23621 0.21717 0.0
C182 C 0.49985 0.2379 0.24514 0.0
C183 C 0.50686 0.26365 0.25718 0.0
C184 C 0.50499 0.28784 0.24084 0.0
N185 N 0.51687 0.26569 0.28527 0.0
C186 C 0.51692 0.24346 0.3039 0.0
H187 H 0.75125 0.49525 0.19177 0.0
H188 H 0.78282 0.49438 0.27622 0.0
H189 H 0.69369 0.47548 0.25951 0.0
C190 C 0.74743 0.49206 0.2139 0.0
C191 C 0.71971 0.48472 0.22317 0.0
C192 C 0.77025 0.49559 0.23291 0.0
C193 C 0.76523 0.49154 0.26157 0.0
C194 C 0.73748 0.48446 0.27125 0.0
C195 C 0.71495 0.4811 0.25196 0.0
N196 N 0.73141 0.4808 0.30016 0.0
C197 C 0.75184 0.48412 0.32119 0.0
H198 H 0.57383 0.83764 0.24236 0.0
H199 H 0.5772 0.7612 0.19625 0.0
H200 H 0.57761 0.75984 0.28633 0.0
C201 C 0.57578 0.81519 0.24203 0.0
C202 C 0.57653 0.80062 0.26742 0.0
C203 C 0.57568 0.80116 0.21631 0.0
C204 C 0.57684 0.77203 0.2161 0.0
C205 C 0.57753 0.75692 0.24128 0.0
C206 C 0.57731 0.77138 0.2669 0.0
N207 N 0.57802 0.72733 0.24136 0.0
C208 C 0.57346 0.7113 0.21746 0.0
H209 H 0.31258 0.60194 0.17482 0.0
H210 H 0.25322 0.59703 0.24319 0.0
H211 H 0.34405 0.60858 0.25922 0.0
C212 C 0.3084 0.60364 0.19708 0.0
C213 C 0.33158 0.60664 0.21572 0.0
C214 C 0.28028 0.59976 0.20691 0.0
C215 C 0.27507 0.60013 0.23576 0.0
C216 C 0.29798 0.60379 0.2548 0.0
C217 C 0.32622 0.60689 0.24463 0.0
N218 N 0.29334 0.60305 0.28416 0.0
C219 C 0.26706 0.59535 0.29577 0.0
H220 H 0.84563 0.75684 0.5028 0.0
H221 H 0.76447 0.80014 0.49555 0.0
H222 H 0.76954 0.71293 0.47676 0.0
C223 C 0.8228 0.75681 0.49773 0.0
C224 C 0.80967 0.73191 0.48947 0.0
C225 C 0.80666 0.78152 0.50006 0.0
C226 C 0.77707 0.78123 0.49345 0.0
C227 C 0.7636 0.7565 0.48494 0.0
C228 C 0.77999 0.73197 0.48318 0.0
N229 N 0.73364 0.75555 0.47837 0.0
C230 C 0.71565 0.77883 0.47853 0.0
H231 H 0.83823 0.26074 0.48397 0.0
H232 H 0.75218 0.22998 0.49634 0.0
H233 H 0.76935 0.31704 0.50604 0.0
C234 C 0.81554 0.26452 0.48826 0.0
C235 C 0.80612 0.29162 0.49437 0.0
C236 C 0.79627 0.24211 0.489 0.0
C237 C 0.76708 0.24719 0.49559 0.0
C238 C 0.75732 0.27433 0.50161 0.0
C239 C 0.77685 0.29634 0.50062 0.0
N240 N 0.72838 0.28012 0.50981 0.0
C241 C 0.70786 0.25972 0.51439 0.0
H242 H 0.26114 0.84923 0.53016 0.0
H243 H 0.21312 0.77514 0.54685 0.0
H244 H 0.30607 0.77362 0.55152 0.0
C245 C 0.26077 0.82739 0.53565 0.0
C246 C 0.28689 0.81307 0.54009 0.0
C247 C 0.23415 0.8139 0.53818 0.0
C248 C 0.23369 0.78555 0.54489 0.0
C249 C 0.2597 0.77102 0.55002 0.0
C250 C 0.28611 0.78497 0.54791 0.0
N251 N 0.25999 0.74242 0.55728 0.0
C252 C 0.23676 0.72497 0.55235 0.0
H253 H 0.2521 0.15908 0.49563 0.0
H254 H 0.21414 0.23958 0.50699 0.0
H255 H 0.30626 0.23159 0.49787 0.0
C256 C 0.25498 0.18121 0.49825 0.0
C257 C 0.28272 0.19281 0.49647 0.0
C258 C 0.2304 0.19784 0.5027 0.0
C259 C 0.23321 0.22677 0.50389 0.0
C260 C 0.26067 0.23896 0.50178 0.0
C261 C 0.28523 0.22191 0.49857 0.0
N262 N 0.26444 0.26821 0.50311 0.0
C263 C 0.24183 0.28742 0.50239 0.0
Zn264 Zn 0.93009 0.99259 0.44395 0.0
Zn265 Zn 0.93855 0.05612 0.46213 0.0
O266 O 0.95869 0.01923 0.46089 0.0
H267 H 0.97487 0.01387 0.47251 0.0
C268 C 0.90557 0.95528 0.5642 0.0
O269 O 0.89783 0.97912 0.55304 0.0
Zn270 Zn 0.04981 0.04845 0.53366 0.0
Zn271 Zn 0.03446 0.98548 0.55374 0.0
O272 O 0.01777 0.02035 0.53609 0.0
H273 H 0.00119 0.02051 0.52381 0.0
Zn274 Zn 0.94863 0.99199 0.58575 0.0
O275 O 0.9498 0.01637 0.55111 0.0
Zn276 Zn 0.9532 0.05528 0.56426 0.0
H277 H 0.94704 0.01044 0.53199 0.0
Zn278 Zn 0.0404 0.97088 0.43856 0.0
O279 O 0.03761 0.00591 0.46195 0.0
H280 H 0.03034 0.00626 0.48087 0.0
Zn281 Zn 0.03804 0.03822 0.43584 0.0
C282 C 0.07366 0.94035 0.4807 0.0
O283 O 0.06955 0.96368 0.49444 0.0
O284 O 0.89873 0.01327 0.42159 0.0
O285 O 0.90206 0.05644 0.43789 0.0
O286 O 0.0747 0.99212 0.57002 0.0
O287 O 0.08516 0.03504 0.55631 0.0
O288 O 0.9449 0.01395 0.62294 0.0
O289 O 0.94813 0.057 0.60635 0.0
C290 C 0.98901 0.07977 0.4358 0.0
O291 O 0.05041 0.97951 0.39747 0.0
O292 O 0.04941 0.02576 0.39668 0.0
O293 O 0.00933 0.95864 0.57771 0.0
C294 C 0.89027 0.03851 0.42187 0.0
O295 O 0.9465 0.95681 0.42554 0.0
C296 C 0.01071 0.08721 0.55956 0.0
O297 O 0.9272 0.95463 0.58058 0.0
C298 C 0.09162 0.01283 0.56966 0.0
O299 O 0.06275 0.93772 0.45645 0.0
C300 C 0.91759 0.07835 0.51918 0.0
O301 O 0.96375 0.08525 0.44466 0.0
O302 O -0.00145 0.05512 0.43865 0.0
C303 C 0.94532 0.04017 0.62676 0.0
O304 O 0.03659 0.08469 0.55097 0.0
O305 O -0.00669 0.06764 0.55403 0.0
C306 C 0.06897 0.07033 0.47581 0.0
O307 O 0.92187 0.07804 0.54546 0.0
O308 O 0.93416 0.06403 0.50354 0.0
C309 C 0.0535 0.00243 0.38451 0.0
O310 O 0.06563 0.06707 0.44965 0.0
O311 O 0.05656 0.05342 0.49223 0.0
C312 C 0.01143 0.9614 0.60409 0.0
O313 O 0.02687 0.98196 0.61403 0.0
C314 C 0.96698 0.95892 0.40798 0.0
O315 O 0.97775 0.98356 0.4028 0.0
Zn316 Zn 0.4688 0.0475 0.04129 0.0
Zn317 Zn 0.47123 0.0583 0.97518 0.0
O318 O 0.47479 0.028 0.00383 0.0
H319 H 0.48159 0.00917 0.00122 0.0
C320 C 0.52402 0.09185 0.07651 0.0
O321 O 0.51049 0.093 0.05238 0.0
Zn322 Zn 0.55545 0.96696 0.94263 0.0
Zn323 Zn 0.55878 0.9731 0.0091 0.0
O324 O 0.53836 0.98796 0.9746 0.0
H325 H 0.52517 0.00353 0.97319 0.0
Zn326 Zn 0.57087 0.06677 0.04255 0.0
O327 O 0.5491 0.05215 0.00911 0.0
Zn328 Zn 0.57368 0.06044 0.97566 0.0
H329 H 0.5335 0.03898 0.00999 0.0
Zn330 Zn 0.47773 0.94553 0.01658 0.0
O331 O 0.49679 0.95002 0.97871 0.0
H332 H 0.49026 0.94744 0.99768 0.0
Zn333 Zn 0.46491 0.95904 0.95244 0.0
C334 C 0.52056 0.92691 0.05944 0.0
O335 O 0.53114 0.95201 0.05678 0.0
O336 O 0.44441 0.0831 0.03685 0.0
O337 O 0.44636 0.08954 0.99087 0.0
O338 O 0.58455 0.93895 0.00194 0.0
O339 O 0.58316 0.93644 0.95559 0.0
O340 O 0.60918 0.08574 0.03275 0.0
O341 O 0.61245 0.07781 0.98702 0.0
C342 C 0.44765 0.0186 0.93534 0.0
O343 O 0.43411 0.93785 0.0131 0.0
O344 O 0.42724 0.94186 0.9672 0.0
O345 O 0.57831 0.00069 0.03598 0.0
C346 C 0.43726 0.09665 0.01504 0.0
O347 O 0.45572 0.02429 0.07543 0.0
C348 C 0.5863 0.01744 0.92883 0.0
O349 O 0.54915 0.08109 0.0776 0.0
C350 C 0.59265 0.92777 0.9791 0.0
O351 O 0.49869 0.91999 0.04505 0.0
C352 C 0.52502 0.08625 0.94909 0.0
O353 O 0.4505 0.04418 0.94118 0.0
O354 O 0.4613 0.00089 0.95019 0.0
C355 C 0.62283 0.08761 0.00971 0.0
O356 O 0.57981 0.99336 0.91989 0.0
O357 O 0.57643 0.02497 0.95259 0.0
C358 C 0.50178 0.94017 0.90579 0.0
O359 O 0.55236 0.08709 0.95087 0.0
O360 O 0.51154 0.07101 0.96636 0.0
C361 C 0.41795 0.93587 0.99164 0.0
O362 O 0.47612 0.94267 0.91522 0.0
O363 O 0.52306 0.95014 0.91934 0.0
C364 C 0.60379 0.00868 0.03032 0.0
O365 O 0.61587 0.00066 0.00676 0.0
C366 C 0.44716 0.99942 0.07287 0.0
O367 O 0.44896 0.98733 0.0483 0.0
Zn368 Zn 0.96555 0.47125 0.9622 0.0
Zn369 Zn 0.95969 0.53744 0.96565 0.0
O370 O 0.98922 0.50689 0.96161 0.0
H371 H 0.00928 0.50799 0.96699 0.0
C372 C -0.00688 0.43722 0.05198 0.0
O373 O 0.00169 0.45536 0.03328 0.0
Zn374 Zn 0.0715 0.55245 0.05 0.0
Zn375 Zn 0.08374 0.48763 0.064 0.0
O376 O 0.05206 0.5152 0.05312 0.0
H377 H 0.03382 0.51038 0.04462 0.0
Zn378 Zn 0.98517 0.48795 0.08372 0.0
O379 O 0.97077 0.50929 0.04951 0.0
Zn380 Zn 0.9699 0.54619 0.06804 0.0
H381 H 0.95676 0.50214 0.03641 0.0
Zn382 Zn 0.06784 0.49134 0.93722 0.0
O383 O 0.06545 0.51971 0.96841 0.0
H384 H 0.07183 0.5167 0.9874 0.0
Zn385 Zn 0.05986 0.55528 0.94762 0.0
C386 C 0.07377 0.44268 0.97384 0.0
O387 O 0.05862 0.45852 0.99087 0.0
O388 O 0.92326 0.4785 0.95119 0.0
O389 O 0.92041 0.52457 0.95197 0.0
O390 O 0.12049 0.50716 0.07783 0.0
O391 O 0.11252 0.55088 0.06467 0.0
O392 O 0.96181 0.49996 0.11871 0.0
O393 O 0.94918 0.54249 0.10529 0.0
C394 C -0.0035 0.57651 0.93606 0.0
O395 O 0.08906 0.50783 0.90314 0.0
O396 O 0.08202 0.55298 0.91083 0.0
O397 O 0.07443 0.4492 0.08225 0.0
C398 C 0.9091 0.50093 0.94731 0.0
O399 O 0.9811 0.43582 0.94231 0.0
C400 C 0.02473 0.57813 0.08 0.0
O401 O 0.98689 0.44568 0.07644 0.0
C402 C 0.12853 0.53236 0.07598 0.0
O403 O 0.07977 0.45158 0.94951 0.0
C404 C 0.94723 0.56997 0.01727 0.0
O405 O 0.97057 0.57065 0.94238 0.0
O406 O 0.01651 0.56048 0.94481 0.0
C407 C 0.94805 0.52262 0.12293 0.0
O408 O 0.05133 0.58046 0.07432 0.0
O409 O 0.01123 0.55752 0.07013 0.0
C410 C 0.08001 0.58499 0.99646 0.0
O411 O 0.94906 0.57365 0.04352 0.0
O412 O 0.95851 0.5484 0.00635 0.0
C413 C 0.09278 0.53315 0.89631 0.0
O414 O 0.07757 0.58609 0.97002 0.0
O415 O 0.06971 0.5643 0.00948 0.0
C416 C 0.05791 0.4475 0.10343 0.0
O417 O 0.04527 0.47018 0.11284 0.0
C418 C 0.00248 0.4358 0.92565 0.0
O419 O 0.01733 0.45872 0.9224 0.0
Zn420 Zn 0.46766 0.47755 0.98746 0.0
Zn421 Zn 0.47549 0.4734 0.05451 0.0
O422 O 0.48455 0.49688 0.02115 0.0
H423 H 0.50006 0.51017 0.02055 0.0
C424 C 0.51739 0.40972 0.93664 0.0
O425 O 0.51041 0.43619 0.93555 0.0
Zn426 Zn 0.55539 0.55871 0.03819 0.0
Zn427 Zn 0.53857 0.56311 0.97714 0.0
O428 O 0.5503 0.53346 0.00534 0.0
H429 H 0.56168 0.51717 0.00086 0.0
Zn430 Zn 0.5602 0.42861 0.97958 0.0
O431 O 0.54148 0.4496 0.01146 0.0
Zn432 Zn 0.5709 0.45488 0.04221 0.0
H433 H 0.52308 0.45903 0.00988 0.0
Zn434 Zn 0.44605 0.57314 0.96783 0.0
O435 O 0.47515 0.56464 -0.00146 0.0
H436 H 0.49255 0.55386 0.99572 0.0
Zn437 Zn 0.45468 0.56913 0.03522 0.0
C438 C 0.48406 0.59968 0.92641 0.0
O439 O 0.5012 0.60139 0.94823 0.0
O440 O 0.43895 0.44736 -0.00104 0.0
O441 O 0.44417 0.44515 0.04524 0.0
O442 O 0.56159 0.59892 0.98371 0.0
O443 O 0.5789 0.59207 0.02654 0.0
O444 O 0.60127 0.41653 0.98981 0.0
O445 O 0.60952 0.43534 0.03168 0.0
C446 C 0.45509 0.52372 0.08013 0.0
O447 O 0.40811 0.58945 0.98304 0.0
O448 O 0.41389 0.58491 0.029 0.0
O449 O 0.53926 0.55106 0.93567 0.0
C450 C 0.4319 0.43733 0.02263 0.0
O451 O 0.45562 0.50134 0.95314 0.0
C452 C 0.57972 0.51143 0.07008 0.0
O453 O 0.53686 0.40177 0.95369 0.0
C454 C 0.57758 0.6063 0.00405 0.0
O455 O 0.45963 0.58816 0.9292 0.0
C456 C 0.52792 0.4406 0.08129 0.0
O457 O 0.4616 0.49859 0.0856 0.0
O458 O 0.45652 0.53175 0.05478 0.0
C459 C 0.61775 0.42062 0.01074 0.0
O460 O 0.57465 0.53749 0.06971 0.0
O461 O 0.5727 0.49671 0.04901 0.0
C462 C 0.50388 0.59256 0.06159 0.0
O463 O 0.55474 0.43687 0.07689 0.0
O464 O 0.514 0.4561 0.06444 0.0
C465 C 0.3988 0.59246 0.00793 0.0
O466 O 0.47679 0.596 0.0591 0.0
O467 O 0.51553 0.57262 0.04806 0.0
C468 C 0.53662 0.52605 0.92769 0.0
O469 O 0.53062 0.50686 0.94627 0.0
C470 C 0.43201 0.51486 0.95502 0.0
O471 O 0.41737 0.51384 0.97854 0.0
Zn472 Zn 0.9759 0.48306 0.46687 0.0
Zn473 Zn 0.96347 0.54841 0.4743 0.0
O474 O -0.00519 0.5198 0.47477 0.0
H475 H 0.0124 0.52156 0.48546 0.0
C476 C 0.93572 0.4501 0.53975 0.0
O477 O 0.92962 0.47513 0.53047 0.0
Zn478 Zn 0.07846 0.55757 0.54781 0.0
Zn479 Zn 0.09218 0.49253 0.54959 0.0
O480 O 0.05913 0.52075 0.54983 0.0
H481 H 0.0395 0.51707 0.5441 0.0
Zn482 Zn 0.97087 0.48284 0.57715 0.0
O483 O 0.97549 0.51486 0.55042 0.0
Zn484 Zn 0.97498 0.54927 0.57362 0.0
H485 H 0.98379 0.51304 0.53198 0.0
Zn486 Zn 0.07835 0.49 0.44055 0.0
O487 O 0.06891 0.51994 0.46944 0.0
H488 H 0.06689 0.51727 0.48936 0.0
Zn489 Zn 0.06279 0.55521 0.44766 0.0
C490 C 0.10947 0.44951 0.47653 0.0
O491 O 0.11069 0.4709 0.49357 0.0
O492 O 0.93373 0.48721 0.45351 0.0
O493 O 0.92595 0.53265 0.45846 0.0
O494 O 0.13154 0.50961 0.56048 0.0
O495 O 0.1199 0.55445 0.56151 0.0
O496 O 0.95243 0.49558 0.61421 0.0
O497 O 0.95743 0.54146 0.61204 0.0
C498 C 0.00181 0.58313 0.4422 0.0
O499 O 0.09559 0.50699 0.40472 0.0
O500 O 0.08099 0.55089 0.40905 0.0
O501 O 0.0835 0.45464 0.56813 0.0
C502 C 0.91737 0.50851 0.45119 0.0
O503 O 0.00114 0.45384 0.44633 0.0
C504 C 0.03064 0.58346 0.57941 0.0
O505 O 0.95361 0.44733 0.55974 0.0
C506 C 0.13823 0.53485 0.565 0.0
O507 O 0.09636 0.45217 0.45331 0.0
C508 C 0.94489 0.57695 0.52896 0.0
O509 O 0.97581 0.58049 0.45029 0.0
O510 O 0.01999 0.56444 0.4493 0.0
C511 C 0.94873 0.51969 0.62468 0.0
O512 O 0.05681 0.58555 0.57163 0.0
O513 O 0.01653 0.56201 0.57241 0.0
C514 C 0.08907 0.58751 0.49189 0.0
O515 O 0.94825 0.57709 0.5553 0.0
O516 O 0.95985 0.56 0.51455 0.0
C517 C 0.09419 0.53179 0.3955 0.0
O518 O 0.0846 0.58627 0.46574 0.0
O519 O 0.07783 0.5689 0.50723 0.0
C520 C 0.05907 0.44287 0.56642 0.0
O521 O 0.03855 0.45441 0.5513 0.0
C522 C 0.00746 0.45854 0.42093 0.0
O523 O -0.0019 0.48157 0.40919 0.0
Zn524 Zn 0.47825 0.97085 0.44471 0.0
Zn525 Zn 0.46361 0.03588 0.45598 0.0
O526 O 0.4967 0.0087 0.45102 0.0
H527 H 0.51658 0.01164 0.45634 0.0
C528 C 0.45239 0.94318 0.53868 0.0
O529 O 0.44987 0.96492 0.52225 0.0
Zn530 Zn 0.58056 0.06694 0.5511 0.0
Zn531 Zn 0.59441 0.00297 0.56557 0.0
O532 O 0.56252 0.02941 0.55372 0.0
H533 H 0.54603 0.02374 0.54282 0.0
Zn534 Zn 0.48856 0.98182 0.57007 0.0
O535 O 0.4906 0.0116 0.53976 0.0
Zn536 Zn 0.48163 0.04786 0.55852 0.0
H537 H 0.49848 0.00909 0.52121 0.0
Zn538 Zn 0.57754 0.00395 0.43999 0.0
O539 O 0.57002 0.0317 0.47137 0.0
H540 H 0.56319 0.02683 0.4898 0.0
Zn541 Zn 0.56064 0.06656 0.44998 0.0
C542 C 0.60682 0.95825 0.47032 0.0
O543 O 0.61184 0.97804 0.48859 0.0
O544 O 0.43642 0.97549 0.43102 0.0
O545 O 0.4263 0.01994 0.43974 0.0
O546 O 0.62788 0.02338 0.58487 0.0
O547 O 0.61937 0.06702 0.57151 0.0
O548 O 0.47376 0.99694 0.60792 0.0
O549 O 0.46473 0.04092 0.59675 0.0
C550 C 0.49726 0.08013 0.43202 0.0
O551 O 0.59434 0.02258 0.40501 0.0
O552 O 0.58112 0.0664 0.41269 0.0
O553 O 0.58281 0.96359 0.57954 0.0
C554 C 0.41908 0.99616 0.43021 0.0
O555 O 0.50088 0.93758 0.42624 0.0
C556 C 0.52893 0.09078 0.57388 0.0
O557 O 0.46896 0.94457 0.55981 0.0
C558 C 0.63456 0.04903 0.58472 0.0
O559 O 0.5922 0.96389 0.44854 0.0
C560 C 0.44875 0.06569 0.50949 0.0
O561 O 0.47179 0.07074 0.43428 0.0
O562 O 0.51739 0.06715 0.44473 0.0
C563 C 0.46388 0.02092 0.61412 0.0
O564 O 0.55583 0.09493 0.57126 0.0
O565 O 0.51866 0.06918 0.56229 0.0
C566 C 0.58233 0.099 0.49671 0.0
O567 O 0.45346 0.06993 0.53532 0.0
O568 O 0.4618 0.04587 0.49708 0.0
C569 C 0.59364 0.04801 0.39773 0.0
O570 O 0.57511 0.09988 0.4711 0.0
O571 O 0.57943 0.07636 0.51 0.0
C572 C 0.5587 0.96044 0.59185 0.0
O573 O 0.54184 0.9822 0.59556 0.0
C574 C 0.52424 0.94003 0.41245 0.0
O575 O 0.53619 0.96461 0.41046 0.0
H576 H 0.2162 0.15493 0.53698 0.0
H577 H 0.07574 0.12021 0.4506 0.0
H578 H 0.18016 0.20993 0.47482 0.0
H579 H 0.10198 0.07375 0.52339 0.0
H580 H 0.11033 0.1562 0.46274 0.0
H581 H 0.17167 0.12796 0.53626 0.0
C582 C 0.19867 0.1615 0.52344 0.0
C583 C 0.20191 0.18438 0.50561 0.0
C584 C 0.10826 0.13839 0.47638 0.0
C585 C 0.15105 0.15355 0.50445 0.0
C586 C 0.08857 0.11779 0.46942 0.0
C587 C 0.08632 0.09382 0.4859 0.0
C588 C 0.12627 0.13477 0.49973 0.0
C589 C 0.10309 0.09188 0.5102 0.0
C590 C 0.17324 0.14618 0.5231 0.0
C591 C 0.1785 0.19233 0.48878 0.0
N592 N 0.12279 0.11187 0.51613 0.0
N593 N 0.15421 0.17663 0.48825 0.0
H594 H 0.83617 0.22221 0.45115 0.0
H595 H 0.86599 0.08881 0.54353 0.0
H596 H 0.78265 0.19645 0.5202 0.0
H597 H 0.91589 0.10802 0.47002 0.0
H598 H 0.8306 0.12397 0.53016 0.0
H599 H 0.86098 0.17717 0.45259 0.0
C600 C 0.82936 0.20693 0.46635 0.0
C601 C 0.80761 0.21331 0.4859 0.0
C602 C 0.84899 0.12031 0.51662 0.0
C603 C 0.83588 0.16177 0.48764 0.0
C604 C 0.86922 0.10022 0.52427 0.0
C605 C 0.89401 0.09579 0.50799 0.0
C606 C 0.85387 0.13663 0.4928 0.0
C607 C 0.89704 0.11087 0.48312 0.0
C608 C 0.84345 0.18119 0.46708 0.0
C609 C 0.79926 0.19254 0.50472 0.0
N610 N 0.87746 0.13108 0.47653 0.0
N611 N 0.8137 0.16791 0.50539 0.0
H612 H 0.79855 0.83461 0.48059 0.0
H613 H 0.91563 0.90219 0.583 0.0
H614 H 0.84648 0.78765 0.54214 0.0
H615 H 0.86082 0.94968 0.52745 0.0
H616 H 0.89109 0.85984 0.56806 0.0
H617 H 0.82162 0.87694 0.49726 0.0
C618 C 0.81381 0.8332 0.49771 0.0
C619 C 0.8206 0.80748 0.50992 0.0
C620 C 0.88437 0.87956 0.55923 0.0
C621 C 0.8474 0.8559 0.52894 0.0
C622 C 0.89837 0.90374 0.56776 0.0
C623 C 0.89028 0.92953 0.55644 0.0
C624 C 0.86224 0.88117 0.53915 0.0
C625 C 0.86779 0.93028 0.53675 0.0
C626 C 0.82708 0.85738 0.50715 0.0
C627 C 0.8409 0.80692 0.53178 0.0
N628 N 0.85464 0.90646 0.52868 0.0
N629 N 0.85359 0.83075 0.54056 0.0
H630 H 0.21864 0.86333 0.56165 0.0
H631 H 0.08622 0.889 0.45867 0.0
H632 H 0.18836 0.80076 0.50438 0.0
H633 H 0.10566 0.94232 0.52874 0.0
H634 H 0.12221 0.8556 0.47569 0.0
H635 H 0.17631 0.89187 0.55063 0.0
C636 C 0.2029 0.85557 0.54686 0.0
C637 C 0.20704 0.82982 0.53371 0.0
C638 C 0.11837 0.87447 0.48748 0.0
C639 C 0.15864 0.8624 0.5208 0.0
C640 C 0.09786 0.89358 0.47776 0.0
C641 C 0.09313 0.91865 0.49213 0.0
C642 C 0.13445 0.8806 0.51159 0.0
C643 C 0.10871 0.92338 0.51684 0.0
C644 C 0.1787 0.87179 0.54064 0.0
C645 C 0.18588 0.82052 0.51497 0.0
N646 N 0.12887 0.90469 0.5256 0.0
N647 N 0.16273 0.83698 0.50878 0.0
H648 H 0.52591 0.1906 0.22344 0.0
H649 H 0.47453 0.12353 0.08033 0.0
H650 H 0.45108 0.21945 0.17767 0.0
H651 H 0.54684 0.09374 0.12918 0.0
H652 H 0.46028 0.15351 0.11939 0.0
H653 H 0.52803 0.14974 0.19364 0.0
C654 C 0.50945 0.18808 0.20757 0.0
C655 C 0.48856 0.20885 0.20284 0.0
C656 C 0.47902 0.14011 0.12169 0.0
C657 C 0.49147 0.16226 0.16787 0.0
C658 C 0.48717 0.12297 0.0994 0.0
C659 C 0.51228 0.10653 0.10127 0.0
C660 C 0.49616 0.14084 0.14595 0.0
C661 C 0.52761 0.10642 0.12659 0.0
C662 C 0.51086 0.16477 0.19031 0.0
C663 C 0.46806 0.20438 0.18163 0.0
N664 N 0.51953 0.12359 0.14776 0.0
N665 N 0.47032 0.18182 0.16463 0.0
H666 H 0.82268 0.47202 0.24582 0.0
H667 H 0.90785 0.56343 0.1335 0.0
H668 H 0.78371 0.53715 0.19643 0.0
H669 H 0.9396 0.48501 0.16523 0.0
H670 H 0.86688 0.56055 0.16552 0.0
H671 H 0.86971 0.48279 0.22486 0.0
C672 C 0.82413 0.48883 0.23086 0.0
C673 C 0.79927 0.5035 0.22255 0.0
C674 C 0.88304 0.54417 0.16573 0.0
C675 C 0.85282 0.51596 0.19864 0.0
C676 C 0.90658 0.54587 0.14757 0.0
C677 C 0.92699 0.52417 0.14626 0.0
C678 C 0.87992 0.5207 0.18284 0.0
C679 C 0.9242 0.50204 0.1652 0.0
C680 C 0.8509 0.49489 0.21886 0.0
C681 C 0.80229 0.52503 0.20304 0.0
N682 N 0.9009 0.50071 0.18247 0.0
N683 N 0.82853 0.53052 0.19165 0.0
H684 H 0.54177 0.78849 0.1712 0.0
H685 H 0.56487 0.93524 0.0967 0.0
H686 H 0.60137 0.85023 0.20138 0.0
H687 H 0.50444 0.87326 0.06861 0.0
H688 H 0.58241 0.90273 0.13231 0.0
H689 H 0.53223 0.81728 0.13031 0.0
C690 C 0.55323 0.8079 0.16903 0.0
C691 C 0.57223 0.81705 0.1899 0.0
C692 C 0.56544 0.89622 0.11821 0.0
C693 C 0.56092 0.85048 0.14331 0.0
C694 C 0.55541 0.91477 0.0979 0.0
C695 C 0.53292 0.90709 0.07986 0.0
C696 C 0.55287 0.86983 0.12047 0.0
C697 C 0.52161 0.88022 0.08224 0.0
C698 C 0.54758 0.82447 0.14574 0.0
C699 C 0.58614 0.84261 0.18606 0.0
N700 N 0.53158 0.86267 0.10226 0.0
N701 N 0.58002 0.85854 0.16335 0.0
H702 H 0.26502 0.62518 0.1578 0.0
H703 H 0.16188 0.50148 0.11161 0.0
H704 H 0.24456 0.55534 0.21043 0.0
H705 H 0.15472 0.58338 0.07531 0.0
H706 H 0.19962 0.51843 0.14262 0.0
H707 H 0.23032 0.60821 0.12295 0.0
C708 C 0.25301 0.60643 0.16206 0.0
C709 C 0.25736 0.59173 0.18704 0.0
C710 C 0.18991 0.53262 0.12772 0.0
C711 C 0.2185 0.57196 0.14727 0.0
C712 C 0.16854 0.52291 0.1098 0.0
C713 C 0.15485 0.54111 0.09101 0.0
C714 C 0.19789 0.56064 0.1267 0.0
C715 C 0.16451 0.56868 0.08964 0.0
C716 C 0.23335 0.59676 0.14222 0.0
C717 C 0.24147 0.56749 0.19161 0.0
N718 N 0.18538 0.57768 0.10741 0.0
N719 N 0.22289 0.55824 0.1718 0.0
H720 H 0.55909 0.80184 0.8095 0.0
H721 H 0.46258 0.92526 0.86584 0.0
H722 H 0.48201 0.82939 0.76679 0.0
H723 H 0.55241 0.91581 0.88855 0.0
H724 H 0.46962 0.89131 0.82842 0.0
H725 H 0.55778 0.84417 0.83789 0.0
C726 C 0.54209 0.81702 0.80594 0.0
C727 C 0.52052 0.81214 0.78597 0.0
C728 C 0.48791 0.89699 0.84129 0.0
C729 C 0.51865 0.86033 0.81848 0.0
C730 C 0.48389 0.91632 0.8627 0.0
C731 C 0.50687 0.92314 0.88052 0.0
C732 C 0.51496 0.884 0.838 0.0
C733 C 0.53406 0.91107 0.87536 0.0
C734 C 0.5414 0.84119 0.82202 0.0
C735 C 0.49907 0.83247 0.78196 0.0
N736 N 0.53724 0.89172 0.85486 0.0
N737 N 0.4984 0.85551 0.79839 0.0
H738 H 0.23533 0.60569 0.80628 0.0
H739 H 0.11609 0.49756 0.85748 0.0
H740 H 0.22247 0.52565 0.7679 0.0
H741 H 0.1175 0.58328 0.88402 0.0
H742 H 0.15582 0.50703 0.82537 0.0
H743 H 0.19409 0.59689 0.83716 0.0
C744 C 0.22405 0.58613 0.80463 0.0
C745 C 0.23226 0.56639 0.78451 0.0
C746 C 0.14727 0.52383 0.83804 0.0
C747 C 0.18491 0.55633 0.81938 0.0
C748 C 0.12448 0.51847 0.85631 0.0
C749 C 0.11345 0.53962 0.87359 0.0
C750 C 0.15941 0.55047 0.8372 0.0
C751 C 0.12524 0.56632 0.8711 0.0
C752 C 0.20033 0.58124 0.82201 0.0
C753 C 0.21668 0.54152 0.78298 0.0
N754 N 0.14777 0.57091 0.85348 0.0
N755 N 0.19378 0.53721 0.80016 0.0
H756 H 0.49506 0.15531 0.78687 0.0
H757 H 0.46739 0.10187 0.94241 0.0
H758 H 0.42348 0.18734 0.83528 0.0
H759 H 0.55057 0.10367 0.90163 0.0
H760 H 0.44632 0.12629 0.90181 0.0
H761 H 0.51067 0.1282 0.82705 0.0
C762 C 0.48237 0.15636 0.80589 0.0
C763 C 0.45787 0.17355 0.80769 0.0
C764 C 0.46917 0.12128 0.90198 0.0
C765 C 0.47596 0.14276 0.85411 0.0
C766 C 0.48114 0.10731 0.92505 0.0
C767 C 0.51079 0.10086 0.92555 0.0
C768 C 0.48697 0.12819 0.87923 0.0
C769 C 0.52767 0.10841 0.90242 0.0
C770 C 0.49145 0.14104 0.82893 0.0
C771 C 0.44261 0.17445 0.83312 0.0
N772 N 0.51553 0.12149 0.88028 0.0
N773 N 0.4519 0.15922 0.85545 0.0
H774 H 0.74638 0.53601 0.86302 0.0
H775 H 0.88494 0.45609 0.92162 0.0
H776 H 0.79017 0.47064 0.81781 0.0
H777 H 0.86867 0.54254 0.94055 0.0
H778 H 0.84214 0.45588 0.89185 0.0
H779 H 0.78401 0.53363 0.89927 0.0
C780 C 0.76383 0.52103 0.86092 0.0
C781 C 0.76542 0.50354 0.8375 0.0
C782 C 0.84781 0.47478 0.9028 0.0
C783 C 0.80789 0.50044 0.87874 0.0
C784 C 0.8721 0.47492 0.91997 0.0
C785 C 0.88062 0.49949 0.93339 0.0
C786 C 0.83164 0.49924 0.8993 0.0
C787 C 0.86305 0.52322 0.93039 0.0
C788 C 0.78522 0.51975 0.88147 0.0
C789 C 0.7884 0.48456 0.83552 0.0
N790 N 0.8394 0.52255 0.91353 0.0
N791 N 0.80873 0.48342 0.85598 0.0
H792 H 0.71781 0.69315 0.93393 0.0
H793 H 0.60916 0.6341 0.04368 0.0
H794 H 0.71204 0.72779 0.01689 0.0
H795 H 0.59097 0.63229 0.9551 0.0
H796 H 0.64679 0.66857 0.03499 0.0
H797 H 0.67115 0.67046 0.94116 0.0
C798 C 0.70637 0.69631 0.95345 0.0
C799 C 0.71855 0.71224 0.97486 0.0
C800 C 0.63418 0.66092 0.01757 0.0
C801 C 0.66586 0.68602 0.98357 0.0
C802 C 0.61281 0.6412 0.02249 0.0
C803 C 0.59719 0.63002 5e-05 0.0
C804 C 0.64028 0.66902 0.98999 0.0
C805 C 0.60262 0.64016 0.97303 0.0
C806 C 0.67982 0.68346 0.95759 0.0
C807 C 0.70312 0.71573 -0.00013 0.0
N808 N 0.62408 0.65871 0.9687 0.0
N809 N 0.67774 0.70227 0.00378 0.0
H810 H 0.28759 0.73096 0.98645 0.0
H811 H 0.37348 0.6076 0.05777 0.0
H812 H 0.27539 0.70944 0.07313 0.0
H813 H 0.36334 0.61543 0.96831 0.0
H814 H 0.33565 0.64276 0.06423 0.0
H815 H 0.3143 0.68754 0.97946 0.0
C816 C 0.2905 0.71697 0.00397 0.0
C817 C 0.27958 0.72382 0.03044 0.0
C818 C 0.34139 0.63641 0.04321 0.0
C819 C 0.31013 0.67417 0.02272 0.0
C820 C 0.36296 0.61628 0.03949 0.0
C821 C 0.37203 0.6089 0.01243 0.0
C822 C 0.32911 0.64943 0.01973 0.0
C823 C 0.35743 0.62075 0.98957 0.0
C824 C 0.30553 0.69211 -3e-05 0.0
C825 C 0.28353 0.70486 0.0524 0.0
N826 N 0.33707 0.64075 0.99374 0.0
N827 N 0.29886 0.68102 0.04815 0.0
H828 H 0.29025 0.33176 0.07366 0.0
H829 H 0.40482 0.41218 0.97874 0.0
H830 H 0.30607 0.31349 0.98676 0.0
H831 H 0.40328 0.41765 0.06889 0.0
H832 H 0.36346 0.38129 0.98043 0.0
H833 H 0.32539 0.3697 0.07104 0.0
C834 C 0.30051 0.33635 0.05385 0.0
C835 C 0.29538 0.3197 0.03036 0.0
C836 C 0.37214 0.38924 -0.00014 0.0
C837 C 0.33578 0.36229 0.02732 0.0
C838 C 0.39585 0.40684 -0.00106 0.0
C839 C 0.40771 0.41744 0.02375 0.0
C840 C 0.35999 0.38218 0.02575 0.0
C841 C 0.39501 0.40981 0.04926 0.0
C842 C 0.32079 0.35768 0.05243 0.0
C843 C 0.30951 0.326 0.00527 0.0
N844 N 0.3718 0.39263 0.04961 0.0
N845 N 0.32924 0.34668 0.00445 0.0
H846 H 0.74909 0.29727 0.97825 0.0
H847 H 0.65964 0.41993 0.05212 0.0
H848 H 0.78346 0.3442 0.0474 0.0
H849 H 0.64005 0.38657 0.97044 0.0
H850 H 0.70357 0.3909 0.05322 0.0
H851 H 0.70642 0.32749 0.97816 0.0
C852 C 0.74753 0.3138 0.99357 0.0
C853 C 0.76987 0.31826 0.0128 0.0
C854 C 0.68964 0.39016 0.03504 0.0
C855 C 0.72118 0.35315 0.01273 0.0
C856 C 0.66463 0.40677 0.03436 0.0
C857 C 0.64596 0.40568 0.01122 0.0
C858 C 0.69579 0.37219 0.01257 0.0
C859 C 0.65358 0.38814 0.98883 0.0
C860 C 0.72329 0.33121 0.99338 0.0
C861 C 0.76684 0.34023 0.03201 0.0
N862 N 0.67769 0.37202 0.99018 0.0
N863 N 0.74292 0.35683 0.03155 0.0
H864 H 0.96718 0.68663 0.71541 0.0
H865 H 0.03957 0.63803 0.57119 0.0
H866 H 0.01768 0.73852 0.66077 0.0
H867 H -0.00626 0.58126 0.62448 0.0
H868 H 0.02611 0.67608 0.60206 0.0
H869 H 0.97266 0.64824 0.6817 0.0
C870 C 0.97938 0.68994 0.69639 0.0
C871 C 0.99172 0.71592 0.69077 0.0
C872 C 0.0186 0.65542 0.607 0.0
C873 C -0.00221 0.67243 0.6522 0.0
C874 C 0.02618 0.63371 0.58925 0.0
C875 C 0.01764 0.60655 0.59532 0.0
C876 C 0.00274 0.64997 0.63141 0.0
C877 C 0.00033 0.60202 0.61894 0.0
C878 C 0.98231 0.66813 0.67711 0.0
C879 C 0.00722 0.71911 0.66577 0.0
N880 N -0.00628 0.62352 0.63644 0.0
N881 N 0.00976 0.69771 0.64753 0.0
H882 H 0.31324 0.06031 0.70331 0.0
H883 H 0.4558 0.98331 0.65642 0.0
H884 H 0.34236 0.98269 0.73881 0.0
H885 H 0.43371 0.06693 0.63128 0.0
H886 H 0.41928 0.98621 0.69308 0.0
H887 H 0.36108 0.06663 0.68268 0.0
C888 C 0.32987 0.04479 0.70701 0.0
C889 C 0.3238 0.02077 0.72238 0.0
C890 C 0.42281 0.00414 0.6799 0.0
C891 C 0.37841 0.02767 0.69881 0.0
C892 C 0.4437 0.00249 0.65895 0.0
C893 C 0.44727 0.02463 0.64024 0.0
C894 C 0.40517 0.02793 0.68188 0.0
C895 C 0.43131 0.04913 0.64484 0.0
C896 C 0.35721 0.04844 0.6954 0.0
C897 C 0.34616 0.00149 0.72703 0.0
N898 N 0.41051 0.04991 0.66482 0.0
N899 N 0.37235 0.00512 0.71487 0.0
H900 H 0.97479 0.31646 0.66544 0.0
H901 H 0.09627 0.41517 0.60114 0.0
H902 H 0.05728 0.33194 0.7042 0.0
H903 H 0.00807 0.41444 0.57166 0.0
H904 H 0.0847 0.37801 0.63374 0.0
H905 H 0.98911 0.34573 0.62588 0.0
C906 C -0.00393 0.32569 0.6654 0.0
C907 C 0.01481 0.32203 0.68818 0.0
C908 C 0.06791 0.38583 0.62001 0.0
C909 C 0.03125 0.35547 0.64323 0.0
C910 C 0.07451 0.40704 0.60133 0.0
C911 C 0.053 0.41823 0.58387 0.0
C912 C 0.0396 0.37563 0.62131 0.0
C913 C 0.02526 0.40662 0.5849 0.0
C914 C 0.00415 0.34249 0.64294 0.0
C915 C 0.04205 0.33457 0.68721 0.0
N916 N 0.01928 0.38609 0.60349 0.0
N917 N 0.04939 0.35082 0.66518 0.0
H918 H 0.7679 0.05523 0.71101 0.0
H919 H 0.64538 0.10211 0.60263 0.0
H920 H 0.721 0.13261 0.71823 0.0
H921 H 0.67592 0.01756 0.61094 0.0
H922 H 0.67803 0.11587 0.64036 0.0
H923 H 0.73836 0.04297 0.67056 0.0
C924 C 0.75127 0.0696 0.70406 0.0
C925 C 0.74682 0.09496 0.71792 0.0
C926 C 0.6777 0.09436 0.63373 0.0
C927 C 0.71314 0.08121 0.67148 0.0
C928 C 0.65929 0.08651 0.61201 0.0
C929 C 0.65774 0.05856 0.60371 0.0
C930 C 0.69488 0.07419 0.64705 0.0
C931 C 0.67623 0.03929 0.61674 0.0
C932 C 0.73444 0.0626 0.681 0.0
C933 C 0.7249 0.11276 0.70822 0.0
N934 N 0.69392 0.04745 0.63782 0.0
N935 N 0.70894 0.10562 0.68545 0.0
H936 H 0.08829 0.3062 0.36519 0.0
H937 H 0.01192 0.45562 0.364 0.0
H938 H 0.03697 0.33732 0.29642 0.0
H939 H 0.03734 0.41283 0.43947 0.0
H940 H 0.03195 0.41726 0.33642 0.0
H941 H 0.08037 0.3501 0.38984 0.0
C942 C 0.07556 0.3223 0.35515 0.0
C943 C 0.06286 0.31778 0.32885 0.0
C944 C 0.03338 0.41643 0.35901 0.0
C945 C 0.05416 0.36821 0.35682 0.0
C946 C 0.02203 0.43833 0.37477 0.0
C947 C 0.02252 0.43717 0.40409 0.0
C948 C 0.04556 0.39336 0.37266 0.0
C949 C 0.03607 0.41433 0.41692 0.0
C950 C 0.07117 0.34737 0.36921 0.0
C951 C 0.04728 0.33977 0.31657 0.0
N952 N 0.0469 0.39322 0.40112 0.0
N953 N 0.04315 0.36392 0.33077 0.0
H954 H 0.66549 0.12976 0.25188 0.0
H955 H 0.63514 0.01866 0.36982 0.0
H956 H 0.72906 0.0702 0.28044 0.0
H957 H 0.5903 0.09768 0.36977 0.0
H958 H 0.66598 0.0352 0.33218 0.0
H959 H 0.63466 0.11742 0.29181 0.0
C960 C 0.67315 0.11453 0.26685 0.0
C961 C 0.69984 0.10102 0.26297 0.0
C962 C 0.64938 0.04891 0.34041 0.0
C963 C 0.66465 0.0864 0.30782 0.0
C964 C 0.63156 0.03939 0.36169 0.0
C965 C 0.61018 0.05685 0.373 0.0
C966 C 0.64558 0.07594 0.33007 0.0
C967 C 0.60665 0.0836 0.3617 0.0
C968 C 0.65559 0.10747 0.28948 0.0
C969 C 0.70881 0.08136 0.28283 0.0
N970 N 0.62418 0.09235 0.34072 0.0
N971 N 0.69106 0.07436 0.30417 0.0
H972 H 0.98411 0.72501 0.33457 0.0
H973 H 0.0516 0.59254 0.4121 0.0
H974 H 0.04995 0.67236 0.29825 0.0
H975 H 0.96922 0.62947 0.43261 0.0
H976 H 0.05927 0.62901 0.3773 0.0
H977 H 0.98678 0.69761 0.37765 0.0
C978 C -0.00049 0.70801 0.33589 0.0
C979 C 0.01654 0.70065 0.31275 0.0
C980 C 0.03967 0.62924 0.38968 0.0
C981 C 0.01962 0.66922 0.36175 0.0
C982 C 0.03532 0.60836 0.4095 0.0
C983 C 0.00945 0.60733 0.42467 0.0
C984 C 0.01812 0.64949 0.38541 0.0
C985 C 0.98928 0.62899 0.42095 0.0
C986 C 0.00092 0.6923 0.36037 0.0
C987 C 0.03608 0.67837 0.3155 0.0
N988 N -0.00608 0.649 0.40154 0.0
N989 N 0.03693 0.66328 0.33947 0.0
H990 H 0.30764 0.93896 0.30003 0.0
H991 H 0.38026 0.03695 0.41454 0.0
H992 H 0.27768 0.02254 0.31595 0.0
H993 H 0.39673 0.9488 0.40762 0.0
H994 H 0.34182 0.03255 0.37962 0.0
H995 H 0.34112 0.943 0.33921 0.0
C996 C 0.30833 0.95828 0.31162 0.0
C997 C 0.28998 0.9805 0.30461 0.0
C998 C 0.35365 0.01415 0.38604 0.0
C999 C 0.32798 0.98517 0.34988 0.0
C1000 C 0.37549 0.0166 0.40612 0.0
C1001 C 0.39207 0.99327 0.41381 0.0
C1002 C 0.34852 0.98824 0.37351 0.0
C1003 C 0.38483 0.96745 0.40215 0.0
C1004 C 0.32722 0.96048 0.33421 0.0
C1005 C 0.2914 0.00487 0.32073 0.0
N1006 N 0.36389 0.96572 0.38238 0.0
N1007 N 0.31017 0.00661 0.34255 0.0
H1008 H 0.01988 0.23878 0.36508 0.0
H1009 H 0.03064 0.07603 0.39464 0.0
H1010 H 0.07626 0.1851 0.31712 0.0
H1011 H 0.98479 0.13493 0.44638 0.0
H1012 H 0.05066 0.11477 0.36757 0.0
H1013 H 0.00883 0.20033 0.39575 0.0
C1014 C 0.03028 0.21895 0.36114 0.0
C1015 C 0.04942 0.21542 0.33859 0.0
C1016 C 0.03659 0.11917 0.38515 0.0
C1017 C 0.03614 0.17058 0.37368 0.0
C1018 C 0.02544 0.09706 0.40079 0.0
C1019 C 0.00601 0.10224 0.42276 0.0
C1020 C 0.02806 0.14654 0.39155 0.0
C1021 C -0.0005 0.12994 0.42946 0.0
C1022 C 0.0238 0.19684 0.37868 0.0
C1023 C 0.06132 0.1888 0.33416 0.0
N1024 N 0.01026 0.15093 0.41382 0.0
N1025 N 0.05445 0.16736 0.35152 0.0
H1026 H 0.80659 0.0406 0.26154 0.0
H1027 H 0.87843 0.09195 0.40484 0.0
H1028 H 0.83003 0.12557 0.27718 0.0
H1029 H 0.85796 0.00649 0.38658 0.0
H1030 H 0.85545 0.10574 0.36087 0.0
H1031 H 0.82147 0.0285 0.30919 0.0
C1032 C 0.81518 0.05661 0.27507 0.0
C1033 C 0.81771 0.08391 0.26557 0.0
C1034 C 0.85566 0.08402 0.36669 0.0
C1035 C 0.83424 0.07056 0.3201 0.0
C1036 C 0.86853 0.07613 0.39196 0.0
C1037 C 0.87048 0.04794 0.39932 0.0
C1038 C 0.84462 0.06359 0.34869 0.0
C1039 C 0.85729 0.02843 0.38168 0.0
C1040 C 0.82346 0.0498 0.30229 0.0
C1041 C 0.82829 0.10416 0.28382 0.0
N1042 N 0.84526 0.03658 0.35709 0.0
N1043 N 0.83632 0.09706 0.31028 0.0
H1044 H 0.03178 0.85339 0.27568 0.0
H1045 H 0.95051 0.90476 0.41436 0.0
H1046 H 0.97526 0.80167 0.32425 0.0
H1047 H 0.00524 0.95724 0.36429 0.0
H1048 H 0.96337 0.8654 0.3845 0.0
H1049 H 0.02645 0.89032 0.31073 0.0
C1050 C 0.01849 0.84983 0.29397 0.0
C1051 C 0.00385 0.82477 0.29733 0.0
C1052 C 0.97276 0.88548 0.38017 0.0
C1053 C -0.00264 0.86664 0.33718 0.0
C1054 C 0.96543 0.90798 0.39723 0.0
C1055 C 0.97665 0.93441 0.39171 0.0
C1056 C 0.99137 0.88942 0.35734 0.0
C1057 C -0.00397 0.93727 0.36933 0.0
C1058 C 0.01539 0.87083 0.31391 0.0
C1059 C 0.98682 0.8209 0.32112 0.0
N1060 N 0.0026 0.91511 0.35284 0.0
N1061 N 0.98387 0.84173 0.34014 0.0
H1062 H 0.19618 0.02993 0.28389 0.0
H1063 H 0.06174 0.95767 0.34984 0.0
H1064 H 0.17148 0.94617 0.26361 0.0
H1065 H 0.07685 0.04587 0.3555 0.0
H1066 H 0.09578 0.955 0.31102 0.0
H1067 H 0.14796 0.03841 0.30303 0.0
C1068 C 0.18033 0.0135 0.28304 0.0
C1069 C 0.18782 0.98722 0.27261 0.0
C1070 C 0.09119 0.97506 0.32031 0.0
C1071 C 0.13282 0.99649 0.29484 0.0
C1072 C 0.07168 0.97661 0.34251 0.0
C1073 C 0.06707 0.0019 0.35651 0.0
C1074 C 0.1065 0.99887 0.31239 0.0
C1075 C 0.08017 0.02582 0.34573 0.0
C1076 C 0.15279 0.01833 0.29387 0.0
C1077 C 0.16652 0.96669 0.27163 0.0
N1078 N 0.09985 0.0236 0.32476 0.0
N1079 N 0.14013 0.97157 0.28319 0.0
H1080 H 0.94856 0.80686 0.67258 0.0
H1081 H 0.0206 0.95684 0.66037 0.0
H1082 H 0.01287 0.83776 0.72992 0.0
H1083 H 0.97798 0.91603 0.59151 0.0
H1084 H 0.00866 0.91761 0.69043 0.0
H1085 H 0.9504 0.85085 0.64717 0.0
C1086 C 0.96294 0.82291 0.67998 0.0
C1087 C 0.98096 0.81829 0.70325 0.0
C1088 C 0.00168 0.91737 0.66882 0.0
C1089 C 0.98273 0.86894 0.67441 0.0
C1090 C 0.00838 0.93981 0.65162 0.0
C1091 C 0.00063 0.93959 0.62322 0.0
C1092 C 0.98691 0.89455 0.65766 0.0
C1093 C 0.98467 0.91697 0.61318 0.0
C1094 C 0.96387 0.84806 0.66549 0.0
C1095 C -0.0015 0.84026 0.71224 0.0
N1096 N 0.97851 0.89527 0.63034 0.0
N1097 N -0.00089 0.86451 0.69769 0.0
H1098 H 0.20335 0.96864 0.70694 0.0
H1099 H 0.12914 0.05514 0.58278 0.0
H1100 H 0.23016 0.05104 0.68359 0.0
H1101 H 0.11198 0.96878 0.59997 0.0
H1102 H 0.16616 0.05457 0.61943 0.0
H1103 H 0.16814 0.96938 0.66883 0.0
C1104 C 0.20157 0.98703 0.69401 0.0
C1105 C 0.21973 0.00979 0.69844 0.0
C1106 C 0.15441 0.03571 0.61498 0.0
C1107 C 0.17981 0.01064 0.65441 0.0
C1108 C 0.1334 0.03597 0.59392 0.0
C1109 C 0.11722 0.01203 0.58834 0.0
C1110 C 0.15916 0.01139 0.63064 0.0
C1111 C 0.1237 0.98782 0.60359 0.0
C1112 C 0.18169 0.98734 0.67204 0.0
C1113 C 0.21676 0.03292 0.68073 0.0
N1114 N 0.14393 0.98821 0.62413 0.0
N1115 N 0.19722 0.03276 0.6595 0.0
H1116 H 0.93172 0.18735 0.68962 0.0
H1117 H 0.04703 0.12549 0.58199 0.0
H1118 H 0.01693 0.22083 0.67792 0.0
H1119 H 0.95698 0.10308 0.57972 0.0
H1120 H 0.03584 0.16091 0.61662 0.0
H1121 H 0.93986 0.15616 0.64952 0.0
C1122 C 0.95203 0.1882 0.67837 0.0
C1123 C 0.97377 0.20644 0.68679 0.0
C1124 C 0.01843 0.14833 0.60852 0.0
C1125 C 0.98331 0.1711 0.6414 0.0
C1126 C 0.02479 0.12803 0.58865 0.0
C1127 C 0.00298 0.11064 0.57836 0.0
C1128 C 0.99003 0.15135 0.61841 0.0
C1129 C 0.97459 0.11529 0.58767 0.0
C1130 C 0.95666 0.17051 0.65555 0.0
C1131 C -0.00027 0.20691 0.67189 0.0
N1132 N 0.96895 0.13502 0.60739 0.0
N1133 N 0.00387 0.18936 0.64998 0.0
H1134 H 0.84669 0.06237 0.77218 0.0
H1135 H 0.94792 0.09447 0.64356 0.0
H1136 H 0.85292 0.14164 0.7312 0.0
H1137 H 0.92883 0.01234 0.67423 0.0
H1138 H 0.92758 0.11421 0.68623 0.0
H1139 H 0.89075 0.04702 0.7481 0.0
C1140 C 0.8582 0.07694 0.75909 0.0
C1141 C 0.84642 0.10321 0.75352 0.0
C1142 C 0.92835 0.09184 0.68387 0.0
C1143 C 0.89587 0.08565 0.72523 0.0
C1144 C 0.93991 0.08052 0.65945 0.0
C1145 C 0.9392 0.05172 0.65486 0.0
C1146 C 0.91574 0.07426 0.70375 0.0
C1147 C 0.92922 0.03469 0.67656 0.0
C1148 C 0.8831 0.06812 0.74511 0.0
C1149 C 0.86157 0.12124 0.736 0.0
N1150 N 0.9173 0.04625 0.69983 0.0
N1151 N 0.88527 0.11194 0.72201 0.0
H1152 H 0.33042 0.98385 0.21125 0.0
H1153 H 0.42138 0.94837 0.07335 0.0
H1154 H 0.30952 0.91726 0.15475 0.0
H1155 H 0.43475 0.021 0.12453 0.0
H1156 H 0.3865 0.93141 0.10767 0.0
H1157 H 0.37461 0.99259 0.18443 0.0
C1158 C 0.3355 0.97084 0.19339 0.0
C1159 C 0.31662 0.94992 0.18496 0.0
C1160 C 0.39733 0.9509 0.11154 0.0
C1161 C 0.36658 0.95983 0.15409 0.0
C1162 C 0.41724 0.96059 0.09194 0.0
C1163 C 0.43045 0.98646 0.09571 0.0
C1164 C 0.39074 0.96715 0.13514 0.0
C1165 C 0.42475 0.00114 0.12051 0.0
C1166 C 0.3606 0.97582 0.17806 0.0
C1167 C 0.32377 0.93361 0.16173 0.0
N1168 N 0.40508 0.99144 0.1391 0.0
N1169 N 0.34815 0.93905 0.14689 0.0
H1170 H 0.03058 0.32655 0.2346 0.0
H1171 H 0.08308 0.39697 0.09142 0.0
H1172 H 0.08582 0.28519 0.17497 0.0
H1173 H 0.02725 0.43762 0.15135 0.0
H1174 H 0.08225 0.35497 0.12017 0.0
H1175 H 0.02741 0.36676 0.20324 0.0
C1176 C 0.04196 0.32602 0.21479 0.0
C1177 C 0.05849 0.30279 0.2072 0.0
C1178 C 0.07006 0.37303 0.12696 0.0
C1179 C 0.05509 0.34847 0.17125 0.0
C1180 C 0.07047 0.39703 0.11051 0.0
C1181 C 0.05542 0.42102 0.11909 0.0
C1182 C 0.05452 0.37295 0.15222 0.0
C1183 C 0.03934 0.41975 0.14396 0.0
C1184 C 0.04016 0.3489 0.1969 0.0
C1185 C 0.07289 0.30289 0.18145 0.0
N1186 N 0.03947 0.39623 0.1597 0.0
N1187 N 0.07092 0.32545 0.16438 0.0
H1188 H 0.67195 0.05728 0.18745 0.0
H1189 H 0.65894 0.02911 0.02568 0.0
H1190 H 0.72643 0.10208 0.12993 0.0
H1191 H 0.58692 0.02377 0.08284 0.0
H1192 H 0.68723 0.05193 0.0625 0.0
H1193 H 0.64421 0.03989 0.14842 0.0
C1194 C 0.67786 0.06391 0.1666 0.0
C1195 C 0.70112 0.08197 0.16212 0.0
C1196 C 0.66517 0.04589 0.06676 0.0
C1197 C 0.66972 0.06101 0.11695 0.0
C1198 C 0.64905 0.0328 0.04588 0.0
C1199 C 0.62059 0.02428 0.05129 0.0
C1200 C 0.65285 0.04994 0.09325 0.0
C1201 C 0.6088 0.02977 0.07774 0.0
C1202 C 0.66203 0.05375 0.14427 0.0
C1203 C 0.70854 0.08843 0.13437 0.0
N1204 N 0.62507 0.04199 0.09777 0.0
N1205 N 0.69286 0.07789 0.11271 0.0
H1206 H 0.9734 0.66104 0.23058 0.0
H1207 H 0.0288 0.63392 0.07486 0.0
H1208 H 0.02322 0.71917 0.18206 0.0
H1209 H 0.99174 0.57028 0.12657 0.0
H1210 H 0.01678 0.66842 0.11046 0.0
H1211 H 0.97097 0.63045 0.18981 0.0
C1212 C 0.98377 0.66743 0.21136 0.0
C1213 C -0.00108 0.69259 0.20992 0.0
C1214 C 0.01064 0.64703 0.11383 0.0
C1215 C -0.00426 0.65785 0.16305 0.0
C1216 C 0.01735 0.62737 0.09343 0.0
C1217 C 0.01092 0.59933 0.09774 0.0
C1218 C -0.00213 0.63848 0.13899 0.0
C1219 C -0.00371 0.59183 0.1222 0.0
C1220 C 0.98217 0.65003 0.18804 0.0
C1221 C 0.01123 0.70009 0.18421 0.0
N1222 N 0.99061 0.61126 0.14217 0.0
N1223 N 0.00957 0.6827 0.16191 0.0
H1224 H 0.30246 0.03268 0.82451 0.0
H1225 H 0.42543 0.96675 0.92214 0.0
H1226 H 0.30746 0.94514 0.84228 0.0
H1227 H 0.42072 0.05302 0.89847 0.0
H1228 H 0.38419 0.95721 0.89179 0.0
H1229 H 0.34672 0.03981 0.85133 0.0
C1230 C 0.31284 0.01502 0.83445 0.0
C1231 C 0.30136 0.98843 0.83172 0.0
C1232 C 0.39237 0.97818 0.89313 0.0
C1233 C 0.3522 0.99613 0.86203 0.0
C1234 C 0.41606 0.98362 0.91048 0.0
C1235 C 0.42636 0.01079 0.9135 0.0
C1236 C 0.37897 0.00014 0.87865 0.0
C1237 C 0.41336 0.03176 0.89729 0.0
C1238 C 0.33821 0.019 0.84956 0.0
C1239 C 0.31568 0.96603 0.84439 0.0
N1240 N 0.39028 0.02604 0.88086 0.0
N1241 N 0.34043 0.97038 0.85914 0.0
H1242 H 0.96156 0.30776 0.80841 0.0
H1243 H 0.0457 0.42822 0.88706 0.0
H1244 H 0.0461 0.33589 0.78345 0.0
H1245 H 0.96945 0.3891 0.92042 0.0
H1246 H 0.0482 0.39238 0.85088 0.0
H1247 H 0.96577 0.33494 0.85134 0.0
C1248 C 0.98121 0.31929 0.81211 0.0
C1249 C 0.00334 0.31977 0.79202 0.0
C1250 C 0.03113 0.39143 0.86632 0.0
C1251 C 0.00808 0.35141 0.84102 0.0
C1252 C 0.0297 0.4119 0.88701 0.0
C1253 C 0.00708 0.41193 0.90656 0.0
C1254 C 0.00962 0.371 0.86499 0.0
C1255 C 0.98711 0.39011 0.90561 0.0
C1256 C 0.98354 0.33494 0.8366 0.0
C1257 C 0.02816 0.33539 0.79796 0.0
N1258 N 0.98861 0.37077 0.88493 0.0
N1259 N 0.02971 0.3508 0.82173 0.0
H1260 H 0.71114 0.07432 0.80757 0.0
H1261 H 0.6022 0.07207 0.9374 0.0
H1262 H 0.70913 0.13737 0.87148 0.0
H1263 H 0.61304 0.00406 0.87971 0.0
H1264 H 0.63653 0.09911 0.91044 0.0
H1265 H 0.67044 0.05115 0.83039 0.0
C1266 C 0.70178 0.08337 0.82628 0.0
C1267 C 0.71316 0.10761 0.83782 0.0
C1268 C 0.63131 0.07829 0.90363 0.0
C1269 C 0.66709 0.08135 0.86414 0.0
C1270 C 0.61168 0.06275 0.9192 0.0
C1271 C 0.60493 0.03551 0.91138 0.0
C1272 C 0.6443 0.0665 0.87986 0.0
C1273 C 0.61764 0.0249 0.88684 0.0
C1274 C 0.67868 0.07017 0.83934 0.0
C1275 C 0.70068 0.11865 0.86206 0.0
N1276 N 0.63681 0.04032 0.87211 0.0
N1277 N 0.67831 0.10534 0.87457 0.0
H1278 H 0.03928 0.69097 0.80161 0.0
H1279 H 0.96496 0.62389 0.93685 0.0
H1280 H 0.96567 0.72557 0.84475 0.0
H1281 H 0.03907 0.58647 0.89678 0.0
H1282 H 0.96775 0.66282 0.90473 0.0
H1283 H 0.04173 0.65345 0.83667 0.0
C1284 C 0.0236 0.69049 0.81843 0.0
C1285 C 0.00208 0.71102 0.82039 0.0
C1286 C 0.98366 0.64632 0.90297 0.0
C1287 C 0.00489 0.6688 0.86047 0.0
C1288 C 0.98214 0.62407 0.92143 0.0
C1289 C 0.00183 0.60188 0.91946 0.0
C1290 C 0.00485 0.64641 0.88195 0.0
C1291 C 0.02368 0.60329 0.89917 0.0
C1292 C 0.02507 0.66925 0.83845 0.0
C1293 C 0.98242 0.70989 0.84252 0.0
N1294 N 0.02444 0.62507 0.88093 0.0
N1295 N 0.98427 0.68914 0.86165 0.0
H1296 H 0.15213 0.31507 0.07723 0.0
H1297 H 0.10396 0.40409 0.9435 0.0
H1298 H 0.18112 0.29868 0.99321 0.0
H1299 H 0.07282 0.42107 0.02695 0.0
H1300 H 0.1293 0.36319 0.96113 0.0
H1301 H 0.12033 0.35217 0.05929 0.0
C1302 C 0.15157 0.31928 0.05499 0.0
C1303 C 0.16904 0.30411 0.03652 0.0
C1304 C 0.11681 0.37573 0.97561 0.0
C1305 C 0.13316 0.34614 0.0159 0.0
C1306 C 0.10228 0.39911 0.96552 0.0
C1307 C 0.08652 0.41624 0.98382 0.0
C1308 C 0.11575 0.36942 0.00427 0.0
C1309 C 0.08491 0.40857 0.01212 0.0
C1310 C 0.1335 0.34035 0.04474 0.0
C1311 C 0.16783 0.3101 0.00797 0.0
N1312 N 0.09958 0.38585 0.02153 0.0
N1313 N 0.15026 0.33074 -0.00149 0.0
H1314 H 0.13198 0.73225 0.08882 0.0
H1315 H 0.13365 0.60227 0.98387 0.0
H1316 H 0.18979 0.72258 0.0188 0.0
H1317 H 0.06242 0.61854 0.03946 0.0
H1318 H 0.15841 0.64291 0.00238 0.0
H1319 H 0.10912 0.68775 0.07628 0.0
C1320 C 0.13977 0.7207 0.07085 0.0
C1321 C 0.16262 0.73078 0.0547 0.0
C1322 C 0.13754 0.63746 0.01094 0.0
C1323 C 0.13725 0.68032 0.04058 0.0
C1324 C 0.12353 0.6142 0.00048 0.0
C1325 C 0.09633 0.60687 0.01072 0.0
C1326 C 0.12403 0.65383 0.03153 0.0
C1327 C 0.08387 0.62306 0.03193 0.0
C1328 C 0.12685 0.6954 0.06376 0.0
C1329 C 0.1722 0.71531 0.03174 0.0
N1330 N 0.09773 0.64601 0.04159 0.0
N1331 N 0.15951 0.69083 0.02539 0.0
H1332 H 0.29464 0.20038 0.07022 0.0
H1333 H 0.41703 0.13108 0.97373 0.0
H1334 H 0.31549 0.22888 0.98726 0.0
H1335 H 0.40689 0.11274 0.0616 0.0
H1336 H 0.37713 0.16434 0.97708 0.0
H1337 H 0.33183 0.16402 0.06565 0.0
C1338 C 0.30666 0.19856 0.05086 0.0
C1339 C 0.3022 0.21759 0.02912 0.0
C1340 C 0.38371 0.1531 0.99565 0.0
C1341 C 0.34489 0.17667 0.02389 0.0
C1342 C 0.4066 0.1342 0.99379 0.0
C1343 C 0.41537 0.11906 0.01742 0.0
C1344 C 0.36934 0.15682 0.02127 0.0
C1345 C 0.40094 0.12396 0.04283 0.0
C1346 C 0.32806 0.17808 0.04836 0.0
C1347 C 0.31849 0.21465 0.00455 0.0
N1348 N 0.37855 0.14232 0.04404 0.0
N1349 N 0.33923 0.19469 0.00265 0.0
H1350 H 0.89205 0.28881 0.05113 0.0
H1351 H 0.98296 0.41913 -0.00127 0.0
H1352 H 0.87015 0.33866 0.97927 0.0
H1353 H 0.97987 0.39258 0.08485 0.0
H1354 H 0.95416 0.3788 0.9856 0.0
H1355 H 0.93585 0.31667 0.05772 0.0
C1356 C 0.89683 0.30527 0.03645 0.0
C1357 C 0.87747 0.3118 0.01485 0.0
C1358 C 0.96035 0.38152 0.00727 0.0
C1359 C 0.92728 0.3433 0.02201 0.0
C1360 C 0.97693 0.40442 0.01478 0.0
C1361 C 0.98315 0.40956 0.04303 0.0
C1362 C 0.95028 0.36354 0.02814 0.0
C1363 C 0.97498 0.38968 0.0629 0.0
C1364 C 0.92169 0.32113 0.04023 0.0
C1365 C 0.88445 0.3333 0.99639 0.0
N1366 N 0.95856 0.36771 0.05513 0.0
N1367 N 0.90874 0.34842 0.00047 0.0
H1368 H 0.74331 0.82864 0.93713 0.0
H1369 H 0.61781 0.90385 0.02513 0.0
H1370 H 0.73856 0.82719 0.02704 0.0
H1371 H 0.6217 0.90419 0.93488 0.0
H1372 H 0.66083 0.87431 0.02619 0.0
H1373 H 0.69834 0.85594 0.93577 0.0
C1374 C 0.73286 0.83447 0.95657 0.0
C1375 C 0.74456 0.82624 0.98223 0.0
C1376 C 0.65217 0.88068 0.00615 0.0
C1377 C 0.69312 0.85677 0.98099 0.0
C1378 C 0.62748 0.89747 0.00549 0.0
C1379 C 0.61614 0.9067 0.97986 0.0
C1380 C 0.66575 0.87307 0.981 0.0
C1381 C 0.62966 0.89766 0.95514 0.0
C1382 C 0.70716 0.84982 0.95583 0.0
C1383 C 0.7302 0.83363 0.00689 0.0
N1384 N 0.65386 0.88153 0.95634 0.0
N1385 N 0.70516 0.84854 0.00569 0.0
H1386 H 0.79634 0.65701 0.98986 0.0
H1387 H 0.95743 0.62506 0.01048 0.0
H1388 H 0.85772 0.71524 0.95564 0.0
H1389 H 0.89802 0.56019 0.98847 0.0
H1390 H 0.92305 0.65967 0.99203 0.0
H1391 H 0.83404 0.62214 0.99175 0.0
C1392 C 0.81748 0.66252 0.98208 0.0
C1393 C 0.82339 0.68938 0.97209 0.0
C1394 C 0.91797 0.6378 0.99047 0.0
C1395 C 0.86738 0.64924 0.97573 0.0
C1396 C 0.93749 0.61814 0.00095 0.0
C1397 C 0.93048 0.58989 0.00059 0.0
C1398 C 0.89098 0.62902 0.98064 0.0
C1399 C 0.90433 0.58179 0.98853 0.0
C1400 C 0.83914 0.64244 0.98342 0.0
C1401 C 0.85197 0.69509 0.96381 0.0
N1402 N 0.88518 0.60133 0.97956 0.0
N1403 N 0.87303 0.6753 0.96622 0.0
H1404 H 0.28796 0.81277 0.97983 0.0
H1405 H 0.38577 0.93285 0.03945 0.0
H1406 H 0.27628 0.84765 0.06214 0.0
H1407 H 0.38421 0.91044 0.9521 0.0
H1408 H 0.34249 0.9053 0.04701 0.0
H1409 H 0.31975 0.85132 0.96788 0.0
C1410 C 0.29181 0.82884 0.99524 0.0
C1411 C 0.27978 0.82694 0.02209 0.0
C1412 C 0.3513 0.90672 0.02609 0.0
C1413 C 0.3164 0.87092 0.00874 0.0
C1414 C 0.3761 0.92241 0.02176 0.0
C1415 C 0.38895 0.92357 0.99519 0.0
C1416 C 0.33942 0.89168 0.00376 0.0
C1417 C 0.37517 0.90997 0.97297 0.0
C1418 C 0.30989 0.85086 0.98841 0.0
C1419 C 0.28516 0.84838 0.04121 0.0
N1420 N 0.35144 0.89418 0.97786 0.0
N1421 N 0.30349 0.86925 0.03433 0.0
H1422 H 0.76955 0.18782 0.96065 0.0
H1423 H 0.65319 0.10782 0.0543 0.0
H1424 H 0.76637 0.19199 0.05055 0.0
H1425 H 0.65525 0.103 0.96413 0.0
H1426 H 0.696 0.13687 0.0532 0.0
H1427 H 0.72849 0.15573 0.9612 0.0
C1428 C 0.76001 0.18198 0.98047 0.0
C1429 C 0.77094 0.19243 0.00559 0.0
C1430 C 0.68719 0.12941 0.03363 0.0
C1431 C 0.72449 0.15583 0.00653 0.0
C1432 C 0.66273 0.11271 0.03423 0.0
C1433 C 0.65041 0.10305 0.00924 0.0
C1434 C 0.69948 0.13672 0.00785 0.0
C1435 C 0.66392 0.11002 0.98391 0.0
C1436 C 0.73673 0.16365 0.98082 0.0
C1437 C 0.75825 0.18432 0.03078 0.0
N1438 N 0.68761 0.12659 0.98386 0.0
N1439 N 0.73564 0.16647 0.03063 0.0
H1440 H 0.55531 0.71866 0.81323 0.0
H1441 H 0.45192 0.60372 0.87823 0.0
H1442 H 0.47593 0.69309 0.77406 0.0
H1443 H 0.53372 0.62759 0.91405 0.0
H1444 H 0.46277 0.6318 0.83697 0.0
H1445 H 0.55046 0.68105 0.84704 0.0
C1446 C 0.53702 0.70484 0.81158 0.0
C1447 C 0.51584 0.70912 0.79102 0.0
C1448 C 0.47847 0.63066 0.85373 0.0
C1449 C 0.50986 0.66615 0.82992 0.0
C1450 C 0.47229 0.61462 0.87732 0.0
C1451 C 0.49173 0.61367 0.89988 0.0
C1452 C 0.50422 0.64592 0.85272 0.0
C1453 C 0.5179 0.628 0.89737 0.0
C1454 C 0.53423 0.68336 0.83088 0.0
C1455 C 0.49274 0.69046 0.78959 0.0
N1456 N 0.52321 0.64373 0.8744 0.0
N1457 N 0.49012 0.67001 0.80907 0.0
H1458 H 0.39888 0.58014 0.78918 0.0
H1459 H 0.38136 0.54433 0.95186 0.0
H1460 H 0.32043 0.59398 0.83579 0.0
H1461 H 0.45607 0.52089 0.9029 0.0
H1462 H 0.36113 0.56774 0.91101 0.0
H1463 H 0.42257 0.56356 0.83203 0.0
C1464 C 0.3868 0.57985 0.80859 0.0
C1465 C 0.35781 0.58826 0.80925 0.0
C1466 C 0.38199 0.55755 0.9092 0.0
C1467 C 0.38439 0.5692 0.85802 0.0
C1468 C 0.39359 0.54417 0.93254 0.0
C1469 C 0.42034 0.53036 0.93075 0.0
C1470 C 0.39718 0.55711 0.88379 0.0
C1471 C 0.43525 0.53103 0.90518 0.0
C1472 C 0.40023 0.57035 0.83296 0.0
C1473 C 0.34288 0.58756 0.83464 0.0
N1474 N 0.4234 0.54406 0.88267 0.0
N1475 N 0.35631 0.57804 0.85808 0.0
H1476 H 0.42325 0.3334 0.80008 0.0
H1477 H 0.52877 0.35392 0.93152 0.0
H1478 H 0.47904 0.26888 0.83202 0.0
H1479 H 0.47573 0.41951 0.89692 0.0
H1480 H 0.50847 0.32167 0.89741 0.0
H1481 H 0.43975 0.3644 0.83749 0.0
C1482 C 0.43882 0.32578 0.81522 0.0
C1483 C 0.44985 0.29873 0.81323 0.0
C1484 C 0.50117 0.34309 0.89734 0.0
C1485 C 0.46902 0.33389 0.85581 0.0
C1486 C 0.51274 0.36155 0.91686 0.0
C1487 C 0.50407 0.38957 0.91706 0.0
C1488 C 0.48073 0.35263 0.8778 0.0
C1489 C 0.48317 0.39816 0.89753 0.0
C1490 C 0.4483 0.34343 0.83649 0.0
C1491 C 0.47005 0.28969 0.83306 0.0
N1492 N 0.47231 0.37981 0.87867 0.0
N1493 N 0.47909 0.30728 0.85353 0.0
H1494 H 0.64921 0.5423 0.79023 0.0
H1495 H 0.55267 0.47439 0.90896 0.0
H1496 H 0.66708 0.46381 0.83013 0.0
H1497 H 0.54639 0.56003 0.88295 0.0
H1498 H 0.58343 0.46471 0.86854 0.0
H1499 H 0.60146 0.54317 0.81252 0.0
C1500 C 0.64272 0.5249 0.80307 0.0
C1501 C 0.66216 0.5032 0.80884 0.0
C1502 C 0.57478 0.48548 0.87134 0.0
C1503 C 0.60797 0.50412 0.83446 0.0
C1504 C 0.55707 0.491 0.89435 0.0
C1505 C 0.5477 0.51825 0.89977 0.0
C1506 C 0.5831 0.50736 0.85374 0.0
C1507 C 0.55382 0.53886 0.87993 0.0
C1508 C 0.61558 0.52545 0.81588 0.0
C1509 C 0.65282 0.48117 0.82563 0.0
N1510 N 0.57163 0.53313 0.85808 0.0
N1511 N 0.62654 0.48237 0.83819 0.0
H1512 H 0.50307 0.29019 0.15549 0.0
H1513 H 0.5431 0.4401 0.13612 0.0
H1514 H 0.48779 0.34234 0.22788 0.0
H1515 H 0.48308 0.40462 0.07748 0.0
H1516 H 0.52888 0.40509 0.17083 0.0
H1517 H 0.50209 0.33113 0.12619 0.0
C1518 C 0.49886 0.30997 0.16544 0.0
C1519 C 0.49492 0.31224 0.1946 0.0
C1520 C 0.51823 0.40555 0.15066 0.0
C1521 C 0.49553 0.35974 0.16056 0.0
C1522 C 0.52623 0.42547 0.13095 0.0
C1523 C 0.51396 0.42527 0.10413 0.0
C1524 C 0.4988 0.38471 0.14295 0.0
C1525 C 0.49268 0.40561 0.0981 0.0
C1526 C 0.49857 0.33345 0.14848 0.0
C1527 C 0.49128 0.33919 0.20574 0.0
N1528 N 0.48634 0.38554 0.11712 0.0
N1529 N 0.49216 0.36192 0.18877 0.0
H1530 H 0.72042 0.45841 0.17223 0.0
H1531 H 0.57221 0.52698 0.12412 0.0
H1532 H 0.6643 0.50479 0.22747 0.0
H1533 H 0.62053 0.46994 0.07239 0.0
H1534 H 0.60286 0.51468 0.16379 0.0
H1535 H 0.68219 0.45843 0.13687 0.0
C1536 C 0.69997 0.46845 0.17698 0.0
C1537 C 0.69567 0.48192 0.20274 0.0
C1538 C 0.6065 0.50438 0.14395 0.0
C1539 C 0.65178 0.48197 0.16236 0.0
C1540 C 0.58894 0.51136 0.12131 0.0
C1541 C 0.59391 0.49943 0.09496 0.0
C1542 C 0.62968 0.48578 0.1401 0.0
C1543 C 0.61582 0.47935 0.09242 0.0
C1544 C 0.67809 0.46829 0.15685 0.0
C1545 C 0.66857 0.49412 0.20795 0.0
N1546 N 0.63328 0.4735 0.1146 0.0
N1547 N 0.64782 0.49416 0.18783 0.0
H1548 H 0.5373 0.72645 0.1761 0.0
H1549 H 0.55433 0.58317 0.09121 0.0
H1550 H 0.59496 0.6608 0.20209 0.0
H1551 H 0.48958 0.64574 0.07439 0.0
H1552 H 0.57491 0.61348 0.12745 0.0
H1553 H 0.5245 0.69926 0.13467 0.0
C1554 C 0.54735 0.7063 0.17289 0.0
C1555 C 0.56703 0.69567 0.19237 0.0
C1556 C 0.55644 0.62068 0.11552 0.0
C1557 C 0.55256 0.66431 0.14517 0.0
C1558 C 0.5449 0.60348 0.09464 0.0
C1559 C 0.52019 0.61188 0.07978 0.0
C1560 C 0.54322 0.64647 0.12137 0.0
C1561 C 0.50854 0.6383 0.08544 0.0
C1562 C 0.54008 0.69075 0.14929 0.0
C1563 C 0.57958 0.66955 0.18742 0.0
N1564 N 0.52001 0.6545 0.10579 0.0
N1565 N 0.57204 0.65463 0.16432 0.0
H1566 H 0.37436 0.57043 0.23084 0.0
H1567 H 0.42854 0.57463 0.07657 0.0
H1568 H 0.35523 0.63713 0.17358 0.0
H1569 H 0.46091 0.51548 0.13653 0.0
H1570 H 0.40967 0.60291 0.11428 0.0
H1571 H 0.41452 0.55595 0.20085 0.0
C1572 C 0.37939 0.58272 0.21254 0.0
C1573 C 0.3612 0.60464 0.2043 0.0
C1574 C 0.42142 0.58405 0.11937 0.0
C1575 C 0.40633 0.58773 0.16949 0.0
C1576 C 0.43239 0.56791 0.09763 0.0
C1577 C 0.44642 0.54267 0.10312 0.0
C1578 C 0.42368 0.57449 0.14701 0.0
C1579 C 0.44996 0.5347 0.13119 0.0
C1580 C 0.40214 0.57428 0.19524 0.0
C1581 C 0.36852 0.61979 0.18034 0.0
N1582 N 0.43823 0.55031 0.15207 0.0
N1583 N 0.3901 0.61064 0.1634 0.0
H1584 H 0.80619 0.48016 0.73101 0.0
H1585 H 0.92279 0.56711 0.64491 0.0
H1586 H 0.79444 0.56566 0.70703 0.0
H1587 H 0.92878 0.47874 0.65925 0.0
H1588 H 0.88114 0.56925 0.67628 0.0
H1589 H 0.85567 0.48139 0.71259 0.0
C1590 C 0.81425 0.49923 0.72198 0.0
C1591 C 0.79649 0.52275 0.72011 0.0
C1592 C 0.89188 0.54947 0.67292 0.0
C1593 C 0.85271 0.52448 0.69915 0.0
C1594 C 0.91585 0.54825 0.65517 0.0
C1595 C 0.92902 0.5226 0.64898 0.0
C1596 C 0.88106 0.52489 0.6846 0.0
C1597 C 0.91906 0.49891 0.66303 0.0
C1598 C 0.84242 0.49998 0.71155 0.0
C1599 C 0.80766 0.54707 0.70854 0.0
N1600 N 0.89544 0.50057 0.67983 0.0
N1601 N 0.83507 0.54728 0.69826 0.0
H1602 H 0.5574 0.78902 0.64713 0.0
H1603 H 0.50838 0.94653 0.61844 0.0
H1604 H 0.47924 0.82545 0.68009 0.0
H1605 H 0.58926 0.91143 0.58981 0.0
H1606 H 0.49545 0.90141 0.63788 0.0
H1607 H 0.56761 0.83266 0.62267 0.0
C1608 C 0.54228 0.80622 0.64889 0.0
C1609 C 0.51745 0.8039 0.66536 0.0
C1610 C 0.516 0.90355 0.62729 0.0
C1611 C 0.52895 0.85376 0.63791 0.0
C1612 C 0.52342 0.92934 0.61617 0.0
C1613 C 0.55008 0.93288 0.60266 0.0
C1614 C 0.53537 0.88106 0.62493 0.0
C1615 C 0.56856 0.90974 0.60019 0.0
C1616 C 0.5481 0.83111 0.63506 0.0
C1617 C 0.49855 0.82661 0.66735 0.0
N1618 N 0.56091 0.88488 0.61132 0.0
N1619 N 0.50472 0.8507 0.65384 0.0
H1620 H 0.25851 0.61326 0.67409 0.0
H1621 H 0.18072 0.49837 0.58141 0.0
H1622 H 0.26272 0.52521 0.68938 0.0
H1623 H 0.16041 0.58598 0.57795 0.0
H1624 H 0.2223 0.50875 0.61088 0.0
H1625 H 0.2343 0.60413 0.6293 0.0
C1626 C 0.25516 0.592 0.66749 0.0
C1627 C 0.26236 0.5699 0.68524 0.0
C1628 C 0.20901 0.52574 0.60328 0.0
C1629 C 0.23452 0.55931 0.63468 0.0
C1630 C 0.18526 0.51984 0.58639 0.0
C1631 C 0.16656 0.54127 0.57778 0.0
C1632 C 0.21409 0.55323 0.61167 0.0
C1633 C 0.17386 0.56873 0.58459 0.0
C1634 C 0.24119 0.58678 0.64212 0.0
C1635 C 0.25733 0.54272 0.67614 0.0
N1636 N 0.19678 0.57389 0.60154 0.0
N1637 N 0.24339 0.53818 0.65162 0.0
H1638 H 0.48118 0.21837 0.69221 0.0
H1639 H 0.47021 0.09028 0.58648 0.0
H1640 H 0.42572 0.14879 0.70918 0.0
H1641 H 0.54823 0.13625 0.60179 0.0
H1642 H 0.44549 0.11847 0.62229 0.0
H1643 H 0.49701 0.19564 0.649 0.0
C1644 C 0.47179 0.19862 0.6865 0.0
C1645 C 0.45222 0.18538 0.70438 0.0
C1646 C 0.46802 0.12225 0.61763 0.0
C1647 C 0.47036 0.15923 0.65504 0.0
C1648 C 0.48222 0.10595 0.59747 0.0
C1649 C 0.51172 0.10983 0.59202 0.0
C1650 C 0.48326 0.1432 0.63162 0.0
C1651 C 0.52566 0.1319 0.60565 0.0
C1652 C 0.48101 0.18558 0.66197 0.0
C1653 C 0.44106 0.15957 0.69607 0.0
N1654 N 0.51138 0.1476 0.62483 0.0
N1655 N 0.4504 0.14722 0.67204 0.0
H1656 H 0.77931 0.44339 0.34947 0.0
H1657 H 0.8802 0.54954 0.4332 0.0
H1658 H 0.77277 0.53227 0.34153 0.0
H1659 H 0.89015 0.46036 0.43637 0.0
H1660 H 0.83728 0.54376 0.404 0.0
H1661 H 0.81691 0.44926 0.38512 0.0
C1662 C 0.78582 0.46414 0.35544 0.0
C1663 C 0.77326 0.48741 0.34277 0.0
C1664 C 0.84873 0.52546 0.41129 0.0
C1665 C 0.81601 0.49441 0.38326 0.0
C1666 C 0.87318 0.52873 0.4281 0.0
C1667 C 0.88907 0.50541 0.43702 0.0
C1668 C 0.84006 0.49868 0.40336 0.0
C1669 C 0.87883 0.47897 0.42975 0.0
C1670 C 0.8072 0.46752 0.37574 0.0
C1671 C 0.78217 0.51388 0.35098 0.0
N1672 N 0.85515 0.47635 0.41319 0.0
N1673 N 0.80314 0.51671 0.3707 0.0
H1674 H 0.6086 0.84538 0.28305 0.0
H1675 H 0.50228 0.88732 0.408 0.0
H1676 H 0.53966 0.79289 0.31176 0.0
H1677 H 0.57293 0.93815 0.37975 0.0
H1678 H 0.51899 0.85007 0.37702 0.0
H1679 H 0.59958 0.87669 0.32236 0.0
C1680 C 0.59182 0.84025 0.29793 0.0
C1681 C 0.5747 0.81662 0.29401 0.0
C1682 C 0.53101 0.86926 0.3778 0.0
C1683 C 0.56389 0.85266 0.33898 0.0
C1684 C 0.52149 0.89058 0.39552 0.0
C1685 C 0.53598 0.91612 0.39625 0.0
C1686 C 0.55519 0.87346 0.36058 0.0
C1687 C 0.56084 0.91899 0.37969 0.0
C1688 C 0.58662 0.85817 0.32036 0.0
C1689 C 0.5534 0.81084 0.31405 0.0
N1690 N 0.56947 0.89806 0.36239 0.0
N1691 N 0.54832 0.82895 0.33545 0.0
H1692 H 0.22176 0.62777 0.31067 0.0
H1693 H 0.13002 0.49841 0.36416 0.0
H1694 H 0.24965 0.54261 0.30291 0.0
H1695 H 0.10253 0.58381 0.37368 0.0
H1696 H 0.16987 0.5138 0.33476 0.0
H1697 H 0.17484 0.61187 0.32823 0.0
C1698 C 0.21785 0.60571 0.31272 0.0
C1699 C 0.23938 0.58636 0.30589 0.0
C1700 C 0.15487 0.52914 0.34294 0.0
C1701 C 0.1861 0.56799 0.32553 0.0
C1702 C 0.13193 0.52034 0.35959 0.0
C1703 C 0.11317 0.53986 0.37194 0.0
C1704 C 0.15918 0.55767 0.33867 0.0
C1705 C 0.11667 0.568 0.365 0.0
C1706 C 0.19112 0.59662 0.32256 0.0
C1707 C 0.23348 0.55805 0.3084 0.0
N1708 N 0.13953 0.57608 0.34923 0.0
N1709 N 0.20741 0.54966 0.31823 0.0
H1710 H 0.46945 0.21382 0.31482 0.0
H1711 H 0.54782 0.10965 0.42245 0.0
H1712 H 0.5598 0.22014 0.33522 0.0
H1713 H 0.45752 0.10708 0.40011 0.0
H1714 H 0.55378 0.14964 0.39109 0.0
H1715 H 0.4655 0.17418 0.34645 0.0
C1716 C 0.48845 0.20674 0.32609 0.0
C1717 C 0.51491 0.22006 0.32265 0.0
C1718 C 0.5327 0.14022 0.39312 0.0
C1719 C 0.5108 0.17472 0.35886 0.0
C1720 C 0.52934 0.11731 0.41095 0.0
C1721 C 0.50223 0.10468 0.41384 0.0
C1722 C 0.50873 0.15058 0.3782 0.0
C1723 C 0.47891 0.11591 0.39864 0.0
C1724 C 0.48626 0.18413 0.34414 0.0
C1725 C 0.539 0.21024 0.33752 0.0
N1726 N 0.48273 0.13804 0.38158 0.0
N1727 N 0.53641 0.18808 0.35506 0.0
H1728 H 0.67546 0.79304 0.44014 0.0
H1729 H 0.64151 0.93976 0.51298 0.0
H1730 H 0.71541 0.82017 0.51667 0.0
H1731 H 0.60264 0.91321 0.43544 0.0
H1732 H 0.66626 0.8949 0.51635 0.0
H1733 H 0.64631 0.83584 0.43945 0.0
C1734 C 0.6779 0.80806 0.45684 0.0
C1735 C 0.69767 0.80339 0.47846 0.0
C1736 C 0.65222 0.89883 0.49866 0.0
C1737 C 0.66476 0.85219 0.4779 0.0
C1738 C 0.63802 0.92445 0.49674 0.0
C1739 C 0.62013 0.93039 0.47378 0.0
C1740 C 0.64856 0.87895 0.47745 0.0
C1741 C 0.61636 0.90965 0.45344 0.0
C1742 C 0.66134 0.83244 0.45648 0.0
C1743 C 0.70028 0.82325 0.49965 0.0
N1744 N 0.63057 0.88495 0.45569 0.0
N1745 N 0.68405 0.84689 0.49882 0.0
H1746 H 0.65136 0.26251 0.50116 0.0
H1747 H 0.62763 0.10155 0.53293 0.0
H1748 H 0.71653 0.20888 0.53673 0.0
H1749 H 0.5673 0.15284 0.48743 0.0
H1750 H 0.65567 0.14289 0.54448 0.0
H1751 H 0.61624 0.22479 0.50483 0.0
C1752 C 0.65807 0.24278 0.50999 0.0
C1753 C 0.68664 0.23843 0.51848 0.0
C1754 C 0.63591 0.14522 0.53256 0.0
C1755 C 0.64699 0.19536 0.5227 0.0
C1756 C 0.61961 0.12167 0.52646 0.0
C1757 C 0.59499 0.12388 0.50957 0.0
C1758 C 0.62754 0.17106 0.52143 0.0
C1759 C 0.58622 0.15031 0.50053 0.0
C1760 C 0.63812 0.2213 0.51213 0.0
C1761 C 0.69455 0.21275 0.52986 0.0
N1762 N 0.60264 0.17284 0.50631 0.0
N1763 N 0.67485 0.192 0.53145 0.0
H1764 H 0.79477 0.6812 0.51053 0.0
H1765 H 0.95116 0.61321 0.4853 0.0
H1766 H 0.86379 0.72316 0.46753 0.0
H1767 H 0.88953 0.5836 0.5456 0.0
H1768 H 0.91573 0.64822 0.46977 0.0
H1769 H 0.82558 0.63992 0.51455 0.0
C1770 C 0.81624 0.68156 0.50151 0.0
C1771 C 0.82685 0.70574 0.48894 0.0
C1772 C 0.9098 0.63371 0.48604 0.0
C1773 C 0.86233 0.65868 0.4937 0.0
C1774 C 0.92985 0.61354 0.49458 0.0
C1775 C 0.923 0.5954 0.51642 0.0
C1776 C 0.88279 0.63553 0.49946 0.0
C1777 C 0.89553 0.59729 0.52864 0.0
C1778 C 0.83389 0.65807 0.50398 0.0
C1779 C 0.85495 0.70509 0.47781 0.0
N1780 N 0.87645 0.61705 0.52005 0.0
N1781 N 0.8718 0.68201 0.48061 0.0
H1782 H 0.30236 0.84767 0.49753 0.0
H1783 H 0.44749 0.8973 0.57229 0.0
H1784 H 0.33472 0.81192 0.57416 0.0
H1785 H 0.41243 0.9346 0.49743 0.0
H1786 H 0.41028 0.86161 0.56987 0.0
H1787 H 0.34606 0.87547 0.49397 0.0
C1788 C 0.31876 0.84563 0.51358 0.0
C1789 C 0.31471 0.82778 0.53641 0.0
C1790 C 0.41092 0.87743 0.55382 0.0
C1791 C 0.36495 0.85951 0.53242 0.0
C1792 C 0.43222 0.89779 0.55513 0.0
C1793 C 0.43285 0.91922 0.53523 0.0
C1794 C 0.39008 0.87851 0.53249 0.0
C1795 C 0.4126 0.91868 0.51339 0.0
C1796 C 0.34377 0.86142 0.51147 0.0
C1797 C 0.33696 0.82546 0.55624 0.0
N1798 N 0.39189 0.89884 0.51278 0.0
N1799 N 0.361 0.8414 0.55396 0.0
H1800 H 0.1998 0.29168 0.46345 0.0
H1801 H 0.14251 0.43796 0.52273 0.0
H1802 H 0.23379 0.33091 0.53728 0.0
H1803 H 0.11316 0.40182 0.44521 0.0
H1804 H 0.17229 0.39666 0.53104 0.0
H1805 H 0.16429 0.32959 0.4589 0.0
C1806 C 0.19952 0.30825 0.4788 0.0
C1807 C 0.21953 0.30845 0.50071 0.0
C1808 C 0.15922 0.39769 0.51229 0.0
C1809 C 0.17938 0.35178 0.49571 0.0
C1810 C 0.14215 0.42128 0.50754 0.0
C1811 C 0.12552 0.42354 0.48308 0.0
C1812 C 0.15969 0.37613 0.49246 0.0
C1813 C 0.1258 0.40112 0.46425 0.0
C1814 C 0.17935 0.32986 0.47622 0.0
C1815 C 0.21856 0.33019 0.52011 0.0
N1816 N 0.14275 0.37846 0.46925 0.0
N1817 N 0.19887 0.3511 0.5171 0.0
H1818 H 0.33478 0.20417 0.46992 0.0
H1819 H 0.39789 0.05083 0.48569 0.0
H1820 H 0.29064 0.13881 0.51452 0.0
H1821 H 0.45132 0.12158 0.5034 0.0
H1822 H 0.35705 0.08249 0.47638 0.0
H1823 H 0.37684 0.17327 0.46512 0.0
C1824 C 0.33366 0.18349 0.47867 0.0
C1825 C 0.30867 0.17435 0.49264 0.0
C1826 C 0.37801 0.09102 0.48144 0.0
C1827 C 0.35631 0.13858 0.48569 0.0
C1828 C 0.40129 0.07306 0.48641 0.0
C1829 C 0.42782 0.08378 0.49518 0.0
C1830 C 0.38161 0.11977 0.48485 0.0
C1831 C 0.43109 0.11269 0.49653 0.0
C1832 C 0.35762 0.16582 0.47553 0.0
C1833 C 0.30873 0.1469 0.50286 0.0
N1834 N 0.40814 0.12978 0.49161 0.0
N1835 N 0.33203 0.13004 0.49904 0.0
H1836 H 0.80106 0.34513 0.47507 0.0
H1837 H 0.9439 0.39542 0.5533 0.0
H1838 H 0.85914 0.29028 0.51952 0.0
H1839 H 0.89146 0.44939 0.5017 0.0
H1840 H 0.91449 0.35615 0.53875 0.0
H1841 H 0.83493 0.38327 0.48254 0.0
C1842 C 0.821 0.3411 0.48626 0.0
C1843 C 0.82727 0.31451 0.4967 0.0
C1844 C 0.90952 0.37654 0.53043 0.0
C1845 C 0.86607 0.35795 0.50535 0.0
C1846 C 0.92632 0.39899 0.53875 0.0
C1847 C 0.91991 0.42579 0.52897 0.0
C1848 C 0.88599 0.38091 0.51235 0.0
C1849 C 0.89701 0.42912 0.50997 0.0
C1850 C 0.84038 0.36282 0.49041 0.0
C1851 C 0.85355 0.31035 0.51081 0.0
N1852 N 0.88069 0.40697 0.50249 0.0
N1853 N 0.87185 0.33187 0.51489 0.0
H1854 H 0.21246 0.7207 0.50173 0.0
H1855 H 0.10154 0.60194 0.54684 0.0
H1856 H 0.2083 0.68867 0.58568 0.0
H1857 H 0.12091 0.62381 0.46148 0.0
H1858 H 0.13628 0.63659 0.56279 0.0
H1859 H 0.17424 0.68864 0.48781 0.0
C1860 C 0.20328 0.70689 0.51721 0.0
C1861 C 0.21332 0.70701 0.54473 0.0
C1862 C 0.13287 0.6337 0.54057 0.0
C1863 C 0.16984 0.67033 0.52919 0.0
C1864 C 0.11313 0.61374 0.53146 0.0
C1865 C 0.1086 0.60933 0.5028 0.0
C1866 C 0.1479 0.64962 0.52081 0.0
C1867 C 0.12371 0.62615 0.48383 0.0
C1868 C 0.18156 0.68859 0.50932 0.0
C1869 C 0.20093 0.68896 0.56419 0.0
N1870 N 0.14265 0.6454 0.49316 0.0
N1871 N 0.17977 0.67119 0.55603 0.0
loop_
_geom_bond_atom_site_label_1
_geom_bond_atom_site_label_2
_geom_bond_distance
_geom_bond_site_symmetry_2
_ccdc_geom_bond_type
H0 C3 0.929 . S
H1 C6 0.929 . S
H2 C8 0.930 . S
C3 H0 0.929 . S
C3 C4 1.398 . S
C3 C5 1.396 . S
C4 C3 1.398 . S
C4 C8 1.407 . S
C5 C3 1.396 . S
C5 C6 1.394 . S
C6 H1 0.929 . S
C6 C5 1.394 . S
C6 C7 1.382 . S
C7 C6 1.382 . S
C7 C8 1.392 . S
C7 N9 1.420 . S
C8 H2 0.930 . S
C8 C4 1.407 . S
C8 C7 1.392 . S
N9 C7 1.420 . S
N9 C10 1.244 . S
C10 N9 1.244 . S
H11 C14 0.929 . S
H12 C17 0.929 . S
H13 C19 0.930 . S
C14 H11 0.929 . S
C14 C15 1.398 . S
C14 C16 1.396 . S
C15 C14 1.398 . S
C15 C19 1.407 . S
C16 C14 1.396 . S
C16 C17 1.394 . S
C17 H12 0.929 . S
C17 C16 1.394 . S
C17 C18 1.382 . S
C18 C17 1.382 . S
C18 C19 1.392 . S
C18 N20 1.420 . S
C19 H13 0.930 . S
C19 C15 1.407 . S
C19 C18 1.392 . S
N20 C18 1.420 . S
N20 C21 1.244 . S
C21 N20 1.244 . S
H22 C25 0.929 . S
H23 C28 0.929 . S
H24 C30 0.930 . S
C25 H22 0.929 . S
C25 C26 1.398 . S
C25 C27 1.396 . S
C26 C25 1.398 . S
C26 C30 1.407 . S
C27 C25 1.396 . S
C27 C28 1.394 . S
C28 H23 0.929 . S
C28 C27 1.394 . S
C28 C29 1.382 . S
C29 C28 1.382 . S
C29 C30 1.392 . S
C29 N31 1.420 . S
C30 H24 0.930 . S
C30 C26 1.407 . S
C30 C29 1.392 . S
N31 C29 1.420 . S
N31 C32 1.244 . S
C32 N31 1.244 . S
H33 C36 0.929 . S
H34 C39 0.929 . S
H35 C41 0.930 . S
C36 H33 0.929 . S
C36 C37 1.398 . S
C36 C38 1.396 . S
C37 C36 1.398 . S
C37 C41 1.407 1_545 S
C38 C36 1.396 . S
C38 C39 1.394 1_545 S
C39 H34 0.929 . S
C39 C38 1.394 1_565 S
C39 C40 1.382 . S
C40 C39 1.382 . S
C40 C41 1.392 . S
C40 N42 1.420 . S
C41 H35 0.930 . S
C41 C37 1.407 1_565 S
C41 C40 1.392 . S
N42 C40 1.420 . S
N42 C43 1.244 1_565 S
C43 N42 1.244 1_545 S
H44 C47 0.935 . S
H45 C50 0.929 . S
H46 C52 0.930 . S
C47 H44 0.935 . S
C47 C48 1.395 1_655 S
C47 C49 1.394 1_655 S
C48 C47 1.395 1_455 S
C48 C52 1.407 . S
C49 C47 1.394 1_455 S
C49 C50 1.394 . S
C50 H45 0.929 . S
C50 C49 1.394 . S
C50 C51 1.382 . S
C51 C50 1.382 . S
C51 C52 1.392 . S
C51 N53 1.420 . S
C52 H46 0.930 . S
C52 C48 1.407 . S
C52 C51 1.392 . S
N53 C51 1.420 . S
N53 C54 1.244 1_455 S
C54 N53 1.244 1_655 S
H55 C58 0.931 . S
H56 C61 0.929 . S
H57 C63 0.930 . S
C58 H55 0.931 . S
C58 C59 1.398 . S
C58 C60 1.396 . S
C59 C58 1.398 . S
C59 C63 1.407 . S
C60 C58 1.396 . S
C60 C61 1.394 . S
C61 H56 0.929 . S
C61 C60 1.394 . S
C61 C62 1.382 . S
C62 C61 1.382 . S
C62 C63 1.392 . S
C62 N64 1.420 . S
C63 H57 0.930 . S
C63 C59 1.407 . S
C63 C62 1.392 . S
N64 C62 1.420 . S
N64 C65 1.244 . S
C65 N64 1.244 . S
H66 C69 0.929 . S
H67 C72 0.929 . S
H68 C74 0.930 . S
C69 H66 0.929 . S
C69 C70 1.398 . S
C69 C71 1.396 . S
C70 C69 1.398 . S
C70 C74 1.407 . S
C71 C69 1.396 . S
C71 C72 1.394 . S
C72 H67 0.929 . S
C72 C71 1.394 . S
C72 C73 1.382 . S
C73 C72 1.382 . S
C73 C74 1.392 . S
C73 N75 1.420 . S
C74 H68 0.930 . S
C74 C70 1.407 . S
C74 C73 1.392 . S
N75 C73 1.420 . S
N75 C76 1.244 . S
C76 N75 1.244 . S
H77 C80 0.929 . S
H78 C83 0.929 . S
H79 C85 0.930 . S
C80 H77 0.929 . S
C80 C81 1.398 . S
C80 C82 1.396 . S
C81 C80 1.398 . S
C81 C85 1.407 . S
C82 C80 1.396 . S
C82 C83 1.394 . S
C83 H78 0.929 . S
C83 C82 1.394 . S
C83 C84 1.382 . S
C84 C83 1.382 . S
C84 C85 1.392 . S
C84 N86 1.420 . S
C85 H79 0.930 . S
C85 C81 1.407 . S
C85 C84 1.392 . S
N86 C84 1.420 . S
N86 C87 1.244 . S
C87 N86 1.244 . S
H88 C91 0.929 . S
H89 C94 0.929 . S
H90 C96 0.930 . S
C91 H88 0.929 . S
C91 C92 1.398 . S
C91 C93 1.396 . S
C92 C91 1.398 . S
C92 C96 1.407 . S
C93 C91 1.396 . S
C93 C94 1.394 . S
C94 H89 0.929 . S
C94 C93 1.394 . S
C94 C95 1.382 . S
C95 C94 1.382 . S
C95 C96 1.392 . S
C95 N97 1.420 . S
C96 H90 0.930 . S
C96 C92 1.407 . S
C96 C95 1.392 . S
N97 C95 1.420 . S
N97 C98 1.244 . S
C98 N97 1.244 . S
H99 C102 0.929 . S
H100 C105 0.929 . S
H101 C107 0.930 . S
C102 H99 0.929 . S
C102 C103 1.398 . S
C102 C104 1.396 . S
C103 C102 1.398 . S
C103 C107 1.407 . S
C104 C102 1.396 . S
C104 C105 1.394 . S
C105 H100 0.929 . S
C105 C104 1.394 . S
C105 C106 1.382 . S
C106 C105 1.382 . S
C106 C107 1.392 . S
C106 N108 1.420 . S
C107 H101 0.930 . S
C107 C103 1.407 . S
C107 C106 1.392 . S
N108 C106 1.420 . S
N108 C109 1.244 . S
C109 N108 1.244 . S
H110 C113 0.929 . S
H111 C116 0.929 . S
H112 C118 0.930 . S
C113 H110 0.929 . S
C113 C114 1.398 1_554 S
C113 C115 1.396 1_554 S
C114 C113 1.398 1_556 S
C114 C118 1.407 . S
C115 C113 1.396 1_556 S
C115 C116 1.394 . S
C116 H111 0.929 . S
C116 C115 1.394 . S
C116 C117 1.382 . S
C117 C116 1.382 . S
C117 C118 1.392 . S
C117 N119 1.420 . S
C118 H112 0.930 . S
C118 C114 1.407 . S
C118 C117 1.392 . S
N119 C117 1.420 . S
N119 C120 1.244 1_556 S
C120 N119 1.244 1_554 S
H121 C124 0.938 . S
H122 C127 0.929 . S
H123 C129 0.930 . S
C124 H121 0.938 . S
C124 C125 1.395 1_556 S
C124 C126 1.392 1_556 S
C125 C124 1.395 1_554 S
C125 C129 1.407 . S
C126 C124 1.392 1_554 S
C126 C127 1.394 . S
C127 H122 0.929 . S
C127 C126 1.394 . S
C127 C128 1.382 . S
C128 C127 1.382 . S
C128 C129 1.392 . S
C128 N130 1.420 . S
C129 H123 0.930 . S
C129 C125 1.407 . S
C129 C128 1.392 . S
N130 C128 1.420 . S
N130 C131 1.244 . S
C131 N130 1.244 . S
H132 C135 0.929 . S
H133 C138 0.929 . S
H134 C140 0.930 . S
C135 H132 0.929 . S
C135 C136 1.398 . S
C135 C137 1.396 . S
C136 C135 1.398 . S
C136 C140 1.407 . S
C137 C135 1.396 . S
C137 C138 1.394 . S
C138 H133 0.929 . S
C138 C137 1.394 . S
C138 C139 1.382 . S
C139 C138 1.382 . S
C139 C140 1.392 . S
C139 N141 1.420 . S
C140 H134 0.930 . S
C140 C136 1.407 . S
C140 C139 1.392 . S
N141 C139 1.420 . S
N141 C142 1.244 . S
C142 N141 1.244 . S
H143 C146 0.929 . S
H144 C149 0.929 . S
H145 C151 0.930 . S
C146 H143 0.929 . S
C146 C147 1.398 . S
C146 C148 1.396 . S
C147 C146 1.398 . S
C147 C151 1.407 . S
C148 C146 1.396 . S
C148 C149 1.394 . S
C149 H144 0.929 . S
C149 C148 1.394 . S
C149 C150 1.382 . S
C150 C149 1.382 . S
C150 C151 1.392 . S
C150 N152 1.420 . S
C151 H145 0.930 . S
C151 C147 1.407 . S
C151 C150 1.392 . S
N152 C150 1.420 . S
N152 C153 1.244 . S
C153 N152 1.244 . S
H154 C157 0.929 . S
H155 C160 0.929 . S
H156 C162 0.930 . S
C157 H154 0.929 . S
C157 C158 1.398 . S
C157 C159 1.396 . S
C158 C157 1.398 . S
C158 C162 1.407 . S
C159 C157 1.396 . S
C159 C160 1.394 . S
C160 H155 0.929 . S
C160 C159 1.394 . S
C160 C161 1.382 . S
C161 C160 1.382 . S
C161 C162 1.392 . S
C161 N163 1.420 . S
C162 H156 0.930 . S
C162 C158 1.407 . S
C162 C161 1.392 . S
N163 C161 1.420 . S
N163 C164 1.244 . S
C164 N163 1.244 . S
H165 C168 0.929 . S
H166 C171 0.929 . S
H167 C173 0.930 . S
C168 H165 0.929 . S
C168 C169 1.398 . S
C168 C170 1.396 . S
C169 C168 1.398 . S
C169 C173 1.407 . S
C170 C168 1.396 . S
C170 C171 1.394 . S
C171 H166 0.929 . S
C171 C170 1.394 . S
C171 C172 1.382 . S
C172 C171 1.382 . S
C172 C173 1.392 . S
C172 N174 1.420 . S
C173 H167 0.930 . S
C173 C169 1.407 . S
C173 C172 1.392 . S
N174 C172 1.420 . S
N174 C175 1.244 . S
C175 N174 1.244 . S
H176 C179 0.929 . S
H177 C182 0.929 . S
H178 C184 0.930 . S
C179 H176 0.929 . S
C179 C180 1.398 . S
C179 C181 1.396 . S
C180 C179 1.398 . S
C180 C184 1.407 . S
C181 C179 1.396 . S
C181 C182 1.394 . S
C182 H177 0.929 . S
C182 C181 1.394 . S
C182 C183 1.382 . S
C183 C182 1.382 . S
C183 C184 1.392 . S
C183 N185 1.420 . S
C184 H178 0.930 . S
C184 C180 1.407 . S
C184 C183 1.392 . S
N185 C183 1.420 . S
N185 C186 1.244 . S
C186 N185 1.244 . S
H187 C190 0.929 . S
H188 C193 0.929 . S
H189 C195 0.930 . S
C190 H187 0.929 . S
C190 C191 1.398 . S
C190 C192 1.396 . S
C191 C190 1.398 . S
C191 C195 1.407 . S
C192 C190 1.396 . S
C192 C193 1.394 . S
C193 H188 0.929 . S
C193 C192 1.394 . S
C193 C194 1.382 . S
C194 C193 1.382 . S
C194 C195 1.392 . S
C194 N196 1.420 . S
C195 H189 0.930 . S
C195 C191 1.407 . S
C195 C194 1.392 . S
N196 C194 1.420 . S
N196 C197 1.244 . S
C197 N196 1.244 . S
H198 C201 0.929 . S
H199 C204 0.929 . S
H200 C206 0.930 . S
C201 H198 0.929 . S
C201 C202 1.398 . S
C201 C203 1.396 . S
C202 C201 1.398 . S
C202 C206 1.407 . S
C203 C201 1.396 . S
C203 C204 1.394 . S
C204 H199 0.929 . S
C204 C203 1.394 . S
C204 C205 1.382 . S
C205 C204 1.382 . S
C205 C206 1.392 . S
C205 N207 1.420 . S
C206 H200 0.930 . S
C206 C202 1.407 . S
C206 C205 1.392 . S
N207 C205 1.420 . S
N207 C208 1.244 . S
C208 N207 1.244 . S
H209 C212 0.929 . S
H210 C215 0.929 . S
H211 C217 0.930 . S
C212 H209 0.929 . S
C212 C213 1.398 . S
C212 C214 1.396 . S
C213 C212 1.398 . S
C213 C217 1.407 . S
C214 C212 1.396 . S
C214 C215 1.394 . S
C215 H210 0.929 . S
C215 C214 1.394 . S
C215 C216 1.382 . S
C216 C215 1.382 . S
C216 C217 1.392 . S
C216 N218 1.420 . S
C217 H211 0.930 . S
C217 C213 1.407 . S
C217 C216 1.392 . S
N218 C216 1.420 . S
N218 C219 1.244 . S
C219 N218 1.244 . S
H220 C223 0.929 . S
H221 C226 0.929 . S
H222 C228 0.930 . S
C223 H220 0.929 . S
C223 C224 1.398 . S
C223 C225 1.396 . S
C224 C223 1.398 . S
C224 C228 1.407 . S
C225 C223 1.396 . S
C225 C226 1.394 . S
C226 H221 0.929 . S
C226 C225 1.394 . S
C226 C227 1.382 . S
C227 C226 1.382 . S
C227 C228 1.392 . S
C227 N229 1.420 . S
C228 H222 0.930 . S
C228 C224 1.407 . S
C228 C227 1.392 . S
N229 C227 1.420 . S
N229 C230 1.244 . S
C230 N229 1.244 . S
H231 C234 0.929 . S
H232 C237 0.929 . S
H233 C239 0.930 . S
C234 H231 0.929 . S
C234 C235 1.398 . S
C234 C236 1.396 . S
C235 C234 1.398 . S
C235 C239 1.407 . S
C236 C234 1.396 . S
C236 C237 1.394 . S
C237 H232 0.929 . S
C237 C236 1.394 . S
C237 C238 1.382 . S
C238 C237 1.382 . S
C238 C239 1.392 . S
C238 N240 1.420 . S
C239 H233 0.930 . S
C239 C235 1.407 . S
C239 C238 1.392 . S
N240 C238 1.420 . S
N240 C241 1.244 . S
C241 N240 1.244 . S
H242 C245 0.929 . S
H243 C248 0.929 . S
H244 C250 0.930 . S
C245 H242 0.929 . S
C245 C246 1.398 . S
C245 C247 1.396 . S
C246 C245 1.398 . S
C246 C250 1.407 . S
C247 C245 1.396 . S
C247 C248 1.394 . S
C248 H243 0.929 . S
C248 C247 1.394 . S
C248 C249 1.382 . S
C249 C248 1.382 . S
C249 C250 1.392 . S
C249 N251 1.420 . S
C250 H244 0.930 . S
C250 C246 1.407 . S
C250 C249 1.392 . S
N251 C249 1.420 . S
N251 C252 1.244 . S
C252 N251 1.244 . S
H253 C256 0.929 . S
H254 C259 0.929 . S
H255 C261 0.930 . S
C256 H253 0.929 . S
C256 C257 1.398 . S
C256 C258 1.396 . S
C257 C256 1.398 . S
C257 C261 1.407 . S
C258 C256 1.396 . S
C258 C259 1.394 . S
C259 H254 0.929 . S
C259 C258 1.394 . S
C259 C260 1.382 . S
C260 C259 1.382 . S
C260 C261 1.392 . S
C260 N262 1.420 . S
C261 H255 0.930 . S
C261 C257 1.407 . S
C261 C260 1.392 . S
N262 C260 1.420 . S
N262 C263 1.244 . S
C263 N262 1.244 . S
Zn264 O266 1.933 1_665 S
Zn264 O284 1.985 . S
Zn264 O295 1.955 1_655 S
Zn265 O266 1.911 1_655 S
Zn265 O285 1.970 . S
Zn265 O301 1.945 1_655 S
Zn265 O308 1.981 . S
O266 Zn264 1.933 1_445 S
O266 Zn265 1.911 1_455 S
O266 H267 0.841 . S
H267 O266 0.841 . S
C268 O269 1.246 . S
C268 O297 1.276 . S
O269 C268 1.246 . S
Zn270 O272 1.911 . S
Zn270 O287 1.970 . S
Zn270 O304 1.945 . S
Zn270 O311 1.981 . S
Zn271 O272 1.933 1_565 S
Zn271 O286 1.985 . S
Zn271 O293 1.955 . S
O272 Zn270 1.911 . S
O272 Zn271 1.933 1_545 S
O272 H273 0.841 . S
H273 O272 0.841 . S
Zn274 O275 1.933 1_565 S
Zn274 O288 1.985 . S
Zn274 O297 1.955 . S
O275 Zn274 1.933 1_545 S
O275 Zn276 1.911 . S
O275 H277 0.841 . S
Zn276 O275 1.911 . S
Zn276 O289 1.970 . S
Zn276 O305 1.981 1_655 S
Zn276 O307 1.945 . S
H277 O275 0.841 . S
Zn278 O279 1.933 1_565 S
Zn278 O291 1.985 . S
Zn278 O299 1.955 . S
O279 Zn278 1.933 1_545 S
O279 H280 0.841 . S
O279 Zn281 1.911 . S
H280 O279 0.841 . S
Zn281 O279 1.911 . S
Zn281 O292 1.970 . S
Zn281 O302 1.981 . S
Zn281 O310 1.945 . S
C282 O283 1.246 . S
C282 O299 1.276 . S
O283 C282 1.246 . S
O284 Zn264 1.985 . S
O284 C294 1.245 1_565 S
O285 Zn265 1.970 . S
O285 C294 1.263 . S
O286 Zn271 1.985 . S
O286 C298 1.245 1_565 S
O287 Zn270 1.970 . S
O287 C298 1.263 . S
O288 Zn274 1.985 . S
O288 C303 1.245 1_565 S
O289 Zn276 1.970 . S
O289 C303 1.263 . S
C290 O301 1.262 . S
C290 O302 1.245 . S
O291 Zn278 1.985 . S
O291 C309 1.245 1_565 S
O292 Zn281 1.970 . S
O292 C309 1.263 . S
O293 Zn271 1.955 . S
O293 C312 1.276 . S
C294 O284 1.245 1_545 S
C294 O285 1.263 . S
O295 Zn264 1.955 1_455 S
O295 C314 1.276 . S
C296 O304 1.262 . S
C296 O305 1.245 . S
O297 C268 1.276 . S
O297 Zn274 1.955 . S
C298 O286 1.245 1_545 S
C298 O287 1.263 . S
O299 Zn278 1.955 . S
O299 C282 1.276 . S
C300 O307 1.262 . S
C300 O308 1.245 . S
O301 Zn265 1.945 1_455 S
O301 C290 1.262 . S
O302 Zn281 1.981 . S
O302 C290 1.245 . S
C303 O288 1.245 1_545 S
C303 O289 1.263 . S
O304 Zn270 1.945 . S
O304 C296 1.262 . S
O305 Zn276 1.981 1_455 S
O305 C296 1.245 . S
C306 O310 1.262 . S
C306 O311 1.245 . S
O307 Zn276 1.945 . S
O307 C300 1.262 . S
O308 Zn265 1.981 . S
O308 C300 1.245 . S
C309 O291 1.245 1_545 S
C309 O292 1.263 . S
O310 Zn281 1.945 . S
O310 C306 1.262 . S
O311 Zn270 1.981 . S
O311 C306 1.245 . S
C312 O293 1.276 . S
C312 O313 1.246 . S
O313 C312 1.246 . S
C314 O295 1.276 . S
C314 O315 1.246 . S
O315 C314 1.246 . S
Zn316 O318 1.933 . S
Zn316 O336 1.985 . S
Zn316 O347 1.955 . S
Zn317 O318 1.911 1_556 S
Zn317 O337 1.970 . S
Zn317 O353 1.945 . S
Zn317 O360 1.981 . S
O318 Zn316 1.933 . S
O318 Zn317 1.911 1_554 S
O318 H319 0.841 . S
H319 O318 0.841 . S
C320 O321 1.246 . S
C320 O349 1.276 . S
O321 C320 1.246 . S
Zn322 O324 1.911 1_556 S
Zn322 O339 1.970 . S
Zn322 O356 1.945 . S
Zn322 O363 1.981 . S
Zn323 O324 1.933 . S
Zn323 O338 1.985 . S
Zn323 O345 1.955 . S
O324 Zn322 1.911 1_554 S
O324 Zn323 1.933 . S
O324 H325 0.841 1_565 S
H325 O324 0.841 1_545 S
Zn326 O327 1.933 . S
Zn326 O340 1.985 . S
Zn326 O349 1.955 . S
O327 Zn326 1.933 . S
O327 Zn328 1.911 1_554 S
O327 H329 0.841 . S
Zn328 O327 1.911 1_556 S
Zn328 O341 1.970 . S
Zn328 O357 1.981 . S
Zn328 O359 1.945 . S
H329 O327 0.841 . S
Zn330 O331 1.933 . S
Zn330 O343 1.985 . S
Zn330 O351 1.955 . S
O331 Zn330 1.933 . S
O331 H332 0.841 . S
O331 Zn333 1.911 1_554 S
H332 O331 0.841 . S
Zn333 O331 1.911 1_556 S
Zn333 O344 1.970 . S
Zn333 O354 1.981 1_565 S
Zn333 O362 1.945 . S
C334 O335 1.246 . S
C334 O351 1.276 . S
O335 C334 1.246 . S
O336 Zn316 1.985 . S
O336 C346 1.245 . S
O337 Zn317 1.970 . S
O337 C346 1.263 1_556 S
O338 Zn323 1.985 . S
O338 C350 1.245 . S
O339 Zn322 1.970 . S
O339 C350 1.263 1_556 S
O340 Zn326 1.985 . S
O340 C355 1.245 . S
O341 Zn328 1.970 . S
O341 C355 1.263 1_556 S
C342 O353 1.262 . S
C342 O354 1.245 . S
O343 Zn330 1.985 . S
O343 C361 1.245 . S
O344 Zn333 1.970 . S
O344 C361 1.263 1_556 S
O345 Zn323 1.955 . S
O345 C364 1.276 1_565 S
C346 O336 1.245 . S
C346 O337 1.263 1_554 S
O347 Zn316 1.955 . S
O347 C366 1.276 . S
C348 O356 1.262 1_545 S
C348 O357 1.245 . S
O349 C320 1.276 . S
O349 Zn326 1.955 . S
C350 O338 1.245 . S
C350 O339 1.263 1_554 S
O351 Zn330 1.955 . S
O351 C334 1.276 . S
C352 O359 1.262 . S
C352 O360 1.245 . S
O353 Zn317 1.945 . S
O353 C342 1.262 . S
O354 Zn333 1.981 1_545 S
O354 C342 1.245 . S
C355 O340 1.245 . S
C355 O341 1.263 1_554 S
O356 Zn322 1.945 . S
O356 C348 1.262 1_565 S
O357 Zn328 1.981 . S
O357 C348 1.245 . S
C358 O362 1.262 . S
C358 O363 1.245 . S
O359 Zn328 1.945 . S
O359 C352 1.262 . S
O360 Zn317 1.981 . S
O360 C352 1.245 . S
C361 O343 1.245 . S
C361 O344 1.263 1_554 S
O362 Zn333 1.945 . S
O362 C358 1.262 . S
O363 Zn322 1.981 . S
O363 C358 1.245 . S
C364 O345 1.276 1_545 S
C364 O365 1.246 . S
O365 C364 1.246 . S
C366 O347 1.276 . S
C366 O367 1.246 . S
O367 C366 1.246 . S
Zn368 O370 1.933 . S
Zn368 O388 1.985 . S
Zn368 O399 1.955 . S
Zn369 O370 1.911 . S
Zn369 O389 1.970 . S
Zn369 O405 1.945 . S
Zn369 O412 1.981 . S
O370 Zn368 1.933 . S
O370 Zn369 1.911 . S
O370 H371 0.841 1_655 S
H371 O370 0.841 1_455 S
C372 O373 1.246 1_554 S
C372 O401 1.276 . S
O373 C372 1.246 1_556 S
Zn374 O376 1.911 . S
Zn374 O391 1.970 . S
Zn374 O408 1.945 . S
Zn374 O415 1.981 . S
Zn375 O376 1.933 . S
Zn375 O390 1.985 . S
Zn375 O397 1.955 . S
O376 Zn374 1.911 . S
O376 Zn375 1.933 . S
O376 H377 0.841 . S
H377 O376 0.841 . S
Zn378 O379 1.933 . S
Zn378 O392 1.985 . S
Zn378 O401 1.955 . S
O379 Zn378 1.933 . S
O379 Zn380 1.911 . S
O379 H381 0.841 . S
Zn380 O379 1.911 . S
Zn380 O393 1.970 . S
Zn380 O409 1.981 . S
Zn380 O411 1.945 . S
H381 O379 0.841 . S
Zn382 O383 1.933 . S
Zn382 O395 1.985 . S
Zn382 O403 1.955 . S
O383 Zn382 1.933 . S
O383 H384 0.841 . S
O383 Zn385 1.911 . S
H384 O383 0.841 . S
Zn385 O383 1.911 . S
Zn385 O396 1.970 . S
Zn385 O406 1.981 . S
Zn385 O414 1.945 . S
C386 O387 1.246 . S
C386 O403 1.276 1_554 S
O387 C386 1.246 . S
O388 Zn368 1.985 . S
O388 C398 1.245 . S
O389 Zn369 1.970 . S
O389 C398 1.263 . S
O390 Zn375 1.985 . S
O390 C402 1.245 . S
O391 Zn374 1.970 . S
O391 C402 1.263 . S
O392 Zn378 1.985 . S
O392 C407 1.245 . S
O393 Zn380 1.970 . S
O393 C407 1.263 . S
C394 O405 1.262 1_455 S
C394 O406 1.245 . S
O395 Zn382 1.985 . S
O395 C413 1.245 . S
O396 Zn385 1.970 . S
O396 C413 1.263 . S
O397 Zn375 1.955 . S
O397 C416 1.276 . S
C398 O388 1.245 . S
C398 O389 1.263 . S
O399 Zn368 1.955 . S
O399 C418 1.276 1_655 S
C400 O408 1.262 . S
C400 O409 1.245 1_455 S
O401 C372 1.276 . S
O401 Zn378 1.955 . S
C402 O390 1.245 . S
C402 O391 1.263 . S
O403 Zn382 1.955 . S
O403 C386 1.276 1_556 S
C404 O411 1.262 . S
C404 O412 1.245 1_554 S
O405 Zn369 1.945 . S
O405 C394 1.262 1_655 S
O406 Zn385 1.981 . S
O406 C394 1.245 . S
C407 O392 1.245 . S
C407 O393 1.263 . S
O408 Zn374 1.945 . S
O408 C400 1.262 . S
O409 Zn380 1.981 . S
O409 C400 1.245 1_655 S
C410 O414 1.262 1_554 S
C410 O415 1.245 . S
O411 Zn380 1.945 . S
O411 C404 1.262 . S
O412 Zn369 1.981 . S
O412 C404 1.245 1_556 S
C413 O395 1.245 . S
C413 O396 1.263 . S
O414 Zn385 1.945 . S
O414 C410 1.262 1_556 S
O415 Zn374 1.981 . S
O415 C410 1.245 . S
C416 O397 1.276 . S
C416 O417 1.246 1_455 S
O417 C416 1.246 1_655 S
C418 O399 1.276 1_455 S
C418 O419 1.246 . S
O419 C418 1.246 . S
Zn420 O422 1.933 1_556 S
Zn420 O440 1.985 . S
Zn420 O451 1.955 . S
Zn421 O422 1.911 . S
Zn421 O441 1.970 . S
Zn421 O457 1.945 . S
Zn421 O464 1.981 . S
O422 Zn420 1.933 1_554 S
O422 Zn421 1.911 . S
O422 H423 0.841 . S
H423 O422 0.841 . S
C424 O425 1.246 . S
C424 O453 1.276 . S
O425 C424 1.246 . S
Zn426 O428 1.911 . S
Zn426 O443 1.970 . S
Zn426 O460 1.945 . S
Zn426 O467 1.981 . S
Zn427 O428 1.933 1_556 S
Zn427 O442 1.985 . S
Zn427 O449 1.955 . S
O428 Zn426 1.911 . S
O428 Zn427 1.933 1_554 S
O428 H429 0.841 . S
H429 O428 0.841 . S
Zn430 O431 1.933 1_556 S
Zn430 O444 1.985 . S
Zn430 O453 1.955 . S
O431 Zn430 1.933 1_554 S
O431 Zn432 1.911 . S
O431 H433 0.841 . S
Zn432 O431 1.911 . S
Zn432 O445 1.970 . S
Zn432 O461 1.981 . S
Zn432 O463 1.945 . S
H433 O431 0.841 . S
Zn434 O435 1.933 1_556 S
Zn434 O447 1.985 . S
Zn434 O455 1.955 . S
O435 Zn434 1.933 1_554 S
O435 H436 0.841 . S
O435 Zn437 1.911 . S
H436 O435 0.841 . S
Zn437 O435 1.911 . S
Zn437 O448 1.970 . S
Zn437 O458 1.981 . S
Zn437 O466 1.945 . S
C438 O439 1.246 . S
C438 O455 1.276 . S
O439 C438 1.246 . S
O440 Zn420 1.985 . S
O440 C450 1.245 1_556 S
O441 Zn421 1.970 . S
O441 C450 1.263 . S
O442 Zn427 1.985 . S
O442 C454 1.245 1_556 S
O443 Zn426 1.970 . S
O443 C454 1.263 . S
O444 Zn430 1.985 . S
O444 C459 1.245 1_556 S
O445 Zn432 1.970 . S
O445 C459 1.263 . S
C446 O457 1.262 . S
C446 O458 1.245 . S
O447 Zn434 1.985 . S
O447 C465 1.245 1_556 S
O448 Zn437 1.970 . S
O448 C465 1.263 . S
O449 Zn427 1.955 . S
O449 C468 1.276 . S
C450 O440 1.245 1_554 S
C450 O441 1.263 . S
O451 Zn420 1.955 . S
O451 C470 1.276 . S
C452 O460 1.262 . S
C452 O461 1.245 . S
O453 C424 1.276 . S
O453 Zn430 1.955 . S
C454 O442 1.245 1_554 S
C454 O443 1.263 . S
O455 Zn434 1.955 . S
O455 C438 1.276 . S
C456 O463 1.262 . S
C456 O464 1.245 . S
O457 Zn421 1.945 . S
O457 C446 1.262 . S
O458 Zn437 1.981 . S
O458 C446 1.245 . S
C459 O444 1.245 1_554 S
C459 O445 1.263 . S
O460 Zn426 1.945 . S
O460 C452 1.262 . S
O461 Zn432 1.981 . S
O461 C452 1.245 . S
C462 O466 1.262 . S
C462 O467 1.245 . S
O463 Zn432 1.945 . S
O463 C456 1.262 . S
O464 Zn421 1.981 . S
O464 C456 1.245 . S
C465 O447 1.245 1_554 S
C465 O448 1.263 . S
O466 Zn437 1.945 . S
O466 C462 1.262 . S
O467 Zn426 1.981 . S
O467 C462 1.245 . S
C468 O449 1.276 . S
C468 O469 1.246 . S
O469 C468 1.246 . S
C470 O451 1.276 . S
C470 O471 1.246 . S
O471 C470 1.246 . S
Zn472 O474 1.933 . S
Zn472 O492 1.985 . S
Zn472 O503 1.955 . S
Zn473 O474 1.911 . S
Zn473 O493 1.970 . S
Zn473 O509 1.945 . S
Zn473 O516 1.981 . S
O474 Zn472 1.933 . S
O474 Zn473 1.911 . S
O474 H475 0.841 1_655 S
H475 O474 0.841 1_455 S
C476 O477 1.246 . S
C476 O505 1.276 . S
O477 C476 1.246 . S
Zn478 O480 1.911 . S
Zn478 O495 1.970 . S
Zn478 O512 1.945 . S
Zn478 O519 1.981 . S
Zn479 O480 1.933 . S
Zn479 O494 1.985 . S
Zn479 O501 1.955 . S
O480 Zn478 1.911 . S
O480 Zn479 1.933 . S
O480 H481 0.841 . S
H481 O480 0.841 . S
Zn482 O483 1.933 . S
Zn482 O496 1.985 . S
Zn482 O505 1.955 . S
O483 Zn482 1.933 . S
O483 Zn484 1.911 . S
O483 H485 0.841 . S
Zn484 O483 1.911 . S
Zn484 O497 1.970 . S
Zn484 O513 1.981 1_655 S
Zn484 O515 1.945 . S
H485 O483 0.841 . S
Zn486 O487 1.933 . S
Zn486 O499 1.985 . S
Zn486 O507 1.955 . S
O487 Zn486 1.933 . S
O487 H488 0.841 . S
O487 Zn489 1.911 . S
H488 O487 0.841 . S
Zn489 O487 1.911 . S
Zn489 O500 1.970 . S
Zn489 O510 1.981 . S
Zn489 O518 1.945 . S
C490 O491 1.246 . S
C490 O507 1.276 . S
O491 C490 1.246 . S
O492 Zn472 1.985 . S
O492 C502 1.245 . S
O493 Zn473 1.970 . S
O493 C502 1.263 . S
O494 Zn479 1.985 . S
O494 C506 1.245 . S
O495 Zn478 1.970 . S
O495 C506 1.263 . S
O496 Zn482 1.985 . S
O496 C511 1.245 . S
O497 Zn484 1.970 . S
O497 C511 1.263 . S
C498 O509 1.262 1_455 S
C498 O510 1.245 . S
O499 Zn486 1.985 . S
O499 C517 1.245 . S
O500 Zn489 1.970 . S
O500 C517 1.263 . S
O501 Zn479 1.955 . S
O501 C520 1.276 . S
C502 O492 1.245 . S
C502 O493 1.263 . S
O503 Zn472 1.955 . S
O503 C522 1.276 1_655 S
C504 O512 1.262 . S
C504 O513 1.245 . S
O505 C476 1.276 . S
O505 Zn482 1.955 . S
C506 O494 1.245 . S
C506 O495 1.263 . S
O507 Zn486 1.955 . S
O507 C490 1.276 . S
C508 O515 1.262 . S
C508 O516 1.245 . S
O509 Zn473 1.945 . S
O509 C498 1.262 1_655 S
O510 Zn489 1.981 . S
O510 C498 1.245 . S
C511 O496 1.245 . S
C511 O497 1.263 . S
O512 Zn478 1.945 . S
O512 C504 1.262 . S
O513 Zn484 1.981 1_455 S
O513 C504 1.245 . S
C514 O518 1.262 . S
C514 O519 1.245 . S
O515 Zn484 1.945 . S
O515 C508 1.262 . S
O516 Zn473 1.981 . S
O516 C508 1.245 . S
C517 O499 1.245 . S
C517 O500 1.263 . S
O518 Zn489 1.945 . S
O518 C514 1.262 . S
O519 Zn478 1.981 . S
O519 C514 1.245 . S
C520 O501 1.276 . S
C520 O521 1.246 . S
O521 C520 1.246 . S
C522 O503 1.276 1_455 S
C522 O523 1.246 . S
O523 C522 1.246 . S
Zn524 O526 1.933 1_565 S
Zn524 O544 1.985 . S
Zn524 O555 1.955 . S
Zn525 O526 1.911 . S
Zn525 O545 1.970 . S
Zn525 O561 1.945 . S
Zn525 O568 1.981 . S
O526 Zn524 1.933 1_545 S
O526 Zn525 1.911 . S
O526 H527 0.841 . S
H527 O526 0.841 . S
C528 O529 1.246 . S
C528 O557 1.276 . S
O529 C528 1.246 . S
Zn530 O532 1.911 . S
Zn530 O547 1.970 . S
Zn530 O564 1.945 . S
Zn530 O571 1.981 . S
Zn531 O532 1.933 1_565 S
Zn531 O546 1.984 . S
Zn531 O553 1.955 . S
O532 Zn530 1.911 . S
O532 Zn531 1.933 1_545 S
O532 H533 0.841 . S
H533 O532 0.841 . S
Zn534 O535 1.933 1_565 S
Zn534 O548 1.985 . S
Zn534 O557 1.955 . S
O535 Zn534 1.933 1_545 S
O535 Zn536 1.911 . S
O535 H537 0.841 . S
Zn536 O535 1.911 . S
Zn536 O549 1.970 . S
Zn536 O565 1.981 . S
Zn536 O567 1.945 . S
H537 O535 0.841 . S
Zn538 O539 1.933 1_565 S
Zn538 O551 1.985 . S
Zn538 O559 1.955 . S
O539 Zn538 1.933 1_545 S
O539 H540 0.841 . S
O539 Zn541 1.911 . S
H540 O539 0.841 . S
Zn541 O539 1.911 . S
Zn541 O552 1.970 . S
Zn541 O562 1.981 . S
Zn541 O570 1.945 . S
C542 O543 1.246 . S
C542 O559 1.276 . S
O543 C542 1.246 . S
O544 Zn524 1.985 . S
O544 C554 1.245 1_565 S
O545 Zn525 1.970 . S
O545 C554 1.263 . S
O546 Zn531 1.984 . S
O546 C558 1.248 1_565 S
O547 Zn530 1.970 . S
O547 C558 1.263 . S
O548 Zn534 1.985 . S
O548 C563 1.245 1_565 S
O549 Zn536 1.970 . S
O549 C563 1.263 . S
C550 O561 1.262 . S
C550 O562 1.245 . S
O551 Zn538 1.985 . S
O551 C569 1.244 1_565 S
O552 Zn541 1.970 . S
O552 C569 1.263 . S
O553 Zn531 1.955 . S
O553 C572 1.276 . S
C554 O544 1.245 1_545 S
C554 O545 1.263 . S
O555 Zn524 1.955 . S
O555 C574 1.276 . S
C556 O564 1.262 . S
C556 O565 1.245 . S
O557 C528 1.276 . S
O557 Zn534 1.955 . S
C558 O546 1.248 1_545 S
C558 O547 1.263 . S
O559 Zn538 1.955 . S
O559 C542 1.276 . S
C560 O567 1.262 . S
C560 O568 1.245 . S
O561 Zn525 1.945 . S
O561 C550 1.262 . S
O562 Zn541 1.981 . S
O562 C550 1.245 . S
C563 O548 1.245 1_545 S
C563 O549 1.263 . S
O564 Zn530 1.945 . S
O564 C556 1.262 . S
O565 Zn536 1.981 . S
O565 C556 1.245 . S
C566 O570 1.262 . S
C566 O571 1.245 . S
O567 Zn536 1.945 . S
O567 C560 1.262 . S
O568 Zn525 1.981 . S
O568 C560 1.245 . S
C569 O551 1.244 1_545 S
C569 O552 1.263 . S
O570 Zn541 1.945 . S
O570 C566 1.262 . S
O571 Zn530 1.981 . S
O571 C566 1.245 . S
C572 O553 1.276 . S
C572 O573 1.246 . S
O573 C572 1.246 . S
C574 O555 1.276 . S
C574 O575 1.246 . S
O575 C574 1.246 . S
H576 C582 0.930 . S
H577 C586 0.930 . S
H578 C591 0.929 . S
H579 C589 0.929 . S
H580 C584 0.929 . S
H581 C590 0.929 . S
C582 H576 0.930 . S
C582 C583 1.367 . S
C582 C590 1.378 . S
C583 C582 1.367 . S
C583 C591 1.433 . S
C584 H580 0.929 . S
C584 C586 1.378 . S
C584 C588 1.350 . S
C585 C588 1.463 . S
C585 C590 1.350 . S
C585 N593 1.427 . S
C586 H577 0.930 . S
C586 C584 1.378 . S
C586 C587 1.367 . S
C587 C586 1.367 . S
C587 C589 1.433 . S
C588 C584 1.350 . S
C588 C585 1.463 . S
C588 N592 1.427 . S
C589 H579 0.929 . S
C589 C587 1.433 . S
C589 N592 1.384 . S
C590 H581 0.929 . S
C590 C582 1.378 . S
C590 C585 1.350 . S
C591 H578 0.929 . S
C591 C583 1.433 . S
C591 N593 1.384 . S
N592 C588 1.427 . S
N592 C589 1.384 . S
N593 C585 1.427 . S
N593 C591 1.384 . S
H594 C600 0.930 . S
H595 C604 0.930 . S
H596 C609 0.929 . S
H597 C607 0.929 . S
H598 C602 0.929 . S
H599 C608 0.929 . S
C600 H594 0.930 . S
C600 C601 1.367 . S
C600 C608 1.378 . S
C601 C600 1.367 . S
C601 C609 1.433 . S
C602 H598 0.929 . S
C602 C604 1.378 . S
C602 C606 1.350 . S
C603 C606 1.463 . S
C603 C608 1.350 . S
C603 N611 1.427 . S
C604 H595 0.930 . S
C604 C602 1.378 . S
C604 C605 1.367 . S
C605 C604 1.367 . S
C605 C607 1.433 . S
C606 C602 1.350 . S
C606 C603 1.463 . S
C606 N610 1.427 . S
C607 H597 0.929 . S
C607 C605 1.433 . S
C607 N610 1.384 . S
C608 H599 0.929 . S
C608 C600 1.378 . S
C608 C603 1.350 . S
C609 H596 0.929 . S
C609 C601 1.433 . S
C609 N611 1.384 . S
N610 C606 1.427 . S
N610 C607 1.384 . S
N611 C603 1.427 . S
N611 C609 1.384 . S
H612 C618 0.930 . S
H613 C622 0.930 . S
H614 C627 0.929 . S
H615 C625 0.929 . S
H616 C620 0.929 . S
H617 C626 0.929 . S
C618 H612 0.930 . S
C618 C619 1.367 . S
C618 C626 1.378 . S
C619 C618 1.367 . S
C619 C627 1.433 . S
C620 H616 0.929 . S
C620 C622 1.378 . S
C620 C624 1.350 . S
C621 C624 1.463 . S
C621 C626 1.350 . S
C621 N629 1.427 . S
C622 H613 0.930 . S
C622 C620 1.378 . S
C622 C623 1.367 . S
C623 C622 1.367 . S
C623 C625 1.433 . S
C624 C620 1.350 . S
C624 C621 1.463 . S
C624 N628 1.427 . S
C625 H615 0.929 . S
C625 C623 1.433 . S
C625 N628 1.384 . S
C626 H617 0.929 . S
C626 C618 1.378 . S
C626 C621 1.350 . S
C627 H614 0.929 . S
C627 C619 1.433 . S
C627 N629 1.384 . S
N628 C624 1.427 . S
N628 C625 1.384 . S
N629 C621 1.427 . S
N629 C627 1.384 . S
H630 C636 0.930 . S
H631 C640 0.930 . S
H632 C645 0.929 . S
H633 C643 0.929 . S
H634 C638 0.929 . S
H635 C644 0.929 . S
C636 H630 0.930 . S
C636 C637 1.367 . S
C636 C644 1.378 . S
C637 C636 1.367 . S
C637 C645 1.433 . S
C638 H634 0.929 . S
C638 C640 1.378 . S
C638 C642 1.350 . S
C639 C642 1.463 . S
C639 C644 1.350 . S
C639 N647 1.427 . S
C640 H631 0.930 . S
C640 C638 1.378 . S
C640 C641 1.367 . S
C641 C640 1.367 . S
C641 C643 1.433 . S
C642 C638 1.350 . S
C642 C639 1.463 . S
C642 N646 1.427 . S
C643 H633 0.929 . S
C643 C641 1.433 . S
C643 N646 1.384 . S
C644 H635 0.929 . S
C644 C636 1.378 . S
C644 C639 1.350 . S
C645 H632 0.929 . S
C645 C637 1.433 . S
C645 N647 1.384 . S
N646 C642 1.427 . S
N646 C643 1.384 . S
N647 C639 1.427 . S
N647 C645 1.384 . S
H648 C654 0.930 . S
H649 C658 0.930 . S
H650 C663 0.929 . S
H651 C661 0.929 . S
H652 C656 0.929 . S
H653 C662 0.929 . S
C654 H648 0.930 . S
C654 C655 1.367 . S
C654 C662 1.378 . S
C655 C654 1.367 . S
C655 C663 1.433 . S
C656 H652 0.929 . S
C656 C658 1.378 . S
C656 C660 1.350 . S
C657 C660 1.463 . S
C657 C662 1.350 . S
C657 N665 1.427 . S
C658 H649 0.930 . S
C658 C656 1.378 . S
C658 C659 1.367 . S
C659 C658 1.367 . S
C659 C661 1.433 . S
C660 C656 1.350 . S
C660 C657 1.463 . S
C660 N664 1.427 . S
C661 H651 0.929 . S
C661 C659 1.433 . S
C661 N664 1.384 . S
C662 H653 0.929 . S
C662 C654 1.378 . S
C662 C657 1.350 . S
C663 H650 0.929 . S
C663 C655 1.433 . S
C663 N665 1.384 . S
N664 C660 1.427 . S
N664 C661 1.384 . S
N665 C657 1.427 . S
N665 C663 1.384 . S
H666 C672 0.930 . S
H667 C676 0.930 . S
H668 C681 0.929 . S
H669 C679 0.929 . S
H670 C674 0.929 . S
H671 C680 0.929 . S
C672 H666 0.930 . S
C672 C673 1.367 . S
C672 C680 1.378 . S
C673 C672 1.367 . S
C673 C681 1.433 . S
C674 H670 0.929 . S
C674 C676 1.378 . S
C674 C678 1.350 . S
C675 C678 1.463 . S
C675 C680 1.350 . S
C675 N683 1.427 . S
C676 H667 0.930 . S
C676 C674 1.378 . S
C676 C677 1.367 . S
C677 C676 1.367 . S
C677 C679 1.433 . S
C678 C674 1.350 . S
C678 C675 1.463 . S
C678 N682 1.427 . S
C679 H669 0.929 . S
C679 C677 1.433 . S
C679 N682 1.384 . S
C680 H671 0.929 . S
C680 C672 1.378 . S
C680 C675 1.350 . S
C681 H668 0.929 . S
C681 C673 1.433 . S
C681 N683 1.384 . S
N682 C678 1.427 . S
N682 C679 1.384 . S
N683 C675 1.427 . S
N683 C681 1.384 . S
H684 C690 0.930 . S
H685 C694 0.930 . S
H686 C699 0.929 . S
H687 C697 0.929 . S
H688 C692 0.929 . S
H689 C698 0.929 . S
C690 H684 0.930 . S
C690 C691 1.367 . S
C690 C698 1.378 . S
C691 C690 1.367 . S
C691 C699 1.433 . S
C692 H688 0.929 . S
C692 C694 1.378 . S
C692 C696 1.350 . S
C693 C696 1.463 . S
C693 C698 1.350 . S
C693 N701 1.427 . S
C694 H685 0.930 . S
C694 C692 1.378 . S
C694 C695 1.367 . S
C695 C694 1.367 . S
C695 C697 1.433 . S
C696 C692 1.350 . S
C696 C693 1.463 . S
C696 N700 1.427 . S
C697 H687 0.929 . S
C697 C695 1.433 . S
C697 N700 1.384 . S
C698 H689 0.929 . S
C698 C690 1.378 . S
C698 C693 1.350 . S
C699 H686 0.929 . S
C699 C691 1.433 . S
C699 N701 1.384 . S
N700 C696 1.427 . S
N700 C697 1.384 . S
N701 C693 1.427 . S
N701 C699 1.384 . S
H702 C708 0.930 . S
H703 C712 0.930 . S
H704 C717 0.929 . S
H705 C715 0.929 . S
H706 C710 0.929 . S
H707 C716 0.929 . S
C708 H702 0.930 . S
C708 C709 1.367 . S
C708 C716 1.378 . S
C709 C708 1.367 . S
C709 C717 1.433 . S
C710 H706 0.929 . S
C710 C712 1.378 . S
C710 C714 1.350 . S
C711 C714 1.463 . S
C711 C716 1.350 . S
C711 N719 1.427 . S
C712 H703 0.930 . S
C712 C710 1.378 . S
C712 C713 1.367 . S
C713 C712 1.367 . S
C713 C715 1.433 . S
C714 C710 1.350 . S
C714 C711 1.463 . S
C714 N718 1.427 . S
C715 H705 0.929 . S
C715 C713 1.433 . S
C715 N718 1.384 . S
C716 H707 0.929 . S
C716 C708 1.378 . S
C716 C711 1.350 . S
C717 H704 0.929 . S
C717 C709 1.433 . S
C717 N719 1.384 . S
N718 C714 1.427 . S
N718 C715 1.384 . S
N719 C711 1.427 . S
N719 C717 1.384 . S
H720 C726 0.930 . S
H721 C730 0.930 . S
H722 C735 0.929 . S
H723 C733 0.929 . S
H724 C728 0.929 . S
H725 C734 0.929 . S
C726 H720 0.930 . S
C726 C727 1.367 . S
C726 C734 1.378 . S
C727 C726 1.367 . S
C727 C735 1.433 . S
C728 H724 0.929 . S
C728 C730 1.378 . S
C728 C732 1.350 . S
C729 C732 1.463 . S
C729 C734 1.350 . S
C729 N737 1.427 . S
C730 H721 0.930 . S
C730 C728 1.378 . S
C730 C731 1.367 . S
C731 C730 1.367 . S
C731 C733 1.433 . S
C732 C728 1.350 . S
C732 C729 1.463 . S
C732 N736 1.427 . S
C733 H723 0.929 . S
C733 C731 1.433 . S
C733 N736 1.384 . S
C734 H725 0.929 . S
C734 C726 1.378 . S
C734 C729 1.350 . S
C735 H722 0.929 . S
C735 C727 1.433 . S
C735 N737 1.384 . S
N736 C732 1.427 . S
N736 C733 1.384 . S
N737 C729 1.427 . S
N737 C735 1.384 . S
H738 C744 0.930 . S
H739 C748 0.930 . S
H740 C753 0.929 . S
H741 C751 0.929 . S
H742 C746 0.929 . S
H743 C752 0.929 . S
C744 H738 0.930 . S
C744 C745 1.367 . S
C744 C752 1.378 . S
C745 C744 1.367 . S
C745 C753 1.433 . S
C746 H742 0.929 . S
C746 C748 1.378 . S
C746 C750 1.350 . S
C747 C750 1.463 . S
C747 C752 1.350 . S
C747 N755 1.427 . S
C748 H739 0.930 . S
C748 C746 1.378 . S
C748 C749 1.367 . S
C749 C748 1.367 . S
C749 C751 1.433 . S
C750 C746 1.350 . S
C750 C747 1.463 . S
C750 N754 1.427 . S
C751 H741 0.929 . S
C751 C749 1.433 . S
C751 N754 1.384 . S
C752 H743 0.929 . S
C752 C744 1.378 . S
C752 C747 1.350 . S
C753 H740 0.929 . S
C753 C745 1.433 . S
C753 N755 1.384 . S
N754 C750 1.427 . S
N754 C751 1.384 . S
N755 C747 1.427 . S
N755 C753 1.384 . S
H756 C762 0.930 . S
H757 C766 0.930 . S
H758 C771 0.929 . S
H759 C769 0.929 . S
H760 C764 0.929 . S
H761 C770 0.929 . S
C762 H756 0.930 . S
C762 C763 1.367 . S
C762 C770 1.378 . S
C763 C762 1.367 . S
C763 C771 1.433 . S
C764 H760 0.929 . S
C764 C766 1.378 . S
C764 C768 1.350 . S
C765 C768 1.463 . S
C765 C770 1.350 . S
C765 N773 1.427 . S
C766 H757 0.930 . S
C766 C764 1.378 . S
C766 C767 1.367 . S
C767 C766 1.367 . S
C767 C769 1.433 . S
C768 C764 1.350 . S
C768 C765 1.463 . S
C768 N772 1.427 . S
C769 H759 0.929 . S
C769 C767 1.433 . S
C769 N772 1.384 . S
C770 H761 0.929 . S
C770 C762 1.378 . S
C770 C765 1.350 . S
C771 H758 0.929 . S
C771 C763 1.433 . S
C771 N773 1.384 . S
N772 C768 1.427 . S
N772 C769 1.384 . S
N773 C765 1.427 . S
N773 C771 1.384 . S
H774 C780 0.930 . S
H775 C784 0.930 . S
H776 C789 0.929 . S
H777 C787 0.929 . S
H778 C782 0.929 . S
H779 C788 0.929 . S
C780 H774 0.930 . S
C780 C781 1.367 . S
C780 C788 1.378 . S
C781 C780 1.367 . S
C781 C789 1.433 . S
C782 H778 0.929 . S
C782 C784 1.378 . S
C782 C786 1.350 . S
C783 C786 1.463 . S
C783 C788 1.350 . S
C783 N791 1.427 . S
C784 H775 0.930 . S
C784 C782 1.378 . S
C784 C785 1.367 . S
C785 C784 1.367 . S
C785 C787 1.433 . S
C786 C782 1.350 . S
C786 C783 1.463 . S
C786 N790 1.427 . S
C787 H777 0.929 . S
C787 C785 1.433 . S
C787 N790 1.384 . S
C788 H779 0.929 . S
C788 C780 1.378 . S
C788 C783 1.350 . S
C789 H776 0.929 . S
C789 C781 1.433 . S
C789 N791 1.384 . S
N790 C786 1.427 . S
N790 C787 1.384 . S
N791 C783 1.427 . S
N791 C789 1.384 . S
H792 C798 0.930 . S
H793 C802 0.930 . S
H794 C807 0.929 . S
H795 C805 0.929 . S
H796 C800 0.929 . S
H797 C806 0.929 . S
C798 H792 0.930 . S
C798 C799 1.367 1_556 S
C798 C806 1.378 . S
C799 C798 1.367 1_554 S
C799 C807 1.433 . S
C800 H796 0.929 . S
C800 C802 1.378 . S
C800 C804 1.350 . S
C801 C804 1.463 . S
C801 C806 1.350 1_554 S
C801 N809 1.427 . S
C802 H793 0.930 . S
C802 C800 1.378 . S
C802 C803 1.367 . S
C803 C802 1.367 . S
C803 C805 1.433 1_554 S
C804 C800 1.350 . S
C804 C801 1.463 . S
C804 N808 1.427 1_554 S
C805 H795 0.929 . S
C805 C803 1.433 1_556 S
C805 N808 1.384 . S
C806 H797 0.929 . S
C806 C798 1.378 . S
C806 C801 1.350 1_556 S
C807 H794 0.929 . S
C807 C799 1.433 . S
C807 N809 1.384 . S
N808 C804 1.427 1_556 S
N808 C805 1.384 . S
N809 C801 1.427 . S
N809 C807 1.384 . S
H810 C816 0.930 . S
H811 C820 0.930 . S
H812 C825 0.929 . S
H813 C823 0.929 . S
H814 C818 0.929 . S
H815 C824 0.929 . S
C816 H810 0.930 . S
C816 C817 1.367 1_556 S
C816 C824 1.378 . S
C817 C816 1.367 1_554 S
C817 C825 1.433 . S
C818 H814 0.929 . S
C818 C820 1.378 . S
C818 C822 1.350 . S
C819 C822 1.463 . S
C819 C824 1.350 1_554 S
C819 N827 1.427 . S
C820 H811 0.930 . S
C820 C818 1.378 . S
C820 C821 1.367 . S
C821 C820 1.367 . S
C821 C823 1.433 1_554 S
C822 C818 1.350 . S
C822 C819 1.463 . S
C822 N826 1.427 1_554 S
C823 H813 0.929 . S
C823 C821 1.433 1_556 S
C823 N826 1.384 . S
C824 H815 0.929 . S
C824 C816 1.378 . S
C824 C819 1.350 1_556 S
C825 H812 0.929 . S
C825 C817 1.433 . S
C825 N827 1.384 . S
N826 C822 1.427 1_556 S
N826 C823 1.384 . S
N827 C819 1.427 . S
N827 C825 1.384 . S
H828 C834 0.930 . S
H829 C838 0.930 . S
H830 C843 0.929 . S
H831 C841 0.929 . S
H832 C836 0.929 . S
H833 C842 0.929 . S
C834 H828 0.930 . S
C834 C835 1.367 . S
C834 C842 1.378 . S
C835 C834 1.367 . S
C835 C843 1.433 1_554 S
C836 H832 0.929 . S
C836 C838 1.378 . S
C836 C840 1.350 1_556 S
C837 C840 1.463 . S
C837 C842 1.350 . S
C837 N845 1.427 1_554 S
C838 H829 0.930 . S
C838 C836 1.378 . S
C838 C839 1.367 1_556 S
C839 C838 1.367 1_554 S
C839 C841 1.433 . S
C840 C836 1.350 1_554 S
C840 C837 1.463 . S
C840 N844 1.427 . S
C841 H831 0.929 . S
C841 C839 1.433 . S
C841 N844 1.384 . S
C842 H833 0.929 . S
C842 C834 1.378 . S
C842 C837 1.350 . S
C843 H830 0.929 . S
C843 C835 1.433 1_556 S
C843 N845 1.384 . S
N844 C840 1.427 . S
N844 C841 1.384 . S
N845 C837 1.427 1_556 S
N845 C843 1.384 . S
H846 C852 0.930 . S
H847 C856 0.930 . S
H848 C861 0.929 . S
H849 C859 0.929 . S
H850 C854 0.929 . S
H851 C860 0.929 . S
C852 H846 0.930 . S
C852 C853 1.345 1_556 S
C852 C860 1.378 . S
C853 C852 1.345 1_554 S
C853 C861 1.456 . S
C854 H850 0.929 . S
C854 C856 1.378 . S
C854 C858 1.350 . S
C855 C858 1.463 . S
C855 C860 1.350 1_554 S
C855 N863 1.427 . S
C856 H847 0.930 . S
C856 C854 1.378 . S
C856 C857 1.367 . S
C857 C856 1.367 . S
C857 C859 1.433 1_554 S
C858 C854 1.350 . S
C858 C855 1.463 . S
C858 N862 1.427 1_554 S
C859 H849 0.929 . S
C859 C857 1.433 1_556 S
C859 N862 1.384 . S
C860 H851 0.929 . S
C860 C852 1.378 . S
C860 C855 1.350 1_556 S
C861 H848 0.929 . S
C861 C853 1.456 . S
C861 N863 1.384 . S
N862 C858 1.427 1_556 S
N862 C859 1.384 . S
N863 C855 1.427 . S
N863 C861 1.384 . S
H864 C870 0.930 . S
H865 C874 0.930 . S
H866 C879 0.929 . S
H867 C877 0.929 . S
H868 C872 0.929 . S
H869 C878 0.929 . S
C870 H864 0.930 . S
C870 C871 1.367 1_655 S
C870 C878 1.378 . S
C871 C870 1.367 1_455 S
C871 C879 1.433 . S
C872 H868 0.929 . S
C872 C874 1.378 . S
C872 C876 1.350 . S
C873 C876 1.463 . S
C873 C878 1.350 1_455 S
C873 N881 1.427 . S
C874 H865 0.930 . S
C874 C872 1.378 . S
C874 C875 1.367 . S
C875 C874 1.367 . S
C875 C877 1.433 1_455 S
C876 C872 1.350 . S
C876 C873 1.463 . S
C876 N880 1.427 1_455 S
C877 H867 0.929 . S
C877 C875 1.433 1_655 S
C877 N880 1.384 . S
C878 H869 0.929 . S
C878 C870 1.378 . S
C878 C873 1.350 1_655 S
C879 H866 0.929 . S
C879 C871 1.433 . S
C879 N881 1.384 . S
N880 C876 1.427 1_655 S
N880 C877 1.384 . S
N881 C873 1.427 . S
N881 C879 1.384 . S
H882 C888 0.930 . S
H883 C892 0.916 1_565 S
H884 C897 0.929 . S
H885 C895 0.929 . S
H886 C890 0.929 . S
H887 C896 0.929 . S
C888 H882 0.930 . S
C888 C889 1.367 . S
C888 C896 1.378 . S
C889 C888 1.367 . S
C889 C897 1.433 1_545 S
C890 H886 0.929 . S
C890 C892 1.376 1_565 S
C890 C894 1.350 1_565 S
C891 C894 1.463 . S
C891 C896 1.350 . S
C891 N899 1.427 1_545 S
C892 H883 0.916 1_545 S
C892 C890 1.376 1_545 S
C892 C893 1.384 . S
C893 C892 1.384 . S
C893 C895 1.433 . S
C894 C890 1.350 1_545 S
C894 C891 1.463 . S
C894 N898 1.427 . S
C895 H885 0.929 . S
C895 C893 1.433 . S
C895 N898 1.384 . S
C896 H887 0.929 . S
C896 C888 1.378 . S
C896 C891 1.350 . S
C897 H884 0.929 . S
C897 C889 1.433 1_565 S
C897 N899 1.384 . S
N898 C894 1.427 . S
N898 C895 1.384 . S
N899 C891 1.427 1_565 S
N899 C897 1.384 . S
H900 C906 0.920 1_655 S
H901 C910 0.930 . S
H902 C915 0.929 . S
H903 C913 0.929 . S
H904 C908 0.929 . S
H905 C914 0.929 . S
C906 H900 0.920 1_455 S
C906 C907 1.378 . S
C906 C914 1.377 1_455 S
C907 C906 1.378 . S
C907 C915 1.433 . S
C908 H904 0.929 . S
C908 C910 1.378 . S
C908 C912 1.350 . S
C909 C912 1.463 . S
C909 C914 1.350 1_455 S
C909 N917 1.427 . S
C910 H901 0.930 . S
C910 C908 1.378 . S
C910 C911 1.367 . S
C911 C910 1.367 . S
C911 C913 1.433 1_455 S
C912 C908 1.350 . S
C912 C909 1.463 . S
C912 N916 1.427 1_455 S
C913 H903 0.929 . S
C913 C911 1.433 1_655 S
C913 N916 1.384 . S
C914 H905 0.929 . S
C914 C906 1.377 1_655 S
C914 C909 1.350 1_655 S
C915 H902 0.929 . S
C915 C907 1.433 . S
C915 N917 1.384 . S
N916 C912 1.427 1_655 S
N916 C913 1.384 . S
N917 C909 1.427 . S
N917 C915 1.384 . S
H918 C924 0.930 1_565 S
H919 C928 0.930 . S
H920 C933 0.929 . S
H921 C931 0.921 1_565 S
H922 C926 0.929 . S
H923 C932 0.929 1_565 S
C924 H918 0.930 1_545 S
C924 C925 1.367 . S
C924 C932 1.378 . S
C925 C924 1.367 . S
C925 C933 1.433 . S
C926 H922 0.929 . S
C926 C928 1.378 . S
C926 C930 1.350 . S
C927 C930 1.463 . S
C927 C932 1.350 . S
C927 N935 1.427 . S
C928 H919 0.930 . S
C928 C926 1.378 . S
C928 C929 1.367 . S
C929 C928 1.367 . S
C929 C931 1.441 . S
C930 C926 1.350 . S
C930 C927 1.463 . S
C930 N934 1.427 . S
C931 H921 0.921 1_545 S
C931 C929 1.441 . S
C931 N934 1.384 . S
C932 H923 0.929 1_545 S
C932 C924 1.378 . S
C932 C927 1.350 . S
C933 H920 0.929 . S
C933 C925 1.433 . S
C933 N935 1.384 . S
N934 C930 1.427 . S
N934 C931 1.384 . S
N935 C927 1.427 . S
N935 C933 1.384 . S
H936 C942 0.930 . S
H937 C946 0.930 . S
H938 C951 0.929 . S
H939 C949 0.929 . S
H940 C944 0.929 . S
H941 C950 0.929 . S
C942 H936 0.930 . S
C942 C943 1.367 . S
C942 C950 1.378 . S
C943 C942 1.367 . S
C943 C951 1.433 . S
C944 H940 0.929 . S
C944 C946 1.378 . S
C944 C948 1.350 . S
C945 C948 1.463 . S
C945 C950 1.350 . S
C945 N953 1.427 . S
C946 H937 0.930 . S
C946 C944 1.378 . S
C946 C947 1.367 . S
C947 C946 1.367 . S
C947 C949 1.433 . S
C948 C944 1.350 . S
C948 C945 1.463 . S
C948 N952 1.427 . S
C949 H939 0.929 . S
C949 C947 1.433 . S
C949 N952 1.384 . S
C950 H941 0.929 . S
C950 C942 1.378 . S
C950 C945 1.350 . S
C951 H938 0.929 . S
C951 C943 1.433 . S
C951 N953 1.384 . S
N952 C948 1.427 . S
N952 C949 1.384 . S
N953 C945 1.427 . S
N953 C951 1.384 . S
H954 C960 0.930 . S
H955 C964 0.930 1_565 S
H956 C969 0.929 . S
H957 C967 0.929 . S
H958 C962 0.929 1_565 S
H959 C968 0.929 . S
C960 H954 0.930 . S
C960 C961 1.367 . S
C960 C968 1.378 . S
C961 C960 1.367 . S
C961 C969 1.433 . S
C962 H958 0.929 1_545 S
C962 C964 1.378 . S
C962 C966 1.350 . S
C963 C966 1.463 . S
C963 C968 1.350 . S
C963 N971 1.427 . S
C964 H955 0.930 1_545 S
C964 C962 1.378 . S
C964 C965 1.367 . S
C965 C964 1.367 . S
C965 C967 1.433 . S
C966 C962 1.350 . S
C966 C963 1.463 . S
C966 N970 1.427 . S
C967 H957 0.929 . S
C967 C965 1.433 . S
C967 N970 1.384 . S
C968 H959 0.929 . S
C968 C960 1.378 . S
C968 C963 1.350 . S
C969 H956 0.929 . S
C969 C961 1.433 . S
C969 N971 1.384 . S
N970 C966 1.427 . S
N970 C967 1.384 . S
N971 C963 1.427 . S
N971 C969 1.384 . S
H972 C978 0.930 . S
H973 C982 0.930 . S
H974 C987 0.929 . S
H975 C985 0.929 . S
H976 C980 0.929 . S
H977 C986 0.929 . S
C978 H972 0.930 . S
C978 C979 1.367 . S
C978 C986 1.378 . S
C979 C978 1.367 . S
C979 C987 1.433 . S
C980 H976 0.929 . S
C980 C982 1.378 . S
C980 C984 1.350 . S
C981 C984 1.463 . S
C981 C986 1.350 . S
C981 N989 1.427 . S
C982 H973 0.930 . S
C982 C980 1.378 . S
C982 C983 1.367 . S
C983 C982 1.367 . S
C983 C985 1.433 . S
C984 C980 1.350 . S
C984 C981 1.463 . S
C984 N988 1.427 . S
C985 H975 0.929 . S
C985 C983 1.433 . S
C985 N988 1.384 . S
C986 H977 0.929 . S
C986 C978 1.378 . S
C986 C981 1.350 . S
C987 H974 0.929 . S
C987 C979 1.433 . S
C987 N989 1.384 . S
N988 C984 1.427 . S
N988 C985 1.384 . S
N989 C981 1.427 . S
N989 C987 1.384 . S
H990 C996 0.930 . S
H991 C1000 0.930 . S
H992 C1005 0.929 . S
H993 C1003 0.929 . S
H994 C998 0.929 . S
H995 C1004 0.929 . S
C996 H990 0.930 . S
C996 C997 1.367 1_565 S
C996 C1004 1.378 . S
C997 C996 1.367 1_545 S
C997 C1005 1.433 . S
C998 H994 0.929 . S
C998 C1000 1.378 . S
C998 C1002 1.350 . S
C999 C1002 1.463 . S
C999 C1004 1.350 1_545 S
C999 N1007 1.427 . S
C1000 H991 0.930 . S
C1000 C998 1.378 . S
C1000 C1001 1.367 . S
C1001 C1000 1.367 . S
C1001 C1003 1.433 1_545 S
C1002 C998 1.350 . S
C1002 C999 1.463 . S
C1002 N1006 1.427 1_545 S
C1003 H993 0.929 . S
C1003 C1001 1.433 1_565 S
C1003 N1006 1.384 . S
C1004 H995 0.929 . S
C1004 C996 1.378 . S
C1004 C999 1.350 1_565 S
C1005 H992 0.929 . S
C1005 C997 1.433 . S
C1005 N1007 1.384 . S
N1006 C1002 1.427 1_565 S
N1006 C1003 1.384 . S
N1007 C999 1.427 . S
N1007 C1005 1.384 . S
H1008 C1014 0.930 . S
H1009 C1018 0.930 . S
H1010 C1023 0.929 . S
H1011 C1021 0.929 . S
H1012 C1016 0.929 . S
H1013 C1022 0.929 . S
C1014 H1008 0.930 . S
C1014 C1015 1.367 . S
C1014 C1022 1.378 . S
C1015 C1014 1.367 . S
C1015 C1023 1.433 . S
C1016 H1012 0.929 . S
C1016 C1018 1.378 . S
C1016 C1020 1.350 . S
C1017 C1020 1.463 . S
C1017 C1022 1.350 . S
C1017 N1025 1.427 . S
C1018 H1009 0.930 . S
C1018 C1016 1.378 . S
C1018 C1019 1.367 . S
C1019 C1018 1.367 . S
C1019 C1021 1.433 . S
C1020 C1016 1.350 . S
C1020 C1017 1.463 . S
C1020 N1024 1.427 . S
C1021 H1011 0.929 . S
C1021 C1019 1.433 . S
C1021 N1024 1.384 . S
C1022 H1013 0.929 . S
C1022 C1014 1.378 . S
C1022 C1017 1.350 . S
C1023 H1010 0.929 . S
C1023 C1015 1.433 . S
C1023 N1025 1.384 . S
N1024 C1020 1.427 . S
N1024 C1021 1.384 . S
N1025 C1017 1.427 . S
N1025 C1023 1.384 . S
H1026 C1032 0.929 1_565 S
H1027 C1036 0.930 . S
H1028 C1041 0.929 . S
H1029 C1039 0.929 1_565 S
H1030 C1034 0.929 . S
H1031 C1040 0.929 1_565 S
C1032 H1026 0.929 1_545 S
C1032 C1033 1.367 . S
C1032 C1040 1.378 . S
C1033 C1032 1.367 . S
C1033 C1041 1.433 . S
C1034 H1030 0.929 . S
C1034 C1036 1.378 . S
C1034 C1038 1.350 . S
C1035 C1038 1.463 . S
C1035 C1040 1.350 . S
C1035 N1043 1.427 . S
C1036 H1027 0.930 . S
C1036 C1034 1.378 . S
C1036 C1037 1.367 . S
C1037 C1036 1.367 . S
C1037 C1039 1.433 . S
C1038 C1034 1.350 . S
C1038 C1035 1.463 . S
C1038 N1042 1.427 . S
C1039 H1029 0.929 1_545 S
C1039 C1037 1.433 . S
C1039 N1042 1.384 . S
C1040 H1031 0.929 1_545 S
C1040 C1032 1.378 . S
C1040 C1035 1.350 . S
C1041 H1028 0.929 . S
C1041 C1033 1.433 . S
C1041 N1043 1.384 . S
N1042 C1038 1.427 . S
N1042 C1039 1.384 . S
N1043 C1035 1.427 . S
N1043 C1041 1.384 . S
H1044 C1050 0.930 . S
H1045 C1054 0.928 . S
H1046 C1059 0.929 1_655 S
H1047 C1057 0.929 . S
H1048 C1052 0.929 1_655 S
H1049 C1058 0.929 . S
C1050 H1044 0.930 . S
C1050 C1051 1.367 . S
C1050 C1058 1.378 . S
C1051 C1050 1.367 . S
C1051 C1059 1.433 . S
C1052 H1048 0.929 1_455 S
C1052 C1054 1.378 . S
C1052 C1056 1.350 . S
C1053 C1056 1.463 . S
C1053 C1058 1.350 . S
C1053 N1061 1.427 . S
C1054 H1045 0.928 . S
C1054 C1052 1.378 . S
C1054 C1055 1.367 . S
C1055 C1054 1.367 . S
C1055 C1057 1.433 . S
C1056 C1052 1.350 . S
C1056 C1053 1.463 . S
C1056 N1060 1.427 . S
C1057 H1047 0.929 . S
C1057 C1055 1.433 . S
C1057 N1060 1.384 . S
C1058 H1049 0.929 . S
C1058 C1050 1.378 . S
C1058 C1053 1.350 . S
C1059 H1046 0.929 1_455 S
C1059 C1051 1.433 . S
C1059 N1061 1.384 . S
N1060 C1056 1.427 . S
N1060 C1057 1.384 . S
N1061 C1053 1.427 . S
N1061 C1059 1.384 . S
H1062 C1068 0.930 . S
H1063 C1072 0.930 . S
H1064 C1077 0.929 . S
H1065 C1075 0.929 . S
H1066 C1070 0.929 . S
H1067 C1076 0.929 . S
C1068 H1062 0.930 . S
C1068 C1069 1.367 . S
C1068 C1076 1.378 . S
C1069 C1068 1.367 . S
C1069 C1077 1.433 1_545 S
C1070 H1066 0.929 . S
C1070 C1072 1.378 . S
C1070 C1074 1.350 1_565 S
C1071 C1074 1.463 . S
C1071 C1076 1.350 . S
C1071 N1079 1.427 1_545 S
C1072 H1063 0.930 . S
C1072 C1070 1.378 . S
C1072 C1073 1.367 1_565 S
C1073 C1072 1.367 1_545 S
C1073 C1075 1.433 . S
C1074 C1070 1.350 1_545 S
C1074 C1071 1.463 . S
C1074 N1078 1.427 . S
C1075 H1065 0.929 . S
C1075 C1073 1.433 . S
C1075 N1078 1.384 . S
C1076 H1067 0.929 . S
C1076 C1068 1.378 . S
C1076 C1071 1.350 . S
C1077 H1064 0.929 . S
C1077 C1069 1.433 1_565 S
C1077 N1079 1.384 . S
N1078 C1074 1.427 . S
N1078 C1075 1.384 . S
N1079 C1071 1.427 1_565 S
N1079 C1077 1.384 . S
H1080 C1086 0.930 . S
H1081 C1090 0.930 . S
H1082 C1095 0.929 . S
H1083 C1093 0.939 . S
H1084 C1088 0.929 . S
H1085 C1094 0.929 . S
C1086 H1080 0.930 . S
C1086 C1087 1.367 1_655 S
C1086 C1094 1.378 . S
C1087 C1086 1.367 1_455 S
C1087 C1095 1.433 . S
C1088 H1084 0.929 . S
C1088 C1090 1.378 . S
C1088 C1092 1.350 . S
C1089 C1092 1.463 . S
C1089 C1094 1.350 1_455 S
C1089 N1097 1.427 . S
C1090 H1081 0.930 . S
C1090 C1088 1.378 . S
C1090 C1091 1.367 . S
C1091 C1090 1.367 . S
C1091 C1093 1.421 1_455 S
C1092 C1088 1.350 . S
C1092 C1089 1.463 . S
C1092 N1096 1.427 1_455 S
C1093 H1083 0.939 . S
C1093 C1091 1.421 1_655 S
C1093 N1096 1.385 . S
C1094 H1085 0.929 . S
C1094 C1086 1.378 . S
C1094 C1089 1.350 1_655 S
C1095 H1082 0.929 . S
C1095 C1087 1.433 . S
C1095 N1097 1.384 . S
N1096 C1092 1.427 1_655 S
N1096 C1093 1.385 . S
N1097 C1089 1.427 . S
N1097 C1095 1.384 . S
H1098 C1104 0.930 . S
H1099 C1108 0.930 . S
H1100 C1113 0.929 . S
H1101 C1111 0.929 . S
H1102 C1106 0.929 . S
H1103 C1112 0.929 . S
C1104 H1098 0.930 . S
C1104 C1105 1.367 1_565 S
C1104 C1112 1.378 . S
C1105 C1104 1.367 1_545 S
C1105 C1113 1.433 . S
C1106 H1102 0.929 . S
C1106 C1108 1.378 . S
C1106 C1110 1.350 . S
C1107 C1110 1.463 . S
C1107 C1112 1.350 1_545 S
C1107 N1115 1.427 . S
C1108 H1099 0.930 . S
C1108 C1106 1.378 . S
C1108 C1109 1.367 . S
C1109 C1108 1.367 . S
C1109 C1111 1.433 1_545 S
C1110 C1106 1.350 . S
C1110 C1107 1.463 . S
C1110 N1114 1.427 1_545 S
C1111 H1101 0.929 . S
C1111 C1109 1.433 1_565 S
C1111 N1114 1.384 . S
C1112 H1103 0.929 . S
C1112 C1104 1.378 . S
C1112 C1107 1.350 1_565 S
C1113 H1100 0.929 . S
C1113 C1105 1.433 . S
C1113 N1115 1.384 . S
N1114 C1110 1.427 1_565 S
N1114 C1111 1.384 . S
N1115 C1107 1.427 . S
N1115 C1113 1.384 . S
H1116 C1122 0.933 . S
H1117 C1126 0.930 . S
H1118 C1131 0.929 . S
H1119 C1129 0.929 1_655 S
H1120 C1124 0.929 . S
H1121 C1130 0.921 1_655 S
C1122 H1116 0.933 . S
C1122 C1123 1.365 1_655 S
C1122 C1130 1.378 1_655 S
C1123 C1122 1.365 1_455 S
C1123 C1131 1.433 . S
C1124 H1120 0.929 . S
C1124 C1126 1.378 . S
C1124 C1128 1.350 . S
C1125 C1128 1.463 . S
C1125 C1130 1.357 . S
C1125 N1133 1.427 . S
C1126 H1117 0.930 . S
C1126 C1124 1.378 . S
C1126 C1127 1.367 . S
C1127 C1126 1.367 . S
C1127 C1129 1.433 . S
C1128 C1124 1.350 . S
C1128 C1125 1.463 . S
C1128 N1132 1.427 . S
C1129 H1119 0.929 1_455 S
C1129 C1127 1.433 . S
C1129 N1132 1.384 . S
C1130 H1121 0.921 1_455 S
C1130 C1122 1.378 1_455 S
C1130 C1125 1.357 . S
C1131 H1118 0.929 . S
C1131 C1123 1.433 . S
C1131 N1133 1.384 . S
N1132 C1128 1.427 . S
N1132 C1129 1.384 . S
N1133 C1125 1.427 . S
N1133 C1131 1.384 . S
H1134 C1140 0.930 1_565 S
H1135 C1144 0.930 . S
H1136 C1149 0.929 . S
H1137 C1147 0.929 1_565 S
H1138 C1142 0.929 . S
H1139 C1148 0.929 1_565 S
C1140 H1134 0.930 1_545 S
C1140 C1141 1.367 . S
C1140 C1148 1.378 . S
C1141 C1140 1.367 . S
C1141 C1149 1.433 . S
C1142 H1138 0.929 . S
C1142 C1144 1.378 . S
C1142 C1146 1.350 . S
C1143 C1146 1.463 . S
C1143 C1148 1.350 . S
C1143 N1151 1.427 . S
C1144 H1135 0.930 . S
C1144 C1142 1.378 . S
C1144 C1145 1.367 . S
C1145 C1144 1.367 . S
C1145 C1147 1.433 . S
C1146 C1142 1.350 . S
C1146 C1143 1.463 . S
C1146 N1150 1.427 . S
C1147 H1137 0.929 1_545 S
C1147 C1145 1.433 . S
C1147 N1150 1.384 . S
C1148 H1139 0.929 1_545 S
C1148 C1140 1.378 . S
C1148 C1143 1.350 . S
C1149 H1136 0.929 . S
C1149 C1141 1.433 . S
C1149 N1151 1.384 . S
N1150 C1146 1.427 . S
N1150 C1147 1.384 . S
N1151 C1143 1.427 . S
N1151 C1149 1.384 . S
H1152 C1158 0.930 . S
H1153 C1162 0.930 . S
H1154 C1167 0.929 . S
H1155 C1165 0.929 . S
H1156 C1160 0.929 . S
H1157 C1166 0.929 . S
C1158 H1152 0.930 . S
C1158 C1159 1.367 . S
C1158 C1166 1.378 . S
C1159 C1158 1.367 . S
C1159 C1167 1.433 1_545 S
C1160 H1156 0.929 . S
C1160 C1162 1.378 . S
C1160 C1164 1.350 1_565 S
C1161 C1164 1.463 . S
C1161 C1166 1.350 . S
C1161 N1169 1.427 1_545 S
C1162 H1153 0.930 . S
C1162 C1160 1.378 . S
C1162 C1163 1.367 1_565 S
C1163 C1162 1.367 1_545 S
C1163 C1165 1.433 . S
C1164 C1160 1.350 1_545 S
C1164 C1161 1.463 . S
C1164 N1168 1.427 . S
C1165 H1155 0.929 . S
C1165 C1163 1.433 . S
C1165 N1168 1.384 . S
C1166 H1157 0.929 . S
C1166 C1158 1.378 . S
C1166 C1161 1.350 . S
C1167 H1154 0.929 . S
C1167 C1159 1.433 1_565 S
C1167 N1169 1.384 . S
N1168 C1164 1.427 . S
N1168 C1165 1.384 . S
N1169 C1161 1.427 1_565 S
N1169 C1167 1.384 . S
H1170 C1176 0.918 1_655 S
H1171 C1180 0.930 . S
H1172 C1185 0.929 . S
H1173 C1183 0.929 . S
H1174 C1178 0.929 . S
H1175 C1184 0.929 1_655 S
C1176 H1170 0.918 1_455 S
C1176 C1177 1.367 . S
C1176 C1184 1.378 . S
C1177 C1176 1.367 . S
C1177 C1185 1.433 . S
C1178 H1174 0.929 . S
C1178 C1180 1.378 . S
C1178 C1182 1.350 . S
C1179 C1182 1.463 . S
C1179 C1184 1.350 . S
C1179 N1187 1.427 . S
C1180 H1171 0.930 . S
C1180 C1178 1.378 . S
C1180 C1181 1.367 . S
C1181 C1180 1.367 . S
C1181 C1183 1.433 1_455 S
C1182 C1178 1.350 . S
C1182 C1179 1.463 . S
C1182 N1186 1.427 1_455 S
C1183 H1173 0.929 . S
C1183 C1181 1.433 1_655 S
C1183 N1186 1.384 . S
C1184 H1175 0.929 1_455 S
C1184 C1176 1.378 . S
C1184 C1179 1.350 . S
C1185 H1172 0.929 . S
C1185 C1177 1.433 . S
C1185 N1187 1.384 . S
N1186 C1182 1.427 1_655 S
N1186 C1183 1.384 . S
N1187 C1179 1.427 . S
N1187 C1185 1.384 . S
H1188 C1194 0.930 . S
H1189 C1198 0.930 . S
H1190 C1203 0.929 . S
H1191 C1201 0.929 . S
H1192 C1196 0.929 . S
H1193 C1202 0.929 . S
C1194 H1188 0.930 . S
C1194 C1195 1.367 . S
C1194 C1202 1.378 . S
C1195 C1194 1.367 . S
C1195 C1203 1.433 . S
C1196 H1192 0.929 . S
C1196 C1198 1.378 . S
C1196 C1200 1.350 . S
C1197 C1200 1.463 . S
C1197 C1202 1.350 . S
C1197 N1205 1.427 . S
C1198 H1189 0.930 . S
C1198 C1196 1.378 . S
C1198 C1199 1.367 . S
C1199 C1198 1.367 . S
C1199 C1201 1.433 . S
C1200 C1196 1.350 . S
C1200 C1197 1.463 . S
C1200 N1204 1.427 . S
C1201 H1191 0.929 . S
C1201 C1199 1.433 . S
C1201 N1204 1.384 . S
C1202 H1193 0.929 . S
C1202 C1194 1.378 . S
C1202 C1197 1.350 . S
C1203 H1190 0.929 . S
C1203 C1195 1.433 . S
C1203 N1205 1.384 . S
N1204 C1200 1.427 . S
N1204 C1201 1.384 . S
N1205 C1197 1.427 . S
N1205 C1203 1.384 . S
H1206 C1212 0.930 . S
H1207 C1216 0.930 . S
H1208 C1221 0.929 . S
H1209 C1219 0.929 . S
H1210 C1214 0.929 . S
H1211 C1220 0.929 . S
C1212 H1206 0.930 . S
C1212 C1213 1.367 1_655 S
C1212 C1220 1.378 . S
C1213 C1212 1.367 1_455 S
C1213 C1221 1.433 . S
C1214 H1210 0.929 . S
C1214 C1216 1.378 . S
C1214 C1218 1.350 . S
C1215 C1218 1.463 . S
C1215 C1220 1.350 1_455 S
C1215 N1223 1.427 . S
C1216 H1207 0.930 . S
C1216 C1214 1.378 . S
C1216 C1217 1.367 . S
C1217 C1216 1.367 . S
C1217 C1219 1.433 1_455 S
C1218 C1214 1.350 . S
C1218 C1215 1.463 . S
C1218 N1222 1.427 1_455 S
C1219 H1209 0.929 . S
C1219 C1217 1.433 1_655 S
C1219 N1222 1.384 . S
C1220 H1211 0.929 . S
C1220 C1212 1.378 . S
C1220 C1215 1.350 1_655 S
C1221 H1208 0.929 . S
C1221 C1213 1.433 . S
C1221 N1223 1.384 . S
N1222 C1218 1.427 1_655 S
N1222 C1219 1.384 . S
N1223 C1215 1.427 . S
N1223 C1221 1.384 . S
H1224 C1230 0.930 . S
H1225 C1234 0.930 . S
H1226 C1239 0.929 . S
H1227 C1237 0.929 . S
H1228 C1232 0.929 . S
H1229 C1238 0.929 . S
C1230 H1224 0.930 . S
C1230 C1231 1.367 . S
C1230 C1238 1.378 . S
C1231 C1230 1.367 . S
C1231 C1239 1.433 1_545 S
C1232 H1228 0.929 . S
C1232 C1234 1.378 . S
C1232 C1236 1.350 1_565 S
C1233 C1236 1.463 . S
C1233 C1238 1.350 . S
C1233 N1241 1.427 1_545 S
C1234 H1225 0.930 . S
C1234 C1232 1.378 . S
C1234 C1235 1.367 1_565 S
C1235 C1234 1.367 1_545 S
C1235 C1237 1.433 . S
C1236 C1232 1.350 1_545 S
C1236 C1233 1.463 . S
C1236 N1240 1.427 . S
C1237 H1227 0.929 . S
C1237 C1235 1.433 . S
C1237 N1240 1.384 . S
C1238 H1229 0.929 . S
C1238 C1230 1.378 . S
C1238 C1233 1.350 . S
C1239 H1226 0.929 . S
C1239 C1231 1.433 1_565 S
C1239 N1241 1.384 . S
N1240 C1236 1.427 . S
N1240 C1237 1.384 . S
N1241 C1233 1.427 1_565 S
N1241 C1239 1.384 . S
H1242 C1248 0.930 . S
H1243 C1252 0.930 . S
H1244 C1257 0.929 . S
H1245 C1255 0.929 . S
H1246 C1250 0.929 . S
H1247 C1256 0.929 . S
C1248 H1242 0.930 . S
C1248 C1249 1.367 . S
C1248 C1256 1.378 . S
C1249 C1248 1.367 . S
C1249 C1257 1.433 . S
C1250 H1246 0.929 . S
C1250 C1252 1.378 . S
C1250 C1254 1.350 . S
C1251 C1254 1.463 . S
C1251 C1256 1.350 . S
C1251 N1259 1.427 . S
C1252 H1243 0.930 . S
C1252 C1250 1.378 . S
C1252 C1253 1.367 . S
C1253 C1252 1.367 . S
C1253 C1255 1.433 . S
C1254 C1250 1.350 . S
C1254 C1251 1.463 . S
C1254 N1258 1.427 . S
C1255 H1245 0.929 . S
C1255 C1253 1.433 . S
C1255 N1258 1.384 . S
C1256 H1247 0.929 . S
C1256 C1248 1.378 . S
C1256 C1251 1.350 . S
C1257 H1244 0.929 . S
C1257 C1249 1.433 . S
C1257 N1259 1.384 . S
N1258 C1254 1.427 . S
N1258 C1255 1.384 . S
N1259 C1251 1.427 . S
N1259 C1257 1.384 . S
H1260 C1266 0.930 1_565 S
H1261 C1270 0.930 . S
H1262 C1275 0.929 . S
H1263 C1273 0.929 1_565 S
H1264 C1268 0.929 . S
H1265 C1274 0.929 1_565 S
C1266 H1260 0.930 1_545 S
C1266 C1267 1.367 . S
C1266 C1274 1.378 . S
C1267 C1266 1.367 . S
C1267 C1275 1.433 . S
C1268 H1264 0.929 . S
C1268 C1270 1.378 . S
C1268 C1272 1.350 . S
C1269 C1272 1.463 . S
C1269 C1274 1.350 . S
C1269 N1277 1.427 . S
C1270 H1261 0.930 . S
C1270 C1268 1.378 . S
C1270 C1271 1.367 . S
C1271 C1270 1.367 . S
C1271 C1273 1.433 . S
C1272 C1268 1.350 . S
C1272 C1269 1.463 . S
C1272 N1276 1.427 . S
C1273 H1263 0.929 1_545 S
C1273 C1271 1.433 . S
C1273 N1276 1.384 . S
C1274 H1265 0.929 1_545 S
C1274 C1266 1.378 . S
C1274 C1269 1.350 . S
C1275 H1262 0.929 . S
C1275 C1267 1.433 . S
C1275 N1277 1.384 . S
N1276 C1272 1.427 . S
N1276 C1273 1.384 . S
N1277 C1269 1.427 . S
N1277 C1275 1.384 . S
H1278 C1284 0.930 . S
H1279 C1288 0.930 . S
H1280 C1293 0.929 . S
H1281 C1291 0.929 . S
H1282 C1286 0.929 . S
H1283 C1292 0.929 . S
C1284 H1278 0.930 . S
C1284 C1285 1.362 1_455 S
C1284 C1292 1.378 . S
C1285 C1284 1.362 1_655 S
C1285 C1293 1.438 . S
C1286 H1282 0.929 . S
C1286 C1288 1.378 . S
C1286 C1290 1.350 1_655 S
C1287 C1290 1.463 . S
C1287 C1292 1.350 . S
C1287 N1295 1.427 1_455 S
C1288 H1279 0.930 . S
C1288 C1286 1.378 . S
C1288 C1289 1.367 1_655 S
C1289 C1288 1.367 1_455 S
C1289 C1291 1.433 . S
C1290 C1286 1.350 1_455 S
C1290 C1287 1.463 . S
C1290 N1294 1.427 . S
C1291 H1281 0.929 . S
C1291 C1289 1.433 . S
C1291 N1294 1.384 . S
C1292 H1283 0.929 . S
C1292 C1284 1.378 . S
C1292 C1287 1.350 . S
C1293 H1280 0.929 . S
C1293 C1285 1.438 . S
C1293 N1295 1.384 . S
N1294 C1290 1.427 . S
N1294 C1291 1.384 . S
N1295 C1287 1.427 1_655 S
N1295 C1293 1.384 . S
H1296 C1302 0.930 . S
H1297 C1306 0.930 . S
H1298 C1311 0.929 . S
H1299 C1309 0.929 . S
H1300 C1304 0.929 . S
H1301 C1310 0.929 . S
C1302 H1296 0.930 . S
C1302 C1303 1.367 . S
C1302 C1310 1.378 . S
C1303 C1302 1.367 . S
C1303 C1311 1.433 1_554 S
C1304 H1300 0.929 . S
C1304 C1306 1.378 . S
C1304 C1308 1.350 1_556 S
C1305 C1308 1.463 . S
C1305 C1310 1.350 . S
C1305 N1313 1.427 1_554 S
C1306 H1297 0.930 . S
C1306 C1304 1.378 . S
C1306 C1307 1.367 1_556 S
C1307 C1306 1.367 1_554 S
C1307 C1309 1.433 . S
C1308 C1304 1.350 1_554 S
C1308 C1305 1.463 . S
C1308 N1312 1.427 . S
C1309 H1299 0.929 . S
C1309 C1307 1.433 . S
C1309 N1312 1.384 . S
C1310 H1301 0.929 . S
C1310 C1302 1.378 . S
C1310 C1305 1.350 . S
C1311 H1298 0.929 . S
C1311 C1303 1.433 1_556 S
C1311 N1313 1.384 . S
N1312 C1308 1.427 . S
N1312 C1309 1.384 . S
N1313 C1305 1.427 1_556 S
N1313 C1311 1.384 . S
H1314 C1320 0.930 . S
H1315 C1324 0.930 . S
H1316 C1329 0.929 . S
H1317 C1327 0.929 . S
H1318 C1322 0.929 . S
H1319 C1328 0.929 . S
C1320 H1314 0.930 . S
C1320 C1321 1.367 . S
C1320 C1328 1.378 . S
C1321 C1320 1.367 . S
C1321 C1329 1.433 1_554 S
C1322 H1318 0.929 . S
C1322 C1324 1.378 . S
C1322 C1326 1.350 1_556 S
C1323 C1326 1.463 . S
C1323 C1328 1.350 . S
C1323 N1331 1.427 1_554 S
C1324 H1315 0.930 . S
C1324 C1322 1.378 . S
C1324 C1325 1.367 1_556 S
C1325 C1324 1.367 1_554 S
C1325 C1327 1.433 . S
C1326 C1322 1.350 1_554 S
C1326 C1323 1.463 . S
C1326 N1330 1.427 . S
C1327 H1317 0.929 . S
C1327 C1325 1.433 . S
C1327 N1330 1.384 . S
C1328 H1319 0.929 . S
C1328 C1320 1.378 . S
C1328 C1323 1.350 . S
C1329 H1316 0.929 . S
C1329 C1321 1.433 1_556 S
C1329 N1331 1.384 . S
N1330 C1326 1.427 . S
N1330 C1327 1.384 . S
N1331 C1323 1.427 1_556 S
N1331 C1329 1.384 . S
H1332 C1338 0.930 . S
H1333 C1342 0.930 . S
H1334 C1347 0.929 . S
H1335 C1345 0.929 . S
H1336 C1340 0.929 . S
H1337 C1346 0.929 . S
C1338 H1332 0.930 . S
C1338 C1339 1.367 . S
C1338 C1346 1.378 . S
C1339 C1338 1.367 . S
C1339 C1347 1.433 1_554 S
C1340 H1336 0.929 . S
C1340 C1342 1.378 . S
C1340 C1344 1.350 1_556 S
C1341 C1344 1.463 . S
C1341 C1346 1.350 . S
C1341 N1349 1.427 1_554 S
C1342 H1333 0.930 . S
C1342 C1340 1.378 . S
C1342 C1343 1.367 1_556 S
C1343 C1342 1.367 1_554 S
C1343 C1345 1.433 . S
C1344 C1340 1.350 1_554 S
C1344 C1341 1.463 . S
C1344 N1348 1.427 . S
C1345 H1335 0.929 . S
C1345 C1343 1.433 . S
C1345 N1348 1.384 . S
C1346 H1337 0.929 . S
C1346 C1338 1.378 . S
C1346 C1341 1.350 . S
C1347 H1334 0.929 . S
C1347 C1339 1.433 1_556 S
C1347 N1349 1.384 . S
N1348 C1344 1.427 . S
N1348 C1345 1.384 . S
N1349 C1341 1.427 1_556 S
N1349 C1347 1.384 . S
H1350 C1356 0.930 . S
H1351 C1360 0.930 . S
H1352 C1365 0.929 . S
H1353 C1363 0.929 . S
H1354 C1358 0.929 . S
H1355 C1364 0.929 . S
C1356 H1350 0.930 . S
C1356 C1357 1.366 1_554 S
C1356 C1364 1.378 . S
C1357 C1356 1.366 1_556 S
C1357 C1365 1.434 . S
C1358 H1354 0.929 . S
C1358 C1360 1.378 . S
C1358 C1362 1.350 . S
C1359 C1362 1.463 . S
C1359 C1364 1.350 1_556 S
C1359 N1367 1.427 . S
C1360 H1351 0.930 . S
C1360 C1358 1.378 . S
C1360 C1361 1.367 . S
C1361 C1360 1.367 . S
C1361 C1363 1.433 1_556 S
C1362 C1358 1.350 . S
C1362 C1359 1.463 . S
C1362 N1366 1.427 1_556 S
C1363 H1353 0.929 . S
C1363 C1361 1.433 1_554 S
C1363 N1366 1.384 . S
C1364 H1355 0.929 . S
C1364 C1356 1.378 . S
C1364 C1359 1.350 1_554 S
C1365 H1352 0.929 . S
C1365 C1357 1.434 . S
C1365 N1367 1.384 . S
N1366 C1362 1.427 1_554 S
N1366 C1363 1.384 . S
N1367 C1359 1.427 . S
N1367 C1365 1.384 . S
H1368 C1374 0.930 . S
H1369 C1378 0.930 . S
H1370 C1383 0.929 . S
H1371 C1381 0.929 . S
H1372 C1376 0.929 . S
H1373 C1382 0.929 . S
C1374 H1368 0.930 . S
C1374 C1375 1.367 1_556 S
C1374 C1382 1.378 . S
C1375 C1374 1.367 1_554 S
C1375 C1383 1.433 . S
C1376 H1372 0.929 . S
C1376 C1378 1.378 . S
C1376 C1380 1.350 . S
C1377 C1380 1.463 . S
C1377 C1382 1.350 1_554 S
C1377 N1385 1.427 . S
C1378 H1369 0.930 . S
C1378 C1376 1.378 . S
C1378 C1379 1.367 . S
C1379 C1378 1.367 . S
C1379 C1381 1.433 1_554 S
C1380 C1376 1.350 . S
C1380 C1377 1.463 . S
C1380 N1384 1.427 1_554 S
C1381 H1371 0.929 . S
C1381 C1379 1.433 1_556 S
C1381 N1384 1.384 . S
C1382 H1373 0.929 . S
C1382 C1374 1.378 . S
C1382 C1377 1.350 1_556 S
C1383 H1370 0.929 . S
C1383 C1375 1.433 . S
C1383 N1385 1.384 . S
N1384 C1380 1.427 1_556 S
N1384 C1381 1.384 . S
N1385 C1377 1.427 . S
N1385 C1383 1.384 . S
H1386 C1392 0.930 . S
H1387 C1396 0.930 . S
H1388 C1401 0.929 . S
H1389 C1399 0.929 . S
H1390 C1394 0.929 . S
H1391 C1400 0.929 . S
C1392 H1386 0.930 . S
C1392 C1393 1.395 . S
C1392 C1400 1.378 . S
C1393 C1392 1.395 . S
C1393 C1401 1.405 1_554 S
C1394 H1390 0.929 . S
C1394 C1396 1.378 . S
C1394 C1398 1.350 . S
C1395 C1398 1.462 1_554 S
C1395 C1400 1.351 . S
C1395 N1403 1.426 1_554 S
C1396 H1387 0.930 . S
C1396 C1394 1.378 . S
C1396 C1397 1.367 . S
C1397 C1396 1.367 . S
C1397 C1399 1.433 1_556 S
C1398 C1394 1.350 . S
C1398 C1395 1.462 1_556 S
C1398 N1402 1.427 1_556 S
C1399 H1389 0.929 . S
C1399 C1397 1.433 1_554 S
C1399 N1402 1.384 . S
C1400 H1391 0.929 . S
C1400 C1392 1.378 . S
C1400 C1395 1.351 . S
C1401 H1388 0.929 . S
C1401 C1393 1.405 1_556 S
C1401 N1403 1.384 . S
N1402 C1398 1.427 1_554 S
N1402 C1399 1.384 . S
N1403 C1395 1.426 1_556 S
N1403 C1401 1.384 . S
H1404 C1410 0.930 . S
H1405 C1414 0.930 . S
H1406 C1419 0.929 . S
H1407 C1417 0.929 . S
H1408 C1412 0.929 . S
H1409 C1418 0.929 . S
C1410 H1404 0.930 . S
C1410 C1411 1.367 1_556 S
C1410 C1418 1.378 . S
C1411 C1410 1.367 1_554 S
C1411 C1419 1.433 . S
C1412 H1408 0.929 . S
C1412 C1414 1.378 . S
C1412 C1416 1.350 . S
C1413 C1416 1.463 . S
C1413 C1418 1.350 1_554 S
C1413 N1421 1.427 . S
C1414 H1405 0.930 . S
C1414 C1412 1.378 . S
C1414 C1415 1.367 . S
C1415 C1414 1.367 . S
C1415 C1417 1.433 1_554 S
C1416 C1412 1.350 . S
C1416 C1413 1.463 . S
C1416 N1420 1.427 1_554 S
C1417 H1407 0.929 . S
C1417 C1415 1.433 1_556 S
C1417 N1420 1.384 . S
C1418 H1409 0.929 . S
C1418 C1410 1.378 . S
C1418 C1413 1.350 1_556 S
C1419 H1406 0.929 . S
C1419 C1411 1.433 . S
C1419 N1421 1.384 . S
N1420 C1416 1.427 1_556 S
N1420 C1417 1.384 . S
N1421 C1413 1.427 . S
N1421 C1419 1.384 . S
H1422 C1428 0.930 . S
H1423 C1432 0.930 . S
H1424 C1437 0.929 . S
H1425 C1435 0.929 . S
H1426 C1430 0.929 . S
H1427 C1436 0.929 . S
C1428 H1422 0.930 . S
C1428 C1429 1.367 1_556 S
C1428 C1436 1.378 . S
C1429 C1428 1.367 1_554 S
C1429 C1437 1.433 . S
C1430 H1426 0.929 . S
C1430 C1432 1.378 . S
C1430 C1434 1.350 . S
C1431 C1434 1.463 . S
C1431 C1436 1.350 1_554 S
C1431 N1439 1.427 . S
C1432 H1423 0.930 . S
C1432 C1430 1.378 . S
C1432 C1433 1.367 . S
C1433 C1432 1.367 . S
C1433 C1435 1.433 1_554 S
C1434 C1430 1.350 . S
C1434 C1431 1.463 . S
C1434 N1438 1.427 1_554 S
C1435 H1425 0.929 . S
C1435 C1433 1.433 1_556 S
C1435 N1438 1.384 . S
C1436 H1427 0.929 . S
C1436 C1428 1.378 . S
C1436 C1431 1.350 1_556 S
C1437 H1424 0.929 . S
C1437 C1429 1.433 . S
C1437 N1439 1.384 . S
N1438 C1434 1.427 1_556 S
N1438 C1435 1.384 . S
N1439 C1431 1.427 . S
N1439 C1437 1.384 . S
H1440 C1446 0.930 . S
H1441 C1450 0.930 . S
H1442 C1455 0.929 . S
H1443 C1453 0.929 . S
H1444 C1448 0.929 . S
H1445 C1454 0.929 . S
C1446 H1440 0.930 . S
C1446 C1447 1.367 . S
C1446 C1454 1.378 . S
C1447 C1446 1.367 . S
C1447 C1455 1.433 . S
C1448 H1444 0.929 . S
C1448 C1450 1.378 . S
C1448 C1452 1.350 . S
C1449 C1452 1.463 . S
C1449 C1454 1.350 . S
C1449 N1457 1.427 . S
C1450 H1441 0.930 . S
C1450 C1448 1.378 . S
C1450 C1451 1.367 . S
C1451 C1450 1.367 . S
C1451 C1453 1.433 . S
C1452 C1448 1.350 . S
C1452 C1449 1.463 . S
C1452 N1456 1.427 . S
C1453 H1443 0.929 . S
C1453 C1451 1.433 . S
C1453 N1456 1.384 . S
C1454 H1445 0.929 . S
C1454 C1446 1.378 . S
C1454 C1449 1.350 . S
C1455 H1442 0.929 . S
C1455 C1447 1.433 . S
C1455 N1457 1.384 . S
N1456 C1452 1.427 . S
N1456 C1453 1.384 . S
N1457 C1449 1.427 . S
N1457 C1455 1.384 . S
H1458 C1464 0.930 . S
H1459 C1468 0.930 . S
H1460 C1473 0.929 . S
H1461 C1471 0.929 . S
H1462 C1466 0.929 . S
H1463 C1472 0.929 . S
C1464 H1458 0.930 . S
C1464 C1465 1.367 . S
C1464 C1472 1.378 . S
C1465 C1464 1.367 . S
C1465 C1473 1.433 . S
C1466 H1462 0.929 . S
C1466 C1468 1.378 . S
C1466 C1470 1.350 . S
C1467 C1470 1.463 . S
C1467 C1472 1.350 . S
C1467 N1475 1.427 . S
C1468 H1459 0.930 . S
C1468 C1466 1.378 . S
C1468 C1469 1.367 . S
C1469 C1468 1.367 . S
C1469 C1471 1.433 . S
C1470 C1466 1.350 . S
C1470 C1467 1.463 . S
C1470 N1474 1.427 . S
C1471 H1461 0.929 . S
C1471 C1469 1.433 . S
C1471 N1474 1.384 . S
C1472 H1463 0.929 . S
C1472 C1464 1.378 . S
C1472 C1467 1.350 . S
C1473 H1460 0.929 . S
C1473 C1465 1.433 . S
C1473 N1475 1.384 . S
N1474 C1470 1.427 . S
N1474 C1471 1.384 . S
N1475 C1467 1.427 . S
N1475 C1473 1.384 . S
H1476 C1482 0.930 . S
H1477 C1486 0.930 . S
H1478 C1491 0.929 . S
H1479 C1489 0.929 . S
H1480 C1484 0.929 . S
H1481 C1490 0.929 . S
C1482 H1476 0.930 . S
C1482 C1483 1.367 . S
C1482 C1490 1.378 . S
C1483 C1482 1.367 . S
C1483 C1491 1.433 . S
C1484 H1480 0.929 . S
C1484 C1486 1.378 . S
C1484 C1488 1.350 . S
C1485 C1488 1.463 . S
C1485 C1490 1.350 . S
C1485 N1493 1.427 . S
C1486 H1477 0.930 . S
C1486 C1484 1.378 . S
C1486 C1487 1.367 . S
C1487 C1486 1.367 . S
C1487 C1489 1.433 . S
C1488 C1484 1.350 . S
C1488 C1485 1.463 . S
C1488 N1492 1.427 . S
C1489 H1479 0.929 . S
C1489 C1487 1.433 . S
C1489 N1492 1.384 . S
C1490 H1481 0.929 . S
C1490 C1482 1.378 . S
C1490 C1485 1.350 . S
C1491 H1478 0.929 . S
C1491 C1483 1.433 . S
C1491 N1493 1.384 . S
N1492 C1488 1.427 . S
N1492 C1489 1.384 . S
N1493 C1485 1.427 . S
N1493 C1491 1.384 . S
H1494 C1500 0.930 . S
H1495 C1504 0.930 . S
H1496 C1509 0.929 . S
H1497 C1507 0.929 . S
H1498 C1502 0.929 . S
H1499 C1508 0.929 . S
C1500 H1494 0.930 . S
C1500 C1501 1.367 . S
C1500 C1508 1.378 . S
C1501 C1500 1.367 . S
C1501 C1509 1.433 . S
C1502 H1498 0.929 . S
C1502 C1504 1.378 . S
C1502 C1506 1.350 . S
C1503 C1506 1.463 . S
C1503 C1508 1.350 . S
C1503 N1511 1.427 . S
C1504 H1495 0.930 . S
C1504 C1502 1.378 . S
C1504 C1505 1.367 . S
C1505 C1504 1.367 . S
C1505 C1507 1.433 . S
C1506 C1502 1.350 . S
C1506 C1503 1.463 . S
C1506 N1510 1.427 . S
C1507 H1497 0.929 . S
C1507 C1505 1.433 . S
C1507 N1510 1.384 . S
C1508 H1499 0.929 . S
C1508 C1500 1.378 . S
C1508 C1503 1.350 . S
C1509 H1496 0.929 . S
C1509 C1501 1.433 . S
C1509 N1511 1.384 . S
N1510 C1506 1.427 . S
N1510 C1507 1.384 . S
N1511 C1503 1.427 . S
N1511 C1509 1.384 . S
H1512 C1518 0.930 . S
H1513 C1522 0.930 . S
H1514 C1527 0.929 . S
H1515 C1525 0.929 . S
H1516 C1520 0.929 . S
H1517 C1526 0.929 . S
C1518 H1512 0.930 . S
C1518 C1519 1.367 . S
C1518 C1526 1.378 . S
C1519 C1518 1.367 . S
C1519 C1527 1.433 . S
C1520 H1516 0.929 . S
C1520 C1522 1.378 . S
C1520 C1524 1.350 . S
C1521 C1524 1.463 . S
C1521 C1526 1.350 . S
C1521 N1529 1.427 . S
C1522 H1513 0.930 . S
C1522 C1520 1.378 . S
C1522 C1523 1.367 . S
C1523 C1522 1.367 . S
C1523 C1525 1.433 . S
C1524 C1520 1.350 . S
C1524 C1521 1.463 . S
C1524 N1528 1.427 . S
C1525 H1515 0.929 . S
C1525 C1523 1.433 . S
C1525 N1528 1.384 . S
C1526 H1517 0.929 . S
C1526 C1518 1.378 . S
C1526 C1521 1.350 . S
C1527 H1514 0.929 . S
C1527 C1519 1.433 . S
C1527 N1529 1.384 . S
N1528 C1524 1.427 . S
N1528 C1525 1.384 . S
N1529 C1521 1.427 . S
N1529 C1527 1.384 . S
H1530 C1536 0.930 . S
H1531 C1540 0.930 . S
H1532 C1545 0.929 . S
H1533 C1543 0.929 . S
H1534 C1538 0.929 . S
H1535 C1544 0.929 . S
C1536 H1530 0.930 . S
C1536 C1537 1.367 . S
C1536 C1544 1.378 . S
C1537 C1536 1.367 . S
C1537 C1545 1.433 . S
C1538 H1534 0.929 . S
C1538 C1540 1.378 . S
C1538 C1542 1.350 . S
C1539 C1542 1.463 . S
C1539 C1544 1.350 . S
C1539 N1547 1.427 . S
C1540 H1531 0.930 . S
C1540 C1538 1.378 . S
C1540 C1541 1.367 . S
C1541 C1540 1.367 . S
C1541 C1543 1.433 . S
C1542 C1538 1.350 . S
C1542 C1539 1.463 . S
C1542 N1546 1.427 . S
C1543 H1533 0.929 . S
C1543 C1541 1.433 . S
C1543 N1546 1.384 . S
C1544 H1535 0.929 . S
C1544 C1536 1.378 . S
C1544 C1539 1.350 . S
C1545 H1532 0.929 . S
C1545 C1537 1.433 . S
C1545 N1547 1.384 . S
N1546 C1542 1.427 . S
N1546 C1543 1.384 . S
N1547 C1539 1.427 . S
N1547 C1545 1.384 . S
H1548 C1554 0.930 . S
H1549 C1558 0.930 . S
H1550 C1563 0.929 . S
H1551 C1561 0.929 . S
H1552 C1556 0.929 . S
H1553 C1562 0.929 . S
C1554 H1548 0.930 . S
C1554 C1555 1.367 . S
C1554 C1562 1.378 . S
C1555 C1554 1.367 . S
C1555 C1563 1.433 . S
C1556 H1552 0.929 . S
C1556 C1558 1.378 . S
C1556 C1560 1.350 . S
C1557 C1560 1.463 . S
C1557 C1562 1.350 . S
C1557 N1565 1.427 . S
C1558 H1549 0.930 . S
C1558 C1556 1.378 . S
C1558 C1559 1.367 . S
C1559 C1558 1.367 . S
C1559 C1561 1.433 . S
C1560 C1556 1.350 . S
C1560 C1557 1.463 . S
C1560 N1564 1.427 . S
C1561 H1551 0.929 . S
C1561 C1559 1.433 . S
C1561 N1564 1.384 . S
C1562 H1553 0.929 . S
C1562 C1554 1.378 . S
C1562 C1557 1.350 . S
C1563 H1550 0.929 . S
C1563 C1555 1.433 . S
C1563 N1565 1.384 . S
N1564 C1560 1.427 . S
N1564 C1561 1.384 . S
N1565 C1557 1.427 . S
N1565 C1563 1.384 . S
H1566 C1572 0.930 . S
H1567 C1576 0.930 . S
H1568 C1581 0.929 . S
H1569 C1579 0.929 . S
H1570 C1574 0.929 . S
H1571 C1580 0.929 . S
C1572 H1566 0.930 . S
C1572 C1573 1.367 . S
C1572 C1580 1.378 . S
C1573 C1572 1.367 . S
C1573 C1581 1.433 . S
C1574 H1570 0.929 . S
C1574 C1576 1.378 . S
C1574 C1578 1.350 . S
C1575 C1578 1.463 . S
C1575 C1580 1.350 . S
C1575 N1583 1.427 . S
C1576 H1567 0.930 . S
C1576 C1574 1.378 . S
C1576 C1577 1.367 . S
C1577 C1576 1.367 . S
C1577 C1579 1.433 . S
C1578 C1574 1.350 . S
C1578 C1575 1.463 . S
C1578 N1582 1.427 . S
C1579 H1569 0.929 . S
C1579 C1577 1.433 . S
C1579 N1582 1.384 . S
C1580 H1571 0.929 . S
C1580 C1572 1.378 . S
C1580 C1575 1.350 . S
C1581 H1568 0.929 . S
C1581 C1573 1.433 . S
C1581 N1583 1.384 . S
N1582 C1578 1.427 . S
N1582 C1579 1.384 . S
N1583 C1575 1.427 . S
N1583 C1581 1.384 . S
H1584 C1590 0.930 . S
H1585 C1594 0.930 . S
H1586 C1599 0.929 . S
H1587 C1597 0.929 . S
H1588 C1592 0.929 . S
H1589 C1598 0.929 . S
C1590 H1584 0.930 . S
C1590 C1591 1.367 . S
C1590 C1598 1.378 . S
C1591 C1590 1.367 . S
C1591 C1599 1.433 . S
C1592 H1588 0.929 . S
C1592 C1594 1.378 . S
C1592 C1596 1.350 . S
C1593 C1596 1.463 . S
C1593 C1598 1.350 . S
C1593 N1601 1.427 . S
C1594 H1585 0.930 . S
C1594 C1592 1.378 . S
C1594 C1595 1.367 . S
C1595 C1594 1.367 . S
C1595 C1597 1.433 . S
C1596 C1592 1.350 . S
C1596 C1593 1.463 . S
C1596 N1600 1.427 . S
C1597 H1587 0.929 . S
C1597 C1595 1.433 . S
C1597 N1600 1.384 . S
C1598 H1589 0.929 . S
C1598 C1590 1.378 . S
C1598 C1593 1.350 . S
C1599 H1586 0.929 . S
C1599 C1591 1.433 . S
C1599 N1601 1.384 . S
N1600 C1596 1.427 . S
N1600 C1597 1.384 . S
N1601 C1593 1.427 . S
N1601 C1599 1.384 . S
H1602 C1608 0.930 . S
H1603 C1612 0.930 . S
H1604 C1617 0.929 . S
H1605 C1615 0.929 . S
H1606 C1610 0.929 . S
H1607 C1616 0.929 . S
C1608 H1602 0.930 . S
C1608 C1609 1.367 . S
C1608 C1616 1.378 . S
C1609 C1608 1.367 . S
C1609 C1617 1.433 . S
C1610 H1606 0.929 . S
C1610 C1612 1.378 . S
C1610 C1614 1.350 . S
C1611 C1614 1.463 . S
C1611 C1616 1.350 . S
C1611 N1619 1.427 . S
C1612 H1603 0.930 . S
C1612 C1610 1.378 . S
C1612 C1613 1.367 . S
C1613 C1612 1.367 . S
C1613 C1615 1.433 . S
C1614 C1610 1.350 . S
C1614 C1611 1.463 . S
C1614 N1618 1.427 . S
C1615 H1605 0.929 . S
C1615 C1613 1.433 . S
C1615 N1618 1.384 . S
C1616 H1607 0.929 . S
C1616 C1608 1.378 . S
C1616 C1611 1.350 . S
C1617 H1604 0.929 . S
C1617 C1609 1.433 . S
C1617 N1619 1.384 . S
N1618 C1614 1.427 . S
N1618 C1615 1.384 . S
N1619 C1611 1.427 . S
N1619 C1617 1.384 . S
H1620 C1626 0.930 . S
H1621 C1630 0.930 . S
H1622 C1635 0.929 . S
H1623 C1633 0.929 . S
H1624 C1628 0.929 . S
H1625 C1634 0.929 . S
C1626 H1620 0.930 . S
C1626 C1627 1.367 . S
C1626 C1634 1.378 . S
C1627 C1626 1.367 . S
C1627 C1635 1.433 . S
C1628 H1624 0.929 . S
C1628 C1630 1.378 . S
C1628 C1632 1.350 . S
C1629 C1632 1.463 . S
C1629 C1634 1.350 . S
C1629 N1637 1.427 . S
C1630 H1621 0.930 . S
C1630 C1628 1.378 . S
C1630 C1631 1.367 . S
C1631 C1630 1.367 . S
C1631 C1633 1.433 . S
C1632 C1628 1.350 . S
C1632 C1629 1.463 . S
C1632 N1636 1.427 . S
C1633 H1623 0.929 . S
C1633 C1631 1.433 . S
C1633 N1636 1.384 . S
C1634 H1625 0.929 . S
C1634 C1626 1.378 . S
C1634 C1629 1.350 . S
C1635 H1622 0.929 . S
C1635 C1627 1.433 . S
C1635 N1637 1.384 . S
N1636 C1632 1.427 . S
N1636 C1633 1.384 . S
N1637 C1629 1.427 . S
N1637 C1635 1.384 . S
H1638 C1644 0.930 . S
H1639 C1648 0.930 . S
H1640 C1653 0.929 . S
H1641 C1651 0.929 . S
H1642 C1646 0.929 . S
H1643 C1652 0.929 . S
C1644 H1638 0.930 . S
C1644 C1645 1.367 . S
C1644 C1652 1.378 . S
C1645 C1644 1.367 . S
C1645 C1653 1.433 . S
C1646 H1642 0.929 . S
C1646 C1648 1.378 . S
C1646 C1650 1.350 . S
C1647 C1650 1.463 . S
C1647 C1652 1.350 . S
C1647 N1655 1.427 . S
C1648 H1639 0.930 . S
C1648 C1646 1.378 . S
C1648 C1649 1.367 . S
C1649 C1648 1.367 . S
C1649 C1651 1.433 . S
C1650 C1646 1.350 . S
C1650 C1647 1.463 . S
C1650 N1654 1.427 . S
C1651 H1641 0.929 . S
C1651 C1649 1.433 . S
C1651 N1654 1.384 . S
C1652 H1643 0.929 . S
C1652 C1644 1.378 . S
C1652 C1647 1.350 . S
C1653 H1640 0.929 . S
C1653 C1645 1.433 . S
C1653 N1655 1.384 . S
N1654 C1650 1.427 . S
N1654 C1651 1.384 . S
N1655 C1647 1.427 . S
N1655 C1653 1.384 . S
H1656 C1662 0.930 . S
H1657 C1666 0.930 . S
H1658 C1671 0.929 . S
H1659 C1669 0.929 . S
H1660 C1664 0.929 . S
H1661 C1670 0.929 . S
C1662 H1656 0.930 . S
C1662 C1663 1.367 . S
C1662 C1670 1.378 . S
C1663 C1662 1.367 . S
C1663 C1671 1.433 . S
C1664 H1660 0.929 . S
C1664 C1666 1.378 . S
C1664 C1668 1.350 . S
C1665 C1668 1.463 . S
C1665 C1670 1.350 . S
C1665 N1673 1.427 . S
C1666 H1657 0.930 . S
C1666 C1664 1.378 . S
C1666 C1667 1.367 . S
C1667 C1666 1.367 . S
C1667 C1669 1.433 . S
C1668 C1664 1.350 . S
C1668 C1665 1.463 . S
C1668 N1672 1.427 . S
C1669 H1659 0.929 . S
C1669 C1667 1.433 . S
C1669 N1672 1.384 . S
C1670 H1661 0.929 . S
C1670 C1662 1.378 . S
C1670 C1665 1.350 . S
C1671 H1658 0.929 . S
C1671 C1663 1.433 . S
C1671 N1673 1.384 . S
N1672 C1668 1.427 . S
N1672 C1669 1.384 . S
N1673 C1665 1.427 . S
N1673 C1671 1.384 . S
H1674 C1680 0.930 . S
H1675 C1684 0.930 . S
H1676 C1689 0.929 . S
H1677 C1687 0.929 . S
H1678 C1682 0.929 . S
H1679 C1688 0.929 . S
C1680 H1674 0.930 . S
C1680 C1681 1.367 . S
C1680 C1688 1.378 . S
C1681 C1680 1.367 . S
C1681 C1689 1.433 . S
C1682 H1678 0.929 . S
C1682 C1684 1.378 . S
C1682 C1686 1.350 . S
C1683 C1686 1.463 . S
C1683 C1688 1.350 . S
C1683 N1691 1.427 . S
C1684 H1675 0.930 . S
C1684 C1682 1.378 . S
C1684 C1685 1.367 . S
C1685 C1684 1.367 . S
C1685 C1687 1.433 . S
C1686 C1682 1.350 . S
C1686 C1683 1.463 . S
C1686 N1690 1.427 . S
C1687 H1677 0.929 . S
C1687 C1685 1.433 . S
C1687 N1690 1.384 . S
C1688 H1679 0.929 . S
C1688 C1680 1.378 . S
C1688 C1683 1.350 . S
C1689 H1676 0.929 . S
C1689 C1681 1.433 . S
C1689 N1691 1.384 . S
N1690 C1686 1.427 . S
N1690 C1687 1.384 . S
N1691 C1683 1.427 . S
N1691 C1689 1.384 . S
H1692 C1698 0.930 . S
H1693 C1702 0.930 . S
H1694 C1707 0.929 . S
H1695 C1705 0.929 . S
H1696 C1700 0.929 . S
H1697 C1706 0.929 . S
C1698 H1692 0.930 . S
C1698 C1699 1.367 . S
C1698 C1706 1.378 . S
C1699 C1698 1.367 . S
C1699 C1707 1.433 . S
C1700 H1696 0.929 . S
C1700 C1702 1.378 . S
C1700 C1704 1.350 . S
C1701 C1704 1.463 . S
C1701 C1706 1.350 . S
C1701 N1709 1.427 . S
C1702 H1693 0.930 . S
C1702 C1700 1.378 . S
C1702 C1703 1.367 . S
C1703 C1702 1.367 . S
C1703 C1705 1.433 . S
C1704 C1700 1.350 . S
C1704 C1701 1.463 . S
C1704 N1708 1.427 . S
C1705 H1695 0.929 . S
C1705 C1703 1.433 . S
C1705 N1708 1.384 . S
C1706 H1697 0.929 . S
C1706 C1698 1.378 . S
C1706 C1701 1.350 . S
C1707 H1694 0.929 . S
C1707 C1699 1.433 . S
C1707 N1709 1.384 . S
N1708 C1704 1.427 . S
N1708 C1705 1.384 . S
N1709 C1701 1.427 . S
N1709 C1707 1.384 . S
H1710 C1716 0.930 . S
H1711 C1720 0.930 . S
H1712 C1725 0.929 . S
H1713 C1723 0.929 . S
H1714 C1718 0.929 . S
H1715 C1724 0.929 . S
C1716 H1710 0.930 . S
C1716 C1717 1.367 . S
C1716 C1724 1.378 . S
C1717 C1716 1.367 . S
C1717 C1725 1.433 . S
C1718 H1714 0.929 . S
C1718 C1720 1.378 . S
C1718 C1722 1.350 . S
C1719 C1722 1.463 . S
C1719 C1724 1.350 . S
C1719 N1727 1.427 . S
C1720 H1711 0.930 . S
C1720 C1718 1.378 . S
C1720 C1721 1.367 . S
C1721 C1720 1.367 . S
C1721 C1723 1.433 . S
C1722 C1718 1.350 . S
C1722 C1719 1.463 . S
C1722 N1726 1.427 . S
C1723 H1713 0.929 . S
C1723 C1721 1.433 . S
C1723 N1726 1.384 . S
C1724 H1715 0.929 . S
C1724 C1716 1.378 . S
C1724 C1719 1.350 . S
C1725 H1712 0.929 . S
C1725 C1717 1.433 . S
C1725 N1727 1.384 . S
N1726 C1722 1.427 . S
N1726 C1723 1.384 . S
N1727 C1719 1.427 . S
N1727 C1725 1.384 . S
H1728 C1734 0.930 . S
H1729 C1738 0.930 . S
H1730 C1743 0.929 . S
H1731 C1741 0.929 . S
H1732 C1736 0.929 . S
H1733 C1742 0.929 . S
C1734 H1728 0.930 . S
C1734 C1735 1.367 . S
C1734 C1742 1.378 . S
C1735 C1734 1.367 . S
C1735 C1743 1.433 . S
C1736 H1732 0.929 . S
C1736 C1738 1.378 . S
C1736 C1740 1.350 . S
C1737 C1740 1.463 . S
C1737 C1742 1.350 . S
C1737 N1745 1.427 . S
C1738 H1729 0.930 . S
C1738 C1736 1.378 . S
C1738 C1739 1.367 . S
C1739 C1738 1.367 . S
C1739 C1741 1.433 . S
C1740 C1736 1.350 . S
C1740 C1737 1.463 . S
C1740 N1744 1.427 . S
C1741 H1731 0.929 . S
C1741 C1739 1.433 . S
C1741 N1744 1.384 . S
C1742 H1733 0.929 . S
C1742 C1734 1.378 . S
C1742 C1737 1.350 . S
C1743 H1730 0.929 . S
C1743 C1735 1.433 . S
C1743 N1745 1.384 . S
N1744 C1740 1.427 . S
N1744 C1741 1.384 . S
N1745 C1737 1.427 . S
N1745 C1743 1.384 . S
H1746 C1752 0.930 . S
H1747 C1756 0.930 . S
H1748 C1761 0.929 . S
H1749 C1759 0.929 . S
H1750 C1754 0.929 . S
H1751 C1760 0.929 . S
C1752 H1746 0.930 . S
C1752 C1753 1.367 . S
C1752 C1760 1.378 . S
C1753 C1752 1.367 . S
C1753 C1761 1.433 . S
C1754 H1750 0.929 . S
C1754 C1756 1.378 . S
C1754 C1758 1.350 . S
C1755 C1758 1.463 . S
C1755 C1760 1.350 . S
C1755 N1763 1.427 . S
C1756 H1747 0.930 . S
C1756 C1754 1.378 . S
C1756 C1757 1.367 . S
C1757 C1756 1.367 . S
C1757 C1759 1.433 . S
C1758 C1754 1.350 . S
C1758 C1755 1.463 . S
C1758 N1762 1.427 . S
C1759 H1749 0.929 . S
C1759 C1757 1.433 . S
C1759 N1762 1.384 . S
C1760 H1751 0.929 . S
C1760 C1752 1.378 . S
C1760 C1755 1.350 . S
C1761 H1748 0.929 . S
C1761 C1753 1.433 . S
C1761 N1763 1.384 . S
N1762 C1758 1.427 . S
N1762 C1759 1.384 . S
N1763 C1755 1.427 . S
N1763 C1761 1.384 . S
H1764 C1770 0.930 . S
H1765 C1774 0.930 . S
H1766 C1779 0.929 . S
H1767 C1777 0.929 . S
H1768 C1772 0.929 . S
H1769 C1778 0.929 . S
C1770 H1764 0.930 . S
C1770 C1771 1.367 . S
C1770 C1778 1.378 . S
C1771 C1770 1.367 . S
C1771 C1779 1.433 . S
C1772 H1768 0.929 . S
C1772 C1774 1.378 . S
C1772 C1776 1.350 . S
C1773 C1776 1.463 . S
C1773 C1778 1.350 . S
C1773 N1781 1.427 . S
C1774 H1765 0.930 . S
C1774 C1772 1.378 . S
C1774 C1775 1.367 . S
C1775 C1774 1.367 . S
C1775 C1777 1.433 . S
C1776 C1772 1.350 . S
C1776 C1773 1.463 . S
C1776 N1780 1.427 . S
C1777 H1767 0.929 . S
C1777 C1775 1.433 . S
C1777 N1780 1.384 . S
C1778 H1769 0.929 . S
C1778 C1770 1.378 . S
C1778 C1773 1.350 . S
C1779 H1766 0.929 . S
C1779 C1771 1.433 . S
C1779 N1781 1.384 . S
N1780 C1776 1.427 . S
N1780 C1777 1.384 . S
N1781 C1773 1.427 . S
N1781 C1779 1.384 . S
H1782 C1788 0.930 . S
H1783 C1792 0.930 . S
H1784 C1797 0.929 . S
H1785 C1795 0.929 . S
H1786 C1790 0.929 . S
H1787 C1796 0.929 . S
C1788 H1782 0.930 . S
C1788 C1789 1.367 . S
C1788 C1796 1.378 . S
C1789 C1788 1.367 . S
C1789 C1797 1.433 . S
C1790 H1786 0.929 . S
C1790 C1792 1.378 . S
C1790 C1794 1.350 . S
C1791 C1794 1.463 . S
C1791 C1796 1.350 . S
C1791 N1799 1.427 . S
C1792 H1783 0.930 . S
C1792 C1790 1.378 . S
C1792 C1793 1.367 . S
C1793 C1792 1.367 . S
C1793 C1795 1.433 . S
C1794 C1790 1.350 . S
C1794 C1791 1.463 . S
C1794 N1798 1.427 . S
C1795 H1785 0.929 . S
C1795 C1793 1.433 . S
C1795 N1798 1.384 . S
C1796 H1787 0.929 . S
C1796 C1788 1.378 . S
C1796 C1791 1.350 . S
C1797 H1784 0.929 . S
C1797 C1789 1.433 . S
C1797 N1799 1.384 . S
N1798 C1794 1.427 . S
N1798 C1795 1.384 . S
N1799 C1791 1.427 . S
N1799 C1797 1.384 . S
H1800 C1806 0.930 . S
H1801 C1810 0.930 . S
H1802 C1815 0.929 . S
H1803 C1813 0.929 . S
H1804 C1808 0.929 . S
H1805 C1814 0.929 . S
C1806 H1800 0.930 . S
C1806 C1807 1.367 . S
C1806 C1814 1.378 . S
C1807 C1806 1.367 . S
C1807 C1815 1.433 . S
C1808 H1804 0.929 . S
C1808 C1810 1.378 . S
C1808 C1812 1.350 . S
C1809 C1812 1.463 . S
C1809 C1814 1.350 . S
C1809 N1817 1.427 . S
C1810 H1801 0.930 . S
C1810 C1808 1.378 . S
C1810 C1811 1.367 . S
C1811 C1810 1.367 . S
C1811 C1813 1.433 . S
C1812 C1808 1.350 . S
C1812 C1809 1.463 . S
C1812 N1816 1.427 . S
C1813 H1803 0.929 . S
C1813 C1811 1.433 . S
C1813 N1816 1.384 . S
C1814 H1805 0.929 . S
C1814 C1806 1.378 . S
C1814 C1809 1.350 . S
C1815 H1802 0.929 . S
C1815 C1807 1.433 . S
C1815 N1817 1.384 . S
N1816 C1812 1.427 . S
N1816 C1813 1.384 . S
N1817 C1809 1.427 . S
N1817 C1815 1.384 . S
H1818 C1824 0.930 . S
H1819 C1828 0.930 . S
H1820 C1833 0.929 . S
H1821 C1831 0.929 . S
H1822 C1826 0.929 . S
H1823 C1832 0.929 . S
C1824 H1818 0.930 . S
C1824 C1825 1.367 . S
C1824 C1832 1.378 . S
C1825 C1824 1.367 . S
C1825 C1833 1.433 . S
C1826 H1822 0.929 . S
C1826 C1828 1.378 . S
C1826 C1830 1.350 . S
C1827 C1830 1.463 . S
C1827 C1832 1.350 . S
C1827 N1835 1.427 . S
C1828 H1819 0.930 . S
C1828 C1826 1.378 . S
C1828 C1829 1.367 . S
C1829 C1828 1.367 . S
C1829 C1831 1.433 . S
C1830 C1826 1.350 . S
C1830 C1827 1.463 . S
C1830 N1834 1.427 . S
C1831 H1821 0.929 . S
C1831 C1829 1.433 . S
C1831 N1834 1.384 . S
C1832 H1823 0.929 . S
C1832 C1824 1.378 . S
C1832 C1827 1.350 . S
C1833 H1820 0.929 . S
C1833 C1825 1.433 . S
C1833 N1835 1.384 . S
N1834 C1830 1.427 . S
N1834 C1831 1.384 . S
N1835 C1827 1.427 . S
N1835 C1833 1.384 . S
H1836 C1842 0.930 . S
H1837 C1846 0.930 . S
H1838 C1851 0.929 . S
H1839 C1849 0.929 . S
H1840 C1844 0.929 . S
H1841 C1850 0.929 . S
C1842 H1836 0.930 . S
C1842 C1843 1.367 . S
C1842 C1850 1.378 . S
C1843 C1842 1.367 . S
C1843 C1851 1.433 . S
C1844 H1840 0.929 . S
C1844 C1846 1.378 . S
C1844 C1848 1.350 . S
C1845 C1848 1.463 . S
C1845 C1850 1.350 . S
C1845 N1853 1.427 . S
C1846 H1837 0.930 . S
C1846 C1844 1.378 . S
C1846 C1847 1.367 . S
C1847 C1846 1.367 . S
C1847 C1849 1.433 . S
C1848 C1844 1.350 . S
C1848 C1845 1.463 . S
C1848 N1852 1.427 . S
C1849 H1839 0.929 . S
C1849 C1847 1.433 . S
C1849 N1852 1.384 . S
C1850 H1841 0.929 . S
C1850 C1842 1.378 . S
C1850 C1845 1.350 . S
C1851 H1838 0.929 . S
C1851 C1843 1.433 . S
C1851 N1853 1.384 . S
N1852 C1848 1.427 . S
N1852 C1849 1.384 . S
N1853 C1845 1.427 . S
N1853 C1851 1.384 . S
H1854 C1860 0.930 . S
H1855 C1864 0.930 . S
H1856 C1869 0.929 . S
H1857 C1867 0.929 . S
H1858 C1862 0.929 . S
H1859 C1868 0.929 . S
C1860 H1854 0.930 . S
C1860 C1861 1.367 . S
C1860 C1868 1.378 . S
C1861 C1860 1.367 . S
C1861 C1869 1.433 . S
C1862 H1858 0.929 . S
C1862 C1864 1.378 . S
C1862 C1866 1.350 . S
C1863 C1866 1.463 . S
C1863 C1868 1.350 . S
C1863 N1871 1.427 . S
C1864 H1855 0.930 . S
C1864 C1862 1.378 . S
C1864 C1865 1.367 . S
C1865 C1864 1.367 . S
C1865 C1867 1.433 . S
C1866 C1862 1.350 . S
C1866 C1863 1.463 . S
C1866 N1870 1.427 . S
C1867 H1857 0.929 . S
C1867 C1865 1.433 . S
C1867 N1870 1.384 . S
C1868 H1859 0.929 . S
C1868 C1860 1.378 . S
C1868 C1863 1.350 . S
C1869 H1856 0.929 . S
C1869 C1861 1.433 . S
C1869 N1871 1.384 . S
N1870 C1866 1.427 . S
N1870 C1867 1.384 . S
N1871 C1863 1.427 . S
N1871 C1869 1.384 . S
C587 C306 1.216 . S
C583 C258 1.271 . S
C601 C236 1.612 . S
C605 C300 1.529 . S
C623 C268 1.657 . S
C619 C225 1.746 . S
C637 C247 1.455 . S
C641 C282 1.366 . S
C659 C320 1.871 . S
C655 C181 1.994 . S
C677 C407 1.354 . S
C673 C192 1.388 . S
C691 C203 2.015 . S
C695 C334 1.936 . S
C713 C402 1.317 . S
C709 C214 1.338 . S
C727 C137 2.122 . S
C731 C358 2.014 . S
C749 C413 1.616 . S
C745 C148 1.653 . S
C763 C159 2.047 . S
C767 C352 1.976 . S
C781 C170 1.017 . S
C785 C398 0.999 . S
C803 C454 1.034 . S
C799 C126 1.049 . S
C817 C104 1.703 . S
C821 C465 1.672 . S
C835 C93 1.420 . S
C839 C450 1.397 . S
C857 C459 1.442 . S
C853 C115 1.464 1_554 S
C871 C49 1.554 . S
C875 C504 1.494 . S
C889 C60 0.685 . S
C893 C563 0.702 . S
C907 C71 1.689 . S
C911 C520 1.561 . S
C925 C82 1.323 . S
C929 C558 1.300 . S
C947 C522 1.703 . S
C943 C5 1.804 . S
C965 C569 0.826 . S
C961 C16 0.837 . S
C979 C27 1.640 . S
C983 C498 1.534 . S
C1001 C554 0.918 . S
C997 C38 0.931 . S
C1019 C290 1.651 . S
C1015 C4 1.696 . S
C1033 C21 1.192 . S
C1037 C294 1.234 . S
C1051 C32 1.467 . S
C1055 C314 1.443 . S
C1069 C37 0.978 . S
C1073 C309 0.979 . S
C1087 C48 1.746 . S
C1091 C312 1.701 . S
C1109 C298 1.271 . S
C1105 C59 1.257 . S
C1123 C76 1.399 . S
C1127 C296 1.406 . S
C1145 C303 1.281 . S
C1141 C81 1.276 . S
C1163 C366 1.357 . S
C1159 C43 1.348 . S
C1177 C10 1.771 . S
C1181 C416 1.754 . S
C1199 C364 1.398 . S
C1195 C15 1.434 . S
C1217 C400 1.896 . S
C1213 C26 2.002 . S
C1231 C65 1.069 . S
C1235 C342 1.080 . S
C1253 C418 1.847 . S
C1249 C70 1.933 . S
C1271 C348 1.416 . S
C1267 C87 1.397 . S
C1289 C394 1.588 . S
C1285 C54 1.560 . S
C1307 C386 1.415 . S
C1303 C98 1.375 . S
C1321 C109 1.228 . S
C1325 C410 1.265 . S
C1343 C346 1.352 . S
C1339 C92 1.336 . S
C1361 C372 1.303 1_556 S
C1357 C114 1.297 . S
C1375 C131 0.948 . S
C1379 C350 0.978 . S
C1393 C125 1.361 . S
C1397 C404 1.379 1_556 S
C1415 C361 1.570 . S
C1411 C103 1.547 . S
C1433 C355 1.295 . S
C1429 C120 1.211 . S
C1451 C438 1.943 . S
C1447 C136 2.015 . S
C1469 C470 1.443 . S
C1465 C153 1.392 . S
C1483 C164 1.707 . S
C1487 C424 1.754 . S
C1505 C468 1.124 . S
C1501 C169 1.152 . S
C1523 C456 1.939 . S
C1519 C180 1.957 . S
C1537 C191 1.376 . S
C1541 C452 1.386 . S
C1555 C208 1.704 . S
C1559 C462 1.759 . S
C1577 C446 1.405 . S
C1573 C213 1.444 . S
C1595 C511 1.250 . S
C1591 C175 1.190 . S
C1609 C142 1.554 . S
C1613 C572 1.565 . S
C1631 C506 1.276 . S
C1627 C147 1.259 . S
C1649 C556 1.726 . S
C1645 C158 1.752 . S
C1667 C502 1.015 . S
C1663 C197 0.949 . S
C1681 C202 1.648 . S
C1685 C574 1.620 . S
C1703 C517 1.297 . S
C1699 C219 1.238 . S
C1721 C550 1.363 . S
C1717 C186 1.309 . S
C1739 C542 1.560 . S
C1735 C230 1.547 . S
C1753 C241 1.627 . S
C1757 C566 1.601 . S
C1775 C508 1.571 . S
C1771 C224 1.600 . S
C1789 C246 1.729 . S
C1793 C528 1.653 . S
C1811 C490 1.249 . S
C1807 C263 1.254 . S
C1829 C560 1.480 . S
C1825 C257 1.519 . S
C1847 C476 1.569 . S
C1843 C235 1.627 . S
C1861 C252 1.218 . S
C1865 C514 1.224 . S
