# Generated by pormake.
# Topology pth, (4,4)-cn, num edge types: 1
# Building blocks:
#     Node 0, Type 0, BuildingBlock: AZAVOO_clean_sbu_0, # of connection points: 4
#     Node 1, Type 0, BuildingBlock: AZAVOO_clean_sbu_0, # of connection points: 4
#     Node 2, Type 0, BuildingBlock: AZAVOO_clean_sbu_0, # of connection points: 4
#     Node 3, Type 1, BuildingBlock: NAHDIM_clean_linker_0, # of connection points: 4
#     Node 4, Type 1, BuildingBlock: NAHDIM_clean_linker_0, # of connection points: 4
#     Node 5, Type 1, BuildingBlock: NAHDIM_clean_linker_0, # of connection points: 4
#     Edge 6, Type (0, 1), BuildingBlock: AJUNOK_clean_linker_0, # of connection points: 2
#     Edge 7, Type (0, 1), BuildingBlock: AJUNOK_clean_linker_0, # of connection points: 2
#     Edge 8, Type (0, 1), BuildingBlock: AJUNOK_clean_linker_0, # of connection points: 2
#     Edge 9, Type (0, 1), BuildingBlock: AJUNOK_clean_linker_0, # of connection points: 2
#     Edge 10, Type (0, 1), BuildingBlock: AJUNOK_clean_linker_0, # of connection points: 2
#     Edge 11, Type (0, 1), BuildingBlock: AJUNOK_clean_linker_0, # of connection points: 2
#     Edge 12, Type (0, 1), BuildingBlock: AJUNOK_clean_linker_0, # of connection points: 2
#     Edge 13, Type (0, 1), BuildingBlock: AJUNOK_clean_linker_0, # of connection points: 2
#     Edge 14, Type (0, 1), BuildingBlock: AJUNOK_clean_linker_0, # of connection points: 2
#     Edge 15, Type (0, 1), BuildingBlock: AJUNOK_clean_linker_0, # of connection points: 2
#     Edge 16, Type (0, 1), BuildingBlock: AJUNOK_clean_linker_0, # of connection points: 2
#     Edge 17, Type (0, 1), BuildingBlock: AJUNOK_clean_linker_0, # of connection points: 2
# Relax obj value: 0.087
# Max RMSD: 0.221
# Mean RMSD: 0.131
data_MOF--net-pth--node1-AZAVOO_clean_sbu_0--node2-NAHDIM_clean_linker_0--edge1-AJUNOK_clean_linker_0
_symmetry_space_group_name_H-M    P1
_symmetry_Int_Tables_number       1
_symmetry_cell_setting            triclinic
loop_
_symmetry_equiv_pos_as_xyz
'x, y, z'
_cell_length_a     25.500735
_cell_length_b     25.983427
_cell_length_c     64.562274
_cell_angle_alpha  90.337883
_cell_angle_beta   93.621106
_cell_angle_gamma 122.01765
loop_
_atom_site_label
_atom_site_type_symbol
_atom_site_fract_x
_atom_site_fract_y
_atom_site_fract_z
_atom_type_partial_charge
Mg0 Mg 0.09641 0.07022 0.06911 0.0
O1 O 0.00494 0.01629 0.04854 0.0
O2 O 0.98912 0.08246 0.03177 0.0
Mg3 Mg 0.07049 0.17808 0.04115 0.0
C4 C 0.97269 0.02812 0.03582 0.0
C5 C 0.09226 0.99168 0.10563 0.0
O6 O 0.13452 0.04666 0.11308 0.0
O7 O 0.05224 0.1001 0.09201 0.0
O8 O 0.03981 0.16718 0.07433 0.0
O9 O 0.14732 0.06817 0.04245 0.0
O10 O 0.12936 0.1408 0.0488 0.0
C11 C 0.0354 0.13836 0.09073 0.0
C12 C 0.15027 0.1173 0.03672 0.0
O13 O 0.0684 0.98536 0.08719 0.0
Mg14 Mg 0.01101 0.10619 0.38067 0.0
O15 O 0.07279 0.11305 0.40927 0.0
O16 O 0.09206 0.19093 0.43001 0.0
Mg17 Mg 0.04291 0.23469 0.41448 0.0
C18 C 0.09803 0.14627 0.42593 0.0
C19 C 0.02172 0.99308 0.37224 0.0
O20 O 0.99108 0.97585 0.38901 0.0
O21 O 0.09176 0.18849 0.36715 0.0
O22 O 0.10682 0.26565 0.38756 0.0
O23 O 0.92741 0.0472 0.39785 0.0
O24 O 0.97476 0.1471 0.39775 0.0
C25 C 0.12007 0.24521 0.37199 0.0
C26 C 0.93221 0.09663 0.4047 0.0
O27 O 0.0351 0.04348 0.36479 0.0
Mg28 Mg 0.9436 0.00907 0.69704 0.0
O29 O 0.01424 0.071 0.72314 0.0
O30 O 0.97099 0.10309 0.74441 0.0
Mg31 Mg 0.86962 0.05972 0.73161 0.0
C32 C 0.01771 0.10175 0.73917 0.0
C33 C 0.05703 0.00098 0.68962 0.0
O34 O 0.04169 0.97768 0.70788 0.0
O35 O 0.94998 0.09036 0.68142 0.0
O36 O 0.90004 0.11586 0.70236 0.0
O37 O 0.91343 0.92888 0.71651 0.0
O38 O 0.87139 0.98436 0.71621 0.0
C39 C 0.92822 0.12306 0.68591 0.0
C40 C 0.87441 0.94026 0.7239 0.0
O41 O 0.02424 0.01848 0.68019 0.0
C42 C 0.17976 0.87031 0.35638 0.0
C43 C 0.1322 0.86434 0.33919 0.0
C44 C 0.09872 0.76606 0.32147 0.0
C45 C 0.15382 0.78577 0.31175 0.0
C46 C 0.16091 0.74499 0.29969 0.0
C47 C 0.11216 0.68327 0.29734 0.0
C48 C 0.05659 0.66335 0.30698 0.0
C49 C 0.05062 0.70511 0.31888 0.0
C50 C 0.22055 0.76784 0.28945 0.0
C51 C 0.00351 0.59791 0.30469 0.0
C52 C 0.3454 0.42072 0.31352 0.0
C53 C 0.28396 0.41786 0.31338 0.0
C54 C 0.26028 0.4972 0.31003 0.0
C55 C 0.19519 0.46096 0.30834 0.0
C56 C 0.15962 0.48463 0.30083 0.0
C57 C 0.1899 0.54478 0.29393 0.0
C58 C 0.25555 0.58163 0.29607 0.0
C59 C 0.28971 0.55763 0.30455 0.0
C60 C 0.08978 0.44492 0.29995 0.0
C61 C 0.28991 0.64616 0.28917 0.0
C62 C 0.03166 0.33992 0.17307 0.0
C63 C 0.98232 0.34103 0.18111 0.0
C64 C 0.99065 0.39548 0.18904 0.0
C65 C 0.0491 0.45022 0.18853 0.0
C66 C 0.098 0.44976 0.17953 0.0
C67 C 0.08889 0.39433 0.17226 0.0
C68 C 0.93737 0.3942 0.19854 0.0
C69 C 0.16038 0.50746 0.17821 0.0
C70 C 0.93563 0.79373 0.17152 0.0
C71 C 0.99248 0.79593 0.16402 0.0
C72 C 0.99217 0.70256 0.16545 0.0
C73 C 0.94664 0.64276 0.16921 0.0
C74 C 0.96204 0.60513 0.17997 0.0
C75 C 0.02496 0.62752 0.18639 0.0
C76 C 0.07161 0.68706 0.18145 0.0
C77 C 0.05454 0.7242 0.17127 0.0
C78 C 0.9109 0.54196 0.18473 0.0
C79 C 0.13949 0.71183 0.18709 0.0
C80 C 0.119 0.63955 0.28467 0.0
C81 C 0.14661 0.61073 0.2944 0.0
C82 C 0.15376 0.56849 0.28343 0.0
C83 C 0.13055 0.55271 0.26235 0.0
C84 C 0.13378 0.5081 0.25109 0.0
C85 C 0.10912 0.49163 0.2306 0.0
C86 C 0.0841 0.522 0.22007 0.0
C87 C 0.05993 0.50634 0.19911 0.0
C88 C 0.0411 0.54139 0.18852 0.0
C89 C 0.04213 0.58967 0.19872 0.0
C90 C 0.06018 0.60182 0.22028 0.0
C91 C 0.05584 0.64571 0.23158 0.0
C92 C 0.07429 0.65763 0.25272 0.0
C93 C 0.09898 0.62699 0.26329 0.0
C94 C 0.10395 0.58276 0.25219 0.0
C95 C 0.08288 0.56897 0.23082 0.0
C96 C 0.95001 0.1922 0.17982 0.0
C97 C 0.97281 0.2322 0.16099 0.0
O98 O 0.08984 0.80367 0.3335 0.0
O99 O 0.97494 0.73867 0.15623 0.0
O100 O 0.02675 0.28759 0.1665 0.0
O101 O 0.29617 0.47591 0.31719 0.0
H102 H 0.15702 0.88854 0.32546 0.0
H103 H 0.20677 0.85147 0.35081 0.0
H104 H 0.15635 0.84539 0.37018 0.0
H105 H 0.21288 0.91893 0.36114 0.0
H106 H 0.19166 0.8327 0.31345 0.0
H107 H 0.00825 0.69023 0.32635 0.0
H108 H 0.24406 0.74503 0.29586 0.0
H109 H 0.25287 0.81777 0.29187 0.0
H110 H 0.21038 0.75626 0.2725 0.0
H111 H 0.96396 0.58925 0.31361 0.0
H112 H 0.0197 0.56778 0.3101 0.0
H113 H 0.98688 0.58548 0.28804 0.0
H114 H 0.26041 0.40118 0.29748 0.0
H115 H 0.37399 0.45168 0.30154 0.0
H116 H 0.33691 0.3749 0.30994 0.0
H117 H 0.37186 0.43802 0.32893 0.0
H118 H 0.17197 0.41453 0.31308 0.0
H119 H 0.33994 0.58545 0.30626 0.0
H120 H 0.06953 0.47152 0.30467 0.0
H121 H 0.0741 0.40582 0.31013 0.0
H122 H 0.07129 0.42674 0.28378 0.0
H123 H 0.34067 0.66577 0.2893 0.0
H124 H 0.2821 0.67476 0.29979 0.0
H125 H 0.27217 0.64837 0.27325 0.0
H126 H 0.93542 0.23964 0.15514 0.0
H127 H 0.93767 0.2995 0.18181 0.0
H128 H 0.12664 0.39319 0.16592 0.0
H129 H 0.95118 0.41186 0.21496 0.0
H130 H 0.89517 0.34775 0.19811 0.0
H131 H 0.92566 0.42426 0.19006 0.0
H132 H 0.19054 0.50089 0.16825 0.0
H133 H 0.18428 0.52316 0.19401 0.0
H134 H 0.15443 0.5439 0.17193 0.0
H135 H 0.02636 0.80966 0.17786 0.0
H136 H 0.94876 0.8391 0.17799 0.0
H137 H 0.91617 0.76066 0.18394 0.0
H138 H 0.89909 0.77939 0.15858 0.0
H139 H 0.89866 0.62637 0.16435 0.0
H140 H 0.08981 0.77009 0.16774 0.0
H141 H 0.91663 0.53267 0.20122 0.0
H142 H 0.91336 0.50831 0.17485 0.0
H143 H 0.86418 0.53507 0.18166 0.0
H144 H 0.16992 0.75332 0.17865 0.0
H145 H 0.15094 0.67716 0.18357 0.0
H146 H 0.15001 0.72372 0.204 0.0
H147 H 0.16361 0.62201 0.31063 0.0
H148 H 0.15433 0.48444 0.25805 0.0
H149 H 0.11134 0.45568 0.223 0.0
H150 H 0.02475 0.53047 0.17222 0.0
H151 H 0.03754 0.67095 0.22425 0.0
H152 H 0.06965 0.69172 0.26061 0.0
H153 H 0.9107 0.14584 0.17481 0.0
H154 H 0.93338 0.21159 0.19114 0.0
H155 H 0.98747 0.18878 0.18804 0.0
C156 C 0.23676 0.97879 0.6297 0.0
C157 C 0.2662 0.01927 0.64972 0.0
C158 C 0.36597 0.09927 0.63756 0.0
C159 C 0.39833 0.1584 0.6306 0.0
C160 C 0.45356 0.18065 0.62077 0.0
C161 C 0.47656 0.1424 0.61771 0.0
C162 C 0.4463 0.08393 0.62589 0.0
C163 C 0.39167 0.06315 0.63589 0.0
C164 C 0.48565 0.24386 0.61275 0.0
C165 C 0.47018 0.04231 0.62322 0.0
C166 C 0.9929 0.35374 0.62836 0.0
C167 C 0.92834 0.29605 0.62794 0.0
C168 C 0.82547 0.28235 0.62623 0.0
C169 C 0.79017 0.21978 0.62095 0.0
C170 C 0.7275 0.19119 0.61356 0.0
C171 C 0.70036 0.22641 0.61059 0.0
C172 C 0.7355 0.28916 0.61645 0.0
C173 C 0.7973 0.31599 0.62455 0.0
C174 C 0.69079 0.12357 0.60857 0.0
C175 C 0.70831 0.32827 0.61369 0.0
C176 C 0.71395 0.1236 0.47907 0.0
C177 C 0.67918 0.07922 0.49317 0.0
C178 C 0.63538 0.08248 0.50424 0.0
C179 C 0.62699 0.13178 0.5015 0.0
C180 C 0.66126 0.17608 0.48713 0.0
C181 C 0.70391 0.17099 0.47594 0.0
C182 C 0.59835 0.03326 0.519 0.0
C183 C 0.65363 0.22926 0.48387 0.0
C184 C 0.14457 0.00769 0.4992 0.0
C185 C 0.20201 0.05975 0.49009 0.0
C186 C 0.2959 0.05705 0.48943 0.0
C187 C 0.31252 0.01412 0.4922 0.0
C188 C 0.37194 0.03137 0.50074 0.0
C189 C 0.41609 0.09341 0.50604 0.0
C190 C 0.40058 0.1375 0.50203 0.0
C191 C 0.34047 0.11879 0.49385 0.0
C192 C 0.38688 0.98317 0.50469 0.0
C193 C 0.44713 0.20429 0.50677 0.0
C194 C 0.52731 0.16012 0.60384 0.0
C195 C 0.58795 0.1851 0.61268 0.0
C196 C 0.6366 0.19863 0.60034 0.0
C197 C 0.62429 0.18595 0.57859 0.0
C198 C 0.67155 0.19744 0.5657 0.0
C199 C 0.65821 0.18141 0.54456 0.0
C200 C 0.59756 0.15551 0.53533 0.0
C201 C 0.58298 0.13689 0.51403 0.0
C202 C 0.52375 0.11715 0.50487 0.0
C203 C 0.47736 0.11211 0.51673 0.0
C204 C 0.48946 0.12452 0.53847 0.0
C205 C 0.44227 0.11388 0.55121 0.0
C206 C 0.45442 0.12507 0.5726 0.0
C207 C 0.51462 0.14893 0.58207 0.0
C208 C 0.56309 0.16104 0.56947 0.0
C209 C 0.55011 0.1474 0.54772 0.0
C210 C 0.82818 0.11307 0.49183 0.0
C211 C 0.7845 0.08889 0.47193 0.0
O212 O 0.30978 0.07861 0.64517 0.0
O213 O 0.23652 0.03758 0.48264 0.0
O214 O 0.75757 0.12275 0.46823 0.0
O215 O 0.88644 0.31174 0.6331 0.0
H216 H 0.28946 0.00117 0.65961 0.0
H217 H 0.27173 0.97523 0.62153 0.0
H218 H 0.21604 0.9976 0.61892 0.0
H219 H 0.19995 0.93211 0.63345 0.0
H220 H 0.379 0.1865 0.63226 0.0
H221 H 0.36866 0.01802 0.64178 0.0
H222 H 0.5363 0.26827 0.61714 0.0
H223 H 0.46713 0.27075 0.61881 0.0
H224 H 0.47911 0.24089 0.59552 0.0
H225 H 0.44246 0.99883 0.63102 0.0
H226 H 0.5192 0.06528 0.62968 0.0
H227 H 0.46902 0.03199 0.60642 0.0
H228 H 0.91595 0.27628 0.61171 0.0
H229 H 0.02728 0.3428 0.62373 0.0
H230 H 0.00764 0.37622 0.64417 0.0
H231 H 0.99238 0.386 0.61726 0.0
H232 H 0.81116 0.19301 0.62271 0.0
H233 H 0.82473 0.36407 0.62896 0.0
H234 H 0.64323 0.10222 0.6138 0.0
H235 H 0.71361 0.10112 0.61596 0.0
H236 H 0.68656 0.11504 0.59151 0.0
H237 H 0.74326 0.37714 0.61744 0.0
H238 H 0.66995 0.31321 0.624 0.0
H239 H 0.68854 0.32306 0.59743 0.0
H240 H 0.74762 0.04053 0.4736 0.0
H241 H 0.68569 0.04181 0.49567 0.0
H242 H 0.73068 0.20485 0.46495 0.0
H243 H 0.61448 0.05187 0.53525 0.0
H244 H 0.60341 0.99364 0.51702 0.0
H245 H 0.54837 0.0173 0.51666 0.0
H246 H 0.68701 0.26218 0.47325 0.0
H247 H 0.66023 0.25324 0.49901 0.0
H248 H 0.60579 0.21255 0.47719 0.0
H249 H 0.22884 0.09389 0.50313 0.0
H250 H 0.11617 0.02436 0.50534 0.0
H251 H 0.15896 0.98888 0.5122 0.0
H252 H 0.11567 0.97058 0.48724 0.0
H253 H 0.27793 0.96665 0.48841 0.0
H254 H 0.32824 0.15231 0.49095 0.0
H255 H 0.40332 0.98622 0.52126 0.0
H256 H 0.42494 0.99086 0.49516 0.0
H257 H 0.34621 0.93659 0.50087 0.0
H258 H 0.43083 0.23321 0.50012 0.0
H259 H 0.49212 0.21772 0.50057 0.0
H260 H 0.4555 0.21331 0.52386 0.0
H261 H 0.59729 0.1936 0.62938 0.0
H262 H 0.71925 0.21785 0.57184 0.0
H263 H 0.69614 0.19002 0.53548 0.0
H264 H 0.5133 0.10444 0.4884 0.0
H265 H 0.3951 0.09568 0.54484 0.0
H266 H 0.41588 0.11498 0.58157 0.0
H267 H 0.86483 0.16173 0.49065 0.0
H268 H 0.85053 0.08657 0.49455 0.0
H269 H 0.80203 0.10879 0.50548 0.0
C270 C 0.64191 0.74146 0.76973 0.0
C271 C 0.69781 0.79004 0.7838 0.0
C272 C 0.68433 0.72459 0.81279 0.0
C273 C 0.6344 0.72445 0.82091 0.0
C274 C 0.59614 0.67937 0.8342 0.0
C275 C 0.60829 0.63377 0.83957 0.0
C276 C 0.66093 0.63617 0.83255 0.0
C277 C 0.69864 0.682 0.81934 0.0
C278 C 0.54108 0.6789 0.84176 0.0
C279 C 0.67569 0.58878 0.83829 0.0
C280 C 0.23772 0.19177 0.81244 0.0
C281 C 0.24748 0.23138 0.79377 0.0
C282 C 0.31118 0.33469 0.81017 0.0
C283 C 0.36593 0.33444 0.81422 0.0
C284 C 0.41761 0.38283 0.82566 0.0
C285 C 0.41462 0.43249 0.83303 0.0
C286 C 0.36057 0.434 0.82824 0.0
C287 C 0.30954 0.38494 0.81689 0.0
C288 C 0.47483 0.38022 0.83041 0.0
C289 C 0.35612 0.4867 0.8356 0.0
C290 C 0.28794 0.32512 0.95232 0.0
C291 C 0.34291 0.32466 0.95462 0.0
C292 C 0.39992 0.3762 0.95029 0.0
C293 C 0.40187 0.4291 0.94385 0.0
C294 C 0.34752 0.43123 0.94337 0.0
C295 C 0.29124 0.37907 0.9476 0.0
C296 C 0.45745 0.37315 0.95145 0.0
C297 C 0.34812 0.48739 0.9371 0.0
C298 C 0.78092 0.86148 0.96094 0.0
C299 C 0.75872 0.84402 0.98283 0.0
C300 C 0.69228 0.73375 0.97557 0.0
C301 C 0.69467 0.6813 0.9747 0.0
C302 C 0.6492 0.62928 0.96283 0.0
C303 C 0.59948 0.62955 0.95192 0.0
C304 C 0.59489 0.68133 0.95366 0.0
C305 C 0.64151 0.73303 0.96536 0.0
C306 C 0.65515 0.57463 0.96148 0.0
C307 C 0.54134 0.68251 0.94282 0.0
C308 C 0.562 0.58014 0.85043 0.0
C309 C 0.51436 0.53123 0.83807 0.0
C310 C 0.46615 0.48086 0.84696 0.0
C311 C 0.46535 0.47857 0.8688 0.0
C312 C 0.41735 0.42848 0.87818 0.0
C313 C 0.41519 0.42775 0.89961 0.0
C314 C 0.46099 0.47708 0.91254 0.0
C315 C 0.45719 0.47792 0.93428 0.0
C316 C 0.50347 0.52744 0.94675 0.0
C317 C 0.55363 0.57682 0.93799 0.0
C318 C 0.55785 0.57701 0.9162 0.0
C319 C 0.6072 0.62612 0.90679 0.0
C320 C 0.6091 0.6271 0.88526 0.0
C321 C 0.56207 0.57877 0.87234 0.0
C322 C 0.51315 0.52792 0.88153 0.0
C323 C 0.51099 0.52712 0.90346 0.0
C324 C 0.15335 0.17708 0.94044 0.0
C325 C 0.21362 0.21469 0.95429 0.0
O326 O 0.7181 0.76335 0.79809 0.0
O327 O 0.74021 0.7841 0.98605 0.0
O328 O 0.23077 0.27505 0.95417 0.0
O329 O 0.25864 0.28754 0.80022 0.0
H330 H 0.68406 0.81792 0.79228 0.0
H331 H 0.60139 0.71341 0.77887 0.0
H332 H 0.65353 0.71099 0.76187 0.0
H333 H 0.62785 0.76327 0.75773 0.0
H334 H 0.62398 0.75837 0.81652 0.0
H335 H 0.73785 0.68303 0.81327 0.0
H336 H 0.49759 0.63808 0.83499 0.0
H337 H 0.54051 0.71993 0.83744 0.0
H338 H 0.54145 0.67617 0.85892 0.0
H339 H 0.72119 0.59996 0.83314 0.0
H340 H 0.63895 0.54407 0.83099 0.0
H341 H 0.67609 0.58418 0.85538 0.0
H342 H 0.28771 0.23799 0.78571 0.0
H343 H 0.22726 0.14629 0.80711 0.0
H344 H 0.19872 0.18596 0.82108 0.0
H345 H 0.28005 0.21273 0.8233 0.0
H346 H 0.36857 0.29645 0.80886 0.0
H347 H 0.2674 0.38504 0.81353 0.0
H348 H 0.48334 0.38007 0.84749 0.0
H349 H 0.51589 0.42132 0.82483 0.0
H350 H 0.47062 0.33925 0.8231 0.0
H351 H 0.31255 0.48294 0.82936 0.0
H352 H 0.3962 0.53004 0.8308 0.0
H353 H 0.35801 0.48872 0.85283 0.0
H354 H 0.24881 0.20838 0.94741 0.0
H355 H 0.34164 0.28419 0.95937 0.0
H356 H 0.24884 0.37942 0.94639 0.0
H357 H 0.47205 0.37423 0.93553 0.0
H358 H 0.44983 0.33124 0.95867 0.0
H359 H 0.49603 0.41338 0.96052 0.0
H360 H 0.30423 0.48451 0.9401 0.0
H361 H 0.35475 0.49346 0.92025 0.0
H362 H 0.38746 0.52826 0.94566 0.0
H363 H 0.71893 0.84965 0.98461 0.0
H364 H 0.79738 0.90996 0.95863 0.0
H365 H 0.74252 0.8337 0.94891 0.0
H366 H 0.8194 0.85426 0.95858 0.0
H367 H 0.73357 0.68198 0.98281 0.0
H368 H 0.63807 0.77268 0.96629 0.0
H369 H 0.65668 0.56344 0.94498 0.0
H370 H 0.61384 0.53472 0.96747 0.0
H371 H 0.69743 0.58215 0.97048 0.0
H372 H 0.54035 0.72296 0.9478 0.0
H373 H 0.49665 0.64091 0.94594 0.0
H374 H 0.54518 0.68316 0.92578 0.0
H375 H 0.51395 0.53308 0.82127 0.0
H376 H 0.38045 0.3894 0.86908 0.0
H377 H 0.37668 0.38805 0.90584 0.0
H378 H 0.49963 0.52822 0.96337 0.0
H379 H 0.64453 0.66474 0.91595 0.0
H380 H 0.64765 0.66638 0.87884 0.0
H381 H 0.13856 0.12842 0.93968 0.0
H382 H 0.16055 0.19364 0.92442 0.0
H383 H 0.11573 0.18109 0.94648 0.0
C384 C 0.96834 0.16764 0.10703 0.0
C385 C 0.01502 0.15431 0.10926 0.0
C386 C 0.95345 0.19026 0.12393 0.0
C387 C 0.98554 0.20155 0.14364 0.0
H388 H 0.94384 0.16152 0.09199 0.0
H389 H 0.91774 0.20069 0.12138 0.0
S390 S 0.11335 0.1758 0.15731 0.0
N391 N 0.09304 0.15335 0.13257 0.0
N392 N 0.06726 0.19855 0.16417 0.0
C393 C 0.03213 0.18787 0.14606 0.0
C394 C 0.04622 0.16347 0.12894 0.0
C395 C 0.85851 0.04244 0.43201 0.0
C396 C 0.89347 0.09553 0.42111 0.0
C397 C 0.82305 0.04068 0.44803 0.0
C398 C 0.82066 0.09175 0.45371 0.0
H399 H 0.85916 0.00204 0.42838 0.0
H400 H 0.79771 0.9991 0.45621 0.0
S401 S 0.90291 0.24182 0.42984 0.0
N402 N 0.9218 0.20004 0.41673 0.0
N403 N 0.85733 0.19741 0.44737 0.0
C404 C 0.85554 0.14524 0.44298 0.0
C405 C 0.89113 0.14686 0.42651 0.0
C406 C 0.79478 0.91986 0.74876 0.0
C407 C 0.83452 0.90412 0.74053 0.0
C408 C 0.75323 0.8843 0.76332 0.0
C409 C 0.74945 0.83137 0.77031 0.0
H410 H 0.79431 0.9591 0.74357 0.0
H411 H 0.72237 0.89742 0.76871 0.0
S412 S 0.84257 0.76925 0.75354 0.0
N413 N 0.8677 0.83181 0.74064 0.0
N414 N 0.78847 0.76426 0.76768 0.0
C415 C 0.78918 0.81515 0.76236 0.0
C416 C 0.83203 0.85174 0.74763 0.0
C417 C 0.09628 0.94812 0.13971 0.0
C418 C 0.06938 0.93912 0.11925 0.0
C419 C 0.07258 0.90116 0.15364 0.0
C420 C 0.02124 0.84297 0.14769 0.0
H421 H 0.13517 0.99228 0.14529 0.0
H422 H 0.09377 0.91097 0.16939 0.0
S423 S 0.93476 0.79444 0.09573 0.0
N424 N 0.98932 0.86647 0.09353 0.0
N425 N 0.94479 0.7784 0.11981 0.0
C426 C 0.99468 0.83272 0.12714 0.0
C427 C 0.01884 0.88062 0.1129 0.0
C428 C 0.13249 0.07645 0.43813 0.0
C429 C 0.13123 0.12941 0.4416 0.0
C430 C 0.15755 0.05573 0.45343 0.0
C431 C 0.18281 0.08724 0.47282 0.0
H432 H 0.11226 0.04949 0.42369 0.0
H433 H 0.15545 0.01365 0.45029 0.0
S434 S 0.19509 0.23039 0.48948 0.0
N435 N 0.16095 0.21473 0.46572 0.0
N436 N 0.2075 0.17531 0.49441 0.0
C437 C 0.18384 0.14125 0.47629 0.0
C438 C 0.1584 0.16251 0.46072 0.0
C439 C 0.08214 0.17009 0.77011 0.0
C440 C 0.07736 0.13584 0.75231 0.0
C441 C 0.13702 0.2012 0.78312 0.0
C442 C 0.18977 0.19991 0.77882 0.0
H443 H 0.04299 0.17258 0.77423 0.0
H444 H 0.13802 0.2261 0.79682 0.0
S445 S 0.202 0.1162 0.73452 0.0
N446 N 0.13085 0.10229 0.73123 0.0
N447 N 0.23352 0.16045 0.75584 0.0
C448 C 0.18578 0.16573 0.76117 0.0
C449 C 0.1299 0.13403 0.74786 0.0
C450 C 0.91943 0.21247 0.67768 0.0
C451 C 0.9322 0.16859 0.67118 0.0
C452 C 0.91855 0.25342 0.66385 0.0
C453 C 0.92921 0.25143 0.64283 0.0
H454 H 0.90979 0.21525 0.69361 0.0
H455 H 0.9089 0.28653 0.66964 0.0
S456 S 0.96825 0.14809 0.61801 0.0
N457 N 0.95861 0.12782 0.64233 0.0
N458 N 0.95634 0.20454 0.61639 0.0
C459 C 0.94369 0.20906 0.63622 0.0
C460 C 0.94518 0.16765 0.65033 0.0
C461 C 0.86781 0.98599 0.01748 0.0
C462 C 0.91604 0.9776 0.02442 0.0
C463 C 0.81631 0.94143 0.00496 0.0
C464 C 0.81096 0.88671 -0.00125 0.0
H465 H 0.87031 0.02785 0.02145 0.0
H466 H 0.78114 0.95067 -0.00045 0.0
S467 S 0.92569 0.84319 0.01233 0.0
N468 N 0.95542 0.91044 0.02424 0.0
N469 N 0.85943 0.82731 0.00022 0.0
C470 C 0.85879 0.87753 0.00572 0.0
C471 C 0.9109 0.92265 0.01875 0.0
C472 C 0.08994 0.98323 0.3484 0.0
C473 C 0.04518 0.95715 0.36307 0.0
C474 C 0.11636 0.95246 0.34051 0.0
C475 C 0.09859 0.89391 0.34671 0.0
H476 H 0.10607 0.02857 0.34329 0.0
H477 H 0.15184 0.9752 0.32969 0.0
S478 S 0.98149 0.80402 0.3841 0.0
N479 N 0.98289 0.86822 0.38305 0.0
N480 N 0.03246 0.81038 0.36812 0.0
C481 C 0.053 0.86668 0.36107 0.0
C482 C 0.02626 0.89819 0.36922 0.0
C483 C 0.13448 0.0414 0.66263 0.0
C484 C 0.11188 0.00718 0.68035 0.0
C485 C 0.18537 0.04686 0.65335 0.0
C486 C 0.21563 0.01812 0.66134 0.0
H487 H 0.11251 0.06394 0.65576 0.0
H488 H 0.20047 0.07282 0.63954 0.0
S489 S 0.17549 0.92389 0.70759 0.0
N490 N 0.12479 0.94506 0.70576 0.0
N491 N 0.21957 0.95461 0.6881 0.0
C492 C 0.19398 0.98435 0.67917 0.0
C493 C 0.14248 0.97915 0.68873 0.0
C494 C 0.17371 0.19677 0.01104 0.0
C495 C 0.17131 0.14306 0.01624 0.0
C496 C 0.18854 0.22028 0.99139 0.0
C497 C 0.20371 0.19223 0.9762 0.0
H498 H 0.16318 0.22079 0.02212 0.0
H499 H 0.1872 0.26037 0.98806 0.0
S500 S 0.2079 0.05252 0.98211 0.0
N501 N 0.1872 0.06331 0.00467 0.0
N502 N 0.21719 0.10889 0.96783 0.0
C503 C 0.20353 0.13961 0.98136 0.0
C504 C 0.18723 0.11491 0.00134 0.0
C505 C 0.16169 0.27163 0.33703 0.0
C506 C 0.16562 0.28898 0.35804 0.0
C507 C 0.20005 0.31345 0.32296 0.0
C508 C 0.24395 0.37427 0.32931 0.0
H509 H 0.12751 0.22575 0.33121 0.0
H510 H 0.19478 0.29824 0.30688 0.0
S511 S 0.27808 0.44115 0.38307 0.0
N512 N 0.22034 0.37018 0.38484 0.0
N513 N 0.29325 0.44848 0.3584 0.0
C514 C 0.25047 0.39164 0.35045 0.0
C515 C 0.21096 0.34916 0.36478 0.0
loop_
_geom_bond_atom_site_label_1
_geom_bond_atom_site_label_2
_geom_bond_distance
_geom_bond_site_symmetry_2
_ccdc_geom_bond_type
Mg0 O1 2.028 . S
Mg0 O7 1.986 . S
Mg0 O9 2.114 . S
Mg0 O10 2.251 . S
Mg0 O13 2.010 . S
O1 Mg0 2.028 . S
O1 C4 1.250 1_455 S
O2 Mg3 2.028 1_655 S
O2 C4 1.248 . S
Mg3 O2 2.028 1_455 S
Mg3 O8 2.032 . S
Mg3 O10 2.079 . S
C4 O1 1.250 1_655 S
C4 O2 1.248 . S
C5 O6 1.264 1_565 S
C5 O13 1.249 1_565 S
O6 C5 1.264 1_545 S
O7 Mg0 1.986 . S
O7 C11 1.246 . S
O8 Mg3 2.032 . S
O8 C11 1.259 . S
O9 Mg0 2.114 . S
O9 C12 1.252 . S
O10 Mg0 2.251 . S
O10 Mg3 2.079 . S
O10 C12 1.273 . S
C11 O7 1.246 . S
C11 O8 1.259 . S
C12 O9 1.252 . S
C12 O10 1.273 . S
O13 Mg0 2.010 . S
O13 C5 1.249 1_545 S
Mg14 O15 2.028 1_655 S
Mg14 O21 1.986 1_655 S
Mg14 O23 2.114 1_545 S
Mg14 O24 2.251 . S
Mg14 O27 2.010 1_545 S
O15 Mg14 2.028 1_455 S
O15 C18 1.250 . S
O16 Mg17 2.028 . S
O16 C18 1.248 . S
Mg17 O16 2.028 . S
Mg17 O22 2.032 . S
Mg17 O24 2.079 1_455 S
C18 O15 1.250 . S
C18 O16 1.248 . S
C19 O20 1.264 . S
C19 O27 1.249 . S
O20 C19 1.264 . S
O21 Mg14 1.986 1_455 S
O21 C25 1.246 . S
O22 Mg17 2.032 . S
O22 C25 1.259 . S
O23 Mg14 2.114 1_565 S
O23 C26 1.252 1_565 S
O24 Mg14 2.251 . S
O24 Mg17 2.079 1_655 S
O24 C26 1.273 . S
C25 O21 1.246 . S
C25 O22 1.259 . S
C26 O23 1.252 1_545 S
C26 O24 1.273 . S
O27 Mg14 2.010 1_565 S
O27 C19 1.249 . S
Mg28 O29 2.028 . S
Mg28 O35 1.986 1_455 S
Mg28 O37 2.114 1_545 S
Mg28 O38 2.251 1_455 S
Mg28 O41 2.010 . S
O29 Mg28 2.028 . S
O29 C32 1.250 . S
O30 Mg31 2.028 1_455 S
O30 C32 1.248 . S
Mg31 O30 2.028 1_655 S
Mg31 O36 2.032 . S
Mg31 O38 2.079 . S
C32 O29 1.250 . S
C32 O30 1.248 . S
C33 O34 1.264 1_545 S
C33 O41 1.249 . S
O34 C33 1.264 1_565 S
O35 Mg28 1.986 1_655 S
O35 C39 1.246 . S
O36 Mg31 2.032 . S
O36 C39 1.259 . S
O37 Mg28 2.114 1_565 S
O37 C40 1.252 1_455 S
O38 Mg28 2.251 1_655 S
O38 Mg31 2.079 . S
O38 C40 1.273 1_545 S
C39 O35 1.246 . S
C39 O36 1.259 . S
C40 O37 1.252 1_655 S
C40 O38 1.273 1_565 S
O41 Mg28 2.010 . S
O41 C33 1.249 . S
C42 C43 1.560 . S
C42 H103 0.959 . S
C42 H104 0.959 . S
C42 H105 0.960 . S
C43 C42 1.560 . S
C43 O98 1.426 . S
C43 H102 0.980 1_655 S
C44 C45 1.407 1_655 S
C44 C49 1.418 . S
C44 O98 1.334 . S
C45 C44 1.407 1_455 S
C45 C46 1.360 . S
C45 H106 0.929 . S
C46 C45 1.360 . S
C46 C47 1.401 . S
C46 C50 1.527 . S
C47 C46 1.401 . S
C47 C48 1.405 1_455 S
C47 C80 1.587 . S
C48 C47 1.405 1_655 S
C48 C49 1.332 . S
C48 C51 1.496 . S
C49 C44 1.418 . S
C49 C48 1.332 . S
C49 H107 0.929 . S
C50 C46 1.527 . S
C50 H108 0.959 . S
C50 H109 0.961 . S
C50 H110 0.961 . S
C51 C48 1.496 . S
C51 H111 0.960 . S
C51 H112 0.960 . S
C51 H113 0.961 . S
C52 C53 1.517 . S
C52 H115 0.961 . S
C52 H116 0.960 . S
C52 H117 0.959 . S
C53 C52 1.517 . S
C53 O101 1.468 . S
C53 H114 0.980 . S
C54 C55 1.349 . S
C54 C59 1.367 . S
C54 O101 1.408 . S
C55 C54 1.349 . S
C55 C56 1.407 . S
C55 H118 0.930 . S
C56 C55 1.407 . S
C56 C57 1.449 . S
C56 C60 1.535 1_455 S
C57 C56 1.449 . S
C57 C58 1.384 . S
C57 C82 1.553 . S
C58 C57 1.384 . S
C58 C59 1.364 . S
C58 C61 1.450 . S
C59 C54 1.367 . S
C59 C58 1.364 . S
C59 H119 0.931 . S
C60 C56 1.535 1_655 S
C60 H120 0.959 . S
C60 H121 0.961 . S
C60 H122 0.959 . S
C61 C58 1.450 . S
C61 H123 0.960 . S
C61 H124 0.960 . S
C61 H125 0.960 . S
C62 C63 1.309 . S
C62 C67 1.304 . S
C62 O100 1.435 . S
C63 C62 1.309 . S
C63 C64 1.476 . S
C63 H127 0.930 . S
C64 C63 1.476 . S
C64 C65 1.400 . S
C64 C68 1.567 1_455 S
C65 C64 1.400 . S
C65 C66 1.373 . S
C65 C87 1.432 . S
C66 C65 1.373 . S
C66 C67 1.339 . S
C66 C69 1.530 . S
C67 C62 1.304 . S
C67 C66 1.339 . S
C67 H128 0.930 . S
C68 C64 1.567 1_655 S
C68 H129 0.961 . S
C68 H130 0.960 . S
C68 H131 0.958 . S
C69 C66 1.530 . S
C69 H132 0.961 . S
C69 H133 0.960 . S
C69 H134 0.960 . S
C70 C71 1.530 1_655 S
C70 H136 0.961 1_655 S
C70 H137 0.961 . S
C70 H138 0.959 . S
C71 C70 1.530 1_455 S
C71 O99 1.412 1_455 S
C71 H135 0.980 . S
C72 C73 1.288 1_455 S
C72 C77 1.377 . S
C72 O99 1.393 1_455 S
C73 C72 1.288 1_655 S
C73 C74 1.369 . S
C73 H139 0.932 . S
C74 C73 1.369 . S
C74 C75 1.398 1_655 S
C74 C78 1.527 . S
C75 C74 1.398 1_455 S
C75 C76 1.380 . S
C75 C89 1.497 . S
C76 C75 1.380 . S
C76 C77 1.383 . S
C76 C79 1.603 . S
C77 C72 1.377 . S
C77 C76 1.383 . S
C77 H140 0.929 . S
C78 C74 1.527 . S
C78 H141 0.961 . S
C78 H142 0.959 . S
C78 H143 0.959 . S
C79 C76 1.603 . S
C79 H144 0.960 . S
C79 H145 0.962 . S
C79 H146 0.961 . S
C80 C47 1.587 . S
C80 C81 1.360 . S
C80 C93 1.412 . S
C81 C80 1.360 . S
C81 C82 1.365 . S
C81 H147 0.929 . S
C82 C57 1.553 . S
C82 C81 1.365 . S
C82 C83 1.404 . S
C83 C82 1.404 . S
C83 C84 1.395 . S
C83 C94 1.451 . S
C84 C83 1.395 . S
C84 C85 1.322 . S
C84 H148 0.930 . S
C85 C84 1.322 . S
C85 C86 1.459 . S
C85 H149 0.929 . S
C86 C85 1.459 . S
C86 C87 1.445 . S
C86 C95 1.395 . S
C87 C65 1.432 . S
C87 C86 1.445 . S
C87 C88 1.370 . S
C88 C87 1.370 . S
C88 C89 1.438 . S
C88 H150 0.930 . S
C89 C75 1.497 . S
C89 C88 1.438 . S
C89 C90 1.360 . S
C90 C89 1.360 . S
C90 C91 1.401 . S
C90 C95 1.446 . S
C91 C90 1.401 . S
C91 C92 1.347 . S
C91 H151 0.929 . S
C92 C91 1.347 . S
C92 C93 1.455 . S
C92 H152 0.930 . S
C93 C80 1.412 . S
C93 C92 1.455 . S
C93 C94 1.331 . S
C94 C83 1.451 . S
C94 C93 1.331 . S
C94 C95 1.497 . S
C95 C86 1.395 . S
C95 C90 1.446 . S
C95 C94 1.497 . S
C96 C97 1.582 . S
C96 H153 0.962 . S
C96 H154 0.959 . S
C96 H155 0.958 . S
C97 C96 1.582 . S
C97 O100 1.458 . S
C97 H126 0.980 . S
O98 C43 1.426 . S
O98 C44 1.334 . S
O99 C71 1.412 1_655 S
O99 C72 1.393 1_655 S
O100 C62 1.435 . S
O100 C97 1.458 . S
O101 C53 1.468 . S
O101 C54 1.408 . S
H102 C43 0.980 1_455 S
H103 C42 0.959 . S
H104 C42 0.959 . S
H105 C42 0.960 . S
H106 C45 0.929 . S
H107 C49 0.929 . S
H108 C50 0.959 . S
H109 C50 0.961 . S
H110 C50 0.961 . S
H111 C51 0.960 . S
H112 C51 0.960 . S
H113 C51 0.961 . S
H114 C53 0.980 . S
H115 C52 0.961 . S
H116 C52 0.960 . S
H117 C52 0.959 . S
H118 C55 0.930 . S
H119 C59 0.931 . S
H120 C60 0.959 . S
H121 C60 0.961 . S
H122 C60 0.959 . S
H123 C61 0.960 . S
H124 C61 0.960 . S
H125 C61 0.960 . S
H126 C97 0.980 . S
H127 C63 0.930 . S
H128 C67 0.930 . S
H129 C68 0.961 . S
H130 C68 0.960 . S
H131 C68 0.958 . S
H132 C69 0.961 . S
H133 C69 0.960 . S
H134 C69 0.960 . S
H135 C71 0.980 . S
H136 C70 0.961 1_455 S
H137 C70 0.961 . S
H138 C70 0.959 . S
H139 C73 0.932 . S
H140 C77 0.929 . S
H141 C78 0.961 . S
H142 C78 0.959 . S
H143 C78 0.959 . S
H144 C79 0.960 . S
H145 C79 0.962 . S
H146 C79 0.961 . S
H147 C81 0.929 . S
H148 C84 0.930 . S
H149 C85 0.929 . S
H150 C88 0.930 . S
H151 C91 0.929 . S
H152 C92 0.930 . S
H153 C96 0.962 . S
H154 C96 0.959 . S
H155 C96 0.958 . S
C156 C157 1.560 . S
C156 H217 0.959 1_545 S
C156 H218 0.959 1_545 S
C156 H219 0.960 . S
C157 C156 1.560 . S
C157 O212 1.426 . S
C157 H216 0.980 . S
C158 C159 1.407 . S
C158 C163 1.418 . S
C158 O212 1.334 . S
C159 C158 1.407 . S
C159 C160 1.360 . S
C159 H220 0.929 . S
C160 C159 1.360 . S
C160 C161 1.401 . S
C160 C164 1.527 . S
C161 C160 1.401 . S
C161 C162 1.405 . S
C161 C194 1.587 . S
C162 C161 1.405 . S
C162 C163 1.332 . S
C162 C165 1.496 1_545 S
C163 C158 1.418 . S
C163 C162 1.332 . S
C163 H221 0.929 1_545 S
C164 C160 1.527 . S
C164 H222 0.959 . S
C164 H223 0.961 . S
C164 H224 0.961 . S
C165 C162 1.496 1_565 S
C165 H225 0.960 . S
C165 H226 0.960 . S
C165 H227 0.961 . S
C166 C167 1.517 . S
C166 H229 0.961 . S
C166 H230 0.960 . S
C166 H231 0.959 . S
C167 C166 1.517 . S
C167 O215 1.468 . S
C167 H228 0.980 . S
C168 C169 1.349 . S
C168 C173 1.367 . S
C168 O215 1.408 . S
C169 C168 1.349 . S
C169 C170 1.407 . S
C169 H232 0.930 . S
C170 C169 1.407 . S
C170 C171 1.449 . S
C170 C174 1.535 . S
C171 C170 1.449 . S
C171 C172 1.384 . S
C171 C196 1.553 . S
C172 C171 1.384 . S
C172 C173 1.364 . S
C172 C175 1.450 . S
C173 C168 1.367 . S
C173 C172 1.364 . S
C173 H233 0.931 . S
C174 C170 1.535 . S
C174 H234 0.959 . S
C174 H235 0.961 . S
C174 H236 0.959 . S
C175 C172 1.450 . S
C175 H237 0.960 . S
C175 H238 0.960 . S
C175 H239 0.960 . S
C176 C177 1.309 . S
C176 C181 1.304 . S
C176 O214 1.435 . S
C177 C176 1.309 . S
C177 C178 1.476 . S
C177 H241 0.930 . S
C178 C177 1.476 . S
C178 C179 1.400 . S
C178 C182 1.567 . S
C179 C178 1.400 . S
C179 C180 1.373 . S
C179 C201 1.432 . S
C180 C179 1.373 . S
C180 C181 1.339 . S
C180 C183 1.530 . S
C181 C176 1.304 . S
C181 C180 1.339 . S
C181 H242 0.930 . S
C182 C178 1.567 . S
C182 H243 0.961 . S
C182 H244 0.960 1_545 S
C182 H245 0.958 1_545 S
C183 C180 1.530 . S
C183 H246 0.961 . S
C183 H247 0.960 . S
C183 H248 0.960 . S
C184 C185 1.530 . S
C184 H250 0.961 . S
C184 H251 0.961 . S
C184 H252 0.959 . S
C185 C184 1.530 . S
C185 O213 1.412 . S
C185 H249 0.980 . S
C186 C187 1.288 . S
C186 C191 1.377 . S
C186 O213 1.393 . S
C187 C186 1.288 . S
C187 C188 1.369 . S
C187 H253 0.932 1_545 S
C188 C187 1.369 . S
C188 C189 1.398 . S
C188 C192 1.527 1_545 S
C189 C188 1.398 . S
C189 C190 1.380 . S
C189 C203 1.497 . S
C190 C189 1.380 . S
C190 C191 1.383 . S
C190 C193 1.603 . S
C191 C186 1.377 . S
C191 C190 1.383 . S
C191 H254 0.929 . S
C192 C188 1.527 1_565 S
C192 H255 0.961 . S
C192 H256 0.959 . S
C192 H257 0.959 . S
C193 C190 1.603 . S
C193 H258 0.960 . S
C193 H259 0.962 . S
C193 H260 0.961 . S
C194 C161 1.587 . S
C194 C195 1.360 . S
C194 C207 1.412 . S
C195 C194 1.360 . S
C195 C196 1.365 . S
C195 H261 0.929 . S
C196 C171 1.553 . S
C196 C195 1.365 . S
C196 C197 1.404 . S
C197 C196 1.404 . S
C197 C198 1.395 . S
C197 C208 1.451 . S
C198 C197 1.395 . S
C198 C199 1.322 . S
C198 H262 0.930 . S
C199 C198 1.322 . S
C199 C200 1.459 . S
C199 H263 0.929 . S
C200 C199 1.459 . S
C200 C201 1.445 . S
C200 C209 1.395 . S
C201 C179 1.432 . S
C201 C200 1.445 . S
C201 C202 1.370 . S
C202 C201 1.370 . S
C202 C203 1.438 . S
C202 H264 0.930 . S
C203 C189 1.497 . S
C203 C202 1.438 . S
C203 C204 1.360 . S
C204 C203 1.360 . S
C204 C205 1.401 . S
C204 C209 1.446 . S
C205 C204 1.401 . S
C205 C206 1.347 . S
C205 H265 0.929 . S
C206 C205 1.347 . S
C206 C207 1.455 . S
C206 H266 0.930 . S
C207 C194 1.412 . S
C207 C206 1.455 . S
C207 C208 1.331 . S
C208 C197 1.451 . S
C208 C207 1.331 . S
C208 C209 1.497 . S
C209 C200 1.395 . S
C209 C204 1.446 . S
C209 C208 1.497 . S
C210 C211 1.582 . S
C210 H267 0.962 . S
C210 H268 0.959 . S
C210 H269 0.958 . S
C211 C210 1.582 . S
C211 O214 1.458 . S
C211 H240 0.980 . S
O212 C157 1.426 . S
O212 C158 1.334 . S
O213 C185 1.412 . S
O213 C186 1.393 . S
O214 C176 1.435 . S
O214 C211 1.458 . S
O215 C167 1.468 . S
O215 C168 1.408 . S
H216 C157 0.980 . S
H217 C156 0.959 1_565 S
H218 C156 0.959 1_565 S
H219 C156 0.960 . S
H220 C159 0.929 . S
H221 C163 0.929 1_565 S
H222 C164 0.959 . S
H223 C164 0.961 . S
H224 C164 0.961 . S
H225 C165 0.960 . S
H226 C165 0.960 . S
H227 C165 0.961 . S
H228 C167 0.980 . S
H229 C166 0.961 . S
H230 C166 0.960 . S
H231 C166 0.959 . S
H232 C169 0.930 . S
H233 C173 0.931 . S
H234 C174 0.959 . S
H235 C174 0.961 . S
H236 C174 0.959 . S
H237 C175 0.960 . S
H238 C175 0.960 . S
H239 C175 0.960 . S
H240 C211 0.980 . S
H241 C177 0.930 . S
H242 C181 0.930 . S
H243 C182 0.961 . S
H244 C182 0.960 1_565 S
H245 C182 0.958 1_565 S
H246 C183 0.961 . S
H247 C183 0.960 . S
H248 C183 0.960 . S
H249 C185 0.980 . S
H250 C184 0.961 . S
H251 C184 0.961 . S
H252 C184 0.959 . S
H253 C187 0.932 1_565 S
H254 C191 0.929 . S
H255 C192 0.961 . S
H256 C192 0.959 . S
H257 C192 0.959 . S
H258 C193 0.960 . S
H259 C193 0.962 . S
H260 C193 0.961 . S
H261 C195 0.929 . S
H262 C198 0.930 . S
H263 C199 0.929 . S
H264 C202 0.930 . S
H265 C205 0.929 . S
H266 C206 0.930 . S
H267 C210 0.962 . S
H268 C210 0.959 . S
H269 C210 0.958 . S
C270 C271 1.560 . S
C270 H331 0.959 . S
C270 H332 0.959 . S
C270 H333 0.960 . S
C271 C270 1.560 . S
C271 O326 1.426 . S
C271 H330 0.980 . S
C272 C273 1.407 . S
C272 C277 1.418 . S
C272 O326 1.334 . S
C273 C272 1.407 . S
C273 C274 1.360 . S
C273 H334 0.929 . S
C274 C273 1.360 . S
C274 C275 1.401 . S
C274 C278 1.527 . S
C275 C274 1.401 . S
C275 C276 1.405 . S
C275 C308 1.587 . S
C276 C275 1.405 . S
C276 C277 1.332 . S
C276 C279 1.496 . S
C277 C272 1.418 . S
C277 C276 1.332 . S
C277 H335 0.929 . S
C278 C274 1.527 . S
C278 H336 0.959 . S
C278 H337 0.961 . S
C278 H338 0.961 . S
C279 C276 1.496 . S
C279 H339 0.960 . S
C279 H340 0.960 . S
C279 H341 0.961 . S
C280 C281 1.517 . S
C280 H343 0.961 . S
C280 H344 0.960 . S
C280 H345 0.959 . S
C281 C280 1.517 . S
C281 O329 1.468 . S
C281 H342 0.980 . S
C282 C283 1.349 . S
C282 C287 1.367 . S
C282 O329 1.408 . S
C283 C282 1.349 . S
C283 C284 1.407 . S
C283 H346 0.930 . S
C284 C283 1.407 . S
C284 C285 1.449 . S
C284 C288 1.535 . S
C285 C284 1.449 . S
C285 C286 1.384 . S
C285 C310 1.553 . S
C286 C285 1.384 . S
C286 C287 1.364 . S
C286 C289 1.450 . S
C287 C282 1.367 . S
C287 C286 1.364 . S
C287 H347 0.931 . S
C288 C284 1.535 . S
C288 H348 0.959 . S
C288 H349 0.961 . S
C288 H350 0.959 . S
C289 C286 1.450 . S
C289 H351 0.960 . S
C289 H352 0.960 . S
C289 H353 0.960 . S
C290 C291 1.309 . S
C290 C295 1.304 . S
C290 O328 1.435 . S
C291 C290 1.309 . S
C291 C292 1.476 . S
C291 H355 0.930 . S
C292 C291 1.476 . S
C292 C293 1.400 . S
C292 C296 1.567 . S
C293 C292 1.400 . S
C293 C294 1.373 . S
C293 C315 1.432 . S
C294 C293 1.373 . S
C294 C295 1.339 . S
C294 C297 1.530 . S
C295 C290 1.304 . S
C295 C294 1.339 . S
C295 H356 0.930 . S
C296 C292 1.567 . S
C296 H357 0.961 . S
C296 H358 0.960 . S
C296 H359 0.958 . S
C297 C294 1.530 . S
C297 H360 0.961 . S
C297 H361 0.960 . S
C297 H362 0.960 . S
C298 C299 1.530 . S
C298 H364 0.948 1_556 S
C298 H365 0.961 . S
C298 H366 0.959 1_556 S
C299 C298 1.530 . S
C299 O327 1.412 . S
C299 H363 0.980 . S
C300 C301 1.288 . S
C300 C305 1.377 . S
C300 O327 1.393 . S
C301 C300 1.288 . S
C301 C302 1.369 . S
C301 H367 0.932 . S
C302 C301 1.369 . S
C302 C303 1.398 . S
C302 C306 1.527 . S
C303 C302 1.398 . S
C303 C304 1.380 . S
C303 C317 1.497 . S
C304 C303 1.380 . S
C304 C305 1.383 . S
C304 C307 1.603 . S
C305 C300 1.377 . S
C305 C304 1.383 . S
C305 H368 0.929 . S
C306 C302 1.527 . S
C306 H369 0.961 . S
C306 H370 0.959 . S
C306 H371 0.959 . S
C307 C304 1.603 . S
C307 H372 0.960 . S
C307 H373 0.962 . S
C307 H374 0.961 . S
C308 C275 1.587 . S
C308 C309 1.360 . S
C308 C321 1.412 . S
C309 C308 1.360 . S
C309 C310 1.365 . S
C309 H375 0.929 . S
C310 C285 1.553 . S
C310 C309 1.365 . S
C310 C311 1.404 . S
C311 C310 1.404 . S
C311 C312 1.395 . S
C311 C322 1.451 . S
C312 C311 1.395 . S
C312 C313 1.322 . S
C312 H376 0.930 . S
C313 C312 1.322 . S
C313 C314 1.459 . S
C313 H377 0.929 . S
C314 C313 1.459 . S
C314 C315 1.445 . S
C314 C323 1.395 . S
C315 C293 1.432 . S
C315 C314 1.445 . S
C315 C316 1.370 . S
C316 C315 1.370 . S
C316 C317 1.438 . S
C316 H378 0.930 . S
C317 C303 1.497 . S
C317 C316 1.438 . S
C317 C318 1.360 . S
C318 C317 1.360 . S
C318 C319 1.401 . S
C318 C323 1.446 . S
C319 C318 1.401 . S
C319 C320 1.347 . S
C319 H379 0.929 . S
C320 C319 1.347 . S
C320 C321 1.455 . S
C320 H380 0.930 . S
C321 C308 1.412 . S
C321 C320 1.455 . S
C321 C322 1.331 . S
C322 C311 1.451 . S
C322 C321 1.331 . S
C322 C323 1.497 . S
C323 C314 1.395 . S
C323 C318 1.446 . S
C323 C322 1.497 . S
C324 C325 1.582 . S
C324 H381 0.962 1_556 S
C324 H382 0.959 . S
C324 H383 0.984 . S
C325 C324 1.582 . S
C325 O328 1.458 . S
C325 H354 0.980 . S
O326 C271 1.426 . S
O326 C272 1.334 . S
O327 C299 1.412 . S
O327 C300 1.393 . S
O328 C290 1.435 . S
O328 C325 1.458 . S
O329 C281 1.468 . S
O329 C282 1.408 . S
H330 C271 0.980 . S
H331 C270 0.959 . S
H332 C270 0.959 . S
H333 C270 0.960 . S
H334 C273 0.929 . S
H335 C277 0.929 . S
H336 C278 0.959 . S
H337 C278 0.961 . S
H338 C278 0.961 . S
H339 C279 0.960 . S
H340 C279 0.960 . S
H341 C279 0.961 . S
H342 C281 0.980 . S
H343 C280 0.961 . S
H344 C280 0.960 . S
H345 C280 0.959 . S
H346 C283 0.930 . S
H347 C287 0.931 . S
H348 C288 0.959 . S
H349 C288 0.961 . S
H350 C288 0.959 . S
H351 C289 0.960 . S
H352 C289 0.960 . S
H353 C289 0.960 . S
H354 C325 0.980 . S
H355 C291 0.930 . S
H356 C295 0.930 . S
H357 C296 0.961 . S
H358 C296 0.960 . S
H359 C296 0.958 . S
H360 C297 0.961 . S
H361 C297 0.960 . S
H362 C297 0.960 . S
H363 C299 0.980 . S
H364 C298 0.948 1_554 S
H365 C298 0.961 . S
H366 C298 0.959 1_554 S
H367 C301 0.932 . S
H368 C305 0.929 . S
H369 C306 0.961 . S
H370 C306 0.959 . S
H371 C306 0.959 . S
H372 C307 0.960 . S
H373 C307 0.962 . S
H374 C307 0.961 . S
H375 C309 0.929 . S
H376 C312 0.930 . S
H377 C313 0.929 . S
H378 C316 0.930 . S
H379 C319 0.929 . S
H380 C320 0.930 . S
H381 C324 0.962 1_554 S
H382 C324 0.959 . S
H383 C324 0.984 . S
C384 C385 1.369 1_655 S
C384 C386 1.419 . S
C384 H388 0.930 . S
C385 C384 1.369 1_455 S
C385 C394 1.429 . S
C386 C384 1.419 . S
C386 C387 1.363 1_655 S
C386 H389 0.929 . S
C387 C386 1.363 1_455 S
C387 C393 1.428 . S
H388 C384 0.930 . S
H389 C386 0.929 . S
S390 N391 1.613 . S
S390 N392 1.610 . S
N391 S390 1.613 . S
N391 C394 1.350 . S
N392 S390 1.610 . S
N392 C393 1.351 . S
C393 C387 1.428 . S
C393 N392 1.351 . S
C393 C394 1.434 . S
C394 C385 1.429 . S
C394 N391 1.350 . S
C394 C393 1.434 . S
C395 C396 1.369 . S
C395 C397 1.419 . S
C395 H399 0.930 . S
C396 C395 1.369 . S
C396 C405 1.429 . S
C397 C395 1.419 . S
C397 C398 1.363 . S
C397 H400 0.929 . S
C398 C397 1.363 . S
C398 C404 1.428 . S
H399 C395 0.930 . S
H400 C397 0.929 . S
S401 N402 1.613 . S
S401 N403 1.610 . S
N402 S401 1.613 . S
N402 C405 1.350 . S
N403 S401 1.610 . S
N403 C404 1.351 . S
C404 C398 1.428 . S
C404 N403 1.351 . S
C404 C405 1.434 . S
C405 C396 1.429 . S
C405 N402 1.350 . S
C405 C404 1.434 . S
C406 C407 1.369 . S
C406 C408 1.419 . S
C406 H410 0.930 . S
C407 C406 1.369 . S
C407 C416 1.429 . S
C408 C406 1.419 . S
C408 C409 1.363 . S
C408 H411 0.929 . S
C409 C408 1.363 . S
C409 C415 1.428 . S
H410 C406 0.930 . S
H411 C408 0.929 . S
S412 N413 1.613 . S
S412 N414 1.610 . S
N413 S412 1.613 . S
N413 C416 1.350 . S
N414 S412 1.610 . S
N414 C415 1.351 . S
C415 C409 1.428 . S
C415 N414 1.351 . S
C415 C416 1.434 . S
C416 C407 1.429 . S
C416 N413 1.350 . S
C416 C415 1.434 . S
C417 C418 1.369 . S
C417 C419 1.419 . S
C417 H421 0.930 . S
C418 C417 1.369 . S
C418 C427 1.429 . S
C419 C417 1.419 . S
C419 C420 1.363 . S
C419 H422 0.929 . S
C420 C419 1.363 . S
C420 C426 1.428 . S
H421 C417 0.930 . S
H422 C419 0.929 . S
S423 N424 1.613 . S
S423 N425 1.611 . S
N424 S423 1.613 . S
N424 C427 1.350 . S
N425 S423 1.611 . S
N425 C426 1.351 . S
C426 C420 1.428 . S
C426 N425 1.351 . S
C426 C427 1.434 . S
C427 C418 1.429 . S
C427 N424 1.350 . S
C427 C426 1.434 . S
C428 C429 1.369 . S
C428 C430 1.419 . S
C428 H432 0.930 . S
C429 C428 1.369 . S
C429 C438 1.429 . S
C430 C428 1.419 . S
C430 C431 1.363 . S
C430 H433 0.929 . S
C431 C430 1.363 . S
C431 C437 1.428 . S
H432 C428 0.930 . S
H433 C430 0.929 . S
S434 N435 1.613 . S
S434 N436 1.610 . S
N435 S434 1.613 . S
N435 C438 1.350 . S
N436 S434 1.610 . S
N436 C437 1.351 . S
C437 C431 1.428 . S
C437 N436 1.351 . S
C437 C438 1.434 . S
C438 C429 1.429 . S
C438 N435 1.350 . S
C438 C437 1.434 . S
C439 C440 1.369 . S
C439 C441 1.419 . S
C439 H443 0.930 . S
C440 C439 1.369 . S
C440 C449 1.429 . S
C441 C439 1.419 . S
C441 C442 1.363 . S
C441 H444 0.929 . S
C442 C441 1.363 . S
C442 C448 1.428 . S
H443 C439 0.930 . S
H444 C441 0.929 . S
S445 N446 1.613 . S
S445 N447 1.610 . S
N446 S445 1.613 . S
N446 C449 1.350 . S
N447 S445 1.610 . S
N447 C448 1.351 . S
C448 C442 1.428 . S
C448 N447 1.351 . S
C448 C449 1.434 . S
C449 C440 1.429 . S
C449 N446 1.350 . S
C449 C448 1.434 . S
C450 C451 1.369 . S
C450 C452 1.419 . S
C450 H454 0.930 . S
C451 C450 1.369 . S
C451 C460 1.429 . S
C452 C450 1.419 . S
C452 C453 1.363 . S
C452 H455 0.929 . S
C453 C452 1.363 . S
C453 C459 1.428 . S
H454 C450 0.930 . S
H455 C452 0.929 . S
S456 N457 1.613 1_565 S
S456 N458 1.610 1_565 S
N457 S456 1.613 1_545 S
N457 C460 1.350 . S
N458 S456 1.610 1_545 S
N458 C459 1.351 . S
C459 C453 1.428 . S
C459 N458 1.351 . S
C459 C460 1.434 . S
C460 C451 1.429 . S
C460 N457 1.350 . S
C460 C459 1.434 . S
C461 C462 1.369 . S
C461 C463 1.419 1_554 S
C461 H465 0.930 1_565 S
C462 C461 1.369 . S
C462 C471 1.429 . S
C463 C461 1.419 1_556 S
C463 C464 1.363 1_556 S
C463 H466 0.929 . S
C464 C463 1.363 1_554 S
C464 C470 1.428 . S
H465 C461 0.930 1_545 S
H466 C463 0.929 . S
S467 N468 1.613 . S
S467 N469 1.610 . S
N468 S467 1.613 . S
N468 C471 1.350 . S
N469 S467 1.610 . S
N469 C470 1.351 . S
C470 C464 1.428 . S
C470 N469 1.351 . S
C470 C471 1.434 . S
C471 C462 1.429 . S
C471 N468 1.350 . S
C471 C470 1.434 . S
C472 C473 1.369 . S
C472 C474 1.419 . S
C472 H476 0.930 . S
C473 C472 1.369 . S
C473 C482 1.429 1_655 S
C474 C472 1.419 . S
C474 C475 1.363 1_655 S
C474 H477 0.929 . S
C475 C474 1.363 1_455 S
C475 C481 1.428 . S
H476 C472 0.930 . S
H477 C474 0.929 . S
S478 N479 1.613 . S
S478 N480 1.610 . S
N479 S478 1.613 . S
N479 C482 1.350 . S
N480 S478 1.610 . S
N480 C481 1.351 . S
C481 C475 1.428 . S
C481 N480 1.351 . S
C481 C482 1.434 . S
C482 C473 1.429 1_455 S
C482 N479 1.350 . S
C482 C481 1.434 . S
C483 C484 1.369 . S
C483 C485 1.419 . S
C483 H487 0.930 . S
C484 C483 1.369 . S
C484 C493 1.429 . S
C485 C483 1.419 . S
C485 C486 1.363 . S
C485 H488 0.929 . S
C486 C485 1.363 . S
C486 C492 1.428 . S
H487 C483 0.930 . S
H488 C485 0.929 . S
S489 N490 1.613 . S
S489 N491 1.610 1_565 S
N490 S489 1.613 . S
N490 C493 1.350 1_565 S
N491 S489 1.610 1_545 S
N491 C492 1.351 . S
C492 C486 1.428 . S
C492 N491 1.351 . S
C492 C493 1.434 . S
C493 C484 1.429 . S
C493 N490 1.350 1_545 S
C493 C492 1.434 . S
C494 C495 1.369 . S
C494 C496 1.419 . S
C494 H498 0.930 . S
C495 C494 1.369 . S
C495 C504 1.429 . S
C496 C494 1.419 . S
C496 C497 1.363 1_554 S
C496 H499 0.929 . S
C497 C496 1.363 1_556 S
C497 C503 1.428 . S
H498 C494 0.930 . S
H499 C496 0.929 . S
S500 N501 1.613 . S
S500 N502 1.610 . S
N501 S500 1.613 . S
N501 C504 1.350 1_556 S
N502 S500 1.610 . S
N502 C503 1.351 . S
C503 C497 1.428 . S
C503 N502 1.351 . S
C503 C504 1.434 1_556 S
C504 C495 1.429 . S
C504 N501 1.350 1_554 S
C504 C503 1.434 1_554 S
C505 C506 1.369 1_655 S
C505 C507 1.419 . S
C505 H509 0.930 . S
C506 C505 1.369 1_455 S
C506 C515 1.429 . S
C507 C505 1.419 . S
C507 C508 1.363 1_655 S
C507 H510 0.929 . S
C508 C507 1.363 1_455 S
C508 C514 1.428 . S
H509 C505 0.930 . S
H510 C507 0.929 . S
S511 N512 1.613 . S
S511 N513 1.610 . S
N512 S511 1.613 . S
N512 C515 1.350 . S
N513 S511 1.610 . S
N513 C514 1.351 . S
C514 C508 1.428 . S
C514 N513 1.351 . S
C514 C515 1.434 . S
C515 C506 1.429 . S
C515 N512 1.350 . S
C515 C514 1.434 . S
C387 C97 1.121 . S
C385 C11 1.473 . S
C396 C26 1.598 . S
C398 C211 1.286 . S
C407 C40 1.290 . S
C409 C271 1.016 . S
C418 C5 1.239 . S
C420 C71 1.111 . S
C431 C185 1.148 . S
C429 C18 1.500 . S
C440 C32 1.384 . S
C442 C281 0.850 . S
C453 C167 0.800 . S
C451 C39 1.307 . S
C462 C4 1.382 1_565 S
C464 C299 1.090 1_554 S
C475 C43 1.013 1_455 S
C473 C19 1.141 . S
C486 C157 0.911 . S
C484 C33 1.111 . S
C497 C325 1.190 . S
C495 C12 1.495 . S
C506 C25 1.414 . S
C508 C53 0.791 . S
