# Generated by pormake.
# Topology anh, (6,3)-cn, num edge types: 1
# Building blocks:
#     Node 0, Type 0, BuildingBlock: PAMTOO_clean_sbu_0, # of connection points: 6
#     Node 1, Type 0, BuildingBlock: PAMTOO_clean_sbu_0, # of connection points: 6
#     Node 2, Type 0, BuildingBlock: PAMTOO_clean_sbu_0, # of connection points: 6
#     Node 3, Type 1, BuildingBlock: CUQRIR_clean_linker_1, # of connection points: 3
#     Node 4, Type 1, BuildingBlock: CUQRIR_clean_linker_1, # of connection points: 3
#     Node 5, Type 1, BuildingBlock: CUQRIR_clean_linker_1, # of connection points: 3
#     Node 6, Type 1, BuildingBlock: CUQRIR_clean_linker_1, # of connection points: 3
#     Node 7, Type 1, BuildingBlock: CUQRIR_clean_linker_1, # of connection points: 3
#     Node 8, Type 1, BuildingBlock: CUQRIR_clean_linker_1, # of connection points: 3
#     Edge 9, Type (0, 1), BuildingBlock: TEMPAE_clean_linker_10, # of connection points: 2
#     Edge 10, Type (0, 1), BuildingBlock: TEMPAE_clean_linker_10, # of connection points: 2
#     Edge 11, Type (0, 1), BuildingBlock: TEMPAE_clean_linker_10, # of connection points: 2
#     Edge 12, Type (0, 1), BuildingBlock: TEMPAE_clean_linker_10, # of connection points: 2
#     Edge 13, Type (0, 1), BuildingBlock: TEMPAE_clean_linker_10, # of connection points: 2
#     Edge 14, Type (0, 1), BuildingBlock: TEMPAE_clean_linker_10, # of connection points: 2
#     Edge 15, Type (0, 1), BuildingBlock: TEMPAE_clean_linker_10, # of connection points: 2
#     Edge 16, Type (0, 1), BuildingBlock: TEMPAE_clean_linker_10, # of connection points: 2
#     Edge 17, Type (0, 1), BuildingBlock: TEMPAE_clean_linker_10, # of connection points: 2
#     Edge 18, Type (0, 1), BuildingBlock: TEMPAE_clean_linker_10, # of connection points: 2
#     Edge 19, Type (0, 1), BuildingBlock: TEMPAE_clean_linker_10, # of connection points: 2
#     Edge 20, Type (0, 1), BuildingBlock: TEMPAE_clean_linker_10, # of connection points: 2
#     Edge 21, Type (0, 1), BuildingBlock: TEMPAE_clean_linker_10, # of connection points: 2
#     Edge 22, Type (0, 1), BuildingBlock: TEMPAE_clean_linker_10, # of connection points: 2
#     Edge 23, Type (0, 1), BuildingBlock: TEMPAE_clean_linker_10, # of connection points: 2
#     Edge 24, Type (0, 1), BuildingBlock: TEMPAE_clean_linker_10, # of connection points: 2
#     Edge 25, Type (0, 1), BuildingBlock: TEMPAE_clean_linker_10, # of connection points: 2
#     Edge 26, Type (0, 1), BuildingBlock: TEMPAE_clean_linker_10, # of connection points: 2
# Relax obj value: 0.207
# Max RMSD: 0.218
# Mean RMSD: 0.164
data_MOF--net-anh--node1-PAMTOO_clean_sbu_0--node2-CUQRIR_clean_linker_1--edge1-TEMPAE_clean_linker_10
_symmetry_space_group_name_H-M    P1
_symmetry_Int_Tables_number       1
_symmetry_cell_setting            triclinic
loop_
_symmetry_equiv_pos_as_xyz
'x, y, z'
_cell_length_a     28.317129
_cell_length_b     27.620422
_cell_length_c     47.486253
_cell_angle_alpha  85.124538
_cell_angle_beta   94.11143
_cell_angle_gamma 101.08772
loop_
_atom_site_label
_atom_site_type_symbol
_atom_site_fract_x
_atom_site_fract_y
_atom_site_fract_z
_atom_type_partial_charge
Dy0 Dy 1.05328 0.59347 0.14954 0.0
Dy1 Dy 1.02963 0.4781 0.13377 0.0
C2 C 1.046 0.56585 0.08739 0.0
O3 O 0.97312 0.57025 0.15577 0.0
O4 O 0.95805 0.50435 0.12797 0.0
O5 O 1.07615 0.66915 0.13372 0.0
O6 O 1.05716 0.65229 0.17741 0.0
O7 O 1.01857 0.47965 0.17993 0.0
O8 O 1.0741 0.54907 0.18788 0.0
O9 O 0.11139 0.49381 0.13852 0.0
O10 O 0.12701 0.57832 0.14179 0.0
O11 O 1.03951 0.40284 0.14284 0.0
O12 O 0.98899 0.42036 0.10872 0.0
C13 C 0.94237 0.53744 0.14158 0.0
O14 O 1.02455 0.58682 0.10509 0.0
O15 O 1.05905 0.52356 0.09535 0.0
C16 C 0.12267 0.71711 0.16738 0.0
C17 C 0.21376 0.77647 0.17845 0.0
C18 C 0.17392 0.79818 0.16879 0.0
C19 C 0.12876 0.76868 0.16325 0.0
C20 C 0.16205 0.69524 0.17743 0.0
C21 C 0.20719 0.72465 0.18296 0.0
C22 C 1.07676 0.6861 0.15858 0.0
C23 C 1.04802 0.50727 0.19726 0.0
C24 C 0.14206 0.53634 0.13991 0.0
C25 C 0.96651 0.34576 0.13695 0.0
C26 C 0.89298 0.27116 0.15912 0.0
C27 C 0.9206 0.30565 0.17673 0.0
C28 C 0.95677 0.34275 0.16575 0.0
C29 C 0.93914 0.31128 0.11932 0.0
C30 C 0.90256 0.2744 0.13027 0.0
C31 C 1.00414 0.38541 0.12513 0.0
H32 H 0.1777 0.83799 0.16544 0.0
H33 H 0.09881 0.78607 0.15524 0.0
H34 H 0.1581 0.65537 0.18036 0.0
H35 H 0.23723 0.70675 0.19003 0.0
H36 H 0.9136 0.30455 0.19893 0.0
H37 H 0.97688 0.36928 0.17978 0.0
H38 H 0.9459 0.31305 0.09705 0.0
H39 H 0.88199 0.24816 0.11623 0.0
Dy40 Dy 0.61317 0.95321 0.51492 0.0
Dy41 Dy 0.73162 0.97243 0.5219 0.0
C42 C 0.67001 0.95636 0.57475 0.0
O43 O 0.63697 0.03393 0.50342 0.0
O44 O 0.70979 0.04441 0.5287 0.0
O45 O 0.54594 0.92742 0.53485 0.0
O46 O 0.54614 0.96059 0.49179 0.0
O47 O 0.70968 0.99317 0.477 0.0
O48 O 0.63855 0.93852 0.47373 0.0
O49 O 0.71182 0.89014 0.52 0.0
O50 O 0.62874 0.87668 0.52157 0.0
O51 O 0.7996 0.96592 0.50625 0.0
O52 O 0.79817 1.00588 0.54352 0.0
C53 C 0.67411 0.06264 0.51527 0.0
O54 O 0.6382 0.97596 0.55847 0.0
O55 O 0.70513 0.94093 0.56389 0.0
C56 C 0.48198 0.89567 0.50363 0.0
C57 C 0.40946 0.81448 0.49052 0.0
C58 C 0.39911 0.85237 0.5057 0.0
C59 C 0.43513 0.89269 0.51217 0.0
C60 C 0.49257 0.85804 0.48845 0.0
C61 C 0.45651 0.81783 0.48183 0.0
C62 C 0.52001 0.93675 0.51194 0.0
C63 C 0.67472 0.96779 0.46166 0.0
C64 C 0.66949 0.86056 0.5215 0.0
C65 C 0.85697 0.03932 0.51122 0.0
C66 C 0.91562 0.12664 0.48924 0.0
C67 C 0.87308 0.10574 0.47419 0.0
C68 C 0.84386 0.06266 0.48516 0.0
C69 C 0.89982 0.05952 0.52605 0.0
C70 C 0.9289 0.10291 0.51518 0.0
C71 C 0.82437 0.99626 0.52392 0.0
H72 H 0.36308 0.85096 0.51241 0.0
H73 H 0.42652 0.92134 0.52406 0.0
H74 H 0.52881 0.85953 0.48202 0.0
H75 H 0.46562 0.7889 0.47039 0.0
H76 H 0.86161 0.12358 0.45436 0.0
H77 H 0.81051 0.04818 0.47354 0.0
H78 H 0.9103 0.04225 0.54628 0.0
H79 H 0.96166 0.11808 0.52713 0.0
Dy80 Dy 0.67841 0.51498 0.8323 0.0
Dy81 Dy 0.56121 0.49189 0.83245 0.0
C82 C 0.61602 0.49765 0.77609 0.0
O83 O 0.65216 0.58556 0.81925 0.0
O84 O 0.58404 0.57036 0.84371 0.0
O85 O 0.75084 0.52283 0.85146 0.0
O86 O 0.73899 0.54129 0.80655 0.0
O87 O 0.58662 0.4823 0.87764 0.0
O88 O 0.66261 0.52917 0.87615 0.0
O89 O 0.58051 0.41858 0.82663 0.0
O90 O 0.6608 0.43297 0.84236 0.0
O91 O 0.49392 0.45292 0.84876 0.0
O92 O 0.49383 0.50716 0.81311 0.0
C93 C 0.61821 0.60169 0.83104 0.0
O94 O 0.65085 0.48245 0.79177 0.0
O95 O 0.58181 0.51332 0.78779 0.0
C96 C 0.79984 0.59377 0.83046 0.0
C97 C 0.85462 0.69 0.83176 0.0
C98 C 0.81255 0.67652 0.84678 0.0
C99 C 0.78511 0.62886 0.84594 0.0
C100 C 0.84116 0.60743 0.81496 0.0
C101 C 0.86836 0.65525 0.81556 0.0
C102 C 0.76983 0.54454 0.82829 0.0
C103 C 0.62565 0.50631 0.89041 0.0
C104 C 0.62045 0.40271 0.83539 0.0
C105 C 0.43815 0.50658 0.84701 0.0
C106 C 0.38796 0.57127 0.86965 0.0
C107 C 0.42895 0.55825 0.88443 0.0
C108 C 0.45412 0.52642 0.87307 0.0
C109 C 0.39601 0.51775 0.83289 0.0
C110 C 0.37111 0.54996 0.84411 0.0
C111 C 0.46863 0.48024 0.83264 0.0
H112 H 0.80131 0.70268 0.85943 0.0
H113 H 0.75248 0.61934 0.85742 0.0
H114 H 0.85242 0.58107 0.80246 0.0
H115 H 0.9011 0.66452 0.80419 0.0
H116 H 0.44281 0.57455 0.90403 0.0
H117 H 0.48713 0.51897 0.88408 0.0
H118 H 0.38351 0.50319 0.81264 0.0
H119 H 0.33932 0.55922 0.83247 0.0
C120 C 0.57498 1.00677 0.21297 0.0
N121 N 0.61127 0.02545 0.23151 0.0
N122 N 0.53646 0.98219 0.22699 0.0
C123 C 0.57582 0.01533 0.18131 0.0
C124 C 0.55057 0.98653 0.25463 0.0
N125 N 0.59568 0.01335 0.25734 0.0
C126 C 0.52157 0.96166 0.279 0.0
H127 H 0.53878 0.01198 0.17136 0.0
H128 H 0.59334 0.98715 0.17311 0.0
H129 H 0.59694 0.05245 0.17519 0.0
H130 H 0.54543 0.95047 0.29695 0.0
H131 H 0.49559 0.92851 0.27252 0.0
H132 H 0.50117 0.98816 0.28646 0.0
C133 C 0.65131 0.45704 0.52837 0.0
N134 N 0.64665 0.49059 0.54698 0.0
N135 N 0.64925 0.41127 0.54178 0.0
C136 C 0.65358 0.46767 0.49689 0.0
C137 C 0.64359 0.41814 0.56908 0.0
N138 N 0.64124 0.46574 0.57218 0.0
C139 C 0.64407 0.37902 0.59323 0.0
H140 H 0.63528 0.49888 0.48941 0.0
H141 H 0.63664 0.43446 0.48568 0.0
H142 H 0.6919 0.47765 0.49153 0.0
H143 H 0.6654 0.35126 0.58847 0.0
H144 H 0.60656 0.35979 0.5967 0.0
H145 H 0.6595 0.39577 0.6131 0.0
C146 C 0.19299 0.85417 0.89571 0.0
N147 N 0.20536 0.82444 0.91802 0.0
N148 N 0.14981 0.86703 0.89879 0.0
C149 C 0.21772 0.86173 0.86823 0.0
C150 C 0.13921 0.84771 0.92534 0.0
N151 N 0.17137 0.81993 0.93641 0.0
C152 C 0.09172 0.84704 0.93793 0.0
H153 H 0.25733 0.87121 0.87253 0.0
H154 H 0.20525 0.89157 0.85421 0.0
H155 H 0.20985 0.8269 0.85729 0.0
H156 H 1.06392 0.81787 0.9287 0.0
H157 H 1.08015 0.88311 0.93296 0.0
H158 H 0.09445 0.8391 0.96124 0.0
C159 C 0.13481 0.4856 0.44562 0.0
N160 N 0.10475 0.45863 0.42684 0.0
N161 N 0.15224 0.5313 0.43373 0.0
C162 C 0.14495 0.46845 0.47597 0.0
C163 C 0.13169 0.53112 0.40709 0.0
N164 N 0.10226 0.48722 0.40308 0.0
C165 C 0.14404 0.57191 0.38417 0.0
H166 H 0.15495 0.50031 0.48935 0.0
H167 H 0.17544 0.4483 0.47718 0.0
H168 H 0.11309 0.44287 0.48439 0.0
H169 H 0.14247 0.55673 0.36316 0.0
H170 H 0.18057 0.59403 0.38834 0.0
H171 H 0.11742 0.59675 0.3834 0.0
C172 C 0.61004 1.00226 0.81812 0.0
N173 N 0.61595 0.96715 0.80094 0.0
N174 N 0.61646 0.04778 0.80391 0.0
C175 C 0.59506 0.9917 0.84806 0.0
C176 C 0.62724 0.03898 0.77769 0.0
N177 N 0.6265 0.99032 0.77587 0.0
C178 C 0.63995 0.07811 0.7539 0.0
H179 H 0.57351 0.01878 0.85354 0.0
H180 H 0.62783 0.99478 0.86256 0.0
H181 H 0.57381 0.95366 0.85124 0.0
H182 H 0.65617 0.11432 0.7622 0.0
H183 H 0.60671 0.08211 0.74078 0.0
H184 H 0.66559 0.0677 0.73998 0.0
C185 C 0.54347 0.54544 0.13206 0.0
N186 N 0.58058 0.54416 0.1152 0.0
N187 N 0.50026 0.54277 0.11657 0.0
C188 C 0.54981 0.55252 0.16314 0.0
C189 C 0.51275 0.53887 0.08991 0.0
N190 N 0.56077 0.54064 0.08901 0.0
C191 C 0.47735 0.52869 0.06486 0.0
H192 H 0.54498 0.51568 0.175 0.0
H193 H 0.52246 0.5726 0.16964 0.0
H194 H 0.58652 0.57308 0.16869 0.0
H195 H 0.47318 0.56423 0.05312 0.0
H196 H 0.44156 0.50918 0.07172 0.0
H197 H 0.49051 0.50576 0.05014 0.0
C198 C 0.21317 0.50236 0.12477 0.0
C199 C 0.19567 0.53729 0.13906 0.0
C200 C 0.26333 0.504 0.12295 0.0
C201 C 0.2978 0.54043 0.13657 0.0
C202 C 0.28022 0.57493 0.15174 0.0
C203 C 0.22989 0.5735 0.15236 0.0
C204 C 0.27945 0.46738 0.10569 0.0
C205 C 0.31469 0.61356 0.16742 0.0
C206 C 0.42897 0.51623 0.14682 0.0
C207 C 0.45201 0.54658 0.12461 0.0
C208 C 0.37969 0.51519 0.1517 0.0
C209 C 0.35178 0.54409 0.13352 0.0
C210 C 0.37549 0.57574 0.11163 0.0
C211 C 0.42495 0.57737 0.10795 0.0
C212 C 0.35718 0.48221 0.176 0.0
C213 C 0.34809 0.60661 0.09116 0.0
H214 H 0.18752 0.47436 0.11421 0.0
H215 H 0.21726 0.60053 0.16371 0.0
H216 H 0.30163 0.48744 0.08848 0.0
H217 H 0.30242 0.44534 0.11916 0.0
H218 H 0.24859 0.44165 0.09612 0.0
H219 H 0.29569 0.63494 0.18018 0.0
H220 H 0.34017 0.59574 0.18169 0.0
H221 H 0.33641 0.63977 0.15219 0.0
H222 H 0.44902 0.49213 0.15985 0.0
H223 H 0.44233 0.6018 0.09113 0.0
H224 H 0.33062 0.45101 0.16769 0.0
H225 H 0.33743 0.50306 0.1886 0.0
H226 H 0.38445 0.46684 0.1902 0.0
H227 H 0.31795 0.5822 0.08013 0.0
H228 H 0.37132 0.62882 0.07502 0.0
H229 H 0.33207 0.6321 0.10275 0.0
C230 C 0.96055 0.21224 0.49656 0.0
C231 C 0.94488 0.17416 0.47843 0.0
C232 C 0.98672 0.25808 0.48652 0.0
C233 C 0.99784 0.26588 0.45769 0.0
C234 C 0.9825 0.22743 0.43931 0.0
C235 C 0.95596 0.18206 0.44988 0.0
C236 C 1.00202 0.29837 0.50671 0.0
C237 C 0.99415 0.23426 0.40853 0.0
C238 C 1.02786 0.39991 0.42871 0.0
C239 C 1.07817 0.40918 0.43186 0.0
C240 C 1.00111 0.35291 0.43626 0.0
C241 C 1.02557 0.31442 0.44695 0.0
C242 C 1.07661 0.32327 0.44896 0.0
C243 C 0.10232 0.37074 0.44145 0.0
C244 C 0.94677 0.34503 0.43392 0.0
C245 C 0.10401 0.28309 0.4599 0.0
H246 H 0.95142 0.20651 0.51853 0.0
H247 H 0.94417 0.15253 0.43587 0.0
H248 H 1.04182 0.30993 0.50772 0.0
H249 H 0.98656 0.33137 0.49895 0.0
H250 H 0.99034 0.2864 0.52846 0.0
H251 H 0.97997 0.20053 0.3971 0.0
H252 H 0.97866 0.26543 0.39784 0.0
H253 H 1.03376 0.24387 0.40676 0.0
H254 H 1.00955 0.43006 0.42135 0.0
H255 H 0.14136 0.37825 0.44347 0.0
H256 H 0.93264 0.33718 0.45537 0.0
H257 H 0.93178 0.31251 0.42171 0.0
H258 H 0.93342 0.3778 0.42353 0.0
H259 H 0.09687 0.27237 0.48246 0.0
H260 H 0.14352 0.29501 0.45814 0.0
H261 H 0.09157 0.24963 0.44802 0.0
C262 C 0.5854 0.67503 0.84389 0.0
C263 C 0.61767 0.65573 0.82888 0.0
C264 C 0.58419 0.72599 0.84143 0.0
C265 C 0.61553 0.75847 0.82324 0.0
C266 C 0.64835 0.7392 0.80819 0.0
C267 C 0.64926 0.6883 0.81134 0.0
C268 C 0.54915 0.74503 0.85818 0.0
C269 C 0.68194 0.77225 0.78826 0.0
C270 C 0.58145 0.88004 0.79272 0.0
C271 C 0.61332 0.91479 0.80808 0.0
C272 C 0.58139 0.82912 0.79763 0.0
C273 C 0.61311 0.81231 0.81908 0.0
C274 C 0.64391 0.84725 0.83557 0.0
C275 C 0.64388 0.89812 0.82972 0.0
C276 C 0.54825 0.79345 0.77933 0.0
C277 C 0.67768 0.83099 0.85895 0.0
H278 H 0.56102 0.65031 0.85761 0.0
H279 H 0.67433 0.67393 0.79961 0.0
H280 H 0.56873 0.77488 0.8712 0.0
H281 H 0.52306 0.76127 0.84356 0.0
H282 H 0.52874 0.71545 0.87234 0.0
H283 H 0.70562 0.75166 0.77831 0.0
H284 H 0.66069 0.79006 0.77127 0.0
H285 H 0.70498 0.80225 0.7998 0.0
H286 H 0.55661 0.89277 0.77673 0.0
H287 H 0.66844 0.92508 0.84163 0.0
H288 H 0.52437 0.76565 0.79272 0.0
H289 H 0.56984 0.77307 0.76765 0.0
H290 H 0.5255 0.81244 0.76373 0.0
H291 H 0.65747 0.80235 0.87367 0.0
H292 H 0.69656 0.86227 0.8712 0.0
H293 H 0.70509 0.81406 0.84983 0.0
C294 C 0.8564 0.50877 0.12153 0.0
C295 C 0.88874 0.53858 0.13983 0.0
C296 C 0.80642 0.5102 0.11893 0.0
C297 C 0.78705 0.54182 0.1352 0.0
C298 C 0.81932 0.57152 0.15401 0.0
C299 C 0.86932 0.56977 0.15597 0.0
C300 C 0.77428 0.47813 0.09833 0.0
C301 C 0.80101 0.60557 0.17204 0.0
C302 C 0.66694 0.58037 0.10745 0.0
C303 C 0.63221 0.54709 0.12274 0.0
C304 C 0.71684 0.5794 0.11148 0.0
C305 C 0.73358 0.54484 0.13181 0.0
C306 C 0.69876 0.51233 0.14812 0.0
C307 C 0.64883 0.51366 0.14333 0.0
C308 C 0.75162 0.61463 0.09325 0.0
C309 C 0.71416 0.47508 0.17021 0.0
H310 H 0.87026 0.48449 0.10879 0.0
H311 H 0.89328 0.59301 0.17027 0.0
H312 H 0.74496 0.45324 0.10962 0.0
H313 H 0.757 0.50163 0.0822 0.0
H314 H 0.79436 0.45522 0.08733 0.0
H315 H 0.82991 0.62491 0.1864 0.0
H316 H 0.78538 0.63371 0.15829 0.0
H317 H 0.77181 0.58426 0.18497 0.0
H318 H 0.65484 0.60678 0.09175 0.0
H319 H 0.62259 0.48741 0.15508 0.0
H320 H 0.77014 0.5934 0.08018 0.0
H321 H 0.77977 0.63692 0.10676 0.0
H322 H 0.73338 0.64015 0.07893 0.0
H323 H 0.72994 0.44785 0.15986 0.0
H324 H 0.6836 0.45482 0.18252 0.0
H325 H 0.74253 0.4938 0.18507 0.0
C326 C 0.36549 0.75464 0.45656 0.0
C327 C 0.37128 0.77153 0.48383 0.0
C328 C 0.32914 0.71449 0.4498 0.0
C329 C 0.29808 0.69047 0.47088 0.0
C330 C 0.30402 0.70705 0.49853 0.0
C331 C 0.34049 0.74754 0.50465 0.0
C332 C 0.32364 0.69812 0.42 0.0
C333 C 0.27185 0.68204 0.52161 0.0
C334 C 0.17768 0.61821 0.44447 0.0
C335 C 0.18715 0.57019 0.44565 0.0
C336 C 0.21312 0.65764 0.45328 0.0
C337 C 0.25893 0.6485 0.46374 0.0
C338 C 0.26799 0.5996 0.46599 0.0
C339 C 0.23194 0.56097 0.45676 0.0
C340 C 0.2021 0.70924 0.45049 0.0
C341 C 0.31625 0.58835 0.47722 0.0
H342 H 0.38892 0.77344 0.44034 0.0
H343 H 0.34527 0.76014 0.52586 0.0
H344 H 0.32706 0.65873 0.42029 0.0
H345 H 0.28721 0.70104 0.41055 0.0
H346 H 0.35094 0.72056 0.40614 0.0
H347 H 0.28176 0.69893 0.54213 0.0
H348 H 0.23379 0.68434 0.51537 0.0
H349 H 0.27396 0.64222 0.52463 0.0
H350 H 0.14275 0.6249 0.43601 0.0
H351 H 0.23917 0.52377 0.45733 0.0
H352 H 0.22593 0.73285 0.43515 0.0
H353 H 0.20946 0.72614 0.4711 0.0
H354 H 0.16402 0.70969 0.44317 0.0
H355 H 0.34442 0.60618 0.4626 0.0
H356 H 0.31624 0.54799 0.47959 0.0
H357 H 0.32644 0.60385 0.49808 0.0
C358 C 0.6578 0.33274 0.82335 0.0
C359 C 0.62061 0.34913 0.83549 0.0
C360 C 0.65609 0.28204 0.82079 0.0
C361 C 0.61718 0.24674 0.83166 0.0
C362 C 0.58082 0.26319 0.84527 0.0
C363 C 0.58239 0.31424 0.84643 0.0
C364 C 0.69475 0.26643 0.80525 0.0
C365 C 0.53978 0.22691 0.85814 0.0
C366 C 0.58455 0.12512 0.79648 0.0
C367 C 0.6115 0.0949 0.81336 0.0
C368 C 0.58571 0.17429 0.80237 0.0
C369 C 0.61265 0.19323 0.82663 0.0
C370 C 0.63698 0.16164 0.84502 0.0
C371 C 0.63678 0.11305 0.83791 0.0
C372 C 0.56005 0.20664 0.78177 0.0
C373 C 0.66445 0.17961 0.87172 0.0
H374 H 0.68713 0.35977 0.81465 0.0
H375 H 0.55379 0.32693 0.85602 0.0
H376 H 0.71235 0.23971 0.81894 0.0
H377 H 0.67824 0.24742 0.78627 0.0
H378 H 0.72286 0.29832 0.79838 0.0
H379 H 0.51809 0.24516 0.87108 0.0
H380 H 0.51564 0.20868 0.84115 0.0
H381 H 0.55382 0.19747 0.87169 0.0
H382 H 0.56403 0.1107 0.77789 0.0
H383 H 0.65766 0.08982 0.851 0.0
H384 H 0.58649 0.23845 0.77309 0.0
H385 H 0.53354 0.22192 0.79275 0.0
H386 H 0.54086 0.18625 0.76385 0.0
H387 H 0.69731 0.20676 0.8662 0.0
H388 H 0.67551 0.14884 0.88564 0.0
H389 H 0.64221 0.19874 0.88373 0.0
C390 C 0.63525 0.77625 0.50588 0.0
C391 C 0.66731 0.80645 0.52379 0.0
C392 C 0.63196 0.72458 0.50817 0.0
C393 C 0.65983 0.70242 0.52976 0.0
C394 C 0.69171 0.73294 0.54822 0.0
C395 C 0.69581 0.78468 0.5446 0.0
C396 C 0.59889 0.69378 0.48739 0.0
C397 C 0.72057 0.71087 0.57223 0.0
C398 C 0.61475 0.56655 0.55265 0.0
C399 C 0.64826 0.5433 0.54133 0.0
C400 C 0.61858 0.61824 0.54952 0.0
C401 C 0.65525 0.64737 0.53327 0.0
C402 C 0.6879 0.62385 0.5207 0.0
C403 C 0.68469 0.57235 0.52544 0.0
C404 C 0.584 0.64172 0.56414 0.0
C405 C 0.72644 0.65309 0.50238 0.0
H406 H 0.61326 0.7932 0.48975 0.0
H407 H 0.72012 0.80808 0.5587 0.0
H408 H 0.61927 0.67037 0.47701 0.0
H409 H 0.56982 0.66856 0.49867 0.0
H410 H 0.58208 0.71689 0.47077 0.0
H411 H 0.74211 0.7395 0.58543 0.0
H412 H 0.69603 0.68435 0.58596 0.0
H413 H 0.7454 0.68988 0.56377 0.0
H414 H 0.58574 0.54432 0.5643 0.0
H415 H 0.71113 0.55481 0.51699 0.0
H416 H 0.56195 0.66079 0.54823 0.0
H417 H 0.60439 0.67008 0.57788 0.0
H418 H 0.5594 0.61418 0.57734 0.0
H419 H 0.71015 0.67635 0.48564 0.0
H420 H 0.74616 0.62884 0.49215 0.0
H421 H 0.75279 0.67834 0.51534 0.0
C422 C 0.90881 0.76686 0.8129 0.0
C423 C 0.88779 0.73746 0.83593 0.0
C424 C 0.94874 0.80495 0.81721 0.0
C425 C 0.96888 0.81203 0.84504 0.0
C426 C 0.94434 0.786 0.86838 0.0
C427 C 0.90376 0.7493 0.86349 0.0
C428 C 0.97206 0.83397 0.79187 0.0
C429 C 0.96452 0.79152 0.89849 0.0
C430 C 0.10036 0.81859 0.86327 0.0
C431 C 0.1122 0.86306 0.87657 0.0
C432 C 1.05494 0.80391 0.85 0.0
C433 C 1.02046 0.83489 0.84974 0.0
C434 C 1.03433 0.88282 0.85966 0.0
C435 C 1.08019 0.89623 0.87338 0.0
C436 C 1.04216 0.75237 0.83975 0.0
C437 C 0.9994 0.91789 0.85843 0.0
H438 H 0.89572 0.75834 0.79153 0.0
H439 H 0.88748 0.72659 0.88131 0.0
H440 H 0.98958 0.87196 0.79699 0.0
H441 H 1.00013 0.81518 0.78505 0.0
H442 H 0.94522 0.83628 0.77379 0.0
H443 H 0.93711 0.77598 0.91408 0.0
H444 H 0.99493 0.77129 0.90234 0.0
H445 H 0.97841 0.83085 0.90234 0.0
H446 H 0.1247 0.79251 0.86615 0.0
H447 H 0.08942 0.93062 0.88367 0.0
H448 H 1.02499 0.75329 0.81806 0.0
H449 H 1.01598 0.72871 0.85381 0.0
H450 H 1.07423 0.7347 0.83959 0.0
H451 H 1.01875 0.95693 0.85807 0.0
H452 H 0.97801 0.91032 0.87753 0.0
H453 H 0.974 0.9132 0.83952 0.0
C454 C 0.29133 0.79761 0.20753 0.0
C455 C 0.26212 0.80767 0.18346 0.0
C456 C 0.33689 0.82699 0.21267 0.0
C457 C 0.35369 0.86742 0.19327 0.0
C458 C 0.32467 0.87744 0.16876 0.0
C459 C 0.2792 0.84746 0.16416 0.0
C460 C 0.36672 0.81524 0.23913 0.0
C461 C 0.34149 0.92006 0.14754 0.0
C462 C 0.44814 0.9691 0.22368 0.0
C463 C 0.49077 0.95699 0.21567 0.0
C464 C 0.40312 0.94117 0.21574 0.0
C465 C 0.40088 0.90022 0.19934 0.0
C466 C 0.44392 0.88912 0.19021 0.0
C467 C 0.4885 0.91777 0.19854 0.0
C468 C 0.35814 0.95436 0.22582 0.0
C469 C 0.44298 0.84586 0.17265 0.0
H470 H 0.27817 0.76723 0.22266 0.0
H471 H 0.25713 0.85493 0.14528 0.0
H472 H 0.40251 0.80954 0.23349 0.0
H473 H 0.37305 0.84689 0.25272 0.0
H474 H 0.34907 0.78165 0.25164 0.0
H475 H 0.31526 0.92195 0.12911 0.0
H476 H 0.34716 0.95544 0.15786 0.0
H477 H 0.37662 0.91661 0.13974 0.0
H478 H 0.45033 0.99976 0.23682 0.0
H479 H 0.52175 0.90848 0.19261 0.0
H480 H 0.34042 0.92392 0.24048 0.0
H481 H 0.33207 0.95884 0.20765 0.0
H482 H 0.36596 0.98901 0.23699 0.0
H483 H 0.42991 0.81081 0.18532 0.0
H484 H 0.47914 0.84465 0.1654 0.0
H485 H 0.41756 0.84765 0.15386 0.0
C486 C 0.6974 0.14399 0.53693 0.0
C487 C 0.67429 0.11645 0.51473 0.0
C488 C 0.69431 0.19401 0.53795 0.0
C489 C 0.6686 0.21751 0.51583 0.0
C490 C 0.64726 0.19046 0.49264 0.0
C491 C 0.64972 0.14007 0.49258 0.0
C492 C 0.7167 0.22106 0.56339 0.0
C493 C 0.62077 0.2144 0.46824 0.0
C494 C 0.61443 0.32357 0.53711 0.0
C495 C 0.65029 0.36466 0.53043 0.0
C496 C 0.61929 0.27571 0.5317 0.0
C497 C 0.66046 0.2688 0.5184 0.0
C498 C 0.69503 0.3107 0.50956 0.0
C499 C 0.68977 0.35823 0.51596 0.0
C500 C 0.58176 0.23232 0.54182 0.0
C501 C 0.73866 0.30513 0.49456 0.0
H502 H 0.71626 0.12586 0.55416 0.0
H503 H 0.63226 0.11908 0.47519 0.0
H504 H 0.74179 0.25536 0.55655 0.0
H505 H 0.68812 0.23218 0.57484 0.0
H506 H 0.73675 0.19807 0.57835 0.0
H507 H 0.61136 0.19025 0.45033 0.0
H508 H 0.58702 0.2228 0.47545 0.0
H509 H 0.643 0.24998 0.46048 0.0
H510 H 0.58362 0.32885 0.54796 0.0
H511 H 0.71753 0.39004 0.51087 0.0
H512 H 0.59846 0.20898 0.55833 0.0
H513 H 0.56761 0.20887 0.52414 0.0
H514 H 0.55103 0.24416 0.55084 0.0
H515 H 0.76382 0.28853 0.50969 0.0
H516 H 0.75817 0.34124 0.48549 0.0
H517 H 0.728 0.27985 0.47729 0.0
C518 C 0.35161 0.60678 0.90783 0.0
C519 C 0.36471 0.60956 0.87976 0.0
C520 C 0.32822 0.64243 0.91714 0.0
C521 C 0.31849 0.68189 0.89796 0.0
C522 C 0.33326 0.68571 0.86988 0.0
C523 C 0.35597 0.64931 0.86108 0.0
C524 C 0.3124 0.63695 0.94712 0.0
C525 C 0.32387 0.7275 0.84886 0.0
C526 C 0.21178 0.74257 0.90475 0.0
C527 C 0.23378 0.7874 0.91559 0.0
C528 C 0.23871 0.70677 0.90038 0.0
C529 C 0.2892 0.7169 0.90622 0.0
C530 C 0.3116 0.7621 0.91754 0.0
C531 C 0.28336 0.79698 0.92221 0.0
C532 C 0.21332 0.659 0.88846 0.0
C533 C 0.36542 0.77432 0.92364 0.0
H534 H 0.35849 0.57598 0.92225 0.0
H535 H 0.36699 0.6519 0.83952 0.0
H536 H 0.32543 0.6718 0.95763 0.0
H537 H 0.27244 0.62957 0.94688 0.0
H538 H 0.32579 0.6063 0.95995 0.0
H539 H 0.34092 0.72712 0.82855 0.0
H540 H 0.28448 0.72469 0.84437 0.0
H541 H 0.33773 0.76366 0.85784 0.0
H542 H 0.17351 0.73622 0.89902 0.0
H543 H 0.29994 0.83217 0.93028 0.0
H544 H 0.22359 0.62687 0.9014 0.0
H545 H 0.22447 0.65757 0.86667 0.0
H546 H 0.17346 0.65509 0.88771 0.0
H547 H 0.37785 0.7438 0.93706 0.0
H548 H 0.37668 0.80917 0.93445 0.0
H549 H 0.3839 0.77827 0.90351 0.0
C550 C 0.86133 0.20537 0.19644 0.0
C551 C 0.85366 0.23264 0.17077 0.0
C552 C 0.82411 0.16967 0.208 0.0
C553 C 0.77796 0.16147 0.1937 0.0
C554 C 0.77006 0.18886 0.16775 0.0
C555 C 0.80806 0.22389 0.15653 0.0
C556 C 0.83412 0.14077 0.2355 0.0
C557 C 0.72124 0.18163 0.15202 0.0
C558 C 0.68719 0.04245 0.20717 0.0
C559 C 0.65595 0.05755 0.2247 0.0
C560 C 0.72816 0.07537 0.19775 0.0
C561 C 0.73763 0.12465 0.20589 0.0
C562 C 0.70689 0.13943 0.22445 0.0
C563 C 0.66647 0.10551 0.23375 0.0
C564 C 0.76039 0.0579 0.17837 0.0
C565 C 0.71547 0.19164 0.23349 0.0
H566 H 0.89667 0.21169 0.20738 0.0
H567 H 0.8018 0.2453 0.13687 0.0
H568 H 0.81034 0.14749 0.25175 0.0
H569 H 0.82592 0.10055 0.2325 0.0
H570 H 0.8722 0.15086 0.24368 0.0
H571 H 0.72103 0.20584 0.13211 0.0
H572 H 0.71002 0.14256 0.14675 0.0
H573 H 0.69389 0.18965 0.16567 0.0
H574 H 0.67887 1.00509 0.20043 0.0
H575 H 0.64182 0.11697 0.24714 0.0
H576 H 0.79848 0.06635 0.18667 0.0
H577 H 0.75827 0.07786 0.15717 0.0
H578 H 0.7502 0.01753 0.17587 0.0
H579 H 0.75277 0.20214 0.24274 0.0
H580 H 0.68989 0.19638 0.24928 0.0
H581 H 0.71148 0.21769 0.21474 0.0
C582 C 0.0989 0.5829 0.04604 0.0
C583 C 1.06261 0.59511 0.0612 0.0
C584 C 0.11998 0.61538 0.02399 0.0
C585 C 0.10454 0.66104 0.01725 0.0
C586 C 1.0667 0.67254 0.03179 0.0
C587 C 1.04606 0.63935 0.0534 0.0
C588 C 0.15968 0.60162 0.00853 0.0
C589 C 1.049 0.72076 0.0252 0.0
C590 C 0.18203 0.77516 0.98284 0.0
C591 C 0.15893 0.77734 0.95594 0.0
C592 C 0.16652 0.73567 0.00275 0.0
C593 C 0.12758 0.69754 -0.00484 0.0
C594 C 0.10637 0.69833 0.96729 0.0
C595 C 0.12201 0.73854 0.94811 0.0
C596 C 0.1898 0.73627 0.03235 0.0
C597 C 1.06533 0.65823 0.95815 0.0
H598 H 0.11206 0.54892 0.05206 0.0
H599 H 1.01785 0.649 0.06488 0.0
H600 H 0.15174 0.60556 0.98531 0.0
H601 H 0.19411 0.62718 0.01328 0.0
H602 H 0.1647 0.56313 0.01462 0.0
H603 H 1.01908 0.7239 0.03843 0.0
H604 H 1.07904 0.75232 0.02877 0.0
H605 H 1.03628 0.72428 0.00261 0.0
H606 H 0.21076 0.80529 0.98854 0.0
H607 H 0.10465 0.7405 0.92705 0.0
H608 H 0.19967 0.69993 0.03914 0.0
H609 H 0.16373 0.74294 0.04729 0.0
H610 H 0.22261 0.76553 0.03402 0.0
H611 H 1.0735 0.62114 0.9649 0.0
H612 H 1.05768 0.66064 0.93484 0.0
H613 H 1.03223 0.66154 0.96843 0.0
C614 C 0.63723 0.94821 0.41367 0.0
C615 C 0.67339 0.97634 0.43039 0.0
C616 C 0.63277 0.95871 0.38429 0.0
C617 C 0.66514 0.99848 0.37126 0.0
C618 C 0.70276 0.02598 0.38783 0.0
C619 C 0.70651 0.01452 0.41722 0.0
C620 C 0.59231 0.9282 0.36732 0.0
C621 C 0.73785 0.06866 0.37472 0.0
C622 C 0.6595 0.99409 0.29155 0.0
C623 C 0.62332 0.02136 0.28362 0.0
C624 C 0.67668 0.98936 0.31996 0.0
C625 C 0.65707 0.01273 0.34061 0.0
C626 C 0.62389 0.04426 0.33202 0.0
C627 C 0.60722 0.04795 0.30355 0.0
C628 C 0.71226 0.95568 0.32817 0.0
C629 C 0.60254 0.0704 0.35321 0.0
H630 H 0.61168 0.91847 0.42361 0.0
H631 H 0.73462 0.0365 0.42995 0.0
H632 H 0.56676 0.9519 0.35811 0.0
H633 H 0.60679 0.91327 0.34948 0.0
H634 H 0.572 0.89681 0.38038 0.0
H635 H 0.76795 0.08298 0.38992 0.0
H636 H 0.75308 0.05733 0.35597 0.0
H637 H 0.71868 0.09924 0.36728 0.0
H638 H 0.67131 0.97323 0.27595 0.0
H639 H 0.57896 0.06873 0.29712 0.0
H640 H 0.69309 0.92025 0.33818 0.0
H641 H 0.74029 0.97233 0.34388 0.0
H642 H 0.73013 0.94744 0.30953 0.0
H643 H 0.57681 0.04299 0.36574 0.0
H644 H 0.58298 0.09889 0.34275 0.0
H645 H 0.63107 0.08836 0.36822 0.0
C646 C 0.64244 0.46863 0.73263 0.0
C647 C 0.61714 0.49944 0.74498 0.0
C648 C 0.64491 0.47029 0.7032 0.0
C649 C 0.62237 0.50439 0.6857 0.0
C650 C 0.5976 0.53638 0.69806 0.0
C651 C 0.59476 0.5331 0.72761 0.0
C652 C 0.67088 0.43481 0.69081 0.0
C653 C 0.57407 0.57387 0.68008 0.0
C654 C 0.66679 0.51952 0.61146 0.0
C655 C 0.63206 0.48441 0.5982 0.0
C656 C 0.66211 0.52989 0.6395 0.0
C657 C 0.62231 0.50362 0.65444 0.0
C658 C 0.58544 0.47094 0.6402 0.0
C659 C 0.59064 0.46215 0.61213 0.0
C660 C 0.70145 0.56611 0.65369 0.0
C661 C 0.54262 0.44184 0.65528 0.0
H662 H 0.65975 0.44255 0.74601 0.0
H663 H 0.57576 0.5575 0.73715 0.0
H664 H 0.64553 0.41089 0.67659 0.0
H665 H 0.70026 0.45566 0.67788 0.0
H666 H 0.68664 0.41076 0.70738 0.0
H667 H 0.55921 0.5984 0.69307 0.0
H668 H 0.60054 0.59705 0.66603 0.0
H669 H 0.54434 0.55463 0.66625 0.0
H670 H 0.69868 0.53668 0.60045 0.0
H671 H 0.56378 0.43535 0.60146 0.0
H672 H 0.72481 0.54549 0.66787 0.0
H673 H 0.68596 0.58974 0.6669 0.0
H674 H 0.72429 0.59021 0.63801 0.0
H675 H 0.55481 0.41396 0.67093 0.0
H676 H 0.51476 0.42224 0.64042 0.0
H677 H 0.52585 0.46645 0.66709 0.0
C678 C 0.67249 0.91201 0.6227 0.0
C679 C 0.66796 0.95502 0.60567 0.0
C680 C 0.66733 0.90964 0.65205 0.0
C681 C 0.65936 0.95192 0.66456 0.0
C682 C 0.65674 0.99603 0.64742 0.0
C683 C 0.66007 0.99668 0.61809 0.0
C684 C 0.66859 0.86152 0.66946 0.0
C685 C 0.6498 0.04246 0.66 0.0
C686 C 0.59597 0.95312 0.73167 0.0
C687 C 0.63474 0.96826 0.7508 0.0
C688 C 0.60365 0.94252 0.70421 0.0
C689 C 0.65135 0.95013 0.69528 0.0
C690 C 0.69076 0.96325 0.71505 0.0
C691 C 0.68186 0.9715 0.7428 0.0
C692 C 0.56061 0.92697 0.68417 0.0
C693 C 0.7421 0.9733 0.70625 0.0
H694 H 0.67824 0.87972 0.6129 0.0
H695 H 0.65702 0.03002 0.60482 0.0
H696 H 0.69565 0.86734 0.68751 0.0
H697 H 0.633 0.84758 0.67848 0.0
H698 H 0.6772 0.83271 0.65675 0.0
H699 H 0.65315 0.07478 0.64417 0.0
H700 H 0.61357 0.03652 0.6686 0.0
H701 H 0.67676 0.05147 0.67783 0.0
H702 H 0.55965 0.95225 0.73776 0.0
H703 H 0.7116 0.9845 0.75761 0.0
H704 H 0.56665 0.89713 0.67138 0.0
H705 H 0.55509 0.9589 0.66932 0.0
H706 H 0.52714 0.91377 0.69563 0.0
H707 H 0.74852 0.94398 0.69323 0.0
H708 H 0.76847 0.97597 0.7248 0.0
H709 H 0.74885 0.00881 0.69305 0.0
C710 C 0.66626 0.53511 0.93669 0.0
C711 C 0.62612 0.50938 0.92154 0.0
C712 C 0.66504 0.54063 0.96584 0.0
C713 C 0.62258 0.52034 0.98005 0.0
C714 C 0.58266 0.49297 0.96505 0.0
C715 C 0.58498 0.48773 0.93612 0.0
C716 C 0.70848 0.56958 0.9812 0.0
C717 C 0.53655 0.47084 0.97929 0.0
C718 C 0.60927 0.50191 0.05945 0.0
C719 C 0.58557 0.54054 0.06357 0.0
C720 C 0.62559 0.49701 0.03272 0.0
C721 C 0.61731 0.53126 0.00974 0.0
C722 C 0.59671 0.57244 0.0146 0.0
C723 C 0.5813 0.5766 0.04151 0.0
C724 C 0.64836 0.45321 0.02864 0.0
C725 C 0.58722 0.60995 0.99086 0.0
H726 H 0.69833 0.55175 0.9257 0.0
H727 H 0.55377 0.46757 0.92479 0.0
H728 H 0.70039 0.60542 0.98641 0.0
H729 H 0.71726 0.54926 0.00147 0.0
H730 H 0.74065 0.57718 0.96829 0.0
H731 H 0.5097 0.44852 0.96501 0.0
H732 H 0.54428 0.44688 -0.00166 0.0
H733 H 0.52015 0.5008 0.98639 0.0
H734 H 0.61262 0.47422 0.07669 0.0
H735 H 0.56341 0.60671 0.04506 0.0
H736 H 0.679 0.46404 0.01468 0.0
H737 H 0.62131 0.42462 0.01829 0.0
H738 H 0.6614 0.43649 0.04914 0.0
H739 H 0.61971 0.6227 0.97855 0.0
H740 H 0.57636 0.64267 -0.00121 0.0
H741 H 0.55786 0.5925 0.97614 0.0
C742 C 1.0169 0.45442 0.24024 0.0
C743 C 1.05092 0.49277 0.22799 0.0
C744 C 1.01815 0.44316 0.26972 0.0
C745 C 1.05435 0.47079 0.28718 0.0
C746 C 0.08966 0.50835 0.27476 0.0
C747 C 1.08743 0.51889 0.24541 0.0
C748 C 0.97991 0.40293 0.28222 0.0
C749 C 0.12919 0.53854 0.29255 0.0
C750 C 1.04583 0.4985 0.36267 0.0
C751 C 1.07913 0.47202 0.37653 0.0
C752 C 1.03308 0.49432 0.3338 0.0
C753 C 1.05469 0.4632 0.31857 0.0
C754 C 1.08445 0.43248 0.3333 0.0
C755 C 0.09633 0.43729 0.36227 0.0
C756 C 1.00066 0.52721 0.31908 0.0
C757 C 0.10793 0.39855 0.31796 0.0
H758 H 0.9886 0.43402 0.2269 0.0
H759 H 0.11419 0.54821 0.23614 0.0
H760 H 0.99647 0.37773 0.29765 0.0
H761 H 0.95535 0.41979 0.29389 0.0
H762 H 0.95815 0.38082 0.26572 0.0
H763 H 0.15534 0.56447 0.27945 0.0
H764 H 0.11318 0.5604 0.30659 0.0
H765 H 0.14913 0.51381 0.30629 0.0
H766 H 1.03268 0.52521 0.37401 0.0
H767 H 0.12228 0.41709 0.37322 0.0
H768 H 0.97463 0.50673 0.30369 0.0
H769 H 1.02286 0.55873 0.30712 0.0
H770 H 0.98035 0.5423 0.33436 0.0
H771 H 1.08233 0.3794 0.30188 0.0
H772 H 0.12157 0.3704 0.33282 0.0
H773 H 0.13884 0.42076 0.30673 0.0
loop_
_geom_bond_atom_site_label_1
_geom_bond_atom_site_label_2
_geom_bond_distance
_geom_bond_site_symmetry_2
_ccdc_geom_bond_type
Dy0 O3 2.307 1_455 S
Dy0 O5 2.395 . S
Dy0 O6 2.379 . S
Dy0 O8 2.339 . S
Dy0 O10 2.298 . S
Dy0 O14 2.275 . S
Dy0 C22 2.738 . S
Dy1 O4 2.298 . S
Dy1 O7 2.275 . S
Dy1 O9 2.307 1_655 S
Dy1 O11 2.395 . S
Dy1 O12 2.379 . S
Dy1 O15 2.339 . S
Dy1 C31 2.738 . S
C2 O14 1.254 . S
C2 O15 1.257 1_455 S
O3 Dy0 2.307 1_655 S
O3 C13 1.266 . S
O4 Dy1 2.298 . S
O4 C13 1.236 . S
O5 Dy0 2.395 . S
O5 C22 1.255 . S
O6 Dy0 2.379 . S
O6 C22 1.249 . S
O7 Dy1 2.275 . S
O7 C23 1.254 1_655 S
O8 Dy0 2.339 . S
O8 C23 1.257 . S
O9 Dy1 2.307 1_455 S
O9 C24 1.266 . S
O10 Dy0 2.298 . S
O10 C24 1.236 . S
O11 Dy1 2.395 . S
O11 C31 1.255 . S
O12 Dy1 2.379 . S
O12 C31 1.249 . S
C13 O3 1.266 . S
C13 O4 1.236 . S
O14 Dy0 2.275 . S
O14 C2 1.254 . S
O15 Dy1 2.339 . S
O15 C2 1.257 1_655 S
C16 C19 1.344 . S
C16 C20 1.328 . S
C16 C22 1.516 . S
C17 C18 1.304 . S
C17 C21 1.323 . S
C18 C17 1.304 . S
C18 C19 1.371 . S
C18 H32 0.930 . S
C19 C16 1.344 . S
C19 C18 1.371 . S
C19 H33 0.931 . S
C20 C16 1.328 . S
C20 C21 1.433 . S
C20 H34 0.931 . S
C21 C17 1.323 . S
C21 C20 1.433 . S
C21 H35 0.933 . S
C22 Dy0 2.738 . S
C22 O5 1.255 . S
C22 O6 1.249 . S
C22 C16 1.516 . S
C23 O7 1.254 1_455 S
C23 O8 1.257 . S
C24 O9 1.266 . S
C24 O10 1.236 . S
C25 C28 1.344 . S
C25 C29 1.328 . S
C25 C31 1.516 . S
C26 C27 1.304 . S
C26 C30 1.323 . S
C27 C26 1.304 . S
C27 C28 1.371 . S
C27 H36 0.930 . S
C28 C25 1.344 . S
C28 C27 1.371 . S
C28 H37 0.931 . S
C29 C25 1.328 . S
C29 C30 1.433 . S
C29 H38 0.931 . S
C30 C26 1.323 . S
C30 C29 1.433 . S
C30 H39 0.933 . S
C31 Dy1 2.738 . S
C31 O11 1.255 . S
C31 O12 1.249 . S
C31 C25 1.516 . S
H32 C18 0.930 . S
H33 C19 0.931 . S
H34 C20 0.931 . S
H35 C21 0.933 . S
H36 C27 0.930 . S
H37 C28 0.931 . S
H38 C29 0.931 . S
H39 C30 0.933 . S
Dy40 O43 2.307 1_565 S
Dy40 O45 2.395 . S
Dy40 O46 2.379 . S
Dy40 O48 2.339 1_565 S
Dy40 O50 2.298 . S
Dy40 O54 2.275 1_565 S
Dy40 C62 2.738 . S
Dy41 O44 2.298 . S
Dy41 O47 2.275 . S
Dy41 O49 2.307 1_545 S
Dy41 O51 2.395 . S
Dy41 O52 2.379 . S
Dy41 O55 2.339 . S
Dy41 C71 2.738 . S
C42 O54 1.254 . S
C42 O55 1.257 . S
O43 Dy40 2.307 1_545 S
O43 C53 1.266 . S
O44 Dy41 2.298 . S
O44 C53 1.236 . S
O45 Dy40 2.395 . S
O45 C62 1.255 . S
O46 Dy40 2.379 . S
O46 C62 1.249 . S
O47 Dy41 2.275 . S
O47 C63 1.254 . S
O48 Dy40 2.339 1_545 S
O48 C63 1.257 . S
O49 Dy41 2.307 1_565 S
O49 C64 1.266 . S
O50 Dy40 2.298 . S
O50 C64 1.236 . S
O51 Dy41 2.395 . S
O51 C71 1.255 . S
O52 Dy41 2.379 . S
O52 C71 1.249 . S
C53 O43 1.266 . S
C53 O44 1.236 . S
O54 Dy40 2.275 1_545 S
O54 C42 1.254 . S
O55 Dy41 2.339 . S
O55 C42 1.257 . S
C56 C59 1.344 . S
C56 C60 1.328 . S
C56 C62 1.516 . S
C57 C58 1.304 . S
C57 C61 1.323 . S
C58 C57 1.304 . S
C58 C59 1.371 . S
C58 H72 0.930 . S
C59 C56 1.344 . S
C59 C58 1.371 . S
C59 H73 0.931 . S
C60 C56 1.328 . S
C60 C61 1.433 . S
C60 H74 0.931 . S
C61 C57 1.323 . S
C61 C60 1.433 . S
C61 H75 0.933 . S
C62 Dy40 2.738 . S
C62 O45 1.255 . S
C62 O46 1.249 . S
C62 C56 1.516 . S
C63 O47 1.254 . S
C63 O48 1.257 . S
C64 O49 1.266 . S
C64 O50 1.236 . S
C65 C68 1.344 . S
C65 C69 1.328 . S
C65 C71 1.516 . S
C66 C67 1.304 . S
C66 C70 1.323 . S
C67 C66 1.304 . S
C67 C68 1.371 . S
C67 H76 0.930 . S
C68 C65 1.344 . S
C68 C67 1.371 . S
C68 H77 0.931 . S
C69 C65 1.328 . S
C69 C70 1.433 . S
C69 H78 0.931 . S
C70 C66 1.323 . S
C70 C69 1.433 . S
C70 H79 0.933 . S
C71 Dy41 2.738 . S
C71 O51 1.255 . S
C71 O52 1.249 . S
C71 C65 1.516 . S
H72 C58 0.930 . S
H73 C59 0.931 . S
H74 C60 0.931 . S
H75 C61 0.933 . S
H76 C67 0.930 . S
H77 C68 0.931 . S
H78 C69 0.931 . S
H79 C70 0.933 . S
Dy80 O83 2.307 . S
Dy80 O85 2.395 . S
Dy80 O86 2.379 . S
Dy80 O88 2.339 . S
Dy80 O90 2.298 . S
Dy80 O94 2.275 . S
Dy80 C102 2.738 . S
Dy81 O84 2.298 . S
Dy81 O87 2.275 . S
Dy81 O89 2.307 . S
Dy81 O91 2.395 . S
Dy81 O92 2.379 . S
Dy81 O95 2.339 . S
Dy81 C111 2.738 . S
C82 O94 1.254 . S
C82 O95 1.257 . S
O83 Dy80 2.307 . S
O83 C93 1.266 . S
O84 Dy81 2.298 . S
O84 C93 1.236 . S
O85 Dy80 2.395 . S
O85 C102 1.255 . S
O86 Dy80 2.379 . S
O86 C102 1.249 . S
O87 Dy81 2.275 . S
O87 C103 1.254 . S
O88 Dy80 2.339 . S
O88 C103 1.257 . S
O89 Dy81 2.307 . S
O89 C104 1.266 . S
O90 Dy80 2.298 . S
O90 C104 1.236 . S
O91 Dy81 2.395 . S
O91 C111 1.255 . S
O92 Dy81 2.379 . S
O92 C111 1.249 . S
C93 O83 1.266 . S
C93 O84 1.236 . S
O94 Dy80 2.275 . S
O94 C82 1.254 . S
O95 Dy81 2.339 . S
O95 C82 1.257 . S
C96 C99 1.344 . S
C96 C100 1.328 . S
C96 C102 1.516 . S
C97 C98 1.304 . S
C97 C101 1.323 . S
C98 C97 1.304 . S
C98 C99 1.371 . S
C98 H112 0.930 . S
C99 C96 1.344 . S
C99 C98 1.371 . S
C99 H113 0.931 . S
C100 C96 1.328 . S
C100 C101 1.433 . S
C100 H114 0.931 . S
C101 C97 1.323 . S
C101 C100 1.433 . S
C101 H115 0.933 . S
C102 Dy80 2.738 . S
C102 O85 1.255 . S
C102 O86 1.249 . S
C102 C96 1.516 . S
C103 O87 1.254 . S
C103 O88 1.257 . S
C104 O89 1.266 . S
C104 O90 1.236 . S
C105 C108 1.344 . S
C105 C109 1.328 . S
C105 C111 1.516 . S
C106 C107 1.304 . S
C106 C110 1.323 . S
C107 C106 1.304 . S
C107 C108 1.371 . S
C107 H116 0.930 . S
C108 C105 1.344 . S
C108 C107 1.371 . S
C108 H117 0.931 . S
C109 C105 1.328 . S
C109 C110 1.433 . S
C109 H118 0.931 . S
C110 C106 1.323 . S
C110 C109 1.433 . S
C110 H119 0.933 . S
C111 Dy81 2.738 . S
C111 O91 1.255 . S
C111 O92 1.249 . S
C111 C105 1.516 . S
H112 C98 0.930 . S
H113 C99 0.931 . S
H114 C100 0.931 . S
H115 C101 0.933 . S
H116 C107 0.930 . S
H117 C108 0.931 . S
H118 C109 0.931 . S
H119 C110 0.933 . S
C120 N121 1.317 . S
C120 N122 1.348 1_545 S
C120 C123 1.485 . S
N121 C120 1.317 . S
N121 N125 1.370 . S
N122 C120 1.348 1_565 S
N122 C124 1.346 . S
C123 C120 1.485 . S
C123 H127 0.960 . S
C123 H128 0.961 1_545 S
C123 H129 0.960 . S
C124 N122 1.346 . S
C124 N125 1.307 1_565 S
C124 C126 1.486 . S
N125 N121 1.370 . S
N125 C124 1.307 1_545 S
C126 C124 1.486 . S
C126 H130 0.960 . S
C126 H131 0.960 . S
C126 H132 0.959 . S
H127 C123 0.960 . S
H128 C123 0.961 1_565 S
H129 C123 0.960 . S
H130 C126 0.960 . S
H131 C126 0.960 . S
H132 C126 0.959 . S
C133 N134 1.317 . S
C133 N135 1.348 . S
C133 C136 1.485 . S
N134 C133 1.317 . S
N134 N138 1.370 . S
N135 C133 1.348 . S
N135 C137 1.346 . S
C136 C133 1.485 . S
C136 H140 0.960 . S
C136 H141 0.961 . S
C136 H142 0.960 . S
C137 N135 1.346 . S
C137 N138 1.307 . S
C137 C139 1.486 . S
N138 N134 1.370 . S
N138 C137 1.307 . S
C139 C137 1.486 . S
C139 H143 0.960 . S
C139 H144 0.960 . S
C139 H145 0.959 . S
H140 C136 0.960 . S
H141 C136 0.961 . S
H142 C136 0.960 . S
H143 C139 0.960 . S
H144 C139 0.960 . S
H145 C139 0.959 . S
C146 N147 1.317 . S
C146 N148 1.348 1_455 S
C146 C149 1.485 . S
N147 C146 1.317 . S
N147 N151 1.370 . S
N148 C146 1.348 1_655 S
N148 C150 1.346 . S
C149 C146 1.485 . S
C149 H153 0.960 . S
C149 H154 0.961 1_455 S
C149 H155 0.960 . S
C150 N148 1.346 . S
C150 N151 1.307 1_655 S
C150 C152 1.486 . S
N151 N147 1.370 . S
N151 C150 1.307 1_455 S
C152 C150 1.486 . S
C152 H156 0.960 . S
C152 H157 0.960 . S
C152 H158 0.959 . S
H153 C149 0.960 . S
H154 C149 0.961 1_655 S
H155 C149 0.960 . S
H156 C152 0.960 . S
H157 C152 0.960 . S
H158 C152 0.959 . S
C159 N160 1.317 . S
C159 N161 1.348 . S
C159 C162 1.485 . S
N160 C159 1.317 . S
N160 N164 1.370 . S
N161 C159 1.348 . S
N161 C163 1.346 . S
C162 C159 1.485 . S
C162 H166 0.960 . S
C162 H167 0.961 . S
C162 H168 0.960 . S
C163 N161 1.346 . S
C163 N164 1.307 . S
C163 C165 1.486 . S
N164 N160 1.370 . S
N164 C163 1.307 . S
C165 C163 1.486 . S
C165 H169 0.960 . S
C165 H170 0.960 . S
C165 H171 0.959 . S
H166 C162 0.960 . S
H167 C162 0.961 . S
H168 C162 0.960 . S
H169 C165 0.960 . S
H170 C165 0.960 . S
H171 C165 0.959 . S
C172 N173 1.317 . S
C172 N174 1.348 . S
C172 C175 1.485 . S
N173 C172 1.317 . S
N173 N177 1.370 . S
N174 C172 1.348 . S
N174 C176 1.346 . S
C175 C172 1.485 . S
C175 H179 0.960 . S
C175 H180 0.961 . S
C175 H181 0.960 1_545 S
C176 N174 1.346 . S
C176 N177 1.307 . S
C176 C178 1.486 . S
N177 N173 1.370 . S
N177 C176 1.307 . S
C178 C176 1.486 . S
C178 H182 0.960 . S
C178 H183 0.960 . S
C178 H184 0.959 . S
H179 C175 0.960 . S
H180 C175 0.961 . S
H181 C175 0.960 1_565 S
H182 C178 0.960 . S
H183 C178 0.960 . S
H184 C178 0.959 . S
C185 N186 1.317 . S
C185 N187 1.348 . S
C185 C188 1.485 . S
N186 C185 1.317 . S
N186 N190 1.370 . S
N187 C185 1.348 . S
N187 C189 1.346 . S
C188 C185 1.485 . S
C188 H192 0.960 . S
C188 H193 0.961 . S
C188 H194 0.960 . S
C189 N187 1.346 . S
C189 N190 1.307 . S
C189 C191 1.486 . S
N190 N186 1.370 . S
N190 C189 1.307 . S
C191 C189 1.486 . S
C191 H195 0.960 . S
C191 H196 0.960 . S
C191 H197 0.959 . S
H192 C188 0.960 . S
H193 C188 0.961 . S
H194 C188 0.960 . S
H195 C191 0.960 . S
H196 C191 0.960 . S
H197 C191 0.959 . S
C198 C199 1.391 . S
C198 C200 1.394 . S
C198 H214 0.931 . S
C199 C198 1.391 . S
C199 C203 1.376 . S
C200 C198 1.394 . S
C200 C201 1.369 . S
C200 C204 1.531 . S
C201 C200 1.369 . S
C201 C202 1.410 . S
C201 C209 1.503 . S
C202 C201 1.410 . S
C202 C203 1.392 . S
C202 C205 1.511 . S
C203 C199 1.376 . S
C203 C202 1.392 . S
C203 H215 0.929 . S
C204 C200 1.531 . S
C204 H216 0.960 . S
C204 H217 0.962 . S
C204 H218 0.960 . S
C205 C202 1.511 . S
C205 H219 0.961 . S
C205 H220 0.961 . S
C205 H221 0.961 . S
C206 C207 1.370 . S
C206 C208 1.363 . S
C206 H222 0.931 . S
C207 C206 1.370 . S
C207 C211 1.408 . S
C208 C206 1.363 . S
C208 C209 1.370 . S
C208 C212 1.524 . S
C209 C201 1.503 . S
C209 C208 1.370 . S
C209 C210 1.403 . S
C210 C209 1.403 . S
C210 C211 1.404 . S
C210 C213 1.539 . S
C211 C207 1.408 . S
C211 C210 1.404 . S
C211 H223 0.930 . S
C212 C208 1.524 . S
C212 H224 0.956 . S
C212 H225 0.961 . S
C212 H226 0.961 . S
C213 C210 1.539 . S
C213 H227 0.958 . S
C213 H228 0.961 . S
C213 H229 0.960 . S
H214 C198 0.931 . S
H215 C203 0.929 . S
H216 C204 0.960 . S
H217 C204 0.962 . S
H218 C204 0.960 . S
H219 C205 0.961 . S
H220 C205 0.961 . S
H221 C205 0.961 . S
H222 C206 0.931 . S
H223 C211 0.930 . S
H224 C212 0.956 . S
H225 C212 0.961 . S
H226 C212 0.961 . S
H227 C213 0.958 . S
H228 C213 0.961 . S
H229 C213 0.960 . S
C230 C231 1.391 . S
C230 C232 1.394 . S
C230 H246 0.931 . S
C231 C230 1.391 . S
C231 C235 1.376 . S
C232 C230 1.394 . S
C232 C233 1.369 . S
C232 C236 1.531 . S
C233 C232 1.369 . S
C233 C234 1.410 . S
C233 C241 1.503 . S
C234 C233 1.410 . S
C234 C235 1.392 . S
C234 C237 1.511 . S
C235 C231 1.376 . S
C235 C234 1.392 . S
C235 H247 0.929 . S
C236 C232 1.531 . S
C236 H248 0.960 . S
C236 H249 0.962 . S
C236 H250 0.960 . S
C237 C234 1.511 . S
C237 H251 0.961 . S
C237 H252 0.961 . S
C237 H253 0.961 . S
C238 C239 1.370 . S
C238 C240 1.363 . S
C238 H254 0.931 . S
C239 C238 1.370 . S
C239 C243 1.408 1_655 S
C240 C238 1.363 . S
C240 C241 1.370 . S
C240 C244 1.524 . S
C241 C233 1.503 . S
C241 C240 1.370 . S
C241 C242 1.403 . S
C242 C241 1.403 . S
C242 C243 1.404 1_655 S
C242 C245 1.539 . S
C243 C239 1.408 1_455 S
C243 C242 1.404 1_455 S
C243 H255 0.930 . S
C244 C240 1.524 . S
C244 H256 0.956 . S
C244 H257 0.961 . S
C244 H258 0.961 . S
C245 C242 1.539 . S
C245 H259 0.958 . S
C245 H260 0.961 1_655 S
C245 H261 0.960 . S
H246 C230 0.931 . S
H247 C235 0.929 . S
H248 C236 0.960 . S
H249 C236 0.962 . S
H250 C236 0.960 . S
H251 C237 0.961 . S
H252 C237 0.961 . S
H253 C237 0.961 . S
H254 C238 0.931 . S
H255 C243 0.930 . S
H256 C244 0.956 . S
H257 C244 0.961 . S
H258 C244 0.961 . S
H259 C245 0.958 . S
H260 C245 0.961 1_455 S
H261 C245 0.960 . S
C262 C263 1.391 . S
C262 C264 1.394 . S
C262 H278 0.931 . S
C263 C262 1.391 . S
C263 C267 1.376 . S
C264 C262 1.394 . S
C264 C265 1.369 . S
C264 C268 1.531 . S
C265 C264 1.369 . S
C265 C266 1.410 . S
C265 C273 1.503 . S
C266 C265 1.410 . S
C266 C267 1.392 . S
C266 C269 1.511 . S
C267 C263 1.376 . S
C267 C266 1.392 . S
C267 H279 0.929 . S
C268 C264 1.531 . S
C268 H280 0.960 . S
C268 H281 0.962 . S
C268 H282 0.960 . S
C269 C266 1.511 . S
C269 H283 0.961 . S
C269 H284 0.961 . S
C269 H285 0.961 . S
C270 C271 1.370 . S
C270 C272 1.363 . S
C270 H286 0.931 . S
C271 C270 1.370 . S
C271 C275 1.408 . S
C272 C270 1.363 . S
C272 C273 1.370 . S
C272 C276 1.524 . S
C273 C265 1.503 . S
C273 C272 1.370 . S
C273 C274 1.403 . S
C274 C273 1.403 . S
C274 C275 1.404 . S
C274 C277 1.539 . S
C275 C271 1.408 . S
C275 C274 1.404 . S
C275 H287 0.930 . S
C276 C272 1.524 . S
C276 H288 0.956 . S
C276 H289 0.961 . S
C276 H290 0.961 . S
C277 C274 1.539 . S
C277 H291 0.958 . S
C277 H292 0.961 . S
C277 H293 0.960 . S
H278 C262 0.931 . S
H279 C267 0.929 . S
H280 C268 0.960 . S
H281 C268 0.962 . S
H282 C268 0.960 . S
H283 C269 0.961 . S
H284 C269 0.961 . S
H285 C269 0.961 . S
H286 C270 0.931 . S
H287 C275 0.930 . S
H288 C276 0.956 . S
H289 C276 0.961 . S
H290 C276 0.961 . S
H291 C277 0.958 . S
H292 C277 0.961 . S
H293 C277 0.960 . S
C294 C295 1.391 . S
C294 C296 1.394 . S
C294 H310 0.931 . S
C295 C294 1.391 . S
C295 C299 1.376 . S
C296 C294 1.394 . S
C296 C297 1.369 . S
C296 C300 1.531 . S
C297 C296 1.369 . S
C297 C298 1.410 . S
C297 C305 1.503 . S
C298 C297 1.410 . S
C298 C299 1.392 . S
C298 C301 1.511 . S
C299 C295 1.376 . S
C299 C298 1.392 . S
C299 H311 0.929 . S
C300 C296 1.531 . S
C300 H312 0.960 . S
C300 H313 0.962 . S
C300 H314 0.960 . S
C301 C298 1.511 . S
C301 H315 0.961 . S
C301 H316 0.961 . S
C301 H317 0.961 . S
C302 C303 1.370 . S
C302 C304 1.363 . S
C302 H318 0.931 . S
C303 C302 1.370 . S
C303 C307 1.408 . S
C304 C302 1.363 . S
C304 C305 1.370 . S
C304 C308 1.524 . S
C305 C297 1.503 . S
C305 C304 1.370 . S
C305 C306 1.403 . S
C306 C305 1.403 . S
C306 C307 1.404 . S
C306 C309 1.539 . S
C307 C303 1.408 . S
C307 C306 1.404 . S
C307 H319 0.930 . S
C308 C304 1.524 . S
C308 H320 0.956 . S
C308 H321 0.961 . S
C308 H322 0.961 . S
C309 C306 1.539 . S
C309 H323 0.958 . S
C309 H324 0.961 . S
C309 H325 0.960 . S
H310 C294 0.931 . S
H311 C299 0.929 . S
H312 C300 0.960 . S
H313 C300 0.962 . S
H314 C300 0.960 . S
H315 C301 0.961 . S
H316 C301 0.961 . S
H317 C301 0.961 . S
H318 C302 0.931 . S
H319 C307 0.930 . S
H320 C308 0.956 . S
H321 C308 0.961 . S
H322 C308 0.961 . S
H323 C309 0.958 . S
H324 C309 0.961 . S
H325 C309 0.960 . S
C326 C327 1.391 . S
C326 C328 1.394 . S
C326 H342 0.931 . S
C327 C326 1.391 . S
C327 C331 1.376 . S
C328 C326 1.394 . S
C328 C329 1.369 . S
C328 C332 1.531 . S
C329 C328 1.369 . S
C329 C330 1.410 . S
C329 C337 1.503 . S
C330 C329 1.410 . S
C330 C331 1.392 . S
C330 C333 1.511 . S
C331 C327 1.376 . S
C331 C330 1.392 . S
C331 H343 0.929 . S
C332 C328 1.531 . S
C332 H344 0.960 . S
C332 H345 0.962 . S
C332 H346 0.960 . S
C333 C330 1.511 . S
C333 H347 0.961 . S
C333 H348 0.961 . S
C333 H349 0.961 . S
C334 C335 1.370 . S
C334 C336 1.363 . S
C334 H350 0.931 . S
C335 C334 1.370 . S
C335 C339 1.408 . S
C336 C334 1.363 . S
C336 C337 1.370 . S
C336 C340 1.524 . S
C337 C329 1.503 . S
C337 C336 1.370 . S
C337 C338 1.403 . S
C338 C337 1.403 . S
C338 C339 1.404 . S
C338 C341 1.539 . S
C339 C335 1.408 . S
C339 C338 1.404 . S
C339 H351 0.930 . S
C340 C336 1.524 . S
C340 H352 0.956 . S
C340 H353 0.961 . S
C340 H354 0.961 . S
C341 C338 1.539 . S
C341 H355 0.958 . S
C341 H356 0.961 . S
C341 H357 0.960 . S
H342 C326 0.931 . S
H343 C331 0.929 . S
H344 C332 0.960 . S
H345 C332 0.962 . S
H346 C332 0.960 . S
H347 C333 0.961 . S
H348 C333 0.961 . S
H349 C333 0.961 . S
H350 C334 0.931 . S
H351 C339 0.930 . S
H352 C340 0.956 . S
H353 C340 0.961 . S
H354 C340 0.961 . S
H355 C341 0.958 . S
H356 C341 0.961 . S
H357 C341 0.960 . S
C358 C359 1.391 . S
C358 C360 1.394 . S
C358 H374 0.931 . S
C359 C358 1.391 . S
C359 C363 1.376 . S
C360 C358 1.394 . S
C360 C361 1.369 . S
C360 C364 1.531 . S
C361 C360 1.369 . S
C361 C362 1.410 . S
C361 C369 1.503 . S
C362 C361 1.410 . S
C362 C363 1.392 . S
C362 C365 1.511 . S
C363 C359 1.376 . S
C363 C362 1.392 . S
C363 H375 0.929 . S
C364 C360 1.531 . S
C364 H376 0.960 . S
C364 H377 0.962 . S
C364 H378 0.960 . S
C365 C362 1.511 . S
C365 H379 0.961 . S
C365 H380 0.961 . S
C365 H381 0.961 . S
C366 C367 1.370 . S
C366 C368 1.363 . S
C366 H382 0.931 . S
C367 C366 1.370 . S
C367 C371 1.408 . S
C368 C366 1.363 . S
C368 C369 1.370 . S
C368 C372 1.524 . S
C369 C361 1.503 . S
C369 C368 1.370 . S
C369 C370 1.403 . S
C370 C369 1.403 . S
C370 C371 1.404 . S
C370 C373 1.539 . S
C371 C367 1.408 . S
C371 C370 1.404 . S
C371 H383 0.930 . S
C372 C368 1.524 . S
C372 H384 0.956 . S
C372 H385 0.961 . S
C372 H386 0.961 . S
C373 C370 1.539 . S
C373 H387 0.958 . S
C373 H388 0.961 . S
C373 H389 0.960 . S
H374 C358 0.931 . S
H375 C363 0.929 . S
H376 C364 0.960 . S
H377 C364 0.962 . S
H378 C364 0.960 . S
H379 C365 0.961 . S
H380 C365 0.961 . S
H381 C365 0.961 . S
H382 C366 0.931 . S
H383 C371 0.930 . S
H384 C372 0.956 . S
H385 C372 0.961 . S
H386 C372 0.961 . S
H387 C373 0.958 . S
H388 C373 0.961 . S
H389 C373 0.960 . S
C390 C391 1.391 . S
C390 C392 1.394 . S
C390 H406 0.931 . S
C391 C390 1.391 . S
C391 C395 1.376 . S
C392 C390 1.394 . S
C392 C393 1.369 . S
C392 C396 1.531 . S
C393 C392 1.369 . S
C393 C394 1.410 . S
C393 C401 1.503 . S
C394 C393 1.410 . S
C394 C395 1.392 . S
C394 C397 1.511 . S
C395 C391 1.376 . S
C395 C394 1.392 . S
C395 H407 0.929 . S
C396 C392 1.531 . S
C396 H408 0.960 . S
C396 H409 0.962 . S
C396 H410 0.960 . S
C397 C394 1.511 . S
C397 H411 0.961 . S
C397 H412 0.961 . S
C397 H413 0.961 . S
C398 C399 1.370 . S
C398 C400 1.363 . S
C398 H414 0.931 . S
C399 C398 1.370 . S
C399 C403 1.408 . S
C400 C398 1.363 . S
C400 C401 1.370 . S
C400 C404 1.524 . S
C401 C393 1.503 . S
C401 C400 1.370 . S
C401 C402 1.403 . S
C402 C401 1.403 . S
C402 C403 1.404 . S
C402 C405 1.539 . S
C403 C399 1.408 . S
C403 C402 1.404 . S
C403 H415 0.930 . S
C404 C400 1.524 . S
C404 H416 0.956 . S
C404 H417 0.961 . S
C404 H418 0.961 . S
C405 C402 1.539 . S
C405 H419 0.958 . S
C405 H420 0.961 . S
C405 H421 0.960 . S
H406 C390 0.931 . S
H407 C395 0.929 . S
H408 C396 0.960 . S
H409 C396 0.962 . S
H410 C396 0.960 . S
H411 C397 0.961 . S
H412 C397 0.961 . S
H413 C397 0.961 . S
H414 C398 0.931 . S
H415 C403 0.930 . S
H416 C404 0.956 . S
H417 C404 0.961 . S
H418 C404 0.961 . S
H419 C405 0.958 . S
H420 C405 0.961 . S
H421 C405 0.960 . S
C422 C423 1.391 . S
C422 C424 1.394 . S
C422 H438 0.931 . S
C423 C422 1.391 . S
C423 C427 1.376 . S
C424 C422 1.394 . S
C424 C425 1.369 . S
C424 C428 1.531 . S
C425 C424 1.369 . S
C425 C426 1.410 . S
C425 C433 1.503 . S
C426 C425 1.410 . S
C426 C427 1.392 . S
C426 C429 1.511 . S
C427 C423 1.376 . S
C427 C426 1.392 . S
C427 H439 0.929 . S
C428 C424 1.531 . S
C428 H440 0.960 . S
C428 H441 0.962 . S
C428 H442 0.960 . S
C429 C426 1.511 . S
C429 H443 0.961 . S
C429 H444 0.961 . S
C429 H445 0.961 . S
C430 C431 1.370 . S
C430 C432 1.363 . S
C430 H446 0.931 . S
C431 C430 1.370 . S
C431 C435 1.408 . S
C432 C430 1.363 . S
C432 C433 1.370 . S
C432 C436 1.524 . S
C433 C425 1.503 . S
C433 C432 1.370 . S
C433 C434 1.403 . S
C434 C433 1.403 . S
C434 C435 1.404 . S
C434 C437 1.539 . S
C435 C431 1.408 . S
C435 C434 1.404 . S
C435 H447 0.930 . S
C436 C432 1.524 . S
C436 H448 0.956 . S
C436 H449 0.961 . S
C436 H450 0.961 . S
C437 C434 1.539 . S
C437 H451 0.958 . S
C437 H452 0.961 . S
C437 H453 0.960 . S
H438 C422 0.931 . S
H439 C427 0.929 . S
H440 C428 0.960 . S
H441 C428 0.962 . S
H442 C428 0.960 . S
H443 C429 0.961 . S
H444 C429 0.961 . S
H445 C429 0.961 . S
H446 C430 0.931 . S
H447 C435 0.930 . S
H448 C436 0.956 . S
H449 C436 0.961 . S
H450 C436 0.961 . S
H451 C437 0.958 . S
H452 C437 0.961 . S
H453 C437 0.960 . S
C454 C455 1.391 . S
C454 C456 1.394 . S
C454 H470 0.931 . S
C455 C454 1.391 . S
C455 C459 1.376 . S
C456 C454 1.394 . S
C456 C457 1.369 . S
C456 C460 1.531 . S
C457 C456 1.369 . S
C457 C458 1.410 . S
C457 C465 1.503 . S
C458 C457 1.410 . S
C458 C459 1.392 . S
C458 C461 1.511 . S
C459 C455 1.376 . S
C459 C458 1.392 . S
C459 H471 0.929 . S
C460 C456 1.531 . S
C460 H472 0.960 . S
C460 H473 0.962 . S
C460 H474 0.960 . S
C461 C458 1.511 . S
C461 H475 0.961 . S
C461 H476 0.961 . S
C461 H477 0.961 . S
C462 C463 1.370 . S
C462 C464 1.363 . S
C462 H478 0.931 . S
C463 C462 1.370 . S
C463 C467 1.408 . S
C464 C462 1.363 . S
C464 C465 1.370 . S
C464 C468 1.524 . S
C465 C457 1.503 . S
C465 C464 1.370 . S
C465 C466 1.403 . S
C466 C465 1.403 . S
C466 C467 1.404 . S
C466 C469 1.539 . S
C467 C463 1.408 . S
C467 C466 1.404 . S
C467 H479 0.930 . S
C468 C464 1.524 . S
C468 H480 0.956 . S
C468 H481 0.961 . S
C468 H482 0.961 . S
C469 C466 1.539 . S
C469 H483 0.958 . S
C469 H484 0.961 . S
C469 H485 0.960 . S
H470 C454 0.931 . S
H471 C459 0.929 . S
H472 C460 0.960 . S
H473 C460 0.962 . S
H474 C460 0.960 . S
H475 C461 0.961 . S
H476 C461 0.961 . S
H477 C461 0.961 . S
H478 C462 0.931 . S
H479 C467 0.930 . S
H480 C468 0.956 . S
H481 C468 0.961 . S
H482 C468 0.961 . S
H483 C469 0.958 . S
H484 C469 0.961 . S
H485 C469 0.960 . S
C486 C487 1.391 . S
C486 C488 1.394 . S
C486 H502 0.931 . S
C487 C486 1.391 . S
C487 C491 1.376 . S
C488 C486 1.394 . S
C488 C489 1.369 . S
C488 C492 1.531 . S
C489 C488 1.369 . S
C489 C490 1.410 . S
C489 C497 1.503 . S
C490 C489 1.410 . S
C490 C491 1.392 . S
C490 C493 1.511 . S
C491 C487 1.376 . S
C491 C490 1.392 . S
C491 H503 0.929 . S
C492 C488 1.531 . S
C492 H504 0.960 . S
C492 H505 0.962 . S
C492 H506 0.960 . S
C493 C490 1.511 . S
C493 H507 0.961 . S
C493 H508 0.961 . S
C493 H509 0.961 . S
C494 C495 1.370 . S
C494 C496 1.363 . S
C494 H510 0.931 . S
C495 C494 1.370 . S
C495 C499 1.408 . S
C496 C494 1.363 . S
C496 C497 1.370 . S
C496 C500 1.524 . S
C497 C489 1.503 . S
C497 C496 1.370 . S
C497 C498 1.403 . S
C498 C497 1.403 . S
C498 C499 1.404 . S
C498 C501 1.539 . S
C499 C495 1.408 . S
C499 C498 1.404 . S
C499 H511 0.930 . S
C500 C496 1.524 . S
C500 H512 0.956 . S
C500 H513 0.961 . S
C500 H514 0.961 . S
C501 C498 1.539 . S
C501 H515 0.958 . S
C501 H516 0.961 . S
C501 H517 0.960 . S
H502 C486 0.931 . S
H503 C491 0.929 . S
H504 C492 0.960 . S
H505 C492 0.962 . S
H506 C492 0.960 . S
H507 C493 0.961 . S
H508 C493 0.961 . S
H509 C493 0.961 . S
H510 C494 0.931 . S
H511 C499 0.930 . S
H512 C500 0.956 . S
H513 C500 0.961 . S
H514 C500 0.961 . S
H515 C501 0.958 . S
H516 C501 0.961 . S
H517 C501 0.960 . S
C518 C519 1.391 . S
C518 C520 1.394 . S
C518 H534 0.931 . S
C519 C518 1.391 . S
C519 C523 1.376 . S
C520 C518 1.394 . S
C520 C521 1.369 . S
C520 C524 1.531 . S
C521 C520 1.369 . S
C521 C522 1.410 . S
C521 C529 1.503 . S
C522 C521 1.410 . S
C522 C523 1.392 . S
C522 C525 1.511 . S
C523 C519 1.376 . S
C523 C522 1.392 . S
C523 H535 0.929 . S
C524 C520 1.531 . S
C524 H536 0.960 . S
C524 H537 0.962 . S
C524 H538 0.960 . S
C525 C522 1.511 . S
C525 H539 0.961 . S
C525 H540 0.961 . S
C525 H541 0.961 . S
C526 C527 1.370 . S
C526 C528 1.363 . S
C526 H542 0.931 . S
C527 C526 1.370 . S
C527 C531 1.408 . S
C528 C526 1.363 . S
C528 C529 1.370 . S
C528 C532 1.524 . S
C529 C521 1.503 . S
C529 C528 1.370 . S
C529 C530 1.403 . S
C530 C529 1.403 . S
C530 C531 1.404 . S
C530 C533 1.539 . S
C531 C527 1.408 . S
C531 C530 1.404 . S
C531 H543 0.930 . S
C532 C528 1.524 . S
C532 H544 0.956 . S
C532 H545 0.961 . S
C532 H546 0.961 . S
C533 C530 1.539 . S
C533 H547 0.958 . S
C533 H548 0.961 . S
C533 H549 0.960 . S
H534 C518 0.931 . S
H535 C523 0.929 . S
H536 C524 0.960 . S
H537 C524 0.962 . S
H538 C524 0.960 . S
H539 C525 0.961 . S
H540 C525 0.961 . S
H541 C525 0.961 . S
H542 C526 0.931 . S
H543 C531 0.930 . S
H544 C532 0.956 . S
H545 C532 0.961 . S
H546 C532 0.961 . S
H547 C533 0.958 . S
H548 C533 0.961 . S
H549 C533 0.960 . S
C550 C551 1.391 . S
C550 C552 1.394 . S
C550 H566 0.931 . S
C551 C550 1.391 . S
C551 C555 1.376 . S
C552 C550 1.394 . S
C552 C553 1.369 . S
C552 C556 1.531 . S
C553 C552 1.369 . S
C553 C554 1.410 . S
C553 C561 1.503 . S
C554 C553 1.410 . S
C554 C555 1.392 . S
C554 C557 1.511 . S
C555 C551 1.376 . S
C555 C554 1.392 . S
C555 H567 0.929 . S
C556 C552 1.531 . S
C556 H568 0.960 . S
C556 H569 0.962 . S
C556 H570 0.960 . S
C557 C554 1.511 . S
C557 H571 0.961 . S
C557 H572 0.961 . S
C557 H573 0.961 . S
C558 C559 1.370 . S
C558 C560 1.363 . S
C558 H574 0.931 . S
C559 C558 1.370 . S
C559 C563 1.408 . S
C560 C558 1.363 . S
C560 C561 1.370 . S
C560 C564 1.524 . S
C561 C553 1.503 . S
C561 C560 1.370 . S
C561 C562 1.403 . S
C562 C561 1.403 . S
C562 C563 1.404 . S
C562 C565 1.539 . S
C563 C559 1.408 . S
C563 C562 1.404 . S
C563 H575 0.930 . S
C564 C560 1.524 . S
C564 H576 0.956 . S
C564 H577 0.961 . S
C564 H578 0.961 . S
C565 C562 1.539 . S
C565 H579 0.958 . S
C565 H580 0.961 . S
C565 H581 0.960 . S
H566 C550 0.931 . S
H567 C555 0.929 . S
H568 C556 0.960 . S
H569 C556 0.962 . S
H570 C556 0.960 . S
H571 C557 0.961 . S
H572 C557 0.961 . S
H573 C557 0.961 . S
H574 C558 0.931 . S
H575 C563 0.930 . S
H576 C564 0.956 . S
H577 C564 0.961 . S
H578 C564 0.961 . S
H579 C565 0.958 . S
H580 C565 0.961 . S
H581 C565 0.960 . S
C582 C583 1.391 . S
C582 C584 1.394 . S
C582 H598 0.931 . S
C583 C582 1.391 . S
C583 C587 1.376 1_455 S
C584 C582 1.394 . S
C584 C585 1.369 . S
C584 C588 1.531 . S
C585 C584 1.369 . S
C585 C586 1.410 1_455 S
C585 C593 1.503 1_554 S
C586 C585 1.410 1_655 S
C586 C587 1.392 . S
C586 C589 1.511 . S
C587 C583 1.376 1_655 S
C587 C586 1.392 . S
C587 H599 0.929 . S
C588 C584 1.531 . S
C588 H600 0.960 . S
C588 H601 0.962 . S
C588 H602 0.960 . S
C589 C586 1.511 . S
C589 H603 0.961 . S
C589 H604 0.961 . S
C589 H605 0.961 . S
C590 C591 1.370 . S
C590 C592 1.363 . S
C590 H606 0.931 . S
C591 C590 1.370 . S
C591 C595 1.408 1_455 S
C592 C590 1.363 . S
C592 C593 1.370 . S
C592 C596 1.524 1_556 S
C593 C585 1.503 1_556 S
C593 C592 1.370 . S
C593 C594 1.403 1_455 S
C594 C593 1.403 1_655 S
C594 C595 1.404 . S
C594 C597 1.539 . S
C595 C591 1.408 1_655 S
C595 C594 1.404 . S
C595 H607 0.930 . S
C596 C592 1.524 1_554 S
C596 H608 0.956 . S
C596 H609 0.961 . S
C596 H610 0.959 . S
C597 C594 1.539 . S
C597 H611 0.958 . S
C597 H612 0.961 . S
C597 H613 0.960 1_556 S
H598 C582 0.931 . S
H599 C587 0.929 . S
H600 C588 0.960 . S
H601 C588 0.962 . S
H602 C588 0.960 . S
H603 C589 0.961 . S
H604 C589 0.961 . S
H605 C589 0.961 . S
H606 C590 0.931 . S
H607 C595 0.930 . S
H608 C596 0.956 . S
H609 C596 0.961 . S
H610 C596 0.959 . S
H611 C597 0.958 . S
H612 C597 0.961 . S
H613 C597 0.960 1_554 S
C614 C615 1.391 1_565 S
C614 C616 1.394 . S
C614 H630 0.931 . S
C615 C614 1.391 1_545 S
C615 C619 1.376 . S
C616 C614 1.394 . S
C616 C617 1.369 1_565 S
C616 C620 1.531 . S
C617 C616 1.369 1_545 S
C617 C618 1.410 . S
C617 C625 1.503 . S
C618 C617 1.410 . S
C618 C619 1.392 . S
C618 C621 1.511 . S
C619 C615 1.376 . S
C619 C618 1.392 . S
C619 H631 0.929 . S
C620 C616 1.531 . S
C620 H632 0.960 . S
C620 H633 0.962 . S
C620 H634 0.960 . S
C621 C618 1.511 . S
C621 H635 0.961 . S
C621 H636 0.961 . S
C621 H637 0.961 . S
C622 C623 1.370 . S
C622 C624 1.363 . S
C622 H638 0.931 . S
C623 C622 1.370 . S
C623 C627 1.408 . S
C624 C622 1.363 . S
C624 C625 1.370 . S
C624 C628 1.524 . S
C625 C617 1.503 . S
C625 C624 1.370 . S
C625 C626 1.403 . S
C626 C625 1.403 . S
C626 C627 1.404 . S
C626 C629 1.539 . S
C627 C623 1.408 . S
C627 C626 1.404 . S
C627 H639 0.930 . S
C628 C624 1.524 . S
C628 H640 0.956 . S
C628 H641 0.961 . S
C628 H642 0.961 . S
C629 C626 1.539 . S
C629 H643 0.958 1_545 S
C629 H644 0.961 . S
C629 H645 0.960 . S
H630 C614 0.931 . S
H631 C619 0.929 . S
H632 C620 0.960 . S
H633 C620 0.962 . S
H634 C620 0.960 . S
H635 C621 0.961 . S
H636 C621 0.961 . S
H637 C621 0.961 . S
H638 C622 0.931 . S
H639 C627 0.930 . S
H640 C628 0.956 . S
H641 C628 0.961 . S
H642 C628 0.961 . S
H643 C629 0.958 1_565 S
H644 C629 0.961 . S
H645 C629 0.960 . S
C646 C647 1.391 . S
C646 C648 1.394 . S
C646 H662 0.931 . S
C647 C646 1.391 . S
C647 C651 1.376 . S
C648 C646 1.394 . S
C648 C649 1.369 . S
C648 C652 1.531 . S
C649 C648 1.369 . S
C649 C650 1.410 . S
C649 C657 1.503 . S
C650 C649 1.410 . S
C650 C651 1.392 . S
C650 C653 1.511 . S
C651 C647 1.376 . S
C651 C650 1.392 . S
C651 H663 0.929 . S
C652 C648 1.531 . S
C652 H664 0.960 . S
C652 H665 0.962 . S
C652 H666 0.960 . S
C653 C650 1.511 . S
C653 H667 0.961 . S
C653 H668 0.961 . S
C653 H669 0.961 . S
C654 C655 1.370 . S
C654 C656 1.363 . S
C654 H670 0.931 . S
C655 C654 1.370 . S
C655 C659 1.408 . S
C656 C654 1.363 . S
C656 C657 1.370 . S
C656 C660 1.524 . S
C657 C649 1.503 . S
C657 C656 1.370 . S
C657 C658 1.403 . S
C658 C657 1.403 . S
C658 C659 1.404 . S
C658 C661 1.539 . S
C659 C655 1.408 . S
C659 C658 1.404 . S
C659 H671 0.930 . S
C660 C656 1.524 . S
C660 H672 0.956 . S
C660 H673 0.961 . S
C660 H674 0.961 . S
C661 C658 1.539 . S
C661 H675 0.958 . S
C661 H676 0.961 . S
C661 H677 0.960 . S
H662 C646 0.931 . S
H663 C651 0.929 . S
H664 C652 0.960 . S
H665 C652 0.962 . S
H666 C652 0.960 . S
H667 C653 0.961 . S
H668 C653 0.961 . S
H669 C653 0.961 . S
H670 C654 0.931 . S
H671 C659 0.930 . S
H672 C660 0.956 . S
H673 C660 0.961 . S
H674 C660 0.961 . S
H675 C661 0.958 . S
H676 C661 0.961 . S
H677 C661 0.960 . S
C678 C679 1.391 1_565 S
C678 C680 1.394 . S
C678 H694 0.931 . S
C679 C678 1.391 1_545 S
C679 C683 1.376 . S
C680 C678 1.394 . S
C680 C681 1.369 1_565 S
C680 C684 1.531 . S
C681 C680 1.369 1_545 S
C681 C682 1.410 . S
C681 C689 1.503 . S
C682 C681 1.410 . S
C682 C683 1.392 . S
C682 C685 1.511 . S
C683 C679 1.376 . S
C683 C682 1.392 . S
C683 H695 0.929 . S
C684 C680 1.531 . S
C684 H696 0.960 . S
C684 H697 0.962 . S
C684 H698 0.960 . S
C685 C682 1.511 . S
C685 H699 0.961 . S
C685 H700 0.961 . S
C685 H701 0.961 . S
C686 C687 1.370 . S
C686 C688 1.363 . S
C686 H702 0.931 . S
C687 C686 1.370 . S
C687 C691 1.408 . S
C688 C686 1.363 . S
C688 C689 1.370 . S
C688 C692 1.524 . S
C689 C681 1.503 . S
C689 C688 1.370 . S
C689 C690 1.403 1_545 S
C690 C689 1.403 1_565 S
C690 C691 1.404 1_565 S
C690 C693 1.539 . S
C691 C687 1.408 . S
C691 C690 1.404 1_545 S
C691 H703 0.930 1_545 S
C692 C688 1.524 . S
C692 H704 0.956 . S
C692 H705 0.961 . S
C692 H706 0.961 . S
C693 C690 1.539 . S
C693 H707 0.958 . S
C693 H708 0.961 . S
C693 H709 0.960 . S
H694 C678 0.931 . S
H695 C683 0.929 . S
H696 C684 0.960 . S
H697 C684 0.962 . S
H698 C684 0.960 . S
H699 C685 0.961 . S
H700 C685 0.961 . S
H701 C685 0.961 . S
H702 C686 0.931 . S
H703 C691 0.930 1_565 S
H704 C692 0.956 . S
H705 C692 0.961 . S
H706 C692 0.961 . S
H707 C693 0.958 . S
H708 C693 0.961 . S
H709 C693 0.960 . S
C710 C711 1.391 . S
C710 C712 1.394 . S
C710 H726 0.931 . S
C711 C710 1.391 . S
C711 C715 1.376 . S
C712 C710 1.394 . S
C712 C713 1.369 . S
C712 C716 1.531 . S
C713 C712 1.369 . S
C713 C714 1.410 . S
C713 C721 1.503 1_556 S
C714 C713 1.410 . S
C714 C715 1.392 . S
C714 C717 1.511 . S
C715 C711 1.376 . S
C715 C714 1.392 . S
C715 H727 0.929 . S
C716 C712 1.531 . S
C716 H728 0.960 . S
C716 H729 0.962 . S
C716 H730 0.960 . S
C717 C714 1.511 . S
C717 H731 0.961 . S
C717 H732 0.961 . S
C717 H733 0.961 . S
C718 C719 1.370 . S
C718 C720 1.363 . S
C718 H734 0.931 . S
C719 C718 1.370 . S
C719 C723 1.408 . S
C720 C718 1.363 . S
C720 C721 1.370 . S
C720 C724 1.524 . S
C721 C713 1.503 1_554 S
C721 C720 1.370 . S
C721 C722 1.403 . S
C722 C721 1.403 . S
C722 C723 1.404 . S
C722 C725 1.539 . S
C723 C719 1.408 . S
C723 C722 1.404 . S
C723 H735 0.930 . S
C724 C720 1.524 . S
C724 H736 0.956 1_554 S
C724 H737 0.961 1_554 S
C724 H738 0.961 . S
C725 C722 1.539 . S
C725 H739 0.958 . S
C725 H740 0.961 . S
C725 H741 0.960 1_554 S
H726 C710 0.931 . S
H727 C715 0.929 . S
H728 C716 0.960 . S
H729 C716 0.962 . S
H730 C716 0.960 . S
H731 C717 0.961 . S
H732 C717 0.961 . S
H733 C717 0.961 . S
H734 C718 0.931 . S
H735 C723 0.930 . S
H736 C724 0.956 1_556 S
H737 C724 0.961 1_556 S
H738 C724 0.961 . S
H739 C725 0.958 . S
H740 C725 0.961 . S
H741 C725 0.960 1_556 S
C742 C743 1.391 1_655 S
C742 C744 1.394 . S
C742 H758 0.931 . S
C743 C742 1.391 1_455 S
C743 C747 1.376 . S
C744 C742 1.394 . S
C744 C745 1.369 1_655 S
C744 C748 1.531 . S
C745 C744 1.369 1_455 S
C745 C746 1.410 . S
C745 C753 1.503 . S
C746 C745 1.410 . S
C746 C747 1.392 . S
C746 C749 1.511 . S
C747 C743 1.376 . S
C747 C746 1.392 . S
C747 H759 0.929 . S
C748 C744 1.531 . S
C748 H760 0.960 . S
C748 H761 0.962 . S
C748 H762 0.960 . S
C749 C746 1.511 . S
C749 H763 0.961 . S
C749 H764 0.961 . S
C749 H765 0.961 . S
C750 C751 1.370 . S
C750 C752 1.363 . S
C750 H766 0.931 1_455 S
C751 C750 1.370 . S
C751 C755 1.408 . S
C752 C750 1.363 . S
C752 C753 1.370 . S
C752 C756 1.524 1_455 S
C753 C745 1.503 . S
C753 C752 1.370 . S
C753 C754 1.403 . S
C754 C753 1.403 . S
C754 C755 1.404 . S
C754 C757 1.539 . S
C755 C751 1.408 . S
C755 C754 1.404 . S
C755 H767 0.930 . S
C756 C752 1.524 1_655 S
C756 H768 0.956 . S
C756 H769 0.961 1_655 S
C756 H770 0.961 . S
C757 C754 1.539 . S
C757 H771 0.958 . S
C757 H772 0.961 . S
C757 H773 0.960 . S
H758 C742 0.931 . S
H759 C747 0.929 . S
H760 C748 0.960 . S
H761 C748 0.962 . S
H762 C748 0.960 . S
H763 C749 0.961 . S
H764 C749 0.961 . S
H765 C749 0.961 . S
H766 C750 0.931 1_655 S
H767 C755 0.930 . S
H768 C756 0.956 . S
H769 C756 0.961 1_455 S
H770 C756 0.961 . S
H771 C757 0.958 . S
H772 C757 0.961 . S
H773 C757 0.960 . S
C199 C24 2.721 . S
C207 N187 2.697 . S
C231 C66 1.129 . S
C239 N160 1.096 1_655 S
C263 C93 1.692 . S
C271 N173 1.708 1_565 S
C295 C13 3.303 . S
C303 N186 3.329 . S
C335 N161 1.342 . S
C327 C57 1.329 . S
C367 N174 1.952 . S
C359 C104 1.963 . S
C391 C64 1.811 . S
C399 N134 1.820 . S
C423 C97 0.379 . S
C431 N148 0.315 . S
C455 C17 1.323 . S
C463 N122 1.368 . S
C495 N135 1.834 . S
C487 C53 1.840 . S
C527 N147 0.526 . S
C519 C106 0.547 . S
C551 C26 1.102 . S
C559 N121 1.168 . S
C591 N151 1.211 . S
C583 C2 1.216 . S
C615 C63 1.485 . S
C623 N125 1.589 . S
C647 C82 1.424 . S
C655 N138 1.444 . S
C687 N177 1.549 . S
C679 C42 1.532 . S
C719 N190 1.734 . S
C711 C103 1.721 . S
C743 C23 1.521 . S
C751 N164 1.559 . S
