# Generated by pormake.
# Topology ptr, (4,4)-cn, num edge types: 1
# Building blocks:
#     Node 0, Type 0, BuildingBlock: QUQFOY_clean_sbu_1, # of connection points: 4
#     Node 1, Type 0, BuildingBlock: QUQFOY_clean_sbu_1, # of connection points: 4
#     Node 2, Type 0, BuildingBlock: QUQFOY_clean_sbu_1, # of connection points: 4
#     Node 3, Type 0, BuildingBlock: QUQFOY_clean_sbu_1, # of connection points: 4
#     Node 4, Type 0, BuildingBlock: QUQFOY_clean_sbu_1, # of connection points: 4
#     Node 5, Type 0, BuildingBlock: QUQFOY_clean_sbu_1, # of connection points: 4
#     Node 6, Type 0, BuildingBlock: QUQFOY_clean_sbu_1, # of connection points: 4
#     Node 7, Type 0, BuildingBlock: QUQFOY_clean_sbu_1, # of connection points: 4
#     Node 8, Type 0, BuildingBlock: QUQFOY_clean_sbu_1, # of connection points: 4
#     Node 9, Type 0, BuildingBlock: QUQFOY_clean_sbu_1, # of connection points: 4
#     Node 10, Type 0, BuildingBlock: QUQFOY_clean_sbu_1, # of connection points: 4
#     Node 11, Type 0, BuildingBlock: QUQFOY_clean_sbu_1, # of connection points: 4
#     Node 12, Type 0, BuildingBlock: QUQFOY_clean_sbu_1, # of connection points: 4
#     Node 13, Type 0, BuildingBlock: QUQFOY_clean_sbu_1, # of connection points: 4
#     Node 14, Type 0, BuildingBlock: QUQFOY_clean_sbu_1, # of connection points: 4
#     Node 15, Type 0, BuildingBlock: QUQFOY_clean_sbu_1, # of connection points: 4
#     Node 16, Type 0, BuildingBlock: QUQFOY_clean_sbu_1, # of connection points: 4
#     Node 17, Type 0, BuildingBlock: QUQFOY_clean_sbu_1, # of connection points: 4
#     Node 18, Type 1, BuildingBlock: AZAVOO_clean_linker_0, # of connection points: 4
#     Node 19, Type 1, BuildingBlock: AZAVOO_clean_linker_0, # of connection points: 4
#     Node 20, Type 1, BuildingBlock: AZAVOO_clean_linker_0, # of connection points: 4
#     Node 21, Type 1, BuildingBlock: AZAVOO_clean_linker_0, # of connection points: 4
#     Node 22, Type 1, BuildingBlock: AZAVOO_clean_linker_0, # of connection points: 4
#     Node 23, Type 1, BuildingBlock: AZAVOO_clean_linker_0, # of connection points: 4
#     Node 24, Type 1, BuildingBlock: AZAVOO_clean_linker_0, # of connection points: 4
#     Node 25, Type 1, BuildingBlock: AZAVOO_clean_linker_0, # of connection points: 4
#     Node 26, Type 1, BuildingBlock: AZAVOO_clean_linker_0, # of connection points: 4
#     Node 27, Type 1, BuildingBlock: AZAVOO_clean_linker_0, # of connection points: 4
#     Node 28, Type 1, BuildingBlock: AZAVOO_clean_linker_0, # of connection points: 4
#     Node 29, Type 1, BuildingBlock: AZAVOO_clean_linker_0, # of connection points: 4
#     Node 30, Type 1, BuildingBlock: AZAVOO_clean_linker_0, # of connection points: 4
#     Node 31, Type 1, BuildingBlock: AZAVOO_clean_linker_0, # of connection points: 4
#     Node 32, Type 1, BuildingBlock: AZAVOO_clean_linker_0, # of connection points: 4
#     Node 33, Type 1, BuildingBlock: AZAVOO_clean_linker_0, # of connection points: 4
#     Node 34, Type 1, BuildingBlock: AZAVOO_clean_linker_0, # of connection points: 4
#     Node 35, Type 1, BuildingBlock: AZAVOO_clean_linker_0, # of connection points: 4
#     Edge 36, Type (0, 1), BuildingBlock: KIFKEQ_clean_linker_1, # of connection points: 2
#     Edge 37, Type (0, 1), BuildingBlock: KIFKEQ_clean_linker_1, # of connection points: 2
#     Edge 38, Type (0, 1), BuildingBlock: KIFKEQ_clean_linker_1, # of connection points: 2
#     Edge 39, Type (0, 1), BuildingBlock: KIFKEQ_clean_linker_1, # of connection points: 2
#     Edge 40, Type (0, 1), BuildingBlock: KIFKEQ_clean_linker_1, # of connection points: 2
#     Edge 41, Type (0, 1), BuildingBlock: KIFKEQ_clean_linker_1, # of connection points: 2
#     Edge 42, Type (0, 1), BuildingBlock: KIFKEQ_clean_linker_1, # of connection points: 2
#     Edge 43, Type (0, 1), BuildingBlock: KIFKEQ_clean_linker_1, # of connection points: 2
#     Edge 44, Type (0, 1), BuildingBlock: KIFKEQ_clean_linker_1, # of connection points: 2
#     Edge 45, Type (0, 1), BuildingBlock: KIFKEQ_clean_linker_1, # of connection points: 2
#     Edge 46, Type (0, 1), BuildingBlock: KIFKEQ_clean_linker_1, # of connection points: 2
#     Edge 47, Type (0, 1), BuildingBlock: KIFKEQ_clean_linker_1, # of connection points: 2
#     Edge 48, Type (0, 1), BuildingBlock: KIFKEQ_clean_linker_1, # of connection points: 2
#     Edge 49, Type (0, 1), BuildingBlock: KIFKEQ_clean_linker_1, # of connection points: 2
#     Edge 50, Type (0, 1), BuildingBlock: KIFKEQ_clean_linker_1, # of connection points: 2
#     Edge 51, Type (0, 1), BuildingBlock: KIFKEQ_clean_linker_1, # of connection points: 2
#     Edge 52, Type (0, 1), BuildingBlock: KIFKEQ_clean_linker_1, # of connection points: 2
#     Edge 53, Type (0, 1), BuildingBlock: KIFKEQ_clean_linker_1, # of connection points: 2
#     Edge 54, Type (0, 1), BuildingBlock: KIFKEQ_clean_linker_1, # of connection points: 2
#     Edge 55, Type (0, 1), BuildingBlock: KIFKEQ_clean_linker_1, # of connection points: 2
#     Edge 56, Type (0, 1), BuildingBlock: KIFKEQ_clean_linker_1, # of connection points: 2
#     Edge 57, Type (0, 1), BuildingBlock: KIFKEQ_clean_linker_1, # of connection points: 2
#     Edge 58, Type (0, 1), BuildingBlock: KIFKEQ_clean_linker_1, # of connection points: 2
#     Edge 59, Type (0, 1), BuildingBlock: KIFKEQ_clean_linker_1, # of connection points: 2
#     Edge 60, Type (0, 1), BuildingBlock: KIFKEQ_clean_linker_1, # of connection points: 2
#     Edge 61, Type (0, 1), BuildingBlock: KIFKEQ_clean_linker_1, # of connection points: 2
#     Edge 62, Type (0, 1), BuildingBlock: KIFKEQ_clean_linker_1, # of connection points: 2
#     Edge 63, Type (0, 1), BuildingBlock: KIFKEQ_clean_linker_1, # of connection points: 2
#     Edge 64, Type (0, 1), BuildingBlock: KIFKEQ_clean_linker_1, # of connection points: 2
#     Edge 65, Type (0, 1), BuildingBlock: KIFKEQ_clean_linker_1, # of connection points: 2
#     Edge 66, Type (0, 1), BuildingBlock: KIFKEQ_clean_linker_1, # of connection points: 2
#     Edge 67, Type (0, 1), BuildingBlock: KIFKEQ_clean_linker_1, # of connection points: 2
#     Edge 68, Type (0, 1), BuildingBlock: KIFKEQ_clean_linker_1, # of connection points: 2
#     Edge 69, Type (0, 1), BuildingBlock: KIFKEQ_clean_linker_1, # of connection points: 2
#     Edge 70, Type (0, 1), BuildingBlock: KIFKEQ_clean_linker_1, # of connection points: 2
#     Edge 71, Type (0, 1), BuildingBlock: KIFKEQ_clean_linker_1, # of connection points: 2
#     Edge 72, Type (0, 1), BuildingBlock: KIFKEQ_clean_linker_1, # of connection points: 2
#     Edge 73, Type (0, 1), BuildingBlock: KIFKEQ_clean_linker_1, # of connection points: 2
#     Edge 74, Type (0, 1), BuildingBlock: KIFKEQ_clean_linker_1, # of connection points: 2
#     Edge 75, Type (0, 1), BuildingBlock: KIFKEQ_clean_linker_1, # of connection points: 2
#     Edge 76, Type (0, 1), BuildingBlock: KIFKEQ_clean_linker_1, # of connection points: 2
#     Edge 77, Type (0, 1), BuildingBlock: KIFKEQ_clean_linker_1, # of connection points: 2
#     Edge 78, Type (0, 1), BuildingBlock: KIFKEQ_clean_linker_1, # of connection points: 2
#     Edge 79, Type (0, 1), BuildingBlock: KIFKEQ_clean_linker_1, # of connection points: 2
#     Edge 80, Type (0, 1), BuildingBlock: KIFKEQ_clean_linker_1, # of connection points: 2
#     Edge 81, Type (0, 1), BuildingBlock: KIFKEQ_clean_linker_1, # of connection points: 2
#     Edge 82, Type (0, 1), BuildingBlock: KIFKEQ_clean_linker_1, # of connection points: 2
#     Edge 83, Type (0, 1), BuildingBlock: KIFKEQ_clean_linker_1, # of connection points: 2
#     Edge 84, Type (0, 1), BuildingBlock: KIFKEQ_clean_linker_1, # of connection points: 2
#     Edge 85, Type (0, 1), BuildingBlock: KIFKEQ_clean_linker_1, # of connection points: 2
#     Edge 86, Type (0, 1), BuildingBlock: KIFKEQ_clean_linker_1, # of connection points: 2
#     Edge 87, Type (0, 1), BuildingBlock: KIFKEQ_clean_linker_1, # of connection points: 2
#     Edge 88, Type (0, 1), BuildingBlock: KIFKEQ_clean_linker_1, # of connection points: 2
#     Edge 89, Type (0, 1), BuildingBlock: KIFKEQ_clean_linker_1, # of connection points: 2
#     Edge 90, Type (0, 1), BuildingBlock: KIFKEQ_clean_linker_1, # of connection points: 2
#     Edge 91, Type (0, 1), BuildingBlock: KIFKEQ_clean_linker_1, # of connection points: 2
#     Edge 92, Type (0, 1), BuildingBlock: KIFKEQ_clean_linker_1, # of connection points: 2
#     Edge 93, Type (0, 1), BuildingBlock: KIFKEQ_clean_linker_1, # of connection points: 2
#     Edge 94, Type (0, 1), BuildingBlock: KIFKEQ_clean_linker_1, # of connection points: 2
#     Edge 95, Type (0, 1), BuildingBlock: KIFKEQ_clean_linker_1, # of connection points: 2
#     Edge 96, Type (0, 1), BuildingBlock: KIFKEQ_clean_linker_1, # of connection points: 2
#     Edge 97, Type (0, 1), BuildingBlock: KIFKEQ_clean_linker_1, # of connection points: 2
#     Edge 98, Type (0, 1), BuildingBlock: KIFKEQ_clean_linker_1, # of connection points: 2
#     Edge 99, Type (0, 1), BuildingBlock: KIFKEQ_clean_linker_1, # of connection points: 2
#     Edge 100, Type (0, 1), BuildingBlock: KIFKEQ_clean_linker_1, # of connection points: 2
#     Edge 101, Type (0, 1), BuildingBlock: KIFKEQ_clean_linker_1, # of connection points: 2
#     Edge 102, Type (0, 1), BuildingBlock: KIFKEQ_clean_linker_1, # of connection points: 2
#     Edge 103, Type (0, 1), BuildingBlock: KIFKEQ_clean_linker_1, # of connection points: 2
#     Edge 104, Type (0, 1), BuildingBlock: KIFKEQ_clean_linker_1, # of connection points: 2
#     Edge 105, Type (0, 1), BuildingBlock: KIFKEQ_clean_linker_1, # of connection points: 2
#     Edge 106, Type (0, 1), BuildingBlock: KIFKEQ_clean_linker_1, # of connection points: 2
#     Edge 107, Type (0, 1), BuildingBlock: KIFKEQ_clean_linker_1, # of connection points: 2
# Relax obj value: 0.049
# Max RMSD: 0.181
# Mean RMSD: 0.121
data_MOF--net-ptr--node1-QUQFOY_clean_sbu_1--node2-AZAVOO_clean_linker_0--edge1-KIFKEQ_clean_linker_1
_symmetry_space_group_name_H-M    P1
_symmetry_Int_Tables_number       1
_symmetry_cell_setting            triclinic
loop_
_symmetry_equiv_pos_as_xyz
'x, y, z'
_cell_length_a     85.29009
_cell_length_b     83.707187
_cell_length_c     71.739003
_cell_angle_alpha  92.612292
_cell_angle_beta   92.08803
_cell_angle_gamma 120.05563
loop_
_atom_site_label
_atom_site_type_symbol
_atom_site_fract_x
_atom_site_fract_y
_atom_site_fract_z
_atom_type_partial_charge
O0 O 0.02108 0.39988 0.04874 0.0
Cd1 Cd 0.02937 0.3879 0.02861 0.0
Cd2 Cd 0.99308 0.36809 0.01943 0.0
O3 O 0.99158 0.38076 0.04426 0.0
O4 O 0.054 0.39383 0.03848 0.0
O5 O 0.03058 0.36528 0.03494 0.0
C6 C 0.04735 0.37645 0.04068 0.0
C7 C 0.97236 0.33674 0.01149 0.0
C8 C 0.00503 0.39439 0.05344 0.0
C9 C 0.01741 0.39428 0.99167 0.0
O10 O 1.00146 0.38389 0.9967 0.0
O11 O 0.03115 0.39707 1.00196 0.0
O12 O 0.9675 0.34904 0.01156 0.0
O13 O 0.98904 0.34212 0.01669 0.0
O14 O 0.60925 0.60628 0.08304 0.0
Cd15 Cd 0.61982 0.62353 0.06165 0.0
Cd16 Cd 0.63521 0.60263 0.05611 0.0
O17 O 0.62493 0.59192 0.08135 0.0
O18 O 0.61461 0.64374 0.06807 0.0
O19 O 0.64247 0.64837 0.06767 0.0
C20 C 0.63185 0.65488 0.0709 0.0
C21 C 0.66569 0.61609 0.04949 0.0
C22 C 0.61347 0.59489 0.08937 0.0
C23 C 0.60829 0.59959 0.02592 0.0
O24 O 0.61739 0.59269 0.03265 0.0
O25 O 0.60828 0.6131 0.03479 0.0
O26 O 0.6556 0.59841 0.05015 0.0
O27 O 0.65873 0.62628 0.05381 0.0
O28 O 0.40452 0.00867 0.99695 0.0
Cd29 Cd 0.395 0.01427 0.021 0.0
Cd30 Cd 0.37788 0.97709 0.02077 0.0
O31 O 0.38752 0.97824 0.99434 0.0
O32 O 0.39955 0.03991 0.0188 0.0
O33 O 0.372 0.01542 0.0183 0.0
C34 C 0.38219 0.03299 0.01691 0.0
C35 C 0.3474 0.96011 0.02743 0.0
C36 C 0.3993 0.99323 0.98789 0.0
C37 C 0.40551 0.99889 0.05278 0.0
O38 O 0.39571 0.98325 0.04377 0.0
O39 O 0.40648 0.01338 0.04668 0.0
O40 O 0.35667 0.95206 0.02409 0.0
O41 O 0.35517 0.97772 0.02573 0.0
O42 O 0.98859 0.60353 0.01961 0.0
Cd43 Cd 0.97976 0.61518 0.03955 0.0
Cd44 Cd 0.01541 0.63637 0.04796 0.0
O45 O 0.01747 0.62513 0.0225 0.0
O46 O 0.95499 0.60877 0.02961 0.0
O47 O 0.97811 0.63752 0.03319 0.0
C48 C 0.9614 0.62613 0.02742 0.0
C49 C 0.03335 0.66803 0.05649 0.0
C50 C 0.00454 0.61047 0.01407 0.0
C51 C 0.99295 0.60933 0.07586 0.0
O52 O 0.00861 0.61975 0.07013 0.0
O53 O 0.97882 0.60668 0.0664 0.0
O54 O 0.04029 0.65746 0.0553 0.0
O55 O 0.01618 0.66076 0.05213 0.0
O56 O 0.39425 0.39554 0.98412 0.0
Cd57 Cd 0.38489 0.37867 0.00614 0.0
Cd58 Cd 0.37033 0.40023 0.01329 0.0
O59 O 0.37994 0.41117 0.98809 0.0
O60 O 0.38966 0.35823 0.99936 0.0
O61 O 0.36198 0.35382 1.00122 0.0
C62 C 0.37236 0.34711 0.99756 0.0
C63 C 0.34026 0.38756 0.0211 0.0
C64 C 0.39035 0.40751 0.97884 0.0
C65 C 0.39799 0.40281 0.04204 0.0
O66 O 0.38889 0.40995 0.03598 0.0
O67 O 0.39745 0.38918 0.03279 0.0
O68 O 0.35075 0.40521 0.02059 0.0
O69 O 0.34655 0.37696 0.01595 0.0
O70 O 0.60242 0.99174 0.0723 0.0
Cd71 Cd 0.61059 0.98519 0.04782 0.0
Cd72 Cd 0.62865 0.02287 0.04653 0.0
O73 O 0.61875 0.02226 0.0728 0.0
O74 O 0.60755 0.95999 0.04991 0.0
O75 O 0.63428 0.98557 0.04997 0.0
C76 C 0.62503 0.96794 0.05146 0.0
C77 C 0.6592 0.03884 0.03988 0.0
C78 C 0.60763 0.00763 0.08032 0.0
C79 C 0.60014 1.00029 0.01543 0.0
O80 O 0.61106 0.01625 0.02329 0.0
O81 O 0.59821 0.9858 0.02254 0.0
O82 O 0.65051 0.04755 0.04299 0.0
O83 O 0.65085 0.02128 0.04187 0.0
O84 O 0.681 0.72937 0.38559 0.0
Cd85 Cd 0.69277 0.7219 0.365 0.0
Cd86 Cd 0.65693 0.70164 0.35035 0.0
O87 O 0.65245 0.71334 0.37424 0.0
O88 O 0.71714 0.72879 0.37653 0.0
O89 O 0.69583 0.69982 0.36869 0.0
C90 C 0.71186 0.7114 0.37621 0.0
C91 C 0.63652 0.67061 0.34059 0.0
C92 C 0.66438 0.72441 0.3868 0.0
C93 C 0.68469 0.73072 0.32706 0.0
O94 O 0.6684 0.71806 0.3286 0.0
O95 O 0.69688 0.73475 0.34008 0.0
O96 O 0.63219 0.68324 0.33935 0.0
O97 O 0.65242 0.67546 0.3481 0.0
O98 O 0.27467 0.93839 0.41584 0.0
Cd99 Cd 0.28536 0.9555 0.39433 0.0
Cd100 Cd 0.30023 0.93407 0.38876 0.0
O101 O 0.29003 0.92369 0.41414 0.0
O102 O 0.28077 0.97615 0.40076 0.0
O103 O 0.30837 0.9801 0.40024 0.0
C104 C 0.29807 0.98698 0.40353 0.0
C105 C 0.33055 0.9467 0.3818 0.0
C106 C 0.27875 0.92692 0.42222 0.0
C107 C 0.27343 0.93142 0.35863 0.0
O108 O 0.28228 0.92427 0.36541 0.0
O109 O 0.2737 0.9451 0.36745 0.0
O110 O 0.32012 0.92909 0.38267 0.0
O111 O 0.32404 0.9573 0.38613 0.0
O112 O 0.07331 0.3436 0.33264 0.0
Cd113 Cd 0.06403 0.35014 0.35632 0.0
Cd114 Cd 0.04595 0.31311 0.3571 0.0
O115 O 0.05533 0.31329 0.33071 0.0
O116 O 0.06964 0.3761 0.35386 0.0
O117 O 0.04163 0.3523 0.35288 0.0
C118 C 0.0524 0.3698 0.35158 0.0
C119 C 0.01543 0.29668 0.36375 0.0
C120 C 0.06752 0.32786 0.32397 0.0
C121 C 0.07404 0.33496 0.38865 0.0
O122 O 0.06383 0.3192 0.38004 0.0
O123 O 0.07532 0.34944 0.38216 0.0
O124 O 0.02449 0.28836 0.3607 0.0
O125 O 0.02345 0.31427 0.36187 0.0
O126 O 0.6546 0.93591 0.35502 0.0
Cd127 Cd 0.64439 0.94623 0.37474 0.0
Cd128 Cd 0.68045 0.96737 0.38539 0.0
O129 O 0.68374 0.95624 0.36046 0.0
O130 O 0.61992 0.93934 0.36348 0.0
O131 O 0.64216 0.96837 0.36882 0.0
C132 C 0.62586 0.95672 0.36199 0.0
C133 C 0.70044 0.99848 0.39521 0.0
C134 C 0.67094 0.94241 0.35082 0.0
C135 C 0.65534 0.93925 0.41164 0.0
O136 O 0.67134 0.95045 0.40727 0.0
O137 O 0.64171 0.93612 0.40096 0.0
O138 O 0.70545 0.9863 0.39521 0.0
O139 O 0.68409 0.99318 0.38876 0.0
O140 O 0.06307 0.7308 0.3177 0.0
Cd141 Cd 0.05319 0.71382 0.33959 0.0
Cd142 Cd 0.04027 0.73666 0.34769 0.0
O143 O 0.04965 0.74725 0.32231 0.0
O144 O 0.05603 0.69208 0.33282 0.0
O145 O 0.02926 0.69009 0.33437 0.0
C146 C 0.03858 0.68214 0.33086 0.0
C147 C 0.01067 0.72574 0.35637 0.0
C148 C 0.05959 0.74316 0.31273 0.0
C149 C 0.06765 0.73762 0.37566 0.0
O150 O 0.05925 0.74562 0.36996 0.0
O151 O 0.06612 0.72364 0.36618 0.0
O152 O 0.02196 0.74322 0.3558 0.0
O153 O 0.01586 0.71432 0.35077 0.0
O154 O 0.26971 0.32775 0.40689 0.0
Cd155 Cd 0.27784 0.32034 0.38269 0.0
Cd156 Cd 0.29342 0.35711 0.37947 0.0
O157 O 0.28477 0.35813 0.4059 0.0
O158 O 0.27337 0.29498 0.38664 0.0
O159 O 0.30083 0.31905 0.38481 0.0
C160 C 0.2907 0.30173 0.38753 0.0
C161 C 0.3235 0.37424 0.37154 0.0
C162 C 0.27437 0.34378 0.41418 0.0
C163 C 0.26458 0.33234 0.34973 0.0
O164 O 0.2744 0.34867 0.35725 0.0
O165 O 0.26466 0.3188 0.35703 0.0
O166 O 0.31372 0.38188 0.37387 0.0
O167 O 0.31648 0.357 0.37481 0.0
O168 O 0.34504 0.0632 0.71932 0.0
Cd169 Cd 0.35729 0.05575 0.69912 0.0
Cd170 Cd 0.32102 0.0351 0.68513 0.0
O171 O 0.31623 0.04607 0.70918 0.0
O172 O 0.38158 0.06437 0.71202 0.0
O173 O 0.3621 0.03487 0.70377 0.0
C174 C 0.37737 0.04729 0.71216 0.0
C175 C 0.3012 0.00396 0.6753 0.0
C176 C 0.32838 0.05772 0.72118 0.0
C177 C 0.34833 0.06431 0.66137 0.0
O178 O 0.332 0.05224 0.66384 0.0
O179 O 0.36104 0.06772 0.67359 0.0
O180 O 0.29638 0.01624 0.67429 0.0
O181 O 0.31734 0.00926 0.68239 0.0
O182 O 0.94347 0.27015 0.75078 0.0
Cd183 Cd 0.95332 0.28687 0.72886 0.0
Cd184 Cd 0.96875 0.26593 0.723 0.0
O185 O 0.95908 0.25573 0.74858 0.0
O186 O 0.9479 0.30699 0.73489 0.0
O187 O 0.97587 0.31196 0.73413 0.0
C188 C 0.96514 0.31836 0.73722 0.0
C189 C 0.99907 0.27924 0.71586 0.0
C190 C 0.94792 0.25889 0.75701 0.0
C191 C 0.94135 0.26247 0.69326 0.0
O192 O 0.95059 0.25564 0.6998 0.0
O193 O 0.94139 0.27596 0.7022 0.0
O194 O 0.98901 0.26159 0.71681 0.0
O195 O 0.99218 0.2895 0.72016 0.0
O196 O 0.73688 0.6724 0.66398 0.0
Cd197 Cd 0.72765 0.67885 0.68793 0.0
Cd198 Cd 0.71243 0.64226 0.68968 0.0
O199 O 0.72014 0.64199 0.66273 0.0
O200 O 0.73246 0.70443 0.68459 0.0
O201 O 0.7048 0.68033 0.68501 0.0
C202 C 0.71515 0.69775 0.68293 0.0
C203 C 0.6825 0.62589 0.69816 0.0
C204 C 0.7315 0.65665 0.6555 0.0
C205 C 0.74085 0.66593 0.71987 0.0
O206 O 0.73213 0.65002 0.71116 0.0
O207 O 0.73967 0.67941 0.71392 0.0
O208 O 0.69159 0.61764 0.69486 0.0
O209 O 0.69018 0.64337 0.69572 0.0
O210 O 0.32235 0.26696 0.68676 0.0
Cd211 Cd 0.31165 0.2772 0.70603 0.0
Cd212 Cd 0.34744 0.29879 0.71753 0.0
O213 O 0.35129 0.28774 0.69286 0.0
O214 O 0.28755 0.27089 0.6942 0.0
O215 O 0.31008 0.2997 0.70021 0.0
C216 C 0.29383 0.28837 0.69303 0.0
C217 C 0.3675 0.32982 0.7277 0.0
C218 C 0.33885 0.27377 0.68303 0.0
C219 C 0.32182 0.27045 0.74337 0.0
O220 O 0.33789 0.28187 0.73937 0.0
O221 O 0.30837 0.26704 0.73225 0.0
O222 O 0.37233 0.31751 0.72791 0.0
O223 O 0.35133 0.32471 0.72082 0.0
O224 O 0.73453 0.06192 0.65433 0.0
Cd225 Cd 0.72341 0.0444 0.67551 0.0
Cd226 Cd 0.71016 0.06705 0.68211 0.0
O227 O 0.7194 0.07684 0.65633 0.0
O228 O 0.72741 0.02346 0.66859 0.0
O229 O 0.70006 0.0201 0.66947 0.0
C230 C 0.71006 0.01289 0.66606 0.0
C231 C 0.68062 0.05677 0.69073 0.0
C232 C 0.73055 0.07353 0.6481 0.0
C233 C 0.7371 0.06831 0.71114 0.0
O234 O 0.72918 0.07647 0.70457 0.0
O235 O 0.73537 0.05391 0.70237 0.0
O236 O 0.69208 0.07414 0.68973 0.0
O237 O 0.68558 0.04504 0.68559 0.0
O238 O 0.93427 0.66119 0.74119 0.0
Cd239 Cd 0.94123 0.65272 0.71699 0.0
Cd240 Cd 0.95992 0.6899 0.71353 0.0
O241 O 0.95047 0.69147 0.73955 0.0
O242 O 0.93593 0.62716 0.72107 0.0
O243 O 0.9637 0.65052 0.71851 0.0
C244 C 0.95317 0.63334 0.72152 0.0
C245 C 0.99027 0.70745 0.70643 0.0
C246 C 0.93963 0.6775 0.7481 0.0
C247 C 0.93049 0.66585 0.68343 0.0
O248 O 0.94214 0.68202 0.69022 0.0
O249 O 0.92797 0.65171 0.69171 0.0
O250 O 0.9802 0.7148 0.70828 0.0
O251 O 0.98345 0.69029 0.70993 0.0
H252 H 0.16626 0.36407 0.03884 0.0
H253 H 0.26981 0.30942 0.18014 0.0
H254 H 0.16367 0.36367 0.14565 0.0
H255 H 0.14126 0.36906 0.12957 0.0
H256 H 0.10658 0.31009 0.11701 0.0
H257 H 0.12953 0.30496 0.13278 0.0
H258 H 0.18682 0.36567 0.11789 0.0
H259 H 0.18099 0.37065 0.08561 0.0
H260 H 0.15183 0.31146 0.07215 0.0
H261 H 0.15779 0.30672 0.1045 0.0
H262 H 0.21793 0.36532 0.13002 0.0
H263 H 0.24083 0.37263 0.1072 0.0
H264 H 0.21916 0.31423 0.09343 0.0
H265 H 0.19606 0.30706 0.11622 0.0
H266 H 0.22488 0.3556 0.17571 0.0
H267 H 0.2521 0.35458 0.18578 0.0
H268 H 0.22753 0.29854 0.16087 0.0
H269 H 0.20036 0.29972 0.15103 0.0
H270 H 0.19328 0.35227 0.1998 0.0
H271 H 0.20352 0.35018 0.23138 0.0
H272 H 0.18959 0.29371 0.21671 0.0
H273 H 0.17957 0.29608 0.18502 0.0
H274 H 0.16328 0.35643 0.18115 0.0
H275 H 0.14462 0.35533 0.20672 0.0
H276 H 0.12341 0.29645 0.20766 0.0
H277 H 0.14194 0.29768 0.18179 0.0
O278 O 0.16849 0.3618 0.0515 0.0
O279 O 0.15361 0.33126 0.04531 0.0
O280 O 0.27124 0.33903 0.18891 0.0
O281 O 0.25925 0.31022 0.17627 0.0
C282 C 0.16353 0.33134 0.14647 0.0
C283 C 0.17589 0.33283 0.13309 0.0
C284 C 0.19131 0.33161 0.13834 0.0
C285 C 0.19414 0.3283 0.15692 0.0
C286 C 0.18171 0.32654 0.17036 0.0
C287 C 0.16641 0.32819 0.16516 0.0
C288 C 0.14812 0.33392 0.1406 0.0
C289 C 0.15099 0.35189 0.13992 0.0
C290 C 0.13813 0.35492 0.13066 0.0
C291 C 0.12207 0.34001 0.12187 0.0
C292 C 0.11888 0.32191 0.12337 0.0
C293 C 0.13183 0.31891 0.13262 0.0
C294 C 0.17272 0.33586 0.11344 0.0
C295 C 0.17922 0.35383 0.10791 0.0
C296 C 0.17586 0.35661 0.08948 0.0
C297 C 0.16593 0.34145 0.0763 0.0
C298 C 0.15951 0.32344 0.08195 0.0
C299 C 0.16291 0.32069 0.10038 0.0
C300 C 0.2054 0.33568 0.12479 0.0
C301 C 0.21813 0.35412 0.12205 0.0
C302 C 0.23112 0.35825 0.10896 0.0
C303 C 0.23174 0.344 0.09846 0.0
C304 C 0.21907 0.32549 0.10139 0.0
C305 C 0.2059 0.32137 0.11437 0.0
C306 C 0.21074 0.32776 0.1626 0.0
C307 C 0.22545 0.34314 0.17242 0.0
C308 C 0.24096 0.34251 0.17816 0.0
C309 C 0.24199 0.32647 0.17412 0.0
C310 C 0.22719 0.31111 0.16419 0.0
C311 C 0.21169 0.31175 0.1585 0.0
C312 C 0.18562 0.32431 0.19014 0.0
C313 C 0.1921 0.33933 0.20354 0.0
C314 C 0.19794 0.33809 0.22159 0.0
C315 C 0.19745 0.32178 0.22661 0.0
C316 C 0.1904 0.30655 0.21327 0.0
C317 C 0.18453 0.30781 0.19521 0.0
C318 C 0.15383 0.32711 0.17949 0.0
C319 C 0.15435 0.34325 0.18664 0.0
C320 C 0.14383 0.34261 0.20139 0.0
C321 C 0.13259 0.32581 0.20931 0.0
C322 C 0.13177 0.30957 0.20177 0.0
C323 C 0.14237 0.31024 0.18704 0.0
C324 C 0.16227 0.34445 0.05676 0.0
C325 C 0.2584 0.3257 0.18024 0.0
H326 H 0.64247 0.80811 0.04649 0.0
H327 H 0.71617 0.96785 0.19615 0.0
H328 H 0.6509 0.80379 0.14901 0.0
H329 H 0.64404 0.77347 0.1356 0.0
H330 H 0.70132 0.79151 0.1392 0.0
H331 H 0.70804 0.8221 0.15232 0.0
H332 H 0.64962 0.8335 0.1253 0.0
H333 H 0.6415 0.82208 0.09236 0.0
H334 H 0.69517 0.82979 0.08705 0.0
H335 H 0.70316 0.84138 0.11996 0.0
H336 H 0.65592 0.8692 0.15222 0.0
H337 H 0.64948 0.88836 0.13213 0.0
H338 H 0.69455 0.8978 0.09965 0.0
H339 H 0.70163 0.8793 0.12049 0.0
H340 H 0.66553 0.87569 0.19053 0.0
H341 H 0.67023 0.90589 0.20177 0.0
H342 H 0.72098 0.93267 0.17506 0.0
H343 H 0.71625 0.90233 0.16419 0.0
H344 H 0.66327 0.84261 0.20735 0.0
H345 H 0.66279 0.85607 0.23801 0.0
H346 H 0.71874 0.89876 0.23499 0.0
H347 H 0.71928 0.88477 0.20434 0.0
H348 H 0.65998 0.81269 0.19416 0.0
H349 H 0.66164 0.794 0.21835 0.0
H350 H 0.71976 0.82023 0.21409 0.0
H351 H 0.71793 0.83989 0.1909 0.0
O352 O 0.64599 0.81274 0.05946 0.0
O353 O 0.67374 0.81689 0.05748 0.0
O354 O 0.68786 0.94126 0.2055 0.0
O355 O 0.71398 0.95571 0.19189 0.0
C356 C 0.68387 0.83392 0.158 0.0
C357 C 0.68184 0.8451 0.14499 0.0
C358 C 0.68371 0.86228 0.15117 0.0
C359 C 0.6881 0.86847 0.17032 0.0
C360 C 0.6898 0.85716 0.18339 0.0
C361 C 0.68778 0.83992 0.1772 0.0
C362 C 0.67994 0.81509 0.15163 0.0
C363 C 0.66194 0.80111 0.14708 0.0
C364 C 0.65806 0.78377 0.1395 0.0
C365 C 0.67214 0.78004 0.13634 0.0
C366 C 0.69019 0.79401 0.14129 0.0
C367 C 0.69405 0.8114 0.14893 0.0
C368 C 0.677 0.83835 0.12496 0.0
C369 C 0.65962 0.83282 0.11695 0.0
C370 C 0.65501 0.82625 0.09816 0.0
C371 C 0.66769 0.82503 0.08706 0.0
C372 C 0.68509 0.83056 0.09519 0.0
C373 C 0.68969 0.83717 0.11397 0.0
C374 C 0.67944 0.87309 0.13805 0.0
C375 C 0.66456 0.87555 0.14091 0.0
C376 C 0.66083 0.88639 0.12942 0.0
C377 C 0.67159 0.89456 0.11449 0.0
C378 C 0.6861 0.8916 0.11112 0.0
C379 C 0.69011 0.88106 0.12296 0.0
C380 C 0.69067 0.88683 0.17674 0.0
C381 C 0.67772 0.88809 0.18725 0.0
C382 C 0.6804 0.90536 0.19358 0.0
C383 C 0.69602 0.92171 0.18935 0.0
C384 C 0.70883 0.92037 0.1786 0.0
C385 C 0.70617 0.90307 0.17235 0.0
C386 C 0.69136 0.86257 0.20367 0.0
C387 C 0.67569 0.85433 0.21364 0.0
C388 C 0.67535 0.86225 0.23102 0.0
C389 C 0.69063 0.87865 0.23871 0.0
C390 C 0.70679 0.8861 0.2294 0.0
C391 C 0.70713 0.8781 0.21195 0.0
C392 C 0.68885 0.82775 0.19097 0.0
C393 C 0.67306 0.81442 0.19857 0.0
C394 C 0.67407 0.80358 0.21227 0.0
C395 C 0.69087 0.80545 0.21832 0.0
C396 C 0.70663 0.81857 0.21019 0.0
C397 C 0.70563 0.82973 0.19678 0.0
C398 C 0.66273 0.81799 0.06712 0.0
C399 C 0.69897 0.9401 0.1961 0.0
H400 H 0.15649 0.83017 0.03153 0.0
H401 H 0.29853 0.94215 0.18896 0.0
H402 H 0.14031 0.83757 0.12561 0.0
H403 H 0.11405 0.80983 0.11013 0.0
H404 H 0.128 0.77545 0.14159 0.0
H405 H 0.15474 0.80318 0.15639 0.0
H406 H 0.17463 0.86642 0.10714 0.0
H407 H 0.16702 0.85587 0.07396 0.0
H408 H 0.16815 0.80614 0.08533 0.0
H409 H 0.176 0.81698 0.11842 0.0
H410 H 0.20961 0.8992 0.1304 0.0
H411 H 0.2327 0.91556 0.10824 0.0
H412 H 0.23873 0.86755 0.0993 0.0
H413 H 0.21555 0.85132 0.12132 0.0
H414 H 0.20866 0.9038 0.17484 0.0
H415 H 0.23816 0.93046 0.18568 0.0
H416 H 0.26417 0.89902 0.17106 0.0
H417 H 0.23455 0.87241 0.16047 0.0
H418 H 0.17785 0.87823 0.19788 0.0
H419 H 0.18895 0.88934 0.2307 0.0
H420 H 0.22374 0.8657 0.2275 0.0
H421 H 0.21271 0.85481 0.19487 0.0
H422 H 0.13783 0.8398 0.17164 0.0
H423 H 0.11635 0.82265 0.19507 0.0
H424 H 0.15501 0.8095 0.21974 0.0
H425 H 0.17596 0.82562 0.19574 0.0
O426 O 0.15965 0.83414 0.04468 0.0
O427 O 0.16027 0.80875 0.05129 0.0
O428 O 0.27265 0.94736 0.1921 0.0
O429 O 0.28669 0.93182 0.18477 0.0
C430 C 0.16728 0.83905 0.14863 0.0
C431 C 0.18012 0.84875 0.13537 0.0
C432 C 0.19718 0.86425 0.14131 0.0
C433 C 0.20152 0.87001 0.16053 0.0
C434 C 0.18896 0.86015 0.17385 0.0
C435 C 0.17175 0.84467 0.16796 0.0
C436 C 0.14957 0.82244 0.14204 0.0
C437 C 0.13759 0.82406 0.12934 0.0
C438 C 0.12263 0.80826 0.12051 0.0
C439 C 0.11911 0.79057 0.12464 0.0
C440 C 0.13039 0.78895 0.13827 0.0
C441 C 0.14561 0.80477 0.14677 0.0
C442 C 0.17583 0.84245 0.11517 0.0
C443 C 0.17333 0.85331 0.1024 0.0
C444 C 0.16893 0.84722 0.08348 0.0
C445 C 0.16693 0.83014 0.077 0.0
C446 C 0.16956 0.81935 0.08985 0.0
C447 C 0.17402 0.82548 0.10876 0.0
C448 C 0.21087 0.87405 0.12746 0.0
C449 C 0.2159 0.89223 0.1236 0.0
C450 C 0.22915 0.90157 0.11099 0.0
C451 C 0.23759 0.89287 0.10195 0.0
C452 C 0.23234 0.87457 0.10576 0.0
C453 C 0.21914 0.86529 0.1184 0.0
C454 C 0.2195 0.88622 0.16684 0.0
C455 C 0.22075 0.90271 0.17402 0.0
C456 C 0.23761 0.91791 0.18018 0.0
C457 C 0.25354 0.91687 0.17922 0.0
C458 C 0.25219 0.9003 0.17198 0.0
C459 C 0.23531 0.8851 0.16587 0.0
C460 C 0.19445 0.86569 0.19406 0.0
C461 C 0.18773 0.87533 0.20438 0.0
C462 C 0.19414 0.88173 0.22302 0.0
C463 C 0.20717 0.87834 0.23164 0.0
C464 C 0.21354 0.86833 0.22131 0.0
C465 C 0.20732 0.86216 0.20268 0.0
C466 C 0.15862 0.83422 0.18207 0.0
C467 C 0.14161 0.83308 0.18199 0.0
C468 C 0.12939 0.82334 0.19535 0.0
C469 C 0.13417 0.81496 0.20923 0.0
C470 C 0.15114 0.81605 0.20928 0.0
C471 C 0.16313 0.82535 0.19566 0.0
C472 C 0.1621 0.82364 0.05691 0.0
C473 C 0.27149 0.93297 0.18576 0.0
H474 H 0.3255 0.18419 0.02824 0.0
H475 H 0.32582 0.05525 0.8558 0.0
H476 H 0.29588 0.17893 0.91799 0.0
H477 H 0.30209 0.20877 0.93292 0.0
H478 H 0.3592 0.22646 0.9392 0.0
H479 H 0.35287 0.19678 0.92444 0.0
H480 H 0.29845 0.15507 0.95094 0.0
H481 H 0.30453 0.16585 0.98412 0.0
H482 H 0.36084 0.18135 0.98032 0.0
H483 H 0.35459 0.17068 0.94713 0.0
H484 H 0.2986 0.11205 0.94244 0.0
H485 H 0.30668 0.09413 0.96303 0.0
H486 H 0.36217 0.125 0.94784 0.0
H487 H 0.35391 0.14241 0.92702 0.0
H488 H 0.29069 0.09733 0.90604 0.0
H489 H 0.28907 0.06876 0.89367 0.0
H490 H 0.33996 0.1011 0.86839 0.0
H491 H 0.34154 0.12953 0.88111 0.0
H492 H 0.28394 0.11308 0.87168 0.0
H493 H 0.28143 0.09784 0.8408 0.0
H494 H 0.33307 0.14391 0.82859 0.0
H495 H 0.33596 0.15871 0.8598 0.0
H496 H 0.28637 0.15509 0.87256 0.0
H497 H 0.28555 0.17396 0.84777 0.0
H498 H 0.34264 0.21291 0.86057 0.0
H499 H 0.34345 0.19369 0.88473 0.0
O500 O 0.32338 0.17994 0.01514 0.0
O501 O 0.35216 0.18757 0.01247 0.0
O502 O 0.30052 0.05029 0.87504 0.0
O503 O 0.3263 0.06631 0.8612 0.0
C504 C 0.32021 0.16698 0.91358 0.0
C505 C 0.32228 0.15579 0.92652 0.0
C506 C 0.32095 0.13893 0.92026 0.0
C507 C 0.31671 0.13277 0.90116 0.0
C508 C 0.31388 0.14353 0.88822 0.0
C509 C 0.31597 0.16086 0.89437 0.0
C510 C 0.32392 0.18569 0.92026 0.0
C511 C 0.30974 0.1894 0.92236 0.0
C512 C 0.31331 0.2064 0.93089 0.0
C513 C 0.3311 0.21984 0.9375 0.0
C514 C 0.3453 0.21626 0.93463 0.0
C515 C 0.34174 0.19938 0.92609 0.0
C516 C 0.32603 0.16191 0.94674 0.0
C517 C 0.31206 0.16072 0.95735 0.0
C518 C 0.31558 0.16691 0.97628 0.0
C519 C 0.33317 0.17442 0.98489 0.0
C520 C 0.34714 0.17558 0.97415 0.0
C521 C 0.34359 0.16941 0.95522 0.0
C522 C 0.32571 0.12854 0.93334 0.0
C523 C 0.31248 0.11493 0.94365 0.0
C524 C 0.3171 0.10472 0.95532 0.0
C525 C 0.33507 0.10829 0.95709 0.0
C526 C 0.34828 0.12213 0.94691 0.0
C527 C 0.34359 0.13203 0.935 0.0
C528 C 0.31624 0.11546 0.89449 0.0
C529 C 0.30157 0.09819 0.89802 0.0
C530 C 0.30064 0.08191 0.89085 0.0
C531 C 0.31437 0.08265 0.87998 0.0
C532 C 0.32916 0.10002 0.87668 0.0
C533 C 0.33011 0.11628 0.88393 0.0
C534 C 0.31017 0.13697 0.86805 0.0
C535 C 0.29449 0.12011 0.86216 0.0
C536 C 0.29309 0.1114 0.8446 0.0
C537 C 0.3071 0.11971 0.83245 0.0
C538 C 0.32204 0.13733 0.8377 0.0
C539 C 0.32365 0.14583 0.85545 0.0
C540 C 0.31495 0.17305 0.88052 0.0
C541 C 0.29864 0.16778 0.87006 0.0
C542 C 0.29819 0.17862 0.85598 0.0
C543 C 0.31406 0.1949 0.8521 0.0
C544 C 0.33024 0.20033 0.86298 0.0
C545 C 0.33068 0.18948 0.87697 0.0
C546 C 0.33688 0.18105 0.00498 0.0
C547 C 0.31325 0.06541 0.87198 0.0
H548 H 0.82327 0.18796 0.03018 0.0
H549 H 0.73387 0.0295 0.87983 0.0
H550 H 0.83718 0.19232 0.93103 0.0
H551 H 0.86127 0.22114 0.947 0.0
H552 H 0.89835 0.20023 0.94381 0.0
H553 H 0.87404 0.17134 0.92763 0.0
H554 H 0.80474 0.16257 0.95095 0.0
H555 H 0.80819 0.17406 0.98368 0.0
H556 H 0.8537 0.16541 0.99303 0.0
H557 H 0.84995 0.15374 0.96031 0.0
H558 H 0.7746 0.12584 0.92388 0.0
H559 H 0.75057 0.10849 0.94477 0.0
H560 H 0.78814 0.10063 0.97957 0.0
H561 H 0.81199 0.11721 0.95805 0.0
H562 H 0.77934 0.12184 0.8839 0.0
H563 H 0.75322 0.09231 0.8717 0.0
H564 H 0.77391 0.06324 0.90336 0.0
H565 H 0.8001 0.09288 0.91526 0.0
H566 H 0.81303 0.15507 0.8679 0.0
H567 H 0.80301 0.14372 0.83526 0.0
H568 H 0.81096 0.09743 0.844 0.0
H569 H 0.82085 0.10889 0.87682 0.0
H570 H 0.84431 0.18891 0.89035 0.0
H571 H 0.86594 0.20691 0.86767 0.0
H572 H 0.88124 0.165 0.86147 0.0
H573 H 0.85935 0.14699 0.88403 0.0
O574 O 0.82209 0.18328 0.01732 0.0
O575 O 0.84547 0.17867 0.02136 0.0
O576 O 0.73406 0.05698 0.86836 0.0
O577 O 0.74406 0.04138 0.88445 0.0
C578 C 0.8384 0.16141 0.92106 0.0
C579 C 0.82507 0.15052 0.93334 0.0
C580 C 0.80968 0.13354 0.92658 0.0
C581 C 0.80773 0.12742 0.90748 0.0
C582 C 0.82097 0.13837 0.89513 0.0
C583 C 0.83644 0.15528 0.90196 0.0
C584 C 0.85385 0.17972 0.92827 0.0
C585 C 0.85057 0.19406 0.93356 0.0
C586 C 0.8643 0.21044 0.94283 0.0
C587 C 0.88164 0.21285 0.94696 0.0
C588 C 0.88515 0.1988 0.94081 0.0
C589 C 0.87132 0.18232 0.93156 0.0
C590 C 0.82705 0.15727 0.95329 0.0
C591 C 0.81537 0.16307 0.96012 0.0
C592 C 0.81741 0.16967 0.97881 0.0
C593 C 0.83123 0.17066 0.99098 0.0
C594 C 0.84292 0.16483 0.98404 0.0
C595 C 0.84083 0.15818 0.96536 0.0
C596 C 0.79507 0.1227 0.93928 0.0
C597 C 0.7776 0.12011 0.9358 0.0
C598 C 0.76392 0.11028 0.94778 0.0
C599 C 0.76755 0.10326 0.96375 0.0
C600 C 0.78506 0.106 0.96738 0.0
C601 C 0.79865 0.11544 0.95512 0.0
C602 C 0.79167 0.10949 0.90035 0.0
C603 C 0.77825 0.10908 0.8881 0.0
C604 C 0.76332 0.09219 0.8812 0.0
C605 C 0.7615 0.0754 0.88653 0.0
C606 C 0.77491 0.0759 0.89895 0.0
C607 C 0.78986 0.0928 0.9058 0.0
C608 C 0.81766 0.13281 0.87474 0.0
C609 C 0.81301 0.14271 0.86265 0.0
C610 C 0.80729 0.13619 0.84398 0.0
C611 C 0.80608 0.11959 0.83701 0.0
C612 C 0.8115 0.11011 0.84899 0.0
C613 C 0.81727 0.11669 0.86769 0.0
C614 C 0.85033 0.16669 0.88894 0.0
C615 C 0.8525 0.18374 0.88426 0.0
C616 C 0.86491 0.19402 0.87131 0.0
C617 C 0.87539 0.18744 0.86273 0.0
C618 C 0.87327 0.1704 0.86762 0.0
C619 C 0.86085 0.16014 0.88059 0.0
C620 C 0.83342 0.17776 0.0108 0.0
C621 C 0.74569 0.05742 0.8792 0.0
H622 H 0.8614 0.67905 0.04074 0.0
H623 H 0.71774 0.65749 0.89454 0.0
H624 H 0.87465 0.69667 0.94347 0.0
H625 H 0.8982 0.69215 0.95852 0.0
H626 H 0.87067 0.63564 0.9344 0.0
H627 H 0.84773 0.64065 0.91886 0.0
H628 H 0.84282 0.69534 0.96746 0.0
H629 H 0.85162 0.6937 0.99986 0.0
H630 H 0.83949 0.63756 0.98664 0.0
H631 H 0.83052 0.63933 0.95435 0.0
H632 H 0.80562 0.69317 0.9492 0.0
H633 H 0.78311 0.68737 0.97223 0.0
H634 H 0.77273 0.63142 0.97461 0.0
H635 H 0.79521 0.63738 0.95173 0.0
H636 H 0.80821 0.69956 0.90387 0.0
H637 H 0.78065 0.70062 0.8957 0.0
H638 H 0.748 0.64344 0.9083 0.0
H639 H 0.77565 0.64251 0.9162 0.0
H640 H 0.83871 0.69896 0.87712 0.0
H641 H 0.82818 0.69916 0.84493 0.0
H642 H 0.78153 0.64481 0.84945 0.0
H643 H 0.79287 0.64428 0.88083 0.0
H644 H 0.87385 0.69855 0.90284 0.0
H645 H 0.89345 0.70162 0.87737 0.0
H646 H 0.85026 0.65102 0.84936 0.0
H647 H 0.83104 0.6474 0.87528 0.0
O648 O 0.85768 0.67933 0.02791 0.0
O649 O 0.85136 0.65055 0.02036 0.0
O650 O 0.74626 0.6868 0.89131 0.0
O651 O 0.72886 0.65745 0.89768 0.0
C652 C 0.84317 0.67025 0.92472 0.0
C653 C 0.83139 0.66884 0.9388 0.0
C654 C 0.81513 0.66876 0.93419 0.0
C655 C 0.81074 0.67044 0.91547 0.0
C656 C 0.8223 0.67154 0.90123 0.0
C657 C 0.83864 0.67152 0.90585 0.0
C658 C 0.85952 0.66901 0.93002 0.0
C659 C 0.87409 0.68352 0.94097 0.0
C660 C 0.88738 0.6808 0.9498 0.0
C661 C 0.88625 0.66341 0.948 0.0
C662 C 0.87219 0.64927 0.93602 0.0
C663 C 0.85902 0.65209 0.92705 0.0
C664 C 0.83615 0.66751 0.95857 0.0
C665 C 0.842 0.68268 0.97163 0.0
C666 C 0.84706 0.68171 0.99011 0.0
C667 C 0.84633 0.66552 0.99583 0.0
C668 C 0.84027 0.65026 0.98269 0.0
C669 C 0.83517 0.65123 0.96424 0.0
C670 C 0.80211 0.66572 0.94882 0.0
C671 C 0.79853 0.67971 0.95479 0.0
C672 C 0.78562 0.67634 0.96789 0.0
C673 C 0.77612 0.65893 0.97533 0.0
C674 C 0.77998 0.64507 0.96945 0.0
C675 C 0.79279 0.64842 0.95632 0.0
C676 C 0.79392 0.671 0.91071 0.0
C677 C 0.79508 0.68729 0.90484 0.0
C678 C 0.77932 0.68785 0.9002 0.0
C679 C 0.76211 0.67211 0.90138 0.0
C680 C 0.76102 0.65581 0.90727 0.0
C681 C 0.77679 0.65526 0.91186 0.0
C682 C 0.81652 0.67164 0.88139 0.0
C683 C 0.82636 0.68702 0.87099 0.0
C684 C 0.82019 0.68717 0.85265 0.0
C685 C 0.80393 0.67201 0.84445 0.0
C686 C 0.79427 0.65661 0.85499 0.0
C687 C 0.8006 0.65635 0.8731 0.0
C688 C 0.85091 0.67279 0.89095 0.0
C689 C 0.86871 0.68793 0.8914 0.0
C690 C 0.87986 0.68973 0.87683 0.0
C691 C 0.87326 0.67664 0.86138 0.0
C692 C 0.85557 0.66139 0.86104 0.0
C693 C 0.8446 0.65933 0.87582 0.0
C694 C 0.85191 0.66461 0.01541 0.0
C695 C 0.74532 0.67264 0.89647 0.0
H696 H 0.84016 0.70499 0.37249 0.0
H697 H 0.94363 0.6569 0.51572 0.0
H698 H 0.83215 0.70035 0.47628 0.0
H699 H 0.81013 0.70567 0.45908 0.0
H700 H 0.7744 0.64663 0.449 0.0
H701 H 0.79662 0.64143 0.46647 0.0
H702 H 0.8605 0.70356 0.45089 0.0
H703 H 0.85571 0.7097 0.41876 0.0
H704 H 0.81766 0.65135 0.40613 0.0
H705 H 0.8227 0.64543 0.43829 0.0
H706 H 0.8906 0.70359 0.47087 0.0
H707 H 0.91477 0.71218 0.44955 0.0
H708 H 0.88733 0.65596 0.42457 0.0
H709 H 0.86273 0.64785 0.44546 0.0
H710 H 0.88974 0.69344 0.51508 0.0
H711 H 0.91785 0.6948 0.5263 0.0
H712 H 0.90197 0.64388 0.49316 0.0
H713 H 0.87381 0.64259 0.48224 0.0
H714 H 0.85276 0.6857 0.53504 0.0
H715 H 0.86143 0.68334 0.56703 0.0
H716 H 0.86337 0.63431 0.5491 0.0
H717 H 0.85281 0.63578 0.51757 0.0
H718 H 0.82567 0.68995 0.51257 0.0
H719 H 0.80524 0.68638 0.53705 0.0
H720 H 0.78938 0.62862 0.538 0.0
H721 H 0.81022 0.6325 0.51372 0.0
O722 O 0.84199 0.70223 0.38506 0.0
O723 O 0.8226 0.6721 0.37927 0.0
O724 O 0.94014 0.68283 0.52832 0.0
O725 O 0.93263 0.65671 0.51149 0.0
C726 C 0.83115 0.66786 0.47915 0.0
C727 C 0.84442 0.67046 0.46648 0.0
C728 C 0.86021 0.67028 0.47259 0.0
C729 C 0.86258 0.667 0.49133 0.0
C730 C 0.84902 0.6637 0.50397 0.0
C731 C 0.83327 0.66423 0.49787 0.0
C732 C 0.81592 0.67052 0.47272 0.0
C733 C 0.81933 0.68856 0.47084 0.0
C734 C 0.80685 0.69156 0.4608 0.0
C735 C 0.79067 0.67657 0.45241 0.0
C736 C 0.78673 0.65845 0.45534 0.0
C737 C 0.79933 0.65545 0.46538 0.0
C738 C 0.84201 0.67406 0.44682 0.0
C739 C 0.85126 0.69213 0.4411 0.0
C740 C 0.84844 0.69559 0.42277 0.0
C741 C 0.83629 0.68102 0.40987 0.0
C742 C 0.82712 0.66289 0.4157 0.0
C743 C 0.82997 0.65946 0.43403 0.0
C744 C 0.87498 0.67511 0.45974 0.0
C745 C 0.88985 0.69316 0.46076 0.0
C746 C 0.90373 0.69798 0.44862 0.0
C747 C 0.90319 0.68475 0.43533 0.0
C748 C 0.88817 0.6666 0.43439 0.0
C749 C 0.87415 0.66187 0.44642 0.0
C750 C 0.87975 0.66791 0.49788 0.0
C751 C 0.89235 0.68259 0.5103 0.0
C752 C 0.9084 0.68333 0.51666 0.0
C753 C 0.91216 0.66943 0.51063 0.0
C754 C 0.89951 0.6548 0.49808 0.0
C755 C 0.88344 0.65405 0.49178 0.0
C756 C 0.85211 0.66092 0.52388 0.0
C757 C 0.85443 0.67408 0.53815 0.0
C758 C 0.85979 0.6729 0.55644 0.0
C759 C 0.86356 0.65885 0.56079 0.0
C760 C 0.86048 0.64524 0.54653 0.0
C761 C 0.85459 0.64615 0.52836 0.0
C762 C 0.81935 0.66146 0.51125 0.0
C763 C 0.81751 0.67644 0.5178 0.0
C764 C 0.8058 0.67435 0.53182 0.0
C765 C 0.79563 0.6572 0.53958 0.0
C766 C 0.79717 0.64208 0.53258 0.0
C767 C 0.80895 0.64422 0.51858 0.0
C768 C 0.83317 0.68477 0.39047 0.0
C769 C 0.92916 0.67013 0.51738 0.0
H770 H 0.31604 0.13947 0.37769 0.0
H771 H 0.37481 0.29693 0.53129 0.0
H772 H 0.31886 0.1363 0.48108 0.0
H773 H 0.31215 0.10601 0.46783 0.0
H774 H 0.36944 0.12414 0.47187 0.0
H775 H 0.37604 0.15476 0.48491 0.0
H776 H 0.31719 0.16046 0.45684 0.0
H777 H 0.31126 0.14976 0.42365 0.0
H778 H 0.36847 0.16951 0.41944 0.0
H779 H 0.3742 0.18025 0.45263 0.0
H780 H 0.31793 0.18917 0.47354 0.0
H781 H 0.31001 0.20698 0.45299 0.0
H782 H 0.36663 0.24176 0.44307 0.0
H783 H 0.37441 0.22353 0.46348 0.0
H784 H 0.3289 0.20471 0.51837 0.0
H785 H 0.3303 0.23346 0.52976 0.0
H786 H 0.38477 0.26481 0.51157 0.0
H787 H 0.38321 0.23594 0.5004 0.0
H788 H 0.33225 0.1752 0.54093 0.0
H789 H 0.33317 0.18861 0.57215 0.0
H790 H 0.38835 0.23208 0.56626 0.0
H791 H 0.38714 0.2186 0.53481 0.0
H792 H 0.32899 0.13953 0.51992 0.0
H793 H 0.33119 0.12085 0.54398 0.0
H794 H 0.38802 0.16137 0.55553 0.0
H795 H 0.38573 0.17993 0.53122 0.0
O796 O 0.3187 0.14388 0.39076 0.0
O797 O 0.34823 0.15423 0.38935 0.0
O798 O 0.34585 0.26859 0.53597 0.0
O799 O 0.37385 0.28536 0.52682 0.0
C800 C 0.35165 0.16646 0.49035 0.0
C801 C 0.34973 0.17755 0.47718 0.0
C802 C 0.35124 0.19457 0.48314 0.0
C803 C 0.35524 0.20082 0.50222 0.0
C804 C 0.35748 0.18995 0.51544 0.0
C805 C 0.35565 0.17269 0.50954 0.0
C806 C 0.34791 0.14768 0.48397 0.0
C807 C 0.32995 0.13367 0.47926 0.0
C808 C 0.32615 0.11634 0.47178 0.0
C809 C 0.34026 0.11261 0.46884 0.0
C810 C 0.35829 0.12663 0.47384 0.0
C811 C 0.36208 0.14404 0.48141 0.0
C812 C 0.34614 0.17128 0.45702 0.0
C813 C 0.32843 0.16259 0.44866 0.0
C814 C 0.32508 0.15644 0.42973 0.0
C815 C 0.3394 0.15881 0.41887 0.0
C816 C 0.35714 0.16749 0.42738 0.0
C817 C 0.36046 0.17366 0.44631 0.0
C818 C 0.3467 0.20496 0.46982 0.0
C819 C 0.32859 0.20045 0.46668 0.0
C820 C 0.3241 0.21061 0.45494 0.0
C821 C 0.3377 0.2257 0.44635 0.0
C822 C 0.35589 0.23022 0.44954 0.0
C823 C 0.36034 0.21982 0.46109 0.0
C824 C 0.35595 0.21831 0.50857 0.0
C825 C 0.3411 0.21782 0.51684 0.0
C826 C 0.34194 0.23425 0.52333 0.0
C827 C 0.35767 0.25145 0.52158 0.0
C828 C 0.37247 0.25183 0.51314 0.0
C829 C 0.37161 0.23538 0.5067 0.0
C830 C 0.35962 0.19592 0.53563 0.0
C831 C 0.34471 0.1873 0.54661 0.0
C832 C 0.34528 0.19503 0.56446 0.0
C833 C 0.36079 0.21154 0.57167 0.0
C834 C 0.3761 0.21953 0.56101 0.0
C835 C 0.37551 0.21177 0.54314 0.0
C836 C 0.35725 0.16097 0.5236 0.0
C837 C 0.342 0.14421 0.52739 0.0
C838 C 0.34328 0.13357 0.54117 0.0
C839 C 0.35981 0.13958 0.55162 0.0
C840 C 0.37508 0.15641 0.54781 0.0
C841 C 0.37382 0.16697 0.53388 0.0
C842 C 0.33579 0.1522 0.39878 0.0
C843 C 0.35869 0.26893 0.52857 0.0
H844 H 0.82007 0.1695 0.36631 0.0
H845 H 0.96563 0.27772 0.52257 0.0
H846 H 0.80417 0.16942 0.4642 0.0
H847 H 0.77793 0.14034 0.45088 0.0
H848 H 0.80221 0.1101 0.4735 0.0
H849 H 0.82801 0.13906 0.48692 0.0
H850 H 0.83871 0.20203 0.44345 0.0
H851 H 0.83038 0.19287 0.41007 0.0
H852 H 0.83592 0.14481 0.41684 0.0
H853 H 0.84443 0.15426 0.45015 0.0
H854 H 0.87631 0.23531 0.46523 0.0
H855 H 0.89942 0.25215 0.4432 0.0
H856 H 0.90505 0.20409 0.43252 0.0
H857 H 0.88193 0.18743 0.4544 0.0
H858 H 0.87562 0.23892 0.50964 0.0
H859 H 0.90513 0.2656 0.52046 0.0
H860 H 0.9313 0.23468 0.50442 0.0
H861 H 0.90169 0.20806 0.49385 0.0
H862 H 0.84678 0.21378 0.53269 0.0
H863 H 0.85819 0.22396 0.56553 0.0
H864 H 0.89048 0.19756 0.56101 0.0
H865 H 0.87904 0.18752 0.52832 0.0
H866 H 0.80889 0.17893 0.51224 0.0
H867 H 0.78817 0.16049 0.53563 0.0
H868 H 0.8215 0.13616 0.54691 0.0
H869 H 0.84209 0.15464 0.5236 0.0
O870 O 0.82346 0.1729 0.37952 0.0
O871 O 0.82642 0.14836 0.38377 0.0
O872 O 0.93966 0.28266 0.52647 0.0
O873 O 0.95379 0.26739 0.51841 0.0
C874 C 0.83481 0.17386 0.48287 0.0
C875 C 0.84697 0.18435 0.46947 0.0
C876 C 0.86394 0.20005 0.47534 0.0
C877 C 0.8686 0.20541 0.49462 0.0
C878 C 0.85643 0.19499 0.508 0.0
C879 C 0.83952 0.17925 0.50214 0.0
C880 C 0.8179 0.15631 0.47666 0.0
C881 C 0.80359 0.15644 0.46652 0.0
C882 C 0.78871 0.13984 0.4588 0.0
C883 C 0.78792 0.12284 0.4611 0.0
C884 C 0.80213 0.12284 0.47172 0.0
C885 C 0.81694 0.13939 0.47942 0.0
C886 C 0.84204 0.17875 0.44921 0.0
C887 C 0.83814 0.18955 0.43767 0.0
C888 C 0.83337 0.18427 0.41862 0.0
C889 C 0.83243 0.16808 0.41079 0.0
C890 C 0.83646 0.15733 0.42243 0.0
C891 C 0.84127 0.16266 0.44146 0.0
C892 C 0.87737 0.21012 0.46137 0.0
C893 C 0.88249 0.22843 0.45804 0.0
C894 C 0.89575 0.23804 0.44551 0.0
C895 C 0.90409 0.22948 0.43604 0.0
C896 C 0.89872 0.21103 0.4393 0.0
C897 C 0.88554 0.20148 0.45185 0.0
C898 C 0.88655 0.22162 0.50094 0.0
C899 C 0.88775 0.23795 0.50851 0.0
C900 C 0.90462 0.25316 0.51465 0.0
C901 C 0.92059 0.25228 0.51329 0.0
C902 C 0.91929 0.23584 0.50566 0.0
C903 C 0.90241 0.22063 0.49957 0.0
C904 C 0.86209 0.19993 0.52821 0.0
C905 C 0.85617 0.21007 0.53891 0.0
C906 C 0.86277 0.21594 0.55758 0.0
C907 C 0.87523 0.21155 0.56583 0.0
C908 C 0.88074 0.20097 0.55512 0.0
C909 C 0.87429 0.19528 0.53645 0.0
C910 C 0.82697 0.1681 0.51626 0.0
C911 C 0.81168 0.16961 0.5198 0.0
C912 C 0.79993 0.15914 0.53318 0.0
C913 C 0.80318 0.14683 0.54306 0.0
C914 C 0.81851 0.14536 0.53938 0.0
C915 C 0.83034 0.15596 0.52617 0.0
C916 C 0.82727 0.16246 0.39057 0.0
C917 C 0.93854 0.26839 0.5198 0.0
H918 H 0.9946 0.5139 0.36227 0.0
H919 H 0.01939 0.40258 0.2047 0.0
H920 H 0.96995 0.51019 0.2664 0.0
H921 H 0.97251 0.53866 0.28079 0.0
H922 H 0.0212 0.57118 0.25235 0.0
H923 H 0.0192 0.54277 0.23886 0.0
H924 H 0.97434 0.47923 0.28597 0.0
H925 H 0.97813 0.48922 0.31923 0.0
H926 H 0.02924 0.53791 0.31003 0.0
H927 H 0.02539 0.52763 0.27686 0.0
H928 H 0.97571 0.4457 0.26326 0.0
H929 H 0.98396 0.42775 0.28333 0.0
H930 H 0.03782 0.47527 0.29417 0.0
H931 H 0.02961 0.49284 0.27364 0.0
H932 H 0.96867 0.44136 0.22016 0.0
H933 H 0.97099 0.41456 0.20914 0.0
H934 H 0.02896 0.4458 0.22282 0.0
H935 H 0.02645 0.47255 0.23359 0.0
H936 H 0.96392 0.46533 0.19619 0.0
H937 H 0.96322 0.45162 0.16492 0.0
H938 H 0.02187 0.47991 0.1689 0.0
H939 H 0.02238 0.49347 0.19997 0.0
H940 H 0.96311 0.50397 0.21508 0.0
H941 H 0.96088 0.52318 0.19133 0.0
H942 H 0.01733 0.54444 0.18123 0.0
H943 H 0.01938 0.5252 0.20479 0.0
O944 O 0.99343 0.51016 0.3491 0.0
O945 O 0.01956 0.53502 0.3436 0.0
O946 O 0.98823 0.39752 0.20217 0.0
O947 O 0.01808 0.41295 0.20903 0.0
C948 C 0.99446 0.50719 0.24526 0.0
C949 C 0.99707 0.49672 0.25878 0.0
C950 C 0.99786 0.48077 0.25305 0.0
C951 C 0.99598 0.47524 0.23383 0.0
C952 C 0.99367 0.48579 0.22033 0.0
C953 C 0.99293 0.50177 0.22597 0.0
C954 C 0.99432 0.52435 0.25146 0.0
C955 C 0.98104 0.52346 0.26309 0.0
C956 C 0.98251 0.53967 0.2713 0.0
C957 C 0.99701 0.55704 0.2676 0.0
C958 C 0.00977 0.55794 0.25523 0.0
C959 C 0.00857 0.54173 0.24741 0.0
C960 C 0.99954 0.50274 0.27901 0.0
C961 C 0.98637 0.492 0.29119 0.0
C962 C 0.98856 0.49777 0.31017 0.0
C963 C 0.00397 0.51439 0.31728 0.0
C964 C 0.01719 0.52506 0.30501 0.0
C965 C 0.01502 0.51924 0.28605 0.0
C966 C 1.00206 0.47056 0.26697 0.0
C967 C 0.98922 0.45225 0.27015 0.0
C968 C 0.99394 0.44206 0.28169 0.0
C969 C 0.0116 0.45003 0.29027 0.0
C970 C 0.0242 0.46862 0.28756 0.0
C971 C 0.01948 0.47875 0.27599 0.0
C972 C 0.99738 0.45884 0.22767 0.0
C973 C 0.98184 0.44236 0.22075 0.0
C974 C 0.98321 0.42709 0.21448 0.0
C975 C 1.00018 0.42804 0.21509 0.0
C976 C 0.0157 0.44459 0.22215 0.0
C977 C 0.01431 0.45987 0.22836 0.0
C978 C 0.9932 0.48044 0.20023 0.0
C979 C 0.97659 0.46891 0.19004 0.0
C980 C 0.97622 0.46097 0.17231 0.0
C981 C 0.99249 0.46462 0.16449 0.0
C982 C 0.00911 0.47698 0.17442 0.0
C983 C 0.00945 0.48476 0.19216 0.0
C984 C 0.9914 0.51322 0.21162 0.0
C985 C 0.97494 0.51277 0.20769 0.0
C986 C 0.97369 0.52368 0.19412 0.0
C987 C 0.98896 0.53537 0.18452 0.0
C988 C 0.0054 0.53574 0.18856 0.0
C989 C 0.00657 0.52469 0.2019 0.0
C990 C 0.00619 0.52053 0.33743 0.0
C991 C 1.00172 0.41188 0.20836 0.0
H992 H 0.50318 0.52346 0.36391 0.0
H993 H 0.39041 0.36772 0.21096 0.0
H994 H 0.50507 0.52657 0.25629 0.0
H995 H 0.52991 0.55614 0.27004 0.0
H996 H 0.56351 0.53143 0.27722 0.0
H997 H 0.53831 0.50167 0.26346 0.0
H998 H 0.48155 0.50519 0.28398 0.0
H999 H 0.48795 0.51577 0.31722 0.0
H1000 H 0.51673 0.48589 0.3243 0.0
H1001 H 0.51016 0.47539 0.29103 0.0
H1002 H 0.44968 0.47486 0.26894 0.0
H1003 H 0.42621 0.45939 0.29094 0.0
H1004 H 0.44576 0.4216 0.30062 0.0
H1005 H 0.46942 0.43738 0.27864 0.0
H1006 H 0.4422 0.4597 0.2228 0.0
H1007 H 0.41349 0.43222 0.2114 0.0
H1008 H 0.43384 0.39737 0.23071 0.0
H1009 H 0.46253 0.42498 0.24187 0.0
H1010 H 0.47463 0.48857 0.20149 0.0
H1011 H 0.46256 0.47772 0.16911 0.0
H1012 H 0.47013 0.43074 0.1742 0.0
H1013 H 0.4826 0.44197 0.20657 0.0
H1014 H 0.50609 0.52041 0.22015 0.0
H1015 H 0.5267 0.53859 0.19681 0.0
H1016 H 0.54424 0.49844 0.19052 0.0
H1017 H 0.52382 0.48056 0.21432 0.0
O1018 O 0.50077 0.51909 0.35083 0.0
O1019 O 0.51553 0.50361 0.3537 0.0
O1020 O 0.39183 0.39735 0.20559 0.0
O1021 O 0.40161 0.37881 0.21536 0.0
C1022 C 0.50413 0.49393 0.25208 0.0
C1023 C 0.49162 0.48327 0.26507 0.0
C1024 C 0.4754 0.46692 0.25889 0.0
C1025 C 0.47186 0.46096 0.23971 0.0
C1026 C 0.48444 0.47148 0.22665 0.0
C1027 C 0.50063 0.488 0.23285 0.0
C1028 C 0.52001 0.5121 0.25867 0.0
C1029 C 0.51791 0.52764 0.26053 0.0
C1030 C 0.53213 0.54451 0.26837 0.0
C1031 C 0.54873 0.54617 0.27464 0.0
C1032 C 0.55086 0.53056 0.2726 0.0
C1033 C 0.53658 0.51364 0.26462 0.0
C1034 C 0.49536 0.48951 0.28521 0.0
C1035 C 0.48918 0.50093 0.29278 0.0
C1036 C 0.49288 0.50695 0.31175 0.0
C1037 C 0.50285 0.50167 0.32343 0.0
C1038 C 0.50901 0.4902 0.31571 0.0
C1039 C 0.50528 0.48417 0.29674 0.0
C1040 C 0.46122 0.45723 0.27223 0.0
C1041 C 0.44893 0.46329 0.27588 0.0
C1042 C 0.43561 0.45449 0.2885 0.0
C1043 C 0.43419 0.43932 0.29758 0.0
C1044 C 0.44646 0.43319 0.29376 0.0
C1045 C 0.45997 0.44217 0.28127 0.0
C1046 C 0.45438 0.44428 0.23314 0.0
C1047 C 0.4404 0.44611 0.22454 0.0
C1048 C 0.42403 0.4304 0.21806 0.0
C1049 C 0.42137 0.41258 0.22015 0.0
C1050 C 0.43544 0.41086 0.22888 0.0
C1051 C 0.45181 0.42659 0.23531 0.0
C1052 C 0.47956 0.46611 0.20634 0.0
C1053 C 0.47408 0.47617 0.19547 0.0
C1054 C 0.467 0.46984 0.17706 0.0
C1055 C 0.46521 0.45326 0.16917 0.0
C1056 C 0.47144 0.44361 0.17985 0.0
C1057 C 0.47852 0.44997 0.19832 0.0
C1058 C 0.51361 0.49928 0.21908 0.0
C1059 C 0.51457 0.51568 0.21392 0.0
C1060 C 0.52621 0.52594 0.20043 0.0
C1061 C 0.5371 0.51995 0.19173 0.0
C1062 C 0.53621 0.50355 0.19708 0.0
C1063 C 0.52451 0.49328 0.2106 0.0
C1064 C 0.5068 0.50814 0.34356 0.0
C1065 C 0.40403 0.39585 0.21325 0.0
H1066 H 0.52383 0.00697 0.37248 0.0
H1067 H 0.3797 0.97731 0.22087 0.0
H1068 H 0.53831 0.02498 0.27536 0.0
H1069 H 0.56205 0.02111 0.29095 0.0
H1070 H 0.53597 0.9647 0.26672 0.0
H1071 H 0.5128 0.96905 0.25069 0.0
H1072 H 0.50586 0.02287 0.2987 0.0
H1073 H 0.51429 0.02136 0.33129 0.0
H1074 H 0.5034 0.9656 0.31832 0.0
H1075 H 0.49479 0.96723 0.28586 0.0
H1076 H 0.46898 0.0202 0.27941 0.0
H1077 H 0.44648 0.01464 0.30235 0.0
H1078 H 0.43626 0.95881 0.3056 0.0
H1079 H 0.45884 0.96459 0.28286 0.0
H1080 H 0.46998 0.02549 0.23553 0.0
H1081 H 0.44152 0.02432 0.22612 0.0
H1082 H 0.41181 0.96614 0.23587 0.0
H1083 H 0.44039 0.96748 0.24505 0.0
H1084 H 0.49944 0.02865 0.21111 0.0
H1085 H 0.48729 0.02997 0.18005 0.0
H1086 H 0.44931 0.97112 0.17832 0.0
H1087 H 0.46109 0.97018 0.2095 0.0
H1088 H 0.53799 0.02655 0.23378 0.0
H1089 H 0.55796 0.02869 0.20925 0.0
H1090 H 0.51481 0.97713 0.18223 0.0
H1091 H 0.49574 0.9744 0.20765 0.0
O1092 O 0.52027 0.00721 0.35958 0.0
O1093 O 0.51459 0.97863 0.35215 0.0
O1094 O 0.40707 0.0081 0.21972 0.0
O1095 O 0.39115 0.97818 0.22456 0.0
C1096 C 0.50734 0.99811 0.25622 0.0
C1097 C 0.49527 0.99645 0.27008 0.0
C1098 C 0.47883 0.99588 0.26511 0.0
C1099 C 0.47455 0.99728 0.24629 0.0
C1100 C 0.48652 0.99888 0.23236 0.0
C1101 C 0.50296 0.99923 0.23726 0.0
C1102 C 0.52387 0.99731 0.26184 0.0
C1103 C 0.53811 0.01201 0.27296 0.0
C1104 C 0.55151 0.00965 0.28209 0.0
C1105 C 0.55083 0.99248 0.28041 0.0
C1106 C 0.53712 0.97818 0.26826 0.0
C1107 C 0.52383 0.98062 0.25901 0.0
C1108 C 0.49984 0.99521 0.28994 0.0
C1109 C 0.50523 0.01032 0.30297 0.0
C1110 C 0.51008 0.00943 0.32155 0.0
C1111 C 0.50959 0.99338 0.3274 0.0
C1112 C 0.50398 0.97819 0.31428 0.0
C1113 C 0.49909 0.97909 0.29573 0.0
C1114 C 0.46561 0.99283 0.27951 0.0
C1115 C 0.46191 0.00681 0.28516 0.0
C1116 C 0.449 0.00357 0.29821 0.0
C1117 C 0.43955 0.98628 0.30589 0.0
C1118 C 0.44346 0.97238 0.30026 0.0
C1119 C 0.45632 0.97563 0.2872 0.0
C1120 C 0.45721 0.99659 0.24099 0.0
C1121 C 0.4573 0.01252 0.23561 0.0
C1122 C 0.44103 0.01181 0.23026 0.0
C1123 C 0.42438 0.99512 0.23025 0.0
C1124 C 0.42438 0.9792 0.23573 0.0
C1125 C 0.44066 0.97993 0.24103 0.0
C1126 C 0.48112 0.99933 0.21254 0.0
C1127 C 0.48867 0.01604 0.20385 0.0
C1128 C 0.48171 0.01674 0.1861 0.0
C1129 C 0.46712 1.00069 0.17674 0.0
C1130 C 0.46021 0.98384 0.18525 0.0
C1131 C 0.46706 0.98321 0.203 0.0
C1132 C 0.5153 1.00039 0.2225 0.0
C1133 C 0.53299 0.0156 0.22268 0.0
C1134 C 0.54432 0.01691 0.20845 0.0
C1135 C 0.53811 0.00315 0.19352 0.0
C1136 C 0.52035 0.98789 0.19353 0.0
C1137 C 0.50923 0.98641 0.20796 0.0
C1138 C 0.51494 0.99255 0.34709 0.0
C1139 C 0.40706 0.99427 0.22452 0.0
H1140 H 0.51179 0.03563 0.70131 0.0
H1141 H 0.61206 0.99238 0.84961 0.0
H1142 H 0.50621 0.03914 0.80124 0.0
H1143 H 0.48404 0.04491 0.78576 0.0
H1144 H 0.44171 0.98916 0.7945 0.0
H1145 H 0.46466 0.98309 0.80856 0.0
H1146 H 0.53374 0.03906 0.78024 0.0
H1147 H 0.52882 0.0429 0.74734 0.0
H1148 H 0.48368 0.98668 0.74099 0.0
H1149 H 0.48891 0.98294 0.77387 0.0
H1150 H 0.56191 0.03988 0.8045 0.0
H1151 H 0.58604 0.04718 0.78345 0.0
H1152 H 0.5557 0.9914 0.75745 0.0
H1153 H 0.53116 0.98464 0.77808 0.0
H1154 H 0.55982 0.03083 0.84829 0.0
H1155 H 0.58754 0.03149 0.85973 0.0
H1156 H 0.57071 0.98021 0.82684 0.0
H1157 H 0.54294 0.97961 0.8157 0.0
H1158 H 0.52335 0.02403 0.86836 0.0
H1159 H 0.53198 0.0213 0.90025 0.0
H1160 H 0.53227 0.97146 0.88182 0.0
H1161 H 0.52169 0.97332 0.8505 0.0
H1162 H 0.49656 0.02947 0.84497 0.0
H1163 H 0.47649 0.02682 0.86968 0.0
H1164 H 0.46043 0.96921 0.87253 0.0
H1165 H 0.48034 0.97193 0.8476 0.0
O1166 O 0.51357 0.03376 0.71425 0.0
O1167 O 0.49044 0.00479 0.71173 0.0
O1168 O 0.60921 0.01878 0.86201 0.0
O1169 O 0.60122 0.99247 0.8453 0.0
C1170 C 0.50167 0.00676 0.81218 0.0
C1171 C 0.51461 0.00832 0.79942 0.0
C1172 C 0.53016 0.00772 0.80567 0.0
C1173 C 0.53244 0.0047 0.82451 0.0
C1174 C 0.51899 0.0019 0.83711 0.0
C1175 C 0.50359 0.00305 0.83096 0.0
C1176 C 0.48714 0.01064 0.80586 0.0
C1177 C 0.49212 0.02817 0.79988 0.0
C1178 C 0.47927 0.03149 0.79117 0.0
C1179 C 0.46085 0.01753 0.78873 0.0
C1180 C 0.45574 1.00018 0.79568 0.0
C1181 C 0.4688 0.99673 0.80403 0.0
C1182 C 0.51182 0.01065 0.77937 0.0
C1183 C 0.52294 0.02752 0.77166 0.0
C1184 C 0.52003 0.02971 0.75289 0.0
C1185 C 0.50588 0.01509 0.74152 0.0
C1186 C 0.49472 0.99821 0.74934 0.0
C1187 C 0.49768 0.99603 0.76811 0.0
C1188 C 0.54482 0.01174 0.79284 0.0
C1189 C 0.5605 0.02926 0.79422 0.0
C1190 C 0.57436 0.03334 0.78224 0.0
C1191 C 0.57302 0.01985 0.76875 0.0
C1192 C 0.55719 0.00224 0.76744 0.0
C1193 C 0.54319 0.99827 0.77931 0.0
C1194 C 0.54938 0.00516 0.8312 0.0
C1195 C 0.56214 0.01974 0.84361 0.0
C1196 C 0.57797 0.02009 0.8501 0.0
C1197 C 0.58134 0.00589 0.8442 0.0
C1198 C 0.56854 0.99136 0.83166 0.0
C1199 C 0.5527 0.991 0.82523 0.0
C1200 C 0.52187 0.99889 0.85701 0.0
C1201 C 0.52464 0.01217 0.87137 0.0
C1202 C 0.52999 0.01076 0.88959 0.0
C1203 C 0.53331 0.99636 0.89378 0.0
C1204 C 0.52974 0.98266 0.87943 0.0
C1205 C 0.52383 0.98378 0.86136 0.0
C1206 C 0.4899 1.00089 0.84443 0.0
C1207 C 0.48845 0.01619 0.85068 0.0
C1208 C 0.47712 0.01469 0.86493 0.0
C1209 C 0.46696 0.99783 0.87318 0.0
C1210 C 0.46795 0.98234 0.86639 0.0
C1211 C 0.47935 0.98389 0.85219 0.0
C1212 C 0.50278 0.01749 0.72161 0.0
C1213 C 0.59811 0.00617 0.85108 0.0
H1214 H 0.97495 0.47039 0.71111 0.0
H1215 H 0.03436 0.62545 0.86792 0.0
H1216 H 0.97967 0.46573 0.81251 0.0
H1217 H 0.97422 0.43651 0.79736 0.0
H1218 H 0.03166 0.45575 0.80375 0.0
H1219 H 0.03699 0.48513 0.81902 0.0
H1220 H 0.97724 0.49201 0.79028 0.0
H1221 H 0.97092 0.48146 0.75706 0.0
H1222 H 0.02738 0.4977 0.75287 0.0
H1223 H 0.03352 0.50837 0.78609 0.0
H1224 H 0.97802 0.52047 0.8095 0.0
H1225 H 0.97032 0.53846 0.78894 0.0
H1226 H 0.02633 0.56991 0.77546 0.0
H1227 H 0.03386 0.5515 0.79589 0.0
H1228 H 0.98903 0.53332 0.854 0.0
H1229 H 0.99051 0.56178 0.86653 0.0
H1230 H 0.04385 0.5939 0.84592 0.0
H1231 H 0.04224 0.5653 0.83365 0.0
H1232 H 0.9931 0.5046 0.87534 0.0
H1233 H 0.99448 0.51911 0.90613 0.0
H1234 H 0.04947 0.56215 0.89871 0.0
H1235 H 0.04779 0.54761 0.86773 0.0
H1236 H 0.98975 0.46877 0.85332 0.0
H1237 H 0.99266 0.44981 0.87659 0.0
H1238 H 0.04978 0.49012 0.88647 0.0
H1239 H 0.04665 0.50909 0.86323 0.0
O1240 O 0.97777 0.47478 0.72418 0.0
O1241 O 0.00693 0.48335 0.72277 0.0
O1242 O 0.00593 0.59684 0.87335 0.0
O1243 O 0.03334 0.614 0.86295 0.0
C1244 C 0.01191 0.49604 0.82357 0.0
C1245 C 0.00964 0.50718 0.81071 0.0
C1246 C 0.0109 0.52399 0.81707 0.0
C1247 C 0.01494 0.52996 0.83621 0.0
C1248 C 0.01761 0.51909 0.84908 0.0
C1249 C 0.01601 0.50203 0.84281 0.0
C1250 C 0.00872 0.47757 0.81675 0.0
C1251 C 0.99105 0.46356 0.81082 0.0
C1252 C 0.988 0.44695 0.80205 0.0
C1253 C 0.00256 0.44395 0.79909 0.0
C1254 C 0.02019 0.45767 0.80585 0.0
C1255 C 0.02325 0.47441 0.81458 0.0
C1256 C 0.00587 0.50114 0.79048 0.0
C1257 C 0.98825 0.49347 0.7821 0.0
C1258 C 0.98467 0.48736 0.76315 0.0
C1259 C 0.99866 0.48876 0.75229 0.0
C1260 C 0.01631 0.49645 0.76082 0.0
C1261 C 0.01987 0.50258 0.77976 0.0
C1262 C 0.00644 0.53461 0.80402 0.0
C1263 C 0.98857 0.53109 0.80192 0.0
C1264 C 0.98421 0.54134 0.79016 0.0
C1265 C 0.99772 0.55551 0.78054 0.0
C1266 C 0.01567 0.55908 0.78274 0.0
C1267 C 0.01998 0.54858 0.79431 0.0
C1268 C 0.01553 0.5473 0.84295 0.0
C1269 C 1.00099 0.54654 0.85218 0.0
C1270 C 1.00188 0.5628 0.85932 0.0
C1271 C 0.01733 0.58013 0.85725 0.0
C1272 C 0.03177 0.5808 0.84777 0.0
C1273 C 0.03087 0.56451 0.84068 0.0
C1274 C 0.02032 0.52506 0.86932 0.0
C1275 C 0.00565 0.5168 0.88064 0.0
C1276 C 0.00647 0.52517 0.89823 0.0
C1277 C 0.02202 0.54196 0.90479 0.0
C1278 C 0.03719 0.54943 0.89393 0.0
C1279 C 0.03634 0.54104 0.87634 0.0
C1280 C 0.01801 0.49025 0.85648 0.0
C1281 C 0.00293 0.4734 0.86036 0.0
C1282 C 0.00464 0.46256 0.87364 0.0
C1283 C 0.02149 0.4684 0.88337 0.0
C1284 C 0.03659 0.48529 0.87937 0.0
C1285 C 0.03486 0.49611 0.86605 0.0
C1286 C 0.99478 0.48216 0.7322 0.0
C1287 C 0.01844 0.59744 0.86501 0.0
H1288 H 0.48832 0.49704 0.70015 0.0
H1289 H 0.63112 0.6101 0.85679 0.0
H1290 H 0.47107 0.50049 0.7966 0.0
H1291 H 0.44507 0.47143 0.78303 0.0
H1292 H 0.46743 0.44102 0.80932 0.0
H1293 H 0.49296 0.47002 0.82313 0.0
H1294 H 0.50562 0.53185 0.77636 0.0
H1295 H 0.49791 0.52171 0.74309 0.0
H1296 H 0.50304 0.47385 0.75277 0.0
H1297 H 0.51094 0.48427 0.78595 0.0
H1298 H 0.5424 0.56556 0.79833 0.0
H1299 H 0.5659 0.58201 0.77655 0.0
H1300 H 0.57219 0.5341 0.76828 0.0
H1301 H 0.54867 0.51781 0.78992 0.0
H1302 H 0.54108 0.57021 0.84284 0.0
H1303 H 0.57037 0.59726 0.85353 0.0
H1304 H 0.59724 0.56662 0.83917 0.0
H1305 H 0.56784 0.53962 0.82873 0.0
H1306 H 0.51093 0.54446 0.86629 0.0
H1307 H 0.52229 0.55581 0.89901 0.0
H1308 H 0.55749 0.53268 0.8955 0.0
H1309 H 0.5462 0.52155 0.86298 0.0
H1310 H 0.47096 0.50507 0.8394 0.0
H1311 H 0.44924 0.4876 0.86248 0.0
H1312 H 0.48837 0.47579 0.88842 0.0
H1313 H 0.50962 0.49225 0.86473 0.0
O1314 O 0.49148 0.50084 0.71333 0.0
O1315 O 0.49421 0.47642 0.71906 0.0
O1316 O 0.60488 0.61474 0.85987 0.0
O1317 O 0.61936 0.59962 0.85266 0.0
C1318 C 0.50079 0.50488 0.81712 0.0
C1319 C 0.51326 0.51491 0.80375 0.0
C1320 C 0.53015 0.53071 0.80956 0.0
C1321 C 0.53452 0.53656 0.82876 0.0
C1322 C 0.52214 0.52654 0.84217 0.0
C1323 C 0.50516 0.51073 0.83639 0.0
C1324 C 0.48386 0.48734 0.81088 0.0
C1325 C 0.47012 0.48749 0.79966 0.0
C1326 C 0.45537 0.47088 0.7918 0.0
C1327 C 0.45415 0.45383 0.79497 0.0
C1328 C 0.4677 0.4538 0.80677 0.0
C1329 C 0.48236 0.47038 0.81468 0.0
C1330 C 0.50873 0.50874 0.78355 0.0
C1331 C 0.50511 0.51921 0.77124 0.0
C1332 C 0.50068 0.51336 0.75226 0.0
C1333 C 0.49981 0.49694 0.74527 0.0
C1334 C 0.50355 0.48654 0.75769 0.0
C1335 C 0.50802 0.49243 0.77665 0.0
C1336 C 0.54377 0.54047 0.79566 0.0
C1337 C 0.54881 0.55862 0.79171 0.0
C1338 C 0.56228 0.56801 0.77933 0.0
C1339 C 0.57093 0.55938 0.77063 0.0
C1340 C 0.56563 0.54107 0.77447 0.0
C1341 C 0.55222 0.53175 0.78688 0.0
C1342 C 0.55237 0.55301 0.83498 0.0
C1343 C 0.55332 0.56938 0.84205 0.0
C1344 C 0.57006 0.5848 0.84812 0.0
C1345 C 0.58616 0.5841 0.84719 0.0
C1346 C 0.58512 0.56764 0.84006 0.0
C1347 C 0.56836 0.55222 0.83404 0.0
C1348 C 0.52771 0.53215 0.86234 0.0
C1349 C 0.52094 0.54171 0.87271 0.0
C1350 C 0.5275 0.54825 0.89129 0.0
C1351 C 0.54073 0.54507 0.89979 0.0
C1352 C 0.54714 0.53513 0.88942 0.0
C1353 C 0.54077 0.52883 0.87084 0.0
C1354 C 0.49203 0.50019 0.85047 0.0
C1355 C 0.47481 0.49859 0.84996 0.0
C1356 C 0.46244 0.48867 0.86312 0.0
C1357 C 0.46726 0.48054 0.87725 0.0
C1358 C 0.48446 0.48214 0.87777 0.0
C1359 C 0.49663 0.49163 0.86433 0.0
C1360 C 0.49501 0.49073 0.72512 0.0
C1361 C 0.60399 0.60044 0.85363 0.0
H1362 H 0.66064 0.84969 0.69369 0.0
H1363 H 0.66008 0.72149 0.51975 0.0
H1364 H 0.6314 0.84566 0.5834 0.0
H1365 H 0.6379 0.87546 0.59873 0.0
H1366 H 0.69477 0.89229 0.60544 0.0
H1367 H 0.68817 0.86269 0.59024 0.0
H1368 H 0.63364 0.82153 0.61617 0.0
H1369 H 0.63973 0.83202 0.64942 0.0
H1370 H 0.69573 0.84632 0.64577 0.0
H1371 H 0.68948 0.83597 0.6125 0.0
H1372 H 0.6334 0.77845 0.60769 0.0
H1373 H 0.64117 0.76026 0.62823 0.0
H1374 H 0.69649 0.78996 0.61234 0.0
H1375 H 0.68854 0.80765 0.59159 0.0
H1376 H 0.62556 0.76361 0.5709 0.0
H1377 H 0.62373 0.73503 0.5582 0.0
H1378 H 0.67454 0.76733 0.53277 0.0
H1379 H 0.67635 0.79577 0.54583 0.0
H1380 H 0.61893 0.77977 0.5366 0.0
H1381 H 0.61651 0.76463 0.50569 0.0
H1382 H 0.66834 0.81062 0.49381 0.0
H1383 H 0.67113 0.82533 0.52504 0.0
H1384 H 0.62146 0.82181 0.53827 0.0
H1385 H 0.62046 0.84109 0.51402 0.0
H1386 H 0.67766 0.87981 0.52652 0.0
H1387 H 0.67862 0.8602 0.55016 0.0
O1388 O 0.65852 0.84555 0.68055 0.0
O1389 O 0.68714 0.85257 0.67796 0.0
O1390 O 0.63494 0.71655 0.53923 0.0
O1391 O 0.66066 0.73256 0.52528 0.0
C1392 C 0.6554 0.83326 0.57896 0.0
C1393 C 0.65733 0.82188 0.59176 0.0
C1394 C 0.65588 0.80501 0.5853 0.0
C1395 C 0.65168 0.79905 0.56616 0.0
C1396 C 0.64895 0.81 0.55336 0.0
C1397 C 0.65113 0.82732 0.55971 0.0
C1398 C 0.6593 0.852 0.58585 0.0
C1399 C 0.64527 0.85594 0.58794 0.0
C1400 C 0.649 0.87292 0.5967 0.0
C1401 C 0.6668 0.88609 0.60356 0.0
C1402 C 0.68087 0.88229 0.60068 0.0
C1403 C 0.67716 0.86546 0.59188 0.0
C1404 C 0.66106 0.8278 0.61202 0.0
C1405 C 0.64719 0.82686 0.62262 0.0
C1406 C 0.65071 0.83288 0.64159 0.0
C1407 C 0.66821 0.83996 0.65027 0.0
C1408 C 0.68209 0.84088 0.63955 0.0
C1409 C 0.67855 0.83488 0.62057 0.0
C1410 C 0.66044 0.79437 0.59825 0.0
C1411 C 0.64718 0.781 0.60872 0.0
C1412 C 0.65161 0.77064 0.62036 0.0
C1413 C 0.66945 0.77382 0.62193 0.0
C1414 C 0.6827 0.7874 0.61156 0.0
C1415 C 0.67819 0.79745 0.59969 0.0
C1416 C 0.65109 0.78172 0.5593 0.0
C1417 C 0.63638 0.76446 0.56278 0.0
C1418 C 0.63533 0.74817 0.55543 0.0
C1419 C 0.64897 0.7489 0.54441 0.0
C1420 C 0.6638 0.76626 0.54116 0.0
C1421 C 0.66488 0.78252 0.54861 0.0
C1422 C 0.64525 0.80361 0.53314 0.0
C1423 C 0.62954 0.78682 0.52714 0.0
C1424 C 0.62819 0.77817 0.50956 0.0
C1425 C 0.64229 0.78645 0.49751 0.0
C1426 C 0.65725 0.80404 0.50285 0.0
C1427 C 0.6588 0.8125 0.52062 0.0
C1428 C 0.65009 0.83964 0.54605 0.0
C1429 C 0.63372 0.83453 0.53581 0.0
C1430 C 0.63316 0.8456 0.52205 0.0
C1431 C 0.649 0.86196 0.51825 0.0
C1432 C 0.66527 0.86718 0.52887 0.0
C1433 C 0.66581 0.85611 0.54255 0.0
C1434 C 0.67193 0.84642 0.67041 0.0
C1435 C 0.64771 0.73166 0.53621 0.0
H1436 H 0.16324 0.85316 0.69802 0.0
H1437 H 0.05865 0.69929 0.54381 0.0
H1438 H 0.16864 0.85812 0.59457 0.0
H1439 H 0.19253 0.88721 0.61023 0.0
H1440 H 0.22933 0.86583 0.61019 0.0
H1441 H 0.20521 0.83666 0.59417 0.0
H1442 H 0.14134 0.83246 0.61837 0.0
H1443 H 0.14684 0.84291 0.65162 0.0
H1444 H 0.18549 0.82406 0.65752 0.0
H1445 H 0.17972 0.81353 0.62427 0.0
H1446 H 0.1117 0.80322 0.59778 0.0
H1447 H 0.08838 0.78785 0.62 0.0
H1448 H 0.1144 0.75763 0.63768 0.0
H1449 H 0.138 0.77344 0.6156 0.0
H1450 H 0.10939 0.79147 0.55274 0.0
H1451 H 0.08145 0.76346 0.54068 0.0
H1452 H 0.1008 0.72996 0.56579 0.0
H1453 H 0.12875 0.75809 0.5776 0.0
H1454 H 0.14273 0.82135 0.5336 0.0
H1455 H 0.13262 0.81039 0.50088 0.0
H1456 H 0.14021 0.76374 0.50877 0.0
H1457 H 0.15016 0.7748 0.54166 0.0
H1458 H 0.17368 0.8545 0.55572 0.0
H1459 H 0.19428 0.87282 0.53242 0.0
H1460 H 0.21024 0.83162 0.52412 0.0
H1461 H 0.18982 0.81356 0.54781 0.0
O1462 O 0.16119 0.84883 0.68494 0.0
O1463 O 0.18095 0.83892 0.68722 0.0
O1464 O 0.06025 0.72844 0.53575 0.0
O1465 O 0.06954 0.71059 0.54844 0.0
C1466 C 0.16978 0.827 0.58621 0.0
C1467 C 0.15691 0.81605 0.5988 0.0
C1468 C 0.14099 0.79959 0.59218 0.0
C1469 C 0.13813 0.79377 0.57297 0.0
C1470 C 0.15115 0.80449 0.56035 0.0
C1471 C 0.16702 0.82117 0.56696 0.0
C1472 C 0.18522 0.84533 0.59325 0.0
C1473 C 0.18195 0.85983 0.59768 0.0
C1474 C 0.19556 0.87635 0.6068 0.0
C1475 C 0.21274 0.87872 0.61174 0.0
C1476 C 0.21625 0.86443 0.60654 0.0
C1477 C 0.20253 0.84781 0.59738 0.0
C1478 C 0.16002 0.8221 0.61902 0.0
C1479 C 0.15087 0.83046 0.62693 0.0
C1480 C 0.15409 0.83648 0.64589 0.0
C1481 C 0.16659 0.8343 0.65724 0.0
C1482 C 0.17576 0.82592 0.64919 0.0
C1483 C 0.17249 0.81989 0.63023 0.0
C1484 C 0.12651 0.78944 0.60511 0.0
C1485 C 0.11235 0.79327 0.60643 0.0
C1486 C 0.09912 0.78457 0.61918 0.0
C1487 C 0.09965 0.77163 0.63062 0.0
C1488 C 0.11366 0.76751 0.62899 0.0
C1489 C 0.12711 0.7765 0.61644 0.0
C1490 C 0.12107 0.77677 0.56598 0.0
C1491 C 0.10756 0.77806 0.55558 0.0
C1492 C 0.09162 0.76205 0.54874 0.0
C1493 C 0.0889 0.74446 0.55226 0.0
C1494 C 0.10246 0.74327 0.56282 0.0
C1495 C 0.11841 0.7593 0.56961 0.0
C1496 C 0.14725 0.79892 0.53998 0.0
C1497 C 0.14257 0.80898 0.52816 0.0
C1498 C 0.13681 0.80268 0.50944 0.0
C1499 C 0.13556 0.78615 0.50218 0.0
C1500 C 0.1408 0.7764 0.51397 0.0
C1501 C 0.1466 0.78274 0.53271 0.0
C1502 C 0.18035 0.83276 0.55358 0.0
C1503 C 0.18182 0.84957 0.54908 0.0
C1504 C 0.19347 0.85992 0.53561 0.0
C1505 C 0.20387 0.85365 0.52633 0.0
C1506 C 0.20258 0.83694 0.53113 0.0
C1507 C 0.19087 0.82656 0.54459 0.0
C1508 C 0.17006 0.84079 0.67736 0.0
C1509 C 0.07202 0.7274 0.54496 0.0
H1510 H 0.19249 0.3408 0.70701 0.0
H1511 H 0.04961 0.31534 0.55684 0.0
H1512 H 0.20756 0.36011 0.61047 0.0
H1513 H 0.23124 0.35573 0.62544 0.0
H1514 H 0.20508 0.29995 0.59949 0.0
H1515 H 0.18197 0.30481 0.58411 0.0
H1516 H 0.17489 0.35792 0.63371 0.0
H1517 H 0.18315 0.35586 0.66619 0.0
H1518 H 0.17259 0.30038 0.65216 0.0
H1519 H 0.16415 0.30255 0.6198 0.0
H1520 H 0.13819 0.35569 0.61451 0.0
H1521 H 0.11553 0.3497 0.6374 0.0
H1522 H 0.10555 0.29389 0.63985 0.0
H1523 H 0.12821 0.30006 0.61711 0.0
H1524 H 0.13996 0.3621 0.57078 0.0
H1525 H 0.11172 0.36155 0.56184 0.0
H1526 H 0.08128 0.30324 0.57092 0.0
H1527 H 0.10964 0.30395 0.57963 0.0
H1528 H 0.16985 0.36547 0.54646 0.0
H1529 H 0.15919 0.36735 0.51474 0.0
H1530 H 0.11965 0.30895 0.51219 0.0
H1531 H 0.13027 0.30725 0.54378 0.0
H1532 H 0.20751 0.36282 0.56904 0.0
H1533 H 0.22734 0.36613 0.54368 0.0
H1534 H 0.1847 0.31518 0.51569 0.0
H1535 H 0.16532 0.31131 0.5415 0.0
O1536 O 0.18901 0.34126 0.69415 0.0
O1537 O 0.18351 0.31283 0.68618 0.0
O1538 O 0.07727 0.34591 0.55577 0.0
O1539 O 0.06098 0.31594 0.56031 0.0
C1540 C 0.17665 0.33384 0.59075 0.0
C1541 C 0.16455 0.332 0.60463 0.0
C1542 C 0.14818 0.33163 0.59978 0.0
C1543 C 0.14402 0.33344 0.58105 0.0
C1544 C 0.15603 0.33525 0.5671 0.0
C1545 C 0.17239 0.33537 0.57188 0.0
C1546 C 0.19308 0.33279 0.59617 0.0
C1547 C 0.20732 0.34717 0.60759 0.0
C1548 C 0.22069 0.34452 0.61634 0.0
C1549 C 0.21998 0.32737 0.61397 0.0
C1550 C 0.20626 0.31341 0.60155 0.0
C1551 C 0.193 0.31614 0.59269 0.0
C1552 C 0.16904 0.33043 0.62442 0.0
C1553 C 0.1743 0.34531 0.63773 0.0
C1554 C 0.17904 0.34411 0.65625 0.0
C1555 C 0.17859 0.32798 0.66176 0.0
C1556 C 0.17313 0.31302 0.64838 0.0
C1557 C 0.16834 0.31423 0.62988 0.0
C1558 C 0.1349 0.32834 0.61418 0.0
C1559 C 0.13113 0.34221 0.62007 0.0
C1560 C 0.11814 0.33873 0.63309 0.0
C1561 C 0.10873 0.32131 0.64053 0.0
C1562 C 0.11273 0.30754 0.63469 0.0
C1563 C 0.12564 0.31101 0.62163 0.0
C1564 C 0.12682 0.33308 0.57588 0.0
C1565 C 0.12717 0.34922 0.5708 0.0
C1566 C 0.11102 0.34887 0.56572 0.0
C1567 C 0.09422 0.33234 0.56568 0.0
C1568 C 0.09396 0.3162 0.57082 0.0
C1569 C 0.11013 0.31656 0.57584 0.0
C1570 C 0.15085 0.33622 0.54736 0.0
C1571 C 0.15904 0.35308 0.53892 0.0
C1572 C 0.15287 0.35414 0.52091 0.0
C1573 C 0.13861 0.33829 0.511 0.0
C1574 C 0.1308 0.32135 0.51938 0.0
C1575 C 0.13679 0.32036 0.53742 0.0
C1576 C 0.18483 0.33692 0.55709 0.0
C1577 C 0.20254 0.35221 0.55761 0.0
C1578 C 0.21382 0.35413 0.54312 0.0
C1579 C 0.20742 0.341 0.52772 0.0
C1580 C 0.18984 0.32558 0.52734 0.0
C1581 C 0.17876 0.32342 0.54203 0.0
C1582 C 0.18383 0.32682 0.6814 0.0
C1583 C 0.07703 0.33189 0.56028 0.0
H1584 H 0.0309 0.42334 0.07628 0.0
H1585 H 0.97274 0.38807 0.06676 0.0
H1586 H 0.02655 0.44024 0.10206 0.0
H1587 H 0.96839 0.40533 0.09248 0.0
H1588 H 0.97089 0.42779 0.15391 0.0
H1589 H 0.97294 0.4107 0.12652 0.0
H1590 H 0.01582 0.46172 0.10775 0.0
H1591 H 0.01385 0.47875 0.13521 0.0
C1592 C 0.01716 0.41921 0.07963 0.0
C1593 C 1.00217 0.40433 0.0694 0.0
C1594 C 0.01466 0.42902 0.09435 0.0
C1595 C 0.99712 0.42427 0.09924 0.0
C1596 C 0.98209 0.40928 0.08915 0.0
C1597 C 0.98459 0.39943 0.07437 0.0
C1598 C 0.9805 0.43539 0.14374 0.0
C1599 C 0.99227 0.45461 0.14676 0.0
C1600 C 0.9817 0.42559 0.12805 0.0
C1601 C 0.99468 0.43481 0.11504 0.0
C1602 C 0.00594 0.45414 0.11771 0.0
C1603 C 0.00478 0.46391 0.1334 0.0
H1604 H 0.61345 0.56479 0.10348 0.0
H1605 H 0.59226 0.60166 0.11212 0.0
H1606 H 0.59556 0.54643 0.12845 0.0
H1607 H 0.57484 0.58369 0.13711 0.0
H1608 H 0.52895 0.53574 0.1633 0.0
H1609 H 0.54833 0.55383 0.13937 0.0
H1610 H 0.59158 0.54633 0.16224 0.0
H1611 H 0.57202 0.52806 0.18629 0.0
C1612 C 0.60519 0.56912 0.11084 0.0
C1613 C 0.60417 0.5846 0.10564 0.0
C1614 C 0.59496 0.55863 0.12518 0.0
C1615 C 0.58354 0.56342 0.13462 0.0
C1616 C 0.58312 0.57931 0.12985 0.0
C1617 C 0.59324 0.58971 0.11556 0.0
C1618 C 0.54264 0.53806 0.16336 0.0
C1619 C 0.54897 0.5306 0.17685 0.0
C1620 C 0.55378 0.54846 0.14962 0.0
C1621 C 0.57162 0.55174 0.14898 0.0
C1622 C 0.57788 0.54397 0.16224 0.0
C1623 C 0.56668 0.53351 0.17603 0.0
H1624 H 0.40179 0.97016 0.07237 0.0
H1625 H 0.43159 0.02991 0.07377 0.0
H1626 H 0.4172 0.97149 0.1021 0.0
H1627 H 0.44709 0.03116 0.10371 0.0
H1628 H 0.48375 0.02125 0.14709 0.0
H1629 H 0.4694 0.02178 0.11712 0.0
H1630 H 0.41692 0.98237 0.13522 0.0
H1631 H 0.43103 0.98217 0.16521 0.0
C1632 C 0.41167 0.9836 0.07897 0.0
C1633 C 0.4154 0.99994 0.07068 0.0
C1634 C 0.42044 0.98434 0.09608 0.0
C1635 C 0.43328 0.00143 0.10529 0.0
C1636 C 0.43731 0.01779 0.09688 0.0
C1637 C 0.42837 0.01706 0.0798 0.0
C1638 C 0.46913 0.01287 0.14477 0.0
C1639 C 0.4586 0.00148 0.15853 0.0
C1640 C 0.46093 0.01316 0.12759 0.0
C1641 C 0.44206 0.00197 0.12377 0.0
C1642 C 0.43153 0.99087 0.13762 0.0
C1643 C 0.43966 0.9907 0.1548 0.0
H1644 H 0.39791 0.96361 0.96792 0.0
H1645 H 0.41937 0.02253 0.96736 0.0
H1646 H 0.41361 0.96425 0.93985 0.0
H1647 H 0.43447 0.02309 0.93918 0.0
H1648 H 0.47696 0.02264 0.90346 0.0
H1649 H 0.45981 0.02083 0.9304 0.0
H1650 H 0.41521 0.96852 0.9068 0.0
H1651 H 0.43264 0.97025 0.87987 0.0
C1652 C 0.40578 0.97664 0.96169 0.0
C1653 C 0.40751 0.99304 0.97002 0.0
C1654 C 0.41473 0.97701 0.94554 0.0
C1655 C 0.42553 0.99377 0.93731 0.0
C1656 C 0.42669 0.01 0.94534 0.0
C1657 C 0.4179 0.00966 0.96149 0.0
C1658 C 0.46341 0.01085 0.9039 0.0
C1659 C 0.45612 0.99668 0.88942 0.0
C1660 C 0.45353 0.00979 0.91937 0.0
C1661 C 0.436 0.99459 0.92078 0.0
C1662 C 0.42872 0.98034 0.90632 0.0
C1663 C 0.43869 0.98135 0.89085 0.0
H1664 H 0.99123 0.38754 0.9645 0.0
H1665 H 0.04861 0.42288 0.9794 0.0
H1666 H 0.99391 0.40499 0.93749 0.0
H1667 H 0.05133 0.4403 0.95202 0.0
H1668 H 0.04048 0.4805 0.9176 0.0
H1669 H 0.0412 0.46186 0.94242 0.0
H1670 H 0.00672 0.41207 0.90711 0.0
H1671 H 0.00605 0.4307 0.88227 0.0
C1672 C 0.00449 0.39891 0.96189 0.0
C1673 C 0.01969 0.40386 0.97421 0.0
C1674 C 0.00604 0.40885 0.94629 0.0
C1675 C 0.02282 0.42407 0.94259 0.0
C1676 C 0.03817 0.42876 0.9546 0.0
C1677 C 0.03664 0.4187 0.97021 0.0
C1678 C 0.03332 0.46559 0.915 0.0
C1679 C 0.02307 0.4571 0.89798 0.0
C1680 C 0.03375 0.4549 0.92923 0.0
C1681 C 0.02393 0.43546 0.9268 0.0
C1682 C 0.01419 0.427 0.90956 0.0
C1683 C 0.01377 0.43768 0.89533 0.0
H1684 H 0.60864 0.57379 1.00155 0.0
H1685 H 0.5838 0.6075 0.00905 0.0
H1686 H 0.59126 0.56066 0.97176 0.0
H1687 H 0.5659 0.59388 0.97937 0.0
H1688 H 0.55297 0.58009 0.91532 0.0
H1689 H 0.56857 0.5933 0.94614 0.0
H1690 H 0.56123 0.54007 0.95882 0.0
H1691 H 0.54608 0.52709 0.92789 0.0
C1692 C 0.59936 0.57832 0.99691 0.0
C1693 C 0.59762 0.5917 0.00773 0.0
C1694 C 0.58926 0.57067 0.97985 0.0
C1695 C 0.57703 0.57607 0.97318 0.0
C1696 C 0.57531 0.58951 0.98397 0.0
C1697 C 0.58552 0.59727 1.00104 0.0
C1698 C 0.55449 0.57119 0.92484 0.0
C1699 C 0.54844 0.55261 0.91917 0.0
C1700 C 0.56342 0.57874 0.9425 0.0
C1701 C 0.56636 0.56781 0.95493 0.0
C1702 C 0.55961 0.54902 0.94947 0.0
C1703 C 0.55085 0.54154 0.93178 0.0
H1704 H 0.03622 0.62215 0.99659 0.0
H1705 H 0.98077 0.57708 0.9957 0.0
H1706 H 0.04191 0.60576 0.97103 0.0
H1707 H 0.98646 0.56089 0.9702 0.0
H1708 H 0.00751 0.52837 0.93795 0.0
H1709 H 0.00422 0.54525 0.96475 0.0
H1710 H 0.03232 0.59608 0.93721 0.0
H1711 H 0.0354 0.57923 0.91033 0.0
C1712 C 0.02524 0.6088 0.99093 0.0
C1713 C 0.00804 0.60095 0.99821 0.0
C1714 C 0.0285 0.59944 0.97627 0.0
C1715 C 0.01466 0.58198 0.96869 0.0
C1716 C 0.99748 0.57418 0.97594 0.0
C1717 C 0.99418 0.58356 0.99046 0.0
C1718 C 0.01303 0.54315 0.93763 0.0
C1719 C 0.0217 0.55242 0.92197 0.0
C1720 C 0.01113 0.55282 0.95297 0.0
C1721 C 0.01792 0.57198 0.95304 0.0
C1722 C 0.02712 0.58136 0.93767 0.0
C1723 C 0.02895 0.57169 0.92229 0.0
H1724 H 0.39928 0.44293 0.9723 0.0
H1725 H 0.40124 0.39564 0.94863 0.0
H1726 H 0.41679 0.46115 0.94697 0.0
H1727 H 0.41821 0.4137 0.92309 0.0
H1728 H 0.43337 0.45028 0.87141 0.0
H1729 H 0.4128 0.43239 0.89518 0.0
H1730 H 0.45162 0.47035 0.93871 0.0
H1731 H 0.47238 0.48787 0.915 0.0
C1732 C 0.40313 0.43634 0.9615 0.0
C1733 C 0.39894 0.41789 0.96245 0.0
C1734 C 0.4132 0.44677 0.9471 0.0
C1735 C 0.41881 0.43878 0.93315 0.0
C1736 C 0.41395 0.42012 0.93364 0.0
C1737 C 0.4043 0.40984 0.94827 0.0
C1738 C 0.43739 0.4548 0.88607 0.0
C1739 C 0.45441 0.47037 0.89146 0.0
C1740 C 0.42569 0.4446 0.8996 0.0
C1741 C 0.43064 0.45009 0.91871 0.0
C1742 C 0.44746 0.46596 0.92405 0.0
C1743 C 0.45933 0.47589 0.91055 0.0
H1744 H 0.5664 0.97237 1.00211 0.0
H1745 H 0.61085 0.025 0.98881 0.0
H1746 H 0.5491 0.97118 0.97366 0.0
H1747 H 0.59436 0.02335 0.95987 0.0
H1748 H 0.55697 0.02631 0.91765 0.0
H1749 H 0.57136 0.0266 0.94728 0.0
H1750 H 0.54502 0.96688 0.94151 0.0
H1751 H 0.52889 0.96646 0.91278 0.0
C1752 C 0.57255 0.98355 0.99294 0.0
C1753 C 0.58989 0.99885 0.99774 0.0
C1754 C 0.56269 0.98286 0.97654 0.0
C1755 C 0.57015 0.99726 0.96435 0.0
C1756 C 0.58779 0.01226 0.96904 0.0
C1757 C 0.59739 0.01315 0.98561 0.0
C1758 C 0.55372 0.01314 0.92284 0.0
C1759 C 0.54162 0.99635 0.91255 0.0
C1760 C 0.56241 0.01333 0.9398 0.0
C1761 C 0.55976 0.99679 0.94684 0.0
C1762 C 0.54742 0.97996 0.93675 0.0
C1763 C 0.53835 0.97973 0.91997 0.0
H1764 H 0.59841 0.98381 0.10777 0.0
H1765 H 0.59967 0.03386 0.09329 0.0
H1766 H 0.58385 0.98392 0.1362 0.0
H1767 H 0.58382 0.03338 0.12109 0.0
H1768 H 0.56416 0.03469 0.1784 0.0
H1769 H 0.58305 0.03694 0.153 0.0
H1770 H 0.55647 0.97722 0.1465 0.0
H1771 H 0.5391 0.97508 0.17302 0.0
C1772 C 0.59547 0.99483 0.11069 0.0
C1773 C 0.60011 0.00879 0.09829 0.0
C1774 C 0.5869 0.99481 0.12693 0.0
C1775 C 0.5822 0.00845 0.13099 0.0
C1776 C 0.58732 0.02272 0.11873 0.0
C1777 C 0.59636 0.02299 0.10269 0.0
C1778 C 0.56262 0.02202 0.17188 0.0
C1779 C 0.54993 0.00468 0.17793 0.0
C1780 C 0.5733 0.02331 0.15698 0.0
C1781 C 0.57141 0.00729 0.14744 0.0
C1782 C 0.55873 0.98998 0.15356 0.0
C1783 C 0.54837 0.98871 0.16866 0.0
H1784 H 0.9621 0.58631 0.09331 0.0
H1785 H 0.02039 0.61026 0.09745 0.0
H1786 H 0.95997 0.56941 0.12093 0.0
H1787 H 0.01823 0.59308 0.12441 0.0
H1788 H 0.01241 0.57199 0.18114 0.0
H1789 H 0.01222 0.59086 0.15636 0.0
H1790 H 0.9632 0.54394 0.13041 0.0
H1791 H 0.96318 0.52525 0.15563 0.0
C1792 C 0.97445 0.58802 0.10012 0.0
C1793 C 0.99141 0.59967 0.09314 0.0
C1794 C 0.97322 0.57824 0.11588 0.0
C1795 C 0.98893 0.57987 0.12497 0.0
C1796 C 0.00586 0.59171 0.11806 0.0
C1797 C 0.00709 0.60151 0.10244 0.0
C1798 C 1.00155 0.56577 0.17018 0.0
C1799 C 0.98791 0.54712 0.17021 0.0
C1800 C 1.00145 0.57655 0.15593 0.0
C1801 C 0.98783 0.56889 0.14119 0.0
C1802 C 0.97381 0.55038 0.1416 0.0
C1803 C 0.97381 0.53963 0.156 0.0
H1804 H 0.40539 0.43427 0.06261 0.0
H1805 H 0.41547 0.38856 0.06242 0.0
H1806 H 0.42234 0.44639 0.09271 0.0
H1807 H 0.43213 0.40051 0.093 0.0
H1808 H 0.47507 0.43783 0.14059 0.0
H1809 H 0.45957 0.42562 0.10948 0.0
H1810 H 0.41846 0.43872 0.12451 0.0
H1811 H 0.43401 0.45104 0.15528 0.0
C1812 C 0.41118 0.42675 0.06902 0.0
C1813 C 0.40895 0.41035 0.06012 0.0
C1814 C 0.42083 0.43366 0.08637 0.0
C1815 C 0.42844 0.42433 0.09542 0.0
C1816 C 0.42656 0.40812 0.08638 0.0
C1817 C 0.41694 0.40122 0.06889 0.0
C1818 C 0.46269 0.43803 0.1372 0.0
C1819 C 0.45589 0.44561 0.15029 0.0
C1820 C 0.45378 0.431 0.11941 0.0
C1821 C 0.43785 0.43135 0.11441 0.0
C1822 C 0.43093 0.43864 0.12769 0.0
C1823 C 0.43984 0.44571 0.14536 0.0
H1824 H 0.68132 0.73539 0.42166 0.0
H1825 H 0.63572 0.7305 0.38829 0.0
H1826 H 0.67366 0.74904 0.44811 0.0
H1827 H 0.62841 0.74475 0.41476 0.0
H1828 H 0.64599 0.79648 0.46145 0.0
H1829 H 0.64919 0.77982 0.43407 0.0
H1830 H 0.64349 0.73653 0.46853 0.0
H1831 H 0.63983 0.75289 0.49571 0.0
C1832 C 0.66965 0.73722 0.42 0.0
C1833 C 0.6591 0.73187 0.40293 0.0
C1834 C 0.66525 0.74496 0.43513 0.0
C1835 C 0.65048 0.74791 0.43339 0.0
C1836 C 0.63988 0.7426 0.41637 0.0
C1837 C 0.64402 0.7344 0.40132 0.0
C1838 C 0.64511 0.78326 0.46302 0.0
C1839 C 0.64254 0.77586 0.48057 0.0
C1840 C 0.64688 0.77373 0.44742 0.0
C1841 C 0.64655 0.75694 0.44928 0.0
C1842 C 0.64373 0.74945 0.46678 0.0
C1843 C 0.64157 0.75873 0.48225 0.0
H1844 H 0.27836 0.89668 0.4364 0.0
H1845 H 0.2582 0.9344 0.44529 0.0
H1846 H 0.26082 0.87886 0.4618 0.0
H1847 H 0.24117 0.91699 0.47076 0.0
H1848 H 0.19567 0.87008 0.49858 0.0
H1849 H 0.21461 0.88777 0.4742 0.0
H1850 H 0.25754 0.87899 0.49546 0.0
H1851 H 0.2384 0.86105 0.5199 0.0
C1852 C 0.27039 0.90131 0.4439 0.0
C1853 C 0.26956 0.91688 0.43866 0.0
C1854 C 0.26037 0.89113 0.45851 0.0
C1855 C 0.24936 0.89633 0.46819 0.0
C1856 C 0.24912 0.91229 0.46334 0.0
C1857 C 0.25901 0.92237 0.44877 0.0
C1858 C 0.20921 0.87205 0.49819 0.0
C1859 C 0.21556 0.86428 0.51132 0.0
C1860 C 0.22011 0.88222 0.48419 0.0
C1861 C 0.23772 0.885 0.48294 0.0
C1862 C 0.24401 0.87701 0.4959 0.0
C1863 C 0.23304 0.86675 0.50992 0.0
H1864 H 0.0709 0.30661 0.40857 0.0
H1865 H 0.10062 0.36627 0.40874 0.0
H1866 H 0.08756 0.30844 0.43751 0.0
H1867 H 0.11781 0.36809 0.43754 0.0
H1868 H 0.12966 0.36374 0.5001 0.0
H1869 H 0.11488 0.36367 0.47026 0.0
H1870 H 0.11659 0.31523 0.44977 0.0
H1871 H 0.1309 0.3151 0.47975 0.0
C1872 C 0.08111 0.32015 0.4147 0.0
C1873 C 0.08441 0.33629 0.40629 0.0
C1874 C 0.09079 0.32119 0.43127 0.0
C1875 C 0.10417 0.33841 0.43985 0.0
C1876 C 0.10748 0.3546 0.43145 0.0
C1877 C 0.09768 0.35355 0.41488 0.0
C1878 C 0.12707 0.35325 0.4891 0.0
C1879 C 0.13131 0.33935 0.49228 0.0
C1880 C 0.11862 0.3532 0.47198 0.0
C1881 C 0.11434 0.33933 0.45761 0.0
C1882 C 0.11926 0.32587 0.46063 0.0
C1883 C 0.12754 0.32582 0.47778 0.0
H1884 H 0.06362 0.29693 0.30426 0.0
H1885 H 0.0897 0.35639 0.30354 0.0
H1886 H 0.07881 0.29586 0.27635 0.0
H1887 H 0.10438 0.35528 0.27556 0.0
H1888 H 0.14472 0.35024 0.24013 0.0
H1889 H 0.12827 0.35001 0.26718 0.0
H1890 H 0.08076 0.30025 0.24313 0.0
H1891 H 0.09743 0.30039 0.21603 0.0
C1892 C 0.07242 0.30973 0.29805 0.0
C1893 C 0.07555 0.32675 0.30626 0.0
C1894 C 0.08108 0.30912 0.282 0.0
C1895 C 0.09301 0.32551 0.27378 0.0
C1896 C 0.09565 0.34242 0.28172 0.0
C1897 C 0.08711 0.34304 0.29775 0.0
C1898 C 0.13071 0.33934 0.24051 0.0
C1899 C 0.12235 0.32544 0.22582 0.0
C1900 C 0.12124 0.3392 0.25604 0.0
C1901 C 0.10309 0.32521 0.25731 0.0
C1902 C 0.09476 0.31115 0.24272 0.0
C1903 C 0.1043 0.31124 0.22717 0.0
H1904 H 0.67208 0.71734 0.29122 0.0
H1905 H 0.70646 0.76796 0.32519 0.0
H1906 H 0.67597 0.73483 0.26393 0.0
H1907 H 0.70926 0.7858 0.29833 0.0
H1908 H 0.71856 0.8148 0.24537 0.0
H1909 H 0.7197 0.79634 0.2699 0.0
H1910 H 0.66573 0.75232 0.2509 0.0
H1911 H 0.66548 0.76984 0.22526 0.0
C1912 C 0.68051 0.73228 0.29278 0.0
C1913 C 0.68894 0.74132 0.31026 0.0
C1914 C 0.68257 0.74239 0.27718 0.0
C1915 C 0.69261 0.76189 0.2788 0.0
C1916 C 0.70159 0.77086 0.29629 0.0
C1917 C 0.69995 0.76066 0.31178 0.0
C1918 C 0.70711 0.80098 0.24608 0.0
C1919 C 0.69187 0.79397 0.23321 0.0
C1920 C 0.70763 0.79045 0.26046 0.0
C1921 C 0.69277 0.77274 0.26267 0.0
C1922 C 0.67764 0.76569 0.24966 0.0
C1923 C 0.67731 0.77601 0.23505 0.0
H1924 H 0.2735 0.90542 0.33433 0.0
H1925 H 0.24941 0.93986 0.34152 0.0
H1926 H 0.25642 0.89265 0.30437 0.0
H1927 H 0.23178 0.92658 0.31163 0.0
H1928 H 0.21187 0.85994 0.25973 0.0
H1929 H 0.22659 0.87251 0.29088 0.0
H1930 H 0.23477 0.92612 0.27848 0.0
H1931 H 0.21958 0.9133 0.24744 0.0
C1932 C 0.26443 0.91018 0.32959 0.0
C1933 C 0.26283 0.92367 0.34038 0.0
C1934 C 0.2545 0.90273 0.31242 0.0
C1935 C 0.24256 0.90844 0.30558 0.0
C1936 C 0.24096 0.92197 0.31635 0.0
C1937 C 0.25101 0.92953 0.33354 0.0
C1938 C 0.21673 0.87438 0.26373 0.0
C1939 C 0.21468 0.88566 0.25113 0.0
C1940 C 0.22526 0.88163 0.28155 0.0
C1941 C 0.23212 0.90042 0.28717 0.0
C1942 C 0.22952 0.91157 0.27474 0.0
C1943 C 0.22084 0.90424 0.25694 0.0
H1944 H 0.70368 0.95343 0.33556 0.0
H1945 H 0.64696 0.91107 0.32963 0.0
H1946 H 0.70944 0.93868 0.30849 0.0
H1947 H 0.65278 0.89624 0.30312 0.0
H1948 H 0.66365 0.88614 0.24425 0.0
H1949 H 0.65994 0.90223 0.27124 0.0
H1950 H 0.71019 0.91071 0.29756 0.0
H1951 H 0.71402 0.89468 0.27013 0.0
C1952 C 0.69248 0.94096 0.32856 0.0
C1953 C 0.67483 0.93353 0.33468 0.0
C1954 C 0.6958 0.93245 0.31313 0.0
C1955 C 0.68154 0.91637 0.30354 0.0
C1956 C 0.66401 0.90883 0.30992 0.0
C1957 C 0.66069 0.91731 0.32522 0.0
C1958 C 0.67383 0.89128 0.25587 0.0
C1959 C 0.68894 0.88883 0.25526 0.0
C1960 C 0.67172 0.90052 0.27135 0.0
C1961 C 0.68462 0.90752 0.2867 0.0
C1962 C 0.70004 0.90554 0.28592 0.0
C1963 C 0.70221 0.89632 0.27029 0.0
H1964 H 0.06997 0.73102 0.28225 0.0
H1965 H 0.06862 0.77859 0.30612 0.0
H1966 H 0.08632 0.74879 0.25628 0.0
H1967 H 0.08548 0.7965 0.28036 0.0
H1968 H 0.14 0.82296 0.24684 0.0
H1969 H 0.11988 0.80573 0.27111 0.0
H1970 H 0.08029 0.76705 0.22851 0.0
H1971 H 0.10024 0.78466 0.20418 0.0
C1972 C 0.07305 0.74522 0.28187 0.0
C1973 C 0.06803 0.75342 0.29622 0.0
C1974 C 0.08233 0.75534 0.26698 0.0
C1975 C 0.08716 0.77398 0.26639 0.0
C1976 C 0.08191 0.78213 0.28055 0.0
C1977 C 0.07222 0.77187 0.29521 0.0
C1978 C 0.1269 0.81089 0.24272 0.0
C1979 C 0.12159 0.80508 0.22373 0.0
C1980 C 0.1154 0.80112 0.25654 0.0
C1981 C 0.09857 0.78511 0.25162 0.0
C1982 C 0.09321 0.77936 0.23261 0.0
C1983 C 0.10454 0.78941 0.21875 0.0
H1984 H 0.24512 0.30048 0.32664 0.0
H1985 H 0.25835 0.35755 0.33324 0.0
H1986 H 0.22721 0.29628 0.29747 0.0
H1987 H 0.2407 0.35339 0.30421 0.0
H1988 H 0.19442 0.33608 0.26058 0.0
H1989 H 0.2092 0.33725 0.29077 0.0
H1990 H 0.23271 0.30707 0.26537 0.0
H1991 H 0.2181 0.30605 0.23512 0.0
C1992 C 0.24417 0.31209 0.32194 0.0
C1993 C 0.25321 0.32936 0.33229 0.0
C1994 C 0.23398 0.30971 0.30519 0.0
C1995 C 0.23248 0.32449 0.29854 0.0
C1996 C 0.24134 0.34164 0.30905 0.0
C1997 C 0.25159 0.34406 0.32565 0.0
C1998 C 0.20275 0.3297 0.26141 0.0
C1999 C 0.20515 0.32108 0.24536 0.0
C2000 C 0.2112 0.33035 0.27873 0.0
C2001 C 0.22223 0.32236 0.28047 0.0
C2002 C 0.22414 0.31319 0.26457 0.0
C2003 C 0.21574 0.31259 0.24721 0.0
H2004 H 0.26417 0.32013 0.44201 0.0
H2005 H 0.26751 0.37097 0.42658 0.0
H2006 H 0.24968 0.32139 0.47044 0.0
H2007 H 0.25247 0.37186 0.45482 0.0
H2008 H 0.19994 0.3441 0.49136 0.0
H2009 H 0.21817 0.34691 0.4647 0.0
H2010 H 0.25849 0.34546 0.50156 0.0
H2011 H 0.24048 0.34323 0.52836 0.0
C2012 C 0.26191 0.33163 0.44476 0.0
C2013 C 0.26696 0.34545 0.43207 0.0
C2014 C 0.25369 0.33237 0.46105 0.0
C2015 C 0.24996 0.3467 0.46476 0.0
C2016 C 0.2552 0.36067 0.45223 0.0
C2017 C 0.26386 0.36019 0.43615 0.0
C2018 C 0.21279 0.34456 0.49374 0.0
C2019 C 0.21885 0.34344 0.51183 0.0
C2020 C 0.22323 0.34626 0.47855 0.0
C2021 C 0.23971 0.34643 0.48113 0.0
C2022 C 0.24582 0.34537 0.49925 0.0
C2023 C 0.23558 0.34413 0.51452 0.0
H2024 H 0.68116 0.94607 0.43922 0.0
H2025 H 0.62432 0.90935 0.42268 0.0
H2026 H 0.67864 0.92774 0.4654 0.0
H2027 H 0.62189 0.8907 0.44894 0.0
H2028 H 0.62309 0.87112 0.50862 0.0
H2029 H 0.62353 0.89029 0.48363 0.0
H2030 H 0.6749 0.89719 0.46809 0.0
H2031 H 0.67444 0.87811 0.49283 0.0
C2032 C 0.66807 0.93412 0.44121 0.0
C2033 C 0.65298 0.92908 0.42869 0.0
C2034 C 0.66666 0.92353 0.45619 0.0
C2035 C 0.65014 0.90757 0.45908 0.0
C2036 C 0.6348 0.90295 0.44711 0.0
C2037 C 0.6362 0.91361 0.43205 0.0
C2038 C 0.63441 0.87664 0.49977 0.0
C2039 C 0.64884 0.87326 0.50288 0.0
C2040 C 0.63465 0.88762 0.48547 0.0
C2041 C 0.64936 0.89546 0.47402 0.0
C2042 C 0.66358 0.89175 0.47694 0.0
C2043 C 0.66333 0.88081 0.49115 0.0
H2044 H 0.07713 0.76954 0.39664 0.0
H2045 H 0.08404 0.72176 0.39512 0.0
H2046 H 0.09508 0.78096 0.42634 0.0
H2047 H 0.10221 0.73336 0.42497 0.0
H2048 H 0.11191 0.7501 0.48957 0.0
H2049 H 0.09708 0.73829 0.45829 0.0
H2050 H 0.12653 0.79346 0.43951 0.0
H2051 H 0.14156 0.80527 0.47071 0.0
C2052 C 0.08255 0.7615 0.40258 0.0
C2053 C 0.07909 0.74469 0.39349 0.0
C2054 C 0.09297 0.76814 0.41957 0.0
C2055 C 0.10013 0.75811 0.42798 0.0
C2056 C 0.09678 0.74134 0.41888 0.0
C2057 C 0.08644 0.73474 0.40175 0.0
C2058 C 0.11553 0.75966 0.47868 0.0
C2059 C 0.12785 0.77867 0.48271 0.0
C2060 C 0.107 0.75288 0.46076 0.0
C2061 C 0.11052 0.76496 0.44647 0.0
C2062 C 0.1233 0.78385 0.45032 0.0
C2063 C 0.13189 0.79062 0.4682 0.0
H2064 H 0.34649 0.07005 0.75543 0.0
H2065 H 0.29904 0.06258 0.72355 0.0
H2066 H 0.33906 0.0837 0.78209 0.0
H2067 H 0.29196 0.07684 0.75019 0.0
H2068 H 0.31007 0.1295 0.79634 0.0
H2069 H 0.31313 0.11287 0.76883 0.0
H2070 H 0.30876 0.07011 0.80335 0.0
H2071 H 0.30521 0.08642 0.83066 0.0
C2072 C 0.33448 0.07132 0.75414 0.0
C2073 C 0.32333 0.06525 0.73744 0.0
C2074 C 0.33022 0.07906 0.76938 0.0
C2075 C 0.31497 0.08128 0.76809 0.0
C2076 C 0.30379 0.07525 0.75144 0.0
C2077 C 0.3078 0.06705 0.73629 0.0
C2078 C 0.30945 0.11639 0.79789 0.0
C2079 C 0.30728 0.10912 0.81549 0.0
C2080 C 0.31114 0.10689 0.78223 0.0
C2081 C 0.31114 0.09026 0.78408 0.0
C2082 C 0.30873 0.08289 0.80163 0.0
C2083 C 0.30663 0.09215 0.81716 0.0
H2084 H 0.9487 0.2293 0.77131 0.0
H2085 H 0.9277 0.26625 0.78072 0.0
H2086 H 0.93289 0.21228 0.79792 0.0
H2087 H 0.91189 0.24923 0.80697 0.0
H2088 H 0.88165 0.17408 0.82989 0.0
H2089 H 0.90104 0.1917 0.80558 0.0
H2090 H 0.91717 0.2426 0.83866 0.0
H2091 H 0.89793 0.22501 0.86304 0.0
C2092 C 0.94085 0.23388 0.77911 0.0
C2093 C 0.93944 0.24912 0.77382 0.0
C2094 C 0.9317 0.22406 0.79427 0.0
C2095 C 0.92112 0.22939 0.80457 0.0
C2096 C 0.92009 0.24488 0.79951 0.0
C2097 C 0.92909 0.25457 0.78434 0.0
C2098 C 0.88957 0.18901 0.83214 0.0
C2099 C 0.8881 0.19811 0.8484 0.0
C2100 C 0.9007 0.19912 0.81818 0.0
C2101 C 0.91058 0.21857 0.82011 0.0
C2102 C 0.9095 0.22764 0.83659 0.0
C2103 C 0.89843 0.21755 0.85055 0.0
H2104 H 0.75758 0.64665 0.7288 0.0
H2105 H 0.74957 0.69095 0.74991 0.0
H2106 H 0.77499 0.64959 0.75761 0.0
H2107 H 0.76598 0.69318 0.77938 0.0
H2108 H 0.80595 0.70163 0.82704 0.0
H2109 H 0.79307 0.70153 0.7962 0.0
H2110 H 0.77123 0.64243 0.78813 0.0
H2111 H 0.78551 0.64288 0.818 0.0
C2112 C 0.75946 0.65696 0.73971 0.0
C2113 C 0.75213 0.66849 0.73715 0.0
C2114 C 0.76934 0.65857 0.75636 0.0
C2115 C 0.77176 0.67145 0.77112 0.0
C2116 C 0.76468 0.68326 0.76835 0.0
C2117 C 0.75515 0.68192 0.75147 0.0
C2118 C 0.79878 0.68869 0.8185 0.0
C2119 C 0.79674 0.67225 0.82521 0.0
C2120 C 0.79108 0.68856 0.80087 0.0
C2121 C 0.78092 0.67195 0.78953 0.0
C2122 C 0.77914 0.65559 0.79617 0.0
C2123 C 0.78709 0.65578 0.8136 0.0
H2124 H 0.75173 0.68502 0.63385 0.0
H2125 H 0.72841 0.62597 0.63622 0.0
H2126 H 0.76553 0.68385 0.6051 0.0
H2127 H 0.74224 0.62483 0.60726 0.0
H2128 H 0.79085 0.63742 0.57047 0.0
H2129 H 0.77363 0.63604 0.59733 0.0
H2130 H 0.75746 0.67179 0.57189 0.0
H2131 H 0.7744 0.67293 0.54482 0.0
C2132 C 0.74943 0.67175 0.62818 0.0
C2133 C 0.73899 0.65559 0.63741 0.0
C2134 C 0.75727 0.67107 0.6116 0.0
C2135 C 0.75499 0.65425 0.60388 0.0
C2136 C 0.74437 0.63803 0.61295 0.0
C2137 C 0.73637 0.63867 0.62948 0.0
C2138 C 0.78334 0.6447 0.57038 0.0
C2139 C 0.78412 0.65536 0.55544 0.0
C2140 C 0.77348 0.64392 0.58583 0.0
C2141 C 0.76425 0.65388 0.5868 0.0
C2142 C 0.76466 0.66419 0.5717 0.0
C2143 C 0.77441 0.66487 0.5562 0.0
H2144 H 0.38025 0.0947 0.65259 0.0
H2145 H 0.3247 0.05767 0.63152 0.0
H2146 H 0.38517 0.11272 0.62521 0.0
H2147 H 0.32948 0.0757 0.60467 0.0
H2148 H 0.34547 0.10211 0.55065 0.0
H2149 H 0.34484 0.08365 0.57623 0.0
H2150 H 0.37567 0.13354 0.6126 0.0
H2151 H 0.37645 0.15202 0.58688 0.0
C2152 C 0.36915 0.09032 0.6421 0.0
C2153 C 0.35207 0.07475 0.64432 0.0
C2154 C 0.37193 0.10071 0.62647 0.0
C2155 C 0.35772 0.09566 0.6127 0.0
C2156 C 0.34082 0.07986 0.61479 0.0
C2157 C 0.33804 0.06957 0.63034 0.0
C2158 C 0.35216 0.10914 0.56409 0.0
C2159 C 0.36084 0.12851 0.56678 0.0
C2160 C 0.3518 0.09857 0.57877 0.0
C2161 C 0.36003 0.10708 0.59656 0.0
C2162 C 0.36934 0.12652 0.59905 0.0
C2163 C 0.36976 0.13712 0.58431 0.0
H2164 H 0.91734 0.27098 0.67636 0.0
H2165 H 0.94121 0.23638 0.66885 0.0
H2166 H 0.89991 0.25812 0.64636 0.0
H2167 H 0.92428 0.22398 0.63872 0.0
H2168 H 0.8797 0.19238 0.59334 0.0
H2169 H 0.89445 0.20426 0.62461 0.0
H2170 H 0.90369 0.25851 0.61337 0.0
H2171 H 0.88857 0.24645 0.58223 0.0
C2172 C 0.91892 0.26069 0.6683 0.0
C2173 C 0.93067 0.2547 0.67505 0.0
C2174 C 0.90899 0.25337 0.65104 0.0
C2175 C 0.91063 0.23996 0.64009 0.0
C2176 C 0.92239 0.23401 0.64689 0.0
C2177 C 0.93222 0.24124 0.66415 0.0
C2178 C 0.88484 0.20683 0.5976 0.0
C2179 C 0.88304 0.2185 0.58531 0.0
C2180 C 0.89336 0.21367 0.6155 0.0
C2181 C 0.90044 0.23241 0.6215 0.0
C2182 C 0.89822 0.24397 0.60934 0.0
C2183 C 0.88958 0.23707 0.59147 0.0
H2184 H 0.37177 0.28647 0.66775 0.0
H2185 H 0.31628 0.24113 0.66285 0.0
H2186 H 0.37896 0.2716 0.64193 0.0
H2187 H 0.32348 0.22645 0.63718 0.0
H2188 H 0.34584 0.19605 0.60401 0.0
H2189 H 0.34187 0.21136 0.6317 0.0
H2190 H 0.37069 0.26395 0.60737 0.0
H2191 H 0.37442 0.24866 0.57954 0.0
C2192 C 0.36113 0.27336 0.66121 0.0
C2193 C 0.34344 0.26501 0.66736 0.0
C2194 C 0.36524 0.26488 0.6464 0.0
C2195 C 0.35181 0.2478 0.63762 0.0
C2196 C 0.33419 0.23946 0.64385 0.0
C2197 C 0.33004 0.24798 0.65848 0.0
C2198 C 0.35138 0.21089 0.60458 0.0
C2199 C 0.36035 0.22109 0.58949 0.0
C2200 C 0.34912 0.21965 0.62044 0.0
C2201 C 0.35585 0.23883 0.62164 0.0
C2202 C 0.36551 0.24918 0.60693 0.0
C2203 C 0.36768 0.2404 0.591 0.0
H2204 H 0.75691 0.07151 0.62955 0.0
H2205 H 0.72501 0.09852 0.62942 0.0
H2206 H 0.7731 0.08886 0.60374 0.0
H2207 H 0.74095 0.1156 0.60296 0.0
H2208 H 0.78887 0.15818 0.57077 0.0
H2209 H 0.77008 0.14006 0.59526 0.0
H2210 H 0.77019 0.09177 0.57138 0.0
H2211 H 0.78932 0.11003 0.54729 0.0
C2212 C 0.75317 0.081 0.62387 0.0
C2213 C 0.73962 0.08359 0.63162 0.0
C2214 C 0.76241 0.0909 0.60891 0.0
C2215 C 0.75832 0.10361 0.60112 0.0
C2216 C 0.74462 0.10608 0.60872 0.0
C2217 C 0.73539 0.09621 0.62382 0.0
C2218 C 0.78471 0.14364 0.57069 0.0
C2219 C 0.79073 0.13557 0.55722 0.0
C2220 C 0.77388 0.13322 0.58469 0.0
C2221 C 0.76871 0.11445 0.58545 0.0
C2222 C 0.77424 0.10628 0.57154 0.0
C2223 C 0.78519 0.11673 0.55768 0.0
H2224 H 0.94124 0.68939 0.65574 0.0
H2225 H 0.89656 0.63766 0.67073 0.0
H2226 H 0.92465 0.68688 0.62658 0.0
H2227 H 0.87924 0.63558 0.64189 0.0
H2228 H 0.85943 0.62934 0.58029 0.0
H2229 H 0.87547 0.63035 0.60942 0.0
H2230 H 0.90133 0.69004 0.61416 0.0
H2231 H 0.88691 0.68915 0.5843 0.0
C2232 C 0.92771 0.67755 0.65286 0.0
C2233 C 0.92016 0.66378 0.66557 0.0
C2234 C 0.91807 0.67616 0.63616 0.0
C2235 C 0.90036 0.66117 0.63185 0.0
C2236 C 0.89287 0.64725 0.64454 0.0
C2237 C 0.90274 0.64846 0.66114 0.0
C2238 C 0.86874 0.64271 0.58738 0.0
C2239 C 0.87186 0.65916 0.57965 0.0
C2240 C 0.87776 0.64328 0.60434 0.0
C2241 C 0.88994 0.66029 0.61422 0.0
C2242 C 0.89248 0.67665 0.60684 0.0
C2243 C 0.88379 0.67611 0.58975 0.0
H2244 H 0.93267 0.70492 0.75946 0.0
H2245 H 0.93031 0.65511 0.77688 0.0
H2246 H 0.91779 0.70652 0.78763 0.0
H2247 H 0.91604 0.65708 0.80518 0.0
H2248 H 0.90667 0.67969 0.86218 0.0
H2249 H 0.92472 0.68186 0.83547 0.0
H2250 H 0.88367 0.68146 0.79817 0.0
H2251 H 0.8654 0.67874 0.82478 0.0
C2252 C 0.9293 0.69455 0.76946 0.0
C2253 C 0.9326 0.67987 0.76597 0.0
C2254 C 0.92073 0.69542 0.78549 0.0
C2255 C 0.9158 0.68192 0.79852 0.0
C2256 C 0.91979 0.6677 0.7954 0.0
C2257 C 0.9279 0.66656 0.77918 0.0
C2258 C 0.90161 0.68018 0.84827 0.0
C2259 C 0.88465 0.67897 0.84546 0.0
C2260 C 0.91189 0.6814 0.83305 0.0
C2261 C 0.90559 0.68192 0.81483 0.0
C2262 C 0.88888 0.68126 0.81211 0.0
C2263 C 0.87841 0.67958 0.82726 0.0
H2264 H 0.29064 0.24055 0.75415 0.0
H2265 H 0.34721 0.27765 0.77158 0.0
H2266 H 0.28781 0.22227 0.78087 0.0
H2267 H 0.34428 0.25968 0.79818 0.0
H2268 H 0.3398 0.21056 0.82687 0.0
H2269 H 0.34055 0.22915 0.80153 0.0
H2270 H 0.28893 0.22247 0.81574 0.0
H2271 H 0.2882 0.2038 0.84137 0.0
C2272 C 0.30238 0.24496 0.76379 0.0
C2273 C 0.3192 0.26044 0.76058 0.0
C2274 C 0.30075 0.23452 0.77911 0.0
C2275 C 0.3159 0.23936 0.79147 0.0
C2276 C 0.33245 0.25531 0.78868 0.0
C2277 C 0.33409 0.26569 0.77345 0.0
C2278 C 0.32869 0.2132 0.82478 0.0
C2279 C 0.31406 0.20587 0.83634 0.0
C2280 C 0.32911 0.22386 0.81022 0.0
C2281 C 0.31491 0.2275 0.80675 0.0
C2282 C 0.30004 0.21986 0.818 0.0
C2283 C 0.29963 0.20916 0.83267 0.0
H2284 H 0.75332 0.05284 0.73149 0.0
H2285 H 0.74641 0.10058 0.73144 0.0
H2286 H 0.77156 0.0651 0.76121 0.0
H2287 H 0.76443 0.11267 0.76108 0.0
H2288 H 0.7823 0.08335 0.82527 0.0
H2289 H 0.76692 0.07085 0.79431 0.0
H2290 H 0.79592 0.12547 0.77417 0.0
H2291 H 0.81149 0.13798 0.80507 0.0
C2292 C 0.7557 0.06594 0.73777 0.0
C2293 C 0.74837 0.07571 0.72907 0.0
C2294 C 0.76609 0.07292 0.75484 0.0
C2295 C 0.7695 0.08989 0.76347 0.0
C2296 C 0.76229 0.09969 0.75467 0.0
C2297 C 0.75183 0.09268 0.73772 0.0
C2298 C 0.78571 0.09264 0.81415 0.0
C2299 C 0.79808 0.1117 0.8177 0.0
C2300 C 0.77684 0.08547 0.79641 0.0
C2301 C 0.78008 0.09719 0.78183 0.0
C2302 C 0.79289 0.11614 0.78521 0.0
C2303 C 0.80181 0.1233 0.80291 0.0
H2304 H 0.03812 0.34073 0.04715 0.0
H2305 H 0.08132 0.39753 0.05771 0.0
H2306 H 0.0553 0.33074 0.06679 0.0
H2307 H 0.09828 0.38756 0.07723 0.0
H2308 H 0.10344 0.32219 0.08831 0.0
H2309 H 0.08486 0.32988 0.0681 0.0
H2310 H 0.09396 0.37401 0.10847 0.0
H2311 H 0.11209 0.36609 0.12892 0.0
C2312 C 0.05133 0.35105 0.05348 0.0
C2313 C 0.05831 0.36994 0.05089 0.0
C2314 C 0.06115 0.34532 0.0647 0.0
C2315 C 0.07803 0.35839 0.07374 0.0
C2316 C 0.08518 0.37719 0.07072 0.0
C2317 C 0.07549 0.38288 0.05939 0.0
C2318 C 0.10118 0.33328 0.0931 0.0
C2319 C 0.1094 0.34358 0.11026 0.0
C2320 C 0.09059 0.33773 0.08144 0.0
C2321 C 0.08813 0.35268 0.08658 0.0
C2322 C 0.0959 0.36262 0.10395 0.0
C2323 C 0.10632 0.35809 0.11566 0.0
H2324 H 0.61237 0.67162 0.0792 0.0
H2325 H 0.66726 0.68154 0.08088 0.0
H2326 H 0.62322 0.70199 0.09497 0.0
H2327 H 0.67814 0.71209 0.09694 0.0
H2328 H 0.69009 0.77294 0.10909 0.0
H2329 H 0.68137 0.74312 0.09264 0.0
H2330 H 0.63569 0.71618 0.12674 0.0
H2331 H 0.64443 0.74582 0.14323 0.0
C2332 C 0.62679 0.68033 0.08283 0.0
C2333 C 0.63894 0.6741 0.07885 0.0
C2334 C 0.63299 0.6977 0.09201 0.0
C2335 C 0.6515 0.70934 0.09745 0.0
C2336 C 0.66379 0.70344 0.09289 0.0
C2337 C 0.65756 0.68595 0.08372 0.0
C2338 C 0.67836 0.7606 0.11327 0.0
C2339 C 0.66786 0.76179 0.12736 0.0
C2340 C 0.67335 0.74354 0.10381 0.0
C2341 C 0.6577 0.72734 0.10821 0.0
C2342 C 0.64758 0.72847 0.12272 0.0
C2343 C 0.6526 0.74547 0.13219 0.0
H2344 H 0.32791 0.92323 0.03295 0.0
H2345 H 0.32581 0.97368 0.03917 0.0
H2346 H 0.30022 0.90716 0.0493 0.0
H2347 H 0.29786 0.95748 0.05527 0.0
H2348 H 0.2652 0.929 0.10596 0.0
H2349 H 0.28995 0.94502 0.0857 0.0
H2350 H 0.26784 0.89561 0.04832 0.0
H2351 H 0.24303 0.87958 0.0686 0.0
C2352 C 0.32136 0.93082 0.03749 0.0
C2353 C 0.32916 0.94978 0.03482 0.0
C2354 C 0.30541 0.92157 0.04682 0.0
C2355 C 0.29685 0.93105 0.05376 0.0
C2356 C 0.30424 0.94983 0.05039 0.0
C2357 C 0.32019 0.95908 0.04101 0.0
C2358 C 0.26543 0.92163 0.09326 0.0
C2359 C 0.25214 0.90296 0.08898 0.0
C2360 C 0.27964 0.93083 0.08161 0.0
C2361 C 0.28094 0.92161 0.06536 0.0
C2362 C 0.26742 0.90306 0.06086 0.0
C2363 C 0.2532 0.89386 0.07251 0.0
H2364 H 0.40045 0.06877 0.00773 0.0
H2365 H 0.34633 0.0235 0.01399 0.0
H2366 H 0.38792 0.08684 0.9955 0.0
H2367 H 0.33365 0.04196 1.00244 0.0
H2368 H 0.31862 0.07071 0.95711 0.0
H2369 H 0.32912 0.05279 0.97404 0.0
H2370 H 0.37316 0.10349 1.0014 0.0
H2371 H 0.36302 0.12128 0.98379 0.0
C2372 C 0.38584 0.0628 0.00687 0.0
C2373 C 0.37439 0.04465 0.01177 0.0
C2374 C 0.37861 0.07325 0.99994 0.0
C2375 C 0.35971 0.06592 0.9979 0.0
C2376 C 0.34826 0.04798 0.00349 0.0
C2377 C 0.35552 0.03743 0.01027 0.0
C2378 C 0.3304 0.07794 0.96694 0.0
C2379 C 0.34012 0.09736 0.96903 0.0
C2380 C 0.33641 0.06769 0.97673 0.0
C2381 C 0.35214 0.07665 0.98901 0.0
C2382 C 0.36128 0.09609 0.99174 0.0
C2383 C 0.35543 0.10631 0.98175 0.0
H2384 H 0.93605 0.32133 0.00339 0.0
H2385 H 0.97916 0.30843 0.00348 0.0
H2386 H 0.91485 0.2906 0.98917 0.0
H2387 H 0.95771 0.27733 0.98935 0.0
H2388 H 0.91792 0.23425 0.94132 0.0
H2389 H 0.94029 0.26313 0.95884 0.0
H2390 H 0.89936 0.25818 0.99565 0.0
H2391 H 0.87711 0.22948 0.9782 0.0
C2392 C 0.94097 0.31184 1.00059 0.0
C2393 C 0.95931 0.31735 0.00456 0.0
C2394 C 0.92877 0.29415 0.99251 0.0
C2395 C 0.93457 0.28148 0.98812 0.0
C2396 C 0.95286 0.28683 0.99241 0.0
C2397 C 0.9651 0.30458 1.00064 0.0
C2398 C 0.91379 0.23924 0.9533 0.0
C2399 C 0.89567 0.22975 0.95818 0.0
C2400 C 0.92661 0.25575 0.96336 0.0
C2401 C 0.92156 0.26306 0.97853 0.0
C2402 C 0.90361 0.25314 0.98381 0.0
C2403 C 0.89084 0.23671 0.97377 0.0
H2404 H 0.68404 0.59821 0.04029 0.0
H2405 H 0.68866 0.65206 0.04179 0.0
H2406 H 0.71201 0.61017 0.02433 0.0
H2407 H 0.71693 0.66416 0.02603 0.0
H2408 H 0.76948 0.63943 0.00661 0.0
H2409 H 0.74459 0.63074 0.02699 0.0
H2410 H 0.72536 0.66055 0.99463 0.0
H2411 H 0.75024 0.66923 0.97426 0.0
C2412 C 0.6912 0.6127 0.03752 0.0
C2413 C 0.68403 0.62414 0.04226 0.0
C2414 C 0.70732 0.6196 0.02841 0.0
C2415 C 0.71671 0.63812 0.02376 0.0
C2416 C 0.70991 0.64976 0.02915 0.0
C2417 C 0.69378 0.64286 0.03834 0.0
C2418 C 0.75995 0.64414 0.00384 0.0
C2419 C 0.76181 0.65492 0.98869 0.0
C2420 C 0.74567 0.63917 0.01555 0.0
C2421 C 0.73288 0.64485 0.01242 0.0
C2422 C 0.73508 0.65613 0.99763 0.0
C2423 C 0.74936 0.6611 0.98592 0.0
H2424 H 0.9292 0.60473 0.0071 0.0
H2425 H 0.96859 0.66173 0.02421 0.0
H2426 H 0.91208 0.61483 0.98789 0.0
H2427 H 0.95117 0.67181 0.00505 0.0
H2428 H 0.90034 0.67661 0.98413 0.0
H2429 H 0.91909 0.66869 0.00369 0.0
H2430 H 0.91854 0.63283 0.95822 0.0
H2431 H 0.90045 0.64128 0.93829 0.0
C2432 C 0.93411 0.61942 0.00694 0.0
C2433 C 0.95028 0.63243 0.0172 0.0
C2434 C 0.92436 0.62519 0.9958 0.0
C2435 C 0.93038 0.6441 0.99485 0.0
C2436 C 0.94622 0.65714 0.00555 0.0
C2437 C 0.95618 0.65137 0.0165 0.0
C2438 C 0.90456 0.66739 0.97808 0.0
C2439 C 0.89879 0.65959 0.95954 0.0
C2440 C 0.91522 0.66278 0.98938 0.0
C2441 C 0.92014 0.65004 0.98253 0.0
C2442 C 0.91472 0.64249 0.96395 0.0
C2443 C 0.90429 0.6473 0.95256 0.0
H2444 H 0.33679 0.32081 0.98771 0.0
H2445 H 0.39111 0.32917 0.99147 0.0
H2446 H 0.32516 0.28908 0.97444 0.0
H2447 H 0.37961 0.29783 0.97808 0.0
H2448 H 0.35272 0.23611 0.9695 0.0
H2449 H 0.36115 0.26587 0.98548 0.0
H2450 H 0.32669 0.27303 0.94518 0.0
H2451 H 0.31815 0.24304 0.92917 0.0
C2452 C 0.34621 0.31586 0.98584 0.0
C2453 C 0.36487 0.32751 0.99067 0.0
C2454 C 0.33957 0.29774 0.97812 0.0
C2455 C 0.35144 0.29091 0.97523 0.0
C2456 C 0.37003 0.30252 0.98037 0.0
C2457 C 0.37665 0.32057 0.98797 0.0
C2458 C 0.34696 0.24404 0.96402 0.0
C2459 C 0.335 0.23736 0.94789 0.0
C2460 C 0.35177 0.26109 0.97319 0.0
C2461 C 0.34478 0.27195 0.96648 0.0
C2462 C 0.33223 0.26495 0.95078 0.0
C2463 C 0.32737 0.2478 0.94158 0.0
H2464 H 0.68291 0.07611 0.03962 0.0
H2465 H 0.67624 0.02283 0.02223 0.0
H2466 H 0.71064 0.09136 0.02281 0.0
H2467 H 0.70371 0.03811 0.00517 0.0
H2468 H 0.73401 0.0734 0.95485 0.0
H2469 H 0.7094 0.0575 0.97557 0.0
H2470 H 0.74351 0.09488 0.02212 0.0
H2471 H 0.76833 0.11058 1.00138 0.0
C2472 C 0.68751 0.06768 0.03248 0.0
C2473 C 0.67735 0.04826 0.03222 0.0
C2474 C 0.70339 0.07641 0.0229 0.0
C2475 C 0.70921 0.06589 0.01259 0.0
C2476 C 0.69943 0.04653 0.01291 0.0
C2477 C 0.68377 0.03781 0.02277 0.0
C2478 C 0.73626 0.07809 0.96954 0.0
C2479 C 0.75302 0.09317 0.97655 0.0
C2480 C 0.72225 0.06896 0.9814 0.0
C2481 C 0.72459 0.07496 1.00044 0.0
C2482 C 0.74138 0.09001 0.00749 0.0
C2483 C 0.75555 0.09891 0.99568 0.0
H2484 H 0.65998 0.98188 0.06545 0.0
H2485 H 0.61049 0.93038 0.04961 0.0
H2486 H 0.67349 0.96472 0.07857 0.0
H2487 H 0.62419 0.91327 0.06247 0.0
H2488 H 0.66121 0.88907 0.07723 0.0
H2489 H 0.65166 0.90729 0.05895 0.0
H2490 H 0.66375 0.94487 0.10762 0.0
H2491 H 0.67284 0.92648 0.12585 0.0
C2492 C 0.65213 0.96689 0.06439 0.0
C2493 C 0.63412 0.95748 0.05661 0.0
C2494 C 0.65985 0.9571 0.07197 0.0
C2495 C 0.64985 0.9377 0.0716 0.0
C2496 C 0.63223 0.92822 0.06283 0.0
C2497 C 0.62438 0.93803 0.05555 0.0
C2498 C 0.66202 0.90138 0.08384 0.0
C2499 C 0.66772 0.90646 0.10286 0.0
C2500 C 0.65651 0.91172 0.07347 0.0
C2501 C 0.65703 0.9275 0.08188 0.0
C2502 C 0.6634 0.93289 0.10074 0.0
C2503 C 0.66852 0.92237 0.11118 0.0
H2504 H 0.06977 0.69028 0.05466 0.0
H2505 H 0.02257 0.68951 0.07554 0.0
H2506 H 0.08919 0.72123 0.07005 0.0
H2507 H 0.04217 0.72037 0.09144 0.0
H2508 H 0.09128 0.75958 0.13776 0.0
H2509 H 0.06899 0.731 0.11948 0.0
H2510 H 0.09287 0.75521 0.06867 0.0
H2511 H 0.11485 0.78389 0.08687 0.0
C2512 C 0.06355 0.69683 0.06237 0.0
C2513 C 0.04468 0.68753 0.0639 0.0
C2514 C 0.07464 0.71453 0.07112 0.0
C2515 C 0.06714 0.72309 0.08194 0.0
C2516 C 0.04824 0.71399 0.08318 0.0
C2517 C 0.03706 0.69644 0.07402 0.0
C2518 C 0.09154 0.75883 0.12266 0.0
C2519 C 0.10468 0.77388 0.11368 0.0
C2520 C 0.07878 0.74258 0.11223 0.0
C2521 C 0.07925 0.74099 0.0927 0.0
C2522 C 0.09223 0.75614 0.08371 0.0
C2523 C 0.10472 0.77252 0.09409 0.0
H2524 H 0.3251 0.40686 0.03583 0.0
H2525 H 0.31489 0.35117 0.02486 0.0
H2526 H 0.29776 0.39515 0.05268 0.0
H2527 H 0.28701 0.33927 0.04127 0.0
H2528 H 0.2535 0.32898 0.09345 0.0
H2529 H 0.27811 0.33838 0.07254 0.0
H2530 H 0.26576 0.37851 0.05097 0.0
H2531 H 0.24154 0.36941 0.07226 0.0
C2532 C 0.31681 0.39204 0.03667 0.0
C2533 C 0.32226 0.37997 0.02903 0.0
C2534 C 0.30101 0.38528 0.0463 0.0
C2535 C 0.29011 0.36622 0.04846 0.0
C2536 C 0.2952 0.35406 0.04018 0.0
C2537 C 0.31111 0.36086 0.03061 0.0
C2538 C 0.25594 0.33966 0.08407 0.0
C2539 C 0.24571 0.34859 0.08463 0.0
C2540 C 0.27001 0.34502 0.072 0.0
C2541 C 0.27409 0.35933 0.06009 0.0
C2542 C 0.26333 0.36774 0.0602 0.0
C2543 C 0.2494 0.3625 0.07238 0.0
H2544 H 0.7463 0.73289 0.39187 0.0
H2545 H 0.7038 0.67579 0.38146 0.0
H2546 H 0.76477 0.72326 0.40915 0.0
H2547 H 0.72259 0.66605 0.39858 0.0
H2548 H 0.75345 0.66002 0.45069 0.0
H2549 H 0.73427 0.66726 0.43071 0.0
H2550 H 0.78183 0.7078 0.40511 0.0
H2551 H 0.80087 0.70073 0.42513 0.0
C2552 C 0.74097 0.71823 0.39305 0.0
C2553 C 0.72355 0.70512 0.38526 0.0
C2554 C 0.75163 0.71268 0.40292 0.0
C2555 C 0.74521 0.69386 0.40525 0.0
C2556 C 0.72788 0.68067 0.3972 0.0
C2557 C 0.71718 0.68624 0.38726 0.0
C2558 C 0.75973 0.67036 0.44068 0.0
C2559 C 0.77869 0.68004 0.43973 0.0
C2560 C 0.74876 0.67447 0.42918 0.0
C2561 C 0.75652 0.68828 0.41643 0.0
C2562 C 0.77542 0.69742 0.41506 0.0
C2563 C 0.78635 0.69338 0.42656 0.0
H2564 H 0.33371 0.01313 0.41333 0.0
H2565 H 0.27927 0.00443 0.412 0.0
H2566 H 0.34523 0.04379 0.42943 0.0
H2567 H 0.29075 0.03489 0.42782 0.0
H2568 H 0.31261 0.07853 0.4761 0.0
H2569 H 0.30353 0.04879 0.45967 0.0
H2570 H 0.34904 0.07523 0.42528 0.0
H2571 H 0.35812 0.10519 0.44169 0.0
C2572 C 0.32425 0.01783 0.41626 0.0
C2573 C 0.30556 0.00628 0.41148 0.0
C2574 C 0.33085 0.03538 0.42546 0.0
C2575 C 0.31886 0.04165 0.43014 0.0
C2576 C 0.30029 0.03032 0.42477 0.0
C2577 C 0.29373 0.01289 0.41556 0.0
C2578 C 0.32069 0.07804 0.46502 0.0
C2579 C 0.33596 0.09429 0.46007 0.0
C2580 C 0.31547 0.06099 0.45559 0.0
C2581 C 0.32541 0.05969 0.44097 0.0
C2582 C 0.34114 0.07578 0.43651 0.0
C2583 C 0.34636 0.09292 0.44595 0.0
H2584 H 0.99437 0.31088 0.37559 0.0
H2585 H 0.9951 0.25973 0.36859 0.0
H2586 H 0.96601 0.2949 0.39111 0.0
H2587 H 0.96701 0.24388 0.38431 0.0
H2588 H 0.93197 0.26545 0.44094 0.0
H2589 H 0.95716 0.28167 0.4212 0.0
H2590 H 0.93474 0.23317 0.38251 0.0
H2591 H 0.90951 0.21693 0.40225 0.0
C2592 C 0.98837 0.29619 0.37713 0.0
C2593 C 0.99705 0.28661 0.3709 0.0
C2594 C 0.97219 0.28706 0.38617 0.0
C2595 C 0.96427 0.26812 0.3891 0.0
C2596 C 0.97259 0.25841 0.38215 0.0
C2597 C 0.98877 0.26754 0.37318 0.0
C2598 C 0.93223 0.25834 0.42806 0.0
C2599 C 0.91875 0.23983 0.42327 0.0
C2600 C 0.94669 0.26766 0.41671 0.0
C2601 C 0.94805 0.25872 0.40028 0.0
C2602 C 0.93429 0.24038 0.39522 0.0
C2603 C 0.91983 0.23106 0.40655 0.0
H2604 H 0.07163 0.40731 0.35034 0.0
H2605 H 0.01755 0.36011 0.34005 0.0
H2606 H 0.06131 0.42714 0.33754 0.0
H2607 H 0.00728 0.37994 0.3268 0.0
H2608 H 0.99231 0.42446 0.31536 0.0
H2609 H 1.00154 0.40554 0.33247 0.0
H2610 H 0.05264 0.43108 0.30648 0.0
H2611 H 0.04348 0.44986 0.28951 0.0
C2612 C 0.05749 0.40118 0.34549 0.0
C2613 C 0.04545 0.38209 0.34608 0.0
C2614 C 0.05159 0.41254 0.33802 0.0
C2615 C 0.03353 0.4051 0.33086 0.0
C2616 C 0.02126 0.38615 0.33227 0.0
C2617 C 0.02716 0.37477 0.33982 0.0
C2618 C 0.0055 0.42599 0.31331 0.0
C2619 C 0.0172 0.43878 0.30116 0.0
C2620 C 0.01078 0.41515 0.32311 0.0
C2621 C 0.02789 0.41688 0.32097 0.0
C2622 C 0.03954 0.42968 0.30882 0.0
C2623 C 0.03428 0.44047 0.29906 0.0
H2624 H 0.64233 0.64112 0.33736 0.0
H2625 H 0.60215 0.65694 0.32535 0.0
H2626 H 0.62215 0.61059 0.32122 0.0
H2627 H 0.58211 0.62663 0.30957 0.0
H2628 H 0.56014 0.58089 0.2637 0.0
H2629 H 0.58188 0.61035 0.28027 0.0
H2630 H 0.59233 0.5815 0.32299 0.0
H2631 H 0.57045 0.55187 0.30634 0.0
C2632 C 0.62914 0.63803 0.33148 0.0
C2633 C 0.6239 0.65151 0.33253 0.0
C2634 C 0.61759 0.62055 0.32226 0.0
C2635 C 0.60065 0.6163 0.31387 0.0
C2636 C 0.59524 0.6296 0.31551 0.0
C2637 C 0.6067 0.64696 0.3247 0.0
C2638 C 0.56707 0.58081 0.27662 0.0
C2639 C 0.56341 0.56403 0.2838 0.0
C2640 C 0.57951 0.59769 0.28614 0.0
C2641 C 0.58862 0.59826 0.30311 0.0
C2642 C 0.58558 0.58152 0.30992 0.0
C2643 C 0.57307 0.56456 0.30036 0.0
H2644 H 0.34805 0.92792 0.3726 0.0
H2645 H 0.35396 0.98232 0.37341 0.0
H2646 H 0.37564 0.93896 0.35609 0.0
H2647 H 0.38184 0.99347 0.35708 0.0
H2648 H 0.41385 0.99682 0.30476 0.0
H2649 H 0.38935 0.98887 0.32548 0.0
H2650 H 0.40838 0.95904 0.35808 0.0
H2651 H 0.43292 0.96703 0.33738 0.0
C2652 C 0.35542 0.94234 0.36956 0.0
C2653 C 0.34872 0.9542 0.37427 0.0
C2654 C 0.37132 0.9487 0.36014 0.0
C2655 C 0.38093 0.96709 0.35512 0.0
C2656 C 0.37463 0.97916 0.36048 0.0
C2657 C 0.35873 0.9728 0.36999 0.0
C2658 C 0.41301 0.98884 0.31653 0.0
C2659 C 0.42533 0.98248 0.3193 0.0
C2660 C 0.39895 0.98428 0.32845 0.0
C2661 C 0.39682 0.97324 0.34344 0.0
C2662 C 0.40943 0.96731 0.3465 0.0
C2663 C 0.42349 0.97188 0.3346 0.0
H2664 H 0.59452 0.93508 0.34041 0.0
H2665 H 0.63222 0.99211 0.35924 0.0
H2666 H 0.5775 0.94489 0.3207 0.0
H2667 H 0.6149 0.0019 0.33952 0.0
H2668 H 0.56393 0.00551 0.31679 0.0
H2669 H 0.58268 0.99799 0.33688 0.0
H2670 H 0.58428 0.96328 0.29154 0.0
H2671 H 0.56614 0.97129 0.27113 0.0
C2672 C 0.59909 0.94972 0.34051 0.0
C2673 C 0.61476 0.96282 0.35142 0.0
C2674 C 0.5894 0.95533 0.32908 0.0
C2675 C 0.59498 0.97416 0.32844 0.0
C2676 C 0.6103 0.98728 0.33976 0.0
C2677 C 0.6202 0.98168 0.35103 0.0
C2678 C 0.56862 0.99663 0.3109 0.0
C2679 C 0.56343 0.989 0.29226 0.0
C2680 C 0.57929 0.99226 0.32249 0.0
C2681 C 0.5848 0.97994 0.31582 0.0
C2682 C 0.57998 0.97261 0.29713 0.0
C2683 C 0.56954 0.97717 0.28546 0.0
H2684 H 0.00595 0.66143 0.31076 0.0
H2685 H 0.05168 0.65872 0.33471 0.0
H2686 H 0.99338 0.62999 0.29599 0.0
H2687 H 0.03884 0.62722 0.32045 0.0
H2688 H 0.99987 0.56456 0.3052 0.0
H2689 H 0.00776 0.59406 0.32209 0.0
H2690 H 0.00827 0.61749 0.26961 0.0
H2691 H 1.00082 0.58811 0.25269 0.0
C2692 C 0.0131 0.65399 0.31317 0.0
C2693 C 0.0298 0.66249 0.32384 0.0
C2694 C 0.00597 0.63609 0.30466 0.0
C2695 C 0.01517 0.62627 0.30713 0.0
C2696 C 0.03145 0.63449 0.31845 0.0
C2697 C 0.0388 0.6525 0.32654 0.0
C2698 C 1.00139 0.57595 0.29733 0.0
C2699 C 0.99974 0.57414 0.27769 0.0
C2700 C 0.00596 0.59278 0.30696 0.0
C2701 C 0.00855 0.60795 0.29711 0.0
C2702 C 0.00617 0.60591 0.27749 0.0
C2703 C 1.00201 0.5892 0.26784 0.0
H2704 H 0.34795 0.36262 0.36552 0.0
H2705 H 0.33981 0.40913 0.35963 0.0
H2706 H 0.37619 0.3786 0.34982 0.0
H2707 H 0.36752 0.42476 0.34343 0.0
H2708 H 0.42441 0.45524 0.32545 0.0
H2709 H 0.39948 0.44002 0.34572 0.0
H2710 H 0.38598 0.38682 0.31927 0.0
H2711 H 0.41129 0.40212 0.2994 0.0
C2712 C 0.35224 0.37631 0.36101 0.0
C2713 C 0.34159 0.38458 0.36383 0.0
C2714 C 0.36837 0.38541 0.35184 0.0
C2715 C 0.37417 0.40297 0.3452 0.0
C2716 C 0.36372 0.41141 0.34855 0.0
C2717 C 0.34771 0.40237 0.35779 0.0
C2718 C 0.41614 0.44028 0.32405 0.0
C2719 C 0.41974 0.42989 0.31074 0.0
C2720 C 0.40179 0.43153 0.33563 0.0
C2721 C 0.39052 0.41215 0.33408 0.0
C2722 C 0.39446 0.40173 0.32109 0.0
C2723 C 0.40895 0.41049 0.30963 0.0
H2724 H 0.32667 0.31152 0.39101 0.0
H2725 H 0.27256 0.26587 0.3965 0.0
H2726 H 0.3394 0.29309 0.40257 0.0
H2727 H 0.28517 0.24778 0.40856 0.0
H2728 H 0.3106 0.21341 0.41867 0.0
H2729 H 0.30053 0.23157 0.40164 0.0
H2730 H 0.34324 0.28163 0.43132 0.0
H2731 H 0.35358 0.26339 0.4479 0.0
C2732 C 0.31749 0.29752 0.39455 0.0
C2733 C 0.2986 0.29018 0.39285 0.0
C2734 C 0.32479 0.28699 0.40132 0.0
C2735 C 0.31335 0.26892 0.40658 0.0
C2736 C 0.29444 0.26149 0.40438 0.0
C2737 C 0.28718 0.27195 0.39755 0.0
C2738 C 0.31791 0.22831 0.42141 0.0
C2739 C 0.33279 0.23697 0.4347 0.0
C2740 C 0.31211 0.23874 0.41171 0.0
C2741 C 0.3209 0.25809 0.41524 0.0
C2742 C 0.33624 0.2668 0.42805 0.0
C2743 C 0.34216 0.25636 0.43762 0.0
H2744 H 0.733 0.01118 0.41446 0.0
H2745 H 0.69582 0.02877 0.39516 0.0
H2746 H 0.75256 0.04157 0.43041 0.0
H2747 H 0.71573 0.05951 0.41117 0.0
H2748 H 0.77114 0.11698 0.42597 0.0
H2749 H 0.74884 0.08738 0.40961 0.0
H2750 H 0.74896 0.05917 0.45844 0.0
H2751 H 0.77074 0.08865 0.47501 0.0
C2752 C 0.72905 0.02158 0.41348 0.0
C2753 C 0.71281 0.01752 0.40356 0.0
C2754 C 0.74022 0.03896 0.42276 0.0
C2755 C 0.73556 0.05281 0.4222 0.0
C2756 C 0.71962 0.04904 0.41182 0.0
C2757 C 0.70825 0.03148 0.40269 0.0
C2758 C 0.7661 0.10452 0.43339 0.0
C2759 C 0.77292 0.1052 0.45177 0.0
C2760 C 0.75338 0.08758 0.42397 0.0
C2761 C 0.74738 0.07099 0.43268 0.0
C2762 C 0.75361 0.07173 0.45127 0.0
C2763 C 0.76614 0.08863 0.46073 0.0
H2764 H 0.98274 0.69 0.35811 0.0
H2765 H 0.99911 0.74679 0.37469 0.0
H2766 H 0.9558 0.6795 0.37611 0.0
H2767 H 0.97244 0.73627 0.39271 0.0
H2768 H 0.9396 0.70884 0.44336 0.0
H2769 H 0.96411 0.71846 0.42249 0.0
H2770 H 0.92612 0.68157 0.37787 0.0
H2771 H 0.90124 0.6724 0.3985 0.0
C2772 C 0.98047 0.70023 0.36535 0.0
C2773 C 0.99313 0.71923 0.36502 0.0
C2774 C 0.96505 0.69422 0.37562 0.0
C2775 C 0.96216 0.70707 0.38597 0.0
C2776 C 0.97445 0.72605 0.38506 0.0
C2777 C 0.98968 0.73206 0.37462 0.0
C2778 C 0.9363 0.70294 0.42904 0.0
C2779 C 0.91829 0.68996 0.42265 0.0
C2780 C 0.95042 0.70842 0.4171 0.0
C2781 C 0.947 0.70087 0.39852 0.0
C2782 C 0.92914 0.68755 0.39216 0.0
C2783 C 0.91492 0.68225 0.40404 0.0
H2784 H 0.38385 0.01868 0.70477 0.0
H2785 H 0.3967 0.06429 0.74474 0.0
H2786 H 0.40357 0.01113 0.7233 0.0
H2787 H 0.41492 0.05598 0.76413 0.0
H2788 H 0.46084 0.05035 0.78742 0.0
H2789 H 0.44148 0.05704 0.76822 0.0
H2790 H 0.40913 0.99914 0.74897 0.0
H2791 H 0.4301 0.99287 0.76647 0.0
C2792 C 0.39079 0.02696 0.71763 0.0
C2793 C 0.38903 0.04225 0.72317 0.0
C2794 C 0.40197 0.02255 0.72844 0.0
C2795 C 0.41117 0.03299 0.74534 0.0
C2796 C 0.40877 0.04793 0.751 0.0
C2797 C 0.39815 0.05267 0.73991 0.0
C2798 C 0.44987 0.03902 0.77883 0.0
C2799 C 0.44739 0.02107 0.77844 0.0
C2800 C 0.43835 0.04281 0.76801 0.0
C2801 C 0.42345 0.02868 0.7569 0.0
C2802 C 0.42057 0.01056 0.75697 0.0
C2803 C 0.43247 0.00686 0.76741 0.0
H2804 H 0.94559 0.33554 0.74272 0.0
H2805 H 1.00034 0.34515 0.74785 0.0
H2806 H 0.95617 0.36655 0.75652 0.0
H2807 H 0.01106 0.37657 0.76149 0.0
H2808 H 0.98151 0.42793 0.76674 0.0
H2809 H 0.97407 0.39871 0.75017 0.0
H2810 H 0.0086 0.39181 0.79064 0.0
H2811 H 0.01618 0.42129 0.80718 0.0
C2812 C 0.95995 0.34436 0.74659 0.0
C2813 C 0.97211 0.33785 0.74418 0.0
C2814 C 0.96605 0.36222 0.75443 0.0
C2815 C 0.98448 0.37409 0.76009 0.0
C2816 C 0.99675 0.36771 0.75742 0.0
C2817 C 0.99063 0.34978 0.74949 0.0
C2818 C 0.9875 0.42017 0.77212 0.0
C2819 C 0.9992 0.42677 0.78844 0.0
C2820 C 0.98325 0.40343 0.76262 0.0
C2821 C 0.99056 0.3928 0.7692 0.0
C2822 C 0.00284 0.39972 0.78512 0.0
C2823 C 0.00715 0.41657 0.79463 0.0
H2824 H 0.66122 0.63993 0.70965 0.0
H2825 H 0.66297 0.58923 0.70454 0.0
H2826 H 0.63299 0.62404 0.72539 0.0
H2827 H 0.635 0.57348 0.7205 0.0
H2828 H 0.59858 0.59547 0.77519 0.0
H2829 H 0.62406 0.61147 0.75573 0.0
H2830 H 0.60263 0.56226 0.71817 0.0
H2831 H 0.57712 0.54625 0.73763 0.0
C2832 C 0.6555 0.62536 0.71171 0.0
C2833 C 0.66439 0.61588 0.70588 0.0
C2834 C 0.63938 0.61628 0.72086 0.0
C2835 C 0.63176 0.5975 0.72433 0.0
C2836 C 0.64035 0.58789 0.7179 0.0
C2837 C 0.65647 0.59696 0.70881 0.0
C2838 C 0.59912 0.58815 0.76261 0.0
C2839 C 0.58583 0.56953 0.75805 0.0
C2840 C 0.61375 0.59734 0.75143 0.0
C2841 C 0.61545 0.58814 0.7354 0.0
C2842 C 0.60191 0.56967 0.73057 0.0
C2843 C 0.58728 0.56048 0.74175 0.0
H2844 H 0.67942 0.68881 0.68004 0.0
H2845 H 0.73376 0.73317 0.67279 0.0
H2846 H 0.66712 0.70747 0.66808 0.0
H2847 H 0.7216 0.75141 0.66019 0.0
H2848 H 0.6524 0.73621 0.6224 0.0
H2849 H 0.66257 0.71809 0.63948 0.0
H2850 H 0.70743 0.76866 0.66608 0.0
H2851 H 0.69761 0.78663 0.64834 0.0
C2852 C 0.68874 0.70258 0.676 0.0
C2853 C 0.70757 0.70949 0.67737 0.0
C2854 C 0.68169 0.71324 0.669 0.0
C2855 C 0.69332 0.73099 0.66306 0.0
C2856 C 0.71217 0.73799 0.6649 0.0
C2857 C 0.71919 0.72744 0.67205 0.0
C2858 C 0.6643 0.74337 0.6321 0.0
C2859 C 0.67433 0.76279 0.63393 0.0
C2860 C 0.67011 0.73301 0.64197 0.0
C2861 C 0.68598 0.74186 0.65408 0.0
C2862 C 0.69544 0.76133 0.65655 0.0
C2863 C 0.68978 0.77166 0.64648 0.0
H2864 H 0.26549 0.98861 0.66405 0.0
H2865 H 0.30847 0.97567 0.66944 0.0
H2866 H 0.24497 0.95762 0.65 0.0
H2867 H 0.28766 0.94431 0.65537 0.0
H2868 H 0.2493 0.89973 0.60708 0.0
H2869 H 0.27128 0.92914 0.6241 0.0
H2870 H 0.22929 0.92549 0.65856 0.0
H2871 H 0.20747 0.89624 0.6417 0.0
C2872 C 0.27053 0.97909 0.66238 0.0
C2873 C 0.28862 0.98462 0.66788 0.0
C2874 C 0.25871 0.96126 0.6544 0.0
C2875 C 0.26466 0.94847 0.65163 0.0
C2876 C 0.28273 0.9539 0.65724 0.0
C2877 C 0.29458 0.9718 0.66539 0.0
C2878 C 0.24486 0.90511 0.61846 0.0
C2879 C 0.22658 0.89583 0.62282 0.0
C2880 C 0.25745 0.92192 0.62822 0.0
C2881 C 0.25197 0.92974 0.64252 0.0
C2882 C 0.23386 0.92003 0.64736 0.0
C2883 C 0.22134 0.9033 0.63765 0.0
H2884 H 0.02195 0.31506 0.70765 0.0
H2885 H 0.01721 0.26117 0.70656 0.0
H2886 H 0.04998 0.32689 0.69151 0.0
H2887 H 0.04495 0.27286 0.69021 0.0
H2888 H 0.10225 0.30189 0.67185 0.0
H2889 H 0.07753 0.29335 0.69243 0.0
H2890 H 0.05802 0.32291 0.66004 0.0
H2891 H 0.08273 0.33144 0.63947 0.0
C2892 C 0.027 0.30579 0.7042 0.0
C2893 C 0.01729 0.28714 0.70835 0.0
C2894 C 0.04299 0.31254 0.6948 0.0
C2895 C 0.04968 0.30081 0.68941 0.0
C2896 C 0.04034 0.28236 0.69428 0.0
C2897 C 0.02435 0.27561 0.70361 0.0
C2898 C 0.09268 0.30657 0.66911 0.0
C2899 C 0.09443 0.31725 0.65391 0.0
C2900 C 0.07851 0.30169 0.68093 0.0
C2901 C 0.0657 0.30736 0.67787 0.0
C2902 C 0.06776 0.31851 0.66299 0.0
C2903 C 0.08194 0.32339 0.65117 0.0
H2904 H 0.26284 0.26761 0.67067 0.0
H2905 H 0.30066 0.32403 0.69139 0.0
H2906 H 0.24624 0.27827 0.65149 0.0
H2907 H 0.28377 0.33468 0.67221 0.0
H2908 H 0.23304 0.33926 0.65054 0.0
H2909 H 0.25166 0.33102 0.66989 0.0
H2910 H 0.25329 0.29772 0.62313 0.0
H2911 H 0.23527 0.30646 0.60347 0.0
C2912 C 0.26753 0.28229 0.67128 0.0
C2913 C 0.28309 0.29497 0.68258 0.0
C2914 C 0.25809 0.28839 0.66015 0.0
C2915 C 0.2638 0.30731 0.66023 0.0
C2916 C 0.27906 0.32001 0.6719 0.0
C2917 C 0.28871 0.31391 0.68286 0.0
C2918 C 0.23772 0.33056 0.64418 0.0
C2919 C 0.23256 0.32352 0.62537 0.0
C2920 C 0.24832 0.32576 0.65535 0.0
C2921 C 0.25379 0.31361 0.64806 0.0
C2922 C 0.24902 0.3069 0.62919 0.0
C2923 C 0.23864 0.31188 0.61795 0.0
H2924 H 0.67442 0.9876 0.65509 0.0
H2925 H 0.72799 0.9941 0.66003 0.0
H2926 H 0.6622 0.95598 0.64118 0.0
H2927 H 0.71593 0.9629 0.64599 0.0
H2928 H 0.68784 0.90132 0.63603 0.0
H2929 H 0.69663 0.93095 0.65256 0.0
H2930 H 0.66373 0.93998 0.61196 0.0
H2931 H 0.65478 0.91008 0.59543 0.0
C2932 C 0.68355 0.98226 0.65333 0.0
C2933 C 0.70217 0.99336 0.6587 0.0
C2934 C 0.67658 0.9642 0.64525 0.0
C2935 C 0.68807 0.95688 0.64252 0.0
C2936 C 0.70662 0.96796 0.64816 0.0
C2937 C 0.71357 0.98593 0.65613 0.0
C2938 C 0.68248 0.90963 0.63061 0.0
C2939 C 0.67086 0.90351 0.61425 0.0
C2940 C 0.68751 0.92661 0.64009 0.0
C2941 C 0.68109 0.93797 0.63345 0.0
C2942 C 0.66883 0.93152 0.61751 0.0
C2943 C 0.66374 0.91443 0.60802 0.0
H2944 H 0.00539 0.74147 0.69266 0.0
H2945 H 0.01585 0.69698 0.70218 0.0
H2946 H 0.03279 0.75696 0.67608 0.0
H2947 H 0.04395 0.71297 0.68623 0.0
H2948 H 0.07895 0.73467 0.6355 0.0
H2949 H 0.054 0.71974 0.65592 0.0
H2950 H 0.0643 0.77351 0.67739 0.0
H2951 H 0.08861 0.78821 0.65633 0.0
C2952 C 0.01378 0.73517 0.69159 0.0
C2953 C 0.00836 0.71793 0.69873 0.0
C2954 C 0.02964 0.74415 0.68212 0.0
C2955 C 0.04072 0.73628 0.67968 0.0
C2956 C 0.03565 0.71934 0.68749 0.0
C2957 C 0.01961 0.71023 0.69682 0.0
C2958 C 0.07592 0.74324 0.64473 0.0
C2959 C 0.08556 0.76257 0.6442 0.0
C2960 C 0.06167 0.73471 0.65654 0.0
C2961 C 0.05691 0.74535 0.66829 0.0
C2962 C 0.06718 0.76477 0.66825 0.0
C2963 C 0.08119 0.77325 0.65625 0.0
H2964 H 0.98874 0.64168 0.72366 0.0
H2965 H 0.93427 0.59789 0.73157 0.0
H2966 H 1.00076 0.6226 0.73513 0.0
H2967 H 0.9462 0.57922 0.74358 0.0
H2968 H 0.96974 0.54327 0.75394 0.0
H2969 H 0.96015 0.56169 0.73667 0.0
H2970 H 0.00509 0.61173 0.76397 0.0
H2971 H 0.01495 0.5932 0.78072 0.0
C2972 C 0.97933 0.62795 0.72771 0.0
C2973 C 0.96055 0.62132 0.72672 0.0
C2974 C 0.98622 0.61706 0.73443 0.0
C2975 C 0.97449 0.59935 0.74038 0.0
C2976 C 0.95568 0.59261 0.73886 0.0
C2977 C 0.94881 0.60341 0.73206 0.0
C2978 C 0.97763 0.55822 0.75608 0.0
C2979 C 0.993 0.56681 0.76875 0.0
C2980 C 0.97211 0.5688 0.74626 0.0
C2981 C 0.98168 0.58823 0.74906 0.0
C2982 C 0.99748 0.59683 0.76125 0.0
C2983 C 0.00313 0.58623 0.77092 0.0
H2984 H 0.39921 0.34189 0.74843 0.0
H2985 H 0.36361 0.36051 0.72676 0.0
H2986 H 0.41865 0.37216 0.7647 0.0
H2987 H 0.38341 0.39112 0.74307 0.0
H2988 H 0.43903 0.44793 0.75902 0.0
H2989 H 0.417 0.41843 0.74238 0.0
H2990 H 0.41444 0.39022 0.79202 0.0
H2991 H 0.43593 0.41965 0.80891 0.0
C2992 C 0.39559 0.35249 0.747 0.0
C2993 C 0.37982 0.34876 0.73631 0.0
C2994 C 0.40668 0.36979 0.75645 0.0
C2995 C 0.40243 0.3839 0.7553 0.0
C2996 C 0.38697 0.38045 0.74418 0.0
C2997 C 0.37566 0.36296 0.73489 0.0
C2998 C 0.43346 0.43552 0.76656 0.0
C2999 C 0.43943 0.43619 0.78531 0.0
C3000 C 0.42089 0.41862 0.75697 0.0
C3001 C 0.4142 0.40205 0.76586 0.0
C3002 C 0.41963 0.40278 0.78475 0.0
C3003 C 0.432 0.41964 0.79438 0.0
H3004 H 0.65196 0.02139 0.69252 0.0
H3005 H 0.66988 0.07861 0.70886 0.0
H3006 H 0.62496 0.01174 0.71029 0.0
H3007 H 0.6432 0.06892 0.72671 0.0
H3008 H 0.60968 0.04201 0.77729 0.0
H3009 H 0.63425 0.0506 0.75667 0.0
H3010 H 0.59579 0.01562 0.71146 0.0
H3011 H 0.57086 0.00758 0.7318 0.0
C3012 C 0.65004 0.0319 0.69967 0.0
C3013 C 0.66312 0.05077 0.69932 0.0
C3014 C 0.63459 0.02637 0.70981 0.0
C3015 C 0.63212 0.03958 0.72003 0.0
C3016 C 0.64487 0.05843 0.71914 0.0
C3017 C 0.66011 0.06396 0.7088 0.0
C3018 C 0.6063 0.03633 0.76289 0.0
C3019 C 0.58813 0.02425 0.75625 0.0
C3020 C 0.62045 0.0412 0.75111 0.0
C3021 C 0.61691 0.03389 0.73244 0.0
C3022 C 0.59889 0.0214 0.72583 0.0
C3023 C 0.58463 0.01674 0.73755 0.0
loop_
_geom_bond_atom_site_label_1
_geom_bond_atom_site_label_2
_geom_bond_distance
_geom_bond_site_symmetry_2
_ccdc_geom_bond_type
O0 Cd1 2.223 . S
O0 C8 1.315 . S
Cd1 O0 2.223 . S
Cd1 O4 2.297 . S
Cd1 O5 2.439 . S
Cd1 O11 2.240 . S
Cd2 O3 2.240 . S
Cd2 O10 2.223 . S
Cd2 O12 2.297 1_554 S
Cd2 O13 2.439 . S
O3 Cd2 2.240 . S
O3 C8 1.279 1_655 S
O4 Cd1 2.297 . S
O4 C6 1.247 . S
O5 Cd1 2.439 . S
O5 C6 1.208 . S
C6 O4 1.247 . S
C6 O5 1.208 . S
C7 O12 1.247 . S
C7 O13 1.208 1_556 S
C8 O0 1.315 . S
C8 O3 1.279 1_455 S
C9 O10 1.335 1_556 S
C9 O11 1.261 1_656 S
O10 Cd2 2.223 . S
O10 C9 1.335 1_554 S
O11 Cd1 2.240 . S
O11 C9 1.261 1_454 S
O12 Cd2 2.297 1_556 S
O12 C7 1.247 . S
O13 Cd2 2.439 . S
O13 C7 1.208 1_554 S
O14 Cd15 2.223 . S
O14 C22 1.315 . S
Cd15 O14 2.223 . S
Cd15 O18 2.297 . S
Cd15 O19 2.439 . S
Cd15 O25 2.240 . S
Cd16 O17 2.240 . S
Cd16 O24 2.223 . S
Cd16 O26 2.297 . S
Cd16 O27 2.439 . S
O17 Cd16 2.240 . S
O17 C22 1.279 . S
O18 Cd15 2.297 . S
O18 C20 1.247 . S
O19 Cd15 2.439 . S
O19 C20 1.208 . S
C20 O18 1.247 . S
C20 O19 1.208 . S
C21 O26 1.247 . S
C21 O27 1.208 . S
C22 O14 1.315 . S
C22 O17 1.279 . S
C23 O24 1.315 . S
C23 O25 1.279 . S
O24 Cd16 2.223 . S
O24 C23 1.315 . S
O25 Cd15 2.240 . S
O25 C23 1.279 . S
O26 Cd16 2.297 . S
O26 C21 1.247 . S
O27 Cd16 2.439 . S
O27 C21 1.208 . S
O28 Cd29 2.223 . S
O28 C36 1.301 1_554 S
Cd29 O28 2.223 . S
Cd29 O32 2.297 1_554 S
Cd29 O33 2.439 . S
Cd29 O39 2.240 . S
Cd30 O31 2.240 . S
Cd30 O38 2.223 . S
Cd30 O40 2.297 . S
Cd30 O41 2.439 . S
O31 Cd30 2.240 . S
O31 C36 1.270 1_564 S
O32 Cd29 2.297 1_556 S
O32 C34 1.247 . S
O33 Cd29 2.439 . S
O33 C34 1.208 1_554 S
C34 O32 1.247 . S
C34 O33 1.208 1_556 S
C35 O40 1.247 . S
C35 O41 1.208 . S
C36 O28 1.301 1_556 S
C36 O31 1.270 1_546 S
C37 O38 1.353 . S
C37 O39 1.243 1_565 S
O38 Cd30 2.223 . S
O38 C37 1.353 . S
O39 Cd29 2.240 . S
O39 C37 1.243 1_545 S
O40 Cd30 2.297 . S
O40 C35 1.247 . S
O41 Cd30 2.439 . S
O41 C35 1.208 . S
O42 Cd43 2.223 . S
O42 C50 1.315 . S
Cd43 O42 2.223 . S
Cd43 O46 2.297 . S
Cd43 O47 2.439 . S
Cd43 O53 2.240 . S
Cd44 O45 2.240 . S
Cd44 O52 2.223 . S
Cd44 O54 2.297 . S
Cd44 O55 2.439 . S
O45 Cd44 2.240 . S
O45 C50 1.279 1_455 S
O46 Cd43 2.297 . S
O46 C48 1.247 . S
O47 Cd43 2.439 . S
O47 C48 1.208 . S
C48 O46 1.247 . S
C48 O47 1.208 . S
C49 O54 1.247 . S
C49 O55 1.208 . S
C50 O42 1.315 . S
C50 O45 1.279 1_655 S
C51 O52 1.315 . S
C51 O53 1.279 1_455 S
O52 Cd44 2.223 . S
O52 C51 1.315 . S
O53 Cd43 2.240 . S
O53 C51 1.279 1_655 S
O54 Cd44 2.297 . S
O54 C49 1.247 . S
O55 Cd44 2.439 . S
O55 C49 1.208 . S
O56 Cd57 2.223 1_556 S
O56 C64 1.315 . S
Cd57 O56 2.223 1_554 S
Cd57 O60 2.297 1_554 S
Cd57 O61 2.439 1_554 S
Cd57 O67 2.240 . S
Cd58 O59 2.240 1_554 S
Cd58 O66 2.223 . S
Cd58 O68 2.297 . S
Cd58 O69 2.439 . S
O59 Cd58 2.240 1_556 S
O59 C64 1.279 . S
O60 Cd57 2.297 1_556 S
O60 C62 1.247 . S
O61 Cd57 2.439 1_556 S
O61 C62 1.208 . S
C62 O60 1.247 . S
C62 O61 1.208 . S
C63 O68 1.247 . S
C63 O69 1.208 . S
C64 O56 1.315 . S
C64 O59 1.279 . S
C65 O66 1.315 . S
C65 O67 1.279 . S
O66 Cd58 2.223 . S
O66 C65 1.315 . S
O67 Cd57 2.240 . S
O67 C65 1.279 . S
O68 Cd58 2.297 . S
O68 C63 1.247 . S
O69 Cd58 2.439 . S
O69 C63 1.208 . S
O70 Cd71 2.223 . S
O70 C78 1.304 1_565 S
Cd71 O70 2.223 . S
Cd71 O74 2.297 . S
Cd71 O75 2.439 . S
Cd71 O81 2.240 . S
Cd72 O73 2.240 . S
Cd72 O80 2.223 . S
Cd72 O82 2.297 . S
Cd72 O83 2.439 . S
O73 Cd72 2.240 . S
O73 C78 1.279 . S
O74 Cd71 2.297 . S
O74 C76 1.247 . S
O75 Cd71 2.439 . S
O75 C76 1.208 . S
C76 O74 1.247 . S
C76 O75 1.208 . S
C77 O82 1.247 . S
C77 O83 1.208 . S
C78 O70 1.304 1_545 S
C78 O73 1.279 . S
C79 O80 1.376 . S
C79 O81 1.221 1_545 S
O80 Cd72 2.223 . S
O80 C79 1.376 . S
O81 Cd71 2.240 . S
O81 C79 1.221 1_565 S
O82 Cd72 2.297 . S
O82 C77 1.247 . S
O83 Cd72 2.439 . S
O83 C77 1.208 . S
O84 Cd85 2.223 . S
O84 C92 1.315 . S
Cd85 O84 2.223 . S
Cd85 O88 2.297 . S
Cd85 O89 2.439 . S
Cd85 O95 2.240 . S
Cd86 O87 2.240 . S
Cd86 O94 2.223 . S
Cd86 O96 2.297 . S
Cd86 O97 2.439 . S
O87 Cd86 2.240 . S
O87 C92 1.279 . S
O88 Cd85 2.297 . S
O88 C90 1.247 . S
O89 Cd85 2.439 . S
O89 C90 1.208 . S
C90 O88 1.247 . S
C90 O89 1.208 . S
C91 O96 1.247 . S
C91 O97 1.208 . S
C92 O84 1.315 . S
C92 O87 1.279 . S
C93 O94 1.315 . S
C93 O95 1.279 . S
O94 Cd86 2.223 . S
O94 C93 1.315 . S
O95 Cd85 2.240 . S
O95 C93 1.279 . S
O96 Cd86 2.297 . S
O96 C91 1.247 . S
O97 Cd86 2.439 . S
O97 C91 1.208 . S
O98 Cd99 2.223 . S
O98 C106 1.315 . S
Cd99 O98 2.223 . S
Cd99 O102 2.297 . S
Cd99 O103 2.439 . S
Cd99 O109 2.240 . S
Cd100 O101 2.240 . S
Cd100 O108 2.223 . S
Cd100 O110 2.297 . S
Cd100 O111 2.439 . S
O101 Cd100 2.240 . S
O101 C106 1.279 . S
O102 Cd99 2.297 . S
O102 C104 1.245 . S
O103 Cd99 2.439 . S
O103 C104 1.237 . S
C104 O102 1.245 . S
C104 O103 1.237 . S
C105 O110 1.247 . S
C105 O111 1.208 . S
C106 O98 1.315 . S
C106 O101 1.279 . S
C107 O108 1.315 . S
C107 O109 1.279 . S
O108 Cd100 2.223 . S
O108 C107 1.315 . S
O109 Cd99 2.240 . S
O109 C107 1.279 . S
O110 Cd100 2.297 . S
O110 C105 1.247 . S
O111 Cd100 2.439 . S
O111 C105 1.208 . S
O112 Cd113 2.223 . S
O112 C120 1.315 . S
Cd113 O112 2.223 . S
Cd113 O116 2.297 . S
Cd113 O117 2.439 . S
Cd113 O123 2.240 . S
Cd114 O115 2.240 . S
Cd114 O122 2.223 . S
Cd114 O124 2.297 . S
Cd114 O125 2.439 . S
O115 Cd114 2.240 . S
O115 C120 1.279 . S
O116 Cd113 2.297 . S
O116 C118 1.247 . S
O117 Cd113 2.439 . S
O117 C118 1.208 . S
C118 O116 1.247 . S
C118 O117 1.208 . S
C119 O124 1.247 . S
C119 O125 1.208 . S
C120 O112 1.315 . S
C120 O115 1.279 . S
C121 O122 1.315 . S
C121 O123 1.279 . S
O122 Cd114 2.223 . S
O122 C121 1.315 . S
O123 Cd113 2.240 . S
O123 C121 1.279 . S
O124 Cd114 2.297 . S
O124 C119 1.247 . S
O125 Cd114 2.439 . S
O125 C119 1.208 . S
O126 Cd127 2.223 . S
O126 C134 1.315 . S
Cd127 O126 2.223 . S
Cd127 O130 2.297 . S
Cd127 O131 2.439 . S
Cd127 O137 2.240 . S
Cd128 O129 2.240 . S
Cd128 O136 2.223 . S
Cd128 O138 2.308 . S
Cd128 O139 2.439 1_565 S
O129 Cd128 2.240 . S
O129 C134 1.279 . S
O130 Cd127 2.297 . S
O130 C132 1.247 . S
O131 Cd127 2.439 . S
O131 C132 1.208 . S
C132 O130 1.247 . S
C132 O131 1.208 . S
C133 O138 1.226 1_545 S
C133 O139 1.208 . S
C134 O126 1.315 . S
C134 O129 1.279 . S
C135 O136 1.315 . S
C135 O137 1.279 . S
O136 Cd128 2.223 . S
O136 C135 1.315 . S
O137 Cd127 2.240 . S
O137 C135 1.279 . S
O138 Cd128 2.308 . S
O138 C133 1.226 1_565 S
O139 Cd128 2.439 1_545 S
O139 C133 1.208 . S
O140 Cd141 2.223 . S
O140 C148 1.315 . S
Cd141 O140 2.223 . S
Cd141 O144 2.297 . S
Cd141 O145 2.439 . S
Cd141 O151 2.240 . S
Cd142 O143 2.240 . S
Cd142 O150 2.223 . S
Cd142 O152 2.297 . S
Cd142 O153 2.439 . S
O143 Cd142 2.240 . S
O143 C148 1.279 . S
O144 Cd141 2.297 . S
O144 C146 1.247 . S
O145 Cd141 2.439 . S
O145 C146 1.208 . S
C146 O144 1.247 . S
C146 O145 1.208 . S
C147 O152 1.247 1_655 S
C147 O153 1.208 1_655 S
C148 O140 1.315 . S
C148 O143 1.279 . S
C149 O150 1.315 . S
C149 O151 1.279 . S
O150 Cd142 2.223 . S
O150 C149 1.315 . S
O151 Cd141 2.240 . S
O151 C149 1.279 . S
O152 Cd142 2.297 . S
O152 C147 1.247 1_455 S
O153 Cd142 2.439 . S
O153 C147 1.208 1_455 S
O154 Cd155 2.223 . S
O154 C162 1.315 . S
Cd155 O154 2.223 . S
Cd155 O158 2.297 . S
Cd155 O159 2.439 . S
Cd155 O165 2.240 . S
Cd156 O157 2.240 . S
Cd156 O164 2.223 . S
Cd156 O166 2.297 . S
Cd156 O167 2.439 . S
O157 Cd156 2.240 . S
O157 C162 1.279 . S
O158 Cd155 2.297 . S
O158 C160 1.247 . S
O159 Cd155 2.439 . S
O159 C160 1.208 . S
C160 O158 1.247 . S
C160 O159 1.208 . S
C161 O166 1.247 . S
C161 O167 1.208 . S
C162 O154 1.315 . S
C162 O157 1.279 . S
C163 O164 1.315 . S
C163 O165 1.279 . S
O164 Cd156 2.223 . S
O164 C163 1.315 . S
O165 Cd155 2.240 . S
O165 C163 1.279 . S
O166 Cd156 2.297 . S
O166 C161 1.247 . S
O167 Cd156 2.439 . S
O167 C161 1.208 . S
O168 Cd169 2.223 . S
O168 C176 1.315 . S
Cd169 O168 2.223 . S
Cd169 O172 2.297 . S
Cd169 O173 2.439 . S
Cd169 O179 2.240 . S
Cd170 O171 2.240 . S
Cd170 O178 2.223 . S
Cd170 O180 2.302 . S
Cd170 O181 2.439 1_545 S
O171 Cd170 2.240 . S
O171 C176 1.279 . S
O172 Cd169 2.297 . S
O172 C174 1.247 . S
O173 Cd169 2.439 . S
O173 C174 1.208 . S
C174 O172 1.247 . S
C174 O173 1.208 . S
C175 O180 1.238 1_565 S
C175 O181 1.208 . S
C176 O168 1.315 . S
C176 O171 1.279 . S
C177 O178 1.315 . S
C177 O179 1.279 . S
O178 Cd170 2.223 . S
O178 C177 1.315 . S
O179 Cd169 2.240 . S
O179 C177 1.279 . S
O180 Cd170 2.302 . S
O180 C175 1.238 1_545 S
O181 Cd170 2.439 1_565 S
O181 C175 1.208 . S
O182 Cd183 2.223 . S
O182 C190 1.315 . S
Cd183 O182 2.223 . S
Cd183 O186 2.297 . S
Cd183 O187 2.439 . S
Cd183 O193 2.240 . S
Cd184 O185 2.240 . S
Cd184 O192 2.223 . S
Cd184 O194 2.297 . S
Cd184 O195 2.440 . S
O185 Cd184 2.240 . S
O185 C190 1.279 . S
O186 Cd183 2.297 . S
O186 C188 1.247 . S
O187 Cd183 2.439 . S
O187 C188 1.208 . S
C188 O186 1.247 . S
C188 O187 1.208 . S
C189 O194 1.247 1_455 S
C189 O195 1.205 1_455 S
C190 O182 1.315 . S
C190 O185 1.279 . S
C191 O192 1.315 . S
C191 O193 1.279 . S
O192 Cd184 2.223 . S
O192 C191 1.315 . S
O193 Cd183 2.240 . S
O193 C191 1.279 . S
O194 Cd184 2.297 . S
O194 C189 1.247 1_655 S
O195 Cd184 2.440 . S
O195 C189 1.205 1_655 S
O196 Cd197 2.223 . S
O196 C204 1.315 . S
Cd197 O196 2.223 . S
Cd197 O200 2.297 . S
Cd197 O201 2.439 . S
Cd197 O207 2.240 . S
Cd198 O199 2.240 . S
Cd198 O206 2.223 . S
Cd198 O208 2.297 . S
Cd198 O209 2.439 . S
O199 Cd198 2.240 . S
O199 C204 1.279 . S
O200 Cd197 2.297 . S
O200 C202 1.247 . S
O201 Cd197 2.439 . S
O201 C202 1.208 . S
C202 O200 1.247 . S
C202 O201 1.208 . S
C203 O208 1.247 . S
C203 O209 1.208 . S
C204 O196 1.315 . S
C204 O199 1.279 . S
C205 O206 1.315 . S
C205 O207 1.279 . S
O206 Cd198 2.223 . S
O206 C205 1.315 . S
O207 Cd197 2.240 . S
O207 C205 1.279 . S
O208 Cd198 2.297 . S
O208 C203 1.247 . S
O209 Cd198 2.439 . S
O209 C203 1.208 . S
O210 Cd211 2.223 . S
O210 C218 1.315 . S
Cd211 O210 2.223 . S
Cd211 O214 2.297 . S
Cd211 O215 2.439 . S
Cd211 O221 2.240 . S
Cd212 O213 2.240 . S
Cd212 O220 2.223 . S
Cd212 O222 2.297 . S
Cd212 O223 2.439 . S
O213 Cd212 2.240 . S
O213 C218 1.279 . S
O214 Cd211 2.297 . S
O214 C216 1.247 . S
O215 Cd211 2.439 . S
O215 C216 1.208 . S
C216 O214 1.247 . S
C216 O215 1.208 . S
C217 O222 1.247 . S
C217 O223 1.208 . S
C218 O210 1.315 . S
C218 O213 1.279 . S
C219 O220 1.315 . S
C219 O221 1.279 . S
O220 Cd212 2.223 . S
O220 C219 1.315 . S
O221 Cd211 2.240 . S
O221 C219 1.279 . S
O222 Cd212 2.297 . S
O222 C217 1.247 . S
O223 Cd212 2.439 . S
O223 C217 1.208 . S
O224 Cd225 2.223 . S
O224 C232 1.315 . S
Cd225 O224 2.223 . S
Cd225 O228 2.297 . S
Cd225 O229 2.439 . S
Cd225 O235 2.240 . S
Cd226 O227 2.240 . S
Cd226 O234 2.223 . S
Cd226 O236 2.297 . S
Cd226 O237 2.439 . S
O227 Cd226 2.240 . S
O227 C232 1.279 . S
O228 Cd225 2.297 . S
O228 C230 1.245 . S
O229 Cd225 2.439 . S
O229 C230 1.229 . S
C230 O228 1.245 . S
C230 O229 1.229 . S
C231 O236 1.247 . S
C231 O237 1.208 . S
C232 O224 1.315 . S
C232 O227 1.279 . S
C233 O234 1.315 . S
C233 O235 1.279 . S
O234 Cd226 2.223 . S
O234 C233 1.315 . S
O235 Cd225 2.240 . S
O235 C233 1.279 . S
O236 Cd226 2.297 . S
O236 C231 1.247 . S
O237 Cd226 2.439 . S
O237 C231 1.208 . S
O238 Cd239 2.223 . S
O238 C246 1.315 . S
Cd239 O238 2.223 . S
Cd239 O242 2.297 . S
Cd239 O243 2.439 . S
Cd239 O249 2.240 . S
Cd240 O241 2.240 . S
Cd240 O248 2.223 . S
Cd240 O250 2.297 . S
Cd240 O251 2.439 . S
O241 Cd240 2.240 . S
O241 C246 1.279 . S
O242 Cd239 2.297 . S
O242 C244 1.247 . S
O243 Cd239 2.439 . S
O243 C244 1.208 . S
C244 O242 1.247 . S
C244 O243 1.208 . S
C245 O250 1.247 . S
C245 O251 1.208 . S
C246 O238 1.315 . S
C246 O241 1.279 . S
C247 O248 1.315 . S
C247 O249 1.279 . S
O248 Cd240 2.223 . S
O248 C247 1.315 . S
O249 Cd239 2.240 . S
O249 C247 1.279 . S
O250 Cd240 2.297 . S
O250 C245 1.247 . S
O251 Cd240 2.439 . S
O251 C245 1.208 . S
H252 O278 0.856 . S
H253 O281 0.854 . S
H254 C289 0.930 . S
H255 C290 0.930 . S
H256 C292 0.930 . S
H257 C293 0.930 . S
H258 C295 0.931 . S
H259 C296 0.930 . S
H260 C298 0.930 . S
H261 C299 0.929 . S
H262 C301 0.930 . S
H263 C302 0.931 . S
H264 C304 0.930 . S
H265 C305 0.929 . S
H266 C307 0.931 . S
H267 C308 0.930 . S
H268 C310 0.930 . S
H269 C311 0.932 . S
H270 C313 0.930 . S
H271 C314 0.929 . S
H272 C316 0.931 . S
H273 C317 0.930 . S
H274 C319 0.929 . S
H275 C320 0.931 . S
H276 C322 0.930 . S
H277 C323 0.929 . S
O278 H252 0.856 . S
O278 C324 1.300 . S
O279 C324 1.209 . S
O280 C325 1.199 . S
O281 H253 0.854 . S
O281 C325 1.297 . S
C282 C283 1.404 . S
C282 C287 1.397 . S
C282 C288 1.492 . S
C283 C282 1.404 . S
C283 C284 1.396 . S
C283 C294 1.492 . S
C284 C283 1.396 . S
C284 C285 1.397 . S
C284 C300 1.509 . S
C285 C284 1.397 . S
C285 C286 1.412 . S
C285 C306 1.485 . S
C286 C285 1.412 . S
C286 C287 1.388 . S
C286 C312 1.490 . S
C287 C282 1.397 . S
C287 C286 1.388 . S
C287 C318 1.519 . S
C288 C282 1.492 . S
C288 C289 1.363 . S
C288 C293 1.390 . S
C289 H254 0.930 . S
C289 C288 1.363 . S
C289 C290 1.372 . S
C290 H255 0.930 . S
C290 C289 1.372 . S
C290 C291 1.383 . S
C291 C290 1.383 . S
C291 C292 1.395 . S
C292 H256 0.930 . S
C292 C291 1.395 . S
C292 C293 1.362 . S
C293 H257 0.930 . S
C293 C288 1.390 . S
C293 C292 1.362 . S
C294 C283 1.492 . S
C294 C295 1.377 . S
C294 C299 1.397 . S
C295 H258 0.931 . S
C295 C294 1.377 . S
C295 C296 1.376 . S
C296 H259 0.930 . S
C296 C295 1.376 . S
C296 C297 1.376 . S
C297 C296 1.376 . S
C297 C298 1.378 . S
C297 C324 1.486 . S
C298 H260 0.930 . S
C298 C297 1.378 . S
C298 C299 1.376 . S
C299 H261 0.929 . S
C299 C294 1.397 . S
C299 C298 1.376 . S
C300 C284 1.509 . S
C300 C301 1.391 . S
C300 C305 1.386 . S
C301 H262 0.930 . S
C301 C300 1.391 . S
C301 C302 1.375 . S
C302 H263 0.931 . S
C302 C301 1.375 . S
C302 C303 1.375 . S
C303 C302 1.375 . S
C303 C304 1.361 . S
C304 H264 0.930 . S
C304 C303 1.361 . S
C304 C305 1.399 . S
C305 H265 0.929 . S
C305 C300 1.386 . S
C305 C304 1.399 . S
C306 C285 1.485 . S
C306 C307 1.394 . S
C306 C311 1.360 . S
C307 H266 0.931 . S
C307 C306 1.394 . S
C307 C308 1.372 . S
C308 H267 0.930 . S
C308 C307 1.372 . S
C308 C309 1.397 . S
C309 C308 1.397 . S
C309 C310 1.390 . S
C309 C325 1.476 . S
C310 H268 0.930 . S
C310 C309 1.390 . S
C310 C311 1.366 . S
C311 H269 0.932 . S
C311 C306 1.360 . S
C311 C310 1.366 . S
C312 C286 1.490 . S
C312 C313 1.380 . S
C312 C317 1.386 . S
C313 H270 0.930 . S
C313 C312 1.380 . S
C313 C314 1.381 . S
C314 H271 0.929 . S
C314 C313 1.381 . S
C314 C315 1.371 . S
C315 C314 1.371 . S
C315 C316 1.380 . S
C316 H272 0.931 . S
C316 C315 1.380 . S
C316 C317 1.387 . S
C317 H273 0.930 . S
C317 C312 1.386 . S
C317 C316 1.387 . S
C318 C287 1.519 . S
C318 C319 1.377 . S
C318 C323 1.361 . S
C319 H274 0.929 . S
C319 C318 1.377 . S
C319 C320 1.386 . S
C320 H275 0.931 . S
C320 C319 1.386 . S
C320 C321 1.363 . S
C321 C320 1.363 . S
C321 C322 1.385 . S
C322 H276 0.930 . S
C322 C321 1.385 . S
C322 C323 1.396 . S
C323 H277 0.929 . S
C323 C318 1.361 . S
C323 C322 1.396 . S
C324 O278 1.300 . S
C324 O279 1.209 . S
C324 C297 1.486 . S
C325 O280 1.199 . S
C325 O281 1.297 . S
C325 C309 1.476 . S
H326 O352 0.856 . S
H327 O355 0.854 . S
H328 C363 0.930 . S
H329 C364 0.930 . S
H330 C366 0.930 . S
H331 C367 0.930 . S
H332 C369 0.931 . S
H333 C370 0.930 . S
H334 C372 0.930 . S
H335 C373 0.929 . S
H336 C375 0.930 . S
H337 C376 0.931 . S
H338 C378 0.930 . S
H339 C379 0.929 . S
H340 C381 0.931 . S
H341 C382 0.930 . S
H342 C384 0.930 . S
H343 C385 0.932 . S
H344 C387 0.930 . S
H345 C388 0.929 . S
H346 C390 0.931 . S
H347 C391 0.930 . S
H348 C393 0.929 . S
H349 C394 0.931 . S
H350 C396 0.930 . S
H351 C397 0.929 . S
O352 H326 0.856 . S
O352 C398 1.300 . S
O353 C398 1.209 . S
O354 C399 1.199 . S
O355 H327 0.854 . S
O355 C399 1.297 . S
C356 C357 1.404 . S
C356 C361 1.397 . S
C356 C362 1.492 . S
C357 C356 1.404 . S
C357 C358 1.396 . S
C357 C368 1.492 . S
C358 C357 1.396 . S
C358 C359 1.397 . S
C358 C374 1.509 . S
C359 C358 1.397 . S
C359 C360 1.412 . S
C359 C380 1.485 . S
C360 C359 1.412 . S
C360 C361 1.388 . S
C360 C386 1.490 . S
C361 C356 1.397 . S
C361 C360 1.388 . S
C361 C392 1.519 . S
C362 C356 1.492 . S
C362 C363 1.363 . S
C362 C367 1.390 . S
C363 H328 0.930 . S
C363 C362 1.363 . S
C363 C364 1.372 . S
C364 H329 0.930 . S
C364 C363 1.372 . S
C364 C365 1.383 . S
C365 C364 1.383 . S
C365 C366 1.395 . S
C366 H330 0.930 . S
C366 C365 1.395 . S
C366 C367 1.362 . S
C367 H331 0.930 . S
C367 C362 1.390 . S
C367 C366 1.362 . S
C368 C357 1.492 . S
C368 C369 1.377 . S
C368 C373 1.397 . S
C369 H332 0.931 . S
C369 C368 1.377 . S
C369 C370 1.376 . S
C370 H333 0.930 . S
C370 C369 1.376 . S
C370 C371 1.376 . S
C371 C370 1.376 . S
C371 C372 1.378 . S
C371 C398 1.486 . S
C372 H334 0.930 . S
C372 C371 1.378 . S
C372 C373 1.376 . S
C373 H335 0.929 . S
C373 C368 1.397 . S
C373 C372 1.376 . S
C374 C358 1.509 . S
C374 C375 1.391 . S
C374 C379 1.386 . S
C375 H336 0.930 . S
C375 C374 1.391 . S
C375 C376 1.375 . S
C376 H337 0.931 . S
C376 C375 1.375 . S
C376 C377 1.375 . S
C377 C376 1.375 . S
C377 C378 1.361 . S
C378 H338 0.930 . S
C378 C377 1.361 . S
C378 C379 1.399 . S
C379 H339 0.929 . S
C379 C374 1.386 . S
C379 C378 1.399 . S
C380 C359 1.485 . S
C380 C381 1.394 . S
C380 C385 1.360 . S
C381 H340 0.931 . S
C381 C380 1.394 . S
C381 C382 1.372 . S
C382 H341 0.930 . S
C382 C381 1.372 . S
C382 C383 1.397 . S
C383 C382 1.397 . S
C383 C384 1.390 . S
C383 C399 1.476 . S
C384 H342 0.930 . S
C384 C383 1.390 . S
C384 C385 1.366 . S
C385 H343 0.932 . S
C385 C380 1.360 . S
C385 C384 1.366 . S
C386 C360 1.490 . S
C386 C387 1.380 . S
C386 C391 1.386 . S
C387 H344 0.930 . S
C387 C386 1.380 . S
C387 C388 1.381 . S
C388 H345 0.929 . S
C388 C387 1.381 . S
C388 C389 1.371 . S
C389 C388 1.371 . S
C389 C390 1.380 . S
C390 H346 0.931 . S
C390 C389 1.380 . S
C390 C391 1.387 . S
C391 H347 0.930 . S
C391 C386 1.386 . S
C391 C390 1.387 . S
C392 C361 1.519 . S
C392 C393 1.377 . S
C392 C397 1.361 . S
C393 H348 0.929 . S
C393 C392 1.377 . S
C393 C394 1.386 . S
C394 H349 0.931 . S
C394 C393 1.386 . S
C394 C395 1.363 . S
C395 C394 1.363 . S
C395 C396 1.385 . S
C396 H350 0.930 . S
C396 C395 1.385 . S
C396 C397 1.396 . S
C397 H351 0.929 . S
C397 C392 1.361 . S
C397 C396 1.396 . S
C398 O352 1.300 . S
C398 O353 1.209 . S
C398 C371 1.486 . S
C399 O354 1.199 . S
C399 O355 1.297 . S
C399 C383 1.476 . S
H400 O426 0.856 . S
H401 O429 0.854 . S
H402 C437 0.930 . S
H403 C438 0.930 . S
H404 C440 0.930 . S
H405 C441 0.930 . S
H406 C443 0.931 . S
H407 C444 0.930 . S
H408 C446 0.930 . S
H409 C447 0.929 . S
H410 C449 0.930 . S
H411 C450 0.931 . S
H412 C452 0.930 . S
H413 C453 0.929 . S
H414 C455 0.931 . S
H415 C456 0.930 . S
H416 C458 0.930 . S
H417 C459 0.932 . S
H418 C461 0.930 . S
H419 C462 0.929 . S
H420 C464 0.931 . S
H421 C465 0.930 . S
H422 C467 0.929 . S
H423 C468 0.931 . S
H424 C470 0.930 . S
H425 C471 0.929 . S
O426 H400 0.856 . S
O426 C472 1.300 . S
O427 C472 1.209 . S
O428 C473 1.199 . S
O429 H401 0.854 . S
O429 C473 1.297 . S
C430 C431 1.404 . S
C430 C435 1.397 . S
C430 C436 1.492 . S
C431 C430 1.404 . S
C431 C432 1.396 . S
C431 C442 1.492 . S
C432 C431 1.396 . S
C432 C433 1.397 . S
C432 C448 1.509 . S
C433 C432 1.397 . S
C433 C434 1.412 . S
C433 C454 1.485 . S
C434 C433 1.412 . S
C434 C435 1.388 . S
C434 C460 1.490 . S
C435 C430 1.397 . S
C435 C434 1.388 . S
C435 C466 1.519 . S
C436 C430 1.492 . S
C436 C437 1.363 . S
C436 C441 1.390 . S
C437 H402 0.930 . S
C437 C436 1.363 . S
C437 C438 1.372 . S
C438 H403 0.930 . S
C438 C437 1.372 . S
C438 C439 1.383 . S
C439 C438 1.383 . S
C439 C440 1.395 . S
C440 H404 0.930 . S
C440 C439 1.395 . S
C440 C441 1.362 . S
C441 H405 0.930 . S
C441 C436 1.390 . S
C441 C440 1.362 . S
C442 C431 1.492 . S
C442 C443 1.377 . S
C442 C447 1.397 . S
C443 H406 0.931 . S
C443 C442 1.377 . S
C443 C444 1.376 . S
C444 H407 0.930 . S
C444 C443 1.376 . S
C444 C445 1.376 . S
C445 C444 1.376 . S
C445 C446 1.378 . S
C445 C472 1.486 . S
C446 H408 0.930 . S
C446 C445 1.378 . S
C446 C447 1.376 . S
C447 H409 0.929 . S
C447 C442 1.397 . S
C447 C446 1.376 . S
C448 C432 1.509 . S
C448 C449 1.391 . S
C448 C453 1.386 . S
C449 H410 0.930 . S
C449 C448 1.391 . S
C449 C450 1.375 . S
C450 H411 0.931 . S
C450 C449 1.375 . S
C450 C451 1.375 . S
C451 C450 1.375 . S
C451 C452 1.361 . S
C452 H412 0.930 . S
C452 C451 1.361 . S
C452 C453 1.399 . S
C453 H413 0.929 . S
C453 C448 1.386 . S
C453 C452 1.399 . S
C454 C433 1.485 . S
C454 C455 1.394 . S
C454 C459 1.360 . S
C455 H414 0.931 . S
C455 C454 1.394 . S
C455 C456 1.372 . S
C456 H415 0.930 . S
C456 C455 1.372 . S
C456 C457 1.397 . S
C457 C456 1.397 . S
C457 C458 1.390 . S
C457 C473 1.476 . S
C458 H416 0.930 . S
C458 C457 1.390 . S
C458 C459 1.366 . S
C459 H417 0.932 . S
C459 C454 1.360 . S
C459 C458 1.366 . S
C460 C434 1.490 . S
C460 C461 1.380 . S
C460 C465 1.386 . S
C461 H418 0.930 . S
C461 C460 1.380 . S
C461 C462 1.381 . S
C462 H419 0.929 . S
C462 C461 1.381 . S
C462 C463 1.371 . S
C463 C462 1.371 . S
C463 C464 1.380 . S
C464 H420 0.931 . S
C464 C463 1.380 . S
C464 C465 1.387 . S
C465 H421 0.930 . S
C465 C460 1.386 . S
C465 C464 1.387 . S
C466 C435 1.519 . S
C466 C467 1.377 . S
C466 C471 1.361 . S
C467 H422 0.929 . S
C467 C466 1.377 . S
C467 C468 1.386 . S
C468 H423 0.931 . S
C468 C467 1.386 . S
C468 C469 1.363 . S
C469 C468 1.363 . S
C469 C470 1.385 . S
C470 H424 0.930 . S
C470 C469 1.385 . S
C470 C471 1.396 . S
C471 H425 0.929 . S
C471 C466 1.361 . S
C471 C470 1.396 . S
C472 O426 1.300 . S
C472 O427 1.209 . S
C472 C445 1.486 . S
C473 O428 1.199 . S
C473 O429 1.297 . S
C473 C457 1.476 . S
H474 O500 0.856 . S
H475 O503 0.854 . S
H476 C511 0.930 . S
H477 C512 0.930 . S
H478 C514 0.930 . S
H479 C515 0.930 . S
H480 C517 0.931 . S
H481 C518 0.930 . S
H482 C520 0.930 . S
H483 C521 0.929 . S
H484 C523 0.930 . S
H485 C524 0.931 . S
H486 C526 0.930 . S
H487 C527 0.929 . S
H488 C529 0.931 . S
H489 C530 0.930 . S
H490 C532 0.930 . S
H491 C533 0.932 . S
H492 C535 0.930 . S
H493 C536 0.929 . S
H494 C538 0.931 . S
H495 C539 0.930 . S
H496 C541 0.929 . S
H497 C542 0.931 . S
H498 C544 0.930 . S
H499 C545 0.929 . S
O500 H474 0.856 . S
O500 C546 1.300 . S
O501 C546 1.209 . S
O502 C547 1.199 . S
O503 H475 0.854 . S
O503 C547 1.297 . S
C504 C505 1.404 . S
C504 C509 1.397 . S
C504 C510 1.492 . S
C505 C504 1.404 . S
C505 C506 1.396 . S
C505 C516 1.492 . S
C506 C505 1.396 . S
C506 C507 1.397 . S
C506 C522 1.509 . S
C507 C506 1.397 . S
C507 C508 1.412 . S
C507 C528 1.485 . S
C508 C507 1.412 . S
C508 C509 1.388 . S
C508 C534 1.490 . S
C509 C504 1.397 . S
C509 C508 1.388 . S
C509 C540 1.519 . S
C510 C504 1.492 . S
C510 C511 1.363 . S
C510 C515 1.390 . S
C511 H476 0.930 . S
C511 C510 1.363 . S
C511 C512 1.372 . S
C512 H477 0.930 . S
C512 C511 1.372 . S
C512 C513 1.383 . S
C513 C512 1.383 . S
C513 C514 1.395 . S
C514 H478 0.930 . S
C514 C513 1.395 . S
C514 C515 1.362 . S
C515 H479 0.930 . S
C515 C510 1.390 . S
C515 C514 1.362 . S
C516 C505 1.492 . S
C516 C517 1.377 . S
C516 C521 1.397 . S
C517 H480 0.931 . S
C517 C516 1.377 . S
C517 C518 1.376 . S
C518 H481 0.930 . S
C518 C517 1.376 . S
C518 C519 1.376 . S
C519 C518 1.376 . S
C519 C520 1.378 . S
C519 C546 1.486 . S
C520 H482 0.930 . S
C520 C519 1.378 . S
C520 C521 1.376 . S
C521 H483 0.929 . S
C521 C516 1.397 . S
C521 C520 1.376 . S
C522 C506 1.509 . S
C522 C523 1.391 . S
C522 C527 1.386 . S
C523 H484 0.930 . S
C523 C522 1.391 . S
C523 C524 1.375 . S
C524 H485 0.931 . S
C524 C523 1.375 . S
C524 C525 1.375 . S
C525 C524 1.375 . S
C525 C526 1.361 . S
C526 H486 0.930 . S
C526 C525 1.361 . S
C526 C527 1.399 . S
C527 H487 0.929 . S
C527 C522 1.386 . S
C527 C526 1.399 . S
C528 C507 1.485 . S
C528 C529 1.394 . S
C528 C533 1.360 . S
C529 H488 0.931 . S
C529 C528 1.394 . S
C529 C530 1.372 . S
C530 H489 0.930 . S
C530 C529 1.372 . S
C530 C531 1.397 . S
C531 C530 1.397 . S
C531 C532 1.390 . S
C531 C547 1.476 . S
C532 H490 0.930 . S
C532 C531 1.390 . S
C532 C533 1.366 . S
C533 H491 0.932 . S
C533 C528 1.360 . S
C533 C532 1.366 . S
C534 C508 1.490 . S
C534 C535 1.380 . S
C534 C539 1.386 . S
C535 H492 0.930 . S
C535 C534 1.380 . S
C535 C536 1.381 . S
C536 H493 0.929 . S
C536 C535 1.381 . S
C536 C537 1.371 . S
C537 C536 1.371 . S
C537 C538 1.380 . S
C538 H494 0.931 . S
C538 C537 1.380 . S
C538 C539 1.387 . S
C539 H495 0.930 . S
C539 C534 1.386 . S
C539 C538 1.387 . S
C540 C509 1.519 . S
C540 C541 1.377 . S
C540 C545 1.361 . S
C541 H496 0.929 . S
C541 C540 1.377 . S
C541 C542 1.386 . S
C542 H497 0.931 . S
C542 C541 1.386 . S
C542 C543 1.363 . S
C543 C542 1.363 . S
C543 C544 1.385 . S
C544 H498 0.930 . S
C544 C543 1.385 . S
C544 C545 1.396 . S
C545 H499 0.929 . S
C545 C540 1.361 . S
C545 C544 1.396 . S
C546 O500 1.300 . S
C546 O501 1.209 . S
C546 C519 1.486 . S
C547 O502 1.199 . S
C547 O503 1.297 . S
C547 C531 1.476 . S
H548 O574 0.856 1_554 S
H549 O577 0.854 . S
H550 C585 0.930 . S
H551 C586 0.930 . S
H552 C588 0.930 . S
H553 C589 0.930 . S
H554 C591 0.931 . S
H555 C592 0.930 . S
H556 C594 0.930 . S
H557 C595 0.929 . S
H558 C597 0.930 . S
H559 C598 0.931 . S
H560 C600 0.930 . S
H561 C601 0.929 . S
H562 C603 0.931 . S
H563 C604 0.930 . S
H564 C606 0.930 . S
H565 C607 0.932 . S
H566 C609 0.930 . S
H567 C610 0.929 . S
H568 C612 0.931 . S
H569 C613 0.930 . S
H570 C615 0.929 . S
H571 C616 0.931 . S
H572 C618 0.930 . S
H573 C619 0.929 . S
O574 H548 0.856 1_556 S
O574 C620 1.300 . S
O575 C620 1.209 . S
O576 C621 1.199 . S
O577 H549 0.854 . S
O577 C621 1.297 . S
C578 C579 1.404 . S
C578 C583 1.397 . S
C578 C584 1.492 . S
C579 C578 1.404 . S
C579 C580 1.396 . S
C579 C590 1.492 . S
C580 C579 1.396 . S
C580 C581 1.397 . S
C580 C596 1.509 . S
C581 C580 1.397 . S
C581 C582 1.412 . S
C581 C602 1.485 . S
C582 C581 1.412 . S
C582 C583 1.388 . S
C582 C608 1.490 . S
C583 C578 1.397 . S
C583 C582 1.388 . S
C583 C614 1.519 . S
C584 C578 1.492 . S
C584 C585 1.363 . S
C584 C589 1.390 . S
C585 H550 0.930 . S
C585 C584 1.363 . S
C585 C586 1.372 . S
C586 H551 0.930 . S
C586 C585 1.372 . S
C586 C587 1.383 . S
C587 C586 1.383 . S
C587 C588 1.395 . S
C588 H552 0.930 . S
C588 C587 1.395 . S
C588 C589 1.362 . S
C589 H553 0.930 . S
C589 C584 1.390 . S
C589 C588 1.362 . S
C590 C579 1.492 . S
C590 C591 1.377 . S
C590 C595 1.397 . S
C591 H554 0.931 . S
C591 C590 1.377 . S
C591 C592 1.376 . S
C592 H555 0.930 . S
C592 C591 1.376 . S
C592 C593 1.376 . S
C593 C592 1.376 . S
C593 C594 1.378 . S
C593 C620 1.486 . S
C594 H556 0.930 . S
C594 C593 1.378 . S
C594 C595 1.376 . S
C595 H557 0.929 . S
C595 C590 1.397 . S
C595 C594 1.376 . S
C596 C580 1.509 . S
C596 C597 1.391 . S
C596 C601 1.386 . S
C597 H558 0.930 . S
C597 C596 1.391 . S
C597 C598 1.375 . S
C598 H559 0.931 . S
C598 C597 1.375 . S
C598 C599 1.375 . S
C599 C598 1.375 . S
C599 C600 1.361 . S
C600 H560 0.930 . S
C600 C599 1.361 . S
C600 C601 1.399 . S
C601 H561 0.929 . S
C601 C596 1.386 . S
C601 C600 1.399 . S
C602 C581 1.485 . S
C602 C603 1.394 . S
C602 C607 1.360 . S
C603 H562 0.931 . S
C603 C602 1.394 . S
C603 C604 1.372 . S
C604 H563 0.930 . S
C604 C603 1.372 . S
C604 C605 1.397 . S
C605 C604 1.397 . S
C605 C606 1.390 . S
C605 C621 1.476 . S
C606 H564 0.930 . S
C606 C605 1.390 . S
C606 C607 1.366 . S
C607 H565 0.932 . S
C607 C602 1.360 . S
C607 C606 1.366 . S
C608 C582 1.490 . S
C608 C609 1.380 . S
C608 C613 1.386 . S
C609 H566 0.930 . S
C609 C608 1.380 . S
C609 C610 1.381 . S
C610 H567 0.929 . S
C610 C609 1.381 . S
C610 C611 1.371 . S
C611 C610 1.371 . S
C611 C612 1.380 . S
C612 H568 0.931 . S
C612 C611 1.380 . S
C612 C613 1.387 . S
C613 H569 0.930 . S
C613 C608 1.386 . S
C613 C612 1.387 . S
C614 C583 1.519 . S
C614 C615 1.377 . S
C614 C619 1.361 . S
C615 H570 0.929 . S
C615 C614 1.377 . S
C615 C616 1.386 . S
C616 H571 0.931 . S
C616 C615 1.386 . S
C616 C617 1.363 . S
C617 C616 1.363 . S
C617 C618 1.385 . S
C618 H572 0.930 . S
C618 C617 1.385 . S
C618 C619 1.396 . S
C619 H573 0.929 . S
C619 C614 1.361 . S
C619 C618 1.396 . S
C620 O574 1.300 . S
C620 O575 1.209 . S
C620 C593 1.486 . S
C621 O576 1.199 . S
C621 O577 1.297 . S
C621 C605 1.476 . S
H622 O648 0.856 . S
H623 O651 0.854 . S
H624 C659 0.930 . S
H625 C660 0.930 . S
H626 C662 0.930 . S
H627 C663 0.930 . S
H628 C665 0.931 . S
H629 C666 0.930 . S
H630 C668 0.930 . S
H631 C669 0.929 . S
H632 C671 0.930 . S
H633 C672 0.931 . S
H634 C674 0.930 . S
H635 C675 0.929 . S
H636 C677 0.931 . S
H637 C678 0.930 . S
H638 C680 0.930 . S
H639 C681 0.932 . S
H640 C683 0.930 . S
H641 C684 0.929 . S
H642 C686 0.931 . S
H643 C687 0.930 . S
H644 C689 0.929 . S
H645 C690 0.931 . S
H646 C692 0.930 . S
H647 C693 0.929 . S
O648 H622 0.856 . S
O648 C694 1.300 1_554 S
O649 C694 1.209 . S
O650 C695 1.199 . S
O651 H623 0.854 . S
O651 C695 1.297 . S
C652 C653 1.404 . S
C652 C657 1.397 . S
C652 C658 1.492 . S
C653 C652 1.404 . S
C653 C654 1.396 . S
C653 C664 1.492 . S
C654 C653 1.396 . S
C654 C655 1.397 . S
C654 C670 1.509 . S
C655 C654 1.397 . S
C655 C656 1.412 . S
C655 C676 1.485 . S
C656 C655 1.412 . S
C656 C657 1.388 . S
C656 C682 1.490 . S
C657 C652 1.397 . S
C657 C656 1.388 . S
C657 C688 1.519 . S
C658 C652 1.492 . S
C658 C659 1.363 . S
C658 C663 1.390 . S
C659 H624 0.930 . S
C659 C658 1.363 . S
C659 C660 1.372 . S
C660 H625 0.930 . S
C660 C659 1.372 . S
C660 C661 1.383 . S
C661 C660 1.383 . S
C661 C662 1.395 . S
C662 H626 0.930 . S
C662 C661 1.395 . S
C662 C663 1.362 . S
C663 H627 0.930 . S
C663 C658 1.390 . S
C663 C662 1.362 . S
C664 C653 1.492 . S
C664 C665 1.377 . S
C664 C669 1.397 . S
C665 H628 0.931 . S
C665 C664 1.377 . S
C665 C666 1.376 . S
C666 H629 0.930 . S
C666 C665 1.376 . S
C666 C667 1.376 . S
C667 C666 1.376 . S
C667 C668 1.378 . S
C667 C694 1.486 . S
C668 H630 0.930 . S
C668 C667 1.378 . S
C668 C669 1.376 . S
C669 H631 0.929 . S
C669 C664 1.397 . S
C669 C668 1.376 . S
C670 C654 1.509 . S
C670 C671 1.391 . S
C670 C675 1.386 . S
C671 H632 0.930 . S
C671 C670 1.391 . S
C671 C672 1.375 . S
C672 H633 0.931 . S
C672 C671 1.375 . S
C672 C673 1.375 . S
C673 C672 1.375 . S
C673 C674 1.361 . S
C674 H634 0.930 . S
C674 C673 1.361 . S
C674 C675 1.399 . S
C675 H635 0.929 . S
C675 C670 1.386 . S
C675 C674 1.399 . S
C676 C655 1.485 . S
C676 C677 1.394 . S
C676 C681 1.360 . S
C677 H636 0.931 . S
C677 C676 1.394 . S
C677 C678 1.372 . S
C678 H637 0.930 . S
C678 C677 1.372 . S
C678 C679 1.397 . S
C679 C678 1.397 . S
C679 C680 1.390 . S
C679 C695 1.476 . S
C680 H638 0.930 . S
C680 C679 1.390 . S
C680 C681 1.366 . S
C681 H639 0.932 . S
C681 C676 1.360 . S
C681 C680 1.366 . S
C682 C656 1.490 . S
C682 C683 1.380 . S
C682 C687 1.386 . S
C683 H640 0.930 . S
C683 C682 1.380 . S
C683 C684 1.381 . S
C684 H641 0.929 . S
C684 C683 1.381 . S
C684 C685 1.371 . S
C685 C684 1.371 . S
C685 C686 1.380 . S
C686 H642 0.931 . S
C686 C685 1.380 . S
C686 C687 1.387 . S
C687 H643 0.930 . S
C687 C682 1.386 . S
C687 C686 1.387 . S
C688 C657 1.519 . S
C688 C689 1.377 . S
C688 C693 1.361 . S
C689 H644 0.929 . S
C689 C688 1.377 . S
C689 C690 1.386 . S
C690 H645 0.931 . S
C690 C689 1.386 . S
C690 C691 1.363 . S
C691 C690 1.363 . S
C691 C692 1.385 . S
C692 H646 0.930 . S
C692 C691 1.385 . S
C692 C693 1.396 . S
C693 H647 0.929 . S
C693 C688 1.361 . S
C693 C692 1.396 . S
C694 O648 1.300 1_556 S
C694 O649 1.209 . S
C694 C667 1.486 . S
C695 O650 1.199 . S
C695 O651 1.297 . S
C695 C679 1.476 . S
H696 O722 0.856 . S
H697 O725 0.854 . S
H698 C733 0.930 . S
H699 C734 0.930 . S
H700 C736 0.930 . S
H701 C737 0.930 . S
H702 C739 0.931 . S
H703 C740 0.930 . S
H704 C742 0.930 . S
H705 C743 0.929 . S
H706 C745 0.930 . S
H707 C746 0.931 . S
H708 C748 0.930 . S
H709 C749 0.929 . S
H710 C751 0.931 . S
H711 C752 0.930 . S
H712 C754 0.930 . S
H713 C755 0.932 . S
H714 C757 0.930 . S
H715 C758 0.929 . S
H716 C760 0.931 . S
H717 C761 0.930 . S
H718 C763 0.929 . S
H719 C764 0.931 . S
H720 C766 0.930 . S
H721 C767 0.929 . S
O722 H696 0.856 . S
O722 C768 1.300 . S
O723 C768 1.209 . S
O724 C769 1.199 . S
O725 H697 0.854 . S
O725 C769 1.297 . S
C726 C727 1.404 . S
C726 C731 1.397 . S
C726 C732 1.492 . S
C727 C726 1.404 . S
C727 C728 1.396 . S
C727 C738 1.492 . S
C728 C727 1.396 . S
C728 C729 1.397 . S
C728 C744 1.509 . S
C729 C728 1.397 . S
C729 C730 1.412 . S
C729 C750 1.485 . S
C730 C729 1.412 . S
C730 C731 1.388 . S
C730 C756 1.490 . S
C731 C726 1.397 . S
C731 C730 1.388 . S
C731 C762 1.519 . S
C732 C726 1.492 . S
C732 C733 1.363 . S
C732 C737 1.390 . S
C733 H698 0.930 . S
C733 C732 1.363 . S
C733 C734 1.372 . S
C734 H699 0.930 . S
C734 C733 1.372 . S
C734 C735 1.383 . S
C735 C734 1.383 . S
C735 C736 1.395 . S
C736 H700 0.930 . S
C736 C735 1.395 . S
C736 C737 1.362 . S
C737 H701 0.930 . S
C737 C732 1.390 . S
C737 C736 1.362 . S
C738 C727 1.492 . S
C738 C739 1.377 . S
C738 C743 1.397 . S
C739 H702 0.931 . S
C739 C738 1.377 . S
C739 C740 1.376 . S
C740 H703 0.930 . S
C740 C739 1.376 . S
C740 C741 1.376 . S
C741 C740 1.376 . S
C741 C742 1.378 . S
C741 C768 1.486 . S
C742 H704 0.930 . S
C742 C741 1.378 . S
C742 C743 1.376 . S
C743 H705 0.929 . S
C743 C738 1.397 . S
C743 C742 1.376 . S
C744 C728 1.509 . S
C744 C745 1.391 . S
C744 C749 1.386 . S
C745 H706 0.930 . S
C745 C744 1.391 . S
C745 C746 1.375 . S
C746 H707 0.931 . S
C746 C745 1.375 . S
C746 C747 1.375 . S
C747 C746 1.375 . S
C747 C748 1.361 . S
C748 H708 0.930 . S
C748 C747 1.361 . S
C748 C749 1.399 . S
C749 H709 0.929 . S
C749 C744 1.386 . S
C749 C748 1.399 . S
C750 C729 1.485 . S
C750 C751 1.394 . S
C750 C755 1.360 . S
C751 H710 0.931 . S
C751 C750 1.394 . S
C751 C752 1.372 . S
C752 H711 0.930 . S
C752 C751 1.372 . S
C752 C753 1.397 . S
C753 C752 1.397 . S
C753 C754 1.390 . S
C753 C769 1.476 . S
C754 H712 0.930 . S
C754 C753 1.390 . S
C754 C755 1.366 . S
C755 H713 0.932 . S
C755 C750 1.360 . S
C755 C754 1.366 . S
C756 C730 1.490 . S
C756 C757 1.380 . S
C756 C761 1.386 . S
C757 H714 0.930 . S
C757 C756 1.380 . S
C757 C758 1.381 . S
C758 H715 0.929 . S
C758 C757 1.381 . S
C758 C759 1.371 . S
C759 C758 1.371 . S
C759 C760 1.380 . S
C760 H716 0.931 . S
C760 C759 1.380 . S
C760 C761 1.387 . S
C761 H717 0.930 . S
C761 C756 1.386 . S
C761 C760 1.387 . S
C762 C731 1.519 . S
C762 C763 1.377 . S
C762 C767 1.361 . S
C763 H718 0.929 . S
C763 C762 1.377 . S
C763 C764 1.386 . S
C764 H719 0.931 . S
C764 C763 1.386 . S
C764 C765 1.363 . S
C765 C764 1.363 . S
C765 C766 1.385 . S
C766 H720 0.930 . S
C766 C765 1.385 . S
C766 C767 1.396 . S
C767 H721 0.929 . S
C767 C762 1.361 . S
C767 C766 1.396 . S
C768 O722 1.300 . S
C768 O723 1.209 . S
C768 C741 1.486 . S
C769 O724 1.199 . S
C769 O725 1.297 . S
C769 C753 1.476 . S
H770 O796 0.856 . S
H771 O799 0.854 . S
H772 C807 0.930 . S
H773 C808 0.930 . S
H774 C810 0.930 . S
H775 C811 0.930 . S
H776 C813 0.931 . S
H777 C814 0.930 . S
H778 C816 0.930 . S
H779 C817 0.929 . S
H780 C819 0.930 . S
H781 C820 0.931 . S
H782 C822 0.930 . S
H783 C823 0.929 . S
H784 C825 0.931 . S
H785 C826 0.930 . S
H786 C828 0.930 . S
H787 C829 0.932 . S
H788 C831 0.930 . S
H789 C832 0.929 . S
H790 C834 0.931 . S
H791 C835 0.930 . S
H792 C837 0.929 . S
H793 C838 0.931 . S
H794 C840 0.930 . S
H795 C841 0.929 . S
O796 H770 0.856 . S
O796 C842 1.300 . S
O797 C842 1.209 . S
O798 C843 1.199 . S
O799 H771 0.854 . S
O799 C843 1.297 . S
C800 C801 1.404 . S
C800 C805 1.397 . S
C800 C806 1.492 . S
C801 C800 1.404 . S
C801 C802 1.396 . S
C801 C812 1.492 . S
C802 C801 1.396 . S
C802 C803 1.397 . S
C802 C818 1.509 . S
C803 C802 1.397 . S
C803 C804 1.412 . S
C803 C824 1.485 . S
C804 C803 1.412 . S
C804 C805 1.388 . S
C804 C830 1.490 . S
C805 C800 1.397 . S
C805 C804 1.388 . S
C805 C836 1.519 . S
C806 C800 1.492 . S
C806 C807 1.363 . S
C806 C811 1.390 . S
C807 H772 0.930 . S
C807 C806 1.363 . S
C807 C808 1.372 . S
C808 H773 0.930 . S
C808 C807 1.372 . S
C808 C809 1.383 . S
C809 C808 1.383 . S
C809 C810 1.395 . S
C810 H774 0.930 . S
C810 C809 1.395 . S
C810 C811 1.362 . S
C811 H775 0.930 . S
C811 C806 1.390 . S
C811 C810 1.362 . S
C812 C801 1.492 . S
C812 C813 1.377 . S
C812 C817 1.397 . S
C813 H776 0.931 . S
C813 C812 1.377 . S
C813 C814 1.376 . S
C814 H777 0.930 . S
C814 C813 1.376 . S
C814 C815 1.376 . S
C815 C814 1.376 . S
C815 C816 1.378 . S
C815 C842 1.486 . S
C816 H778 0.930 . S
C816 C815 1.378 . S
C816 C817 1.376 . S
C817 H779 0.929 . S
C817 C812 1.397 . S
C817 C816 1.376 . S
C818 C802 1.509 . S
C818 C819 1.391 . S
C818 C823 1.386 . S
C819 H780 0.930 . S
C819 C818 1.391 . S
C819 C820 1.375 . S
C820 H781 0.931 . S
C820 C819 1.375 . S
C820 C821 1.375 . S
C821 C820 1.375 . S
C821 C822 1.361 . S
C822 H782 0.930 . S
C822 C821 1.361 . S
C822 C823 1.399 . S
C823 H783 0.929 . S
C823 C818 1.386 . S
C823 C822 1.399 . S
C824 C803 1.485 . S
C824 C825 1.394 . S
C824 C829 1.360 . S
C825 H784 0.931 . S
C825 C824 1.394 . S
C825 C826 1.372 . S
C826 H785 0.930 . S
C826 C825 1.372 . S
C826 C827 1.397 . S
C827 C826 1.397 . S
C827 C828 1.390 . S
C827 C843 1.476 . S
C828 H786 0.930 . S
C828 C827 1.390 . S
C828 C829 1.366 . S
C829 H787 0.932 . S
C829 C824 1.360 . S
C829 C828 1.366 . S
C830 C804 1.490 . S
C830 C831 1.380 . S
C830 C835 1.386 . S
C831 H788 0.930 . S
C831 C830 1.380 . S
C831 C832 1.381 . S
C832 H789 0.929 . S
C832 C831 1.381 . S
C832 C833 1.371 . S
C833 C832 1.371 . S
C833 C834 1.380 . S
C834 H790 0.931 . S
C834 C833 1.380 . S
C834 C835 1.387 . S
C835 H791 0.930 . S
C835 C830 1.386 . S
C835 C834 1.387 . S
C836 C805 1.519 . S
C836 C837 1.377 . S
C836 C841 1.361 . S
C837 H792 0.929 . S
C837 C836 1.377 . S
C837 C838 1.386 . S
C838 H793 0.931 . S
C838 C837 1.386 . S
C838 C839 1.363 . S
C839 C838 1.363 . S
C839 C840 1.385 . S
C840 H794 0.930 . S
C840 C839 1.385 . S
C840 C841 1.396 . S
C841 H795 0.929 . S
C841 C836 1.361 . S
C841 C840 1.396 . S
C842 O796 1.300 . S
C842 O797 1.209 . S
C842 C815 1.486 . S
C843 O798 1.199 . S
C843 O799 1.297 . S
C843 C827 1.476 . S
H844 O870 0.856 . S
H845 O873 0.854 . S
H846 C881 0.930 . S
H847 C882 0.930 . S
H848 C884 0.930 . S
H849 C885 0.930 . S
H850 C887 0.931 . S
H851 C888 0.930 . S
H852 C890 0.930 . S
H853 C891 0.929 . S
H854 C893 0.930 . S
H855 C894 0.931 . S
H856 C896 0.930 . S
H857 C897 0.929 . S
H858 C899 0.931 . S
H859 C900 0.930 . S
H860 C902 0.930 . S
H861 C903 0.932 . S
H862 C905 0.930 . S
H863 C906 0.929 . S
H864 C908 0.931 . S
H865 C909 0.930 . S
H866 C911 0.929 . S
H867 C912 0.931 . S
H868 C914 0.930 . S
H869 C915 0.929 . S
O870 H844 0.856 . S
O870 C916 1.300 . S
O871 C916 1.209 . S
O872 C917 1.199 . S
O873 H845 0.854 . S
O873 C917 1.297 . S
C874 C875 1.404 . S
C874 C879 1.397 . S
C874 C880 1.492 . S
C875 C874 1.404 . S
C875 C876 1.396 . S
C875 C886 1.492 . S
C876 C875 1.396 . S
C876 C877 1.397 . S
C876 C892 1.509 . S
C877 C876 1.397 . S
C877 C878 1.412 . S
C877 C898 1.485 . S
C878 C877 1.412 . S
C878 C879 1.388 . S
C878 C904 1.490 . S
C879 C874 1.397 . S
C879 C878 1.388 . S
C879 C910 1.519 . S
C880 C874 1.492 . S
C880 C881 1.363 . S
C880 C885 1.390 . S
C881 H846 0.930 . S
C881 C880 1.363 . S
C881 C882 1.372 . S
C882 H847 0.930 . S
C882 C881 1.372 . S
C882 C883 1.383 . S
C883 C882 1.383 . S
C883 C884 1.395 . S
C884 H848 0.930 . S
C884 C883 1.395 . S
C884 C885 1.362 . S
C885 H849 0.930 . S
C885 C880 1.390 . S
C885 C884 1.362 . S
C886 C875 1.492 . S
C886 C887 1.377 . S
C886 C891 1.397 . S
C887 H850 0.931 . S
C887 C886 1.377 . S
C887 C888 1.376 . S
C888 H851 0.930 . S
C888 C887 1.376 . S
C888 C889 1.376 . S
C889 C888 1.376 . S
C889 C890 1.378 . S
C889 C916 1.486 . S
C890 H852 0.930 . S
C890 C889 1.378 . S
C890 C891 1.376 . S
C891 H853 0.929 . S
C891 C886 1.397 . S
C891 C890 1.376 . S
C892 C876 1.509 . S
C892 C893 1.391 . S
C892 C897 1.386 . S
C893 H854 0.930 . S
C893 C892 1.391 . S
C893 C894 1.375 . S
C894 H855 0.931 . S
C894 C893 1.375 . S
C894 C895 1.375 . S
C895 C894 1.375 . S
C895 C896 1.361 . S
C896 H856 0.930 . S
C896 C895 1.361 . S
C896 C897 1.399 . S
C897 H857 0.929 . S
C897 C892 1.386 . S
C897 C896 1.399 . S
C898 C877 1.485 . S
C898 C899 1.394 . S
C898 C903 1.360 . S
C899 H858 0.931 . S
C899 C898 1.394 . S
C899 C900 1.372 . S
C900 H859 0.930 . S
C900 C899 1.372 . S
C900 C901 1.397 . S
C901 C900 1.397 . S
C901 C902 1.390 . S
C901 C917 1.476 . S
C902 H860 0.930 . S
C902 C901 1.390 . S
C902 C903 1.366 . S
C903 H861 0.932 . S
C903 C898 1.360 . S
C903 C902 1.366 . S
C904 C878 1.490 . S
C904 C905 1.380 . S
C904 C909 1.386 . S
C905 H862 0.930 . S
C905 C904 1.380 . S
C905 C906 1.381 . S
C906 H863 0.929 . S
C906 C905 1.381 . S
C906 C907 1.371 . S
C907 C906 1.371 . S
C907 C908 1.380 . S
C908 H864 0.931 . S
C908 C907 1.380 . S
C908 C909 1.387 . S
C909 H865 0.930 . S
C909 C904 1.386 . S
C909 C908 1.387 . S
C910 C879 1.519 . S
C910 C911 1.377 . S
C910 C915 1.361 . S
C911 H866 0.929 . S
C911 C910 1.377 . S
C911 C912 1.386 . S
C912 H867 0.931 . S
C912 C911 1.386 . S
C912 C913 1.363 . S
C913 C912 1.363 . S
C913 C914 1.385 . S
C914 H868 0.930 . S
C914 C913 1.385 . S
C914 C915 1.396 . S
C915 H869 0.929 . S
C915 C910 1.361 . S
C915 C914 1.396 . S
C916 O870 1.300 . S
C916 O871 1.209 . S
C916 C889 1.486 . S
C917 O872 1.199 . S
C917 O873 1.297 . S
C917 C901 1.476 . S
H918 O944 0.856 . S
H919 O947 0.854 . S
H920 C955 0.930 . S
H921 C956 0.930 . S
H922 C958 0.930 . S
H923 C959 0.930 . S
H924 C961 0.931 . S
H925 C962 0.924 1_655 S
H926 C964 0.930 . S
H927 C965 0.929 . S
H928 C967 0.930 . S
H929 C968 0.930 . S
H930 C970 0.930 . S
H931 C971 0.929 . S
H932 C973 0.931 . S
H933 C974 0.930 . S
H934 C976 0.930 . S
H935 C977 0.932 . S
H936 C979 0.930 . S
H937 C980 0.929 . S
H938 C982 0.931 . S
H939 C983 0.930 . S
H940 C985 0.929 . S
H941 C986 0.931 . S
H942 C988 0.930 . S
H943 C989 0.929 . S
O944 H918 0.856 . S
O944 C990 1.300 . S
O945 C990 1.209 . S
O946 C991 1.199 1_655 S
O947 H919 0.854 . S
O947 C991 1.297 . S
C948 C949 1.404 . S
C948 C953 1.394 . S
C948 C954 1.492 . S
C949 C948 1.404 . S
C949 C950 1.396 . S
C949 C960 1.492 . S
C950 C949 1.396 . S
C950 C951 1.397 . S
C950 C966 1.509 . S
C951 C950 1.397 . S
C951 C952 1.425 . S
C951 C972 1.485 . S
C952 C951 1.425 . S
C952 C953 1.401 . S
C952 C978 1.491 1_455 S
C953 C948 1.394 . S
C953 C952 1.401 . S
C953 C984 1.495 1_455 S
C954 C948 1.492 . S
C954 C955 1.363 1_455 S
C954 C959 1.390 . S
C955 H920 0.930 . S
C955 C954 1.363 1_655 S
C955 C956 1.372 . S
C956 H921 0.930 . S
C956 C955 1.372 . S
C956 C957 1.383 . S
C957 C956 1.383 . S
C957 C958 1.395 1_655 S
C958 H922 0.930 . S
C958 C957 1.395 1_455 S
C958 C959 1.362 . S
C959 H923 0.930 . S
C959 C954 1.390 . S
C959 C958 1.362 . S
C960 C949 1.492 . S
C960 C961 1.377 1_455 S
C960 C965 1.397 . S
C961 H924 0.931 . S
C961 C960 1.377 1_655 S
C961 C962 1.377 1_655 S
C962 H925 0.924 1_455 S
C962 C961 1.377 1_455 S
C962 C963 1.381 . S
C963 C962 1.381 . S
C963 C964 1.378 . S
C963 C990 1.486 . S
C964 H926 0.930 . S
C964 C963 1.378 . S
C964 C965 1.376 . S
C965 H927 0.929 . S
C965 C960 1.397 . S
C965 C964 1.376 . S
C966 C950 1.509 . S
C966 C967 1.391 1_455 S
C966 C971 1.386 . S
C967 H928 0.930 . S
C967 C966 1.391 1_655 S
C967 C968 1.373 . S
C968 H929 0.930 . S
C968 C967 1.373 . S
C968 C969 1.378 1_655 S
C969 C968 1.378 1_455 S
C969 C970 1.361 . S
C970 H930 0.930 . S
C970 C969 1.361 . S
C970 C971 1.399 . S
C971 H931 0.929 . S
C971 C966 1.386 . S
C971 C970 1.399 . S
C972 C951 1.485 . S
C972 C973 1.394 1_455 S
C972 C977 1.360 . S
C973 H932 0.931 . S
C973 C972 1.394 1_655 S
C973 C974 1.372 . S
C974 H933 0.930 . S
C974 C973 1.372 . S
C974 C975 1.397 1_655 S
C975 C974 1.397 1_455 S
C975 C976 1.390 . S
C975 C991 1.476 . S
C976 H934 0.930 . S
C976 C975 1.390 . S
C976 C977 1.366 . S
C977 H935 0.932 . S
C977 C972 1.360 . S
C977 C976 1.366 . S
C978 C952 1.491 1_655 S
C978 C979 1.380 . S
C978 C983 1.386 1_655 S
C979 H936 0.930 . S
C979 C978 1.380 . S
C979 C980 1.381 . S
C980 H937 0.929 . S
C980 C979 1.381 . S
C980 C981 1.371 . S
C981 C980 1.371 . S
C981 C982 1.380 1_655 S
C982 H938 0.931 . S
C982 C981 1.380 1_455 S
C982 C983 1.387 . S
C983 H939 0.930 . S
C983 C978 1.386 1_455 S
C983 C982 1.387 . S
C984 C953 1.495 1_655 S
C984 C985 1.394 . S
C984 C989 1.350 1_655 S
C985 H940 0.929 . S
C985 C984 1.394 . S
C985 C986 1.386 . S
C986 H941 0.931 . S
C986 C985 1.386 . S
C986 C987 1.362 1_655 S
C987 C986 1.362 1_455 S
C987 C988 1.386 . S
C988 H942 0.930 . S
C988 C987 1.386 . S
C988 C989 1.396 . S
C989 H943 0.929 . S
C989 C984 1.350 1_455 S
C989 C988 1.396 . S
C990 O944 1.300 . S
C990 O945 1.209 . S
C990 C963 1.486 . S
C991 O946 1.199 1_455 S
C991 O947 1.297 . S
C991 C975 1.476 . S
H992 O1018 0.856 . S
H993 O1021 0.854 . S
H994 C1029 0.930 . S
H995 C1030 0.930 . S
H996 C1032 0.930 . S
H997 C1033 0.930 . S
H998 C1035 0.931 . S
H999 C1036 0.930 . S
H1000 C1038 0.930 . S
H1001 C1039 0.929 . S
H1002 C1041 0.930 . S
H1003 C1042 0.931 . S
H1004 C1044 0.930 . S
H1005 C1045 0.929 . S
H1006 C1047 0.931 . S
H1007 C1048 0.930 . S
H1008 C1050 0.930 . S
H1009 C1051 0.932 . S
H1010 C1053 0.930 . S
H1011 C1054 0.929 . S
H1012 C1056 0.931 . S
H1013 C1057 0.930 . S
H1014 C1059 0.929 . S
H1015 C1060 0.931 . S
H1016 C1062 0.930 . S
H1017 C1063 0.929 . S
O1018 H992 0.856 . S
O1018 C1064 1.300 . S
O1019 C1064 1.209 . S
O1020 C1065 1.199 . S
O1021 H993 0.854 . S
O1021 C1065 1.297 . S
C1022 C1023 1.404 . S
C1022 C1027 1.397 . S
C1022 C1028 1.492 . S
C1023 C1022 1.404 . S
C1023 C1024 1.396 . S
C1023 C1034 1.492 . S
C1024 C1023 1.396 . S
C1024 C1025 1.397 . S
C1024 C1040 1.509 . S
C1025 C1024 1.397 . S
C1025 C1026 1.412 . S
C1025 C1046 1.485 . S
C1026 C1025 1.412 . S
C1026 C1027 1.388 . S
C1026 C1052 1.490 . S
C1027 C1022 1.397 . S
C1027 C1026 1.388 . S
C1027 C1058 1.519 . S
C1028 C1022 1.492 . S
C1028 C1029 1.363 . S
C1028 C1033 1.390 . S
C1029 H994 0.930 . S
C1029 C1028 1.363 . S
C1029 C1030 1.372 . S
C1030 H995 0.930 . S
C1030 C1029 1.372 . S
C1030 C1031 1.383 . S
C1031 C1030 1.383 . S
C1031 C1032 1.395 . S
C1032 H996 0.930 . S
C1032 C1031 1.395 . S
C1032 C1033 1.362 . S
C1033 H997 0.930 . S
C1033 C1028 1.390 . S
C1033 C1032 1.362 . S
C1034 C1023 1.492 . S
C1034 C1035 1.377 . S
C1034 C1039 1.397 . S
C1035 H998 0.931 . S
C1035 C1034 1.377 . S
C1035 C1036 1.376 . S
C1036 H999 0.930 . S
C1036 C1035 1.376 . S
C1036 C1037 1.376 . S
C1037 C1036 1.376 . S
C1037 C1038 1.378 . S
C1037 C1064 1.486 . S
C1038 H1000 0.930 . S
C1038 C1037 1.378 . S
C1038 C1039 1.376 . S
C1039 H1001 0.929 . S
C1039 C1034 1.397 . S
C1039 C1038 1.376 . S
C1040 C1024 1.509 . S
C1040 C1041 1.391 . S
C1040 C1045 1.386 . S
C1041 H1002 0.930 . S
C1041 C1040 1.391 . S
C1041 C1042 1.375 . S
C1042 H1003 0.931 . S
C1042 C1041 1.375 . S
C1042 C1043 1.375 . S
C1043 C1042 1.375 . S
C1043 C1044 1.361 . S
C1044 H1004 0.930 . S
C1044 C1043 1.361 . S
C1044 C1045 1.399 . S
C1045 H1005 0.929 . S
C1045 C1040 1.386 . S
C1045 C1044 1.399 . S
C1046 C1025 1.485 . S
C1046 C1047 1.394 . S
C1046 C1051 1.360 . S
C1047 H1006 0.931 . S
C1047 C1046 1.394 . S
C1047 C1048 1.372 . S
C1048 H1007 0.930 . S
C1048 C1047 1.372 . S
C1048 C1049 1.397 . S
C1049 C1048 1.397 . S
C1049 C1050 1.390 . S
C1049 C1065 1.476 . S
C1050 H1008 0.930 . S
C1050 C1049 1.390 . S
C1050 C1051 1.366 . S
C1051 H1009 0.932 . S
C1051 C1046 1.360 . S
C1051 C1050 1.366 . S
C1052 C1026 1.490 . S
C1052 C1053 1.380 . S
C1052 C1057 1.386 . S
C1053 H1010 0.930 . S
C1053 C1052 1.380 . S
C1053 C1054 1.381 . S
C1054 H1011 0.929 . S
C1054 C1053 1.381 . S
C1054 C1055 1.371 . S
C1055 C1054 1.371 . S
C1055 C1056 1.380 . S
C1056 H1012 0.931 . S
C1056 C1055 1.380 . S
C1056 C1057 1.387 . S
C1057 H1013 0.930 . S
C1057 C1052 1.386 . S
C1057 C1056 1.387 . S
C1058 C1027 1.519 . S
C1058 C1059 1.377 . S
C1058 C1063 1.361 . S
C1059 H1014 0.929 . S
C1059 C1058 1.377 . S
C1059 C1060 1.386 . S
C1060 H1015 0.931 . S
C1060 C1059 1.386 . S
C1060 C1061 1.363 . S
C1061 C1060 1.363 . S
C1061 C1062 1.385 . S
C1062 H1016 0.930 . S
C1062 C1061 1.385 . S
C1062 C1063 1.396 . S
C1063 H1017 0.929 . S
C1063 C1058 1.361 . S
C1063 C1062 1.396 . S
C1064 O1018 1.300 . S
C1064 O1019 1.209 . S
C1064 C1037 1.486 . S
C1065 O1020 1.199 . S
C1065 O1021 1.297 . S
C1065 C1049 1.476 . S
H1066 O1092 0.856 . S
H1067 O1095 0.854 . S
H1068 C1103 0.930 . S
H1069 C1104 0.930 . S
H1070 C1106 0.930 . S
H1071 C1107 0.930 . S
H1072 C1109 0.931 . S
H1073 C1110 0.930 . S
H1074 C1112 0.930 . S
H1075 C1113 0.929 . S
H1076 C1115 0.930 . S
H1077 C1116 0.931 . S
H1078 C1118 0.930 . S
H1079 C1119 0.929 . S
H1080 C1121 0.931 . S
H1081 C1122 0.930 . S
H1082 C1124 0.930 . S
H1083 C1125 0.932 . S
H1084 C1127 0.930 . S
H1085 C1128 0.929 . S
H1086 C1130 0.931 . S
H1087 C1131 0.930 . S
H1088 C1133 0.929 . S
H1089 C1134 0.931 . S
H1090 C1136 0.930 . S
H1091 C1137 0.929 . S
O1092 H1066 0.856 . S
O1092 C1138 1.300 . S
O1093 C1138 1.209 . S
O1094 C1139 1.199 1_545 S
O1095 H1067 0.854 . S
O1095 C1139 1.297 . S
C1096 C1097 1.404 . S
C1096 C1101 1.412 . S
C1096 C1102 1.492 . S
C1097 C1096 1.404 . S
C1097 C1098 1.396 . S
C1097 C1108 1.492 . S
C1098 C1097 1.396 . S
C1098 C1099 1.397 . S
C1098 C1114 1.509 . S
C1099 C1098 1.397 . S
C1099 C1100 1.408 . S
C1099 C1120 1.485 . S
C1100 C1099 1.408 . S
C1100 C1101 1.375 . S
C1100 C1126 1.483 1_565 S
C1101 C1096 1.412 . S
C1101 C1100 1.375 . S
C1101 C1132 1.535 . S
C1102 C1096 1.492 . S
C1102 C1103 1.363 1_565 S
C1102 C1107 1.390 . S
C1103 H1068 0.930 . S
C1103 C1102 1.363 1_545 S
C1103 C1104 1.372 . S
C1104 H1069 0.930 . S
C1104 C1103 1.372 . S
C1104 C1105 1.383 . S
C1105 C1104 1.383 . S
C1105 C1106 1.395 1_545 S
C1106 H1070 0.930 . S
C1106 C1105 1.395 1_565 S
C1106 C1107 1.362 . S
C1107 H1071 0.930 . S
C1107 C1102 1.390 . S
C1107 C1106 1.362 . S
C1108 C1097 1.492 . S
C1108 C1109 1.377 1_565 S
C1108 C1113 1.397 . S
C1109 H1072 0.931 . S
C1109 C1108 1.377 1_545 S
C1109 C1110 1.376 . S
C1110 H1073 0.930 . S
C1110 C1109 1.376 . S
C1110 C1111 1.376 1_545 S
C1111 C1110 1.376 1_565 S
C1111 C1112 1.378 . S
C1111 C1138 1.486 . S
C1112 H1074 0.930 . S
C1112 C1111 1.378 . S
C1112 C1113 1.376 . S
C1113 H1075 0.929 . S
C1113 C1108 1.397 . S
C1113 C1112 1.376 . S
C1114 C1098 1.509 . S
C1114 C1115 1.391 1_565 S
C1114 C1119 1.386 . S
C1115 H1076 0.930 . S
C1115 C1114 1.391 1_545 S
C1115 C1116 1.375 . S
C1116 H1077 0.931 . S
C1116 C1115 1.375 . S
C1116 C1117 1.375 1_545 S
C1117 C1116 1.375 1_565 S
C1117 C1118 1.361 . S
C1118 H1078 0.930 . S
C1118 C1117 1.361 . S
C1118 C1119 1.399 . S
C1119 H1079 0.929 . S
C1119 C1114 1.386 . S
C1119 C1118 1.399 . S
C1120 C1099 1.485 . S
C1120 C1121 1.394 1_565 S
C1120 C1125 1.360 . S
C1121 H1080 0.931 . S
C1121 C1120 1.394 1_545 S
C1121 C1122 1.372 . S
C1122 H1081 0.930 . S
C1122 C1121 1.372 . S
C1122 C1123 1.397 1_545 S
C1123 C1122 1.397 1_565 S
C1123 C1124 1.390 . S
C1123 C1139 1.476 . S
C1124 H1082 0.930 . S
C1124 C1123 1.390 . S
C1124 C1125 1.366 . S
C1125 H1083 0.932 . S
C1125 C1120 1.360 . S
C1125 C1124 1.366 . S
C1126 C1100 1.483 1_545 S
C1126 C1127 1.380 . S
C1126 C1131 1.386 1_545 S
C1127 H1084 0.930 . S
C1127 C1126 1.380 . S
C1127 C1128 1.381 . S
C1128 H1085 0.929 . S
C1128 C1127 1.381 . S
C1128 C1129 1.371 . S
C1129 C1128 1.371 . S
C1129 C1130 1.380 1_545 S
C1130 H1086 0.931 . S
C1130 C1129 1.380 1_565 S
C1130 C1131 1.387 . S
C1131 H1087 0.930 . S
C1131 C1126 1.386 1_565 S
C1131 C1130 1.387 . S
C1132 C1101 1.535 . S
C1132 C1133 1.379 1_565 S
C1132 C1137 1.357 . S
C1133 H1088 0.929 . S
C1133 C1132 1.379 1_545 S
C1133 C1134 1.386 . S
C1134 H1089 0.931 . S
C1134 C1133 1.386 . S
C1134 C1135 1.363 1_545 S
C1135 C1134 1.363 1_565 S
C1135 C1136 1.385 . S
C1136 H1090 0.930 . S
C1136 C1135 1.385 . S
C1136 C1137 1.396 . S
C1137 H1091 0.929 . S
C1137 C1132 1.357 . S
C1137 C1136 1.396 . S
C1138 O1092 1.300 . S
C1138 O1093 1.209 . S
C1138 C1111 1.486 . S
C1139 O1094 1.199 1_565 S
C1139 O1095 1.297 . S
C1139 C1123 1.476 . S
H1140 O1166 0.856 . S
H1141 O1169 0.854 . S
H1142 C1177 0.930 . S
H1143 C1178 0.930 . S
H1144 C1180 0.930 . S
H1145 C1181 0.930 . S
H1146 C1183 0.931 . S
H1147 C1184 0.930 . S
H1148 C1186 0.930 . S
H1149 C1187 0.929 . S
H1150 C1189 0.930 . S
H1151 C1190 0.931 . S
H1152 C1192 0.930 . S
H1153 C1193 0.929 . S
H1154 C1195 0.931 . S
H1155 C1196 0.930 . S
H1156 C1198 0.930 . S
H1157 C1199 0.932 . S
H1158 C1201 0.930 . S
H1159 C1202 0.929 . S
H1160 C1204 0.931 . S
H1161 C1205 0.930 . S
H1162 C1207 0.929 . S
H1163 C1208 0.931 . S
H1164 C1210 0.930 . S
H1165 C1211 0.929 . S
O1166 H1140 0.856 . S
O1166 C1212 1.300 . S
O1167 C1212 1.209 1_565 S
O1168 C1213 1.199 1_545 S
O1169 H1141 0.854 . S
O1169 C1213 1.297 . S
C1170 C1171 1.404 . S
C1170 C1175 1.397 1_545 S
C1170 C1176 1.492 . S
C1171 C1170 1.404 . S
C1171 C1172 1.424 . S
C1171 C1182 1.492 . S
C1172 C1171 1.424 . S
C1172 C1173 1.382 1_545 S
C1172 C1188 1.503 . S
C1173 C1172 1.382 1_565 S
C1173 C1174 1.415 . S
C1173 C1194 1.498 . S
C1174 C1173 1.415 . S
C1174 C1175 1.371 . S
C1174 C1200 1.491 . S
C1175 C1170 1.397 1_565 S
C1175 C1174 1.371 . S
C1175 C1206 1.519 . S
C1176 C1170 1.492 . S
C1176 C1177 1.363 . S
C1176 C1181 1.390 1_545 S
C1177 H1142 0.930 . S
C1177 C1176 1.363 . S
C1177 C1178 1.372 . S
C1178 H1143 0.930 . S
C1178 C1177 1.372 . S
C1178 C1179 1.383 . S
C1179 C1178 1.383 . S
C1179 C1180 1.395 1_545 S
C1180 H1144 0.930 . S
C1180 C1179 1.395 1_565 S
C1180 C1181 1.362 . S
C1181 H1145 0.930 . S
C1181 C1176 1.390 1_565 S
C1181 C1180 1.362 . S
C1182 C1171 1.492 . S
C1182 C1183 1.377 . S
C1182 C1187 1.397 1_545 S
C1183 H1146 0.931 . S
C1183 C1182 1.377 . S
C1183 C1184 1.376 . S
C1184 H1147 0.930 . S
C1184 C1183 1.376 . S
C1184 C1185 1.376 . S
C1185 C1184 1.376 . S
C1185 C1186 1.378 1_545 S
C1185 C1212 1.486 . S
C1186 H1148 0.930 . S
C1186 C1185 1.378 1_565 S
C1186 C1187 1.376 . S
C1187 H1149 0.929 . S
C1187 C1182 1.397 1_565 S
C1187 C1186 1.376 . S
C1188 C1172 1.503 . S
C1188 C1189 1.405 . S
C1188 C1193 1.363 1_545 S
C1189 H1150 0.930 . S
C1189 C1188 1.405 . S
C1189 C1190 1.375 . S
C1190 H1151 0.931 . S
C1190 C1189 1.375 . S
C1190 C1191 1.380 1_545 S
C1191 C1190 1.380 1_565 S
C1191 C1192 1.359 . S
C1192 H1152 0.930 . S
C1192 C1191 1.359 . S
C1192 C1193 1.399 . S
C1193 H1153 0.929 . S
C1193 C1188 1.363 1_565 S
C1193 C1192 1.399 . S
C1194 C1173 1.498 . S
C1194 C1195 1.394 1_565 S
C1194 C1199 1.360 . S
C1195 H1154 0.931 . S
C1195 C1194 1.394 1_545 S
C1195 C1196 1.372 . S
C1196 H1155 0.930 . S
C1196 C1195 1.372 . S
C1196 C1197 1.397 1_545 S
C1197 C1196 1.397 1_565 S
C1197 C1198 1.390 . S
C1197 C1213 1.476 . S
C1198 H1156 0.930 . S
C1198 C1197 1.390 . S
C1198 C1199 1.366 . S
C1199 H1157 0.932 . S
C1199 C1194 1.360 . S
C1199 C1198 1.366 . S
C1200 C1174 1.491 . S
C1200 C1201 1.356 1_565 S
C1200 C1205 1.416 . S
C1201 H1158 0.930 . S
C1201 C1200 1.356 1_545 S
C1201 C1202 1.381 . S
C1202 H1159 0.929 . S
C1202 C1201 1.381 . S
C1202 C1203 1.426 . S
C1203 C1202 1.426 . S
C1203 C1204 1.335 1_545 S
C1204 H1160 0.931 . S
C1204 C1203 1.335 1_565 S
C1204 C1205 1.387 . S
C1205 H1161 0.930 . S
C1205 C1200 1.416 . S
C1205 C1204 1.387 . S
C1206 C1175 1.519 . S
C1206 C1207 1.377 1_565 S
C1206 C1211 1.361 . S
C1207 H1162 0.929 . S
C1207 C1206 1.377 1_545 S
C1207 C1208 1.386 . S
C1208 H1163 0.931 . S
C1208 C1207 1.386 . S
C1208 C1209 1.363 1_545 S
C1209 C1208 1.363 1_565 S
C1209 C1210 1.385 . S
C1210 H1164 0.930 . S
C1210 C1209 1.385 . S
C1210 C1211 1.396 . S
C1211 H1165 0.929 . S
C1211 C1206 1.361 . S
C1211 C1210 1.396 . S
C1212 O1166 1.300 . S
C1212 O1167 1.209 1_545 S
C1212 C1185 1.486 . S
C1213 O1168 1.199 1_565 S
C1213 O1169 1.297 . S
C1213 C1197 1.476 . S
H1214 O1240 0.856 . S
H1215 O1243 0.854 . S
H1216 C1251 0.930 . S
H1217 C1252 0.930 . S
H1218 C1254 0.930 . S
H1219 C1255 0.930 . S
H1220 C1257 0.931 . S
H1221 C1258 0.930 . S
H1222 C1260 0.930 . S
H1223 C1261 0.929 . S
H1224 C1263 0.930 . S
H1225 C1264 0.931 . S
H1226 C1266 0.930 . S
H1227 C1267 0.929 . S
H1228 C1269 0.931 . S
H1229 C1270 0.930 . S
H1230 C1272 0.930 . S
H1231 C1273 0.932 . S
H1232 C1275 0.930 . S
H1233 C1276 0.929 . S
H1234 C1278 0.931 . S
H1235 C1279 0.930 . S
H1236 C1281 0.929 . S
H1237 C1282 0.931 . S
H1238 C1284 0.930 . S
H1239 C1285 0.929 . S
O1240 H1214 0.856 . S
O1240 C1286 1.300 . S
O1241 C1286 1.209 1_455 S
O1242 C1287 1.199 1_655 S
O1243 H1215 0.854 . S
O1243 C1287 1.297 . S
C1244 C1245 1.404 . S
C1244 C1249 1.396 1_655 S
C1244 C1250 1.492 . S
C1245 C1244 1.404 . S
C1245 C1246 1.396 . S
C1245 C1256 1.492 . S
C1246 C1245 1.396 . S
C1246 C1247 1.397 1_655 S
C1246 C1262 1.509 . S
C1247 C1246 1.397 1_455 S
C1247 C1248 1.400 . S
C1247 C1268 1.485 . S
C1248 C1247 1.400 . S
C1248 C1249 1.410 . S
C1248 C1274 1.485 . S
C1249 C1244 1.396 1_455 S
C1249 C1248 1.410 . S
C1249 C1280 1.516 . S
C1250 C1244 1.492 . S
C1250 C1251 1.363 . S
C1250 C1255 1.390 1_655 S
C1251 H1216 0.930 . S
C1251 C1250 1.363 . S
C1251 C1252 1.372 . S
C1252 H1217 0.930 . S
C1252 C1251 1.372 . S
C1252 C1253 1.383 . S
C1253 C1252 1.383 . S
C1253 C1254 1.395 1_655 S
C1254 H1218 0.930 . S
C1254 C1253 1.395 1_455 S
C1254 C1255 1.362 . S
C1255 H1219 0.930 . S
C1255 C1250 1.390 1_455 S
C1255 C1254 1.362 . S
C1256 C1245 1.492 . S
C1256 C1257 1.377 . S
C1256 C1261 1.397 1_655 S
C1257 H1220 0.931 . S
C1257 C1256 1.377 . S
C1257 C1258 1.376 . S
C1258 H1221 0.930 . S
C1258 C1257 1.376 . S
C1258 C1259 1.376 . S
C1259 C1258 1.376 . S
C1259 C1260 1.378 1_655 S
C1259 C1286 1.486 . S
C1260 H1222 0.930 . S
C1260 C1259 1.378 1_455 S
C1260 C1261 1.376 . S
C1261 H1223 0.929 . S
C1261 C1256 1.397 1_455 S
C1261 C1260 1.376 . S
C1262 C1246 1.509 . S
C1262 C1263 1.391 . S
C1262 C1267 1.386 1_655 S
C1263 H1224 0.930 . S
C1263 C1262 1.391 . S
C1263 C1264 1.375 . S
C1264 H1225 0.931 . S
C1264 C1263 1.375 . S
C1264 C1265 1.375 . S
C1265 C1264 1.375 . S
C1265 C1266 1.361 1_655 S
C1266 H1226 0.930 . S
C1266 C1265 1.361 1_455 S
C1266 C1267 1.399 . S
C1267 H1227 0.929 . S
C1267 C1262 1.386 1_455 S
C1267 C1266 1.399 . S
C1268 C1247 1.485 . S
C1268 C1269 1.394 1_455 S
C1268 C1273 1.360 . S
C1269 H1228 0.931 . S
C1269 C1268 1.394 1_655 S
C1269 C1270 1.372 . S
C1270 H1229 0.930 . S
C1270 C1269 1.372 . S
C1270 C1271 1.397 1_655 S
C1271 C1270 1.397 1_455 S
C1271 C1272 1.390 . S
C1271 C1287 1.476 . S
C1272 H1230 0.930 . S
C1272 C1271 1.390 . S
C1272 C1273 1.366 . S
C1273 H1231 0.932 . S
C1273 C1268 1.360 . S
C1273 C1272 1.366 . S
C1274 C1248 1.485 . S
C1274 C1275 1.380 1_455 S
C1274 C1279 1.386 . S
C1275 H1232 0.930 . S
C1275 C1274 1.380 1_655 S
C1275 C1276 1.381 . S
C1276 H1233 0.929 . S
C1276 C1275 1.381 . S
C1276 C1277 1.352 1_655 S
C1277 C1276 1.352 1_455 S
C1277 C1278 1.410 . S
C1278 H1234 0.931 . S
C1278 C1277 1.410 . S
C1278 C1279 1.387 . S
C1279 H1235 0.930 . S
C1279 C1274 1.386 . S
C1279 C1278 1.387 . S
C1280 C1249 1.516 . S
C1280 C1281 1.377 1_455 S
C1280 C1285 1.361 . S
C1281 H1236 0.929 . S
C1281 C1280 1.377 1_655 S
C1281 C1282 1.386 . S
C1282 H1237 0.931 . S
C1282 C1281 1.386 . S
C1282 C1283 1.363 1_655 S
C1283 C1282 1.363 1_455 S
C1283 C1284 1.385 . S
C1284 H1238 0.930 . S
C1284 C1283 1.385 . S
C1284 C1285 1.396 . S
C1285 H1239 0.929 . S
C1285 C1280 1.361 . S
C1285 C1284 1.396 . S
C1286 O1240 1.300 . S
C1286 O1241 1.209 1_655 S
C1286 C1259 1.486 . S
C1287 O1242 1.199 1_455 S
C1287 O1243 1.297 . S
C1287 C1271 1.476 . S
H1288 O1314 0.856 . S
H1289 O1317 0.854 . S
H1290 C1325 0.930 . S
H1291 C1326 0.930 . S
H1292 C1328 0.930 . S
H1293 C1329 0.930 . S
H1294 C1331 0.931 . S
H1295 C1332 0.930 . S
H1296 C1334 0.930 . S
H1297 C1335 0.929 . S
H1298 C1337 0.930 . S
H1299 C1338 0.931 . S
H1300 C1340 0.930 . S
H1301 C1341 0.929 . S
H1302 C1343 0.931 . S
H1303 C1344 0.930 . S
H1304 C1346 0.930 . S
H1305 C1347 0.932 . S
H1306 C1349 0.930 . S
H1307 C1350 0.929 . S
H1308 C1352 0.931 . S
H1309 C1353 0.930 . S
H1310 C1355 0.929 . S
H1311 C1356 0.931 . S
H1312 C1358 0.930 . S
H1313 C1359 0.929 . S
O1314 H1288 0.856 . S
O1314 C1360 1.300 . S
O1315 C1360 1.209 . S
O1316 C1361 1.199 . S
O1317 H1289 0.854 . S
O1317 C1361 1.297 . S
C1318 C1319 1.404 . S
C1318 C1323 1.397 . S
C1318 C1324 1.492 . S
C1319 C1318 1.404 . S
C1319 C1320 1.396 . S
C1319 C1330 1.492 . S
C1320 C1319 1.396 . S
C1320 C1321 1.397 . S
C1320 C1336 1.509 . S
C1321 C1320 1.397 . S
C1321 C1322 1.412 . S
C1321 C1342 1.485 . S
C1322 C1321 1.412 . S
C1322 C1323 1.388 . S
C1322 C1348 1.490 . S
C1323 C1318 1.397 . S
C1323 C1322 1.388 . S
C1323 C1354 1.519 . S
C1324 C1318 1.492 . S
C1324 C1325 1.363 . S
C1324 C1329 1.390 . S
C1325 H1290 0.930 . S
C1325 C1324 1.363 . S
C1325 C1326 1.372 . S
C1326 H1291 0.930 . S
C1326 C1325 1.372 . S
C1326 C1327 1.383 . S
C1327 C1326 1.383 . S
C1327 C1328 1.395 . S
C1328 H1292 0.930 . S
C1328 C1327 1.395 . S
C1328 C1329 1.362 . S
C1329 H1293 0.930 . S
C1329 C1324 1.390 . S
C1329 C1328 1.362 . S
C1330 C1319 1.492 . S
C1330 C1331 1.377 . S
C1330 C1335 1.397 . S
C1331 H1294 0.931 . S
C1331 C1330 1.377 . S
C1331 C1332 1.376 . S
C1332 H1295 0.930 . S
C1332 C1331 1.376 . S
C1332 C1333 1.376 . S
C1333 C1332 1.376 . S
C1333 C1334 1.378 . S
C1333 C1360 1.486 . S
C1334 H1296 0.930 . S
C1334 C1333 1.378 . S
C1334 C1335 1.376 . S
C1335 H1297 0.929 . S
C1335 C1330 1.397 . S
C1335 C1334 1.376 . S
C1336 C1320 1.509 . S
C1336 C1337 1.391 . S
C1336 C1341 1.386 . S
C1337 H1298 0.930 . S
C1337 C1336 1.391 . S
C1337 C1338 1.375 . S
C1338 H1299 0.931 . S
C1338 C1337 1.375 . S
C1338 C1339 1.375 . S
C1339 C1338 1.375 . S
C1339 C1340 1.361 . S
C1340 H1300 0.930 . S
C1340 C1339 1.361 . S
C1340 C1341 1.399 . S
C1341 H1301 0.929 . S
C1341 C1336 1.386 . S
C1341 C1340 1.399 . S
C1342 C1321 1.485 . S
C1342 C1343 1.394 . S
C1342 C1347 1.360 . S
C1343 H1302 0.931 . S
C1343 C1342 1.394 . S
C1343 C1344 1.372 . S
C1344 H1303 0.930 . S
C1344 C1343 1.372 . S
C1344 C1345 1.397 . S
C1345 C1344 1.397 . S
C1345 C1346 1.390 . S
C1345 C1361 1.476 . S
C1346 H1304 0.930 . S
C1346 C1345 1.390 . S
C1346 C1347 1.366 . S
C1347 H1305 0.932 . S
C1347 C1342 1.360 . S
C1347 C1346 1.366 . S
C1348 C1322 1.490 . S
C1348 C1349 1.380 . S
C1348 C1353 1.386 . S
C1349 H1306 0.930 . S
C1349 C1348 1.380 . S
C1349 C1350 1.381 . S
C1350 H1307 0.929 . S
C1350 C1349 1.381 . S
C1350 C1351 1.371 . S
C1351 C1350 1.371 . S
C1351 C1352 1.380 . S
C1352 H1308 0.931 . S
C1352 C1351 1.380 . S
C1352 C1353 1.387 . S
C1353 H1309 0.930 . S
C1353 C1348 1.386 . S
C1353 C1352 1.387 . S
C1354 C1323 1.519 . S
C1354 C1355 1.377 . S
C1354 C1359 1.361 . S
C1355 H1310 0.929 . S
C1355 C1354 1.377 . S
C1355 C1356 1.386 . S
C1356 H1311 0.931 . S
C1356 C1355 1.386 . S
C1356 C1357 1.363 . S
C1357 C1356 1.363 . S
C1357 C1358 1.385 . S
C1358 H1312 0.930 . S
C1358 C1357 1.385 . S
C1358 C1359 1.396 . S
C1359 H1313 0.929 . S
C1359 C1354 1.361 . S
C1359 C1358 1.396 . S
C1360 O1314 1.300 . S
C1360 O1315 1.209 . S
C1360 C1333 1.486 . S
C1361 O1316 1.199 . S
C1361 O1317 1.297 . S
C1361 C1345 1.476 . S
H1362 O1388 0.856 . S
H1363 O1391 0.854 . S
H1364 C1399 0.930 . S
H1365 C1400 0.930 . S
H1366 C1402 0.930 . S
H1367 C1403 0.930 . S
H1368 C1405 0.931 . S
H1369 C1406 0.930 . S
H1370 C1408 0.930 . S
H1371 C1409 0.929 . S
H1372 C1411 0.930 . S
H1373 C1412 0.931 . S
H1374 C1414 0.930 . S
H1375 C1415 0.929 . S
H1376 C1417 0.931 . S
H1377 C1418 0.930 . S
H1378 C1420 0.930 . S
H1379 C1421 0.932 . S
H1380 C1423 0.930 . S
H1381 C1424 0.929 . S
H1382 C1426 0.931 . S
H1383 C1427 0.930 . S
H1384 C1429 0.929 . S
H1385 C1430 0.931 . S
H1386 C1432 0.930 . S
H1387 C1433 0.929 . S
O1388 H1362 0.856 . S
O1388 C1434 1.300 . S
O1389 C1434 1.209 . S
O1390 C1435 1.199 . S
O1391 H1363 0.854 . S
O1391 C1435 1.297 . S
C1392 C1393 1.404 . S
C1392 C1397 1.397 . S
C1392 C1398 1.492 . S
C1393 C1392 1.404 . S
C1393 C1394 1.396 . S
C1393 C1404 1.492 . S
C1394 C1393 1.396 . S
C1394 C1395 1.397 . S
C1394 C1410 1.509 . S
C1395 C1394 1.397 . S
C1395 C1396 1.412 . S
C1395 C1416 1.485 . S
C1396 C1395 1.412 . S
C1396 C1397 1.388 . S
C1396 C1422 1.490 . S
C1397 C1392 1.397 . S
C1397 C1396 1.388 . S
C1397 C1428 1.519 . S
C1398 C1392 1.492 . S
C1398 C1399 1.363 . S
C1398 C1403 1.390 . S
C1399 H1364 0.930 . S
C1399 C1398 1.363 . S
C1399 C1400 1.372 . S
C1400 H1365 0.930 . S
C1400 C1399 1.372 . S
C1400 C1401 1.383 . S
C1401 C1400 1.383 . S
C1401 C1402 1.395 . S
C1402 H1366 0.930 . S
C1402 C1401 1.395 . S
C1402 C1403 1.362 . S
C1403 H1367 0.930 . S
C1403 C1398 1.390 . S
C1403 C1402 1.362 . S
C1404 C1393 1.492 . S
C1404 C1405 1.377 . S
C1404 C1409 1.397 . S
C1405 H1368 0.931 . S
C1405 C1404 1.377 . S
C1405 C1406 1.376 . S
C1406 H1369 0.930 . S
C1406 C1405 1.376 . S
C1406 C1407 1.376 . S
C1407 C1406 1.376 . S
C1407 C1408 1.378 . S
C1407 C1434 1.486 . S
C1408 H1370 0.930 . S
C1408 C1407 1.378 . S
C1408 C1409 1.376 . S
C1409 H1371 0.929 . S
C1409 C1404 1.397 . S
C1409 C1408 1.376 . S
C1410 C1394 1.509 . S
C1410 C1411 1.391 . S
C1410 C1415 1.386 . S
C1411 H1372 0.930 . S
C1411 C1410 1.391 . S
C1411 C1412 1.375 . S
C1412 H1373 0.931 . S
C1412 C1411 1.375 . S
C1412 C1413 1.375 . S
C1413 C1412 1.375 . S
C1413 C1414 1.361 . S
C1414 H1374 0.930 . S
C1414 C1413 1.361 . S
C1414 C1415 1.399 . S
C1415 H1375 0.929 . S
C1415 C1410 1.386 . S
C1415 C1414 1.399 . S
C1416 C1395 1.485 . S
C1416 C1417 1.394 . S
C1416 C1421 1.360 . S
C1417 H1376 0.931 . S
C1417 C1416 1.394 . S
C1417 C1418 1.372 . S
C1418 H1377 0.930 . S
C1418 C1417 1.372 . S
C1418 C1419 1.397 . S
C1419 C1418 1.397 . S
C1419 C1420 1.390 . S
C1419 C1435 1.476 . S
C1420 H1378 0.930 . S
C1420 C1419 1.390 . S
C1420 C1421 1.366 . S
C1421 H1379 0.932 . S
C1421 C1416 1.360 . S
C1421 C1420 1.366 . S
C1422 C1396 1.490 . S
C1422 C1423 1.380 . S
C1422 C1427 1.386 . S
C1423 H1380 0.930 . S
C1423 C1422 1.380 . S
C1423 C1424 1.381 . S
C1424 H1381 0.929 . S
C1424 C1423 1.381 . S
C1424 C1425 1.371 . S
C1425 C1424 1.371 . S
C1425 C1426 1.380 . S
C1426 H1382 0.931 . S
C1426 C1425 1.380 . S
C1426 C1427 1.387 . S
C1427 H1383 0.930 . S
C1427 C1422 1.386 . S
C1427 C1426 1.387 . S
C1428 C1397 1.519 . S
C1428 C1429 1.377 . S
C1428 C1433 1.361 . S
C1429 H1384 0.929 . S
C1429 C1428 1.377 . S
C1429 C1430 1.386 . S
C1430 H1385 0.931 . S
C1430 C1429 1.386 . S
C1430 C1431 1.363 . S
C1431 C1430 1.363 . S
C1431 C1432 1.385 . S
C1432 H1386 0.930 . S
C1432 C1431 1.385 . S
C1432 C1433 1.396 . S
C1433 H1387 0.929 . S
C1433 C1428 1.361 . S
C1433 C1432 1.396 . S
C1434 O1388 1.300 . S
C1434 O1389 1.209 . S
C1434 C1407 1.486 . S
C1435 O1390 1.199 . S
C1435 O1391 1.297 . S
C1435 C1419 1.476 . S
H1436 O1462 0.856 . S
H1437 O1465 0.854 . S
H1438 C1473 0.930 . S
H1439 C1474 0.930 . S
H1440 C1476 0.930 . S
H1441 C1477 0.930 . S
H1442 C1479 0.931 . S
H1443 C1480 0.930 . S
H1444 C1482 0.930 . S
H1445 C1483 0.929 . S
H1446 C1485 0.930 . S
H1447 C1486 0.931 . S
H1448 C1488 0.930 . S
H1449 C1489 0.929 . S
H1450 C1491 0.931 . S
H1451 C1492 0.930 . S
H1452 C1494 0.930 . S
H1453 C1495 0.932 . S
H1454 C1497 0.930 . S
H1455 C1498 0.929 . S
H1456 C1500 0.931 . S
H1457 C1501 0.930 . S
H1458 C1503 0.929 . S
H1459 C1504 0.931 . S
H1460 C1506 0.930 . S
H1461 C1507 0.929 . S
O1462 H1436 0.856 . S
O1462 C1508 1.300 . S
O1463 C1508 1.209 . S
O1464 C1509 1.199 . S
O1465 H1437 0.854 . S
O1465 C1509 1.297 . S
C1466 C1467 1.404 . S
C1466 C1471 1.397 . S
C1466 C1472 1.492 . S
C1467 C1466 1.404 . S
C1467 C1468 1.396 . S
C1467 C1478 1.492 . S
C1468 C1467 1.396 . S
C1468 C1469 1.397 . S
C1468 C1484 1.509 . S
C1469 C1468 1.397 . S
C1469 C1470 1.412 . S
C1469 C1490 1.485 . S
C1470 C1469 1.412 . S
C1470 C1471 1.388 . S
C1470 C1496 1.490 . S
C1471 C1466 1.397 . S
C1471 C1470 1.388 . S
C1471 C1502 1.519 . S
C1472 C1466 1.492 . S
C1472 C1473 1.363 . S
C1472 C1477 1.390 . S
C1473 H1438 0.930 . S
C1473 C1472 1.363 . S
C1473 C1474 1.372 . S
C1474 H1439 0.930 . S
C1474 C1473 1.372 . S
C1474 C1475 1.383 . S
C1475 C1474 1.383 . S
C1475 C1476 1.395 . S
C1476 H1440 0.930 . S
C1476 C1475 1.395 . S
C1476 C1477 1.362 . S
C1477 H1441 0.930 . S
C1477 C1472 1.390 . S
C1477 C1476 1.362 . S
C1478 C1467 1.492 . S
C1478 C1479 1.377 . S
C1478 C1483 1.397 . S
C1479 H1442 0.931 . S
C1479 C1478 1.377 . S
C1479 C1480 1.376 . S
C1480 H1443 0.930 . S
C1480 C1479 1.376 . S
C1480 C1481 1.376 . S
C1481 C1480 1.376 . S
C1481 C1482 1.378 . S
C1481 C1508 1.486 . S
C1482 H1444 0.930 . S
C1482 C1481 1.378 . S
C1482 C1483 1.376 . S
C1483 H1445 0.929 . S
C1483 C1478 1.397 . S
C1483 C1482 1.376 . S
C1484 C1468 1.509 . S
C1484 C1485 1.391 . S
C1484 C1489 1.386 . S
C1485 H1446 0.930 . S
C1485 C1484 1.391 . S
C1485 C1486 1.375 . S
C1486 H1447 0.931 . S
C1486 C1485 1.375 . S
C1486 C1487 1.375 . S
C1487 C1486 1.375 . S
C1487 C1488 1.361 . S
C1488 H1448 0.930 . S
C1488 C1487 1.361 . S
C1488 C1489 1.399 . S
C1489 H1449 0.929 . S
C1489 C1484 1.386 . S
C1489 C1488 1.399 . S
C1490 C1469 1.485 . S
C1490 C1491 1.394 . S
C1490 C1495 1.360 . S
C1491 H1450 0.931 . S
C1491 C1490 1.394 . S
C1491 C1492 1.372 . S
C1492 H1451 0.930 . S
C1492 C1491 1.372 . S
C1492 C1493 1.397 . S
C1493 C1492 1.397 . S
C1493 C1494 1.390 . S
C1493 C1509 1.476 . S
C1494 H1452 0.930 . S
C1494 C1493 1.390 . S
C1494 C1495 1.366 . S
C1495 H1453 0.932 . S
C1495 C1490 1.360 . S
C1495 C1494 1.366 . S
C1496 C1470 1.490 . S
C1496 C1497 1.380 . S
C1496 C1501 1.386 . S
C1497 H1454 0.930 . S
C1497 C1496 1.380 . S
C1497 C1498 1.381 . S
C1498 H1455 0.929 . S
C1498 C1497 1.381 . S
C1498 C1499 1.371 . S
C1499 C1498 1.371 . S
C1499 C1500 1.380 . S
C1500 H1456 0.931 . S
C1500 C1499 1.380 . S
C1500 C1501 1.387 . S
C1501 H1457 0.930 . S
C1501 C1496 1.386 . S
C1501 C1500 1.387 . S
C1502 C1471 1.519 . S
C1502 C1503 1.377 . S
C1502 C1507 1.361 . S
C1503 H1458 0.929 . S
C1503 C1502 1.377 . S
C1503 C1504 1.386 . S
C1504 H1459 0.931 . S
C1504 C1503 1.386 . S
C1504 C1505 1.363 . S
C1505 C1504 1.363 . S
C1505 C1506 1.385 . S
C1506 H1460 0.930 . S
C1506 C1505 1.385 . S
C1506 C1507 1.396 . S
C1507 H1461 0.929 . S
C1507 C1502 1.361 . S
C1507 C1506 1.396 . S
C1508 O1462 1.300 . S
C1508 O1463 1.209 . S
C1508 C1481 1.486 . S
C1509 O1464 1.199 . S
C1509 O1465 1.297 . S
C1509 C1493 1.476 . S
H1510 O1536 0.856 . S
H1511 O1539 0.854 . S
H1512 C1547 0.930 . S
H1513 C1548 0.930 . S
H1514 C1550 0.930 . S
H1515 C1551 0.930 . S
H1516 C1553 0.931 . S
H1517 C1554 0.930 . S
H1518 C1556 0.930 . S
H1519 C1557 0.929 . S
H1520 C1559 0.930 . S
H1521 C1560 0.931 . S
H1522 C1562 0.930 . S
H1523 C1563 0.929 . S
H1524 C1565 0.931 . S
H1525 C1566 0.930 . S
H1526 C1568 0.930 . S
H1527 C1569 0.932 . S
H1528 C1571 0.930 . S
H1529 C1572 0.929 . S
H1530 C1574 0.931 . S
H1531 C1575 0.930 . S
H1532 C1577 0.929 . S
H1533 C1578 0.931 . S
H1534 C1580 0.930 . S
H1535 C1581 0.929 . S
O1536 H1510 0.856 . S
O1536 C1582 1.300 . S
O1537 C1582 1.209 . S
O1538 C1583 1.199 . S
O1539 H1511 0.854 . S
O1539 C1583 1.297 . S
C1540 C1541 1.404 . S
C1540 C1545 1.397 . S
C1540 C1546 1.492 . S
C1541 C1540 1.404 . S
C1541 C1542 1.396 . S
C1541 C1552 1.492 . S
C1542 C1541 1.396 . S
C1542 C1543 1.397 . S
C1542 C1558 1.509 . S
C1543 C1542 1.397 . S
C1543 C1544 1.412 . S
C1543 C1564 1.485 . S
C1544 C1543 1.412 . S
C1544 C1545 1.388 . S
C1544 C1570 1.490 . S
C1545 C1540 1.397 . S
C1545 C1544 1.388 . S
C1545 C1576 1.519 . S
C1546 C1540 1.492 . S
C1546 C1547 1.363 . S
C1546 C1551 1.390 . S
C1547 H1512 0.930 . S
C1547 C1546 1.363 . S
C1547 C1548 1.372 . S
C1548 H1513 0.930 . S
C1548 C1547 1.372 . S
C1548 C1549 1.383 . S
C1549 C1548 1.383 . S
C1549 C1550 1.395 . S
C1550 H1514 0.930 . S
C1550 C1549 1.395 . S
C1550 C1551 1.362 . S
C1551 H1515 0.930 . S
C1551 C1546 1.390 . S
C1551 C1550 1.362 . S
C1552 C1541 1.492 . S
C1552 C1553 1.377 . S
C1552 C1557 1.397 . S
C1553 H1516 0.931 . S
C1553 C1552 1.377 . S
C1553 C1554 1.376 . S
C1554 H1517 0.930 . S
C1554 C1553 1.376 . S
C1554 C1555 1.376 . S
C1555 C1554 1.376 . S
C1555 C1556 1.378 . S
C1555 C1582 1.486 . S
C1556 H1518 0.930 . S
C1556 C1555 1.378 . S
C1556 C1557 1.376 . S
C1557 H1519 0.929 . S
C1557 C1552 1.397 . S
C1557 C1556 1.376 . S
C1558 C1542 1.509 . S
C1558 C1559 1.391 . S
C1558 C1563 1.386 . S
C1559 H1520 0.930 . S
C1559 C1558 1.391 . S
C1559 C1560 1.375 . S
C1560 H1521 0.931 . S
C1560 C1559 1.375 . S
C1560 C1561 1.375 . S
C1561 C1560 1.375 . S
C1561 C1562 1.361 . S
C1562 H1522 0.930 . S
C1562 C1561 1.361 . S
C1562 C1563 1.399 . S
C1563 H1523 0.929 . S
C1563 C1558 1.386 . S
C1563 C1562 1.399 . S
C1564 C1543 1.485 . S
C1564 C1565 1.394 . S
C1564 C1569 1.360 . S
C1565 H1524 0.931 . S
C1565 C1564 1.394 . S
C1565 C1566 1.372 . S
C1566 H1525 0.930 . S
C1566 C1565 1.372 . S
C1566 C1567 1.397 . S
C1567 C1566 1.397 . S
C1567 C1568 1.390 . S
C1567 C1583 1.476 . S
C1568 H1526 0.930 . S
C1568 C1567 1.390 . S
C1568 C1569 1.366 . S
C1569 H1527 0.932 . S
C1569 C1564 1.360 . S
C1569 C1568 1.366 . S
C1570 C1544 1.490 . S
C1570 C1571 1.380 . S
C1570 C1575 1.386 . S
C1571 H1528 0.930 . S
C1571 C1570 1.380 . S
C1571 C1572 1.381 . S
C1572 H1529 0.929 . S
C1572 C1571 1.381 . S
C1572 C1573 1.371 . S
C1573 C1572 1.371 . S
C1573 C1574 1.380 . S
C1574 H1530 0.931 . S
C1574 C1573 1.380 . S
C1574 C1575 1.387 . S
C1575 H1531 0.930 . S
C1575 C1570 1.386 . S
C1575 C1574 1.387 . S
C1576 C1545 1.519 . S
C1576 C1577 1.377 . S
C1576 C1581 1.361 . S
C1577 H1532 0.929 . S
C1577 C1576 1.377 . S
C1577 C1578 1.386 . S
C1578 H1533 0.931 . S
C1578 C1577 1.386 . S
C1578 C1579 1.363 . S
C1579 C1578 1.363 . S
C1579 C1580 1.385 . S
C1580 H1534 0.930 . S
C1580 C1579 1.385 . S
C1580 C1581 1.396 . S
C1581 H1535 0.929 . S
C1581 C1576 1.361 . S
C1581 C1580 1.396 . S
C1582 O1536 1.300 . S
C1582 O1537 1.209 . S
C1582 C1555 1.486 . S
C1583 O1538 1.199 . S
C1583 O1539 1.297 . S
C1583 C1567 1.476 . S
H1584 C1592 0.950 . S
H1585 C1597 0.950 . S
H1586 C1594 0.950 . S
H1587 C1596 0.950 . S
H1588 C1598 0.950 . S
H1589 C1600 0.950 . S
H1590 C1602 0.950 . S
H1591 C1603 0.950 . S
C1592 H1584 0.950 . S
C1592 C1593 1.365 1_455 S
C1592 C1594 1.391 . S
C1593 C1592 1.365 1_655 S
C1593 C1597 1.441 . S
C1594 H1586 0.950 . S
C1594 C1592 1.391 . S
C1594 C1595 1.400 1_455 S
C1595 C1594 1.400 1_655 S
C1595 C1596 1.398 . S
C1595 C1601 1.491 . S
C1596 H1587 0.950 . S
C1596 C1595 1.398 . S
C1596 C1597 1.391 . S
C1597 H1585 0.950 . S
C1597 C1593 1.441 . S
C1597 C1596 1.391 . S
C1598 H1588 0.950 . S
C1598 C1599 1.386 . S
C1598 C1600 1.391 . S
C1599 C1598 1.386 . S
C1599 C1603 1.393 1_655 S
C1600 H1589 0.950 . S
C1600 C1598 1.391 . S
C1600 C1601 1.400 . S
C1601 C1595 1.491 . S
C1601 C1600 1.400 . S
C1601 C1602 1.398 1_655 S
C1602 H1590 0.950 . S
C1602 C1601 1.398 1_455 S
C1602 C1603 1.391 . S
C1603 H1591 0.950 . S
C1603 C1599 1.393 1_455 S
C1603 C1602 1.391 . S
H1604 C1612 0.950 . S
H1605 C1617 0.950 . S
H1606 C1614 0.950 . S
H1607 C1616 0.950 . S
H1608 C1618 0.950 . S
H1609 C1620 0.950 . S
H1610 C1622 0.950 . S
H1611 C1623 0.950 . S
C1612 H1604 0.950 . S
C1612 C1613 1.386 . S
C1612 C1614 1.391 . S
C1613 C1612 1.386 . S
C1613 C1617 1.393 . S
C1614 H1606 0.950 . S
C1614 C1612 1.391 . S
C1614 C1615 1.400 . S
C1615 C1614 1.400 . S
C1615 C1616 1.398 . S
C1615 C1621 1.491 . S
C1616 H1607 0.950 . S
C1616 C1615 1.398 . S
C1616 C1617 1.391 . S
C1617 H1605 0.950 . S
C1617 C1613 1.393 . S
C1617 C1616 1.391 . S
C1618 H1608 0.950 . S
C1618 C1619 1.386 . S
C1618 C1620 1.391 . S
C1619 C1618 1.386 . S
C1619 C1623 1.393 . S
C1620 H1609 0.950 . S
C1620 C1618 1.391 . S
C1620 C1621 1.400 . S
C1621 C1615 1.491 . S
C1621 C1620 1.400 . S
C1621 C1622 1.398 . S
C1622 H1610 0.950 . S
C1622 C1621 1.398 . S
C1622 C1623 1.391 . S
C1623 H1611 0.950 . S
C1623 C1619 1.393 . S
C1623 C1622 1.391 . S
H1624 C1632 0.950 . S
H1625 C1637 0.950 . S
H1626 C1634 0.950 . S
H1627 C1636 0.950 . S
H1628 C1638 0.950 . S
H1629 C1640 0.950 . S
H1630 C1642 0.950 . S
H1631 C1643 0.944 1_565 S
C1632 H1624 0.950 . S
C1632 C1633 1.386 1_565 S
C1632 C1634 1.391 . S
C1633 C1632 1.386 1_545 S
C1633 C1637 1.393 . S
C1634 H1626 0.950 . S
C1634 C1632 1.391 . S
C1634 C1635 1.400 1_565 S
C1635 C1634 1.400 1_545 S
C1635 C1636 1.398 . S
C1635 C1641 1.491 . S
C1636 H1627 0.950 . S
C1636 C1635 1.398 . S
C1636 C1637 1.391 . S
C1637 H1625 0.950 . S
C1637 C1633 1.393 . S
C1637 C1636 1.391 . S
C1638 H1628 0.950 . S
C1638 C1639 1.386 . S
C1638 C1640 1.391 . S
C1639 C1638 1.386 . S
C1639 C1643 1.396 . S
C1640 H1629 0.950 . S
C1640 C1638 1.391 . S
C1640 C1641 1.400 . S
C1641 C1635 1.491 . S
C1641 C1640 1.400 . S
C1641 C1642 1.398 1_545 S
C1642 H1630 0.950 . S
C1642 C1641 1.398 1_565 S
C1642 C1643 1.394 1_565 S
C1643 H1631 0.944 1_545 S
C1643 C1639 1.396 . S
C1643 C1642 1.394 1_545 S
H1644 C1652 0.950 . S
H1645 C1657 0.950 . S
H1646 C1654 0.950 . S
H1647 C1656 0.950 . S
H1648 C1658 0.950 1_545 S
H1649 C1660 0.950 1_545 S
H1650 C1662 0.950 . S
H1651 C1663 0.950 . S
C1652 H1644 0.950 . S
C1652 C1653 1.386 . S
C1652 C1654 1.391 . S
C1653 C1652 1.386 . S
C1653 C1657 1.393 1_565 S
C1654 H1646 0.950 . S
C1654 C1652 1.391 . S
C1654 C1655 1.400 . S
C1655 C1654 1.400 . S
C1655 C1656 1.398 1_565 S
C1655 C1661 1.491 . S
C1656 H1647 0.950 . S
C1656 C1655 1.398 1_545 S
C1656 C1657 1.391 . S
C1657 H1645 0.950 . S
C1657 C1653 1.393 1_545 S
C1657 C1656 1.391 . S
C1658 H1648 0.950 1_565 S
C1658 C1659 1.386 . S
C1658 C1660 1.391 . S
C1659 C1658 1.386 . S
C1659 C1663 1.393 . S
C1660 H1649 0.950 1_565 S
C1660 C1658 1.391 . S
C1660 C1661 1.400 . S
C1661 C1655 1.491 . S
C1661 C1660 1.400 . S
C1661 C1662 1.398 . S
C1662 H1650 0.950 . S
C1662 C1661 1.398 . S
C1662 C1663 1.391 . S
C1663 H1651 0.950 . S
C1663 C1659 1.393 . S
C1663 C1662 1.391 . S
H1664 C1672 0.950 . S
H1665 C1677 0.950 . S
H1666 C1674 0.950 . S
H1667 C1676 0.950 . S
H1668 C1678 0.950 . S
H1669 C1680 0.950 . S
H1670 C1682 0.950 . S
H1671 C1683 0.950 . S
C1672 H1664 0.950 . S
C1672 C1673 1.386 1_655 S
C1672 C1674 1.391 . S
C1673 C1672 1.386 1_455 S
C1673 C1677 1.393 . S
C1674 H1666 0.950 . S
C1674 C1672 1.391 . S
C1674 C1675 1.400 1_655 S
C1675 C1674 1.400 1_455 S
C1675 C1676 1.398 . S
C1675 C1681 1.491 . S
C1676 H1667 0.950 . S
C1676 C1675 1.398 . S
C1676 C1677 1.391 . S
C1677 H1665 0.950 . S
C1677 C1673 1.393 . S
C1677 C1676 1.391 . S
C1678 H1668 0.950 . S
C1678 C1679 1.386 . S
C1678 C1680 1.391 . S
C1679 C1678 1.386 . S
C1679 C1683 1.393 1_455 S
C1680 H1669 0.950 . S
C1680 C1678 1.391 . S
C1680 C1681 1.400 . S
C1681 C1675 1.491 . S
C1681 C1680 1.400 . S
C1681 C1682 1.398 1_455 S
C1682 H1670 0.950 . S
C1682 C1681 1.398 1_655 S
C1682 C1683 1.391 . S
C1683 H1671 0.950 . S
C1683 C1679 1.393 1_655 S
C1683 C1682 1.391 . S
H1684 C1692 0.950 . S
H1685 C1697 0.950 . S
H1686 C1694 0.950 . S
H1687 C1696 0.950 . S
H1688 C1698 0.950 . S
H1689 C1700 0.950 . S
H1690 C1702 0.950 . S
H1691 C1703 0.950 . S
C1692 H1684 0.950 . S
C1692 C1693 1.386 . S
C1692 C1694 1.393 1_554 S
C1693 C1692 1.386 . S
C1693 C1697 1.393 . S
C1694 H1686 0.950 . S
C1694 C1692 1.393 1_556 S
C1694 C1695 1.399 . S
C1695 C1694 1.399 . S
C1695 C1696 1.398 . S
C1695 C1701 1.491 . S
C1696 H1687 0.950 . S
C1696 C1695 1.398 . S
C1696 C1697 1.391 1_556 S
C1697 H1685 0.950 . S
C1697 C1693 1.393 . S
C1697 C1696 1.391 1_554 S
C1698 H1688 0.950 . S
C1698 C1699 1.386 . S
C1698 C1700 1.391 . S
C1699 C1698 1.386 . S
C1699 C1703 1.393 . S
C1700 H1689 0.950 . S
C1700 C1698 1.391 . S
C1700 C1701 1.400 . S
C1701 C1695 1.491 . S
C1701 C1700 1.400 . S
C1701 C1702 1.398 . S
C1702 H1690 0.950 . S
C1702 C1701 1.398 . S
C1702 C1703 1.391 . S
C1703 H1691 0.950 . S
C1703 C1699 1.393 . S
C1703 C1702 1.391 . S
H1704 C1712 0.950 . S
H1705 C1717 0.950 . S
H1706 C1714 0.950 . S
H1707 C1716 0.950 1_554 S
H1708 C1718 0.950 . S
H1709 C1720 0.950 . S
H1710 C1722 0.950 . S
H1711 C1723 0.950 . S
C1712 H1704 0.950 . S
C1712 C1713 1.386 1_556 S
C1712 C1714 1.391 . S
C1713 C1712 1.386 1_554 S
C1713 C1717 1.393 1_455 S
C1714 H1706 0.950 . S
C1714 C1712 1.391 . S
C1714 C1715 1.400 . S
C1715 C1714 1.400 . S
C1715 C1716 1.398 1_455 S
C1715 C1721 1.478 . S
C1716 H1707 0.950 1_556 S
C1716 C1715 1.398 1_655 S
C1716 C1717 1.391 1_556 S
C1717 H1705 0.950 . S
C1717 C1713 1.393 1_655 S
C1717 C1716 1.391 1_554 S
C1718 H1708 0.950 . S
C1718 C1719 1.388 . S
C1718 C1720 1.391 . S
C1719 C1718 1.388 . S
C1719 C1723 1.393 1_655 S
C1720 H1709 0.950 . S
C1720 C1718 1.391 . S
C1720 C1721 1.400 1_655 S
C1721 C1715 1.478 . S
C1721 C1720 1.400 1_455 S
C1721 C1722 1.413 . S
C1722 H1710 0.950 . S
C1722 C1721 1.413 . S
C1722 C1723 1.391 . S
C1723 H1711 0.950 . S
C1723 C1719 1.393 1_455 S
C1723 C1722 1.391 . S
H1724 C1732 0.950 . S
H1725 C1737 0.950 . S
H1726 C1734 0.950 . S
H1727 C1736 0.950 . S
H1728 C1738 0.950 . S
H1729 C1740 0.950 . S
H1730 C1742 0.950 . S
H1731 C1743 0.950 . S
C1732 H1724 0.950 . S
C1732 C1733 1.386 . S
C1732 C1734 1.391 . S
C1733 C1732 1.386 . S
C1733 C1737 1.393 . S
C1734 H1726 0.950 . S
C1734 C1732 1.391 . S
C1734 C1735 1.400 . S
C1735 C1734 1.400 . S
C1735 C1736 1.398 . S
C1735 C1741 1.491 . S
C1736 H1727 0.950 . S
C1736 C1735 1.398 . S
C1736 C1737 1.391 . S
C1737 H1725 0.950 . S
C1737 C1733 1.393 . S
C1737 C1736 1.391 . S
C1738 H1728 0.950 . S
C1738 C1739 1.386 . S
C1738 C1740 1.391 . S
C1739 C1738 1.386 . S
C1739 C1743 1.393 . S
C1740 H1729 0.950 . S
C1740 C1738 1.391 . S
C1740 C1741 1.400 . S
C1741 C1735 1.491 . S
C1741 C1740 1.400 . S
C1741 C1742 1.398 . S
C1742 H1730 0.950 . S
C1742 C1741 1.398 . S
C1742 C1743 1.391 . S
C1743 H1731 0.950 . S
C1743 C1739 1.393 . S
C1743 C1742 1.391 . S
H1744 C1752 0.950 . S
H1745 C1757 0.950 . S
H1746 C1754 0.950 . S
H1747 C1756 0.950 . S
H1748 C1758 0.950 . S
H1749 C1760 0.950 . S
H1750 C1762 0.950 . S
H1751 C1763 0.950 . S
C1752 H1744 0.950 . S
C1752 C1753 1.386 . S
C1752 C1754 1.391 1_554 S
C1753 C1752 1.386 . S
C1753 C1757 1.393 1_564 S
C1754 H1746 0.950 . S
C1754 C1752 1.391 1_556 S
C1754 C1755 1.400 . S
C1755 C1754 1.400 . S
C1755 C1756 1.398 1_565 S
C1755 C1761 1.511 . S
C1756 H1747 0.950 . S
C1756 C1755 1.398 1_545 S
C1756 C1757 1.391 . S
C1757 H1745 0.950 . S
C1757 C1753 1.393 1_546 S
C1757 C1756 1.391 . S
C1758 H1748 0.950 . S
C1758 C1759 1.393 . S
C1758 C1760 1.391 . S
C1759 C1758 1.393 . S
C1759 C1763 1.364 1_545 S
C1760 H1749 0.950 . S
C1760 C1758 1.391 . S
C1760 C1761 1.374 1_545 S
C1761 C1755 1.511 . S
C1761 C1760 1.374 1_565 S
C1761 C1762 1.406 . S
C1762 H1750 0.950 . S
C1762 C1761 1.406 . S
C1762 C1763 1.391 . S
C1763 H1751 0.950 . S
C1763 C1759 1.364 1_565 S
C1763 C1762 1.391 . S
H1764 C1772 0.950 . S
H1765 C1777 0.950 . S
H1766 C1774 0.950 . S
H1767 C1776 0.950 . S
H1768 C1778 0.950 . S
H1769 C1780 0.950 . S
H1770 C1782 0.950 . S
H1771 C1783 0.950 . S
C1772 H1764 0.950 . S
C1772 C1773 1.386 1_565 S
C1772 C1774 1.391 . S
C1773 C1772 1.386 1_545 S
C1773 C1777 1.393 . S
C1774 H1766 0.950 . S
C1774 C1772 1.391 . S
C1774 C1775 1.400 1_565 S
C1775 C1774 1.400 1_545 S
C1775 C1776 1.398 . S
C1775 C1781 1.480 . S
C1776 H1767 0.950 . S
C1776 C1775 1.398 . S
C1776 C1777 1.391 . S
C1777 H1765 0.950 . S
C1777 C1773 1.393 . S
C1777 C1776 1.391 . S
C1778 H1768 0.950 . S
C1778 C1779 1.386 1_545 S
C1778 C1780 1.391 . S
C1779 C1778 1.386 1_565 S
C1779 C1783 1.393 . S
C1780 H1769 0.950 . S
C1780 C1778 1.391 . S
C1780 C1781 1.447 . S
C1781 C1775 1.480 . S
C1781 C1780 1.447 . S
C1781 C1782 1.364 1_545 S
C1782 H1770 0.950 . S
C1782 C1781 1.364 1_565 S
C1782 C1783 1.391 . S
C1783 H1771 0.950 . S
C1783 C1779 1.393 . S
C1783 C1782 1.391 . S
H1784 C1792 0.950 . S
H1785 C1797 0.950 . S
H1786 C1794 0.950 . S
H1787 C1796 0.950 . S
H1788 C1798 0.950 . S
H1789 C1800 0.950 . S
H1790 C1802 0.950 . S
H1791 C1803 0.950 . S
C1792 H1784 0.950 . S
C1792 C1793 1.386 . S
C1792 C1794 1.391 . S
C1793 C1792 1.386 . S
C1793 C1797 1.393 1_655 S
C1794 H1786 0.950 . S
C1794 C1792 1.391 . S
C1794 C1795 1.400 . S
C1795 C1794 1.400 . S
C1795 C1796 1.398 1_655 S
C1795 C1801 1.502 . S
C1796 H1787 0.950 . S
C1796 C1795 1.398 1_455 S
C1796 C1797 1.391 . S
C1797 H1785 0.950 . S
C1797 C1793 1.393 1_455 S
C1797 C1796 1.391 . S
C1798 H1788 0.950 . S
C1798 C1799 1.404 . S
C1798 C1800 1.391 . S
C1799 C1798 1.404 . S
C1799 C1803 1.364 1_455 S
C1800 H1789 0.950 . S
C1800 C1798 1.391 . S
C1800 C1801 1.369 1_455 S
C1801 C1795 1.502 . S
C1801 C1800 1.369 1_655 S
C1801 C1802 1.418 . S
C1802 H1790 0.950 . S
C1802 C1801 1.418 . S
C1802 C1803 1.391 . S
C1803 H1791 0.950 . S
C1803 C1799 1.364 1_655 S
C1803 C1802 1.391 . S
H1804 C1812 0.950 . S
H1805 C1817 0.950 . S
H1806 C1814 0.950 . S
H1807 C1816 0.950 . S
H1808 C1818 0.950 . S
H1809 C1820 0.950 . S
H1810 C1822 0.950 . S
H1811 C1823 0.950 . S
C1812 H1804 0.950 . S
C1812 C1813 1.386 . S
C1812 C1814 1.391 . S
C1813 C1812 1.386 . S
C1813 C1817 1.393 . S
C1814 H1806 0.950 . S
C1814 C1812 1.391 . S
C1814 C1815 1.400 . S
C1815 C1814 1.400 . S
C1815 C1816 1.398 . S
C1815 C1821 1.491 . S
C1816 H1807 0.950 . S
C1816 C1815 1.398 . S
C1816 C1817 1.391 . S
C1817 H1805 0.950 . S
C1817 C1813 1.393 . S
C1817 C1816 1.391 . S
C1818 H1808 0.950 . S
C1818 C1819 1.386 . S
C1818 C1820 1.391 . S
C1819 C1818 1.386 . S
C1819 C1823 1.393 . S
C1820 H1809 0.950 . S
C1820 C1818 1.391 . S
C1820 C1821 1.400 . S
C1821 C1815 1.491 . S
C1821 C1820 1.400 . S
C1821 C1822 1.398 . S
C1822 H1810 0.950 . S
C1822 C1821 1.398 . S
C1822 C1823 1.391 . S
C1823 H1811 0.950 . S
C1823 C1819 1.393 . S
C1823 C1822 1.391 . S
H1824 C1832 0.950 . S
H1825 C1837 0.950 . S
H1826 C1834 0.950 . S
H1827 C1836 0.950 . S
H1828 C1838 0.950 . S
H1829 C1840 0.950 . S
H1830 C1842 0.950 . S
H1831 C1843 0.950 . S
C1832 H1824 0.950 . S
C1832 C1833 1.386 . S
C1832 C1834 1.391 . S
C1833 C1832 1.386 . S
C1833 C1837 1.393 . S
C1834 H1826 0.950 . S
C1834 C1832 1.391 . S
C1834 C1835 1.400 . S
C1835 C1834 1.400 . S
C1835 C1836 1.398 . S
C1835 C1841 1.491 . S
C1836 H1827 0.950 . S
C1836 C1835 1.398 . S
C1836 C1837 1.391 . S
C1837 H1825 0.950 . S
C1837 C1833 1.393 . S
C1837 C1836 1.391 . S
C1838 H1828 0.950 . S
C1838 C1839 1.386 . S
C1838 C1840 1.391 . S
C1839 C1838 1.386 . S
C1839 C1843 1.393 . S
C1840 H1829 0.950 . S
C1840 C1838 1.391 . S
C1840 C1841 1.400 . S
C1841 C1835 1.491 . S
C1841 C1840 1.400 . S
C1841 C1842 1.398 . S
C1842 H1830 0.950 . S
C1842 C1841 1.398 . S
C1842 C1843 1.391 . S
C1843 H1831 0.950 . S
C1843 C1839 1.393 . S
C1843 C1842 1.391 . S
H1844 C1852 0.950 . S
H1845 C1857 0.950 . S
H1846 C1854 0.950 . S
H1847 C1856 0.950 . S
H1848 C1858 0.950 . S
H1849 C1860 0.950 . S
H1850 C1862 0.950 . S
H1851 C1863 0.950 . S
C1852 H1844 0.950 . S
C1852 C1853 1.386 . S
C1852 C1854 1.391 . S
C1853 C1852 1.386 . S
C1853 C1857 1.393 . S
C1854 H1846 0.950 . S
C1854 C1852 1.391 . S
C1854 C1855 1.400 . S
C1855 C1854 1.400 . S
C1855 C1856 1.398 . S
C1855 C1861 1.491 . S
C1856 H1847 0.950 . S
C1856 C1855 1.398 . S
C1856 C1857 1.391 . S
C1857 H1845 0.950 . S
C1857 C1853 1.393 . S
C1857 C1856 1.391 . S
C1858 H1848 0.950 . S
C1858 C1859 1.386 . S
C1858 C1860 1.391 . S
C1859 C1858 1.386 . S
C1859 C1863 1.393 . S
C1860 H1849 0.950 . S
C1860 C1858 1.391 . S
C1860 C1861 1.400 . S
C1861 C1855 1.491 . S
C1861 C1860 1.400 . S
C1861 C1862 1.398 . S
C1862 H1850 0.950 . S
C1862 C1861 1.398 . S
C1862 C1863 1.391 . S
C1863 H1851 0.950 . S
C1863 C1859 1.393 . S
C1863 C1862 1.391 . S
H1864 C1872 0.950 . S
H1865 C1877 0.950 . S
H1866 C1874 0.950 . S
H1867 C1876 0.950 . S
H1868 C1878 0.950 . S
H1869 C1880 0.950 . S
H1870 C1882 0.950 . S
H1871 C1883 0.950 . S
C1872 H1864 0.950 . S
C1872 C1873 1.386 . S
C1872 C1874 1.391 . S
C1873 C1872 1.386 . S
C1873 C1877 1.393 . S
C1874 H1866 0.950 . S
C1874 C1872 1.391 . S
C1874 C1875 1.400 . S
C1875 C1874 1.400 . S
C1875 C1876 1.398 . S
C1875 C1881 1.491 . S
C1876 H1867 0.950 . S
C1876 C1875 1.398 . S
C1876 C1877 1.391 . S
C1877 H1865 0.950 . S
C1877 C1873 1.393 . S
C1877 C1876 1.391 . S
C1878 H1868 0.950 . S
C1878 C1879 1.386 . S
C1878 C1880 1.391 . S
C1879 C1878 1.386 . S
C1879 C1883 1.393 . S
C1880 H1869 0.950 . S
C1880 C1878 1.391 . S
C1880 C1881 1.400 . S
C1881 C1875 1.491 . S
C1881 C1880 1.400 . S
C1881 C1882 1.398 . S
C1882 H1870 0.950 . S
C1882 C1881 1.398 . S
C1882 C1883 1.391 . S
C1883 H1871 0.950 . S
C1883 C1879 1.393 . S
C1883 C1882 1.391 . S
H1884 C1892 0.950 . S
H1885 C1897 0.950 . S
H1886 C1894 0.950 . S
H1887 C1896 0.950 . S
H1888 C1898 0.950 . S
H1889 C1900 0.950 . S
H1890 C1902 0.950 . S
H1891 C1903 0.950 . S
C1892 H1884 0.950 . S
C1892 C1893 1.386 . S
C1892 C1894 1.391 . S
C1893 C1892 1.386 . S
C1893 C1897 1.393 . S
C1894 H1886 0.950 . S
C1894 C1892 1.391 . S
C1894 C1895 1.400 . S
C1895 C1894 1.400 . S
C1895 C1896 1.398 . S
C1895 C1901 1.491 . S
C1896 H1887 0.950 . S
C1896 C1895 1.398 . S
C1896 C1897 1.391 . S
C1897 H1885 0.950 . S
C1897 C1893 1.393 . S
C1897 C1896 1.391 . S
C1898 H1888 0.950 . S
C1898 C1899 1.386 . S
C1898 C1900 1.391 . S
C1899 C1898 1.386 . S
C1899 C1903 1.393 . S
C1900 H1889 0.950 . S
C1900 C1898 1.391 . S
C1900 C1901 1.400 . S
C1901 C1895 1.491 . S
C1901 C1900 1.400 . S
C1901 C1902 1.398 . S
C1902 H1890 0.950 . S
C1902 C1901 1.398 . S
C1902 C1903 1.391 . S
C1903 H1891 0.950 . S
C1903 C1899 1.393 . S
C1903 C1902 1.391 . S
H1904 C1912 0.950 . S
H1905 C1917 0.950 . S
H1906 C1914 0.950 . S
H1907 C1916 0.950 . S
H1908 C1918 0.950 . S
H1909 C1920 0.950 . S
H1910 C1922 0.950 . S
H1911 C1923 0.950 . S
C1912 H1904 0.950 . S
C1912 C1913 1.386 . S
C1912 C1914 1.391 . S
C1913 C1912 1.386 . S
C1913 C1917 1.393 . S
C1914 H1906 0.950 . S
C1914 C1912 1.391 . S
C1914 C1915 1.400 . S
C1915 C1914 1.400 . S
C1915 C1916 1.398 . S
C1915 C1921 1.491 . S
C1916 H1907 0.950 . S
C1916 C1915 1.398 . S
C1916 C1917 1.391 . S
C1917 H1905 0.950 . S
C1917 C1913 1.393 . S
C1917 C1916 1.391 . S
C1918 H1908 0.950 . S
C1918 C1919 1.386 . S
C1918 C1920 1.391 . S
C1919 C1918 1.386 . S
C1919 C1923 1.393 . S
C1920 H1909 0.950 . S
C1920 C1918 1.391 . S
C1920 C1921 1.400 . S
C1921 C1915 1.491 . S
C1921 C1920 1.400 . S
C1921 C1922 1.398 . S
C1922 H1910 0.950 . S
C1922 C1921 1.398 . S
C1922 C1923 1.391 . S
C1923 H1911 0.950 . S
C1923 C1919 1.393 . S
C1923 C1922 1.391 . S
H1924 C1932 0.950 . S
H1925 C1937 0.950 . S
H1926 C1934 0.950 . S
H1927 C1936 0.950 . S
H1928 C1938 0.950 . S
H1929 C1940 0.950 . S
H1930 C1942 0.950 . S
H1931 C1943 0.950 . S
C1932 H1924 0.950 . S
C1932 C1933 1.386 . S
C1932 C1934 1.391 . S
C1933 C1932 1.386 . S
C1933 C1937 1.393 . S
C1934 H1926 0.950 . S
C1934 C1932 1.391 . S
C1934 C1935 1.400 . S
C1935 C1934 1.400 . S
C1935 C1936 1.398 . S
C1935 C1941 1.491 . S
C1936 H1927 0.950 . S
C1936 C1935 1.398 . S
C1936 C1937 1.391 . S
C1937 H1925 0.950 . S
C1937 C1933 1.393 . S
C1937 C1936 1.391 . S
C1938 H1928 0.950 . S
C1938 C1939 1.386 . S
C1938 C1940 1.391 . S
C1939 C1938 1.386 . S
C1939 C1943 1.393 . S
C1940 H1929 0.950 . S
C1940 C1938 1.391 . S
C1940 C1941 1.400 . S
C1941 C1935 1.491 . S
C1941 C1940 1.400 . S
C1941 C1942 1.398 . S
C1942 H1930 0.950 . S
C1942 C1941 1.398 . S
C1942 C1943 1.391 . S
C1943 H1931 0.950 . S
C1943 C1939 1.393 . S
C1943 C1942 1.391 . S
H1944 C1952 0.950 . S
H1945 C1957 0.950 . S
H1946 C1954 0.950 . S
H1947 C1956 0.950 . S
H1948 C1958 0.950 . S
H1949 C1960 0.950 . S
H1950 C1962 0.950 . S
H1951 C1963 0.950 . S
C1952 H1944 0.950 . S
C1952 C1953 1.386 . S
C1952 C1954 1.391 . S
C1953 C1952 1.386 . S
C1953 C1957 1.393 . S
C1954 H1946 0.950 . S
C1954 C1952 1.391 . S
C1954 C1955 1.400 . S
C1955 C1954 1.400 . S
C1955 C1956 1.398 . S
C1955 C1961 1.491 . S
C1956 H1947 0.950 . S
C1956 C1955 1.398 . S
C1956 C1957 1.391 . S
C1957 H1945 0.950 . S
C1957 C1953 1.393 . S
C1957 C1956 1.391 . S
C1958 H1948 0.950 . S
C1958 C1959 1.386 . S
C1958 C1960 1.391 . S
C1959 C1958 1.386 . S
C1959 C1963 1.393 . S
C1960 H1949 0.950 . S
C1960 C1958 1.391 . S
C1960 C1961 1.400 . S
C1961 C1955 1.491 . S
C1961 C1960 1.400 . S
C1961 C1962 1.398 . S
C1962 H1950 0.950 . S
C1962 C1961 1.398 . S
C1962 C1963 1.391 . S
C1963 H1951 0.950 . S
C1963 C1959 1.393 . S
C1963 C1962 1.391 . S
H1964 C1972 0.950 . S
H1965 C1977 0.950 . S
H1966 C1974 0.950 . S
H1967 C1976 0.950 . S
H1968 C1978 0.950 . S
H1969 C1980 0.950 . S
H1970 C1982 0.950 . S
H1971 C1983 0.950 . S
C1972 H1964 0.950 . S
C1972 C1973 1.386 . S
C1972 C1974 1.391 . S
C1973 C1972 1.386 . S
C1973 C1977 1.393 . S
C1974 H1966 0.950 . S
C1974 C1972 1.391 . S
C1974 C1975 1.400 . S
C1975 C1974 1.400 . S
C1975 C1976 1.398 . S
C1975 C1981 1.491 . S
C1976 H1967 0.950 . S
C1976 C1975 1.398 . S
C1976 C1977 1.391 . S
C1977 H1965 0.950 . S
C1977 C1973 1.393 . S
C1977 C1976 1.391 . S
C1978 H1968 0.950 . S
C1978 C1979 1.386 . S
C1978 C1980 1.391 . S
C1979 C1978 1.386 . S
C1979 C1983 1.393 . S
C1980 H1969 0.950 . S
C1980 C1978 1.391 . S
C1980 C1981 1.400 . S
C1981 C1975 1.491 . S
C1981 C1980 1.400 . S
C1981 C1982 1.398 . S
C1982 H1970 0.950 . S
C1982 C1981 1.398 . S
C1982 C1983 1.391 . S
C1983 H1971 0.950 . S
C1983 C1979 1.393 . S
C1983 C1982 1.391 . S
H1984 C1992 0.950 . S
H1985 C1997 0.950 . S
H1986 C1994 0.950 . S
H1987 C1996 0.950 . S
H1988 C1998 0.950 . S
H1989 C2000 0.950 . S
H1990 C2002 0.950 . S
H1991 C2003 0.950 . S
C1992 H1984 0.950 . S
C1992 C1993 1.386 . S
C1992 C1994 1.391 . S
C1993 C1992 1.386 . S
C1993 C1997 1.393 . S
C1994 H1986 0.950 . S
C1994 C1992 1.391 . S
C1994 C1995 1.400 . S
C1995 C1994 1.400 . S
C1995 C1996 1.398 . S
C1995 C2001 1.491 . S
C1996 H1987 0.950 . S
C1996 C1995 1.398 . S
C1996 C1997 1.391 . S
C1997 H1985 0.950 . S
C1997 C1993 1.393 . S
C1997 C1996 1.391 . S
C1998 H1988 0.950 . S
C1998 C1999 1.386 . S
C1998 C2000 1.391 . S
C1999 C1998 1.386 . S
C1999 C2003 1.393 . S
C2000 H1989 0.950 . S
C2000 C1998 1.391 . S
C2000 C2001 1.400 . S
C2001 C1995 1.491 . S
C2001 C2000 1.400 . S
C2001 C2002 1.398 . S
C2002 H1990 0.950 . S
C2002 C2001 1.398 . S
C2002 C2003 1.391 . S
C2003 H1991 0.950 . S
C2003 C1999 1.393 . S
C2003 C2002 1.391 . S
H2004 C2012 0.950 . S
H2005 C2017 0.950 . S
H2006 C2014 0.950 . S
H2007 C2016 0.950 . S
H2008 C2018 0.950 . S
H2009 C2020 0.950 . S
H2010 C2022 0.950 . S
H2011 C2023 0.950 . S
C2012 H2004 0.950 . S
C2012 C2013 1.386 . S
C2012 C2014 1.391 . S
C2013 C2012 1.386 . S
C2013 C2017 1.393 . S
C2014 H2006 0.950 . S
C2014 C2012 1.391 . S
C2014 C2015 1.400 . S
C2015 C2014 1.400 . S
C2015 C2016 1.398 . S
C2015 C2021 1.491 . S
C2016 H2007 0.950 . S
C2016 C2015 1.398 . S
C2016 C2017 1.391 . S
C2017 H2005 0.950 . S
C2017 C2013 1.393 . S
C2017 C2016 1.391 . S
C2018 H2008 0.950 . S
C2018 C2019 1.386 . S
C2018 C2020 1.391 . S
C2019 C2018 1.386 . S
C2019 C2023 1.393 . S
C2020 H2009 0.950 . S
C2020 C2018 1.391 . S
C2020 C2021 1.400 . S
C2021 C2015 1.491 . S
C2021 C2020 1.400 . S
C2021 C2022 1.398 . S
C2022 H2010 0.950 . S
C2022 C2021 1.398 . S
C2022 C2023 1.391 . S
C2023 H2011 0.950 . S
C2023 C2019 1.393 . S
C2023 C2022 1.391 . S
H2024 C2032 0.950 . S
H2025 C2037 0.950 . S
H2026 C2034 0.950 . S
H2027 C2036 0.950 . S
H2028 C2038 0.950 . S
H2029 C2040 0.950 . S
H2030 C2042 0.950 . S
H2031 C2043 0.950 . S
C2032 H2024 0.950 . S
C2032 C2033 1.386 . S
C2032 C2034 1.391 . S
C2033 C2032 1.386 . S
C2033 C2037 1.393 . S
C2034 H2026 0.950 . S
C2034 C2032 1.391 . S
C2034 C2035 1.400 . S
C2035 C2034 1.400 . S
C2035 C2036 1.398 . S
C2035 C2041 1.491 . S
C2036 H2027 0.950 . S
C2036 C2035 1.398 . S
C2036 C2037 1.391 . S
C2037 H2025 0.950 . S
C2037 C2033 1.393 . S
C2037 C2036 1.391 . S
C2038 H2028 0.950 . S
C2038 C2039 1.386 . S
C2038 C2040 1.391 . S
C2039 C2038 1.386 . S
C2039 C2043 1.393 . S
C2040 H2029 0.950 . S
C2040 C2038 1.391 . S
C2040 C2041 1.400 . S
C2041 C2035 1.491 . S
C2041 C2040 1.400 . S
C2041 C2042 1.398 . S
C2042 H2030 0.950 . S
C2042 C2041 1.398 . S
C2042 C2043 1.391 . S
C2043 H2031 0.950 . S
C2043 C2039 1.393 . S
C2043 C2042 1.391 . S
H2044 C2052 0.950 . S
H2045 C2057 0.950 . S
H2046 C2054 0.950 . S
H2047 C2056 0.950 . S
H2048 C2058 0.950 . S
H2049 C2060 0.950 . S
H2050 C2062 0.950 . S
H2051 C2063 0.950 . S
C2052 H2044 0.950 . S
C2052 C2053 1.386 . S
C2052 C2054 1.391 . S
C2053 C2052 1.386 . S
C2053 C2057 1.393 . S
C2054 H2046 0.950 . S
C2054 C2052 1.391 . S
C2054 C2055 1.400 . S
C2055 C2054 1.400 . S
C2055 C2056 1.398 . S
C2055 C2061 1.491 . S
C2056 H2047 0.950 . S
C2056 C2055 1.398 . S
C2056 C2057 1.391 . S
C2057 H2045 0.950 . S
C2057 C2053 1.393 . S
C2057 C2056 1.391 . S
C2058 H2048 0.950 . S
C2058 C2059 1.386 . S
C2058 C2060 1.391 . S
C2059 C2058 1.386 . S
C2059 C2063 1.393 . S
C2060 H2049 0.950 . S
C2060 C2058 1.391 . S
C2060 C2061 1.400 . S
C2061 C2055 1.491 . S
C2061 C2060 1.400 . S
C2061 C2062 1.398 . S
C2062 H2050 0.950 . S
C2062 C2061 1.398 . S
C2062 C2063 1.391 . S
C2063 H2051 0.950 . S
C2063 C2059 1.393 . S
C2063 C2062 1.391 . S
H2064 C2072 0.950 . S
H2065 C2077 0.950 . S
H2066 C2074 0.950 . S
H2067 C2076 0.950 . S
H2068 C2078 0.950 . S
H2069 C2080 0.950 . S
H2070 C2082 0.950 . S
H2071 C2083 0.950 . S
C2072 H2064 0.950 . S
C2072 C2073 1.386 . S
C2072 C2074 1.391 . S
C2073 C2072 1.386 . S
C2073 C2077 1.393 . S
C2074 H2066 0.950 . S
C2074 C2072 1.391 . S
C2074 C2075 1.400 . S
C2075 C2074 1.400 . S
C2075 C2076 1.398 . S
C2075 C2081 1.491 . S
C2076 H2067 0.950 . S
C2076 C2075 1.398 . S
C2076 C2077 1.391 . S
C2077 H2065 0.950 . S
C2077 C2073 1.393 . S
C2077 C2076 1.391 . S
C2078 H2068 0.950 . S
C2078 C2079 1.386 . S
C2078 C2080 1.391 . S
C2079 C2078 1.386 . S
C2079 C2083 1.393 . S
C2080 H2069 0.950 . S
C2080 C2078 1.391 . S
C2080 C2081 1.400 . S
C2081 C2075 1.491 . S
C2081 C2080 1.400 . S
C2081 C2082 1.398 . S
C2082 H2070 0.950 . S
C2082 C2081 1.398 . S
C2082 C2083 1.391 . S
C2083 H2071 0.950 . S
C2083 C2079 1.393 . S
C2083 C2082 1.391 . S
H2084 C2092 0.950 . S
H2085 C2097 0.950 . S
H2086 C2094 0.950 . S
H2087 C2096 0.950 . S
H2088 C2098 0.950 . S
H2089 C2100 0.950 . S
H2090 C2102 0.950 . S
H2091 C2103 0.950 . S
C2092 H2084 0.950 . S
C2092 C2093 1.386 . S
C2092 C2094 1.391 . S
C2093 C2092 1.386 . S
C2093 C2097 1.393 . S
C2094 H2086 0.950 . S
C2094 C2092 1.391 . S
C2094 C2095 1.400 . S
C2095 C2094 1.400 . S
C2095 C2096 1.398 . S
C2095 C2101 1.491 . S
C2096 H2087 0.950 . S
C2096 C2095 1.398 . S
C2096 C2097 1.391 . S
C2097 H2085 0.950 . S
C2097 C2093 1.393 . S
C2097 C2096 1.391 . S
C2098 H2088 0.950 . S
C2098 C2099 1.386 . S
C2098 C2100 1.391 . S
C2099 C2098 1.386 . S
C2099 C2103 1.393 . S
C2100 H2089 0.950 . S
C2100 C2098 1.391 . S
C2100 C2101 1.400 . S
C2101 C2095 1.491 . S
C2101 C2100 1.400 . S
C2101 C2102 1.398 . S
C2102 H2090 0.950 . S
C2102 C2101 1.398 . S
C2102 C2103 1.391 . S
C2103 H2091 0.950 . S
C2103 C2099 1.393 . S
C2103 C2102 1.391 . S
H2104 C2112 0.950 . S
H2105 C2117 0.950 . S
H2106 C2114 0.950 . S
H2107 C2116 0.950 . S
H2108 C2118 0.950 . S
H2109 C2120 0.950 . S
H2110 C2122 0.950 . S
H2111 C2123 0.950 . S
C2112 H2104 0.950 . S
C2112 C2113 1.386 . S
C2112 C2114 1.391 . S
C2113 C2112 1.386 . S
C2113 C2117 1.393 . S
C2114 H2106 0.950 . S
C2114 C2112 1.391 . S
C2114 C2115 1.400 . S
C2115 C2114 1.400 . S
C2115 C2116 1.398 . S
C2115 C2121 1.491 . S
C2116 H2107 0.950 . S
C2116 C2115 1.398 . S
C2116 C2117 1.391 . S
C2117 H2105 0.950 . S
C2117 C2113 1.393 . S
C2117 C2116 1.391 . S
C2118 H2108 0.950 . S
C2118 C2119 1.386 . S
C2118 C2120 1.391 . S
C2119 C2118 1.386 . S
C2119 C2123 1.393 . S
C2120 H2109 0.950 . S
C2120 C2118 1.391 . S
C2120 C2121 1.400 . S
C2121 C2115 1.491 . S
C2121 C2120 1.400 . S
C2121 C2122 1.398 . S
C2122 H2110 0.950 . S
C2122 C2121 1.398 . S
C2122 C2123 1.391 . S
C2123 H2111 0.950 . S
C2123 C2119 1.393 . S
C2123 C2122 1.391 . S
H2124 C2132 0.950 . S
H2125 C2137 0.950 . S
H2126 C2134 0.950 . S
H2127 C2136 0.950 . S
H2128 C2138 0.950 . S
H2129 C2140 0.950 . S
H2130 C2142 0.950 . S
H2131 C2143 0.950 . S
C2132 H2124 0.950 . S
C2132 C2133 1.386 . S
C2132 C2134 1.391 . S
C2133 C2132 1.386 . S
C2133 C2137 1.393 . S
C2134 H2126 0.950 . S
C2134 C2132 1.391 . S
C2134 C2135 1.400 . S
C2135 C2134 1.400 . S
C2135 C2136 1.398 . S
C2135 C2141 1.491 . S
C2136 H2127 0.950 . S
C2136 C2135 1.398 . S
C2136 C2137 1.391 . S
C2137 H2125 0.950 . S
C2137 C2133 1.393 . S
C2137 C2136 1.391 . S
C2138 H2128 0.950 . S
C2138 C2139 1.386 . S
C2138 C2140 1.391 . S
C2139 C2138 1.386 . S
C2139 C2143 1.393 . S
C2140 H2129 0.950 . S
C2140 C2138 1.391 . S
C2140 C2141 1.400 . S
C2141 C2135 1.491 . S
C2141 C2140 1.400 . S
C2141 C2142 1.398 . S
C2142 H2130 0.950 . S
C2142 C2141 1.398 . S
C2142 C2143 1.391 . S
C2143 H2131 0.950 . S
C2143 C2139 1.393 . S
C2143 C2142 1.391 . S
H2144 C2152 0.950 . S
H2145 C2157 0.950 . S
H2146 C2154 0.950 . S
H2147 C2156 0.950 . S
H2148 C2158 0.950 . S
H2149 C2160 0.950 . S
H2150 C2162 0.950 . S
H2151 C2163 0.950 . S
C2152 H2144 0.950 . S
C2152 C2153 1.386 . S
C2152 C2154 1.391 . S
C2153 C2152 1.386 . S
C2153 C2157 1.393 . S
C2154 H2146 0.950 . S
C2154 C2152 1.391 . S
C2154 C2155 1.400 . S
C2155 C2154 1.400 . S
C2155 C2156 1.398 . S
C2155 C2161 1.491 . S
C2156 H2147 0.950 . S
C2156 C2155 1.398 . S
C2156 C2157 1.391 . S
C2157 H2145 0.950 . S
C2157 C2153 1.393 . S
C2157 C2156 1.391 . S
C2158 H2148 0.950 . S
C2158 C2159 1.386 . S
C2158 C2160 1.391 . S
C2159 C2158 1.386 . S
C2159 C2163 1.393 . S
C2160 H2149 0.950 . S
C2160 C2158 1.391 . S
C2160 C2161 1.400 . S
C2161 C2155 1.491 . S
C2161 C2160 1.400 . S
C2161 C2162 1.398 . S
C2162 H2150 0.950 . S
C2162 C2161 1.398 . S
C2162 C2163 1.391 . S
C2163 H2151 0.950 . S
C2163 C2159 1.393 . S
C2163 C2162 1.391 . S
H2164 C2172 0.950 . S
H2165 C2177 0.950 . S
H2166 C2174 0.950 . S
H2167 C2176 0.950 . S
H2168 C2178 0.950 . S
H2169 C2180 0.950 . S
H2170 C2182 0.950 . S
H2171 C2183 0.950 . S
C2172 H2164 0.950 . S
C2172 C2173 1.386 . S
C2172 C2174 1.391 . S
C2173 C2172 1.386 . S
C2173 C2177 1.393 . S
C2174 H2166 0.950 . S
C2174 C2172 1.391 . S
C2174 C2175 1.400 . S
C2175 C2174 1.400 . S
C2175 C2176 1.398 . S
C2175 C2181 1.491 . S
C2176 H2167 0.950 . S
C2176 C2175 1.398 . S
C2176 C2177 1.391 . S
C2177 H2165 0.950 . S
C2177 C2173 1.393 . S
C2177 C2176 1.391 . S
C2178 H2168 0.950 . S
C2178 C2179 1.386 . S
C2178 C2180 1.391 . S
C2179 C2178 1.386 . S
C2179 C2183 1.393 . S
C2180 H2169 0.950 . S
C2180 C2178 1.391 . S
C2180 C2181 1.400 . S
C2181 C2175 1.491 . S
C2181 C2180 1.400 . S
C2181 C2182 1.398 . S
C2182 H2170 0.950 . S
C2182 C2181 1.398 . S
C2182 C2183 1.391 . S
C2183 H2171 0.950 . S
C2183 C2179 1.393 . S
C2183 C2182 1.391 . S
H2184 C2192 0.950 . S
H2185 C2197 0.950 . S
H2186 C2194 0.950 . S
H2187 C2196 0.950 . S
H2188 C2198 0.950 . S
H2189 C2200 0.950 . S
H2190 C2202 0.950 . S
H2191 C2203 0.950 . S
C2192 H2184 0.950 . S
C2192 C2193 1.386 . S
C2192 C2194 1.391 . S
C2193 C2192 1.386 . S
C2193 C2197 1.393 . S
C2194 H2186 0.950 . S
C2194 C2192 1.391 . S
C2194 C2195 1.400 . S
C2195 C2194 1.400 . S
C2195 C2196 1.398 . S
C2195 C2201 1.491 . S
C2196 H2187 0.950 . S
C2196 C2195 1.398 . S
C2196 C2197 1.391 . S
C2197 H2185 0.950 . S
C2197 C2193 1.393 . S
C2197 C2196 1.391 . S
C2198 H2188 0.950 . S
C2198 C2199 1.386 . S
C2198 C2200 1.391 . S
C2199 C2198 1.386 . S
C2199 C2203 1.393 . S
C2200 H2189 0.950 . S
C2200 C2198 1.391 . S
C2200 C2201 1.400 . S
C2201 C2195 1.491 . S
C2201 C2200 1.400 . S
C2201 C2202 1.398 . S
C2202 H2190 0.950 . S
C2202 C2201 1.398 . S
C2202 C2203 1.391 . S
C2203 H2191 0.950 . S
C2203 C2199 1.393 . S
C2203 C2202 1.391 . S
H2204 C2212 0.950 . S
H2205 C2217 0.950 . S
H2206 C2214 0.950 . S
H2207 C2216 0.950 . S
H2208 C2218 0.950 . S
H2209 C2220 0.950 . S
H2210 C2222 0.950 . S
H2211 C2223 0.950 . S
C2212 H2204 0.950 . S
C2212 C2213 1.386 . S
C2212 C2214 1.391 . S
C2213 C2212 1.386 . S
C2213 C2217 1.393 . S
C2214 H2206 0.950 . S
C2214 C2212 1.391 . S
C2214 C2215 1.400 . S
C2215 C2214 1.400 . S
C2215 C2216 1.398 . S
C2215 C2221 1.491 . S
C2216 H2207 0.950 . S
C2216 C2215 1.398 . S
C2216 C2217 1.391 . S
C2217 H2205 0.950 . S
C2217 C2213 1.393 . S
C2217 C2216 1.391 . S
C2218 H2208 0.950 . S
C2218 C2219 1.386 . S
C2218 C2220 1.391 . S
C2219 C2218 1.386 . S
C2219 C2223 1.393 . S
C2220 H2209 0.950 . S
C2220 C2218 1.391 . S
C2220 C2221 1.400 . S
C2221 C2215 1.491 . S
C2221 C2220 1.400 . S
C2221 C2222 1.398 . S
C2222 H2210 0.950 . S
C2222 C2221 1.398 . S
C2222 C2223 1.391 . S
C2223 H2211 0.950 . S
C2223 C2219 1.393 . S
C2223 C2222 1.391 . S
H2224 C2232 0.950 . S
H2225 C2237 0.950 . S
H2226 C2234 0.950 . S
H2227 C2236 0.950 . S
H2228 C2238 0.950 . S
H2229 C2240 0.950 . S
H2230 C2242 0.950 . S
H2231 C2243 0.950 . S
C2232 H2224 0.950 . S
C2232 C2233 1.386 . S
C2232 C2234 1.391 . S
C2233 C2232 1.386 . S
C2233 C2237 1.393 . S
C2234 H2226 0.950 . S
C2234 C2232 1.391 . S
C2234 C2235 1.400 . S
C2235 C2234 1.400 . S
C2235 C2236 1.398 . S
C2235 C2241 1.491 . S
C2236 H2227 0.950 . S
C2236 C2235 1.398 . S
C2236 C2237 1.391 . S
C2237 H2225 0.950 . S
C2237 C2233 1.393 . S
C2237 C2236 1.391 . S
C2238 H2228 0.950 . S
C2238 C2239 1.386 . S
C2238 C2240 1.391 . S
C2239 C2238 1.386 . S
C2239 C2243 1.393 . S
C2240 H2229 0.950 . S
C2240 C2238 1.391 . S
C2240 C2241 1.400 . S
C2241 C2235 1.491 . S
C2241 C2240 1.400 . S
C2241 C2242 1.398 . S
C2242 H2230 0.950 . S
C2242 C2241 1.398 . S
C2242 C2243 1.391 . S
C2243 H2231 0.950 . S
C2243 C2239 1.393 . S
C2243 C2242 1.391 . S
H2244 C2252 0.950 . S
H2245 C2257 0.950 . S
H2246 C2254 0.950 . S
H2247 C2256 0.950 . S
H2248 C2258 0.950 . S
H2249 C2260 0.950 . S
H2250 C2262 0.950 . S
H2251 C2263 0.950 . S
C2252 H2244 0.950 . S
C2252 C2253 1.386 . S
C2252 C2254 1.391 . S
C2253 C2252 1.386 . S
C2253 C2257 1.393 . S
C2254 H2246 0.950 . S
C2254 C2252 1.391 . S
C2254 C2255 1.400 . S
C2255 C2254 1.400 . S
C2255 C2256 1.398 . S
C2255 C2261 1.491 . S
C2256 H2247 0.950 . S
C2256 C2255 1.398 . S
C2256 C2257 1.391 . S
C2257 H2245 0.950 . S
C2257 C2253 1.393 . S
C2257 C2256 1.391 . S
C2258 H2248 0.950 . S
C2258 C2259 1.386 . S
C2258 C2260 1.391 . S
C2259 C2258 1.386 . S
C2259 C2263 1.393 . S
C2260 H2249 0.950 . S
C2260 C2258 1.391 . S
C2260 C2261 1.400 . S
C2261 C2255 1.491 . S
C2261 C2260 1.400 . S
C2261 C2262 1.398 . S
C2262 H2250 0.950 . S
C2262 C2261 1.398 . S
C2262 C2263 1.391 . S
C2263 H2251 0.950 . S
C2263 C2259 1.393 . S
C2263 C2262 1.391 . S
H2264 C2272 0.950 . S
H2265 C2277 0.950 . S
H2266 C2274 0.950 . S
H2267 C2276 0.950 . S
H2268 C2278 0.950 . S
H2269 C2280 0.950 . S
H2270 C2282 0.950 . S
H2271 C2283 0.950 . S
C2272 H2264 0.950 . S
C2272 C2273 1.386 . S
C2272 C2274 1.391 . S
C2273 C2272 1.386 . S
C2273 C2277 1.393 . S
C2274 H2266 0.950 . S
C2274 C2272 1.391 . S
C2274 C2275 1.400 . S
C2275 C2274 1.400 . S
C2275 C2276 1.398 . S
C2275 C2281 1.491 . S
C2276 H2267 0.950 . S
C2276 C2275 1.398 . S
C2276 C2277 1.391 . S
C2277 H2265 0.950 . S
C2277 C2273 1.393 . S
C2277 C2276 1.391 . S
C2278 H2268 0.950 . S
C2278 C2279 1.386 . S
C2278 C2280 1.391 . S
C2279 C2278 1.386 . S
C2279 C2283 1.393 . S
C2280 H2269 0.950 . S
C2280 C2278 1.391 . S
C2280 C2281 1.400 . S
C2281 C2275 1.491 . S
C2281 C2280 1.400 . S
C2281 C2282 1.398 . S
C2282 H2270 0.950 . S
C2282 C2281 1.398 . S
C2282 C2283 1.391 . S
C2283 H2271 0.950 . S
C2283 C2279 1.393 . S
C2283 C2282 1.391 . S
H2284 C2292 0.950 . S
H2285 C2297 0.950 . S
H2286 C2294 0.950 . S
H2287 C2296 0.950 . S
H2288 C2298 0.950 . S
H2289 C2300 0.950 . S
H2290 C2302 0.950 . S
H2291 C2303 0.950 . S
C2292 H2284 0.950 . S
C2292 C2293 1.386 . S
C2292 C2294 1.391 . S
C2293 C2292 1.386 . S
C2293 C2297 1.393 . S
C2294 H2286 0.950 . S
C2294 C2292 1.391 . S
C2294 C2295 1.400 . S
C2295 C2294 1.400 . S
C2295 C2296 1.398 . S
C2295 C2301 1.491 . S
C2296 H2287 0.950 . S
C2296 C2295 1.398 . S
C2296 C2297 1.391 . S
C2297 H2285 0.950 . S
C2297 C2293 1.393 . S
C2297 C2296 1.391 . S
C2298 H2288 0.950 . S
C2298 C2299 1.386 . S
C2298 C2300 1.391 . S
C2299 C2298 1.386 . S
C2299 C2303 1.393 . S
C2300 H2289 0.950 . S
C2300 C2298 1.391 . S
C2300 C2301 1.400 . S
C2301 C2295 1.491 . S
C2301 C2300 1.400 . S
C2301 C2302 1.398 . S
C2302 H2290 0.950 . S
C2302 C2301 1.398 . S
C2302 C2303 1.391 . S
C2303 H2291 0.950 . S
C2303 C2299 1.393 . S
C2303 C2302 1.391 . S
H2304 C2312 0.950 . S
H2305 C2317 0.950 . S
H2306 C2314 0.950 . S
H2307 C2316 0.950 . S
H2308 C2318 0.950 . S
H2309 C2320 0.950 . S
H2310 C2322 0.950 . S
H2311 C2323 0.950 . S
C2312 H2304 0.950 . S
C2312 C2313 1.386 . S
C2312 C2314 1.391 . S
C2313 C2312 1.386 . S
C2313 C2317 1.393 . S
C2314 H2306 0.950 . S
C2314 C2312 1.391 . S
C2314 C2315 1.400 . S
C2315 C2314 1.400 . S
C2315 C2316 1.398 . S
C2315 C2321 1.491 . S
C2316 H2307 0.950 . S
C2316 C2315 1.398 . S
C2316 C2317 1.391 . S
C2317 H2305 0.950 . S
C2317 C2313 1.393 . S
C2317 C2316 1.391 . S
C2318 H2308 0.950 . S
C2318 C2319 1.386 . S
C2318 C2320 1.391 . S
C2319 C2318 1.386 . S
C2319 C2323 1.393 . S
C2320 H2309 0.950 . S
C2320 C2318 1.391 . S
C2320 C2321 1.400 . S
C2321 C2315 1.491 . S
C2321 C2320 1.400 . S
C2321 C2322 1.398 . S
C2322 H2310 0.950 . S
C2322 C2321 1.398 . S
C2322 C2323 1.391 . S
C2323 H2311 0.950 . S
C2323 C2319 1.393 . S
C2323 C2322 1.391 . S
H2324 C2332 0.950 . S
H2325 C2337 0.950 . S
H2326 C2334 0.950 . S
H2327 C2336 0.950 . S
H2328 C2338 0.950 . S
H2329 C2340 0.950 . S
H2330 C2342 0.950 . S
H2331 C2343 0.950 . S
C2332 H2324 0.950 . S
C2332 C2333 1.386 . S
C2332 C2334 1.391 . S
C2333 C2332 1.386 . S
C2333 C2337 1.393 . S
C2334 H2326 0.950 . S
C2334 C2332 1.391 . S
C2334 C2335 1.400 . S
C2335 C2334 1.400 . S
C2335 C2336 1.398 . S
C2335 C2341 1.491 . S
C2336 H2327 0.950 . S
C2336 C2335 1.398 . S
C2336 C2337 1.391 . S
C2337 H2325 0.950 . S
C2337 C2333 1.393 . S
C2337 C2336 1.391 . S
C2338 H2328 0.950 . S
C2338 C2339 1.386 . S
C2338 C2340 1.391 . S
C2339 C2338 1.386 . S
C2339 C2343 1.393 . S
C2340 H2329 0.950 . S
C2340 C2338 1.391 . S
C2340 C2341 1.400 . S
C2341 C2335 1.491 . S
C2341 C2340 1.400 . S
C2341 C2342 1.398 . S
C2342 H2330 0.950 . S
C2342 C2341 1.398 . S
C2342 C2343 1.391 . S
C2343 H2331 0.950 . S
C2343 C2339 1.393 . S
C2343 C2342 1.391 . S
H2344 C2352 0.950 . S
H2345 C2357 0.950 . S
H2346 C2354 0.950 . S
H2347 C2356 0.950 . S
H2348 C2358 0.950 . S
H2349 C2360 0.950 . S
H2350 C2362 0.950 . S
H2351 C2363 0.950 . S
C2352 H2344 0.950 . S
C2352 C2353 1.386 . S
C2352 C2354 1.391 . S
C2353 C2352 1.386 . S
C2353 C2357 1.393 . S
C2354 H2346 0.950 . S
C2354 C2352 1.391 . S
C2354 C2355 1.400 . S
C2355 C2354 1.400 . S
C2355 C2356 1.398 . S
C2355 C2361 1.491 . S
C2356 H2347 0.950 . S
C2356 C2355 1.398 . S
C2356 C2357 1.391 . S
C2357 H2345 0.950 . S
C2357 C2353 1.393 . S
C2357 C2356 1.391 . S
C2358 H2348 0.950 . S
C2358 C2359 1.386 . S
C2358 C2360 1.391 . S
C2359 C2358 1.386 . S
C2359 C2363 1.393 . S
C2360 H2349 0.950 . S
C2360 C2358 1.391 . S
C2360 C2361 1.400 . S
C2361 C2355 1.491 . S
C2361 C2360 1.400 . S
C2361 C2362 1.398 . S
C2362 H2350 0.950 . S
C2362 C2361 1.398 . S
C2362 C2363 1.391 . S
C2363 H2351 0.950 . S
C2363 C2359 1.393 . S
C2363 C2362 1.391 . S
H2364 C2372 0.950 1_554 S
H2365 C2377 0.950 . S
H2366 C2374 0.950 . S
H2367 C2376 0.950 . S
H2368 C2378 0.950 . S
H2369 C2380 0.950 . S
H2370 C2382 0.950 . S
H2371 C2383 0.950 . S
C2372 H2364 0.950 1_556 S
C2372 C2373 1.386 . S
C2372 C2374 1.391 . S
C2373 C2372 1.386 . S
C2373 C2377 1.393 . S
C2374 H2366 0.950 . S
C2374 C2372 1.391 . S
C2374 C2375 1.400 . S
C2375 C2374 1.400 . S
C2375 C2376 1.398 . S
C2375 C2381 1.491 . S
C2376 H2367 0.950 . S
C2376 C2375 1.398 . S
C2376 C2377 1.391 . S
C2377 H2365 0.950 . S
C2377 C2373 1.393 . S
C2377 C2376 1.391 . S
C2378 H2368 0.950 . S
C2378 C2379 1.386 . S
C2378 C2380 1.391 . S
C2379 C2378 1.386 . S
C2379 C2383 1.393 . S
C2380 H2369 0.950 . S
C2380 C2378 1.391 . S
C2380 C2381 1.400 . S
C2381 C2375 1.491 . S
C2381 C2380 1.400 . S
C2381 C2382 1.398 . S
C2382 H2370 0.950 . S
C2382 C2381 1.398 . S
C2382 C2383 1.391 . S
C2383 H2371 0.950 . S
C2383 C2379 1.393 . S
C2383 C2382 1.391 . S
H2384 C2392 0.950 . S
H2385 C2397 0.950 . S
H2386 C2394 0.950 . S
H2387 C2396 0.950 . S
H2388 C2398 0.950 . S
H2389 C2400 0.950 . S
H2390 C2402 0.950 . S
H2391 C2403 0.950 . S
C2392 H2384 0.950 . S
C2392 C2393 1.386 . S
C2392 C2394 1.391 . S
C2393 C2392 1.386 . S
C2393 C2397 1.393 . S
C2394 H2386 0.950 . S
C2394 C2392 1.391 . S
C2394 C2395 1.400 . S
C2395 C2394 1.400 . S
C2395 C2396 1.398 . S
C2395 C2401 1.491 . S
C2396 H2387 0.950 . S
C2396 C2395 1.398 . S
C2396 C2397 1.391 . S
C2397 H2385 0.950 . S
C2397 C2393 1.393 . S
C2397 C2396 1.391 . S
C2398 H2388 0.950 . S
C2398 C2399 1.386 . S
C2398 C2400 1.391 . S
C2399 C2398 1.386 . S
C2399 C2403 1.393 . S
C2400 H2389 0.950 . S
C2400 C2398 1.391 . S
C2400 C2401 1.400 . S
C2401 C2395 1.491 . S
C2401 C2400 1.400 . S
C2401 C2402 1.398 . S
C2402 H2390 0.950 . S
C2402 C2401 1.398 . S
C2402 C2403 1.391 . S
C2403 H2391 0.950 . S
C2403 C2399 1.393 . S
C2403 C2402 1.391 . S
H2404 C2412 0.950 1_556 S
H2405 C2417 0.950 . S
H2406 C2414 0.950 . S
H2407 C2416 0.950 . S
H2408 C2418 0.950 . S
H2409 C2420 0.950 1_554 S
H2410 C2422 0.950 . S
H2411 C2423 0.950 . S
C2412 H2404 0.950 1_554 S
C2412 C2413 1.386 . S
C2412 C2414 1.391 1_554 S
C2413 C2412 1.386 . S
C2413 C2417 1.393 . S
C2414 H2406 0.950 . S
C2414 C2412 1.391 1_556 S
C2414 C2415 1.381 1_556 S
C2415 C2414 1.381 1_554 S
C2415 C2416 1.459 . S
C2415 C2421 1.453 1_554 S
C2416 H2407 0.950 . S
C2416 C2415 1.459 . S
C2416 C2417 1.391 . S
C2417 H2405 0.950 . S
C2417 C2413 1.393 . S
C2417 C2416 1.391 . S
C2418 H2408 0.950 . S
C2418 C2419 1.386 . S
C2418 C2420 1.391 . S
C2419 C2418 1.386 . S
C2419 C2423 1.393 . S
C2420 H2409 0.950 1_556 S
C2420 C2418 1.391 . S
C2420 C2421 1.400 . S
C2421 C2415 1.453 1_556 S
C2421 C2420 1.400 . S
C2421 C2422 1.398 . S
C2422 H2410 0.950 . S
C2422 C2421 1.398 . S
C2422 C2423 1.391 . S
C2423 H2411 0.950 . S
C2423 C2419 1.393 . S
C2423 C2422 1.391 . S
H2424 C2432 0.950 . S
H2425 C2437 0.950 . S
H2426 C2434 0.950 . S
H2427 C2436 0.950 . S
H2428 C2438 0.950 . S
H2429 C2440 0.950 . S
H2430 C2442 0.950 . S
H2431 C2443 0.950 . S
C2432 H2424 0.950 . S
C2432 C2433 1.386 . S
C2432 C2434 1.391 . S
C2433 C2432 1.386 . S
C2433 C2437 1.393 1_556 S
C2434 H2426 0.950 . S
C2434 C2432 1.391 . S
C2434 C2435 1.400 . S
C2435 C2434 1.400 . S
C2435 C2436 1.398 . S
C2435 C2441 1.491 . S
C2436 H2427 0.950 . S
C2436 C2435 1.398 . S
C2436 C2437 1.391 1_556 S
C2437 H2425 0.950 . S
C2437 C2433 1.393 1_554 S
C2437 C2436 1.391 1_554 S
C2438 H2428 0.950 . S
C2438 C2439 1.386 . S
C2438 C2440 1.391 . S
C2439 C2438 1.386 . S
C2439 C2443 1.393 . S
C2440 H2429 0.950 . S
C2440 C2438 1.391 . S
C2440 C2441 1.400 . S
C2441 C2435 1.491 . S
C2441 C2440 1.400 . S
C2441 C2442 1.398 . S
C2442 H2430 0.950 . S
C2442 C2441 1.398 . S
C2442 C2443 1.391 . S
C2443 H2431 0.950 . S
C2443 C2439 1.393 . S
C2443 C2442 1.391 . S
H2444 C2452 0.950 . S
H2445 C2457 0.950 . S
H2446 C2454 0.950 . S
H2447 C2456 0.950 . S
H2448 C2458 0.950 . S
H2449 C2460 0.950 . S
H2450 C2462 0.950 . S
H2451 C2463 0.950 . S
C2452 H2444 0.950 . S
C2452 C2453 1.386 . S
C2452 C2454 1.391 . S
C2453 C2452 1.386 . S
C2453 C2457 1.393 . S
C2454 H2446 0.950 . S
C2454 C2452 1.391 . S
C2454 C2455 1.400 . S
C2455 C2454 1.400 . S
C2455 C2456 1.398 . S
C2455 C2461 1.491 . S
C2456 H2447 0.950 . S
C2456 C2455 1.398 . S
C2456 C2457 1.391 . S
C2457 H2445 0.950 . S
C2457 C2453 1.393 . S
C2457 C2456 1.391 . S
C2458 H2448 0.950 . S
C2458 C2459 1.386 . S
C2458 C2460 1.391 . S
C2459 C2458 1.386 . S
C2459 C2463 1.393 . S
C2460 H2449 0.950 . S
C2460 C2458 1.391 . S
C2460 C2461 1.400 . S
C2461 C2455 1.491 . S
C2461 C2460 1.400 . S
C2461 C2462 1.398 . S
C2462 H2450 0.950 . S
C2462 C2461 1.398 . S
C2462 C2463 1.391 . S
C2463 H2451 0.950 . S
C2463 C2459 1.393 . S
C2463 C2462 1.391 . S
H2464 C2472 0.950 . S
H2465 C2477 0.950 . S
H2466 C2474 0.950 . S
H2467 C2476 0.950 . S
H2468 C2478 0.950 . S
H2469 C2480 0.950 . S
H2470 C2482 0.950 . S
H2471 C2483 0.950 . S
C2472 H2464 0.950 . S
C2472 C2473 1.386 . S
C2472 C2474 1.391 . S
C2473 C2472 1.386 . S
C2473 C2477 1.393 1_554 S
C2474 H2466 0.950 . S
C2474 C2472 1.391 . S
C2474 C2475 1.400 1_554 S
C2475 C2474 1.400 1_556 S
C2475 C2476 1.398 . S
C2475 C2481 1.491 . S
C2476 H2467 0.950 . S
C2476 C2475 1.398 . S
C2476 C2477 1.391 . S
C2477 H2465 0.950 . S
C2477 C2473 1.393 1_556 S
C2477 C2476 1.391 . S
C2478 H2468 0.950 . S
C2478 C2479 1.386 . S
C2478 C2480 1.391 . S
C2479 C2478 1.386 . S
C2479 C2483 1.393 . S
C2480 H2469 0.950 . S
C2480 C2478 1.391 . S
C2480 C2481 1.400 . S
C2481 C2475 1.491 . S
C2481 C2480 1.400 . S
C2481 C2482 1.398 . S
C2482 H2470 0.950 . S
C2482 C2481 1.398 . S
C2482 C2483 1.391 . S
C2483 H2471 0.950 . S
C2483 C2479 1.393 . S
C2483 C2482 1.391 . S
H2484 C2492 0.950 . S
H2485 C2497 0.950 . S
H2486 C2494 0.950 . S
H2487 C2496 0.950 . S
H2488 C2498 0.950 . S
H2489 C2500 0.950 . S
H2490 C2502 0.950 . S
H2491 C2503 0.950 . S
C2492 H2484 0.950 . S
C2492 C2493 1.386 . S
C2492 C2494 1.391 . S
C2493 C2492 1.386 . S
C2493 C2497 1.393 . S
C2494 H2486 0.950 . S
C2494 C2492 1.391 . S
C2494 C2495 1.400 . S
C2495 C2494 1.400 . S
C2495 C2496 1.398 . S
C2495 C2501 1.491 . S
C2496 H2487 0.950 . S
C2496 C2495 1.398 . S
C2496 C2497 1.391 . S
C2497 H2485 0.950 . S
C2497 C2493 1.393 . S
C2497 C2496 1.391 . S
C2498 H2488 0.950 . S
C2498 C2499 1.386 . S
C2498 C2500 1.391 . S
C2499 C2498 1.386 . S
C2499 C2503 1.393 . S
C2500 H2489 0.950 . S
C2500 C2498 1.391 . S
C2500 C2501 1.400 . S
C2501 C2495 1.491 . S
C2501 C2500 1.400 . S
C2501 C2502 1.398 . S
C2502 H2490 0.950 . S
C2502 C2501 1.398 . S
C2502 C2503 1.391 . S
C2503 H2491 0.950 . S
C2503 C2499 1.393 . S
C2503 C2502 1.391 . S
H2504 C2512 0.950 . S
H2505 C2517 0.950 . S
H2506 C2514 0.950 . S
H2507 C2516 0.950 . S
H2508 C2518 0.950 . S
H2509 C2520 0.950 . S
H2510 C2522 0.950 . S
H2511 C2523 0.950 . S
C2512 H2504 0.950 . S
C2512 C2513 1.386 . S
C2512 C2514 1.391 . S
C2513 C2512 1.386 . S
C2513 C2517 1.393 . S
C2514 H2506 0.950 . S
C2514 C2512 1.391 . S
C2514 C2515 1.400 . S
C2515 C2514 1.400 . S
C2515 C2516 1.398 . S
C2515 C2521 1.491 . S
C2516 H2507 0.950 . S
C2516 C2515 1.398 . S
C2516 C2517 1.391 . S
C2517 H2505 0.950 . S
C2517 C2513 1.393 . S
C2517 C2516 1.391 . S
C2518 H2508 0.950 . S
C2518 C2519 1.386 . S
C2518 C2520 1.391 . S
C2519 C2518 1.386 . S
C2519 C2523 1.393 . S
C2520 H2509 0.950 . S
C2520 C2518 1.391 . S
C2520 C2521 1.400 . S
C2521 C2515 1.491 . S
C2521 C2520 1.400 . S
C2521 C2522 1.398 . S
C2522 H2510 0.950 . S
C2522 C2521 1.398 . S
C2522 C2523 1.391 . S
C2523 H2511 0.950 . S
C2523 C2519 1.393 . S
C2523 C2522 1.391 . S
H2524 C2532 0.950 . S
H2525 C2537 0.950 . S
H2526 C2534 0.950 . S
H2527 C2536 0.950 . S
H2528 C2538 0.950 . S
H2529 C2540 0.950 . S
H2530 C2542 0.950 . S
H2531 C2543 0.950 . S
C2532 H2524 0.950 . S
C2532 C2533 1.386 . S
C2532 C2534 1.391 . S
C2533 C2532 1.386 . S
C2533 C2537 1.393 . S
C2534 H2526 0.950 . S
C2534 C2532 1.391 . S
C2534 C2535 1.400 . S
C2535 C2534 1.400 . S
C2535 C2536 1.398 . S
C2535 C2541 1.491 . S
C2536 H2527 0.950 . S
C2536 C2535 1.398 . S
C2536 C2537 1.391 . S
C2537 H2525 0.950 . S
C2537 C2533 1.393 . S
C2537 C2536 1.391 . S
C2538 H2528 0.950 . S
C2538 C2539 1.386 . S
C2538 C2540 1.391 . S
C2539 C2538 1.386 . S
C2539 C2543 1.393 . S
C2540 H2529 0.950 . S
C2540 C2538 1.391 . S
C2540 C2541 1.400 . S
C2541 C2535 1.491 . S
C2541 C2540 1.400 . S
C2541 C2542 1.398 . S
C2542 H2530 0.950 . S
C2542 C2541 1.398 . S
C2542 C2543 1.391 . S
C2543 H2531 0.950 . S
C2543 C2539 1.393 . S
C2543 C2542 1.391 . S
H2544 C2552 0.950 . S
H2545 C2557 0.950 . S
H2546 C2554 0.950 . S
H2547 C2556 0.950 . S
H2548 C2558 0.950 . S
H2549 C2560 0.950 . S
H2550 C2562 0.950 . S
H2551 C2563 0.950 . S
C2552 H2544 0.950 . S
C2552 C2553 1.386 . S
C2552 C2554 1.391 . S
C2553 C2552 1.386 . S
C2553 C2557 1.393 . S
C2554 H2546 0.950 . S
C2554 C2552 1.391 . S
C2554 C2555 1.400 . S
C2555 C2554 1.400 . S
C2555 C2556 1.398 . S
C2555 C2561 1.491 . S
C2556 H2547 0.950 . S
C2556 C2555 1.398 . S
C2556 C2557 1.391 . S
C2557 H2545 0.950 . S
C2557 C2553 1.393 . S
C2557 C2556 1.391 . S
C2558 H2548 0.950 . S
C2558 C2559 1.386 . S
C2558 C2560 1.391 . S
C2559 C2558 1.386 . S
C2559 C2563 1.393 . S
C2560 H2549 0.950 . S
C2560 C2558 1.391 . S
C2560 C2561 1.400 . S
C2561 C2555 1.491 . S
C2561 C2560 1.400 . S
C2561 C2562 1.398 . S
C2562 H2550 0.950 . S
C2562 C2561 1.398 . S
C2562 C2563 1.391 . S
C2563 H2551 0.950 . S
C2563 C2559 1.393 . S
C2563 C2562 1.391 . S
H2564 C2572 0.950 . S
H2565 C2577 0.950 . S
H2566 C2574 0.950 . S
H2567 C2576 0.950 . S
H2568 C2578 0.950 . S
H2569 C2580 0.950 . S
H2570 C2582 0.950 . S
H2571 C2583 0.950 . S
C2572 H2564 0.950 . S
C2572 C2573 1.386 . S
C2572 C2574 1.391 . S
C2573 C2572 1.386 . S
C2573 C2577 1.393 . S
C2574 H2566 0.950 . S
C2574 C2572 1.391 . S
C2574 C2575 1.400 . S
C2575 C2574 1.400 . S
C2575 C2576 1.398 . S
C2575 C2581 1.491 . S
C2576 H2567 0.950 . S
C2576 C2575 1.398 . S
C2576 C2577 1.391 . S
C2577 H2565 0.950 . S
C2577 C2573 1.393 . S
C2577 C2576 1.391 . S
C2578 H2568 0.950 . S
C2578 C2579 1.386 . S
C2578 C2580 1.391 . S
C2579 C2578 1.386 . S
C2579 C2583 1.393 . S
C2580 H2569 0.950 . S
C2580 C2578 1.391 . S
C2580 C2581 1.400 . S
C2581 C2575 1.491 . S
C2581 C2580 1.400 . S
C2581 C2582 1.398 . S
C2582 H2570 0.950 . S
C2582 C2581 1.398 . S
C2582 C2583 1.391 . S
C2583 H2571 0.950 . S
C2583 C2579 1.393 . S
C2583 C2582 1.391 . S
H2584 C2592 0.950 . S
H2585 C2597 0.950 1_455 S
H2586 C2594 0.950 . S
H2587 C2596 0.950 . S
H2588 C2598 0.950 . S
H2589 C2600 0.950 . S
H2590 C2602 0.950 . S
H2591 C2603 0.950 . S
C2592 H2584 0.950 . S
C2592 C2593 1.386 . S
C2592 C2594 1.391 . S
C2593 C2592 1.386 . S
C2593 C2597 1.393 . S
C2594 H2586 0.950 . S
C2594 C2592 1.391 . S
C2594 C2595 1.400 . S
C2595 C2594 1.400 . S
C2595 C2596 1.398 . S
C2595 C2601 1.491 . S
C2596 H2587 0.950 . S
C2596 C2595 1.398 . S
C2596 C2597 1.391 . S
C2597 H2585 0.950 1_655 S
C2597 C2593 1.393 . S
C2597 C2596 1.391 . S
C2598 H2588 0.950 . S
C2598 C2599 1.386 . S
C2598 C2600 1.391 . S
C2599 C2598 1.386 . S
C2599 C2603 1.393 . S
C2600 H2589 0.950 . S
C2600 C2598 1.391 . S
C2600 C2601 1.400 . S
C2601 C2595 1.491 . S
C2601 C2600 1.400 . S
C2601 C2602 1.398 . S
C2602 H2590 0.950 . S
C2602 C2601 1.398 . S
C2602 C2603 1.391 . S
C2603 H2591 0.950 . S
C2603 C2599 1.393 . S
C2603 C2602 1.391 . S
H2604 C2612 0.950 . S
H2605 C2617 0.950 . S
H2606 C2614 0.950 . S
H2607 C2616 0.950 . S
H2608 C2618 0.950 1_655 S
H2609 C2620 0.950 1_655 S
H2610 C2622 0.950 . S
H2611 C2623 0.950 . S
C2612 H2604 0.950 . S
C2612 C2613 1.386 . S
C2612 C2614 1.391 . S
C2613 C2612 1.386 . S
C2613 C2617 1.393 . S
C2614 H2606 0.950 . S
C2614 C2612 1.391 . S
C2614 C2615 1.400 . S
C2615 C2614 1.400 . S
C2615 C2616 1.398 . S
C2615 C2621 1.491 . S
C2616 H2607 0.950 . S
C2616 C2615 1.398 . S
C2616 C2617 1.391 . S
C2617 H2605 0.950 . S
C2617 C2613 1.393 . S
C2617 C2616 1.391 . S
C2618 H2608 0.950 1_455 S
C2618 C2619 1.386 . S
C2618 C2620 1.391 . S
C2619 C2618 1.386 . S
C2619 C2623 1.393 . S
C2620 H2609 0.950 1_455 S
C2620 C2618 1.391 . S
C2620 C2621 1.400 . S
C2621 C2615 1.491 . S
C2621 C2620 1.400 . S
C2621 C2622 1.398 . S
C2622 H2610 0.950 . S
C2622 C2621 1.398 . S
C2622 C2623 1.391 . S
C2623 H2611 0.950 . S
C2623 C2619 1.393 . S
C2623 C2622 1.391 . S
H2624 C2632 0.950 . S
H2625 C2637 0.950 . S
H2626 C2634 0.950 . S
H2627 C2636 0.950 . S
H2628 C2638 0.950 . S
H2629 C2640 0.950 . S
H2630 C2642 0.950 . S
H2631 C2643 0.950 . S
C2632 H2624 0.950 . S
C2632 C2633 1.386 . S
C2632 C2634 1.391 . S
C2633 C2632 1.386 . S
C2633 C2637 1.393 . S
C2634 H2626 0.950 . S
C2634 C2632 1.391 . S
C2634 C2635 1.400 . S
C2635 C2634 1.400 . S
C2635 C2636 1.398 . S
C2635 C2641 1.491 . S
C2636 H2627 0.950 . S
C2636 C2635 1.398 . S
C2636 C2637 1.391 . S
C2637 H2625 0.950 . S
C2637 C2633 1.393 . S
C2637 C2636 1.391 . S
C2638 H2628 0.950 . S
C2638 C2639 1.386 . S
C2638 C2640 1.391 . S
C2639 C2638 1.386 . S
C2639 C2643 1.393 . S
C2640 H2629 0.950 . S
C2640 C2638 1.391 . S
C2640 C2641 1.400 . S
C2641 C2635 1.491 . S
C2641 C2640 1.400 . S
C2641 C2642 1.398 . S
C2642 H2630 0.950 . S
C2642 C2641 1.398 . S
C2642 C2643 1.391 . S
C2643 H2631 0.950 . S
C2643 C2639 1.393 . S
C2643 C2642 1.391 . S
H2644 C2652 0.950 . S
H2645 C2657 0.950 . S
H2646 C2654 0.950 . S
H2647 C2656 0.950 . S
H2648 C2658 0.950 . S
H2649 C2660 0.950 . S
H2650 C2662 0.950 . S
H2651 C2663 0.950 . S
C2652 H2644 0.950 . S
C2652 C2653 1.386 . S
C2652 C2654 1.391 . S
C2653 C2652 1.386 . S
C2653 C2657 1.393 . S
C2654 H2646 0.950 . S
C2654 C2652 1.391 . S
C2654 C2655 1.400 . S
C2655 C2654 1.400 . S
C2655 C2656 1.398 . S
C2655 C2661 1.491 . S
C2656 H2647 0.950 . S
C2656 C2655 1.398 . S
C2656 C2657 1.391 . S
C2657 H2645 0.950 . S
C2657 C2653 1.393 . S
C2657 C2656 1.391 . S
C2658 H2648 0.950 . S
C2658 C2659 1.386 . S
C2658 C2660 1.391 . S
C2659 C2658 1.386 . S
C2659 C2663 1.393 . S
C2660 H2649 0.950 . S
C2660 C2658 1.391 . S
C2660 C2661 1.400 . S
C2661 C2655 1.491 . S
C2661 C2660 1.400 . S
C2661 C2662 1.398 . S
C2662 H2650 0.950 . S
C2662 C2661 1.398 . S
C2662 C2663 1.391 . S
C2663 H2651 0.950 . S
C2663 C2659 1.393 . S
C2663 C2662 1.391 . S
H2664 C2672 0.950 . S
H2665 C2677 0.950 . S
H2666 C2674 0.950 . S
H2667 C2676 0.950 . S
H2668 C2678 0.950 . S
H2669 C2680 0.950 . S
H2670 C2682 0.950 . S
H2671 C2683 0.950 . S
C2672 H2664 0.950 . S
C2672 C2673 1.386 . S
C2672 C2674 1.391 . S
C2673 C2672 1.386 . S
C2673 C2677 1.393 . S
C2674 H2666 0.950 . S
C2674 C2672 1.391 . S
C2674 C2675 1.400 . S
C2675 C2674 1.400 . S
C2675 C2676 1.398 . S
C2675 C2681 1.491 . S
C2676 H2667 0.950 . S
C2676 C2675 1.398 . S
C2676 C2677 1.391 . S
C2677 H2665 0.950 . S
C2677 C2673 1.393 . S
C2677 C2676 1.391 . S
C2678 H2668 0.950 . S
C2678 C2679 1.386 . S
C2678 C2680 1.391 . S
C2679 C2678 1.386 . S
C2679 C2683 1.393 1_545 S
C2680 H2669 0.950 . S
C2680 C2678 1.391 . S
C2680 C2681 1.400 1_545 S
C2681 C2675 1.491 . S
C2681 C2680 1.400 1_565 S
C2681 C2682 1.398 . S
C2682 H2670 0.950 . S
C2682 C2681 1.398 . S
C2682 C2683 1.391 . S
C2683 H2671 0.950 . S
C2683 C2679 1.393 1_565 S
C2683 C2682 1.391 . S
H2684 C2692 0.950 . S
H2685 C2697 0.950 . S
H2686 C2694 0.950 . S
H2687 C2696 0.950 . S
H2688 C2698 0.946 . S
H2689 C2700 0.950 . S
H2690 C2702 0.950 . S
H2691 C2703 0.960 . S
C2692 H2684 0.950 . S
C2692 C2693 1.386 . S
C2692 C2694 1.391 . S
C2693 C2692 1.386 . S
C2693 C2697 1.393 . S
C2694 H2686 0.950 . S
C2694 C2692 1.391 . S
C2694 C2695 1.400 . S
C2695 C2694 1.400 . S
C2695 C2696 1.398 . S
C2695 C2701 1.491 . S
C2696 H2687 0.950 . S
C2696 C2695 1.398 . S
C2696 C2697 1.391 . S
C2697 H2685 0.950 . S
C2697 C2693 1.393 . S
C2697 C2696 1.391 . S
C2698 H2688 0.946 . S
C2698 C2699 1.386 1_455 S
C2698 C2700 1.391 . S
C2699 C2698 1.386 1_655 S
C2699 C2703 1.371 . S
C2700 H2689 0.950 . S
C2700 C2698 1.391 . S
C2700 C2701 1.400 . S
C2701 C2695 1.491 . S
C2701 C2700 1.400 . S
C2701 C2702 1.398 . S
C2702 H2690 0.950 . S
C2702 C2701 1.398 . S
C2702 C2703 1.407 1_455 S
C2703 H2691 0.960 . S
C2703 C2699 1.371 . S
C2703 C2702 1.407 1_655 S
H2704 C2712 0.950 . S
H2705 C2717 0.950 . S
H2706 C2714 0.950 . S
H2707 C2716 0.950 . S
H2708 C2718 0.950 . S
H2709 C2720 0.950 . S
H2710 C2722 0.950 . S
H2711 C2723 0.950 . S
C2712 H2704 0.950 . S
C2712 C2713 1.386 . S
C2712 C2714 1.391 . S
C2713 C2712 1.386 . S
C2713 C2717 1.393 . S
C2714 H2706 0.950 . S
C2714 C2712 1.391 . S
C2714 C2715 1.400 . S
C2715 C2714 1.400 . S
C2715 C2716 1.398 . S
C2715 C2721 1.491 . S
C2716 H2707 0.950 . S
C2716 C2715 1.398 . S
C2716 C2717 1.391 . S
C2717 H2705 0.950 . S
C2717 C2713 1.393 . S
C2717 C2716 1.391 . S
C2718 H2708 0.950 . S
C2718 C2719 1.386 . S
C2718 C2720 1.391 . S
C2719 C2718 1.386 . S
C2719 C2723 1.393 . S
C2720 H2709 0.950 . S
C2720 C2718 1.391 . S
C2720 C2721 1.400 . S
C2721 C2715 1.491 . S
C2721 C2720 1.400 . S
C2721 C2722 1.398 . S
C2722 H2710 0.950 . S
C2722 C2721 1.398 . S
C2722 C2723 1.391 . S
C2723 H2711 0.950 . S
C2723 C2719 1.393 . S
C2723 C2722 1.391 . S
H2724 C2732 0.950 . S
H2725 C2737 0.950 . S
H2726 C2734 0.950 . S
H2727 C2736 0.950 . S
H2728 C2738 0.950 . S
H2729 C2740 0.950 . S
H2730 C2742 0.950 . S
H2731 C2743 0.950 . S
C2732 H2724 0.950 . S
C2732 C2733 1.386 . S
C2732 C2734 1.391 . S
C2733 C2732 1.386 . S
C2733 C2737 1.393 . S
C2734 H2726 0.950 . S
C2734 C2732 1.391 . S
C2734 C2735 1.400 . S
C2735 C2734 1.400 . S
C2735 C2736 1.398 . S
C2735 C2741 1.491 . S
C2736 H2727 0.950 . S
C2736 C2735 1.398 . S
C2736 C2737 1.391 . S
C2737 H2725 0.950 . S
C2737 C2733 1.393 . S
C2737 C2736 1.391 . S
C2738 H2728 0.950 . S
C2738 C2739 1.386 . S
C2738 C2740 1.391 . S
C2739 C2738 1.386 . S
C2739 C2743 1.393 . S
C2740 H2729 0.950 . S
C2740 C2738 1.391 . S
C2740 C2741 1.400 . S
C2741 C2735 1.491 . S
C2741 C2740 1.400 . S
C2741 C2742 1.398 . S
C2742 H2730 0.950 . S
C2742 C2741 1.398 . S
C2742 C2743 1.391 . S
C2743 H2731 0.950 . S
C2743 C2739 1.393 . S
C2743 C2742 1.391 . S
H2744 C2752 0.950 . S
H2745 C2757 0.950 . S
H2746 C2754 0.950 . S
H2747 C2756 0.950 . S
H2748 C2758 0.950 . S
H2749 C2760 0.950 . S
H2750 C2762 0.950 . S
H2751 C2763 0.950 . S
C2752 H2744 0.950 . S
C2752 C2753 1.386 . S
C2752 C2754 1.391 . S
C2753 C2752 1.386 . S
C2753 C2757 1.393 . S
C2754 H2746 0.950 . S
C2754 C2752 1.391 . S
C2754 C2755 1.400 . S
C2755 C2754 1.400 . S
C2755 C2756 1.398 . S
C2755 C2761 1.491 . S
C2756 H2747 0.950 . S
C2756 C2755 1.398 . S
C2756 C2757 1.391 . S
C2757 H2745 0.950 . S
C2757 C2753 1.393 . S
C2757 C2756 1.391 . S
C2758 H2748 0.950 . S
C2758 C2759 1.386 . S
C2758 C2760 1.391 . S
C2759 C2758 1.386 . S
C2759 C2763 1.393 . S
C2760 H2749 0.950 . S
C2760 C2758 1.391 . S
C2760 C2761 1.400 . S
C2761 C2755 1.491 . S
C2761 C2760 1.400 . S
C2761 C2762 1.398 . S
C2762 H2750 0.950 . S
C2762 C2761 1.398 . S
C2762 C2763 1.391 . S
C2763 H2751 0.950 . S
C2763 C2759 1.393 . S
C2763 C2762 1.391 . S
H2764 C2772 0.950 . S
H2765 C2777 0.950 . S
H2766 C2774 0.950 . S
H2767 C2776 0.950 . S
H2768 C2778 0.950 . S
H2769 C2780 0.950 . S
H2770 C2782 0.950 . S
H2771 C2783 0.950 . S
C2772 H2764 0.950 . S
C2772 C2773 1.386 . S
C2772 C2774 1.391 . S
C2773 C2772 1.386 . S
C2773 C2777 1.393 . S
C2774 H2766 0.950 . S
C2774 C2772 1.391 . S
C2774 C2775 1.400 . S
C2775 C2774 1.400 . S
C2775 C2776 1.398 . S
C2775 C2781 1.491 . S
C2776 H2767 0.950 . S
C2776 C2775 1.398 . S
C2776 C2777 1.391 . S
C2777 H2765 0.950 . S
C2777 C2773 1.393 . S
C2777 C2776 1.391 . S
C2778 H2768 0.950 . S
C2778 C2779 1.386 . S
C2778 C2780 1.391 . S
C2779 C2778 1.386 . S
C2779 C2783 1.393 . S
C2780 H2769 0.950 . S
C2780 C2778 1.391 . S
C2780 C2781 1.400 . S
C2781 C2775 1.491 . S
C2781 C2780 1.400 . S
C2781 C2782 1.398 . S
C2782 H2770 0.950 . S
C2782 C2781 1.398 . S
C2782 C2783 1.391 . S
C2783 H2771 0.950 . S
C2783 C2779 1.393 . S
C2783 C2782 1.391 . S
H2784 C2792 0.950 . S
H2785 C2797 0.950 . S
H2786 C2794 0.950 . S
H2787 C2796 0.950 . S
H2788 C2798 0.950 . S
H2789 C2800 0.950 . S
H2790 C2802 0.950 . S
H2791 C2803 0.990 . S
C2792 H2784 0.950 . S
C2792 C2793 1.386 . S
C2792 C2794 1.391 . S
C2793 C2792 1.386 . S
C2793 C2797 1.393 . S
C2794 H2786 0.950 . S
C2794 C2792 1.391 . S
C2794 C2795 1.400 . S
C2795 C2794 1.400 . S
C2795 C2796 1.398 . S
C2795 C2801 1.491 . S
C2796 H2787 0.950 . S
C2796 C2795 1.398 . S
C2796 C2797 1.391 . S
C2797 H2785 0.950 . S
C2797 C2793 1.393 . S
C2797 C2796 1.391 . S
C2798 H2788 0.950 . S
C2798 C2799 1.386 . S
C2798 C2800 1.391 . S
C2799 C2798 1.386 . S
C2799 C2803 1.393 . S
C2800 H2789 0.950 . S
C2800 C2798 1.391 . S
C2800 C2801 1.400 . S
C2801 C2795 1.491 . S
C2801 C2800 1.400 . S
C2801 C2802 1.398 . S
C2802 H2790 0.950 . S
C2802 C2801 1.398 . S
C2802 C2803 1.391 . S
C2803 H2791 0.990 . S
C2803 C2799 1.393 . S
C2803 C2802 1.391 . S
H2804 C2812 0.950 . S
H2805 C2817 0.950 . S
H2806 C2814 0.950 . S
H2807 C2816 0.950 . S
H2808 C2818 0.950 . S
H2809 C2820 0.950 . S
H2810 C2822 0.950 . S
H2811 C2823 0.950 . S
C2812 H2804 0.950 . S
C2812 C2813 1.386 . S
C2812 C2814 1.391 . S
C2813 C2812 1.386 . S
C2813 C2817 1.393 . S
C2814 H2806 0.950 . S
C2814 C2812 1.391 . S
C2814 C2815 1.400 . S
C2815 C2814 1.400 . S
C2815 C2816 1.398 . S
C2815 C2821 1.491 . S
C2816 H2807 0.950 . S
C2816 C2815 1.398 . S
C2816 C2817 1.391 . S
C2817 H2805 0.950 . S
C2817 C2813 1.393 . S
C2817 C2816 1.391 . S
C2818 H2808 0.950 . S
C2818 C2819 1.386 . S
C2818 C2820 1.391 . S
C2819 C2818 1.386 . S
C2819 C2823 1.393 . S
C2820 H2809 0.950 . S
C2820 C2818 1.391 . S
C2820 C2821 1.400 . S
C2821 C2815 1.491 . S
C2821 C2820 1.400 . S
C2821 C2822 1.398 . S
C2822 H2810 0.950 . S
C2822 C2821 1.398 . S
C2822 C2823 1.391 . S
C2823 H2811 0.950 . S
C2823 C2819 1.393 . S
C2823 C2822 1.391 . S
H2824 C2832 0.950 . S
H2825 C2837 0.950 . S
H2826 C2834 0.950 . S
H2827 C2836 0.950 . S
H2828 C2838 0.950 . S
H2829 C2840 0.950 . S
H2830 C2842 0.950 . S
H2831 C2843 0.950 . S
C2832 H2824 0.950 . S
C2832 C2833 1.386 . S
C2832 C2834 1.391 . S
C2833 C2832 1.386 . S
C2833 C2837 1.393 . S
C2834 H2826 0.950 . S
C2834 C2832 1.391 . S
C2834 C2835 1.400 . S
C2835 C2834 1.400 . S
C2835 C2836 1.398 . S
C2835 C2841 1.491 . S
C2836 H2827 0.950 . S
C2836 C2835 1.398 . S
C2836 C2837 1.391 . S
C2837 H2825 0.950 . S
C2837 C2833 1.393 . S
C2837 C2836 1.391 . S
C2838 H2828 0.950 . S
C2838 C2839 1.386 . S
C2838 C2840 1.391 . S
C2839 C2838 1.386 . S
C2839 C2843 1.393 . S
C2840 H2829 0.950 . S
C2840 C2838 1.391 . S
C2840 C2841 1.400 . S
C2841 C2835 1.491 . S
C2841 C2840 1.400 . S
C2841 C2842 1.398 . S
C2842 H2830 0.950 . S
C2842 C2841 1.398 . S
C2842 C2843 1.391 . S
C2843 H2831 0.950 . S
C2843 C2839 1.393 . S
C2843 C2842 1.391 . S
H2844 C2852 0.950 . S
H2845 C2857 0.950 . S
H2846 C2854 0.950 . S
H2847 C2856 0.950 . S
H2848 C2858 0.950 . S
H2849 C2860 0.950 . S
H2850 C2862 0.950 . S
H2851 C2863 0.950 . S
C2852 H2844 0.950 . S
C2852 C2853 1.386 . S
C2852 C2854 1.391 . S
C2853 C2852 1.386 . S
C2853 C2857 1.393 . S
C2854 H2846 0.950 . S
C2854 C2852 1.391 . S
C2854 C2855 1.400 . S
C2855 C2854 1.400 . S
C2855 C2856 1.398 . S
C2855 C2861 1.491 . S
C2856 H2847 0.950 . S
C2856 C2855 1.398 . S
C2856 C2857 1.391 . S
C2857 H2845 0.950 . S
C2857 C2853 1.393 . S
C2857 C2856 1.391 . S
C2858 H2848 0.950 . S
C2858 C2859 1.386 . S
C2858 C2860 1.391 . S
C2859 C2858 1.386 . S
C2859 C2863 1.393 . S
C2860 H2849 0.950 . S
C2860 C2858 1.391 . S
C2860 C2861 1.400 . S
C2861 C2855 1.491 . S
C2861 C2860 1.400 . S
C2861 C2862 1.398 . S
C2862 H2850 0.950 . S
C2862 C2861 1.398 . S
C2862 C2863 1.391 . S
C2863 H2851 0.950 . S
C2863 C2859 1.393 . S
C2863 C2862 1.391 . S
H2864 C2872 0.950 . S
H2865 C2877 0.950 . S
H2866 C2874 0.950 . S
H2867 C2876 0.950 . S
H2868 C2878 0.950 . S
H2869 C2880 0.950 . S
H2870 C2882 0.950 . S
H2871 C2883 0.950 . S
C2872 H2864 0.950 . S
C2872 C2873 1.386 . S
C2872 C2874 1.391 . S
C2873 C2872 1.386 . S
C2873 C2877 1.393 . S
C2874 H2866 0.950 . S
C2874 C2872 1.391 . S
C2874 C2875 1.400 . S
C2875 C2874 1.400 . S
C2875 C2876 1.398 . S
C2875 C2881 1.491 . S
C2876 H2867 0.950 . S
C2876 C2875 1.398 . S
C2876 C2877 1.391 . S
C2877 H2865 0.950 . S
C2877 C2873 1.393 . S
C2877 C2876 1.391 . S
C2878 H2868 0.950 . S
C2878 C2879 1.386 . S
C2878 C2880 1.391 . S
C2879 C2878 1.386 . S
C2879 C2883 1.393 . S
C2880 H2869 0.950 . S
C2880 C2878 1.391 . S
C2880 C2881 1.400 . S
C2881 C2875 1.491 . S
C2881 C2880 1.400 . S
C2881 C2882 1.398 . S
C2882 H2870 0.950 . S
C2882 C2881 1.398 . S
C2882 C2883 1.391 . S
C2883 H2871 0.950 . S
C2883 C2879 1.393 . S
C2883 C2882 1.391 . S
H2884 C2892 0.950 . S
H2885 C2897 0.950 . S
H2886 C2894 0.950 . S
H2887 C2896 0.950 . S
H2888 C2898 0.950 . S
H2889 C2900 0.950 . S
H2890 C2902 0.950 . S
H2891 C2903 0.950 . S
C2892 H2884 0.950 . S
C2892 C2893 1.386 . S
C2892 C2894 1.391 . S
C2893 C2892 1.386 . S
C2893 C2897 1.393 . S
C2894 H2886 0.950 . S
C2894 C2892 1.391 . S
C2894 C2895 1.400 . S
C2895 C2894 1.400 . S
C2895 C2896 1.398 . S
C2895 C2901 1.491 . S
C2896 H2887 0.950 . S
C2896 C2895 1.398 . S
C2896 C2897 1.391 . S
C2897 H2885 0.950 . S
C2897 C2893 1.393 . S
C2897 C2896 1.391 . S
C2898 H2888 0.950 . S
C2898 C2899 1.386 . S
C2898 C2900 1.391 . S
C2899 C2898 1.386 . S
C2899 C2903 1.393 . S
C2900 H2889 0.950 . S
C2900 C2898 1.391 . S
C2900 C2901 1.400 . S
C2901 C2895 1.491 . S
C2901 C2900 1.400 . S
C2901 C2902 1.398 . S
C2902 H2890 0.950 . S
C2902 C2901 1.398 . S
C2902 C2903 1.391 . S
C2903 H2891 0.950 . S
C2903 C2899 1.393 . S
C2903 C2902 1.391 . S
H2904 C2912 0.950 . S
H2905 C2917 0.950 . S
H2906 C2914 0.950 . S
H2907 C2916 0.950 . S
H2908 C2918 0.950 . S
H2909 C2920 0.950 . S
H2910 C2922 0.950 . S
H2911 C2923 0.950 . S
C2912 H2904 0.950 . S
C2912 C2913 1.386 . S
C2912 C2914 1.391 . S
C2913 C2912 1.386 . S
C2913 C2917 1.393 . S
C2914 H2906 0.950 . S
C2914 C2912 1.391 . S
C2914 C2915 1.400 . S
C2915 C2914 1.400 . S
C2915 C2916 1.398 . S
C2915 C2921 1.491 . S
C2916 H2907 0.950 . S
C2916 C2915 1.398 . S
C2916 C2917 1.391 . S
C2917 H2905 0.950 . S
C2917 C2913 1.393 . S
C2917 C2916 1.391 . S
C2918 H2908 0.950 . S
C2918 C2919 1.386 . S
C2918 C2920 1.391 . S
C2919 C2918 1.386 . S
C2919 C2923 1.393 . S
C2920 H2909 0.950 . S
C2920 C2918 1.391 . S
C2920 C2921 1.400 . S
C2921 C2915 1.491 . S
C2921 C2920 1.400 . S
C2921 C2922 1.398 . S
C2922 H2910 0.950 . S
C2922 C2921 1.398 . S
C2922 C2923 1.391 . S
C2923 H2911 0.950 . S
C2923 C2919 1.393 . S
C2923 C2922 1.391 . S
H2924 C2932 0.950 . S
H2925 C2937 0.950 . S
H2926 C2934 0.950 . S
H2927 C2936 0.950 . S
H2928 C2938 0.950 . S
H2929 C2940 0.950 . S
H2930 C2942 0.950 . S
H2931 C2943 0.950 . S
C2932 H2924 0.950 . S
C2932 C2933 1.386 . S
C2932 C2934 1.391 . S
C2933 C2932 1.386 . S
C2933 C2937 1.393 . S
C2934 H2926 0.950 . S
C2934 C2932 1.391 . S
C2934 C2935 1.400 . S
C2935 C2934 1.400 . S
C2935 C2936 1.398 . S
C2935 C2941 1.491 . S
C2936 H2927 0.950 . S
C2936 C2935 1.398 . S
C2936 C2937 1.391 . S
C2937 H2925 0.950 . S
C2937 C2933 1.393 . S
C2937 C2936 1.391 . S
C2938 H2928 0.950 . S
C2938 C2939 1.386 . S
C2938 C2940 1.391 . S
C2939 C2938 1.386 . S
C2939 C2943 1.393 . S
C2940 H2929 0.950 . S
C2940 C2938 1.391 . S
C2940 C2941 1.400 . S
C2941 C2935 1.491 . S
C2941 C2940 1.400 . S
C2941 C2942 1.398 . S
C2942 H2930 0.950 . S
C2942 C2941 1.398 . S
C2942 C2943 1.391 . S
C2943 H2931 0.950 . S
C2943 C2939 1.393 . S
C2943 C2942 1.391 . S
H2944 C2952 0.950 . S
H2945 C2957 0.950 . S
H2946 C2954 0.950 . S
H2947 C2956 0.950 . S
H2948 C2958 0.950 . S
H2949 C2960 0.950 . S
H2950 C2962 0.950 . S
H2951 C2963 0.950 . S
C2952 H2944 0.950 . S
C2952 C2953 1.386 . S
C2952 C2954 1.391 . S
C2953 C2952 1.386 . S
C2953 C2957 1.393 . S
C2954 H2946 0.950 . S
C2954 C2952 1.391 . S
C2954 C2955 1.400 . S
C2955 C2954 1.400 . S
C2955 C2956 1.398 . S
C2955 C2961 1.491 . S
C2956 H2947 0.950 . S
C2956 C2955 1.398 . S
C2956 C2957 1.391 . S
C2957 H2945 0.950 . S
C2957 C2953 1.393 . S
C2957 C2956 1.391 . S
C2958 H2948 0.950 . S
C2958 C2959 1.386 . S
C2958 C2960 1.391 . S
C2959 C2958 1.386 . S
C2959 C2963 1.393 . S
C2960 H2949 0.950 . S
C2960 C2958 1.391 . S
C2960 C2961 1.400 . S
C2961 C2955 1.491 . S
C2961 C2960 1.400 . S
C2961 C2962 1.398 . S
C2962 H2950 0.950 . S
C2962 C2961 1.398 . S
C2962 C2963 1.391 . S
C2963 H2951 0.950 . S
C2963 C2959 1.393 . S
C2963 C2962 1.391 . S
H2964 C2972 0.950 . S
H2965 C2977 0.950 . S
H2966 C2974 0.912 1_455 S
H2967 C2976 0.950 . S
H2968 C2978 0.950 . S
H2969 C2980 0.950 . S
H2970 C2982 0.950 . S
H2971 C2983 0.950 . S
C2972 H2964 0.950 . S
C2972 C2973 1.386 . S
C2972 C2974 1.391 . S
C2973 C2972 1.386 . S
C2973 C2977 1.393 . S
C2974 H2966 0.912 1_655 S
C2974 C2972 1.391 . S
C2974 C2975 1.400 . S
C2975 C2974 1.400 . S
C2975 C2976 1.398 . S
C2975 C2981 1.491 . S
C2976 H2967 0.950 . S
C2976 C2975 1.398 . S
C2976 C2977 1.391 . S
C2977 H2965 0.950 . S
C2977 C2973 1.393 . S
C2977 C2976 1.391 . S
C2978 H2968 0.950 . S
C2978 C2979 1.386 . S
C2978 C2980 1.391 . S
C2979 C2978 1.386 . S
C2979 C2983 1.393 1_655 S
C2980 H2969 0.950 . S
C2980 C2978 1.391 . S
C2980 C2981 1.400 . S
C2981 C2975 1.491 . S
C2981 C2980 1.400 . S
C2981 C2982 1.398 1_655 S
C2982 H2970 0.950 . S
C2982 C2981 1.398 1_455 S
C2982 C2983 1.391 . S
C2983 H2971 0.950 . S
C2983 C2979 1.393 1_455 S
C2983 C2982 1.391 . S
H2984 C2992 0.950 . S
H2985 C2997 0.950 . S
H2986 C2994 0.950 . S
H2987 C2996 0.950 . S
H2988 C2998 0.950 . S
H2989 C3000 0.950 . S
H2990 C3002 0.950 . S
H2991 C3003 0.950 . S
C2992 H2984 0.950 . S
C2992 C2993 1.386 . S
C2992 C2994 1.391 . S
C2993 C2992 1.386 . S
C2993 C2997 1.393 . S
C2994 H2986 0.950 . S
C2994 C2992 1.391 . S
C2994 C2995 1.400 . S
C2995 C2994 1.400 . S
C2995 C2996 1.398 . S
C2995 C3001 1.491 . S
C2996 H2987 0.950 . S
C2996 C2995 1.398 . S
C2996 C2997 1.391 . S
C2997 H2985 0.950 . S
C2997 C2993 1.393 . S
C2997 C2996 1.391 . S
C2998 H2988 0.950 . S
C2998 C2999 1.386 . S
C2998 C3000 1.391 . S
C2999 C2998 1.386 . S
C2999 C3003 1.393 . S
C3000 H2989 0.950 . S
C3000 C2998 1.391 . S
C3000 C3001 1.400 . S
C3001 C2995 1.491 . S
C3001 C3000 1.400 . S
C3001 C3002 1.398 . S
C3002 H2990 0.950 . S
C3002 C3001 1.398 . S
C3002 C3003 1.391 . S
C3003 H2991 0.950 . S
C3003 C2999 1.393 . S
C3003 C3002 1.391 . S
H3004 C3012 0.950 . S
H3005 C3017 0.950 . S
H3006 C3014 0.950 . S
H3007 C3016 0.950 . S
H3008 C3018 0.950 . S
H3009 C3020 0.950 . S
H3010 C3022 0.950 1_565 S
H3011 C3023 0.950 . S
C3012 H3004 0.950 . S
C3012 C3013 1.386 . S
C3012 C3014 1.391 . S
C3013 C3012 1.386 . S
C3013 C3017 1.393 . S
C3014 H3006 0.950 . S
C3014 C3012 1.391 . S
C3014 C3015 1.400 . S
C3015 C3014 1.400 . S
C3015 C3016 1.398 . S
C3015 C3021 1.491 . S
C3016 H3007 0.950 . S
C3016 C3015 1.398 . S
C3016 C3017 1.391 . S
C3017 H3005 0.950 . S
C3017 C3013 1.393 . S
C3017 C3016 1.391 . S
C3018 H3008 0.950 . S
C3018 C3019 1.386 . S
C3018 C3020 1.391 . S
C3019 C3018 1.386 . S
C3019 C3023 1.393 1_545 S
C3020 H3009 0.950 . S
C3020 C3018 1.391 . S
C3020 C3021 1.400 . S
C3021 C3015 1.491 . S
C3021 C3020 1.400 . S
C3021 C3022 1.398 . S
C3022 H3010 0.950 1_545 S
C3022 C3021 1.398 . S
C3022 C3023 1.391 1_545 S
C3023 H3011 0.950 . S
C3023 C3019 1.393 1_565 S
C3023 C3022 1.391 1_565 S
C1593 C8 1.164 1_655 S
C1599 C981 1.120 . S
C1613 C22 1.577 . S
C1619 C1061 1.570 . S
C1639 C1129 1.374 . S
C1633 C37 1.412 1_545 S
C1653 C36 1.759 1_565 S
C1659 C1209 1.763 . S
C1673 C9 1.495 1_455 S
C1679 C1283 1.503 . S
C1693 C23 1.631 . S
C1699 C1351 1.537 . S
C1713 C50 1.108 1_455 S
C1719 C1277 1.042 1_655 S
C1739 C1357 1.484 . S
C1733 C64 1.445 . S
C1759 C1203 1.332 . S
C1753 C79 1.343 1_565 S
C1773 C78 1.689 . S
C1779 C1135 1.731 . S
C1799 C987 1.476 . S
C1793 C51 1.434 1_655 S
C1813 C65 1.451 . S
C1819 C1055 1.456 . S
C1833 C92 1.395 . S
C1839 C1425 1.303 . S
C1853 C106 1.622 . S
C1859 C1505 1.608 . S
C1879 C1573 1.515 . S
C1873 C121 1.596 . S
C1893 C120 1.878 . S
C1899 C321 1.858 . S
C1913 C93 1.645 . S
C1919 C395 1.627 . S
C1933 C107 1.646 . S
C1939 C463 1.582 . S
C1953 C134 1.125 . S
C1959 C389 1.080 . S
C1973 C148 1.497 . S
C1979 C469 1.513 . S
C1999 C315 1.403 . S
C1993 C163 1.420 . S
C2019 C1579 1.859 . S
C2013 C162 1.834 . S
C2039 C1431 1.520 . S
C2033 C135 1.500 . S
C2059 C1499 1.506 . S
C2053 C149 1.501 . S
C2073 C176 1.305 . S
C2079 C537 1.234 . S
C2093 C190 1.624 . S
C2099 C617 1.613 . S
C2113 C205 1.593 . S
C2119 C685 1.508 . S
C2133 C204 1.961 . S
C2139 C765 1.947 . S
C2159 C839 1.606 . S
C2153 C177 1.649 . S
C2179 C907 1.620 . S
C2173 C191 1.685 . S
C2199 C833 1.173 . S
C2193 C218 1.225 . S
C2219 C913 1.507 . S
C2213 C232 1.482 . S
C2233 C247 1.412 . S
C2239 C759 1.407 . S
C2259 C691 1.782 . S
C2253 C246 1.736 . S
C2273 C219 1.518 . S
C2279 C543 1.532 . S
C2299 C611 1.463 . S
C2293 C233 1.455 . S
C2319 C291 1.917 . S
C2313 C6 1.966 . S
C2333 C20 1.448 . S
C2339 C365 1.438 . S
C2359 C451 1.475 . S
C2353 C35 1.468 . S
C2379 C525 1.191 . S
C2373 C34 1.175 . S
C2399 C587 1.582 . S
C2393 C7 1.593 . S
C2419 C673 1.522 . S
C2413 C21 1.525 . S
C2433 C48 2.108 1_556 S
C2439 C661 2.022 . S
C2453 C62 1.598 . S
C2459 C513 1.546 . S
C2473 C77 1.661 . S
C2479 C599 1.605 . S
C2493 C76 1.385 . S
C2499 C377 1.354 . S
C2519 C439 1.675 . S
C2513 C49 1.769 . S
C2533 C63 1.708 . S
C2539 C303 1.663 . S
C2559 C735 1.893 . S
C2553 C90 1.930 . S
C2573 C104 1.492 1_545 S
C2579 C809 1.555 . S
C2593 C119 1.474 1_655 S
C2599 C895 1.494 . S
C2619 C969 1.116 . S
C2613 C118 1.097 . S
C2633 C91 1.549 . S
C2639 C1031 1.561 . S
C2653 C105 1.442 . S
C2659 C1117 1.478 . S
C2673 C132 1.909 . S
C2679 C1105 1.864 . S
C2693 C146 1.470 . S
C2699 C957 1.472 . S
C2719 C1043 1.581 . S
C2713 C161 1.602 . S
C2733 C160 1.377 . S
C2739 C821 1.347 . S
C2753 C133 1.771 . S
C2759 C883 1.728 . S
C2779 C747 1.721 . S
C2773 C147 1.770 . S
C2799 C1179 1.830 . S
C2793 C174 1.837 . S
C2813 C188 1.403 . S
C2819 C1253 1.418 . S
C2833 C203 1.427 . S
C2839 C1339 1.447 . S
C2859 C1413 1.186 . S
C2853 C202 1.172 . S
C2879 C1475 1.617 . S
C2873 C175 1.618 . S
C2893 C189 1.583 . S
C2899 C1561 1.588 . S
C2913 C216 2.078 . S
C2919 C1549 1.995 . S
C2933 C230 1.662 1_565 S
C2939 C1401 1.639 . S
C2959 C1487 1.617 . S
C2953 C245 1.655 1_455 S
C2979 C1265 1.188 . S
C2973 C244 1.180 . S
C2999 C1327 1.664 . S
C2993 C217 1.709 . S
C3013 C231 1.545 . S
C3019 C1191 1.532 1_545 S
