# Generated by pormake.
# Topology rtl, (3,6)-cn, num edge types: 1
# Building blocks:
#     Node 0, Type 0, BuildingBlock: BETDIP_clean_linker_0, # of connection points: 3
#     Node 1, Type 0, BuildingBlock: BETDIP_clean_linker_0, # of connection points: 3
#     Node 2, Type 0, BuildingBlock: BETDIP_clean_linker_0, # of connection points: 3
#     Node 3, Type 0, BuildingBlock: BETDIP_clean_linker_0, # of connection points: 3
#     Node 4, Type 1, BuildingBlock: LEVNOQ01_clean_sbu_1, # of connection points: 6
#     Node 5, Type 1, BuildingBlock: LEVNOQ01_clean_sbu_1, # of connection points: 6
#     Edge 6, Type (0, 1), BuildingBlock: FUNLAD_clean_linker_1, # of connection points: 2
#     Edge 7, Type (0, 1), BuildingBlock: FUNLAD_clean_linker_1, # of connection points: 2
#     Edge 8, Type (0, 1), BuildingBlock: FUNLAD_clean_linker_1, # of connection points: 2
#     Edge 9, Type (0, 1), BuildingBlock: FUNLAD_clean_linker_1, # of connection points: 2
#     Edge 10, Type (0, 1), BuildingBlock: FUNLAD_clean_linker_1, # of connection points: 2
#     Edge 11, Type (0, 1), BuildingBlock: FUNLAD_clean_linker_1, # of connection points: 2
#     Edge 12, Type (0, 1), BuildingBlock: FUNLAD_clean_linker_1, # of connection points: 2
#     Edge 13, Type (0, 1), BuildingBlock: FUNLAD_clean_linker_1, # of connection points: 2
#     Edge 14, Type (0, 1), BuildingBlock: FUNLAD_clean_linker_1, # of connection points: 2
#     Edge 15, Type (0, 1), BuildingBlock: FUNLAD_clean_linker_1, # of connection points: 2
#     Edge 16, Type (0, 1), BuildingBlock: FUNLAD_clean_linker_1, # of connection points: 2
#     Edge 17, Type (0, 1), BuildingBlock: FUNLAD_clean_linker_1, # of connection points: 2
# Relax obj value: 0.017
# Max RMSD: 0.117
# Mean RMSD: 0.089
data_MOF--net-rtl--node1-LEVNOQ01_clean_sbu_1--node2-BETDIP_clean_linker_0--edge1-FUNLAD_clean_linker_1
_symmetry_space_group_name_H-M    P1
_symmetry_Int_Tables_number       1
_symmetry_cell_setting            triclinic
loop_
_symmetry_equiv_pos_as_xyz
'x, y, z'
_cell_length_a     37.447031
_cell_length_b     37.208721
_cell_length_c     23.089233
_cell_angle_alpha  90.894538
_cell_angle_beta   98.160984
_cell_angle_gamma 89.427319
loop_
_atom_site_label
_atom_site_type_symbol
_atom_site_fract_x
_atom_site_fract_y
_atom_site_fract_z
_atom_type_partial_charge
H0 H 0.21449 0.8163 1.00121 0.0
H1 H 0.22368 0.83019 0.18846 0.0
H2 H 0.15319 0.89894 0.07493 0.0
H3 H 0.26829 0.78898 0.19253 0.0
C4 C 0.26947 0.77752 0.14934 0.0
C5 C 0.20673 0.83022 0.03917 0.0
C6 C 0.18133 0.85815 0.03143 0.0
C7 C 0.22213 0.81968 0.0953 0.0
C8 C 0.21208 0.83779 0.14478 0.0
C9 C 0.18717 0.86661 0.13733 0.0
C10 C 0.1721 0.87656 0.08067 0.0
N11 N 0.24747 0.79079 0.09885 0.0
H12 H 0.68984 0.73792 0.69 0.0
H13 H 0.68262 0.73919 0.50257 0.0
H14 H 0.619 0.66477 0.58356 0.0
H15 H 0.73565 0.77714 0.68991 0.0
C16 C 0.73794 0.78452 0.64531 0.0
C17 C 0.67865 0.72735 0.64759 0.0
C18 C 0.65296 0.69947 0.64311 0.0
C19 C 0.68917 0.74175 0.59632 0.0
C20 C 0.67373 0.72843 0.5414 0.0
C21 C 0.64842 0.70067 0.53651 0.0
C22 C 0.63846 0.68641 0.58744 0.0
N23 N 0.71532 0.76927 0.59671 0.0
H24 H 0.78096 0.20481 0.88616 0.0
H25 H 0.802 0.20597 0.07427 0.0
H26 H 0.85197 0.12588 0.97577 0.0
H27 H 0.74343 0.24946 0.89477 0.0
C28 C 0.74248 0.25633 0.94034 0.0
C29 C 0.79442 0.19394 0.92668 0.0
C30 C 0.81799 0.1645 0.92419 0.0
C31 C 0.78882 0.20913 0.98103 0.0
C32 C 0.80708 0.19458 0.03273 0.0
C33 C 0.83023 0.16474 0.03111 0.0
C34 C 0.8351 0.14963 0.97675 0.0
N35 N 0.76469 0.23845 0.98635 0.0
H36 H 0.30022 0.30538 0.39742 0.0
H37 H 0.30396 0.31031 0.58441 0.0
H38 H 0.37362 0.37732 0.50105 0.0
H39 H 0.2538 0.26926 0.397 0.0
C40 C 0.25231 0.26024 0.44103 0.0
C41 C 0.31104 0.31662 0.43964 0.0
C42 C 0.33748 0.34347 0.4424 0.0
C43 C 0.29882 0.30459 0.49088 0.0
C44 C 0.3135 0.31947 0.54501 0.0
C45 C 0.34075 0.34531 0.54917 0.0
C46 C 0.35271 0.35725 0.4977 0.0
N47 N 0.27253 0.27715 0.49069 0.0
O48 O 0.00665 0.08227 0.65051 0.0
Mg49 Mg 0.04973 0.05514 0.62049 0.0
O50 O 0.96902 0.04668 0.59466 0.0
Mg51 Mg 0.00222 0.01207 0.53371 0.0
O52 O 0.04962 0.05386 0.53166 0.0
O53 O 0.08688 0.08747 0.59505 0.0
O54 O 0.03586 0.97692 0.47274 0.0
O55 O 0.97335 0.04702 0.45618 0.0
Mg56 Mg 0.95609 0.96676 0.44648 0.0
O57 O 0.95408 0.9715 0.53477 0.0
O58 O -0.0004 0.93631 0.42567 0.0
O59 O 0.93938 0.01132 0.39459 0.0
O60 O 0.9161 0.93799 0.47262 0.0
C61 C 0.05588 0.98032 0.65522 0.0
C62 C 0.97498 0.07154 0.63354 0.0
C63 C 0.07578 0.0771 0.54197 0.0
C64 C 0.03075 0.9492 0.43917 0.0
C65 C 0.95143 0.04228 0.40913 0.0
C66 C 0.92726 0.94903 0.52533 0.0
O67 O 0.0712 0.01024 0.6662 0.0
O68 O 0.03044 0.97697 0.61239 0.0
O69 O 0.58062 0.53666 0.17276 0.0
Mg70 Mg 0.56132 0.48604 0.14483 0.0
O71 O 0.52999 0.55797 0.12474 0.0
Mg72 Mg 0.5049 0.5171 0.05106 0.0
O73 O 0.5534 0.47652 0.05651 0.0
O74 O 0.59741 0.45067 0.11806 0.0
O75 O 0.4789 0.47826 0.97358 0.0
O76 O 0.53645 0.55003 0.98909 0.0
Mg77 Mg 0.45345 0.5581 0.95514 0.0
O78 O 0.45683 0.55764 0.0445 0.0
O79 O 0.43772 0.50877 0.91525 0.0
O80 O 0.49892 0.5832 0.92877 0.0
O81 O 0.4152 0.58908 0.98725 0.0
C82 C 0.48584 0.4678 0.16507 0.0
C83 C 0.55835 0.56222 0.1619 0.0
C84 C 0.58095 0.45468 0.06546 0.0
C85 C 0.45425 0.47962 0.92906 0.0
C86 C 0.53076 0.57347 0.94896 0.0
C87 C 0.42984 0.58019 0.03915 0.0
O88 O 0.51906 0.46574 0.18517 0.0
O89 O 0.47492 0.48408 0.11715 0.0
H90 H 0.22868 0.22338 0.49453 0.0
C91 C 0.22967 0.23184 0.44992 0.0
H92 H 0.20759 0.22282 0.35911 0.0
H93 H 0.17534 0.07806 0.51577 0.0
H94 H 0.24004 0.06708 0.52431 0.0
H95 H 0.27949 0.10901 0.48166 0.0
H96 H 0.25458 0.16229 0.43067 0.0
C97 C 0.20824 0.21393 0.40385 0.0
C98 C 0.18402 0.18433 0.41659 0.0
C99 C 0.19884 0.15272 0.44425 0.0
C100 C 0.17608 0.12831 0.46811 0.0
C101 C 0.19163 0.09753 0.49726 0.0
C102 C 0.22861 0.09084 0.50213 0.0
C103 C 0.25082 0.11446 0.47814 0.0
C104 C 0.23625 0.14505 0.44938 0.0
H105 H 0.08498 0.08352 0.44919 0.0
C106 C 0.09292 0.09264 0.49404 0.0
H107 H 0.12648 0.12665 0.55183 0.0
H108 H 0.1462 0.23818 0.3553 0.0
H109 H 0.08113 0.24651 0.34074 0.0
H110 H 0.0417 0.20397 0.38204 0.0
H111 H 0.06709 0.1528 0.4382 0.0
C112 C 0.11822 0.11825 0.50666 0.0
C113 C 0.13856 0.13526 0.46369 0.0
C114 C 0.12322 0.16441 0.42973 0.0
C115 C 0.14602 0.18897 0.40592 0.0
C116 C 0.13014 0.21867 0.3741 0.0
C117 C 0.09285 0.22376 0.36547 0.0
C118 C 0.07064 0.19982 0.38878 0.0
C119 C 0.08553 0.17058 0.42094 0.0
H120 H 0.29448 0.73981 0.09696 0.0
C121 C 0.29394 0.74998 0.14125 0.0
H122 H 0.31751 0.74384 0.2318 0.0
H123 H 0.36869 0.58431 0.17152 0.0
H124 H 0.33215 0.57383 0.24897 0.0
H125 H 0.30035 0.62387 0.29134 0.0
H126 H 0.30533 0.68499 0.25784 0.0
C127 C 0.31826 0.7354 0.18673 0.0
C128 C 0.34407 0.70672 0.17298 0.0
C129 C 0.34131 0.67137 0.19387 0.0
C130 C 0.35934 0.64232 0.16893 0.0
C131 C 0.35533 0.60712 0.18901 0.0
C132 C 0.33448 0.60078 0.2332 0.0
C133 C 0.31665 0.62904 0.25727 0.0
C134 C 0.31972 0.66397 0.2377 0.0
H135 H 0.43593 0.59957 0.13177 0.0
C136 C 0.41812 0.59907 0.09031 0.0
H137 H 0.37057 0.6189 0.04085 0.0
H138 H 0.36409 0.7723 0.13725 0.0
H139 H 0.40439 0.7833 0.06572 0.0
H140 H 0.43402 0.73284 0.02015 0.0
H141 H 0.42388 0.67113 0.04635 0.0
C142 C 0.38787 0.61938 0.08284 0.0
C143 C 0.37997 0.64885 0.12344 0.0
C144 C 0.38644 0.68469 0.10819 0.0
C145 C 0.36882 0.7137 0.13349 0.0
C146 C 0.37599 0.74927 0.11783 0.0
C147 C 0.39925 0.75594 0.07725 0.0
C148 C 0.41595 0.72752 0.05163 0.0
C149 C 0.40976 0.69226 0.0668 0.0
H150 H 0.76646 0.8139 0.58797 0.0
C151 C 0.7646 0.80826 0.63353 0.0
H152 H 0.78784 0.82053 0.72293 0.0
H153 H 0.90871 0.85484 0.54089 0.0
H154 H 0.91177 0.78996 0.52897 0.0
H155 H 0.87353 0.75047 0.57871 0.0
H156 H 0.83177 0.77567 0.64021 0.0
C157 C 0.78974 0.82416 0.67688 0.0
C158 C 0.81883 0.84707 0.6593 0.0
C159 C 0.84424 0.83188 0.6257 0.0
C160 C 0.86668 0.8546 0.59785 0.0
C161 C 0.89089 0.83877 0.56278 0.0
C162 C 0.89306 0.80159 0.55584 0.0
C163 C 0.87151 0.77936 0.5838 0.0
C164 C 0.84746 0.79417 0.61858 0.0
H165 H 0.92305 0.93773 0.61872 0.0
C166 C 0.90992 0.93458 0.57389 0.0
H167 H 0.86682 0.912 0.5165 0.0
H168 H 0.77831 0.88426 0.72988 0.0
H169 H 0.7774 0.94903 0.74547 0.0
H170 H 0.81598 0.98847 0.69638 0.0
H171 H 0.8564 0.9634 0.63231 0.0
C172 C 0.87939 0.91529 0.56166 0.0
C173 C 0.86422 0.89245 0.60438 0.0
C174 C 0.84165 0.90743 0.64295 0.0
C175 C 0.81905 0.88464 0.67079 0.0
C176 C 0.79594 0.90035 0.70768 0.0
C177 C 0.79517 0.93744 0.71695 0.0
C178 C 0.81695 0.95966 0.68936 0.0
C179 C 0.83995 0.94498 0.65264 0.0
H180 H 0.71782 0.28898 1.0009 0.0
C181 C 0.71855 0.28287 0.95486 0.0
H182 H 0.69639 0.29695 0.86634 0.0
H183 H 0.58391 0.35612 0.05151 0.0
H184 H 0.57188 0.2929 0.0646 0.0
H185 H 0.60356 0.24578 0.0147 0.0
H186 H 0.64772 0.26158 0.95197 0.0
C187 C 0.69518 0.3015 0.91263 0.0
C188 C 0.67007 0.32938 0.93112 0.0
C189 C 0.64332 0.31969 0.96565 0.0
C190 C 0.62458 0.34682 0.99349 0.0
C191 C 0.59896 0.33647 0.02951 0.0
C192 C 0.59168 0.30034 0.03712 0.0
C193 C 0.60954 0.27381 0.00907 0.0
C194 C 0.63502 0.28322 0.97358 0.0
H195 H 0.57703 0.43356 0.97393 0.0
C196 C 0.59258 0.43272 0.01735 0.0
H197 H 0.63621 0.4091 0.0722 0.0
H198 H 0.71447 0.35705 0.85877 0.0
H199 H 0.72313 0.42026 0.84043 0.0
H200 H 0.69003 0.46726 0.88812 0.0
H201 H 0.648 0.4513 0.95454 0.0
C202 C 0.62122 0.41041 0.02838 0.0
C203 C 0.63204 0.38354 0.9858 0.0
C204 C 0.65568 0.39324 0.94605 0.0
C205 C 0.67472 0.36608 0.91849 0.0
C206 C 0.6992 0.37655 0.88062 0.0
C207 C 0.70443 0.41273 0.86976 0.0
C208 C 0.68581 0.43921 0.89665 0.0
C209 C 0.66182 0.42973 0.93467 0.0
H210 H 0.16916 0.91572 0.1797 0.0
C211 C 0.1761 0.88752 0.18707 0.0
H212 H 0.1737 0.84404 0.24423 0.0
H213 H 0.14992 0.93853 0.46673 0.0
H214 H 0.2097 0.91363 0.49819 0.0
H215 H 0.24222 0.87973 0.42896 0.0
H216 H 0.21515 0.87016 0.32797 0.0
C217 C 0.16799 0.87232 0.23595 0.0
C218 C 0.14852 0.89325 0.27778 0.0
C219 C 0.16489 0.899 0.33644 0.0
C220 C 0.14629 0.91888 0.37635 0.0
C221 C 0.16298 0.92368 0.43482 0.0
C222 C 0.19725 0.90961 0.45334 0.0
C223 C 0.21557 0.89052 0.41433 0.0
C224 C 0.19973 0.88519 0.35651 0.0
H225 H 0.05416 0.90589 0.39135 0.0
C226 C 0.05988 0.93225 0.41142 0.0
H227 H 0.09597 0.97611 0.41854 0.0
H228 H 0.10599 0.88278 0.17132 0.0
H229 H 0.04855 0.91131 0.13863 0.0
H230 H 0.02015 0.9521 0.2043 0.0
H231 H 0.04872 0.96356 0.30374 0.0
C232 C 0.08954 0.94942 0.40056 0.0
C233 C 0.1115 0.93322 0.35747 0.0
C234 C 0.09589 0.92904 0.29806 0.0
C235 C 0.11357 0.90771 0.25894 0.0
C236 C 0.09523 0.90077 0.20183 0.0
C237 C 0.0619 0.91664 0.18262 0.0
C238 C 0.04583 0.93943 0.21965 0.0
C239 C 0.06242 0.94556 0.27676 0.0
H240 H 0.61594 0.66554 0.68387 0.0
C241 C 0.63927 0.68296 0.69395 0.0
H242 H 0.6763 0.7038 0.76455 0.0
H243 H 0.55204 0.67706 0.92504 0.0
H244 H 0.55689 0.74212 0.93001 0.0
H245 H 0.59799 0.77366 0.8737 0.0
H246 H 0.63473 0.7403 0.81232 0.0
C247 C 0.65336 0.68663 0.75062 0.0
C248 C 0.63578 0.66756 0.79544 0.0
C249 C 0.61509 0.68729 0.83186 0.0
C250 C 0.59106 0.66908 0.86372 0.0
C251 C 0.57031 0.68957 0.8992 0.0
C252 C 0.57294 0.72689 0.90262 0.0
C253 C 0.5961 0.74466 0.87095 0.0
C254 C 0.61696 0.72523 0.83582 0.0
H255 H 0.58895 0.58192 0.94532 0.0
C256 C 0.56183 0.58974 0.92622 0.0
H257 H 0.53013 0.62232 0.86462 0.0
H258 H 0.67829 0.6217 0.74163 0.0
H259 H 0.67439 0.55649 0.73697 0.0
H260 H 0.62985 0.52483 0.78629 0.0
H261 H 0.58951 0.55784 0.84113 0.0
C262 C 0.55719 0.61356 0.88245 0.0
C263 C 0.58766 0.63114 0.85895 0.0
C264 C 0.61055 0.61115 0.82609 0.0
C265 C 0.63521 0.62943 0.79549 0.0
C266 C 0.65836 0.60904 0.76405 0.0
C267 C 0.6565 0.57168 0.76128 0.0
C268 C 0.6315 0.55385 0.7892 0.0
C269 C 0.6086 0.5732 0.82098 0.0
H270 H 0.85481 0.11869 0.08196 0.0
C271 C 0.84783 0.14704 0.08519 0.0
H272 H 0.85193 0.19268 0.14199 0.0
H273 H 0.8567 0.05298 0.31955 0.0
H274 H 0.7923 0.05083 0.28676 0.0
H275 H 0.7637 0.0915 0.21004 0.0
H276 H 0.79941 0.13455 0.16564 0.0
C277 C 0.85613 0.16394 0.13728 0.0
C278 C 0.87248 0.14339 0.18945 0.0
C279 C 0.85119 0.1188 0.21563 0.0
C280 C 0.86769 0.09545 0.2599 0.0
C281 C 0.84571 0.07103 0.28511 0.0
C282 C 0.80864 0.06964 0.26694 0.0
C283 C 0.79255 0.09253 0.22376 0.0
C284 C 0.8134 0.11695 0.19839 0.0
H285 H 0.94342 0.10024 0.38882 0.0
C286 C 0.93929 0.07309 0.37135 0.0
H287 H 0.91839 0.04032 0.29947 0.0
H288 H 0.91969 0.19109 0.1543 0.0
H289 H 0.98401 0.19459 0.18858 0.0
H290 H 0.01327 0.15278 0.26297 0.0
H291 H 0.97856 0.10743 0.30376 0.0
C292 C 0.92273 0.06762 0.31626 0.0
C293 C 0.90549 0.09673 0.27812 0.0
C294 C 0.92647 0.12291 0.25449 0.0
C295 C 0.90974 0.14661 0.21063 0.0
C296 C 0.93115 0.17237 0.18742 0.0
C297 C 0.96805 0.17465 0.20667 0.0
C298 C 0.98452 0.15112 0.24861 0.0
C299 C 0.96417 0.12532 0.27202 0.0
H300 H 0.33594 0.36422 0.63911 0.0
C301 C 0.35483 0.36064 0.60775 0.0
H302 H 0.40904 0.36507 0.5937 0.0
H303 H 0.44805 0.49214 0.77492 0.0
H304 H 0.45723 0.51892 0.68317 0.0
H305 H 0.44103 0.48614 0.5896 0.0
H306 H 0.41585 0.42639 0.58718 0.0
C307 C 0.3897 0.3692 0.62412 0.0
C308 C 0.40213 0.3875 0.68154 0.0
C309 C 0.41691 0.42248 0.68211 0.0
C310 C 0.42554 0.44172 0.73596 0.0
C311 C 0.44033 0.4766 0.73519 0.0
C312 C 0.4459 0.49225 0.68285 0.0
C313 C 0.43685 0.47377 0.63021 0.0
C314 C 0.42246 0.43936 0.62952 0.0
H315 H 0.46663 0.42614 0.8917 0.0
C316 C 0.44753 0.44844 0.88811 0.0
H317 H 0.40232 0.47277 0.83848 0.0
H318 H 0.38229 0.31818 0.69789 0.0
H319 H 0.37345 0.29143 0.78998 0.0
H320 H 0.38451 0.32633 0.88242 0.0
H321 H 0.40521 0.38802 0.88353 0.0
C322 C 0.42076 0.44991 0.84235 0.0
C323 C 0.41896 0.42629 0.78924 0.0
C324 C 0.40624 0.39057 0.7892 0.0
C325 C 0.39846 0.3709 0.73542 0.0
C326 C 0.38715 0.3348 0.73701 0.0
C327 C 0.38225 0.31904 0.78964 0.0
C328 C 0.38857 0.33867 0.84173 0.0
C329 C 0.40043 0.37404 0.84178 0.0
H330 H 0.62424 0.65651 0.47982 0.0
C331 C 0.63332 0.6842 0.47943 0.0
H332 H 0.63762 0.72913 0.42561 0.0
H333 H 0.64627 0.6252 0.20599 0.0
H334 H 0.70363 0.65621 0.21488 0.0
H335 H 0.72131 0.69918 0.29613 0.0
H336 H 0.68173 0.7116 0.36871 0.0
C337 C 0.62938 0.70139 0.42805 0.0
C338 C 0.61567 0.68158 0.37286 0.0
C339 C 0.63889 0.67517 0.33039 0.0
C340 C 0.62894 0.65001 0.28408 0.0
C341 C 0.65282 0.64366 0.24258 0.0
C342 C 0.68572 0.66136 0.24704 0.0
C343 C 0.69566 0.68559 0.29275 0.0
C344 C 0.67268 0.69246 0.33415 0.0
H345 H 0.54534 0.61849 0.18518 0.0
C346 C 0.56407 0.59626 0.19562 0.0
H347 H 0.60953 0.57693 0.25143 0.0
H348 H 0.56113 0.69555 0.43714 0.0
H349 H 0.50344 0.6651 0.42821 0.0
H350 H 0.48802 0.61778 0.35304 0.0
H351 H 0.52954 0.60121 0.28576 0.0
C352 C 0.59041 0.59892 0.24159 0.0
C353 C 0.59597 0.63116 0.28059 0.0
C354 C 0.57141 0.63978 0.32033 0.0
C355 C 0.58096 0.66578 0.36556 0.0
C356 C 0.55566 0.67494 0.40355 0.0
C357 C 0.52242 0.65786 0.39865 0.0
C358 C 0.5137 0.6313 0.35621 0.0
C359 C 0.53782 0.62216 0.31755 0.0
H360 H 0.80258 0.15255 0.82929 0.0
C361 C 0.82379 0.14921 0.86622 0.0
H362 H 0.87687 0.13027 0.8932 0.0
H363 H 0.89807 0.01434 0.70776 0.0
H364 H 0.88596 0.97647 0.78717 0.0
H365 H 0.86136 0.00233 0.87242 0.0
H366 H 0.84914 0.06641 0.87909 0.0
C367 C 0.85498 0.13319 0.85734 0.0
C368 C 0.86114 0.11722 0.79998 0.0
C369 C 0.86691 0.0796 0.79568 0.0
C370 C 0.8806 0.06459 0.74613 0.0
C371 C 0.88758 0.02715 0.74426 0.0
C372 C 0.88069 0.00508 0.78952 0.0
C373 C 0.86683 0.01964 0.83752 0.0
C374 C 0.86004 0.05645 0.84087 0.0
H375 H 0.95357 0.10917 0.69385 0.0
C376 C 0.94597 0.08723 0.66298 0.0
H377 H 0.9047 0.05077 0.63084 0.0
H378 H 0.85084 0.19036 0.79167 0.0
H379 H 0.85839 0.22706 0.70863 0.0
H380 H 0.87804 0.20001 0.62001 0.0
H381 H 0.89098 0.1359 0.61467 0.0
C382 C 0.9125 0.0739 0.65893 0.0
C383 C 0.88838 0.08729 0.70094 0.0
C384 C 0.87862 0.12419 0.7021 0.0
C385 C 0.8658 0.13944 0.75226 0.0
C386 C 0.85935 0.17698 0.75404 0.0
C387 C 0.86375 0.19845 0.70667 0.0
C388 C 0.87492 0.18325 0.65684 0.0
C389 C 0.88242 0.14657 0.65442 0.0
H390 H 0.34336 0.33806 0.34832 0.0
C391 C 0.34921 0.3555 0.38667 0.0
H392 H 0.36974 0.40629 0.41658 0.0
H393 H 0.45396 0.37835 0.185 0.0
H394 H 0.47929 0.3242 0.23266 0.0
H395 H 0.45985 0.30421 0.32458 0.0
H396 H 0.41441 0.33741 0.36835 0.0
C397 C 0.36602 0.38683 0.38082 0.0
C398 C 0.37759 0.39769 0.32425 0.0
C399 C 0.40543 0.3786 0.30081 0.0
C400 C 0.41837 0.39135 0.24987 0.0
C401 C 0.44459 0.37074 0.22529 0.0
C402 C 0.45912 0.33951 0.25191 0.0
C403 C 0.44804 0.32818 0.3035 0.0
C404 C 0.42164 0.34742 0.32795 0.0
H405 H 0.47281 0.44386 0.24498 0.0
C406 C 0.46096 0.45133 0.20097 0.0
H407 H 0.41317 0.45044 0.13995 0.0
H408 H 0.32064 0.4377 0.35217 0.0
H409 H 0.29455 0.49072 0.30204 0.0
H410 H 0.31871 0.51366 0.21587 0.0
H411 H 0.36974 0.48448 0.18023 0.0
C412 C 0.42624 0.44313 0.18323 0.0
C413 C 0.40551 0.42451 0.22488 0.0
C414 C 0.37594 0.44204 0.2455 0.0
C415 C 0.36198 0.42865 0.29522 0.0
C416 C 0.33253 0.44689 0.31504 0.0
C417 C 0.31725 0.47729 0.28659 0.0
C418 C 0.33095 0.49032 0.23822 0.0
C419 C 0.36018 0.47325 0.21808 0.0
H420 H 0.1842 0.8706 0.93881 0.0
C421 C 0.1661 0.86921 0.97157 0.0
H422 H 0.11282 0.87566 0.98959 0.0
H423 H 0.06908 0.99832 0.80855 0.0
H424 H 0.06215 0.02737 0.90101 0.0
H425 H 0.08073 0.99647 0.99432 0.0
H426 H 0.106 0.93638 0.99575 0.0
C427 C 0.13103 0.87782 0.95713 0.0
C428 C 0.11722 0.89491 0.90022 0.0
C429 C 0.10252 0.9302 0.90041 0.0
C430 C 0.09258 0.94834 0.84675 0.0
C431 C 0.07778 0.98353 0.84811 0.0
C432 C 0.0735 0.0005 0.90088 0.0
C433 C 0.08389 0.98308 0.95337 0.0
C434 C 0.09831 0.94843 0.95346 0.0
H435 H 0.04673 0.92818 0.69611 0.0
C436 C 0.06511 0.95063 0.69674 0.0
H437 H 0.11136 0.97649 0.74034 0.0
H438 H 0.13675 0.82481 0.88337 0.0
H439 H 0.1434 0.79578 0.79054 0.0
H440 H 0.13013 0.82882 0.69803 0.0
H441 H 0.10942 0.89089 0.69766 0.0
C442 C 0.09356 0.95352 0.73932 0.0
C443 C 0.09782 0.93149 0.79305 0.0
C444 C 0.11059 0.89556 0.79249 0.0
C445 C 0.11965 0.87697 0.84613 0.0
C446 C 0.13095 0.84062 0.84419 0.0
C447 C 0.1346 0.82357 0.79117 0.0
C448 C 0.12703 0.84214 0.73905 0.0
C449 C 0.11515 0.87774 0.73943 0.0
loop_
_geom_bond_atom_site_label_1
_geom_bond_atom_site_label_2
_geom_bond_distance
_geom_bond_site_symmetry_2
_ccdc_geom_bond_type
H0 C5 0.930 1_556 S
H1 C8 0.930 . S
H2 C10 0.930 . S
H3 C4 1.016 . S
C4 H3 1.016 . S
C4 N11 1.286 . S
C5 H0 0.930 1_554 S
C5 C6 1.397 . S
C5 C7 1.361 . S
C6 C5 1.397 . S
C6 C10 1.390 . S
C7 C5 1.361 . S
C7 C8 1.393 . S
C7 N11 1.413 . S
C8 H1 0.930 . S
C8 C7 1.393 . S
C8 C9 1.399 . S
C9 C8 1.399 . S
C9 C10 1.381 . S
C10 H2 0.930 . S
C10 C6 1.390 . S
C10 C9 1.381 . S
N11 C4 1.286 . S
N11 C7 1.413 . S
H12 C17 0.930 . S
H13 C20 0.930 . S
H14 C22 0.930 . S
H15 C16 1.016 . S
C16 H15 1.016 . S
C16 N23 1.286 . S
C17 H12 0.930 . S
C17 C18 1.397 . S
C17 C19 1.361 . S
C18 C17 1.397 . S
C18 C22 1.390 . S
C19 C17 1.361 . S
C19 C20 1.393 . S
C19 N23 1.413 . S
C20 H13 0.930 . S
C20 C19 1.393 . S
C20 C21 1.399 . S
C21 C20 1.399 . S
C21 C22 1.381 . S
C22 H14 0.930 . S
C22 C18 1.390 . S
C22 C21 1.381 . S
N23 C16 1.286 . S
N23 C19 1.413 . S
H24 C29 0.930 . S
H25 C32 0.930 . S
H26 C34 0.930 . S
H27 C28 1.016 . S
C28 H27 1.016 . S
C28 N35 1.286 1_554 S
C29 H24 0.930 . S
C29 C30 1.397 . S
C29 C31 1.361 . S
C30 C29 1.397 . S
C30 C34 1.390 1_556 S
C31 C29 1.361 . S
C31 C32 1.393 1_556 S
C31 N35 1.413 . S
C32 H25 0.930 . S
C32 C31 1.393 1_554 S
C32 C33 1.399 . S
C33 C32 1.399 . S
C33 C34 1.381 . S
C34 H26 0.930 . S
C34 C30 1.390 1_554 S
C34 C33 1.381 . S
N35 C28 1.286 1_556 S
N35 C31 1.413 . S
H36 C41 0.930 . S
H37 C44 0.930 . S
H38 C46 0.930 . S
H39 C40 1.016 . S
C40 H39 1.016 . S
C40 N47 1.286 . S
C41 H36 0.930 . S
C41 C42 1.397 . S
C41 C43 1.361 . S
C42 C41 1.397 . S
C42 C46 1.390 . S
C43 C41 1.361 . S
C43 C44 1.393 . S
C43 N47 1.413 . S
C44 H37 0.930 . S
C44 C43 1.393 . S
C44 C45 1.399 . S
C45 C44 1.399 . S
C45 C46 1.381 . S
C46 H38 0.930 . S
C46 C42 1.390 . S
C46 C45 1.381 . S
N47 C40 1.286 . S
N47 C43 1.413 . S
O48 Mg49 1.990 . S
O48 C62 1.253 1_455 S
Mg49 O48 1.990 . S
Mg49 O52 2.180 . S
Mg49 O53 2.117 . S
Mg49 O67 2.030 . S
O50 Mg51 2.072 1_655 S
O50 C62 1.260 . S
Mg51 O50 2.072 1_455 S
Mg51 O52 2.099 . S
Mg51 O54 2.079 1_545 S
Mg51 O55 2.072 1_455 S
Mg51 O57 2.099 1_445 S
Mg51 O68 2.079 1_545 S
O52 Mg49 2.180 . S
O52 Mg51 2.099 . S
O52 C63 1.279 . S
O53 Mg49 2.117 . S
O53 C63 1.250 . S
O54 Mg51 2.079 1_565 S
O54 C64 1.264 . S
O55 Mg51 2.072 1_655 S
O55 C65 1.260 . S
Mg56 O57 2.180 . S
Mg56 O58 2.030 1_655 S
Mg56 O59 1.990 1_565 S
Mg56 O60 2.117 . S
O57 Mg51 2.099 1_665 S
O57 Mg56 2.180 . S
O57 C66 1.279 . S
O58 Mg56 2.030 1_455 S
O58 C64 1.248 . S
O59 Mg56 1.990 1_545 S
O59 C65 1.253 . S
O60 Mg56 2.117 . S
O60 C66 1.250 . S
C61 O67 1.248 1_565 S
C61 O68 1.264 . S
C62 O48 1.253 1_655 S
C62 O50 1.260 . S
C63 O52 1.279 . S
C63 O53 1.250 . S
C64 O54 1.264 . S
C64 O58 1.248 . S
C65 O55 1.260 . S
C65 O59 1.253 . S
C66 O57 1.279 . S
C66 O60 1.250 . S
O67 Mg49 2.030 . S
O67 C61 1.248 1_545 S
O68 Mg51 2.079 1_565 S
O68 C61 1.264 . S
O69 Mg70 1.990 . S
O69 C83 1.253 . S
Mg70 O69 1.990 . S
Mg70 O73 2.180 . S
Mg70 O74 2.117 . S
Mg70 O88 2.030 . S
O71 Mg72 2.072 . S
O71 C83 1.260 . S
Mg72 O71 2.072 . S
Mg72 O73 2.099 . S
Mg72 O75 2.079 1_554 S
Mg72 O76 2.072 1_554 S
Mg72 O78 2.099 . S
Mg72 O89 2.079 . S
O73 Mg70 2.180 . S
O73 Mg72 2.099 . S
O73 C84 1.279 . S
O74 Mg70 2.117 . S
O74 C84 1.250 . S
O75 Mg72 2.079 1_556 S
O75 C85 1.264 . S
O76 Mg72 2.072 1_556 S
O76 C86 1.260 . S
Mg77 O78 2.180 1_556 S
Mg77 O79 2.030 . S
Mg77 O80 1.990 . S
Mg77 O81 2.117 . S
O78 Mg72 2.099 . S
O78 Mg77 2.180 1_554 S
O78 C87 1.279 . S
O79 Mg77 2.030 . S
O79 C85 1.248 . S
O80 Mg77 1.990 . S
O80 C86 1.253 . S
O81 Mg77 2.117 . S
O81 C87 1.250 1_556 S
C82 O88 1.248 . S
C82 O89 1.264 . S
C83 O69 1.253 . S
C83 O71 1.260 . S
C84 O73 1.279 . S
C84 O74 1.250 . S
C85 O75 1.264 . S
C85 O79 1.248 . S
C86 O76 1.260 . S
C86 O80 1.253 . S
C87 O78 1.279 . S
C87 O81 1.250 1_554 S
O88 Mg70 2.030 . S
O88 C82 1.248 . S
O89 Mg72 2.079 . S
O89 C82 1.264 . S
H90 C91 0.951 . S
C91 H90 0.951 . S
C91 C97 1.265 . S
H92 C97 0.950 . S
H93 C101 0.949 . S
H94 C102 0.950 . S
H95 C103 0.951 . S
H96 C104 0.951 . S
C97 C91 1.265 . S
C97 H92 0.950 . S
C97 C98 1.478 . S
C98 C97 1.478 . S
C98 C99 1.397 . S
C98 C115 1.394 . S
C99 C98 1.397 . S
C99 C100 1.438 . S
C99 C104 1.429 . S
C100 C99 1.438 . S
C100 C101 1.428 . S
C100 C113 1.394 . S
C101 H93 0.949 . S
C101 C100 1.428 . S
C101 C102 1.345 . S
C102 H94 0.950 . S
C102 C101 1.345 . S
C102 C103 1.424 . S
C103 H95 0.951 . S
C103 C102 1.424 . S
C103 C104 1.347 . S
C104 H96 0.951 . S
C104 C99 1.429 . S
C104 C103 1.347 . S
H105 C106 0.951 . S
C106 H105 0.951 . S
C106 C112 1.265 . S
H107 C112 0.950 . S
H108 C116 0.949 . S
H109 C117 0.950 . S
H110 C118 0.951 . S
H111 C119 0.951 . S
C112 C106 1.265 . S
C112 H107 0.950 . S
C112 C113 1.478 . S
C113 C100 1.394 . S
C113 C112 1.478 . S
C113 C114 1.397 . S
C114 C113 1.397 . S
C114 C115 1.438 . S
C114 C119 1.429 . S
C115 C98 1.394 . S
C115 C114 1.438 . S
C115 C116 1.428 . S
C116 H108 0.949 . S
C116 C115 1.428 . S
C116 C117 1.345 . S
C117 H109 0.950 . S
C117 C116 1.345 . S
C117 C118 1.424 . S
C118 H110 0.951 . S
C118 C117 1.424 . S
C118 C119 1.347 . S
C119 H111 0.951 . S
C119 C114 1.429 . S
C119 C118 1.347 . S
H120 C121 0.951 . S
C121 H120 0.951 . S
C121 C127 1.265 . S
H122 C127 0.950 . S
H123 C131 0.949 . S
H124 C132 0.950 . S
H125 C133 0.951 . S
H126 C134 0.951 . S
C127 C121 1.265 . S
C127 H122 0.950 . S
C127 C128 1.478 . S
C128 C127 1.478 . S
C128 C129 1.397 . S
C128 C145 1.394 . S
C129 C128 1.397 . S
C129 C130 1.438 . S
C129 C134 1.429 . S
C130 C129 1.438 . S
C130 C131 1.428 . S
C130 C143 1.394 . S
C131 H123 0.949 . S
C131 C130 1.428 . S
C131 C132 1.345 . S
C132 H124 0.950 . S
C132 C131 1.345 . S
C132 C133 1.424 . S
C133 H125 0.951 . S
C133 C132 1.424 . S
C133 C134 1.347 . S
C134 H126 0.951 . S
C134 C129 1.429 . S
C134 C133 1.347 . S
H135 C136 0.951 . S
C136 H135 0.951 . S
C136 C142 1.265 . S
H137 C142 0.950 . S
H138 C146 0.949 . S
H139 C147 0.950 . S
H140 C148 0.951 . S
H141 C149 0.951 . S
C142 C136 1.265 . S
C142 H137 0.950 . S
C142 C143 1.478 . S
C143 C130 1.394 . S
C143 C142 1.478 . S
C143 C144 1.397 . S
C144 C143 1.397 . S
C144 C145 1.438 . S
C144 C149 1.429 1_554 S
C145 C128 1.394 . S
C145 C144 1.438 . S
C145 C146 1.428 1_554 S
C146 H138 0.949 . S
C146 C145 1.428 1_556 S
C146 C147 1.345 . S
C147 H139 0.950 . S
C147 C146 1.345 . S
C147 C148 1.424 . S
C148 H140 0.951 . S
C148 C147 1.424 . S
C148 C149 1.347 . S
C149 H141 0.951 . S
C149 C144 1.429 1_556 S
C149 C148 1.347 . S
H150 C151 0.951 . S
C151 H150 0.951 . S
C151 C157 1.265 . S
H152 C157 0.950 . S
H153 C161 0.949 . S
H154 C162 0.950 . S
H155 C163 0.951 . S
H156 C164 0.951 . S
C157 C151 1.265 . S
C157 H152 0.950 . S
C157 C158 1.478 . S
C158 C157 1.478 . S
C158 C159 1.397 . S
C158 C175 1.394 . S
C159 C158 1.397 . S
C159 C160 1.438 . S
C159 C164 1.429 . S
C160 C159 1.438 . S
C160 C161 1.428 . S
C160 C173 1.394 . S
C161 H153 0.949 . S
C161 C160 1.428 . S
C161 C162 1.345 . S
C162 H154 0.950 . S
C162 C161 1.345 . S
C162 C163 1.424 . S
C163 H155 0.951 . S
C163 C162 1.424 . S
C163 C164 1.347 . S
C164 H156 0.951 . S
C164 C159 1.429 . S
C164 C163 1.347 . S
H165 C166 0.951 . S
C166 H165 0.951 . S
C166 C172 1.265 . S
H167 C172 0.950 . S
H168 C176 0.949 . S
H169 C177 0.950 . S
H170 C178 0.951 . S
H171 C179 0.951 . S
C172 C166 1.265 . S
C172 H167 0.950 . S
C172 C173 1.478 . S
C173 C160 1.394 . S
C173 C172 1.478 . S
C173 C174 1.397 . S
C174 C173 1.397 . S
C174 C175 1.438 . S
C174 C179 1.429 . S
C175 C158 1.394 . S
C175 C174 1.438 . S
C175 C176 1.428 . S
C176 H168 0.949 . S
C176 C175 1.428 . S
C176 C177 1.345 . S
C177 H169 0.950 . S
C177 C176 1.345 . S
C177 C178 1.424 . S
C178 H170 0.951 . S
C178 C177 1.424 . S
C178 C179 1.347 . S
C179 H171 0.951 . S
C179 C174 1.429 . S
C179 C178 1.347 . S
H180 C181 0.951 1_556 S
C181 H180 0.951 1_554 S
C181 C187 1.265 . S
H182 C187 0.950 . S
H183 C191 0.949 . S
H184 C192 0.950 . S
H185 C193 0.951 . S
H186 C194 0.951 . S
C187 C181 1.265 . S
C187 H182 0.950 . S
C187 C188 1.478 . S
C188 C187 1.478 . S
C188 C189 1.397 . S
C188 C205 1.394 1_554 S
C189 C188 1.397 . S
C189 C190 1.438 . S
C189 C194 1.429 . S
C190 C189 1.438 . S
C190 C191 1.428 . S
C190 C203 1.394 . S
C191 H183 0.949 . S
C191 C190 1.428 . S
C191 C192 1.345 . S
C192 H184 0.950 . S
C192 C191 1.345 . S
C192 C193 1.424 . S
C193 H185 0.951 . S
C193 C192 1.424 . S
C193 C194 1.347 . S
C194 H186 0.951 . S
C194 C189 1.429 . S
C194 C193 1.347 . S
H195 C196 0.951 . S
C196 H195 0.951 . S
C196 C202 1.265 . S
H197 C202 0.950 1_556 S
H198 C206 0.949 . S
H199 C207 0.950 . S
H200 C208 0.951 . S
H201 C209 0.951 . S
C202 C196 1.265 . S
C202 H197 0.950 1_554 S
C202 C203 1.478 . S
C203 C190 1.394 . S
C203 C202 1.478 . S
C203 C204 1.397 1_554 S
C204 C203 1.397 1_556 S
C204 C205 1.438 . S
C204 C209 1.429 . S
C205 C188 1.394 1_556 S
C205 C204 1.438 . S
C205 C206 1.428 . S
C206 H198 0.949 . S
C206 C205 1.428 . S
C206 C207 1.345 . S
C207 H199 0.950 . S
C207 C206 1.345 . S
C207 C208 1.424 . S
C208 H200 0.951 . S
C208 C207 1.424 . S
C208 C209 1.347 . S
C209 H201 0.951 . S
C209 C204 1.429 . S
C209 C208 1.347 . S
H210 C211 0.951 . S
C211 H210 0.951 . S
C211 C217 1.265 . S
H212 C217 0.950 . S
H213 C221 0.949 . S
H214 C222 0.950 . S
H215 C223 0.951 . S
H216 C224 0.951 . S
C217 C211 1.265 . S
C217 H212 0.950 . S
C217 C218 1.478 . S
C218 C217 1.478 . S
C218 C219 1.397 . S
C218 C235 1.394 . S
C219 C218 1.397 . S
C219 C220 1.438 . S
C219 C224 1.429 . S
C220 C219 1.438 . S
C220 C221 1.428 . S
C220 C233 1.394 . S
C221 H213 0.949 . S
C221 C220 1.428 . S
C221 C222 1.345 . S
C222 H214 0.950 . S
C222 C221 1.345 . S
C222 C223 1.424 . S
C223 H215 0.951 . S
C223 C222 1.424 . S
C223 C224 1.347 . S
C224 H216 0.951 . S
C224 C219 1.429 . S
C224 C223 1.347 . S
H225 C226 0.951 . S
C226 H225 0.951 . S
C226 C232 1.265 . S
H227 C232 0.950 . S
H228 C236 0.949 . S
H229 C237 0.950 . S
H230 C238 0.951 . S
H231 C239 0.951 . S
C232 C226 1.265 . S
C232 H227 0.950 . S
C232 C233 1.478 . S
C233 C220 1.394 . S
C233 C232 1.478 . S
C233 C234 1.397 . S
C234 C233 1.397 . S
C234 C235 1.438 . S
C234 C239 1.429 . S
C235 C218 1.394 . S
C235 C234 1.438 . S
C235 C236 1.428 . S
C236 H228 0.949 . S
C236 C235 1.428 . S
C236 C237 1.345 . S
C237 H229 0.950 . S
C237 C236 1.345 . S
C237 C238 1.424 . S
C238 H230 0.951 . S
C238 C237 1.424 . S
C238 C239 1.347 . S
C239 H231 0.951 . S
C239 C234 1.429 . S
C239 C238 1.347 . S
H240 C241 0.951 . S
C241 H240 0.951 . S
C241 C247 1.265 . S
H242 C247 0.950 . S
H243 C251 0.949 . S
H244 C252 0.950 . S
H245 C253 0.951 . S
H246 C254 0.951 . S
C247 C241 1.265 . S
C247 H242 0.950 . S
C247 C248 1.478 . S
C248 C247 1.478 . S
C248 C249 1.397 . S
C248 C265 1.394 . S
C249 C248 1.397 . S
C249 C250 1.438 . S
C249 C254 1.429 . S
C250 C249 1.438 . S
C250 C251 1.428 . S
C250 C263 1.394 . S
C251 H243 0.949 . S
C251 C250 1.428 . S
C251 C252 1.345 . S
C252 H244 0.950 . S
C252 C251 1.345 . S
C252 C253 1.424 . S
C253 H245 0.951 . S
C253 C252 1.424 . S
C253 C254 1.347 . S
C254 H246 0.951 . S
C254 C249 1.429 . S
C254 C253 1.347 . S
H255 C256 0.951 . S
C256 H255 0.951 . S
C256 C262 1.265 . S
H257 C262 0.950 . S
H258 C266 0.949 . S
H259 C267 0.950 . S
H260 C268 0.951 . S
H261 C269 0.951 . S
C262 C256 1.265 . S
C262 H257 0.950 . S
C262 C263 1.478 . S
C263 C250 1.394 . S
C263 C262 1.478 . S
C263 C264 1.397 . S
C264 C263 1.397 . S
C264 C265 1.438 . S
C264 C269 1.429 . S
C265 C248 1.394 . S
C265 C264 1.438 . S
C265 C266 1.428 . S
C266 H258 0.949 . S
C266 C265 1.428 . S
C266 C267 1.345 . S
C267 H259 0.950 . S
C267 C266 1.345 . S
C267 C268 1.424 . S
C268 H260 0.951 . S
C268 C267 1.424 . S
C268 C269 1.347 . S
C269 H261 0.951 . S
C269 C264 1.429 . S
C269 C268 1.347 . S
H270 C271 0.951 . S
C271 H270 0.951 . S
C271 C277 1.265 . S
H272 C277 0.950 . S
H273 C281 0.949 . S
H274 C282 0.950 1_565 S
H275 C283 0.951 . S
H276 C284 0.951 . S
C277 C271 1.265 . S
C277 H272 0.950 . S
C277 C278 1.478 . S
C278 C277 1.478 . S
C278 C279 1.397 . S
C278 C295 1.394 . S
C279 C278 1.397 . S
C279 C280 1.438 . S
C279 C284 1.429 . S
C280 C279 1.438 . S
C280 C281 1.428 . S
C280 C293 1.394 . S
C281 H273 0.949 . S
C281 C280 1.428 . S
C281 C282 1.345 . S
C282 H274 0.950 1_545 S
C282 C281 1.345 . S
C282 C283 1.424 . S
C283 H275 0.951 . S
C283 C282 1.424 . S
C283 C284 1.347 . S
C284 H276 0.951 . S
C284 C279 1.429 . S
C284 C283 1.347 . S
H285 C286 0.951 . S
C286 H285 0.951 . S
C286 C292 1.265 . S
H287 C292 0.950 . S
H288 C296 0.949 . S
H289 C297 0.950 . S
H290 C298 0.951 . S
H291 C299 0.951 . S
C292 C286 1.265 . S
C292 H287 0.950 . S
C292 C293 1.478 . S
C293 C280 1.394 . S
C293 C292 1.478 . S
C293 C294 1.397 . S
C294 C293 1.397 . S
C294 C295 1.438 . S
C294 C299 1.429 . S
C295 C278 1.394 . S
C295 C294 1.438 . S
C295 C296 1.428 . S
C296 H288 0.949 . S
C296 C295 1.428 . S
C296 C297 1.345 . S
C297 H289 0.950 . S
C297 C296 1.345 . S
C297 C298 1.424 . S
C298 H290 0.951 . S
C298 C297 1.424 . S
C298 C299 1.347 . S
C299 H291 0.951 . S
C299 C294 1.429 . S
C299 C298 1.347 . S
H300 C301 0.951 . S
C301 H300 0.951 . S
C301 C307 1.265 . S
H302 C307 0.950 . S
H303 C311 0.949 . S
H304 C312 0.950 . S
H305 C313 0.951 . S
H306 C314 0.951 . S
C307 C301 1.265 . S
C307 H302 0.950 . S
C307 C308 1.478 . S
C308 C307 1.478 . S
C308 C309 1.397 . S
C308 C325 1.394 . S
C309 C308 1.397 . S
C309 C310 1.438 . S
C309 C314 1.429 . S
C310 C309 1.438 . S
C310 C311 1.428 . S
C310 C323 1.394 . S
C311 H303 0.949 . S
C311 C310 1.428 . S
C311 C312 1.345 . S
C312 H304 0.950 . S
C312 C311 1.345 . S
C312 C313 1.424 . S
C313 H305 0.951 . S
C313 C312 1.424 . S
C313 C314 1.347 . S
C314 H306 0.951 . S
C314 C309 1.429 . S
C314 C313 1.347 . S
H315 C316 0.951 . S
C316 H315 0.951 . S
C316 C322 1.265 . S
H317 C322 0.950 . S
H318 C326 0.949 . S
H319 C327 0.950 . S
H320 C328 0.951 . S
H321 C329 0.951 . S
C322 C316 1.265 . S
C322 H317 0.950 . S
C322 C323 1.478 . S
C323 C310 1.394 . S
C323 C322 1.478 . S
C323 C324 1.397 . S
C324 C323 1.397 . S
C324 C325 1.438 . S
C324 C329 1.429 . S
C325 C308 1.394 . S
C325 C324 1.438 . S
C325 C326 1.428 . S
C326 H318 0.949 . S
C326 C325 1.428 . S
C326 C327 1.345 . S
C327 H319 0.950 . S
C327 C326 1.345 . S
C327 C328 1.424 . S
C328 H320 0.951 . S
C328 C327 1.424 . S
C328 C329 1.347 . S
C329 H321 0.951 . S
C329 C324 1.429 . S
C329 C328 1.347 . S
H330 C331 0.951 . S
C331 H330 0.951 . S
C331 C337 1.265 . S
H332 C337 0.950 . S
H333 C341 0.949 . S
H334 C342 0.950 . S
H335 C343 0.951 . S
H336 C344 0.951 . S
C337 C331 1.265 . S
C337 H332 0.950 . S
C337 C338 1.478 . S
C338 C337 1.478 . S
C338 C339 1.397 . S
C338 C355 1.394 . S
C339 C338 1.397 . S
C339 C340 1.438 . S
C339 C344 1.429 . S
C340 C339 1.438 . S
C340 C341 1.428 . S
C340 C353 1.394 . S
C341 H333 0.949 . S
C341 C340 1.428 . S
C341 C342 1.345 . S
C342 H334 0.950 . S
C342 C341 1.345 . S
C342 C343 1.424 . S
C343 H335 0.951 . S
C343 C342 1.424 . S
C343 C344 1.347 . S
C344 H336 0.951 . S
C344 C339 1.429 . S
C344 C343 1.347 . S
H345 C346 0.951 . S
C346 H345 0.951 . S
C346 C352 1.265 . S
H347 C352 0.950 . S
H348 C356 0.949 . S
H349 C357 0.950 . S
H350 C358 0.951 . S
H351 C359 0.951 . S
C352 C346 1.265 . S
C352 H347 0.950 . S
C352 C353 1.478 . S
C353 C340 1.394 . S
C353 C352 1.478 . S
C353 C354 1.397 . S
C354 C353 1.397 . S
C354 C355 1.438 . S
C354 C359 1.429 . S
C355 C338 1.394 . S
C355 C354 1.438 . S
C355 C356 1.428 . S
C356 H348 0.949 . S
C356 C355 1.428 . S
C356 C357 1.345 . S
C357 H349 0.950 . S
C357 C356 1.345 . S
C357 C358 1.424 . S
C358 H350 0.951 . S
C358 C357 1.424 . S
C358 C359 1.347 . S
C359 H351 0.951 . S
C359 C354 1.429 . S
C359 C358 1.347 . S
H360 C361 0.951 . S
C361 H360 0.951 . S
C361 C367 1.265 . S
H362 C367 0.950 . S
H363 C371 0.949 . S
H364 C372 0.950 . S
H365 C373 0.951 . S
H366 C374 0.951 . S
C367 C361 1.265 . S
C367 H362 0.950 . S
C367 C368 1.478 . S
C368 C367 1.478 . S
C368 C369 1.397 . S
C368 C385 1.394 . S
C369 C368 1.397 . S
C369 C370 1.438 . S
C369 C374 1.429 . S
C370 C369 1.438 . S
C370 C371 1.428 . S
C370 C383 1.394 . S
C371 H363 0.949 . S
C371 C370 1.428 . S
C371 C372 1.345 . S
C372 H364 0.950 . S
C372 C371 1.345 . S
C372 C373 1.424 . S
C373 H365 0.951 . S
C373 C372 1.424 . S
C373 C374 1.347 . S
C374 H366 0.951 . S
C374 C369 1.429 . S
C374 C373 1.347 . S
H375 C376 0.951 . S
C376 H375 0.951 . S
C376 C382 1.265 . S
H377 C382 0.950 . S
H378 C386 0.949 . S
H379 C387 0.950 . S
H380 C388 0.951 . S
H381 C389 0.951 . S
C382 C376 1.265 . S
C382 H377 0.950 . S
C382 C383 1.478 . S
C383 C370 1.394 . S
C383 C382 1.478 . S
C383 C384 1.397 . S
C384 C383 1.397 . S
C384 C385 1.438 . S
C384 C389 1.429 . S
C385 C368 1.394 . S
C385 C384 1.438 . S
C385 C386 1.428 . S
C386 H378 0.949 . S
C386 C385 1.428 . S
C386 C387 1.345 . S
C387 H379 0.950 . S
C387 C386 1.345 . S
C387 C388 1.424 . S
C388 H380 0.951 . S
C388 C387 1.424 . S
C388 C389 1.347 . S
C389 H381 0.951 . S
C389 C384 1.429 . S
C389 C388 1.347 . S
H390 C391 0.951 . S
C391 H390 0.951 . S
C391 C397 1.265 . S
H392 C397 0.950 . S
H393 C401 0.949 . S
H394 C402 0.950 . S
H395 C403 0.951 . S
H396 C404 0.951 . S
C397 C391 1.265 . S
C397 H392 0.950 . S
C397 C398 1.478 . S
C398 C397 1.478 . S
C398 C399 1.397 . S
C398 C415 1.394 . S
C399 C398 1.397 . S
C399 C400 1.438 . S
C399 C404 1.429 . S
C400 C399 1.438 . S
C400 C401 1.428 . S
C400 C413 1.394 . S
C401 H393 0.949 . S
C401 C400 1.428 . S
C401 C402 1.345 . S
C402 H394 0.950 . S
C402 C401 1.345 . S
C402 C403 1.424 . S
C403 H395 0.951 . S
C403 C402 1.424 . S
C403 C404 1.347 . S
C404 H396 0.951 . S
C404 C399 1.429 . S
C404 C403 1.347 . S
H405 C406 0.951 . S
C406 H405 0.951 . S
C406 C412 1.265 . S
H407 C412 0.950 . S
H408 C416 0.949 . S
H409 C417 0.950 . S
H410 C418 0.951 . S
H411 C419 0.951 . S
C412 C406 1.265 . S
C412 H407 0.950 . S
C412 C413 1.478 . S
C413 C400 1.394 . S
C413 C412 1.478 . S
C413 C414 1.397 . S
C414 C413 1.397 . S
C414 C415 1.438 . S
C414 C419 1.429 . S
C415 C398 1.394 . S
C415 C414 1.438 . S
C415 C416 1.428 . S
C416 H408 0.949 . S
C416 C415 1.428 . S
C416 C417 1.345 . S
C417 H409 0.950 . S
C417 C416 1.345 . S
C417 C418 1.424 . S
C418 H410 0.951 . S
C418 C417 1.424 . S
C418 C419 1.347 . S
C419 H411 0.951 . S
C419 C414 1.429 . S
C419 C418 1.347 . S
H420 C421 0.951 . S
C421 H420 0.951 . S
C421 C427 1.265 . S
H422 C427 0.950 . S
H423 C431 0.949 1_545 S
H424 C432 0.950 . S
H425 C433 0.951 1_545 S
H426 C434 0.951 . S
C427 C421 1.265 . S
C427 H422 0.950 . S
C427 C428 1.478 . S
C428 C427 1.478 . S
C428 C429 1.397 . S
C428 C445 1.394 . S
C429 C428 1.397 . S
C429 C430 1.438 . S
C429 C434 1.429 . S
C430 C429 1.438 . S
C430 C431 1.428 . S
C430 C443 1.394 . S
C431 H423 0.949 1_565 S
C431 C430 1.428 . S
C431 C432 1.345 1_565 S
C432 H424 0.950 . S
C432 C431 1.345 1_545 S
C432 C433 1.424 1_545 S
C433 H425 0.951 1_565 S
C433 C432 1.424 1_565 S
C433 C434 1.347 . S
C434 H426 0.951 . S
C434 C429 1.429 . S
C434 C433 1.347 . S
H435 C436 0.951 . S
C436 H435 0.951 . S
C436 C442 1.265 . S
H437 C442 0.950 . S
H438 C446 0.949 . S
H439 C447 0.950 . S
H440 C448 0.951 . S
H441 C449 0.951 . S
C442 C436 1.265 . S
C442 H437 0.950 . S
C442 C443 1.478 . S
C443 C430 1.394 . S
C443 C442 1.478 . S
C443 C444 1.397 . S
C444 C443 1.397 . S
C444 C445 1.438 . S
C444 C449 1.429 . S
C445 C428 1.394 . S
C445 C444 1.438 . S
C445 C446 1.428 . S
C446 H438 0.949 . S
C446 C445 1.428 . S
C446 C447 1.345 . S
C447 H439 0.950 . S
C447 C446 1.345 . S
C447 C448 1.424 . S
C448 H440 0.951 . S
C448 C447 1.424 . S
C448 C449 1.347 . S
C449 H441 0.951 . S
C449 C444 1.429 . S
C449 C448 1.347 . S
C106 C63 1.270 . S
C91 C40 1.442 . S
C121 C4 1.472 . S
C136 C87 1.289 . S
C151 C16 1.594 . S
C166 C66 1.373 . S
C181 C28 1.597 . S
C196 C84 1.341 . S
C226 C64 1.460 . S
C211 C9 1.489 . S
C256 C86 1.541 . S
C241 C18 1.586 . S
C271 C33 1.572 . S
C286 C65 1.500 . S
C301 C45 1.518 . S
C316 C85 1.455 . S
C346 C83 1.508 . S
C331 C21 1.506 . S
C376 C62 1.423 . S
C361 C30 1.543 . S
C406 C82 1.372 . S
C391 C42 1.456 . S
C421 C6 1.460 1_556 S
C436 C61 1.407 . S
