# Generated by pormake.
# Topology ssb, (4,4)-cn, num edge types: 1
# Building blocks:
#     Node 0, Type 0, BuildingBlock: NAWXER_clean_linker_0, # of connection points: 4
#     Node 1, Type 0, BuildingBlock: NAWXER_clean_linker_0, # of connection points: 4
#     Node 2, Type 0, BuildingBlock: NAWXER_clean_linker_0, # of connection points: 4
#     Node 3, Type 0, BuildingBlock: NAWXER_clean_linker_0, # of connection points: 4
#     Node 4, Type 0, BuildingBlock: NAWXER_clean_linker_0, # of connection points: 4
#     Node 5, Type 0, BuildingBlock: NAWXER_clean_linker_0, # of connection points: 4
#     Node 6, Type 0, BuildingBlock: NAWXER_clean_linker_0, # of connection points: 4
#     Node 7, Type 0, BuildingBlock: NAWXER_clean_linker_0, # of connection points: 4
#     Node 8, Type 1, BuildingBlock: NAWXER_clean_sbu_0, # of connection points: 4
#     Node 9, Type 1, BuildingBlock: NAWXER_clean_sbu_0, # of connection points: 4
#     Node 10, Type 1, BuildingBlock: NAWXER_clean_sbu_0, # of connection points: 4
#     Node 11, Type 1, BuildingBlock: NAWXER_clean_sbu_0, # of connection points: 4
#     Node 12, Type 1, BuildingBlock: NAWXER_clean_sbu_0, # of connection points: 4
#     Node 13, Type 1, BuildingBlock: NAWXER_clean_sbu_0, # of connection points: 4
#     Node 14, Type 1, BuildingBlock: NAWXER_clean_sbu_0, # of connection points: 4
#     Node 15, Type 1, BuildingBlock: NAWXER_clean_sbu_0, # of connection points: 4
#     Edge 16, Type (0, 1), BuildingBlock: ZUJKAS_clean_linker_0, # of connection points: 2
#     Edge 17, Type (0, 1), BuildingBlock: ZUJKAS_clean_linker_0, # of connection points: 2
#     Edge 18, Type (0, 1), BuildingBlock: ZUJKAS_clean_linker_0, # of connection points: 2
#     Edge 19, Type (0, 1), BuildingBlock: ZUJKAS_clean_linker_0, # of connection points: 2
#     Edge 20, Type (0, 1), BuildingBlock: ZUJKAS_clean_linker_0, # of connection points: 2
#     Edge 21, Type (0, 1), BuildingBlock: ZUJKAS_clean_linker_0, # of connection points: 2
#     Edge 22, Type (0, 1), BuildingBlock: ZUJKAS_clean_linker_0, # of connection points: 2
#     Edge 23, Type (0, 1), BuildingBlock: ZUJKAS_clean_linker_0, # of connection points: 2
#     Edge 24, Type (0, 1), BuildingBlock: ZUJKAS_clean_linker_0, # of connection points: 2
#     Edge 25, Type (0, 1), BuildingBlock: ZUJKAS_clean_linker_0, # of connection points: 2
#     Edge 26, Type (0, 1), BuildingBlock: ZUJKAS_clean_linker_0, # of connection points: 2
#     Edge 27, Type (0, 1), BuildingBlock: ZUJKAS_clean_linker_0, # of connection points: 2
#     Edge 28, Type (0, 1), BuildingBlock: ZUJKAS_clean_linker_0, # of connection points: 2
#     Edge 29, Type (0, 1), BuildingBlock: ZUJKAS_clean_linker_0, # of connection points: 2
#     Edge 30, Type (0, 1), BuildingBlock: ZUJKAS_clean_linker_0, # of connection points: 2
#     Edge 31, Type (0, 1), BuildingBlock: ZUJKAS_clean_linker_0, # of connection points: 2
#     Edge 32, Type (0, 1), BuildingBlock: ZUJKAS_clean_linker_0, # of connection points: 2
#     Edge 33, Type (0, 1), BuildingBlock: ZUJKAS_clean_linker_0, # of connection points: 2
#     Edge 34, Type (0, 1), BuildingBlock: ZUJKAS_clean_linker_0, # of connection points: 2
#     Edge 35, Type (0, 1), BuildingBlock: ZUJKAS_clean_linker_0, # of connection points: 2
#     Edge 36, Type (0, 1), BuildingBlock: ZUJKAS_clean_linker_0, # of connection points: 2
#     Edge 37, Type (0, 1), BuildingBlock: ZUJKAS_clean_linker_0, # of connection points: 2
#     Edge 38, Type (0, 1), BuildingBlock: ZUJKAS_clean_linker_0, # of connection points: 2
#     Edge 39, Type (0, 1), BuildingBlock: ZUJKAS_clean_linker_0, # of connection points: 2
#     Edge 40, Type (0, 1), BuildingBlock: ZUJKAS_clean_linker_0, # of connection points: 2
#     Edge 41, Type (0, 1), BuildingBlock: ZUJKAS_clean_linker_0, # of connection points: 2
#     Edge 42, Type (0, 1), BuildingBlock: ZUJKAS_clean_linker_0, # of connection points: 2
#     Edge 43, Type (0, 1), BuildingBlock: ZUJKAS_clean_linker_0, # of connection points: 2
#     Edge 44, Type (0, 1), BuildingBlock: ZUJKAS_clean_linker_0, # of connection points: 2
#     Edge 45, Type (0, 1), BuildingBlock: ZUJKAS_clean_linker_0, # of connection points: 2
#     Edge 46, Type (0, 1), BuildingBlock: ZUJKAS_clean_linker_0, # of connection points: 2
#     Edge 47, Type (0, 1), BuildingBlock: ZUJKAS_clean_linker_0, # of connection points: 2
# Relax obj value: 0.000
# Max RMSD: 0.001
# Mean RMSD: 0.001
data_MOF--net-ssb--node1-NAWXER_clean_sbu_0--node2-NAWXER_clean_linker_0--edge1-ZUJKAS_clean_linker_0
_symmetry_space_group_name_H-M    P1
_symmetry_Int_Tables_number       1
_symmetry_cell_setting            triclinic
loop_
_symmetry_equiv_pos_as_xyz
'x, y, z'
_cell_length_a     67.494271
_cell_length_b     67.525771
_cell_length_c     58.939611
_cell_angle_alpha  90.076246
_cell_angle_beta   89.925744
_cell_angle_gamma 89.997332
loop_
_atom_site_label
_atom_site_type_symbol
_atom_site_fract_x
_atom_site_fract_y
_atom_site_fract_z
_atom_type_partial_charge
C0 C 0.30279 0.24089 0.18016 0.0
C1 C 0.32227 0.23654 0.18695 0.0
C2 C 0.28815 0.24496 0.1963 0.0
C3 C 0.29277 0.24497 0.21954 0.0
C4 C 0.32688 0.23674 0.21021 0.0
C5 C 0.31225 0.24081 0.22632 0.0
C6 C 0.27707 0.24727 0.23691 0.0
C7 C 0.28091 0.30584 0.20244 0.0
C8 C 0.26386 0.3118 0.19058 0.0
C9 C 0.2803 0.28961 0.21707 0.0
C10 C 0.26272 0.27874 0.21994 0.0
C11 C 0.24618 0.30109 0.19374 0.0
C12 C 0.2456 0.28479 0.20837 0.0
C13 C 0.26197 0.26174 0.23582 0.0
C14 C 0.21511 0.24634 0.32156 0.0
C15 C 0.1958 0.24485 0.31274 0.0
C16 C 0.23147 0.24749 0.30704 0.0
C17 C 0.22886 0.24696 0.28341 0.0
C18 C 0.19323 0.24501 0.28905 0.0
C19 C 0.2096 0.24615 0.27455 0.0
C20 C 0.24604 0.24691 0.26779 0.0
C21 C 0.2496 0.18956 0.3076 0.0
C22 C 0.26738 0.18748 0.31983 0.0
C23 C 0.24753 0.20455 0.29142 0.0
C24 C 0.26312 0.21788 0.28742 0.0
C25 C 0.28296 0.2008 0.31563 0.0
C26 C 0.28086 0.21577 0.29954 0.0
C27 C 0.2618 0.23324 0.26964 0.0
H28 H 0.29869 0.24055 0.1624 0.0
H29 H 0.27311 0.24747 0.19063 0.0
H30 H 0.3418 0.23372 0.21598 0.0
H31 H 0.31613 0.24058 0.24415 0.0
H32 H 0.2948 0.31365 0.20032 0.0
H33 H 0.29359 0.28568 0.22631 0.0
H34 H 0.2327 0.30548 0.18517 0.0
H35 H 0.23179 0.27684 0.21056 0.0
H36 H 0.21759 0.24671 0.33971 0.0
H37 H 0.24617 0.24863 0.31427 0.0
H38 H 0.1786 0.24374 0.28167 0.0
H39 H 0.20725 0.24583 0.25638 0.0
H40 H 0.23728 0.17962 0.31052 0.0
H41 H 0.23389 0.20554 0.28185 0.0
H42 H 0.29696 0.1994 0.32444 0.0
H43 H 0.29318 0.22572 0.29648 0.0
N44 N 0.27656 0.23388 0.25402 0.0
N45 N 0.24679 0.26075 0.25102 0.0
C46 C 0.67934 0.27256 0.21294 0.0
C47 C 0.67758 0.25744 0.19664 0.0
C48 C 0.69499 0.27251 0.22838 0.0
C49 C 0.70928 0.25741 0.22778 0.0
C50 C 0.6914 0.24181 0.19681 0.0
C51 C 0.70706 0.24175 0.21235 0.0
C52 C 0.72705 0.25864 0.24238 0.0
C53 C 0.73345 0.30402 0.18782 0.0
C54 C 0.73249 0.32372 0.19551 0.0
C55 C 0.73574 0.28846 0.20317 0.0
C56 C 0.73686 0.29221 0.22657 0.0
C57 C 0.73403 0.32748 0.21893 0.0
C58 C 0.73629 0.31186 0.23431 0.0
C59 C 0.73917 0.27568 0.24287 0.0
C60 C 0.80808 0.25196 0.30047 0.0
C61 C 0.80988 0.26875 0.31451 0.0
C62 C 0.79132 0.24932 0.2869 0.0
C63 C 0.776 0.26336 0.28719 0.0
C64 C 0.79449 0.28281 0.31464 0.0
C65 C 0.7778 0.2802 0.30098 0.0
C66 C 0.75858 0.26122 0.27223 0.0
C67 C 0.75519 0.21248 0.32384 0.0
C68 C 0.75653 0.19332 0.31452 0.0
C69 C 0.75194 0.22891 0.3099 0.0
C70 C 0.75015 0.22658 0.2863 0.0
C71 C 0.75441 0.19103 0.2909 0.0
C72 C 0.75114 0.20748 0.27698 0.0
C73 C 0.74682 0.24388 0.27129 0.0
H74 H 0.6687 0.28454 0.21367 0.0
H75 H 0.69619 0.28452 0.2405 0.0
H76 H 0.69054 0.22999 0.18442 0.0
H77 H 0.71791 0.22994 0.21168 0.0
H78 H 0.73281 0.30062 0.16987 0.0
H79 H 0.73681 0.27348 0.19669 0.0
H80 H 0.73327 0.34247 0.22542 0.0
H81 H 0.73731 0.3151 0.25228 0.0
H82 H 0.81981 0.24105 0.29959 0.0
H83 H 0.7905 0.23648 0.27591 0.0
H84 H 0.79525 0.29577 0.32544 0.0
H85 H 0.76618 0.29127 0.30131 0.0
H86 H 0.7563 0.21477 0.34198 0.0
H87 H 0.75065 0.24342 0.31761 0.0
H88 H 0.75552 0.17654 0.28311 0.0
H89 H 0.74969 0.2053 0.25884 0.0
N90 N 0.73145 0.24325 0.25636 0.0
N91 N 0.75431 0.27643 0.25797 0.0
C92 C 0.71149 0.73537 0.18221 0.0
C93 C 0.692 0.73344 0.19043 0.0
C94 C 0.72735 0.73791 0.19719 0.0
C95 C 0.72409 0.73831 0.22074 0.0
C96 C 0.68881 0.73394 0.21402 0.0
C97 C 0.70467 0.73646 0.22898 0.0
C98 C 0.74059 0.74193 0.23683 0.0
C99 C 0.75269 0.6839 0.20289 0.0
C100 C 0.77007 0.68349 0.18967 0.0
C101 C 0.74918 0.69939 0.21812 0.0
C102 C 0.76279 0.71502 0.22022 0.0
C103 C 0.78397 0.69885 0.19235 0.0
C104 C 0.7804 0.7144 0.20754 0.0
C105 C 0.75895 0.73182 0.23588 0.0
C106 C 0.79956 0.76029 0.321 0.0
C107 C 0.81903 0.7629 0.31298 0.0
C108 C 0.784 0.75672 0.30592 0.0
C109 C 0.78748 0.7559 0.28242 0.0
C110 C 0.82252 0.76179 0.28946 0.0
C111 C 0.80692 0.75823 0.27437 0.0
C112 C 0.77108 0.75183 0.26633 0.0
C113 C 0.75693 0.81193 0.29576 0.0
C114 C 0.7407 0.81156 0.31071 0.0
C115 C 0.76106 0.79563 0.28189 0.0
C116 C 0.74891 0.77877 0.28259 0.0
C117 C 0.72861 0.79464 0.31146 0.0
C118 C 0.73254 0.77847 0.29729 0.0
C119 C 0.7527 0.76182 0.26729 0.0
H120 H 0.71451 0.73495 0.16416 0.0
H121 H 0.74211 0.73986 0.19033 0.0
H122 H 0.67397 0.73287 0.22093 0.0
H123 H 0.70174 0.737 0.24705 0.0
H124 H 0.74158 0.67243 0.2012 0.0
H125 H 0.73574 0.69918 0.22818 0.0
H126 H 0.79767 0.69884 0.18277 0.0
H127 H 0.79127 0.72613 0.20912 0.0
H128 H 0.79638 0.76057 0.33902 0.0
H129 H 0.76928 0.75428 0.31269 0.0
H130 H 0.83729 0.76384 0.28268 0.0
H131 H 0.81001 0.75749 0.25634 0.0
H132 H 0.76652 0.82478 0.29494 0.0
H133 H 0.77359 0.79628 0.27041 0.0
H134 H 0.71594 0.79406 0.32274 0.0
H135 H 0.7229 0.76566 0.29792 0.0
N136 N 0.73817 0.75644 0.2526 0.0
N137 N 0.77352 0.73727 0.25057 0.0
C138 C 0.30557 0.74758 0.19907 0.0
C139 C 0.30763 0.7652 0.18657 0.0
C140 C 0.28999 0.74524 0.21447 0.0
C141 C 0.276 0.76041 0.21762 0.0
C142 C 0.29374 0.78047 0.18999 0.0
C143 C 0.27817 0.77813 0.20546 0.0
C144 C 0.25978 0.75825 0.23443 0.0
C145 C 0.24465 0.71264 0.18067 0.0
C146 C 0.24341 0.69303 0.18857 0.0
C147 C 0.2469 0.72835 0.19596 0.0
C148 C 0.24818 0.72469 0.21937 0.0
C149 C 0.24517 0.68942 0.21195 0.0
C150 C 0.24744 0.70508 0.22718 0.0
C151 C 0.2479 0.74108 0.23605 0.0
C152 C 0.18679 0.76196 0.30638 0.0
C153 C 0.18593 0.7438 0.31803 0.0
C154 C 0.20181 0.76561 0.29056 0.0
C155 C 0.21644 0.75127 0.28632 0.0
C156 C 0.20051 0.72944 0.31358 0.0
C157 C 0.21554 0.73312 0.29784 0.0
C158 C 0.23193 0.75436 0.26885 0.0
C159 C 0.24172 0.80019 0.32252 0.0
C160 C 0.23934 0.81977 0.31487 0.0
C161 C 0.24335 0.78458 0.30706 0.0
C162 C 0.24235 0.78817 0.28362 0.0
C163 C 0.23884 0.82336 0.29137 0.0
C164 C 0.24044 0.80772 0.27591 0.0
C165 C 0.24355 0.7717 0.26708 0.0
H166 H 0.31623 0.73569 0.1973 0.0
H167 H 0.28907 0.73168 0.2242 0.0
H168 H 0.29476 0.79417 0.18053 0.0
H169 H 0.26768 0.79012 0.20776 0.0
H170 H 0.24312 0.71591 0.16278 0.0
H171 H 0.24683 0.74337 0.18953 0.0
H172 H 0.2446 0.67446 0.21853 0.0
H173 H 0.24829 0.70189 0.24516 0.0
H174 H 0.17588 0.7734 0.30951 0.0
H175 H 0.20181 0.77952 0.28144 0.0
H176 H 0.20011 0.71517 0.32193 0.0
H177 H 0.22649 0.72172 0.2946 0.0
H178 H 0.24208 0.79688 0.34049 0.0
H179 H 0.24534 0.76968 0.31344 0.0
H180 H 0.23741 0.8383 0.2849 0.0
H181 H 0.23989 0.81086 0.25789 0.0
N182 N 0.257 0.773 0.2499 0.0
N183 N 0.23461 0.73979 0.25329 0.0
C184 C 0.19913 0.77189 0.703 0.0
C185 C 0.19235 0.75628 0.68921 0.0
C186 C 0.21556 0.76934 0.71713 0.0
C187 C 0.2257 0.75117 0.71767 0.0
C188 C 0.20239 0.73801 0.69004 0.0
C189 C 0.2188 0.73546 0.70424 0.0
C190 C 0.24306 0.74829 0.73272 0.0
C191 C 0.26254 0.79243 0.67998 0.0
C192 C 0.26748 0.81118 0.68872 0.0
C193 C 0.25955 0.77638 0.69453 0.0
C194 C 0.26124 0.77882 0.71812 0.0
C195 C 0.26927 0.81352 0.71234 0.0
C196 C 0.26629 0.79747 0.72686 0.0
C197 C 0.25906 0.76181 0.7337 0.0
C198 C 0.31668 0.72061 0.79603 0.0
C199 C 0.3223 0.73646 0.81013 0.0
C200 C 0.30109 0.72274 0.78064 0.0
C201 C 0.29063 0.74069 0.77923 0.0
C202 C 0.31215 0.75458 0.8082 0.0
C203 C 0.29654 0.75669 0.79282 0.0
C204 C 0.27368 0.743 0.7635 0.0
C205 C 0.25713 0.69973 0.81685 0.0
C206 C 0.25603 0.68022 0.80858 0.0
C207 C 0.25702 0.71575 0.80191 0.0
C208 C 0.25602 0.7126 0.77839 0.0
C209 C 0.25424 0.67715 0.78505 0.0
C210 C 0.25411 0.69322 0.77009 0.0
C211 C 0.25776 0.72943 0.76249 0.0
H212 H 0.19154 0.78602 0.70319 0.0
H213 H 0.22022 0.78153 0.72783 0.0
H214 H 0.19774 0.72572 0.67951 0.0
H215 H 0.2263 0.72128 0.70448 0.0
H216 H 0.2614 0.79004 0.66186 0.0
H217 H 0.25628 0.76199 0.68732 0.0
H218 H 0.27281 0.82781 0.71964 0.0
H219 H 0.26783 0.79966 0.74499 0.0
H220 H 0.32413 0.70644 0.79712 0.0
H221 H 0.29714 0.71032 0.76991 0.0
H222 H 0.31635 0.7672 0.81848 0.0
H223 H 0.28886 0.77075 0.79181 0.0
H224 H 0.25863 0.70263 0.83484 0.0
H225 H 0.25816 0.73062 0.80871 0.0
H226 H 0.25303 0.66231 0.77819 0.0
H227 H 0.25315 0.6905 0.75201 0.0
N228 N 0.2431 0.7325 0.74706 0.0
N229 N 0.27364 0.75871 0.74916 0.0
C230 C 0.3057 0.27935 0.79882 0.0
C231 C 0.31096 0.26277 0.81189 0.0
C232 C 0.28957 0.27855 0.78406 0.0
C233 C 0.27821 0.2612 0.78213 0.0
C234 C 0.29978 0.24527 0.80962 0.0
C235 C 0.28363 0.24447 0.79477 0.0
C236 C 0.2611 0.26042 0.76642 0.0
C237 C 0.241 0.30152 0.82196 0.0
C238 C 0.23709 0.32109 0.81517 0.0
C239 C 0.24477 0.28683 0.80582 0.0
C240 C 0.24487 0.29146 0.78259 0.0
C241 C 0.23738 0.32571 0.79192 0.0
C242 C 0.2411 0.311 0.77579 0.0
C243 C 0.24682 0.27568 0.7653 0.0
C244 C 0.18683 0.24801 0.698 0.0
C245 C 0.18492 0.26525 0.68477 0.0
C246 C 0.20243 0.24607 0.71343 0.0
C247 C 0.21644 0.26127 0.71579 0.0
C248 C 0.19912 0.28035 0.68711 0.0
C249 C 0.21462 0.27843 0.70258 0.0
C250 C 0.2322 0.26022 0.73308 0.0
C251 C 0.24425 0.21326 0.68133 0.0
C252 C 0.24305 0.19398 0.69025 0.0
C253 C 0.24552 0.22964 0.69576 0.0
C254 C 0.24542 0.2271 0.7194 0.0
C255 C 0.24355 0.19147 0.71394 0.0
C256 C 0.24483 0.20788 0.72836 0.0
C257 C 0.24573 0.24434 0.73492 0.0
H258 H 0.31425 0.2929 0.7997 0.0
H259 H 0.2861 0.29148 0.77395 0.0
H260 H 0.30333 0.23227 0.81955 0.0
H261 H 0.27518 0.23088 0.79341 0.0
H262 H 0.24103 0.29754 0.83975 0.0
H263 H 0.24706 0.27176 0.81151 0.0
H264 H 0.23419 0.3406 0.78616 0.0
H265 H 0.24082 0.31484 0.75795 0.0
H266 H 0.17597 0.23624 0.69691 0.0
H267 H 0.20327 0.23291 0.72387 0.0
H268 H 0.19829 0.29368 0.67696 0.0
H269 H 0.22524 0.29038 0.70426 0.0
H270 H 0.24436 0.21569 0.66318 0.0
H271 H 0.24651 0.24432 0.68844 0.0
H272 H 0.24252 0.17685 0.72138 0.0
H273 H 0.24483 0.20558 0.74655 0.0
N274 N 0.2598 0.24509 0.75145 0.0
N275 N 0.23318 0.27515 0.74844 0.0
C276 C 0.81632 0.22102 0.70143 0.0
C277 C 0.82111 0.23753 0.68797 0.0
C278 C 0.80117 0.22214 0.71754 0.0
C279 C 0.79036 0.23974 0.72045 0.0
C280 C 0.81046 0.25525 0.69119 0.0
C281 C 0.79532 0.25636 0.70739 0.0
C282 C 0.7743 0.24093 0.73754 0.0
C283 C 0.75139 0.20006 0.68334 0.0
C284 C 0.74769 0.18052 0.69043 0.0
C285 C 0.7555 0.2149 0.69919 0.0
C286 C 0.75621 0.21049 0.72247 0.0
C287 C 0.74829 0.17617 0.71375 0.0
C288 C 0.75239 0.19104 0.7296 0.0
C289 C 0.75942 0.22632 0.73952 0.0
C290 C 0.70263 0.25674 0.8084 0.0
C291 C 0.6994 0.23926 0.82088 0.0
C292 C 0.71862 0.25818 0.79336 0.0
C293 C 0.73168 0.24219 0.79059 0.0
C294 C 0.71291 0.22353 0.81849 0.0
C295 C 0.72876 0.22493 0.80336 0.0
C296 C 0.74706 0.24234 0.77274 0.0
C297 C 0.76581 0.28778 0.82443 0.0
C298 C 0.76759 0.30713 0.81582 0.0
C299 C 0.76374 0.2716 0.80976 0.0
C300 C 0.76321 0.27443 0.78616 0.0
C301 C 0.76729 0.30986 0.79215 0.0
C302 C 0.76524 0.29367 0.77751 0.0
C303 C 0.7614 0.25745 0.77028 0.0
H304 H 0.8245 0.2073 0.6998 0.0
H305 H 0.79802 0.20927 0.72788 0.0
H306 H 0.81363 0.2682 0.681 0.0
H307 H 0.78727 0.27013 0.70947 0.0
H308 H 0.75117 0.20388 0.6655 0.0
H309 H 0.75779 0.2299 0.69325 0.0
H310 H 0.74524 0.16135 0.7198 0.0
H311 H 0.75255 0.18734 0.74748 0.0
H312 H 0.69238 0.26904 0.80956 0.0
H313 H 0.72033 0.27147 0.78328 0.0
H314 H 0.71112 0.21 0.82812 0.0
H315 H 0.73863 0.21239 0.80138 0.0
H316 H 0.76637 0.28508 0.84253 0.0
H317 H 0.76286 0.25685 0.81689 0.0
H318 H 0.76839 0.32454 0.7849 0.0
H319 H 0.765 0.29623 0.75937 0.0
N320 N 0.77454 0.2561 0.75278 0.0
N321 N 0.7466 0.22747 0.75722 0.0
C322 C 0.79298 0.74741 0.68283 0.0
C323 C 0.8119 0.74258 0.69115 0.0
C324 C 0.77733 0.75127 0.69777 0.0
C325 C 0.78034 0.75058 0.72133 0.0
C326 C 0.81476 0.74159 0.71476 0.0
C327 C 0.79911 0.74545 0.72967 0.0
C328 C 0.76385 0.75423 0.73739 0.0
C329 C 0.77514 0.81185 0.70179 0.0
C330 C 0.7594 0.81815 0.68792 0.0
C331 C 0.77245 0.79649 0.71738 0.0
C332 C 0.75401 0.78699 0.71935 0.0
C333 C 0.74088 0.80875 0.69018 0.0
C334 C 0.73819 0.79344 0.70585 0.0
C335 C 0.751 0.77072 0.73585 0.0
C336 C 0.7045 0.76482 0.82284 0.0
C337 C 0.68518 0.76883 0.81519 0.0
C338 C 0.71989 0.76162 0.80738 0.0
C339 C 0.71628 0.76221 0.78393 0.0
C340 C 0.68173 0.76992 0.79168 0.0
C341 C 0.69716 0.76676 0.77622 0.0
C342 C 0.73247 0.75856 0.76745 0.0
C343 C 0.72222 0.70008 0.80258 0.0
C344 C 0.73844 0.69343 0.81549 0.0
C345 C 0.72429 0.71606 0.78767 0.0
C346 C 0.74258 0.72579 0.78546 0.0
C347 C 0.7567 0.70331 0.81325 0.0
C348 C 0.75877 0.7192 0.79827 0.0
C349 C 0.74531 0.74208 0.76894 0.0
H350 H 0.79016 0.74792 0.66475 0.0
H351 H 0.76283 0.75455 0.69088 0.0
H352 H 0.82917 0.73813 0.72175 0.0
H353 H 0.80173 0.74466 0.74778 0.0
H354 H 0.78948 0.819 0.70089 0.0
H355 H 0.78476 0.79215 0.72806 0.0
H356 H 0.72848 0.81304 0.67964 0.0
H357 H 0.72381 0.7864 0.70717 0.0
H358 H 0.70781 0.76432 0.8408 0.0
H359 H 0.73465 0.75877 0.81378 0.0
H360 H 0.66701 0.77282 0.78518 0.0
H361 H 0.69407 0.76746 0.7582 0.0
H362 H 0.70803 0.69263 0.80355 0.0
H363 H 0.7117 0.72053 0.77752 0.0
H364 H 0.76943 0.69884 0.82316 0.0
H365 H 0.77305 0.72643 0.79678 0.0
N366 N 0.76055 0.74064 0.75395 0.0
N367 N 0.73572 0.77218 0.75086 0.0
C368 C 0.9764 0.24131 0.52132 0.0
C369 C 0.02841 0.24313 0.46349 0.0
O370 O 0.98169 0.25894 0.51598 0.0
Zn371 Zn 0.00197 0.27325 0.49321 0.0
O372 O 0.98445 0.22662 0.51142 0.0
Zn373 Zn 0.00205 0.24167 0.49199 0.0
O374 O 0.02211 0.25479 0.51583 0.0
O375 O 0.0191 0.28732 0.51402 0.0
O376 O 0.01994 0.2279 0.47165 0.0
O377 O 0.02295 0.2604 0.47009 0.0
O378 O 0.9845 0.28808 0.47347 0.0
O379 O 0.98177 0.25573 0.46934 0.0
C380 C 0.02726 0.2721 0.52262 0.0
C381 C 0.97639 0.27329 0.46388 0.0
C382 C 0.73392 0.02626 0.5243 0.0
C383 C 0.73319 0.97422 0.46637 0.0
O384 O 0.75123 0.0208 0.51782 0.0
Zn385 Zn 0.76451 1.00041 0.49441 0.0
O386 O 0.71869 0.01822 0.51551 0.0
Zn387 Zn 0.7328 1.00052 0.49511 0.0
O388 O 0.7468 0.98055 0.51849 0.0
O389 O 0.77923 0.98301 0.51447 0.0
O390 O 0.71824 0.98274 0.47518 0.0
O391 O 0.75067 0.97961 0.47219 0.0
O392 O 0.77842 0.01808 0.47372 0.0
O393 O 0.74594 0.021 0.47185 0.0
C394 C 0.76433 0.97522 0.52425 0.0
C395 C 0.76322 0.02639 0.46526 0.0
C396 C 0.97501 0.73361 0.53604 0.0
C397 C 0.02662 0.73358 0.47777 0.0
O398 O 0.98059 0.75106 0.53026 0.0
Zn399 Zn 1.00106 0.76461 0.50716 0.0
O400 O 0.98291 0.7186 0.52663 0.0
Zn401 Zn 1.00073 0.733 0.50683 0.0
O402 O 0.02117 0.7462 0.53031 0.0
O403 O 0.01895 0.77868 0.52732 0.0
O404 O 0.01832 0.71856 0.48665 0.0
O405 O 0.02135 0.751 0.484 0.0
O406 O 0.98363 0.77927 0.48703 0.0
O407 O 0.98048 0.74689 0.48375 0.0
C408 C 0.02681 0.76354 0.53645 0.0
C409 C 0.97531 0.76441 0.4778 0.0
C410 C 0.24286 0.02772 0.53798 0.0
C411 C 0.24149 0.97672 0.47905 0.0
O412 O 0.26019 0.02231 0.53149 0.0
Zn413 Zn 0.27323 0.00183 0.50792 0.0
O414 O 0.22767 0.01954 0.52931 0.0
Zn415 Zn 0.24166 0.00198 0.50882 0.0
O416 O 0.25556 0.9815 0.53146 0.0
O417 O 0.28796 0.98404 0.52729 0.0
O418 O 0.22674 0.98469 0.48892 0.0
O419 O 0.2591 0.98191 0.48466 0.0
O420 O 0.2875 0.01939 0.48783 0.0
O421 O 0.255 0.02246 0.48558 0.0
C422 C 0.27312 0.97602 0.53689 0.0
C423 C 0.27239 0.02772 0.4792 0.0
C424 C 0.47475 0.768 0.03547 0.0
C425 C 0.52746 0.76949 0.97838 0.0
O426 O 0.48329 0.78313 0.02718 0.0
Zn427 Zn 0.50152 0.76917 0.00737 0.0
O428 O 0.48037 0.75067 0.02927 0.0
Zn429 Zn 0.5018 0.73772 0.00671 0.0
O430 O 0.51921 0.72321 0.02678 0.0
O431 O 0.52182 0.75557 0.03067 0.0
O432 O 0.52224 0.75188 0.98393 0.0
O433 O 0.51919 0.78421 0.98798 0.0
O434 O 0.48186 0.75557 0.98312 0.0
O435 O 0.4851 0.72315 0.98597 0.0
C436 C 0.52721 0.73805 0.03636 0.0
C437 C 0.477 0.73807 0.97666 0.0
C438 C 0.22963 0.52869 0.03546 0.0
C439 C 0.22666 0.47578 0.97906 0.0
O440 O 0.24674 0.52269 0.02895 0.0
Zn441 Zn 0.25914 0.50143 0.00615 0.0
O442 O 0.21415 0.52071 0.02726 0.0
Zn443 Zn 0.22748 0.50213 0.00734 0.0
O444 O 0.24126 0.48191 0.03049 0.0
O445 O 0.27367 0.48396 0.02617 0.0
O446 O 0.21203 0.48441 0.98844 0.0
O447 O 0.24436 0.48091 0.98432 0.0
O448 O 0.27333 0.51799 0.98476 0.0
O449 O 0.24086 0.52127 0.98271 0.0
C450 C 0.25875 0.47628 0.03599 0.0
C451 C 0.25822 0.526 0.97573 0.0
C452 C 0.52821 0.23029 0.96535 0.0
C453 C 0.47598 0.22625 0.02257 0.0
O454 O 0.52233 0.24727 0.97241 0.0
Zn455 Zn 0.50105 0.25922 0.99559 0.0
O456 O 0.52001 0.21468 0.97292 0.0
Zn457 Zn 0.50164 0.22764 0.99341 0.0
O458 O 0.48134 0.24184 0.97083 0.0
O459 O 0.48324 0.2741 0.97625 0.0
O460 O 0.4841 0.21185 0.01219 0.0
O461 O 0.4811 0.24404 0.01777 0.0
O462 O 0.51792 0.27305 0.01692 0.0
O463 O 0.52116 0.24053 0.01813 0.0
C464 C 0.47561 0.25942 0.96594 0.0
C465 C 0.52602 0.25776 0.02543 0.0
C466 C 0.76999 0.52642 0.02506 0.0
C467 C 0.76845 0.47439 0.96707 0.0
O468 O 0.78474 0.51801 0.01568 0.0
Zn469 Zn 0.76969 0.50056 0.99592 0.0
O470 O 0.75238 0.52139 0.01926 0.0
Zn471 Zn 0.7382 0.50122 0.99621 0.0
O472 O 0.72338 0.48438 0.01664 0.0
O473 O 0.75576 0.48082 0.01967 0.0
O474 O 0.75111 0.48019 0.97307 0.0
O475 O 0.7836 0.48237 0.97604 0.0
O476 O 0.75642 0.52119 0.97271 0.0
O477 O 0.72397 0.5191 0.97643 0.0
C478 C 0.73819 0.47605 0.02593 0.0
C479 C 0.739 0.52692 0.96702 0.0
H480 H 0.19288 0.22276 0.35158 0.0
H481 H 0.1643 0.21959 0.3769 0.0
H482 H 0.13084 0.25907 0.33414 0.0
H483 H 0.15938 0.26252 0.30887 0.0
H484 H 0.14479 0.24952 0.40074 0.0
H485 H 0.09361 0.21134 0.34154 0.0
H486 H 0.11996 0.21301 0.33649 0.0
H487 H 0.10411 0.23371 0.33029 0.0
C488 C 0.17948 0.23087 0.34761 0.0
C489 C 0.17843 0.24288 0.32815 0.0
C490 C 0.16313 0.22893 0.36203 0.0
C491 C 0.14535 0.23882 0.35719 0.0
C492 C 0.14426 0.25091 0.33789 0.0
H493 H 0.0499 0.27301 0.44451 0.0
H494 H 0.07831 0.27035 0.41913 0.0
C495 C 0.16061 0.25289 0.32348 0.0
C496 C 0.12823 0.23723 0.37287 0.0
H497 H 0.07932 0.22438 0.37553 0.0
C498 C 0.13053 0.24387 0.39528 0.0
C499 C 0.10971 0.22959 0.36581 0.0
C500 C 0.10668 0.22132 0.34228 0.0
C501 C 0.11459 0.24375 0.41059 0.0
C502 C 0.09583 0.23702 0.40321 0.0
C503 C 0.09369 0.22969 0.38106 0.0
C504 C 0.07811 0.23834 0.41799 0.0
C505 C 0.11793 0.25092 0.43455 0.0
C506 C 0.06821 0.22119 0.42525 0.0
C507 C 0.05184 0.22263 0.43982 0.0
C508 C 0.04505 0.24128 0.44717 0.0
C509 C 0.05476 0.2584 0.43931 0.0
C510 C 0.07108 0.25693 0.42487 0.0
H511 H 0.13388 0.25063 0.43918 0.0
H512 H 0.11264 0.26643 0.43606 0.0
H513 H 0.10954 0.24176 0.44689 0.0
H514 H 0.07336 0.20671 0.41997 0.0
H515 H 0.04468 0.20917 0.4455 0.0
H516 H 0.7394 0.15657 0.3114 0.0
H517 H 0.74406 0.12819 0.33656 0.0
H518 H 0.78543 0.1619 0.3767 0.0
H519 H 0.78112 0.19031 0.35142 0.0
H520 H 0.77961 0.10714 0.34909 0.0
H521 H 0.74257 0.14346 0.42255 0.0
H522 H 0.74029 0.15266 0.39393 0.0
H523 H 0.76255 0.15709 0.40979 0.0
C524 C 0.7497 0.15791 0.32539 0.0
C525 C 0.7598 0.17581 0.32943 0.0
C526 C 0.75229 0.14168 0.3398 0.0
C527 C 0.76492 0.14301 0.35862 0.0
C528 C 0.77537 0.16067 0.36247 0.0
H529 H 0.79717 0.04295 0.44736 0.0
H530 H 0.79938 0.07115 0.42115 0.0
C531 C 0.77282 0.17691 0.34804 0.0
C532 C 0.76669 0.12608 0.37452 0.0
H533 H 0.75556 0.11151 0.42851 0.0
C534 C 0.77449 0.1081 0.36651 0.0
C535 C 0.75984 0.12736 0.39716 0.0
C536 C 0.75069 0.1461 0.40643 0.0
C537 C 0.77548 0.09129 0.38054 0.0
C538 C 0.76858 0.09258 0.40315 0.0
C539 C 0.76098 0.11062 0.4112 0.0
C540 C 0.76766 0.07506 0.41828 0.0
C541 C 0.78326 0.0721 0.3709 0.0
C542 C 0.74914 0.06801 0.4254 0.0
C543 C 0.74783 0.05202 0.44028 0.0
C544 C 0.76504 0.04273 0.44855 0.0
C545 C 0.78364 0.04971 0.44126 0.0
C546 C 0.78493 0.06577 0.42623 0.0
H547 H 0.78498 0.07273 0.35217 0.0
H548 H 0.79795 0.06885 0.37845 0.0
H549 H 0.77318 0.05967 0.37524 0.0
H550 H 0.73564 0.07498 0.41948 0.0
H551 H 0.73325 0.0471 0.44549 0.0
H552 H 0.81913 0.78619 0.35116 0.0
H553 H 0.84585 0.79036 0.37877 0.0
H554 H 0.88312 0.75152 0.33928 0.0
H555 H 0.85645 0.74712 0.31171 0.0
H556 H 0.86337 0.76103 0.40439 0.0
H557 H 0.91959 0.79877 0.3512 0.0
H558 H 0.89387 0.79695 0.34305 0.0
H559 H 0.91032 0.77632 0.33878 0.0
C560 C 0.83301 0.77854 0.34832 0.0
C561 C 0.83562 0.76631 0.32918 0.0
C562 C 0.84831 0.78104 0.36406 0.0
C563 C 0.86658 0.7715 0.36093 0.0
C564 C 0.86932 0.75942 0.34177 0.0
H565 H 0.95385 0.73535 0.45715 0.0
H566 H 0.92733 0.73896 0.42946 0.0
C567 C 0.85403 0.75691 0.32602 0.0
C568 C 0.88232 0.7731 0.37844 0.0
H569 H 0.931 0.78521 0.38638 0.0
C570 C 0.87809 0.76652 0.4005 0.0
C571 C 0.90146 0.78049 0.37344 0.0
C572 C 0.90658 0.78872 0.35039 0.0
C573 C 0.89268 0.7664 0.41745 0.0
C574 C 0.91209 0.77281 0.41213 0.0
C575 C 0.91615 0.78014 0.39035 0.0
C576 C 0.92854 0.77095 0.42865 0.0
C577 C 0.88724 0.75926 0.44089 0.0
C578 C 0.9384 0.78777 0.437 0.0
C579 C 0.95368 0.78577 0.45294 0.0
C580 C 0.95947 0.7669 0.46059 0.0
C581 C 0.94976 0.75013 0.45177 0.0
C582 C 0.93451 0.75214 0.43599 0.0
H583 H 0.871 0.76001 0.44387 0.0
H584 H 0.89193 0.74359 0.44277 0.0
H585 H 0.89486 0.76814 0.45414 0.0
H586 H 0.93408 0.80242 0.43142 0.0
H587 H 0.96089 0.79898 0.45931 0.0
H588 H 0.21443 0.85179 0.31276 0.0
H589 H 0.21171 0.87924 0.33978 0.0
H590 H 0.25694 0.85264 0.38137 0.0
H591 H 0.25997 0.8253 0.35436 0.0
H592 H 0.22262 0.866 0.40564 0.0
H593 H 0.2536 0.92355 0.34818 0.0
H594 H 0.23327 0.90932 0.3371 0.0
H595 H 0.2565 0.89738 0.34281 0.0
C596 C 0.22394 0.85188 0.32754 0.0
C597 C 0.23748 0.83638 0.33134 0.0
C598 C 0.22232 0.86754 0.34298 0.0
C599 C 0.23425 0.86803 0.36244 0.0
C600 C 0.24758 0.8525 0.36645 0.0
H601 H 0.2701 0.95928 0.45325 0.0
H602 H 0.26617 0.9334 0.42478 0.0
C603 C 0.24923 0.83685 0.35103 0.0
C604 C 0.23301 0.88476 0.37865 0.0
H605 H 0.24299 0.93408 0.38435 0.0
C606 C 0.22692 0.88093 0.40099 0.0
C607 C 0.23877 0.90416 0.37249 0.0
C608 C 0.24606 0.90894 0.34891 0.0
C609 C 0.22668 0.89597 0.41747 0.0
C610 C 0.23252 0.91534 0.41133 0.0
C611 C 0.23835 0.91923 0.38891 0.0
C612 C 0.23435 0.93139 0.42835 0.0
C613 C 0.22091 0.89089 0.44151 0.0
C614 C 0.21768 0.93901 0.43965 0.0
C615 C 0.21985 0.95391 0.45604 0.0
C616 C 0.23875 0.96138 0.46134 0.0
C617 C 0.25533 0.95384 0.4497 0.0
C618 C 0.25313 0.93906 0.43335 0.0
H619 H 0.22008 0.87463 0.44427 0.0
H620 H 0.23169 0.89727 0.45371 0.0
H621 H 0.20615 0.89734 0.4453 0.0
H622 H 0.20301 0.93343 0.4358 0.0
H623 H 0.20678 0.95944 0.46464 0.0
H624 H 0.1823 0.7889 0.66392 0.0
H625 H 0.15317 0.79337 0.63978 0.0
H626 H 0.13401 0.73403 0.65546 0.0
H627 H 0.16255 0.72973 0.68036 0.0
H628 H 0.14202 0.77309 0.60195 0.0
H629 H 0.08417 0.7654 0.66801 0.0
H630 H 0.11 0.76893 0.67484 0.0
H631 H 0.10084 0.74472 0.66745 0.0
C632 C 0.17172 0.7769 0.66254 0.0
C633 C 0.17476 0.75898 0.67424 0.0
C634 C 0.15514 0.77944 0.6486 0.0
C635 C 0.14119 0.76418 0.64612 0.0
C636 C 0.14431 0.7462 0.65751 0.0
H637 H 0.04242 0.73437 0.56284 0.0
H638 H 0.06979 0.73677 0.58968 0.0
C639 C 0.16083 0.74366 0.6715 0.0
C640 C 0.12375 0.76674 0.63103 0.0
H641 H 0.07329 0.76273 0.62944 0.0
C642 C 0.12697 0.7711 0.60801 0.0
C643 C 0.1041 0.76425 0.63897 0.0
C644 C 0.09953 0.76077 0.66372 0.0
C645 C 0.11115 0.77217 0.59257 0.0
C646 C 0.09161 0.76896 0.6004 0.0
C647 C 0.08832 0.76514 0.62349 0.0
C648 C 0.07453 0.76812 0.58462 0.0
C649 C 0.11548 0.77594 0.56783 0.0
C650 C 0.06789 0.78506 0.57312 0.0
C651 C 0.0521 0.78378 0.55775 0.0
C652 C 0.04277 0.7655 0.55359 0.0
C653 C 0.0493 0.74867 0.56551 0.0
C654 C 0.06494 0.75 0.58092 0.0
H655 H 0.13158 0.77519 0.56399 0.0
H656 H 0.1076 0.76499 0.55704 0.0
H657 H 0.11005 0.7909 0.56317 0.0
H658 H 0.07499 0.79924 0.57595 0.0
H659 H 0.04742 0.79701 0.54887 0.0
H660 H 0.26132 0.15787 0.69404 0.0
H661 H 0.25857 0.12944 0.66845 0.0
H662 H 0.21815 0.16218 0.62612 0.0
H663 H 0.22056 0.19061 0.65177 0.0
H664 H 0.22388 0.10781 0.65425 0.0
H665 H 0.26313 0.14438 0.5826 0.0
H666 H 0.26415 0.15374 0.61128 0.0
H667 H 0.24249 0.15781 0.59425 0.0
C668 C 0.25168 0.15897 0.67942 0.0
C669 C 0.24125 0.17657 0.67489 0.0
C670 C 0.25018 0.14274 0.66479 0.0
C671 C 0.23833 0.14381 0.6453 0.0
C672 C 0.22763 0.16119 0.64089 0.0
H673 H 0.20877 0.0442 0.55537 0.0
H674 H 0.20622 0.0722 0.58184 0.0
C675 C 0.2291 0.17743 0.65552 0.0
C676 C 0.23747 0.12682 0.62941 0.0
H677 H 0.2504 0.11238 0.57588 0.0
C678 C 0.22958 0.10879 0.63707 0.0
C679 C 0.24507 0.12817 0.6071 0.0
C680 C 0.25435 0.14699 0.59827 0.0
C681 C 0.22917 0.09199 0.62298 0.0
C682 C 0.23672 0.09338 0.60066 0.0
C683 C 0.24449 0.11144 0.59298 0.0
C684 C 0.2379 0.07597 0.5854 0.0
C685 C 0.22122 0.07275 0.63225 0.0
C686 C 0.25652 0.06895 0.57859 0.0
C687 C 0.25803 0.05306 0.56355 0.0
C688 C 0.24091 0.04391 0.55483 0.0
C689 C 0.22222 0.05087 0.56183 0.0
C690 C 0.22074 0.0668 0.577 0.0
H691 H 0.21926 0.07326 0.65096 0.0
H692 H 0.20661 0.06961 0.62443 0.0
H693 H 0.23131 0.06031 0.62793 0.0
H694 H 0.26994 0.07584 0.58488 0.0
H695 H 0.27267 0.04813 0.55854 0.0
H696 H 0.82994 0.20658 0.65949 0.0
H697 H 0.85717 0.20423 0.63221 0.0
H698 H 0.87553 0.26352 0.64951 0.0
H699 H 0.84894 0.26569 0.67752 0.0
H700 H 0.86495 0.22652 0.59471 0.0
H701 H 0.92691 0.2331 0.65575 0.0
H702 H 0.90174 0.22844 0.66464 0.0
H703 H 0.90965 0.25322 0.65796 0.0
C704 C 0.83995 0.21902 0.65775 0.0
C705 C 0.83732 0.23628 0.67086 0.0
C706 C 0.85542 0.2177 0.64203 0.0
C707 C 0.86862 0.23355 0.63913 0.0
C708 C 0.86582 0.25092 0.65184 0.0
H709 H 0.96049 0.26941 0.54906 0.0
H710 H 0.93457 0.26535 0.57752 0.0
C711 C 0.85041 0.25224 0.66763 0.0
C712 C 0.88499 0.23217 0.62237 0.0
H713 H 0.93506 0.23753 0.61652 0.0
C714 C 0.88031 0.22866 0.5995 0.0
C715 C 0.90505 0.23483 0.62869 0.0
C716 C 0.91119 0.2374 0.65313 0.0
C717 C 0.89506 0.22861 0.58266 0.0
C718 C 0.91497 0.23201 0.58892 0.0
C719 C 0.91974 0.23498 0.61182 0.0
C720 C 0.93088 0.23395 0.57177 0.0
C721 C 0.88922 0.22568 0.55819 0.0
C722 C 0.93753 0.21752 0.55927 0.0
C723 C 0.9525 0.21975 0.54296 0.0
C724 C 0.96094 0.23847 0.53888 0.0
C725 C 0.95428 0.2548 0.55165 0.0
C726 C 0.93948 0.25252 0.56798 0.0
H727 H 0.87288 0.22579 0.55586 0.0
H728 H 0.89583 0.23747 0.54745 0.0
H729 H 0.89501 0.21125 0.55209 0.0
H730 H 0.93116 0.20302 0.56215 0.0
H731 H 0.95731 0.20689 0.53344 0.0
H732 H 0.73346 0.84798 0.67731 0.0
H733 H 0.73785 0.87455 0.6497 0.0
H734 H 0.79646 0.85294 0.63424 0.0
H735 H 0.79185 0.82573 0.66107 0.0
H736 H 0.7653 0.90427 0.64867 0.0
H737 H 0.77233 0.85737 0.57153 0.0
H738 H 0.76371 0.8477 0.5983 0.0
H739 H 0.78973 0.85172 0.5936 0.0
C740 C 0.74717 0.84865 0.6678 0.0
C741 C 0.76222 0.83457 0.67133 0.0
C742 C 0.74973 0.86397 0.65214 0.0
C743 C 0.76737 0.86559 0.63964 0.0
C744 C 0.78256 0.85177 0.64334 0.0
H745 H 0.79801 0.95461 0.53594 0.0
H746 H 0.80102 0.92849 0.56477 0.0
C747 C 0.77999 0.83636 0.65893 0.0
C748 C 0.76982 0.88195 0.62304 0.0
H749 H 0.77649 0.89185 0.56666 0.0
C750 C 0.76783 0.90154 0.63076 0.0
C751 C 0.7732 0.87839 0.59966 0.0
C752 C 0.7747 0.85767 0.59017 0.0
C753 C 0.76882 0.91761 0.61573 0.0
C754 C 0.77175 0.91402 0.59234 0.0
C755 C 0.77435 0.89452 0.58465 0.0
C756 C 0.77038 0.93015 0.57539 0.0
C757 C 0.76654 0.93835 0.62492 0.0
C758 C 0.75215 0.93956 0.57177 0.0
C759 C 0.75036 0.95428 0.55531 0.0
C760 C 0.76678 0.95998 0.54212 0.0
C761 C 0.78512 0.95063 0.54588 0.0
C762 C 0.78685 0.9357 0.56229 0.0
H763 H 0.7694 0.93899 0.64346 0.0
H764 H 0.77678 0.94873 0.61618 0.0
H765 H 0.75115 0.9435 0.62189 0.0
H766 H 0.7392 0.9353 0.58149 0.0
H767 H 0.73601 0.96115 0.5529 0.0
H768 H 0.84062 0.71396 0.6943 0.0
H769 H 0.86878 0.7085 0.66882 0.0
H770 H 0.84908 0.75667 0.62654 0.0
H771 H 0.82105 0.76243 0.65204 0.0
H772 H 0.86043 0.72133 0.60244 0.0
H773 H 0.91726 0.74616 0.66464 0.0
H774 H 0.90052 0.72718 0.67415 0.0
H775 H 0.89123 0.75152 0.66813 0.0
C776 C 0.84235 0.7235 0.67968 0.0
C777 C 0.82864 0.73873 0.67529 0.0
C778 C 0.85842 0.72031 0.66511 0.0
C779 C 0.86109 0.73231 0.64595 0.0
C780 C 0.84724 0.74723 0.64125 0.0
H781 H 0.95852 0.76265 0.56197 0.0
H782 H 0.93133 0.75977 0.58899 0.0
C783 C 0.83119 0.75045 0.6558 0.0
C784 C 0.87851 0.72966 0.63094 0.0
H785 H 0.92873 0.73552 0.6289 0.0
C786 C 0.8754 0.72424 0.60823 0.0
C787 C 0.89797 0.73361 0.63859 0.0
C788 C 0.90206 0.74009 0.66265 0.0
C789 C 0.89124 0.72298 0.59281 0.0
C790 C 0.91067 0.72711 0.60042 0.0
C791 C 0.91381 0.73218 0.62322 0.0
C792 C 0.92763 0.7282 0.58451 0.0
C793 C 0.88702 0.71803 0.56832 0.0
C794 C 0.93475 0.7113 0.57325 0.0
C795 C 0.95042 0.71287 0.55772 0.0
C796 C 0.95913 0.73139 0.55322 0.0
C797 C 0.95212 0.74817 0.56491 0.0
C798 C 0.93659 0.74656 0.58043 0.0
H799 H 0.87091 0.71822 0.5645 0.0
H800 H 0.89462 0.72867 0.5569 0.0
H801 H 0.89281 0.70301 0.56446 0.0
H802 H 0.92815 0.69694 0.5764 0.0
H803 H 0.9555 0.69966 0.54903 0.0
H804 H 0.29621 0.83975 0.69163 0.0
H805 H 0.30103 0.86834 0.66674 0.0
H806 H 0.25151 0.84965 0.62586 0.0
H807 H 0.24636 0.82119 0.6508 0.0
H808 H 0.28666 0.86104 0.6009 0.0
H809 H 0.26324 0.91704 0.66495 0.0
H810 H 0.28223 0.89997 0.67358 0.0
H811 H 0.2577 0.89101 0.66791 0.0
C812 C 0.28623 0.84181 0.67746 0.0
C813 C 0.27081 0.82825 0.67329 0.0
C814 C 0.28906 0.85811 0.66323 0.0
C815 C 0.27651 0.86116 0.64463 0.0
C816 C 0.26136 0.8475 0.64014 0.0
H817 H 0.24455 0.95924 0.56318 0.0
H818 H 0.24799 0.93186 0.58974 0.0
C819 C 0.25849 0.83122 0.65437 0.0
C820 C 0.27889 0.87875 0.62995 0.0
H821 H 0.27308 0.92895 0.62914 0.0
C822 C 0.28389 0.87592 0.60706 0.0
C823 C 0.27513 0.89808 0.63813 0.0
C824 C 0.26913 0.90183 0.66243 0.0
C825 C 0.2849 0.89196 0.59197 0.0
C826 C 0.28093 0.91126 0.6001 0.0
C827 C 0.27629 0.91412 0.62308 0.0
C828 C 0.27952 0.92839 0.58458 0.0
C829 C 0.28939 0.88808 0.56728 0.0
C830 C 0.29623 0.9357 0.57312 0.0
C831 C 0.29434 0.95147 0.55785 0.0
C832 C 0.27569 0.96008 0.55383 0.0
C833 C 0.25911 0.95291 0.56575 0.0
C834 C 0.26104 0.93728 0.58101 0.0
H835 H 0.28918 0.87203 0.56314 0.0
H836 H 0.27849 0.89579 0.55629 0.0
H837 H 0.30431 0.89398 0.56315 0.0
H838 H 0.31067 0.92914 0.57589 0.0
H839 H 0.30739 0.95669 0.54897 0.0
H840 H 0.16326 0.29883 0.67657 0.0
H841 H 0.13549 0.30283 0.65034 0.0
H842 H 0.1401 0.24134 0.63134 0.0
H843 H 0.16822 0.23726 0.65705 0.0
H844 H 0.13524 0.29393 0.60132 0.0
H845 H 0.08093 0.25006 0.65122 0.0
H846 H 0.10318 0.26034 0.66355 0.0
H847 H 0.10447 0.23825 0.64659 0.0
C848 C 0.15853 0.28619 0.66664 0.0
C849 C 0.16798 0.2677 0.66893 0.0
C850 C 0.14259 0.2885 0.65179 0.0
C851 C 0.13567 0.27233 0.63916 0.0
C852 C 0.14507 0.25391 0.64126 0.0
H853 H 0.0492 0.24238 0.5409 0.0
H854 H 0.07493 0.24479 0.56961 0.0
C855 C 0.16109 0.25159 0.656 0.0
C856 C 0.11878 0.27471 0.6235 0.0
H857 H 0.07176 0.25846 0.61355 0.0
C858 C 0.12125 0.28639 0.60403 0.0
C859 C 0.1006 0.2649 0.62727 0.0
C860 C 0.09698 0.2528 0.64838 0.0
C861 C 0.10627 0.28773 0.58759 0.0
C862 C 0.08827 0.27742 0.59105 0.0
C863 C 0.08559 0.26632 0.61094 0.0
C864 C 0.07263 0.27656 0.57349 0.0
C865 C 0.11018 0.29937 0.56621 0.0
C866 C 0.06269 0.29368 0.56619 0.0
C867 C 0.04793 0.29239 0.54956 0.0
C868 C 0.0428 0.27392 0.54018 0.0
C869 C 0.05272 0.25685 0.54775 0.0
C870 C 0.06745 0.25817 0.5642 0.0
H871 H 0.12614 0.30298 0.56414 0.0
H872 H 0.10515 0.29102 0.55104 0.0
H873 H 0.10179 0.31349 0.56691 0.0
H874 H 0.06623 0.30798 0.57346 0.0
H875 H 0.04048 0.30578 0.54417 0.0
H876 H 0.76136 0.14236 0.68966 0.0
H877 H 0.75464 0.11677 0.66126 0.0
H878 H 0.71709 0.15733 0.62473 0.0
H879 H 0.72364 0.18301 0.65312 0.0
H880 H 0.71843 0.09987 0.6462 0.0
H881 H 0.75815 0.13965 0.57718 0.0
H882 H 0.76062 0.14647 0.60665 0.0
H883 H 0.73884 0.15342 0.59108 0.0
C884 C 0.75151 0.14579 0.67571 0.0
C885 C 0.74316 0.16478 0.67355 0.0
C886 C 0.74772 0.13116 0.65949 0.0
C887 C 0.73556 0.13524 0.64077 0.0
C888 C 0.7268 0.154 0.63884 0.0
H889 H 0.70003 0.04285 0.54235 0.0
H890 H 0.69803 0.06966 0.57052 0.0
C891 C 0.73061 0.16866 0.65503 0.0
C892 C 0.73262 0.11998 0.62299 0.0
H893 H 0.74328 0.10923 0.5677 0.0
C894 C 0.72369 0.10194 0.62897 0.0
C895 C 0.73964 0.12273 0.60059 0.0
C896 C 0.75 0.14153 0.59343 0.0
C897 C 0.72192 0.0864 0.6132 0.0
C898 C 0.7291 0.08911 0.59088 0.0
C899 C 0.73764 0.10729 0.5848 0.0
C900 C 0.72979 0.07269 0.5742 0.0
C901 C 0.71312 0.06695 0.62074 0.0
C902 C 0.74825 0.06569 0.56684 0.0
C903 C 0.74944 0.05054 0.55083 0.0
C904 C 0.73216 0.04205 0.54169 0.0
C905 C 0.7136 0.04903 0.54911 0.0
C906 C 0.71243 0.06428 0.56525 0.0
H907 H 0.71115 0.06626 0.63945 0.0
H908 H 0.6984 0.06498 0.61268 0.0
H909 H 0.72269 0.05443 0.61531 0.0
H910 H 0.76181 0.07198 0.57353 0.0
H911 H 0.764 0.04558 0.54555 0.0
H912 H 0.82978 0.30339 0.32327 0.0
H913 H 0.85925 0.30797 0.34689 0.0
H914 H 0.86026 0.24541 0.36127 0.0
H915 H 0.83052 0.24071 0.33829 0.0
H916 H 0.86402 0.29596 0.39519 0.0
H917 H 0.91694 0.25978 0.33598 0.0
H918 H 0.89323 0.26934 0.32692 0.0
H919 H 0.89462 0.24606 0.34152 0.0
C920 C 0.83613 0.29062 0.33164 0.0
C921 C 0.82779 0.27165 0.32881 0.0
C922 C 0.85303 0.29327 0.345 0.0
C923 C 0.862 0.277 0.35553 0.0
C924 C 0.85369 0.2581 0.35293 0.0
H925 H 0.9554 0.24432 0.44268 0.0
H926 H 0.9284 0.24801 0.41575 0.0
C927 C 0.83674 0.25544 0.33972 0.0
C928 C 0.8799 0.27964 0.3696 0.0
H929 H 0.92831 0.26565 0.37358 0.0
C930 C 0.87819 0.28961 0.39041 0.0
C931 C 0.89829 0.27138 0.36316 0.0
C932 C 0.90103 0.26117 0.34059 0.0
C933 C 0.8942 0.29057 0.40559 0.0
C934 C 0.91243 0.28167 0.39948 0.0
C935 C 0.91431 0.27244 0.37822 0.0
C936 C 0.92913 0.28003 0.41564 0.0
C937 C 0.89116 0.30016 0.42847 0.0
C938 C 0.93869 0.29687 0.42439 0.0
C939 C 0.95419 0.29482 0.44 0.0
C940 C 0.96044 0.2759 0.44693 0.0
C941 C 0.95101 0.25913 0.43777 0.0
C942 C 0.93555 0.26119 0.42232 0.0
H943 H 0.87524 0.30283 0.43218 0.0
H944 H 0.89746 0.29081 0.44216 0.0
H945 H 0.89891 0.31465 0.4288 0.0
H946 H 0.93418 0.31155 0.41912 0.0
H947 H 0.96122 0.30802 0.44666 0.0
H948 H 0.73484 0.81184 0.35649 0.0
H949 H 0.72956 0.84062 0.38104 0.0
H950 H 0.73097 0.87892 0.32248 0.0
H951 H 0.73713 0.8502 0.29805 0.0
H952 H 0.75284 0.8938 0.35354 0.0
H953 H 0.68218 0.87338 0.39449 0.0
H954 H 0.70035 0.85441 0.39876 0.0
H955 H 0.69193 0.85996 0.37045 0.0
C956 C 0.73379 0.8264 0.34889 0.0
C957 C 0.73639 0.82884 0.32542 0.0
C958 C 0.73059 0.84284 0.36289 0.0
C959 C 0.72941 0.86197 0.35362 0.0
C960 C 0.73172 0.86434 0.33007 0.0
H961 H 0.70042 0.96436 0.44094 0.0
H962 H 0.69806 0.93815 0.41205 0.0
C963 C 0.73528 0.84795 0.31612 0.0
C964 C 0.72741 0.87963 0.3686 0.0
H965 H 0.70157 0.89839 0.41368 0.0
C966 C 0.74143 0.89488 0.36646 0.0
C967 C 0.7123 0.88138 0.38521 0.0
C968 C 0.69572 0.86649 0.38719 0.0
C969 C 0.7413 0.91132 0.381 0.0
C970 C 0.72721 0.91225 0.3988 0.0
C971 C 0.7126 0.89751 0.40032 0.0
C972 C 0.72816 0.92782 0.41659 0.0
C973 C 0.75631 0.92755 0.37708 0.0
C974 C 0.74562 0.93035 0.42913 0.0
C975 C 0.74708 0.94536 0.44529 0.0
C976 C 0.73093 0.95796 0.4497 0.0
C977 C 0.71312 0.95494 0.43783 0.0
C978 C 0.71177 0.93999 0.42135 0.0
H979 H 0.76092 0.92816 0.35899 0.0
H980 H 0.75036 0.94226 0.38203 0.0
H981 H 0.76974 0.92449 0.38733 0.0
H982 H 0.75824 0.92072 0.42636 0.0
H983 H 0.7609 0.94703 0.45441 0.0
H984 H 0.18863 0.72497 0.35908 0.0
H985 H 0.16198 0.71816 0.38611 0.0
H986 H 0.12024 0.74724 0.34195 0.0
H987 H 0.14661 0.7534 0.31443 0.0
H988 H 0.13939 0.74471 0.40862 0.0
H989 H 0.09121 0.69626 0.35674 0.0
H990 H 0.11645 0.70191 0.34886 0.0
H991 H 0.09685 0.71917 0.34277 0.0
C992 C 0.17372 0.72961 0.35492 0.0
C993 C 0.16976 0.73969 0.33454 0.0
C994 C 0.15852 0.72578 0.37044 0.0
C995 C 0.13905 0.73186 0.36586 0.0
C996 C 0.13505 0.74198 0.3456 0.0
H997 H 0.04554 0.76309 0.45506 0.0
H998 H 0.07318 0.76029 0.42873 0.0
C999 C 0.15022 0.74578 0.33004 0.0
C1000 C 0.12317 0.72883 0.38293 0.0
H1001 H 0.07621 0.7109 0.38983 0.0
C1002 C 0.12569 0.73708 0.40459 0.0
C1003 C 0.10543 0.71859 0.37781 0.0
C1004 C 0.10238 0.7083 0.35535 0.0
C1005 C 0.11057 0.73622 0.42089 0.0
C1006 C 0.09233 0.72717 0.41524 0.0
C1007 C 0.09014 0.71804 0.394 0.0
C1008 C 0.075 0.72836 0.4306 0.0
C1009 C 0.11416 0.74526 0.44396 0.0
C1010 C 0.06639 0.71123 0.4398 0.0
C1011 C 0.0504 0.71274 0.45491 0.0
C1012 C 0.04276 0.73143 0.46088 0.0
C1013 C 0.05113 0.74846 0.45104 0.0
C1014 C 0.06702 0.74692 0.43603 0.0
H1015 H 0.13024 0.74621 0.44785 0.0
H1016 H 0.10804 0.76051 0.44427 0.0
H1017 H 0.10674 0.73655 0.4575 0.0
H1018 H 0.07227 0.69675 0.43562 0.0
H1019 H 0.04424 0.69935 0.46214 0.0
H1020 H 0.28522 0.18937 0.36147 0.0
H1021 H 0.29019 0.16243 0.38855 0.0
H1022 H 0.25963 0.12226 0.34369 0.0
H1023 H 0.25525 0.14891 0.31613 0.0
H1024 H 0.2622 0.14065 0.41045 0.0
H1025 H 0.30984 0.09152 0.35847 0.0
H1026 H 0.30518 0.11704 0.35106 0.0
H1027 H 0.28725 0.09819 0.34438 0.0
C1028 C 0.2798 0.17474 0.35721 0.0
C1029 C 0.26992 0.17127 0.33658 0.0
C1030 C 0.28258 0.15939 0.37275 0.0
C1031 C 0.27561 0.14028 0.36793 0.0
C1032 C 0.26553 0.1368 0.3475 0.0
H1033 H 0.24278 0.04689 0.45693 0.0
H1034 H 0.2456 0.07451 0.43064 0.0
C1035 C 0.26278 0.15212 0.33193 0.0
C1036 C 0.27794 0.12421 0.38479 0.0
H1037 H 0.29498 0.07695 0.39148 0.0
C1038 C 0.26956 0.12681 0.40638 0.0
C1039 C 0.28786 0.10629 0.37959 0.0
C1040 C 0.29823 0.10313 0.35719 0.0
C1041 C 0.27006 0.11165 0.42258 0.0
C1042 C 0.27886 0.0933 0.41688 0.0
C1043 C 0.28805 0.09097 0.39568 0.0
C1044 C 0.27758 0.07605 0.43224 0.0
C1045 C 0.26099 0.11535 0.44562 0.0
C1046 C 0.29472 0.06732 0.44124 0.0
C1047 C 0.29319 0.05136 0.4563 0.0
C1048 C 0.27448 0.04387 0.46241 0.0
C1049 C 0.25742 0.05237 0.45278 0.0
C1050 C 0.25898 0.06824 0.43781 0.0
H1051 H 0.26018 0.13143 0.44954 0.0
H1052 H 0.24567 0.10938 0.44586 0.0
H1053 H 0.26959 0.10786 0.45918 0.0
H1054 H 0.30922 0.07308 0.43695 0.0
H1055 H 0.30659 0.04509 0.46337 0.0
H1056 H 0.67834 0.74815 0.85435 0.0
H1057 H 0.65108 0.75228 0.88125 0.0
H1058 H 0.62715 0.79944 0.84038 0.0
H1059 H 0.6546 0.79567 0.81348 0.0
H1060 H 0.63913 0.78714 0.9061 0.0
H1061 H 0.58081 0.75928 0.84747 0.0
H1062 H 0.60688 0.75514 0.84245 0.0
H1063 H 0.59621 0.779 0.83699 0.0
C1064 C 0.66744 0.75958 0.85117 0.0
C1065 C 0.66867 0.77156 0.8317 0.0
C1066 C 0.65182 0.76185 0.86653 0.0
C1067 C 0.63702 0.77604 0.86269 0.0
C1068 C 0.63828 0.7882 0.84346 0.0
H1069 H 0.54526 0.80417 0.96466 0.0
H1070 H 0.57152 0.80799 0.93611 0.0
C1071 C 0.65394 0.78597 0.82809 0.0
C1072 C 0.6202 0.77778 0.87875 0.0
H1073 H 0.57055 0.76915 0.88396 0.0
C1074 C 0.62409 0.7834 0.90125 0.0
C1075 C 0.60065 0.77275 0.87235 0.0
C1076 C 0.59578 0.76606 0.84856 0.0
C1077 C 0.60896 0.78381 0.91765 0.0
C1078 C 0.58945 0.77858 0.91129 0.0
C1079 C 0.58551 0.7733 0.8887 0.0
C1080 C 0.57331 0.77673 0.92822 0.0
C1081 C 0.61406 0.78905 0.94184 0.0
C1082 C 0.56546 0.75798 0.93294 0.0
C1083 C 0.55055 0.75575 0.94915 0.0
C1084 C 0.54305 0.77227 0.96093 0.0
C1085 C 0.55074 0.79114 0.95594 0.0
C1086 C 0.56579 0.79335 0.93971 0.0
H1087 H 0.63032 0.78975 0.94464 0.0
H1088 H 0.60765 0.80375 0.94604 0.0
H1089 H 0.60759 0.77805 0.95371 0.0
H1090 H 0.57105 0.74498 0.92423 0.0
H1091 H 0.54495 0.741 0.95246 0.0
H1092 H 0.27694 0.64576 0.80328 0.0
H1093 H 0.27985 0.6183 0.83017 0.0
H1094 H 0.24125 0.6489 0.87685 0.0
H1095 H 0.23812 0.67632 0.85003 0.0
H1096 H 0.27623 0.63385 0.89685 0.0
H1097 H 0.23701 0.5769 0.84552 0.0
H1098 H 0.25711 0.58936 0.8315 0.0
H1099 H 0.23534 0.60303 0.83941 0.0
C1100 C 0.26883 0.64651 0.81912 0.0
C1101 C 0.25723 0.6632 0.82448 0.0
C1102 C 0.27056 0.63084 0.83448 0.0
C1103 C 0.26064 0.63152 0.8554 0.0
C1104 C 0.24905 0.64812 0.8608 0.0
H1105 H 0.22851 0.54403 0.95238 0.0
H1106 H 0.23127 0.56897 0.92276 0.0
C1107 C 0.24732 0.66379 0.84548 0.0
C1108 C 0.26245 0.61508 0.87189 0.0
H1109 H 0.25063 0.5665 0.88037 0.0
C1110 C 0.27076 0.61908 0.89324 0.0
C1111 C 0.25519 0.59589 0.8671 0.0
C1112 C 0.24551 0.59097 0.84473 0.0
C1113 C 0.27174 0.60443 0.91009 0.0
C1114 C 0.26443 0.58526 0.90532 0.0
C1115 C 0.25639 0.58118 0.88386 0.0
C1116 C 0.2633 0.56973 0.92301 0.0
C1117 C 0.27989 0.60978 0.93313 0.0
C1118 C 0.28046 0.56172 0.93285 0.0
C1119 C 0.27895 0.54737 0.94993 0.0
C1120 C 0.26025 0.54083 0.95737 0.0
C1121 C 0.24316 0.54875 0.94717 0.0
C1122 C 0.24469 0.56299 0.93016 0.0
H1123 H 0.28158 0.62604 0.93528 0.0
H1124 H 0.27008 0.6041 0.94678 0.0
H1125 H 0.29467 0.60284 0.93525 0.0
H1126 H 0.29498 0.56655 0.92732 0.0
H1127 H 0.29239 0.54151 0.95737 0.0
H1128 H 0.3219 0.29354 0.83956 0.0
H1129 H 0.35083 0.29558 0.86436 0.0
H1130 H 0.36739 0.2361 0.84557 0.0
H1131 H 0.33897 0.23421 0.82 0.0
H1132 H 0.36075 0.273 0.90111 0.0
H1133 H 0.41851 0.26624 0.83466 0.0
H1134 H 0.39287 0.27117 0.82807 0.0
H1135 H 0.40093 0.24632 0.83407 0.0
C1136 C 0.33184 0.28098 0.84044 0.0
C1137 C 0.32818 0.26376 0.82761 0.0
C1138 C 0.3483 0.28213 0.85475 0.0
C1139 C 0.36148 0.26615 0.85649 0.0
C1140 C 0.35767 0.24879 0.84409 0.0
H1141 H 0.46005 0.23149 0.93776 0.0
H1142 H 0.43272 0.23516 0.91107 0.0
C1143 C 0.34125 0.24764 0.82971 0.0
C1144 C 0.37891 0.2674 0.87173 0.0
H1145 H 0.42926 0.26235 0.87302 0.0
C1146 C 0.37575 0.27091 0.89494 0.0
C1147 C 0.39849 0.26478 0.86362 0.0
C1148 C 0.40296 0.26212 0.83871 0.0
C1149 C 0.39157 0.27108 0.9104 0.0
C1150 C 0.41105 0.26786 0.90236 0.0
C1151 C 0.41428 0.2648 0.8791 0.0
C1152 C 0.42811 0.26626 0.91801 0.0
C1153 C 0.3873 0.27396 0.93532 0.0
C1154 C 0.43479 0.28268 0.93049 0.0
C1155 C 0.45054 0.28067 0.94579 0.0
C1156 C 0.45977 0.26219 0.94886 0.0
C1157 C 0.45323 0.24592 0.93593 0.0
C1158 C 0.43763 0.24797 0.92062 0.0
H1159 H 0.37121 0.27305 0.93917 0.0
H1160 H 0.39522 0.26266 0.94556 0.0
H1161 H 0.3927 0.28876 0.94069 0.0
H1162 H 0.42776 0.29699 0.92848 0.0
H1163 H 0.45524 0.29348 0.95547 0.0
H1164 H 0.79149 0.33971 0.81063 0.0
H1165 H 0.79441 0.3684 0.83581 0.0
H1166 H 0.75177 0.34244 0.88144 0.0
H1167 H 0.74853 0.31382 0.85625 0.0
H1168 H 0.76459 0.39462 0.84928 0.0
H1169 H 0.79797 0.35703 0.9236 0.0
H1170 H 0.79728 0.3459 0.89573 0.0
H1171 H 0.77564 0.34554 0.91355 0.0
C1172 C 0.78265 0.34012 0.82597 0.0
C1173 C 0.76978 0.32441 0.8314 0.0
C1174 C 0.78444 0.35648 0.84041 0.0
C1175 C 0.77353 0.35743 0.86066 0.0
C1176 C 0.76067 0.34181 0.86616 0.0
H1177 H 0.73904 0.4567 0.94262 0.0
H1178 H 0.74186 0.42912 0.91605 0.0
C1179 C 0.75884 0.32545 0.85172 0.0
C1180 C 0.77497 0.37511 0.87558 0.0
H1181 H 0.78578 0.3898 0.92967 0.0
C1182 C 0.76938 0.3936 0.86681 0.0
C1183 C 0.78148 0.37381 0.89835 0.0
C1184 C 0.78862 0.35455 0.90836 0.0
C1185 C 0.76945 0.41069 0.88042 0.0
C1186 C 0.77506 0.40921 0.90347 0.0
C1187 C 0.78133 0.39087 0.91204 0.0
C1188 C 0.77367 0.42635 0.91919 0.0
C1189 C 0.76349 0.4302 0.87001 0.0
C1190 C 0.7906 0.43379 0.93009 0.0
C1191 C 0.78906 0.44963 0.94538 0.0
C1192 C 0.77049 0.45815 0.95023 0.0
C1193 C 0.75359 0.45058 0.93926 0.0
C1194 C 0.75517 0.43485 0.92395 0.0
H1195 H 0.76491 0.42993 0.85123 0.0
H1196 H 0.74777 0.4333 0.87425 0.0
H1197 H 0.77266 0.44252 0.87678 0.0
H1198 H 0.80501 0.42734 0.92674 0.0
H1199 H 0.80235 0.45503 0.9536 0.0
H1200 H 0.65497 0.22698 0.1799 0.0
H1201 H 0.62947 0.22869 0.15047 0.0
H1202 H 0.63871 0.29164 0.14451 0.0
H1203 H 0.66447 0.29007 0.17359 0.0
H1204 H 0.59783 0.27937 0.14773 0.0
H1205 H 0.63986 0.23808 0.0818 0.0
H1206 H 0.63826 0.22595 0.10887 0.0
H1207 H 0.6516 0.24887 0.10641 0.0
C1208 C 0.65172 0.24116 0.17219 0.0
C1209 C 0.66178 0.25838 0.17911 0.0
C1210 C 0.63713 0.24211 0.15541 0.0
C1211 C 0.63238 0.26026 0.14519 0.0
C1212 C 0.64219 0.2775 0.15221 0.0
H1213 H 0.54354 0.29146 0.0424 0.0
H1214 H 0.56943 0.29344 0.0715 0.0
C1215 C 0.65681 0.27657 0.16893 0.0
C1216 C 0.61708 0.26126 0.12726 0.0
H1217 H 0.60603 0.24468 0.07407 0.0
C1218 C 0.59962 0.27192 0.13154 0.0
C1219 C 0.61958 0.25157 0.10618 0.0
C1220 C 0.63839 0.2406 0.10036 0.0
C1221 C 0.58422 0.27256 0.11554 0.0
C1222 C 0.58658 0.2626 0.09458 0.0
C1223 C 0.60424 0.25228 0.09017 0.0
C1224 C 0.57062 0.26181 0.07735 0.0
C1225 C 0.56531 0.28329 0.12152 0.0
C1226 C 0.56296 0.2434 0.07074 0.0
C1227 C 0.54839 0.24221 0.05405 0.0
C1228 C 0.54113 0.25944 0.04354 0.0
C1229 C 0.54873 0.27793 0.05025 0.0
C1230 C 0.56344 0.2791 0.06696 0.0
H1231 H 0.56411 0.28615 0.14004 0.0
H1232 H 0.56501 0.29777 0.11266 0.0
H1233 H 0.55216 0.27466 0.11601 0.0
H1234 H 0.5683 0.22988 0.07851 0.0
H1235 H 0.54286 0.22772 0.04936 0.0
H1236 H 0.78609 0.68626 0.14695 0.0
H1237 H 0.79009 0.65989 0.11886 0.0
H1238 H 0.76501 0.61784 0.1658 0.0
H1239 H 0.76175 0.64392 0.19436 0.0
H1240 H 0.79741 0.60277 0.14254 0.0
H1241 H 0.74361 0.6373 0.08329 0.0
H1242 H 0.7641 0.65287 0.09094 0.0
H1243 H 0.74648 0.64553 0.11223 0.0
C1244 C 0.78171 0.67135 0.15147 0.0
C1245 C 0.77343 0.66728 0.1729 0.0
C1246 C 0.78381 0.65633 0.13527 0.0
C1247 C 0.77751 0.63697 0.14007 0.0
C1248 C 0.76985 0.63271 0.16166 0.0
H1249 H 0.74135 0.54429 0.05041 0.0
H1250 H 0.74511 0.57083 0.07807 0.0
C1251 C 0.76781 0.64769 0.1779 0.0
C1252 C 0.77827 0.62124 0.12246 0.0
H1253 H 0.75951 0.60817 0.07078 0.0
C1254 C 0.78921 0.60396 0.12679 0.0
C1255 C 0.76739 0.62276 0.10202 0.0
C1256 C 0.75458 0.64051 0.09685 0.0
C1257 C 0.78941 0.58807 0.11134 0.0
C1258 C 0.77861 0.58966 0.09086 0.0
C1259 C 0.76789 0.60705 0.08642 0.0
C1260 C 0.77694 0.57298 0.07451 0.0
C1261 C 0.80057 0.56946 0.11742 0.0
C1262 C 0.79363 0.56529 0.06327 0.0
C1263 C 0.79154 0.54993 0.0474 0.0
C1264 C 0.7727 0.54216 0.04238 0.0
C1265 C 0.75608 0.54991 0.05377 0.0
C1266 C 0.75819 0.56513 0.06962 0.0
H1267 H 0.80443 0.569 0.13573 0.0
H1268 H 0.79172 0.55609 0.11321 0.0
H1269 H 0.81454 0.56886 0.10751 0.0
H1270 H 0.8082 0.57136 0.06648 0.0
H1271 H 0.80462 0.54437 0.03883 0.0
H1272 H 0.33022 0.79836 0.1787 0.0
H1273 H 0.35777 0.80205 0.15198 0.0
H1274 H 0.35102 0.74108 0.1316 0.0
H1275 H 0.323 0.73748 0.15746 0.0
H1276 H 0.39316 0.78251 0.15077 0.0
H1277 H 0.35226 0.76889 0.07094 0.0
H1278 H 0.33984 0.77377 0.0975 0.0
H1279 H 0.34888 0.74931 0.09109 0.0
C1280 C 0.33436 0.78583 0.16824 0.0
C1281 C 0.3243 0.76764 0.17019 0.0
C1282 C 0.35021 0.78793 0.1531 0.0
C1283 C 0.35626 0.77195 0.13951 0.0
C1284 C 0.34636 0.75375 0.14153 0.0
H1285 H 0.45146 0.73855 0.05246 0.0
H1286 H 0.42302 0.74162 0.07779 0.0
C1287 C 0.33048 0.75165 0.15658 0.0
C1288 C 0.37339 0.77397 0.12382 0.0
H1289 H 0.38767 0.76655 0.06883 0.0
C1290 C 0.39192 0.7793 0.13279 0.0
C1291 C 0.37173 0.7699 0.10033 0.0
C1292 C 0.35206 0.76535 0.08935 0.0
C1293 C 0.40898 0.77978 0.1191 0.0
C1294 C 0.40741 0.77491 0.09585 0.0
C1295 C 0.38882 0.77017 0.08672 0.0
C1296 C 0.42505 0.77345 0.08095 0.0
C1297 C 0.42871 0.78471 0.12968 0.0
C1298 C 0.43561 0.7904 0.07431 0.0
C1299 C 0.45192 0.78872 0.05968 0.0
C1300 C 0.45793 0.77006 0.05153 0.0
C1301 C 0.44733 0.75315 0.05843 0.0
C1302 C 0.43102 0.75486 0.07289 0.0
H1303 H 0.42782 0.7856 0.14848 0.0
H1304 H 0.43993 0.7734 0.12495 0.0
H1305 H 0.43392 0.79922 0.12316 0.0
H1306 H 0.43108 0.80491 0.08021 0.0
H1307 H 0.45973 0.80203 0.05466 0.0
H1308 H 0.28302 0.34712 0.1973 0.0
H1309 H 0.28444 0.37556 0.17176 0.0
H1310 H 0.24726 0.34478 0.12385 0.0
H1311 H 0.24635 0.31593 0.14892 0.0
H1312 H 0.27972 0.36329 0.10371 0.0
H1313 H 0.23941 0.41486 0.16095 0.0
H1314 H 0.26079 0.40339 0.1734 0.0
H1315 H 0.23987 0.38844 0.16548 0.0
C1316 C 0.27528 0.3463 0.18124 0.0
C1317 C 0.26453 0.32923 0.17519 0.0
C1318 C 0.27594 0.36267 0.16678 0.0
C1319 C 0.26573 0.36239 0.14607 0.0
C1320 C 0.25515 0.34534 0.13984 0.0
H1321 H 0.22957 0.45738 0.05946 0.0
H1322 H 0.2329 0.43019 0.08629 0.0
C1323 C 0.25451 0.32893 0.15427 0.0
C1324 C 0.2661 0.37982 0.1308 0.0
H1325 H 0.25272 0.42849 0.12727 0.0
C1326 C 0.27387 0.37757 0.10885 0.0
C1327 C 0.25831 0.39838 0.13753 0.0
C1328 C 0.24895 0.40145 0.16054 0.0
C1329 C 0.27398 0.39337 0.09336 0.0
C1330 C 0.26639 0.41198 0.10018 0.0
C1331 C 0.25872 0.41425 0.12218 0.0
C1332 C 0.26487 0.42888 0.08424 0.0
C1333 C 0.28159 0.38982 0.06962 0.0
C1334 C 0.28181 0.43741 0.07439 0.0
C1335 C 0.27996 0.45302 0.0589 0.0
C1336 C 0.26115 0.46041 0.05312 0.0
C1337 C 0.2443 0.45206 0.06344 0.0
C1338 C 0.24616 0.43651 0.07884 0.0
H1339 H 0.28289 0.37378 0.06568 0.0
H1340 H 0.27169 0.39679 0.05689 0.0
H1341 H 0.2965 0.39657 0.06787 0.0
H1342 H 0.29643 0.43197 0.07866 0.0
H1343 H 0.29323 0.45917 0.05133 0.0
H1344 H 0.32899 0.2541 0.14583 0.0
H1345 H 0.35482 0.2461 0.11819 0.0
H1346 H 0.37634 0.19965 0.16185 0.0
H1347 H 0.35044 0.20745 0.18954 0.0
H1348 H 0.40586 0.22458 0.14688 0.0
H1349 H 0.36003 0.19917 0.07464 0.0
H1350 H 0.35234 0.22282 0.08545 0.0
H1351 H 0.35041 0.20123 0.10317 0.0
C1352 C 0.33902 0.24198 0.14939 0.0
C1353 C 0.33767 0.23143 0.16989 0.0
C1354 C 0.35373 0.23738 0.13355 0.0
C1355 C 0.36728 0.22206 0.13781 0.0
C1356 C 0.36595 0.21145 0.15819 0.0
H1357 H 0.45684 0.19157 0.03384 0.0
H1358 H 0.43107 0.18718 0.06297 0.0
C1359 C 0.35124 0.21604 0.17405 0.0
C1360 C 0.38366 0.21813 0.12169 0.0
H1361 H 0.39355 0.20875 0.06587 0.0
C1362 C 0.40319 0.22078 0.12926 0.0
C1363 C 0.38018 0.21287 0.0988 0.0
C1364 C 0.35961 0.20865 0.09006 0.0
C1365 C 0.41924 0.2195 0.11421 0.0
C1366 C 0.41562 0.21568 0.091 0.0
C1367 C 0.39624 0.21183 0.08367 0.0
C1368 C 0.43144 0.21779 0.07382 0.0
C1369 C 0.43992 0.22278 0.12315 0.0
C1370 C 0.43991 0.23646 0.07021 0.0
C1371 C 0.45441 0.23903 0.05365 0.0
C1372 C 0.46078 0.22297 0.04028 0.0
C1373 C 0.4523 0.2042 0.04392 0.0
C1374 C 0.4376 0.20167 0.0605 0.0
H1375 H 0.44081 0.21977 0.14165 0.0
H1376 H 0.45079 0.2132 0.11418 0.0
H1377 H 0.4442 0.23846 0.12033 0.0
H1378 H 0.43511 0.24914 0.08006 0.0
H1379 H 0.46059 0.25369 0.05133 0.0
H1380 H 0.70862 0.3252 0.15799 0.0
H1381 H 0.70679 0.35143 0.12947 0.0
H1382 H 0.74937 0.38584 0.16712 0.0
H1383 H 0.75149 0.35959 0.19562 0.0
H1384 H 0.71595 0.40793 0.15036 0.0
H1385 H 0.75227 0.36211 0.08374 0.0
H1386 H 0.73096 0.35117 0.09708 0.0
H1387 H 0.75294 0.35563 0.11344 0.0
C1388 C 0.71766 0.33831 0.16017 0.0
C1389 C 0.73035 0.34021 0.17899 0.0
C1390 C 0.71655 0.3533 0.14389 0.0
C1391 C 0.72813 0.37044 0.14606 0.0
C1392 C 0.74032 0.3727 0.16516 0.0
H1393 H 0.76697 0.45486 0.04736 0.0
H1394 H 0.76295 0.42965 0.07655 0.0
C1395 C 0.74145 0.35772 0.18146 0.0
C1396 C 0.72808 0.38574 0.12807 0.0
H1397 H 0.74124 0.39386 0.07292 0.0
C1398 C 0.72138 0.40487 0.13338 0.0
C1399 C 0.73536 0.3817 0.10603 0.0
C1400 C 0.74345 0.3616 0.09967 0.0
C1401 C 0.7218 0.42013 0.11719 0.0
C1402 C 0.72898 0.41603 0.09512 0.0
C1403 C 0.73559 0.39688 0.08981 0.0
C1404 C 0.73099 0.43168 0.07767 0.0
C1405 C 0.71515 0.44063 0.12396 0.0
C1406 C 0.7143 0.44114 0.0685 0.0
C1407 C 0.71652 0.45562 0.05169 0.0
C1408 C 0.73549 0.46084 0.04378 0.0
C1409 C 0.75214 0.45127 0.05305 0.0
C1410 C 0.74989 0.43681 0.06974 0.0
H1411 H 0.71356 0.44216 0.14264 0.0
H1412 H 0.72584 0.45193 0.11782 0.0
H1413 H 0.70057 0.44379 0.11607 0.0
H1414 H 0.69956 0.43716 0.07418 0.0
H1415 H 0.70341 0.46267 0.04487 0.0
H1416 H 0.68616 0.75308 0.15035 0.0
H1417 H 0.65763 0.75094 0.12496 0.0
H1418 H 0.63067 0.70772 0.16902 0.0
H1419 H 0.65927 0.70957 0.19444 0.0
H1420 H 0.64119 0.71783 0.10193 0.0
H1421 H 0.58817 0.75142 0.16317 0.0
H1422 H 0.61468 0.7528 0.16688 0.0
H1423 H 0.60168 0.73031 0.17343 0.0
C1424 C 0.6743 0.74292 0.15453 0.0
C1425 C 0.67499 0.73156 0.17451 0.0
C1426 C 0.65795 0.74179 0.14004 0.0
C1427 C 0.64193 0.72937 0.14526 0.0
C1428 C 0.64272 0.71768 0.1649 0.0
H1429 H 0.54497 0.70347 0.05018 0.0
H1430 H 0.57239 0.69984 0.07715 0.0
C1431 C 0.65907 0.71879 0.17942 0.0
C1432 C 0.62433 0.72892 0.13023 0.0
H1433 H 0.57512 0.7406 0.12816 0.0
C1434 C 0.62671 0.72269 0.10766 0.0
C1435 C 0.60551 0.73546 0.13775 0.0
C1436 C 0.60228 0.74304 0.16157 0.0
C1437 C 0.61078 0.72294 0.09234 0.0
C1438 C 0.59194 0.72938 0.09989 0.0
C1439 C 0.58954 0.73549 0.1225 0.0
C1440 C 0.57488 0.7312 0.08421 0.0
C1441 C 0.61436 0.71693 0.06801 0.0
C1442 C 0.56688 0.74995 0.07971 0.0
C1443 C 0.55124 0.75207 0.06443 0.0
C1444 C 0.54315 0.73544 0.05339 0.0
C1445 C 0.55089 0.71658 0.05833 0.0
C1446 C 0.56662 0.71449 0.07363 0.0
H1447 H 0.63042 0.71611 0.06391 0.0
H1448 H 0.60778 0.7021 0.065 0.0
H1449 H 0.6072 0.72753 0.0562 0.0
H1450 H 0.57299 0.76303 0.08775 0.0
H1451 H 0.54563 0.76681 0.06111 0.0
H1452 H 0.21794 0.66201 0.19433 0.0
H1453 H 0.21235 0.63402 0.16878 0.0
H1454 H 0.25424 0.65852 0.12119 0.0
H1455 H 0.26002 0.6866 0.14674 0.0
H1456 H 0.21848 0.64418 0.1012 0.0
H1457 H 0.25297 0.5892 0.15916 0.0
H1458 H 0.23348 0.60386 0.17143 0.0
H1459 H 0.25615 0.61556 0.16274 0.0
C1460 C 0.2261 0.66137 0.17851 0.0
C1461 C 0.23962 0.67639 0.17267 0.0
C1462 C 0.22282 0.64541 0.16392 0.0
C1463 C 0.23309 0.64409 0.14328 0.0
C1464 C 0.24621 0.65929 0.13709 0.0
H1465 H 0.2602 0.54674 0.05724 0.0
H1466 H 0.25881 0.57451 0.08353 0.0
C1467 C 0.24947 0.67531 0.15167 0.0
C1468 C 0.2305 0.62665 0.12836 0.0
H1469 H 0.23873 0.57684 0.12548 0.0
C1470 C 0.22279 0.62943 0.10649 0.0
C1471 C 0.23627 0.60747 0.13536 0.0
C1472 C 0.24533 0.60376 0.15837 0.0
C1473 C 0.22089 0.6135 0.0913 0.0
C1474 C 0.22667 0.59434 0.09832 0.0
C1475 C 0.23414 0.59155 0.12028 0.0
C1476 C 0.22691 0.57732 0.08249 0.0
C1477 C 0.2134 0.61738 0.06761 0.0
C1478 C 0.20935 0.56954 0.07336 0.0
C1479 C 0.21006 0.55354 0.05822 0.0
C1480 C 0.22836 0.54513 0.05204 0.0
C1481 C 0.24584 0.55286 0.06153 0.0
C1482 C 0.2451 0.56874 0.07661 0.0
H1483 H 0.21279 0.63346 0.06369 0.0
H1484 H 0.22301 0.60996 0.05487 0.0
H1485 H 0.19824 0.61121 0.06587 0.0
H1486 H 0.19513 0.57581 0.07798 0.0
H1487 H 0.19634 0.54789 0.05124 0.0
H1488 H 0.35787 0.71745 0.80431 0.0
H1489 H 0.38471 0.71384 0.8319 0.0
H1490 H 0.35087 0.74714 0.88094 0.0
H1491 H 0.32374 0.75026 0.85378 0.0
H1492 H 0.40643 0.74339 0.85228 0.0
H1493 H 0.36761 0.6986 0.91725 0.0
H1494 H 0.35816 0.70171 0.88883 0.0
H1495 H 0.35441 0.72072 0.90982 0.0
C1496 C 0.35601 0.72374 0.82109 0.0
C1497 C 0.33862 0.73411 0.82685 0.0
C1498 C 0.3714 0.72175 0.83678 0.0
C1499 C 0.36966 0.72995 0.85859 0.0
C1500 C 0.35237 0.74034 0.86438 0.0
H1501 H 0.45784 0.76714 0.95329 0.0
H1502 H 0.43282 0.76342 0.92383 0.0
C1503 C 0.33698 0.74234 0.84871 0.0
C1504 C 0.38628 0.72852 0.87494 0.0
H1505 H 0.39786 0.71417 0.92887 0.0
C1506 C 0.40462 0.73681 0.86893 0.0
C1507 C 0.38401 0.71966 0.89653 0.0
C1508 C 0.36505 0.70948 0.90344 0.0
C1509 C 0.42049 0.73721 0.88429 0.0
C1510 C 0.41784 0.72939 0.90635 0.0
C1511 C 0.39979 0.72034 0.91203 0.0
C1512 C 0.43326 0.73138 0.92409 0.0
C1513 C 0.43994 0.74609 0.87679 0.0
C1514 C 0.4415 0.71458 0.93445 0.0
C1515 C 0.45582 0.71665 0.95148 0.0
C1516 C 0.462 0.73557 0.95854 0.0
C1517 C 0.45354 0.75234 0.94821 0.0
C1518 C 0.4393 0.75025 0.93124 0.0
H1519 H 0.44145 0.74592 0.85802 0.0
H1520 H 0.44066 0.76174 0.8825 0.0
H1521 H 0.45268 0.73802 0.88428 0.0
H1522 H 0.43691 0.69988 0.92928 0.0
H1523 H 0.46197 0.70344 0.95913 0.0
H1524 H 0.2507 0.35918 0.81668 0.0
H1525 H 0.24341 0.38446 0.84526 0.0
H1526 H 0.2055 0.34336 0.88064 0.0
H1527 H 0.2127 0.31797 0.85209 0.0
H1528 H 0.20678 0.40091 0.85972 0.0
H1529 H 0.24576 0.36081 0.92903 0.0
H1530 H 0.24871 0.35421 0.89954 0.0
H1531 H 0.22666 0.3472 0.91461 0.0
C1532 C 0.24069 0.35558 0.83044 0.0
C1533 C 0.23241 0.33654 0.83225 0.0
C1534 C 0.23654 0.37002 0.84674 0.0
C1535 C 0.22409 0.36569 0.86515 0.0
C1536 C 0.21542 0.34687 0.86675 0.0
H1537 H 0.19165 0.45961 0.96362 0.0
H1538 H 0.18787 0.43223 0.9364 0.0
C1539 C 0.21961 0.33238 0.85049 0.0
C1540 C 0.2208 0.38077 0.88299 0.0
H1541 H 0.23161 0.39159 0.93815 0.0
C1542 C 0.21197 0.39884 0.87696 0.0
C1543 C 0.2277 0.37796 0.9054 0.0
C1544 C 0.23788 0.35908 0.91261 0.0
C1545 C 0.2104 0.41444 0.89262 0.0
C1546 C 0.2177 0.41176 0.91486 0.0
C1547 C 0.2259 0.39347 0.92109 0.0
C1548 C 0.21937 0.42841 0.93104 0.0
C1549 C 0.20187 0.43399 0.88504 0.0
C1550 C 0.23827 0.43514 0.93706 0.0
C1551 C 0.24047 0.45059 0.95248 0.0
C1552 C 0.22379 0.45967 0.96234 0.0
C1553 C 0.20478 0.45296 0.95627 0.0
C1554 C 0.20259 0.43739 0.9407 0.0
H1555 H 0.19911 0.43437 0.86646 0.0
H1556 H 0.18762 0.43664 0.89393 0.0
H1557 H 0.21207 0.44629 0.88953 0.0
H1558 H 0.25139 0.4284 0.92975 0.0
H1559 H 0.25534 0.45534 0.95672 0.0
H1560 H 0.67614 0.20635 0.82639 0.0
H1561 H 0.64658 0.20282 0.85002 0.0
H1562 H 0.65216 0.26357 0.87156 0.0
H1563 H 0.68214 0.26716 0.8485 0.0
H1564 H 0.64303 0.21116 0.89969 0.0
H1565 H 0.59431 0.25705 0.84484 0.0
H1566 H 0.61698 0.24592 0.83461 0.0
H1567 H 0.61791 0.26769 0.85209 0.0
C1568 C 0.6713 0.21891 0.8364 0.0
C1569 C 0.68158 0.23706 0.83555 0.0
C1570 C 0.65432 0.21687 0.84976 0.0
C1571 C 0.64715 0.23298 0.8623 0.0
C1572 C 0.65737 0.25105 0.86171 0.0
H1573 H 0.55043 0.26098 0.94967 0.0
H1574 H 0.57881 0.25974 0.92424 0.0
C1575 C 0.67445 0.25308 0.84847 0.0
C1576 C 0.62895 0.2309 0.87607 0.0
H1577 H 0.5813 0.24727 0.88042 0.0
C1578 C 0.62945 0.2189 0.89546 0.0
C1579 C 0.61133 0.24099 0.87034 0.0
C1580 C 0.60992 0.25354 0.84925 0.0
C1581 C 0.61293 0.21735 0.90988 0.0
C1582 C 0.59536 0.22773 0.90436 0.0
C1583 C 0.59477 0.23932 0.8846 0.0
C1584 C 0.57788 0.22797 0.91961 0.0
C1585 C 0.61471 0.20531 0.93133 0.0
C1586 C 0.56773 0.21049 0.92529 0.0
C1587 C 0.55145 0.21111 0.94006 0.0
C1588 C 0.54497 0.22926 0.94914 0.0
C1589 C 0.55498 0.24673 0.943 0.0
C1590 C 0.57124 0.24607 0.92843 0.0
H1591 H 0.63041 0.2021 0.93562 0.0
H1592 H 0.60776 0.21314 0.94588 0.0
H1593 H 0.60695 0.19097 0.929 0.0
H1594 H 0.57236 0.1964 0.91828 0.0
H1595 H 0.54399 0.19742 0.94435 0.0
H1596 H 0.76547 0.66387 0.82294 0.0
H1597 H 0.76272 0.63587 0.84893 0.0
H1598 H 0.70422 0.65502 0.86847 0.0
H1599 H 0.707 0.68351 0.84295 0.0
H1600 H 0.75384 0.63955 0.8986 0.0
H1601 H 0.69941 0.59427 0.85003 0.0
H1602 H 0.71469 0.61286 0.8366 0.0
H1603 H 0.69417 0.6202 0.85402 0.0
C1604 C 0.75206 0.6623 0.83289 0.0
C1605 C 0.73649 0.67606 0.8309 0.0
C1606 C 0.75047 0.64618 0.8476 0.0
C1607 C 0.73322 0.64332 0.86044 0.0
C1608 C 0.71756 0.65685 0.85845 0.0
H1609 H 0.70537 0.5478 0.95614 0.0
H1610 H 0.70284 0.57647 0.93075 0.0
C1611 C 0.71917 0.67309 0.84381 0.0
C1612 C 0.73206 0.62654 0.87652 0.0
H1613 H 0.71072 0.58125 0.88476 0.0
C1614 C 0.74437 0.62682 0.89565 0.0
C1615 C 0.71953 0.61011 0.87268 0.0
C1616 C 0.70622 0.60913 0.85219 0.0
C1617 C 0.74464 0.61098 0.91101 0.0
C1618 C 0.73267 0.59415 0.90676 0.0
C1619 C 0.71996 0.59411 0.88792 0.0
C1620 C 0.73382 0.57622 0.92123 0.0
C1621 C 0.75765 0.6125 0.93176 0.0
C1622 C 0.7519 0.56624 0.92375 0.0
C1623 C 0.75341 0.55 0.93826 0.0
C1624 C 0.73679 0.5432 0.95037 0.0
C1625 C 0.71846 0.5527 0.9471 0.0
C1626 C 0.71699 0.56908 0.93263 0.0
H1627 H 0.76089 0.62818 0.93613 0.0
H1628 H 0.75063 0.60527 0.94665 0.0
H1629 H 0.77198 0.60502 0.92831 0.0
H1630 H 0.76495 0.57115 0.91463 0.0
H1631 H 0.76771 0.5429 0.94014 0.0
loop_
_geom_bond_atom_site_label_1
_geom_bond_atom_site_label_2
_geom_bond_distance
_geom_bond_site_symmetry_2
_ccdc_geom_bond_type
C0 C1 1.384 . S
C0 C2 1.384 . S
C0 H28 0.931 . S
C1 C0 1.384 . S
C1 C4 1.382 . S
C2 C0 1.384 . S
C2 C3 1.381 . S
C2 H29 0.930 . S
C3 C2 1.381 . S
C3 C5 1.381 . S
C3 C6 1.487 . S
C4 C1 1.382 . S
C4 C5 1.387 . S
C4 H30 0.930 . S
C5 C3 1.381 . S
C5 C4 1.387 . S
C5 H31 0.931 . S
C6 C3 1.487 . S
C6 C13 1.399 . S
C6 N44 1.343 . S
C7 C8 1.384 . S
C7 C9 1.384 . S
C7 H32 0.931 . S
C8 C7 1.384 . S
C8 C11 1.382 . S
C9 C7 1.384 . S
C9 C10 1.381 . S
C9 H33 0.930 . S
C10 C9 1.381 . S
C10 C12 1.381 . S
C10 C13 1.487 . S
C11 C8 1.382 . S
C11 C12 1.387 . S
C11 H34 0.930 . S
C12 C10 1.381 . S
C12 C11 1.387 . S
C12 H35 0.931 . S
C13 C6 1.399 . S
C13 C10 1.487 . S
C13 N45 1.343 . S
C14 C15 1.384 . S
C14 C16 1.384 . S
C14 H36 0.931 . S
C15 C14 1.384 . S
C15 C18 1.382 . S
C16 C14 1.384 . S
C16 C17 1.381 . S
C16 H37 0.930 . S
C17 C16 1.381 . S
C17 C19 1.381 . S
C17 C20 1.487 . S
C18 C15 1.382 . S
C18 C19 1.387 . S
C18 H38 0.930 . S
C19 C17 1.381 . S
C19 C18 1.387 . S
C19 H39 0.931 . S
C20 C17 1.487 . S
C20 C27 1.399 . S
C20 N45 1.343 . S
C21 C22 1.384 . S
C21 C23 1.384 . S
C21 H40 0.931 . S
C22 C21 1.384 . S
C22 C25 1.382 . S
C23 C21 1.384 . S
C23 C24 1.381 . S
C23 H41 0.930 . S
C24 C23 1.381 . S
C24 C26 1.381 . S
C24 C27 1.487 . S
C25 C22 1.382 . S
C25 C26 1.387 . S
C25 H42 0.930 . S
C26 C24 1.381 . S
C26 C25 1.387 . S
C26 H43 0.931 . S
C27 C20 1.399 . S
C27 C24 1.487 . S
C27 N44 1.343 . S
H28 C0 0.931 . S
H29 C2 0.930 . S
H30 C4 0.930 . S
H31 C5 0.931 . S
H32 C7 0.931 . S
H33 C9 0.930 . S
H34 C11 0.930 . S
H35 C12 0.931 . S
H36 C14 0.931 . S
H37 C16 0.930 . S
H38 C18 0.930 . S
H39 C19 0.931 . S
H40 C21 0.931 . S
H41 C23 0.930 . S
H42 C25 0.930 . S
H43 C26 0.931 . S
N44 C6 1.343 . S
N44 C27 1.343 . S
N45 C13 1.343 . S
N45 C20 1.343 . S
C46 C47 1.384 . S
C46 C48 1.384 . S
C46 H74 0.931 . S
C47 C46 1.384 . S
C47 C50 1.382 . S
C48 C46 1.384 . S
C48 C49 1.381 . S
C48 H75 0.930 . S
C49 C48 1.381 . S
C49 C51 1.381 . S
C49 C52 1.487 . S
C50 C47 1.382 . S
C50 C51 1.387 . S
C50 H76 0.930 . S
C51 C49 1.381 . S
C51 C50 1.387 . S
C51 H77 0.931 . S
C52 C49 1.487 . S
C52 C59 1.399 . S
C52 N90 1.343 . S
C53 C54 1.384 . S
C53 C55 1.384 . S
C53 H78 0.931 . S
C54 C53 1.384 . S
C54 C57 1.382 . S
C55 C53 1.384 . S
C55 C56 1.381 . S
C55 H79 0.930 . S
C56 C55 1.381 . S
C56 C58 1.381 . S
C56 C59 1.487 . S
C57 C54 1.382 . S
C57 C58 1.387 . S
C57 H80 0.930 . S
C58 C56 1.381 . S
C58 C57 1.387 . S
C58 H81 0.931 . S
C59 C52 1.399 . S
C59 C56 1.487 . S
C59 N91 1.343 . S
C60 C61 1.384 . S
C60 C62 1.384 . S
C60 H82 0.931 . S
C61 C60 1.384 . S
C61 C64 1.382 . S
C62 C60 1.384 . S
C62 C63 1.381 . S
C62 H83 0.930 . S
C63 C62 1.381 . S
C63 C65 1.381 . S
C63 C66 1.487 . S
C64 C61 1.382 . S
C64 C65 1.387 . S
C64 H84 0.930 . S
C65 C63 1.381 . S
C65 C64 1.387 . S
C65 H85 0.931 . S
C66 C63 1.487 . S
C66 C73 1.399 . S
C66 N91 1.343 . S
C67 C68 1.384 . S
C67 C69 1.384 . S
C67 H86 0.931 . S
C68 C67 1.384 . S
C68 C71 1.382 . S
C69 C67 1.384 . S
C69 C70 1.381 . S
C69 H87 0.930 . S
C70 C69 1.381 . S
C70 C72 1.381 . S
C70 C73 1.487 . S
C71 C68 1.382 . S
C71 C72 1.387 . S
C71 H88 0.930 . S
C72 C70 1.381 . S
C72 C71 1.387 . S
C72 H89 0.931 . S
C73 C66 1.399 . S
C73 C70 1.487 . S
C73 N90 1.343 . S
H74 C46 0.931 . S
H75 C48 0.930 . S
H76 C50 0.930 . S
H77 C51 0.931 . S
H78 C53 0.931 . S
H79 C55 0.930 . S
H80 C57 0.930 . S
H81 C58 0.931 . S
H82 C60 0.931 . S
H83 C62 0.930 . S
H84 C64 0.930 . S
H85 C65 0.931 . S
H86 C67 0.931 . S
H87 C69 0.930 . S
H88 C71 0.930 . S
H89 C72 0.931 . S
N90 C52 1.343 . S
N90 C73 1.343 . S
N91 C59 1.343 . S
N91 C66 1.343 . S
C92 C93 1.384 . S
C92 C94 1.384 . S
C92 H120 0.931 . S
C93 C92 1.384 . S
C93 C96 1.382 . S
C94 C92 1.384 . S
C94 C95 1.381 . S
C94 H121 0.930 . S
C95 C94 1.381 . S
C95 C97 1.381 . S
C95 C98 1.487 . S
C96 C93 1.382 . S
C96 C97 1.387 . S
C96 H122 0.930 . S
C97 C95 1.381 . S
C97 C96 1.387 . S
C97 H123 0.931 . S
C98 C95 1.487 . S
C98 C105 1.399 . S
C98 N136 1.343 . S
C99 C100 1.384 . S
C99 C101 1.384 . S
C99 H124 0.931 . S
C100 C99 1.384 . S
C100 C103 1.382 . S
C101 C99 1.384 . S
C101 C102 1.381 . S
C101 H125 0.930 . S
C102 C101 1.381 . S
C102 C104 1.381 . S
C102 C105 1.487 . S
C103 C100 1.382 . S
C103 C104 1.387 . S
C103 H126 0.930 . S
C104 C102 1.381 . S
C104 C103 1.387 . S
C104 H127 0.931 . S
C105 C98 1.399 . S
C105 C102 1.487 . S
C105 N137 1.343 . S
C106 C107 1.384 . S
C106 C108 1.384 . S
C106 H128 0.931 . S
C107 C106 1.384 . S
C107 C110 1.382 . S
C108 C106 1.384 . S
C108 C109 1.381 . S
C108 H129 0.930 . S
C109 C108 1.381 . S
C109 C111 1.381 . S
C109 C112 1.487 . S
C110 C107 1.382 . S
C110 C111 1.387 . S
C110 H130 0.930 . S
C111 C109 1.381 . S
C111 C110 1.387 . S
C111 H131 0.931 . S
C112 C109 1.487 . S
C112 C119 1.399 . S
C112 N137 1.343 . S
C113 C114 1.384 . S
C113 C115 1.384 . S
C113 H132 0.931 . S
C114 C113 1.384 . S
C114 C117 1.382 . S
C115 C113 1.384 . S
C115 C116 1.381 . S
C115 H133 0.930 . S
C116 C115 1.381 . S
C116 C118 1.381 . S
C116 C119 1.487 . S
C117 C114 1.382 . S
C117 C118 1.387 . S
C117 H134 0.930 . S
C118 C116 1.381 . S
C118 C117 1.387 . S
C118 H135 0.931 . S
C119 C112 1.399 . S
C119 C116 1.487 . S
C119 N136 1.343 . S
H120 C92 0.931 . S
H121 C94 0.930 . S
H122 C96 0.930 . S
H123 C97 0.931 . S
H124 C99 0.931 . S
H125 C101 0.930 . S
H126 C103 0.930 . S
H127 C104 0.931 . S
H128 C106 0.931 . S
H129 C108 0.930 . S
H130 C110 0.930 . S
H131 C111 0.931 . S
H132 C113 0.931 . S
H133 C115 0.930 . S
H134 C117 0.930 . S
H135 C118 0.931 . S
N136 C98 1.343 . S
N136 C119 1.343 . S
N137 C105 1.343 . S
N137 C112 1.343 . S
C138 C139 1.384 . S
C138 C140 1.384 . S
C138 H166 0.931 . S
C139 C138 1.384 . S
C139 C142 1.382 . S
C140 C138 1.384 . S
C140 C141 1.381 . S
C140 H167 0.930 . S
C141 C140 1.381 . S
C141 C143 1.381 . S
C141 C144 1.487 . S
C142 C139 1.382 . S
C142 C143 1.387 . S
C142 H168 0.930 . S
C143 C141 1.381 . S
C143 C142 1.387 . S
C143 H169 0.931 . S
C144 C141 1.487 . S
C144 C151 1.399 . S
C144 N182 1.343 . S
C145 C146 1.384 . S
C145 C147 1.384 . S
C145 H170 0.931 . S
C146 C145 1.384 . S
C146 C149 1.382 . S
C147 C145 1.384 . S
C147 C148 1.381 . S
C147 H171 0.930 . S
C148 C147 1.381 . S
C148 C150 1.381 . S
C148 C151 1.487 . S
C149 C146 1.382 . S
C149 C150 1.387 . S
C149 H172 0.930 . S
C150 C148 1.381 . S
C150 C149 1.387 . S
C150 H173 0.931 . S
C151 C144 1.399 . S
C151 C148 1.487 . S
C151 N183 1.343 . S
C152 C153 1.384 . S
C152 C154 1.384 . S
C152 H174 0.931 . S
C153 C152 1.384 . S
C153 C156 1.382 . S
C154 C152 1.384 . S
C154 C155 1.381 . S
C154 H175 0.930 . S
C155 C154 1.381 . S
C155 C157 1.381 . S
C155 C158 1.487 . S
C156 C153 1.382 . S
C156 C157 1.387 . S
C156 H176 0.930 . S
C157 C155 1.381 . S
C157 C156 1.387 . S
C157 H177 0.931 . S
C158 C155 1.487 . S
C158 C165 1.399 . S
C158 N183 1.343 . S
C159 C160 1.384 . S
C159 C161 1.384 . S
C159 H178 0.931 . S
C160 C159 1.384 . S
C160 C163 1.382 . S
C161 C159 1.384 . S
C161 C162 1.381 . S
C161 H179 0.930 . S
C162 C161 1.381 . S
C162 C164 1.381 . S
C162 C165 1.487 . S
C163 C160 1.382 . S
C163 C164 1.387 . S
C163 H180 0.930 . S
C164 C162 1.381 . S
C164 C163 1.387 . S
C164 H181 0.931 . S
C165 C158 1.399 . S
C165 C162 1.487 . S
C165 N182 1.343 . S
H166 C138 0.931 . S
H167 C140 0.930 . S
H168 C142 0.930 . S
H169 C143 0.931 . S
H170 C145 0.931 . S
H171 C147 0.930 . S
H172 C149 0.930 . S
H173 C150 0.931 . S
H174 C152 0.931 . S
H175 C154 0.930 . S
H176 C156 0.930 . S
H177 C157 0.931 . S
H178 C159 0.931 . S
H179 C161 0.930 . S
H180 C163 0.930 . S
H181 C164 0.931 . S
N182 C144 1.343 . S
N182 C165 1.343 . S
N183 C151 1.343 . S
N183 C158 1.343 . S
C184 C185 1.384 . S
C184 C186 1.384 . S
C184 H212 0.931 . S
C185 C184 1.384 . S
C185 C188 1.382 . S
C186 C184 1.384 . S
C186 C187 1.381 . S
C186 H213 0.930 . S
C187 C186 1.381 . S
C187 C189 1.381 . S
C187 C190 1.487 . S
C188 C185 1.382 . S
C188 C189 1.387 . S
C188 H214 0.930 . S
C189 C187 1.381 . S
C189 C188 1.387 . S
C189 H215 0.931 . S
C190 C187 1.487 . S
C190 C197 1.399 . S
C190 N228 1.343 . S
C191 C192 1.384 . S
C191 C193 1.384 . S
C191 H216 0.931 . S
C192 C191 1.384 . S
C192 C195 1.382 . S
C193 C191 1.384 . S
C193 C194 1.381 . S
C193 H217 0.930 . S
C194 C193 1.381 . S
C194 C196 1.381 . S
C194 C197 1.487 . S
C195 C192 1.382 . S
C195 C196 1.387 . S
C195 H218 0.930 . S
C196 C194 1.381 . S
C196 C195 1.387 . S
C196 H219 0.931 . S
C197 C190 1.399 . S
C197 C194 1.487 . S
C197 N229 1.343 . S
C198 C199 1.384 . S
C198 C200 1.384 . S
C198 H220 0.931 . S
C199 C198 1.384 . S
C199 C202 1.382 . S
C200 C198 1.384 . S
C200 C201 1.381 . S
C200 H221 0.930 . S
C201 C200 1.381 . S
C201 C203 1.381 . S
C201 C204 1.487 . S
C202 C199 1.382 . S
C202 C203 1.387 . S
C202 H222 0.930 . S
C203 C201 1.381 . S
C203 C202 1.387 . S
C203 H223 0.931 . S
C204 C201 1.487 . S
C204 C211 1.399 . S
C204 N229 1.343 . S
C205 C206 1.384 . S
C205 C207 1.384 . S
C205 H224 0.931 . S
C206 C205 1.384 . S
C206 C209 1.382 . S
C207 C205 1.384 . S
C207 C208 1.381 . S
C207 H225 0.930 . S
C208 C207 1.381 . S
C208 C210 1.381 . S
C208 C211 1.487 . S
C209 C206 1.382 . S
C209 C210 1.387 . S
C209 H226 0.930 . S
C210 C208 1.381 . S
C210 C209 1.387 . S
C210 H227 0.931 . S
C211 C204 1.399 . S
C211 C208 1.487 . S
C211 N228 1.343 . S
H212 C184 0.931 . S
H213 C186 0.930 . S
H214 C188 0.930 . S
H215 C189 0.931 . S
H216 C191 0.931 . S
H217 C193 0.930 . S
H218 C195 0.930 . S
H219 C196 0.931 . S
H220 C198 0.931 . S
H221 C200 0.930 . S
H222 C202 0.930 . S
H223 C203 0.931 . S
H224 C205 0.931 . S
H225 C207 0.930 . S
H226 C209 0.930 . S
H227 C210 0.931 . S
N228 C190 1.343 . S
N228 C211 1.343 . S
N229 C197 1.343 . S
N229 C204 1.343 . S
C230 C231 1.384 . S
C230 C232 1.384 . S
C230 H258 0.931 . S
C231 C230 1.384 . S
C231 C234 1.382 . S
C232 C230 1.384 . S
C232 C233 1.381 . S
C232 H259 0.930 . S
C233 C232 1.381 . S
C233 C235 1.381 . S
C233 C236 1.487 . S
C234 C231 1.382 . S
C234 C235 1.387 . S
C234 H260 0.930 . S
C235 C233 1.381 . S
C235 C234 1.387 . S
C235 H261 0.931 . S
C236 C233 1.487 . S
C236 C243 1.399 . S
C236 N274 1.343 . S
C237 C238 1.384 . S
C237 C239 1.384 . S
C237 H262 0.931 . S
C238 C237 1.384 . S
C238 C241 1.382 . S
C239 C237 1.384 . S
C239 C240 1.381 . S
C239 H263 0.930 . S
C240 C239 1.381 . S
C240 C242 1.381 . S
C240 C243 1.487 . S
C241 C238 1.382 . S
C241 C242 1.387 . S
C241 H264 0.930 . S
C242 C240 1.381 . S
C242 C241 1.387 . S
C242 H265 0.931 . S
C243 C236 1.399 . S
C243 C240 1.487 . S
C243 N275 1.343 . S
C244 C245 1.384 . S
C244 C246 1.384 . S
C244 H266 0.931 . S
C245 C244 1.384 . S
C245 C248 1.382 . S
C246 C244 1.384 . S
C246 C247 1.381 . S
C246 H267 0.930 . S
C247 C246 1.381 . S
C247 C249 1.381 . S
C247 C250 1.487 . S
C248 C245 1.382 . S
C248 C249 1.387 . S
C248 H268 0.930 . S
C249 C247 1.381 . S
C249 C248 1.387 . S
C249 H269 0.931 . S
C250 C247 1.487 . S
C250 C257 1.399 . S
C250 N275 1.343 . S
C251 C252 1.384 . S
C251 C253 1.384 . S
C251 H270 0.931 . S
C252 C251 1.384 . S
C252 C255 1.382 . S
C253 C251 1.384 . S
C253 C254 1.381 . S
C253 H271 0.930 . S
C254 C253 1.381 . S
C254 C256 1.381 . S
C254 C257 1.487 . S
C255 C252 1.382 . S
C255 C256 1.387 . S
C255 H272 0.930 . S
C256 C254 1.381 . S
C256 C255 1.387 . S
C256 H273 0.931 . S
C257 C250 1.399 . S
C257 C254 1.487 . S
C257 N274 1.343 . S
H258 C230 0.931 . S
H259 C232 0.930 . S
H260 C234 0.930 . S
H261 C235 0.931 . S
H262 C237 0.931 . S
H263 C239 0.930 . S
H264 C241 0.930 . S
H265 C242 0.931 . S
H266 C244 0.931 . S
H267 C246 0.930 . S
H268 C248 0.930 . S
H269 C249 0.931 . S
H270 C251 0.931 . S
H271 C253 0.930 . S
H272 C255 0.930 . S
H273 C256 0.931 . S
N274 C236 1.343 . S
N274 C257 1.343 . S
N275 C243 1.343 . S
N275 C250 1.343 . S
C276 C277 1.384 . S
C276 C278 1.384 . S
C276 H304 0.931 . S
C277 C276 1.384 . S
C277 C280 1.382 . S
C278 C276 1.384 . S
C278 C279 1.381 . S
C278 H305 0.930 . S
C279 C278 1.381 . S
C279 C281 1.381 . S
C279 C282 1.487 . S
C280 C277 1.382 . S
C280 C281 1.387 . S
C280 H306 0.930 . S
C281 C279 1.381 . S
C281 C280 1.387 . S
C281 H307 0.931 . S
C282 C279 1.487 . S
C282 C289 1.399 . S
C282 N320 1.343 . S
C283 C284 1.384 . S
C283 C285 1.384 . S
C283 H308 0.931 . S
C284 C283 1.384 . S
C284 C287 1.382 . S
C285 C283 1.384 . S
C285 C286 1.381 . S
C285 H309 0.930 . S
C286 C285 1.381 . S
C286 C288 1.381 . S
C286 C289 1.487 . S
C287 C284 1.382 . S
C287 C288 1.387 . S
C287 H310 0.930 . S
C288 C286 1.381 . S
C288 C287 1.387 . S
C288 H311 0.931 . S
C289 C282 1.399 . S
C289 C286 1.487 . S
C289 N321 1.343 . S
C290 C291 1.384 . S
C290 C292 1.384 . S
C290 H312 0.931 . S
C291 C290 1.384 . S
C291 C294 1.382 . S
C292 C290 1.384 . S
C292 C293 1.381 . S
C292 H313 0.930 . S
C293 C292 1.381 . S
C293 C295 1.381 . S
C293 C296 1.487 . S
C294 C291 1.382 . S
C294 C295 1.387 . S
C294 H314 0.930 . S
C295 C293 1.381 . S
C295 C294 1.387 . S
C295 H315 0.931 . S
C296 C293 1.487 . S
C296 C303 1.399 . S
C296 N321 1.343 . S
C297 C298 1.384 . S
C297 C299 1.384 . S
C297 H316 0.931 . S
C298 C297 1.384 . S
C298 C301 1.382 . S
C299 C297 1.384 . S
C299 C300 1.381 . S
C299 H317 0.930 . S
C300 C299 1.381 . S
C300 C302 1.381 . S
C300 C303 1.487 . S
C301 C298 1.382 . S
C301 C302 1.387 . S
C301 H318 0.930 . S
C302 C300 1.381 . S
C302 C301 1.387 . S
C302 H319 0.931 . S
C303 C296 1.399 . S
C303 C300 1.487 . S
C303 N320 1.343 . S
H304 C276 0.931 . S
H305 C278 0.930 . S
H306 C280 0.930 . S
H307 C281 0.931 . S
H308 C283 0.931 . S
H309 C285 0.930 . S
H310 C287 0.930 . S
H311 C288 0.931 . S
H312 C290 0.931 . S
H313 C292 0.930 . S
H314 C294 0.930 . S
H315 C295 0.931 . S
H316 C297 0.931 . S
H317 C299 0.930 . S
H318 C301 0.930 . S
H319 C302 0.931 . S
N320 C282 1.343 . S
N320 C303 1.343 . S
N321 C289 1.343 . S
N321 C296 1.343 . S
C322 C323 1.384 . S
C322 C324 1.384 . S
C322 H350 0.931 . S
C323 C322 1.384 . S
C323 C326 1.382 . S
C324 C322 1.384 . S
C324 C325 1.381 . S
C324 H351 0.930 . S
C325 C324 1.381 . S
C325 C327 1.381 . S
C325 C328 1.487 . S
C326 C323 1.382 . S
C326 C327 1.387 . S
C326 H352 0.930 . S
C327 C325 1.381 . S
C327 C326 1.387 . S
C327 H353 0.931 . S
C328 C325 1.487 . S
C328 C335 1.399 . S
C328 N366 1.343 . S
C329 C330 1.384 . S
C329 C331 1.384 . S
C329 H354 0.931 . S
C330 C329 1.384 . S
C330 C333 1.382 . S
C331 C329 1.384 . S
C331 C332 1.381 . S
C331 H355 0.930 . S
C332 C331 1.381 . S
C332 C334 1.381 . S
C332 C335 1.487 . S
C333 C330 1.382 . S
C333 C334 1.387 . S
C333 H356 0.930 . S
C334 C332 1.381 . S
C334 C333 1.387 . S
C334 H357 0.931 . S
C335 C328 1.399 . S
C335 C332 1.487 . S
C335 N367 1.343 . S
C336 C337 1.384 . S
C336 C338 1.384 . S
C336 H358 0.931 . S
C337 C336 1.384 . S
C337 C340 1.382 . S
C338 C336 1.384 . S
C338 C339 1.381 . S
C338 H359 0.930 . S
C339 C338 1.381 . S
C339 C341 1.381 . S
C339 C342 1.487 . S
C340 C337 1.382 . S
C340 C341 1.387 . S
C340 H360 0.930 . S
C341 C339 1.381 . S
C341 C340 1.387 . S
C341 H361 0.931 . S
C342 C339 1.487 . S
C342 C349 1.399 . S
C342 N367 1.343 . S
C343 C344 1.384 . S
C343 C345 1.384 . S
C343 H362 0.931 . S
C344 C343 1.384 . S
C344 C347 1.382 . S
C345 C343 1.384 . S
C345 C346 1.381 . S
C345 H363 0.930 . S
C346 C345 1.381 . S
C346 C348 1.381 . S
C346 C349 1.487 . S
C347 C344 1.382 . S
C347 C348 1.387 . S
C347 H364 0.930 . S
C348 C346 1.381 . S
C348 C347 1.387 . S
C348 H365 0.931 . S
C349 C342 1.399 . S
C349 C346 1.487 . S
C349 N366 1.343 . S
H350 C322 0.931 . S
H351 C324 0.930 . S
H352 C326 0.930 . S
H353 C327 0.931 . S
H354 C329 0.931 . S
H355 C331 0.930 . S
H356 C333 0.930 . S
H357 C334 0.931 . S
H358 C336 0.931 . S
H359 C338 0.930 . S
H360 C340 0.930 . S
H361 C341 0.931 . S
H362 C343 0.931 . S
H363 C345 0.930 . S
H364 C347 0.930 . S
H365 C348 0.931 . S
N366 C328 1.343 . S
N366 C349 1.343 . S
N367 C335 1.343 . S
N367 C342 1.343 . S
C368 O370 1.247 . S
C368 O372 1.258 . S
C369 O376 1.247 . S
C369 O377 1.258 . S
O370 C368 1.247 . S
O370 Zn371 2.026 . S
Zn371 O370 2.026 . S
Zn371 O375 2.037 1_655 S
Zn371 O377 2.037 1_655 S
Zn371 O378 2.026 . S
O372 C368 1.258 . S
O372 Zn373 2.028 1_655 S
Zn373 O372 2.028 1_455 S
Zn373 O374 2.035 . S
Zn373 O376 2.035 . S
Zn373 O379 2.028 1_455 S
O374 Zn373 2.035 . S
O374 C380 1.247 . S
O375 Zn371 2.037 1_455 S
O375 C380 1.258 . S
O376 C369 1.247 . S
O376 Zn373 2.035 . S
O377 C369 1.258 . S
O377 Zn371 2.037 1_455 S
O378 Zn371 2.026 . S
O378 C381 1.247 . S
O379 Zn373 2.028 1_655 S
O379 C381 1.258 . S
C380 O374 1.247 . S
C380 O375 1.258 . S
C381 O378 1.247 . S
C381 O379 1.258 . S
C382 O384 1.247 . S
C382 O386 1.258 . S
C383 O390 1.247 . S
C383 O391 1.258 . S
O384 C382 1.247 . S
O384 Zn385 2.035 . S
Zn385 O384 2.035 . S
Zn385 O389 2.028 1_545 S
Zn385 O391 2.028 1_545 S
Zn385 O392 2.035 . S
O386 C382 1.258 . S
O386 Zn387 2.037 1_545 S
Zn387 O386 2.037 1_565 S
Zn387 O388 2.026 . S
Zn387 O390 2.026 . S
Zn387 O393 2.037 1_565 S
O388 Zn387 2.026 . S
O388 C394 1.247 . S
O389 Zn385 2.028 1_565 S
O389 C394 1.258 . S
O390 C383 1.247 . S
O390 Zn387 2.026 . S
O391 C383 1.258 . S
O391 Zn385 2.028 1_565 S
O392 Zn385 2.035 . S
O392 C395 1.247 . S
O393 Zn387 2.037 1_545 S
O393 C395 1.258 . S
C394 O388 1.247 . S
C394 O389 1.258 . S
C395 O392 1.247 . S
C395 O393 1.258 . S
C396 O398 1.247 . S
C396 O400 1.258 . S
C397 O404 1.247 . S
C397 O405 1.258 . S
O398 C396 1.247 . S
O398 Zn399 2.026 . S
Zn399 O398 2.026 . S
Zn399 O403 2.037 1_655 S
Zn399 O405 2.037 1_655 S
Zn399 O406 2.026 . S
O400 C396 1.258 . S
O400 Zn401 2.028 1_655 S
Zn401 O400 2.028 1_455 S
Zn401 O402 2.035 . S
Zn401 O404 2.035 . S
Zn401 O407 2.028 1_455 S
O402 Zn401 2.035 . S
O402 C408 1.247 . S
O403 Zn399 2.037 1_455 S
O403 C408 1.258 . S
O404 C397 1.247 . S
O404 Zn401 2.035 . S
O405 C397 1.258 . S
O405 Zn399 2.037 1_455 S
O406 Zn399 2.026 . S
O406 C409 1.247 . S
O407 Zn401 2.028 1_655 S
O407 C409 1.258 . S
C408 O402 1.247 . S
C408 O403 1.258 . S
C409 O406 1.247 . S
C409 O407 1.258 . S
C410 O412 1.247 . S
C410 O414 1.258 . S
C411 O418 1.247 . S
C411 O419 1.258 . S
O412 C410 1.247 . S
O412 Zn413 2.035 . S
Zn413 O412 2.035 . S
Zn413 O417 2.028 1_545 S
Zn413 O419 2.028 1_545 S
Zn413 O420 2.035 . S
O414 C410 1.258 . S
O414 Zn415 2.037 1_545 S
Zn415 O414 2.037 1_565 S
Zn415 O416 2.026 . S
Zn415 O418 2.026 . S
Zn415 O421 2.037 1_565 S
O416 Zn415 2.026 . S
O416 C422 1.247 . S
O417 Zn413 2.028 1_565 S
O417 C422 1.258 . S
O418 C411 1.247 . S
O418 Zn415 2.026 . S
O419 C411 1.258 . S
O419 Zn413 2.028 1_565 S
O420 Zn413 2.035 . S
O420 C423 1.247 . S
O421 Zn415 2.037 1_545 S
O421 C423 1.258 . S
C422 O416 1.247 . S
C422 O417 1.258 . S
C423 O420 1.247 . S
C423 O421 1.258 . S
C424 O426 1.247 . S
C424 O428 1.258 . S
C425 O432 1.247 . S
C425 O433 1.258 . S
O426 C424 1.247 . S
O426 Zn427 2.028 . S
Zn427 O426 2.028 . S
Zn427 O431 2.035 . S
Zn427 O433 2.035 1_554 S
Zn427 O434 2.028 1_554 S
O428 C424 1.258 . S
O428 Zn429 2.035 . S
Zn429 O428 2.035 . S
Zn429 O430 2.028 . S
Zn429 O432 2.028 1_554 S
Zn429 O435 2.035 1_554 S
O430 Zn429 2.028 . S
O430 C436 1.247 . S
O431 Zn427 2.035 . S
O431 C436 1.258 . S
O432 C425 1.247 . S
O432 Zn429 2.028 1_556 S
O433 C425 1.258 . S
O433 Zn427 2.035 1_556 S
O434 Zn427 2.028 1_556 S
O434 C437 1.247 . S
O435 Zn429 2.035 1_556 S
O435 C437 1.258 . S
C436 O430 1.247 . S
C436 O431 1.258 . S
C437 O434 1.247 . S
C437 O435 1.258 . S
C438 O440 1.247 . S
C438 O442 1.258 . S
C439 O446 1.247 . S
C439 O447 1.258 . S
O440 C438 1.247 . S
O440 Zn441 2.028 . S
Zn441 O440 2.028 . S
Zn441 O445 2.035 . S
Zn441 O447 2.035 1_554 S
Zn441 O448 2.028 1_554 S
O442 C438 1.258 . S
O442 Zn443 2.035 . S
Zn443 O442 2.035 . S
Zn443 O444 2.028 . S
Zn443 O446 2.028 1_554 S
Zn443 O449 2.035 1_554 S
O444 Zn443 2.028 . S
O444 C450 1.247 . S
O445 Zn441 2.035 . S
O445 C450 1.258 . S
O446 C439 1.247 . S
O446 Zn443 2.028 1_556 S
O447 C439 1.258 . S
O447 Zn441 2.035 1_556 S
O448 Zn441 2.028 1_556 S
O448 C451 1.247 . S
O449 Zn443 2.035 1_556 S
O449 C451 1.258 . S
C450 O444 1.247 . S
C450 O445 1.258 . S
C451 O448 1.247 . S
C451 O449 1.258 . S
C452 O454 1.247 . S
C452 O456 1.258 . S
C453 O460 1.247 . S
C453 O461 1.258 . S
O454 C452 1.247 . S
O454 Zn455 2.028 1_556 S
Zn455 O454 2.028 1_554 S
Zn455 O459 2.035 1_554 S
Zn455 O461 2.035 . S
Zn455 O462 2.028 . S
O456 C452 1.258 . S
O456 Zn457 2.035 1_556 S
Zn457 O456 2.035 1_554 S
Zn457 O458 2.028 1_554 S
Zn457 O460 2.028 . S
Zn457 O463 2.035 . S
O458 Zn457 2.028 1_556 S
O458 C464 1.247 . S
O459 Zn455 2.035 1_556 S
O459 C464 1.258 . S
O460 C453 1.247 . S
O460 Zn457 2.028 . S
O461 C453 1.258 . S
O461 Zn455 2.035 . S
O462 Zn455 2.028 . S
O462 C465 1.247 . S
O463 Zn457 2.035 . S
O463 C465 1.258 . S
C464 O458 1.247 . S
C464 O459 1.258 . S
C465 O462 1.247 . S
C465 O463 1.258 . S
C466 O468 1.247 . S
C466 O470 1.258 . S
C467 O474 1.247 . S
C467 O475 1.258 . S
O468 C466 1.247 . S
O468 Zn469 2.028 . S
Zn469 O468 2.028 . S
Zn469 O473 2.035 . S
Zn469 O475 2.035 1_554 S
Zn469 O476 2.028 1_554 S
O470 C466 1.258 . S
O470 Zn471 2.035 . S
Zn471 O470 2.035 . S
Zn471 O472 2.028 . S
Zn471 O474 2.028 1_554 S
Zn471 O477 2.035 1_554 S
O472 Zn471 2.028 . S
O472 C478 1.247 . S
O473 Zn469 2.035 . S
O473 C478 1.258 . S
O474 C467 1.247 . S
O474 Zn471 2.028 1_556 S
O475 C467 1.258 . S
O475 Zn469 2.035 1_556 S
O476 Zn469 2.028 1_556 S
O476 C479 1.247 . S
O477 Zn471 2.035 1_556 S
O477 C479 1.258 . S
C478 O472 1.247 . S
C478 O473 1.258 . S
C479 O476 1.247 . S
C479 O477 1.258 . S
H480 C488 0.929 . S
H481 C490 0.930 . S
H482 C492 0.930 . S
H483 C495 0.929 . S
H484 C498 0.930 . S
H485 C500 0.960 . S
H486 C500 0.960 . S
H487 C500 0.960 . S
C488 H480 0.929 . S
C488 C489 1.377 . S
C488 C490 1.384 . S
C489 C488 1.377 . S
C489 C495 1.390 . S
C490 H481 0.930 . S
C490 C488 1.384 . S
C490 C491 1.372 . S
C491 C490 1.372 . S
C491 C492 1.400 . S
C491 C496 1.490 . S
C492 H482 0.930 . S
C492 C491 1.400 . S
C492 C495 1.386 . S
H493 C509 0.930 . S
H494 C510 0.931 . S
C495 H483 0.929 . S
C495 C489 1.390 . S
C495 C492 1.386 . S
C496 C491 1.490 . S
C496 C498 1.395 . S
C496 C499 1.403 . S
H497 C503 0.930 . S
C498 H484 0.930 . S
C498 C496 1.395 . S
C498 C501 1.403 . S
C499 C496 1.403 . S
C499 C500 1.524 . S
C499 C503 1.400 . S
C500 H485 0.960 . S
C500 H486 0.960 . S
C500 H487 0.960 . S
C500 C499 1.524 . S
C501 C498 1.403 . S
C501 C502 1.392 . S
C501 C505 1.495 . S
C502 C501 1.392 . S
C502 C503 1.385 . S
C502 C504 1.478 . S
C503 H497 0.930 . S
C503 C499 1.400 . S
C503 C502 1.385 . S
C504 C502 1.478 . S
C504 C506 1.381 . S
C504 C510 1.383 . S
C505 C501 1.495 . S
C505 H511 0.959 . S
C505 H512 0.961 . S
C505 H513 0.960 . S
C506 C504 1.381 . S
C506 C507 1.394 . S
C506 H514 0.930 . S
C507 C506 1.394 . S
C507 C508 1.383 . S
C507 H515 0.929 . S
C508 C507 1.383 . S
C508 C509 1.377 . S
C509 H493 0.930 . S
C509 C508 1.377 . S
C509 C510 1.379 . S
C510 H494 0.931 . S
C510 C504 1.383 . S
C510 C509 1.379 . S
H511 C505 0.959 . S
H512 C505 0.961 . S
H513 C505 0.960 . S
H514 C506 0.930 . S
H515 C507 0.929 . S
H516 C524 0.929 . S
H517 C526 0.930 . S
H518 C528 0.930 . S
H519 C531 0.929 . S
H520 C534 0.930 . S
H521 C536 0.960 . S
H522 C536 0.960 . S
H523 C536 0.960 . S
C524 H516 0.929 . S
C524 C525 1.377 . S
C524 C526 1.384 . S
C525 C524 1.377 . S
C525 C531 1.390 . S
C526 H517 0.930 . S
C526 C524 1.384 . S
C526 C527 1.372 . S
C527 C526 1.372 . S
C527 C528 1.400 . S
C527 C532 1.490 . S
C528 H518 0.930 . S
C528 C527 1.400 . S
C528 C531 1.386 . S
H529 C545 0.930 . S
H530 C546 0.931 . S
C531 H519 0.929 . S
C531 C525 1.390 . S
C531 C528 1.386 . S
C532 C527 1.490 . S
C532 C534 1.395 . S
C532 C535 1.403 . S
H533 C539 0.930 . S
C534 H520 0.930 . S
C534 C532 1.395 . S
C534 C537 1.403 . S
C535 C532 1.403 . S
C535 C536 1.524 . S
C535 C539 1.400 . S
C536 H521 0.960 . S
C536 H522 0.960 . S
C536 H523 0.960 . S
C536 C535 1.524 . S
C537 C534 1.403 . S
C537 C538 1.392 . S
C537 C541 1.495 . S
C538 C537 1.392 . S
C538 C539 1.385 . S
C538 C540 1.478 . S
C539 H533 0.930 . S
C539 C535 1.400 . S
C539 C538 1.385 . S
C540 C538 1.478 . S
C540 C542 1.381 . S
C540 C546 1.383 . S
C541 C537 1.495 . S
C541 H547 0.959 . S
C541 H548 0.961 . S
C541 H549 0.960 . S
C542 C540 1.381 . S
C542 C543 1.394 . S
C542 H550 0.930 . S
C543 C542 1.394 . S
C543 C544 1.383 . S
C543 H551 0.929 . S
C544 C543 1.383 . S
C544 C545 1.377 . S
C545 H529 0.930 . S
C545 C544 1.377 . S
C545 C546 1.379 . S
C546 H530 0.931 . S
C546 C540 1.383 . S
C546 C545 1.379 . S
H547 C541 0.959 . S
H548 C541 0.961 . S
H549 C541 0.960 . S
H550 C542 0.930 . S
H551 C543 0.929 . S
H552 C560 0.929 . S
H553 C562 0.930 . S
H554 C564 0.930 . S
H555 C567 0.929 . S
H556 C570 0.930 . S
H557 C572 0.960 . S
H558 C572 0.960 . S
H559 C572 0.960 . S
C560 H552 0.929 . S
C560 C561 1.377 . S
C560 C562 1.384 . S
C561 C560 1.377 . S
C561 C567 1.390 . S
C562 H553 0.930 . S
C562 C560 1.384 . S
C562 C563 1.372 . S
C563 C562 1.372 . S
C563 C564 1.400 . S
C563 C568 1.490 . S
C564 H554 0.930 . S
C564 C563 1.400 . S
C564 C567 1.386 . S
H565 C581 0.930 . S
H566 C582 0.931 . S
C567 H555 0.929 . S
C567 C561 1.390 . S
C567 C564 1.386 . S
C568 C563 1.490 . S
C568 C570 1.395 . S
C568 C571 1.403 . S
H569 C575 0.930 . S
C570 H556 0.930 . S
C570 C568 1.395 . S
C570 C573 1.403 . S
C571 C568 1.403 . S
C571 C572 1.524 . S
C571 C575 1.400 . S
C572 H557 0.960 . S
C572 H558 0.960 . S
C572 H559 0.960 . S
C572 C571 1.524 . S
C573 C570 1.403 . S
C573 C574 1.392 . S
C573 C577 1.495 . S
C574 C573 1.392 . S
C574 C575 1.385 . S
C574 C576 1.478 . S
C575 H569 0.930 . S
C575 C571 1.400 . S
C575 C574 1.385 . S
C576 C574 1.478 . S
C576 C578 1.381 . S
C576 C582 1.383 . S
C577 C573 1.495 . S
C577 H583 0.959 . S
C577 H584 0.961 . S
C577 H585 0.960 . S
C578 C576 1.381 . S
C578 C579 1.394 . S
C578 H586 0.930 . S
C579 C578 1.394 . S
C579 C580 1.383 . S
C579 H587 0.929 . S
C580 C579 1.383 . S
C580 C581 1.377 . S
C581 H565 0.930 . S
C581 C580 1.377 . S
C581 C582 1.379 . S
C582 H566 0.931 . S
C582 C576 1.383 . S
C582 C581 1.379 . S
H583 C577 0.959 . S
H584 C577 0.961 . S
H585 C577 0.960 . S
H586 C578 0.930 . S
H587 C579 0.929 . S
H588 C596 0.929 . S
H589 C598 0.930 . S
H590 C600 0.930 . S
H591 C603 0.929 . S
H592 C606 0.930 . S
H593 C608 0.960 . S
H594 C608 0.960 . S
H595 C608 0.960 . S
C596 H588 0.929 . S
C596 C597 1.377 . S
C596 C598 1.384 . S
C597 C596 1.377 . S
C597 C603 1.390 . S
C598 H589 0.930 . S
C598 C596 1.384 . S
C598 C599 1.372 . S
C599 C598 1.372 . S
C599 C600 1.400 . S
C599 C604 1.490 . S
C600 H590 0.930 . S
C600 C599 1.400 . S
C600 C603 1.386 . S
H601 C617 0.930 . S
H602 C618 0.931 . S
C603 H591 0.929 . S
C603 C597 1.390 . S
C603 C600 1.386 . S
C604 C599 1.490 . S
C604 C606 1.395 . S
C604 C607 1.403 . S
H605 C611 0.930 . S
C606 H592 0.930 . S
C606 C604 1.395 . S
C606 C609 1.403 . S
C607 C604 1.403 . S
C607 C608 1.524 . S
C607 C611 1.400 . S
C608 H593 0.960 . S
C608 H594 0.960 . S
C608 H595 0.960 . S
C608 C607 1.524 . S
C609 C606 1.403 . S
C609 C610 1.392 . S
C609 C613 1.495 . S
C610 C609 1.392 . S
C610 C611 1.385 . S
C610 C612 1.478 . S
C611 H605 0.930 . S
C611 C607 1.400 . S
C611 C610 1.385 . S
C612 C610 1.478 . S
C612 C614 1.381 . S
C612 C618 1.383 . S
C613 C609 1.495 . S
C613 H619 0.959 . S
C613 H620 0.961 . S
C613 H621 0.960 . S
C614 C612 1.381 . S
C614 C615 1.394 . S
C614 H622 0.930 . S
C615 C614 1.394 . S
C615 C616 1.383 . S
C615 H623 0.929 . S
C616 C615 1.383 . S
C616 C617 1.377 . S
C617 H601 0.930 . S
C617 C616 1.377 . S
C617 C618 1.379 . S
C618 H602 0.931 . S
C618 C612 1.383 . S
C618 C617 1.379 . S
H619 C613 0.959 . S
H620 C613 0.961 . S
H621 C613 0.960 . S
H622 C614 0.930 . S
H623 C615 0.929 . S
H624 C632 0.929 . S
H625 C634 0.930 . S
H626 C636 0.930 . S
H627 C639 0.929 . S
H628 C642 0.930 . S
H629 C644 0.960 . S
H630 C644 0.960 . S
H631 C644 0.960 . S
C632 H624 0.929 . S
C632 C633 1.377 . S
C632 C634 1.384 . S
C633 C632 1.377 . S
C633 C639 1.390 . S
C634 H625 0.930 . S
C634 C632 1.384 . S
C634 C635 1.372 . S
C635 C634 1.372 . S
C635 C636 1.400 . S
C635 C640 1.490 . S
C636 H626 0.930 . S
C636 C635 1.400 . S
C636 C639 1.386 . S
H637 C653 0.930 . S
H638 C654 0.931 . S
C639 H627 0.929 . S
C639 C633 1.390 . S
C639 C636 1.386 . S
C640 C635 1.490 . S
C640 C642 1.395 . S
C640 C643 1.403 . S
H641 C647 0.930 . S
C642 H628 0.930 . S
C642 C640 1.395 . S
C642 C645 1.403 . S
C643 C640 1.403 . S
C643 C644 1.524 . S
C643 C647 1.400 . S
C644 H629 0.960 . S
C644 H630 0.960 . S
C644 H631 0.960 . S
C644 C643 1.524 . S
C645 C642 1.403 . S
C645 C646 1.392 . S
C645 C649 1.495 . S
C646 C645 1.392 . S
C646 C647 1.385 . S
C646 C648 1.478 . S
C647 H641 0.930 . S
C647 C643 1.400 . S
C647 C646 1.385 . S
C648 C646 1.478 . S
C648 C650 1.381 . S
C648 C654 1.383 . S
C649 C645 1.495 . S
C649 H655 0.959 . S
C649 H656 0.961 . S
C649 H657 0.960 . S
C650 C648 1.381 . S
C650 C651 1.394 . S
C650 H658 0.930 . S
C651 C650 1.394 . S
C651 C652 1.383 . S
C651 H659 0.929 . S
C652 C651 1.383 . S
C652 C653 1.377 . S
C653 H637 0.930 . S
C653 C652 1.377 . S
C653 C654 1.379 . S
C654 H638 0.931 . S
C654 C648 1.383 . S
C654 C653 1.379 . S
H655 C649 0.959 . S
H656 C649 0.961 . S
H657 C649 0.960 . S
H658 C650 0.930 . S
H659 C651 0.929 . S
H660 C668 0.929 . S
H661 C670 0.930 . S
H662 C672 0.930 . S
H663 C675 0.929 . S
H664 C678 0.930 . S
H665 C680 0.960 . S
H666 C680 0.960 . S
H667 C680 0.960 . S
C668 H660 0.929 . S
C668 C669 1.377 . S
C668 C670 1.384 . S
C669 C668 1.377 . S
C669 C675 1.390 . S
C670 H661 0.930 . S
C670 C668 1.384 . S
C670 C671 1.372 . S
C671 C670 1.372 . S
C671 C672 1.400 . S
C671 C676 1.490 . S
C672 H662 0.930 . S
C672 C671 1.400 . S
C672 C675 1.386 . S
H673 C689 0.930 . S
H674 C690 0.931 . S
C675 H663 0.929 . S
C675 C669 1.390 . S
C675 C672 1.386 . S
C676 C671 1.490 . S
C676 C678 1.395 . S
C676 C679 1.403 . S
H677 C683 0.930 . S
C678 H664 0.930 . S
C678 C676 1.395 . S
C678 C681 1.403 . S
C679 C676 1.403 . S
C679 C680 1.524 . S
C679 C683 1.400 . S
C680 H665 0.960 . S
C680 H666 0.960 . S
C680 H667 0.960 . S
C680 C679 1.524 . S
C681 C678 1.403 . S
C681 C682 1.392 . S
C681 C685 1.495 . S
C682 C681 1.392 . S
C682 C683 1.385 . S
C682 C684 1.478 . S
C683 H677 0.930 . S
C683 C679 1.400 . S
C683 C682 1.385 . S
C684 C682 1.478 . S
C684 C686 1.381 . S
C684 C690 1.383 . S
C685 C681 1.495 . S
C685 H691 0.959 . S
C685 H692 0.961 . S
C685 H693 0.960 . S
C686 C684 1.381 . S
C686 C687 1.394 . S
C686 H694 0.930 . S
C687 C686 1.394 . S
C687 C688 1.383 . S
C687 H695 0.929 . S
C688 C687 1.383 . S
C688 C689 1.377 . S
C689 H673 0.930 . S
C689 C688 1.377 . S
C689 C690 1.379 . S
C690 H674 0.931 . S
C690 C684 1.383 . S
C690 C689 1.379 . S
H691 C685 0.959 . S
H692 C685 0.961 . S
H693 C685 0.960 . S
H694 C686 0.930 . S
H695 C687 0.929 . S
H696 C704 0.929 . S
H697 C706 0.930 . S
H698 C708 0.930 . S
H699 C711 0.929 . S
H700 C714 0.930 . S
H701 C716 0.960 . S
H702 C716 0.960 . S
H703 C716 0.960 . S
C704 H696 0.929 . S
C704 C705 1.377 . S
C704 C706 1.384 . S
C705 C704 1.377 . S
C705 C711 1.390 . S
C706 H697 0.930 . S
C706 C704 1.384 . S
C706 C707 1.372 . S
C707 C706 1.372 . S
C707 C708 1.400 . S
C707 C712 1.490 . S
C708 H698 0.930 . S
C708 C707 1.400 . S
C708 C711 1.386 . S
H709 C725 0.930 . S
H710 C726 0.931 . S
C711 H699 0.929 . S
C711 C705 1.390 . S
C711 C708 1.386 . S
C712 C707 1.490 . S
C712 C714 1.395 . S
C712 C715 1.403 . S
H713 C719 0.930 . S
C714 H700 0.930 . S
C714 C712 1.395 . S
C714 C717 1.403 . S
C715 C712 1.403 . S
C715 C716 1.524 . S
C715 C719 1.400 . S
C716 H701 0.960 . S
C716 H702 0.960 . S
C716 H703 0.960 . S
C716 C715 1.524 . S
C717 C714 1.403 . S
C717 C718 1.392 . S
C717 C721 1.495 . S
C718 C717 1.392 . S
C718 C719 1.385 . S
C718 C720 1.478 . S
C719 H713 0.930 . S
C719 C715 1.400 . S
C719 C718 1.385 . S
C720 C718 1.478 . S
C720 C722 1.381 . S
C720 C726 1.383 . S
C721 C717 1.495 . S
C721 H727 0.959 . S
C721 H728 0.961 . S
C721 H729 0.960 . S
C722 C720 1.381 . S
C722 C723 1.394 . S
C722 H730 0.930 . S
C723 C722 1.394 . S
C723 C724 1.383 . S
C723 H731 0.929 . S
C724 C723 1.383 . S
C724 C725 1.377 . S
C725 H709 0.930 . S
C725 C724 1.377 . S
C725 C726 1.379 . S
C726 H710 0.931 . S
C726 C720 1.383 . S
C726 C725 1.379 . S
H727 C721 0.959 . S
H728 C721 0.961 . S
H729 C721 0.960 . S
H730 C722 0.930 . S
H731 C723 0.929 . S
H732 C740 0.929 . S
H733 C742 0.930 . S
H734 C744 0.930 . S
H735 C747 0.929 . S
H736 C750 0.930 . S
H737 C752 0.960 . S
H738 C752 0.960 . S
H739 C752 0.960 . S
C740 H732 0.929 . S
C740 C741 1.377 . S
C740 C742 1.384 . S
C741 C740 1.377 . S
C741 C747 1.390 . S
C742 H733 0.930 . S
C742 C740 1.384 . S
C742 C743 1.372 . S
C743 C742 1.372 . S
C743 C744 1.400 . S
C743 C748 1.490 . S
C744 H734 0.930 . S
C744 C743 1.400 . S
C744 C747 1.386 . S
H745 C761 0.930 . S
H746 C762 0.931 . S
C747 H735 0.929 . S
C747 C741 1.390 . S
C747 C744 1.386 . S
C748 C743 1.490 . S
C748 C750 1.395 . S
C748 C751 1.403 . S
H749 C755 0.930 . S
C750 H736 0.930 . S
C750 C748 1.395 . S
C750 C753 1.403 . S
C751 C748 1.403 . S
C751 C752 1.524 . S
C751 C755 1.400 . S
C752 H737 0.960 . S
C752 H738 0.960 . S
C752 H739 0.960 . S
C752 C751 1.524 . S
C753 C750 1.403 . S
C753 C754 1.392 . S
C753 C757 1.495 . S
C754 C753 1.392 . S
C754 C755 1.385 . S
C754 C756 1.478 . S
C755 H749 0.930 . S
C755 C751 1.400 . S
C755 C754 1.385 . S
C756 C754 1.478 . S
C756 C758 1.381 . S
C756 C762 1.383 . S
C757 C753 1.495 . S
C757 H763 0.959 . S
C757 H764 0.961 . S
C757 H765 0.960 . S
C758 C756 1.381 . S
C758 C759 1.394 . S
C758 H766 0.930 . S
C759 C758 1.394 . S
C759 C760 1.383 . S
C759 H767 0.929 . S
C760 C759 1.383 . S
C760 C761 1.377 . S
C761 H745 0.930 . S
C761 C760 1.377 . S
C761 C762 1.379 . S
C762 H746 0.931 . S
C762 C756 1.383 . S
C762 C761 1.379 . S
H763 C757 0.959 . S
H764 C757 0.961 . S
H765 C757 0.960 . S
H766 C758 0.930 . S
H767 C759 0.929 . S
H768 C776 0.929 . S
H769 C778 0.930 . S
H770 C780 0.930 . S
H771 C783 0.929 . S
H772 C786 0.930 . S
H773 C788 0.960 . S
H774 C788 0.960 . S
H775 C788 0.960 . S
C776 H768 0.929 . S
C776 C777 1.377 . S
C776 C778 1.384 . S
C777 C776 1.377 . S
C777 C783 1.390 . S
C778 H769 0.930 . S
C778 C776 1.384 . S
C778 C779 1.372 . S
C779 C778 1.372 . S
C779 C780 1.400 . S
C779 C784 1.490 . S
C780 H770 0.930 . S
C780 C779 1.400 . S
C780 C783 1.386 . S
H781 C797 0.930 . S
H782 C798 0.931 . S
C783 H771 0.929 . S
C783 C777 1.390 . S
C783 C780 1.386 . S
C784 C779 1.490 . S
C784 C786 1.395 . S
C784 C787 1.403 . S
H785 C791 0.930 . S
C786 H772 0.930 . S
C786 C784 1.395 . S
C786 C789 1.403 . S
C787 C784 1.403 . S
C787 C788 1.524 . S
C787 C791 1.400 . S
C788 H773 0.960 . S
C788 H774 0.960 . S
C788 H775 0.960 . S
C788 C787 1.524 . S
C789 C786 1.403 . S
C789 C790 1.392 . S
C789 C793 1.495 . S
C790 C789 1.392 . S
C790 C791 1.385 . S
C790 C792 1.478 . S
C791 H785 0.930 . S
C791 C787 1.400 . S
C791 C790 1.385 . S
C792 C790 1.478 . S
C792 C794 1.381 . S
C792 C798 1.383 . S
C793 C789 1.495 . S
C793 H799 0.959 . S
C793 H800 0.961 . S
C793 H801 0.960 . S
C794 C792 1.381 . S
C794 C795 1.394 . S
C794 H802 0.930 . S
C795 C794 1.394 . S
C795 C796 1.383 . S
C795 H803 0.929 . S
C796 C795 1.383 . S
C796 C797 1.377 . S
C797 H781 0.930 . S
C797 C796 1.377 . S
C797 C798 1.379 . S
C798 H782 0.931 . S
C798 C792 1.383 . S
C798 C797 1.379 . S
H799 C793 0.959 . S
H800 C793 0.961 . S
H801 C793 0.960 . S
H802 C794 0.930 . S
H803 C795 0.929 . S
H804 C812 0.929 . S
H805 C814 0.930 . S
H806 C816 0.930 . S
H807 C819 0.929 . S
H808 C822 0.930 . S
H809 C824 0.960 . S
H810 C824 0.960 . S
H811 C824 0.960 . S
C812 H804 0.929 . S
C812 C813 1.377 . S
C812 C814 1.384 . S
C813 C812 1.377 . S
C813 C819 1.390 . S
C814 H805 0.930 . S
C814 C812 1.384 . S
C814 C815 1.372 . S
C815 C814 1.372 . S
C815 C816 1.400 . S
C815 C820 1.490 . S
C816 H806 0.930 . S
C816 C815 1.400 . S
C816 C819 1.386 . S
H817 C833 0.930 . S
H818 C834 0.931 . S
C819 H807 0.929 . S
C819 C813 1.390 . S
C819 C816 1.386 . S
C820 C815 1.490 . S
C820 C822 1.395 . S
C820 C823 1.403 . S
H821 C827 0.930 . S
C822 H808 0.930 . S
C822 C820 1.395 . S
C822 C825 1.403 . S
C823 C820 1.403 . S
C823 C824 1.524 . S
C823 C827 1.400 . S
C824 H809 0.960 . S
C824 H810 0.960 . S
C824 H811 0.960 . S
C824 C823 1.524 . S
C825 C822 1.403 . S
C825 C826 1.392 . S
C825 C829 1.495 . S
C826 C825 1.392 . S
C826 C827 1.385 . S
C826 C828 1.478 . S
C827 H821 0.930 . S
C827 C823 1.400 . S
C827 C826 1.385 . S
C828 C826 1.478 . S
C828 C830 1.381 . S
C828 C834 1.383 . S
C829 C825 1.495 . S
C829 H835 0.959 . S
C829 H836 0.961 . S
C829 H837 0.960 . S
C830 C828 1.381 . S
C830 C831 1.394 . S
C830 H838 0.930 . S
C831 C830 1.394 . S
C831 C832 1.383 . S
C831 H839 0.929 . S
C832 C831 1.383 . S
C832 C833 1.377 . S
C833 H817 0.930 . S
C833 C832 1.377 . S
C833 C834 1.379 . S
C834 H818 0.931 . S
C834 C828 1.383 . S
C834 C833 1.379 . S
H835 C829 0.959 . S
H836 C829 0.961 . S
H837 C829 0.960 . S
H838 C830 0.930 . S
H839 C831 0.929 . S
H840 C848 0.929 . S
H841 C850 0.930 . S
H842 C852 0.930 . S
H843 C855 0.929 . S
H844 C858 0.930 . S
H845 C860 0.960 . S
H846 C860 0.960 . S
H847 C860 0.960 . S
C848 H840 0.929 . S
C848 C849 1.377 . S
C848 C850 1.384 . S
C849 C848 1.377 . S
C849 C855 1.390 . S
C850 H841 0.930 . S
C850 C848 1.384 . S
C850 C851 1.372 . S
C851 C850 1.372 . S
C851 C852 1.400 . S
C851 C856 1.490 . S
C852 H842 0.930 . S
C852 C851 1.400 . S
C852 C855 1.386 . S
H853 C869 0.930 . S
H854 C870 0.931 . S
C855 H843 0.929 . S
C855 C849 1.390 . S
C855 C852 1.386 . S
C856 C851 1.490 . S
C856 C858 1.395 . S
C856 C859 1.403 . S
H857 C863 0.930 . S
C858 H844 0.930 . S
C858 C856 1.395 . S
C858 C861 1.403 . S
C859 C856 1.403 . S
C859 C860 1.524 . S
C859 C863 1.400 . S
C860 H845 0.960 . S
C860 H846 0.960 . S
C860 H847 0.960 . S
C860 C859 1.524 . S
C861 C858 1.403 . S
C861 C862 1.392 . S
C861 C865 1.495 . S
C862 C861 1.392 . S
C862 C863 1.385 . S
C862 C864 1.478 . S
C863 H857 0.930 . S
C863 C859 1.400 . S
C863 C862 1.385 . S
C864 C862 1.478 . S
C864 C866 1.381 . S
C864 C870 1.383 . S
C865 C861 1.495 . S
C865 H871 0.959 . S
C865 H872 0.961 . S
C865 H873 0.960 . S
C866 C864 1.381 . S
C866 C867 1.394 . S
C866 H874 0.930 . S
C867 C866 1.394 . S
C867 C868 1.383 . S
C867 H875 0.929 . S
C868 C867 1.383 . S
C868 C869 1.377 . S
C869 H853 0.930 . S
C869 C868 1.377 . S
C869 C870 1.379 . S
C870 H854 0.931 . S
C870 C864 1.383 . S
C870 C869 1.379 . S
H871 C865 0.959 . S
H872 C865 0.961 . S
H873 C865 0.960 . S
H874 C866 0.930 . S
H875 C867 0.929 . S
H876 C884 0.929 . S
H877 C886 0.930 . S
H878 C888 0.930 . S
H879 C891 0.929 . S
H880 C894 0.930 . S
H881 C896 0.960 . S
H882 C896 0.960 . S
H883 C896 0.960 . S
C884 H876 0.929 . S
C884 C885 1.377 . S
C884 C886 1.384 . S
C885 C884 1.377 . S
C885 C891 1.390 . S
C886 H877 0.930 . S
C886 C884 1.384 . S
C886 C887 1.372 . S
C887 C886 1.372 . S
C887 C888 1.400 . S
C887 C892 1.490 . S
C888 H878 0.930 . S
C888 C887 1.400 . S
C888 C891 1.386 . S
H889 C905 0.930 . S
H890 C906 0.931 . S
C891 H879 0.929 . S
C891 C885 1.390 . S
C891 C888 1.386 . S
C892 C887 1.490 . S
C892 C894 1.395 . S
C892 C895 1.403 . S
H893 C899 0.930 . S
C894 H880 0.930 . S
C894 C892 1.395 . S
C894 C897 1.403 . S
C895 C892 1.403 . S
C895 C896 1.524 . S
C895 C899 1.400 . S
C896 H881 0.960 . S
C896 H882 0.960 . S
C896 H883 0.960 . S
C896 C895 1.524 . S
C897 C894 1.403 . S
C897 C898 1.392 . S
C897 C901 1.495 . S
C898 C897 1.392 . S
C898 C899 1.385 . S
C898 C900 1.478 . S
C899 H893 0.930 . S
C899 C895 1.400 . S
C899 C898 1.385 . S
C900 C898 1.478 . S
C900 C902 1.381 . S
C900 C906 1.383 . S
C901 C897 1.495 . S
C901 H907 0.959 . S
C901 H908 0.961 . S
C901 H909 0.960 . S
C902 C900 1.381 . S
C902 C903 1.394 . S
C902 H910 0.930 . S
C903 C902 1.394 . S
C903 C904 1.383 . S
C903 H911 0.929 . S
C904 C903 1.383 . S
C904 C905 1.377 . S
C905 H889 0.930 . S
C905 C904 1.377 . S
C905 C906 1.379 . S
C906 H890 0.931 . S
C906 C900 1.383 . S
C906 C905 1.379 . S
H907 C901 0.959 . S
H908 C901 0.961 . S
H909 C901 0.960 . S
H910 C902 0.930 . S
H911 C903 0.929 . S
H912 C920 0.929 . S
H913 C922 0.930 . S
H914 C924 0.930 . S
H915 C927 0.929 . S
H916 C930 0.930 . S
H917 C932 0.960 . S
H918 C932 0.960 . S
H919 C932 0.960 . S
C920 H912 0.929 . S
C920 C921 1.377 . S
C920 C922 1.384 . S
C921 C920 1.377 . S
C921 C927 1.390 . S
C922 H913 0.930 . S
C922 C920 1.384 . S
C922 C923 1.372 . S
C923 C922 1.372 . S
C923 C924 1.400 . S
C923 C928 1.490 . S
C924 H914 0.930 . S
C924 C923 1.400 . S
C924 C927 1.386 . S
H925 C941 0.930 . S
H926 C942 0.931 . S
C927 H915 0.929 . S
C927 C921 1.390 . S
C927 C924 1.386 . S
C928 C923 1.490 . S
C928 C930 1.395 . S
C928 C931 1.403 . S
H929 C935 0.930 . S
C930 H916 0.930 . S
C930 C928 1.395 . S
C930 C933 1.403 . S
C931 C928 1.403 . S
C931 C932 1.524 . S
C931 C935 1.400 . S
C932 H917 0.960 . S
C932 H918 0.960 . S
C932 H919 0.960 . S
C932 C931 1.524 . S
C933 C930 1.403 . S
C933 C934 1.392 . S
C933 C937 1.495 . S
C934 C933 1.392 . S
C934 C935 1.385 . S
C934 C936 1.478 . S
C935 H929 0.930 . S
C935 C931 1.400 . S
C935 C934 1.385 . S
C936 C934 1.478 . S
C936 C938 1.381 . S
C936 C942 1.383 . S
C937 C933 1.495 . S
C937 H943 0.959 . S
C937 H944 0.961 . S
C937 H945 0.960 . S
C938 C936 1.381 . S
C938 C939 1.394 . S
C938 H946 0.930 . S
C939 C938 1.394 . S
C939 C940 1.383 . S
C939 H947 0.929 . S
C940 C939 1.383 . S
C940 C941 1.377 . S
C941 H925 0.930 . S
C941 C940 1.377 . S
C941 C942 1.379 . S
C942 H926 0.931 . S
C942 C936 1.383 . S
C942 C941 1.379 . S
H943 C937 0.959 . S
H944 C937 0.961 . S
H945 C937 0.960 . S
H946 C938 0.930 . S
H947 C939 0.929 . S
H948 C956 0.929 . S
H949 C958 0.930 . S
H950 C960 0.930 . S
H951 C963 0.929 . S
H952 C966 0.930 . S
H953 C968 0.960 . S
H954 C968 0.960 . S
H955 C968 0.960 . S
C956 H948 0.929 . S
C956 C957 1.377 . S
C956 C958 1.384 . S
C957 C956 1.377 . S
C957 C963 1.390 . S
C958 H949 0.930 . S
C958 C956 1.384 . S
C958 C959 1.372 . S
C959 C958 1.372 . S
C959 C960 1.400 . S
C959 C964 1.490 . S
C960 H950 0.930 . S
C960 C959 1.400 . S
C960 C963 1.386 . S
H961 C977 0.930 . S
H962 C978 0.931 . S
C963 H951 0.929 . S
C963 C957 1.390 . S
C963 C960 1.386 . S
C964 C959 1.490 . S
C964 C966 1.395 . S
C964 C967 1.403 . S
H965 C971 0.930 . S
C966 H952 0.930 . S
C966 C964 1.395 . S
C966 C969 1.403 . S
C967 C964 1.403 . S
C967 C968 1.524 . S
C967 C971 1.400 . S
C968 H953 0.960 . S
C968 H954 0.960 . S
C968 H955 0.960 . S
C968 C967 1.524 . S
C969 C966 1.403 . S
C969 C970 1.392 . S
C969 C973 1.495 . S
C970 C969 1.392 . S
C970 C971 1.385 . S
C970 C972 1.478 . S
C971 H965 0.930 . S
C971 C967 1.400 . S
C971 C970 1.385 . S
C972 C970 1.478 . S
C972 C974 1.381 . S
C972 C978 1.383 . S
C973 C969 1.495 . S
C973 H979 0.959 . S
C973 H980 0.961 . S
C973 H981 0.960 . S
C974 C972 1.381 . S
C974 C975 1.394 . S
C974 H982 0.930 . S
C975 C974 1.394 . S
C975 C976 1.383 . S
C975 H983 0.929 . S
C976 C975 1.383 . S
C976 C977 1.377 . S
C977 H961 0.930 . S
C977 C976 1.377 . S
C977 C978 1.379 . S
C978 H962 0.931 . S
C978 C972 1.383 . S
C978 C977 1.379 . S
H979 C973 0.959 . S
H980 C973 0.961 . S
H981 C973 0.960 . S
H982 C974 0.930 . S
H983 C975 0.929 . S
H984 C992 0.929 . S
H985 C994 0.930 . S
H986 C996 0.930 . S
H987 C999 0.929 . S
H988 C1002 0.930 . S
H989 C1004 0.960 . S
H990 C1004 0.960 . S
H991 C1004 0.960 . S
C992 H984 0.929 . S
C992 C993 1.377 . S
C992 C994 1.384 . S
C993 C992 1.377 . S
C993 C999 1.390 . S
C994 H985 0.930 . S
C994 C992 1.384 . S
C994 C995 1.372 . S
C995 C994 1.372 . S
C995 C996 1.400 . S
C995 C1000 1.490 . S
C996 H986 0.930 . S
C996 C995 1.400 . S
C996 C999 1.386 . S
H997 C1013 0.930 . S
H998 C1014 0.931 . S
C999 H987 0.929 . S
C999 C993 1.390 . S
C999 C996 1.386 . S
C1000 C995 1.490 . S
C1000 C1002 1.395 . S
C1000 C1003 1.403 . S
H1001 C1007 0.930 . S
C1002 H988 0.930 . S
C1002 C1000 1.395 . S
C1002 C1005 1.403 . S
C1003 C1000 1.403 . S
C1003 C1004 1.524 . S
C1003 C1007 1.400 . S
C1004 H989 0.960 . S
C1004 H990 0.960 . S
C1004 H991 0.960 . S
C1004 C1003 1.524 . S
C1005 C1002 1.403 . S
C1005 C1006 1.392 . S
C1005 C1009 1.495 . S
C1006 C1005 1.392 . S
C1006 C1007 1.385 . S
C1006 C1008 1.478 . S
C1007 H1001 0.930 . S
C1007 C1003 1.400 . S
C1007 C1006 1.385 . S
C1008 C1006 1.478 . S
C1008 C1010 1.381 . S
C1008 C1014 1.383 . S
C1009 C1005 1.495 . S
C1009 H1015 0.959 . S
C1009 H1016 0.961 . S
C1009 H1017 0.960 . S
C1010 C1008 1.381 . S
C1010 C1011 1.394 . S
C1010 H1018 0.930 . S
C1011 C1010 1.394 . S
C1011 C1012 1.383 . S
C1011 H1019 0.929 . S
C1012 C1011 1.383 . S
C1012 C1013 1.377 . S
C1013 H997 0.930 . S
C1013 C1012 1.377 . S
C1013 C1014 1.379 . S
C1014 H998 0.931 . S
C1014 C1008 1.383 . S
C1014 C1013 1.379 . S
H1015 C1009 0.959 . S
H1016 C1009 0.961 . S
H1017 C1009 0.960 . S
H1018 C1010 0.930 . S
H1019 C1011 0.929 . S
H1020 C1028 0.929 . S
H1021 C1030 0.930 . S
H1022 C1032 0.930 . S
H1023 C1035 0.929 . S
H1024 C1038 0.930 . S
H1025 C1040 0.960 . S
H1026 C1040 0.960 . S
H1027 C1040 0.960 . S
C1028 H1020 0.929 . S
C1028 C1029 1.377 . S
C1028 C1030 1.384 . S
C1029 C1028 1.377 . S
C1029 C1035 1.390 . S
C1030 H1021 0.930 . S
C1030 C1028 1.384 . S
C1030 C1031 1.372 . S
C1031 C1030 1.372 . S
C1031 C1032 1.400 . S
C1031 C1036 1.490 . S
C1032 H1022 0.930 . S
C1032 C1031 1.400 . S
C1032 C1035 1.386 . S
H1033 C1049 0.930 . S
H1034 C1050 0.931 . S
C1035 H1023 0.929 . S
C1035 C1029 1.390 . S
C1035 C1032 1.386 . S
C1036 C1031 1.490 . S
C1036 C1038 1.395 . S
C1036 C1039 1.403 . S
H1037 C1043 0.930 . S
C1038 H1024 0.930 . S
C1038 C1036 1.395 . S
C1038 C1041 1.403 . S
C1039 C1036 1.403 . S
C1039 C1040 1.524 . S
C1039 C1043 1.400 . S
C1040 H1025 0.960 . S
C1040 H1026 0.960 . S
C1040 H1027 0.960 . S
C1040 C1039 1.524 . S
C1041 C1038 1.403 . S
C1041 C1042 1.392 . S
C1041 C1045 1.495 . S
C1042 C1041 1.392 . S
C1042 C1043 1.385 . S
C1042 C1044 1.478 . S
C1043 H1037 0.930 . S
C1043 C1039 1.400 . S
C1043 C1042 1.385 . S
C1044 C1042 1.478 . S
C1044 C1046 1.381 . S
C1044 C1050 1.383 . S
C1045 C1041 1.495 . S
C1045 H1051 0.959 . S
C1045 H1052 0.961 . S
C1045 H1053 0.960 . S
C1046 C1044 1.381 . S
C1046 C1047 1.394 . S
C1046 H1054 0.930 . S
C1047 C1046 1.394 . S
C1047 C1048 1.383 . S
C1047 H1055 0.929 . S
C1048 C1047 1.383 . S
C1048 C1049 1.377 . S
C1049 H1033 0.930 . S
C1049 C1048 1.377 . S
C1049 C1050 1.379 . S
C1050 H1034 0.931 . S
C1050 C1044 1.383 . S
C1050 C1049 1.379 . S
H1051 C1045 0.959 . S
H1052 C1045 0.961 . S
H1053 C1045 0.960 . S
H1054 C1046 0.930 . S
H1055 C1047 0.929 . S
H1056 C1064 0.929 . S
H1057 C1066 0.930 . S
H1058 C1068 0.930 . S
H1059 C1071 0.929 . S
H1060 C1074 0.930 . S
H1061 C1076 0.960 . S
H1062 C1076 0.960 . S
H1063 C1076 0.960 . S
C1064 H1056 0.929 . S
C1064 C1065 1.377 . S
C1064 C1066 1.384 . S
C1065 C1064 1.377 . S
C1065 C1071 1.390 . S
C1066 H1057 0.930 . S
C1066 C1064 1.384 . S
C1066 C1067 1.372 . S
C1067 C1066 1.372 . S
C1067 C1068 1.400 . S
C1067 C1072 1.490 . S
C1068 H1058 0.930 . S
C1068 C1067 1.400 . S
C1068 C1071 1.386 . S
H1069 C1085 0.930 . S
H1070 C1086 0.931 . S
C1071 H1059 0.929 . S
C1071 C1065 1.390 . S
C1071 C1068 1.386 . S
C1072 C1067 1.490 . S
C1072 C1074 1.395 . S
C1072 C1075 1.403 . S
H1073 C1079 0.930 . S
C1074 H1060 0.930 . S
C1074 C1072 1.395 . S
C1074 C1077 1.403 . S
C1075 C1072 1.403 . S
C1075 C1076 1.524 . S
C1075 C1079 1.400 . S
C1076 H1061 0.960 . S
C1076 H1062 0.960 . S
C1076 H1063 0.960 . S
C1076 C1075 1.524 . S
C1077 C1074 1.403 . S
C1077 C1078 1.392 . S
C1077 C1081 1.495 . S
C1078 C1077 1.392 . S
C1078 C1079 1.385 . S
C1078 C1080 1.478 . S
C1079 H1073 0.930 . S
C1079 C1075 1.400 . S
C1079 C1078 1.385 . S
C1080 C1078 1.478 . S
C1080 C1082 1.381 . S
C1080 C1086 1.383 . S
C1081 C1077 1.495 . S
C1081 H1087 0.959 . S
C1081 H1088 0.961 . S
C1081 H1089 0.960 . S
C1082 C1080 1.381 . S
C1082 C1083 1.394 . S
C1082 H1090 0.930 . S
C1083 C1082 1.394 . S
C1083 C1084 1.383 . S
C1083 H1091 0.929 . S
C1084 C1083 1.383 . S
C1084 C1085 1.377 . S
C1085 H1069 0.930 . S
C1085 C1084 1.377 . S
C1085 C1086 1.379 . S
C1086 H1070 0.931 . S
C1086 C1080 1.383 . S
C1086 C1085 1.379 . S
H1087 C1081 0.959 . S
H1088 C1081 0.961 . S
H1089 C1081 0.960 . S
H1090 C1082 0.930 . S
H1091 C1083 0.929 . S
H1092 C1100 0.929 . S
H1093 C1102 0.930 . S
H1094 C1104 0.930 . S
H1095 C1107 0.929 . S
H1096 C1110 0.930 . S
H1097 C1112 0.960 . S
H1098 C1112 0.960 . S
H1099 C1112 0.960 . S
C1100 H1092 0.929 . S
C1100 C1101 1.377 . S
C1100 C1102 1.384 . S
C1101 C1100 1.377 . S
C1101 C1107 1.390 . S
C1102 H1093 0.930 . S
C1102 C1100 1.384 . S
C1102 C1103 1.372 . S
C1103 C1102 1.372 . S
C1103 C1104 1.400 . S
C1103 C1108 1.490 . S
C1104 H1094 0.930 . S
C1104 C1103 1.400 . S
C1104 C1107 1.386 . S
H1105 C1121 0.930 . S
H1106 C1122 0.931 . S
C1107 H1095 0.929 . S
C1107 C1101 1.390 . S
C1107 C1104 1.386 . S
C1108 C1103 1.490 . S
C1108 C1110 1.395 . S
C1108 C1111 1.403 . S
H1109 C1115 0.930 . S
C1110 H1096 0.930 . S
C1110 C1108 1.395 . S
C1110 C1113 1.403 . S
C1111 C1108 1.403 . S
C1111 C1112 1.524 . S
C1111 C1115 1.400 . S
C1112 H1097 0.960 . S
C1112 H1098 0.960 . S
C1112 H1099 0.960 . S
C1112 C1111 1.524 . S
C1113 C1110 1.403 . S
C1113 C1114 1.392 . S
C1113 C1117 1.495 . S
C1114 C1113 1.392 . S
C1114 C1115 1.385 . S
C1114 C1116 1.478 . S
C1115 H1109 0.930 . S
C1115 C1111 1.400 . S
C1115 C1114 1.385 . S
C1116 C1114 1.478 . S
C1116 C1118 1.381 . S
C1116 C1122 1.383 . S
C1117 C1113 1.495 . S
C1117 H1123 0.959 . S
C1117 H1124 0.961 . S
C1117 H1125 0.960 . S
C1118 C1116 1.381 . S
C1118 C1119 1.394 . S
C1118 H1126 0.930 . S
C1119 C1118 1.394 . S
C1119 C1120 1.383 . S
C1119 H1127 0.929 . S
C1120 C1119 1.383 . S
C1120 C1121 1.377 . S
C1121 H1105 0.930 . S
C1121 C1120 1.377 . S
C1121 C1122 1.379 . S
C1122 H1106 0.931 . S
C1122 C1116 1.383 . S
C1122 C1121 1.379 . S
H1123 C1117 0.959 . S
H1124 C1117 0.961 . S
H1125 C1117 0.960 . S
H1126 C1118 0.930 . S
H1127 C1119 0.929 . S
H1128 C1136 0.929 . S
H1129 C1138 0.930 . S
H1130 C1140 0.930 . S
H1131 C1143 0.929 . S
H1132 C1146 0.930 . S
H1133 C1148 0.960 . S
H1134 C1148 0.960 . S
H1135 C1148 0.960 . S
C1136 H1128 0.929 . S
C1136 C1137 1.377 . S
C1136 C1138 1.384 . S
C1137 C1136 1.377 . S
C1137 C1143 1.390 . S
C1138 H1129 0.930 . S
C1138 C1136 1.384 . S
C1138 C1139 1.372 . S
C1139 C1138 1.372 . S
C1139 C1140 1.400 . S
C1139 C1144 1.490 . S
C1140 H1130 0.930 . S
C1140 C1139 1.400 . S
C1140 C1143 1.386 . S
H1141 C1157 0.930 . S
H1142 C1158 0.931 . S
C1143 H1131 0.929 . S
C1143 C1137 1.390 . S
C1143 C1140 1.386 . S
C1144 C1139 1.490 . S
C1144 C1146 1.395 . S
C1144 C1147 1.403 . S
H1145 C1151 0.930 . S
C1146 H1132 0.930 . S
C1146 C1144 1.395 . S
C1146 C1149 1.403 . S
C1147 C1144 1.403 . S
C1147 C1148 1.524 . S
C1147 C1151 1.400 . S
C1148 H1133 0.960 . S
C1148 H1134 0.960 . S
C1148 H1135 0.960 . S
C1148 C1147 1.524 . S
C1149 C1146 1.403 . S
C1149 C1150 1.392 . S
C1149 C1153 1.495 . S
C1150 C1149 1.392 . S
C1150 C1151 1.385 . S
C1150 C1152 1.478 . S
C1151 H1145 0.930 . S
C1151 C1147 1.400 . S
C1151 C1150 1.385 . S
C1152 C1150 1.478 . S
C1152 C1154 1.381 . S
C1152 C1158 1.383 . S
C1153 C1149 1.495 . S
C1153 H1159 0.959 . S
C1153 H1160 0.961 . S
C1153 H1161 0.960 . S
C1154 C1152 1.381 . S
C1154 C1155 1.394 . S
C1154 H1162 0.930 . S
C1155 C1154 1.394 . S
C1155 C1156 1.383 . S
C1155 H1163 0.929 . S
C1156 C1155 1.383 . S
C1156 C1157 1.377 . S
C1157 H1141 0.930 . S
C1157 C1156 1.377 . S
C1157 C1158 1.379 . S
C1158 H1142 0.931 . S
C1158 C1152 1.383 . S
C1158 C1157 1.379 . S
H1159 C1153 0.959 . S
H1160 C1153 0.961 . S
H1161 C1153 0.960 . S
H1162 C1154 0.930 . S
H1163 C1155 0.929 . S
H1164 C1172 0.929 . S
H1165 C1174 0.930 . S
H1166 C1176 0.930 . S
H1167 C1179 0.929 . S
H1168 C1182 0.930 . S
H1169 C1184 0.960 . S
H1170 C1184 0.960 . S
H1171 C1184 0.960 . S
C1172 H1164 0.929 . S
C1172 C1173 1.377 . S
C1172 C1174 1.384 . S
C1173 C1172 1.377 . S
C1173 C1179 1.390 . S
C1174 H1165 0.930 . S
C1174 C1172 1.384 . S
C1174 C1175 1.372 . S
C1175 C1174 1.372 . S
C1175 C1176 1.400 . S
C1175 C1180 1.490 . S
C1176 H1166 0.930 . S
C1176 C1175 1.400 . S
C1176 C1179 1.386 . S
H1177 C1193 0.930 . S
H1178 C1194 0.931 . S
C1179 H1167 0.929 . S
C1179 C1173 1.390 . S
C1179 C1176 1.386 . S
C1180 C1175 1.490 . S
C1180 C1182 1.395 . S
C1180 C1183 1.403 . S
H1181 C1187 0.930 . S
C1182 H1168 0.930 . S
C1182 C1180 1.395 . S
C1182 C1185 1.403 . S
C1183 C1180 1.403 . S
C1183 C1184 1.524 . S
C1183 C1187 1.400 . S
C1184 H1169 0.960 . S
C1184 H1170 0.960 . S
C1184 H1171 0.960 . S
C1184 C1183 1.524 . S
C1185 C1182 1.403 . S
C1185 C1186 1.392 . S
C1185 C1189 1.495 . S
C1186 C1185 1.392 . S
C1186 C1187 1.385 . S
C1186 C1188 1.478 . S
C1187 H1181 0.930 . S
C1187 C1183 1.400 . S
C1187 C1186 1.385 . S
C1188 C1186 1.478 . S
C1188 C1190 1.381 . S
C1188 C1194 1.383 . S
C1189 C1185 1.495 . S
C1189 H1195 0.959 . S
C1189 H1196 0.961 . S
C1189 H1197 0.960 . S
C1190 C1188 1.381 . S
C1190 C1191 1.394 . S
C1190 H1198 0.930 . S
C1191 C1190 1.394 . S
C1191 C1192 1.383 . S
C1191 H1199 0.929 . S
C1192 C1191 1.383 . S
C1192 C1193 1.377 . S
C1193 H1177 0.930 . S
C1193 C1192 1.377 . S
C1193 C1194 1.379 . S
C1194 H1178 0.931 . S
C1194 C1188 1.383 . S
C1194 C1193 1.379 . S
H1195 C1189 0.959 . S
H1196 C1189 0.961 . S
H1197 C1189 0.960 . S
H1198 C1190 0.930 . S
H1199 C1191 0.929 . S
H1200 C1208 0.929 . S
H1201 C1210 0.930 . S
H1202 C1212 0.930 . S
H1203 C1215 0.929 . S
H1204 C1218 0.930 . S
H1205 C1220 0.960 . S
H1206 C1220 0.960 . S
H1207 C1220 0.960 . S
C1208 H1200 0.929 . S
C1208 C1209 1.377 . S
C1208 C1210 1.384 . S
C1209 C1208 1.377 . S
C1209 C1215 1.390 . S
C1210 H1201 0.930 . S
C1210 C1208 1.384 . S
C1210 C1211 1.372 . S
C1211 C1210 1.372 . S
C1211 C1212 1.400 . S
C1211 C1216 1.490 . S
C1212 H1202 0.930 . S
C1212 C1211 1.400 . S
C1212 C1215 1.386 . S
H1213 C1229 0.930 . S
H1214 C1230 0.931 . S
C1215 H1203 0.929 . S
C1215 C1209 1.390 . S
C1215 C1212 1.386 . S
C1216 C1211 1.490 . S
C1216 C1218 1.395 . S
C1216 C1219 1.403 . S
H1217 C1223 0.930 . S
C1218 H1204 0.930 . S
C1218 C1216 1.395 . S
C1218 C1221 1.403 . S
C1219 C1216 1.403 . S
C1219 C1220 1.524 . S
C1219 C1223 1.400 . S
C1220 H1205 0.960 . S
C1220 H1206 0.960 . S
C1220 H1207 0.960 . S
C1220 C1219 1.524 . S
C1221 C1218 1.403 . S
C1221 C1222 1.392 . S
C1221 C1225 1.495 . S
C1222 C1221 1.392 . S
C1222 C1223 1.385 . S
C1222 C1224 1.478 . S
C1223 H1217 0.930 . S
C1223 C1219 1.400 . S
C1223 C1222 1.385 . S
C1224 C1222 1.478 . S
C1224 C1226 1.381 . S
C1224 C1230 1.383 . S
C1225 C1221 1.495 . S
C1225 H1231 0.959 . S
C1225 H1232 0.961 . S
C1225 H1233 0.960 . S
C1226 C1224 1.381 . S
C1226 C1227 1.394 . S
C1226 H1234 0.930 . S
C1227 C1226 1.394 . S
C1227 C1228 1.383 . S
C1227 H1235 0.929 . S
C1228 C1227 1.383 . S
C1228 C1229 1.377 . S
C1229 H1213 0.930 . S
C1229 C1228 1.377 . S
C1229 C1230 1.379 . S
C1230 H1214 0.931 . S
C1230 C1224 1.383 . S
C1230 C1229 1.379 . S
H1231 C1225 0.959 . S
H1232 C1225 0.961 . S
H1233 C1225 0.960 . S
H1234 C1226 0.930 . S
H1235 C1227 0.929 . S
H1236 C1244 0.929 . S
H1237 C1246 0.930 . S
H1238 C1248 0.930 . S
H1239 C1251 0.929 . S
H1240 C1254 0.930 . S
H1241 C1256 0.960 . S
H1242 C1256 0.960 . S
H1243 C1256 0.960 . S
C1244 H1236 0.929 . S
C1244 C1245 1.377 . S
C1244 C1246 1.384 . S
C1245 C1244 1.377 . S
C1245 C1251 1.390 . S
C1246 H1237 0.930 . S
C1246 C1244 1.384 . S
C1246 C1247 1.372 . S
C1247 C1246 1.372 . S
C1247 C1248 1.400 . S
C1247 C1252 1.490 . S
C1248 H1238 0.930 . S
C1248 C1247 1.400 . S
C1248 C1251 1.386 . S
H1249 C1265 0.930 . S
H1250 C1266 0.931 . S
C1251 H1239 0.929 . S
C1251 C1245 1.390 . S
C1251 C1248 1.386 . S
C1252 C1247 1.490 . S
C1252 C1254 1.395 . S
C1252 C1255 1.403 . S
H1253 C1259 0.930 . S
C1254 H1240 0.930 . S
C1254 C1252 1.395 . S
C1254 C1257 1.403 . S
C1255 C1252 1.403 . S
C1255 C1256 1.524 . S
C1255 C1259 1.400 . S
C1256 H1241 0.960 . S
C1256 H1242 0.960 . S
C1256 H1243 0.960 . S
C1256 C1255 1.524 . S
C1257 C1254 1.403 . S
C1257 C1258 1.392 . S
C1257 C1261 1.495 . S
C1258 C1257 1.392 . S
C1258 C1259 1.385 . S
C1258 C1260 1.478 . S
C1259 H1253 0.930 . S
C1259 C1255 1.400 . S
C1259 C1258 1.385 . S
C1260 C1258 1.478 . S
C1260 C1262 1.381 . S
C1260 C1266 1.383 . S
C1261 C1257 1.495 . S
C1261 H1267 0.959 . S
C1261 H1268 0.961 . S
C1261 H1269 0.960 . S
C1262 C1260 1.381 . S
C1262 C1263 1.394 . S
C1262 H1270 0.930 . S
C1263 C1262 1.394 . S
C1263 C1264 1.383 . S
C1263 H1271 0.929 . S
C1264 C1263 1.383 . S
C1264 C1265 1.377 . S
C1265 H1249 0.930 . S
C1265 C1264 1.377 . S
C1265 C1266 1.379 . S
C1266 H1250 0.931 . S
C1266 C1260 1.383 . S
C1266 C1265 1.379 . S
H1267 C1261 0.959 . S
H1268 C1261 0.961 . S
H1269 C1261 0.960 . S
H1270 C1262 0.930 . S
H1271 C1263 0.929 . S
H1272 C1280 0.929 . S
H1273 C1282 0.930 . S
H1274 C1284 0.930 . S
H1275 C1287 0.929 . S
H1276 C1290 0.930 . S
H1277 C1292 0.960 . S
H1278 C1292 0.960 . S
H1279 C1292 0.960 . S
C1280 H1272 0.929 . S
C1280 C1281 1.377 . S
C1280 C1282 1.384 . S
C1281 C1280 1.377 . S
C1281 C1287 1.390 . S
C1282 H1273 0.930 . S
C1282 C1280 1.384 . S
C1282 C1283 1.372 . S
C1283 C1282 1.372 . S
C1283 C1284 1.400 . S
C1283 C1288 1.490 . S
C1284 H1274 0.930 . S
C1284 C1283 1.400 . S
C1284 C1287 1.386 . S
H1285 C1301 0.930 . S
H1286 C1302 0.931 . S
C1287 H1275 0.929 . S
C1287 C1281 1.390 . S
C1287 C1284 1.386 . S
C1288 C1283 1.490 . S
C1288 C1290 1.395 . S
C1288 C1291 1.403 . S
H1289 C1295 0.930 . S
C1290 H1276 0.930 . S
C1290 C1288 1.395 . S
C1290 C1293 1.403 . S
C1291 C1288 1.403 . S
C1291 C1292 1.524 . S
C1291 C1295 1.400 . S
C1292 H1277 0.960 . S
C1292 H1278 0.960 . S
C1292 H1279 0.960 . S
C1292 C1291 1.524 . S
C1293 C1290 1.403 . S
C1293 C1294 1.392 . S
C1293 C1297 1.495 . S
C1294 C1293 1.392 . S
C1294 C1295 1.385 . S
C1294 C1296 1.478 . S
C1295 H1289 0.930 . S
C1295 C1291 1.400 . S
C1295 C1294 1.385 . S
C1296 C1294 1.478 . S
C1296 C1298 1.381 . S
C1296 C1302 1.383 . S
C1297 C1293 1.495 . S
C1297 H1303 0.959 . S
C1297 H1304 0.961 . S
C1297 H1305 0.960 . S
C1298 C1296 1.381 . S
C1298 C1299 1.394 . S
C1298 H1306 0.930 . S
C1299 C1298 1.394 . S
C1299 C1300 1.383 . S
C1299 H1307 0.929 . S
C1300 C1299 1.383 . S
C1300 C1301 1.377 . S
C1301 H1285 0.930 . S
C1301 C1300 1.377 . S
C1301 C1302 1.379 . S
C1302 H1286 0.931 . S
C1302 C1296 1.383 . S
C1302 C1301 1.379 . S
H1303 C1297 0.959 . S
H1304 C1297 0.961 . S
H1305 C1297 0.960 . S
H1306 C1298 0.930 . S
H1307 C1299 0.929 . S
H1308 C1316 0.929 . S
H1309 C1318 0.930 . S
H1310 C1320 0.930 . S
H1311 C1323 0.929 . S
H1312 C1326 0.930 . S
H1313 C1328 0.960 . S
H1314 C1328 0.960 . S
H1315 C1328 0.960 . S
C1316 H1308 0.929 . S
C1316 C1317 1.377 . S
C1316 C1318 1.384 . S
C1317 C1316 1.377 . S
C1317 C1323 1.390 . S
C1318 H1309 0.930 . S
C1318 C1316 1.384 . S
C1318 C1319 1.372 . S
C1319 C1318 1.372 . S
C1319 C1320 1.400 . S
C1319 C1324 1.490 . S
C1320 H1310 0.930 . S
C1320 C1319 1.400 . S
C1320 C1323 1.386 . S
H1321 C1337 0.930 . S
H1322 C1338 0.931 . S
C1323 H1311 0.929 . S
C1323 C1317 1.390 . S
C1323 C1320 1.386 . S
C1324 C1319 1.490 . S
C1324 C1326 1.395 . S
C1324 C1327 1.403 . S
H1325 C1331 0.930 . S
C1326 H1312 0.930 . S
C1326 C1324 1.395 . S
C1326 C1329 1.403 . S
C1327 C1324 1.403 . S
C1327 C1328 1.524 . S
C1327 C1331 1.400 . S
C1328 H1313 0.960 . S
C1328 H1314 0.960 . S
C1328 H1315 0.960 . S
C1328 C1327 1.524 . S
C1329 C1326 1.403 . S
C1329 C1330 1.392 . S
C1329 C1333 1.495 . S
C1330 C1329 1.392 . S
C1330 C1331 1.385 . S
C1330 C1332 1.478 . S
C1331 H1325 0.930 . S
C1331 C1327 1.400 . S
C1331 C1330 1.385 . S
C1332 C1330 1.478 . S
C1332 C1334 1.381 . S
C1332 C1338 1.383 . S
C1333 C1329 1.495 . S
C1333 H1339 0.959 . S
C1333 H1340 0.961 . S
C1333 H1341 0.960 . S
C1334 C1332 1.381 . S
C1334 C1335 1.394 . S
C1334 H1342 0.930 . S
C1335 C1334 1.394 . S
C1335 C1336 1.383 . S
C1335 H1343 0.929 . S
C1336 C1335 1.383 . S
C1336 C1337 1.377 . S
C1337 H1321 0.930 . S
C1337 C1336 1.377 . S
C1337 C1338 1.379 . S
C1338 H1322 0.931 . S
C1338 C1332 1.383 . S
C1338 C1337 1.379 . S
H1339 C1333 0.959 . S
H1340 C1333 0.961 . S
H1341 C1333 0.960 . S
H1342 C1334 0.930 . S
H1343 C1335 0.929 . S
H1344 C1352 0.929 . S
H1345 C1354 0.930 . S
H1346 C1356 0.930 . S
H1347 C1359 0.929 . S
H1348 C1362 0.930 . S
H1349 C1364 0.960 . S
H1350 C1364 0.960 . S
H1351 C1364 0.960 . S
C1352 H1344 0.929 . S
C1352 C1353 1.377 . S
C1352 C1354 1.384 . S
C1353 C1352 1.377 . S
C1353 C1359 1.390 . S
C1354 H1345 0.930 . S
C1354 C1352 1.384 . S
C1354 C1355 1.372 . S
C1355 C1354 1.372 . S
C1355 C1356 1.400 . S
C1355 C1360 1.490 . S
C1356 H1346 0.930 . S
C1356 C1355 1.400 . S
C1356 C1359 1.386 . S
H1357 C1373 0.930 . S
H1358 C1374 0.931 . S
C1359 H1347 0.929 . S
C1359 C1353 1.390 . S
C1359 C1356 1.386 . S
C1360 C1355 1.490 . S
C1360 C1362 1.395 . S
C1360 C1363 1.403 . S
H1361 C1367 0.930 . S
C1362 H1348 0.930 . S
C1362 C1360 1.395 . S
C1362 C1365 1.403 . S
C1363 C1360 1.403 . S
C1363 C1364 1.524 . S
C1363 C1367 1.400 . S
C1364 H1349 0.960 . S
C1364 H1350 0.960 . S
C1364 H1351 0.960 . S
C1364 C1363 1.524 . S
C1365 C1362 1.403 . S
C1365 C1366 1.392 . S
C1365 C1369 1.495 . S
C1366 C1365 1.392 . S
C1366 C1367 1.385 . S
C1366 C1368 1.478 . S
C1367 H1361 0.930 . S
C1367 C1363 1.400 . S
C1367 C1366 1.385 . S
C1368 C1366 1.478 . S
C1368 C1370 1.381 . S
C1368 C1374 1.383 . S
C1369 C1365 1.495 . S
C1369 H1375 0.959 . S
C1369 H1376 0.961 . S
C1369 H1377 0.960 . S
C1370 C1368 1.381 . S
C1370 C1371 1.394 . S
C1370 H1378 0.930 . S
C1371 C1370 1.394 . S
C1371 C1372 1.383 . S
C1371 H1379 0.929 . S
C1372 C1371 1.383 . S
C1372 C1373 1.377 . S
C1373 H1357 0.930 . S
C1373 C1372 1.377 . S
C1373 C1374 1.379 . S
C1374 H1358 0.931 . S
C1374 C1368 1.383 . S
C1374 C1373 1.379 . S
H1375 C1369 0.959 . S
H1376 C1369 0.961 . S
H1377 C1369 0.960 . S
H1378 C1370 0.930 . S
H1379 C1371 0.929 . S
H1380 C1388 0.929 . S
H1381 C1390 0.930 . S
H1382 C1392 0.930 . S
H1383 C1395 0.929 . S
H1384 C1398 0.930 . S
H1385 C1400 0.960 . S
H1386 C1400 0.960 . S
H1387 C1400 0.960 . S
C1388 H1380 0.929 . S
C1388 C1389 1.377 . S
C1388 C1390 1.384 . S
C1389 C1388 1.377 . S
C1389 C1395 1.390 . S
C1390 H1381 0.930 . S
C1390 C1388 1.384 . S
C1390 C1391 1.372 . S
C1391 C1390 1.372 . S
C1391 C1392 1.400 . S
C1391 C1396 1.490 . S
C1392 H1382 0.930 . S
C1392 C1391 1.400 . S
C1392 C1395 1.386 . S
H1393 C1409 0.930 . S
H1394 C1410 0.931 . S
C1395 H1383 0.929 . S
C1395 C1389 1.390 . S
C1395 C1392 1.386 . S
C1396 C1391 1.490 . S
C1396 C1398 1.395 . S
C1396 C1399 1.403 . S
H1397 C1403 0.930 . S
C1398 H1384 0.930 . S
C1398 C1396 1.395 . S
C1398 C1401 1.403 . S
C1399 C1396 1.403 . S
C1399 C1400 1.524 . S
C1399 C1403 1.400 . S
C1400 H1385 0.960 . S
C1400 H1386 0.960 . S
C1400 H1387 0.960 . S
C1400 C1399 1.524 . S
C1401 C1398 1.403 . S
C1401 C1402 1.392 . S
C1401 C1405 1.495 . S
C1402 C1401 1.392 . S
C1402 C1403 1.385 . S
C1402 C1404 1.478 . S
C1403 H1397 0.930 . S
C1403 C1399 1.400 . S
C1403 C1402 1.385 . S
C1404 C1402 1.478 . S
C1404 C1406 1.381 . S
C1404 C1410 1.383 . S
C1405 C1401 1.495 . S
C1405 H1411 0.959 . S
C1405 H1412 0.961 . S
C1405 H1413 0.960 . S
C1406 C1404 1.381 . S
C1406 C1407 1.394 . S
C1406 H1414 0.930 . S
C1407 C1406 1.394 . S
C1407 C1408 1.383 . S
C1407 H1415 0.929 . S
C1408 C1407 1.383 . S
C1408 C1409 1.377 . S
C1409 H1393 0.930 . S
C1409 C1408 1.377 . S
C1409 C1410 1.379 . S
C1410 H1394 0.931 . S
C1410 C1404 1.383 . S
C1410 C1409 1.379 . S
H1411 C1405 0.959 . S
H1412 C1405 0.961 . S
H1413 C1405 0.960 . S
H1414 C1406 0.930 . S
H1415 C1407 0.929 . S
H1416 C1424 0.929 . S
H1417 C1426 0.930 . S
H1418 C1428 0.930 . S
H1419 C1431 0.929 . S
H1420 C1434 0.930 . S
H1421 C1436 0.960 . S
H1422 C1436 0.960 . S
H1423 C1436 0.960 . S
C1424 H1416 0.929 . S
C1424 C1425 1.377 . S
C1424 C1426 1.384 . S
C1425 C1424 1.377 . S
C1425 C1431 1.390 . S
C1426 H1417 0.930 . S
C1426 C1424 1.384 . S
C1426 C1427 1.372 . S
C1427 C1426 1.372 . S
C1427 C1428 1.400 . S
C1427 C1432 1.490 . S
C1428 H1418 0.930 . S
C1428 C1427 1.400 . S
C1428 C1431 1.386 . S
H1429 C1445 0.930 . S
H1430 C1446 0.931 . S
C1431 H1419 0.929 . S
C1431 C1425 1.390 . S
C1431 C1428 1.386 . S
C1432 C1427 1.490 . S
C1432 C1434 1.395 . S
C1432 C1435 1.403 . S
H1433 C1439 0.930 . S
C1434 H1420 0.930 . S
C1434 C1432 1.395 . S
C1434 C1437 1.403 . S
C1435 C1432 1.403 . S
C1435 C1436 1.524 . S
C1435 C1439 1.400 . S
C1436 H1421 0.960 . S
C1436 H1422 0.960 . S
C1436 H1423 0.960 . S
C1436 C1435 1.524 . S
C1437 C1434 1.403 . S
C1437 C1438 1.392 . S
C1437 C1441 1.495 . S
C1438 C1437 1.392 . S
C1438 C1439 1.385 . S
C1438 C1440 1.478 . S
C1439 H1433 0.930 . S
C1439 C1435 1.400 . S
C1439 C1438 1.385 . S
C1440 C1438 1.478 . S
C1440 C1442 1.381 . S
C1440 C1446 1.383 . S
C1441 C1437 1.495 . S
C1441 H1447 0.959 . S
C1441 H1448 0.961 . S
C1441 H1449 0.960 . S
C1442 C1440 1.381 . S
C1442 C1443 1.394 . S
C1442 H1450 0.930 . S
C1443 C1442 1.394 . S
C1443 C1444 1.383 . S
C1443 H1451 0.929 . S
C1444 C1443 1.383 . S
C1444 C1445 1.377 . S
C1445 H1429 0.930 . S
C1445 C1444 1.377 . S
C1445 C1446 1.379 . S
C1446 H1430 0.931 . S
C1446 C1440 1.383 . S
C1446 C1445 1.379 . S
H1447 C1441 0.959 . S
H1448 C1441 0.961 . S
H1449 C1441 0.960 . S
H1450 C1442 0.930 . S
H1451 C1443 0.929 . S
H1452 C1460 0.929 . S
H1453 C1462 0.930 . S
H1454 C1464 0.930 . S
H1455 C1467 0.929 . S
H1456 C1470 0.930 . S
H1457 C1472 0.960 . S
H1458 C1472 0.960 . S
H1459 C1472 0.960 . S
C1460 H1452 0.929 . S
C1460 C1461 1.377 . S
C1460 C1462 1.384 . S
C1461 C1460 1.377 . S
C1461 C1467 1.390 . S
C1462 H1453 0.930 . S
C1462 C1460 1.384 . S
C1462 C1463 1.372 . S
C1463 C1462 1.372 . S
C1463 C1464 1.400 . S
C1463 C1468 1.490 . S
C1464 H1454 0.930 . S
C1464 C1463 1.400 . S
C1464 C1467 1.386 . S
H1465 C1481 0.930 . S
H1466 C1482 0.931 . S
C1467 H1455 0.929 . S
C1467 C1461 1.390 . S
C1467 C1464 1.386 . S
C1468 C1463 1.490 . S
C1468 C1470 1.395 . S
C1468 C1471 1.403 . S
H1469 C1475 0.930 . S
C1470 H1456 0.930 . S
C1470 C1468 1.395 . S
C1470 C1473 1.403 . S
C1471 C1468 1.403 . S
C1471 C1472 1.524 . S
C1471 C1475 1.400 . S
C1472 H1457 0.960 . S
C1472 H1458 0.960 . S
C1472 H1459 0.960 . S
C1472 C1471 1.524 . S
C1473 C1470 1.403 . S
C1473 C1474 1.392 . S
C1473 C1477 1.495 . S
C1474 C1473 1.392 . S
C1474 C1475 1.385 . S
C1474 C1476 1.478 . S
C1475 H1469 0.930 . S
C1475 C1471 1.400 . S
C1475 C1474 1.385 . S
C1476 C1474 1.478 . S
C1476 C1478 1.381 . S
C1476 C1482 1.383 . S
C1477 C1473 1.495 . S
C1477 H1483 0.959 . S
C1477 H1484 0.961 . S
C1477 H1485 0.960 . S
C1478 C1476 1.381 . S
C1478 C1479 1.394 . S
C1478 H1486 0.930 . S
C1479 C1478 1.394 . S
C1479 C1480 1.383 . S
C1479 H1487 0.929 . S
C1480 C1479 1.383 . S
C1480 C1481 1.377 . S
C1481 H1465 0.930 . S
C1481 C1480 1.377 . S
C1481 C1482 1.379 . S
C1482 H1466 0.931 . S
C1482 C1476 1.383 . S
C1482 C1481 1.379 . S
H1483 C1477 0.959 . S
H1484 C1477 0.961 . S
H1485 C1477 0.960 . S
H1486 C1478 0.930 . S
H1487 C1479 0.929 . S
H1488 C1496 0.929 . S
H1489 C1498 0.930 . S
H1490 C1500 0.930 . S
H1491 C1503 0.929 . S
H1492 C1506 0.930 . S
H1493 C1508 0.960 . S
H1494 C1508 0.960 . S
H1495 C1508 0.960 . S
C1496 H1488 0.929 . S
C1496 C1497 1.377 . S
C1496 C1498 1.384 . S
C1497 C1496 1.377 . S
C1497 C1503 1.390 . S
C1498 H1489 0.930 . S
C1498 C1496 1.384 . S
C1498 C1499 1.372 . S
C1499 C1498 1.372 . S
C1499 C1500 1.400 . S
C1499 C1504 1.490 . S
C1500 H1490 0.930 . S
C1500 C1499 1.400 . S
C1500 C1503 1.386 . S
H1501 C1517 0.930 . S
H1502 C1518 0.931 . S
C1503 H1491 0.929 . S
C1503 C1497 1.390 . S
C1503 C1500 1.386 . S
C1504 C1499 1.490 . S
C1504 C1506 1.395 . S
C1504 C1507 1.403 . S
H1505 C1511 0.930 . S
C1506 H1492 0.930 . S
C1506 C1504 1.395 . S
C1506 C1509 1.403 . S
C1507 C1504 1.403 . S
C1507 C1508 1.524 . S
C1507 C1511 1.400 . S
C1508 H1493 0.960 . S
C1508 H1494 0.960 . S
C1508 H1495 0.960 . S
C1508 C1507 1.524 . S
C1509 C1506 1.403 . S
C1509 C1510 1.392 . S
C1509 C1513 1.495 . S
C1510 C1509 1.392 . S
C1510 C1511 1.385 . S
C1510 C1512 1.478 . S
C1511 H1505 0.930 . S
C1511 C1507 1.400 . S
C1511 C1510 1.385 . S
C1512 C1510 1.478 . S
C1512 C1514 1.381 . S
C1512 C1518 1.383 . S
C1513 C1509 1.495 . S
C1513 H1519 0.959 . S
C1513 H1520 0.961 . S
C1513 H1521 0.960 . S
C1514 C1512 1.381 . S
C1514 C1515 1.394 . S
C1514 H1522 0.930 . S
C1515 C1514 1.394 . S
C1515 C1516 1.383 . S
C1515 H1523 0.929 . S
C1516 C1515 1.383 . S
C1516 C1517 1.377 . S
C1517 H1501 0.930 . S
C1517 C1516 1.377 . S
C1517 C1518 1.379 . S
C1518 H1502 0.931 . S
C1518 C1512 1.383 . S
C1518 C1517 1.379 . S
H1519 C1513 0.959 . S
H1520 C1513 0.961 . S
H1521 C1513 0.960 . S
H1522 C1514 0.930 . S
H1523 C1515 0.929 . S
H1524 C1532 0.929 . S
H1525 C1534 0.930 . S
H1526 C1536 0.930 . S
H1527 C1539 0.929 . S
H1528 C1542 0.930 . S
H1529 C1544 0.960 . S
H1530 C1544 0.960 . S
H1531 C1544 0.960 . S
C1532 H1524 0.929 . S
C1532 C1533 1.377 . S
C1532 C1534 1.384 . S
C1533 C1532 1.377 . S
C1533 C1539 1.390 . S
C1534 H1525 0.930 . S
C1534 C1532 1.384 . S
C1534 C1535 1.372 . S
C1535 C1534 1.372 . S
C1535 C1536 1.400 . S
C1535 C1540 1.490 . S
C1536 H1526 0.930 . S
C1536 C1535 1.400 . S
C1536 C1539 1.386 . S
H1537 C1553 0.930 . S
H1538 C1554 0.931 . S
C1539 H1527 0.929 . S
C1539 C1533 1.390 . S
C1539 C1536 1.386 . S
C1540 C1535 1.490 . S
C1540 C1542 1.395 . S
C1540 C1543 1.403 . S
H1541 C1547 0.930 . S
C1542 H1528 0.930 . S
C1542 C1540 1.395 . S
C1542 C1545 1.403 . S
C1543 C1540 1.403 . S
C1543 C1544 1.524 . S
C1543 C1547 1.400 . S
C1544 H1529 0.960 . S
C1544 H1530 0.960 . S
C1544 H1531 0.960 . S
C1544 C1543 1.524 . S
C1545 C1542 1.403 . S
C1545 C1546 1.392 . S
C1545 C1549 1.495 . S
C1546 C1545 1.392 . S
C1546 C1547 1.385 . S
C1546 C1548 1.478 . S
C1547 H1541 0.930 . S
C1547 C1543 1.400 . S
C1547 C1546 1.385 . S
C1548 C1546 1.478 . S
C1548 C1550 1.381 . S
C1548 C1554 1.383 . S
C1549 C1545 1.495 . S
C1549 H1555 0.959 . S
C1549 H1556 0.961 . S
C1549 H1557 0.960 . S
C1550 C1548 1.381 . S
C1550 C1551 1.394 . S
C1550 H1558 0.930 . S
C1551 C1550 1.394 . S
C1551 C1552 1.383 . S
C1551 H1559 0.929 . S
C1552 C1551 1.383 . S
C1552 C1553 1.377 . S
C1553 H1537 0.930 . S
C1553 C1552 1.377 . S
C1553 C1554 1.379 . S
C1554 H1538 0.931 . S
C1554 C1548 1.383 . S
C1554 C1553 1.379 . S
H1555 C1549 0.959 . S
H1556 C1549 0.961 . S
H1557 C1549 0.960 . S
H1558 C1550 0.930 . S
H1559 C1551 0.929 . S
H1560 C1568 0.929 . S
H1561 C1570 0.930 . S
H1562 C1572 0.930 . S
H1563 C1575 0.929 . S
H1564 C1578 0.930 . S
H1565 C1580 0.960 . S
H1566 C1580 0.960 . S
H1567 C1580 0.960 . S
C1568 H1560 0.929 . S
C1568 C1569 1.377 . S
C1568 C1570 1.384 . S
C1569 C1568 1.377 . S
C1569 C1575 1.390 . S
C1570 H1561 0.930 . S
C1570 C1568 1.384 . S
C1570 C1571 1.372 . S
C1571 C1570 1.372 . S
C1571 C1572 1.400 . S
C1571 C1576 1.490 . S
C1572 H1562 0.930 . S
C1572 C1571 1.400 . S
C1572 C1575 1.386 . S
H1573 C1589 0.930 . S
H1574 C1590 0.931 . S
C1575 H1563 0.929 . S
C1575 C1569 1.390 . S
C1575 C1572 1.386 . S
C1576 C1571 1.490 . S
C1576 C1578 1.395 . S
C1576 C1579 1.403 . S
H1577 C1583 0.930 . S
C1578 H1564 0.930 . S
C1578 C1576 1.395 . S
C1578 C1581 1.403 . S
C1579 C1576 1.403 . S
C1579 C1580 1.524 . S
C1579 C1583 1.400 . S
C1580 H1565 0.960 . S
C1580 H1566 0.960 . S
C1580 H1567 0.960 . S
C1580 C1579 1.524 . S
C1581 C1578 1.403 . S
C1581 C1582 1.392 . S
C1581 C1585 1.495 . S
C1582 C1581 1.392 . S
C1582 C1583 1.385 . S
C1582 C1584 1.478 . S
C1583 H1577 0.930 . S
C1583 C1579 1.400 . S
C1583 C1582 1.385 . S
C1584 C1582 1.478 . S
C1584 C1586 1.381 . S
C1584 C1590 1.383 . S
C1585 C1581 1.495 . S
C1585 H1591 0.959 . S
C1585 H1592 0.961 . S
C1585 H1593 0.960 . S
C1586 C1584 1.381 . S
C1586 C1587 1.394 . S
C1586 H1594 0.930 . S
C1587 C1586 1.394 . S
C1587 C1588 1.383 . S
C1587 H1595 0.929 . S
C1588 C1587 1.383 . S
C1588 C1589 1.377 . S
C1589 H1573 0.930 . S
C1589 C1588 1.377 . S
C1589 C1590 1.379 . S
C1590 H1574 0.931 . S
C1590 C1584 1.383 . S
C1590 C1589 1.379 . S
H1591 C1585 0.959 . S
H1592 C1585 0.961 . S
H1593 C1585 0.960 . S
H1594 C1586 0.930 . S
H1595 C1587 0.929 . S
H1596 C1604 0.929 . S
H1597 C1606 0.930 . S
H1598 C1608 0.930 . S
H1599 C1611 0.929 . S
H1600 C1614 0.930 . S
H1601 C1616 0.960 . S
H1602 C1616 0.960 . S
H1603 C1616 0.960 . S
C1604 H1596 0.929 . S
C1604 C1605 1.377 . S
C1604 C1606 1.384 . S
C1605 C1604 1.377 . S
C1605 C1611 1.390 . S
C1606 H1597 0.930 . S
C1606 C1604 1.384 . S
C1606 C1607 1.372 . S
C1607 C1606 1.372 . S
C1607 C1608 1.400 . S
C1607 C1612 1.490 . S
C1608 H1598 0.930 . S
C1608 C1607 1.400 . S
C1608 C1611 1.386 . S
H1609 C1625 0.930 . S
H1610 C1626 0.931 . S
C1611 H1599 0.929 . S
C1611 C1605 1.390 . S
C1611 C1608 1.386 . S
C1612 C1607 1.490 . S
C1612 C1614 1.395 . S
C1612 C1615 1.403 . S
H1613 C1619 0.930 . S
C1614 H1600 0.930 . S
C1614 C1612 1.395 . S
C1614 C1617 1.403 . S
C1615 C1612 1.403 . S
C1615 C1616 1.524 . S
C1615 C1619 1.400 . S
C1616 H1601 0.960 . S
C1616 H1602 0.960 . S
C1616 H1603 0.960 . S
C1616 C1615 1.524 . S
C1617 C1614 1.403 . S
C1617 C1618 1.392 . S
C1617 C1621 1.495 . S
C1618 C1617 1.392 . S
C1618 C1619 1.385 . S
C1618 C1620 1.478 . S
C1619 H1613 0.930 . S
C1619 C1615 1.400 . S
C1619 C1618 1.385 . S
C1620 C1618 1.478 . S
C1620 C1622 1.381 . S
C1620 C1626 1.383 . S
C1621 C1617 1.495 . S
C1621 H1627 0.959 . S
C1621 H1628 0.961 . S
C1621 H1629 0.960 . S
C1622 C1620 1.381 . S
C1622 C1623 1.394 . S
C1622 H1630 0.930 . S
C1623 C1622 1.394 . S
C1623 C1624 1.383 . S
C1623 H1631 0.929 . S
C1624 C1623 1.383 . S
C1624 C1625 1.377 . S
C1625 H1609 0.930 . S
C1625 C1624 1.377 . S
C1625 C1626 1.379 . S
C1626 H1610 0.931 . S
C1626 C1620 1.383 . S
C1626 C1625 1.379 . S
H1627 C1621 0.959 . S
H1628 C1621 0.961 . S
H1629 C1621 0.960 . S
H1630 C1622 0.930 . S
H1631 C1623 0.929 . S
C508 C369 1.516 . S
C489 C15 1.517 . S
C544 C395 1.506 . S
C525 C68 1.517 . S
C580 C409 1.515 . S
C561 C107 1.519 . S
C616 C411 1.507 . S
C597 C160 1.518 . S
C633 C185 1.517 . S
C652 C408 1.516 . S
C688 C410 1.505 . S
C669 C252 1.518 . S
C724 C368 1.515 . S
C705 C277 1.518 . S
C760 C394 1.505 . S
C741 C330 1.519 . S
C796 C396 1.517 . S
C777 C323 1.520 . S
C832 C422 1.518 . S
C813 C192 1.518 . S
C868 C380 1.517 . S
C849 C245 1.518 . S
C904 C382 1.511 . S
C885 C284 1.516 . S
C940 C381 1.517 . S
C921 C61 1.518 . S
C976 C383 1.508 . S
C957 C114 1.518 . S
C1012 C397 1.516 . S
C993 C153 1.516 . S
C1048 C423 1.517 . S
C1029 C22 1.518 . S
C1084 C425 1.516 . S
C1065 C337 1.521 . S
C1101 C206 1.518 . S
C1120 C451 1.513 . S
C1137 C231 1.518 . S
C1156 C464 1.520 . S
C1173 C298 1.518 . S
C1192 C467 1.512 . S
C1209 C47 1.517 . S
C1228 C465 1.500 . S
C1245 C100 1.517 . S
C1264 C466 1.514 . S
C1281 C139 1.517 . S
C1300 C424 1.505 . S
C1336 C450 1.509 . S
C1317 C8 1.515 . S
C1372 C453 1.507 . S
C1353 C1 1.514 . S
C1389 C54 1.518 . S
C1408 C478 1.501 . S
C1425 C93 1.518 . S
C1444 C436 1.505 . S
C1461 C146 1.517 . S
C1480 C438 1.513 . S
C1516 C437 1.507 . S
C1497 C199 1.521 . S
C1552 C439 1.514 . S
C1533 C238 1.521 . S
C1569 C291 1.518 . S
C1588 C452 1.521 . S
C1624 C479 1.518 . S
C1605 C344 1.522 . S
