# Generated by pormake.
# Topology pth, (4,4)-cn, num edge types: 1
# Building blocks:
#     Node 0, Type 0, BuildingBlock: CEKHIL_clean_sbu_0, # of connection points: 4
#     Node 1, Type 0, BuildingBlock: CEKHIL_clean_sbu_0, # of connection points: 4
#     Node 2, Type 0, BuildingBlock: CEKHIL_clean_sbu_0, # of connection points: 4
#     Node 3, Type 1, BuildingBlock: MUDLON_clean_linker_0, # of connection points: 4
#     Node 4, Type 1, BuildingBlock: MUDLON_clean_linker_0, # of connection points: 4
#     Node 5, Type 1, BuildingBlock: MUDLON_clean_linker_0, # of connection points: 4
#     Edge 6, Type (0, 1), BuildingBlock: KIFKEQ_clean_linker_1, # of connection points: 2
#     Edge 7, Type (0, 1), BuildingBlock: KIFKEQ_clean_linker_1, # of connection points: 2
#     Edge 8, Type (0, 1), BuildingBlock: KIFKEQ_clean_linker_1, # of connection points: 2
#     Edge 9, Type (0, 1), BuildingBlock: KIFKEQ_clean_linker_1, # of connection points: 2
#     Edge 10, Type (0, 1), BuildingBlock: KIFKEQ_clean_linker_1, # of connection points: 2
#     Edge 11, Type (0, 1), BuildingBlock: KIFKEQ_clean_linker_1, # of connection points: 2
#     Edge 12, Type (0, 1), BuildingBlock: KIFKEQ_clean_linker_1, # of connection points: 2
#     Edge 13, Type (0, 1), BuildingBlock: KIFKEQ_clean_linker_1, # of connection points: 2
#     Edge 14, Type (0, 1), BuildingBlock: KIFKEQ_clean_linker_1, # of connection points: 2
#     Edge 15, Type (0, 1), BuildingBlock: KIFKEQ_clean_linker_1, # of connection points: 2
#     Edge 16, Type (0, 1), BuildingBlock: KIFKEQ_clean_linker_1, # of connection points: 2
#     Edge 17, Type (0, 1), BuildingBlock: KIFKEQ_clean_linker_1, # of connection points: 2
# Relax obj value: 0.035
# Max RMSD: 0.091
# Mean RMSD: 0.088
data_MOF--net-pth--node1-CEKHIL_clean_sbu_0--node2-MUDLON_clean_linker_0--edge1-KIFKEQ_clean_linker_1
_symmetry_space_group_name_H-M    P1
_symmetry_Int_Tables_number       1
_symmetry_cell_setting            triclinic
loop_
_symmetry_equiv_pos_as_xyz
'x, y, z'
_cell_length_a     33.688721
_cell_length_b     33.809942
_cell_length_c     69.826372
_cell_angle_alpha  90.81559
_cell_angle_beta   89.947254
_cell_angle_gamma 120.30171
loop_
_atom_site_label
_atom_site_type_symbol
_atom_site_fract_x
_atom_site_fract_y
_atom_site_fract_z
_atom_type_partial_charge
Co0 Co 0.0023 0.02363 0.04039 0.0
O1 O 0.97081 0.97347 0.05771 0.0
O2 O 0.03142 0.98669 0.04052 0.0
C3 C 0.00608 0.07793 0.06076 0.0
O4 O 0.04482 0.07264 0.02157 0.0
Co5 Co 0.95755 0.07853 0.02634 0.0
O6 O 0.02135 0.12386 0.01882 0.0
C7 C 0.92698 0.98643 0.00982 0.0
C8 C 1.00076 0.96167 0.05311 0.0
C9 C 0.05094 0.11152 0.01605 0.0
O10 O 0.95938 0.98502 0.01899 0.0
O11 O 0.91883 0.01941 0.01174 0.0
O12 O 0.03633 0.06496 0.06169 0.0
O13 O 0.97282 0.05545 0.04867 0.0
Co14 Co 0.00657 0.01971 0.35749 0.0
O15 O 0.97915 0.03741 0.33782 0.0
O16 O 0.03285 0.08582 0.35804 0.0
C17 C 0.01839 0.97225 0.33837 0.0
O18 O 0.04465 0.01388 0.3789 0.0
Co19 Co 0.96102 0.91901 0.3702 0.0
O20 O 0.02298 0.93939 0.38101 0.0
C21 C 0.92305 0.97643 0.38367 0.0
C22 C 0.00616 0.07941 0.34343 0.0
C23 C 0.05078 0.98149 0.38495 0.0
O24 O 0.95718 0.01179 0.37611 0.0
O25 O 0.91684 0.93593 0.38178 0.0
O26 O 0.04757 0.016 0.33872 0.0
O27 O 0.98169 0.95911 0.3484 0.0
Co28 Co 0.00571 0.02293 0.69225 0.0
O29 O 0.05325 0.05629 0.67398 0.0
O30 O 0.04579 0.99715 0.69017 0.0
C31 C 0.94764 0.01592 0.67364 0.0
O32 O 0.95963 0.97923 0.71176 0.0
Co33 Co 0.94986 0.06505 0.70881 0.0
O34 O 0.90919 0.0024 0.71852 0.0
C35 C 0.04531 0.10052 0.72188 0.0
C36 C 0.06817 0.0285 0.67747 0.0
C37 C 0.92231 0.97312 0.71962 0.0
O38 O 0.04571 0.06688 0.7132 0.0
O39 O 0.01175 0.10801 0.72054 0.0
O40 O 0.9625 0.98734 0.67173 0.0
O41 O 0.97053 0.04965 0.68551 0.0
H42 H 0.97738 0.68902 0.20784 0.0
N43 N 0.05367 0.69188 0.19232 0.0
H44 H 0.97569 0.73243 0.2357 0.0
H45 H 0.12385 0.7485 0.21478 0.0
H46 H 0.1225 0.79353 0.24249 0.0
H47 H 0.11476 0.75397 0.16901 0.0
H48 H 0.09969 0.7873 0.14096 0.0
H49 H 0.96934 0.66264 0.17601 0.0
H50 H 0.95377 0.69675 0.14825 0.0
H51 H 0.9774 0.62093 0.20932 0.0
H52 H 0.10017 0.65466 0.17771 0.0
H53 H 0.96158 0.54322 0.213 0.0
H54 H 0.08275 0.57552 0.17999 0.0
H55 H 0.91829 0.30575 0.22813 0.0
H56 H 0.92838 0.27003 0.25662 0.0
H57 H 0.0754 0.35911 0.25307 0.0
H58 H 0.06518 0.39485 0.22495 0.0
H59 H 0.06427 0.3759 0.1931 0.0
H60 H 0.07293 0.33403 0.16622 0.0
H61 H 0.92769 0.27037 0.15385 0.0
H62 H 0.91912 0.31205 0.18111 0.0
H63 H 0.92259 0.39497 0.20341 0.0
H64 H 0.93722 0.47267 0.19879 0.0
H65 H 0.08358 0.52336 0.20064 0.0
N66 N 0.98347 0.36761 0.20598 0.0
H67 H 0.06826 0.44548 0.20366 0.0
C68 C 0.05084 0.71487 0.20939 0.0
C69 C 0.00912 0.71079 0.2155 0.0
C70 C 0.00814 0.73573 0.23143 0.0
C71 C 0.04892 0.76611 0.24126 0.0
C72 C 0.09059 0.77026 0.23515 0.0
C73 C 0.09139 0.74456 0.21943 0.0
C74 C 0.0433 0.70641 0.17468 0.0
C75 C 0.07961 0.74078 0.16429 0.0
C76 C 0.07093 0.75963 0.14829 0.0
C77 C 0.02554 0.74478 0.1425 0.0
C78 C 0.98907 0.70912 0.15253 0.0
C79 C 0.99788 0.68971 0.16839 0.0
C80 C 0.04079 0.64429 0.19354 0.0
C81 C 1.00093 0.61176 0.203 0.0
C82 C 0.99153 0.56669 0.20491 0.0
C83 C 0.02103 0.55266 0.19697 0.0
C84 C 0.05982 0.585 0.18682 0.0
C85 C 0.06966 0.63024 0.18528 0.0
C86 C 0.99072 0.35271 0.22424 0.0
C87 C 0.95258 0.31825 0.2338 0.0
C88 C 0.95841 0.298 0.25007 0.0
C89 C 0.00274 0.31162 0.25699 0.0
C90 C 0.04087 0.34765 0.24794 0.0
C91 C 0.03496 0.3682 0.23179 0.0
C92 C 0.99073 0.34662 0.18927 0.0
C93 C 0.03425 0.35312 0.18467 0.0
C94 C 0.0392 0.3291 0.16927 0.0
C95 C 1.00095 0.29876 0.15801 0.0
C96 C 0.95784 0.29374 0.1622 0.0
C97 C 0.95283 0.31733 0.17775 0.0
C98 C 0.9941 0.41434 0.20427 0.0
C99 C 0.95777 0.42306 0.20285 0.0
C100 C 0.96633 0.46764 0.20034 0.0
C101 C 0.01171 0.50483 0.19944 0.0
C102 C 0.04815 0.49583 0.20096 0.0
C103 C 0.03945 0.45107 0.20309 0.0
H104 H 0.70463 0.06092 0.54306 0.0
N105 N 0.63161 0.98148 0.52897 0.0
H106 H 0.75215 0.06882 0.57062 0.0
H107 H 0.62097 0.91607 0.55263 0.0
H108 H 0.67058 0.92261 0.57941 0.0
H109 H 0.63035 0.91475 0.50822 0.0
H110 H 0.67571 0.92184 0.47977 0.0
H111 H 0.68711 0.06089 0.51006 0.0
H112 H 0.73348 0.06863 0.4816 0.0
H113 H 0.63375 0.05621 0.54672 0.0
H114 H 0.55011 0.93606 0.51171 0.0
H115 H 0.57183 0.07267 0.548 0.0
H116 H 0.48858 0.9542 0.51171 0.0
H117 H 0.37314 0.12519 0.549 0.0
H118 H 0.32716 0.12096 0.57687 0.0
H119 H 0.28679 0.97873 0.58359 0.0
H120 H 0.33334 0.98348 0.55595 0.0
H121 H 0.29703 0.97991 0.52445 0.0
H122 H 0.24604 0.96801 0.49762 0.0
H123 H 0.34857 0.09767 0.47421 0.0
H124 H 0.39788 0.11053 0.50202 0.0
H125 H 0.46888 0.1162 0.53337 0.0
H126 H 0.53119 0.09932 0.53162 0.0
H127 H 0.43092 0.95429 0.52956 0.0
N128 N 0.37924 0.05759 0.53237 0.0
H129 H 0.36922 0.97216 0.52975 0.0
C130 C 0.65846 0.9879 0.54603 0.0
C131 C 0.69618 0.03077 0.55122 0.0
C132 C 0.72394 0.03506 0.56689 0.0
C133 C 0.71571 0.99633 0.57736 0.0
C134 C 0.67771 0.95349 0.57209 0.0
C135 C 0.64933 0.94951 0.55669 0.0
C136 C 0.65561 0.98714 0.51125 0.0
C137 C 0.65229 0.94832 0.50228 0.0
C138 C 0.67812 0.9525 0.48601 0.0
C139 C 0.70821 0.99583 0.47843 0.0
C140 C 0.71087 0.03485 0.48722 0.0
C141 C 0.68446 0.03051 0.50344 0.0
C142 C 0.59664 0.99427 0.52925 0.0
C143 C 0.60235 0.03342 0.5391 0.0
C144 C 0.56663 0.04318 0.53966 0.0
C145 C 0.52469 0.01481 0.53 0.0
C146 C 0.51969 0.97637 0.51974 0.0
C147 C 0.55508 0.96615 0.51952 0.0
C148 C 0.35682 0.05491 0.55032 0.0
C149 C 0.35505 0.0934 0.55672 0.0
C150 C 0.32846 0.09075 0.57254 0.0
C151 C 0.30283 0.04931 0.58231 0.0
C152 C 0.30631 0.01121 0.57645 0.0
C153 C 0.33296 0.0139 0.56056 0.0
C154 C 0.35101 0.04666 0.51541 0.0
C155 C 0.30855 0.00577 0.51356 0.0
C156 C 0.27949 0.99883 0.498 0.0
C157 C 0.29268 0.03211 0.48368 0.0
C158 C 0.33644 0.07181 0.48513 0.0
C159 C 0.36503 0.07905 0.50089 0.0
C160 C 0.41461 0.04559 0.53206 0.0
C161 C 0.46059 0.08082 0.53256 0.0
C162 C 0.49615 0.07095 0.53171 0.0
C163 C 0.4865 0.02529 0.53064 0.0
C164 C 0.44003 0.9899 0.53014 0.0
C165 C 0.40447 0.99996 0.5306 0.0
H166 H 0.672 0.72173 0.87226 0.0
N167 N 0.67773 0.64526 0.86397 0.0
H168 H 0.70992 0.77592 0.89858 0.0
H169 H 0.72625 0.63848 0.8925 0.0
H170 H 0.76582 0.69358 0.91875 0.0
H171 H 0.75226 0.65498 0.84671 0.0
H172 H 0.79058 0.70089 0.81862 0.0
H173 H 0.64418 0.68677 0.84097 0.0
H174 H 0.68305 0.73439 0.81333 0.0
H175 H 0.60447 0.64897 0.88017 0.0
H176 H 0.64108 0.56232 0.84798 0.0
H177 H 0.52571 0.58706 0.88169 0.0
H178 H 0.56095 0.50066 0.84818 0.0
H179 H 0.27092 0.38303 0.88261 0.0
H180 H 0.22832 0.33846 0.91014 0.0
H181 H 0.33464 0.30533 0.92093 0.0
H182 H 0.37512 0.34746 0.89252 0.0
H183 H 0.35061 0.31631 0.85627 0.0
H184 H 0.31181 0.2681 0.82801 0.0
H185 H 0.26134 0.35884 0.81333 0.0
H186 H 0.30126 0.40705 0.84122 0.0
H187 H 0.37796 0.4811 0.86762 0.0
H188 H 0.45742 0.54368 0.86556 0.0
H189 H 0.50357 0.44519 0.86663 0.0
N190 N 0.34743 0.3919 0.86799 0.0
H191 H 0.42379 0.38311 0.86712 0.0
C192 C 0.69616 0.67575 0.88042 0.0
C193 C 0.69191 0.71492 0.88242 0.0
C194 C 0.714 0.74619 0.89746 0.0
C195 C 0.74139 0.73946 0.91072 0.0
C196 C 0.74466 0.69967 0.90894 0.0
C197 C 0.72221 0.66819 0.89394 0.0
C198 C 0.69566 0.66763 0.84597 0.0
C199 C 0.73663 0.67156 0.83921 0.0
C200 C 0.75867 0.69823 0.82329 0.0
C201 C 0.74033 0.72199 0.81383 0.0
C202 C 0.69807 0.7164 0.82015 0.0
C203 C 0.67587 0.68938 0.83603 0.0
C204 C 0.62949 0.61037 0.86413 0.0
C205 C 0.59581 0.61688 0.87321 0.0
C206 C 0.55008 0.58115 0.87391 0.0
C207 C 0.5364 0.5383 0.86515 0.0
C208 C 0.56997 0.53251 0.85556 0.0
C209 C 0.61586 0.56796 0.85521 0.0
C210 C 0.32646 0.36929 0.88561 0.0
C211 C 0.28517 0.36651 0.89108 0.0
C212 C 0.26102 0.34113 0.90696 0.0
C213 C 0.27798 0.31829 0.91805 0.0
C214 C 0.32002 0.32182 0.9127 0.0
C215 C 0.34374 0.34661 0.89653 0.0
C216 C 0.32882 0.36529 0.85068 0.0
C217 C 0.3319 0.32611 0.84671 0.0
C218 C 0.30935 0.29843 0.83065 0.0
C219 C 0.28336 0.3095 0.81835 0.0
C220 C 0.28162 0.34957 0.82222 0.0
C221 C 0.30417 0.37711 0.8382 0.0
C222 C 0.39497 0.42765 0.86793 0.0
C223 C 0.40542 0.47327 0.86748 0.0
C224 C 0.45102 0.50901 0.86643 0.0
C225 C 0.48752 0.49994 0.86608 0.0
C226 C 0.47672 0.45385 0.86661 0.0
C227 C 0.43094 0.41808 0.86726 0.0
H228 H 0.07738 0.13771 0.08377 0.0
H229 H 0.94 0.10091 0.06614 0.0
H230 H 0.07956 0.19531 0.10583 0.0
H231 H 0.94119 0.15698 0.08875 0.0
H232 H 0.96691 0.28414 0.12141 0.0
H233 H 0.97155 0.23515 0.09654 0.0
H234 H 0.04814 0.19955 0.13539 0.0
H235 H 0.04471 0.24969 0.15986 0.0
C236 C 0.04763 0.14195 0.08463 0.0
C237 C 0.00845 0.11467 0.0733 0.0
C238 C 0.04871 0.17476 0.09738 0.0
C239 C 0.0104 0.1807 0.09926 0.0
C240 C 0.9716 0.15396 0.08755 0.0
C241 C 0.97075 0.12153 0.07466 0.0
C242 C 0.98491 0.26595 0.12453 0.0
C243 C 0.00549 0.27075 0.14254 0.0
C244 C 0.98743 0.23771 0.11032 0.0
C245 C 0.01011 0.21313 0.1139 0.0
C246 C 0.03115 0.2185 0.13191 0.0
C247 C 0.02907 0.24715 0.14601 0.0
H248 H 0.92738 0.05698 0.39489 0.0
H249 H 0.84363 0.90986 0.3997 0.0
H250 H 0.87418 0.06621 0.41577 0.0
H251 H 0.7914 0.91921 0.42064 0.0
H252 H 0.68385 0.94365 0.44563 0.0
H253 H 0.73449 0.94271 0.4209 0.0
H254 H 0.8512 0.05529 0.44962 0.0
H255 H 0.80027 0.05647 0.47429 0.0
C256 C 0.8976 0.02661 0.40029 0.0
C257 C 0.88995 0.98265 0.3956 0.0
C258 C 0.86725 0.03196 0.41234 0.0
C259 C 0.82842 0.99347 0.41984 0.0
C260 C 0.82049 0.94961 0.41488 0.0
C261 C 0.85077 0.94426 0.40295 0.0
C262 C 0.72027 0.96847 0.44656 0.0
C263 C 0.73813 0.99977 0.46203 0.0
C264 C 0.74932 0.96787 0.43242 0.0
C265 C 0.79703 0.99845 0.43342 0.0
C266 C 0.81461 0.03144 0.44833 0.0
C267 C 0.78543 0.03213 0.46248 0.0
H268 H 0.83582 0.94222 0.73342 0.0
H269 H 0.94484 0.91015 0.73227 0.0
H270 H 0.79166 0.87828 0.75454 0.0
H271 H 0.90003 0.84547 0.75335 0.0
H272 H 0.83336 0.78039 0.8117 0.0
H273 H 0.87609 0.83632 0.7872 0.0
H274 H 0.74978 0.79436 0.7562 0.0
H275 H 0.70683 0.73774 0.78064 0.0
C276 C 0.85028 0.9213 0.73752 0.0
C277 C 0.89416 0.93167 0.73122 0.0
C278 C 0.82468 0.88433 0.74954 0.0
C279 C 0.84231 0.85679 0.75568 0.0
C280 C 0.88569 0.86635 0.74903 0.0
C281 C 0.91125 0.90326 0.73686 0.0
C282 C 0.81466 0.7823 0.79948 0.0
C283 C 0.76651 0.7544 0.7982 0.0
C284 C 0.83927 0.81449 0.78542 0.0
C285 C 0.8164 0.81987 0.76974 0.0
C286 C 0.76838 0.79146 0.76823 0.0
C287 C 0.74374 0.75907 0.78227 0.0
H288 H 0.07283 0.94674 0.05734 0.0
H289 H 0.92954 0.89035 0.07108 0.0
H290 H 0.07574 0.8896 0.07728 0.0
H291 H 0.93141 0.83163 0.09014 0.0
H292 H 0.96698 0.77805 0.14331 0.0
H293 H 0.95882 0.82583 0.11981 0.0
H294 H 0.05555 0.81369 0.08295 0.0
H295 H 0.06501 0.76737 0.10705 0.0
C296 C 0.04168 0.92139 0.06427 0.0
C297 C 1.00112 0.92327 0.06283 0.0
C298 C 0.04319 0.88839 0.07566 0.0
C299 C 0.00391 0.85606 0.08561 0.0
C300 C 0.96271 0.8566 0.0832 0.0
C301 C 0.96147 0.89006 0.07212 0.0
C302 C 0.9859 0.78501 0.13004 0.0
C303 C 0.01664 0.76904 0.12702 0.0
C304 C 0.98117 0.81236 0.11647 0.0
C305 C 0.00658 0.82394 0.09936 0.0
C306 C 0.03608 0.80639 0.09607 0.0
C307 C 0.04131 0.77956 0.1098 0.0
H308 H 0.09324 0.05236 0.41092 0.0
H309 H 0.09721 0.93541 0.38777 0.0
H310 H 0.15308 0.06549 0.43403 0.0
H311 H 0.15887 0.9499 0.40992 0.0
H312 H 0.22849 0.95226 0.46551 0.0
H313 H 0.17217 0.94232 0.44156 0.0
H314 H 0.22932 0.08906 0.44037 0.0
H315 H 0.28273 0.09862 0.4657 0.0
C316 C 0.10762 0.03003 0.41054 0.0
C317 C 0.09028 0.99263 0.39768 0.0
C318 C 0.14217 0.03762 0.42374 0.0
C319 C 0.16086 0.00852 0.4241 0.0
C320 C 0.14463 0.9723 0.41058 0.0
C321 C 0.10947 0.96417 0.39772 0.0
C322 C 0.22875 0.98246 0.4604 0.0
C323 C 0.26031 0.02625 0.46779 0.0
C324 C 0.19678 0.97682 0.4463 0.0
C325 C 0.19591 0.01487 0.43883 0.0
C326 C 0.2282 0.05877 0.44589 0.0
C327 C 0.25962 0.06434 0.46026 0.0
H328 H 0.11275 0.08636 0.73653 0.0
H329 H 0.06739 0.18528 0.73557 0.0
H330 H 0.17562 0.1368 0.75833 0.0
H331 H 0.12996 0.23528 0.75719 0.0
H332 H 0.26966 0.33284 0.78251 0.0
H333 H 0.21615 0.28246 0.75782 0.0
H334 H 0.18127 0.16511 0.79273 0.0
H335 H 0.23398 0.21546 0.81767 0.0
C336 C 0.11634 0.11893 0.74083 0.0
C337 C 0.08486 0.13166 0.73436 0.0
C338 C 0.15222 0.14767 0.75336 0.0
C339 C 0.15776 0.19002 0.75942 0.0
C340 C 0.12692 0.20312 0.75261 0.0
C341 C 0.09082 0.17423 0.74032 0.0
C342 C 0.25068 0.2963 0.78494 0.0
C343 C 0.25575 0.27834 0.80223 0.0
C344 C 0.22012 0.26746 0.77077 0.0
C345 C 0.1942 0.21991 0.77343 0.0
C346 C 0.20103 0.2016 0.79021 0.0
C347 C 0.23136 0.23051 0.80449 0.0
H348 H 0.88121 0.94027 0.65466 0.0
H349 H 0.92875 0.08342 0.66567 0.0
H350 H 0.82207 0.9359 0.63287 0.0
H351 H 0.87038 0.07919 0.6435 0.0
H352 H 0.80918 0.05527 0.58008 0.0
H353 H 0.8615 0.06056 0.60527 0.0
H354 H 0.74893 0.94983 0.63497 0.0
H355 H 0.69543 0.94608 0.61046 0.0
C356 C 0.87877 0.97065 0.65252 0.0
C357 C 0.90959 0.01221 0.66179 0.0
C358 C 0.84489 0.96808 0.64015 0.0
C359 C 0.84192 0.00726 0.63652 0.0
C360 C 0.87217 0.04859 0.64605 0.0
C361 C 0.90537 0.05092 0.65875 0.0
C362 C 0.795 0.03274 0.59216 0.0
C363 C 0.74767 1.00029 0.5931 0.0
C364 C 0.82522 0.03566 0.60653 0.0
C365 C 0.80914 0.00561 0.622 0.0
C366 C 0.76211 0.97319 0.62309 0.0
C367 C 0.7316 0.9709 0.60893 0.0
H368 H 0.9275 0.90633 0.00327 0.0
H369 H 0.86121 0.98081 0.98512 0.0
H370 H 0.88188 0.84584 0.97981 0.0
H371 H 0.81555 0.92022 0.96193 0.0
H372 H 0.7864 0.83267 0.90738 0.0
H373 H 0.8297 0.89076 0.9318 0.0
H374 H 0.80106 0.78496 0.9726 0.0
H375 H 0.75692 0.72645 0.94817 0.0
C376 C 0.90313 0.9098 0.99436 0.0
C377 C 0.89828 0.94868 0.99606 0.0
C378 C 0.8768 0.87495 0.98101 0.0
C379 C 0.84527 0.87835 0.96896 0.0
C380 C 0.84001 0.91688 0.97082 0.0
C381 C 0.86607 0.95155 0.98422 0.0
C382 C 0.78867 0.82163 0.92161 0.0
C383 C 0.76779 0.77476 0.92581 0.0
C384 C 0.81364 0.85501 0.93561 0.0
C385 C 0.81865 0.84248 0.95416 0.0
C386 C 0.79818 0.79569 0.95838 0.0
C387 C 0.77292 0.76219 0.94437 0.0
H388 H 0.95372 0.88632 0.32665 0.0
H389 H 0.09845 0.98559 0.32278 0.0
H390 H 0.96317 0.8359 0.30433 0.0
H391 H 0.10884 0.93411 0.3013 0.0
H392 H 0.1006 0.85875 0.24523 0.0
H393 H 0.09486 0.90721 0.26989 0.0
H394 H 0.99054 0.7864 0.29841 0.0
H395 H 0.99483 0.73843 0.273 0.0
C396 C 0.98779 0.89693 0.32129 0.0
C397 C 0.02528 0.93999 0.32632 0.0
C398 C 0.99337 0.86785 0.30855 0.0
C399 C 0.03681 0.88077 0.30082 0.0
C400 C 0.07465 0.92329 0.30653 0.0
C401 C 0.06884 0.95273 0.31898 0.0
C402 C 0.07678 0.84271 0.2569 0.0
C403 C 0.04806 0.79497 0.25722 0.0
C404 C 0.07359 0.87042 0.27114 0.0
C405 C 0.04211 0.85096 0.28626 0.0
C406 C 0.01445 0.80287 0.28683 0.0
C407 C 0.01707 0.77525 0.27237 0.0
H408 H 0.13297 0.10263 0.6588 0.0
H409 H 0.0921 0.96256 0.67143 0.0
H410 H 0.1922 0.10746 0.63753 0.0
H411 H 0.15099 0.96684 0.64944 0.0
H412 H 0.28696 0.00639 0.61708 0.0
H413 H 0.23327 1.00119 0.64202 0.0
H414 H 0.19054 0.07665 0.60638 0.0
H415 H 0.24401 0.08219 0.58184 0.0
C416 C 0.13681 0.07284 0.65708 0.0
C417 C 0.10754 0.03204 0.66661 0.0
C418 C 0.17062 0.0755 0.64476 0.0
C419 C 0.17574 0.03723 0.6414 0.0
C420 C 0.148 0.99699 0.6517 0.0
C421 C 0.11424 0.99447 0.66427 0.0
C422 C 0.26598 0.02177 0.61464 0.0
C423 C 0.27028 0.04535 0.59761 0.0
C424 C 0.23519 0.01873 0.6289 0.0
C425 C 0.20805 0.0391 0.62635 0.0
C426 C 0.2118 0.06171 0.60911 0.0
C427 C 0.24251 0.06489 0.59499 0.0
H428 H 0.10237 0.20426 0.01845 0.0
H429 H 0.09081 0.0874 0.98769 0.0
H430 H 0.16382 0.25553 0.9973 0.0
H431 H 0.1498 0.13829 0.96545 0.0
H432 H 0.2709 0.23833 0.93124 0.0
H433 H 0.22405 0.19078 0.95726 0.0
H434 H 0.17326 0.28393 0.96733 0.0
H435 H 0.22348 0.33358 0.94284 0.0
C436 C 0.11318 0.18964 0.00711 0.0
C437 C 0.09183 0.14197 0.00464 0.0
C438 C 0.14809 0.21899 0.99479 0.0
C439 C 0.16152 0.20145 0.97923 0.0
C440 C 0.14112 0.15347 0.97728 0.0
C441 C 0.10705 0.12409 0.98999 0.0
C442 C 0.25071 0.24939 0.93933 0.0
C443 C 0.251 0.28994 0.93467 0.0
C444 C 0.22303 0.22151 0.95413 0.0
C445 C 0.19419 0.23289 0.9645 0.0
C446 C 0.19527 0.27393 0.96004 0.0
C447 C 0.2236 0.30221 0.94557 0.0
H448 H 0.97827 0.07616 0.30685 0.0
H449 H 0.03835 0.16866 0.35536 0.0
H450 H 0.98241 0.1382 0.28799 0.0
H451 H 0.04116 0.23096 0.33633 0.0
H452 H 0.95785 0.28402 0.29134 0.0
H453 H 0.96261 0.23232 0.31445 0.0
H454 H 0.06541 0.22653 0.27967 0.0
H455 H 0.06132 0.27841 0.25677 0.0
C456 C 0.99201 0.10968 0.31356 0.0
C457 C 0.00796 0.11757 0.3326 0.0
C458 C 0.99449 0.14514 0.30271 0.0
C459 C 0.01211 0.18907 0.31076 0.0
C460 C 0.02742 0.19717 0.32989 0.0
C461 C 0.02589 0.1617 0.3407 0.0
C462 C 0.98204 0.27233 0.28885 0.0
C463 C 0.00923 0.28523 0.27226 0.0
C464 C 0.98495 0.24312 0.3021 0.0
C465 C 0.01452 0.22586 0.29878 0.0
C466 C 0.04266 0.23982 0.28256 0.0
C467 C 0.04036 0.26954 0.26951 0.0
loop_
_geom_bond_atom_site_label_1
_geom_bond_atom_site_label_2
_geom_bond_distance
_geom_bond_site_symmetry_2
_ccdc_geom_bond_type
Co0 O1 2.216 1_445 S
Co0 O2 2.091 1_545 S
Co0 O4 2.004 . S
Co0 O10 2.021 1_445 S
Co0 O12 2.137 . S
Co0 O13 2.244 1_455 S
O1 Co0 2.216 1_665 S
O1 C8 1.247 1_655 S
O2 Co0 2.091 1_565 S
O2 C8 1.261 . S
C3 O12 1.247 . S
C3 O13 1.272 1_455 S
O4 Co0 2.004 . S
O4 C9 1.259 . S
Co5 O6 2.047 1_654 S
Co5 O11 2.052 . S
Co5 O13 2.135 . S
O6 Co5 2.047 1_456 S
O6 C9 1.226 1_556 S
C7 O10 1.238 . S
C7 O11 1.241 1_565 S
C8 O1 1.247 1_455 S
C8 O2 1.261 . S
C9 O4 1.259 . S
C9 O6 1.226 1_554 S
O10 Co0 2.021 1_665 S
O10 C7 1.238 . S
O11 Co5 2.052 . S
O11 C7 1.241 1_545 S
O12 Co0 2.137 . S
O12 C3 1.247 . S
O13 Co0 2.244 1_655 S
O13 C3 1.272 1_655 S
O13 Co5 2.135 . S
Co14 O15 2.216 1_455 S
Co14 O16 2.091 . S
Co14 O18 2.004 . S
Co14 O24 2.021 1_455 S
Co14 O26 2.137 . S
Co14 O27 2.244 1_445 S
O15 Co14 2.216 1_655 S
O15 C22 1.247 1_655 S
O16 Co14 2.091 . S
O16 C22 1.261 . S
C17 O26 1.247 1_565 S
C17 O27 1.272 1_455 S
O18 Co14 2.004 . S
O18 C23 1.259 . S
Co19 O20 2.061 1_655 S
Co19 O25 2.052 . S
Co19 O27 2.135 . S
O20 Co19 2.061 1_455 S
O20 C23 1.235 1_565 S
C21 O24 1.238 . S
C21 O25 1.241 1_545 S
C22 O15 1.247 1_455 S
C22 O16 1.261 . S
C23 O18 1.259 . S
C23 O20 1.235 1_545 S
O24 Co14 2.021 1_655 S
O24 C21 1.238 . S
O25 Co19 2.052 . S
O25 C21 1.241 1_565 S
O26 Co14 2.137 . S
O26 C17 1.247 1_545 S
O27 Co14 2.244 1_665 S
O27 C17 1.272 1_655 S
O27 Co19 2.135 . S
Co28 O29 2.216 . S
Co28 O30 2.091 1_545 S
Co28 O32 2.004 1_445 S
Co28 O38 2.021 . S
Co28 O40 2.137 1_445 S
Co28 O41 2.244 1_455 S
O29 Co28 2.216 . S
O29 C36 1.247 . S
O30 Co28 2.091 1_565 S
O30 C36 1.261 1_565 S
C31 O40 1.247 1_545 S
C31 O41 1.272 . S
O32 Co28 2.004 1_665 S
O32 C37 1.259 . S
Co33 O34 2.061 1_545 S
Co33 O39 2.052 1_655 S
Co33 O41 2.135 . S
O34 Co33 2.061 1_565 S
O34 C37 1.235 . S
C35 O38 1.238 . S
C35 O39 1.241 . S
C36 O29 1.247 . S
C36 O30 1.261 1_545 S
C37 O32 1.259 . S
C37 O34 1.235 . S
O38 Co28 2.021 . S
O38 C35 1.238 . S
O39 Co33 2.052 1_455 S
O39 C35 1.241 . S
O40 Co28 2.137 1_665 S
O40 C31 1.247 1_565 S
O41 Co28 2.244 1_655 S
O41 C31 1.272 . S
O41 Co33 2.135 . S
H42 C69 0.929 . S
N43 C68 1.433 . S
N43 C74 1.435 . S
N43 C80 1.423 . S
H44 C70 0.930 . S
H45 C73 0.931 . S
H46 C72 0.929 . S
H47 C75 0.930 . S
H48 C76 0.932 . S
H49 C79 0.929 . S
H50 C78 0.931 . S
H51 C81 0.929 . S
H52 C85 0.932 . S
H53 C82 0.931 . S
H54 C84 0.929 1_455 S
H55 C87 0.929 . S
H56 C88 0.930 . S
H57 C90 0.929 . S
H58 C91 0.931 . S
H59 C93 0.930 . S
H60 C94 0.932 . S
H61 C96 0.931 . S
H62 C97 0.929 . S
H63 C99 0.929 . S
H64 C100 0.931 . S
H65 C102 0.929 1_455 S
N66 C86 1.433 . S
N66 C92 1.435 . S
N66 C98 1.423 . S
H67 C103 0.932 . S
C68 N43 1.433 . S
C68 C69 1.363 . S
C68 C73 1.370 1_655 S
C69 H42 0.929 . S
C69 C68 1.363 . S
C69 C70 1.385 . S
C70 H44 0.930 . S
C70 C69 1.385 . S
C70 C71 1.357 1_655 S
C71 C70 1.357 1_455 S
C71 C72 1.406 . S
C72 H46 0.929 . S
C72 C71 1.406 . S
C72 C73 1.391 . S
C73 H45 0.931 . S
C73 C68 1.370 1_455 S
C73 C72 1.391 . S
C74 N43 1.435 . S
C74 C75 1.358 1_655 S
C74 C79 1.371 . S
C75 H47 0.930 . S
C75 C74 1.358 1_455 S
C75 C76 1.405 . S
C76 H48 0.932 . S
C76 C75 1.405 . S
C76 C77 1.383 . S
C77 C76 1.383 . S
C77 C78 1.393 1_455 S
C78 H50 0.931 . S
C78 C77 1.393 1_655 S
C78 C79 1.382 . S
C79 H49 0.929 . S
C79 C74 1.371 . S
C79 C78 1.382 . S
C80 N43 1.423 . S
C80 C81 1.362 . S
C80 C85 1.388 1_655 S
C81 H51 0.929 . S
C81 C80 1.362 . S
C81 C82 1.376 . S
C82 H53 0.931 . S
C82 C81 1.376 . S
C82 C83 1.396 . S
C83 C82 1.396 . S
C83 C84 1.348 . S
C83 C101 1.472 . S
C84 H54 0.929 1_655 S
C84 C83 1.348 . S
C84 C85 1.443 1_655 S
C85 H52 0.932 . S
C85 C80 1.388 1_455 S
C85 C84 1.443 1_455 S
C86 N66 1.433 . S
C86 C87 1.363 . S
C86 C91 1.370 1_655 S
C87 H55 0.929 . S
C87 C86 1.363 . S
C87 C88 1.385 . S
C88 H56 0.930 . S
C88 C87 1.385 . S
C88 C89 1.357 1_655 S
C89 C88 1.357 1_455 S
C89 C90 1.406 . S
C90 H57 0.929 . S
C90 C89 1.406 . S
C90 C91 1.391 . S
C91 H58 0.931 . S
C91 C86 1.370 1_455 S
C91 C90 1.391 . S
C92 N66 1.435 . S
C92 C93 1.358 1_655 S
C92 C97 1.371 . S
C93 H59 0.930 . S
C93 C92 1.358 1_455 S
C93 C94 1.405 . S
C94 H60 0.932 . S
C94 C93 1.405 . S
C94 C95 1.383 . S
C95 C94 1.383 . S
C95 C96 1.393 1_455 S
C96 H61 0.931 . S
C96 C95 1.393 1_655 S
C96 C97 1.382 . S
C97 H62 0.929 . S
C97 C92 1.371 . S
C97 C96 1.382 . S
C98 N66 1.423 . S
C98 C99 1.362 . S
C98 C103 1.388 1_655 S
C99 H63 0.929 . S
C99 C98 1.362 . S
C99 C100 1.376 . S
C100 H64 0.931 . S
C100 C99 1.376 . S
C100 C101 1.396 . S
C101 C83 1.472 . S
C101 C100 1.396 . S
C101 C102 1.348 . S
C102 H65 0.929 1_655 S
C102 C101 1.348 . S
C102 C103 1.443 1_655 S
C103 H67 0.932 . S
C103 C98 1.388 1_455 S
C103 C102 1.443 1_455 S
H104 C131 0.929 . S
N105 C130 1.433 . S
N105 C136 1.435 . S
N105 C142 1.423 . S
H106 C132 0.930 . S
H107 C135 0.931 1_565 S
H108 C134 0.929 . S
H109 C137 0.930 . S
H110 C138 0.932 . S
H111 C141 0.929 . S
H112 C140 0.931 . S
H113 C143 0.929 . S
H114 C147 0.932 1_565 S
H115 C144 0.931 . S
H116 C146 0.929 . S
H117 C149 0.929 . S
H118 C150 0.930 . S
H119 C152 0.929 . S
H120 C153 0.930 1_565 S
H121 C155 0.930 . S
H122 C156 0.932 . S
H123 C158 0.931 . S
H124 C159 0.929 . S
H125 C161 0.929 . S
H126 C162 0.931 . S
H127 C164 0.929 . S
N128 C148 1.433 . S
N128 C154 1.435 . S
N128 C160 1.423 . S
H129 C165 0.932 1_565 S
C130 N105 1.433 . S
C130 C131 1.363 . S
C130 C135 1.370 . S
C131 H104 0.929 . S
C131 C130 1.363 . S
C131 C132 1.385 . S
C132 H106 0.930 . S
C132 C131 1.385 . S
C132 C133 1.357 . S
C133 C132 1.357 . S
C133 C134 1.406 1_545 S
C134 H108 0.929 . S
C134 C133 1.406 1_565 S
C134 C135 1.391 1_565 S
C135 H107 0.931 1_545 S
C135 C130 1.370 . S
C135 C134 1.391 1_545 S
C136 N105 1.435 . S
C136 C137 1.358 1_545 S
C136 C141 1.371 . S
C137 H109 0.930 . S
C137 C136 1.358 1_565 S
C137 C138 1.405 . S
C138 H110 0.932 . S
C138 C137 1.405 . S
C138 C139 1.383 1_565 S
C139 C138 1.383 1_545 S
C139 C140 1.393 . S
C140 H112 0.931 . S
C140 C139 1.393 . S
C140 C141 1.382 . S
C141 H111 0.929 . S
C141 C136 1.371 . S
C141 C140 1.382 . S
C142 N105 1.423 . S
C142 C143 1.362 . S
C142 C147 1.388 . S
C143 H113 0.929 . S
C143 C142 1.362 . S
C143 C144 1.376 . S
C144 H115 0.931 . S
C144 C143 1.376 . S
C144 C145 1.396 . S
C145 C144 1.396 . S
C145 C146 1.348 . S
C145 C163 1.472 . S
C146 H116 0.929 . S
C146 C145 1.348 . S
C146 C147 1.443 . S
C147 H114 0.932 1_545 S
C147 C142 1.388 . S
C147 C146 1.443 . S
C148 N128 1.433 . S
C148 C149 1.363 . S
C148 C153 1.370 . S
C149 H117 0.929 . S
C149 C148 1.363 . S
C149 C150 1.385 . S
C150 H118 0.930 . S
C150 C149 1.385 . S
C150 C151 1.357 . S
C151 C150 1.357 . S
C151 C152 1.406 1_545 S
C152 H119 0.929 . S
C152 C151 1.406 1_565 S
C152 C153 1.391 1_565 S
C153 H120 0.930 1_545 S
C153 C148 1.370 . S
C153 C152 1.391 1_545 S
C154 N128 1.435 . S
C154 C155 1.358 1_545 S
C154 C159 1.371 . S
C155 H121 0.930 . S
C155 C154 1.358 1_565 S
C155 C156 1.405 . S
C156 H122 0.932 . S
C156 C155 1.405 . S
C156 C157 1.383 1_565 S
C157 C156 1.383 1_545 S
C157 C158 1.393 . S
C158 H123 0.931 . S
C158 C157 1.393 . S
C158 C159 1.382 . S
C159 H124 0.929 . S
C159 C154 1.371 . S
C159 C158 1.382 . S
C160 N128 1.423 . S
C160 C161 1.362 . S
C160 C165 1.388 . S
C161 H125 0.929 . S
C161 C160 1.362 . S
C161 C162 1.376 . S
C162 H126 0.931 . S
C162 C161 1.376 . S
C162 C163 1.396 . S
C163 C145 1.472 . S
C163 C162 1.396 . S
C163 C164 1.348 . S
C164 H127 0.929 . S
C164 C163 1.348 . S
C164 C165 1.443 . S
C165 H129 0.932 1_545 S
C165 C160 1.388 . S
C165 C164 1.443 . S
H166 C193 0.929 . S
N167 C192 1.433 . S
N167 C198 1.435 . S
N167 C204 1.423 . S
H168 C194 0.930 . S
H169 C197 0.931 . S
H170 C196 0.929 . S
H171 C199 0.930 . S
H172 C200 0.932 . S
H173 C203 0.929 . S
H174 C202 0.931 . S
H175 C205 0.929 . S
H176 C209 0.932 . S
H177 C206 0.931 . S
H178 C208 0.929 . S
H179 C211 0.929 . S
H180 C212 0.930 . S
H181 C214 0.929 . S
H182 C215 0.931 . S
H183 C217 0.930 . S
H184 C218 0.932 . S
H185 C220 0.931 . S
H186 C221 0.929 . S
H187 C223 0.929 . S
H188 C224 0.931 . S
H189 C226 0.929 . S
N190 C210 1.433 . S
N190 C216 1.435 . S
N190 C222 1.423 . S
H191 C227 0.932 . S
C192 N167 1.433 . S
C192 C193 1.363 . S
C192 C197 1.370 . S
C193 H166 0.929 . S
C193 C192 1.363 . S
C193 C194 1.385 . S
C194 H168 0.930 . S
C194 C193 1.385 . S
C194 C195 1.357 . S
C195 C194 1.357 . S
C195 C196 1.406 . S
C196 H170 0.929 . S
C196 C195 1.406 . S
C196 C197 1.391 . S
C197 H169 0.931 . S
C197 C192 1.370 . S
C197 C196 1.391 . S
C198 N167 1.435 . S
C198 C199 1.358 . S
C198 C203 1.371 . S
C199 H171 0.930 . S
C199 C198 1.358 . S
C199 C200 1.405 . S
C200 H172 0.932 . S
C200 C199 1.405 . S
C200 C201 1.383 . S
C201 C200 1.383 . S
C201 C202 1.393 . S
C202 H174 0.931 . S
C202 C201 1.393 . S
C202 C203 1.382 . S
C203 H173 0.929 . S
C203 C198 1.371 . S
C203 C202 1.382 . S
C204 N167 1.423 . S
C204 C205 1.362 . S
C204 C209 1.388 . S
C205 H175 0.929 . S
C205 C204 1.362 . S
C205 C206 1.376 . S
C206 H177 0.931 . S
C206 C205 1.376 . S
C206 C207 1.396 . S
C207 C206 1.396 . S
C207 C208 1.348 . S
C207 C225 1.472 . S
C208 H178 0.929 . S
C208 C207 1.348 . S
C208 C209 1.443 . S
C209 H176 0.932 . S
C209 C204 1.388 . S
C209 C208 1.443 . S
C210 N190 1.433 . S
C210 C211 1.363 . S
C210 C215 1.370 . S
C211 H179 0.929 . S
C211 C210 1.363 . S
C211 C212 1.385 . S
C212 H180 0.930 . S
C212 C211 1.385 . S
C212 C213 1.357 . S
C213 C212 1.357 . S
C213 C214 1.406 . S
C214 H181 0.929 . S
C214 C213 1.406 . S
C214 C215 1.391 . S
C215 H182 0.931 . S
C215 C210 1.370 . S
C215 C214 1.391 . S
C216 N190 1.435 . S
C216 C217 1.358 . S
C216 C221 1.371 . S
C217 H183 0.930 . S
C217 C216 1.358 . S
C217 C218 1.405 . S
C218 H184 0.932 . S
C218 C217 1.405 . S
C218 C219 1.383 . S
C219 C218 1.383 . S
C219 C220 1.393 . S
C220 H185 0.931 . S
C220 C219 1.393 . S
C220 C221 1.382 . S
C221 H186 0.929 . S
C221 C216 1.371 . S
C221 C220 1.382 . S
C222 N190 1.423 . S
C222 C223 1.362 . S
C222 C227 1.388 . S
C223 H187 0.929 . S
C223 C222 1.362 . S
C223 C224 1.376 . S
C224 H188 0.931 . S
C224 C223 1.376 . S
C224 C225 1.396 . S
C225 C207 1.472 . S
C225 C224 1.396 . S
C225 C226 1.348 . S
C226 H189 0.929 . S
C226 C225 1.348 . S
C226 C227 1.443 . S
C227 H191 0.932 . S
C227 C222 1.388 . S
C227 C226 1.443 . S
H228 C236 0.950 . S
H229 C241 0.950 . S
H230 C238 0.950 . S
H231 C240 0.950 . S
H232 C242 0.950 . S
H233 C244 0.950 . S
H234 C246 0.950 . S
H235 C247 0.950 . S
C236 H228 0.950 . S
C236 C237 1.386 . S
C236 C238 1.391 . S
C237 C236 1.386 . S
C237 C241 1.393 1_455 S
C238 H230 0.950 . S
C238 C236 1.391 . S
C238 C239 1.400 . S
C239 C238 1.400 . S
C239 C240 1.398 1_455 S
C239 C245 1.491 . S
C240 H231 0.950 . S
C240 C239 1.398 1_655 S
C240 C241 1.391 . S
C241 H229 0.950 . S
C241 C237 1.393 1_655 S
C241 C240 1.391 . S
C242 H232 0.950 . S
C242 C243 1.386 1_655 S
C242 C244 1.391 . S
C243 C242 1.386 1_455 S
C243 C247 1.393 . S
C244 H233 0.950 . S
C244 C242 1.391 . S
C244 C245 1.400 1_655 S
C245 C239 1.491 . S
C245 C244 1.400 1_455 S
C245 C246 1.398 . S
C246 H234 0.950 . S
C246 C245 1.398 . S
C246 C247 1.391 . S
C247 H235 0.950 . S
C247 C243 1.393 . S
C247 C246 1.391 . S
H248 C256 0.950 . S
H249 C261 0.951 . S
H250 C258 0.950 . S
H251 C260 0.944 . S
H252 C262 0.953 1_565 S
H253 C264 0.950 1_565 S
H254 C266 0.950 . S
H255 C267 0.950 . S
C256 H248 0.950 . S
C256 C257 1.386 . S
C256 C258 1.391 . S
C257 C256 1.386 . S
C257 C261 1.393 . S
C258 H250 0.950 . S
C258 C256 1.391 . S
C258 C259 1.400 . S
C259 C258 1.400 . S
C259 C260 1.398 . S
C259 C265 1.491 . S
C260 H251 0.944 . S
C260 C259 1.398 . S
C260 C261 1.391 . S
C261 H249 0.951 . S
C261 C257 1.393 . S
C261 C260 1.391 . S
C262 H252 0.953 1_545 S
C262 C263 1.387 . S
C262 C264 1.387 . S
C263 C262 1.387 . S
C263 C267 1.393 . S
C264 H253 0.950 1_545 S
C264 C262 1.387 . S
C264 C265 1.400 . S
C265 C259 1.491 . S
C265 C264 1.400 . S
C265 C266 1.398 . S
C266 H254 0.950 . S
C266 C265 1.398 . S
C266 C267 1.391 . S
C267 H255 0.950 . S
C267 C263 1.393 . S
C267 C266 1.391 . S
H268 C276 0.950 . S
H269 C281 0.950 . S
H270 C278 0.950 . S
H271 C280 0.950 . S
H272 C282 0.950 . S
H273 C284 0.950 . S
H274 C286 0.950 . S
H275 C287 0.950 . S
C276 H268 0.950 . S
C276 C277 1.386 . S
C276 C278 1.391 . S
C277 C276 1.386 . S
C277 C281 1.393 . S
C278 H270 0.950 . S
C278 C276 1.391 . S
C278 C279 1.400 . S
C279 C278 1.400 . S
C279 C280 1.398 . S
C279 C285 1.491 . S
C280 H271 0.950 . S
C280 C279 1.398 . S
C280 C281 1.391 . S
C281 H269 0.950 . S
C281 C277 1.393 . S
C281 C280 1.391 . S
C282 H272 0.950 . S
C282 C283 1.386 . S
C282 C284 1.391 . S
C283 C282 1.386 . S
C283 C287 1.393 . S
C284 H273 0.950 . S
C284 C282 1.391 . S
C284 C285 1.400 . S
C285 C279 1.491 . S
C285 C284 1.400 . S
C285 C286 1.398 . S
C286 H274 0.950 . S
C286 C285 1.398 . S
C286 C287 1.391 . S
C287 H275 0.950 . S
C287 C283 1.393 . S
C287 C286 1.391 . S
H288 C296 0.950 . S
H289 C301 0.950 . S
H290 C298 0.950 . S
H291 C300 0.950 . S
H292 C302 0.950 . S
H293 C304 0.950 . S
H294 C306 0.950 . S
H295 C307 0.950 . S
C296 H288 0.950 . S
C296 C297 1.386 . S
C296 C298 1.391 . S
C297 C296 1.386 . S
C297 C301 1.393 1_455 S
C298 H290 0.950 . S
C298 C296 1.391 . S
C298 C299 1.400 . S
C299 C298 1.400 . S
C299 C300 1.398 1_455 S
C299 C305 1.491 . S
C300 H291 0.950 . S
C300 C299 1.398 1_655 S
C300 C301 1.391 . S
C301 H289 0.950 . S
C301 C297 1.393 1_655 S
C301 C300 1.391 . S
C302 H292 0.950 . S
C302 C303 1.386 1_655 S
C302 C304 1.391 . S
C303 C302 1.386 1_455 S
C303 C307 1.393 . S
C304 H293 0.950 . S
C304 C302 1.391 . S
C304 C305 1.400 1_655 S
C305 C299 1.491 . S
C305 C304 1.400 1_455 S
C305 C306 1.398 . S
C306 H294 0.950 . S
C306 C305 1.398 . S
C306 C307 1.391 . S
C307 H295 0.950 . S
C307 C303 1.393 . S
C307 C306 1.391 . S
H308 C316 0.950 . S
H309 C321 0.950 . S
H310 C318 0.950 . S
H311 C320 0.950 . S
H312 C322 0.950 . S
H313 C324 0.950 . S
H314 C326 0.950 . S
H315 C327 0.950 . S
C316 H308 0.950 . S
C316 C317 1.386 . S
C316 C318 1.391 . S
C317 C316 1.386 . S
C317 C321 1.393 1_545 S
C318 H310 0.950 . S
C318 C316 1.391 . S
C318 C319 1.400 . S
C319 C318 1.400 . S
C319 C320 1.398 1_545 S
C319 C325 1.491 . S
C320 H311 0.950 . S
C320 C319 1.398 1_565 S
C320 C321 1.391 . S
C321 H309 0.950 . S
C321 C317 1.393 1_565 S
C321 C320 1.391 . S
C322 H312 0.950 . S
C322 C323 1.386 1_565 S
C322 C324 1.391 . S
C323 C322 1.386 1_545 S
C323 C327 1.393 . S
C324 H313 0.950 . S
C324 C322 1.391 . S
C324 C325 1.400 1_565 S
C325 C319 1.491 . S
C325 C324 1.400 1_545 S
C325 C326 1.398 . S
C326 H314 0.950 . S
C326 C325 1.398 . S
C326 C327 1.391 . S
C327 H315 0.950 . S
C327 C323 1.393 . S
C327 C326 1.391 . S
H328 C336 0.950 . S
H329 C341 0.950 . S
H330 C338 0.950 . S
H331 C340 0.950 . S
H332 C342 0.950 . S
H333 C344 0.950 . S
H334 C346 0.950 . S
H335 C347 0.950 . S
C336 H328 0.950 . S
C336 C337 1.386 . S
C336 C338 1.391 . S
C337 C336 1.386 . S
C337 C341 1.393 . S
C338 H330 0.950 . S
C338 C336 1.391 . S
C338 C339 1.400 . S
C339 C338 1.400 . S
C339 C340 1.398 . S
C339 C345 1.491 . S
C340 H331 0.950 . S
C340 C339 1.398 . S
C340 C341 1.391 . S
C341 H329 0.950 . S
C341 C337 1.393 . S
C341 C340 1.391 . S
C342 H332 0.950 . S
C342 C343 1.386 . S
C342 C344 1.391 . S
C343 C342 1.386 . S
C343 C347 1.393 . S
C344 H333 0.950 . S
C344 C342 1.391 . S
C344 C345 1.400 . S
C345 C339 1.491 . S
C345 C344 1.400 . S
C345 C346 1.398 . S
C346 H334 0.950 . S
C346 C345 1.398 . S
C346 C347 1.391 . S
C347 H335 0.950 . S
C347 C343 1.393 . S
C347 C346 1.391 . S
H348 C356 0.950 1_565 S
H349 C361 0.950 . S
H350 C358 0.950 1_565 S
H351 C360 0.950 . S
H352 C362 0.950 . S
H353 C364 0.950 . S
H354 C366 0.950 . S
H355 C367 0.950 . S
C356 H348 0.950 1_545 S
C356 C357 1.386 . S
C356 C358 1.391 . S
C357 C356 1.386 . S
C357 C361 1.393 . S
C358 H350 0.950 1_545 S
C358 C356 1.391 . S
C358 C359 1.400 . S
C359 C358 1.400 . S
C359 C360 1.398 . S
C359 C365 1.491 . S
C360 H351 0.950 . S
C360 C359 1.398 . S
C360 C361 1.391 . S
C361 H349 0.950 . S
C361 C357 1.393 . S
C361 C360 1.391 . S
C362 H352 0.950 . S
C362 C363 1.386 . S
C362 C364 1.391 . S
C363 C362 1.386 . S
C363 C367 1.393 1_545 S
C364 H353 0.950 . S
C364 C362 1.391 . S
C364 C365 1.400 . S
C365 C359 1.491 . S
C365 C364 1.400 . S
C365 C366 1.398 1_545 S
C366 H354 0.950 . S
C366 C365 1.398 1_565 S
C366 C367 1.391 . S
C367 H355 0.950 . S
C367 C363 1.393 1_565 S
C367 C366 1.391 . S
H368 C376 0.950 1_554 S
H369 C381 0.950 . S
H370 C378 0.950 . S
H371 C380 0.950 . S
H372 C382 0.950 . S
H373 C384 0.950 . S
H374 C386 0.950 . S
H375 C387 0.950 . S
C376 H368 0.950 1_556 S
C376 C377 1.386 . S
C376 C378 1.391 . S
C377 C376 1.386 . S
C377 C381 1.393 . S
C378 H370 0.950 . S
C378 C376 1.391 . S
C378 C379 1.400 . S
C379 C378 1.400 . S
C379 C380 1.398 . S
C379 C385 1.491 . S
C380 H371 0.950 . S
C380 C379 1.398 . S
C380 C381 1.391 . S
C381 H369 0.950 . S
C381 C377 1.393 . S
C381 C380 1.391 . S
C382 H372 0.950 . S
C382 C383 1.386 . S
C382 C384 1.391 . S
C383 C382 1.386 . S
C383 C387 1.393 . S
C384 H373 0.950 . S
C384 C382 1.391 . S
C384 C385 1.400 . S
C385 C379 1.491 . S
C385 C384 1.400 . S
C385 C386 1.398 . S
C386 H374 0.950 . S
C386 C385 1.398 . S
C386 C387 1.391 . S
C387 H375 0.950 . S
C387 C383 1.393 . S
C387 C386 1.391 . S
H388 C396 0.950 . S
H389 C401 0.950 . S
H390 C398 0.950 . S
H391 C400 0.950 . S
H392 C402 0.950 . S
H393 C404 0.950 . S
H394 C406 0.950 . S
H395 C407 0.950 . S
C396 H388 0.950 . S
C396 C397 1.386 1_655 S
C396 C398 1.391 . S
C397 C396 1.386 1_455 S
C397 C401 1.393 . S
C398 H390 0.950 . S
C398 C396 1.391 . S
C398 C399 1.400 1_655 S
C399 C398 1.400 1_455 S
C399 C400 1.398 . S
C399 C405 1.491 . S
C400 H391 0.950 . S
C400 C399 1.398 . S
C400 C401 1.391 . S
C401 H389 0.950 . S
C401 C397 1.393 . S
C401 C400 1.391 . S
C402 H392 0.950 . S
C402 C403 1.386 . S
C402 C404 1.391 . S
C403 C402 1.386 . S
C403 C407 1.393 1_455 S
C404 H393 0.950 . S
C404 C402 1.391 . S
C404 C405 1.400 . S
C405 C399 1.491 . S
C405 C404 1.400 . S
C405 C406 1.398 1_455 S
C406 H394 0.950 . S
C406 C405 1.398 1_655 S
C406 C407 1.391 . S
C407 H395 0.950 . S
C407 C403 1.393 1_655 S
C407 C406 1.391 . S
H408 C416 0.950 . S
H409 C421 0.950 . S
H410 C418 0.950 . S
H411 C420 0.950 . S
H412 C422 0.950 . S
H413 C424 0.950 . S
H414 C426 0.950 . S
H415 C427 0.950 . S
C416 H408 0.950 . S
C416 C417 1.386 . S
C416 C418 1.391 . S
C417 C416 1.386 . S
C417 C421 1.393 . S
C418 H410 0.950 . S
C418 C416 1.391 . S
C418 C419 1.400 . S
C419 C418 1.400 . S
C419 C420 1.398 . S
C419 C425 1.491 . S
C420 H411 0.950 . S
C420 C419 1.398 . S
C420 C421 1.391 . S
C421 H409 0.950 . S
C421 C417 1.393 . S
C421 C420 1.391 . S
C422 H412 0.950 . S
C422 C423 1.386 . S
C422 C424 1.391 . S
C423 C422 1.386 . S
C423 C427 1.393 . S
C424 H413 0.950 . S
C424 C422 1.391 . S
C424 C425 1.400 . S
C425 C419 1.491 . S
C425 C424 1.400 . S
C425 C426 1.398 . S
C426 H414 0.950 . S
C426 C425 1.398 . S
C426 C427 1.391 . S
C427 H415 0.950 . S
C427 C423 1.393 . S
C427 C426 1.391 . S
H428 C436 0.950 1_554 S
H429 C441 0.950 . S
H430 C438 0.950 . S
H431 C440 0.950 . S
H432 C442 0.950 . S
H433 C444 0.950 . S
H434 C446 0.950 . S
H435 C447 0.950 . S
C436 H428 0.950 1_556 S
C436 C437 1.386 . S
C436 C438 1.391 . S
C437 C436 1.386 . S
C437 C441 1.393 . S
C438 H430 0.950 . S
C438 C436 1.391 . S
C438 C439 1.400 . S
C439 C438 1.400 . S
C439 C440 1.398 . S
C439 C445 1.491 . S
C440 H431 0.950 . S
C440 C439 1.398 . S
C440 C441 1.391 . S
C441 H429 0.950 . S
C441 C437 1.393 . S
C441 C440 1.391 . S
C442 H432 0.950 . S
C442 C443 1.386 . S
C442 C444 1.391 . S
C443 C442 1.386 . S
C443 C447 1.393 . S
C444 H433 0.950 . S
C444 C442 1.391 . S
C444 C445 1.400 . S
C445 C439 1.491 . S
C445 C444 1.400 . S
C445 C446 1.398 . S
C446 H434 0.950 . S
C446 C445 1.398 . S
C446 C447 1.391 . S
C447 H435 0.950 . S
C447 C443 1.393 . S
C447 C446 1.391 . S
H448 C456 0.950 . S
H449 C461 0.950 . S
H450 C458 0.950 . S
H451 C460 0.950 . S
H452 C462 0.950 . S
H453 C464 0.950 . S
H454 C466 0.950 . S
H455 C467 0.950 . S
C456 H448 0.950 . S
C456 C457 1.386 . S
C456 C458 1.391 . S
C457 C456 1.386 . S
C457 C461 1.393 1_455 S
C458 H450 0.950 . S
C458 C456 1.391 . S
C458 C459 1.400 . S
C459 C458 1.400 . S
C459 C460 1.398 1_455 S
C459 C465 1.491 . S
C460 H451 0.950 . S
C460 C459 1.398 1_655 S
C460 C461 1.391 . S
C461 H449 0.950 . S
C461 C457 1.393 1_655 S
C461 C460 1.391 . S
C462 H452 0.950 . S
C462 C463 1.386 1_655 S
C462 C464 1.391 . S
C463 C462 1.386 1_455 S
C463 C467 1.393 . S
C464 H453 0.950 . S
C464 C462 1.391 . S
C464 C465 1.400 1_655 S
C465 C459 1.491 . S
C465 C464 1.400 1_455 S
C465 C466 1.398 . S
C466 H454 0.950 . S
C466 C465 1.398 . S
C466 C467 1.391 . S
C467 H455 0.950 . S
C467 C463 1.393 . S
C467 C466 1.391 . S
C243 C95 1.390 . S
C237 C3 1.401 . S
C257 C21 1.430 . S
C263 C139 1.437 . S
C277 C37 1.415 . S
C283 C201 1.421 . S
C297 C8 1.413 . S
C303 C77 1.413 . S
C323 C157 1.424 . S
C317 C23 1.405 . S
C337 C35 1.415 . S
C343 C219 1.424 . S
C363 C133 1.600 . S
C357 C31 1.700 . S
C377 C7 1.712 1_556 S
C383 C195 1.638 . S
C403 C71 1.627 . S
C397 C17 1.717 . S
C423 C151 1.604 . S
C417 C36 1.709 . S
C443 C213 1.633 . S
C437 C9 1.718 1_556 S
C457 C22 1.729 . S
C463 C89 1.638 . S
