# Generated by pormake.
# Topology pth, (4,4)-cn, num edge types: 1
# Building blocks:
#     Node 0, Type 0, BuildingBlock: UXUYUI_clean_sbu_0, # of connection points: 4
#     Node 1, Type 0, BuildingBlock: UXUYUI_clean_sbu_0, # of connection points: 4
#     Node 2, Type 0, BuildingBlock: UXUYUI_clean_sbu_0, # of connection points: 4
#     Node 3, Type 1, BuildingBlock: AZAVOO_clean_linker_0, # of connection points: 4
#     Node 4, Type 1, BuildingBlock: AZAVOO_clean_linker_0, # of connection points: 4
#     Node 5, Type 1, BuildingBlock: AZAVOO_clean_linker_0, # of connection points: 4
#     Edge 6, Type (0, 1), BuildingBlock: OJICUG_clean_linker_0, # of connection points: 2
#     Edge 7, Type (0, 1), BuildingBlock: OJICUG_clean_linker_0, # of connection points: 2
#     Edge 8, Type (0, 1), BuildingBlock: OJICUG_clean_linker_0, # of connection points: 2
#     Edge 9, Type (0, 1), BuildingBlock: OJICUG_clean_linker_0, # of connection points: 2
#     Edge 10, Type (0, 1), BuildingBlock: OJICUG_clean_linker_0, # of connection points: 2
#     Edge 11, Type (0, 1), BuildingBlock: OJICUG_clean_linker_0, # of connection points: 2
#     Edge 12, Type (0, 1), BuildingBlock: OJICUG_clean_linker_0, # of connection points: 2
#     Edge 13, Type (0, 1), BuildingBlock: OJICUG_clean_linker_0, # of connection points: 2
#     Edge 14, Type (0, 1), BuildingBlock: OJICUG_clean_linker_0, # of connection points: 2
#     Edge 15, Type (0, 1), BuildingBlock: OJICUG_clean_linker_0, # of connection points: 2
#     Edge 16, Type (0, 1), BuildingBlock: OJICUG_clean_linker_0, # of connection points: 2
#     Edge 17, Type (0, 1), BuildingBlock: OJICUG_clean_linker_0, # of connection points: 2
# Relax obj value: 0.184
# Max RMSD: 0.234
# Mean RMSD: 0.228
data_MOF--net-pth--node1-UXUYUI_clean_sbu_0--node2-AZAVOO_clean_linker_0--edge1-OJICUG_clean_linker_0
_symmetry_space_group_name_H-M    P1
_symmetry_Int_Tables_number       1
_symmetry_cell_setting            triclinic
loop_
_symmetry_equiv_pos_as_xyz
'x, y, z'
_cell_length_a     25.501726
_cell_length_b     25.518411
_cell_length_c     68.967146
_cell_angle_alpha  91.32118
_cell_angle_beta   88.858882
_cell_angle_gamma 119.95555
loop_
_atom_site_label
_atom_site_type_symbol
_atom_site_fract_x
_atom_site_fract_y
_atom_site_fract_z
_atom_type_partial_charge
Li0 Li 0.13823 0.09497 0.05958 0.0
Li1 Li 0.06156 0.08332 0.08314 0.0
Li2 Li 0.08555 0.00341 0.07716 0.0
Li3 Li 0.02946 0.0251 0.05278 0.0
C4 C 0.19532 0.12999 0.09232 0.0
N5 N 0.31103 0.22237 0.1004 0.0
C6 C 0.20444 0.18482 0.10023 0.0
C7 C 0.24499 0.12199 0.08863 0.0
C8 C 0.26331 0.231 0.10419 0.0
C9 C 0.30315 0.1693 0.09277 0.0
C10 C 0.04316 0.14456 0.05179 0.0
C11 C 0.95055 0.14705 0.04826 0.0
N12 N 0.9831 0.20522 0.04222 0.0
C13 C 0.0757 0.20423 0.04544 0.0
C14 C 0.98011 0.11562 0.05314 0.0
C15 C 0.0445 0.23418 0.04072 0.0
C16 C 0.23191 0.12902 0.03239 0.0
N17 N 0.21038 0.15063 0.04678 0.0
C18 C 0.2812 0.25252 0.03836 0.0
C19 C 0.23441 0.21097 0.05015 0.0
C20 C 0.30212 0.23138 0.02277 0.0
C21 C 0.27808 0.16888 0.02012 0.0
H22 H 0.21113 0.08087 0.02979 0.0
H23 H 0.21517 0.22679 0.06135 0.0
C24 C 0.04675 0.10303 0.12181 0.0
N25 N 0.04299 0.12196 0.10388 0.0
C26 C 0.04042 0.13167 0.1384 0.0
C27 C 0.02802 0.20009 0.11783 0.0
C28 C 0.03345 0.16935 0.1016 0.0
C29 C 0.03209 0.1815 0.13646 0.0
H30 H 0.05731 0.06725 0.12322 0.0
H31 H 0.03243 0.18504 0.08733 0.0
C32 C 0.1066 0.96353 0.04413 0.0
N33 N 0.11945 0.8641 0.03581 0.0
C34 C 0.06026 0.91278 0.03478 0.0
C35 C 0.1597 0.96398 0.04908 0.0
C36 C 0.06759 0.8629 0.03073 0.0
C37 C 0.16524 0.91317 0.04481 0.0
C38 C 0.96092 0.97497 0.09357 0.0
C39 C 0.97087 0.95433 0.11096 0.0
C40 C 0.90644 0.97444 0.09095 0.0
C41 C 0.92678 0.9349 0.12561 0.0
C42 C 0.86345 0.95464 0.10594 0.0
N43 N 0.87446 0.93552 0.12283 0.0
C44 C 0.13119 0.95871 0.10453 0.0
C45 C 0.05268 0.88236 0.08549 0.0
C46 C 0.13227 0.91536 0.11614 0.0
N47 N 0.09137 0.9416 0.08973 0.0
C48 C 0.05283 0.83732 0.09656 0.0
C49 C 0.09215 0.85363 0.11241 0.0
H50 H 0.16029 0.00615 0.10789 0.0
H51 H 0.02049 0.87017 0.07391 0.0
C52 C 0.98832 0.02163 0.01544 0.0
N53 N 0.9728 0.99281 0.03269 0.0
C54 C 0.95135 0.99561 -0.00065 0.0
C55 C 0.88259 0.91151 0.01931 0.0
C56 C 0.9208 0.93932 0.03503 0.0
C57 C 0.89829 0.93921 0.00107 0.0
H58 H 0.03036 0.06401 0.01409 0.0
H59 H 0.91035 0.91716 0.04891 0.0
O60 O 0.13812 0.0844 0.08814 0.0
O61 O 0.07309 0.11465 0.05639 0.0
O62 O 0.10006 0.01258 0.0484 0.0
O63 O 0.00355 0.99412 0.07903 0.0
H64 H 0.16664 0.19198 0.1031 0.0
H65 H 0.23869 0.07983 0.08252 0.0
H66 H 0.27106 0.27376 0.11023 0.0
H67 H 0.34202 0.16385 0.08991 0.0
H68 H 0.90174 0.1252 0.04927 0.0
H69 H 0.12454 0.2272 0.04422 0.0
H70 H 0.95436 0.06946 0.05789 0.0
H71 H 0.06911 0.28044 0.03585 0.0
H72 H 0.29809 0.30045 0.04062 0.0
H73 H 0.2932 0.15107 0.00823 0.0
H74 H 0.04508 0.11702 0.15256 0.0
H75 H 0.02203 0.23878 0.11586 0.0
H76 H 0.01898 0.91175 0.03077 0.0
H77 H 0.19601 0.00296 0.0563 0.0
H78 H 0.032 0.8232 0.02357 0.0
H79 H 0.20592 0.91272 0.04868 0.0
H80 H 0.01252 0.95407 0.11328 0.0
H81 H 0.89709 0.98872 0.07745 0.0
H82 H 0.9342 0.91937 0.1392 0.0
H83 H 0.82123 0.95426 0.10412 0.0
H84 H 0.16235 0.93038 0.12843 0.0
H85 H 0.02154 0.79038 0.09299 0.0
H86 H 0.96477 0.0188 0.98563 0.0
H87 H 0.84267 0.86758 0.02123 0.0
Li88 Li 0.05075 0.97668 0.39419 0.0
Li89 Li 0.13106 0.06358 0.41208 0.0
Li90 Li 0.02213 0.02647 0.41994 0.0
Li91 Li 0.06796 0.08269 0.3903 0.0
C92 C 0.05134 0.93211 0.43201 0.0
N93 N 0.01569 0.82653 0.45183 0.0
C94 C 0.09461 0.9217 0.44046 0.0
C95 C 0.98997 0.88916 0.43379 0.0
C96 C 0.07567 0.86793 0.45038 0.0
C97 C 0.97284 0.83599 0.44383 0.0
C98 C 0.17663 0.06667 0.37463 0.0
C99 C 0.27181 0.14333 0.3613 0.0
N100 N 0.28598 0.09996 0.35633 0.0
C101 C 0.19179 0.02275 0.36917 0.0
C102 C 0.21661 0.12737 0.37048 0.0
C103 C 0.24742 0.04054 0.36003 0.0
C104 C 0.0086 0.89462 0.36298 0.0
N105 N 0.03415 0.90449 0.38076 0.0
C106 C 0.05017 0.82035 0.37636 0.0
C107 C 0.05429 0.86826 0.38767 0.0
C108 C 0.02637 0.81068 0.35762 0.0
C109 C 0.00433 0.84771 0.35106 0.0
H110 H 0.99395 0.92485 0.35776 0.0
H111 H 0.0765 0.87829 0.4015 0.0
C112 C 0.21919 0.12765 0.43997 0.0
N113 N 0.20639 0.091 0.42407 0.0
C114 C 0.26714 0.13848 0.45193 0.0
C115 C 0.28938 0.07573 0.43044 0.0
C116 C 0.24072 0.06576 0.41898 0.0
C117 C 0.30179 0.1108 0.44754 0.0
H118 H 0.18979 0.14533 0.44406 0.0
H119 H 0.2281 0.03479 0.40677 0.0
C120 C 0.92905 0.9751 0.39198 0.0
N121 N 0.80433 0.91513 0.38961 0.0
C122 C 0.89923 0.00713 0.3882 0.0
C123 C 0.89557 0.91239 0.3941 0.0
C124 C 0.83611 0.97606 0.3872 0.0
C125 C 0.83251 0.88294 0.39297 0.0
C126 C 0.11261 0.17132 0.41938 0.0
C127 C 0.07856 0.19393 0.42861 0.0
C128 C 0.17035 0.21137 0.41218 0.0
C129 C 0.10251 0.25646 0.43014 0.0
C130 C 0.19273 0.27358 0.41401 0.0
N131 N 0.15859 0.29466 0.42285 0.0
C132 C 0.97859 0.0018 0.45845 0.0
C133 C 0.93024 0.03931 0.4386 0.0
C134 C 0.9466 0.00455 0.47473 0.0
N135 N 0.96985 0.01904 0.44086 0.0
C136 C 0.89738 0.04287 0.45445 0.0
C137 C 0.90615 0.02633 0.47288 0.0
H138 H 0.0123 0.9884 0.46005 0.0
H139 H 0.92622 0.0554 0.42469 0.0
C140 C 0.08808 0.14182 0.35452 0.0
N141 N 0.06556 0.13759 0.3728 0.0
C142 C 0.08589 0.18153 0.34139 0.0
C143 C 0.03734 0.21162 0.36618 0.0
C144 C 0.03974 0.17078 0.37872 0.0
C145 C 0.06054 0.21725 0.34724 0.0
H146 H 0.10743 0.11409 0.35011 0.0
H147 H 0.02034 0.16502 0.39311 0.0
O148 O 0.06925 0.98445 0.4222 0.0
O149 O 0.12209 0.04998 0.38342 0.0
O150 O 0.99085 0.00473 0.39279 0.0
O151 O 0.08972 0.11023 0.41766 0.0
H152 H 0.14231 0.95469 0.43929 0.0
H153 H 0.95593 0.89716 0.42771 0.0
H154 H 0.10864 0.85912 0.45692 0.0
H155 H 0.92548 0.80235 0.44532 0.0
H156 H 0.30326 0.19018 0.35806 0.0
H157 H 0.16113 0.9755 0.37209 0.0
H158 H 0.20496 0.16174 0.37413 0.0
H159 H 0.25993 0.00708 0.35585 0.0
H160 H 0.06863 0.79344 0.38175 0.0
H161 H 0.98566 0.84151 0.33667 0.0
H162 H 0.27423 0.16484 0.46514 0.0
H163 H 0.31516 0.05384 0.42643 0.0
H164 H 0.92456 0.05556 0.3862 0.0
H165 H 0.918 0.8866 0.39638 0.0
H166 H 0.8124 0.00037 0.38447 0.0
H167 H 0.806 0.83444 0.39467 0.0
H168 H 0.03394 0.1635 0.4344 0.0
H169 H 0.19775 0.19457 0.4054 0.0
H170 H 0.07651 0.27461 0.43713 0.0
H171 H 0.2373 0.30512 0.40844 0.0
H172 H 0.95546 0.99238 0.48874 0.0
H173 H 0.8664 0.05965 0.45238 0.0
H174 H 0.1043 0.18471 0.3269 0.0
H175 H 0.01647 0.23762 0.37109 0.0
Li176 Li 0.14488 0.07228 0.72705 0.0
Li177 Li 0.13321 0.145 0.74829 0.0
Li178 Li 0.05761 0.03664 0.74962 0.0
Li179 Li 0.06524 0.09909 0.72187 0.0
C180 C 0.17374 0.05199 0.76459 0.0
N181 N 0.23517 0.00222 0.78192 0.0
C182 C 0.22589 0.08868 0.77529 0.0
C183 C 0.1526 0.98999 0.7628 0.0
C184 C 0.25639 0.06266 0.78391 0.0
C185 C 0.18434 0.96568 0.77165 0.0
C186 C 0.16237 0.18339 0.7039 0.0
C187 C 0.15454 0.25974 0.68631 0.0
N188 N 0.17435 0.24395 0.66995 0.0
C189 C 0.18307 0.16821 0.68696 0.0
C190 C 0.14842 0.22982 0.70364 0.0
C191 C 0.1887 0.19928 0.66992 0.0
C192 C 0.19247 0.02485 0.69864 0.0
N193 N 0.20402 0.05721 0.71548 0.0
C194 C 0.30755 0.08204 0.71432 0.0
C195 C 0.25998 0.08527 0.72346 0.0
C196 C 0.298 0.05129 0.69642 0.0
C197 C 0.23909 0.0215 0.68877 0.0
H198 H 0.1478 0.00422 0.69241 0.0
H199 H 0.26831 0.11212 0.73657 0.0
C200 C 0.1788 0.2081 0.78324 0.0
N201 N 0.18178 0.21415 0.76368 0.0
C202 C 0.22303 0.2532 0.79491 0.0
C203 C 0.27151 0.3107 0.76611 0.0
C204 C 0.22599 0.2646 0.75499 0.0
C205 C 0.27145 0.30435 0.7863 0.0
H206 H 0.14415 0.16664 0.78966 0.0
H207 H 0.22809 0.26737 0.73936 0.0
C208 C 0.02057 0.96012 0.71577 0.0
N209 N 0.94232 0.84186 0.70452 0.0
C210 C 0.96401 0.94406 0.70816 0.0
C211 C 0.03776 0.91629 0.71735 0.0
C212 C 0.92497 0.88396 0.70264 0.0
C213 C -0.00256 0.85667 0.71167 0.0
C214 C 0.03633 0.14212 0.76258 0.0
C215 C 0.01802 0.12161 0.78147 0.0
C216 C 0.04838 0.19997 0.7577 0.0
C217 C 0.01282 0.15975 0.79527 0.0
C218 C 0.04271 0.23677 0.77192 0.0
N219 N 0.02524 0.21608 0.79026 0.0
C220 C 0.02022 0.96994 0.78424 0.0
C221 C 0.94476 0.9373 0.76015 0.0
C222 C 0.97862 0.92811 0.79727 0.0
N223 N 0.00266 0.9737 0.76608 0.0
C224 C 0.9019 0.8943 0.77261 0.0
C225 C 0.91854 0.8899 0.79151 0.0
H226 H 0.06598 0.00079 0.78883 0.0
H227 H 0.93124 0.94303 0.746 0.0
C228 C 0.02183 0.09752 0.68398 0.0
N229 N 0.01582 0.10656 0.70322 0.0
C230 C 0.9811 0.09752 0.67072 0.0
C231 C 0.92825 0.11477 0.69739 0.0
C232 C 0.97045 0.1154 0.71007 0.0
C233 C 0.93309 0.10531 0.67748 0.0
H234 H 0.05717 0.08867 0.67901 0.0
H235 H 0.96602 0.12125 0.72546 0.0
O236 O 0.14355 0.07686 0.756 0.0
O237 O 0.15596 0.1531 0.72068 0.0
O238 O 0.05956 0.01884 0.72108 0.0
O239 O 0.0424 0.10578 0.74891 0.0
H240 H 0.24284 0.13681 0.7768 0.0
H241 H 0.11186 0.96094 0.75481 0.0
H242 H 0.29694 0.09053 0.79217 0.0
H243 H 0.16848 0.91774 0.77039 0.0
H244 H 0.14354 0.29551 0.68586 0.0
H245 H 0.19437 0.13264 0.68692 0.0
H246 H 0.13277 0.2424 0.71666 0.0
H247 H 0.20439 0.18781 0.65668 0.0
H248 H 0.35169 0.10494 0.72099 0.0
H249 H 0.2295 -0.0017 0.67484 0.0
H250 H 0.2207 0.24685 0.81044 0.0
H251 H 0.30827 0.34893 0.75884 0.0
H252 H 0.95017 0.97754 0.7067 0.0
H253 H 0.08192 0.92821 0.72275 0.0
H254 H 0.88087 0.87078 0.69687 0.0
H255 H 0.01006 0.82223 0.71288 0.0
H256 H 0.00826 0.07689 0.78548 0.0
H257 H 0.06217 0.21634 0.74311 0.0
H258 H -0.00102 0.14459 0.80998 0.0
H259 H 0.05219 0.28177 0.76837 0.0
H260 H 0.99309 0.92609 0.81176 0.0
H261 H 0.85568 0.86643 0.76777 0.0
H262 H 0.98576 0.08937 0.65547 0.0
H263 H 0.89191 0.12115 0.7031 0.0
H264 H 0.98206 0.3776 0.11452 0.0
H265 H 0.15529 0.92012 0.25825 0.0
H266 H 0.94492 0.37601 0.22015 0.0
H267 H 0.94077 0.29251 0.20077 0.0
H268 H 0.13285 0.36724 0.20843 0.0
H269 H 0.13651 0.45028 0.22806 0.0
H270 H 0.95684 0.47077 0.19039 0.0
H271 H 0.95018 0.42872 0.15765 0.0
H272 H 0.1369 0.47237 0.16103 0.0
H273 H 0.14281 0.51412 0.19373 0.0
H274 H 0.97968 0.60933 0.20859 0.0
H275 H 0.9883 0.67459 0.18196 0.0
H276 H 0.15896 0.68855 0.16477 0.0
H277 H 0.15182 0.62701 0.19234 0.0
H278 H 0.97775 0.62012 0.25325 0.0
H279 H 0.99176 0.71962 0.26219 0.0
H280 H 0.17621 0.80357 0.24076 0.0
H281 H 0.16187 0.70367 0.23219 0.0
H282 H 0.96315 0.51661 0.27912 0.0
H283 H 0.95725 0.57324 0.30752 0.0
H284 H 0.14703 0.70397 0.30064 0.0
H285 H 0.15295 0.64668 0.27256 0.0
H286 H 0.9569 0.38868 0.2601 0.0
H287 H 0.95781 0.32068 0.28444 0.0
H288 H 0.14076 0.45487 0.29957 0.0
H289 H 0.14007 0.52211 0.2749 0.0
O290 O 0.98605 0.39577 0.12727 0.0
O291 O 0.08181 0.41809 0.12995 0.0
O292 O 0.05351 0.83475 0.26579 0.0
O293 O 0.14825 0.88028 0.2546 0.0
C294 C 0.04747 0.47878 0.2302 0.0
C295 C 0.05274 0.51663 0.21476 0.0
C296 C 0.0599 0.57422 0.21865 0.0
C297 C 0.06156 0.59399 0.23801 0.0
C298 C 0.05722 0.5564 0.25351 0.0
C299 C 0.05028 0.49871 0.24961 0.0
C300 C 0.04104 0.41908 0.2254 0.0
C301 C 0.98542 0.37252 0.21851 0.0
C302 C 0.98317 0.32507 0.2074 0.0
C303 C 0.03668 0.32422 0.20294 0.0
C304 C 0.09113 0.36734 0.21162 0.0
C305 C 0.09319 0.41435 0.22295 0.0
C306 C 0.05019 0.49522 0.19439 0.0
C307 C 0.99632 0.4716 0.18394 0.0
C308 C 0.99263 0.44745 0.16529 0.0
C309 C 0.0429 0.44678 0.15677 0.0
C310 C 0.09725 0.47185 0.16719 0.0
C311 C 0.10079 0.4958 0.18584 0.0
C312 C 0.06508 0.61348 0.20237 0.0
C313 C 0.01911 0.627 0.19914 0.0
C314 C 0.02381 0.66364 0.18374 0.0
C315 C 0.07416 0.68661 0.17106 0.0
C316 C 0.11994 0.67243 0.17433 0.0
C317 C 0.11569 0.63672 0.18996 0.0
C318 C 0.06885 0.65473 0.24214 0.0
C319 C 0.02108 0.66008 0.25046 0.0
C320 C 0.02921 0.71696 0.25554 0.0
C321 C 0.0852 0.76957 0.25223 0.0
C322 C 0.13257 0.76401 0.24353 0.0
C323 C 0.12445 0.70705 0.23854 0.0
C324 C 0.0583 0.57804 0.2737 0.0
C325 C 0.00401 0.55591 0.2843 0.0
C326 C 0.00063 0.58839 0.30042 0.0
C327 C 0.05145 0.64338 0.30594 0.0
C328 C 0.10713 0.66201 0.29647 0.0
C329 C 0.11065 0.6292 0.28056 0.0
C330 C 0.04855 0.46014 0.26565 0.0
C331 C -0.0029 0.40341 0.2687 0.0
C332 C -0.0023 0.36468 0.28256 0.0
C333 C 0.04948 0.38248 0.29378 0.0
C334 C 0.10014 0.44024 0.2912 0.0
C335 C 0.09979 0.47863 0.27715 0.0
C336 C 0.03837 0.41951 0.13719 0.0
C337 C 0.09443 0.83002 0.25795 0.0
H338 H 0.64481 0.01668 0.44611 0.0
H339 H 0.29626 0.17369 0.59877 0.0
H340 H 0.62769 0.97583 0.55282 0.0
H341 H 0.70186 0.96161 0.53402 0.0
H342 H 0.83533 0.14943 0.5441 0.0
H343 H 0.76007 0.16339 0.56261 0.0
H344 H 0.5434 0.99574 0.52428 0.0
H345 H 0.57077 0.98805 0.49053 0.0
H346 H 0.7291 0.16585 0.49575 0.0
H347 H 0.70059 0.17332 0.52936 0.0
H348 H 0.44022 0.01351 0.54466 0.0
H349 H 0.38164 0.01993 0.51813 0.0
H350 H 0.53173 0.19568 0.50345 0.0
H351 H 0.58915 0.18963 0.53052 0.0
H352 H 0.43274 0.00895 0.59014 0.0
H353 H 0.34468 0.0175 0.60013 0.0
H354 H 0.43555 0.2025 0.58064 0.0
H355 H 0.52372 0.19361 0.57101 0.0
H356 H 0.53013 0.99665 0.61371 0.0
H357 H 0.47459 0.98575 0.64401 0.0
H358 H 0.51686 0.1719 0.64021 0.0
H359 H 0.57528 0.18308 0.61073 0.0
H360 H 0.62697 0.99066 0.60055 0.0
H361 H 0.70111 0.99449 0.62362 0.0
H362 H 0.79214 0.18973 0.62384 0.0
H363 H 0.71737 0.18545 0.60107 0.0
O364 O 0.63435 0.02101 0.45938 0.0
O365 O 0.71575 0.11206 0.46296 0.0
O366 O 0.28582 0.07382 0.60478 0.0
O367 O 0.33033 0.16896 0.59484 0.0
C368 C 0.63938 0.08268 0.56463 0.0
C369 C 0.60477 0.08836 0.54996 0.0
C370 C 0.55504 0.09578 0.555 0.0
C371 C 0.53905 0.09615 0.57468 0.0
C372 C 0.57476 0.09192 0.58939 0.0
C373 C 0.62558 0.08628 0.58431 0.0
C374 C 0.68861 0.07066 0.55892 0.0
C375 C 0.67365 0.01323 0.55159 0.0
C376 C 0.7161 0.00524 0.54086 0.0
C377 C 0.7741 0.05468 0.53734 0.0
C378 C 0.79063 0.11079 0.54635 0.0
C379 C 0.74805 0.11873 0.55709 0.0
C380 C 0.62007 0.08502 0.52923 0.0
C381 C 0.58367 0.03315 0.51803 0.0
C382 C 0.59955 0.02881 0.49879 0.0
C383 C 0.65225 0.07626 0.49046 0.0
C384 C 0.68829 0.12845 0.50172 0.0
C385 C 0.67216 0.13283 0.52092 0.0
C386 C 0.51872 0.10115 0.53949 0.0
C387 C 0.46007 0.05363 0.53584 0.0
C388 C 0.42704 0.05715 0.52056 0.0
C389 C 0.45232 0.10811 0.50858 0.0
C390 C 0.51087 0.15607 0.51249 0.0
C391 C 0.54379 0.1526 0.52786 0.0
C392 C 0.48462 0.10071 0.57991 0.0
C393 C 0.43351 0.05127 0.58805 0.0
C394 C 0.38327 0.05627 0.59372 0.0
C395 C 0.38311 0.11075 0.5912 0.0
C396 C 0.43419 0.15994 0.5828 0.0
C397 C 0.48452 0.15495 0.57722 0.0
C398 C 0.55638 0.09055 0.60998 0.0
C399 C 0.52962 0.03575 0.61994 0.0
C400 C 0.49698 0.02935 0.63708 0.0
C401 C 0.48991 0.07747 0.64437 0.0
C402 C 0.52146 0.13387 0.6352 0.0
C403 C 0.55486 0.14044 0.61826 0.0
C404 C 0.66669 0.08777 0.59937 0.0
C405 C 0.6624 0.03411 0.60585 0.0
C406 C 0.70467 0.0364 0.61895 0.0
C407 C 0.75235 0.09244 0.6254 0.0
C408 C 0.7561 0.14603 0.61895 0.0
C409 C 0.71332 0.14367 0.60612 0.0
C410 C 0.66954 0.07111 0.47012 0.0
C411 C 0.33006 0.11647 0.59736 0.0
H412 H 0.63748 0.72198 0.02474 0.0
H413 H 0.32673 0.18212 0.87516 0.0
H414 H 0.61253 0.71984 0.91979 0.0
H415 H 0.68187 0.80979 0.93855 0.0
H416 H 0.82183 0.7624 0.93077 0.0
H417 H 0.75241 0.67339 0.91161 0.0
H418 H 0.53321 0.61772 0.94905 0.0
H419 H 0.56068 0.66096 0.98184 0.0
H420 H 0.72324 0.64786 0.97793 0.0
H421 H 0.69483 0.60407 0.94527 0.0
H422 H 0.43289 0.48218 0.92922 0.0
H423 H 0.37483 0.40912 0.9545 0.0
H424 H 0.53617 0.40837 0.97187 0.0
H425 H 0.59375 0.47979 0.94599 0.0
H426 H 0.42477 0.47706 0.88669 0.0
H427 H 0.34565 0.37614 0.87648 0.0
H428 H 0.45835 0.30284 0.89329 0.0
H429 H 0.53761 0.40431 0.90311 0.0
H430 H 0.50884 0.58956 0.86377 0.0
H431 H 0.44441 0.53559 0.83619 0.0
H432 H 0.51855 0.41575 0.83405 0.0
H433 H 0.58181 0.46932 0.86199 0.0
H434 H 0.63473 0.71903 0.87897 0.0
H435 H 0.70632 0.7871 0.85461 0.0
H436 H 0.75963 0.65445 0.84038 0.0
H437 H 0.68921 0.58736 0.86503 0.0
O438 O 0.62654 0.70316 0.012 0.0
O439 O 0.7096 0.69569 0.0092 0.0
O440 O 0.30157 0.2627 0.8704 0.0
O441 O 0.35694 0.22239 0.87933 0.0
C442 C 0.63093 0.62773 0.9092 0.0
C443 C 0.59823 0.58723 0.92429 0.0
C444 C 0.55169 0.52812 0.91984 0.0
C445 C 0.53681 0.50997 0.9003 0.0
C446 C 0.56974 0.55056 0.88522 0.0
C447 C 0.61795 0.60893 0.88964 0.0
C448 C 0.67756 0.69019 0.91449 0.0
C449 C 0.65901 0.73048 0.92143 0.0
C450 C 0.6984 0.78133 0.93234 0.0
C451 C 0.7568 0.79236 0.9365 0.0
C452 C 0.77719 0.75527 0.92777 0.0
C453 C 0.73773 0.70446 0.91677 0.0
C454 C 0.61209 0.60791 0.94483 0.0
C455 C 0.57429 0.6235 0.95543 0.0
C456 C 0.59029 0.64849 0.9741 0.0
C457 C 0.64436 0.65822 0.98247 0.0
C458 C 0.6814 0.64116 0.97191 0.0
C459 C 0.66525 0.61606 0.95328 0.0
C460 C 0.51734 0.48581 0.93567 0.0
C461 C 0.45561 0.46592 0.93837 0.0
C462 C 0.42265 0.42447 0.9528 0.0
C463 C 0.45125 0.40329 0.965 0.0
C464 C 0.51339 0.42442 0.96265 0.0
C465 C 0.54614 0.46503 0.94794 0.0
C466 C 0.48701 0.44798 0.89551 0.0
C467 C 0.43223 0.43912 0.88817 0.0
C468 C 0.38711 0.38143 0.88237 0.0
C469 C 0.39578 0.33142 0.884 0.0
C470 C 0.45027 0.34036 0.89179 0.0
C471 C 0.49552 0.39818 0.89748 0.0
C472 C 0.54923 0.53273 0.86498 0.0
C473 C 0.51302 0.5533 0.8568 0.0
C474 C 0.47608 0.52222 0.84107 0.0
C475 C 0.4753 0.47044 0.83328 0.0
C476 C 0.51712 0.45459 0.84008 0.0
C477 C 0.55384 0.48554 0.85585 0.0
C478 C 0.65719 0.6485 0.87389 0.0
C479 C 0.66195 0.70478 0.87061 0.0
C480 C 0.70274 0.74349 0.85673 0.0
C481 C 0.7386 0.72603 0.8457 0.0
C482 C 0.73221 0.66881 0.84858 0.0
C483 C 0.69208 0.63054 0.86263 0.0
C484 C 0.66229 0.68669 0.00202 0.0
C485 C 0.34845 0.27023 0.8775 0.0
C486 C 0.99433 0.18917 0.16963 0.0
C487 C 0.03303 0.21708 0.15373 0.0
H488 H 0.96482 0.20169 0.19788 0.0
C489 C 0.07434 0.27938 0.15455 0.0
H490 H 0.9622 0.14107 0.16926 0.0
C491 C 0.07688 0.31337 0.17096 0.0
C492 C 0.03747 0.28592 0.18672 0.0
H493 H 0.10503 0.3017 0.14253 0.0
H494 H 0.10866 0.36154 0.17111 0.0
C495 C 0.99595 0.22358 0.18594 0.0
C496 C 0.85025 0.99059 0.50459 0.0
C497 C 0.87552 0.03475 0.49016 0.0
H498 H 0.79897 0.96263 0.53111 0.0
C499 C 0.87102 0.08727 0.49223 0.0
H500 H 0.85294 0.9496 0.50336 0.0
C501 C 0.84023 0.09463 0.50801 0.0
C502 C 0.81334 0.04974 0.52214 0.0
H503 H 0.89095 0.12261 0.48153 0.0
H504 H 0.83555 0.13456 0.50872 0.0
C505 C 0.81924 -0.00208 0.52041 0.0
C506 C 0.86821 0.86767 0.82416 0.0
C507 C 0.8727 0.84761 0.80539 0.0
H508 H 0.82179 0.84487 0.85157 0.0
C509 C 0.83236 0.78743 0.79986 0.0
H510 H 0.89834 0.91404 0.82872 0.0
C511 C 0.78868 0.74786 0.81294 0.0
C512 C 0.78402 0.76805 0.83168 0.0
H513 H 0.83502 0.77083 0.78548 0.0
H514 H 0.75818 0.70161 0.80836 0.0
C515 C 0.82406 0.82836 0.83715 0.0
C516 C 0.14053 0.81522 0.13524 0.0
C517 C 0.08845 0.80732 0.12593 0.0
H518 H 0.17686 0.7848 0.15706 0.0
C519 C 0.03215 0.75704 0.1307 0.0
H520 H 0.18482 0.85277 0.1317 0.0
C521 C 0.02781 0.71684 0.14487 0.0
C522 C 0.07949 0.7264 0.15484 0.0
H523 H 0.9909 0.74968 0.12402 0.0
H524 H 0.98366 0.67871 0.14818 0.0
C525 C 0.13606 0.77559 0.14963 0.0
C526 C 0.38146 0.16508 0.47292 0.0
C527 C 0.34534 0.11252 0.46185 0.0
H528 H 0.44317 0.20483 0.49651 0.0
C529 C 0.34733 0.05965 0.46564 0.0
H530 H 0.38131 0.20666 0.47025 0.0
C531 C 0.38318 0.05881 0.48048 0.0
C532 C 0.41761 0.11066 0.49199 0.0
H533 H 0.31946 0.01805 0.45762 0.0
H534 H 0.38332 0.01718 0.48308 0.0
C535 C 0.41725 0.16416 0.48785 0.0
C536 C 0.34589 0.32615 0.81266 0.0
C537 C 0.32411 0.34768 0.79808 0.0
H538 H 0.41 0.34782 0.83517 0.0
C539 C 0.35418 0.41016 0.79454 0.0
H540 H 0.32466 0.27824 0.81554 0.0
C541 C 0.40438 0.45021 0.80557 0.0
C542 C 0.4256 0.42851 0.82029 0.0
H543 H 0.33842 0.42819 0.78344 0.0
H544 H 0.42641 0.49815 0.80265 0.0
C545 C 0.39576 0.36601 0.82367 0.0
C546 C 0.82509 0.06432 0.6682 0.0
C547 C 0.88697 0.10158 0.66398 0.0
H548 H 0.73389 0.03188 0.65914 0.0
C549 C 0.90435 0.13524 0.64688 0.0
H550 H 0.8106 0.03751 0.68122 0.0
C551 C 0.86053 0.13245 0.63438 0.0
C552 C 0.79866 0.09516 0.63861 0.0
H553 H 0.95177 0.16439 0.64335 0.0
H554 H 0.87498 0.15902 0.62131 0.0
C555 C 0.78132 0.06078 0.65555 0.0
C556 C 0.79823 0.87332 0.98515 0.0
C557 C 0.86162 0.90734 0.98376 0.0
H558 H 0.71565 0.81015 0.97137 0.0
C559 C 0.89 0.90735 0.96605 0.0
H560 H 0.77495 0.87283 -0.00149 0.0
C561 C 0.85587 0.87214 0.95033 0.0
C562 C 0.79271 0.8363 0.952 0.0
H563 H 0.93882 0.93253 0.96455 0.0
H564 H 0.87904 0.87179 0.93703 0.0
C565 C 0.76418 0.83809 0.96947 0.0
C566 C 0.01155 0.70723 0.35035 0.0
C567 C 0.03025 0.76636 0.34435 0.0
H568 H 0.00313 0.62122 0.34271 0.0
C569 C 0.05583 0.78436 0.32579 0.0
H570 H 0.99168 0.69238 0.36461 0.0
C571 C 0.06329 0.74436 0.31353 0.0
C572 C 0.04471 0.68532 0.31949 0.0
H573 H 0.07128 0.82988 0.32089 0.0
H574 H 0.0831 0.75942 0.29926 0.0
C575 C 0.01808 0.6667 0.3379 0.0
C576 C 0.40679 0.10783 0.68533 0.0
C577 C 0.34984 0.05464 0.68503 0.0
H578 H 0.49633 0.15588 0.67343 0.0
C579 C 0.34194 0.00663 0.6727 0.0
H580 H 0.41476 0.14619 0.69443 0.0
C581 C 0.3884 0.01303 0.66016 0.0
C582 C 0.44437 0.0673 0.65983 0.0
H583 H 0.29925 0.96452 0.67232 0.0
H584 H 0.37918 0.97632 0.65009 0.0
C585 C 0.45356 0.11384 0.67303 0.0
C586 C 0.39632 0.32696 0.01345 0.0
C587 C 0.3433 0.27379 0.00804 0.0
H588 H 0.47299 0.40969 0.00381 0.0
C589 C 0.32739 0.26267 0.98838 0.0
H590 H 0.40937 0.33641 0.02853 0.0
C591 C 0.36298 0.30463 0.97441 0.0
C592 C 0.41556 0.35805 0.97981 0.0
H593 H 0.28632 0.22236 0.98388 0.0
H594 H 0.34925 0.29554 0.95937 0.0
C595 C 0.43261 0.36857 -0.00063 0.0
C596 C 0.0363 0.24047 0.31467 0.0
C597 C 0.05751 0.25959 0.33361 0.0
H598 H 0.01676 0.26443 0.28727 0.0
C599 C 0.07552 0.31928 0.33947 0.0
H600 H 0.02171 0.19455 0.30984 0.0
C601 C 0.07294 0.3593 0.32654 0.0
C602 C 0.05147 0.34006 0.30763 0.0
H603 H 0.09235 0.33521 0.35397 0.0
H604 H 0.08728 0.40516 0.33137 0.0
C605 C 0.03295 0.28022 0.30184 0.0
loop_
_geom_bond_atom_site_label_1
_geom_bond_atom_site_label_2
_geom_bond_distance
_geom_bond_site_symmetry_2
_ccdc_geom_bond_type
Li0 N17 1.990 . S
Li0 O60 1.956 . S
Li0 O61 1.970 . S
Li0 O62 1.961 . S
Li1 N25 1.990 . S
Li1 O60 1.970 . S
Li1 O61 1.956 . S
Li1 O63 1.961 . S
Li2 N47 1.990 1_545 S
Li2 O60 1.961 . S
Li2 O62 1.956 . S
Li2 O63 1.970 . S
Li3 N53 1.990 1_445 S
Li3 O61 1.961 . S
Li3 O62 1.970 . S
Li3 O63 1.956 . S
C4 C6 1.348 . S
C4 C7 1.356 . S
C4 O60 1.325 . S
N5 C8 1.314 . S
N5 C9 1.279 . S
C6 C4 1.348 . S
C6 C8 1.353 . S
C6 H64 0.929 . S
C7 C4 1.356 . S
C7 C9 1.358 . S
C7 H65 0.930 . S
C8 N5 1.314 . S
C8 C6 1.353 . S
C8 H66 0.930 . S
C9 N5 1.279 . S
C9 C7 1.358 . S
C9 H67 0.930 . S
C10 C13 1.348 . S
C10 C14 1.356 1_455 S
C10 O61 1.325 . S
C11 N12 1.279 1_655 S
C11 C14 1.358 . S
C11 H68 0.930 . S
N12 C11 1.279 1_455 S
N12 C15 1.314 . S
C13 C10 1.348 . S
C13 C15 1.353 . S
C13 H69 0.929 . S
C14 C10 1.356 1_655 S
C14 C11 1.358 . S
C14 H70 0.930 . S
C15 N12 1.314 . S
C15 C13 1.353 . S
C15 H71 0.930 . S
C16 N17 1.314 . S
C16 C21 1.353 . S
C16 H22 0.930 . S
N17 Li0 1.990 . S
N17 C16 1.314 . S
N17 C19 1.279 . S
C18 C19 1.358 . S
C18 C20 1.356 . S
C18 H72 0.930 . S
C19 N17 1.279 . S
C19 C18 1.358 . S
C19 H23 0.930 . S
C20 C18 1.356 . S
C20 C21 1.348 . S
C21 C16 1.353 . S
C21 C20 1.348 . S
C21 H73 0.929 . S
H22 C16 0.930 . S
H23 C19 0.930 . S
C24 N25 1.314 . S
C24 C26 1.353 . S
C24 H30 0.930 . S
N25 Li1 1.990 . S
N25 C24 1.314 . S
N25 C28 1.279 . S
C26 C24 1.353 . S
C26 C29 1.348 . S
C26 H74 0.929 1_455 S
C27 C28 1.358 . S
C27 C29 1.356 . S
C27 H75 0.930 . S
C28 N25 1.279 . S
C28 C27 1.358 . S
C28 H31 0.930 . S
C29 C26 1.348 . S
C29 C27 1.356 . S
H30 C24 0.930 . S
H31 C28 0.930 . S
C32 C34 1.348 . S
C32 C35 1.356 . S
C32 O62 1.325 1_565 S
N33 C36 1.314 . S
N33 C37 1.279 . S
C34 C32 1.348 . S
C34 C36 1.353 . S
C34 H76 0.929 . S
C35 C32 1.356 . S
C35 C37 1.358 . S
C35 H77 0.930 1_565 S
C36 N33 1.314 . S
C36 C34 1.353 . S
C36 H78 0.930 . S
C37 N33 1.279 . S
C37 C35 1.358 . S
C37 H79 0.930 . S
C38 C39 1.348 . S
C38 C40 1.356 . S
C38 O63 1.325 1_665 S
C39 C38 1.348 . S
C39 C41 1.353 . S
C39 H80 0.929 . S
C40 C38 1.356 . S
C40 C42 1.358 . S
C40 H81 0.930 1_565 S
C41 C39 1.353 . S
C41 N43 1.314 . S
C41 H82 0.930 . S
C42 C40 1.358 . S
C42 N43 1.279 . S
C42 H83 0.930 . S
N43 C41 1.314 . S
N43 C42 1.279 . S
C44 C46 1.353 . S
C44 N47 1.314 . S
C44 H50 0.930 1_565 S
C45 N47 1.279 . S
C45 C48 1.358 . S
C45 H51 0.930 . S
C46 C44 1.353 . S
C46 C49 1.348 . S
C46 H84 0.929 . S
N47 Li2 1.990 1_565 S
N47 C44 1.314 . S
N47 C45 1.279 . S
C48 C45 1.358 . S
C48 C49 1.356 . S
C48 H85 0.930 . S
C49 C46 1.348 . S
C49 C48 1.356 . S
H50 C44 0.930 1_545 S
H51 C45 0.930 . S
C52 N53 1.314 . S
C52 C54 1.353 . S
C52 H58 0.930 1_565 S
N53 Li3 1.990 1_665 S
N53 C52 1.314 . S
N53 C56 1.279 . S
C54 C52 1.353 . S
C54 C57 1.348 . S
C54 H86 0.929 . S
C55 C56 1.358 . S
C55 C57 1.356 . S
C55 H87 0.930 . S
C56 N53 1.279 . S
C56 C55 1.358 . S
C56 H59 0.930 . S
C57 C54 1.348 . S
C57 C55 1.356 . S
H58 C52 0.930 1_545 S
H59 C56 0.930 . S
O60 Li0 1.956 . S
O60 Li1 1.970 . S
O60 Li2 1.961 . S
O60 C4 1.325 . S
O61 Li0 1.970 . S
O61 Li1 1.956 . S
O61 Li3 1.961 . S
O61 C10 1.325 . S
O62 Li0 1.961 . S
O62 Li2 1.956 . S
O62 Li3 1.970 . S
O62 C32 1.325 1_545 S
O63 Li1 1.961 . S
O63 Li2 1.970 . S
O63 Li3 1.956 . S
O63 C38 1.325 1_445 S
H64 C6 0.929 . S
H65 C7 0.930 . S
H66 C8 0.930 . S
H67 C9 0.930 . S
H68 C11 0.930 . S
H69 C13 0.929 . S
H70 C14 0.930 . S
H71 C15 0.930 . S
H72 C18 0.930 . S
H73 C21 0.929 . S
H74 C26 0.929 1_655 S
H75 C27 0.930 . S
H76 C34 0.929 . S
H77 C35 0.930 1_545 S
H78 C36 0.930 . S
H79 C37 0.930 . S
H80 C39 0.929 . S
H81 C40 0.930 1_545 S
H82 C41 0.930 . S
H83 C42 0.930 . S
H84 C46 0.929 . S
H85 C48 0.930 . S
H86 C54 0.929 . S
H87 C55 0.930 . S
Li88 N105 1.990 . S
Li88 O148 1.956 . S
Li88 O149 1.970 1_565 S
Li88 O150 1.979 1_565 S
Li89 N113 1.990 . S
Li89 O148 1.970 1_545 S
Li89 O149 1.956 . S
Li89 O151 1.961 . S
Li90 N135 1.990 1_445 S
Li90 O148 1.961 1_545 S
Li90 O150 1.957 . S
Li90 O151 1.970 . S
Li91 N141 1.990 . S
Li91 O149 1.961 . S
Li91 O150 1.981 . S
Li91 O151 1.956 . S
C92 C94 1.348 . S
C92 C95 1.356 1_455 S
C92 O148 1.325 . S
N93 C96 1.314 . S
N93 C97 1.279 1_455 S
C94 C92 1.348 . S
C94 C96 1.353 . S
C94 H152 0.929 . S
C95 C92 1.356 1_655 S
C95 C97 1.358 . S
C95 H153 0.930 . S
C96 N93 1.314 . S
C96 C94 1.353 . S
C96 H154 0.930 . S
C97 N93 1.279 1_655 S
C97 C95 1.358 . S
C97 H155 0.930 . S
C98 C101 1.348 . S
C98 C102 1.356 . S
C98 O149 1.325 . S
C99 N100 1.279 . S
C99 C102 1.358 . S
C99 H156 0.930 . S
N100 C99 1.279 . S
N100 C103 1.314 . S
C101 C98 1.348 . S
C101 C103 1.353 . S
C101 H157 0.929 1_545 S
C102 C98 1.356 . S
C102 C99 1.358 . S
C102 H158 0.930 . S
C103 N100 1.314 . S
C103 C101 1.353 . S
C103 H159 0.930 1_545 S
C104 N105 1.314 . S
C104 C109 1.353 1_455 S
C104 H110 0.930 . S
N105 Li88 1.990 . S
N105 C104 1.314 . S
N105 C107 1.279 . S
C106 C107 1.358 . S
C106 C108 1.356 1_455 S
C106 H160 0.930 . S
C107 N105 1.279 . S
C107 C106 1.358 . S
C107 H111 0.930 . S
C108 C106 1.356 1_655 S
C108 C109 1.348 . S
C109 C104 1.353 1_655 S
C109 C108 1.348 . S
C109 H161 0.929 . S
H110 C104 0.930 . S
H111 C107 0.930 . S
C112 N113 1.314 . S
C112 C114 1.353 . S
C112 H118 0.930 . S
N113 Li89 1.990 . S
N113 C112 1.314 . S
N113 C116 1.279 . S
C114 C112 1.353 . S
C114 C117 1.348 . S
C114 H162 0.929 . S
C115 C116 1.358 . S
C115 C117 1.356 . S
C115 H163 0.930 . S
C116 N113 1.279 . S
C116 C115 1.358 . S
C116 H119 0.930 . S
C117 C114 1.348 . S
C117 C115 1.356 . S
H118 C112 0.930 . S
H119 C116 0.930 . S
C120 C122 1.348 1_565 S
C120 C123 1.356 . S
C120 O150 1.308 1_665 S
N121 C124 1.314 1_565 S
N121 C125 1.279 . S
C122 C120 1.348 1_545 S
C122 C124 1.353 . S
C122 H164 0.929 . S
C123 C120 1.356 . S
C123 C125 1.358 . S
C123 H165 0.930 . S
C124 N121 1.314 1_545 S
C124 C122 1.353 . S
C124 H166 0.930 . S
C125 N121 1.279 . S
C125 C123 1.358 . S
C125 H167 0.930 . S
C126 C127 1.348 . S
C126 C128 1.356 . S
C126 O151 1.325 . S
C127 C126 1.348 . S
C127 C129 1.353 . S
C127 H168 0.929 . S
C128 C126 1.356 . S
C128 C130 1.358 . S
C128 H169 0.930 . S
C129 C127 1.353 . S
C129 N131 1.314 . S
C129 H170 0.930 . S
C130 C128 1.358 . S
C130 N131 1.279 . S
C130 H171 0.930 . S
N131 C129 1.314 . S
N131 C130 1.279 . S
C132 C134 1.353 . S
C132 N135 1.314 . S
C132 H138 0.930 . S
C133 N135 1.279 . S
C133 C136 1.358 . S
C133 H139 0.930 . S
C134 C132 1.353 . S
C134 C137 1.348 . S
C134 H172 0.929 . S
N135 Li90 1.990 1_665 S
N135 C132 1.314 . S
N135 C133 1.279 . S
C136 C133 1.358 . S
C136 C137 1.356 . S
C136 H173 0.930 . S
C137 C134 1.348 . S
C137 C136 1.356 . S
H138 C132 0.930 . S
H139 C133 0.930 . S
C140 N141 1.314 . S
C140 C142 1.353 . S
C140 H146 0.930 . S
N141 Li91 1.990 . S
N141 C140 1.314 . S
N141 C144 1.279 . S
C142 C140 1.353 . S
C142 C145 1.348 . S
C142 H174 0.929 . S
C143 C144 1.358 . S
C143 C145 1.356 . S
C143 H175 0.930 . S
C144 N141 1.279 . S
C144 C143 1.358 . S
C144 H147 0.930 . S
C145 C142 1.348 . S
C145 C143 1.356 . S
H146 C140 0.930 . S
H147 C144 0.930 . S
O148 Li88 1.956 . S
O148 Li89 1.970 1_565 S
O148 Li90 1.961 1_565 S
O148 C92 1.325 . S
O149 Li88 1.970 1_545 S
O149 Li89 1.956 . S
O149 Li91 1.961 . S
O149 C98 1.325 . S
O150 Li88 1.979 1_545 S
O150 Li90 1.957 . S
O150 Li91 1.981 . S
O150 C120 1.308 1_445 S
O151 Li89 1.961 . S
O151 Li90 1.970 . S
O151 Li91 1.956 . S
O151 C126 1.325 . S
H152 C94 0.929 . S
H153 C95 0.930 . S
H154 C96 0.930 . S
H155 C97 0.930 . S
H156 C99 0.930 . S
H157 C101 0.929 1_565 S
H158 C102 0.930 . S
H159 C103 0.930 1_565 S
H160 C106 0.930 . S
H161 C109 0.929 . S
H162 C114 0.929 . S
H163 C115 0.930 . S
H164 C122 0.929 . S
H165 C123 0.930 . S
H166 C124 0.930 . S
H167 C125 0.930 . S
H168 C127 0.929 . S
H169 C128 0.930 . S
H170 C129 0.930 . S
H171 C130 0.930 . S
H172 C134 0.929 . S
H173 C136 0.930 . S
H174 C142 0.929 . S
H175 C143 0.930 . S
Li176 N193 1.990 . S
Li176 O236 1.956 . S
Li176 O237 1.970 . S
Li176 O238 1.961 . S
Li177 N201 1.990 . S
Li177 O236 1.970 . S
Li177 O237 1.956 . S
Li177 O239 1.961 . S
Li178 N223 1.990 1_545 S
Li178 O236 1.961 . S
Li178 O238 1.956 . S
Li178 O239 1.970 . S
Li179 N229 1.990 . S
Li179 O237 1.961 . S
Li179 O238 1.970 . S
Li179 O239 1.956 . S
C180 C182 1.348 . S
C180 C183 1.356 . S
C180 O236 1.325 . S
N181 C184 1.314 . S
N181 C185 1.278 1_545 S
C182 C180 1.348 . S
C182 C184 1.353 . S
C182 H240 0.929 . S
C183 C180 1.356 . S
C183 C185 1.356 1_545 S
C183 H241 0.930 1_545 S
C184 N181 1.314 . S
C184 C182 1.353 . S
C184 H242 0.930 . S
C185 N181 1.278 1_565 S
C185 C183 1.356 1_565 S
C185 H243 0.935 . S
C186 C189 1.348 . S
C186 C190 1.356 . S
C186 O237 1.325 . S
C187 N188 1.279 . S
C187 C190 1.358 . S
C187 H244 0.930 . S
N188 C187 1.279 . S
N188 C191 1.314 . S
C189 C186 1.348 . S
C189 C191 1.353 . S
C189 H245 0.929 . S
C190 C186 1.356 . S
C190 C187 1.358 . S
C190 H246 0.930 . S
C191 N188 1.314 . S
C191 C189 1.353 . S
C191 H247 0.930 . S
C192 N193 1.314 . S
C192 C197 1.353 . S
C192 H198 0.930 . S
N193 Li176 1.990 . S
N193 C192 1.314 . S
N193 C195 1.279 . S
C194 C195 1.358 . S
C194 C196 1.356 . S
C194 H248 0.930 . S
C195 N193 1.279 . S
C195 C194 1.358 . S
C195 H199 0.930 . S
C196 C194 1.356 . S
C196 C197 1.348 . S
C197 C192 1.353 . S
C197 C196 1.348 . S
C197 H249 0.929 . S
H198 C192 0.930 . S
H199 C195 0.930 . S
C200 N201 1.314 . S
C200 C202 1.353 . S
C200 H206 0.930 . S
N201 Li177 1.990 . S
N201 C200 1.314 . S
N201 C204 1.279 . S
C202 C200 1.353 . S
C202 C205 1.348 . S
C202 H250 0.929 . S
C203 C204 1.358 . S
C203 C205 1.356 . S
C203 H251 0.930 . S
C204 N201 1.279 . S
C204 C203 1.358 . S
C204 H207 0.930 . S
C205 C202 1.348 . S
C205 C203 1.356 . S
H206 C200 0.930 . S
H207 C204 0.930 . S
C208 C210 1.348 . S
C208 C211 1.356 . S
C208 O238 1.325 1_565 S
N209 C212 1.314 . S
N209 C213 1.279 1_655 S
C210 C208 1.348 . S
C210 C212 1.353 1_455 S
C210 H252 0.929 1_465 S
C211 C208 1.356 . S
C211 C213 1.358 . S
C211 H253 0.930 . S
C212 N209 1.314 . S
C212 C210 1.353 1_655 S
C212 H254 0.930 . S
C213 N209 1.279 1_455 S
C213 C211 1.358 . S
C213 H255 0.930 . S
C214 C215 1.348 . S
C214 C216 1.356 . S
C214 O239 1.325 . S
C215 C214 1.348 . S
C215 C217 1.353 1_455 S
C215 H256 0.929 1_455 S
C216 C214 1.356 . S
C216 C218 1.358 . S
C216 H257 0.930 . S
C217 C215 1.353 1_655 S
C217 N219 1.314 . S
C217 H258 0.930 . S
C218 C216 1.358 . S
C218 N219 1.279 1_455 S
C218 H259 0.930 . S
N219 C217 1.314 . S
N219 C218 1.279 1_655 S
C220 C222 1.353 . S
C220 N223 1.314 . S
C220 H226 0.930 . S
C221 N223 1.279 1_655 S
C221 C224 1.358 . S
C221 H227 0.930 . S
C222 C220 1.353 . S
C222 C225 1.348 1_455 S
C222 H260 0.929 . S
N223 Li178 1.990 1_565 S
N223 C220 1.314 . S
N223 C221 1.279 1_455 S
C224 C221 1.358 . S
C224 C225 1.356 . S
C224 H261 0.930 . S
C225 C222 1.348 1_655 S
C225 C224 1.356 . S
H226 C220 0.930 . S
H227 C221 0.930 . S
C228 N229 1.314 . S
C228 C230 1.353 . S
C228 H234 0.930 . S
N229 Li179 1.990 . S
N229 C228 1.314 . S
N229 C232 1.279 1_455 S
C230 C228 1.353 . S
C230 C233 1.348 1_455 S
C230 H262 0.929 . S
C231 C232 1.358 . S
C231 C233 1.356 . S
C231 H263 0.930 . S
C232 N229 1.279 1_655 S
C232 C231 1.358 . S
C232 H235 0.930 . S
C233 C230 1.348 1_655 S
C233 C231 1.356 . S
H234 C228 0.930 . S
H235 C232 0.930 . S
O236 Li176 1.956 . S
O236 Li177 1.970 . S
O236 Li178 1.961 . S
O236 C180 1.325 . S
O237 Li176 1.970 . S
O237 Li177 1.956 . S
O237 Li179 1.961 . S
O237 C186 1.325 . S
O238 Li176 1.961 . S
O238 Li178 1.956 . S
O238 Li179 1.970 . S
O238 C208 1.325 1_545 S
O239 Li177 1.961 . S
O239 Li178 1.970 . S
O239 Li179 1.956 . S
O239 C214 1.325 . S
H240 C182 0.929 . S
H241 C183 0.930 1_565 S
H242 C184 0.930 . S
H243 C185 0.935 . S
H244 C187 0.930 . S
H245 C189 0.929 . S
H246 C190 0.930 . S
H247 C191 0.930 . S
H248 C194 0.930 . S
H249 C197 0.929 . S
H250 C202 0.929 . S
H251 C203 0.930 . S
H252 C210 0.929 1_645 S
H253 C211 0.930 . S
H254 C212 0.930 . S
H255 C213 0.930 . S
H256 C215 0.929 1_655 S
H257 C216 0.930 . S
H258 C217 0.930 . S
H259 C218 0.930 . S
H260 C222 0.929 . S
H261 C224 0.930 . S
H262 C230 0.929 . S
H263 C231 0.930 . S
H264 O290 0.856 . S
H265 O293 0.854 . S
H266 C301 0.930 1_655 S
H267 C302 0.922 1_655 S
H268 C304 0.930 . S
H269 C305 0.930 . S
H270 C307 0.931 . S
H271 C308 0.930 . S
H272 C310 0.930 . S
H273 C311 0.929 . S
H274 C313 0.930 1_655 S
H275 C314 0.931 . S
H276 C316 0.930 . S
H277 C317 0.929 . S
H278 C319 0.931 1_655 S
H279 C320 0.930 1_655 S
H280 C322 0.930 . S
H281 C323 0.932 . S
H282 C325 0.930 1_655 S
H283 C326 0.931 . S
H284 C328 0.931 . S
H285 C329 0.930 . S
H286 C331 0.929 1_655 S
H287 C332 0.931 1_655 S
H288 C334 0.930 . S
H289 C335 0.929 . S
O290 H264 0.856 . S
O290 C336 1.300 . S
O291 C336 1.209 . S
O292 C337 1.199 . S
O293 H265 0.854 . S
O293 C337 1.297 . S
C294 C295 1.404 . S
C294 C299 1.397 . S
C294 C300 1.492 . S
C295 C294 1.404 . S
C295 C296 1.396 . S
C295 C306 1.492 . S
C296 C295 1.396 . S
C296 C297 1.397 . S
C296 C312 1.509 . S
C297 C296 1.397 . S
C297 C298 1.412 . S
C297 C318 1.485 . S
C298 C297 1.412 . S
C298 C299 1.388 . S
C298 C324 1.490 . S
C299 C294 1.397 . S
C299 C298 1.388 . S
C299 C330 1.519 . S
C300 C294 1.492 . S
C300 C301 1.363 . S
C300 C305 1.390 . S
C301 H266 0.930 1_455 S
C301 C300 1.363 . S
C301 C302 1.368 . S
C302 H267 0.922 1_455 S
C302 C301 1.368 . S
C302 C303 1.395 . S
C303 C302 1.395 . S
C303 C304 1.395 . S
C304 H268 0.930 . S
C304 C303 1.395 . S
C304 C305 1.362 . S
C305 H269 0.930 . S
C305 C300 1.390 . S
C305 C304 1.362 . S
C306 C295 1.492 . S
C306 C307 1.377 . S
C306 C311 1.397 . S
C307 H270 0.931 . S
C307 C306 1.377 . S
C307 C308 1.376 . S
C308 H271 0.930 . S
C308 C307 1.376 . S
C308 C309 1.376 . S
C309 C308 1.376 . S
C309 C310 1.378 . S
C309 C336 1.486 . S
C310 H272 0.930 . S
C310 C309 1.378 . S
C310 C311 1.376 . S
C311 H273 0.929 . S
C311 C306 1.397 . S
C311 C310 1.376 . S
C312 C296 1.509 . S
C312 C313 1.391 . S
C312 C317 1.386 . S
C313 H274 0.930 1_455 S
C313 C312 1.391 . S
C313 C314 1.375 . S
C314 H275 0.931 . S
C314 C313 1.375 . S
C314 C315 1.375 . S
C315 C314 1.375 . S
C315 C316 1.361 . S
C316 H276 0.930 . S
C316 C315 1.361 . S
C316 C317 1.399 . S
C317 H277 0.929 . S
C317 C312 1.386 . S
C317 C316 1.399 . S
C318 C297 1.485 . S
C318 C319 1.394 . S
C318 C323 1.360 . S
C319 H278 0.931 1_455 S
C319 C318 1.394 . S
C319 C320 1.372 . S
C320 H279 0.930 1_455 S
C320 C319 1.372 . S
C320 C321 1.397 . S
C321 C320 1.397 . S
C321 C322 1.390 . S
C321 C337 1.476 . S
C322 H280 0.930 . S
C322 C321 1.390 . S
C322 C323 1.366 . S
C323 H281 0.932 . S
C323 C318 1.360 . S
C323 C322 1.366 . S
C324 C298 1.490 . S
C324 C325 1.380 . S
C324 C329 1.386 . S
C325 H282 0.930 1_455 S
C325 C324 1.380 . S
C325 C326 1.381 1_455 S
C326 H283 0.931 . S
C326 C325 1.381 1_655 S
C326 C327 1.370 1_655 S
C327 C326 1.370 1_455 S
C327 C328 1.380 . S
C328 H284 0.931 . S
C328 C327 1.380 . S
C328 C329 1.387 . S
C329 H285 0.930 . S
C329 C324 1.386 . S
C329 C328 1.387 . S
C330 C299 1.519 . S
C330 C331 1.377 . S
C330 C335 1.361 . S
C331 H286 0.929 1_455 S
C331 C330 1.377 . S
C331 C332 1.386 . S
C332 H287 0.931 1_455 S
C332 C331 1.386 . S
C332 C333 1.363 . S
C333 C332 1.363 . S
C333 C334 1.385 . S
C334 H288 0.930 . S
C334 C333 1.385 . S
C334 C335 1.396 . S
C335 H289 0.929 . S
C335 C330 1.361 . S
C335 C334 1.396 . S
C336 O290 1.300 . S
C336 O291 1.209 . S
C336 C309 1.486 . S
C337 O292 1.199 . S
C337 O293 1.297 . S
C337 C321 1.476 . S
H338 O364 0.856 . S
H339 O367 0.854 . S
H340 C375 0.930 1_565 S
H341 C376 0.930 1_565 S
H342 C378 0.930 . S
H343 C379 0.930 . S
H344 C381 0.931 1_565 S
H345 C382 0.930 1_565 S
H346 C384 0.930 . S
H347 C385 0.929 . S
H348 C387 0.919 1_565 S
H349 C388 0.931 . S
H350 C390 0.930 . S
H351 C391 0.929 . S
H352 C393 0.931 . S
H353 C394 0.930 . S
H354 C396 0.930 . S
H355 C397 0.932 . S
H356 C399 0.930 1_565 S
H357 C400 0.929 1_565 S
H358 C402 0.931 . S
H359 C403 0.930 . S
H360 C405 0.936 . S
H361 C406 0.931 . S
H362 C408 0.930 . S
H363 C409 0.929 . S
O364 H338 0.856 . S
O364 C410 1.300 . S
O365 C410 1.209 . S
O366 C411 1.199 . S
O367 H339 0.854 . S
O367 C411 1.297 . S
C368 C369 1.404 . S
C368 C373 1.397 . S
C368 C374 1.492 . S
C369 C368 1.404 . S
C369 C370 1.396 . S
C369 C380 1.492 . S
C370 C369 1.396 . S
C370 C371 1.397 . S
C370 C386 1.509 . S
C371 C370 1.397 . S
C371 C372 1.412 . S
C371 C392 1.485 . S
C372 C371 1.412 . S
C372 C373 1.388 . S
C372 C398 1.490 . S
C373 C368 1.397 . S
C373 C372 1.388 . S
C373 C404 1.519 . S
C374 C368 1.492 . S
C374 C375 1.363 . S
C374 C379 1.390 . S
C375 H340 0.930 1_545 S
C375 C374 1.363 . S
C375 C376 1.372 . S
C376 H341 0.930 1_545 S
C376 C375 1.372 . S
C376 C377 1.383 . S
C377 C376 1.383 . S
C377 C378 1.395 . S
C378 H342 0.930 . S
C378 C377 1.395 . S
C378 C379 1.362 . S
C379 H343 0.930 . S
C379 C374 1.390 . S
C379 C378 1.362 . S
C380 C369 1.492 . S
C380 C381 1.377 . S
C380 C385 1.397 . S
C381 H344 0.931 1_545 S
C381 C380 1.377 . S
C381 C382 1.376 . S
C382 H345 0.930 1_545 S
C382 C381 1.376 . S
C382 C383 1.376 . S
C383 C382 1.376 . S
C383 C384 1.378 . S
C383 C410 1.486 . S
C384 H346 0.930 . S
C384 C383 1.378 . S
C384 C385 1.376 . S
C385 H347 0.929 . S
C385 C380 1.397 . S
C385 C384 1.376 . S
C386 C370 1.509 . S
C386 C387 1.391 . S
C386 C391 1.386 . S
C387 H348 0.919 1_545 S
C387 C386 1.391 . S
C387 C388 1.375 . S
C388 H349 0.931 . S
C388 C387 1.375 . S
C388 C389 1.375 . S
C389 C388 1.375 . S
C389 C390 1.361 . S
C390 H350 0.930 . S
C390 C389 1.361 . S
C390 C391 1.399 . S
C391 H351 0.929 . S
C391 C386 1.386 . S
C391 C390 1.399 . S
C392 C371 1.485 . S
C392 C393 1.394 . S
C392 C397 1.360 . S
C393 H352 0.931 . S
C393 C392 1.394 . S
C393 C394 1.372 . S
C394 H353 0.930 . S
C394 C393 1.372 . S
C394 C395 1.397 . S
C395 C394 1.397 . S
C395 C396 1.390 . S
C395 C411 1.476 . S
C396 H354 0.930 . S
C396 C395 1.390 . S
C396 C397 1.366 . S
C397 H355 0.932 . S
C397 C392 1.360 . S
C397 C396 1.366 . S
C398 C372 1.490 . S
C398 C399 1.380 . S
C398 C403 1.386 . S
C399 H356 0.930 1_545 S
C399 C398 1.380 . S
C399 C400 1.381 . S
C400 H357 0.929 1_545 S
C400 C399 1.381 . S
C400 C401 1.371 . S
C401 C400 1.371 . S
C401 C402 1.380 . S
C402 H358 0.931 . S
C402 C401 1.380 . S
C402 C403 1.387 . S
C403 H359 0.930 . S
C403 C398 1.386 . S
C403 C402 1.387 . S
C404 C373 1.519 . S
C404 C405 1.377 . S
C404 C409 1.361 . S
C405 H360 0.936 . S
C405 C404 1.377 . S
C405 C406 1.386 . S
C406 H361 0.931 . S
C406 C405 1.386 . S
C406 C407 1.363 . S
C407 C406 1.363 . S
C407 C408 1.385 . S
C408 H362 0.930 . S
C408 C407 1.385 . S
C408 C409 1.396 . S
C409 H363 0.929 . S
C409 C404 1.361 . S
C409 C408 1.396 . S
C410 O364 1.300 . S
C410 O365 1.209 . S
C410 C383 1.486 . S
C411 O366 1.199 . S
C411 O367 1.297 . S
C411 C395 1.476 . S
H412 O438 0.856 . S
H413 O441 0.854 . S
H414 C449 0.930 . S
H415 C450 0.930 . S
H416 C452 0.930 . S
H417 C453 0.930 . S
H418 C455 0.931 . S
H419 C456 0.930 1_554 S
H420 C458 0.930 . S
H421 C459 0.929 . S
H422 C461 0.930 . S
H423 C462 0.931 . S
H424 C464 0.930 . S
H425 C465 0.929 . S
H426 C467 0.931 . S
H427 C468 0.930 . S
H428 C470 0.930 . S
H429 C471 0.932 . S
H430 C473 0.930 . S
H431 C474 0.929 . S
H432 C476 0.931 . S
H433 C477 0.930 . S
H434 C479 0.929 . S
H435 C480 0.931 . S
H436 C482 0.930 . S
H437 C483 0.929 . S
O438 H412 0.856 . S
O438 C484 1.300 . S
O439 C484 1.209 . S
O440 C485 1.199 . S
O441 H413 0.854 . S
O441 C485 1.297 . S
C442 C443 1.404 . S
C442 C447 1.397 . S
C442 C448 1.492 . S
C443 C442 1.404 . S
C443 C444 1.396 . S
C443 C454 1.492 . S
C444 C443 1.396 . S
C444 C445 1.397 . S
C444 C460 1.509 . S
C445 C444 1.397 . S
C445 C446 1.412 . S
C445 C466 1.485 . S
C446 C445 1.412 . S
C446 C447 1.388 . S
C446 C472 1.490 . S
C447 C442 1.397 . S
C447 C446 1.388 . S
C447 C478 1.519 . S
C448 C442 1.492 . S
C448 C449 1.363 . S
C448 C453 1.390 . S
C449 H414 0.930 . S
C449 C448 1.363 . S
C449 C450 1.372 . S
C450 H415 0.930 . S
C450 C449 1.372 . S
C450 C451 1.383 . S
C451 C450 1.383 . S
C451 C452 1.395 . S
C452 H416 0.930 . S
C452 C451 1.395 . S
C452 C453 1.362 . S
C453 H417 0.930 . S
C453 C448 1.390 . S
C453 C452 1.362 . S
C454 C443 1.492 . S
C454 C455 1.377 . S
C454 C459 1.397 . S
C455 H418 0.931 . S
C455 C454 1.377 . S
C455 C456 1.376 . S
C456 H419 0.930 1_556 S
C456 C455 1.376 . S
C456 C457 1.376 1_556 S
C457 C456 1.376 1_554 S
C457 C458 1.378 1_554 S
C457 C484 1.486 . S
C458 H420 0.930 . S
C458 C457 1.378 1_556 S
C458 C459 1.376 . S
C459 H421 0.929 . S
C459 C454 1.397 . S
C459 C458 1.376 . S
C460 C444 1.509 . S
C460 C461 1.391 . S
C460 C465 1.386 . S
C461 H422 0.930 . S
C461 C460 1.391 . S
C461 C462 1.375 . S
C462 H423 0.931 . S
C462 C461 1.375 . S
C462 C463 1.375 . S
C463 C462 1.375 . S
C463 C464 1.361 . S
C464 H424 0.930 . S
C464 C463 1.361 . S
C464 C465 1.399 . S
C465 H425 0.929 . S
C465 C460 1.386 . S
C465 C464 1.399 . S
C466 C445 1.485 . S
C466 C467 1.394 . S
C466 C471 1.360 . S
C467 H426 0.931 . S
C467 C466 1.394 . S
C467 C468 1.372 . S
C468 H427 0.930 . S
C468 C467 1.372 . S
C468 C469 1.397 . S
C469 C468 1.397 . S
C469 C470 1.390 . S
C469 C485 1.476 . S
C470 H428 0.930 . S
C470 C469 1.390 . S
C470 C471 1.366 . S
C471 H429 0.932 . S
C471 C466 1.360 . S
C471 C470 1.366 . S
C472 C446 1.490 . S
C472 C473 1.380 . S
C472 C477 1.386 . S
C473 H430 0.930 . S
C473 C472 1.380 . S
C473 C474 1.381 . S
C474 H431 0.929 . S
C474 C473 1.381 . S
C474 C475 1.371 . S
C475 C474 1.371 . S
C475 C476 1.380 . S
C476 H432 0.931 . S
C476 C475 1.380 . S
C476 C477 1.387 . S
C477 H433 0.930 . S
C477 C472 1.386 . S
C477 C476 1.387 . S
C478 C447 1.519 . S
C478 C479 1.377 . S
C478 C483 1.361 . S
C479 H434 0.929 . S
C479 C478 1.377 . S
C479 C480 1.386 . S
C480 H435 0.931 . S
C480 C479 1.386 . S
C480 C481 1.363 . S
C481 C480 1.363 . S
C481 C482 1.385 . S
C482 H436 0.930 . S
C482 C481 1.385 . S
C482 C483 1.396 . S
C483 H437 0.929 . S
C483 C478 1.361 . S
C483 C482 1.396 . S
C484 O438 1.300 . S
C484 O439 1.209 . S
C484 C457 1.486 . S
C485 O440 1.199 . S
C485 O441 1.297 . S
C485 C469 1.476 . S
C486 C487 1.387 1_655 S
C486 H490 0.950 . S
C486 C495 1.390 . S
C487 C486 1.387 1_455 S
C487 C489 1.387 . S
H488 C495 0.950 . S
C489 C487 1.387 . S
C489 C491 1.390 . S
C489 H493 0.950 . S
H490 C486 0.950 . S
C491 C489 1.390 . S
C491 C492 1.387 . S
C491 H494 0.950 . S
C492 C491 1.387 . S
C492 C495 1.387 1_455 S
H493 C489 0.950 . S
H494 C491 0.950 . S
C495 C486 1.390 . S
C495 H488 0.950 . S
C495 C492 1.387 1_655 S
C496 C497 1.387 . S
C496 H500 0.950 . S
C496 C505 1.390 . S
C497 C496 1.387 . S
C497 C499 1.387 1_565 S
H498 C505 0.950 . S
C499 C497 1.387 1_545 S
C499 C501 1.390 . S
C499 H503 0.950 . S
H500 C496 0.950 . S
C501 C499 1.390 . S
C501 C502 1.387 . S
C501 H504 0.950 . S
C502 C501 1.387 . S
C502 C505 1.387 1_545 S
H503 C499 0.950 . S
H504 C501 0.950 . S
C505 C496 1.390 . S
C505 H498 0.950 . S
C505 C502 1.387 1_565 S
C506 C507 1.387 . S
C506 H510 0.950 . S
C506 C515 1.390 . S
C507 C506 1.387 . S
C507 C509 1.387 . S
H508 C515 0.950 . S
C509 C507 1.387 . S
C509 C511 1.390 . S
C509 H513 0.950 . S
H510 C506 0.950 . S
C511 C509 1.390 . S
C511 C512 1.387 . S
C511 H514 0.950 . S
C512 C511 1.387 . S
C512 C515 1.387 . S
H513 C509 0.950 . S
H514 C511 0.950 . S
C515 C506 1.390 . S
C515 H508 0.950 . S
C515 C512 1.387 . S
C516 C517 1.387 . S
C516 H520 0.950 . S
C516 C525 1.390 . S
C517 C516 1.387 . S
C517 C519 1.387 . S
H518 C525 0.950 . S
C519 C517 1.387 . S
C519 C521 1.390 . S
C519 H523 0.950 . S
H520 C516 0.950 . S
C521 C519 1.390 . S
C521 C522 1.387 . S
C521 H524 0.950 . S
C522 C521 1.387 . S
C522 C525 1.387 . S
H523 C519 0.950 . S
H524 C521 0.950 . S
C525 C516 1.390 . S
C525 H518 0.950 . S
C525 C522 1.387 . S
C526 C527 1.387 . S
C526 H530 0.950 . S
C526 C535 1.390 . S
C527 C526 1.387 . S
C527 C529 1.387 . S
H528 C535 0.950 . S
C529 C527 1.387 . S
C529 C531 1.390 . S
C529 H533 0.950 . S
H530 C526 0.950 . S
C531 C529 1.390 . S
C531 C532 1.387 . S
C531 H534 0.950 . S
C532 C531 1.387 . S
C532 C535 1.387 . S
H533 C529 0.950 . S
H534 C531 0.950 . S
C535 C526 1.390 . S
C535 H528 0.950 . S
C535 C532 1.387 . S
C536 C537 1.387 . S
C536 H540 0.950 . S
C536 C545 1.390 . S
C537 C536 1.387 . S
C537 C539 1.387 . S
H538 C545 0.950 . S
C539 C537 1.387 . S
C539 C541 1.390 . S
C539 H543 0.950 . S
H540 C536 0.950 . S
C541 C539 1.390 . S
C541 C542 1.387 . S
C541 H544 0.950 . S
C542 C541 1.387 . S
C542 C545 1.387 . S
H543 C539 0.950 . S
H544 C541 0.950 . S
C545 C536 1.390 . S
C545 H538 0.950 . S
C545 C542 1.387 . S
C546 C547 1.387 . S
C546 H550 0.950 . S
C546 C555 1.390 . S
C547 C546 1.387 . S
C547 C549 1.387 . S
H548 C555 0.950 . S
C549 C547 1.387 . S
C549 C551 1.390 . S
C549 H553 0.950 . S
H550 C546 0.950 . S
C551 C549 1.390 . S
C551 C552 1.387 . S
C551 H554 0.950 . S
C552 C551 1.387 . S
C552 C555 1.387 . S
H553 C549 0.950 . S
H554 C551 0.950 . S
C555 C546 1.390 . S
C555 H548 0.950 . S
C555 C552 1.387 . S
C556 C557 1.390 . S
C556 H560 0.950 1_556 S
C556 C565 1.390 . S
C557 C556 1.390 . S
C557 C559 1.393 . S
H558 C565 0.950 . S
C559 C557 1.393 . S
C559 C561 1.390 . S
C559 H563 0.950 . S
H560 C556 0.950 1_554 S
C561 C559 1.390 . S
C561 C562 1.387 . S
C561 H564 0.950 . S
C562 C561 1.387 . S
C562 C565 1.387 . S
H563 C559 0.950 . S
H564 C561 0.950 . S
C565 C556 1.390 . S
C565 H558 0.950 . S
C565 C562 1.387 . S
C566 C567 1.386 . S
C566 H570 0.950 . S
C566 C575 1.390 1_655 S
C567 C566 1.386 . S
C567 C569 1.386 1_655 S
H568 C575 0.950 . S
C569 C567 1.386 1_455 S
C569 C571 1.390 . S
C569 H573 0.950 . S
H570 C566 0.950 . S
C571 C569 1.390 . S
C571 C572 1.387 . S
C571 H574 0.950 . S
C572 C571 1.387 . S
C572 C575 1.387 . S
H573 C569 0.950 . S
H574 C571 0.950 . S
C575 C566 1.390 1_455 S
C575 H568 0.950 . S
C575 C572 1.387 . S
C576 C577 1.387 . S
C576 H580 0.950 . S
C576 C585 1.390 . S
C577 C576 1.387 . S
C577 C579 1.387 . S
H578 C585 0.950 . S
C579 C577 1.387 . S
C579 C581 1.390 . S
C579 H583 0.950 1_545 S
H580 C576 0.950 . S
C581 C579 1.390 . S
C581 C582 1.387 . S
C581 H584 0.950 1_545 S
C582 C581 1.387 . S
C582 C585 1.387 . S
H583 C579 0.950 1_565 S
H584 C581 0.950 1_565 S
C585 C576 1.390 . S
C585 H578 0.950 . S
C585 C582 1.387 . S
C586 C587 1.387 . S
C586 H590 0.950 . S
C586 C595 1.409 . S
C587 C586 1.387 . S
C587 C589 1.387 . S
H588 C595 0.946 1_556 S
C589 C587 1.387 . S
C589 C591 1.390 1_554 S
C589 H593 0.950 . S
H590 C586 0.950 . S
C591 C589 1.390 1_556 S
C591 C592 1.387 . S
C591 H594 0.950 . S
C592 C591 1.387 . S
C592 C595 1.371 1_556 S
H593 C589 0.950 . S
H594 C591 0.950 . S
C595 C586 1.409 . S
C595 H588 0.946 1_554 S
C595 C592 1.371 1_554 S
C596 C597 1.387 . S
C596 H600 0.950 . S
C596 C605 1.390 . S
C597 C596 1.387 . S
C597 C599 1.387 . S
H598 C605 0.950 . S
C599 C597 1.387 . S
C599 C601 1.390 . S
C599 H603 0.950 . S
H600 C596 0.950 . S
C601 C599 1.390 . S
C601 C602 1.387 . S
C601 H604 0.950 . S
C602 C601 1.387 . S
C602 C605 1.387 . S
H603 C599 0.950 . S
H604 C601 0.950 . S
C605 C596 1.390 . S
C605 H598 0.950 . S
C605 C602 1.387 . S
C492 C303 1.515 . S
C487 C29 1.602 . S
C497 C137 1.623 . S
C502 C377 1.555 . S
C507 C225 2.117 . S
C512 C481 2.154 . S
C517 C49 0.823 . S
C522 C315 0.828 . S
C532 C389 0.776 . S
C527 C117 0.776 . S
C537 C205 1.526 . S
C542 C475 1.428 . S
C552 C407 2.159 . S
C547 C233 2.120 . S
C557 C57 1.596 1_556 S
C562 C451 1.518 . S
C572 C327 1.470 . S
C567 C108 1.552 . S
C582 C401 1.439 . S
C577 C196 1.536 . S
C592 C463 0.831 . S
C587 C20 0.824 . S
C597 C145 2.112 . S
C602 C333 2.138 . S
