# Generated by pormake.
# Topology anh, (6,3)-cn, num edge types: 1
# Building blocks:
#     Node 0, Type 0, BuildingBlock: CUKXOW_clean_sbu_0, # of connection points: 6
#     Node 1, Type 0, BuildingBlock: CUKXOW_clean_sbu_0, # of connection points: 6
#     Node 2, Type 0, BuildingBlock: CUKXOW_clean_sbu_0, # of connection points: 6
#     Node 3, Type 1, BuildingBlock: QEWDON_clean_linker_0, # of connection points: 3
#     Node 4, Type 1, BuildingBlock: QEWDON_clean_linker_0, # of connection points: 3
#     Node 5, Type 1, BuildingBlock: QEWDON_clean_linker_0, # of connection points: 3
#     Node 6, Type 1, BuildingBlock: QEWDON_clean_linker_0, # of connection points: 3
#     Node 7, Type 1, BuildingBlock: QEWDON_clean_linker_0, # of connection points: 3
#     Node 8, Type 1, BuildingBlock: QEWDON_clean_linker_0, # of connection points: 3
#     Edge 9, Type (0, 1), BuildingBlock: MIFKUJ_clean_linker_0, # of connection points: 2
#     Edge 10, Type (0, 1), BuildingBlock: MIFKUJ_clean_linker_0, # of connection points: 2
#     Edge 11, Type (0, 1), BuildingBlock: MIFKUJ_clean_linker_0, # of connection points: 2
#     Edge 12, Type (0, 1), BuildingBlock: MIFKUJ_clean_linker_0, # of connection points: 2
#     Edge 13, Type (0, 1), BuildingBlock: MIFKUJ_clean_linker_0, # of connection points: 2
#     Edge 14, Type (0, 1), BuildingBlock: MIFKUJ_clean_linker_0, # of connection points: 2
#     Edge 15, Type (0, 1), BuildingBlock: MIFKUJ_clean_linker_0, # of connection points: 2
#     Edge 16, Type (0, 1), BuildingBlock: MIFKUJ_clean_linker_0, # of connection points: 2
#     Edge 17, Type (0, 1), BuildingBlock: MIFKUJ_clean_linker_0, # of connection points: 2
#     Edge 18, Type (0, 1), BuildingBlock: MIFKUJ_clean_linker_0, # of connection points: 2
#     Edge 19, Type (0, 1), BuildingBlock: MIFKUJ_clean_linker_0, # of connection points: 2
#     Edge 20, Type (0, 1), BuildingBlock: MIFKUJ_clean_linker_0, # of connection points: 2
#     Edge 21, Type (0, 1), BuildingBlock: MIFKUJ_clean_linker_0, # of connection points: 2
#     Edge 22, Type (0, 1), BuildingBlock: MIFKUJ_clean_linker_0, # of connection points: 2
#     Edge 23, Type (0, 1), BuildingBlock: MIFKUJ_clean_linker_0, # of connection points: 2
#     Edge 24, Type (0, 1), BuildingBlock: MIFKUJ_clean_linker_0, # of connection points: 2
#     Edge 25, Type (0, 1), BuildingBlock: MIFKUJ_clean_linker_0, # of connection points: 2
#     Edge 26, Type (0, 1), BuildingBlock: MIFKUJ_clean_linker_0, # of connection points: 2
# Relax obj value: 0.060
# Max RMSD: 0.135
# Mean RMSD: 0.113
data_MOF--net-anh--node1-CUKXOW_clean_sbu_0--node2-QEWDON_clean_linker_0--edge1-MIFKUJ_clean_linker_0
_symmetry_space_group_name_H-M    P1
_symmetry_Int_Tables_number       1
_symmetry_cell_setting            triclinic
loop_
_symmetry_equiv_pos_as_xyz
'x, y, z'
_cell_length_a     39.525512
_cell_length_b     38.502118
_cell_length_c     61.932302
_cell_angle_alpha  99.967233
_cell_angle_beta   94.261564
_cell_angle_gamma 115.14741
loop_
_atom_site_label
_atom_site_type_symbol
_atom_site_fract_x
_atom_site_fract_y
_atom_site_fract_z
_atom_type_partial_charge
Tb0 Tb 0.10286 0.56655 0.16152 0.0
C1 C 0.07278 0.53104 0.20207 0.0
Tb2 Tb 0.04678 0.47673 0.15326 0.0
O3 O 0.05922 0.58846 0.15801 0.0
O4 O 0.04436 0.53019 0.15447 0.0
O5 O 0.10101 0.55899 0.1955 0.0
C6 C 0.98291 0.41082 0.14926 0.0
O7 O 0.04666 0.49864 0.18817 0.0
C8 C 0.11919 0.49294 0.15342 0.0
C9 C 0.07418 0.51314 0.11266 0.0
O10 O 1.01354 0.42167 0.1634 0.0
O11 O 0.98895 0.43635 0.13705 0.0
O12 O 0.09068 0.45933 0.14366 0.0
O13 O 0.10621 0.51368 0.16491 0.0
O14 O 0.04651 0.48513 0.11945 0.0
O15 O 0.10112 0.54505 0.12639 0.0
C16 C 0.16595 0.63384 0.16703 0.0
O17 O 0.15664 0.60237 0.15161 0.0
O18 O 0.13984 0.62735 0.17946 0.0
C19 C 0.03026 0.554 0.15465 0.0
Tb20 Tb 0.55097 0.05029 0.49759 0.0
C21 C 0.59029 0.08265 0.45887 0.0
Tb22 Tb 0.63347 0.11337 0.50919 0.0
O23 O 0.53254 0.09227 0.48767 0.0
O24 O 0.57981 0.11155 0.51219 0.0
O25 O 0.5627 0.05213 0.464 0.0
C26 C 0.69594 0.18112 0.51387 0.0
O27 O 0.61786 0.11138 0.47414 0.0
C28 C 0.62352 0.04085 0.50645 0.0
C29 C 0.59429 0.08071 0.5479 0.0
O30 O 0.66543 0.17701 0.52185 0.0
O31 O 0.69172 0.14676 0.5036 0.0
O32 O 0.65218 0.07145 0.51901 0.0
O33 O 0.60464 0.05222 0.49465 0.0
O34 O 0.62205 0.11102 0.54272 0.0
O35 O 0.56645 0.05208 0.53268 0.0
C36 C 0.48574 0.98537 0.49284 0.0
O37 O 0.49217 0.02067 0.50271 0.0
O38 O 0.51601 0.98657 0.48543 0.0
C39 C 0.56085 0.12286 0.50039 0.0
Tb40 Tb 0.55008 0.57796 0.83335 0.0
C41 C 0.59153 0.57256 0.8769 0.0
Tb42 Tb 0.63009 0.58337 0.83359 0.0
O43 O 0.52686 0.51657 0.83666 0.0
O44 O 0.57384 0.54003 0.82114 0.0
O45 O 0.56498 0.58111 0.86833 0.0
C46 C 0.68514 0.5614 0.83014 0.0
O47 O 0.6177 0.56887 0.86569 0.0
C48 C 0.62793 0.65142 0.83851 0.0
C49 C 0.58959 0.5914 0.79054 0.0
O50 O 0.68791 0.59192 0.84444 0.0
O51 O 0.6519 0.54394 0.81806 0.0
O52 O 0.65585 0.64553 0.83175 0.0
O53 O 0.60632 0.62166 0.84519 0.0
O54 O 0.61603 0.5826 0.79893 0.0
O55 O 0.56341 0.59479 0.80183 0.0
C56 C 0.48965 0.59175 0.83314 0.0
O57 O 0.49311 0.56566 0.81832 0.0
O58 O 0.51993 0.60964 0.84812 0.0
C59 C 0.55353 0.51043 0.8283 0.0
H60 H 0.57136 0.11786 0.21783 0.0
C61 C 0.54804 0.08857 0.21246 0.0
C62 C 0.5327 0.06752 0.22855 0.0
C63 C 0.53225 0.07246 0.18974 0.0
H64 H 0.4903 0.01405 0.23456 0.0
C65 C 0.50159 0.03029 0.22201 0.0
C66 C 0.48548 0.01348 0.19958 0.0
C67 C 0.50136 0.03443 0.18353 0.0
C68 C 0.54679 0.0955 0.17253 0.0
H69 H 0.48915 0.02119 0.16617 0.0
C70 C 0.58559 0.12166 0.17443 0.0
C71 C 0.59898 0.14288 0.15789 0.0
C72 C 0.52149 0.09154 0.15396 0.0
H73 H 0.49135 0.07302 0.15221 0.0
C74 C 0.53458 0.1117 0.1374 0.0
H75 H 0.60529 0.12551 0.18876 0.0
C76 C 0.57292 0.13682 0.13917 0.0
H77 H 0.58205 0.15128 0.1257 0.0
H78 H 0.51483 0.10786 0.12307 0.0
H79 H 0.56828 0.60466 0.5484 0.0
C80 C 0.57376 0.57953 0.54287 0.0
C81 C 0.58492 0.56285 0.55876 0.0
C82 C 0.5682 0.56309 0.52 0.0
H83 H 0.59741 0.51552 0.56399 0.0
C84 C 0.5907 0.52946 0.55165 0.0
C85 C 0.58552 0.51233 0.52896 0.0
C86 C 0.57439 0.52951 0.51321 0.0
C87 C 0.5528 0.57903 0.50348 0.0
H88 H 0.57046 0.51667 0.49566 0.0
C89 C 0.56443 0.61999 0.50615 0.0
C90 C 0.54741 0.63449 0.49138 0.0
C91 C 0.52436 0.55284 0.48557 0.0
H92 H 0.51415 0.52129 0.48324 0.0
C93 C 0.50755 0.56684 0.47092 0.0
H94 H 0.58693 0.64046 0.51959 0.0
C95 C 0.51861 0.60711 0.47386 0.0
H96 H 0.50388 0.61658 0.46254 0.0
H97 H 0.48524 0.54625 0.45742 0.0
H98 H 0.10507 0.57503 0.8915 0.0
C99 C 0.07836 0.55691 0.8804 0.0
C100 C 0.05208 0.52195 0.88527 0.0
C101 C 0.06933 0.57031 0.86213 0.0
H102 H 0.99678 0.47242 0.87426 0.0
C103 C 1.0171 0.49976 0.87099 0.0
C104 C 1.00698 0.51373 0.85331 0.0
C105 C 0.03358 0.54872 0.84878 0.0
C106 C 0.09676 0.60773 0.8575 0.0
H107 H 0.02602 0.56011 0.83535 0.0
C108 C 0.13456 0.61491 0.85729 0.0
C109 C 0.16077 0.64951 0.85214 0.0
C110 C 0.08531 0.63592 0.85276 0.0
H111 H 0.05634 0.63129 0.85302 0.0
C112 C 0.11132 0.67053 0.84777 0.0
H113 H 0.14324 0.59273 0.86032 0.0
C114 C 0.14887 0.67727 0.84731 0.0
H115 H 0.16859 0.70413 0.84326 0.0
H116 H 0.1023 0.6921 0.84414 0.0
H117 H 1.01066 0.58592 0.44381 0.0
C118 C 0.0405 0.60593 0.44904 0.0
C119 C 0.06344 0.61762 0.43289 0.0
C120 C 0.05574 0.62166 0.47183 0.0
H121 H 0.11937 0.65335 0.42692 0.0
C122 C 0.10185 0.64422 0.43949 0.0
C123 C 0.11771 0.65973 0.462 0.0
C124 C 0.09453 0.64838 0.47809 0.0
C125 C 0.03119 0.61166 0.48916 0.0
H126 H 0.1069 0.66015 0.49553 0.0
C127 C 1.00272 0.57301 0.48731 0.0
C128 C 0.98002 0.56381 0.50401 0.0
C129 C 0.03626 0.64113 0.5078 0.0
H130 H 0.05721 0.6713 0.50952 0.0
C131 C 1.01411 0.63221 0.52438 0.0
H132 H 0.99835 0.55017 0.47294 0.0
C133 C 0.9864 0.59391 0.52262 0.0
H134 H 0.97027 0.58785 0.53606 0.0
H135 H 1.01852 0.65511 0.53872 0.0
H136 H 0.57616 0.04708 0.78671 0.0
C137 C 0.58235 0.07713 0.7943 0.0
C138 C 0.58683 0.10374 0.78063 0.0
C139 C 0.58301 0.0884 0.81731 0.0
H140 H 0.59577 0.16222 0.77918 0.0
C141 C 0.59306 0.14216 0.79 0.0
C142 C 0.59454 0.15466 0.81283 0.0
C143 C 0.58946 0.12759 0.82644 0.0
C144 C 0.57333 0.05828 0.83123 0.0
H145 H 0.5905 0.13713 0.84409 0.0
C146 C 0.58362 0.02688 0.82716 0.0
C147 C 0.57088 0.99676 0.83908 0.0
C148 C 0.55113 0.0593 0.84787 0.0
H149 H 0.54178 0.08207 0.85118 0.0
C150 C 0.53932 0.03009 0.85998 0.0
H151 H 0.60077 0.02533 0.81452 0.0
C152 C 0.54884 0.99895 0.85555 0.0
H153 H 0.539 0.97646 0.86509 0.0
H154 H 0.52213 0.03126 0.87264 0.0
H155 H 0.56448 0.54003 0.1104 0.0
C156 C 0.58701 0.53395 0.11698 0.0
C157 C 0.61058 0.52681 0.10258 0.0
C158 C 0.59389 0.53606 0.13998 0.0
H159 H 0.65933 0.51515 0.10051 0.0
C160 C 0.64124 0.52114 0.11137 0.0
C161 C 0.65003 0.5244 0.13414 0.0
C162 C 0.62601 0.53124 0.14835 0.0
C163 C 0.56992 0.54703 0.15535 0.0
H164 H 0.63271 0.53288 0.16586 0.0
C165 C 0.53111 0.53844 0.14846 0.0
C166 C 0.51086 0.55193 0.1632 0.0
C167 C 0.58702 0.56871 0.17725 0.0
H168 H 0.61654 0.57756 0.18323 0.0
C169 C 0.56692 0.58071 0.19184 0.0
H170 H 0.51688 0.52203 0.13176 0.0
C171 C 0.52948 0.57249 0.18498 0.0
H172 H 0.51497 0.58248 0.19689 0.0
H173 H 0.58074 0.59715 0.20861 0.0
H174 H 0.14621 0.4434 0.13356 0.0
H175 H 0.21176 0.45425 0.13361 0.0
H176 H 0.25119 0.57195 0.17322 0.0
H177 H 0.18498 0.56084 0.17354 0.0
H178 H 0.29316 0.56922 0.13864 0.0
H179 H 0.2549 0.50177 0.19712 0.0
H180 H 0.21377 0.44909 0.21423 0.0
H181 H 0.23004 0.36333 0.16759 0.0
H182 H 0.27086 0.41546 0.14998 0.0
H183 H 0.48415 0.60701 0.17123 0.0
H184 H 0.41887 0.59736 0.16773 0.0
H185 H 0.38001 0.47447 0.13745 0.0
H186 H 0.44609 0.48394 0.14178 0.0
H187 H 0.33695 0.47954 0.16654 0.0
H188 H 0.376 0.5465 0.10821 0.0
H189 H 0.41626 0.59863 0.09045 0.0
H190 H 0.39788 0.68456 0.13562 0.0
H191 H 0.35791 0.63303 0.15386 0.0
C192 C 0.16872 0.47168 0.14236 0.0
C193 C 0.16001 0.50119 0.15359 0.0
C194 C 0.20642 0.47782 0.1424 0.0
C195 C 0.23693 0.51384 0.15357 0.0
C196 C 0.22843 0.54382 0.16447 0.0
C197 C 0.19046 0.53746 0.16467 0.0
C198 C 0.27732 0.51963 0.15385 0.0
C199 C 0.30286 0.54995 0.14505 0.0
C200 C 0.29012 0.49389 0.16153 0.0
C201 C 0.26563 0.46247 0.17208 0.0
C202 C 0.24944 0.47163 0.19038 0.0
C203 C 0.22623 0.44188 0.2002 0.0
C204 C 0.21921 0.40287 0.19196 0.0
C205 C 0.23546 0.39356 0.17393 0.0
C206 C 0.25866 0.4232 0.16403 0.0
C207 C 0.46185 0.57789 0.16356 0.0
C208 C 0.4708 0.54625 0.15685 0.0
C209 C 0.42418 0.57243 0.16141 0.0
C210 C 0.39375 0.53519 0.15211 0.0
C211 C 0.40259 0.50363 0.1447 0.0
C212 C 0.44056 0.50911 0.14692 0.0
C213 C 0.3531 0.52921 0.15128 0.0
C214 C 0.3274 0.49882 0.16002 0.0
C215 C 0.34014 0.55482 0.14344 0.0
C216 C 0.36424 0.58592 0.13254 0.0
C217 C 0.38078 0.57656 0.11448 0.0
C218 C 0.40351 0.606 0.1043 0.0
C219 C 0.4097 0.64489 0.11194 0.0
C220 C 0.3931 0.65442 0.12974 0.0
C221 C 0.37037 0.6251 0.13999 0.0
H222 H 0.42729 0.66763 0.10403 0.0
H223 H 0.20124 0.37988 0.19959 0.0
H224 H 0.70369 0.25385 0.53248 0.0
H225 H 0.75283 0.31746 0.52943 0.0
H226 H 0.80807 0.25843 0.49137 0.0
H227 H 0.75902 0.19452 0.49462 0.0
H228 H 0.85874 0.32439 0.52234 0.0
H229 H 0.75322 0.2916 0.46496 0.0
H230 H 0.68626 0.272 0.45058 0.0
H231 H 0.69178 0.37455 0.49424 0.0
H232 H 0.75872 0.39469 0.50894 0.0
H233 H 0.98165 0.49338 0.48764 0.0
H234 H 0.93361 0.42703 0.48699 0.0
H235 H 0.86362 0.47548 0.51737 0.0
H236 H 0.91012 0.54149 0.51662 0.0
H237 H 0.82037 0.41255 0.48836 0.0
H238 H 0.92194 0.44485 0.54742 0.0
H239 H 0.98793 0.4656 0.56446 0.0
H240 H 0.98892 0.36579 0.52156 0.0
H241 H 0.92305 0.34472 0.50406 0.0
C242 C 0.72655 0.25446 0.52368 0.0
C243 C 0.72761 0.21934 0.51375 0.0
C244 C 0.75444 0.29079 0.52181 0.0
C245 C 0.78374 0.29263 0.50984 0.0
C246 C 0.78559 0.25763 0.50058 0.0
C247 C 0.75764 0.22121 0.50245 0.0
C248 C 0.81204 0.33108 0.50675 0.0
C249 C 0.85048 0.34344 0.51458 0.0
C250 C 0.80107 0.35634 0.49719 0.0
C251 C 0.76094 0.34455 0.48812 0.0
C252 C 0.74011 0.30989 0.47154 0.0
C253 C 0.70217 0.29873 0.46331 0.0
C254 C 0.68479 0.32207 0.47145 0.0
C255 C 0.7053 0.3566 0.48787 0.0
C256 C 0.74327 0.36795 0.49612 0.0
C257 C 0.95574 0.48993 0.49379 0.0
C258 C 0.95009 0.52301 0.50243 0.0
C259 C 0.92846 0.45192 0.49369 0.0
C260 C 0.89529 0.44618 0.50261 0.0
C261 C 0.88905 0.47903 0.51055 0.0
C262 C 0.91599 0.51691 0.51036 0.0
C263 C 0.8673 0.40622 0.50412 0.0
C264 C 0.82882 0.3935 0.49598 0.0
C265 C 0.87817 0.3809 0.51376 0.0
C266 C 0.91773 0.39346 0.52427 0.0
C267 C 0.93633 0.4275 0.54151 0.0
C268 C 0.97369 0.43929 0.55127 0.0
C269 C 0.99264 0.4171 0.54405 0.0
C270 C 0.97423 0.38299 0.5271 0.0
C271 C 0.93688 0.3711 0.51726 0.0
H272 H 1.02156 0.42627 0.55163 0.0
H273 H 0.65549 0.31345 0.465 0.0
H274 H 0.56277 0.65925 0.83065 0.0
H275 H 0.55649 0.71951 0.82963 0.0
H276 H 0.67818 0.78648 0.84395 0.0
H277 H 0.68421 0.72605 0.84553 0.0
H278 H 0.64282 0.82488 0.86764 0.0
H279 H 0.63167 0.75741 0.79388 0.0
H280 H 0.60519 0.70043 0.76207 0.0
H281 H 0.49917 0.70673 0.75624 0.0
H282 H 0.52432 0.76244 0.7889 0.0
H283 H 0.64036 0.99667 0.83928 0.0
H284 H 0.65398 0.9395 0.83693 0.0
H285 H 0.53422 0.86221 0.82663 0.0
H286 H 0.52063 0.91907 0.8292 0.0
H287 H 0.57414 0.8318 0.79936 0.0
H288 H 0.582 0.889 0.87668 0.0
H289 H 0.60634 0.94297 0.91029 0.0
H290 H 0.71942 0.95658 0.9074 0.0
H291 H 0.69577 0.90302 0.87356 0.0
C292 C 0.58798 0.6869 0.83438 0.0
C293 C 0.6238 0.68802 0.83884 0.0
C294 C 0.58449 0.72135 0.8334 0.0
C295 C 0.61689 0.75766 0.83667 0.0
C296 C 0.65276 0.75892 0.84146 0.0
C297 C 0.65617 0.72437 0.84228 0.0
C298 C 0.61339 0.794 0.83435 0.0
C299 C 0.62828 0.82651 0.85256 0.0
C300 C 0.5942 0.79616 0.81469 0.0
C301 C 0.5796 0.76361 0.79436 0.0
C302 C 0.60249 0.74634 0.78612 0.0
C303 C 0.58775 0.71428 0.76783 0.0
C304 C 0.55055 0.70001 0.75707 0.0
C305 C 0.52796 0.7177 0.76464 0.0
C306 C 0.54236 0.74935 0.78317 0.0
C307 C 0.61701 0.96739 0.8361 0.0
C308 C 0.57946 0.96231 0.8345 0.0
C309 C 0.62478 0.93478 0.83488 0.0
C310 C 0.59511 0.89653 0.83176 0.0
C311 C 0.55757 0.89134 0.82902 0.0
C312 C 0.54985 0.92387 0.83056 0.0
C313 C 0.60288 0.8621 0.83276 0.0
C314 C 0.5889 0.83005 0.8143 0.0
C315 C 0.62299 0.86028 0.8521 0.0
C316 C 0.6372 0.89237 0.87245 0.0
C317 C 0.6121 0.90375 0.8831 0.0
C318 C 0.62576 0.93421 0.90221 0.0
C319 C 0.66442 0.95328 0.91093 0.0
C320 C 0.68949 0.94185 0.9006 0.0
C321 C 0.67598 0.91144 0.88146 0.0
H322 H 0.67494 0.97685 0.92574 0.0
H323 H 0.53927 0.67537 0.74282 0.0
H324 H 1.0025 0.60772 0.15511 0.0
H325 H 0.93719 0.59824 0.15461 0.0
H326 H 0.89985 0.47447 0.15126 0.0
H327 H 0.96568 0.48428 0.15252 0.0
H328 H 0.85218 0.48938 0.1214 0.0
H329 H 0.90666 0.53365 0.19861 0.0
H330 H 0.95406 0.57808 0.23142 0.0
H331 H 0.92981 0.67304 0.22094 0.0
H332 H 0.88289 0.62953 0.18771 0.0
H333 H 0.6648 0.46053 0.1326 0.0
H334 H 0.72688 0.46064 0.13926 0.0
H335 H 0.7805 0.58764 0.15811 0.0
H336 H 0.71819 0.58714 0.1525 0.0
H337 H 0.8191 0.56567 0.18198 0.0
H338 H 0.77307 0.52833 0.10364 0.0
H339 H 0.72829 0.48851 0.06899 0.0
H340 H 0.73947 0.38624 0.07947 0.0
H341 H 0.78395 0.42535 0.11434 0.0
C342 C 0.98046 0.57839 0.15424 0.0
C343 C 0.98958 0.54663 0.15354 0.0
C344 C 0.94295 0.57302 0.15402 0.0
C345 C 0.91316 0.53565 0.15302 0.0
C346 C 0.92204 0.50365 0.15201 0.0
C347 C 0.95981 0.50918 0.15254 0.0
C348 C 0.87311 0.53046 0.15313 0.0
C349 C 0.84483 0.50556 0.13485 0.0
C350 C 0.86334 0.55222 0.17036 0.0
C351 C 0.89133 0.5783 0.19052 0.0
C352 C 0.91154 0.56404 0.20317 0.0
C353 C 0.93833 0.58906 0.22187 0.0
C354 C 0.94489 0.6283 0.22826 0.0
C355 C 0.92469 0.64262 0.21596 0.0
C356 C 0.898 0.6178 0.19719 0.0
C357 C 0.68978 0.48836 0.13882 0.0
C358 C 0.68641 0.52378 0.14243 0.0
C359 C 0.72553 0.48853 0.14228 0.0
C360 C 0.75917 0.52423 0.14871 0.0
C361 C 0.75548 0.55955 0.15316 0.0
C362 C 0.71969 0.55931 0.15005 0.0
C363 C 0.79805 0.52512 0.14997 0.0
C364 C 0.82622 0.5492 0.16856 0.0
C365 C 0.80795 0.50319 0.13281 0.0
C366 C 0.7814 0.47964 0.11179 0.0
C367 C 0.76575 0.49728 0.09865 0.0
C368 C 0.74046 0.47484 0.07895 0.0
C369 C 0.73093 0.43483 0.07207 0.0
C370 C 0.74678 0.41721 0.08485 0.0
C371 C 0.77203 0.43949 0.10459 0.0
H372 H 0.71135 0.41751 0.05681 0.0
H373 H 0.96563 0.6476 0.24275 0.0
H374 H 0.46767 0.9102 0.47102 0.0
H375 H 0.40741 0.85123 0.46741 0.0
H376 H 0.36307 0.92129 0.50657 0.0
H377 H 0.42311 0.98015 0.51022 0.0
H378 H 0.34649 0.85106 0.51904 0.0
H379 H 0.33857 0.8959 0.45148 0.0
H380 H 0.36003 0.91531 0.41714 0.0
H381 H 0.3541 0.80118 0.39254 0.0
H382 H 0.33309 0.78128 0.4269 0.0
H383 H 0.14778 0.73022 0.49229 0.0
H384 H 0.21307 0.78194 0.49941 0.0
H385 H 0.24403 0.70753 0.45295 0.0
H386 H 0.17859 0.65606 0.44549 0.0
H387 H 0.27011 0.77698 0.44452 0.0
H388 H 0.27389 0.72971 0.51053 0.0
H389 H 0.25262 0.70955 0.54475 0.0
H390 H 0.26703 0.82617 0.5724 0.0
H391 H 0.28789 0.84691 0.53821 0.0
C392 C 0.44502 0.91292 0.47884 0.0
C393 C 0.44985 0.94967 0.49077 0.0
C394 C 0.41067 0.87929 0.47677 0.0
C395 C 0.3807 0.88197 0.48662 0.0
C396 C 0.38583 0.91858 0.49888 0.0
C397 C 0.42004 0.95218 0.50085 0.0
C398 C 0.34362 0.84689 0.48378 0.0
C399 C 0.32959 0.83498 0.50278 0.0
C400 C 0.32212 0.82535 0.46252 0.0
C401 C 0.3347 0.83727 0.44186 0.0
C402 C 0.34217 0.87507 0.43883 0.0
C403 C 0.35418 0.88614 0.41935 0.0
C404 C 0.35854 0.85954 0.4027 0.0
C405 C 0.35079 0.82178 0.40547 0.0
C406 C 0.33881 0.81058 0.42494 0.0
C407 C 0.16871 0.72463 0.48396 0.0
C408 C 0.15812 0.68914 0.46835 0.0
C409 C 0.20605 0.75419 0.48803 0.0
C410 C 0.23365 0.74857 0.47686 0.0
C411 C 0.22329 0.71263 0.46174 0.0
C412 C 0.18591 0.68323 0.45751 0.0
C413 C 0.27263 0.78104 0.47982 0.0
C414 C 0.28706 0.79262 0.46082 0.0
C415 C 0.29456 0.80208 0.50109 0.0
C416 C 0.28216 0.78977 0.52172 0.0
C417 C 0.27226 0.75099 0.52384 0.0
C418 C 0.26032 0.73947 0.54324 0.0
C419 C 0.2584 0.76654 0.56072 0.0
C420 C 0.2685 0.80522 0.55884 0.0
C421 C 0.28043 0.81689 0.53947 0.0
H422 H 0.24915 0.75756 0.57573 0.0
H423 H 0.36783 0.86816 0.38762 0.0
H424 H 0.59336 0.48252 0.80206 0.0
H425 H 0.60665 0.4266 0.80398 0.0
H426 H 0.53706 0.39958 0.85504 0.0
H427 H 0.52697 0.458 0.85458 0.0
H428 H 0.59302 0.38571 0.86499 0.0
H429 H 0.50668 0.34843 0.79708 0.0
H430 H 0.48339 0.35484 0.76061 0.0
H431 H 0.58149 0.35343 0.73577 0.0
H432 H 0.60558 0.34748 0.77218 0.0
H433 H 0.55389 0.17799 0.84129 0.0
H434 H 0.55217 0.24201 0.84856 0.0
H435 H 0.64155 0.28642 0.81018 0.0
H436 H 0.64404 0.22323 0.80333 0.0
H437 H 0.57558 0.29104 0.79482 0.0
H438 H 0.65877 0.32368 0.86354 0.0
H439 H 0.67943 0.31615 0.90025 0.0
H440 H 0.58253 0.32324 0.92373 0.0
H441 H 0.56088 0.33007 0.88702 0.0
C442 C 0.582 0.46544 0.81419 0.0
C443 C 0.56002 0.47529 0.82856 0.0
C444 C 0.5888 0.43278 0.81493 0.0
C445 C 0.57233 0.4081 0.82939 0.0
C446 C 0.55016 0.41793 0.84371 0.0
C447 C 0.5441 0.45116 0.84331 0.0
C448 C 0.57766 0.37181 0.82932 0.0
C449 C 0.58864 0.36475 0.84964 0.0
C450 C 0.57258 0.34447 0.80934 0.0
C451 C 0.55807 0.34787 0.78741 0.0
C452 C 0.52338 0.34973 0.78387 0.0
C453 C 0.51003 0.35324 0.76321 0.0
C454 C 0.53099 0.35464 0.7459 0.0
C455 C 0.5653 0.35239 0.7492 0.0
C456 C 0.5788 0.34891 0.76983 0.0
C457 C 0.57401 0.20182 0.83504 0.0
C458 C 0.59876 0.19528 0.82148 0.0
C459 C 0.57289 0.23836 0.83912 0.0
C460 C 0.59648 0.26893 0.82972 0.0
C461 C 0.62286 0.26322 0.81745 0.0
C462 C 0.6242 0.22701 0.81353 0.0
C463 C 0.59103 0.30511 0.83041 0.0
C464 C 0.57987 0.31202 0.81017 0.0
C465 C 0.59533 0.33178 0.85046 0.0
C466 C 0.60789 0.32679 0.87239 0.0
C467 C 0.64155 0.32305 0.87641 0.0
C468 C 0.65352 0.31904 0.89726 0.0
C469 C 0.63222 0.31904 0.91429 0.0
C470 C 0.59892 0.32308 0.91051 0.0
C471 C 0.58678 0.32699 0.88967 0.0
H472 H 0.64159 0.31604 0.93043 0.0
H473 H 0.52061 0.35737 0.72992 0.0
H474 H 0.64828 0.01251 0.53824 0.0
H475 H 0.63538 0.94425 0.53741 0.0
H476 H 0.56835 0.90751 0.47205 0.0
H477 H 0.57978 0.97568 0.47343 0.0
H478 H 0.53485 0.85543 0.49314 0.0
H479 H 0.66403 0.91852 0.48282 0.0
H480 H 0.73085 0.96857 0.49137 0.0
H481 H 0.74405 0.93673 0.55346 0.0
H482 H 0.67714 0.8868 0.5454 0.0
H483 H 0.54973 0.67575 0.45888 0.0
H484 H 0.56174 0.74435 0.46346 0.0
H485 H 0.5849 0.76155 0.53456 0.0
H486 H 0.57058 0.69202 0.53036 0.0
H487 H 0.64024 0.82243 0.51203 0.0
H488 H 0.50828 0.75542 0.51912 0.0
H489 H 0.44229 0.70412 0.50732 0.0
H490 H 0.43612 0.74255 0.4467 0.0
H491 H 0.50236 0.79364 0.45796 0.0
C492 C 0.63077 0.9898 0.52371 0.0
C493 C 0.6152 0.99937 0.50584 0.0
C494 C 0.62358 0.95074 0.52316 0.0
C495 C 0.60157 0.92048 0.50443 0.0
C496 C 0.58551 0.93009 0.48669 0.0
C497 C 0.59209 0.96909 0.48745 0.0
C498 C 0.5952 0.87894 0.50334 0.0
C499 C 0.55808 0.84838 0.49704 0.0
C500 C 0.62523 0.86927 0.50872 0.0
C501 C 0.66548 0.89921 0.51361 0.0
C502 C 0.68111 0.92239 0.49837 0.0
C503 C 0.71901 0.9507 0.50312 0.0
C504 C 0.74165 0.9559 0.52297 0.0
C505 C 0.72646 0.93271 0.5381 0.0
C506 C 0.68856 0.90438 0.53345 0.0
C507 C 0.5568 0.6937 0.47558 0.0
C508 C 0.55852 0.67769 0.49425 0.0
C509 C 0.56399 0.73315 0.47812 0.0
C510 C 0.57389 0.75795 0.49933 0.0
C511 C 0.57725 0.74284 0.51802 0.0
C512 C 0.56931 0.70305 0.51554 0.0
C513 C 0.58017 0.79946 0.5018 0.0
C514 C 0.61719 0.82982 0.50827 0.0
C515 C 0.55023 0.80887 0.4961 0.0
C516 C 0.51045 0.77805 0.48927 0.0
C517 C 0.49302 0.75263 0.50315 0.0
C518 C 0.45553 0.72365 0.49659 0.0
C519 C 0.43506 0.71999 0.47624 0.0
C520 C 0.45203 0.74536 0.46243 0.0
C521 C 0.48955 0.77434 0.4689 0.0
H522 H 0.40602 0.69757 0.4712 0.0
H523 H 0.77098 0.97784 0.52662 0.0
H524 H 0.75799 0.59659 0.85224 0.0
H525 H 0.80674 0.57392 0.84669 0.0
H526 H 0.72697 0.47363 0.79622 0.0
H527 H 0.67817 0.49585 0.80189 0.0
H528 H 0.76607 0.45213 0.82357 0.0
H529 H 0.79449 0.54841 0.78046 0.0
H530 H 0.80637 0.61263 0.77223 0.0
H531 H 0.90444 0.67036 0.82344 0.0
H532 H 0.89285 0.60657 0.83221 0.0
H533 H 0.97962 0.50255 0.80921 0.0
H534 H 0.91587 0.49126 0.79406 0.0
H535 H 0.8807 0.47466 0.85733 0.0
H536 H 0.94378 0.48643 0.87256 0.0
H537 H 0.89242 0.54305 0.81038 0.0
H538 H 0.78718 0.42557 0.85312 0.0
H539 H 0.77406 0.35966 0.85899 0.0
H540 H 0.82792 0.33988 0.80362 0.0
H541 H 0.84079 0.40538 0.79712 0.0
C542 C 0.75098 0.56975 0.84 0.0
C543 C 0.71458 0.54807 0.82741 0.0
C544 C 0.77877 0.55693 0.83675 0.0
C545 C 0.77051 0.5224 0.8208 0.0
C546 C 0.73391 0.50041 0.80851 0.0
C547 C 0.70618 0.51321 0.81174 0.0
C548 C 0.80006 0.5091 0.81727 0.0
C549 C 0.79367 0.47177 0.82052 0.0
C550 C 0.8354 0.53418 0.81234 0.0
C551 C 0.84268 0.57267 0.80706 0.0
C552 C 0.81846 0.57483 0.79006 0.0
C553 C 0.82516 0.61116 0.78529 0.0
C554 C 0.85612 0.64556 0.79732 0.0
C555 C 0.88048 0.64369 0.81413 0.0
C556 C 0.87389 0.60744 0.81899 0.0
C557 C 0.95795 0.49542 0.81967 0.0
C558 C 0.96696 0.49602 0.84218 0.0
C559 C 0.92153 0.48874 0.81096 0.0
C560 C 0.89358 0.48221 0.82457 0.0
C561 C 0.90156 0.47897 0.84637 0.0
C562 C 0.93786 0.48576 0.85509 0.0
C563 C 0.85928 0.48691 0.81802 0.0
C564 C 0.86463 0.5228 0.81287 0.0
C565 C 0.8229 0.4602 0.82089 0.0
C566 C 0.8151 0.4206 0.82469 0.0
C567 C 0.79601 0.40711 0.84208 0.0
C568 C 0.78866 0.3698 0.84555 0.0
C569 C 0.80021 0.34563 0.83171 0.0
C570 C 0.81909 0.35868 0.81436 0.0
C571 C 0.82647 0.39594 0.8108 0.0
H572 H 0.79449 0.31676 0.83443 0.0
H573 H 0.86125 0.67366 0.7936 0.0
H574 H 0.18816 0.70123 0.19875 0.0
H575 H 0.2425 0.76493 0.20135 0.0
H576 H 0.27341 0.71577 0.14243 0.0
H577 H 0.21945 0.65171 0.14006 0.0
H578 H 0.33472 0.76144 0.17324 0.0
H579 H 0.22883 0.77464 0.14006 0.0
H580 H 0.16495 0.77141 0.13673 0.0
H581 H 0.19747 0.85592 0.1989 0.0
H582 H 0.26142 0.85926 0.20275 0.0
H583 H 0.47012 0.95164 0.16433 0.0
H584 H 0.41532 0.88655 0.15533 0.0
H585 H 0.37051 0.92157 0.21208 0.0
H586 H 0.42398 0.98691 0.22049 0.0
H587 H 0.31562 0.88168 0.17814 0.0
H588 H 0.42001 0.86476 0.21247 0.0
H589 H 0.48357 0.86717 0.21606 0.0
H590 H 0.45358 0.78908 0.15173 0.0
H591 H 0.39 0.7867 0.14761 0.0
C592 C 0.20666 0.70402 0.18642 0.0
C593 C 0.1996 0.67171 0.16915 0.0
C594 C 0.23755 0.74044 0.18783 0.0
C595 C 0.26166 0.74531 0.17185 0.0
C596 C 0.2551 0.71274 0.15488 0.0
C597 C 0.22428 0.67623 0.15352 0.0
C598 C 0.29366 0.78441 0.17292 0.0
C599 C 0.33051 0.78765 0.17394 0.0
C600 C 0.28821 0.81869 0.17411 0.0
C601 C 0.24984 0.81696 0.17177 0.0
C602 C 0.22229 0.79234 0.15309 0.0
C603 C 0.18607 0.79052 0.1511 0.0
C604 C 0.17713 0.81339 0.16761 0.0
C605 C 0.20443 0.83821 0.18613 0.0
C606 C 0.24068 0.84011 0.18821 0.0
C607 C 0.44831 0.94562 0.17469 0.0
C608 C 0.45166 0.97437 0.19327 0.0
C609 C 0.41719 0.90827 0.16966 0.0
C610 C 0.38908 0.89892 0.18325 0.0
C611 C 0.39189 0.92796 0.20141 0.0
C612 C 0.42273 0.96523 0.20633 0.0
C613 C 0.35682 0.85889 0.17895 0.0
C614 C 0.31985 0.85544 0.17725 0.0
C615 C 0.36219 0.82445 0.17714 0.0
C616 C 0.40043 0.82596 0.17961 0.0
C617 C 0.42709 0.84839 0.199 0.0
C618 C 0.4631 0.84971 0.20115 0.0
C619 C 0.47266 0.82841 0.1841 0.0
C620 C 0.44618 0.80566 0.16489 0.0
C621 C 0.41016 0.80431 0.16265 0.0
H622 H 0.50054 0.82944 0.1858 0.0
H623 H 0.14908 0.81193 0.16604 0.0
H624 H 0.60919 0.18843 0.53209 0.0
H625 H 0.61959 0.25644 0.53462 0.0
H626 H 0.53456 0.21792 0.47634 0.0
H627 H 0.52612 0.15033 0.47294 0.0
H628 H 0.58938 0.28453 0.47446 0.0
H629 H 0.51696 0.2384 0.53126 0.0
H630 H 0.50308 0.20912 0.56389 0.0
H631 H 0.60574 0.30314 0.60289 0.0
H632 H 0.62045 0.33277 0.57039 0.0
H633 H 0.54085 0.4467 0.49576 0.0
H634 H 0.5424 0.3828 0.48865 0.0
H635 H 0.63926 0.42892 0.5406 0.0
H636 H 0.63873 0.49306 0.54733 0.0
H637 H 0.58104 0.3599 0.54569 0.0
H638 H 0.64993 0.40882 0.48861 0.0
H639 H 0.66242 0.43668 0.45548 0.0
H640 H 0.56405 0.33666 0.41651 0.0
H641 H 0.55067 0.30837 0.4495 0.0
C642 C 0.59345 0.19465 0.51952 0.0
C643 C 0.56727 0.16414 0.50214 0.0
C644 C 0.59892 0.23349 0.52117 0.0
C645 C 0.57744 0.24247 0.50587 0.0
C646 C 0.55153 0.21195 0.48837 0.0
C647 C 0.54652 0.17324 0.48652 0.0
C648 C 0.5812 0.28332 0.50836 0.0
C649 C 0.58719 0.30085 0.48998 0.0
C650 C 0.57895 0.30506 0.5287 0.0
C651 C 0.56997 0.28759 0.54834 0.0
C652 C 0.53667 0.25271 0.54676 0.0
C653 C 0.52865 0.23607 0.56523 0.0
C654 C 0.55356 0.25421 0.58543 0.0
C655 C 0.5865 0.28911 0.58722 0.0
C656 C 0.59467 0.30587 0.56879 0.0
C657 C 0.56312 0.44362 0.50528 0.0
C658 C 0.58942 0.47509 0.5223 0.0
C659 C 0.56384 0.40694 0.50127 0.0
C660 C 0.59081 0.40095 0.5142 0.0
C661 C 0.61798 0.4327 0.53055 0.0
C662 C 0.61752 0.46937 0.53441 0.0
C663 C 0.58921 0.36106 0.51178 0.0
C664 C 0.58349 0.34369 0.5302 0.0
C665 C 0.59139 0.33942 0.49143 0.0
C666 C 0.59908 0.35665 0.47162 0.0
C667 C 0.63072 0.39292 0.47305 0.0
C668 C 0.63803 0.40875 0.45427 0.0
C669 C 0.61399 0.38851 0.43391 0.0
C670 C 0.58263 0.35234 0.43229 0.0
C671 C 0.57519 0.33637 0.45103 0.0
H672 H 0.61971 0.40081 0.41939 0.0
H673 H 0.54727 0.24129 0.59971 0.0
H674 H 0.42374 0.55518 0.80347 0.0
H675 H 0.36949 0.5705 0.80336 0.0
H676 H 0.42847 0.66381 0.86198 0.0
H677 H 0.48269 0.64887 0.86203 0.0
H678 H 0.32507 0.56718 0.83451 0.0
H679 H 0.40596 0.73815 0.86026 0.0
H680 H 0.4653 0.7911 0.8545 0.0
H681 H 0.46224 0.71714 0.79315 0.0
H682 H 0.40305 0.66413 0.79848 0.0
H683 H 0.20764 0.6389 0.88193 0.0
H684 H 0.26692 0.6357 0.87639 0.0
H685 H 0.26103 0.66846 0.81355 0.0
H686 H 0.20147 0.67164 0.81898 0.0
H687 H 0.33576 0.70123 0.83728 0.0
H688 H 0.22684 0.57607 0.81178 0.0
H689 H 0.1665 0.52188 0.81514 0.0
H690 H 0.22284 0.50081 0.86978 0.0
H691 H 0.28343 0.55538 0.86701 0.0
C692 C 0.42506 0.57902 0.81625 0.0
C693 C 0.45715 0.6008 0.8328 0.0
C694 C 0.39417 0.58773 0.81617 0.0
C695 C 0.3952 0.61852 0.83253 0.0
C696 C 0.42738 0.64035 0.84901 0.0
C697 C 0.45817 0.63162 0.84911 0.0
C698 C 0.36199 0.62677 0.83312 0.0
C699 C 0.32736 0.59641 0.83498 0.0
C700 C 0.36493 0.66478 0.83337 0.0
C701 C 0.40021 0.69706 0.82988 0.0
C702 C 0.41791 0.73332 0.8455 0.0
C703 C 0.45162 0.76334 0.84234 0.0
C704 C 0.46773 0.75751 0.82354 0.0
C705 C 0.45005 0.72171 0.80781 0.0
C706 C 0.41644 0.69162 0.81091 0.0
C707 C 0.21933 0.64604 0.86711 0.0
C708 C 0.1998 0.65494 0.85071 0.0
C709 C 0.25315 0.64431 0.864 0.0
C710 C 0.26783 0.65119 0.8444 0.0
C711 C 0.24999 0.66301 0.82876 0.0
C712 C 0.21608 0.66485 0.83189 0.0
C713 C 0.29935 0.64191 0.83933 0.0
C714 C 0.33353 0.67198 0.83664 0.0
C715 C 0.29585 0.6034 0.83786 0.0
C716 C 0.25961 0.57002 0.83929 0.0
C717 C 0.22632 0.56005 0.8246 0.0
C718 C 0.19207 0.52926 0.8264 0.0
C719 C 0.19082 0.50797 0.84269 0.0
C720 C 0.22384 0.51735 0.85718 0.0
C721 C 0.25816 0.54819 0.8555 0.0
H722 H 0.16427 0.48415 0.84406 0.0
H723 H 0.49384 0.78078 0.82115 0.0
H724 H 0.91621 0.39537 0.12488 0.0
H725 H 0.85251 0.34934 0.12864 0.0
H726 H 0.9001 0.31041 0.17888 0.0
H727 H 0.96424 0.35679 0.17524 0.0
H728 H 0.83974 0.24864 0.14673 0.0
H729 H 0.86847 0.37531 0.19361 0.0
H730 H 0.88712 0.44661 0.2012 0.0
H731 H 0.78984 0.42582 0.15556 0.0
H732 H 0.7714 0.35455 0.14687 0.0
H733 H 0.66256 0.13908 0.17697 0.0
H734 H 0.72882 0.18484 0.17888 0.0
H735 H 0.69463 0.25496 0.1435 0.0
H736 H 0.62867 0.212 0.14364 0.0
H737 H 0.75109 0.30197 0.1711 0.0
H738 H 0.72644 0.18351 0.11854 0.0
H739 H 0.70609 0.11237 0.10504 0.0
H740 H 0.79166 0.11756 0.15422 0.0
H741 H 0.81222 0.18869 0.16819 0.0
C742 C 0.91316 0.37662 0.13651 0.0
C743 C 0.94511 0.37954 0.14976 0.0
C744 C 0.87675 0.35055 0.13874 0.0
C745 C 0.87162 0.32692 0.15426 0.0
C746 C 0.90352 0.32857 0.16688 0.0
C747 C 0.94006 0.35494 0.16477 0.0
C748 C 0.83288 0.30109 0.15753 0.0
C749 C 0.82046 0.26022 0.1524 0.0
C750 C 0.80745 0.31638 0.16417 0.0
C751 C 0.81867 0.35943 0.16947 0.0
C752 C 0.85125 0.38589 0.18497 0.0
C753 C 0.86178 0.42633 0.18948 0.0
C754 C 0.83958 0.44065 0.17894 0.0
C755 C 0.807 0.41464 0.16369 0.0
C756 C 0.79655 0.37423 0.15892 0.0
C757 C 0.66899 0.16467 0.17002 0.0
C758 C 0.63982 0.17123 0.15984 0.0
C759 C 0.7071 0.19056 0.17078 0.0
C760 C 0.71702 0.22294 0.16079 0.0
C761 C 0.688 0.23013 0.1512 0.0
C762 C 0.65003 0.20496 0.15097 0.0
C763 C 0.75737 0.24911 0.15989 0.0
C764 C 0.77026 0.29017 0.16554 0.0
C765 C 0.78285 0.23402 0.15292 0.0
C766 C 0.77056 0.19129 0.14458 0.0
C767 C 0.74073 0.1694 0.12658 0.0
C768 C 0.72918 0.12911 0.11882 0.0
C769 C 0.74749 0.11043 0.12881 0.0
C770 C 0.77745 0.13205 0.14653 0.0
C771 C 0.78908 0.17236 0.15437 0.0
H772 H 0.73852 0.07923 0.12278 0.0
H773 H 0.84757 0.47188 0.18259 0.0
H774 H 0.13706 0.54218 0.09346 0.0
H775 H 0.14036 0.53598 0.05386 0.0
H776 H 1.01865 0.46844 0.03829 0.0
H777 H 1.01547 0.47295 0.07794 0.0
H778 H 0.04897 0.43881 0.00937 0.0
H779 H 0.06667 0.57071 0.03998 0.0
H780 H 0.09736 0.63613 0.06574 0.0
H781 H 0.20308 0.65804 0.04303 0.0
H782 H 0.1731 0.5925 0.01733 0.0
H783 H 1.00034 0.49014 0.91197 0.0
H784 H 1.01198 0.47958 0.9487 0.0
H785 H 0.13105 0.52246 0.9454 0.0
H786 H 0.1195 0.53122 0.90772 0.0
H787 H 0.11208 0.56195 0.98294 0.0
H788 H 0.08744 0.4318 0.94691 0.0
H789 H 0.05268 0.36745 0.92047 0.0
H790 H 0.95502 0.34351 0.95251 0.0
H791 H 0.98898 0.40798 0.97895 0.0
C792 C 0.11102 0.52594 0.08156 0.0
C793 C 0.07593 0.50846 0.08872 0.0
C794 C 0.11294 0.52246 0.05895 0.0
C795 C 0.07969 0.50247 0.04309 0.0
C796 C 0.04469 0.48407 0.05021 0.0
C797 C 0.04285 0.4868 0.07285 0.0
C798 C 0.0811 0.50198 0.01916 0.0
C799 C 0.0626 0.46576 0.00359 0.0
C800 C 0.09978 0.53705 0.01161 0.0
C801 C 0.11776 0.57655 0.02693 0.0
C802 C 0.09652 0.58939 0.04059 0.0
C803 C 0.11378 0.62649 0.05516 0.0
C804 C 0.15218 0.65117 0.05607 0.0
C805 C 0.17337 0.63885 0.04235 0.0
C806 C 0.15626 0.60175 0.02777 0.0
C807 C 0.02887 0.49598 0.9185 0.0
C808 C 0.05896 0.51144 0.90667 0.0
C809 C 0.03546 0.49014 0.93967 0.0
C810 C 0.07229 0.50005 0.94965 0.0
C811 C 0.10239 0.51455 0.93786 0.0
C812 C 0.09573 0.5198 0.91642 0.0
C813 C 0.07922 0.49897 0.97324 0.0
C814 C 0.09917 0.53494 0.98876 0.0
C815 C 0.06129 0.46381 0.98069 0.0
C816 C 0.04074 0.42488 0.96485 0.0
C817 C 0.05845 0.41296 0.94822 0.0
C818 C 0.0389 0.37642 0.93325 0.0
C819 C 1.00165 0.35143 0.93479 0.0
C820 C 0.98388 0.3629 0.95133 0.0
C821 C 1.0033 0.39942 0.96635 0.0
H822 H 0.98656 0.32315 0.92318 0.0
H823 H 0.16549 0.67988 0.06737 0.0
H824 H 0.54147 0.02907 0.42199 0.0
H825 H 0.54126 0.03502 0.38332 0.0
H826 H 0.6386 0.14867 0.40372 0.0
H827 H 0.63889 0.14325 0.4424 0.0
H828 H 0.58575 0.15036 0.37443 0.0
H829 H 0.64938 0.06979 0.37906 0.0
H830 H 0.65792 0.01369 0.3879 0.0
H831 H 0.5568 0.93286 0.34192 0.0
H832 H 0.54735 0.98848 0.33303 0.0
H833 H 0.60344 0.0858 0.24909 0.0
H834 H 0.62456 0.09918 0.28934 0.0
H835 H 0.51764 0.09674 0.30164 0.0
H836 H 0.49649 0.083 0.2616 0.0
H837 H 0.58805 0.04705 0.31512 0.0
H838 H 0.53258 0.15872 0.3521 0.0
H839 H 0.52693 0.21642 0.34352 0.0
H840 H 0.61863 0.23882 0.30639 0.0
H841 H 0.62524 0.18164 0.31503 0.0
C842 C 0.56291 0.0553 0.41828 0.0
C843 C 0.59026 0.08559 0.43533 0.0
C844 C 0.56283 0.05859 0.39614 0.0
C845 C 0.59016 0.09213 0.39063 0.0
C846 C 0.61731 0.12251 0.4076 0.0
C847 C 0.61747 0.11924 0.42972 0.0
C848 C 0.59002 0.09573 0.36716 0.0
C849 C 0.58641 0.12788 0.36146 0.0
C850 C 0.59177 0.06685 0.35033 0.0
C851 C 0.59753 0.03332 0.35549 0.0
C852 C 0.62883 0.04005 0.37094 0.0
C853 C 0.63385 1.00833 0.37594 0.0
C854 C 0.60788 0.96974 0.36551 0.0
C855 C 0.57688 0.96278 0.35 0.0
C856 C 0.57171 0.99439 0.34495 0.0
C857 C 0.58503 0.08929 0.26051 0.0
C858 C 0.54849 0.08357 0.25243 0.0
C859 C 0.59695 0.09663 0.2834 0.0
C860 C 0.57268 0.09901 0.29844 0.0
C861 C 0.53696 0.09545 0.29035 0.0
C862 C 0.5249 0.08761 0.26753 0.0
C863 C 0.58264 0.10106 0.32232 0.0
C864 C 0.58791 0.06983 0.32811 0.0
C865 C 0.58278 0.13098 0.33923 0.0
C866 C 0.57918 0.16565 0.33408 0.0
C867 C 0.55166 0.17605 0.34219 0.0
C868 C 0.54827 0.20866 0.3373 0.0
C869 C 0.57234 0.23121 0.32437 0.0
C870 C 0.59991 0.22124 0.31634 0.0
C871 C 0.60344 0.18869 0.3212 0.0
H872 H 0.56966 0.25644 0.3206 0.0
H873 H 0.61181 0.94522 0.36941 0.0
H874 H 0.64296 0.59553 0.76418 0.0
H875 H 0.64168 0.60234 0.72584 0.0
H876 H 0.5351 0.60808 0.72615 0.0
H877 H 0.53607 0.60126 0.76477 0.0
H878 H 0.53269 0.5564 0.69011 0.0
H879 H 0.61506 0.69181 0.72334 0.0
H880 H 0.66902 0.74702 0.74926 0.0
H881 H 0.74622 0.70966 0.71942 0.0
H882 H 0.69264 0.65398 0.69357 0.0
H883 H 0.53529 0.58321 0.57981 0.0
H884 H 0.53617 0.59969 0.61993 0.0
H885 H 0.64119 0.59166 0.63224 0.0
H886 H 0.64092 0.57611 0.59222 0.0
H887 H 0.64052 0.65199 0.66229 0.0
H888 H 0.55798 0.51398 0.63123 0.0
H889 H 0.50425 0.45796 0.60575 0.0
H890 H 0.42724 0.49975 0.63175 0.0
H891 H 0.48065 0.55638 0.65718 0.0
C892 C 0.61931 0.59855 0.75624 0.0
C893 C 0.58948 0.59759 0.76757 0.0
C894 C 0.61882 0.6028 0.73431 0.0
C895 C 0.58857 0.60631 0.7232 0.0
C896 C 0.55888 0.60575 0.73448 0.0
C897 C 0.55946 0.60178 0.75654 0.0
C898 C 0.58692 0.60758 0.69933 0.0
C899 C 0.55584 0.57791 0.68407 0.0
C900 C 0.61747 0.63508 0.69138 0.0
C901 C 0.64984 0.66857 0.70674 0.0
C902 C 0.64354 0.69522 0.7225 0.0
C903 C 0.67404 0.72661 0.73712 0.0
C904 C 0.71101 0.73175 0.73604 0.0
C905 C 0.71756 0.7056 0.72027 0.0
C906 C 0.68714 0.67417 0.70561 0.0
C907 C 0.55902 0.58592 0.59109 0.0
C908 C 0.5879 0.57807 0.5829 0.0
C909 C 0.55934 0.59502 0.61399 0.0
C910 C 0.58845 0.5963 0.62905 0.0
C911 C 0.61839 0.59069 0.62092 0.0
C912 C 0.61807 0.58155 0.59807 0.0
C913 C 0.58653 0.60055 0.65313 0.0
C914 C 0.617 0.63106 0.66839 0.0
C915 C 0.55544 0.57375 0.66108 0.0
C916 C 0.52333 0.53965 0.64589 0.0
C917 C 0.52962 0.51139 0.63138 0.0
C918 C 0.49923 0.47951 0.61697 0.0
C919 C 0.46237 0.47537 0.61708 0.0
C920 C 0.45582 0.50305 0.63165 0.0
C921 C 0.48613 0.53504 0.64606 0.0
H922 H 0.43887 0.45066 0.60593 0.0
H923 H 0.73459 0.75606 0.74737 0.0
H924 H 0.54025 0.0261 0.56551 0.0
H925 H 0.5383 0.0248 0.60468 0.0
H926 H 0.64591 0.12853 0.62303 0.0
H927 H 0.64783 0.13057 0.58393 0.0
H928 H 0.58222 0.01833 0.63743 0.0
H929 H 0.64469 0.18694 0.67036 0.0
H930 H 0.64936 0.2454 0.65705 0.0
H931 H 0.54769 0.17348 0.60955 0.0
H932 H 0.54211 0.11472 0.6228 0.0
H933 H 0.62747 0.07297 0.75701 0.0
H934 H 0.62709 0.06289 0.71668 0.0
H935 H 0.53697 0.09735 0.7093 0.0
H936 H 0.53807 0.10828 0.74945 0.0
H937 H 0.59043 0.13672 0.68892 0.0
H938 H 0.52276 1.00077 0.6911 0.0
H939 H 0.51192 0.9399 0.70348 0.0
H940 H 0.61185 0.94194 0.6796 0.0
H941 H 0.62358 1.00315 0.66735 0.0
C942 C 0.56361 0.04861 0.57784 0.0
C943 C 0.59401 0.07873 0.57156 0.0
C944 C 0.56252 0.04766 0.60024 0.0
C945 C 0.59173 0.07679 0.61679 0.0
C946 C 0.62276 0.10608 0.61054 0.0
C947 C 0.62381 0.10718 0.58816 0.0
C948 C 0.58886 0.07759 0.64061 0.0
C949 C 0.58411 0.04422 0.64874 0.0
C950 C 0.5906 0.1111 0.65524 0.0
C951 C 0.59325 0.14639 0.64742 0.0
C952 C 0.62325 0.18365 0.65714 0.0
C953 C 0.62607 0.21682 0.6496 0.0
C954 C 0.59892 0.21313 0.63241 0.0
C955 C 0.56878 0.17628 0.62281 0.0
C956 C 0.5658 0.14303 0.63031 0.0
C957 C 0.60718 0.0776 0.74663 0.0
C958 C 0.58297 0.0916 0.75622 0.0
C959 C 0.60693 0.07187 0.72364 0.0
C960 C 0.58204 0.07948 0.70994 0.0
C961 C 0.55666 0.09164 0.71952 0.0
C962 C 0.55718 0.09774 0.74241 0.0
C963 C 0.58391 0.07747 0.68591 0.0
C964 C 0.58864 0.11078 0.67771 0.0
C965 C 0.58125 0.04357 0.67117 0.0
C966 C 0.57425 1.00676 0.67851 0.0
C967 C 0.54259 0.98842 0.68865 0.0
C968 C 0.53626 0.95382 0.69562 0.0
C969 C 0.56123 0.93712 0.69239 0.0
C970 C 0.59255 0.95494 0.68213 0.0
C971 C 0.59904 0.98956 0.67515 0.0
H972 H 0.55628 0.91033 0.69779 0.0
H973 H 0.60122 0.23885 0.62658 0.0
H974 H 0.64781 0.57003 0.90425 0.0
H975 H 0.64618 0.55725 0.94153 0.0
H976 H 0.5318 0.54427 0.93793 0.0
H977 H 0.53376 0.55844 0.90101 0.0
H978 H 0.56801 0.58458 0.97653 0.0
H979 H 0.55357 0.46401 0.93244 0.0
H980 H 0.56787 0.41977 0.90491 0.0
H981 H 0.67494 0.45558 0.94565 0.0
H982 H 0.66164 0.5006 0.97325 0.0
H983 H 0.54343 0.50073 0.07379 0.0
H984 H 0.5354 0.50392 0.03465 0.0
H985 H 0.6565 0.55635 0.0375 0.0
H986 H 0.66513 0.55571 0.07669 0.0
H987 H 0.60994 0.48939 -0.00135 0.0
H988 H 0.62254 0.61535 0.04054 0.0
H989 H 0.60351 0.65579 0.06763 0.0
H990 H 0.49149 0.60181 0.02944 0.0
H991 H 0.50975 0.56062 0.00228 0.0
C992 C 0.62232 0.56449 0.9114 0.0
C993 C 0.59097 0.56536 0.89965 0.0
C994 C 0.62129 0.55687 0.93268 0.0
C995 C 0.58861 0.54909 0.94248 0.0
C996 C 0.55735 0.55014 0.93078 0.0
C997 C 0.55854 0.55829 0.90964 0.0
C998 C 0.58744 0.54106 0.96516 0.0
C999 C 0.57655 0.56321 0.98116 0.0
C1000 C 0.59862 0.51323 0.97139 0.0
C1001 C 0.60673 0.48602 0.95485 0.0
C1002 C 0.58031 0.46271 0.93546 0.0
C1003 C 0.58822 0.43745 0.91984 0.0
C1004 C 0.62233 0.43495 0.92351 0.0
C1005 C 0.64855 0.4576 0.94283 0.0
C1006 C 0.64083 0.48298 0.95847 0.0
C1007 C 0.56842 0.51332 0.0662 0.0
C1008 C 0.60495 0.52765 0.07855 0.0
C1009 C 0.56371 0.51475 0.04376 0.0
C1010 C 0.59537 0.53002 0.03319 0.0
C1011 C 0.63171 0.54392 0.04529 0.0
C1012 C 0.6365 0.54325 0.06775 0.0
C1013 C 0.5911 0.53329 0.00975 0.0
C1014 C 0.60098 0.5103 0.99372 0.0
C1015 C 0.57819 0.55962 0.00333 0.0
C1016 C 0.56736 0.58459 0.01955 0.0
C1017 C 0.59375 0.61185 0.03804 0.0
C1018 C 0.58313 0.63496 0.05338 0.0
C1019 C 0.54628 0.63128 0.0503 0.0
C1020 C 0.52 0.60457 0.03183 0.0
C1021 C 0.53047 0.58136 0.01646 0.0
H1022 H 0.5381 0.64919 0.0622 0.0
H1023 H 0.62844 0.41545 0.91139 0.0
H1024 H 0.03763 0.47463 0.225 0.0
H1025 H 0.02904 0.48456 0.26389 0.0
H1026 H 0.08868 0.61051 0.27116 0.0
H1027 H 0.099 0.60059 0.23265 0.0
H1028 H 0.11087 0.59363 0.3056 0.0
H1029 H 0.98651 0.55373 0.26423 0.0
H1030 H 0.92844 0.50967 0.23709 0.0
H1031 H 0.90708 0.41812 0.27263 0.0
H1032 H 0.96525 0.46126 0.29975 0.0
H1033 H 0.0635 0.66152 0.40322 0.0
H1034 H 0.05473 0.64085 0.36277 0.0
H1035 H 1.02255 0.52097 0.36792 0.0
H1036 H 0.03101 0.54167 0.40863 0.0
H1037 H 0.98445 0.53062 0.32791 0.0
H1038 H 0.10895 0.57118 0.36894 0.0
H1039 H 0.16413 0.61699 0.39755 0.0
H1040 H 0.1837 0.70896 0.36249 0.0
H1041 H 0.12805 0.66391 0.33393 0.0
C1042 C 0.04908 0.50442 0.23496 0.0
C1043 C 0.06906 0.53685 0.22582 0.0
C1044 C 0.04384 0.51009 0.25714 0.0
C1045 C 0.05748 0.54833 0.27041 0.0
C1046 C 0.07781 0.5807 0.2613 0.0
C1047 C 0.08378 0.57502 0.23929 0.0
C1048 C 0.05148 0.5549 0.29391 0.0
C1049 C 0.08308 0.58013 0.31031 0.0
C1050 C 1.01539 0.53653 0.30034 0.0
C1051 C 0.98046 0.51063 0.28392 0.0
C1052 C 0.96959 0.5241 0.26616 0.0
C1053 C 0.93665 0.49932 0.25079 0.0
C1054 C 0.91415 0.46117 0.25314 0.0
C1055 C 0.92455 0.44767 0.27083 0.0
C1056 C 0.95749 0.47226 0.2862 0.0
C1057 C 0.0533 0.63055 0.39563 0.0
C1058 C 0.04825 0.60316 0.40888 0.0
C1059 C 0.0483 0.61879 0.37258 0.0
C1060 C 0.03863 0.57955 0.36246 0.0
C1061 C 0.03003 0.55139 0.37549 0.0
C1062 C 0.03485 0.56317 0.39866 0.0
C1063 C 0.04359 0.56976 0.33911 0.0
C1064 C 1.01205 0.54393 0.32294 0.0
C1065 C 0.07964 0.58762 0.33277 0.0
C1066 C 0.11415 0.61424 0.34939 0.0
C1067 C 0.12492 0.60122 0.36738 0.0
C1068 C 0.15626 0.62705 0.3836 0.0
C1069 C 0.17737 0.66588 0.38186 0.0
C1070 C 0.16729 0.67888 0.36383 0.0
C1071 C 0.13586 0.6532 0.34761 0.0
H1072 H 0.20157 0.68586 0.39447 0.0
H1073 H 0.88859 0.44207 0.24131 0.0
loop_
_geom_bond_atom_site_label_1
_geom_bond_atom_site_label_2
_geom_bond_distance
_geom_bond_site_symmetry_2
_ccdc_geom_bond_type
Tb0 O3 2.453 . S
Tb0 O4 2.596 . S
Tb0 O5 2.374 . S
Tb0 O13 2.343 . S
Tb0 O15 2.353 . S
Tb0 O17 2.427 . S
Tb0 O18 2.513 . S
C1 O5 1.251 . S
C1 O7 1.263 . S
Tb2 O4 2.343 . S
Tb2 O7 2.353 . S
Tb2 O10 2.427 1_455 S
Tb2 O11 2.513 1_455 S
Tb2 O12 2.453 . S
Tb2 O13 2.596 . S
Tb2 O14 2.374 . S
O3 Tb0 2.453 . S
O3 C19 1.245 1_455 S
O4 Tb0 2.596 . S
O4 Tb2 2.343 . S
O4 C19 1.259 1_455 S
O5 Tb0 2.374 . S
O5 C1 1.251 . S
C6 O10 1.275 . S
C6 O11 1.246 . S
O7 C1 1.263 . S
O7 Tb2 2.353 . S
C8 O12 1.245 . S
C8 O13 1.259 . S
C9 O14 1.250 . S
C9 O15 1.263 . S
O10 Tb2 2.427 1_655 S
O10 C6 1.275 . S
O11 Tb2 2.513 1_655 S
O11 C6 1.246 . S
O12 Tb2 2.453 . S
O12 C8 1.245 . S
O13 Tb0 2.343 . S
O13 Tb2 2.596 . S
O13 C8 1.259 . S
O14 Tb2 2.374 . S
O14 C9 1.250 . S
O15 Tb0 2.353 . S
O15 C9 1.263 . S
C16 O17 1.275 . S
C16 O18 1.246 . S
O17 Tb0 2.427 . S
O17 C16 1.275 . S
O18 Tb0 2.513 . S
O18 C16 1.246 . S
C19 O3 1.245 1_655 S
C19 O4 1.259 1_655 S
Tb20 O23 2.453 . S
Tb20 O24 2.596 . S
Tb20 O25 2.374 . S
Tb20 O33 2.343 . S
Tb20 O35 2.353 . S
Tb20 O37 2.427 1_545 S
Tb20 O38 2.513 1_545 S
C21 O25 1.251 . S
C21 O27 1.263 . S
Tb22 O24 2.343 . S
Tb22 O27 2.353 . S
Tb22 O30 2.427 . S
Tb22 O31 2.513 . S
Tb22 O32 2.453 . S
Tb22 O33 2.596 . S
Tb22 O34 2.374 . S
O23 Tb20 2.453 . S
O23 C39 1.245 . S
O24 Tb20 2.596 . S
O24 Tb22 2.343 . S
O24 C39 1.259 . S
O25 Tb20 2.374 . S
O25 C21 1.251 . S
C26 O30 1.275 . S
C26 O31 1.246 . S
O27 C21 1.263 . S
O27 Tb22 2.353 . S
C28 O32 1.245 . S
C28 O33 1.259 . S
C29 O34 1.250 . S
C29 O35 1.263 . S
O30 Tb22 2.427 . S
O30 C26 1.275 . S
O31 Tb22 2.513 . S
O31 C26 1.246 . S
O32 Tb22 2.453 . S
O32 C28 1.245 . S
O33 Tb20 2.343 . S
O33 Tb22 2.596 . S
O33 C28 1.259 . S
O34 Tb22 2.374 . S
O34 C29 1.250 . S
O35 Tb20 2.353 . S
O35 C29 1.263 . S
C36 O37 1.275 . S
C36 O38 1.246 . S
O37 Tb20 2.427 1_565 S
O37 C36 1.275 . S
O38 Tb20 2.513 1_565 S
O38 C36 1.246 . S
C39 O23 1.245 . S
C39 O24 1.259 . S
Tb40 O43 2.453 . S
Tb40 O44 2.596 . S
Tb40 O45 2.374 . S
Tb40 O53 2.343 . S
Tb40 O55 2.353 . S
Tb40 O57 2.427 . S
Tb40 O58 2.513 . S
C41 O45 1.251 . S
C41 O47 1.263 . S
Tb42 O44 2.343 . S
Tb42 O47 2.353 . S
Tb42 O50 2.427 . S
Tb42 O51 2.513 . S
Tb42 O52 2.453 . S
Tb42 O53 2.596 . S
Tb42 O54 2.374 . S
O43 Tb40 2.453 . S
O43 C59 1.245 . S
O44 Tb40 2.596 . S
O44 Tb42 2.343 . S
O44 C59 1.259 . S
O45 Tb40 2.374 . S
O45 C41 1.251 . S
C46 O50 1.275 . S
C46 O51 1.246 . S
O47 C41 1.263 . S
O47 Tb42 2.353 . S
C48 O52 1.245 . S
C48 O53 1.259 . S
C49 O54 1.250 . S
C49 O55 1.263 . S
O50 Tb42 2.427 . S
O50 C46 1.275 . S
O51 Tb42 2.513 . S
O51 C46 1.246 . S
O52 Tb42 2.453 . S
O52 C48 1.245 . S
O53 Tb40 2.343 . S
O53 Tb42 2.596 . S
O53 C48 1.259 . S
O54 Tb42 2.374 . S
O54 C49 1.250 . S
O55 Tb40 2.353 . S
O55 C49 1.263 . S
C56 O57 1.275 . S
C56 O58 1.246 . S
O57 Tb40 2.427 . S
O57 C56 1.275 . S
O58 Tb40 2.513 . S
O58 C56 1.246 . S
C59 O43 1.245 . S
C59 O44 1.259 . S
H60 C61 0.949 . S
C61 H60 0.949 . S
C61 C62 1.395 . S
C61 C63 1.391 . S
C62 C61 1.395 . S
C62 C65 1.390 . S
C63 C61 1.391 . S
C63 C67 1.387 . S
C63 C68 1.491 . S
H64 C65 0.950 . S
C65 C62 1.390 . S
C65 H64 0.950 . S
C65 C66 1.378 . S
C66 C65 1.378 . S
C66 C67 1.409 . S
C67 C63 1.387 . S
C67 C66 1.409 . S
C67 H69 0.951 . S
C68 C63 1.491 . S
C68 C70 1.382 . S
C68 C72 1.404 . S
H69 C67 0.951 . S
C70 C68 1.382 . S
C70 C71 1.390 . S
C70 H75 0.949 . S
C71 C70 1.390 . S
C71 C76 1.399 . S
C72 C68 1.404 . S
C72 H73 0.950 . S
C72 C74 1.375 . S
H73 C72 0.950 . S
C74 C72 1.375 . S
C74 C76 1.382 . S
C74 H78 0.950 . S
H75 C70 0.949 . S
C76 C71 1.399 . S
C76 C74 1.382 . S
C76 H77 0.952 . S
H77 C76 0.952 . S
H78 C74 0.950 . S
H79 C80 0.949 . S
C80 H79 0.949 . S
C80 C81 1.395 . S
C80 C82 1.391 . S
C81 C80 1.395 . S
C81 C84 1.390 . S
C82 C80 1.391 . S
C82 C86 1.387 . S
C82 C87 1.491 . S
H83 C84 0.950 . S
C84 C81 1.390 . S
C84 H83 0.950 . S
C84 C85 1.378 . S
C85 C84 1.378 . S
C85 C86 1.409 . S
C86 C82 1.387 . S
C86 C85 1.409 . S
C86 H88 0.951 . S
C87 C82 1.491 . S
C87 C89 1.382 . S
C87 C91 1.404 . S
H88 C86 0.951 . S
C89 C87 1.382 . S
C89 C90 1.390 . S
C89 H94 0.949 . S
C90 C89 1.390 . S
C90 C95 1.399 . S
C91 C87 1.404 . S
C91 H92 0.950 . S
C91 C93 1.375 . S
H92 C91 0.950 . S
C93 C91 1.375 . S
C93 C95 1.382 . S
C93 H97 0.950 . S
H94 C89 0.949 . S
C95 C90 1.399 . S
C95 C93 1.382 . S
C95 H96 0.952 . S
H96 C95 0.952 . S
H97 C93 0.950 . S
H98 C99 0.949 . S
C99 H98 0.949 . S
C99 C100 1.395 . S
C99 C101 1.391 . S
C100 C99 1.395 . S
C100 C103 1.390 . S
C101 C99 1.391 . S
C101 C105 1.387 . S
C101 C106 1.491 . S
H102 C103 0.950 . S
C103 C100 1.390 . S
C103 H102 0.950 . S
C103 C104 1.378 . S
C104 C103 1.378 . S
C104 C105 1.409 . S
C105 C101 1.387 . S
C105 C104 1.409 . S
C105 H107 0.951 . S
C106 C101 1.491 . S
C106 C108 1.382 . S
C106 C110 1.404 . S
H107 C105 0.951 . S
C108 C106 1.382 . S
C108 C109 1.390 . S
C108 H113 0.949 . S
C109 C108 1.390 . S
C109 C114 1.399 . S
C110 C106 1.404 . S
C110 H111 0.950 . S
C110 C112 1.375 . S
H111 C110 0.950 . S
C112 C110 1.375 . S
C112 C114 1.382 . S
C112 H116 0.950 . S
H113 C108 0.949 . S
C114 C109 1.399 . S
C114 C112 1.382 . S
C114 H115 0.952 . S
H115 C114 0.952 . S
H116 C112 0.950 . S
H117 C118 0.949 . S
C118 H117 0.949 . S
C118 C119 1.395 1_655 S
C118 C120 1.390 . S
C119 C118 1.395 1_455 S
C119 C122 1.390 . S
C120 C118 1.390 . S
C120 C124 1.372 1_655 S
C120 C125 1.508 . S
H121 C122 0.950 . S
C122 C119 1.390 . S
C122 H121 0.950 . S
C122 C123 1.378 . S
C123 C122 1.378 . S
C123 C124 1.409 . S
C124 C120 1.372 1_455 S
C124 C123 1.409 . S
C124 H126 0.951 . S
C125 C120 1.508 . S
C125 C127 1.382 . S
C125 C129 1.404 . S
H126 C124 0.951 . S
C127 C125 1.382 . S
C127 C128 1.390 . S
C127 H132 0.949 . S
C128 C127 1.390 . S
C128 C133 1.399 . S
C129 C125 1.404 . S
C129 H130 0.950 . S
C129 C131 1.375 . S
H130 C129 0.950 . S
C131 C129 1.375 . S
C131 C133 1.382 . S
C131 H135 0.950 . S
H132 C127 0.949 . S
C133 C128 1.399 . S
C133 C131 1.382 . S
C133 H134 0.952 . S
H134 C133 0.952 . S
H135 C131 0.950 . S
H136 C137 0.949 . S
C137 H136 0.949 . S
C137 C138 1.395 . S
C137 C139 1.391 . S
C138 C137 1.395 . S
C138 C141 1.390 . S
C139 C137 1.391 . S
C139 C143 1.387 . S
C139 C144 1.491 . S
H140 C141 0.950 . S
C141 C138 1.390 . S
C141 H140 0.950 . S
C141 C142 1.378 . S
C142 C141 1.378 . S
C142 C143 1.409 . S
C143 C139 1.387 . S
C143 C142 1.409 . S
C143 H145 0.951 . S
C144 C139 1.491 . S
C144 C146 1.382 1_545 S
C144 C148 1.404 . S
H145 C143 0.951 . S
C146 C144 1.382 1_565 S
C146 C147 1.390 . S
C146 H151 0.949 . S
C147 C146 1.390 . S
C147 C152 1.399 . S
C148 C144 1.404 . S
C148 H149 0.950 . S
C148 C150 1.375 1_545 S
H149 C148 0.950 . S
C150 C148 1.375 1_565 S
C150 C152 1.382 . S
C150 H154 0.950 . S
H151 C146 0.949 . S
C152 C147 1.399 . S
C152 C150 1.382 . S
C152 H153 0.952 . S
H153 C152 0.952 . S
H154 C150 0.950 . S
H155 C156 0.949 . S
C156 H155 0.949 . S
C156 C157 1.395 . S
C156 C158 1.391 . S
C157 C156 1.395 . S
C157 C160 1.390 . S
C158 C156 1.391 . S
C158 C162 1.387 . S
C158 C163 1.491 . S
H159 C160 0.950 . S
C160 C157 1.390 . S
C160 H159 0.950 . S
C160 C161 1.378 . S
C161 C160 1.378 . S
C161 C162 1.409 . S
C162 C158 1.387 . S
C162 C161 1.409 . S
C162 H164 0.951 . S
C163 C158 1.491 . S
C163 C165 1.382 . S
C163 C167 1.404 . S
H164 C162 0.951 . S
C165 C163 1.382 . S
C165 C166 1.390 . S
C165 H170 0.949 . S
C166 C165 1.390 . S
C166 C171 1.399 . S
C167 C163 1.404 . S
C167 H168 0.950 . S
C167 C169 1.375 . S
H168 C167 0.950 . S
C169 C167 1.375 . S
C169 C171 1.382 . S
C169 H173 0.950 . S
H170 C165 0.949 . S
C171 C166 1.399 . S
C171 C169 1.382 . S
C171 H172 0.952 . S
H172 C171 0.952 . S
H173 C169 0.950 . S
H174 C192 0.951 . S
H175 C194 0.951 . S
H176 C196 0.950 . S
H177 C197 0.950 . S
H178 C199 0.950 . S
H179 C202 0.950 . S
H180 C203 0.950 . S
H181 C205 0.950 . S
H182 C206 0.950 . S
H183 C207 0.951 . S
H184 C209 0.951 . S
H185 C211 0.950 . S
H186 C212 0.950 . S
H187 C214 0.950 . S
H188 C217 0.950 . S
H189 C218 0.950 . S
H190 C220 0.950 . S
H191 C221 0.950 . S
C192 H174 0.951 . S
C192 C193 1.366 . S
C192 C194 1.388 . S
C193 C192 1.366 . S
C193 C197 1.385 . S
C194 H175 0.951 . S
C194 C192 1.388 . S
C194 C195 1.366 . S
C195 C194 1.366 . S
C195 C196 1.414 . S
C195 C198 1.499 . S
C196 H176 0.950 . S
C196 C195 1.414 . S
C196 C197 1.374 . S
C197 H177 0.950 . S
C197 C193 1.385 . S
C197 C196 1.374 . S
C198 C195 1.499 . S
C198 C199 1.373 . S
C198 C200 1.389 . S
C199 H178 0.950 . S
C199 C198 1.373 . S
C199 C215 1.377 . S
C200 C198 1.389 . S
C200 C201 1.524 . S
C200 C214 1.377 . S
C201 C200 1.524 . S
C201 C202 1.397 . S
C201 C206 1.363 . S
C202 H179 0.950 . S
C202 C201 1.397 . S
C202 C203 1.334 . S
C203 H180 0.950 . S
C203 C202 1.334 . S
C203 C204 1.287 . S
C204 C203 1.287 . S
C204 C205 1.524 . S
C204 H223 0.913 . S
C205 H181 0.950 . S
C205 C204 1.524 . S
C205 C206 1.415 . S
C206 H182 0.950 . S
C206 C201 1.363 . S
C206 C205 1.415 . S
C207 H183 0.951 . S
C207 C208 1.366 . S
C207 C209 1.388 . S
C208 C207 1.366 . S
C208 C212 1.385 . S
C209 H184 0.951 . S
C209 C207 1.388 . S
C209 C210 1.366 . S
C210 C209 1.366 . S
C210 C211 1.414 . S
C210 C213 1.499 . S
C211 H185 0.950 . S
C211 C210 1.414 . S
C211 C212 1.374 . S
C212 H186 0.950 . S
C212 C208 1.385 . S
C212 C211 1.374 . S
C213 C210 1.499 . S
C213 C214 1.373 . S
C213 C215 1.389 . S
C214 H187 0.950 . S
C214 C200 1.377 . S
C214 C213 1.373 . S
C215 C199 1.377 . S
C215 C213 1.389 . S
C215 C216 1.524 . S
C216 C215 1.524 . S
C216 C217 1.397 . S
C216 C221 1.363 . S
C217 H188 0.950 . S
C217 C216 1.397 . S
C217 C218 1.334 . S
C218 H189 0.950 . S
C218 C217 1.334 . S
C218 C219 1.287 . S
C219 C218 1.287 . S
C219 C220 1.524 . S
C219 H222 0.999 . S
C220 H190 0.950 . S
C220 C219 1.524 . S
C220 C221 1.415 . S
C221 H191 0.950 . S
C221 C216 1.363 . S
C221 C220 1.415 . S
H222 C219 0.999 . S
H223 C204 0.913 . S
H224 C242 0.951 . S
H225 C244 0.951 . S
H226 C246 0.950 . S
H227 C247 0.950 . S
H228 C249 0.950 . S
H229 C252 0.950 . S
H230 C253 0.950 . S
H231 C255 0.950 . S
H232 C256 0.950 . S
H233 C257 0.951 . S
H234 C259 0.951 . S
H235 C261 0.950 . S
H236 C262 0.950 . S
H237 C264 0.950 . S
H238 C267 0.950 . S
H239 C268 0.950 . S
H240 C270 0.950 . S
H241 C271 0.950 . S
C242 H224 0.951 . S
C242 C243 1.366 . S
C242 C244 1.388 . S
C243 C242 1.366 . S
C243 C247 1.385 . S
C244 H225 0.951 . S
C244 C242 1.388 . S
C244 C245 1.366 . S
C245 C244 1.366 . S
C245 C246 1.414 . S
C245 C248 1.499 . S
C246 H226 0.950 . S
C246 C245 1.414 . S
C246 C247 1.374 . S
C247 H227 0.950 . S
C247 C243 1.385 . S
C247 C246 1.374 . S
C248 C245 1.499 . S
C248 C249 1.373 . S
C248 C250 1.389 . S
C249 H228 0.950 . S
C249 C248 1.373 . S
C249 C265 1.377 . S
C250 C248 1.389 . S
C250 C251 1.524 . S
C250 C264 1.377 . S
C251 C250 1.524 . S
C251 C252 1.397 . S
C251 C256 1.363 . S
C252 H229 0.950 . S
C252 C251 1.397 . S
C252 C253 1.334 . S
C253 H230 0.950 . S
C253 C252 1.334 . S
C253 C254 1.287 . S
C254 C253 1.287 . S
C254 C255 1.524 . S
C254 H273 0.913 . S
C255 H231 0.950 . S
C255 C254 1.524 . S
C255 C256 1.415 . S
C256 H232 0.950 . S
C256 C251 1.363 . S
C256 C255 1.415 . S
C257 H233 0.951 . S
C257 C258 1.366 . S
C257 C259 1.388 . S
C258 C257 1.366 . S
C258 C262 1.385 . S
C259 H234 0.951 . S
C259 C257 1.388 . S
C259 C260 1.366 . S
C260 C259 1.366 . S
C260 C261 1.414 . S
C260 C263 1.499 . S
C261 H235 0.950 . S
C261 C260 1.414 . S
C261 C262 1.374 . S
C262 H236 0.950 . S
C262 C258 1.385 . S
C262 C261 1.374 . S
C263 C260 1.499 . S
C263 C264 1.373 . S
C263 C265 1.389 . S
C264 H237 0.950 . S
C264 C250 1.377 . S
C264 C263 1.373 . S
C265 C249 1.377 . S
C265 C263 1.389 . S
C265 C266 1.524 . S
C266 C265 1.524 . S
C266 C267 1.397 . S
C266 C271 1.363 . S
C267 H238 0.950 . S
C267 C266 1.397 . S
C267 C268 1.334 . S
C268 H239 0.950 . S
C268 C267 1.334 . S
C268 C269 1.287 . S
C269 C268 1.287 . S
C269 C270 1.524 . S
C269 H272 0.999 . S
C270 H240 0.950 . S
C270 C269 1.524 . S
C270 C271 1.415 . S
C271 H241 0.950 . S
C271 C266 1.363 . S
C271 C270 1.415 . S
H272 C269 0.999 . S
H273 C254 0.913 . S
H274 C292 0.951 . S
H275 C294 0.951 . S
H276 C296 0.950 . S
H277 C297 0.950 . S
H278 C299 0.950 . S
H279 C302 0.950 . S
H280 C303 0.950 . S
H281 C305 0.950 . S
H282 C306 0.950 . S
H283 C307 0.951 . S
H284 C309 0.951 . S
H285 C311 0.950 . S
H286 C312 0.950 . S
H287 C314 0.950 . S
H288 C317 0.950 . S
H289 C318 0.950 . S
H290 C320 0.950 . S
H291 C321 0.950 . S
C292 H274 0.951 . S
C292 C293 1.366 . S
C292 C294 1.388 . S
C293 C292 1.366 . S
C293 C297 1.385 . S
C294 H275 0.951 . S
C294 C292 1.388 . S
C294 C295 1.366 . S
C295 C294 1.366 . S
C295 C296 1.414 . S
C295 C298 1.499 . S
C296 H276 0.950 . S
C296 C295 1.414 . S
C296 C297 1.374 . S
C297 H277 0.950 . S
C297 C293 1.385 . S
C297 C296 1.374 . S
C298 C295 1.499 . S
C298 C299 1.373 . S
C298 C300 1.389 . S
C299 H278 0.950 . S
C299 C298 1.373 . S
C299 C315 1.377 . S
C300 C298 1.389 . S
C300 C301 1.524 . S
C300 C314 1.377 . S
C301 C300 1.524 . S
C301 C302 1.397 . S
C301 C306 1.363 . S
C302 H279 0.950 . S
C302 C301 1.397 . S
C302 C303 1.334 . S
C303 H280 0.950 . S
C303 C302 1.334 . S
C303 C304 1.287 . S
C304 C303 1.287 . S
C304 C305 1.524 . S
C304 H323 0.913 . S
C305 H281 0.950 . S
C305 C304 1.524 . S
C305 C306 1.415 . S
C306 H282 0.950 . S
C306 C301 1.363 . S
C306 C305 1.415 . S
C307 H283 0.951 . S
C307 C308 1.366 . S
C307 C309 1.388 . S
C308 C307 1.366 . S
C308 C312 1.385 . S
C309 H284 0.951 . S
C309 C307 1.388 . S
C309 C310 1.366 . S
C310 C309 1.366 . S
C310 C311 1.414 . S
C310 C313 1.499 . S
C311 H285 0.950 . S
C311 C310 1.414 . S
C311 C312 1.374 . S
C312 H286 0.950 . S
C312 C308 1.385 . S
C312 C311 1.374 . S
C313 C310 1.499 . S
C313 C314 1.373 . S
C313 C315 1.389 . S
C314 H287 0.950 . S
C314 C300 1.377 . S
C314 C313 1.373 . S
C315 C299 1.377 . S
C315 C313 1.389 . S
C315 C316 1.524 . S
C316 C315 1.524 . S
C316 C317 1.397 . S
C316 C321 1.363 . S
C317 H288 0.950 . S
C317 C316 1.397 . S
C317 C318 1.334 . S
C318 H289 0.950 . S
C318 C317 1.334 . S
C318 C319 1.287 . S
C319 C318 1.287 . S
C319 C320 1.524 . S
C319 H322 0.999 . S
C320 H290 0.950 . S
C320 C319 1.524 . S
C320 C321 1.415 . S
C321 H291 0.950 . S
C321 C316 1.363 . S
C321 C320 1.415 . S
H322 C319 0.999 . S
H323 C304 0.913 . S
H324 C342 0.951 . S
H325 C344 0.951 . S
H326 C346 0.950 . S
H327 C347 0.950 . S
H328 C349 0.950 . S
H329 C352 0.950 . S
H330 C353 0.950 . S
H331 C355 0.950 . S
H332 C356 0.950 . S
H333 C357 0.951 . S
H334 C359 0.951 . S
H335 C361 0.950 . S
H336 C362 0.950 . S
H337 C364 0.950 . S
H338 C367 0.950 . S
H339 C368 0.950 . S
H340 C370 0.950 . S
H341 C371 0.950 . S
C342 H324 0.951 . S
C342 C343 1.366 . S
C342 C344 1.388 . S
C343 C342 1.366 . S
C343 C347 1.385 . S
C344 H325 0.951 . S
C344 C342 1.388 . S
C344 C345 1.366 . S
C345 C344 1.366 . S
C345 C346 1.414 . S
C345 C348 1.499 . S
C346 H326 0.950 . S
C346 C345 1.414 . S
C346 C347 1.374 . S
C347 H327 0.950 . S
C347 C343 1.385 . S
C347 C346 1.374 . S
C348 C345 1.499 . S
C348 C349 1.373 . S
C348 C350 1.389 . S
C349 H328 0.950 . S
C349 C348 1.373 . S
C349 C365 1.377 . S
C350 C348 1.389 . S
C350 C351 1.524 . S
C350 C364 1.377 . S
C351 C350 1.524 . S
C351 C352 1.397 . S
C351 C356 1.363 . S
C352 H329 0.950 . S
C352 C351 1.397 . S
C352 C353 1.334 . S
C353 H330 0.950 . S
C353 C352 1.334 . S
C353 C354 1.287 . S
C354 C353 1.287 . S
C354 C355 1.524 . S
C354 H373 0.913 . S
C355 H331 0.950 . S
C355 C354 1.524 . S
C355 C356 1.415 . S
C356 H332 0.950 . S
C356 C351 1.363 . S
C356 C355 1.415 . S
C357 H333 0.951 . S
C357 C358 1.366 . S
C357 C359 1.388 . S
C358 C357 1.366 . S
C358 C362 1.385 . S
C359 H334 0.951 . S
C359 C357 1.388 . S
C359 C360 1.366 . S
C360 C359 1.366 . S
C360 C361 1.414 . S
C360 C363 1.499 . S
C361 H335 0.950 . S
C361 C360 1.414 . S
C361 C362 1.374 . S
C362 H336 0.950 . S
C362 C358 1.385 . S
C362 C361 1.374 . S
C363 C360 1.499 . S
C363 C364 1.373 . S
C363 C365 1.389 . S
C364 H337 0.950 . S
C364 C350 1.377 . S
C364 C363 1.373 . S
C365 C349 1.377 . S
C365 C363 1.389 . S
C365 C366 1.524 . S
C366 C365 1.524 . S
C366 C367 1.397 . S
C366 C371 1.363 . S
C367 H338 0.950 . S
C367 C366 1.397 . S
C367 C368 1.334 . S
C368 H339 0.950 . S
C368 C367 1.334 . S
C368 C369 1.287 . S
C369 C368 1.287 . S
C369 C370 1.524 . S
C369 H372 0.999 . S
C370 H340 0.950 . S
C370 C369 1.524 . S
C370 C371 1.415 . S
C371 H341 0.950 . S
C371 C366 1.363 . S
C371 C370 1.415 . S
H372 C369 0.999 . S
H373 C354 0.913 . S
H374 C392 0.951 . S
H375 C394 0.951 . S
H376 C396 0.950 . S
H377 C397 0.950 . S
H378 C399 0.950 . S
H379 C402 0.950 . S
H380 C403 0.950 . S
H381 C405 0.950 . S
H382 C406 0.950 . S
H383 C407 0.951 . S
H384 C409 0.951 . S
H385 C411 0.950 . S
H386 C412 0.950 . S
H387 C414 0.950 . S
H388 C417 0.950 . S
H389 C418 0.950 . S
H390 C420 0.950 . S
H391 C421 0.950 . S
C392 H374 0.951 . S
C392 C393 1.366 . S
C392 C394 1.388 . S
C393 C392 1.366 . S
C393 C397 1.385 . S
C394 H375 0.951 . S
C394 C392 1.388 . S
C394 C395 1.366 . S
C395 C394 1.366 . S
C395 C396 1.414 . S
C395 C398 1.499 . S
C396 H376 0.950 . S
C396 C395 1.414 . S
C396 C397 1.374 . S
C397 H377 0.950 . S
C397 C393 1.385 . S
C397 C396 1.374 . S
C398 C395 1.499 . S
C398 C399 1.373 . S
C398 C400 1.389 . S
C399 H378 0.950 . S
C399 C398 1.373 . S
C399 C415 1.377 . S
C400 C398 1.389 . S
C400 C401 1.524 . S
C400 C414 1.377 . S
C401 C400 1.524 . S
C401 C402 1.397 . S
C401 C406 1.363 . S
C402 H379 0.950 . S
C402 C401 1.397 . S
C402 C403 1.334 . S
C403 H380 0.950 . S
C403 C402 1.334 . S
C403 C404 1.287 . S
C404 C403 1.287 . S
C404 C405 1.524 . S
C404 H423 0.913 . S
C405 H381 0.950 . S
C405 C404 1.524 . S
C405 C406 1.415 . S
C406 H382 0.950 . S
C406 C401 1.363 . S
C406 C405 1.415 . S
C407 H383 0.951 . S
C407 C408 1.366 . S
C407 C409 1.388 . S
C408 C407 1.366 . S
C408 C412 1.385 . S
C409 H384 0.951 . S
C409 C407 1.388 . S
C409 C410 1.366 . S
C410 C409 1.366 . S
C410 C411 1.414 . S
C410 C413 1.499 . S
C411 H385 0.950 . S
C411 C410 1.414 . S
C411 C412 1.374 . S
C412 H386 0.950 . S
C412 C408 1.385 . S
C412 C411 1.374 . S
C413 C410 1.499 . S
C413 C414 1.373 . S
C413 C415 1.389 . S
C414 H387 0.950 . S
C414 C400 1.377 . S
C414 C413 1.373 . S
C415 C399 1.377 . S
C415 C413 1.389 . S
C415 C416 1.524 . S
C416 C415 1.524 . S
C416 C417 1.397 . S
C416 C421 1.363 . S
C417 H388 0.950 . S
C417 C416 1.397 . S
C417 C418 1.334 . S
C418 H389 0.950 . S
C418 C417 1.334 . S
C418 C419 1.287 . S
C419 C418 1.287 . S
C419 C420 1.524 . S
C419 H422 0.999 . S
C420 H390 0.950 . S
C420 C419 1.524 . S
C420 C421 1.415 . S
C421 H391 0.950 . S
C421 C416 1.363 . S
C421 C420 1.415 . S
H422 C419 0.999 . S
H423 C404 0.913 . S
H424 C442 0.951 . S
H425 C444 0.951 . S
H426 C446 0.950 . S
H427 C447 0.950 . S
H428 C449 0.950 . S
H429 C452 0.950 . S
H430 C453 0.950 . S
H431 C455 0.950 . S
H432 C456 0.950 . S
H433 C457 0.951 . S
H434 C459 0.951 . S
H435 C461 0.950 . S
H436 C462 0.950 . S
H437 C464 0.950 . S
H438 C467 0.950 . S
H439 C468 0.950 . S
H440 C470 0.950 . S
H441 C471 0.950 . S
C442 H424 0.951 . S
C442 C443 1.366 . S
C442 C444 1.388 . S
C443 C442 1.366 . S
C443 C447 1.385 . S
C444 H425 0.951 . S
C444 C442 1.388 . S
C444 C445 1.366 . S
C445 C444 1.366 . S
C445 C446 1.414 . S
C445 C448 1.499 . S
C446 H426 0.950 . S
C446 C445 1.414 . S
C446 C447 1.374 . S
C447 H427 0.950 . S
C447 C443 1.385 . S
C447 C446 1.374 . S
C448 C445 1.499 . S
C448 C449 1.373 . S
C448 C450 1.389 . S
C449 H428 0.950 . S
C449 C448 1.373 . S
C449 C465 1.377 . S
C450 C448 1.389 . S
C450 C451 1.524 . S
C450 C464 1.377 . S
C451 C450 1.524 . S
C451 C452 1.397 . S
C451 C456 1.363 . S
C452 H429 0.950 . S
C452 C451 1.397 . S
C452 C453 1.334 . S
C453 H430 0.950 . S
C453 C452 1.334 . S
C453 C454 1.287 . S
C454 C453 1.287 . S
C454 C455 1.524 . S
C454 H473 0.913 . S
C455 H431 0.950 . S
C455 C454 1.524 . S
C455 C456 1.415 . S
C456 H432 0.950 . S
C456 C451 1.363 . S
C456 C455 1.415 . S
C457 H433 0.951 . S
C457 C458 1.366 . S
C457 C459 1.388 . S
C458 C457 1.366 . S
C458 C462 1.385 . S
C459 H434 0.951 . S
C459 C457 1.388 . S
C459 C460 1.366 . S
C460 C459 1.366 . S
C460 C461 1.414 . S
C460 C463 1.499 . S
C461 H435 0.950 . S
C461 C460 1.414 . S
C461 C462 1.374 . S
C462 H436 0.950 . S
C462 C458 1.385 . S
C462 C461 1.374 . S
C463 C460 1.499 . S
C463 C464 1.373 . S
C463 C465 1.389 . S
C464 H437 0.950 . S
C464 C450 1.377 . S
C464 C463 1.373 . S
C465 C449 1.377 . S
C465 C463 1.389 . S
C465 C466 1.524 . S
C466 C465 1.524 . S
C466 C467 1.397 . S
C466 C471 1.363 . S
C467 H438 0.950 . S
C467 C466 1.397 . S
C467 C468 1.334 . S
C468 H439 0.950 . S
C468 C467 1.334 . S
C468 C469 1.287 . S
C469 C468 1.287 . S
C469 C470 1.524 . S
C469 H472 0.999 . S
C470 H440 0.950 . S
C470 C469 1.524 . S
C470 C471 1.415 . S
C471 H441 0.950 . S
C471 C466 1.363 . S
C471 C470 1.415 . S
H472 C469 0.999 . S
H473 C454 0.913 . S
H474 C492 0.951 . S
H475 C494 0.951 . S
H476 C496 0.950 . S
H477 C497 0.950 . S
H478 C499 0.950 . S
H479 C502 0.950 . S
H480 C503 0.950 . S
H481 C505 0.950 . S
H482 C506 0.950 . S
H483 C507 0.951 . S
H484 C509 0.951 . S
H485 C511 0.950 . S
H486 C512 0.950 . S
H487 C514 0.950 . S
H488 C517 0.950 . S
H489 C518 0.950 . S
H490 C520 0.950 . S
H491 C521 0.950 . S
C492 H474 0.951 . S
C492 C493 1.366 . S
C492 C494 1.388 . S
C493 C492 1.366 . S
C493 C497 1.385 . S
C494 H475 0.951 . S
C494 C492 1.388 . S
C494 C495 1.366 . S
C495 C494 1.366 . S
C495 C496 1.414 . S
C495 C498 1.499 . S
C496 H476 0.950 . S
C496 C495 1.414 . S
C496 C497 1.374 . S
C497 H477 0.950 . S
C497 C493 1.385 . S
C497 C496 1.374 . S
C498 C495 1.499 . S
C498 C499 1.373 . S
C498 C500 1.389 . S
C499 H478 0.950 . S
C499 C498 1.373 . S
C499 C515 1.377 . S
C500 C498 1.389 . S
C500 C501 1.524 . S
C500 C514 1.377 . S
C501 C500 1.524 . S
C501 C502 1.397 . S
C501 C506 1.363 . S
C502 H479 0.950 . S
C502 C501 1.397 . S
C502 C503 1.334 . S
C503 H480 0.950 . S
C503 C502 1.334 . S
C503 C504 1.287 . S
C504 C503 1.287 . S
C504 C505 1.524 . S
C504 H523 0.913 . S
C505 H481 0.950 . S
C505 C504 1.524 . S
C505 C506 1.415 . S
C506 H482 0.950 . S
C506 C501 1.363 . S
C506 C505 1.415 . S
C507 H483 0.951 . S
C507 C508 1.366 . S
C507 C509 1.388 . S
C508 C507 1.366 . S
C508 C512 1.385 . S
C509 H484 0.951 . S
C509 C507 1.388 . S
C509 C510 1.366 . S
C510 C509 1.366 . S
C510 C511 1.414 . S
C510 C513 1.499 . S
C511 H485 0.950 . S
C511 C510 1.414 . S
C511 C512 1.374 . S
C512 H486 0.950 . S
C512 C508 1.385 . S
C512 C511 1.374 . S
C513 C510 1.499 . S
C513 C514 1.373 . S
C513 C515 1.389 . S
C514 H487 0.950 . S
C514 C500 1.377 . S
C514 C513 1.373 . S
C515 C499 1.377 . S
C515 C513 1.389 . S
C515 C516 1.524 . S
C516 C515 1.524 . S
C516 C517 1.397 . S
C516 C521 1.363 . S
C517 H488 0.950 . S
C517 C516 1.397 . S
C517 C518 1.334 . S
C518 H489 0.950 . S
C518 C517 1.334 . S
C518 C519 1.287 . S
C519 C518 1.287 . S
C519 C520 1.524 . S
C519 H522 0.999 . S
C520 H490 0.950 . S
C520 C519 1.524 . S
C520 C521 1.415 . S
C521 H491 0.950 . S
C521 C516 1.363 . S
C521 C520 1.415 . S
H522 C519 0.999 . S
H523 C504 0.913 . S
H524 C542 0.951 . S
H525 C544 0.951 . S
H526 C546 0.950 . S
H527 C547 0.950 . S
H528 C549 0.950 . S
H529 C552 0.950 . S
H530 C553 0.950 . S
H531 C555 0.950 . S
H532 C556 0.950 . S
H533 C557 0.951 1_455 S
H534 C559 0.951 . S
H535 C561 0.950 . S
H536 C562 0.950 1_455 S
H537 C564 0.950 . S
H538 C567 0.950 . S
H539 C568 0.950 . S
H540 C570 0.950 . S
H541 C571 0.950 . S
C542 H524 0.951 . S
C542 C543 1.366 . S
C542 C544 1.388 . S
C543 C542 1.366 . S
C543 C547 1.385 . S
C544 H525 0.951 . S
C544 C542 1.388 . S
C544 C545 1.366 . S
C545 C544 1.366 . S
C545 C546 1.414 . S
C545 C548 1.499 . S
C546 H526 0.950 . S
C546 C545 1.414 . S
C546 C547 1.374 . S
C547 H527 0.950 . S
C547 C543 1.385 . S
C547 C546 1.374 . S
C548 C545 1.499 . S
C548 C549 1.373 . S
C548 C550 1.389 . S
C549 H528 0.950 . S
C549 C548 1.373 . S
C549 C565 1.377 . S
C550 C548 1.389 . S
C550 C551 1.524 . S
C550 C564 1.377 . S
C551 C550 1.524 . S
C551 C552 1.397 . S
C551 C556 1.363 . S
C552 H529 0.950 . S
C552 C551 1.397 . S
C552 C553 1.334 . S
C553 H530 0.950 . S
C553 C552 1.334 . S
C553 C554 1.287 . S
C554 C553 1.287 . S
C554 C555 1.524 . S
C554 H573 0.913 . S
C555 H531 0.950 . S
C555 C554 1.524 . S
C555 C556 1.415 . S
C556 H532 0.950 . S
C556 C551 1.363 . S
C556 C555 1.415 . S
C557 H533 0.951 1_655 S
C557 C558 1.366 1_655 S
C557 C559 1.388 . S
C558 C557 1.366 1_455 S
C558 C562 1.385 1_455 S
C559 H534 0.951 . S
C559 C557 1.388 . S
C559 C560 1.366 . S
C560 C559 1.366 . S
C560 C561 1.414 . S
C560 C563 1.499 . S
C561 H535 0.950 . S
C561 C560 1.414 . S
C561 C562 1.374 . S
C562 H536 0.950 1_655 S
C562 C558 1.385 1_655 S
C562 C561 1.374 . S
C563 C560 1.499 . S
C563 C564 1.373 . S
C563 C565 1.389 . S
C564 H537 0.950 . S
C564 C550 1.377 . S
C564 C563 1.373 . S
C565 C549 1.377 . S
C565 C563 1.389 . S
C565 C566 1.524 . S
C566 C565 1.524 . S
C566 C567 1.397 . S
C566 C571 1.363 . S
C567 H538 0.950 . S
C567 C566 1.397 . S
C567 C568 1.334 . S
C568 H539 0.950 . S
C568 C567 1.334 . S
C568 C569 1.287 . S
C569 C568 1.287 . S
C569 C570 1.524 . S
C569 H572 0.999 . S
C570 H540 0.950 . S
C570 C569 1.524 . S
C570 C571 1.415 . S
C571 H541 0.950 . S
C571 C566 1.363 . S
C571 C570 1.415 . S
H572 C569 0.999 . S
H573 C554 0.913 . S
H574 C592 0.951 . S
H575 C594 0.951 . S
H576 C596 0.950 . S
H577 C597 0.950 . S
H578 C599 0.950 . S
H579 C602 0.950 . S
H580 C603 0.950 . S
H581 C605 0.950 . S
H582 C606 0.950 . S
H583 C607 0.951 . S
H584 C609 0.951 . S
H585 C611 0.950 . S
H586 C612 0.950 1_545 S
H587 C614 0.950 . S
H588 C617 0.950 . S
H589 C618 0.950 . S
H590 C620 0.950 . S
H591 C621 0.950 . S
C592 H574 0.951 . S
C592 C593 1.366 . S
C592 C594 1.388 . S
C593 C592 1.366 . S
C593 C597 1.385 . S
C594 H575 0.951 . S
C594 C592 1.388 . S
C594 C595 1.366 . S
C595 C594 1.366 . S
C595 C596 1.414 . S
C595 C598 1.499 . S
C596 H576 0.950 . S
C596 C595 1.414 . S
C596 C597 1.374 . S
C597 H577 0.950 . S
C597 C593 1.385 . S
C597 C596 1.374 . S
C598 C595 1.499 . S
C598 C599 1.373 . S
C598 C600 1.389 . S
C599 H578 0.950 . S
C599 C598 1.373 . S
C599 C615 1.377 . S
C600 C598 1.389 . S
C600 C601 1.524 . S
C600 C614 1.377 . S
C601 C600 1.524 . S
C601 C602 1.397 . S
C601 C606 1.363 . S
C602 H579 0.950 . S
C602 C601 1.397 . S
C602 C603 1.334 . S
C603 H580 0.950 . S
C603 C602 1.334 . S
C603 C604 1.287 . S
C604 C603 1.287 . S
C604 C605 1.524 . S
C604 H623 0.913 . S
C605 H581 0.950 . S
C605 C604 1.524 . S
C605 C606 1.415 . S
C606 H582 0.950 . S
C606 C601 1.363 . S
C606 C605 1.415 . S
C607 H583 0.951 . S
C607 C608 1.366 . S
C607 C609 1.388 . S
C608 C607 1.366 . S
C608 C612 1.385 . S
C609 H584 0.951 . S
C609 C607 1.388 . S
C609 C610 1.366 . S
C610 C609 1.366 . S
C610 C611 1.414 . S
C610 C613 1.499 . S
C611 H585 0.950 . S
C611 C610 1.414 . S
C611 C612 1.374 . S
C612 H586 0.950 1_565 S
C612 C608 1.385 . S
C612 C611 1.374 . S
C613 C610 1.499 . S
C613 C614 1.373 . S
C613 C615 1.389 . S
C614 H587 0.950 . S
C614 C600 1.377 . S
C614 C613 1.373 . S
C615 C599 1.377 . S
C615 C613 1.389 . S
C615 C616 1.524 . S
C616 C615 1.524 . S
C616 C617 1.397 . S
C616 C621 1.363 . S
C617 H588 0.950 . S
C617 C616 1.397 . S
C617 C618 1.334 . S
C618 H589 0.950 . S
C618 C617 1.334 . S
C618 C619 1.287 . S
C619 C618 1.287 . S
C619 C620 1.524 . S
C619 H622 0.999 . S
C620 H590 0.950 . S
C620 C619 1.524 . S
C620 C621 1.415 . S
C621 H591 0.950 . S
C621 C616 1.363 . S
C621 C620 1.415 . S
H622 C619 0.999 . S
H623 C604 0.913 . S
H624 C642 0.951 . S
H625 C644 0.951 . S
H626 C646 0.950 . S
H627 C647 0.950 . S
H628 C649 0.950 . S
H629 C652 0.950 . S
H630 C653 0.950 . S
H631 C655 0.950 . S
H632 C656 0.950 . S
H633 C657 0.951 . S
H634 C659 0.951 . S
H635 C661 0.950 . S
H636 C662 0.950 . S
H637 C664 0.950 . S
H638 C667 0.950 . S
H639 C668 0.950 . S
H640 C670 0.950 . S
H641 C671 0.950 . S
C642 H624 0.951 . S
C642 C643 1.366 . S
C642 C644 1.388 . S
C643 C642 1.366 . S
C643 C647 1.385 . S
C644 H625 0.951 . S
C644 C642 1.388 . S
C644 C645 1.366 . S
C645 C644 1.366 . S
C645 C646 1.414 . S
C645 C648 1.499 . S
C646 H626 0.950 . S
C646 C645 1.414 . S
C646 C647 1.374 . S
C647 H627 0.950 . S
C647 C643 1.385 . S
C647 C646 1.374 . S
C648 C645 1.499 . S
C648 C649 1.373 . S
C648 C650 1.389 . S
C649 H628 0.950 . S
C649 C648 1.373 . S
C649 C665 1.377 . S
C650 C648 1.389 . S
C650 C651 1.524 . S
C650 C664 1.377 . S
C651 C650 1.524 . S
C651 C652 1.397 . S
C651 C656 1.363 . S
C652 H629 0.950 . S
C652 C651 1.397 . S
C652 C653 1.334 . S
C653 H630 0.950 . S
C653 C652 1.334 . S
C653 C654 1.287 . S
C654 C653 1.287 . S
C654 C655 1.524 . S
C654 H673 0.913 . S
C655 H631 0.950 . S
C655 C654 1.524 . S
C655 C656 1.415 . S
C656 H632 0.950 . S
C656 C651 1.363 . S
C656 C655 1.415 . S
C657 H633 0.951 . S
C657 C658 1.366 . S
C657 C659 1.388 . S
C658 C657 1.366 . S
C658 C662 1.385 . S
C659 H634 0.951 . S
C659 C657 1.388 . S
C659 C660 1.366 . S
C660 C659 1.366 . S
C660 C661 1.414 . S
C660 C663 1.499 . S
C661 H635 0.950 . S
C661 C660 1.414 . S
C661 C662 1.374 . S
C662 H636 0.950 . S
C662 C658 1.385 . S
C662 C661 1.374 . S
C663 C660 1.499 . S
C663 C664 1.373 . S
C663 C665 1.389 . S
C664 H637 0.950 . S
C664 C650 1.377 . S
C664 C663 1.373 . S
C665 C649 1.377 . S
C665 C663 1.389 . S
C665 C666 1.524 . S
C666 C665 1.524 . S
C666 C667 1.397 . S
C666 C671 1.363 . S
C667 H638 0.950 . S
C667 C666 1.397 . S
C667 C668 1.334 . S
C668 H639 0.950 . S
C668 C667 1.334 . S
C668 C669 1.287 . S
C669 C668 1.287 . S
C669 C670 1.524 . S
C669 H672 0.999 . S
C670 H640 0.950 . S
C670 C669 1.524 . S
C670 C671 1.415 . S
C671 H641 0.950 . S
C671 C666 1.363 . S
C671 C670 1.415 . S
H672 C669 0.999 . S
H673 C654 0.913 . S
H674 C692 0.951 . S
H675 C694 0.951 . S
H676 C696 0.950 . S
H677 C697 0.950 . S
H678 C699 0.950 . S
H679 C702 0.950 . S
H680 C703 0.950 . S
H681 C705 0.950 . S
H682 C706 0.950 . S
H683 C707 0.951 . S
H684 C709 0.951 . S
H685 C711 0.950 . S
H686 C712 0.950 . S
H687 C714 0.950 . S
H688 C717 0.950 . S
H689 C718 0.950 . S
H690 C720 0.950 . S
H691 C721 0.950 . S
C692 H674 0.951 . S
C692 C693 1.366 . S
C692 C694 1.388 . S
C693 C692 1.366 . S
C693 C697 1.385 . S
C694 H675 0.951 . S
C694 C692 1.388 . S
C694 C695 1.366 . S
C695 C694 1.366 . S
C695 C696 1.414 . S
C695 C698 1.499 . S
C696 H676 0.950 . S
C696 C695 1.414 . S
C696 C697 1.374 . S
C697 H677 0.950 . S
C697 C693 1.385 . S
C697 C696 1.374 . S
C698 C695 1.499 . S
C698 C699 1.373 . S
C698 C700 1.389 . S
C699 H678 0.950 . S
C699 C698 1.373 . S
C699 C715 1.377 . S
C700 C698 1.389 . S
C700 C701 1.524 . S
C700 C714 1.377 . S
C701 C700 1.524 . S
C701 C702 1.397 . S
C701 C706 1.363 . S
C702 H679 0.950 . S
C702 C701 1.397 . S
C702 C703 1.334 . S
C703 H680 0.950 . S
C703 C702 1.334 . S
C703 C704 1.287 . S
C704 C703 1.287 . S
C704 C705 1.524 . S
C704 H723 0.913 . S
C705 H681 0.950 . S
C705 C704 1.524 . S
C705 C706 1.415 . S
C706 H682 0.950 . S
C706 C701 1.363 . S
C706 C705 1.415 . S
C707 H683 0.951 . S
C707 C708 1.366 . S
C707 C709 1.388 . S
C708 C707 1.366 . S
C708 C712 1.385 . S
C709 H684 0.951 . S
C709 C707 1.388 . S
C709 C710 1.366 . S
C710 C709 1.366 . S
C710 C711 1.414 . S
C710 C713 1.499 . S
C711 H685 0.950 . S
C711 C710 1.414 . S
C711 C712 1.374 . S
C712 H686 0.950 . S
C712 C708 1.385 . S
C712 C711 1.374 . S
C713 C710 1.499 . S
C713 C714 1.373 . S
C713 C715 1.389 . S
C714 H687 0.950 . S
C714 C700 1.377 . S
C714 C713 1.373 . S
C715 C699 1.377 . S
C715 C713 1.389 . S
C715 C716 1.524 . S
C716 C715 1.524 . S
C716 C717 1.397 . S
C716 C721 1.363 . S
C717 H688 0.950 . S
C717 C716 1.397 . S
C717 C718 1.334 . S
C718 H689 0.950 . S
C718 C717 1.334 . S
C718 C719 1.287 . S
C719 C718 1.287 . S
C719 C720 1.524 . S
C719 H722 0.999 . S
C720 H690 0.950 . S
C720 C719 1.524 . S
C720 C721 1.415 . S
C721 H691 0.950 . S
C721 C716 1.363 . S
C721 C720 1.415 . S
H722 C719 0.999 . S
H723 C704 0.913 . S
H724 C742 0.951 . S
H725 C744 0.951 . S
H726 C746 0.950 . S
H727 C747 0.950 . S
H728 C749 0.950 . S
H729 C752 0.950 . S
H730 C753 0.950 . S
H731 C755 0.950 . S
H732 C756 0.950 . S
H733 C757 0.951 . S
H734 C759 0.951 . S
H735 C761 0.950 . S
H736 C762 0.950 . S
H737 C764 0.950 . S
H738 C767 0.950 . S
H739 C768 0.950 . S
H740 C770 0.950 . S
H741 C771 0.950 . S
C742 H724 0.951 . S
C742 C743 1.366 . S
C742 C744 1.388 . S
C743 C742 1.366 . S
C743 C747 1.385 . S
C744 H725 0.951 . S
C744 C742 1.388 . S
C744 C745 1.366 . S
C745 C744 1.366 . S
C745 C746 1.414 . S
C745 C748 1.499 . S
C746 H726 0.950 . S
C746 C745 1.414 . S
C746 C747 1.374 . S
C747 H727 0.950 . S
C747 C743 1.385 . S
C747 C746 1.374 . S
C748 C745 1.499 . S
C748 C749 1.373 . S
C748 C750 1.389 . S
C749 H728 0.950 . S
C749 C748 1.373 . S
C749 C765 1.377 . S
C750 C748 1.389 . S
C750 C751 1.524 . S
C750 C764 1.377 . S
C751 C750 1.524 . S
C751 C752 1.397 . S
C751 C756 1.363 . S
C752 H729 0.950 . S
C752 C751 1.397 . S
C752 C753 1.334 . S
C753 H730 0.950 . S
C753 C752 1.334 . S
C753 C754 1.287 . S
C754 C753 1.287 . S
C754 C755 1.524 . S
C754 H773 0.913 . S
C755 H731 0.950 . S
C755 C754 1.524 . S
C755 C756 1.415 . S
C756 H732 0.950 . S
C756 C751 1.363 . S
C756 C755 1.415 . S
C757 H733 0.951 . S
C757 C758 1.366 . S
C757 C759 1.388 . S
C758 C757 1.366 . S
C758 C762 1.385 . S
C759 H734 0.951 . S
C759 C757 1.388 . S
C759 C760 1.366 . S
C760 C759 1.366 . S
C760 C761 1.414 . S
C760 C763 1.499 . S
C761 H735 0.950 . S
C761 C760 1.414 . S
C761 C762 1.374 . S
C762 H736 0.950 . S
C762 C758 1.385 . S
C762 C761 1.374 . S
C763 C760 1.499 . S
C763 C764 1.373 . S
C763 C765 1.389 . S
C764 H737 0.950 . S
C764 C750 1.377 . S
C764 C763 1.373 . S
C765 C749 1.377 . S
C765 C763 1.389 . S
C765 C766 1.524 . S
C766 C765 1.524 . S
C766 C767 1.397 . S
C766 C771 1.363 . S
C767 H738 0.950 . S
C767 C766 1.397 . S
C767 C768 1.334 . S
C768 H739 0.950 . S
C768 C767 1.334 . S
C768 C769 1.287 . S
C769 C768 1.287 . S
C769 C770 1.524 . S
C769 H772 0.999 . S
C770 H740 0.950 . S
C770 C769 1.524 . S
C770 C771 1.415 . S
C771 H741 0.950 . S
C771 C766 1.363 . S
C771 C770 1.415 . S
H772 C769 0.999 . S
H773 C754 0.913 . S
H774 C792 0.951 . S
H775 C794 0.951 . S
H776 C796 0.950 . S
H777 C797 0.950 . S
H778 C799 0.950 . S
H779 C802 0.950 . S
H780 C803 0.950 . S
H781 C805 0.950 . S
H782 C806 0.950 . S
H783 C807 0.951 . S
H784 C809 0.951 . S
H785 C811 0.950 . S
H786 C812 0.950 . S
H787 C814 0.948 . S
H788 C817 0.950 . S
H789 C818 0.950 . S
H790 C820 0.950 . S
H791 C821 0.950 . S
C792 H774 0.951 . S
C792 C793 1.366 . S
C792 C794 1.388 . S
C793 C792 1.366 . S
C793 C797 1.385 . S
C794 H775 0.951 . S
C794 C792 1.388 . S
C794 C795 1.366 . S
C795 C794 1.366 . S
C795 C796 1.414 . S
C795 C798 1.499 . S
C796 H776 0.950 . S
C796 C795 1.414 . S
C796 C797 1.374 . S
C797 H777 0.950 . S
C797 C793 1.385 . S
C797 C796 1.374 . S
C798 C795 1.499 . S
C798 C799 1.373 . S
C798 C800 1.389 . S
C799 H778 0.950 . S
C799 C798 1.373 . S
C799 C815 1.377 1_554 S
C800 C798 1.389 . S
C800 C801 1.524 . S
C800 C814 1.381 1_554 S
C801 C800 1.524 . S
C801 C802 1.397 . S
C801 C806 1.363 . S
C802 H779 0.950 . S
C802 C801 1.397 . S
C802 C803 1.334 . S
C803 H780 0.950 . S
C803 C802 1.334 . S
C803 C804 1.287 . S
C804 C803 1.287 . S
C804 C805 1.524 . S
C804 H823 0.913 . S
C805 H781 0.950 . S
C805 C804 1.524 . S
C805 C806 1.415 . S
C806 H782 0.950 . S
C806 C801 1.363 . S
C806 C805 1.415 . S
C807 H783 0.951 . S
C807 C808 1.366 . S
C807 C809 1.388 . S
C808 C807 1.366 . S
C808 C812 1.385 . S
C809 H784 0.951 . S
C809 C807 1.388 . S
C809 C810 1.366 . S
C810 C809 1.366 . S
C810 C811 1.414 . S
C810 C813 1.499 . S
C811 H785 0.950 . S
C811 C810 1.414 . S
C811 C812 1.374 . S
C812 H786 0.950 . S
C812 C808 1.385 . S
C812 C811 1.374 . S
C813 C810 1.499 . S
C813 C814 1.371 . S
C813 C815 1.389 . S
C814 H787 0.948 . S
C814 C800 1.381 1_556 S
C814 C813 1.371 . S
C815 C799 1.377 1_556 S
C815 C813 1.389 . S
C815 C816 1.524 . S
C816 C815 1.524 . S
C816 C817 1.397 . S
C816 C821 1.363 1_455 S
C817 H788 0.950 . S
C817 C816 1.397 . S
C817 C818 1.334 1_455 S
C818 H789 0.950 . S
C818 C817 1.334 1_655 S
C818 C819 1.287 . S
C819 C818 1.287 . S
C819 C820 1.524 . S
C819 H822 0.999 . S
C820 H790 0.950 . S
C820 C819 1.524 . S
C820 C821 1.415 . S
C821 H791 0.950 . S
C821 C816 1.363 1_655 S
C821 C820 1.415 . S
H822 C819 0.999 . S
H823 C804 0.913 . S
H824 C842 0.951 . S
H825 C844 0.951 . S
H826 C846 0.950 . S
H827 C847 0.950 . S
H828 C849 0.950 . S
H829 C852 0.950 . S
H830 C853 0.950 . S
H831 C855 0.950 . S
H832 C856 0.950 . S
H833 C857 0.951 . S
H834 C859 0.951 . S
H835 C861 0.950 . S
H836 C862 0.950 . S
H837 C864 0.950 . S
H838 C867 0.950 . S
H839 C868 0.950 . S
H840 C870 0.950 . S
H841 C871 0.950 . S
C842 H824 0.951 . S
C842 C843 1.366 . S
C842 C844 1.388 . S
C843 C842 1.366 . S
C843 C847 1.385 . S
C844 H825 0.951 . S
C844 C842 1.388 . S
C844 C845 1.366 . S
C845 C844 1.366 . S
C845 C846 1.414 . S
C845 C848 1.499 . S
C846 H826 0.950 . S
C846 C845 1.414 . S
C846 C847 1.374 . S
C847 H827 0.950 . S
C847 C843 1.385 . S
C847 C846 1.374 . S
C848 C845 1.499 . S
C848 C849 1.373 . S
C848 C850 1.389 . S
C849 H828 0.950 . S
C849 C848 1.373 . S
C849 C865 1.377 . S
C850 C848 1.389 . S
C850 C851 1.524 . S
C850 C864 1.377 . S
C851 C850 1.524 . S
C851 C852 1.397 . S
C851 C856 1.363 1_545 S
C852 H829 0.950 . S
C852 C851 1.397 . S
C852 C853 1.334 1_545 S
C853 H830 0.950 . S
C853 C852 1.334 1_565 S
C853 C854 1.287 . S
C854 C853 1.287 . S
C854 C855 1.524 . S
C854 H873 0.913 . S
C855 H831 0.950 . S
C855 C854 1.524 . S
C855 C856 1.415 . S
C856 H832 0.950 . S
C856 C851 1.363 1_565 S
C856 C855 1.415 . S
C857 H833 0.951 . S
C857 C858 1.366 . S
C857 C859 1.388 . S
C858 C857 1.366 . S
C858 C862 1.385 . S
C859 H834 0.951 . S
C859 C857 1.388 . S
C859 C860 1.366 . S
C860 C859 1.366 . S
C860 C861 1.414 . S
C860 C863 1.499 . S
C861 H835 0.950 . S
C861 C860 1.414 . S
C861 C862 1.374 . S
C862 H836 0.950 . S
C862 C858 1.385 . S
C862 C861 1.374 . S
C863 C860 1.499 . S
C863 C864 1.373 . S
C863 C865 1.389 . S
C864 H837 0.950 . S
C864 C850 1.377 . S
C864 C863 1.373 . S
C865 C849 1.377 . S
C865 C863 1.389 . S
C865 C866 1.524 . S
C866 C865 1.524 . S
C866 C867 1.397 . S
C866 C871 1.363 . S
C867 H838 0.950 . S
C867 C866 1.397 . S
C867 C868 1.334 . S
C868 H839 0.950 . S
C868 C867 1.334 . S
C868 C869 1.287 . S
C869 C868 1.287 . S
C869 C870 1.524 . S
C869 H872 0.999 . S
C870 H840 0.950 . S
C870 C869 1.524 . S
C870 C871 1.415 . S
C871 H841 0.950 . S
C871 C866 1.363 . S
C871 C870 1.415 . S
H872 C869 0.999 . S
H873 C854 0.913 . S
H874 C892 0.951 . S
H875 C894 0.951 . S
H876 C896 0.950 . S
H877 C897 0.950 . S
H878 C899 0.950 . S
H879 C902 0.950 . S
H880 C903 0.950 . S
H881 C905 0.950 . S
H882 C906 0.950 . S
H883 C907 0.951 . S
H884 C909 0.951 . S
H885 C911 0.950 . S
H886 C912 0.950 . S
H887 C914 0.950 . S
H888 C917 0.950 . S
H889 C918 0.950 . S
H890 C920 0.950 . S
H891 C921 0.950 . S
C892 H874 0.951 . S
C892 C893 1.366 . S
C892 C894 1.388 . S
C893 C892 1.366 . S
C893 C897 1.385 . S
C894 H875 0.951 . S
C894 C892 1.388 . S
C894 C895 1.366 . S
C895 C894 1.366 . S
C895 C896 1.414 . S
C895 C898 1.499 . S
C896 H876 0.950 . S
C896 C895 1.414 . S
C896 C897 1.374 . S
C897 H877 0.950 . S
C897 C893 1.385 . S
C897 C896 1.374 . S
C898 C895 1.499 . S
C898 C899 1.373 . S
C898 C900 1.389 . S
C899 H878 0.950 . S
C899 C898 1.373 . S
C899 C915 1.377 . S
C900 C898 1.389 . S
C900 C901 1.524 . S
C900 C914 1.377 . S
C901 C900 1.524 . S
C901 C902 1.397 . S
C901 C906 1.363 . S
C902 H879 0.950 . S
C902 C901 1.397 . S
C902 C903 1.334 . S
C903 H880 0.950 . S
C903 C902 1.334 . S
C903 C904 1.287 . S
C904 C903 1.287 . S
C904 C905 1.524 . S
C904 H923 0.913 . S
C905 H881 0.950 . S
C905 C904 1.524 . S
C905 C906 1.415 . S
C906 H882 0.950 . S
C906 C901 1.363 . S
C906 C905 1.415 . S
C907 H883 0.951 . S
C907 C908 1.366 . S
C907 C909 1.388 . S
C908 C907 1.366 . S
C908 C912 1.385 . S
C909 H884 0.951 . S
C909 C907 1.388 . S
C909 C910 1.366 . S
C910 C909 1.366 . S
C910 C911 1.414 . S
C910 C913 1.499 . S
C911 H885 0.950 . S
C911 C910 1.414 . S
C911 C912 1.374 . S
C912 H886 0.950 . S
C912 C908 1.385 . S
C912 C911 1.374 . S
C913 C910 1.499 . S
C913 C914 1.373 . S
C913 C915 1.389 . S
C914 H887 0.950 . S
C914 C900 1.377 . S
C914 C913 1.373 . S
C915 C899 1.377 . S
C915 C913 1.389 . S
C915 C916 1.524 . S
C916 C915 1.524 . S
C916 C917 1.397 . S
C916 C921 1.363 . S
C917 H888 0.950 . S
C917 C916 1.397 . S
C917 C918 1.334 . S
C918 H889 0.950 . S
C918 C917 1.334 . S
C918 C919 1.287 . S
C919 C918 1.287 . S
C919 C920 1.524 . S
C919 H922 0.999 . S
C920 H890 0.950 . S
C920 C919 1.524 . S
C920 C921 1.415 . S
C921 H891 0.950 . S
C921 C916 1.363 . S
C921 C920 1.415 . S
H922 C919 0.999 . S
H923 C904 0.913 . S
H924 C942 0.951 . S
H925 C944 0.951 . S
H926 C946 0.950 . S
H927 C947 0.950 . S
H928 C949 0.950 . S
H929 C952 0.950 . S
H930 C953 0.950 . S
H931 C955 0.950 . S
H932 C956 0.950 . S
H933 C957 0.951 . S
H934 C959 0.951 . S
H935 C961 0.950 . S
H936 C962 0.950 . S
H937 C964 0.950 . S
H938 C967 0.950 1_545 S
H939 C968 0.950 . S
H940 C970 0.950 . S
H941 C971 0.950 . S
C942 H924 0.951 . S
C942 C943 1.366 . S
C942 C944 1.388 . S
C943 C942 1.366 . S
C943 C947 1.385 . S
C944 H925 0.951 . S
C944 C942 1.388 . S
C944 C945 1.366 . S
C945 C944 1.366 . S
C945 C946 1.414 . S
C945 C948 1.499 . S
C946 H926 0.950 . S
C946 C945 1.414 . S
C946 C947 1.374 . S
C947 H927 0.950 . S
C947 C943 1.385 . S
C947 C946 1.374 . S
C948 C945 1.499 . S
C948 C949 1.373 . S
C948 C950 1.389 . S
C949 H928 0.950 . S
C949 C948 1.373 . S
C949 C965 1.377 . S
C950 C948 1.389 . S
C950 C951 1.524 . S
C950 C964 1.377 . S
C951 C950 1.524 . S
C951 C952 1.397 . S
C951 C956 1.363 . S
C952 H929 0.950 . S
C952 C951 1.397 . S
C952 C953 1.334 . S
C953 H930 0.950 . S
C953 C952 1.334 . S
C953 C954 1.287 . S
C954 C953 1.287 . S
C954 C955 1.524 . S
C954 H973 0.913 . S
C955 H931 0.950 . S
C955 C954 1.524 . S
C955 C956 1.415 . S
C956 H932 0.950 . S
C956 C951 1.363 . S
C956 C955 1.415 . S
C957 H933 0.951 . S
C957 C958 1.366 . S
C957 C959 1.388 . S
C958 C957 1.366 . S
C958 C962 1.385 . S
C959 H934 0.951 . S
C959 C957 1.388 . S
C959 C960 1.366 . S
C960 C959 1.366 . S
C960 C961 1.414 . S
C960 C963 1.499 . S
C961 H935 0.950 . S
C961 C960 1.414 . S
C961 C962 1.374 . S
C962 H936 0.950 . S
C962 C958 1.385 . S
C962 C961 1.374 . S
C963 C960 1.499 . S
C963 C964 1.373 . S
C963 C965 1.389 . S
C964 H937 0.950 . S
C964 C950 1.377 . S
C964 C963 1.373 . S
C965 C949 1.377 . S
C965 C963 1.389 . S
C965 C966 1.524 1_545 S
C966 C965 1.524 1_565 S
C966 C967 1.397 . S
C966 C971 1.363 . S
C967 H938 0.950 1_565 S
C967 C966 1.397 . S
C967 C968 1.334 . S
C968 H939 0.950 . S
C968 C967 1.334 . S
C968 C969 1.287 . S
C969 C968 1.287 . S
C969 C970 1.524 . S
C969 H972 0.999 . S
C970 H940 0.950 . S
C970 C969 1.524 . S
C970 C971 1.415 . S
C971 H941 0.950 . S
C971 C966 1.363 . S
C971 C970 1.415 . S
H972 C969 0.999 . S
H973 C954 0.913 . S
H974 C992 0.951 . S
H975 C994 0.951 . S
H976 C996 0.950 . S
H977 C997 0.950 . S
H978 C999 0.950 . S
H979 C1002 0.950 . S
H980 C1003 0.950 . S
H981 C1005 0.950 1_554 S
H982 C1006 0.950 1_554 S
H983 C1007 0.951 . S
H984 C1009 0.951 . S
H985 C1011 0.950 . S
H986 C1012 0.950 . S
H987 C1014 0.950 . S
H988 C1017 0.950 . S
H989 C1018 0.950 . S
H990 C1020 0.950 . S
H991 C1021 0.950 . S
C992 H974 0.951 . S
C992 C993 1.366 . S
C992 C994 1.388 . S
C993 C992 1.366 . S
C993 C997 1.385 . S
C994 H975 0.951 . S
C994 C992 1.388 . S
C994 C995 1.366 . S
C995 C994 1.366 . S
C995 C996 1.414 . S
C995 C998 1.499 . S
C996 H976 0.950 . S
C996 C995 1.414 . S
C996 C997 1.374 . S
C997 H977 0.950 . S
C997 C993 1.385 . S
C997 C996 1.374 . S
C998 C995 1.499 . S
C998 C999 1.373 . S
C998 C1000 1.389 . S
C999 H978 0.950 . S
C999 C998 1.373 . S
C999 C1015 1.377 . S
C1000 C998 1.389 . S
C1000 C1001 1.524 . S
C1000 C1014 1.377 1_556 S
C1001 C1000 1.524 . S
C1001 C1002 1.397 . S
C1001 C1006 1.363 . S
C1002 H979 0.950 . S
C1002 C1001 1.397 . S
C1002 C1003 1.334 . S
C1003 H980 0.950 . S
C1003 C1002 1.334 . S
C1003 C1004 1.287 . S
C1004 C1003 1.287 . S
C1004 C1005 1.524 . S
C1004 H1023 0.913 . S
C1005 H981 0.950 1_556 S
C1005 C1004 1.524 . S
C1005 C1006 1.415 . S
C1006 H982 0.950 1_556 S
C1006 C1001 1.363 . S
C1006 C1005 1.415 . S
C1007 H983 0.951 . S
C1007 C1008 1.366 . S
C1007 C1009 1.388 . S
C1008 C1007 1.366 . S
C1008 C1012 1.385 . S
C1009 H984 0.951 . S
C1009 C1007 1.388 . S
C1009 C1010 1.366 . S
C1010 C1009 1.366 . S
C1010 C1011 1.414 . S
C1010 C1013 1.499 . S
C1011 H985 0.950 . S
C1011 C1010 1.414 . S
C1011 C1012 1.374 . S
C1012 H986 0.950 . S
C1012 C1008 1.385 . S
C1012 C1011 1.374 . S
C1013 C1010 1.499 . S
C1013 C1014 1.373 . S
C1013 C1015 1.389 1_554 S
C1014 H987 0.950 . S
C1014 C1000 1.377 1_554 S
C1014 C1013 1.373 . S
C1015 C999 1.377 . S
C1015 C1013 1.389 1_556 S
C1015 C1016 1.524 . S
C1016 C1015 1.524 . S
C1016 C1017 1.397 1_556 S
C1016 C1021 1.363 . S
C1017 H988 0.950 . S
C1017 C1016 1.397 1_554 S
C1017 C1018 1.334 . S
C1018 H989 0.950 . S
C1018 C1017 1.334 . S
C1018 C1019 1.287 . S
C1019 C1018 1.287 . S
C1019 C1020 1.524 1_554 S
C1019 H1022 0.999 . S
C1020 H990 0.950 . S
C1020 C1019 1.524 1_556 S
C1020 C1021 1.415 . S
C1021 H991 0.950 . S
C1021 C1016 1.363 . S
C1021 C1020 1.415 . S
H1022 C1019 0.999 . S
H1023 C1004 0.913 . S
H1024 C1042 0.951 . S
H1025 C1044 0.951 . S
H1026 C1046 0.950 . S
H1027 C1047 0.950 . S
H1028 C1049 0.950 . S
H1029 C1052 0.950 . S
H1030 C1053 0.950 . S
H1031 C1055 0.950 . S
H1032 C1056 0.950 1_455 S
H1033 C1057 0.951 . S
H1034 C1059 0.951 . S
H1035 C1061 0.950 . S
H1036 C1062 0.950 . S
H1037 C1064 0.950 1_655 S
H1038 C1067 0.950 . S
H1039 C1068 0.950 . S
H1040 C1070 0.950 . S
H1041 C1071 0.950 . S
C1042 H1024 0.951 . S
C1042 C1043 1.366 . S
C1042 C1044 1.388 . S
C1043 C1042 1.366 . S
C1043 C1047 1.385 . S
C1044 H1025 0.951 . S
C1044 C1042 1.388 . S
C1044 C1045 1.366 . S
C1045 C1044 1.366 . S
C1045 C1046 1.414 . S
C1045 C1048 1.499 . S
C1046 H1026 0.950 . S
C1046 C1045 1.414 . S
C1046 C1047 1.374 . S
C1047 H1027 0.950 . S
C1047 C1043 1.385 . S
C1047 C1046 1.374 . S
C1048 C1045 1.499 . S
C1048 C1049 1.373 . S
C1048 C1050 1.389 . S
C1049 H1028 0.950 . S
C1049 C1048 1.373 . S
C1049 C1065 1.377 . S
C1050 C1048 1.389 . S
C1050 C1051 1.524 1_455 S
C1050 C1064 1.377 . S
C1051 C1050 1.524 1_655 S
C1051 C1052 1.397 . S
C1051 C1056 1.363 . S
C1052 H1029 0.950 . S
C1052 C1051 1.397 . S
C1052 C1053 1.334 . S
C1053 H1030 0.950 . S
C1053 C1052 1.334 . S
C1053 C1054 1.287 . S
C1054 C1053 1.287 . S
C1054 C1055 1.524 . S
C1054 H1073 0.913 . S
C1055 H1031 0.950 . S
C1055 C1054 1.524 . S
C1055 C1056 1.415 . S
C1056 H1032 0.950 1_655 S
C1056 C1051 1.363 . S
C1056 C1055 1.415 . S
C1057 H1033 0.951 . S
C1057 C1058 1.366 . S
C1057 C1059 1.388 . S
C1058 C1057 1.366 . S
C1058 C1062 1.385 . S
C1059 H1034 0.951 . S
C1059 C1057 1.388 . S
C1059 C1060 1.366 . S
C1060 C1059 1.366 . S
C1060 C1061 1.414 . S
C1060 C1063 1.499 . S
C1061 H1035 0.950 . S
C1061 C1060 1.414 . S
C1061 C1062 1.374 . S
C1062 H1036 0.950 . S
C1062 C1058 1.385 . S
C1062 C1061 1.374 . S
C1063 C1060 1.499 . S
C1063 C1064 1.373 . S
C1063 C1065 1.389 . S
C1064 H1037 0.950 1_455 S
C1064 C1050 1.377 . S
C1064 C1063 1.373 . S
C1065 C1049 1.377 . S
C1065 C1063 1.389 . S
C1065 C1066 1.524 . S
C1066 C1065 1.524 . S
C1066 C1067 1.397 . S
C1066 C1071 1.363 . S
C1067 H1038 0.950 . S
C1067 C1066 1.397 . S
C1067 C1068 1.334 . S
C1068 H1039 0.950 . S
C1068 C1067 1.334 . S
C1068 C1069 1.287 . S
C1069 C1068 1.287 . S
C1069 C1070 1.524 . S
C1069 H1072 0.999 . S
C1070 H1040 0.950 . S
C1070 C1069 1.524 . S
C1070 C1071 1.415 . S
C1071 H1041 0.950 . S
C1071 C1066 1.363 . S
C1071 C1070 1.415 . S
H1072 C1069 0.999 . S
H1073 C1054 0.913 . S
C193 C8 2.155 . S
C208 C166 2.171 . S
C243 C26 1.421 . S
C258 C128 1.389 . S
C293 C48 1.602 . S
C308 C147 1.605 . S
C343 C19 1.651 . S
C358 C161 1.679 . S
C408 C123 1.350 . S
C393 C36 1.349 . S
C458 C142 1.538 . S
C443 C59 1.493 . S
C493 C28 1.619 1_565 S
C508 C90 1.624 . S
C543 C46 1.113 . S
C558 C104 1.113 . S
C593 C16 1.358 . S
C608 C66 1.354 1_565 S
C658 C85 1.523 . S
C643 C39 1.492 . S
C708 C109 1.054 . S
C693 C56 1.070 . S
C743 C6 1.435 . S
C758 C71 1.400 . S
C808 C100 1.495 . S
C793 C9 1.500 . S
C843 C21 1.574 . S
C858 C62 1.577 . S
C893 C49 1.568 . S
C908 C81 1.549 . S
C958 C138 1.544 . S
C943 C29 1.563 . S
C1008 C157 1.652 . S
C993 C41 1.622 . S
C1043 C1 1.534 . S
C1058 C119 1.533 . S
