# Generated by pormake.
# Topology zzz, (3,6)-cn, num edge types: 1
# Building blocks:
#     Node 0, Type 0, BuildingBlock: CUQRIR_clean_linker_1, # of connection points: 3
#     Node 1, Type 0, BuildingBlock: CUQRIR_clean_linker_1, # of connection points: 3
#     Node 2, Type 0, BuildingBlock: CUQRIR_clean_linker_1, # of connection points: 3
#     Node 3, Type 0, BuildingBlock: CUQRIR_clean_linker_1, # of connection points: 3
#     Node 4, Type 0, BuildingBlock: CUQRIR_clean_linker_1, # of connection points: 3
#     Node 5, Type 0, BuildingBlock: CUQRIR_clean_linker_1, # of connection points: 3
#     Node 6, Type 0, BuildingBlock: CUQRIR_clean_linker_1, # of connection points: 3
#     Node 7, Type 0, BuildingBlock: CUQRIR_clean_linker_1, # of connection points: 3
#     Node 8, Type 1, BuildingBlock: CUWYAW_clean_sbu_0, # of connection points: 6
#     Node 9, Type 1, BuildingBlock: CUWYAW_clean_sbu_0, # of connection points: 6
#     Node 10, Type 1, BuildingBlock: CUWYAW_clean_sbu_0, # of connection points: 6
#     Node 11, Type 1, BuildingBlock: CUWYAW_clean_sbu_0, # of connection points: 6
#     Edge 12, Type (0, 1), BuildingBlock: ZUJKAS_clean_linker_0, # of connection points: 2
#     Edge 13, Type (0, 1), BuildingBlock: ZUJKAS_clean_linker_0, # of connection points: 2
#     Edge 14, Type (0, 1), BuildingBlock: ZUJKAS_clean_linker_0, # of connection points: 2
#     Edge 15, Type (0, 1), BuildingBlock: ZUJKAS_clean_linker_0, # of connection points: 2
#     Edge 16, Type (0, 1), BuildingBlock: ZUJKAS_clean_linker_0, # of connection points: 2
#     Edge 17, Type (0, 1), BuildingBlock: ZUJKAS_clean_linker_0, # of connection points: 2
#     Edge 18, Type (0, 1), BuildingBlock: ZUJKAS_clean_linker_0, # of connection points: 2
#     Edge 19, Type (0, 1), BuildingBlock: ZUJKAS_clean_linker_0, # of connection points: 2
#     Edge 20, Type (0, 1), BuildingBlock: ZUJKAS_clean_linker_0, # of connection points: 2
#     Edge 21, Type (0, 1), BuildingBlock: ZUJKAS_clean_linker_0, # of connection points: 2
#     Edge 22, Type (0, 1), BuildingBlock: ZUJKAS_clean_linker_0, # of connection points: 2
#     Edge 23, Type (0, 1), BuildingBlock: ZUJKAS_clean_linker_0, # of connection points: 2
#     Edge 24, Type (0, 1), BuildingBlock: ZUJKAS_clean_linker_0, # of connection points: 2
#     Edge 25, Type (0, 1), BuildingBlock: ZUJKAS_clean_linker_0, # of connection points: 2
#     Edge 26, Type (0, 1), BuildingBlock: ZUJKAS_clean_linker_0, # of connection points: 2
#     Edge 27, Type (0, 1), BuildingBlock: ZUJKAS_clean_linker_0, # of connection points: 2
#     Edge 28, Type (0, 1), BuildingBlock: ZUJKAS_clean_linker_0, # of connection points: 2
#     Edge 29, Type (0, 1), BuildingBlock: ZUJKAS_clean_linker_0, # of connection points: 2
#     Edge 30, Type (0, 1), BuildingBlock: ZUJKAS_clean_linker_0, # of connection points: 2
#     Edge 31, Type (0, 1), BuildingBlock: ZUJKAS_clean_linker_0, # of connection points: 2
#     Edge 32, Type (0, 1), BuildingBlock: ZUJKAS_clean_linker_0, # of connection points: 2
#     Edge 33, Type (0, 1), BuildingBlock: ZUJKAS_clean_linker_0, # of connection points: 2
#     Edge 34, Type (0, 1), BuildingBlock: ZUJKAS_clean_linker_0, # of connection points: 2
#     Edge 35, Type (0, 1), BuildingBlock: ZUJKAS_clean_linker_0, # of connection points: 2
# Relax obj value: 0.235
# Max RMSD: 0.151
# Mean RMSD: 0.133
data_MOF--net-zzz--node1-CUWYAW_clean_sbu_0--node2-CUQRIR_clean_linker_1--edge1-ZUJKAS_clean_linker_0
_symmetry_space_group_name_H-M    P1
_symmetry_Int_Tables_number       1
_symmetry_cell_setting            triclinic
loop_
_symmetry_equiv_pos_as_xyz
'x, y, z'
_cell_length_a     63.947992
_cell_length_b     63.85571
_cell_length_c     16.642812
_cell_angle_alpha  89.811533
_cell_angle_beta   90.027852
_cell_angle_gamma 90.083492
loop_
_atom_site_label
_atom_site_type_symbol
_atom_site_fract_x
_atom_site_fract_y
_atom_site_fract_z
_atom_type_partial_charge
C0 C 0.7388 0.51823 0.31707 0.0
N1 N 0.75733 0.52828 0.32901 0.0
N2 N 0.72648 0.52915 0.26479 0.0
C3 C 0.73268 0.49802 0.35663 0.0
C4 C 0.73841 0.54592 0.24452 0.0
N5 N 0.75689 0.54548 0.28386 0.0
C6 C 0.73258 0.56188 0.18171 0.0
H7 H 0.73797 0.48484 0.31846 0.0
H8 H 0.71544 0.49697 0.36316 0.0
H9 H 0.74027 0.49649 0.41634 0.0
H10 H 0.72189 0.57354 0.20893 0.0
H11 H 0.7242 0.55426 0.1312 0.0
H12 H 0.7465 0.57029 0.15825 0.0
C13 C 1.00768 0.74222 0.30698 0.0
N14 N 0.01893 0.75935 0.32914 0.0
N15 N 0.0194 0.72921 0.2605 0.0
C16 C 0.98487 0.73923 0.32402 0.0
C17 C 0.03806 0.73918 0.25505 0.0
N18 N 0.03781 0.75732 0.29673 0.0
C19 C 0.05636 0.73136 0.20712 0.0
H20 H 0.98085 0.74576 0.38375 0.0
H21 H 0.98056 0.7224 0.3216 0.0
H22 H 0.97568 0.74778 0.27786 0.0
H23 H 0.05464 0.73668 0.14392 0.0
H24 H 0.05678 0.71399 0.20748 0.0
H25 H 0.07129 0.7376 0.23127 0.0
C26 C 0.77938 0.01892 0.32235 0.0
N27 N 0.76235 0.03061 0.34216 0.0
N28 N 0.79244 0.02988 0.27289 0.0
C29 C 0.78267 0.99657 0.34715 0.0
C30 C 0.78266 0.04855 0.26364 0.0
N31 N 0.7646 0.04901 0.30564 0.0
C32 C 0.78998 0.06586 0.209 0.0
H33 H 0.77483 0.99327 0.40531 0.0
H34 H 0.79959 0.99299 0.35201 0.0
H35 H 0.77582 0.98619 0.3007 0.0
H36 H 0.78312 0.06349 0.14844 0.0
H37 H 0.80727 0.06582 0.20359 0.0
H38 H 0.78472 0.08131 0.23161 0.0
C39 C 0.51673 0.78527 0.36995 0.0
N40 N 0.51912 0.76407 0.37027 0.0
N41 N 0.51711 0.79296 0.29323 0.0
C42 C 0.51349 0.79834 0.44343 0.0
C43 C 0.51975 0.77562 0.24752 0.0
N44 N 0.52105 0.75834 0.29411 0.0
C45 C 0.52136 0.77558 0.15745 0.0
H46 H 0.50217 0.81108 0.43062 0.0
H47 H 0.5286 0.80568 0.46031 0.0
H48 H 0.50789 0.78865 0.49455 0.0
H49 H 0.52915 0.79007 0.13566 0.0
H50 H 0.50537 0.77503 0.13161 0.0
H51 H 0.53011 0.76169 0.13607 0.0
C52 C 0.2796 0.51152 0.08297 0.0
N53 N 0.26134 0.52223 0.07482 0.0
N54 N 0.29371 0.52266 0.12721 0.0
C55 C 0.28329 0.48996 0.0506 0.0
C56 C 0.28316 0.5404 0.14607 0.0
N57 N 0.26365 0.54012 0.11443 0.0
C58 C 0.29166 0.55752 0.19911 0.0
H59 H 0.30025 0.48707 0.04197 0.0
H60 H 0.27488 0.48784 0.99286 0.0
H61 H 0.27711 0.47831 0.09414 0.0
H62 H 0.30445 0.56581 0.16724 0.0
H63 H 0.29828 0.55062 0.25486 0.0
H64 H 0.2797 0.56934 0.21488 0.0
C65 C 1.01032 0.27731 0.12449 0.0
N66 N 0.99837 0.26038 0.10573 0.0
N67 N 0.99882 0.29198 0.1638 0.0
C68 C 0.03347 0.2786 0.11154 0.0
C69 C 0.97956 0.28328 0.1684 0.0
N70 N 0.97923 0.26412 0.13369 0.0
C71 C 0.96117 0.29351 0.20852 0.0
H72 H 0.04148 0.27016 0.16112 0.0
H73 H 0.03884 0.29514 0.11135 0.0
H74 H 0.0378 0.27095 0.05414 0.0
H75 H 0.96139 0.31065 0.1971 0.0
H76 H 0.96228 0.29107 0.27442 0.0
H77 H 0.94619 0.28682 0.18666 0.0
C78 C 0.24509 1.00739 0.13928 0.0
N79 N 0.26388 0.99778 0.12909 0.0
N80 N 0.23291 0.99657 0.19256 0.0
C81 C 0.23843 0.02683 0.09548 0.0
C82 C 0.24521 0.98023 0.21483 0.0
N83 N 0.26376 0.98089 0.17593 0.0
C84 C 0.24004 0.96488 0.28083 0.0
H85 H 0.2212 0.02713 0.08764 0.0
H86 H 0.2462 0.02787 0.03599 0.0
H87 H 0.24313 0.04069 0.13125 0.0
H88 H 0.23218 0.95104 0.25421 0.0
H89 H 0.22942 0.97197 0.32584 0.0
H90 H 0.2544 0.95943 0.3119 0.0
C91 C 0.51737 0.24244 0.116 0.0
N92 N 0.52666 0.26126 0.10086 0.0
N93 N 0.52823 0.23141 0.17287 0.0
C94 C 0.49826 0.23459 0.07335 0.0
C95 C 0.54425 0.24448 0.19211 0.0
N96 N 0.54334 0.26232 0.1483 0.0
C97 C 0.55961 0.24079 0.2593 0.0
H98 H 0.49842 0.21724 0.06957 0.0
H99 H 0.4972 0.24144 0.01211 0.0
H100 H 0.4842 0.23942 0.1076 0.0
H101 H 0.5735 0.23258 0.23501 0.0
H102 H 0.55259 0.23099 0.30743 0.0
H103 H 0.56494 0.25581 0.28573 0.0
C104 C 0.99664 0.02728 0.4866 0.0
Eu105 Eu 1.00136 0.01661 0.63604 0.0
C106 C 0.98236 0.04054 0.4401 0.0
C107 C 0.97934 0.03667 0.35811 0.0
C108 C 0.96649 0.04978 0.31236 0.0
C109 C 0.95652 0.06704 0.34806 0.0
C110 C 0.95895 0.07026 0.43126 0.0
C111 C 0.97168 0.05707 0.4769 0.0
C112 C 0.97032 1.01306 0.75039 0.0
C113 C 1.01185 0.05128 0.77387 0.0
C114 C 0.02534 0.98883 0.95605 0.0
Eu115 Eu 0.0199 1.00098 0.80892 0.0
C116 C 0.03897 0.97337 0.99614 0.0
C117 C 0.05371 0.98 0.05333 0.0
C118 C 0.06708 0.96555 0.09029 0.0
C119 C 0.06586 0.94416 0.07091 0.0
C120 C 0.05101 0.93763 0.01369 0.0
C121 C 0.03783 0.95205 0.97645 0.0
C122 C 0.05085 1.00437 0.69379 0.0
C123 C 1.0093 0.96628 0.6721 0.0
O124 O 1.00944 0.03698 0.53589 0.0
O125 O 0.98825 1.0104 0.51794 0.0
O126 O 0.96709 0.01901 0.67671 0.0
O127 O 0.98955 1.0093 0.75681 0.0
O128 O 1.00905 0.0478 0.69574 0.0
O129 O 1.01402 0.03583 0.827 0.0
O130 O 1.01042 0.98145 0.90962 0.0
O131 O 0.03484 1.00521 0.92527 0.0
O132 O 0.05406 0.99802 0.76692 0.0
O133 O 0.03165 1.00833 0.68807 0.0
O134 O 1.01196 0.96983 0.7501 0.0
O135 O 1.00744 0.98171 0.61874 0.0
H136 H 0.98726 0.02374 0.32914 0.0
H137 H 0.96479 0.04674 0.24871 0.0
H138 H 0.95186 0.08358 0.46066 0.0
H139 H 0.97365 0.06013 0.54047 0.0
H140 H 0.05493 0.9964 0.06924 0.0
H141 H 0.07836 0.97113 0.13383 0.0
H142 H 0.04918 0.92124 0.99875 0.0
H143 H 0.02669 0.94639 0.93249 0.0
C144 C 0.49337 0.99451 0.51359 0.0
Eu145 Eu 0.50588 1.00305 0.65785 0.0
C146 C 0.47937 0.97815 0.4835 0.0
C147 C 0.4693 0.96471 0.53799 0.0
C148 C 0.45488 0.94997 0.51068 0.0
C149 C 0.45022 0.94848 0.42839 0.0
C150 C 0.46109 0.96134 0.37359 0.0
C151 C 0.47557 0.97611 0.40108 0.0
C152 C 0.51039 0.9734 0.77857 0.0
C153 C 0.47071 0.0151 0.79129 0.0
C154 C 0.53214 0.0291 0.97523 0.0
Eu155 Eu 0.52074 0.02396 0.82682 0.0
C156 C 0.54701 0.04139 0.02426 0.0
C157 C 0.54117 0.06072 0.05796 0.0
C158 C 0.55514 0.07187 0.10659 0.0
C159 C 0.57509 0.06376 0.12312 0.0
C160 C 0.58083 0.04442 0.08945 0.0
C161 C 0.56694 0.03334 0.04108 0.0
C162 C 0.517 0.0538 0.70722 0.0
C163 C 0.55556 1.01405 0.68851 0.0
O164 O 0.48443 1.00875 0.5588 0.0
O165 O 0.51114 0.98775 0.54316 0.0
O166 O 0.50507 0.96906 0.70535 0.0
O167 O 0.51308 0.99288 0.78097 0.0
O168 O 0.47463 1.01148 0.71421 0.0
O169 O 0.48585 0.01799 0.84496 0.0
O170 O 0.54004 1.01464 0.92811 0.0
O171 O 0.51647 0.03923 0.94228 0.0
O172 O 0.52295 0.05779 0.78033 0.0
O173 O 0.5134 0.0344 0.70363 0.0
O174 O 0.5521 0.01712 0.76652 0.0
O175 O 0.54014 1.01089 0.63633 0.0
H176 H 0.47215 0.96604 0.60193 0.0
H177 H 0.44685 0.9402 0.55419 0.0
H178 H 0.45761 0.96077 0.30993 0.0
H179 H 0.48332 0.98633 0.35833 0.0
H180 H 0.52578 0.0672 0.04714 0.0
H181 H 0.55026 0.08668 0.13192 0.0
H182 H 0.59625 0.03792 0.09952 0.0
H183 H 0.57188 0.01841 0.0169 0.0
C184 C 0.5311 0.49626 0.46321 0.0
Eu185 Eu 0.5224 0.50434 0.61221 0.0
C186 C 0.54691 0.48321 0.42419 0.0
C187 C 0.56275 0.47387 0.4702 0.0
C188 C 0.57648 0.45964 0.43503 0.0
C189 C 0.57448 0.4544 0.35339 0.0
C190 C 0.55927 0.46468 0.30657 0.0
C191 C 0.54554 0.47897 0.34188 0.0
C192 C 0.55063 0.50902 0.73587 0.0
C193 C 0.50931 0.46534 0.73085 0.0
C194 C 0.49008 0.51758 0.93108 0.0
Eu195 Eu 0.49857 0.51441 0.77901 0.0
C196 C 0.49874 0.52556 0.00602 0.0
C197 C 0.48765 0.52237 0.07756 0.0
C198 C 0.49376 0.53268 0.14747 0.0
C199 C 0.51109 0.54621 0.14624 0.0
C200 C 0.52331 0.54774 0.07622 0.0
C201 C 0.51704 0.53761 0.00614 0.0
C202 C 0.47058 0.51063 0.65384 0.0
C203 C 0.51305 0.55293 0.66499 0.0
O204 O 0.51687 0.48598 0.50439 0.0
O205 O 0.53828 0.51272 0.50119 0.0
O206 O 0.55578 0.50484 0.66219 0.0
O207 O 0.53098 0.51048 0.73825 0.0
O208 O 0.51832 0.47114 0.6622 0.0
O209 O 0.50077 0.47893 0.78107 0.0
O210 O 0.49969 0.50148 0.89982 0.0
O211 O 0.4845 0.53163 0.87751 0.0
O212 O 0.46533 0.51528 0.72689 0.0
O213 O 0.49012 0.50832 0.65334 0.0
O214 O 0.51045 0.5467 0.74083 0.0
O215 O 0.5145 0.53923 0.60512 0.0
H216 H 0.56403 0.47704 0.53392 0.0
H217 H 0.58815 0.45211 0.4724 0.0
H218 H 0.55716 0.46078 0.2438 0.0
H219 H 0.53338 0.48609 0.30565 0.0
H220 H 0.47355 0.51293 0.07817 0.0
H221 H 0.48405 0.53141 0.20062 0.0
H222 H 0.53651 0.55837 0.07333 0.0
H223 H 0.52569 0.54025 0.95108 0.0
C224 C 0.024 0.52358 0.47438 0.0
Eu225 Eu 1.01426 0.51941 0.62493 0.0
C226 C 0.03641 0.53801 0.42506 0.0
C227 C 0.0401 0.55868 0.44979 0.0
C228 C 0.05365 0.57155 0.40597 0.0
C229 C 0.06388 0.56386 0.33733 0.0
C230 C 0.05928 0.54342 0.31101 0.0
C231 C 0.04565 0.53064 0.35451 0.0
C232 C 1.00808 0.55053 0.73679 0.0
C233 C 0.05059 0.50849 0.75888 0.0
C234 C 0.99001 0.49747 0.95016 0.0
Eu235 Eu 1.00063 0.50017 0.79968 0.0
C236 C 0.97674 0.50897 0.00781 0.0
C237 C 0.95637 0.50187 0.02348 0.0
C238 C 0.94333 0.51288 0.07532 0.0
C239 C 0.95038 0.53121 0.11336 0.0
C240 C 0.97096 0.53807 0.09951 0.0
C241 C 0.98409 0.52693 0.04781 0.0
C242 C 1.00773 0.46925 0.68767 0.0
C243 C 0.965 0.5109 0.6661 0.0
O244 O 0.03461 0.51174 0.52444 0.0
O245 O 1.00688 0.53126 0.50588 0.0
O246 O 1.01425 0.55393 0.66344 0.0
O247 O 1.00567 0.53103 0.74435 0.0
O248 O 0.04617 0.51411 0.68354 0.0
O249 O 0.03594 0.50331 0.81215 0.0
O250 O 1.00719 0.50672 0.92555 0.0
O251 O 0.98028 0.48748 0.89236 0.0
O252 O 1.00299 0.46552 0.76231 0.0
O253 O 1.00883 0.48879 0.67995 0.0
O254 O 0.96935 0.50961 0.74415 0.0
O255 O 0.97983 0.51155 0.61046 0.0
H256 H 0.03303 0.56464 0.50423 0.0
H257 H 0.05671 0.58725 0.42748 0.0
H258 H 0.06716 0.53676 0.2595 0.0
H259 H 0.04296 0.51471 0.33476 0.0
H260 H 0.95033 0.48792 0.99462 0.0
H261 H 0.92746 0.50733 0.08361 0.0
H262 H 0.97687 0.55204 0.12851 0.0
H263 H 0.9999 0.53253 0.03869 0.0
H264 H 0.2002 0.96986 0.19925 0.0
H265 H 0.16726 0.97476 0.27078 0.0
H266 H 0.18471 0.03857 0.32309 0.0
H267 H 0.21847 0.03304 0.25584 0.0
H268 H 0.17084 0.02252 0.45167 0.0
H269 H 0.11301 1.00028 0.22213 0.0
H270 H 0.13114 0.97927 0.23631 0.0
H271 H 0.14022 1.00413 0.19768 0.0
C272 C 0.19688 0.98501 0.22526 0.0
C273 C 0.212 1.00103 0.22205 0.0
C274 C 0.17784 0.98793 0.26544 0.0
C275 C 0.17301 1.00719 0.30178 0.0
C276 C 0.18781 0.02355 0.29559 0.0
H277 H 0.04933 0.02242 0.54177 0.0
H278 H 0.07817 0.02517 0.44383 0.0
C279 C 0.20707 0.02049 0.25633 0.0
C280 C 0.15359 1.00953 0.35232 0.0
H281 H 0.10122 0.99791 0.36038 0.0
C282 C 0.15561 0.0174 0.43081 0.0
C283 C 0.13338 1.00329 0.32589 0.0
C284 C 0.12929 0.99651 0.24057 0.0
C285 C 0.13849 0.01835 0.484 0.0
C286 C 0.1187 1.01048 0.45978 0.0
C287 C 0.11638 1.00355 0.38014 0.0
C288 C 0.10067 1.00851 0.51739 0.0
C289 C 0.14189 0.02796 0.56571 0.0
C290 C 0.1033 0.99776 0.5905 0.0
C291 C 0.087 0.99643 0.64641 0.0
C292 C 0.06734 1.00539 0.63048 0.0
C293 C 0.06429 0.01544 0.55604 0.0
C294 C 0.08081 0.017 0.50005 0.0
H295 H 0.15476 0.03966 0.56427 0.0
H296 H 0.12753 0.03576 0.58808 0.0
H297 H 0.14642 0.01551 0.60898 0.0
H298 H 0.11808 0.99037 0.60472 0.0
H299 H 0.08986 0.98832 0.70261 0.0
H300 H 0.55558 0.19947 0.19138 0.0
H301 H 0.55072 0.16741 0.26953 0.0
H302 H 0.48623 0.18399 0.31031 0.0
H303 H 0.49167 0.21696 0.23655 0.0
H304 H 0.50084 0.17166 0.44298 0.0
H305 H 0.52704 0.11196 0.22769 0.0
H306 H 0.54754 0.13064 0.24289 0.0
H307 H 0.52317 0.13885 0.198 0.0
C308 C 0.54032 0.1962 0.21655 0.0
C309 C 0.52406 0.21088 0.20784 0.0
C310 C 0.53742 0.1776 0.26051 0.0
C311 C 0.51795 0.17272 0.29541 0.0
C312 C 0.50143 0.18709 0.28416 0.0
H313 H 0.50105 0.05066 0.55186 0.0
H314 H 0.4994 0.07864 0.44916 0.0
C315 C 0.50444 0.20591 0.2411 0.0
C316 C 0.51542 0.15372 0.34902 0.0
H317 H 0.52752 0.10154 0.36779 0.0
C318 C 0.50645 0.15631 0.42558 0.0
C319 C 0.52229 0.13333 0.32724 0.0
C320 C 0.53032 0.1285 0.24411 0.0
C321 C 0.50494 0.13964 0.48119 0.0
C322 C 0.51331 0.1197 0.46176 0.0
C323 C 0.52144 0.11679 0.38403 0.0
C324 C 0.51457 0.10216 0.52255 0.0
C325 C 0.49413 0.14367 0.56023 0.0
C326 C 0.52409 0.10562 0.59747 0.0
C327 C 0.52478 0.08983 0.65602 0.0
C328 C 0.51639 0.06981 0.64136 0.0
C329 C 0.50753 0.06592 0.56538 0.0
C330 C 0.50663 0.08194 0.5066 0.0
H331 H 0.48236 0.15637 0.55441 0.0
H332 H 0.48617 0.1294 0.58321 0.0
H333 H 0.50587 0.1488 0.6052 0.0
H334 H 0.53106 0.12066 0.61103 0.0
H335 H 0.53201 0.09336 0.71329 0.0
H336 H 0.30328 0.48776 0.21356 0.0
H337 H 0.33593 0.48102 0.28702 0.0
H338 H 0.36206 0.53824 0.19165 0.0
H339 H 0.33019 0.54385 0.11312 0.0
H340 H 0.39221 0.51219 0.20776 0.0
H341 H 0.34757 0.50889 0.4926 0.0
H342 H 0.34042 0.48829 0.42512 0.0
H343 H 0.33531 0.51519 0.39828 0.0
C344 C 0.31625 0.49852 0.20656 0.0
C345 C 0.31401 0.51655 0.15863 0.0
C346 C 0.33482 0.49491 0.24991 0.0
C347 C 0.35137 0.50956 0.24819 0.0
C348 C 0.34959 0.52679 0.19569 0.0
H349 H 0.43498 0.53292 0.64327 0.0
H350 H 0.40814 0.53199 0.53976 0.0
C351 C 0.33125 0.53012 0.15113 0.0
C352 C 0.36997 0.50775 0.3035 0.0
H353 H 0.38372 0.50275 0.50146 0.0
C354 C 0.39032 0.51012 0.27203 0.0
C355 C 0.36776 0.50537 0.38792 0.0
C356 C 0.34661 0.50451 0.42814 0.0
C357 C 0.40823 0.51051 0.32201 0.0
C358 C 0.40598 0.50772 0.40621 0.0
C359 C 0.38568 0.50484 0.4372 0.0
C360 C 0.42391 0.5093 0.46477 0.0
C361 C 0.42922 0.51486 0.28409 0.0
C362 C 0.44235 0.49728 0.45748 0.0
C363 C 0.45822 0.49828 0.5165 0.0
C364 C 0.45568 0.51089 0.58494 0.0
C365 C 0.43743 0.523 0.59144 0.0
C366 C 0.42195 0.52239 0.53213 0.0
H367 H 0.42759 0.52244 0.22423 0.0
H368 H 0.43894 0.52513 0.32282 0.0
H369 H 0.43763 0.49985 0.27548 0.0
H370 H 0.44425 0.48662 0.40764 0.0
H371 H 0.47196 0.48854 0.51037 0.0
H372 H 1.00466 0.29519 0.32307 0.0
H373 H 1.01003 0.32748 0.40036 0.0
H374 H 1.0126 0.36293 0.17953 0.0
H375 H 1.00698 0.33043 0.10257 0.0
H376 H 0.04124 0.35787 0.4029 0.0
H377 H 0.96598 0.39255 0.30206 0.0
H378 H 0.9724 0.36539 0.28567 0.0
H379 H 0.98369 0.3854 0.22304 0.0
C380 C 1.00683 0.30986 0.29132 0.0
C381 C 1.00567 0.31037 0.20706 0.0
C382 C 1.00978 0.32833 0.33535 0.0
C383 C 1.01138 0.34782 0.29619 0.0
C384 C 1.01103 0.34822 0.21152 0.0
H385 H 1.01182 0.47379 0.52281 0.0
H386 H 0.01464 0.44563 0.42222 0.0
C387 C 1.00812 0.32966 0.16742 0.0
C388 C 1.01279 0.36756 0.34468 0.0
H389 H 0.98648 0.41273 0.39045 0.0
C390 C 0.02932 0.3699 0.39967 0.0
C391 C 0.9973 0.38343 0.34075 0.0
C392 C 0.97873 0.3816 0.28528 0.0
C393 C 0.03066 0.38738 0.45103 0.0
C394 C 0.01484 0.40291 0.44893 0.0
C395 C 0.99865 0.40092 0.39225 0.0
C396 C 1.01395 0.42033 0.50915 0.0
C397 C 0.0491 0.38904 0.50725 0.0
C398 C 1.01242 0.41564 0.59146 0.0
C399 C 1.01081 0.43163 0.64853 0.0
C400 C 1.01063 0.45282 0.62518 0.0
C401 C 1.01218 0.45764 0.54283 0.0
C402 C 1.0137 0.44154 0.48532 0.0
H403 H 0.06274 0.3801 0.48444 0.0
H404 H 0.05385 0.4056 0.51603 0.0
H405 H 0.04474 0.38236 0.56657 0.0
H406 H 1.01206 0.39951 0.61169 0.0
H407 H 1.00945 0.42732 0.71132 0.0
H408 H 0.79614 0.02538 0.11287 0.0
H409 H 0.82851 0.0201 0.03634 0.0
H410 H 0.86307 1.01461 0.25783 0.0
H411 H 0.8305 0.02013 0.33438 0.0
H412 H 0.86414 0.04756 0.05017 0.0
H413 H 0.88516 0.96487 0.11836 0.0
H414 H 0.85886 0.97469 0.13038 0.0
H415 H 0.8787 0.98146 0.20198 0.0
C416 C 0.8106 0.02258 0.14503 0.0
C417 C 0.8108 0.02296 0.22946 0.0
C418 C 0.82911 0.01965 0.10137 0.0
C419 C 0.84832 0.01682 0.14099 0.0
C420 C 0.84846 0.01642 0.22563 0.0
H421 H 0.97424 1.00635 0.91486 0.0
H422 H 0.94605 1.00732 0.01627 0.0
C423 C 0.82987 0.01948 0.26943 0.0
C424 C 0.86817 0.01602 0.09315 0.0
H425 H 0.90828 0.98388 0.03493 0.0
C426 C 0.87381 0.03364 0.04722 0.0
C427 C 0.88106 0.998 0.08989 0.0
C428 C 0.8757 0.97857 0.13727 0.0
C429 C 0.89161 0.03365 0.9974 0.0
C430 C 0.90401 0.01533 0.99112 0.0
C431 C 0.89882 0.99791 0.03917 0.0
C432 C 0.92134 1.01367 0.93064 0.0
C433 C 0.897 0.05343 0.95197 0.0
C434 C 0.91691 0.01638 0.84862 0.0
C435 C 0.93288 0.01585 0.7912 0.0
C436 C 0.9538 1.01236 0.81368 0.0
C437 C 0.9583 1.00902 0.89554 0.0
C438 C 0.94218 1.0096 0.9535 0.0
H439 H 0.8905 0.0675 0.98205 0.0
H440 H 0.91419 0.0554 0.94608 0.0
H441 H 0.89013 0.05263 0.89081 0.0
H442 H 0.901 0.01906 0.8288 0.0
H443 H 0.92878 0.01833 0.72873 0.0
H444 H 0.54347 0.82557 0.31858 0.0
H445 H 0.54296 0.8598 0.24936 0.0
H446 H 0.48607 0.84212 0.12804 0.0
H447 H 0.48668 0.8081 0.1972 0.0
H448 H 0.545 0.86584 0.08343 0.0
H449 H 0.47247 0.90183 0.2002 0.0
H450 H 0.48513 0.88003 0.24959 0.0
H451 H 0.46866 0.87568 0.1636 0.0
C452 C 0.53058 0.82932 0.27886 0.0
C453 C 0.51497 0.8143 0.264 0.0
C454 C 0.53035 0.8488 0.23875 0.0
C455 C 0.51433 0.85382 0.18374 0.0
C456 C 0.49838 0.83899 0.17108 0.0
H457 H 0.5111 0.93128 0.76192 0.0
H458 H 0.5133 0.90423 0.8655 0.0
C459 C 0.49874 0.8195 0.21053 0.0
C460 C 0.51512 0.87365 0.13459 0.0
H461 H 0.48655 0.91683 0.07948 0.0
C462 C 0.53231 0.87709 0.08352 0.0
C463 C 0.49872 0.8886 0.13455 0.0
C464 C 0.48028 0.88651 0.19047 0.0
C465 C 0.53311 0.89438 0.03044 0.0
C466 C 0.51624 0.90874 0.02746 0.0
C467 C 0.49946 0.90585 0.08101 0.0
C468 C 0.51514 0.92579 0.9651 0.0
C469 C 0.55199 0.897 0.97702 0.0
C470 C 0.51518 0.9472 0.98588 0.0
C471 C 0.51408 0.96291 0.92598 0.0
C472 C 0.5126 0.95749 0.84422 0.0
C473 C 0.51237 0.93608 0.82411 0.0
C474 C 0.51368 0.92052 0.88346 0.0
H475 H 0.56573 0.88833 1.00082 0.0
H476 H 0.54834 0.89075 0.91647 0.0
H477 H 0.55623 0.91379 0.9704 0.0
H478 H 0.51616 0.95175 0.0484 0.0
H479 H 0.51403 0.97921 0.94365 0.0
H480 H 0.69185 0.55284 0.27607 0.0
H481 H 0.65881 0.54815 0.2033 0.0
H482 H 0.68208 0.49045 0.10359 0.0
H483 H 0.71505 0.49513 0.17786 0.0
H484 H 0.65408 0.54828 0.04566 0.0
H485 H 0.62331 0.47282 0.15963 0.0
H486 H 0.64407 0.48684 0.20968 0.0
H487 H 0.64965 0.47082 0.12353 0.0
C488 C 0.68964 0.53892 0.24009 0.0
C489 C 0.70592 0.52427 0.23311 0.0
C490 C 0.67079 0.53625 0.19819 0.0
C491 C 0.66765 0.51884 0.148 0.0
C492 C 0.68372 0.50378 0.1431 0.0
H493 H 0.59251 0.51266 0.7212 0.0
H494 H 0.61898 0.51532 0.82608 0.0
C495 C 0.70261 0.50643 0.18552 0.0
C496 C 0.64851 0.51761 0.09559 0.0
H497 H 0.60789 0.48586 0.03791 0.0
C498 C 0.64392 0.53467 0.04486 0.0
C499 C 0.6349 0.50003 0.09449 0.0
C500 C 0.63808 0.48167 0.15033 0.0
C501 C 0.62675 0.53437 0.99175 0.0
C502 C 0.61378 0.5164 0.9877 0.0
C503 C 0.61784 0.49961 0.04033 0.0
C504 C 0.59707 0.51434 0.92491 0.0
C505 C 0.62271 0.55336 0.93984 0.0
C506 C 0.57571 0.51249 0.94492 0.0
C507 C 0.56033 0.51098 0.88422 0.0
C508 C 0.56608 0.51114 0.80261 0.0
C509 C 0.58746 0.51267 0.78332 0.0
C510 C 0.60268 0.51425 0.84341 0.0
H511 H 0.62998 0.56767 0.96551 0.0
H512 H 0.62958 0.55077 0.87947 0.0
H513 H 0.60568 0.55613 0.9324 0.0
H514 H 0.57093 0.51237 0.00734 0.0
H515 H 0.54407 0.50937 0.90099 0.0
H516 H 1.01309 0.69006 0.31853 0.0
H517 H 1.00908 0.65776 0.23878 0.0
H518 H 1.0087 0.69468 0.02137 0.0
H519 H 1.01307 0.72669 0.10117 0.0
H520 H 0.98006 0.64276 0.12446 0.0
H521 H 0.05755 0.65511 0.98389 0.0
H522 H 0.04894 0.66987 0.06998 0.0
H523 H 0.04034 0.67702 0.97064 0.0
C524 C 1.01167 0.69118 0.25384 0.0
C525 C 1.01323 0.7108 0.21582 0.0
C526 C 1.0095 0.67276 0.2082 0.0
C527 C 1.009 0.67364 0.12363 0.0
C528 C 1.00949 0.69343 0.0862 0.0
H529 H 1.00947 0.5924 0.71248 0.0
H530 H 1.00875 0.6205 0.81117 0.0
C531 C 1.01175 0.71175 0.13171 0.0
C532 C 1.00895 0.65403 0.07404 0.0
H533 H 0.03599 0.62894 0.92541 0.0
C534 C 0.99235 0.63965 0.08128 0.0
C535 C 0.0251 0.64969 0.01825 0.0
C536 C 0.0441 0.66361 0.01064 0.0
C537 C 0.99097 0.62173 0.0317 0.0
C538 C 1.00678 0.61782 0.97385 0.0
C539 C 0.02369 0.63188 0.96878 0.0
C540 C 1.00577 0.60009 0.91461 0.0
C541 C 0.97221 0.60756 0.04005 0.0
C542 C 1.00415 0.57894 0.93878 0.0
C543 C 1.00431 0.56268 0.88151 0.0
C544 C 1.00642 0.56719 0.79918 0.0
C545 C 1.00787 0.5883 0.77539 0.0
C546 C 1.0075 0.60446 0.83204 0.0
H547 H 0.95918 0.61532 0.07245 0.0
H548 H 0.96647 0.6024 0.98034 0.0
H549 H 0.97678 0.59346 0.07492 0.0
H550 H 1.00328 0.57492 1.00191 0.0
H551 H 1.00329 0.54663 0.90159 0.0
H552 H 0.96127 0.25236 0.27306 0.0
H553 H 0.94227 0.21982 0.29677 0.0
H554 H 0.9444 0.20618 0.04326 0.0
H555 H 0.96166 0.23992 0.01862 0.0
H556 H 0.91156 0.18543 0.1189 0.0
H557 H 0.98635 0.17488 0.28423 0.0
H558 H 0.97013 0.19488 0.32664 0.0
H559 H 0.98073 0.19813 0.2272 0.0
C560 C 0.95665 0.24301 0.22192 0.0
C561 C 0.96339 0.2483 0.14419 0.0
C562 C 0.94598 0.2243 0.23558 0.0
C563 C 0.94285 0.21019 0.17227 0.0
C564 C 0.94711 0.21665 0.09328 0.0
H565 H 0.96893 0.08192 0.2016 0.0
H566 H 0.95881 0.11512 0.14129 0.0
C567 C 0.95719 0.23575 0.0793 0.0
C568 C 0.93966 0.1877 0.19 0.0
H569 H 0.96317 0.14649 0.28422 0.0
C570 C 0.92272 0.1769 0.15548 0.0
C571 C 0.95455 0.17652 0.2364 0.0
C572 C 0.97406 0.18662 0.2701 0.0
C573 C 0.92025 0.15517 0.16706 0.0
C574 C 0.93508 0.14429 0.21379 0.0
C575 C 0.95181 0.15508 0.24858 0.0
C576 C 0.93442 0.12152 0.2276 0.0
C577 C 0.90222 0.14382 0.12856 0.0
C578 C 0.92319 0.11366 0.29335 0.0
C579 C 0.9289 0.09456 0.32813 0.0
C580 C 0.9461 0.08329 0.2981 0.0
C581 C 0.9556 0.09009 0.22634 0.0
C582 C 0.94979 0.10909 0.19143 0.0
H583 H 0.8922 0.15447 0.09234 0.0
H584 H 0.90826 0.13118 0.08921 0.0
H585 H 0.89251 0.13628 0.17583 0.0
H586 H 0.91144 0.12319 0.32248 0.0
H587 H 0.92096 0.08947 0.38227 0.0
H588 H 0.30123 0.99322 0.22945 0.0
H589 H 0.33216 0.97138 0.25028 0.0
H590 H 0.29704 0.91668 0.17983 0.0
H591 H 0.26595 0.93891 0.15721 0.0
H592 H 0.32289 0.91275 0.32774 0.0
H593 H 0.36662 0.94248 0.06698 0.0
H594 H 0.35621 0.96392 0.12369 0.0
H595 H 0.33863 0.94562 0.07604 0.0
C596 C 0.30025 0.97659 0.2176 0.0
C597 C 0.28153 0.96768 0.19067 0.0
C598 C 0.31781 0.96413 0.22958 0.0
C599 C 0.3169 0.94251 0.21525 0.0
C600 C 0.29802 0.93337 0.19045 0.0
H601 H 0.44726 0.92304 0.29584 0.0
H602 H 0.41498 0.90897 0.23738 0.0
C603 C 0.28039 0.94597 0.17781 0.0
C604 C 0.33598 0.92996 0.22813 0.0
H605 H 0.38776 0.93379 0.18552 0.0
C606 C 0.33707 0.91667 0.29522 0.0
C607 C 0.3543 0.93434 0.18394 0.0
C608 C 0.3538 0.94721 0.10802 0.0
C609 C 0.35651 0.91015 0.32557 0.0
C610 C 0.37507 0.91769 0.28902 0.0
C611 C 0.37367 0.92829 0.21515 0.0
C612 C 0.39502 0.91963 0.33408 0.0
C613 C 0.35694 0.8964 0.39931 0.0
C614 C 0.39474 0.92953 0.40932 0.0
C615 C 0.41307 0.93741 0.44273 0.0
C616 C 0.4321 0.93588 0.40111 0.0
C617 C 0.43274 0.92461 0.32875 0.0
C618 C 0.41434 0.91645 0.29566 0.0
H619 H 0.34458 0.88421 0.39535 0.0
H620 H 0.37233 0.88863 0.40735 0.0
H621 H 0.3535 0.90601 0.45317 0.0
H622 H 0.38011 0.93295 0.4392 0.0
H623 H 0.41197 0.94627 0.49794 0.0
H624 H 0.53025 0.30013 0.19455 0.0
H625 H 0.55067 0.33252 0.19675 0.0
H626 H 0.60582 0.29827 0.12652 0.0
H627 H 0.58496 0.26564 0.12298 0.0
H628 H 0.6122 0.32744 0.255 0.0
H629 H 0.57368 0.36433 0.99676 0.0
H630 H 0.55388 0.35493 0.06358 0.0
H631 H 0.57144 0.33656 0.01688 0.0
C632 C 0.54672 0.2996 0.17965 0.0
C633 C 0.55611 0.28067 0.15794 0.0
C634 C 0.55833 0.31802 0.18034 0.0
C635 C 0.57962 0.31781 0.15979 0.0
C636 C 0.58934 0.29873 0.14138 0.0
H637 H 0.59346 0.45064 0.20578 0.0
H638 H 0.60626 0.41826 0.14419 0.0
C639 C 0.57756 0.2802 0.14001 0.0
C640 C 0.59131 0.33777 0.16131 0.0
H641 H 0.58277 0.38849 0.10909 0.0
C642 C 0.60639 0.34079 0.22129 0.0
C643 C 0.58459 0.35503 0.11478 0.0
C644 C 0.5702 0.35242 0.0437 0.0
C645 C 0.61245 0.36108 0.24387 0.0
C646 C 0.60249 0.37851 0.20754 0.0
C647 C 0.59001 0.37527 0.13918 0.0
C648 C 0.60062 0.39896 0.24932 0.0
C649 C 0.62843 0.36354 0.30977 0.0
C650 C 0.59381 0.39912 0.32956 0.0
C651 C 0.58679 0.41755 0.36482 0.0
C652 C 0.586 0.43624 0.32028 0.0
C653 C 0.59387 0.43643 0.24141 0.0
C654 C 0.60124 0.41796 0.20634 0.0
H655 H 0.64126 0.35202 0.30187 0.0
H656 H 0.63523 0.37955 0.31082 0.0
H657 H 0.62101 0.36017 0.3687 0.0
H658 H 0.59227 0.3847 0.36343 0.0
H659 H 0.58044 0.41673 0.42508 0.0
H660 H 0.24003 0.56249 0.01117 0.0
H661 H 0.20621 0.57874 0.04219 0.0
H662 H 0.21532 0.56446 0.29342 0.0
H663 H 0.24846 0.54738 0.26147 0.0
H664 H 0.18146 0.54589 0.22952 0.0
H665 H 0.1809 0.63041 0.1499 0.0
H666 H 0.19088 0.61344 0.07301 0.0
H667 H 0.20479 0.6159 0.16631 0.0
C668 C 0.23497 0.56348 0.07309 0.0
C669 C 0.24668 0.55388 0.13418 0.0
C670 C 0.21583 0.57293 0.09094 0.0
C671 C 0.20837 0.57299 0.17026 0.0
C672 C 0.2209 0.56476 0.23196 0.0
H673 H 0.09385 0.58677 0.41434 0.0
H674 H 0.12816 0.59575 0.36163 0.0
C675 C 0.23981 0.5551 0.21392 0.0
C676 C 0.18614 0.57744 0.18705 0.0
H677 H 0.14769 0.6145 0.17684 0.0
C678 C 0.17416 0.56096 0.21853 0.0
C679 C 0.17662 0.59701 0.1713 0.0
C680 C 0.18897 0.61529 0.13887 0.0
C681 C 0.1529 0.56337 0.2343 0.0
C682 C 0.14335 0.58292 0.21923 0.0
C683 C 0.15518 0.59954 0.18779 0.0
C684 C 0.12124 0.58592 0.24043 0.0
C685 C 0.14067 0.54495 0.26695 0.0
C686 C 0.10565 0.57876 0.18807 0.0
C687 C 0.08586 0.5737 0.21788 0.0
C688 C 0.08159 0.5755 0.30055 0.0
C689 C 0.0965 0.5852 0.3504 0.0
C690 C 0.11619 0.59041 0.32038 0.0
H691 H 0.15054 0.53078 0.27484 0.0
H692 H 0.13371 0.54902 0.32593 0.0
H693 H 0.12767 0.54105 0.22539 0.0
H694 H 0.10939 0.57513 0.12617 0.0
H695 H 0.07452 0.56673 0.17759 0.0
H696 H 0.05781 0.77423 0.42354 0.0
H697 H 0.07927 0.80627 0.42202 0.0
H698 H 0.07321 0.80934 0.16398 0.0
H699 H 0.05204 0.77737 0.16598 0.0
H700 H 0.1134 0.82347 0.22437 0.0
H701 H 0.04547 0.85968 0.38212 0.0
H702 H 0.05875 0.83807 0.42912 0.0
H703 H 0.04384 0.83387 0.3392 0.0
C704 C 0.0616 0.78159 0.36668 0.0
C705 C 0.05337 0.77358 0.29488 0.0
C706 C 0.0738 0.79979 0.36575 0.0
C707 C 0.07764 0.81028 0.29293 0.0
C708 C 0.07057 0.80141 0.22075 0.0
H709 H 0.08387 0.90905 0.00793 0.0
H710 H 0.09583 0.87869 0.08219 0.0
C711 C 0.0585 0.78321 0.22175 0.0
C712 C 0.08586 0.83195 0.29122 0.0
H713 H 0.06808 0.88174 0.31445 0.0
C714 C 0.10387 0.83632 0.24594 0.0
C715 C 0.07372 0.84872 0.32099 0.0
C716 C 0.05431 0.84503 0.37047 0.0
C717 C 0.10888 0.85693 0.22326 0.0
C718 C 0.09512 0.87338 0.24422 0.0
C719 C 0.07858 0.8692 0.29739 0.0
C720 C 0.0944 0.89351 0.19918 0.0
C721 C 0.12833 0.86067 0.17412 0.0
C722 C 0.09001 0.91235 0.23921 0.0
C723 C 0.08217 0.92958 0.19674 0.0
C724 C 0.07884 0.9283 0.11333 0.0
C725 C 0.08564 0.91033 0.07245 0.0
C726 C 0.09303 0.89303 0.11496 0.0
H727 H 0.14132 0.85067 0.19643 0.0
H728 H 0.12532 0.85614 0.11083 0.0
H729 H 0.13339 0.8773 0.1759 0.0
H730 H 0.09094 0.91317 0.30412 0.0
H731 H 0.07718 0.94319 0.23026 0.0
H732 H 0.7591 0.08745 0.37011 0.0
H733 H 0.72726 0.10923 0.35812 0.0
H734 H 0.70029 0.06301 0.19989 0.0
H735 H 0.73193 0.04179 0.21149 0.0
H736 H 0.69377 0.10516 0.15054 0.0
H737 H 0.67241 0.09084 0.47089 0.0
H738 H 0.69639 0.10436 0.44704 0.0
H739 H 0.69386 0.07705 0.42478 0.0
C740 C 0.74642 0.08242 0.3316 0.0
C741 C 0.74764 0.06319 0.29129 0.0
C742 C 0.72831 0.09468 0.32517 0.0
C743 C 0.71143 0.08767 0.27833 0.0
C744 C 0.71319 0.0688 0.23581 0.0
H745 H 0.601 0.04804 0.23819 0.0
H746 H 0.63209 0.06468 0.29216 0.0
C747 C 0.73114 0.05669 0.24228 0.0
C748 C 0.69103 0.09851 0.27662 0.0
H749 H 0.64516 0.0977 0.38063 0.0
C750 C 0.68314 0.10433 0.20124 0.0
C751 C 0.67743 0.09773 0.34347 0.0
C752 C 0.68528 0.09215 0.42633 0.0
C753 C 0.66156 0.10602 0.18799 0.0
C754 C 0.64766 0.10242 0.25296 0.0
C755 C 0.65585 0.10005 0.33084 0.0
C756 C 0.62603 0.09499 0.23796 0.0
C757 C 0.65394 0.10894 0.10277 0.0
C758 C 0.61152 0.10678 0.19349 0.0
C759 C 0.59389 0.09702 0.16031 0.0
C760 C 0.59047 0.07546 0.17249 0.0
C761 C 0.60362 0.06449 0.22546 0.0
C762 C 0.62127 0.07411 0.25739 0.0
H763 H 0.66699 0.11003 0.05892 0.0
H764 H 0.64374 0.09565 0.08503 0.0
H765 H 0.64469 0.12357 0.09836 0.0
H766 H 0.61454 0.12309 0.17979 0.0
H767 H 0.58386 0.10596 0.12061 0.0
H768 H 0.49078 0.73455 0.23026 0.0
H769 H 0.4912 0.69607 0.22242 0.0
H770 H 0.55538 0.69589 0.30292 0.0
H771 H 0.55505 0.7343 0.30691 0.0
H772 H 0.54805 0.66703 0.18696 0.0
H773 H 0.48861 0.66168 0.42688 0.0
H774 H 0.47761 0.6718 0.33554 0.0
H775 H 0.49738 0.68645 0.38715 0.0
C776 C 0.50511 0.72616 0.24305 0.0
C777 C 0.52291 0.73702 0.26886 0.0
C778 C 0.50527 0.70431 0.24014 0.0
C779 C 0.52313 0.69319 0.26459 0.0
C780 C 0.54138 0.70419 0.28473 0.0
H781 H 0.54605 0.55857 0.22992 0.0
H782 H 0.55091 0.59346 0.28879 0.0
C783 C 0.54128 0.72601 0.28643 0.0
C784 C 0.52277 0.67011 0.27108 0.0
H785 H 0.49764 0.62927 0.36166 0.0
C786 C 0.53716 0.65869 0.22554 0.0
C787 C 0.50847 0.65937 0.32142 0.0
C788 C 0.49226 0.67052 0.37098 0.0
C789 C 0.53688 0.63676 0.22506 0.0
C790 C 0.52252 0.62597 0.27546 0.0
C791 C 0.50882 0.63749 0.32394 0.0
C792 C 0.51889 0.60315 0.268 0.0
C793 C 0.55093 0.6256 0.16612 0.0
C794 C 0.49877 0.5962 0.24755 0.0
C795 C 0.4958 0.57611 0.21802 0.0
C796 C 0.513 0.56282 0.20689 0.0
C797 C 0.53264 0.56873 0.23715 0.0
C798 C 0.53546 0.58872 0.26942 0.0
H799 H 0.55744 0.63645 0.12014 0.0
H800 H 0.56429 0.61852 0.19884 0.0
H801 H 0.54231 0.61299 0.1344 0.0
H802 H 0.48563 0.6069 0.24696 0.0
H803 H 0.48049 0.57196 0.19504 0.0
H804 H 0.76958 0.58179 0.35065 0.0
H805 H 0.8051 0.59676 0.3397 0.0
H806 H 0.82058 0.54994 0.16305 0.0
H807 H 0.78554 0.53491 0.1761 0.0
H808 H 0.84053 0.57076 0.37705 0.0
H809 H 0.84721 0.60413 0.0721 0.0
H810 H 0.82244 0.60157 0.12376 0.0
H811 H 0.83342 0.57964 0.07068 0.0
C812 C 0.78051 0.57532 0.30775 0.0
C813 C 0.77518 0.55737 0.26385 0.0
C814 C 0.80067 0.58376 0.30167 0.0
C815 C 0.81532 0.57461 0.24982 0.0
C816 C 0.80936 0.55753 0.20206 0.0
H817 H 0.92215 0.51656 0.22283 0.0
H818 H 0.8924 0.53541 0.27677 0.0
C819 C 0.78945 0.54894 0.20929 0.0
C820 C 0.83768 0.58027 0.25307 0.0
H821 H 0.87833 0.58614 0.12358 0.0
C822 C 0.84892 0.57496 0.32264 0.0
C823 C 0.84857 0.58619 0.18291 0.0
C824 C 0.83724 0.59343 0.1084 0.0
C825 C 0.87072 0.57271 0.3204 0.0
C826 C 0.88129 0.57545 0.24638 0.0
C827 C 0.8703 0.58363 0.1802 0.0
C828 C 0.90192 0.56571 0.23062 0.0
C829 C 0.88193 0.56597 0.39591 0.0
C830 C 0.91733 0.57639 0.18637 0.0
C831 C 0.93407 0.5654 0.15269 0.0
C832 C 0.93564 0.54358 0.1629 0.0
C833 C 0.9212 0.53331 0.21292 0.0
C834 C 0.90438 0.5442 0.24547 0.0
H835 H 0.87987 0.54886 0.40457 0.0
H836 H 0.8989 0.5696 0.39337 0.0
H837 H 0.87504 0.57379 0.44921 0.0
H838 H 0.91566 0.59293 0.17335 0.0
H839 H 0.94483 0.57371 0.1139 0.0
H840 H 1.00189 0.25065 0.94868 0.0
H841 H 1.0059 0.21542 0.89114 0.0
H842 H 1.0135 0.18993 0.12968 0.0
H843 H 1.00869 0.22512 0.18651 0.0
H844 H 0.03463 0.18564 0.88758 0.0
H845 H 0.97378 0.18125 0.05798 0.0
H846 H 0.98723 0.16255 0.12055 0.0
H847 H 0.96681 0.15394 0.0547 0.0
C848 C 1.00486 0.23752 0.98834 0.0
C849 C 1.00509 0.24057 0.0719 0.0
C850 C 1.007 0.21732 0.95564 0.0
C851 C 1.00945 0.19965 0.00576 0.0
C852 C 1.01098 0.203 0.08929 0.0
H853 H 0.0176 0.06457 0.92922 0.0
H854 H 0.01774 0.10024 0.9812 0.0
C855 C 1.00859 0.22316 0.12192 0.0
C856 C 1.01001 0.17788 0.97069 0.0
H857 H 0.98735 0.12924 0.98311 0.0
C858 C 0.02419 0.17338 0.90835 0.0
C859 C 0.99643 0.1616 0.99702 0.0
C860 C 0.98006 0.16511 0.06065 0.0
C861 C 0.02548 0.15325 0.87343 0.0
C862 C 1.01196 0.13702 0.90015 0.0
C863 C 0.99777 0.14152 0.96222 0.0
C864 C 1.01246 0.11519 0.86619 0.0
C865 C 0.04179 0.14942 0.80973 0.0
C866 C 1.00927 0.11133 0.78374 0.0
C867 C 1.00921 0.09074 0.7534 0.0
C868 C 1.0122 0.07339 0.80477 0.0
C869 C 0.01529 0.07736 0.88729 0.0
C870 C 0.01535 0.09788 0.91741 0.0
H871 H 0.05447 0.16132 0.81181 0.0
H872 H 0.04886 0.13364 0.81653 0.0
H873 H 0.03433 0.15035 0.74962 0.0
H874 H 1.00647 0.12423 0.7428 0.0
H875 H 1.00663 0.08843 0.68973 0.0
H876 H 0.28843 0.03236 0.13888 0.0
H877 H 0.32223 0.03779 0.07149 0.0
H878 H 0.3128 0.9809 0.93697 0.0
H879 H 0.27954 0.97525 0.00702 0.0
H880 H 0.34942 0.97986 0.99399 0.0
H881 H 0.34165 0.05859 0.85983 0.0
H882 H 0.33683 0.05911 0.96587 0.0
H883 H 0.31957 0.04459 0.90094 0.0
C884 C 0.29333 0.02147 0.09287 0.0
C885 C 0.2812 1.00358 0.07709 0.0
C886 C 0.31271 0.02453 0.05418 0.0
C887 C 0.32025 1.00995 0.99759 0.0
C888 C 0.30757 0.9925 0.97982 0.0
H889 H 0.43456 0.01714 0.70081 0.0
H890 H 0.39819 0.01673 0.74823 0.0
C891 C 0.28841 0.98934 0.01922 0.0
C892 C 0.34195 1.01167 0.96239 0.0
H893 H 0.37652 0.04487 0.8684 0.0
C894 C 0.35524 0.99414 0.96692 0.0
C895 C 0.34971 0.03008 0.92452 0.0
C896 C 0.33611 0.04907 0.91165 0.0
C897 C 0.37593 0.99465 0.93774 0.0
C898 C 0.38393 1.01327 0.90315 0.0
C899 C 0.37057 0.03067 0.89608 0.0
C900 C 0.40612 1.01477 0.87431 0.0
C901 C 0.38908 0.97512 0.94387 0.0
C902 C 0.42283 1.01399 0.92916 0.0
C903 C 0.44366 1.0144 0.90231 0.0
C904 C 0.44842 0.01538 0.81964 0.0
C905 C 0.43162 0.01631 0.76482 0.0
C906 C 0.41075 0.01617 0.79187 0.0
H907 H 0.37922 0.96084 0.94867 0.0
H908 H 0.3995 0.97342 0.89094 0.0
H909 H 0.39902 0.97609 0.99845 0.0
H910 H 0.41974 1.01292 0.99303 0.0
H911 H 0.45606 1.01361 0.94657 0.0
H912 H 0.55003 0.27715 0.98062 0.0
H913 H 0.54452 0.31041 0.90972 0.0
H914 H 0.48469 0.317 0.02615 0.0
H915 H 0.49061 0.28382 0.0988 0.0
H916 H 0.51536 0.32654 0.8059 0.0
H917 H 0.49238 0.35245 0.08178 0.0
H918 H 0.5137 0.37057 0.09194 0.0
H919 H 0.51869 0.3428 0.08914 0.0
C920 C 0.53547 0.28546 0.98939 0.0
C921 C 0.5207 0.27778 0.04491 0.0
C922 C 0.53236 0.30458 0.94919 0.0
C923 C 0.51437 0.31665 0.96337 0.0
C924 C 0.49893 0.30832 0.01503 0.0
H925 H 0.48209 0.44591 0.83382 0.0
H926 H 0.48269 0.40996 0.88376 0.0
C927 C 0.5021 0.28914 0.05555 0.0
C928 C 0.51239 0.33817 0.92649 0.0
H929 H 0.508 0.39023 0.97275 0.0
C930 C 0.51372 0.34047 0.84248 0.0
C931 C 0.51015 0.35651 0.97358 0.0
C932 C 0.50883 0.35554 0.06409 0.0
C933 C 0.51253 0.3603 0.8045 0.0
C934 C 0.51078 0.37873 0.85165 0.0
C935 C 0.50941 0.37636 0.93577 0.0
C936 C 0.50995 0.40055 0.81583 0.0
C937 C 0.51247 0.36107 0.7139 0.0
C938 C 0.52493 0.40775 0.75976 0.0
C939 C 0.52431 0.42841 0.72937 0.0
C940 C 0.50904 0.44269 0.75579 0.0
C941 C 0.49412 0.43547 0.81181 0.0
C942 C 0.4945 0.41479 0.84088 0.0
H943 H 0.50681 0.34609 0.68788 0.0
H944 H 0.50244 0.37395 0.691 0.0
H945 H 0.52867 0.36362 0.69213 0.0
H946 H 0.5375 0.39758 0.7408 0.0
H947 H 0.53628 0.43342 0.68745 0.0
H948 H 0.25109 0.52292 0.9173 0.0
H949 H 0.21579 0.519 0.85977 0.0
H950 H 0.19185 0.50335 0.09466 0.0
H951 H 0.22702 0.5079 0.15167 0.0
H952 H 0.18673 0.48867 0.84712 0.0
H953 H 0.15424 0.55104 0.0403 0.0
H954 H 0.18186 0.54561 0.03567 0.0
H955 H 0.16491 0.52969 0.09716 0.0
C956 C 0.23832 0.51812 0.95591 0.0
C957 C 0.24182 0.51541 0.03866 0.0
C958 C 0.21808 0.51605 0.92329 0.0
C959 C 0.20081 0.51135 0.9728 0.0
C960 C 0.20461 0.50755 0.055 0.0
H961 H 0.06587 0.49895 0.9091 0.0
H962 H 0.10203 0.49913 0.9559 0.0
C963 C 0.22479 0.50976 0.08755 0.0
C964 C 0.17889 0.51096 0.93903 0.0
H965 H 0.12973 0.53135 0.96435 0.0
C966 C 0.17433 0.49812 0.87261 0.0
C967 C 0.16247 0.52329 0.97138 0.0
C968 C 0.16613 0.53836 0.03949 0.0
C969 C 0.15395 0.49684 0.83965 0.0
C970 C 0.13754 0.50899 0.87281 0.0
C971 C 0.14214 0.52194 0.93868 0.0
C972 C 0.11541 0.50828 0.84172 0.0
C973 C 0.15007 0.48198 0.77098 0.0
C974 C 0.1105 0.5135 0.76158 0.0
C975 C 0.08962 0.51342 0.73426 0.0
C976 C 0.07301 0.5082 0.78642 0.0
C977 C 0.07805 0.503 0.86661 0.0
C978 C 0.09885 0.50313 0.89377 0.0
H979 H 0.16254 0.46994 0.7665 0.0
H980 H 0.13476 0.47394 0.77773 0.0
H981 H 0.14984 0.49095 0.71378 0.0
H982 H 0.12278 0.51802 0.72027 0.0
H983 H 0.0865 0.51765 0.67234 0.0
H984 H 0.01536 0.76624 0.48853 0.0
H985 H 1.01003 0.80029 0.55461 0.0
H986 H 1.00286 0.82958 0.32234 0.0
H987 H 1.00812 0.79556 0.2574 0.0
H988 H 0.03407 0.83382 0.54584 0.0
H989 H 0.95611 0.85768 0.43692 0.0
H990 H 0.96568 0.83128 0.42592 0.0
H991 H 0.97314 0.85135 0.35508 0.0
C992 C 1.0119 0.7799 0.45219 0.0
C993 C 1.01162 0.77825 0.36809 0.0
C994 C 1.00907 0.79941 0.48974 0.0
C995 C 1.00571 0.81772 0.44399 0.0
C996 C 1.00477 0.81582 0.35974 0.0
H997 H 1.00595 0.95263 0.51602 0.0
H998 H 1.00505 0.91672 0.4661 0.0
C999 C 1.00778 0.79636 0.32236 0.0
C1000 C 1.00503 0.83893 0.48337 0.0
H1001 H 0.97774 0.88507 0.48994 0.0
C1002 C 0.02161 0.84492 0.53406 0.0
C1003 C 0.98884 0.85363 0.46869 0.0
C1004 C 0.96984 0.84809 0.41937 0.0
C1005 C 0.02301 0.86526 0.56677 0.0
C1006 C 1.00699 0.88006 0.55107 0.0
C1007 C 0.99013 0.87392 0.50201 0.0
C1008 C 1.00761 0.9021 0.5831 0.0
C1009 C 0.04217 0.87093 0.615 0.0
C1010 C 1.00915 0.90619 0.66604 0.0
C1011 C 1.00978 0.92688 0.69507 0.0
C1012 C 1.00867 0.94411 0.64202 0.0
C1013 C 1.00688 0.93992 0.55912 0.0
C1014 C 1.00632 0.91927 0.53024 0.0
H1015 H 0.05543 0.86021 0.60226 0.0
H1016 H 0.04726 0.88723 0.60215 0.0
H1017 H 0.03847 0.86967 0.67996 0.0
H1018 H 1.00968 0.89337 0.70868 0.0
H1019 H 1.01102 0.92935 0.75925 0.0
H1020 H 0.74619 0.05196 0.46637 0.0
H1021 H 0.71167 0.04724 0.52805 0.0
H1022 H 0.70157 0.99224 0.38378 0.0
H1023 H 0.73604 0.99741 0.32003 0.0
H1024 H 0.67187 0.04505 0.42913 0.0
H1025 H 0.6854 0.97611 0.62781 0.0
H1026 H 0.70645 0.99323 0.59667 0.0
H1027 H 0.69525 0.97521 0.52639 0.0
C1028 C 0.73676 0.03864 0.44894 0.0
C1029 C 0.74397 0.02494 0.38899 0.0
C1030 C 0.71698 0.03599 0.48398 0.0
C1031 C 0.70393 0.01935 0.46097 0.0
C1032 C 0.71139 1.00509 0.40328 0.0
H1033 H 0.56844 1.01088 0.53157 0.0
H1034 H 0.6039 1.0119 0.47789 0.0
C1035 C 0.73119 1.0079 0.3674 0.0
C1036 C 0.68218 0.01782 0.49425 0.0
H1037 H 0.65119 0.98991 0.62417 0.0
C1038 C 0.66737 0.033 0.47184 0.0
C1039 C 0.67623 1.00216 0.55016 0.0
C1040 C 0.69159 0.98573 0.57741 0.0
C1041 C 0.6469 0.03296 0.50354 0.0
C1042 C 0.64081 0.01715 0.55895 0.0
C1043 C 0.6557 1.00202 0.58176 0.0
C1044 C 0.61905 0.01601 0.59296 0.0
C1045 C 0.63209 0.05015 0.47845 0.0
C1046 C 0.61547 0.01745 0.67626 0.0
C1047 C 0.59499 0.01684 0.70763 0.0
C1048 C 0.57755 1.01456 0.65652 0.0
C1049 C 0.5813 1.01277 0.57326 0.0
C1050 C 0.60169 1.01345 0.5421 0.0
H1051 H 0.6406 0.06391 0.45388 0.0
H1052 H 0.62154 0.04419 0.43075 0.0
H1053 H 0.62234 0.05536 0.52978 0.0
H1054 H 0.62852 0.01934 0.71709 0.0
H1055 H 0.59286 0.01819 0.77195 0.0
H1056 H 0.48465 0.74397 0.42165 0.0
H1057 H 0.48395 0.7104 0.49277 0.0
H1058 H 0.55063 0.71441 0.52871 0.0
H1059 H 0.55101 0.74822 0.45778 0.0
H1060 H 0.54289 0.67877 0.46585 0.0
H1061 H 0.48512 0.68611 0.70952 0.0
H1062 H 0.4737 0.69362 0.61552 0.0
H1063 H 0.49507 0.70868 0.65644 0.0
C1064 C 0.49892 0.73822 0.44886 0.0
C1065 C 0.51777 0.74905 0.43588 0.0
C1066 C 0.49861 0.71882 0.48927 0.0
C1067 C 0.51726 0.70944 0.51692 0.0
C1068 C 0.53595 0.72099 0.50833 0.0
H1069 H 0.51543 0.58675 0.76854 0.0
H1070 H 0.51745 0.62414 0.73486 0.0
C1071 C 0.53616 0.74056 0.46887 0.0
C1072 C 0.51763 0.68685 0.5455 0.0
H1073 H 0.49235 0.65096 0.6651 0.0
C1074 C 0.532 0.67287 0.51045 0.0
C1075 C 0.50357 0.67869 0.60387 0.0
C1076 C 0.48867 0.69263 0.64905 0.0
C1077 C 0.53238 0.6513 0.53022 0.0
C1078 C 0.51756 0.64293 0.58531 0.0
C1079 C 0.50356 0.657 0.622 0.0
C1080 C 0.51639 0.61982 0.60593 0.0
C1081 C 0.54914 0.63783 0.493 0.0
C1082 C 0.51478 0.6045 0.54547 0.0
C1083 C 0.51383 0.58301 0.56469 0.0
C1084 C 0.51408 0.57601 0.64524 0.0
C1085 C 0.51524 0.59135 0.70586 0.0
C1086 C 0.51637 0.61288 0.68651 0.0
H1087 H 0.56281 0.64734 0.47363 0.0
H1088 H 0.55463 0.62562 0.53565 0.0
H1089 H 0.54277 0.62998 0.43895 0.0
H1090 H 0.51403 0.60911 0.48292 0.0
H1091 H 0.51269 0.57188 0.51594 0.0
H1092 H 0.78075 0.49272 0.32044 0.0
H1093 H 0.8145 0.48632 0.38771 0.0
H1094 H 0.80926 0.54599 0.50698 0.0
H1095 H 0.77491 0.55109 0.44651 0.0
H1096 H 0.84959 0.50338 0.37601 0.0
H1097 H 0.82894 0.51523 0.69314 0.0
H1098 H 0.8092 0.51329 0.61634 0.0
H1099 H 0.82169 0.53808 0.63744 0.0
C1100 C 0.78649 0.50396 0.36376 0.0
C1101 C 0.7751 0.52235 0.37865 0.0
C1102 C 0.80598 0.50051 0.40139 0.0
C1103 C 0.81467 0.51549 0.4542 0.0
C1104 C 0.80297 0.5337 0.46945 0.0
H1105 H 0.94945 0.52905 0.52962 0.0
H1106 H 0.91345 0.52969 0.48116 0.0
C1107 C 0.78334 0.5368 0.43378 0.0
C1108 C 0.83634 0.51284 0.48921 0.0
H1109 H 0.86539 0.5201 0.66024 0.0
C1110 C 0.85288 0.50677 0.43854 0.0
C1111 C 0.84104 0.51674 0.57136 0.0
C1112 C 0.8242 0.52094 0.63269 0.0
C1113 C 0.87367 0.50507 0.46661 0.0
C1114 C 0.87861 0.51076 0.54693 0.0
C1115 C 0.862 0.51619 0.59822 0.0
C1116 C 0.90073 0.51112 0.57886 0.0
C1117 C 0.88999 0.4965 0.41013 0.0
C1118 C 0.90585 0.50171 0.65315 0.0
C1119 C 0.92652 0.50204 0.68275 0.0
C1120 C 0.94271 0.51152 0.63831 0.0
C1121 C 0.93751 0.52126 0.56492 0.0
C1122 C 0.91683 0.52139 0.53644 0.0
H1123 H 0.88281 0.48666 0.36257 0.0
H1124 H 0.89818 0.50964 0.37992 0.0
H1125 H 0.90174 0.48695 0.44287 0.0
H1126 H 0.8939 0.49382 0.68803 0.0
H1127 H 0.9299 0.49439 0.73946 0.0
loop_
_geom_bond_atom_site_label_1
_geom_bond_atom_site_label_2
_geom_bond_distance
_geom_bond_site_symmetry_2
_ccdc_geom_bond_type
C0 N1 1.317 . S
C0 N2 1.348 . S
C0 C3 1.485 . S
N1 C0 1.317 . S
N1 N5 1.370 . S
N2 C0 1.348 . S
N2 C4 1.346 . S
C3 C0 1.485 . S
C3 H7 0.960 . S
C3 H8 0.961 . S
C3 H9 0.960 . S
C4 N2 1.346 . S
C4 N5 1.307 . S
C4 C6 1.486 . S
N5 N1 1.370 . S
N5 C4 1.307 . S
C6 C4 1.486 . S
C6 H10 0.960 . S
C6 H11 0.960 . S
C6 H12 0.959 . S
H7 C3 0.960 . S
H8 C3 0.961 . S
H9 C3 0.960 . S
H10 C6 0.960 . S
H11 C6 0.960 . S
H12 C6 0.959 . S
C13 N14 1.317 . S
C13 N15 1.350 . S
C13 C16 1.485 . S
N14 C13 1.317 . S
N14 N18 1.371 . S
N15 C13 1.350 . S
N15 C17 1.345 1_655 S
C16 C13 1.485 . S
C16 H20 0.960 1_655 S
C16 H21 0.961 . S
C16 H22 0.960 . S
C17 N15 1.345 1_455 S
C17 N18 1.307 1_455 S
C17 C19 1.486 . S
N18 N14 1.371 . S
N18 C17 1.307 1_655 S
C19 C17 1.486 . S
C19 H23 0.925 1_455 S
C19 H24 0.989 . S
C19 H25 0.967 . S
H20 C16 0.960 1_455 S
H21 C16 0.961 . S
H22 C16 0.960 . S
H23 C19 0.925 1_655 S
H24 C19 0.989 . S
H25 C19 0.967 . S
C26 N27 1.317 . S
C26 N28 1.350 . S
C26 C29 1.485 . S
N27 C26 1.317 . S
N27 N31 1.371 . S
N28 C26 1.350 . S
N28 C30 1.345 1_565 S
C29 C26 1.485 . S
C29 H33 0.960 1_565 S
C29 H34 0.961 . S
C29 H35 0.960 . S
C30 N28 1.345 1_545 S
C30 N31 1.307 1_545 S
C30 C32 1.486 . S
N31 N27 1.371 . S
N31 C30 1.307 1_565 S
C32 C30 1.486 . S
C32 H36 0.925 1_545 S
C32 H37 0.989 . S
C32 H38 0.967 . S
H33 C29 0.960 1_545 S
H34 C29 0.961 . S
H35 C29 0.960 . S
H36 C32 0.925 1_565 S
H37 C32 0.989 . S
H38 C32 0.967 . S
C39 N40 1.317 . S
C39 N41 1.348 . S
C39 C42 1.485 . S
N40 C39 1.317 . S
N40 N44 1.370 . S
N41 C39 1.348 . S
N41 C43 1.346 . S
C42 C39 1.485 . S
C42 H46 0.960 . S
C42 H47 0.961 . S
C42 H48 0.960 . S
C43 N41 1.346 . S
C43 N44 1.307 . S
C43 C45 1.486 . S
N44 N40 1.370 . S
N44 C43 1.307 . S
C45 C43 1.486 . S
C45 H49 0.960 . S
C45 H50 0.960 . S
C45 H51 0.959 . S
H46 C42 0.960 . S
H47 C42 0.961 . S
H48 C42 0.960 . S
H49 C45 0.960 . S
H50 C45 0.960 . S
H51 C45 0.959 . S
C52 N53 1.316 1_556 S
C52 N54 1.342 1_556 S
C52 C55 1.491 . S
N53 C52 1.316 1_554 S
N53 N57 1.370 . S
N54 C52 1.342 1_554 S
N54 C56 1.346 . S
C55 C52 1.491 . S
C55 H59 0.960 . S
C55 H60 0.961 . S
C55 H61 0.960 . S
C56 N54 1.346 . S
C56 N57 1.307 . S
C56 C58 1.486 . S
N57 N53 1.370 . S
N57 C56 1.307 . S
C58 C56 1.486 . S
C58 H62 0.960 . S
C58 H63 0.960 . S
C58 H64 0.959 . S
H59 C55 0.960 . S
H60 C55 0.961 . S
H61 C55 0.960 . S
H62 C58 0.960 . S
H63 C58 0.960 . S
H64 C58 0.959 . S
C65 N66 1.317 . S
C65 N67 1.350 . S
C65 C68 1.485 1_554 S
N66 C65 1.317 . S
N66 N70 1.370 . S
N67 C65 1.350 . S
N67 C69 1.345 1_655 S
C68 C65 1.485 1_556 S
C68 H72 0.960 1_655 S
C68 H73 0.961 . S
C68 H74 0.960 . S
C69 N67 1.345 1_455 S
C69 N70 1.307 1_455 S
C69 C71 1.485 . S
N70 N66 1.370 . S
N70 C69 1.307 1_655 S
C71 C69 1.485 . S
C71 H75 0.913 1_455 S
C71 H76 0.999 . S
C71 H77 0.970 . S
H72 C68 0.960 1_455 S
H73 C68 0.961 . S
H74 C68 0.960 . S
H75 C71 0.913 1_655 S
H76 C71 0.999 . S
H77 C71 0.970 . S
C78 N79 1.318 . S
C78 N80 1.357 . S
C78 C81 1.477 1_554 S
N79 C78 1.318 . S
N79 N83 1.370 . S
N80 C78 1.357 . S
N80 C82 1.345 1_565 S
C81 C78 1.477 1_556 S
C81 H85 0.960 1_565 S
C81 H86 0.961 . S
C81 H87 0.960 . S
C82 N80 1.345 1_545 S
C82 N83 1.307 1_545 S
C82 C84 1.485 . S
N83 N79 1.370 . S
N83 C82 1.307 1_565 S
C84 C82 1.485 . S
C84 H88 0.913 1_545 S
C84 H89 0.999 . S
C84 H90 0.970 . S
H85 C81 0.960 1_545 S
H86 C81 0.961 . S
H87 C81 0.960 . S
H88 C84 0.913 1_565 S
H89 C84 0.999 . S
H90 C84 0.970 . S
C91 N92 1.317 1_556 S
C91 N93 1.348 1_556 S
C91 C94 1.485 . S
N92 C91 1.317 1_554 S
N92 N96 1.370 . S
N93 C91 1.348 1_554 S
N93 C95 1.346 . S
C94 C91 1.485 . S
C94 H98 0.960 . S
C94 H99 0.961 . S
C94 H100 0.960 . S
C95 N93 1.346 . S
C95 N96 1.307 . S
C95 C97 1.486 . S
N96 N92 1.370 . S
N96 C95 1.307 . S
C97 C95 1.486 . S
C97 H101 0.960 . S
C97 H102 0.960 . S
C97 H103 0.959 . S
H98 C94 0.960 . S
H99 C94 0.961 . S
H100 C94 0.960 . S
H101 C97 0.960 . S
H102 C97 0.960 . S
H103 C97 0.959 . S
C104 Eu105 2.835 . S
C104 C106 1.500 . S
C104 O124 1.275 . S
C104 O125 1.260 . S
Eu105 C104 2.835 . S
Eu105 O124 2.480 . S
Eu105 O125 2.480 . S
Eu105 O126 2.430 . S
Eu105 O127 2.670 1_545 S
Eu105 O128 2.394 . S
Eu105 O133 2.355 1_655 S
Eu105 O135 2.374 1_545 S
C106 C104 1.500 . S
C106 C107 1.377 . S
C106 C111 1.377 . S
C107 C106 1.377 . S
C107 C108 1.395 . S
C107 H136 0.931 . S
C108 C107 1.395 . S
C108 C109 1.383 . S
C108 H137 0.931 . S
C109 C108 1.383 . S
C109 C110 1.394 . S
C110 C109 1.394 . S
C110 C111 1.378 . S
C110 H138 0.931 1_655 S
C111 C106 1.377 . S
C111 C110 1.378 . S
C111 H139 0.931 1_655 S
C112 O126 1.284 . S
C112 O127 1.252 1_545 S
C113 O128 1.251 1_455 S
C113 O129 1.251 . S
C114 Eu115 2.835 . S
C114 C116 1.500 . S
C114 O130 1.287 . S
C114 O131 1.260 . S
Eu115 C114 2.835 . S
Eu115 O127 2.355 1_455 S
Eu115 O129 2.374 1_565 S
Eu115 O130 2.486 . S
Eu115 O131 2.480 . S
Eu115 O132 2.430 . S
Eu115 O133 2.670 1_565 S
Eu115 O134 2.394 . S
C116 C114 1.500 . S
C116 C117 1.377 . S
C116 C121 1.377 . S
C117 C116 1.377 . S
C117 C118 1.395 . S
C117 H140 0.931 . S
C118 C117 1.395 . S
C118 C119 1.383 1_556 S
C118 H141 0.931 . S
C119 C118 1.383 1_554 S
C119 C120 1.394 1_554 S
C120 C119 1.394 1_556 S
C120 C121 1.378 . S
C120 H142 0.931 1_456 S
C121 C116 1.377 . S
C121 C120 1.378 . S
C121 H143 0.931 1_455 S
C122 O132 1.278 . S
C122 O133 1.257 1_565 S
C123 O134 1.251 1_655 S
C123 O135 1.251 . S
O124 C104 1.275 . S
O124 Eu105 2.480 . S
O125 C104 1.260 . S
O125 Eu105 2.480 . S
O126 Eu105 2.430 . S
O126 C112 1.284 . S
O127 Eu105 2.670 1_565 S
O127 C112 1.252 1_565 S
O127 Eu115 2.355 1_655 S
O128 Eu105 2.394 . S
O128 C113 1.251 1_655 S
O129 C113 1.251 . S
O129 Eu115 2.374 1_545 S
O130 C114 1.287 . S
O130 Eu115 2.486 . S
O131 C114 1.260 . S
O131 Eu115 2.480 . S
O132 Eu115 2.430 . S
O132 C122 1.278 . S
O133 Eu105 2.355 1_455 S
O133 Eu115 2.670 1_545 S
O133 C122 1.257 1_545 S
O134 Eu115 2.394 . S
O134 C123 1.251 1_455 S
O135 Eu105 2.374 1_565 S
O135 C123 1.251 . S
H136 C107 0.931 . S
H137 C108 0.931 . S
H138 C110 0.931 1_455 S
H139 C111 0.931 1_455 S
H140 C117 0.931 . S
H141 C118 0.931 . S
H142 C120 0.931 1_654 S
H143 C121 0.931 1_655 S
C144 Eu145 2.835 . S
C144 C146 1.500 . S
C144 O164 1.268 . S
C144 O165 1.260 . S
Eu145 C144 2.835 . S
Eu145 O164 2.477 . S
Eu145 O165 2.480 . S
Eu145 O166 2.430 . S
Eu145 O167 2.670 . S
Eu145 O168 2.394 . S
Eu145 O173 2.355 1_565 S
Eu145 O175 2.374 . S
C146 C144 1.500 . S
C146 C147 1.377 . S
C146 C151 1.377 . S
C147 C146 1.377 . S
C147 C148 1.395 . S
C147 H176 0.931 . S
C148 C147 1.395 . S
C148 C149 1.383 . S
C148 H177 0.931 . S
C149 C148 1.383 . S
C149 C150 1.394 . S
C150 C149 1.394 . S
C150 C151 1.378 . S
C150 H178 0.931 1_565 S
C151 C146 1.377 . S
C151 C150 1.378 . S
C151 H179 0.931 1_565 S
C152 O166 1.259 . S
C152 O167 1.270 . S
C153 O168 1.251 1_545 S
C153 O169 1.251 . S
C154 Eu155 2.835 . S
C154 C156 1.500 . S
C154 O170 1.279 . S
C154 O171 1.260 . S
Eu155 C154 2.835 . S
Eu155 O167 2.355 1_545 S
Eu155 O169 2.374 . S
Eu155 O170 2.483 . S
Eu155 O171 2.480 . S
Eu155 O172 2.430 . S
Eu155 O173 2.670 . S
Eu155 O174 2.394 . S
C156 C154 1.500 . S
C156 C157 1.377 . S
C156 C161 1.377 . S
C157 C156 1.377 . S
C157 C158 1.395 . S
C157 H180 0.931 . S
C158 C157 1.395 . S
C158 C159 1.383 1_556 S
C158 H181 0.931 . S
C159 C158 1.383 1_554 S
C159 C160 1.394 1_554 S
C160 C159 1.394 1_556 S
C160 C161 1.378 . S
C160 H182 0.931 1_546 S
C161 C156 1.377 . S
C161 C160 1.378 . S
C161 H183 0.931 1_545 S
C162 O172 1.259 . S
C162 O173 1.270 . S
C163 O174 1.251 1_565 S
C163 O175 1.251 . S
O164 C144 1.268 . S
O164 Eu145 2.477 . S
O165 C144 1.260 . S
O165 Eu145 2.480 . S
O166 Eu145 2.430 . S
O166 C152 1.259 . S
O167 Eu145 2.670 . S
O167 C152 1.270 . S
O167 Eu155 2.355 1_565 S
O168 Eu145 2.394 . S
O168 C153 1.251 1_565 S
O169 C153 1.251 . S
O169 Eu155 2.374 . S
O170 C154 1.279 . S
O170 Eu155 2.483 . S
O171 C154 1.260 . S
O171 Eu155 2.480 . S
O172 Eu155 2.430 . S
O172 C162 1.259 . S
O173 Eu145 2.355 1_545 S
O173 Eu155 2.670 . S
O173 C162 1.270 . S
O174 Eu155 2.394 . S
O174 C163 1.251 1_545 S
O175 Eu145 2.374 . S
O175 C163 1.251 . S
H176 C147 0.931 . S
H177 C148 0.931 . S
H178 C150 0.931 1_545 S
H179 C151 0.931 1_545 S
H180 C157 0.931 . S
H181 C158 0.931 . S
H182 C160 0.931 1_564 S
H183 C161 0.931 1_565 S
C184 Eu185 2.835 . S
C184 C186 1.500 . S
C184 O204 1.257 . S
C184 O205 1.260 . S
Eu185 C184 2.835 . S
Eu185 O204 2.473 . S
Eu185 O205 2.480 . S
Eu185 O206 2.430 . S
Eu185 O207 2.670 . S
Eu185 O208 2.394 . S
Eu185 O213 2.355 . S
Eu185 O215 2.374 . S
C186 C184 1.500 . S
C186 C187 1.377 . S
C186 C191 1.377 . S
C187 C186 1.377 . S
C187 C188 1.395 . S
C187 H216 0.931 . S
C188 C187 1.395 . S
C188 C189 1.383 . S
C188 H217 0.931 . S
C189 C188 1.383 . S
C189 C190 1.394 . S
C190 C189 1.394 . S
C190 C191 1.378 . S
C190 H218 0.931 . S
C191 C186 1.377 . S
C191 C190 1.378 . S
C191 H219 0.931 . S
C192 O206 1.259 . S
C192 O207 1.270 . S
C193 O208 1.251 . S
C193 O209 1.251 . S
C194 Eu195 2.835 . S
C194 C196 1.500 . S
C194 O210 1.257 . S
C194 O211 1.260 . S
Eu195 C194 2.835 . S
Eu195 O207 2.355 . S
Eu195 O209 2.374 . S
Eu195 O210 2.473 . S
Eu195 O211 2.480 . S
Eu195 O212 2.430 . S
Eu195 O213 2.670 . S
Eu195 O214 2.394 . S
C196 C194 1.500 . S
C196 C197 1.377 . S
C196 C201 1.377 . S
C197 C196 1.377 . S
C197 C198 1.395 . S
C197 H220 0.931 . S
C198 C197 1.395 . S
C198 C199 1.383 1_556 S
C198 H221 0.931 . S
C199 C198 1.383 1_554 S
C199 C200 1.394 1_554 S
C200 C199 1.394 1_556 S
C200 C201 1.378 . S
C200 H222 0.931 1_556 S
C201 C196 1.377 . S
C201 C200 1.378 . S
C201 H223 0.931 . S
C202 O212 1.259 . S
C202 O213 1.270 . S
C203 O214 1.251 . S
C203 O215 1.251 . S
O204 C184 1.257 . S
O204 Eu185 2.473 . S
O205 C184 1.260 . S
O205 Eu185 2.480 . S
O206 Eu185 2.430 . S
O206 C192 1.259 . S
O207 Eu185 2.670 . S
O207 C192 1.270 . S
O207 Eu195 2.355 . S
O208 Eu185 2.394 . S
O208 C193 1.251 . S
O209 C193 1.251 . S
O209 Eu195 2.374 . S
O210 C194 1.257 . S
O210 Eu195 2.473 . S
O211 C194 1.260 . S
O211 Eu195 2.480 . S
O212 Eu195 2.430 . S
O212 C202 1.259 . S
O213 Eu185 2.355 . S
O213 Eu195 2.670 . S
O213 C202 1.270 . S
O214 Eu195 2.394 . S
O214 C203 1.251 . S
O215 Eu185 2.374 . S
O215 C203 1.251 . S
H216 C187 0.931 . S
H217 C188 0.931 . S
H218 C190 0.931 . S
H219 C191 0.931 . S
H220 C197 0.931 . S
H221 C198 0.931 . S
H222 C200 0.931 1_554 S
H223 C201 0.931 . S
C224 Eu225 2.835 . S
C224 C226 1.500 . S
C224 O244 1.257 . S
C224 O245 1.260 . S
Eu225 C224 2.835 . S
Eu225 O244 2.473 . S
Eu225 O245 2.480 . S
Eu225 O246 2.430 . S
Eu225 O247 2.670 1_455 S
Eu225 O248 2.394 . S
Eu225 O253 2.355 . S
Eu225 O255 2.374 1_455 S
C226 C224 1.500 . S
C226 C227 1.377 . S
C226 C231 1.377 . S
C227 C226 1.377 . S
C227 C228 1.395 . S
C227 H256 0.931 . S
C228 C227 1.395 . S
C228 C229 1.383 . S
C228 H257 0.931 . S
C229 C228 1.383 . S
C229 C230 1.394 . S
C230 C229 1.394 . S
C230 C231 1.378 . S
C230 H258 0.931 . S
C231 C226 1.377 . S
C231 C230 1.378 . S
C231 H259 0.931 . S
C232 O246 1.275 . S
C232 O247 1.258 1_455 S
C233 O248 1.251 . S
C233 O249 1.251 . S
C234 Eu235 2.835 . S
C234 C236 1.500 . S
C234 O250 1.257 . S
C234 O251 1.260 . S
Eu235 C234 2.835 . S
Eu235 O247 2.355 . S
Eu235 O249 2.374 1_655 S
Eu235 O250 2.473 . S
Eu235 O251 2.480 . S
Eu235 O252 2.430 . S
Eu235 O253 2.670 1_655 S
Eu235 O254 2.394 . S
C236 C234 1.500 . S
C236 C237 1.377 . S
C236 C241 1.377 . S
C237 C236 1.377 . S
C237 C238 1.395 . S
C237 H260 0.931 . S
C238 C237 1.395 . S
C238 C239 1.383 1_556 S
C238 H261 0.931 . S
C239 C238 1.383 1_554 S
C239 C240 1.394 1_554 S
C240 C239 1.394 1_556 S
C240 C241 1.378 . S
C240 H262 0.931 1_556 S
C241 C236 1.377 . S
C241 C240 1.378 . S
C241 H263 0.931 . S
C242 O252 1.269 . S
C242 O253 1.263 1_655 S
C243 O254 1.251 . S
C243 O255 1.251 . S
O244 C224 1.257 . S
O244 Eu225 2.473 . S
O245 C224 1.260 . S
O245 Eu225 2.480 . S
O246 Eu225 2.430 . S
O246 C232 1.275 . S
O247 Eu225 2.670 1_655 S
O247 C232 1.258 1_655 S
O247 Eu235 2.355 . S
O248 Eu225 2.394 . S
O248 C233 1.251 . S
O249 C233 1.251 . S
O249 Eu235 2.374 1_455 S
O250 C234 1.257 . S
O250 Eu235 2.473 . S
O251 C234 1.260 . S
O251 Eu235 2.480 . S
O252 Eu235 2.430 . S
O252 C242 1.269 . S
O253 Eu225 2.355 . S
O253 Eu235 2.670 1_455 S
O253 C242 1.263 1_455 S
O254 Eu235 2.394 . S
O254 C243 1.251 . S
O255 Eu225 2.374 1_655 S
O255 C243 1.251 . S
H256 C227 0.931 . S
H257 C228 0.931 . S
H258 C230 0.931 . S
H259 C231 0.931 . S
H260 C237 0.931 . S
H261 C238 0.931 . S
H262 C240 0.931 1_554 S
H263 C241 0.931 . S
H264 C272 0.929 . S
H265 C274 0.930 . S
H266 C276 0.934 . S
H267 C279 0.929 . S
H268 C282 0.930 . S
H269 C284 0.960 . S
H270 C284 0.960 . S
H271 C284 0.960 . S
C272 H264 0.929 . S
C272 C273 1.378 . S
C272 C274 1.384 . S
C273 C272 1.378 . S
C273 C279 1.390 1_565 S
C274 H265 0.930 . S
C274 C272 1.384 . S
C274 C275 1.372 . S
C275 C274 1.372 . S
C275 C276 1.398 1_565 S
C275 C280 1.489 1_565 S
C276 H266 0.934 . S
C276 C275 1.398 1_545 S
C276 C279 1.387 . S
H277 C293 0.930 . S
H278 C294 0.931 . S
C279 H267 0.929 . S
C279 C273 1.390 1_545 S
C279 C276 1.387 . S
C280 C275 1.489 1_545 S
C280 C282 1.419 . S
C280 C283 1.380 1_545 S
H281 C287 0.930 . S
C282 H268 0.930 . S
C282 C280 1.419 . S
C282 C285 1.403 . S
C283 C280 1.380 1_565 S
C283 C284 1.524 . S
C283 C287 1.400 . S
C284 H269 0.960 . S
C284 H270 0.960 . S
C284 H271 0.960 . S
C284 C283 1.524 . S
C285 C282 1.403 . S
C285 C286 1.392 . S
C285 C289 1.495 . S
C286 C285 1.392 . S
C286 C287 1.385 1_545 S
C286 C288 1.478 . S
C287 H281 0.930 . S
C287 C283 1.400 . S
C287 C286 1.385 1_565 S
C288 C286 1.478 . S
C288 C290 1.381 . S
C288 C294 1.383 . S
C289 C285 1.495 . S
C289 H295 0.959 . S
C289 H296 0.961 . S
C289 H297 0.960 . S
C290 C288 1.381 . S
C290 C291 1.394 1_545 S
C290 H298 0.930 1_545 S
C291 C290 1.394 1_565 S
C291 C292 1.383 1_565 S
C291 H299 0.929 . S
C292 C291 1.383 1_545 S
C292 C293 1.377 . S
C293 H277 0.930 . S
C293 C292 1.377 . S
C293 C294 1.379 . S
C294 H278 0.931 . S
C294 C288 1.383 . S
C294 C293 1.379 . S
H295 C289 0.959 . S
H296 C289 0.961 . S
H297 C289 0.960 . S
H298 C290 0.930 1_565 S
H299 C291 0.929 . S
H300 C308 0.929 . S
H301 C310 0.930 . S
H302 C312 0.930 . S
H303 C315 0.929 . S
H304 C318 0.930 . S
H305 C320 0.960 . S
H306 C320 0.960 . S
H307 C320 0.960 . S
C308 H300 0.929 . S
C308 C309 1.377 . S
C308 C310 1.384 . S
C309 C308 1.377 . S
C309 C315 1.390 . S
C310 H301 0.930 . S
C310 C308 1.384 . S
C310 C311 1.372 . S
C311 C310 1.372 . S
C311 C312 1.400 . S
C311 C316 1.490 . S
C312 H302 0.930 . S
C312 C311 1.400 . S
C312 C315 1.386 . S
H313 C329 0.930 . S
H314 C330 0.931 . S
C315 H303 0.929 . S
C315 C309 1.390 . S
C315 C312 1.386 . S
C316 C311 1.490 . S
C316 C318 1.395 . S
C316 C319 1.403 . S
H317 C323 0.930 . S
C318 H304 0.930 . S
C318 C316 1.395 . S
C318 C321 1.403 . S
C319 C316 1.403 . S
C319 C320 1.524 . S
C319 C323 1.400 . S
C320 H305 0.960 . S
C320 H306 0.960 . S
C320 H307 0.960 . S
C320 C319 1.524 . S
C321 C318 1.403 . S
C321 C322 1.392 . S
C321 C325 1.495 . S
C322 C321 1.392 . S
C322 C323 1.385 . S
C322 C324 1.478 . S
C323 H317 0.930 . S
C323 C319 1.400 . S
C323 C322 1.385 . S
C324 C322 1.478 . S
C324 C326 1.381 . S
C324 C330 1.383 . S
C325 C321 1.495 . S
C325 H331 0.959 . S
C325 H332 0.961 . S
C325 H333 0.960 . S
C326 C324 1.381 . S
C326 C327 1.394 . S
C326 H334 0.930 . S
C327 C326 1.394 . S
C327 C328 1.383 . S
C327 H335 0.929 . S
C328 C327 1.383 . S
C328 C329 1.377 . S
C329 H313 0.930 . S
C329 C328 1.377 . S
C329 C330 1.379 . S
C330 H314 0.931 . S
C330 C324 1.383 . S
C330 C329 1.379 . S
H331 C325 0.959 . S
H332 C325 0.961 . S
H333 C325 0.960 . S
H334 C326 0.930 . S
H335 C327 0.929 . S
H336 C344 0.929 . S
H337 C346 0.930 . S
H338 C348 0.930 . S
H339 C351 0.929 . S
H340 C354 0.930 . S
H341 C356 0.960 . S
H342 C356 0.960 . S
H343 C356 0.960 . S
C344 H336 0.929 . S
C344 C345 1.377 . S
C344 C346 1.384 . S
C345 C344 1.377 . S
C345 C351 1.390 . S
C346 H337 0.930 . S
C346 C344 1.384 . S
C346 C347 1.372 . S
C347 C346 1.372 . S
C347 C348 1.400 . S
C347 C352 1.490 . S
C348 H338 0.930 . S
C348 C347 1.400 . S
C348 C351 1.386 . S
H349 C365 0.930 . S
H350 C366 0.931 . S
C351 H339 0.929 . S
C351 C345 1.390 . S
C351 C348 1.386 . S
C352 C347 1.490 . S
C352 C354 1.395 . S
C352 C355 1.403 . S
H353 C359 0.930 . S
C354 H340 0.930 . S
C354 C352 1.395 . S
C354 C357 1.403 . S
C355 C352 1.403 . S
C355 C356 1.524 . S
C355 C359 1.400 . S
C356 H341 0.960 . S
C356 H342 0.960 . S
C356 H343 0.960 . S
C356 C355 1.524 . S
C357 C354 1.403 . S
C357 C358 1.392 . S
C357 C361 1.495 . S
C358 C357 1.392 . S
C358 C359 1.385 . S
C358 C360 1.478 . S
C359 H353 0.930 . S
C359 C355 1.400 . S
C359 C358 1.385 . S
C360 C358 1.478 . S
C360 C362 1.381 . S
C360 C366 1.383 . S
C361 C357 1.495 . S
C361 H367 0.959 . S
C361 H368 0.961 . S
C361 H369 0.960 . S
C362 C360 1.381 . S
C362 C363 1.394 . S
C362 H370 0.930 . S
C363 C362 1.394 . S
C363 C364 1.383 . S
C363 H371 0.929 . S
C364 C363 1.383 . S
C364 C365 1.377 . S
C365 H349 0.930 . S
C365 C364 1.377 . S
C365 C366 1.379 . S
C366 H350 0.931 . S
C366 C360 1.383 . S
C366 C365 1.379 . S
H367 C361 0.959 . S
H368 C361 0.961 . S
H369 C361 0.960 . S
H370 C362 0.930 . S
H371 C363 0.929 . S
H372 C380 0.929 . S
H373 C382 0.930 . S
H374 C384 0.930 . S
H375 C387 0.929 . S
H376 C390 0.930 . S
H377 C392 0.960 . S
H378 C392 0.960 . S
H379 C392 0.960 . S
C380 H372 0.929 . S
C380 C381 1.379 1_455 S
C380 C382 1.384 . S
C381 C380 1.379 1_655 S
C381 C387 1.388 . S
C382 H373 0.930 . S
C382 C380 1.384 . S
C382 C383 1.381 . S
C383 C382 1.381 . S
C383 C384 1.391 1_455 S
C383 C388 1.491 . S
C384 H374 0.930 . S
C384 C383 1.391 1_655 S
C384 C387 1.386 . S
H385 C401 0.930 . S
H386 C402 0.939 . S
C387 H375 0.929 . S
C387 C381 1.388 . S
C387 C384 1.386 . S
C388 C383 1.491 . S
C388 C390 1.395 . S
C388 C391 1.403 1_455 S
H389 C395 0.930 . S
C390 H376 0.930 . S
C390 C388 1.395 . S
C390 C393 1.403 . S
C391 C388 1.403 1_655 S
C391 C392 1.524 . S
C391 C395 1.400 . S
C392 H377 0.960 . S
C392 H378 0.960 . S
C392 H379 0.960 . S
C392 C391 1.524 . S
C393 C390 1.403 . S
C393 C394 1.392 . S
C393 C397 1.495 . S
C394 C393 1.392 . S
C394 C395 1.385 1_455 S
C394 C396 1.478 . S
C395 H389 0.930 . S
C395 C391 1.400 . S
C395 C394 1.385 1_655 S
C396 C394 1.478 . S
C396 C398 1.381 . S
C396 C402 1.374 1_455 S
C397 C393 1.495 . S
C397 H403 0.959 . S
C397 H404 0.961 . S
C397 H405 0.960 . S
C398 C396 1.381 . S
C398 C399 1.394 . S
C398 H406 0.930 . S
C399 C398 1.394 . S
C399 C400 1.383 . S
C399 H407 0.929 . S
C400 C399 1.383 . S
C400 C401 1.377 1_455 S
C401 H385 0.930 . S
C401 C400 1.377 1_655 S
C401 C402 1.382 . S
C402 H386 0.939 . S
C402 C396 1.374 1_655 S
C402 C401 1.382 . S
H403 C397 0.959 . S
H404 C397 0.961 . S
H405 C397 0.960 . S
H406 C398 0.930 . S
H407 C399 0.929 . S
H408 C416 0.929 . S
H409 C418 0.930 . S
H410 C420 0.930 . S
H411 C423 0.929 . S
H412 C426 0.930 . S
H413 C428 0.960 . S
H414 C428 0.960 . S
H415 C428 0.960 1_545 S
C416 H408 0.929 . S
C416 C417 1.384 . S
C416 C418 1.384 . S
C417 C416 1.384 . S
C417 C423 1.383 1_565 S
C418 H409 0.930 . S
C418 C416 1.384 . S
C418 C419 1.372 . S
C419 C418 1.372 . S
C419 C420 1.400 1_565 S
C419 C424 1.491 . S
C420 H410 0.930 . S
C420 C419 1.400 1_545 S
C420 C423 1.386 . S
H421 C437 0.930 . S
H422 C438 0.931 1_554 S
C423 H411 0.929 . S
C423 C417 1.383 1_545 S
C423 C420 1.386 . S
C424 C419 1.491 . S
C424 C426 1.387 1_565 S
C424 C427 1.412 . S
H425 C431 0.930 . S
C426 H412 0.930 . S
C426 C424 1.387 1_545 S
C426 C429 1.403 1_554 S
C427 C424 1.412 . S
C427 C428 1.524 . S
C427 C431 1.400 . S
C428 H413 0.960 . S
C428 H414 0.960 . S
C428 H415 0.960 1_565 S
C428 C427 1.524 . S
C429 C426 1.403 1_556 S
C429 C430 1.391 1_556 S
C429 C433 1.496 . S
C430 C429 1.391 1_554 S
C430 C431 1.386 1_545 S
C430 C432 1.477 1_554 S
C431 H425 0.930 . S
C431 C427 1.400 . S
C431 C430 1.386 1_565 S
C432 C430 1.477 1_556 S
C432 C434 1.361 1_545 S
C432 C438 1.402 . S
C433 C429 1.496 . S
C433 H439 0.959 . S
C433 H440 0.961 . S
C433 H441 0.960 1_545 S
C434 C432 1.361 1_565 S
C434 C435 1.394 . S
C434 H442 0.930 . S
C435 C434 1.394 . S
C435 C436 1.381 1_565 S
C435 H443 0.929 . S
C436 C435 1.381 1_545 S
C436 C437 1.379 . S
C437 H421 0.930 . S
C437 C436 1.379 . S
C437 C438 1.379 . S
C438 H422 0.931 1_556 S
C438 C432 1.402 . S
C438 C437 1.379 . S
H439 C433 0.959 . S
H440 C433 0.961 . S
H441 C433 0.960 1_565 S
H442 C434 0.930 . S
H443 C435 0.929 . S
H444 C452 0.929 . S
H445 C454 0.930 . S
H446 C456 0.930 . S
H447 C459 0.929 . S
H448 C462 0.930 . S
H449 C464 0.960 . S
H450 C464 0.960 . S
H451 C464 0.960 . S
C452 H444 0.929 . S
C452 C453 1.377 . S
C452 C454 1.384 . S
C453 C452 1.377 . S
C453 C459 1.390 . S
C454 H445 0.930 . S
C454 C452 1.384 . S
C454 C455 1.372 . S
C455 C454 1.372 . S
C455 C456 1.400 . S
C455 C460 1.490 . S
C456 H446 0.930 . S
C456 C455 1.400 . S
C456 C459 1.386 . S
H457 C473 0.930 . S
H458 C474 0.931 . S
C459 H447 0.929 . S
C459 C453 1.390 . S
C459 C456 1.386 . S
C460 C455 1.490 . S
C460 C462 1.395 . S
C460 C463 1.403 . S
H461 C467 0.930 . S
C462 H448 0.930 . S
C462 C460 1.395 . S
C462 C465 1.403 . S
C463 C460 1.403 . S
C463 C464 1.524 . S
C463 C467 1.400 . S
C464 H449 0.960 . S
C464 H450 0.960 . S
C464 H451 0.960 . S
C464 C463 1.524 . S
C465 C462 1.403 . S
C465 C466 1.392 . S
C465 C469 1.495 1_554 S
C466 C465 1.392 . S
C466 C467 1.385 . S
C466 C468 1.478 1_554 S
C467 H461 0.930 . S
C467 C463 1.400 . S
C467 C466 1.385 . S
C468 C466 1.478 1_556 S
C468 C470 1.381 . S
C468 C474 1.383 . S
C469 C465 1.495 1_556 S
C469 H475 0.959 . S
C469 H476 0.961 . S
C469 H477 0.960 . S
C470 C468 1.381 . S
C470 C471 1.394 . S
C470 H478 0.930 . S
C471 C470 1.394 . S
C471 C472 1.383 . S
C471 H479 0.929 . S
C472 C471 1.383 . S
C472 C473 1.377 . S
C473 H457 0.930 . S
C473 C472 1.377 . S
C473 C474 1.379 . S
C474 H458 0.931 . S
C474 C468 1.383 . S
C474 C473 1.379 . S
H475 C469 0.959 . S
H476 C469 0.961 . S
H477 C469 0.960 . S
H478 C470 0.930 . S
H479 C471 0.929 . S
H480 C488 0.929 . S
H481 C490 0.930 . S
H482 C492 0.930 . S
H483 C495 0.929 . S
H484 C498 0.930 . S
H485 C500 0.960 . S
H486 C500 0.960 . S
H487 C500 0.960 . S
C488 H480 0.929 . S
C488 C489 1.377 . S
C488 C490 1.384 . S
C489 C488 1.377 . S
C489 C495 1.390 . S
C490 H481 0.930 . S
C490 C488 1.384 . S
C490 C491 1.372 . S
C491 C490 1.372 . S
C491 C492 1.400 . S
C491 C496 1.490 . S
C492 H482 0.930 . S
C492 C491 1.400 . S
C492 C495 1.386 . S
H493 C509 0.930 . S
H494 C510 0.931 . S
C495 H483 0.929 . S
C495 C489 1.390 . S
C495 C492 1.386 . S
C496 C491 1.490 . S
C496 C498 1.395 . S
C496 C499 1.403 . S
H497 C503 0.930 . S
C498 H484 0.930 . S
C498 C496 1.395 . S
C498 C501 1.403 . S
C499 C496 1.403 . S
C499 C500 1.524 . S
C499 C503 1.400 . S
C500 H485 0.960 . S
C500 H486 0.960 . S
C500 H487 0.960 . S
C500 C499 1.524 . S
C501 C498 1.403 . S
C501 C502 1.392 . S
C501 C505 1.495 . S
C502 C501 1.392 . S
C502 C503 1.385 . S
C502 C504 1.478 1_554 S
C503 H497 0.930 . S
C503 C499 1.400 . S
C503 C502 1.385 . S
C504 C502 1.478 1_556 S
C504 C506 1.381 . S
C504 C510 1.383 . S
C505 C501 1.495 . S
C505 H511 0.959 . S
C505 H512 0.961 1_554 S
C505 H513 0.960 . S
C506 C504 1.381 . S
C506 C507 1.394 . S
C506 H514 0.930 1_556 S
C507 C506 1.394 . S
C507 C508 1.383 . S
C507 H515 0.929 . S
C508 C507 1.383 . S
C508 C509 1.377 . S
C509 H493 0.930 . S
C509 C508 1.377 . S
C509 C510 1.379 . S
C510 H494 0.931 . S
C510 C504 1.383 . S
C510 C509 1.379 . S
H511 C505 0.959 . S
H512 C505 0.961 1_556 S
H513 C505 0.960 . S
H514 C506 0.930 1_554 S
H515 C507 0.929 . S
H516 C524 0.929 . S
H517 C526 0.930 . S
H518 C528 0.930 . S
H519 C531 0.929 . S
H520 C534 0.930 . S
H521 C536 0.960 1_556 S
H522 C536 0.960 1_455 S
H523 C536 0.960 . S
C524 H516 0.929 . S
C524 C525 1.378 . S
C524 C526 1.384 . S
C525 C524 1.378 . S
C525 C531 1.389 1_455 S
C526 H517 0.930 . S
C526 C524 1.384 . S
C526 C527 1.410 . S
C527 C526 1.410 . S
C527 C528 1.361 1_455 S
C527 C532 1.490 . S
C528 H518 0.930 . S
C528 C527 1.361 1_655 S
C528 C531 1.386 . S
H529 C545 0.930 . S
H530 C546 0.931 . S
C531 H519 0.929 . S
C531 C525 1.389 1_655 S
C531 C528 1.386 . S
C532 C527 1.490 . S
C532 C534 1.403 . S
C532 C535 1.396 1_455 S
H533 C539 0.930 1_556 S
C534 H520 0.930 . S
C534 C532 1.403 . S
C534 C537 1.403 . S
C535 C532 1.396 1_655 S
C535 C536 1.524 . S
C535 C539 1.400 . S
C536 H521 0.960 1_554 S
C536 H522 0.960 1_655 S
C536 H523 0.960 . S
C536 C535 1.524 . S
C537 C534 1.403 . S
C537 C538 1.400 . S
C537 C541 1.495 . S
C538 C537 1.400 . S
C538 C539 1.379 1_455 S
C538 C540 1.477 1_554 S
C539 H533 0.930 1_554 S
C539 C535 1.400 . S
C539 C538 1.379 1_655 S
C540 C538 1.477 1_556 S
C540 C542 1.386 . S
C540 C546 1.378 1_455 S
C541 C537 1.495 . S
C541 H547 0.959 . S
C541 H548 0.961 1_455 S
C541 H549 0.960 . S
C542 C540 1.386 . S
C542 C543 1.394 . S
C542 H550 0.930 . S
C543 C542 1.394 . S
C543 C544 1.355 1_455 S
C543 H551 0.929 . S
C544 C543 1.355 1_655 S
C544 C545 1.405 . S
C545 H529 0.930 . S
C545 C544 1.405 . S
C545 C546 1.379 . S
C546 H530 0.931 . S
C546 C540 1.378 1_655 S
C546 C545 1.379 . S
H547 C541 0.959 . S
H548 C541 0.961 1_655 S
H549 C541 0.960 . S
H550 C542 0.930 . S
H551 C543 0.929 . S
H552 C560 0.929 . S
H553 C562 0.930 . S
H554 C564 0.930 . S
H555 C567 0.929 . S
H556 C570 0.930 . S
H557 C572 0.960 . S
H558 C572 0.960 . S
H559 C572 0.960 . S
C560 H552 0.929 . S
C560 C561 1.377 . S
C560 C562 1.384 . S
C561 C560 1.377 . S
C561 C567 1.390 1_455 S
C562 H553 0.930 . S
C562 C560 1.384 . S
C562 C563 1.372 1_455 S
C563 C562 1.372 1_655 S
C563 C564 1.400 . S
C563 C568 1.490 . S
C564 H554 0.930 . S
C564 C563 1.400 . S
C564 C567 1.386 . S
H565 C581 0.930 . S
H566 C582 0.931 . S
C567 H555 0.929 . S
C567 C561 1.390 1_655 S
C567 C564 1.386 . S
C568 C563 1.490 . S
C568 C570 1.395 . S
C568 C571 1.403 . S
H569 C575 0.930 . S
C570 H556 0.930 . S
C570 C568 1.395 . S
C570 C573 1.403 . S
C571 C568 1.403 . S
C571 C572 1.524 1_655 S
C571 C575 1.400 . S
C572 H557 0.960 . S
C572 H558 0.960 . S
C572 H559 0.960 . S
C572 C571 1.524 1_455 S
C573 C570 1.403 . S
C573 C574 1.392 . S
C573 C577 1.495 . S
C574 C573 1.392 . S
C574 C575 1.385 . S
C574 C576 1.478 . S
C575 H569 0.930 . S
C575 C571 1.400 . S
C575 C574 1.385 . S
C576 C574 1.478 . S
C576 C578 1.381 . S
C576 C582 1.383 . S
C577 C573 1.495 . S
C577 H583 0.959 . S
C577 H584 0.961 . S
C577 H585 0.960 . S
C578 C576 1.381 . S
C578 C579 1.394 . S
C578 H586 0.958 . S
C579 C578 1.394 . S
C579 C580 1.383 . S
C579 H587 0.929 . S
C580 C579 1.383 . S
C580 C581 1.377 . S
C581 H565 0.930 . S
C581 C580 1.377 . S
C581 C582 1.379 . S
C582 H566 0.931 . S
C582 C576 1.383 . S
C582 C581 1.379 . S
H583 C577 0.959 . S
H584 C577 0.961 . S
H585 C577 0.960 . S
H586 C578 0.958 . S
H587 C579 0.929 . S
H588 C596 0.929 . S
H589 C598 0.930 . S
H590 C600 0.930 . S
H591 C603 0.929 . S
H592 C606 0.930 . S
H593 C608 0.960 . S
H594 C608 0.960 1_545 S
H595 C608 0.960 . S
C596 H588 0.929 . S
C596 C597 1.377 . S
C596 C598 1.384 . S
C597 C596 1.377 . S
C597 C603 1.390 1_545 S
C598 H589 0.930 . S
C598 C596 1.384 . S
C598 C599 1.372 1_545 S
C599 C598 1.372 1_565 S
C599 C600 1.400 . S
C599 C604 1.490 . S
C600 H590 0.930 . S
C600 C599 1.400 . S
C600 C603 1.386 . S
H601 C617 0.930 . S
H602 C618 0.931 . S
C603 H591 0.929 . S
C603 C597 1.390 1_565 S
C603 C600 1.386 . S
C604 C599 1.490 . S
C604 C606 1.395 . S
C604 C607 1.403 . S
H605 C611 0.930 . S
C606 H592 0.930 . S
C606 C604 1.395 . S
C606 C609 1.403 . S
C607 C604 1.403 . S
C607 C608 1.524 . S
C607 C611 1.400 . S
C608 H593 0.960 . S
C608 H594 0.960 1_565 S
C608 H595 0.960 . S
C608 C607 1.524 . S
C609 C606 1.403 . S
C609 C610 1.392 . S
C609 C613 1.495 . S
C610 C609 1.392 . S
C610 C611 1.385 . S
C610 C612 1.478 . S
C611 H605 0.930 . S
C611 C607 1.400 . S
C611 C610 1.385 . S
C612 C610 1.478 . S
C612 C614 1.381 . S
C612 C618 1.383 . S
C613 C609 1.495 . S
C613 H619 0.959 . S
C613 H620 0.961 . S
C613 H621 0.960 . S
C614 C612 1.381 . S
C614 C615 1.394 . S
C614 H622 0.930 1_565 S
C615 C614 1.394 . S
C615 C616 1.383 . S
C615 H623 0.929 1_565 S
C616 C615 1.383 . S
C616 C617 1.377 . S
C617 H601 0.930 . S
C617 C616 1.377 . S
C617 C618 1.379 . S
C618 H602 0.931 . S
C618 C612 1.383 . S
C618 C617 1.379 . S
H619 C613 0.959 . S
H620 C613 0.961 . S
H621 C613 0.960 . S
H622 C614 0.930 1_545 S
H623 C615 0.929 1_545 S
H624 C632 0.929 . S
H625 C634 0.930 . S
H626 C636 0.930 . S
H627 C639 0.929 . S
H628 C642 0.930 . S
H629 C644 0.960 . S
H630 C644 0.960 . S
H631 C644 0.960 . S
C632 H624 0.929 . S
C632 C633 1.377 . S
C632 C634 1.384 . S
C633 C632 1.377 . S
C633 C639 1.390 . S
C634 H625 0.930 . S
C634 C632 1.384 . S
C634 C635 1.372 . S
C635 C634 1.372 . S
C635 C636 1.400 . S
C635 C640 1.490 . S
C636 H626 0.930 . S
C636 C635 1.400 . S
C636 C639 1.386 . S
H637 C653 0.930 . S
H638 C654 0.931 . S
C639 H627 0.929 . S
C639 C633 1.390 . S
C639 C636 1.386 . S
C640 C635 1.490 . S
C640 C642 1.395 . S
C640 C643 1.403 . S
H641 C647 0.930 . S
C642 H628 0.930 . S
C642 C640 1.395 . S
C642 C645 1.403 . S
C643 C640 1.403 . S
C643 C644 1.524 . S
C643 C647 1.400 . S
C644 H629 0.960 . S
C644 H630 0.960 . S
C644 H631 0.960 . S
C644 C643 1.524 . S
C645 C642 1.403 . S
C645 C646 1.392 . S
C645 C649 1.495 . S
C646 C645 1.392 . S
C646 C647 1.385 . S
C646 C648 1.478 . S
C647 H641 0.930 . S
C647 C643 1.400 . S
C647 C646 1.385 . S
C648 C646 1.478 . S
C648 C650 1.381 . S
C648 C654 1.383 . S
C649 C645 1.495 . S
C649 H655 0.959 . S
C649 H656 0.961 . S
C649 H657 0.960 . S
C650 C648 1.381 . S
C650 C651 1.394 . S
C650 H658 0.930 . S
C651 C650 1.394 . S
C651 C652 1.383 . S
C651 H659 0.929 . S
C652 C651 1.383 . S
C652 C653 1.377 . S
C653 H637 0.930 . S
C653 C652 1.377 . S
C653 C654 1.379 . S
C654 H638 0.931 . S
C654 C648 1.383 . S
C654 C653 1.379 . S
H655 C649 0.959 . S
H656 C649 0.961 . S
H657 C649 0.960 . S
H658 C650 0.930 . S
H659 C651 0.929 . S
H660 C668 0.929 . S
H661 C670 0.930 . S
H662 C672 0.930 . S
H663 C675 0.929 . S
H664 C678 0.930 . S
H665 C680 0.960 . S
H666 C680 0.960 . S
H667 C680 0.960 . S
C668 H660 0.929 . S
C668 C669 1.377 . S
C668 C670 1.384 . S
C669 C668 1.377 . S
C669 C675 1.390 . S
C670 H661 0.930 . S
C670 C668 1.384 . S
C670 C671 1.372 . S
C671 C670 1.372 . S
C671 C672 1.400 . S
C671 C676 1.490 . S
C672 H662 0.930 . S
C672 C671 1.400 . S
C672 C675 1.386 . S
H673 C689 0.930 . S
H674 C690 0.931 . S
C675 H663 0.929 . S
C675 C669 1.390 . S
C675 C672 1.386 . S
C676 C671 1.490 . S
C676 C678 1.395 . S
C676 C679 1.403 . S
H677 C683 0.930 . S
C678 H664 0.930 . S
C678 C676 1.395 . S
C678 C681 1.403 . S
C679 C676 1.403 . S
C679 C680 1.524 . S
C679 C683 1.400 . S
C680 H665 0.960 . S
C680 H666 0.960 . S
C680 H667 0.960 . S
C680 C679 1.524 . S
C681 C678 1.403 . S
C681 C682 1.392 . S
C681 C685 1.495 . S
C682 C681 1.392 . S
C682 C683 1.385 . S
C682 C684 1.478 . S
C683 H677 0.930 . S
C683 C679 1.400 . S
C683 C682 1.385 . S
C684 C682 1.478 . S
C684 C686 1.381 . S
C684 C690 1.383 . S
C685 C681 1.495 . S
C685 H691 0.959 . S
C685 H692 0.961 . S
C685 H693 0.960 . S
C686 C684 1.381 . S
C686 C687 1.394 . S
C686 H694 0.930 . S
C687 C686 1.394 . S
C687 C688 1.383 . S
C687 H695 0.929 . S
C688 C687 1.383 . S
C688 C689 1.377 . S
C689 H673 0.930 . S
C689 C688 1.377 . S
C689 C690 1.379 . S
C690 H674 0.931 . S
C690 C684 1.383 . S
C690 C689 1.379 . S
H691 C685 0.959 . S
H692 C685 0.961 . S
H693 C685 0.960 . S
H694 C686 0.930 . S
H695 C687 0.929 . S
H696 C704 0.929 . S
H697 C706 0.930 . S
H698 C708 0.935 . S
H699 C711 0.929 . S
H700 C714 0.930 . S
H701 C716 0.960 . S
H702 C716 0.960 . S
H703 C716 0.960 . S
C704 H696 0.929 . S
C704 C705 1.377 1_455 S
C704 C706 1.384 . S
C705 C704 1.377 1_655 S
C705 C711 1.390 . S
C706 H697 0.930 . S
C706 C704 1.384 . S
C706 C707 1.372 . S
C707 C706 1.372 . S
C707 C708 1.390 1_455 S
C707 C712 1.490 . S
C708 H698 0.935 . S
C708 C707 1.390 1_655 S
C708 C711 1.391 . S
H709 C725 0.930 . S
H710 C726 0.931 1_556 S
C711 H699 0.929 . S
C711 C705 1.390 . S
C711 C708 1.391 . S
C712 C707 1.490 . S
C712 C714 1.395 . S
C712 C715 1.403 1_455 S
H713 C719 0.969 . S
C714 H700 0.930 . S
C714 C712 1.395 . S
C714 C717 1.403 . S
C715 C712 1.403 1_655 S
C715 C716 1.524 . S
C715 C719 1.414 . S
C716 H701 0.960 . S
C716 H702 0.960 . S
C716 H703 0.960 . S
C716 C715 1.524 . S
C717 C714 1.403 . S
C717 C718 1.392 . S
C717 C721 1.495 . S
C718 C717 1.392 . S
C718 C719 1.336 1_455 S
C718 C720 1.478 . S
C719 H713 0.969 . S
C719 C715 1.414 . S
C719 C718 1.336 1_655 S
C720 C718 1.478 . S
C720 C722 1.381 . S
C720 C726 1.383 . S
C721 C717 1.495 . S
C721 H727 0.959 . S
C721 H728 0.961 . S
C721 H729 0.960 . S
C722 C720 1.381 . S
C722 C723 1.394 . S
C722 H730 0.930 . S
C723 C722 1.394 . S
C723 C724 1.383 . S
C723 H731 0.929 . S
C724 C723 1.383 . S
C724 C725 1.377 1_554 S
C725 H709 0.930 . S
C725 C724 1.377 1_556 S
C725 C726 1.379 1_556 S
C726 H710 0.931 1_554 S
C726 C720 1.383 . S
C726 C725 1.379 1_554 S
H727 C721 0.959 . S
H728 C721 0.961 . S
H729 C721 0.960 . S
H730 C722 0.930 . S
H731 C723 0.929 . S
H732 C740 0.929 . S
H733 C742 0.930 . S
H734 C744 0.930 . S
H735 C747 0.929 . S
H736 C750 0.930 1_565 S
H737 C752 0.960 . S
H738 C752 0.960 . S
H739 C752 0.960 . S
C740 H732 0.929 . S
C740 C741 1.354 1_545 S
C740 C742 1.384 . S
C741 C740 1.354 1_565 S
C741 C747 1.407 . S
C742 H733 0.930 . S
C742 C740 1.384 . S
C742 C743 1.372 . S
C743 C742 1.372 . S
C743 C744 1.400 1_545 S
C743 C748 1.490 . S
C744 H734 0.930 . S
C744 C743 1.400 1_565 S
C744 C747 1.386 . S
H745 C761 0.930 . S
H746 C762 0.931 1_565 S
C747 H735 0.929 . S
C747 C741 1.407 . S
C747 C744 1.386 . S
C748 C743 1.490 . S
C748 C750 1.395 . S
C748 C751 1.403 . S
H749 C755 0.930 . S
C750 H736 0.930 1_545 S
C750 C748 1.395 . S
C750 C753 1.403 . S
C751 C748 1.403 . S
C751 C752 1.524 . S
C751 C755 1.400 . S
C752 H737 0.960 . S
C752 H738 0.960 . S
C752 H739 0.960 . S
C752 C751 1.524 . S
C753 C750 1.403 . S
C753 C754 1.392 . S
C753 C757 1.495 1_545 S
C754 C753 1.392 . S
C754 C755 1.385 . S
C754 C756 1.478 . S
C755 H749 0.930 . S
C755 C751 1.400 . S
C755 C754 1.385 . S
C756 C754 1.478 . S
C756 C758 1.381 . S
C756 C762 1.383 . S
C757 C753 1.495 1_565 S
C757 H763 0.959 . S
C757 H764 0.961 . S
C757 H765 0.960 1_564 S
C758 C756 1.381 . S
C758 C759 1.394 1_554 S
C758 H766 0.930 . S
C759 C758 1.394 1_556 S
C759 C760 1.383 1_556 S
C759 H767 0.929 . S
C760 C759 1.383 1_554 S
C760 C761 1.377 . S
C761 H745 0.930 . S
C761 C760 1.377 . S
C761 C762 1.379 . S
C762 H746 0.931 1_545 S
C762 C756 1.383 . S
C762 C761 1.379 . S
H763 C757 0.959 . S
H764 C757 0.961 . S
H765 C757 0.960 1_546 S
H766 C758 0.930 . S
H767 C759 0.929 . S
H768 C776 0.929 . S
H769 C778 0.930 . S
H770 C780 0.930 . S
H771 C783 0.929 . S
H772 C786 0.930 . S
H773 C788 0.960 . S
H774 C788 0.960 . S
H775 C788 0.960 . S
C776 H768 0.929 . S
C776 C777 1.377 . S
C776 C778 1.384 . S
C777 C776 1.377 . S
C777 C783 1.390 . S
C778 H769 0.930 . S
C778 C776 1.384 . S
C778 C779 1.372 . S
C779 C778 1.372 . S
C779 C780 1.400 . S
C779 C784 1.490 . S
C780 H770 0.930 . S
C780 C779 1.400 . S
C780 C783 1.386 . S
H781 C797 0.930 . S
H782 C798 0.931 . S
C783 H771 0.929 . S
C783 C777 1.390 . S
C783 C780 1.386 . S
C784 C779 1.490 . S
C784 C786 1.395 . S
C784 C787 1.403 . S
H785 C791 0.930 . S
C786 H772 0.930 . S
C786 C784 1.395 . S
C786 C789 1.403 . S
C787 C784 1.403 . S
C787 C788 1.524 . S
C787 C791 1.400 . S
C788 H773 0.960 . S
C788 H774 0.960 . S
C788 H775 0.960 . S
C788 C787 1.524 . S
C789 C786 1.403 . S
C789 C790 1.392 . S
C789 C793 1.495 . S
C790 C789 1.392 . S
C790 C791 1.385 . S
C790 C792 1.478 . S
C791 H785 0.930 . S
C791 C787 1.400 . S
C791 C790 1.385 . S
C792 C790 1.478 . S
C792 C794 1.381 . S
C792 C798 1.383 . S
C793 C789 1.495 . S
C793 H799 0.959 . S
C793 H800 0.961 . S
C793 H801 0.960 1_554 S
C794 C792 1.381 . S
C794 C795 1.394 1_554 S
C794 H802 0.930 1_554 S
C795 C794 1.394 1_556 S
C795 C796 1.383 1_556 S
C795 H803 0.929 . S
C796 C795 1.383 1_554 S
C796 C797 1.377 . S
C797 H781 0.930 . S
C797 C796 1.377 . S
C797 C798 1.379 . S
C798 H782 0.931 . S
C798 C792 1.383 . S
C798 C797 1.379 . S
H799 C793 0.959 . S
H800 C793 0.961 . S
H801 C793 0.960 1_556 S
H802 C794 0.930 1_556 S
H803 C795 0.929 . S
H804 C812 0.929 . S
H805 C814 0.930 . S
H806 C816 0.930 . S
H807 C819 0.929 . S
H808 C822 0.930 . S
H809 C824 0.960 . S
H810 C824 0.960 . S
H811 C824 0.960 . S
C812 H804 0.929 . S
C812 C813 1.377 . S
C812 C814 1.384 . S
C813 C812 1.377 . S
C813 C819 1.390 . S
C814 H805 0.930 . S
C814 C812 1.384 . S
C814 C815 1.372 . S
C815 C814 1.372 . S
C815 C816 1.400 . S
C815 C820 1.490 . S
C816 H806 0.930 . S
C816 C815 1.400 . S
C816 C819 1.386 . S
H817 C833 0.930 . S
H818 C834 0.931 . S
C819 H807 0.929 . S
C819 C813 1.390 . S
C819 C816 1.386 . S
C820 C815 1.490 . S
C820 C822 1.395 . S
C820 C823 1.403 . S
H821 C827 0.930 . S
C822 H808 0.930 . S
C822 C820 1.395 . S
C822 C825 1.403 . S
C823 C820 1.403 . S
C823 C824 1.524 . S
C823 C827 1.400 . S
C824 H809 0.960 . S
C824 H810 0.960 . S
C824 H811 0.960 . S
C824 C823 1.524 . S
C825 C822 1.403 . S
C825 C826 1.392 . S
C825 C829 1.495 . S
C826 C825 1.392 . S
C826 C827 1.385 . S
C826 C828 1.478 . S
C827 H821 0.930 . S
C827 C823 1.400 . S
C827 C826 1.385 . S
C828 C826 1.478 . S
C828 C830 1.381 . S
C828 C834 1.383 . S
C829 C825 1.495 . S
C829 H835 0.959 . S
C829 H836 0.961 . S
C829 H837 0.960 . S
C830 C828 1.381 . S
C830 C831 1.394 1_554 S
C830 H838 0.930 . S
C831 C830 1.394 1_556 S
C831 C832 1.383 1_556 S
C831 H839 0.929 . S
C832 C831 1.383 1_554 S
C832 C833 1.377 . S
C833 H817 0.930 . S
C833 C832 1.377 . S
C833 C834 1.379 . S
C834 H818 0.931 . S
C834 C828 1.383 . S
C834 C833 1.379 . S
H835 C829 0.959 . S
H836 C829 0.961 . S
H837 C829 0.960 . S
H838 C830 0.930 . S
H839 C831 0.929 . S
H840 C848 0.929 . S
H841 C850 0.930 . S
H842 C852 0.924 1_554 S
H843 C855 0.929 1_554 S
H844 C858 0.930 . S
H845 C860 0.960 . S
H846 C860 0.960 . S
H847 C860 0.960 1_455 S
C848 H840 0.929 . S
C848 C849 1.359 1_655 S
C848 C850 1.384 . S
C849 C848 1.359 1_455 S
C849 C855 1.409 . S
C850 H841 0.930 . S
C850 C848 1.384 . S
C850 C851 1.372 1_655 S
C851 C850 1.372 1_455 S
C851 C852 1.400 . S
C851 C856 1.490 . S
C852 H842 0.924 1_556 S
C852 C851 1.400 . S
C852 C855 1.386 . S
H853 C869 0.930 . S
H854 C870 0.931 . S
C855 H843 0.929 1_556 S
C855 C849 1.409 . S
C855 C852 1.386 . S
C856 C851 1.490 . S
C856 C858 1.395 . S
C856 C859 1.398 1_455 S
H857 C863 0.924 1_655 S
C858 H844 0.930 . S
C858 C856 1.395 . S
C858 C861 1.403 . S
C859 C856 1.398 1_655 S
C859 C860 1.533 1_556 S
C859 C863 1.396 1_655 S
C860 H845 0.960 . S
C860 H846 0.960 . S
C860 H847 0.960 1_655 S
C860 C859 1.533 1_554 S
C861 C858 1.403 . S
C861 C862 1.392 . S
C861 C865 1.495 . S
C862 C861 1.392 . S
C862 C863 1.397 . S
C862 C864 1.478 . S
C863 H857 0.924 1_455 S
C863 C859 1.396 1_455 S
C863 C862 1.397 . S
C864 C862 1.478 . S
C864 C866 1.381 1_455 S
C864 C870 1.383 . S
C865 C861 1.495 . S
C865 H871 0.959 . S
C865 H872 0.961 . S
C865 H873 0.960 . S
C866 C864 1.381 1_655 S
C866 C867 1.394 . S
C866 H874 0.930 . S
C867 C866 1.394 . S
C867 C868 1.383 1_655 S
C867 H875 0.929 . S
C868 C867 1.383 1_455 S
C868 C869 1.377 . S
C869 H853 0.930 . S
C869 C868 1.377 . S
C869 C870 1.379 . S
C870 H854 0.931 . S
C870 C864 1.383 . S
C870 C869 1.379 . S
H871 C865 0.959 . S
H872 C865 0.961 . S
H873 C865 0.960 . S
H874 C866 0.930 . S
H875 C867 0.929 . S
H876 C884 0.929 . S
H877 C886 0.930 1_554 S
H878 C888 0.930 . S
H879 C891 0.929 . S
H880 C894 0.930 1_554 S
H881 C896 0.960 . S
H882 C896 0.960 . S
H883 C896 0.960 . S
C884 H876 0.929 . S
C884 C885 1.377 1_554 S
C884 C886 1.384 1_554 S
C885 C884 1.377 1_556 S
C885 C891 1.390 1_545 S
C886 H877 0.930 1_556 S
C886 C884 1.384 1_556 S
C886 C887 1.372 . S
C887 C886 1.372 . S
C887 C888 1.400 1_545 S
C887 C892 1.490 . S
C888 H878 0.930 . S
C888 C887 1.400 1_565 S
C888 C891 1.386 . S
H889 C905 0.930 . S
H890 C906 0.931 . S
C891 H879 0.929 . S
C891 C885 1.390 1_565 S
C891 C888 1.386 . S
C892 C887 1.490 . S
C892 C894 1.395 1_545 S
C892 C895 1.403 . S
H893 C899 0.930 . S
C894 H880 0.930 1_556 S
C894 C892 1.395 1_565 S
C894 C897 1.403 . S
C895 C892 1.403 . S
C895 C896 1.524 . S
C895 C899 1.400 . S
C896 H881 0.960 . S
C896 H882 0.960 . S
C896 H883 0.960 . S
C896 C895 1.524 . S
C897 C894 1.403 . S
C897 C898 1.392 1_565 S
C897 C901 1.495 1_556 S
C898 C897 1.392 1_545 S
C898 C899 1.385 . S
C898 C900 1.478 . S
C899 H893 0.930 . S
C899 C895 1.400 . S
C899 C898 1.385 . S
C900 C898 1.478 . S
C900 C902 1.381 . S
C900 C906 1.383 1_545 S
C901 C897 1.495 1_554 S
C901 H907 0.959 . S
C901 H908 0.961 1_554 S
C901 H909 0.980 . S
C902 C900 1.381 . S
C902 C903 1.394 . S
C902 H910 0.930 . S
C903 C902 1.394 . S
C903 C904 1.383 . S
C903 H911 0.929 . S
C904 C903 1.383 . S
C904 C905 1.377 1_545 S
C905 H889 0.930 . S
C905 C904 1.377 1_565 S
C905 C906 1.379 . S
C906 H890 0.931 . S
C906 C900 1.383 1_565 S
C906 C905 1.379 . S
H907 C901 0.959 . S
H908 C901 0.961 1_556 S
H909 C901 0.980 . S
H910 C902 0.930 . S
H911 C903 0.929 . S
H912 C920 0.929 . S
H913 C922 0.930 . S
H914 C924 0.930 . S
H915 C927 0.929 . S
H916 C930 0.930 . S
H917 C932 0.960 . S
H918 C932 0.960 . S
H919 C932 0.960 . S
C920 H912 0.929 . S
C920 C921 1.377 . S
C920 C922 1.384 . S
C921 C920 1.377 . S
C921 C927 1.390 . S
C922 H913 0.930 . S
C922 C920 1.384 . S
C922 C923 1.372 . S
C923 C922 1.372 . S
C923 C924 1.400 . S
C923 C928 1.490 . S
C924 H914 0.930 . S
C924 C923 1.400 . S
C924 C927 1.386 . S
H925 C941 0.930 . S
H926 C942 0.931 . S
C927 H915 0.929 . S
C927 C921 1.390 . S
C927 C924 1.386 . S
C928 C923 1.490 . S
C928 C930 1.395 . S
C928 C931 1.403 . S
H929 C935 0.930 . S
C930 H916 0.930 . S
C930 C928 1.395 . S
C930 C933 1.403 . S
C931 C928 1.403 . S
C931 C932 1.524 1_556 S
C931 C935 1.400 . S
C932 H917 0.960 . S
C932 H918 0.960 . S
C932 H919 0.960 . S
C932 C931 1.524 1_554 S
C933 C930 1.403 . S
C933 C934 1.392 . S
C933 C937 1.495 . S
C934 C933 1.392 . S
C934 C935 1.385 . S
C934 C936 1.478 . S
C935 H929 0.930 . S
C935 C931 1.400 . S
C935 C934 1.385 . S
C936 C934 1.478 . S
C936 C938 1.381 . S
C936 C942 1.383 . S
C937 C933 1.495 . S
C937 H943 0.959 . S
C937 H944 0.961 . S
C937 H945 0.960 . S
C938 C936 1.381 . S
C938 C939 1.394 . S
C938 H946 0.930 . S
C939 C938 1.394 . S
C939 C940 1.383 . S
C939 H947 0.929 . S
C940 C939 1.383 . S
C940 C941 1.377 . S
C941 H925 0.930 . S
C941 C940 1.377 . S
C941 C942 1.379 . S
C942 H926 0.931 . S
C942 C936 1.383 . S
C942 C941 1.379 . S
H943 C937 0.959 . S
H944 C937 0.961 . S
H945 C937 0.960 . S
H946 C938 0.930 . S
H947 C939 0.929 . S
H948 C956 0.929 . S
H949 C958 0.930 . S
H950 C960 0.930 . S
H951 C963 0.929 . S
H952 C966 0.930 . S
H953 C968 0.960 . S
H954 C968 0.960 . S
H955 C968 0.960 . S
C956 H948 0.929 . S
C956 C957 1.377 . S
C956 C958 1.384 . S
C957 C956 1.377 . S
C957 C963 1.390 . S
C958 H949 0.930 . S
C958 C956 1.384 . S
C958 C959 1.372 . S
C959 C958 1.372 . S
C959 C960 1.400 . S
C959 C964 1.490 . S
C960 H950 0.930 . S
C960 C959 1.400 . S
C960 C963 1.386 . S
H961 C977 0.930 . S
H962 C978 0.931 . S
C963 H951 0.929 . S
C963 C957 1.390 . S
C963 C960 1.386 . S
C964 C959 1.490 . S
C964 C966 1.395 . S
C964 C967 1.403 . S
H965 C971 0.930 . S
C966 H952 0.930 . S
C966 C964 1.395 . S
C966 C969 1.403 . S
C967 C964 1.403 . S
C967 C968 1.524 1_556 S
C967 C971 1.400 . S
C968 H953 0.960 . S
C968 H954 0.960 . S
C968 H955 0.960 . S
C968 C967 1.524 1_554 S
C969 C966 1.403 . S
C969 C970 1.392 . S
C969 C973 1.495 . S
C970 C969 1.392 . S
C970 C971 1.385 . S
C970 C972 1.478 . S
C971 H965 0.930 . S
C971 C967 1.400 . S
C971 C970 1.385 . S
C972 C970 1.478 . S
C972 C974 1.381 . S
C972 C978 1.383 . S
C973 C969 1.495 . S
C973 H979 0.959 . S
C973 H980 0.961 . S
C973 H981 0.960 . S
C974 C972 1.381 . S
C974 C975 1.394 . S
C974 H982 0.930 . S
C975 C974 1.394 . S
C975 C976 1.383 . S
C975 H983 0.929 . S
C976 C975 1.383 . S
C976 C977 1.377 . S
C977 H961 0.930 . S
C977 C976 1.377 . S
C977 C978 1.379 . S
C978 H962 0.931 . S
C978 C972 1.383 . S
C978 C977 1.379 . S
H979 C973 0.959 . S
H980 C973 0.961 . S
H981 C973 0.960 . S
H982 C974 0.930 . S
H983 C975 0.929 . S
H984 C992 0.929 . S
H985 C994 0.930 . S
H986 C996 0.930 . S
H987 C999 0.929 . S
H988 C1002 0.930 . S
H989 C1004 0.960 . S
H990 C1004 0.960 . S
H991 C1004 0.960 . S
C992 H984 0.929 . S
C992 C993 1.343 1_455 S
C992 C994 1.384 . S
C993 C992 1.343 1_655 S
C993 C999 1.426 . S
C994 H985 0.930 . S
C994 C992 1.384 . S
C994 C995 1.372 1_455 S
C995 C994 1.372 1_655 S
C995 C996 1.400 . S
C995 C1000 1.490 . S
C996 H986 0.930 . S
C996 C995 1.400 . S
C996 C999 1.386 . S
H997 C1013 0.930 . S
H998 C1014 0.931 . S
C999 H987 0.929 . S
C999 C993 1.426 . S
C999 C996 1.386 . S
C1000 C995 1.490 . S
C1000 C1002 1.395 1_655 S
C1000 C1003 1.403 . S
H1001 C1007 0.930 . S
C1002 H988 0.930 . S
C1002 C1000 1.395 1_455 S
C1002 C1005 1.403 . S
C1003 C1000 1.403 . S
C1003 C1004 1.524 . S
C1003 C1007 1.400 . S
C1004 H989 0.960 . S
C1004 H990 0.960 . S
C1004 H991 0.960 . S
C1004 C1003 1.524 . S
C1005 C1002 1.403 . S
C1005 C1006 1.392 1_455 S
C1005 C1009 1.495 . S
C1006 C1005 1.392 1_655 S
C1006 C1007 1.385 . S
C1006 C1008 1.478 . S
C1007 H1001 0.930 . S
C1007 C1003 1.400 . S
C1007 C1006 1.385 . S
C1008 C1006 1.478 . S
C1008 C1010 1.381 1_655 S
C1008 C1014 1.383 . S
C1009 C1005 1.495 . S
C1009 H1015 0.959 . S
C1009 H1016 0.961 . S
C1009 H1017 0.960 . S
C1010 C1008 1.381 1_455 S
C1010 C1011 1.394 . S
C1010 H1018 0.930 . S
C1011 C1010 1.394 . S
C1011 C1012 1.383 1_455 S
C1011 H1019 0.929 . S
C1012 C1011 1.383 1_655 S
C1012 C1013 1.377 . S
C1013 H997 0.930 . S
C1013 C1012 1.377 . S
C1013 C1014 1.379 . S
C1014 H998 0.931 . S
C1014 C1008 1.383 . S
C1014 C1013 1.379 . S
H1015 C1009 0.959 . S
H1016 C1009 0.961 . S
H1017 C1009 0.960 . S
H1018 C1010 0.930 . S
H1019 C1011 0.929 . S
H1020 C1028 0.929 . S
H1021 C1030 0.930 . S
H1022 C1032 0.930 . S
H1023 C1035 0.929 . S
H1024 C1038 0.930 . S
H1025 C1040 0.960 . S
H1026 C1040 0.960 . S
H1027 C1040 0.960 . S
C1028 H1020 0.929 . S
C1028 C1029 1.364 1_545 S
C1028 C1030 1.384 . S
C1029 C1028 1.364 1_565 S
C1029 C1035 1.407 . S
C1030 H1021 0.930 . S
C1030 C1028 1.384 . S
C1030 C1031 1.372 1_545 S
C1031 C1030 1.372 1_565 S
C1031 C1032 1.400 . S
C1031 C1036 1.490 . S
C1032 H1022 0.930 . S
C1032 C1031 1.400 . S
C1032 C1035 1.386 . S
H1033 C1049 0.930 . S
H1034 C1050 0.931 . S
C1035 H1023 0.929 . S
C1035 C1029 1.407 . S
C1035 C1032 1.386 . S
C1036 C1031 1.490 . S
C1036 C1038 1.395 1_565 S
C1036 C1039 1.403 . S
H1037 C1043 0.930 . S
C1038 H1024 0.930 . S
C1038 C1036 1.395 1_545 S
C1038 C1041 1.403 . S
C1039 C1036 1.403 . S
C1039 C1040 1.524 . S
C1039 C1043 1.400 . S
C1040 H1025 0.960 . S
C1040 H1026 0.960 . S
C1040 H1027 0.960 . S
C1040 C1039 1.524 . S
C1041 C1038 1.403 . S
C1041 C1042 1.357 1_545 S
C1041 C1045 1.495 . S
C1042 C1041 1.357 1_565 S
C1042 C1043 1.422 . S
C1042 C1044 1.479 . S
C1043 H1037 0.930 . S
C1043 C1039 1.400 . S
C1043 C1042 1.422 . S
C1044 C1042 1.479 . S
C1044 C1046 1.381 1_565 S
C1044 C1050 1.383 . S
C1045 C1041 1.495 . S
C1045 H1051 0.959 . S
C1045 H1052 0.961 . S
C1045 H1053 0.960 . S
C1046 C1044 1.381 1_545 S
C1046 C1047 1.396 . S
C1046 H1054 0.930 . S
C1047 C1046 1.396 . S
C1047 C1048 1.380 1_545 S
C1047 H1055 0.932 . S
C1048 C1047 1.380 1_565 S
C1048 C1049 1.377 . S
C1049 H1033 0.930 . S
C1049 C1048 1.377 . S
C1049 C1050 1.379 . S
C1050 H1034 0.931 . S
C1050 C1044 1.383 . S
C1050 C1049 1.379 . S
H1051 C1045 0.959 . S
H1052 C1045 0.961 . S
H1053 C1045 0.960 . S
H1054 C1046 0.930 . S
H1055 C1047 0.932 . S
H1056 C1064 0.929 . S
H1057 C1066 0.930 . S
H1058 C1068 0.930 . S
H1059 C1071 0.929 . S
H1060 C1074 0.930 . S
H1061 C1076 0.960 . S
H1062 C1076 0.960 . S
H1063 C1076 0.960 . S
C1064 H1056 0.929 . S
C1064 C1065 1.377 . S
C1064 C1066 1.384 . S
C1065 C1064 1.377 . S
C1065 C1071 1.390 . S
C1066 H1057 0.930 . S
C1066 C1064 1.384 . S
C1066 C1067 1.372 . S
C1067 C1066 1.372 . S
C1067 C1068 1.400 . S
C1067 C1072 1.490 . S
C1068 H1058 0.930 . S
C1068 C1067 1.400 . S
C1068 C1071 1.386 . S
H1069 C1085 0.930 . S
H1070 C1086 0.931 . S
C1071 H1059 0.929 . S
C1071 C1065 1.390 . S
C1071 C1068 1.386 . S
C1072 C1067 1.490 . S
C1072 C1074 1.395 . S
C1072 C1075 1.403 . S
H1073 C1079 0.930 . S
C1074 H1060 0.930 . S
C1074 C1072 1.395 . S
C1074 C1077 1.403 . S
C1075 C1072 1.403 . S
C1075 C1076 1.524 . S
C1075 C1079 1.400 . S
C1076 H1061 0.960 . S
C1076 H1062 0.960 . S
C1076 H1063 0.960 . S
C1076 C1075 1.524 . S
C1077 C1074 1.403 . S
C1077 C1078 1.392 . S
C1077 C1081 1.495 . S
C1078 C1077 1.392 . S
C1078 C1079 1.385 . S
C1078 C1080 1.478 . S
C1079 H1073 0.930 . S
C1079 C1075 1.400 . S
C1079 C1078 1.385 . S
C1080 C1078 1.478 . S
C1080 C1082 1.381 . S
C1080 C1086 1.383 . S
C1081 C1077 1.495 . S
C1081 H1087 0.959 . S
C1081 H1088 0.961 . S
C1081 H1089 0.960 . S
C1082 C1080 1.381 . S
C1082 C1083 1.394 . S
C1082 H1090 0.930 . S
C1083 C1082 1.394 . S
C1083 C1084 1.383 . S
C1083 H1091 0.929 . S
C1084 C1083 1.383 . S
C1084 C1085 1.377 . S
C1085 H1069 0.930 . S
C1085 C1084 1.377 . S
C1085 C1086 1.379 . S
C1086 H1070 0.931 . S
C1086 C1080 1.383 . S
C1086 C1085 1.379 . S
H1087 C1081 0.959 . S
H1088 C1081 0.961 . S
H1089 C1081 0.960 . S
H1090 C1082 0.930 . S
H1091 C1083 0.929 . S
H1092 C1100 0.929 . S
H1093 C1102 0.930 . S
H1094 C1104 0.930 . S
H1095 C1107 0.929 . S
H1096 C1110 0.930 . S
H1097 C1112 0.960 . S
H1098 C1112 0.960 . S
H1099 C1112 0.960 . S
C1100 H1092 0.929 . S
C1100 C1101 1.377 . S
C1100 C1102 1.384 . S
C1101 C1100 1.377 . S
C1101 C1107 1.390 . S
C1102 H1093 0.930 . S
C1102 C1100 1.384 . S
C1102 C1103 1.372 . S
C1103 C1102 1.372 . S
C1103 C1104 1.400 . S
C1103 C1108 1.490 . S
C1104 H1094 0.930 . S
C1104 C1103 1.400 . S
C1104 C1107 1.386 . S
H1105 C1121 0.930 . S
H1106 C1122 0.931 . S
C1107 H1095 0.929 . S
C1107 C1101 1.390 . S
C1107 C1104 1.386 . S
C1108 C1103 1.490 . S
C1108 C1110 1.395 . S
C1108 C1111 1.403 . S
H1109 C1115 0.930 . S
C1110 H1096 0.930 . S
C1110 C1108 1.395 . S
C1110 C1113 1.403 . S
C1111 C1108 1.403 . S
C1111 C1112 1.524 . S
C1111 C1115 1.400 . S
C1112 H1097 0.960 . S
C1112 H1098 0.960 . S
C1112 H1099 0.960 . S
C1112 C1111 1.524 . S
C1113 C1110 1.403 . S
C1113 C1114 1.392 . S
C1113 C1117 1.495 . S
C1114 C1113 1.392 . S
C1114 C1115 1.385 . S
C1114 C1116 1.478 . S
C1115 H1109 0.930 . S
C1115 C1111 1.400 . S
C1115 C1114 1.385 . S
C1116 C1114 1.478 . S
C1116 C1118 1.381 . S
C1116 C1122 1.383 . S
C1117 C1113 1.495 . S
C1117 H1123 0.959 . S
C1117 H1124 0.961 . S
C1117 H1125 0.960 . S
C1118 C1116 1.381 . S
C1118 C1119 1.394 . S
C1118 H1126 0.930 . S
C1119 C1118 1.394 . S
C1119 C1120 1.383 . S
C1119 H1127 0.929 . S
C1120 C1119 1.383 . S
C1120 C1121 1.377 . S
C1121 H1105 0.930 . S
C1121 C1120 1.377 . S
C1121 C1122 1.379 . S
C1122 H1106 0.931 . S
C1122 C1116 1.383 . S
C1122 C1121 1.379 . S
H1123 C1117 0.959 . S
H1124 C1117 0.961 . S
H1125 C1117 0.960 . S
H1126 C1118 0.930 . S
H1127 C1119 0.929 . S
C273 N80 1.819 . S
C292 C122 1.852 1_545 S
C328 C162 1.867 . S
C309 N93 1.819 . S
C364 C202 1.881 . S
C345 N54 1.830 . S
C400 C242 1.867 1_455 S
C381 N67 1.822 . S
C436 C112 1.849 . S
C417 N28 1.828 . S
C453 N41 1.830 . S
C472 C152 1.864 . S
C489 N2 1.835 . S
C508 C192 1.872 . S
C525 N15 1.823 1_455 S
C544 C232 1.874 1_655 S
C580 C109 0.291 . S
C561 N70 0.233 1_455 S
C616 C149 0.264 . S
C597 N83 0.248 1_545 S
C652 C189 0.241 . S
C633 N96 0.251 . S
C669 N57 0.221 . S
C688 C229 0.272 . S
C705 N18 0.233 . S
C724 C119 0.333 . S
C760 C159 0.217 . S
C741 N31 0.213 . S
C796 C199 0.210 . S
C777 N44 0.224 . S
C813 N5 0.216 . S
C832 C239 0.220 . S
C849 N66 2.009 1_456 S
C868 C113 2.061 . S
C885 N79 1.996 1_546 S
C904 C153 2.036 . S
C940 C193 2.031 . S
C921 N92 1.982 1_556 S
C976 C233 2.051 . S
C957 N53 1.993 1_556 S
C993 N14 2.015 . S
C1012 C123 2.059 . S
C1048 C163 2.031 . S
C1029 N27 1.996 . S
C1084 C203 2.045 . S
C1065 N40 1.978 . S
C1101 N1 2.002 . S
C1120 C243 2.049 . S
