# Generated by pormake.
# Topology anh, (6,3)-cn, num edge types: 1
# Building blocks:
#     Node 0, Type 0, BuildingBlock: BETDAH_clean_sbu_0, # of connection points: 6
#     Node 1, Type 0, BuildingBlock: BETDAH_clean_sbu_0, # of connection points: 6
#     Node 2, Type 0, BuildingBlock: BETDAH_clean_sbu_0, # of connection points: 6
#     Node 3, Type 1, BuildingBlock: CUQRIR_clean_linker_1, # of connection points: 3
#     Node 4, Type 1, BuildingBlock: CUQRIR_clean_linker_1, # of connection points: 3
#     Node 5, Type 1, BuildingBlock: CUQRIR_clean_linker_1, # of connection points: 3
#     Node 6, Type 1, BuildingBlock: CUQRIR_clean_linker_1, # of connection points: 3
#     Node 7, Type 1, BuildingBlock: CUQRIR_clean_linker_1, # of connection points: 3
#     Node 8, Type 1, BuildingBlock: CUQRIR_clean_linker_1, # of connection points: 3
#     Edge 9, Type (0, 1), BuildingBlock: TEMPAE_clean_linker_10, # of connection points: 2
#     Edge 10, Type (0, 1), BuildingBlock: TEMPAE_clean_linker_10, # of connection points: 2
#     Edge 11, Type (0, 1), BuildingBlock: TEMPAE_clean_linker_10, # of connection points: 2
#     Edge 12, Type (0, 1), BuildingBlock: TEMPAE_clean_linker_10, # of connection points: 2
#     Edge 13, Type (0, 1), BuildingBlock: TEMPAE_clean_linker_10, # of connection points: 2
#     Edge 14, Type (0, 1), BuildingBlock: TEMPAE_clean_linker_10, # of connection points: 2
#     Edge 15, Type (0, 1), BuildingBlock: TEMPAE_clean_linker_10, # of connection points: 2
#     Edge 16, Type (0, 1), BuildingBlock: TEMPAE_clean_linker_10, # of connection points: 2
#     Edge 17, Type (0, 1), BuildingBlock: TEMPAE_clean_linker_10, # of connection points: 2
#     Edge 18, Type (0, 1), BuildingBlock: TEMPAE_clean_linker_10, # of connection points: 2
#     Edge 19, Type (0, 1), BuildingBlock: TEMPAE_clean_linker_10, # of connection points: 2
#     Edge 20, Type (0, 1), BuildingBlock: TEMPAE_clean_linker_10, # of connection points: 2
#     Edge 21, Type (0, 1), BuildingBlock: TEMPAE_clean_linker_10, # of connection points: 2
#     Edge 22, Type (0, 1), BuildingBlock: TEMPAE_clean_linker_10, # of connection points: 2
#     Edge 23, Type (0, 1), BuildingBlock: TEMPAE_clean_linker_10, # of connection points: 2
#     Edge 24, Type (0, 1), BuildingBlock: TEMPAE_clean_linker_10, # of connection points: 2
#     Edge 25, Type (0, 1), BuildingBlock: TEMPAE_clean_linker_10, # of connection points: 2
#     Edge 26, Type (0, 1), BuildingBlock: TEMPAE_clean_linker_10, # of connection points: 2
# Relax obj value: 0.202
# Max RMSD: 0.217
# Mean RMSD: 0.165
data_MOF--net-anh--node1-BETDAH_clean_sbu_0--node2-CUQRIR_clean_linker_1--edge1-TEMPAE_clean_linker_10
_symmetry_space_group_name_H-M    P1
_symmetry_Int_Tables_number       1
_symmetry_cell_setting            triclinic
loop_
_symmetry_equiv_pos_as_xyz
'x, y, z'
_cell_length_a     28.902206
_cell_length_b     35.74608
_cell_length_c     47.241543
_cell_angle_alpha  87.360548
_cell_angle_beta   90.27858
_cell_angle_gamma 130.35657
loop_
_atom_site_label
_atom_site_type_symbol
_atom_site_fract_x
_atom_site_fract_y
_atom_site_fract_z
_atom_type_partial_charge
Ho0 Ho 0.20796 0.54256 0.15351 0.0
Ho1 Ho 0.13128 0.56847 0.15869 0.0
C2 C 0.2706 0.65599 0.16156 0.0
C3 C 0.27977 0.52635 0.14055 0.0
C4 C 0.2668 0.47967 0.13662 0.0
C5 C 0.22497 0.44698 0.11661 0.0
C6 C 0.21175 0.40229 0.11367 0.0
C7 C 0.23948 0.38914 0.13087 0.0
C8 C 0.28017 0.42122 0.1513 0.0
C9 C 0.2939 0.46621 0.15406 0.0
C10 C 0.16619 0.53145 0.20692 0.0
C11 C 1.06706 0.45285 0.15439 0.0
C12 C 1.04598 0.57102 0.16876 0.0
C13 C 0.98757 0.54356 0.1548 0.0
C14 C 0.9821 0.52669 0.1277 0.0
C15 C 0.92591 0.49693 0.11501 0.0
C16 C 0.87398 0.48297 0.12933 0.0
C17 C 0.87953 0.50009 0.15644 0.0
C18 C 0.93609 0.53028 0.16908 0.0
C19 C 0.16887 0.57657 0.10456 0.0
O20 O 0.27567 0.62631 0.14907 0.0
O21 O 0.21787 0.6386 0.17275 0.0
O22 O 0.25833 0.53915 0.12169 0.0
O23 O 0.27225 0.53339 0.16642 0.0
O24 O 0.16903 0.50061 0.19574 0.0
O25 O 0.18706 0.56742 0.18965 0.0
O26 O 1.06075 0.48506 0.1605 0.0
O27 O 0.1206 0.46667 0.14792 0.0
O28 O 0.09369 0.60428 0.1525 0.0
O29 O 1.05305 0.54383 0.1842 0.0
O30 O 0.16427 0.60655 0.11545 0.0
O31 O 0.15053 0.54202 0.12258 0.0
H32 H 0.20248 0.45586 0.10313 0.0
H33 H 0.1803 0.37815 0.09775 0.0
H34 H 0.30291 0.41225 0.16448 0.0
H35 H 0.32585 0.4906 0.16978 0.0
H36 H 1.02116 0.53567 0.11656 0.0
H37 H 0.92276 0.48367 0.09433 0.0
H38 H 0.84012 0.48996 0.16785 0.0
H39 H 0.93943 0.54246 0.19015 0.0
Ho40 Ho 0.75142 0.07227 0.47609 0.0
Ho41 Ho 0.6715 0.09659 0.46524 0.0
C42 C 0.60751 0.98484 0.46744 0.0
C43 C 0.79834 0.0336 0.49302 0.0
C44 C 0.77606 0.98466 0.50378 0.0
C45 C 0.75063 0.96546 0.53136 0.0
C46 C 0.73137 0.91956 0.54111 0.0
C47 C 0.73685 0.89191 0.52344 0.0
C48 C 0.76208 0.91116 0.4959 0.0
C49 C 0.78169 0.95704 0.48626 0.0
C50 C 0.74822 0.09567 0.42141 0.0
C51 C 0.81811 0.18575 0.47244 0.0
C52 C 0.62516 0.13508 0.44737 0.0
C53 C 0.63199 0.17735 0.45638 0.0
C54 C 0.63796 0.21021 0.43607 0.0
C55 C 0.64672 0.25142 0.44447 0.0
C56 C 0.64947 0.2604 0.47341 0.0
C57 C 0.64316 0.22709 0.49365 0.0
C58 C 0.63501 0.18629 0.48524 0.0
C59 C 0.67414 0.07522 0.5206 0.0
O60 O 0.65539 0.99873 0.48179 0.0
O61 O 0.60786 0.01798 0.45362 0.0
O62 O 0.78794 0.03715 0.4665 0.0
O63 O 0.79047 0.05771 0.50941 0.0
O64 O 0.79722 0.10988 0.43349 0.0
O65 O 0.70326 0.06857 0.43845 0.0
O66 O 0.76494 0.1723 0.46552 0.0
O67 O 0.82479 0.15341 0.47971 0.0
O68 O 0.59717 0.09704 0.46549 0.0
O69 O 0.67353 0.14575 0.43552 0.0
O70 O 0.62739 0.0653 0.50843 0.0
O71 O 0.71923 0.10009 0.50338 0.0
H72 H 0.74581 0.98587 0.54546 0.0
H73 H 0.71194 0.90558 0.56241 0.0
H74 H 0.76794 0.89119 0.48195 0.0
H75 H 0.80175 0.97111 0.46505 0.0
H76 H 0.63645 0.20426 0.41368 0.0
H77 H 0.6522 0.27658 0.42828 0.0
H78 H 0.64392 0.2322 0.51612 0.0
H79 H 0.63115 0.16178 0.50138 0.0
Ho80 Ho 0.63691 0.6113 0.85176 0.0
Ho81 Ho 0.54753 0.50305 0.84192 0.0
C82 C 0.4882 0.55377 0.84982 0.0
C83 C 0.70174 0.70567 0.84554 0.0
C84 C 0.6926 0.74021 0.836 0.0
C85 C 0.64161 0.72444 0.82058 0.0
C86 C 0.63548 0.75835 0.81027 0.0
C87 C 0.68018 0.80863 0.81525 0.0
C88 C 0.73079 0.824 0.83102 0.0
C89 C 0.73689 0.7901 0.84126 0.0
C90 C 0.59887 0.55155 0.89848 0.0
C91 C 0.69557 0.55904 0.84742 0.0
C92 C 0.48931 0.40964 0.84455 0.0
C93 C 0.50555 0.37965 0.83736 0.0
C94 C 0.48412 0.33808 0.85475 0.0
C95 C 0.5001 0.30977 0.84847 0.0
C96 C 0.53749 0.32246 0.82457 0.0
C97 C 0.55955 0.36456 0.80743 0.0
C98 C 0.54405 0.39307 0.81386 0.0
C99 C 0.58815 0.56274 0.79447 0.0
O100 O 0.54574 0.59612 0.84774 0.0
O101 O 0.47693 0.51122 0.85082 0.0
O102 O 0.67499 0.68057 0.86962 0.0
O103 O 0.69733 0.67882 0.82599 0.0
O104 O 0.654 0.59321 0.89485 0.0
O105 O 0.5668 0.54582 0.87818 0.0
O106 O 0.63847 0.51783 0.84408 0.0
O107 O 0.70742 0.60139 0.85012 0.0
O108 O 0.48583 0.43252 0.82334 0.0
O109 O 0.51742 0.4373 0.86597 0.0
O110 O 0.53282 0.52192 0.79874 0.0
O111 O 0.6194 0.56836 0.81519 0.0
H112 H 0.60693 0.68603 0.81624 0.0
H113 H 0.59561 0.74519 0.79852 0.0
H114 H 0.76639 0.86246 0.83495 0.0
H115 H 0.77674 0.80298 0.85295 0.0
H116 H 0.45498 0.3275 0.87317 0.0
H117 H 0.48234 0.27747 0.86201 0.0
H118 H 0.58926 0.37568 0.78916 0.0
H119 H 0.56223 0.42563 0.80046 0.0
C120 C 0.66103 0.05747 0.17244 0.0
N121 N 0.69686 0.09458 0.19034 0.0
N122 N 0.61725 0.01429 0.18723 0.0
C123 C 0.66921 0.06286 0.14071 0.0
C124 C 0.62716 0.02657 0.21455 0.0
N125 N 0.67496 0.0749 0.21649 0.0
C126 C 0.59123 0.99089 0.23967 0.0
H127 H 0.62546 0.03543 0.13045 0.0
H128 H 0.70054 0.05646 0.13465 0.0
H129 H 0.68887 0.10034 0.13269 0.0
H130 H 0.61368 0.97641 0.24718 0.0
H131 H 0.54417 0.95955 0.23386 0.0
H132 H 0.58965 1.00943 0.25738 0.0
C133 C 0.68015 0.564 0.54712 0.0
N134 N 0.67808 0.58726 0.5683 0.0
N135 N 0.67585 0.52598 0.5578 0.0
C136 C 0.68161 0.57599 0.51602 0.0
C137 C 0.67138 0.52713 0.58621 0.0
N138 N 0.67189 0.56397 0.59264 0.0
C139 C 0.67251 0.49525 0.60768 0.0
H140 H 0.6574 0.54248 0.50382 0.0
H141 H 0.72958 0.60254 0.50811 0.0
H142 H 0.66067 0.59298 0.51227 0.0
H143 H 0.6978 0.48451 0.59898 0.0
H144 H 0.6253 0.46126 0.61305 0.0
H145 H 0.69399 0.51468 0.6274 0.0
C146 C 0.08759 0.5497 0.85557 0.0
N147 N 0.12707 0.5514 0.87344 0.0
N148 N 1.04985 0.55426 0.86983 0.0
C149 C 1.08265 0.54003 0.82473 0.0
C150 C 1.06932 0.56005 0.8967 0.0
N151 N 0.11371 0.55707 0.89905 0.0
C152 C 1.04791 0.57233 0.92083 0.0
H153 H 0.11408 0.57566 0.81229 0.0
H154 H 1.0358 0.52113 0.81771 0.0
H155 H 0.0955 0.51748 0.82047 0.0
H156 H 1.00963 0.5379 0.93267 0.0
H157 H 1.03234 0.59214 0.91289 0.0
H158 H 1.08489 0.59558 0.93584 0.0
C159 C 0.20231 0.58674 0.45654 0.0
N160 N 0.16313 0.55094 0.43848 0.0
N161 N 0.24238 0.63116 0.44214 0.0
C162 C 0.20245 0.57854 0.488 0.0
C163 C 0.22572 0.62123 0.41492 0.0
N164 N 0.17787 0.573 0.41266 0.0
C165 C 0.2578 0.65846 0.39015 0.0
H166 H 0.22067 0.61208 0.4991 0.0
H167 H 0.23218 0.56962 0.49243 0.0
H168 H 0.15595 0.54754 0.49649 0.0
H169 H 0.29332 0.65854 0.38125 0.0
H170 H 0.27982 0.69593 0.39683 0.0
H171 H 0.2256 0.64888 0.37318 0.0
C172 C 0.63589 0.08192 0.77199 0.0
N173 N 0.65002 0.06412 0.75219 0.0
N174 N 0.64047 0.11968 0.76063 0.0
C175 C 0.62114 0.06454 0.80277 0.0
C176 C 0.6577 0.12426 0.73325 0.0
N177 N 0.66448 0.09099 0.72816 0.0
C178 C 0.66153 0.15775 0.71091 0.0
H179 H 0.63314 0.09425 0.81615 0.0
H180 H 0.64569 0.05177 0.81001 0.0
H181 H 0.57163 0.03328 0.80554 0.0
H182 H 0.70937 0.19241 0.70832 0.0
H183 H 0.6331 0.16698 0.71706 0.0
H184 H 0.64654 0.14046 0.69021 0.0
C185 C 0.41181 0.22431 0.07361 0.0
N186 N 0.45614 0.25521 0.0537 0.0
N187 N 0.35947 0.21503 0.06727 0.0
C188 C 0.42325 0.21169 0.10216 0.0
C189 C 0.37254 0.23761 0.04108 0.0
N190 N 0.43159 0.26372 0.0334 0.0
C191 C 0.33126 0.24325 0.02585 0.0
H192 H 0.37979 0.1815 0.11361 0.0
H193 H 0.44939 0.24452 0.11504 0.0
H194 H 0.45102 0.20064 0.09945 0.0
H195 H 0.33427 0.27251 0.03539 0.0
H196 H 0.28347 0.20846 0.02803 0.0
H197 H 0.34463 0.25358 0.00302 0.0
C198 C 0.24237 0.33868 0.09786 0.0
C199 C 0.23168 0.345 0.12537 0.0
C200 C 0.24774 0.3034 0.09273 0.0
C201 C 0.24119 0.27312 0.11568 0.0
C202 C 0.22375 0.27574 0.14297 0.0
C203 C 0.22026 0.31239 0.14764 0.0
C204 C 0.26745 0.30274 0.06333 0.0
C205 C 0.21366 0.24269 0.16769 0.0
C206 C 0.26257 0.18817 0.08702 0.0
C207 C 0.3259 0.21855 0.08777 0.0
C208 C 0.2321 0.20236 0.09933 0.0
C209 C 0.26633 0.24822 0.11201 0.0
C210 C 0.32928 0.27587 0.11567 0.0
C211 C 0.35808 0.26056 0.10358 0.0
C212 C 0.16449 0.17083 0.09617 0.0
C213 C 0.36802 0.32509 0.12896 0.0
H214 H 0.25138 0.36398 0.08065 0.0
H215 H 0.21092 0.31678 0.16887 0.0
H216 H 0.31606 0.31997 0.06333 0.0
H217 H 0.24094 0.26454 0.05681 0.0
H218 H 0.26222 0.32335 0.04725 0.0
H219 H 0.18347 0.23862 0.18436 0.0
H220 H 0.19351 0.20573 0.16081 0.0
H221 H 0.25784 0.25894 0.17726 0.0
H222 H 0.23777 0.1557 0.07481 0.0
H223 H 0.40716 0.2846 0.10374 0.0
H224 H 0.15551 0.18411 0.07699 0.0
H225 H 0.14298 0.17293 0.11472 0.0
H226 H 0.1428 0.13181 0.09367 0.0
H227 H 0.37107 0.35228 0.11475 0.0
H228 H 0.41486 0.33937 0.13265 0.0
H229 H 0.3474 0.32238 0.14949 0.0
C230 C 0.87617 0.27191 0.48704 0.0
C231 C 0.87209 0.23879 0.47011 0.0
C232 C 0.92542 0.32287 0.48359 0.0
C233 C 0.97028 0.34134 0.46184 0.0
C234 C 0.96587 0.30774 0.44458 0.0
C235 C 0.91741 0.25685 0.44926 0.0
C236 C 0.92906 0.35697 0.50304 0.0
C237 C 1.01101 0.32562 0.42043 0.0
C238 C 1.05724 0.47406 0.43376 0.0
C239 C 0.11483 0.49863 0.44501 0.0
C240 C 1.0104 0.42301 0.4386 0.0
C241 C 1.02022 0.39576 0.4563 0.0
C242 C 1.07784 0.42059 0.46843 0.0
C243 C 0.12473 0.47142 0.46217 0.0
C244 C 0.95055 0.3982 0.42449 0.0
C245 C 0.08995 0.39348 0.48809 0.0
H246 H 0.84082 0.25787 0.50305 0.0
H247 H 0.91355 0.2312 0.43583 0.0
H248 H 0.97464 0.38172 0.51234 0.0
H249 H 0.92268 0.3805 0.49082 0.0
H250 H 0.89408 0.33661 0.52053 0.0
H251 H 1.00122 0.29486 0.40894 0.0
H252 H 1.01024 0.34975 0.40516 0.0
H253 H 1.05767 0.34794 0.42848 0.0
H254 H 1.04866 0.49495 0.4212 0.0
H255 H 0.16932 0.48983 0.47055 0.0
H256 H 0.91384 0.38249 0.44077 0.0
H257 H 0.93866 0.36731 0.41234 0.0
H258 H 0.95161 0.42397 0.40982 0.0
H259 H 1.05518 0.37365 0.50565 0.0
H260 H 0.13566 0.41858 0.49728 0.0
H261 H 1.0865 0.36555 0.47647 0.0
C262 C 0.65507 0.84276 0.77626 0.0
C263 C 0.67449 0.84506 0.80392 0.0
C264 C 0.65035 0.87738 0.76527 0.0
C265 C 0.66527 0.91516 0.78236 0.0
C266 C 0.68486 0.91766 0.81028 0.0
C267 C 0.68922 0.88264 0.8207 0.0
C268 C 0.62948 0.87358 0.73538 0.0
C269 C 0.70084 0.95718 0.82927 0.0
C270 C 0.70532 0.03323 0.75077 0.0
C271 C 0.65184 0.02494 0.75664 0.0
C272 C 0.7097 0.99705 0.75802 0.0
C273 C 0.65931 0.95165 0.77146 0.0
C274 C 0.6043 0.94246 0.77621 0.0
C275 C 0.60125 0.97922 0.76866 0.0
C276 C 0.76901 1.00821 0.75241 0.0
C277 C 0.54941 0.89455 0.79031 0.0
H278 H 0.64437 0.81424 0.76302 0.0
H279 H 0.70347 0.88433 0.8422 0.0
H280 H 0.58754 0.86882 0.73559 0.0
H281 H 0.66457 0.90809 0.72263 0.0
H282 H 0.62016 0.84233 0.72473 0.0
H283 H 0.71606 0.95442 0.85031 0.0
H284 H 0.73753 0.99403 0.81903 0.0
H285 H 0.66081 0.95456 0.83255 0.0
H286 H 0.74434 0.06875 0.74152 0.0
H287 H 0.5597 0.97282 0.77272 0.0
H288 H 0.76108 0.97803 0.74114 0.0
H289 H 0.78974 0.01079 0.77285 0.0
H290 H 0.80189 0.04328 0.73958 0.0
H291 H 0.53804 0.86304 0.77911 0.0
H292 H 0.50897 0.89194 0.79074 0.0
H293 H 0.5597 0.89099 0.81244 0.0
C294 C 0.7639 0.40843 0.13204 0.0
C295 C 0.81401 0.44941 0.11626 0.0
C296 C 0.70698 0.37592 0.11987 0.0
C297 C 0.70005 0.38492 0.0913 0.0
C298 C 0.75063 0.42598 0.07516 0.0
C299 C 0.80717 0.45769 0.08783 0.0
C300 C 0.65405 0.33235 0.1377 0.0
C301 C 0.74465 0.43704 0.04477 0.0
C302 C 0.55725 0.27908 0.05583 0.0
C303 C 0.51917 0.28964 0.06039 0.0
C304 C 0.61724 0.31055 0.06512 0.0
C305 C 0.63884 0.35327 0.0791 0.0
C306 C 0.60056 0.36447 0.08297 0.0
C307 C 0.54092 0.33211 0.07386 0.0
C308 C 0.65674 0.29734 0.06086 0.0
C309 C 0.62179 0.40969 0.09761 0.0
H310 H 0.7694 0.40156 0.15388 0.0
H311 H 0.84588 0.48953 0.07564 0.0
H312 H 0.61887 0.33581 0.14036 0.0
H313 H 0.63278 0.29787 0.12689 0.0
H314 H 0.66782 0.32908 0.15904 0.0
H315 H 0.78903 0.469 0.03471 0.0
H316 H 0.72466 0.40456 0.03212 0.0
H317 H 0.71336 0.44498 0.04389 0.0
H318 H 0.53945 0.24566 0.04573 0.0
H319 H 0.51038 0.3391 0.07797 0.0
H320 H 0.66758 0.28969 0.08176 0.0
H321 H 0.70045 0.32868 0.05008 0.0
H322 H 0.63439 0.26454 0.04813 0.0
H323 H 0.63073 0.4067 0.12011 0.0
H324 H 0.58778 0.41484 0.09695 0.0
H325 H 0.66501 0.44298 0.08755 0.0
C326 C 0.50979 0.91511 0.44586 0.0
C327 C 0.55345 0.93155 0.46651 0.0
C328 C 0.45914 0.86483 0.44429 0.0
C329 C 0.45102 0.82989 0.46418 0.0
C330 C 0.49441 0.84635 0.48539 0.0
C331 C 0.54529 0.89682 0.48614 0.0
C332 C 0.41481 0.84899 0.42097 0.0
C333 C 0.48718 0.8106 0.50726 0.0
C334 C 0.29011 0.70511 0.46938 0.0
C335 C 0.29566 0.67756 0.45188 0.0
C336 C 0.34093 0.75399 0.47481 0.0
C337 C 0.39834 0.77612 0.46191 0.0
C338 C 0.40433 0.74758 0.44506 0.0
C339 C 0.35308 0.69866 0.44047 0.0
C340 C 0.33259 0.78264 0.49333 0.0
C341 C 0.46413 0.76949 0.43057 0.0
H342 H 0.51574 0.94151 0.4305 0.0
H343 H 0.57852 0.9091 0.5023 0.0
H344 H 0.41259 0.82314 0.40763 0.0
H345 H 0.36856 0.82914 0.43023 0.0
H346 H 0.42753 0.88059 0.40714 0.0
H347 H 0.52336 0.82939 0.52311 0.0
H348 H 0.44235 0.78896 0.51852 0.0
H349 H 0.48842 0.78417 0.49669 0.0
H350 H 0.24552 0.68905 0.4778 0.0
H351 H 0.35709 0.67729 0.4268 0.0
H352 H 0.33746 0.81158 0.48016 0.0
H353 H 0.36819 0.80131 0.50942 0.0
H354 H 0.28726 0.75876 0.50437 0.0
H355 H 0.47703 0.79899 0.41473 0.0
H356 H 0.4621 0.74167 0.41956 0.0
H357 H 0.50063 0.78654 0.44618 0.0
C358 C 0.57238 0.2756 0.8379 0.0
C359 C 0.55272 0.29153 0.81718 0.0
C360 C 0.5876 0.24684 0.83093 0.0
C361 C 0.5823 0.23326 0.80264 0.0
C362 C 0.56182 0.24882 0.78173 0.0
C363 C 0.54759 0.27795 0.78923 0.0
C364 C 0.61001 0.23149 0.85371 0.0
C365 C 0.55493 0.23471 0.7514 0.0
C366 C 0.67195 0.19882 0.77372 0.0
C367 C 0.62757 0.14757 0.77394 0.0
C368 C 0.65852 0.22711 0.78407 0.0
C369 C 0.59899 0.20343 0.7946 0.0
C370 C 0.55449 0.1514 0.79564 0.0
C371 C 0.56948 0.12404 0.78536 0.0
C372 C 0.70742 0.2824 0.78285 0.0
C373 C 0.49044 0.12479 0.80649 0.0
H374 H 0.5769 0.2864 0.85948 0.0
H375 H 0.53168 0.28968 0.77323 0.0
H376 H 0.5805 0.19084 0.85553 0.0
H377 H 0.65653 0.24632 0.8479 0.0
H378 H 0.61091 0.24461 0.87474 0.0
H379 H 0.53722 0.24893 0.73784 0.0
H380 H 0.59947 0.24927 0.74227 0.0
H381 H 0.52354 0.19409 0.75062 0.0
H382 H 0.71687 0.21664 0.76489 0.0
H383 H 0.53528 0.08436 0.78521 0.0
H384 H 0.7113 0.29664 0.80388 0.0
H385 H 0.69515 0.29905 0.7676 0.0
H386 H 0.75246 0.29477 0.77619 0.0
H387 H 0.49089 0.13656 0.82788 0.0
H388 H 0.46245 0.08422 0.80763 0.0
H389 H 0.46839 0.13436 0.79228 0.0
C390 C 0.68651 0.80412 0.51607 0.0
C391 C 0.71846 0.84387 0.5337 0.0
C392 C 0.67485 0.76031 0.52396 0.0
C393 C 0.69581 0.75616 0.55009 0.0
C394 C 0.72541 0.79522 0.56862 0.0
C395 C 0.73632 0.83863 0.56022 0.0
C396 C 0.6426 0.71936 0.5037 0.0
C397 C 0.74842 0.79217 0.59666 0.0
C398 C 0.63673 0.62881 0.57529 0.0
C399 C 0.68307 0.63 0.56511 0.0
C400 C 0.6407 0.67004 0.57123 0.0
C401 C 0.69214 0.71312 0.55654 0.0
C402 C 0.73955 0.71453 0.54677 0.0
C403 C 0.73435 0.67291 0.5512 0.0
C404 C 0.58938 0.66716 0.58204 0.0
C405 C 0.7953 0.75971 0.53114 0.0
H406 H 0.67169 0.80768 0.49577 0.0
H407 H 0.7613 0.86932 0.57386 0.0
H408 H 0.6746 0.71497 0.4954 0.0
H409 H 0.60451 0.684 0.51488 0.0
H410 H 0.62444 0.72656 0.48546 0.0
H411 H 0.76407 0.82303 0.61 0.0
H412 H 0.71243 0.75695 0.60863 0.0
H413 H 0.78701 0.79311 0.59282 0.0
H414 H 0.59707 0.59532 0.58597 0.0
H415 H 0.77024 0.67356 0.54367 0.0
H416 H 0.56703 0.66989 0.56389 0.0
H417 H 0.6072 0.69849 0.59537 0.0
H418 H 0.55466 0.63231 0.59469 0.0
H419 H 0.782 0.7676 0.51116 0.0
H420 H 0.82897 0.75537 0.52587 0.0
H421 H 0.8175 0.79213 0.54415 0.0
C422 C 0.74396 0.52096 0.83502 0.0
C423 C 0.74776 0.55759 0.84813 0.0
C424 C 0.79236 0.51953 0.83549 0.0
C425 C 0.84656 0.55444 0.85032 0.0
C426 C 0.85021 0.59113 0.86385 0.0
C427 C 0.80207 0.59275 0.86218 0.0
C428 C 0.78539 0.4804 0.81982 0.0
C429 C 0.90481 0.62839 0.88084 0.0
C430 C 0.9421 0.51915 0.87816 0.0
C431 C 0.99649 0.54924 0.86136 0.0
C432 C 0.89415 0.52051 0.87479 0.0
C433 C 0.89753 0.55118 0.85304 0.0
C434 C 0.95069 0.57945 0.83475 0.0
C435 C 0.99934 0.57875 0.83931 0.0
C436 C 0.84062 0.49033 0.89557 0.0
C437 C 0.95694 0.61151 0.81053 0.0
H438 H 0.70313 0.49349 0.82389 0.0
H439 H 0.80647 0.62119 0.87268 0.0
H440 H 0.8257 0.49744 0.80558 0.0
H441 H 0.78274 0.45456 0.83512 0.0
H442 H 0.74395 0.45904 0.80701 0.0
H443 H 0.90086 0.65381 0.8908 0.0
H444 H 0.91058 0.60923 0.89777 0.0
H445 H 0.94648 0.65039 0.86702 0.0
H446 H 0.93796 0.49546 0.895 0.0
H447 H 1.04043 0.60253 0.8261 0.0
H448 H 0.79797 0.46423 0.88421 0.0
H449 H 0.8365 0.51483 0.90664 0.0
H450 H 0.84477 0.46913 0.91172 0.0
H451 H 0.9146 0.5907 0.7984 0.0
H452 H 0.99569 0.6256 0.79584 0.0
H453 H 0.96419 0.64335 0.81896 0.0
C454 C 0.37263 0.73309 0.14307 0.0
C455 C 0.32428 0.70913 0.16311 0.0
C456 C 0.4226 0.7838 0.14385 0.0
C457 C 0.42515 0.81104 0.16562 0.0
C458 C 0.37673 0.78678 0.18611 0.0
C459 C 0.32668 0.73641 0.18438 0.0
C460 C 0.47247 0.80832 0.12126 0.0
C461 C 0.37808 0.81393 0.21011 0.0
C462 C 0.57679 0.92891 0.18793 0.0
C463 C 0.57449 0.96502 0.17753 0.0
C464 C 0.52952 0.8789 0.18347 0.0
C465 C 0.47898 0.86453 0.16766 0.0
C466 C 0.47819 0.90128 0.15568 0.0
C467 C 0.52562 0.95105 0.16108 0.0
C468 C 0.5321 0.84126 0.19708 0.0
C469 C 0.42597 0.88783 0.13821 0.0
H470 H 0.37084 0.71238 0.12639 0.0
H471 H 0.2897 0.71814 0.20004 0.0
H472 H 0.47854 0.83947 0.11034 0.0
H473 H 0.51616 0.82374 0.13108 0.0
H474 H 0.46278 0.7825 0.10519 0.0
H475 H 0.33752 0.78958 0.22464 0.0
H476 H 0.41936 0.8304 0.22256 0.0
H477 H 0.38035 0.8445 0.2015 0.0
H478 H 0.61458 0.93985 0.20075 0.0
H479 H 0.52331 0.97885 0.15347 0.0
H480 H 0.52516 0.81641 0.18109 0.0
H481 H 0.49491 0.81819 0.21341 0.0
H482 H 0.57605 0.85854 0.20732 0.0
H483 H 0.41581 0.86232 0.12184 0.0
H484 H 0.43558 0.9207 0.12758 0.0
H485 H 0.38461 0.8685 0.15205 0.0
C486 C 0.62925 0.31913 0.46896 0.0
C487 C 0.65825 0.30389 0.48267 0.0
C488 C 0.63421 0.35811 0.47873 0.0
C489 C 0.66825 0.38198 0.50301 0.0
C490 C 0.699 0.36774 0.51646 0.0
C491 C 0.69407 0.32923 0.50599 0.0
C492 C 0.60143 0.37269 0.4636 0.0
C493 C 0.73548 0.39207 0.54251 0.0
C494 C 0.71682 0.50505 0.52206 0.0
C495 C 0.67241 0.49019 0.54268 0.0
C496 C 0.71514 0.4702 0.50824 0.0
C497 C 0.66842 0.41947 0.51563 0.0
C498 C 0.62289 0.40442 0.53612 0.0
C499 C 0.6252 0.43999 0.54918 0.0
C500 C 0.76394 0.48764 0.48621 0.0
C501 C 0.57256 0.35078 0.54479 0.0
H502 H 0.60108 0.29963 0.45109 0.0
H503 H 0.71789 0.31862 0.51632 0.0
H504 H 0.56401 0.36327 0.47752 0.0
H505 H 0.63284 0.41303 0.45879 0.0
H506 H 0.58191 0.35389 0.44349 0.0
H507 H 0.75859 0.378 0.54981 0.0
H508 H 0.77029 0.43241 0.53816 0.0
H509 H 0.70513 0.38553 0.56001 0.0
H510 H 0.75344 0.54395 0.51721 0.0
H511 H 0.59035 0.42868 0.56478 0.0
H512 H 0.74307 0.46869 0.4663 0.0
H513 H 0.79186 0.47822 0.49379 0.0
H514 H 0.79436 0.52799 0.4814 0.0
H515 H 0.54702 0.33004 0.52598 0.0
H516 H 0.54017 0.34523 0.56071 0.0
H517 H 0.59223 0.33478 0.55391 0.0
C518 C 0.37709 0.51525 0.8415 0.0
C519 C 0.43501 0.55391 0.85161 0.0
C520 C 0.32716 0.51468 0.843 0.0
C521 C 0.33278 0.5526 0.8561 0.0
C522 C 0.39105 0.59145 0.86666 0.0
C523 C 0.44096 0.59216 0.86378 0.0
C524 C 0.26807 0.47324 0.8302 0.0
C525 C 0.40051 0.63208 0.88176 0.0
C526 C 0.21763 0.57545 0.84436 0.0
C527 C 0.17515 0.54837 0.86732 0.0
C528 C 0.26727 0.5761 0.84001 0.0
C529 C 0.27776 0.55072 0.85957 0.0
C530 C 0.23481 0.52322 0.88266 0.0
C531 C 0.18405 0.52119 0.88564 0.0
C532 C 0.30899 0.60453 0.81434 0.0
C533 C 0.24301 0.49641 0.90488 0.0
H534 H 0.37086 0.48542 0.83182 0.0
H535 H 0.48461 0.62233 0.87192 0.0
H536 H 0.23275 0.44975 0.84721 0.0
H537 H 0.252 0.48817 0.81604 0.0
H538 H 0.27234 0.44984 0.81786 0.0
H539 H 0.44673 0.65807 0.89034 0.0
H540 H 0.39363 0.653 0.86699 0.0
H541 H 0.36648 0.6162 0.8995 0.0
H542 H 0.21284 0.59707 0.8299 0.0
H543 H 0.1513 0.49817 0.90282 0.0
H544 H 0.31662 0.58199 0.80343 0.0
H545 H 0.35379 0.63788 0.82103 0.0
H546 H 0.29057 0.61612 0.79901 0.0
H547 H 0.23646 0.4655 0.89546 0.0
H548 H 0.21043 0.48147 0.92319 0.0
H549 H 0.2899 0.52151 0.91279 0.0
C550 C 1.01421 0.36891 0.17636 0.0
C551 C 1.01353 0.39973 0.15729 0.0
C552 C 0.96243 0.31903 0.18124 0.0
C553 C 0.90939 0.29886 0.16573 0.0
C554 C 0.90933 0.32973 0.14573 0.0
C555 C 0.96091 0.38009 0.14228 0.0
C556 C 0.96384 0.28838 0.20372 0.0
C557 C 0.85484 0.30959 0.12797 0.0
C558 C 0.79549 0.15851 0.16432 0.0
C559 C 0.74944 0.14569 0.18331 0.0
C560 C 0.84659 0.20814 0.15758 0.0
C561 C 0.85353 0.24598 0.17122 0.0
C562 C 0.80756 0.23311 0.19074 0.0
C563 C 0.75556 0.18341 0.19587 0.0
C564 C 0.89318 0.22006 0.13586 0.0
C565 C 0.81365 0.27172 0.20664 0.0
H566 H 1.05469 0.38438 0.18828 0.0
H567 H 0.96044 0.40402 0.12755 0.0
H568 H 0.92698 0.27306 0.21989 0.0
H569 H 0.9556 0.25685 0.19418 0.0
H570 H 1.00791 0.30994 0.2145 0.0
H571 H 0.86408 0.33716 0.11154 0.0
H572 H 0.84079 0.2767 0.11736 0.0
H573 H 0.81597 0.29781 0.14169 0.0
H574 H 0.79179 0.1297 0.15485 0.0
H575 H 0.71942 0.17405 0.20975 0.0
H576 H 0.9367 0.23648 0.14619 0.0
H577 H 0.90217 0.24761 0.11954 0.0
H578 H 0.87831 0.18695 0.12517 0.0
H579 H 0.77615 0.25534 0.22265 0.0
H580 H 0.8138 0.29654 0.1916 0.0
H581 H 0.85748 0.29465 0.2176 0.0
C582 C 0.18528 0.54586 0.06212 0.0
C583 C 0.17314 0.57434 0.07355 0.0
C584 C 0.18694 0.54274 0.03255 0.0
C585 C 0.17343 0.56688 0.0142 0.0
C586 C 0.16208 0.59623 0.02578 0.0
C587 C 0.16321 0.60029 0.05519 0.0
C588 C 0.20156 0.51264 0.02107 0.0
C589 C 0.14562 0.62147 0.00725 0.0
C590 C 0.19402 0.5905 0.93421 0.0
C591 C 0.13452 0.55331 0.92598 0.0
C592 C 0.20959 0.5925 0.96276 0.0
C593 C 0.16393 0.55753 0.98339 0.0
C594 C 0.10513 0.51775 0.97451 0.0
C595 C 0.09163 0.51578 0.94585 0.0
C596 C 0.27359 0.63404 0.97111 0.0
C597 C 1.0545 0.48009 -0.00444 0.0
H598 H 0.19326 0.52593 0.07623 0.0
H599 H 0.15374 0.62233 0.06389 0.0
H600 H 0.15909 0.47666 0.015 0.0
H601 H 0.23169 0.53145 0.0018 0.0
H602 H 0.22387 0.50563 0.03704 0.0
H603 H 0.13853 0.64321 0.01958 0.0
H604 H 0.18197 0.64645 0.99087 0.0
H605 H 0.10329 0.59363 -0.00396 0.0
H606 H 0.22719 0.6193 0.91871 0.0
H607 H 1.0458 0.48691 0.93916 0.0
H608 H 0.28827 0.62118 0.98785 0.0
H609 H 0.27556 0.66334 0.9798 0.0
H610 H 0.30608 0.65034 0.95265 0.0
H611 H 1.06927 0.46488 0.01031 0.0
H612 H 1.0131 0.44919 0.98499 0.0
H613 H 1.04235 0.498 0.00844 0.0
C614 C 0.79265 0.14344 0.37496 0.0
C615 C 0.74377 0.10151 0.39072 0.0
C616 C 0.78934 0.14855 0.3455 0.0
C617 C 0.7369 0.10986 0.33151 0.0
C618 C 0.68744 0.06744 0.3475 0.0
C619 C 0.69104 0.06427 0.37701 0.0
C620 C 0.84182 0.19512 0.32936 0.0
C621 C 0.6313 0.02472 0.33337 0.0
C622 C 0.68629 0.11693 0.25893 0.0
C623 C 0.70448 0.09659 0.24253 0.0
C624 C 0.70204 0.1263 0.28742 0.0
C625 C 0.73373 0.11232 0.30009 0.0
C626 C 0.75465 0.09391 0.28315 0.0
C627 C 0.74035 0.08689 0.25442 0.0
C628 C 0.68072 0.14763 0.30443 0.0
C629 C 0.78685 0.07704 0.29588 0.0
H630 H 0.83319 0.17243 0.38574 0.0
H631 H 0.65338 0.03176 0.38926 0.0
H632 H 0.86319 0.18679 0.31442 0.0
H633 H 0.82522 0.2109 0.31653 0.0
H634 H 0.87709 0.22323 0.34366 0.0
H635 H 0.59794 0.99374 0.34876 0.0
H636 H 0.60877 0.03684 0.32224 0.0
H637 H 0.64412 0.01104 0.3172 0.0
H638 H 0.65678 0.12279 0.24987 0.0
H639 H 0.75268 0.06985 0.24171 0.0
H640 H 0.71638 0.17486 0.3189 0.0
H641 H 0.64007 0.11786 0.31766 0.0
H642 H 0.66837 0.16572 0.29052 0.0
H643 H 0.82434 0.10539 0.30922 0.0
H644 H 0.8057 0.06857 0.2794 0.0
H645 H 0.75432 0.04336 0.30979 0.0
C646 C 0.66207 0.58482 0.7563 0.0
C647 C 0.61365 0.58175 0.76542 0.0
C648 C 0.67733 0.59091 0.72732 0.0
C649 C 0.6446 0.59567 0.70723 0.0
C650 C 0.6 0.59782 0.71674 0.0
C651 C 0.58396 0.58959 0.74575 0.0
C652 C 0.72432 0.58741 0.71813 0.0
C653 C 0.5663 0.60538 0.69612 0.0
C654 C 0.70226 0.62114 0.63053 0.0
C655 C 0.66291 0.5737 0.6205 0.0
C656 C 0.69504 0.62968 0.6583 0.0
C657 C 0.64929 0.5894 0.67673 0.0
C658 C 0.60889 0.54164 0.66639 0.0
C659 C 0.61531 0.53474 0.63824 0.0
C660 C 0.73732 0.6815 0.668 0.0
C661 C 0.56006 0.49735 0.68531 0.0
H662 H 0.68471 0.57839 0.77157 0.0
H663 H 0.54672 0.58748 0.75295 0.0
H664 H 0.70165 0.55265 0.70736 0.0
H665 H 0.75761 0.61815 0.70271 0.0
H666 H 0.74924 0.58797 0.73632 0.0
H667 H 0.54291 0.61631 0.70692 0.0
H668 H 0.59788 0.634 0.67932 0.0
H669 H 0.53161 0.57069 0.68563 0.0
H670 H 0.73925 0.65133 0.61685 0.0
H671 H 0.5839 0.49838 0.63016 0.0
H672 H 0.77367 0.68708 0.68057 0.0
H673 H 0.71274 0.68838 0.68174 0.0
H674 H 0.75913 0.70908 0.64975 0.0
H675 H 0.58082 0.49406 0.70403 0.0
H676 H 0.53393 0.46257 0.67415 0.0
H677 H 0.52787 0.50174 0.69325 0.0
C678 C 0.64397 0.08051 0.56835 0.0
C679 C 0.67842 0.0744 0.55173 0.0
C680 C 0.6471 0.08042 0.59795 0.0
C681 C 0.68407 0.07231 0.61141 0.0
C682 C 0.71783 0.06482 0.59476 0.0
C683 C 0.71544 0.06687 0.56499 0.0
C684 C 0.61149 0.08983 0.61477 0.0
C685 C 0.75606 0.05439 0.60834 0.0
C686 C 0.72721 0.12293 0.68425 0.0
C687 C 0.678 0.08293 0.7009 0.0
C688 C 0.73245 0.11917 0.65523 0.0
C689 C 0.68839 0.07371 0.64285 0.0
C690 C 0.64262 0.03175 0.66036 0.0
C691 C 0.63744 0.03703 0.6892 0.0
C692 C 0.78145 0.16507 0.63744 0.0
C693 C 0.59608 0.98219 0.64823 0.0
H694 H 0.61545 0.08653 0.55811 0.0
H695 H 0.74144 0.06154 0.55219 0.0
H696 H 0.57827 0.05767 0.62948 0.0
H697 H 0.64261 0.12198 0.62784 0.0
H698 H 0.58645 0.09699 0.60098 0.0
H699 H 0.77596 0.04584 0.59254 0.0
H700 H 0.79354 0.08663 0.6198 0.0
H701 H 0.72817 0.02291 0.62422 0.0
H702 H 0.75907 0.15816 0.69359 0.0
H703 H 0.59939 1.00607 0.7021 0.0
H704 H 0.76059 0.17711 0.62448 0.0
H705 H 0.80407 0.15777 0.62261 0.0
H706 H 0.81645 0.1957 0.65065 0.0
H707 H 0.56167 0.98154 0.63713 0.0
H708 H 0.57231 0.95201 0.66507 0.0
H709 H 0.61764 0.97509 0.63251 0.0
C710 C 0.62172 0.51507 0.93654 0.0
C711 C 0.57926 0.51219 0.91997 0.0
C712 C 0.60335 0.4759 0.95557 0.0
C713 C 0.54126 0.43299 0.9578 0.0
C714 C 0.4983 0.43024 0.94122 0.0
C715 C 0.51778 0.47013 0.92277 0.0
C716 C 0.65018 0.48035 0.97327 0.0
C717 C 0.43173 0.38502 0.94284 0.0
C718 C 0.48856 0.31038 0.98885 0.0
C719 C 0.46529 0.308 0.01533 0.0
C720 C 0.5157 0.35184 0.97006 0.0
C721 C 0.5201 0.39166 0.97841 0.0
C722 C 0.49898 0.38999 0.00577 0.0
C723 C 0.47123 0.34791 0.02375 0.0
C724 C 0.53705 0.35213 0.9409 0.0
C725 C 0.50314 0.43166 0.01563 0.0
H726 H 0.66934 0.54761 0.93435 0.0
H727 H 0.48486 0.46801 0.91007 0.0
H728 H 0.63833 0.47652 -0.00387 0.0
H729 H 0.65045 0.45023 0.969 0.0
H730 H 0.69665 0.5161 0.96895 0.0
H731 H 0.4046 0.38819 0.9278 0.0
H732 H 0.42604 0.35217 0.93806 0.0
H733 H 0.41295 0.37868 0.96463 0.0
H734 H 0.48342 0.27912 0.98256 0.0
H735 H 0.45251 0.3454 0.04427 0.0
H736 H 0.58472 0.38622 0.93658 0.0
H737 H 0.50892 0.35181 0.92467 0.0
H738 H 0.53408 0.31989 0.93836 0.0
H739 H 0.54998 0.46719 0.01203 0.0
H740 H 0.49025 0.42663 0.03848 0.0
H741 H 0.47245 0.43411 0.00318 0.0
C742 C 0.11875 0.486 0.25364 0.0
C743 C 0.156 0.53076 0.23752 0.0
C744 C 0.1119 0.48489 0.28317 0.0
C745 C 0.14489 0.52968 0.29687 0.0
C746 C 0.1819 0.57497 0.28052 0.0
C747 C 0.18613 0.57489 0.25095 0.0
C748 C 1.07028 0.43593 0.29973 0.0
C749 C 0.21893 0.62362 0.29434 0.0
C750 C 0.11398 0.54601 0.37116 0.0
C751 C 0.15824 0.54943 0.38623 0.0
C752 C 0.10518 0.53506 0.34248 0.0
C753 C 0.14372 0.52987 0.32836 0.0
C754 C 0.18661 0.53103 0.34397 0.0
C755 C 0.1928 0.54029 0.37286 0.0
C756 C 1.05758 0.53249 0.32688 0.0
C757 C 0.22967 0.52693 0.3297 0.0
H758 H 0.09505 0.45184 0.24312 0.0
H759 H 0.21515 0.6095 0.23846 0.0
H760 H 0.09738 0.43097 0.31345 0.0
H761 H 1.03871 0.43476 0.31383 0.0
H762 H 1.04321 0.40466 0.28566 0.0
H763 H 0.24584 0.65548 0.27862 0.0
H764 H 0.18869 0.62616 0.30677 0.0
H765 H 0.25056 0.62637 0.30936 0.0
H766 H 0.08863 0.55457 0.38146 0.0
H767 H 0.22801 0.54433 0.3846 0.0
H768 H 1.03283 0.5016 0.31254 0.0
H769 H 1.07981 0.56696 0.31363 0.0
H770 H 1.02425 0.5278 0.34173 0.0
H771 H 0.20443 0.49428 0.31672 0.0
H772 H 0.25653 0.52425 0.34522 0.0
H773 H 0.26162 0.55982 0.31516 0.0
loop_
_geom_bond_atom_site_label_1
_geom_bond_atom_site_label_2
_geom_bond_distance
_geom_bond_site_symmetry_2
_ccdc_geom_bond_type
Ho0 C3 2.811 . S
Ho0 O20 2.322 . S
Ho0 O22 2.378 . S
Ho0 O23 2.524 . S
Ho0 O24 2.381 . S
Ho0 O25 2.669 1_455 S
Ho0 O27 2.346 1_455 S
Ho0 O31 2.305 . S
Ho1 C12 2.811 . S
Ho1 O21 2.346 1_655 S
Ho1 O25 2.305 . S
Ho1 O26 2.322 . S
Ho1 O28 2.378 . S
Ho1 O29 2.524 . S
Ho1 O30 2.381 . S
Ho1 O31 2.669 1_655 S
C2 O20 1.259 . S
C2 O21 1.268 . S
C3 Ho0 2.811 . S
C3 C4 1.488 . S
C3 O22 1.215 . S
C3 O23 1.289 . S
C4 C3 1.488 . S
C4 C5 1.348 . S
C4 C9 1.413 . S
C5 C4 1.348 . S
C5 C6 1.442 . S
C5 H32 0.930 . S
C6 C5 1.442 . S
C6 C7 1.381 . S
C6 H33 0.931 . S
C7 C6 1.381 . S
C7 C8 1.321 . S
C8 C7 1.321 . S
C8 C9 1.403 . S
C8 H34 0.934 . S
C9 C4 1.413 . S
C9 C8 1.403 . S
C9 H35 0.930 . S
C10 O24 1.275 . S
C10 O25 1.256 1_455 S
C11 O26 1.259 . S
C11 O27 1.268 . S
C12 Ho1 2.811 . S
C12 C13 1.488 . S
C12 O28 1.215 . S
C12 O29 1.289 . S
C13 C12 1.488 . S
C13 C14 1.348 . S
C13 C18 1.413 . S
C14 C13 1.348 . S
C14 C15 1.442 . S
C14 H36 0.930 . S
C15 C14 1.442 . S
C15 C16 1.381 . S
C15 H37 0.931 . S
C16 C15 1.381 . S
C16 C17 1.321 . S
C17 C16 1.321 . S
C17 C18 1.403 . S
C17 H38 0.934 . S
C18 C13 1.413 . S
C18 C17 1.403 . S
C18 H39 0.930 . S
C19 O30 1.275 1_455 S
C19 O31 1.256 . S
O20 Ho0 2.322 . S
O20 C2 1.259 . S
O21 Ho1 2.346 1_455 S
O21 C2 1.268 . S
O22 Ho0 2.378 . S
O22 C3 1.215 . S
O23 Ho0 2.524 . S
O23 C3 1.289 . S
O24 Ho0 2.381 . S
O24 C10 1.275 . S
O25 Ho0 2.669 1_655 S
O25 Ho1 2.305 . S
O25 C10 1.256 1_655 S
O26 Ho1 2.322 . S
O26 C11 1.259 . S
O27 Ho0 2.346 1_655 S
O27 C11 1.268 . S
O28 Ho1 2.378 . S
O28 C12 1.215 . S
O29 Ho1 2.524 . S
O29 C12 1.289 . S
O30 Ho1 2.381 . S
O30 C19 1.275 1_655 S
O31 Ho0 2.305 . S
O31 Ho1 2.669 1_455 S
O31 C19 1.256 . S
H32 C5 0.930 . S
H33 C6 0.931 . S
H34 C8 0.934 . S
H35 C9 0.930 . S
H36 C14 0.930 . S
H37 C15 0.931 . S
H38 C17 0.934 . S
H39 C18 0.930 . S
Ho40 C43 2.811 1_545 S
Ho40 O60 2.322 1_545 S
Ho40 O62 2.378 1_545 S
Ho40 O63 2.524 1_545 S
Ho40 O64 2.381 . S
Ho40 O65 2.669 . S
Ho40 O67 2.346 . S
Ho40 O71 2.305 . S
Ho41 C52 2.811 . S
Ho41 O61 2.346 1_545 S
Ho41 O65 2.305 . S
Ho41 O66 2.322 . S
Ho41 O68 2.378 . S
Ho41 O69 2.524 . S
Ho41 O70 2.381 . S
Ho41 O71 2.669 . S
C42 O60 1.259 . S
C42 O61 1.268 . S
C43 Ho40 2.811 1_565 S
C43 C44 1.488 . S
C43 O62 1.215 . S
C43 O63 1.289 . S
C44 C43 1.488 . S
C44 C45 1.348 . S
C44 C49 1.413 . S
C45 C44 1.348 . S
C45 C46 1.442 . S
C45 H72 0.930 . S
C46 C45 1.442 . S
C46 C47 1.381 . S
C46 H73 0.931 . S
C47 C46 1.381 . S
C47 C48 1.321 . S
C48 C47 1.321 . S
C48 C49 1.403 . S
C48 H74 0.934 . S
C49 C44 1.413 . S
C49 C48 1.403 . S
C49 H75 0.930 . S
C50 O64 1.275 . S
C50 O65 1.256 . S
C51 O66 1.259 . S
C51 O67 1.268 . S
C52 Ho41 2.811 . S
C52 C53 1.488 . S
C52 O68 1.215 . S
C52 O69 1.289 . S
C53 C52 1.488 . S
C53 C54 1.348 . S
C53 C58 1.413 . S
C54 C53 1.348 . S
C54 C55 1.442 . S
C54 H76 0.930 . S
C55 C54 1.442 . S
C55 C56 1.381 . S
C55 H77 0.931 . S
C56 C55 1.381 . S
C56 C57 1.321 . S
C57 C56 1.321 . S
C57 C58 1.403 . S
C57 H78 0.934 . S
C58 C53 1.413 . S
C58 C57 1.403 . S
C58 H79 0.930 . S
C59 O70 1.275 . S
C59 O71 1.256 . S
O60 Ho40 2.322 1_565 S
O60 C42 1.259 . S
O61 Ho41 2.346 1_565 S
O61 C42 1.268 . S
O62 Ho40 2.378 1_565 S
O62 C43 1.215 . S
O63 Ho40 2.524 1_565 S
O63 C43 1.289 . S
O64 Ho40 2.381 . S
O64 C50 1.275 . S
O65 Ho40 2.669 . S
O65 Ho41 2.305 . S
O65 C50 1.256 . S
O66 Ho41 2.322 . S
O66 C51 1.259 . S
O67 Ho40 2.346 . S
O67 C51 1.268 . S
O68 Ho41 2.378 . S
O68 C52 1.215 . S
O69 Ho41 2.524 . S
O69 C52 1.289 . S
O70 Ho41 2.381 . S
O70 C59 1.275 . S
O71 Ho40 2.305 . S
O71 Ho41 2.669 . S
O71 C59 1.256 . S
H72 C45 0.930 . S
H73 C46 0.931 . S
H74 C48 0.934 . S
H75 C49 0.930 . S
H76 C54 0.930 . S
H77 C55 0.931 . S
H78 C57 0.934 . S
H79 C58 0.930 . S
Ho80 C83 2.811 . S
Ho80 O100 2.322 . S
Ho80 O102 2.378 . S
Ho80 O103 2.524 . S
Ho80 O104 2.381 . S
Ho80 O105 2.669 . S
Ho80 O107 2.346 . S
Ho80 O111 2.305 . S
Ho81 C92 2.811 . S
Ho81 O101 2.346 . S
Ho81 O105 2.305 . S
Ho81 O106 2.322 . S
Ho81 O108 2.378 . S
Ho81 O109 2.524 . S
Ho81 O110 2.381 . S
Ho81 O111 2.669 . S
C82 O100 1.259 . S
C82 O101 1.268 . S
C83 Ho80 2.811 . S
C83 C84 1.488 . S
C83 O102 1.215 . S
C83 O103 1.289 . S
C84 C83 1.488 . S
C84 C85 1.348 . S
C84 C89 1.413 . S
C85 C84 1.348 . S
C85 C86 1.442 . S
C85 H112 0.930 . S
C86 C85 1.442 . S
C86 C87 1.381 . S
C86 H113 0.931 . S
C87 C86 1.381 . S
C87 C88 1.321 . S
C88 C87 1.321 . S
C88 C89 1.403 . S
C88 H114 0.934 . S
C89 C84 1.413 . S
C89 C88 1.403 . S
C89 H115 0.930 . S
C90 O104 1.275 . S
C90 O105 1.256 . S
C91 O106 1.259 . S
C91 O107 1.268 . S
C92 Ho81 2.811 . S
C92 C93 1.488 . S
C92 O108 1.215 . S
C92 O109 1.289 . S
C93 C92 1.488 . S
C93 C94 1.348 . S
C93 C98 1.413 . S
C94 C93 1.348 . S
C94 C95 1.442 . S
C94 H116 0.930 . S
C95 C94 1.442 . S
C95 C96 1.381 . S
C95 H117 0.931 . S
C96 C95 1.381 . S
C96 C97 1.321 . S
C97 C96 1.321 . S
C97 C98 1.403 . S
C97 H118 0.934 . S
C98 C93 1.413 . S
C98 C97 1.403 . S
C98 H119 0.930 . S
C99 O110 1.275 . S
C99 O111 1.256 . S
O100 Ho80 2.322 . S
O100 C82 1.259 . S
O101 Ho81 2.346 . S
O101 C82 1.268 . S
O102 Ho80 2.378 . S
O102 C83 1.215 . S
O103 Ho80 2.524 . S
O103 C83 1.289 . S
O104 Ho80 2.381 . S
O104 C90 1.275 . S
O105 Ho80 2.669 . S
O105 Ho81 2.305 . S
O105 C90 1.256 . S
O106 Ho81 2.322 . S
O106 C91 1.259 . S
O107 Ho80 2.346 . S
O107 C91 1.268 . S
O108 Ho81 2.378 . S
O108 C92 1.215 . S
O109 Ho81 2.524 . S
O109 C92 1.289 . S
O110 Ho81 2.381 . S
O110 C99 1.275 . S
O111 Ho80 2.305 . S
O111 Ho81 2.669 . S
O111 C99 1.256 . S
H112 C85 0.930 . S
H113 C86 0.931 . S
H114 C88 0.934 . S
H115 C89 0.930 . S
H116 C94 0.930 . S
H117 C95 0.931 . S
H118 C97 0.934 . S
H119 C98 0.930 . S
C120 N121 1.317 1_565 S
C120 N122 1.348 . S
C120 C123 1.485 1_565 S
N121 C120 1.317 1_545 S
N121 N125 1.370 . S
N122 C120 1.348 . S
N122 C124 1.346 . S
C123 C120 1.485 1_545 S
C123 H127 0.960 . S
C123 H128 0.961 1_545 S
C123 H129 0.960 . S
C124 N122 1.346 . S
C124 N125 1.307 1_565 S
C124 C126 1.486 . S
N125 N121 1.370 . S
N125 C124 1.307 1_545 S
C126 C124 1.486 . S
C126 H130 0.960 . S
C126 H131 0.960 . S
C126 H132 0.959 . S
H127 C123 0.960 . S
H128 C123 0.961 1_565 S
H129 C123 0.960 . S
H130 C126 0.960 . S
H131 C126 0.960 . S
H132 C126 0.959 . S
C133 N134 1.317 . S
C133 N135 1.348 . S
C133 C136 1.485 . S
N134 C133 1.317 . S
N134 N138 1.370 . S
N135 C133 1.348 . S
N135 C137 1.346 . S
C136 C133 1.485 . S
C136 H140 0.960 . S
C136 H141 0.961 . S
C136 H142 0.960 . S
C137 N135 1.346 . S
C137 N138 1.307 . S
C137 C139 1.486 . S
N138 N134 1.370 . S
N138 C137 1.307 . S
C139 C137 1.486 . S
C139 H143 0.960 . S
C139 H144 0.960 . S
C139 H145 0.959 . S
H140 C136 0.960 . S
H141 C136 0.961 . S
H142 C136 0.960 . S
H143 C139 0.960 . S
H144 C139 0.960 . S
H145 C139 0.959 . S
C146 N147 1.317 . S
C146 N148 1.348 . S
C146 C149 1.485 . S
N147 C146 1.317 . S
N147 N151 1.370 . S
N148 C146 1.348 . S
N148 C150 1.346 . S
C149 C146 1.485 . S
C149 H153 0.960 . S
C149 H154 0.961 . S
C149 H155 0.960 . S
C150 N148 1.346 . S
C150 N151 1.307 . S
C150 C152 1.486 1_455 S
N151 N147 1.370 . S
N151 C150 1.307 . S
C152 C150 1.486 1_655 S
C152 H156 0.960 . S
C152 H157 0.960 . S
C152 H158 0.959 1_655 S
H153 C149 0.960 . S
H154 C149 0.961 . S
H155 C149 0.960 . S
H156 C152 0.960 . S
H157 C152 0.960 . S
H158 C152 0.959 1_455 S
C159 N160 1.317 . S
C159 N161 1.348 . S
C159 C162 1.485 . S
N160 C159 1.317 . S
N160 N164 1.370 . S
N161 C159 1.348 . S
N161 C163 1.346 . S
C162 C159 1.485 . S
C162 H166 0.960 . S
C162 H167 0.961 . S
C162 H168 0.960 . S
C163 N161 1.346 . S
C163 N164 1.307 . S
C163 C165 1.486 . S
N164 N160 1.370 . S
N164 C163 1.307 . S
C165 C163 1.486 . S
C165 H169 0.960 . S
C165 H170 0.960 . S
C165 H171 0.959 . S
H166 C162 0.960 . S
H167 C162 0.961 . S
H168 C162 0.960 . S
H169 C165 0.960 . S
H170 C165 0.960 . S
H171 C165 0.959 . S
C172 N173 1.317 . S
C172 N174 1.348 . S
C172 C175 1.485 . S
N173 C172 1.317 . S
N173 N177 1.370 . S
N174 C172 1.348 . S
N174 C176 1.346 . S
C175 C172 1.485 . S
C175 H179 0.960 . S
C175 H180 0.961 . S
C175 H181 0.960 . S
C176 N174 1.346 . S
C176 N177 1.307 . S
C176 C178 1.486 . S
N177 N173 1.370 . S
N177 C176 1.307 . S
C178 C176 1.486 . S
C178 H182 0.960 . S
C178 H183 0.960 . S
C178 H184 0.959 . S
H179 C175 0.960 . S
H180 C175 0.961 . S
H181 C175 0.960 . S
H182 C178 0.960 . S
H183 C178 0.960 . S
H184 C178 0.959 . S
C185 N186 1.317 . S
C185 N187 1.348 . S
C185 C188 1.485 . S
N186 C185 1.317 . S
N186 N190 1.370 . S
N187 C185 1.348 . S
N187 C189 1.346 . S
C188 C185 1.485 . S
C188 H192 0.960 . S
C188 H193 0.961 . S
C188 H194 0.960 . S
C189 N187 1.346 . S
C189 N190 1.307 . S
C189 C191 1.486 . S
N190 N186 1.370 . S
N190 C189 1.307 . S
C191 C189 1.486 . S
C191 H195 0.960 . S
C191 H196 0.960 . S
C191 H197 0.959 . S
H192 C188 0.960 . S
H193 C188 0.961 . S
H194 C188 0.960 . S
H195 C191 0.960 . S
H196 C191 0.960 . S
H197 C191 0.959 . S
C198 C199 1.391 . S
C198 C200 1.394 . S
C198 H214 0.931 . S
C199 C198 1.391 . S
C199 C203 1.376 . S
C200 C198 1.394 . S
C200 C201 1.369 . S
C200 C204 1.531 . S
C201 C200 1.369 . S
C201 C202 1.410 . S
C201 C209 1.503 . S
C202 C201 1.410 . S
C202 C203 1.392 . S
C202 C205 1.511 . S
C203 C199 1.376 . S
C203 C202 1.392 . S
C203 H215 0.929 . S
C204 C200 1.531 . S
C204 H216 0.960 . S
C204 H217 0.962 . S
C204 H218 0.960 . S
C205 C202 1.511 . S
C205 H219 0.961 . S
C205 H220 0.961 . S
C205 H221 0.961 . S
C206 C207 1.370 . S
C206 C208 1.363 . S
C206 H222 0.931 . S
C207 C206 1.370 . S
C207 C211 1.408 . S
C208 C206 1.363 . S
C208 C209 1.370 . S
C208 C212 1.524 . S
C209 C201 1.503 . S
C209 C208 1.370 . S
C209 C210 1.403 . S
C210 C209 1.403 . S
C210 C211 1.404 . S
C210 C213 1.539 . S
C211 C207 1.408 . S
C211 C210 1.404 . S
C211 H223 0.930 . S
C212 C208 1.524 . S
C212 H224 0.956 . S
C212 H225 0.961 . S
C212 H226 0.961 . S
C213 C210 1.539 . S
C213 H227 0.958 . S
C213 H228 0.961 . S
C213 H229 0.960 . S
H214 C198 0.931 . S
H215 C203 0.929 . S
H216 C204 0.960 . S
H217 C204 0.962 . S
H218 C204 0.960 . S
H219 C205 0.961 . S
H220 C205 0.961 . S
H221 C205 0.961 . S
H222 C206 0.931 . S
H223 C211 0.930 . S
H224 C212 0.956 . S
H225 C212 0.961 . S
H226 C212 0.961 . S
H227 C213 0.958 . S
H228 C213 0.961 . S
H229 C213 0.960 . S
C230 C231 1.391 . S
C230 C232 1.394 . S
C230 H246 0.931 . S
C231 C230 1.391 . S
C231 C235 1.376 . S
C232 C230 1.394 . S
C232 C233 1.369 . S
C232 C236 1.531 . S
C233 C232 1.369 . S
C233 C234 1.410 . S
C233 C241 1.503 . S
C234 C233 1.410 . S
C234 C235 1.392 . S
C234 C237 1.511 . S
C235 C231 1.376 . S
C235 C234 1.392 . S
C235 H247 0.929 . S
C236 C232 1.531 . S
C236 H248 0.960 . S
C236 H249 0.962 . S
C236 H250 0.960 . S
C237 C234 1.511 . S
C237 H251 0.961 . S
C237 H252 0.961 . S
C237 H253 0.961 . S
C238 C239 1.370 . S
C238 C240 1.363 . S
C238 H254 0.931 . S
C239 C238 1.370 . S
C239 C243 1.408 . S
C240 C238 1.363 . S
C240 C241 1.370 . S
C240 C244 1.524 . S
C241 C233 1.503 . S
C241 C240 1.370 . S
C241 C242 1.403 . S
C242 C241 1.403 . S
C242 C243 1.404 . S
C242 C245 1.539 . S
C243 C239 1.408 . S
C243 C242 1.404 . S
C243 H255 0.930 . S
C244 C240 1.524 . S
C244 H256 0.956 . S
C244 H257 0.961 . S
C244 H258 0.961 . S
C245 C242 1.539 . S
C245 H259 0.958 . S
C245 H260 0.961 . S
C245 H261 0.960 . S
H246 C230 0.931 . S
H247 C235 0.929 . S
H248 C236 0.960 . S
H249 C236 0.962 . S
H250 C236 0.960 . S
H251 C237 0.961 . S
H252 C237 0.961 . S
H253 C237 0.961 . S
H254 C238 0.931 . S
H255 C243 0.930 . S
H256 C244 0.956 . S
H257 C244 0.961 . S
H258 C244 0.961 . S
H259 C245 0.958 . S
H260 C245 0.961 . S
H261 C245 0.960 . S
C262 C263 1.391 . S
C262 C264 1.394 . S
C262 H278 0.931 . S
C263 C262 1.391 . S
C263 C267 1.376 . S
C264 C262 1.394 . S
C264 C265 1.369 . S
C264 C268 1.531 . S
C265 C264 1.369 . S
C265 C266 1.410 . S
C265 C273 1.503 . S
C266 C265 1.410 . S
C266 C267 1.392 . S
C266 C269 1.511 . S
C267 C263 1.376 . S
C267 C266 1.392 . S
C267 H279 0.929 . S
C268 C264 1.531 . S
C268 H280 0.960 . S
C268 H281 0.962 . S
C268 H282 0.960 . S
C269 C266 1.511 . S
C269 H283 0.961 . S
C269 H284 0.961 . S
C269 H285 0.961 . S
C270 C271 1.379 1_545 S
C270 C272 1.332 1_545 S
C270 H286 0.955 . S
C271 C270 1.379 1_565 S
C271 C275 1.408 . S
C272 C270 1.332 1_565 S
C272 C273 1.370 . S
C272 C276 1.524 . S
C273 C265 1.503 . S
C273 C272 1.370 . S
C273 C274 1.403 . S
C274 C273 1.403 . S
C274 C275 1.404 . S
C274 C277 1.539 . S
C275 C271 1.408 . S
C275 C274 1.404 . S
C275 H287 0.930 . S
C276 C272 1.524 . S
C276 H288 0.956 . S
C276 H289 0.961 . S
C276 H290 0.961 1_565 S
C277 C274 1.539 . S
C277 H291 0.958 . S
C277 H292 0.961 . S
C277 H293 0.960 . S
H278 C262 0.931 . S
H279 C267 0.929 . S
H280 C268 0.960 . S
H281 C268 0.962 . S
H282 C268 0.960 . S
H283 C269 0.961 . S
H284 C269 0.961 . S
H285 C269 0.961 . S
H286 C270 0.955 . S
H287 C275 0.930 . S
H288 C276 0.956 . S
H289 C276 0.961 . S
H290 C276 0.961 1_545 S
H291 C277 0.958 . S
H292 C277 0.961 . S
H293 C277 0.960 . S
C294 C295 1.391 . S
C294 C296 1.394 . S
C294 H310 0.931 . S
C295 C294 1.391 . S
C295 C299 1.376 . S
C296 C294 1.394 . S
C296 C297 1.369 . S
C296 C300 1.531 . S
C297 C296 1.369 . S
C297 C298 1.410 . S
C297 C305 1.503 . S
C298 C297 1.410 . S
C298 C299 1.392 . S
C298 C301 1.511 . S
C299 C295 1.376 . S
C299 C298 1.392 . S
C299 H311 0.929 . S
C300 C296 1.531 . S
C300 H312 0.960 . S
C300 H313 0.962 . S
C300 H314 0.960 . S
C301 C298 1.511 . S
C301 H315 0.961 . S
C301 H316 0.961 . S
C301 H317 0.961 . S
C302 C303 1.370 . S
C302 C304 1.363 . S
C302 H318 0.931 . S
C303 C302 1.370 . S
C303 C307 1.408 . S
C304 C302 1.363 . S
C304 C305 1.370 . S
C304 C308 1.524 . S
C305 C297 1.503 . S
C305 C304 1.370 . S
C305 C306 1.403 . S
C306 C305 1.403 . S
C306 C307 1.404 . S
C306 C309 1.539 . S
C307 C303 1.408 . S
C307 C306 1.404 . S
C307 H319 0.930 . S
C308 C304 1.524 . S
C308 H320 0.956 . S
C308 H321 0.961 . S
C308 H322 0.961 . S
C309 C306 1.539 . S
C309 H323 0.958 . S
C309 H324 0.961 . S
C309 H325 0.960 . S
H310 C294 0.931 . S
H311 C299 0.929 . S
H312 C300 0.960 . S
H313 C300 0.962 . S
H314 C300 0.960 . S
H315 C301 0.961 . S
H316 C301 0.961 . S
H317 C301 0.961 . S
H318 C302 0.931 . S
H319 C307 0.930 . S
H320 C308 0.956 . S
H321 C308 0.961 . S
H322 C308 0.961 . S
H323 C309 0.958 . S
H324 C309 0.961 . S
H325 C309 0.960 . S
C326 C327 1.391 . S
C326 C328 1.394 . S
C326 H342 0.931 . S
C327 C326 1.391 . S
C327 C331 1.376 . S
C328 C326 1.394 . S
C328 C329 1.369 . S
C328 C332 1.531 . S
C329 C328 1.369 . S
C329 C330 1.410 . S
C329 C337 1.503 . S
C330 C329 1.410 . S
C330 C331 1.392 . S
C330 C333 1.511 . S
C331 C327 1.376 . S
C331 C330 1.392 . S
C331 H343 0.929 . S
C332 C328 1.531 . S
C332 H344 0.960 . S
C332 H345 0.962 . S
C332 H346 0.960 . S
C333 C330 1.511 . S
C333 H347 0.961 . S
C333 H348 0.961 . S
C333 H349 0.961 . S
C334 C335 1.370 . S
C334 C336 1.363 . S
C334 H350 0.931 . S
C335 C334 1.370 . S
C335 C339 1.408 . S
C336 C334 1.363 . S
C336 C337 1.370 . S
C336 C340 1.524 . S
C337 C329 1.503 . S
C337 C336 1.370 . S
C337 C338 1.403 . S
C338 C337 1.403 . S
C338 C339 1.404 . S
C338 C341 1.539 . S
C339 C335 1.408 . S
C339 C338 1.404 . S
C339 H351 0.930 . S
C340 C336 1.524 . S
C340 H352 0.956 . S
C340 H353 0.961 . S
C340 H354 0.961 . S
C341 C338 1.539 . S
C341 H355 0.958 . S
C341 H356 0.961 . S
C341 H357 0.960 . S
H342 C326 0.931 . S
H343 C331 0.929 . S
H344 C332 0.960 . S
H345 C332 0.962 . S
H346 C332 0.960 . S
H347 C333 0.961 . S
H348 C333 0.961 . S
H349 C333 0.961 . S
H350 C334 0.931 . S
H351 C339 0.930 . S
H352 C340 0.956 . S
H353 C340 0.961 . S
H354 C340 0.961 . S
H355 C341 0.958 . S
H356 C341 0.961 . S
H357 C341 0.960 . S
C358 C359 1.391 . S
C358 C360 1.394 . S
C358 H374 0.931 . S
C359 C358 1.391 . S
C359 C363 1.376 . S
C360 C358 1.394 . S
C360 C361 1.369 . S
C360 C364 1.531 . S
C361 C360 1.369 . S
C361 C362 1.410 . S
C361 C369 1.503 . S
C362 C361 1.410 . S
C362 C363 1.392 . S
C362 C365 1.511 . S
C363 C359 1.376 . S
C363 C362 1.392 . S
C363 H375 0.929 . S
C364 C360 1.531 . S
C364 H376 0.960 . S
C364 H377 0.962 . S
C364 H378 0.960 . S
C365 C362 1.511 . S
C365 H379 0.961 . S
C365 H380 0.961 . S
C365 H381 0.961 . S
C366 C367 1.370 . S
C366 C368 1.363 . S
C366 H382 0.931 . S
C367 C366 1.370 . S
C367 C371 1.408 . S
C368 C366 1.363 . S
C368 C369 1.370 . S
C368 C372 1.524 . S
C369 C361 1.503 . S
C369 C368 1.370 . S
C369 C370 1.403 . S
C370 C369 1.403 . S
C370 C371 1.404 . S
C370 C373 1.539 . S
C371 C367 1.408 . S
C371 C370 1.404 . S
C371 H383 0.930 . S
C372 C368 1.524 . S
C372 H384 0.956 . S
C372 H385 0.961 . S
C372 H386 0.961 . S
C373 C370 1.539 . S
C373 H387 0.958 . S
C373 H388 0.961 . S
C373 H389 0.960 . S
H374 C358 0.931 . S
H375 C363 0.929 . S
H376 C364 0.960 . S
H377 C364 0.962 . S
H378 C364 0.960 . S
H379 C365 0.961 . S
H380 C365 0.961 . S
H381 C365 0.961 . S
H382 C366 0.931 . S
H383 C371 0.930 . S
H384 C372 0.956 . S
H385 C372 0.961 . S
H386 C372 0.961 . S
H387 C373 0.958 . S
H388 C373 0.961 . S
H389 C373 0.960 . S
C390 C391 1.391 . S
C390 C392 1.394 . S
C390 H406 0.931 . S
C391 C390 1.391 . S
C391 C395 1.376 . S
C392 C390 1.394 . S
C392 C393 1.369 . S
C392 C396 1.531 . S
C393 C392 1.369 . S
C393 C394 1.410 . S
C393 C401 1.503 . S
C394 C393 1.410 . S
C394 C395 1.392 . S
C394 C397 1.511 . S
C395 C391 1.376 . S
C395 C394 1.392 . S
C395 H407 0.929 . S
C396 C392 1.531 . S
C396 H408 0.960 . S
C396 H409 0.962 . S
C396 H410 0.960 . S
C397 C394 1.511 . S
C397 H411 0.961 . S
C397 H412 0.961 . S
C397 H413 0.961 . S
C398 C399 1.370 . S
C398 C400 1.363 . S
C398 H414 0.931 . S
C399 C398 1.370 . S
C399 C403 1.408 . S
C400 C398 1.363 . S
C400 C401 1.370 . S
C400 C404 1.524 . S
C401 C393 1.503 . S
C401 C400 1.370 . S
C401 C402 1.403 . S
C402 C401 1.403 . S
C402 C403 1.404 . S
C402 C405 1.539 . S
C403 C399 1.408 . S
C403 C402 1.404 . S
C403 H415 0.930 . S
C404 C400 1.524 . S
C404 H416 0.956 . S
C404 H417 0.961 . S
C404 H418 0.961 . S
C405 C402 1.539 . S
C405 H419 0.958 . S
C405 H420 0.961 . S
C405 H421 0.960 . S
H406 C390 0.931 . S
H407 C395 0.929 . S
H408 C396 0.960 . S
H409 C396 0.962 . S
H410 C396 0.960 . S
H411 C397 0.961 . S
H412 C397 0.961 . S
H413 C397 0.961 . S
H414 C398 0.931 . S
H415 C403 0.930 . S
H416 C404 0.956 . S
H417 C404 0.961 . S
H418 C404 0.961 . S
H419 C405 0.958 . S
H420 C405 0.961 . S
H421 C405 0.960 . S
C422 C423 1.391 . S
C422 C424 1.394 . S
C422 H438 0.931 . S
C423 C422 1.391 . S
C423 C427 1.376 . S
C424 C422 1.394 . S
C424 C425 1.369 . S
C424 C428 1.531 . S
C425 C424 1.369 . S
C425 C426 1.410 . S
C425 C433 1.503 . S
C426 C425 1.410 . S
C426 C427 1.392 . S
C426 C429 1.511 . S
C427 C423 1.376 . S
C427 C426 1.392 . S
C427 H439 0.929 . S
C428 C424 1.531 . S
C428 H440 0.960 . S
C428 H441 0.962 . S
C428 H442 0.960 . S
C429 C426 1.511 . S
C429 H443 0.961 . S
C429 H444 0.961 . S
C429 H445 0.961 . S
C430 C431 1.370 . S
C430 C432 1.363 . S
C430 H446 0.931 . S
C431 C430 1.370 . S
C431 C435 1.408 . S
C432 C430 1.363 . S
C432 C433 1.370 . S
C432 C436 1.524 . S
C433 C425 1.503 . S
C433 C432 1.370 . S
C433 C434 1.403 . S
C434 C433 1.403 . S
C434 C435 1.404 . S
C434 C437 1.539 . S
C435 C431 1.408 . S
C435 C434 1.404 . S
C435 H447 0.930 1_655 S
C436 C432 1.524 . S
C436 H448 0.956 . S
C436 H449 0.961 . S
C436 H450 0.961 . S
C437 C434 1.539 . S
C437 H451 0.958 . S
C437 H452 0.961 . S
C437 H453 0.960 . S
H438 C422 0.931 . S
H439 C427 0.929 . S
H440 C428 0.960 . S
H441 C428 0.962 . S
H442 C428 0.960 . S
H443 C429 0.961 . S
H444 C429 0.961 . S
H445 C429 0.961 . S
H446 C430 0.931 . S
H447 C435 0.930 1_455 S
H448 C436 0.956 . S
H449 C436 0.961 . S
H450 C436 0.961 . S
H451 C437 0.958 . S
H452 C437 0.961 . S
H453 C437 0.960 . S
C454 C455 1.391 . S
C454 C456 1.394 . S
C454 H470 0.931 . S
C455 C454 1.391 . S
C455 C459 1.376 . S
C456 C454 1.394 . S
C456 C457 1.369 . S
C456 C460 1.531 . S
C457 C456 1.369 . S
C457 C458 1.410 . S
C457 C465 1.503 . S
C458 C457 1.410 . S
C458 C459 1.392 . S
C458 C461 1.511 . S
C459 C455 1.376 . S
C459 C458 1.392 . S
C459 H471 0.929 . S
C460 C456 1.531 . S
C460 H472 0.960 . S
C460 H473 0.962 . S
C460 H474 0.960 . S
C461 C458 1.511 . S
C461 H475 0.961 . S
C461 H476 0.961 . S
C461 H477 0.961 . S
C462 C463 1.370 . S
C462 C464 1.363 . S
C462 H478 0.931 . S
C463 C462 1.370 . S
C463 C467 1.408 . S
C464 C462 1.363 . S
C464 C465 1.370 . S
C464 C468 1.524 . S
C465 C457 1.503 . S
C465 C464 1.370 . S
C465 C466 1.403 . S
C466 C465 1.403 . S
C466 C467 1.404 . S
C466 C469 1.539 . S
C467 C463 1.408 . S
C467 C466 1.404 . S
C467 H479 0.930 . S
C468 C464 1.524 . S
C468 H480 0.956 . S
C468 H481 0.961 . S
C468 H482 0.961 . S
C469 C466 1.539 . S
C469 H483 0.958 . S
C469 H484 0.961 . S
C469 H485 0.960 . S
H470 C454 0.931 . S
H471 C459 0.929 . S
H472 C460 0.960 . S
H473 C460 0.962 . S
H474 C460 0.960 . S
H475 C461 0.961 . S
H476 C461 0.961 . S
H477 C461 0.961 . S
H478 C462 0.931 . S
H479 C467 0.930 . S
H480 C468 0.956 . S
H481 C468 0.961 . S
H482 C468 0.961 . S
H483 C469 0.958 . S
H484 C469 0.961 . S
H485 C469 0.960 . S
C486 C487 1.391 . S
C486 C488 1.394 . S
C486 H502 0.931 . S
C487 C486 1.391 . S
C487 C491 1.376 . S
C488 C486 1.394 . S
C488 C489 1.369 . S
C488 C492 1.531 . S
C489 C488 1.369 . S
C489 C490 1.410 . S
C489 C497 1.503 . S
C490 C489 1.410 . S
C490 C491 1.392 . S
C490 C493 1.511 . S
C491 C487 1.376 . S
C491 C490 1.392 . S
C491 H503 0.929 . S
C492 C488 1.531 . S
C492 H504 0.960 . S
C492 H505 0.962 . S
C492 H506 0.960 . S
C493 C490 1.511 . S
C493 H507 0.961 . S
C493 H508 0.961 . S
C493 H509 0.961 . S
C494 C495 1.370 . S
C494 C496 1.363 . S
C494 H510 0.931 . S
C495 C494 1.370 . S
C495 C499 1.408 . S
C496 C494 1.363 . S
C496 C497 1.370 . S
C496 C500 1.524 . S
C497 C489 1.503 . S
C497 C496 1.370 . S
C497 C498 1.403 . S
C498 C497 1.403 . S
C498 C499 1.404 . S
C498 C501 1.539 . S
C499 C495 1.408 . S
C499 C498 1.404 . S
C499 H511 0.930 . S
C500 C496 1.524 . S
C500 H512 0.956 . S
C500 H513 0.961 . S
C500 H514 0.961 . S
C501 C498 1.539 . S
C501 H515 0.958 . S
C501 H516 0.961 . S
C501 H517 0.960 . S
H502 C486 0.931 . S
H503 C491 0.929 . S
H504 C492 0.960 . S
H505 C492 0.962 . S
H506 C492 0.960 . S
H507 C493 0.961 . S
H508 C493 0.961 . S
H509 C493 0.961 . S
H510 C494 0.931 . S
H511 C499 0.930 . S
H512 C500 0.956 . S
H513 C500 0.961 . S
H514 C500 0.961 . S
H515 C501 0.958 . S
H516 C501 0.961 . S
H517 C501 0.960 . S
C518 C519 1.391 . S
C518 C520 1.394 . S
C518 H534 0.931 . S
C519 C518 1.391 . S
C519 C523 1.376 . S
C520 C518 1.394 . S
C520 C521 1.369 . S
C520 C524 1.531 . S
C521 C520 1.369 . S
C521 C522 1.410 . S
C521 C529 1.503 . S
C522 C521 1.410 . S
C522 C523 1.392 . S
C522 C525 1.511 . S
C523 C519 1.376 . S
C523 C522 1.392 . S
C523 H535 0.929 . S
C524 C520 1.531 . S
C524 H536 0.960 . S
C524 H537 0.962 . S
C524 H538 0.960 . S
C525 C522 1.511 . S
C525 H539 0.961 . S
C525 H540 0.961 . S
C525 H541 0.961 . S
C526 C527 1.370 . S
C526 C528 1.363 . S
C526 H542 0.931 . S
C527 C526 1.370 . S
C527 C531 1.408 . S
C528 C526 1.363 . S
C528 C529 1.370 . S
C528 C532 1.524 . S
C529 C521 1.503 . S
C529 C528 1.370 . S
C529 C530 1.403 . S
C530 C529 1.403 . S
C530 C531 1.404 . S
C530 C533 1.539 . S
C531 C527 1.408 . S
C531 C530 1.404 . S
C531 H543 0.930 . S
C532 C528 1.524 . S
C532 H544 0.956 . S
C532 H545 0.961 . S
C532 H546 0.961 . S
C533 C530 1.539 . S
C533 H547 0.958 . S
C533 H548 0.961 . S
C533 H549 0.960 . S
H534 C518 0.931 . S
H535 C523 0.929 . S
H536 C524 0.960 . S
H537 C524 0.962 . S
H538 C524 0.960 . S
H539 C525 0.961 . S
H540 C525 0.961 . S
H541 C525 0.961 . S
H542 C526 0.931 . S
H543 C531 0.930 . S
H544 C532 0.956 . S
H545 C532 0.961 . S
H546 C532 0.961 . S
H547 C533 0.958 . S
H548 C533 0.961 . S
H549 C533 0.960 . S
C550 C551 1.391 . S
C550 C552 1.394 . S
C550 H566 0.931 . S
C551 C550 1.391 . S
C551 C555 1.376 . S
C552 C550 1.394 . S
C552 C553 1.369 . S
C552 C556 1.531 . S
C553 C552 1.369 . S
C553 C554 1.410 . S
C553 C561 1.503 . S
C554 C553 1.410 . S
C554 C555 1.392 . S
C554 C557 1.511 . S
C555 C551 1.376 . S
C555 C554 1.392 . S
C555 H567 0.929 . S
C556 C552 1.531 . S
C556 H568 0.960 . S
C556 H569 0.962 . S
C556 H570 0.960 . S
C557 C554 1.511 . S
C557 H571 0.961 . S
C557 H572 0.961 . S
C557 H573 0.961 . S
C558 C559 1.370 . S
C558 C560 1.363 . S
C558 H574 0.931 . S
C559 C558 1.370 . S
C559 C563 1.408 . S
C560 C558 1.363 . S
C560 C561 1.370 . S
C560 C564 1.524 . S
C561 C553 1.503 . S
C561 C560 1.370 . S
C561 C562 1.403 . S
C562 C561 1.403 . S
C562 C563 1.404 . S
C562 C565 1.539 . S
C563 C559 1.408 . S
C563 C562 1.404 . S
C563 H575 0.930 . S
C564 C560 1.524 . S
C564 H576 0.956 . S
C564 H577 0.961 . S
C564 H578 0.961 . S
C565 C562 1.539 . S
C565 H579 0.958 . S
C565 H580 0.961 . S
C565 H581 0.960 . S
H566 C550 0.931 . S
H567 C555 0.929 . S
H568 C556 0.960 . S
H569 C556 0.962 . S
H570 C556 0.960 . S
H571 C557 0.961 . S
H572 C557 0.961 . S
H573 C557 0.961 . S
H574 C558 0.931 . S
H575 C563 0.930 . S
H576 C564 0.956 . S
H577 C564 0.961 . S
H578 C564 0.961 . S
H579 C565 0.958 . S
H580 C565 0.961 . S
H581 C565 0.960 . S
C582 C583 1.391 . S
C582 C584 1.394 . S
C582 H598 0.931 . S
C583 C582 1.391 . S
C583 C587 1.376 1_455 S
C584 C582 1.394 . S
C584 C585 1.369 . S
C584 C588 1.531 . S
C585 C584 1.369 . S
C585 C586 1.410 1_455 S
C585 C593 1.503 1_554 S
C586 C585 1.410 1_655 S
C586 C587 1.392 . S
C586 C589 1.511 . S
C587 C583 1.376 1_655 S
C587 C586 1.392 . S
C587 H599 0.929 . S
C588 C584 1.531 . S
C588 H600 0.960 1_554 S
C588 H601 0.962 . S
C588 H602 0.960 . S
C589 C586 1.511 . S
C589 H603 0.961 . S
C589 H604 0.961 1_554 S
C589 H605 0.961 . S
C590 C591 1.370 . S
C590 C592 1.363 . S
C590 H606 0.931 . S
C591 C590 1.370 . S
C591 C595 1.408 . S
C592 C590 1.363 . S
C592 C593 1.370 . S
C592 C596 1.524 . S
C593 C585 1.503 1_556 S
C593 C592 1.370 . S
C593 C594 1.403 . S
C594 C593 1.403 . S
C594 C595 1.404 . S
C594 C597 1.539 1_455 S
C595 C591 1.408 . S
C595 C594 1.404 . S
C595 H607 0.930 1_455 S
C596 C592 1.524 . S
C596 H608 0.956 1_556 S
C596 H609 0.961 1_556 S
C596 H610 0.961 . S
C597 C594 1.539 1_655 S
C597 H611 0.958 . S
C597 H612 0.961 . S
C597 H613 0.960 . S
H598 C582 0.931 . S
H599 C587 0.929 . S
H600 C588 0.960 1_556 S
H601 C588 0.962 . S
H602 C588 0.960 . S
H603 C589 0.961 . S
H604 C589 0.961 1_556 S
H605 C589 0.961 . S
H606 C590 0.931 . S
H607 C595 0.930 1_655 S
H608 C596 0.956 1_554 S
H609 C596 0.961 1_554 S
H610 C596 0.961 . S
H611 C597 0.958 . S
H612 C597 0.961 . S
H613 C597 0.960 . S
C614 C615 1.391 . S
C614 C616 1.394 . S
C614 H630 0.931 . S
C615 C614 1.391 . S
C615 C619 1.376 . S
C616 C614 1.394 . S
C616 C617 1.369 . S
C616 C620 1.508 1_545 S
C617 C616 1.369 . S
C617 C618 1.410 . S
C617 C625 1.503 . S
C618 C617 1.410 . S
C618 C619 1.392 . S
C618 C621 1.511 . S
C619 C615 1.376 . S
C619 C618 1.392 . S
C619 H631 0.929 . S
C620 C616 1.508 1_565 S
C620 H632 0.967 . S
C620 H633 0.952 1_565 S
C620 H634 0.987 . S
C621 C618 1.511 . S
C621 H635 0.961 . S
C621 H636 0.961 . S
C621 H637 0.966 . S
C622 C623 1.370 . S
C622 C624 1.363 . S
C622 H638 0.931 . S
C623 C622 1.370 . S
C623 C627 1.408 1_545 S
C624 C622 1.363 . S
C624 C625 1.370 . S
C624 C628 1.524 . S
C625 C617 1.503 . S
C625 C624 1.370 . S
C625 C626 1.403 1_545 S
C626 C625 1.403 1_565 S
C626 C627 1.404 . S
C626 C629 1.539 . S
C627 C623 1.408 1_565 S
C627 C626 1.404 . S
C627 H639 0.930 . S
C628 C624 1.524 . S
C628 H640 0.956 . S
C628 H641 0.961 . S
C628 H642 0.961 . S
C629 C626 1.539 . S
C629 H643 0.958 . S
C629 H644 0.961 . S
C629 H645 0.960 . S
H630 C614 0.931 . S
H631 C619 0.929 . S
H632 C620 0.967 . S
H633 C620 0.952 1_545 S
H634 C620 0.987 . S
H635 C621 0.961 . S
H636 C621 0.961 . S
H637 C621 0.966 . S
H638 C622 0.931 . S
H639 C627 0.930 . S
H640 C628 0.956 . S
H641 C628 0.961 . S
H642 C628 0.961 . S
H643 C629 0.958 . S
H644 C629 0.961 . S
H645 C629 0.960 . S
C646 C647 1.391 . S
C646 C648 1.394 . S
C646 H662 0.931 . S
C647 C646 1.391 . S
C647 C651 1.376 . S
C648 C646 1.394 . S
C648 C649 1.369 . S
C648 C652 1.531 . S
C649 C648 1.369 . S
C649 C650 1.410 . S
C649 C657 1.503 . S
C650 C649 1.410 . S
C650 C651 1.392 . S
C650 C653 1.511 . S
C651 C647 1.376 . S
C651 C650 1.392 . S
C651 H663 0.929 . S
C652 C648 1.531 . S
C652 H664 0.960 . S
C652 H665 0.962 . S
C652 H666 0.960 . S
C653 C650 1.511 . S
C653 H667 0.961 . S
C653 H668 0.961 . S
C653 H669 0.961 . S
C654 C655 1.370 . S
C654 C656 1.363 . S
C654 H670 0.931 . S
C655 C654 1.370 . S
C655 C659 1.408 . S
C656 C654 1.363 . S
C656 C657 1.370 . S
C656 C660 1.524 . S
C657 C649 1.503 . S
C657 C656 1.370 . S
C657 C658 1.403 . S
C658 C657 1.403 . S
C658 C659 1.404 . S
C658 C661 1.539 . S
C659 C655 1.408 . S
C659 C658 1.404 . S
C659 H671 0.930 . S
C660 C656 1.524 . S
C660 H672 0.956 . S
C660 H673 0.961 . S
C660 H674 0.961 . S
C661 C658 1.539 . S
C661 H675 0.958 . S
C661 H676 0.961 . S
C661 H677 0.960 . S
H662 C646 0.931 . S
H663 C651 0.929 . S
H664 C652 0.960 . S
H665 C652 0.962 . S
H666 C652 0.960 . S
H667 C653 0.961 . S
H668 C653 0.961 . S
H669 C653 0.961 . S
H670 C654 0.931 . S
H671 C659 0.930 . S
H672 C660 0.956 . S
H673 C660 0.961 . S
H674 C660 0.961 . S
H675 C661 0.958 . S
H676 C661 0.961 . S
H677 C661 0.960 . S
C678 C679 1.391 . S
C678 C680 1.394 . S
C678 H694 0.931 1_545 S
C679 C678 1.391 . S
C679 C683 1.376 . S
C680 C678 1.394 . S
C680 C681 1.369 . S
C680 C684 1.531 1_545 S
C681 C680 1.369 . S
C681 C682 1.410 . S
C681 C689 1.503 . S
C682 C681 1.410 . S
C682 C683 1.392 . S
C682 C685 1.511 . S
C683 C679 1.376 . S
C683 C682 1.392 . S
C683 H695 0.929 . S
C684 C680 1.531 1_565 S
C684 H696 0.960 . S
C684 H697 0.962 1_565 S
C684 H698 0.960 . S
C685 C682 1.511 . S
C685 H699 0.961 . S
C685 H700 0.961 . S
C685 H701 0.961 . S
C686 C687 1.370 . S
C686 C688 1.363 . S
C686 H702 0.931 . S
C687 C686 1.370 . S
C687 C691 1.408 1_545 S
C688 C686 1.363 . S
C688 C689 1.370 . S
C688 C692 1.524 . S
C689 C681 1.503 . S
C689 C688 1.370 . S
C689 C690 1.403 1_545 S
C690 C689 1.403 1_565 S
C690 C691 1.404 . S
C690 C693 1.539 . S
C691 C687 1.408 1_565 S
C691 C690 1.404 . S
C691 H703 0.930 . S
C692 C688 1.524 . S
C692 H704 0.956 . S
C692 H705 0.961 . S
C692 H706 0.961 . S
C693 C690 1.539 . S
C693 H707 0.958 . S
C693 H708 0.961 . S
C693 H709 0.960 . S
H694 C678 0.931 1_565 S
H695 C683 0.929 . S
H696 C684 0.960 . S
H697 C684 0.962 1_545 S
H698 C684 0.960 . S
H699 C685 0.961 . S
H700 C685 0.961 . S
H701 C685 0.961 . S
H702 C686 0.931 . S
H703 C691 0.930 . S
H704 C692 0.956 . S
H705 C692 0.961 . S
H706 C692 0.961 . S
H707 C693 0.958 . S
H708 C693 0.961 . S
H709 C693 0.960 . S
C710 C711 1.391 . S
C710 C712 1.394 . S
C710 H726 0.931 . S
C711 C710 1.391 . S
C711 C715 1.376 . S
C712 C710 1.394 . S
C712 C713 1.369 . S
C712 C716 1.531 . S
C713 C712 1.369 . S
C713 C714 1.410 . S
C713 C721 1.530 . S
C714 C713 1.410 . S
C714 C715 1.392 . S
C714 C717 1.511 . S
C715 C711 1.376 . S
C715 C714 1.392 . S
C715 H727 0.929 . S
C716 C712 1.531 . S
C716 H728 0.960 . S
C716 H729 0.962 . S
C716 H730 0.960 . S
C717 C714 1.511 . S
C717 H731 0.961 . S
C717 H732 0.961 . S
C717 H733 0.961 . S
C718 C719 1.370 . S
C718 C720 1.363 . S
C718 H734 0.931 . S
C719 C718 1.370 . S
C719 C723 1.408 . S
C720 C718 1.363 . S
C720 C721 1.364 1_554 S
C720 C724 1.524 1_554 S
C721 C713 1.530 . S
C721 C720 1.364 1_556 S
C721 C722 1.383 1_556 S
C722 C721 1.383 1_554 S
C722 C723 1.404 . S
C722 C725 1.539 . S
C723 C719 1.408 . S
C723 C722 1.404 . S
C723 H735 0.930 . S
C724 C720 1.524 1_556 S
C724 H736 0.956 . S
C724 H737 0.961 . S
C724 H738 0.961 . S
C725 C722 1.539 . S
C725 H739 0.958 . S
C725 H740 0.961 . S
C725 H741 0.960 1_554 S
H726 C710 0.931 . S
H727 C715 0.929 . S
H728 C716 0.960 . S
H729 C716 0.962 . S
H730 C716 0.960 . S
H731 C717 0.961 . S
H732 C717 0.961 . S
H733 C717 0.961 . S
H734 C718 0.931 . S
H735 C723 0.930 . S
H736 C724 0.956 . S
H737 C724 0.961 . S
H738 C724 0.961 . S
H739 C725 0.958 . S
H740 C725 0.961 . S
H741 C725 0.960 1_556 S
C742 C743 1.391 . S
C742 C744 1.394 . S
C742 H758 0.931 . S
C743 C742 1.391 . S
C743 C747 1.376 1_655 S
C744 C742 1.394 . S
C744 C745 1.390 . S
C744 C748 1.531 . S
C745 C744 1.390 . S
C745 C746 1.388 1_655 S
C745 C753 1.503 1_655 S
C746 C745 1.388 1_455 S
C746 C747 1.392 . S
C746 C749 1.511 . S
C747 C743 1.376 1_455 S
C747 C746 1.392 . S
C747 H759 0.929 . S
C748 C744 1.531 . S
C748 H760 0.960 . S
C748 H761 0.962 . S
C748 H762 0.960 . S
C749 C746 1.511 . S
C749 H763 0.961 . S
C749 H764 0.961 . S
C749 H765 0.961 . S
C750 C751 1.370 . S
C750 C752 1.363 . S
C750 H766 0.931 . S
C751 C750 1.370 . S
C751 C755 1.408 1_455 S
C752 C750 1.363 . S
C752 C753 1.370 . S
C752 C756 1.524 . S
C753 C745 1.503 1_455 S
C753 C752 1.370 . S
C753 C754 1.403 1_455 S
C754 C753 1.403 1_655 S
C754 C755 1.404 . S
C754 C757 1.539 . S
C755 C751 1.408 1_655 S
C755 C754 1.404 . S
C755 H767 0.930 . S
C756 C752 1.524 . S
C756 H768 0.956 . S
C756 H769 0.961 . S
C756 H770 0.961 . S
C757 C754 1.539 . S
C757 H771 0.958 . S
C757 H772 0.961 . S
C757 H773 0.960 . S
H758 C742 0.931 . S
H759 C747 0.929 . S
H760 C748 0.960 . S
H761 C748 0.962 . S
H762 C748 0.960 . S
H763 C749 0.961 . S
H764 C749 0.961 . S
H765 C749 0.961 . S
H766 C750 0.931 . S
H767 C755 0.930 . S
H768 C756 0.956 . S
H769 C756 0.961 . S
H770 C756 0.961 . S
H771 C757 0.958 . S
H772 C757 0.961 . S
H773 C757 0.960 . S
C199 C7 0.461 . S
C207 N187 0.350 . S
C231 C51 1.797 . S
C239 N160 1.807 1_655 S
C263 C87 1.144 . S
C271 N173 1.175 1_565 S
C295 C16 0.701 . S
C303 N186 0.737 . S
C335 N161 1.980 . S
C327 C42 1.973 . S
C367 N174 1.369 . S
C359 C96 1.348 . S
C391 C47 1.089 . S
C399 N134 1.078 . S
C423 C91 2.833 . S
C431 N148 2.796 1_655 S
C455 C2 2.009 . S
C463 N122 2.025 . S
C495 N135 1.425 . S
C487 C56 1.373 . S
C527 N147 3.285 . S
C519 C82 3.233 . S
C551 C11 1.817 . S
C559 N121 1.823 . S
C591 N151 1.734 . S
C583 C19 1.734 . S
C615 C50 1.452 . S
C623 N125 1.467 . S
C647 C99 1.464 . S
C655 N138 1.579 . S
C687 N177 1.545 . S
C679 C59 1.497 . S
C719 N190 1.247 . S
C711 C90 1.241 . S
C743 C10 1.430 1_655 S
C751 N164 1.465 . S
