# Generated by pormake.
# Topology pth, (4,4)-cn, num edge types: 1
# Building blocks:
#     Node 0, Type 0, BuildingBlock: TATPOV_clean_sbu_0, # of connection points: 4
#     Node 1, Type 0, BuildingBlock: TATPOV_clean_sbu_0, # of connection points: 4
#     Node 2, Type 0, BuildingBlock: TATPOV_clean_sbu_0, # of connection points: 4
#     Node 3, Type 1, BuildingBlock: NAWXER_clean_linker_0, # of connection points: 4
#     Node 4, Type 1, BuildingBlock: NAWXER_clean_linker_0, # of connection points: 4
#     Node 5, Type 1, BuildingBlock: NAWXER_clean_linker_0, # of connection points: 4
#     Edge 6, Type (0, 1), BuildingBlock: TEMPAE_clean_linker_10, # of connection points: 2
#     Edge 7, Type (0, 1), BuildingBlock: TEMPAE_clean_linker_10, # of connection points: 2
#     Edge 8, Type (0, 1), BuildingBlock: TEMPAE_clean_linker_10, # of connection points: 2
#     Edge 9, Type (0, 1), BuildingBlock: TEMPAE_clean_linker_10, # of connection points: 2
#     Edge 10, Type (0, 1), BuildingBlock: TEMPAE_clean_linker_10, # of connection points: 2
#     Edge 11, Type (0, 1), BuildingBlock: TEMPAE_clean_linker_10, # of connection points: 2
#     Edge 12, Type (0, 1), BuildingBlock: TEMPAE_clean_linker_10, # of connection points: 2
#     Edge 13, Type (0, 1), BuildingBlock: TEMPAE_clean_linker_10, # of connection points: 2
#     Edge 14, Type (0, 1), BuildingBlock: TEMPAE_clean_linker_10, # of connection points: 2
#     Edge 15, Type (0, 1), BuildingBlock: TEMPAE_clean_linker_10, # of connection points: 2
#     Edge 16, Type (0, 1), BuildingBlock: TEMPAE_clean_linker_10, # of connection points: 2
#     Edge 17, Type (0, 1), BuildingBlock: TEMPAE_clean_linker_10, # of connection points: 2
# Relax obj value: 0.037
# Max RMSD: 0.160
# Mean RMSD: 0.080
data_MOF--net-pth--node1-TATPOV_clean_sbu_0--node2-NAWXER_clean_linker_0--edge1-TEMPAE_clean_linker_10
_symmetry_space_group_name_H-M    P1
_symmetry_Int_Tables_number       1
_symmetry_cell_setting            triclinic
loop_
_symmetry_equiv_pos_as_xyz
'x, y, z'
_cell_length_a     29.436442
_cell_length_b     29.196748
_cell_length_c     64.721655
_cell_angle_alpha  92.615769
_cell_angle_beta   92.213027
_cell_angle_gamma 120.88162
loop_
_atom_site_label
_atom_site_type_symbol
_atom_site_fract_x
_atom_site_fract_y
_atom_site_fract_z
_atom_type_partial_charge
Zn0 Zn 0.10807 -0.00204 0.02964 0.0
Zn1 Zn 0.0835 0.05868 0.0531 0.0
O2 O 0.08512 0.00696 0.07336 0.0
O3 O 0.10399 0.95574 0.05408 0.0
O4 O 0.07208 0.10915 0.07129 0.0
O5 O 0.17554 0.06108 0.02184 0.0
O6 O 0.15123 0.11077 0.0391 0.0
C7 C 0.09269 0.96776 0.07141 0.0
C8 C 0.00986 0.99182 0.01592 0.0
O9 O 0.01832 0.02177 0.03229 0.0
O10 O 0.0423 0.97731 0.01136 0.0
C11 C 0.02924 0.09436 0.08002 0.0
O12 O 0.99061 0.04409 0.07721 0.0
C13 C 0.18289 0.10667 0.02732 0.0
Zn14 Zn 0.15931 0.0999 0.35259 0.0
Zn15 Zn 0.08541 0.08575 0.37884 0.0
O16 O 0.15137 0.10373 0.39771 0.0
O17 O 0.21422 0.12229 0.37649 0.0
O18 O 0.03401 0.08271 0.39918 0.0
O19 O 0.14802 0.15275 0.33761 0.0
O20 O 0.09006 0.14271 0.36015 0.0
C21 C 0.19927 0.11788 0.39476 0.0
C22 C 0.06678 0.99206 0.34992 0.0
O23 O 0.04917 0.01111 0.36339 0.0
O24 O 0.11254 0.02132 0.34358 0.0
C25 C 0.00367 0.04188 0.4087 0.0
O26 O 0.0047 -0.00228 0.40529 0.0
C27 C 0.11491 0.16415 0.34433 0.0
Zn28 Zn 0.09477 0.9176 0.73556 0.0
Zn29 Zn 0.04728 0.95768 0.71237 0.0
O30 O 0.09207 0.94362 0.69214 0.0
O31 O 0.12826 0.90744 0.71053 0.0
O32 O 0.00417 0.97706 0.69377 0.0
O33 O 0.0244 0.859 0.74457 0.0
O34 O 0.98802 0.89546 0.72654 0.0
C35 C 0.12207 0.92412 0.69354 0.0
C36 C 0.12602 0.02859 0.74771 0.0
O37 O 0.09318 0.02261 0.73289 0.0
O38 O 0.13323 0.99052 0.75165 0.0
C39 C 0.01773 0.02295 0.68777 0.0
O40 O 0.06485 0.06406 0.69387 0.0
C41 C 0.98366 0.86036 0.7386 0.0
C42 C 0.96021 0.34877 0.24319 0.0
C43 C 0.99494 0.37204 0.26119 0.0
C44 C 0.94479 0.37882 0.2318 0.0
C45 C 0.96512 0.43311 0.23784 0.0
C46 C 0.01257 0.42545 0.26776 0.0
C47 C -0.00188 0.45559 0.25619 0.0
C48 C 0.95313 0.46792 0.22566 0.0
C49 C 0.02133 0.39793 0.18199 0.0
C50 C 0.98364 0.36416 0.1659 0.0
C51 C 0.01313 0.43346 0.19418 0.0
C52 C 0.96679 0.43536 0.19067 0.0
C53 C 0.93812 0.36753 0.16205 0.0
C54 C 0.92995 0.40304 0.17426 0.0
C55 C 0.95634 0.47087 0.20399 0.0
C56 C 0.00196 0.69125 0.19385 0.0
C57 C 0.98079 0.68517 0.17337 0.0
C58 C 0.98941 0.6465 0.20474 0.0
C59 C 0.95422 0.59455 0.19566 0.0
C60 C 0.94516 0.63314 0.16437 0.0
C61 C 0.93216 0.58837 0.17539 0.0
C62 C 0.94599 0.54695 0.20612 0.0
C63 C 0.88816 0.62945 0.24869 0.0
C64 C 0.91664 0.64798 0.26819 0.0
C65 C 0.89436 0.59409 0.23541 0.0
C66 C 0.92983 0.57748 0.24132 0.0
C67 C 0.95054 0.62965 0.27428 0.0
C68 C 0.95688 0.59473 0.26104 0.0
C69 C 0.93886 0.54145 0.22753 0.0
H70 H 0.94569 0.30769 0.23766 0.0
H71 H 0.91755 0.35972 0.21818 0.0
H72 H 0.03783 0.44429 0.28188 0.0
H73 H 0.01371 0.4971 0.26145 0.0
H74 H 0.05728 0.39705 0.18509 0.0
H75 H 0.04264 0.45901 0.2065 0.0
H76 H 0.90815 0.34184 0.1499 0.0
H77 H 0.89418 0.40431 0.17122 0.0
H78 H 0.02918 0.73063 0.20134 0.0
H79 H 0.00886 0.65269 0.22002 0.0
H80 H 0.92885 0.6268 0.14851 0.0
H81 H 0.90581 0.54878 0.16787 0.0
H82 H 0.86147 0.64262 0.24365 0.0
H83 H 0.8718 0.58011 0.22053 0.0
H84 H 0.97391 0.64393 0.289 0.0
H85 H 0.98431 0.58241 0.26604 0.0
N86 N 0.94371 0.50282 0.23641 0.0
N87 N 0.95294 0.51043 0.19509 0.0
C88 C 0.75736 0.09284 0.51871 0.0
C89 C 0.74184 0.05529 0.50152 0.0
C90 C 0.71929 0.09349 0.53082 0.0
C91 C 0.6651 0.05633 0.52606 0.0
C92 C 0.68746 0.01847 0.49678 0.0
C93 C 0.64955 0.01927 0.50883 0.0
C94 C 0.62382 0.0561 0.53844 0.0
C95 C 0.72074 0.01384 0.58022 0.0
C96 C 0.74638 0.05094 0.59752 0.0
C97 C 0.68045 0.01392 0.56808 0.0
C98 C 0.66542 0.05148 0.57287 0.0
C99 C 0.73055 0.08788 0.60244 0.0
C100 C 0.69027 0.08792 0.59029 0.0
C101 C 0.62322 0.05259 0.56013 0.0
C102 C 0.39729 0.98838 0.57325 0.0
C103 C 0.4037 0.0104 0.5937 0.0
C104 C 0.4414 0.00092 0.56209 0.0
C105 C 0.49305 0.03712 0.57084 0.0
C106 C 0.45552 0.04586 0.60256 0.0
C107 C 0.49962 0.05905 0.59125 0.0
C108 C 0.54025 0.04907 0.5594 0.0
C109 C 0.45308 0.10782 0.52094 0.0
C110 C 0.43421 0.08205 0.50093 0.0
C111 C 0.48827 0.09962 0.53306 0.0
C112 C 0.50465 0.06482 0.52555 0.0
C113 C 0.45144 0.04799 0.49335 0.0
C114 C 0.48635 0.03959 0.50551 0.0
C115 C 0.54304 0.05674 0.53795 0.0
H116 H 0.79885 0.1223 0.52258 0.0
H117 H 0.73214 0.12327 0.54377 0.0
H118 H 0.67412 0.98854 0.48386 0.0
H119 H 0.60793 0.99033 0.50485 0.0
H120 H 0.7312 0.98413 0.57626 0.0
H121 H 0.66083 0.98444 0.55504 0.0
H122 H 0.74973 0.11725 0.61554 0.0
H123 H 0.67904 0.11702 0.59433 0.0
H124 H 0.35814 0.96122 0.56583 0.0
H125 H 0.43496 0.98156 0.5467 0.0
H126 H 0.46223 0.06265 0.61842 0.0
H127 H 0.53899 0.08622 0.59852 0.0
H128 H 0.44054 0.13421 0.52727 0.0
H129 H 0.50302 0.12089 0.54823 0.0
H130 H 0.43865 0.02842 0.47785 0.0
H131 H 0.49901 0.01323 0.49924 0.0
N132 N 0.58403 0.05862 0.52826 0.0
N133 N 0.5812 0.04868 0.56974 0.0
C134 C 0.38221 0.36824 0.85362 0.0
C135 C 0.35332 0.37162 0.83656 0.0
C136 C 0.42045 0.41461 0.86537 0.0
C137 C 0.42907 0.46484 0.86066 0.0
C138 C 0.3625 0.42191 0.83171 0.0
C139 C 0.40003 0.46809 0.84367 0.0
C140 C 0.47163 0.51472 0.87188 0.0
C141 C 0.36308 0.41303 0.92006 0.0
C142 C 0.39 0.41075 0.93815 0.0
C143 C 0.39041 0.451 0.90578 0.0
C144 C 0.44565 0.48575 0.90878 0.0
C145 C 0.44451 0.44832 0.94173 0.0
C146 C 0.47193 0.48455 0.92716 0.0
C147 C 0.47786 0.52482 0.89371 0.0
C148 C 0.66889 0.75172 0.90651 0.0
C149 C 0.68834 0.74446 0.92554 0.0
C150 C 0.6259 0.70819 0.89496 0.0
C151 C 0.60254 0.65658 0.90206 0.0
C152 C 0.66316 0.6932 0.93293 0.0
C153 C 0.62122 0.6499 0.92129 0.0
C154 C 0.55731 0.60896 0.89046 0.0
C155 C 0.68749 0.66781 0.84663 0.0
C156 C 0.67494 0.67812 0.82689 0.0
C157 C 0.64808 0.64257 0.86042 0.0
C158 C 0.59555 0.62853 0.855 0.0
C159 C 0.62232 0.66341 0.82131 0.0
C160 C 0.58299 0.63883 0.83525 0.0
C161 C 0.55269 0.59748 0.86878 0.0
H162 H 0.37645 0.32993 0.85741 0.0
H163 H 0.4438 0.4113 0.87792 0.0
H164 H 0.34078 0.42546 0.8186 0.0
H165 H 0.40678 0.50655 0.83953 0.0
H166 H 0.32109 0.38498 0.91664 0.0
H167 H 0.36829 0.45257 0.89236 0.0
H168 H 0.46656 0.44985 0.95578 0.0
H169 H 0.51431 0.51143 0.93029 0.0
H170 H 0.68733 0.79075 0.9004 0.0
H171 H 0.61115 0.71491 0.88053 0.0
H172 H 0.67589 0.68631 0.94779 0.0
H173 H 0.60364 0.61082 0.92736 0.0
H174 H 0.72754 0.67776 0.85115 0.0
H175 H 0.65855 0.63278 0.8751 0.0
H176 H 0.61165 0.67093 0.80617 0.0
H177 H 0.54257 0.62735 0.83054 0.0
N178 N 0.50932 0.55148 0.86037 0.0
N179 N 0.5199 0.57197 0.90185 0.0
C180 C 0.06496 0.18692 0.09643 0.0
C181 C 0.02291 0.13368 0.09298 0.0
C182 C 0.05946 0.2248 0.10846 0.0
C183 C 0.0107 0.20914 0.11721 0.0
C184 C 0.96817 0.15545 0.11386 0.0
C185 C 0.9748 0.11834 0.10181 0.0
C186 C 0.10579 0.28165 0.11173 0.0
C187 C 0.91553 0.1373 0.12292 0.0
C188 C 0.00995 0.29501 0.16298 0.0
C189 C 0.99133 0.325 0.15337 0.0
C190 C 0.01652 0.25723 0.1514 0.0
C191 C 0.00406 0.24912 0.1297 0.0
C192 C 0.98537 0.27932 0.1199 0.0
C193 C 0.9793 0.31693 0.13184 0.0
C194 C 0.03653 0.22577 0.16241 0.0
C195 C 0.9718 0.27192 0.09678 0.0
H196 H 0.10233 0.19917 0.08971 0.0
H197 H 0.9421 0.07733 0.09922 0.0
H198 H 0.09443 0.30948 0.10554 0.0
H199 H 0.11678 0.29313 0.12855 0.0
H200 H 0.14122 0.28722 0.10405 0.0
H201 H 0.88659 0.09404 0.11904 0.0
H202 H 0.92137 0.14499 0.14004 0.0
H203 H 0.89823 0.16058 0.11703 0.0
H204 H 0.0186 0.30047 0.17964 0.0
H205 H 0.96556 0.34043 0.12428 0.0
H206 H 0.07341 0.23221 0.15579 0.0
H207 H 0.00674 0.18234 0.16002 0.0
H208 H 0.0449 0.2372 0.17934 0.0
H209 H 0.00723 0.28057 0.08841 0.0
H210 H 0.95744 0.29832 0.09156 0.0
H211 H 0.94066 0.22972 0.09226 0.0
C212 C 0.97032 0.09302 0.42851 0.0
C213 C 0.96713 0.04422 0.42326 0.0
C214 C 0.93532 0.09586 0.44189 0.0
C215 C 0.89588 0.0487 0.45013 0.0
C216 C 0.89276 -0.0006 0.4451 0.0
C217 C 0.92856 -0.00222 0.43178 0.0
C218 C 0.94014 0.14925 0.447 0.0
C219 C 0.85099 0.9482 0.45349 0.0
C220 C 0.82938 0.0615 0.49748 0.0
C221 C 0.78192 0.05451 0.48842 0.0
C222 C 0.86694 0.05982 0.48522 0.0
C223 C 0.85667 0.05068 0.46341 0.0
C224 C 0.80896 0.04377 0.45418 0.0
C225 C 0.77233 0.04601 0.46678 0.0
C226 C 0.91749 0.0676 0.4956 0.0
C227 C 0.79657 0.034 0.43097 0.0
H228 H 0.00017 0.12919 0.4221 0.0
H229 H 0.92577 0.95991 0.42781 0.0
H230 H 0.90329 0.1477 0.44133 0.0
H231 H 0.94494 0.15831 0.46405 0.0
H232 H 0.97428 0.1825 0.43996 0.0
H233 H 0.85483 0.91345 0.44858 0.0
H234 H 0.85375 0.95275 0.47068 0.0
H235 H 0.8109 0.9394 0.44803 0.0
H236 H 0.83682 0.06746 0.5142 0.0
H237 H 0.73622 0.0415 0.45962 0.0
H238 H 0.95237 0.10197 0.48944 0.0
H239 H 0.92033 0.03165 0.49207 0.0
H240 H 0.91977 0.07497 0.51271 0.0
H241 H 0.82758 0.06813 0.42315 0.0
H242 H 0.75735 0.02868 0.42627 0.0
H243 H 0.79683 -0.0023 0.4253 0.0
C244 C 0.89212 0.83792 0.74621 0.0
C245 C 0.93244 0.82574 0.74766 0.0
C246 C 0.84694 0.81125 0.75747 0.0
C247 C 0.84159 0.77093 0.77024 0.0
C248 C 0.88048 0.75611 0.77073 0.0
C249 C 0.92563 0.78394 0.75954 0.0
C250 C 0.80654 0.82846 0.75663 0.0
C251 C 0.87568 0.71261 0.78387 0.0
C252 C 0.76556 0.74872 0.81844 0.0
C253 C 0.71662 0.70289 0.81204 0.0
C254 C 0.80621 0.77162 0.80485 0.0
C255 C 0.79794 0.74764 0.78446 0.0
C256 C 0.74846 0.70147 0.77787 0.0
C257 C 0.70818 0.67982 0.79173 0.0
C258 C 0.85814 0.82135 0.81237 0.0
C259 C 0.73845 0.67444 0.75635 0.0
H260 H 0.89701 0.87018 0.73709 0.0
H261 H 0.95638 0.774 0.76061 0.0
H262 H 0.7659 0.79321 0.75349 0.0
H263 H 0.80776 0.84813 0.7719 0.0
H264 H 0.81396 0.85691 0.74456 0.0
H265 H 0.90609 0.70189 0.7808 0.0
H266 H 0.88042 0.7262 0.80052 0.0
H267 H 0.83574 0.67613 0.78097 0.0
H268 H 0.77191 0.76682 0.83409 0.0
H269 H 0.6705 0.64402 0.78685 0.0
H270 H 0.86721 0.8538 0.802 0.0
H271 H 0.8909 0.81306 0.81187 0.0
H272 H 0.85758 0.83592 0.82846 0.0
H273 H 0.74504 0.70324 0.74455 0.0
H274 H 0.69747 0.63939 0.75352 0.0
H275 H 0.76695 0.66081 0.75406 0.0
C276 C 0.08512 0.88597 0.08545 0.0
C277 C 0.08323 0.93282 0.08867 0.0
C278 C 0.07023 0.84895 0.1006 0.0
C279 C 0.05349 0.85914 0.11957 0.0
C280 C 0.05357 0.90735 0.12331 0.0
C281 C 0.06824 0.94356 0.10778 0.0
C282 C 0.07061 0.79795 0.09597 0.0
C283 C 0.03672 0.91993 0.14348 0.0
C284 C 0.96247 0.73506 0.14686 0.0
C285 C -0.00165 0.73251 0.16098 0.0
C286 C 0.97959 0.77711 0.13378 0.0
C287 C 0.03383 0.81798 0.13499 0.0
C288 C 0.06984 0.81696 0.14981 0.0
C289 C 0.05178 0.7741 0.16251 0.0
C290 C 0.93995 0.7767 0.11813 0.0
C291 C 0.1279 0.86002 0.15168 0.0
H292 H 0.09668 0.87722 0.07078 0.0
H293 H 0.06676 0.97968 0.11044 0.0
H294 H 0.095 0.79336 0.10826 0.0
H295 H 0.02965 0.76298 0.09587 0.0
H296 H 0.08648 0.79695 0.08077 0.0
H297 H 0.04292 0.96086 0.14463 0.0
H298 H 0.99405 0.89067 0.14491 0.0
H299 H 0.05919 0.91618 0.1568 0.0
H300 H 0.92098 0.70371 0.14582 0.0
H301 H 0.08007 0.77228 0.17314 0.0
H302 H 0.95044 0.77193 0.10222 0.0
H303 H 0.94121 0.81534 0.11961 0.0
H304 H 0.89874 0.74379 0.11997 0.0
H305 H 0.14686 0.85714 0.13759 0.0
H306 H 0.14947 0.8566 0.16543 0.0
H307 H 0.13254 0.90025 0.1528 0.0
C308 C 0.28667 0.13278 0.40858 0.0
C309 C 0.23612 0.12363 0.41234 0.0
C310 C 0.31926 0.13055 0.42437 0.0
C311 C 0.30114 0.11938 0.4445 0.0
C312 C 0.25157 0.11326 0.44874 0.0
C313 C 0.2195 0.11526 0.43258 0.0
C314 C 0.37186 0.13725 0.4192 0.0
C315 C 0.23131 0.10209 0.4701 0.0
C316 C 0.35566 0.04865 0.47538 0.0
C317 C 0.39754 0.09126 0.48775 0.0
C318 C 0.32306 0.05712 0.46169 0.0
C319 C 0.33214 0.10944 0.46048 0.0
C320 C 0.37295 0.15233 0.4735 0.0
C321 C 0.40535 0.14278 0.48692 0.0
C322 C 0.27994 0.01028 0.44805 0.0
C323 C 0.38352 0.20856 0.47275 0.0
H324 H 0.30007 0.13955 0.39304 0.0
H325 H 0.18067 0.10846 0.43568 0.0
H326 H 0.40418 0.16752 0.43032 0.0
H327 H 0.37052 0.09884 0.4206 0.0
H328 H 0.3819 0.14965 0.40324 0.0
H329 H 0.19517 0.10469 0.47146 0.0
H330 H 0.22158 0.06131 0.47361 0.0
H331 H 0.26234 0.13072 0.48202 0.0
H332 H 0.34865 0.00855 0.47624 0.0
H333 H 0.43788 0.17603 0.4963 0.0
H334 H 0.28827 0.01686 0.43153 0.0
H335 H 0.24108 0.00683 0.45005 0.0
H336 H 0.27663 0.97179 0.45151 0.0
H337 H 0.39869 0.22393 0.4576 0.0
H338 H 0.41307 0.23634 0.48529 0.0
H339 H 0.3462 0.20884 0.4741 0.0
C340 C 0.13909 0.11641 0.76166 0.0
C341 C 0.15687 0.08015 0.76032 0.0
C342 C 0.16797 0.16483 0.77406 0.0
C343 C 0.2162 0.17757 0.78494 0.0
C344 C 0.23462 0.14141 0.78337 0.0
C345 C 0.20448 0.09295 0.77125 0.0
C346 C 0.14671 0.20207 0.77569 0.0
C347 C 0.28641 0.15403 0.79439 0.0
C348 C 0.32041 0.32167 0.80178 0.0
C349 C 0.31567 0.32306 0.82323 0.0
C350 C 0.2873 0.2749 0.78902 0.0
C351 C 0.24799 0.22882 0.79791 0.0
C352 C 0.24181 0.23068 0.81948 0.0
C353 C 0.2762 0.27771 0.83194 0.0
C354 C 0.29584 0.27416 0.76618 0.0
C355 C 0.19973 0.18264 0.82945 0.0
H356 H 0.10216 0.10652 0.75331 0.0
H357 H 0.21866 0.06528 0.77013 0.0
H358 H 0.14129 0.20923 0.79215 0.0
H359 H 0.17564 0.24143 0.77016 0.0
H360 H 0.10818 0.18588 0.76652 0.0
H361 H 0.2957 0.12214 0.79114 0.0
H362 H 0.31941 0.1923 0.78956 0.0
H363 H 0.2848 0.15915 0.81138 0.0
H364 H 0.3513 0.3567 0.79511 0.0
H365 H 0.27234 0.27908 0.84851 0.0
H366 H 0.25816 0.2605 0.7568 0.0
H367 H 0.30874 0.24532 0.76233 0.0
H368 H 0.32629 0.31412 0.76153 0.0
H369 H 0.16041 0.16709 0.82104 0.0
H370 H 0.19706 0.19212 0.84602 0.0
H371 H 0.20875 0.15011 0.82848 0.0
C372 C 0.93045 0.98473 0.66732 0.0
C373 C 0.98004 0.02945 0.67413 0.0
C374 C 0.89385 0.98984 0.65462 0.0
C375 C 0.90698 0.04093 0.64856 0.0
C376 C 0.95701 0.08626 0.65526 0.0
C377 C 0.993 0.07998 0.66796 0.0
C378 C 0.84094 0.94049 0.64777 0.0
C379 C 0.97233 0.1414 0.64913 0.0
C380 C 0.82733 0.04316 0.60137 0.0
C381 C 0.78892 0.05054 0.61056 0.0
C382 C 0.86673 0.04113 0.61353 0.0
C383 C 0.8678 0.04669 0.63542 0.0
C384 C 0.82977 0.05514 0.64479 0.0
C385 C 0.79076 0.05686 0.63226 0.0
C386 C 0.90664 0.03214 0.60296 0.0
C387 C 0.82953 0.06113 0.66808 0.0
H388 H 0.92001 0.94548 0.67195 0.0
H389 H 0.03118 0.11475 0.67314 0.0
H390 H 0.80828 0.94512 0.65339 0.0
H391 H 0.83557 0.93535 0.63059 0.0
H392 H 0.83712 0.90357 0.65363 0.0
H393 H 0.01301 0.17243 0.65539 0.0
H394 H 0.97021 0.14163 0.63199 0.0
H395 H 0.9439 0.1524 0.65489 0.0
H396 H 0.82668 0.03908 0.58461 0.0
H397 H 0.76088 0.06194 0.6395 0.0
H398 H 0.90242 0.99386 0.60728 0.0
H399 H 0.94756 0.0645 0.60824 0.0
H400 H 0.90171 0.03074 0.5858 0.0
H401 H 0.82164 0.02362 0.67478 0.0
H402 H 0.79901 0.07024 0.67291 0.0
H403 H 0.86899 0.0936 0.67481 0.0
C404 C 0.96478 0.96881 0.9807 0.0
C405 C 0.96157 0.97192 0.00219 0.0
C406 C 0.91885 0.94093 0.9673 0.0
C407 C 0.86877 0.91408 0.97574 0.0
C408 C 0.86521 0.92055 0.99735 0.0
C409 C 0.91193 0.95015 0.01037 0.0
C410 C 0.92431 0.93633 0.94431 0.0
C411 C 0.81261 0.8919 0.00697 0.0
C412 C 0.74288 0.84086 0.93971 0.0
C413 C 0.73531 0.78927 0.93769 0.0
C414 C 0.78634 0.88237 0.95198 0.0
C415 C 0.82228 0.87156 0.96267 0.0
C416 C 0.81496 0.81971 0.96055 0.0
C417 C 0.77217 0.77959 0.94786 0.0
C418 C 0.79378 0.93757 0.95355 0.0
C419 C 0.85234 0.80638 0.97171 0.0
H420 H 0.0034 0.98641 0.97442 0.0
H421 H 0.90969 0.95264 0.02703 0.0
H422 H 0.91854 0.89645 0.93983 0.0
H423 H 0.89362 0.9399 0.93528 0.0
H424 H 0.96412 0.96741 0.93993 0.0
H425 H 0.81554 0.90783 0.0232 0.0
H426 H 0.78196 0.89521 0.99781 0.0
H427 H 0.79899 0.84871 0.00703 0.0
H428 H 0.71444 0.84862 0.93199 0.0
H429 H 0.76759 0.74033 0.94592 0.0
H430 H 0.83369 0.96729 0.94883 0.0
H431 H 0.79166 0.94928 0.96986 0.0
H432 H 0.76336 0.93984 0.94368 0.0
H433 H 0.89268 0.83034 0.96619 0.0
H434 H 0.83929 0.76333 0.96925 0.0
H435 H 0.85534 0.81676 0.98861 0.0
C436 C 0.0587 0.91166 0.33137 0.0
C437 C 0.03392 0.93626 0.34092 0.0
C438 C 0.02896 0.86078 0.32099 0.0
C439 C 0.97284 0.83385 0.31991 0.0
C440 C 0.94738 0.85759 0.33008 0.0
C441 C 0.97835 0.90863 0.34061 0.0
C442 C 0.05783 0.83654 0.31067 0.0
C443 C 0.88768 0.83016 0.32917 0.0
C444 C 0.92144 0.73583 0.27288 0.0
C445 C 0.91574 0.69017 0.28154 0.0
C446 C 0.93432 0.78175 0.28555 0.0
C447 C 0.94204 0.78193 0.30729 0.0
C448 C 0.93046 0.73407 0.3162 0.0
C449 C 0.91725 0.68861 0.30318 0.0
C450 C 0.94527 0.83172 0.27547 0.0
C451 C 0.93753 0.73232 0.33931 0.0
H452 H 0.10165 0.93257 0.33178 0.0
H453 H 0.95906 0.92764 0.34792 0.0
H454 H 0.04441 0.79638 0.31616 0.0
H455 H 0.04855 0.83131 0.29364 0.0
H456 H 0.10157 0.86173 0.31381 0.0
H457 H 0.87415 0.84998 0.34031 0.0
H458 H 0.87257 0.83099 0.3133 0.0
H459 H 0.86965 0.78754 0.33246 0.0
H460 H 0.9202 0.73734 0.25618 0.0
H461 H 0.91148 0.65286 0.30995 0.0
H462 H 0.98881 0.85939 0.27551 0.0
H463 H 0.92889 0.85284 0.28425 0.0
H464 H 0.92817 0.82265 0.25916 0.0
H465 H 0.98046 0.75153 0.34402 0.0
H466 H 0.91707 0.69059 0.34401 0.0
H467 H 0.92226 0.7548 0.34789 0.0
C468 C 0.14819 0.94387 0.65704 0.0
C469 C 0.1551 0.9272 0.67631 0.0
C470 C 0.18413 0.95398 0.64171 0.0
C471 C 0.22839 0.94813 0.64591 0.0
C472 C 0.23431 0.92923 0.66498 0.0
C473 C 0.19739 0.91856 0.67984 0.0
C474 C 0.17585 0.97287 0.62136 0.0
C475 C 0.2812 0.92291 0.67015 0.0
C476 C 0.31296 0.94261 0.60412 0.0
C477 C 0.35677 -0.00476 0.60598 0.0
C478 C 0.26968 0.92725 0.61633 0.0
C479 C 0.27062 0.96506 0.63108 0.0
C480 C 0.31405 0.01847 0.63274 0.0
C481 C 0.35627 0.033 0.62005 0.0
C482 C 0.22372 0.87013 0.61389 0.0
C483 C 0.31677 0.05992 0.64841 0.0
H484 H 0.11551 0.95039 0.65413 0.0
H485 H 0.2032 0.90575 0.69466 0.0
H486 H 0.20723 0.01531 0.62033 0.0
H487 H 0.17909 0.94925 0.60819 0.0
H488 H 0.13658 0.96961 0.6196 0.0
H489 H 0.27865 0.90536 0.68524 0.0
H490 H 0.28412 0.897 0.65786 0.0
H491 H 0.3184 0.96257 0.67084 0.0
H492 H 0.31302 0.91282 0.59354 0.0
H493 H 0.38921 0.07402 0.6213 0.0
H494 H 0.18556 0.86915 0.61226 0.0
H495 H 0.22305 0.84954 0.62796 0.0
H496 H 0.22624 0.84732 0.60022 0.0
H497 H 0.28092 0.06303 0.64621 0.0
H498 H 0.35243 0.10012 0.64727 0.0
H499 H 0.3176 0.04755 0.66431 0.0
C500 C 0.24249 0.20569 0.02583 0.0
C501 C 0.22161 0.15358 0.01684 0.0
C502 C 0.2734 0.25024 0.01455 0.0
C503 C 0.28164 0.24215 0.99361 0.0
C504 C 0.26139 0.1896 0.98462 0.0
C505 C 0.23246 0.14604 0.99647 0.0
C506 C 0.29626 0.30582 0.02488 0.0
C507 C 0.26807 0.17917 0.96218 0.0
C508 C 0.30849 0.34854 0.9563 0.0
C509 C 0.36227 0.36898 0.95308 0.0
C510 C 0.28189 0.30777 0.96969 0.0
C511 C 0.31013 0.28824 0.98073 0.0
C512 C 0.36472 0.30995 0.97822 0.0
C513 C 0.38974 0.34899 0.9641 0.0
C514 C 0.22317 0.28447 0.97155 0.0
C515 C 0.39653 0.2911 0.9901 0.0
H516 H 0.23409 0.21156 0.04158 0.0
H517 H 0.21571 0.10579 0.98933 0.0
H518 H 0.33933 0.33038 0.02267 0.0
H519 H 0.27697 0.32583 0.01761 0.0
H520 H 0.2906 0.30529 0.04176 0.0
H521 H 0.24966 0.13581 0.95756 0.0
H522 H 0.24969 0.19578 0.95201 0.0
H523 H 0.31077 0.1996 0.9593 0.0
H524 H 0.28689 0.36413 0.9483 0.0
H525 H 0.4308 0.36298 0.96148 0.0
H526 H 0.21523 0.28832 0.98795 0.0
H527 H 0.20131 0.24112 0.96653 0.0
H528 H 0.20706 0.30433 0.96201 0.0
H529 H 0.38952 0.29085 0.00683 0.0
H530 H 0.4398 0.31673 0.9884 0.0
H531 H 0.38368 0.24951 0.98444 0.0
C532 C 0.07566 0.22223 0.34199 0.0
C533 C 0.10133 0.19831 0.33262 0.0
C534 C 0.0591 0.25141 0.33053 0.0
C535 C 0.0674 0.25568 0.30913 0.0
C536 C 0.09357 0.23188 0.29962 0.0
C537 C 0.11075 0.20398 0.31154 0.0
C538 C 0.03242 0.27736 0.34128 0.0
C539 C 0.10228 0.23478 0.27675 0.0
C540 C 0.97932 0.28689 0.27561 0.0
C541 C 0.0135 0.34146 0.27306 0.0
C542 C -0.00349 0.25828 0.28713 0.0
C543 C 0.04877 0.28512 0.29664 0.0
C544 C 0.08345 0.34007 0.29414 0.0
C545 C 0.06566 0.36734 0.28217 0.0
C546 C 0.95873 0.19938 0.28917 0.0
C547 C 0.13931 0.37018 0.30422 0.0
H548 H 0.0684 0.21803 0.35828 0.0
H549 H 0.13004 0.18504 0.30416 0.0
H550 H 0.05404 0.32087 0.33911 0.0
H551 H 0.99138 0.26012 0.33429 0.0
H552 H 0.03068 0.2719 0.35817 0.0
H553 H 0.12316 0.21395 0.27173 0.0
H554 H 0.06354 0.21641 0.26758 0.0
H555 H 0.12592 0.27714 0.273 0.0
H556 H 0.93882 0.26661 0.26888 0.0
H557 H 0.0929 0.40911 0.27989 0.0
H558 H 0.95133 0.19204 0.30571 0.0
H559 H 0.97665 0.17605 0.28364 0.0
H560 H 0.92005 0.18405 0.28022 0.0
H561 H 0.13838 0.36677 0.32123 0.0
H562 H 0.16073 0.41329 0.30128 0.0
H563 H 0.16216 0.35238 0.29831 0.0
loop_
_geom_bond_atom_site_label_1
_geom_bond_atom_site_label_2
_geom_bond_distance
_geom_bond_site_symmetry_2
_ccdc_geom_bond_type
Zn0 O3 2.031 1_545 S
Zn0 O5 2.049 . S
Zn0 O10 2.067 1_545 S
Zn1 O2 1.962 . S
Zn1 O4 1.986 . S
Zn1 O6 1.996 . S
Zn1 O9 1.943 . S
O2 Zn1 1.962 . S
O2 C7 1.254 1_545 S
O3 Zn0 2.031 1_565 S
O3 C7 1.269 . S
O4 Zn1 1.986 . S
O4 C11 1.262 . S
O5 Zn0 2.049 . S
O5 C13 1.260 . S
O6 Zn1 1.996 . S
O6 C13 1.257 . S
C7 O2 1.254 1_565 S
C7 O3 1.269 . S
C8 O9 1.249 1_565 S
C8 O10 1.270 . S
O9 Zn1 1.943 . S
O9 C8 1.249 1_545 S
O10 Zn0 2.067 1_565 S
O10 C8 1.270 . S
C11 O4 1.262 . S
C11 O12 1.232 . S
O12 C11 1.232 . S
C13 O5 1.260 . S
C13 O6 1.257 . S
Zn14 O17 2.031 . S
Zn14 O19 2.049 . S
Zn14 O24 2.067 . S
Zn15 O16 1.962 . S
Zn15 O18 1.986 1_455 S
Zn15 O20 1.996 . S
Zn15 O23 1.943 1_455 S
O16 Zn15 1.962 . S
O16 C21 1.254 . S
O17 Zn14 2.031 . S
O17 C21 1.269 . S
O18 Zn15 1.986 1_655 S
O18 C25 1.262 . S
O19 Zn14 2.049 . S
O19 C27 1.260 . S
O20 Zn15 1.996 . S
O20 C27 1.257 . S
C21 O16 1.254 . S
C21 O17 1.269 . S
C22 O23 1.249 1_465 S
C22 O24 1.270 1_565 S
O23 Zn15 1.943 1_655 S
O23 C22 1.249 1_645 S
O24 Zn14 2.067 . S
O24 C22 1.270 1_545 S
C25 O18 1.262 . S
C25 O26 1.232 . S
O26 C25 1.232 . S
C27 O19 1.260 . S
C27 O20 1.257 . S
Zn28 O31 2.031 1_565 S
Zn28 O33 2.049 . S
Zn28 O38 2.067 1_565 S
Zn29 O30 1.962 1_545 S
Zn29 O32 1.986 1_445 S
Zn29 O34 1.996 1_445 S
Zn29 O37 1.943 . S
O30 Zn29 1.962 1_565 S
O30 C35 1.254 . S
O31 Zn28 2.031 1_545 S
O31 C35 1.269 1_545 S
O32 Zn29 1.986 1_665 S
O32 C39 1.262 1_565 S
O33 Zn28 2.049 . S
O33 C41 1.260 1_455 S
O34 Zn29 1.996 1_665 S
O34 C41 1.257 . S
C35 O30 1.254 . S
C35 O31 1.269 1_565 S
C36 O37 1.249 . S
C36 O38 1.270 . S
O37 Zn29 1.943 . S
O37 C36 1.249 . S
O38 Zn28 2.067 1_545 S
O38 C36 1.270 . S
C39 O32 1.262 1_545 S
C39 O40 1.232 1_655 S
O40 C39 1.232 1_455 S
C41 O33 1.260 1_655 S
C41 O34 1.257 . S
C42 C43 1.384 . S
C42 C44 1.384 . S
C42 H70 0.931 1_455 S
C43 C42 1.384 . S
C43 C46 1.382 . S
C44 C42 1.384 . S
C44 C45 1.381 . S
C44 H71 0.930 1_455 S
C45 C44 1.381 . S
C45 C47 1.381 . S
C45 C48 1.487 . S
C46 C43 1.382 . S
C46 C47 1.387 . S
C46 H72 0.930 . S
C47 C45 1.381 . S
C47 C46 1.387 . S
C47 H73 0.931 . S
C48 C45 1.487 . S
C48 C55 1.399 . S
C48 N86 1.343 . S
C49 C50 1.384 . S
C49 C51 1.384 . S
C49 H74 0.931 . S
C50 C49 1.384 . S
C50 C53 1.382 . S
C51 C49 1.384 . S
C51 C52 1.381 . S
C51 H75 0.930 . S
C52 C51 1.381 . S
C52 C54 1.381 . S
C52 C55 1.487 . S
C53 C50 1.382 . S
C53 C54 1.387 . S
C53 H76 0.930 1_455 S
C54 C52 1.381 . S
C54 C53 1.387 . S
C54 H77 0.931 1_455 S
C55 C48 1.399 . S
C55 C52 1.487 . S
C55 N87 1.343 . S
C56 C57 1.384 . S
C56 C58 1.384 . S
C56 H78 0.931 . S
C57 C56 1.384 . S
C57 C60 1.382 . S
C58 C56 1.384 . S
C58 C59 1.381 . S
C58 H79 0.930 . S
C59 C58 1.381 . S
C59 C61 1.381 . S
C59 C62 1.487 . S
C60 C57 1.382 . S
C60 C61 1.387 . S
C60 H80 0.930 1_455 S
C61 C59 1.381 . S
C61 C60 1.387 . S
C61 H81 0.931 1_455 S
C62 C59 1.487 . S
C62 C69 1.399 . S
C62 N87 1.343 . S
C63 C64 1.384 . S
C63 C65 1.384 . S
C63 H82 0.931 1_455 S
C64 C63 1.384 . S
C64 C67 1.382 . S
C65 C63 1.384 . S
C65 C66 1.381 . S
C65 H83 0.930 1_455 S
C66 C65 1.381 . S
C66 C68 1.381 . S
C66 C69 1.487 . S
C67 C64 1.382 . S
C67 C68 1.387 . S
C67 H84 0.930 . S
C68 C66 1.381 . S
C68 C67 1.387 . S
C68 H85 0.931 . S
C69 C62 1.399 . S
C69 C66 1.487 . S
C69 N86 1.343 . S
H70 C42 0.931 1_655 S
H71 C44 0.930 1_655 S
H72 C46 0.930 . S
H73 C47 0.931 . S
H74 C49 0.931 . S
H75 C51 0.930 . S
H76 C53 0.930 1_655 S
H77 C54 0.931 1_655 S
H78 C56 0.931 . S
H79 C58 0.930 . S
H80 C60 0.930 1_655 S
H81 C61 0.931 1_655 S
H82 C63 0.931 1_655 S
H83 C65 0.930 1_655 S
H84 C67 0.930 . S
H85 C68 0.931 . S
N86 C48 1.343 . S
N86 C69 1.343 . S
N87 C55 1.343 . S
N87 C62 1.343 . S
C88 C89 1.384 . S
C88 C90 1.384 . S
C88 H116 0.931 . S
C89 C88 1.384 . S
C89 C92 1.382 . S
C90 C88 1.384 . S
C90 C91 1.381 . S
C90 H117 0.930 . S
C91 C90 1.381 . S
C91 C93 1.381 . S
C91 C94 1.487 . S
C92 C89 1.382 . S
C92 C93 1.387 . S
C92 H118 0.930 1_545 S
C93 C91 1.381 . S
C93 C92 1.387 . S
C93 H119 0.931 1_545 S
C94 C91 1.487 . S
C94 C101 1.399 . S
C94 N132 1.343 . S
C95 C96 1.384 1_565 S
C95 C97 1.377 1_565 S
C95 H120 0.931 . S
C96 C95 1.384 1_545 S
C96 C99 1.382 . S
C97 C95 1.377 1_545 S
C97 C98 1.395 . S
C97 H121 0.923 1_545 S
C98 C97 1.395 . S
C98 C100 1.381 . S
C98 C101 1.487 . S
C99 C96 1.382 . S
C99 C100 1.387 . S
C99 H122 0.930 . S
C100 C98 1.381 . S
C100 C99 1.387 . S
C100 H123 0.931 . S
C101 C94 1.399 . S
C101 C98 1.487 . S
C101 N133 1.343 . S
C102 C103 1.384 1_565 S
C102 C104 1.389 1_565 S
C102 H124 0.931 . S
C103 C102 1.384 1_545 S
C103 C106 1.382 . S
C104 C102 1.389 1_545 S
C104 C105 1.384 . S
C104 H125 0.923 1_545 S
C105 C104 1.384 . S
C105 C107 1.381 . S
C105 C108 1.487 . S
C106 C103 1.382 . S
C106 C107 1.387 . S
C106 H126 0.930 . S
C107 C105 1.381 . S
C107 C106 1.387 . S
C107 H127 0.931 . S
C108 C105 1.487 . S
C108 C115 1.399 . S
C108 N133 1.343 . S
C109 C110 1.384 . S
C109 C111 1.384 . S
C109 H128 0.931 . S
C110 C109 1.384 . S
C110 C113 1.382 . S
C111 C109 1.384 . S
C111 C112 1.381 . S
C111 H129 0.930 . S
C112 C111 1.381 . S
C112 C114 1.381 . S
C112 C115 1.487 . S
C113 C110 1.382 . S
C113 C114 1.387 . S
C113 H130 0.930 1_545 S
C114 C112 1.381 . S
C114 C113 1.387 . S
C114 H131 0.931 1_545 S
C115 C108 1.399 . S
C115 C112 1.487 . S
C115 N132 1.343 . S
H116 C88 0.931 . S
H117 C90 0.930 . S
H118 C92 0.930 1_565 S
H119 C93 0.931 1_565 S
H120 C95 0.931 . S
H121 C97 0.923 1_565 S
H122 C99 0.930 . S
H123 C100 0.931 . S
H124 C102 0.931 . S
H125 C104 0.923 1_565 S
H126 C106 0.930 . S
H127 C107 0.931 . S
H128 C109 0.931 . S
H129 C111 0.930 . S
H130 C113 0.930 1_565 S
H131 C114 0.931 1_565 S
N132 C94 1.343 . S
N132 C115 1.343 . S
N133 C101 1.343 . S
N133 C108 1.343 . S
C134 C135 1.384 . S
C134 C136 1.384 . S
C134 H162 0.931 . S
C135 C134 1.384 . S
C135 C138 1.382 . S
C136 C134 1.384 . S
C136 C137 1.381 . S
C136 H163 0.930 . S
C137 C136 1.381 . S
C137 C139 1.381 . S
C137 C140 1.487 . S
C138 C135 1.382 . S
C138 C139 1.387 . S
C138 H164 0.930 . S
C139 C137 1.381 . S
C139 C138 1.387 . S
C139 H165 0.931 . S
C140 C137 1.487 . S
C140 C147 1.399 . S
C140 N178 1.343 . S
C141 C142 1.384 . S
C141 C143 1.384 . S
C141 H166 0.931 . S
C142 C141 1.384 . S
C142 C145 1.382 . S
C143 C141 1.384 . S
C143 C144 1.381 . S
C143 H167 0.930 . S
C144 C143 1.381 . S
C144 C146 1.381 . S
C144 C147 1.487 . S
C145 C142 1.382 . S
C145 C146 1.387 . S
C145 H168 0.930 . S
C146 C144 1.381 . S
C146 C145 1.387 . S
C146 H169 0.931 . S
C147 C140 1.399 . S
C147 C144 1.487 . S
C147 N179 1.343 . S
C148 C149 1.384 . S
C148 C150 1.384 . S
C148 H170 0.931 . S
C149 C148 1.384 . S
C149 C152 1.382 . S
C150 C148 1.384 . S
C150 C151 1.381 . S
C150 H171 0.930 . S
C151 C150 1.381 . S
C151 C153 1.381 . S
C151 C154 1.487 . S
C152 C149 1.382 . S
C152 C153 1.387 . S
C152 H172 0.930 . S
C153 C151 1.381 . S
C153 C152 1.387 . S
C153 H173 0.931 . S
C154 C151 1.487 . S
C154 C161 1.399 . S
C154 N179 1.343 . S
C155 C156 1.384 . S
C155 C157 1.384 . S
C155 H174 0.931 . S
C156 C155 1.384 . S
C156 C159 1.382 . S
C157 C155 1.384 . S
C157 C158 1.381 . S
C157 H175 0.930 . S
C158 C157 1.381 . S
C158 C160 1.381 . S
C158 C161 1.487 . S
C159 C156 1.382 . S
C159 C160 1.387 . S
C159 H176 0.930 . S
C160 C158 1.381 . S
C160 C159 1.387 . S
C160 H177 0.931 . S
C161 C154 1.399 . S
C161 C158 1.487 . S
C161 N178 1.343 . S
H162 C134 0.931 . S
H163 C136 0.930 . S
H164 C138 0.930 . S
H165 C139 0.931 . S
H166 C141 0.931 . S
H167 C143 0.930 . S
H168 C145 0.930 . S
H169 C146 0.931 . S
H170 C148 0.931 . S
H171 C150 0.930 . S
H172 C152 0.930 . S
H173 C153 0.931 . S
H174 C155 0.931 . S
H175 C157 0.930 . S
H176 C159 0.930 . S
H177 C160 0.931 . S
N178 C140 1.343 . S
N178 C161 1.343 . S
N179 C147 1.343 . S
N179 C154 1.343 . S
C180 C181 1.391 . S
C180 C182 1.394 . S
C180 H196 0.931 . S
C181 C180 1.391 . S
C181 C185 1.376 . S
C182 C180 1.394 . S
C182 C183 1.369 . S
C182 C186 1.531 . S
C183 C182 1.369 . S
C183 C184 1.410 . S
C183 C191 1.503 . S
C184 C183 1.410 . S
C184 C185 1.392 . S
C184 C187 1.511 1_455 S
C185 C181 1.376 . S
C185 C184 1.392 . S
C185 H197 0.929 1_455 S
C186 C182 1.531 . S
C186 H198 0.960 . S
C186 H199 0.962 . S
C186 H200 0.960 . S
C187 C184 1.511 1_655 S
C187 H201 0.961 . S
C187 H202 0.961 . S
C187 H203 0.961 . S
C188 C189 1.370 . S
C188 C190 1.363 . S
C188 H204 0.931 . S
C189 C188 1.370 . S
C189 C193 1.408 . S
C190 C188 1.363 . S
C190 C191 1.370 . S
C190 C194 1.524 . S
C191 C183 1.503 . S
C191 C190 1.370 . S
C191 C192 1.403 . S
C192 C191 1.403 . S
C192 C193 1.404 . S
C192 C195 1.539 . S
C193 C189 1.408 . S
C193 C192 1.404 . S
C193 H205 0.930 . S
C194 C190 1.524 . S
C194 H206 0.956 . S
C194 H207 0.961 . S
C194 H208 0.961 . S
C195 C192 1.539 . S
C195 H209 0.958 . S
C195 H210 0.961 1_455 S
C195 H211 0.960 . S
H196 C180 0.931 . S
H197 C185 0.929 1_655 S
H198 C186 0.960 . S
H199 C186 0.962 . S
H200 C186 0.960 . S
H201 C187 0.961 . S
H202 C187 0.961 . S
H203 C187 0.961 . S
H204 C188 0.931 . S
H205 C193 0.930 . S
H206 C194 0.956 . S
H207 C194 0.961 . S
H208 C194 0.961 . S
H209 C195 0.958 . S
H210 C195 0.961 1_655 S
H211 C195 0.960 . S
C212 C213 1.391 . S
C212 C214 1.394 . S
C212 H228 0.931 . S
C213 C212 1.391 . S
C213 C217 1.376 1_545 S
C214 C212 1.394 . S
C214 C215 1.369 . S
C214 C218 1.531 . S
C215 C214 1.369 . S
C215 C216 1.410 1_545 S
C215 C223 1.503 . S
C216 C215 1.410 1_565 S
C216 C217 1.392 . S
C216 C219 1.511 . S
C217 C213 1.376 1_565 S
C217 C216 1.392 . S
C217 H229 0.929 . S
C218 C214 1.531 . S
C218 H230 0.960 . S
C218 H231 0.962 . S
C218 H232 0.960 . S
C219 C216 1.511 . S
C219 H233 0.961 . S
C219 H234 0.961 . S
C219 H235 0.961 . S
C220 C221 1.370 . S
C220 C222 1.363 . S
C220 H236 0.931 . S
C221 C220 1.370 . S
C221 C225 1.408 . S
C222 C220 1.363 . S
C222 C223 1.370 . S
C222 C226 1.524 . S
C223 C215 1.503 . S
C223 C222 1.370 . S
C223 C224 1.403 . S
C224 C223 1.403 . S
C224 C225 1.404 . S
C224 C227 1.539 . S
C225 C221 1.408 . S
C225 C224 1.404 . S
C225 H237 0.930 . S
C226 C222 1.524 . S
C226 H238 0.956 . S
C226 H239 0.961 1_545 S
C226 H240 0.961 1_545 S
C227 C224 1.539 . S
C227 H241 0.958 . S
C227 H242 0.961 . S
C227 H243 0.960 . S
H228 C212 0.931 . S
H229 C217 0.929 . S
H230 C218 0.960 . S
H231 C218 0.962 . S
H232 C218 0.960 . S
H233 C219 0.961 . S
H234 C219 0.961 . S
H235 C219 0.961 . S
H236 C220 0.931 . S
H237 C225 0.930 . S
H238 C226 0.956 . S
H239 C226 0.961 1_565 S
H240 C226 0.961 1_565 S
H241 C227 0.958 . S
H242 C227 0.961 . S
H243 C227 0.960 . S
C244 C245 1.391 . S
C244 C246 1.394 . S
C244 H260 0.931 . S
C245 C244 1.391 . S
C245 C249 1.376 . S
C246 C244 1.394 . S
C246 C247 1.369 . S
C246 C250 1.531 . S
C247 C246 1.369 . S
C247 C248 1.410 . S
C247 C255 1.503 . S
C248 C247 1.410 . S
C248 C249 1.392 . S
C248 C251 1.511 . S
C249 C245 1.376 . S
C249 C248 1.392 . S
C249 H261 0.929 . S
C250 C246 1.531 . S
C250 H262 0.960 . S
C250 H263 0.962 . S
C250 H264 0.960 . S
C251 C248 1.511 . S
C251 H265 0.961 . S
C251 H266 0.961 . S
C251 H267 0.961 . S
C252 C253 1.370 . S
C252 C254 1.363 . S
C252 H268 0.931 . S
C253 C252 1.370 . S
C253 C257 1.408 . S
C254 C252 1.363 . S
C254 C255 1.370 . S
C254 C258 1.524 . S
C255 C247 1.503 . S
C255 C254 1.370 . S
C255 C256 1.403 . S
C256 C255 1.403 . S
C256 C257 1.404 . S
C256 C259 1.539 . S
C257 C253 1.408 . S
C257 C256 1.404 . S
C257 H269 0.930 . S
C258 C254 1.524 . S
C258 H270 0.956 . S
C258 H271 0.961 . S
C258 H272 0.961 . S
C259 C256 1.539 . S
C259 H273 0.958 . S
C259 H274 0.961 . S
C259 H275 0.960 . S
H260 C244 0.931 . S
H261 C249 0.929 . S
H262 C250 0.960 . S
H263 C250 0.962 . S
H264 C250 0.960 . S
H265 C251 0.961 . S
H266 C251 0.961 . S
H267 C251 0.961 . S
H268 C252 0.931 . S
H269 C257 0.930 . S
H270 C258 0.956 . S
H271 C258 0.961 . S
H272 C258 0.961 . S
H273 C259 0.958 . S
H274 C259 0.961 . S
H275 C259 0.960 . S
C276 C277 1.391 . S
C276 C278 1.394 . S
C276 H292 0.931 . S
C277 C276 1.391 . S
C277 C281 1.376 . S
C278 C276 1.394 . S
C278 C279 1.369 . S
C278 C282 1.531 . S
C279 C278 1.369 . S
C279 C280 1.410 . S
C279 C287 1.503 . S
C280 C279 1.410 . S
C280 C281 1.392 . S
C280 C283 1.511 . S
C281 C277 1.376 . S
C281 C280 1.392 . S
C281 H293 0.929 . S
C282 C278 1.531 . S
C282 H294 0.960 . S
C282 H295 0.962 . S
C282 H296 0.960 . S
C283 C280 1.511 . S
C283 H297 0.961 . S
C283 H298 0.961 . S
C283 H299 0.961 . S
C284 C285 1.370 . S
C284 C286 1.363 . S
C284 H300 0.931 1_455 S
C285 C284 1.370 . S
C285 C289 1.408 . S
C286 C284 1.363 . S
C286 C287 1.370 . S
C286 C290 1.524 1_455 S
C287 C279 1.503 . S
C287 C286 1.370 . S
C287 C288 1.403 . S
C288 C287 1.403 . S
C288 C289 1.404 . S
C288 C291 1.539 . S
C289 C285 1.408 . S
C289 C288 1.404 . S
C289 H301 0.930 . S
C290 C286 1.524 1_655 S
C290 H302 0.956 . S
C290 H303 0.961 . S
C290 H304 0.961 . S
C291 C288 1.539 . S
C291 H305 0.958 . S
C291 H306 0.961 . S
C291 H307 0.960 . S
H292 C276 0.931 . S
H293 C281 0.929 . S
H294 C282 0.960 . S
H295 C282 0.962 . S
H296 C282 0.960 . S
H297 C283 0.961 . S
H298 C283 0.961 . S
H299 C283 0.961 . S
H300 C284 0.931 1_655 S
H301 C289 0.930 . S
H302 C290 0.956 . S
H303 C290 0.961 . S
H304 C290 0.961 . S
H305 C291 0.958 . S
H306 C291 0.961 . S
H307 C291 0.960 . S
C308 C309 1.391 . S
C308 C310 1.394 . S
C308 H324 0.931 . S
C309 C308 1.391 . S
C309 C313 1.376 . S
C310 C308 1.394 . S
C310 C311 1.369 . S
C310 C314 1.531 . S
C311 C310 1.369 . S
C311 C312 1.410 . S
C311 C319 1.503 . S
C312 C311 1.410 . S
C312 C313 1.392 . S
C312 C315 1.511 . S
C313 C309 1.376 . S
C313 C312 1.392 . S
C313 H325 0.929 . S
C314 C310 1.531 . S
C314 H326 0.960 . S
C314 H327 0.962 . S
C314 H328 0.960 . S
C315 C312 1.511 . S
C315 H329 0.961 . S
C315 H330 0.961 . S
C315 H331 0.961 . S
C316 C317 1.370 . S
C316 C318 1.363 . S
C316 H332 0.931 1_545 S
C317 C316 1.370 . S
C317 C321 1.408 . S
C318 C316 1.363 . S
C318 C319 1.370 . S
C318 C322 1.524 1_545 S
C319 C311 1.503 . S
C319 C318 1.370 . S
C319 C320 1.403 . S
C320 C319 1.403 . S
C320 C321 1.404 . S
C320 C323 1.539 . S
C321 C317 1.408 . S
C321 C320 1.404 . S
C321 H333 0.930 . S
C322 C318 1.524 1_565 S
C322 H334 0.956 . S
C322 H335 0.961 . S
C322 H336 0.961 . S
C323 C320 1.539 . S
C323 H337 0.958 . S
C323 H338 0.961 . S
C323 H339 0.960 . S
H324 C308 0.931 . S
H325 C313 0.929 . S
H326 C314 0.960 . S
H327 C314 0.962 . S
H328 C314 0.960 . S
H329 C315 0.961 . S
H330 C315 0.961 . S
H331 C315 0.961 . S
H332 C316 0.931 1_565 S
H333 C321 0.930 . S
H334 C322 0.956 . S
H335 C322 0.961 . S
H336 C322 0.961 . S
H337 C323 0.958 . S
H338 C323 0.961 . S
H339 C323 0.960 . S
C340 C341 1.391 . S
C340 C342 1.394 . S
C340 H356 0.931 . S
C341 C340 1.391 . S
C341 C345 1.376 . S
C342 C340 1.394 . S
C342 C343 1.369 . S
C342 C346 1.531 . S
C343 C342 1.369 . S
C343 C344 1.410 . S
C343 C351 1.503 . S
C344 C343 1.410 . S
C344 C345 1.392 . S
C344 C347 1.511 . S
C345 C341 1.376 . S
C345 C344 1.392 . S
C345 H357 0.929 . S
C346 C342 1.531 . S
C346 H358 0.960 . S
C346 H359 0.962 . S
C346 H360 0.960 . S
C347 C344 1.511 . S
C347 H361 0.961 . S
C347 H362 0.961 . S
C347 H363 0.961 . S
C348 C349 1.370 . S
C348 C350 1.363 . S
C348 H364 0.931 . S
C349 C348 1.370 . S
C349 C353 1.408 . S
C350 C348 1.363 . S
C350 C351 1.370 . S
C350 C354 1.524 . S
C351 C343 1.503 . S
C351 C350 1.370 . S
C351 C352 1.403 . S
C352 C351 1.403 . S
C352 C353 1.404 . S
C352 C355 1.539 . S
C353 C349 1.408 . S
C353 C352 1.404 . S
C353 H365 0.930 . S
C354 C350 1.524 . S
C354 H366 0.956 . S
C354 H367 0.961 . S
C354 H368 0.961 . S
C355 C352 1.539 . S
C355 H369 0.958 . S
C355 H370 0.961 . S
C355 H371 0.960 . S
H356 C340 0.931 . S
H357 C345 0.929 . S
H358 C346 0.960 . S
H359 C346 0.962 . S
H360 C346 0.960 . S
H361 C347 0.961 . S
H362 C347 0.961 . S
H363 C347 0.961 . S
H364 C348 0.931 . S
H365 C353 0.930 . S
H366 C354 0.956 . S
H367 C354 0.961 . S
H368 C354 0.961 . S
H369 C355 0.958 . S
H370 C355 0.961 . S
H371 C355 0.960 . S
C372 C373 1.391 1_565 S
C372 C374 1.394 . S
C372 H388 0.931 . S
C373 C372 1.391 1_545 S
C373 C377 1.376 . S
C374 C372 1.394 . S
C374 C375 1.369 1_565 S
C374 C378 1.531 . S
C375 C374 1.369 1_545 S
C375 C376 1.410 . S
C375 C383 1.503 . S
C376 C375 1.410 . S
C376 C377 1.392 . S
C376 C379 1.511 . S
C377 C373 1.376 . S
C377 C376 1.392 . S
C377 H389 0.929 . S
C378 C374 1.531 . S
C378 H390 0.960 . S
C378 H391 0.962 . S
C378 H392 0.960 . S
C379 C376 1.511 . S
C379 H393 0.961 . S
C379 H394 0.961 . S
C379 H395 0.961 . S
C380 C381 1.370 . S
C380 C382 1.363 . S
C380 H396 0.931 1_545 S
C381 C380 1.370 . S
C381 C385 1.408 . S
C382 C380 1.363 . S
C382 C383 1.370 . S
C382 C386 1.524 1_545 S
C383 C375 1.503 . S
C383 C382 1.370 . S
C383 C384 1.403 . S
C384 C383 1.403 . S
C384 C385 1.404 . S
C384 C387 1.539 . S
C385 C381 1.408 . S
C385 C384 1.404 . S
C385 H397 0.930 . S
C386 C382 1.524 1_565 S
C386 H398 0.956 . S
C386 H399 0.961 1_565 S
C386 H400 0.961 . S
C387 C384 1.539 . S
C387 H401 0.958 . S
C387 H402 0.961 . S
C387 H403 0.960 . S
H388 C372 0.931 . S
H389 C377 0.929 . S
H390 C378 0.960 . S
H391 C378 0.962 . S
H392 C378 0.960 . S
H393 C379 0.961 . S
H394 C379 0.961 . S
H395 C379 0.961 . S
H396 C380 0.931 1_565 S
H397 C385 0.930 . S
H398 C386 0.956 . S
H399 C386 0.961 1_545 S
H400 C386 0.961 . S
H401 C387 0.958 . S
H402 C387 0.961 . S
H403 C387 0.960 . S
C404 C405 1.391 1_556 S
C404 C406 1.394 . S
C404 H420 0.931 1_655 S
C405 C404 1.391 1_554 S
C405 C409 1.376 . S
C406 C404 1.394 . S
C406 C407 1.369 . S
C406 C410 1.531 . S
C407 C406 1.369 . S
C407 C408 1.410 1_556 S
C407 C415 1.503 . S
C408 C407 1.410 1_554 S
C408 C409 1.392 . S
C408 C411 1.511 . S
C409 C405 1.376 . S
C409 C408 1.392 . S
C409 H421 0.929 . S
C410 C406 1.531 . S
C410 H422 0.960 . S
C410 H423 0.962 . S
C410 H424 0.960 . S
C411 C408 1.511 . S
C411 H425 0.961 . S
C411 H426 0.961 . S
C411 H427 0.961 . S
C412 C413 1.370 . S
C412 C414 1.363 . S
C412 H428 0.931 . S
C413 C412 1.370 . S
C413 C417 1.408 . S
C414 C412 1.363 . S
C414 C415 1.370 . S
C414 C418 1.524 . S
C415 C407 1.503 . S
C415 C414 1.370 . S
C415 C416 1.403 . S
C416 C415 1.403 . S
C416 C417 1.404 . S
C416 C419 1.539 . S
C417 C413 1.408 . S
C417 C416 1.404 . S
C417 H429 0.930 . S
C418 C414 1.524 . S
C418 H430 0.956 . S
C418 H431 0.961 . S
C418 H432 0.961 . S
C419 C416 1.539 . S
C419 H433 0.958 . S
C419 H434 0.961 . S
C419 H435 0.960 . S
H420 C404 0.931 1_455 S
H421 C409 0.929 . S
H422 C410 0.960 . S
H423 C410 0.962 . S
H424 C410 0.960 . S
H425 C411 0.961 . S
H426 C411 0.961 . S
H427 C411 0.961 . S
H428 C412 0.931 . S
H429 C417 0.930 . S
H430 C418 0.956 . S
H431 C418 0.961 . S
H432 C418 0.961 . S
H433 C419 0.958 . S
H434 C419 0.961 . S
H435 C419 0.960 . S
C436 C437 1.391 . S
C436 C438 1.394 . S
C436 H452 0.931 . S
C437 C436 1.391 . S
C437 C441 1.376 1_455 S
C438 C436 1.394 . S
C438 C439 1.369 . S
C438 C442 1.531 . S
C439 C438 1.369 . S
C439 C440 1.410 1_455 S
C439 C447 1.503 . S
C440 C439 1.410 1_655 S
C440 C441 1.392 . S
C440 C443 1.511 . S
C441 C437 1.376 1_655 S
C441 C440 1.392 . S
C441 H453 0.929 . S
C442 C438 1.531 . S
C442 H454 0.960 . S
C442 H455 0.962 . S
C442 H456 0.960 . S
C443 C440 1.511 . S
C443 H457 0.961 . S
C443 H458 0.961 . S
C443 H459 0.961 . S
C444 C445 1.370 . S
C444 C446 1.363 . S
C444 H460 0.931 . S
C445 C444 1.370 . S
C445 C449 1.408 . S
C446 C444 1.363 . S
C446 C447 1.370 . S
C446 C450 1.524 . S
C447 C439 1.503 . S
C447 C446 1.370 . S
C447 C448 1.403 . S
C448 C447 1.403 . S
C448 C449 1.404 . S
C448 C451 1.539 1_455 S
C449 C445 1.408 . S
C449 C448 1.404 . S
C449 H461 0.927 . S
C450 C446 1.524 . S
C450 H462 0.956 . S
C450 H463 0.961 . S
C450 H464 0.961 . S
C451 C448 1.539 1_655 S
C451 H465 0.958 1_655 S
C451 H466 0.961 . S
C451 H467 0.960 . S
H452 C436 0.931 . S
H453 C441 0.929 . S
H454 C442 0.960 . S
H455 C442 0.962 . S
H456 C442 0.960 . S
H457 C443 0.961 . S
H458 C443 0.961 . S
H459 C443 0.961 . S
H460 C444 0.931 . S
H461 C449 0.927 . S
H462 C450 0.956 . S
H463 C450 0.961 . S
H464 C450 0.961 . S
H465 C451 0.958 1_455 S
H466 C451 0.961 . S
H467 C451 0.960 . S
C468 C469 1.391 . S
C468 C470 1.394 . S
C468 H484 0.931 . S
C469 C468 1.391 . S
C469 C473 1.376 1_545 S
C470 C468 1.394 . S
C470 C471 1.369 . S
C470 C474 1.531 . S
C471 C470 1.369 . S
C471 C472 1.417 . S
C471 C479 1.503 . S
C472 C471 1.417 . S
C472 C473 1.397 1_545 S
C472 C475 1.499 1_545 S
C473 C469 1.376 1_565 S
C473 C472 1.397 1_565 S
C473 H485 0.929 . S
C474 C470 1.531 . S
C474 H486 0.960 . S
C474 H487 0.962 . S
C474 H488 0.960 . S
C475 C472 1.499 1_565 S
C475 H489 0.961 . S
C475 H490 0.961 . S
C475 H491 0.961 1_565 S
C476 C477 1.370 1_565 S
C476 C478 1.363 . S
C476 H492 0.931 . S
C477 C476 1.370 1_545 S
C477 C481 1.408 . S
C478 C476 1.363 . S
C478 C479 1.370 1_565 S
C478 C482 1.524 . S
C479 C471 1.503 . S
C479 C478 1.370 1_545 S
C479 C480 1.403 . S
C480 C479 1.403 . S
C480 C481 1.404 . S
C480 C483 1.539 . S
C481 C477 1.408 . S
C481 C480 1.404 . S
C481 H493 0.930 . S
C482 C478 1.524 . S
C482 H494 0.956 . S
C482 H495 0.961 . S
C482 H496 0.961 . S
C483 C480 1.539 . S
C483 H497 0.958 . S
C483 H498 0.961 . S
C483 H499 0.960 . S
H484 C468 0.931 . S
H485 C473 0.929 . S
H486 C474 0.960 . S
H487 C474 0.962 . S
H488 C474 0.960 . S
H489 C475 0.961 . S
H490 C475 0.961 . S
H491 C475 0.961 1_545 S
H492 C476 0.931 . S
H493 C481 0.930 . S
H494 C482 0.956 . S
H495 C482 0.961 . S
H496 C482 0.961 . S
H497 C483 0.958 . S
H498 C483 0.961 . S
H499 C483 0.960 . S
C500 C501 1.391 . S
C500 C502 1.394 . S
C500 H516 0.931 . S
C501 C500 1.391 . S
C501 C505 1.376 1_554 S
C502 C500 1.394 . S
C502 C503 1.369 1_554 S
C502 C506 1.531 . S
C503 C502 1.369 1_556 S
C503 C504 1.410 . S
C503 C511 1.503 . S
C504 C503 1.410 . S
C504 C505 1.392 . S
C504 C507 1.511 . S
C505 C501 1.376 1_556 S
C505 C504 1.392 . S
C505 H517 0.929 . S
C506 C502 1.531 . S
C506 H518 0.960 . S
C506 H519 0.962 . S
C506 H520 0.960 . S
C507 C504 1.511 . S
C507 H521 0.961 . S
C507 H522 0.961 . S
C507 H523 0.961 . S
C508 C509 1.370 . S
C508 C510 1.363 . S
C508 H524 0.931 . S
C509 C508 1.370 . S
C509 C513 1.408 . S
C510 C508 1.363 . S
C510 C511 1.370 . S
C510 C514 1.524 . S
C511 C503 1.503 . S
C511 C510 1.370 . S
C511 C512 1.403 . S
C512 C511 1.403 . S
C512 C513 1.404 . S
C512 C515 1.539 . S
C513 C509 1.408 . S
C513 C512 1.404 . S
C513 H525 0.930 . S
C514 C510 1.524 . S
C514 H526 0.956 . S
C514 H527 0.961 . S
C514 H528 0.961 . S
C515 C512 1.539 . S
C515 H529 0.958 . S
C515 H530 0.961 . S
C515 H531 0.960 . S
H516 C500 0.931 . S
H517 C505 0.929 . S
H518 C506 0.960 . S
H519 C506 0.962 . S
H520 C506 0.960 . S
H521 C507 0.961 . S
H522 C507 0.961 . S
H523 C507 0.961 . S
H524 C508 0.931 . S
H525 C513 0.930 . S
H526 C514 0.956 . S
H527 C514 0.961 . S
H528 C514 0.961 . S
H529 C515 0.958 . S
H530 C515 0.961 . S
H531 C515 0.960 . S
C532 C533 1.391 . S
C532 C534 1.394 . S
C532 H548 0.931 . S
C533 C532 1.391 . S
C533 C537 1.376 . S
C534 C532 1.394 . S
C534 C535 1.369 . S
C534 C538 1.531 . S
C535 C534 1.369 . S
C535 C536 1.410 . S
C535 C543 1.503 . S
C536 C535 1.410 . S
C536 C537 1.392 . S
C536 C539 1.511 . S
C537 C533 1.376 . S
C537 C536 1.392 . S
C537 H549 0.929 . S
C538 C534 1.531 . S
C538 H550 0.960 . S
C538 H551 0.962 1_455 S
C538 H552 0.960 . S
C539 C536 1.511 . S
C539 H553 0.961 . S
C539 H554 0.961 . S
C539 H555 0.961 . S
C540 C541 1.370 . S
C540 C542 1.363 . S
C540 H556 0.931 1_455 S
C541 C540 1.370 . S
C541 C545 1.408 . S
C542 C540 1.363 . S
C542 C543 1.370 . S
C542 C546 1.524 1_455 S
C543 C535 1.503 . S
C543 C542 1.370 . S
C543 C544 1.403 . S
C544 C543 1.403 . S
C544 C545 1.404 . S
C544 C547 1.539 . S
C545 C541 1.408 . S
C545 C544 1.404 . S
C545 H557 0.930 . S
C546 C542 1.524 1_655 S
C546 H558 0.956 . S
C546 H559 0.961 . S
C546 H560 0.961 . S
C547 C544 1.539 . S
C547 H561 0.958 . S
C547 H562 0.961 . S
C547 H563 0.960 . S
H548 C532 0.931 . S
H549 C537 0.929 . S
H550 C538 0.960 . S
H551 C538 0.962 1_655 S
H552 C538 0.960 . S
H553 C539 0.961 . S
H554 C539 0.961 . S
H555 C539 0.961 . S
H556 C540 0.931 1_655 S
H557 C545 0.930 . S
H558 C546 0.956 . S
H559 C546 0.961 . S
H560 C546 0.961 . S
H561 C547 0.958 . S
H562 C547 0.961 . S
H563 C547 0.960 . S
C189 C50 1.330 . S
C181 C11 1.333 . S
C213 C25 1.388 . S
C221 C89 1.400 . S
C245 C41 1.378 . S
C253 C156 1.439 . S
C277 C7 1.358 . S
C285 C57 1.358 . S
C317 C110 1.421 . S
C309 C21 1.424 . S
C341 C36 1.359 . S
C349 C135 1.458 . S
C381 C96 1.391 . S
C373 C39 1.393 . S
C405 C8 1.367 1_655 S
C413 C149 1.461 . S
C445 C64 1.504 . S
C437 C22 1.470 . S
C477 C103 1.417 . S
C469 C35 1.399 1_545 S
C509 C142 1.435 . S
C501 C13 1.331 . S
C533 C27 1.404 . S
C541 C43 1.472 . S
