# Generated by pormake.
# Topology cml, (3,6)-cn, num edge types: 1
# Building blocks:
#     Node 0, Type 0, BuildingBlock: BELTOD_clean_linker_0, # of connection points: 3
#     Node 1, Type 0, BuildingBlock: BELTOD_clean_linker_0, # of connection points: 3
#     Node 2, Type 0, BuildingBlock: BELTOD_clean_linker_0, # of connection points: 3
#     Node 3, Type 0, BuildingBlock: BELTOD_clean_linker_0, # of connection points: 3
#     Node 4, Type 0, BuildingBlock: BELTOD_clean_linker_0, # of connection points: 3
#     Node 5, Type 0, BuildingBlock: BELTOD_clean_linker_0, # of connection points: 3
#     Node 6, Type 0, BuildingBlock: BELTOD_clean_linker_0, # of connection points: 3
#     Node 7, Type 0, BuildingBlock: BELTOD_clean_linker_0, # of connection points: 3
#     Node 8, Type 1, BuildingBlock: OJICUG_clean_sbu_0, # of connection points: 6
#     Node 9, Type 1, BuildingBlock: OJICUG_clean_sbu_0, # of connection points: 6
#     Node 10, Type 1, BuildingBlock: OJICUG_clean_sbu_0, # of connection points: 6
#     Node 11, Type 1, BuildingBlock: OJICUG_clean_sbu_0, # of connection points: 6
#     Edge 12, Type (0, 1), BuildingBlock: XUDNAN_clean_linker_2, # of connection points: 2
#     Edge 13, Type (0, 1), BuildingBlock: XUDNAN_clean_linker_2, # of connection points: 2
#     Edge 14, Type (0, 1), BuildingBlock: XUDNAN_clean_linker_2, # of connection points: 2
#     Edge 15, Type (0, 1), BuildingBlock: XUDNAN_clean_linker_2, # of connection points: 2
#     Edge 16, Type (0, 1), BuildingBlock: XUDNAN_clean_linker_2, # of connection points: 2
#     Edge 17, Type (0, 1), BuildingBlock: XUDNAN_clean_linker_2, # of connection points: 2
#     Edge 18, Type (0, 1), BuildingBlock: XUDNAN_clean_linker_2, # of connection points: 2
#     Edge 19, Type (0, 1), BuildingBlock: XUDNAN_clean_linker_2, # of connection points: 2
#     Edge 20, Type (0, 1), BuildingBlock: XUDNAN_clean_linker_2, # of connection points: 2
#     Edge 21, Type (0, 1), BuildingBlock: XUDNAN_clean_linker_2, # of connection points: 2
#     Edge 22, Type (0, 1), BuildingBlock: XUDNAN_clean_linker_2, # of connection points: 2
#     Edge 23, Type (0, 1), BuildingBlock: XUDNAN_clean_linker_2, # of connection points: 2
#     Edge 24, Type (0, 1), BuildingBlock: XUDNAN_clean_linker_2, # of connection points: 2
#     Edge 25, Type (0, 1), BuildingBlock: XUDNAN_clean_linker_2, # of connection points: 2
#     Edge 26, Type (0, 1), BuildingBlock: XUDNAN_clean_linker_2, # of connection points: 2
#     Edge 27, Type (0, 1), BuildingBlock: XUDNAN_clean_linker_2, # of connection points: 2
#     Edge 28, Type (0, 1), BuildingBlock: XUDNAN_clean_linker_2, # of connection points: 2
#     Edge 29, Type (0, 1), BuildingBlock: XUDNAN_clean_linker_2, # of connection points: 2
#     Edge 30, Type (0, 1), BuildingBlock: XUDNAN_clean_linker_2, # of connection points: 2
#     Edge 31, Type (0, 1), BuildingBlock: XUDNAN_clean_linker_2, # of connection points: 2
#     Edge 32, Type (0, 1), BuildingBlock: XUDNAN_clean_linker_2, # of connection points: 2
#     Edge 33, Type (0, 1), BuildingBlock: XUDNAN_clean_linker_2, # of connection points: 2
#     Edge 34, Type (0, 1), BuildingBlock: XUDNAN_clean_linker_2, # of connection points: 2
#     Edge 35, Type (0, 1), BuildingBlock: XUDNAN_clean_linker_2, # of connection points: 2
# Relax obj value: 0.065
# Max RMSD: 0.077
# Mean RMSD: 0.074
data_MOF--net-cml--node1-OJICUG_clean_sbu_0--node2-BELTOD_clean_linker_0--edge1-XUDNAN_clean_linker_2
_symmetry_space_group_name_H-M    P1
_symmetry_Int_Tables_number       1
_symmetry_cell_setting            triclinic
loop_
_symmetry_equiv_pos_as_xyz
'x, y, z'
_cell_length_a     44.123951
_cell_length_b     44.419352
_cell_length_c     41.646797
_cell_angle_alpha  89.510943
_cell_angle_beta   89.729364
_cell_angle_gamma 90.113519
loop_
_atom_site_label
_atom_site_type_symbol
_atom_site_fract_x
_atom_site_fract_y
_atom_site_fract_z
_atom_type_partial_charge
P0 P 0.28979 0.35078 0.9685 0.0
H1 H 0.28842 0.30221 0.01588 0.0
H2 H 0.29921 0.30038 0.07366 0.0
H3 H 0.31757 0.39592 0.07196 0.0
H4 H 0.30733 0.39763 0.01484 0.0
H5 H 0.26498 0.31933 0.91363 0.0
H6 H 0.21569 0.29621 0.9037 0.0
H7 H 0.1831 0.32899 0.99498 0.0
H8 H 0.23271 0.35179 0.00489 0.0
H9 H 0.33684 0.37905 0.92925 0.0
H10 H 0.25312 0.40535 0.97483 0.0
O11 O 0.3151 0.32822 0.9511 0.0
H12 H 0.34793 0.43146 0.91646 0.0
H13 H 0.26436 0.45838 0.96232 0.0
C14 C 0.29675 0.35003 0.01103 0.0
C15 C 0.29459 0.32275 0.02807 0.0
C16 C 0.30072 0.32173 0.06098 0.0
C17 C 0.30884 0.34809 0.07729 0.0
C18 C 0.31069 0.37539 0.06015 0.0
C19 C 0.3049 0.37633 0.0273 0.0
C20 C 0.25259 0.33658 0.96027 0.0
C21 C 0.24716 0.32165 0.93141 0.0
C22 C 0.21892 0.30865 0.92568 0.0
C23 C 0.19559 0.31058 0.94871 0.0
C24 C 0.20081 0.3267 0.97707 0.0
C25 C 0.22908 0.33978 0.98272 0.0
C26 C 0.29408 0.38833 0.95276 0.0
C27 C 0.32041 0.39604 0.93572 0.0
C28 C 0.3267 0.42607 0.92837 0.0
C29 C 0.30695 0.449 0.93837 0.0
C30 C 0.27993 0.44113 0.95437 0.0
C31 C 0.27341 0.41091 0.96128 0.0
P32 P 0.74344 0.5793 0.5354 0.0
H33 H 0.72996 0.51525 0.52883 0.0
H34 H 0.69625 0.48734 0.49346 0.0
H35 H 0.66656 0.57118 0.4506 0.0
H36 H 0.70111 0.59872 0.48523 0.0
H37 H 0.80116 0.58595 0.5016 0.0
H38 H 0.82586 0.62852 0.47497 0.0
H39 H 0.74735 0.68369 0.49458 0.0
H40 H 0.72341 0.64116 0.52248 0.0
H41 H 0.7641 0.5937 0.59965 0.0
H42 H 0.67939 0.59404 0.54843 0.0
O43 O 0.77085 0.55596 0.54737 0.0
H44 H 0.73761 0.60846 0.64873 0.0
H45 H 0.65268 0.60835 0.5975 0.0
C46 C 0.71852 0.559 0.50917 0.0
C47 C 0.71639 0.52758 0.51159 0.0
C48 C 0.69685 0.51166 0.49155 0.0
C49 C 0.67879 0.52696 0.46897 0.0
C50 C 0.68062 0.55858 0.46715 0.0
C51 C 0.70032 0.57442 0.48705 0.0
C52 C 0.76075 0.6106 0.51456 0.0
C53 C 0.78932 0.60725 0.50027 0.0
C54 C 0.80328 0.63159 0.48467 0.0
C55 C 0.78868 0.65969 0.48264 0.0
C56 C 0.75953 0.6626 0.49618 0.0
C57 C 0.74573 0.63827 0.51205 0.0
C58 C 0.72363 0.59203 0.57063 0.0
C59 C 0.73979 0.59693 0.59898 0.0
C60 C 0.72462 0.60533 0.62701 0.0
C61 C 0.69299 0.60924 0.62711 0.0
C62 C 0.67706 0.60564 0.59821 0.0
C63 C 0.69229 0.59716 0.57017 0.0
P64 P 0.7657 0.41621 0.02957 0.0
H65 H 0.75919 0.43958 0.09421 0.0
H66 H 0.71957 0.4331 0.13489 0.0
H67 H 0.67707 0.36512 0.07672 0.0
H68 H 0.71683 0.37173 0.03603 0.0
H69 H 0.77716 0.41005 0.96054 0.0
H70 H 0.79523 0.36791 0.92816 0.0
H71 H 0.79705 0.31154 0.01323 0.0
H72 H 0.77868 0.35356 0.04521 0.0
H73 H 0.76979 0.48182 0.0271 0.0
H74 H 0.71346 0.4123 0.98715 0.0
O75 O 0.79761 0.43122 0.0437 0.0
H76 H 0.7349 0.52015 0.00715 0.0
H77 H 0.67792 0.45044 0.96783 0.0
C78 C 0.74133 0.40566 0.06248 0.0
C79 C 0.74192 0.4226 0.09066 0.0
C80 C 0.71912 0.41907 0.11374 0.0
C81 C 0.69522 0.39867 0.10887 0.0
C82 C 0.69543 0.38071 0.08127 0.0
C83 C 0.71817 0.38443 0.05806 0.0
C84 C 0.77575 0.38462 0.00508 0.0
C85 C 0.78087 0.38843 0.97205 0.0
C86 C 0.79145 0.36443 0.95364 0.0
C87 C 0.79733 0.33631 0.96808 0.0
C88 C 0.79209 0.33267 0.00123 0.0
C89 C 0.78163 0.35669 0.01957 0.0
C90 C 0.74444 0.44428 0.00812 0.0
C91 C 0.75029 0.47484 0.01332 0.0
C92 C 0.73011 0.49672 0.00223 0.0
C93 C 0.70346 0.48835 0.98616 0.0
C94 C 0.69838 0.45771 0.97977 0.0
C95 C 0.71868 0.43585 0.99079 0.0
P96 P 0.29657 0.6331 0.49417 0.0
H97 H 0.27477 0.59211 0.44466 0.0
H98 H 0.28584 0.5394 0.43304 0.0
H99 H 0.34495 0.53552 0.51549 0.0
H100 H 0.33296 0.58748 0.52755 0.0
H101 H 0.2708 0.68995 0.47313 0.0
H102 H 0.21928 0.70539 0.45959 0.0
H103 H 0.1864 0.61659 0.48495 0.0
H104 H 0.23812 0.60134 0.49876 0.0
H105 H 0.34955 0.66069 0.52351 0.0
H106 H 0.26455 0.62197 0.55462 0.0
O107 O 0.31974 0.65219 0.46958 0.0
H108 H 0.36623 0.66341 0.57906 0.0
H109 H 0.28081 0.62523 0.61058 0.0
C110 C 0.30244 0.59358 0.48737 0.0
C111 C 0.28952 0.57964 0.46065 0.0
C112 C 0.29604 0.54956 0.45393 0.0
C113 C 0.31616 0.53312 0.47345 0.0
C114 C 0.32877 0.54718 0.50041 0.0
C115 C 0.32205 0.57712 0.50721 0.0
C116 C 0.2583 0.6443 0.48599 0.0
C117 C 0.25249 0.67383 0.47584 0.0
C118 C 0.22304 0.68268 0.46836 0.0
C119 C 0.19891 0.66209 0.47104 0.0
C120 C 0.20467 0.63275 0.48227 0.0
C121 C 0.23417 0.62402 0.49007 0.0
C122 C 0.30568 0.6415 0.53505 0.0
C123 C 0.33407 0.65367 0.5424 0.0
C124 C 0.34356 0.65527 0.57424 0.0
C125 C 0.32483 0.64451 0.59926 0.0
C126 C 0.29583 0.63347 0.59182 0.0
C127 C 0.28639 0.63187 0.55991 0.0
P128 P 0.83054 0.81968 0.9763 0.0
H129 H 0.86753 0.7881 0.024 0.0
H130 H 0.88225 0.80045 0.0787 0.0
H131 H 0.82645 0.8803 0.0745 0.0
H132 H 0.81275 0.86829 0.01932 0.0
H133 H 0.79728 0.76358 0.96525 0.0
H134 H 0.74416 0.75363 0.95246 0.0
H135 H 0.72344 0.8477 0.96604 0.0
H136 H 0.77655 0.85754 0.97847 0.0
H137 H 0.8767 0.86683 0.98161 0.0
H138 H 0.80586 0.84252 0.91561 0.0
O139 O 0.85107 0.79062 0.96346 0.0
H140 H 0.88794 0.91157 0.94934 0.0
H141 H 0.8159 0.88792 0.88409 0.0
C142 C 0.83908 0.82729 0.01761 0.0
C143 C 0.8583 0.80814 0.03491 0.0
C144 C 0.86652 0.81515 0.06632 0.0
C145 C 0.85552 0.8414 0.08103 0.0
C146 C 0.83561 0.86012 0.06378 0.0
C147 C 0.82751 0.85312 0.03233 0.0
C148 C 0.79087 0.81134 0.97238 0.0
C149 C 0.78122 0.78196 0.96595 0.0
C150 C 0.75085 0.77628 0.95881 0.0
C151 C 0.72978 0.79998 0.95795 0.0
C152 C 0.73929 0.82911 0.96612 0.0
C153 C 0.76958 0.83469 0.97348 0.0
C154 C 0.83972 0.85194 0.95168 0.0
C155 C 0.86328 0.87132 0.96041 0.0
C156 C 0.86955 0.89703 0.942 0.0
C157 C 0.8524 0.90373 0.91444 0.0
C158 C 0.82957 0.88352 0.90513 0.0
C159 C 0.82356 0.85767 0.92338 0.0
P160 P 0.26381 0.08151 0.53915 0.0
H161 H 0.22544 0.03508 0.56655 0.0
H162 H 0.19546 0.99445 0.54349 0.0
H163 H 0.22568 0.02089 0.44851 0.0
H164 H 0.25563 0.06159 0.47177 0.0
H165 H 0.24489 0.12142 0.48661 0.0
H166 H 0.27355 0.15247 0.44794 0.0
H167 H 0.35727 0.12255 0.4909 0.0
H168 H 0.32868 0.09155 0.52911 0.0
H169 H 0.27124 0.11657 0.59767 0.0
H170 H 0.2004 0.09868 0.52942 0.0
O171 O 0.28802 0.0657 0.5649 0.0
H172 H 0.23507 0.14363 0.6316 0.0
H173 H 0.16418 0.12569 0.56314 0.0
C174 C 0.24265 0.05144 0.52095 0.0
C175 C 0.2257 0.03206 0.54077 0.0
C176 C 0.20869 0.00876 0.52755 0.0
C177 C 0.20829 0.00438 0.49416 0.0
C178 C 0.22533 0.02387 0.47429 0.0
C179 C 0.24252 0.04715 0.48761 0.0
C180 C 0.28467 0.10418 0.51063 0.0
C181 C 0.26941 0.12155 0.48759 0.0
C182 C 0.28578 0.13914 0.46548 0.0
C183 C 0.31762 0.13993 0.46649 0.0
C184 C 0.33275 0.1226 0.48977 0.0
C185 C 0.3164 0.10477 0.51155 0.0
C186 C 0.23825 0.10493 0.56156 0.0
C187 C 0.24797 0.11876 0.58984 0.0
C188 C 0.22735 0.1344 0.60907 0.0
C189 C 0.19672 0.13643 0.60021 0.0
C190 C 0.18754 0.12405 0.57083 0.0
C191 C 0.2082 0.1086 0.55156 0.0
P192 P 0.22548 0.9089 0.02654 0.0
H193 H 0.23931 0.85398 0.06293 0.0
H194 H 0.21369 0.82885 0.10805 0.0
H195 H 0.14056 0.89311 0.10153 0.0
H196 H 0.16618 0.91798 0.05652 0.0
H197 H 0.29154 0.90285 0.02482 0.0
H198 H 0.32571 0.87224 0.99236 0.0
H199 H 0.24872 0.8321 0.94534 0.0
H200 H 0.2146 0.86259 0.97809 0.0
H201 H 0.22711 0.97023 0.00063 0.0
H202 H 0.1705 0.89147 0.99184 0.0
O203 O 0.24603 0.93394 0.04673 0.0
H204 H 0.19494 0.99728 0.96243 0.0
H205 H 0.13865 0.91825 0.95297 0.0
C206 C 0.20428 0.88738 0.05581 0.0
C207 C 0.2174 0.86219 0.07071 0.0
C208 C 0.20287 0.848 0.09667 0.0
C209 C 0.17502 0.8589 0.10829 0.0
C210 C 0.16167 0.88377 0.09279 0.0
C211 C 0.17632 0.89804 0.067 0.0
C212 C 0.2505 0.88535 0.00355 0.0
C213 C 0.28195 0.88746 0.00759 0.0
C214 C 0.30148 0.86987 0.9891 0.0
C215 C 0.28986 0.84996 0.96615 0.0
C216 C 0.2583 0.84761 0.96248 0.0
C217 C 0.23879 0.86501 0.98123 0.0
C218 C 0.20104 0.92892 -0.00074 0.0
C219 C 0.2077 0.95878 0.9906 0.0
C220 C 0.18935 0.97422 0.96876 0.0
C221 C 0.16437 0.95982 0.95476 0.0
C222 C 0.15794 0.92978 0.96321 0.0
C223 C 0.17607 0.9145 0.98543 0.0
P224 P 0.84628 0.19819 0.42565 0.0
H225 H 0.89435 0.16537 0.39202 0.0
H226 H 0.9078 0.11212 0.39089 0.0
H227 H 0.82974 0.09112 0.45019 0.0
H228 H 0.81697 0.14463 0.45189 0.0
H229 H 0.8086 0.25168 0.43138 0.0
H230 H 0.75828 0.26447 0.41092 0.0
H231 H 0.75175 0.17636 0.36811 0.0
H232 H 0.80221 0.16433 0.3874 0.0
H233 H 0.89977 0.20608 0.4645 0.0
H234 H 0.80296 0.20387 0.47933 0.0
O235 O 0.87124 0.2187 0.40461 0.0
H236 H 0.90744 0.20685 0.52262 0.0
H237 H 0.81058 0.20534 0.53756 0.0
C238 C 0.85455 0.15881 0.42181 0.0
C239 C 0.87997 0.14927 0.40448 0.0
C240 C 0.88754 0.11877 0.40376 0.0
C241 C 0.8698 0.09733 0.42042 0.0
C242 C 0.84407 0.10706 0.43742 0.0
C243 C 0.83661 0.13757 0.43821 0.0
C244 C 0.80886 0.20688 0.41152 0.0
C245 C 0.79619 0.23514 0.41769 0.0
C246 C 0.76739 0.24233 0.40613 0.0
C247 C 0.75091 0.22138 0.38799 0.0
C248 C 0.76391 0.19314 0.38171 0.0
C249 C 0.79271 0.18608 0.39312 0.0
C250 C 0.85083 0.2057 0.46762 0.0
C251 C 0.88016 0.2067 0.48023 0.0
C252 C 0.88453 0.20688 0.51337 0.0
C253 C 0.85956 0.20614 0.53439 0.0
C254 C 0.83013 0.20625 0.52175 0.0
C255 C 0.82579 0.20559 0.48852 0.0
Sc256 Sc 0.98799 0.79966 0.33187 0.0
Sc257 Sc 0.00974 0.87626 0.3337 0.0
Sc258 Sc 0.99426 0.83748 0.4057 0.0
O259 O 0.99731 0.83777 0.35705 0.0
C260 C 0.93769 0.7966 0.38761 0.0
C261 C 0.95825 0.84964 0.28744 0.0
C262 C 0.9655 0.90144 0.38754 0.0
C263 C 0.04497 0.82725 0.29341 0.0
C264 C 0.02528 0.77391 0.39103 0.0
C265 C 0.05285 0.87824 0.39527 0.0
O266 O 0.94859 0.78805 0.36085 0.0
O267 O 0.97592 0.87043 0.29685 0.0
O268 O 0.97015 0.87976 0.40706 0.0
O269 O 0.02613 0.80617 0.29937 0.0
O270 O 0.01832 0.79545 0.40959 0.0
O271 O 0.04531 0.88726 0.36736 0.0
O272 O 0.01661 0.77251 0.36201 0.0
O273 O 0.04309 0.85335 0.30539 0.0
O274 O 0.03715 0.85953 0.41147 0.0
O275 O 0.95868 0.82312 0.29915 0.0
O276 O 0.95114 0.81521 0.40562 0.0
O277 O 0.97753 0.90279 0.35977 0.0
Sc278 Sc 0.98347 0.19673 0.80204 0.0
Sc279 Sc 0.98317 0.11954 0.78267 0.0
Sc280 Sc 0.97653 0.14185 0.86306 0.0
O281 O 0.98106 0.15272 0.81586 0.0
C282 C 0.02181 0.19826 0.86595 0.0
C283 C 0.03189 0.16599 0.75503 0.0
C284 C 0.0241 0.09323 0.84003 0.0
C285 C 0.94224 0.16905 0.7473 0.0
C286 C 0.93174 0.19709 0.85661 0.0
C287 C 0.935 0.09131 0.83056 0.0
O288 O 0.0168 0.20735 0.8375 0.0
O289 O 0.02134 0.13961 0.75902 0.0
O290 O 0.01391 0.11106 0.86122 0.0
O291 O 0.95033 0.19075 0.765 0.0
O292 O 0.93868 0.17159 0.8685 0.0
O293 O 0.94509 0.09547 0.80228 0.0
O294 O 0.94681 0.20969 0.834 0.0
O295 O 0.95269 0.14249 0.75031 0.0
O296 O 0.94499 0.10568 0.85456 0.0
O297 O 0.02053 0.18904 0.7685 0.0
O298 O 0.00782 0.17609 0.87863 0.0
O299 O 0.01426 0.09285 0.81131 0.0
Sc300 Sc 0.49049 0.30897 0.29278 0.0
Sc301 Sc 0.47773 0.38502 0.31019 0.0
Sc302 Sc 0.49574 0.33462 0.37289 0.0
O303 O 0.48797 0.34282 0.32535 0.0
C304 C 0.45584 0.27776 0.35167 0.0
C305 C 0.43387 0.34649 0.26654 0.0
C306 C 0.44078 0.38093 0.37618 0.0
C307 C 0.52303 0.36266 0.25513 0.0
C308 C 0.5454 0.29307 0.33973 0.0
C309 C 0.52935 0.39773 0.36178 0.0
O310 O 0.46144 0.28046 0.32176 0.0
O311 O 0.44008 0.37023 0.28193 0.0
O312 O 0.4564 0.35972 0.38837 0.0
O313 O 0.51994 0.33465 0.26102 0.0
O314 O 0.53603 0.30883 0.36307 0.0
O315 O 0.51433 0.4044 0.33677 0.0
O316 O 0.53071 0.2904 0.31377 0.0
O317 O 0.50822 0.3827 0.27006 0.0
O318 O 0.5248 0.37367 0.37796 0.0
O319 O 0.45063 0.32326 0.26717 0.0
O320 O 0.46748 0.29486 0.37271 0.0
O321 O 0.44637 0.39214 0.34865 0.0
Sc322 Sc 0.49605 0.69466 0.82536 0.0
Sc323 Sc 0.49571 0.61673 0.84209 0.0
Sc324 Sc 0.48915 0.66791 0.90548 0.0
O325 O 0.49364 0.65985 0.85762 0.0
C326 C 0.53736 0.71745 0.8832 0.0
C327 C 0.54498 0.64873 0.79716 0.0
C328 C 0.53502 0.61231 0.90583 0.0
C329 C 0.45392 0.64786 0.78894 0.0
C330 C 0.447 0.7192 0.87524 0.0
C331 C 0.4437 0.61309 0.89566 0.0
O332 O 0.5285 0.7186 0.85417 0.0
O333 O 0.53363 0.62592 0.81131 0.0
O334 O 0.52215 0.63459 0.919 0.0
O335 O 0.46374 0.67439 0.79354 0.0
O336 O 0.45618 0.70275 0.89829 0.0
O337 O 0.45798 0.6033 0.87136 0.0
O338 O 0.45855 0.71833 0.84722 0.0
O339 O 0.46356 0.62507 0.80442 0.0
O340 O 0.45193 0.63638 0.91096 0.0
O341 O 0.53385 0.67507 0.79927 0.0
O342 O 0.52574 0.69995 0.90426 0.0
O343 O 0.5281 0.60333 0.87794 0.0
H344 H 0.16251 0.30742 0.89327 0.0
H345 H 0.16355 0.27691 0.99255 0.0
H346 H 0.11744 0.24673 0.98299 0.0
H347 H 0.08011 0.31144 0.88497 0.0
H348 H 0.08097 0.29804 0.84424 0.0
H349 H 0.11256 0.31909 0.85971 0.0
H350 H 0.14878 0.2755 0.8446 0.0
H351 H 0.11732 0.25428 0.82925 0.0
H352 H 0.14122 0.2381 0.85981 0.0
H353 H 0.07375 0.21679 0.96144 0.0
H354 H 0.03432 0.19093 0.93008 0.0
H355 H 0.06222 0.24114 0.84492 0.0
C356 C 0.15291 0.29456 0.91306 0.0
C357 C 0.16654 0.29457 0.94367 0.0
C358 C 0.15321 0.27759 0.96902 0.0
C359 C 0.12714 0.26026 0.96379 0.0
C360 C 0.11462 0.26032 0.93315 0.0
C361 C 0.12693 0.27721 0.90828 0.0
C362 C 0.10979 0.27256 0.87734 0.0
C363 C 0.09497 0.30204 0.8659 0.0
C364 C 0.13051 0.25932 0.85122 0.0
C365 C 0.08627 0.24995 0.88854 0.0
C366 C 0.08936 0.24324 0.92081 0.0
C367 C 0.0709 0.22209 0.93623 0.0
C368 C 0.04864 0.20744 0.91816 0.0
C369 C 0.04505 0.21406 0.88503 0.0
C370 C 0.06413 0.23572 0.87023 0.0
H371 H 0.82654 0.66084 0.42964 0.0
H372 H 0.78751 0.7183 0.50282 0.0
H373 H 0.8167 0.76128 0.48132 0.0
H374 H 0.89984 0.68964 0.43502 0.0
H375 H 0.90845 0.68708 0.39278 0.0
H376 H 0.88117 0.66186 0.41072 0.0
H377 H 0.84103 0.67904 0.36924 0.0
H378 H 0.86824 0.70442 0.35118 0.0
H379 H 0.83227 0.71851 0.36513 0.0
H380 H 0.85425 0.79637 0.45654 0.0
H381 H 0.898 0.82112 0.43034 0.0
H382 H 0.91361 0.74116 0.37346 0.0
C383 C 0.82386 0.68251 0.44099 0.0
C384 C 0.80444 0.68611 0.46785 0.0
C385 C 0.80163 0.71497 0.48183 0.0
C386 C 0.81825 0.73957 0.46985 0.0
C387 C 0.83755 0.73506 0.44379 0.0
C388 C 0.84039 0.70729 0.42942 0.0
C389 C 0.86458 0.70793 0.40343 0.0
C390 C 0.89001 0.68529 0.41096 0.0
C391 C 0.85069 0.70214 0.37028 0.0
C392 C 0.8756 0.74014 0.40619 0.0
C393 C 0.85941 0.75547 0.42936 0.0
C394 C 0.86679 0.78478 0.43799 0.0
C395 C 0.89174 0.79861 0.42305 0.0
C396 C 0.90908 0.78315 0.3997 0.0
C397 C 0.90041 0.75377 0.3907 0.0
H398 H 0.84275 0.33929 0.92293 0.0
H399 H 0.78191 0.27658 0.97124 0.0
H400 H 0.80713 0.23423 0.94401 0.0
H401 H 0.84794 0.29767 0.84605 0.0
H402 H 0.88744 0.307 0.84082 0.0
H403 H 0.86257 0.33256 0.86152 0.0
H404 H 0.89828 0.33155 0.91073 0.0
H405 H 0.92314 0.30591 0.89032 0.0
H406 H 0.90777 0.29594 0.92917 0.0
H407 H 0.84208 0.1987 0.91633 0.0
H408 H 0.88373 0.1722 0.88885 0.0
H409 H 0.92099 0.25797 0.85698 0.0
C410 C 0.83417 0.31673 0.92709 0.0
C411 C 0.81032 0.31122 0.94918 0.0
C412 C 0.8003 0.28128 0.95462 0.0
C413 C 0.81434 0.25712 0.9391 0.0
C414 C 0.83819 0.26329 0.91801 0.0
C415 C 0.84788 0.29236 0.91175 0.0
C416 C 0.87525 0.29268 0.88963 0.0
C417 C 0.86784 0.30841 0.8576 0.0
C418 C 0.90272 0.30738 0.90595 0.0
C419 C 0.87994 0.25921 0.88517 0.0
C420 C 0.85818 0.24269 0.90158 0.0
C421 C 0.85897 0.21137 0.90295 0.0
C422 C 0.88279 0.19654 0.88739 0.0
C423 C 0.90548 0.21302 0.8706 0.0
C424 C 0.90368 0.24475 0.86911 0.0
H425 H 0.16877 0.71402 0.4854 0.0
H426 H 0.16035 0.63076 0.43249 0.0
H427 H 0.11169 0.64836 0.40999 0.0
H428 H 0.08674 0.72401 0.50229 0.0
H429 H 0.08914 0.76429 0.49726 0.0
H430 H 0.1213 0.74353 0.51208 0.0
H431 H 0.15459 0.76605 0.46633 0.0
H432 H 0.12257 0.78673 0.45134 0.0
H433 H 0.14289 0.76161 0.42521 0.0
H434 H 0.06801 0.67789 0.3877 0.0
H435 H 0.03071 0.71594 0.36989 0.0
H436 H 0.06695 0.77912 0.43881 0.0
C437 C 0.15639 0.69931 0.46949 0.0
C438 C 0.16818 0.67104 0.46069 0.0
C439 C 0.15144 0.65235 0.43983 0.0
C440 C 0.12388 0.6622 0.42687 0.0
C441 C 0.11325 0.69056 0.43542 0.0
C442 C 0.12879 0.70868 0.45659 0.0
C443 C 0.11344 0.73885 0.46049 0.0
C444 C 0.10197 0.74289 0.49509 0.0
C445 C 0.13463 0.76482 0.45022 0.0
C446 C 0.08741 0.73528 0.43735 0.0
C447 C 0.08758 0.70724 0.42322 0.0
C448 C 0.06724 0.69969 0.39908 0.0
C449 C 0.04626 0.72146 0.38902 0.0
C450 C 0.04576 0.7503 0.40325 0.0
C451 C 0.06635 0.75702 0.42802 0.0
H452 H 0.69094 0.75396 0.97432 0.0
H453 H 0.69892 0.83379 0.91408 0.0
H454 H 0.64875 0.82317 0.89073 0.0
H455 H 0.65708 0.70752 0.91664 0.0
H456 H 0.63203 0.68845 0.94446 0.0
H457 H 0.66745 0.7036 0.95828 0.0
H458 H 0.6389 0.73475 0.0012 0.0
H459 H 0.60337 0.71959 0.98752 0.0
H460 H 0.60892 0.75978 0.98893 0.0
H461 H 0.60043 0.8012 0.87011 0.0
H462 H 0.55549 0.77083 0.85598 0.0
H463 H 0.57814 0.70634 0.93095 0.0
C464 C 0.68193 0.76934 0.95647 0.0
C465 C 0.69866 0.79477 0.94611 0.0
C466 C 0.68622 0.81444 0.9227 0.0
C467 C 0.65784 0.80853 0.9092 0.0
C468 C 0.6421 0.78304 0.91962 0.0
C469 C 0.65352 0.76393 0.94295 0.0
C470 C 0.63245 0.73757 0.94915 0.0
C471 C 0.6482 0.70752 0.94167 0.0
C472 C 0.62018 0.73796 0.98375 0.0
C473 C 0.60776 0.74451 0.92514 0.0
C474 C 0.61375 0.77082 0.90832 0.0
C475 C 0.5952 0.78081 0.88345 0.0
C476 C 0.56984 0.76338 0.87552 0.0
C477 C 0.56321 0.73646 0.89261 0.0
C478 C 0.58231 0.72715 0.91791 0.0
H479 H 0.36442 0.1782 0.47991 0.0
H480 H 0.31038 0.14429 0.40132 0.0
H481 H 0.34068 0.17494 0.36292 0.0
H482 H 0.37181 0.25372 0.44945 0.0
H483 H 0.41009 0.25824 0.46359 0.0
H484 H 0.3844 0.23329 0.48451 0.0
H485 H 0.42259 0.18947 0.47792 0.0
H486 H 0.44835 0.21427 0.45687 0.0
H487 H 0.43599 0.17986 0.43835 0.0
H488 H 0.37777 0.20864 0.33317 0.0
H489 H 0.41637 0.24528 0.31466 0.0
H490 H 0.44518 0.25772 0.41326 0.0
C491 C 0.35909 0.17711 0.45459 0.0
C492 C 0.33519 0.15881 0.44349 0.0
C493 C 0.32852 0.15833 0.41027 0.0
C494 C 0.3457 0.1755 0.38832 0.0
C495 C 0.36927 0.19316 0.40006 0.0
C496 C 0.37579 0.19427 0.43245 0.0
C497 C 0.40176 0.21562 0.43903 0.0
C498 C 0.39138 0.24176 0.4604 0.0
C499 C 0.42877 0.19879 0.45392 0.0
C500 C 0.40892 0.22633 0.40526 0.0
C501 C 0.3901 0.21298 0.38308 0.0
C502 C 0.39259 0.21929 0.35034 0.0
C503 C 0.41468 0.24006 0.34005 0.0
C504 C 0.43384 0.25447 0.36248 0.0
C505 C 0.43088 0.24724 0.39547 0.0
H506 H 0.33893 0.81749 0.98624 0.0
H507 H 0.28758 0.84109 0.90116 0.0
H508 H 0.32274 0.81095 0.86794 0.0
H509 H 0.41297 0.81962 0.94935 0.0
H510 H 0.42686 0.78794 0.97221 0.0
H511 H 0.39796 0.81182 0.98889 0.0
H512 H 0.36313 0.76537 0.99779 0.0
H513 H 0.39193 0.74136 0.98117 0.0
H514 H 0.35438 0.74144 0.96432 0.0
H515 H 0.36458 0.77879 0.84402 0.0
H516 H 0.4075 0.74475 0.83202 0.0
H517 H 0.42985 0.74152 0.93338 0.0
C518 C 0.33522 0.81649 0.96058 0.0
C519 C 0.31065 0.83168 0.94621 0.0
C520 C 0.30621 0.82943 0.91264 0.0
C521 C 0.32613 0.81253 0.89359 0.0
C522 C 0.35022 0.79789 0.90855 0.0
C523 C 0.35468 0.79956 0.94133 0.0
C524 C 0.38175 0.78115 0.95173 0.0
C525 C 0.40634 0.80134 0.9664 0.0
C526 C 0.37221 0.75583 0.97513 0.0
C527 C 0.39179 0.76873 0.91972 0.0
C528 C 0.37358 0.77884 0.89501 0.0
C529 C 0.37892 0.77064 0.86322 0.0
C530 C 0.40337 0.75139 0.85661 0.0
C531 C 0.42188 0.74033 0.88177 0.0
C532 C 0.41593 0.74931 0.91364 0.0
H533 H 0.70522 0.25253 0.41813 0.0
H534 H 0.72782 0.20764 0.32893 0.0
H535 H 0.677 0.21934 0.308 0.0
H536 H 0.62709 0.22978 0.42222 0.0
H537 H 0.614 0.2653 0.43758 0.0
H538 H 0.65192 0.25271 0.4461 0.0
H539 H 0.67369 0.30226 0.42197 0.0
H540 H 0.63583 0.31506 0.41355 0.0
H541 H 0.66354 0.3133 0.38168 0.0
H542 H 0.62432 0.23624 0.29644 0.0
H543 H 0.57347 0.25874 0.29411 0.0
H544 H 0.58541 0.29396 0.39033 0.0
C545 C 0.6996 0.24534 0.3941 0.0
C546 C 0.72048 0.22895 0.37527 0.0
C547 C 0.71204 0.21971 0.34406 0.0
C548 C 0.68329 0.22638 0.33187 0.0
C549 C 0.66326 0.24242 0.35112 0.0
C550 C 0.67104 0.25193 0.38149 0.0
C551 C 0.64545 0.26938 0.39694 0.0
C552 C 0.63394 0.25332 0.42751 0.0
C553 C 0.65521 0.30193 0.40393 0.0
C554 C 0.62214 0.26826 0.37042 0.0
C555 C 0.63286 0.25249 0.3443 0.0
C556 C 0.61562 0.24862 0.31675 0.0
C557 C 0.58671 0.26149 0.31572 0.0
C558 C 0.57531 0.27815 0.34205 0.0
C559 C 0.59332 0.28131 0.36982 0.0
H560 H 0.33082 0.47626 0.88509 0.0
H561 H 0.3064 0.49264 0.9843 0.0
H562 H 0.33288 0.54172 0.9818 0.0
H563 H 0.40271 0.49963 0.89005 0.0
H564 H 0.40548 0.51712 0.85092 0.0
H565 H 0.37866 0.4873 0.85781 0.0
H566 H 0.33484 0.52174 0.83867 0.0
H567 H 0.36167 0.55169 0.83123 0.0
H568 H 0.32944 0.55793 0.85706 0.0
H569 H 0.37015 0.58406 0.97144 0.0
H570 H 0.41293 0.61633 0.95342 0.0
H571 H 0.41284 0.57125 0.86135 0.0
C572 C 0.33018 0.49069 0.90592 0.0
C573 C 0.3165 0.48083 0.9348 0.0
C574 C 0.31634 0.50006 0.96174 0.0
C575 C 0.33141 0.52792 0.96057 0.0
C576 C 0.34608 0.53633 0.93213 0.0
C577 C 0.34507 0.51845 0.90509 0.0
C578 C 0.36544 0.5306 0.87874 0.0
C579 C 0.38949 0.50728 0.86884 0.0
C580 C 0.34673 0.54112 0.84971 0.0
C581 C 0.37951 0.55699 0.89581 0.0
C582 C 0.36768 0.56045 0.92631 0.0
C583 C 0.37913 0.58194 0.94734 0.0
C584 C 0.40349 0.60009 0.93697 0.0
C585 C 0.41635 0.59622 0.90606 0.0
C586 C 0.40362 0.57479 0.88517 0.0
H587 H 0.64397 0.47688 0.48322 0.0
H588 H 0.66716 0.5387 0.40548 0.0
H589 H 0.63211 0.51185 0.36978 0.0
H590 H 0.63891 0.40998 0.43334 0.0
H591 H 0.60765 0.39424 0.45592 0.0
H592 H 0.63481 0.41816 0.47547 0.0
H593 H 0.59136 0.45309 0.49429 0.0
H594 H 0.56409 0.42935 0.47474 0.0
H595 H 0.56585 0.46893 0.465 0.0
H596 H 0.59364 0.47962 0.34301 0.0
H597 H 0.55483 0.4432 0.32624 0.0
H598 H 0.55784 0.40071 0.42054 0.0
C599 C 0.64203 0.48456 0.45858 0.0
C600 C 0.65825 0.5101 0.44728 0.0
C601 C 0.65461 0.5196 0.41494 0.0
C602 C 0.63492 0.50434 0.39437 0.0
C603 C 0.6192 0.47944 0.40635 0.0
C604 C 0.62262 0.46946 0.43761 0.0
C605 C 0.60281 0.44219 0.44446 0.0
C606 C 0.62221 0.4145 0.45278 0.0
C607 C 0.57966 0.4488 0.4712 0.0
C608 C 0.58746 0.43866 0.41224 0.0
C609 C 0.59729 0.46041 0.39065 0.0
C610 C 0.58587 0.46237 0.35963 0.0
C611 C 0.56372 0.4416 0.35039 0.0
C612 C 0.55323 0.41903 0.37205 0.0
C613 C 0.56551 0.41751 0.40334 0.0
H614 H 0.66834 0.49293 0.93174 0.0
H615 H 0.68465 0.53485 0.0239 0.0
H616 H 0.64386 0.57129 0.01306 0.0
H617 H 0.65059 0.56156 0.88784 0.0
H618 H 0.62136 0.5441 0.86428 0.0
H619 H 0.65278 0.52202 0.87866 0.0
H620 H 0.61531 0.48476 0.90611 0.0
H621 H 0.58379 0.50679 0.89195 0.0
H622 H 0.58767 0.4988 0.93423 0.0
H623 H 0.60033 0.60205 0.99328 0.0
H624 H 0.55777 0.62621 0.96507 0.0
H625 H 0.56904 0.5639 0.886 0.0
C626 C 0.66337 0.50981 0.94961 0.0
C627 C 0.67991 0.51116 0.97856 0.0
C628 C 0.67276 0.53371 0.00126 0.0
C629 C 0.64945 0.55438 0.99545 0.0
C630 C 0.63346 0.55224 0.96684 0.0
C631 C 0.64015 0.53065 0.94421 0.0
C632 C 0.61917 0.53307 0.9156 0.0
C633 C 0.63705 0.54064 0.88478 0.0
C634 C 0.60037 0.50413 0.91177 0.0
C635 C 0.59951 0.55922 0.92587 0.0
C636 C 0.60817 0.56995 0.95547 0.0
C637 C 0.59335 0.5939 0.97004 0.0
C638 C 0.56911 0.60742 0.95382 0.0
C639 C 0.55989 0.59697 0.92328 0.0
C640 C 0.57538 0.57244 0.9093 0.0
H641 H 0.32933 0.51375 0.413 0.0
H642 H 0.32819 0.48425 0.51257 0.0
H643 H 0.35424 0.43731 0.49716 0.0
H644 H 0.32005 0.43656 0.37677 0.0
H645 H 0.34501 0.44656 0.34397 0.0
H646 H 0.32141 0.47486 0.36215 0.0
H647 H 0.36904 0.5075 0.37275 0.0
H648 H 0.39275 0.47931 0.35502 0.0
H649 H 0.4 0.49168 0.39538 0.0
H650 H 0.38779 0.39789 0.472 0.0
H651 H 0.42463 0.36942 0.43925 0.0
H652 H 0.40157 0.42454 0.35631 0.0
C653 C 0.3333 0.49691 0.43143 0.0
C654 C 0.32662 0.50268 0.46397 0.0
C655 C 0.3333 0.48042 0.48748 0.0
C656 C 0.34786 0.45358 0.47893 0.0
C657 C 0.35514 0.44913 0.44671 0.0
C658 C 0.34763 0.47005 0.42329 0.0
C659 C 0.36065 0.46166 0.39097 0.0
C660 C 0.33526 0.45447 0.36706 0.0
C661 C 0.38186 0.4865 0.3778 0.0
C662 C 0.378 0.43364 0.40017 0.0
C663 C 0.37421 0.42637 0.43225 0.0
C664 C 0.39039 0.40296 0.44668 0.0
C665 C 0.41134 0.38697 0.4279 0.0
C666 C 0.41606 0.39472 0.39518 0.0
C667 C 0.39847 0.41784 0.38117 0.0
H668 H 0.8674 0.95953 0.93736 0.0
H669 H 0.85138 0.91122 0.84881 0.0
H670 H 0.86315 0.9573 0.81771 0.0
H671 H 0.83975 0.0338 0.91039 0.0
H672 H 0.86925 0.05354 0.93141 0.0
H673 H 0.85516 0.01813 0.94688 0.0
H674 H 0.90971 0.99647 0.94671 0.0
H675 H 0.92392 0.03181 0.93157 0.0
H676 H 0.93163 0.99759 0.91008 0.0
H677 H 0.88172 0.00683 0.79617 0.0
H678 H 0.90879 0.05453 0.7858 0.0
H679 H 0.9141 0.06989 0.88851 0.0
C680 C 0.86619 0.9586 0.91143 0.0
C681 C 0.8583 0.93171 0.89559 0.0
C682 C 0.85679 0.93164 0.86159 0.0
C683 C 0.86347 0.95772 0.84369 0.0
C684 C 0.87152 0.98371 0.86011 0.0
C685 C 0.87297 0.98431 0.89323 0.0
C686 C 0.88503 0.01412 0.905 0.0
C687 C 0.86085 0.03089 0.92458 0.0
C688 C 0.91431 0.00972 0.92447 0.0
C689 C 0.89118 0.02984 0.87327 0.0
C690 C 0.88268 0.01218 0.84767 0.0
C691 C 0.88811 0.02104 0.81601 0.0
C692 C 0.90353 0.04822 0.81038 0.0
C693 C 0.91364 0.06605 0.83633 0.0
C694 C 0.90643 0.05705 0.8681 0.0
H695 H 0.17113 0.00664 0.44133 0.0
H696 H 0.20344 0.94639 0.51621 0.0
H697 H 0.16993 0.90626 0.49615 0.0
H698 H 0.09509 0.98414 0.44455 0.0
H699 H 0.08859 0.98677 0.40193 0.0
H700 H 0.11709 0.00994 0.42021 0.0
H701 H 0.15752 0.98895 0.38106 0.0
H702 H 0.12908 0.96574 0.36257 0.0
H703 H 0.16302 0.94884 0.37845 0.0
H704 H 0.13014 0.87428 0.47118 0.0
H705 H 0.08678 0.85222 0.44251 0.0
H706 H 0.08081 0.93253 0.38273 0.0
C707 C 0.17165 0.98479 0.45304 0.0
C708 C 0.18989 0.97964 0.48036 0.0
C709 C 0.18943 0.95093 0.49545 0.0
C710 C 0.17064 0.92794 0.4841 0.0
C711 C 0.15256 0.93391 0.45749 0.0
C712 C 0.15299 0.96155 0.44201 0.0
C713 C 0.13003 0.96257 0.41503 0.0
C714 C 0.1063 0.98732 0.42079 0.0
C715 C 0.14587 0.96677 0.38234 0.0
C716 C 0.11618 0.93143 0.41826 0.0
C717 C 0.12967 0.91523 0.44278 0.0
C718 C 0.11963 0.88659 0.45166 0.0
C719 C 0.09491 0.87431 0.43531 0.0
C720 C 0.0805 0.89059 0.41029 0.0
C721 C 0.09167 0.91934 0.40138 0.0
H722 H 0.13953 0.01569 0.9617 0.0
H723 H 0.14515 0.94072 0.89596 0.0
H724 H 0.11221 0.96805 0.8576 0.0
H725 H 0.0618 0.03153 0.94832 0.0
H726 H 0.06608 0.07175 0.95156 0.0
H727 H 0.09159 0.04706 0.97264 0.0
H728 H 0.13739 0.07333 0.94494 0.0
H729 H 0.11197 0.09808 0.92371 0.0
H730 H 0.13893 0.07571 0.90173 0.0
H731 H 0.07798 0.0035 0.8269 0.0
H732 H 0.04231 0.04253 0.80793 0.0
H733 H 0.0583 0.09346 0.89482 0.0
C734 C 0.13412 0.00523 0.93903 0.0
C735 C 0.14496 0.97623 0.9316 0.0
C736 C 0.13693 0.96292 0.90206 0.0
C737 C 0.11842 0.97833 0.8801 0.0
C738 C 0.10804 0.00691 0.88819 0.0
C739 C 0.11545 0.02013 0.91705 0.0
C740 C 0.10004 0.05031 0.92079 0.0
C741 C 0.0786 0.05013 0.95005 0.0
C742 C 0.12349 0.07586 0.92291 0.0
C743 C 0.0826 0.05192 0.88964 0.0
C744 C 0.08777 0.02688 0.87096 0.0
C745 C 0.0738 0.02324 0.8413 0.0
C746 C 0.05364 0.04558 0.83069 0.0
C747 C 0.0474 0.07106 0.84989 0.0
C748 C 0.06245 0.07426 0.87956 0.0
H749 H 0.89227 0.06404 0.37052 0.0
H750 H 0.86826 0.05801 0.47158 0.0
H751 H 0.8861 0.00538 0.47311 0.0
H752 H 0.87337 0.98625 0.34964 0.0
H753 H 0.90514 0.98303 0.32254 0.0
H754 H 0.88748 0.01909 0.32864 0.0
H755 H 0.93939 0.04181 0.34465 0.0
H756 H 0.95717 0.00588 0.3386 0.0
H757 H 0.96068 0.02452 0.37669 0.0
H758 H 0.91027 0.95471 0.46457 0.0
H759 H 0.93928 0.91034 0.44678 0.0
H760 H 0.94831 0.95046 0.35168 0.0
C761 C 0.89059 0.05164 0.39295 0.0
C762 C 0.87874 0.06513 0.42089 0.0
C763 C 0.87676 0.048 0.44971 0.0
C764 C 0.88695 0.01813 0.45086 0.0
C765 C 0.89894 0.0057 0.42297 0.0
C766 C 0.90071 0.0219 0.39454 0.0
C767 C 0.91613 0.004 0.36844 0.0
C768 C 0.89422 0.99772 0.34068 0.0
C769 C 0.94506 0.02001 0.35641 0.0
C770 C 0.92349 0.97548 0.38686 0.0
C771 C 0.9131 0.9767 0.41816 0.0
C772 C 0.91828 0.95338 0.44002 0.0
C773 C 0.93482 0.92827 0.42968 0.0
C774 C 0.94616 0.92685 0.39782 0.0
C775 C 0.93997 0.95071 0.37617 0.0
H776 H 0.34743 0.3086 0.10633 0.0
H777 H 0.29104 0.38644 0.12475 0.0
H778 H 0.31211 0.38988 0.17945 0.0
H779 H 0.34629 0.27707 0.19099 0.0
H780 H 0.38536 0.26565 0.18786 0.0
H781 H 0.36161 0.26577 0.15275 0.0
H782 H 0.40033 0.30031 0.12328 0.0
H783 H 0.424 0.30054 0.15825 0.0
H784 H 0.41103 0.33559 0.14114 0.0
H785 H 0.34485 0.38992 0.22793 0.0
H786 H 0.38637 0.38613 0.26719 0.0
H787 H 0.42124 0.30785 0.21749 0.0
C788 C 0.33866 0.3256 0.12237 0.0
C789 C 0.31749 0.34712 0.11154 0.0
C790 C 0.30728 0.36975 0.13272 0.0
C791 C 0.31896 0.37174 0.16384 0.0
C792 C 0.34065 0.35081 0.17343 0.0
C793 C 0.35019 0.32796 0.15345 0.0
C794 C 0.37619 0.31051 0.1681 0.0
C795 C 0.36679 0.27781 0.17536 0.0
C796 C 0.40455 0.31185 0.14641 0.0
C797 C 0.38072 0.32801 0.19872 0.0
C798 C 0.35967 0.35084 0.20161 0.0
C799 C 0.36106 0.37173 0.22632 0.0
C800 C 0.38484 0.36949 0.24839 0.0
C801 C 0.40699 0.34661 0.2455 0.0
C802 C 0.40438 0.32526 0.22071 0.0
H803 H 0.64565 0.64855 0.63764 0.0
H804 H 0.70255 0.58245 0.68536 0.0
H805 H 0.67357 0.58929 0.73545 0.0
H806 H 0.63522 0.69794 0.70779 0.0
H807 H 0.59633 0.70611 0.698 0.0
H808 H 0.6232 0.69816 0.66647 0.0
H809 H 0.58852 0.65534 0.64601 0.0
H810 H 0.56158 0.66316 0.6774 0.0
H811 H 0.57689 0.62579 0.67336 0.0
H812 H 0.63568 0.59884 0.77825 0.0
H813 H 0.59172 0.61191 0.81212 0.0
H814 H 0.55967 0.67323 0.73817 0.0
C815 C 0.65216 0.63575 0.65873 0.0
C816 C 0.67654 0.61512 0.65763 0.0
C817 C 0.68436 0.59878 0.68575 0.0
C818 C 0.66796 0.60242 0.71431 0.0
C819 C 0.64393 0.62269 0.71451 0.0
C820 C 0.63613 0.63928 0.68759 0.0
C821 C 0.60841 0.65852 0.69402 0.0
C822 C 0.61627 0.69218 0.69142 0.0
C823 C 0.58231 0.65019 0.67135 0.0
C824 C 0.60135 0.64944 0.72844 0.0
C825 C 0.62227 0.62883 0.73975 0.0
C826 C 0.61945 0.61535 0.76991 0.0
C827 C 0.59439 0.62284 0.78891 0.0
C828 C 0.5726 0.6438 0.77784 0.0
C829 C 0.57642 0.65767 0.74744 0.0
H830 H 0.66565 0.34978 0.13583 0.0
H831 H 0.66456 0.44741 0.13065 0.0
H832 H 0.61937 0.44825 0.16561 0.0
H833 H 0.58431 0.33887 0.13556 0.0
H834 H 0.58489 0.30804 0.16398 0.0
H835 H 0.61703 0.31473 0.13803 0.0
H836 H 0.65216 0.31792 0.18758 0.0
H837 H 0.62016 0.31108 0.21365 0.0
H838 H 0.64332 0.3441 0.2191 0.0
H839 H 0.57473 0.43903 0.20027 0.0
H840 H 0.5344 0.42059 0.23612 0.0
H841 H 0.56402 0.32852 0.22049 0.0
C842 C 0.65579 0.37127 0.14206 0.0
C843 C 0.66865 0.39856 0.13073 0.0
C844 C 0.65531 0.42629 0.13948 0.0
C845 C 0.62952 0.42699 0.15909 0.0
C846 C 0.61737 0.39977 0.16985 0.0
C847 C 0.6301 0.37241 0.16194 0.0
C848 C 0.61286 0.34657 0.17768 0.0
C849 C 0.59895 0.32583 0.15229 0.0
C850 C 0.63335 0.32888 0.20088 0.0
C851 C 0.58855 0.36378 0.19565 0.0
C852 C 0.59154 0.39441 0.19049 0.0
C853 C 0.57211 0.4151 0.20455 0.0
C854 C 0.5492 0.40431 0.22491 0.0
C855 C 0.54592 0.37303 0.23127 0.0
C856 C 0.56577 0.35252 0.21607 0.0
H857 H 0.35953 0.68576 0.63143 0.0
H858 H 0.3184 0.59729 0.64131 0.0
H859 H 0.34379 0.59031 0.69342 0.0
H860 H 0.43041 0.66544 0.66 0.0
H861 H 0.43766 0.7 0.68102 0.0
H862 H 0.41297 0.70004 0.64678 0.0
H863 H 0.36997 0.72341 0.68101 0.0
H864 H 0.39465 0.72371 0.71537 0.0
H865 H 0.35836 0.70512 0.71788 0.0
H866 H 0.37826 0.59029 0.74083 0.0
H867 H 0.41743 0.59843 0.78193 0.0
H868 H 0.43646 0.68679 0.74102 0.0
C869 C 0.35548 0.66513 0.64481 0.0
C870 C 0.33682 0.64216 0.63238 0.0
C871 C 0.3321 0.61546 0.65061 0.0
C872 C 0.34657 0.61119 0.68016 0.0
C873 C 0.36552 0.63392 0.69124 0.0
C874 C 0.36975 0.66051 0.67432 0.0
C875 C 0.39278 0.68053 0.69049 0.0
C876 C 0.42006 0.68685 0.66825 0.0
C877 C 0.37805 0.70993 0.70187 0.0
C878 C 0.40152 0.66064 0.7186 0.0
C879 C 0.38539 0.63394 0.71872 0.0
C880 C 0.39075 0.61128 0.74128 0.0
C881 C 0.41319 0.61604 0.76438 0.0
C882 C 0.43 0.64327 0.76473 0.0
C883 C 0.42381 0.66588 0.74162 0.0
H884 H 0.86477 0.80412 0.13305 0.0
H885 H 0.87084 0.89762 0.10243 0.0
H886 H 0.89224 0.911 0.15502 0.0
H887 H 0.84773 0.81813 0.21859 0.0
H888 H 0.87088 0.78707 0.23184 0.0
H889 H 0.85218 0.78555 0.1935 0.0
H890 H 0.9038 0.77585 0.16546 0.0
H891 H 0.92259 0.7773 0.20363 0.0
H892 H 0.93462 0.80191 0.17136 0.0
H893 H 0.91819 0.91327 0.20844 0.0
H894 H 0.94694 0.90417 0.25825 0.0
H895 H 0.9245 0.80905 0.25351 0.0
C896 C 0.87029 0.82748 0.13749 0.0
C897 C 0.86595 0.84983 0.11362 0.0
C898 C 0.8734 0.88015 0.1205 0.0
C899 C 0.88568 0.88798 0.15029 0.0
C900 C 0.89021 0.86526 0.17302 0.0
C901 C 0.88262 0.83565 0.16702 0.0
C902 C 0.8919 0.81516 0.19445 0.0
C903 C 0.86401 0.80063 0.21055 0.0
C904 C 0.91458 0.79116 0.18303 0.0
C905 C 0.9068 0.83773 0.21636 0.0
C906 C 0.90526 0.86657 0.2038 0.0
C907 C 0.91917 0.89086 0.21876 0.0
C908 C 0.93552 0.88543 0.24703 0.0
C909 C 0.93795 0.8559 0.25994 0.0
C910 C 0.92281 0.83195 0.2446 0.0
H911 H 0.14246 0.11152 0.61673 0.0
H912 H 0.20006 0.18848 0.63565 0.0
H913 H 0.16288 0.20656 0.67596 0.0
H914 H 0.06974 0.14951 0.62595 0.0
H915 H 0.0524 0.11719 0.64505 0.0
H916 H 0.08246 0.11213 0.61619 0.0
H917 H 0.11284 0.08132 0.65825 0.0
H918 H 0.083 0.08641 0.68725 0.0
H919 H 0.12115 0.0978 0.69664 0.0
H920 H 0.11904 0.21504 0.71575 0.0
H921 H 0.07453 0.21164 0.75234 0.0
H922 H 0.04793 0.12809 0.70706 0.0
C923 C 0.14697 0.13256 0.6288 0.0
C924 C 0.17391 0.14883 0.62279 0.0
C925 C 0.17945 0.17573 0.63987 0.0
C926 C 0.15843 0.1862 0.66268 0.0
C927 C 0.13214 0.16939 0.66819 0.0
C928 C 0.12648 0.1431 0.65169 0.0
C929 C 0.09763 0.12805 0.66311 0.0
C930 C 0.07417 0.12666 0.63596 0.0
C931 C 0.10406 0.09654 0.67715 0.0
C932 C 0.08799 0.14974 0.68892 0.0
C933 C 0.10784 0.17369 0.69139 0.0
C934 C 0.10335 0.19638 0.71393 0.0
C935 C 0.07803 0.19431 0.73457 0.0
C936 C 0.05791 0.1695 0.73273 0.0
C937 C 0.06303 0.1472 0.70937 0.0
H938 H 0.11485 0.84655 0.11982 0.0
H939 H 0.20355 0.84354 0.16423 0.0
H940 H 0.17995 0.82807 0.21563 0.0
H941 H 0.07712 0.87923 0.18337 0.0
H942 H 0.0423 0.85841 0.17896 0.0
H943 H 0.06643 0.86484 0.14467 0.0
H944 H 0.06887 0.80739 0.13464 0.0
H945 H 0.04467 0.80078 0.169 0.0
H946 H 0.08102 0.78249 0.16645 0.0
H947 H 0.1464 0.82097 0.26382 0.0
H948 H 0.10519 0.82052 0.30453 0.0
H949 H 0.03848 0.82612 0.22886 0.0
C950 C 0.12934 0.84208 0.14023 0.0
C951 C 0.16107 0.84608 0.13796 0.0
C952 C 0.17925 0.84012 0.16522 0.0
C953 C 0.16604 0.83141 0.19457 0.0
C954 C 0.13463 0.82835 0.19618 0.0
C955 C 0.11652 0.83315 0.16963 0.0
C956 C 0.08323 0.83047 0.17827 0.0
C957 C 0.0663 0.85999 0.17089 0.0
C958 C 0.06859 0.80368 0.16107 0.0
C959 C 0.08539 0.82466 0.21407 0.0
C960 C 0.11526 0.82326 0.22391 0.0
C961 C 0.12295 0.82114 0.25632 0.0
C962 C 0.09952 0.82088 0.27924 0.0
C963 C 0.06894 0.82237 0.26952 0.0
C964 C 0.06178 0.82382 0.23661 0.0
H965 H 0.89401 0.1642 0.56472 0.0
H966 H 0.83626 0.24117 0.58233 0.0
H967 H 0.84738 0.23733 0.64058 0.0
H968 H 0.87401 0.12262 0.63874 0.0
H969 H 0.91195 0.10838 0.64363 0.0
H970 H 0.89752 0.11606 0.60399 0.0
H971 H 0.94327 0.15129 0.59235 0.0
H972 H 0.95785 0.14368 0.63184 0.0
H973 H 0.95099 0.18196 0.6192 0.0
H974 H 0.86973 0.22831 0.69562 0.0
H975 H 0.89948 0.21354 0.74341 0.0
H976 H 0.94009 0.14065 0.68962 0.0
C977 C 0.88354 0.18008 0.58095 0.0
C978 C 0.86449 0.20311 0.56929 0.0
C979 C 0.85089 0.22336 0.59103 0.0
C980 C 0.85706 0.22131 0.62403 0.0
C981 C 0.87636 0.19852 0.63474 0.0
C982 C 0.88907 0.17804 0.61384 0.0
C983 C 0.90982 0.15629 0.63108 0.0
C984 C 0.89758 0.12392 0.62925 0.0
C985 C 0.9424 0.15846 0.61784 0.0
C986 C 0.90765 0.1683 0.66485 0.0
C987 C 0.88818 0.1926 0.66655 0.0
C988 C 0.88455 0.20895 0.69472 0.0
C989 C 0.90157 0.20046 0.72168 0.0
C990 C 0.92174 0.17572 0.72028 0.0
C991 C 0.92428 0.15917 0.69164 0.0
loop_
_geom_bond_atom_site_label_1
_geom_bond_atom_site_label_2
_geom_bond_distance
_geom_bond_site_symmetry_2
_ccdc_geom_bond_type
P0 O11 1.490 . S
P0 C14 1.812 1_556 S
P0 C20 1.803 . S
P0 C26 1.819 . S
H1 C15 0.941 . S
H2 C16 0.939 . S
H3 C18 0.940 . S
H4 C19 0.940 . S
H5 C21 0.939 . S
H6 C22 0.942 . S
H7 C24 0.940 1_554 S
H8 C25 0.939 . S
H9 C27 0.941 . S
H10 C31 0.939 . S
O11 P0 1.490 . S
H12 C28 0.939 . S
H13 C30 0.940 . S
C14 P0 1.812 1_554 S
C14 C15 1.389 . S
C14 C19 1.391 . S
C15 H1 0.941 . S
C15 C14 1.389 . S
C15 C16 1.397 . S
C16 H2 0.939 . S
C16 C15 1.397 . S
C16 C17 1.378 . S
C17 C16 1.378 . S
C17 C18 1.378 . S
C18 H3 0.940 . S
C18 C17 1.378 . S
C18 C19 1.396 . S
C19 H4 0.940 . S
C19 C14 1.391 . S
C19 C18 1.396 . S
C20 P0 1.803 . S
C20 C21 1.378 . S
C20 C25 1.400 1_556 S
C21 H5 0.939 . S
C21 C20 1.378 . S
C21 C22 1.361 . S
C22 H6 0.942 . S
C22 C21 1.361 . S
C22 C23 1.369 . S
C23 C22 1.369 . S
C23 C24 1.404 . S
C24 H7 0.940 1_556 S
C24 C23 1.404 . S
C24 C25 1.389 1_556 S
C25 H8 0.939 . S
C25 C20 1.400 1_554 S
C25 C24 1.389 1_554 S
C26 P0 1.819 . S
C26 C27 1.391 . S
C26 C31 1.391 . S
C27 H9 0.941 . S
C27 C26 1.391 . S
C27 C28 1.396 . S
C28 H12 0.939 . S
C28 C27 1.396 . S
C28 C29 1.397 . S
C29 C28 1.397 . S
C29 C30 1.385 . S
C30 H13 0.940 . S
C30 C29 1.385 . S
C30 C31 1.388 . S
C31 H10 0.939 . S
C31 C26 1.391 . S
C31 C30 1.388 . S
P32 O43 1.490 . S
P32 C46 1.812 . S
P32 C52 1.803 . S
P32 C58 1.819 . S
H33 C47 0.941 . S
H34 C48 0.939 . S
H35 C50 0.940 . S
H36 C51 0.940 . S
H37 C53 0.939 . S
H38 C54 0.942 . S
H39 C56 0.940 . S
H40 C57 0.939 . S
H41 C59 0.941 . S
H42 C63 0.939 . S
O43 P32 1.490 . S
H44 C60 0.939 . S
H45 C62 0.940 . S
C46 P32 1.812 . S
C46 C47 1.389 . S
C46 C51 1.391 . S
C47 H33 0.941 . S
C47 C46 1.389 . S
C47 C48 1.397 . S
C48 H34 0.939 . S
C48 C47 1.397 . S
C48 C49 1.378 . S
C49 C48 1.378 . S
C49 C50 1.378 . S
C50 H35 0.940 . S
C50 C49 1.378 . S
C50 C51 1.396 . S
C51 H36 0.940 . S
C51 C46 1.391 . S
C51 C50 1.396 . S
C52 P32 1.803 . S
C52 C53 1.378 . S
C52 C57 1.400 . S
C53 H37 0.939 . S
C53 C52 1.378 . S
C53 C54 1.361 . S
C54 H38 0.942 . S
C54 C53 1.361 . S
C54 C55 1.369 . S
C55 C54 1.369 . S
C55 C56 1.404 . S
C56 H39 0.940 . S
C56 C55 1.404 . S
C56 C57 1.389 . S
C57 H40 0.939 . S
C57 C52 1.400 . S
C57 C56 1.389 . S
C58 P32 1.819 . S
C58 C59 1.391 . S
C58 C63 1.391 . S
C59 H41 0.941 . S
C59 C58 1.391 . S
C59 C60 1.396 . S
C60 H44 0.939 . S
C60 C59 1.396 . S
C60 C61 1.397 . S
C61 C60 1.397 . S
C61 C62 1.385 . S
C62 H45 0.940 . S
C62 C61 1.385 . S
C62 C63 1.388 . S
C63 H42 0.939 . S
C63 C58 1.391 . S
C63 C62 1.388 . S
P64 O75 1.490 . S
P64 C78 1.812 . S
P64 C84 1.803 . S
P64 C90 1.819 . S
H65 C79 0.941 . S
H66 C80 0.939 . S
H67 C82 0.940 . S
H68 C83 0.940 . S
H69 C85 0.937 1_554 S
H70 C86 0.942 . S
H71 C88 0.940 . S
H72 C89 0.939 . S
H73 C91 0.941 . S
H74 C95 0.939 . S
O75 P64 1.490 . S
H76 C92 0.939 . S
H77 C94 0.940 . S
C78 P64 1.812 . S
C78 C79 1.389 . S
C78 C83 1.391 . S
C79 H65 0.941 . S
C79 C78 1.389 . S
C79 C80 1.397 . S
C80 H66 0.939 . S
C80 C79 1.397 . S
C80 C81 1.378 . S
C81 C80 1.378 . S
C81 C82 1.378 . S
C82 H67 0.940 . S
C82 C81 1.378 . S
C82 C83 1.396 . S
C83 H68 0.940 . S
C83 C78 1.391 . S
C83 C82 1.396 . S
C84 P64 1.803 . S
C84 C85 1.378 1_554 S
C84 C89 1.400 . S
C85 H69 0.937 1_556 S
C85 C84 1.378 1_556 S
C85 C86 1.361 . S
C86 H70 0.942 . S
C86 C85 1.361 . S
C86 C87 1.369 . S
C87 C86 1.369 . S
C87 C88 1.404 . S
C88 H71 0.940 . S
C88 C87 1.404 . S
C88 C89 1.389 1_556 S
C89 H72 0.939 . S
C89 C84 1.400 . S
C89 C88 1.389 1_554 S
C90 P64 1.819 . S
C90 C91 1.391 . S
C90 C95 1.391 1_554 S
C91 H73 0.941 . S
C91 C90 1.391 . S
C91 C92 1.396 1_554 S
C92 H76 0.939 . S
C92 C91 1.396 1_556 S
C92 C93 1.397 . S
C93 C92 1.397 . S
C93 C94 1.385 . S
C94 H77 0.940 . S
C94 C93 1.385 . S
C94 C95 1.388 . S
C95 H74 0.939 . S
C95 C90 1.391 1_556 S
C95 C94 1.388 . S
P96 O107 1.490 . S
P96 C110 1.812 . S
P96 C116 1.803 . S
P96 C122 1.819 . S
H97 C111 0.941 . S
H98 C112 0.939 . S
H99 C114 0.940 . S
H100 C115 0.940 . S
H101 C117 0.939 . S
H102 C118 0.942 . S
H103 C120 0.940 . S
H104 C121 0.939 . S
H105 C123 0.941 . S
H106 C127 0.939 . S
O107 P96 1.490 . S
H108 C124 0.939 . S
H109 C126 0.940 . S
C110 P96 1.812 . S
C110 C111 1.389 . S
C110 C115 1.391 . S
C111 H97 0.941 . S
C111 C110 1.389 . S
C111 C112 1.397 . S
C112 H98 0.939 . S
C112 C111 1.397 . S
C112 C113 1.378 . S
C113 C112 1.378 . S
C113 C114 1.378 . S
C114 H99 0.940 . S
C114 C113 1.378 . S
C114 C115 1.396 . S
C115 H100 0.940 . S
C115 C110 1.391 . S
C115 C114 1.396 . S
C116 P96 1.803 . S
C116 C117 1.378 . S
C116 C121 1.400 . S
C117 H101 0.939 . S
C117 C116 1.378 . S
C117 C118 1.361 . S
C118 H102 0.942 . S
C118 C117 1.361 . S
C118 C119 1.369 . S
C119 C118 1.369 . S
C119 C120 1.404 . S
C120 H103 0.940 . S
C120 C119 1.404 . S
C120 C121 1.389 . S
C121 H104 0.939 . S
C121 C116 1.400 . S
C121 C120 1.389 . S
C122 P96 1.819 . S
C122 C123 1.391 . S
C122 C127 1.391 . S
C123 H105 0.941 . S
C123 C122 1.391 . S
C123 C124 1.396 . S
C124 H108 0.939 . S
C124 C123 1.396 . S
C124 C125 1.397 . S
C125 C124 1.397 . S
C125 C126 1.385 . S
C126 H109 0.940 . S
C126 C125 1.385 . S
C126 C127 1.388 . S
C127 H106 0.939 . S
C127 C122 1.391 . S
C127 C126 1.388 . S
P128 O139 1.490 . S
P128 C142 1.812 1_556 S
P128 C148 1.803 . S
P128 C154 1.819 . S
H129 C143 0.941 . S
H130 C144 0.939 . S
H131 C146 0.940 . S
H132 C147 0.940 . S
H133 C149 0.939 . S
H134 C150 0.942 . S
H135 C152 0.940 1_554 S
H136 C153 0.939 . S
H137 C155 0.941 . S
H138 C159 0.939 . S
O139 P128 1.490 . S
H140 C156 0.939 . S
H141 C158 0.940 . S
C142 P128 1.812 1_554 S
C142 C143 1.389 . S
C142 C147 1.391 . S
C143 H129 0.941 . S
C143 C142 1.389 . S
C143 C144 1.397 . S
C144 H130 0.939 . S
C144 C143 1.397 . S
C144 C145 1.378 . S
C145 C144 1.378 . S
C145 C146 1.378 . S
C146 H131 0.940 . S
C146 C145 1.378 . S
C146 C147 1.396 . S
C147 H132 0.940 . S
C147 C142 1.391 . S
C147 C146 1.396 . S
C148 P128 1.803 . S
C148 C149 1.378 . S
C148 C153 1.400 1_556 S
C149 H133 0.939 . S
C149 C148 1.378 . S
C149 C150 1.361 . S
C150 H134 0.942 . S
C150 C149 1.361 . S
C150 C151 1.369 . S
C151 C150 1.369 . S
C151 C152 1.404 . S
C152 H135 0.940 1_556 S
C152 C151 1.404 . S
C152 C153 1.389 1_556 S
C153 H136 0.939 . S
C153 C148 1.400 1_554 S
C153 C152 1.389 1_554 S
C154 P128 1.819 . S
C154 C155 1.391 . S
C154 C159 1.391 . S
C155 H137 0.941 . S
C155 C154 1.391 . S
C155 C156 1.396 . S
C156 H140 0.939 . S
C156 C155 1.396 . S
C156 C157 1.397 . S
C157 C156 1.397 . S
C157 C158 1.385 . S
C158 H141 0.940 . S
C158 C157 1.385 . S
C158 C159 1.388 . S
C159 H138 0.939 . S
C159 C154 1.391 . S
C159 C158 1.388 . S
P160 O171 1.490 . S
P160 C174 1.812 . S
P160 C180 1.803 . S
P160 C186 1.819 . S
H161 C175 0.941 . S
H162 C176 0.939 1_565 S
H163 C178 0.940 . S
H164 C179 0.940 . S
H165 C181 0.939 . S
H166 C182 0.942 . S
H167 C184 0.940 . S
H168 C185 0.939 . S
H169 C187 0.941 . S
H170 C191 0.939 . S
O171 P160 1.490 . S
H172 C188 0.939 . S
H173 C190 0.940 . S
C174 P160 1.812 . S
C174 C175 1.389 . S
C174 C179 1.391 . S
C175 H161 0.941 . S
C175 C174 1.389 . S
C175 C176 1.397 . S
C176 H162 0.939 1_545 S
C176 C175 1.397 . S
C176 C177 1.378 . S
C177 C176 1.378 . S
C177 C178 1.378 . S
C178 H163 0.940 . S
C178 C177 1.378 . S
C178 C179 1.396 . S
C179 H164 0.940 . S
C179 C174 1.391 . S
C179 C178 1.396 . S
C180 P160 1.803 . S
C180 C181 1.378 . S
C180 C185 1.400 . S
C181 H165 0.939 . S
C181 C180 1.378 . S
C181 C182 1.361 . S
C182 H166 0.942 . S
C182 C181 1.361 . S
C182 C183 1.369 . S
C183 C182 1.369 . S
C183 C184 1.404 . S
C184 H167 0.940 . S
C184 C183 1.404 . S
C184 C185 1.389 . S
C185 H168 0.939 . S
C185 C180 1.400 . S
C185 C184 1.389 . S
C186 P160 1.819 . S
C186 C187 1.391 . S
C186 C191 1.391 . S
C187 H169 0.941 . S
C187 C186 1.391 . S
C187 C188 1.396 . S
C188 H172 0.939 . S
C188 C187 1.396 . S
C188 C189 1.397 . S
C189 C188 1.397 . S
C189 C190 1.385 . S
C190 H173 0.940 . S
C190 C189 1.385 . S
C190 C191 1.388 . S
C191 H170 0.939 . S
C191 C186 1.391 . S
C191 C190 1.388 . S
P192 O203 1.490 . S
P192 C206 1.812 . S
P192 C212 1.803 . S
P192 C218 1.819 . S
H193 C207 0.941 . S
H194 C208 0.939 . S
H195 C210 0.940 . S
H196 C211 0.940 . S
H197 C213 0.937 1_554 S
H198 C214 0.942 . S
H199 C216 0.940 . S
H200 C217 0.939 . S
H201 C219 0.941 . S
H202 C223 0.939 . S
O203 P192 1.490 . S
H204 C220 0.939 1_545 S
H205 C222 0.940 . S
C206 P192 1.812 . S
C206 C207 1.389 . S
C206 C211 1.391 . S
C207 H193 0.941 . S
C207 C206 1.389 . S
C207 C208 1.397 . S
C208 H194 0.939 . S
C208 C207 1.397 . S
C208 C209 1.378 . S
C209 C208 1.378 . S
C209 C210 1.378 . S
C210 H195 0.940 . S
C210 C209 1.378 . S
C210 C211 1.396 . S
C211 H196 0.940 . S
C211 C206 1.391 . S
C211 C210 1.396 . S
C212 P192 1.803 . S
C212 C213 1.378 1_554 S
C212 C217 1.400 . S
C213 H197 0.937 1_556 S
C213 C212 1.378 1_556 S
C213 C214 1.361 . S
C214 H198 0.942 . S
C214 C213 1.361 . S
C214 C215 1.369 . S
C215 C214 1.369 . S
C215 C216 1.404 . S
C216 H199 0.940 . S
C216 C215 1.404 . S
C216 C217 1.389 1_556 S
C217 H200 0.939 . S
C217 C212 1.400 . S
C217 C216 1.389 1_554 S
C218 P192 1.819 . S
C218 C219 1.391 . S
C218 C223 1.391 1_554 S
C219 H201 0.941 . S
C219 C218 1.391 . S
C219 C220 1.396 1_554 S
C220 H204 0.939 1_565 S
C220 C219 1.396 1_556 S
C220 C221 1.397 . S
C221 C220 1.397 . S
C221 C222 1.385 . S
C222 H205 0.940 . S
C222 C221 1.385 . S
C222 C223 1.388 . S
C223 H202 0.939 . S
C223 C218 1.391 1_556 S
C223 C222 1.388 . S
P224 O235 1.490 . S
P224 C238 1.812 . S
P224 C244 1.803 . S
P224 C250 1.819 . S
H225 C239 0.941 . S
H226 C240 0.939 . S
H227 C242 0.940 . S
H228 C243 0.940 . S
H229 C245 0.939 . S
H230 C246 0.942 . S
H231 C248 0.940 . S
H232 C249 0.939 . S
H233 C251 0.941 . S
H234 C255 0.939 . S
O235 P224 1.490 . S
H236 C252 0.939 . S
H237 C254 0.940 . S
C238 P224 1.812 . S
C238 C239 1.389 . S
C238 C243 1.391 . S
C239 H225 0.941 . S
C239 C238 1.389 . S
C239 C240 1.397 . S
C240 H226 0.939 . S
C240 C239 1.397 . S
C240 C241 1.378 . S
C241 C240 1.378 . S
C241 C242 1.378 . S
C242 H227 0.940 . S
C242 C241 1.378 . S
C242 C243 1.396 . S
C243 H228 0.940 . S
C243 C238 1.391 . S
C243 C242 1.396 . S
C244 P224 1.803 . S
C244 C245 1.378 . S
C244 C249 1.400 . S
C245 H229 0.939 . S
C245 C244 1.378 . S
C245 C246 1.361 . S
C246 H230 0.942 . S
C246 C245 1.361 . S
C246 C247 1.369 . S
C247 C246 1.369 . S
C247 C248 1.404 . S
C248 H231 0.940 . S
C248 C247 1.404 . S
C248 C249 1.389 . S
C249 H232 0.939 . S
C249 C244 1.400 . S
C249 C248 1.389 . S
C250 P224 1.819 . S
C250 C251 1.391 . S
C250 C255 1.391 . S
C251 H233 0.941 . S
C251 C250 1.391 . S
C251 C252 1.396 . S
C252 H236 0.939 . S
C252 C251 1.396 . S
C252 C253 1.397 . S
C253 C252 1.397 . S
C253 C254 1.385 . S
C254 H237 0.940 . S
C254 C253 1.385 . S
C254 C255 1.388 . S
C255 H234 0.939 . S
C255 C250 1.391 . S
C255 C254 1.388 . S
Sc256 O259 2.025 . S
Sc256 O266 2.105 1_455 S
Sc256 O269 2.105 . S
Sc256 O272 2.105 . S
Sc256 O275 2.105 1_455 S
Sc257 O259 2.025 . S
Sc257 O267 2.105 1_455 S
Sc257 O271 2.105 . S
Sc257 O273 2.105 . S
Sc257 O277 2.105 1_455 S
Sc258 O259 2.025 . S
Sc258 O268 2.105 1_455 S
Sc258 O270 2.105 . S
Sc258 O274 2.105 . S
Sc258 O276 2.105 1_455 S
O259 Sc256 2.025 . S
O259 Sc257 2.025 . S
O259 Sc258 2.025 . S
C260 O266 1.268 . S
C260 O276 1.268 . S
C261 O267 1.268 . S
C261 O275 1.268 . S
C262 O268 1.268 . S
C262 O277 1.268 . S
C263 O269 1.268 . S
C263 O273 1.268 . S
C264 O270 1.268 . S
C264 O272 1.268 . S
C265 O271 1.268 . S
C265 O274 1.268 . S
O266 Sc256 2.105 1_655 S
O266 C260 1.268 . S
O267 Sc257 2.105 1_655 S
O267 C261 1.268 . S
O268 Sc258 2.105 1_655 S
O268 C262 1.268 . S
O269 Sc256 2.105 . S
O269 C263 1.268 . S
O270 Sc258 2.105 . S
O270 C264 1.268 . S
O271 Sc257 2.105 . S
O271 C265 1.268 . S
O272 Sc256 2.105 . S
O272 C264 1.268 . S
O273 Sc257 2.105 . S
O273 C263 1.268 . S
O274 Sc258 2.105 . S
O274 C265 1.268 . S
O275 Sc256 2.105 1_655 S
O275 C261 1.268 . S
O276 Sc258 2.105 1_655 S
O276 C260 1.268 . S
O277 Sc257 2.105 1_655 S
O277 C262 1.268 . S
Sc278 O281 2.025 . S
Sc278 O288 2.105 . S
Sc278 O291 2.105 1_455 S
Sc278 O294 2.105 1_455 S
Sc278 O297 2.105 . S
Sc279 O281 2.025 . S
Sc279 O289 2.105 . S
Sc279 O293 2.105 1_455 S
Sc279 O295 2.105 1_455 S
Sc279 O299 2.105 . S
Sc280 O281 2.025 . S
Sc280 O290 2.105 . S
Sc280 O292 2.105 1_455 S
Sc280 O296 2.105 1_455 S
Sc280 O298 2.105 . S
O281 Sc278 2.025 . S
O281 Sc279 2.025 . S
O281 Sc280 2.025 . S
C282 O288 1.268 . S
C282 O298 1.268 . S
C283 O289 1.268 . S
C283 O297 1.268 . S
C284 O290 1.268 . S
C284 O299 1.268 . S
C285 O291 1.268 . S
C285 O295 1.268 . S
C286 O292 1.268 . S
C286 O294 1.268 . S
C287 O293 1.268 . S
C287 O296 1.268 . S
O288 Sc278 2.105 . S
O288 C282 1.268 . S
O289 Sc279 2.105 . S
O289 C283 1.268 . S
O290 Sc280 2.105 . S
O290 C284 1.268 . S
O291 Sc278 2.105 1_655 S
O291 C285 1.268 . S
O292 Sc280 2.105 1_655 S
O292 C286 1.268 . S
O293 Sc279 2.105 1_655 S
O293 C287 1.268 . S
O294 Sc278 2.105 1_655 S
O294 C286 1.268 . S
O295 Sc279 2.105 1_655 S
O295 C285 1.268 . S
O296 Sc280 2.105 1_655 S
O296 C287 1.268 . S
O297 Sc278 2.105 . S
O297 C283 1.268 . S
O298 Sc280 2.105 . S
O298 C282 1.268 . S
O299 Sc279 2.105 . S
O299 C284 1.268 . S
Sc300 O303 2.025 . S
Sc300 O310 2.105 . S
Sc300 O313 2.105 . S
Sc300 O316 2.105 . S
Sc300 O319 2.105 . S
Sc301 O303 2.025 . S
Sc301 O311 2.105 . S
Sc301 O315 2.105 . S
Sc301 O317 2.105 . S
Sc301 O321 2.105 . S
Sc302 O303 2.025 . S
Sc302 O312 2.105 . S
Sc302 O314 2.105 . S
Sc302 O318 2.105 . S
Sc302 O320 2.105 . S
O303 Sc300 2.025 . S
O303 Sc301 2.025 . S
O303 Sc302 2.025 . S
C304 O310 1.268 . S
C304 O320 1.268 . S
C305 O311 1.268 . S
C305 O319 1.268 . S
C306 O312 1.268 . S
C306 O321 1.268 . S
C307 O313 1.268 . S
C307 O317 1.268 . S
C308 O314 1.268 . S
C308 O316 1.268 . S
C309 O315 1.268 . S
C309 O318 1.268 . S
O310 Sc300 2.105 . S
O310 C304 1.268 . S
O311 Sc301 2.105 . S
O311 C305 1.268 . S
O312 Sc302 2.105 . S
O312 C306 1.268 . S
O313 Sc300 2.105 . S
O313 C307 1.268 . S
O314 Sc302 2.105 . S
O314 C308 1.268 . S
O315 Sc301 2.105 . S
O315 C309 1.268 . S
O316 Sc300 2.105 . S
O316 C308 1.268 . S
O317 Sc301 2.105 . S
O317 C307 1.268 . S
O318 Sc302 2.105 . S
O318 C309 1.268 . S
O319 Sc300 2.105 . S
O319 C305 1.268 . S
O320 Sc302 2.105 . S
O320 C304 1.268 . S
O321 Sc301 2.105 . S
O321 C306 1.268 . S
Sc322 O325 2.025 . S
Sc322 O332 2.105 . S
Sc322 O335 2.105 . S
Sc322 O338 2.105 . S
Sc322 O341 2.105 . S
Sc323 O325 2.025 . S
Sc323 O333 2.105 . S
Sc323 O337 2.105 . S
Sc323 O339 2.105 . S
Sc323 O343 2.105 . S
Sc324 O325 2.025 . S
Sc324 O334 2.105 . S
Sc324 O336 2.105 . S
Sc324 O340 2.105 . S
Sc324 O342 2.105 . S
O325 Sc322 2.025 . S
O325 Sc323 2.025 . S
O325 Sc324 2.025 . S
C326 O332 1.268 . S
C326 O342 1.268 . S
C327 O333 1.268 . S
C327 O341 1.268 . S
C328 O334 1.268 . S
C328 O343 1.268 . S
C329 O335 1.268 . S
C329 O339 1.268 . S
C330 O336 1.268 . S
C330 O338 1.268 . S
C331 O337 1.268 . S
C331 O340 1.268 . S
O332 Sc322 2.105 . S
O332 C326 1.268 . S
O333 Sc323 2.105 . S
O333 C327 1.268 . S
O334 Sc324 2.105 . S
O334 C328 1.268 . S
O335 Sc322 2.105 . S
O335 C329 1.268 . S
O336 Sc324 2.105 . S
O336 C330 1.268 . S
O337 Sc323 2.105 . S
O337 C331 1.268 . S
O338 Sc322 2.105 . S
O338 C330 1.268 . S
O339 Sc323 2.105 . S
O339 C329 1.268 . S
O340 Sc324 2.105 . S
O340 C331 1.268 . S
O341 Sc322 2.105 . S
O341 C327 1.268 . S
O342 Sc324 2.105 . S
O342 C326 1.268 . S
O343 Sc323 2.105 . S
O343 C328 1.268 . S
H344 C356 0.930 . S
H345 C358 0.930 . S
H346 C359 0.930 . S
H347 C363 0.959 . S
H348 C363 0.959 . S
H349 C363 0.961 . S
H350 C364 0.960 . S
H351 C364 0.961 . S
H352 C364 0.959 . S
H353 C367 0.929 . S
H354 C368 0.931 . S
H355 C370 0.930 . S
C356 H344 0.930 . S
C356 C357 1.399 . S
C356 C361 1.399 . S
C357 C356 1.399 . S
C357 C358 1.376 . S
C358 H345 0.930 . S
C358 C357 1.376 . S
C358 C359 1.388 . S
C359 H346 0.930 . S
C359 C358 1.388 . S
C359 C360 1.390 . S
C360 C359 1.390 . S
C360 C361 1.394 . S
C360 C366 1.465 . S
C361 C356 1.399 . S
C361 C360 1.394 . S
C361 C362 1.516 . S
C362 C361 1.516 . S
C362 C363 1.502 . S
C362 C364 1.561 . S
C362 C365 1.526 . S
C363 H347 0.959 . S
C363 H348 0.959 . S
C363 H349 0.961 . S
C363 C362 1.502 . S
C364 H350 0.960 . S
C364 H351 0.961 . S
C364 H352 0.959 . S
C364 C362 1.561 . S
C365 C362 1.526 . S
C365 C366 1.396 . S
C365 C370 1.390 . S
C366 C360 1.465 . S
C366 C365 1.396 . S
C366 C367 1.399 . S
C367 H353 0.929 . S
C367 C366 1.399 . S
C367 C368 1.385 . S
C368 H354 0.931 . S
C368 C367 1.385 . S
C368 C369 1.389 . S
C369 C368 1.389 . S
C369 C370 1.387 . S
C370 H355 0.930 . S
C370 C365 1.390 . S
C370 C369 1.387 . S
H371 C383 0.930 . S
H372 C385 0.930 . S
H373 C386 0.930 . S
H374 C390 0.959 . S
H375 C390 0.959 . S
H376 C390 0.961 . S
H377 C391 0.960 . S
H378 C391 0.961 . S
H379 C391 0.959 . S
H380 C394 0.929 . S
H381 C395 0.931 . S
H382 C397 0.930 . S
C383 H371 0.930 . S
C383 C384 1.399 . S
C383 C388 1.399 . S
C384 C383 1.399 . S
C384 C385 1.376 . S
C385 H372 0.930 . S
C385 C384 1.376 . S
C385 C386 1.388 . S
C386 H373 0.930 . S
C386 C385 1.388 . S
C386 C387 1.390 . S
C387 C386 1.390 . S
C387 C388 1.394 . S
C387 C393 1.465 . S
C388 C383 1.399 . S
C388 C387 1.394 . S
C388 C389 1.516 . S
C389 C388 1.516 . S
C389 C390 1.502 . S
C389 C391 1.561 . S
C389 C392 1.526 . S
C390 H374 0.959 . S
C390 H375 0.959 . S
C390 H376 0.961 . S
C390 C389 1.502 . S
C391 H377 0.960 . S
C391 H378 0.961 . S
C391 H379 0.959 . S
C391 C389 1.561 . S
C392 C389 1.526 . S
C392 C393 1.396 . S
C392 C397 1.390 . S
C393 C387 1.465 . S
C393 C392 1.396 . S
C393 C394 1.399 . S
C394 H380 0.929 . S
C394 C393 1.399 . S
C394 C395 1.385 . S
C395 H381 0.931 . S
C395 C394 1.385 . S
C395 C396 1.389 . S
C396 C395 1.389 . S
C396 C397 1.387 . S
C397 H382 0.930 . S
C397 C392 1.390 . S
C397 C396 1.387 . S
H398 C410 0.930 . S
H399 C412 0.930 . S
H400 C413 0.930 . S
H401 C417 0.959 . S
H402 C417 0.959 . S
H403 C417 0.961 . S
H404 C418 0.960 . S
H405 C418 0.961 . S
H406 C418 0.959 . S
H407 C421 0.929 . S
H408 C422 0.931 . S
H409 C424 0.930 . S
C410 H398 0.930 . S
C410 C411 1.399 . S
C410 C415 1.399 . S
C411 C410 1.399 . S
C411 C412 1.376 . S
C412 H399 0.930 . S
C412 C411 1.376 . S
C412 C413 1.388 . S
C413 H400 0.930 . S
C413 C412 1.388 . S
C413 C414 1.390 . S
C414 C413 1.390 . S
C414 C415 1.394 . S
C414 C420 1.465 . S
C415 C410 1.399 . S
C415 C414 1.394 . S
C415 C416 1.516 . S
C416 C415 1.516 . S
C416 C417 1.502 . S
C416 C418 1.561 . S
C416 C419 1.526 . S
C417 H401 0.959 . S
C417 H402 0.959 . S
C417 H403 0.961 . S
C417 C416 1.502 . S
C418 H404 0.960 . S
C418 H405 0.961 . S
C418 H406 0.959 . S
C418 C416 1.561 . S
C419 C416 1.526 . S
C419 C420 1.396 . S
C419 C424 1.390 . S
C420 C414 1.465 . S
C420 C419 1.396 . S
C420 C421 1.399 . S
C421 H407 0.929 . S
C421 C420 1.399 . S
C421 C422 1.385 . S
C422 H408 0.931 . S
C422 C421 1.385 . S
C422 C423 1.389 . S
C423 C422 1.389 . S
C423 C424 1.387 . S
C424 H409 0.930 . S
C424 C419 1.390 . S
C424 C423 1.387 . S
H425 C437 0.930 . S
H426 C439 0.930 . S
H427 C440 0.930 . S
H428 C444 0.959 . S
H429 C444 0.959 . S
H430 C444 0.961 . S
H431 C445 0.960 . S
H432 C445 0.961 . S
H433 C445 0.959 . S
H434 C448 0.929 . S
H435 C449 0.931 . S
H436 C451 0.930 . S
C437 H425 0.930 . S
C437 C438 1.399 . S
C437 C442 1.399 . S
C438 C437 1.399 . S
C438 C439 1.376 . S
C439 H426 0.930 . S
C439 C438 1.376 . S
C439 C440 1.388 . S
C440 H427 0.930 . S
C440 C439 1.388 . S
C440 C441 1.390 . S
C441 C440 1.390 . S
C441 C442 1.394 . S
C441 C447 1.465 . S
C442 C437 1.399 . S
C442 C441 1.394 . S
C442 C443 1.516 . S
C443 C442 1.516 . S
C443 C444 1.502 . S
C443 C445 1.561 . S
C443 C446 1.526 . S
C444 H428 0.959 . S
C444 H429 0.959 . S
C444 H430 0.961 . S
C444 C443 1.502 . S
C445 H431 0.960 . S
C445 H432 0.961 . S
C445 H433 0.959 . S
C445 C443 1.561 . S
C446 C443 1.526 . S
C446 C447 1.396 . S
C446 C451 1.390 . S
C447 C441 1.465 . S
C447 C446 1.396 . S
C447 C448 1.399 . S
C448 H434 0.929 . S
C448 C447 1.399 . S
C448 C449 1.385 . S
C449 H435 0.931 . S
C449 C448 1.385 . S
C449 C450 1.389 . S
C450 C449 1.389 . S
C450 C451 1.387 . S
C451 H436 0.930 . S
C451 C446 1.390 . S
C451 C450 1.387 . S
H452 C464 0.930 . S
H453 C466 0.930 . S
H454 C467 0.930 . S
H455 C471 0.959 . S
H456 C471 0.959 . S
H457 C471 0.961 . S
H458 C472 0.960 . S
H459 C472 0.961 . S
H460 C472 0.959 . S
H461 C475 0.929 . S
H462 C476 0.931 . S
H463 C478 0.930 . S
C464 H452 0.930 . S
C464 C465 1.399 . S
C464 C469 1.399 . S
C465 C464 1.399 . S
C465 C466 1.376 . S
C466 H453 0.930 . S
C466 C465 1.376 . S
C466 C467 1.388 . S
C467 H454 0.930 . S
C467 C466 1.388 . S
C467 C468 1.390 . S
C468 C467 1.390 . S
C468 C469 1.394 . S
C468 C474 1.465 . S
C469 C464 1.399 . S
C469 C468 1.394 . S
C469 C470 1.516 . S
C470 C469 1.516 . S
C470 C471 1.502 . S
C470 C472 1.561 . S
C470 C473 1.526 . S
C471 H455 0.959 . S
C471 H456 0.959 . S
C471 H457 0.961 . S
C471 C470 1.502 . S
C472 H458 0.960 . S
C472 H459 0.961 . S
C472 H460 0.959 . S
C472 C470 1.561 . S
C473 C470 1.526 . S
C473 C474 1.396 . S
C473 C478 1.390 . S
C474 C468 1.465 . S
C474 C473 1.396 . S
C474 C475 1.399 . S
C475 H461 0.929 . S
C475 C474 1.399 . S
C475 C476 1.385 . S
C476 H462 0.931 . S
C476 C475 1.385 . S
C476 C477 1.389 . S
C477 C476 1.389 . S
C477 C478 1.387 . S
C478 H463 0.930 . S
C478 C473 1.390 . S
C478 C477 1.387 . S
H479 C491 0.930 . S
H480 C493 0.930 . S
H481 C494 0.930 . S
H482 C498 0.959 . S
H483 C498 0.959 . S
H484 C498 0.961 . S
H485 C499 0.960 . S
H486 C499 0.961 . S
H487 C499 0.959 . S
H488 C502 0.929 . S
H489 C503 0.931 . S
H490 C505 0.930 . S
C491 H479 0.930 . S
C491 C492 1.399 . S
C491 C496 1.399 . S
C492 C491 1.399 . S
C492 C493 1.376 . S
C493 H480 0.930 . S
C493 C492 1.376 . S
C493 C494 1.388 . S
C494 H481 0.930 . S
C494 C493 1.388 . S
C494 C495 1.390 . S
C495 C494 1.390 . S
C495 C496 1.394 . S
C495 C501 1.465 . S
C496 C491 1.399 . S
C496 C495 1.394 . S
C496 C497 1.516 . S
C497 C496 1.516 . S
C497 C498 1.502 . S
C497 C499 1.561 . S
C497 C500 1.526 . S
C498 H482 0.959 . S
C498 H483 0.959 . S
C498 H484 0.961 . S
C498 C497 1.502 . S
C499 H485 0.960 . S
C499 H486 0.961 . S
C499 H487 0.959 . S
C499 C497 1.561 . S
C500 C497 1.526 . S
C500 C501 1.396 . S
C500 C505 1.390 . S
C501 C495 1.465 . S
C501 C500 1.396 . S
C501 C502 1.399 . S
C502 H488 0.929 . S
C502 C501 1.399 . S
C502 C503 1.385 . S
C503 H489 0.931 . S
C503 C502 1.385 . S
C503 C504 1.389 . S
C504 C503 1.389 . S
C504 C505 1.387 . S
C505 H490 0.930 . S
C505 C500 1.390 . S
C505 C504 1.387 . S
H506 C518 0.930 . S
H507 C520 0.930 . S
H508 C521 0.930 . S
H509 C525 0.959 . S
H510 C525 0.959 . S
H511 C525 0.961 . S
H512 C526 0.960 . S
H513 C526 0.961 . S
H514 C526 0.959 . S
H515 C529 0.929 . S
H516 C530 0.931 . S
H517 C532 0.930 . S
C518 H506 0.930 . S
C518 C519 1.399 . S
C518 C523 1.399 . S
C519 C518 1.399 . S
C519 C520 1.376 . S
C520 H507 0.930 . S
C520 C519 1.376 . S
C520 C521 1.388 . S
C521 H508 0.930 . S
C521 C520 1.388 . S
C521 C522 1.390 . S
C522 C521 1.390 . S
C522 C523 1.394 . S
C522 C528 1.465 . S
C523 C518 1.399 . S
C523 C522 1.394 . S
C523 C524 1.516 . S
C524 C523 1.516 . S
C524 C525 1.502 . S
C524 C526 1.561 . S
C524 C527 1.526 . S
C525 H509 0.959 . S
C525 H510 0.959 . S
C525 H511 0.961 . S
C525 C524 1.502 . S
C526 H512 0.960 . S
C526 H513 0.961 . S
C526 H514 0.959 . S
C526 C524 1.561 . S
C527 C524 1.526 . S
C527 C528 1.396 . S
C527 C532 1.390 . S
C528 C522 1.465 . S
C528 C527 1.396 . S
C528 C529 1.399 . S
C529 H515 0.929 . S
C529 C528 1.399 . S
C529 C530 1.385 . S
C530 H516 0.931 . S
C530 C529 1.385 . S
C530 C531 1.389 . S
C531 C530 1.389 . S
C531 C532 1.387 . S
C532 H517 0.930 . S
C532 C527 1.390 . S
C532 C531 1.387 . S
H533 C545 0.930 . S
H534 C547 0.930 . S
H535 C548 0.930 . S
H536 C552 0.959 . S
H537 C552 0.959 . S
H538 C552 0.961 . S
H539 C553 0.960 . S
H540 C553 0.961 . S
H541 C553 0.959 . S
H542 C556 0.929 . S
H543 C557 0.931 . S
H544 C559 0.930 . S
C545 H533 0.930 . S
C545 C546 1.399 . S
C545 C550 1.399 . S
C546 C545 1.399 . S
C546 C547 1.376 . S
C547 H534 0.930 . S
C547 C546 1.376 . S
C547 C548 1.388 . S
C548 H535 0.930 . S
C548 C547 1.388 . S
C548 C549 1.390 . S
C549 C548 1.390 . S
C549 C550 1.394 . S
C549 C555 1.465 . S
C550 C545 1.399 . S
C550 C549 1.394 . S
C550 C551 1.516 . S
C551 C550 1.516 . S
C551 C552 1.502 . S
C551 C553 1.561 . S
C551 C554 1.526 . S
C552 H536 0.959 . S
C552 H537 0.959 . S
C552 H538 0.961 . S
C552 C551 1.502 . S
C553 H539 0.960 . S
C553 H540 0.961 . S
C553 H541 0.959 . S
C553 C551 1.561 . S
C554 C551 1.526 . S
C554 C555 1.396 . S
C554 C559 1.390 . S
C555 C549 1.465 . S
C555 C554 1.396 . S
C555 C556 1.399 . S
C556 H542 0.929 . S
C556 C555 1.399 . S
C556 C557 1.385 . S
C557 H543 0.931 . S
C557 C556 1.385 . S
C557 C558 1.389 . S
C558 C557 1.389 . S
C558 C559 1.387 . S
C559 H544 0.930 . S
C559 C554 1.390 . S
C559 C558 1.387 . S
H560 C572 0.930 . S
H561 C574 0.930 . S
H562 C575 0.930 . S
H563 C579 0.959 . S
H564 C579 0.959 . S
H565 C579 0.961 . S
H566 C580 0.960 . S
H567 C580 0.961 . S
H568 C580 0.959 . S
H569 C583 0.929 . S
H570 C584 0.931 . S
H571 C586 0.930 . S
C572 H560 0.930 . S
C572 C573 1.399 . S
C572 C577 1.399 . S
C573 C572 1.399 . S
C573 C574 1.376 . S
C574 H561 0.930 . S
C574 C573 1.376 . S
C574 C575 1.388 . S
C575 H562 0.930 . S
C575 C574 1.388 . S
C575 C576 1.390 . S
C576 C575 1.390 . S
C576 C577 1.394 . S
C576 C582 1.465 . S
C577 C572 1.399 . S
C577 C576 1.394 . S
C577 C578 1.516 . S
C578 C577 1.516 . S
C578 C579 1.502 . S
C578 C580 1.561 . S
C578 C581 1.526 . S
C579 H563 0.959 . S
C579 H564 0.959 . S
C579 H565 0.961 . S
C579 C578 1.502 . S
C580 H566 0.960 . S
C580 H567 0.961 . S
C580 H568 0.959 . S
C580 C578 1.561 . S
C581 C578 1.526 . S
C581 C582 1.396 . S
C581 C586 1.390 . S
C582 C576 1.465 . S
C582 C581 1.396 . S
C582 C583 1.399 . S
C583 H569 0.929 . S
C583 C582 1.399 . S
C583 C584 1.385 . S
C584 H570 0.931 . S
C584 C583 1.385 . S
C584 C585 1.389 . S
C585 C584 1.389 . S
C585 C586 1.387 . S
C586 H571 0.930 . S
C586 C581 1.390 . S
C586 C585 1.387 . S
H587 C599 0.930 . S
H588 C601 0.930 . S
H589 C602 0.930 . S
H590 C606 0.959 . S
H591 C606 0.959 . S
H592 C606 0.961 . S
H593 C607 0.960 . S
H594 C607 0.961 . S
H595 C607 0.959 . S
H596 C610 0.929 . S
H597 C611 0.931 . S
H598 C613 0.930 . S
C599 H587 0.930 . S
C599 C600 1.399 . S
C599 C604 1.399 . S
C600 C599 1.399 . S
C600 C601 1.376 . S
C601 H588 0.930 . S
C601 C600 1.376 . S
C601 C602 1.388 . S
C602 H589 0.930 . S
C602 C601 1.388 . S
C602 C603 1.390 . S
C603 C602 1.390 . S
C603 C604 1.394 . S
C603 C609 1.465 . S
C604 C599 1.399 . S
C604 C603 1.394 . S
C604 C605 1.516 . S
C605 C604 1.516 . S
C605 C606 1.502 . S
C605 C607 1.561 . S
C605 C608 1.526 . S
C606 H590 0.959 . S
C606 H591 0.959 . S
C606 H592 0.961 . S
C606 C605 1.502 . S
C607 H593 0.960 . S
C607 H594 0.961 . S
C607 H595 0.959 . S
C607 C605 1.561 . S
C608 C605 1.526 . S
C608 C609 1.396 . S
C608 C613 1.390 . S
C609 C603 1.465 . S
C609 C608 1.396 . S
C609 C610 1.399 . S
C610 H596 0.929 . S
C610 C609 1.399 . S
C610 C611 1.385 . S
C611 H597 0.931 . S
C611 C610 1.385 . S
C611 C612 1.389 . S
C612 C611 1.389 . S
C612 C613 1.387 . S
C613 H598 0.930 . S
C613 C608 1.390 . S
C613 C612 1.387 . S
H614 C626 0.930 . S
H615 C628 0.930 . S
H616 C629 0.930 . S
H617 C633 0.959 . S
H618 C633 0.959 . S
H619 C633 0.961 . S
H620 C634 0.960 . S
H621 C634 0.961 . S
H622 C634 0.959 . S
H623 C637 0.929 . S
H624 C638 0.931 . S
H625 C640 0.930 . S
C626 H614 0.930 . S
C626 C627 1.399 . S
C626 C631 1.399 . S
C627 C626 1.399 . S
C627 C628 1.376 . S
C628 H615 0.930 . S
C628 C627 1.376 . S
C628 C629 1.388 . S
C629 H616 0.930 . S
C629 C628 1.388 . S
C629 C630 1.390 . S
C630 C629 1.390 . S
C630 C631 1.394 . S
C630 C636 1.465 . S
C631 C626 1.399 . S
C631 C630 1.394 . S
C631 C632 1.516 . S
C632 C631 1.516 . S
C632 C633 1.502 . S
C632 C634 1.561 . S
C632 C635 1.526 . S
C633 H617 0.959 . S
C633 H618 0.959 . S
C633 H619 0.961 . S
C633 C632 1.502 . S
C634 H620 0.960 . S
C634 H621 0.961 . S
C634 H622 0.959 . S
C634 C632 1.561 . S
C635 C632 1.526 . S
C635 C636 1.396 . S
C635 C640 1.390 . S
C636 C630 1.465 . S
C636 C635 1.396 . S
C636 C637 1.399 . S
C637 H623 0.929 . S
C637 C636 1.399 . S
C637 C638 1.385 . S
C638 H624 0.931 . S
C638 C637 1.385 . S
C638 C639 1.389 . S
C639 C638 1.389 . S
C639 C640 1.387 . S
C640 H625 0.930 . S
C640 C635 1.390 . S
C640 C639 1.387 . S
H641 C653 0.930 . S
H642 C655 0.930 . S
H643 C656 0.930 . S
H644 C660 0.959 . S
H645 C660 0.959 . S
H646 C660 0.961 . S
H647 C661 0.960 . S
H648 C661 0.961 . S
H649 C661 0.959 . S
H650 C664 0.929 . S
H651 C665 0.931 . S
H652 C667 0.930 . S
C653 H641 0.930 . S
C653 C654 1.399 . S
C653 C658 1.399 . S
C654 C653 1.399 . S
C654 C655 1.376 . S
C655 H642 0.930 . S
C655 C654 1.376 . S
C655 C656 1.388 . S
C656 H643 0.930 . S
C656 C655 1.388 . S
C656 C657 1.390 . S
C657 C656 1.390 . S
C657 C658 1.394 . S
C657 C663 1.465 . S
C658 C653 1.399 . S
C658 C657 1.394 . S
C658 C659 1.516 . S
C659 C658 1.516 . S
C659 C660 1.502 . S
C659 C661 1.561 . S
C659 C662 1.526 . S
C660 H644 0.959 . S
C660 H645 0.959 . S
C660 H646 0.961 . S
C660 C659 1.502 . S
C661 H647 0.960 . S
C661 H648 0.961 . S
C661 H649 0.959 . S
C661 C659 1.561 . S
C662 C659 1.526 . S
C662 C663 1.396 . S
C662 C667 1.390 . S
C663 C657 1.465 . S
C663 C662 1.396 . S
C663 C664 1.399 . S
C664 H650 0.929 . S
C664 C663 1.399 . S
C664 C665 1.385 . S
C665 H651 0.931 . S
C665 C664 1.385 . S
C665 C666 1.389 . S
C666 C665 1.389 . S
C666 C667 1.387 . S
C667 H652 0.930 . S
C667 C662 1.390 . S
C667 C666 1.387 . S
H668 C680 0.930 . S
H669 C682 0.930 . S
H670 C683 0.930 . S
H671 C687 0.959 . S
H672 C687 0.959 . S
H673 C687 0.961 . S
H674 C688 0.960 . S
H675 C688 0.961 . S
H676 C688 0.959 . S
H677 C691 0.929 . S
H678 C692 0.931 . S
H679 C694 0.930 . S
C680 H668 0.930 . S
C680 C681 1.379 1_545 S
C680 C685 1.399 . S
C681 C680 1.379 1_565 S
C681 C682 1.379 . S
C682 H669 0.930 . S
C682 C681 1.379 . S
C682 C683 1.388 1_565 S
C683 H670 0.930 . S
C683 C682 1.388 1_545 S
C683 C684 1.390 . S
C684 C683 1.390 . S
C684 C685 1.394 . S
C684 C690 1.465 . S
C685 C680 1.399 . S
C685 C684 1.394 . S
C685 C686 1.516 . S
C686 C685 1.516 . S
C686 C687 1.502 . S
C686 C688 1.561 . S
C686 C689 1.526 . S
C687 H671 0.959 . S
C687 H672 0.959 . S
C687 H673 0.961 . S
C687 C686 1.502 . S
C688 H674 0.960 . S
C688 H675 0.961 . S
C688 H676 0.959 . S
C688 C686 1.561 . S
C689 C686 1.526 . S
C689 C690 1.396 . S
C689 C694 1.390 . S
C690 C684 1.465 . S
C690 C689 1.396 . S
C690 C691 1.399 . S
C691 H677 0.929 . S
C691 C690 1.399 . S
C691 C692 1.385 . S
C692 H678 0.931 . S
C692 C691 1.385 . S
C692 C693 1.389 . S
C693 C692 1.389 . S
C693 C694 1.387 . S
C694 H679 0.930 . S
C694 C689 1.390 . S
C694 C693 1.387 . S
H695 C707 0.930 1_545 S
H696 C709 0.930 . S
H697 C710 0.930 . S
H698 C714 0.959 . S
H699 C714 0.959 . S
H700 C714 0.961 . S
H701 C715 0.928 1_545 S
H702 C715 0.963 . S
H703 C715 0.964 . S
H704 C718 0.929 . S
H705 C719 0.931 . S
H706 C721 0.930 . S
C707 H695 0.930 1_565 S
C707 C708 1.399 . S
C707 C712 1.399 . S
C708 C707 1.399 . S
C708 C709 1.376 . S
C709 H696 0.930 . S
C709 C708 1.376 . S
C709 C710 1.388 . S
C710 H697 0.930 . S
C710 C709 1.388 . S
C710 C711 1.390 . S
C711 C710 1.390 . S
C711 C712 1.394 . S
C711 C717 1.465 . S
C712 C707 1.399 . S
C712 C711 1.394 . S
C712 C713 1.516 . S
C713 C712 1.516 . S
C713 C714 1.502 . S
C713 C715 1.586 . S
C713 C716 1.526 . S
C714 H698 0.959 . S
C714 H699 0.959 . S
C714 H700 0.961 . S
C714 C713 1.502 . S
C715 H701 0.928 1_565 S
C715 H702 0.963 . S
C715 H703 0.964 . S
C715 C713 1.586 . S
C716 C713 1.526 . S
C716 C717 1.396 . S
C716 C721 1.390 . S
C717 C711 1.465 . S
C717 C716 1.396 . S
C717 C718 1.399 . S
C718 H704 0.929 . S
C718 C717 1.399 . S
C718 C719 1.385 . S
C719 H705 0.931 . S
C719 C718 1.385 . S
C719 C720 1.389 . S
C720 C719 1.389 . S
C720 C721 1.387 . S
C721 H706 0.930 . S
C721 C716 1.390 . S
C721 C720 1.387 . S
H722 C734 0.930 1_565 S
H723 C736 0.930 . S
H724 C737 0.930 . S
H725 C741 0.959 . S
H726 C741 0.959 . S
H727 C741 0.961 1_565 S
H728 C742 0.960 . S
H729 C742 0.961 . S
H730 C742 0.959 . S
H731 C745 0.929 . S
H732 C746 0.931 . S
H733 C748 0.930 . S
C734 H722 0.930 1_545 S
C734 C735 1.399 . S
C734 C739 1.399 . S
C735 C734 1.399 . S
C735 C736 1.376 . S
C736 H723 0.930 . S
C736 C735 1.376 . S
C736 C737 1.388 . S
C737 H724 0.930 . S
C737 C736 1.388 . S
C737 C738 1.390 . S
C738 C737 1.390 . S
C738 C739 1.394 . S
C738 C744 1.465 . S
C739 C734 1.399 . S
C739 C738 1.394 . S
C739 C740 1.516 . S
C740 C739 1.516 . S
C740 C741 1.502 . S
C740 C742 1.561 . S
C740 C743 1.526 . S
C741 H725 0.959 . S
C741 H726 0.959 . S
C741 H727 0.961 1_545 S
C741 C740 1.502 . S
C742 H728 0.960 . S
C742 H729 0.961 . S
C742 H730 0.959 . S
C742 C740 1.561 . S
C743 C740 1.526 . S
C743 C744 1.396 . S
C743 C748 1.390 . S
C744 C738 1.465 . S
C744 C743 1.396 . S
C744 C745 1.399 . S
C745 H731 0.929 . S
C745 C744 1.399 . S
C745 C746 1.385 . S
C746 H732 0.931 . S
C746 C745 1.385 . S
C746 C747 1.389 . S
C747 C746 1.389 . S
C747 C748 1.387 . S
C748 H733 0.930 . S
C748 C743 1.390 . S
C748 C747 1.387 . S
H749 C761 0.930 1_545 S
H750 C763 0.930 . S
H751 C764 0.930 . S
H752 C768 0.959 . S
H753 C768 0.959 . S
H754 C768 0.961 . S
H755 C769 0.960 1_545 S
H756 C769 0.961 . S
H757 C769 0.959 . S
H758 C772 0.929 . S
H759 C773 0.931 . S
H760 C775 0.930 . S
C761 H749 0.930 1_565 S
C761 C762 1.399 . S
C761 C766 1.399 . S
C762 C761 1.399 . S
C762 C763 1.376 . S
C763 H750 0.930 . S
C763 C762 1.376 . S
C763 C764 1.388 . S
C764 H751 0.930 . S
C764 C763 1.388 . S
C764 C765 1.390 . S
C765 C764 1.390 . S
C765 C766 1.394 . S
C765 C771 1.465 . S
C766 C761 1.399 . S
C766 C765 1.394 . S
C766 C767 1.516 . S
C767 C766 1.516 . S
C767 C768 1.502 . S
C767 C769 1.561 . S
C767 C770 1.526 . S
C768 H752 0.959 . S
C768 H753 0.959 . S
C768 H754 0.961 . S
C768 C767 1.502 . S
C769 H755 0.960 1_565 S
C769 H756 0.961 . S
C769 H757 0.959 . S
C769 C767 1.561 . S
C770 C767 1.526 . S
C770 C771 1.396 . S
C770 C775 1.390 . S
C771 C765 1.465 . S
C771 C770 1.396 . S
C771 C772 1.399 . S
C772 H758 0.929 . S
C772 C771 1.399 . S
C772 C773 1.385 . S
C773 H759 0.931 . S
C773 C772 1.385 . S
C773 C774 1.389 . S
C774 C773 1.389 . S
C774 C775 1.387 . S
C775 H760 0.930 . S
C775 C770 1.390 . S
C775 C774 1.387 . S
H776 C788 0.930 . S
H777 C790 0.930 . S
H778 C791 0.930 . S
H779 C795 0.959 . S
H780 C795 0.959 . S
H781 C795 0.961 . S
H782 C796 0.960 . S
H783 C796 0.961 . S
H784 C796 0.959 . S
H785 C799 0.929 . S
H786 C800 0.931 . S
H787 C802 0.930 . S
C788 H776 0.930 . S
C788 C789 1.399 . S
C788 C793 1.399 . S
C789 C788 1.399 . S
C789 C790 1.376 . S
C790 H777 0.930 . S
C790 C789 1.376 . S
C790 C791 1.388 . S
C791 H778 0.930 . S
C791 C790 1.388 . S
C791 C792 1.390 . S
C792 C791 1.390 . S
C792 C793 1.394 . S
C792 C798 1.465 . S
C793 C788 1.399 . S
C793 C792 1.394 . S
C793 C794 1.516 . S
C794 C793 1.516 . S
C794 C795 1.502 . S
C794 C796 1.561 . S
C794 C797 1.526 . S
C795 H779 0.959 . S
C795 H780 0.959 . S
C795 H781 0.961 . S
C795 C794 1.502 . S
C796 H782 0.960 . S
C796 H783 0.961 . S
C796 H784 0.959 . S
C796 C794 1.561 . S
C797 C794 1.526 . S
C797 C798 1.396 . S
C797 C802 1.390 . S
C798 C792 1.465 . S
C798 C797 1.396 . S
C798 C799 1.399 . S
C799 H785 0.929 . S
C799 C798 1.399 . S
C799 C800 1.385 . S
C800 H786 0.931 . S
C800 C799 1.385 . S
C800 C801 1.389 . S
C801 C800 1.389 . S
C801 C802 1.387 . S
C802 H787 0.930 . S
C802 C797 1.390 . S
C802 C801 1.387 . S
H803 C815 0.930 . S
H804 C817 0.930 . S
H805 C818 0.930 . S
H806 C822 0.959 . S
H807 C822 0.959 . S
H808 C822 0.961 . S
H809 C823 0.960 . S
H810 C823 0.961 . S
H811 C823 0.959 . S
H812 C826 0.929 . S
H813 C827 0.931 . S
H814 C829 0.930 . S
C815 H803 0.930 . S
C815 C816 1.399 . S
C815 C820 1.399 . S
C816 C815 1.399 . S
C816 C817 1.376 . S
C817 H804 0.930 . S
C817 C816 1.376 . S
C817 C818 1.388 . S
C818 H805 0.930 . S
C818 C817 1.388 . S
C818 C819 1.390 . S
C819 C818 1.390 . S
C819 C820 1.394 . S
C819 C825 1.465 . S
C820 C815 1.399 . S
C820 C819 1.394 . S
C820 C821 1.516 . S
C821 C820 1.516 . S
C821 C822 1.502 . S
C821 C823 1.561 . S
C821 C824 1.526 . S
C822 H806 0.959 . S
C822 H807 0.959 . S
C822 H808 0.961 . S
C822 C821 1.502 . S
C823 H809 0.960 . S
C823 H810 0.961 . S
C823 H811 0.959 . S
C823 C821 1.561 . S
C824 C821 1.526 . S
C824 C825 1.396 . S
C824 C829 1.390 . S
C825 C819 1.465 . S
C825 C824 1.396 . S
C825 C826 1.399 . S
C826 H812 0.929 . S
C826 C825 1.399 . S
C826 C827 1.385 . S
C827 H813 0.931 . S
C827 C826 1.385 . S
C827 C828 1.389 . S
C828 C827 1.389 . S
C828 C829 1.387 . S
C829 H814 0.930 . S
C829 C824 1.390 . S
C829 C828 1.387 . S
H830 C842 0.930 . S
H831 C844 0.930 . S
H832 C845 0.930 . S
H833 C849 0.959 . S
H834 C849 0.959 . S
H835 C849 0.961 . S
H836 C850 0.960 . S
H837 C850 0.961 . S
H838 C850 0.959 . S
H839 C853 0.929 . S
H840 C854 0.931 . S
H841 C856 0.930 . S
C842 H830 0.930 . S
C842 C843 1.399 . S
C842 C847 1.399 . S
C843 C842 1.399 . S
C843 C844 1.376 . S
C844 H831 0.930 . S
C844 C843 1.376 . S
C844 C845 1.388 . S
C845 H832 0.930 . S
C845 C844 1.388 . S
C845 C846 1.390 . S
C846 C845 1.390 . S
C846 C847 1.394 . S
C846 C852 1.465 . S
C847 C842 1.399 . S
C847 C846 1.394 . S
C847 C848 1.516 . S
C848 C847 1.516 . S
C848 C849 1.502 . S
C848 C850 1.561 . S
C848 C851 1.526 . S
C849 H833 0.959 . S
C849 H834 0.959 . S
C849 H835 0.961 . S
C849 C848 1.502 . S
C850 H836 0.960 . S
C850 H837 0.961 . S
C850 H838 0.959 . S
C850 C848 1.561 . S
C851 C848 1.526 . S
C851 C852 1.396 . S
C851 C856 1.390 . S
C852 C846 1.465 . S
C852 C851 1.396 . S
C852 C853 1.399 . S
C853 H839 0.929 . S
C853 C852 1.399 . S
C853 C854 1.385 . S
C854 H840 0.931 . S
C854 C853 1.385 . S
C854 C855 1.389 . S
C855 C854 1.389 . S
C855 C856 1.387 . S
C856 H841 0.930 . S
C856 C851 1.390 . S
C856 C855 1.387 . S
H857 C869 0.930 . S
H858 C871 0.930 . S
H859 C872 0.930 . S
H860 C876 0.959 . S
H861 C876 0.959 . S
H862 C876 0.961 . S
H863 C877 0.960 . S
H864 C877 0.961 . S
H865 C877 0.959 . S
H866 C880 0.929 . S
H867 C881 0.931 . S
H868 C883 0.930 . S
C869 H857 0.930 . S
C869 C870 1.399 . S
C869 C874 1.399 . S
C870 C869 1.399 . S
C870 C871 1.376 . S
C871 H858 0.930 . S
C871 C870 1.376 . S
C871 C872 1.388 . S
C872 H859 0.930 . S
C872 C871 1.388 . S
C872 C873 1.390 . S
C873 C872 1.390 . S
C873 C874 1.394 . S
C873 C879 1.465 . S
C874 C869 1.399 . S
C874 C873 1.394 . S
C874 C875 1.516 . S
C875 C874 1.516 . S
C875 C876 1.502 . S
C875 C877 1.561 . S
C875 C878 1.526 . S
C876 H860 0.959 . S
C876 H861 0.959 . S
C876 H862 0.961 . S
C876 C875 1.502 . S
C877 H863 0.960 . S
C877 H864 0.961 . S
C877 H865 0.959 . S
C877 C875 1.561 . S
C878 C875 1.526 . S
C878 C879 1.396 . S
C878 C883 1.390 . S
C879 C873 1.465 . S
C879 C878 1.396 . S
C879 C880 1.399 . S
C880 H866 0.929 . S
C880 C879 1.399 . S
C880 C881 1.385 . S
C881 H867 0.931 . S
C881 C880 1.385 . S
C881 C882 1.389 . S
C882 C881 1.389 . S
C882 C883 1.387 . S
C883 H868 0.930 . S
C883 C878 1.390 . S
C883 C882 1.387 . S
H884 C896 0.930 . S
H885 C898 0.930 . S
H886 C899 0.930 . S
H887 C903 0.959 . S
H888 C903 0.959 . S
H889 C903 0.961 . S
H890 C904 0.960 . S
H891 C904 0.961 . S
H892 C904 0.959 . S
H893 C907 0.929 . S
H894 C908 0.931 . S
H895 C910 0.930 . S
C896 H884 0.930 . S
C896 C897 1.399 . S
C896 C901 1.399 . S
C897 C896 1.399 . S
C897 C898 1.376 . S
C898 H885 0.930 . S
C898 C897 1.376 . S
C898 C899 1.388 . S
C899 H886 0.930 . S
C899 C898 1.388 . S
C899 C900 1.390 . S
C900 C899 1.390 . S
C900 C901 1.394 . S
C900 C906 1.465 . S
C901 C896 1.399 . S
C901 C900 1.394 . S
C901 C902 1.516 . S
C902 C901 1.516 . S
C902 C903 1.502 . S
C902 C904 1.561 . S
C902 C905 1.526 . S
C903 H887 0.959 . S
C903 H888 0.959 . S
C903 H889 0.961 . S
C903 C902 1.502 . S
C904 H890 0.960 . S
C904 H891 0.961 . S
C904 H892 0.959 . S
C904 C902 1.561 . S
C905 C902 1.526 . S
C905 C906 1.396 . S
C905 C910 1.390 . S
C906 C900 1.465 . S
C906 C905 1.396 . S
C906 C907 1.399 . S
C907 H893 0.929 . S
C907 C906 1.399 . S
C907 C908 1.385 . S
C908 H894 0.931 . S
C908 C907 1.385 . S
C908 C909 1.389 . S
C909 C908 1.389 . S
C909 C910 1.387 . S
C910 H895 0.930 . S
C910 C905 1.390 . S
C910 C909 1.387 . S
H911 C923 0.930 . S
H912 C925 0.930 . S
H913 C926 0.930 . S
H914 C930 0.959 . S
H915 C930 0.959 . S
H916 C930 0.961 . S
H917 C931 0.960 . S
H918 C931 0.961 . S
H919 C931 0.959 . S
H920 C934 0.929 . S
H921 C935 0.931 . S
H922 C937 0.930 . S
C923 H911 0.930 . S
C923 C924 1.399 . S
C923 C928 1.399 . S
C924 C923 1.399 . S
C924 C925 1.376 . S
C925 H912 0.930 . S
C925 C924 1.376 . S
C925 C926 1.388 . S
C926 H913 0.930 . S
C926 C925 1.388 . S
C926 C927 1.390 . S
C927 C926 1.390 . S
C927 C928 1.394 . S
C927 C933 1.465 . S
C928 C923 1.399 . S
C928 C927 1.394 . S
C928 C929 1.516 . S
C929 C928 1.516 . S
C929 C930 1.502 . S
C929 C931 1.561 . S
C929 C932 1.526 . S
C930 H914 0.959 . S
C930 H915 0.959 . S
C930 H916 0.961 . S
C930 C929 1.502 . S
C931 H917 0.960 . S
C931 H918 0.961 . S
C931 H919 0.959 . S
C931 C929 1.561 . S
C932 C929 1.526 . S
C932 C933 1.396 . S
C932 C937 1.390 . S
C933 C927 1.465 . S
C933 C932 1.396 . S
C933 C934 1.399 . S
C934 H920 0.929 . S
C934 C933 1.399 . S
C934 C935 1.385 . S
C935 H921 0.931 . S
C935 C934 1.385 . S
C935 C936 1.389 . S
C936 C935 1.389 . S
C936 C937 1.387 . S
C937 H922 0.930 . S
C937 C932 1.390 . S
C937 C936 1.387 . S
H938 C950 0.930 . S
H939 C952 0.930 . S
H940 C953 0.930 . S
H941 C957 0.959 . S
H942 C957 0.959 . S
H943 C957 0.961 . S
H944 C958 0.960 . S
H945 C958 0.961 . S
H946 C958 0.959 . S
H947 C961 0.929 . S
H948 C962 0.931 . S
H949 C964 0.930 . S
C950 H938 0.930 . S
C950 C951 1.399 . S
C950 C955 1.399 . S
C951 C950 1.399 . S
C951 C952 1.376 . S
C952 H939 0.930 . S
C952 C951 1.376 . S
C952 C953 1.388 . S
C953 H940 0.930 . S
C953 C952 1.388 . S
C953 C954 1.390 . S
C954 C953 1.390 . S
C954 C955 1.394 . S
C954 C960 1.465 . S
C955 C950 1.399 . S
C955 C954 1.394 . S
C955 C956 1.516 . S
C956 C955 1.516 . S
C956 C957 1.502 . S
C956 C958 1.561 . S
C956 C959 1.526 . S
C957 H941 0.959 . S
C957 H942 0.959 . S
C957 H943 0.961 . S
C957 C956 1.502 . S
C958 H944 0.960 . S
C958 H945 0.961 . S
C958 H946 0.959 . S
C958 C956 1.561 . S
C959 C956 1.526 . S
C959 C960 1.396 . S
C959 C964 1.390 . S
C960 C954 1.465 . S
C960 C959 1.396 . S
C960 C961 1.399 . S
C961 H947 0.929 . S
C961 C960 1.399 . S
C961 C962 1.385 . S
C962 H948 0.931 . S
C962 C961 1.385 . S
C962 C963 1.389 . S
C963 C962 1.389 . S
C963 C964 1.387 . S
C964 H949 0.930 . S
C964 C959 1.390 . S
C964 C963 1.387 . S
H965 C977 0.930 . S
H966 C979 0.930 . S
H967 C980 0.930 . S
H968 C984 0.959 . S
H969 C984 0.959 . S
H970 C984 0.961 . S
H971 C985 0.960 . S
H972 C985 0.961 . S
H973 C985 0.959 . S
H974 C988 0.929 . S
H975 C989 0.931 . S
H976 C991 0.930 . S
C977 H965 0.930 . S
C977 C978 1.399 . S
C977 C982 1.399 . S
C978 C977 1.399 . S
C978 C979 1.376 . S
C979 H966 0.930 . S
C979 C978 1.376 . S
C979 C980 1.388 . S
C980 H967 0.930 . S
C980 C979 1.388 . S
C980 C981 1.390 . S
C981 C980 1.390 . S
C981 C982 1.394 . S
C981 C987 1.465 . S
C982 C977 1.399 . S
C982 C981 1.394 . S
C982 C983 1.516 . S
C983 C982 1.516 . S
C983 C984 1.502 . S
C983 C985 1.561 . S
C983 C986 1.526 . S
C984 H968 0.959 . S
C984 H969 0.959 . S
C984 H970 0.961 . S
C984 C983 1.502 . S
C985 H971 0.960 . S
C985 H972 0.961 . S
C985 H973 0.959 . S
C985 C983 1.561 . S
C986 C983 1.526 . S
C986 C987 1.396 . S
C986 C991 1.390 . S
C987 C981 1.465 . S
C987 C986 1.396 . S
C987 C988 1.399 . S
C988 H974 0.929 . S
C988 C987 1.399 . S
C988 C989 1.385 . S
C989 H975 0.931 . S
C989 C988 1.385 . S
C989 C990 1.389 . S
C990 C989 1.389 . S
C990 C991 1.387 . S
C991 H976 0.930 . S
C991 C986 1.390 . S
C991 C990 1.387 . S
C357 C23 1.480 . S
C369 C282 1.511 . S
C396 C260 1.499 . S
C384 C55 1.525 . S
C423 C286 1.546 . S
C411 C87 1.569 . S
C450 C264 1.489 . S
C438 C119 1.418 . S
C477 C326 1.498 . S
C465 C151 1.532 . S
C504 C304 1.484 . S
C492 C183 1.524 . S
C519 C215 1.570 . S
C531 C330 1.554 . S
C558 C308 1.504 . S
C546 C247 1.402 . S
C573 C29 1.524 . S
C585 C331 1.554 . S
C612 C309 1.475 . S
C600 C49 1.501 . S
C627 C93 1.547 . S
C639 C328 1.536 . S
C654 C113 1.457 . S
C666 C306 1.487 . S
C693 C287 1.556 . S
C681 C157 1.494 . S
C708 C177 1.494 1_565 S
C720 C265 1.497 . S
C747 C284 1.571 . S
C735 C221 1.546 1_545 S
C774 C262 1.473 . S
C762 C241 1.432 1_565 S
C801 C305 1.500 . S
C789 C17 1.479 . S
C828 C327 1.473 . S
C816 C61 1.495 . S
C843 C81 1.498 . S
C855 C307 1.482 . S
C882 C329 1.501 . S
C870 C125 1.470 . S
C909 C261 1.469 . S
C897 C145 1.428 . S
C924 C189 1.491 . S
C936 C283 1.484 . S
C951 C209 1.504 . S
C963 C263 1.496 . S
C978 C253 1.373 . S
C990 C285 1.488 . S
