# Generated by pormake.
# Topology pyr, (3,6)-cn, num edge types: 1
# Building blocks:
#     Node 0, Type 0, BuildingBlock: BELTOD_clean_linker_0, # of connection points: 3
#     Node 1, Type 0, BuildingBlock: BELTOD_clean_linker_0, # of connection points: 3
#     Node 2, Type 0, BuildingBlock: BELTOD_clean_linker_0, # of connection points: 3
#     Node 3, Type 0, BuildingBlock: BELTOD_clean_linker_0, # of connection points: 3
#     Node 4, Type 0, BuildingBlock: BELTOD_clean_linker_0, # of connection points: 3
#     Node 5, Type 0, BuildingBlock: BELTOD_clean_linker_0, # of connection points: 3
#     Node 6, Type 0, BuildingBlock: BELTOD_clean_linker_0, # of connection points: 3
#     Node 7, Type 0, BuildingBlock: BELTOD_clean_linker_0, # of connection points: 3
#     Node 8, Type 1, BuildingBlock: MIDCAF_clean_sbu_0, # of connection points: 6
#     Node 9, Type 1, BuildingBlock: MIDCAF_clean_sbu_0, # of connection points: 6
#     Node 10, Type 1, BuildingBlock: MIDCAF_clean_sbu_0, # of connection points: 6
#     Node 11, Type 1, BuildingBlock: MIDCAF_clean_sbu_0, # of connection points: 6
#     Edge 12, Type (0, 1), BuildingBlock: EZIPEK_clean_linker_0, # of connection points: 2
#     Edge 13, Type (0, 1), BuildingBlock: EZIPEK_clean_linker_0, # of connection points: 2
#     Edge 14, Type (0, 1), BuildingBlock: EZIPEK_clean_linker_0, # of connection points: 2
#     Edge 15, Type (0, 1), BuildingBlock: EZIPEK_clean_linker_0, # of connection points: 2
#     Edge 16, Type (0, 1), BuildingBlock: EZIPEK_clean_linker_0, # of connection points: 2
#     Edge 17, Type (0, 1), BuildingBlock: EZIPEK_clean_linker_0, # of connection points: 2
#     Edge 18, Type (0, 1), BuildingBlock: EZIPEK_clean_linker_0, # of connection points: 2
#     Edge 19, Type (0, 1), BuildingBlock: EZIPEK_clean_linker_0, # of connection points: 2
#     Edge 20, Type (0, 1), BuildingBlock: EZIPEK_clean_linker_0, # of connection points: 2
#     Edge 21, Type (0, 1), BuildingBlock: EZIPEK_clean_linker_0, # of connection points: 2
#     Edge 22, Type (0, 1), BuildingBlock: EZIPEK_clean_linker_0, # of connection points: 2
#     Edge 23, Type (0, 1), BuildingBlock: EZIPEK_clean_linker_0, # of connection points: 2
#     Edge 24, Type (0, 1), BuildingBlock: EZIPEK_clean_linker_0, # of connection points: 2
#     Edge 25, Type (0, 1), BuildingBlock: EZIPEK_clean_linker_0, # of connection points: 2
#     Edge 26, Type (0, 1), BuildingBlock: EZIPEK_clean_linker_0, # of connection points: 2
#     Edge 27, Type (0, 1), BuildingBlock: EZIPEK_clean_linker_0, # of connection points: 2
#     Edge 28, Type (0, 1), BuildingBlock: EZIPEK_clean_linker_0, # of connection points: 2
#     Edge 29, Type (0, 1), BuildingBlock: EZIPEK_clean_linker_0, # of connection points: 2
#     Edge 30, Type (0, 1), BuildingBlock: EZIPEK_clean_linker_0, # of connection points: 2
#     Edge 31, Type (0, 1), BuildingBlock: EZIPEK_clean_linker_0, # of connection points: 2
#     Edge 32, Type (0, 1), BuildingBlock: EZIPEK_clean_linker_0, # of connection points: 2
#     Edge 33, Type (0, 1), BuildingBlock: EZIPEK_clean_linker_0, # of connection points: 2
#     Edge 34, Type (0, 1), BuildingBlock: EZIPEK_clean_linker_0, # of connection points: 2
#     Edge 35, Type (0, 1), BuildingBlock: EZIPEK_clean_linker_0, # of connection points: 2
# Relax obj value: 0.020
# Max RMSD: 0.063
# Mean RMSD: 0.033
data_MOF--net-pry--node1-MIDCAF_clean_sbu_0--node2-BELTOD_clean_linker_0--edge1-EZIPEK_clean_linker_0
_symmetry_space_group_name_H-M    P1
_symmetry_Int_Tables_number       1
_symmetry_cell_setting            triclinic
loop_
_symmetry_equiv_pos_as_xyz
'x, y, z'
_cell_length_a     30.832072
_cell_length_b     31.145869
_cell_length_c     30.580966
_cell_angle_alpha  89.41258
_cell_angle_beta   90.023471
_cell_angle_gamma 90.396231
loop_
_atom_site_label
_atom_site_type_symbol
_atom_site_fract_x
_atom_site_fract_y
_atom_site_fract_z
_atom_type_partial_charge
P0 P 0.27041 0.27561 0.28225 0.0
H1 H 0.32561 0.30412 0.21035 0.0
H2 H 0.36933 0.266 0.15618 0.0
H3 H 0.33189 0.14504 0.21522 0.0
H4 H 0.28613 0.18252 0.26708 0.0
H5 H 0.26214 0.36981 0.28333 0.0
H6 H 0.21574 0.41982 0.24228 0.0
H7 H 0.15857 0.31336 0.17341 0.0
H8 H 0.20572 0.26343 0.21367 0.0
H9 H 0.29322 0.20664 0.3435 0.0
H10 H 0.17618 0.27024 0.30174 0.0
O11 O 0.3045 0.30314 0.31394 0.0
H12 H 0.24967 0.155 0.38619 0.0
H13 H 0.13302 0.22007 0.34609 0.0
C14 C 0.30263 0.24644 0.24317 0.0
C15 C 0.32668 0.26937 0.2116 0.0
C16 C 0.35185 0.2477 0.18089 0.0
C17 C 0.35416 0.20268 0.1819 0.0
C18 C 0.33082 0.17979 0.21407 0.0
C19 C 0.30476 0.20141 0.24397 0.0
C20 C 0.23704 0.31284 0.25179 0.0
C21 C 0.23979 0.35717 0.2593 0.0
C22 C 0.2134 0.38574 0.2359 0.0
C23 C 0.18346 0.37024 0.20513 0.0
C24 C 0.18131 0.32593 0.19716 0.0
C25 C 0.20808 0.2975 0.22013 0.0
C26 C 0.23801 0.24107 0.31762 0.0
C27 C 0.25824 0.20964 0.34359 0.0
C28 C 0.23346 0.18041 0.36826 0.0
C29 C 0.18801 0.18322 0.36877 0.0
C30 C 0.16799 0.21691 0.34564 0.0
C31 C 0.19274 0.24538 0.32 0.0
P32 P 0.31369 0.81571 0.74195 0.0
H33 H 0.36657 0.77512 0.80951 0.0
H34 H 0.39336 0.80916 0.8759 0.0
H35 H 0.29053 0.90186 0.86766 0.0
H36 H 0.26349 0.86785 0.80166 0.0
H37 H 0.36469 0.79358 0.66681 0.0
H38 H 0.39289 0.72595 0.64003 0.0
H39 H 0.32476 0.65715 0.74246 0.0
H40 H 0.29684 0.726 0.77027 0.0
H41 H 0.29522 0.87605 0.67173 0.0
H42 H 0.22275 0.78955 0.7558 0.0
O43 O 0.35171 0.85118 0.72653 0.0
H44 H 0.22834 0.89801 0.63578 0.0
H45 H 0.1549 0.81186 0.71911 0.0
C46 C 0.31324 0.81918 0.80037 0.0
C47 C 0.34776 0.80071 0.82367 0.0
C48 C 0.36321 0.8202 0.86162 0.0
C49 C 0.34437 0.85847 0.87586 0.0
C50 C 0.30544 0.87237 0.85697 0.0
C51 C 0.28996 0.8528 0.81918 0.0
C52 C 0.32993 0.76472 0.72129 0.0
C53 C 0.35577 0.7641 0.68373 0.0
C54 C 0.37166 0.72553 0.66829 0.0
C55 C 0.36146 0.68683 0.68976 0.0
C56 C 0.33333 0.68692 0.72591 0.0
C57 C 0.31759 0.72597 0.74171 0.0
C58 C 0.26374 0.83161 0.71679 0.0
C59 C 0.2649 0.86195 0.6827 0.0
C60 C 0.22679 0.87448 0.6621 0.0
C61 C 0.18698 0.85659 0.67498 0.0
C62 C 0.18553 0.82599 0.70899 0.0
C63 C 0.22399 0.81336 0.72976 0.0
P64 P 0.77573 0.28047 0.76772 0.0
H65 H 0.8668 0.27177 0.79373 0.0
H66 H 0.91308 0.31172 0.84466 0.0
H67 H 0.80651 0.39571 0.8735 0.0
H68 H 0.7607 0.35688 0.82172 0.0
H69 H 0.75195 0.18994 0.75692 0.0
H70 H 0.70384 0.14112 0.79795 0.0
H71 H 0.67368 0.24293 0.88716 0.0
H72 H 0.7226 0.29146 0.84701 0.0
H73 H 0.78443 0.30562 0.67545 0.0
H74 H 0.69767 0.3326 0.78227 0.0
O75 O 0.80759 0.25076 0.73608 0.0
H76 H 0.74347 0.3548 0.6281 0.0
H77 H 0.65812 0.38318 0.73549 0.0
C78 C 0.81019 0.31134 0.80364 0.0
C79 C 0.85342 0.29907 0.81055 0.0
C80 C 0.87986 0.32176 0.83964 0.0
C81 C 0.86311 0.35648 0.863 0.0
C82 C 0.82001 0.36897 0.85582 0.0
C83 C 0.79382 0.34668 0.82627 0.0
C84 C 0.74112 0.24445 0.79889 0.0
C85 C 0.73539 0.20178 0.78552 0.0
C86 C 0.70795 0.17387 0.80888 0.0
C87 C 0.68514 0.18847 0.8455 0.0
C88 C 0.69102 0.23106 0.85901 0.0
C89 C 0.71888 0.25879 0.83595 0.0
C90 C 0.74422 0.31533 0.73256 0.0
C91 C 0.75664 0.32198 0.68881 0.0
C92 C 0.73339 0.35013 0.66176 0.0
C93 C 0.69801 0.37294 0.67838 0.0
C94 C 0.68544 0.36605 0.72206 0.0
C95 C 0.70814 0.33725 0.74881 0.0
P96 P 0.75046 0.78312 0.25072 0.0
H97 H 0.75038 0.87339 0.27846 0.0
H98 H 0.80326 0.91659 0.31988 0.0
H99 H 0.88541 0.8058 0.33359 0.0
H100 H 0.83321 0.76289 0.29199 0.0
H101 H 0.74636 0.69108 0.22897 0.0
H102 H 0.79444 0.64557 0.18591 0.0
H103 H 0.87223 0.75623 0.15094 0.0
H104 H 0.82362 0.80215 0.19333 0.0
H105 H 0.76516 0.74435 0.33766 0.0
H106 H 0.66135 0.75062 0.24313 0.0
O107 O 0.71949 0.81536 0.2202 0.0
H108 H 0.71882 0.70202 0.3868 0.0
H109 H 0.61493 0.70758 0.29262 0.0
C110 C 0.78813 0.81508 0.28184 0.0
C111 C 0.77981 0.85846 0.29027 0.0
C112 C 0.80984 0.88306 0.31379 0.0
C113 C 0.8481 0.86422 0.32949 0.0
C114 C 0.85605 0.82076 0.32155 0.0
C115 C 0.82631 0.79639 0.29785 0.0
C116 C 0.78182 0.74992 0.21487 0.0
C117 C 0.77327 0.7058 0.2116 0.0
C118 C 0.80057 0.67984 0.18694 0.0
C119 C 0.83673 0.69768 0.16539 0.0
C120 C 0.84435 0.74204 0.16727 0.0
C121 C 0.81673 0.76807 0.1915 0.0
C122 C 0.71644 0.7516 0.28704 0.0
C123 C 0.73245 0.73691 0.32743 0.0
C124 C 0.70608 0.71255 0.35548 0.0
C125 C 0.66351 0.70199 0.34335 0.0
C126 C 0.64769 0.71566 0.30252 0.0
C127 C 0.67409 0.74029 0.27449 0.0
P128 P 0.92114 0.93059 0.92695 0.0
H129 H 0.87627 0.9835 0.991 0.0
H130 H 0.79943 0.00147 0.00081 0.0
H131 H 0.76764 0.93433 0.88235 0.0
H132 H 0.84423 0.9165 0.87234 0.0
H133 H 0.99673 0.87821 0.94412 0.0
H134 H 0.00574 0.80436 0.97115 0.0
H135 H 0.86749 0.79269 0.98923 0.0
H136 H 0.85827 0.86657 0.96217 0.0
H137 H 0.96001 0.9955 0.86939 0.0
H138 H 0.91551 0.86433 0.85955 0.0
O139 O 0.95365 0.96443 0.95366 0.0
H140 H 0.97336 0.9976 0.79025 0.0
H141 H 0.92841 0.86669 0.78031 0.0
C142 C 0.86605 0.94913 0.93067 0.0
C143 C 0.85298 0.97358 0.96654 0.0
C144 C 0.80927 0.984 0.97206 0.0
C145 C 0.77814 0.96965 0.94198 0.0
C146 C 0.79138 0.94625 0.90546 0.0
C147 C 0.83506 0.93599 0.89987 0.0
C148 C 0.92695 0.87791 0.9511 0.0
C149 C 0.9684 0.86005 0.95449 0.0
C150 C 0.97355 0.81807 0.97002 0.0
C151 C 0.93729 0.79333 0.98229 0.0
C152 C 0.89582 0.81152 0.98016 0.0
C153 C 0.89065 0.85361 0.96452 0.0
C154 C 0.93727 0.92963 0.87037 0.0
C155 C 0.95414 0.96687 0.85043 0.0
C156 C 0.96189 0.96805 0.8054 0.0
C157 C 0.95233 0.93214 0.77969 0.0
C158 C 0.93663 0.89444 0.7998 0.0
C159 C 0.92917 0.89319 0.84491 0.0
P160 P 0.70061 0.20867 0.34602 0.0
H161 H 0.7498 0.25328 0.41365 0.0
H162 H 0.72765 0.30544 0.46909 0.0
H163 H 0.59367 0.28415 0.43429 0.0
H164 H 0.6152 0.23037 0.38167 0.0
H165 H 0.73358 0.14027 0.2915 0.0
H166 H 0.78225 0.07968 0.30656 0.0
H167 H 0.78626 0.11465 0.44262 0.0
H168 H 0.73579 0.17303 0.42836 0.0
H169 H 0.64664 0.25829 0.28604 0.0
H170 H 0.65095 0.12846 0.33651 0.0
O171 O 0.73228 0.24087 0.31579 0.0
H172 H 0.59164 0.23631 0.23232 0.0
H173 H 0.59806 0.10621 0.28156 0.0
C174 C 0.68422 0.23842 0.39312 0.0
C175 C 0.71559 0.25878 0.41912 0.0
C176 C 0.70306 0.28847 0.45062 0.0
C177 C 0.65919 0.29937 0.45471 0.0
C178 C 0.62777 0.27655 0.43107 0.0
C179 C 0.64016 0.24601 0.40073 0.0
C180 C 0.73153 0.16149 0.35871 0.0
C181 C 0.74422 0.13427 0.32475 0.0
C182 C 0.77183 0.09979 0.33322 0.0
C183 C 0.7884 0.09345 0.37545 0.0
C184 C 0.77409 0.11946 0.40969 0.0
C185 C 0.74559 0.15309 0.40145 0.0
C186 C 0.65435 0.19445 0.31347 0.0
C187 C 0.63539 0.22527 0.28587 0.0
C188 C 0.60378 0.21294 0.25569 0.0
C189 C 0.59192 0.16951 0.25244 0.0
C190 C 0.60744 0.13975 0.28328 0.0
C191 C 0.63813 0.15232 0.31411 0.0
P192 P 0.4215 0.62716 0.10745 0.0
H193 H 0.38409 0.56529 0.04657 0.0
H194 H 0.31541 0.52898 0.04323 0.0
H195 H 0.27359 0.59771 0.15815 0.0
H196 H 0.34257 0.63374 0.16029 0.0
H197 H 0.4884 0.69239 0.10463 0.0
H198 H 0.48902 0.76827 0.08279 0.0
H199 H 0.35322 0.76009 0.04995 0.0
H200 H 0.3525 0.68369 0.07185 0.0
H201 H 0.47499 0.56395 0.15319 0.0
H202 H 0.40783 0.68081 0.18425 0.0
O203 O 0.45635 0.60167 0.07521 0.0
H204 H 0.49123 0.55259 0.23103 0.0
H205 H 0.42331 0.66889 0.26214 0.0
C206 C 0.36936 0.60076 0.10488 0.0
C207 C 0.36049 0.57126 0.07197 0.0
C208 C 0.32086 0.54924 0.07108 0.0
C209 C 0.28912 0.55479 0.10409 0.0
C210 C 0.29758 0.58747 0.13496 0.0
C211 C 0.33726 0.60951 0.13571 0.0
C212 C 0.42041 0.68258 0.09023 0.0
C213 C 0.45875 0.70679 0.09264 0.0
C214 C 0.45914 0.74995 0.08009 0.0
C215 C 0.42118 0.76961 0.06486 0.0
C216 C 0.38278 0.74532 0.06166 0.0
C217 C 0.38241 0.70189 0.0743 0.0
C218 C 0.44051 0.62338 0.16299 0.0
C219 C 0.46476 0.58772 0.17655 0.0
C220 C 0.47415 0.58129 0.22085 0.0
C221 C 0.45868 0.61008 0.25212 0.0
C222 C 0.43595 0.64667 0.23836 0.0
C223 C 0.42699 0.65332 0.19401 0.0
P224 P 0.18284 0.33927 0.70282 0.0
H225 H 0.19266 0.33135 0.60668 0.0
H226 H 0.16497 0.27747 0.55531 0.0
H227 H 0.09305 0.21658 0.66007 0.0
H228 H 0.12161 0.26929 0.71155 0.0
H229 H 0.26827 0.32927 0.66562 0.0
H230 H 0.32103 0.38019 0.63461 0.0
H231 H 0.23284 0.48446 0.6575 0.0
H232 H 0.17931 0.43324 0.68773 0.0
H233 H 0.18987 0.38619 0.78316 0.0
H234 H 0.08768 0.35127 0.69349 0.0
O235 O 0.21134 0.3081 0.73678 0.0
H236 H 0.13662 0.41998 0.83071 0.0
H237 H 0.03395 0.38405 0.74219 0.0
C238 C 0.1589 0.30438 0.66294 0.0
C239 C 0.17065 0.3067 0.61858 0.0
C240 C 0.15483 0.27613 0.58921 0.0
C241 C 0.12677 0.24343 0.60398 0.0
C242 C 0.11442 0.24185 0.6481 0.0
C243 C 0.13061 0.2719 0.67738 0.0
C244 C 0.2201 0.3775 0.6791 0.0
C245 C 0.26017 0.36304 0.66389 0.0
C246 C 0.29023 0.39202 0.64636 0.0
C247 C 0.2807 0.43593 0.6439 0.0
C248 C 0.24061 0.45063 0.65922 0.0
C249 C 0.2102 0.42141 0.67638 0.0
C250 C 0.14268 0.36568 0.73529 0.0
C251 C 0.15599 0.38576 0.77376 0.0
C252 C 0.12567 0.40497 0.80081 0.0
C253 C 0.08149 0.40431 0.78989 0.0
C254 C 0.06797 0.3848 0.751 0.0
C255 C 0.09861 0.36597 0.72347 0.0
Zn256 Zn 0.96021 0.05513 0.54564 0.0
Zn257 Zn 0.06986 0.95477 0.45898 0.0
Zn258 Zn 0.01494 0.00315 0.50968 0.0
C259 C 0.09354 0.04221 0.45092 0.0
C260 C 0.98639 0.94125 0.42879 0.0
O261 O 0.00149 0.97248 0.57521 0.0
O262 O 0.94783 0.01459 0.5942 0.0
C263 C 0.03535 0.10168 0.53692 0.0
O264 O 0.06682 0.04574 0.48314 0.0
O265 O 0.09853 0.00656 0.43226 0.0
O266 O 0.02329 0.92433 0.42494 0.0
O267 O 0.9802 0.97177 0.45613 0.0
O268 O 0.99919 0.10469 0.55585 0.0
O269 O 0.04511 0.06753 0.5157 0.0
O270 O 0.95479 0.00423 0.47149 0.0
O271 O 0.91713 0.0583 0.49788 0.0
C272 C 0.92177 0.02915 0.47001 0.0
O273 O 0.04036 0.95649 0.55523 0.0
O274 O 0.09359 0.93007 0.51493 0.0
C275 C 0.96946 0.98085 0.60091 0.0
C276 C 0.07474 0.93366 0.55147 0.0
Zn277 Zn 0.46311 0.08457 0.96169 0.0
Zn278 Zn 0.54792 0.98987 0.07638 0.0
Zn279 Zn 0.51134 0.03529 0.0164 0.0
C280 C 0.60369 0.99534 0.00068 0.0
C281 C 0.48086 0.9399 0.05043 0.0
O282 O 0.47923 0.08725 0.05366 0.0
O283 O 0.43136 0.11589 0.00805 0.0
C284 C 0.55341 0.094 0.94177 0.0
O285 O 0.57692 0.02455 0.98783 0.0
O286 O 0.59787 0.97772 0.03764 0.0
O287 O 0.50538 0.94243 0.08335 0.0
O288 O 0.48033 0.97052 0.02173 0.0
O289 O 0.51675 0.11108 0.93581 0.0
O290 O 0.55733 0.06141 0.96783 0.0
O291 O 0.4618 0.9946 0.98831 0.0
O292 O 0.43412 0.03362 0.93427 0.0
C293 C 0.43662 0.99843 0.95508 0.0
O294 O 0.51295 0.07092 0.07825 0.0
O295 O 0.55473 0.03289 0.12269 0.0
C296 C 0.44718 0.11269 0.04602 0.0
C297 C 0.53329 0.06636 0.11476 0.0
Zn298 Zn 0.5692 0.58595 0.57149 0.0
Zn299 Zn 0.4773 0.47069 0.48173 0.0
Zn300 Zn 0.51948 0.53122 0.52233 0.0
C301 C 0.55485 0.43541 0.50154 0.0
C302 C 0.47983 0.54582 0.42702 0.0
O303 O 0.47807 0.55677 0.57285 0.0
O304 O 0.5166 0.60976 0.60153 0.0
C305 C 0.60052 0.50373 0.58586 0.0
O306 O 0.55681 0.47141 0.52173 0.0
O307 O 0.52256 0.42625 0.47803 0.0
O308 O 0.46491 0.50808 0.43069 0.0
O309 O 0.50689 0.55952 0.45601 0.0
O310 O 0.60358 0.54061 0.60243 0.0
O311 O 0.57387 0.49675 0.55414 0.0
O312 O 0.54335 0.57979 0.47623 0.0
O313 O 0.59346 0.61239 0.51633 0.0
C314 C 0.57557 0.60613 0.47968 0.0
O315 O 0.45573 0.52297 0.55383 0.0
O316 O 0.42929 0.46371 0.52434 0.0
C317 C 0.48131 0.58902 0.59849 0.0
C318 C 0.42626 0.49363 0.55166 0.0
Zn319 Zn 0.07084 0.57218 0.9762 0.0
Zn320 Zn 0.96341 0.4767 0.08751 0.0
Zn321 Zn 0.01741 0.52555 0.03164 0.0
C322 C 0.05247 0.46522 0.11077 0.0
C323 C 0.95084 0.45058 -0.00025 0.0
O324 O 0.99409 0.59228 0.02957 0.0
O325 O 0.03507 0.62511 0.97974 0.0
C326 C 0.12099 0.53953 0.0454 0.0
O327 O 0.0585 0.49414 0.08094 0.0
O328 O 0.01473 0.45128 0.11925 0.0
O329 O 0.93553 0.44466 0.03773 0.0
O330 O 0.98194 0.4777 0.99322 0.0
O331 O 0.12382 0.56476 0.01291 0.0
O332 O 0.08458 0.52162 0.05566 0.0
O333 O 0.01349 0.49684 0.96692 0.0
O334 O 0.06182 0.53212 0.92651 0.0
C335 C 0.03442 0.50203 0.93088 0.0
O336 O 0.97172 0.5694 0.06194 0.0
O337 O 0.93491 0.52994 0.11029 0.0
C338 C 0.00392 0.62577 0.00653 0.0
C339 C 0.94309 0.56587 0.09237 0.0
C340 C 0.13332 0.12269 0.36599 0.0
C341 C 0.16144 0.14917 0.39103 0.0
C342 C 0.14635 0.10438 0.45587 0.0
C343 C 0.11516 0.0808 0.43178 0.0
N344 N 0.07131 0.0747 0.3667 0.0
N345 N 0.18673 0.17102 0.4622 0.0
C346 C 0.10622 0.09227 0.3877 0.0
C347 C 0.16549 0.14182 0.43679 0.0
N348 N 0.13411 0.12471 0.32131 0.0
N349 N 0.15959 0.08974 0.49588 0.0
H350 H 0.20036 0.19922 0.44945 0.0
H351 H 0.18696 0.16924 0.49625 0.0
H352 H 0.14713 0.06174 0.51022 0.0
H353 H 0.18542 0.10333 0.51298 0.0
H354 H 0.11743 0.103 0.30167 0.0
H355 H 0.15487 0.14501 0.30372 0.0
H356 H 0.06083 0.08521 0.33603 0.0
H357 H 0.05018 0.05278 0.3817 0.0
C358 C 0.40254 0.91448 0.87417 0.0
C359 C 0.37147 0.89049 0.89881 0.0
C360 C 0.38328 0.93716 0.96163 0.0
C361 C 0.41548 0.95982 0.93733 0.0
N362 N 0.465 0.96161 0.87625 0.0
N363 N 0.3388 0.87267 0.96811 0.0
C364 C 0.42799 0.94585 0.89538 0.0
C365 C 0.36394 0.89978 0.94337 0.0
N366 N 0.40641 0.90896 0.83001 0.0
N367 N 0.37 0.95231 0.00118 0.0
H368 H 0.32419 0.84524 0.9552 0.0
H369 H 0.33564 0.87521 0.00188 0.0
H370 H 0.38349 0.97959 0.01545 0.0
H371 H 0.34379 0.93954 0.01851 0.0
H372 H 0.42481 0.92935 0.81003 0.0
H373 H 0.38849 0.88656 0.8124 0.0
H374 H 0.47805 0.94904 0.84772 0.0
H375 H 0.48524 0.98409 0.8912 0.0
C376 C 0.62966 0.39727 0.64092 0.0
C377 C 0.67414 0.40445 0.65045 0.0
C378 C 0.67178 0.47188 0.60831 0.0
C379 C 0.62607 0.4679 0.60498 0.0
N380 N 0.56036 0.42992 0.62543 0.0
N381 N 0.73624 0.45226 0.64876 0.0
C382 C 0.60461 0.43127 0.62294 0.0
C383 C 0.69502 0.44265 0.63541 0.0
N384 N 0.61147 0.35774 0.64838 0.0
N385 N 0.69311 0.50307 0.58487 0.0
H386 H 0.75411 0.43243 0.66957 0.0
H387 H 0.75118 0.48179 0.6425 0.0
H388 H 0.67713 0.52445 0.56401 0.0
H389 H 0.7268 0.50485 0.58269 0.0
H390 H 0.5802 0.34961 0.63835 0.0
H391 H 0.62911 0.3318 0.66063 0.0
H392 H 0.54344 0.40604 0.64253 0.0
H393 H 0.54053 0.45453 0.61391 0.0
C394 C 0.86626 0.66085 0.09909 0.0
C395 C 0.86872 0.669 0.14457 0.0
C396 C 0.92818 0.61766 0.15196 0.0
C397 C 0.92068 0.60444 0.1084 0.0
N398 N 0.88237 0.61205 0.04 0.0
N399 N 0.90165 0.65596 0.21501 0.0
C400 C 0.89016 0.62612 0.0815 0.0
C401 C 0.89989 0.64788 0.17115 0.0
N402 N 0.84115 0.68635 0.07287 0.0
N403 N 0.9632 0.60214 0.17443 0.0
H404 H 0.88321 0.67966 0.2299 0.0
H405 H 0.91967 0.63776 0.23711 0.0
H406 H 0.98497 0.58044 0.16095 0.0
H407 H 0.9731 0.6136 0.20472 0.0
H408 H 0.84169 0.68524 0.03886 0.0
H409 H 0.82233 0.71123 0.08503 0.0
H410 H 0.85729 0.6234 0.02035 0.0
H411 H 0.89943 0.58694 0.02588 0.0
C412 C 0.35647 0.15133 0.11898 0.0
C413 C 0.37891 0.17923 0.14777 0.0
C414 C 0.44661 0.16582 0.10793 0.0
C415 C 0.42488 0.1345 0.08252 0.0
N416 N 0.36141 0.09001 0.07152 0.0
N417 N 0.44714 0.20649 0.1751 0.0
C418 C 0.38048 0.12501 0.09037 0.0
C419 C 0.4246 0.1846 0.14387 0.0
N420 N 0.31216 0.15131 0.1174 0.0
N421 N 0.48751 0.17893 0.09671 0.0
H422 H 0.43232 0.21964 0.20248 0.0
H423 H 0.48089 0.20816 0.17595 0.0
H424 H 0.50432 0.16618 0.0703 0.0
H425 H 0.50335 0.20467 0.11141 0.0
H426 H 0.29449 0.1347 0.09386 0.0
H427 H 0.29314 0.1714 0.13644 0.0
H428 H 0.33033 0.07927 0.07968 0.0
H429 H 0.37815 0.06903 0.0513 0.0
C430 C 0.13079 0.91165 0.66035 0.0
C431 C 0.14753 0.87051 0.65145 0.0
C432 C 0.10266 0.8664 0.58578 0.0
C433 C 0.09366 0.91082 0.58958 0.0
N434 N 0.09977 0.9767 0.63055 0.0
N435 N 0.14985 0.80768 0.60622 0.0
C436 C 0.10701 0.93362 0.62738 0.0
C437 C 0.13297 0.84718 0.61471 0.0
N438 N 0.1383 0.92974 0.70017 0.0
N439 N 0.08159 0.84262 0.55493 0.0
H440 H 0.17105 0.79202 0.62755 0.0
H441 H 0.14468 0.7915 0.57702 0.0
H442 H 0.0582 0.85572 0.53413 0.0
H443 H 0.08391 0.80935 0.55301 0.0
H444 H 0.1236 0.95792 0.71037 0.0
H445 H 0.15589 0.91405 0.72467 0.0
H446 H 0.11335 0.99578 0.65481 0.0
H447 H 0.08265 0.99428 0.60729 0.0
C448 C 0.90118 0.4232 0.88892 0.0
C449 C 0.89007 0.3794 0.89592 0.0
C450 C 0.92845 0.3807 0.96609 0.0
C451 C 0.93258 0.426 0.96254 0.0
N452 N 0.91651 0.4915 0.92261 0.0
N453 N 0.88798 0.31765 0.94443 0.0
C454 C 0.91763 0.44764 0.92431 0.0
C455 C 0.90251 0.35832 0.93531 0.0
N456 N 0.89659 0.44129 0.84831 0.0
N457 N 0.95038 0.35884 0.99803 0.0
H458 H 0.86818 0.30025 0.92328 0.0
H459 H 0.89233 0.3027 0.97474 0.0
H460 H 0.97105 0.37399 0.02016 0.0
H461 H 0.9518 0.32544 0.99947 0.0
H462 H 0.90842 0.47179 0.8403 0.0
H463 H 0.88501 0.42412 0.82155 0.0
H464 H 0.902 0.50859 0.89713 0.0
H465 H 0.9261 0.5109 0.94848 0.0
C466 C 0.61198 0.6995 0.40663 0.0
C467 C 0.63555 0.67722 0.37429 0.0
C468 C 0.61181 0.60805 0.4058 0.0
C469 C 0.59245 0.63033 0.44108 0.0
N470 N 0.57263 0.69682 0.47534 0.0
N471 N 0.65936 0.61113 0.34238 0.0
C472 C 0.59212 0.676 0.44149 0.0
C473 C 0.63534 0.63168 0.37331 0.0
N474 N 0.60796 0.74314 0.40332 0.0
N475 N 0.60824 0.56432 0.40366 0.0
H476 H 0.67564 0.62739 0.31724 0.0
H477 H 0.66518 0.57828 0.3426 0.0
H478 H 0.5943 0.54545 0.42825 0.0
H479 H 0.61691 0.54657 0.37643 0.0
H480 H 0.58777 0.76126 0.42304 0.0
H481 H 0.62255 0.76132 0.37849 0.0
H482 H 0.57594 0.72955 0.48103 0.0
H483 H 0.55382 0.68104 0.49894 0.0
C484 C 0.1192 0.42008 0.20439 0.0
C485 C 0.15354 0.39996 0.1816 0.0
C486 C 0.12319 0.4249 0.11177 0.0
C487 C 0.08995 0.44661 0.13471 0.0
N488 N 0.06347 0.47458 0.20274 0.0
N489 N 0.19466 0.39307 0.11508 0.0
C490 C 0.09028 0.44729 0.18105 0.0
C491 C 0.15764 0.40567 0.13571 0.0
N492 N 0.11271 0.4115 0.24783 0.0
N493 N 0.12056 0.42012 0.06745 0.0
H494 H 0.22068 0.3793 0.1318 0.0
H495 H 0.2012 0.40011 0.08236 0.0
H496 H 0.09537 0.43254 0.04857 0.0
H497 H 0.14142 0.40063 0.04982 0.0
H498 H 0.08536 0.42151 0.26481 0.0
H499 H 0.13264 0.39127 0.26616 0.0
H500 H 0.06524 0.47953 0.23634 0.0
H501 H 0.04254 0.49559 0.18653 0.0
C502 C 0.66282 0.14611 0.91254 0.0
C503 C 0.65392 0.15971 0.86903 0.0
C504 C 0.5858 0.11882 0.87084 0.0
C505 C 0.59088 0.11185 0.9165 0.0
N506 N 0.63354 0.12192 0.982 0.0
N507 N 0.60392 0.16347 0.80829 0.0
C508 C 0.62945 0.12589 0.93769 0.0
C509 C 0.6147 0.14704 0.84843 0.0
N510 N 0.70345 0.15173 0.92949 0.0
N511 N 0.55407 0.09732 0.84858 0.0
H512 H 0.6237 0.18489 0.7909 0.0
H513 H 0.57356 0.15891 0.79403 0.0
H514 H 0.53351 0.07488 0.86363 0.0
H515 H 0.55145 0.09803 0.81461 0.0
H516 H 0.71323 0.13842 0.95926 0.0
H517 H 0.72868 0.16614 0.91183 0.0
H518 H 0.65858 0.13614 0.99969 0.0
H519 H 0.61024 0.10711 0.00164 0.0
C520 C 0.8777 0.89014 0.40072 0.0
C521 C 0.88042 0.88948 0.35449 0.0
C522 C 0.94893 0.9298 0.35709 0.0
C523 C 0.94922 0.92489 0.40322 0.0
N524 N 0.9162 0.89704 0.46936 0.0
N525 N 0.91885 0.90662 0.28786 0.0
C526 C 0.91398 0.9046 0.42526 0.0
C527 C 0.916 0.90901 0.33238 0.0
N528 N 0.84034 0.87705 0.42107 0.0
N529 N 0.97932 0.95546 0.33712 0.0
H530 H 0.8944 0.89331 0.26857 0.0
H531 H 0.9464 0.91559 0.27024 0.0
H532 H 0.0037 0.97141 0.35435 0.0
H533 H 0.97822 0.964 0.30414 0.0
H534 H 0.83453 0.88123 0.45429 0.0
H535 H 0.81347 0.8654 0.40405 0.0
H536 H 0.89376 0.87824 0.48647 0.0
H537 H 0.94237 0.90665 0.48861 0.0
C538 C 0.37159 0.63308 0.6317 0.0
C539 C 0.38261 0.64739 0.67399 0.0
C540 C 0.44965 0.60624 0.67102 0.0
C541 C 0.44386 0.60203 0.62531 0.0
N542 N 0.39881 0.61192 0.5611 0.0
N543 N 0.43141 0.64644 0.73567 0.0
C544 C 0.40413 0.61437 0.60539 0.0
C545 C 0.42094 0.63271 0.6947 0.0
N546 N 0.33046 0.63914 0.61645 0.0
N547 N 0.48257 0.58491 0.69157 0.0
H548 H 0.41061 0.66491 0.7545 0.0
H549 H 0.46156 0.64125 0.75009 0.0
H550 H 0.50351 0.56458 0.67489 0.0
H551 H 0.48623 0.58385 0.72542 0.0
H552 H 0.31915 0.62634 0.58721 0.0
H553 H 0.30654 0.65331 0.63559 0.0
H554 H 0.37217 0.62461 0.54464 0.0
H555 H 0.42245 0.60036 0.54008 0.0
C556 C 0.98682 0.91863 0.70621 0.0
C557 C 0.95264 0.93624 0.73128 0.0
C558 C 0.91943 0.96411 0.66414 0.0
C559 C 0.95827 0.95493 0.64127 0.0
N560 N 0.00871 0.89754 0.63371 0.0
N561 N 0.88355 0.97229 0.73397 0.0
C562 C 0.98678 0.92471 0.66007 0.0
C563 C 0.91772 0.95748 0.71009 0.0
N564 N 0.01994 0.89734 0.72636 0.0
N565 N 0.88319 0.97544 0.64115 0.0
H566 H 0.87964 0.96573 0.76726 0.0
H567 H 0.86014 0.99288 0.72126 0.0
H568 H 0.88242 0.97514 0.60702 0.0
H569 H 0.85276 0.97933 0.65525 0.0
H570 H 0.0477 0.8877 0.70976 0.0
H571 H 0.02079 0.8918 0.76005 0.0
H572 H 0.02662 0.87172 0.64572 0.0
H573 H 0.00287 0.8969 0.60013 0.0
C574 C 0.59405 0.15105 0.17316 0.0
C575 C 0.57014 0.15321 0.21281 0.0
C576 C 0.51388 0.10624 0.18257 0.0
C577 C 0.53889 0.10306 0.14404 0.0
N578 N 0.59302 0.13366 0.09631 0.0
N579 N 0.50296 0.14269 0.25162 0.0
C580 C 0.57552 0.12966 0.13717 0.0
C581 C 0.52834 0.13412 0.21623 0.0
N582 N 0.63586 0.16592 0.17085 0.0
N583 N 0.47728 0.08168 0.18721 0.0
H584 H 0.5131 0.1633 0.27637 0.0
H585 H 0.47088 0.13249 0.25469 0.0
H586 H 0.46522 0.06285 0.16183 0.0
H587 H 0.45969 0.07903 0.21615 0.0
H588 H 0.65618 0.16022 0.14436 0.0
H589 H 0.65194 0.18068 0.19664 0.0
H590 H 0.61742 0.15572 0.08841 0.0
H591 H 0.57965 0.11827 0.06934 0.0
C592 C 0.48905 0.6199 0.32803 0.0
C593 C 0.46015 0.5985 0.29928 0.0
C594 C 0.43169 0.55627 0.36098 0.0
C595 C 0.46652 0.5714 0.38721 0.0
N596 N 0.50254 0.63781 0.40335 0.0
N597 N 0.40115 0.54814 0.28859 0.0
C598 C 0.48847 0.60906 0.37326 0.0
C599 C 0.43035 0.56743 0.3159 0.0
N600 N 0.51787 0.64967 0.3122 0.0
N601 N 0.39751 0.53533 0.38033 0.0
H602 H 0.39666 0.55758 0.2561 0.0
H603 H 0.38287 0.52122 0.29753 0.0
H604 H 0.39459 0.53253 0.41425 0.0
H605 H 0.36936 0.52644 0.36383 0.0
H606 H 0.54246 0.66283 0.3314 0.0
H607 H 0.51909 0.65873 0.27927 0.0
H608 H 0.51408 0.66825 0.39469 0.0
H609 H 0.49546 0.63402 0.4365 0.0
C610 C 0.04523 0.40237 0.86197 0.0
C611 C 0.05046 0.42322 0.82108 0.0
C612 C 0.02161 0.48903 0.85199 0.0
C613 C 0.02883 0.47173 0.89437 0.0
N614 N 0.04745 0.41059 0.94029 0.0
N615 N 0.04004 0.48549 0.77507 0.0
C616 C 0.03914 0.42756 0.89978 0.0
C617 C 0.0364 0.46603 0.81511 0.0
N618 N 0.04815 0.35871 0.86452 0.0
N619 N 0.00139 0.52768 0.84743 0.0
H620 H 0.04971 0.469 0.74726 0.0
H621 H 0.03524 0.51821 0.76986 0.0
H622 H 0.98995 0.54458 0.87436 0.0
H623 H 0.99222 0.54061 0.81731 0.0
H624 H 0.04111 0.34112 0.89282 0.0
H625 H 0.05319 0.34009 0.83679 0.0
H626 H 0.05986 0.37991 0.94521 0.0
H627 H 0.04517 0.4279 0.96908 0.0
C628 C 0.70555 0.00516 0.93106 0.0
C629 C 0.73123 0.97334 0.95197 0.0
C630 C 0.66663 0.94535 0.98925 0.0
C631 C 0.64337 0.98229 0.97539 0.0
N632 N 0.63266 0.02519 0.91084 0.0
N633 N 0.73624 0.91147 2e-05 0.0
C634 C 0.66029 0.00654 0.93991 0.0
C635 C 0.71169 0.94268 0.98053 0.0
N636 N 0.7244 0.0346 0.90353 0.0
N637 N 0.6446 0.91092 0.00652 0.0
H638 H 0.7689 0.90671 0.99277 0.0
H639 H 0.72487 0.89193 0.02543 0.0
H640 H 0.61077 0.90959 0.00729 0.0
H641 H 0.659 0.88159 0.01395 0.0
H642 H 0.70779 0.06103 0.89096 0.0
H643 H 0.75735 0.03418 0.89582 0.0
H644 H 0.64303 0.03998 0.88193 0.0
H645 H 0.59939 0.01922 0.91212 0.0
C646 C 0.86685 0.07301 0.37327 0.0
C647 C 0.82337 0.0623 0.38459 0.0
C648 C 0.84855 0.01215 0.4408 0.0
C649 C 0.89116 0.02737 0.43327 0.0
N650 N 0.94326 0.05706 0.38292 0.0
N651 N 0.77328 0.01185 0.41691 0.0
C652 C 0.90108 0.05214 0.3957 0.0
C653 C 0.81449 0.02791 0.41397 0.0
N654 N 0.87546 0.10571 0.34436 0.0
N655 N 0.84076 0.98478 0.4751 0.0
H656 H 0.74825 0.02348 0.39714 0.0
H657 H 0.76478 0.98515 0.43585 0.0
H658 H 0.86593 0.97201 0.49392 0.0
H659 H 0.8099 0.97551 0.4854 0.0
H660 H 0.90635 0.11853 0.33929 0.0
H661 H 0.85149 0.12175 0.32682 0.0
H662 H 0.95252 0.07194 0.3537 0.0
H663 H 0.9687 0.04228 0.39962 0.0
C664 C 0.21068 0.54224 0.13014 0.0
C665 C 0.24552 0.53151 0.10222 0.0
C666 C 0.19373 0.50474 0.04867 0.0
C667 C 0.16096 0.5288 0.0696 0.0
N668 N 0.13569 0.56432 0.13459 0.0
N669 N 0.26377 0.47108 0.05793 0.0
C670 C 0.16826 0.54486 0.11222 0.0
C671 C 0.23549 0.50291 0.068 0.0
N672 N 0.21732 0.54425 0.17411 0.0
N673 N 0.18537 0.48469 0.01007 0.0
H674 H 0.29214 0.46655 0.07607 0.0
H675 H 0.25672 0.44686 0.03571 0.0
H676 H 0.15441 0.4835 0.99628 0.0
H677 H 0.20955 0.47067 0.99127 0.0
H678 H 0.19228 0.54815 0.19658 0.0
H679 H 0.24733 0.5364 0.1878 0.0
H680 H 0.1409 0.58048 0.16383 0.0
H681 H 0.10401 0.56599 0.12278 0.0
C682 C 0.35231 0.4732 0.64831 0.0
C683 C 0.31351 0.46556 0.62471 0.0
C684 C 0.34649 0.4972 0.55921 0.0
C685 C 0.38747 0.49463 0.57984 0.0
N686 N 0.43036 0.48283 0.64477 0.0
N687 N 0.27212 0.47176 0.55798 0.0
C688 C 0.39064 0.48458 0.62502 0.0
C689 C 0.30972 0.47903 0.58046 0.0
N690 N 0.35234 0.46869 0.69278 0.0
N691 N 0.34318 0.51659 0.51908 0.0
H692 H 0.24424 0.45916 0.57266 0.0
H693 H 0.2692 0.47607 0.5243 0.0
H694 H 0.36996 0.5304 0.50329 0.0
H695 H 0.31372 0.52274 0.50366 0.0
H696 H 0.37855 0.4771 0.71246 0.0
H697 H 0.32439 0.46029 0.71023 0.0
H698 H 0.43525 0.4709 0.6763 0.0
H699 H 0.45903 0.49136 0.62879 0.0
C700 C 0.93902 0.71632 0.95953 0.0
C701 C 0.94317 0.74716 0.99313 0.0
C702 C 0.97743 0.69375 0.04121 0.0
C703 C 0.97579 0.66402 0.00648 0.0
N704 N 0.94257 0.64127 0.93938 0.0
N705 N 0.95427 0.76277 0.06918 0.0
C706 C 0.95226 0.6735 0.96787 0.0
C707 C 0.95826 0.7349 0.03525 0.0
N708 N 0.92478 0.7285 0.91894 0.0
N709 N 0.99913 0.68339 0.07877 0.0
H710 H 0.94041 0.79305 0.06529 0.0
H711 H 0.96107 0.75469 0.10156 0.0
H712 H 0.01231 0.65306 0.08434 0.0
H713 H 0.00557 0.70509 0.10363 0.0
H714 H 0.92621 0.7088 0.89168 0.0
H715 H 0.91375 0.75935 0.91172 0.0
H716 H 0.92213 0.64512 0.91253 0.0
H717 H 0.95154 0.60945 0.94519 0.0
C718 C 0.44176 0.82991 0.01434 0.0
C719 C 0.42252 0.81621 0.05418 0.0
C720 C 0.42497 0.89 0.08072 0.0
C721 C 0.45325 0.90108 0.04585 0.0
N722 N 0.48786 0.8824 0.97784 0.0
N723 N 0.39331 0.83294 0.12502 0.0
C724 C 0.46057 0.87167 0.01147 0.0
C725 C 0.41247 0.84641 0.08695 0.0
N726 N 0.44242 0.80261 0.9797 0.0
N727 N 0.4103 0.92139 0.10775 0.0
H728 H 0.3825 0.80147 0.13006 0.0
H729 H 0.39003 0.85234 0.15233 0.0
H730 H 0.41865 0.95367 0.10312 0.0
H731 H 0.38677 0.9162 0.13166 0.0
H732 H 0.45228 0.81182 0.9484 0.0
H733 H 0.42891 0.77181 0.98148 0.0
H734 H 0.49832 0.86061 0.95457 0.0
H735 H 0.50208 0.91266 0.9743 0.0
C736 C 0.07707 0.21469 0.54567 0.0
C737 C 0.11215 0.20839 0.57496 0.0
C738 C 0.10335 0.13064 0.57056 0.0
C739 C 0.06723 0.13676 0.54252 0.0
N740 N 0.02775 0.18253 0.49313 0.0
N741 N 0.16777 0.16189 0.60302 0.0
C742 C 0.05695 0.17826 0.52645 0.0
C743 C 0.12848 0.16672 0.58298 0.0
N744 N 0.06137 0.25504 0.53837 0.0
N745 N 0.11191 0.09094 0.58777 0.0
H746 H 0.18682 0.18811 0.61231 0.0
H747 H 0.18324 0.1324 0.60629 0.0
H748 H 0.09487 0.06344 0.57881 0.0
H749 H 0.1344 0.08565 0.61264 0.0
H750 H 0.03274 0.26116 0.52142 0.0
H751 H 0.07586 0.28244 0.55134 0.0
H752 H 0.02136 0.21162 0.47739 0.0
H753 H 0.013 0.15602 0.47851 0.0
C754 C 0.61532 0.33136 0.51404 0.0
C755 C 0.64517 0.33753 0.47936 0.0
C756 C 0.62848 0.41418 0.47789 0.0
C757 C 0.59131 0.40525 0.50356 0.0
N758 N 0.54982 0.35658 0.54895 0.0
N759 N 0.68016 0.38538 0.42701 0.0
C760 C 0.58533 0.36435 0.52331 0.0
C761 C 0.65286 0.37936 0.46179 0.0
N762 N 0.61519 0.29352 0.53696 0.0
N763 N 0.63937 0.45561 0.4674 0.0
H764 H 0.69865 0.36108 0.41349 0.0
H765 H 0.68229 0.41412 0.4094 0.0
H766 H 0.62152 0.48187 0.47781 0.0
H767 H 0.66845 0.46411 0.45217 0.0
H768 H 0.59641 0.28807 0.56479 0.0
H769 H 0.63722 0.26912 0.53025 0.0
H770 H 0.541 0.32614 0.56037 0.0
H771 H 0.52806 0.38068 0.55729 0.0
loop_
_geom_bond_atom_site_label_1
_geom_bond_atom_site_label_2
_geom_bond_distance
_geom_bond_site_symmetry_2
_ccdc_geom_bond_type
P0 O11 1.490 . S
P0 C14 1.812 . S
P0 C20 1.803 . S
P0 C26 1.819 . S
H1 C15 0.941 . S
H2 C16 0.939 . S
H3 C18 0.940 . S
H4 C19 0.940 . S
H5 C21 0.939 . S
H6 C22 0.942 . S
H7 C24 0.940 . S
H8 C25 0.939 . S
H9 C27 0.941 . S
H10 C31 0.939 . S
O11 P0 1.490 . S
H12 C28 0.939 . S
H13 C30 0.940 . S
C14 P0 1.812 . S
C14 C15 1.389 . S
C14 C19 1.391 . S
C15 H1 0.941 . S
C15 C14 1.389 . S
C15 C16 1.397 . S
C16 H2 0.939 . S
C16 C15 1.397 . S
C16 C17 1.378 . S
C17 C16 1.378 . S
C17 C18 1.378 . S
C18 H3 0.940 . S
C18 C17 1.378 . S
C18 C19 1.396 . S
C19 H4 0.940 . S
C19 C14 1.391 . S
C19 C18 1.396 . S
C20 P0 1.803 . S
C20 C21 1.378 . S
C20 C25 1.400 . S
C21 H5 0.939 . S
C21 C20 1.378 . S
C21 C22 1.361 . S
C22 H6 0.942 . S
C22 C21 1.361 . S
C22 C23 1.369 . S
C23 C22 1.369 . S
C23 C24 1.404 . S
C24 H7 0.940 . S
C24 C23 1.404 . S
C24 C25 1.389 . S
C25 H8 0.939 . S
C25 C20 1.400 . S
C25 C24 1.389 . S
C26 P0 1.819 . S
C26 C27 1.391 . S
C26 C31 1.391 . S
C27 H9 0.941 . S
C27 C26 1.391 . S
C27 C28 1.396 . S
C28 H12 0.939 . S
C28 C27 1.396 . S
C28 C29 1.397 . S
C29 C28 1.397 . S
C29 C30 1.385 . S
C30 H13 0.940 . S
C30 C29 1.385 . S
C30 C31 1.388 . S
C31 H10 0.939 . S
C31 C26 1.391 . S
C31 C30 1.388 . S
P32 O43 1.490 . S
P32 C46 1.812 . S
P32 C52 1.803 . S
P32 C58 1.819 . S
H33 C47 0.941 . S
H34 C48 0.939 . S
H35 C50 0.940 . S
H36 C51 0.940 . S
H37 C53 0.939 . S
H38 C54 0.942 . S
H39 C56 0.940 . S
H40 C57 0.939 . S
H41 C59 0.941 . S
H42 C63 0.939 . S
O43 P32 1.490 . S
H44 C60 0.939 . S
H45 C62 0.940 . S
C46 P32 1.812 . S
C46 C47 1.389 . S
C46 C51 1.391 . S
C47 H33 0.941 . S
C47 C46 1.389 . S
C47 C48 1.397 . S
C48 H34 0.939 . S
C48 C47 1.397 . S
C48 C49 1.378 . S
C49 C48 1.378 . S
C49 C50 1.378 . S
C50 H35 0.940 . S
C50 C49 1.378 . S
C50 C51 1.396 . S
C51 H36 0.940 . S
C51 C46 1.391 . S
C51 C50 1.396 . S
C52 P32 1.803 . S
C52 C53 1.378 . S
C52 C57 1.400 . S
C53 H37 0.939 . S
C53 C52 1.378 . S
C53 C54 1.361 . S
C54 H38 0.942 . S
C54 C53 1.361 . S
C54 C55 1.369 . S
C55 C54 1.369 . S
C55 C56 1.404 . S
C56 H39 0.940 . S
C56 C55 1.404 . S
C56 C57 1.389 . S
C57 H40 0.939 . S
C57 C52 1.400 . S
C57 C56 1.389 . S
C58 P32 1.819 . S
C58 C59 1.391 . S
C58 C63 1.391 . S
C59 H41 0.941 . S
C59 C58 1.391 . S
C59 C60 1.396 . S
C60 H44 0.939 . S
C60 C59 1.396 . S
C60 C61 1.397 . S
C61 C60 1.397 . S
C61 C62 1.385 . S
C62 H45 0.940 . S
C62 C61 1.385 . S
C62 C63 1.388 . S
C63 H42 0.939 . S
C63 C58 1.391 . S
C63 C62 1.388 . S
P64 O75 1.490 . S
P64 C78 1.812 . S
P64 C84 1.803 . S
P64 C90 1.819 . S
H65 C79 0.941 . S
H66 C80 0.939 . S
H67 C82 0.940 . S
H68 C83 0.940 . S
H69 C85 0.939 . S
H70 C86 0.942 . S
H71 C88 0.940 . S
H72 C89 0.939 . S
H73 C91 0.941 . S
H74 C95 0.939 . S
O75 P64 1.490 . S
H76 C92 0.939 . S
H77 C94 0.940 . S
C78 P64 1.812 . S
C78 C79 1.389 . S
C78 C83 1.391 . S
C79 H65 0.941 . S
C79 C78 1.389 . S
C79 C80 1.397 . S
C80 H66 0.939 . S
C80 C79 1.397 . S
C80 C81 1.378 . S
C81 C80 1.378 . S
C81 C82 1.378 . S
C82 H67 0.940 . S
C82 C81 1.378 . S
C82 C83 1.396 . S
C83 H68 0.940 . S
C83 C78 1.391 . S
C83 C82 1.396 . S
C84 P64 1.803 . S
C84 C85 1.378 . S
C84 C89 1.400 . S
C85 H69 0.939 . S
C85 C84 1.378 . S
C85 C86 1.361 . S
C86 H70 0.942 . S
C86 C85 1.361 . S
C86 C87 1.369 . S
C87 C86 1.369 . S
C87 C88 1.404 . S
C88 H71 0.940 . S
C88 C87 1.404 . S
C88 C89 1.389 . S
C89 H72 0.939 . S
C89 C84 1.400 . S
C89 C88 1.389 . S
C90 P64 1.819 . S
C90 C91 1.391 . S
C90 C95 1.391 . S
C91 H73 0.941 . S
C91 C90 1.391 . S
C91 C92 1.396 . S
C92 H76 0.939 . S
C92 C91 1.396 . S
C92 C93 1.397 . S
C93 C92 1.397 . S
C93 C94 1.385 . S
C94 H77 0.940 . S
C94 C93 1.385 . S
C94 C95 1.388 . S
C95 H74 0.939 . S
C95 C90 1.391 . S
C95 C94 1.388 . S
P96 O107 1.490 . S
P96 C110 1.812 . S
P96 C116 1.803 . S
P96 C122 1.819 . S
H97 C111 0.941 . S
H98 C112 0.939 . S
H99 C114 0.940 . S
H100 C115 0.940 . S
H101 C117 0.939 . S
H102 C118 0.942 . S
H103 C120 0.940 . S
H104 C121 0.939 . S
H105 C123 0.941 . S
H106 C127 0.939 . S
O107 P96 1.490 . S
H108 C124 0.939 . S
H109 C126 0.940 . S
C110 P96 1.812 . S
C110 C111 1.389 . S
C110 C115 1.391 . S
C111 H97 0.941 . S
C111 C110 1.389 . S
C111 C112 1.397 . S
C112 H98 0.939 . S
C112 C111 1.397 . S
C112 C113 1.378 . S
C113 C112 1.378 . S
C113 C114 1.378 . S
C114 H99 0.940 . S
C114 C113 1.378 . S
C114 C115 1.396 . S
C115 H100 0.940 . S
C115 C110 1.391 . S
C115 C114 1.396 . S
C116 P96 1.803 . S
C116 C117 1.378 . S
C116 C121 1.400 . S
C117 H101 0.939 . S
C117 C116 1.378 . S
C117 C118 1.361 . S
C118 H102 0.942 . S
C118 C117 1.361 . S
C118 C119 1.369 . S
C119 C118 1.369 . S
C119 C120 1.404 . S
C120 H103 0.940 . S
C120 C119 1.404 . S
C120 C121 1.389 . S
C121 H104 0.939 . S
C121 C116 1.400 . S
C121 C120 1.389 . S
C122 P96 1.819 . S
C122 C123 1.391 . S
C122 C127 1.391 . S
C123 H105 0.941 . S
C123 C122 1.391 . S
C123 C124 1.396 . S
C124 H108 0.939 . S
C124 C123 1.396 . S
C124 C125 1.397 . S
C125 C124 1.397 . S
C125 C126 1.385 . S
C126 H109 0.940 . S
C126 C125 1.385 . S
C126 C127 1.388 . S
C127 H106 0.939 . S
C127 C122 1.391 . S
C127 C126 1.388 . S
P128 O139 1.490 1_556 S
P128 C142 1.812 . S
P128 C148 1.803 . S
P128 C154 1.819 . S
H129 C143 0.941 . S
H130 C144 0.939 1_545 S
H131 C146 0.940 . S
H132 C147 0.940 . S
H133 C149 0.939 1_554 S
H134 C150 0.942 . S
H135 C152 0.940 . S
H136 C153 0.939 . S
H137 C155 0.941 . S
H138 C159 0.939 . S
O139 P128 1.490 1_554 S
H140 C156 0.939 . S
H141 C158 0.940 . S
C142 P128 1.812 . S
C142 C143 1.389 1_556 S
C142 C147 1.391 . S
C143 H129 0.941 . S
C143 C142 1.389 1_554 S
C143 C144 1.397 . S
C144 H130 0.939 1_565 S
C144 C143 1.397 . S
C144 C145 1.378 . S
C145 C144 1.378 . S
C145 C146 1.378 1_554 S
C146 H131 0.940 . S
C146 C145 1.378 1_556 S
C146 C147 1.396 . S
C147 H132 0.940 . S
C147 C142 1.391 . S
C147 C146 1.396 . S
C148 P128 1.803 . S
C148 C149 1.378 1_655 S
C148 C153 1.400 . S
C149 H133 0.939 1_556 S
C149 C148 1.378 1_455 S
C149 C150 1.361 1_556 S
C150 H134 0.942 . S
C150 C149 1.361 1_554 S
C150 C151 1.369 1_454 S
C151 C150 1.369 1_656 S
C151 C152 1.404 . S
C152 H135 0.940 . S
C152 C151 1.404 . S
C152 C153 1.389 . S
C153 H136 0.939 . S
C153 C148 1.400 . S
C153 C152 1.389 . S
C154 P128 1.819 . S
C154 C155 1.391 1_565 S
C154 C159 1.391 . S
C155 H137 0.941 . S
C155 C154 1.391 1_545 S
C155 C156 1.396 . S
C156 H140 0.939 . S
C156 C155 1.396 . S
C156 C157 1.397 1_545 S
C157 C156 1.397 1_565 S
C157 C158 1.385 . S
C158 H141 0.940 . S
C158 C157 1.385 . S
C158 C159 1.388 . S
C159 H138 0.939 . S
C159 C154 1.391 . S
C159 C158 1.388 . S
P160 O171 1.490 . S
P160 C174 1.812 . S
P160 C180 1.803 . S
P160 C186 1.819 . S
H161 C175 0.941 . S
H162 C176 0.939 . S
H163 C178 0.940 . S
H164 C179 0.940 . S
H165 C181 0.939 . S
H166 C182 0.942 . S
H167 C184 0.940 . S
H168 C185 0.939 . S
H169 C187 0.941 . S
H170 C191 0.939 . S
O171 P160 1.490 . S
H172 C188 0.939 . S
H173 C190 0.940 . S
C174 P160 1.812 . S
C174 C175 1.389 . S
C174 C179 1.391 . S
C175 H161 0.941 . S
C175 C174 1.389 . S
C175 C176 1.397 . S
C176 H162 0.939 . S
C176 C175 1.397 . S
C176 C177 1.378 . S
C177 C176 1.378 . S
C177 C178 1.378 . S
C178 H163 0.940 . S
C178 C177 1.378 . S
C178 C179 1.396 . S
C179 H164 0.940 . S
C179 C174 1.391 . S
C179 C178 1.396 . S
C180 P160 1.803 . S
C180 C181 1.378 . S
C180 C185 1.400 . S
C181 H165 0.939 . S
C181 C180 1.378 . S
C181 C182 1.361 . S
C182 H166 0.942 . S
C182 C181 1.361 . S
C182 C183 1.369 . S
C183 C182 1.369 . S
C183 C184 1.404 . S
C184 H167 0.940 . S
C184 C183 1.404 . S
C184 C185 1.389 . S
C185 H168 0.939 . S
C185 C180 1.400 . S
C185 C184 1.389 . S
C186 P160 1.819 . S
C186 C187 1.391 . S
C186 C191 1.391 . S
C187 H169 0.941 . S
C187 C186 1.391 . S
C187 C188 1.396 . S
C188 H172 0.939 . S
C188 C187 1.396 . S
C188 C189 1.397 . S
C189 C188 1.397 . S
C189 C190 1.385 . S
C190 H173 0.940 . S
C190 C189 1.385 . S
C190 C191 1.388 . S
C191 H170 0.939 . S
C191 C186 1.391 . S
C191 C190 1.388 . S
P192 O203 1.490 . S
P192 C206 1.812 . S
P192 C212 1.803 . S
P192 C218 1.819 . S
H193 C207 0.941 1_556 S
H194 C208 0.939 1_556 S
H195 C210 0.940 . S
H196 C211 0.940 . S
H197 C213 0.939 . S
H198 C214 0.942 . S
H199 C216 0.940 . S
H200 C217 0.939 . S
H201 C219 0.941 . S
H202 C223 0.939 . S
O203 P192 1.490 . S
H204 C220 0.939 . S
H205 C222 0.940 . S
C206 P192 1.812 . S
C206 C207 1.389 . S
C206 C211 1.391 . S
C207 H193 0.941 1_554 S
C207 C206 1.389 . S
C207 C208 1.397 . S
C208 H194 0.939 1_554 S
C208 C207 1.397 . S
C208 C209 1.378 . S
C209 C208 1.378 . S
C209 C210 1.378 . S
C210 H195 0.940 . S
C210 C209 1.378 . S
C210 C211 1.396 . S
C211 H196 0.940 . S
C211 C206 1.391 . S
C211 C210 1.396 . S
C212 P192 1.803 . S
C212 C213 1.378 . S
C212 C217 1.400 . S
C213 H197 0.939 . S
C213 C212 1.378 . S
C213 C214 1.361 . S
C214 H198 0.942 . S
C214 C213 1.361 . S
C214 C215 1.369 . S
C215 C214 1.369 . S
C215 C216 1.404 . S
C216 H199 0.940 . S
C216 C215 1.404 . S
C216 C217 1.389 . S
C217 H200 0.939 . S
C217 C212 1.400 . S
C217 C216 1.389 . S
C218 P192 1.819 . S
C218 C219 1.391 . S
C218 C223 1.391 . S
C219 H201 0.941 . S
C219 C218 1.391 . S
C219 C220 1.396 . S
C220 H204 0.939 . S
C220 C219 1.396 . S
C220 C221 1.397 . S
C221 C220 1.397 . S
C221 C222 1.385 . S
C222 H205 0.940 . S
C222 C221 1.385 . S
C222 C223 1.388 . S
C223 H202 0.939 . S
C223 C218 1.391 . S
C223 C222 1.388 . S
P224 O235 1.490 . S
P224 C238 1.812 . S
P224 C244 1.803 . S
P224 C250 1.819 . S
H225 C239 0.941 . S
H226 C240 0.939 . S
H227 C242 0.940 . S
H228 C243 0.940 . S
H229 C245 0.939 . S
H230 C246 0.942 . S
H231 C248 0.940 . S
H232 C249 0.939 . S
H233 C251 0.941 . S
H234 C255 0.939 . S
O235 P224 1.490 . S
H236 C252 0.939 . S
H237 C254 0.940 . S
C238 P224 1.812 . S
C238 C239 1.389 . S
C238 C243 1.391 . S
C239 H225 0.941 . S
C239 C238 1.389 . S
C239 C240 1.397 . S
C240 H226 0.939 . S
C240 C239 1.397 . S
C240 C241 1.378 . S
C241 C240 1.378 . S
C241 C242 1.378 . S
C242 H227 0.940 . S
C242 C241 1.378 . S
C242 C243 1.396 . S
C243 H228 0.940 . S
C243 C238 1.391 . S
C243 C242 1.396 . S
C244 P224 1.803 . S
C244 C245 1.378 . S
C244 C249 1.400 . S
C245 H229 0.939 . S
C245 C244 1.378 . S
C245 C246 1.361 . S
C246 H230 0.942 . S
C246 C245 1.361 . S
C246 C247 1.369 . S
C247 C246 1.369 . S
C247 C248 1.404 . S
C248 H231 0.940 . S
C248 C247 1.404 . S
C248 C249 1.389 . S
C249 H232 0.939 . S
C249 C244 1.400 . S
C249 C248 1.389 . S
C250 P224 1.819 . S
C250 C251 1.391 . S
C250 C255 1.391 . S
C251 H233 0.941 . S
C251 C250 1.391 . S
C251 C252 1.396 . S
C252 H236 0.939 . S
C252 C251 1.396 . S
C252 C253 1.397 . S
C253 C252 1.397 . S
C253 C254 1.385 . S
C254 H237 0.940 . S
C254 C253 1.385 . S
C254 C255 1.388 . S
C255 H234 0.939 . S
C255 C250 1.391 . S
C255 C254 1.388 . S
Zn256 O262 1.920 . S
Zn256 O268 1.898 . S
Zn256 O271 1.905 . S
Zn257 O265 1.905 1_565 S
Zn257 O266 1.898 . S
Zn257 O274 1.920 . S
Zn258 O261 2.080 1_455 S
Zn258 O264 2.114 . S
Zn258 O267 2.120 1_445 S
Zn258 O269 2.120 . S
Zn258 O270 2.114 1_455 S
Zn258 O273 2.080 . S
C259 O264 1.166 . S
C259 O265 1.182 . S
C260 O266 1.167 1_655 S
C260 O267 1.299 . S
O261 Zn258 2.080 1_655 S
O261 C275 1.305 . S
O262 Zn256 1.920 . S
O262 C275 1.234 . S
C263 O268 1.167 1_455 S
C263 O269 1.299 . S
O264 Zn258 2.114 . S
O264 C259 1.166 . S
O265 Zn257 1.905 1_545 S
O265 C259 1.182 . S
O266 Zn257 1.898 . S
O266 C260 1.167 1_455 S
O267 Zn258 2.120 1_665 S
O267 C260 1.299 . S
O268 Zn256 1.898 . S
O268 C263 1.167 1_655 S
O269 Zn258 2.120 . S
O269 C263 1.299 . S
O270 Zn258 2.114 1_655 S
O270 C272 1.166 . S
O271 Zn256 1.905 . S
O271 C272 1.182 . S
C272 O270 1.166 . S
C272 O271 1.182 . S
O273 Zn258 2.080 . S
O273 C276 1.305 1_545 S
O274 Zn257 1.920 . S
O274 C276 1.234 . S
C275 O261 1.305 . S
C275 O262 1.234 . S
C276 O273 1.305 1_565 S
C276 O274 1.234 . S
Zn277 O283 1.920 1_556 S
Zn277 O289 1.898 . S
Zn277 O292 1.905 . S
Zn278 O286 1.905 . S
Zn278 O287 1.898 . S
Zn278 O295 1.920 . S
Zn279 O282 2.080 . S
Zn279 O285 2.114 1_545 S
Zn279 O288 2.120 1_545 S
Zn279 O290 2.120 . S
Zn279 O291 2.114 1_544 S
Zn279 O294 2.080 . S
C280 O285 1.166 . S
C280 O286 1.182 . S
C281 O287 1.167 . S
C281 O288 1.299 . S
O282 Zn279 2.080 . S
O282 C296 1.305 . S
O283 Zn277 1.920 1_554 S
O283 C296 1.234 . S
C284 O289 1.167 . S
C284 O290 1.299 1_556 S
O285 Zn279 2.114 1_565 S
O285 C280 1.166 . S
O286 Zn278 1.905 . S
O286 C280 1.182 . S
O287 Zn278 1.898 . S
O287 C281 1.167 . S
O288 Zn279 2.120 1_565 S
O288 C281 1.299 . S
O289 Zn277 1.898 . S
O289 C284 1.167 . S
O290 Zn279 2.120 . S
O290 C284 1.299 1_554 S
O291 Zn279 2.114 1_566 S
O291 C293 1.166 . S
O292 Zn277 1.905 . S
O292 C293 1.182 1_545 S
C293 O291 1.166 . S
C293 O292 1.182 1_565 S
O294 Zn279 2.080 . S
O294 C297 1.305 . S
O295 Zn278 1.920 . S
O295 C297 1.234 1_565 S
C296 O282 1.305 . S
C296 O283 1.234 . S
C297 O294 1.305 . S
C297 O295 1.234 1_545 S
Zn298 O304 1.920 . S
Zn298 O310 1.898 . S
Zn298 O313 1.905 . S
Zn299 O307 1.905 . S
Zn299 O308 1.898 . S
Zn299 O316 1.920 . S
Zn300 O303 2.080 . S
Zn300 O306 2.114 . S
Zn300 O309 2.120 . S
Zn300 O311 2.120 . S
Zn300 O312 2.114 . S
Zn300 O315 2.080 . S
C301 O306 1.166 . S
C301 O307 1.182 . S
C302 O308 1.167 . S
C302 O309 1.299 . S
O303 Zn300 2.080 . S
O303 C317 1.305 . S
O304 Zn298 1.920 . S
O304 C317 1.234 . S
C305 O310 1.167 . S
C305 O311 1.299 . S
O306 Zn300 2.114 . S
O306 C301 1.166 . S
O307 Zn299 1.905 . S
O307 C301 1.182 . S
O308 Zn299 1.898 . S
O308 C302 1.167 . S
O309 Zn300 2.120 . S
O309 C302 1.299 . S
O310 Zn298 1.898 . S
O310 C305 1.167 . S
O311 Zn300 2.120 . S
O311 C305 1.299 . S
O312 Zn300 2.114 . S
O312 C314 1.166 . S
O313 Zn298 1.905 . S
O313 C314 1.182 . S
C314 O312 1.166 . S
C314 O313 1.182 . S
O315 Zn300 2.080 . S
O315 C318 1.305 . S
O316 Zn299 1.920 . S
O316 C318 1.234 . S
C317 O303 1.305 . S
C317 O304 1.234 . S
C318 O315 1.305 . S
C318 O316 1.234 . S
Zn319 O325 1.920 . S
Zn319 O331 1.898 . S
Zn319 O334 1.905 . S
Zn320 O328 1.905 1_655 S
Zn320 O329 1.898 . S
Zn320 O337 1.920 . S
Zn321 O324 2.080 1_554 S
Zn321 O327 2.114 . S
Zn321 O330 2.120 1_454 S
Zn321 O332 2.120 . S
Zn321 O333 2.114 1_554 S
Zn321 O336 2.080 . S
C322 O327 1.166 . S
C322 O328 1.182 . S
C323 O329 1.167 1_556 S
C323 O330 1.299 . S
O324 Zn321 2.080 1_556 S
O324 C338 1.305 . S
O325 Zn319 1.920 . S
O325 C338 1.234 . S
C326 O331 1.167 1_554 S
C326 O332 1.299 . S
O327 Zn321 2.114 . S
O327 C322 1.166 . S
O328 Zn320 1.905 1_455 S
O328 C322 1.182 . S
O329 Zn320 1.898 . S
O329 C323 1.167 1_554 S
O330 Zn321 2.120 1_656 S
O330 C323 1.299 . S
O331 Zn319 1.898 . S
O331 C326 1.167 1_556 S
O332 Zn321 2.120 . S
O332 C326 1.299 . S
O333 Zn321 2.114 1_556 S
O333 C335 1.166 . S
O334 Zn319 1.905 . S
O334 C335 1.182 . S
C335 O333 1.166 . S
C335 O334 1.182 . S
O336 Zn321 2.080 . S
O336 C339 1.305 1_455 S
O337 Zn320 1.920 . S
O337 C339 1.234 . S
C338 O324 1.305 . S
C338 O325 1.234 . S
C339 O336 1.305 1_655 S
C339 O337 1.234 . S
C340 C341 1.363 . S
C340 C346 1.379 . S
C340 N348 1.356 . S
C341 C340 1.363 . S
C341 C347 1.363 . S
C342 C343 1.363 . S
C342 C347 1.379 . S
C342 N349 1.356 . S
C343 C342 1.363 . S
C343 C346 1.363 . S
N344 C346 1.356 . S
N344 H356 0.984 . S
N344 H357 0.985 . S
N345 C347 1.356 . S
N345 H350 0.984 . S
N345 H351 0.985 . S
C346 C340 1.379 . S
C346 C343 1.363 . S
C346 N344 1.356 . S
C347 C341 1.363 . S
C347 C342 1.379 . S
C347 N345 1.356 . S
N348 C340 1.356 . S
N348 H354 0.984 . S
N348 H355 0.984 . S
N349 C342 1.356 . S
N349 H352 0.984 . S
N349 H353 0.985 . S
H350 N345 0.984 . S
H351 N345 0.985 . S
H352 N349 0.984 . S
H353 N349 0.985 . S
H354 N348 0.984 . S
H355 N348 0.984 . S
H356 N344 0.984 . S
H357 N344 0.985 . S
C358 C359 1.363 . S
C358 C364 1.379 . S
C358 N366 1.356 . S
C359 C358 1.363 . S
C359 C365 1.363 . S
C360 C361 1.363 . S
C360 C365 1.379 . S
C360 N367 1.356 . S
C361 C360 1.363 . S
C361 C364 1.363 . S
N362 C364 1.356 1_545 S
N362 H374 0.984 . S
N362 H375 0.985 . S
N363 C365 1.356 . S
N363 H368 0.984 . S
N363 H369 0.985 . S
C364 C358 1.379 . S
C364 C361 1.363 . S
C364 N362 1.356 1_565 S
C365 C359 1.363 . S
C365 C360 1.379 . S
C365 N363 1.356 . S
N366 C358 1.356 . S
N366 H372 0.984 . S
N366 H373 0.984 . S
N367 C360 1.356 . S
N367 H370 0.984 . S
N367 H371 0.985 . S
H368 N363 0.984 . S
H369 N363 0.985 . S
H370 N367 0.984 . S
H371 N367 0.985 . S
H372 N366 0.984 . S
H373 N366 0.984 . S
H374 N362 0.984 . S
H375 N362 0.985 . S
C376 C377 1.363 . S
C376 C382 1.379 . S
C376 N384 1.356 . S
C377 C376 1.363 . S
C377 C383 1.363 . S
C378 C379 1.363 . S
C378 C383 1.379 . S
C378 N385 1.356 . S
C379 C378 1.363 . S
C379 C382 1.363 . S
N380 C382 1.356 . S
N380 H392 0.984 . S
N380 H393 0.985 . S
N381 C383 1.356 . S
N381 H386 0.984 . S
N381 H387 0.985 . S
C382 C376 1.379 . S
C382 C379 1.363 . S
C382 N380 1.356 . S
C383 C377 1.363 . S
C383 C378 1.379 . S
C383 N381 1.356 . S
N384 C376 1.356 . S
N384 H390 0.984 . S
N384 H391 0.984 . S
N385 C378 1.356 . S
N385 H388 0.984 . S
N385 H389 0.985 . S
H386 N381 0.984 . S
H387 N381 0.985 . S
H388 N385 0.984 . S
H389 N385 0.985 . S
H390 N384 0.984 . S
H391 N384 0.984 . S
H392 N380 0.984 . S
H393 N380 0.985 . S
C394 C395 1.363 . S
C394 C400 1.379 . S
C394 N402 1.356 . S
C395 C394 1.363 . S
C395 C401 1.363 . S
C396 C397 1.363 . S
C396 C401 1.379 . S
C396 N403 1.356 1_655 S
C397 C396 1.363 . S
C397 C400 1.363 . S
N398 C400 1.356 . S
N398 H410 0.984 . S
N398 H411 0.985 . S
N399 C401 1.356 . S
N399 H404 0.984 . S
N399 H405 0.985 . S
C400 C394 1.379 . S
C400 C397 1.363 . S
C400 N398 1.356 . S
C401 C395 1.363 . S
C401 C396 1.379 . S
C401 N399 1.356 . S
N402 C394 1.356 . S
N402 H408 0.984 . S
N402 H409 0.984 . S
N403 C396 1.356 1_455 S
N403 H406 0.984 . S
N403 H407 0.985 . S
H404 N399 0.984 . S
H405 N399 0.985 . S
H406 N403 0.984 . S
H407 N403 0.985 . S
H408 N402 0.984 . S
H409 N402 0.984 . S
H410 N398 0.984 . S
H411 N398 0.985 . S
C412 C413 1.363 . S
C412 C418 1.379 . S
C412 N420 1.356 . S
C413 C412 1.363 . S
C413 C419 1.363 . S
C414 C415 1.363 . S
C414 C419 1.379 . S
C414 N421 1.356 . S
C415 C414 1.363 . S
C415 C418 1.363 . S
N416 C418 1.356 . S
N416 H428 0.984 . S
N416 H429 0.985 . S
N417 C419 1.356 . S
N417 H422 0.984 . S
N417 H423 0.985 . S
C418 C412 1.379 . S
C418 C415 1.363 . S
C418 N416 1.356 . S
C419 C413 1.363 . S
C419 C414 1.379 . S
C419 N417 1.356 . S
N420 C412 1.356 . S
N420 H426 0.984 . S
N420 H427 0.984 . S
N421 C414 1.356 . S
N421 H424 0.984 . S
N421 H425 0.985 . S
H422 N417 0.984 . S
H423 N417 0.985 . S
H424 N421 0.984 . S
H425 N421 0.985 . S
H426 N420 0.984 . S
H427 N420 0.984 . S
H428 N416 0.984 . S
H429 N416 0.985 . S
C430 C431 1.363 . S
C430 C436 1.379 . S
C430 N438 1.356 . S
C431 C430 1.363 . S
C431 C437 1.363 . S
C432 C433 1.363 . S
C432 C437 1.379 . S
C432 N439 1.356 . S
C433 C432 1.363 . S
C433 C436 1.363 . S
N434 C436 1.356 . S
N434 H446 0.984 1_565 S
N434 H447 0.985 1_565 S
N435 C437 1.356 . S
N435 H440 0.984 . S
N435 H441 0.985 . S
C436 C430 1.379 . S
C436 C433 1.363 . S
C436 N434 1.356 . S
C437 C431 1.363 . S
C437 C432 1.379 . S
C437 N435 1.356 . S
N438 C430 1.356 . S
N438 H444 0.984 . S
N438 H445 0.984 . S
N439 C432 1.356 . S
N439 H442 0.984 . S
N439 H443 0.985 . S
H440 N435 0.984 . S
H441 N435 0.985 . S
H442 N439 0.984 . S
H443 N439 0.985 . S
H444 N438 0.984 . S
H445 N438 0.984 . S
H446 N434 0.984 1_545 S
H447 N434 0.985 1_545 S
C448 C449 1.363 . S
C448 C454 1.379 . S
C448 N456 1.356 . S
C449 C448 1.363 . S
C449 C455 1.363 . S
C450 C451 1.363 . S
C450 C455 1.379 . S
C450 N457 1.356 . S
C451 C450 1.363 . S
C451 C454 1.363 . S
N452 C454 1.356 . S
N452 H464 0.984 . S
N452 H465 0.985 . S
N453 C455 1.356 . S
N453 H458 0.984 . S
N453 H459 0.985 . S
C454 C448 1.379 . S
C454 C451 1.363 . S
C454 N452 1.356 . S
C455 C449 1.363 . S
C455 C450 1.379 . S
C455 N453 1.356 . S
N456 C448 1.356 . S
N456 H462 0.984 . S
N456 H463 0.984 . S
N457 C450 1.356 . S
N457 H460 0.984 . S
N457 H461 0.989 . S
H458 N453 0.984 . S
H459 N453 0.985 . S
H460 N457 0.984 . S
H461 N457 0.989 . S
H462 N456 0.984 . S
H463 N456 0.984 . S
H464 N452 0.984 . S
H465 N452 0.985 . S
C466 C467 1.363 . S
C466 C472 1.379 . S
C466 N474 1.356 . S
C467 C466 1.363 . S
C467 C473 1.363 . S
C468 C469 1.363 . S
C468 C473 1.379 . S
C468 N475 1.356 . S
C469 C468 1.363 . S
C469 C472 1.363 . S
N470 C472 1.356 . S
N470 H482 0.984 . S
N470 H483 0.985 . S
N471 C473 1.356 . S
N471 H476 0.984 . S
N471 H477 0.985 . S
C472 C466 1.379 . S
C472 C469 1.363 . S
C472 N470 1.356 . S
C473 C467 1.363 . S
C473 C468 1.379 . S
C473 N471 1.356 . S
N474 C466 1.356 . S
N474 H480 0.984 . S
N474 H481 0.984 . S
N475 C468 1.356 . S
N475 H478 0.984 . S
N475 H479 0.985 . S
H476 N471 0.984 . S
H477 N471 0.985 . S
H478 N475 0.984 . S
H479 N475 0.985 . S
H480 N474 0.984 . S
H481 N474 0.984 . S
H482 N470 0.984 . S
H483 N470 0.985 . S
C484 C485 1.363 . S
C484 C490 1.379 . S
C484 N492 1.356 . S
C485 C484 1.363 . S
C485 C491 1.363 . S
C486 C487 1.363 . S
C486 C491 1.379 . S
C486 N493 1.356 . S
C487 C486 1.363 . S
C487 C490 1.363 . S
N488 C490 1.356 . S
N488 H500 0.984 . S
N488 H501 0.985 . S
N489 C491 1.356 . S
N489 H494 0.984 . S
N489 H495 0.985 . S
C490 C484 1.379 . S
C490 C487 1.363 . S
C490 N488 1.356 . S
C491 C485 1.363 . S
C491 C486 1.379 . S
C491 N489 1.356 . S
N492 C484 1.356 . S
N492 H498 0.984 . S
N492 H499 0.984 . S
N493 C486 1.356 . S
N493 H496 0.984 . S
N493 H497 0.985 1_554 S
H494 N489 0.984 . S
H495 N489 0.985 . S
H496 N493 0.984 . S
H497 N493 0.985 1_556 S
H498 N492 0.984 . S
H499 N492 0.984 . S
H500 N488 0.984 . S
H501 N488 0.985 . S
C502 C503 1.363 . S
C502 C508 1.379 . S
C502 N510 1.356 . S
C503 C502 1.363 . S
C503 C509 1.363 . S
C504 C505 1.363 . S
C504 C509 1.379 . S
C504 N511 1.356 . S
C505 C504 1.363 . S
C505 C508 1.363 . S
N506 C508 1.356 1_554 S
N506 H518 0.984 . S
N506 H519 0.985 . S
N507 C509 1.356 . S
N507 H512 0.984 . S
N507 H513 0.985 . S
C508 C502 1.379 . S
C508 C505 1.363 . S
C508 N506 1.356 1_556 S
C509 C503 1.363 . S
C509 C504 1.379 . S
C509 N507 1.356 . S
N510 C502 1.356 . S
N510 H516 0.984 1_556 S
N510 H517 0.984 . S
N511 C504 1.356 . S
N511 H514 0.984 . S
N511 H515 0.985 . S
H512 N507 0.984 . S
H513 N507 0.985 . S
H514 N511 0.984 . S
H515 N511 0.985 . S
H516 N510 0.984 1_554 S
H517 N510 0.984 . S
H518 N506 0.984 . S
H519 N506 0.985 . S
C520 C521 1.363 . S
C520 C526 1.379 . S
C520 N528 1.356 . S
C521 C520 1.363 . S
C521 C527 1.363 . S
C522 C523 1.363 . S
C522 C527 1.379 . S
C522 N529 1.356 . S
C523 C522 1.363 . S
C523 C526 1.363 . S
N524 C526 1.356 . S
N524 H536 0.984 . S
N524 H537 0.985 . S
N525 C527 1.356 . S
N525 H530 0.984 . S
N525 H531 0.985 . S
C526 C520 1.379 . S
C526 C523 1.363 . S
C526 N524 1.356 . S
C527 C521 1.363 . S
C527 C522 1.379 . S
C527 N525 1.356 . S
N528 C520 1.356 . S
N528 H534 0.984 . S
N528 H535 0.984 . S
N529 C522 1.356 . S
N529 H532 0.984 . S
N529 H533 0.985 . S
H530 N525 0.984 . S
H531 N525 0.985 . S
H532 N529 0.984 . S
H533 N529 0.985 . S
H534 N528 0.984 . S
H535 N528 0.984 . S
H536 N524 0.984 . S
H537 N524 0.985 . S
C538 C539 1.363 . S
C538 C544 1.379 . S
C538 N546 1.356 . S
C539 C538 1.363 . S
C539 C545 1.363 . S
C540 C541 1.363 . S
C540 C545 1.379 . S
C540 N547 1.356 . S
C541 C540 1.363 . S
C541 C544 1.363 . S
N542 C544 1.356 . S
N542 H554 0.984 . S
N542 H555 0.985 . S
N543 C545 1.356 . S
N543 H548 0.984 . S
N543 H549 0.985 . S
C544 C538 1.379 . S
C544 C541 1.363 . S
C544 N542 1.356 . S
C545 C539 1.363 . S
C545 C540 1.379 . S
C545 N543 1.356 . S
N546 C538 1.356 . S
N546 H552 0.984 . S
N546 H553 0.984 . S
N547 C540 1.356 . S
N547 H550 0.984 . S
N547 H551 0.985 . S
H548 N543 0.984 . S
H549 N543 0.985 . S
H550 N547 0.984 . S
H551 N547 0.985 . S
H552 N546 0.984 . S
H553 N546 0.984 . S
H554 N542 0.984 . S
H555 N542 0.985 . S
C556 C557 1.363 1_465 S
C556 C562 1.379 . S
C556 N564 1.356 . S
C557 C556 1.363 1_645 S
C557 C563 1.363 . S
C558 C559 1.363 . S
C558 C563 1.379 . S
C558 N565 1.356 . S
C559 C558 1.363 . S
C559 C562 1.363 1_645 S
N560 C562 1.356 . S
N560 H572 0.984 . S
N560 H573 0.985 . S
N561 C563 1.356 . S
N561 H566 0.984 . S
N561 H567 0.985 . S
C562 C556 1.379 . S
C562 C559 1.363 1_465 S
C562 N560 1.356 . S
C563 C557 1.363 . S
C563 C558 1.379 . S
C563 N561 1.356 . S
N564 C556 1.356 . S
N564 H570 0.984 . S
N564 H571 0.984 . S
N565 C558 1.356 . S
N565 H568 0.984 . S
N565 H569 0.985 . S
H566 N561 0.984 . S
H567 N561 0.985 . S
H568 N565 0.984 . S
H569 N565 0.985 . S
H570 N564 0.984 . S
H571 N564 0.984 . S
H572 N560 0.984 . S
H573 N560 0.985 . S
C574 C575 1.363 . S
C574 C580 1.379 . S
C574 N582 1.356 . S
C575 C574 1.363 . S
C575 C581 1.363 . S
C576 C577 1.363 . S
C576 C581 1.379 . S
C576 N583 1.356 . S
C577 C576 1.363 . S
C577 C580 1.363 . S
N578 C580 1.356 1_565 S
N578 H590 0.984 . S
N578 H591 0.985 . S
N579 C581 1.356 . S
N579 H584 0.984 . S
N579 H585 0.985 . S
C580 C574 1.379 . S
C580 C577 1.363 . S
C580 N578 1.356 1_545 S
C581 C575 1.363 . S
C581 C576 1.379 . S
C581 N579 1.356 . S
N582 C574 1.356 . S
N582 H588 0.984 1_545 S
N582 H589 0.984 . S
N583 C576 1.356 . S
N583 H586 0.984 . S
N583 H587 0.985 . S
H584 N579 0.984 . S
H585 N579 0.985 . S
H586 N583 0.984 . S
H587 N583 0.985 . S
H588 N582 0.984 1_565 S
H589 N582 0.984 . S
H590 N578 0.984 . S
H591 N578 0.985 . S
C592 C593 1.363 . S
C592 C598 1.379 . S
C592 N600 1.356 . S
C593 C592 1.363 . S
C593 C599 1.363 . S
C594 C595 1.363 . S
C594 C599 1.379 . S
C594 N601 1.356 . S
C595 C594 1.363 . S
C595 C598 1.363 . S
N596 C598 1.356 . S
N596 H608 0.984 . S
N596 H609 0.985 . S
N597 C599 1.356 . S
N597 H602 0.984 . S
N597 H603 0.985 . S
C598 C592 1.379 . S
C598 C595 1.363 . S
C598 N596 1.356 . S
C599 C593 1.363 . S
C599 C594 1.379 . S
C599 N597 1.356 . S
N600 C592 1.356 . S
N600 H606 0.984 . S
N600 H607 0.984 . S
N601 C594 1.356 . S
N601 H604 0.984 . S
N601 H605 0.985 . S
H602 N597 0.984 . S
H603 N597 0.985 . S
H604 N601 0.984 . S
H605 N601 0.985 . S
H606 N600 0.984 . S
H607 N600 0.984 . S
H608 N596 0.984 . S
H609 N596 0.985 . S
C610 C611 1.363 . S
C610 C616 1.379 . S
C610 N618 1.362 . S
C611 C610 1.363 . S
C611 C617 1.363 . S
C612 C613 1.363 . S
C612 C617 1.379 . S
C612 N619 1.356 . S
C613 C612 1.363 . S
C613 C616 1.363 . S
N614 C616 1.356 . S
N614 H626 0.984 1_455 S
N614 H627 0.985 . S
N615 C617 1.356 . S
N615 H620 0.984 . S
N615 H621 0.985 . S
C616 C610 1.379 . S
C616 C613 1.363 . S
C616 N614 1.356 . S
C617 C611 1.363 . S
C617 C612 1.379 . S
C617 N615 1.356 . S
N618 C610 1.362 . S
N618 H624 0.977 1_455 S
N618 H625 0.986 . S
N619 C612 1.356 . S
N619 H622 0.984 . S
N619 H623 0.985 . S
H620 N615 0.984 . S
H621 N615 0.985 . S
H622 N619 0.984 . S
H623 N619 0.985 . S
H624 N618 0.977 1_655 S
H625 N618 0.986 . S
H626 N614 0.984 1_655 S
H627 N614 0.985 . S
C628 C629 1.363 1_546 S
C628 C634 1.379 . S
C628 N636 1.356 . S
C629 C628 1.363 1_564 S
C629 C635 1.363 . S
C630 C631 1.363 . S
C630 C635 1.379 . S
C630 N637 1.356 . S
C631 C630 1.363 . S
C631 C634 1.363 1_564 S
N632 C634 1.356 . S
N632 H644 0.984 . S
N632 H645 0.985 . S
N633 C635 1.356 . S
N633 H638 0.984 . S
N633 H639 0.985 . S
C634 C628 1.379 . S
C634 C631 1.363 1_546 S
C634 N632 1.356 . S
C635 C629 1.363 . S
C635 C630 1.379 . S
C635 N633 1.356 . S
N636 C628 1.356 . S
N636 H642 0.984 . S
N636 H643 0.984 . S
N637 C630 1.356 . S
N637 H640 0.984 . S
N637 H641 0.985 . S
H638 N633 0.984 . S
H639 N633 0.985 . S
H640 N637 0.984 . S
H641 N637 0.985 . S
H642 N636 0.984 . S
H643 N636 0.984 . S
H644 N632 0.984 . S
H645 N632 0.985 . S
C646 C647 1.363 . S
C646 C652 1.379 . S
C646 N654 1.356 . S
C647 C646 1.363 . S
C647 C653 1.363 . S
C648 C649 1.363 . S
C648 C653 1.379 . S
C648 N655 1.356 . S
C649 C648 1.363 . S
C649 C652 1.363 . S
N650 C652 1.356 . S
N650 H662 0.984 . S
N650 H663 0.985 . S
N651 C653 1.356 . S
N651 H656 0.984 . S
N651 H657 0.985 1_545 S
C652 C646 1.379 . S
C652 C649 1.363 . S
C652 N650 1.356 . S
C653 C647 1.363 . S
C653 C648 1.379 . S
C653 N651 1.356 . S
N654 C646 1.356 . S
N654 H660 0.984 . S
N654 H661 0.984 . S
N655 C648 1.356 . S
N655 H658 0.984 . S
N655 H659 0.985 1_545 S
H656 N651 0.984 . S
H657 N651 0.985 1_565 S
H658 N655 0.984 . S
H659 N655 0.985 1_565 S
H660 N654 0.984 . S
H661 N654 0.984 . S
H662 N650 0.984 . S
H663 N650 0.985 . S
C664 C665 1.363 . S
C664 C670 1.379 . S
C664 N672 1.356 . S
C665 C664 1.363 . S
C665 C671 1.363 1_554 S
C666 C667 1.363 1_556 S
C666 C671 1.379 . S
C666 N673 1.356 . S
C667 C666 1.363 1_554 S
C667 C670 1.363 . S
N668 C670 1.356 . S
N668 H680 0.984 . S
N668 H681 0.985 . S
N669 C671 1.356 . S
N669 H674 0.984 . S
N669 H675 0.985 . S
C670 C664 1.379 . S
C670 C667 1.363 . S
C670 N668 1.356 . S
C671 C665 1.363 1_556 S
C671 C666 1.379 . S
C671 N669 1.356 . S
N672 C664 1.356 . S
N672 H678 0.984 . S
N672 H679 0.984 . S
N673 C666 1.356 . S
N673 H676 0.984 . S
N673 H677 0.985 . S
H674 N669 0.984 . S
H675 N669 0.985 . S
H676 N673 0.984 . S
H677 N673 0.985 . S
H678 N672 0.984 . S
H679 N672 0.984 . S
H680 N668 0.984 . S
H681 N668 0.985 . S
C682 C683 1.363 . S
C682 C688 1.379 . S
C682 N690 1.356 . S
C683 C682 1.363 . S
C683 C689 1.363 . S
C684 C685 1.363 . S
C684 C689 1.379 . S
C684 N691 1.356 . S
C685 C684 1.363 . S
C685 C688 1.363 . S
N686 C688 1.356 . S
N686 H698 0.984 . S
N686 H699 0.985 . S
N687 C689 1.356 . S
N687 H692 0.984 . S
N687 H693 0.985 . S
C688 C682 1.379 . S
C688 C685 1.363 . S
C688 N686 1.356 . S
C689 C683 1.363 . S
C689 C684 1.379 . S
C689 N687 1.356 . S
N690 C682 1.356 . S
N690 H696 0.984 . S
N690 H697 0.984 . S
N691 C684 1.356 . S
N691 H694 0.984 . S
N691 H695 0.985 . S
H692 N687 0.984 . S
H693 N687 0.985 . S
H694 N691 0.984 . S
H695 N691 0.985 . S
H696 N690 0.984 . S
H697 N690 0.984 . S
H698 N686 0.984 . S
H699 N686 0.985 . S
C700 C701 1.363 1_655 S
C700 C706 1.379 . S
C700 N708 1.356 . S
C701 C700 1.363 1_455 S
C701 C707 1.363 1_556 S
C702 C703 1.363 1_554 S
C702 C707 1.379 . S
C702 N709 1.356 . S
C703 C702 1.363 1_556 S
C703 C706 1.363 1_455 S
N704 C706 1.356 . S
N704 H716 0.984 . S
N704 H717 0.985 . S
N705 C707 1.356 . S
N705 H710 0.984 . S
N705 H711 0.985 . S
C706 C700 1.379 . S
C706 C703 1.363 1_655 S
C706 N704 1.356 . S
C707 C701 1.363 1_554 S
C707 C702 1.379 . S
C707 N705 1.356 . S
N708 C700 1.356 . S
N708 H714 0.984 . S
N708 H715 0.984 . S
N709 C702 1.356 . S
N709 H712 0.984 . S
N709 H713 0.985 . S
H710 N705 0.984 . S
H711 N705 0.985 . S
H712 N709 0.984 . S
H713 N709 0.985 . S
H714 N708 0.984 . S
H715 N708 0.984 . S
H716 N704 0.984 . S
H717 N704 0.985 . S
C718 C719 1.363 . S
C718 C724 1.379 . S
C718 N726 1.356 1_554 S
C719 C718 1.363 . S
C719 C725 1.363 . S
C720 C721 1.363 . S
C720 C725 1.379 . S
C720 N727 1.356 . S
C721 C720 1.363 . S
C721 C724 1.363 . S
N722 C724 1.356 . S
N722 H734 0.984 1_554 S
N722 H735 0.985 . S
N723 C725 1.356 . S
N723 H728 0.984 . S
N723 H729 0.985 . S
C724 C718 1.379 . S
C724 C721 1.363 . S
C724 N722 1.356 . S
C725 C719 1.363 . S
C725 C720 1.379 . S
C725 N723 1.356 . S
N726 C718 1.356 1_556 S
N726 H732 0.984 . S
N726 H733 0.989 . S
N727 C720 1.356 . S
N727 H730 0.984 . S
N727 H731 0.985 . S
H728 N723 0.984 . S
H729 N723 0.985 . S
H730 N727 0.984 . S
H731 N727 0.985 . S
H732 N726 0.984 . S
H733 N726 0.989 . S
H734 N722 0.984 1_556 S
H735 N722 0.985 . S
C736 C737 1.363 . S
C736 C742 1.379 . S
C736 N744 1.356 1_455 S
C737 C736 1.363 . S
C737 C743 1.363 . S
C738 C739 1.363 . S
C738 C743 1.379 . S
C738 N745 1.356 . S
C739 C738 1.363 . S
C739 C742 1.363 . S
N740 C742 1.356 1_655 S
N740 H752 0.984 . S
N740 H753 0.985 . S
N741 C743 1.356 . S
N741 H746 0.984 . S
N741 H747 0.985 . S
C742 C736 1.379 . S
C742 C739 1.363 . S
C742 N740 1.356 1_455 S
C743 C737 1.363 . S
C743 C738 1.379 . S
C743 N741 1.356 . S
N744 C736 1.356 1_655 S
N744 H750 0.984 . S
N744 H751 0.984 . S
N745 C738 1.356 . S
N745 H748 0.984 . S
N745 H749 0.985 . S
H746 N741 0.984 . S
H747 N741 0.985 . S
H748 N745 0.984 . S
H749 N745 0.985 . S
H750 N744 0.984 . S
H751 N744 0.984 . S
H752 N740 0.984 . S
H753 N740 0.985 . S
C754 C755 1.363 . S
C754 C760 1.379 . S
C754 N762 1.356 . S
C755 C754 1.363 . S
C755 C761 1.363 . S
C756 C757 1.363 . S
C756 C761 1.379 . S
C756 N763 1.356 . S
C757 C756 1.363 . S
C757 C760 1.363 . S
N758 C760 1.356 . S
N758 H770 0.984 . S
N758 H771 0.985 . S
N759 C761 1.356 . S
N759 H764 0.984 . S
N759 H765 0.985 . S
C760 C754 1.379 . S
C760 C757 1.363 . S
C760 N758 1.356 . S
C761 C755 1.363 . S
C761 C756 1.379 . S
C761 N759 1.356 . S
N762 C754 1.356 . S
N762 H768 0.984 . S
N762 H769 0.984 . S
N763 C756 1.356 . S
N763 H766 0.984 . S
N763 H767 0.985 . S
H764 N759 0.984 . S
H765 N759 0.985 . S
H766 N763 0.984 . S
H767 N763 0.985 . S
H768 N762 0.984 . S
H769 N762 0.984 . S
H770 N758 0.984 . S
H771 N758 0.985 . S
C341 C29 1.541 . S
C343 C259 1.470 . S
C359 C49 1.464 . S
C361 C293 1.389 . S
C379 C305 1.426 . S
C377 C93 1.499 . S
C395 C119 1.448 . S
C397 C339 1.375 . S
C415 C296 1.427 . S
C413 C17 1.487 . S
C433 C276 1.436 . S
C431 C61 1.508 . S
C451 C323 1.391 . S
C449 C81 1.454 . S
C469 C314 1.434 . S
C467 C125 1.510 . S
C485 C23 1.481 . S
C487 C322 1.400 . S
C505 C284 1.376 . S
C503 C87 1.461 . S
C521 C113 1.515 . S
C523 C260 1.442 . S
C539 C55 1.484 . S
C541 C317 1.418 . S
C559 C275 1.572 . S
C557 C157 1.717 1_545 S
C575 C189 1.521 . S
C577 C297 1.593 . S
C593 C221 1.742 . S
C595 C302 1.592 . S
C611 C253 1.543 . S
C613 C335 1.628 . S
C629 C145 1.761 . S
C631 C280 1.636 . S
C649 C272 1.583 . S
C647 C183 1.526 . S
C667 C326 1.619 . S
C665 C209 1.749 . S
C685 C318 1.575 . S
C683 C247 1.517 . S
C701 C151 1.726 1_455 S
C703 C338 1.594 . S
C721 C281 1.600 . S
C719 C215 1.744 . S
C739 C263 1.594 . S
C737 C241 1.561 . S
C755 C177 1.577 . S
C757 C301 1.623 . S
