# Generated by pormake.
# Topology ptr, (4,4)-cn, num edge types: 1
# Building blocks:
#     Node 0, Type 0, BuildingBlock: NAHDIM_clean_sbu_0, # of connection points: 4
#     Node 1, Type 0, BuildingBlock: NAHDIM_clean_sbu_0, # of connection points: 4
#     Node 2, Type 0, BuildingBlock: NAHDIM_clean_sbu_0, # of connection points: 4
#     Node 3, Type 0, BuildingBlock: NAHDIM_clean_sbu_0, # of connection points: 4
#     Node 4, Type 0, BuildingBlock: NAHDIM_clean_sbu_0, # of connection points: 4
#     Node 5, Type 0, BuildingBlock: NAHDIM_clean_sbu_0, # of connection points: 4
#     Node 6, Type 0, BuildingBlock: NAHDIM_clean_sbu_0, # of connection points: 4
#     Node 7, Type 0, BuildingBlock: NAHDIM_clean_sbu_0, # of connection points: 4
#     Node 8, Type 0, BuildingBlock: NAHDIM_clean_sbu_0, # of connection points: 4
#     Node 9, Type 0, BuildingBlock: NAHDIM_clean_sbu_0, # of connection points: 4
#     Node 10, Type 0, BuildingBlock: NAHDIM_clean_sbu_0, # of connection points: 4
#     Node 11, Type 0, BuildingBlock: NAHDIM_clean_sbu_0, # of connection points: 4
#     Node 12, Type 0, BuildingBlock: NAHDIM_clean_sbu_0, # of connection points: 4
#     Node 13, Type 0, BuildingBlock: NAHDIM_clean_sbu_0, # of connection points: 4
#     Node 14, Type 0, BuildingBlock: NAHDIM_clean_sbu_0, # of connection points: 4
#     Node 15, Type 0, BuildingBlock: NAHDIM_clean_sbu_0, # of connection points: 4
#     Node 16, Type 0, BuildingBlock: NAHDIM_clean_sbu_0, # of connection points: 4
#     Node 17, Type 0, BuildingBlock: NAHDIM_clean_sbu_0, # of connection points: 4
#     Node 18, Type 1, BuildingBlock: MIFKUJ_clean_linker_1, # of connection points: 4
#     Node 19, Type 1, BuildingBlock: MIFKUJ_clean_linker_1, # of connection points: 4
#     Node 20, Type 1, BuildingBlock: MIFKUJ_clean_linker_1, # of connection points: 4
#     Node 21, Type 1, BuildingBlock: MIFKUJ_clean_linker_1, # of connection points: 4
#     Node 22, Type 1, BuildingBlock: MIFKUJ_clean_linker_1, # of connection points: 4
#     Node 23, Type 1, BuildingBlock: MIFKUJ_clean_linker_1, # of connection points: 4
#     Node 24, Type 1, BuildingBlock: MIFKUJ_clean_linker_1, # of connection points: 4
#     Node 25, Type 1, BuildingBlock: MIFKUJ_clean_linker_1, # of connection points: 4
#     Node 26, Type 1, BuildingBlock: MIFKUJ_clean_linker_1, # of connection points: 4
#     Node 27, Type 1, BuildingBlock: MIFKUJ_clean_linker_1, # of connection points: 4
#     Node 28, Type 1, BuildingBlock: MIFKUJ_clean_linker_1, # of connection points: 4
#     Node 29, Type 1, BuildingBlock: MIFKUJ_clean_linker_1, # of connection points: 4
#     Node 30, Type 1, BuildingBlock: MIFKUJ_clean_linker_1, # of connection points: 4
#     Node 31, Type 1, BuildingBlock: MIFKUJ_clean_linker_1, # of connection points: 4
#     Node 32, Type 1, BuildingBlock: MIFKUJ_clean_linker_1, # of connection points: 4
#     Node 33, Type 1, BuildingBlock: MIFKUJ_clean_linker_1, # of connection points: 4
#     Node 34, Type 1, BuildingBlock: MIFKUJ_clean_linker_1, # of connection points: 4
#     Node 35, Type 1, BuildingBlock: MIFKUJ_clean_linker_1, # of connection points: 4
#     Edge 36, Type (0, 1), BuildingBlock: MIFKUJ_clean_linker_0, # of connection points: 2
#     Edge 37, Type (0, 1), BuildingBlock: MIFKUJ_clean_linker_0, # of connection points: 2
#     Edge 38, Type (0, 1), BuildingBlock: MIFKUJ_clean_linker_0, # of connection points: 2
#     Edge 39, Type (0, 1), BuildingBlock: MIFKUJ_clean_linker_0, # of connection points: 2
#     Edge 40, Type (0, 1), BuildingBlock: MIFKUJ_clean_linker_0, # of connection points: 2
#     Edge 41, Type (0, 1), BuildingBlock: MIFKUJ_clean_linker_0, # of connection points: 2
#     Edge 42, Type (0, 1), BuildingBlock: MIFKUJ_clean_linker_0, # of connection points: 2
#     Edge 43, Type (0, 1), BuildingBlock: MIFKUJ_clean_linker_0, # of connection points: 2
#     Edge 44, Type (0, 1), BuildingBlock: MIFKUJ_clean_linker_0, # of connection points: 2
#     Edge 45, Type (0, 1), BuildingBlock: MIFKUJ_clean_linker_0, # of connection points: 2
#     Edge 46, Type (0, 1), BuildingBlock: MIFKUJ_clean_linker_0, # of connection points: 2
#     Edge 47, Type (0, 1), BuildingBlock: MIFKUJ_clean_linker_0, # of connection points: 2
#     Edge 48, Type (0, 1), BuildingBlock: MIFKUJ_clean_linker_0, # of connection points: 2
#     Edge 49, Type (0, 1), BuildingBlock: MIFKUJ_clean_linker_0, # of connection points: 2
#     Edge 50, Type (0, 1), BuildingBlock: MIFKUJ_clean_linker_0, # of connection points: 2
#     Edge 51, Type (0, 1), BuildingBlock: MIFKUJ_clean_linker_0, # of connection points: 2
#     Edge 52, Type (0, 1), BuildingBlock: MIFKUJ_clean_linker_0, # of connection points: 2
#     Edge 53, Type (0, 1), BuildingBlock: MIFKUJ_clean_linker_0, # of connection points: 2
#     Edge 54, Type (0, 1), BuildingBlock: MIFKUJ_clean_linker_0, # of connection points: 2
#     Edge 55, Type (0, 1), BuildingBlock: MIFKUJ_clean_linker_0, # of connection points: 2
#     Edge 56, Type (0, 1), BuildingBlock: MIFKUJ_clean_linker_0, # of connection points: 2
#     Edge 57, Type (0, 1), BuildingBlock: MIFKUJ_clean_linker_0, # of connection points: 2
#     Edge 58, Type (0, 1), BuildingBlock: MIFKUJ_clean_linker_0, # of connection points: 2
#     Edge 59, Type (0, 1), BuildingBlock: MIFKUJ_clean_linker_0, # of connection points: 2
#     Edge 60, Type (0, 1), BuildingBlock: MIFKUJ_clean_linker_0, # of connection points: 2
#     Edge 61, Type (0, 1), BuildingBlock: MIFKUJ_clean_linker_0, # of connection points: 2
#     Edge 62, Type (0, 1), BuildingBlock: MIFKUJ_clean_linker_0, # of connection points: 2
#     Edge 63, Type (0, 1), BuildingBlock: MIFKUJ_clean_linker_0, # of connection points: 2
#     Edge 64, Type (0, 1), BuildingBlock: MIFKUJ_clean_linker_0, # of connection points: 2
#     Edge 65, Type (0, 1), BuildingBlock: MIFKUJ_clean_linker_0, # of connection points: 2
#     Edge 66, Type (0, 1), BuildingBlock: MIFKUJ_clean_linker_0, # of connection points: 2
#     Edge 67, Type (0, 1), BuildingBlock: MIFKUJ_clean_linker_0, # of connection points: 2
#     Edge 68, Type (0, 1), BuildingBlock: MIFKUJ_clean_linker_0, # of connection points: 2
#     Edge 69, Type (0, 1), BuildingBlock: MIFKUJ_clean_linker_0, # of connection points: 2
#     Edge 70, Type (0, 1), BuildingBlock: MIFKUJ_clean_linker_0, # of connection points: 2
#     Edge 71, Type (0, 1), BuildingBlock: MIFKUJ_clean_linker_0, # of connection points: 2
#     Edge 72, Type (0, 1), BuildingBlock: MIFKUJ_clean_linker_0, # of connection points: 2
#     Edge 73, Type (0, 1), BuildingBlock: MIFKUJ_clean_linker_0, # of connection points: 2
#     Edge 74, Type (0, 1), BuildingBlock: MIFKUJ_clean_linker_0, # of connection points: 2
#     Edge 75, Type (0, 1), BuildingBlock: MIFKUJ_clean_linker_0, # of connection points: 2
#     Edge 76, Type (0, 1), BuildingBlock: MIFKUJ_clean_linker_0, # of connection points: 2
#     Edge 77, Type (0, 1), BuildingBlock: MIFKUJ_clean_linker_0, # of connection points: 2
#     Edge 78, Type (0, 1), BuildingBlock: MIFKUJ_clean_linker_0, # of connection points: 2
#     Edge 79, Type (0, 1), BuildingBlock: MIFKUJ_clean_linker_0, # of connection points: 2
#     Edge 80, Type (0, 1), BuildingBlock: MIFKUJ_clean_linker_0, # of connection points: 2
#     Edge 81, Type (0, 1), BuildingBlock: MIFKUJ_clean_linker_0, # of connection points: 2
#     Edge 82, Type (0, 1), BuildingBlock: MIFKUJ_clean_linker_0, # of connection points: 2
#     Edge 83, Type (0, 1), BuildingBlock: MIFKUJ_clean_linker_0, # of connection points: 2
#     Edge 84, Type (0, 1), BuildingBlock: MIFKUJ_clean_linker_0, # of connection points: 2
#     Edge 85, Type (0, 1), BuildingBlock: MIFKUJ_clean_linker_0, # of connection points: 2
#     Edge 86, Type (0, 1), BuildingBlock: MIFKUJ_clean_linker_0, # of connection points: 2
#     Edge 87, Type (0, 1), BuildingBlock: MIFKUJ_clean_linker_0, # of connection points: 2
#     Edge 88, Type (0, 1), BuildingBlock: MIFKUJ_clean_linker_0, # of connection points: 2
#     Edge 89, Type (0, 1), BuildingBlock: MIFKUJ_clean_linker_0, # of connection points: 2
#     Edge 90, Type (0, 1), BuildingBlock: MIFKUJ_clean_linker_0, # of connection points: 2
#     Edge 91, Type (0, 1), BuildingBlock: MIFKUJ_clean_linker_0, # of connection points: 2
#     Edge 92, Type (0, 1), BuildingBlock: MIFKUJ_clean_linker_0, # of connection points: 2
#     Edge 93, Type (0, 1), BuildingBlock: MIFKUJ_clean_linker_0, # of connection points: 2
#     Edge 94, Type (0, 1), BuildingBlock: MIFKUJ_clean_linker_0, # of connection points: 2
#     Edge 95, Type (0, 1), BuildingBlock: MIFKUJ_clean_linker_0, # of connection points: 2
#     Edge 96, Type (0, 1), BuildingBlock: MIFKUJ_clean_linker_0, # of connection points: 2
#     Edge 97, Type (0, 1), BuildingBlock: MIFKUJ_clean_linker_0, # of connection points: 2
#     Edge 98, Type (0, 1), BuildingBlock: MIFKUJ_clean_linker_0, # of connection points: 2
#     Edge 99, Type (0, 1), BuildingBlock: MIFKUJ_clean_linker_0, # of connection points: 2
#     Edge 100, Type (0, 1), BuildingBlock: MIFKUJ_clean_linker_0, # of connection points: 2
#     Edge 101, Type (0, 1), BuildingBlock: MIFKUJ_clean_linker_0, # of connection points: 2
#     Edge 102, Type (0, 1), BuildingBlock: MIFKUJ_clean_linker_0, # of connection points: 2
#     Edge 103, Type (0, 1), BuildingBlock: MIFKUJ_clean_linker_0, # of connection points: 2
#     Edge 104, Type (0, 1), BuildingBlock: MIFKUJ_clean_linker_0, # of connection points: 2
#     Edge 105, Type (0, 1), BuildingBlock: MIFKUJ_clean_linker_0, # of connection points: 2
#     Edge 106, Type (0, 1), BuildingBlock: MIFKUJ_clean_linker_0, # of connection points: 2
#     Edge 107, Type (0, 1), BuildingBlock: MIFKUJ_clean_linker_0, # of connection points: 2
# Relax obj value: 0.073
# Max RMSD: 0.245
# Mean RMSD: 0.109
data_MOF--net-ptr--node1-NAHDIM_clean_sbu_0--node2-MIFKUJ_clean_linker_1--edge1-MIFKUJ_clean_linker_0
_symmetry_space_group_name_H-M    P1
_symmetry_Int_Tables_number       1
_symmetry_cell_setting            triclinic
loop_
_symmetry_equiv_pos_as_xyz
'x, y, z'
_cell_length_a     113.69026
_cell_length_b     111.62707
_cell_length_c     75.510264
_cell_angle_alpha  91.584162
_cell_angle_beta   89.197126
_cell_angle_gamma 121.74681
loop_
_atom_site_label
_atom_site_type_symbol
_atom_site_fract_x
_atom_site_fract_y
_atom_site_fract_z
_atom_type_partial_charge
C0 C 0.02589 0.35486 0.03615 0.0
O1 O 0.0164 0.35434 0.04678 0.0
O2 O 0.99344 0.33993 0.0047 0.0
Zn3 Zn 0.0098 0.35907 0.01155 0.0
O4 O 0.0049 0.36841 0.03101 0.0
C5 C 0.00509 0.37215 0.98415 0.0
O6 O 0.99302 0.36534 0.9921 0.0
O7 O 0.02555 0.35716 0.01981 0.0
C8 C 0.99351 0.36267 0.0394 0.0
O9 O 0.98379 0.34963 0.03537 0.0
C10 C 0.99367 0.32869 0.0054 0.0
O11 O 0.00473 0.3293 0.01154 0.0
O12 O 0.01495 0.3712 0.99017 0.0
C13 C 0.67662 0.64972 0.98781 0.0
O14 O 0.6669 0.64805 0.97697 0.0
O15 O 0.65964 0.66484 0.02219 0.0
Zn16 Zn 0.65631 0.64607 0.01362 0.0
O17 O 0.64184 0.63766 0.99437 0.0
C18 C 0.63805 0.63083 0.04105 0.0
O19 O 0.63222 0.63728 0.03457 0.0
O20 O 0.67433 0.64889 0.00439 0.0
C21 C 0.63526 0.64319 0.98896 0.0
O22 O 0.63775 0.65514 0.9962 0.0
C23 C 0.66861 0.67631 0.01509 0.0
O24 O 0.67573 0.67596 0.00145 0.0
O25 O 0.64921 0.63293 0.0341 0.0
C26 C 0.34197 0.02271 0.99382 0.0
O27 O 0.33695 0.01012 0.98651 0.0
O28 O 0.33358 0.99532 0.0261 0.0
Zn29 Zn 0.35185 0.01068 0.01679 0.0
O30 O 0.35827 0.00344 0.99654 0.0
C31 C 0.36377 0.01649 0.0523 0.0
O32 O 0.35089 0.01074 0.05763 0.0
O33 O 0.34922 0.0259 0.0078 0.0
C34 C 0.36865 0.01272 0.98795 0.0
O35 O 0.37425 0.02604 0.99271 0.0
C36 C 0.33174 0.98413 0.03275 0.0
O37 O 0.34214 0.98216 0.03335 0.0
O38 O 0.36644 0.01795 0.03582 0.0
C39 C 0.97568 0.65501 0.98734 0.0
O40 O 0.98475 0.65476 0.97662 0.0
O41 O 0.00608 0.66628 0.02076 0.0
Zn42 Zn 0.98988 0.64798 0.01156 0.0
O43 O 0.99483 0.63925 0.99127 0.0
C44 C 0.992 0.63156 0.03677 0.0
O45 O 0.00429 0.63801 0.02934 0.0
O46 O 0.97544 0.65194 0.00349 0.0
C47 C 0.00684 0.64261 0.98605 0.0
O48 O 0.01777 0.65302 0.99409 0.0
C49 C 0.0136 0.67698 0.01138 0.0
O50 O 0.0114 0.67619 0.99424 0.0
O51 O 0.98306 0.6342 0.03144 0.0
C52 C 0.31733 0.34847 0.01521 0.0
O53 O 0.3171 0.34284 0.99961 0.0
O54 O 0.34258 0.33923 0.00448 0.0
Zn55 Zn 0.34644 0.35789 0.01424 0.0
O56 O 0.35971 0.36427 0.03469 0.0
C57 C 0.3625 0.3713 0.98357 0.0
O58 O 0.3646 0.36084 0.98447 0.0
O59 O 0.32875 0.35567 0.02344 0.0
C60 C 0.37102 0.36452 0.03395 0.0
O61 O 0.37429 0.36033 0.0193 0.0
C62 C 0.33406 0.3276 0.0116 0.0
O63 O 0.32764 0.32762 0.0262 0.0
O64 O 0.35471 0.37229 0.995 0.0
C65 C 0.66025 0.97857 0.00953 0.0
O66 O 0.66947 0.98839 0.99919 0.0
O67 O 0.6633 0.00928 0.99449 0.0
Zn68 Zn 0.64603 0.99359 0.00557 0.0
O69 O 0.6405 0.00068 0.02687 0.0
C70 C 0.63235 0.98469 0.97146 0.0
O71 O 0.64456 0.98759 0.96589 0.0
O72 O 0.64929 0.97847 0.01348 0.0
C73 C 0.63596 0.00882 0.02511 0.0
O74 O 0.63549 0.01305 0.00921 0.0
C75 C 0.67272 0.01982 0.00318 0.0
O76 O 0.67112 0.02097 0.02028 0.0
O77 O 0.63055 0.98602 0.98787 0.0
C78 C 0.69196 0.68018 0.34585 0.0
O79 O 0.68305 0.67115 0.33414 0.0
O80 O 0.66038 0.67402 0.3337 0.0
Zn81 Zn 0.67639 0.6934 0.34083 0.0
O82 O 0.671 0.70253 0.36009 0.0
C83 C 0.67502 0.70434 0.3074 0.0
O84 O 0.66204 0.69399 0.30834 0.0
O85 O 0.69146 0.69096 0.35041 0.0
C86 C 0.66309 0.70714 0.35736 0.0
O87 O 0.65797 0.70592 0.34147 0.0
C88 C 0.64753 0.6689 0.33621 0.0
O89 O 0.64331 0.67652 0.34432 0.0
O90 O 0.68332 0.70602 0.31969 0.0
C91 C 0.33617 0.98478 0.3227 0.0
O92 O 0.3292 0.98938 0.31457 0.0
O93 O 0.32046 0.99676 0.35932 0.0
Zn94 Zn 0.31512 0.97798 0.34825 0.0
O95 O 0.30107 0.97244 0.32892 0.0
C96 C 0.30966 0.96613 0.38315 0.0
O97 O 0.31839 0.97927 0.38813 0.0
O98 O 0.33206 0.97927 0.33778 0.0
C99 C 0.28868 0.96887 0.33227 0.0
O100 O 0.28503 0.96919 0.34878 0.0
C101 C 0.3206 0.00655 0.35093 0.0
O102 O 0.31684 0.00441 0.33421 0.0
O103 O 0.3069 0.96312 0.36678 0.0
C104 C 0.03334 0.36945 0.32758 0.0
O105 O 0.04439 0.36907 0.32333 0.0
O106 O 0.008 0.33003 0.35739 0.0
Zn107 Zn 0.02591 0.34411 0.34588 0.0
O108 O 0.03021 0.33547 0.32502 0.0
C109 C 0.04051 0.35486 0.37924 0.0
O110 O 0.02935 0.35483 0.38414 0.0
O111 O 0.02422 0.36001 0.33745 0.0
C112 C 0.02806 0.32308 0.32499 0.0
O113 O 0.0224 0.31528 0.33895 0.0
C114 C 0.99724 0.32184 0.34831 0.0
O115 O 0.99794 0.32232 0.33094 0.0
O116 O 0.04132 0.351 0.36352 0.0
C117 C 0.64707 0.98394 0.31589 0.0
O118 O 0.65824 0.98751 0.30656 0.0
O119 O 0.67616 0.99656 0.35069 0.0
Zn120 Zn 0.66171 0.97763 0.34042 0.0
O121 O 0.66917 0.97144 0.32006 0.0
C122 C 0.66395 0.96207 0.36795 0.0
O123 O 0.67707 0.97036 0.36394 0.0
O124 O 0.64597 0.97913 0.3313 0.0
C125 C 0.68134 0.97369 0.31885 0.0
O126 O 0.69031 0.98077 0.33157 0.0
C127 C 0.68495 0.00673 0.34135 0.0
O128 O 0.68505 0.00492 0.3241 0.0
O129 O 0.65497 0.96323 0.35963 0.0
C130 C 0.98533 0.68266 0.34838 0.0
O131 O 0.98554 0.67714 0.33287 0.0
O132 O 0.01429 0.67884 0.33606 0.0
Zn133 Zn 0.01524 0.69606 0.34659 0.0
O134 O 0.02876 0.70359 0.36676 0.0
C135 C 0.01845 0.70696 0.3117 0.0
O136 O 0.01052 0.69349 0.30758 0.0
O137 O 0.99668 0.69109 0.35623 0.0
C138 C 0.04154 0.70833 0.3643 0.0
O139 O 0.046 0.70835 0.34815 0.0
C140 C 0.00733 0.66685 0.34309 0.0
O141 O 0.00063 0.66557 0.35792 0.0
O142 O 0.02165 0.71071 0.32783 0.0
C143 C 0.32034 0.30877 0.33944 0.0
O144 O 0.32835 0.31686 0.32672 0.0
O145 O 0.32639 0.34139 0.32748 0.0
Zn146 Zn 0.30826 0.3259 0.33709 0.0
O147 O 0.30212 0.33277 0.35808 0.0
C148 C 0.29456 0.31416 0.3031 0.0
O149 O 0.30579 0.31409 0.29903 0.0
O150 O 0.31079 0.31045 0.34547 0.0
C151 C 0.30506 0.34536 0.36069 0.0
O152 O 0.31284 0.35501 0.34919 0.0
C153 C 0.32743 0.34968 0.31552 0.0
O154 O 0.31619 0.34864 0.3093 0.0
O155 O 0.29349 0.31856 0.31839 0.0
C156 C 0.35502 0.01706 0.69245 0.0
O157 O 0.34222 0.00629 0.69142 0.0
O158 O 0.32775 0.01191 0.66668 0.0
Zn159 Zn 0.34256 0.03075 0.67677 0.0
O160 O 0.33465 0.0369 0.69651 0.0
C161 C 0.35016 0.04248 0.64154 0.0
O162 O 0.34581 0.02944 0.63648 0.0
O163 O 0.35786 0.02891 0.68678 0.0
C164 C 0.3289 0.04376 0.6933 0.0
O165 O 0.32795 0.04665 0.67682 0.0
C166 C 0.31736 0.00994 0.65801 0.0
O167 O 0.31594 0.02067 0.65515 0.0
O168 O 0.34998 0.04537 0.6579 0.0
C169 C 0.01377 0.32753 0.65886 0.0
O170 O 0.00813 0.33506 0.65649 0.0
O171 O 0.98933 0.32838 0.6862 0.0
Zn172 Zn 0.98832 0.31081 0.67679 0.0
O173 O 0.97454 0.30228 0.65677 0.0
C174 C 0.98459 0.30056 0.71255 0.0
O175 O 0.99166 0.31405 0.7168 0.0
O176 O 0.0071 0.31621 0.66745 0.0
C177 C 0.9619 0.29305 0.65959 0.0
O178 O 0.95777 0.28907 0.67588 0.0
C179 C 0.97914 0.32836 0.69337 0.0
O180 O 0.96724 0.3164 0.6947 0.0
O181 O 0.98236 0.29676 0.6963 0.0
C182 C 0.67976 0.68732 0.65425 0.0
O183 O 0.67583 0.67501 0.64674 0.0
O184 O 0.67154 0.66234 0.69222 0.0
Zn185 Zn 0.68917 0.67625 0.68004 0.0
O186 O 0.69418 0.66666 0.66111 0.0
C187 C 0.70554 0.6768 0.70797 0.0
O188 O 0.69703 0.66317 0.70544 0.0
O189 O 0.68618 0.69061 0.66894 0.0
C190 C 0.70562 0.67405 0.65311 0.0
O191 O 0.71365 0.68741 0.65773 0.0
C192 C 0.66183 0.65137 0.68451 0.0
O193 O 0.66335 0.64865 0.66788 0.0
O194 O 0.70435 0.68522 0.69825 0.0
C195 C 0.31683 0.33004 0.66091 0.0
O196 O 0.33021 0.33869 0.65888 0.0
O197 O 0.34186 0.33291 0.69053 0.0
Zn198 Zn 0.32682 0.31511 0.67867 0.0
O199 O 0.33426 0.30876 0.65857 0.0
C200 C 0.32673 0.29634 0.70267 0.0
O201 O 0.33943 0.30256 0.6965 0.0
O202 O 0.31252 0.3187 0.66918 0.0
C203 C 0.32625 0.29638 0.65229 0.0
O204 O 0.31377 0.28871 0.65897 0.0
C205 C 0.35359 0.34123 0.68365 0.0
O206 O 0.35648 0.33815 0.6679 0.0
O207 O 0.31865 0.29998 0.69688 0.0
C208 C 0.65699 0.01385 0.68873 0.0
O209 O 0.659 0.0033 0.68919 0.0
O210 O 0.67961 0.00815 0.66438 0.0
Zn211 Zn 0.68394 0.02713 0.67356 0.0
O212 O 0.69704 0.03327 0.69414 0.0
C213 C 0.6889 0.03851 0.63831 0.0
O214 O 0.67902 0.02565 0.63382 0.0
O215 O 0.66636 0.02545 0.68231 0.0
C216 C 0.70995 0.03865 0.69193 0.0
O217 O 0.71487 0.04014 0.67575 0.0
C218 C 0.68734 0.00615 0.65402 0.0
O219 O 0.69908 0.01702 0.64865 0.0
O220 O 0.69251 0.04153 0.65446 0.0
C221 C 0.98455 0.64294 0.67509 0.0
O222 O 0.99413 0.6518 0.66421 0.0
O223 O 0.99072 0.6751 0.65962 0.0
Zn224 Zn 0.97261 0.6601 0.66988 0.0
O225 O 0.96694 0.66784 0.69039 0.0
C226 C 0.95915 0.64842 0.63601 0.0
O227 O 0.9705 0.64847 0.63227 0.0
O228 O 0.97439 0.64433 0.67893 0.0
C229 C 0.96845 0.67997 0.69085 0.0
O230 O 0.97421 0.68828 0.67733 0.0
C231 C 0.00079 0.68384 0.66938 0.0
O232 O -0.00073 0.68332 0.68668 0.0
O233 O 0.95785 0.65277 0.65121 0.0
H234 H 0.13752 0.31351 0.18909 0.0
H235 H 0.11977 0.31381 0.20743 0.0
H236 H 0.08799 0.27784 0.17779 0.0
H237 H 0.10586 0.27765 0.15928 0.0
H238 H 0.14376 0.29307 0.18395 0.0
H239 H 0.13049 0.3193 0.15131 0.0
H240 H 0.11586 0.32567 0.13608 0.0
H241 H 0.10323 0.29083 0.09896 0.0
H242 H 0.11792 0.28443 0.11442 0.0
H243 H 0.15916 0.28059 0.1181 0.0
H244 H 0.18014 0.28642 0.10156 0.0
H245 H 0.20095 0.32851 0.12491 0.0
H246 H 0.18021 0.32226 0.14198 0.0
H247 H 0.14607 0.30043 0.11917 0.0
H248 H 0.16389 0.27711 0.15492 0.0
H249 H 0.18207 0.27648 0.1711 0.0
H250 H 0.18994 0.31313 0.20211 0.0
H251 H 0.17158 0.31345 0.18618 0.0
C252 C 0.12299 0.29557 0.17284 0.0
C253 C 0.12674 0.30566 0.18657 0.0
C254 C 0.11661 0.30589 0.19694 0.0
C255 C 0.10254 0.29589 0.19394 0.0
C256 C 0.09878 0.28563 0.18037 0.0
C257 C 0.10894 0.28554 0.1698 0.0
C258 C 0.13387 0.29578 0.16161 0.0
C259 C 0.14418 0.29456 0.16976 0.0
C260 C 0.13448 0.29782 0.14312 0.0
C261 C 0.12507 0.30121 0.13422 0.0
C262 C 0.12436 0.31284 0.14012 0.0
C263 C 0.11601 0.3165 0.13137 0.0
C264 C 0.10832 0.3087 0.11639 0.0
C265 C 0.1091 0.29708 0.11042 0.0
C266 C 0.11743 0.29338 0.11926 0.0
C267 C 0.16825 0.30099 0.13125 0.0
C268 C 0.1683 0.29103 0.11962 0.0
C269 C 0.18028 0.29444 0.11012 0.0
C270 C 0.19231 0.30795 0.11189 0.0
C271 C 0.19204 0.31792 0.12346 0.0
C272 C 0.18016 0.31443 0.13312 0.0
C273 C 0.15578 0.29756 0.14153 0.0
C274 C 0.14527 0.29834 0.13322 0.0
C275 C 0.15522 0.29559 0.15996 0.0
C276 C 0.16639 0.29531 0.1694 0.0
C277 C 0.1696 0.28503 0.16515 0.0
C278 C 0.18002 0.28472 0.17437 0.0
C279 C 0.18741 0.2947 0.18798 0.0
C280 C 0.18427 0.30511 0.19197 0.0
C281 C 0.17382 0.30535 0.18283 0.0
H282 H 0.72645 0.8858 0.16875 0.0
H283 H 0.7263 0.90399 0.18743 0.0
H284 H 0.68285 0.8855 0.17589 0.0
H285 H 0.68328 0.86775 0.1568 0.0
H286 H 0.70874 0.8557 0.17341 0.0
H287 H 0.71829 0.89079 0.129 0.0
H288 H 0.71321 0.90643 0.11321 0.0
H289 H 0.67347 0.87059 0.09759 0.0
H290 H 0.67844 0.85511 0.11376 0.0
H291 H 0.67976 0.82134 0.11305 0.0
H292 H 0.67645 0.80049 0.09683 0.0
H293 H 0.71776 0.81179 0.11108 0.0
H294 H 0.72102 0.83265 0.12746 0.0
H295 H 0.69819 0.8492 0.10909 0.0
H296 H 0.68497 0.81462 0.15096 0.0
H297 H 0.68411 0.79636 0.16865 0.0
H298 H 0.72319 0.82721 0.19285 0.0
H299 H 0.72452 0.84527 0.17387 0.0
C300 C 0.70491 0.87553 0.16132 0.0
C301 C 0.71695 0.88579 0.17017 0.0
C302 C 0.71681 0.89612 0.18091 0.0
C303 C 0.70456 0.89624 0.1832 0.0
C304 C 0.69254 0.88594 0.17418 0.0
C305 C 0.69273 0.87572 0.16333 0.0
C306 C 0.70486 0.86422 0.15058 0.0
C307 C 0.70683 0.85445 0.15925 0.0
C308 C 0.70155 0.86223 0.13234 0.0
C309 C 0.69871 0.8718 0.12265 0.0
C310 C 0.70845 0.88634 0.12228 0.0
C311 C 0.70559 0.89524 0.11313 0.0
C312 C 0.69292 0.88974 0.1042 0.0
C313 C 0.68323 0.87517 0.10454 0.0
C314 C 0.68611 0.8663 0.11364 0.0
C315 C 0.70062 0.82849 0.12148 0.0
C316 C 0.68814 0.81937 0.11259 0.0
C317 C 0.68622 0.80744 0.10346 0.0
C318 C 0.69683 0.80454 0.10281 0.0
C319 C 0.70945 0.81384 0.11136 0.0
C320 C 0.7113 0.82569 0.12073 0.0
C321 C 0.70226 0.84073 0.13185 0.0
C322 C 0.70051 0.85062 0.12316 0.0
C323 C 0.70517 0.84248 0.15024 0.0
C324 C 0.70497 0.8313 0.16073 0.0
C325 C 0.69358 0.81741 0.15965 0.0
C326 C 0.69297 0.80699 0.1701 0.0
C327 C 0.70352 0.81028 0.18235 0.0
C328 C 0.71496 0.82421 0.18341 0.0
C329 C 0.71568 0.8346 0.17267 0.0
H330 H 0.11771 0.84528 0.17479 0.0
H331 H 0.09826 0.82743 0.19211 0.0
H332 H 0.10741 0.7962 0.17379 0.0
H333 H 0.1269 0.81407 0.15669 0.0
H334 H 0.14427 0.85448 0.1791 0.0
H335 H 0.11124 0.83089 0.13215 0.0
H336 H 0.09458 0.81055 0.11396 0.0
H337 H 0.12709 0.80379 0.09688 0.0
H338 H 0.14361 0.82375 0.11552 0.0
H339 H 0.17858 0.85565 0.12207 0.0
H340 H 0.20088 0.87168 0.10842 0.0
H341 H 0.19775 0.90715 0.12568 0.0
H342 H 0.17511 0.89097 0.13868 0.0
H343 H 0.15354 0.85001 0.11567 0.0
H344 H 0.18455 0.86833 0.16509 0.0
H345 H 0.20154 0.88538 0.18627 0.0
H346 H 0.17415 0.90023 0.19937 0.0
H347 H 0.15715 0.88307 0.17816 0.0
C348 C 0.12368 0.83099 0.16429 0.0
C349 C 0.11545 0.83456 0.1744 0.0
C350 C 0.10437 0.82437 0.1843 0.0
C351 C 0.10131 0.81042 0.18427 0.0
C352 C 0.10938 0.80681 0.17385 0.0
C353 C 0.12052 0.81702 0.16406 0.0
C354 C 0.13614 0.84207 0.15502 0.0
C355 C 0.14615 0.85366 0.16512 0.0
C356 C 0.13879 0.84074 0.13691 0.0
C357 C 0.12867 0.82878 0.12541 0.0
C358 C 0.11477 0.82495 0.12464 0.0
C359 C 0.10527 0.81338 0.11422 0.0
C360 C 0.10958 0.80564 0.10405 0.0
C361 C 0.12354 0.80967 0.10448 0.0
C362 C 0.13297 0.82108 0.11511 0.0
C363 C 0.17521 0.87211 0.13149 0.0
C364 C 0.18264 0.86687 0.1228 0.0
C365 C 0.19547 0.87606 0.11517 0.0
C366 C 0.20115 0.8907 0.11607 0.0
C367 C 0.19362 0.89592 0.12463 0.0
C368 C 0.18074 0.8867 0.13222 0.0
C369 C 0.16172 0.8622 0.13986 0.0
C370 C 0.15152 0.85091 0.12958 0.0
C371 C 0.15898 0.86359 0.15788 0.0
C372 C 0.16964 0.87453 0.16991 0.0
C373 C 0.1823 0.87542 0.1723 0.0
C374 C 0.19201 0.88519 0.1844 0.0
C375 C 0.1892 0.89418 0.1945 0.0
C376 C 0.17656 0.89336 0.19194 0.0
C377 C 0.16686 0.8836 0.17979 0.0
H378 H 0.27473 0.16065 0.84716 0.0
H379 H 0.27614 0.17823 0.82709 0.0
H380 H 0.31708 0.20845 0.84691 0.0
H381 H 0.31581 0.19075 0.86637 0.0
H382 H 0.2913 0.15017 0.84564 0.0
H383 H 0.27977 0.1736 0.89176 0.0
H384 H 0.28328 0.19445 0.90837 0.0
H385 H 0.32454 0.2053 0.92221 0.0
H386 H 0.321 0.18449 0.90563 0.0
H387 H 0.32178 0.15059 0.90548 0.0
H388 H 0.32695 0.13488 0.92069 0.0
H389 H 0.28727 0.09919 0.90455 0.0
H390 H 0.28219 0.115 0.88922 0.0
H391 H 0.30247 0.15673 0.90977 0.0
H392 H 0.31656 0.13692 0.86394 0.0
H393 H 0.31754 0.12011 0.84355 0.0
H394 H 0.27571 0.10489 0.82665 0.0
H395 H 0.2748 0.12177 0.84715 0.0
C396 C 0.2951 0.17441 0.8584 0.0
C397 C 0.28393 0.17112 0.84732 0.0
C398 C 0.28472 0.1812 0.83594 0.0
C399 C 0.29675 0.19471 0.83536 0.0
C400 C 0.30773 0.19809 0.8469 0.0
C401 C 0.30694 0.18803 0.85822 0.0
C402 C 0.29502 0.16331 0.86887 0.0
C403 C 0.29333 0.15137 0.85978 0.0
C404 C 0.29824 0.16519 0.88713 0.0
C405 C 0.30014 0.17755 0.89745 0.0
C406 C 0.28955 0.18048 0.89839 0.0
C407 C 0.29154 0.19232 0.90793 0.0
C408 C 0.3042 0.20147 0.9165 0.0
C409 C 0.31474 0.19847 0.91558 0.0
C410 C 0.31269 0.18656 0.90624 0.0
C411 C 0.30163 0.13396 0.89613 0.0
C412 C 0.31414 0.13939 0.90534 0.0
C413 C 0.31707 0.1304 0.91407 0.0
C414 C 0.30752 0.11579 0.91383 0.0
C415 C 0.29491 0.11038 0.90477 0.0
C416 C 0.29198 0.11939 0.89604 0.0
C417 C 0.29886 0.14362 0.8865 0.0
C418 C 0.30003 0.15528 0.89574 0.0
C419 C 0.29547 0.14164 0.86826 0.0
C420 C 0.29555 0.1305 0.85721 0.0
C421 C 0.30748 0.12974 0.85616 0.0
C422 C 0.30802 0.12012 0.84449 0.0
C423 C 0.2967 0.11118 0.83348 0.0
C424 C 0.28465 0.11174 0.83484 0.0
C425 C 0.28409 0.12133 0.84657 0.0
H426 H 0.84001 0.12278 0.84594 0.0
H427 H 0.82229 0.10479 0.82612 0.0
H428 H 0.79397 0.11761 0.84307 0.0
H429 H 0.81168 0.13549 0.86286 0.0
H430 H 0.85126 0.15108 0.84408 0.0
H431 H 0.82472 0.11513 0.88727 0.0
H432 H 0.80371 0.09853 0.90337 0.0
H433 H 0.79929 0.13298 0.92165 0.0
H434 H 0.82016 0.14947 0.90546 0.0
H435 H 0.85492 0.18362 0.90666 0.0
H436 H 0.87219 0.20446 0.92337 0.0
H437 H 0.9041 0.19733 0.90435 0.0
H438 H 0.88667 0.17615 0.88823 0.0
H439 H 0.84594 0.15681 0.90851 0.0
H440 H 0.86799 0.19178 0.86546 0.0
H441 H 0.88635 0.21019 0.84768 0.0
H442 H 0.89647 0.18026 0.82672 0.0
H443 H 0.87847 0.16203 0.84526 0.0
C444 C 0.82712 0.13038 0.85599 0.0
C445 C 0.82993 0.1216 0.84549 0.0
C446 C 0.81982 0.11137 0.83414 0.0
C447 C 0.80673 0.10978 0.83303 0.0
C448 C 0.80387 0.11841 0.84384 0.0
C449 C 0.81399 0.12865 0.85515 0.0
C450 C 0.83822 0.14198 0.86688 0.0
C451 C 0.85025 0.15218 0.85826 0.0
C452 C 0.83658 0.14372 0.8852 0.0
C453 C 0.82397 0.13354 0.89506 0.0
C454 C 0.81916 0.11909 0.89464 0.0
C455 C 0.80717 0.10962 0.90384 0.0
C456 C 0.79988 0.11447 0.91379 0.0
C457 C 0.80479 0.12895 0.9143 0.0
C458 C 0.8167 0.13838 0.90503 0.0
C459 C 0.86951 0.17837 0.8961 0.0
C460 C 0.86562 0.18647 0.90623 0.0
C461 C 0.87552 0.19846 0.91562 0.0
C462 C 0.88953 0.2026 0.91509 0.0
C463 C 0.89338 0.19436 0.90515 0.0
C464 C 0.88345 0.18232 0.8958 0.0
C465 C 0.85897 0.16592 0.8857 0.0
C466 C 0.84706 0.15559 0.89439 0.0
C467 C 0.8605 0.16429 0.86732 0.0
C468 C 0.87198 0.17557 0.8569 0.0
C469 C 0.87433 0.18924 0.85731 0.0
C470 C 0.88473 0.19972 0.84694 0.0
C471 C 0.89286 0.1967 0.83571 0.0
C472 C 0.89053 0.183 0.83539 0.0
C473 C 0.88017 0.17254 0.84587 0.0
H474 H 0.83212 0.69377 0.83234 0.0
H475 H 0.81319 0.69222 0.81552 0.0
H476 H 0.81665 0.72703 0.84657 0.0
H477 H 0.83586 0.7287 0.86327 0.0
H478 H 0.85837 0.71359 0.83606 0.0
H479 H 0.81963 0.68841 0.87227 0.0
H480 H 0.79868 0.68271 0.88845 0.0
H481 H 0.8226 0.71883 0.92334 0.0
H482 H 0.84366 0.72463 0.90683 0.0
H483 H 0.88355 0.72567 0.90638 0.0
H484 H 0.89891 0.72091 0.92325 0.0
H485 H 0.88793 0.68502 0.88874 0.0
H486 H 0.87242 0.68956 0.87229 0.0
H487 H 0.85569 0.70893 0.90136 0.0
H488 H 0.89626 0.73006 0.86 0.0
H489 H 0.91357 0.72849 0.84177 0.0
H490 H 0.88088 0.69042 0.8165 0.0
H491 H 0.86374 0.69212 0.83442 0.0
C492 C 0.83539 0.71133 0.84908 0.0
C493 C 0.8289 0.70115 0.83545 0.0
C494 C 0.81798 0.70018 0.82597 0.0
C495 C 0.81337 0.70943 0.82984 0.0
C496 C 0.82003 0.7198 0.84328 0.0
C497 C 0.83094 0.72072 0.85286 0.0
C498 C 0.84658 0.71178 0.85949 0.0
C499 C 0.85783 0.71268 0.85036 0.0
C500 C 0.8458 0.71042 0.87812 0.0
C501 C 0.83316 0.70714 0.88808 0.0
C502 C 0.82036 0.69526 0.8832 0.0
C503 C 0.80839 0.692 0.89248 0.0
C504 C 0.80898 0.70043 0.90702 0.0
C505 C 0.82185 0.71216 0.91218 0.0
C506 C 0.83386 0.71549 0.90276 0.0
C507 C 0.87711 0.70819 0.88779 0.0
C508 C 0.88451 0.71681 0.90244 0.0
C509 C 0.89323 0.71407 0.91208 0.0
C510 C 0.89471 0.70269 0.90716 0.0
C511 C 0.88721 0.69403 0.89259 0.0
C512 C 0.87839 0.69667 0.88312 0.0
C513 C 0.86747 0.71073 0.8779 0.0
C514 C 0.8565 0.71039 0.88716 0.0
C515 C 0.86812 0.71189 0.85926 0.0
C516 C 0.87875 0.71121 0.84851 0.0
C517 C 0.89288 0.7214 0.85052 0.0
C518 C 0.90271 0.72051 0.84013 0.0
C519 C 0.89852 0.70928 0.82788 0.0
C520 C 0.88438 0.69908 0.826 0.0
C521 C 0.87459 0.7001 0.83612 0.0
H522 H 0.80556 0.6483 0.52084 0.0
H523 H 0.78849 0.649 0.53993 0.0
H524 H 0.75562 0.61653 0.50734 0.0
H525 H 0.77287 0.61584 0.48815 0.0
H526 H 0.81077 0.62865 0.51393 0.0
H527 H 0.79643 0.65452 0.48144 0.0
H528 H 0.78145 0.66016 0.46573 0.0
H529 H 0.77232 0.62712 0.42695 0.0
H530 H 0.78658 0.62092 0.44348 0.0
H531 H 0.82583 0.61538 0.449 0.0
H532 H 0.84671 0.62042 0.43278 0.0
H533 H 0.86817 0.66302 0.45459 0.0
H534 H 0.84752 0.65755 0.47138 0.0
H535 H 0.81348 0.63626 0.44923 0.0
H536 H 0.83027 0.61201 0.4852 0.0
H537 H 0.84807 0.61087 0.50164 0.0
H538 H 0.85662 0.64782 0.53248 0.0
H539 H 0.8387 0.64871 0.51624 0.0
C540 C 0.79051 0.63202 0.50306 0.0
C541 C 0.79468 0.64123 0.51785 0.0
C542 C 0.7849 0.6416 0.52879 0.0
C543 C 0.7707 0.63274 0.52522 0.0
C544 C 0.7665 0.62354 0.51035 0.0
C545 C 0.77633 0.62313 0.4994 0.0
C546 C 0.80116 0.63185 0.49163 0.0
C547 C 0.81127 0.63025 0.49977 0.0
C548 C 0.80185 0.63391 0.47311 0.0
C549 C 0.79241 0.63709 0.46386 0.0
C550 C 0.79093 0.64826 0.4698 0.0
C551 C 0.78253 0.65164 0.46061 0.0
C552 C 0.77567 0.64413 0.44501 0.0
C553 C 0.77723 0.63298 0.43906 0.0
C554 C 0.78549 0.62949 0.44841 0.0
C555 C 0.83524 0.63609 0.46137 0.0
C556 C 0.83509 0.62576 0.45023 0.0
C557 C 0.84701 0.62872 0.44092 0.0
C558 C 0.8592 0.64214 0.44238 0.0
C559 C 0.85913 0.65248 0.4534 0.0
C560 C 0.8473 0.64944 0.46289 0.0
C561 C 0.82289 0.63307 0.47162 0.0
C562 C 0.81259 0.63419 0.46329 0.0
C563 C 0.8222 0.63102 0.49002 0.0
C564 C 0.83318 0.63043 0.49954 0.0
C565 C 0.83607 0.6199 0.49543 0.0
C566 C 0.84626 0.61929 0.5048 0.0
C567 C 0.8537 0.6292 0.51846 0.0
C568 C 0.85089 0.63985 0.5223 0.0
C569 C 0.84069 0.64042 0.51299 0.0
H570 H 0.38453 0.21839 0.50642 0.0
H571 H 0.38126 0.23428 0.526 0.0
H572 H 0.33974 0.21609 0.50581 0.0
H573 H 0.34295 0.20005 0.48666 0.0
H574 H 0.36933 0.1895 0.50797 0.0
H575 H 0.3796 0.22376 0.46177 0.0
H576 H 0.37468 0.23894 0.44445 0.0
H577 H 0.33479 0.20283 0.43007 0.0
H578 H 0.33976 0.18773 0.44726 0.0
H579 H 0.34344 0.15602 0.44494 0.0
H580 H 0.34071 0.1354 0.42898 0.0
H581 H 0.37964 0.14419 0.45014 0.0
H582 H 0.38254 0.16511 0.46584 0.0
H583 H 0.36071 0.18254 0.44322 0.0
H584 H 0.34748 0.14855 0.48786 0.0
H585 H 0.34799 0.13142 0.50674 0.0
H586 H 0.38822 0.16378 0.52638 0.0
H587 H 0.38766 0.1809 0.50737 0.0
C588 C 0.36404 0.20812 0.49497 0.0
C589 C 0.3748 0.21796 0.50608 0.0
C590 C 0.37294 0.22709 0.51717 0.0
C591 C 0.36022 0.2264 0.51747 0.0
C592 C 0.34961 0.21678 0.50598 0.0
C593 C 0.35148 0.20771 0.49489 0.0
C594 C 0.36542 0.19747 0.48457 0.0
C595 C 0.36782 0.18818 0.49373 0.0
C596 C 0.36286 0.19539 0.46615 0.0
C597 C 0.36003 0.20466 0.45579 0.0
C598 C 0.3698 0.21915 0.45488 0.0
C599 C 0.36702 0.22777 0.44494 0.0
C600 C 0.35435 0.22202 0.43598 0.0
C601 C 0.34458 0.20752 0.43697 0.0
C602 C 0.34744 0.1989 0.44668 0.0
C603 C 0.36316 0.16209 0.45669 0.0
C604 C 0.35149 0.15364 0.446 0.0
C605 C 0.34993 0.14185 0.43687 0.0
C606 C 0.35997 0.13822 0.43833 0.0
C607 C 0.3717 0.1467 0.44893 0.0
C608 C 0.37334 0.15862 0.45791 0.0
C609 C 0.36446 0.1744 0.46662 0.0
C610 C 0.36258 0.18401 0.45739 0.0
C611 C 0.36704 0.17648 0.48509 0.0
C612 C 0.36762 0.16597 0.49603 0.0
C613 C 0.35651 0.15191 0.49601 0.0
C614 C 0.35682 0.14212 0.5068 0.0
C615 C 0.36817 0.14624 0.51801 0.0
C616 C 0.37929 0.16033 0.51799 0.0
C617 C 0.379 0.1701 0.50712 0.0
H618 H 0.79211 0.17566 0.504 0.0
H619 H 0.77414 0.15698 0.52189 0.0
H620 H 0.78123 0.12667 0.49486 0.0
H621 H 0.79979 0.14558 0.47783 0.0
H622 H 0.81869 0.18488 0.50403 0.0
H623 H 0.78234 0.16294 0.45993 0.0
H624 H 0.76483 0.14262 0.44246 0.0
H625 H 0.79684 0.13758 0.41886 0.0
H626 H 0.81423 0.15763 0.43656 0.0
H627 H 0.84857 0.19102 0.43929 0.0
H628 H 0.86929 0.20866 0.42382 0.0
H629 H 0.86622 0.24178 0.45011 0.0
H630 H 0.84531 0.22404 0.46542 0.0
H631 H 0.82309 0.18418 0.43867 0.0
H632 H 0.85821 0.20168 0.48305 0.0
H633 H 0.87621 0.21734 0.50425 0.0
H634 H 0.84828 0.22827 0.52831 0.0
H635 H 0.83034 0.21267 0.50699 0.0
C636 C 0.79723 0.16203 0.48944 0.0
C637 C 0.78975 0.16498 0.5019 0.0
C638 C 0.77937 0.15424 0.512 0.0
C639 C 0.77617 0.14027 0.50982 0.0
C640 C 0.7835 0.13731 0.49706 0.0
C641 C 0.79401 0.1481 0.48711 0.0
C642 C 0.80893 0.17368 0.47973 0.0
C643 C 0.81952 0.18489 0.4897 0.0
C644 C 0.81024 0.1734 0.46107 0.0
C645 C 0.7996 0.16172 0.44972 0.0
C646 C 0.78558 0.15744 0.45103 0.0
C647 C 0.77559 0.14585 0.44104 0.0
C648 C 0.77949 0.13853 0.42933 0.0
C649 C 0.79356 0.14312 0.42764 0.0
C650 C 0.8035 0.15457 0.43776 0.0
C651 C 0.84542 0.20619 0.45362 0.0
C652 C 0.85227 0.20207 0.44163 0.0
C653 C 0.8641 0.21216 0.43277 0.0
C654 C 0.86935 0.22659 0.43576 0.0
C655 C 0.86247 0.23072 0.44771 0.0
C656 C 0.85055 0.22061 0.45646 0.0
C657 C 0.83291 0.19531 0.46301 0.0
C658 C 0.82216 0.18429 0.45299 0.0
C659 C 0.83159 0.19557 0.48166 0.0
C660 C 0.84295 0.20608 0.49334 0.0
C661 C 0.85606 0.20769 0.49262 0.0
C662 C 0.86634 0.21664 0.50476 0.0
C663 C 0.86363 0.224 0.51797 0.0
C664 C 0.85061 0.22262 0.5184 0.0
C665 C 0.84037 0.21374 0.5062 0.0
H666 H 0.96123 0.5026 0.18296 0.0
H667 H 0.95914 0.51866 0.16361 0.0
H668 H 0.00077 0.55178 0.17744 0.0
H669 H 0.00293 0.53563 0.19628 0.0
H670 H 0.97926 0.49392 0.17877 0.0
H671 H 0.96868 0.51678 0.2262 0.0
H672 H 0.97119 0.53712 0.24299 0.0
H673 H 0.01433 0.55234 0.25194 0.0
H674 H 0.01177 0.53201 0.23513 0.0
H675 H 0.01477 0.49778 0.23469 0.0
H676 H 0.02112 0.48282 0.24966 0.0
H677 H 0.98051 0.4465 0.23854 0.0
H678 H 0.97412 0.46158 0.22399 0.0
H679 H 0.99516 0.50383 0.24127 0.0
H680 H 0.00663 0.48211 0.19487 0.0
H681 H 0.00594 0.46326 0.17694 0.0
H682 H 0.96327 0.44743 0.16356 0.0
H683 H 0.96384 0.46595 0.18232 0.0
C684 C 0.98219 0.51794 0.19117 0.0
C685 C 0.96984 0.51337 0.18194 0.0
C686 C 0.96863 0.52257 0.171 0.0
C687 C 0.97981 0.53647 0.16897 0.0
C688 C 0.99202 0.5411 0.1786 0.0
C689 C 0.99322 0.53192 0.18953 0.0
C690 C 0.98401 0.50788 0.20142 0.0
C691 C 0.9824 0.49588 0.19257 0.0
C692 C 0.98859 0.51072 0.2192 0.0
C693 C 0.99005 0.52294 0.22939 0.0
C694 C 0.97867 0.52452 0.23176 0.0
C695 C 0.98009 0.53607 0.24142 0.0
C696 C 0.99295 0.54627 0.24873 0.0
C697 C 0.00433 0.54468 0.24631 0.0
C698 C 0.00287 0.53305 0.23684 0.0
C699 C 0.99401 0.48077 0.22814 0.0
C700 C 0.00721 0.48661 0.23561 0.0
C701 C 0.01086 0.47804 0.24401 0.0
C702 C 0.00134 0.46347 0.2452 0.0
C703 C 0.98804 0.45769 0.23796 0.0
C704 C 0.9844 0.46627 0.22953 0.0
C705 C 0.99041 0.48986 0.21862 0.0
C706 C 0.99175 0.50169 0.22758 0.0
C707 C 0.98573 0.48694 0.20085 0.0
C708 C 0.98522 0.47533 0.19016 0.0
C709 C 0.99705 0.47443 0.18835 0.0
C710 C 0.99669 0.46374 0.17789 0.0
C711 C 0.98456 0.45384 0.16875 0.0
C712 C 0.97272 0.45475 0.17061 0.0
C713 C 0.97306 0.4654 0.18119 0.0
H714 H 0.50439 0.4538 0.18357 0.0
H715 H 0.48632 0.4352 0.1646 0.0
H716 H 0.45975 0.45124 0.17681 0.0
H717 H 0.47771 0.46955 0.19587 0.0
H718 H 0.51686 0.48366 0.18031 0.0
H719 H 0.48922 0.44737 0.22388 0.0
H720 H 0.46658 0.43068 0.23666 0.0
H721 H 0.46089 0.46515 0.25035 0.0
H722 H 0.48336 0.4817 0.23733 0.0
H723 H 0.51735 0.51413 0.24396 0.0
H724 H 0.53334 0.53514 0.26122 0.0
H725 H 0.5676 0.53229 0.241 0.0
H726 H 0.55139 0.51061 0.22481 0.0
H727 H 0.50953 0.48858 0.24436 0.0
H728 H 0.53155 0.52384 0.20198 0.0
H729 H 0.54951 0.54273 0.18433 0.0
H730 H 0.56186 0.51438 0.16398 0.0
H731 H 0.54426 0.49568 0.18242 0.0
C732 C 0.4923 0.46291 0.19126 0.0
C733 C 0.49462 0.45322 0.18218 0.0
C734 C 0.48431 0.44264 0.17133 0.0
C735 C 0.47155 0.44167 0.16928 0.0
C736 C 0.46932 0.45146 0.1784 0.0
C737 C 0.4796 0.46199 0.18924 0.0
C738 C 0.50324 0.47429 0.20252 0.0
C739 C 0.51548 0.4846 0.19442 0.0
C740 C 0.50105 0.47581 0.22069 0.0
C741 C 0.48792 0.46575 0.22959 0.0
C742 C 0.4831 0.4513 0.22971 0.0
C743 C 0.47022 0.44181 0.23707 0.0
C744 C 0.46195 0.44662 0.24439 0.0
C745 C 0.46696 0.46113 0.24459 0.0
C746 C 0.47984 0.4706 0.23732 0.0
C747 C 0.53314 0.51082 0.23293 0.0
C748 C 0.52829 0.51789 0.24344 0.0
C749 C 0.53749 0.53005 0.25313 0.0
C750 C 0.55181 0.53555 0.25237 0.0
C751 C 0.55664 0.52831 0.24206 0.0
C752 C 0.54739 0.516 0.23258 0.0
C753 C 0.52325 0.49818 0.22217 0.0
C754 C 0.51119 0.48757 0.23035 0.0
C755 C 0.52531 0.49676 0.20386 0.0
C756 C 0.53669 0.50839 0.19373 0.0
C757 C 0.53832 0.52176 0.19402 0.0
C758 C 0.54849 0.53251 0.18373 0.0
C759 C 0.5571 0.53006 0.17267 0.0
C760 C 0.55554 0.51669 0.17252 0.0
C761 C 0.54541 0.50595 0.18294 0.0
H762 H 0.53788 0.03889 0.17311 0.0
H763 H 0.55668 0.04102 0.15457 0.0
H764 H 0.54406 0.99819 0.1663 0.0
H765 H 0.52536 0.99617 0.18486 0.0
H766 H 0.51038 0.02112 0.16909 0.0
H767 H 0.54425 0.03044 0.21335 0.0
H768 H 0.56083 0.02676 0.22874 0.0
H769 H 0.52786 0.98485 0.24218 0.0
H770 H 0.51132 0.98856 0.22667 0.0
H771 H 0.47626 0.98842 0.22744 0.0
H772 H 0.45567 0.98446 0.24339 0.0
H773 H 0.46605 0.02652 0.23112 0.0
H774 H 0.48667 0.03046 0.21531 0.0
H775 H 0.50323 0.00666 0.23179 0.0
H776 H 0.46979 0.99608 0.18664 0.0
H777 H 0.45275 0.99837 0.17015 0.0
H778 H 0.48416 0.04125 0.15792 0.0
H779 H 0.50117 0.03887 0.17443 0.0
C780 C 0.5303 0.01742 0.18048 0.0
C781 C 0.53921 0.02999 0.17173 0.0
C782 C 0.54992 0.03117 0.16111 0.0
C783 C 0.55188 0.01978 0.159 0.0
C784 C 0.54299 0.00724 0.16791 0.0
C785 C 0.53227 0.00605 0.17849 0.0
C786 C 0.51861 0.01601 0.19117 0.0
C787 C 0.50895 0.0182 0.18289 0.0
C788 C 0.51652 0.01178 0.20902 0.0
C789 C 0.52657 0.00971 0.21868 0.0
C790 C 0.54061 0.02042 0.21949 0.0
C791 C 0.55007 0.01831 0.22828 0.0
C792 C 0.54565 0.00549 0.2366 0.0
C793 C 0.53155 0.99488 0.23604 0.0
C794 C 0.5221 0.99697 0.22716 0.0
C795 C 0.4829 0.00967 0.22001 0.0
C796 C 0.47416 0.99683 0.22833 0.0
C797 C 0.46242 0.99458 0.23744 0.0
C798 C 0.45922 0.00515 0.23839 0.0
C799 C 0.46814 0.0181 0.23035 0.0
C800 C 0.47992 0.02037 0.22134 0.0
C801 C 0.49501 0.01176 0.20969 0.0
C802 C 0.50473 0.00968 0.21802 0.0
C803 C 0.49708 0.01595 0.19184 0.0
C804 C 0.48672 0.01736 0.1819 0.0
C805 C 0.47297 0.00602 0.18055 0.0
C806 C 0.46324 0.00735 0.17116 0.0
C807 C 0.4671 0.02001 0.16278 0.0
C808 C 0.4809 0.03132 0.16408 0.0
C809 C 0.49062 0.02999 0.17353 0.0
H810 H 0.48456 0.00611 0.85876 0.0
H811 H 0.46673 0.00683 0.87631 0.0
H812 H 0.43509 0.9727 0.84411 0.0
H813 H 0.45303 0.97177 0.82686 0.0
H814 H 0.49021 0.98578 0.85361 0.0
H815 H 0.4766 0.01146 0.81785 0.0
H816 H 0.46046 0.01534 0.80169 0.0
H817 H 0.45015 0.97951 0.7673 0.0
H818 H 0.46592 0.97538 0.78398 0.0
H819 H 0.5025 0.97401 0.78276 0.0
H820 H 0.52227 0.97751 0.76512 0.0
H821 H 0.54986 0.01263 0.7995 0.0
H822 H 0.53006 0.00924 0.81686 0.0
H823 H 0.49364 0.99229 0.78862 0.0
H824 H 0.50989 0.96862 0.8231 0.0
H825 H 0.52663 0.96573 0.83947 0.0
H826 H 0.53302 0.99906 0.87609 0.0
H827 H 0.51647 0.00208 0.85954 0.0
C828 C 0.47013 0.98896 0.84144 0.0
C829 C 0.47378 0.99872 0.85555 0.0
C830 C 0.46359 0.99921 0.86544 0.0
C831 C 0.44951 0.9899 0.86148 0.0
C832 C 0.44584 0.97996 0.84752 0.0
C833 C 0.45607 0.97949 0.83759 0.0
C834 C 0.48111 0.98888 0.83072 0.0
C835 C 0.49103 0.98731 0.83942 0.0
C836 C 0.48197 0.99053 0.81215 0.0
C837 C 0.47229 0.99299 0.80229 0.0
C838 C 0.47074 0.00435 0.80695 0.0
C839 C 0.46163 0.00665 0.79757 0.0
C840 C 0.454 0.99772 0.78322 0.0
C841 C 0.45572 0.98646 0.77845 0.0
C842 C 0.46479 0.98414 0.78787 0.0
C843 C 0.51484 0.99128 0.80119 0.0
C844 C 0.51282 0.98244 0.78648 0.0
C845 C 0.52411 0.9844 0.77649 0.0
C846 C 0.5376 0.99534 0.78095 0.0
C847 C 0.53958 0.0042 0.79566 0.0
C848 C 0.52829 0.00219 0.80568 0.0
C849 C 0.50286 0.98942 0.81154 0.0
C850 C 0.49274 0.9906 0.80278 0.0
C851 C 0.5019 0.98753 0.83007 0.0
C852 C 0.512 0.98566 0.83998 0.0
C853 C 0.51501 0.97542 0.83453 0.0
C854 C 0.52456 0.97377 0.84389 0.0
C855 C 0.53112 0.98217 0.85906 0.0
C856 C 0.52801 0.99233 0.86457 0.0
C857 C 0.51856 0.99407 0.85512 0.0
H858 H 0.03215 0.53662 0.84247 0.0
H859 H 0.0328 0.5548 0.86194 0.0
H860 H 0.99265 0.54383 0.84251 0.0
H861 H 0.99175 0.5252 0.82382 0.0
H862 H 0.015 0.50921 0.8437 0.0
H863 H 0.02635 0.54395 0.79918 0.0
H864 H 0.02342 0.56075 0.78261 0.0
H865 H 0.98271 0.5271 0.76619 0.0
H866 H 0.98556 0.51045 0.78313 0.0
H867 H 0.98496 0.47496 0.78292 0.0
H868 H 0.98102 0.45383 0.7669 0.0
H869 H 0.02119 0.46291 0.78358 0.0
H870 H 0.02526 0.48431 0.799 0.0
H871 H 0.00355 0.50222 0.77964 0.0
H872 H 0.99079 0.46797 0.82409 0.0
H873 H 0.99171 0.45041 0.84156 0.0
H874 H 0.03286 0.48209 0.85929 0.0
H875 H 0.0321 0.49947 0.84112 0.0
C876 C 0.01196 0.52961 0.83155 0.0
C877 C 0.02351 0.53818 0.84236 0.0
C878 C 0.02392 0.54866 0.85338 0.0
C879 C 0.01277 0.55079 0.85381 0.0
C880 C 0.00134 0.54237 0.84269 0.0
C881 C 0.00089 0.53183 0.83179 0.0
C882 C 0.01112 0.51781 0.82088 0.0
C883 C 0.01279 0.50785 0.8296 0.0
C884 C 0.00776 0.51575 0.80263 0.0
C885 C 0.00613 0.52598 0.7925 0.0
C886 C 0.01677 0.54023 0.79211 0.0
C887 C 0.01512 0.54978 0.78252 0.0
C888 C 0.00282 0.54525 0.77313 0.0
C889 C 0.99223 0.53095 0.77348 0.0
C890 C 0.99389 0.52141 0.78302 0.0
C891 C 0.00535 0.48114 0.79228 0.0
C892 C 0.99297 0.47247 0.78296 0.0
C893 C 0.99068 0.46032 0.77396 0.0
C894 C 0.00075 0.45664 0.77406 0.0
C895 C 0.01327 0.46551 0.78311 0.0
C896 C 0.01556 0.47767 0.79207 0.0
C897 C 0.00742 0.49366 0.80247 0.0
C898 C 0.00596 0.50371 0.79368 0.0
C899 C 0.01081 0.49572 0.82071 0.0
C900 C 0.01145 0.485 0.83112 0.0
C901 C 0.0001 0.47108 0.83151 0.0
C902 C 0.00058 0.46108 0.84166 0.0
C903 C 0.01236 0.46484 0.85184 0.0
C904 C 0.02372 0.47879 0.8514 0.0
C905 C 0.02325 0.48877 0.84116 0.0
H906 H 0.45867 0.5114 0.84808 0.0
H907 H 0.4418 0.49291 0.86728 0.0
H908 H 0.45058 0.46327 0.84184 0.0
H909 H 0.46802 0.48199 0.82354 0.0
H910 H 0.48572 0.52203 0.84726 0.0
H911 H 0.44852 0.49702 0.80367 0.0
H912 H 0.43158 0.47606 0.78657 0.0
H913 H 0.46459 0.47135 0.76581 0.0
H914 H 0.48137 0.4922 0.78281 0.0
H915 H 0.5143 0.5258 0.78244 0.0
H916 H 0.53479 0.54281 0.76612 0.0
H917 H 0.53164 0.5768 0.78944 0.0
H918 H 0.51097 0.55966 0.8057 0.0
H919 H 0.48872 0.51866 0.78194 0.0
H920 H 0.52455 0.53801 0.82452 0.0
H921 H 0.54359 0.55533 0.8432 0.0
H922 H 0.51643 0.56702 0.86803 0.0
H923 H 0.49757 0.5501 0.84864 0.0
C924 C 0.46451 0.49807 0.8342 0.0
C925 C 0.4569 0.50089 0.8466 0.0
C926 C 0.44716 0.49026 0.85747 0.0
C927 C 0.44481 0.47656 0.85614 0.0
C928 C 0.45224 0.47372 0.84342 0.0
C929 C 0.46209 0.48439 0.83272 0.0
C930 C 0.47563 0.50965 0.82373 0.0
C931 C 0.48621 0.52147 0.83292 0.0
C932 C 0.4766 0.5086 0.8051 0.0
C933 C 0.4662 0.49615 0.79456 0.0
C934 C 0.45207 0.49144 0.79545 0.0
C935 C 0.44242 0.47946 0.7857 0.0
C936 C 0.44676 0.47208 0.7748 0.0
C937 C 0.46093 0.47693 0.77384 0.0
C938 C 0.47053 0.48883 0.78359 0.0
C939 C 0.51112 0.54145 0.79536 0.0
C940 C 0.51792 0.5369 0.78392 0.0
C941 C 0.52962 0.54663 0.77457 0.0
C942 C 0.5348 0.56113 0.77649 0.0
C943 C 0.52795 0.56569 0.78786 0.0
C944 C 0.51615 0.55592 0.79714 0.0
C945 C 0.49887 0.53094 0.80549 0.0
C946 C 0.48808 0.51939 0.79624 0.0
C947 C 0.49798 0.53194 0.82413 0.0
C948 C 0.50968 0.5429 0.83499 0.0
C949 C 0.52276 0.5445 0.83372 0.0
C950 C 0.5336 0.55429 0.84459 0.0
C951 C 0.53153 0.56254 0.85717 0.0
C952 C 0.51844 0.56099 0.85832 0.0
C953 C 0.50761 0.55124 0.84735 0.0
H954 H 0.61494 0.83054 0.51513 0.0
H955 H 0.61732 0.84927 0.49643 0.0
H956 H 0.65893 0.87703 0.51591 0.0
H957 H 0.6566 0.8582 0.53426 0.0
H958 H 0.63167 0.81933 0.51155 0.0
H959 H 0.62045 0.8425 0.55949 0.0
H960 H 0.6259 0.8639 0.57647 0.0
H961 H 0.66557 0.8704 0.59057 0.0
H962 H 0.66012 0.84909 0.57362 0.0
H963 H 0.65801 0.81462 0.57259 0.0
H964 H 0.66167 0.79748 0.58671 0.0
H965 H 0.62241 0.76369 0.56627 0.0
H966 H 0.61887 0.78098 0.55194 0.0
H967 H 0.63958 0.82166 0.57629 0.0
H968 H 0.65413 0.80229 0.5318 0.0
H969 H 0.65558 0.78601 0.51123 0.0
H970 H 0.61775 0.77712 0.48605 0.0
H971 H 0.61571 0.79245 0.50783 0.0
C972 C 0.63554 0.84301 0.52619 0.0
C973 C 0.62449 0.84074 0.51556 0.0
C974 C 0.62584 0.85147 0.50496 0.0
C975 C 0.63833 0.86462 0.50467 0.0
C976 C 0.64923 0.86698 0.51575 0.0
C977 C 0.64785 0.85627 0.52638 0.0
C978 C 0.63471 0.83117 0.53578 0.0
C979 C 0.63296 0.81956 0.5258 0.0
C980 C 0.63717 0.83193 0.55419 0.0
C981 C 0.63992 0.84429 0.56524 0.0
C982 C 0.63026 0.8485 0.56635 0.0
C983 C 0.63334 0.86063 0.57612 0.0
C984 C 0.64616 0.86877 0.58476 0.0
C985 C 0.65566 0.86435 0.58392 0.0
C986 C 0.65253 0.85217 0.57434 0.0
C987 C 0.63818 0.79909 0.56118 0.0
C988 C 0.65011 0.80353 0.5713 0.0
C989 C 0.65218 0.79371 0.57941 0.0
C990 C 0.64231 0.77921 0.57767 0.0
C991 C 0.63027 0.77477 0.56769 0.0
C992 C 0.62821 0.78463 0.55955 0.0
C993 C 0.63647 0.80968 0.55208 0.0
C994 C 0.63778 0.82108 0.56213 0.0
C995 C 0.6342 0.80899 0.53357 0.0
C996 C 0.63464 0.7984 0.52167 0.0
C997 C 0.64588 0.79647 0.52226 0.0
C998 C 0.64685 0.78735 0.51018 0.0
C999 C 0.63686 0.78029 0.49678 0.0
C1000 C 0.62555 0.78216 0.4963 0.0
C1001 C 0.62442 0.79105 0.50867 0.0
H1002 H 0.17122 0.78941 0.52039 0.0
H1003 H 0.15365 0.77211 0.49982 0.0
H1004 H 0.12575 0.78544 0.51688 0.0
H1005 H 0.1433 0.80263 0.53738 0.0
H1006 H 0.18307 0.81743 0.51909 0.0
H1007 H 0.15599 0.78194 0.56138 0.0
H1008 H 0.1347 0.76504 0.57669 0.0
H1009 H 0.13017 0.79915 0.5961 0.0
H1010 H 0.15125 0.81598 0.58048 0.0
H1011 H 0.18466 0.85075 0.57867 0.0
H1012 H 0.20114 0.8731 0.59339 0.0
H1013 H 0.23453 0.86696 0.57868 0.0
H1014 H 0.21788 0.84433 0.56449 0.0
H1015 H 0.17674 0.82408 0.58295 0.0
H1016 H 0.19935 0.85827 0.53814 0.0
H1017 H 0.21781 0.87592 0.51959 0.0
H1018 H 0.22884 0.84568 0.50335 0.0
H1019 H 0.21045 0.82806 0.52217 0.0
C1020 C 0.15853 0.79722 0.53054 0.0
C1021 C 0.16125 0.78847 0.51983 0.0
C1022 C 0.15123 0.77864 0.50805 0.0
C1023 C 0.13831 0.77742 0.50671 0.0
C1024 C 0.1355 0.78595 0.51779 0.0
C1025 C 0.14553 0.79579 0.52952 0.0
C1026 C 0.16964 0.80864 0.54163 0.0
C1027 C 0.18184 0.81869 0.53317 0.0
C1028 C 0.1678 0.81053 0.55986 0.0
C1029 C 0.15517 0.80023 0.56961 0.0
C1030 C 0.15036 0.78578 0.56881 0.0
C1031 C 0.13822 0.77613 0.57757 0.0
C1032 C 0.13079 0.7808 0.58755 0.0
C1033 C 0.13576 0.79528 0.58865 0.0
C1034 C 0.14781 0.8049 0.57973 0.0
C1035 C 0.20005 0.84593 0.57034 0.0
C1036 C 0.1955 0.85411 0.57884 0.0
C1037 C 0.20496 0.86696 0.58708 0.0
C1038 C 0.21916 0.87188 0.58703 0.0
C1039 C 0.22365 0.86343 0.57903 0.0
C1040 C 0.21416 0.85055 0.5708 0.0
C1041 C 0.19004 0.83293 0.56032 0.0
C1042 C 0.17809 0.82262 0.56897 0.0
C1043 C 0.19194 0.83093 0.54216 0.0
C1044 C 0.20365 0.8419 0.53174 0.0
C1045 C 0.20593 0.85552 0.5309 0.0
C1046 C 0.21648 0.8656 0.52029 0.0
C1047 C 0.22478 0.86218 0.51007 0.0
C1048 C 0.22254 0.84857 0.51101 0.0
C1049 C 0.21207 0.83852 0.52176 0.0
H1050 H 0.16335 0.35475 0.50124 0.0
H1051 H 0.14504 0.354 0.48387 0.0
H1052 H 0.15042 0.39028 0.51338 0.0
H1053 H 0.16879 0.39097 0.53081 0.0
H1054 H 0.18971 0.37359 0.50402 0.0
H1055 H 0.15236 0.35033 0.544 0.0
H1056 H 0.13207 0.34596 0.56101 0.0
H1057 H 0.15692 0.38585 0.58892 0.0
H1058 H 0.17728 0.3902 0.57175 0.0
H1059 H 0.21843 0.38959 0.57139 0.0
H1060 H 0.23358 0.38476 0.58864 0.0
H1061 H 0.21725 0.34492 0.5604 0.0
H1062 H 0.20208 0.34972 0.54346 0.0
H1063 H 0.18878 0.37241 0.56968 0.0
H1064 H 0.22803 0.39065 0.52787 0.0
H1065 H 0.24514 0.38865 0.50988 0.0
H1066 H 0.21218 0.35038 0.48527 0.0
H1067 H 0.19521 0.35244 0.50315 0.0
C1068 C 0.16746 0.37292 0.51731 0.0
C1069 C 0.16064 0.36259 0.50393 0.0
C1070 C 0.15019 0.36219 0.49399 0.0
C1071 C 0.14635 0.37215 0.49717 0.0
C1072 C 0.15307 0.3824 0.51072 0.0
C1073 C 0.16358 0.38282 0.52067 0.0
C1074 C 0.17867 0.37329 0.52761 0.0
C1075 C 0.18951 0.37337 0.51838 0.0
C1076 C 0.17846 0.373 0.54632 0.0
C1077 C 0.16625 0.37064 0.55654 0.0
C1078 C 0.15342 0.35816 0.55372 0.0
C1079 C 0.14188 0.35563 0.56353 0.0
C1080 C 0.14296 0.36555 0.57631 0.0
C1081 C 0.15581 0.37808 0.57907 0.0
C1082 C 0.16742 0.38054 0.56935 0.0
C1083 C 0.20928 0.37008 0.55604 0.0
C1084 C 0.21819 0.37986 0.56892 0.0
C1085 C 0.22685 0.37712 0.57868 0.0
C1086 C 0.22655 0.36445 0.57588 0.0
C1087 C 0.2176 0.3547 0.56297 0.0
C1088 C 0.20904 0.35749 0.55317 0.0
C1089 C 0.19974 0.37263 0.54606 0.0
C1090 C 0.18921 0.3731 0.55536 0.0
C1091 C 0.1999 0.37281 0.52736 0.0
C1092 C 0.21037 0.37169 0.5168 0.0
C1093 C 0.22453 0.38182 0.51863 0.0
C1094 C 0.23427 0.3807 0.50835 0.0
C1095 C 0.22996 0.36932 0.49628 0.0
C1096 C 0.21579 0.35916 0.49463 0.0
C1097 C 0.20609 0.36038 0.50471 0.0
H1098 H 0.97049 0.35401 0.06008 0.0
H1099 H 0.96739 0.3674 0.08399 0.0
H1100 H 0.00871 0.40267 0.07511 0.0
H1101 H 0.01194 0.38939 0.05143 0.0
H1102 H 0.00361 0.39759 0.10996 0.0
H1103 H 0.98055 0.40229 0.05964 0.0
H1104 H 0.96358 0.39345 0.03526 0.0
H1105 H 0.93037 0.37233 0.07254 0.0
H1106 H 0.94718 0.38091 0.09713 0.0
H1107 H 0.00499 0.45689 0.14631 0.0
H1108 H 0.00485 0.43909 0.12673 0.0
H1109 H 0.96365 0.40838 0.14411 0.0
H1110 H 0.96378 0.42611 0.16413 0.0
H1111 H 0.96651 0.40834 0.10767 0.0
H1112 H 0.98953 0.40591 0.15835 0.0
H1113 H 0.00655 0.41515 0.18269 0.0
H1114 H 0.03977 0.43202 0.14497 0.0
H1115 H 0.02296 0.42306 0.12039 0.0
C1116 C 0.97891 0.36462 0.06323 0.0
C1117 C 0.99145 0.37064 0.05382 0.0
C1118 C 0.97711 0.37226 0.07686 0.0
C1119 C 0.9878 0.38606 0.08125 0.0
C1120 C 0.00034 0.39203 0.07197 0.0
C1121 C 0.00214 0.38442 0.05838 0.0
C1122 C 0.98601 0.39445 0.09539 0.0
C1123 C 0.99555 0.40001 0.10941 0.0
C1124 C 0.97523 0.39724 0.09496 0.0
C1125 C 0.96513 0.3921 0.08019 0.0
C1126 C 0.96964 0.39567 0.06262 0.0
C1127 C 0.96005 0.39072 0.04877 0.0
C1128 C 0.94591 0.38229 0.05234 0.0
C1129 C 0.94133 0.37883 0.06979 0.0
C1130 C 0.95088 0.38374 0.08369 0.0
C1131 C 0.99596 0.44631 0.14622 0.0
C1132 C 0.98443 0.44291 0.15691 0.0
C1133 C 0.99589 0.43615 0.13495 0.0
C1134 C 0.9843 0.42239 0.13412 0.0
C1135 C 0.9727 0.41896 0.14459 0.0
C1136 C 0.97278 0.42911 0.15596 0.0
C1137 C 0.98432 0.41176 0.12197 0.0
C1138 C 0.97445 0.40575 0.10837 0.0
C1139 C 0.9948 0.40856 0.12278 0.0
C1140 C 0.00497 0.41389 0.13752 0.0
C1141 C 0.00047 0.41168 0.15524 0.0
C1142 C 0.01008 0.41685 0.16908 0.0
C1143 C 0.02423 0.42419 0.16538 0.0
C1144 C 0.0288 0.42634 0.14782 0.0
C1145 C 0.01924 0.4212 0.13393 0.0
H1146 H 0.03166 0.42818 0.17611 0.0
H1147 H 0.9385 0.37848 0.0416 0.0
H1148 H 0.61389 0.6237 0.05772 0.0
H1149 H 0.60283 0.60754 0.08201 0.0
H1150 H 0.63631 0.59996 0.0828 0.0
H1151 H 0.64741 0.61603 0.05815 0.0
H1152 H 0.61175 0.57576 0.08476 0.0
H1153 H 0.63365 0.62016 0.11529 0.0
H1154 H 0.64028 0.64476 0.12132 0.0
H1155 H 0.59763 0.63139 0.12909 0.0
H1156 H 0.59071 0.60672 0.12285 0.0
H1157 H 0.58354 0.53692 0.16447 0.0
H1158 H 0.59971 0.55481 0.14392 0.0
H1159 H 0.56975 0.56632 0.13352 0.0
H1160 H 0.55349 0.54838 0.15369 0.0
H1161 H 0.59576 0.58942 0.13877 0.0
H1162 H 0.57406 0.54546 0.10476 0.0
H1163 H 0.56754 0.52089 0.09863 0.0
H1164 H 0.61039 0.53374 0.09779 0.0
H1165 H 0.61716 0.55837 0.10415 0.0
C1166 C 0.61896 0.61866 0.06307 0.0
C1167 C 0.63156 0.62119 0.05603 0.0
C1168 C 0.61265 0.60947 0.07705 0.0
C1169 C 0.61885 0.60271 0.08441 0.0
C1170 C 0.63139 0.60513 0.07736 0.0
C1171 C 0.63772 0.61432 0.06331 0.0
C1172 C 0.61191 0.59281 0.0991 0.0
C1173 C 0.60851 0.57882 0.09674 0.0
C1174 C 0.60754 0.59676 0.11464 0.0
C1175 C 0.61165 0.61159 0.11848 0.0
C1176 C 0.62567 0.62247 0.11816 0.0
C1177 C 0.62949 0.63643 0.12164 0.0
C1178 C 0.61939 0.63964 0.12556 0.0
C1179 C 0.60545 0.62889 0.12605 0.0
C1180 C 0.60157 0.61491 0.12257 0.0
C1181 C 0.58037 0.54321 0.15773 0.0
C1182 C 0.56721 0.54122 0.16074 0.0
C1183 C 0.58964 0.55345 0.14605 0.0
C1184 C 0.58589 0.56183 0.13715 0.0
C1185 C 0.57288 0.56002 0.14034 0.0
C1186 C 0.56361 0.54978 0.15194 0.0
C1187 C 0.59533 0.57234 0.12419 0.0
C1188 C 0.59921 0.58644 0.1269 0.0
C1189 C 0.60018 0.5685 0.10902 0.0
C1190 C 0.59611 0.55372 0.10514 0.0
C1191 C 0.58209 0.54302 0.10342 0.0
C1192 C 0.57835 0.52909 0.09987 0.0
C1193 C 0.58854 0.52575 0.09788 0.0
C1194 C 0.6025 0.53634 0.09937 0.0
C1195 C 0.6063 0.55028 0.10294 0.0
H1196 H 0.58562 0.51496 0.09513 0.0
H1197 H 0.62236 0.65045 0.12824 0.0
H1198 H 0.39158 0.03028 0.04613 0.0
H1199 H 0.40953 0.03288 0.0661 0.0
H1200 H 0.37903 0.01195 0.10703 0.0
H1201 H 0.36102 0.00958 0.08725 0.0
H1202 H 0.40288 0.03316 0.1209 0.0
H1203 H 0.38934 0.99379 0.08107 0.0
H1204 H 0.38472 0.9816 0.05194 0.0
H1205 H 0.42716 0.00925 0.03704 0.0
H1206 H 0.43198 0.02175 0.06601 0.0
H1207 H 0.44018 0.0107 0.1714 0.0
H1208 H 0.42304 0.01188 0.15354 0.0
H1209 H 0.4537 0.03356 0.113 0.0
H1210 H 0.47076 0.03205 0.13053 0.0
H1211 H 0.42983 0.01233 0.09923 0.0
H1212 H 0.44331 0.05116 0.14021 0.0
H1213 H 0.44747 0.06265 0.16976 0.0
H1214 H 0.40467 0.03508 0.18309 0.0
H1215 H 0.40029 0.02329 0.15369 0.0
C1216 C 0.3887 0.02638 0.05946 0.0
C1217 C 0.37484 0.01958 0.06504 0.0
C1218 C 0.39897 0.02784 0.07083 0.0
C1219 C 0.39557 0.02235 0.08792 0.0
C1220 C 0.38187 0.01621 0.09386 0.0
C1221 C 0.37159 0.01484 0.08253 0.0
C1222 C 0.40614 0.02231 0.09919 0.0
C1223 C 0.40868 0.02849 0.11625 0.0
C1224 C 0.41383 0.01635 0.09302 0.0
C1225 C 0.41098 0.00879 0.07564 0.0
C1226 C 0.39766 0.99734 0.07154 0.0
C1227 C 0.39501 0.99036 0.05506 0.0
C1228 C 0.40563 0.99467 0.04263 0.0
C1229 C 0.41894 0.00594 0.04667 0.0
C1230 C 0.42164 0.01296 0.06312 0.0
C1231 C 0.44325 0.01568 0.15866 0.0
C1232 C 0.45683 0.02127 0.15237 0.0
C1233 C 0.43349 0.01648 0.14855 0.0
C1234 C 0.43713 0.02293 0.13202 0.0
C1235 C 0.45069 0.02858 0.12576 0.0
C1236 C 0.46045 0.0278 0.13585 0.0
C1237 C 0.42668 0.0233 0.12089 0.0
C1238 C 0.4241 0.01709 0.10386 0.0
C1239 C 0.41891 0.02912 0.12716 0.0
C1240 C 0.4215 0.03626 0.1448 0.0
C1241 C 0.4348 0.04748 0.14949 0.0
C1242 C 0.4372 0.05406 0.16621 0.0
C1243 C 0.42635 0.04957 0.17831 0.0
C1244 C 0.41307 0.03853 0.17371 0.0
C1245 C 0.41062 0.03191 0.15701 0.0
H1246 H 0.42822 0.05467 0.19125 0.0
H1247 H 0.40356 0.98926 0.02988 0.0
H1248 H 0.39003 0.03023 0.96648 0.0
H1249 H 0.40047 0.02377 0.94264 0.0
H1250 H 0.37125 0.97973 0.95173 0.0
H1251 H 0.36077 0.98612 0.97585 0.0
H1252 H 0.39741 0.98535 0.94895 0.0
H1253 H 0.36822 0.99478 0.91524 0.0
H1254 H 0.35784 0.00819 0.90585 0.0
H1255 H 0.39777 0.04215 0.8898 0.0
H1256 H 0.40843 0.02904 0.89934 0.0
H1257 H 0.42516 0.96799 0.87432 0.0
H1258 H 0.40823 0.96942 0.89322 0.0
H1259 H 0.43286 0.01481 0.89167 0.0
H1260 H 0.44957 0.01344 0.8724 0.0
H1261 H 0.40563 0.00521 0.88887 0.0
H1262 H 0.43497 0.99729 0.92642 0.0
H1263 H 0.44571 0.98434 0.93635 0.0
H1264 H 0.40552 0.9478 0.94542 0.0
H1265 H 0.39454 0.96049 0.93531 0.0
C1266 C 0.38575 0.01916 0.96337 0.0
C1267 C 0.37457 0.00869 0.97307 0.0
C1268 C 0.39168 0.01548 0.94965 0.0
C1269 C 0.38652 0.00127 0.94526 0.0
C1270 C 0.37534 0.99076 0.95486 0.0
C1271 C 0.36936 0.99444 0.96861 0.0
C1272 C 0.39332 0.99751 0.93118 0.0
C1273 C 0.39894 0.98942 0.93568 0.0
C1274 C 0.39551 0.00303 0.91397 0.0
C1275 C 0.38914 0.01094 0.90812 0.0
C1276 C 0.3748 0.00515 0.90983 0.0
C1277 C 0.36887 0.01269 0.90446 0.0
C1278 C 0.37714 0.02602 0.89726 0.0
C1279 C 0.39137 0.03183 0.89538 0.0
C1280 C 0.39736 0.02433 0.90075 0.0
C1281 C 0.42685 0.97826 0.87779 0.0
C1282 C 0.43877 0.99062 0.87202 0.0
C1283 C 0.41722 0.97906 0.88868 0.0
C1284 C 0.41939 0.99223 0.89403 0.0
C1285 C 0.43101 0.00454 0.88775 0.0
C1286 C 0.44062 0.00375 0.87688 0.0
C1287 C 0.40995 0.99332 0.90679 0.0
C1288 C 0.40386 0.00092 0.90204 0.0
C1289 C 0.40735 0.98739 0.92378 0.0
C1290 C 0.41394 0.97977 0.92991 0.0
C1291 C 0.42843 0.98646 0.9304 0.0
C1292 C 0.43456 0.97917 0.93608 0.0
C1293 C 0.4263 0.96524 0.94146 0.0
C1294 C 0.4119 0.95858 0.94121 0.0
C1295 C 0.40572 0.96581 0.93551 0.0
H1296 H 0.43106 0.95962 0.94586 0.0
H1297 H 0.37252 0.03185 0.89312 0.0
H1298 H 0.98593 0.37617 0.96886 0.0
H1299 H 0.98903 0.39091 0.94392 0.0
H1300 H 0.03165 0.40265 0.93925 0.0
H1301 H 0.02868 0.38798 0.96455 0.0
H1302 H 0.02919 0.42527 0.93739 0.0
H1303 H 0.00802 0.38014 0.90887 0.0
H1304 H 0.99092 0.35478 0.90449 0.0
H1305 H 0.95852 0.36343 0.89959 0.0
H1306 H 0.97539 0.38883 0.9042 0.0
H1307 H 0.03388 0.46092 0.85767 0.0
H1308 H 0.03436 0.44435 0.87779 0.0
H1309 H 0.99187 0.42854 0.89206 0.0
H1310 H 0.99135 0.44515 0.87226 0.0
H1311 H 0.99683 0.40728 0.88632 0.0
H1312 H 0.01778 0.45195 0.91868 0.0
H1313 H 0.03488 0.4773 0.92328 0.0
H1314 H 0.06789 0.46926 0.92069 0.0
H1315 H 0.05097 0.44386 0.91583 0.0
C1316 C 0.99597 0.38181 0.96252 0.0
C1317 C 0.00706 0.38087 0.96868 0.0
C1318 C 0.9977 0.39018 0.94816 0.0
C1319 C 0.01051 0.39771 0.93954 0.0
C1320 C 0.02165 0.39686 0.94567 0.0
C1321 C 0.01993 0.38846 0.96009 0.0
C1322 C 0.01227 0.40685 0.92458 0.0
C1323 C 0.02232 0.42129 0.92602 0.0
C1324 C 0.00317 0.40168 0.90987 0.0
C1325 C 0.99298 0.3864 0.907 0.0
C1326 C 0.99724 0.37663 0.90699 0.0
C1327 C 0.98758 0.36225 0.90444 0.0
C1328 C 0.97364 0.35749 0.90179 0.0
C1329 C 0.96933 0.36712 0.90165 0.0
C1330 C 0.97894 0.38152 0.9042 0.0
C1331 C 0.02466 0.45395 0.86515 0.0
C1332 C 0.01258 0.45439 0.86339 0.0
C1333 C 0.02494 0.44446 0.87658 0.0
C1334 C 0.01318 0.43528 0.88649 0.0
C1335 C 0.00104 0.43549 0.88446 0.0
C1336 C 0.00075 0.44497 0.87309 0.0
C1337 C 0.01351 0.4257 0.89939 0.0
C1338 C 0.00385 0.4112 0.89754 0.0
C1339 C 0.02298 0.4308 0.91369 0.0
C1340 C 0.03313 0.44604 0.91668 0.0
C1341 C 0.02869 0.45561 0.91895 0.0
C1342 C 0.03835 0.46998 0.92163 0.0
C1343 C 0.05246 0.47489 0.92222 0.0
C1344 C 0.05695 0.46544 0.92019 0.0
C1345 C 0.04734 0.45106 0.91748 0.0
H1346 H 0.05992 0.48602 0.9243 0.0
H1347 H 0.96618 0.34635 0.89983 0.0
H1348 H 0.6278 0.61849 0.97139 0.0
H1349 H 0.6108 0.60686 0.94773 0.0
H1350 H 0.60242 0.64035 0.95005 0.0
H1351 H 0.61934 0.652 0.97401 0.0
H1352 H 0.57883 0.61489 0.94819 0.0
H1353 H 0.62134 0.63845 0.91632 0.0
H1354 H 0.64538 0.64568 0.90912 0.0
H1355 H 0.63261 0.60253 0.89827 0.0
H1356 H 0.60851 0.59501 0.90566 0.0
H1357 H 0.53857 0.58906 0.86866 0.0
H1358 H 0.55668 0.60459 0.88989 0.0
H1359 H 0.56819 0.57365 0.89468 0.0
H1360 H 0.55002 0.55801 0.87378 0.0
H1361 H 0.59076 0.6003 0.89144 0.0
H1362 H 0.54868 0.57681 0.92592 0.0
H1363 H 0.52468 0.56964 0.93328 0.0
H1364 H 0.53685 0.61306 0.93901 0.0
H1365 H 0.56091 0.6205 0.93143 0.0
C1366 C 0.62237 0.62342 0.96688 0.0
C1367 C 0.62496 0.6362 0.97457 0.0
C1368 C 0.6127 0.61679 0.95328 0.0
C1369 C 0.60549 0.62284 0.94695 0.0
C1370 C 0.60792 0.63553 0.9547 0.0
C1371 C 0.61761 0.64218 0.96835 0.0
C1372 C 0.59521 0.61571 0.9325 0.0
C1373 C 0.58149 0.61193 0.93564 0.0
C1374 C 0.59865 0.61168 0.91624 0.0
C1375 C 0.61313 0.61616 0.91168 0.0
C1376 C 0.62367 0.63049 0.91252 0.0
C1377 C 0.63731 0.63465 0.90839 0.0
C1378 C 0.64053 0.62457 0.90328 0.0
C1379 C 0.6301 0.61032 0.90225 0.0
C1380 C 0.61645 0.60611 0.90639 0.0
C1381 C 0.54491 0.58553 0.87431 0.0
C1382 C 0.54283 0.57228 0.86952 0.0
C1383 C 0.55528 0.59444 0.88638 0.0
C1384 C 0.56371 0.59022 0.89392 0.0
C1385 C 0.56183 0.57713 0.88894 0.0
C1386 C 0.55146 0.56822 0.87693 0.0
C1387 C 0.57437 0.59927 0.90727 0.0
C1388 C 0.58815 0.60341 0.90391 0.0
C1389 C 0.571 0.60367 0.92329 0.0
C1390 C 0.55656 0.59921 0.9279 0.0
C1391 C 0.54622 0.58483 0.9286 0.0
C1392 C 0.53261 0.58072 0.93284 0.0
C1393 C 0.52923 0.59089 0.93655 0.0
C1394 C 0.53948 0.6052 0.93609 0.0
C1395 C 0.5531 0.60937 0.93183 0.0
H1396 H 0.51869 0.58769 0.93984 0.0
H1397 H 0.65109 0.62781 0.90008 0.0
H1398 H 0.98635 0.61882 0.96945 0.0
H1399 H 0.98877 0.60447 0.94649 0.0
H1400 H 0.03301 0.6331 0.94669 0.0
H1401 H 0.03071 0.64761 0.96981 0.0
H1402 H 0.02129 0.6245 0.91225 0.0
H1403 H 0.02091 0.60377 0.96725 0.0
H1404 H 0.01191 0.594 0.9967 0.0
H1405 H 0.97386 0.56134 0.9731 0.0
H1406 H 0.98256 0.57105 0.94352 0.0
H1407 H 0.03454 0.57716 0.86316 0.0
H1408 H 0.03467 0.59371 0.88516 0.0
H1409 H 0.99112 0.56498 0.89453 0.0
H1410 H 0.99106 0.54811 0.87327 0.0
H1411 H 0.00421 0.57453 0.92476 0.0
H1412 H 0.00362 0.5954 0.87023 0.0
H1413 H 0.01185 0.60519 0.84058 0.0
H1414 H 0.05076 0.63739 0.86279 0.0
H1415 H 0.04282 0.62766 0.89255 0.0
C1416 C 0.99662 0.62214 0.9646 0.0
C1417 C 0.00836 0.63432 0.97156 0.0
C1418 C 0.99797 0.61389 0.95149 0.0
C1419 C 0.01108 0.61765 0.94504 0.0
C1420 C 0.02281 0.63002 0.95155 0.0
C1421 C 0.02148 0.63825 0.96479 0.0
C1422 C 0.01243 0.6084 0.93183 0.0
C1423 C 0.01777 0.61363 0.91503 0.0
C1424 C 0.00756 0.59416 0.93541 0.0
C1425 C 0.00235 0.58821 0.95318 0.0
C1426 C 0.01058 0.59457 0.96835 0.0
C1427 C 0.00554 0.58903 0.98507 0.0
C1428 C 0.99231 0.57707 0.98678 0.0
C1429 C 0.98411 0.57061 0.97176 0.0
C1430 C 0.98909 0.57611 0.95501 0.0
C1431 C 0.02501 0.57432 0.86997 0.0
C1432 C 0.01278 0.56129 0.8664 0.0
C1433 C 0.02507 0.58387 0.88241 0.0
C1434 C 0.01287 0.58065 0.89138 0.0
C1435 C 0.00065 0.56771 0.88775 0.0
C1436 C 0.0006 0.55813 0.87542 0.0
C1437 C 0.01286 0.59052 0.90497 0.0
C1438 C 0.0078 0.58541 0.92193 0.0
C1439 C 0.0179 0.60483 0.90146 0.0
C1440 C 0.02268 0.61071 0.88358 0.0
C1441 C 0.01397 0.6045 0.86877 0.0
C1442 C 0.01858 0.61005 0.85195 0.0
C1443 C 0.03183 0.62188 0.8498 0.0
C1444 C 0.0405 0.62821 0.86447 0.0
C1445 C 0.03595 0.62269 0.88132 0.0
H1446 H 0.03538 0.62616 0.83676 0.0
H1447 H 0.98843 0.5728 0.99973 0.0
H1448 H 0.38348 0.37497 0.96201 0.0
H1449 H 0.39615 0.39334 0.94039 0.0
H1450 H 0.37054 0.4104 0.95241 0.0
H1451 H 0.35781 0.39205 0.97434 0.0
H1452 H 0.37543 0.40777 0.9147 0.0
H1453 H 0.40022 0.42712 0.96943 0.0
H1454 H 0.41177 0.42688 0.99669 0.0
H1455 H 0.44099 0.42202 0.96563 0.0
H1456 H 0.42947 0.42201 0.93818 0.0
H1457 H 0.41987 0.47154 0.86898 0.0
H1458 H 0.40485 0.45414 0.89064 0.0
H1459 H 0.43258 0.43877 0.89249 0.0
H1460 H 0.44801 0.45661 0.87171 0.0
H1461 H 0.42561 0.44154 0.92445 0.0
H1462 H 0.40079 0.42074 0.8701 0.0
H1463 H 0.38922 0.41987 0.84229 0.0
H1464 H 0.36025 0.4263 0.87155 0.0
H1465 H 0.37177 0.42739 0.89953 0.0
C1466 C 0.38047 0.38257 0.96003 0.0
C1467 C 0.36968 0.3821 0.96995 0.0
C1468 C 0.38774 0.39306 0.94768 0.0
C1469 C 0.38432 0.40324 0.94492 0.0
C1470 C 0.37331 0.40261 0.9544 0.0
C1471 C 0.36611 0.39218 0.96695 0.0
C1472 C 0.39259 0.41473 0.93247 0.0
C1473 C 0.38636 0.41534 0.91691 0.0
C1474 C 0.40688 0.42434 0.93526 0.0
C1475 C 0.4139 0.42445 0.95175 0.0
C1476 C 0.40903 0.42589 0.96842 0.0
C1477 C 0.41559 0.42581 0.9839 0.0
C1478 C 0.42709 0.4244 0.98289 0.0
C1479 C 0.43207 0.4231 0.96639 0.0
C1480 C 0.42554 0.42315 0.95086 0.0
C1481 C 0.42283 0.46452 0.87408 0.0
C1482 C 0.43517 0.46549 0.86853 0.0
C1483 C 0.41413 0.45446 0.88632 0.0
C1484 C 0.4175 0.44503 0.89307 0.0
C1485 C 0.42974 0.44591 0.88745 0.0
C1486 C 0.43849 0.45603 0.87538 0.0
C1487 C 0.40855 0.4345 0.90638 0.0
C1488 C 0.41467 0.43408 0.9222 0.0
C1489 C 0.39419 0.42498 0.90369 0.0
C1490 C 0.38724 0.42431 0.88689 0.0
C1491 C 0.39202 0.42208 0.87059 0.0
C1492 C 0.38546 0.42153 0.8548 0.0
C1493 C 0.37404 0.42307 0.85515 0.0
C1494 C 0.36912 0.42513 0.8713 0.0
C1495 C 0.37565 0.42571 0.88713 0.0
H1496 H 0.36897 0.42264 0.84291 0.0
H1497 H 0.43215 0.42435 0.9949 0.0
H1498 H 0.63273 0.9816 0.93536 0.0
H1499 H 0.6151 0.97831 0.91421 0.0
H1500 H 0.58941 0.9774 0.9574 0.0
H1501 H 0.6068 0.98039 0.97859 0.0
H1502 H 0.57403 0.95828 0.93244 0.0
H1503 H 0.61018 0.00753 0.93426 0.0
H1504 H 0.63415 0.02769 0.93175 0.0
H1505 H 0.63558 0.01599 0.87747 0.0
H1506 H 0.61166 0.99564 0.87974 0.0
H1507 H 0.53262 0.98088 0.89491 0.0
H1508 H 0.54948 0.97856 0.91179 0.0
H1509 H 0.56893 0.97681 0.86314 0.0
H1510 H 0.55216 0.97933 0.84614 0.0
H1511 H 0.58767 0.99527 0.88794 0.0
H1512 H 0.55004 0.94743 0.88564 0.0
H1513 H 0.52583 0.92789 0.88863 0.0
H1514 H 0.52691 0.93742 0.94428 0.0
H1515 H 0.55108 0.95716 0.94159 0.0
C1516 C 0.62326 0.98054 0.94036 0.0
C1517 C 0.62123 0.98137 0.95866 0.0
C1518 C 0.61322 0.97871 0.92825 0.0
C1519 C 0.60103 0.97783 0.93421 0.0
C1520 C 0.59874 0.97807 0.95249 0.0
C1521 C 0.60873 0.97983 0.9646 0.0
C1522 C 0.59092 0.97732 0.92153 0.0
C1523 C 0.577 0.9664 0.92278 0.0
C1524 C 0.59484 0.98774 0.90863 0.0
C1525 C 0.6092 -2e-05 0.90724 0.0
C1526 C 0.61565 0.0092 0.92184 0.0
C1527 C 0.62922 0.02067 0.92045 0.0
C1528 C 0.6364 0.02309 0.90448 0.0
C1529 C 0.63002 0.01408 0.88985 0.0
C1530 C 0.61645 0.00258 0.89117 0.0
C1531 C 0.54051 0.98003 0.88781 0.0
C1532 C 0.5411 0.98031 0.86921 0.0
C1533 C 0.55005 0.97857 0.89745 0.0
C1534 C 0.56036 0.97737 0.8887 0.0
C1535 C 0.561 0.97765 0.87013 0.0
C1536 C 0.55138 0.97901 0.86045 0.0
C1537 C 0.57077 0.97637 0.89908 0.0
C1538 C 0.58474 0.98702 0.89741 0.0
C1539 C 0.56687 0.96576 0.91167 0.0
C1540 C 0.55235 0.95385 0.91338 0.0
C1541 C 0.54509 0.94543 0.89849 0.0
C1542 C 0.53137 0.93431 0.90014 0.0
C1543 C 0.52482 0.93143 0.91663 0.0
C1544 C 0.53199 0.93966 0.93151 0.0
C1545 C 0.5457 0.95081 0.92994 0.0
H1546 H 0.5142 0.92282 0.91787 0.0
H1547 H 0.64691 0.03198 0.90343 0.0
H1548 H 0.62361 0.02426 0.02554 0.0
H1549 H 0.61201 0.0282 0.05044 0.0
H1550 H 0.62342 0.00548 0.08443 0.0
H1551 H 0.63489 0.00132 0.05953 0.0
H1552 H 0.59661 0.99611 0.08732 0.0
H1553 H 0.63851 0.04119 0.08915 0.0
H1554 H 0.65745 0.06353 0.07726 0.0
H1555 H 0.62837 0.07512 0.06302 0.0
H1556 H 0.60922 0.05276 0.0746 0.0
H1557 H 0.56931 0.01024 0.1645 0.0
H1558 H 0.58606 0.01034 0.1437 0.0
H1559 H 0.5758 0.03152 0.10558 0.0
H1560 H 0.55901 0.03141 0.12624 0.0
H1561 H 0.60354 0.04224 0.10663 0.0
H1562 H 0.56166 0.9964 0.1024 0.0
H1563 H 0.5426 0.97401 0.11403 0.0
H1564 H 0.57182 0.96389 0.13256 0.0
H1565 H 0.59108 0.98633 0.12125 0.0
C1566 C 0.62381 0.02025 0.03836 0.0
C1567 C 0.63012 0.01242 0.04053 0.0
C1568 C 0.61722 0.02257 0.05261 0.0
C1569 C 0.61692 0.01721 0.06933 0.0
C1570 C 0.62353 0.00971 0.07164 0.0
C1571 C 0.6301 0.00736 0.0574 0.0
C1572 C 0.6089 0.01858 0.08405 0.0
C1573 C 0.59832 0.00623 0.09178 0.0
C1574 C 0.61091 0.03176 0.08958 0.0
C1575 C 0.62241 0.04523 0.08261 0.0
C1576 C 0.63613 0.04845 0.08335 0.0
C1577 C 0.64691 0.06113 0.07669 0.0
C1578 C 0.64411 0.07072 0.06936 0.0
C1579 C 0.63053 0.06767 0.0687 0.0
C1580 C 0.6197 0.055 0.07533 0.0
C1581 C 0.57063 0.01492 0.15169 0.0
C1582 C 0.56277 0.02073 0.14697 0.0
C1583 C 0.58023 0.01501 0.13985 0.0
C1584 C 0.58205 0.0208 0.12302 0.0
C1585 C 0.57458 0.02704 0.11851 0.0
C1586 C 0.565 0.02698 0.13035 0.0
C1587 C 0.59125 0.01977 0.10978 0.0
C1588 C 0.60198 0.03216 0.10229 0.0
C1589 C 0.58938 0.00663 0.10444 0.0
C1590 C 0.57781 0.99311 0.11115 0.0
C1591 C 0.56403 0.98945 0.10907 0.0
C1592 C 0.55319 0.97674 0.11559 0.0
C1593 C 0.556 0.96755 0.12407 0.0
C1594 C 0.56966 0.97103 0.12601 0.0
C1595 C 0.58054 0.98374 0.11955 0.0
H1596 H 0.54759 0.95772 0.1291 0.0
H1597 H 0.65247 0.08053 0.06421 0.0
H1598 H 0.96831 0.61732 0.05673 0.0
H1599 H 0.96319 0.59992 0.07948 0.0
H1600 H 0.00315 0.60503 0.07087 0.0
H1601 H 0.00831 0.62225 0.04825 0.0
H1602 H 0.98256 0.57742 0.07176 0.0
H1603 H 0.99748 0.62035 0.10625 0.0
H1604 H 0.99631 0.64087 0.11648 0.0
H1605 H 0.9549 0.61332 0.13519 0.0
H1606 H 0.95576 0.59263 0.12485 0.0
H1607 H -0.0004 0.55326 0.14528 0.0
H1608 H 0.99844 0.56811 0.12316 0.0
H1609 H 0.95726 0.55543 0.14054 0.0
H1610 H 0.95845 0.54065 0.1631 0.0
H1611 H 0.97396 0.58437 0.13472 0.0
H1612 H 0.96028 0.54133 0.10357 0.0
H1613 H 0.96177 0.52092 0.09376 0.0
H1614 H 0.00076 0.54854 0.06872 0.0
H1615 H -0.00038 0.56915 0.07861 0.0
C1616 C 0.976 0.61473 0.05972 0.0
C1617 C 0.98872 0.62118 0.0507 0.0
C1618 C 0.97307 0.60483 0.07274 0.0
C1619 C 0.98281 0.60123 0.07688 0.0
C1620 C 0.99547 0.60763 0.06784 0.0
C1621 C 0.99842 0.61753 0.05495 0.0
C1622 C 0.97999 0.59075 0.09053 0.0
C1623 C 0.98073 0.57896 0.08554 0.0
C1624 C 0.97714 0.59253 0.10838 0.0
C1625 C 0.97662 0.60496 0.11457 0.0
C1626 C 0.98808 0.61868 0.1124 0.0
C1627 C 0.98748 0.63034 0.11825 0.0
C1628 C 0.97552 0.62841 0.12642 0.0
C1629 C 0.96414 0.6148 0.12882 0.0
C1630 C 0.96468 0.60311 0.12297 0.0
C1631 C 0.99035 0.55375 0.14458 0.0
C1632 C 0.97912 0.5458 0.15596 0.0
C1633 C 0.98966 0.56214 0.13182 0.0
C1634 C 0.9777 0.56272 0.13008 0.0
C1635 C 0.96655 0.55506 0.14163 0.0
C1636 C 0.96721 0.54657 0.15441 0.0
C1637 C 0.97699 0.57132 0.11602 0.0
C1638 C 0.97554 0.5827 0.1209 0.0
C1639 C 0.97919 0.56918 0.09802 0.0
C1640 C 0.9799 0.5568 0.09194 0.0
C1641 C 0.96922 0.54307 0.09608 0.0
C1642 C 0.97 0.53146 0.09049 0.0
C1643 C 0.98136 0.53343 0.08065 0.0
C1644 C 0.99196 0.54703 0.07635 0.0
C1645 C 0.99125 0.55868 0.08193 0.0
H1646 H 0.98194 0.52443 0.07633 0.0
H1647 H 0.97508 0.63745 0.13095 0.0
H1648 H 0.39789 0.37132 0.03485 0.0
H1649 H 0.41413 0.38194 0.05956 0.0
H1650 H 0.38208 0.38066 0.09229 0.0
H1651 H 0.3659 0.37043 0.06748 0.0
H1652 H 0.40443 0.40532 0.09534 0.0
H1653 H 0.39433 0.35818 0.09842 0.0
H1654 H 0.39164 0.33589 0.08732 0.0
H1655 H 0.43474 0.35766 0.07368 0.0
H1656 H 0.43765 0.38013 0.08447 0.0
H1657 H 0.44351 0.42621 0.1744 0.0
H1658 H 0.42571 0.41061 0.15295 0.0
H1659 H 0.45731 0.41699 0.11539 0.0
H1660 H 0.47519 0.43285 0.13658 0.0
H1661 H 0.43453 0.38872 0.11623 0.0
H1662 H 0.44367 0.43605 0.11168 0.0
H1663 H 0.44604 0.45801 0.12361 0.0
H1664 H 0.40377 0.4349 0.14105 0.0
H1665 H 0.40123 0.41276 0.12944 0.0
C1666 C 0.39426 0.37319 0.04736 0.0
C1667 C 0.38062 0.37008 0.0492 0.0
C1668 C 0.40354 0.37919 0.06152 0.0
C1669 C 0.39929 0.38197 0.07786 0.0
C1670 C 0.3856 0.37862 0.0798 0.0
C1671 C 0.37636 0.37276 0.06561 0.0
C1672 C 0.40932 0.38914 0.0926 0.0
C1673 C 0.41081 0.40151 0.1001 0.0
C1674 C 0.41788 0.38436 0.09861 0.0
C1675 C 0.41618 0.37087 0.09211 0.0
C1676 C 0.40321 0.35824 0.09292 0.0
C1677 C 0.40165 0.34557 0.08671 0.0
C1678 C 0.413 0.34537 0.07976 0.0
C1679 C 0.42595 0.35783 0.07905 0.0
C1680 C 0.42756 0.37054 0.08523 0.0
C1681 C 0.44668 0.42428 0.16159 0.0
C1682 C 0.46078 0.43092 0.15712 0.0
C1683 C 0.4365 0.4153 0.14941 0.0
C1684 C 0.44022 0.41278 0.13255 0.0
C1685 C 0.45425 0.41879 0.12836 0.0
C1686 C 0.46445 0.42783 0.14051 0.0
C1687 C 0.42953 0.40479 0.11884 0.0
C1688 C 0.428 0.39237 0.11152 0.0
C1689 C 0.42083 0.40942 0.11306 0.0
C1690 C 0.4223 0.42274 0.11986 0.0
C1691 C 0.43492 0.43564 0.11818 0.0
C1692 C 0.43628 0.44812 0.12486 0.0
C1693 C 0.42507 0.44785 0.13312 0.0
C1694 C 0.41246 0.43509 0.13467 0.0
C1695 C 0.41104 0.42258 0.12803 0.0
H1696 H 0.42615 0.45752 0.13829 0.0
H1697 H 0.41178 0.33554 0.07496 0.0
H1698 H 0.63908 0.70665 0.36208 0.0
H1699 H 0.63318 0.71747 0.38639 0.0
H1700 H 0.67364 0.73397 0.40928 0.0
H1701 H 0.67913 0.72229 0.38562 0.0
H1702 H 0.65687 0.72623 0.43439 0.0
H1703 H 0.6635 0.75433 0.38405 0.0
H1704 H 0.6599 0.7592 0.35359 0.0
H1705 H 0.61705 0.74297 0.365 0.0
H1706 H 0.62036 0.73784 0.39547 0.0
H1707 H 0.66103 0.78487 0.48192 0.0
H1708 H 0.6639 0.77073 0.45912 0.0
H1709 H 0.61971 0.74245 0.45618 0.0
H1710 H 0.61665 0.75599 0.47985 0.0
H1711 H 0.63687 0.75532 0.42173 0.0
H1712 H 0.63238 0.72875 0.47394 0.0
H1713 H 0.63845 0.72697 0.50457 0.0
H1714 H 0.68073 0.74407 0.48906 0.0
H1715 H 0.67495 0.74615 0.45836 0.0
C1716 C 0.64668 0.71258 0.37234 0.0
C1717 C 0.65957 0.71372 0.37197 0.0
C1718 C 0.64335 0.71884 0.38618 0.0
C1719 C 0.65307 0.72685 0.39953 0.0
C1720 C 0.66594 0.72787 0.39918 0.0
C1721 C 0.6691 0.72124 0.38564 0.0
C1722 C 0.64987 0.73413 0.41385 0.0
C1723 C 0.65262 0.73267 0.43151 0.0
C1724 C 0.64416 0.74247 0.41028 0.0
C1725 C 0.64214 0.74557 0.39198 0.0
C1726 C 0.65329 0.75171 0.38002 0.0
C1727 C 0.6513 0.75453 0.36276 0.0
C1728 C 0.63824 0.75136 0.35735 0.0
C1729 C 0.62715 0.7454 0.3692 0.0
C1730 C 0.62908 0.74255 0.38647 0.0
C1731 C 0.65189 0.77548 0.47679 0.0
C1732 C 0.63859 0.77156 0.48291 0.0
C1733 C 0.65357 0.76751 0.4636 0.0
C1734 C 0.64202 0.75561 0.45604 0.0
C1735 C 0.62873 0.75167 0.46187 0.0
C1736 C 0.62703 0.75949 0.47533 0.0
C1737 C 0.64394 0.74737 0.44194 0.0
C1738 C 0.64101 0.74873 0.42443 0.0
C1739 C 0.64982 0.73928 0.44556 0.0
C1740 C 0.65325 0.73772 0.4639 0.0
C1741 C 0.64299 0.73223 0.47708 0.0
C1742 C 0.64637 0.73114 0.49445 0.0
C1743 C 0.65997 0.73544 0.49876 0.0
C1744 C 0.6702 0.74076 0.48569 0.0
C1745 C 0.66687 0.74188 0.46831 0.0
H1746 H 0.66256 0.73462 0.5122 0.0
H1747 H 0.63672 0.75355 0.34398 0.0
H1748 H 0.31091 0.96939 0.41924 0.0
H1749 H 0.29791 0.9513 0.44111 0.0
H1750 H 0.27936 0.91977 0.39919 0.0
H1751 H 0.29208 0.93784 0.37721 0.0
H1752 H 0.2603 0.91728 0.42154 0.0
H1753 H 0.30439 0.92187 0.42685 0.0
H1754 H 0.32964 0.93432 0.43114 0.0
H1755 H 0.32551 0.94872 0.48283 0.0
H1756 H 0.30024 0.9365 0.47876 0.0
H1757 H 0.22926 0.85765 0.47565 0.0
H1758 H 0.24522 0.8751 0.4546 0.0
H1759 H 0.2596 0.90758 0.49541 0.0
H1760 H 0.24371 0.89012 0.51664 0.0
H1761 H 0.28105 0.90929 0.47386 0.0
H1762 H 0.2369 0.90503 0.46776 0.0
H1763 H 0.21164 0.89218 0.46333 0.0
H1764 H 0.21614 0.87675 0.41255 0.0
H1765 H 0.24142 0.88934 0.41681 0.0
C1766 C 0.30415 0.95859 0.41467 0.0
C1767 C 0.30251 0.95506 0.39648 0.0
C1768 C 0.29678 0.94824 0.42721 0.0
C1769 C 0.28775 0.93415 0.4218 0.0
C1770 C 0.28626 0.93057 0.40366 0.0
C1771 C 0.29357 0.94092 0.39112 0.0
C1772 C 0.2793 0.92325 0.43497 0.0
C1773 C 0.26488 0.91539 0.43281 0.0
C1774 C 0.28524 0.92102 0.44993 0.0
C1775 C 0.30043 0.92838 0.45242 0.0
C1776 C 0.30888 0.92779 0.43907 0.0
C1777 C 0.32319 0.93479 0.44148 0.0
C1778 C 0.32918 0.94234 0.45723 0.0
C1779 C 0.32086 0.94288 0.47063 0.0
C1780 C 0.30654 0.93591 0.46829 0.0
C1781 C 0.23598 0.86846 0.48022 0.0
C1782 C 0.23522 0.87255 0.49776 0.0
C1783 C 0.24503 0.87842 0.46816 0.0
C1784 C 0.25348 0.89262 0.47344 0.0
C1785 C 0.25313 0.89666 0.49111 0.0
C1786 C 0.244 0.88672 0.50315 0.0
C1787 C 0.26214 0.90335 0.46029 0.0
C1788 C 0.27655 0.91118 0.4625 0.0
C1789 C 0.25623 0.90553 0.44531 0.0
C1790 C 0.24103 0.89801 0.44269 0.0
C1791 C 0.23249 0.8988 0.45572 0.0
C1792 C 0.21817 0.89158 0.45323 0.0
C1793 C 0.21228 0.88362 0.43769 0.0
C1794 C 0.22071 0.8829 0.42459 0.0
C1795 C 0.23503 0.89008 0.42703 0.0
H1796 H 0.2012 0.87804 0.43579 0.0
H1797 H 0.34026 0.94775 0.45906 0.0
H1798 H 0.04191 0.36276 0.41424 0.0
H1799 H 0.05964 0.36695 0.43586 0.0
H1800 H 0.08184 0.35908 0.39506 0.0
H1801 H 0.06421 0.35478 0.37347 0.0
H1802 H 0.07832 0.3442 0.42443 0.0
H1803 H 0.09348 0.3922 0.41067 0.0
H1804 H 0.09087 0.41264 0.40782 0.0
H1805 H 0.0817 0.41145 0.46334 0.0
H1806 H 0.08408 0.39087 0.46647 0.0
H1807 H 0.14316 0.36819 0.46138 0.0
H1808 H 0.12461 0.36625 0.44326 0.0
H1809 H 0.10654 0.37371 0.48962 0.0
H1810 H 0.12511 0.37557 0.50797 0.0
H1811 H 0.10637 0.38821 0.46024 0.0
H1812 H 0.09249 0.34117 0.47445 0.0
H1813 H 0.09525 0.32084 0.47751 0.0
H1814 H 0.10165 0.32003 0.42142 0.0
H1815 H 0.09914 0.3405 0.41805 0.0
C1816 C 0.05063 0.36203 0.40985 0.0
C1817 C 0.05162 0.35838 0.39214 0.0
C1818 C 0.06076 0.36448 0.4222 0.0
C1819 C 0.07206 0.36335 0.41704 0.0
C1820 C 0.07318 0.35996 0.39932 0.0
C1821 C 0.0631 0.35754 0.38699 0.0
C1822 C 0.08247 0.3651 0.43014 0.0
C1823 C 0.08455 0.35388 0.43212 0.0
C1824 C 0.09024 0.37754 0.44063 0.0
C1825 C 0.0888 0.3899 0.43876 0.0
C1826 C 0.09078 0.39622 0.42224 0.0
C1827 C 0.08937 0.40784 0.42058 0.0
C1828 C 0.08608 0.41331 0.43538 0.0
C1829 C 0.08423 0.40718 0.45188 0.0
C1830 C 0.08562 0.39555 0.45361 0.0
C1831 C 0.13521 0.36936 0.46776 0.0
C1832 C 0.1355 0.37185 0.48614 0.0
C1833 C 0.12465 0.3683 0.45738 0.0
C1834 C 0.11411 0.36963 0.46515 0.0
C1835 C 0.11458 0.37262 0.48339 0.0
C1836 C 0.12519 0.3737 0.49384 0.0
C1837 C 0.10243 0.36744 0.45414 0.0
C1838 C 0.10006 0.37851 0.45262 0.0
C1839 C 0.09433 0.35484 0.44409 0.0
C1840 C 0.09573 0.34244 0.44602 0.0
C1841 C 0.09459 0.33672 0.46278 0.0
C1842 C 0.09609 0.32517 0.46457 0.0
C1843 C 0.09865 0.31917 0.44968 0.0
C1844 C 0.09968 0.3247 0.43295 0.0
C1845 C 0.0982 0.33627 0.43109 0.0
H1846 H 0.09981 0.31022 0.45109 0.0
H1847 H 0.08499 0.42231 0.43407 0.0
H1848 H 0.02396 0.29677 0.31958 0.0
H1849 H 0.03307 0.28891 0.29542 0.0
H1850 H 0.05213 0.32996 0.27235 0.0
H1851 H 0.04279 0.33777 0.29612 0.0
H1852 H 0.04165 0.31029 0.24711 0.0
H1853 H 0.07045 0.32031 0.2985 0.0
H1854 H 0.07534 0.31792 0.32949 0.0
H1855 H 0.05936 0.27386 0.31998 0.0
H1856 H 0.05421 0.27596 0.28897 0.0
H1857 H 0.10019 0.31849 0.20154 0.0
H1858 H 0.08379 0.31964 0.22178 0.0
H1859 H 0.06474 0.27536 0.232 0.0
H1860 H 0.08114 0.27415 0.2116 0.0
H1861 H 0.07222 0.29286 0.26277 0.0
H1862 H 0.04692 0.28457 0.20928 0.0
H1863 H 0.04362 0.28834 0.17819 0.0
H1864 H 0.05459 0.33064 0.19153 0.0
H1865 H 0.05817 0.3272 0.22267 0.0
C1866 C 0.02999 0.30409 0.30928 0.0
C1867 C 0.03275 0.31794 0.30985 0.0
C1868 C 0.03523 0.29959 0.2955 0.0
C1869 C 0.04346 0.30891 0.28221 0.0
C1870 C 0.04581 0.32258 0.28245 0.0
C1871 C 0.0405 0.32705 0.29611 0.0
C1872 C 0.05017 0.30475 0.26844 0.0
C1873 C 0.04837 0.30653 0.25054 0.0
C1874 C 0.05871 0.29953 0.27287 0.0
C1875 C 0.06178 0.29825 0.2915 0.0
C1876 C 0.06787 0.31009 0.30306 0.0
C1877 C 0.07071 0.30879 0.32062 0.0
C1878 C 0.06762 0.29573 0.32672 0.0
C1879 C 0.06172 0.28396 0.31525 0.0
C1880 C 0.05884 0.28519 0.29769 0.0
C1881 C 0.09242 0.30899 0.208 0.0
C1882 C 0.09192 0.29624 0.20508 0.0
C1883 C 0.08303 0.30963 0.21946 0.0
C1884 C 0.07302 0.29756 0.22829 0.0
C1885 C 0.07236 0.28476 0.22523 0.0
C1886 C 0.08166 0.28407 0.21356 0.0
C1887 C 0.0639 0.29867 0.24153 0.0
C1888 C 0.06528 0.29635 0.25933 0.0
C1889 C 0.05513 0.30356 0.23702 0.0
C1890 C 0.0529 0.30565 0.21831 0.0
C1891 C 0.04873 0.29472 0.20557 0.0
C1892 C 0.04679 0.29679 0.18793 0.0
C1893 C 0.04892 0.30973 0.18288 0.0
C1894 C 0.05295 0.32062 0.19546 0.0
C1895 C 0.05492 0.31861 0.21312 0.0
H1896 H 0.04741 0.31131 0.16922 0.0
H1897 H 0.06983 0.29475 0.34031 0.0
H1898 H 0.70149 0.72498 0.29888 0.0
H1899 H 0.70872 0.74266 0.27602 0.0
H1900 H 0.66607 0.72477 0.26099 0.0
H1901 H 0.65885 0.70685 0.28333 0.0
H1902 H 0.68117 0.73161 0.23262 0.0
H1903 H 0.68409 0.75487 0.28854 0.0
H1904 H 0.69193 0.76282 0.31929 0.0
H1905 H 0.73415 0.78618 0.30171 0.0
H1906 H 0.72656 0.77821 0.27087 0.0
H1907 H 0.68005 0.78907 0.19782 0.0
H1908 H 0.67784 0.77084 0.21704 0.0
H1909 H 0.72187 0.78864 0.21451 0.0
H1910 H 0.72419 0.80664 0.19443 0.0
H1911 H 0.70917 0.78228 0.25011 0.0
H1912 H 0.70459 0.7606 0.19278 0.0
H1913 H 0.69524 0.75313 0.16252 0.0
H1914 H 0.6543 0.72711 0.18352 0.0
H1915 H 0.66338 0.7346 0.21392 0.0
C1916 C 0.69368 0.72476 0.29061 0.0
C1917 C 0.67959 0.71457 0.29298 0.0
C1918 C 0.69782 0.73491 0.2776 0.0
C1919 C 0.68793 0.73519 0.26696 0.0
C1920 C 0.6739 0.72478 0.26902 0.0
C1921 C 0.66978 0.71455 0.28185 0.0
C1922 C 0.69202 0.74652 0.25401 0.0
C1923 C 0.68724 0.74268 0.23649 0.0
C1924 C 0.70019 0.761 0.25893 0.0
C1925 C 0.70477 0.76581 0.27744 0.0
C1926 C 0.69505 0.76161 0.29126 0.0
C1927 C 0.69945 0.76613 0.30869 0.0
C1928 C 0.71353 0.77496 0.31246 0.0
C1929 C 0.72325 0.77931 0.29878 0.0
C1930 C 0.7189 0.77481 0.28132 0.0
C1931 C 0.68928 0.78902 0.20099 0.0
C1932 C 0.7023 0.7993 0.19435 0.0
C1933 C 0.68798 0.77863 0.21212 0.0
C1934 C 0.69968 0.77837 0.21705 0.0
C1935 C 0.71273 0.7887 0.2108 0.0
C1936 C 0.71403 0.79902 0.19942 0.0
C1937 C 0.6981 0.76731 0.22894 0.0
C1938 C 0.70332 0.77121 0.24622 0.0
C1939 C 0.69014 0.75289 0.2239 0.0
C1940 C 0.68466 0.74825 0.20564 0.0
C1941 C 0.69358 0.75337 0.19095 0.0
C1942 C 0.68833 0.74912 0.17377 0.0
C1943 C 0.67419 0.73967 0.1711 0.0
C1944 C 0.66526 0.73443 0.18561 0.0
C1945 C 0.67045 0.73867 0.20282 0.0
H1946 H 0.67014 0.73639 0.15778 0.0
H1947 H 0.71692 0.77845 0.32596 0.0
H1948 H 0.2609 0.95839 0.33503 0.0
H1949 H 0.24358 0.94771 0.31144 0.0
H1950 H 0.27559 0.95619 0.27342 0.0
H1951 H 0.29298 0.96703 0.29685 0.0
H1952 H 0.25661 0.96129 0.2599 0.0
H1953 H 0.25651 0.92405 0.29064 0.0
H1954 H 0.25494 0.91047 0.31673 0.0
H1955 H 0.2139 0.90153 0.32727 0.0
H1956 H 0.21531 0.91523 0.30136 0.0
H1957 H 0.21743 0.91057 0.19208 0.0
H1958 H 0.23381 0.92516 0.21546 0.0
H1959 H 0.19988 0.91449 0.25115 0.0
H1960 H 0.18346 0.89955 0.22802 0.0
H1961 H 0.21912 0.91127 0.26637 0.0
H1962 H 0.21881 0.94734 0.23387 0.0
H1963 H 0.22057 0.9605 0.20725 0.0
H1964 H 0.26249 0.97129 0.19941 0.0
H1965 H 0.26092 0.95803 0.22586 0.0
C1966 C 0.26428 0.95811 0.32163 0.0
C1967 C 0.27831 0.96344 0.31785 0.0
C1968 C 0.25436 0.95197 0.30817 0.0
C1969 C 0.25829 0.951 0.29073 0.0
C1970 C 0.27234 0.95682 0.2868 0.0
C1971 C 0.28226 0.96295 0.30023 0.0
C1972 C 0.24771 0.9433 0.27674 0.0
C1973 C 0.24847 0.95032 0.26123 0.0
C1974 C 0.23696 0.92907 0.27863 0.0
C1975 C 0.23608 0.9208 0.29419 0.0
C1976 C 0.2472 0.91929 0.29861 0.0
C1977 C 0.24633 0.91155 0.31335 0.0
C1978 C 0.23435 0.90518 0.32368 0.0
C1979 C 0.22319 0.9065 0.31927 0.0
C1980 C 0.22401 0.91424 0.30456 0.0
C1981 C 0.21346 0.91135 0.2049 0.0
C1982 C 0.19914 0.90389 0.2082 0.0
C1983 C 0.22283 0.91979 0.2182 0.0
C1984 C 0.21806 0.92101 0.23501 0.0
C1985 C 0.20378 0.91374 0.23826 0.0
C1986 C 0.19441 0.9053 0.22497 0.0
C1987 C 0.22799 0.92924 0.24948 0.0
C1988 C 0.22716 0.92229 0.26508 0.0
C1989 C 0.23869 0.9435 0.2476 0.0
C1990 C 0.2397 0.95159 0.23177 0.0
C1991 C 0.22837 0.95243 0.2264 0.0
C1992 C 0.22934 0.95993 0.21135 0.0
C1993 C 0.24162 0.9667 0.20162 0.0
C1994 C 0.25298 0.96603 0.20696 0.0
C1995 C 0.25206 0.95854 0.22199 0.0
H1996 H 0.24235 0.97249 0.18997 0.0
H1997 H 0.23369 0.89919 0.33508 0.0
H1998 H 0.70324 0.97003 0.31591 0.0
H1999 H 0.70849 0.95893 0.29128 0.0
H2000 H 0.67344 0.95348 0.26235 0.0
H2001 H 0.66785 0.96408 0.28722 0.0
H2002 H 0.67315 0.9304 0.2604 0.0
H2003 H 0.7081 0.97849 0.25114 0.0
H2004 H 0.72757 0.00231 0.259 0.0
H2005 H 0.75264 0.98533 0.27131 0.0
H2006 H 0.73324 0.96136 0.26375 0.0
H2007 H 0.69025 0.90959 0.17925 0.0
H2008 H 0.68765 0.9247 0.20093 0.0
H2009 H 0.71546 0.92197 0.23644 0.0
H2010 H 0.71773 0.9064 0.2152 0.0
H2011 H 0.71969 0.94989 0.23371 0.0
H2012 H 0.68348 0.90151 0.24399 0.0
H2013 H 0.66387 0.8781 0.23493 0.0
H2014 H 0.641 0.89676 0.21913 0.0
H2015 H 0.66059 0.92032 0.22785 0.0
C2016 C 0.69673 0.96658 0.30423 0.0
C2017 C 0.68511 0.96789 0.30351 0.0
C2018 C 0.69978 0.9603 0.2901 0.0
C2019 C 0.69146 0.95549 0.27483 0.0
C2020 C 0.68001 0.95707 0.27399 0.0
C2021 C 0.67683 0.96315 0.2882 0.0
C2022 C 0.69419 0.94812 0.26017 0.0
C2023 C 0.68329 0.93483 0.25439 0.0
C2024 C 0.70747 0.95371 0.25249 0.0
C2025 C 0.71917 0.96811 0.25703 0.0
C2026 C 0.71773 0.97982 0.25565 0.0
C2027 C 0.72876 0.99335 0.26003 0.0
C2028 C 0.74132 0.99533 0.26569 0.0
C2029 C 0.74289 0.98378 0.26694 0.0
C2030 C 0.73189 0.97022 0.26259 0.0
C2031 C 0.69579 0.91214 0.19168 0.0
C2032 C 0.70409 0.90662 0.19552 0.0
C2033 C 0.69438 0.92088 0.20398 0.0
C2034 C 0.70131 0.92436 0.22029 0.0
C2035 C 0.71009 0.91943 0.22387 0.0
C2036 C 0.7114 0.91057 0.21166 0.0
C2037 C 0.69867 0.93233 0.23408 0.0
C2038 C 0.70957 0.94563 0.2397 0.0
C2039 C 0.68537 0.92686 0.24149 0.0
C2040 C 0.67355 0.91269 0.23639 0.0
C2041 C 0.67432 0.90063 0.23844 0.0
C2042 C 0.6632 0.88733 0.23339 0.0
C2043 C 0.65121 0.88594 0.22641 0.0
C2044 C 0.6503 0.89785 0.22451 0.0
C2045 C 0.6614 0.91118 0.22951 0.0
H2046 H 0.64261 0.87564 0.22251 0.0
H2047 H 0.74985 0.00581 0.26908 0.0
H2048 H 0.03465 0.73566 0.31558 0.0
H2049 H 0.04594 0.75285 0.29221 0.0
H2050 H 0.0272 0.71942 0.25261 0.0
H2051 H 0.0159 0.70213 0.27587 0.0
H2052 H 0.05487 0.7366 0.24767 0.0
H2053 H 0.01626 0.74204 0.25753 0.0
H2054 H 0.00011 0.74594 0.27517 0.0
H2055 H 0.03367 0.78664 0.29225 0.0
H2056 H 0.05007 0.78291 0.2749 0.0
H2057 H 0.0816 0.78302 0.17597 0.0
H2058 H 0.06484 0.76512 0.19601 0.0
H2059 H 0.07966 0.79601 0.23887 0.0
H2060 H 0.09629 0.81395 0.21886 0.0
H2061 H 0.05222 0.77917 0.24053 0.0
H2062 H 0.09095 0.77305 0.23348 0.0
H2063 H 0.10761 0.76943 0.21664 0.0
H2064 H 0.0743 0.7302 0.19533 0.0
H2065 H 0.05741 0.73369 0.21187 0.0
C2066 C 0.0328 0.73197 0.30189 0.0
C2067 C 0.02441 0.71752 0.29759 0.0
C2068 C 0.03922 0.74182 0.28855 0.0
C2069 C 0.03734 0.73741 0.27067 0.0
C2070 C 0.02876 0.72303 0.26632 0.0
C2071 C 0.0223 0.71318 0.27965 0.0
C2072 C 0.04502 0.74771 0.25661 0.0
C2073 C 0.05409 0.74577 0.24588 0.0
C2074 C 0.04426 0.75984 0.2546 0.0
C2075 C 0.03442 0.76214 0.26502 0.0
C2076 C 0.02022 0.75178 0.26516 0.0
C2077 C 0.01101 0.75397 0.27508 0.0
C2078 C 0.01586 0.76652 0.28486 0.0
C2079 C 0.02993 0.77692 0.28469 0.0
C2080 C 0.03919 0.77478 0.27479 0.0
C2081 C 0.08121 0.78599 0.18964 0.0
C2082 C 0.09031 0.79985 0.19588 0.0
C2083 C 0.07164 0.77577 0.20107 0.0
C2084 C 0.07114 0.77918 0.21901 0.0
C2085 C 0.07984 0.79314 0.22508 0.0
C2086 C 0.08933 0.80339 0.21363 0.0
C2087 C 0.06212 0.76809 0.23168 0.0
C2088 C 0.05286 0.76991 0.24219 0.0
C2089 C 0.06277 0.75587 0.23361 0.0
C2090 C 0.07291 0.75371 0.22375 0.0
C2091 C 0.08717 0.76371 0.2251 0.0
C2092 C 0.09666 0.76167 0.21563 0.0
C2093 C 0.09202 0.74962 0.20488 0.0
C2094 C 0.07788 0.73955 0.20363 0.0
C2095 C 0.06835 0.74155 0.21306 0.0
H2096 H 0.09938 0.74806 0.19755 0.0
H2097 H 0.00872 0.76819 0.29253 0.0
H2098 H 0.27065 0.31406 0.30724 0.0
H2099 H 0.25256 0.30745 0.28541 0.0
H2100 H 0.2749 0.29747 0.2472 0.0
H2101 H 0.2933 0.30433 0.26902 0.0
H2102 H 0.26555 0.3125 0.23249 0.0
H2103 H 0.24575 0.27109 0.26624 0.0
H2104 H 0.23871 0.25685 0.29312 0.0
H2105 H 0.2116 0.27144 0.30756 0.0
H2106 H 0.21862 0.28593 0.2809 0.0
H2107 H 0.20678 0.28876 0.17586 0.0
H2108 H 0.22467 0.2884 0.1931 0.0
H2109 H 0.21056 0.29961 0.24044 0.0
H2110 H 0.19229 0.29927 0.22356 0.0
H2111 H 0.21608 0.27998 0.24725 0.0
H2112 H 0.23924 0.32419 0.21516 0.0
H2113 H 0.24623 0.3379 0.18781 0.0
H2114 H 0.26697 0.31695 0.16964 0.0
H2115 H 0.25993 0.30298 0.19678 0.0
C2116 C 0.27172 0.31039 0.29424 0.0
C2117 C 0.28341 0.30969 0.2899 0.0
C2118 C 0.26132 0.30654 0.28178 0.0
C2119 C 0.26226 0.30175 0.26475 0.0
C2120 C 0.27393 0.30107 0.2603 0.0
C2121 C 0.28441 0.30496 0.27279 0.0
C2122 C 0.25121 0.29796 0.25157 0.0
C2123 C 0.25474 0.30516 0.23555 0.0
C2124 C 0.23711 0.28842 0.25556 0.0
C2125 C 0.23278 0.27966 0.2716 0.0
C2126 C 0.23836 0.27134 0.27521 0.0
C2127 C 0.23436 0.26321 0.2904 0.0
C2128 C 0.22473 0.26326 0.30205 0.0
C2129 C 0.21905 0.27141 0.29852 0.0
C2130 C 0.22302 0.27957 0.28335 0.0
C2131 C 0.20737 0.29096 0.18999 0.0
C2132 C 0.19817 0.29418 0.1983 0.0
C2133 C 0.21769 0.29088 0.19979 0.0
C2134 C 0.21908 0.29418 0.21802 0.0
C2135 C 0.20972 0.29708 0.22637 0.0
C2136 C 0.19937 0.29705 0.21665 0.0
C2137 C 0.23039 0.29496 0.22858 0.0
C2138 C 0.2269 0.28713 0.24407 0.0
C2139 C 0.24451 0.30385 0.22404 0.0
C2140 C 0.24893 0.31244 0.2079 0.0
C2141 C 0.24522 0.32246 0.20528 0.0
C2142 C 0.2492 0.33027 0.18982 0.0
C2143 C 0.25699 0.32826 0.17695 0.0
C2144 C 0.26089 0.31847 0.17958 0.0
C2145 C 0.25692 0.31061 0.195 0.0
H2146 H 0.26004 0.3343 0.16498 0.0
H2147 H 0.22165 0.25696 0.31381 0.0
H2148 H 0.3081 0.37081 0.3697 0.0
H2149 H 0.29722 0.37603 0.39443 0.0
H2150 H 0.27795 0.33312 0.41141 0.0
H2151 H 0.28862 0.32777 0.3867 0.0
H2152 H 0.25962 0.34124 0.40961 0.0
H2153 H 0.30507 0.36016 0.43423 0.0
H2154 H 0.33053 0.37515 0.43475 0.0
H2155 H 0.3281 0.41218 0.43219 0.0
H2156 H 0.30262 0.39739 0.43141 0.0
H2157 H 0.2318 0.34617 0.49056 0.0
H2158 H 0.24663 0.34336 0.46926 0.0
H2159 H 0.26546 0.38684 0.45482 0.0
H2160 H 0.25079 0.38977 0.47643 0.0
H2161 H 0.2844 0.37923 0.45513 0.0
H2162 H 0.23939 0.3608 0.43007 0.0
H2163 H 0.21391 0.34619 0.42921 0.0
H2164 H 0.21553 0.3087 0.43172 0.0
H2165 H 0.24103 0.32311 0.43286 0.0
C2166 C 0.30163 0.36251 0.37877 0.0
C2167 C 0.29919 0.34886 0.37617 0.0
C2168 C 0.29547 0.36553 0.39295 0.0
C2169 C 0.28684 0.35498 0.40482 0.0
C2170 C 0.28457 0.34141 0.4024 0.0
C2171 C 0.2907 0.33838 0.38826 0.0
C2172 C 0.27955 0.35778 0.41923 0.0
C2173 C 0.26506 0.34942 0.41971 0.0
C2174 C 0.28662 0.36875 0.43206 0.0
C2175 C 0.30194 0.37766 0.43258 0.0
C2176 C 0.30997 0.3715 0.43363 0.0
C2177 C 0.3244 0.37996 0.434 0.0
C2178 C 0.33093 0.39461 0.43346 0.0
C2179 C 0.32303 0.40083 0.43259 0.0
C2180 C 0.30859 0.39241 0.43219 0.0
C2181 C 0.2392 0.35516 0.48295 0.0
C2182 C 0.24006 0.36814 0.48496 0.0
C2183 C 0.24765 0.35354 0.47079 0.0
C2184 C 0.25693 0.36481 0.46018 0.0
C2185 C 0.25833 0.378 0.46283 0.0
C2186 C 0.24996 0.37966 0.47516 0.0
C2187 C 0.26451 0.36253 0.44563 0.0
C2188 C 0.27899 0.37104 0.44505 0.0
C2189 C 0.25744 0.35174 0.43259 0.0
C2190 C 0.24211 0.34304 0.43171 0.0
C2191 C 0.23431 0.34944 0.43055 0.0
C2192 C 0.21987 0.3412 0.43001 0.0
C2193 C 0.21311 0.32652 0.43046 0.0
C2194 C 0.22078 0.32007 0.4314 0.0
C2195 C 0.23523 0.32827 0.43198 0.0
H2196 H 0.20193 0.32016 0.43004 0.0
H2197 H 0.3421 0.40114 0.43375 0.0
H2198 H 0.67973 0.95317 0.38249 0.0
H2199 H 0.67316 0.93579 0.40545 0.0
H2200 H 0.63243 0.92966 0.40796 0.0
H2201 H 0.63888 0.94703 0.38473 0.0
H2202 H 0.6456 0.93371 0.44166 0.0
H2203 H 0.63462 0.90488 0.38908 0.0
H2204 H 0.63888 0.89827 0.35933 0.0
H2205 H 0.67293 0.89635 0.37961 0.0
H2206 H 0.66901 0.90316 0.40944 0.0
H2207 H 0.62045 0.87317 0.49653 0.0
H2208 H 0.6233 0.88964 0.47359 0.0
H2209 H 0.66355 0.8967 0.46089 0.0
H2210 H 0.6607 0.88017 0.48353 0.0
H2211 H 0.6479 0.89088 0.43151 0.0
H2212 H 0.66206 0.92322 0.48146 0.0
H2213 H 0.66039 0.93221 0.51096 0.0
H2214 H 0.62224 0.92843 0.49598 0.0
H2215 H 0.62383 0.9196 0.46624 0.0
C2216 C 0.66936 0.94813 0.38788 0.0
C2217 C 0.65981 0.95147 0.3818 0.0
C2218 C 0.66561 0.93816 0.40095 0.0
C2219 C 0.65229 0.93139 0.40828 0.0
C2220 C 0.64275 0.93476 0.4024 0.0
C2221 C 0.64644 0.94464 0.38912 0.0
C2222 C 0.64857 0.921 0.42233 0.0
C2223 C 0.64578 0.92417 0.43939 0.0
C2224 C 0.64921 0.90879 0.4194 0.0
C2225 C 0.65158 0.90465 0.40148 0.0
C2226 C 0.64309 0.90317 0.38717 0.0
C2227 C 0.64543 0.89936 0.3703 0.0
C2228 C 0.65619 0.89692 0.36757 0.0
C2229 C 0.66461 0.89826 0.38174 0.0
C2230 C 0.66232 0.90207 0.39864 0.0
C2231 C 0.62992 0.8783 0.48889 0.0
C2232 C 0.64036 0.87539 0.49185 0.0
C2233 C 0.63157 0.88776 0.47588 0.0
C2234 C 0.64365 0.89441 0.46557 0.0
C2235 C 0.65415 0.89168 0.4687 0.0
C2236 C 0.65255 0.88232 0.48175 0.0
C2237 C 0.64515 0.90371 0.45095 0.0
C2238 C 0.6475 0.90031 0.43376 0.0
C2239 C 0.64426 0.91578 0.45378 0.0
C2240 C 0.64297 0.92059 0.47176 0.0
C2241 C 0.65325 0.92418 0.48453 0.0
C2242 C 0.65235 0.92931 0.50126 0.0
C2243 C 0.64116 0.9308 0.5054 0.0
C2244 C 0.63088 0.92724 0.49277 0.0
C2245 C 0.63181 0.92223 0.47595 0.0
H2246 H 0.64047 0.93476 0.51838 0.0
H2247 H 0.65798 0.89398 0.3545 0.0
H2248 H 0.0697 0.72098 0.36356 0.0
H2249 H 0.0857 0.73085 0.38861 0.0
H2250 H 0.05137 0.71811 0.42436 0.0
H2251 H 0.03534 0.70846 0.39937 0.0
H2252 H 0.07139 0.74445 0.43142 0.0
H2253 H 0.06867 0.70045 0.42179 0.0
H2254 H 0.06975 0.68202 0.40443 0.0
H2255 H 0.11248 0.71138 0.3925 0.0
H2256 H 0.1116 0.73006 0.4096 0.0
H2257 H 0.11022 0.76019 0.51019 0.0
H2258 H 0.09337 0.74653 0.48679 0.0
H2259 H 0.12651 0.75981 0.44897 0.0
H2260 H 0.1434 0.7735 0.47224 0.0
H2261 H 0.10657 0.73224 0.44376 0.0
H2262 H 0.1089 0.7764 0.45202 0.0
H2263 H 0.1079 0.79493 0.46927 0.0
H2264 H 0.0658 0.76514 0.48359 0.0
H2265 H 0.06662 0.74638 0.46662 0.0
C2266 C 0.06555 0.72022 0.37675 0.0
C2267 C 0.05125 0.71395 0.37946 0.0
C2268 C 0.07471 0.7258 0.39108 0.0
C2269 C 0.06972 0.72508 0.40839 0.0
C2270 C 0.05544 0.71877 0.41112 0.0
C2271 C 0.04629 0.71324 0.39681 0.0
C2272 C 0.07941 0.73139 0.42358 0.0
C2273 C 0.07892 0.7416 0.43429 0.0
C2274 C 0.08945 0.72791 0.42708 0.0
C2275 C 0.09003 0.71669 0.41685 0.0
C2276 C 0.07827 0.70301 0.41535 0.0
C2277 C 0.07885 0.69251 0.40558 0.0
C2278 C 0.09116 0.69554 0.39733 0.0
C2279 C 0.10294 0.70906 0.39888 0.0
C2280 C 0.10241 0.7196 0.40863 0.0
C2281 C 0.11391 0.76015 0.4969 0.0
C2282 C 0.12814 0.768 0.49304 0.0
C2283 C 0.10428 0.75233 0.48356 0.0
C2284 C 0.10869 0.75232 0.4661 0.0
C2285 C 0.1229 0.75966 0.46236 0.0
C2286 C 0.13254 0.76745 0.47569 0.0
C2287 C 0.09851 0.74527 0.45154 0.0
C2288 C 0.09894 0.73498 0.44094 0.0
C2289 C 0.08841 0.74867 0.4481 0.0
C2290 C 0.08787 0.75996 0.4582 0.0
C2291 C 0.09946 0.77378 0.45895 0.0
C2292 C 0.09892 0.78433 0.46867 0.0
C2293 C 0.08681 0.78121 0.47756 0.0
C2294 C 0.07519 0.76754 0.47672 0.0
C2295 C 0.07568 0.75695 0.46705 0.0
H2296 H 0.08641 0.78939 0.48507 0.0
H2297 H 0.09159 0.68739 0.38977 0.0
H2298 H 0.33149 0.04189 0.72894 0.0
H2299 H 0.32427 0.05167 0.75304 0.0
H2300 H 0.30762 0.06706 0.71503 0.0
H2301 H 0.31506 0.05757 0.69084 0.0
H2302 H 0.32282 0.08695 0.73873 0.0
H2303 H 0.28649 0.03837 0.74091 0.0
H2304 H 0.27642 0.01274 0.74264 0.0
H2305 H 0.29577 0.0186 0.79321 0.0
H2306 H 0.30612 0.0443 0.79168 0.0
H2307 H 0.28821 0.10704 0.79903 0.0
H2308 H 0.2919 0.09373 0.77576 0.0
H2309 H 0.31194 0.08181 0.81337 0.0
H2310 H 0.308 0.09488 0.83689 0.0
H2311 H 0.29456 0.05979 0.79013 0.0
H2312 H 0.3313 0.10841 0.78736 0.0
H2313 H 0.34119 0.134 0.78563 0.0
H2314 H 0.32076 0.12785 0.73581 0.0
H2315 H 0.31058 0.10218 0.73738 0.0
C2316 C 0.3262 0.04727 0.72571 0.0
C2317 C 0.32387 0.04898 0.70797 0.0
C2318 C 0.32202 0.05279 0.73951 0.0
C2319 C 0.31528 0.05998 0.73585 0.0
C2320 C 0.3128 0.06155 0.71816 0.0
C2321 C 0.31704 0.05609 0.70435 0.0
C2322 C 0.31142 0.06647 0.75041 0.0
C2323 C 0.31645 0.08094 0.74981 0.0
C2324 C 0.30342 0.05872 0.76512 0.0
C2325 C 0.29719 0.04327 0.7661 0.0
C2326 C 0.28869 0.0342 0.75234 0.0
C2327 C 0.28291 0.01966 0.75329 0.0
C2328 C 0.28548 0.01405 0.76801 0.0
C2329 C 0.29381 0.02297 0.78182 0.0
C2330 C 0.29962 0.03752 0.78092 0.0
C2331 C 0.29315 0.10136 0.80245 0.0
C2332 C 0.29786 0.10206 0.81979 0.0
C2333 C 0.29535 0.09385 0.7891 0.0
C2334 C 0.30235 0.08695 0.79281 0.0
C2335 C 0.30656 0.08712 0.81024 0.0
C2336 C 0.3044 0.09467 0.82361 0.0
C2337 C 0.30589 0.08019 0.7783 0.0
C2338 C 0.30087 0.06573 0.77897 0.0
C2339 C 0.31388 0.08792 0.76361 0.0
C2340 C 0.32007 0.10336 0.76258 0.0
C2341 C 0.32883 0.1125 0.77611 0.0
C2342 C 0.3345 0.12702 0.77515 0.0
C2343 C 0.33158 0.13255 0.76065 0.0
C2344 C 0.323 0.12355 0.74705 0.0
C2345 C 0.31728 0.10902 0.74796 0.0
H2346 H 0.33598 0.14379 0.75992 0.0
H2347 H 0.281 0.00279 0.76872 0.0
H2348 H 0.97232 0.27199 0.70893 0.0
H2349 H 0.95872 0.25433 0.73105 0.0
H2350 H 0.96742 0.28734 0.76945 0.0
H2351 H 0.98141 0.30507 0.74757 0.0
H2352 H 0.9668 0.26623 0.78541 0.0
H2353 H 0.93755 0.27121 0.74493 0.0
H2354 H 0.92881 0.27181 0.71546 0.0
H2355 H 0.91668 0.22875 0.70529 0.0
H2356 H 0.92555 0.22797 0.73461 0.0
H2357 H 0.89071 0.21614 0.81711 0.0
H2358 H 0.90785 0.23409 0.79766 0.0
H2359 H 0.93563 0.21962 0.80723 0.0
H2360 H 0.91876 0.202 0.82741 0.0
H2361 H 0.91824 0.23178 0.76772 0.0
H2362 H 0.96905 0.24743 0.80438 0.0
H2363 H 0.97712 0.24869 0.83493 0.0
H2364 H 0.94446 0.25374 0.85516 0.0
H2365 H 0.93632 0.25271 0.82474 0.0
C2366 C 0.97151 0.2755 0.72216 0.0
C2367 C 0.9778 0.28993 0.72644 0.0
C2368 C 0.96371 0.26539 0.73478 0.0
C2369 C 0.96181 0.26951 0.7518 0.0
C2370 C 0.96871 0.28391 0.75639 0.0
C2371 C 0.97667 0.29404 0.74384 0.0
C2372 C 0.95183 0.25888 0.76432 0.0
C2373 C 0.9562 0.25865 0.78153 0.0
C2374 C 0.9379 0.24921 0.7594 0.0
C2375 C 0.93233 0.24957 0.74189 0.0
C2376 C 0.93309 0.26189 0.73637 0.0
C2377 C 0.92811 0.26227 0.7197 0.0
C2378 C 0.92223 0.25034 0.70849 0.0
C2379 C 0.92126 0.23799 0.71397 0.0
C2380 C 0.92625 0.23757 0.73062 0.0
C2381 C 0.90056 0.21691 0.81535 0.0
C2382 C 0.90339 0.20767 0.82393 0.0
C2383 C 0.91029 0.22709 0.80406 0.0
C2384 C 0.92306 0.22827 0.80106 0.0
C2385 C 0.92592 0.21903 0.80951 0.0
C2386 C 0.9162 0.20886 0.8209 0.0
C2387 C 0.93322 0.23901 0.7888 0.0
C2388 C 0.92887 0.23928 0.7716 0.0
C2389 C 0.94703 0.24896 0.79393 0.0
C2390 C 0.95199 0.24983 0.81227 0.0
C2391 C 0.96363 0.24886 0.81534 0.0
C2392 C 0.96821 0.24953 0.83264 0.0
C2393 C 0.96128 0.25124 0.84699 0.0
C2394 C 0.94979 0.25236 0.84405 0.0
C2395 C 0.94518 0.25172 0.82678 0.0
H2396 H 0.96483 0.25173 0.86037 0.0
H2397 H 0.91839 0.25065 0.69558 0.0
H2398 H 0.70983 0.66139 0.73148 0.0
H2399 H 0.72772 0.66995 0.75413 0.0
H2400 H 0.74351 0.71276 0.73885 0.0
H2401 H 0.72564 0.70424 0.71589 0.0
H2402 H 0.76406 0.70762 0.74268 0.0
H2403 H 0.72597 0.70118 0.77726 0.0
H2404 H 0.70199 0.68877 0.78833 0.0
H2405 H 0.70713 0.65639 0.80914 0.0
H2406 H 0.73109 0.6685 0.79797 0.0
H2407 H 0.8113 0.73048 0.81535 0.0
H2408 H 0.79249 0.72787 0.79681 0.0
H2409 H 0.77036 0.68282 0.80293 0.0
H2410 H 0.78893 0.68538 0.82167 0.0
H2411 H 0.75314 0.69292 0.80518 0.0
H2412 H 0.78978 0.69763 0.76664 0.0
H2413 H 0.81367 0.70971 0.7552 0.0
H2414 H 0.81101 0.74536 0.74178 0.0
H2415 H 0.78716 0.73354 0.75338 0.0
C2416 C 0.71706 0.67264 0.73294 0.0
C2417 C 0.7163 0.68214 0.72188 0.0
C2418 C 0.72723 0.67752 0.74598 0.0
C2419 C 0.73682 0.69201 0.74835 0.0
C2420 C 0.73616 0.70154 0.7373 0.0
C2421 C 0.72594 0.69666 0.72422 0.0
C2422 C 0.74783 0.69701 0.76193 0.0
C2423 C 0.76169 0.70469 0.75644 0.0
C2424 C 0.74471 0.69302 0.77983 0.0
C2425 C 0.73032 0.68571 0.78666 0.0
C2426 C 0.72196 0.69136 0.78409 0.0
C2427 C 0.70837 0.68439 0.7904 0.0
C2428 C 0.70303 0.67179 0.79941 0.0
C2429 C 0.71128 0.66615 0.80216 0.0
C2430 C 0.72488 0.67308 0.79586 0.0
C2431 C 0.80231 0.72006 0.81295 0.0
C2432 C 0.80163 0.70812 0.81979 0.0
C2433 C 0.79163 0.71857 0.80229 0.0
C2434 C 0.78011 0.70513 0.79835 0.0
C2435 C 0.77917 0.69328 0.80577 0.0
C2436 C 0.78984 0.69475 0.81634 0.0
C2437 C 0.76931 0.70319 0.7858 0.0
C2438 C 0.7555 0.69609 0.7915 0.0
C2439 C 0.77246 0.7077 0.76809 0.0
C2440 C 0.78677 0.71478 0.76107 0.0
C2441 C 0.79434 0.70809 0.76139 0.0
C2442 C 0.80786 0.71488 0.75485 0.0
C2443 C 0.81387 0.72832 0.74782 0.0
C2444 C 0.80635 0.73497 0.74727 0.0
C2445 C 0.79284 0.72823 0.75382 0.0
H2446 H 0.82434 0.73356 0.74276 0.0
H2447 H 0.69251 0.6664 0.80429 0.0
H2448 H 0.73006 0.68661 0.63511 0.0
H2449 H 0.73702 0.67646 0.61126 0.0
H2450 H 0.69758 0.6374 0.61421 0.0
H2451 H 0.69062 0.64742 0.63842 0.0
H2452 H 0.71764 0.63223 0.61147 0.0
H2453 H 0.70467 0.65959 0.57989 0.0
H2454 H 0.70385 0.68056 0.57271 0.0
H2455 H 0.74752 0.70364 0.56236 0.0
H2456 H 0.74864 0.68287 0.56973 0.0
H2457 H 0.74755 0.63285 0.51577 0.0
H2458 H 0.7319 0.6359 0.53538 0.0
H2459 H 0.7555 0.63765 0.58071 0.0
H2460 H 0.77081 0.63414 0.56133 0.0
H2461 H 0.73788 0.65784 0.55577 0.0
H2462 H 0.73597 0.62587 0.6169 0.0
H2463 H 0.7349 0.60371 0.62281 0.0
H2464 H 0.71713 0.58727 0.57141 0.0
H2465 H 0.7179 0.60925 0.56528 0.0
C2466 C 0.72284 0.67586 0.63069 0.0
C2467 C 0.70977 0.66783 0.63864 0.0
C2468 C 0.7268 0.6701 0.61696 0.0
C2469 C 0.71774 0.65624 0.61074 0.0
C2470 C 0.70472 0.64814 0.61875 0.0
C2471 C 0.70076 0.65388 0.63257 0.0
C2472 C 0.72211 0.65019 0.59622 0.0
C2473 C 0.72197 0.63776 0.59923 0.0
C2474 C 0.72736 0.65717 0.58001 0.0
C2475 C 0.72675 0.66968 0.57546 0.0
C2476 C 0.71412 0.66917 0.57619 0.0
C2477 C 0.7136 0.68101 0.57207 0.0
C2478 C 0.72563 0.69343 0.5671 0.0
C2479 C 0.73821 0.69401 0.56621 0.0
C2480 C 0.73879 0.6822 0.57033 0.0
C2481 C 0.7492 0.63357 0.52995 0.0
C2482 C 0.76045 0.63333 0.53701 0.0
C2483 C 0.74031 0.63541 0.54112 0.0
C2484 C 0.74246 0.63691 0.55953 0.0
C2485 C 0.75348 0.63629 0.5666 0.0
C2486 C 0.76233 0.63445 0.55548 0.0
C2487 C 0.73396 0.64022 0.57136 0.0
C2488 C 0.73333 0.65216 0.56786 0.0
C2489 C 0.72772 0.63261 0.58692 0.0
C2490 C 0.72708 0.61927 0.5906 0.0
C2491 C 0.73175 0.6175 0.6069 0.0
C2492 C 0.73122 0.60497 0.61027 0.0
C2493 C 0.72598 0.5941 0.59748 0.0
C2494 C 0.72123 0.59572 0.58129 0.0
C2495 C 0.72173 0.60822 0.57785 0.0
H2496 H 0.72558 0.58441 0.60012 0.0
H2497 H 0.72521 0.70259 0.56392 0.0
H2498 H 0.36178 0.07073 0.64766 0.0
H2499 H 0.36659 0.08864 0.62609 0.0
H2500 H 0.35202 0.05715 0.58398 0.0
H2501 H 0.34747 0.03918 0.60547 0.0
H2502 H 0.37437 0.08136 0.57361 0.0
H2503 H 0.33113 0.06774 0.60164 0.0
H2504 H 0.31545 0.06322 0.6269 0.0
H2505 H 0.34027 0.10663 0.64377 0.0
H2506 H 0.35623 0.11136 0.61875 0.0
H2507 H 0.36017 0.11881 0.51069 0.0
H2508 H 0.35876 0.10156 0.5313 0.0
H2509 H 0.37474 0.13323 0.57324 0.0
H2510 H 0.37586 0.15044 0.55283 0.0
H2511 H 0.35192 0.10893 0.58346 0.0
H2512 H 0.3949 0.12244 0.55439 0.0
H2513 H 0.41013 0.12653 0.52874 0.0
H2514 H 0.38508 0.08285 0.51312 0.0
H2515 H 0.36958 0.07853 0.53856 0.0
C2516 C 0.3597 0.06762 0.6338 0.0
C2517 C 0.35412 0.0535 0.6283 0.0
C2518 C 0.36242 0.07787 0.62149 0.0
C2519 C 0.35941 0.07418 0.60347 0.0
C2520 C 0.35436 0.06021 0.59783 0.0
C2521 C 0.35174 0.04995 0.61014 0.0
C2522 C 0.36102 0.08479 0.59067 0.0
C2523 C 0.36934 0.08728 0.57565 0.0
C2524 C 0.35461 0.09265 0.59347 0.0
C2525 C 0.34495 0.08987 0.60842 0.0
C2526 C 0.3333 0.0763 0.61081 0.0
C2527 C 0.32435 0.0737 0.62507 0.0
C2528 C 0.32688 0.08462 0.63696 0.0
C2529 C 0.33834 0.09818 0.63457 0.0
C2530 C 0.34733 0.10083 0.62034 0.0
C2531 C 0.36339 0.12209 0.52431 0.0
C2532 C 0.36812 0.13598 0.53014 0.0
C2533 C 0.36269 0.11226 0.53602 0.0
C2534 C 0.36675 0.11615 0.55376 0.0
C2535 C 0.3716 0.13003 0.55958 0.0
C2536 C 0.37234 0.13987 0.54787 0.0
C2537 C 0.36537 0.10559 0.56647 0.0
C2538 C 0.35701 0.10306 0.58145 0.0
C2539 C 0.37166 0.09764 0.56354 0.0
C2540 C 0.381 0.10019 0.54829 0.0
C2541 C 0.39257 0.11373 0.54541 0.0
C2542 C 0.40127 0.11608 0.53092 0.0
C2543 C 0.39855 0.10496 0.51929 0.0
C2544 C 0.38716 0.09145 0.52214 0.0
C2545 C 0.37842 0.08905 0.5366 0.0
H2546 H 0.40529 0.10681 0.50808 0.0
H2547 H 0.31995 0.08259 0.648 0.0
H2548 H 0.96731 0.29749 0.62414 0.0
H2549 H 0.95094 0.28657 0.59959 0.0
H2550 H 0.91771 0.26351 0.6367 0.0
H2551 H 0.93405 0.27416 0.6613 0.0
H2552 H 0.9162 0.24671 0.61033 0.0
H2553 H 0.92196 0.29245 0.61518 0.0
H2554 H 0.93496 0.31842 0.61652 0.0
H2555 H 0.95135 0.31972 0.56455 0.0
H2556 H 0.93859 0.29373 0.56299 0.0
H2557 H 0.85926 0.22416 0.55354 0.0
H2558 H 0.87646 0.23686 0.57684 0.0
H2559 H 0.90874 0.25512 0.53751 0.0
H2560 H 0.8915 0.24254 0.51401 0.0
H2561 H 0.91124 0.27451 0.5641 0.0
H2562 H 0.90491 0.2285 0.5594 0.0
H2563 H 0.89143 0.20252 0.55824 0.0
H2564 H 0.87564 0.20186 0.61044 0.0
H2565 H 0.88888 0.22786 0.6118 0.0
C2566 C 0.95651 0.29013 0.62709 0.0
C2567 C 0.95198 0.28671 0.64469 0.0
C2568 C 0.94715 0.28394 0.61303 0.0
C2569 C 0.93307 0.27434 0.6163 0.0
C2570 C 0.92853 0.2709 0.63386 0.0
C2571 C 0.93789 0.27703 0.64791 0.0
C2572 C 0.92309 0.26758 0.60144 0.0
C2573 C 0.915 0.25281 0.60037 0.0
C2574 C 0.92176 0.27552 0.58816 0.0
C2575 C 0.92943 0.29115 0.58905 0.0
C2576 C 0.92842 0.29827 0.60409 0.0
C2577 C 0.93573 0.313 0.60488 0.0
C2578 C 0.94401 0.32072 0.59065 0.0
C2579 C 0.94496 0.31372 0.57558 0.0
C2580 C 0.93768 0.299 0.57473 0.0
C2581 C 0.86999 0.23104 0.54981 0.0
C2582 C 0.87404 0.23235 0.53194 0.0
C2583 C 0.87981 0.2382 0.56315 0.0
C2584 C 0.89387 0.2468 0.55889 0.0
C2585 C 0.89793 0.24848 0.54105 0.0
C2586 C 0.8881 0.24124 0.52767 0.0
C2587 C 0.90431 0.2537 0.57317 0.0
C2588 C 0.91249 0.26846 0.57408 0.0
C2589 C 0.90569 0.24577 0.58637 0.0
C2590 C 0.89778 0.23013 0.58563 0.0
C2591 C 0.89848 0.22282 0.57057 0.0
C2592 C 0.89089 0.20809 0.56989 0.0
C2593 C 0.88265 0.20055 0.58424 0.0
C2594 C 0.88201 0.20772 0.59932 0.0
C2595 C 0.88956 0.22245 0.60007 0.0
H2596 H 0.87679 0.18914 0.58368 0.0
H2597 H 0.94966 0.33212 0.59128 0.0
H2598 H 0.31238 0.26959 0.6385 0.0
H2599 H 0.32016 0.25954 0.61553 0.0
H2600 H 0.35845 0.29953 0.6108 0.0
H2601 H 0.3507 0.30977 0.63385 0.0
H2602 H 0.34721 0.28701 0.5782 0.0
H2603 H 0.35885 0.27438 0.63197 0.0
H2604 H 0.35507 0.26496 0.66205 0.0
H2605 H 0.32347 0.22417 0.64225 0.0
H2606 H 0.3269 0.23339 0.61208 0.0
H2607 H 0.37736 0.25437 0.52664 0.0
H2608 H 0.37328 0.26798 0.54929 0.0
H2609 H 0.33334 0.23131 0.56043 0.0
H2610 H 0.33742 0.21765 0.53812 0.0
H2611 H 0.34827 0.24415 0.59051 0.0
H2612 H 0.33588 0.25764 0.53689 0.0
H2613 H 0.33989 0.26741 0.50698 0.0
H2614 H 0.37365 0.307 0.52676 0.0
H2615 H 0.36996 0.2974 0.55675 0.0
C2616 C 0.32245 0.27629 0.63258 0.0
C2617 C 0.33095 0.29047 0.63806 0.0
C2618 C 0.3269 0.2705 0.61949 0.0
C2619 C 0.33994 0.27875 0.61162 0.0
C2620 C 0.34836 0.29299 0.61677 0.0
C2621 C 0.34394 0.29879 0.62996 0.0
C2622 C 0.34468 0.27235 0.59807 0.0
C2623 C 0.34769 0.27779 0.58094 0.0
C2624 C 0.34516 0.26024 0.60164 0.0
C2625 C 0.34306 0.25462 0.61977 0.0
C2626 C 0.35101 0.26343 0.63405 0.0
C2627 C 0.34894 0.25812 0.65111 0.0
C2628 C 0.33901 0.24398 0.65407 0.0
C2629 C 0.33114 0.23512 0.63995 0.0
C2630 C 0.33316 0.24038 0.62286 0.0
C2631 C 0.36772 0.24924 0.53393 0.0
C2632 C 0.35768 0.23496 0.53055 0.0
C2633 C 0.36537 0.25704 0.54677 0.0
C2634 C 0.35298 0.25066 0.55647 0.0
C2635 C 0.34296 0.23643 0.55308 0.0
C2636 C 0.34526 0.22868 0.54022 0.0
C2637 C 0.35047 0.25859 0.57052 0.0
C2638 C 0.34792 0.25345 0.58779 0.0
C2639 C 0.3505 0.271 0.56707 0.0
C2640 C 0.35275 0.27674 0.54902 0.0
C2641 C 0.34425 0.26838 0.53483 0.0
C2642 C 0.34645 0.2739 0.51786 0.0
C2643 C 0.35705 0.2878 0.51496 0.0
C2644 C 0.36546 0.29622 0.52902 0.0
C2645 C 0.36332 0.29075 0.546 0.0
H2646 H 0.35874 0.29208 0.50184 0.0
H2647 H 0.33743 0.23989 0.66729 0.0
H2648 H 0.70621 0.0669 0.64327 0.0
H2649 H 0.7194 0.08439 0.62083 0.0
H2650 H 0.70224 0.05167 0.58015 0.0
H2651 H 0.68864 0.03421 0.60247 0.0
H2652 H 0.73902 0.08754 0.60073 0.0
H2653 H 0.70137 0.06473 0.54069 0.0
H2654 H 0.67625 0.05153 0.5349 0.0
H2655 H 0.66949 0.06714 0.58417 0.0
H2656 H 0.69457 0.08057 0.59014 0.0
H2657 H 0.77716 0.11851 0.52412 0.0
H2658 H 0.76089 0.10102 0.54468 0.0
H2659 H 0.73581 0.11951 0.54351 0.0
H2660 H 0.75161 0.13655 0.52203 0.0
H2661 H 0.7197 0.09207 0.54457 0.0
H2662 H 0.75891 0.12718 0.5775 0.0
H2663 H 0.78365 0.14254 0.5849 0.0
H2664 H 0.78642 0.10619 0.59313 0.0
H2665 H 0.76172 0.0906 0.58554 0.0
C2666 C 0.70514 0.06345 0.62952 0.0
C2667 C 0.69637 0.04918 0.62463 0.0
C2668 C 0.71271 0.07346 0.6167 0.0
C2669 C 0.71176 0.06939 0.59876 0.0
C2670 C 0.70295 0.05514 0.59384 0.0
C2671 C 0.69522 0.04514 0.60664 0.0
C2672 C 0.72048 0.07998 0.58536 0.0
C2673 C 0.73476 0.08852 0.58848 0.0
C2674 C 0.71494 0.08148 0.56947 0.0
C2675 C 0.69984 0.07354 0.56593 0.0
C2676 C 0.69453 0.06538 0.55025 0.0
C2677 C 0.6803 0.05786 0.54695 0.0
C2678 C 0.67128 0.05846 0.55919 0.0
C2679 C 0.67648 0.06664 0.57473 0.0
C2680 C 0.6907 0.07419 0.57809 0.0
C2681 C 0.76804 0.1187 0.52788 0.0
C2682 C 0.76578 0.12904 0.52147 0.0
C2683 C 0.75882 0.10878 0.53984 0.0
C2684 C 0.74728 0.10913 0.54593 0.0
C2685 C 0.7447 0.11909 0.53909 0.0
C2686 C 0.75383 0.12893 0.52696 0.0
C2687 C 0.73821 0.09944 0.5599 0.0
C2688 C 0.72391 0.09107 0.55686 0.0
C2689 C 0.74366 0.09839 0.57613 0.0
C2690 C 0.7585 0.10772 0.5808 0.0
C2691 C 0.76482 0.12246 0.58077 0.0
C2692 C 0.77883 0.13121 0.58501 0.0
C2693 C 0.78661 0.12535 0.58944 0.0
C2694 C 0.78038 0.11072 0.58968 0.0
C2695 C 0.76638 0.10192 0.58542 0.0
H2696 H 0.79746 0.13214 0.59272 0.0
H2697 H 0.66027 0.05262 0.55661 0.0
H2698 H 0.9349 0.64773 0.63955 0.0
H2699 H 0.91702 0.64085 0.6173 0.0
H2700 H 0.94031 0.63158 0.57979 0.0
H2701 H 0.95848 0.63871 0.60202 0.0
H2702 H 0.93091 0.64635 0.56471 0.0
H2703 H 0.91099 0.6048 0.59806 0.0
H2704 H 0.90363 0.59033 0.62474 0.0
H2705 H 0.87586 0.60427 0.63836 0.0
H2706 H 0.88319 0.61899 0.61191 0.0
H2707 H 0.8729 0.62289 0.50674 0.0
H2708 H 0.89045 0.62219 0.52436 0.0
H2709 H 0.87595 0.63331 0.5714 0.0
H2710 H 0.85806 0.63336 0.55413 0.0
H2711 H 0.88128 0.61343 0.57826 0.0
H2712 H 0.90471 0.65788 0.54658 0.0
H2713 H 0.91207 0.67174 0.51934 0.0
H2714 H 0.93327 0.65109 0.50191 0.0
H2715 H 0.92585 0.63696 0.52891 0.0
C2716 C 0.93622 0.64416 0.62662 0.0
C2717 C 0.94812 0.64375 0.62258 0.0
C2718 C 0.92594 0.64014 0.61392 0.0
C2719 C 0.92722 0.63549 0.59695 0.0
C2720 C 0.93908 0.63507 0.59283 0.0
C2721 C 0.94943 0.63912 0.60556 0.0
C2722 C 0.91635 0.63164 0.58347 0.0
C2723 C 0.92007 0.63892 0.56751 0.0
C2724 C 0.90221 0.62196 0.5871 0.0
C2725 C 0.89771 0.61307 0.60303 0.0
C2726 C 0.90338 0.60486 0.60681 0.0
C2727 C 0.89921 0.5966 0.62188 0.0
C2728 C 0.8893 0.5964 0.63325 0.0
C2729 C 0.88353 0.60444 0.62955 0.0
C2730 C 0.88768 0.61273 0.61449 0.0
C2731 C 0.87333 0.62499 0.52088 0.0
C2732 C 0.86416 0.62834 0.529 0.0
C2733 C 0.88345 0.6247 0.5309 0.0
C2734 C 0.88464 0.62789 0.54916 0.0
C2735 C 0.87526 0.63086 0.55732 0.0
C2736 C 0.86513 0.63105 0.54738 0.0
C2737 C 0.89581 0.6286 0.55993 0.0
C2738 C 0.89214 0.62066 0.57535 0.0
C2739 C 0.90999 0.63759 0.55572 0.0
C2740 C 0.9146 0.64626 0.53965 0.0
C2741 C 0.91087 0.65624 0.53688 0.0
C2742 C 0.91505 0.66414 0.52148 0.0
C2743 C 0.92307 0.66225 0.50885 0.0
C2744 C 0.927 0.65251 0.51165 0.0
C2745 C 0.92282 0.64456 0.527 0.0
H2746 H 0.92628 0.66836 0.49693 0.0
H2747 H 0.88608 0.58999 0.64492 0.0
H2748 H 0.97081 0.70547 0.69706 0.0
H2749 H 0.96111 0.7121 0.72189 0.0
H2750 H 0.94468 0.67109 0.7441 0.0
H2751 H 0.95426 0.66436 0.71942 0.0
H2752 H 0.92534 0.67846 0.74188 0.0
H2753 H 0.97222 0.69948 0.76271 0.0
H2754 H 0.99759 0.71482 0.76068 0.0
H2755 H 0.99399 0.751 0.75574 0.0
H2756 H 0.96857 0.73584 0.7575 0.0
H2757 H 0.9012 0.68659 0.82357 0.0
H2758 H 0.91554 0.68339 0.80187 0.0
H2759 H 0.9326 0.72597 0.7846 0.0
H2760 H 0.91848 0.72932 0.80673 0.0
H2761 H 0.95201 0.71896 0.78364 0.0
H2762 H 0.9057 0.69868 0.76255 0.0
H2763 H 0.88027 0.68385 0.76402 0.0
H2764 H 0.88265 0.64689 0.76806 0.0
H2765 H 0.90813 0.66154 0.7669 0.0
C2766 C 0.96521 0.6979 0.70729 0.0
C2767 C 0.96326 0.68437 0.70622 0.0
C2768 C 0.95973 0.70173 0.7215 0.0
C2769 C 0.95223 0.6921 0.73486 0.0
C2770 C 0.95044 0.67867 0.73393 0.0
C2771 C 0.95595 0.67486 0.71981 0.0
C2772 C 0.9456 0.69567 0.74937 0.0
C2773 C 0.9312 0.6872 0.75115 0.0
C2774 C 0.95321 0.70737 0.76106 0.0
C2775 C 0.96848 0.7165 0.76005 0.0
C2776 C 0.97683 0.71069 0.76104 0.0
C2777 C 0.99122 0.71936 0.75997 0.0
C2778 C 0.9974 0.73387 0.75803 0.0
C2779 C 0.98919 0.73976 0.75721 0.0
C2780 C 0.9748 0.73113 0.75826 0.0
C2781 C 0.90817 0.69532 0.81531 0.0
C2782 C 0.90865 0.70814 0.81663 0.0
C2783 C 0.91633 0.69349 0.80291 0.0
C2784 C 0.92488 0.70433 0.79132 0.0
C2785 C 0.92601 0.71745 0.79334 0.0
C2786 C 0.91797 0.71935 0.80596 0.0
C2787 C 0.93178 0.70156 0.77635 0.0
C2788 C 0.94618 0.71021 0.77437 0.0
C2789 C 0.92417 0.69009 0.76431 0.0
C2790 C 0.90883 0.68123 0.76479 0.0
C2791 C 0.90081 0.6874 0.76386 0.0
C2792 C 0.88638 0.67903 0.76463 0.0
C2793 C 0.87985 0.66444 0.76617 0.0
C2794 C 0.88773 0.65819 0.76689 0.0
C2795 C 0.90216 0.66653 0.76616 0.0
H2796 H 0.86868 0.65797 0.76677 0.0
H2797 H 0.00854 0.74057 0.7572 0.0
H2798 H 0.30153 0.28198 0.71931 0.0
H2799 H 0.29407 0.26377 0.74156 0.0
H2800 H 0.33386 0.26767 0.73857 0.0
H2801 H 0.34133 0.2857 0.71632 0.0
H2802 H 0.313 0.24043 0.73785 0.0
H2803 H 0.32584 0.28258 0.77274 0.0
H2804 H 0.32466 0.30332 0.78179 0.0
H2805 H 0.28159 0.27643 0.7943 0.0
H2806 H 0.28248 0.25553 0.78509 0.0
H2807 H 0.31934 0.21125 0.81502 0.0
H2808 H 0.32188 0.22753 0.7923 0.0
H2809 H 0.28012 0.21727 0.80195 0.0
H2810 H 0.2776 0.20111 0.82517 0.0
H2811 H 0.29848 0.24588 0.79831 0.0
H2812 H 0.28633 0.20351 0.76628 0.0
H2813 H 0.28772 0.18283 0.75763 0.0
H2814 H 0.32944 0.21003 0.73973 0.0
H2815 H 0.32837 0.23089 0.74852 0.0
C2816 C 0.30868 0.27895 0.7234 0.0
C2817 C 0.32204 0.28531 0.71608 0.0
C2818 C 0.30441 0.26858 0.73614 0.0
C2819 C 0.31344 0.26444 0.74179 0.0
C2820 C 0.32672 0.27069 0.73438 0.0
C2821 C 0.33099 0.28104 0.7217 0.0
C2822 C 0.30918 0.25357 0.75538 0.0
C2823 C 0.30991 0.24166 0.75111 0.0
C2824 C 0.30472 0.25496 0.77249 0.0
C2825 C 0.30418 0.26752 0.77802 0.0
C2826 C 0.31609 0.2811 0.77727 0.0
C2827 C 0.31548 0.29288 0.78246 0.0
C2828 C 0.30305 0.2912 0.78856 0.0
C2829 C 0.29121 0.27772 0.78953 0.0
C2830 C 0.29176 0.26591 0.78434 0.0
C2831 C 0.31075 0.21257 0.81251 0.0
C2832 C 0.29828 0.20491 0.82193 0.0
C2833 C 0.31216 0.22178 0.79938 0.0
C2834 C 0.30112 0.22346 0.79528 0.0
C2835 C 0.28874 0.21606 0.80486 0.0
C2836 C 0.28729 0.20678 0.81803 0.0
C2837 C 0.30267 0.23295 0.78089 0.0
C2838 C 0.30139 0.24455 0.78499 0.0
C2839 C 0.30663 0.23129 0.76359 0.0
C2840 C 0.3073 0.21877 0.75818 0.0
C2841 C 0.29583 0.20508 0.76062 0.0
C2842 C 0.29656 0.19333 0.75567 0.0
C2843 C 0.30867 0.19512 0.74816 0.0
C2844 C 0.32007 0.20866 0.74555 0.0
C2845 C 0.3194 0.22046 0.7505 0.0
H2846 H 0.30921 0.186 0.74434 0.0
H2847 H 0.3026 0.30033 0.79258 0.0
H2848 H 0.73809 0.05122 0.69188 0.0
H2849 H 0.75368 0.06061 0.71735 0.0
H2850 H 0.71878 0.04683 0.75237 0.0
H2851 H 0.70311 0.03755 0.72696 0.0
H2852 H 0.73856 0.07355 0.75957 0.0
H2853 H 0.73646 0.02991 0.75073 0.0
H2854 H 0.73779 0.01142 0.73386 0.0
H2855 H 0.78051 0.04093 0.72209 0.0
H2856 H 0.77939 0.05966 0.73868 0.0
H2857 H 0.7788 0.09214 0.8376 0.0
H2858 H 0.76159 0.07744 0.81501 0.0
H2859 H 0.79403 0.09025 0.77622 0.0
H2860 H 0.81127 0.10498 0.79867 0.0
H2861 H 0.77442 0.0624 0.77241 0.0
H2862 H 0.77591 0.10629 0.77895 0.0
H2863 H 0.77473 0.12497 0.79555 0.0
H2864 H 0.73307 0.09492 0.81129 0.0
H2865 H 0.73408 0.07601 0.79498 0.0
C2866 C 0.73371 0.05009 0.705 0.0
C2867 C 0.71936 0.04367 0.70738 0.0
C2868 C 0.74264 0.0554 0.71956 0.0
C2869 C 0.73738 0.05431 0.73677 0.0
C2870 C 0.72305 0.04776 0.7392 0.0
C2871 C 0.71412 0.04245 0.72466 0.0
C2872 C 0.74688 0.06069 0.75212 0.0
C2873 C 0.74622 0.07091 0.76258 0.0
C2874 C 0.75708 0.05747 0.75579 0.0
C2875 C 0.75781 0.04622 0.74583 0.0
C2876 C 0.74611 0.03249 0.74442 0.0
C2877 C 0.74683 0.02196 0.73494 0.0
C2878 C 0.75922 0.02501 0.72688 0.0
C2879 C 0.77092 0.03859 0.72833 0.0
C2880 C 0.77025 0.04916 0.73779 0.0
C2881 C 0.78226 0.09178 0.82427 0.0
C2882 C 0.79638 0.0998 0.81989 0.0
C2883 C 0.77243 0.08335 0.8114 0.0
C2884 C 0.77653 0.0829 0.79389 0.0
C2885 C 0.79065 0.09043 0.78966 0.0
C2886 C 0.80049 0.09882 0.80252 0.0
C2887 C 0.7661 0.07527 0.77974 0.0
C2888 C 0.76663 0.06488 0.76949 0.0
C2889 C 0.75578 0.07834 0.77621 0.0
C2890 C 0.75512 0.08971 0.78591 0.0
C2891 C 0.76653 0.10365 0.78606 0.0
C2892 C 0.76589 0.11427 0.7954 0.0
C2893 C 0.75384 0.11112 0.80452 0.0
C2894 C 0.7424 0.09734 0.80426 0.0
C2895 C 0.743 0.08666 0.79496 0.0
H2896 H 0.75336 0.11937 0.81174 0.0
H2897 H 0.75975 0.01684 0.71954 0.0
H2898 H 0.03094 0.35251 0.0706 0.0
H2899 H 0.04652 0.34572 0.08201 0.0
H2900 H 0.05936 0.34308 0.02876 0.0
H2901 H 0.04366 0.34984 0.01715 0.0
H2902 H 0.05271 0.31981 0.04824 0.0
H2903 H 0.08127 0.36977 0.05512 0.0
H2904 H 0.08708 0.39367 0.06417 0.0
H2905 H 0.07973 0.3816 0.11861 0.0
H2906 H 0.07368 0.35755 0.10986 0.0
H2907 H 0.10625 0.31033 0.08057 0.0
H2908 H 0.09327 0.31872 0.06503 0.0
H2909 H 0.07846 0.32527 0.11509 0.0
H2910 H 0.09138 0.31689 0.13067 0.0
H2911 H 0.08793 0.34773 0.09453 0.0
H2912 H 0.05754 0.29741 0.08748 0.0
H2913 H 0.05135 0.27336 0.07861 0.0
H2914 H 0.06193 0.28604 0.02466 0.0
H2915 H 0.06836 0.31024 0.03326 0.0
C2916 C 0.03714 0.3506 0.06129 0.0
C2917 C 0.03608 0.35172 0.04297 0.0
C2918 C 0.04609 0.34677 0.06785 0.0
C2919 C 0.05416 0.34401 0.05624 0.0
C2920 C 0.05322 0.34521 0.03793 0.0
C2921 C 0.04431 0.34913 0.03134 0.0
C2922 C 0.06315 0.33934 0.06335 0.0
C2923 C 0.06061 0.32603 0.05811 0.0
C2924 C 0.07324 0.34735 0.07647 0.0
C2925 C 0.07691 0.36182 0.08181 0.0
C2926 C 0.08078 0.37218 0.06901 0.0
C2927 C 0.08414 0.38576 0.07409 0.0
C2928 C 0.08375 0.38914 0.09195 0.0
C2929 C 0.08002 0.37896 0.10477 0.0
C2930 C 0.07664 0.36535 0.09976 0.0
C2931 C 0.10007 0.31337 0.08823 0.0
C2932 C 0.09984 0.31297 0.10684 0.0
C2933 C 0.09269 0.3182 0.07935 0.0
C2934 C 0.08487 0.32258 0.08891 0.0
C2935 C 0.0845 0.32202 0.10746 0.0
C2936 C 0.09189 0.31724 0.11634 0.0
C2937 C 0.0773 0.32808 0.0797 0.0
C2938 C 0.08013 0.34157 0.08453 0.0
C2939 C 0.06746 0.32022 0.06624 0.0
C2940 C 0.06359 0.30568 0.06105 0.0
C2941 C 0.05866 0.2951 0.07375 0.0
C2942 C 0.05508 0.28144 0.06877 0.0
C2943 C 0.05628 0.27818 0.05109 0.0
C2944 C 0.06103 0.28859 0.03835 0.0
C2945 C 0.06463 0.30228 0.04327 0.0
H2946 H 0.0535 0.26759 0.04726 0.0
H2947 H 0.08636 0.39966 0.09586 0.0
H2948 H 0.68892 0.7028 0.00552 0.0
H2949 H 0.69411 0.72526 0.01897 0.0
H2950 H 0.65996 0.70313 0.0551 0.0
H2951 H 0.65462 0.68064 0.04169 0.0
H2952 H 0.66117 0.72625 0.04077 0.0
H2953 H 0.69234 0.71517 0.0688 0.0
H2954 H 0.71034 0.70915 0.06838 0.0
H2955 H 0.73814 0.74758 0.04184 0.0
H2956 H 0.72023 0.75374 0.04191 0.0
H2957 H 0.6752 0.77768 0.1065 0.0
H2958 H 0.67102 0.75651 0.09036 0.0
H2959 H 0.70907 0.7814 0.06138 0.0
H2960 H 0.71349 0.80256 0.07803 0.0
H2961 H 0.70658 0.75774 0.06986 0.0
H2962 H 0.67673 0.76988 0.04274 0.0
H2963 H 0.65899 0.77619 0.04151 0.0
H2964 H 0.62909 0.73655 0.06397 0.0
H2965 H 0.64671 0.73008 0.06557 0.0
C2966 C 0.68246 0.70271 0.01626 0.0
C2967 C 0.6714 0.68993 0.02261 0.0
C2968 C 0.68547 0.71555 0.02396 0.0
C2969 C 0.6775 0.71582 0.03814 0.0
C2970 C 0.66624 0.70312 0.04419 0.0
C2971 C 0.66325 0.69028 0.03655 0.0
C2972 C 0.681 0.72931 0.04696 0.0
C2973 C 0.67103 0.73309 0.04729 0.0
C2974 C 0.69406 0.73841 0.05492 0.0
C2975 C 0.70491 0.73485 0.05521 0.0
C2976 C 0.70227 0.72229 0.06279 0.0
C2977 C 0.71246 0.71886 0.06262 0.0
C2978 C 0.72536 0.72795 0.05504 0.0
C2979 C 0.72813 0.74053 0.04768 0.0
C2980 C 0.71798 0.74401 0.0478 0.0
C2981 C 0.68265 0.77861 0.09667 0.0
C2982 C 0.6946 0.79173 0.09337 0.0
C2983 C 0.68024 0.76653 0.0874 0.0
C2984 C 0.68957 0.76741 0.07435 0.0
C2985 C 0.70169 0.78048 0.07132 0.0
C2986 C 0.70421 0.79254 0.08081 0.0
C2987 C 0.68665 0.75465 0.06395 0.0
C2988 C 0.69673 0.75099 0.06327 0.0
C2989 C 0.67375 0.74573 0.05545 0.0
C2990 C 0.66308 0.74955 0.05441 0.0
C2991 C 0.6664 0.76255 0.04753 0.0
C2992 C 0.65636 0.76615 0.04675 0.0
C2993 C 0.64293 0.75679 0.05269 0.0
C2994 C 0.6395 0.74379 0.05938 0.0
C2995 C 0.64951 0.74015 0.06021 0.0
H2996 H 0.63517 0.7596 0.05208 0.0
H2997 H 0.73323 0.72526 0.05489 0.0
H2998 H 0.32458 0.96004 0.05025 0.0
H2999 H 0.30248 0.94388 0.0645 0.0
H3000 H 0.28626 0.96899 0.04743 0.0
H3001 H 0.30832 0.98526 0.03339 0.0
H3002 H 0.28047 0.96253 0.0816 0.0
H3003 H 0.27664 0.93753 0.02703 0.0
H3004 H 0.28393 0.9266 0.00411 0.0
H3005 H 0.28309 0.89841 0.04237 0.0
H3006 H 0.27597 0.90931 0.06559 0.0
H3007 H 0.20897 0.9143 0.09704 0.0
H3008 H 0.23145 0.93005 0.08343 0.0
H3009 H 0.24672 0.90477 0.10294 0.0
H3010 H 0.22434 0.88908 0.11682 0.0
H3011 H 0.25323 0.91112 0.06816 0.0
H3012 H 0.25659 0.93584 0.12259 0.0
H3013 H 0.24912 0.94669 0.14541 0.0
H3014 H 0.25076 0.97537 0.10729 0.0
H3015 H 0.25805 0.96456 0.08417 0.0
C3016 C 0.31629 0.96208 0.04945 0.0
C3017 C 0.31822 0.97393 0.04068 0.0
C3018 C 0.30365 0.95281 0.05755 0.0
C3019 C 0.2927 0.95519 0.05693 0.0
C3020 C 0.29458 0.96697 0.0481 0.0
C3021 C 0.3072 0.97623 0.04003 0.0
C3022 C 0.27935 0.94559 0.06577 0.0
C3023 C 0.27443 0.95131 0.0785 0.0
C3024 C 0.27164 0.93091 0.06203 0.0
C3025 C 0.27591 0.92434 0.04809 0.0
C3026 C 0.27812 0.92908 0.03059 0.0
C3027 C 0.2822 0.92288 0.01754 0.0
C3028 C 0.28401 0.91184 0.02179 0.0
C3029 C 0.28171 0.90697 0.0391 0.0
C3030 C 0.27764 0.91315 0.05221 0.0
C3031 C 0.21716 0.91219 0.09863 0.0
C3032 C 0.21486 0.90044 0.10803 0.0
C3033 C 0.22998 0.92117 0.0908 0.0
C3034 C 0.24076 0.91861 0.09228 0.0
C3035 C 0.23851 0.90689 0.1016 0.0
C3036 C 0.2257 0.89792 0.10946 0.0
C3037 C 0.25434 0.92807 0.08389 0.0
C3038 C 0.2593 0.92233 0.07127 0.0
C3039 C 0.26208 0.94273 0.08771 0.0
C3040 C 0.25774 0.94929 0.10161 0.0
C3041 C 0.25525 0.94438 0.11904 0.0
C3042 C 0.25107 0.95054 0.13203 0.0
C3043 C 0.24943 0.96169 0.12779 0.0
C3044 C 0.25201 0.96672 0.11055 0.0
C3045 C 0.25618 0.96059 0.0975 0.0
H3046 H 0.2462 0.96644 0.13787 0.0
H3047 H 0.28717 0.90705 0.01167 0.0
H3048 H 0.34849 0.04862 0.00706 0.0
H3049 H 0.34308 0.065 0.99396 0.0
H3050 H 0.32343 0.03606 0.94971 0.0
H3051 H 0.32883 0.0197 0.9626 0.0
H3052 H 0.34031 0.06317 0.93914 0.0
H3053 H 0.30411 0.03824 0.98198 0.0
H3054 H 0.29466 0.0295 0.01166 0.0
H3055 H 0.31475 0.072 0.03227 0.0
H3056 H 0.32448 0.081 0.00274 0.0
H3057 H 0.30276 0.09028 0.90171 0.0
H3058 H 0.30892 0.07496 0.91603 0.0
H3059 H 0.3264 0.10457 0.9601 0.0
H3060 H 0.31982 0.11972 0.94615 0.0
H3061 H 0.31154 0.07801 0.97138 0.0
H3062 H 0.34718 0.1031 0.92858 0.0
H3063 H 0.35675 0.11203 0.899 0.0
H3064 H 0.33813 0.06962 0.87847 0.0
H3065 H 0.32827 0.06043 0.90789 0.0
C3066 C 0.34305 0.04576 0.99452 0.0
C3067 C 0.33904 0.03284 0.9859 0.0
C3068 C 0.33993 0.05511 0.9871 0.0
C3069 C 0.33275 0.05167 0.97095 0.0
C3070 C 0.32896 0.0389 0.96219 0.0
C3071 C 0.33202 0.02954 0.96962 0.0
C3072 C 0.32909 0.06132 0.96316 0.0
C3073 C 0.3339 0.06631 0.9461 0.0
C3074 C 0.32102 0.06567 0.97245 0.0
C3075 C 0.31515 0.06028 0.9902 0.0
C3076 C 0.30661 0.04572 0.99287 0.0
C3077 C 0.30118 0.04072 0.00966 0.0
C3078 C 0.30413 0.05019 0.02386 0.0
C3079 C 0.31249 0.06468 0.02127 0.0
C3080 C 0.31796 0.06974 0.00451 0.0
C3081 C 0.30775 0.09345 0.91456 0.0
C3082 C 0.31085 0.10625 0.92276 0.0
C3083 C 0.3114 0.08475 0.92264 0.0
C3084 C 0.31831 0.08874 0.939 0.0
C3085 C 0.32114 0.10134 0.94742 0.0
C3086 C 0.31747 0.11004 0.93936 0.0
C3087 C 0.32266 0.07978 0.94728 0.0
C3088 C 0.318 0.07494 0.96443 0.0
C3089 C 0.33091 0.0756 0.9381 0.0
C3090 C 0.33688 0.08108 0.9204 0.0
C3091 C 0.34504 0.09568 0.91773 0.0
C3092 C 0.35053 0.10078 0.90099 0.0
C3093 C 0.34802 0.0914 0.88685 0.0
C3094 C 0.34005 0.07688 0.88943 0.0
C3095 C 0.33452 0.07171 0.90614 0.0
H3096 H 0.35228 0.09537 0.87391 0.0
H3097 H 0.29992 0.0463 0.03684 0.0
H3098 H 0.97026 0.32419 0.98918 0.0
H3099 H 0.9521 0.30242 0.9749 0.0
H3100 H 0.9727 0.28112 0.99047 0.0
H3101 H 0.99102 0.3029 0.00457 0.0
H3102 H 0.96557 0.27621 0.95602 0.0
H3103 H 0.94306 0.2748 0.01105 0.0
H3104 H 0.93458 0.28408 0.03465 0.0
H3105 H 0.90883 0.28796 0.99708 0.0
H3106 H 0.9173 0.27886 0.97319 0.0
H3107 H 0.91151 0.2064 0.93437 0.0
H3108 H 0.92891 0.22776 0.95023 0.0
H3109 H 0.90873 0.24929 0.93391 0.0
H3110 H 0.89139 0.22804 0.91782 0.0
H3111 H 0.9155 0.25401 0.96886 0.0
H3112 H 0.93792 0.25615 0.91391 0.0
H3113 H 0.94639 0.2474 0.88963 0.0
H3114 H 0.97225 0.24278 0.92619 0.0
H3115 H 0.9638 0.25133 0.95075 0.0
C3116 C 0.97087 0.31484 0.98972 0.0
C3117 C 0.9821 0.31528 0.99798 0.0
C3118 C 0.96046 0.3024 0.98159 0.0
C3119 C 0.96101 0.29013 0.98172 0.0
C3120 C 0.97209 0.29048 0.99021 0.0
C3121 C 0.98252 0.30292 0.9983 0.0
C3122 C 0.95035 0.27709 0.97238 0.0
C3123 C 0.95463 0.27122 0.95902 0.0
C3124 C 0.93606 0.27086 0.97594 0.0
C3125 C 0.93091 0.27627 0.9903 0.0
C3126 C 0.93567 0.27773 0.00779 0.0
C3127 C 0.93085 0.28294 0.02122 0.0
C3128 C 0.9212 0.28664 0.01736 0.0
C3129 C 0.91632 0.2851 5e-05 0.0
C3130 C 0.92111 0.2799 0.98657 0.0
C3131 C 0.91085 0.21572 0.934 0.0
C3132 C 0.90008 0.21553 0.9248 0.0
C3133 C 0.92077 0.2279 0.94311 0.0
C3134 C 0.92015 0.24013 0.94312 0.0
C3135 C 0.90936 0.23994 0.9341 0.0
C3136 C 0.89945 0.22778 0.92497 0.0
C3137 C 0.93074 0.2531 0.9526 0.0
C3138 C 0.92644 0.25898 0.96593 0.0
C3139 C 0.94501 0.2594 0.94894 0.0
C3140 C 0.95012 0.25425 0.93421 0.0
C3141 C 0.94532 0.25315 0.9168 0.0
C3142 C 0.95014 0.24826 0.90298 0.0
C3143 C 0.95982 0.24451 0.90637 0.0
C3144 C 0.96473 0.24567 0.92359 0.0
C3145 C 0.95995 0.25056 0.93746 0.0
H3146 H 0.96354 0.24072 0.89565 0.0
H3147 H 0.91748 0.29067 0.02777 0.0
H3148 H 0.70003 0.65703 0.00659 0.0
H3149 H 0.72323 0.66557 0.99479 0.0
H3150 H 0.70772 0.66073 0.9416 0.0
H3151 H 0.68453 0.65205 0.95321 0.0
H3152 H 0.72503 0.65117 0.94397 0.0
H3153 H 0.72462 0.69271 0.96266 0.0
H3154 H 0.72145 0.70776 0.98427 0.0
H3155 H 0.75326 0.71041 0.01721 0.0
H3156 H 0.75647 0.69519 0.9959 0.0
H3157 H 0.78392 0.69281 0.89318 0.0
H3158 H 0.76219 0.68442 0.90904 0.0
H3159 H 0.78319 0.69116 0.95883 0.0
H3160 H 0.80508 0.69963 0.94297 0.0
H3161 H 0.76397 0.69904 0.96074 0.0
H3162 H 0.76538 0.65869 0.94117 0.0
H3163 H 0.76852 0.64363 0.91957 0.0
H3164 H 0.73478 0.63859 0.88851 0.0
H3165 H 0.73157 0.6538 0.90979 0.0
C3166 C 0.70154 0.65767 0.99238 0.0
C3167 C 0.69045 0.65392 0.98083 0.0
C3168 C 0.71481 0.66262 0.98567 0.0
C3169 C 0.71721 0.66394 0.96734 0.0
C3170 C 0.70609 0.65981 0.9558 0.0
C3171 C 0.69284 0.65488 0.96247 0.0
C3172 C 0.73132 0.66982 0.96004 0.0
C3173 C 0.73351 0.66168 0.94753 0.0
C3174 C 0.74247 0.68338 0.96508 0.0
C3175 C 0.74067 0.69268 0.97778 0.0
C3176 C 0.73087 0.69642 0.97457 0.0
C3177 C 0.72907 0.70499 0.98676 0.0
C3178 C 0.73712 0.71 0.00213 0.0
C3179 C 0.74702 0.70649 0.00531 0.0
C3180 C 0.74883 0.6979 0.99318 0.0
C3181 C 0.78392 0.69254 0.90751 0.0
C3182 C 0.79615 0.6967 0.91683 0.0
C3183 C 0.77151 0.68776 0.91655 0.0
C3184 C 0.77104 0.68691 0.93508 0.0
C3185 C 0.78334 0.69168 0.94451 0.0
C3186 C 0.79582 0.69654 0.93545 0.0
C3187 C 0.75757 0.68048 0.94439 0.0
C3188 C 0.75551 0.68849 0.9573 0.0
C3189 C 0.74651 0.66677 0.93975 0.0
C3190 C 0.74831 0.65748 0.92702 0.0
C3191 C 0.75869 0.65444 0.92967 0.0
C3192 C 0.76047 0.64587 0.91749 0.0
C3193 C 0.75187 0.64017 0.90266 0.0
C3194 C 0.74144 0.64301 0.9 0.0
C3195 C 0.73963 0.6516 0.91213 0.0
H3196 H 0.75327 0.63354 0.89324 0.0
H3197 H 0.73571 0.71663 0.01156 0.0
H3198 H 0.97325 0.66119 0.95347 0.0
H3199 H 0.95962 0.67057 0.94283 0.0
H3200 H 0.94426 0.66946 0.99571 0.0
H3201 H 0.95779 0.65982 0.0065 0.0
H3202 H 0.92389 0.66026 0.97127 0.0
H3203 H 0.96913 0.7004 0.97936 0.0
H3204 H 0.99454 0.71469 0.97674 0.0
H3205 H 0.99111 0.71406 0.92012 0.0
H3206 H 0.96568 0.69957 0.92237 0.0
H3207 H 0.89631 0.70149 0.94312 0.0
H3208 H 0.91039 0.69482 0.95958 0.0
H3209 H 0.92756 0.69013 0.91046 0.0
H3210 H 0.91362 0.69686 0.89399 0.0
H3211 H 0.94733 0.70419 0.9369 0.0
H3212 H 0.90198 0.66185 0.92941 0.0
H3213 H 0.8766 0.64766 0.93248 0.0
H3214 H 0.88049 0.6531 0.98905 0.0
H3215 H 0.90591 0.6675 0.98629 0.0
C3216 C 0.96694 0.66287 0.96287 0.0
C3217 C 0.96668 0.65984 0.98087 0.0
C3218 C 0.9592 0.66831 0.95677 0.0
C3219 C 0.95114 0.67097 0.96854 0.0
C3220 C 0.95049 0.66756 0.98643 0.0
C3221 C 0.95823 0.66207 0.99257 0.0
C3222 C 0.94346 0.67735 0.962 0.0
C3223 C 0.92905 0.67001 0.96406 0.0
C3224 C 0.95018 0.69002 0.95247 0.0
C3225 C 0.96549 0.6988 0.95103 0.0
C3226 C 0.97379 0.70322 0.96634 0.0
C3227 C 0.9882 0.71137 0.96492 0.0
C3228 C 0.99443 0.71526 0.94827 0.0
C3229 C 0.98626 0.71103 0.93301 0.0
C3230 C 0.97185 0.70286 0.93435 0.0
C3231 C 0.90323 0.69921 0.93589 0.0
C3232 C 0.90384 0.69961 0.91729 0.0
C3233 C 0.91119 0.69533 0.94528 0.0
C3234 C 0.91991 0.69188 0.9362 0.0
C3235 C 0.92087 0.69273 0.91769 0.0
C3236 C 0.91285 0.69649 0.9083 0.0
C3237 C 0.92777 0.68692 0.94581 0.0
C3238 C 0.94222 0.69455 0.94434 0.0
C3239 C 0.9211 0.67459 0.95598 0.0
C3240 C 0.90583 0.66589 0.95764 0.0
C3241 C 0.89742 0.66012 0.9425 0.0
C3242 C 0.88303 0.65202 0.94418 0.0
C3243 C 0.87693 0.64951 0.96095 0.0
C3244 C 0.88522 0.65507 0.97607 0.0
C3245 C 0.89962 0.6632 0.97446 0.0
H3246 H 0.86579 0.64323 0.96223 0.0
H3247 H 0.00559 0.72157 0.94721 0.0
H3248 H 0.34782 0.32398 0.98416 0.0
H3249 H 0.34182 0.30202 0.96865 0.0
H3250 H 0.30676 0.27899 0.00325 0.0
H3251 H 0.31293 0.30094 0.01919 0.0
H3252 H 0.31929 0.2649 0.99786 0.0
H3253 H 0.30273 0.28689 0.96091 0.0
H3254 H 0.30395 0.30608 0.94396 0.0
H3255 H 0.33533 0.30719 0.91046 0.0
H3256 H 0.33444 0.28814 0.92738 0.0
H3257 H 0.28723 0.20334 0.9409 0.0
H3258 H 0.29146 0.22442 0.95762 0.0
H3259 H 0.33051 0.24927 0.93079 0.0
H3260 H 0.32635 0.22826 0.91408 0.0
H3261 H 0.3143 0.26169 0.93242 0.0
H3262 H 0.33097 0.23988 0.9709 0.0
H3263 H 0.32889 0.22031 0.9879 0.0
H3264 H 0.29578 0.21831 0.01844 0.0
H3265 H 0.29753 0.23775 0.00143 0.0
C3266 C 0.33886 0.31424 0.98853 0.0
C3267 C 0.33079 0.3142 0.00283 0.0
C3268 C 0.3354 0.3017 0.97959 0.0
C3269 C 0.32368 0.2889 0.98456 0.0
C3270 C 0.31581 0.28876 0.99914 0.0
C3271 C 0.31934 0.30131 0.00822 0.0
C3272 C 0.31964 0.2757 0.97445 0.0
C3273 C 0.31798 0.26413 0.98358 0.0
C3274 C 0.31807 0.27474 0.95579 0.0
C3275 C 0.3186 0.28616 0.94552 0.0
C3276 C 0.30996 0.29129 0.95001 0.0
C3277 C 0.31059 0.30214 0.9404 0.0
C3278 C 0.31974 0.30787 0.92617 0.0
C3279 C 0.32826 0.30275 0.9215 0.0
C3280 C 0.32769 0.29192 0.93108 0.0
C3281 C 0.29666 0.21333 0.93852 0.0
C3282 C 0.3065 0.2142 0.92628 0.0
C3283 C 0.2991 0.22531 0.94811 0.0
C3284 C 0.31133 0.23834 0.94548 0.0
C3285 C 0.32102 0.23929 0.93301 0.0
C3286 C 0.31867 0.22729 0.92357 0.0
C3287 C 0.31414 0.25103 0.95581 0.0
C3288 C 0.31553 0.26247 0.9467 0.0
C3289 C 0.31531 0.25181 0.97449 0.0
C3290 C 0.31428 0.24016 0.98476 0.0
C3291 C 0.32316 0.23518 0.98113 0.0
C3292 C 0.32206 0.22413 0.99079 0.0
C3293 C 0.31218 0.21804 0.00421 0.0
C3294 C 0.30341 0.22302 0.00802 0.0
C3295 C 0.30446 0.23406 0.99838 0.0
H3296 H 0.31135 0.20949 0.01168 0.0
H3297 H 0.3202 0.31627 0.91874 0.0
H3298 H 0.68029 0.01861 0.96903 0.0
H3299 H 0.70215 0.03497 0.95462 0.0
H3300 H 0.71646 0.06064 0.00248 0.0
H3301 H 0.69454 0.0443 0.01707 0.0
H3302 H 0.72212 0.07631 0.97201 0.0
H3303 H 0.72787 0.03954 0.9931 0.0
H3304 H 0.72136 0.01491 0.99683 0.0
H3305 H 0.72327 0.0097 0.94052 0.0
H3306 H 0.72958 0.03424 0.93643 0.0
H3307 H 0.79264 0.11753 0.94749 0.0
H3308 H 0.77122 0.10158 0.96315 0.0
H3309 H 0.75687 0.07302 0.91783 0.0
H3310 H 0.77835 0.08892 0.90212 0.0
H3311 H 0.75139 0.05889 0.9478 0.0
H3312 H 0.74497 0.0951 0.92631 0.0
H3313 H 0.7509 0.11949 0.92201 0.0
H3314 H 0.74977 0.12558 0.97827 0.0
H3315 H 0.74402 0.10128 0.98292 0.0
C3316 C 0.68804 0.02777 0.9765 0.0
C3317 C 0.6857 0.03013 0.99424 0.0
C3318 C 0.70055 0.03707 0.96825 0.0
C3319 C 0.71097 0.0489 0.97756 0.0
C3320 C 0.70855 0.05152 0.9951 0.0
C3321 C 0.69604 0.04217 0.00342 0.0
C3322 C 0.72443 0.05843 0.96898 0.0
C3323 C 0.72864 0.07258 0.96694 0.0
C3324 C 0.73272 0.05342 0.96202 0.0
C3325 C 0.72907 0.0387 0.96445 0.0
C3326 C 0.7268 0.03311 0.9815 0.0
C3327 C 0.72316 0.01917 0.98368 0.0
C3328 C 0.72187 0.01074 0.96892 0.0
C3329 C 0.72425 0.01624 0.95194 0.0
C3330 C 0.72787 0.03017 0.94968 0.0
C3331 C 0.7849 0.10787 0.94084 0.0
C3332 C 0.78713 0.10451 0.92354 0.0
C3333 C 0.77266 0.09877 0.9498 0.0
C3334 C 0.76236 0.08621 0.94155 0.0
C3335 C 0.76469 0.08266 0.92443 0.0
C3336 C 0.77697 0.09173 0.91549 0.0
C3337 C 0.7491 0.07682 0.95074 0.0
C3338 C 0.74491 0.06266 0.9529 0.0
C3339 C 0.74079 0.08181 0.95773 0.0
C3340 C 0.7442 0.09642 0.95497 0.0
C3341 C 0.74609 0.10168 0.93777 0.0
C3342 C 0.7494 0.11548 0.93527 0.0
C3343 C 0.75075 0.12409 0.94986 0.0
C3344 C 0.74875 0.1189 0.96698 0.0
C3345 C 0.74545 0.10511 0.96956 0.0
H3346 H 0.75331 0.13477 0.9479 0.0
H3347 H 0.71904 -6e-05 0.97063 0.0
H3348 H 0.68393 0.97793 0.0071 0.0
H3349 H 0.68934 0.96246 0.02251 0.0
H3350 H 0.64862 0.94095 0.04587 0.0
H3351 H 0.64321 0.95657 0.03078 0.0
H3352 H 0.66777 0.94737 0.07025 0.0
H3353 H 0.65741 0.92558 0.01226 0.0
H3354 H 0.65938 0.9247 0.97975 0.0
H3355 H 0.70237 0.93873 0.98456 0.0
H3356 H 0.70071 0.93988 0.0171 0.0
H3357 H 0.66863 0.88921 0.1038 0.0
H3358 H 0.66322 0.90414 0.08706 0.0
H3359 H 0.70473 0.92653 0.06612 0.0
H3360 H 0.71011 0.91135 0.08249 0.0
H3361 H 0.68544 0.91975 0.04045 0.0
H3362 H 0.69566 0.94138 0.09851 0.0
H3363 H 0.69355 0.94201 0.13102 0.0
H3364 H 0.6506 0.92809 0.126 0.0
H3365 H 0.6524 0.92718 0.09345 0.0
C3366 C 0.67607 0.96983 0.01538 0.0
C3367 C 0.66314 0.96849 0.01772 0.0
C3368 C 0.67916 0.96096 0.02414 0.0
C3369 C 0.66934 0.95048 0.03524 0.0
C3370 C 0.65635 0.94898 0.03738 0.0
C3371 C 0.65327 0.95789 0.0287 0.0
C3372 C 0.6728 0.94145 0.04518 0.0
C3373 C 0.67144 0.94117 0.0637 0.0
C3374 C 0.67795 0.93366 0.03669 0.0
C3375 C 0.67896 0.93294 0.01712 0.0
C3376 C 0.66731 0.92859 0.00638 0.0
C3377 C 0.66837 0.92802 0.98795 0.0
C3378 C 0.681 0.9317 0.98009 0.0
C3379 C 0.6926 0.93591 0.99066 0.0
C3380 C 0.6916 0.9365 0.0091 0.0
C3381 C 0.67658 0.89726 0.09555 0.0
C3382 C 0.6898 0.89911 0.09446 0.0
C3383 C 0.67351 0.90585 0.08611 0.0
C3384 C 0.68361 0.91652 0.07547 0.0
C3385 C 0.6968 0.91837 0.07429 0.0
C3386 C 0.69989 0.90978 0.08376 0.0
C3387 C 0.68034 0.92564 0.06546 0.0
C3388 C 0.68176 0.92595 0.04697 0.0
C3389 C 0.67523 0.93345 0.07397 0.0
C3390 C 0.67414 0.93408 0.09354 0.0
C3391 C 0.68574 0.93835 0.10434 0.0
C3392 C 0.6846 0.93877 0.12277 0.0
C3393 C 0.67194 0.93506 0.13057 0.0
C3394 C 0.6604 0.93095 0.11994 0.0
C3395 C 0.66147 0.93049 0.1015 0.0
H3396 H 0.67109 0.9354 0.14485 0.0
H3397 H 0.6818 0.93125 0.96582 0.0
H3398 H 0.03457 0.70051 0.99563 0.0
H3399 H 0.05132 0.72308 0.01008 0.0
H3400 H 0.03281 0.70651 0.06081 0.0
H3401 H 0.01621 0.68393 0.0466 0.0
H3402 H 0.03687 0.73358 0.05308 0.0
H3403 H 0.06159 0.70906 0.05251 0.0
H3404 H 0.0716 0.6963 0.03815 0.0
H3405 H 0.09722 0.73191 0.00571 0.0
H3406 H 0.0872 0.7448 0.01971 0.0
H3407 H 0.08474 0.78355 0.11462 0.0
H3408 H 0.06865 0.76239 0.09736 0.0
H3409 H 0.09559 0.77864 0.05192 0.0
H3410 H 0.11194 0.79961 0.06941 0.0
H3411 H 0.08729 0.75246 0.05472 0.0
H3412 H 0.06419 0.77776 0.05521 0.0
H3413 H 0.05421 0.79102 0.06811 0.0
H3414 H 0.02557 0.7551 0.0983 0.0
H3415 H 0.03549 0.74168 0.08577 0.0
C3416 C 0.03412 0.70166 0.00987 0.0
C3417 C 0.02409 0.69045 0.01998 0.0
C3418 C 0.04369 0.71453 0.01809 0.0
C3419 C 0.04325 0.71641 0.03648 0.0
C3420 C 0.03326 0.70525 0.04659 0.0
C3421 C 0.02384 0.69234 0.03844 0.0
C3422 C 0.0531 0.73005 0.04529 0.0
C3423 C 0.04789 0.73769 0.05361 0.0
C3424 C 0.06749 0.73556 0.04539 0.0
C3425 C 0.07353 0.72783 0.03701 0.0
C3426 C 0.06926 0.71411 0.0422 0.0
C3427 C 0.07495 0.70687 0.03415 0.0
C3428 C 0.08501 0.71328 0.02099 0.0
C3429 C 0.08941 0.72695 0.01588 0.0
C3430 C 0.08374 0.73423 0.02388 0.0
C3431 C 0.08713 0.78264 0.10089 0.0
C3432 C 0.09953 0.7932 0.0933 0.0
C3433 C 0.07793 0.77057 0.09101 0.0
C3434 C 0.08078 0.76899 0.07322 0.0
C3435 C 0.09315 0.7796 0.0656 0.0
C3436 C 0.10247 0.79157 0.07558 0.0
C3437 C 0.07109 0.75605 0.06279 0.0
C3438 C 0.07631 0.7485 0.05412 0.0
C3439 C 0.05671 0.75073 0.06212 0.0
C3440 C 0.05067 0.75875 0.06966 0.0
C3441 C 0.05583 0.77272 0.0647 0.0
C3442 C 0.05017 0.78026 0.07193 0.0
C3443 C 0.03928 0.77391 0.08404 0.0
C3444 C 0.03401 0.76 0.08892 0.0
C3445 C 0.03963 0.75242 0.08175 0.0
H3446 H 0.03492 0.77977 0.08962 0.0
H3447 H 0.08941 0.70765 0.01478 0.0
H3448 H 0.29082 0.3309 0.00331 0.0
H3449 H 0.26937 0.32416 0.01916 0.0
H3450 H 0.29294 0.35198 0.06282 0.0
H3451 H 0.3144 0.35862 0.04721 0.0
H3452 H 0.27355 0.3266 0.07428 0.0
H3453 H 0.27531 0.36036 0.03445 0.0
H3454 H 0.27708 0.37075 0.00541 0.0
H3455 H 0.24018 0.33279 0.98792 0.0
H3456 H 0.23829 0.3221 0.0168 0.0
H3457 H 0.2193 0.32489 0.12266 0.0
H3458 H 0.24014 0.33204 0.10551 0.0
H3459 H 0.21533 0.30607 0.06132 0.0
H3460 H 0.19434 0.29973 0.07791 0.0
H3461 H 0.23519 0.33001 0.04975 0.0
H3462 H 0.23329 0.29632 0.09001 0.0
H3463 H 0.23144 0.2863 0.11936 0.0
H3464 H 0.26864 0.32422 0.13618 0.0
H3465 H 0.27062 0.33454 0.10702 0.0
C3466 C 0.29144 0.3357 0.01621 0.0
C3467 C 0.30432 0.34528 0.02401 0.0
C3468 C 0.27917 0.33185 0.02523 0.0
C3469 C 0.27956 0.33762 0.04214 0.0
C3470 C 0.2924 0.34738 0.04981 0.0
C3471 C 0.30466 0.3512 0.04083 0.0
C3472 C 0.26663 0.33312 0.05217 0.0
C3473 C 0.26522 0.32749 0.06901 0.0
C3474 C 0.25564 0.33396 0.04509 0.0
C3475 C 0.25674 0.34038 0.02773 0.0
C3476 C 0.26764 0.35419 0.02437 0.0
C3477 C 0.26865 0.36014 0.00794 0.0
C3478 C 0.25877 0.35243 0.99481 0.0
C3479 C 0.24784 0.33875 0.99809 0.0
C3480 C 0.24679 0.33274 0.01449 0.0
C3481 C 0.21821 0.32083 0.10921 0.0
C3482 C 0.20507 0.31173 0.1017 0.0
C3483 C 0.23019 0.32476 0.0995 0.0
C3484 C 0.22934 0.3194 0.08222 0.0
C3485 C 0.21626 0.31029 0.07467 0.0
C3486 C 0.20425 0.30654 0.08427 0.0
C3487 C 0.24208 0.3235 0.07191 0.0
C3488 C 0.24348 0.32904 0.05501 0.0
C3489 C 0.25306 0.32257 0.07893 0.0
C3490 C 0.25204 0.31624 0.09636 0.0
C3491 C 0.24104 0.30255 0.09999 0.0
C3492 C 0.23997 0.29681 0.1166 0.0
C3493 C 0.24989 0.30463 0.12965 0.0
C3494 C 0.26095 0.31818 0.12608 0.0
C3495 C 0.26206 0.32397 0.1095 0.0
H3496 H 0.24903 0.30018 0.14251 0.0
H3497 H 0.25957 0.35705 0.9821 0.0
H3498 H 0.7142 0.69798 0.36681 0.0
H3499 H 0.72909 0.69226 0.38301 0.0
H3500 H 0.70606 0.64975 0.36167 0.0
H3501 H 0.69125 0.65538 0.34528 0.0
H3502 H 0.70962 0.65193 0.39917 0.0
H3503 H 0.73645 0.6704 0.3458 0.0
H3504 H 0.74866 0.68822 0.32295 0.0
H3505 H 0.77566 0.71808 0.3626 0.0
H3506 H 0.76348 0.70048 0.38574 0.0
H3507 H 0.75134 0.62665 0.42723 0.0
H3508 H 0.73784 0.63329 0.40983 0.0
H3509 H 0.7667 0.67712 0.42299 0.0
H3510 H 0.78079 0.67065 0.43942 0.0
H3511 H 0.7602 0.6748 0.38986 0.0
H3512 H 0.73425 0.65748 0.44328 0.0
H3513 H 0.72211 0.64064 0.46717 0.0
H3514 H 0.69352 0.61002 0.42934 0.0
H3515 H 0.70561 0.62662 0.40517 0.0
C3516 C 0.71239 0.68745 0.36545 0.0
C3517 C 0.70156 0.67713 0.35477 0.0
C3518 C 0.72091 0.68422 0.37468 0.0
C3519 C 0.71864 0.67059 0.3735 0.0
C3520 C 0.70793 0.66032 0.36274 0.0
C3521 C 0.69954 0.66358 0.35333 0.0
C3522 C 0.72716 0.6669 0.38391 0.0
C3523 C 0.72066 0.65678 0.39703 0.0
C3524 C 0.7416 0.6736 0.38143 0.0
C3525 C 0.74895 0.68417 0.36753 0.0
C3526 C 0.74491 0.68081 0.34967 0.0
C3527 C 0.75184 0.69086 0.33666 0.0
C3528 C 0.7629 0.70429 0.34133 0.0
C3529 C 0.76708 0.70768 0.35901 0.0
C3530 C 0.76017 0.69767 0.37208 0.0
C3531 C 0.75494 0.63772 0.42627 0.0
C3532 C 0.76717 0.6481 0.43481 0.0
C3533 C 0.74709 0.64149 0.41649 0.0
C3534 C 0.75112 0.65569 0.41534 0.0
C3535 C 0.76334 0.66608 0.42376 0.0
C3536 C 0.7713 0.66234 0.43334 0.0
C3537 C 0.74268 0.65972 0.40517 0.0
C3538 C 0.74918 0.66993 0.3921 0.0
C3539 C 0.72825 0.65325 0.40789 0.0
C3540 C 0.72092 0.64325 0.42239 0.0
C3541 C 0.72544 0.64712 0.44004 0.0
C3542 C 0.71855 0.63762 0.45363 0.0
C3543 C 0.70707 0.62426 0.44977 0.0
C3544 C 0.70243 0.62037 0.4323 0.0
C3545 C 0.70928 0.62983 0.41866 0.0
H3546 H 0.70176 0.61692 0.46031 0.0
H3547 H 0.76826 0.71206 0.33123 0.0
H3548 H 0.32988 0.01452 0.38495 0.0
H3549 H 0.33778 0.03724 0.3997 0.0
H3550 H 0.32972 0.05237 0.3522 0.0
H3551 H 0.32199 0.0297 0.3372 0.0
H3552 H 0.35422 0.07185 0.36657 0.0
H3553 H 0.30763 0.04236 0.38719 0.0
H3554 H 0.28797 0.02134 0.40061 0.0
H3555 H 0.31085 0.03033 0.44899 0.0
H3556 H 0.33074 0.05132 0.43577 0.0
H3557 H 0.35214 0.12991 0.404 0.0
H3558 H 0.34707 0.10789 0.38928 0.0
H3559 H 0.35808 0.09556 0.43692 0.0
H3560 H 0.36305 0.11757 0.45179 0.0
H3561 H 0.33292 0.07477 0.42305 0.0
H3562 H 0.37921 0.10507 0.40251 0.0
H3563 H 0.39855 0.12624 0.38891 0.0
H3564 H 0.37585 0.11591 0.34017 0.0
H3565 H 0.35628 0.09477 0.35356 0.0
C3566 C 0.32976 0.02266 0.37761 0.0
C3567 C 0.32525 0.02028 0.3599 0.0
C3568 C 0.33425 0.03564 0.3861 0.0
C3569 C 0.3342 0.04644 0.37711 0.0
C3570 C 0.32983 0.04416 0.35938 0.0
C3571 C 0.32537 0.03118 0.35085 0.0
C3572 C 0.33868 0.06012 0.38623 0.0
C3573 C 0.34946 0.07251 0.37881 0.0
C3574 C 0.33267 0.06093 0.40243 0.0
C3575 C 0.32072 0.04833 0.41042 0.0
C3576 C 0.30851 0.03979 0.40064 0.0
C3577 C 0.29732 0.02789 0.40822 0.0
C3578 C 0.29817 0.02447 0.42562 0.0
C3579 C 0.31021 0.03297 0.4355 0.0
C3580 C 0.32144 0.04488 0.42798 0.0
C3581 C 0.35353 0.12253 0.41129 0.0
C3582 C 0.35795 0.12541 0.42903 0.0
C3583 C 0.35073 0.11001 0.40285 0.0
C3584 C 0.35228 0.10015 0.41199 0.0
C3585 C 0.35686 0.10308 0.42964 0.0
C3586 C 0.35978 0.11566 0.43806 0.0
C3587 C 0.34842 0.08649 0.40336 0.0
C3588 C 0.33774 0.0741 0.41087 0.0
C3589 C 0.35446 0.0857 0.38721 0.0
C3590 C 0.36622 0.0984 0.3791 0.0
C3591 C 0.37829 0.10738 0.38894 0.0
C3592 C 0.3893 0.11936 0.38126 0.0
C3593 C 0.38842 0.12244 0.3637 0.0
C3594 C 0.37652 0.11352 0.35377 0.0
C3595 C 0.36547 0.10153 0.3614 0.0
H3596 H 0.39696 0.13172 0.35777 0.0
H3597 H 0.2895 0.01526 0.43147 0.0
H3598 H 0.97323 0.3006 0.33334 0.0
H3599 H 0.95133 0.28489 0.34824 0.0
H3600 H 0.96936 0.30577 0.3983 0.0
H3601 H 0.99138 0.32123 0.38359 0.0
H3602 H 0.95476 0.27857 0.40243 0.0
H3603 H 0.94688 0.31194 0.3751 0.0
H3604 H 0.94614 0.32571 0.35063 0.0
H3605 H 0.91656 0.28749 0.32311 0.0
H3606 H 0.91726 0.27348 0.34732 0.0
H3607 H 0.89162 0.2504 0.44998 0.0
H3608 H 0.91315 0.26724 0.435 0.0
H3609 H 0.89738 0.2435 0.38593 0.0
H3610 H 0.87577 0.22673 0.40077 0.0
H3611 H 0.91066 0.27246 0.38165 0.0
H3612 H 0.91912 0.23931 0.40949 0.0
H3613 H 0.91977 0.22601 0.4346 0.0
H3614 H 0.94835 0.26475 0.46198 0.0
H3615 H 0.94772 0.2783 0.43711 0.0
C3616 C 0.97253 0.30184 0.34752 0.0
C3617 C 0.98402 0.31219 0.35727 0.0
C3618 C 0.95998 0.2929 0.35601 0.0
C3619 C 0.95863 0.2943 0.37436 0.0
C3620 C 0.97015 0.30452 0.38413 0.0
C3621 C 0.98273 0.31336 0.37569 0.0
C3622 C 0.94528 0.28499 0.38342 0.0
C3623 C 0.94516 0.27741 0.39802 0.0
C3624 C 0.93269 0.28326 0.37751 0.0
C3625 C 0.93222 0.29166 0.36295 0.0
C3626 C 0.94029 0.30647 0.36377 0.0
C3627 C 0.93987 0.31432 0.34995 0.0
C3628 C 0.93134 0.30748 0.3353 0.0
C3629 C 0.92318 0.29278 0.33446 0.0
C3630 C 0.92357 0.28487 0.34823 0.0
C3631 C 0.89269 0.24888 0.43595 0.0
C3632 C 0.88207 0.23722 0.42655 0.0
C3633 C 0.90501 0.25844 0.42745 0.0
C3634 C 0.90688 0.25651 0.40941 0.0
C3635 C 0.89613 0.24514 0.39987 0.0
C3636 C 0.88386 0.23553 0.40838 0.0
C3637 C 0.92021 0.26611 0.40058 0.0
C3638 C 0.9203 0.27371 0.38604 0.0
C3639 C 0.93279 0.26795 0.40663 0.0
C3640 C 0.93326 0.25982 0.42152 0.0
C3641 C 0.92546 0.245 0.42092 0.0
C3642 C 0.92584 0.23741 0.4351 0.0
C3643 C 0.93407 0.24453 0.4499 0.0
C3644 C 0.94196 0.25925 0.45052 0.0
C3645 C 0.94161 0.26689 0.43638 0.0
H3646 H 0.93434 0.23864 0.46086 0.0
H3647 H 0.93102 0.31358 0.32462 0.0
H3648 H 0.0505 0.39102 0.30576 0.0
H3649 H 0.04594 0.40777 0.292 0.0
H3650 H 0.00646 0.3888 0.31848 0.0
H3651 H 0.01087 0.37198 0.33217 0.0
H3652 H 0.00436 0.39215 0.28334 0.0
H3653 H 0.03319 0.4204 0.33247 0.0
H3654 H 0.05416 0.43151 0.35109 0.0
H3655 H 0.07891 0.45431 0.30643 0.0
H3656 H 0.05811 0.44318 0.28748 0.0
H3657 H 0.98601 0.44229 0.26827 0.0
H3658 H 0.99236 0.42696 0.28214 0.0
H3659 H 0.03191 0.44865 0.25574 0.0
H3660 H 0.02561 0.46404 0.2418 0.0
H3661 H 0.03476 0.44412 0.28978 0.0
H3662 H 0.00663 0.4166 0.24064 0.0
H3663 H 0.9861 0.40554 0.22125 0.0
H3664 H 0.96061 0.38129 0.26466 0.0
H3665 H 0.98097 0.39235 0.28438 0.0
C3666 C 0.04089 0.39047 0.30875 0.0
C3667 C 0.03104 0.38015 0.32004 0.0
C3668 C 0.03832 0.40008 0.30092 0.0
C3669 C 0.02588 0.39955 0.30429 0.0
C3670 C 0.01611 0.38936 0.31569 0.0
C3671 C 0.01868 0.37979 0.32355 0.0
C3672 C 0.0228 0.4093 0.29551 0.0
C3673 C 0.0109 0.40351 0.28493 0.0
C3674 C 0.03161 0.42411 0.29713 0.0
C3675 C 0.04411 0.43085 0.30852 0.0
C3676 C 0.04312 0.42769 0.32659 0.0
C3677 C 0.05497 0.43401 0.3372 0.0
C3678 C 0.06786 0.44358 0.32993 0.0
C3679 C 0.06892 0.44688 0.31204 0.0
C3680 C 0.0571 0.44058 0.30136 0.0
C3681 C 0.99602 0.44373 0.26532 0.0
C3682 C 0.00528 0.45433 0.25387 0.0
C3683 C -0.00035 0.43498 0.27327 0.0
C3684 C 0.01255 0.43656 0.2698 0.0
C3685 C 0.02191 0.44727 0.25861 0.0
C3686 C 0.01831 0.45606 0.25069 0.0
C3687 C 0.0162 0.42696 0.2778 0.0
C3688 C 0.02822 0.43276 0.28817 0.0
C3689 C 0.00757 0.41214 0.27587 0.0
C3690 C 0.99531 0.4054 0.26403 0.0
C3691 C 0.99663 0.40899 0.24609 0.0
C3692 C 0.98503 0.40271 0.23503 0.0
C3693 C 0.97205 0.39275 0.24173 0.0
C3694 C 0.97066 0.38902 0.25949 0.0
C3695 C 0.98223 0.39528 0.27062 0.0
H3696 H 0.96308 0.38789 0.23315 0.0
H3697 H 0.07703 0.44846 0.33817 0.0
H3698 H 0.62017 0.65772 0.32904 0.0
H3699 H 0.60386 0.63448 0.31611 0.0
H3700 H 0.63569 0.6244 0.31552 0.0
H3701 H 0.65219 0.64786 0.32767 0.0
H3702 H 0.62303 0.6164 0.28596 0.0
H3703 H 0.60772 0.61009 0.34609 0.0
H3704 H 0.59995 0.61547 0.37419 0.0
H3705 H 0.56449 0.6109 0.34798 0.0
H3706 H 0.57214 0.60567 0.31965 0.0
H3707 H 0.57593 0.54252 0.26933 0.0
H3708 H 0.59222 0.56476 0.28457 0.0
H3709 H 0.56604 0.58083 0.27333 0.0
H3710 H 0.55001 0.55897 0.25736 0.0
H3711 H 0.5758 0.58489 0.30968 0.0
H3712 H 0.59246 0.59183 0.2492 0.0
H3713 H 0.6004 0.58551 0.22196 0.0
H3714 H 0.63385 0.58777 0.25073 0.0
H3715 H 0.62597 0.5939 0.27822 0.0
C3716 C 0.62365 0.6505 0.32626 0.0
C3717 C 0.63744 0.65459 0.32936 0.0
C3718 C 0.6143 0.63718 0.31896 0.0
C3719 C 0.61847 0.62757 0.31506 0.0
C3720 C 0.63222 0.63161 0.31838 0.0
C3721 C 0.64163 0.64501 0.32536 0.0
C3722 C 0.60869 0.61354 0.30685 0.0
C3723 C 0.6128 0.60944 0.29137 0.0
C3724 C 0.59522 0.60449 0.31369 0.0
C3725 C 0.59058 0.60761 0.33071 0.0
C3726 C 0.59832 0.61033 0.34629 0.0
C3727 C 0.59393 0.61334 0.36226 0.0
C3728 C 0.58176 0.61356 0.36286 0.0
C3729 C 0.57393 0.61074 0.34749 0.0
C3730 C 0.57828 0.60774 0.33147 0.0
C3731 C 0.57369 0.55082 0.26988 0.0
C3732 C 0.56162 0.5489 0.26207 0.0
C3733 C 0.58296 0.56347 0.27873 0.0
C3734 C 0.58028 0.57437 0.28005 0.0
C3735 C 0.5682 0.57247 0.27254 0.0
C3736 C 0.55902 0.55991 0.26349 0.0
C3737 C 0.59022 0.58792 0.28895 0.0
C3738 C 0.5861 0.59189 0.30447 0.0
C3739 C 0.60374 0.59675 0.28234 0.0
C3740 C 0.60853 0.59317 0.2658 0.0
C3741 C 0.60143 0.59085 0.24975 0.0
C3742 C 0.60593 0.58733 0.23426 0.0
C3743 C 0.6176 0.58619 0.23463 0.0
C3744 C 0.6248 0.58863 0.25048 0.0
C3745 C 0.62033 0.59213 0.26601 0.0
H3746 H 0.62107 0.58347 0.22262 0.0
H3747 H 0.57837 0.61589 0.37524 0.0
H3748 H 0.34712 0.99543 0.29036 0.0
H3749 H 0.36778 0.99777 0.27667 0.0
H3750 H 0.37406 0.97938 0.32233 0.0
H3751 H 0.35344 0.97713 0.33626 0.0
H3752 H 0.39787 0.00258 0.31191 0.0
H3753 H 0.36165 0.9602 0.28452 0.0
H3754 H 0.33969 0.94506 0.26852 0.0
H3755 H 0.35569 0.97204 0.22375 0.0
H3756 H 0.37769 0.98747 0.23958 0.0
H3757 H 0.44905 0.99281 0.27033 0.0
H3758 H 0.42788 0.98845 0.28513 0.0
H3759 H 0.41961 0.00746 0.2419 0.0
H3760 H 0.4406 0.01161 0.22688 0.0
H3761 H 0.39659 0.98272 0.25185 0.0
H3762 H 0.43246 0.02558 0.27997 0.0
H3763 H 0.45439 0.04061 0.29608 0.0
H3764 H 0.43894 0.01234 0.33964 0.0
H3765 H 0.41698 0.99702 0.32367 0.0
C3766 C 0.35287 0.99185 0.2975 0.0
C3767 C 0.34862 0.98606 0.31439 0.0
C3768 C 0.36464 0.99314 0.28961 0.0
C3769 C 0.37235 0.9886 0.2984 0.0
C3770 C 0.36822 0.98291 0.31531 0.0
C3771 C 0.35642 0.98161 0.32322 0.0
C3772 C 0.38487 0.99005 0.29 0.0
C3773 C 0.39756 0.99804 0.2989 0.0
C3774 C 0.38448 0.98434 0.2729 0.0
C3775 C 0.37127 0.97507 0.26331 0.0
C3776 C 0.36045 0.96298 0.27132 0.0
C3777 C 0.348 0.95432 0.26227 0.0
C3778 C 0.34629 0.9576 0.24515 0.0
C3779 C 0.35703 0.96952 0.23702 0.0
C3780 C 0.36949 0.97822 0.24602 0.0
C3781 C 0.44267 0.99598 0.26395 0.0
C3782 C 0.44649 0.0026 0.24749 0.0
C3783 C 0.43065 0.99357 0.27246 0.0
C3784 C 0.42226 0.99774 0.26466 0.0
C3785 C 0.42597 0.0042 0.24815 0.0
C3786 C 0.43801 0.00667 0.23967 0.0
C3787 C 0.40959 0.99536 0.27368 0.0
C3788 C 0.39687 0.98718 0.2649 0.0
C3789 C 0.40995 0.00087 0.29091 0.0
C3790 C 0.42314 0.01008 0.30054 0.0
C3791 C 0.43379 0.0225 0.29292 0.0
C3792 C 0.44621 0.03108 0.30204 0.0
C3793 C 0.44807 0.02741 0.31885 0.0
C3794 C 0.43749 0.01516 0.3266 0.0
C3795 C 0.42505 0.00653 0.31753 0.0
H3796 H 0.4577 0.03407 0.32589 0.0
H3797 H 0.33664 0.95089 0.23816 0.0
H3798 H 0.62239 0.97727 0.33121 0.0
H3799 H 0.60458 0.98075 0.31903 0.0
H3800 H 0.62918 0.99816 0.27197 0.0
H3801 H 0.64704 0.99485 0.28406 0.0
H3802 H 0.61925 0.0141 0.28458 0.0
H3803 H 0.60133 0.96486 0.27153 0.0
H3804 H 0.59368 0.94041 0.27884 0.0
H3805 H 0.56253 0.93856 0.31352 0.0
H3806 H 0.57013 0.96308 0.30658 0.0
H3807 H 0.57113 0.01205 0.22487 0.0
H3808 H 0.58781 0.00831 0.23985 0.0
H3809 H 0.55967 0.98991 0.28377 0.0
H3810 H 0.54288 0.99356 0.26877 0.0
H3811 H 0.57086 0.9747 0.27491 0.0
H3812 H 0.58783 0.02337 0.28709 0.0
H3813 H 0.59534 0.04782 0.28003 0.0
H3814 H 0.62819 0.05095 0.24772 0.0
H3815 H 0.62075 0.02643 0.25439 0.0
C3816 C 0.62399 0.98181 0.31826 0.0
C3817 C 0.63613 0.98577 0.30859 0.0
C3818 C 0.61379 0.98375 0.3113 0.0
C3819 C 0.61554 0.98963 0.29454 0.0
C3820 C 0.62765 0.99362 0.28493 0.0
C3821 C 0.63782 0.99168 0.29184 0.0
C3822 C 0.60485 0.9918 0.28701 0.0
C3823 C 0.6087 0.00547 0.2823 0.0
C3824 C 0.59099 0.9806 0.28454 0.0
C3825 C 0.5864 0.96585 0.28869 0.0
C3826 C 0.59293 0.95928 0.28083 0.0
C3827 C 0.58859 0.9454 0.28488 0.0
C3828 C 0.57765 0.93795 0.29668 0.0
C3829 C 0.57101 0.94435 0.30441 0.0
C3830 C 0.57533 0.95823 0.30041 0.0
C3831 C 0.56855 0.00732 0.23779 0.0
C3832 C 0.55574 0.00318 0.2457 0.0
C3833 C 0.57808 0.00518 0.24633 0.0
C3834 C 0.57506 0.99901 0.26304 0.0
C3835 C 0.56221 0.9947 0.27089 0.0
C3836 C 0.55263 0.99677 0.2623 0.0
C3837 C 0.58531 0.99698 0.27222 0.0
C3838 C 0.58138 0.98336 0.27729 0.0
C3839 C 0.59909 0.00824 0.27509 0.0
C3840 C 0.60365 0.02302 0.27113 0.0
C3841 C 0.59659 0.02923 0.27838 0.0
C3842 C 0.60085 0.04311 0.27446 0.0
C3843 C 0.61222 0.05092 0.26341 0.0
C3844 C 0.61937 0.04488 0.25628 0.0
C3845 C 0.61515 0.031 0.26013 0.0
H3846 H 0.61549 0.06167 0.26039 0.0
H3847 H 0.5743 0.92721 0.2998 0.0
H3848 H 0.99024 0.63913 0.35134 0.0
H3849 H 0.98808 0.61857 0.33579 0.0
H3850 H 0.02022 0.64583 0.29944 0.0
H3851 H 0.02217 0.66641 0.31461 0.0
H3852 H -0.00029 0.62503 0.28184 0.0
H3853 H 0.02598 0.62877 0.33287 0.0
H3854 H 0.03143 0.63066 0.3647 0.0
H3855 H 0.99415 0.59074 0.37321 0.0
H3856 H 0.98838 0.5887 0.34145 0.0
H3857 H 0.01311 0.57392 0.24515 0.0
H3858 H 0.01562 0.5943 0.2618 0.0
H3859 H 0.97889 0.56676 0.29172 0.0
H3860 H 0.97632 0.54632 0.2751 0.0
H3861 H 0.00166 0.5874 0.31261 0.0
H3862 H 0.97595 0.58417 0.26064 0.0
H3863 H 0.97161 0.58258 0.22851 0.0
H3864 H 0.0095 0.62227 0.22161 0.0
H3865 H 0.01417 0.62399 0.25369 0.0
C3866 C 0.9969 0.64075 0.3401 0.0
C3867 C 0.00639 0.6544 0.33421 0.0
C3868 C 0.99569 0.62899 0.33126 0.0
C3869 C 0.00409 0.63066 0.31656 0.0
C3870 C 0.01362 0.64428 0.31074 0.0
C3871 C 0.01475 0.65604 0.31946 0.0
C3872 C 0.00269 0.61821 0.30692 0.0
C3873 C 0.00034 0.61692 0.28856 0.0
C3874 C 0.00324 0.60746 0.31571 0.0
C3875 C 0.00668 0.60865 0.33481 0.0
C3876 C 0.01889 0.62045 0.34155 0.0
C3877 C 0.02205 0.62154 0.35957 0.0
C3878 C 0.01312 0.61085 0.37097 0.0
C3879 C 0.00104 0.59903 0.36436 0.0
C3880 C 0.99783 0.59789 0.34635 0.0
C3881 C 0.00562 0.57222 0.25534 0.0
C3882 C 0.99451 0.55858 0.25884 0.0
C3883 C 0.00702 0.58385 0.26476 0.0
C3884 C 0.99739 0.582 0.2779 0.0
C3885 C 0.9864 0.56837 0.28161 0.0
C3886 C 0.9849 0.55675 0.27205 0.0
C3887 C 0.99873 0.59433 0.28764 0.0
C3888 C 0.00106 0.59556 0.30597 0.0
C3889 C 0.99832 0.6051 0.27882 0.0
C3890 C 0.99548 0.60413 0.25954 0.0
C3891 C 0.98341 0.5925 0.25225 0.0
C3892 C 0.98088 0.59158 0.23405 0.0
C3893 C 0.99029 0.6023 0.22302 0.0
C3894 C 0.00223 0.61397 0.23017 0.0
C3895 C 0.00482 0.61492 0.24836 0.0
H3896 H 0.98831 0.60157 0.20893 0.0
H3897 H 0.01559 0.61171 0.38492 0.0
H3898 H 0.35212 0.35223 0.32268 0.0
H3899 H 0.37476 0.36895 0.31041 0.0
H3900 H 0.35668 0.38746 0.28001 0.0
H3901 H 0.33385 0.37049 0.29196 0.0
H3902 H 0.37423 0.38399 0.26021 0.0
H3903 H 0.37571 0.40399 0.31756 0.0
H3904 H 0.37343 0.4043 0.35007 0.0
H3905 H 0.40477 0.3942 0.35567 0.0
H3906 H 0.4071 0.39364 0.32317 0.0
H3907 H 0.43803 0.44608 0.23877 0.0
H3908 H 0.41508 0.4297 0.25081 0.0
H3909 H 0.43141 0.40799 0.27789 0.0
H3910 H 0.45448 0.42451 0.26608 0.0
H3911 H 0.41472 0.41356 0.29926 0.0
H3912 H 0.41298 0.39364 0.24133 0.0
H3913 H 0.41544 0.39419 0.20881 0.0
H3914 H 0.38458 0.40508 0.20436 0.0
H3915 H 0.38209 0.40481 0.23689 0.0
C3916 C 0.35294 0.35989 0.31345 0.0
C3917 C 0.34119 0.36008 0.30836 0.0
C3918 C 0.36591 0.36948 0.30648 0.0
C3919 C 0.36745 0.37959 0.29448 0.0
C3920 C 0.35573 0.37976 0.28929 0.0
C3921 C 0.34271 0.37009 0.29617 0.0
C3922 C 0.38128 0.38983 0.28721 0.0
C3923 C 0.38304 0.39061 0.26875 0.0
C3924 C 0.39283 0.39828 0.29836 0.0
C3925 C 0.39149 0.39865 0.31792 0.0
C3926 C 0.38204 0.40173 0.32572 0.0
C3927 C 0.38075 0.40197 0.34414 0.0
C3928 C 0.38893 0.39924 0.35492 0.0
C3929 C 0.39843 0.3963 0.3473 0.0
C3930 C 0.39975 0.39603 0.32888 0.0
C3931 C 0.43674 0.43786 0.24737 0.0
C3932 C 0.44803 0.43657 0.25152 0.0
C3933 C 0.42362 0.42846 0.25413 0.0
C3934 C 0.42155 0.41759 0.26512 0.0
C3935 C 0.43281 0.41631 0.26938 0.0
C3936 C 0.44594 0.42567 0.26255 0.0
C3937 C 0.40765 0.40764 0.27232 0.0
C3938 C 0.40589 0.40694 0.29075 0.0
C3939 C 0.3961 0.39936 0.26115 0.0
C3940 C 0.39745 0.39934 0.24156 0.0
C3941 C 0.40679 0.39626 0.23343 0.0
C3942 C 0.40818 0.3965 0.21499 0.0
C3943 C 0.4002 0.3997 0.20453 0.0
C3944 C 0.39077 0.40262 0.21249 0.0
C3945 C 0.38936 0.40241 0.23092 0.0
H3946 H 0.4013 0.3999 0.19026 0.0
H3947 H 0.38792 0.39943 0.36919 0.0
H3948 H 0.34133 0.30427 0.33189 0.0
H3949 H 0.34707 0.28908 0.34739 0.0
H3950 H 0.31157 0.27532 0.38132 0.0
H3951 H 0.30589 0.29066 0.36609 0.0
H3952 H 0.33387 0.28242 0.40033 0.0
H3953 H 0.31197 0.25367 0.34867 0.0
H3954 H 0.30783 0.24806 0.3167 0.0
H3955 H 0.34916 0.25674 0.31019 0.0
H3956 H 0.35362 0.2626 0.34211 0.0
H3957 H 0.33108 0.22324 0.43751 0.0
H3958 H 0.3257 0.23798 0.42015 0.0
H3959 H 0.36509 0.25582 0.39366 0.0
H3960 H 0.37057 0.24112 0.41112 0.0
H3961 H 0.34156 0.24687 0.37068 0.0
H3962 H 0.36292 0.27526 0.42312 0.0
H3963 H 0.36612 0.27976 0.45537 0.0
H3964 H 0.32455 0.27066 0.46047 0.0
H3965 H 0.32102 0.26589 0.42826 0.0
C3966 C 0.33466 0.29791 0.34253 0.0
C3967 C 0.32317 0.2987 0.34778 0.0
C3968 C 0.33794 0.2892 0.35135 0.0
C3969 C 0.32971 0.28101 0.36545 0.0
C3970 C 0.31808 0.28158 0.37049 0.0
C3971 C 0.31482 0.29032 0.36173 0.0
C3972 C 0.33352 0.27229 0.37544 0.0
C3973 C 0.33537 0.27452 0.39385 0.0
C3974 C 0.3358 0.26221 0.36695 0.0
C3975 C 0.33317 0.25872 0.34775 0.0
C3976 C 0.32022 0.25451 0.34039 0.0
C3977 C 0.3178 0.25126 0.32229 0.0
C3978 C 0.32824 0.25209 0.31141 0.0
C3979 C 0.3411 0.25613 0.31863 0.0
C3980 C 0.34357 0.2594 0.33673 0.0
C3981 C 0.33856 0.23029 0.42795 0.0
C3982 C 0.35124 0.23109 0.42564 0.0
C3983 C 0.33551 0.23871 0.41811 0.0
C3984 C 0.34503 0.24798 0.40569 0.0
C3985 C 0.35763 0.24871 0.4032 0.0
C3986 C 0.36078 0.24041 0.41323 0.0
C3987 C 0.34179 0.25699 0.39547 0.0
C3988 C 0.34008 0.25481 0.37707 0.0
C3989 C 0.33952 0.26704 0.40396 0.0
C3990 C 0.34167 0.27009 0.4233 0.0
C3991 C 0.35442 0.27411 0.43114 0.0
C3992 C 0.3563 0.27673 0.44941 0.0
C3993 C 0.34553 0.27545 0.45996 0.0
C3994 C 0.33287 0.27162 0.45227 0.0
C3995 C 0.33093 0.26897 0.434 0.0
H3996 H 0.34699 0.27745 0.4741 0.0
H3997 H 0.32635 0.24956 0.2974 0.0
H3998 H 0.68557 0.01473 0.37603 0.0
H3999 H 0.7013 0.03776 0.38988 0.0
H4000 H 0.72201 0.05312 0.33987 0.0
H4001 H 0.70632 0.03007 0.32586 0.0
H4002 H 0.74017 0.0603 0.36781 0.0
H4003 H 0.70026 0.06259 0.35426 0.0
H4004 H 0.67544 0.05437 0.35434 0.0
H4005 H 0.67565 0.05673 0.4112 0.0
H4006 H 0.70044 0.06478 0.41147 0.0
H4007 H 0.77983 0.13203 0.39428 0.0
H4008 H 0.7633 0.11023 0.37837 0.0
H4009 H 0.73904 0.09445 0.42604 0.0
H4010 H 0.75542 0.11635 0.44191 0.0
H4011 H 0.72258 0.08776 0.3983 0.0
H4012 H 0.76171 0.08433 0.41244 0.0
H4013 H 0.78639 0.09202 0.41318 0.0
H4014 H 0.7875 0.09109 0.35632 0.0
H4015 H 0.76286 0.08358 0.35524 0.0
C4016 C 0.69348 0.02299 0.36795 0.0
C4017 C 0.69467 0.02058 0.34982 0.0
C4018 C 0.70241 0.03616 0.37588 0.0
C4019 C 0.71271 0.04717 0.36585 0.0
C4020 C 0.71409 0.04476 0.34782 0.0
C4021 C 0.7051 0.03159 0.33984 0.0
C4022 C 0.72212 0.06117 0.37425 0.0
C4023 C 0.73636 0.06642 0.37424 0.0
C4024 C 0.71708 0.06894 0.38302 0.0
C4025 C 0.70218 0.06417 0.38289 0.0
C4026 C 0.69499 0.06125 0.36679 0.0
C4027 C 0.68093 0.05664 0.36677 0.0
C4028 C 0.67396 0.055 0.38276 0.0
C4029 C 0.68106 0.058 0.39882 0.0
C4030 C 0.69512 0.0626 0.39891 0.0
C4031 C 0.77093 0.12392 0.40132 0.0
C4032 C 0.76894 0.12583 0.41934 0.0
C4033 C 0.76152 0.11147 0.39224 0.0
C4034 C 0.75007 0.1006 0.4011 0.0
C4035 C 0.74781 0.10268 0.41894 0.0
C4036 C 0.75716 0.1152 0.42799 0.0
C4037 C 0.74066 0.08691 0.39192 0.0
C4038 C 0.72641 0.08169 0.3918 0.0
C4039 C 0.74568 0.07909 0.38315 0.0
C4040 C 0.76048 0.08353 0.38376 0.0
C4041 C 0.76725 0.08586 0.4001 0.0
C4042 C 0.78122 0.09018 0.40058 0.0
C4043 C 0.78852 0.09208 0.38481 0.0
C4044 C 0.78184 0.08963 0.36852 0.0
C4045 C 0.76787 0.08534 0.36797 0.0
H4046 H 0.79934 0.09542 0.3852 0.0
H4047 H 0.66308 0.05143 0.38272 0.0
H4048 H 0.95912 0.6637 0.33644 0.0
H4049 H 0.9373 0.65608 0.35185 0.0
H4050 H 0.95967 0.68447 0.39563 0.0
H4051 H 0.9815 0.692 0.38047 0.0
H4052 H 0.94033 0.65886 0.40705 0.0
H4053 H 0.94246 0.69223 0.36606 0.0
H4054 H 0.94461 0.70229 0.33666 0.0
H4055 H 0.90825 0.66393 0.31888 0.0
H4056 H 0.90598 0.65357 0.34812 0.0
H4057 H 0.88617 0.65881 0.45331 0.0
H4058 H 0.90701 0.66515 0.4366 0.0
H4059 H 0.88217 0.63853 0.39282 0.0
H4060 H 0.8612 0.63299 0.40893 0.0
H4061 H 0.90234 0.66202 0.38075 0.0
H4062 H 0.8997 0.62896 0.42254 0.0
H4063 H 0.89748 0.61937 0.45228 0.0
H4064 H 0.93484 0.65728 0.46876 0.0
H4065 H 0.93717 0.66717 0.43921 0.0
C4066 C 0.95939 0.66838 0.34931 0.0
C4067 C 0.97205 0.67847 0.35722 0.0
C4068 C 0.94691 0.66403 0.35808 0.0
C4069 C 0.94686 0.66977 0.37485 0.0
C4070 C 0.95948 0.67988 0.38272 0.0
C4071 C 0.97194 0.68422 0.37399 0.0
C4072 C 0.93371 0.66512 0.38438 0.0
C4073 C 0.93206 0.65967 0.40138 0.0
C4074 C 0.92281 0.66585 0.37679 0.0
C4075 C 0.92414 0.67207 0.35921 0.0
C4076 C 0.93499 0.6859 0.35583 0.0
C4077 C 0.93622 0.69166 0.33921 0.0
C4078 C 0.9266 0.68374 0.32589 0.0
C4079 C 0.91571 0.67004 0.3292 0.0
C4080 C 0.91444 0.66422 0.3458 0.0
C4081 C 0.88508 0.65442 0.44004 0.0
C4082 C 0.87193 0.6454 0.43249 0.0
C4083 C 0.89705 0.65789 0.43059 0.0
C4084 C 0.89619 0.65211 0.41356 0.0
C4085 C 0.88311 0.64306 0.40599 0.0
C4086 C 0.87111 0.63977 0.41532 0.0
C4087 C 0.90894 0.65581 0.40351 0.0
C4088 C 0.91053 0.66109 0.38639 0.0
C4089 C 0.9198 0.65491 0.411 0.0
C4090 C 0.91855 0.64884 0.42868 0.0
C4091 C 0.9074 0.63527 0.43253 0.0
C4092 C 0.90613 0.62979 0.44936 0.0
C4093 C 0.91599 0.63773 0.46243 0.0
C4094 C 0.92719 0.65114 0.45866 0.0
C4095 C 0.92851 0.65668 0.44186 0.0
H4096 H 0.91496 0.63347 0.47546 0.0
H4097 H 0.92757 0.68822 0.31303 0.0
H4098 H 0.38151 0.03775 0.70132 0.0
H4099 H 0.39889 0.03496 0.71613 0.0
H4100 H 0.37042 0.98995 0.71665 0.0
H4101 H 0.35291 0.99268 0.70226 0.0
H4102 H 0.38215 0.99927 0.74793 0.0
H4103 H 0.39829 0.00572 0.68762 0.0
H4104 H 0.40591 0.01791 0.65919 0.0
H4105 H 0.43957 0.05419 0.68545 0.0
H4106 H 0.43205 0.04228 0.7141 0.0
H4107 H 0.4282 0.97793 0.77098 0.0
H4108 H 0.4121 0.98183 0.75481 0.0
H4109 H 0.44133 0.02669 0.75735 0.0
H4110 H 0.45773 0.02285 0.77297 0.0
H4111 H 0.42969 0.01825 0.72491 0.0
H4112 H 0.41376 0.01166 0.78507 0.0
H4113 H 0.40626 0.99943 0.81349 0.0
H4114 H 0.37218 0.9634 0.78742 0.0
H4115 H 0.37959 0.97535 0.75879 0.0
C4116 C 0.37898 0.02726 0.7045 0.0
C4117 C 0.36582 0.01544 0.70064 0.0
C4118 C 0.38895 0.02567 0.7129 0.0
C4119 C 0.386 0.01223 0.71736 0.0
C4120 C 0.37291 0.00042 0.71336 0.0
C4121 C 0.36292 0.002 0.7051 0.0
C4122 C 0.39635 0.01044 0.72672 0.0
C4123 C 0.39248 0.00326 0.74276 0.0
C4124 C 0.40996 0.016 0.72025 0.0
C4125 C 0.41452 0.02316 0.70303 0.0
C4126 C 0.40725 0.01634 0.68736 0.0
C4127 C 0.41157 0.02319 0.6712 0.0
C4128 C 0.42319 0.03683 0.67052 0.0
C4129 C 0.43055 0.04363 0.686 0.0
C4130 C 0.42628 0.03683 0.7022 0.0
C4131 C 0.43128 0.98862 0.76793 0.0
C4132 C 0.44424 9e-05 0.77331 0.0
C4133 C 0.42201 0.99084 0.75883 0.0
C4134 C 0.42545 0.00457 0.75509 0.0
C4135 C 0.43845 0.01602 0.76018 0.0
C4136 C 0.44775 0.01381 0.76925 0.0
C4137 C 0.41541 0.00694 0.74597 0.0
C4138 C 0.41935 0.01427 0.73005 0.0
C4139 C 0.40185 0.00152 0.75253 0.0
C4140 C 0.39731 0.99436 0.76976 0.0
C4141 C 0.40472 0.00109 0.78538 0.0
C4142 C 0.40048 0.99421 0.80153 0.0
C4143 C 0.38877 0.98063 0.80225 0.0
C4144 C 0.38126 0.97392 0.78684 0.0
C4145 C 0.38547 0.98074 0.77065 0.0
H4146 H 0.3855 0.97532 0.81477 0.0
H4147 H 0.42651 0.04212 0.658 0.0
H4148 H 0.95987 0.33206 0.71053 0.0
H4149 H 0.96315 0.35393 0.72354 0.0
H4150 H 0.00558 0.37646 0.70588 0.0
H4151 H 0.00246 0.35466 0.69304 0.0
H4152 H 0.00357 0.38305 0.73981 0.0
H4153 H 0.98121 0.37968 0.68479 0.0
H4154 H 0.96296 0.36822 0.66202 0.0
H4155 H 0.93283 0.36491 0.69975 0.0
H4156 H 0.95087 0.37618 0.72282 0.0
H4157 H 0.0188 0.45275 0.75403 0.0
H4158 H 0.01464 0.43088 0.73992 0.0
H4159 H 0.97266 0.40895 0.75923 0.0
H4160 H 0.97678 0.43075 0.77357 0.0
H4161 H 0.97411 0.40192 0.72467 0.0
H4162 H 0.9964 0.40526 0.77962 0.0
H4163 H 0.0146 0.41676 0.80244 0.0
H4164 H 0.0448 0.42003 0.76487 0.0
H4165 H 0.0268 0.40874 0.74174 0.0
C4166 C 0.96988 0.34168 0.70935 0.0
C4167 C 0.9809 0.34162 0.70075 0.0
C4168 C 0.97172 0.35418 0.71673 0.0
C4169 C 0.98458 0.36684 0.71555 0.0
C4170 C 0.99558 0.3668 0.70695 0.0
C4171 C 0.99375 0.35433 0.69957 0.0
C4172 C 0.98671 0.38008 0.72367 0.0
C4173 C 0.99725 0.38728 0.73631 0.0
C4174 C 0.97823 0.38539 0.71944 0.0
C4175 C 0.96737 0.37864 0.70558 0.0
C4176 C 0.97067 0.3764 0.68827 0.0
C4177 C 0.96037 0.36996 0.6753 0.0
C4178 C 0.94674 0.3658 0.67945 0.0
C4179 C 0.94339 0.36811 0.69657 0.0
C4180 C 0.95365 0.37454 0.70959 0.0
C4181 C 0.00871 0.44326 0.75538 0.0
C4182 C 0.99814 0.44348 0.76499 0.0
C4183 C 0.00634 0.43078 0.74727 0.0
C4184 C 0.99338 0.41828 0.74869 0.0
C4185 C 0.98273 0.4185 0.75796 0.0
C4186 C 0.98509 0.43098 0.76609 0.0
C4187 C 0.99102 0.40491 0.7407 0.0
C4188 C 0.98043 0.39769 0.72813 0.0
C4189 C -0.00056 0.39956 0.745 0.0
C4190 C 0.01027 0.40628 0.75891 0.0
C4191 C 0.00694 0.40853 0.77619 0.0
C4192 C 0.01721 0.415 0.78918 0.0
C4193 C 0.03085 0.41915 0.78509 0.0
C4194 C 0.03423 0.41682 0.76801 0.0
C4195 C 0.024 0.41038 0.75496 0.0
H4196 H 0.03879 0.42415 0.79517 0.0
H4197 H 0.93878 0.36082 0.66939 0.0
H4198 H 0.6555 0.65423 0.71878 0.0
H4199 H 0.63378 0.63928 0.73433 0.0
H4200 H 0.61695 0.61253 0.68762 0.0
H4201 H 0.63862 0.62757 0.67182 0.0
H4202 H 0.59878 0.61863 0.70224 0.0
H4203 H 0.62744 0.60204 0.72252 0.0
H4204 H 0.64831 0.60429 0.7355 0.0
H4205 H 0.64175 0.6212 0.78379 0.0
H4206 H 0.62093 0.61923 0.771 0.0
H4207 H 0.54124 0.55957 0.74188 0.0
H4208 H 0.56273 0.57567 0.72644 0.0
H4209 H 0.57836 0.60201 0.77365 0.0
H4210 H 0.55696 0.58575 0.78932 0.0
H4211 H 0.59716 0.59659 0.75912 0.0
H4212 H 0.56815 0.61264 0.73907 0.0
H4213 H 0.54727 0.61036 0.72606 0.0
H4214 H 0.55444 0.59442 0.67735 0.0
H4215 H 0.57526 0.59641 0.69017 0.0
C4216 C 0.64721 0.64514 0.7118 0.0
C4217 C 0.6488 0.64207 0.69406 0.0
C4218 C 0.63481 0.63658 0.72074 0.0
C4219 C 0.62381 0.62473 0.71218 0.0
C4220 C 0.62533 0.62164 0.69446 0.0
C4221 C 0.63774 0.63021 0.68549 0.0
C4222 C 0.61064 0.61565 0.72167 0.0
C4223 C 0.59838 0.61365 0.71455 0.0
C4224 C 0.61022 0.60948 0.73798 0.0
C4225 C 0.6227 0.61062 0.74573 0.0
C4226 C 0.63051 0.60635 0.73585 0.0
C4227 C 0.64232 0.60755 0.74319 0.0
C4228 C 0.64638 0.61292 0.76044 0.0
C4229 C 0.63861 0.61706 0.77042 0.0
C4230 C 0.62679 0.61589 0.76314 0.0
C4231 C 0.54926 0.56879 0.74897 0.0
C4232 C 0.54745 0.57139 0.76681 0.0
C4233 C 0.56148 0.57804 0.74009 0.0
C4234 C 0.57209 0.59008 0.74887 0.0
C4235 C 0.57027 0.59279 0.76664 0.0
C4236 C 0.55802 0.58356 0.77552 0.0
C4237 C 0.58528 0.59953 0.73966 0.0
C4238 C 0.59755 0.6016 0.74683 0.0
C4239 C 0.58571 0.60575 0.7234 0.0
C4240 C 0.57319 0.60455 0.71564 0.0
C4241 C 0.56521 0.60853 0.72564 0.0
C4242 C 0.5534 0.60731 0.71829 0.0
C4243 C 0.54951 0.60221 0.70091 0.0
C4244 C 0.55745 0.59835 0.69082 0.0
C4245 C 0.56927 0.59953 0.69812 0.0
H4246 H 0.54037 0.60128 0.69524 0.0
H4247 H 0.65552 0.61384 0.7661 0.0
H4248 H 0.68434 0.71251 0.66751 0.0
H4249 H 0.67733 0.72763 0.65446 0.0
H4250 H 0.65972 0.69868 0.60979 0.0
H4251 H 0.66679 0.68358 0.62263 0.0
H4252 H 0.67466 0.72578 0.59951 0.0
H4253 H 0.63905 0.69893 0.64195 0.0
H4254 H 0.62973 0.68945 0.67142 0.0
H4255 H 0.64729 0.73146 0.69292 0.0
H4256 H 0.65689 0.74122 0.66361 0.0
H4257 H 0.63724 0.754 0.56368 0.0
H4258 H 0.64268 0.73769 0.57681 0.0
H4259 H 0.65901 0.76497 0.62318 0.0
H4260 H 0.65307 0.78099 0.61049 0.0
H4261 H 0.64434 0.73824 0.63244 0.0
H4262 H 0.67969 0.76507 0.58955 0.0
H4263 H 0.68918 0.77435 0.56007 0.0
H4264 H 0.67262 0.73224 0.53943 0.0
H4265 H 0.66262 0.72268 0.56861 0.0
C4266 C 0.67903 0.70939 0.65488 0.0
C4267 C 0.67608 0.69682 0.64614 0.0
C4268 C 0.67497 0.718 0.64749 0.0
C4269 C 0.66786 0.71417 0.63127 0.0
C4270 C 0.66516 0.70179 0.62235 0.0
C4271 C 0.66919 0.69317 0.62973 0.0
C4272 C 0.66323 0.72307 0.62356 0.0
C4273 C 0.66787 0.72836 0.60659 0.0
C4274 C 0.65461 0.72664 0.633 0.0
C4275 C 0.6488 0.72081 0.65062 0.0
C4276 C 0.64102 0.70615 0.65299 0.0
C4277 C 0.63567 0.70073 0.66966 0.0
C4278 C 0.63794 0.70985 0.68404 0.0
C4279 C 0.64555 0.72441 0.68177 0.0
C4280 C 0.65094 0.7299 0.66513 0.0
C4281 C 0.64177 0.7564 0.5768 0.0
C4282 C 0.64482 0.76885 0.58598 0.0
C4283 C 0.64502 0.74715 0.5842 0.0
C4284 C 0.65148 0.75024 0.60084 0.0
C4285 C 0.65411 0.76242 0.61027 0.0
C4286 C 0.65082 0.77163 0.60293 0.0
C4287 C 0.65578 0.74099 0.60834 0.0
C4288 C 0.65109 0.73564 0.62531 0.0
C4289 C 0.66437 0.73736 0.59888 0.0
C4290 C 0.67024 0.74314 0.58124 0.0
C4291 C 0.6779 0.75777 0.57867 0.0
C4292 C 0.68337 0.76309 0.56199 0.0
C4293 C 0.68142 0.75389 0.54784 0.0
C4294 C 0.67402 0.73936 0.55034 0.0
C4295 C 0.66843 0.73398 0.56694 0.0
H4296 H 0.68569 0.75802 0.53495 0.0
H4297 H 0.63379 0.70563 0.69694 0.0
H4298 H 0.31734 0.98566 0.66178 0.0
H4299 H 0.30057 0.96218 0.65001 0.0
H4300 H 0.27751 0.97839 0.62648 0.0
H4301 H 0.29417 0.00195 0.63842 0.0
H4302 H 0.26063 0.95375 0.64278 0.0
H4303 H 0.29811 0.97142 0.60119 0.0
H4304 H 0.32239 0.98197 0.59181 0.0
H4305 H 0.3232 0.94714 0.61313 0.0
H4306 H 0.29896 0.93647 0.62286 0.0
H4307 H 0.21938 0.89632 0.58401 0.0
H4308 H 0.23594 0.91951 0.59676 0.0
H4309 H 0.2585 0.90266 0.62008 0.0
H4310 H 0.24188 0.87933 0.60744 0.0
H4311 H 0.27563 0.92748 0.60424 0.0
H4312 H 0.23803 0.90966 0.64551 0.0
H4313 H 0.21373 0.8991 0.65481 0.0
H4314 H 0.21314 0.93421 0.63405 0.0
H4315 H 0.23738 0.94488 0.62439 0.0
C4316 C 0.3087 0.98426 0.6541 0.0
C4317 C 0.30711 0.99569 0.65097 0.0
C4318 C 0.29915 0.97083 0.64733 0.0
C4319 C 0.28789 0.96858 0.63719 0.0
C4320 C 0.28615 0.97992 0.63425 0.0
C4321 C 0.2957 0.99337 0.64104 0.0
C4322 C 0.2779 0.95438 0.62971 0.0
C4323 C 0.26387 0.94808 0.63416 0.0
C4324 C 0.28221 0.94685 0.61882 0.0
C4325 C 0.29676 0.95322 0.61291 0.0
C4326 C 0.3035 0.96606 0.604 0.0
C4327 C 0.31725 0.97206 0.5986 0.0
C4328 C 0.32434 0.96525 0.60191 0.0
C4329 C 0.31769 0.95241 0.61059 0.0
C4330 C 0.30394 0.94638 0.61604 0.0
C4331 C 0.22776 0.89749 0.59204 0.0
C4332 C 0.22926 0.88595 0.59483 0.0
C4333 C 0.23724 0.91077 0.59927 0.0
C4334 C 0.24835 0.91276 0.60954 0.0
C4335 C 0.24998 0.90132 0.6122 0.0
C4336 C 0.2405 0.88802 0.60494 0.0
C4337 C 0.25836 0.92686 0.61729 0.0
C4338 C 0.27239 0.93314 0.61288 0.0
C4339 C 0.25405 0.93437 0.62821 0.0
C4340 C 0.23949 0.928 0.63408 0.0
C4341 C 0.23268 0.91507 0.6428 0.0
C4342 C 0.21892 0.90908 0.64816 0.0
C4343 C 0.21188 0.91596 0.64499 0.0
C4344 C 0.2186 0.92888 0.63648 0.0
C4345 C 0.23235 0.93491 0.63108 0.0
H4346 H 0.20123 0.91131 0.64915 0.0
H4347 H 0.33499 0.96991 0.59772 0.0
H4348 H 0.02735 0.31329 0.65831 0.0
H4349 H 0.05006 0.32092 0.64559 0.0
H4350 H 0.0543 0.35999 0.63037 0.0
H4351 H 0.03148 0.3523 0.64267 0.0
H4352 H 0.06195 0.34964 0.60411 0.0
H4353 H 0.07216 0.35847 0.66597 0.0
H4354 H 0.06956 0.35293 0.6977 0.0
H4355 H 0.07886 0.32078 0.68723 0.0
H4356 H 0.08134 0.32599 0.65538 0.0
H4357 H 0.13355 0.38329 0.58278 0.0
H4358 H 0.11232 0.37796 0.59839 0.0
H4359 H 0.10336 0.33613 0.60856 0.0
H4360 H 0.12457 0.34141 0.59308 0.0
H4361 H 0.0988 0.34917 0.63797 0.0
H4362 H 0.0876 0.34012 0.57568 0.0
H4363 H 0.09074 0.34638 0.54417 0.0
H4364 H 0.08377 0.38 0.55605 0.0
H4365 H 0.0808 0.37407 0.5877 0.0
C4366 C 0.03313 0.32352 0.6523 0.0
C4367 C 0.02762 0.33219 0.65152 0.0
C4368 C 0.04615 0.32791 0.64511 0.0
C4369 C 0.05396 0.34111 0.63722 0.0
C4370 C 0.04846 0.34977 0.6364 0.0
C4371 C 0.03542 0.34536 0.64348 0.0
C4372 C 0.06773 0.34576 0.62941 0.0
C4373 C 0.07008 0.34975 0.61162 0.0
C4374 C 0.07827 0.34569 0.63911 0.0
C4375 C 0.07681 0.34254 0.65826 0.0
C4376 C 0.07355 0.35014 0.67041 0.0
C4377 C 0.07211 0.34708 0.68842 0.0
C4378 C 0.07401 0.33649 0.69447 0.0
C4379 C 0.07738 0.32897 0.68252 0.0
C4380 C 0.07881 0.33198 0.66449 0.0
C4381 C 0.12713 0.37303 0.58855 0.0
C4382 C 0.13063 0.36272 0.58665 0.0
C4383 C 0.11499 0.36998 0.59736 0.0
C4384 C 0.10625 0.35662 0.60448 0.0
C4385 C 0.10998 0.34649 0.60313 0.0
C4386 C 0.12202 0.34948 0.59419 0.0
C4387 C 0.09292 0.35296 0.61275 0.0
C4388 C 0.09067 0.34914 0.63057 0.0
C4389 C 0.08251 0.35328 0.60314 0.0
C4390 C 0.08413 0.35675 0.58408 0.0
C4391 C 0.08685 0.34892 0.5716 0.0
C4392 C 0.08858 0.3524 0.55371 0.0
C4393 C 0.0875 0.36361 0.54812 0.0
C4394 C 0.08463 0.37134 0.56041 0.0
C4395 C 0.08292 0.36792 0.57832 0.0
H4396 H 0.08885 0.36629 0.53427 0.0
H4397 H 0.0729 0.33413 0.70842 0.0
H4398 H 0.32296 0.35469 0.64612 0.0
H4399 H 0.30691 0.36044 0.63352 0.0
H4400 H 0.27257 0.31921 0.64639 0.0
H4401 H 0.28859 0.31332 0.65905 0.0
H4402 H 0.27157 0.32663 0.61206 0.0
H4403 H 0.27795 0.34695 0.67061 0.0
H4404 H 0.2914 0.36167 0.69635 0.0
H4405 H 0.30953 0.39857 0.66458 0.0
H4406 H 0.29633 0.38403 0.63857 0.0
H4407 H 0.21911 0.33984 0.59188 0.0
H4408 H 0.23397 0.33412 0.60794 0.0
H4409 H 0.26892 0.37607 0.59963 0.0
H4410 H 0.25401 0.38191 0.5837 0.0
H4411 H 0.26916 0.36792 0.63251 0.0
H4412 H 0.26402 0.34813 0.57391 0.0
H4413 H 0.25122 0.33384 0.54757 0.0
H4414 H 0.23165 0.29651 0.5786 0.0
H4415 H 0.2442 0.31062 0.6052 0.0
C4416 C 0.31199 0.34684 0.64633 0.0
C4417 C 0.30704 0.33354 0.65359 0.0
C4418 C 0.30284 0.35018 0.6392 0.0
C4419 C 0.28856 0.3403 0.63918 0.0
C4420 C 0.28356 0.32699 0.64634 0.0
C4421 C 0.29272 0.32366 0.65359 0.0
C4422 C 0.27892 0.34375 0.63118 0.0
C4423 C 0.27086 0.33551 0.61671 0.0
C4424 C 0.27833 0.35559 0.63696 0.0
C4425 C 0.28624 0.36437 0.6526 0.0
C4426 C 0.28489 0.35818 0.66907 0.0
C4427 C 0.29245 0.3665 0.68372 0.0
C4428 C 0.30134 0.38104 0.68209 0.0
C4429 C 0.30265 0.3873 0.66582 0.0
C4430 C 0.29512 0.37903 0.65112 0.0
C4431 C 0.22997 0.34784 0.59346 0.0
C4432 C 0.23545 0.36128 0.5864 0.0
C4433 C 0.23844 0.34456 0.60264 0.0
C4434 C 0.2526 0.35459 0.60471 0.0
C4435 C 0.25802 0.36816 0.59814 0.0
C4436 C 0.24951 0.37149 0.58907 0.0
C4437 C 0.26179 0.3508 0.61337 0.0
C4438 C 0.26981 0.35899 0.62792 0.0
C4439 C 0.26244 0.33898 0.60757 0.0
C4440 C 0.25494 0.33046 0.59158 0.0
C4441 C 0.25691 0.33689 0.57514 0.0
C4442 C 0.24972 0.32882 0.56016 0.0
C4443 C 0.2406 0.31429 0.56142 0.0
C4444 C 0.2387 0.30778 0.57765 0.0
C4445 C 0.24586 0.3158 0.59268 0.0
H4446 H 0.23504 0.30806 0.54981 0.0
H4447 H 0.30718 0.38746 0.69345 0.0
H4448 H 0.66501 0.98144 0.66511 0.0
H4449 H 0.65747 0.95757 0.65459 0.0
H4450 H 0.69195 0.9742 0.6184 0.0
H4451 H 0.69958 0.99818 0.62881 0.0
H4452 H 0.66706 0.95408 0.60269 0.0
H4453 H 0.69312 0.95942 0.65534 0.0
H4454 H 0.69917 0.96474 0.687 0.0
H4455 H 0.65835 0.93148 0.70128 0.0
H4456 H 0.65199 0.92608 0.66968 0.0
H4457 H 0.66982 0.89412 0.5806 0.0
H4458 H 0.67589 0.91678 0.59429 0.0
H4459 H 0.63728 0.8966 0.62288 0.0
H4460 H 0.63106 0.87379 0.60904 0.0
H4461 H 0.66275 0.91767 0.64321 0.0
H4462 H 0.63623 0.9123 0.59187 0.0
H4463 H 0.62971 0.90553 0.56056 0.0
H4464 H 0.6703 0.93807 0.54435 0.0
H4465 H 0.67715 0.9449 0.57567 0.0
C4466 C 0.67102 0.98004 0.65493 0.0
C4467 C 0.68292 0.99171 0.64781 0.0
C4468 C 0.66671 0.96639 0.64898 0.0
C4469 C 0.67422 0.96414 0.63582 0.0
C4470 C 0.68604 0.97575 0.62859 0.0
C4471 C 0.6904 0.98942 0.6346 0.0
C4472 C 0.66966 0.94968 0.6295 0.0
C4473 C 0.66626 0.94619 0.61153 0.0
C4474 C 0.66821 0.93925 0.64115 0.0
C4475 C 0.67203 0.94245 0.66015 0.0
C4476 C 0.68539 0.95332 0.66523 0.0
C4477 C 0.68889 0.95633 0.68317 0.0
C4478 C 0.67914 0.94848 0.69615 0.0
C4479 C 0.66588 0.93757 0.69121 0.0
C4480 C 0.66233 0.93452 0.67329 0.0
C4481 C 0.6627 0.89448 0.58998 0.0
C4482 C 0.64998 0.88225 0.59379 0.0
C4483 C 0.66616 0.9074 0.59774 0.0
C4484 C 0.65702 0.90829 0.60956 0.0
C4485 C 0.64447 0.89605 0.61383 0.0
C4486 C 0.6409 0.88311 0.60584 0.0
C4487 C 0.66034 0.92223 0.61648 0.0
C4488 C 0.66348 0.92559 0.63448 0.0
C4489 C 0.66143 0.93251 0.60494 0.0
C4490 C 0.65723 0.92901 0.58609 0.0
C4491 C 0.64378 0.91798 0.58163 0.0
C4492 C 0.64003 0.91413 0.5639 0.0
C4493 C 0.64961 0.92132 0.5505 0.0
C4494 C 0.66291 0.9325 0.55478 0.0
C4495 C 0.66673 0.93638 0.57252 0.0
H4496 H 0.64669 0.91817 0.53682 0.0
H4497 H 0.68186 0.95083 0.71003 0.0
H4498 H 0.02334 0.70615 0.68564 0.0
H4499 H 0.0457 0.72277 0.67223 0.0
H4500 H 0.03099 0.70124 0.62165 0.0
H4501 H 0.00863 0.68462 0.63489 0.0
H4502 H 0.05712 0.70667 0.63057 0.0
H4503 H 0.033 0.73148 0.62838 0.0
H4504 H 0.01995 0.74169 0.64097 0.0
H4505 H 0.0539 0.76859 0.67569 0.0
H4506 H 0.06708 0.75839 0.66347 0.0
H4507 H 0.10912 0.75628 0.57395 0.0
H4508 H 0.08734 0.73982 0.5886 0.0
H4509 H 0.10141 0.76581 0.63627 0.0
H4510 H 0.1231 0.78245 0.6215 0.0
H4511 H 0.07584 0.75807 0.62986 0.0
H4512 H 0.10031 0.73406 0.63232 0.0
H4513 H 0.11359 0.72384 0.62064 0.0
H4514 H 0.07956 0.69543 0.5869 0.0
H4515 H 0.06614 0.70561 0.5982 0.0
C4516 C 0.02485 0.70498 0.67166 0.0
C4517 C 0.01421 0.69409 0.66132 0.0
C4518 C 0.03761 0.71449 0.66402 0.0
C4519 C 0.03994 0.71325 0.64595 0.0
C4520 C 0.02937 0.70236 0.63563 0.0
C4521 C 0.01659 0.69292 0.6432 0.0
C4522 C 0.05345 0.72323 0.63779 0.0
C4523 C 0.06117 0.7179 0.63022 0.0
C4524 C 0.05885 0.73789 0.63782 0.0
C4525 C 0.05096 0.74407 0.64514 0.0
C4526 C 0.03763 0.73949 0.63881 0.0
C4527 C 0.03023 0.74529 0.64585 0.0
C4528 C 0.03608 0.75576 0.65916 0.0
C4529 C 0.04937 0.76047 0.6654 0.0
C4530 C 0.05682 0.75469 0.65841 0.0
C4531 C 0.1076 0.75839 0.58761 0.0
C4532 C 0.1178 0.7706 0.59662 0.0
C4533 C 0.09517 0.74898 0.59598 0.0
C4534 C 0.0928 0.75148 0.61363 0.0
C4535 C 0.103 0.76367 0.62265 0.0
C4536 C 0.11537 0.77316 0.61422 0.0
C4537 C 0.07956 0.74155 0.62253 0.0
C4538 C 0.07186 0.74687 0.63025 0.0
C4539 C 0.07424 0.72688 0.62278 0.0
C4540 C 0.08226 0.7207 0.61599 0.0
C4541 C 0.09569 0.72571 0.62231 0.0
C4542 C 0.10324 0.71991 0.61578 0.0
C4543 C 0.09744 0.70901 0.60301 0.0
C4544 C 0.08405 0.70388 0.59678 0.0
C4545 C 0.07646 0.70965 0.60325 0.0
H4546 H 0.1033 0.70454 0.59797 0.0
H4547 H 0.03033 0.76024 0.6646 0.0
H4548 H 0.96574 0.62176 0.69609 0.0
H4549 H 0.96878 0.60483 0.71199 0.0
H4550 H 0.00982 0.62286 0.69018 0.0
H4551 H 0.00674 0.63964 0.67389 0.0
H4552 H 0.99687 0.59487 0.6901 0.0
H4553 H 0.00472 0.6311 0.7326 0.0
H4554 H 0.99919 0.6468 0.74936 0.0
H4555 H 0.96305 0.61089 0.77092 0.0
H4556 H 0.96827 0.59496 0.75409 0.0
H4557 H 0.02164 0.56604 0.75162 0.0
H4558 H 0.01846 0.58244 0.7345 0.0
H4559 H 0.97671 0.56345 0.75411 0.0
H4560 H 0.97992 0.54726 0.77161 0.0
H4561 H 0.99023 0.59199 0.75528 0.0
H4562 H 0.98269 0.55579 0.71267 0.0
H4563 H 0.98857 0.54032 0.69602 0.0
H4564 H 0.02466 0.57652 0.67489 0.0
H4565 H 0.0191 0.59222 0.69161 0.0
C4566 C 0.97538 0.62208 0.69458 0.0
C4567 C 0.98604 0.63212 0.68382 0.0
C4568 C 0.97713 0.61243 0.70375 0.0
C4569 C 0.98963 0.61275 0.70253 0.0
C4570 C 0.00011 0.62246 0.69137 0.0
C4571 C 0.99834 0.63206 0.68209 0.0
C4572 C 0.99185 0.60312 0.71314 0.0
C4573 C 0.99559 0.59437 0.70437 0.0
C4574 C 0.98994 0.60229 0.73175 0.0
C4575 C 0.98682 0.61184 0.74195 0.0
C4576 C 0.99554 0.62655 0.74082 0.0
C4577 C 0.99247 0.63549 0.75034 0.0
C4578 C 0.98076 0.62984 0.76116 0.0
C4579 C 0.97211 0.61524 0.76251 0.0
C4580 C 0.97513 0.60626 0.753 0.0
C4581 C 0.01183 0.56545 0.75241 0.0
C4582 C 0.00101 0.55533 0.76292 0.0
C4583 C 0.00999 0.57473 0.7425 0.0
C4584 C 0.99729 0.57403 0.74288 0.0
C4585 C 0.98656 0.56411 0.75357 0.0
C4586 C 0.98838 0.55481 0.76345 0.0
C4587 C 0.99521 0.58372 0.73222 0.0
C4588 C 0.9915 0.59249 0.741 0.0
C4589 C 0.99721 0.58461 0.71365 0.0
C4590 C 0.00055 0.57518 0.70353 0.0
C4591 C 0.99194 0.56046 0.70458 0.0
C4592 C 0.9952 0.55164 0.69512 0.0
C4593 C 0.007 0.55743 0.68444 0.0
C4594 C 0.01554 0.57205 0.68318 0.0
C4595 C 0.01233 0.58091 0.69264 0.0
H4596 H 0.00951 0.55059 0.67712 0.0
H4597 H 0.9784 0.63678 0.76853 0.0
H4598 H 0.37839 0.36279 0.67147 0.0
H4599 H 0.39418 0.3853 0.68652 0.0
H4600 H 0.36705 0.3724 0.73187 0.0
H4601 H 0.35111 0.35002 0.71682 0.0
H4602 H 0.37519 0.39864 0.72336 0.0
H4603 H 0.39731 0.3726 0.73237 0.0
H4604 H 0.40743 0.35851 0.72338 0.0
H4605 H 0.43762 0.39245 0.69171 0.0
H4606 H 0.42756 0.40668 0.70034 0.0
H4607 H 0.42172 0.45035 0.78604 0.0
H4608 H 0.4057 0.42852 0.7698 0.0
H4609 H 0.43296 0.4428 0.72457 0.0
H4610 H 0.44897 0.46467 0.74068 0.0
H4611 H 0.42487 0.41615 0.73248 0.0
H4612 H 0.40295 0.44239 0.72411 0.0
H4613 H 0.39287 0.45645 0.73343 0.0
H4614 H 0.36232 0.42209 0.76424 0.0
H4615 H 0.37233 0.40788 0.75529 0.0
C4616 C 0.37582 0.36471 0.68468 0.0
C4617 C 0.3635 0.35461 0.69295 0.0
C4618 C 0.38487 0.37757 0.69328 0.0
C4619 C 0.38184 0.38048 0.71038 0.0
C4620 C 0.36958 0.37039 0.71868 0.0
C4621 C 0.3605 0.35757 0.71007 0.0
C4622 C 0.39131 0.39414 0.71955 0.0
C4623 C 0.38602 0.40239 0.72555 0.0
C4624 C 0.40551 0.39918 0.72203 0.0
C4625 C 0.41159 0.39065 0.71685 0.0
C4626 C 0.40603 0.37702 0.72338 0.0
C4627 C 0.41177 0.36901 0.71837 0.0
C4628 C 0.42313 0.37457 0.70694 0.0
C4629 C 0.4288 0.38816 0.70054 0.0
C4630 C 0.4231 0.3962 0.7055 0.0
C4631 C 0.42419 0.44893 0.77254 0.0
C4632 C 0.43662 0.45922 0.76465 0.0
C4633 C 0.41504 0.43645 0.76329 0.0
C4634 C 0.41812 0.43408 0.74595 0.0
C4635 C 0.43042 0.4444 0.73796 0.0
C4636 C 0.43957 0.45687 0.7472 0.0
C4637 C 0.40873 0.42063 0.73633 0.0
C4638 C 0.41405 0.41241 0.73024 0.0
C4639 C 0.39455 0.41562 0.73381 0.0
C4640 C 0.38848 0.42412 0.73916 0.0
C4641 C 0.39415 0.43787 0.73299 0.0
C4642 C 0.38844 0.44586 0.73818 0.0
C4643 C 0.37698 0.44018 0.74946 0.0
C4644 C 0.3712 0.42648 0.75552 0.0
C4645 C 0.37688 0.41845 0.75038 0.0
H4646 H 0.37257 0.44638 0.75346 0.0
H4647 H 0.42756 0.36836 0.70308 0.0
H4648 H 0.63398 0.98981 0.69994 0.0
H4649 H 0.61332 0.98746 0.71369 0.0
H4650 H 0.63044 0.03204 0.70855 0.0
H4651 H 0.65121 0.03453 0.69475 0.0
H4652 H 0.62034 0.02255 0.74213 0.0
H4653 H 0.60477 0.00981 0.68208 0.0
H4654 H 0.60054 0.99683 0.6536 0.0
H4655 H 0.57396 0.95773 0.67952 0.0
H4656 H 0.57818 0.97046 0.70821 0.0
H4657 H 0.55924 0.02024 0.76915 0.0
H4658 H 0.57923 0.02396 0.75193 0.0
H4659 H 0.563 0.97925 0.75139 0.0
H4660 H 0.54292 0.97545 0.7685 0.0
H4661 H 0.57276 0.98983 0.71957 0.0
H4662 H 0.58917 0.0019 0.77955 0.0
H4663 H 0.59352 0.01437 0.80845 0.0
H4664 H 0.61872 0.05408 0.7832 0.0
H4665 H 0.61435 0.04185 0.7541 0.0
C4666 C 0.63334 0.99912 0.70163 0.0
C4667 C 0.64424 0.01236 0.69628 0.0
C4668 C 0.62149 0.99773 0.70942 0.0
C4669 C 0.62034 0.00956 0.71201 0.0
C4670 C 0.63115 0.02279 0.70661 0.0
C4671 C 0.64298 0.02418 0.69869 0.0
C4672 C 0.60804 0.00815 0.72101 0.0
C4673 C 0.60995 0.01559 0.73705 0.0
C4674 C 0.59449 0.99878 0.71458 0.0
C4675 C 0.59189 0.99109 0.69733 0.0
C4676 C 0.59811 0.99844 0.68174 0.0
C4677 C 0.5957 0.99112 0.66555 0.0
C4678 C 0.58702 0.97647 0.66476 0.0
C4679 C 0.5807 0.96909 0.68015 0.0
C4680 C 0.58308 0.97635 0.69638 0.0
C4681 C 0.55998 0.01122 0.76544 0.0
C4682 C 0.54958 0.99756 0.77025 0.0
C4683 C 0.57139 0.01335 0.75559 0.0
C4684 C 0.57269 0.0019 0.75058 0.0
C4685 C 0.5622 0.98823 0.75511 0.0
C4686 C 0.55074 0.98608 0.76486 0.0
C4687 C 0.58505 0.00416 0.74077 0.0
C4688 C 0.58316 0.99687 0.72459 0.0
C4689 C 0.59863 0.01359 0.74714 0.0
C4690 C 0.60131 0.02097 0.76463 0.0
C4691 C 0.59554 0.0133 0.78014 0.0
C4692 C 0.59803 0.02032 0.79656 0.0
C4693 C 0.60636 0.03501 0.79765 0.0
C4694 C 0.61225 0.0427 0.78233 0.0
C4695 C 0.60978 0.03573 0.76587 0.0
H4696 H 0.60827 0.04043 0.81038 0.0
H4697 H 0.58516 0.97082 0.65221 0.0
loop_
_geom_bond_atom_site_label_1
_geom_bond_atom_site_label_2
_geom_bond_distance
_geom_bond_site_symmetry_2
_ccdc_geom_bond_type
C0 O1 1.160 . S
C0 O7 1.185 . S
O1 C0 1.160 . S
O2 Zn3 1.899 1_656 S
O2 C10 1.271 1_556 S
Zn3 O2 1.899 1_454 S
Zn3 O4 2.032 . S
Zn3 O7 2.086 . S
Zn3 O12 1.977 1_554 S
O4 Zn3 2.032 . S
O4 C8 1.278 1_455 S
C5 O6 1.203 1_455 S
C5 O12 1.267 . S
O6 C5 1.203 1_655 S
O7 C0 1.185 . S
O7 Zn3 2.086 . S
C8 O4 1.278 1_655 S
C8 O9 1.211 . S
O9 C8 1.211 . S
C10 O2 1.271 1_554 S
C10 O11 1.304 . S
O11 C10 1.304 . S
O12 Zn3 1.977 1_556 S
O12 C5 1.267 . S
C13 O14 1.160 . S
C13 O20 1.185 1_556 S
O14 C13 1.160 . S
O15 Zn16 1.899 . S
O15 C23 1.284 . S
Zn16 O15 1.899 . S
Zn16 O17 2.032 1_554 S
Zn16 O20 2.086 . S
Zn16 O25 1.977 . S
O17 Zn16 2.032 1_556 S
O17 C21 1.278 . S
C18 O19 1.203 . S
C18 O25 1.267 . S
O19 C18 1.203 . S
O20 C13 1.185 1_554 S
O20 Zn16 2.086 . S
C21 O17 1.278 . S
C21 O22 1.207 . S
O22 C21 1.207 . S
C23 O15 1.284 . S
C23 O24 1.273 . S
O24 C23 1.273 . S
O25 Zn16 1.977 . S
O25 C18 1.267 . S
C26 O27 1.160 1_554 S
C26 O33 1.185 . S
O27 C26 1.160 1_556 S
O28 Zn29 1.897 1_565 S
O28 C36 1.298 . S
Zn29 O28 1.897 1_545 S
Zn29 O30 2.032 1_554 S
Zn29 O33 2.086 . S
Zn29 O38 1.977 . S
O30 Zn29 2.032 1_556 S
O30 C34 1.278 . S
C31 O32 1.133 1_545 S
C31 O38 1.267 . S
O32 C31 1.133 1_565 S
O33 C26 1.185 . S
O33 Zn29 2.086 . S
C34 O30 1.278 . S
C34 O35 1.227 1_545 S
O35 C34 1.227 1_565 S
C36 O28 1.298 . S
C36 O37 1.273 . S
O37 C36 1.273 . S
O38 Zn29 1.977 . S
O38 C31 1.267 . S
C39 O40 1.160 . S
C39 O46 1.185 1_556 S
O40 C39 1.160 . S
O41 Zn42 1.899 1_455 S
O41 C49 1.284 . S
Zn42 O41 1.899 1_655 S
Zn42 O43 2.033 1_654 S
Zn42 O46 2.086 . S
Zn42 O51 1.977 . S
O43 Zn42 2.033 1_456 S
O43 C47 1.275 . S
C44 O45 1.203 1_655 S
C44 O51 1.267 . S
O45 C44 1.203 1_455 S
O46 C39 1.185 1_554 S
O46 Zn42 2.086 . S
C47 O43 1.275 . S
C47 O48 1.211 . S
O48 C47 1.211 . S
C49 O41 1.284 . S
C49 O50 1.273 . S
O50 C49 1.273 . S
O51 Zn42 1.977 . S
O51 C44 1.267 . S
C52 O53 1.160 . S
C52 O59 1.185 . S
O53 C52 1.160 . S
O54 Zn55 1.899 1_556 S
O54 C62 1.284 . S
Zn55 O54 1.899 1_554 S
Zn55 O56 2.032 . S
Zn55 O59 2.086 . S
Zn55 O64 1.977 1_554 S
O56 Zn55 2.032 . S
O56 C60 1.278 . S
C57 O58 1.203 . S
C57 O64 1.267 . S
O58 C57 1.203 . S
O59 C52 1.185 . S
O59 Zn55 2.086 . S
C60 O56 1.278 . S
C60 O61 1.211 . S
O61 C60 1.211 . S
C62 O54 1.284 . S
C62 O63 1.273 1_556 S
O63 C62 1.273 1_554 S
O64 Zn55 1.977 1_556 S
O64 C57 1.267 . S
C65 O66 1.160 . S
C65 O72 1.185 . S
O66 C65 1.160 . S
O67 Zn68 1.899 1_546 S
O67 C75 1.285 . S
Zn68 O67 1.899 1_564 S
Zn68 O69 2.022 1_565 S
Zn68 O72 2.086 . S
Zn68 O77 1.977 1_554 S
O69 Zn68 2.022 1_545 S
O69 C73 1.305 . S
C70 O71 1.203 1_565 S
C70 O77 1.267 . S
O71 C70 1.203 1_545 S
O72 C65 1.185 . S
O72 Zn68 2.086 . S
C73 O69 1.305 . S
C73 O74 1.211 . S
O74 C73 1.211 . S
C75 O67 1.285 . S
C75 O76 1.271 1_556 S
O76 C75 1.271 1_554 S
O77 Zn68 1.977 1_556 S
O77 C70 1.267 . S
C78 O79 1.160 . S
C78 O85 1.185 . S
O79 C78 1.160 . S
O80 Zn81 1.899 . S
O80 C88 1.284 . S
Zn81 O80 1.899 . S
Zn81 O82 2.032 . S
Zn81 O85 2.086 . S
Zn81 O90 1.977 . S
O82 Zn81 2.032 . S
O82 C86 1.278 . S
C83 O84 1.203 . S
C83 O90 1.267 . S
O84 C83 1.203 . S
O85 C78 1.185 . S
O85 Zn81 2.086 . S
C86 O82 1.278 . S
C86 O87 1.211 . S
O87 C86 1.211 . S
C88 O80 1.284 . S
C88 O89 1.273 . S
O89 C88 1.273 . S
O90 Zn81 1.977 . S
O90 C83 1.267 . S
C91 O92 1.157 1_565 S
C91 O98 1.185 . S
O92 C91 1.157 1_545 S
O93 Zn94 1.899 1_545 S
O93 C101 1.284 . S
Zn94 O93 1.899 1_565 S
Zn94 O95 2.032 . S
Zn94 O98 2.086 . S
Zn94 O103 1.977 . S
O95 Zn94 2.032 . S
O95 C99 1.278 . S
C96 O97 1.203 . S
C96 O103 1.267 . S
O97 C96 1.203 . S
O98 C91 1.185 . S
O98 Zn94 2.086 . S
C99 O95 1.278 . S
C99 O100 1.211 . S
O100 C99 1.211 . S
C101 O93 1.284 . S
C101 O102 1.273 . S
O102 C101 1.273 . S
O103 Zn94 1.977 . S
O103 C96 1.267 . S
C104 O105 1.160 . S
C104 O111 1.185 . S
O105 C104 1.160 . S
O106 Zn107 1.899 . S
O106 C114 1.281 . S
Zn107 O106 1.899 . S
Zn107 O108 2.032 . S
Zn107 O111 2.086 . S
Zn107 O116 1.977 . S
O108 Zn107 2.032 . S
O108 C112 1.278 . S
C109 O110 1.203 . S
C109 O116 1.267 . S
O110 C109 1.203 . S
O111 C104 1.185 . S
O111 Zn107 2.086 . S
C112 O108 1.278 . S
C112 O113 1.211 . S
O113 C112 1.211 . S
C114 O106 1.281 . S
C114 O115 1.322 . S
O115 C114 1.322 . S
O116 Zn107 1.977 . S
O116 C109 1.267 . S
C117 O118 1.180 . S
C117 O124 1.185 . S
O118 C117 1.180 . S
O119 Zn120 1.899 1_545 S
O119 C127 1.284 . S
Zn120 O119 1.899 1_565 S
Zn120 O121 2.032 . S
Zn120 O124 2.086 . S
Zn120 O129 1.977 . S
O121 Zn120 2.032 . S
O121 C125 1.278 . S
C122 O123 1.203 . S
C122 O129 1.267 . S
O123 C122 1.203 . S
O124 C117 1.185 . S
O124 Zn120 2.086 . S
C125 O121 1.278 . S
C125 O126 1.211 . S
O126 C125 1.211 . S
C127 O119 1.284 . S
C127 O128 1.273 . S
O128 C127 1.273 . S
O129 Zn120 1.977 . S
O129 C122 1.267 . S
C130 O131 1.160 . S
C130 O137 1.185 . S
O131 C130 1.160 . S
O132 Zn133 1.899 . S
O132 C140 1.284 . S
Zn133 O132 1.899 . S
Zn133 O134 2.032 . S
Zn133 O137 2.086 1_455 S
Zn133 O142 1.977 . S
O134 Zn133 2.032 . S
O134 C138 1.278 . S
C135 O136 1.203 . S
C135 O142 1.267 . S
O136 C135 1.203 . S
O137 C130 1.185 . S
O137 Zn133 2.086 1_655 S
C138 O134 1.278 . S
C138 O139 1.211 . S
O139 C138 1.211 . S
C140 O132 1.284 . S
C140 O141 1.273 . S
O141 C140 1.273 . S
O142 Zn133 1.977 . S
O142 C135 1.267 . S
C143 O144 1.160 . S
C143 O150 1.185 . S
O144 C143 1.160 . S
O145 Zn146 1.899 . S
O145 C153 1.284 . S
Zn146 O145 1.899 . S
Zn146 O147 2.032 . S
Zn146 O150 2.086 . S
Zn146 O155 1.977 . S
O147 Zn146 2.032 . S
O147 C151 1.278 . S
C148 O149 1.203 . S
C148 O155 1.267 . S
O149 C148 1.203 . S
O150 C143 1.185 . S
O150 Zn146 2.086 . S
C151 O147 1.278 . S
C151 O152 1.211 . S
O152 C151 1.211 . S
C153 O145 1.284 . S
C153 O154 1.273 . S
O154 C153 1.273 . S
O155 Zn146 1.977 . S
O155 C148 1.267 . S
C156 O157 1.160 . S
C156 O163 1.185 . S
O157 C156 1.160 . S
O158 Zn159 1.899 . S
O158 C166 1.284 1_545 S
Zn159 O158 1.899 . S
Zn159 O160 2.032 . S
Zn159 O163 2.086 . S
Zn159 O168 1.977 . S
O160 Zn159 2.032 . S
O160 C164 1.278 . S
C161 O162 1.203 . S
C161 O168 1.267 . S
O162 C161 1.203 . S
O163 C156 1.185 . S
O163 Zn159 2.086 . S
C164 O160 1.278 . S
C164 O165 1.211 . S
O165 C164 1.211 . S
C166 O158 1.284 1_565 S
C166 O167 1.273 1_565 S
O167 C166 1.273 1_545 S
O168 Zn159 1.977 . S
O168 C161 1.267 . S
C169 O170 1.160 . S
C169 O176 1.185 . S
O170 C169 1.160 . S
O171 Zn172 1.899 . S
O171 C179 1.284 . S
Zn172 O171 1.899 . S
Zn172 O173 2.032 . S
Zn172 O176 2.086 1_655 S
Zn172 O181 1.977 . S
O173 Zn172 2.032 . S
O173 C177 1.278 . S
C174 O175 1.203 . S
C174 O181 1.267 . S
O175 C174 1.203 . S
O176 C169 1.185 . S
O176 Zn172 2.086 1_455 S
C177 O173 1.278 . S
C177 O178 1.211 . S
O178 C177 1.211 . S
C179 O171 1.284 . S
C179 O180 1.273 . S
O180 C179 1.273 . S
O181 Zn172 1.977 . S
O181 C174 1.267 . S
C182 O183 1.160 . S
C182 O189 1.185 . S
O183 C182 1.160 . S
O184 Zn185 1.899 . S
O184 C192 1.284 . S
Zn185 O184 1.899 . S
Zn185 O186 2.032 . S
Zn185 O189 2.086 . S
Zn185 O194 1.977 . S
O186 Zn185 2.032 . S
O186 C190 1.278 . S
C187 O188 1.203 . S
C187 O194 1.267 . S
O188 C187 1.203 . S
O189 C182 1.185 . S
O189 Zn185 2.086 . S
C190 O186 1.278 . S
C190 O191 1.211 . S
O191 C190 1.211 . S
C192 O184 1.284 . S
C192 O193 1.273 . S
O193 C192 1.273 . S
O194 Zn185 1.977 . S
O194 C187 1.267 . S
C195 O196 1.160 . S
C195 O202 1.185 . S
O196 C195 1.160 . S
O197 Zn198 1.899 . S
O197 C205 1.284 . S
Zn198 O197 1.899 . S
Zn198 O199 2.032 . S
Zn198 O202 2.086 . S
Zn198 O207 1.977 . S
O199 Zn198 2.032 . S
O199 C203 1.278 . S
C200 O201 1.203 . S
C200 O207 1.267 . S
O201 C200 1.203 . S
O202 C195 1.185 . S
O202 Zn198 2.086 . S
C203 O199 1.278 . S
C203 O204 1.211 . S
O204 C203 1.211 . S
C205 O197 1.284 . S
C205 O206 1.273 . S
O206 C205 1.273 . S
O207 Zn198 1.977 . S
O207 C200 1.267 . S
C208 O209 1.160 . S
C208 O215 1.185 . S
O209 C208 1.160 . S
O210 Zn211 1.899 . S
O210 C218 1.284 1_545 S
Zn211 O210 1.899 . S
Zn211 O212 2.032 . S
Zn211 O215 2.086 . S
Zn211 O220 1.977 . S
O212 Zn211 2.032 . S
O212 C216 1.278 . S
C213 O214 1.203 . S
C213 O220 1.267 . S
O214 C213 1.203 . S
O215 C208 1.185 . S
O215 Zn211 2.086 . S
C216 O212 1.278 . S
C216 O217 1.211 . S
O217 C216 1.211 . S
C218 O210 1.284 1_565 S
C218 O219 1.273 1_565 S
O219 C218 1.273 1_545 S
O220 Zn211 1.977 . S
O220 C213 1.267 . S
C221 O222 1.160 . S
C221 O228 1.185 . S
O222 C221 1.160 . S
O223 Zn224 1.899 . S
O223 C231 1.292 1_655 S
Zn224 O223 1.899 . S
Zn224 O225 2.032 . S
Zn224 O228 2.086 . S
Zn224 O233 1.977 . S
O225 Zn224 2.032 . S
O225 C229 1.278 . S
C226 O227 1.203 . S
C226 O233 1.267 . S
O227 C226 1.203 . S
O228 C221 1.185 . S
O228 Zn224 2.086 . S
C229 O225 1.278 . S
C229 O230 1.211 . S
O230 C229 1.211 . S
C231 O223 1.292 1_455 S
C231 O232 1.217 1_455 S
O232 C231 1.217 1_655 S
O233 Zn224 1.977 . S
O233 C226 1.267 . S
H234 C253 0.949 . S
H235 C254 0.950 . S
H236 C256 0.950 . S
H237 C257 0.950 . S
H238 C259 0.950 . S
H239 C262 0.950 . S
H240 C263 0.950 . S
H241 C265 0.951 . S
H242 C266 0.949 . S
H243 C268 0.949 . S
H244 C269 0.950 . S
H245 C271 0.950 . S
H246 C272 0.950 . S
H247 C274 0.950 . S
H248 C277 0.950 . S
H249 C278 0.950 . S
H250 C280 0.951 . S
H251 C281 0.949 . S
C252 C253 1.376 . S
C252 C257 1.386 . S
C252 C258 1.483 . S
C253 H234 0.949 . S
C253 C252 1.376 . S
C253 C254 1.397 . S
C254 H235 0.950 . S
C254 C253 1.397 . S
C254 C255 1.391 . S
C255 C254 1.391 . S
C255 C256 1.405 . S
C256 H236 0.950 . S
C256 C255 1.405 . S
C256 C257 1.367 . S
C257 H237 0.950 . S
C257 C252 1.386 . S
C257 C256 1.367 . S
C258 C252 1.483 . S
C258 C259 1.382 . S
C258 C260 1.403 . S
C259 H238 0.950 . S
C259 C258 1.382 . S
C259 C275 1.411 . S
C260 C258 1.403 . S
C260 C261 1.489 . S
C260 C274 1.411 . S
C261 C260 1.489 . S
C261 C262 1.383 . S
C261 C266 1.382 . S
C262 H239 0.950 . S
C262 C261 1.383 . S
C262 C263 1.395 . S
C263 H240 0.950 . S
C263 C262 1.395 . S
C263 C264 1.288 . S
C264 C263 1.288 . S
C264 C265 1.392 . S
C265 H241 0.951 . S
C265 C264 1.392 . S
C265 C266 1.392 . S
C266 H242 0.949 . S
C266 C261 1.382 . S
C266 C265 1.392 . S
C267 C268 1.376 . S
C267 C272 1.386 . S
C267 C273 1.483 . S
C268 H243 0.949 . S
C268 C267 1.376 . S
C268 C269 1.397 . S
C269 H244 0.950 . S
C269 C268 1.397 . S
C269 C270 1.391 . S
C270 C269 1.391 . S
C270 C271 1.405 . S
C271 H245 0.950 . S
C271 C270 1.405 . S
C271 C272 1.367 . S
C272 H246 0.950 . S
C272 C267 1.386 . S
C272 C271 1.367 . S
C273 C267 1.483 . S
C273 C274 1.382 . S
C273 C275 1.403 . S
C274 H247 0.950 . S
C274 C260 1.411 . S
C274 C273 1.382 . S
C275 C259 1.411 . S
C275 C273 1.403 . S
C275 C276 1.489 . S
C276 C275 1.489 . S
C276 C277 1.383 . S
C276 C281 1.382 . S
C277 H248 0.950 . S
C277 C276 1.383 . S
C277 C278 1.395 . S
C278 H249 0.950 . S
C278 C277 1.395 . S
C278 C279 1.288 . S
C279 C278 1.288 . S
C279 C280 1.392 . S
C280 H250 0.951 . S
C280 C279 1.392 . S
C280 C281 1.392 . S
C281 H251 0.949 . S
C281 C276 1.382 . S
C281 C280 1.392 . S
H282 C301 0.949 . S
H283 C302 0.950 . S
H284 C304 0.950 . S
H285 C305 0.950 . S
H286 C307 0.950 . S
H287 C310 0.950 . S
H288 C311 0.950 . S
H289 C313 0.951 . S
H290 C314 0.949 . S
H291 C316 0.949 . S
H292 C317 0.950 . S
H293 C319 0.950 . S
H294 C320 0.950 . S
H295 C322 0.950 . S
H296 C325 0.950 . S
H297 C326 0.950 . S
H298 C328 0.951 . S
H299 C329 0.949 . S
C300 C301 1.376 . S
C300 C305 1.386 . S
C300 C306 1.483 . S
C301 H282 0.949 . S
C301 C300 1.376 . S
C301 C302 1.397 . S
C302 H283 0.950 . S
C302 C301 1.397 . S
C302 C303 1.391 . S
C303 C302 1.391 . S
C303 C304 1.405 . S
C304 H284 0.950 . S
C304 C303 1.405 . S
C304 C305 1.367 . S
C305 H285 0.950 . S
C305 C300 1.386 . S
C305 C304 1.367 . S
C306 C300 1.483 . S
C306 C307 1.382 . S
C306 C308 1.403 . S
C307 H286 0.950 . S
C307 C306 1.382 . S
C307 C323 1.411 . S
C308 C306 1.403 . S
C308 C309 1.489 . S
C308 C322 1.411 . S
C309 C308 1.489 . S
C309 C310 1.383 . S
C309 C314 1.382 . S
C310 H287 0.950 . S
C310 C309 1.383 . S
C310 C311 1.395 . S
C311 H288 0.950 . S
C311 C310 1.395 . S
C311 C312 1.288 . S
C312 C311 1.288 . S
C312 C313 1.392 . S
C313 H289 0.951 . S
C313 C312 1.392 . S
C313 C314 1.392 . S
C314 H290 0.949 . S
C314 C309 1.382 . S
C314 C313 1.392 . S
C315 C316 1.376 . S
C315 C320 1.386 . S
C315 C321 1.483 . S
C316 H291 0.949 . S
C316 C315 1.376 . S
C316 C317 1.397 . S
C317 H292 0.950 . S
C317 C316 1.397 . S
C317 C318 1.391 . S
C318 C317 1.391 . S
C318 C319 1.405 . S
C319 H293 0.950 . S
C319 C318 1.405 . S
C319 C320 1.367 . S
C320 H294 0.950 . S
C320 C315 1.386 . S
C320 C319 1.367 . S
C321 C315 1.483 . S
C321 C322 1.382 . S
C321 C323 1.403 . S
C322 H295 0.950 . S
C322 C308 1.411 . S
C322 C321 1.382 . S
C323 C307 1.411 . S
C323 C321 1.403 . S
C323 C324 1.489 . S
C324 C323 1.489 . S
C324 C325 1.383 . S
C324 C329 1.382 . S
C325 H296 0.950 . S
C325 C324 1.383 . S
C325 C326 1.395 . S
C326 H297 0.950 . S
C326 C325 1.395 . S
C326 C327 1.288 . S
C327 C326 1.288 . S
C327 C328 1.392 . S
C328 H298 0.951 . S
C328 C327 1.392 . S
C328 C329 1.392 . S
C329 H299 0.949 . S
C329 C324 1.382 . S
C329 C328 1.392 . S
H330 C349 0.949 . S
H331 C350 0.950 . S
H332 C352 0.950 . S
H333 C353 0.950 . S
H334 C355 0.950 . S
H335 C358 0.950 . S
H336 C359 0.950 . S
H337 C361 0.951 . S
H338 C362 0.949 . S
H339 C364 0.949 . S
H340 C365 0.950 . S
H341 C367 0.950 . S
H342 C368 0.950 . S
H343 C370 0.950 . S
H344 C373 0.950 . S
H345 C374 0.950 . S
H346 C376 0.951 . S
H347 C377 0.949 . S
C348 C349 1.376 . S
C348 C353 1.386 . S
C348 C354 1.483 . S
C349 H330 0.949 . S
C349 C348 1.376 . S
C349 C350 1.397 . S
C350 H331 0.950 . S
C350 C349 1.397 . S
C350 C351 1.391 . S
C351 C350 1.391 . S
C351 C352 1.405 . S
C352 H332 0.950 . S
C352 C351 1.405 . S
C352 C353 1.367 . S
C353 H333 0.950 . S
C353 C348 1.386 . S
C353 C352 1.367 . S
C354 C348 1.483 . S
C354 C355 1.382 . S
C354 C356 1.403 . S
C355 H334 0.950 . S
C355 C354 1.382 . S
C355 C371 1.411 . S
C356 C354 1.403 . S
C356 C357 1.489 . S
C356 C370 1.411 . S
C357 C356 1.489 . S
C357 C358 1.383 . S
C357 C362 1.382 . S
C358 H335 0.950 . S
C358 C357 1.383 . S
C358 C359 1.395 . S
C359 H336 0.950 . S
C359 C358 1.395 . S
C359 C360 1.288 . S
C360 C359 1.288 . S
C360 C361 1.392 . S
C361 H337 0.951 . S
C361 C360 1.392 . S
C361 C362 1.392 . S
C362 H338 0.949 . S
C362 C357 1.382 . S
C362 C361 1.392 . S
C363 C364 1.376 . S
C363 C368 1.386 . S
C363 C369 1.483 . S
C364 H339 0.949 . S
C364 C363 1.376 . S
C364 C365 1.397 . S
C365 H340 0.950 . S
C365 C364 1.397 . S
C365 C366 1.391 . S
C366 C365 1.391 . S
C366 C367 1.405 . S
C367 H341 0.950 . S
C367 C366 1.405 . S
C367 C368 1.367 . S
C368 H342 0.950 . S
C368 C363 1.386 . S
C368 C367 1.367 . S
C369 C363 1.483 . S
C369 C370 1.382 . S
C369 C371 1.403 . S
C370 H343 0.950 . S
C370 C356 1.411 . S
C370 C369 1.382 . S
C371 C355 1.411 . S
C371 C369 1.403 . S
C371 C372 1.489 . S
C372 C371 1.489 . S
C372 C373 1.383 . S
C372 C377 1.382 . S
C373 H344 0.950 . S
C373 C372 1.383 . S
C373 C374 1.395 . S
C374 H345 0.950 . S
C374 C373 1.395 . S
C374 C375 1.288 . S
C375 C374 1.288 . S
C375 C376 1.392 . S
C376 H346 0.951 . S
C376 C375 1.392 . S
C376 C377 1.392 . S
C377 H347 0.949 . S
C377 C372 1.382 . S
C377 C376 1.392 . S
H378 C397 0.949 . S
H379 C398 0.950 . S
H380 C400 0.950 . S
H381 C401 0.950 . S
H382 C403 0.950 . S
H383 C406 0.950 . S
H384 C407 0.950 . S
H385 C409 0.951 . S
H386 C410 0.949 . S
H387 C412 0.949 . S
H388 C413 0.950 . S
H389 C415 0.950 . S
H390 C416 0.950 . S
H391 C418 0.950 . S
H392 C421 0.950 . S
H393 C422 0.950 . S
H394 C424 0.951 . S
H395 C425 0.949 . S
C396 C397 1.376 . S
C396 C401 1.386 . S
C396 C402 1.483 . S
C397 H378 0.949 . S
C397 C396 1.376 . S
C397 C398 1.397 . S
C398 H379 0.950 . S
C398 C397 1.397 . S
C398 C399 1.391 . S
C399 C398 1.391 . S
C399 C400 1.405 . S
C400 H380 0.950 . S
C400 C399 1.405 . S
C400 C401 1.367 . S
C401 H381 0.950 . S
C401 C396 1.386 . S
C401 C400 1.367 . S
C402 C396 1.483 . S
C402 C403 1.382 . S
C402 C404 1.403 . S
C403 H382 0.950 . S
C403 C402 1.382 . S
C403 C419 1.411 . S
C404 C402 1.403 . S
C404 C405 1.489 . S
C404 C418 1.411 . S
C405 C404 1.489 . S
C405 C406 1.383 . S
C405 C410 1.382 . S
C406 H383 0.950 . S
C406 C405 1.383 . S
C406 C407 1.395 . S
C407 H384 0.950 . S
C407 C406 1.395 . S
C407 C408 1.288 . S
C408 C407 1.288 . S
C408 C409 1.392 . S
C409 H385 0.951 . S
C409 C408 1.392 . S
C409 C410 1.392 . S
C410 H386 0.949 . S
C410 C405 1.382 . S
C410 C409 1.392 . S
C411 C412 1.376 . S
C411 C416 1.386 . S
C411 C417 1.483 . S
C412 H387 0.949 . S
C412 C411 1.376 . S
C412 C413 1.397 . S
C413 H388 0.950 . S
C413 C412 1.397 . S
C413 C414 1.391 . S
C414 C413 1.391 . S
C414 C415 1.405 . S
C415 H389 0.950 . S
C415 C414 1.405 . S
C415 C416 1.367 . S
C416 H390 0.950 . S
C416 C411 1.386 . S
C416 C415 1.367 . S
C417 C411 1.483 . S
C417 C418 1.382 . S
C417 C419 1.403 . S
C418 H391 0.950 . S
C418 C404 1.411 . S
C418 C417 1.382 . S
C419 C403 1.411 . S
C419 C417 1.403 . S
C419 C420 1.489 . S
C420 C419 1.489 . S
C420 C421 1.383 . S
C420 C425 1.382 . S
C421 H392 0.950 . S
C421 C420 1.383 . S
C421 C422 1.395 . S
C422 H393 0.950 . S
C422 C421 1.395 . S
C422 C423 1.288 . S
C423 C422 1.288 . S
C423 C424 1.392 . S
C424 H394 0.951 . S
C424 C423 1.392 . S
C424 C425 1.392 . S
C425 H395 0.949 . S
C425 C420 1.382 . S
C425 C424 1.392 . S
H426 C445 0.949 . S
H427 C446 0.950 . S
H428 C448 0.950 . S
H429 C449 0.950 . S
H430 C451 0.950 . S
H431 C454 0.950 . S
H432 C455 0.950 . S
H433 C457 0.951 . S
H434 C458 0.949 . S
H435 C460 0.949 . S
H436 C461 0.950 . S
H437 C463 0.950 . S
H438 C464 0.950 . S
H439 C466 0.950 . S
H440 C469 0.950 . S
H441 C470 0.950 . S
H442 C472 0.951 . S
H443 C473 0.949 . S
C444 C445 1.376 . S
C444 C449 1.386 . S
C444 C450 1.483 . S
C445 H426 0.949 . S
C445 C444 1.376 . S
C445 C446 1.397 . S
C446 H427 0.950 . S
C446 C445 1.397 . S
C446 C447 1.391 . S
C447 C446 1.391 . S
C447 C448 1.405 . S
C448 H428 0.950 . S
C448 C447 1.405 . S
C448 C449 1.367 . S
C449 H429 0.950 . S
C449 C444 1.386 . S
C449 C448 1.367 . S
C450 C444 1.483 . S
C450 C451 1.382 . S
C450 C452 1.403 . S
C451 H430 0.950 . S
C451 C450 1.382 . S
C451 C467 1.411 . S
C452 C450 1.403 . S
C452 C453 1.489 . S
C452 C466 1.411 . S
C453 C452 1.489 . S
C453 C454 1.383 . S
C453 C458 1.382 . S
C454 H431 0.950 . S
C454 C453 1.383 . S
C454 C455 1.395 . S
C455 H432 0.950 . S
C455 C454 1.395 . S
C455 C456 1.288 . S
C456 C455 1.288 . S
C456 C457 1.392 . S
C457 H433 0.951 . S
C457 C456 1.392 . S
C457 C458 1.392 . S
C458 H434 0.949 . S
C458 C453 1.382 . S
C458 C457 1.392 . S
C459 C460 1.376 . S
C459 C464 1.386 . S
C459 C465 1.483 . S
C460 H435 0.949 . S
C460 C459 1.376 . S
C460 C461 1.397 . S
C461 H436 0.950 . S
C461 C460 1.397 . S
C461 C462 1.391 . S
C462 C461 1.391 . S
C462 C463 1.405 . S
C463 H437 0.950 . S
C463 C462 1.405 . S
C463 C464 1.367 . S
C464 H438 0.950 . S
C464 C459 1.386 . S
C464 C463 1.367 . S
C465 C459 1.483 . S
C465 C466 1.382 . S
C465 C467 1.403 . S
C466 H439 0.950 . S
C466 C452 1.411 . S
C466 C465 1.382 . S
C467 C451 1.411 . S
C467 C465 1.403 . S
C467 C468 1.489 . S
C468 C467 1.489 . S
C468 C469 1.383 . S
C468 C473 1.382 . S
C469 H440 0.950 . S
C469 C468 1.383 . S
C469 C470 1.395 . S
C470 H441 0.950 . S
C470 C469 1.395 . S
C470 C471 1.288 . S
C471 C470 1.288 . S
C471 C472 1.392 . S
C472 H442 0.951 . S
C472 C471 1.392 . S
C472 C473 1.392 . S
C473 H443 0.949 . S
C473 C468 1.382 . S
C473 C472 1.392 . S
H474 C493 0.949 . S
H475 C494 0.950 . S
H476 C496 0.950 . S
H477 C497 0.950 . S
H478 C499 0.950 . S
H479 C502 0.950 . S
H480 C503 0.950 . S
H481 C505 0.951 . S
H482 C506 0.949 . S
H483 C508 0.949 . S
H484 C509 0.950 . S
H485 C511 0.950 . S
H486 C512 0.950 . S
H487 C514 0.950 . S
H488 C517 0.950 . S
H489 C518 0.950 . S
H490 C520 0.951 . S
H491 C521 0.949 . S
C492 C493 1.376 . S
C492 C497 1.386 . S
C492 C498 1.483 . S
C493 H474 0.949 . S
C493 C492 1.376 . S
C493 C494 1.397 . S
C494 H475 0.950 . S
C494 C493 1.397 . S
C494 C495 1.391 . S
C495 C494 1.391 . S
C495 C496 1.405 . S
C496 H476 0.950 . S
C496 C495 1.405 . S
C496 C497 1.367 . S
C497 H477 0.950 . S
C497 C492 1.386 . S
C497 C496 1.367 . S
C498 C492 1.483 . S
C498 C499 1.382 . S
C498 C500 1.403 . S
C499 H478 0.950 . S
C499 C498 1.382 . S
C499 C515 1.411 . S
C500 C498 1.403 . S
C500 C501 1.489 . S
C500 C514 1.411 . S
C501 C500 1.489 . S
C501 C502 1.383 . S
C501 C506 1.382 . S
C502 H479 0.950 . S
C502 C501 1.383 . S
C502 C503 1.395 . S
C503 H480 0.950 . S
C503 C502 1.395 . S
C503 C504 1.288 . S
C504 C503 1.288 . S
C504 C505 1.392 . S
C505 H481 0.951 . S
C505 C504 1.392 . S
C505 C506 1.392 . S
C506 H482 0.949 . S
C506 C501 1.382 . S
C506 C505 1.392 . S
C507 C508 1.376 . S
C507 C512 1.386 . S
C507 C513 1.483 . S
C508 H483 0.949 . S
C508 C507 1.376 . S
C508 C509 1.397 . S
C509 H484 0.950 . S
C509 C508 1.397 . S
C509 C510 1.391 . S
C510 C509 1.391 . S
C510 C511 1.405 . S
C511 H485 0.950 . S
C511 C510 1.405 . S
C511 C512 1.367 . S
C512 H486 0.950 . S
C512 C507 1.386 . S
C512 C511 1.367 . S
C513 C507 1.483 . S
C513 C514 1.382 . S
C513 C515 1.403 . S
C514 H487 0.950 . S
C514 C500 1.411 . S
C514 C513 1.382 . S
C515 C499 1.411 . S
C515 C513 1.403 . S
C515 C516 1.489 . S
C516 C515 1.489 . S
C516 C517 1.383 . S
C516 C521 1.382 . S
C517 H488 0.950 . S
C517 C516 1.383 . S
C517 C518 1.395 . S
C518 H489 0.950 . S
C518 C517 1.395 . S
C518 C519 1.288 . S
C519 C518 1.288 . S
C519 C520 1.392 . S
C520 H490 0.951 . S
C520 C519 1.392 . S
C520 C521 1.392 . S
C521 H491 0.949 . S
C521 C516 1.382 . S
C521 C520 1.392 . S
H522 C541 0.949 . S
H523 C542 0.950 . S
H524 C544 0.950 . S
H525 C545 0.950 . S
H526 C547 0.950 . S
H527 C550 0.950 . S
H528 C551 0.950 . S
H529 C553 0.951 . S
H530 C554 0.949 . S
H531 C556 0.949 . S
H532 C557 0.950 . S
H533 C559 0.950 . S
H534 C560 0.950 . S
H535 C562 0.950 . S
H536 C565 0.950 . S
H537 C566 0.950 . S
H538 C568 0.951 . S
H539 C569 0.949 . S
C540 C541 1.376 . S
C540 C545 1.386 . S
C540 C546 1.483 . S
C541 H522 0.949 . S
C541 C540 1.376 . S
C541 C542 1.397 . S
C542 H523 0.950 . S
C542 C541 1.397 . S
C542 C543 1.391 . S
C543 C542 1.391 . S
C543 C544 1.405 . S
C544 H524 0.950 . S
C544 C543 1.405 . S
C544 C545 1.367 . S
C545 H525 0.950 . S
C545 C540 1.386 . S
C545 C544 1.367 . S
C546 C540 1.483 . S
C546 C547 1.382 . S
C546 C548 1.403 . S
C547 H526 0.950 . S
C547 C546 1.382 . S
C547 C563 1.411 . S
C548 C546 1.403 . S
C548 C549 1.489 . S
C548 C562 1.411 . S
C549 C548 1.489 . S
C549 C550 1.383 . S
C549 C554 1.382 . S
C550 H527 0.950 . S
C550 C549 1.383 . S
C550 C551 1.395 . S
C551 H528 0.950 . S
C551 C550 1.395 . S
C551 C552 1.288 . S
C552 C551 1.288 . S
C552 C553 1.392 . S
C553 H529 0.951 . S
C553 C552 1.392 . S
C553 C554 1.392 . S
C554 H530 0.949 . S
C554 C549 1.382 . S
C554 C553 1.392 . S
C555 C556 1.376 . S
C555 C560 1.386 . S
C555 C561 1.483 . S
C556 H531 0.949 . S
C556 C555 1.376 . S
C556 C557 1.397 . S
C557 H532 0.950 . S
C557 C556 1.397 . S
C557 C558 1.391 . S
C558 C557 1.391 . S
C558 C559 1.405 . S
C559 H533 0.950 . S
C559 C558 1.405 . S
C559 C560 1.367 . S
C560 H534 0.950 . S
C560 C555 1.386 . S
C560 C559 1.367 . S
C561 C555 1.483 . S
C561 C562 1.382 . S
C561 C563 1.403 . S
C562 H535 0.950 . S
C562 C548 1.411 . S
C562 C561 1.382 . S
C563 C547 1.411 . S
C563 C561 1.403 . S
C563 C564 1.489 . S
C564 C563 1.489 . S
C564 C565 1.383 . S
C564 C569 1.382 . S
C565 H536 0.950 . S
C565 C564 1.383 . S
C565 C566 1.395 . S
C566 H537 0.950 . S
C566 C565 1.395 . S
C566 C567 1.288 . S
C567 C566 1.288 . S
C567 C568 1.392 . S
C568 H538 0.951 . S
C568 C567 1.392 . S
C568 C569 1.392 . S
C569 H539 0.949 . S
C569 C564 1.382 . S
C569 C568 1.392 . S
H570 C589 0.949 . S
H571 C590 0.950 . S
H572 C592 0.950 . S
H573 C593 0.950 . S
H574 C595 0.950 . S
H575 C598 0.950 . S
H576 C599 0.950 . S
H577 C601 0.951 . S
H578 C602 0.949 . S
H579 C604 0.949 . S
H580 C605 0.950 . S
H581 C607 0.950 . S
H582 C608 0.950 . S
H583 C610 0.950 . S
H584 C613 0.950 . S
H585 C614 0.950 . S
H586 C616 0.951 . S
H587 C617 0.949 . S
C588 C589 1.376 . S
C588 C593 1.386 . S
C588 C594 1.483 . S
C589 H570 0.949 . S
C589 C588 1.376 . S
C589 C590 1.397 . S
C590 H571 0.950 . S
C590 C589 1.397 . S
C590 C591 1.391 . S
C591 C590 1.391 . S
C591 C592 1.405 . S
C592 H572 0.950 . S
C592 C591 1.405 . S
C592 C593 1.367 . S
C593 H573 0.950 . S
C593 C588 1.386 . S
C593 C592 1.367 . S
C594 C588 1.483 . S
C594 C595 1.382 . S
C594 C596 1.403 . S
C595 H574 0.950 . S
C595 C594 1.382 . S
C595 C611 1.411 . S
C596 C594 1.403 . S
C596 C597 1.489 . S
C596 C610 1.411 . S
C597 C596 1.489 . S
C597 C598 1.383 . S
C597 C602 1.382 . S
C598 H575 0.950 . S
C598 C597 1.383 . S
C598 C599 1.395 . S
C599 H576 0.950 . S
C599 C598 1.395 . S
C599 C600 1.288 . S
C600 C599 1.288 . S
C600 C601 1.392 . S
C601 H577 0.951 . S
C601 C600 1.392 . S
C601 C602 1.392 . S
C602 H578 0.949 . S
C602 C597 1.382 . S
C602 C601 1.392 . S
C603 C604 1.376 . S
C603 C608 1.386 . S
C603 C609 1.483 . S
C604 H579 0.949 . S
C604 C603 1.376 . S
C604 C605 1.397 . S
C605 H580 0.950 . S
C605 C604 1.397 . S
C605 C606 1.391 . S
C606 C605 1.391 . S
C606 C607 1.405 . S
C607 H581 0.950 . S
C607 C606 1.405 . S
C607 C608 1.367 . S
C608 H582 0.950 . S
C608 C603 1.386 . S
C608 C607 1.367 . S
C609 C603 1.483 . S
C609 C610 1.382 . S
C609 C611 1.403 . S
C610 H583 0.950 . S
C610 C596 1.411 . S
C610 C609 1.382 . S
C611 C595 1.411 . S
C611 C609 1.403 . S
C611 C612 1.489 . S
C612 C611 1.489 . S
C612 C613 1.383 . S
C612 C617 1.382 . S
C613 H584 0.950 . S
C613 C612 1.383 . S
C613 C614 1.395 . S
C614 H585 0.950 . S
C614 C613 1.395 . S
C614 C615 1.288 . S
C615 C614 1.288 . S
C615 C616 1.392 . S
C616 H586 0.951 . S
C616 C615 1.392 . S
C616 C617 1.392 . S
C617 H587 0.949 . S
C617 C612 1.382 . S
C617 C616 1.392 . S
H618 C637 0.949 . S
H619 C638 0.950 . S
H620 C640 0.950 . S
H621 C641 0.950 . S
H622 C643 0.950 . S
H623 C646 0.950 . S
H624 C647 0.950 . S
H625 C649 0.951 . S
H626 C650 0.949 . S
H627 C652 0.949 . S
H628 C653 0.950 . S
H629 C655 0.950 . S
H630 C656 0.950 . S
H631 C658 0.950 . S
H632 C661 0.950 . S
H633 C662 0.950 . S
H634 C664 0.951 . S
H635 C665 0.949 . S
C636 C637 1.376 . S
C636 C641 1.386 . S
C636 C642 1.483 . S
C637 H618 0.949 . S
C637 C636 1.376 . S
C637 C638 1.397 . S
C638 H619 0.950 . S
C638 C637 1.397 . S
C638 C639 1.391 . S
C639 C638 1.391 . S
C639 C640 1.405 . S
C640 H620 0.950 . S
C640 C639 1.405 . S
C640 C641 1.367 . S
C641 H621 0.950 . S
C641 C636 1.386 . S
C641 C640 1.367 . S
C642 C636 1.483 . S
C642 C643 1.382 . S
C642 C644 1.403 . S
C643 H622 0.950 . S
C643 C642 1.382 . S
C643 C659 1.411 . S
C644 C642 1.403 . S
C644 C645 1.489 . S
C644 C658 1.411 . S
C645 C644 1.489 . S
C645 C646 1.383 . S
C645 C650 1.382 . S
C646 H623 0.950 . S
C646 C645 1.383 . S
C646 C647 1.395 . S
C647 H624 0.950 . S
C647 C646 1.395 . S
C647 C648 1.288 . S
C648 C647 1.288 . S
C648 C649 1.392 . S
C649 H625 0.951 . S
C649 C648 1.392 . S
C649 C650 1.392 . S
C650 H626 0.949 . S
C650 C645 1.382 . S
C650 C649 1.392 . S
C651 C652 1.376 . S
C651 C656 1.386 . S
C651 C657 1.483 . S
C652 H627 0.949 . S
C652 C651 1.376 . S
C652 C653 1.397 . S
C653 H628 0.950 . S
C653 C652 1.397 . S
C653 C654 1.391 . S
C654 C653 1.391 . S
C654 C655 1.405 . S
C655 H629 0.950 . S
C655 C654 1.405 . S
C655 C656 1.367 . S
C656 H630 0.950 . S
C656 C651 1.386 . S
C656 C655 1.367 . S
C657 C651 1.483 . S
C657 C658 1.382 . S
C657 C659 1.403 . S
C658 H631 0.950 . S
C658 C644 1.411 . S
C658 C657 1.382 . S
C659 C643 1.411 . S
C659 C657 1.403 . S
C659 C660 1.489 . S
C660 C659 1.489 . S
C660 C661 1.383 . S
C660 C665 1.382 . S
C661 H632 0.950 . S
C661 C660 1.383 . S
C661 C662 1.395 . S
C662 H633 0.950 . S
C662 C661 1.395 . S
C662 C663 1.288 . S
C663 C662 1.288 . S
C663 C664 1.392 . S
C664 H634 0.951 . S
C664 C663 1.392 . S
C664 C665 1.392 . S
C665 H635 0.949 . S
C665 C660 1.382 . S
C665 C664 1.392 . S
H666 C685 0.949 . S
H667 C686 0.950 . S
H668 C688 0.950 . S
H669 C689 0.950 . S
H670 C691 0.950 . S
H671 C694 0.950 . S
H672 C695 0.950 . S
H673 C697 0.951 . S
H674 C698 0.949 . S
H675 C700 0.949 . S
H676 C701 0.950 . S
H677 C703 0.950 . S
H678 C704 0.950 . S
H679 C706 0.950 . S
H680 C709 0.950 . S
H681 C710 0.950 . S
H682 C712 0.951 . S
H683 C713 0.949 . S
C684 C685 1.376 . S
C684 C689 1.386 1_655 S
C684 C690 1.483 . S
C685 H666 0.949 . S
C685 C684 1.376 . S
C685 C686 1.397 . S
C686 H667 0.950 . S
C686 C685 1.397 . S
C686 C687 1.391 . S
C687 C686 1.391 . S
C687 C688 1.405 1_655 S
C688 H668 0.950 . S
C688 C687 1.405 1_455 S
C688 C689 1.367 . S
C689 H669 0.950 . S
C689 C684 1.386 1_455 S
C689 C688 1.367 . S
C690 C684 1.483 . S
C690 C691 1.382 . S
C690 C692 1.403 1_655 S
C691 H670 0.950 . S
C691 C690 1.382 . S
C691 C707 1.411 . S
C692 C690 1.403 1_455 S
C692 C693 1.489 . S
C692 C706 1.411 . S
C693 C692 1.489 . S
C693 C694 1.383 1_455 S
C693 C698 1.382 . S
C694 H671 0.950 . S
C694 C693 1.383 1_655 S
C694 C695 1.395 . S
C695 H672 0.950 . S
C695 C694 1.395 . S
C695 C696 1.288 1_655 S
C696 C695 1.288 1_455 S
C696 C697 1.392 . S
C697 H673 0.951 . S
C697 C696 1.392 . S
C697 C698 1.392 . S
C698 H674 0.949 . S
C698 C693 1.382 . S
C698 C697 1.392 . S
C699 C700 1.376 . S
C699 C704 1.386 1_455 S
C699 C705 1.483 . S
C700 H675 0.949 . S
C700 C699 1.376 . S
C700 C701 1.397 . S
C701 H676 0.950 . S
C701 C700 1.397 . S
C701 C702 1.391 . S
C702 C701 1.391 . S
C702 C703 1.405 1_455 S
C703 H677 0.950 . S
C703 C702 1.405 1_655 S
C703 C704 1.367 . S
C704 H678 0.950 . S
C704 C699 1.386 1_655 S
C704 C703 1.367 . S
C705 C699 1.483 . S
C705 C706 1.382 . S
C705 C707 1.403 1_455 S
C706 H679 0.950 . S
C706 C692 1.411 . S
C706 C705 1.382 . S
C707 C691 1.411 . S
C707 C705 1.403 1_655 S
C707 C708 1.489 . S
C708 C707 1.489 . S
C708 C709 1.383 1_655 S
C708 C713 1.382 . S
C709 H680 0.950 . S
C709 C708 1.383 1_455 S
C709 C710 1.395 . S
C710 H681 0.950 . S
C710 C709 1.395 . S
C710 C711 1.288 1_455 S
C711 C710 1.288 1_655 S
C711 C712 1.392 . S
C712 H682 0.951 . S
C712 C711 1.392 . S
C712 C713 1.392 . S
C713 H683 0.949 . S
C713 C708 1.382 . S
C713 C712 1.392 . S
H714 C733 0.949 . S
H715 C734 0.950 . S
H716 C736 0.950 . S
H717 C737 0.950 . S
H718 C739 0.950 . S
H719 C742 0.950 . S
H720 C743 0.950 . S
H721 C745 0.951 . S
H722 C746 0.949 . S
H723 C748 0.949 . S
H724 C749 0.950 . S
H725 C751 0.950 . S
H726 C752 0.950 . S
H727 C754 0.950 . S
H728 C757 0.950 . S
H729 C758 0.950 . S
H730 C760 0.951 . S
H731 C761 0.949 . S
C732 C733 1.376 . S
C732 C737 1.386 . S
C732 C738 1.483 . S
C733 H714 0.949 . S
C733 C732 1.376 . S
C733 C734 1.397 . S
C734 H715 0.950 . S
C734 C733 1.397 . S
C734 C735 1.391 . S
C735 C734 1.391 . S
C735 C736 1.405 . S
C736 H716 0.950 . S
C736 C735 1.405 . S
C736 C737 1.367 . S
C737 H717 0.950 . S
C737 C732 1.386 . S
C737 C736 1.367 . S
C738 C732 1.483 . S
C738 C739 1.382 . S
C738 C740 1.403 . S
C739 H718 0.950 . S
C739 C738 1.382 . S
C739 C755 1.411 . S
C740 C738 1.403 . S
C740 C741 1.489 . S
C740 C754 1.411 . S
C741 C740 1.489 . S
C741 C742 1.383 . S
C741 C746 1.382 . S
C742 H719 0.950 . S
C742 C741 1.383 . S
C742 C743 1.395 . S
C743 H720 0.950 . S
C743 C742 1.395 . S
C743 C744 1.288 . S
C744 C743 1.288 . S
C744 C745 1.392 . S
C745 H721 0.951 . S
C745 C744 1.392 . S
C745 C746 1.392 . S
C746 H722 0.949 . S
C746 C741 1.382 . S
C746 C745 1.392 . S
C747 C748 1.376 . S
C747 C752 1.386 . S
C747 C753 1.483 . S
C748 H723 0.949 . S
C748 C747 1.376 . S
C748 C749 1.397 . S
C749 H724 0.950 . S
C749 C748 1.397 . S
C749 C750 1.391 . S
C750 C749 1.391 . S
C750 C751 1.405 . S
C751 H725 0.950 . S
C751 C750 1.405 . S
C751 C752 1.367 . S
C752 H726 0.950 . S
C752 C747 1.386 . S
C752 C751 1.367 . S
C753 C747 1.483 . S
C753 C754 1.382 . S
C753 C755 1.403 . S
C754 H727 0.950 . S
C754 C740 1.411 . S
C754 C753 1.382 . S
C755 C739 1.411 . S
C755 C753 1.403 . S
C755 C756 1.489 . S
C756 C755 1.489 . S
C756 C757 1.383 . S
C756 C761 1.382 . S
C757 H728 0.950 . S
C757 C756 1.383 . S
C757 C758 1.395 . S
C758 H729 0.950 . S
C758 C757 1.395 . S
C758 C759 1.288 . S
C759 C758 1.288 . S
C759 C760 1.392 . S
C760 H730 0.951 . S
C760 C759 1.392 . S
C760 C761 1.392 . S
C761 H731 0.949 . S
C761 C756 1.382 . S
C761 C760 1.392 . S
H762 C781 0.949 . S
H763 C782 0.950 . S
H764 C784 0.950 . S
H765 C785 0.950 . S
H766 C787 0.950 . S
H767 C790 0.950 . S
H768 C791 0.950 . S
H769 C793 0.951 . S
H770 C794 0.949 . S
H771 C796 0.949 . S
H772 C797 0.950 . S
H773 C799 0.950 . S
H774 C800 0.950 . S
H775 C802 0.950 . S
H776 C805 0.950 . S
H777 C806 0.950 . S
H778 C808 0.951 . S
H779 C809 0.949 . S
C780 C781 1.376 . S
C780 C785 1.386 1_545 S
C780 C786 1.483 . S
C781 H762 0.949 . S
C781 C780 1.376 . S
C781 C782 1.397 . S
C782 H763 0.950 . S
C782 C781 1.397 . S
C782 C783 1.391 . S
C783 C782 1.391 . S
C783 C784 1.405 1_545 S
C784 H764 0.950 . S
C784 C783 1.405 1_565 S
C784 C785 1.367 . S
C785 H765 0.950 . S
C785 C780 1.386 1_565 S
C785 C784 1.367 . S
C786 C780 1.483 . S
C786 C787 1.382 . S
C786 C788 1.403 1_545 S
C787 H766 0.950 . S
C787 C786 1.382 . S
C787 C803 1.411 . S
C788 C786 1.403 1_565 S
C788 C789 1.489 . S
C788 C802 1.411 . S
C789 C788 1.489 . S
C789 C790 1.383 1_565 S
C789 C794 1.382 . S
C790 H767 0.950 . S
C790 C789 1.383 1_545 S
C790 C791 1.395 . S
C791 H768 0.950 . S
C791 C790 1.395 . S
C791 C792 1.288 1_545 S
C792 C791 1.288 1_565 S
C792 C793 1.392 . S
C793 H769 0.951 . S
C793 C792 1.392 . S
C793 C794 1.392 . S
C794 H770 0.949 . S
C794 C789 1.382 . S
C794 C793 1.392 . S
C795 C796 1.376 . S
C795 C800 1.386 1_565 S
C795 C801 1.483 . S
C796 H771 0.949 . S
C796 C795 1.376 . S
C796 C797 1.397 . S
C797 H772 0.950 . S
C797 C796 1.397 . S
C797 C798 1.391 . S
C798 C797 1.391 . S
C798 C799 1.405 1_565 S
C799 H773 0.950 . S
C799 C798 1.405 1_545 S
C799 C800 1.367 . S
C800 H774 0.950 . S
C800 C795 1.386 1_545 S
C800 C799 1.367 . S
C801 C795 1.483 . S
C801 C802 1.382 . S
C801 C803 1.403 1_565 S
C802 H775 0.950 . S
C802 C788 1.411 . S
C802 C801 1.382 . S
C803 C787 1.411 . S
C803 C801 1.403 1_545 S
C803 C804 1.489 . S
C804 C803 1.489 . S
C804 C805 1.383 1_545 S
C804 C809 1.382 . S
C805 H776 0.950 . S
C805 C804 1.383 1_565 S
C805 C806 1.395 . S
C806 H777 0.950 . S
C806 C805 1.395 . S
C806 C807 1.288 1_565 S
C807 C806 1.288 1_545 S
C807 C808 1.392 . S
C808 H778 0.951 . S
C808 C807 1.392 . S
C808 C809 1.392 . S
C809 H779 0.949 . S
C809 C804 1.382 . S
C809 C808 1.392 . S
H810 C829 0.949 . S
H811 C830 0.950 . S
H812 C832 0.950 . S
H813 C833 0.950 . S
H814 C835 0.950 . S
H815 C838 0.950 . S
H816 C839 0.950 . S
H817 C841 0.951 . S
H818 C842 0.949 . S
H819 C844 0.949 . S
H820 C845 0.950 . S
H821 C847 0.950 . S
H822 C848 0.950 . S
H823 C850 0.950 . S
H824 C853 0.950 . S
H825 C854 0.950 . S
H826 C856 0.951 . S
H827 C857 0.949 . S
C828 C829 1.404 . S
C828 C833 1.374 1_545 S
C828 C834 1.499 . S
C829 H810 0.949 . S
C829 C828 1.404 . S
C829 C830 1.397 . S
C830 H811 0.950 . S
C830 C829 1.397 . S
C830 C831 1.391 1_545 S
C831 C830 1.391 1_565 S
C831 C832 1.405 . S
C832 H812 0.950 . S
C832 C831 1.405 . S
C832 C833 1.367 . S
C833 H813 0.950 . S
C833 C828 1.374 1_565 S
C833 C832 1.367 . S
C834 C828 1.499 . S
C834 C835 1.349 . S
C834 C836 1.401 1_545 S
C835 H814 0.950 . S
C835 C834 1.349 . S
C835 C851 1.437 . S
C836 C834 1.401 1_565 S
C836 C837 1.475 . S
C836 C850 1.425 . S
C837 C836 1.475 . S
C837 C838 1.384 1_565 S
C837 C842 1.381 . S
C838 H815 0.950 . S
C838 C837 1.384 1_545 S
C838 C839 1.395 . S
C839 H816 0.950 . S
C839 C838 1.395 . S
C839 C840 1.288 . S
C840 C839 1.288 . S
C840 C841 1.392 1_545 S
C841 H817 0.951 . S
C841 C840 1.392 1_565 S
C841 C842 1.392 . S
C842 H818 0.949 . S
C842 C837 1.381 . S
C842 C841 1.392 . S
C843 C844 1.388 . S
C843 C848 1.381 1_565 S
C843 C849 1.499 . S
C844 H819 0.949 . S
C844 C843 1.388 . S
C844 C845 1.397 . S
C845 H820 0.950 . S
C845 C844 1.397 . S
C845 C846 1.391 1_565 S
C846 C845 1.391 1_545 S
C846 C847 1.405 . S
C847 H821 0.950 . S
C847 C846 1.405 . S
C847 C848 1.367 . S
C848 H822 0.950 . S
C848 C843 1.381 1_545 S
C848 C847 1.367 . S
C849 C843 1.499 . S
C849 C850 1.358 . S
C849 C851 1.401 1_565 S
C850 H823 0.950 . S
C850 C836 1.425 . S
C850 C849 1.358 . S
C851 C835 1.437 . S
C851 C849 1.401 1_545 S
C851 C852 1.475 . S
C852 C851 1.475 . S
C852 C853 1.363 1_545 S
C852 C857 1.392 . S
C853 H824 0.950 . S
C853 C852 1.363 1_565 S
C853 C854 1.395 . S
C854 H825 0.950 . S
C854 C853 1.395 . S
C854 C855 1.288 . S
C855 C854 1.288 . S
C855 C856 1.392 1_565 S
C856 H826 0.951 . S
C856 C855 1.392 1_545 S
C856 C857 1.392 . S
C857 H827 0.949 . S
C857 C852 1.392 . S
C857 C856 1.392 . S
H858 C877 0.949 . S
H859 C878 0.950 . S
H860 C880 0.950 . S
H861 C881 0.950 . S
H862 C883 0.950 . S
H863 C886 0.950 . S
H864 C887 0.950 . S
H865 C889 0.951 . S
H866 C890 0.949 . S
H867 C892 0.949 . S
H868 C893 0.950 . S
H869 C895 0.950 . S
H870 C896 0.950 . S
H871 C898 0.950 . S
H872 C901 0.950 . S
H873 C902 0.950 . S
H874 C904 0.951 . S
H875 C905 0.949 . S
C876 C877 1.376 . S
C876 C881 1.386 1_455 S
C876 C882 1.483 . S
C877 H858 0.949 . S
C877 C876 1.376 . S
C877 C878 1.397 . S
C878 H859 0.950 . S
C878 C877 1.397 . S
C878 C879 1.391 . S
C879 C878 1.391 . S
C879 C880 1.405 1_455 S
C880 H860 0.950 . S
C880 C879 1.405 1_655 S
C880 C881 1.367 . S
C881 H861 0.950 . S
C881 C876 1.386 1_655 S
C881 C880 1.367 . S
C882 C876 1.483 . S
C882 C883 1.382 . S
C882 C884 1.403 1_455 S
C883 H862 0.950 . S
C883 C882 1.382 . S
C883 C899 1.411 . S
C884 C882 1.403 1_655 S
C884 C885 1.489 . S
C884 C898 1.411 . S
C885 C884 1.489 . S
C885 C886 1.383 1_655 S
C885 C890 1.382 . S
C886 H863 0.950 . S
C886 C885 1.383 1_455 S
C886 C887 1.395 . S
C887 H864 0.950 . S
C887 C886 1.395 . S
C887 C888 1.288 1_455 S
C888 C887 1.288 1_655 S
C888 C889 1.392 . S
C889 H865 0.951 . S
C889 C888 1.392 . S
C889 C890 1.392 . S
C890 H866 0.949 . S
C890 C885 1.382 . S
C890 C889 1.392 . S
C891 C892 1.376 . S
C891 C896 1.386 1_655 S
C891 C897 1.483 . S
C892 H867 0.949 . S
C892 C891 1.376 . S
C892 C893 1.397 . S
C893 H868 0.950 . S
C893 C892 1.397 . S
C893 C894 1.391 . S
C894 C893 1.391 . S
C894 C895 1.405 1_655 S
C895 H869 0.950 . S
C895 C894 1.405 1_455 S
C895 C896 1.367 . S
C896 H870 0.950 . S
C896 C891 1.386 1_455 S
C896 C895 1.367 . S
C897 C891 1.483 . S
C897 C898 1.382 . S
C897 C899 1.403 1_655 S
C898 H871 0.950 . S
C898 C884 1.411 . S
C898 C897 1.382 . S
C899 C883 1.411 . S
C899 C897 1.403 1_455 S
C899 C900 1.489 . S
C900 C899 1.489 . S
C900 C901 1.383 1_455 S
C900 C905 1.382 . S
C901 H872 0.950 . S
C901 C900 1.383 1_655 S
C901 C902 1.395 . S
C902 H873 0.950 . S
C902 C901 1.395 . S
C902 C903 1.288 1_655 S
C903 C902 1.288 1_455 S
C903 C904 1.392 . S
C904 H874 0.951 . S
C904 C903 1.392 . S
C904 C905 1.392 . S
C905 H875 0.949 . S
C905 C900 1.382 . S
C905 C904 1.392 . S
H906 C925 0.949 . S
H907 C926 0.950 . S
H908 C928 0.950 . S
H909 C929 0.950 . S
H910 C931 0.950 . S
H911 C934 0.950 . S
H912 C935 0.950 . S
H913 C937 0.951 . S
H914 C938 0.949 . S
H915 C940 0.949 . S
H916 C941 0.950 . S
H917 C943 0.950 . S
H918 C944 0.950 . S
H919 C946 0.950 . S
H920 C949 0.950 . S
H921 C950 0.950 . S
H922 C952 0.951 . S
H923 C953 0.949 . S
C924 C925 1.376 . S
C924 C929 1.386 . S
C924 C930 1.483 . S
C925 H906 0.949 . S
C925 C924 1.376 . S
C925 C926 1.397 . S
C926 H907 0.950 . S
C926 C925 1.397 . S
C926 C927 1.391 . S
C927 C926 1.391 . S
C927 C928 1.405 . S
C928 H908 0.950 . S
C928 C927 1.405 . S
C928 C929 1.367 . S
C929 H909 0.950 . S
C929 C924 1.386 . S
C929 C928 1.367 . S
C930 C924 1.483 . S
C930 C931 1.382 . S
C930 C932 1.403 . S
C931 H910 0.950 . S
C931 C930 1.382 . S
C931 C947 1.411 . S
C932 C930 1.403 . S
C932 C933 1.489 . S
C932 C946 1.411 . S
C933 C932 1.489 . S
C933 C934 1.383 . S
C933 C938 1.382 . S
C934 H911 0.950 . S
C934 C933 1.383 . S
C934 C935 1.395 . S
C935 H912 0.950 . S
C935 C934 1.395 . S
C935 C936 1.288 . S
C936 C935 1.288 . S
C936 C937 1.392 . S
C937 H913 0.951 . S
C937 C936 1.392 . S
C937 C938 1.392 . S
C938 H914 0.949 . S
C938 C933 1.382 . S
C938 C937 1.392 . S
C939 C940 1.376 . S
C939 C944 1.386 . S
C939 C945 1.483 . S
C940 H915 0.949 . S
C940 C939 1.376 . S
C940 C941 1.397 . S
C941 H916 0.950 . S
C941 C940 1.397 . S
C941 C942 1.391 . S
C942 C941 1.391 . S
C942 C943 1.405 . S
C943 H917 0.950 . S
C943 C942 1.405 . S
C943 C944 1.367 . S
C944 H918 0.950 . S
C944 C939 1.386 . S
C944 C943 1.367 . S
C945 C939 1.483 . S
C945 C946 1.382 . S
C945 C947 1.403 . S
C946 H919 0.950 . S
C946 C932 1.411 . S
C946 C945 1.382 . S
C947 C931 1.411 . S
C947 C945 1.403 . S
C947 C948 1.489 . S
C948 C947 1.489 . S
C948 C949 1.383 . S
C948 C953 1.382 . S
C949 H920 0.950 . S
C949 C948 1.383 . S
C949 C950 1.395 . S
C950 H921 0.950 . S
C950 C949 1.395 . S
C950 C951 1.288 . S
C951 C950 1.288 . S
C951 C952 1.392 . S
C952 H922 0.951 . S
C952 C951 1.392 . S
C952 C953 1.392 . S
C953 H923 0.949 . S
C953 C948 1.382 . S
C953 C952 1.392 . S
H954 C973 0.949 . S
H955 C974 0.950 . S
H956 C976 0.950 . S
H957 C977 0.950 . S
H958 C979 0.950 . S
H959 C982 0.950 . S
H960 C983 0.950 . S
H961 C985 0.951 . S
H962 C986 0.949 . S
H963 C988 0.949 . S
H964 C989 0.950 . S
H965 C991 0.950 . S
H966 C992 0.950 . S
H967 C994 0.950 . S
H968 C997 0.950 . S
H969 C998 0.950 . S
H970 C1000 0.951 . S
H971 C1001 0.949 . S
C972 C973 1.376 . S
C972 C977 1.386 . S
C972 C978 1.483 . S
C973 H954 0.949 . S
C973 C972 1.376 . S
C973 C974 1.397 . S
C974 H955 0.950 . S
C974 C973 1.397 . S
C974 C975 1.391 . S
C975 C974 1.391 . S
C975 C976 1.405 . S
C976 H956 0.950 . S
C976 C975 1.405 . S
C976 C977 1.367 . S
C977 H957 0.950 . S
C977 C972 1.386 . S
C977 C976 1.367 . S
C978 C972 1.483 . S
C978 C979 1.382 . S
C978 C980 1.403 . S
C979 H958 0.950 . S
C979 C978 1.382 . S
C979 C995 1.411 . S
C980 C978 1.403 . S
C980 C981 1.489 . S
C980 C994 1.411 . S
C981 C980 1.489 . S
C981 C982 1.383 . S
C981 C986 1.382 . S
C982 H959 0.950 . S
C982 C981 1.383 . S
C982 C983 1.395 . S
C983 H960 0.950 . S
C983 C982 1.395 . S
C983 C984 1.288 . S
C984 C983 1.288 . S
C984 C985 1.392 . S
C985 H961 0.951 . S
C985 C984 1.392 . S
C985 C986 1.392 . S
C986 H962 0.949 . S
C986 C981 1.382 . S
C986 C985 1.392 . S
C987 C988 1.376 . S
C987 C992 1.386 . S
C987 C993 1.483 . S
C988 H963 0.949 . S
C988 C987 1.376 . S
C988 C989 1.397 . S
C989 H964 0.950 . S
C989 C988 1.397 . S
C989 C990 1.391 . S
C990 C989 1.391 . S
C990 C991 1.405 . S
C991 H965 0.950 . S
C991 C990 1.405 . S
C991 C992 1.367 . S
C992 H966 0.950 . S
C992 C987 1.386 . S
C992 C991 1.367 . S
C993 C987 1.483 . S
C993 C994 1.382 . S
C993 C995 1.403 . S
C994 H967 0.950 . S
C994 C980 1.411 . S
C994 C993 1.382 . S
C995 C979 1.411 . S
C995 C993 1.403 . S
C995 C996 1.489 . S
C996 C995 1.489 . S
C996 C997 1.383 . S
C996 C1001 1.382 . S
C997 H968 0.950 . S
C997 C996 1.383 . S
C997 C998 1.395 . S
C998 H969 0.950 . S
C998 C997 1.395 . S
C998 C999 1.288 . S
C999 C998 1.288 . S
C999 C1000 1.392 . S
C1000 H970 0.951 . S
C1000 C999 1.392 . S
C1000 C1001 1.392 . S
C1001 H971 0.949 . S
C1001 C996 1.382 . S
C1001 C1000 1.392 . S
H1002 C1021 0.949 . S
H1003 C1022 0.950 . S
H1004 C1024 0.950 . S
H1005 C1025 0.950 . S
H1006 C1027 0.950 . S
H1007 C1030 0.950 . S
H1008 C1031 0.950 . S
H1009 C1033 0.951 . S
H1010 C1034 0.949 . S
H1011 C1036 0.949 . S
H1012 C1037 0.950 . S
H1013 C1039 0.950 . S
H1014 C1040 0.950 . S
H1015 C1042 0.950 . S
H1016 C1045 0.950 . S
H1017 C1046 0.950 . S
H1018 C1048 0.951 . S
H1019 C1049 0.949 . S
C1020 C1021 1.376 . S
C1020 C1025 1.386 . S
C1020 C1026 1.483 . S
C1021 H1002 0.949 . S
C1021 C1020 1.376 . S
C1021 C1022 1.397 . S
C1022 H1003 0.950 . S
C1022 C1021 1.397 . S
C1022 C1023 1.391 . S
C1023 C1022 1.391 . S
C1023 C1024 1.405 . S
C1024 H1004 0.950 . S
C1024 C1023 1.405 . S
C1024 C1025 1.367 . S
C1025 H1005 0.950 . S
C1025 C1020 1.386 . S
C1025 C1024 1.367 . S
C1026 C1020 1.483 . S
C1026 C1027 1.382 . S
C1026 C1028 1.403 . S
C1027 H1006 0.950 . S
C1027 C1026 1.382 . S
C1027 C1043 1.411 . S
C1028 C1026 1.403 . S
C1028 C1029 1.489 . S
C1028 C1042 1.411 . S
C1029 C1028 1.489 . S
C1029 C1030 1.383 . S
C1029 C1034 1.382 . S
C1030 H1007 0.950 . S
C1030 C1029 1.383 . S
C1030 C1031 1.395 . S
C1031 H1008 0.950 . S
C1031 C1030 1.395 . S
C1031 C1032 1.288 . S
C1032 C1031 1.288 . S
C1032 C1033 1.392 . S
C1033 H1009 0.951 . S
C1033 C1032 1.392 . S
C1033 C1034 1.392 . S
C1034 H1010 0.949 . S
C1034 C1029 1.382 . S
C1034 C1033 1.392 . S
C1035 C1036 1.376 . S
C1035 C1040 1.386 . S
C1035 C1041 1.483 . S
C1036 H1011 0.949 . S
C1036 C1035 1.376 . S
C1036 C1037 1.397 . S
C1037 H1012 0.950 . S
C1037 C1036 1.397 . S
C1037 C1038 1.391 . S
C1038 C1037 1.391 . S
C1038 C1039 1.405 . S
C1039 H1013 0.950 . S
C1039 C1038 1.405 . S
C1039 C1040 1.367 . S
C1040 H1014 0.950 . S
C1040 C1035 1.386 . S
C1040 C1039 1.367 . S
C1041 C1035 1.483 . S
C1041 C1042 1.382 . S
C1041 C1043 1.403 . S
C1042 H1015 0.950 . S
C1042 C1028 1.411 . S
C1042 C1041 1.382 . S
C1043 C1027 1.411 . S
C1043 C1041 1.403 . S
C1043 C1044 1.489 . S
C1044 C1043 1.489 . S
C1044 C1045 1.383 . S
C1044 C1049 1.382 . S
C1045 H1016 0.950 . S
C1045 C1044 1.383 . S
C1045 C1046 1.395 . S
C1046 H1017 0.950 . S
C1046 C1045 1.395 . S
C1046 C1047 1.288 . S
C1047 C1046 1.288 . S
C1047 C1048 1.392 . S
C1048 H1018 0.951 . S
C1048 C1047 1.392 . S
C1048 C1049 1.392 . S
C1049 H1019 0.949 . S
C1049 C1044 1.382 . S
C1049 C1048 1.392 . S
H1050 C1069 0.949 . S
H1051 C1070 0.950 . S
H1052 C1072 0.950 . S
H1053 C1073 0.950 . S
H1054 C1075 0.950 . S
H1055 C1078 0.950 . S
H1056 C1079 0.950 . S
H1057 C1081 0.951 . S
H1058 C1082 0.949 . S
H1059 C1084 0.949 . S
H1060 C1085 0.950 . S
H1061 C1087 0.950 . S
H1062 C1088 0.950 . S
H1063 C1090 0.950 . S
H1064 C1093 0.950 . S
H1065 C1094 0.950 . S
H1066 C1096 0.951 . S
H1067 C1097 0.949 . S
C1068 C1069 1.376 . S
C1068 C1073 1.386 . S
C1068 C1074 1.483 . S
C1069 H1050 0.949 . S
C1069 C1068 1.376 . S
C1069 C1070 1.397 . S
C1070 H1051 0.950 . S
C1070 C1069 1.397 . S
C1070 C1071 1.391 . S
C1071 C1070 1.391 . S
C1071 C1072 1.405 . S
C1072 H1052 0.950 . S
C1072 C1071 1.405 . S
C1072 C1073 1.367 . S
C1073 H1053 0.950 . S
C1073 C1068 1.386 . S
C1073 C1072 1.367 . S
C1074 C1068 1.483 . S
C1074 C1075 1.382 . S
C1074 C1076 1.403 . S
C1075 H1054 0.950 . S
C1075 C1074 1.382 . S
C1075 C1091 1.411 . S
C1076 C1074 1.403 . S
C1076 C1077 1.489 . S
C1076 C1090 1.411 . S
C1077 C1076 1.489 . S
C1077 C1078 1.383 . S
C1077 C1082 1.382 . S
C1078 H1055 0.950 . S
C1078 C1077 1.383 . S
C1078 C1079 1.395 . S
C1079 H1056 0.950 . S
C1079 C1078 1.395 . S
C1079 C1080 1.288 . S
C1080 C1079 1.288 . S
C1080 C1081 1.392 . S
C1081 H1057 0.951 . S
C1081 C1080 1.392 . S
C1081 C1082 1.392 . S
C1082 H1058 0.949 . S
C1082 C1077 1.382 . S
C1082 C1081 1.392 . S
C1083 C1084 1.376 . S
C1083 C1088 1.386 . S
C1083 C1089 1.483 . S
C1084 H1059 0.949 . S
C1084 C1083 1.376 . S
C1084 C1085 1.397 . S
C1085 H1060 0.950 . S
C1085 C1084 1.397 . S
C1085 C1086 1.391 . S
C1086 C1085 1.391 . S
C1086 C1087 1.405 . S
C1087 H1061 0.950 . S
C1087 C1086 1.405 . S
C1087 C1088 1.367 . S
C1088 H1062 0.950 . S
C1088 C1083 1.386 . S
C1088 C1087 1.367 . S
C1089 C1083 1.483 . S
C1089 C1090 1.382 . S
C1089 C1091 1.403 . S
C1090 H1063 0.950 . S
C1090 C1076 1.411 . S
C1090 C1089 1.382 . S
C1091 C1075 1.411 . S
C1091 C1089 1.403 . S
C1091 C1092 1.489 . S
C1092 C1091 1.489 . S
C1092 C1093 1.383 . S
C1092 C1097 1.382 . S
C1093 H1064 0.950 . S
C1093 C1092 1.383 . S
C1093 C1094 1.395 . S
C1094 H1065 0.950 . S
C1094 C1093 1.395 . S
C1094 C1095 1.288 . S
C1095 C1094 1.288 . S
C1095 C1096 1.392 . S
C1096 H1066 0.951 . S
C1096 C1095 1.392 . S
C1096 C1097 1.392 . S
C1097 H1067 0.949 . S
C1097 C1092 1.382 . S
C1097 C1096 1.392 . S
H1098 C1116 0.951 . S
H1099 C1118 0.951 . S
H1100 C1120 0.950 . S
H1101 C1121 0.950 . S
H1102 C1123 0.950 . S
H1103 C1126 0.950 . S
H1104 C1127 0.950 . S
H1105 C1129 0.950 . S
H1106 C1130 0.950 . S
H1107 C1131 0.951 . S
H1108 C1133 0.951 . S
H1109 C1135 0.950 . S
H1110 C1136 0.950 . S
H1111 C1138 0.950 . S
H1112 C1141 0.950 . S
H1113 C1142 0.950 . S
H1114 C1144 0.950 . S
H1115 C1145 0.950 . S
C1116 H1098 0.951 . S
C1116 C1117 1.366 . S
C1116 C1118 1.388 . S
C1117 C1116 1.366 . S
C1117 C1121 1.385 1_655 S
C1118 H1099 0.951 . S
C1118 C1116 1.388 . S
C1118 C1119 1.366 . S
C1119 C1118 1.366 . S
C1119 C1120 1.414 1_655 S
C1119 C1122 1.499 . S
C1120 H1100 0.950 . S
C1120 C1119 1.414 1_455 S
C1120 C1121 1.374 . S
C1121 H1101 0.950 . S
C1121 C1117 1.385 1_455 S
C1121 C1120 1.374 . S
C1122 C1119 1.499 . S
C1122 C1123 1.373 1_655 S
C1122 C1124 1.389 . S
C1123 H1102 0.950 . S
C1123 C1122 1.373 1_455 S
C1123 C1139 1.377 . S
C1124 C1122 1.389 . S
C1124 C1125 1.524 . S
C1124 C1138 1.377 . S
C1125 C1124 1.524 . S
C1125 C1126 1.397 . S
C1125 C1130 1.363 . S
C1126 H1103 0.950 . S
C1126 C1125 1.397 . S
C1126 C1127 1.334 . S
C1127 H1104 0.950 . S
C1127 C1126 1.334 . S
C1127 C1128 1.287 . S
C1128 C1127 1.287 . S
C1128 C1129 1.524 . S
C1128 H1147 0.913 . S
C1129 H1105 0.950 . S
C1129 C1128 1.524 . S
C1129 C1130 1.415 . S
C1130 H1106 0.950 . S
C1130 C1125 1.363 . S
C1130 C1129 1.415 . S
C1131 H1107 0.951 . S
C1131 C1132 1.366 1_455 S
C1131 C1133 1.388 . S
C1132 C1131 1.366 1_655 S
C1132 C1136 1.385 . S
C1133 H1108 0.951 . S
C1133 C1131 1.388 . S
C1133 C1134 1.366 1_455 S
C1134 C1133 1.366 1_655 S
C1134 C1135 1.414 . S
C1134 C1137 1.499 . S
C1135 H1109 0.950 . S
C1135 C1134 1.414 . S
C1135 C1136 1.374 . S
C1136 H1110 0.950 . S
C1136 C1132 1.385 . S
C1136 C1135 1.374 . S
C1137 C1134 1.499 . S
C1137 C1138 1.373 . S
C1137 C1139 1.389 1_655 S
C1138 H1111 0.950 . S
C1138 C1124 1.377 . S
C1138 C1137 1.373 . S
C1139 C1123 1.377 . S
C1139 C1137 1.389 1_455 S
C1139 C1140 1.524 . S
C1140 C1139 1.524 . S
C1140 C1141 1.397 . S
C1140 C1145 1.363 . S
C1141 H1112 0.950 . S
C1141 C1140 1.397 . S
C1141 C1142 1.334 . S
C1142 H1113 0.950 . S
C1142 C1141 1.334 . S
C1142 C1143 1.287 . S
C1143 C1142 1.287 . S
C1143 C1144 1.524 . S
C1143 H1146 0.999 . S
C1144 H1114 0.950 . S
C1144 C1143 1.524 . S
C1144 C1145 1.415 . S
C1145 H1115 0.950 . S
C1145 C1140 1.363 . S
C1145 C1144 1.415 . S
H1146 C1143 0.999 . S
H1147 C1128 0.913 . S
H1148 C1166 0.951 . S
H1149 C1168 0.951 . S
H1150 C1170 0.950 . S
H1151 C1171 0.950 . S
H1152 C1173 0.950 . S
H1153 C1176 0.950 . S
H1154 C1177 0.950 . S
H1155 C1179 0.950 . S
H1156 C1180 0.950 . S
H1157 C1181 0.951 . S
H1158 C1183 0.951 . S
H1159 C1185 0.950 . S
H1160 C1186 0.950 . S
H1161 C1188 0.950 . S
H1162 C1191 0.950 . S
H1163 C1192 0.950 . S
H1164 C1194 0.950 . S
H1165 C1195 0.950 . S
C1166 H1148 0.951 . S
C1166 C1167 1.366 . S
C1166 C1168 1.388 . S
C1167 C1166 1.366 . S
C1167 C1171 1.385 . S
C1168 H1149 0.951 . S
C1168 C1166 1.388 . S
C1168 C1169 1.366 . S
C1169 C1168 1.366 . S
C1169 C1170 1.414 . S
C1169 C1172 1.499 . S
C1170 H1150 0.950 . S
C1170 C1169 1.414 . S
C1170 C1171 1.374 . S
C1171 H1151 0.950 . S
C1171 C1167 1.385 . S
C1171 C1170 1.374 . S
C1172 C1169 1.499 . S
C1172 C1173 1.373 . S
C1172 C1174 1.389 . S
C1173 H1152 0.950 . S
C1173 C1172 1.373 . S
C1173 C1189 1.377 . S
C1174 C1172 1.389 . S
C1174 C1175 1.524 . S
C1174 C1188 1.377 . S
C1175 C1174 1.524 . S
C1175 C1176 1.397 . S
C1175 C1180 1.363 . S
C1176 H1153 0.950 . S
C1176 C1175 1.397 . S
C1176 C1177 1.334 . S
C1177 H1154 0.950 . S
C1177 C1176 1.334 . S
C1177 C1178 1.287 . S
C1178 C1177 1.287 . S
C1178 C1179 1.524 . S
C1178 H1197 0.913 . S
C1179 H1155 0.950 . S
C1179 C1178 1.524 . S
C1179 C1180 1.415 . S
C1180 H1156 0.950 . S
C1180 C1175 1.363 . S
C1180 C1179 1.415 . S
C1181 H1157 0.951 . S
C1181 C1182 1.366 . S
C1181 C1183 1.388 . S
C1182 C1181 1.366 . S
C1182 C1186 1.385 . S
C1183 H1158 0.951 . S
C1183 C1181 1.388 . S
C1183 C1184 1.366 . S
C1184 C1183 1.366 . S
C1184 C1185 1.414 . S
C1184 C1187 1.499 . S
C1185 H1159 0.950 . S
C1185 C1184 1.414 . S
C1185 C1186 1.374 . S
C1186 H1160 0.950 . S
C1186 C1182 1.385 . S
C1186 C1185 1.374 . S
C1187 C1184 1.499 . S
C1187 C1188 1.373 . S
C1187 C1189 1.389 . S
C1188 H1161 0.950 . S
C1188 C1174 1.377 . S
C1188 C1187 1.373 . S
C1189 C1173 1.377 . S
C1189 C1187 1.389 . S
C1189 C1190 1.524 . S
C1190 C1189 1.524 . S
C1190 C1191 1.397 . S
C1190 C1195 1.363 . S
C1191 H1162 0.950 . S
C1191 C1190 1.397 . S
C1191 C1192 1.334 . S
C1192 H1163 0.950 . S
C1192 C1191 1.334 . S
C1192 C1193 1.287 . S
C1193 C1192 1.287 . S
C1193 C1194 1.524 . S
C1193 H1196 0.999 . S
C1194 H1164 0.950 . S
C1194 C1193 1.524 . S
C1194 C1195 1.415 . S
C1195 H1165 0.950 . S
C1195 C1190 1.363 . S
C1195 C1194 1.415 . S
H1196 C1193 0.999 . S
H1197 C1178 0.913 . S
H1198 C1216 0.951 . S
H1199 C1218 0.951 . S
H1200 C1220 0.950 . S
H1201 C1221 0.950 . S
H1202 C1223 0.950 . S
H1203 C1226 0.950 . S
H1204 C1227 0.950 . S
H1205 C1229 0.940 . S
H1206 C1230 0.950 . S
H1207 C1231 0.971 . S
H1208 C1233 0.972 1_565 S
H1209 C1235 0.950 . S
H1210 C1236 0.950 . S
H1211 C1238 0.950 . S
H1212 C1241 0.950 . S
H1213 C1242 0.950 . S
H1214 C1244 0.950 . S
H1215 C1245 0.950 . S
C1216 H1198 0.951 . S
C1216 C1217 1.366 . S
C1216 C1218 1.388 . S
C1217 C1216 1.366 . S
C1217 C1221 1.385 . S
C1218 H1199 0.951 . S
C1218 C1216 1.388 . S
C1218 C1219 1.366 . S
C1219 C1218 1.366 . S
C1219 C1220 1.414 . S
C1219 C1222 1.499 . S
C1220 H1200 0.950 . S
C1220 C1219 1.414 . S
C1220 C1221 1.374 . S
C1221 H1201 0.950 . S
C1221 C1217 1.385 . S
C1221 C1220 1.374 . S
C1222 C1219 1.499 . S
C1222 C1223 1.373 . S
C1222 C1224 1.389 . S
C1223 H1202 0.950 . S
C1223 C1222 1.373 . S
C1223 C1239 1.377 . S
C1224 C1222 1.389 . S
C1224 C1225 1.524 1_545 S
C1224 C1238 1.377 . S
C1225 C1224 1.524 1_565 S
C1225 C1226 1.397 . S
C1225 C1230 1.363 1_565 S
C1226 H1203 0.950 . S
C1226 C1225 1.397 . S
C1226 C1227 1.334 . S
C1227 H1204 0.950 . S
C1227 C1226 1.334 . S
C1227 C1228 1.287 . S
C1228 C1227 1.287 . S
C1228 C1229 1.524 . S
C1228 H1247 0.913 . S
C1229 H1205 0.940 . S
C1229 C1228 1.524 . S
C1229 C1230 1.415 1_565 S
C1230 H1206 0.950 . S
C1230 C1225 1.363 1_545 S
C1230 C1229 1.415 1_545 S
C1231 H1207 0.971 . S
C1231 C1232 1.377 1_565 S
C1231 C1233 1.314 1_565 S
C1232 C1231 1.377 1_545 S
C1232 C1236 1.385 . S
C1233 H1208 0.972 1_545 S
C1233 C1231 1.314 1_545 S
C1233 C1234 1.403 . S
C1234 C1233 1.403 . S
C1234 C1235 1.414 . S
C1234 C1237 1.499 . S
C1235 H1209 0.950 . S
C1235 C1234 1.414 . S
C1235 C1236 1.374 . S
C1236 H1210 0.950 . S
C1236 C1232 1.385 . S
C1236 C1235 1.374 . S
C1237 C1234 1.499 . S
C1237 C1238 1.373 . S
C1237 C1239 1.389 . S
C1238 H1211 0.950 . S
C1238 C1224 1.377 . S
C1238 C1237 1.373 . S
C1239 C1223 1.377 . S
C1239 C1237 1.389 . S
C1239 C1240 1.524 . S
C1240 C1239 1.524 . S
C1240 C1241 1.397 . S
C1240 C1245 1.363 . S
C1241 H1212 0.950 . S
C1241 C1240 1.397 . S
C1241 C1242 1.334 . S
C1242 H1213 0.950 . S
C1242 C1241 1.334 . S
C1242 C1243 1.287 . S
C1243 C1242 1.287 . S
C1243 C1244 1.524 . S
C1243 H1246 0.999 . S
C1244 H1214 0.950 . S
C1244 C1243 1.524 . S
C1244 C1245 1.415 . S
C1245 H1215 0.950 . S
C1245 C1240 1.363 . S
C1245 C1244 1.415 . S
H1246 C1243 0.999 . S
H1247 C1228 0.913 . S
H1248 C1266 0.951 . S
H1249 C1268 0.951 . S
H1250 C1270 0.950 . S
H1251 C1271 0.950 . S
H1252 C1273 0.950 . S
H1253 C1276 0.950 . S
H1254 C1277 0.950 . S
H1255 C1279 0.950 . S
H1256 C1280 0.950 . S
H1257 C1281 0.951 . S
H1258 C1283 0.951 . S
H1259 C1285 0.950 . S
H1260 C1286 0.950 . S
H1261 C1288 0.950 . S
H1262 C1291 0.950 . S
H1263 C1292 0.950 . S
H1264 C1294 0.950 . S
H1265 C1295 0.950 . S
C1266 H1248 0.951 . S
C1266 C1267 1.382 . S
C1266 C1268 1.388 . S
C1267 C1266 1.382 . S
C1267 C1271 1.350 1_545 S
C1268 H1249 0.951 . S
C1268 C1266 1.388 . S
C1268 C1269 1.383 . S
C1269 C1268 1.383 . S
C1269 C1270 1.406 1_545 S
C1269 C1272 1.479 1_545 S
C1270 H1250 0.950 . S
C1270 C1269 1.406 1_565 S
C1270 C1271 1.374 . S
C1271 H1251 0.950 . S
C1271 C1267 1.350 1_565 S
C1271 C1270 1.374 . S
C1272 C1269 1.479 1_565 S
C1272 C1273 1.398 . S
C1272 C1274 1.375 1_565 S
C1273 H1252 0.950 . S
C1273 C1272 1.398 . S
C1273 C1289 1.377 . S
C1274 C1272 1.375 1_545 S
C1274 C1275 1.524 . S
C1274 C1288 1.377 . S
C1275 C1274 1.524 . S
C1275 C1276 1.397 . S
C1275 C1280 1.363 . S
C1276 H1253 0.950 . S
C1276 C1275 1.397 . S
C1276 C1277 1.334 . S
C1277 H1254 0.950 . S
C1277 C1276 1.334 . S
C1277 C1278 1.287 . S
C1278 C1277 1.287 . S
C1278 C1279 1.524 . S
C1278 H1297 0.913 . S
C1279 H1255 0.950 . S
C1279 C1278 1.524 . S
C1279 C1280 1.415 . S
C1280 H1256 0.950 . S
C1280 C1275 1.363 . S
C1280 C1279 1.415 . S
C1281 H1257 0.951 . S
C1281 C1282 1.366 . S
C1281 C1283 1.388 . S
C1282 C1281 1.366 . S
C1282 C1286 1.385 1_565 S
C1283 H1258 0.951 . S
C1283 C1281 1.388 . S
C1283 C1284 1.366 . S
C1284 C1283 1.366 . S
C1284 C1285 1.414 1_565 S
C1284 C1287 1.531 . S
C1285 H1259 0.950 . S
C1285 C1284 1.414 1_545 S
C1285 C1286 1.374 . S
C1286 H1260 0.950 . S
C1286 C1282 1.385 1_545 S
C1286 C1285 1.374 . S
C1287 C1284 1.531 . S
C1287 C1288 1.298 1_565 S
C1287 C1289 1.433 . S
C1288 H1261 0.950 . S
C1288 C1274 1.377 . S
C1288 C1287 1.298 1_545 S
C1289 C1273 1.377 . S
C1289 C1287 1.433 . S
C1289 C1290 1.524 . S
C1290 C1289 1.524 . S
C1290 C1291 1.397 . S
C1290 C1295 1.363 . S
C1291 H1262 0.950 . S
C1291 C1290 1.397 . S
C1291 C1292 1.334 . S
C1292 H1263 0.950 . S
C1292 C1291 1.334 . S
C1292 C1293 1.287 . S
C1293 C1292 1.287 . S
C1293 C1294 1.524 . S
C1293 H1296 0.999 . S
C1294 H1264 0.950 . S
C1294 C1293 1.524 . S
C1294 C1295 1.415 . S
C1295 H1265 0.950 . S
C1295 C1290 1.363 . S
C1295 C1294 1.415 . S
H1296 C1293 0.999 . S
H1297 C1278 0.913 . S
H1298 C1316 0.956 . S
H1299 C1318 0.951 . S
H1300 C1320 0.950 . S
H1301 C1321 0.950 . S
H1302 C1323 0.950 . S
H1303 C1326 0.950 . S
H1304 C1327 0.950 . S
H1305 C1329 0.950 . S
H1306 C1330 0.950 . S
H1307 C1331 0.951 . S
H1308 C1333 0.951 . S
H1309 C1335 0.950 . S
H1310 C1336 0.950 . S
H1311 C1338 0.950 . S
H1312 C1341 0.950 . S
H1313 C1342 0.950 . S
H1314 C1344 0.950 . S
H1315 C1345 0.950 . S
C1316 H1298 0.956 . S
C1316 C1317 1.357 1_655 S
C1316 C1318 1.392 . S
C1317 C1316 1.357 1_455 S
C1317 C1321 1.385 . S
C1318 H1299 0.951 . S
C1318 C1316 1.392 . S
C1318 C1319 1.366 1_655 S
C1319 C1318 1.366 1_455 S
C1319 C1320 1.414 . S
C1319 C1322 1.499 . S
C1320 H1300 0.950 . S
C1320 C1319 1.414 . S
C1320 C1321 1.374 . S
C1321 H1301 0.950 . S
C1321 C1317 1.385 . S
C1321 C1320 1.374 . S
C1322 C1319 1.499 . S
C1322 C1323 1.373 . S
C1322 C1324 1.389 1_455 S
C1323 H1302 0.950 . S
C1323 C1322 1.373 . S
C1323 C1339 1.377 . S
C1324 C1322 1.389 1_655 S
C1324 C1325 1.524 . S
C1324 C1338 1.377 . S
C1325 C1324 1.524 . S
C1325 C1326 1.397 . S
C1325 C1330 1.363 . S
C1326 H1303 0.950 . S
C1326 C1325 1.397 . S
C1326 C1327 1.334 . S
C1327 H1304 0.950 . S
C1327 C1326 1.334 . S
C1327 C1328 1.287 . S
C1328 C1327 1.287 . S
C1328 C1329 1.524 . S
C1328 H1347 0.913 . S
C1329 H1305 0.950 . S
C1329 C1328 1.524 . S
C1329 C1330 1.415 . S
C1330 H1306 0.950 . S
C1330 C1325 1.363 . S
C1330 C1329 1.415 . S
C1331 H1307 0.951 . S
C1331 C1332 1.366 . S
C1331 C1333 1.388 . S
C1332 C1331 1.366 . S
C1332 C1336 1.385 1_455 S
C1333 H1308 0.951 . S
C1333 C1331 1.388 . S
C1333 C1334 1.366 . S
C1334 C1333 1.366 . S
C1334 C1335 1.414 1_455 S
C1334 C1337 1.499 . S
C1335 H1309 0.950 . S
C1335 C1334 1.414 1_655 S
C1335 C1336 1.374 . S
C1336 H1310 0.950 . S
C1336 C1332 1.385 1_655 S
C1336 C1335 1.374 . S
C1337 C1334 1.499 . S
C1337 C1338 1.373 1_455 S
C1337 C1339 1.389 . S
C1338 H1311 0.950 . S
C1338 C1324 1.377 . S
C1338 C1337 1.373 1_655 S
C1339 C1323 1.377 . S
C1339 C1337 1.389 . S
C1339 C1340 1.524 . S
C1340 C1339 1.524 . S
C1340 C1341 1.397 . S
C1340 C1345 1.363 . S
C1341 H1312 0.950 . S
C1341 C1340 1.397 . S
C1341 C1342 1.334 . S
C1342 H1313 0.950 . S
C1342 C1341 1.334 . S
C1342 C1343 1.287 . S
C1343 C1342 1.287 . S
C1343 C1344 1.524 . S
C1343 H1346 0.999 . S
C1344 H1314 0.950 . S
C1344 C1343 1.524 . S
C1344 C1345 1.415 . S
C1345 H1315 0.950 . S
C1345 C1340 1.363 . S
C1345 C1344 1.415 . S
H1346 C1343 0.999 . S
H1347 C1328 0.913 . S
H1348 C1366 0.951 . S
H1349 C1368 0.951 . S
H1350 C1370 0.950 . S
H1351 C1371 0.950 . S
H1352 C1373 0.950 . S
H1353 C1376 0.950 . S
H1354 C1377 0.950 . S
H1355 C1379 0.950 . S
H1356 C1380 0.950 . S
H1357 C1381 0.951 . S
H1358 C1383 0.951 . S
H1359 C1385 0.950 . S
H1360 C1386 0.950 . S
H1361 C1388 0.950 . S
H1362 C1391 0.950 . S
H1363 C1392 0.950 . S
H1364 C1394 0.950 . S
H1365 C1395 0.950 . S
C1366 H1348 0.951 . S
C1366 C1367 1.366 . S
C1366 C1368 1.388 . S
C1367 C1366 1.366 . S
C1367 C1371 1.385 . S
C1368 H1349 0.951 . S
C1368 C1366 1.388 . S
C1368 C1369 1.366 . S
C1369 C1368 1.366 . S
C1369 C1370 1.414 . S
C1369 C1372 1.499 . S
C1370 H1350 0.950 . S
C1370 C1369 1.414 . S
C1370 C1371 1.374 . S
C1371 H1351 0.950 . S
C1371 C1367 1.385 . S
C1371 C1370 1.374 . S
C1372 C1369 1.499 . S
C1372 C1373 1.373 . S
C1372 C1374 1.389 . S
C1373 H1352 0.950 . S
C1373 C1372 1.373 . S
C1373 C1389 1.377 . S
C1374 C1372 1.389 . S
C1374 C1375 1.524 . S
C1374 C1388 1.377 . S
C1375 C1374 1.524 . S
C1375 C1376 1.397 . S
C1375 C1380 1.363 . S
C1376 H1353 0.950 . S
C1376 C1375 1.397 . S
C1376 C1377 1.334 . S
C1377 H1354 0.950 . S
C1377 C1376 1.334 . S
C1377 C1378 1.287 . S
C1378 C1377 1.287 . S
C1378 C1379 1.524 . S
C1378 H1397 0.913 . S
C1379 H1355 0.950 . S
C1379 C1378 1.524 . S
C1379 C1380 1.415 . S
C1380 H1356 0.950 . S
C1380 C1375 1.363 . S
C1380 C1379 1.415 . S
C1381 H1357 0.951 . S
C1381 C1382 1.366 . S
C1381 C1383 1.388 . S
C1382 C1381 1.366 . S
C1382 C1386 1.385 . S
C1383 H1358 0.951 . S
C1383 C1381 1.388 . S
C1383 C1384 1.366 . S
C1384 C1383 1.366 . S
C1384 C1385 1.414 . S
C1384 C1387 1.499 . S
C1385 H1359 0.950 . S
C1385 C1384 1.414 . S
C1385 C1386 1.374 . S
C1386 H1360 0.950 . S
C1386 C1382 1.385 . S
C1386 C1385 1.374 . S
C1387 C1384 1.499 . S
C1387 C1388 1.373 . S
C1387 C1389 1.389 . S
C1388 H1361 0.950 . S
C1388 C1374 1.377 . S
C1388 C1387 1.373 . S
C1389 C1373 1.377 . S
C1389 C1387 1.389 . S
C1389 C1390 1.524 . S
C1390 C1389 1.524 . S
C1390 C1391 1.397 . S
C1390 C1395 1.363 . S
C1391 H1362 0.950 . S
C1391 C1390 1.397 . S
C1391 C1392 1.334 . S
C1392 H1363 0.950 . S
C1392 C1391 1.334 . S
C1392 C1393 1.287 . S
C1393 C1392 1.287 . S
C1393 C1394 1.524 . S
C1393 H1396 0.999 . S
C1394 H1364 0.950 . S
C1394 C1393 1.524 . S
C1394 C1395 1.415 . S
C1395 H1365 0.950 . S
C1395 C1390 1.363 . S
C1395 C1394 1.415 . S
H1396 C1393 0.999 . S
H1397 C1378 0.913 . S
H1398 C1416 0.951 . S
H1399 C1418 0.951 . S
H1400 C1420 0.950 . S
H1401 C1421 0.950 . S
H1402 C1423 0.950 . S
H1403 C1426 0.950 . S
H1404 C1427 0.950 . S
H1405 C1429 0.950 . S
H1406 C1430 0.950 . S
H1407 C1431 0.951 . S
H1408 C1433 0.951 . S
H1409 C1435 0.950 . S
H1410 C1436 0.950 . S
H1411 C1438 0.950 . S
H1412 C1441 0.950 . S
H1413 C1442 0.950 . S
H1414 C1444 0.950 . S
H1415 C1445 0.950 . S
C1416 H1398 0.951 . S
C1416 C1417 1.366 1_655 S
C1416 C1418 1.388 . S
C1417 C1416 1.366 1_455 S
C1417 C1421 1.385 . S
C1418 H1399 0.951 . S
C1418 C1416 1.388 . S
C1418 C1419 1.366 1_655 S
C1419 C1418 1.366 1_455 S
C1419 C1420 1.414 . S
C1419 C1422 1.499 . S
C1420 H1400 0.950 . S
C1420 C1419 1.414 . S
C1420 C1421 1.374 . S
C1421 H1401 0.950 . S
C1421 C1417 1.385 . S
C1421 C1420 1.374 . S
C1422 C1419 1.499 . S
C1422 C1423 1.373 . S
C1422 C1424 1.389 1_455 S
C1423 H1402 0.950 . S
C1423 C1422 1.373 . S
C1423 C1439 1.377 . S
C1424 C1422 1.389 1_655 S
C1424 C1425 1.524 . S
C1424 C1438 1.377 . S
C1425 C1424 1.524 . S
C1425 C1426 1.397 . S
C1425 C1430 1.363 . S
C1426 H1403 0.950 . S
C1426 C1425 1.397 . S
C1426 C1427 1.334 . S
C1427 H1404 0.950 . S
C1427 C1426 1.334 . S
C1427 C1428 1.287 . S
C1428 C1427 1.287 . S
C1428 C1429 1.524 . S
C1428 H1447 0.913 . S
C1429 H1405 0.950 . S
C1429 C1428 1.524 . S
C1429 C1430 1.415 . S
C1430 H1406 0.950 . S
C1430 C1425 1.363 . S
C1430 C1429 1.415 . S
C1431 H1407 0.951 . S
C1431 C1432 1.366 . S
C1431 C1433 1.388 . S
C1432 C1431 1.366 . S
C1432 C1436 1.385 1_455 S
C1433 H1408 0.951 . S
C1433 C1431 1.388 . S
C1433 C1434 1.366 . S
C1434 C1433 1.366 . S
C1434 C1435 1.414 1_455 S
C1434 C1437 1.499 . S
C1435 H1409 0.950 . S
C1435 C1434 1.414 1_655 S
C1435 C1436 1.374 . S
C1436 H1410 0.950 . S
C1436 C1432 1.385 1_655 S
C1436 C1435 1.374 . S
C1437 C1434 1.499 . S
C1437 C1438 1.373 1_455 S
C1437 C1439 1.389 . S
C1438 H1411 0.950 . S
C1438 C1424 1.377 . S
C1438 C1437 1.373 1_655 S
C1439 C1423 1.377 . S
C1439 C1437 1.389 . S
C1439 C1440 1.524 . S
C1440 C1439 1.524 . S
C1440 C1441 1.397 . S
C1440 C1445 1.363 . S
C1441 H1412 0.950 . S
C1441 C1440 1.397 . S
C1441 C1442 1.334 . S
C1442 H1413 0.950 . S
C1442 C1441 1.334 . S
C1442 C1443 1.287 . S
C1443 C1442 1.287 . S
C1443 C1444 1.524 . S
C1443 H1446 0.999 . S
C1444 H1414 0.950 . S
C1444 C1443 1.524 . S
C1444 C1445 1.415 . S
C1445 H1415 0.950 . S
C1445 C1440 1.363 . S
C1445 C1444 1.415 . S
H1446 C1443 0.999 . S
H1447 C1428 0.913 . S
H1448 C1466 0.951 . S
H1449 C1468 0.951 . S
H1450 C1470 0.950 . S
H1451 C1471 0.950 . S
H1452 C1473 0.950 . S
H1453 C1476 0.950 . S
H1454 C1477 0.950 . S
H1455 C1479 0.950 . S
H1456 C1480 0.950 . S
H1457 C1481 0.951 . S
H1458 C1483 0.951 . S
H1459 C1485 0.950 . S
H1460 C1486 0.950 . S
H1461 C1488 0.950 . S
H1462 C1491 0.950 . S
H1463 C1492 0.950 . S
H1464 C1494 0.950 . S
H1465 C1495 0.950 . S
C1466 H1448 0.951 . S
C1466 C1467 1.366 . S
C1466 C1468 1.388 . S
C1467 C1466 1.366 . S
C1467 C1471 1.385 . S
C1468 H1449 0.951 . S
C1468 C1466 1.388 . S
C1468 C1469 1.366 . S
C1469 C1468 1.366 . S
C1469 C1470 1.414 . S
C1469 C1472 1.499 . S
C1470 H1450 0.950 . S
C1470 C1469 1.414 . S
C1470 C1471 1.374 . S
C1471 H1451 0.950 . S
C1471 C1467 1.385 . S
C1471 C1470 1.374 . S
C1472 C1469 1.499 . S
C1472 C1473 1.373 . S
C1472 C1474 1.389 . S
C1473 H1452 0.950 . S
C1473 C1472 1.373 . S
C1473 C1489 1.377 . S
C1474 C1472 1.389 . S
C1474 C1475 1.524 . S
C1474 C1488 1.377 . S
C1475 C1474 1.524 . S
C1475 C1476 1.397 . S
C1475 C1480 1.363 . S
C1476 H1453 0.950 . S
C1476 C1475 1.397 . S
C1476 C1477 1.334 . S
C1477 H1454 0.950 . S
C1477 C1476 1.334 . S
C1477 C1478 1.287 . S
C1478 C1477 1.287 . S
C1478 C1479 1.524 . S
C1478 H1497 0.913 . S
C1479 H1455 0.950 . S
C1479 C1478 1.524 . S
C1479 C1480 1.415 . S
C1480 H1456 0.950 . S
C1480 C1475 1.363 . S
C1480 C1479 1.415 . S
C1481 H1457 0.951 . S
C1481 C1482 1.366 . S
C1481 C1483 1.388 . S
C1482 C1481 1.366 . S
C1482 C1486 1.385 . S
C1483 H1458 0.951 . S
C1483 C1481 1.388 . S
C1483 C1484 1.366 . S
C1484 C1483 1.366 . S
C1484 C1485 1.414 . S
C1484 C1487 1.499 . S
C1485 H1459 0.950 . S
C1485 C1484 1.414 . S
C1485 C1486 1.374 . S
C1486 H1460 0.950 . S
C1486 C1482 1.385 . S
C1486 C1485 1.374 . S
C1487 C1484 1.499 . S
C1487 C1488 1.373 . S
C1487 C1489 1.389 . S
C1488 H1461 0.950 . S
C1488 C1474 1.377 . S
C1488 C1487 1.373 . S
C1489 C1473 1.377 . S
C1489 C1487 1.389 . S
C1489 C1490 1.524 . S
C1490 C1489 1.524 . S
C1490 C1491 1.397 . S
C1490 C1495 1.363 . S
C1491 H1462 0.950 . S
C1491 C1490 1.397 . S
C1491 C1492 1.334 . S
C1492 H1463 0.950 . S
C1492 C1491 1.334 . S
C1492 C1493 1.287 . S
C1493 C1492 1.287 . S
C1493 C1494 1.524 . S
C1493 H1496 0.999 . S
C1494 H1464 0.950 . S
C1494 C1493 1.524 . S
C1494 C1495 1.415 . S
C1495 H1465 0.950 . S
C1495 C1490 1.363 . S
C1495 C1494 1.415 . S
H1496 C1493 0.999 . S
H1497 C1478 0.913 . S
H1498 C1516 0.951 . S
H1499 C1518 0.951 . S
H1500 C1520 0.950 . S
H1501 C1521 0.950 . S
H1502 C1523 0.950 . S
H1503 C1526 0.950 . S
H1504 C1527 0.950 . S
H1505 C1529 0.950 . S
H1506 C1530 0.950 . S
H1507 C1531 0.951 . S
H1508 C1533 0.951 . S
H1509 C1535 0.951 . S
H1510 C1536 0.946 1_545 S
H1511 C1538 0.950 . S
H1512 C1541 0.950 . S
H1513 C1542 0.950 . S
H1514 C1544 0.950 . S
H1515 C1545 0.950 . S
C1516 H1498 0.951 . S
C1516 C1517 1.366 . S
C1516 C1518 1.388 . S
C1517 C1516 1.366 . S
C1517 C1521 1.385 . S
C1518 H1499 0.951 . S
C1518 C1516 1.388 . S
C1518 C1519 1.366 . S
C1519 C1518 1.366 . S
C1519 C1520 1.414 . S
C1519 C1522 1.499 . S
C1520 H1500 0.950 . S
C1520 C1519 1.414 . S
C1520 C1521 1.374 . S
C1521 H1501 0.950 . S
C1521 C1517 1.385 . S
C1521 C1520 1.374 . S
C1522 C1519 1.499 . S
C1522 C1523 1.373 . S
C1522 C1524 1.389 1_565 S
C1523 H1502 0.950 . S
C1523 C1522 1.373 . S
C1523 C1539 1.377 . S
C1524 C1522 1.389 1_545 S
C1524 C1525 1.524 . S
C1524 C1538 1.377 . S
C1525 C1524 1.524 . S
C1525 C1526 1.397 . S
C1525 C1530 1.363 . S
C1526 H1503 0.950 . S
C1526 C1525 1.397 . S
C1526 C1527 1.334 . S
C1527 H1504 0.950 . S
C1527 C1526 1.334 . S
C1527 C1528 1.287 . S
C1528 C1527 1.287 . S
C1528 C1529 1.524 . S
C1528 H1547 0.913 . S
C1529 H1505 0.950 . S
C1529 C1528 1.524 . S
C1529 C1530 1.415 . S
C1530 H1506 0.950 . S
C1530 C1525 1.363 . S
C1530 C1529 1.415 . S
C1531 H1507 0.951 . S
C1531 C1532 1.366 . S
C1531 C1533 1.388 . S
C1532 C1531 1.366 . S
C1532 C1536 1.385 . S
C1533 H1508 0.951 . S
C1533 C1531 1.388 . S
C1533 C1534 1.366 . S
C1534 C1533 1.366 . S
C1534 C1535 1.414 . S
C1534 C1537 1.499 . S
C1535 H1509 0.951 . S
C1535 C1534 1.414 . S
C1535 C1536 1.374 . S
C1536 H1510 0.946 1_565 S
C1536 C1532 1.385 . S
C1536 C1535 1.374 . S
C1537 C1534 1.499 . S
C1537 C1538 1.373 1_565 S
C1537 C1539 1.389 . S
C1538 H1511 0.950 . S
C1538 C1524 1.377 . S
C1538 C1537 1.373 1_545 S
C1539 C1523 1.377 . S
C1539 C1537 1.389 . S
C1539 C1540 1.524 . S
C1540 C1539 1.524 . S
C1540 C1541 1.397 . S
C1540 C1545 1.363 . S
C1541 H1512 0.950 . S
C1541 C1540 1.397 . S
C1541 C1542 1.334 . S
C1542 H1513 0.950 . S
C1542 C1541 1.334 . S
C1542 C1543 1.287 . S
C1543 C1542 1.287 . S
C1543 C1544 1.524 . S
C1543 H1546 0.999 . S
C1544 H1514 0.950 . S
C1544 C1543 1.524 . S
C1544 C1545 1.415 . S
C1545 H1515 0.950 . S
C1545 C1540 1.363 . S
C1545 C1544 1.415 . S
H1546 C1543 0.999 . S
H1547 C1528 0.913 . S
H1548 C1566 0.951 . S
H1549 C1568 0.951 . S
H1550 C1570 0.950 . S
H1551 C1571 0.950 . S
H1552 C1573 0.950 . S
H1553 C1576 0.950 . S
H1554 C1577 0.950 . S
H1555 C1579 0.950 . S
H1556 C1580 0.950 . S
H1557 C1581 0.951 . S
H1558 C1583 0.951 . S
H1559 C1585 0.950 . S
H1560 C1586 0.950 . S
H1561 C1588 0.950 . S
H1562 C1591 0.950 . S
H1563 C1592 0.950 . S
H1564 C1594 0.950 . S
H1565 C1595 0.950 . S
C1566 H1548 0.951 . S
C1566 C1567 1.366 . S
C1566 C1568 1.388 . S
C1567 C1566 1.366 . S
C1567 C1571 1.385 1_545 S
C1568 H1549 0.951 . S
C1568 C1566 1.388 . S
C1568 C1569 1.366 . S
C1569 C1568 1.366 . S
C1569 C1570 1.414 1_545 S
C1569 C1572 1.499 . S
C1570 H1550 0.950 . S
C1570 C1569 1.414 1_565 S
C1570 C1571 1.374 . S
C1571 H1551 0.950 . S
C1571 C1567 1.385 1_565 S
C1571 C1570 1.374 . S
C1572 C1569 1.499 . S
C1572 C1573 1.373 1_545 S
C1572 C1574 1.389 . S
C1573 H1552 0.950 . S
C1573 C1572 1.373 1_565 S
C1573 C1589 1.377 . S
C1574 C1572 1.389 . S
C1574 C1575 1.524 . S
C1574 C1588 1.377 . S
C1575 C1574 1.524 . S
C1575 C1576 1.397 . S
C1575 C1580 1.363 . S
C1576 H1553 0.950 . S
C1576 C1575 1.397 . S
C1576 C1577 1.334 . S
C1577 H1554 0.950 . S
C1577 C1576 1.334 . S
C1577 C1578 1.287 . S
C1578 C1577 1.287 . S
C1578 C1579 1.524 . S
C1578 H1597 0.913 . S
C1579 H1555 0.950 . S
C1579 C1578 1.524 . S
C1579 C1580 1.415 . S
C1580 H1556 0.950 . S
C1580 C1575 1.363 . S
C1580 C1579 1.415 . S
C1581 H1557 0.951 . S
C1581 C1582 1.366 1_565 S
C1581 C1583 1.388 . S
C1582 C1581 1.366 1_545 S
C1582 C1586 1.385 . S
C1583 H1558 0.951 . S
C1583 C1581 1.388 . S
C1583 C1584 1.366 1_565 S
C1584 C1583 1.366 1_545 S
C1584 C1585 1.414 . S
C1584 C1587 1.499 . S
C1585 H1559 0.950 . S
C1585 C1584 1.414 . S
C1585 C1586 1.374 . S
C1586 H1560 0.950 . S
C1586 C1582 1.385 . S
C1586 C1585 1.374 . S
C1587 C1584 1.499 . S
C1587 C1588 1.373 . S
C1587 C1589 1.389 1_545 S
C1588 H1561 0.950 . S
C1588 C1574 1.377 . S
C1588 C1587 1.373 . S
C1589 C1573 1.377 . S
C1589 C1587 1.389 1_565 S
C1589 C1590 1.524 . S
C1590 C1589 1.524 . S
C1590 C1591 1.397 . S
C1590 C1595 1.363 . S
C1591 H1562 0.950 . S
C1591 C1590 1.397 . S
C1591 C1592 1.334 . S
C1592 H1563 0.950 . S
C1592 C1591 1.334 . S
C1592 C1593 1.287 . S
C1593 C1592 1.287 . S
C1593 C1594 1.524 . S
C1593 H1596 0.999 . S
C1594 H1564 0.950 . S
C1594 C1593 1.524 . S
C1594 C1595 1.415 . S
C1595 H1565 0.950 . S
C1595 C1590 1.363 . S
C1595 C1594 1.415 . S
H1596 C1593 0.999 . S
H1597 C1578 0.913 . S
H1598 C1616 0.951 . S
H1599 C1618 0.951 . S
H1600 C1620 0.895 1_455 S
H1601 C1621 0.950 1_455 S
H1602 C1623 0.950 . S
H1603 C1626 0.950 . S
H1604 C1627 0.950 . S
H1605 C1629 0.950 . S
H1606 C1630 0.950 1_655 S
H1607 C1631 1.021 . S
H1608 C1633 0.955 . S
H1609 C1635 0.950 . S
H1610 C1636 0.950 . S
H1611 C1638 0.955 . S
H1612 C1641 0.950 . S
H1613 C1642 0.950 . S
H1614 C1644 0.950 . S
H1615 C1645 0.950 . S
C1616 H1598 0.951 . S
C1616 C1617 1.366 . S
C1616 C1618 1.388 . S
C1617 C1616 1.366 . S
C1617 C1621 1.385 . S
C1618 H1599 0.951 . S
C1618 C1616 1.388 . S
C1618 C1619 1.366 . S
C1619 C1618 1.366 . S
C1619 C1620 1.440 . S
C1619 C1622 1.499 . S
C1620 H1600 0.895 1_655 S
C1620 C1619 1.440 . S
C1620 C1621 1.408 . S
C1621 H1601 0.950 1_655 S
C1621 C1617 1.385 . S
C1621 C1620 1.408 . S
C1622 C1619 1.499 . S
C1622 C1623 1.373 . S
C1622 C1624 1.369 1_655 S
C1623 H1602 0.950 . S
C1623 C1622 1.373 . S
C1623 C1639 1.377 . S
C1624 C1622 1.369 1_455 S
C1624 C1625 1.525 . S
C1624 C1638 1.403 . S
C1625 C1624 1.525 . S
C1625 C1626 1.397 . S
C1625 C1630 1.363 . S
C1626 H1603 0.950 . S
C1626 C1625 1.397 . S
C1626 C1627 1.334 . S
C1627 H1604 0.950 . S
C1627 C1626 1.334 . S
C1627 C1628 1.287 . S
C1628 C1627 1.287 . S
C1628 C1629 1.524 . S
C1628 H1647 0.913 . S
C1629 H1605 0.950 . S
C1629 C1628 1.524 . S
C1629 C1630 1.415 . S
C1630 H1606 0.950 1_455 S
C1630 C1625 1.363 . S
C1630 C1629 1.415 . S
C1631 H1607 1.021 . S
C1631 C1632 1.339 1_455 S
C1631 C1633 1.356 . S
C1632 C1631 1.339 1_655 S
C1632 C1636 1.385 . S
C1633 H1608 0.955 . S
C1633 C1631 1.356 . S
C1633 C1634 1.357 1_455 S
C1634 C1633 1.357 1_655 S
C1634 C1635 1.414 . S
C1634 C1637 1.499 . S
C1635 H1609 0.950 . S
C1635 C1634 1.414 . S
C1635 C1636 1.374 . S
C1636 H1610 0.950 . S
C1636 C1632 1.385 . S
C1636 C1635 1.374 . S
C1637 C1634 1.499 . S
C1637 C1638 1.376 1_655 S
C1637 C1639 1.389 . S
C1638 H1611 0.955 . S
C1638 C1624 1.403 . S
C1638 C1637 1.376 1_455 S
C1639 C1623 1.377 . S
C1639 C1637 1.389 . S
C1639 C1640 1.524 . S
C1640 C1639 1.524 . S
C1640 C1641 1.397 . S
C1640 C1645 1.363 . S
C1641 H1612 0.950 . S
C1641 C1640 1.397 . S
C1641 C1642 1.334 . S
C1642 H1613 0.950 . S
C1642 C1641 1.334 . S
C1642 C1643 1.287 . S
C1643 C1642 1.287 . S
C1643 C1644 1.524 . S
C1643 H1646 0.999 . S
C1644 H1614 0.950 . S
C1644 C1643 1.524 . S
C1644 C1645 1.415 . S
C1645 H1615 0.950 . S
C1645 C1640 1.363 . S
C1645 C1644 1.415 . S
H1646 C1643 0.999 . S
H1647 C1628 0.913 . S
H1648 C1666 0.951 . S
H1649 C1668 0.951 . S
H1650 C1670 0.950 . S
H1651 C1671 0.950 . S
H1652 C1673 0.950 . S
H1653 C1676 0.950 . S
H1654 C1677 0.950 . S
H1655 C1679 0.950 . S
H1656 C1680 0.950 . S
H1657 C1681 0.951 . S
H1658 C1683 0.951 . S
H1659 C1685 0.950 . S
H1660 C1686 0.950 . S
H1661 C1688 0.950 . S
H1662 C1691 0.950 . S
H1663 C1692 0.950 . S
H1664 C1694 0.950 . S
H1665 C1695 0.950 . S
C1666 H1648 0.951 . S
C1666 C1667 1.366 . S
C1666 C1668 1.388 . S
C1667 C1666 1.366 . S
C1667 C1671 1.385 . S
C1668 H1649 0.951 . S
C1668 C1666 1.388 . S
C1668 C1669 1.366 . S
C1669 C1668 1.366 . S
C1669 C1670 1.414 . S
C1669 C1672 1.499 . S
C1670 H1650 0.950 . S
C1670 C1669 1.414 . S
C1670 C1671 1.374 . S
C1671 H1651 0.950 . S
C1671 C1667 1.385 . S
C1671 C1670 1.374 . S
C1672 C1669 1.499 . S
C1672 C1673 1.373 . S
C1672 C1674 1.389 . S
C1673 H1652 0.950 . S
C1673 C1672 1.373 . S
C1673 C1689 1.377 . S
C1674 C1672 1.389 . S
C1674 C1675 1.524 . S
C1674 C1688 1.377 . S
C1675 C1674 1.524 . S
C1675 C1676 1.397 . S
C1675 C1680 1.363 . S
C1676 H1653 0.950 . S
C1676 C1675 1.397 . S
C1676 C1677 1.334 . S
C1677 H1654 0.950 . S
C1677 C1676 1.334 . S
C1677 C1678 1.287 . S
C1678 C1677 1.287 . S
C1678 C1679 1.524 . S
C1678 H1697 0.913 . S
C1679 H1655 0.950 . S
C1679 C1678 1.524 . S
C1679 C1680 1.415 . S
C1680 H1656 0.950 . S
C1680 C1675 1.363 . S
C1680 C1679 1.415 . S
C1681 H1657 0.951 . S
C1681 C1682 1.366 . S
C1681 C1683 1.388 . S
C1682 C1681 1.366 . S
C1682 C1686 1.385 . S
C1683 H1658 0.951 . S
C1683 C1681 1.388 . S
C1683 C1684 1.366 . S
C1684 C1683 1.366 . S
C1684 C1685 1.414 . S
C1684 C1687 1.499 . S
C1685 H1659 0.950 . S
C1685 C1684 1.414 . S
C1685 C1686 1.374 . S
C1686 H1660 0.950 . S
C1686 C1682 1.385 . S
C1686 C1685 1.374 . S
C1687 C1684 1.499 . S
C1687 C1688 1.373 . S
C1687 C1689 1.389 . S
C1688 H1661 0.950 . S
C1688 C1674 1.377 . S
C1688 C1687 1.373 . S
C1689 C1673 1.377 . S
C1689 C1687 1.389 . S
C1689 C1690 1.524 . S
C1690 C1689 1.524 . S
C1690 C1691 1.397 . S
C1690 C1695 1.363 . S
C1691 H1662 0.950 . S
C1691 C1690 1.397 . S
C1691 C1692 1.334 . S
C1692 H1663 0.950 . S
C1692 C1691 1.334 . S
C1692 C1693 1.287 . S
C1693 C1692 1.287 . S
C1693 C1694 1.524 . S
C1693 H1696 0.999 . S
C1694 H1664 0.950 . S
C1694 C1693 1.524 . S
C1694 C1695 1.415 . S
C1695 H1665 0.950 . S
C1695 C1690 1.363 . S
C1695 C1694 1.415 . S
H1696 C1693 0.999 . S
H1697 C1678 0.913 . S
H1698 C1716 0.951 . S
H1699 C1718 0.951 . S
H1700 C1720 0.950 . S
H1701 C1721 0.950 . S
H1702 C1723 0.950 . S
H1703 C1726 0.950 . S
H1704 C1727 0.950 . S
H1705 C1729 0.950 . S
H1706 C1730 0.950 . S
H1707 C1731 0.951 . S
H1708 C1733 0.951 . S
H1709 C1735 0.950 . S
H1710 C1736 0.950 . S
H1711 C1738 0.950 . S
H1712 C1741 0.950 . S
H1713 C1742 0.950 . S
H1714 C1744 0.950 . S
H1715 C1745 0.950 . S
C1716 H1698 0.951 . S
C1716 C1717 1.366 . S
C1716 C1718 1.388 . S
C1717 C1716 1.366 . S
C1717 C1721 1.385 . S
C1718 H1699 0.951 . S
C1718 C1716 1.388 . S
C1718 C1719 1.366 . S
C1719 C1718 1.366 . S
C1719 C1720 1.414 . S
C1719 C1722 1.499 . S
C1720 H1700 0.950 . S
C1720 C1719 1.414 . S
C1720 C1721 1.374 . S
C1721 H1701 0.950 . S
C1721 C1717 1.385 . S
C1721 C1720 1.374 . S
C1722 C1719 1.499 . S
C1722 C1723 1.373 . S
C1722 C1724 1.389 . S
C1723 H1702 0.950 . S
C1723 C1722 1.373 . S
C1723 C1739 1.377 . S
C1724 C1722 1.389 . S
C1724 C1725 1.524 . S
C1724 C1738 1.377 . S
C1725 C1724 1.524 . S
C1725 C1726 1.397 . S
C1725 C1730 1.363 . S
C1726 H1703 0.950 . S
C1726 C1725 1.397 . S
C1726 C1727 1.334 . S
C1727 H1704 0.950 . S
C1727 C1726 1.334 . S
C1727 C1728 1.287 . S
C1728 C1727 1.287 . S
C1728 C1729 1.524 . S
C1728 H1747 0.913 . S
C1729 H1705 0.950 . S
C1729 C1728 1.524 . S
C1729 C1730 1.415 . S
C1730 H1706 0.950 . S
C1730 C1725 1.363 . S
C1730 C1729 1.415 . S
C1731 H1707 0.951 . S
C1731 C1732 1.366 . S
C1731 C1733 1.388 . S
C1732 C1731 1.366 . S
C1732 C1736 1.385 . S
C1733 H1708 0.951 . S
C1733 C1731 1.388 . S
C1733 C1734 1.366 . S
C1734 C1733 1.366 . S
C1734 C1735 1.414 . S
C1734 C1737 1.499 . S
C1735 H1709 0.950 . S
C1735 C1734 1.414 . S
C1735 C1736 1.374 . S
C1736 H1710 0.950 . S
C1736 C1732 1.385 . S
C1736 C1735 1.374 . S
C1737 C1734 1.499 . S
C1737 C1738 1.373 . S
C1737 C1739 1.389 . S
C1738 H1711 0.950 . S
C1738 C1724 1.377 . S
C1738 C1737 1.373 . S
C1739 C1723 1.377 . S
C1739 C1737 1.389 . S
C1739 C1740 1.524 . S
C1740 C1739 1.524 . S
C1740 C1741 1.397 . S
C1740 C1745 1.363 . S
C1741 H1712 0.950 . S
C1741 C1740 1.397 . S
C1741 C1742 1.334 . S
C1742 H1713 0.950 . S
C1742 C1741 1.334 . S
C1742 C1743 1.287 . S
C1743 C1742 1.287 . S
C1743 C1744 1.524 . S
C1743 H1746 0.999 . S
C1744 H1714 0.950 . S
C1744 C1743 1.524 . S
C1744 C1745 1.415 . S
C1745 H1715 0.950 . S
C1745 C1740 1.363 . S
C1745 C1744 1.415 . S
H1746 C1743 0.999 . S
H1747 C1728 0.913 . S
H1748 C1766 0.951 . S
H1749 C1768 0.951 . S
H1750 C1770 0.950 . S
H1751 C1771 0.950 . S
H1752 C1773 0.950 . S
H1753 C1776 0.950 . S
H1754 C1777 0.950 . S
H1755 C1779 0.950 . S
H1756 C1780 0.950 . S
H1757 C1781 0.951 . S
H1758 C1783 0.951 . S
H1759 C1785 0.950 . S
H1760 C1786 0.950 . S
H1761 C1788 0.950 . S
H1762 C1791 0.950 . S
H1763 C1792 0.950 . S
H1764 C1794 0.950 . S
H1765 C1795 0.950 . S
C1766 H1748 0.951 . S
C1766 C1767 1.366 . S
C1766 C1768 1.388 . S
C1767 C1766 1.366 . S
C1767 C1771 1.385 . S
C1768 H1749 0.951 . S
C1768 C1766 1.388 . S
C1768 C1769 1.366 . S
C1769 C1768 1.366 . S
C1769 C1770 1.414 . S
C1769 C1772 1.499 . S
C1770 H1750 0.950 . S
C1770 C1769 1.414 . S
C1770 C1771 1.374 . S
C1771 H1751 0.950 . S
C1771 C1767 1.385 . S
C1771 C1770 1.374 . S
C1772 C1769 1.499 . S
C1772 C1773 1.373 . S
C1772 C1774 1.389 . S
C1773 H1752 0.950 . S
C1773 C1772 1.373 . S
C1773 C1789 1.377 . S
C1774 C1772 1.389 . S
C1774 C1775 1.524 . S
C1774 C1788 1.377 . S
C1775 C1774 1.524 . S
C1775 C1776 1.397 . S
C1775 C1780 1.363 . S
C1776 H1753 0.950 . S
C1776 C1775 1.397 . S
C1776 C1777 1.334 . S
C1777 H1754 0.950 . S
C1777 C1776 1.334 . S
C1777 C1778 1.287 . S
C1778 C1777 1.287 . S
C1778 C1779 1.524 . S
C1778 H1797 0.913 . S
C1779 H1755 0.950 . S
C1779 C1778 1.524 . S
C1779 C1780 1.415 . S
C1780 H1756 0.950 . S
C1780 C1775 1.363 . S
C1780 C1779 1.415 . S
C1781 H1757 0.951 . S
C1781 C1782 1.366 . S
C1781 C1783 1.388 . S
C1782 C1781 1.366 . S
C1782 C1786 1.385 . S
C1783 H1758 0.951 . S
C1783 C1781 1.388 . S
C1783 C1784 1.366 . S
C1784 C1783 1.366 . S
C1784 C1785 1.414 . S
C1784 C1787 1.499 . S
C1785 H1759 0.950 . S
C1785 C1784 1.414 . S
C1785 C1786 1.374 . S
C1786 H1760 0.950 . S
C1786 C1782 1.385 . S
C1786 C1785 1.374 . S
C1787 C1784 1.499 . S
C1787 C1788 1.373 . S
C1787 C1789 1.389 . S
C1788 H1761 0.950 . S
C1788 C1774 1.377 . S
C1788 C1787 1.373 . S
C1789 C1773 1.377 . S
C1789 C1787 1.389 . S
C1789 C1790 1.524 . S
C1790 C1789 1.524 . S
C1790 C1791 1.397 . S
C1790 C1795 1.363 . S
C1791 H1762 0.950 . S
C1791 C1790 1.397 . S
C1791 C1792 1.334 . S
C1792 H1763 0.950 . S
C1792 C1791 1.334 . S
C1792 C1793 1.287 . S
C1793 C1792 1.287 . S
C1793 C1794 1.524 . S
C1793 H1796 0.999 . S
C1794 H1764 0.950 . S
C1794 C1793 1.524 . S
C1794 C1795 1.415 . S
C1795 H1765 0.950 . S
C1795 C1790 1.363 . S
C1795 C1794 1.415 . S
H1796 C1793 0.999 . S
H1797 C1778 0.913 . S
H1798 C1816 0.951 . S
H1799 C1818 0.951 . S
H1800 C1820 0.950 . S
H1801 C1821 0.950 . S
H1802 C1823 0.950 . S
H1803 C1826 0.950 . S
H1804 C1827 0.950 . S
H1805 C1829 0.950 . S
H1806 C1830 0.950 . S
H1807 C1831 0.951 . S
H1808 C1833 0.951 . S
H1809 C1835 0.950 . S
H1810 C1836 0.950 . S
H1811 C1838 0.950 . S
H1812 C1841 0.950 . S
H1813 C1842 0.950 . S
H1814 C1844 0.950 . S
H1815 C1845 0.950 . S
C1816 H1798 0.951 . S
C1816 C1817 1.366 . S
C1816 C1818 1.388 . S
C1817 C1816 1.366 . S
C1817 C1821 1.385 . S
C1818 H1799 0.951 . S
C1818 C1816 1.388 . S
C1818 C1819 1.366 . S
C1819 C1818 1.366 . S
C1819 C1820 1.414 . S
C1819 C1822 1.499 . S
C1820 H1800 0.950 . S
C1820 C1819 1.414 . S
C1820 C1821 1.374 . S
C1821 H1801 0.950 . S
C1821 C1817 1.385 . S
C1821 C1820 1.374 . S
C1822 C1819 1.499 . S
C1822 C1823 1.373 . S
C1822 C1824 1.389 . S
C1823 H1802 0.950 . S
C1823 C1822 1.373 . S
C1823 C1839 1.377 . S
C1824 C1822 1.389 . S
C1824 C1825 1.524 . S
C1824 C1838 1.377 . S
C1825 C1824 1.524 . S
C1825 C1826 1.397 . S
C1825 C1830 1.363 . S
C1826 H1803 0.950 . S
C1826 C1825 1.397 . S
C1826 C1827 1.334 . S
C1827 H1804 0.950 . S
C1827 C1826 1.334 . S
C1827 C1828 1.287 . S
C1828 C1827 1.287 . S
C1828 C1829 1.524 . S
C1828 H1847 0.913 . S
C1829 H1805 0.950 . S
C1829 C1828 1.524 . S
C1829 C1830 1.415 . S
C1830 H1806 0.950 . S
C1830 C1825 1.363 . S
C1830 C1829 1.415 . S
C1831 H1807 0.951 . S
C1831 C1832 1.366 . S
C1831 C1833 1.388 . S
C1832 C1831 1.366 . S
C1832 C1836 1.385 . S
C1833 H1808 0.951 . S
C1833 C1831 1.388 . S
C1833 C1834 1.366 . S
C1834 C1833 1.366 . S
C1834 C1835 1.414 . S
C1834 C1837 1.499 . S
C1835 H1809 0.950 . S
C1835 C1834 1.414 . S
C1835 C1836 1.374 . S
C1836 H1810 0.950 . S
C1836 C1832 1.385 . S
C1836 C1835 1.374 . S
C1837 C1834 1.499 . S
C1837 C1838 1.373 . S
C1837 C1839 1.389 . S
C1838 H1811 0.950 . S
C1838 C1824 1.377 . S
C1838 C1837 1.373 . S
C1839 C1823 1.377 . S
C1839 C1837 1.389 . S
C1839 C1840 1.524 . S
C1840 C1839 1.524 . S
C1840 C1841 1.397 . S
C1840 C1845 1.363 . S
C1841 H1812 0.950 . S
C1841 C1840 1.397 . S
C1841 C1842 1.334 . S
C1842 H1813 0.950 . S
C1842 C1841 1.334 . S
C1842 C1843 1.287 . S
C1843 C1842 1.287 . S
C1843 C1844 1.524 . S
C1843 H1846 0.999 . S
C1844 H1814 0.950 . S
C1844 C1843 1.524 . S
C1844 C1845 1.415 . S
C1845 H1815 0.950 . S
C1845 C1840 1.363 . S
C1845 C1844 1.415 . S
H1846 C1843 0.999 . S
H1847 C1828 0.913 . S
H1848 C1866 0.951 . S
H1849 C1868 0.951 . S
H1850 C1870 0.950 . S
H1851 C1871 0.950 . S
H1852 C1873 0.950 . S
H1853 C1876 0.950 . S
H1854 C1877 0.950 . S
H1855 C1879 0.950 . S
H1856 C1880 0.950 . S
H1857 C1881 0.951 . S
H1858 C1883 0.951 . S
H1859 C1885 0.950 . S
H1860 C1886 0.950 . S
H1861 C1888 0.950 . S
H1862 C1891 0.950 . S
H1863 C1892 0.950 . S
H1864 C1894 0.950 . S
H1865 C1895 0.950 . S
C1866 H1848 0.951 . S
C1866 C1867 1.366 . S
C1866 C1868 1.388 . S
C1867 C1866 1.366 . S
C1867 C1871 1.385 . S
C1868 H1849 0.951 . S
C1868 C1866 1.388 . S
C1868 C1869 1.366 . S
C1869 C1868 1.366 . S
C1869 C1870 1.414 . S
C1869 C1872 1.499 . S
C1870 H1850 0.950 . S
C1870 C1869 1.414 . S
C1870 C1871 1.374 . S
C1871 H1851 0.950 . S
C1871 C1867 1.385 . S
C1871 C1870 1.374 . S
C1872 C1869 1.499 . S
C1872 C1873 1.373 . S
C1872 C1874 1.389 . S
C1873 H1852 0.950 . S
C1873 C1872 1.373 . S
C1873 C1889 1.377 . S
C1874 C1872 1.389 . S
C1874 C1875 1.524 . S
C1874 C1888 1.377 . S
C1875 C1874 1.524 . S
C1875 C1876 1.397 . S
C1875 C1880 1.363 . S
C1876 H1853 0.950 . S
C1876 C1875 1.397 . S
C1876 C1877 1.334 . S
C1877 H1854 0.950 . S
C1877 C1876 1.334 . S
C1877 C1878 1.287 . S
C1878 C1877 1.287 . S
C1878 C1879 1.524 . S
C1878 H1897 0.913 . S
C1879 H1855 0.950 . S
C1879 C1878 1.524 . S
C1879 C1880 1.415 . S
C1880 H1856 0.950 . S
C1880 C1875 1.363 . S
C1880 C1879 1.415 . S
C1881 H1857 0.951 . S
C1881 C1882 1.366 . S
C1881 C1883 1.388 . S
C1882 C1881 1.366 . S
C1882 C1886 1.385 . S
C1883 H1858 0.951 . S
C1883 C1881 1.388 . S
C1883 C1884 1.366 . S
C1884 C1883 1.366 . S
C1884 C1885 1.414 . S
C1884 C1887 1.499 . S
C1885 H1859 0.950 . S
C1885 C1884 1.414 . S
C1885 C1886 1.374 . S
C1886 H1860 0.950 . S
C1886 C1882 1.385 . S
C1886 C1885 1.374 . S
C1887 C1884 1.499 . S
C1887 C1888 1.373 . S
C1887 C1889 1.389 . S
C1888 H1861 0.950 . S
C1888 C1874 1.377 . S
C1888 C1887 1.373 . S
C1889 C1873 1.377 . S
C1889 C1887 1.389 . S
C1889 C1890 1.524 . S
C1890 C1889 1.524 . S
C1890 C1891 1.397 . S
C1890 C1895 1.363 . S
C1891 H1862 0.950 . S
C1891 C1890 1.397 . S
C1891 C1892 1.334 . S
C1892 H1863 0.950 . S
C1892 C1891 1.334 . S
C1892 C1893 1.287 . S
C1893 C1892 1.287 . S
C1893 C1894 1.524 . S
C1893 H1896 0.999 . S
C1894 H1864 0.950 . S
C1894 C1893 1.524 . S
C1894 C1895 1.415 . S
C1895 H1865 0.950 . S
C1895 C1890 1.363 . S
C1895 C1894 1.415 . S
H1896 C1893 0.999 . S
H1897 C1878 0.913 . S
H1898 C1916 0.951 . S
H1899 C1918 0.951 . S
H1900 C1920 0.950 . S
H1901 C1921 0.950 . S
H1902 C1923 0.950 . S
H1903 C1926 0.950 . S
H1904 C1927 0.950 . S
H1905 C1929 0.950 . S
H1906 C1930 0.950 . S
H1907 C1931 0.951 . S
H1908 C1933 0.951 . S
H1909 C1935 0.950 . S
H1910 C1936 0.950 . S
H1911 C1938 0.950 . S
H1912 C1941 0.950 . S
H1913 C1942 0.950 . S
H1914 C1944 0.950 . S
H1915 C1945 0.950 . S
C1916 H1898 0.951 . S
C1916 C1917 1.366 . S
C1916 C1918 1.388 . S
C1917 C1916 1.366 . S
C1917 C1921 1.385 . S
C1918 H1899 0.951 . S
C1918 C1916 1.388 . S
C1918 C1919 1.366 . S
C1919 C1918 1.366 . S
C1919 C1920 1.414 . S
C1919 C1922 1.499 . S
C1920 H1900 0.950 . S
C1920 C1919 1.414 . S
C1920 C1921 1.374 . S
C1921 H1901 0.950 . S
C1921 C1917 1.385 . S
C1921 C1920 1.374 . S
C1922 C1919 1.499 . S
C1922 C1923 1.373 . S
C1922 C1924 1.389 . S
C1923 H1902 0.950 . S
C1923 C1922 1.373 . S
C1923 C1939 1.377 . S
C1924 C1922 1.389 . S
C1924 C1925 1.524 . S
C1924 C1938 1.377 . S
C1925 C1924 1.524 . S
C1925 C1926 1.397 . S
C1925 C1930 1.363 . S
C1926 H1903 0.950 . S
C1926 C1925 1.397 . S
C1926 C1927 1.334 . S
C1927 H1904 0.950 . S
C1927 C1926 1.334 . S
C1927 C1928 1.287 . S
C1928 C1927 1.287 . S
C1928 C1929 1.524 . S
C1928 H1947 0.913 . S
C1929 H1905 0.950 . S
C1929 C1928 1.524 . S
C1929 C1930 1.415 . S
C1930 H1906 0.950 . S
C1930 C1925 1.363 . S
C1930 C1929 1.415 . S
C1931 H1907 0.951 . S
C1931 C1932 1.366 . S
C1931 C1933 1.388 . S
C1932 C1931 1.366 . S
C1932 C1936 1.385 . S
C1933 H1908 0.951 . S
C1933 C1931 1.388 . S
C1933 C1934 1.366 . S
C1934 C1933 1.366 . S
C1934 C1935 1.414 . S
C1934 C1937 1.499 . S
C1935 H1909 0.950 . S
C1935 C1934 1.414 . S
C1935 C1936 1.374 . S
C1936 H1910 0.950 . S
C1936 C1932 1.385 . S
C1936 C1935 1.374 . S
C1937 C1934 1.499 . S
C1937 C1938 1.373 . S
C1937 C1939 1.389 . S
C1938 H1911 0.950 . S
C1938 C1924 1.377 . S
C1938 C1937 1.373 . S
C1939 C1923 1.377 . S
C1939 C1937 1.389 . S
C1939 C1940 1.524 . S
C1940 C1939 1.524 . S
C1940 C1941 1.397 . S
C1940 C1945 1.363 . S
C1941 H1912 0.950 . S
C1941 C1940 1.397 . S
C1941 C1942 1.334 . S
C1942 H1913 0.950 . S
C1942 C1941 1.334 . S
C1942 C1943 1.287 . S
C1943 C1942 1.287 . S
C1943 C1944 1.524 . S
C1943 H1946 0.999 . S
C1944 H1914 0.950 . S
C1944 C1943 1.524 . S
C1944 C1945 1.415 . S
C1945 H1915 0.950 . S
C1945 C1940 1.363 . S
C1945 C1944 1.415 . S
H1946 C1943 0.999 . S
H1947 C1928 0.913 . S
H1948 C1966 0.951 . S
H1949 C1968 0.951 . S
H1950 C1970 0.950 . S
H1951 C1971 0.950 . S
H1952 C1973 0.950 . S
H1953 C1976 0.950 . S
H1954 C1977 0.950 . S
H1955 C1979 0.950 . S
H1956 C1980 0.950 . S
H1957 C1981 0.951 . S
H1958 C1983 0.951 . S
H1959 C1985 0.950 . S
H1960 C1986 0.950 . S
H1961 C1988 0.950 . S
H1962 C1991 0.950 . S
H1963 C1992 0.950 . S
H1964 C1994 0.950 . S
H1965 C1995 0.950 . S
C1966 H1948 0.951 . S
C1966 C1967 1.366 . S
C1966 C1968 1.388 . S
C1967 C1966 1.366 . S
C1967 C1971 1.385 . S
C1968 H1949 0.951 . S
C1968 C1966 1.388 . S
C1968 C1969 1.366 . S
C1969 C1968 1.366 . S
C1969 C1970 1.414 . S
C1969 C1972 1.499 . S
C1970 H1950 0.950 . S
C1970 C1969 1.414 . S
C1970 C1971 1.374 . S
C1971 H1951 0.950 . S
C1971 C1967 1.385 . S
C1971 C1970 1.374 . S
C1972 C1969 1.499 . S
C1972 C1973 1.373 . S
C1972 C1974 1.389 . S
C1973 H1952 0.950 . S
C1973 C1972 1.373 . S
C1973 C1989 1.377 . S
C1974 C1972 1.389 . S
C1974 C1975 1.524 . S
C1974 C1988 1.377 . S
C1975 C1974 1.524 . S
C1975 C1976 1.397 . S
C1975 C1980 1.363 . S
C1976 H1953 0.950 . S
C1976 C1975 1.397 . S
C1976 C1977 1.334 . S
C1977 H1954 0.950 . S
C1977 C1976 1.334 . S
C1977 C1978 1.287 . S
C1978 C1977 1.287 . S
C1978 C1979 1.524 . S
C1978 H1997 0.913 . S
C1979 H1955 0.950 . S
C1979 C1978 1.524 . S
C1979 C1980 1.415 . S
C1980 H1956 0.950 . S
C1980 C1975 1.363 . S
C1980 C1979 1.415 . S
C1981 H1957 0.951 . S
C1981 C1982 1.366 . S
C1981 C1983 1.388 . S
C1982 C1981 1.366 . S
C1982 C1986 1.385 . S
C1983 H1958 0.951 . S
C1983 C1981 1.388 . S
C1983 C1984 1.366 . S
C1984 C1983 1.366 . S
C1984 C1985 1.414 . S
C1984 C1987 1.499 . S
C1985 H1959 0.950 . S
C1985 C1984 1.414 . S
C1985 C1986 1.374 . S
C1986 H1960 0.950 . S
C1986 C1982 1.385 . S
C1986 C1985 1.374 . S
C1987 C1984 1.499 . S
C1987 C1988 1.373 . S
C1987 C1989 1.389 . S
C1988 H1961 0.950 . S
C1988 C1974 1.377 . S
C1988 C1987 1.373 . S
C1989 C1973 1.377 . S
C1989 C1987 1.389 . S
C1989 C1990 1.524 . S
C1990 C1989 1.524 . S
C1990 C1991 1.397 . S
C1990 C1995 1.363 . S
C1991 H1962 0.950 . S
C1991 C1990 1.397 . S
C1991 C1992 1.334 . S
C1992 H1963 0.950 . S
C1992 C1991 1.334 . S
C1992 C1993 1.287 . S
C1993 C1992 1.287 . S
C1993 C1994 1.524 . S
C1993 H1996 0.999 . S
C1994 H1964 0.950 . S
C1994 C1993 1.524 . S
C1994 C1995 1.415 . S
C1995 H1965 0.950 . S
C1995 C1990 1.363 . S
C1995 C1994 1.415 . S
H1996 C1993 0.999 . S
H1997 C1978 0.913 . S
H1998 C2016 0.951 . S
H1999 C2018 0.951 . S
H2000 C2020 0.950 . S
H2001 C2021 0.950 . S
H2002 C2023 0.950 . S
H2003 C2026 0.950 . S
H2004 C2027 0.950 . S
H2005 C2029 0.950 . S
H2006 C2030 0.950 . S
H2007 C2031 0.951 . S
H2008 C2033 0.951 . S
H2009 C2035 0.950 . S
H2010 C2036 0.950 . S
H2011 C2038 0.950 . S
H2012 C2041 0.950 . S
H2013 C2042 0.950 . S
H2014 C2044 0.950 . S
H2015 C2045 0.950 . S
C2016 H1998 0.951 . S
C2016 C2017 1.366 . S
C2016 C2018 1.388 . S
C2017 C2016 1.366 . S
C2017 C2021 1.385 . S
C2018 H1999 0.951 . S
C2018 C2016 1.388 . S
C2018 C2019 1.366 . S
C2019 C2018 1.366 . S
C2019 C2020 1.414 . S
C2019 C2022 1.499 . S
C2020 H2000 0.950 . S
C2020 C2019 1.414 . S
C2020 C2021 1.374 . S
C2021 H2001 0.950 . S
C2021 C2017 1.385 . S
C2021 C2020 1.374 . S
C2022 C2019 1.499 . S
C2022 C2023 1.373 . S
C2022 C2024 1.389 . S
C2023 H2002 0.950 . S
C2023 C2022 1.373 . S
C2023 C2039 1.377 . S
C2024 C2022 1.389 . S
C2024 C2025 1.524 . S
C2024 C2038 1.377 . S
C2025 C2024 1.524 . S
C2025 C2026 1.397 . S
C2025 C2030 1.363 . S
C2026 H2003 0.950 . S
C2026 C2025 1.397 . S
C2026 C2027 1.334 . S
C2027 H2004 0.950 . S
C2027 C2026 1.334 . S
C2027 C2028 1.287 . S
C2028 C2027 1.287 . S
C2028 C2029 1.524 . S
C2028 H2047 0.913 1_565 S
C2029 H2005 0.950 . S
C2029 C2028 1.524 . S
C2029 C2030 1.415 . S
C2030 H2006 0.950 . S
C2030 C2025 1.363 . S
C2030 C2029 1.415 . S
C2031 H2007 0.951 . S
C2031 C2032 1.366 . S
C2031 C2033 1.388 . S
C2032 C2031 1.366 . S
C2032 C2036 1.385 . S
C2033 H2008 0.951 . S
C2033 C2031 1.388 . S
C2033 C2034 1.366 . S
C2034 C2033 1.366 . S
C2034 C2035 1.414 . S
C2034 C2037 1.499 . S
C2035 H2009 0.950 . S
C2035 C2034 1.414 . S
C2035 C2036 1.374 . S
C2036 H2010 0.950 . S
C2036 C2032 1.385 . S
C2036 C2035 1.374 . S
C2037 C2034 1.499 . S
C2037 C2038 1.373 . S
C2037 C2039 1.389 . S
C2038 H2011 0.950 . S
C2038 C2024 1.377 . S
C2038 C2037 1.373 . S
C2039 C2023 1.377 . S
C2039 C2037 1.389 . S
C2039 C2040 1.524 . S
C2040 C2039 1.524 . S
C2040 C2041 1.397 . S
C2040 C2045 1.363 . S
C2041 H2012 0.950 . S
C2041 C2040 1.397 . S
C2041 C2042 1.334 . S
C2042 H2013 0.950 . S
C2042 C2041 1.334 . S
C2042 C2043 1.287 . S
C2043 C2042 1.287 . S
C2043 C2044 1.524 . S
C2043 H2046 0.999 . S
C2044 H2014 0.950 . S
C2044 C2043 1.524 . S
C2044 C2045 1.415 . S
C2045 H2015 0.950 . S
C2045 C2040 1.363 . S
C2045 C2044 1.415 . S
H2046 C2043 0.999 . S
H2047 C2028 0.913 1_545 S
H2048 C2066 0.951 . S
H2049 C2068 0.951 . S
H2050 C2070 0.950 . S
H2051 C2071 0.950 . S
H2052 C2073 0.950 . S
H2053 C2076 0.950 . S
H2054 C2077 0.950 . S
H2055 C2079 0.950 . S
H2056 C2080 0.950 . S
H2057 C2081 0.951 . S
H2058 C2083 0.951 . S
H2059 C2085 0.950 . S
H2060 C2086 0.950 . S
H2061 C2088 0.950 . S
H2062 C2091 0.950 . S
H2063 C2092 0.950 . S
H2064 C2094 0.950 . S
H2065 C2095 0.950 . S
C2066 H2048 0.951 . S
C2066 C2067 1.366 . S
C2066 C2068 1.388 . S
C2067 C2066 1.366 . S
C2067 C2071 1.385 . S
C2068 H2049 0.951 . S
C2068 C2066 1.388 . S
C2068 C2069 1.366 . S
C2069 C2068 1.366 . S
C2069 C2070 1.414 . S
C2069 C2072 1.499 . S
C2070 H2050 0.950 . S
C2070 C2069 1.414 . S
C2070 C2071 1.374 . S
C2071 H2051 0.950 . S
C2071 C2067 1.385 . S
C2071 C2070 1.374 . S
C2072 C2069 1.499 . S
C2072 C2073 1.373 . S
C2072 C2074 1.389 . S
C2073 H2052 0.950 . S
C2073 C2072 1.373 . S
C2073 C2089 1.377 . S
C2074 C2072 1.389 . S
C2074 C2075 1.524 . S
C2074 C2088 1.377 . S
C2075 C2074 1.524 . S
C2075 C2076 1.397 . S
C2075 C2080 1.363 . S
C2076 H2053 0.950 . S
C2076 C2075 1.397 . S
C2076 C2077 1.334 . S
C2077 H2054 0.950 . S
C2077 C2076 1.334 . S
C2077 C2078 1.287 . S
C2078 C2077 1.287 . S
C2078 C2079 1.524 . S
C2078 H2097 0.913 . S
C2079 H2055 0.950 . S
C2079 C2078 1.524 . S
C2079 C2080 1.415 . S
C2080 H2056 0.950 . S
C2080 C2075 1.363 . S
C2080 C2079 1.415 . S
C2081 H2057 0.951 . S
C2081 C2082 1.366 . S
C2081 C2083 1.388 . S
C2082 C2081 1.366 . S
C2082 C2086 1.385 . S
C2083 H2058 0.951 . S
C2083 C2081 1.388 . S
C2083 C2084 1.366 . S
C2084 C2083 1.366 . S
C2084 C2085 1.414 . S
C2084 C2087 1.499 . S
C2085 H2059 0.950 . S
C2085 C2084 1.414 . S
C2085 C2086 1.374 . S
C2086 H2060 0.950 . S
C2086 C2082 1.385 . S
C2086 C2085 1.374 . S
C2087 C2084 1.499 . S
C2087 C2088 1.373 . S
C2087 C2089 1.389 . S
C2088 H2061 0.950 . S
C2088 C2074 1.377 . S
C2088 C2087 1.373 . S
C2089 C2073 1.377 . S
C2089 C2087 1.389 . S
C2089 C2090 1.524 . S
C2090 C2089 1.524 . S
C2090 C2091 1.397 . S
C2090 C2095 1.363 . S
C2091 H2062 0.950 . S
C2091 C2090 1.397 . S
C2091 C2092 1.334 . S
C2092 H2063 0.950 . S
C2092 C2091 1.334 . S
C2092 C2093 1.287 . S
C2093 C2092 1.287 . S
C2093 C2094 1.524 . S
C2093 H2096 0.999 . S
C2094 H2064 0.950 . S
C2094 C2093 1.524 . S
C2094 C2095 1.415 . S
C2095 H2065 0.950 . S
C2095 C2090 1.363 . S
C2095 C2094 1.415 . S
H2096 C2093 0.999 . S
H2097 C2078 0.913 . S
H2098 C2116 0.951 . S
H2099 C2118 0.951 . S
H2100 C2120 0.950 . S
H2101 C2121 0.950 . S
H2102 C2123 0.950 . S
H2103 C2126 0.950 . S
H2104 C2127 0.950 . S
H2105 C2129 0.950 . S
H2106 C2130 0.950 . S
H2107 C2131 0.951 . S
H2108 C2133 0.951 . S
H2109 C2135 0.950 . S
H2110 C2136 0.950 . S
H2111 C2138 0.950 . S
H2112 C2141 0.950 . S
H2113 C2142 0.950 . S
H2114 C2144 0.950 . S
H2115 C2145 0.950 . S
C2116 H2098 0.951 . S
C2116 C2117 1.366 . S
C2116 C2118 1.388 . S
C2117 C2116 1.366 . S
C2117 C2121 1.385 . S
C2118 H2099 0.951 . S
C2118 C2116 1.388 . S
C2118 C2119 1.366 . S
C2119 C2118 1.366 . S
C2119 C2120 1.414 . S
C2119 C2122 1.499 . S
C2120 H2100 0.950 . S
C2120 C2119 1.414 . S
C2120 C2121 1.374 . S
C2121 H2101 0.950 . S
C2121 C2117 1.385 . S
C2121 C2120 1.374 . S
C2122 C2119 1.499 . S
C2122 C2123 1.373 . S
C2122 C2124 1.389 . S
C2123 H2102 0.950 . S
C2123 C2122 1.373 . S
C2123 C2139 1.377 . S
C2124 C2122 1.389 . S
C2124 C2125 1.524 . S
C2124 C2138 1.377 . S
C2125 C2124 1.524 . S
C2125 C2126 1.397 . S
C2125 C2130 1.363 . S
C2126 H2103 0.950 . S
C2126 C2125 1.397 . S
C2126 C2127 1.334 . S
C2127 H2104 0.950 . S
C2127 C2126 1.334 . S
C2127 C2128 1.287 . S
C2128 C2127 1.287 . S
C2128 C2129 1.524 . S
C2128 H2147 0.913 . S
C2129 H2105 0.950 . S
C2129 C2128 1.524 . S
C2129 C2130 1.415 . S
C2130 H2106 0.950 . S
C2130 C2125 1.363 . S
C2130 C2129 1.415 . S
C2131 H2107 0.951 . S
C2131 C2132 1.366 . S
C2131 C2133 1.388 . S
C2132 C2131 1.366 . S
C2132 C2136 1.385 . S
C2133 H2108 0.951 . S
C2133 C2131 1.388 . S
C2133 C2134 1.366 . S
C2134 C2133 1.366 . S
C2134 C2135 1.414 . S
C2134 C2137 1.499 . S
C2135 H2109 0.950 . S
C2135 C2134 1.414 . S
C2135 C2136 1.374 . S
C2136 H2110 0.950 . S
C2136 C2132 1.385 . S
C2136 C2135 1.374 . S
C2137 C2134 1.499 . S
C2137 C2138 1.373 . S
C2137 C2139 1.389 . S
C2138 H2111 0.950 . S
C2138 C2124 1.377 . S
C2138 C2137 1.373 . S
C2139 C2123 1.377 . S
C2139 C2137 1.389 . S
C2139 C2140 1.524 . S
C2140 C2139 1.524 . S
C2140 C2141 1.397 . S
C2140 C2145 1.363 . S
C2141 H2112 0.950 . S
C2141 C2140 1.397 . S
C2141 C2142 1.334 . S
C2142 H2113 0.950 . S
C2142 C2141 1.334 . S
C2142 C2143 1.287 . S
C2143 C2142 1.287 . S
C2143 C2144 1.524 . S
C2143 H2146 0.999 . S
C2144 H2114 0.950 . S
C2144 C2143 1.524 . S
C2144 C2145 1.415 . S
C2145 H2115 0.950 . S
C2145 C2140 1.363 . S
C2145 C2144 1.415 . S
H2146 C2143 0.999 . S
H2147 C2128 0.913 . S
H2148 C2166 0.951 . S
H2149 C2168 0.951 . S
H2150 C2170 0.950 . S
H2151 C2171 0.950 . S
H2152 C2173 0.950 . S
H2153 C2176 0.950 . S
H2154 C2177 0.950 . S
H2155 C2179 0.950 . S
H2156 C2180 0.950 . S
H2157 C2181 0.951 . S
H2158 C2183 0.951 . S
H2159 C2185 0.950 . S
H2160 C2186 0.950 . S
H2161 C2188 0.950 . S
H2162 C2191 0.950 . S
H2163 C2192 0.950 . S
H2164 C2194 0.950 . S
H2165 C2195 0.950 . S
C2166 H2148 0.951 . S
C2166 C2167 1.366 . S
C2166 C2168 1.388 . S
C2167 C2166 1.366 . S
C2167 C2171 1.385 . S
C2168 H2149 0.951 . S
C2168 C2166 1.388 . S
C2168 C2169 1.366 . S
C2169 C2168 1.366 . S
C2169 C2170 1.414 . S
C2169 C2172 1.499 . S
C2170 H2150 0.950 . S
C2170 C2169 1.414 . S
C2170 C2171 1.374 . S
C2171 H2151 0.950 . S
C2171 C2167 1.385 . S
C2171 C2170 1.374 . S
C2172 C2169 1.499 . S
C2172 C2173 1.373 . S
C2172 C2174 1.389 . S
C2173 H2152 0.950 . S
C2173 C2172 1.373 . S
C2173 C2189 1.377 . S
C2174 C2172 1.389 . S
C2174 C2175 1.524 . S
C2174 C2188 1.377 . S
C2175 C2174 1.524 . S
C2175 C2176 1.397 . S
C2175 C2180 1.363 . S
C2176 H2153 0.950 . S
C2176 C2175 1.397 . S
C2176 C2177 1.334 . S
C2177 H2154 0.950 . S
C2177 C2176 1.334 . S
C2177 C2178 1.287 . S
C2178 C2177 1.287 . S
C2178 C2179 1.524 . S
C2178 H2197 0.913 . S
C2179 H2155 0.950 . S
C2179 C2178 1.524 . S
C2179 C2180 1.415 . S
C2180 H2156 0.950 . S
C2180 C2175 1.363 . S
C2180 C2179 1.415 . S
C2181 H2157 0.951 . S
C2181 C2182 1.366 . S
C2181 C2183 1.388 . S
C2182 C2181 1.366 . S
C2182 C2186 1.385 . S
C2183 H2158 0.951 . S
C2183 C2181 1.388 . S
C2183 C2184 1.366 . S
C2184 C2183 1.366 . S
C2184 C2185 1.414 . S
C2184 C2187 1.499 . S
C2185 H2159 0.950 . S
C2185 C2184 1.414 . S
C2185 C2186 1.374 . S
C2186 H2160 0.950 . S
C2186 C2182 1.385 . S
C2186 C2185 1.374 . S
C2187 C2184 1.499 . S
C2187 C2188 1.373 . S
C2187 C2189 1.389 . S
C2188 H2161 0.950 . S
C2188 C2174 1.377 . S
C2188 C2187 1.373 . S
C2189 C2173 1.377 . S
C2189 C2187 1.389 . S
C2189 C2190 1.524 . S
C2190 C2189 1.524 . S
C2190 C2191 1.397 . S
C2190 C2195 1.363 . S
C2191 H2162 0.950 . S
C2191 C2190 1.397 . S
C2191 C2192 1.334 . S
C2192 H2163 0.950 . S
C2192 C2191 1.334 . S
C2192 C2193 1.287 . S
C2193 C2192 1.287 . S
C2193 C2194 1.524 . S
C2193 H2196 0.999 . S
C2194 H2164 0.950 . S
C2194 C2193 1.524 . S
C2194 C2195 1.415 . S
C2195 H2165 0.950 . S
C2195 C2190 1.363 . S
C2195 C2194 1.415 . S
H2196 C2193 0.999 . S
H2197 C2178 0.913 . S
H2198 C2216 0.951 . S
H2199 C2218 0.951 . S
H2200 C2220 0.950 . S
H2201 C2221 0.950 . S
H2202 C2223 0.950 . S
H2203 C2226 0.950 . S
H2204 C2227 0.950 . S
H2205 C2229 0.950 . S
H2206 C2230 0.950 . S
H2207 C2231 0.951 . S
H2208 C2233 0.951 . S
H2209 C2235 0.950 . S
H2210 C2236 0.950 . S
H2211 C2238 0.950 . S
H2212 C2241 0.950 . S
H2213 C2242 0.950 . S
H2214 C2244 0.950 . S
H2215 C2245 0.950 . S
C2216 H2198 0.951 . S
C2216 C2217 1.366 . S
C2216 C2218 1.388 . S
C2217 C2216 1.366 . S
C2217 C2221 1.385 . S
C2218 H2199 0.951 . S
C2218 C2216 1.388 . S
C2218 C2219 1.366 . S
C2219 C2218 1.366 . S
C2219 C2220 1.414 . S
C2219 C2222 1.499 . S
C2220 H2200 0.950 . S
C2220 C2219 1.414 . S
C2220 C2221 1.374 . S
C2221 H2201 0.950 . S
C2221 C2217 1.385 . S
C2221 C2220 1.374 . S
C2222 C2219 1.499 . S
C2222 C2223 1.373 . S
C2222 C2224 1.389 . S
C2223 H2202 0.950 . S
C2223 C2222 1.373 . S
C2223 C2239 1.377 . S
C2224 C2222 1.389 . S
C2224 C2225 1.524 . S
C2224 C2238 1.377 . S
C2225 C2224 1.524 . S
C2225 C2226 1.397 . S
C2225 C2230 1.363 . S
C2226 H2203 0.950 . S
C2226 C2225 1.397 . S
C2226 C2227 1.334 . S
C2227 H2204 0.950 . S
C2227 C2226 1.334 . S
C2227 C2228 1.287 . S
C2228 C2227 1.287 . S
C2228 C2229 1.524 . S
C2228 H2247 0.913 . S
C2229 H2205 0.950 . S
C2229 C2228 1.524 . S
C2229 C2230 1.415 . S
C2230 H2206 0.950 . S
C2230 C2225 1.363 . S
C2230 C2229 1.415 . S
C2231 H2207 0.951 . S
C2231 C2232 1.366 . S
C2231 C2233 1.388 . S
C2232 C2231 1.366 . S
C2232 C2236 1.385 . S
C2233 H2208 0.951 . S
C2233 C2231 1.388 . S
C2233 C2234 1.366 . S
C2234 C2233 1.366 . S
C2234 C2235 1.414 . S
C2234 C2237 1.499 . S
C2235 H2209 0.950 . S
C2235 C2234 1.414 . S
C2235 C2236 1.374 . S
C2236 H2210 0.950 . S
C2236 C2232 1.385 . S
C2236 C2235 1.374 . S
C2237 C2234 1.499 . S
C2237 C2238 1.373 . S
C2237 C2239 1.389 . S
C2238 H2211 0.950 . S
C2238 C2224 1.377 . S
C2238 C2237 1.373 . S
C2239 C2223 1.377 . S
C2239 C2237 1.389 . S
C2239 C2240 1.524 . S
C2240 C2239 1.524 . S
C2240 C2241 1.397 . S
C2240 C2245 1.363 . S
C2241 H2212 0.950 . S
C2241 C2240 1.397 . S
C2241 C2242 1.334 . S
C2242 H2213 0.950 . S
C2242 C2241 1.334 . S
C2242 C2243 1.287 . S
C2243 C2242 1.287 . S
C2243 C2244 1.524 . S
C2243 H2246 0.999 . S
C2244 H2214 0.950 . S
C2244 C2243 1.524 . S
C2244 C2245 1.415 . S
C2245 H2215 0.950 . S
C2245 C2240 1.363 . S
C2245 C2244 1.415 . S
H2246 C2243 0.999 . S
H2247 C2228 0.913 . S
H2248 C2266 0.951 . S
H2249 C2268 0.951 . S
H2250 C2270 0.950 . S
H2251 C2271 0.950 . S
H2252 C2273 0.950 . S
H2253 C2276 0.950 . S
H2254 C2277 0.950 . S
H2255 C2279 0.950 . S
H2256 C2280 0.950 . S
H2257 C2281 0.951 . S
H2258 C2283 0.951 . S
H2259 C2285 0.950 . S
H2260 C2286 0.950 . S
H2261 C2288 0.950 . S
H2262 C2291 0.950 . S
H2263 C2292 0.950 . S
H2264 C2294 0.950 . S
H2265 C2295 0.950 . S
C2266 H2248 0.951 . S
C2266 C2267 1.366 . S
C2266 C2268 1.388 . S
C2267 C2266 1.366 . S
C2267 C2271 1.385 . S
C2268 H2249 0.951 . S
C2268 C2266 1.388 . S
C2268 C2269 1.366 . S
C2269 C2268 1.366 . S
C2269 C2270 1.414 . S
C2269 C2272 1.499 . S
C2270 H2250 0.950 . S
C2270 C2269 1.414 . S
C2270 C2271 1.374 . S
C2271 H2251 0.950 . S
C2271 C2267 1.385 . S
C2271 C2270 1.374 . S
C2272 C2269 1.499 . S
C2272 C2273 1.373 . S
C2272 C2274 1.389 . S
C2273 H2252 0.950 . S
C2273 C2272 1.373 . S
C2273 C2289 1.377 . S
C2274 C2272 1.389 . S
C2274 C2275 1.524 . S
C2274 C2288 1.377 . S
C2275 C2274 1.524 . S
C2275 C2276 1.397 . S
C2275 C2280 1.363 . S
C2276 H2253 0.950 . S
C2276 C2275 1.397 . S
C2276 C2277 1.334 . S
C2277 H2254 0.950 . S
C2277 C2276 1.334 . S
C2277 C2278 1.287 . S
C2278 C2277 1.287 . S
C2278 C2279 1.524 . S
C2278 H2297 0.913 . S
C2279 H2255 0.950 . S
C2279 C2278 1.524 . S
C2279 C2280 1.415 . S
C2280 H2256 0.950 . S
C2280 C2275 1.363 . S
C2280 C2279 1.415 . S
C2281 H2257 0.951 . S
C2281 C2282 1.366 . S
C2281 C2283 1.388 . S
C2282 C2281 1.366 . S
C2282 C2286 1.385 . S
C2283 H2258 0.951 . S
C2283 C2281 1.388 . S
C2283 C2284 1.366 . S
C2284 C2283 1.366 . S
C2284 C2285 1.414 . S
C2284 C2287 1.499 . S
C2285 H2259 0.950 . S
C2285 C2284 1.414 . S
C2285 C2286 1.374 . S
C2286 H2260 0.950 . S
C2286 C2282 1.385 . S
C2286 C2285 1.374 . S
C2287 C2284 1.499 . S
C2287 C2288 1.373 . S
C2287 C2289 1.389 . S
C2288 H2261 0.950 . S
C2288 C2274 1.377 . S
C2288 C2287 1.373 . S
C2289 C2273 1.377 . S
C2289 C2287 1.389 . S
C2289 C2290 1.524 . S
C2290 C2289 1.524 . S
C2290 C2291 1.397 . S
C2290 C2295 1.363 . S
C2291 H2262 0.950 . S
C2291 C2290 1.397 . S
C2291 C2292 1.334 . S
C2292 H2263 0.950 . S
C2292 C2291 1.334 . S
C2292 C2293 1.287 . S
C2293 C2292 1.287 . S
C2293 C2294 1.524 . S
C2293 H2296 0.999 . S
C2294 H2264 0.950 . S
C2294 C2293 1.524 . S
C2294 C2295 1.415 . S
C2295 H2265 0.950 . S
C2295 C2290 1.363 . S
C2295 C2294 1.415 . S
H2296 C2293 0.999 . S
H2297 C2278 0.913 . S
H2298 C2316 0.951 . S
H2299 C2318 0.951 . S
H2300 C2320 0.950 . S
H2301 C2321 0.950 . S
H2302 C2323 0.950 . S
H2303 C2326 0.950 . S
H2304 C2327 0.950 . S
H2305 C2329 0.950 . S
H2306 C2330 0.950 . S
H2307 C2331 0.951 . S
H2308 C2333 0.951 . S
H2309 C2335 0.950 . S
H2310 C2336 0.950 . S
H2311 C2338 0.950 . S
H2312 C2341 0.950 . S
H2313 C2342 0.950 . S
H2314 C2344 0.950 . S
H2315 C2345 0.950 . S
C2316 H2298 0.951 . S
C2316 C2317 1.366 . S
C2316 C2318 1.388 . S
C2317 C2316 1.366 . S
C2317 C2321 1.385 . S
C2318 H2299 0.951 . S
C2318 C2316 1.388 . S
C2318 C2319 1.366 . S
C2319 C2318 1.366 . S
C2319 C2320 1.414 . S
C2319 C2322 1.499 . S
C2320 H2300 0.950 . S
C2320 C2319 1.414 . S
C2320 C2321 1.374 . S
C2321 H2301 0.950 . S
C2321 C2317 1.385 . S
C2321 C2320 1.374 . S
C2322 C2319 1.499 . S
C2322 C2323 1.373 . S
C2322 C2324 1.389 . S
C2323 H2302 0.950 . S
C2323 C2322 1.373 . S
C2323 C2339 1.377 . S
C2324 C2322 1.389 . S
C2324 C2325 1.524 . S
C2324 C2338 1.377 . S
C2325 C2324 1.524 . S
C2325 C2326 1.397 . S
C2325 C2330 1.363 . S
C2326 H2303 0.950 . S
C2326 C2325 1.397 . S
C2326 C2327 1.334 . S
C2327 H2304 0.950 . S
C2327 C2326 1.334 . S
C2327 C2328 1.287 . S
C2328 C2327 1.287 . S
C2328 C2329 1.524 . S
C2328 H2347 0.913 . S
C2329 H2305 0.950 . S
C2329 C2328 1.524 . S
C2329 C2330 1.415 . S
C2330 H2306 0.950 . S
C2330 C2325 1.363 . S
C2330 C2329 1.415 . S
C2331 H2307 0.951 . S
C2331 C2332 1.366 . S
C2331 C2333 1.388 . S
C2332 C2331 1.366 . S
C2332 C2336 1.385 . S
C2333 H2308 0.951 . S
C2333 C2331 1.388 . S
C2333 C2334 1.366 . S
C2334 C2333 1.366 . S
C2334 C2335 1.414 . S
C2334 C2337 1.499 . S
C2335 H2309 0.950 . S
C2335 C2334 1.414 . S
C2335 C2336 1.374 . S
C2336 H2310 0.950 . S
C2336 C2332 1.385 . S
C2336 C2335 1.374 . S
C2337 C2334 1.499 . S
C2337 C2338 1.373 . S
C2337 C2339 1.389 . S
C2338 H2311 0.950 . S
C2338 C2324 1.377 . S
C2338 C2337 1.373 . S
C2339 C2323 1.377 . S
C2339 C2337 1.389 . S
C2339 C2340 1.524 . S
C2340 C2339 1.524 . S
C2340 C2341 1.397 . S
C2340 C2345 1.363 . S
C2341 H2312 0.950 . S
C2341 C2340 1.397 . S
C2341 C2342 1.334 . S
C2342 H2313 0.950 . S
C2342 C2341 1.334 . S
C2342 C2343 1.287 . S
C2343 C2342 1.287 . S
C2343 C2344 1.524 . S
C2343 H2346 0.999 . S
C2344 H2314 0.950 . S
C2344 C2343 1.524 . S
C2344 C2345 1.415 . S
C2345 H2315 0.950 . S
C2345 C2340 1.363 . S
C2345 C2344 1.415 . S
H2346 C2343 0.999 . S
H2347 C2328 0.913 . S
H2348 C2366 0.951 . S
H2349 C2368 0.951 . S
H2350 C2370 0.950 . S
H2351 C2371 0.950 . S
H2352 C2373 0.950 . S
H2353 C2376 0.950 . S
H2354 C2377 0.950 . S
H2355 C2379 0.950 . S
H2356 C2380 0.950 . S
H2357 C2381 0.951 . S
H2358 C2383 0.951 . S
H2359 C2385 0.950 . S
H2360 C2386 0.950 . S
H2361 C2388 0.950 . S
H2362 C2391 0.950 . S
H2363 C2392 0.950 . S
H2364 C2394 0.950 . S
H2365 C2395 0.950 . S
C2366 H2348 0.951 . S
C2366 C2367 1.366 . S
C2366 C2368 1.388 . S
C2367 C2366 1.366 . S
C2367 C2371 1.385 . S
C2368 H2349 0.951 . S
C2368 C2366 1.388 . S
C2368 C2369 1.366 . S
C2369 C2368 1.366 . S
C2369 C2370 1.414 . S
C2369 C2372 1.499 . S
C2370 H2350 0.950 . S
C2370 C2369 1.414 . S
C2370 C2371 1.374 . S
C2371 H2351 0.950 . S
C2371 C2367 1.385 . S
C2371 C2370 1.374 . S
C2372 C2369 1.499 . S
C2372 C2373 1.373 . S
C2372 C2374 1.389 . S
C2373 H2352 0.950 . S
C2373 C2372 1.373 . S
C2373 C2389 1.377 . S
C2374 C2372 1.389 . S
C2374 C2375 1.524 . S
C2374 C2388 1.377 . S
C2375 C2374 1.524 . S
C2375 C2376 1.397 . S
C2375 C2380 1.363 . S
C2376 H2353 0.950 . S
C2376 C2375 1.397 . S
C2376 C2377 1.334 . S
C2377 H2354 0.950 . S
C2377 C2376 1.334 . S
C2377 C2378 1.287 . S
C2378 C2377 1.287 . S
C2378 C2379 1.524 . S
C2378 H2397 0.913 . S
C2379 H2355 0.950 . S
C2379 C2378 1.524 . S
C2379 C2380 1.415 . S
C2380 H2356 0.950 . S
C2380 C2375 1.363 . S
C2380 C2379 1.415 . S
C2381 H2357 0.951 . S
C2381 C2382 1.366 . S
C2381 C2383 1.388 . S
C2382 C2381 1.366 . S
C2382 C2386 1.385 . S
C2383 H2358 0.951 . S
C2383 C2381 1.388 . S
C2383 C2384 1.366 . S
C2384 C2383 1.366 . S
C2384 C2385 1.414 . S
C2384 C2387 1.499 . S
C2385 H2359 0.950 . S
C2385 C2384 1.414 . S
C2385 C2386 1.374 . S
C2386 H2360 0.950 . S
C2386 C2382 1.385 . S
C2386 C2385 1.374 . S
C2387 C2384 1.499 . S
C2387 C2388 1.373 . S
C2387 C2389 1.389 . S
C2388 H2361 0.950 . S
C2388 C2374 1.377 . S
C2388 C2387 1.373 . S
C2389 C2373 1.377 . S
C2389 C2387 1.389 . S
C2389 C2390 1.524 . S
C2390 C2389 1.524 . S
C2390 C2391 1.397 . S
C2390 C2395 1.363 . S
C2391 H2362 0.950 . S
C2391 C2390 1.397 . S
C2391 C2392 1.334 . S
C2392 H2363 0.950 . S
C2392 C2391 1.334 . S
C2392 C2393 1.287 . S
C2393 C2392 1.287 . S
C2393 C2394 1.524 . S
C2393 H2396 0.999 . S
C2394 H2364 0.950 . S
C2394 C2393 1.524 . S
C2394 C2395 1.415 . S
C2395 H2365 0.950 . S
C2395 C2390 1.363 . S
C2395 C2394 1.415 . S
H2396 C2393 0.999 . S
H2397 C2378 0.913 . S
H2398 C2416 0.951 . S
H2399 C2418 0.951 . S
H2400 C2420 0.950 . S
H2401 C2421 0.950 . S
H2402 C2423 0.950 . S
H2403 C2426 0.950 . S
H2404 C2427 0.950 . S
H2405 C2429 0.950 . S
H2406 C2430 0.950 . S
H2407 C2431 0.951 . S
H2408 C2433 0.951 . S
H2409 C2435 0.950 . S
H2410 C2436 0.950 . S
H2411 C2438 0.950 . S
H2412 C2441 0.950 . S
H2413 C2442 0.950 . S
H2414 C2444 0.950 . S
H2415 C2445 0.950 . S
C2416 H2398 0.951 . S
C2416 C2417 1.366 . S
C2416 C2418 1.388 . S
C2417 C2416 1.366 . S
C2417 C2421 1.385 . S
C2418 H2399 0.951 . S
C2418 C2416 1.388 . S
C2418 C2419 1.366 . S
C2419 C2418 1.366 . S
C2419 C2420 1.414 . S
C2419 C2422 1.499 . S
C2420 H2400 0.950 . S
C2420 C2419 1.414 . S
C2420 C2421 1.374 . S
C2421 H2401 0.950 . S
C2421 C2417 1.385 . S
C2421 C2420 1.374 . S
C2422 C2419 1.499 . S
C2422 C2423 1.373 . S
C2422 C2424 1.389 . S
C2423 H2402 0.950 . S
C2423 C2422 1.373 . S
C2423 C2439 1.377 . S
C2424 C2422 1.389 . S
C2424 C2425 1.524 . S
C2424 C2438 1.377 . S
C2425 C2424 1.524 . S
C2425 C2426 1.397 . S
C2425 C2430 1.363 . S
C2426 H2403 0.950 . S
C2426 C2425 1.397 . S
C2426 C2427 1.334 . S
C2427 H2404 0.950 . S
C2427 C2426 1.334 . S
C2427 C2428 1.287 . S
C2428 C2427 1.287 . S
C2428 C2429 1.524 . S
C2428 H2447 0.913 . S
C2429 H2405 0.950 . S
C2429 C2428 1.524 . S
C2429 C2430 1.415 . S
C2430 H2406 0.950 . S
C2430 C2425 1.363 . S
C2430 C2429 1.415 . S
C2431 H2407 0.951 . S
C2431 C2432 1.366 . S
C2431 C2433 1.388 . S
C2432 C2431 1.366 . S
C2432 C2436 1.385 . S
C2433 H2408 0.951 . S
C2433 C2431 1.388 . S
C2433 C2434 1.366 . S
C2434 C2433 1.366 . S
C2434 C2435 1.414 . S
C2434 C2437 1.499 . S
C2435 H2409 0.950 . S
C2435 C2434 1.414 . S
C2435 C2436 1.374 . S
C2436 H2410 0.950 . S
C2436 C2432 1.385 . S
C2436 C2435 1.374 . S
C2437 C2434 1.499 . S
C2437 C2438 1.373 . S
C2437 C2439 1.389 . S
C2438 H2411 0.950 . S
C2438 C2424 1.377 . S
C2438 C2437 1.373 . S
C2439 C2423 1.377 . S
C2439 C2437 1.389 . S
C2439 C2440 1.524 . S
C2440 C2439 1.524 . S
C2440 C2441 1.397 . S
C2440 C2445 1.363 . S
C2441 H2412 0.950 . S
C2441 C2440 1.397 . S
C2441 C2442 1.334 . S
C2442 H2413 0.950 . S
C2442 C2441 1.334 . S
C2442 C2443 1.287 . S
C2443 C2442 1.287 . S
C2443 C2444 1.524 . S
C2443 H2446 0.999 . S
C2444 H2414 0.950 . S
C2444 C2443 1.524 . S
C2444 C2445 1.415 . S
C2445 H2415 0.950 . S
C2445 C2440 1.363 . S
C2445 C2444 1.415 . S
H2446 C2443 0.999 . S
H2447 C2428 0.913 . S
H2448 C2466 0.951 . S
H2449 C2468 0.951 . S
H2450 C2470 0.950 . S
H2451 C2471 0.950 . S
H2452 C2473 0.950 . S
H2453 C2476 0.950 . S
H2454 C2477 0.950 . S
H2455 C2479 0.950 . S
H2456 C2480 0.950 . S
H2457 C2481 0.951 . S
H2458 C2483 0.951 . S
H2459 C2485 0.950 . S
H2460 C2486 0.950 . S
H2461 C2488 0.950 . S
H2462 C2491 0.950 . S
H2463 C2492 0.950 . S
H2464 C2494 0.950 . S
H2465 C2495 0.950 . S
C2466 H2448 0.951 . S
C2466 C2467 1.366 . S
C2466 C2468 1.388 . S
C2467 C2466 1.366 . S
C2467 C2471 1.385 . S
C2468 H2449 0.951 . S
C2468 C2466 1.388 . S
C2468 C2469 1.366 . S
C2469 C2468 1.366 . S
C2469 C2470 1.414 . S
C2469 C2472 1.499 . S
C2470 H2450 0.950 . S
C2470 C2469 1.414 . S
C2470 C2471 1.374 . S
C2471 H2451 0.950 . S
C2471 C2467 1.385 . S
C2471 C2470 1.374 . S
C2472 C2469 1.499 . S
C2472 C2473 1.373 . S
C2472 C2474 1.389 . S
C2473 H2452 0.950 . S
C2473 C2472 1.373 . S
C2473 C2489 1.377 . S
C2474 C2472 1.389 . S
C2474 C2475 1.524 . S
C2474 C2488 1.377 . S
C2475 C2474 1.524 . S
C2475 C2476 1.397 . S
C2475 C2480 1.363 . S
C2476 H2453 0.950 . S
C2476 C2475 1.397 . S
C2476 C2477 1.334 . S
C2477 H2454 0.950 . S
C2477 C2476 1.334 . S
C2477 C2478 1.287 . S
C2478 C2477 1.287 . S
C2478 C2479 1.524 . S
C2478 H2497 0.913 . S
C2479 H2455 0.950 . S
C2479 C2478 1.524 . S
C2479 C2480 1.415 . S
C2480 H2456 0.950 . S
C2480 C2475 1.363 . S
C2480 C2479 1.415 . S
C2481 H2457 0.951 . S
C2481 C2482 1.366 . S
C2481 C2483 1.388 . S
C2482 C2481 1.366 . S
C2482 C2486 1.385 . S
C2483 H2458 0.951 . S
C2483 C2481 1.388 . S
C2483 C2484 1.366 . S
C2484 C2483 1.366 . S
C2484 C2485 1.414 . S
C2484 C2487 1.499 . S
C2485 H2459 0.950 . S
C2485 C2484 1.414 . S
C2485 C2486 1.374 . S
C2486 H2460 0.950 . S
C2486 C2482 1.385 . S
C2486 C2485 1.374 . S
C2487 C2484 1.499 . S
C2487 C2488 1.373 . S
C2487 C2489 1.389 . S
C2488 H2461 0.950 . S
C2488 C2474 1.377 . S
C2488 C2487 1.373 . S
C2489 C2473 1.377 . S
C2489 C2487 1.389 . S
C2489 C2490 1.524 . S
C2490 C2489 1.524 . S
C2490 C2491 1.397 . S
C2490 C2495 1.363 . S
C2491 H2462 0.950 . S
C2491 C2490 1.397 . S
C2491 C2492 1.334 . S
C2492 H2463 0.950 . S
C2492 C2491 1.334 . S
C2492 C2493 1.287 . S
C2493 C2492 1.287 . S
C2493 C2494 1.524 . S
C2493 H2496 0.999 . S
C2494 H2464 0.950 . S
C2494 C2493 1.524 . S
C2494 C2495 1.415 . S
C2495 H2465 0.950 . S
C2495 C2490 1.363 . S
C2495 C2494 1.415 . S
H2496 C2493 0.999 . S
H2497 C2478 0.913 . S
H2498 C2516 0.951 . S
H2499 C2518 0.951 . S
H2500 C2520 0.950 . S
H2501 C2521 0.950 . S
H2502 C2523 0.950 . S
H2503 C2526 0.950 . S
H2504 C2527 0.950 . S
H2505 C2529 0.950 . S
H2506 C2530 0.950 . S
H2507 C2531 0.951 . S
H2508 C2533 0.951 . S
H2509 C2535 0.950 . S
H2510 C2536 0.950 . S
H2511 C2538 0.950 . S
H2512 C2541 0.950 . S
H2513 C2542 0.950 . S
H2514 C2544 0.950 . S
H2515 C2545 0.950 . S
C2516 H2498 0.951 . S
C2516 C2517 1.366 . S
C2516 C2518 1.388 . S
C2517 C2516 1.366 . S
C2517 C2521 1.385 . S
C2518 H2499 0.951 . S
C2518 C2516 1.388 . S
C2518 C2519 1.366 . S
C2519 C2518 1.366 . S
C2519 C2520 1.414 . S
C2519 C2522 1.499 . S
C2520 H2500 0.950 . S
C2520 C2519 1.414 . S
C2520 C2521 1.374 . S
C2521 H2501 0.950 . S
C2521 C2517 1.385 . S
C2521 C2520 1.374 . S
C2522 C2519 1.499 . S
C2522 C2523 1.373 . S
C2522 C2524 1.389 . S
C2523 H2502 0.950 . S
C2523 C2522 1.373 . S
C2523 C2539 1.377 . S
C2524 C2522 1.389 . S
C2524 C2525 1.524 . S
C2524 C2538 1.377 . S
C2525 C2524 1.524 . S
C2525 C2526 1.397 . S
C2525 C2530 1.363 . S
C2526 H2503 0.950 . S
C2526 C2525 1.397 . S
C2526 C2527 1.334 . S
C2527 H2504 0.950 . S
C2527 C2526 1.334 . S
C2527 C2528 1.287 . S
C2528 C2527 1.287 . S
C2528 C2529 1.524 . S
C2528 H2547 0.913 . S
C2529 H2505 0.950 . S
C2529 C2528 1.524 . S
C2529 C2530 1.415 . S
C2530 H2506 0.950 . S
C2530 C2525 1.363 . S
C2530 C2529 1.415 . S
C2531 H2507 0.951 . S
C2531 C2532 1.366 . S
C2531 C2533 1.388 . S
C2532 C2531 1.366 . S
C2532 C2536 1.385 . S
C2533 H2508 0.951 . S
C2533 C2531 1.388 . S
C2533 C2534 1.366 . S
C2534 C2533 1.366 . S
C2534 C2535 1.414 . S
C2534 C2537 1.499 . S
C2535 H2509 0.950 . S
C2535 C2534 1.414 . S
C2535 C2536 1.374 . S
C2536 H2510 0.950 . S
C2536 C2532 1.385 . S
C2536 C2535 1.374 . S
C2537 C2534 1.499 . S
C2537 C2538 1.373 . S
C2537 C2539 1.389 . S
C2538 H2511 0.950 . S
C2538 C2524 1.377 . S
C2538 C2537 1.373 . S
C2539 C2523 1.377 . S
C2539 C2537 1.389 . S
C2539 C2540 1.524 . S
C2540 C2539 1.524 . S
C2540 C2541 1.397 . S
C2540 C2545 1.363 . S
C2541 H2512 0.950 . S
C2541 C2540 1.397 . S
C2541 C2542 1.334 . S
C2542 H2513 0.950 . S
C2542 C2541 1.334 . S
C2542 C2543 1.287 . S
C2543 C2542 1.287 . S
C2543 C2544 1.524 . S
C2543 H2546 0.999 . S
C2544 H2514 0.950 . S
C2544 C2543 1.524 . S
C2544 C2545 1.415 . S
C2545 H2515 0.950 . S
C2545 C2540 1.363 . S
C2545 C2544 1.415 . S
H2546 C2543 0.999 . S
H2547 C2528 0.913 . S
H2548 C2566 0.951 . S
H2549 C2568 0.951 . S
H2550 C2570 0.950 . S
H2551 C2571 0.950 . S
H2552 C2573 0.950 . S
H2553 C2576 0.950 . S
H2554 C2577 0.950 . S
H2555 C2579 0.950 . S
H2556 C2580 0.950 . S
H2557 C2581 0.951 . S
H2558 C2583 0.951 . S
H2559 C2585 0.950 . S
H2560 C2586 0.950 . S
H2561 C2588 0.950 . S
H2562 C2591 0.950 . S
H2563 C2592 0.950 . S
H2564 C2594 0.950 . S
H2565 C2595 0.950 . S
C2566 H2548 0.951 . S
C2566 C2567 1.366 . S
C2566 C2568 1.388 . S
C2567 C2566 1.366 . S
C2567 C2571 1.385 . S
C2568 H2549 0.951 . S
C2568 C2566 1.388 . S
C2568 C2569 1.366 . S
C2569 C2568 1.366 . S
C2569 C2570 1.414 . S
C2569 C2572 1.499 . S
C2570 H2550 0.950 . S
C2570 C2569 1.414 . S
C2570 C2571 1.374 . S
C2571 H2551 0.950 . S
C2571 C2567 1.385 . S
C2571 C2570 1.374 . S
C2572 C2569 1.499 . S
C2572 C2573 1.373 . S
C2572 C2574 1.389 . S
C2573 H2552 0.950 . S
C2573 C2572 1.373 . S
C2573 C2589 1.377 . S
C2574 C2572 1.389 . S
C2574 C2575 1.524 . S
C2574 C2588 1.377 . S
C2575 C2574 1.524 . S
C2575 C2576 1.397 . S
C2575 C2580 1.363 . S
C2576 H2553 0.950 . S
C2576 C2575 1.397 . S
C2576 C2577 1.334 . S
C2577 H2554 0.950 . S
C2577 C2576 1.334 . S
C2577 C2578 1.287 . S
C2578 C2577 1.287 . S
C2578 C2579 1.524 . S
C2578 H2597 0.913 . S
C2579 H2555 0.950 . S
C2579 C2578 1.524 . S
C2579 C2580 1.415 . S
C2580 H2556 0.950 . S
C2580 C2575 1.363 . S
C2580 C2579 1.415 . S
C2581 H2557 0.951 . S
C2581 C2582 1.366 . S
C2581 C2583 1.388 . S
C2582 C2581 1.366 . S
C2582 C2586 1.385 . S
C2583 H2558 0.951 . S
C2583 C2581 1.388 . S
C2583 C2584 1.366 . S
C2584 C2583 1.366 . S
C2584 C2585 1.414 . S
C2584 C2587 1.499 . S
C2585 H2559 0.950 . S
C2585 C2584 1.414 . S
C2585 C2586 1.374 . S
C2586 H2560 0.950 . S
C2586 C2582 1.385 . S
C2586 C2585 1.374 . S
C2587 C2584 1.499 . S
C2587 C2588 1.373 . S
C2587 C2589 1.389 . S
C2588 H2561 0.950 . S
C2588 C2574 1.377 . S
C2588 C2587 1.373 . S
C2589 C2573 1.377 . S
C2589 C2587 1.389 . S
C2589 C2590 1.524 . S
C2590 C2589 1.524 . S
C2590 C2591 1.397 . S
C2590 C2595 1.363 . S
C2591 H2562 0.950 . S
C2591 C2590 1.397 . S
C2591 C2592 1.334 . S
C2592 H2563 0.950 . S
C2592 C2591 1.334 . S
C2592 C2593 1.287 . S
C2593 C2592 1.287 . S
C2593 C2594 1.524 . S
C2593 H2596 0.999 . S
C2594 H2564 0.950 . S
C2594 C2593 1.524 . S
C2594 C2595 1.415 . S
C2595 H2565 0.950 . S
C2595 C2590 1.363 . S
C2595 C2594 1.415 . S
H2596 C2593 0.999 . S
H2597 C2578 0.913 . S
H2598 C2616 0.951 . S
H2599 C2618 0.951 . S
H2600 C2620 0.950 . S
H2601 C2621 0.950 . S
H2602 C2623 0.950 . S
H2603 C2626 0.950 . S
H2604 C2627 0.950 . S
H2605 C2629 0.950 . S
H2606 C2630 0.950 . S
H2607 C2631 0.951 . S
H2608 C2633 0.951 . S
H2609 C2635 0.950 . S
H2610 C2636 0.950 . S
H2611 C2638 0.950 . S
H2612 C2641 0.950 . S
H2613 C2642 0.950 . S
H2614 C2644 0.950 . S
H2615 C2645 0.950 . S
C2616 H2598 0.951 . S
C2616 C2617 1.366 . S
C2616 C2618 1.388 . S
C2617 C2616 1.366 . S
C2617 C2621 1.385 . S
C2618 H2599 0.951 . S
C2618 C2616 1.388 . S
C2618 C2619 1.366 . S
C2619 C2618 1.366 . S
C2619 C2620 1.414 . S
C2619 C2622 1.499 . S
C2620 H2600 0.950 . S
C2620 C2619 1.414 . S
C2620 C2621 1.374 . S
C2621 H2601 0.950 . S
C2621 C2617 1.385 . S
C2621 C2620 1.374 . S
C2622 C2619 1.499 . S
C2622 C2623 1.373 . S
C2622 C2624 1.389 . S
C2623 H2602 0.950 . S
C2623 C2622 1.373 . S
C2623 C2639 1.377 . S
C2624 C2622 1.389 . S
C2624 C2625 1.524 . S
C2624 C2638 1.377 . S
C2625 C2624 1.524 . S
C2625 C2626 1.397 . S
C2625 C2630 1.363 . S
C2626 H2603 0.950 . S
C2626 C2625 1.397 . S
C2626 C2627 1.334 . S
C2627 H2604 0.950 . S
C2627 C2626 1.334 . S
C2627 C2628 1.287 . S
C2628 C2627 1.287 . S
C2628 C2629 1.524 . S
C2628 H2647 0.913 . S
C2629 H2605 0.950 . S
C2629 C2628 1.524 . S
C2629 C2630 1.415 . S
C2630 H2606 0.950 . S
C2630 C2625 1.363 . S
C2630 C2629 1.415 . S
C2631 H2607 0.951 . S
C2631 C2632 1.366 . S
C2631 C2633 1.388 . S
C2632 C2631 1.366 . S
C2632 C2636 1.385 . S
C2633 H2608 0.951 . S
C2633 C2631 1.388 . S
C2633 C2634 1.366 . S
C2634 C2633 1.366 . S
C2634 C2635 1.414 . S
C2634 C2637 1.499 . S
C2635 H2609 0.950 . S
C2635 C2634 1.414 . S
C2635 C2636 1.374 . S
C2636 H2610 0.950 . S
C2636 C2632 1.385 . S
C2636 C2635 1.374 . S
C2637 C2634 1.499 . S
C2637 C2638 1.373 . S
C2637 C2639 1.389 . S
C2638 H2611 0.950 . S
C2638 C2624 1.377 . S
C2638 C2637 1.373 . S
C2639 C2623 1.377 . S
C2639 C2637 1.389 . S
C2639 C2640 1.524 . S
C2640 C2639 1.524 . S
C2640 C2641 1.397 . S
C2640 C2645 1.363 . S
C2641 H2612 0.950 . S
C2641 C2640 1.397 . S
C2641 C2642 1.334 . S
C2642 H2613 0.950 . S
C2642 C2641 1.334 . S
C2642 C2643 1.287 . S
C2643 C2642 1.287 . S
C2643 C2644 1.524 . S
C2643 H2646 0.999 . S
C2644 H2614 0.950 . S
C2644 C2643 1.524 . S
C2644 C2645 1.415 . S
C2645 H2615 0.950 . S
C2645 C2640 1.363 . S
C2645 C2644 1.415 . S
H2646 C2643 0.999 . S
H2647 C2628 0.913 . S
H2648 C2666 0.951 . S
H2649 C2668 0.951 . S
H2650 C2670 0.950 . S
H2651 C2671 0.950 . S
H2652 C2673 0.950 . S
H2653 C2676 0.950 . S
H2654 C2677 0.950 . S
H2655 C2679 0.950 . S
H2656 C2680 0.950 . S
H2657 C2681 0.951 . S
H2658 C2683 0.951 . S
H2659 C2685 0.950 . S
H2660 C2686 0.950 . S
H2661 C2688 0.950 . S
H2662 C2691 0.950 . S
H2663 C2692 0.950 . S
H2664 C2694 0.950 . S
H2665 C2695 0.950 . S
C2666 H2648 0.951 . S
C2666 C2667 1.366 . S
C2666 C2668 1.388 . S
C2667 C2666 1.366 . S
C2667 C2671 1.385 . S
C2668 H2649 0.951 . S
C2668 C2666 1.388 . S
C2668 C2669 1.366 . S
C2669 C2668 1.366 . S
C2669 C2670 1.414 . S
C2669 C2672 1.499 . S
C2670 H2650 0.950 . S
C2670 C2669 1.414 . S
C2670 C2671 1.374 . S
C2671 H2651 0.950 . S
C2671 C2667 1.385 . S
C2671 C2670 1.374 . S
C2672 C2669 1.499 . S
C2672 C2673 1.373 . S
C2672 C2674 1.389 . S
C2673 H2652 0.950 . S
C2673 C2672 1.373 . S
C2673 C2689 1.377 . S
C2674 C2672 1.389 . S
C2674 C2675 1.524 . S
C2674 C2688 1.377 . S
C2675 C2674 1.524 . S
C2675 C2676 1.397 . S
C2675 C2680 1.363 . S
C2676 H2653 0.950 . S
C2676 C2675 1.397 . S
C2676 C2677 1.334 . S
C2677 H2654 0.950 . S
C2677 C2676 1.334 . S
C2677 C2678 1.287 . S
C2678 C2677 1.287 . S
C2678 C2679 1.524 . S
C2678 H2697 0.913 . S
C2679 H2655 0.950 . S
C2679 C2678 1.524 . S
C2679 C2680 1.415 . S
C2680 H2656 0.950 . S
C2680 C2675 1.363 . S
C2680 C2679 1.415 . S
C2681 H2657 0.951 . S
C2681 C2682 1.366 . S
C2681 C2683 1.388 . S
C2682 C2681 1.366 . S
C2682 C2686 1.385 . S
C2683 H2658 0.951 . S
C2683 C2681 1.388 . S
C2683 C2684 1.366 . S
C2684 C2683 1.366 . S
C2684 C2685 1.414 . S
C2684 C2687 1.499 . S
C2685 H2659 0.950 . S
C2685 C2684 1.414 . S
C2685 C2686 1.374 . S
C2686 H2660 0.950 . S
C2686 C2682 1.385 . S
C2686 C2685 1.374 . S
C2687 C2684 1.499 . S
C2687 C2688 1.373 . S
C2687 C2689 1.389 . S
C2688 H2661 0.950 . S
C2688 C2674 1.377 . S
C2688 C2687 1.373 . S
C2689 C2673 1.377 . S
C2689 C2687 1.389 . S
C2689 C2690 1.524 . S
C2690 C2689 1.524 . S
C2690 C2691 1.397 . S
C2690 C2695 1.363 . S
C2691 H2662 0.950 . S
C2691 C2690 1.397 . S
C2691 C2692 1.334 . S
C2692 H2663 0.950 . S
C2692 C2691 1.334 . S
C2692 C2693 1.287 . S
C2693 C2692 1.287 . S
C2693 C2694 1.524 . S
C2693 H2696 0.999 . S
C2694 H2664 0.950 . S
C2694 C2693 1.524 . S
C2694 C2695 1.415 . S
C2695 H2665 0.950 . S
C2695 C2690 1.363 . S
C2695 C2694 1.415 . S
H2696 C2693 0.999 . S
H2697 C2678 0.913 . S
H2698 C2716 0.951 . S
H2699 C2718 0.951 . S
H2700 C2720 0.950 . S
H2701 C2721 0.950 . S
H2702 C2723 0.950 . S
H2703 C2726 0.950 . S
H2704 C2727 0.950 . S
H2705 C2729 0.950 . S
H2706 C2730 0.950 . S
H2707 C2731 0.951 . S
H2708 C2733 0.951 . S
H2709 C2735 0.950 . S
H2710 C2736 0.950 . S
H2711 C2738 0.950 . S
H2712 C2741 0.950 . S
H2713 C2742 0.950 . S
H2714 C2744 0.950 . S
H2715 C2745 0.950 . S
C2716 H2698 0.951 . S
C2716 C2717 1.366 . S
C2716 C2718 1.388 . S
C2717 C2716 1.366 . S
C2717 C2721 1.385 . S
C2718 H2699 0.951 . S
C2718 C2716 1.388 . S
C2718 C2719 1.366 . S
C2719 C2718 1.366 . S
C2719 C2720 1.414 . S
C2719 C2722 1.499 . S
C2720 H2700 0.950 . S
C2720 C2719 1.414 . S
C2720 C2721 1.374 . S
C2721 H2701 0.950 . S
C2721 C2717 1.385 . S
C2721 C2720 1.374 . S
C2722 C2719 1.499 . S
C2722 C2723 1.373 . S
C2722 C2724 1.389 . S
C2723 H2702 0.950 . S
C2723 C2722 1.373 . S
C2723 C2739 1.377 . S
C2724 C2722 1.389 . S
C2724 C2725 1.524 . S
C2724 C2738 1.377 . S
C2725 C2724 1.524 . S
C2725 C2726 1.397 . S
C2725 C2730 1.363 . S
C2726 H2703 0.950 . S
C2726 C2725 1.397 . S
C2726 C2727 1.334 . S
C2727 H2704 0.950 . S
C2727 C2726 1.334 . S
C2727 C2728 1.287 . S
C2728 C2727 1.287 . S
C2728 C2729 1.524 . S
C2728 H2747 0.913 . S
C2729 H2705 0.950 . S
C2729 C2728 1.524 . S
C2729 C2730 1.415 . S
C2730 H2706 0.950 . S
C2730 C2725 1.363 . S
C2730 C2729 1.415 . S
C2731 H2707 0.951 . S
C2731 C2732 1.366 . S
C2731 C2733 1.388 . S
C2732 C2731 1.366 . S
C2732 C2736 1.385 . S
C2733 H2708 0.951 . S
C2733 C2731 1.388 . S
C2733 C2734 1.366 . S
C2734 C2733 1.366 . S
C2734 C2735 1.414 . S
C2734 C2737 1.499 . S
C2735 H2709 0.950 . S
C2735 C2734 1.414 . S
C2735 C2736 1.374 . S
C2736 H2710 0.950 . S
C2736 C2732 1.385 . S
C2736 C2735 1.374 . S
C2737 C2734 1.499 . S
C2737 C2738 1.373 . S
C2737 C2739 1.389 . S
C2738 H2711 0.950 . S
C2738 C2724 1.377 . S
C2738 C2737 1.373 . S
C2739 C2723 1.377 . S
C2739 C2737 1.389 . S
C2739 C2740 1.524 . S
C2740 C2739 1.524 . S
C2740 C2741 1.397 . S
C2740 C2745 1.363 . S
C2741 H2712 0.950 . S
C2741 C2740 1.397 . S
C2741 C2742 1.334 . S
C2742 H2713 0.950 . S
C2742 C2741 1.334 . S
C2742 C2743 1.287 . S
C2743 C2742 1.287 . S
C2743 C2744 1.524 . S
C2743 H2746 0.999 . S
C2744 H2714 0.950 . S
C2744 C2743 1.524 . S
C2744 C2745 1.415 . S
C2745 H2715 0.950 . S
C2745 C2740 1.363 . S
C2745 C2744 1.415 . S
H2746 C2743 0.999 . S
H2747 C2728 0.913 . S
H2748 C2766 0.951 . S
H2749 C2768 0.951 . S
H2750 C2770 0.950 . S
H2751 C2771 0.950 . S
H2752 C2773 0.950 . S
H2753 C2776 0.950 . S
H2754 C2777 0.950 . S
H2755 C2779 0.950 . S
H2756 C2780 0.950 . S
H2757 C2781 0.951 . S
H2758 C2783 0.951 . S
H2759 C2785 0.950 . S
H2760 C2786 0.950 . S
H2761 C2788 0.950 . S
H2762 C2791 0.950 . S
H2763 C2792 0.950 . S
H2764 C2794 0.950 . S
H2765 C2795 0.950 . S
C2766 H2748 0.951 . S
C2766 C2767 1.366 . S
C2766 C2768 1.388 . S
C2767 C2766 1.366 . S
C2767 C2771 1.385 . S
C2768 H2749 0.951 . S
C2768 C2766 1.388 . S
C2768 C2769 1.366 . S
C2769 C2768 1.366 . S
C2769 C2770 1.414 . S
C2769 C2772 1.499 . S
C2770 H2750 0.950 . S
C2770 C2769 1.414 . S
C2770 C2771 1.374 . S
C2771 H2751 0.950 . S
C2771 C2767 1.385 . S
C2771 C2770 1.374 . S
C2772 C2769 1.499 . S
C2772 C2773 1.373 . S
C2772 C2774 1.389 . S
C2773 H2752 0.950 . S
C2773 C2772 1.373 . S
C2773 C2789 1.377 . S
C2774 C2772 1.389 . S
C2774 C2775 1.524 . S
C2774 C2788 1.377 . S
C2775 C2774 1.524 . S
C2775 C2776 1.397 . S
C2775 C2780 1.363 . S
C2776 H2753 0.950 . S
C2776 C2775 1.397 . S
C2776 C2777 1.334 . S
C2777 H2754 0.950 . S
C2777 C2776 1.334 . S
C2777 C2778 1.287 . S
C2778 C2777 1.287 . S
C2778 C2779 1.524 . S
C2778 H2797 0.913 . S
C2779 H2755 0.950 . S
C2779 C2778 1.524 . S
C2779 C2780 1.415 . S
C2780 H2756 0.950 . S
C2780 C2775 1.363 . S
C2780 C2779 1.415 . S
C2781 H2757 0.951 . S
C2781 C2782 1.366 . S
C2781 C2783 1.388 . S
C2782 C2781 1.366 . S
C2782 C2786 1.385 . S
C2783 H2758 0.951 . S
C2783 C2781 1.388 . S
C2783 C2784 1.366 . S
C2784 C2783 1.366 . S
C2784 C2785 1.414 . S
C2784 C2787 1.499 . S
C2785 H2759 0.950 . S
C2785 C2784 1.414 . S
C2785 C2786 1.374 . S
C2786 H2760 0.950 . S
C2786 C2782 1.385 . S
C2786 C2785 1.374 . S
C2787 C2784 1.499 . S
C2787 C2788 1.373 . S
C2787 C2789 1.389 . S
C2788 H2761 0.950 . S
C2788 C2774 1.377 . S
C2788 C2787 1.373 . S
C2789 C2773 1.377 . S
C2789 C2787 1.389 . S
C2789 C2790 1.524 . S
C2790 C2789 1.524 . S
C2790 C2791 1.397 . S
C2790 C2795 1.363 . S
C2791 H2762 0.950 . S
C2791 C2790 1.397 . S
C2791 C2792 1.334 . S
C2792 H2763 0.950 . S
C2792 C2791 1.334 . S
C2792 C2793 1.287 . S
C2793 C2792 1.287 . S
C2793 C2794 1.524 . S
C2793 H2796 0.999 . S
C2794 H2764 0.950 . S
C2794 C2793 1.524 . S
C2794 C2795 1.415 . S
C2795 H2765 0.950 . S
C2795 C2790 1.363 . S
C2795 C2794 1.415 . S
H2796 C2793 0.999 . S
H2797 C2778 0.913 . S
H2798 C2816 0.951 . S
H2799 C2818 0.951 . S
H2800 C2820 0.950 . S
H2801 C2821 0.950 . S
H2802 C2823 0.950 . S
H2803 C2826 0.950 . S
H2804 C2827 0.950 . S
H2805 C2829 0.950 . S
H2806 C2830 0.950 . S
H2807 C2831 0.951 . S
H2808 C2833 0.951 . S
H2809 C2835 0.950 . S
H2810 C2836 0.950 . S
H2811 C2838 0.950 . S
H2812 C2841 0.950 . S
H2813 C2842 0.950 . S
H2814 C2844 0.950 . S
H2815 C2845 0.950 . S
C2816 H2798 0.951 . S
C2816 C2817 1.366 . S
C2816 C2818 1.388 . S
C2817 C2816 1.366 . S
C2817 C2821 1.385 . S
C2818 H2799 0.951 . S
C2818 C2816 1.388 . S
C2818 C2819 1.366 . S
C2819 C2818 1.366 . S
C2819 C2820 1.414 . S
C2819 C2822 1.499 . S
C2820 H2800 0.950 . S
C2820 C2819 1.414 . S
C2820 C2821 1.374 . S
C2821 H2801 0.950 . S
C2821 C2817 1.385 . S
C2821 C2820 1.374 . S
C2822 C2819 1.499 . S
C2822 C2823 1.373 . S
C2822 C2824 1.389 . S
C2823 H2802 0.950 . S
C2823 C2822 1.373 . S
C2823 C2839 1.377 . S
C2824 C2822 1.389 . S
C2824 C2825 1.524 . S
C2824 C2838 1.377 . S
C2825 C2824 1.524 . S
C2825 C2826 1.397 . S
C2825 C2830 1.363 . S
C2826 H2803 0.950 . S
C2826 C2825 1.397 . S
C2826 C2827 1.334 . S
C2827 H2804 0.950 . S
C2827 C2826 1.334 . S
C2827 C2828 1.287 . S
C2828 C2827 1.287 . S
C2828 C2829 1.524 . S
C2828 H2847 0.913 . S
C2829 H2805 0.950 . S
C2829 C2828 1.524 . S
C2829 C2830 1.415 . S
C2830 H2806 0.950 . S
C2830 C2825 1.363 . S
C2830 C2829 1.415 . S
C2831 H2807 0.951 . S
C2831 C2832 1.366 . S
C2831 C2833 1.388 . S
C2832 C2831 1.366 . S
C2832 C2836 1.385 . S
C2833 H2808 0.951 . S
C2833 C2831 1.388 . S
C2833 C2834 1.366 . S
C2834 C2833 1.366 . S
C2834 C2835 1.414 . S
C2834 C2837 1.499 . S
C2835 H2809 0.950 . S
C2835 C2834 1.414 . S
C2835 C2836 1.374 . S
C2836 H2810 0.950 . S
C2836 C2832 1.385 . S
C2836 C2835 1.374 . S
C2837 C2834 1.499 . S
C2837 C2838 1.373 . S
C2837 C2839 1.389 . S
C2838 H2811 0.950 . S
C2838 C2824 1.377 . S
C2838 C2837 1.373 . S
C2839 C2823 1.377 . S
C2839 C2837 1.389 . S
C2839 C2840 1.524 . S
C2840 C2839 1.524 . S
C2840 C2841 1.397 . S
C2840 C2845 1.363 . S
C2841 H2812 0.950 . S
C2841 C2840 1.397 . S
C2841 C2842 1.334 . S
C2842 H2813 0.950 . S
C2842 C2841 1.334 . S
C2842 C2843 1.287 . S
C2843 C2842 1.287 . S
C2843 C2844 1.524 . S
C2843 H2846 0.999 . S
C2844 H2814 0.950 . S
C2844 C2843 1.524 . S
C2844 C2845 1.415 . S
C2845 H2815 0.950 . S
C2845 C2840 1.363 . S
C2845 C2844 1.415 . S
H2846 C2843 0.999 . S
H2847 C2828 0.913 . S
H2848 C2866 0.951 . S
H2849 C2868 0.951 . S
H2850 C2870 0.950 . S
H2851 C2871 0.950 . S
H2852 C2873 0.950 . S
H2853 C2876 0.950 . S
H2854 C2877 0.950 . S
H2855 C2879 0.950 . S
H2856 C2880 0.950 . S
H2857 C2881 0.951 . S
H2858 C2883 0.951 . S
H2859 C2885 0.950 . S
H2860 C2886 0.950 . S
H2861 C2888 0.950 . S
H2862 C2891 0.950 . S
H2863 C2892 0.950 . S
H2864 C2894 0.950 . S
H2865 C2895 0.950 . S
C2866 H2848 0.951 . S
C2866 C2867 1.366 . S
C2866 C2868 1.388 . S
C2867 C2866 1.366 . S
C2867 C2871 1.385 . S
C2868 H2849 0.951 . S
C2868 C2866 1.388 . S
C2868 C2869 1.366 . S
C2869 C2868 1.366 . S
C2869 C2870 1.414 . S
C2869 C2872 1.499 . S
C2870 H2850 0.950 . S
C2870 C2869 1.414 . S
C2870 C2871 1.374 . S
C2871 H2851 0.950 . S
C2871 C2867 1.385 . S
C2871 C2870 1.374 . S
C2872 C2869 1.499 . S
C2872 C2873 1.373 . S
C2872 C2874 1.389 . S
C2873 H2852 0.950 . S
C2873 C2872 1.373 . S
C2873 C2889 1.377 . S
C2874 C2872 1.389 . S
C2874 C2875 1.524 . S
C2874 C2888 1.377 . S
C2875 C2874 1.524 . S
C2875 C2876 1.397 . S
C2875 C2880 1.363 . S
C2876 H2853 0.950 . S
C2876 C2875 1.397 . S
C2876 C2877 1.334 . S
C2877 H2854 0.950 . S
C2877 C2876 1.334 . S
C2877 C2878 1.287 . S
C2878 C2877 1.287 . S
C2878 C2879 1.524 . S
C2878 H2897 0.913 . S
C2879 H2855 0.950 . S
C2879 C2878 1.524 . S
C2879 C2880 1.415 . S
C2880 H2856 0.950 . S
C2880 C2875 1.363 . S
C2880 C2879 1.415 . S
C2881 H2857 0.951 . S
C2881 C2882 1.366 . S
C2881 C2883 1.388 . S
C2882 C2881 1.366 . S
C2882 C2886 1.385 . S
C2883 H2858 0.951 . S
C2883 C2881 1.388 . S
C2883 C2884 1.366 . S
C2884 C2883 1.366 . S
C2884 C2885 1.414 . S
C2884 C2887 1.499 . S
C2885 H2859 0.950 . S
C2885 C2884 1.414 . S
C2885 C2886 1.374 . S
C2886 H2860 0.950 . S
C2886 C2882 1.385 . S
C2886 C2885 1.374 . S
C2887 C2884 1.499 . S
C2887 C2888 1.373 . S
C2887 C2889 1.389 . S
C2888 H2861 0.950 . S
C2888 C2874 1.377 . S
C2888 C2887 1.373 . S
C2889 C2873 1.377 . S
C2889 C2887 1.389 . S
C2889 C2890 1.524 . S
C2890 C2889 1.524 . S
C2890 C2891 1.397 . S
C2890 C2895 1.363 . S
C2891 H2862 0.950 . S
C2891 C2890 1.397 . S
C2891 C2892 1.334 . S
C2892 H2863 0.950 . S
C2892 C2891 1.334 . S
C2892 C2893 1.287 . S
C2893 C2892 1.287 . S
C2893 C2894 1.524 . S
C2893 H2896 0.999 . S
C2894 H2864 0.950 . S
C2894 C2893 1.524 . S
C2894 C2895 1.415 . S
C2895 H2865 0.950 . S
C2895 C2890 1.363 . S
C2895 C2894 1.415 . S
H2896 C2893 0.999 . S
H2897 C2878 0.913 . S
H2898 C2916 0.951 . S
H2899 C2918 0.951 . S
H2900 C2920 0.950 . S
H2901 C2921 0.950 . S
H2902 C2923 0.950 . S
H2903 C2926 0.950 . S
H2904 C2927 0.950 . S
H2905 C2929 0.950 . S
H2906 C2930 0.950 . S
H2907 C2931 0.951 . S
H2908 C2933 0.951 . S
H2909 C2935 0.950 . S
H2910 C2936 0.950 . S
H2911 C2938 0.950 . S
H2912 C2941 0.950 . S
H2913 C2942 0.950 . S
H2914 C2944 0.950 . S
H2915 C2945 0.950 . S
C2916 H2898 0.951 . S
C2916 C2917 1.366 . S
C2916 C2918 1.388 . S
C2917 C2916 1.366 . S
C2917 C2921 1.385 . S
C2918 H2899 0.951 . S
C2918 C2916 1.388 . S
C2918 C2919 1.366 . S
C2919 C2918 1.366 . S
C2919 C2920 1.414 . S
C2919 C2922 1.499 . S
C2920 H2900 0.950 . S
C2920 C2919 1.414 . S
C2920 C2921 1.374 . S
C2921 H2901 0.950 . S
C2921 C2917 1.385 . S
C2921 C2920 1.374 . S
C2922 C2919 1.499 . S
C2922 C2923 1.373 . S
C2922 C2924 1.389 . S
C2923 H2902 0.950 . S
C2923 C2922 1.373 . S
C2923 C2939 1.377 . S
C2924 C2922 1.389 . S
C2924 C2925 1.524 . S
C2924 C2938 1.377 . S
C2925 C2924 1.524 . S
C2925 C2926 1.397 . S
C2925 C2930 1.363 . S
C2926 H2903 0.950 . S
C2926 C2925 1.397 . S
C2926 C2927 1.334 . S
C2927 H2904 0.950 . S
C2927 C2926 1.334 . S
C2927 C2928 1.287 . S
C2928 C2927 1.287 . S
C2928 C2929 1.524 . S
C2928 H2947 0.913 . S
C2929 H2905 0.950 . S
C2929 C2928 1.524 . S
C2929 C2930 1.415 . S
C2930 H2906 0.950 . S
C2930 C2925 1.363 . S
C2930 C2929 1.415 . S
C2931 H2907 0.951 . S
C2931 C2932 1.366 . S
C2931 C2933 1.388 . S
C2932 C2931 1.366 . S
C2932 C2936 1.385 . S
C2933 H2908 0.951 . S
C2933 C2931 1.388 . S
C2933 C2934 1.366 . S
C2934 C2933 1.366 . S
C2934 C2935 1.414 . S
C2934 C2937 1.499 . S
C2935 H2909 0.950 . S
C2935 C2934 1.414 . S
C2935 C2936 1.374 . S
C2936 H2910 0.950 . S
C2936 C2932 1.385 . S
C2936 C2935 1.374 . S
C2937 C2934 1.499 . S
C2937 C2938 1.373 . S
C2937 C2939 1.389 . S
C2938 H2911 0.950 . S
C2938 C2924 1.377 . S
C2938 C2937 1.373 . S
C2939 C2923 1.377 . S
C2939 C2937 1.389 . S
C2939 C2940 1.524 . S
C2940 C2939 1.524 . S
C2940 C2941 1.397 . S
C2940 C2945 1.363 . S
C2941 H2912 0.950 . S
C2941 C2940 1.397 . S
C2941 C2942 1.334 . S
C2942 H2913 0.950 . S
C2942 C2941 1.334 . S
C2942 C2943 1.287 . S
C2943 C2942 1.287 . S
C2943 C2944 1.524 . S
C2943 H2946 0.999 . S
C2944 H2914 0.950 . S
C2944 C2943 1.524 . S
C2944 C2945 1.415 . S
C2945 H2915 0.950 . S
C2945 C2940 1.363 . S
C2945 C2944 1.415 . S
H2946 C2943 0.999 . S
H2947 C2928 0.913 . S
H2948 C2966 0.951 . S
H2949 C2968 0.951 . S
H2950 C2970 0.950 . S
H2951 C2971 0.950 . S
H2952 C2973 0.950 . S
H2953 C2976 0.950 . S
H2954 C2977 0.950 . S
H2955 C2979 0.950 . S
H2956 C2980 0.950 . S
H2957 C2981 0.951 . S
H2958 C2983 0.951 . S
H2959 C2985 0.950 . S
H2960 C2986 0.950 . S
H2961 C2988 0.950 . S
H2962 C2991 0.950 . S
H2963 C2992 0.950 . S
H2964 C2994 0.950 . S
H2965 C2995 0.950 . S
C2966 H2948 0.951 . S
C2966 C2967 1.366 . S
C2966 C2968 1.388 . S
C2967 C2966 1.366 . S
C2967 C2971 1.385 . S
C2968 H2949 0.951 . S
C2968 C2966 1.388 . S
C2968 C2969 1.366 . S
C2969 C2968 1.366 . S
C2969 C2970 1.414 . S
C2969 C2972 1.499 . S
C2970 H2950 0.950 . S
C2970 C2969 1.414 . S
C2970 C2971 1.374 . S
C2971 H2951 0.950 . S
C2971 C2967 1.385 . S
C2971 C2970 1.374 . S
C2972 C2969 1.499 . S
C2972 C2973 1.373 . S
C2972 C2974 1.389 . S
C2973 H2952 0.950 . S
C2973 C2972 1.373 . S
C2973 C2989 1.377 . S
C2974 C2972 1.389 . S
C2974 C2975 1.524 . S
C2974 C2988 1.377 . S
C2975 C2974 1.524 . S
C2975 C2976 1.397 . S
C2975 C2980 1.363 . S
C2976 H2953 0.950 . S
C2976 C2975 1.397 . S
C2976 C2977 1.334 . S
C2977 H2954 0.950 . S
C2977 C2976 1.334 . S
C2977 C2978 1.287 . S
C2978 C2977 1.287 . S
C2978 C2979 1.524 . S
C2978 H2997 0.913 . S
C2979 H2955 0.950 . S
C2979 C2978 1.524 . S
C2979 C2980 1.415 . S
C2980 H2956 0.950 . S
C2980 C2975 1.363 . S
C2980 C2979 1.415 . S
C2981 H2957 0.951 . S
C2981 C2982 1.366 . S
C2981 C2983 1.388 . S
C2982 C2981 1.366 . S
C2982 C2986 1.385 . S
C2983 H2958 0.951 . S
C2983 C2981 1.388 . S
C2983 C2984 1.366 . S
C2984 C2983 1.366 . S
C2984 C2985 1.414 . S
C2984 C2987 1.499 . S
C2985 H2959 0.950 . S
C2985 C2984 1.414 . S
C2985 C2986 1.374 . S
C2986 H2960 0.950 . S
C2986 C2982 1.385 . S
C2986 C2985 1.374 . S
C2987 C2984 1.499 . S
C2987 C2988 1.373 . S
C2987 C2989 1.389 . S
C2988 H2961 0.950 . S
C2988 C2974 1.377 . S
C2988 C2987 1.373 . S
C2989 C2973 1.377 . S
C2989 C2987 1.389 . S
C2989 C2990 1.524 . S
C2990 C2989 1.524 . S
C2990 C2991 1.397 . S
C2990 C2995 1.363 . S
C2991 H2962 0.950 . S
C2991 C2990 1.397 . S
C2991 C2992 1.334 . S
C2992 H2963 0.950 . S
C2992 C2991 1.334 . S
C2992 C2993 1.287 . S
C2993 C2992 1.287 . S
C2993 C2994 1.524 . S
C2993 H2996 0.999 . S
C2994 H2964 0.950 . S
C2994 C2993 1.524 . S
C2994 C2995 1.415 . S
C2995 H2965 0.950 . S
C2995 C2990 1.363 . S
C2995 C2994 1.415 . S
H2996 C2993 0.999 . S
H2997 C2978 0.913 . S
H2998 C3016 0.951 . S
H2999 C3018 0.951 . S
H3000 C3020 0.950 . S
H3001 C3021 0.950 . S
H3002 C3023 0.950 . S
H3003 C3026 0.950 . S
H3004 C3027 0.950 1_556 S
H3005 C3029 0.950 . S
H3006 C3030 0.950 . S
H3007 C3031 0.951 . S
H3008 C3033 0.951 . S
H3009 C3035 0.950 . S
H3010 C3036 0.950 . S
H3011 C3038 0.950 . S
H3012 C3041 0.950 . S
H3013 C3042 0.950 . S
H3014 C3044 0.950 . S
H3015 C3045 0.950 . S
C3016 H2998 0.951 . S
C3016 C3017 1.366 . S
C3016 C3018 1.388 . S
C3017 C3016 1.366 . S
C3017 C3021 1.385 . S
C3018 H2999 0.951 . S
C3018 C3016 1.388 . S
C3018 C3019 1.366 . S
C3019 C3018 1.366 . S
C3019 C3020 1.414 . S
C3019 C3022 1.499 . S
C3020 H3000 0.950 . S
C3020 C3019 1.414 . S
C3020 C3021 1.374 . S
C3021 H3001 0.950 . S
C3021 C3017 1.385 . S
C3021 C3020 1.374 . S
C3022 C3019 1.499 . S
C3022 C3023 1.373 . S
C3022 C3024 1.389 . S
C3023 H3002 0.950 . S
C3023 C3022 1.373 . S
C3023 C3039 1.377 . S
C3024 C3022 1.389 . S
C3024 C3025 1.524 . S
C3024 C3038 1.377 . S
C3025 C3024 1.524 . S
C3025 C3026 1.397 . S
C3025 C3030 1.363 . S
C3026 H3003 0.950 . S
C3026 C3025 1.397 . S
C3026 C3027 1.334 . S
C3027 H3004 0.950 1_554 S
C3027 C3026 1.334 . S
C3027 C3028 1.287 . S
C3028 C3027 1.287 . S
C3028 C3029 1.524 . S
C3028 H3047 0.913 . S
C3029 H3005 0.950 . S
C3029 C3028 1.524 . S
C3029 C3030 1.415 . S
C3030 H3006 0.950 . S
C3030 C3025 1.363 . S
C3030 C3029 1.415 . S
C3031 H3007 0.951 . S
C3031 C3032 1.366 . S
C3031 C3033 1.388 . S
C3032 C3031 1.366 . S
C3032 C3036 1.385 . S
C3033 H3008 0.951 . S
C3033 C3031 1.388 . S
C3033 C3034 1.366 . S
C3034 C3033 1.366 . S
C3034 C3035 1.414 . S
C3034 C3037 1.499 . S
C3035 H3009 0.950 . S
C3035 C3034 1.414 . S
C3035 C3036 1.374 . S
C3036 H3010 0.950 . S
C3036 C3032 1.385 . S
C3036 C3035 1.374 . S
C3037 C3034 1.499 . S
C3037 C3038 1.373 . S
C3037 C3039 1.389 . S
C3038 H3011 0.950 . S
C3038 C3024 1.377 . S
C3038 C3037 1.373 . S
C3039 C3023 1.377 . S
C3039 C3037 1.389 . S
C3039 C3040 1.524 . S
C3040 C3039 1.524 . S
C3040 C3041 1.397 . S
C3040 C3045 1.363 . S
C3041 H3012 0.950 . S
C3041 C3040 1.397 . S
C3041 C3042 1.334 . S
C3042 H3013 0.950 . S
C3042 C3041 1.334 . S
C3042 C3043 1.287 . S
C3043 C3042 1.287 . S
C3043 C3044 1.524 . S
C3043 H3046 0.999 . S
C3044 H3014 0.950 . S
C3044 C3043 1.524 . S
C3044 C3045 1.415 . S
C3045 H3015 0.950 . S
C3045 C3040 1.363 . S
C3045 C3044 1.415 . S
H3046 C3043 0.999 . S
H3047 C3028 0.913 . S
H3048 C3066 0.951 . S
H3049 C3068 0.943 1_554 S
H3050 C3070 0.950 . S
H3051 C3071 0.950 . S
H3052 C3073 0.950 . S
H3053 C3076 0.950 . S
H3054 C3077 0.950 . S
H3055 C3079 0.950 1_554 S
H3056 C3080 0.950 . S
H3057 C3081 0.951 . S
H3058 C3083 0.951 . S
H3059 C3085 0.950 . S
H3060 C3086 0.950 . S
H3061 C3088 0.950 . S
H3062 C3091 0.950 . S
H3063 C3092 0.950 . S
H3064 C3094 0.950 . S
H3065 C3095 0.950 . S
C3066 H3048 0.951 . S
C3066 C3067 1.366 1_554 S
C3066 C3068 1.388 1_554 S
C3067 C3066 1.366 1_556 S
C3067 C3071 1.385 . S
C3068 H3049 0.943 1_556 S
C3068 C3066 1.388 1_556 S
C3068 C3069 1.366 . S
C3069 C3068 1.366 . S
C3069 C3070 1.414 . S
C3069 C3072 1.499 . S
C3070 H3050 0.950 . S
C3070 C3069 1.414 . S
C3070 C3071 1.374 . S
C3071 H3051 0.950 . S
C3071 C3067 1.385 . S
C3071 C3070 1.374 . S
C3072 C3069 1.499 . S
C3072 C3073 1.373 . S
C3072 C3074 1.389 . S
C3073 H3052 0.950 . S
C3073 C3072 1.373 . S
C3073 C3089 1.377 . S
C3074 C3072 1.389 . S
C3074 C3075 1.524 . S
C3074 C3088 1.377 . S
C3075 C3074 1.524 . S
C3075 C3076 1.397 . S
C3075 C3080 1.363 . S
C3076 H3053 0.950 . S
C3076 C3075 1.397 . S
C3076 C3077 1.334 . S
C3077 H3054 0.950 . S
C3077 C3076 1.334 . S
C3077 C3078 1.287 . S
C3078 C3077 1.287 . S
C3078 C3079 1.524 . S
C3078 H3097 0.913 . S
C3079 H3055 0.950 1_556 S
C3079 C3078 1.524 . S
C3079 C3080 1.415 . S
C3080 H3056 0.950 . S
C3080 C3075 1.363 . S
C3080 C3079 1.415 . S
C3081 H3057 0.951 . S
C3081 C3082 1.366 . S
C3081 C3083 1.388 . S
C3082 C3081 1.366 . S
C3082 C3086 1.385 . S
C3083 H3058 0.951 . S
C3083 C3081 1.388 . S
C3083 C3084 1.366 . S
C3084 C3083 1.366 . S
C3084 C3085 1.414 . S
C3084 C3087 1.499 . S
C3085 H3059 0.950 . S
C3085 C3084 1.414 . S
C3085 C3086 1.374 . S
C3086 H3060 0.950 . S
C3086 C3082 1.385 . S
C3086 C3085 1.374 . S
C3087 C3084 1.499 . S
C3087 C3088 1.373 . S
C3087 C3089 1.389 . S
C3088 H3061 0.950 . S
C3088 C3074 1.377 . S
C3088 C3087 1.373 . S
C3089 C3073 1.377 . S
C3089 C3087 1.389 . S
C3089 C3090 1.524 . S
C3090 C3089 1.524 . S
C3090 C3091 1.397 . S
C3090 C3095 1.363 . S
C3091 H3062 0.950 . S
C3091 C3090 1.397 . S
C3091 C3092 1.334 . S
C3092 H3063 0.950 . S
C3092 C3091 1.334 . S
C3092 C3093 1.287 . S
C3093 C3092 1.287 . S
C3093 C3094 1.524 . S
C3093 H3096 0.999 . S
C3094 H3064 0.950 . S
C3094 C3093 1.524 . S
C3094 C3095 1.415 . S
C3095 H3065 0.950 . S
C3095 C3090 1.363 . S
C3095 C3094 1.415 . S
H3096 C3093 0.999 . S
H3097 C3078 0.913 . S
H3098 C3116 0.951 . S
H3099 C3118 0.951 . S
H3100 C3120 0.978 . S
H3101 C3121 0.950 . S
H3102 C3123 0.950 . S
H3103 C3126 0.950 . S
H3104 C3127 0.950 . S
H3105 C3129 0.950 . S
H3106 C3130 0.950 . S
H3107 C3131 0.951 . S
H3108 C3133 0.951 . S
H3109 C3135 0.950 . S
H3110 C3136 0.950 . S
H3111 C3138 0.950 . S
H3112 C3141 0.950 . S
H3113 C3142 0.950 . S
H3114 C3144 0.950 . S
H3115 C3145 0.950 . S
C3116 H3098 0.951 . S
C3116 C3117 1.366 . S
C3116 C3118 1.388 . S
C3117 C3116 1.366 . S
C3117 C3121 1.385 1_556 S
C3118 H3099 0.951 . S
C3118 C3116 1.388 . S
C3118 C3119 1.366 . S
C3119 C3118 1.366 . S
C3119 C3120 1.414 . S
C3119 C3122 1.499 . S
C3120 H3100 0.978 . S
C3120 C3119 1.414 . S
C3120 C3121 1.374 1_556 S
C3121 H3101 0.950 . S
C3121 C3117 1.385 1_554 S
C3121 C3120 1.374 1_554 S
C3122 C3119 1.499 . S
C3122 C3123 1.373 . S
C3122 C3124 1.389 . S
C3123 H3102 0.950 . S
C3123 C3122 1.373 . S
C3123 C3139 1.377 . S
C3124 C3122 1.389 . S
C3124 C3125 1.524 . S
C3124 C3138 1.377 . S
C3125 C3124 1.524 . S
C3125 C3126 1.397 . S
C3125 C3130 1.363 . S
C3126 H3103 0.950 . S
C3126 C3125 1.397 . S
C3126 C3127 1.334 . S
C3127 H3104 0.950 . S
C3127 C3126 1.334 . S
C3127 C3128 1.287 . S
C3128 C3127 1.287 . S
C3128 C3129 1.524 . S
C3128 H3147 0.913 . S
C3129 H3105 0.950 . S
C3129 C3128 1.524 . S
C3129 C3130 1.415 . S
C3130 H3106 0.950 . S
C3130 C3125 1.363 . S
C3130 C3129 1.415 . S
C3131 H3107 0.951 . S
C3131 C3132 1.366 . S
C3131 C3133 1.388 . S
C3132 C3131 1.366 . S
C3132 C3136 1.385 . S
C3133 H3108 0.951 . S
C3133 C3131 1.388 . S
C3133 C3134 1.366 . S
C3134 C3133 1.366 . S
C3134 C3135 1.414 . S
C3134 C3137 1.499 . S
C3135 H3109 0.950 . S
C3135 C3134 1.414 . S
C3135 C3136 1.374 . S
C3136 H3110 0.950 . S
C3136 C3132 1.385 . S
C3136 C3135 1.374 . S
C3137 C3134 1.499 . S
C3137 C3138 1.373 . S
C3137 C3139 1.389 . S
C3138 H3111 0.950 . S
C3138 C3124 1.377 . S
C3138 C3137 1.373 . S
C3139 C3123 1.377 . S
C3139 C3137 1.389 . S
C3139 C3140 1.524 . S
C3140 C3139 1.524 . S
C3140 C3141 1.397 . S
C3140 C3145 1.363 . S
C3141 H3112 0.950 . S
C3141 C3140 1.397 . S
C3141 C3142 1.334 . S
C3142 H3113 0.950 . S
C3142 C3141 1.334 . S
C3142 C3143 1.287 . S
C3143 C3142 1.287 . S
C3143 C3144 1.524 . S
C3143 H3146 0.999 . S
C3144 H3114 0.950 . S
C3144 C3143 1.524 . S
C3144 C3145 1.415 . S
C3145 H3115 0.950 . S
C3145 C3140 1.363 . S
C3145 C3144 1.415 . S
H3146 C3143 0.999 . S
H3147 C3128 0.913 . S
H3148 C3166 0.951 1_554 S
H3149 C3168 0.951 . S
H3150 C3170 0.950 . S
H3151 C3171 0.950 . S
H3152 C3173 0.950 . S
H3153 C3176 0.950 . S
H3154 C3177 0.950 . S
H3155 C3179 0.950 . S
H3156 C3180 0.950 . S
H3157 C3181 0.951 . S
H3158 C3183 0.951 . S
H3159 C3185 0.950 . S
H3160 C3186 0.950 . S
H3161 C3188 0.950 . S
H3162 C3191 0.950 . S
H3163 C3192 0.950 . S
H3164 C3194 0.950 . S
H3165 C3195 0.950 . S
C3166 H3148 0.951 1_556 S
C3166 C3167 1.366 . S
C3166 C3168 1.388 . S
C3167 C3166 1.366 . S
C3167 C3171 1.385 . S
C3168 H3149 0.951 . S
C3168 C3166 1.388 . S
C3168 C3169 1.366 . S
C3169 C3168 1.366 . S
C3169 C3170 1.414 . S
C3169 C3172 1.499 . S
C3170 H3150 0.950 . S
C3170 C3169 1.414 . S
C3170 C3171 1.374 . S
C3171 H3151 0.950 . S
C3171 C3167 1.385 . S
C3171 C3170 1.374 . S
C3172 C3169 1.499 . S
C3172 C3173 1.373 . S
C3172 C3174 1.389 . S
C3173 H3152 0.950 . S
C3173 C3172 1.373 . S
C3173 C3189 1.377 . S
C3174 C3172 1.389 . S
C3174 C3175 1.524 . S
C3174 C3188 1.377 . S
C3175 C3174 1.524 . S
C3175 C3176 1.397 . S
C3175 C3180 1.363 1_556 S
C3176 H3153 0.950 . S
C3176 C3175 1.397 . S
C3176 C3177 1.334 1_556 S
C3177 H3154 0.950 . S
C3177 C3176 1.334 1_554 S
C3177 C3178 1.287 . S
C3178 C3177 1.287 . S
C3178 C3179 1.524 . S
C3178 H3197 0.913 . S
C3179 H3155 0.950 . S
C3179 C3178 1.524 . S
C3179 C3180 1.415 . S
C3180 H3156 0.950 . S
C3180 C3175 1.363 1_554 S
C3180 C3179 1.415 . S
C3181 H3157 0.951 . S
C3181 C3182 1.366 . S
C3181 C3183 1.388 . S
C3182 C3181 1.366 . S
C3182 C3186 1.385 . S
C3183 H3158 0.951 . S
C3183 C3181 1.388 . S
C3183 C3184 1.366 . S
C3184 C3183 1.366 . S
C3184 C3185 1.414 . S
C3184 C3187 1.499 . S
C3185 H3159 0.950 . S
C3185 C3184 1.414 . S
C3185 C3186 1.374 . S
C3186 H3160 0.950 . S
C3186 C3182 1.385 . S
C3186 C3185 1.374 . S
C3187 C3184 1.499 . S
C3187 C3188 1.373 . S
C3187 C3189 1.389 . S
C3188 H3161 0.950 . S
C3188 C3174 1.377 . S
C3188 C3187 1.373 . S
C3189 C3173 1.377 . S
C3189 C3187 1.389 . S
C3189 C3190 1.524 . S
C3190 C3189 1.524 . S
C3190 C3191 1.397 . S
C3190 C3195 1.363 . S
C3191 H3162 0.950 . S
C3191 C3190 1.397 . S
C3191 C3192 1.334 . S
C3192 H3163 0.950 . S
C3192 C3191 1.334 . S
C3192 C3193 1.287 . S
C3193 C3192 1.287 . S
C3193 C3194 1.524 . S
C3193 H3196 0.999 . S
C3194 H3164 0.950 . S
C3194 C3193 1.524 . S
C3194 C3195 1.415 . S
C3195 H3165 0.950 . S
C3195 C3190 1.363 . S
C3195 C3194 1.415 . S
H3196 C3193 0.999 . S
H3197 C3178 0.913 . S
H3198 C3216 0.951 . S
H3199 C3218 0.951 . S
H3200 C3220 0.950 . S
H3201 C3221 0.950 1_554 S
H3202 C3223 0.950 . S
H3203 C3226 0.950 . S
H3204 C3227 0.984 . S
H3205 C3229 0.950 . S
H3206 C3230 0.950 . S
H3207 C3231 0.951 . S
H3208 C3233 0.951 . S
H3209 C3235 0.950 . S
H3210 C3236 0.950 . S
H3211 C3238 0.950 . S
H3212 C3241 0.950 . S
H3213 C3242 0.950 . S
H3214 C3244 0.950 . S
H3215 C3245 0.950 . S
C3216 H3198 0.951 . S
C3216 C3217 1.366 . S
C3216 C3218 1.388 . S
C3217 C3216 1.366 . S
C3217 C3221 1.385 . S
C3218 H3199 0.951 . S
C3218 C3216 1.388 . S
C3218 C3219 1.366 . S
C3219 C3218 1.366 . S
C3219 C3220 1.414 . S
C3219 C3222 1.499 . S
C3220 H3200 0.950 . S
C3220 C3219 1.414 . S
C3220 C3221 1.374 . S
C3221 H3201 0.950 1_556 S
C3221 C3217 1.385 . S
C3221 C3220 1.374 . S
C3222 C3219 1.499 . S
C3222 C3223 1.373 . S
C3222 C3224 1.389 . S
C3223 H3202 0.950 . S
C3223 C3222 1.373 . S
C3223 C3239 1.377 . S
C3224 C3222 1.389 . S
C3224 C3225 1.524 . S
C3224 C3238 1.377 . S
C3225 C3224 1.524 . S
C3225 C3226 1.397 . S
C3225 C3230 1.363 . S
C3226 H3203 0.950 . S
C3226 C3225 1.397 . S
C3226 C3227 1.334 . S
C3227 H3204 0.984 . S
C3227 C3226 1.334 . S
C3227 C3228 1.287 . S
C3228 C3227 1.287 . S
C3228 C3229 1.524 . S
C3228 H3247 0.913 . S
C3229 H3205 0.950 . S
C3229 C3228 1.524 . S
C3229 C3230 1.415 . S
C3230 H3206 0.950 . S
C3230 C3225 1.363 . S
C3230 C3229 1.415 . S
C3231 H3207 0.951 . S
C3231 C3232 1.366 . S
C3231 C3233 1.388 . S
C3232 C3231 1.366 . S
C3232 C3236 1.385 . S
C3233 H3208 0.951 . S
C3233 C3231 1.388 . S
C3233 C3234 1.366 . S
C3234 C3233 1.366 . S
C3234 C3235 1.414 . S
C3234 C3237 1.499 . S
C3235 H3209 0.950 . S
C3235 C3234 1.414 . S
C3235 C3236 1.374 . S
C3236 H3210 0.950 . S
C3236 C3232 1.385 . S
C3236 C3235 1.374 . S
C3237 C3234 1.499 . S
C3237 C3238 1.373 . S
C3237 C3239 1.389 . S
C3238 H3211 0.950 . S
C3238 C3224 1.377 . S
C3238 C3237 1.373 . S
C3239 C3223 1.377 . S
C3239 C3237 1.389 . S
C3239 C3240 1.524 . S
C3240 C3239 1.524 . S
C3240 C3241 1.397 . S
C3240 C3245 1.363 . S
C3241 H3212 0.950 . S
C3241 C3240 1.397 . S
C3241 C3242 1.334 . S
C3242 H3213 0.950 . S
C3242 C3241 1.334 . S
C3242 C3243 1.287 . S
C3243 C3242 1.287 . S
C3243 C3244 1.524 . S
C3243 H3246 0.999 . S
C3244 H3214 0.950 . S
C3244 C3243 1.524 . S
C3244 C3245 1.415 . S
C3245 H3215 0.950 . S
C3245 C3240 1.363 . S
C3245 C3244 1.415 . S
H3246 C3243 0.999 . S
H3247 C3228 0.913 . S
H3248 C3266 0.951 . S
H3249 C3268 0.951 . S
H3250 C3270 0.950 . S
H3251 C3271 0.950 1_554 S
H3252 C3273 0.950 . S
H3253 C3276 0.950 . S
H3254 C3277 0.950 . S
H3255 C3279 0.950 . S
H3256 C3280 0.950 . S
H3257 C3281 0.951 . S
H3258 C3283 0.951 . S
H3259 C3285 0.950 . S
H3260 C3286 0.950 . S
H3261 C3288 0.950 . S
H3262 C3291 0.950 . S
H3263 C3292 0.950 . S
H3264 C3294 0.950 . S
H3265 C3295 0.950 . S
C3266 H3248 0.951 . S
C3266 C3267 1.366 . S
C3266 C3268 1.388 . S
C3267 C3266 1.366 . S
C3267 C3271 1.385 . S
C3268 H3249 0.951 . S
C3268 C3266 1.388 . S
C3268 C3269 1.366 . S
C3269 C3268 1.366 . S
C3269 C3270 1.414 . S
C3269 C3272 1.499 . S
C3270 H3250 0.950 . S
C3270 C3269 1.414 . S
C3270 C3271 1.374 . S
C3271 H3251 0.950 1_556 S
C3271 C3267 1.385 . S
C3271 C3270 1.374 . S
C3272 C3269 1.499 . S
C3272 C3273 1.373 . S
C3272 C3274 1.389 . S
C3273 H3252 0.950 . S
C3273 C3272 1.373 . S
C3273 C3289 1.377 . S
C3274 C3272 1.389 . S
C3274 C3275 1.524 . S
C3274 C3288 1.377 . S
C3275 C3274 1.524 . S
C3275 C3276 1.397 . S
C3275 C3280 1.363 . S
C3276 H3253 0.950 . S
C3276 C3275 1.397 . S
C3276 C3277 1.334 . S
C3277 H3254 0.950 . S
C3277 C3276 1.334 . S
C3277 C3278 1.287 . S
C3278 C3277 1.287 . S
C3278 C3279 1.524 . S
C3278 H3297 0.913 . S
C3279 H3255 0.950 . S
C3279 C3278 1.524 . S
C3279 C3280 1.415 . S
C3280 H3256 0.950 . S
C3280 C3275 1.363 . S
C3280 C3279 1.415 . S
C3281 H3257 0.951 . S
C3281 C3282 1.366 . S
C3281 C3283 1.388 . S
C3282 C3281 1.366 . S
C3282 C3286 1.385 . S
C3283 H3258 0.951 . S
C3283 C3281 1.388 . S
C3283 C3284 1.366 . S
C3284 C3283 1.366 . S
C3284 C3285 1.414 . S
C3284 C3287 1.499 . S
C3285 H3259 0.950 . S
C3285 C3284 1.414 . S
C3285 C3286 1.374 . S
C3286 H3260 0.950 . S
C3286 C3282 1.385 . S
C3286 C3285 1.374 . S
C3287 C3284 1.499 . S
C3287 C3288 1.373 . S
C3287 C3289 1.389 . S
C3288 H3261 0.950 . S
C3288 C3274 1.377 . S
C3288 C3287 1.373 . S
C3289 C3273 1.377 . S
C3289 C3287 1.389 . S
C3289 C3290 1.524 . S
C3290 C3289 1.524 . S
C3290 C3291 1.397 . S
C3290 C3295 1.363 . S
C3291 H3262 0.950 . S
C3291 C3290 1.397 . S
C3291 C3292 1.334 . S
C3292 H3263 0.950 . S
C3292 C3291 1.334 . S
C3292 C3293 1.287 . S
C3293 C3292 1.287 . S
C3293 C3294 1.524 1_556 S
C3293 H3296 0.999 . S
C3294 H3264 0.950 . S
C3294 C3293 1.524 1_554 S
C3294 C3295 1.415 1_554 S
C3295 H3265 0.950 . S
C3295 C3290 1.363 . S
C3295 C3294 1.415 1_556 S
H3296 C3293 0.999 . S
H3297 C3278 0.913 . S
H3298 C3316 0.951 . S
H3299 C3318 0.951 . S
H3300 C3320 0.950 . S
H3301 C3321 0.950 1_554 S
H3302 C3323 0.950 . S
H3303 C3326 0.950 . S
H3304 C3327 0.950 1_554 S
H3305 C3329 0.950 . S
H3306 C3330 0.950 . S
H3307 C3331 0.951 . S
H3308 C3333 0.951 . S
H3309 C3335 0.950 . S
H3310 C3336 0.950 . S
H3311 C3338 0.950 . S
H3312 C3341 0.950 . S
H3313 C3342 0.950 . S
H3314 C3344 0.950 . S
H3315 C3345 0.950 . S
C3316 H3298 0.951 . S
C3316 C3317 1.366 . S
C3316 C3318 1.388 . S
C3317 C3316 1.366 . S
C3317 C3321 1.385 . S
C3318 H3299 0.951 . S
C3318 C3316 1.388 . S
C3318 C3319 1.366 . S
C3319 C3318 1.366 . S
C3319 C3320 1.414 . S
C3319 C3322 1.499 . S
C3320 H3300 0.950 . S
C3320 C3319 1.414 . S
C3320 C3321 1.374 . S
C3321 H3301 0.950 1_556 S
C3321 C3317 1.385 . S
C3321 C3320 1.374 . S
C3322 C3319 1.499 . S
C3322 C3323 1.373 . S
C3322 C3324 1.389 . S
C3323 H3302 0.950 . S
C3323 C3322 1.373 . S
C3323 C3339 1.377 . S
C3324 C3322 1.389 . S
C3324 C3325 1.524 . S
C3324 C3338 1.377 . S
C3325 C3324 1.524 . S
C3325 C3326 1.397 . S
C3325 C3330 1.363 . S
C3326 H3303 0.950 . S
C3326 C3325 1.397 . S
C3326 C3327 1.334 . S
C3327 H3304 0.950 1_556 S
C3327 C3326 1.334 . S
C3327 C3328 1.287 . S
C3328 C3327 1.287 . S
C3328 C3329 1.524 . S
C3328 H3347 0.913 . S
C3329 H3305 0.950 . S
C3329 C3328 1.524 . S
C3329 C3330 1.415 . S
C3330 H3306 0.950 . S
C3330 C3325 1.363 . S
C3330 C3329 1.415 . S
C3331 H3307 0.951 . S
C3331 C3332 1.366 . S
C3331 C3333 1.388 . S
C3332 C3331 1.366 . S
C3332 C3336 1.385 . S
C3333 H3308 0.951 . S
C3333 C3331 1.388 . S
C3333 C3334 1.366 . S
C3334 C3333 1.366 . S
C3334 C3335 1.414 . S
C3334 C3337 1.499 . S
C3335 H3309 0.950 . S
C3335 C3334 1.414 . S
C3335 C3336 1.374 . S
C3336 H3310 0.950 . S
C3336 C3332 1.385 . S
C3336 C3335 1.374 . S
C3337 C3334 1.499 . S
C3337 C3338 1.373 . S
C3337 C3339 1.389 . S
C3338 H3311 0.950 . S
C3338 C3324 1.377 . S
C3338 C3337 1.373 . S
C3339 C3323 1.377 . S
C3339 C3337 1.389 . S
C3339 C3340 1.524 . S
C3340 C3339 1.524 . S
C3340 C3341 1.397 . S
C3340 C3345 1.363 . S
C3341 H3312 0.950 . S
C3341 C3340 1.397 . S
C3341 C3342 1.334 . S
C3342 H3313 0.950 . S
C3342 C3341 1.334 . S
C3342 C3343 1.287 . S
C3343 C3342 1.287 . S
C3343 C3344 1.524 . S
C3343 H3346 0.999 . S
C3344 H3314 0.950 . S
C3344 C3343 1.524 . S
C3344 C3345 1.415 . S
C3345 H3315 0.950 . S
C3345 C3340 1.363 . S
C3345 C3344 1.415 . S
H3346 C3343 0.999 . S
H3347 C3328 0.913 . S
H3348 C3366 0.951 . S
H3349 C3368 0.951 . S
H3350 C3370 0.950 . S
H3351 C3371 0.950 . S
H3352 C3373 0.950 . S
H3353 C3376 0.950 . S
H3354 C3377 0.950 . S
H3355 C3379 0.958 . S
H3356 C3380 0.950 . S
H3357 C3381 0.951 . S
H3358 C3383 0.951 . S
H3359 C3385 0.950 . S
H3360 C3386 0.950 . S
H3361 C3388 0.950 . S
H3362 C3391 0.950 . S
H3363 C3392 0.950 . S
H3364 C3394 0.950 . S
H3365 C3395 0.950 . S
C3366 H3348 0.951 . S
C3366 C3367 1.366 . S
C3366 C3368 1.388 . S
C3367 C3366 1.366 . S
C3367 C3371 1.385 . S
C3368 H3349 0.951 . S
C3368 C3366 1.388 . S
C3368 C3369 1.366 . S
C3369 C3368 1.366 . S
C3369 C3370 1.414 . S
C3369 C3372 1.499 . S
C3370 H3350 0.950 . S
C3370 C3369 1.414 . S
C3370 C3371 1.374 . S
C3371 H3351 0.950 . S
C3371 C3367 1.385 . S
C3371 C3370 1.374 . S
C3372 C3369 1.499 . S
C3372 C3373 1.373 . S
C3372 C3374 1.389 . S
C3373 H3352 0.950 . S
C3373 C3372 1.373 . S
C3373 C3389 1.377 . S
C3374 C3372 1.389 . S
C3374 C3375 1.524 . S
C3374 C3388 1.377 . S
C3375 C3374 1.524 . S
C3375 C3376 1.397 . S
C3375 C3380 1.363 . S
C3376 H3353 0.950 . S
C3376 C3375 1.397 . S
C3376 C3377 1.334 1_554 S
C3377 H3354 0.950 . S
C3377 C3376 1.334 1_556 S
C3377 C3378 1.287 . S
C3378 C3377 1.287 . S
C3378 C3379 1.536 . S
C3378 H3397 0.913 . S
C3379 H3355 0.958 . S
C3379 C3378 1.536 . S
C3379 C3380 1.394 1_556 S
C3380 H3356 0.950 . S
C3380 C3375 1.363 . S
C3380 C3379 1.394 1_554 S
C3381 H3357 0.951 . S
C3381 C3382 1.366 . S
C3381 C3383 1.388 . S
C3382 C3381 1.366 . S
C3382 C3386 1.385 . S
C3383 H3358 0.951 . S
C3383 C3381 1.388 . S
C3383 C3384 1.366 . S
C3384 C3383 1.366 . S
C3384 C3385 1.414 . S
C3384 C3387 1.499 . S
C3385 H3359 0.950 . S
C3385 C3384 1.414 . S
C3385 C3386 1.374 . S
C3386 H3360 0.950 . S
C3386 C3382 1.385 . S
C3386 C3385 1.374 . S
C3387 C3384 1.499 . S
C3387 C3388 1.373 . S
C3387 C3389 1.389 . S
C3388 H3361 0.950 . S
C3388 C3374 1.377 . S
C3388 C3387 1.373 . S
C3389 C3373 1.377 . S
C3389 C3387 1.389 . S
C3389 C3390 1.524 . S
C3390 C3389 1.524 . S
C3390 C3391 1.397 . S
C3390 C3395 1.363 . S
C3391 H3362 0.950 . S
C3391 C3390 1.397 . S
C3391 C3392 1.334 . S
C3392 H3363 0.950 . S
C3392 C3391 1.334 . S
C3392 C3393 1.287 . S
C3393 C3392 1.287 . S
C3393 C3394 1.524 . S
C3393 H3396 0.999 . S
C3394 H3364 0.950 . S
C3394 C3393 1.524 . S
C3394 C3395 1.415 . S
C3395 H3365 0.950 . S
C3395 C3390 1.363 . S
C3395 C3394 1.415 . S
H3396 C3393 0.999 . S
H3397 C3378 0.913 . S
H3398 C3416 0.951 . S
H3399 C3418 0.951 . S
H3400 C3420 0.950 . S
H3401 C3421 0.950 . S
H3402 C3423 0.950 . S
H3403 C3426 0.950 . S
H3404 C3427 0.950 . S
H3405 C3429 0.950 . S
H3406 C3430 0.950 . S
H3407 C3431 0.951 . S
H3408 C3433 0.951 . S
H3409 C3435 0.950 . S
H3410 C3436 0.950 . S
H3411 C3438 0.950 . S
H3412 C3441 0.950 . S
H3413 C3442 0.950 . S
H3414 C3444 0.950 . S
H3415 C3445 0.950 . S
C3416 H3398 0.951 . S
C3416 C3417 1.366 . S
C3416 C3418 1.388 . S
C3417 C3416 1.366 . S
C3417 C3421 1.385 . S
C3418 H3399 0.951 . S
C3418 C3416 1.388 . S
C3418 C3419 1.366 . S
C3419 C3418 1.366 . S
C3419 C3420 1.414 . S
C3419 C3422 1.499 . S
C3420 H3400 0.950 . S
C3420 C3419 1.414 . S
C3420 C3421 1.374 . S
C3421 H3401 0.950 . S
C3421 C3417 1.385 . S
C3421 C3420 1.374 . S
C3422 C3419 1.499 . S
C3422 C3423 1.373 . S
C3422 C3424 1.389 . S
C3423 H3402 0.950 . S
C3423 C3422 1.373 . S
C3423 C3439 1.377 . S
C3424 C3422 1.389 . S
C3424 C3425 1.524 . S
C3424 C3438 1.377 . S
C3425 C3424 1.524 . S
C3425 C3426 1.397 . S
C3425 C3430 1.363 . S
C3426 H3403 0.950 . S
C3426 C3425 1.397 . S
C3426 C3427 1.334 . S
C3427 H3404 0.950 . S
C3427 C3426 1.334 . S
C3427 C3428 1.287 . S
C3428 C3427 1.287 . S
C3428 C3429 1.524 . S
C3428 H3447 0.913 . S
C3429 H3405 0.950 . S
C3429 C3428 1.524 . S
C3429 C3430 1.415 . S
C3430 H3406 0.950 . S
C3430 C3425 1.363 . S
C3430 C3429 1.415 . S
C3431 H3407 0.951 . S
C3431 C3432 1.366 . S
C3431 C3433 1.388 . S
C3432 C3431 1.366 . S
C3432 C3436 1.385 . S
C3433 H3408 0.951 . S
C3433 C3431 1.388 . S
C3433 C3434 1.366 . S
C3434 C3433 1.366 . S
C3434 C3435 1.414 . S
C3434 C3437 1.499 . S
C3435 H3409 0.950 . S
C3435 C3434 1.414 . S
C3435 C3436 1.374 . S
C3436 H3410 0.950 . S
C3436 C3432 1.385 . S
C3436 C3435 1.374 . S
C3437 C3434 1.499 . S
C3437 C3438 1.373 . S
C3437 C3439 1.389 . S
C3438 H3411 0.950 . S
C3438 C3424 1.377 . S
C3438 C3437 1.373 . S
C3439 C3423 1.377 . S
C3439 C3437 1.389 . S
C3439 C3440 1.524 . S
C3440 C3439 1.524 . S
C3440 C3441 1.397 . S
C3440 C3445 1.363 . S
C3441 H3412 0.950 . S
C3441 C3440 1.397 . S
C3441 C3442 1.334 . S
C3442 H3413 0.950 . S
C3442 C3441 1.334 . S
C3442 C3443 1.287 . S
C3443 C3442 1.287 . S
C3443 C3444 1.524 . S
C3443 H3446 0.999 . S
C3444 H3414 0.950 . S
C3444 C3443 1.524 . S
C3444 C3445 1.415 . S
C3445 H3415 0.950 . S
C3445 C3440 1.363 . S
C3445 C3444 1.415 . S
H3446 C3443 0.999 . S
H3447 C3428 0.913 . S
H3448 C3466 0.951 . S
H3449 C3468 0.951 . S
H3450 C3470 0.950 . S
H3451 C3471 0.950 . S
H3452 C3473 0.950 . S
H3453 C3476 0.950 . S
H3454 C3477 0.964 . S
H3455 C3479 0.950 . S
H3456 C3480 0.950 . S
H3457 C3481 0.951 . S
H3458 C3483 0.951 . S
H3459 C3485 0.950 . S
H3460 C3486 0.950 . S
H3461 C3488 0.950 . S
H3462 C3491 0.950 . S
H3463 C3492 0.950 . S
H3464 C3494 0.950 . S
H3465 C3495 0.950 . S
C3466 H3448 0.951 . S
C3466 C3467 1.366 . S
C3466 C3468 1.388 . S
C3467 C3466 1.366 . S
C3467 C3471 1.385 . S
C3468 H3449 0.951 . S
C3468 C3466 1.388 . S
C3468 C3469 1.366 . S
C3469 C3468 1.366 . S
C3469 C3470 1.414 . S
C3469 C3472 1.499 . S
C3470 H3450 0.950 . S
C3470 C3469 1.414 . S
C3470 C3471 1.374 . S
C3471 H3451 0.950 . S
C3471 C3467 1.385 . S
C3471 C3470 1.374 . S
C3472 C3469 1.499 . S
C3472 C3473 1.373 . S
C3472 C3474 1.389 . S
C3473 H3452 0.950 . S
C3473 C3472 1.373 . S
C3473 C3489 1.377 . S
C3474 C3472 1.389 . S
C3474 C3475 1.524 . S
C3474 C3488 1.377 . S
C3475 C3474 1.524 . S
C3475 C3476 1.397 . S
C3475 C3480 1.363 . S
C3476 H3453 0.950 . S
C3476 C3475 1.397 . S
C3476 C3477 1.300 1_554 S
C3477 H3454 0.964 . S
C3477 C3476 1.300 1_556 S
C3477 C3478 1.308 . S
C3478 C3477 1.308 . S
C3478 C3479 1.524 . S
C3478 H3497 0.913 . S
C3479 H3455 0.950 . S
C3479 C3478 1.524 . S
C3479 C3480 1.415 1_556 S
C3480 H3456 0.950 . S
C3480 C3475 1.363 . S
C3480 C3479 1.415 1_554 S
C3481 H3457 0.951 . S
C3481 C3482 1.366 . S
C3481 C3483 1.388 . S
C3482 C3481 1.366 . S
C3482 C3486 1.385 . S
C3483 H3458 0.951 . S
C3483 C3481 1.388 . S
C3483 C3484 1.366 . S
C3484 C3483 1.366 . S
C3484 C3485 1.414 . S
C3484 C3487 1.499 . S
C3485 H3459 0.950 . S
C3485 C3484 1.414 . S
C3485 C3486 1.374 . S
C3486 H3460 0.950 . S
C3486 C3482 1.385 . S
C3486 C3485 1.374 . S
C3487 C3484 1.499 . S
C3487 C3488 1.373 . S
C3487 C3489 1.389 . S
C3488 H3461 0.950 . S
C3488 C3474 1.377 . S
C3488 C3487 1.373 . S
C3489 C3473 1.377 . S
C3489 C3487 1.389 . S
C3489 C3490 1.524 . S
C3490 C3489 1.524 . S
C3490 C3491 1.397 . S
C3490 C3495 1.363 . S
C3491 H3462 0.950 . S
C3491 C3490 1.397 . S
C3491 C3492 1.334 . S
C3492 H3463 0.950 . S
C3492 C3491 1.334 . S
C3492 C3493 1.287 . S
C3493 C3492 1.287 . S
C3493 C3494 1.524 . S
C3493 H3496 0.999 . S
C3494 H3464 0.950 . S
C3494 C3493 1.524 . S
C3494 C3495 1.415 . S
C3495 H3465 0.950 . S
C3495 C3490 1.363 . S
C3495 C3494 1.415 . S
H3496 C3493 0.999 . S
H3497 C3478 0.913 . S
H3498 C3516 0.951 . S
H3499 C3518 0.951 . S
H3500 C3520 0.950 . S
H3501 C3521 0.950 . S
H3502 C3523 0.950 . S
H3503 C3526 0.950 . S
H3504 C3527 0.950 . S
H3505 C3529 0.950 . S
H3506 C3530 0.950 . S
H3507 C3531 0.951 . S
H3508 C3533 0.951 . S
H3509 C3535 0.950 . S
H3510 C3536 0.950 . S
H3511 C3538 0.950 . S
H3512 C3541 0.950 . S
H3513 C3542 0.950 . S
H3514 C3544 0.950 . S
H3515 C3545 0.950 . S
C3516 H3498 0.951 . S
C3516 C3517 1.366 . S
C3516 C3518 1.388 . S
C3517 C3516 1.366 . S
C3517 C3521 1.385 . S
C3518 H3499 0.951 . S
C3518 C3516 1.388 . S
C3518 C3519 1.366 . S
C3519 C3518 1.366 . S
C3519 C3520 1.414 . S
C3519 C3522 1.499 . S
C3520 H3500 0.950 . S
C3520 C3519 1.414 . S
C3520 C3521 1.374 . S
C3521 H3501 0.950 . S
C3521 C3517 1.385 . S
C3521 C3520 1.374 . S
C3522 C3519 1.499 . S
C3522 C3523 1.373 . S
C3522 C3524 1.389 . S
C3523 H3502 0.950 . S
C3523 C3522 1.373 . S
C3523 C3539 1.377 . S
C3524 C3522 1.389 . S
C3524 C3525 1.524 . S
C3524 C3538 1.377 . S
C3525 C3524 1.524 . S
C3525 C3526 1.397 . S
C3525 C3530 1.363 . S
C3526 H3503 0.950 . S
C3526 C3525 1.397 . S
C3526 C3527 1.334 . S
C3527 H3504 0.950 . S
C3527 C3526 1.334 . S
C3527 C3528 1.287 . S
C3528 C3527 1.287 . S
C3528 C3529 1.524 . S
C3528 H3547 0.913 . S
C3529 H3505 0.950 . S
C3529 C3528 1.524 . S
C3529 C3530 1.415 . S
C3530 H3506 0.950 . S
C3530 C3525 1.363 . S
C3530 C3529 1.415 . S
C3531 H3507 0.951 . S
C3531 C3532 1.366 . S
C3531 C3533 1.388 . S
C3532 C3531 1.366 . S
C3532 C3536 1.385 . S
C3533 H3508 0.951 . S
C3533 C3531 1.388 . S
C3533 C3534 1.366 . S
C3534 C3533 1.366 . S
C3534 C3535 1.414 . S
C3534 C3537 1.499 . S
C3535 H3509 0.950 . S
C3535 C3534 1.414 . S
C3535 C3536 1.374 . S
C3536 H3510 0.950 . S
C3536 C3532 1.385 . S
C3536 C3535 1.374 . S
C3537 C3534 1.499 . S
C3537 C3538 1.373 . S
C3537 C3539 1.389 . S
C3538 H3511 0.950 . S
C3538 C3524 1.377 . S
C3538 C3537 1.373 . S
C3539 C3523 1.377 . S
C3539 C3537 1.389 . S
C3539 C3540 1.524 . S
C3540 C3539 1.524 . S
C3540 C3541 1.397 . S
C3540 C3545 1.363 . S
C3541 H3512 0.950 . S
C3541 C3540 1.397 . S
C3541 C3542 1.334 . S
C3542 H3513 0.950 . S
C3542 C3541 1.334 . S
C3542 C3543 1.287 . S
C3543 C3542 1.287 . S
C3543 C3544 1.524 . S
C3543 H3546 0.999 . S
C3544 H3514 0.950 . S
C3544 C3543 1.524 . S
C3544 C3545 1.415 . S
C3545 H3515 0.950 . S
C3545 C3540 1.363 . S
C3545 C3544 1.415 . S
H3546 C3543 0.999 . S
H3547 C3528 0.913 . S
H3548 C3566 0.951 . S
H3549 C3568 0.951 . S
H3550 C3570 0.950 . S
H3551 C3571 0.950 . S
H3552 C3573 0.950 . S
H3553 C3576 0.950 . S
H3554 C3577 0.950 . S
H3555 C3579 0.950 . S
H3556 C3580 0.950 . S
H3557 C3581 0.951 . S
H3558 C3583 0.951 . S
H3559 C3585 0.950 . S
H3560 C3586 0.950 . S
H3561 C3588 0.950 . S
H3562 C3591 0.950 . S
H3563 C3592 0.950 . S
H3564 C3594 0.950 . S
H3565 C3595 0.950 . S
C3566 H3548 0.951 . S
C3566 C3567 1.366 . S
C3566 C3568 1.388 . S
C3567 C3566 1.366 . S
C3567 C3571 1.385 . S
C3568 H3549 0.951 . S
C3568 C3566 1.388 . S
C3568 C3569 1.366 . S
C3569 C3568 1.366 . S
C3569 C3570 1.414 . S
C3569 C3572 1.499 . S
C3570 H3550 0.950 . S
C3570 C3569 1.414 . S
C3570 C3571 1.374 . S
C3571 H3551 0.950 . S
C3571 C3567 1.385 . S
C3571 C3570 1.374 . S
C3572 C3569 1.499 . S
C3572 C3573 1.373 . S
C3572 C3574 1.389 . S
C3573 H3552 0.950 . S
C3573 C3572 1.373 . S
C3573 C3589 1.377 . S
C3574 C3572 1.389 . S
C3574 C3575 1.524 . S
C3574 C3588 1.377 . S
C3575 C3574 1.524 . S
C3575 C3576 1.397 . S
C3575 C3580 1.363 . S
C3576 H3553 0.950 . S
C3576 C3575 1.397 . S
C3576 C3577 1.334 . S
C3577 H3554 0.950 . S
C3577 C3576 1.334 . S
C3577 C3578 1.287 . S
C3578 C3577 1.287 . S
C3578 C3579 1.524 . S
C3578 H3597 0.913 . S
C3579 H3555 0.950 . S
C3579 C3578 1.524 . S
C3579 C3580 1.415 . S
C3580 H3556 0.950 . S
C3580 C3575 1.363 . S
C3580 C3579 1.415 . S
C3581 H3557 0.951 . S
C3581 C3582 1.366 . S
C3581 C3583 1.388 . S
C3582 C3581 1.366 . S
C3582 C3586 1.385 . S
C3583 H3558 0.951 . S
C3583 C3581 1.388 . S
C3583 C3584 1.366 . S
C3584 C3583 1.366 . S
C3584 C3585 1.414 . S
C3584 C3587 1.499 . S
C3585 H3559 0.950 . S
C3585 C3584 1.414 . S
C3585 C3586 1.374 . S
C3586 H3560 0.950 . S
C3586 C3582 1.385 . S
C3586 C3585 1.374 . S
C3587 C3584 1.499 . S
C3587 C3588 1.373 . S
C3587 C3589 1.389 . S
C3588 H3561 0.950 . S
C3588 C3574 1.377 . S
C3588 C3587 1.373 . S
C3589 C3573 1.377 . S
C3589 C3587 1.389 . S
C3589 C3590 1.524 . S
C3590 C3589 1.524 . S
C3590 C3591 1.397 . S
C3590 C3595 1.363 . S
C3591 H3562 0.950 . S
C3591 C3590 1.397 . S
C3591 C3592 1.334 . S
C3592 H3563 0.950 . S
C3592 C3591 1.334 . S
C3592 C3593 1.287 . S
C3593 C3592 1.287 . S
C3593 C3594 1.524 . S
C3593 H3596 0.999 . S
C3594 H3564 0.950 . S
C3594 C3593 1.524 . S
C3594 C3595 1.415 . S
C3595 H3565 0.950 . S
C3595 C3590 1.363 . S
C3595 C3594 1.415 . S
H3596 C3593 0.999 . S
H3597 C3578 0.913 . S
H3598 C3616 0.951 . S
H3599 C3618 0.951 . S
H3600 C3620 0.950 . S
H3601 C3621 0.950 . S
H3602 C3623 0.950 . S
H3603 C3626 0.950 . S
H3604 C3627 0.950 . S
H3605 C3629 0.950 . S
H3606 C3630 0.950 . S
H3607 C3631 0.951 . S
H3608 C3633 0.951 . S
H3609 C3635 0.950 . S
H3610 C3636 0.950 . S
H3611 C3638 0.950 . S
H3612 C3641 0.950 . S
H3613 C3642 0.950 . S
H3614 C3644 0.950 . S
H3615 C3645 0.950 . S
C3616 H3598 0.951 . S
C3616 C3617 1.366 . S
C3616 C3618 1.388 . S
C3617 C3616 1.366 . S
C3617 C3621 1.385 . S
C3618 H3599 0.951 . S
C3618 C3616 1.388 . S
C3618 C3619 1.366 . S
C3619 C3618 1.366 . S
C3619 C3620 1.414 . S
C3619 C3622 1.499 . S
C3620 H3600 0.950 . S
C3620 C3619 1.414 . S
C3620 C3621 1.374 . S
C3621 H3601 0.950 . S
C3621 C3617 1.385 . S
C3621 C3620 1.374 . S
C3622 C3619 1.499 . S
C3622 C3623 1.373 . S
C3622 C3624 1.389 . S
C3623 H3602 0.950 . S
C3623 C3622 1.373 . S
C3623 C3639 1.377 . S
C3624 C3622 1.389 . S
C3624 C3625 1.524 . S
C3624 C3638 1.377 . S
C3625 C3624 1.524 . S
C3625 C3626 1.397 . S
C3625 C3630 1.363 . S
C3626 H3603 0.950 . S
C3626 C3625 1.397 . S
C3626 C3627 1.334 . S
C3627 H3604 0.950 . S
C3627 C3626 1.334 . S
C3627 C3628 1.287 . S
C3628 C3627 1.287 . S
C3628 C3629 1.524 . S
C3628 H3647 0.913 . S
C3629 H3605 0.950 . S
C3629 C3628 1.524 . S
C3629 C3630 1.415 . S
C3630 H3606 0.950 . S
C3630 C3625 1.363 . S
C3630 C3629 1.415 . S
C3631 H3607 0.951 . S
C3631 C3632 1.366 . S
C3631 C3633 1.388 . S
C3632 C3631 1.366 . S
C3632 C3636 1.385 . S
C3633 H3608 0.951 . S
C3633 C3631 1.388 . S
C3633 C3634 1.366 . S
C3634 C3633 1.366 . S
C3634 C3635 1.414 . S
C3634 C3637 1.499 . S
C3635 H3609 0.950 . S
C3635 C3634 1.414 . S
C3635 C3636 1.374 . S
C3636 H3610 0.950 . S
C3636 C3632 1.385 . S
C3636 C3635 1.374 . S
C3637 C3634 1.499 . S
C3637 C3638 1.373 . S
C3637 C3639 1.389 . S
C3638 H3611 0.950 . S
C3638 C3624 1.377 . S
C3638 C3637 1.373 . S
C3639 C3623 1.377 . S
C3639 C3637 1.389 . S
C3639 C3640 1.524 . S
C3640 C3639 1.524 . S
C3640 C3641 1.397 . S
C3640 C3645 1.363 . S
C3641 H3612 0.950 . S
C3641 C3640 1.397 . S
C3641 C3642 1.334 . S
C3642 H3613 0.950 . S
C3642 C3641 1.334 . S
C3642 C3643 1.287 . S
C3643 C3642 1.287 . S
C3643 C3644 1.524 . S
C3643 H3646 0.999 . S
C3644 H3614 0.950 . S
C3644 C3643 1.524 . S
C3644 C3645 1.415 . S
C3645 H3615 0.950 . S
C3645 C3640 1.363 . S
C3645 C3644 1.415 . S
H3646 C3643 0.999 . S
H3647 C3628 0.913 . S
H3648 C3666 0.951 . S
H3649 C3668 0.951 . S
H3650 C3670 0.950 . S
H3651 C3671 0.950 . S
H3652 C3673 0.950 1_655 S
H3653 C3676 0.950 . S
H3654 C3677 0.950 . S
H3655 C3679 0.950 . S
H3656 C3680 0.950 . S
H3657 C3681 0.951 . S
H3658 C3683 0.954 . S
H3659 C3685 0.950 . S
H3660 C3686 0.950 . S
H3661 C3688 0.950 . S
H3662 C3691 0.950 . S
H3663 C3692 0.950 . S
H3664 C3694 0.950 . S
H3665 C3695 0.950 . S
C3666 H3648 0.951 . S
C3666 C3667 1.366 . S
C3666 C3668 1.388 . S
C3667 C3666 1.366 . S
C3667 C3671 1.385 . S
C3668 H3649 0.951 . S
C3668 C3666 1.388 . S
C3668 C3669 1.366 . S
C3669 C3668 1.366 . S
C3669 C3670 1.414 . S
C3669 C3672 1.499 . S
C3670 H3650 0.950 . S
C3670 C3669 1.414 . S
C3670 C3671 1.374 . S
C3671 H3651 0.950 . S
C3671 C3667 1.385 . S
C3671 C3670 1.374 . S
C3672 C3669 1.499 . S
C3672 C3673 1.373 . S
C3672 C3674 1.389 . S
C3673 H3652 0.950 1_455 S
C3673 C3672 1.373 . S
C3673 C3689 1.377 1_455 S
C3674 C3672 1.389 . S
C3674 C3675 1.524 . S
C3674 C3688 1.377 . S
C3675 C3674 1.524 . S
C3675 C3676 1.397 . S
C3675 C3680 1.363 . S
C3676 H3653 0.950 . S
C3676 C3675 1.397 . S
C3676 C3677 1.334 . S
C3677 H3654 0.950 . S
C3677 C3676 1.334 . S
C3677 C3678 1.287 . S
C3678 C3677 1.287 . S
C3678 C3679 1.524 . S
C3678 H3697 0.913 . S
C3679 H3655 0.950 . S
C3679 C3678 1.524 . S
C3679 C3680 1.415 . S
C3680 H3656 0.950 . S
C3680 C3675 1.363 . S
C3680 C3679 1.415 . S
C3681 H3657 0.951 . S
C3681 C3682 1.366 1_655 S
C3681 C3683 1.395 . S
C3682 C3681 1.366 1_455 S
C3682 C3686 1.385 . S
C3683 H3658 0.954 . S
C3683 C3681 1.395 . S
C3683 C3684 1.355 1_655 S
C3684 C3683 1.355 1_455 S
C3684 C3685 1.414 . S
C3684 C3687 1.499 . S
C3685 H3659 0.950 . S
C3685 C3684 1.414 . S
C3685 C3686 1.374 . S
C3686 H3660 0.950 . S
C3686 C3682 1.385 . S
C3686 C3685 1.374 . S
C3687 C3684 1.499 . S
C3687 C3688 1.373 . S
C3687 C3689 1.389 1_455 S
C3688 H3661 0.950 . S
C3688 C3674 1.377 . S
C3688 C3687 1.373 . S
C3689 C3673 1.377 1_655 S
C3689 C3687 1.389 1_655 S
C3689 C3690 1.524 . S
C3690 C3689 1.524 . S
C3690 C3691 1.397 . S
C3690 C3695 1.363 . S
C3691 H3662 0.950 . S
C3691 C3690 1.397 . S
C3691 C3692 1.334 . S
C3692 H3663 0.950 . S
C3692 C3691 1.334 . S
C3692 C3693 1.287 . S
C3693 C3692 1.287 . S
C3693 C3694 1.524 . S
C3693 H3696 0.999 . S
C3694 H3664 0.950 . S
C3694 C3693 1.524 . S
C3694 C3695 1.415 . S
C3695 H3665 0.950 . S
C3695 C3690 1.363 . S
C3695 C3694 1.415 . S
H3696 C3693 0.999 . S
H3697 C3678 0.913 . S
H3698 C3716 0.951 . S
H3699 C3718 0.951 . S
H3700 C3720 0.950 . S
H3701 C3721 0.950 . S
H3702 C3723 0.950 . S
H3703 C3726 0.950 . S
H3704 C3727 0.950 . S
H3705 C3729 0.950 . S
H3706 C3730 0.950 . S
H3707 C3731 0.951 . S
H3708 C3733 0.951 . S
H3709 C3735 0.950 . S
H3710 C3736 0.950 . S
H3711 C3738 0.950 . S
H3712 C3741 0.950 . S
H3713 C3742 0.950 . S
H3714 C3744 0.950 . S
H3715 C3745 0.950 . S
C3716 H3698 0.951 . S
C3716 C3717 1.366 . S
C3716 C3718 1.388 . S
C3717 C3716 1.366 . S
C3717 C3721 1.385 . S
C3718 H3699 0.951 . S
C3718 C3716 1.388 . S
C3718 C3719 1.366 . S
C3719 C3718 1.366 . S
C3719 C3720 1.414 . S
C3719 C3722 1.499 . S
C3720 H3700 0.950 . S
C3720 C3719 1.414 . S
C3720 C3721 1.374 . S
C3721 H3701 0.950 . S
C3721 C3717 1.385 . S
C3721 C3720 1.374 . S
C3722 C3719 1.499 . S
C3722 C3723 1.373 . S
C3722 C3724 1.389 . S
C3723 H3702 0.950 . S
C3723 C3722 1.373 . S
C3723 C3739 1.377 . S
C3724 C3722 1.389 . S
C3724 C3725 1.524 . S
C3724 C3738 1.377 . S
C3725 C3724 1.524 . S
C3725 C3726 1.397 . S
C3725 C3730 1.363 . S
C3726 H3703 0.950 . S
C3726 C3725 1.397 . S
C3726 C3727 1.334 . S
C3727 H3704 0.950 . S
C3727 C3726 1.334 . S
C3727 C3728 1.287 . S
C3728 C3727 1.287 . S
C3728 C3729 1.524 . S
C3728 H3747 0.913 . S
C3729 H3705 0.950 . S
C3729 C3728 1.524 . S
C3729 C3730 1.415 . S
C3730 H3706 0.950 . S
C3730 C3725 1.363 . S
C3730 C3729 1.415 . S
C3731 H3707 0.951 . S
C3731 C3732 1.366 . S
C3731 C3733 1.388 . S
C3732 C3731 1.366 . S
C3732 C3736 1.385 . S
C3733 H3708 0.951 . S
C3733 C3731 1.388 . S
C3733 C3734 1.366 . S
C3734 C3733 1.366 . S
C3734 C3735 1.414 . S
C3734 C3737 1.499 . S
C3735 H3709 0.950 . S
C3735 C3734 1.414 . S
C3735 C3736 1.374 . S
C3736 H3710 0.950 . S
C3736 C3732 1.385 . S
C3736 C3735 1.374 . S
C3737 C3734 1.499 . S
C3737 C3738 1.373 . S
C3737 C3739 1.389 . S
C3738 H3711 0.950 . S
C3738 C3724 1.377 . S
C3738 C3737 1.373 . S
C3739 C3723 1.377 . S
C3739 C3737 1.389 . S
C3739 C3740 1.524 . S
C3740 C3739 1.524 . S
C3740 C3741 1.397 . S
C3740 C3745 1.363 . S
C3741 H3712 0.950 . S
C3741 C3740 1.397 . S
C3741 C3742 1.334 . S
C3742 H3713 0.950 . S
C3742 C3741 1.334 . S
C3742 C3743 1.287 . S
C3743 C3742 1.287 . S
C3743 C3744 1.524 . S
C3743 H3746 0.999 . S
C3744 H3714 0.950 . S
C3744 C3743 1.524 . S
C3744 C3745 1.415 . S
C3745 H3715 0.950 . S
C3745 C3740 1.363 . S
C3745 C3744 1.415 . S
H3746 C3743 0.999 . S
H3747 C3728 0.913 . S
H3748 C3766 0.951 . S
H3749 C3768 0.951 . S
H3750 C3770 0.950 . S
H3751 C3771 0.950 . S
H3752 C3773 0.950 . S
H3753 C3776 0.950 . S
H3754 C3777 0.950 . S
H3755 C3779 0.950 . S
H3756 C3780 0.950 . S
H3757 C3781 0.951 . S
H3758 C3783 0.972 . S
H3759 C3785 0.950 . S
H3760 C3786 0.950 . S
H3761 C3788 0.950 . S
H3762 C3791 0.950 . S
H3763 C3792 0.950 . S
H3764 C3794 0.950 . S
H3765 C3795 0.950 . S
C3766 H3748 0.951 . S
C3766 C3767 1.366 . S
C3766 C3768 1.388 . S
C3767 C3766 1.366 . S
C3767 C3771 1.385 . S
C3768 H3749 0.951 . S
C3768 C3766 1.388 . S
C3768 C3769 1.366 . S
C3769 C3768 1.366 . S
C3769 C3770 1.414 . S
C3769 C3772 1.499 . S
C3770 H3750 0.950 . S
C3770 C3769 1.414 . S
C3770 C3771 1.374 . S
C3771 H3751 0.950 . S
C3771 C3767 1.385 . S
C3771 C3770 1.374 . S
C3772 C3769 1.499 . S
C3772 C3773 1.373 1_565 S
C3772 C3774 1.389 . S
C3773 H3752 0.950 . S
C3773 C3772 1.373 1_545 S
C3773 C3789 1.377 . S
C3774 C3772 1.389 . S
C3774 C3775 1.524 . S
C3774 C3788 1.377 . S
C3775 C3774 1.524 . S
C3775 C3776 1.397 . S
C3775 C3780 1.363 . S
C3776 H3753 0.950 . S
C3776 C3775 1.397 . S
C3776 C3777 1.334 . S
C3777 H3754 0.950 . S
C3777 C3776 1.334 . S
C3777 C3778 1.287 . S
C3778 C3777 1.287 . S
C3778 C3779 1.524 . S
C3778 H3797 0.913 . S
C3779 H3755 0.950 . S
C3779 C3778 1.524 . S
C3779 C3780 1.415 . S
C3780 H3756 0.950 . S
C3780 C3775 1.363 . S
C3780 C3779 1.415 . S
C3781 H3757 0.951 . S
C3781 C3782 1.366 1_545 S
C3781 C3783 1.361 . S
C3782 C3781 1.366 1_565 S
C3782 C3786 1.385 . S
C3783 H3758 0.972 . S
C3783 C3781 1.361 . S
C3783 C3784 1.377 1_545 S
C3784 C3783 1.377 1_565 S
C3784 C3785 1.414 . S
C3784 C3787 1.499 . S
C3785 H3759 0.950 . S
C3785 C3784 1.414 . S
C3785 C3786 1.374 . S
C3786 H3760 0.950 . S
C3786 C3782 1.385 . S
C3786 C3785 1.374 . S
C3787 C3784 1.499 . S
C3787 C3788 1.373 . S
C3787 C3789 1.389 1_565 S
C3788 H3761 0.950 . S
C3788 C3774 1.377 . S
C3788 C3787 1.373 . S
C3789 C3773 1.377 . S
C3789 C3787 1.389 1_545 S
C3789 C3790 1.524 . S
C3790 C3789 1.524 . S
C3790 C3791 1.397 . S
C3790 C3795 1.363 . S
C3791 H3762 0.950 . S
C3791 C3790 1.397 . S
C3791 C3792 1.334 . S
C3792 H3763 0.950 . S
C3792 C3791 1.334 . S
C3792 C3793 1.287 . S
C3793 C3792 1.287 . S
C3793 C3794 1.524 . S
C3793 H3796 0.999 . S
C3794 H3764 0.950 . S
C3794 C3793 1.524 . S
C3794 C3795 1.415 . S
C3795 H3765 0.950 . S
C3795 C3790 1.363 . S
C3795 C3794 1.415 . S
H3796 C3793 0.999 . S
H3797 C3778 0.913 . S
H3798 C3816 0.951 . S
H3799 C3818 0.951 . S
H3800 C3820 0.950 . S
H3801 C3821 0.950 . S
H3802 C3823 0.959 . S
H3803 C3826 0.950 . S
H3804 C3827 0.950 . S
H3805 C3829 0.950 . S
H3806 C3830 0.950 . S
H3807 C3831 0.951 . S
H3808 C3833 0.951 . S
H3809 C3835 0.950 . S
H3810 C3836 0.950 . S
H3811 C3838 0.950 . S
H3812 C3841 0.950 . S
H3813 C3842 0.950 . S
H3814 C3844 0.950 . S
H3815 C3845 0.950 . S
C3816 H3798 0.951 . S
C3816 C3817 1.366 . S
C3816 C3818 1.388 . S
C3817 C3816 1.366 . S
C3817 C3821 1.385 . S
C3818 H3799 0.951 . S
C3818 C3816 1.388 . S
C3818 C3819 1.366 . S
C3819 C3818 1.366 . S
C3819 C3820 1.414 . S
C3819 C3822 1.499 . S
C3820 H3800 0.950 . S
C3820 C3819 1.414 . S
C3820 C3821 1.374 . S
C3821 H3801 0.950 . S
C3821 C3817 1.385 . S
C3821 C3820 1.374 . S
C3822 C3819 1.499 . S
C3822 C3823 1.336 1_565 S
C3822 C3824 1.389 . S
C3823 H3802 0.959 . S
C3823 C3822 1.336 1_545 S
C3823 C3839 1.408 . S
C3824 C3822 1.389 . S
C3824 C3825 1.524 . S
C3824 C3838 1.377 . S
C3825 C3824 1.524 . S
C3825 C3826 1.397 . S
C3825 C3830 1.363 . S
C3826 H3803 0.950 . S
C3826 C3825 1.397 . S
C3826 C3827 1.334 . S
C3827 H3804 0.950 . S
C3827 C3826 1.334 . S
C3827 C3828 1.287 . S
C3828 C3827 1.287 . S
C3828 C3829 1.524 . S
C3828 H3847 0.913 . S
C3829 H3805 0.950 . S
C3829 C3828 1.524 . S
C3829 C3830 1.415 . S
C3830 H3806 0.950 . S
C3830 C3825 1.363 . S
C3830 C3829 1.415 . S
C3831 H3807 0.951 . S
C3831 C3832 1.366 . S
C3831 C3833 1.388 . S
C3832 C3831 1.366 . S
C3832 C3836 1.385 . S
C3833 H3808 0.951 . S
C3833 C3831 1.388 . S
C3833 C3834 1.366 . S
C3834 C3833 1.366 . S
C3834 C3835 1.414 . S
C3834 C3837 1.499 . S
C3835 H3809 0.950 . S
C3835 C3834 1.414 . S
C3835 C3836 1.374 . S
C3836 H3810 0.950 . S
C3836 C3832 1.385 . S
C3836 C3835 1.374 . S
C3837 C3834 1.499 . S
C3837 C3838 1.373 . S
C3837 C3839 1.389 1_565 S
C3838 H3811 0.950 . S
C3838 C3824 1.377 . S
C3838 C3837 1.373 . S
C3839 C3823 1.408 . S
C3839 C3837 1.389 1_545 S
C3839 C3840 1.524 . S
C3840 C3839 1.524 . S
C3840 C3841 1.397 . S
C3840 C3845 1.363 . S
C3841 H3812 0.950 . S
C3841 C3840 1.397 . S
C3841 C3842 1.334 . S
C3842 H3813 0.950 . S
C3842 C3841 1.334 . S
C3842 C3843 1.287 . S
C3843 C3842 1.287 . S
C3843 C3844 1.524 . S
C3843 H3846 0.999 . S
C3844 H3814 0.950 . S
C3844 C3843 1.524 . S
C3844 C3845 1.415 . S
C3845 H3815 0.950 . S
C3845 C3840 1.363 . S
C3845 C3844 1.415 . S
H3846 C3843 0.999 . S
H3847 C3828 0.913 . S
H3848 C3866 0.951 . S
H3849 C3868 0.951 . S
H3850 C3870 0.950 . S
H3851 C3871 0.950 . S
H3852 C3873 0.886 1_655 S
H3853 C3876 0.950 . S
H3854 C3877 0.950 . S
H3855 C3879 0.950 . S
H3856 C3880 0.950 . S
H3857 C3881 0.951 . S
H3858 C3883 0.951 . S
H3859 C3885 0.950 . S
H3860 C3886 0.950 . S
H3861 C3888 0.950 . S
H3862 C3891 0.950 . S
H3863 C3892 0.950 . S
H3864 C3894 0.950 . S
H3865 C3895 0.950 1_455 S
C3866 H3848 0.951 . S
C3866 C3867 1.366 . S
C3866 C3868 1.388 . S
C3867 C3866 1.366 . S
C3867 C3871 1.385 . S
C3868 H3849 0.951 . S
C3868 C3866 1.388 . S
C3868 C3869 1.366 . S
C3869 C3868 1.366 . S
C3869 C3870 1.414 . S
C3869 C3872 1.499 . S
C3870 H3850 0.950 . S
C3870 C3869 1.414 . S
C3870 C3871 1.374 . S
C3871 H3851 0.950 . S
C3871 C3867 1.385 . S
C3871 C3870 1.374 . S
C3872 C3869 1.499 . S
C3872 C3873 1.373 . S
C3872 C3874 1.389 . S
C3873 H3852 0.886 1_455 S
C3873 C3872 1.373 . S
C3873 C3889 1.380 . S
C3874 C3872 1.389 . S
C3874 C3875 1.524 . S
C3874 C3888 1.377 . S
C3875 C3874 1.524 . S
C3875 C3876 1.397 . S
C3875 C3880 1.363 . S
C3876 H3853 0.950 . S
C3876 C3875 1.397 . S
C3876 C3877 1.334 . S
C3877 H3854 0.950 . S
C3877 C3876 1.334 . S
C3877 C3878 1.287 . S
C3878 C3877 1.287 . S
C3878 C3879 1.524 . S
C3878 H3897 0.913 . S
C3879 H3855 0.950 . S
C3879 C3878 1.524 . S
C3879 C3880 1.415 . S
C3880 H3856 0.950 . S
C3880 C3875 1.363 . S
C3880 C3879 1.415 . S
C3881 H3857 0.951 . S
C3881 C3882 1.366 . S
C3881 C3883 1.388 . S
C3882 C3881 1.366 . S
C3882 C3886 1.385 1_455 S
C3883 H3858 0.951 . S
C3883 C3881 1.388 . S
C3883 C3884 1.366 . S
C3884 C3883 1.366 . S
C3884 C3885 1.414 1_455 S
C3884 C3887 1.499 . S
C3885 H3859 0.950 . S
C3885 C3884 1.414 1_655 S
C3885 C3886 1.374 . S
C3886 H3860 0.950 . S
C3886 C3882 1.385 1_655 S
C3886 C3885 1.374 . S
C3887 C3884 1.499 . S
C3887 C3888 1.373 . S
C3887 C3889 1.382 . S
C3888 H3861 0.950 . S
C3888 C3874 1.377 . S
C3888 C3887 1.373 . S
C3889 C3873 1.380 . S
C3889 C3887 1.382 . S
C3889 C3890 1.529 1_455 S
C3890 C3889 1.529 1_655 S
C3890 C3891 1.397 . S
C3890 C3895 1.363 . S
C3891 H3862 0.950 . S
C3891 C3890 1.397 . S
C3891 C3892 1.334 . S
C3892 H3863 0.950 . S
C3892 C3891 1.334 . S
C3892 C3893 1.287 . S
C3893 C3892 1.287 . S
C3893 C3894 1.524 . S
C3893 H3896 0.999 . S
C3894 H3864 0.950 . S
C3894 C3893 1.524 . S
C3894 C3895 1.415 . S
C3895 H3865 0.950 1_655 S
C3895 C3890 1.363 . S
C3895 C3894 1.415 . S
H3896 C3893 0.999 . S
H3897 C3878 0.913 . S
H3898 C3916 0.951 . S
H3899 C3918 0.951 . S
H3900 C3920 0.950 . S
H3901 C3921 0.950 . S
H3902 C3923 0.950 . S
H3903 C3926 0.950 . S
H3904 C3927 0.950 . S
H3905 C3929 0.950 . S
H3906 C3930 0.950 . S
H3907 C3931 0.951 . S
H3908 C3933 0.951 . S
H3909 C3935 0.950 . S
H3910 C3936 0.950 . S
H3911 C3938 0.950 . S
H3912 C3941 0.950 . S
H3913 C3942 0.950 . S
H3914 C3944 0.950 . S
H3915 C3945 0.950 . S
C3916 H3898 0.951 . S
C3916 C3917 1.366 . S
C3916 C3918 1.388 . S
C3917 C3916 1.366 . S
C3917 C3921 1.385 . S
C3918 H3899 0.951 . S
C3918 C3916 1.388 . S
C3918 C3919 1.366 . S
C3919 C3918 1.366 . S
C3919 C3920 1.414 . S
C3919 C3922 1.499 . S
C3920 H3900 0.950 . S
C3920 C3919 1.414 . S
C3920 C3921 1.374 . S
C3921 H3901 0.950 . S
C3921 C3917 1.385 . S
C3921 C3920 1.374 . S
C3922 C3919 1.499 . S
C3922 C3923 1.373 . S
C3922 C3924 1.389 . S
C3923 H3902 0.950 . S
C3923 C3922 1.373 . S
C3923 C3939 1.377 . S
C3924 C3922 1.389 . S
C3924 C3925 1.524 . S
C3924 C3938 1.377 . S
C3925 C3924 1.524 . S
C3925 C3926 1.397 . S
C3925 C3930 1.363 . S
C3926 H3903 0.950 . S
C3926 C3925 1.397 . S
C3926 C3927 1.334 . S
C3927 H3904 0.950 . S
C3927 C3926 1.334 . S
C3927 C3928 1.287 . S
C3928 C3927 1.287 . S
C3928 C3929 1.524 . S
C3928 H3947 0.913 . S
C3929 H3905 0.950 . S
C3929 C3928 1.524 . S
C3929 C3930 1.415 . S
C3930 H3906 0.950 . S
C3930 C3925 1.363 . S
C3930 C3929 1.415 . S
C3931 H3907 0.951 . S
C3931 C3932 1.366 . S
C3931 C3933 1.388 . S
C3932 C3931 1.366 . S
C3932 C3936 1.385 . S
C3933 H3908 0.951 . S
C3933 C3931 1.388 . S
C3933 C3934 1.366 . S
C3934 C3933 1.366 . S
C3934 C3935 1.414 . S
C3934 C3937 1.499 . S
C3935 H3909 0.950 . S
C3935 C3934 1.414 . S
C3935 C3936 1.374 . S
C3936 H3910 0.950 . S
C3936 C3932 1.385 . S
C3936 C3935 1.374 . S
C3937 C3934 1.499 . S
C3937 C3938 1.373 . S
C3937 C3939 1.389 . S
C3938 H3911 0.950 . S
C3938 C3924 1.377 . S
C3938 C3937 1.373 . S
C3939 C3923 1.377 . S
C3939 C3937 1.389 . S
C3939 C3940 1.524 . S
C3940 C3939 1.524 . S
C3940 C3941 1.397 . S
C3940 C3945 1.363 . S
C3941 H3912 0.950 . S
C3941 C3940 1.397 . S
C3941 C3942 1.334 . S
C3942 H3913 0.950 . S
C3942 C3941 1.334 . S
C3942 C3943 1.287 . S
C3943 C3942 1.287 . S
C3943 C3944 1.524 . S
C3943 H3946 0.999 . S
C3944 H3914 0.950 . S
C3944 C3943 1.524 . S
C3944 C3945 1.415 . S
C3945 H3915 0.950 . S
C3945 C3940 1.363 . S
C3945 C3944 1.415 . S
H3946 C3943 0.999 . S
H3947 C3928 0.913 . S
H3948 C3966 0.951 . S
H3949 C3968 0.951 . S
H3950 C3970 0.950 . S
H3951 C3971 0.950 . S
H3952 C3973 0.950 . S
H3953 C3976 0.950 . S
H3954 C3977 0.950 . S
H3955 C3979 0.950 . S
H3956 C3980 0.950 . S
H3957 C3981 0.951 . S
H3958 C3983 0.951 . S
H3959 C3985 0.950 . S
H3960 C3986 0.950 . S
H3961 C3988 0.950 . S
H3962 C3991 0.950 . S
H3963 C3992 0.950 . S
H3964 C3994 0.950 . S
H3965 C3995 0.950 . S
C3966 H3948 0.951 . S
C3966 C3967 1.366 . S
C3966 C3968 1.388 . S
C3967 C3966 1.366 . S
C3967 C3971 1.385 . S
C3968 H3949 0.951 . S
C3968 C3966 1.388 . S
C3968 C3969 1.366 . S
C3969 C3968 1.366 . S
C3969 C3970 1.414 . S
C3969 C3972 1.499 . S
C3970 H3950 0.950 . S
C3970 C3969 1.414 . S
C3970 C3971 1.374 . S
C3971 H3951 0.950 . S
C3971 C3967 1.385 . S
C3971 C3970 1.374 . S
C3972 C3969 1.499 . S
C3972 C3973 1.373 . S
C3972 C3974 1.389 . S
C3973 H3952 0.950 . S
C3973 C3972 1.373 . S
C3973 C3989 1.377 . S
C3974 C3972 1.389 . S
C3974 C3975 1.524 . S
C3974 C3988 1.377 . S
C3975 C3974 1.524 . S
C3975 C3976 1.397 . S
C3975 C3980 1.363 . S
C3976 H3953 0.950 . S
C3976 C3975 1.397 . S
C3976 C3977 1.334 . S
C3977 H3954 0.950 . S
C3977 C3976 1.334 . S
C3977 C3978 1.287 . S
C3978 C3977 1.287 . S
C3978 C3979 1.524 . S
C3978 H3997 0.913 . S
C3979 H3955 0.950 . S
C3979 C3978 1.524 . S
C3979 C3980 1.415 . S
C3980 H3956 0.950 . S
C3980 C3975 1.363 . S
C3980 C3979 1.415 . S
C3981 H3957 0.951 . S
C3981 C3982 1.366 . S
C3981 C3983 1.388 . S
C3982 C3981 1.366 . S
C3982 C3986 1.385 . S
C3983 H3958 0.951 . S
C3983 C3981 1.388 . S
C3983 C3984 1.366 . S
C3984 C3983 1.366 . S
C3984 C3985 1.414 . S
C3984 C3987 1.499 . S
C3985 H3959 0.950 . S
C3985 C3984 1.414 . S
C3985 C3986 1.374 . S
C3986 H3960 0.950 . S
C3986 C3982 1.385 . S
C3986 C3985 1.374 . S
C3987 C3984 1.499 . S
C3987 C3988 1.373 . S
C3987 C3989 1.389 . S
C3988 H3961 0.950 . S
C3988 C3974 1.377 . S
C3988 C3987 1.373 . S
C3989 C3973 1.377 . S
C3989 C3987 1.389 . S
C3989 C3990 1.524 . S
C3990 C3989 1.524 . S
C3990 C3991 1.397 . S
C3990 C3995 1.363 . S
C3991 H3962 0.950 . S
C3991 C3990 1.397 . S
C3991 C3992 1.334 . S
C3992 H3963 0.950 . S
C3992 C3991 1.334 . S
C3992 C3993 1.287 . S
C3993 C3992 1.287 . S
C3993 C3994 1.524 . S
C3993 H3996 0.999 . S
C3994 H3964 0.950 . S
C3994 C3993 1.524 . S
C3994 C3995 1.415 . S
C3995 H3965 0.950 . S
C3995 C3990 1.363 . S
C3995 C3994 1.415 . S
H3996 C3993 0.999 . S
H3997 C3978 0.913 . S
H3998 C4016 0.951 . S
H3999 C4018 0.951 . S
H4000 C4020 0.950 . S
H4001 C4021 0.950 . S
H4002 C4023 0.950 . S
H4003 C4026 0.950 . S
H4004 C4027 0.950 . S
H4005 C4029 0.950 . S
H4006 C4030 0.950 . S
H4007 C4031 0.951 . S
H4008 C4033 0.951 . S
H4009 C4035 0.950 . S
H4010 C4036 0.950 . S
H4011 C4038 0.950 . S
H4012 C4041 0.950 . S
H4013 C4042 0.950 . S
H4014 C4044 0.950 . S
H4015 C4045 0.950 . S
C4016 H3998 0.951 . S
C4016 C4017 1.366 . S
C4016 C4018 1.388 . S
C4017 C4016 1.366 . S
C4017 C4021 1.385 . S
C4018 H3999 0.951 . S
C4018 C4016 1.388 . S
C4018 C4019 1.366 . S
C4019 C4018 1.366 . S
C4019 C4020 1.414 . S
C4019 C4022 1.499 . S
C4020 H4000 0.950 . S
C4020 C4019 1.414 . S
C4020 C4021 1.374 . S
C4021 H4001 0.950 . S
C4021 C4017 1.385 . S
C4021 C4020 1.374 . S
C4022 C4019 1.499 . S
C4022 C4023 1.373 . S
C4022 C4024 1.389 . S
C4023 H4002 0.950 . S
C4023 C4022 1.373 . S
C4023 C4039 1.377 . S
C4024 C4022 1.389 . S
C4024 C4025 1.524 . S
C4024 C4038 1.377 . S
C4025 C4024 1.524 . S
C4025 C4026 1.397 . S
C4025 C4030 1.363 . S
C4026 H4003 0.950 . S
C4026 C4025 1.397 . S
C4026 C4027 1.334 . S
C4027 H4004 0.950 . S
C4027 C4026 1.334 . S
C4027 C4028 1.287 . S
C4028 C4027 1.287 . S
C4028 C4029 1.524 . S
C4028 H4047 0.913 . S
C4029 H4005 0.950 . S
C4029 C4028 1.524 . S
C4029 C4030 1.415 . S
C4030 H4006 0.950 . S
C4030 C4025 1.363 . S
C4030 C4029 1.415 . S
C4031 H4007 0.951 . S
C4031 C4032 1.366 . S
C4031 C4033 1.388 . S
C4032 C4031 1.366 . S
C4032 C4036 1.385 . S
C4033 H4008 0.951 . S
C4033 C4031 1.388 . S
C4033 C4034 1.366 . S
C4034 C4033 1.366 . S
C4034 C4035 1.414 . S
C4034 C4037 1.499 . S
C4035 H4009 0.950 . S
C4035 C4034 1.414 . S
C4035 C4036 1.374 . S
C4036 H4010 0.950 . S
C4036 C4032 1.385 . S
C4036 C4035 1.374 . S
C4037 C4034 1.499 . S
C4037 C4038 1.373 . S
C4037 C4039 1.389 . S
C4038 H4011 0.950 . S
C4038 C4024 1.377 . S
C4038 C4037 1.373 . S
C4039 C4023 1.377 . S
C4039 C4037 1.389 . S
C4039 C4040 1.524 . S
C4040 C4039 1.524 . S
C4040 C4041 1.397 . S
C4040 C4045 1.363 . S
C4041 H4012 0.950 . S
C4041 C4040 1.397 . S
C4041 C4042 1.334 . S
C4042 H4013 0.950 . S
C4042 C4041 1.334 . S
C4042 C4043 1.287 . S
C4043 C4042 1.287 . S
C4043 C4044 1.524 . S
C4043 H4046 0.999 . S
C4044 H4014 0.950 . S
C4044 C4043 1.524 . S
C4044 C4045 1.415 . S
C4045 H4015 0.950 . S
C4045 C4040 1.363 . S
C4045 C4044 1.415 . S
H4046 C4043 0.999 . S
H4047 C4028 0.913 . S
H4048 C4066 0.951 . S
H4049 C4068 0.951 . S
H4050 C4070 0.950 . S
H4051 C4071 0.950 . S
H4052 C4073 0.950 . S
H4053 C4076 0.950 . S
H4054 C4077 0.950 . S
H4055 C4079 0.950 . S
H4056 C4080 0.950 . S
H4057 C4081 0.951 . S
H4058 C4083 0.951 . S
H4059 C4085 0.950 . S
H4060 C4086 0.950 . S
H4061 C4088 0.950 . S
H4062 C4091 0.950 . S
H4063 C4092 0.950 . S
H4064 C4094 0.950 . S
H4065 C4095 0.950 . S
C4066 H4048 0.951 . S
C4066 C4067 1.366 . S
C4066 C4068 1.388 . S
C4067 C4066 1.366 . S
C4067 C4071 1.385 . S
C4068 H4049 0.951 . S
C4068 C4066 1.388 . S
C4068 C4069 1.366 . S
C4069 C4068 1.366 . S
C4069 C4070 1.414 . S
C4069 C4072 1.499 . S
C4070 H4050 0.950 . S
C4070 C4069 1.414 . S
C4070 C4071 1.374 . S
C4071 H4051 0.950 . S
C4071 C4067 1.385 . S
C4071 C4070 1.374 . S
C4072 C4069 1.499 . S
C4072 C4073 1.373 . S
C4072 C4074 1.389 . S
C4073 H4052 0.950 . S
C4073 C4072 1.373 . S
C4073 C4089 1.377 . S
C4074 C4072 1.389 . S
C4074 C4075 1.524 . S
C4074 C4088 1.377 . S
C4075 C4074 1.524 . S
C4075 C4076 1.397 . S
C4075 C4080 1.363 . S
C4076 H4053 0.950 . S
C4076 C4075 1.397 . S
C4076 C4077 1.334 . S
C4077 H4054 0.950 . S
C4077 C4076 1.334 . S
C4077 C4078 1.287 . S
C4078 C4077 1.287 . S
C4078 C4079 1.524 . S
C4078 H4097 0.913 . S
C4079 H4055 0.950 . S
C4079 C4078 1.524 . S
C4079 C4080 1.415 . S
C4080 H4056 0.950 . S
C4080 C4075 1.363 . S
C4080 C4079 1.415 . S
C4081 H4057 0.951 . S
C4081 C4082 1.366 . S
C4081 C4083 1.388 . S
C4082 C4081 1.366 . S
C4082 C4086 1.385 . S
C4083 H4058 0.951 . S
C4083 C4081 1.388 . S
C4083 C4084 1.366 . S
C4084 C4083 1.366 . S
C4084 C4085 1.414 . S
C4084 C4087 1.499 . S
C4085 H4059 0.950 . S
C4085 C4084 1.414 . S
C4085 C4086 1.374 . S
C4086 H4060 0.950 . S
C4086 C4082 1.385 . S
C4086 C4085 1.374 . S
C4087 C4084 1.499 . S
C4087 C4088 1.373 . S
C4087 C4089 1.389 . S
C4088 H4061 0.950 . S
C4088 C4074 1.377 . S
C4088 C4087 1.373 . S
C4089 C4073 1.377 . S
C4089 C4087 1.389 . S
C4089 C4090 1.524 . S
C4090 C4089 1.524 . S
C4090 C4091 1.397 . S
C4090 C4095 1.363 . S
C4091 H4062 0.950 . S
C4091 C4090 1.397 . S
C4091 C4092 1.334 . S
C4092 H4063 0.950 . S
C4092 C4091 1.334 . S
C4092 C4093 1.287 . S
C4093 C4092 1.287 . S
C4093 C4094 1.524 . S
C4093 H4096 0.999 . S
C4094 H4064 0.950 . S
C4094 C4093 1.524 . S
C4094 C4095 1.415 . S
C4095 H4065 0.950 . S
C4095 C4090 1.363 . S
C4095 C4094 1.415 . S
H4096 C4093 0.999 . S
H4097 C4078 0.913 . S
H4098 C4116 0.951 . S
H4099 C4118 0.951 . S
H4100 C4120 0.950 1_565 S
H4101 C4121 0.950 1_565 S
H4102 C4123 0.934 1_565 S
H4103 C4126 0.950 . S
H4104 C4127 0.950 . S
H4105 C4129 0.950 . S
H4106 C4130 0.950 . S
H4107 C4131 0.951 . S
H4108 C4133 0.951 . S
H4109 C4135 0.950 . S
H4110 C4136 0.950 . S
H4111 C4138 0.950 . S
H4112 C4141 0.950 . S
H4113 C4142 0.950 . S
H4114 C4144 0.950 . S
H4115 C4145 0.950 . S
C4116 H4098 0.951 . S
C4116 C4117 1.366 . S
C4116 C4118 1.388 . S
C4117 C4116 1.366 . S
C4117 C4121 1.385 . S
C4118 H4099 0.951 . S
C4118 C4116 1.388 . S
C4118 C4119 1.366 . S
C4119 C4118 1.366 . S
C4119 C4120 1.414 . S
C4119 C4122 1.499 . S
C4120 H4100 0.950 1_545 S
C4120 C4119 1.414 . S
C4120 C4121 1.374 . S
C4121 H4101 0.950 1_545 S
C4121 C4117 1.385 . S
C4121 C4120 1.374 . S
C4122 C4119 1.499 . S
C4122 C4123 1.441 . S
C4122 C4124 1.389 . S
C4123 H4102 0.934 1_545 S
C4123 C4122 1.441 . S
C4123 C4139 1.302 1_545 S
C4124 C4122 1.389 . S
C4124 C4125 1.524 . S
C4124 C4138 1.377 . S
C4125 C4124 1.524 . S
C4125 C4126 1.397 . S
C4125 C4130 1.363 . S
C4126 H4103 0.950 . S
C4126 C4125 1.397 . S
C4126 C4127 1.334 . S
C4127 H4104 0.950 . S
C4127 C4126 1.334 . S
C4127 C4128 1.287 . S
C4128 C4127 1.287 . S
C4128 C4129 1.524 . S
C4128 H4147 0.913 . S
C4129 H4105 0.950 . S
C4129 C4128 1.524 . S
C4129 C4130 1.415 . S
C4130 H4106 0.950 . S
C4130 C4125 1.363 . S
C4130 C4129 1.415 . S
C4131 H4107 0.951 . S
C4131 C4132 1.366 1_565 S
C4131 C4133 1.388 . S
C4132 C4131 1.366 1_545 S
C4132 C4136 1.385 . S
C4133 H4108 0.951 . S
C4133 C4131 1.388 . S
C4133 C4134 1.366 1_565 S
C4134 C4133 1.366 1_545 S
C4134 C4135 1.414 . S
C4134 C4137 1.499 . S
C4135 H4109 0.950 . S
C4135 C4134 1.414 . S
C4135 C4136 1.374 . S
C4136 H4110 0.950 . S
C4136 C4132 1.385 . S
C4136 C4135 1.374 . S
C4137 C4134 1.499 . S
C4137 C4138 1.373 . S
C4137 C4139 1.379 1_545 S
C4138 H4111 0.950 . S
C4138 C4124 1.377 . S
C4138 C4137 1.373 . S
C4139 C4123 1.302 1_565 S
C4139 C4137 1.379 1_565 S
C4139 C4140 1.568 . S
C4140 C4139 1.568 . S
C4140 C4141 1.397 . S
C4140 C4145 1.363 . S
C4141 H4112 0.950 . S
C4141 C4140 1.397 . S
C4141 C4142 1.334 . S
C4142 H4113 0.950 . S
C4142 C4141 1.334 . S
C4142 C4143 1.287 . S
C4143 C4142 1.287 . S
C4143 C4144 1.524 . S
C4143 H4146 0.999 . S
C4144 H4114 0.950 . S
C4144 C4143 1.524 . S
C4144 C4145 1.415 . S
C4145 H4115 0.950 . S
C4145 C4140 1.363 . S
C4145 C4144 1.415 . S
H4146 C4143 0.999 . S
H4147 C4128 0.913 . S
H4148 C4166 0.951 . S
H4149 C4168 0.951 . S
H4150 C4170 0.950 . S
H4151 C4171 1.026 . S
H4152 C4173 0.950 . S
H4153 C4176 0.950 . S
H4154 C4177 0.950 . S
H4155 C4179 0.950 . S
H4156 C4180 0.950 . S
H4157 C4181 0.951 . S
H4158 C4183 0.951 . S
H4159 C4185 0.950 . S
H4160 C4186 0.950 . S
H4161 C4188 0.950 . S
H4162 C4191 0.950 . S
H4163 C4192 0.950 . S
H4164 C4194 0.950 . S
H4165 C4195 0.950 . S
C4166 H4148 0.951 . S
C4166 C4167 1.366 . S
C4166 C4168 1.388 . S
C4167 C4166 1.366 . S
C4167 C4171 1.355 1_655 S
C4168 H4149 0.951 . S
C4168 C4166 1.388 . S
C4168 C4169 1.366 . S
C4169 C4168 1.366 . S
C4169 C4170 1.414 1_655 S
C4169 C4172 1.499 . S
C4170 H4150 0.950 . S
C4170 C4169 1.414 1_455 S
C4170 C4171 1.336 . S
C4171 H4151 1.026 . S
C4171 C4167 1.355 1_455 S
C4171 C4170 1.336 . S
C4172 C4169 1.499 . S
C4172 C4173 1.373 1_655 S
C4172 C4174 1.389 . S
C4173 H4152 0.950 . S
C4173 C4172 1.373 1_455 S
C4173 C4189 1.377 . S
C4174 C4172 1.389 . S
C4174 C4175 1.524 . S
C4174 C4188 1.377 . S
C4175 C4174 1.524 . S
C4175 C4176 1.397 . S
C4175 C4180 1.363 . S
C4176 H4153 0.950 . S
C4176 C4175 1.397 . S
C4176 C4177 1.334 . S
C4177 H4154 0.950 . S
C4177 C4176 1.334 . S
C4177 C4178 1.287 . S
C4178 C4177 1.287 . S
C4178 C4179 1.524 . S
C4178 H4197 0.913 . S
C4179 H4155 0.950 . S
C4179 C4178 1.524 . S
C4179 C4180 1.415 . S
C4180 H4156 0.950 . S
C4180 C4175 1.363 . S
C4180 C4179 1.415 . S
C4181 H4157 0.951 . S
C4181 C4182 1.366 1_455 S
C4181 C4183 1.388 . S
C4182 C4181 1.366 1_655 S
C4182 C4186 1.385 . S
C4183 H4158 0.951 . S
C4183 C4181 1.388 . S
C4183 C4184 1.366 1_455 S
C4184 C4183 1.366 1_655 S
C4184 C4185 1.414 . S
C4184 C4187 1.499 . S
C4185 H4159 0.950 . S
C4185 C4184 1.414 . S
C4185 C4186 1.374 . S
C4186 H4160 0.950 . S
C4186 C4182 1.385 . S
C4186 C4185 1.374 . S
C4187 C4184 1.499 . S
C4187 C4188 1.373 . S
C4187 C4189 1.389 1_655 S
C4188 H4161 0.950 . S
C4188 C4174 1.377 . S
C4188 C4187 1.373 . S
C4189 C4173 1.377 . S
C4189 C4187 1.389 1_455 S
C4189 C4190 1.524 . S
C4190 C4189 1.524 . S
C4190 C4191 1.397 . S
C4190 C4195 1.363 . S
C4191 H4162 0.950 . S
C4191 C4190 1.397 . S
C4191 C4192 1.334 . S
C4192 H4163 0.950 . S
C4192 C4191 1.334 . S
C4192 C4193 1.287 . S
C4193 C4192 1.287 . S
C4193 C4194 1.524 . S
C4193 H4196 0.999 . S
C4194 H4164 0.950 . S
C4194 C4193 1.524 . S
C4194 C4195 1.415 . S
C4195 H4165 0.950 . S
C4195 C4190 1.363 . S
C4195 C4194 1.415 . S
H4196 C4193 0.999 . S
H4197 C4178 0.913 . S
H4198 C4216 0.951 . S
H4199 C4218 0.951 . S
H4200 C4220 0.950 . S
H4201 C4221 0.950 . S
H4202 C4223 0.950 . S
H4203 C4226 0.950 . S
H4204 C4227 0.950 . S
H4205 C4229 0.950 . S
H4206 C4230 0.950 . S
H4207 C4231 0.951 . S
H4208 C4233 0.951 . S
H4209 C4235 0.950 . S
H4210 C4236 0.950 . S
H4211 C4238 0.950 . S
H4212 C4241 0.950 . S
H4213 C4242 0.950 . S
H4214 C4244 0.950 . S
H4215 C4245 0.950 . S
C4216 H4198 0.951 . S
C4216 C4217 1.366 . S
C4216 C4218 1.388 . S
C4217 C4216 1.366 . S
C4217 C4221 1.385 . S
C4218 H4199 0.951 . S
C4218 C4216 1.388 . S
C4218 C4219 1.366 . S
C4219 C4218 1.366 . S
C4219 C4220 1.414 . S
C4219 C4222 1.499 . S
C4220 H4200 0.950 . S
C4220 C4219 1.414 . S
C4220 C4221 1.374 . S
C4221 H4201 0.950 . S
C4221 C4217 1.385 . S
C4221 C4220 1.374 . S
C4222 C4219 1.499 . S
C4222 C4223 1.373 . S
C4222 C4224 1.389 . S
C4223 H4202 0.950 . S
C4223 C4222 1.373 . S
C4223 C4239 1.377 . S
C4224 C4222 1.389 . S
C4224 C4225 1.524 . S
C4224 C4238 1.377 . S
C4225 C4224 1.524 . S
C4225 C4226 1.397 . S
C4225 C4230 1.363 . S
C4226 H4203 0.950 . S
C4226 C4225 1.397 . S
C4226 C4227 1.334 . S
C4227 H4204 0.950 . S
C4227 C4226 1.334 . S
C4227 C4228 1.287 . S
C4228 C4227 1.287 . S
C4228 C4229 1.524 . S
C4228 H4247 0.913 . S
C4229 H4205 0.950 . S
C4229 C4228 1.524 . S
C4229 C4230 1.415 . S
C4230 H4206 0.950 . S
C4230 C4225 1.363 . S
C4230 C4229 1.415 . S
C4231 H4207 0.951 . S
C4231 C4232 1.366 . S
C4231 C4233 1.388 . S
C4232 C4231 1.366 . S
C4232 C4236 1.385 . S
C4233 H4208 0.951 . S
C4233 C4231 1.388 . S
C4233 C4234 1.366 . S
C4234 C4233 1.366 . S
C4234 C4235 1.414 . S
C4234 C4237 1.499 . S
C4235 H4209 0.950 . S
C4235 C4234 1.414 . S
C4235 C4236 1.374 . S
C4236 H4210 0.950 . S
C4236 C4232 1.385 . S
C4236 C4235 1.374 . S
C4237 C4234 1.499 . S
C4237 C4238 1.373 . S
C4237 C4239 1.389 . S
C4238 H4211 0.950 . S
C4238 C4224 1.377 . S
C4238 C4237 1.373 . S
C4239 C4223 1.377 . S
C4239 C4237 1.389 . S
C4239 C4240 1.524 . S
C4240 C4239 1.524 . S
C4240 C4241 1.397 . S
C4240 C4245 1.363 . S
C4241 H4212 0.950 . S
C4241 C4240 1.397 . S
C4241 C4242 1.334 . S
C4242 H4213 0.950 . S
C4242 C4241 1.334 . S
C4242 C4243 1.287 . S
C4243 C4242 1.287 . S
C4243 C4244 1.524 . S
C4243 H4246 0.999 . S
C4244 H4214 0.950 . S
C4244 C4243 1.524 . S
C4244 C4245 1.415 . S
C4245 H4215 0.950 . S
C4245 C4240 1.363 . S
C4245 C4244 1.415 . S
H4246 C4243 0.999 . S
H4247 C4228 0.913 . S
H4248 C4266 0.951 . S
H4249 C4268 0.951 . S
H4250 C4270 0.950 . S
H4251 C4271 0.950 . S
H4252 C4273 0.950 . S
H4253 C4276 0.950 . S
H4254 C4277 0.950 . S
H4255 C4279 0.950 . S
H4256 C4280 0.950 . S
H4257 C4281 0.951 . S
H4258 C4283 0.951 . S
H4259 C4285 0.950 . S
H4260 C4286 0.950 . S
H4261 C4288 0.950 . S
H4262 C4291 0.950 . S
H4263 C4292 0.950 . S
H4264 C4294 0.950 . S
H4265 C4295 0.950 . S
C4266 H4248 0.951 . S
C4266 C4267 1.366 . S
C4266 C4268 1.388 . S
C4267 C4266 1.366 . S
C4267 C4271 1.385 . S
C4268 H4249 0.951 . S
C4268 C4266 1.388 . S
C4268 C4269 1.366 . S
C4269 C4268 1.366 . S
C4269 C4270 1.414 . S
C4269 C4272 1.499 . S
C4270 H4250 0.950 . S
C4270 C4269 1.414 . S
C4270 C4271 1.374 . S
C4271 H4251 0.950 . S
C4271 C4267 1.385 . S
C4271 C4270 1.374 . S
C4272 C4269 1.499 . S
C4272 C4273 1.373 . S
C4272 C4274 1.389 . S
C4273 H4252 0.950 . S
C4273 C4272 1.373 . S
C4273 C4289 1.377 . S
C4274 C4272 1.389 . S
C4274 C4275 1.524 . S
C4274 C4288 1.377 . S
C4275 C4274 1.524 . S
C4275 C4276 1.397 . S
C4275 C4280 1.363 . S
C4276 H4253 0.950 . S
C4276 C4275 1.397 . S
C4276 C4277 1.334 . S
C4277 H4254 0.950 . S
C4277 C4276 1.334 . S
C4277 C4278 1.287 . S
C4278 C4277 1.287 . S
C4278 C4279 1.524 . S
C4278 H4297 0.913 . S
C4279 H4255 0.950 . S
C4279 C4278 1.524 . S
C4279 C4280 1.415 . S
C4280 H4256 0.950 . S
C4280 C4275 1.363 . S
C4280 C4279 1.415 . S
C4281 H4257 0.951 . S
C4281 C4282 1.366 . S
C4281 C4283 1.388 . S
C4282 C4281 1.366 . S
C4282 C4286 1.385 . S
C4283 H4258 0.951 . S
C4283 C4281 1.388 . S
C4283 C4284 1.366 . S
C4284 C4283 1.366 . S
C4284 C4285 1.414 . S
C4284 C4287 1.499 . S
C4285 H4259 0.950 . S
C4285 C4284 1.414 . S
C4285 C4286 1.374 . S
C4286 H4260 0.950 . S
C4286 C4282 1.385 . S
C4286 C4285 1.374 . S
C4287 C4284 1.499 . S
C4287 C4288 1.373 . S
C4287 C4289 1.389 . S
C4288 H4261 0.950 . S
C4288 C4274 1.377 . S
C4288 C4287 1.373 . S
C4289 C4273 1.377 . S
C4289 C4287 1.389 . S
C4289 C4290 1.524 . S
C4290 C4289 1.524 . S
C4290 C4291 1.397 . S
C4290 C4295 1.363 . S
C4291 H4262 0.950 . S
C4291 C4290 1.397 . S
C4291 C4292 1.334 . S
C4292 H4263 0.950 . S
C4292 C4291 1.334 . S
C4292 C4293 1.287 . S
C4293 C4292 1.287 . S
C4293 C4294 1.524 . S
C4293 H4296 0.999 . S
C4294 H4264 0.950 . S
C4294 C4293 1.524 . S
C4294 C4295 1.415 . S
C4295 H4265 0.950 . S
C4295 C4290 1.363 . S
C4295 C4294 1.415 . S
H4296 C4293 0.999 . S
H4297 C4278 0.913 . S
H4298 C4316 0.951 . S
H4299 C4318 0.951 . S
H4300 C4320 0.950 . S
H4301 C4321 0.950 . S
H4302 C4323 0.950 . S
H4303 C4326 0.950 . S
H4304 C4327 0.950 . S
H4305 C4329 0.950 . S
H4306 C4330 0.950 . S
H4307 C4331 0.951 . S
H4308 C4333 0.951 . S
H4309 C4335 0.950 . S
H4310 C4336 0.950 . S
H4311 C4338 0.950 . S
H4312 C4341 0.950 . S
H4313 C4342 0.950 . S
H4314 C4344 0.950 . S
H4315 C4345 0.950 . S
C4316 H4298 0.951 . S
C4316 C4317 1.366 . S
C4316 C4318 1.388 . S
C4317 C4316 1.366 . S
C4317 C4321 1.385 . S
C4318 H4299 0.951 . S
C4318 C4316 1.388 . S
C4318 C4319 1.366 . S
C4319 C4318 1.366 . S
C4319 C4320 1.414 . S
C4319 C4322 1.499 . S
C4320 H4300 0.950 . S
C4320 C4319 1.414 . S
C4320 C4321 1.374 . S
C4321 H4301 0.950 . S
C4321 C4317 1.385 . S
C4321 C4320 1.374 . S
C4322 C4319 1.499 . S
C4322 C4323 1.373 . S
C4322 C4324 1.389 . S
C4323 H4302 0.950 . S
C4323 C4322 1.373 . S
C4323 C4339 1.377 . S
C4324 C4322 1.389 . S
C4324 C4325 1.524 . S
C4324 C4338 1.377 . S
C4325 C4324 1.524 . S
C4325 C4326 1.397 . S
C4325 C4330 1.363 . S
C4326 H4303 0.950 . S
C4326 C4325 1.397 . S
C4326 C4327 1.334 . S
C4327 H4304 0.950 . S
C4327 C4326 1.334 . S
C4327 C4328 1.287 . S
C4328 C4327 1.287 . S
C4328 C4329 1.524 . S
C4328 H4347 0.913 . S
C4329 H4305 0.950 . S
C4329 C4328 1.524 . S
C4329 C4330 1.415 . S
C4330 H4306 0.950 . S
C4330 C4325 1.363 . S
C4330 C4329 1.415 . S
C4331 H4307 0.951 . S
C4331 C4332 1.366 . S
C4331 C4333 1.388 . S
C4332 C4331 1.366 . S
C4332 C4336 1.385 . S
C4333 H4308 0.951 . S
C4333 C4331 1.388 . S
C4333 C4334 1.366 . S
C4334 C4333 1.366 . S
C4334 C4335 1.414 . S
C4334 C4337 1.499 . S
C4335 H4309 0.950 . S
C4335 C4334 1.414 . S
C4335 C4336 1.374 . S
C4336 H4310 0.950 . S
C4336 C4332 1.385 . S
C4336 C4335 1.374 . S
C4337 C4334 1.499 . S
C4337 C4338 1.373 . S
C4337 C4339 1.389 . S
C4338 H4311 0.950 . S
C4338 C4324 1.377 . S
C4338 C4337 1.373 . S
C4339 C4323 1.377 . S
C4339 C4337 1.389 . S
C4339 C4340 1.524 . S
C4340 C4339 1.524 . S
C4340 C4341 1.397 . S
C4340 C4345 1.363 . S
C4341 H4312 0.950 . S
C4341 C4340 1.397 . S
C4341 C4342 1.334 . S
C4342 H4313 0.950 . S
C4342 C4341 1.334 . S
C4342 C4343 1.287 . S
C4343 C4342 1.287 . S
C4343 C4344 1.524 . S
C4343 H4346 0.999 . S
C4344 H4314 0.950 . S
C4344 C4343 1.524 . S
C4344 C4345 1.415 . S
C4345 H4315 0.950 . S
C4345 C4340 1.363 . S
C4345 C4344 1.415 . S
H4346 C4343 0.999 . S
H4347 C4328 0.913 . S
H4348 C4366 0.951 . S
H4349 C4368 0.951 . S
H4350 C4370 0.950 . S
H4351 C4371 0.950 . S
H4352 C4373 0.950 . S
H4353 C4376 0.950 . S
H4354 C4377 0.950 . S
H4355 C4379 0.950 . S
H4356 C4380 0.950 . S
H4357 C4381 0.951 . S
H4358 C4383 0.951 . S
H4359 C4385 0.950 . S
H4360 C4386 0.950 . S
H4361 C4388 0.950 . S
H4362 C4391 0.950 . S
H4363 C4392 0.950 . S
H4364 C4394 0.950 . S
H4365 C4395 0.950 . S
C4366 H4348 0.951 . S
C4366 C4367 1.366 . S
C4366 C4368 1.388 . S
C4367 C4366 1.366 . S
C4367 C4371 1.385 . S
C4368 H4349 0.951 . S
C4368 C4366 1.388 . S
C4368 C4369 1.366 . S
C4369 C4368 1.366 . S
C4369 C4370 1.414 . S
C4369 C4372 1.499 . S
C4370 H4350 0.950 . S
C4370 C4369 1.414 . S
C4370 C4371 1.374 . S
C4371 H4351 0.950 . S
C4371 C4367 1.385 . S
C4371 C4370 1.374 . S
C4372 C4369 1.499 . S
C4372 C4373 1.373 . S
C4372 C4374 1.389 . S
C4373 H4352 0.950 . S
C4373 C4372 1.373 . S
C4373 C4389 1.377 . S
C4374 C4372 1.389 . S
C4374 C4375 1.524 . S
C4374 C4388 1.377 . S
C4375 C4374 1.524 . S
C4375 C4376 1.397 . S
C4375 C4380 1.363 . S
C4376 H4353 0.950 . S
C4376 C4375 1.397 . S
C4376 C4377 1.334 . S
C4377 H4354 0.950 . S
C4377 C4376 1.334 . S
C4377 C4378 1.287 . S
C4378 C4377 1.287 . S
C4378 C4379 1.524 . S
C4378 H4397 0.913 . S
C4379 H4355 0.950 . S
C4379 C4378 1.524 . S
C4379 C4380 1.415 . S
C4380 H4356 0.950 . S
C4380 C4375 1.363 . S
C4380 C4379 1.415 . S
C4381 H4357 0.951 . S
C4381 C4382 1.366 . S
C4381 C4383 1.388 . S
C4382 C4381 1.366 . S
C4382 C4386 1.385 . S
C4383 H4358 0.951 . S
C4383 C4381 1.388 . S
C4383 C4384 1.366 . S
C4384 C4383 1.366 . S
C4384 C4385 1.414 . S
C4384 C4387 1.499 . S
C4385 H4359 0.950 . S
C4385 C4384 1.414 . S
C4385 C4386 1.374 . S
C4386 H4360 0.950 . S
C4386 C4382 1.385 . S
C4386 C4385 1.374 . S
C4387 C4384 1.499 . S
C4387 C4388 1.373 . S
C4387 C4389 1.389 . S
C4388 H4361 0.950 . S
C4388 C4374 1.377 . S
C4388 C4387 1.373 . S
C4389 C4373 1.377 . S
C4389 C4387 1.389 . S
C4389 C4390 1.524 . S
C4390 C4389 1.524 . S
C4390 C4391 1.397 . S
C4390 C4395 1.363 . S
C4391 H4362 0.950 . S
C4391 C4390 1.397 . S
C4391 C4392 1.334 . S
C4392 H4363 0.950 . S
C4392 C4391 1.334 . S
C4392 C4393 1.287 . S
C4393 C4392 1.287 . S
C4393 C4394 1.524 . S
C4393 H4396 0.999 . S
C4394 H4364 0.950 . S
C4394 C4393 1.524 . S
C4394 C4395 1.415 . S
C4395 H4365 0.950 . S
C4395 C4390 1.363 . S
C4395 C4394 1.415 . S
H4396 C4393 0.999 . S
H4397 C4378 0.913 . S
H4398 C4416 0.951 . S
H4399 C4418 0.951 . S
H4400 C4420 0.950 . S
H4401 C4421 0.950 . S
H4402 C4423 0.950 . S
H4403 C4426 0.950 . S
H4404 C4427 0.950 . S
H4405 C4429 0.950 . S
H4406 C4430 0.950 . S
H4407 C4431 0.951 . S
H4408 C4433 0.951 . S
H4409 C4435 0.950 . S
H4410 C4436 0.950 . S
H4411 C4438 0.950 . S
H4412 C4441 0.950 . S
H4413 C4442 0.950 . S
H4414 C4444 0.950 . S
H4415 C4445 0.950 . S
C4416 H4398 0.951 . S
C4416 C4417 1.366 . S
C4416 C4418 1.388 . S
C4417 C4416 1.366 . S
C4417 C4421 1.385 . S
C4418 H4399 0.951 . S
C4418 C4416 1.388 . S
C4418 C4419 1.366 . S
C4419 C4418 1.366 . S
C4419 C4420 1.414 . S
C4419 C4422 1.499 . S
C4420 H4400 0.950 . S
C4420 C4419 1.414 . S
C4420 C4421 1.374 . S
C4421 H4401 0.950 . S
C4421 C4417 1.385 . S
C4421 C4420 1.374 . S
C4422 C4419 1.499 . S
C4422 C4423 1.373 . S
C4422 C4424 1.389 . S
C4423 H4402 0.950 . S
C4423 C4422 1.373 . S
C4423 C4439 1.377 . S
C4424 C4422 1.389 . S
C4424 C4425 1.524 . S
C4424 C4438 1.377 . S
C4425 C4424 1.524 . S
C4425 C4426 1.397 . S
C4425 C4430 1.363 . S
C4426 H4403 0.950 . S
C4426 C4425 1.397 . S
C4426 C4427 1.334 . S
C4427 H4404 0.950 . S
C4427 C4426 1.334 . S
C4427 C4428 1.287 . S
C4428 C4427 1.287 . S
C4428 C4429 1.524 . S
C4428 H4447 0.913 . S
C4429 H4405 0.950 . S
C4429 C4428 1.524 . S
C4429 C4430 1.415 . S
C4430 H4406 0.950 . S
C4430 C4425 1.363 . S
C4430 C4429 1.415 . S
C4431 H4407 0.951 . S
C4431 C4432 1.366 . S
C4431 C4433 1.388 . S
C4432 C4431 1.366 . S
C4432 C4436 1.385 . S
C4433 H4408 0.951 . S
C4433 C4431 1.388 . S
C4433 C4434 1.366 . S
C4434 C4433 1.366 . S
C4434 C4435 1.414 . S
C4434 C4437 1.499 . S
C4435 H4409 0.950 . S
C4435 C4434 1.414 . S
C4435 C4436 1.374 . S
C4436 H4410 0.950 . S
C4436 C4432 1.385 . S
C4436 C4435 1.374 . S
C4437 C4434 1.499 . S
C4437 C4438 1.373 . S
C4437 C4439 1.389 . S
C4438 H4411 0.950 . S
C4438 C4424 1.377 . S
C4438 C4437 1.373 . S
C4439 C4423 1.377 . S
C4439 C4437 1.389 . S
C4439 C4440 1.524 . S
C4440 C4439 1.524 . S
C4440 C4441 1.397 . S
C4440 C4445 1.363 . S
C4441 H4412 0.950 . S
C4441 C4440 1.397 . S
C4441 C4442 1.334 . S
C4442 H4413 0.950 . S
C4442 C4441 1.334 . S
C4442 C4443 1.287 . S
C4443 C4442 1.287 . S
C4443 C4444 1.524 . S
C4443 H4446 0.999 . S
C4444 H4414 0.950 . S
C4444 C4443 1.524 . S
C4444 C4445 1.415 . S
C4445 H4415 0.950 . S
C4445 C4440 1.363 . S
C4445 C4444 1.415 . S
H4446 C4443 0.999 . S
H4447 C4428 0.913 . S
H4448 C4466 0.951 . S
H4449 C4468 0.951 . S
H4450 C4470 0.950 . S
H4451 C4471 0.950 . S
H4452 C4473 0.950 . S
H4453 C4476 0.950 . S
H4454 C4477 0.950 . S
H4455 C4479 0.950 . S
H4456 C4480 0.950 . S
H4457 C4481 0.951 . S
H4458 C4483 0.951 . S
H4459 C4485 0.950 . S
H4460 C4486 0.950 . S
H4461 C4488 0.950 . S
H4462 C4491 0.950 . S
H4463 C4492 0.950 . S
H4464 C4494 0.950 . S
H4465 C4495 0.950 . S
C4466 H4448 0.951 . S
C4466 C4467 1.366 . S
C4466 C4468 1.388 . S
C4467 C4466 1.366 . S
C4467 C4471 1.385 . S
C4468 H4449 0.951 . S
C4468 C4466 1.388 . S
C4468 C4469 1.366 . S
C4469 C4468 1.366 . S
C4469 C4470 1.414 . S
C4469 C4472 1.499 . S
C4470 H4450 0.950 . S
C4470 C4469 1.414 . S
C4470 C4471 1.374 . S
C4471 H4451 0.950 . S
C4471 C4467 1.385 . S
C4471 C4470 1.374 . S
C4472 C4469 1.499 . S
C4472 C4473 1.373 . S
C4472 C4474 1.389 . S
C4473 H4452 0.950 . S
C4473 C4472 1.373 . S
C4473 C4489 1.377 . S
C4474 C4472 1.389 . S
C4474 C4475 1.524 . S
C4474 C4488 1.377 . S
C4475 C4474 1.524 . S
C4475 C4476 1.397 . S
C4475 C4480 1.363 . S
C4476 H4453 0.950 . S
C4476 C4475 1.397 . S
C4476 C4477 1.334 . S
C4477 H4454 0.950 . S
C4477 C4476 1.334 . S
C4477 C4478 1.287 . S
C4478 C4477 1.287 . S
C4478 C4479 1.524 . S
C4478 H4497 0.913 . S
C4479 H4455 0.950 . S
C4479 C4478 1.524 . S
C4479 C4480 1.415 . S
C4480 H4456 0.950 . S
C4480 C4475 1.363 . S
C4480 C4479 1.415 . S
C4481 H4457 0.951 . S
C4481 C4482 1.366 . S
C4481 C4483 1.388 . S
C4482 C4481 1.366 . S
C4482 C4486 1.385 . S
C4483 H4458 0.951 . S
C4483 C4481 1.388 . S
C4483 C4484 1.366 . S
C4484 C4483 1.366 . S
C4484 C4485 1.414 . S
C4484 C4487 1.499 . S
C4485 H4459 0.950 . S
C4485 C4484 1.414 . S
C4485 C4486 1.374 . S
C4486 H4460 0.950 . S
C4486 C4482 1.385 . S
C4486 C4485 1.374 . S
C4487 C4484 1.499 . S
C4487 C4488 1.373 . S
C4487 C4489 1.389 . S
C4488 H4461 0.950 . S
C4488 C4474 1.377 . S
C4488 C4487 1.373 . S
C4489 C4473 1.377 . S
C4489 C4487 1.389 . S
C4489 C4490 1.524 . S
C4490 C4489 1.524 . S
C4490 C4491 1.397 . S
C4490 C4495 1.363 . S
C4491 H4462 0.950 . S
C4491 C4490 1.397 . S
C4491 C4492 1.334 . S
C4492 H4463 0.950 . S
C4492 C4491 1.334 . S
C4492 C4493 1.287 . S
C4493 C4492 1.287 . S
C4493 C4494 1.524 . S
C4493 H4496 0.999 . S
C4494 H4464 0.950 . S
C4494 C4493 1.524 . S
C4494 C4495 1.415 . S
C4495 H4465 0.950 . S
C4495 C4490 1.363 . S
C4495 C4494 1.415 . S
H4496 C4493 0.999 . S
H4497 C4478 0.913 . S
H4498 C4516 0.951 . S
H4499 C4518 0.951 . S
H4500 C4520 0.950 . S
H4501 C4521 0.950 . S
H4502 C4523 0.950 . S
H4503 C4526 0.950 . S
H4504 C4527 0.950 . S
H4505 C4529 0.950 . S
H4506 C4530 0.950 . S
H4507 C4531 0.951 . S
H4508 C4533 0.951 . S
H4509 C4535 0.950 . S
H4510 C4536 0.950 . S
H4511 C4538 0.950 . S
H4512 C4541 0.950 . S
H4513 C4542 0.950 . S
H4514 C4544 0.950 . S
H4515 C4545 0.950 . S
C4516 H4498 0.951 . S
C4516 C4517 1.366 . S
C4516 C4518 1.388 . S
C4517 C4516 1.366 . S
C4517 C4521 1.385 . S
C4518 H4499 0.951 . S
C4518 C4516 1.388 . S
C4518 C4519 1.366 . S
C4519 C4518 1.366 . S
C4519 C4520 1.414 . S
C4519 C4522 1.499 . S
C4520 H4500 0.950 . S
C4520 C4519 1.414 . S
C4520 C4521 1.374 . S
C4521 H4501 0.950 . S
C4521 C4517 1.385 . S
C4521 C4520 1.374 . S
C4522 C4519 1.499 . S
C4522 C4523 1.373 . S
C4522 C4524 1.389 . S
C4523 H4502 0.950 . S
C4523 C4522 1.373 . S
C4523 C4539 1.377 . S
C4524 C4522 1.389 . S
C4524 C4525 1.524 . S
C4524 C4538 1.377 . S
C4525 C4524 1.524 . S
C4525 C4526 1.397 . S
C4525 C4530 1.363 . S
C4526 H4503 0.950 . S
C4526 C4525 1.397 . S
C4526 C4527 1.334 . S
C4527 H4504 0.950 . S
C4527 C4526 1.334 . S
C4527 C4528 1.287 . S
C4528 C4527 1.287 . S
C4528 C4529 1.524 . S
C4528 H4547 0.913 . S
C4529 H4505 0.950 . S
C4529 C4528 1.524 . S
C4529 C4530 1.415 . S
C4530 H4506 0.950 . S
C4530 C4525 1.363 . S
C4530 C4529 1.415 . S
C4531 H4507 0.951 . S
C4531 C4532 1.366 . S
C4531 C4533 1.388 . S
C4532 C4531 1.366 . S
C4532 C4536 1.385 . S
C4533 H4508 0.951 . S
C4533 C4531 1.388 . S
C4533 C4534 1.366 . S
C4534 C4533 1.366 . S
C4534 C4535 1.414 . S
C4534 C4537 1.499 . S
C4535 H4509 0.950 . S
C4535 C4534 1.414 . S
C4535 C4536 1.374 . S
C4536 H4510 0.950 . S
C4536 C4532 1.385 . S
C4536 C4535 1.374 . S
C4537 C4534 1.499 . S
C4537 C4538 1.373 . S
C4537 C4539 1.389 . S
C4538 H4511 0.950 . S
C4538 C4524 1.377 . S
C4538 C4537 1.373 . S
C4539 C4523 1.377 . S
C4539 C4537 1.389 . S
C4539 C4540 1.524 . S
C4540 C4539 1.524 . S
C4540 C4541 1.397 . S
C4540 C4545 1.363 . S
C4541 H4512 0.950 . S
C4541 C4540 1.397 . S
C4541 C4542 1.334 . S
C4542 H4513 0.950 . S
C4542 C4541 1.334 . S
C4542 C4543 1.287 . S
C4543 C4542 1.287 . S
C4543 C4544 1.524 . S
C4543 H4546 0.999 . S
C4544 H4514 0.950 . S
C4544 C4543 1.524 . S
C4544 C4545 1.415 . S
C4545 H4515 0.950 . S
C4545 C4540 1.363 . S
C4545 C4544 1.415 . S
H4546 C4543 0.999 . S
H4547 C4528 0.913 . S
H4548 C4566 0.951 . S
H4549 C4568 0.951 . S
H4550 C4570 0.950 1_455 S
H4551 C4571 0.950 1_455 S
H4552 C4573 0.950 1_455 S
H4553 C4576 0.950 . S
H4554 C4577 0.950 . S
H4555 C4579 0.950 . S
H4556 C4580 0.950 . S
H4557 C4581 0.951 . S
H4558 C4583 0.951 . S
H4559 C4585 0.950 . S
H4560 C4586 0.950 . S
H4561 C4588 0.950 . S
H4562 C4591 0.904 1_655 S
H4563 C4592 0.950 . S
H4564 C4594 0.950 . S
H4565 C4595 0.950 . S
C4566 H4548 0.951 . S
C4566 C4567 1.366 . S
C4566 C4568 1.388 . S
C4567 C4566 1.366 . S
C4567 C4571 1.385 . S
C4568 H4549 0.951 . S
C4568 C4566 1.388 . S
C4568 C4569 1.366 . S
C4569 C4568 1.366 . S
C4569 C4570 1.414 . S
C4569 C4572 1.499 . S
C4570 H4550 0.950 1_655 S
C4570 C4569 1.414 . S
C4570 C4571 1.374 . S
C4571 H4551 0.950 1_655 S
C4571 C4567 1.385 . S
C4571 C4570 1.374 . S
C4572 C4569 1.499 . S
C4572 C4573 1.373 . S
C4572 C4574 1.389 . S
C4573 H4552 0.950 1_655 S
C4573 C4572 1.373 . S
C4573 C4589 1.391 . S
C4574 C4572 1.389 . S
C4574 C4575 1.524 . S
C4574 C4588 1.377 . S
C4575 C4574 1.524 . S
C4575 C4576 1.397 . S
C4575 C4580 1.363 . S
C4576 H4553 0.950 . S
C4576 C4575 1.397 . S
C4576 C4577 1.334 . S
C4577 H4554 0.950 . S
C4577 C4576 1.334 . S
C4577 C4578 1.287 . S
C4578 C4577 1.287 . S
C4578 C4579 1.524 . S
C4578 H4597 0.913 . S
C4579 H4555 0.950 . S
C4579 C4578 1.524 . S
C4579 C4580 1.415 . S
C4580 H4556 0.950 . S
C4580 C4575 1.363 . S
C4580 C4579 1.415 . S
C4581 H4557 0.951 . S
C4581 C4582 1.366 1_455 S
C4581 C4583 1.388 . S
C4582 C4581 1.366 1_655 S
C4582 C4586 1.385 . S
C4583 H4558 0.951 . S
C4583 C4581 1.388 . S
C4583 C4584 1.366 1_455 S
C4584 C4583 1.366 1_655 S
C4584 C4585 1.414 . S
C4584 C4587 1.499 . S
C4585 H4559 0.950 . S
C4585 C4584 1.414 . S
C4585 C4586 1.374 . S
C4586 H4560 0.950 . S
C4586 C4582 1.385 . S
C4586 C4585 1.374 . S
C4587 C4584 1.499 . S
C4587 C4588 1.373 . S
C4587 C4589 1.399 . S
C4588 H4561 0.950 . S
C4588 C4574 1.377 . S
C4588 C4587 1.373 . S
C4589 C4573 1.391 . S
C4589 C4587 1.399 . S
C4589 C4590 1.501 1_655 S
C4590 C4589 1.501 1_455 S
C4590 C4591 1.397 . S
C4590 C4595 1.363 . S
C4591 H4562 0.904 1_455 S
C4591 C4590 1.397 . S
C4591 C4592 1.334 . S
C4592 H4563 0.950 . S
C4592 C4591 1.334 . S
C4592 C4593 1.287 . S
C4593 C4592 1.287 . S
C4593 C4594 1.524 . S
C4593 H4596 0.999 . S
C4594 H4564 0.950 . S
C4594 C4593 1.524 . S
C4594 C4595 1.415 . S
C4595 H4565 0.950 . S
C4595 C4590 1.363 . S
C4595 C4594 1.415 . S
H4596 C4593 0.999 . S
H4597 C4578 0.913 . S
H4598 C4616 0.951 . S
H4599 C4618 0.951 . S
H4600 C4620 0.950 . S
H4601 C4621 0.950 . S
H4602 C4623 0.950 . S
H4603 C4626 0.950 . S
H4604 C4627 0.950 . S
H4605 C4629 0.950 . S
H4606 C4630 0.950 . S
H4607 C4631 0.951 . S
H4608 C4633 0.951 . S
H4609 C4635 0.950 . S
H4610 C4636 0.950 . S
H4611 C4638 0.950 . S
H4612 C4641 0.950 . S
H4613 C4642 0.950 . S
H4614 C4644 0.950 . S
H4615 C4645 0.950 . S
C4616 H4598 0.951 . S
C4616 C4617 1.366 . S
C4616 C4618 1.388 . S
C4617 C4616 1.366 . S
C4617 C4621 1.385 . S
C4618 H4599 0.951 . S
C4618 C4616 1.388 . S
C4618 C4619 1.366 . S
C4619 C4618 1.366 . S
C4619 C4620 1.414 . S
C4619 C4622 1.499 . S
C4620 H4600 0.950 . S
C4620 C4619 1.414 . S
C4620 C4621 1.374 . S
C4621 H4601 0.950 . S
C4621 C4617 1.385 . S
C4621 C4620 1.374 . S
C4622 C4619 1.499 . S
C4622 C4623 1.373 . S
C4622 C4624 1.389 . S
C4623 H4602 0.950 . S
C4623 C4622 1.373 . S
C4623 C4639 1.377 . S
C4624 C4622 1.389 . S
C4624 C4625 1.524 . S
C4624 C4638 1.377 . S
C4625 C4624 1.524 . S
C4625 C4626 1.397 . S
C4625 C4630 1.363 . S
C4626 H4603 0.950 . S
C4626 C4625 1.397 . S
C4626 C4627 1.334 . S
C4627 H4604 0.950 . S
C4627 C4626 1.334 . S
C4627 C4628 1.287 . S
C4628 C4627 1.287 . S
C4628 C4629 1.524 . S
C4628 H4647 0.913 . S
C4629 H4605 0.950 . S
C4629 C4628 1.524 . S
C4629 C4630 1.415 . S
C4630 H4606 0.950 . S
C4630 C4625 1.363 . S
C4630 C4629 1.415 . S
C4631 H4607 0.951 . S
C4631 C4632 1.366 . S
C4631 C4633 1.388 . S
C4632 C4631 1.366 . S
C4632 C4636 1.385 . S
C4633 H4608 0.951 . S
C4633 C4631 1.388 . S
C4633 C4634 1.366 . S
C4634 C4633 1.366 . S
C4634 C4635 1.414 . S
C4634 C4637 1.499 . S
C4635 H4609 0.950 . S
C4635 C4634 1.414 . S
C4635 C4636 1.374 . S
C4636 H4610 0.950 . S
C4636 C4632 1.385 . S
C4636 C4635 1.374 . S
C4637 C4634 1.499 . S
C4637 C4638 1.373 . S
C4637 C4639 1.389 . S
C4638 H4611 0.950 . S
C4638 C4624 1.377 . S
C4638 C4637 1.373 . S
C4639 C4623 1.377 . S
C4639 C4637 1.389 . S
C4639 C4640 1.524 . S
C4640 C4639 1.524 . S
C4640 C4641 1.397 . S
C4640 C4645 1.363 . S
C4641 H4612 0.950 . S
C4641 C4640 1.397 . S
C4641 C4642 1.334 . S
C4642 H4613 0.950 . S
C4642 C4641 1.334 . S
C4642 C4643 1.287 . S
C4643 C4642 1.287 . S
C4643 C4644 1.524 . S
C4643 H4646 0.999 . S
C4644 H4614 0.950 . S
C4644 C4643 1.524 . S
C4644 C4645 1.415 . S
C4645 H4615 0.950 . S
C4645 C4640 1.363 . S
C4645 C4644 1.415 . S
H4646 C4643 0.999 . S
H4647 C4628 0.913 . S
H4648 C4666 0.951 1_565 S
H4649 C4668 0.951 1_565 S
H4650 C4670 0.950 . S
H4651 C4671 0.950 . S
H4652 C4673 0.950 . S
H4653 C4676 0.950 . S
H4654 C4677 0.925 1_545 S
H4655 C4679 0.950 . S
H4656 C4680 0.950 . S
H4657 C4681 0.951 . S
H4658 C4683 0.951 . S
H4659 C4685 0.950 . S
H4660 C4686 0.950 . S
H4661 C4688 0.940 1_565 S
H4662 C4691 0.950 . S
H4663 C4692 0.950 . S
H4664 C4694 0.950 . S
H4665 C4695 0.950 . S
C4666 H4648 0.951 1_545 S
C4666 C4667 1.366 . S
C4666 C4668 1.388 . S
C4667 C4666 1.366 . S
C4667 C4671 1.385 . S
C4668 H4649 0.951 1_545 S
C4668 C4666 1.388 . S
C4668 C4669 1.366 . S
C4669 C4668 1.366 . S
C4669 C4670 1.414 . S
C4669 C4672 1.499 . S
C4670 H4650 0.950 . S
C4670 C4669 1.414 . S
C4670 C4671 1.374 . S
C4671 H4651 0.950 . S
C4671 C4667 1.385 . S
C4671 C4670 1.374 . S
C4672 C4669 1.499 . S
C4672 C4673 1.373 . S
C4672 C4674 1.389 . S
C4673 H4652 0.950 . S
C4673 C4672 1.373 . S
C4673 C4689 1.377 . S
C4674 C4672 1.389 . S
C4674 C4675 1.524 1_545 S
C4674 C4688 1.357 . S
C4675 C4674 1.524 1_565 S
C4675 C4676 1.397 1_565 S
C4675 C4680 1.363 . S
C4676 H4653 0.950 . S
C4676 C4675 1.397 1_545 S
C4676 C4677 1.313 1_545 S
C4677 H4654 0.925 1_565 S
C4677 C4676 1.313 1_565 S
C4677 C4678 1.339 . S
C4678 C4677 1.339 . S
C4678 C4679 1.524 . S
C4678 H4697 0.913 . S
C4679 H4655 0.950 . S
C4679 C4678 1.524 . S
C4679 C4680 1.415 . S
C4680 H4656 0.950 . S
C4680 C4675 1.363 . S
C4680 C4679 1.415 . S
C4681 H4657 0.951 . S
C4681 C4682 1.366 . S
C4681 C4683 1.388 . S
C4682 C4681 1.366 . S
C4682 C4686 1.385 1_545 S
C4683 H4658 0.951 . S
C4683 C4681 1.388 . S
C4683 C4684 1.366 . S
C4684 C4683 1.366 . S
C4684 C4685 1.414 1_545 S
C4684 C4687 1.499 . S
C4685 H4659 0.950 . S
C4685 C4684 1.414 1_565 S
C4685 C4686 1.374 . S
C4686 H4660 0.950 . S
C4686 C4682 1.385 1_565 S
C4686 C4685 1.374 . S
C4687 C4684 1.499 . S
C4687 C4688 1.410 . S
C4687 C4689 1.389 . S
C4688 H4661 0.940 1_545 S
C4688 C4674 1.357 . S
C4688 C4687 1.410 . S
C4689 C4673 1.377 . S
C4689 C4687 1.389 . S
C4689 C4690 1.524 . S
C4690 C4689 1.524 . S
C4690 C4691 1.397 . S
C4690 C4695 1.363 . S
C4691 H4662 0.950 . S
C4691 C4690 1.397 . S
C4691 C4692 1.334 . S
C4692 H4663 0.950 . S
C4692 C4691 1.334 . S
C4692 C4693 1.287 . S
C4693 C4692 1.287 . S
C4693 C4694 1.524 . S
C4693 H4696 0.999 . S
C4694 H4664 0.950 . S
C4694 C4693 1.524 . S
C4694 C4695 1.415 . S
C4695 H4665 0.950 . S
C4695 C4690 1.363 . S
C4695 C4694 1.415 . S
H4696 C4693 0.999 . S
H4697 C4678 0.913 . S
C1117 C8 1.400 . S
C1132 C711 1.456 . S
C1167 C18 1.478 . S
C1182 C759 1.521 . S
C1232 C807 1.494 . S
C1217 C31 1.430 . S
C1267 C34 1.442 . S
C1282 C831 1.488 . S
C1317 C5 1.425 . S
C1332 C903 1.491 . S
C1367 C21 1.484 . S
C1382 C951 1.537 . S
C1417 C47 1.392 . S
C1432 C879 1.454 . S
C1482 C927 1.525 . S
C1467 C57 1.478 . S
C1532 C855 1.517 . S
C1517 C70 1.460 . S
C1567 C73 1.387 . S
C1582 C783 1.454 . S
C1632 C687 1.516 . S
C1617 C44 1.450 . S
C1667 C60 1.481 . S
C1682 C735 1.537 . S
C1717 C86 1.562 . S
C1732 C999 1.614 . S
C1767 C96 1.539 . S
C1782 C1047 1.568 . S
C1832 C1071 1.624 . S
C1817 C109 1.603 . S
C1867 C112 1.577 . S
C1882 C255 1.615 . S
C1917 C83 1.592 . S
C1932 C327 1.630 . S
C1967 C99 1.540 . S
C1982 C375 1.583 . S
C2017 C125 1.484 . S
C2032 C303 1.536 . S
C2067 C135 1.534 . S
C2082 C351 1.578 . S
C2132 C279 1.607 . S
C2117 C148 1.596 . S
C2182 C1095 1.665 . S
C2167 C151 1.647 . S
C2232 C975 1.603 . S
C2217 C122 1.574 . S
C2282 C1023 1.621 . S
C2267 C138 1.574 . S
C2317 C164 1.490 . S
C2332 C423 1.541 . S
C2367 C174 1.519 . S
C2382 C471 1.559 . S
C2417 C187 1.594 . S
C2432 C495 1.623 . S
C2467 C190 1.645 . S
C2482 C543 1.683 . S
C2532 C615 1.620 . S
C2517 C161 1.592 . S
C2582 C663 1.620 . S
C2567 C177 1.575 . S
C2632 C591 1.634 . S
C2617 C203 1.580 . S
C2682 C639 1.589 . S
C2667 C213 1.555 . S
C2717 C226 1.588 . S
C2732 C567 1.589 . S
C2782 C519 1.578 . S
C2767 C229 1.561 . S
C2817 C200 1.592 . S
C2832 C399 1.632 . S
C2882 C447 1.597 . S
C2867 C216 1.550 . S
C2932 C264 1.433 . S
C2917 C0 1.375 . S
C2967 C23 1.350 . S
C2982 C318 1.326 . S
C3032 C366 1.414 . S
C3017 C36 1.437 . S
C3082 C414 1.446 . S
C3067 C26 1.407 1_556 S
C3132 C462 1.375 . S
C3117 C10 1.377 1_556 S
C3182 C504 1.378 . S
C3167 C13 1.329 . S
C3217 C39 1.394 . S
C3232 C510 1.449 . S
C3267 C62 1.342 . S
C3282 C408 1.312 . S
C3317 C75 1.392 . S
C3332 C456 1.357 . S
C3367 C65 1.444 . S
C3382 C312 1.478 . S
C3432 C360 1.356 . S
C3417 C49 1.391 . S
C3467 C52 1.332 . S
C3482 C270 1.369 . S
C3532 C552 1.400 . S
C3517 C78 1.352 . S
C3567 C101 1.475 . S
C3582 C606 1.451 . S
C3617 C114 1.450 1_655 S
C3632 C654 1.471 . S
C3682 C702 1.255 . S
C3667 C104 1.233 . S
C3717 C88 1.358 . S
C3732 C750 1.338 . S
C3767 C91 1.144 . S
C3782 C798 1.160 . S
C3817 C117 1.183 . S
C3832 C792 1.191 . S
C3867 C140 1.201 . S
C3882 C696 1.202 . S
C3932 C744 1.363 . S
C3917 C153 1.384 . S
C3967 C143 1.385 . S
C3982 C600 1.403 . S
C4017 C127 1.478 . S
C4032 C648 1.446 . S
C4082 C558 1.474 . S
C4067 C130 1.444 . S
C4132 C840 1.222 . S
C4117 C156 1.197 . S
C4167 C179 1.190 . S
C4182 C894 1.193 . S
C4217 C192 1.379 . S
C4232 C942 1.364 . S
C4282 C990 1.388 . S
C4267 C182 1.362 . S
C4332 C1038 1.458 . S
C4317 C166 1.483 . S
C4367 C169 1.448 . S
C4382 C1080 1.490 . S
C4417 C195 1.371 . S
C4432 C1086 1.409 . S
C4467 C218 1.468 . S
C4482 C984 1.437 . S
C4532 C1032 1.436 . S
C4517 C231 1.511 . S
C4582 C888 1.226 . S
C4567 C221 1.207 . S
C4632 C936 1.342 . S
C4617 C205 1.369 . S
C4667 C208 1.167 . S
C4682 C846 1.188 . S
