# Generated by pormake.
# Topology eea, (3,6)-cn, num edge types: 1
# Building blocks:
#     Node 0, Type 0, BuildingBlock: ESEHIV_clean_linker_0, # of connection points: 3
#     Node 1, Type 0, BuildingBlock: ESEHIV_clean_linker_0, # of connection points: 3
#     Node 2, Type 0, BuildingBlock: ESEHIV_clean_linker_0, # of connection points: 3
#     Node 3, Type 0, BuildingBlock: ESEHIV_clean_linker_0, # of connection points: 3
#     Node 4, Type 0, BuildingBlock: ESEHIV_clean_linker_0, # of connection points: 3
#     Node 5, Type 0, BuildingBlock: ESEHIV_clean_linker_0, # of connection points: 3
#     Node 6, Type 0, BuildingBlock: ESEHIV_clean_linker_0, # of connection points: 3
#     Node 7, Type 0, BuildingBlock: ESEHIV_clean_linker_0, # of connection points: 3
#     Node 8, Type 0, BuildingBlock: ESEHIV_clean_linker_0, # of connection points: 3
#     Node 9, Type 0, BuildingBlock: ESEHIV_clean_linker_0, # of connection points: 3
#     Node 10, Type 0, BuildingBlock: ESEHIV_clean_linker_0, # of connection points: 3
#     Node 11, Type 0, BuildingBlock: ESEHIV_clean_linker_0, # of connection points: 3
#     Node 12, Type 0, BuildingBlock: ESEHIV_clean_linker_0, # of connection points: 3
#     Node 13, Type 0, BuildingBlock: ESEHIV_clean_linker_0, # of connection points: 3
#     Node 14, Type 0, BuildingBlock: ESEHIV_clean_linker_0, # of connection points: 3
#     Node 15, Type 0, BuildingBlock: ESEHIV_clean_linker_0, # of connection points: 3
#     Node 16, Type 0, BuildingBlock: ESEHIV_clean_linker_0, # of connection points: 3
#     Node 17, Type 0, BuildingBlock: ESEHIV_clean_linker_0, # of connection points: 3
#     Node 18, Type 1, BuildingBlock: KUMBUR_clean_sbu_0, # of connection points: 6
#     Node 19, Type 1, BuildingBlock: KUMBUR_clean_sbu_0, # of connection points: 6
#     Node 20, Type 1, BuildingBlock: KUMBUR_clean_sbu_0, # of connection points: 6
#     Node 21, Type 1, BuildingBlock: KUMBUR_clean_sbu_0, # of connection points: 6
#     Node 22, Type 1, BuildingBlock: KUMBUR_clean_sbu_0, # of connection points: 6
#     Node 23, Type 1, BuildingBlock: KUMBUR_clean_sbu_0, # of connection points: 6
#     Node 24, Type 1, BuildingBlock: KUMBUR_clean_sbu_0, # of connection points: 6
#     Node 25, Type 1, BuildingBlock: KUMBUR_clean_sbu_0, # of connection points: 6
#     Node 26, Type 1, BuildingBlock: KUMBUR_clean_sbu_0, # of connection points: 6
#     Edge 27, Type (0, 1), BuildingBlock: KIFKEQ_clean_linker_1, # of connection points: 2
#     Edge 28, Type (0, 1), BuildingBlock: KIFKEQ_clean_linker_1, # of connection points: 2
#     Edge 29, Type (0, 1), BuildingBlock: KIFKEQ_clean_linker_1, # of connection points: 2
#     Edge 30, Type (0, 1), BuildingBlock: KIFKEQ_clean_linker_1, # of connection points: 2
#     Edge 31, Type (0, 1), BuildingBlock: KIFKEQ_clean_linker_1, # of connection points: 2
#     Edge 32, Type (0, 1), BuildingBlock: KIFKEQ_clean_linker_1, # of connection points: 2
#     Edge 33, Type (0, 1), BuildingBlock: KIFKEQ_clean_linker_1, # of connection points: 2
#     Edge 34, Type (0, 1), BuildingBlock: KIFKEQ_clean_linker_1, # of connection points: 2
#     Edge 35, Type (0, 1), BuildingBlock: KIFKEQ_clean_linker_1, # of connection points: 2
#     Edge 36, Type (0, 1), BuildingBlock: KIFKEQ_clean_linker_1, # of connection points: 2
#     Edge 37, Type (0, 1), BuildingBlock: KIFKEQ_clean_linker_1, # of connection points: 2
#     Edge 38, Type (0, 1), BuildingBlock: KIFKEQ_clean_linker_1, # of connection points: 2
#     Edge 39, Type (0, 1), BuildingBlock: KIFKEQ_clean_linker_1, # of connection points: 2
#     Edge 40, Type (0, 1), BuildingBlock: KIFKEQ_clean_linker_1, # of connection points: 2
#     Edge 41, Type (0, 1), BuildingBlock: KIFKEQ_clean_linker_1, # of connection points: 2
#     Edge 42, Type (0, 1), BuildingBlock: KIFKEQ_clean_linker_1, # of connection points: 2
#     Edge 43, Type (0, 1), BuildingBlock: KIFKEQ_clean_linker_1, # of connection points: 2
#     Edge 44, Type (0, 1), BuildingBlock: KIFKEQ_clean_linker_1, # of connection points: 2
#     Edge 45, Type (0, 1), BuildingBlock: KIFKEQ_clean_linker_1, # of connection points: 2
#     Edge 46, Type (0, 1), BuildingBlock: KIFKEQ_clean_linker_1, # of connection points: 2
#     Edge 47, Type (0, 1), BuildingBlock: KIFKEQ_clean_linker_1, # of connection points: 2
#     Edge 48, Type (0, 1), BuildingBlock: KIFKEQ_clean_linker_1, # of connection points: 2
#     Edge 49, Type (0, 1), BuildingBlock: KIFKEQ_clean_linker_1, # of connection points: 2
#     Edge 50, Type (0, 1), BuildingBlock: KIFKEQ_clean_linker_1, # of connection points: 2
#     Edge 51, Type (0, 1), BuildingBlock: KIFKEQ_clean_linker_1, # of connection points: 2
#     Edge 52, Type (0, 1), BuildingBlock: KIFKEQ_clean_linker_1, # of connection points: 2
#     Edge 53, Type (0, 1), BuildingBlock: KIFKEQ_clean_linker_1, # of connection points: 2
#     Edge 54, Type (0, 1), BuildingBlock: KIFKEQ_clean_linker_1, # of connection points: 2
#     Edge 55, Type (0, 1), BuildingBlock: KIFKEQ_clean_linker_1, # of connection points: 2
#     Edge 56, Type (0, 1), BuildingBlock: KIFKEQ_clean_linker_1, # of connection points: 2
#     Edge 57, Type (0, 1), BuildingBlock: KIFKEQ_clean_linker_1, # of connection points: 2
#     Edge 58, Type (0, 1), BuildingBlock: KIFKEQ_clean_linker_1, # of connection points: 2
#     Edge 59, Type (0, 1), BuildingBlock: KIFKEQ_clean_linker_1, # of connection points: 2
#     Edge 60, Type (0, 1), BuildingBlock: KIFKEQ_clean_linker_1, # of connection points: 2
#     Edge 61, Type (0, 1), BuildingBlock: KIFKEQ_clean_linker_1, # of connection points: 2
#     Edge 62, Type (0, 1), BuildingBlock: KIFKEQ_clean_linker_1, # of connection points: 2
#     Edge 63, Type (0, 1), BuildingBlock: KIFKEQ_clean_linker_1, # of connection points: 2
#     Edge 64, Type (0, 1), BuildingBlock: KIFKEQ_clean_linker_1, # of connection points: 2
#     Edge 65, Type (0, 1), BuildingBlock: KIFKEQ_clean_linker_1, # of connection points: 2
#     Edge 66, Type (0, 1), BuildingBlock: KIFKEQ_clean_linker_1, # of connection points: 2
#     Edge 67, Type (0, 1), BuildingBlock: KIFKEQ_clean_linker_1, # of connection points: 2
#     Edge 68, Type (0, 1), BuildingBlock: KIFKEQ_clean_linker_1, # of connection points: 2
#     Edge 69, Type (0, 1), BuildingBlock: KIFKEQ_clean_linker_1, # of connection points: 2
#     Edge 70, Type (0, 1), BuildingBlock: KIFKEQ_clean_linker_1, # of connection points: 2
#     Edge 71, Type (0, 1), BuildingBlock: KIFKEQ_clean_linker_1, # of connection points: 2
#     Edge 72, Type (0, 1), BuildingBlock: KIFKEQ_clean_linker_1, # of connection points: 2
#     Edge 73, Type (0, 1), BuildingBlock: KIFKEQ_clean_linker_1, # of connection points: 2
#     Edge 74, Type (0, 1), BuildingBlock: KIFKEQ_clean_linker_1, # of connection points: 2
#     Edge 75, Type (0, 1), BuildingBlock: KIFKEQ_clean_linker_1, # of connection points: 2
#     Edge 76, Type (0, 1), BuildingBlock: KIFKEQ_clean_linker_1, # of connection points: 2
#     Edge 77, Type (0, 1), BuildingBlock: KIFKEQ_clean_linker_1, # of connection points: 2
#     Edge 78, Type (0, 1), BuildingBlock: KIFKEQ_clean_linker_1, # of connection points: 2
#     Edge 79, Type (0, 1), BuildingBlock: KIFKEQ_clean_linker_1, # of connection points: 2
#     Edge 80, Type (0, 1), BuildingBlock: KIFKEQ_clean_linker_1, # of connection points: 2
# Relax obj value: 0.008
# Max RMSD: 0.089
# Mean RMSD: 0.072
data_MOF--net-eea--node1-KUMBUR_clean_sbu_0--node2-ESEHIV_clean_linker_0--edge1-KIFKEQ_clean_linker_1
_symmetry_space_group_name_H-M    P1
_symmetry_Int_Tables_number       1
_symmetry_cell_setting            triclinic
loop_
_symmetry_equiv_pos_as_xyz
'x, y, z'
_cell_length_a     48.43382
_cell_length_b     49.675713
_cell_length_c     71.678101
_cell_angle_alpha  89.923326
_cell_angle_beta   89.903592
_cell_angle_gamma 120.00626
loop_
_atom_site_label
_atom_site_type_symbol
_atom_site_fract_x
_atom_site_fract_y
_atom_site_fract_z
_atom_type_partial_charge
H0 H 0.25675 0.16941 0.45085 0.0
H1 H 0.25192 0.08072 0.45388 0.0
H2 H 0.21188 0.10272 0.40673 0.0
C3 C 0.24957 0.14685 0.44481 0.0
C4 C 0.23317 0.13843 0.42773 0.0
C5 C 0.25586 0.12589 0.45443 0.0
C6 C 0.24658 0.09674 0.44661 0.0
C7 C 0.23089 0.08831 0.42936 0.0
C8 C 0.2237 0.10901 0.42016 0.0
H9 H 0.84936 0.08417 0.45129 0.0
H10 H 0.93532 0.17249 0.44859 0.0
H11 H 0.90858 0.10947 0.40215 0.0
C12 C 0.87082 0.10021 0.44378 0.0
C13 C 0.87642 0.09284 0.42571 0.0
C14 C 0.89189 0.12889 0.45201 0.0
C15 C 0.919 0.15055 0.44205 0.0
C16 C 0.92536 0.14387 0.42395 0.0
C17 C 0.90397 0.11481 0.41603 0.0
H18 H 0.84177 0.76675 0.44579 0.0
H19 H 0.92971 0.76523 0.44663 0.0
H20 H 0.90103 0.79374 0.39682 0.0
C21 C 0.86337 0.77066 0.43884 0.0
C22 C 0.86921 0.78162 0.42033 0.0
C23 C 0.88484 0.76425 0.44838 0.0
C24 C 0.91298 0.76975 0.43922 0.0
C25 C 0.91931 0.78039 0.42052 0.0
C26 C 0.89699 0.78604 0.41122 0.0
H27 H 0.07983 0.23422 0.58907 0.0
H28 H 0.16917 0.23501 0.58973 0.0
H29 H 0.11114 0.20931 0.63907 0.0
C30 C 0.09758 0.23123 0.59646 0.0
C31 C 0.09203 0.22158 0.61533 0.0
C32 C 0.12541 0.23648 0.58692 0.0
C33 C 0.14732 0.23065 0.59653 0.0
C34 C 0.14216 0.2205 0.61522 0.0
C35 C 0.1147 0.21642 0.62456 0.0
H36 H 0.75208 0.91903 0.58535 0.0
H37 H 0.75515 0.83403 0.58367 0.0
H38 H 0.79818 0.89762 0.62943 0.0
C39 C 0.75909 0.90345 0.59158 0.0
C40 C 0.77622 0.91172 0.60837 0.0
C41 C 0.75177 0.87567 0.58247 0.0
C42 C 0.76114 0.85572 0.59053 0.0
C43 C 0.7778 0.86341 0.60754 0.0
C44 C 0.78572 0.89172 0.6162 0.0
H45 H 0.07498 0.82926 0.58898 0.0
H46 H 0.16286 0.91623 0.58544 0.0
H47 H 0.10443 0.89296 0.63496 0.0
C48 C 0.09201 0.85134 0.59512 0.0
C49 C 0.08677 0.85864 0.61326 0.0
C50 C 0.11928 0.87226 0.58496 0.0
C51 C 0.1414 0.90071 0.59312 0.0
C52 C 0.13668 0.90856 0.61129 0.0
C53 C 0.10908 0.88722 0.62117 0.0
H54 H 0.92323 0.50171 0.78579 0.0
H55 H 0.92568 0.41652 0.78445 0.0
H56 H 0.87831 0.43738 0.7407 0.0
C57 C 0.91688 0.47984 0.77905 0.0
C58 C 0.90008 0.47207 0.76212 0.0
C59 C 0.9259 0.45972 0.78721 0.0
C60 C 0.9181 0.43168 0.77828 0.0
C61 C 0.90071 0.42316 0.76152 0.0
C62 C 0.89164 0.44351 0.75363 0.0
H63 H 0.51134 0.41971 0.78164 0.0
H64 H 0.6009 0.50532 0.7821 0.0
H65 H 0.57405 0.44426 0.73443 0.0
C66 C 0.53357 0.43587 0.7748 0.0
C67 C 0.54063 0.42853 0.75719 0.0
C68 C 0.55526 0.46345 0.7839 0.0
C69 C 0.58423 0.48406 0.77503 0.0
C70 C 0.59133 0.47774 0.75697 0.0
C71 C 0.56943 0.44952 0.74836 0.0
H72 H 0.50987 0.10081 0.78008 0.0
H73 H 0.59727 0.09815 0.77944 0.0
H74 H 0.56686 0.12594 0.73017 0.0
C75 C 0.53123 0.10459 0.7729 0.0
C76 C 0.53619 0.11484 0.7542 0.0
C77 C 0.55271 0.09766 0.78202 0.0
C78 C 0.58004 0.10224 0.77226 0.0
C79 C 0.58571 0.11258 0.75353 0.0
C80 C 0.56334 0.11855 0.74463 0.0
H81 H 0.74521 0.56917 0.92392 0.0
H82 H 0.83317 0.56739 0.92168 0.0
H83 H 0.77832 0.54322 0.97248 0.0
C84 C 0.76271 0.56467 0.93037 0.0
C85 C 0.75801 0.55442 0.94907 0.0
C86 C 0.79027 0.57038 0.92034 0.0
C87 C 0.81277 0.56477 0.92942 0.0
C88 C 0.80913 0.55531 0.94828 0.0
C89 C 0.78155 0.55028 0.95796 0.0
H90 H 0.41882 0.25318 0.91884 0.0
H91 H 0.42202 0.16825 0.91698 0.0
H92 H 0.46446 0.23134 0.963 0.0
C93 C 0.42579 0.23756 0.92505 0.0
C94 C 0.44271 0.24565 0.94192 0.0
C95 C 0.41862 0.20989 0.91584 0.0
C96 C 0.42792 0.18987 0.92389 0.0
C97 C 0.44439 0.19741 0.94095 0.0
C98 C 0.45217 0.2256 0.94971 0.0
H99 H 0.74236 0.16251 0.92106 0.0
H100 H 0.82804 0.25104 0.91814 0.0
H101 H 0.7689 0.22588 0.96732 0.0
C102 C 0.75862 0.18453 0.92755 0.0
C103 C 0.75223 0.1913 0.94561 0.0
C104 C 0.78565 0.20621 0.91753 0.0
C105 C 0.80663 0.23499 0.92569 0.0
C106 C 0.80102 0.24246 0.94373 0.0
C107 C 0.77354 0.22046 0.95346 0.0
H108 H 0.58483 0.83319 0.12024 0.0
H109 H 0.59003 0.74912 0.11784 0.0
H110 H 0.5457 0.77158 0.0734 0.0
C111 C 0.5802 0.8121 0.11314 0.0
C112 C 0.56459 0.80494 0.09579 0.0
C113 C 0.58912 0.7919 0.12146 0.0
C114 C 0.58263 0.7646 0.11194 0.0
C115 C 0.56661 0.75695 0.09478 0.0
C116 C 0.55738 0.77706 0.08688 0.0
H117 H 0.18147 0.74929 0.11783 0.0
H118 H 0.26662 0.83856 0.1147 0.0
H119 H 0.2392 0.77509 0.06825 0.0
C120 C 0.20253 0.76597 0.11022 0.0
C121 C 0.20828 0.75871 0.09223 0.0
C122 C 0.22344 0.79481 0.11833 0.0
C123 C 0.25039 0.81652 0.10824 0.0
C124 C 0.25669 0.80977 0.09012 0.0
C125 C 0.23544 0.78053 0.08233 0.0
H126 H 0.17626 0.43098 0.11324 0.0
H127 H 0.26858 0.43809 0.11307 0.0
H128 H 0.23328 0.45862 0.06324 0.0
C129 C 0.19801 0.43618 0.10602 0.0
C130 C 0.20187 0.44572 0.08717 0.0
C131 C 0.22163 0.43295 0.11562 0.0
C132 C 0.24993 0.44004 0.10597 0.0
C133 C 0.25428 0.44922 0.08706 0.0
C134 C 0.23009 0.45186 0.07781 0.0
H135 H 0.41335 0.90302 0.25679 0.0
H136 H 0.50273 0.90387 0.2571 0.0
H137 H 0.44383 0.87593 0.30631 0.0
C138 C 0.43052 0.89872 0.2639 0.0
C139 C 0.42494 0.88845 0.28263 0.0
C140 C 0.45891 0.9051 0.25465 0.0
C141 C 0.48105 0.89954 0.26415 0.0
C142 C 0.4758 0.8889 0.28274 0.0
C143 C 0.44797 0.88402 0.29197 0.0
H144 H 0.09177 0.5884 0.24956 0.0
H145 H 0.08736 0.49996 0.25162 0.0
H146 H 0.13357 0.56593 0.29577 0.0
C147 C 0.09782 0.57268 0.25654 0.0
C148 C 0.11367 0.58087 0.27381 0.0
C149 C 0.08839 0.54362 0.24849 0.0
C150 C 0.09464 0.52242 0.25784 0.0
C151 C 0.11119 0.5305 0.27485 0.0
C152 C 0.12083 0.55979 0.28264 0.0
H153 H 0.40794 0.49693 0.25585 0.0
H154 H 0.49522 0.58485 0.25216 0.0
H155 H 0.4378 0.5609 0.30192 0.0
C156 C 0.42486 0.51909 0.26196 0.0
C157 C 0.41952 0.52645 0.28008 0.0
C158 C 0.45212 0.54007 0.25176 0.0
C159 C 0.47406 0.56864 0.25987 0.0
C160 C 0.46903 0.57631 0.27794 0.0
C161 C 0.44171 0.55513 0.28794 0.0
Tb162 Tb 0.49367 0.98053 0.99631 0.0
C163 C 0.55412 0.09398 0.04808 0.0
C164 C 0.61008 0.10983 0.04787 0.0
C165 C 0.59378 0.14835 0.05257 0.0
C166 C 0.5778 0.08662 0.04615 0.0
C167 C 0.56166 0.12478 0.05174 0.0
C168 C 0.61799 0.14089 0.05061 0.0
C169 C 0.50529 0.10608 0.05504 0.0
N170 N 0.52352 0.07046 0.04737 0.0
C171 C 0.49908 0.07589 0.0514 0.0
C172 C 0.53671 0.13072 0.05499 0.0
Tb173 Tb 0.5154 0.02197 0.04048 0.0
N174 N 0.56901 0.05631 0.04384 0.0
C175 C 0.59148 0.04734 0.0447 0.0
C176 C 0.63329 0.10096 0.04747 0.0
C177 C 0.62388 0.06949 0.04621 0.0
H178 H 0.47469 0.05709 0.05133 0.0
H179 H 0.64157 0.06226 0.04635 0.0
H180 H 0.64267 0.15912 0.05178 0.0
H181 H 0.48583 0.11033 0.05784 0.0
H182 H 0.58486 0.02321 0.04367 0.0
H183 H 0.36712 0.93837 0.99065 0.0
H184 H 0.65838 0.11805 0.0487 0.0
H185 H 0.53549 0.94655 0.9851 0.0
H186 H 0.42364 0.97807 0.99341 0.0
H187 H 0.52524 0.89375 0.9783 0.0
H188 H 0.60013 0.17224 0.05519 0.0
H189 H 0.35125 0.88285 0.98791 0.0
H190 H 0.3679 0.84252 0.98445 0.0
H191 H 0.54147 0.15407 0.05786 0.0
H192 H 0.41108 0.83035 0.98083 0.0
N193 N 0.44025 0.94557 0.99291 0.0
C194 C 0.41739 0.95405 0.99221 0.0
C195 C 0.37624 0.90022 0.98917 0.0
C196 C 0.39984 0.89187 0.98861 0.0
C197 C 0.38512 0.93153 0.99065 0.0
C198 C 0.43198 0.91543 0.99039 0.0
H199 H 0.46992 0.84943 0.97814 0.0
N200 N 0.48648 0.93243 0.98919 0.0
C201 C 0.50552 0.89757 0.9812 0.0
C202 C 0.45602 0.9086 0.98836 0.0
C203 C 0.51122 0.92754 0.98503 0.0
C204 C 0.47429 0.8726 0.98117 0.0
C205 C 0.449 0.87801 0.98451 0.0
O206 O 0.5207 0.99156 0.97146 0.0
O207 O 0.52914 0.0193 0.01223 0.0
O208 O 0.51185 0.0527 0.01986 0.0
O209 O 0.47869 0.0157 0.99811 0.0
O210 O 0.54496 0.99738 0.99508 0.0
O211 O 0.47787 0.99417 0.97262 0.0
O212 O 0.48995 0.01381 0.06582 0.0
O213 O 0.47991 0.98342 0.02454 0.0
O214 O 0.49718 0.94961 0.01677 0.0
O215 O 0.52995 0.98645 0.03874 0.0
O216 O 0.46406 0.00498 0.04191 0.0
O217 O 0.52943 0.00581 0.06372 0.0
C218 C 0.5542 0.02031 1.00638 0.0
C219 C 0.49306 0.98456 0.94304 0.0
C220 C 0.4965 0.99248 0.90914 0.0
C221 C 0.50407 0.00464 0.92739 0.0
C222 C 0.4779 0.9602 0.90674 0.0
C223 C 0.47442 0.9524 0.94026 0.0
C224 C 0.46693 0.94035 0.9222 0.0
C225 C 0.49249 0.04414 1.00525 0.0
C226 C 0.50128 0.9974 0.96211 0.0
C227 C 0.41703 0.85409 0.9836 0.0
C228 C 0.39245 0.86101 0.98567 0.0
C229 C 0.45483 0.9822 0.03051 0.0
C230 C 0.5187 0.01849 0.09359 0.0
C231 C 0.50702 0.99915 0.10955 0.0
C232 C 0.5191 0.01107 0.12746 0.0
C233 C 0.54248 0.04259 0.12913 0.0
C234 C 0.54184 0.04988 0.09574 0.0
C235 C 0.55354 0.06183 0.11342 0.0
C236 C 0.51634 0.9581 0.03146 0.0
C237 C 0.50786 0.00545 0.07474 0.0
H238 H 0.5185 0.02954 0.92939 0.0
H239 H 0.47186 0.95035 0.89286 0.0
H240 H 0.46568 0.93663 0.95203 0.0
H241 H 0.45257 0.91549 0.92018 0.0
H242 H 0.48931 0.97479 0.10799 0.0
H243 H 0.55212 0.05241 0.14268 0.0
H244 H 0.55113 0.06506 0.08373 0.0
H245 H 0.5715 0.08607 0.11494 0.0
Tb246 Tb 0.02974 0.50928 0.99713 0.0
C247 C 0.90618 0.45759 0.04241 0.0
C248 C 0.8908 0.4968 0.03959 0.0
C249 C 0.85017 0.44264 0.04395 0.0
C250 C 0.91445 0.48816 0.0398 0.0
C251 C 0.87405 0.43452 0.04508 0.0
C252 C 0.85854 0.47376 0.04116 0.0
C253 C 0.89195 0.39799 0.05161 0.0
N254 N 0.93001 0.45085 0.04357 0.0
C255 C 0.92347 0.42173 0.04884 0.0
C256 C 0.86707 0.40429 0.04945 0.0
Tb257 Tb 0.98084 0.49113 0.03863 0.0
N258 N 0.94588 0.50966 0.03865 0.0
C259 C 0.95536 0.54065 0.03879 0.0
C260 C 0.90036 0.52838 0.03847 0.0
C261 C 0.93281 0.55042 0.0384 0.0
H262 H 0.94244 0.41651 0.05048 0.0
H263 H 0.94051 0.57496 0.03796 0.0
H264 H 0.83998 0.47988 0.04082 0.0
H265 H 0.88687 0.37484 0.05537 0.0
H266 H 0.9803 0.55807 0.03862 0.0
H267 H 0.0679 0.42379 0.99724 0.0
H268 H 0.88296 0.53601 0.0382 0.0
H269 H 0.06936 0.58388 0.98557 0.0
H270 H 0.02893 0.44165 0.9966 0.0
H271 H 0.12531 0.625 0.98092 0.0
H272 H 0.82529 0.42521 0.04575 0.0
H273 H 0.12567 0.46196 0.99751 0.0
H274 H 0.16943 0.51787 0.99534 0.0
H275 H 0.8427 0.38589 0.05165 0.0
H276 H 0.18516 0.57285 0.99063 0.0
N277 N 0.06398 0.48987 0.99709 0.0
C278 C 0.05396 0.45877 0.99665 0.0
C279 C 0.10862 0.47003 0.99726 0.0
C280 C 0.11877 0.50176 0.99638 0.0
C281 C 0.07605 0.44843 0.99703 0.0
C282 C 0.09556 0.51097 0.99617 0.0
H283 H 0.16879 0.61296 0.98474 0.0
N284 N 0.08094 0.54888 0.99225 0.0
C285 C 0.11977 0.60166 0.98456 0.0
C286 C 0.10438 0.54166 0.99354 0.0
C287 C 0.08806 0.57825 0.98715 0.0
C288 C 0.14425 0.59481 0.98678 0.0
C289 C 0.13668 0.56437 0.99106 0.0
O290 O 0.02676 0.5264 0.97073 0.0
O291 O 0.98826 0.50672 1.01007 0.0
O292 O 0.95158 0.45684 0.01762 0.0
O293 O 0.9915 0.45982 0.99794 0.0
O294 O 0.01353 0.54295 0.99251 0.0
O295 O 0.01745 0.47947 0.97408 0.0
O296 O 0.98798 0.47566 0.06453 0.0
O297 O 0.02253 0.49404 0.02571 0.0
O298 O 0.05878 0.5435 0.01828 0.0
O299 O 0.01868 0.54068 0.0377 0.0
O300 O 0.99698 0.45735 0.04295 0.0
O301 O 0.98894 0.51931 0.06226 0.0
C302 C 0.98847 0.52994 1.00281 0.0
C303 C 0.03824 0.50374 0.94513 0.0
C304 C 0.03926 0.5011 0.91117 0.0
C305 C 0.02332 0.5001 0.9278 0.0
C306 C 0.07052 0.50624 0.91208 0.0
C307 C 0.0695 0.50902 0.94577 0.0
C308 C 0.08557 0.51036 0.9293 0.0
C309 C 0.9615 0.44568 1.004 0.0
C310 C 0.0203 0.50071 0.96231 0.0
C311 C 0.16015 0.55571 0.99229 0.0
C312 C 0.1512 0.52442 0.99498 0.0
C313 C 0.02219 0.47062 0.03277 0.0
C314 C 0.97244 0.49252 0.09107 0.0
C315 C 0.98905 0.50017 0.10805 0.0
C316 C 0.97239 0.49152 0.12508 0.0
C317 C 0.93892 0.47541 0.12499 0.0
C318 C 0.93901 0.47694 0.09122 0.0
C319 C 0.92237 0.46844 0.10812 0.0
C320 C 0.04874 0.5548 0.03177 0.0
C321 C 0.99045 0.4995 0.07351 0.0
H322 H 0.99902 0.49567 0.9273 0.0
H323 H 0.08335 0.50724 0.89947 0.0
H324 H 0.08134 0.51175 0.95894 0.0
H325 H 0.10967 0.51437 0.9299 0.0
H326 H 0.0149 0.51213 0.10801 0.0
H327 H 0.92564 0.46854 0.13798 0.0
H328 H 0.92578 0.47107 0.07836 0.0
H329 H 0.89656 0.45623 0.10814 0.0
Tb330 Tb 0.51805 0.49177 0.03974 0.0
C331 C 0.45629 0.5475 0.99038 0.0
C332 C 0.40016 0.50936 0.99159 0.0
C333 C 0.417 0.56396 0.98711 0.0
C334 C 0.4324 0.51717 0.99258 0.0
C335 C 0.44901 0.57125 0.98717 0.0
C336 C 0.39258 0.53303 0.98934 0.0
C337 C 0.5053 0.60689 0.98273 0.0
N338 N 0.48678 0.55339 0.99036 0.0
C339 C 0.51125 0.58246 0.98597 0.0
C340 C 0.47407 0.60135 0.98357 0.0
Tb341 Tb 0.49448 0.5123 0.9965 0.0
N342 N 0.44085 0.49508 0.99435 0.0
C343 C 0.41799 0.46431 0.99366 0.0
C344 C 0.37664 0.47797 0.99218 0.0
C345 C 0.38563 0.45533 0.99288 0.0
H346 H 0.53551 0.58708 0.98544 0.0
H347 H 0.36766 0.43094 0.99289 0.0
H348 H 0.36796 0.52755 0.98874 0.0
H349 H 0.52481 0.62997 0.97965 0.0
H350 H 0.4243 0.44638 0.99429 0.0
H351 H 0.64532 0.57109 0.04293 0.0
H352 H 0.35158 0.47096 0.99153 0.0
H353 H 0.47556 0.41707 0.05123 0.0
H354 H 0.58894 0.55679 0.04151 0.0
H355 H 0.48513 0.37358 0.05728 0.0
H356 H 0.41086 0.58191 0.98485 0.0
H357 H 0.66015 0.5302 0.04472 0.0
H358 H 0.64254 0.47337 0.04791 0.0
H359 H 0.4695 0.62028 0.98101 0.0
H360 H 0.59882 0.41945 0.05205 0.0
N361 N 0.57141 0.50793 0.04186 0.0
C362 C 0.59477 0.53854 0.04231 0.0
C363 C 0.63523 0.52371 0.04406 0.0
C364 C 0.61119 0.49251 0.04485 0.0
C365 C 0.62695 0.54684 0.04312 0.0
C366 C 0.57916 0.48537 0.04385 0.0
H367 H 0.53998 0.38207 0.05595 0.0
N368 N 0.52447 0.44994 0.046 0.0
C369 C 0.50494 0.39641 0.05404 0.0
C370 C 0.55478 0.45524 0.0461 0.0
C371 C 0.49963 0.42119 0.05061 0.0
C372 C 0.53592 0.40127 0.05323 0.0
C373 C 0.5614 0.43109 0.0495 0.0
O374 O 0.49137 0.4774 0.06464 0.0
O375 O 0.48202 0.49678 0.02493 0.0
O376 O 0.49952 0.54656 0.01728 0.0
O377 O 0.53364 0.54181 0.03825 0.0
O378 O 0.46654 0.45931 0.04197 0.0
O379 O 0.53709 0.51909 0.06392 0.0
O380 O 0.51846 0.52898 0.9708 0.0
O381 O 0.53065 0.50777 1.01135 0.0
O382 O 0.51297 0.45723 0.01917 0.0
O383 O 0.47938 0.46236 0.99793 0.0
O384 O 0.54601 0.54465 0.99392 0.0
O385 O 0.47822 0.48276 0.97321 0.0
C386 C 0.457 0.47366 0.03118 0.0
C387 C 0.52006 0.49216 0.09277 0.0
C388 C 0.51326 0.48987 0.12666 0.0
C389 C 0.5091 0.49984 0.10902 0.0
C390 C 0.52884 0.47251 0.12788 0.0
C391 C 0.53602 0.47524 0.09433 0.0
C392 C 0.54038 0.46551 0.11181 0.0
C393 C 0.51979 0.55699 0.03142 0.0
C394 C 0.51297 0.50036 0.07433 0.0
C395 C 0.5932 0.43772 0.04964 0.0
C396 C 0.61808 0.46841 0.04728 0.0
C397 C 0.55565 0.53065 1.0049 0.0
C398 C 0.48715 0.50713 0.94381 0.0
C399 C 0.49922 0.5018 0.92719 0.0
C400 C 0.4865 0.5032 0.90978 0.0
C401 C 0.462 0.51055 0.90924 0.0
C402 C 0.46285 0.51462 0.94291 0.0
C403 C 0.45046 0.51642 0.92569 0.0
C404 C 0.49297 0.44702 1.0049 0.0
C405 C 0.4992 0.50356 0.96195 0.0
H406 H 0.49663 0.51282 0.1079 0.0
H407 H 0.53236 0.46463 0.1413 0.0
H408 H 0.5448 0.46928 0.08208 0.0
H409 H 0.55255 0.45229 0.1129 0.0
H410 H 0.51782 0.49574 0.92783 0.0
H411 H 0.45191 0.51194 0.89604 0.0
H412 H 0.45324 0.51874 0.95548 0.0
H413 H 0.43164 0.52213 0.92511 0.0
Tb414 Tb 0.16155 0.3143 0.32897 0.0
C415 C 0.22226 0.42701 0.38141 0.0
C416 C 0.27835 0.44344 0.3806 0.0
C417 C 0.26159 0.48145 0.38604 0.0
C418 C 0.24611 0.42002 0.37903 0.0
C419 C 0.22955 0.45765 0.38536 0.0
C420 C 0.28599 0.47435 0.38364 0.0
C421 C 0.17316 0.43836 0.3892 0.0
N422 N 0.19175 0.40329 0.38081 0.0
C423 C 0.1672 0.40834 0.38526 0.0
C424 C 0.20446 0.46322 0.38902 0.0
Tb425 Tb 0.184 0.3551 0.37337 0.0
N426 N 0.23759 0.38983 0.37643 0.0
C427 C 0.26033 0.38118 0.37683 0.0
C428 C 0.30179 0.43491 0.37973 0.0
C429 C 0.29268 0.40356 0.37818 0.0
H430 H 0.14289 0.38938 0.3853 0.0
H431 H 0.31057 0.39658 0.37795 0.0
H432 H 0.31062 0.49275 0.38471 0.0
H433 H 0.15359 0.44231 0.39231 0.0
H434 H 0.25397 0.35715 0.37556 0.0
H435 H 0.03496 0.27237 0.32391 0.0
H436 H 0.32685 0.45218 0.38083 0.0
H437 H 0.2031 0.28031 0.31739 0.0
H438 H 0.09148 0.31195 0.32652 0.0
H439 H 0.19269 0.22748 0.31035 0.0
H440 H 0.26774 0.50523 0.38889 0.0
H441 H 0.01895 0.21684 0.32099 0.0
H442 H 0.03546 0.17646 0.31722 0.0
H443 H 0.20902 0.48643 0.39212 0.0
H444 H 0.07853 0.16421 0.31324 0.0
N445 N 0.10805 0.27942 0.32577 0.0
C446 C 0.08522 0.28796 0.32525 0.0
C447 C 0.04396 0.23417 0.3222 0.0
C448 C 0.06751 0.22577 0.32145 0.0
C449 C 0.05292 0.26549 0.32377 0.0
C450 C 0.09969 0.24928 0.32315 0.0
H451 H 0.13733 0.18323 0.31028 0.0
N452 N 0.15413 0.2662 0.32162 0.0
C453 C 0.17303 0.23133 0.31336 0.0
C454 C 0.12367 0.24241 0.32088 0.0
C455 C 0.17882 0.26129 0.31731 0.0
C456 C 0.14177 0.20639 0.31339 0.0
C457 C 0.11655 0.21183 0.31692 0.0
O458 O 0.18688 0.32338 0.30353 0.0
O459 O 0.1971 0.35291 0.3449 0.0
O460 O 0.17937 0.38586 0.35325 0.0
O461 O 0.14626 0.34917 0.33132 0.0
O462 O 0.21302 0.33195 0.32711 0.0
O463 O 0.14668 0.33023 0.306 0.0
O464 O 0.15895 0.34618 0.39892 0.0
O465 O 0.14832 0.31659 0.35743 0.0
O466 O 0.16565 0.28338 0.34917 0.0
O467 O 0.19919 0.32014 0.3709 0.0
O468 O 0.13265 0.3378 0.37523 0.0
O469 O 0.19868 0.33869 0.39619 0.0
C470 C 0.22221 0.35458 0.33862 0.0
C471 C 0.15772 0.31848 0.27593 0.0
C472 C 0.15849 0.32629 0.24204 0.0
C473 C 0.17028 0.33786 0.26005 0.0
C474 C 0.13448 0.29502 0.2402 0.0
C475 C 0.13397 0.28735 0.27362 0.0
C476 C 0.12254 0.27572 0.25585 0.0
C477 C 0.15967 0.37735 0.33881 0.0
C478 C 0.16843 0.33129 0.29483 0.0
C479 C 0.08455 0.18795 0.3161 0.0
C480 C 0.06004 0.19491 0.31838 0.0
C481 C 0.12331 0.31524 0.36366 0.0
C482 C 0.18831 0.35061 0.42637 0.0
C483 C 0.17611 0.33115 0.44225 0.0
C484 C 0.18838 0.34263 0.4602 0.0
C485 C 0.21249 0.37386 0.462 0.0
C486 C 0.21216 0.38172 0.42864 0.0
C487 C 0.22407 0.39324 0.44636 0.0
C488 C 0.18547 0.29187 0.36353 0.0
C489 C 0.17721 0.3379 0.40748 0.0
H490 H 0.18849 0.36202 0.26174 0.0
H491 H 0.12506 0.28544 0.22658 0.0
H492 H 0.12402 0.27214 0.28557 0.0
H493 H 0.10411 0.25167 0.2542 0.0
H494 H 0.15781 0.30702 0.44059 0.0
H495 H 0.22226 0.38335 0.47558 0.0
H496 H 0.22184 0.39699 0.41669 0.0
H497 H 0.24257 0.41726 0.44798 0.0
Tb498 Tb 0.69667 0.8441 0.33067 0.0
C499 C 0.57367 0.79272 0.37631 0.0
C500 C 0.55812 0.83174 0.3731 0.0
C501 C 0.51762 0.7776 0.37776 0.0
C502 C 0.58182 0.82317 0.37337 0.0
C503 C 0.54158 0.76961 0.37904 0.0
C504 C 0.52589 0.80865 0.37476 0.0
C505 C 0.55968 0.73331 0.38583 0.0
N506 N 0.59758 0.78614 0.37764 0.0
C507 C 0.59116 0.7571 0.383 0.0
C508 C 0.53472 0.73947 0.38358 0.0
Tb509 Tb 0.64834 0.82632 0.37239 0.0
N510 N 0.61324 0.84471 0.37223 0.0
C511 C 0.62264 0.87567 0.37241 0.0
C512 C 0.56761 0.8633 0.37194 0.0
C513 C 0.60004 0.88538 0.37197 0.0
H514 H 0.61023 0.75201 0.38461 0.0
H515 H 0.60769 0.90991 0.37155 0.0
H516 H 0.50728 0.81471 0.37438 0.0
H517 H 0.55469 0.71022 0.38967 0.0
H518 H 0.64755 0.89316 0.3723 0.0
H519 H 0.73745 0.76059 0.3314 0.0
H520 H 0.55017 0.87088 0.37163 0.0
H521 H 0.73467 0.91847 0.31852 0.0
H522 H 0.69755 0.77728 0.33079 0.0
H523 H 0.79015 0.96026 0.31334 0.0
H524 H 0.49277 0.76015 0.37961 0.0
H525 H 0.79495 0.79966 0.33108 0.0
H526 H 0.83777 0.85583 0.32819 0.0
H527 H 0.51037 0.72104 0.38582 0.0
H528 H 0.8522 0.91036 0.32298 0.0
N529 N 0.73181 0.82575 0.33069 0.0
C530 C 0.72244 0.79479 0.33057 0.0
C531 C 0.77749 0.80722 0.33083 0.0
C532 C 0.78694 0.83876 0.32963 0.0
C533 C 0.74507 0.78512 0.33094 0.0
C534 C 0.76321 0.8473 0.32944 0.0
H535 H 0.83451 0.94945 0.31695 0.0
N536 N 0.74739 0.8843 0.32532 0.0
C537 C 0.7852 0.93717 0.31713 0.0
C538 C 0.77132 0.87774 0.32652 0.0
C539 C 0.75375 0.91336 0.32004 0.0
C540 C 0.81019 0.93101 0.31924 0.0
C541 C 0.80338 0.90087 0.32372 0.0
O542 O 0.69235 0.86015 0.30421 0.0
O543 O 0.65501 0.84106 0.3437 0.0
O544 O 0.61931 0.79141 0.35158 0.0
O545 O 0.65934 0.7944 0.33203 0.0
O546 O 0.67952 0.87705 0.32588 0.0
O547 O 0.6848 0.81389 0.30785 0.0
O548 O 0.65229 0.81022 0.39892 0.0
O549 O 0.68989 0.8293 0.35934 0.0
O550 O 0.72581 0.87886 0.3515 0.0
O551 O 0.68586 0.87598 0.37109 0.0
O552 O 0.66569 0.79353 0.37732 0.0
O553 O 0.66017 0.85659 0.39518 0.0
C554 C 0.65465 0.86393 0.33633 0.0
C555 C 0.70422 0.83779 0.27863 0.0
C556 C 0.70452 0.83528 0.24466 0.0
C557 C 0.6889 0.83412 0.26145 0.0
C558 C 0.73587 0.84063 0.24526 0.0
C559 C 0.73559 0.84331 0.27898 0.0
C560 C 0.75134 0.84484 0.26234 0.0
C561 C 0.62938 0.78007 0.33814 0.0
C562 C 0.68656 0.83453 0.29596 0.0
C563 C 0.82736 0.8929 0.32489 0.0
C564 C 0.81915 0.86186 0.32787 0.0
C565 C 0.69046 0.80659 0.36678 0.0
C566 C 0.64016 0.83272 0.42433 0.0
C567 C 0.6551 0.83629 0.44165 0.0
C568 C 0.63914 0.83512 0.4583 0.0
C569 C 0.60784 0.82988 0.45743 0.0
C570 C 0.60886 0.82733 0.42373 0.0
C571 C 0.59277 0.82581 0.44022 0.0
C572 C 0.71583 0.89021 0.36499 0.0
C573 C 0.6581 0.83588 0.40713 0.0
H574 H 0.66452 0.82949 0.26118 0.0
H575 H 0.74842 0.84169 0.2325 0.0
H576 H 0.74774 0.84609 0.29205 0.0
H577 H 0.77552 0.84901 0.2627 0.0
H578 H 0.67944 0.8408 0.44212 0.0
H579 H 0.59499 0.82874 0.47006 0.0
H580 H 0.597 0.82465 0.41057 0.0
H581 H 0.56864 0.82172 0.43966 0.0
Tb582 Tb 0.18383 0.82391 0.37258 0.0
C583 C 0.1234 0.8818 0.32399 0.0
C584 C 0.06717 0.84376 0.32449 0.0
C585 C 0.08435 0.89857 0.32072 0.0
C586 C 0.09934 0.85139 0.32564 0.0
C587 C 0.11632 0.90574 0.32102 0.0
C588 C 0.05978 0.8676 0.32249 0.0
C589 C 0.17276 0.94139 0.31721 0.0
N590 N 0.15389 0.88763 0.32424 0.0
C591 C 0.17853 0.9168 0.32022 0.0
C592 C 0.14154 0.93593 0.31787 0.0
Tb593 Tb 0.16104 0.84602 0.32965 0.0
N594 N 0.10757 0.82912 0.32725 0.0
C595 C 0.08462 0.7984 0.32629 0.0
C596 C 0.04352 0.81239 0.32475 0.0
C597 C 0.05233 0.78961 0.32534 0.0
H598 H 0.20277 0.92136 0.31975 0.0
H599 H 0.03427 0.76525 0.32513 0.0
H600 H 0.03521 0.86225 0.32176 0.0
H601 H 0.19239 0.96454 0.31443 0.0
H602 H 0.0909 0.78043 0.32681 0.0
H603 H 0.31071 0.90457 0.37679 0.0
H604 H 0.01851 0.80552 0.32397 0.0
H605 H 0.14213 0.74875 0.3831 0.0
H606 H 0.25413 0.88949 0.37519 0.0
H607 H 0.15245 0.70563 0.38863 0.0
H608 H 0.07836 0.91666 0.31864 0.0
H609 H 0.32638 0.86425 0.37808 0.0
H610 H 0.30959 0.80753 0.38058 0.0
H611 H 0.13712 0.955 0.31549 0.0
H612 H 0.26639 0.75321 0.38405 0.0
N613 N 0.23732 0.84076 0.37495 0.0
C614 C 0.26033 0.87147 0.37577 0.0
C615 C 0.30138 0.85741 0.37734 0.0
C616 C 0.27768 0.82606 0.37776 0.0
C617 C 0.29261 0.88022 0.37668 0.0
C618 C 0.24552 0.81848 0.37666 0.0
H619 H 0.20765 0.71503 0.38746 0.0
N620 N 0.19097 0.78238 0.37835 0.0
C621 C 0.17208 0.72871 0.3857 0.0
C622 C 0.22143 0.78813 0.37853 0.0
C623 C 0.16634 0.75329 0.38256 0.0
C624 C 0.20326 0.73409 0.38499 0.0
C625 C 0.22848 0.7642 0.38164 0.0
O626 O 0.15673 0.80819 0.39729 0.0
O627 O 0.14776 0.82886 0.35778 0.0
O628 O 0.16495 0.87919 0.35091 0.0
O629 O 0.19868 0.87381 0.37188 0.0
O630 O 0.13252 0.79066 0.37417 0.0
O631 O 0.20189 0.85055 0.39709 0.0
O632 O 0.18755 0.8624 0.30479 0.0
O633 O 0.19695 0.84098 0.34445 0.0
O634 O 0.17975 0.79052 0.35148 0.0
O635 O 0.14657 0.79615 0.33014 0.0
O636 O 0.21255 0.87884 0.3278 0.0
O637 O 0.14309 0.81925 0.30519 0.0
C638 C 0.12282 0.80517 0.36362 0.0
C639 C 0.18483 0.82279 0.42565 0.0
C640 C 0.1785 0.8208 0.45958 0.0
C641 C 0.17431 0.83081 0.44195 0.0
C642 C 0.1937 0.80307 0.46072 0.0
C643 C 0.20039 0.80549 0.42714 0.0
C644 C 0.2048 0.79573 0.4446 0.0
C645 C 0.18461 0.88896 0.36535 0.0
C646 C 0.17776 0.83113 0.40725 0.0
C647 C 0.26044 0.7713 0.38187 0.0
C648 C 0.28503 0.80222 0.37989 0.0
C649 C 0.22206 0.8643 0.33846 0.0
C650 C 0.15865 0.84724 0.27667 0.0
C651 C 0.16697 0.8377 0.26011 0.0
C652 C 0.16138 0.84682 0.24246 0.0
C653 C 0.14726 0.8657 0.2419 0.0
C654 C 0.14407 0.86543 0.2756 0.0
C655 C 0.13846 0.87461 0.25831 0.0
C656 C 0.16037 0.78086 0.3369 0.0
C657 C 0.16668 0.83921 0.2949 0.0
H658 H 0.16215 0.84409 0.44089 0.0
H659 H 0.19723 0.79514 0.47412 0.0
H660 H 0.20882 0.79925 0.41485 0.0
H661 H 0.21667 0.78222 0.44563 0.0
H662 H 0.17771 0.82315 0.26109 0.0
H663 H 0.14339 0.87412 0.2288 0.0
H664 H 0.13736 0.87287 0.28808 0.0
H665 H 0.12758 0.88904 0.25762 0.0
Tb666 Tb 0.82896 0.64704 0.66229 0.0
C667 C 0.88646 0.76026 0.71439 0.0
C668 C 0.94288 0.77793 0.71398 0.0
C669 C 0.92477 0.81498 0.71912 0.0
C670 C 0.91089 0.75397 0.71228 0.0
C671 C 0.89297 0.79069 0.71828 0.0
C672 C 0.94972 0.80861 0.71695 0.0
C673 C 0.83632 0.77024 0.72176 0.0
N674 N 0.85617 0.7361 0.71358 0.0
C675 C 0.83112 0.74046 0.71787 0.0
C676 C 0.86736 0.79555 0.72172 0.0
Tb677 Tb 0.84994 0.68836 0.70648 0.0
N678 N 0.90318 0.72398 0.70973 0.0
C679 C 0.92645 0.71605 0.7103 0.0
C680 C 0.9669 0.77014 0.71329 0.0
C681 C 0.95859 0.73898 0.71177 0.0
H682 H 0.80701 0.72118 0.71793 0.0
H683 H 0.97692 0.73259 0.71167 0.0
H684 H 0.97415 0.8274 0.71812 0.0
H685 H 0.81637 0.77365 0.72476 0.0
H686 H 0.92061 0.69214 0.70908 0.0
H687 H 0.70266 0.60587 0.65616 0.0
H688 H 0.99179 0.78784 0.71448 0.0
H689 H 0.87025 0.61242 0.65167 0.0
H690 H 0.75926 0.64523 0.65892 0.0
H691 H 0.85958 0.55931 0.64523 0.0
H692 H 0.93031 0.83859 0.72192 0.0
H693 H 0.68629 0.55018 0.65383 0.0
H694 H 0.70245 0.50942 0.65085 0.0
H695 H 0.87132 0.81857 0.72478 0.0
H696 H 0.74531 0.49671 0.6476 0.0
N697 N 0.77546 0.61241 0.65885 0.0
C698 C 0.75282 0.62115 0.65791 0.0
C699 C 0.71133 0.56741 0.65511 0.0
C700 C 0.73471 0.55877 0.65479 0.0
C701 C 0.72049 0.59882 0.65635 0.0
C702 C 0.76692 0.58215 0.65656 0.0
H703 H 0.80408 0.51529 0.6451 0.0
N704 N 0.8213 0.59869 0.65547 0.0
C705 C 0.83998 0.56338 0.64794 0.0
C706 C 0.79078 0.57503 0.65471 0.0
C707 C 0.84592 0.59349 0.65155 0.0
C708 C 0.80864 0.53858 0.64794 0.0
C709 C 0.78351 0.54429 0.65108 0.0
O710 O 0.85429 0.65496 0.63692 0.0
O711 O 0.86409 0.68569 0.6783 0.0
O712 O 0.84598 0.71913 0.68615 0.0
O713 O 0.81414 0.68241 0.66384 0.0
O714 O 0.88043 0.66458 0.66093 0.0
O715 O 0.81498 0.66325 0.63906 0.0
O716 O 0.82137 0.67441 0.73073 0.0
O717 O 0.81491 0.64938 0.6905 0.0
O718 O 0.83273 0.61653 0.68298 0.0
O719 O 0.86552 0.65363 0.70478 0.0
O720 O 0.79861 0.67128 0.70733 0.0
O721 O 0.86728 0.67797 0.7309 0.0
C722 C 0.88938 0.68734 0.67233 0.0
C723 C 0.8254 0.65031 0.6092 0.0
C724 C 0.82456 0.6577 0.57537 0.0
C725 C 0.83686 0.66964 0.59323 0.0
C726 C 0.80117 0.62617 0.57374 0.0
C727 C 0.80226 0.61891 0.6071 0.0
C728 C 0.79034 0.60694 0.58946 0.0
C729 C 0.82718 0.71062 0.67131 0.0
C730 C 0.83643 0.66341 0.62802 0.0
C731 C 0.75146 0.52055 0.6502 0.0
C732 C 0.72706 0.52778 0.65207 0.0
C733 C 0.78967 0.64823 0.69613 0.0
C734 C 0.84739 0.68467 0.75983 0.0
C735 C 0.83752 0.66465 0.77552 0.0
C736 C 0.84002 0.67664 0.7937 0.0
C737 C 0.85291 0.70882 0.79593 0.0
C738 C 0.86059 0.71673 0.76253 0.0
C739 C 0.86334 0.72868 0.78047 0.0
C740 C 0.852 0.62522 0.69763 0.0
C741 C 0.84218 0.67171 0.74076 0.0
H742 H 0.85458 0.694 0.59476 0.0
H743 H 0.79137 0.61635 0.56021 0.0
H744 H 0.79313 0.60374 0.61912 0.0
H745 H 0.77237 0.58269 0.58798 0.0
H746 H 0.82721 0.63982 0.77357 0.0
H747 H 0.85518 0.71866 0.80971 0.0
H748 H 0.86845 0.73249 0.75076 0.0
H749 H 0.87339 0.75345 0.78241 0.0
Tb750 Tb 0.36346 0.17697 0.66392 0.0
C751 C 0.24021 0.12458 0.70944 0.0
C752 C 0.22434 0.16336 0.70624 0.0
C753 C 0.18407 0.10914 0.71083 0.0
C754 C 0.24818 0.15498 0.70653 0.0
C755 C 0.20817 0.10133 0.71213 0.0
C756 C 0.19216 0.14014 0.70786 0.0
C757 C 0.22656 0.06526 0.71894 0.0
N758 N 0.26424 0.11819 0.7108 0.0
C759 C 0.25798 0.08919 0.71614 0.0
C760 C 0.20148 0.07124 0.71667 0.0
Tb761 Tb 0.31491 0.15855 0.70557 0.0
N762 N 0.27956 0.17665 0.70544 0.0
C763 C 0.28878 0.20757 0.70565 0.0
C764 C 0.23365 0.19488 0.70511 0.0
C765 C 0.26604 0.2171 0.70519 0.0
H766 H 0.27715 0.08423 0.71777 0.0
H767 H 0.27354 0.2416 0.7048 0.0
H768 H 0.17345 0.14605 0.70745 0.0
H769 H 0.2217 0.04222 0.72277 0.0
H770 H 0.31364 0.22517 0.70558 0.0
H771 H 0.4067 0.09541 0.66504 0.0
H772 H 0.2161 0.20232 0.70479 0.0
H773 H 0.40023 0.25137 0.65162 0.0
H774 H 0.36589 0.11099 0.66421 0.0
H775 H 0.45538 0.2939 0.64663 0.0
H776 H 0.15924 0.09157 0.71265 0.0
H777 H 0.46392 0.13535 0.66482 0.0
H778 H 0.50589 0.19182 0.66199 0.0
H779 H 0.17717 0.0527 0.71887 0.0
H780 H 0.51923 0.24605 0.65678 0.0
N781 N 0.39941 0.15963 0.66408 0.0
C782 C 0.39068 0.12883 0.66404 0.0
C783 C 0.44607 0.1424 0.66447 0.0
C784 C 0.45487 0.17379 0.66323 0.0
C785 C 0.41381 0.1198 0.66452 0.0
C786 C 0.43066 0.18167 0.66292 0.0
H787 H 0.50047 0.28427 0.65057 0.0
N788 N 0.41383 0.21798 0.65882 0.0
C789 C 0.45089 0.271 0.65054 0.0
C790 C 0.43818 0.212 0.66011 0.0
C791 C 0.41962 0.24678 0.65336 0.0
C792 C 0.47629 0.2655 0.65282 0.0
C793 C 0.47008 0.23557 0.65738 0.0
O794 O 0.35561 0.19168 0.63795 0.0
O795 O 0.32137 0.17316 0.67687 0.0
O796 O 0.28623 0.12356 0.68469 0.0
O797 O 0.32647 0.12713 0.66507 0.0
O798 O 0.34601 0.20972 0.65938 0.0
O799 O 0.35616 0.14877 0.64041 0.0
O800 O 0.31875 0.14239 0.73211 0.0
O801 O 0.35661 0.16185 0.69255 0.0
O802 O 0.39233 0.21185 0.68469 0.0
O803 O 0.35216 0.20837 0.70433 0.0
O804 O 0.33244 0.12592 0.71042 0.0
O805 O 0.32693 0.18886 0.72835 0.0
C806 C 0.32093 0.19611 0.66965 0.0
C807 C 0.37211 0.17547 0.61154 0.0
C808 C 0.37236 0.17726 0.57756 0.0
C809 C 0.35561 0.16825 0.59455 0.0
C810 C 0.40583 0.19334 0.5777 0.0
C811 C 0.40554 0.19101 0.61146 0.0
C812 C 0.42228 0.1999 0.59459 0.0
C813 C 0.2965 0.11249 0.67119 0.0
C814 C 0.35397 0.16811 0.62907 0.0
C815 C 0.49451 0.22822 0.65863 0.0
C816 C 0.48691 0.19735 0.66159 0.0
C817 C 0.35726 0.13914 0.69994 0.0
C818 C 0.30691 0.16511 0.75753 0.0
C819 C 0.32203 0.16911 0.77483 0.0
C820 C 0.30616 0.16815 0.79148 0.0
C821 C 0.27477 0.16268 0.79062 0.0
C822 C 0.27553 0.1595 0.75694 0.0
C823 C 0.25953 0.15819 0.77344 0.0
C824 C 0.3821 0.22299 0.69815 0.0
C825 C 0.32476 0.16812 0.74031 0.0
H826 H 0.32975 0.15632 0.59455 0.0
H827 H 0.41917 0.20048 0.56474 0.0
H828 H 0.41869 0.19652 0.62434 0.0
H829 H 0.44809 0.21208 0.59462 0.0
H830 H 0.34642 0.17379 0.77528 0.0
H831 H 0.26199 0.1617 0.80326 0.0
H832 H 0.26353 0.15648 0.7438 0.0
H833 H 0.23534 0.15393 0.77289 0.0
Tb834 Tb 0.85118 0.15724 0.70625 0.0
C835 C 0.78946 0.21398 0.65761 0.0
C836 C 0.7333 0.17574 0.65829 0.0
C837 C 0.75016 0.23046 0.65438 0.0
C838 C 0.76553 0.18354 0.65937 0.0
C839 C 0.78219 0.23779 0.6546 0.0
C840 C 0.72573 0.19946 0.65626 0.0
C841 C 0.83853 0.2736 0.65056 0.0
N842 N 0.82 0.21996 0.65778 0.0
C843 C 0.84449 0.24914 0.6536 0.0
C844 C 0.80727 0.268 0.65132 0.0
Tb845 Tb 0.8275 0.17857 0.66332 0.0
N846 N 0.77394 0.1614 0.66101 0.0
C847 C 0.75109 0.13064 0.66012 0.0
C848 C 0.70977 0.14434 0.65863 0.0
C849 C 0.71875 0.12168 0.65923 0.0
H850 H 0.86877 0.25383 0.65305 0.0
H851 H 0.70078 0.09729 0.65907 0.0
H852 H 0.70111 0.19398 0.65558 0.0
H853 H 0.85805 0.29676 0.64767 0.0
H854 H 0.75746 0.11274 0.66067 0.0
H855 H 0.97791 0.23863 0.71016 0.0
H856 H 0.68472 0.13734 0.65789 0.0
H857 H 0.81003 0.08205 0.71672 0.0
H858 H 0.9212 0.22312 0.7087 0.0
H859 H 0.82083 0.03918 0.72212 0.0
H860 H 0.74404 0.24845 0.65228 0.0
H861 H 0.99402 0.19861 0.71139 0.0
H862 H 0.97768 0.142 0.7138 0.0
H863 H 0.8027 0.28696 0.64891 0.0
H864 H 0.93481 0.08754 0.71725 0.0
N865 N 0.90476 0.17447 0.70847 0.0
C866 C 0.9276 0.20524 0.70926 0.0
C867 C 0.96896 0.19159 0.7107 0.0
C868 C 0.94544 0.16018 0.71113 0.0
C869 C 0.95995 0.21423 0.71008 0.0
C870 C 0.9132 0.15235 0.71012 0.0
H871 H 0.87617 0.04901 0.72076 0.0
N872 N 0.85875 0.11592 0.71185 0.0
C873 C 0.84032 0.06233 0.71916 0.0
C874 C 0.8893 0.12192 0.71195 0.0
C875 C 0.8343 0.08676 0.71611 0.0
C876 C 0.87158 0.06794 0.71834 0.0
C877 C 0.89662 0.09814 0.71498 0.0
O878 O 0.82471 0.1413 0.73116 0.0
O879 O 0.8148 0.16181 0.69156 0.0
O880 O 0.83157 0.21199 0.68445 0.0
O881 O 0.86563 0.20707 0.70541 0.0
O882 O 0.79988 0.12402 0.70829 0.0
O883 O 0.8693 0.18424 0.73062 0.0
O884 O 0.85393 0.19466 0.63841 0.0
O885 O 0.86384 0.17395 0.678 0.0
O886 O 0.84686 0.12364 0.68519 0.0
O887 O 0.81298 0.12874 0.66416 0.0
O888 O 0.87883 0.21175 0.66131 0.0
O889 O 0.8095 0.15153 0.63896 0.0
C890 C 0.79 0.13823 0.69763 0.0
C891 C 0.85364 0.15654 0.75925 0.0
C892 C 0.85022 0.15641 0.79346 0.0
C893 C 0.84471 0.16557 0.77579 0.0
C894 C 0.86484 0.13797 0.79404 0.0
C895 C 0.86874 0.13882 0.76036 0.0
C896 C 0.87423 0.12957 0.77766 0.0
C897 C 0.85151 0.22212 0.69875 0.0
C898 C 0.84567 0.16452 0.74098 0.0
C899 C 0.92865 0.1055 0.71513 0.0
C900 C 0.95305 0.1365 0.71317 0.0
C901 C 0.88869 0.19746 0.67192 0.0
C902 C 0.82494 0.17927 0.61034 0.0
C903 C 0.83368 0.1701 0.59379 0.0
C904 C 0.82805 0.17917 0.57614 0.0
C905 C 0.81348 0.19765 0.57557 0.0
C906 C 0.80989 0.19704 0.60925 0.0
C907 C 0.80426 0.20618 0.59196 0.0
C908 C 0.82691 0.11356 0.67088 0.0
C909 C 0.83304 0.17137 0.62859 0.0
H910 H 0.83358 0.17976 0.77479 0.0
H911 H 0.86866 0.1295 0.80714 0.0
H912 H 0.87593 0.13178 0.74789 0.0
H913 H 0.8855 0.11549 0.77838 0.0
H914 H 0.84478 0.15587 0.59478 0.0
H915 H 0.80956 0.20605 0.56246 0.0
H916 H 0.80284 0.20419 0.62173 0.0
H917 H 0.79302 0.2203 0.59125 0.0
H918 H 0.2823 0.87313 0.08996 0.0
H919 H 0.29492 0.80071 0.06519 0.0
H920 H 0.32849 0.91197 0.07322 0.0
H921 H 0.33988 0.8397 0.0471 0.0
H922 H 0.4426 0.92251 0.0364 0.0
H923 H 0.39348 0.87931 0.04898 0.0
H924 H 0.34792 0.93496 0.04459 0.0
H925 H 0.39762 0.97843 0.03312 0.0
C926 C 0.29484 0.86536 0.08092 0.0
C927 C 0.28476 0.83356 0.07917 0.0
C928 C 0.32115 0.88777 0.07092 0.0
C929 C 0.33802 0.87921 0.05851 0.0
C930 C 0.32779 0.84737 0.05658 0.0
C931 C 0.30163 0.82489 0.06682 0.0
C932 C 0.42182 0.92514 0.03774 0.0
C933 C 0.42381 0.95375 0.03375 0.0
C934 C 0.39355 0.90036 0.04498 0.0
C935 C 0.36666 0.90367 0.04828 0.0
C936 C 0.36828 0.93172 0.04293 0.0
C937 C 0.39663 0.95656 0.03609 0.0
H938 H 0.13676 0.40928 0.09095 0.0
H939 H 0.20842 0.48947 0.06095 0.0
H940 H 0.09537 0.4162 0.07682 0.0
H941 H 0.16659 0.49505 0.04564 0.0
H942 H 0.08444 0.51683 0.03857 0.0
H943 H 0.12835 0.5107 0.05025 0.0
H944 H 0.06675 0.41086 0.04992 0.0
H945 H 0.02286 0.41738 0.03898 0.0
C946 C 0.14382 0.42842 0.0813 0.0
C947 C 0.17624 0.44897 0.07736 0.0
C948 C 0.11984 0.43209 0.07285 0.0
C949 C 0.12731 0.45617 0.05991 0.0
C950 C 0.15972 0.47644 0.05567 0.0
C951 C 0.1838 0.47295 0.0643 0.0
C952 C 0.08052 0.49362 0.04073 0.0
C953 C 0.05031 0.46754 0.03761 0.0
C954 C 0.10574 0.49001 0.04744 0.0
C955 C 0.10132 0.46022 0.05129 0.0
C956 C 0.07114 0.43422 0.04763 0.0
C957 C 0.04595 0.43788 0.04116 0.0
H958 H 0.60839 0.73688 0.08703 0.0
H959 H 0.50999 0.71228 0.08046 0.0
H960 H 0.59767 0.68938 0.071 0.0
H961 H 0.49869 0.66405 0.06509 0.0
H962 H 0.49416 0.59386 0.02332 0.0
H963 H 0.50654 0.6429 0.03762 0.0
H964 H 0.57223 0.63524 0.07505 0.0
H965 H 0.56142 0.58728 0.0599 0.0
C966 C 0.58437 0.72107 0.08228 0.0
C967 C 0.55999 0.72813 0.08498 0.0
C968 C 0.57814 0.69377 0.07318 0.0
C969 C 0.54725 0.67269 0.06679 0.0
C970 C 0.52288 0.67991 0.06951 0.0
C971 C 0.52925 0.70745 0.07839 0.0
C972 C 0.51172 0.60291 0.03433 0.0
C973 C 0.52719 0.58682 0.04019 0.0
C974 C 0.51847 0.63088 0.04277 0.0
C975 C 0.54045 0.64319 0.05752 0.0
C976 C 0.55567 0.62688 0.06349 0.0
C977 C 0.54925 0.59915 0.05488 0.0
H978 H 0.81789 0.25447 0.98083 0.0
H979 H 0.83762 0.29963 0.92685 0.0
H980 H 0.85577 0.30381 0.99512 0.0
H981 H 0.87705 0.34836 0.94122 0.0
H982 H 0.9715 0.41462 0.97546 0.0
H983 H 0.93241 0.36606 0.96063 0.0
H984 H 0.85919 0.3605 0.99741 0.0
H985 H 0.89759 0.40974 1.01161 0.0
C986 C 0.82996 0.27478 0.97196 0.0
C987 C 0.82432 0.27275 0.95258 0.0
C988 C 0.85192 0.30301 0.9802 0.0
C989 C 0.86935 0.32976 0.96924 0.0
C990 C 0.8641 0.32793 0.94993 0.0
C991 C 0.8416 0.29988 0.94172 0.0
C992 C 0.94709 0.40318 0.98041 0.0
C993 C 0.93793 0.41596 0.99506 0.0
C994 C 0.92473 0.3754 0.97186 0.0
C995 C 0.89292 0.35951 0.978 0.0
C996 C 0.88369 0.37215 0.99259 0.0
C997 C 0.90582 0.40027 1.00082 0.0
H998 H 0.75385 0.57775 0.98297 0.0
H999 H 0.69582 0.51812 0.93842 0.0
H1000 H 0.70566 0.57013 0.9991 0.0
H1001 H 0.64764 0.50994 0.95473 0.0
H1002 H 0.56708 0.48226 0.99877 0.0
H1003 H 0.61659 0.48613 0.98694 0.0
H1004 H 0.66286 0.58614 0.98947 0.0
H1005 H 0.61325 0.58225 1.00079 0.0
C1006 C 0.73078 0.56272 0.97675 0.0
C1007 C 0.72865 0.54864 0.95938 0.0
C1008 C 0.70322 0.55841 0.98595 0.0
C1009 C 0.67283 0.53931 0.97823 0.0
C1010 C 0.67066 0.52453 0.96113 0.0
C1011 C 0.69825 0.5294 0.95172 0.0
C1012 C 0.58801 0.505 0.99719 0.0
C1013 C 0.58644 0.53198 1.00096 0.0
C1014 C 0.61628 0.50724 0.99027 0.0
C1015 C 0.64365 0.53647 0.98726 0.0
C1016 C 0.64232 0.56332 0.99177 0.0
C1017 C 0.61394 0.56109 0.99824 0.0
H1018 H 0.40457 0.13567 0.94703 0.0
H1019 H 0.50131 0.20932 0.95592 0.0
H1020 H 0.41605 0.09934 0.96326 0.0
H1021 H 0.51343 0.17275 0.97159 0.0
H1022 H 0.51654 0.10578 0.01406 0.0
H1023 H 0.50466 0.14284 0.99903 0.0
H1024 H 0.44334 0.07194 0.95987 0.0
H1025 H 0.45353 0.03467 0.97553 0.0
C1026 C 0.42847 0.14393 0.95222 0.0
C1027 C 0.45209 0.17523 0.95013 0.0
C1028 C 0.43514 0.12311 0.96151 0.0
C1029 C 0.46577 0.13298 0.96871 0.0
C1030 C 0.48945 0.16437 0.96652 0.0
C1031 C 0.48262 0.18531 0.95743 0.0
C1032 C 0.5001 0.09798 1.00246 0.0
C1033 C 0.48564 0.06705 0.99625 0.0
C1034 C 0.49362 0.11938 0.99364 0.0
C1035 C 0.47288 0.11044 0.97824 0.0
C1036 C 0.45884 0.0796 0.97193 0.0
C1037 C 0.46495 0.05818 0.98087 0.0
H1038 H 0.71373 0.20081 0.97009 0.0
H1039 H 0.7262 0.12788 0.94599 0.0
H1040 H 0.66886 0.16226 0.98837 0.0
H1041 H 0.67999 0.08939 0.96293 0.0
H1042 H 0.61136 0.02398 1.00376 0.0
H1043 H 0.66087 0.06706 0.99177 0.0
H1044 H 0.61533 0.12269 0.98696 0.0
H1045 H 0.56643 0.07991 1.00005 0.0
C1046 C 0.70701 0.17661 0.96865 0.0
C1047 C 0.7239 0.16768 0.95647 0.0
C1048 C 0.68088 0.15436 0.979 0.0
C1049 C 0.67062 0.12249 0.97734 0.0
C1050 C 0.68739 0.11364 0.96504 0.0
C1051 C 0.7137 0.13583 0.95492 0.0
C1052 C 0.61233 0.04578 1.0006 0.0
C1053 C 0.58521 0.0487 1.00296 0.0
C1054 C 0.64056 0.07039 0.99344 0.0
C1055 C 0.64211 0.0983 0.98782 0.0
C1056 C 0.61531 0.10174 0.99115 0.0
C1057 C 0.58717 0.0772 0.99871 0.0
H1058 H 0.87407 0.59005 0.94357 0.0
H1059 H 0.80229 0.51174 0.97482 0.0
H1060 H 0.91529 0.58293 0.95777 0.0
H1061 H 0.84403 0.50589 0.9901 0.0
H1062 H 0.92609 0.48362 0.99742 0.0
H1063 H 0.88211 0.48957 0.98559 0.0
H1064 H 0.94387 0.58937 0.98503 0.0
H1065 H 0.98778 0.58305 0.9962 0.0
C1066 C 0.86695 0.57125 0.95349 0.0
C1067 C 0.83454 0.55134 0.95781 0.0
C1068 C 0.89083 0.56748 0.96196 0.0
C1069 C 0.88331 0.54391 0.97529 0.0
C1070 C 0.85091 0.52413 0.9798 0.0
C1071 C 0.8269 0.52776 0.97117 0.0
C1072 C 0.93003 0.5068 0.99505 0.0
C1073 C 0.9603 0.53293 0.99797 0.0
C1074 C 0.90478 0.51028 0.98824 0.0
C1075 C 0.90926 0.53999 0.98408 0.0
C1076 C 0.93946 0.56606 0.98757 0.0
C1077 C 0.96465 0.56252 0.99417 0.0
H1078 H 0.40187 0.26687 0.94966 0.0
H1079 H 0.49987 0.28994 0.956 0.0
H1080 H 0.41352 0.31467 0.96563 0.0
H1081 H 0.51206 0.33846 0.97136 0.0
H1082 H 0.51782 0.40946 0.01316 0.0
H1083 H 0.50479 0.36016 0.99889 0.0
H1084 H 0.43979 0.3688 0.96138 0.0
H1085 H 0.45126 0.41696 0.97643 0.0
C1086 C 0.426 0.28241 0.95433 0.0
C1087 C 0.44999 0.27481 0.95157 0.0
C1088 C 0.43277 0.30988 0.96342 0.0
C1089 C 0.4638 0.33062 0.96975 0.0
C1090 C 0.48778 0.32288 0.96698 0.0
C1091 C 0.48089 0.29517 0.9581 0.0
C1092 C 0.50031 0.40059 1.00211 0.0
C1093 C 0.48525 0.41704 0.99619 0.0
C1094 C 0.49316 0.37246 0.99371 0.0
C1095 C 0.47115 0.36033 0.97896 0.0
C1096 C 0.45636 0.377 0.97294 0.0
C1097 C 0.46318 0.40487 0.9815 0.0
H1098 H 0.2198 0.71462 0.0775 0.0
H1099 H 0.14467 0.73551 0.08723 0.0
H1100 H 0.18148 0.66493 0.06366 0.0
H1101 H 0.10648 0.68692 0.07237 0.0
H1102 H 0.03832 0.58582 0.06007 0.0
H1103 H 0.07676 0.63381 0.07512 0.0
H1104 H 0.15058 0.64013 0.03822 0.0
H1105 H 0.11272 0.5908 0.02443 0.0
C1106 C 0.19505 0.70861 0.07645 0.0
C1107 C 0.18511 0.72875 0.08348 0.0
C1108 C 0.17302 0.68021 0.06839 0.0
C1109 C 0.14059 0.67156 0.06677 0.0
C1110 C 0.13093 0.69214 0.07367 0.0
C1111 C 0.15285 0.72019 0.08209 0.0
C1112 C 0.06278 0.59739 0.05518 0.0
C1113 C 0.07217 0.58457 0.04072 0.0
C1114 C 0.08491 0.62524 0.06374 0.0
C1115 C 0.11702 0.64141 0.05788 0.0
C1116 C 0.12632 0.62844 0.04341 0.0
C1117 C 0.10433 0.60026 0.03516 0.0
H1118 H 0.31657 0.48674 0.09753 0.0
H1119 H 0.25878 0.42527 0.05354 0.0
H1120 H 0.36488 0.49504 0.08131 0.0
H1121 H 0.30706 0.43314 0.0375 0.0
H1122 H 0.39949 0.42201 0.03544 0.0
H1123 H 0.34994 0.41803 0.04691 0.0
H1124 H 0.39603 0.51804 0.04938 0.0
H1125 H 0.44551 0.52199 0.03745 0.0
C1126 C 0.31421 0.47508 0.08437 0.0
C1127 C 0.28382 0.45529 0.07685 0.0
C1128 C 0.34187 0.48003 0.07501 0.0
C1129 C 0.33981 0.4648 0.05809 0.0
C1130 C 0.30944 0.44519 0.0505 0.0
C1131 C 0.28181 0.44076 0.05966 0.0
C1132 C 0.39878 0.44315 0.03802 0.0
C1133 C 0.42622 0.47228 0.03525 0.0
C1134 C 0.37043 0.44088 0.04458 0.0
C1135 C 0.36906 0.4677 0.04911 0.0
C1136 C 0.39637 0.49695 0.04606 0.0
C1137 C 0.42462 0.49923 0.03906 0.0
H1138 H 0.508 0.79282 0.08025 0.0
H1139 H 0.60416 0.86686 0.09023 0.0
H1140 H 0.49593 0.82936 0.06451 0.0
H1141 H 0.59278 0.90318 0.07389 0.0
H1142 H 0.5549 0.9674 0.06138 0.0
H1143 H 0.56514 0.93017 0.07699 0.0
H1144 H 0.50505 0.85967 0.03728 0.0
H1145 H 0.49304 0.89669 0.02229 0.0
C1146 C 0.52658 0.81693 0.07896 0.0
C1147 C 0.55692 0.82712 0.08658 0.0
C1148 C 0.51978 0.83784 0.06983 0.0
C1149 C 0.54333 0.86934 0.0679 0.0
C1150 C 0.57378 0.87932 0.07543 0.0
C1151 C 0.5804 0.85852 0.08477 0.0
C1152 C 0.54373 0.94398 0.05591 0.0
C1153 C 0.5233 0.93521 0.0404 0.0
C1154 C 0.5499 0.92259 0.06482 0.0
C1155 C 0.53622 0.89187 0.05836 0.0
C1156 C 0.51579 0.88303 0.0428 0.0
C1157 C 0.50923 0.90441 0.03402 0.0
H1158 H 0.95151 0.20728 0.42378 0.0
H1159 H 0.96374 0.13441 0.39934 0.0
H1160 H 0.9977 0.24583 0.40686 0.0
H1161 H 0.00859 0.17304 0.38107 0.0
H1162 H 0.11109 0.25556 0.36948 0.0
H1163 H 0.06215 0.21258 0.38244 0.0
H1164 H 0.01663 0.26829 0.37807 0.0
H1165 H 0.06618 0.31154 0.36627 0.0
C1166 C 0.96396 0.19935 0.41477 0.0
C1167 C 0.9537 0.16751 0.41312 0.0
C1168 C 0.99025 0.22158 0.40467 0.0
C1169 C 0.00692 0.21277 0.39227 0.0
C1170 C 0.99663 0.1809 0.39052 0.0
C1171 C 0.97051 0.15862 0.40086 0.0
C1172 C 0.09033 0.25822 0.3709 0.0
C1173 C 0.0923 0.28679 0.36685 0.0
C1174 C 0.06218 0.23358 0.37837 0.0
C1175 C 0.03539 0.23701 0.3818 0.0
C1176 C 0.03694 0.26497 0.37633 0.0
C1177 C 0.06518 0.28968 0.36928 0.0
H1178 H 0.84574 0.81879 0.43169 0.0
H1179 H 0.83944 0.75806 0.38692 0.0
H1180 H 0.80505 0.82682 0.4165 0.0
H1181 H 0.79809 0.76548 0.37195 0.0
H1182 H 0.75178 0.85431 0.37281 0.0
H1183 H 0.79719 0.85 0.38417 0.0
H1184 H 0.73911 0.75003 0.38365 0.0
H1185 H 0.69355 0.75438 0.37271 0.0
C1186 C 0.83573 0.80728 0.41855 0.0
C1187 C 0.84576 0.78778 0.4105 0.0
C1188 C 0.81259 0.81201 0.40982 0.0
C1189 C 0.79839 0.79679 0.39303 0.0
C1190 C 0.80859 0.77748 0.38488 0.0
C1191 C 0.8323 0.77332 0.39341 0.0
C1192 C 0.74888 0.83145 0.37479 0.0
C1193 C 0.71926 0.80463 0.37151 0.0
C1194 C 0.7748 0.82898 0.38143 0.0
C1195 C 0.77174 0.79966 0.38472 0.0
C1196 C 0.7423 0.77291 0.38105 0.0
C1197 C 0.71624 0.77539 0.37484 0.0
H1198 H 0.17407 0.04413 0.41478 0.0
H1199 H 0.27109 0.06581 0.42379 0.0
H1200 H 0.1622 0.99539 0.3998 0.0
H1201 H 0.25993 0.01797 0.40812 0.0
H1202 H 0.22376 0.91703 0.39514 0.0
H1203 H 0.23353 0.96393 0.41119 0.0
H1204 H 0.17101 0.97451 0.37262 0.0
H1205 H 0.1595 0.92637 0.35743 0.0
C1206 C 0.19287 0.03846 0.41342 0.0
C1207 C 0.22341 0.05854 0.42051 0.0
C1208 C 0.18619 0.01067 0.40474 0.0
C1209 C 0.2101 0.00262 0.4027 0.0
C1210 C 0.24071 0.02295 0.40976 0.0
C1211 C 0.2472 0.05046 0.41868 0.0
C1212 C 0.21203 0.92929 0.39007 0.0
C1213 C 0.19119 0.91809 0.37477 0.0
C1214 C 0.21785 0.95642 0.39922 0.0
C1215 C 0.2033 0.97331 0.39316 0.0
C1216 C 0.18239 0.96203 0.37786 0.0
C1217 C 0.17618 0.9346 0.3689 0.0
H1218 H 0.53273 0.5991 0.28261 0.0
H1219 H 0.45827 0.62086 0.29254 0.0
H1220 H 0.5713 0.6476 0.29748 0.0
H1221 H 0.49691 0.67036 0.30637 0.0
H1222 H 0.56555 0.74378 0.34574 0.0
H1223 H 0.5277 0.69446 0.33196 0.0
H1224 H 0.60139 0.70082 0.29495 0.0
H1225 H 0.63985 0.74884 0.30997 0.0
C1226 C 0.52479 0.61459 0.28779 0.0
C1227 C 0.49258 0.60629 0.28649 0.0
C1228 C 0.54692 0.64256 0.29622 0.0
C1229 C 0.5375 0.66328 0.30322 0.0
C1230 C 0.50517 0.65493 0.30161 0.0
C1231 C 0.48295 0.62664 0.29354 0.0
C1232 C 0.57392 0.73436 0.33499 0.0
C1233 C 0.60604 0.75012 0.32934 0.0
C1234 C 0.55194 0.70617 0.32675 0.0
C1235 C 0.56118 0.69327 0.31221 0.0
C1236 C 0.59328 0.7094 0.30635 0.0
C1237 C 0.61542 0.73727 0.31489 0.0
H1238 H 0.42005 0.91092 0.31662 0.0
H1239 H 0.36291 0.85349 0.27109 0.0
H1240 H 0.37166 0.90328 0.33245 0.0
H1241 H 0.31447 0.84529 0.28713 0.0
H1242 H 0.23333 0.81605 0.33129 0.0
H1243 H 0.28276 0.82021 0.31913 0.0
H1244 H 0.32933 0.9201 0.32309 0.0
H1245 H 0.27978 0.91595 0.33474 0.0
C1246 C 0.39713 0.8964 0.31009 0.0
C1247 C 0.39534 0.88291 0.29256 0.0
C1248 C 0.36945 0.89208 0.31914 0.0
C1249 C 0.33923 0.87356 0.31109 0.0
C1250 C 0.33737 0.85944 0.29378 0.0
C1251 C 0.3651 0.86434 0.28453 0.0
C1252 C 0.25429 0.83882 0.32995 0.0
C1253 C 0.25282 0.8657 0.33423 0.0
C1254 C 0.28252 0.84122 0.32283 0.0
C1255 C 0.30995 0.8705 0.32012 0.0
C1256 C 0.30872 0.89723 0.32513 0.0
C1257 C 0.28037 0.89486 0.3318 0.0
H1258 H 0.16797 0.54165 0.28946 0.0
H1259 H 0.07001 0.46943 0.28251 0.0
H1260 H 0.17949 0.50504 0.30554 0.0
H1261 H 0.08101 0.43299 0.29913 0.0
H1262 H 0.11854 0.36748 0.31021 0.0
H1263 H 0.10744 0.40462 0.29518 0.0
H1264 H 0.1713 0.47593 0.33334 0.0
H1265 H 0.18394 0.43894 0.34778 0.0
C1266 C 0.14885 0.51796 0.29155 0.0
C1267 C 0.11815 0.50828 0.28466 0.0
C1268 C 0.15536 0.49701 0.30086 0.0
C1269 C 0.13122 0.46597 0.30365 0.0
C1270 C 0.10039 0.4565 0.29693 0.0
C1271 C 0.094 0.47736 0.28743 0.0
C1272 C 0.1303 0.39104 0.31548 0.0
C1273 C 0.15202 0.40008 0.33036 0.0
C1274 C 0.12365 0.41237 0.30691 0.0
C1275 C 0.13825 0.44332 0.31308 0.0
C1276 C 0.15984 0.45238 0.32807 0.0
C1277 C 0.16679 0.43104 0.33653 0.0
H1278 H 0.41801 0.50329 0.31485 0.0
H1279 H 0.35699 0.49904 0.26981 0.0
H1280 H 0.37117 0.4646 0.33233 0.0
H1281 H 0.31013 0.46098 0.28749 0.0
H1282 H 0.2801 0.35985 0.33494 0.0
H1283 H 0.3291 0.40467 0.32323 0.0
H1284 H 0.28143 0.4583 0.32092 0.0
H1285 H 0.23263 0.41368 0.33317 0.0
C1286 C 0.39454 0.49434 0.30882 0.0
C1287 C 0.39107 0.504 0.29096 0.0
C1288 C 0.36783 0.47227 0.3188 0.0
C1289 C 0.33709 0.46003 0.3113 0.0
C1290 C 0.33355 0.47033 0.29366 0.0
C1291 C 0.36031 0.49185 0.2835 0.0
C1292 C 0.28044 0.38154 0.33245 0.0
C1293 C 0.25278 0.38346 0.33521 0.0
C1294 C 0.30841 0.40712 0.32575 0.0
C1295 C 0.30895 0.43484 0.3211 0.0
C1296 C 0.28157 0.43714 0.32439 0.0
C1297 C 0.25377 0.41173 0.33155 0.0
H1298 H 0.50558 0.91237 0.31617 0.0
H1299 H 0.49995 0.85245 0.27107 0.0
H1300 H 0.54705 0.90503 0.33107 0.0
H1301 H 0.54073 0.84449 0.28618 0.0
H1302 H 0.59336 0.81633 0.33009 0.0
H1303 H 0.5481 0.82081 0.3186 0.0
H1304 H 0.60633 0.92075 0.31934 0.0
H1305 H 0.65175 0.91624 0.33038 0.0
C1306 C 0.51293 0.89734 0.30958 0.0
C1307 C 0.49961 0.88308 0.29242 0.0
C1308 C 0.53669 0.89322 0.31806 0.0
C1309 C 0.54707 0.87412 0.30981 0.0
C1310 C 0.53305 0.85914 0.29294 0.0
C1311 C 0.50987 0.86384 0.28424 0.0
C1312 C 0.59632 0.83922 0.32811 0.0
C1313 C 0.62594 0.86598 0.33148 0.0
C1314 C 0.57049 0.84178 0.32141 0.0
C1315 C 0.57364 0.87114 0.31815 0.0
C1316 C 0.60308 0.89784 0.3219 0.0
C1317 C 0.62906 0.89527 0.32817 0.0
H1318 H 0.13408 0.63786 0.25733 0.0
H1319 H 0.11116 0.59189 0.31108 0.0
H1320 H 0.1452 0.68629 0.27244 0.0
H1321 H 0.12373 0.64065 0.32608 0.0
H1322 H 0.18519 0.74341 0.34533 0.0
H1323 H 0.17419 0.69526 0.3301 0.0
H1324 H 0.11162 0.70491 0.29132 0.0
H1325 H 0.12167 0.75263 0.30687 0.0
C1326 C 0.13134 0.63797 0.27232 0.0
C1327 C 0.12173 0.61084 0.28295 0.0
C1328 C 0.13784 0.66576 0.28094 0.0
C1329 C 0.13536 0.66713 0.30039 0.0
C1330 C 0.12618 0.64026 0.31107 0.0
C1331 C 0.11918 0.61238 0.30245 0.0
C1332 C 0.16866 0.7351 0.33378 0.0
C1333 C 0.15387 0.75168 0.32759 0.0
C1334 C 0.16253 0.70759 0.325 0.0
C1335 C 0.14203 0.69642 0.30958 0.0
C1336 C 0.12767 0.71318 0.30313 0.0
C1337 C 0.13336 0.74042 0.31211 0.0
H1338 H 0.8396 0.03553 0.44239 0.0
H1339 H 0.85957 0.08131 0.38859 0.0
H1340 H 0.8001 0.98702 0.42784 0.0
H1341 H 0.82161 0.03219 0.37412 0.0
H1342 H 0.77965 0.92638 0.35722 0.0
H1343 H 0.81804 0.97552 0.37152 0.0
H1344 H 0.74486 0.96963 0.40847 0.0
H1345 H 0.70578 0.92118 0.39354 0.0
C1346 C 0.83565 0.03546 0.42752 0.0
C1347 C 0.85303 0.06269 0.41676 0.0
C1348 C 0.81312 0.00754 0.41921 0.0
C1349 C 0.80792 0.00595 0.39989 0.0
C1350 C 0.82542 0.03281 0.38904 0.0
C1351 C 0.84742 0.06091 0.39738 0.0
C1352 C 0.77142 0.93577 0.36806 0.0
C1353 C 0.73933 0.92 0.37387 0.0
C1354 C 0.79354 0.96383 0.37636 0.0
C1355 C 0.78433 0.97633 0.39103 0.0
C1356 C 0.75252 0.96039 0.39717 0.0
C1357 C 0.73017 0.93268 0.38857 0.0
H1358 H 0.95733 0.8255 0.39478 0.0
H1359 H 0.94834 0.74507 0.42361 0.0
H1360 H 0.00447 0.83166 0.37848 0.0
H1361 H 0.99625 0.75235 0.40831 0.0
H1362 H 0.06645 0.75262 0.36822 0.0
H1363 H 0.01654 0.74684 0.37993 0.0
H1364 H 0.05942 0.84681 0.38188 0.0
H1365 H 0.10911 0.85231 0.36947 0.0
C1366 C 0.96528 0.80908 0.39767 0.0
C1367 C 0.94872 0.78474 0.41063 0.0
C1368 C 0.99268 0.81287 0.38845 0.0
C1369 C 0.0044 0.79247 0.39189 0.0
C1370 C 0.98786 0.76827 0.40491 0.0
C1371 C 0.96048 0.76439 0.41401 0.0
C1372 C 0.06496 0.77334 0.37082 0.0
C1373 C 0.09161 0.80286 0.36775 0.0
C1374 C 0.03643 0.77009 0.37777 0.0
C1375 C 0.03384 0.79632 0.38231 0.0
C1376 C 0.06024 0.82599 0.37851 0.0
C1377 C 0.08883 0.82922 0.37135 0.0
H1378 H 0.27455 0.19934 0.41984 0.0
H1379 H 0.17665 0.12713 0.41266 0.0
H1380 H 0.26373 0.23577 0.40309 0.0
H1381 H 0.16527 0.16377 0.3965 0.0
H1382 H 0.16085 0.23023 0.35457 0.0
H1383 H 0.17336 0.1931 0.36888 0.0
H1384 H 0.2375 0.2642 0.40707 0.0
H1385 H 0.22658 0.30151 0.39211 0.0
C1386 C 0.25061 0.1914 0.41482 0.0
C1387 C 0.22641 0.16051 0.4176 0.0
C1388 C 0.24432 0.21226 0.40526 0.0
C1389 C 0.21353 0.20284 0.3985 0.0
C1390 C 0.18936 0.17178 0.40123 0.0
C1391 C 0.1958 0.15081 0.41058 0.0
C1392 C 0.17804 0.23806 0.36579 0.0
C1393 C 0.19296 0.26902 0.37198 0.0
C1394 C 0.18492 0.21663 0.37419 0.0
C1395 C 0.20656 0.22558 0.38914 0.0
C1396 C 0.22126 0.25652 0.39535 0.0
C1397 C 0.21471 0.27795 0.38683 0.0
H1398 H 0.62965 0.46774 0.73261 0.0
H1399 H 0.61937 0.5413 0.75774 0.0
H1400 H 0.67505 0.5062 0.71453 0.0
H1401 H 0.66586 0.57955 0.74087 0.0
H1402 H 0.73238 0.64416 0.69894 0.0
H1403 H 0.68329 0.60115 0.7114 0.0
H1404 H 0.72929 0.54595 0.71602 0.0
H1405 H 0.77791 0.58875 0.70257 0.0
C1406 C 0.63703 0.49207 0.73436 0.0
C1407 C 0.62054 0.50121 0.74671 0.0
C1408 C 0.66339 0.51421 0.7241 0.0
C1409 C 0.67416 0.54615 0.72599 0.0
C1410 C 0.65799 0.55523 0.7386 0.0
C1411 C 0.63153 0.53317 0.74866 0.0
C1412 C 0.73162 0.62248 0.70216 0.0
C1413 C 0.75881 0.61972 0.69969 0.0
C1414 C 0.70364 0.59792 0.70957 0.0
C1415 C 0.70239 0.5702 0.71529 0.0
C1416 C 0.72917 0.56681 0.71179 0.0
C1417 C 0.75711 0.59134 0.70402 0.0
H1418 H 0.51206 0.15149 0.76581 0.0
H1419 H 0.50629 0.09125 0.72086 0.0
H1420 H 0.47133 0.15945 0.75058 0.0
H1421 H 0.46501 0.09865 0.70585 0.0
H1422 H 0.36061 0.08712 0.70587 0.0
H1423 H 0.40601 0.08292 0.71722 0.0
H1424 H 0.46367 0.18291 0.71819 0.0
H1425 H 0.41837 0.18708 0.70639 0.0
C1426 C 0.50214 0.14003 0.75265 0.0
C1427 C 0.51237 0.12072 0.74454 0.0
C1428 C 0.479 0.14475 0.74388 0.0
C1429 C 0.465 0.1297 0.72701 0.0
C1430 C 0.47535 0.11053 0.71884 0.0
C1431 C 0.49903 0.10638 0.7274 0.0
C1432 C 0.38317 0.10817 0.70819 0.0
C1433 C 0.38611 0.13738 0.70486 0.0
C1434 C 0.40915 0.10578 0.71465 0.0
C1435 C 0.43842 0.13257 0.71858 0.0
C1436 C 0.44141 0.16186 0.71528 0.0
C1437 C 0.41556 0.16425 0.70838 0.0
H1438 H 0.8829 0.36675 0.77786 0.0
H1439 H 0.89997 0.41174 0.72397 0.0
H1440 H 0.87132 0.31838 0.76258 0.0
H1441 H 0.88701 0.3629 0.7088 0.0
H1442 H 0.82553 0.25883 0.69093 0.0
H1443 H 0.83742 0.30759 0.70577 0.0
H1444 H 0.90363 0.30022 0.7427 0.0
H1445 H 0.89265 0.25197 0.72754 0.0
C1446 C 0.88434 0.36645 0.76279 0.0
C1447 C 0.89253 0.3933 0.75219 0.0
C1448 C 0.87755 0.33868 0.75407 0.0
C1449 C 0.87831 0.33698 0.73454 0.0
C1450 C 0.88596 0.36355 0.72388 0.0
C1451 C 0.89322 0.39147 0.7326 0.0
C1452 C 0.84305 0.2678 0.70197 0.0
C1453 C 0.85852 0.25167 0.70779 0.0
C1454 C 0.84971 0.29567 0.71052 0.0
C1455 C 0.87146 0.30763 0.72533 0.0
C1456 C 0.88661 0.29137 0.73136 0.0
C1457 C 0.88036 0.26378 0.72261 0.0
H1458 H 0.17434 0.96538 0.59419 0.0
H1459 H 0.15391 0.92061 0.64831 0.0
H1460 H 0.21386 0.01411 0.6085 0.0
H1461 H 0.19196 0.96995 0.66253 0.0
H1462 H 0.2328 0.07548 0.67897 0.0
H1463 H 0.19507 0.02595 0.66483 0.0
H1464 H 0.26881 0.03298 0.62792 0.0
H1465 H 0.30725 0.08192 0.64268 0.0
C1466 C 0.17824 0.96569 0.60907 0.0
C1467 C 0.16065 0.93871 0.62001 0.0
C1468 C 0.2008 0.99375 0.61725 0.0
C1469 C 0.20584 0.99574 0.63659 0.0
C1470 C 0.18827 0.96906 0.64759 0.0
C1471 C 0.16624 0.94083 0.6394 0.0
C1472 C 0.24131 0.06627 0.66818 0.0
C1473 C 0.27338 0.08249 0.66235 0.0
C1474 C 0.21956 0.03796 0.65997 0.0
C1475 C 0.2291 0.02563 0.64536 0.0
C1476 C 0.26088 0.04205 0.63917 0.0
C1477 C 0.28287 0.07003 0.64768 0.0
H1478 H 0.06284 0.25662 0.61189 0.0
H1479 H 0.05472 0.17735 0.64171 0.0
H1480 H 0.01504 0.2496 0.6272 0.0
H1481 H 0.0076 0.17142 0.65798 0.0
H1482 H 0.9026 0.15036 0.66654 0.0
H1483 H 0.95241 0.15581 0.65436 0.0
H1484 H 0.99492 0.25578 0.65552 0.0
H1485 H 0.94492 0.25004 0.66702 0.0
C1486 C 0.05092 0.23763 0.62173 0.0
C1487 C 0.06285 0.21749 0.62537 0.0
C1488 C 0.0236 0.23389 0.63082 0.0
C1489 C 0.00729 0.21006 0.64407 0.0
C1490 C 0.01923 0.18992 0.64781 0.0
C1491 C 0.04659 0.19358 0.63861 0.0
C1492 C 0.92283 0.17345 0.66454 0.0
C1493 C 0.91993 0.19981 0.66786 0.0
C1494 C 0.95148 0.17664 0.65751 0.0
C1495 C 0.97782 0.20629 0.65356 0.0
C1496 C 0.9751 0.23254 0.65781 0.0
C1497 C 0.9465 0.22932 0.66463 0.0
H1498 H 0.73819 0.80158 0.61352 0.0
H1499 H 0.83473 0.87553 0.6226 0.0
H1500 H 0.74991 0.76531 0.62963 0.0
H1501 H 0.84705 0.83904 0.6382 0.0
H1502 H 0.85025 0.77193 0.68053 0.0
H1503 H 0.83804 0.80887 0.66565 0.0
H1504 H 0.77777 0.73834 0.62601 0.0
H1505 H 0.78836 0.70118 0.64148 0.0
C1506 C 0.76209 0.80993 0.61874 0.0
C1507 C 0.7856 0.8413 0.61673 0.0
C1508 C 0.76889 0.78915 0.62796 0.0
C1509 C 0.79952 0.79913 0.63518 0.0
C1510 C 0.82308 0.83059 0.6331 0.0
C1511 C 0.81612 0.85148 0.62406 0.0
C1512 C 0.834 0.76418 0.66884 0.0
C1513 C 0.82 0.73339 0.66242 0.0
C1514 C 0.82731 0.78551 0.66012 0.0
C1515 C 0.80678 0.77664 0.64462 0.0
C1516 C 0.79313 0.74593 0.63813 0.0
C1517 C 0.79948 0.72458 0.64696 0.0
H1518 H 0.08503 0.83585 0.64817 0.0
H1519 H 0.02423 0.831 0.60284 0.0
H1520 H 0.03814 0.79739 0.66568 0.0
H1521 H 0.97729 0.79312 0.62054 0.0
H1522 H 0.89942 0.74615 0.66602 0.0
H1523 H 0.94814 0.79058 0.65354 0.0
H1524 H 0.99638 0.73759 0.65721 0.0
H1525 H 0.94748 0.69296 0.66916 0.0
C1526 C 0.06159 0.8268 0.64207 0.0
C1527 C 0.05822 0.83625 0.62412 0.0
C1528 C 0.03484 0.80485 0.65207 0.0
C1529 C 1.00413 0.79249 0.64451 0.0
C1530 C 1.00068 0.80256 0.62677 0.0
C1531 C 0.02749 0.82398 0.61659 0.0
C1532 C 0.92066 0.74431 0.66465 0.0
C1533 C 0.91986 0.71626 0.66877 0.0
C1534 C 0.94842 0.76961 0.65735 0.0
C1535 C 0.97595 0.76744 0.65437 0.0
C1536 C 0.97558 0.73996 0.65948 0.0
C1537 C 0.94767 0.71448 0.66632 0.0
H1538 H 0.16608 0.18364 0.60393 0.0
H1539 H 0.17214 0.24452 0.64855 0.0
H1540 H 0.20678 0.17576 0.61924 0.0
H1541 H 0.21347 0.23722 0.66365 0.0
H1542 H 0.31778 0.24826 0.66365 0.0
H1543 H 0.2724 0.25258 0.65237 0.0
H1544 H 0.21449 0.15261 0.65154 0.0
H1545 H 0.25975 0.14832 0.66325 0.0
C1546 C 0.17606 0.19525 0.61704 0.0
C1547 C 0.16594 0.21473 0.62502 0.0
C1548 C 0.1992 0.19059 0.62585 0.0
C1549 C 0.2133 0.20585 0.64265 0.0
C1550 C 0.20305 0.22519 0.65071 0.0
C1551 C 0.17936 0.22928 0.6421 0.0
C1552 C 0.29517 0.22723 0.66137 0.0
C1553 C 0.29216 0.198 0.6647 0.0
C1554 C 0.26919 0.2297 0.65496 0.0
C1555 C 0.23986 0.20295 0.6511 0.0
C1556 C 0.2368 0.17363 0.6544 0.0
C1557 C 0.26263 0.17117 0.66124 0.0
H1558 H 0.73555 0.93308 0.61624 0.0
H1559 H 0.83368 0.95627 0.62195 0.0
H1560 H 0.74756 0.98124 0.63188 0.0
H1561 H 0.84624 0.00515 0.63696 0.0
H1562 H 0.85262 0.07659 0.67865 0.0
H1563 H 0.83959 0.02731 0.66441 0.0
H1564 H 0.77367 0.03531 0.62736 0.0
H1565 H 0.78515 0.0835 0.64243 0.0
C1566 C 0.75979 0.94872 0.6207 0.0
C1567 C 0.78371 0.94104 0.61788 0.0
C1568 C 0.76676 0.97641 0.62959 0.0
C1569 C 0.79794 0.99728 0.63564 0.0
C1570 C 0.82186 0.98947 0.6328 0.0
C1571 C 0.81475 0.96155 0.62412 0.0
C1572 C 0.8349 0.06758 0.66772 0.0
C1573 C 0.81951 0.0838 0.66198 0.0
C1574 C 0.82777 0.03947 0.65932 0.0
C1575 C 0.80546 0.02713 0.64473 0.0
C1576 C 0.79045 0.04366 0.63881 0.0
C1577 C 0.79727 0.07154 0.64738 0.0
H1578 H 0.47744 0.40639 0.75066 0.0
H1579 H 0.552 0.38398 0.74322 0.0
H1580 H 0.43935 0.35751 0.73595 0.0
H1581 H 0.51381 0.3342 0.7295 0.0
H1582 H 0.44597 0.25901 0.69078 0.0
H1583 H 0.48351 0.30906 0.70383 0.0
H1584 H 0.4093 0.30424 0.73976 0.0
H1585 H 0.3711 0.25529 0.72543 0.0
C1586 C 0.48554 0.39077 0.74599 0.0
C1587 C 0.51762 0.39894 0.74801 0.0
C1588 C 0.46368 0.36257 0.73768 0.0
C1589 C 0.47322 0.34152 0.73151 0.0
C1590 C 0.50548 0.34987 0.73366 0.0
C1591 C 0.52744 0.37835 0.74163 0.0
C1592 C 0.43741 0.26889 0.70113 0.0
C1593 C 0.40522 0.25328 0.70667 0.0
C1594 C 0.45921 0.29752 0.70895 0.0
C1595 C 0.44971 0.31107 0.72295 0.0
C1596 C 0.41756 0.29511 0.72874 0.0
C1597 C 0.3956 0.26674 0.72062 0.0
H1598 H 0.61418 0.07677 0.75621 0.0
H1599 H 0.62339 0.15742 0.72755 0.0
H1600 H 0.66218 0.08414 0.74103 0.0
H1601 H 0.67064 0.16365 0.71131 0.0
H1602 H 0.77567 0.18498 0.70317 0.0
H1603 H 0.72549 0.17902 0.71504 0.0
H1604 H 0.6834 0.07912 0.71301 0.0
H1605 H 0.73382 0.08538 0.70191 0.0
C1606 C 0.62636 0.09612 0.74664 0.0
C1607 C 0.61472 0.11659 0.74333 0.0
C1608 C 0.6538 0.10006 0.7376 0.0
C1609 C 0.6705 0.1244 0.72471 0.0
C1610 C 0.65875 0.14478 0.72122 0.0
C1611 C 0.63129 0.14094 0.7304 0.0
C1612 C 0.75546 0.16181 0.70493 0.0
C1613 C 0.7586 0.13561 0.7015 0.0
C1614 C 0.72659 0.15832 0.71177 0.0
C1615 C 0.70023 0.12853 0.71538 0.0
C1616 C 0.70321 0.10245 0.71099 0.0
C1617 C 0.73205 0.10597 0.7044 0.0
H1618 H 0.84302 0.46039 0.74744 0.0
H1619 H 0.94015 0.53368 0.75569 0.0
H1620 H 0.83102 0.497 0.73173 0.0
H1621 H 0.92869 0.57007 0.73949 0.0
H1622 H 0.89104 0.6349 0.72735 0.0
H1623 H 0.9014 0.5977 0.74305 0.0
H1624 H 0.83995 0.52661 0.70403 0.0
H1625 H 0.82805 0.56359 0.68892 0.0
C1626 C 0.86183 0.48432 0.74577 0.0
C1627 C 0.89245 0.49428 0.75289 0.0
C1628 C 0.85504 0.50528 0.73668 0.0
C1629 C 0.87885 0.53659 0.73432 0.0
C1630 C 0.90954 0.54636 0.74136 0.0
C1631 C 0.91619 0.52551 0.75063 0.0
C1632 C 0.87967 0.61136 0.72205 0.0
C1633 C 0.85896 0.60241 0.70667 0.0
C1634 C 0.88585 0.59 0.73101 0.0
C1635 C 0.87178 0.55912 0.72476 0.0
C1636 C 0.85101 0.5501 0.70937 0.0
C1637 C 0.84451 0.57146 0.70051 0.0
H1638 H 0.42026 0.88722 0.22355 0.0
H1639 H 0.51444 0.95466 0.2423 0.0
H1640 H 0.43355 0.90958 0.19214 0.0
H1641 H 0.52741 0.97791 0.21143 0.0
H1642 H 0.55585 0.00077 0.15178 0.0
H1643 H 0.54046 0.97304 0.18139 0.0
H1644 H 0.44299 0.95059 0.17222 0.0
H1645 H 0.45856 0.97708 0.14196 0.0
C1646 C 0.44373 0.907 0.22099 0.0
C1647 C 0.46638 0.91891 0.23543 0.0
C1648 C 0.45139 0.91999 0.20295 0.0
C1649 C 0.4818 0.94558 0.1989 0.0
C1650 C 0.5041 0.95773 0.21358 0.0
C1651 C 0.4966 0.94448 0.23145 0.0
C1652 C 0.53106 0.98952 0.15602 0.0
C1653 C 0.50845 0.99115 0.14455 0.0
C1654 C 0.52217 0.97386 0.17317 0.0
C1655 C 0.49044 0.95987 0.17967 0.0
C1656 C 0.46759 0.96072 0.16783 0.0
C1657 C 0.47647 0.97598 0.15044 0.0
H1658 H 0.10985 0.57452 0.21561 0.0
H1659 H 0.02982 0.49452 0.24059 0.0
H1660 H 0.08295 0.56132 0.18551 0.0
H1661 H 1.00163 0.48217 0.21089 0.0
H1662 H 0.96856 0.45104 0.15188 0.0
H1663 H 0.99763 0.46298 0.18126 0.0
H1664 H 0.04302 0.56115 0.16819 0.0
H1665 H 0.01542 0.54862 0.13831 0.0
C1666 C 0.08627 0.55424 0.2146 0.0
C1667 C 0.07185 0.53547 0.2303 0.0
C1668 C 0.07065 0.54674 0.1974 0.0
C1669 C 0.03986 0.52067 0.1956 0.0
C1670 C 0.02549 0.50203 0.21149 0.0
C1671 C 0.04148 0.50917 0.22858 0.0
C1672 C 0.98491 0.47511 0.15537 0.0
C1673 C 0.98988 0.49894 0.14293 0.0
C1674 C 1.00143 0.48207 0.17227 0.0
C1675 C 0.02276 0.51313 0.17732 0.0
C1676 C 0.02743 0.53693 0.16476 0.0
C1677 C 0.01144 0.52986 0.14767 0.0
H1678 H 0.46439 0.57378 0.2196 0.0
H1679 H 0.45413 0.48833 0.24137 0.0
H1680 H 0.47594 0.56124 0.18871 0.0
H1681 H 0.46764 0.47642 0.21092 0.0
H1682 H 0.4705 0.44902 0.15168 0.0
H1683 H 0.45273 0.46044 0.18091 0.0
H1684 H 0.51351 0.55889 0.17035 0.0
H1685 H 0.52931 0.54699 0.14052 0.0
C1686 C 0.46482 0.55236 0.21774 0.0
C1687 C 0.45827 0.53197 0.23284 0.0
C1688 C 0.47172 0.54521 0.20004 0.0
C1689 C 0.47296 0.51776 0.19707 0.0
C1690 C 0.46629 0.49741 0.21233 0.0
C1691 C 0.45872 0.50428 0.2299 0.0
C1692 C 0.47969 0.47307 0.1556 0.0
C1693 C 0.50122 0.49713 0.14389 0.0
C1694 C 0.4698 0.47972 0.17248 0.0
C1695 C 0.48184 0.51069 0.17836 0.0
C1696 C 0.50315 0.53476 0.16636 0.0
C1697 C 0.51244 0.52803 0.14926 0.0
H1698 H 0.98154 0.46088 0.79481 0.0
H1699 H 0.90983 0.47667 0.81981 0.0
H1700 H 0.00984 0.47257 0.82443 0.0
H1701 H 0.93709 0.48692 0.84978 0.0
H1702 H 0.00759 0.52949 0.89755 0.0
H1703 H 0.98148 0.52145 0.86732 0.0
H1704 H 0.00705 0.45178 0.85395 0.0
H1705 H 0.0343 0.46107 0.88377 0.0
C1706 C 0.97178 0.46668 0.80675 0.0
C1707 C 0.94354 0.46785 0.80509 0.0
C1708 C 0.98783 0.47318 0.82378 0.0
C1709 C 0.97571 0.48047 0.83967 0.0
C1710 C 0.94751 0.4819 0.83787 0.0
C1711 C 0.93175 0.47589 0.82072 0.0
C1712 C 0.00757 0.51251 0.88808 0.0
C1713 C 0.02306 0.49601 0.89292 0.0
C1714 C 0.99248 0.50774 0.87078 0.0
C1715 C 0.99211 0.48597 0.85805 0.0
C1716 C 0.00741 0.46927 0.86311 0.0
C1717 C 0.0229 0.47441 0.88025 0.0
H1718 H 0.59056 0.4797 0.81605 0.0
H1719 H 0.5011 0.46368 0.79357 0.0
H1720 H 0.57489 0.48831 0.84696 0.0
H1721 H 0.48591 0.47375 0.82399 0.0
H1722 H 0.4508 0.46191 0.88288 0.0
H1723 H 0.4684 0.45217 0.85315 0.0
H1724 H 0.56574 0.52073 0.86657 0.0
H1725 H 0.5479 0.52909 0.89685 0.0
C1726 C 0.56772 0.47847 0.81771 0.0
C1727 C 0.54693 0.47078 0.80247 0.0
C1728 C 0.55872 0.48351 0.83541 0.0
C1729 C 0.52887 0.48144 0.83821 0.0
C1730 C 0.50863 0.47466 0.82268 0.0
C1731 C 0.51741 0.46913 0.80514 0.0
C1732 C 0.47598 0.47476 0.87947 0.0
C1733 C 0.49795 0.49637 0.89212 0.0
C1734 C 0.48614 0.46941 0.86232 0.0
C1735 C 0.51856 0.48601 0.85711 0.0
C1736 C 0.54065 0.50723 0.87002 0.0
C1737 C 0.53047 0.51216 0.88738 0.0
H1738 H 0.52881 0.11429 0.81212 0.0
H1739 H 0.56135 0.05102 0.79614 0.0
H1740 H 0.51746 0.09217 0.84355 0.0
H1741 H 0.54979 0.02876 0.82736 0.0
H1742 H 0.55036 0.00949 0.88889 0.0
H1743 H 0.56576 0.03725 0.85904 0.0
H1744 H 0.48186 0.04681 0.86098 0.0
H1745 H 0.46725 0.01973 0.89109 0.0
C1746 C 0.53342 0.09556 0.81525 0.0
C1747 C 0.54615 0.08461 0.80149 0.0
C1748 C 0.52687 0.08281 0.83333 0.0
C1749 C 0.53276 0.05862 0.8382 0.0
C1750 C 0.54554 0.04776 0.8244 0.0
C1751 C 0.55215 0.06055 0.80639 0.0
C1752 C 0.53565 0.01813 0.88304 0.0
C1753 C 0.50786 0.01284 0.89235 0.0
C1754 C 0.5442 0.03372 0.86581 0.0
C1755 C 0.52497 0.04419 0.85734 0.0
C1756 C 0.49754 0.03952 0.86704 0.0
C1757 C 0.48907 0.02398 0.8843 0.0
H1758 H 0.10903 0.27665 0.57002 0.0
H1759 H 0.15707 0.22481 0.55862 0.0
H1760 H 0.12137 0.29806 0.53853 0.0
H1761 H 0.17071 0.24769 0.52748 0.0
H1762 H 0.22379 0.33141 0.48518 0.0
H1763 H 0.20655 0.30303 0.51476 0.0
H1764 H 0.10998 0.28127 0.5038 0.0
H1765 H 0.12729 0.3093 0.4739 0.0
C1766 C 0.12184 0.26939 0.56084 0.0
C1767 C 0.13201 0.24884 0.56719 0.0
C1768 C 0.12904 0.28188 0.54273 0.0
C1769 C 0.14711 0.27469 0.53047 0.0
C1770 C 0.15703 0.25398 0.53663 0.0
C1771 C 0.14935 0.24102 0.55463 0.0
C1772 C 0.1988 0.32018 0.48897 0.0
C1773 C 0.17689 0.32252 0.4772 0.0
C1774 C 0.1889 0.30385 0.5059 0.0
C1775 C 0.1569 0.28994 0.51171 0.0
C1776 C 0.13483 0.29186 0.49979 0.0
C1777 C 0.14466 0.30768 0.48262 0.0
H1778 H 0.76822 0.85909 0.54984 0.0
H1779 H 0.69616 0.87445 0.57476 0.0
H1780 H 0.74121 0.84908 0.51979 0.0
H1781 H 0.66812 0.863 0.54507 0.0
H1782 H 0.64398 0.87497 0.48579 0.0
H1783 H 0.67113 0.88408 0.51563 0.0
H1784 H 0.697 0.8147 0.50207 0.0
H1785 H 0.67099 0.80683 0.47181 0.0
C1786 C 0.74628 0.85982 0.5489 0.0
C1787 C 0.73432 0.86768 0.56454 0.0
C1788 C 0.73067 0.85396 0.53171 0.0
C1789 C 0.70245 0.85535 0.52986 0.0
C1790 C 0.69015 0.86244 0.54575 0.0
C1791 C 0.70606 0.8688 0.56282 0.0
C1792 C 0.65543 0.86165 0.48927 0.0
C1793 C 0.65536 0.84017 0.47655 0.0
C1794 C 0.67087 0.8667 0.50643 0.0
C1795 C 0.68619 0.85 0.51144 0.0
C1796 C 0.68596 0.82838 0.49865 0.0
C1797 C 0.67092 0.82371 0.48134 0.0
H1798 H 0.12058 0.82017 0.57447 0.0
H1799 H 0.13212 0.9062 0.55284 0.0
H1800 H 0.13374 0.80805 0.54399 0.0
H1801 H 0.14334 0.89347 0.52192 0.0
H1802 H 0.19555 0.87816 0.47348 0.0
H1803 H 0.18036 0.89045 0.50339 0.0
H1804 H 0.11848 0.79219 0.51401 0.0
H1805 H 0.13563 0.78035 0.4847 0.0
C1806 C 0.12539 0.83621 0.56303 0.0
C1807 C 0.12537 0.86411 0.56602 0.0
C1808 C 0.13275 0.82922 0.54544 0.0
C1809 C 0.13965 0.84966 0.5302 0.0
C1810 C 0.13891 0.87735 0.53323 0.0
C1811 C 0.13221 0.88461 0.55094 0.0
C1812 C 0.17858 0.85933 0.48225 0.0
C1813 C 0.16686 0.82835 0.47687 0.0
C1814 C 0.16964 0.86628 0.4994 0.0
C1815 C 0.1482 0.84238 0.51144 0.0
C1816 C 0.13567 0.81135 0.50556 0.0
C1817 C 0.1452 0.80446 0.48863 0.0
H1818 H 0.63334 0.84901 0.13557 0.0
H1819 H 0.58141 0.75116 0.1496 0.0
H1820 H 0.66045 0.86016 0.16567 0.0
H1821 H 0.60975 0.7624 0.17915 0.0
H1822 H 0.69848 0.79456 0.21744 0.0
H1823 H 0.6699 0.78465 0.18784 0.0
H1824 H 0.64435 0.85401 0.20149 0.0
H1825 H 0.67266 0.86367 0.23129 0.0
C1826 C 0.62746 0.8299 0.14505 0.0
C1827 C 0.60526 0.79911 0.14 0.0
C1828 C 0.64314 0.83633 0.16225 0.0
C1829 C 0.63733 0.8121 0.17462 0.0
C1830 C 0.61498 0.78144 0.16973 0.0
C1831 C 0.59892 0.77505 0.15272 0.0
C1832 C 0.68686 0.80776 0.21406 0.0
C1833 C 0.68775 0.82988 0.22659 0.0
C1834 C 0.67039 0.80197 0.19722 0.0
C1835 C 0.65494 0.81856 0.19244 0.0
C1836 C 0.6562 0.84103 0.20484 0.0
C1837 C 0.6722 0.84641 0.22187 0.0
H1838 H 0.21258 0.76217 0.15089 0.0
H1839 H 0.21785 0.84492 0.12788 0.0
H1840 H 0.19859 0.77425 0.18152 0.0
H1841 H 0.20302 0.85649 0.15832 0.0
H1842 H 0.13138 0.83455 0.20835 0.0
H1843 H 0.14838 0.82315 0.1789 0.0
H1844 H 0.22768 0.82367 0.20641 0.0
H1845 H 0.21217 0.83721 0.23587 0.0
C1846 C 0.2108 0.78294 0.15243 0.0
C1847 C 0.21632 0.80266 0.13706 0.0
C1848 C 0.20294 0.78988 0.16992 0.0
C1849 C 0.19967 0.81624 0.17222 0.0
C1850 C 0.2053 0.83598 0.15687 0.0
C1851 C 0.2139 0.82945 0.13952 0.0
C1852 C 0.15281 0.83287 0.20823 0.0
C1853 C 0.17056 0.83735 0.22467 0.0
C1854 C 0.16235 0.82606 0.19131 0.0
C1855 C 0.18941 0.82273 0.19039 0.0
C1856 C 0.20664 0.82605 0.20679 0.0
C1857 C 0.19753 0.83358 0.2237 0.0
H1858 H 0.18959 0.44391 0.14391 0.0
H1859 H 0.2409 0.39516 0.13279 0.0
H1860 H 0.17619 0.42088 0.17498 0.0
H1861 H 0.22863 0.37343 0.16428 0.0
H1862 H 0.22001 0.36066 0.22905 0.0
H1863 H 0.23797 0.3891 0.1993 0.0
H1864 H 0.14119 0.36523 0.18695 0.0
H1865 H 0.12334 0.33652 0.21637 0.0
C1866 C 0.19808 0.42833 0.14797 0.0
C1867 C 0.21606 0.42123 0.13547 0.0
C1868 C 0.19053 0.41529 0.16592 0.0
C1869 C 0.20121 0.3952 0.17212 0.0
C1870 C 0.22025 0.38903 0.16001 0.0
C1871 C 0.22739 0.40167 0.14191 0.0
C1872 C 0.20272 0.36187 0.22005 0.0
C1873 C 0.17027 0.34638 0.22505 0.0
C1874 C 0.21294 0.37793 0.20297 0.0
C1875 C 0.19101 0.37943 0.19072 0.0
C1876 C 0.15875 0.36476 0.19608 0.0
C1877 C 0.14849 0.34823 0.21291 0.0
H1878 H 0.84783 0.60959 0.90304 0.0
H1879 H 0.74629 0.56063 0.89256 0.0
H1880 H 0.85747 0.6306 0.87153 0.0
H1881 H 0.75629 0.58347 0.86137 0.0
H1882 H 0.79439 0.66904 0.81884 0.0
H1883 H 0.78072 0.64043 0.84846 0.0
H1884 H 0.84913 0.61111 0.83682 0.0
H1885 H 0.86217 0.63918 0.8069 0.0
C1886 C 0.82745 0.60284 0.89408 0.0
C1887 C 0.79614 0.58304 0.90067 0.0
C1888 C 0.83311 0.61516 0.87595 0.0
C1889 C 0.80769 0.6087 0.86391 0.0
C1890 C 0.77641 0.58906 0.87035 0.0
C1891 C 0.77072 0.57615 0.88837 0.0
C1892 C 0.80605 0.65599 0.82248 0.0
C1893 C 0.82923 0.6562 0.81053 0.0
C1894 C 0.79821 0.63958 0.83941 0.0
C1895 C 0.81391 0.62358 0.84504 0.0
C1896 C 0.83671 0.62333 0.83292 0.0
C1897 C 0.84403 0.63918 0.81575 0.0
H1898 H 0.43533 0.19336 0.88327 0.0
H1899 H 0.36318 0.2089 0.90788 0.0
H1900 H 0.40852 0.18326 0.85317 0.0
H1901 H 0.33533 0.19736 0.87813 0.0
H1902 H 0.31096 0.20836 0.81873 0.0
H1903 H 0.3382 0.21799 0.84858 0.0
H1904 H 0.36443 0.1487 0.83546 0.0
H1905 H 0.33833 0.14033 0.80521 0.0
C1906 C 0.41342 0.19413 0.88225 0.0
C1907 C 0.40137 0.20204 0.89783 0.0
C1908 C 0.39792 0.18821 0.86502 0.0
C1909 C 0.3697 0.18958 0.86307 0.0
C1910 C 0.35735 0.1968 0.87888 0.0
C1911 C 0.37316 0.20321 0.896 0.0
C1912 C 0.32252 0.19518 0.8223 0.0
C1913 C 0.32252 0.17358 0.80971 0.0
C1914 C 0.33801 0.20053 0.83947 0.0
C1915 C 0.35346 0.184 0.84462 0.0
C1916 C 0.3533 0.16227 0.83194 0.0
C1917 C 0.33822 0.15731 0.81463 0.0
H1918 H 0.79134 0.15615 0.90787 0.0
H1919 H 0.79662 0.23901 0.88504 0.0
H1920 H 0.80661 0.14495 0.87744 0.0
H1921 H 0.81101 0.22729 0.85442 0.0
H1922 H 0.79878 0.16516 0.79985 0.0
H1923 H 0.78245 0.17795 0.82928 0.0
H1924 H 0.86175 0.17907 0.85717 0.0
H1925 H 0.87958 0.16845 0.82778 0.0
C1926 C 0.79536 0.17171 0.89627 0.0
C1927 C 0.79283 0.19843 0.89878 0.0
C1928 C 0.80421 0.16539 0.87892 0.0
C1929 C 0.80997 0.18528 0.86363 0.0
C1930 C 0.80656 0.21154 0.86598 0.0
C1931 C 0.79846 0.21827 0.88346 0.0
C1932 C 0.81325 0.16875 0.8121 0.0
C1933 C 0.84048 0.16538 0.81124 0.0
C1934 C 0.80366 0.17585 0.829 0.0
C1935 C 0.82065 0.17912 0.8455 0.0
C1936 C 0.84795 0.17617 0.84469 0.0
C1937 C 0.85797 0.16982 0.82779 0.0
H1938 H 0.23404 0.09573 0.48747 0.0
H1939 H 0.31453 0.1749 0.46219 0.0
H1940 H 0.26111 0.10895 0.51752 0.0
H1941 H 0.34286 0.18728 0.49185 0.0
H1942 H 0.3767 0.21813 0.55085 0.0
H1943 H 0.34741 0.20661 0.52156 0.0
H1944 H 0.30102 0.10833 0.53447 0.0
H1945 H 0.32888 0.12044 0.56425 0.0
C1946 C 0.25773 0.11586 0.48841 0.0
C1947 C 0.27228 0.13435 0.47264 0.0
C1948 C 0.27345 0.12336 0.50557 0.0
C1949 C 0.30444 0.14914 0.50726 0.0
C1950 C 0.31887 0.16762 0.49132 0.0
C1951 C 0.3028 0.16047 0.47426 0.0
C1952 C 0.3601 0.19413 0.54734 0.0
C1953 C 0.35491 0.17014 0.55971 0.0
C1954 C 0.34344 0.18742 0.53049 0.0
C1955 C 0.32173 0.15646 0.52545 0.0
C1956 C 0.3169 0.13249 0.53792 0.0
C1957 C 0.33303 0.13932 0.55495 0.0
H1958 H 0.88071 0.09594 0.48446 0.0
H1959 H 0.88643 0.17905 0.46171 0.0
H1960 H 0.86644 0.10772 0.5151 0.0
H1961 H 0.87129 0.1903 0.49216 0.0
H1962 H 0.79841 0.16692 0.5419 0.0
H1963 H 0.816 0.1561 0.51248 0.0
H1964 H 0.89549 0.15734 0.5402 0.0
H1965 H 0.8794 0.17035 0.56965 0.0
C1966 C 0.87899 0.11674 0.48606 0.0
C1967 C 0.88471 0.13664 0.47077 0.0
C1968 C 0.87096 0.1235 0.50355 0.0
C1969 C 0.86772 0.14986 0.50593 0.0
C1970 C 0.87356 0.16979 0.49066 0.0
C1971 C 0.88233 0.16344 0.4733 0.0
C1972 C 0.82001 0.16554 0.54184 0.0
C1973 C 0.83763 0.17007 0.55835 0.0
C1974 C 0.82989 0.15906 0.52493 0.0
C1975 C 0.85716 0.15609 0.52407 0.0
C1976 C 0.87429 0.15946 0.54053 0.0
C1977 C 0.86484 0.16668 0.55744 0.0
H1978 H 0.82882 0.71525 0.4607 0.0
H1979 H 0.92327 0.78182 0.47951 0.0
H1980 H 0.81566 0.69177 0.49153 0.0
H1981 H 0.90982 0.75933 0.51086 0.0
H1982 H 0.88493 0.6916 0.56071 0.0
H1983 H 0.90032 0.71825 0.53051 0.0
H1984 H 0.80283 0.69603 0.52169 0.0
H1985 H 0.78761 0.66807 0.55124 0.0
C1986 C 0.84666 0.7252 0.47156 0.0
C1987 C 0.87704 0.75053 0.4676 0.0
C1988 C 0.83907 0.71183 0.48941 0.0
C1989 C 0.86144 0.72366 0.50407 0.0
C1990 C 0.89194 0.74912 0.50005 0.0
C1991 C 0.89968 0.7622 0.48205 0.0
C1992 C 0.86699 0.69278 0.55232 0.0
C1993 C 0.83505 0.67762 0.55828 0.0
C1994 C 0.87575 0.70814 0.53496 0.0
C1995 C 0.85284 0.70913 0.52324 0.0
C1996 C 0.82115 0.69511 0.52981 0.0
C1997 C 0.81237 0.67932 0.54693 0.0
loop_
_geom_bond_atom_site_label_1
_geom_bond_atom_site_label_2
_geom_bond_distance
_geom_bond_site_symmetry_2
_ccdc_geom_bond_type
H0 C3 0.931 . S
H1 C6 0.928 . S
H2 C8 0.930 . S
C3 H0 0.931 . S
C3 C4 1.413 . S
C3 C5 1.360 . S
C4 C3 1.413 . S
C4 C8 1.429 . S
C5 C3 1.360 . S
C5 C6 1.372 . S
C6 H1 0.928 . S
C6 C5 1.372 . S
C6 C7 1.404 . S
C7 C6 1.404 . S
C7 C8 1.391 . S
C8 H2 0.930 . S
C8 C4 1.429 . S
C8 C7 1.391 . S
H9 C12 0.931 . S
H10 C15 0.928 . S
H11 C17 0.930 . S
C12 H9 0.931 . S
C12 C13 1.413 . S
C12 C14 1.360 . S
C13 C12 1.413 . S
C13 C17 1.429 . S
C14 C12 1.360 . S
C14 C15 1.372 . S
C15 H10 0.928 . S
C15 C14 1.372 . S
C15 C16 1.404 . S
C16 C15 1.404 . S
C16 C17 1.391 . S
C17 H11 0.930 . S
C17 C13 1.429 . S
C17 C16 1.391 . S
H18 C21 0.931 . S
H19 C24 0.928 . S
H20 C26 0.930 . S
C21 H18 0.931 . S
C21 C22 1.413 . S
C21 C23 1.360 . S
C22 C21 1.413 . S
C22 C26 1.429 . S
C23 C21 1.360 . S
C23 C24 1.372 . S
C24 H19 0.928 . S
C24 C23 1.372 . S
C24 C25 1.404 . S
C25 C24 1.404 . S
C25 C26 1.391 . S
C26 H20 0.930 . S
C26 C22 1.429 . S
C26 C25 1.391 . S
H27 C30 0.931 . S
H28 C33 0.928 . S
H29 C35 0.930 . S
C30 H27 0.931 . S
C30 C31 1.413 . S
C30 C32 1.360 . S
C31 C30 1.413 . S
C31 C35 1.429 . S
C32 C30 1.360 . S
C32 C33 1.372 . S
C33 H28 0.928 . S
C33 C32 1.372 . S
C33 C34 1.404 . S
C34 C33 1.404 . S
C34 C35 1.391 . S
C35 H29 0.930 . S
C35 C31 1.429 . S
C35 C34 1.391 . S
H36 C39 0.931 . S
H37 C42 0.928 . S
H38 C44 0.930 . S
C39 H36 0.931 . S
C39 C40 1.413 . S
C39 C41 1.360 . S
C40 C39 1.413 . S
C40 C44 1.429 . S
C41 C39 1.360 . S
C41 C42 1.372 . S
C42 H37 0.928 . S
C42 C41 1.372 . S
C42 C43 1.404 . S
C43 C42 1.404 . S
C43 C44 1.391 . S
C44 H38 0.930 . S
C44 C40 1.429 . S
C44 C43 1.391 . S
H45 C48 0.931 . S
H46 C51 0.928 . S
H47 C53 0.930 . S
C48 H45 0.931 . S
C48 C49 1.413 . S
C48 C50 1.360 . S
C49 C48 1.413 . S
C49 C53 1.429 . S
C50 C48 1.360 . S
C50 C51 1.372 . S
C51 H46 0.928 . S
C51 C50 1.372 . S
C51 C52 1.404 . S
C52 C51 1.404 . S
C52 C53 1.391 . S
C53 H47 0.930 . S
C53 C49 1.429 . S
C53 C52 1.391 . S
H54 C57 0.931 . S
H55 C60 0.928 . S
H56 C62 0.930 . S
C57 H54 0.931 . S
C57 C58 1.413 . S
C57 C59 1.360 . S
C58 C57 1.413 . S
C58 C62 1.429 . S
C59 C57 1.360 . S
C59 C60 1.372 . S
C60 H55 0.928 . S
C60 C59 1.372 . S
C60 C61 1.404 . S
C61 C60 1.404 . S
C61 C62 1.391 . S
C62 H56 0.930 . S
C62 C58 1.429 . S
C62 C61 1.391 . S
H63 C66 0.931 . S
H64 C69 0.928 . S
H65 C71 0.930 . S
C66 H63 0.931 . S
C66 C67 1.413 . S
C66 C68 1.360 . S
C67 C66 1.413 . S
C67 C71 1.429 . S
C68 C66 1.360 . S
C68 C69 1.372 . S
C69 H64 0.928 . S
C69 C68 1.372 . S
C69 C70 1.404 . S
C70 C69 1.404 . S
C70 C71 1.391 . S
C71 H65 0.930 . S
C71 C67 1.429 . S
C71 C70 1.391 . S
H72 C75 0.931 . S
H73 C78 0.928 . S
H74 C80 0.930 . S
C75 H72 0.931 . S
C75 C76 1.413 . S
C75 C77 1.360 . S
C76 C75 1.413 . S
C76 C80 1.429 . S
C77 C75 1.360 . S
C77 C78 1.372 . S
C78 H73 0.928 . S
C78 C77 1.372 . S
C78 C79 1.404 . S
C79 C78 1.404 . S
C79 C80 1.391 . S
C80 H74 0.930 . S
C80 C76 1.429 . S
C80 C79 1.391 . S
H81 C84 0.931 . S
H82 C87 0.928 . S
H83 C89 0.930 . S
C84 H81 0.931 . S
C84 C85 1.413 . S
C84 C86 1.360 . S
C85 C84 1.413 . S
C85 C89 1.429 . S
C86 C84 1.360 . S
C86 C87 1.372 . S
C87 H82 0.928 . S
C87 C86 1.372 . S
C87 C88 1.404 . S
C88 C87 1.404 . S
C88 C89 1.391 . S
C89 H83 0.930 . S
C89 C85 1.429 . S
C89 C88 1.391 . S
H90 C93 0.931 . S
H91 C96 0.928 . S
H92 C98 0.930 . S
C93 H90 0.931 . S
C93 C94 1.413 . S
C93 C95 1.360 . S
C94 C93 1.413 . S
C94 C98 1.429 . S
C95 C93 1.360 . S
C95 C96 1.372 . S
C96 H91 0.928 . S
C96 C95 1.372 . S
C96 C97 1.404 . S
C97 C96 1.404 . S
C97 C98 1.391 . S
C98 H92 0.930 . S
C98 C94 1.429 . S
C98 C97 1.391 . S
H99 C102 0.931 . S
H100 C105 0.928 . S
H101 C107 0.930 . S
C102 H99 0.931 . S
C102 C103 1.413 . S
C102 C104 1.360 . S
C103 C102 1.413 . S
C103 C107 1.429 . S
C104 C102 1.360 . S
C104 C105 1.372 . S
C105 H100 0.928 . S
C105 C104 1.372 . S
C105 C106 1.404 . S
C106 C105 1.404 . S
C106 C107 1.391 . S
C107 H101 0.930 . S
C107 C103 1.429 . S
C107 C106 1.391 . S
H108 C111 0.931 . S
H109 C114 0.928 . S
H110 C116 0.930 . S
C111 H108 0.931 . S
C111 C112 1.413 . S
C111 C113 1.360 . S
C112 C111 1.413 . S
C112 C116 1.429 . S
C113 C111 1.360 . S
C113 C114 1.372 . S
C114 H109 0.928 . S
C114 C113 1.372 . S
C114 C115 1.404 . S
C115 C114 1.404 . S
C115 C116 1.391 . S
C116 H110 0.930 . S
C116 C112 1.429 . S
C116 C115 1.391 . S
H117 C120 0.931 . S
H118 C123 0.928 . S
H119 C125 0.930 . S
C120 H117 0.931 . S
C120 C121 1.413 . S
C120 C122 1.360 . S
C121 C120 1.413 . S
C121 C125 1.429 . S
C122 C120 1.360 . S
C122 C123 1.372 . S
C123 H118 0.928 . S
C123 C122 1.372 . S
C123 C124 1.404 . S
C124 C123 1.404 . S
C124 C125 1.391 . S
C125 H119 0.930 . S
C125 C121 1.429 . S
C125 C124 1.391 . S
H126 C129 0.931 . S
H127 C132 0.928 . S
H128 C134 0.930 . S
C129 H126 0.931 . S
C129 C130 1.413 . S
C129 C131 1.360 . S
C130 C129 1.413 . S
C130 C134 1.429 . S
C131 C129 1.360 . S
C131 C132 1.372 . S
C132 H127 0.928 . S
C132 C131 1.372 . S
C132 C133 1.404 . S
C133 C132 1.404 . S
C133 C134 1.391 . S
C134 H128 0.930 . S
C134 C130 1.429 . S
C134 C133 1.391 . S
H135 C138 0.931 . S
H136 C141 0.928 . S
H137 C143 0.930 . S
C138 H135 0.931 . S
C138 C139 1.413 . S
C138 C140 1.360 . S
C139 C138 1.413 . S
C139 C143 1.429 . S
C140 C138 1.360 . S
C140 C141 1.372 . S
C141 H136 0.928 . S
C141 C140 1.372 . S
C141 C142 1.404 . S
C142 C141 1.404 . S
C142 C143 1.391 . S
C143 H137 0.930 . S
C143 C139 1.429 . S
C143 C142 1.391 . S
H144 C147 0.931 . S
H145 C150 0.928 . S
H146 C152 0.930 . S
C147 H144 0.931 . S
C147 C148 1.413 . S
C147 C149 1.360 . S
C148 C147 1.413 . S
C148 C152 1.429 . S
C149 C147 1.360 . S
C149 C150 1.372 . S
C150 H145 0.928 . S
C150 C149 1.372 . S
C150 C151 1.404 . S
C151 C150 1.404 . S
C151 C152 1.391 . S
C152 H146 0.930 . S
C152 C148 1.429 . S
C152 C151 1.391 . S
H153 C156 0.931 . S
H154 C159 0.928 . S
H155 C161 0.930 . S
C156 H153 0.931 . S
C156 C157 1.413 . S
C156 C158 1.360 . S
C157 C156 1.413 . S
C157 C161 1.429 . S
C158 C156 1.360 . S
C158 C159 1.372 . S
C159 H154 0.928 . S
C159 C158 1.372 . S
C159 C160 1.404 . S
C160 C159 1.404 . S
C160 C161 1.391 . S
C161 H155 0.930 . S
C161 C157 1.429 . S
C161 C160 1.391 . S
Tb162 N193 2.660 . S
Tb162 N200 2.600 . S
Tb162 O206 2.546 . S
Tb162 O207 2.577 1_566 S
Tb162 O209 2.320 1_565 S
Tb162 O210 2.552 1_565 S
Tb162 O211 2.413 . S
Tb162 O213 2.362 1_556 S
Tb162 O214 2.425 . S
Tb162 C226 2.833 . S
C163 C166 1.432 . S
C163 C167 1.414 . S
C163 N170 1.359 . S
C164 C166 1.417 . S
C164 C168 1.432 . S
C164 C176 1.410 . S
C165 C167 1.444 . S
C165 C168 1.317 . S
C165 H188 0.929 . S
C166 C163 1.432 . S
C166 C164 1.417 . S
C166 N174 1.360 . S
C167 C163 1.414 . S
C167 C165 1.444 . S
C167 C172 1.385 . S
C168 C164 1.432 . S
C168 C165 1.317 . S
C168 H180 0.930 . S
C169 C171 1.392 . S
C169 C172 1.370 . S
C169 H181 0.931 . S
N170 C163 1.359 . S
N170 C171 1.327 . S
N170 Tb173 2.600 . S
C171 C169 1.392 . S
C171 N170 1.327 . S
C171 H178 0.930 . S
C172 C167 1.385 . S
C172 C169 1.370 . S
C172 H191 0.930 . S
Tb173 N170 2.600 . S
Tb173 N174 2.660 . S
Tb173 O207 2.417 . S
Tb173 O208 2.421 . S
Tb173 O212 2.546 . S
Tb173 O213 2.610 1_545 S
Tb173 O215 2.320 1_545 S
Tb173 O216 2.552 1_545 S
Tb173 O217 2.413 . S
Tb173 C237 2.833 . S
N174 C166 1.360 . S
N174 Tb173 2.660 . S
N174 C175 1.305 . S
C175 N174 1.305 . S
C175 C177 1.407 . S
C175 H182 0.930 . S
C176 C164 1.410 . S
C176 C177 1.345 . S
C176 H184 0.930 . S
C177 C175 1.407 . S
C177 C176 1.345 . S
C177 H179 0.930 . S
H178 C171 0.930 . S
H179 C177 0.930 . S
H180 C168 0.930 . S
H181 C169 0.931 . S
H182 C175 0.930 . S
H183 C197 0.930 . S
H184 C176 0.930 . S
H185 C203 0.930 . S
H186 C194 0.930 . S
H187 C201 0.931 . S
H188 C165 0.929 . S
H189 C195 0.930 . S
H190 C228 0.930 . S
H191 C172 0.930 . S
H192 C227 0.929 . S
N193 Tb162 2.660 . S
N193 C194 1.305 . S
N193 C198 1.360 . S
C194 H186 0.930 . S
C194 N193 1.305 . S
C194 C197 1.407 . S
C195 H189 0.930 . S
C195 C196 1.410 . S
C195 C197 1.345 . S
C196 C195 1.410 . S
C196 C198 1.417 . S
C196 C228 1.432 . S
C197 H183 0.930 . S
C197 C194 1.407 . S
C197 C195 1.345 . S
C198 N193 1.360 . S
C198 C196 1.417 . S
C198 C202 1.432 . S
H199 C204 0.930 . S
N200 Tb162 2.600 . S
N200 C202 1.359 . S
N200 C203 1.327 . S
C201 H187 0.931 . S
C201 C203 1.392 . S
C201 C204 1.370 . S
C202 C198 1.432 . S
C202 N200 1.359 . S
C202 C205 1.414 . S
C203 H185 0.930 . S
C203 N200 1.327 . S
C203 C201 1.392 . S
C204 H199 0.930 . S
C204 C201 1.370 . S
C204 C205 1.385 . S
C205 C202 1.414 . S
C205 C204 1.385 . S
C205 C227 1.444 . S
O206 Tb162 2.546 . S
O206 C226 1.251 . S
O207 Tb162 2.577 1_544 S
O207 Tb173 2.417 . S
O207 C218 1.238 1_554 S
O208 Tb173 2.421 . S
O208 C225 1.262 1_554 S
O209 Tb162 2.320 1_545 S
O209 C225 1.260 . S
O210 Tb162 2.552 1_545 S
O210 C218 1.243 . S
O211 Tb162 2.413 . S
O211 C226 1.256 . S
O212 Tb173 2.546 . S
O212 C237 1.251 . S
O213 Tb162 2.362 1_554 S
O213 Tb173 2.610 1_565 S
O213 C229 1.283 . S
O214 Tb162 2.425 . S
O214 C236 1.255 1_556 S
O215 Tb173 2.320 1_565 S
O215 C236 1.260 . S
O216 Tb173 2.552 1_565 S
O216 C229 1.243 . S
O217 Tb173 2.413 . S
O217 C237 1.256 . S
C218 O207 1.238 1_556 S
C218 O210 1.243 . S
C219 C221 1.382 1_565 S
C219 C223 1.393 . S
C219 C226 1.500 . S
C220 C221 1.400 . S
C220 C222 1.384 1_545 S
C221 C219 1.382 1_545 S
C221 C220 1.400 . S
C221 H238 0.930 . S
C222 C220 1.384 1_565 S
C222 C224 1.392 . S
C222 H239 0.931 . S
C223 C219 1.393 . S
C223 C224 1.401 . S
C223 H240 0.930 . S
C224 C222 1.392 . S
C224 C223 1.401 . S
C224 H241 0.930 . S
C225 O208 1.262 1_556 S
C225 O209 1.260 . S
C226 Tb162 2.833 . S
C226 O206 1.251 . S
C226 O211 1.256 . S
C226 C219 1.500 . S
C227 H192 0.929 . S
C227 C205 1.444 . S
C227 C228 1.317 . S
C228 H190 0.930 . S
C228 C196 1.432 . S
C228 C227 1.317 . S
C229 O213 1.283 . S
C229 O216 1.243 . S
C230 C231 1.382 1_545 S
C230 C234 1.393 . S
C230 C237 1.500 . S
C231 C230 1.382 1_565 S
C231 C232 1.400 . S
C231 H242 0.930 . S
C232 C231 1.400 . S
C232 C233 1.384 1_565 S
C233 C232 1.384 1_545 S
C233 C235 1.392 . S
C233 H243 0.931 . S
C234 C230 1.393 . S
C234 C235 1.401 . S
C234 H244 0.930 . S
C235 C233 1.392 . S
C235 C234 1.401 . S
C235 H245 0.930 . S
C236 O214 1.255 1_554 S
C236 O215 1.260 . S
C237 Tb173 2.833 . S
C237 O212 1.251 . S
C237 O217 1.256 . S
C237 C230 1.500 . S
H238 C221 0.930 . S
H239 C222 0.931 . S
H240 C223 0.930 . S
H241 C224 0.930 . S
H242 C231 0.930 . S
H243 C233 0.931 . S
H244 C234 0.930 . S
H245 C235 0.930 . S
Tb246 N277 2.660 . S
Tb246 N284 2.600 . S
Tb246 O290 2.546 . S
Tb246 O291 2.587 1_456 S
Tb246 O293 2.320 1_455 S
Tb246 O294 2.552 1_455 S
Tb246 O295 2.413 . S
Tb246 O297 2.362 1_556 S
Tb246 O298 2.421 1_556 S
Tb246 C310 2.833 . S
C247 C250 1.432 . S
C247 C251 1.414 . S
C247 N254 1.359 . S
C248 C250 1.417 . S
C248 C252 1.432 . S
C248 C260 1.410 . S
C249 C251 1.444 . S
C249 C252 1.317 . S
C249 H272 0.929 . S
C250 C247 1.432 . S
C250 C248 1.417 . S
C250 N258 1.360 . S
C251 C247 1.414 . S
C251 C249 1.444 . S
C251 C256 1.385 . S
C252 C248 1.432 . S
C252 C249 1.317 . S
C252 H264 0.930 . S
C253 C255 1.392 . S
C253 C256 1.370 . S
C253 H265 0.931 . S
N254 C247 1.359 . S
N254 C255 1.327 . S
N254 Tb257 2.600 . S
C255 C253 1.392 . S
C255 N254 1.327 . S
C255 H262 0.930 . S
C256 C251 1.385 . S
C256 C253 1.370 . S
C256 H275 0.930 . S
Tb257 N254 2.600 . S
Tb257 N258 2.660 . S
Tb257 O291 2.402 . S
Tb257 O292 2.421 . S
Tb257 O296 2.546 . S
Tb257 O297 2.610 1_655 S
Tb257 O299 2.320 1_655 S
Tb257 O300 2.552 1_655 S
Tb257 O301 2.413 . S
Tb257 C321 2.833 . S
N258 C250 1.360 . S
N258 Tb257 2.660 . S
N258 C259 1.305 . S
C259 N258 1.305 . S
C259 C261 1.407 . S
C259 H266 0.930 . S
C260 C248 1.410 . S
C260 C261 1.345 . S
C260 H268 0.930 . S
C261 C259 1.407 . S
C261 C260 1.345 . S
C261 H263 0.930 . S
H262 C255 0.930 . S
H263 C261 0.930 . S
H264 C252 0.930 . S
H265 C253 0.931 . S
H266 C259 0.930 . S
H267 C281 0.930 . S
H268 C260 0.930 . S
H269 C287 0.930 . S
H270 C278 0.930 . S
H271 C285 0.931 . S
H272 C249 0.929 . S
H273 C279 0.930 . S
H274 C312 0.930 . S
H275 C256 0.930 . S
H276 C311 0.929 . S
N277 Tb246 2.660 . S
N277 C278 1.305 . S
N277 C282 1.360 . S
C278 H270 0.930 . S
C278 N277 1.305 . S
C278 C281 1.407 . S
C279 H273 0.930 . S
C279 C280 1.410 . S
C279 C281 1.345 . S
C280 C279 1.410 . S
C280 C282 1.417 . S
C280 C312 1.432 . S
C281 H267 0.930 . S
C281 C278 1.407 . S
C281 C279 1.345 . S
C282 N277 1.360 . S
C282 C280 1.417 . S
C282 C286 1.432 . S
H283 C288 0.930 . S
N284 Tb246 2.600 . S
N284 C286 1.359 . S
N284 C287 1.327 . S
C285 H271 0.931 . S
C285 C287 1.392 . S
C285 C288 1.370 . S
C286 C282 1.432 . S
C286 N284 1.359 . S
C286 C289 1.414 . S
C287 H269 0.930 . S
C287 N284 1.327 . S
C287 C285 1.392 . S
C288 H283 0.930 . S
C288 C285 1.370 . S
C288 C289 1.385 . S
C289 C286 1.414 . S
C289 C288 1.385 . S
C289 C311 1.444 . S
O290 Tb246 2.546 . S
O290 C310 1.251 . S
O291 Tb246 2.587 1_654 S
O291 Tb257 2.402 . S
O291 C302 1.250 1_554 S
O292 Tb257 2.421 . S
O292 C309 1.262 1_554 S
O293 Tb246 2.320 1_655 S
O293 C309 1.260 . S
O294 Tb246 2.552 1_655 S
O294 C302 1.243 . S
O295 Tb246 2.413 . S
O295 C310 1.256 . S
O296 Tb257 2.546 . S
O296 C321 1.251 . S
O297 Tb246 2.362 1_554 S
O297 Tb257 2.610 1_455 S
O297 C313 1.283 . S
O298 Tb246 2.421 1_554 S
O298 C320 1.262 . S
O299 Tb257 2.320 1_455 S
O299 C320 1.260 . S
O300 Tb257 2.552 1_455 S
O300 C313 1.243 . S
O301 Tb257 2.413 . S
O301 C321 1.256 . S
C302 O291 1.250 1_556 S
C302 O294 1.243 . S
C303 C305 1.382 1_455 S
C303 C307 1.393 . S
C303 C310 1.500 . S
C304 C305 1.400 . S
C304 C306 1.384 1_655 S
C305 C303 1.382 1_655 S
C305 C304 1.400 . S
C305 H322 0.930 . S
C306 C304 1.384 1_455 S
C306 C308 1.392 . S
C306 H323 0.931 . S
C307 C303 1.393 . S
C307 C308 1.401 . S
C307 H324 0.930 . S
C308 C306 1.392 . S
C308 C307 1.401 . S
C308 H325 0.930 . S
C309 O292 1.262 1_556 S
C309 O293 1.260 . S
C310 Tb246 2.833 . S
C310 O290 1.251 . S
C310 O295 1.256 . S
C310 C303 1.500 . S
C311 H276 0.929 . S
C311 C289 1.444 . S
C311 C312 1.317 . S
C312 H274 0.930 . S
C312 C280 1.432 . S
C312 C311 1.317 . S
C313 O297 1.283 . S
C313 O300 1.243 . S
C314 C315 1.382 1_655 S
C314 C318 1.393 . S
C314 C321 1.500 . S
C315 C314 1.382 1_455 S
C315 C316 1.400 . S
C315 H326 0.930 . S
C316 C315 1.400 . S
C316 C317 1.384 1_455 S
C317 C316 1.384 1_655 S
C317 C319 1.392 . S
C317 H327 0.931 . S
C318 C314 1.393 . S
C318 C319 1.401 . S
C318 H328 0.930 . S
C319 C317 1.392 . S
C319 C318 1.401 . S
C319 H329 0.930 . S
C320 O298 1.262 . S
C320 O299 1.260 . S
C321 Tb257 2.833 . S
C321 O296 1.251 . S
C321 O301 1.256 . S
C321 C314 1.500 . S
H322 C305 0.930 . S
H323 C306 0.931 . S
H324 C307 0.930 . S
H325 C308 0.930 . S
H326 C315 0.930 . S
H327 C317 0.931 . S
H328 C318 0.930 . S
H329 C319 0.930 . S
Tb330 N361 2.660 . S
Tb330 N368 2.600 . S
Tb330 O374 2.546 . S
Tb330 O375 2.610 . S
Tb330 O377 2.320 . S
Tb330 O378 2.552 . S
Tb330 O379 2.413 . S
Tb330 O381 2.370 . S
Tb330 O382 2.421 . S
Tb330 C394 2.833 . S
C331 C334 1.432 . S
C331 C335 1.414 . S
C331 N338 1.359 . S
C332 C334 1.417 . S
C332 C336 1.432 . S
C332 C344 1.410 . S
C333 C335 1.444 . S
C333 C336 1.317 . S
C333 H356 0.929 . S
C334 C331 1.432 . S
C334 C332 1.417 . S
C334 N342 1.360 . S
C335 C331 1.414 . S
C335 C333 1.444 . S
C335 C340 1.385 . S
C336 C332 1.432 . S
C336 C333 1.317 . S
C336 H348 0.930 . S
C337 C339 1.392 . S
C337 C340 1.370 . S
C337 H349 0.931 . S
N338 C331 1.359 . S
N338 C339 1.327 . S
N338 Tb341 2.600 . S
C339 C337 1.392 . S
C339 N338 1.327 . S
C339 H346 0.930 . S
C340 C335 1.385 . S
C340 C337 1.370 . S
C340 H359 0.930 . S
Tb341 N338 2.600 . S
Tb341 N342 2.660 . S
Tb341 O375 2.362 1_556 S
Tb341 O376 2.424 . S
Tb341 O380 2.546 . S
Tb341 O381 2.605 1_556 S
Tb341 O383 2.320 . S
Tb341 O384 2.552 . S
Tb341 O385 2.413 . S
Tb341 C405 2.833 . S
N342 C334 1.360 . S
N342 Tb341 2.660 . S
N342 C343 1.305 . S
C343 N342 1.305 . S
C343 C345 1.407 . S
C343 H350 0.930 . S
C344 C332 1.410 . S
C344 C345 1.345 . S
C344 H352 0.930 . S
C345 C343 1.407 . S
C345 C344 1.345 . S
C345 H347 0.930 . S
H346 C339 0.930 . S
H347 C345 0.930 . S
H348 C336 0.930 . S
H349 C337 0.931 . S
H350 C343 0.930 . S
H351 C365 0.930 . S
H352 C344 0.930 . S
H353 C371 0.930 . S
H354 C362 0.930 . S
H355 C369 0.931 . S
H356 C333 0.929 . S
H357 C363 0.930 . S
H358 C396 0.930 . S
H359 C340 0.930 . S
H360 C395 0.929 . S
N361 Tb330 2.660 . S
N361 C362 1.305 . S
N361 C366 1.360 . S
C362 H354 0.930 . S
C362 N361 1.305 . S
C362 C365 1.407 . S
C363 H357 0.930 . S
C363 C364 1.410 . S
C363 C365 1.345 . S
C364 C363 1.410 . S
C364 C366 1.417 . S
C364 C396 1.432 . S
C365 H351 0.930 . S
C365 C362 1.407 . S
C365 C363 1.345 . S
C366 N361 1.360 . S
C366 C364 1.417 . S
C366 C370 1.432 . S
H367 C372 0.930 . S
N368 Tb330 2.600 . S
N368 C370 1.359 . S
N368 C371 1.327 . S
C369 H355 0.931 . S
C369 C371 1.392 . S
C369 C372 1.370 . S
C370 C366 1.432 . S
C370 N368 1.359 . S
C370 C373 1.414 . S
C371 H353 0.930 . S
C371 N368 1.327 . S
C371 C369 1.392 . S
C372 H367 0.930 . S
C372 C369 1.370 . S
C372 C373 1.385 . S
C373 C370 1.414 . S
C373 C372 1.385 . S
C373 C395 1.444 . S
O374 Tb330 2.546 . S
O374 C394 1.251 . S
O375 Tb330 2.610 . S
O375 Tb341 2.362 1_554 S
O375 C386 1.283 . S
O376 Tb341 2.424 . S
O376 C393 1.257 1_556 S
O377 Tb330 2.320 . S
O377 C393 1.260 . S
O378 Tb330 2.552 . S
O378 C386 1.243 . S
O379 Tb330 2.413 . S
O379 C394 1.256 . S
O380 Tb341 2.546 . S
O380 C405 1.251 . S
O381 Tb330 2.370 . S
O381 Tb341 2.605 1_554 S
O381 C397 1.276 1_554 S
O382 Tb330 2.421 . S
O382 C404 1.262 1_554 S
O383 Tb341 2.320 . S
O383 C404 1.260 . S
O384 Tb341 2.552 . S
O384 C397 1.243 . S
O385 Tb341 2.413 . S
O385 C405 1.256 . S
C386 O375 1.283 . S
C386 O378 1.243 . S
C387 C389 1.382 . S
C387 C391 1.393 . S
C387 C394 1.500 . S
C388 C389 1.400 . S
C388 C390 1.384 . S
C389 C387 1.382 . S
C389 C388 1.400 . S
C389 H406 0.930 . S
C390 C388 1.384 . S
C390 C392 1.392 . S
C390 H407 0.931 . S
C391 C387 1.393 . S
C391 C392 1.401 . S
C391 H408 0.930 . S
C392 C390 1.392 . S
C392 C391 1.401 . S
C392 H409 0.930 . S
C393 O376 1.257 1_554 S
C393 O377 1.260 . S
C394 Tb330 2.833 . S
C394 O374 1.251 . S
C394 O379 1.256 . S
C394 C387 1.500 . S
C395 H360 0.929 . S
C395 C373 1.444 . S
C395 C396 1.317 . S
C396 H358 0.930 . S
C396 C364 1.432 . S
C396 C395 1.317 . S
C397 O381 1.276 1_556 S
C397 O384 1.243 . S
C398 C399 1.382 . S
C398 C402 1.393 . S
C398 C405 1.500 . S
C399 C398 1.382 . S
C399 C400 1.400 . S
C399 H410 0.930 . S
C400 C399 1.400 . S
C400 C401 1.384 . S
C401 C400 1.384 . S
C401 C403 1.392 . S
C401 H411 0.931 . S
C402 C398 1.393 . S
C402 C403 1.401 . S
C402 H412 0.930 . S
C403 C401 1.392 . S
C403 C402 1.401 . S
C403 H413 0.930 . S
C404 O382 1.262 1_556 S
C404 O383 1.260 . S
C405 Tb341 2.833 . S
C405 O380 1.251 . S
C405 O385 1.256 . S
C405 C398 1.500 . S
H406 C389 0.930 . S
H407 C390 0.931 . S
H408 C391 0.930 . S
H409 C392 0.930 . S
H410 C399 0.930 . S
H411 C401 0.931 . S
H412 C402 0.930 . S
H413 C403 0.930 . S
Tb414 N445 2.660 . S
Tb414 N452 2.600 . S
Tb414 O458 2.546 . S
Tb414 O459 2.610 . S
Tb414 O461 2.320 . S
Tb414 O462 2.552 . S
Tb414 O463 2.413 . S
Tb414 O465 2.362 . S
Tb414 O466 2.421 . S
Tb414 C478 2.833 . S
C415 C418 1.432 . S
C415 C419 1.414 . S
C415 N422 1.359 . S
C416 C418 1.417 . S
C416 C420 1.432 . S
C416 C428 1.410 . S
C417 C419 1.444 . S
C417 C420 1.317 . S
C417 H440 0.929 . S
C418 C415 1.432 . S
C418 C416 1.417 . S
C418 N426 1.360 . S
C419 C415 1.414 . S
C419 C417 1.444 . S
C419 C424 1.385 . S
C420 C416 1.432 . S
C420 C417 1.317 . S
C420 H432 0.930 . S
C421 C423 1.392 . S
C421 C424 1.370 . S
C421 H433 0.931 . S
N422 C415 1.359 . S
N422 C423 1.327 . S
N422 Tb425 2.600 . S
C423 C421 1.392 . S
C423 N422 1.327 . S
C423 H430 0.930 . S
C424 C419 1.385 . S
C424 C421 1.370 . S
C424 H443 0.930 . S
Tb425 N422 2.600 . S
Tb425 N426 2.660 . S
Tb425 O459 2.362 . S
Tb425 O460 2.421 . S
Tb425 O464 2.546 . S
Tb425 O465 2.610 . S
Tb425 O467 2.320 . S
Tb425 O468 2.552 . S
Tb425 O469 2.413 . S
Tb425 C489 2.833 . S
N426 C418 1.360 . S
N426 Tb425 2.660 . S
N426 C427 1.305 . S
C427 N426 1.305 . S
C427 C429 1.407 . S
C427 H434 0.930 . S
C428 C416 1.410 . S
C428 C429 1.345 . S
C428 H436 0.930 . S
C429 C427 1.407 . S
C429 C428 1.345 . S
C429 H431 0.930 . S
H430 C423 0.930 . S
H431 C429 0.930 . S
H432 C420 0.930 . S
H433 C421 0.931 . S
H434 C427 0.930 . S
H435 C449 0.930 . S
H436 C428 0.930 . S
H437 C455 0.930 . S
H438 C446 0.930 . S
H439 C453 0.931 . S
H440 C417 0.929 . S
H441 C447 0.930 . S
H442 C480 0.930 . S
H443 C424 0.930 . S
H444 C479 0.929 . S
N445 Tb414 2.660 . S
N445 C446 1.305 . S
N445 C450 1.360 . S
C446 H438 0.930 . S
C446 N445 1.305 . S
C446 C449 1.407 . S
C447 H441 0.930 . S
C447 C448 1.410 . S
C447 C449 1.345 . S
C448 C447 1.410 . S
C448 C450 1.417 . S
C448 C480 1.432 . S
C449 H435 0.930 . S
C449 C446 1.407 . S
C449 C447 1.345 . S
C450 N445 1.360 . S
C450 C448 1.417 . S
C450 C454 1.432 . S
H451 C456 0.930 . S
N452 Tb414 2.600 . S
N452 C454 1.359 . S
N452 C455 1.327 . S
C453 H439 0.931 . S
C453 C455 1.392 . S
C453 C456 1.370 . S
C454 C450 1.432 . S
C454 N452 1.359 . S
C454 C457 1.414 . S
C455 H437 0.930 . S
C455 N452 1.327 . S
C455 C453 1.392 . S
C456 H451 0.930 . S
C456 C453 1.370 . S
C456 C457 1.385 . S
C457 C454 1.414 . S
C457 C456 1.385 . S
C457 C479 1.444 . S
O458 Tb414 2.546 . S
O458 C478 1.251 . S
O459 Tb414 2.610 . S
O459 Tb425 2.362 . S
O459 C470 1.283 . S
O460 Tb425 2.421 . S
O460 C477 1.262 . S
O461 Tb414 2.320 . S
O461 C477 1.260 . S
O462 Tb414 2.552 . S
O462 C470 1.243 . S
O463 Tb414 2.413 . S
O463 C478 1.256 . S
O464 Tb425 2.546 . S
O464 C489 1.251 . S
O465 Tb414 2.362 . S
O465 Tb425 2.610 . S
O465 C481 1.283 . S
O466 Tb414 2.421 . S
O466 C488 1.262 . S
O467 Tb425 2.320 . S
O467 C488 1.260 . S
O468 Tb425 2.552 . S
O468 C481 1.243 . S
O469 Tb425 2.413 . S
O469 C489 1.256 . S
C470 O459 1.283 . S
C470 O462 1.243 . S
C471 C473 1.382 . S
C471 C475 1.393 . S
C471 C478 1.500 . S
C472 C473 1.400 . S
C472 C474 1.384 . S
C473 C471 1.382 . S
C473 C472 1.400 . S
C473 H490 0.930 . S
C474 C472 1.384 . S
C474 C476 1.392 . S
C474 H491 0.931 . S
C475 C471 1.393 . S
C475 C476 1.401 . S
C475 H492 0.930 . S
C476 C474 1.392 . S
C476 C475 1.401 . S
C476 H493 0.930 . S
C477 O460 1.262 . S
C477 O461 1.260 . S
C478 Tb414 2.833 . S
C478 O458 1.251 . S
C478 O463 1.256 . S
C478 C471 1.500 . S
C479 H444 0.929 . S
C479 C457 1.444 . S
C479 C480 1.317 . S
C480 H442 0.930 . S
C480 C448 1.432 . S
C480 C479 1.317 . S
C481 O465 1.283 . S
C481 O468 1.243 . S
C482 C483 1.382 . S
C482 C486 1.393 . S
C482 C489 1.500 . S
C483 C482 1.382 . S
C483 C484 1.400 . S
C483 H494 0.930 . S
C484 C483 1.400 . S
C484 C485 1.384 . S
C485 C484 1.384 . S
C485 C487 1.392 . S
C485 H495 0.931 . S
C486 C482 1.393 . S
C486 C487 1.401 . S
C486 H496 0.930 . S
C487 C485 1.392 . S
C487 C486 1.401 . S
C487 H497 0.930 . S
C488 O466 1.262 . S
C488 O467 1.260 . S
C489 Tb425 2.833 . S
C489 O464 1.251 . S
C489 O469 1.256 . S
C489 C482 1.500 . S
H490 C473 0.930 . S
H491 C474 0.931 . S
H492 C475 0.930 . S
H493 C476 0.930 . S
H494 C483 0.930 . S
H495 C485 0.931 . S
H496 C486 0.930 . S
H497 C487 0.930 . S
Tb498 N529 2.660 . S
Tb498 N536 2.600 . S
Tb498 O542 2.546 . S
Tb498 O543 2.610 . S
Tb498 O545 2.320 . S
Tb498 O546 2.552 . S
Tb498 O547 2.413 . S
Tb498 O549 2.362 . S
Tb498 O550 2.421 . S
Tb498 C562 2.833 . S
C499 C502 1.432 . S
C499 C503 1.414 . S
C499 N506 1.359 . S
C500 C502 1.417 . S
C500 C504 1.432 . S
C500 C512 1.410 . S
C501 C503 1.444 . S
C501 C504 1.317 . S
C501 H524 0.929 . S
C502 C499 1.432 . S
C502 C500 1.417 . S
C502 N510 1.360 . S
C503 C499 1.414 . S
C503 C501 1.444 . S
C503 C508 1.385 . S
C504 C500 1.432 . S
C504 C501 1.317 . S
C504 H516 0.930 . S
C505 C507 1.392 . S
C505 C508 1.370 . S
C505 H517 0.931 . S
N506 C499 1.359 . S
N506 C507 1.327 . S
N506 Tb509 2.600 . S
C507 C505 1.392 . S
C507 N506 1.327 . S
C507 H514 0.930 . S
C508 C503 1.385 . S
C508 C505 1.370 . S
C508 H527 0.930 . S
Tb509 N506 2.600 . S
Tb509 N510 2.660 . S
Tb509 O543 2.362 . S
Tb509 O544 2.421 . S
Tb509 O548 2.546 . S
Tb509 O549 2.610 . S
Tb509 O551 2.320 . S
Tb509 O552 2.552 . S
Tb509 O553 2.413 . S
Tb509 C573 2.833 . S
N510 C502 1.360 . S
N510 Tb509 2.660 . S
N510 C511 1.305 . S
C511 N510 1.305 . S
C511 C513 1.407 . S
C511 H518 0.930 . S
C512 C500 1.410 . S
C512 C513 1.345 . S
C512 H520 0.930 . S
C513 C511 1.407 . S
C513 C512 1.345 . S
C513 H515 0.930 . S
H514 C507 0.930 . S
H515 C513 0.930 . S
H516 C504 0.930 . S
H517 C505 0.931 . S
H518 C511 0.930 . S
H519 C533 0.930 . S
H520 C512 0.930 . S
H521 C539 0.930 . S
H522 C530 0.930 . S
H523 C537 0.931 . S
H524 C501 0.929 . S
H525 C531 0.930 . S
H526 C564 0.930 . S
H527 C508 0.930 . S
H528 C563 0.929 . S
N529 Tb498 2.660 . S
N529 C530 1.305 . S
N529 C534 1.360 . S
C530 H522 0.930 . S
C530 N529 1.305 . S
C530 C533 1.407 . S
C531 H525 0.930 . S
C531 C532 1.410 . S
C531 C533 1.345 . S
C532 C531 1.410 . S
C532 C534 1.417 . S
C532 C564 1.432 . S
C533 H519 0.930 . S
C533 C530 1.407 . S
C533 C531 1.345 . S
C534 N529 1.360 . S
C534 C532 1.417 . S
C534 C538 1.432 . S
H535 C540 0.930 . S
N536 Tb498 2.600 . S
N536 C538 1.359 . S
N536 C539 1.327 . S
C537 H523 0.931 . S
C537 C539 1.392 . S
C537 C540 1.370 . S
C538 C534 1.432 . S
C538 N536 1.359 . S
C538 C541 1.414 . S
C539 H521 0.930 . S
C539 N536 1.327 . S
C539 C537 1.392 . S
C540 H535 0.930 . S
C540 C537 1.370 . S
C540 C541 1.385 . S
C541 C538 1.414 . S
C541 C540 1.385 . S
C541 C563 1.444 . S
O542 Tb498 2.546 . S
O542 C562 1.251 . S
O543 Tb498 2.610 . S
O543 Tb509 2.362 . S
O543 C554 1.283 . S
O544 Tb509 2.421 . S
O544 C561 1.262 . S
O545 Tb498 2.320 . S
O545 C561 1.260 . S
O546 Tb498 2.552 . S
O546 C554 1.243 . S
O547 Tb498 2.413 . S
O547 C562 1.256 . S
O548 Tb509 2.546 . S
O548 C573 1.251 . S
O549 Tb498 2.362 . S
O549 Tb509 2.610 . S
O549 C565 1.283 . S
O550 Tb498 2.421 . S
O550 C572 1.262 . S
O551 Tb509 2.320 . S
O551 C572 1.260 . S
O552 Tb509 2.552 . S
O552 C565 1.243 . S
O553 Tb509 2.413 . S
O553 C573 1.256 . S
C554 O543 1.283 . S
C554 O546 1.243 . S
C555 C557 1.382 . S
C555 C559 1.393 . S
C555 C562 1.500 . S
C556 C557 1.400 . S
C556 C558 1.384 . S
C557 C555 1.382 . S
C557 C556 1.400 . S
C557 H574 0.930 . S
C558 C556 1.384 . S
C558 C560 1.392 . S
C558 H575 0.931 . S
C559 C555 1.393 . S
C559 C560 1.401 . S
C559 H576 0.930 . S
C560 C558 1.392 . S
C560 C559 1.401 . S
C560 H577 0.930 . S
C561 O544 1.262 . S
C561 O545 1.260 . S
C562 Tb498 2.833 . S
C562 O542 1.251 . S
C562 O547 1.256 . S
C562 C555 1.500 . S
C563 H528 0.929 . S
C563 C541 1.444 . S
C563 C564 1.317 . S
C564 H526 0.930 . S
C564 C532 1.432 . S
C564 C563 1.317 . S
C565 O549 1.283 . S
C565 O552 1.243 . S
C566 C567 1.382 . S
C566 C570 1.393 . S
C566 C573 1.500 . S
C567 C566 1.382 . S
C567 C568 1.400 . S
C567 H578 0.930 . S
C568 C567 1.400 . S
C568 C569 1.384 . S
C569 C568 1.384 . S
C569 C571 1.392 . S
C569 H579 0.931 . S
C570 C566 1.393 . S
C570 C571 1.401 . S
C570 H580 0.930 . S
C571 C569 1.392 . S
C571 C570 1.401 . S
C571 H581 0.930 . S
C572 O550 1.262 . S
C572 O551 1.260 . S
C573 Tb509 2.833 . S
C573 O548 1.251 . S
C573 O553 1.256 . S
C573 C566 1.500 . S
H574 C557 0.930 . S
H575 C558 0.931 . S
H576 C559 0.930 . S
H577 C560 0.930 . S
H578 C567 0.930 . S
H579 C569 0.931 . S
H580 C570 0.930 . S
H581 C571 0.930 . S
Tb582 N613 2.660 . S
Tb582 N620 2.600 . S
Tb582 O626 2.546 . S
Tb582 O627 2.610 . S
Tb582 O629 2.320 . S
Tb582 O630 2.552 . S
Tb582 O631 2.413 . S
Tb582 O633 2.362 . S
Tb582 O634 2.421 . S
Tb582 C646 2.833 . S
C583 C586 1.432 . S
C583 C587 1.414 . S
C583 N590 1.359 . S
C584 C586 1.417 . S
C584 C588 1.432 . S
C584 C596 1.410 . S
C585 C587 1.444 . S
C585 C588 1.317 . S
C585 H608 0.929 . S
C586 C583 1.432 . S
C586 C584 1.417 . S
C586 N594 1.360 . S
C587 C583 1.414 . S
C587 C585 1.444 . S
C587 C592 1.385 . S
C588 C584 1.432 . S
C588 C585 1.317 . S
C588 H600 0.930 . S
C589 C591 1.392 . S
C589 C592 1.370 . S
C589 H601 0.931 . S
N590 C583 1.359 . S
N590 C591 1.327 . S
N590 Tb593 2.600 . S
C591 C589 1.392 . S
C591 N590 1.327 . S
C591 H598 0.930 . S
C592 C587 1.385 . S
C592 C589 1.370 . S
C592 H611 0.930 . S
Tb593 N590 2.600 . S
Tb593 N594 2.660 . S
Tb593 O627 2.362 . S
Tb593 O628 2.421 . S
Tb593 O632 2.546 . S
Tb593 O633 2.610 . S
Tb593 O635 2.320 . S
Tb593 O636 2.552 . S
Tb593 O637 2.413 . S
Tb593 C657 2.833 . S
N594 C586 1.360 . S
N594 Tb593 2.660 . S
N594 C595 1.305 . S
C595 N594 1.305 . S
C595 C597 1.407 . S
C595 H602 0.930 . S
C596 C584 1.410 . S
C596 C597 1.345 . S
C596 H604 0.930 . S
C597 C595 1.407 . S
C597 C596 1.345 . S
C597 H599 0.930 . S
H598 C591 0.930 . S
H599 C597 0.930 . S
H600 C588 0.930 . S
H601 C589 0.931 . S
H602 C595 0.930 . S
H603 C617 0.930 . S
H604 C596 0.930 . S
H605 C623 0.930 . S
H606 C614 0.930 . S
H607 C621 0.931 . S
H608 C585 0.929 . S
H609 C615 0.930 . S
H610 C648 0.930 . S
H611 C592 0.930 . S
H612 C647 0.929 . S
N613 Tb582 2.660 . S
N613 C614 1.305 . S
N613 C618 1.360 . S
C614 H606 0.930 . S
C614 N613 1.305 . S
C614 C617 1.407 . S
C615 H609 0.930 . S
C615 C616 1.410 . S
C615 C617 1.345 . S
C616 C615 1.410 . S
C616 C618 1.417 . S
C616 C648 1.432 . S
C617 H603 0.930 . S
C617 C614 1.407 . S
C617 C615 1.345 . S
C618 N613 1.360 . S
C618 C616 1.417 . S
C618 C622 1.432 . S
H619 C624 0.930 . S
N620 Tb582 2.600 . S
N620 C622 1.359 . S
N620 C623 1.327 . S
C621 H607 0.931 . S
C621 C623 1.392 . S
C621 C624 1.370 . S
C622 C618 1.432 . S
C622 N620 1.359 . S
C622 C625 1.414 . S
C623 H605 0.930 . S
C623 N620 1.327 . S
C623 C621 1.392 . S
C624 H619 0.930 . S
C624 C621 1.370 . S
C624 C625 1.385 . S
C625 C622 1.414 . S
C625 C624 1.385 . S
C625 C647 1.444 . S
O626 Tb582 2.546 . S
O626 C646 1.251 . S
O627 Tb582 2.610 . S
O627 Tb593 2.362 . S
O627 C638 1.283 . S
O628 Tb593 2.421 . S
O628 C645 1.262 . S
O629 Tb582 2.320 . S
O629 C645 1.260 . S
O630 Tb582 2.552 . S
O630 C638 1.243 . S
O631 Tb582 2.413 . S
O631 C646 1.256 . S
O632 Tb593 2.546 . S
O632 C657 1.251 . S
O633 Tb582 2.362 . S
O633 Tb593 2.610 . S
O633 C649 1.283 . S
O634 Tb582 2.421 . S
O634 C656 1.262 . S
O635 Tb593 2.320 . S
O635 C656 1.260 . S
O636 Tb593 2.552 . S
O636 C649 1.243 . S
O637 Tb593 2.413 . S
O637 C657 1.256 . S
C638 O627 1.283 . S
C638 O630 1.243 . S
C639 C641 1.382 . S
C639 C643 1.393 . S
C639 C646 1.500 . S
C640 C641 1.400 . S
C640 C642 1.384 . S
C641 C639 1.382 . S
C641 C640 1.400 . S
C641 H658 0.930 . S
C642 C640 1.384 . S
C642 C644 1.392 . S
C642 H659 0.931 . S
C643 C639 1.393 . S
C643 C644 1.401 . S
C643 H660 0.930 . S
C644 C642 1.392 . S
C644 C643 1.401 . S
C644 H661 0.930 . S
C645 O628 1.262 . S
C645 O629 1.260 . S
C646 Tb582 2.833 . S
C646 O626 1.251 . S
C646 O631 1.256 . S
C646 C639 1.500 . S
C647 H612 0.929 . S
C647 C625 1.444 . S
C647 C648 1.317 . S
C648 H610 0.930 . S
C648 C616 1.432 . S
C648 C647 1.317 . S
C649 O633 1.283 . S
C649 O636 1.243 . S
C650 C651 1.382 . S
C650 C654 1.393 . S
C650 C657 1.500 . S
C651 C650 1.382 . S
C651 C652 1.400 . S
C651 H662 0.930 . S
C652 C651 1.400 . S
C652 C653 1.384 . S
C653 C652 1.384 . S
C653 C655 1.392 . S
C653 H663 0.931 . S
C654 C650 1.393 . S
C654 C655 1.401 . S
C654 H664 0.930 . S
C655 C653 1.392 . S
C655 C654 1.401 . S
C655 H665 0.930 . S
C656 O634 1.262 . S
C656 O635 1.260 . S
C657 Tb593 2.833 . S
C657 O632 1.251 . S
C657 O637 1.256 . S
C657 C650 1.500 . S
H658 C641 0.930 . S
H659 C642 0.931 . S
H660 C643 0.930 . S
H661 C644 0.930 . S
H662 C651 0.930 . S
H663 C653 0.931 . S
H664 C654 0.930 . S
H665 C655 0.930 . S
Tb666 N697 2.660 . S
Tb666 N704 2.600 . S
Tb666 O710 2.546 . S
Tb666 O711 2.610 . S
Tb666 O713 2.320 . S
Tb666 O714 2.552 . S
Tb666 O715 2.413 . S
Tb666 O717 2.362 . S
Tb666 O718 2.421 . S
Tb666 C730 2.833 . S
C667 C670 1.432 . S
C667 C671 1.414 . S
C667 N674 1.359 . S
C668 C670 1.417 . S
C668 C672 1.432 . S
C668 C680 1.410 . S
C669 C671 1.444 . S
C669 C672 1.317 . S
C669 H692 0.929 . S
C670 C667 1.432 . S
C670 C668 1.417 . S
C670 N678 1.360 . S
C671 C667 1.414 . S
C671 C669 1.444 . S
C671 C676 1.385 . S
C672 C668 1.432 . S
C672 C669 1.317 . S
C672 H684 0.930 . S
C673 C675 1.392 . S
C673 C676 1.370 . S
C673 H685 0.931 . S
N674 C667 1.359 . S
N674 C675 1.327 . S
N674 Tb677 2.600 . S
C675 C673 1.392 . S
C675 N674 1.327 . S
C675 H682 0.930 . S
C676 C671 1.385 . S
C676 C673 1.370 . S
C676 H695 0.930 . S
Tb677 N674 2.600 . S
Tb677 N678 2.660 . S
Tb677 O711 2.362 . S
Tb677 O712 2.421 . S
Tb677 O716 2.546 . S
Tb677 O717 2.610 . S
Tb677 O719 2.320 . S
Tb677 O720 2.552 . S
Tb677 O721 2.413 . S
Tb677 C741 2.833 . S
N678 C670 1.360 . S
N678 Tb677 2.660 . S
N678 C679 1.305 . S
C679 N678 1.305 . S
C679 C681 1.407 . S
C679 H686 0.930 . S
C680 C668 1.410 . S
C680 C681 1.345 . S
C680 H688 0.930 . S
C681 C679 1.407 . S
C681 C680 1.345 . S
C681 H683 0.930 . S
H682 C675 0.930 . S
H683 C681 0.930 . S
H684 C672 0.930 . S
H685 C673 0.931 . S
H686 C679 0.930 . S
H687 C701 0.930 . S
H688 C680 0.930 . S
H689 C707 0.930 . S
H690 C698 0.930 . S
H691 C705 0.931 . S
H692 C669 0.929 . S
H693 C699 0.930 . S
H694 C732 0.930 . S
H695 C676 0.930 . S
H696 C731 0.929 . S
N697 Tb666 2.660 . S
N697 C698 1.305 . S
N697 C702 1.360 . S
C698 H690 0.930 . S
C698 N697 1.305 . S
C698 C701 1.407 . S
C699 H693 0.930 . S
C699 C700 1.410 . S
C699 C701 1.345 . S
C700 C699 1.410 . S
C700 C702 1.417 . S
C700 C732 1.432 . S
C701 H687 0.930 . S
C701 C698 1.407 . S
C701 C699 1.345 . S
C702 N697 1.360 . S
C702 C700 1.417 . S
C702 C706 1.432 . S
H703 C708 0.930 . S
N704 Tb666 2.600 . S
N704 C706 1.359 . S
N704 C707 1.327 . S
C705 H691 0.931 . S
C705 C707 1.392 . S
C705 C708 1.370 . S
C706 C702 1.432 . S
C706 N704 1.359 . S
C706 C709 1.414 . S
C707 H689 0.930 . S
C707 N704 1.327 . S
C707 C705 1.392 . S
C708 H703 0.930 . S
C708 C705 1.370 . S
C708 C709 1.385 . S
C709 C706 1.414 . S
C709 C708 1.385 . S
C709 C731 1.444 . S
O710 Tb666 2.546 . S
O710 C730 1.251 . S
O711 Tb666 2.610 . S
O711 Tb677 2.362 . S
O711 C722 1.283 . S
O712 Tb677 2.421 . S
O712 C729 1.262 . S
O713 Tb666 2.320 . S
O713 C729 1.260 . S
O714 Tb666 2.552 . S
O714 C722 1.243 . S
O715 Tb666 2.413 . S
O715 C730 1.256 . S
O716 Tb677 2.546 . S
O716 C741 1.251 . S
O717 Tb666 2.362 . S
O717 Tb677 2.610 . S
O717 C733 1.283 . S
O718 Tb666 2.421 . S
O718 C740 1.262 . S
O719 Tb677 2.320 . S
O719 C740 1.260 . S
O720 Tb677 2.552 . S
O720 C733 1.243 . S
O721 Tb677 2.413 . S
O721 C741 1.256 . S
C722 O711 1.283 . S
C722 O714 1.243 . S
C723 C725 1.382 . S
C723 C727 1.393 . S
C723 C730 1.500 . S
C724 C725 1.400 . S
C724 C726 1.384 . S
C725 C723 1.382 . S
C725 C724 1.400 . S
C725 H742 0.930 . S
C726 C724 1.384 . S
C726 C728 1.392 . S
C726 H743 0.931 . S
C727 C723 1.393 . S
C727 C728 1.401 . S
C727 H744 0.930 . S
C728 C726 1.392 . S
C728 C727 1.401 . S
C728 H745 0.930 . S
C729 O712 1.262 . S
C729 O713 1.260 . S
C730 Tb666 2.833 . S
C730 O710 1.251 . S
C730 O715 1.256 . S
C730 C723 1.500 . S
C731 H696 0.929 . S
C731 C709 1.444 . S
C731 C732 1.317 . S
C732 H694 0.930 . S
C732 C700 1.432 . S
C732 C731 1.317 . S
C733 O717 1.283 . S
C733 O720 1.243 . S
C734 C735 1.382 . S
C734 C738 1.393 . S
C734 C741 1.500 . S
C735 C734 1.382 . S
C735 C736 1.400 . S
C735 H746 0.930 . S
C736 C735 1.400 . S
C736 C737 1.384 . S
C737 C736 1.384 . S
C737 C739 1.392 . S
C737 H747 0.931 . S
C738 C734 1.393 . S
C738 C739 1.401 . S
C738 H748 0.930 . S
C739 C737 1.392 . S
C739 C738 1.401 . S
C739 H749 0.930 . S
C740 O718 1.262 . S
C740 O719 1.260 . S
C741 Tb677 2.833 . S
C741 O716 1.251 . S
C741 O721 1.256 . S
C741 C734 1.500 . S
H742 C725 0.930 . S
H743 C726 0.931 . S
H744 C727 0.930 . S
H745 C728 0.930 . S
H746 C735 0.930 . S
H747 C737 0.931 . S
H748 C738 0.930 . S
H749 C739 0.930 . S
Tb750 N781 2.660 . S
Tb750 N788 2.600 . S
Tb750 O794 2.546 . S
Tb750 O795 2.610 . S
Tb750 O797 2.320 . S
Tb750 O798 2.552 . S
Tb750 O799 2.413 . S
Tb750 O801 2.362 . S
Tb750 O802 2.421 . S
Tb750 C814 2.833 . S
C751 C754 1.432 . S
C751 C755 1.414 . S
C751 N758 1.359 . S
C752 C754 1.417 . S
C752 C756 1.432 . S
C752 C764 1.410 . S
C753 C755 1.444 . S
C753 C756 1.317 . S
C753 H776 0.929 . S
C754 C751 1.432 . S
C754 C752 1.417 . S
C754 N762 1.360 . S
C755 C751 1.414 . S
C755 C753 1.444 . S
C755 C760 1.385 . S
C756 C752 1.432 . S
C756 C753 1.317 . S
C756 H768 0.930 . S
C757 C759 1.392 . S
C757 C760 1.370 . S
C757 H769 0.931 . S
N758 C751 1.359 . S
N758 C759 1.327 . S
N758 Tb761 2.600 . S
C759 C757 1.392 . S
C759 N758 1.327 . S
C759 H766 0.930 . S
C760 C755 1.385 . S
C760 C757 1.370 . S
C760 H779 0.930 . S
Tb761 N758 2.600 . S
Tb761 N762 2.660 . S
Tb761 O795 2.362 . S
Tb761 O796 2.421 . S
Tb761 O800 2.546 . S
Tb761 O801 2.610 . S
Tb761 O803 2.320 . S
Tb761 O804 2.552 . S
Tb761 O805 2.413 . S
Tb761 C825 2.833 . S
N762 C754 1.360 . S
N762 Tb761 2.660 . S
N762 C763 1.305 . S
C763 N762 1.305 . S
C763 C765 1.407 . S
C763 H770 0.930 . S
C764 C752 1.410 . S
C764 C765 1.345 . S
C764 H772 0.930 . S
C765 C763 1.407 . S
C765 C764 1.345 . S
C765 H767 0.930 . S
H766 C759 0.930 . S
H767 C765 0.930 . S
H768 C756 0.930 . S
H769 C757 0.931 . S
H770 C763 0.930 . S
H771 C785 0.930 . S
H772 C764 0.930 . S
H773 C791 0.930 . S
H774 C782 0.930 . S
H775 C789 0.931 . S
H776 C753 0.929 . S
H777 C783 0.930 . S
H778 C816 0.930 . S
H779 C760 0.930 . S
H780 C815 0.929 . S
N781 Tb750 2.660 . S
N781 C782 1.305 . S
N781 C786 1.360 . S
C782 H774 0.930 . S
C782 N781 1.305 . S
C782 C785 1.407 . S
C783 H777 0.930 . S
C783 C784 1.410 . S
C783 C785 1.345 . S
C784 C783 1.410 . S
C784 C786 1.417 . S
C784 C816 1.432 . S
C785 H771 0.930 . S
C785 C782 1.407 . S
C785 C783 1.345 . S
C786 N781 1.360 . S
C786 C784 1.417 . S
C786 C790 1.432 . S
H787 C792 0.930 . S
N788 Tb750 2.600 . S
N788 C790 1.359 . S
N788 C791 1.327 . S
C789 H775 0.931 . S
C789 C791 1.392 . S
C789 C792 1.370 . S
C790 C786 1.432 . S
C790 N788 1.359 . S
C790 C793 1.414 . S
C791 H773 0.930 . S
C791 N788 1.327 . S
C791 C789 1.392 . S
C792 H787 0.930 . S
C792 C789 1.370 . S
C792 C793 1.385 . S
C793 C790 1.414 . S
C793 C792 1.385 . S
C793 C815 1.444 . S
O794 Tb750 2.546 . S
O794 C814 1.251 . S
O795 Tb750 2.610 . S
O795 Tb761 2.362 . S
O795 C806 1.283 . S
O796 Tb761 2.421 . S
O796 C813 1.262 . S
O797 Tb750 2.320 . S
O797 C813 1.260 . S
O798 Tb750 2.552 . S
O798 C806 1.243 . S
O799 Tb750 2.413 . S
O799 C814 1.256 . S
O800 Tb761 2.546 . S
O800 C825 1.251 . S
O801 Tb750 2.362 . S
O801 Tb761 2.610 . S
O801 C817 1.283 . S
O802 Tb750 2.421 . S
O802 C824 1.262 . S
O803 Tb761 2.320 . S
O803 C824 1.260 . S
O804 Tb761 2.552 . S
O804 C817 1.243 . S
O805 Tb761 2.413 . S
O805 C825 1.256 . S
C806 O795 1.283 . S
C806 O798 1.243 . S
C807 C809 1.382 . S
C807 C811 1.393 . S
C807 C814 1.500 . S
C808 C809 1.400 . S
C808 C810 1.384 . S
C809 C807 1.382 . S
C809 C808 1.400 . S
C809 H826 0.930 . S
C810 C808 1.384 . S
C810 C812 1.392 . S
C810 H827 0.931 . S
C811 C807 1.393 . S
C811 C812 1.401 . S
C811 H828 0.930 . S
C812 C810 1.392 . S
C812 C811 1.401 . S
C812 H829 0.930 . S
C813 O796 1.262 . S
C813 O797 1.260 . S
C814 Tb750 2.833 . S
C814 O794 1.251 . S
C814 O799 1.256 . S
C814 C807 1.500 . S
C815 H780 0.929 . S
C815 C793 1.444 . S
C815 C816 1.317 . S
C816 H778 0.930 . S
C816 C784 1.432 . S
C816 C815 1.317 . S
C817 O801 1.283 . S
C817 O804 1.243 . S
C818 C819 1.382 . S
C818 C822 1.393 . S
C818 C825 1.500 . S
C819 C818 1.382 . S
C819 C820 1.400 . S
C819 H830 0.930 . S
C820 C819 1.400 . S
C820 C821 1.384 . S
C821 C820 1.384 . S
C821 C823 1.392 . S
C821 H831 0.931 . S
C822 C818 1.393 . S
C822 C823 1.401 . S
C822 H832 0.930 . S
C823 C821 1.392 . S
C823 C822 1.401 . S
C823 H833 0.930 . S
C824 O802 1.262 . S
C824 O803 1.260 . S
C825 Tb761 2.833 . S
C825 O800 1.251 . S
C825 O805 1.256 . S
C825 C818 1.500 . S
H826 C809 0.930 . S
H827 C810 0.931 . S
H828 C811 0.930 . S
H829 C812 0.930 . S
H830 C819 0.930 . S
H831 C821 0.931 . S
H832 C822 0.930 . S
H833 C823 0.930 . S
Tb834 N865 2.660 . S
Tb834 N872 2.600 . S
Tb834 O878 2.546 . S
Tb834 O879 2.610 . S
Tb834 O881 2.320 . S
Tb834 O882 2.552 . S
Tb834 O883 2.413 . S
Tb834 O885 2.362 . S
Tb834 O886 2.421 . S
Tb834 C898 2.833 . S
C835 C838 1.432 . S
C835 C839 1.414 . S
C835 N842 1.359 . S
C836 C838 1.417 . S
C836 C840 1.432 . S
C836 C848 1.410 . S
C837 C839 1.444 . S
C837 C840 1.317 . S
C837 H860 0.929 . S
C838 C835 1.432 . S
C838 C836 1.417 . S
C838 N846 1.360 . S
C839 C835 1.414 . S
C839 C837 1.444 . S
C839 C844 1.385 . S
C840 C836 1.432 . S
C840 C837 1.317 . S
C840 H852 0.930 . S
C841 C843 1.392 . S
C841 C844 1.370 . S
C841 H853 0.931 . S
N842 C835 1.359 . S
N842 C843 1.327 . S
N842 Tb845 2.600 . S
C843 C841 1.392 . S
C843 N842 1.327 . S
C843 H850 0.930 . S
C844 C839 1.385 . S
C844 C841 1.370 . S
C844 H863 0.930 . S
Tb845 N842 2.600 . S
Tb845 N846 2.660 . S
Tb845 O879 2.362 . S
Tb845 O880 2.421 . S
Tb845 O884 2.546 . S
Tb845 O885 2.610 . S
Tb845 O887 2.320 . S
Tb845 O888 2.552 . S
Tb845 O889 2.413 . S
Tb845 C909 2.833 . S
N846 C838 1.360 . S
N846 Tb845 2.660 . S
N846 C847 1.305 . S
C847 N846 1.305 . S
C847 C849 1.407 . S
C847 H854 0.930 . S
C848 C836 1.410 . S
C848 C849 1.345 . S
C848 H856 0.930 . S
C849 C847 1.407 . S
C849 C848 1.345 . S
C849 H851 0.930 . S
H850 C843 0.930 . S
H851 C849 0.930 . S
H852 C840 0.930 . S
H853 C841 0.931 . S
H854 C847 0.930 . S
H855 C869 0.930 . S
H856 C848 0.930 . S
H857 C875 0.930 . S
H858 C866 0.930 . S
H859 C873 0.931 . S
H860 C837 0.929 . S
H861 C867 0.930 . S
H862 C900 0.930 . S
H863 C844 0.930 . S
H864 C899 0.929 . S
N865 Tb834 2.660 . S
N865 C866 1.305 . S
N865 C870 1.360 . S
C866 H858 0.930 . S
C866 N865 1.305 . S
C866 C869 1.407 . S
C867 H861 0.930 . S
C867 C868 1.410 . S
C867 C869 1.345 . S
C868 C867 1.410 . S
C868 C870 1.417 . S
C868 C900 1.432 . S
C869 H855 0.930 . S
C869 C866 1.407 . S
C869 C867 1.345 . S
C870 N865 1.360 . S
C870 C868 1.417 . S
C870 C874 1.432 . S
H871 C876 0.930 . S
N872 Tb834 2.600 . S
N872 C874 1.359 . S
N872 C875 1.327 . S
C873 H859 0.931 . S
C873 C875 1.392 . S
C873 C876 1.370 . S
C874 C870 1.432 . S
C874 N872 1.359 . S
C874 C877 1.414 . S
C875 H857 0.930 . S
C875 N872 1.327 . S
C875 C873 1.392 . S
C876 H871 0.930 . S
C876 C873 1.370 . S
C876 C877 1.385 . S
C877 C874 1.414 . S
C877 C876 1.385 . S
C877 C899 1.444 . S
O878 Tb834 2.546 . S
O878 C898 1.251 . S
O879 Tb834 2.610 . S
O879 Tb845 2.362 . S
O879 C890 1.283 . S
O880 Tb845 2.421 . S
O880 C897 1.262 . S
O881 Tb834 2.320 . S
O881 C897 1.260 . S
O882 Tb834 2.552 . S
O882 C890 1.243 . S
O883 Tb834 2.413 . S
O883 C898 1.256 . S
O884 Tb845 2.546 . S
O884 C909 1.251 . S
O885 Tb834 2.362 . S
O885 Tb845 2.610 . S
O885 C901 1.283 . S
O886 Tb834 2.421 . S
O886 C908 1.262 . S
O887 Tb845 2.320 . S
O887 C908 1.260 . S
O888 Tb845 2.552 . S
O888 C901 1.243 . S
O889 Tb845 2.413 . S
O889 C909 1.256 . S
C890 O879 1.283 . S
C890 O882 1.243 . S
C891 C893 1.382 . S
C891 C895 1.393 . S
C891 C898 1.500 . S
C892 C893 1.400 . S
C892 C894 1.384 . S
C893 C891 1.382 . S
C893 C892 1.400 . S
C893 H910 0.930 . S
C894 C892 1.384 . S
C894 C896 1.392 . S
C894 H911 0.931 . S
C895 C891 1.393 . S
C895 C896 1.401 . S
C895 H912 0.930 . S
C896 C894 1.392 . S
C896 C895 1.401 . S
C896 H913 0.930 . S
C897 O880 1.262 . S
C897 O881 1.260 . S
C898 Tb834 2.833 . S
C898 O878 1.251 . S
C898 O883 1.256 . S
C898 C891 1.500 . S
C899 H864 0.929 . S
C899 C877 1.444 . S
C899 C900 1.317 . S
C900 H862 0.930 . S
C900 C868 1.432 . S
C900 C899 1.317 . S
C901 O885 1.283 . S
C901 O888 1.243 . S
C902 C903 1.382 . S
C902 C906 1.393 . S
C902 C909 1.500 . S
C903 C902 1.382 . S
C903 C904 1.400 . S
C903 H914 0.930 . S
C904 C903 1.400 . S
C904 C905 1.384 . S
C905 C904 1.384 . S
C905 C907 1.392 . S
C905 H915 0.931 . S
C906 C902 1.393 . S
C906 C907 1.401 . S
C906 H916 0.930 . S
C907 C905 1.392 . S
C907 C906 1.401 . S
C907 H917 0.930 . S
C908 O886 1.262 . S
C908 O887 1.260 . S
C909 Tb845 2.833 . S
C909 O884 1.251 . S
C909 O889 1.256 . S
C909 C902 1.500 . S
H910 C893 0.930 . S
H911 C894 0.931 . S
H912 C895 0.930 . S
H913 C896 0.930 . S
H914 C903 0.930 . S
H915 C905 0.931 . S
H916 C906 0.930 . S
H917 C907 0.930 . S
H918 C926 0.950 . S
H919 C931 0.950 . S
H920 C928 0.950 . S
H921 C930 0.950 . S
H922 C932 0.950 . S
H923 C934 0.950 . S
H924 C936 0.950 . S
H925 C937 0.950 . S
C926 H918 0.950 . S
C926 C927 1.386 . S
C926 C928 1.391 . S
C927 C926 1.386 . S
C927 C931 1.393 . S
C928 H920 0.950 . S
C928 C926 1.391 . S
C928 C929 1.400 . S
C929 C928 1.400 . S
C929 C930 1.398 . S
C929 C935 1.491 . S
C930 H921 0.950 . S
C930 C929 1.398 . S
C930 C931 1.391 . S
C931 H919 0.950 . S
C931 C927 1.393 . S
C931 C930 1.391 . S
C932 H922 0.950 . S
C932 C933 1.386 . S
C932 C934 1.391 . S
C933 C932 1.386 . S
C933 C937 1.393 . S
C934 H923 0.950 . S
C934 C932 1.391 . S
C934 C935 1.400 . S
C935 C929 1.491 . S
C935 C934 1.400 . S
C935 C936 1.398 . S
C936 H924 0.950 . S
C936 C935 1.398 . S
C936 C937 1.391 . S
C937 H925 0.950 . S
C937 C933 1.393 . S
C937 C936 1.391 . S
H938 C946 0.950 . S
H939 C951 0.950 . S
H940 C948 0.950 . S
H941 C950 0.950 . S
H942 C952 0.950 . S
H943 C954 0.950 . S
H944 C956 0.950 . S
H945 C957 0.950 . S
C946 H938 0.950 . S
C946 C947 1.386 . S
C946 C948 1.391 . S
C947 C946 1.386 . S
C947 C951 1.393 . S
C948 H940 0.950 . S
C948 C946 1.391 . S
C948 C949 1.400 . S
C949 C948 1.400 . S
C949 C950 1.398 . S
C949 C955 1.491 . S
C950 H941 0.950 . S
C950 C949 1.398 . S
C950 C951 1.391 . S
C951 H939 0.950 . S
C951 C947 1.393 . S
C951 C950 1.391 . S
C952 H942 0.950 . S
C952 C953 1.386 . S
C952 C954 1.391 . S
C953 C952 1.386 . S
C953 C957 1.393 . S
C954 H943 0.950 . S
C954 C952 1.391 . S
C954 C955 1.400 . S
C955 C949 1.491 . S
C955 C954 1.400 . S
C955 C956 1.398 . S
C956 H944 0.950 . S
C956 C955 1.398 . S
C956 C957 1.391 . S
C957 H945 0.950 . S
C957 C953 1.393 . S
C957 C956 1.391 . S
H958 C966 0.950 . S
H959 C971 0.950 . S
H960 C968 0.950 . S
H961 C970 0.950 . S
H962 C972 0.950 . S
H963 C974 0.950 . S
H964 C976 0.950 . S
H965 C977 0.950 . S
C966 H958 0.950 . S
C966 C967 1.386 . S
C966 C968 1.391 . S
C967 C966 1.386 . S
C967 C971 1.393 . S
C968 H960 0.950 . S
C968 C966 1.391 . S
C968 C969 1.400 . S
C969 C968 1.400 . S
C969 C970 1.398 . S
C969 C975 1.491 . S
C970 H961 0.950 . S
C970 C969 1.398 . S
C970 C971 1.391 . S
C971 H959 0.950 . S
C971 C967 1.393 . S
C971 C970 1.391 . S
C972 H962 0.950 . S
C972 C973 1.386 . S
C972 C974 1.391 . S
C973 C972 1.386 . S
C973 C977 1.393 . S
C974 H963 0.950 . S
C974 C972 1.391 . S
C974 C975 1.400 . S
C975 C969 1.491 . S
C975 C974 1.400 . S
C975 C976 1.398 . S
C976 H964 0.950 . S
C976 C975 1.398 . S
C976 C977 1.391 . S
C977 H965 0.950 . S
C977 C973 1.393 . S
C977 C976 1.391 . S
H978 C986 0.950 . S
H979 C991 0.950 . S
H980 C988 0.950 . S
H981 C990 0.950 . S
H982 C992 0.950 . S
H983 C994 0.950 . S
H984 C996 0.950 . S
H985 C997 0.950 1_554 S
C986 H978 0.950 . S
C986 C987 1.386 . S
C986 C988 1.391 . S
C987 C986 1.386 . S
C987 C991 1.393 . S
C988 H980 0.950 . S
C988 C986 1.391 . S
C988 C989 1.400 . S
C989 C988 1.400 . S
C989 C990 1.398 . S
C989 C995 1.491 . S
C990 H981 0.950 . S
C990 C989 1.398 . S
C990 C991 1.391 . S
C991 H979 0.950 . S
C991 C987 1.393 . S
C991 C990 1.391 . S
C992 H982 0.950 . S
C992 C993 1.386 . S
C992 C994 1.391 . S
C993 C992 1.386 . S
C993 C997 1.393 . S
C994 H983 0.950 . S
C994 C992 1.391 . S
C994 C995 1.400 . S
C995 C989 1.491 . S
C995 C994 1.400 . S
C995 C996 1.398 . S
C996 H984 0.950 . S
C996 C995 1.398 . S
C996 C997 1.391 . S
C997 H985 0.950 1_556 S
C997 C993 1.393 . S
C997 C996 1.391 . S
H998 C1006 0.950 . S
H999 C1011 0.950 . S
H1000 C1008 0.950 . S
H1001 C1010 0.950 . S
H1002 C1012 0.950 . S
H1003 C1014 0.950 . S
H1004 C1016 0.950 . S
H1005 C1017 0.948 . S
C1006 H998 0.950 . S
C1006 C1007 1.386 . S
C1006 C1008 1.391 . S
C1007 C1006 1.386 . S
C1007 C1011 1.393 . S
C1008 H1000 0.950 . S
C1008 C1006 1.391 . S
C1008 C1009 1.400 . S
C1009 C1008 1.400 . S
C1009 C1010 1.398 . S
C1009 C1015 1.491 . S
C1010 H1001 0.950 . S
C1010 C1009 1.398 . S
C1010 C1011 1.391 . S
C1011 H999 0.950 . S
C1011 C1007 1.393 . S
C1011 C1010 1.391 . S
C1012 H1002 0.950 . S
C1012 C1013 1.386 . S
C1012 C1014 1.391 . S
C1013 C1012 1.386 . S
C1013 C1017 1.393 . S
C1014 H1003 0.950 . S
C1014 C1012 1.391 . S
C1014 C1015 1.400 . S
C1015 C1009 1.491 . S
C1015 C1014 1.400 . S
C1015 C1016 1.398 . S
C1016 H1004 0.950 . S
C1016 C1015 1.398 . S
C1016 C1017 1.391 . S
C1017 H1005 0.948 . S
C1017 C1013 1.393 . S
C1017 C1016 1.391 . S
H1018 C1026 0.950 . S
H1019 C1031 0.950 . S
H1020 C1028 0.950 . S
H1021 C1030 0.950 . S
H1022 C1032 0.950 . S
H1023 C1034 0.950 . S
H1024 C1036 0.950 . S
H1025 C1037 0.950 . S
C1026 H1018 0.950 . S
C1026 C1027 1.386 . S
C1026 C1028 1.391 . S
C1027 C1026 1.386 . S
C1027 C1031 1.393 . S
C1028 H1020 0.950 . S
C1028 C1026 1.391 . S
C1028 C1029 1.400 . S
C1029 C1028 1.400 . S
C1029 C1030 1.398 . S
C1029 C1035 1.491 . S
C1030 H1021 0.950 . S
C1030 C1029 1.398 . S
C1030 C1031 1.391 . S
C1031 H1019 0.950 . S
C1031 C1027 1.393 . S
C1031 C1030 1.391 . S
C1032 H1022 0.950 . S
C1032 C1033 1.386 . S
C1032 C1034 1.391 . S
C1033 C1032 1.386 . S
C1033 C1037 1.393 . S
C1034 H1023 0.950 . S
C1034 C1032 1.391 . S
C1034 C1035 1.400 . S
C1035 C1029 1.491 . S
C1035 C1034 1.400 . S
C1035 C1036 1.398 . S
C1036 H1024 0.950 . S
C1036 C1035 1.398 . S
C1036 C1037 1.391 . S
C1037 H1025 0.950 . S
C1037 C1033 1.393 . S
C1037 C1036 1.391 . S
H1038 C1046 0.950 . S
H1039 C1051 0.950 . S
H1040 C1048 0.950 . S
H1041 C1050 0.950 . S
H1042 C1052 0.950 . S
H1043 C1054 0.950 . S
H1044 C1056 0.950 . S
H1045 C1057 0.950 . S
C1046 H1038 0.950 . S
C1046 C1047 1.386 . S
C1046 C1048 1.391 . S
C1047 C1046 1.386 . S
C1047 C1051 1.393 . S
C1048 H1040 0.950 . S
C1048 C1046 1.391 . S
C1048 C1049 1.400 . S
C1049 C1048 1.400 . S
C1049 C1050 1.398 . S
C1049 C1055 1.491 . S
C1050 H1041 0.950 . S
C1050 C1049 1.398 . S
C1050 C1051 1.391 . S
C1051 H1039 0.950 . S
C1051 C1047 1.393 . S
C1051 C1050 1.391 . S
C1052 H1042 0.950 . S
C1052 C1053 1.386 . S
C1052 C1054 1.391 . S
C1053 C1052 1.386 . S
C1053 C1057 1.393 . S
C1054 H1043 0.950 . S
C1054 C1052 1.391 . S
C1054 C1055 1.400 . S
C1055 C1049 1.491 . S
C1055 C1054 1.400 . S
C1055 C1056 1.398 . S
C1056 H1044 0.950 . S
C1056 C1055 1.398 . S
C1056 C1057 1.391 . S
C1057 H1045 0.950 . S
C1057 C1053 1.393 . S
C1057 C1056 1.391 . S
H1058 C1066 0.950 . S
H1059 C1071 0.950 . S
H1060 C1068 0.950 . S
H1061 C1070 0.950 . S
H1062 C1072 0.964 . S
H1063 C1074 0.950 . S
H1064 C1076 0.950 . S
H1065 C1077 0.950 . S
C1066 H1058 0.950 . S
C1066 C1067 1.386 . S
C1066 C1068 1.391 . S
C1067 C1066 1.386 . S
C1067 C1071 1.393 . S
C1068 H1060 0.950 . S
C1068 C1066 1.391 . S
C1068 C1069 1.400 . S
C1069 C1068 1.400 . S
C1069 C1070 1.398 . S
C1069 C1075 1.491 . S
C1070 H1061 0.950 . S
C1070 C1069 1.398 . S
C1070 C1071 1.391 . S
C1071 H1059 0.950 . S
C1071 C1067 1.393 . S
C1071 C1070 1.391 . S
C1072 H1062 0.964 . S
C1072 C1073 1.386 . S
C1072 C1074 1.391 . S
C1073 C1072 1.386 . S
C1073 C1077 1.393 . S
C1074 H1063 0.950 . S
C1074 C1072 1.391 . S
C1074 C1075 1.400 . S
C1075 C1069 1.491 . S
C1075 C1074 1.400 . S
C1075 C1076 1.398 . S
C1076 H1064 0.950 . S
C1076 C1075 1.398 . S
C1076 C1077 1.391 . S
C1077 H1065 0.950 . S
C1077 C1073 1.393 . S
C1077 C1076 1.391 . S
H1078 C1086 0.950 . S
H1079 C1091 0.950 . S
H1080 C1088 0.950 . S
H1081 C1090 0.950 . S
H1082 C1092 0.950 1_554 S
H1083 C1094 0.950 . S
H1084 C1096 0.950 . S
H1085 C1097 0.950 . S
C1086 H1078 0.950 . S
C1086 C1087 1.386 . S
C1086 C1088 1.391 . S
C1087 C1086 1.386 . S
C1087 C1091 1.393 . S
C1088 H1080 0.950 . S
C1088 C1086 1.391 . S
C1088 C1089 1.400 . S
C1089 C1088 1.400 . S
C1089 C1090 1.398 . S
C1089 C1095 1.491 . S
C1090 H1081 0.950 . S
C1090 C1089 1.398 . S
C1090 C1091 1.391 . S
C1091 H1079 0.950 . S
C1091 C1087 1.393 . S
C1091 C1090 1.391 . S
C1092 H1082 0.950 1_556 S
C1092 C1093 1.386 . S
C1092 C1094 1.391 . S
C1093 C1092 1.386 . S
C1093 C1097 1.393 . S
C1094 H1083 0.950 . S
C1094 C1092 1.391 . S
C1094 C1095 1.400 . S
C1095 C1089 1.491 . S
C1095 C1094 1.400 . S
C1095 C1096 1.398 . S
C1096 H1084 0.950 . S
C1096 C1095 1.398 . S
C1096 C1097 1.391 . S
C1097 H1085 0.950 . S
C1097 C1093 1.393 . S
C1097 C1096 1.391 . S
H1098 C1106 0.950 . S
H1099 C1111 0.950 . S
H1100 C1108 0.950 . S
H1101 C1110 0.950 . S
H1102 C1112 0.950 . S
H1103 C1114 0.950 . S
H1104 C1116 0.950 . S
H1105 C1117 0.950 . S
C1106 H1098 0.950 . S
C1106 C1107 1.386 . S
C1106 C1108 1.391 . S
C1107 C1106 1.386 . S
C1107 C1111 1.393 . S
C1108 H1100 0.950 . S
C1108 C1106 1.391 . S
C1108 C1109 1.400 . S
C1109 C1108 1.400 . S
C1109 C1110 1.398 . S
C1109 C1115 1.491 . S
C1110 H1101 0.950 . S
C1110 C1109 1.398 . S
C1110 C1111 1.391 . S
C1111 H1099 0.950 . S
C1111 C1107 1.393 . S
C1111 C1110 1.391 . S
C1112 H1102 0.950 . S
C1112 C1113 1.386 . S
C1112 C1114 1.391 . S
C1113 C1112 1.386 . S
C1113 C1117 1.393 . S
C1114 H1103 0.950 . S
C1114 C1112 1.391 . S
C1114 C1115 1.400 . S
C1115 C1109 1.491 . S
C1115 C1114 1.400 . S
C1115 C1116 1.398 . S
C1116 H1104 0.950 . S
C1116 C1115 1.398 . S
C1116 C1117 1.391 . S
C1117 H1105 0.950 . S
C1117 C1113 1.393 . S
C1117 C1116 1.391 . S
H1118 C1126 0.950 . S
H1119 C1131 0.950 . S
H1120 C1128 0.950 . S
H1121 C1130 0.950 . S
H1122 C1132 0.950 . S
H1123 C1134 0.950 . S
H1124 C1136 0.950 . S
H1125 C1137 0.950 . S
C1126 H1118 0.950 . S
C1126 C1127 1.386 . S
C1126 C1128 1.391 . S
C1127 C1126 1.386 . S
C1127 C1131 1.393 . S
C1128 H1120 0.950 . S
C1128 C1126 1.391 . S
C1128 C1129 1.400 . S
C1129 C1128 1.400 . S
C1129 C1130 1.398 . S
C1129 C1135 1.491 . S
C1130 H1121 0.950 . S
C1130 C1129 1.398 . S
C1130 C1131 1.391 . S
C1131 H1119 0.950 . S
C1131 C1127 1.393 . S
C1131 C1130 1.391 . S
C1132 H1122 0.950 . S
C1132 C1133 1.386 . S
C1132 C1134 1.391 . S
C1133 C1132 1.386 . S
C1133 C1137 1.393 . S
C1134 H1123 0.950 . S
C1134 C1132 1.391 . S
C1134 C1135 1.400 . S
C1135 C1129 1.491 . S
C1135 C1134 1.400 . S
C1135 C1136 1.398 . S
C1136 H1124 0.950 . S
C1136 C1135 1.398 . S
C1136 C1137 1.391 . S
C1137 H1125 0.950 . S
C1137 C1133 1.393 . S
C1137 C1136 1.391 . S
H1138 C1146 0.950 . S
H1139 C1151 0.950 . S
H1140 C1148 0.950 . S
H1141 C1150 0.950 . S
H1142 C1152 0.950 . S
H1143 C1154 0.950 . S
H1144 C1156 0.950 . S
H1145 C1157 0.950 . S
C1146 H1138 0.950 . S
C1146 C1147 1.386 . S
C1146 C1148 1.391 . S
C1147 C1146 1.386 . S
C1147 C1151 1.393 . S
C1148 H1140 0.950 . S
C1148 C1146 1.391 . S
C1148 C1149 1.400 . S
C1149 C1148 1.400 . S
C1149 C1150 1.398 . S
C1149 C1155 1.491 . S
C1150 H1141 0.950 . S
C1150 C1149 1.398 . S
C1150 C1151 1.391 . S
C1151 H1139 0.950 . S
C1151 C1147 1.393 . S
C1151 C1150 1.391 . S
C1152 H1142 0.950 . S
C1152 C1153 1.386 . S
C1152 C1154 1.391 . S
C1153 C1152 1.386 . S
C1153 C1157 1.393 . S
C1154 H1143 0.950 . S
C1154 C1152 1.391 . S
C1154 C1155 1.400 . S
C1155 C1149 1.491 . S
C1155 C1154 1.400 . S
C1155 C1156 1.398 . S
C1156 H1144 0.950 . S
C1156 C1155 1.398 . S
C1156 C1157 1.391 . S
C1157 H1145 0.950 . S
C1157 C1153 1.393 . S
C1157 C1156 1.391 . S
H1158 C1166 0.950 . S
H1159 C1171 0.950 . S
H1160 C1168 0.950 . S
H1161 C1170 0.950 1_455 S
H1162 C1172 0.950 . S
H1163 C1174 0.950 . S
H1164 C1176 0.950 . S
H1165 C1177 0.950 . S
C1166 H1158 0.950 . S
C1166 C1167 1.386 . S
C1166 C1168 1.391 . S
C1167 C1166 1.386 . S
C1167 C1171 1.393 . S
C1168 H1160 0.950 . S
C1168 C1166 1.391 . S
C1168 C1169 1.434 . S
C1169 C1168 1.434 . S
C1169 C1170 1.390 . S
C1169 C1175 1.466 1_655 S
C1170 H1161 0.950 1_655 S
C1170 C1169 1.390 . S
C1170 C1171 1.391 . S
C1171 H1159 0.950 . S
C1171 C1167 1.393 . S
C1171 C1170 1.391 . S
C1172 H1162 0.950 . S
C1172 C1173 1.386 . S
C1172 C1174 1.391 . S
C1173 C1172 1.386 . S
C1173 C1177 1.393 . S
C1174 H1163 0.950 . S
C1174 C1172 1.391 . S
C1174 C1175 1.400 . S
C1175 C1169 1.466 1_455 S
C1175 C1174 1.400 . S
C1175 C1176 1.398 . S
C1176 H1164 0.950 . S
C1176 C1175 1.398 . S
C1176 C1177 1.391 . S
C1177 H1165 0.950 . S
C1177 C1173 1.393 . S
C1177 C1176 1.391 . S
H1178 C1186 0.950 . S
H1179 C1191 0.950 . S
H1180 C1188 0.950 . S
H1181 C1190 0.950 . S
H1182 C1192 0.950 . S
H1183 C1194 0.950 . S
H1184 C1196 0.950 . S
H1185 C1197 0.950 . S
C1186 H1178 0.950 . S
C1186 C1187 1.386 . S
C1186 C1188 1.391 . S
C1187 C1186 1.386 . S
C1187 C1191 1.393 . S
C1188 H1180 0.950 . S
C1188 C1186 1.391 . S
C1188 C1189 1.400 . S
C1189 C1188 1.400 . S
C1189 C1190 1.398 . S
C1189 C1195 1.491 . S
C1190 H1181 0.950 . S
C1190 C1189 1.398 . S
C1190 C1191 1.391 . S
C1191 H1179 0.950 . S
C1191 C1187 1.393 . S
C1191 C1190 1.391 . S
C1192 H1182 0.950 . S
C1192 C1193 1.386 . S
C1192 C1194 1.391 . S
C1193 C1192 1.386 . S
C1193 C1197 1.393 . S
C1194 H1183 0.950 . S
C1194 C1192 1.391 . S
C1194 C1195 1.400 . S
C1195 C1189 1.491 . S
C1195 C1194 1.400 . S
C1195 C1196 1.398 . S
C1196 H1184 0.950 . S
C1196 C1195 1.398 . S
C1196 C1197 1.391 . S
C1197 H1185 0.950 . S
C1197 C1193 1.393 . S
C1197 C1196 1.391 . S
H1198 C1206 0.950 . S
H1199 C1211 0.950 . S
H1200 C1208 0.950 . S
H1201 C1210 0.950 . S
H1202 C1212 0.950 . S
H1203 C1214 0.950 . S
H1204 C1216 0.950 . S
H1205 C1217 0.950 . S
C1206 H1198 0.950 . S
C1206 C1207 1.386 . S
C1206 C1208 1.391 . S
C1207 C1206 1.386 . S
C1207 C1211 1.393 . S
C1208 H1200 0.950 . S
C1208 C1206 1.391 . S
C1208 C1209 1.400 . S
C1209 C1208 1.400 . S
C1209 C1210 1.398 . S
C1209 C1215 1.491 1_545 S
C1210 H1201 0.950 . S
C1210 C1209 1.398 . S
C1210 C1211 1.391 . S
C1211 H1199 0.950 . S
C1211 C1207 1.393 . S
C1211 C1210 1.391 . S
C1212 H1202 0.950 . S
C1212 C1213 1.386 . S
C1212 C1214 1.391 . S
C1213 C1212 1.386 . S
C1213 C1217 1.393 . S
C1214 H1203 0.950 . S
C1214 C1212 1.391 . S
C1214 C1215 1.400 . S
C1215 C1209 1.491 1_565 S
C1215 C1214 1.400 . S
C1215 C1216 1.398 . S
C1216 H1204 0.950 . S
C1216 C1215 1.398 . S
C1216 C1217 1.391 . S
C1217 H1205 0.950 . S
C1217 C1213 1.393 . S
C1217 C1216 1.391 . S
H1218 C1226 0.950 . S
H1219 C1231 0.950 . S
H1220 C1228 0.950 . S
H1221 C1230 0.950 . S
H1222 C1232 0.950 . S
H1223 C1234 0.950 . S
H1224 C1236 0.950 . S
H1225 C1237 0.950 . S
C1226 H1218 0.950 . S
C1226 C1227 1.386 . S
C1226 C1228 1.391 . S
C1227 C1226 1.386 . S
C1227 C1231 1.393 . S
C1228 H1220 0.950 . S
C1228 C1226 1.391 . S
C1228 C1229 1.400 . S
C1229 C1228 1.400 . S
C1229 C1230 1.398 . S
C1229 C1235 1.491 . S
C1230 H1221 0.950 . S
C1230 C1229 1.398 . S
C1230 C1231 1.391 . S
C1231 H1219 0.950 . S
C1231 C1227 1.393 . S
C1231 C1230 1.391 . S
C1232 H1222 0.950 . S
C1232 C1233 1.386 . S
C1232 C1234 1.391 . S
C1233 C1232 1.386 . S
C1233 C1237 1.393 . S
C1234 H1223 0.950 . S
C1234 C1232 1.391 . S
C1234 C1235 1.400 . S
C1235 C1229 1.491 . S
C1235 C1234 1.400 . S
C1235 C1236 1.398 . S
C1236 H1224 0.950 . S
C1236 C1235 1.398 . S
C1236 C1237 1.391 . S
C1237 H1225 0.950 . S
C1237 C1233 1.393 . S
C1237 C1236 1.391 . S
H1238 C1246 0.950 . S
H1239 C1251 0.950 . S
H1240 C1248 0.950 . S
H1241 C1250 0.950 . S
H1242 C1252 0.950 . S
H1243 C1254 0.950 . S
H1244 C1256 0.950 . S
H1245 C1257 0.950 . S
C1246 H1238 0.950 . S
C1246 C1247 1.386 . S
C1246 C1248 1.391 . S
C1247 C1246 1.386 . S
C1247 C1251 1.393 . S
C1248 H1240 0.950 . S
C1248 C1246 1.391 . S
C1248 C1249 1.400 . S
C1249 C1248 1.400 . S
C1249 C1250 1.398 . S
C1249 C1255 1.491 . S
C1250 H1241 0.950 . S
C1250 C1249 1.398 . S
C1250 C1251 1.391 . S
C1251 H1239 0.950 . S
C1251 C1247 1.393 . S
C1251 C1250 1.391 . S
C1252 H1242 0.950 . S
C1252 C1253 1.386 . S
C1252 C1254 1.391 . S
C1253 C1252 1.386 . S
C1253 C1257 1.393 . S
C1254 H1243 0.950 . S
C1254 C1252 1.391 . S
C1254 C1255 1.400 . S
C1255 C1249 1.491 . S
C1255 C1254 1.400 . S
C1255 C1256 1.398 . S
C1256 H1244 0.950 . S
C1256 C1255 1.398 . S
C1256 C1257 1.391 . S
C1257 H1245 0.950 . S
C1257 C1253 1.393 . S
C1257 C1256 1.391 . S
H1258 C1266 0.950 . S
H1259 C1271 0.950 . S
H1260 C1268 0.950 . S
H1261 C1270 0.950 . S
H1262 C1272 0.950 . S
H1263 C1274 0.950 . S
H1264 C1276 0.950 . S
H1265 C1277 0.950 . S
C1266 H1258 0.950 . S
C1266 C1267 1.386 . S
C1266 C1268 1.391 . S
C1267 C1266 1.386 . S
C1267 C1271 1.393 . S
C1268 H1260 0.950 . S
C1268 C1266 1.391 . S
C1268 C1269 1.400 . S
C1269 C1268 1.400 . S
C1269 C1270 1.398 . S
C1269 C1275 1.491 . S
C1270 H1261 0.950 . S
C1270 C1269 1.398 . S
C1270 C1271 1.391 . S
C1271 H1259 0.950 . S
C1271 C1267 1.393 . S
C1271 C1270 1.391 . S
C1272 H1262 0.950 . S
C1272 C1273 1.386 . S
C1272 C1274 1.391 . S
C1273 C1272 1.386 . S
C1273 C1277 1.393 . S
C1274 H1263 0.950 . S
C1274 C1272 1.391 . S
C1274 C1275 1.400 . S
C1275 C1269 1.491 . S
C1275 C1274 1.400 . S
C1275 C1276 1.398 . S
C1276 H1264 0.950 . S
C1276 C1275 1.398 . S
C1276 C1277 1.391 . S
C1277 H1265 0.950 . S
C1277 C1273 1.393 . S
C1277 C1276 1.391 . S
H1278 C1286 0.950 . S
H1279 C1291 0.950 . S
H1280 C1288 0.950 . S
H1281 C1290 0.950 . S
H1282 C1292 0.950 . S
H1283 C1294 0.950 . S
H1284 C1296 0.950 . S
H1285 C1297 0.950 . S
C1286 H1278 0.950 . S
C1286 C1287 1.386 . S
C1286 C1288 1.391 . S
C1287 C1286 1.386 . S
C1287 C1291 1.393 . S
C1288 H1280 0.950 . S
C1288 C1286 1.391 . S
C1288 C1289 1.400 . S
C1289 C1288 1.400 . S
C1289 C1290 1.398 . S
C1289 C1295 1.491 . S
C1290 H1281 0.950 . S
C1290 C1289 1.398 . S
C1290 C1291 1.391 . S
C1291 H1279 0.950 . S
C1291 C1287 1.393 . S
C1291 C1290 1.391 . S
C1292 H1282 0.950 . S
C1292 C1293 1.386 . S
C1292 C1294 1.391 . S
C1293 C1292 1.386 . S
C1293 C1297 1.393 . S
C1294 H1283 0.950 . S
C1294 C1292 1.391 . S
C1294 C1295 1.400 . S
C1295 C1289 1.491 . S
C1295 C1294 1.400 . S
C1295 C1296 1.398 . S
C1296 H1284 0.950 . S
C1296 C1295 1.398 . S
C1296 C1297 1.391 . S
C1297 H1285 0.950 . S
C1297 C1293 1.393 . S
C1297 C1296 1.391 . S
H1298 C1306 0.950 . S
H1299 C1311 0.950 . S
H1300 C1308 0.950 . S
H1301 C1310 0.950 . S
H1302 C1312 0.950 . S
H1303 C1314 0.950 . S
H1304 C1316 0.950 . S
H1305 C1317 0.950 . S
C1306 H1298 0.950 . S
C1306 C1307 1.386 . S
C1306 C1308 1.391 . S
C1307 C1306 1.386 . S
C1307 C1311 1.393 . S
C1308 H1300 0.950 . S
C1308 C1306 1.391 . S
C1308 C1309 1.400 . S
C1309 C1308 1.400 . S
C1309 C1310 1.398 . S
C1309 C1315 1.491 . S
C1310 H1301 0.950 . S
C1310 C1309 1.398 . S
C1310 C1311 1.391 . S
C1311 H1299 0.950 . S
C1311 C1307 1.393 . S
C1311 C1310 1.391 . S
C1312 H1302 0.950 . S
C1312 C1313 1.386 . S
C1312 C1314 1.391 . S
C1313 C1312 1.386 . S
C1313 C1317 1.393 . S
C1314 H1303 0.950 . S
C1314 C1312 1.391 . S
C1314 C1315 1.400 . S
C1315 C1309 1.491 . S
C1315 C1314 1.400 . S
C1315 C1316 1.398 . S
C1316 H1304 0.950 . S
C1316 C1315 1.398 . S
C1316 C1317 1.391 . S
C1317 H1305 0.950 . S
C1317 C1313 1.393 . S
C1317 C1316 1.391 . S
H1318 C1326 0.950 . S
H1319 C1331 0.950 . S
H1320 C1328 0.950 . S
H1321 C1330 0.950 . S
H1322 C1332 0.950 . S
H1323 C1334 0.950 . S
H1324 C1336 0.950 . S
H1325 C1337 0.950 . S
C1326 H1318 0.950 . S
C1326 C1327 1.386 . S
C1326 C1328 1.391 . S
C1327 C1326 1.386 . S
C1327 C1331 1.393 . S
C1328 H1320 0.950 . S
C1328 C1326 1.391 . S
C1328 C1329 1.400 . S
C1329 C1328 1.400 . S
C1329 C1330 1.398 . S
C1329 C1335 1.491 . S
C1330 H1321 0.950 . S
C1330 C1329 1.398 . S
C1330 C1331 1.391 . S
C1331 H1319 0.950 . S
C1331 C1327 1.393 . S
C1331 C1330 1.391 . S
C1332 H1322 0.950 . S
C1332 C1333 1.386 . S
C1332 C1334 1.391 . S
C1333 C1332 1.386 . S
C1333 C1337 1.393 . S
C1334 H1323 0.950 . S
C1334 C1332 1.391 . S
C1334 C1335 1.400 . S
C1335 C1329 1.491 . S
C1335 C1334 1.400 . S
C1335 C1336 1.398 . S
C1336 H1324 0.950 . S
C1336 C1335 1.398 . S
C1336 C1337 1.391 . S
C1337 H1325 0.950 . S
C1337 C1333 1.393 . S
C1337 C1336 1.391 . S
H1338 C1346 0.950 . S
H1339 C1351 0.950 . S
H1340 C1348 0.950 1_565 S
H1341 C1350 0.950 . S
H1342 C1352 0.950 . S
H1343 C1354 0.950 . S
H1344 C1356 0.950 . S
H1345 C1357 0.950 . S
C1346 H1338 0.950 . S
C1346 C1347 1.386 . S
C1346 C1348 1.391 . S
C1347 C1346 1.386 . S
C1347 C1351 1.393 . S
C1348 H1340 0.950 1_545 S
C1348 C1346 1.391 . S
C1348 C1349 1.400 . S
C1349 C1348 1.400 . S
C1349 C1350 1.398 . S
C1349 C1355 1.491 1_545 S
C1350 H1341 0.950 . S
C1350 C1349 1.398 . S
C1350 C1351 1.391 . S
C1351 H1339 0.950 . S
C1351 C1347 1.393 . S
C1351 C1350 1.391 . S
C1352 H1342 0.950 . S
C1352 C1353 1.386 . S
C1352 C1354 1.391 . S
C1353 C1352 1.386 . S
C1353 C1357 1.393 . S
C1354 H1343 0.950 . S
C1354 C1352 1.391 . S
C1354 C1355 1.400 . S
C1355 C1349 1.491 1_565 S
C1355 C1354 1.400 . S
C1355 C1356 1.398 . S
C1356 H1344 0.950 . S
C1356 C1355 1.398 . S
C1356 C1357 1.391 . S
C1357 H1345 0.950 . S
C1357 C1353 1.393 . S
C1357 C1356 1.391 . S
H1358 C1366 0.950 . S
H1359 C1371 0.950 . S
H1360 C1368 0.950 . S
H1361 C1370 0.950 1_455 S
H1362 C1372 0.950 . S
H1363 C1374 0.950 . S
H1364 C1376 0.950 . S
H1365 C1377 0.950 . S
C1366 H1358 0.950 . S
C1366 C1367 1.386 . S
C1366 C1368 1.391 . S
C1367 C1366 1.386 . S
C1367 C1371 1.393 . S
C1368 H1360 0.950 . S
C1368 C1366 1.391 . S
C1368 C1369 1.400 1_655 S
C1369 C1368 1.400 1_455 S
C1369 C1370 1.398 1_455 S
C1369 C1375 1.491 . S
C1370 H1361 0.950 1_655 S
C1370 C1369 1.398 1_655 S
C1370 C1371 1.391 . S
C1371 H1359 0.950 . S
C1371 C1367 1.393 . S
C1371 C1370 1.391 . S
C1372 H1362 0.950 . S
C1372 C1373 1.386 . S
C1372 C1374 1.391 . S
C1373 C1372 1.386 . S
C1373 C1377 1.393 . S
C1374 H1363 0.950 . S
C1374 C1372 1.391 . S
C1374 C1375 1.400 . S
C1375 C1369 1.491 . S
C1375 C1374 1.400 . S
C1375 C1376 1.398 . S
C1376 H1364 0.950 . S
C1376 C1375 1.398 . S
C1376 C1377 1.391 . S
C1377 H1365 0.950 . S
C1377 C1373 1.393 . S
C1377 C1376 1.391 . S
H1378 C1386 0.950 . S
H1379 C1391 0.950 . S
H1380 C1388 0.950 . S
H1381 C1390 0.950 . S
H1382 C1392 0.950 . S
H1383 C1394 0.950 . S
H1384 C1396 0.950 . S
H1385 C1397 0.950 . S
C1386 H1378 0.950 . S
C1386 C1387 1.386 . S
C1386 C1388 1.391 . S
C1387 C1386 1.386 . S
C1387 C1391 1.393 . S
C1388 H1380 0.950 . S
C1388 C1386 1.391 . S
C1388 C1389 1.400 . S
C1389 C1388 1.400 . S
C1389 C1390 1.398 . S
C1389 C1395 1.491 . S
C1390 H1381 0.950 . S
C1390 C1389 1.398 . S
C1390 C1391 1.391 . S
C1391 H1379 0.950 . S
C1391 C1387 1.393 . S
C1391 C1390 1.391 . S
C1392 H1382 0.950 . S
C1392 C1393 1.386 . S
C1392 C1394 1.391 . S
C1393 C1392 1.386 . S
C1393 C1397 1.393 . S
C1394 H1383 0.950 . S
C1394 C1392 1.391 . S
C1394 C1395 1.400 . S
C1395 C1389 1.491 . S
C1395 C1394 1.400 . S
C1395 C1396 1.398 . S
C1396 H1384 0.950 . S
C1396 C1395 1.398 . S
C1396 C1397 1.391 . S
C1397 H1385 0.950 . S
C1397 C1393 1.393 . S
C1397 C1396 1.391 . S
H1398 C1406 0.950 . S
H1399 C1411 0.950 . S
H1400 C1408 0.950 . S
H1401 C1410 0.950 . S
H1402 C1412 0.950 . S
H1403 C1414 0.950 . S
H1404 C1416 0.950 . S
H1405 C1417 0.950 . S
C1406 H1398 0.950 . S
C1406 C1407 1.386 . S
C1406 C1408 1.391 . S
C1407 C1406 1.386 . S
C1407 C1411 1.393 . S
C1408 H1400 0.950 . S
C1408 C1406 1.391 . S
C1408 C1409 1.400 . S
C1409 C1408 1.400 . S
C1409 C1410 1.398 . S
C1409 C1415 1.491 . S
C1410 H1401 0.950 . S
C1410 C1409 1.398 . S
C1410 C1411 1.391 . S
C1411 H1399 0.950 . S
C1411 C1407 1.393 . S
C1411 C1410 1.391 . S
C1412 H1402 0.950 . S
C1412 C1413 1.386 . S
C1412 C1414 1.391 . S
C1413 C1412 1.386 . S
C1413 C1417 1.393 . S
C1414 H1403 0.950 . S
C1414 C1412 1.391 . S
C1414 C1415 1.400 . S
C1415 C1409 1.491 . S
C1415 C1414 1.400 . S
C1415 C1416 1.398 . S
C1416 H1404 0.950 . S
C1416 C1415 1.398 . S
C1416 C1417 1.391 . S
C1417 H1405 0.950 . S
C1417 C1413 1.393 . S
C1417 C1416 1.391 . S
H1418 C1426 0.950 . S
H1419 C1431 0.950 . S
H1420 C1428 0.950 . S
H1421 C1430 0.950 . S
H1422 C1432 0.950 . S
H1423 C1434 0.950 . S
H1424 C1436 0.950 . S
H1425 C1437 0.950 . S
C1426 H1418 0.950 . S
C1426 C1427 1.386 . S
C1426 C1428 1.391 . S
C1427 C1426 1.386 . S
C1427 C1431 1.393 . S
C1428 H1420 0.950 . S
C1428 C1426 1.391 . S
C1428 C1429 1.400 . S
C1429 C1428 1.400 . S
C1429 C1430 1.398 . S
C1429 C1435 1.491 . S
C1430 H1421 0.950 . S
C1430 C1429 1.398 . S
C1430 C1431 1.391 . S
C1431 H1419 0.950 . S
C1431 C1427 1.393 . S
C1431 C1430 1.391 . S
C1432 H1422 0.950 . S
C1432 C1433 1.386 . S
C1432 C1434 1.391 . S
C1433 C1432 1.386 . S
C1433 C1437 1.393 . S
C1434 H1423 0.950 . S
C1434 C1432 1.391 . S
C1434 C1435 1.400 . S
C1435 C1429 1.491 . S
C1435 C1434 1.400 . S
C1435 C1436 1.398 . S
C1436 H1424 0.950 . S
C1436 C1435 1.398 . S
C1436 C1437 1.391 . S
C1437 H1425 0.950 . S
C1437 C1433 1.393 . S
C1437 C1436 1.391 . S
H1438 C1446 0.950 . S
H1439 C1451 0.950 . S
H1440 C1448 0.950 . S
H1441 C1450 0.950 . S
H1442 C1452 0.950 . S
H1443 C1454 0.950 . S
H1444 C1456 0.950 . S
H1445 C1457 0.950 . S
C1446 H1438 0.950 . S
C1446 C1447 1.386 . S
C1446 C1448 1.391 . S
C1447 C1446 1.386 . S
C1447 C1451 1.393 . S
C1448 H1440 0.950 . S
C1448 C1446 1.391 . S
C1448 C1449 1.400 . S
C1449 C1448 1.400 . S
C1449 C1450 1.398 . S
C1449 C1455 1.491 . S
C1450 H1441 0.950 . S
C1450 C1449 1.398 . S
C1450 C1451 1.391 . S
C1451 H1439 0.950 . S
C1451 C1447 1.393 . S
C1451 C1450 1.391 . S
C1452 H1442 0.950 . S
C1452 C1453 1.386 . S
C1452 C1454 1.391 . S
C1453 C1452 1.386 . S
C1453 C1457 1.393 . S
C1454 H1443 0.950 . S
C1454 C1452 1.391 . S
C1454 C1455 1.400 . S
C1455 C1449 1.491 . S
C1455 C1454 1.400 . S
C1455 C1456 1.398 . S
C1456 H1444 0.950 . S
C1456 C1455 1.398 . S
C1456 C1457 1.391 . S
C1457 H1445 0.950 . S
C1457 C1453 1.393 . S
C1457 C1456 1.391 . S
H1458 C1466 0.950 . S
H1459 C1471 0.950 . S
H1460 C1468 0.950 1_545 S
H1461 C1470 0.950 . S
H1462 C1472 0.950 . S
H1463 C1474 0.950 . S
H1464 C1476 0.950 . S
H1465 C1477 0.950 . S
C1466 H1458 0.950 . S
C1466 C1467 1.386 . S
C1466 C1468 1.391 . S
C1467 C1466 1.386 . S
C1467 C1471 1.393 . S
C1468 H1460 0.950 1_565 S
C1468 C1466 1.391 . S
C1468 C1469 1.400 . S
C1469 C1468 1.400 . S
C1469 C1470 1.398 . S
C1469 C1475 1.491 1_565 S
C1470 H1461 0.950 . S
C1470 C1469 1.398 . S
C1470 C1471 1.391 . S
C1471 H1459 0.950 . S
C1471 C1467 1.393 . S
C1471 C1470 1.391 . S
C1472 H1462 0.950 . S
C1472 C1473 1.386 . S
C1472 C1474 1.391 . S
C1473 C1472 1.386 . S
C1473 C1477 1.393 . S
C1474 H1463 0.950 . S
C1474 C1472 1.391 . S
C1474 C1475 1.400 . S
C1475 C1469 1.491 1_545 S
C1475 C1474 1.400 . S
C1475 C1476 1.398 . S
C1476 H1464 0.950 . S
C1476 C1475 1.398 . S
C1476 C1477 1.391 . S
C1477 H1465 0.950 . S
C1477 C1473 1.393 . S
C1477 C1476 1.391 . S
H1478 C1486 0.950 . S
H1479 C1491 0.950 . S
H1480 C1488 0.950 1_655 S
H1481 C1490 0.950 . S
H1482 C1492 0.950 . S
H1483 C1494 0.950 . S
H1484 C1496 0.950 . S
H1485 C1497 0.950 . S
C1486 H1478 0.950 . S
C1486 C1487 1.386 . S
C1486 C1488 1.391 . S
C1487 C1486 1.386 . S
C1487 C1491 1.393 . S
C1488 H1480 0.950 1_455 S
C1488 C1486 1.391 . S
C1488 C1489 1.402 . S
C1489 C1488 1.402 . S
C1489 C1490 1.428 . S
C1489 C1495 1.460 1_455 S
C1490 H1481 0.950 . S
C1490 C1489 1.428 . S
C1490 C1491 1.391 . S
C1491 H1479 0.950 . S
C1491 C1487 1.393 . S
C1491 C1490 1.391 . S
C1492 H1482 0.950 . S
C1492 C1493 1.386 . S
C1492 C1494 1.391 . S
C1493 C1492 1.386 . S
C1493 C1497 1.393 . S
C1494 H1483 0.950 . S
C1494 C1492 1.391 . S
C1494 C1495 1.400 . S
C1495 C1489 1.460 1_655 S
C1495 C1494 1.400 . S
C1495 C1496 1.398 . S
C1496 H1484 0.950 . S
C1496 C1495 1.398 . S
C1496 C1497 1.391 . S
C1497 H1485 0.950 . S
C1497 C1493 1.393 . S
C1497 C1496 1.391 . S
H1498 C1506 0.950 . S
H1499 C1511 0.950 . S
H1500 C1508 0.950 . S
H1501 C1510 0.950 . S
H1502 C1512 0.950 . S
H1503 C1514 0.950 . S
H1504 C1516 0.950 . S
H1505 C1517 0.950 . S
C1506 H1498 0.950 . S
C1506 C1507 1.386 . S
C1506 C1508 1.391 . S
C1507 C1506 1.386 . S
C1507 C1511 1.393 . S
C1508 H1500 0.950 . S
C1508 C1506 1.391 . S
C1508 C1509 1.400 . S
C1509 C1508 1.400 . S
C1509 C1510 1.398 . S
C1509 C1515 1.491 . S
C1510 H1501 0.950 . S
C1510 C1509 1.398 . S
C1510 C1511 1.391 . S
C1511 H1499 0.950 . S
C1511 C1507 1.393 . S
C1511 C1510 1.391 . S
C1512 H1502 0.950 . S
C1512 C1513 1.386 . S
C1512 C1514 1.391 . S
C1513 C1512 1.386 . S
C1513 C1517 1.393 . S
C1514 H1503 0.950 . S
C1514 C1512 1.391 . S
C1514 C1515 1.400 . S
C1515 C1509 1.491 . S
C1515 C1514 1.400 . S
C1515 C1516 1.398 . S
C1516 H1504 0.950 . S
C1516 C1515 1.398 . S
C1516 C1517 1.391 . S
C1517 H1505 0.950 . S
C1517 C1513 1.393 . S
C1517 C1516 1.391 . S
H1518 C1526 0.950 . S
H1519 C1531 0.950 . S
H1520 C1528 0.950 . S
H1521 C1530 0.950 1_655 S
H1522 C1532 0.950 . S
H1523 C1534 0.950 . S
H1524 C1536 0.950 . S
H1525 C1537 0.950 . S
C1526 H1518 0.950 . S
C1526 C1527 1.386 . S
C1526 C1528 1.391 . S
C1527 C1526 1.386 . S
C1527 C1531 1.393 . S
C1528 H1520 0.950 . S
C1528 C1526 1.391 . S
C1528 C1529 1.400 . S
C1529 C1528 1.400 . S
C1529 C1530 1.398 . S
C1529 C1535 1.491 1_455 S
C1530 H1521 0.950 1_455 S
C1530 C1529 1.398 . S
C1530 C1531 1.391 . S
C1531 H1519 0.950 . S
C1531 C1527 1.393 . S
C1531 C1530 1.391 . S
C1532 H1522 0.950 . S
C1532 C1533 1.386 . S
C1532 C1534 1.391 . S
C1533 C1532 1.386 . S
C1533 C1537 1.393 . S
C1534 H1523 0.950 . S
C1534 C1532 1.391 . S
C1534 C1535 1.400 . S
C1535 C1529 1.491 1_655 S
C1535 C1534 1.400 . S
C1535 C1536 1.398 . S
C1536 H1524 0.950 . S
C1536 C1535 1.398 . S
C1536 C1537 1.391 . S
C1537 H1525 0.950 . S
C1537 C1533 1.393 . S
C1537 C1536 1.391 . S
H1538 C1546 0.950 . S
H1539 C1551 0.950 . S
H1540 C1548 0.950 . S
H1541 C1550 0.950 . S
H1542 C1552 0.950 . S
H1543 C1554 0.950 . S
H1544 C1556 0.950 . S
H1545 C1557 0.950 . S
C1546 H1538 0.950 . S
C1546 C1547 1.386 . S
C1546 C1548 1.391 . S
C1547 C1546 1.386 . S
C1547 C1551 1.393 . S
C1548 H1540 0.950 . S
C1548 C1546 1.391 . S
C1548 C1549 1.400 . S
C1549 C1548 1.400 . S
C1549 C1550 1.398 . S
C1549 C1555 1.491 . S
C1550 H1541 0.950 . S
C1550 C1549 1.398 . S
C1550 C1551 1.391 . S
C1551 H1539 0.950 . S
C1551 C1547 1.393 . S
C1551 C1550 1.391 . S
C1552 H1542 0.950 . S
C1552 C1553 1.386 . S
C1552 C1554 1.391 . S
C1553 C1552 1.386 . S
C1553 C1557 1.393 . S
C1554 H1543 0.950 . S
C1554 C1552 1.391 . S
C1554 C1555 1.400 . S
C1555 C1549 1.491 . S
C1555 C1554 1.400 . S
C1555 C1556 1.398 . S
C1556 H1544 0.950 . S
C1556 C1555 1.398 . S
C1556 C1557 1.391 . S
C1557 H1545 0.950 . S
C1557 C1553 1.393 . S
C1557 C1556 1.391 . S
H1558 C1566 0.950 . S
H1559 C1571 0.950 . S
H1560 C1568 0.950 . S
H1561 C1570 0.950 . S
H1562 C1572 0.950 . S
H1563 C1574 0.950 . S
H1564 C1576 0.950 . S
H1565 C1577 0.950 . S
C1566 H1558 0.950 . S
C1566 C1567 1.386 . S
C1566 C1568 1.391 . S
C1567 C1566 1.386 . S
C1567 C1571 1.393 . S
C1568 H1560 0.950 . S
C1568 C1566 1.391 . S
C1568 C1569 1.400 . S
C1569 C1568 1.400 . S
C1569 C1570 1.398 . S
C1569 C1575 1.491 1_565 S
C1570 H1561 0.950 . S
C1570 C1569 1.398 . S
C1570 C1571 1.391 . S
C1571 H1559 0.950 . S
C1571 C1567 1.393 . S
C1571 C1570 1.391 . S
C1572 H1562 0.950 . S
C1572 C1573 1.386 . S
C1572 C1574 1.391 . S
C1573 C1572 1.386 . S
C1573 C1577 1.393 . S
C1574 H1563 0.950 . S
C1574 C1572 1.391 . S
C1574 C1575 1.400 . S
C1575 C1569 1.491 1_545 S
C1575 C1574 1.400 . S
C1575 C1576 1.398 . S
C1576 H1564 0.950 . S
C1576 C1575 1.398 . S
C1576 C1577 1.391 . S
C1577 H1565 0.950 . S
C1577 C1573 1.393 . S
C1577 C1576 1.391 . S
H1578 C1586 0.950 . S
H1579 C1591 0.950 . S
H1580 C1588 0.950 . S
H1581 C1590 0.950 . S
H1582 C1592 0.950 . S
H1583 C1594 0.950 . S
H1584 C1596 0.950 . S
H1585 C1597 0.950 . S
C1586 H1578 0.950 . S
C1586 C1587 1.386 . S
C1586 C1588 1.391 . S
C1587 C1586 1.386 . S
C1587 C1591 1.393 . S
C1588 H1580 0.950 . S
C1588 C1586 1.391 . S
C1588 C1589 1.400 . S
C1589 C1588 1.400 . S
C1589 C1590 1.398 . S
C1589 C1595 1.491 . S
C1590 H1581 0.950 . S
C1590 C1589 1.398 . S
C1590 C1591 1.391 . S
C1591 H1579 0.950 . S
C1591 C1587 1.393 . S
C1591 C1590 1.391 . S
C1592 H1582 0.950 . S
C1592 C1593 1.386 . S
C1592 C1594 1.391 . S
C1593 C1592 1.386 . S
C1593 C1597 1.393 . S
C1594 H1583 0.950 . S
C1594 C1592 1.391 . S
C1594 C1595 1.400 . S
C1595 C1589 1.491 . S
C1595 C1594 1.400 . S
C1595 C1596 1.398 . S
C1596 H1584 0.950 . S
C1596 C1595 1.398 . S
C1596 C1597 1.391 . S
C1597 H1585 0.950 . S
C1597 C1593 1.393 . S
C1597 C1596 1.391 . S
H1598 C1606 0.950 . S
H1599 C1611 0.950 . S
H1600 C1608 0.950 . S
H1601 C1610 0.950 . S
H1602 C1612 0.950 . S
H1603 C1614 0.950 . S
H1604 C1616 0.950 . S
H1605 C1617 0.950 . S
C1606 H1598 0.950 . S
C1606 C1607 1.386 . S
C1606 C1608 1.391 . S
C1607 C1606 1.386 . S
C1607 C1611 1.393 . S
C1608 H1600 0.950 . S
C1608 C1606 1.391 . S
C1608 C1609 1.400 . S
C1609 C1608 1.400 . S
C1609 C1610 1.398 . S
C1609 C1615 1.491 . S
C1610 H1601 0.950 . S
C1610 C1609 1.398 . S
C1610 C1611 1.391 . S
C1611 H1599 0.950 . S
C1611 C1607 1.393 . S
C1611 C1610 1.391 . S
C1612 H1602 0.950 . S
C1612 C1613 1.386 . S
C1612 C1614 1.391 . S
C1613 C1612 1.386 . S
C1613 C1617 1.393 . S
C1614 H1603 0.950 . S
C1614 C1612 1.391 . S
C1614 C1615 1.400 . S
C1615 C1609 1.491 . S
C1615 C1614 1.400 . S
C1615 C1616 1.398 . S
C1616 H1604 0.950 . S
C1616 C1615 1.398 . S
C1616 C1617 1.391 . S
C1617 H1605 0.950 . S
C1617 C1613 1.393 . S
C1617 C1616 1.391 . S
H1618 C1626 0.950 . S
H1619 C1631 0.950 . S
H1620 C1628 0.950 . S
H1621 C1630 0.950 . S
H1622 C1632 0.950 . S
H1623 C1634 0.950 . S
H1624 C1636 0.950 . S
H1625 C1637 0.950 . S
C1626 H1618 0.950 . S
C1626 C1627 1.386 . S
C1626 C1628 1.391 . S
C1627 C1626 1.386 . S
C1627 C1631 1.393 . S
C1628 H1620 0.950 . S
C1628 C1626 1.391 . S
C1628 C1629 1.400 . S
C1629 C1628 1.400 . S
C1629 C1630 1.398 . S
C1629 C1635 1.491 . S
C1630 H1621 0.950 . S
C1630 C1629 1.398 . S
C1630 C1631 1.391 . S
C1631 H1619 0.950 . S
C1631 C1627 1.393 . S
C1631 C1630 1.391 . S
C1632 H1622 0.950 . S
C1632 C1633 1.386 . S
C1632 C1634 1.391 . S
C1633 C1632 1.386 . S
C1633 C1637 1.393 . S
C1634 H1623 0.950 . S
C1634 C1632 1.391 . S
C1634 C1635 1.400 . S
C1635 C1629 1.491 . S
C1635 C1634 1.400 . S
C1635 C1636 1.398 . S
C1636 H1624 0.950 . S
C1636 C1635 1.398 . S
C1636 C1637 1.391 . S
C1637 H1625 0.950 . S
C1637 C1633 1.393 . S
C1637 C1636 1.391 . S
H1638 C1646 0.950 . S
H1639 C1651 0.950 . S
H1640 C1648 0.950 . S
H1641 C1650 0.950 . S
H1642 C1652 0.950 . S
H1643 C1654 0.950 . S
H1644 C1656 0.950 . S
H1645 C1657 0.950 . S
C1646 H1638 0.950 . S
C1646 C1647 1.386 . S
C1646 C1648 1.391 . S
C1647 C1646 1.386 . S
C1647 C1651 1.393 . S
C1648 H1640 0.950 . S
C1648 C1646 1.391 . S
C1648 C1649 1.400 . S
C1649 C1648 1.400 . S
C1649 C1650 1.398 . S
C1649 C1655 1.491 . S
C1650 H1641 0.950 . S
C1650 C1649 1.398 . S
C1650 C1651 1.391 . S
C1651 H1639 0.950 . S
C1651 C1647 1.393 . S
C1651 C1650 1.391 . S
C1652 H1642 0.950 . S
C1652 C1653 1.386 . S
C1652 C1654 1.391 . S
C1653 C1652 1.386 . S
C1653 C1657 1.393 . S
C1654 H1643 0.950 . S
C1654 C1652 1.391 . S
C1654 C1655 1.400 . S
C1655 C1649 1.491 . S
C1655 C1654 1.400 . S
C1655 C1656 1.398 . S
C1656 H1644 0.950 . S
C1656 C1655 1.398 . S
C1656 C1657 1.391 . S
C1657 H1645 0.950 . S
C1657 C1653 1.393 . S
C1657 C1656 1.391 . S
H1658 C1666 0.950 . S
H1659 C1671 0.950 . S
H1660 C1668 0.950 . S
H1661 C1670 0.950 . S
H1662 C1672 0.950 1_655 S
H1663 C1674 0.950 . S
H1664 C1676 0.950 . S
H1665 C1677 0.950 . S
C1666 H1658 0.950 . S
C1666 C1667 1.386 . S
C1666 C1668 1.391 . S
C1667 C1666 1.386 . S
C1667 C1671 1.393 . S
C1668 H1660 0.950 . S
C1668 C1666 1.391 . S
C1668 C1669 1.400 . S
C1669 C1668 1.400 . S
C1669 C1670 1.398 . S
C1669 C1675 1.491 . S
C1670 H1661 0.950 . S
C1670 C1669 1.398 . S
C1670 C1671 1.391 . S
C1671 H1659 0.950 . S
C1671 C1667 1.393 . S
C1671 C1670 1.391 . S
C1672 H1662 0.950 1_455 S
C1672 C1673 1.386 . S
C1672 C1674 1.391 . S
C1673 C1672 1.386 . S
C1673 C1677 1.393 . S
C1674 H1663 0.950 . S
C1674 C1672 1.391 . S
C1674 C1675 1.400 . S
C1675 C1669 1.491 . S
C1675 C1674 1.400 . S
C1675 C1676 1.398 . S
C1676 H1664 0.950 . S
C1676 C1675 1.398 . S
C1676 C1677 1.391 . S
C1677 H1665 0.950 . S
C1677 C1673 1.393 . S
C1677 C1676 1.391 . S
H1678 C1686 0.950 . S
H1679 C1691 0.950 . S
H1680 C1688 0.950 . S
H1681 C1690 0.950 . S
H1682 C1692 0.950 . S
H1683 C1694 0.950 . S
H1684 C1696 0.950 . S
H1685 C1697 0.950 . S
C1686 H1678 0.950 . S
C1686 C1687 1.386 . S
C1686 C1688 1.391 . S
C1687 C1686 1.386 . S
C1687 C1691 1.393 . S
C1688 H1680 0.950 . S
C1688 C1686 1.391 . S
C1688 C1689 1.400 . S
C1689 C1688 1.400 . S
C1689 C1690 1.398 . S
C1689 C1695 1.491 . S
C1690 H1681 0.950 . S
C1690 C1689 1.398 . S
C1690 C1691 1.391 . S
C1691 H1679 0.950 . S
C1691 C1687 1.393 . S
C1691 C1690 1.391 . S
C1692 H1682 0.950 . S
C1692 C1693 1.386 . S
C1692 C1694 1.391 . S
C1693 C1692 1.386 . S
C1693 C1697 1.393 . S
C1694 H1683 0.950 . S
C1694 C1692 1.391 . S
C1694 C1695 1.400 . S
C1695 C1689 1.491 . S
C1695 C1694 1.400 . S
C1695 C1696 1.398 . S
C1696 H1684 0.950 . S
C1696 C1695 1.398 . S
C1696 C1697 1.391 . S
C1697 H1685 0.950 . S
C1697 C1693 1.393 . S
C1697 C1696 1.391 . S
H1698 C1706 0.950 . S
H1699 C1711 0.950 . S
H1700 C1708 0.950 . S
H1701 C1710 0.950 . S
H1702 C1712 0.950 . S
H1703 C1714 0.950 . S
H1704 C1716 0.950 1_455 S
H1705 C1717 0.950 1_455 S
C1706 H1698 0.950 . S
C1706 C1707 1.386 . S
C1706 C1708 1.391 . S
C1707 C1706 1.386 . S
C1707 C1711 1.393 . S
C1708 H1700 0.950 . S
C1708 C1706 1.391 . S
C1708 C1709 1.400 . S
C1709 C1708 1.400 . S
C1709 C1710 1.398 . S
C1709 C1715 1.491 . S
C1710 H1701 0.950 . S
C1710 C1709 1.398 . S
C1710 C1711 1.391 . S
C1711 H1699 0.950 . S
C1711 C1707 1.393 . S
C1711 C1710 1.391 . S
C1712 H1702 0.950 . S
C1712 C1713 1.386 . S
C1712 C1714 1.391 . S
C1713 C1712 1.386 . S
C1713 C1717 1.393 . S
C1714 H1703 0.950 . S
C1714 C1712 1.391 . S
C1714 C1715 1.400 . S
C1715 C1709 1.491 . S
C1715 C1714 1.400 . S
C1715 C1716 1.398 . S
C1716 H1704 0.950 1_655 S
C1716 C1715 1.398 . S
C1716 C1717 1.391 . S
C1717 H1705 0.950 1_655 S
C1717 C1713 1.393 . S
C1717 C1716 1.391 . S
H1718 C1726 0.950 . S
H1719 C1731 0.950 . S
H1720 C1728 0.950 . S
H1721 C1730 0.950 . S
H1722 C1732 0.950 . S
H1723 C1734 0.950 . S
H1724 C1736 0.950 . S
H1725 C1737 0.950 . S
C1726 H1718 0.950 . S
C1726 C1727 1.386 . S
C1726 C1728 1.391 . S
C1727 C1726 1.386 . S
C1727 C1731 1.393 . S
C1728 H1720 0.950 . S
C1728 C1726 1.391 . S
C1728 C1729 1.400 . S
C1729 C1728 1.400 . S
C1729 C1730 1.398 . S
C1729 C1735 1.491 . S
C1730 H1721 0.950 . S
C1730 C1729 1.398 . S
C1730 C1731 1.391 . S
C1731 H1719 0.950 . S
C1731 C1727 1.393 . S
C1731 C1730 1.391 . S
C1732 H1722 0.950 . S
C1732 C1733 1.386 . S
C1732 C1734 1.391 . S
C1733 C1732 1.386 . S
C1733 C1737 1.393 . S
C1734 H1723 0.950 . S
C1734 C1732 1.391 . S
C1734 C1735 1.400 . S
C1735 C1729 1.491 . S
C1735 C1734 1.400 . S
C1735 C1736 1.398 . S
C1736 H1724 0.950 . S
C1736 C1735 1.398 . S
C1736 C1737 1.391 . S
C1737 H1725 0.950 . S
C1737 C1733 1.393 . S
C1737 C1736 1.391 . S
H1738 C1746 0.950 . S
H1739 C1751 0.950 . S
H1740 C1748 0.950 . S
H1741 C1750 0.950 . S
H1742 C1752 0.977 . S
H1743 C1754 0.950 . S
H1744 C1756 0.950 . S
H1745 C1757 0.950 . S
C1746 H1738 0.950 . S
C1746 C1747 1.386 . S
C1746 C1748 1.391 . S
C1747 C1746 1.386 . S
C1747 C1751 1.393 . S
C1748 H1740 0.950 . S
C1748 C1746 1.391 . S
C1748 C1749 1.400 . S
C1749 C1748 1.400 . S
C1749 C1750 1.398 . S
C1749 C1755 1.491 . S
C1750 H1741 0.950 . S
C1750 C1749 1.398 . S
C1750 C1751 1.391 . S
C1751 H1739 0.950 . S
C1751 C1747 1.393 . S
C1751 C1750 1.391 . S
C1752 H1742 0.977 . S
C1752 C1753 1.386 . S
C1752 C1754 1.391 . S
C1753 C1752 1.386 . S
C1753 C1757 1.393 . S
C1754 H1743 0.950 . S
C1754 C1752 1.391 . S
C1754 C1755 1.400 . S
C1755 C1749 1.491 . S
C1755 C1754 1.400 . S
C1755 C1756 1.398 . S
C1756 H1744 0.950 . S
C1756 C1755 1.398 . S
C1756 C1757 1.391 . S
C1757 H1745 0.950 . S
C1757 C1753 1.393 . S
C1757 C1756 1.391 . S
H1758 C1766 0.950 . S
H1759 C1771 0.950 . S
H1760 C1768 0.950 . S
H1761 C1770 0.950 . S
H1762 C1772 0.950 . S
H1763 C1774 0.950 . S
H1764 C1776 0.950 . S
H1765 C1777 0.950 . S
C1766 H1758 0.950 . S
C1766 C1767 1.386 . S
C1766 C1768 1.391 . S
C1767 C1766 1.386 . S
C1767 C1771 1.393 . S
C1768 H1760 0.950 . S
C1768 C1766 1.391 . S
C1768 C1769 1.400 . S
C1769 C1768 1.400 . S
C1769 C1770 1.398 . S
C1769 C1775 1.491 . S
C1770 H1761 0.950 . S
C1770 C1769 1.398 . S
C1770 C1771 1.391 . S
C1771 H1759 0.950 . S
C1771 C1767 1.393 . S
C1771 C1770 1.391 . S
C1772 H1762 0.950 . S
C1772 C1773 1.386 . S
C1772 C1774 1.391 . S
C1773 C1772 1.386 . S
C1773 C1777 1.393 . S
C1774 H1763 0.950 . S
C1774 C1772 1.391 . S
C1774 C1775 1.400 . S
C1775 C1769 1.491 . S
C1775 C1774 1.400 . S
C1775 C1776 1.398 . S
C1776 H1764 0.950 . S
C1776 C1775 1.398 . S
C1776 C1777 1.391 . S
C1777 H1765 0.950 . S
C1777 C1773 1.393 . S
C1777 C1776 1.391 . S
H1778 C1786 0.950 . S
H1779 C1791 0.950 . S
H1780 C1788 0.950 . S
H1781 C1790 0.950 . S
H1782 C1792 0.950 . S
H1783 C1794 0.950 . S
H1784 C1796 0.950 . S
H1785 C1797 0.950 . S
C1786 H1778 0.950 . S
C1786 C1787 1.386 . S
C1786 C1788 1.391 . S
C1787 C1786 1.386 . S
C1787 C1791 1.393 . S
C1788 H1780 0.950 . S
C1788 C1786 1.391 . S
C1788 C1789 1.400 . S
C1789 C1788 1.400 . S
C1789 C1790 1.398 . S
C1789 C1795 1.491 . S
C1790 H1781 0.950 . S
C1790 C1789 1.398 . S
C1790 C1791 1.391 . S
C1791 H1779 0.950 . S
C1791 C1787 1.393 . S
C1791 C1790 1.391 . S
C1792 H1782 0.950 . S
C1792 C1793 1.386 . S
C1792 C1794 1.391 . S
C1793 C1792 1.386 . S
C1793 C1797 1.393 . S
C1794 H1783 0.950 . S
C1794 C1792 1.391 . S
C1794 C1795 1.400 . S
C1795 C1789 1.491 . S
C1795 C1794 1.400 . S
C1795 C1796 1.398 . S
C1796 H1784 0.950 . S
C1796 C1795 1.398 . S
C1796 C1797 1.391 . S
C1797 H1785 0.950 . S
C1797 C1793 1.393 . S
C1797 C1796 1.391 . S
H1798 C1806 0.950 . S
H1799 C1811 0.950 . S
H1800 C1808 0.950 . S
H1801 C1810 0.950 . S
H1802 C1812 0.950 . S
H1803 C1814 0.950 . S
H1804 C1816 0.950 . S
H1805 C1817 0.950 . S
C1806 H1798 0.950 . S
C1806 C1807 1.386 . S
C1806 C1808 1.391 . S
C1807 C1806 1.386 . S
C1807 C1811 1.393 . S
C1808 H1800 0.950 . S
C1808 C1806 1.391 . S
C1808 C1809 1.400 . S
C1809 C1808 1.400 . S
C1809 C1810 1.398 . S
C1809 C1815 1.491 . S
C1810 H1801 0.950 . S
C1810 C1809 1.398 . S
C1810 C1811 1.391 . S
C1811 H1799 0.950 . S
C1811 C1807 1.393 . S
C1811 C1810 1.391 . S
C1812 H1802 0.950 . S
C1812 C1813 1.386 . S
C1812 C1814 1.391 . S
C1813 C1812 1.386 . S
C1813 C1817 1.393 . S
C1814 H1803 0.950 . S
C1814 C1812 1.391 . S
C1814 C1815 1.400 . S
C1815 C1809 1.491 . S
C1815 C1814 1.400 . S
C1815 C1816 1.398 . S
C1816 H1804 0.950 . S
C1816 C1815 1.398 . S
C1816 C1817 1.391 . S
C1817 H1805 0.950 . S
C1817 C1813 1.393 . S
C1817 C1816 1.391 . S
H1818 C1826 0.950 . S
H1819 C1831 0.950 . S
H1820 C1828 0.950 . S
H1821 C1830 0.950 . S
H1822 C1832 0.950 . S
H1823 C1834 0.950 . S
H1824 C1836 0.950 . S
H1825 C1837 0.950 . S
C1826 H1818 0.950 . S
C1826 C1827 1.386 . S
C1826 C1828 1.391 . S
C1827 C1826 1.386 . S
C1827 C1831 1.393 . S
C1828 H1820 0.950 . S
C1828 C1826 1.391 . S
C1828 C1829 1.400 . S
C1829 C1828 1.400 . S
C1829 C1830 1.398 . S
C1829 C1835 1.491 . S
C1830 H1821 0.950 . S
C1830 C1829 1.398 . S
C1830 C1831 1.391 . S
C1831 H1819 0.950 . S
C1831 C1827 1.393 . S
C1831 C1830 1.391 . S
C1832 H1822 0.950 . S
C1832 C1833 1.386 . S
C1832 C1834 1.391 . S
C1833 C1832 1.386 . S
C1833 C1837 1.393 . S
C1834 H1823 0.950 . S
C1834 C1832 1.391 . S
C1834 C1835 1.400 . S
C1835 C1829 1.491 . S
C1835 C1834 1.400 . S
C1835 C1836 1.398 . S
C1836 H1824 0.950 . S
C1836 C1835 1.398 . S
C1836 C1837 1.391 . S
C1837 H1825 0.950 . S
C1837 C1833 1.393 . S
C1837 C1836 1.391 . S
H1838 C1846 0.950 . S
H1839 C1851 0.950 . S
H1840 C1848 0.950 . S
H1841 C1850 0.950 . S
H1842 C1852 0.950 . S
H1843 C1854 0.950 . S
H1844 C1856 0.950 . S
H1845 C1857 0.950 . S
C1846 H1838 0.950 . S
C1846 C1847 1.386 . S
C1846 C1848 1.391 . S
C1847 C1846 1.386 . S
C1847 C1851 1.393 . S
C1848 H1840 0.950 . S
C1848 C1846 1.391 . S
C1848 C1849 1.400 . S
C1849 C1848 1.400 . S
C1849 C1850 1.398 . S
C1849 C1855 1.491 . S
C1850 H1841 0.950 . S
C1850 C1849 1.398 . S
C1850 C1851 1.391 . S
C1851 H1839 0.950 . S
C1851 C1847 1.393 . S
C1851 C1850 1.391 . S
C1852 H1842 0.950 . S
C1852 C1853 1.386 . S
C1852 C1854 1.391 . S
C1853 C1852 1.386 . S
C1853 C1857 1.393 . S
C1854 H1843 0.950 . S
C1854 C1852 1.391 . S
C1854 C1855 1.400 . S
C1855 C1849 1.491 . S
C1855 C1854 1.400 . S
C1855 C1856 1.398 . S
C1856 H1844 0.950 . S
C1856 C1855 1.398 . S
C1856 C1857 1.391 . S
C1857 H1845 0.950 . S
C1857 C1853 1.393 . S
C1857 C1856 1.391 . S
H1858 C1866 0.950 . S
H1859 C1871 0.950 . S
H1860 C1868 0.950 . S
H1861 C1870 0.950 . S
H1862 C1872 0.950 . S
H1863 C1874 0.950 . S
H1864 C1876 0.950 . S
H1865 C1877 0.950 . S
C1866 H1858 0.950 . S
C1866 C1867 1.386 . S
C1866 C1868 1.391 . S
C1867 C1866 1.386 . S
C1867 C1871 1.393 . S
C1868 H1860 0.950 . S
C1868 C1866 1.391 . S
C1868 C1869 1.400 . S
C1869 C1868 1.400 . S
C1869 C1870 1.398 . S
C1869 C1875 1.491 . S
C1870 H1861 0.950 . S
C1870 C1869 1.398 . S
C1870 C1871 1.391 . S
C1871 H1859 0.950 . S
C1871 C1867 1.393 . S
C1871 C1870 1.391 . S
C1872 H1862 0.950 . S
C1872 C1873 1.386 . S
C1872 C1874 1.391 . S
C1873 C1872 1.386 . S
C1873 C1877 1.393 . S
C1874 H1863 0.950 . S
C1874 C1872 1.391 . S
C1874 C1875 1.400 . S
C1875 C1869 1.491 . S
C1875 C1874 1.400 . S
C1875 C1876 1.398 . S
C1876 H1864 0.950 . S
C1876 C1875 1.398 . S
C1876 C1877 1.391 . S
C1877 H1865 0.950 . S
C1877 C1873 1.393 . S
C1877 C1876 1.391 . S
H1878 C1886 0.950 . S
H1879 C1891 0.950 . S
H1880 C1888 0.950 . S
H1881 C1890 0.950 . S
H1882 C1892 0.950 . S
H1883 C1894 0.950 . S
H1884 C1896 0.950 . S
H1885 C1897 0.950 . S
C1886 H1878 0.950 . S
C1886 C1887 1.386 . S
C1886 C1888 1.391 . S
C1887 C1886 1.386 . S
C1887 C1891 1.393 . S
C1888 H1880 0.950 . S
C1888 C1886 1.391 . S
C1888 C1889 1.400 . S
C1889 C1888 1.400 . S
C1889 C1890 1.398 . S
C1889 C1895 1.491 . S
C1890 H1881 0.950 . S
C1890 C1889 1.398 . S
C1890 C1891 1.391 . S
C1891 H1879 0.950 . S
C1891 C1887 1.393 . S
C1891 C1890 1.391 . S
C1892 H1882 0.950 . S
C1892 C1893 1.386 . S
C1892 C1894 1.391 . S
C1893 C1892 1.386 . S
C1893 C1897 1.393 . S
C1894 H1883 0.950 . S
C1894 C1892 1.391 . S
C1894 C1895 1.400 . S
C1895 C1889 1.491 . S
C1895 C1894 1.400 . S
C1895 C1896 1.398 . S
C1896 H1884 0.950 . S
C1896 C1895 1.398 . S
C1896 C1897 1.391 . S
C1897 H1885 0.950 . S
C1897 C1893 1.393 . S
C1897 C1896 1.391 . S
H1898 C1906 0.950 . S
H1899 C1911 0.950 . S
H1900 C1908 0.950 . S
H1901 C1910 0.950 . S
H1902 C1912 0.950 . S
H1903 C1914 0.950 . S
H1904 C1916 0.950 . S
H1905 C1917 0.950 . S
C1906 H1898 0.950 . S
C1906 C1907 1.386 . S
C1906 C1908 1.391 . S
C1907 C1906 1.386 . S
C1907 C1911 1.393 . S
C1908 H1900 0.950 . S
C1908 C1906 1.391 . S
C1908 C1909 1.400 . S
C1909 C1908 1.400 . S
C1909 C1910 1.398 . S
C1909 C1915 1.491 . S
C1910 H1901 0.950 . S
C1910 C1909 1.398 . S
C1910 C1911 1.391 . S
C1911 H1899 0.950 . S
C1911 C1907 1.393 . S
C1911 C1910 1.391 . S
C1912 H1902 0.950 . S
C1912 C1913 1.386 . S
C1912 C1914 1.391 . S
C1913 C1912 1.386 . S
C1913 C1917 1.393 . S
C1914 H1903 0.950 . S
C1914 C1912 1.391 . S
C1914 C1915 1.400 . S
C1915 C1909 1.491 . S
C1915 C1914 1.400 . S
C1915 C1916 1.398 . S
C1916 H1904 0.950 . S
C1916 C1915 1.398 . S
C1916 C1917 1.391 . S
C1917 H1905 0.950 . S
C1917 C1913 1.393 . S
C1917 C1916 1.391 . S
H1918 C1926 0.950 . S
H1919 C1931 0.950 . S
H1920 C1928 0.950 . S
H1921 C1930 0.950 . S
H1922 C1932 0.950 . S
H1923 C1934 0.950 . S
H1924 C1936 0.950 . S
H1925 C1937 0.950 . S
C1926 H1918 0.950 . S
C1926 C1927 1.386 . S
C1926 C1928 1.391 . S
C1927 C1926 1.386 . S
C1927 C1931 1.393 . S
C1928 H1920 0.950 . S
C1928 C1926 1.391 . S
C1928 C1929 1.400 . S
C1929 C1928 1.400 . S
C1929 C1930 1.398 . S
C1929 C1935 1.491 . S
C1930 H1921 0.950 . S
C1930 C1929 1.398 . S
C1930 C1931 1.391 . S
C1931 H1919 0.950 . S
C1931 C1927 1.393 . S
C1931 C1930 1.391 . S
C1932 H1922 0.950 . S
C1932 C1933 1.386 . S
C1932 C1934 1.391 . S
C1933 C1932 1.386 . S
C1933 C1937 1.393 . S
C1934 H1923 0.950 . S
C1934 C1932 1.391 . S
C1934 C1935 1.400 . S
C1935 C1929 1.491 . S
C1935 C1934 1.400 . S
C1935 C1936 1.398 . S
C1936 H1924 0.950 . S
C1936 C1935 1.398 . S
C1936 C1937 1.391 . S
C1937 H1925 0.950 . S
C1937 C1933 1.393 . S
C1937 C1936 1.391 . S
H1938 C1946 0.950 . S
H1939 C1951 0.950 . S
H1940 C1948 0.950 . S
H1941 C1950 0.950 . S
H1942 C1952 0.950 . S
H1943 C1954 0.950 . S
H1944 C1956 0.950 . S
H1945 C1957 0.950 . S
C1946 H1938 0.950 . S
C1946 C1947 1.386 . S
C1946 C1948 1.391 . S
C1947 C1946 1.386 . S
C1947 C1951 1.393 . S
C1948 H1940 0.950 . S
C1948 C1946 1.391 . S
C1948 C1949 1.400 . S
C1949 C1948 1.400 . S
C1949 C1950 1.398 . S
C1949 C1955 1.491 . S
C1950 H1941 0.950 . S
C1950 C1949 1.398 . S
C1950 C1951 1.391 . S
C1951 H1939 0.950 . S
C1951 C1947 1.393 . S
C1951 C1950 1.391 . S
C1952 H1942 0.950 . S
C1952 C1953 1.386 . S
C1952 C1954 1.391 . S
C1953 C1952 1.386 . S
C1953 C1957 1.393 . S
C1954 H1943 0.950 . S
C1954 C1952 1.391 . S
C1954 C1955 1.400 . S
C1955 C1949 1.491 . S
C1955 C1954 1.400 . S
C1955 C1956 1.398 . S
C1956 H1944 0.950 . S
C1956 C1955 1.398 . S
C1956 C1957 1.391 . S
C1957 H1945 0.950 . S
C1957 C1953 1.393 . S
C1957 C1956 1.391 . S
H1958 C1966 0.950 . S
H1959 C1971 0.950 . S
H1960 C1968 0.950 . S
H1961 C1970 0.950 . S
H1962 C1972 0.950 . S
H1963 C1974 0.950 . S
H1964 C1976 0.950 . S
H1965 C1977 0.950 . S
C1966 H1958 0.950 . S
C1966 C1967 1.386 . S
C1966 C1968 1.391 . S
C1967 C1966 1.386 . S
C1967 C1971 1.393 . S
C1968 H1960 0.950 . S
C1968 C1966 1.391 . S
C1968 C1969 1.400 . S
C1969 C1968 1.400 . S
C1969 C1970 1.398 . S
C1969 C1975 1.491 . S
C1970 H1961 0.950 . S
C1970 C1969 1.398 . S
C1970 C1971 1.391 . S
C1971 H1959 0.950 . S
C1971 C1967 1.393 . S
C1971 C1970 1.391 . S
C1972 H1962 0.950 . S
C1972 C1973 1.386 . S
C1972 C1974 1.391 . S
C1973 C1972 1.386 . S
C1973 C1977 1.393 . S
C1974 H1963 0.950 . S
C1974 C1972 1.391 . S
C1974 C1975 1.400 . S
C1975 C1969 1.491 . S
C1975 C1974 1.400 . S
C1975 C1976 1.398 . S
C1976 H1964 0.950 . S
C1976 C1975 1.398 . S
C1976 C1977 1.391 . S
C1977 H1965 0.950 . S
C1977 C1973 1.393 . S
C1977 C1976 1.391 . S
H1978 C1986 0.950 . S
H1979 C1991 0.950 . S
H1980 C1988 0.950 . S
H1981 C1990 0.950 . S
H1982 C1992 0.950 . S
H1983 C1994 0.950 . S
H1984 C1996 0.950 . S
H1985 C1997 0.950 . S
C1986 H1978 0.950 . S
C1986 C1987 1.386 . S
C1986 C1988 1.391 . S
C1987 C1986 1.386 . S
C1987 C1991 1.393 . S
C1988 H1980 0.950 . S
C1988 C1986 1.391 . S
C1988 C1989 1.400 . S
C1989 C1988 1.400 . S
C1989 C1990 1.398 . S
C1989 C1995 1.491 . S
C1990 H1981 0.950 . S
C1990 C1989 1.398 . S
C1990 C1991 1.391 . S
C1991 H1979 0.950 . S
C1991 C1987 1.393 . S
C1991 C1990 1.391 . S
C1992 H1982 0.950 . S
C1992 C1993 1.386 . S
C1992 C1994 1.391 . S
C1993 C1992 1.386 . S
C1993 C1997 1.393 . S
C1994 H1983 0.950 . S
C1994 C1992 1.391 . S
C1994 C1995 1.400 . S
C1995 C1989 1.491 . S
C1995 C1994 1.400 . S
C1995 C1996 1.398 . S
C1996 H1984 0.950 . S
C1996 C1995 1.398 . S
C1996 C1997 1.391 . S
C1997 H1985 0.950 . S
C1997 C1993 1.393 . S
C1997 C1996 1.391 . S
C927 C124 1.428 . S
C933 C229 1.362 . S
C947 C130 1.481 . S
C953 C313 1.420 . S
C967 C115 1.458 . S
C973 C393 1.416 . S
C987 C106 1.438 . S
C993 C309 1.412 . S
C1013 C397 1.370 . S
C1007 C85 1.430 . S
C1027 C97 1.394 . S
C1033 C225 1.353 . S
C1053 C218 1.391 . S
C1047 C103 1.455 . S
C1073 C302 1.381 . S
C1067 C88 1.461 . S
C1087 C94 1.465 . S
C1093 C404 1.437 . S
C1107 C121 1.431 . S
C1113 C320 1.389 . S
C1127 C133 1.404 . S
C1133 C386 1.347 . S
C1153 C236 1.377 . S
C1147 C112 1.418 . S
C1173 C481 1.364 . S
C1167 C16 1.428 . S
C1187 C22 1.481 . S
C1193 C565 1.400 . S
C1207 C7 1.467 . S
C1213 C645 1.438 . S
C1227 C160 1.432 . S
C1233 C561 1.392 . S
C1247 C139 1.432 . S
C1253 C649 1.369 . S
C1267 C151 1.402 . S
C1273 C477 1.371 . S
C1287 C157 1.453 . S
C1293 C470 1.365 . S
C1307 C142 1.456 . S
C1313 C554 1.373 . S
C1333 C656 1.435 . S
C1327 C148 1.464 . S
C1347 C13 1.437 . S
C1353 C572 1.411 . S
C1373 C638 1.335 . S
C1367 C25 1.401 . S
C1387 C4 1.424 . S
C1393 C488 1.390 . S
C1413 C733 1.342 . S
C1407 C70 1.434 . S
C1427 C76 1.482 . S
C1433 C817 1.395 . S
C1453 C897 1.416 . S
C1447 C61 1.460 . S
C1473 C813 1.394 . S
C1467 C52 1.435 . S
C1493 C901 1.352 . S
C1487 C31 1.427 . S
C1507 C43 1.394 . S
C1513 C729 1.354 . S
C1527 C49 1.455 . S
C1533 C722 1.359 . S
C1547 C34 1.458 . S
C1553 C806 1.402 . S
C1573 C908 1.434 . S
C1567 C40 1.464 . S
C1587 C67 1.437 . S
C1593 C824 1.408 . S
C1607 C79 1.406 . S
C1613 C890 1.313 . S
C1627 C58 1.419 . S
C1633 C740 1.379 . S
C1647 C140 1.478 . S
C1653 C232 1.378 . S
C1673 C316 1.364 . S
C1667 C149 1.505 . S
C1687 C158 1.502 . S
C1693 C388 1.379 . S
C1707 C59 1.524 . S
C1713 C304 1.391 . S
C1727 C68 1.484 . S
C1733 C400 1.374 . S
C1753 C220 1.369 . S
C1747 C77 1.478 . S
C1767 C32 1.478 . S
C1773 C484 1.366 . S
C1787 C41 1.505 . S
C1793 C568 1.382 . S
C1807 C50 1.503 . S
C1813 C640 1.354 . S
C1827 C113 1.523 . S
C1833 C556 1.362 . S
C1853 C652 1.366 . S
C1847 C122 1.485 . S
C1867 C131 1.478 . S
C1873 C472 1.379 . S
C1887 C86 1.478 . S
C1893 C736 1.342 . S
C1907 C95 1.505 . S
C1913 C820 1.384 . S
C1933 C892 1.376 . S
C1927 C104 1.503 . S
C1947 C5 1.524 . S
C1953 C808 1.399 . S
C1967 C14 1.485 . S
C1973 C904 1.363 . S
C1987 C23 1.477 . S
C1993 C724 1.378 . S
