# Generated by pormake.
# Topology pyr, (3,6)-cn, num edge types: 1
# Building blocks:
#     Node 0, Type 0, BuildingBlock: VETTIZ_charged_linker_0, # of connection points: 3
#     Node 1, Type 0, BuildingBlock: VETTIZ_charged_linker_0, # of connection points: 3
#     Node 2, Type 0, BuildingBlock: VETTIZ_charged_linker_0, # of connection points: 3
#     Node 3, Type 0, BuildingBlock: VETTIZ_charged_linker_0, # of connection points: 3
#     Node 4, Type 0, BuildingBlock: VETTIZ_charged_linker_0, # of connection points: 3
#     Node 5, Type 0, BuildingBlock: VETTIZ_charged_linker_0, # of connection points: 3
#     Node 6, Type 0, BuildingBlock: VETTIZ_charged_linker_0, # of connection points: 3
#     Node 7, Type 0, BuildingBlock: VETTIZ_charged_linker_0, # of connection points: 3
#     Node 8, Type 1, BuildingBlock: MIFKUJ_clean_sbu_0, # of connection points: 6
#     Node 9, Type 1, BuildingBlock: MIFKUJ_clean_sbu_0, # of connection points: 6
#     Node 10, Type 1, BuildingBlock: MIFKUJ_clean_sbu_0, # of connection points: 6
#     Node 11, Type 1, BuildingBlock: MIFKUJ_clean_sbu_0, # of connection points: 6
#     Edge 12, Type (0, 1), BuildingBlock: UVAHIK_clean_linker_0, # of connection points: 2
#     Edge 13, Type (0, 1), BuildingBlock: UVAHIK_clean_linker_0, # of connection points: 2
#     Edge 14, Type (0, 1), BuildingBlock: UVAHIK_clean_linker_0, # of connection points: 2
#     Edge 15, Type (0, 1), BuildingBlock: UVAHIK_clean_linker_0, # of connection points: 2
#     Edge 16, Type (0, 1), BuildingBlock: UVAHIK_clean_linker_0, # of connection points: 2
#     Edge 17, Type (0, 1), BuildingBlock: UVAHIK_clean_linker_0, # of connection points: 2
#     Edge 18, Type (0, 1), BuildingBlock: UVAHIK_clean_linker_0, # of connection points: 2
#     Edge 19, Type (0, 1), BuildingBlock: UVAHIK_clean_linker_0, # of connection points: 2
#     Edge 20, Type (0, 1), BuildingBlock: UVAHIK_clean_linker_0, # of connection points: 2
#     Edge 21, Type (0, 1), BuildingBlock: UVAHIK_clean_linker_0, # of connection points: 2
#     Edge 22, Type (0, 1), BuildingBlock: UVAHIK_clean_linker_0, # of connection points: 2
#     Edge 23, Type (0, 1), BuildingBlock: UVAHIK_clean_linker_0, # of connection points: 2
#     Edge 24, Type (0, 1), BuildingBlock: UVAHIK_clean_linker_0, # of connection points: 2
#     Edge 25, Type (0, 1), BuildingBlock: UVAHIK_clean_linker_0, # of connection points: 2
#     Edge 26, Type (0, 1), BuildingBlock: UVAHIK_clean_linker_0, # of connection points: 2
#     Edge 27, Type (0, 1), BuildingBlock: UVAHIK_clean_linker_0, # of connection points: 2
#     Edge 28, Type (0, 1), BuildingBlock: UVAHIK_clean_linker_0, # of connection points: 2
#     Edge 29, Type (0, 1), BuildingBlock: UVAHIK_clean_linker_0, # of connection points: 2
#     Edge 30, Type (0, 1), BuildingBlock: UVAHIK_clean_linker_0, # of connection points: 2
#     Edge 31, Type (0, 1), BuildingBlock: UVAHIK_clean_linker_0, # of connection points: 2
#     Edge 32, Type (0, 1), BuildingBlock: UVAHIK_clean_linker_0, # of connection points: 2
#     Edge 33, Type (0, 1), BuildingBlock: UVAHIK_clean_linker_0, # of connection points: 2
#     Edge 34, Type (0, 1), BuildingBlock: UVAHIK_clean_linker_0, # of connection points: 2
#     Edge 35, Type (0, 1), BuildingBlock: UVAHIK_clean_linker_0, # of connection points: 2
# Relax obj value: 0.025
# Max RMSD: 0.077
# Mean RMSD: 0.046
data_MOF--net-pyr--node1-MIFKUJ_clean_sbu_0--node2-VETTIZ_charged_linker_0--edge1-UVAHIK_clean_linker_0
_symmetry_space_group_name_H-M    P1
_symmetry_Int_Tables_number       1
_symmetry_cell_setting            triclinic
loop_
_symmetry_equiv_pos_as_xyz
'x, y, z'
_cell_length_a     58.816428
_cell_length_b     52.857236
_cell_length_c     57.543311
_cell_angle_alpha  86.733838
_cell_angle_beta   88.643535
_cell_angle_gamma 95.46056
loop_
_atom_site_label
_atom_site_type_symbol
_atom_site_fract_x
_atom_site_fract_y
_atom_site_fract_z
_atom_type_partial_charge
C0 C 0.19102 0.15047 0.28482 0.0
C1 C 0.1712 0.15742 0.29601 0.0
C2 C 0.15948 0.17691 0.28545 0.0
C3 C 0.18626 0.18103 0.25261 0.0
C4 C 0.19822 0.16251 0.2632 0.0
C5 C 0.21836 0.1568 0.24841 0.0
H6 H 0.27521 0.17102 0.14426 0.0
C7 C 0.19727 0.18864 0.22966 0.0
C8 C 0.21623 0.17471 0.22711 0.0
H9 H 0.29032 0.12438 0.20516 0.0
H10 H 0.25995 0.14066 0.22689 0.0
H11 H 0.269 0.22092 0.17211 0.0
H12 H 0.22065 0.16179 0.14923 0.0
H13 H 0.21035 0.19138 0.14218 0.0
H14 H 0.23717 0.18446 0.12961 0.0
H15 H 0.26047 0.22029 0.1424 0.0
H16 H 0.24458 0.23555 0.16396 0.0
C17 C 0.24046 0.16392 0.26168 0.0
C18 C 0.21471 0.12847 0.24259 0.0
C19 C 0.16016 0.24963 0.17453 0.0
C20 C 0.1657 0.25977 0.15175 0.0
C21 C 0.18591 0.25346 0.14069 0.0
C22 C 0.20001 0.23693 0.15192 0.0
C23 C 0.1939 0.22655 0.17448 0.0
C24 C 0.17448 0.23332 0.18552 0.0
C25 C 0.17084 0.22092 0.20963 0.0
C26 C 0.19122 0.20541 0.21119 0.0
C27 C 0.20451 0.20853 0.19047 0.0
C28 C 0.17204 0.24214 0.22723 0.0
C29 C 0.14788 0.20378 0.2103 0.0
C30 C 0.27223 0.16453 0.16236 0.0
C31 C 0.28505 0.14606 0.17284 0.0
C32 C 0.28039 0.13811 0.19645 0.0
C33 C 0.26279 0.14767 0.2091 0.0
C34 C 0.2496 0.16537 0.19809 0.0
C35 C 0.25475 0.17394 0.17527 0.0
C36 C 0.23927 0.19325 0.16657 0.0
C37 C 0.22367 0.19442 0.18778 0.0
C38 C 0.22965 0.17784 0.20611 0.0
C39 C 0.25396 0.21886 0.16075 0.0
C40 C 0.22618 0.18241 0.1457 0.0
H41 H 0.15701 0.20315 0.25673 0.0
H42 H 0.20057 0.13577 0.29256 0.0
H43 H 0.19656 0.12315 0.23846 0.0
H44 H 0.22467 0.1241 0.22711 0.0
H45 H 0.21902 0.11578 0.25757 0.0
H46 H 0.23843 0.18017 0.27278 0.0
H47 H 0.24492 0.14767 0.27322 0.0
H48 H 0.2552 0.17051 0.24988 0.0
H49 H 0.14469 0.25377 0.18353 0.0
H50 H 0.19091 0.26136 0.12334 0.0
H51 H 0.21503 0.23272 0.14251 0.0
H52 H 0.18369 0.25897 0.22063 0.0
H53 H 0.15495 0.24876 0.23049 0.0
H54 H 0.17922 0.23612 0.24402 0.0
H55 H 0.14536 0.19443 0.19359 0.0
H56 H 0.14703 0.18793 0.22372 0.0
H57 H 0.1332 0.21511 0.21312 0.0
H58 H 0.14397 0.18243 0.29342 0.0
C59 C 0.16695 0.18879 0.26394 0.0
C60 C 0.26662 0.86972 0.64142 0.0
C61 C 0.25298 0.88538 0.65358 0.0
C62 C 0.25939 0.89208 0.6761 0.0
C63 C 0.29226 0.86782 0.67381 0.0
C64 C 0.28589 0.861 0.6519 0.0
C65 C 0.30145 0.84326 0.64172 0.0
H66 H 0.39097 0.7727 0.65418 0.0
C67 C 0.31293 0.85523 0.67977 0.0
C68 C 0.31826 0.8406 0.66112 0.0
H69 H 0.34742 0.77945 0.59499 0.0
H70 H 0.32647 0.80933 0.61455 0.0
H71 H 0.39762 0.83261 0.66098 0.0
H72 H 0.35214 0.77187 0.69397 0.0
H73 H 0.36224 0.79153 0.71588 0.0
H74 H 0.38223 0.7756 0.6991 0.0
H75 H 0.40708 0.81042 0.68255 0.0
H76 H 0.39523 0.83913 0.69043 0.0
C77 C 0.31313 0.85663 0.61927 0.0
C78 C 0.28708 0.81775 0.63798 0.0
C79 C 0.3526 0.87223 0.75577 0.0
C80 C 0.37194 0.86302 0.76598 0.0
C81 C 0.38353 0.84498 0.75445 0.0
C82 C 0.3762 0.83646 0.73304 0.0
C83 C 0.35701 0.846 0.72293 0.0
C84 C 0.34543 0.86341 0.73435 0.0
C85 C 0.32508 0.87097 0.72116 0.0
C86 C 0.32684 0.85582 0.69963 0.0
C87 C 0.34559 0.84125 0.70079 0.0
C88 C 0.32862 0.90002 0.71511 0.0
C89 C 0.30318 0.86211 0.73611 0.0
C90 C 0.37708 0.78076 0.64529 0.0
C91 C 0.37076 0.77335 0.62303 0.0
C92 C 0.35239 0.78429 0.61231 0.0
C93 C 0.34029 0.80181 0.62366 0.0
C94 C 0.34658 0.80865 0.64601 0.0
C95 C 0.36487 0.79841 0.65633 0.0
C96 C 0.36955 0.8085 0.67985 0.0
C97 C 0.35073 0.82607 0.68213 0.0
C98 C 0.33727 0.82596 0.66231 0.0
C99 C 0.39365 0.82332 0.67864 0.0
C100 C 0.36658 0.78581 0.69829 0.0
H101 H 0.28283 0.88927 0.70333 0.0
H102 H 0.26253 0.86435 0.62402 0.0
H103 H 0.27394 0.81315 0.65221 0.0
H104 H 0.29729 0.80128 0.63841 0.0
H105 H 0.27804 0.8187 0.62127 0.0
H106 H 0.31647 0.8775 0.62103 0.0
H107 H 0.30219 0.85377 0.60399 0.0
H108 H 0.33009 0.85022 0.61545 0.0
H109 H 0.34315 0.88582 0.76436 0.0
H110 H 0.3986 0.83779 0.76182 0.0
H111 H 0.38586 0.82284 0.72513 0.0
H112 H 0.34656 0.90581 0.70902 0.0
H113 H 0.32513 0.91081 0.73061 0.0
H114 H 0.31789 0.90629 0.70084 0.0
H115 H 0.30559 0.84501 0.74765 0.0
H116 H 0.28846 0.85608 0.72544 0.0
H117 H 0.29845 0.87726 0.74739 0.0
H118 H 0.24908 0.90364 0.68618 0.0
C119 C 0.27894 0.8835 0.68619 0.0
C120 C 0.64298 0.2747 0.85768 0.0
C121 C 0.62306 0.26207 0.84906 0.0
C122 C 0.61376 0.27233 0.82862 0.0
C123 C 0.64369 0.30738 0.82614 0.0
C124 C 0.65294 0.29719 0.84601 0.0
C125 C 0.67396 0.31307 0.85306 0.0
H126 H 0.74992 0.41723 0.83436 0.0
C127 C 0.65789 0.33122 0.81861 0.0
C128 C 0.67564 0.33466 0.83432 0.0
H129 H 0.74894 0.35695 0.88859 0.0
H130 H 0.71482 0.33622 0.87341 0.0
H131 H 0.69607 0.4225 0.8371 0.0
H132 H 0.73499 0.37959 0.79153 0.0
H133 H 0.71611 0.39685 0.77502 0.0
H134 H 0.73811 0.41377 0.79089 0.0
H135 H 0.71371 0.43775 0.81348 0.0
H136 H 0.68466 0.42489 0.80921 0.0
C137 C 0.66918 0.32255 0.87755 0.0
C138 C 0.69445 0.29674 0.85159 0.0
C139 C 0.63591 0.38365 0.74748 0.0
C140 C 0.64421 0.40758 0.73697 0.0
C141 C 0.66356 0.42075 0.74647 0.0
C142 C 0.67423 0.41037 0.76595 0.0
C143 C 0.66541 0.38662 0.77634 0.0
C144 C 0.64646 0.37381 0.76711 0.0
C145 C 0.63861 0.34942 0.7809 0.0
C146 C 0.65608 0.3495 0.79985 0.0
C147 C 0.67194 0.37119 0.79705 0.0
C148 C 0.61415 0.35159 0.79081 0.0
C149 C 0.64053 0.32708 0.76488 0.0
C150 C 0.7424 0.39946 0.84282 0.0
C151 C 0.75216 0.38881 0.86282 0.0
C152 C 0.74165 0.36581 0.87343 0.0
C153 C 0.72186 0.35366 0.86447 0.0
C154 C 0.71226 0.36451 0.8446 0.0
C155 C 0.72246 0.38705 0.83407 0.0
C156 C 0.70946 0.39582 0.81328 0.0
C157 C 0.6901 0.37458 0.81289 0.0
C158 C 0.6919 0.35635 0.83135 0.0
C159 C 0.70057 0.42168 0.81828 0.0
C160 C 0.72542 0.39676 0.79143 0.0
H161 H 0.61603 0.30159 0.80168 0.0
H162 H 0.65049 0.26753 0.87344 0.0
H163 H 0.69243 0.28354 0.83723 0.0
H164 H 0.71087 0.30824 0.84746 0.0
H165 H 0.69594 0.285 0.86802 0.0
H166 H 0.65105 0.32664 0.8796 0.0
H167 H 0.67246 0.30801 0.89146 0.0
H168 H 0.67925 0.34066 0.88076 0.0
H169 H 0.62141 0.37258 0.74065 0.0
H170 H 0.67028 0.43935 0.73914 0.0
H171 H 0.68879 0.42137 0.77234 0.0
H172 H 0.61169 0.37161 0.79447 0.0
H173 H 0.60101 0.34521 0.7783 0.0
H174 H 0.61056 0.3408 0.80771 0.0
H175 H 0.65611 0.33057 0.75336 0.0
H176 H 0.64233 0.30882 0.77463 0.0
H177 H 0.62553 0.3247 0.75356 0.0
H178 H 0.59865 0.26282 0.82137 0.0
C179 C 0.62396 0.29483 0.81713 0.0
C180 C 0.88246 0.73405 0.33645 0.0
C181 C 0.87284 0.74651 0.35474 0.0
C182 C 0.85125 0.73693 0.36427 0.0
C183 C 0.84891 0.70325 0.33735 0.0
C184 C 0.87006 0.71264 0.32786 0.0
C185 C 0.87697 0.69769 0.30771 0.0
H186 H 0.85164 0.60111 0.23666 0.0
C187 C 0.84025 0.68119 0.32433 0.0
C188 C 0.85647 0.67791 0.30675 0.0
H189 H 0.91258 0.65395 0.23519 0.0
H190 H 0.89766 0.67464 0.26774 0.0
H191 H 0.84811 0.59185 0.29374 0.0
H192 H 0.81634 0.64156 0.24506 0.0
H193 H 0.79568 0.63039 0.2667 0.0
H194 H 0.80762 0.60805 0.24841 0.0
H195 H 0.82757 0.58035 0.27328 0.0
H196 H 0.8188 0.59043 0.30119 0.0
C197 C 0.899 0.68537 0.31418 0.0
C198 C 0.87951 0.7159 0.28555 0.0
C199 C 0.76444 0.632 0.34962 0.0
C200 C 0.75121 0.61153 0.34054 0.0
C201 C 0.75903 0.60111 0.32016 0.0
C202 C 0.77999 0.6106 0.30927 0.0
C203 C 0.79319 0.63093 0.31871 0.0
C204 C 0.78513 0.6415 0.33835 0.0
C205 C 0.80068 0.66389 0.34523 0.0
C206 C 0.8198 0.66455 0.32694 0.0
C207 C 0.81547 0.6451 0.31155 0.0
C208 C 0.80909 0.65759 0.37002 0.0
C209 C 0.78749 0.68796 0.34297 0.0
C210 C 0.86188 0.61698 0.24347 0.0
C211 C 0.88335 0.62586 0.23318 0.0
C212 C 0.89588 0.64688 0.24248 0.0
C213 C 0.88724 0.65881 0.26152 0.0
C214 C 0.86577 0.64974 0.27153 0.0
C215 C 0.85349 0.62912 0.2625 0.0
C216 C 0.83098 0.62207 0.27536 0.0
C217 C 0.8318 0.64178 0.29361 0.0
C218 C 0.85223 0.658 0.29128 0.0
C219 C 0.83113 0.5947 0.28643 0.0
C220 C 0.81152 0.62545 0.25809 0.0
H221 H 0.82302 0.70907 0.3639 0.0
H222 H 0.89895 0.74116 0.32867 0.0
H223 H 0.86633 0.72968 0.28562 0.0
H224 H 0.87684 0.70594 0.26935 0.0
H225 H 0.89653 0.72704 0.28446 0.0
H226 H 0.89841 0.67876 0.33292 0.0
H227 H 0.91436 0.69919 0.31107 0.0
H228 H 0.90129 0.6682 0.30467 0.0
H229 H 0.75861 0.6407 0.36499 0.0
H230 H 0.74907 0.58533 0.31287 0.0
H231 H 0.78512 0.60172 0.29393 0.0
H232 H 0.81332 0.63751 0.37186 0.0
H233 H 0.7957 0.66002 0.38343 0.0
H234 H 0.8249 0.66922 0.37414 0.0
H235 H 0.77365 0.68582 0.33017 0.0
H236 H 0.79847 0.7051 0.33625 0.0
H237 H 0.77943 0.69184 0.35989 0.0
H238 H 0.84363 0.74608 0.3785 0.0
C239 C 0.83932 0.71539 0.35577 0.0
C240 C 0.83016 0.74118 0.84361 0.0
C241 C 0.85142 0.73434 0.83566 0.0
C242 C 0.86047 0.74482 0.81391 0.0
C243 C 0.82794 0.76931 0.8091 0.0
C244 C 0.81886 0.75874 0.83019 0.0
C245 C 0.79686 0.76921 0.83681 0.0
H246 H 0.72231 0.85697 0.81646 0.0
C247 C 0.81255 0.78782 0.80008 0.0
C248 C 0.79429 0.78788 0.81621 0.0
H249 H 0.72139 0.80032 0.87392 0.0
H250 H 0.75367 0.78283 0.8566 0.0
H251 H 0.7303 0.81764 0.77703 0.0
H252 H 0.77648 0.87028 0.81168 0.0
H253 H 0.78316 0.87347 0.7816 0.0
H254 H 0.75538 0.88009 0.7919 0.0
H255 H 0.73318 0.8511 0.76895 0.0
H256 H 0.75158 0.8297 0.75635 0.0
C257 C 0.77753 0.74707 0.83826 0.0
C258 C 0.80055 0.78281 0.85979 0.0
C259 C 0.83409 0.84012 0.72485 0.0
C260 C 0.82386 0.85942 0.7123 0.0
C261 C 0.80277 0.86659 0.72057 0.0
C262 C 0.7923 0.85505 0.74118 0.0
C263 C 0.80304 0.83615 0.75372 0.0
C264 C 0.8234 0.82875 0.74528 0.0
C265 C 0.83233 0.80828 0.76071 0.0
C266 C 0.81394 0.80456 0.77983 0.0
C267 C 0.79696 0.82109 0.7758 0.0
C268 C 0.83317 0.78424 0.74661 0.0
C269 C 0.85572 0.81894 0.76986 0.0
C270 C 0.72882 0.84058 0.82521 0.0
C271 C 0.71942 0.83032 0.84684 0.0
C272 C 0.72861 0.80904 0.85757 0.0
C273 C 0.74732 0.79882 0.84743 0.0
C274 C 0.75708 0.80999 0.82633 0.0
C275 C 0.74747 0.83009 0.81528 0.0
C276 C 0.7597 0.83905 0.79261 0.0
C277 C 0.77867 0.8215 0.79228 0.0
C278 C 0.77718 0.80471 0.81219 0.0
C279 C 0.74291 0.83437 0.77259 0.0
C280 C 0.76914 0.86724 0.7943 0.0
H281 H 0.85678 0.76963 0.78435 0.0
H282 H 0.82251 0.73327 0.86006 0.0
H283 H 0.81794 0.79316 0.85984 0.0
H284 H 0.78878 0.7975 0.86237 0.0
H285 H 0.79888 0.7689 0.87509 0.0
H286 H 0.78062 0.73281 0.82534 0.0
H287 H 0.77635 0.73703 0.8558 0.0
H288 H 0.76068 0.75342 0.83395 0.0
H289 H 0.85046 0.83438 0.7193 0.0
H290 H 0.79433 0.88114 0.7111 0.0
H291 H 0.77638 0.86148 0.74667 0.0
H292 H 0.81849 0.78218 0.73478 0.0
H293 H 0.8491 0.78533 0.73569 0.0
H294 H 0.83169 0.76639 0.75772 0.0
H295 H 0.85618 0.83976 0.77212 0.0
H296 H 0.85932 0.81064 0.78728 0.0
H297 H 0.86993 0.81597 0.75756 0.0
H298 H 0.87693 0.74022 0.80744 0.0
C299 C 0.84882 0.76213 0.80058 0.0
C300 C 0.7402 0.13912 0.36043 0.0
C301 C 0.75229 0.12103 0.34966 0.0
C302 C 0.74399 0.11111 0.32889 0.0
C303 C 0.7121 0.13697 0.33019 0.0
C304 C 0.72026 0.14671 0.35049 0.0
C305 C 0.70536 0.16553 0.35997 0.0
H306 H 0.60979 0.22693 0.35222 0.0
C307 C 0.69089 0.14872 0.3246 0.0
C308 C 0.68685 0.16545 0.34204 0.0
H309 H 0.66184 0.23344 0.40406 0.0
H310 H 0.68278 0.20333 0.38482 0.0
H311 H 0.60834 0.16613 0.34794 0.0
H312 H 0.64461 0.23021 0.30941 0.0
H313 H 0.63749 0.20747 0.28909 0.0
H314 H 0.61502 0.2208 0.30489 0.0
H315 H 0.59461 0.18768 0.32892 0.0
H316 H 0.60674 0.16039 0.3182 0.0
C317 C 0.69584 0.15483 0.38428 0.0
C318 C 0.71965 0.19174 0.35996 0.0
C319 C 0.6476 0.12577 0.25194 0.0
C320 C 0.62775 0.13415 0.24212 0.0
C321 C 0.61592 0.15193 0.25374 0.0
C322 C 0.62373 0.16132 0.27467 0.0
C323 C 0.64368 0.15297 0.28417 0.0
C324 C 0.65529 0.1355 0.27284 0.0
C325 C 0.67638 0.12917 0.28541 0.0
C326 C 0.67551 0.14579 0.30605 0.0
C327 C 0.65625 0.15958 0.30525 0.0
C328 C 0.67345 0.10044 0.29309 0.0
C329 C 0.69743 0.13739 0.26909 0.0
C330 C 0.62577 0.22206 0.35938 0.0
C331 C 0.63396 0.23253 0.3799 0.0
C332 C 0.6548 0.22534 0.38861 0.0
C333 C 0.66708 0.20795 0.37729 0.0
C334 C 0.65859 0.1976 0.3569 0.0
C335 C 0.63835 0.20484 0.34819 0.0
C336 C 0.63227 0.19245 0.32598 0.0
C337 C 0.65205 0.17631 0.32299 0.0
C338 C 0.66733 0.17931 0.34121 0.0
C339 C 0.60922 0.17587 0.33024 0.0
C340 C 0.63213 0.21368 0.30623 0.0
H341 H 0.71855 0.11062 0.30337 0.0
H342 H 0.74622 0.14743 0.37621 0.0
H343 H 0.73217 0.19437 0.34501 0.0
H344 H 0.70916 0.20792 0.35777 0.0
H345 H 0.72941 0.19353 0.37617 0.0
H346 H 0.69182 0.13381 0.38453 0.0
H347 H 0.70847 0.15892 0.39794 0.0
H348 H 0.6796 0.1622 0.38928 0.0
H349 H 0.65718 0.11229 0.24334 0.0
H350 H 0.60041 0.15842 0.24673 0.0
H351 H 0.61391 0.17476 0.28262 0.0
H352 H 0.65535 0.09415 0.29824 0.0
H353 H 0.6784 0.08872 0.27872 0.0
H354 H 0.68327 0.09577 0.30861 0.0
H355 H 0.69509 0.15538 0.25881 0.0
H356 H 0.71329 0.14159 0.27861 0.0
H357 H 0.70015 0.12263 0.25659 0.0
H358 H 0.75276 0.09693 0.32036 0.0
C359 C 0.724 0.11897 0.31912 0.0
C360 C 0.36763 0.61745 0.25594 0.0
C361 C 0.35686 0.59595 0.26873 0.0
C362 C 0.33619 0.58424 0.26064 0.0
C363 C 0.33753 0.61528 0.22768 0.0
C364 C 0.35775 0.62671 0.23566 0.0
C365 C 0.3672 0.64936 0.22024 0.0
H366 H 0.35849 0.72755 0.12432 0.0
C367 C 0.33211 0.62954 0.20586 0.0
C368 C 0.34954 0.64949 0.20147 0.0
H369 H 0.41076 0.73192 0.17595 0.0
H370 H 0.39215 0.69457 0.19695 0.0
H371 H 0.31566 0.71327 0.16106 0.0
H372 H 0.35664 0.66884 0.11956 0.0
H373 H 0.3291 0.65275 0.1209 0.0
H374 H 0.33359 0.68463 0.10743 0.0
H375 H 0.31493 0.71353 0.12987 0.0
H376 H 0.29717 0.69041 0.14804 0.0
C377 C 0.36754 0.67331 0.23463 0.0
C378 C 0.39091 0.64392 0.21043 0.0
C379 C 0.26012 0.60317 0.16179 0.0
C380 C 0.25152 0.61211 0.14044 0.0
C381 C 0.26433 0.63237 0.12753 0.0
C382 C 0.28476 0.64382 0.13582 0.0
C383 C 0.29288 0.63491 0.15721 0.0
C384 C 0.28084 0.61465 0.16967 0.0
C385 C 0.29291 0.60693 0.19144 0.0
C386 C 0.31385 0.62628 0.19015 0.0
C387 C 0.31355 0.64275 0.17013 0.0
C388 C 0.27714 0.61024 0.21273 0.0
C389 C 0.29937 0.57941 0.18929 0.0
C390 C 0.36605 0.72035 0.14004 0.0
C391 C 0.38614 0.73282 0.14847 0.0
C392 C 0.39516 0.72293 0.16921 0.0
C393 C 0.38437 0.70112 0.18133 0.0
C394 C 0.36425 0.68897 0.17274 0.0
C395 C 0.35544 0.69861 0.1524 0.0
C396 C 0.33389 0.6833 0.14591 0.0
C397 C 0.33111 0.66298 0.16581 0.0
C398 C 0.34895 0.66637 0.18143 0.0
C399 C 0.31428 0.70091 0.14603 0.0
C400 C 0.3383 0.67185 0.12217 0.0
H401 H 0.31067 0.58414 0.2351 0.0
H402 H 0.38367 0.62675 0.26138 0.0
H403 H 0.39097 0.62352 0.20662 0.0
H404 H 0.39572 0.65457 0.1937 0.0
H405 H 0.40447 0.64826 0.22312 0.0
H406 H 0.35297 0.67163 0.2475 0.0
H407 H 0.38354 0.67604 0.24445 0.0
H408 H 0.36548 0.69087 0.22387 0.0
H409 H 0.25091 0.58772 0.17232 0.0
H410 H 0.25878 0.63928 0.11074 0.0
H411 H 0.2935 0.65916 0.12512 0.0
H412 H 0.26874 0.62817 0.2104 0.0
H413 H 0.2635 0.5942 0.21509 0.0
H414 H 0.28648 0.61185 0.22907 0.0
H415 H 0.30398 0.57604 0.17093 0.0
H416 H 0.3146 0.57541 0.1992 0.0
H417 H 0.2849 0.56521 0.19501 0.0
H418 H 0.32736 0.56785 0.27025 0.0
C419 C 0.32647 0.5938 0.24025 0.0
C420 C 0.12109 0.27465 0.66176 0.0
C421 C 0.12976 0.26407 0.64181 0.0
C422 C 0.15176 0.27339 0.633 0.0
C423 C 0.15573 0.30353 0.66312 0.0
C424 C 0.13437 0.29427 0.67211 0.0
C425 C 0.12798 0.30768 0.69343 0.0
H426 H 0.15562 0.39767 0.77045 0.0
C427 C 0.16517 0.32384 0.67777 0.0
C428 C 0.14909 0.32633 0.69571 0.0
H429 H 0.09335 0.34729 0.76862 0.0
H430 H 0.10804 0.32812 0.73508 0.0
H431 H 0.1603 0.41059 0.71384 0.0
H432 H 0.18967 0.35623 0.76002 0.0
H433 H 0.21081 0.36782 0.73901 0.0
H434 H 0.19962 0.38947 0.75854 0.0
H435 H 0.18062 0.41971 0.73539 0.0
H436 H 0.1897 0.41141 0.70697 0.0
C437 C 0.10649 0.32152 0.68802 0.0
C438 C 0.12481 0.2877 0.71429 0.0
C439 C 0.2425 0.37135 0.65564 0.0
C440 C 0.2565 0.39045 0.66599 0.0
C441 C 0.24879 0.39949 0.68716 0.0
C442 C 0.22755 0.39008 0.69749 0.0
C443 C 0.21376 0.37122 0.68673 0.0
C444 C 0.22153 0.36193 0.66636 0.0
C445 C 0.20521 0.34104 0.65789 0.0
C446 C 0.1861 0.33971 0.67624 0.0
C447 C 0.19104 0.35758 0.693 0.0
C448 C 0.19719 0.34995 0.63356 0.0
C449 C 0.21741 0.31623 0.65832 0.0
C450 C 0.14505 0.38267 0.76272 0.0
C451 C 0.12324 0.37405 0.77233 0.0
C452 C 0.1103 0.35413 0.76185 0.0
C453 C 0.1188 0.3431 0.74223 0.0
C454 C 0.14055 0.352 0.73281 0.0
C455 C 0.15331 0.37145 0.74308 0.0
C456 C 0.17609 0.37844 0.73071 0.0
C457 C 0.17481 0.36017 0.71122 0.0
C458 C 0.15393 0.34468 0.71254 0.0
C459 C 0.17696 0.40654 0.72127 0.0
C460 C 0.19517 0.37294 0.74787 0.0
H461 H 0.18118 0.29916 0.63572 0.0
H462 H 0.10427 0.26807 0.66902 0.0
H463 H 0.13759 0.27356 0.71322 0.0
H464 H 0.12756 0.2961 0.73125 0.0
H465 H 0.10755 0.27712 0.71456 0.0
H466 H 0.10713 0.32935 0.66963 0.0
H467 H 0.09068 0.30829 0.69064 0.0
H468 H 0.10501 0.33814 0.69853 0.0
H469 H 0.24752 0.36396 0.63933 0.0
H470 H 0.25927 0.4137 0.69598 0.0
H471 H 0.22272 0.39783 0.71351 0.0
H472 H 0.19417 0.37044 0.63307 0.0
H473 H 0.21026 0.34759 0.61981 0.0
H474 H 0.18078 0.3399 0.62885 0.0
H475 H 0.23087 0.31634 0.6716 0.0
H476 H 0.20571 0.29905 0.66338 0.0
H477 H 0.22577 0.31375 0.6412 0.0
H478 H 0.15923 0.26528 0.61809 0.0
C479 C 0.16467 0.293 0.64344 0.0
Zn480 Zn 0.02249 0.99383 0.51638 0.0
Zn481 Zn 0.97929 0.0108 0.48986 0.0
C482 C 0.04272 0.04365 0.52479 0.0
O483 O 0.0582 0.03633 0.51046 0.0
C484 C 0.95895 0.96139 0.48026 0.0
O485 O 0.94374 0.96805 0.49525 0.0
O486 O 0.04841 0.97603 0.53027 0.0
O487 O 0.99332 0.97338 0.52807 0.0
O488 O 0.97285 0.00598 0.52437 0.0
C489 C 0.05387 0.98021 0.55107 0.0
O490 O 0.04207 0.99521 0.56301 0.0
O491 O 0.02483 0.02871 0.52995 0.0
C492 C 0.95264 0.03202 0.45434 0.0
O493 O 0.96899 0.02438 0.44129 0.0
O494 O 0.9535 0.02875 0.47635 0.0
O495 O 0.00833 0.03139 0.47892 0.0
O496 O 0.02897 0.99885 0.48164 0.0
O497 O 0.97678 0.97651 0.47533 0.0
C498 C 0.97636 0.98477 0.53444 0.0
C499 C 0.02544 0.02043 0.47228 0.0
Zn500 Zn 0.52095 0.98382 0.99074 0.0
Zn501 Zn 0.48625 0.01474 0.0118 0.0
C502 C 0.49044 0.95224 0.96537 0.0
O503 O 0.50042 0.93532 0.97812 0.0
C504 C 0.51556 0.04617 0.03841 0.0
O505 O 0.50594 0.06318 0.02541 0.0
O506 O 0.54718 0.96576 0.97917 0.0
O507 O 0.53184 0.02118 0.98726 0.0
O508 O 0.49737 0.03202 0.98078 0.0
C509 C 0.55209 0.96904 0.95751 0.0
O510 O 0.54059 0.98442 0.94463 0.0
O511 O 0.49593 0.97576 0.96794 0.0
C512 C 0.4497 0.02311 0.04201 0.0
O513 O 0.45693 0.00275 0.05247 0.0
O514 O 0.4595 0.03221 0.02302 0.0
O515 O 0.47592 0.97713 0.01468 0.0
O516 O 0.51044 0.96715 0.02211 0.0
O517 O 0.51036 0.0227 0.03544 0.0
C518 C 0.51889 0.03639 0.97772 0.0
C519 C 0.48892 0.96227 0.02465 0.0
Zn520 Zn 0.50901 0.47798 0.49089 0.0
Zn521 Zn 0.49566 0.52603 0.51312 0.0
C522 C 0.54284 0.49596 0.45626 0.0
O523 O 0.53125 0.47779 0.4456 0.0
C524 C 0.4639 0.50622 0.54907 0.0
O525 O 0.47633 0.52364 0.55985 0.0
O526 O 0.51395 0.44289 0.48068 0.0
O527 O 0.51062 0.47599 0.52613 0.0
O528 O 0.52495 0.51575 0.52717 0.0
C529 C 0.52771 0.4295 0.49137 0.0
O530 O 0.53736 0.43793 0.51016 0.0
O531 O 0.53629 0.50078 0.47666 0.0
C532 C 0.4708 0.56814 0.51829 0.0
O533 O 0.45695 0.55335 0.50618 0.0
O534 O 0.49015 0.56087 0.52348 0.0
O535 O 0.49255 0.52884 0.47819 0.0
O536 O 0.4805 0.48855 0.47548 0.0
O537 O 0.46912 0.50254 0.52801 0.0
C538 C 0.52346 0.4929 0.53564 0.0
C539 C 0.48061 0.51168 0.46805 0.0
Zn540 Zn 0.99447 0.51904 0.98757 0.0
Zn541 Zn 0.009 0.47435 0.01924 0.0
C542 C 0.96343 0.49369 0.9583 0.0
O543 O 0.97885 0.50533 0.94347 0.0
C544 C 0.04321 0.49446 0.04831 0.0
O545 O 0.03019 0.47896 0.06281 0.0
O546 O 0.98885 0.55164 0.96992 0.0
O547 O 0.99421 0.5268 0.02165 0.0
O548 O 0.98173 0.48802 0.0347 0.0
C549 C 0.97335 0.56413 0.97804 0.0
O550 O 0.96323 0.5563 0.99811 0.0
O551 O 0.9665 0.49553 0.98001 0.0
C552 C 0.02854 0.42773 0.02687 0.0
O553 O 0.03848 0.43579 0.00677 0.0
O554 O 0.01373 0.44065 0.03572 0.0
O555 O 0.00912 0.46748 0.98487 0.0
O556 O 0.02244 0.50624 0.97284 0.0
O557 O 0.03741 0.49712 0.02718 0.0
C558 C 0.98308 0.51191 0.03691 0.0
C559 C 0.02095 0.48245 0.97021 0.0
C560 C 0.1609 0.11674 0.32027 0.0
C561 C 0.16164 0.14344 0.31771 0.0
C562 C 0.14888 0.10331 0.33907 0.0
C563 C 0.09935 0.10893 0.37628 0.0
H564 H 0.11939 0.05252 0.41395 0.0
C565 C 0.04299 0.06057 0.45168 0.0
C566 C 0.04239 0.03405 0.45554 0.0
C567 C 0.05904 0.07374 0.43611 0.0
C568 C 0.11343 0.06803 0.40338 0.0
H569 H 0.15193 0.17706 0.33391 0.0
H570 H 0.1306 0.15355 0.36644 0.0
H571 H 0.14576 0.07594 0.38501 0.0
H572 H 0.05824 0.00049 0.44629 0.0
H573 H 0.08581 0.0234 0.41831 0.0
H574 H 0.06689 0.10074 0.39375 0.0
C575 C 0.13909 0.14305 0.35372 0.0
C576 C 0.12859 0.08148 0.38693 0.0
C577 C 0.15124 0.15647 0.33508 0.0
C578 C 0.05831 0.02095 0.44363 0.0
C579 C 0.07421 0.03412 0.42774 0.0
C580 C 0.08416 0.09535 0.39244 0.0
C581 C 0.13727 0.11633 0.35554 0.0
C582 C 0.12169 0.10216 0.37336 0.0
C583 C 0.07468 0.06069 0.42371 0.0
C584 C 0.09101 0.07481 0.40632 0.0
H585 H 0.16855 0.1061 0.3071 0.0
H586 H 0.14764 0.08269 0.34003 0.0
H587 H 0.09344 0.12446 0.36567 0.0
H588 H 0.03121 0.07127 0.46091 0.0
H589 H 0.05924 0.09425 0.43393 0.0
C590 C 0.38232 0.89853 0.79216 0.0
C591 C 0.38042 0.87239 0.78833 0.0
C592 C 0.39202 0.90747 0.81248 0.0
C593 C 0.43121 0.88871 0.85816 0.0
H594 H 0.40963 0.94474 0.89035 0.0
C595 C 0.46876 0.9177 0.9448 0.0
C596 C 0.47457 0.94382 0.94714 0.0
C597 C 0.45544 0.90937 0.92647 0.0
C598 C 0.41593 0.9292 0.88143 0.0
H599 H 0.38601 0.83502 0.80332 0.0
H600 H 0.40264 0.85051 0.83883 0.0
H601 H 0.38943 0.92925 0.85648 0.0
H602 H 0.47021 0.98174 0.93253 0.0
H603 H 0.44697 0.9671 0.90033 0.0
H604 H 0.4577 0.88864 0.88293 0.0
C605 C 0.39722 0.86421 0.82591 0.0
C606 C 0.40439 0.92033 0.86203 0.0
C607 C 0.38765 0.85531 0.80559 0.0
C608 C 0.46605 0.96148 0.93119 0.0
C609 C 0.45267 0.95311 0.9128 0.0
C610 C 0.44266 0.8975 0.87753 0.0
C611 C 0.39994 0.89043 0.82942 0.0
C612 C 0.41187 0.89992 0.85021 0.0
C613 C 0.4476 0.92693 0.91 0.0
C614 C 0.43514 0.91778 0.88944 0.0
H615 H 0.37706 0.91216 0.77908 0.0
H616 H 0.39404 0.92779 0.81451 0.0
H617 H 0.4378 0.87338 0.84918 0.0
H618 H 0.47485 0.90358 0.95689 0.0
H619 H 0.45148 0.88909 0.92505 0.0
C620 C 0.60873 0.41349 0.71422 0.0
C621 C 0.63252 0.41863 0.71645 0.0
C622 C 0.59784 0.42253 0.69454 0.0
C623 C 0.59946 0.4721 0.64863 0.0
H624 H 0.56539 0.4219 0.61315 0.0
C625 C 0.55639 0.50027 0.56229 0.0
C626 C 0.53623 0.48582 0.55654 0.0
C627 C 0.56886 0.49274 0.58153 0.0
C628 C 0.57441 0.43633 0.62301 0.0
H629 H 0.66323 0.43812 0.6995 0.0
H630 H 0.64384 0.45486 0.66563 0.0
H631 H 0.58536 0.4082 0.6475 0.0
H632 H 0.51288 0.4527 0.56692 0.0
H633 H 0.53374 0.44033 0.60097 0.0
H634 H 0.58777 0.50041 0.62495 0.0
C635 C 0.63386 0.44345 0.67918 0.0
C636 C 0.58604 0.42837 0.6426 0.0
C637 C 0.6449 0.43394 0.69869 0.0
C638 C 0.52852 0.46407 0.57073 0.0
C639 C 0.54067 0.45685 0.5902 0.0
C640 C 0.5874 0.48017 0.62928 0.0
C641 C 0.61029 0.43747 0.67679 0.0
C642 C 0.59862 0.44615 0.65563 0.0
C643 C 0.56123 0.47083 0.59577 0.0
C644 C 0.57457 0.4624 0.6162 0.0
H645 H 0.59836 0.40251 0.72772 0.0
H646 H 0.57958 0.41795 0.69323 0.0
H647 H 0.60895 0.48619 0.65851 0.0
H648 H 0.56283 0.51705 0.55158 0.0
H649 H 0.58473 0.50387 0.58489 0.0
C650 C 0.90431 0.62802 0.19432 0.0
C651 C 0.89267 0.61336 0.21287 0.0
C652 C 0.9132 0.61636 0.17533 0.0
C653 C 0.93127 0.55485 0.15742 0.0
H654 H 0.92732 0.58586 0.09514 0.0
C655 C 0.96009 0.50666 0.07474 0.0
C656 C 0.97201 0.5226 0.05718 0.0
C657 C 0.94972 0.51702 0.09373 0.0
C658 C 0.92878 0.57706 0.11243 0.0
H659 H 0.88145 0.57479 0.22594 0.0
H660 H 0.89664 0.55447 0.19265 0.0
H661 H 0.91056 0.60519 0.12807 0.0
H662 H 0.9824 0.56201 0.046 0.0
H663 H 0.96457 0.57992 0.07903 0.0
H664 H 0.94961 0.52677 0.14173 0.0
C665 C 0.89907 0.57502 0.1929 0.0
C666 C 0.91916 0.58817 0.13135 0.0
C667 C 0.89012 0.5867 0.21188 0.0
C668 C 0.9733 0.54911 0.05911 0.0
C669 C 0.96292 0.55943 0.07803 0.0
C670 C 0.94091 0.54372 0.13847 0.0
C671 C 0.91073 0.5897 0.17436 0.0
C672 C 0.92041 0.57734 0.15413 0.0
C673 C 0.95095 0.54356 0.09559 0.0
C674 C 0.93995 0.55479 0.11574 0.0
H675 H 0.90639 0.6486 0.19433 0.0
H676 H 0.9223 0.62827 0.16152 0.0
H677 H 0.93281 0.54614 0.17474 0.0
H678 H 0.95873 0.48617 0.07381 0.0
H679 H 0.94046 0.50423 0.10681 0.0
C680 C 0.31636 0.14897 0.14194 0.0
C681 C 0.30248 0.13435 0.15896 0.0
C682 C 0.33187 0.13758 0.1281 0.0
C683 C 0.34405 0.0745 0.1084 0.0
H684 H 0.40391 0.10899 0.09195 0.0
C685 C 0.41814 0.02353 0.07172 0.0
C686 C 0.43135 0.03593 0.05303 0.0
C687 C 0.40159 0.03596 0.08307 0.0
C688 C 0.38714 0.09928 0.09618 0.0
H689 H 0.29418 0.09622 0.17478 0.0
H690 H 0.3218 0.07662 0.15139 0.0
H691 H 0.37711 0.13001 0.11548 0.0
H692 H 0.43743 0.07101 0.03139 0.0
H693 H 0.40854 0.09287 0.05147 0.0
H694 H 0.35438 0.04352 0.08958 0.0
C695 C 0.32038 0.09681 0.14836 0.0
C696 C 0.37177 0.11131 0.10964 0.0
C697 C 0.30478 0.10816 0.16206 0.0
C698 C 0.42747 0.06094 0.04571 0.0
C699 C 0.41106 0.0735 0.05727 0.0
C700 C 0.35948 0.06242 0.09513 0.0
C701 C 0.33396 0.11131 0.13104 0.0
C702 C 0.3501 0.09897 0.11609 0.0
C703 C 0.39805 0.06115 0.07613 0.0
C704 C 0.38124 0.0746 0.08904 0.0
H705 H 0.31524 0.16926 0.13926 0.0
H706 H 0.34193 0.1493 0.11482 0.0
H707 H 0.32733 0.06466 0.11257 0.0
H708 H 0.42071 0.00425 0.07775 0.0
H709 H 0.39195 0.02607 0.09769 0.0
C710 C 0.21863 0.87897 0.62839 0.0
C711 C 0.23209 0.89445 0.64295 0.0
C712 C 0.19918 0.88756 0.61827 0.0
C713 C 0.15516 0.93032 0.6263 0.0
H714 H 0.14767 0.92881 0.55961 0.0
C715 C 0.08389 0.98003 0.581 0.0
C716 C 0.07378 0.96932 0.56152 0.0
C717 C 0.10295 0.97025 0.5908 0.0
C718 C 0.14921 0.92897 0.57831 0.0
H719 H 0.2355 0.93138 0.65796 0.0
H720 H 0.20104 0.94582 0.64101 0.0
H721 H 0.18119 0.91258 0.5771 0.0
H722 H 0.07549 0.93971 0.53718 0.0
H723 H 0.10821 0.92188 0.55483 0.0
H724 H 0.12302 0.94591 0.62785 0.0
C725 C 0.20572 0.92706 0.63746 0.0
C726 C 0.16851 0.9198 0.58827 0.0
C727 C 0.2254 0.91867 0.64726 0.0
C728 C 0.08301 0.94845 0.55213 0.0
C729 C 0.10188 0.93836 0.56218 0.0
C730 C 0.13568 0.93908 0.61643 0.0
C731 C 0.1925 0.91162 0.62281 0.0
C732 C 0.17175 0.92063 0.61232 0.0
C733 C 0.11218 0.94918 0.58163 0.0
C734 C 0.13253 0.93881 0.59225 0.0
H735 H 0.22287 0.86001 0.62502 0.0
H736 H 0.18911 0.8752 0.60722 0.0
H737 H 0.15713 0.93085 0.64494 0.0
H738 H 0.07733 0.99632 0.58849 0.0
H739 H 0.11064 0.97954 0.60538 0.0
C740 C 0.79196 0.41109 0.85819 0.0
C741 C 0.77329 0.40121 0.87272 0.0
C742 C 0.81234 0.42114 0.86773 0.0
C743 C 0.84446 0.41964 0.92258 0.0
H744 H 0.87968 0.479 0.89304 0.0
C745 C 0.92362 0.47163 0.96452 0.0
C746 C 0.94215 0.48068 0.94945 0.0
C747 C 0.903 0.46132 0.95557 0.0
C748 C 0.87019 0.46223 0.90138 0.0
H749 H 0.76108 0.39521 0.90865 0.0
H750 H 0.79642 0.41292 0.92524 0.0
H751 H 0.84374 0.46305 0.87651 0.0
H752 H 0.95377 0.48507 0.91323 0.0
H753 H 0.91813 0.46693 0.89781 0.0
H754 H 0.87095 0.41892 0.9475 0.0
C755 C 0.79559 0.41233 0.9065 0.0
C756 C 0.84955 0.45307 0.89188 0.0
C757 C 0.77528 0.40224 0.89697 0.0
C758 C 0.93981 0.4785 0.92536 0.0
C759 C 0.91928 0.46824 0.91647 0.0
C760 C 0.8651 0.42884 0.93212 0.0
C761 C 0.8145 0.42167 0.89204 0.0
C762 C 0.83642 0.4316 0.9023 0.0
C763 C 0.90048 0.45987 0.93139 0.0
C764 C 0.87829 0.45019 0.92158 0.0
H765 H 0.79108 0.41034 0.83946 0.0
H766 H 0.82661 0.42789 0.85605 0.0
H767 H 0.835 0.40283 0.93089 0.0
H768 H 0.92484 0.47307 0.98315 0.0
H769 H 0.88882 0.45516 0.96757 0.0
C770 C 0.72854 0.59415 0.37629 0.0
C771 C 0.72935 0.60112 0.35236 0.0
C772 C 0.708 0.58415 0.38749 0.0
C773 C 0.64937 0.55522 0.37501 0.0
H774 H 0.63839 0.56571 0.44027 0.0
C775 C 0.57481 0.49822 0.42674 0.0
C776 C 0.56377 0.50944 0.44486 0.0
C777 C 0.59459 0.51045 0.41573 0.0
C778 C 0.64093 0.56285 0.42195 0.0
H779 H 0.70928 0.60379 0.32145 0.0
H780 H 0.67319 0.58745 0.34102 0.0
H781 H 0.67284 0.58599 0.42044 0.0
H782 H 0.56475 0.54243 0.46559 0.0
H783 H 0.59883 0.56446 0.4457 0.0
H784 H 0.61698 0.53321 0.37613 0.0
C785 C 0.68849 0.58873 0.35114 0.0
C786 C 0.66101 0.57416 0.41061 0.0
C787 C 0.70915 0.59825 0.33987 0.0
C788 C 0.57295 0.53327 0.45173 0.0
C789 C 0.59259 0.5458 0.44038 0.0
C790 C 0.62915 0.54431 0.38621 0.0
C791 C 0.68761 0.58132 0.37511 0.0
C792 C 0.66569 0.57025 0.38703 0.0
C793 C 0.60371 0.53456 0.42217 0.0
C794 C 0.62475 0.54758 0.40996 0.0
H795 H 0.74394 0.596 0.38627 0.0
H796 H 0.70828 0.57822 0.40578 0.0
H797 H 0.6523 0.55137 0.35696 0.0
H798 H 0.56836 0.47969 0.42123 0.0
H799 H 0.60287 0.50071 0.40233 0.0
C800 C 0.14637 0.27445 0.1156 0.0
C801 C 0.15019 0.27636 0.13949 0.0
C802 C 0.13121 0.28943 0.10426 0.0
C803 C 0.10151 0.34768 0.11029 0.0
H804 H 0.06451 0.31984 0.06116 0.0
C805 C 0.03432 0.40396 0.06478 0.0
C806 C 0.03719 0.40631 0.04042 0.0
C807 C 0.04552 0.38608 0.07784 0.0
C808 C 0.07474 0.32781 0.07487 0.0
H809 H 0.14127 0.296 0.17006 0.0
H810 H 0.11417 0.32125 0.15056 0.0
H811 H 0.08966 0.293 0.08224 0.0
H812 H 0.05287 0.39089 0.01052 0.0
H813 H 0.0721 0.35938 0.03333 0.0
H814 H 0.0864 0.38243 0.10294 0.0
C815 C 0.12319 0.3085 0.14044 0.0
C816 C 0.08927 0.31254 0.08684 0.0
C817 C 0.13853 0.29373 0.15172 0.0
C818 C 0.0504 0.38953 0.02929 0.0
C819 C 0.06133 0.37144 0.04232 0.0
C820 C 0.08678 0.36283 0.09851 0.0
C821 C 0.1193 0.30652 0.11657 0.0
C822 C 0.10307 0.32239 0.1045 0.0
C823 C 0.05948 0.37 0.06674 0.0
C824 C 0.07347 0.35313 0.0805 0.0
H825 H 0.15481 0.26107 0.10567 0.0
H826 H 0.12896 0.28768 0.08578 0.0
H827 H 0.11212 0.35608 0.1235 0.0
H828 H 0.02431 0.4167 0.07384 0.0
H829 H 0.0437 0.38519 0.09666 0.0
C830 C 0.62507 0.21977 0.8709 0.0
C831 C 0.61189 0.23845 0.86142 0.0
C832 C 0.61458 0.19774 0.88277 0.0
C833 C 0.56085 0.17197 0.91384 0.0
H834 H 0.58396 0.10677 0.90514 0.0
C835 C 0.51502 0.07709 0.95397 0.0
C836 C 0.52896 0.05931 0.96369 0.0
C837 C 0.52469 0.09879 0.94093 0.0
C838 C 0.57743 0.12486 0.90795 0.0
H839 H 0.5773 0.24863 0.85718 0.0
H840 H 0.559 0.21001 0.87752 0.0
H841 H 0.60169 0.14482 0.88347 0.0
H842 H 0.56403 0.05044 0.96727 0.0
H843 H 0.58083 0.08828 0.94479 0.0
H844 H 0.53666 0.15201 0.93841 0.0
C845 C 0.57747 0.2125 0.87595 0.0
C846 C 0.5876 0.14669 0.89552 0.0
C847 C 0.58796 0.23452 0.86404 0.0
C848 C 0.55276 0.06369 0.96001 0.0
C849 C 0.56241 0.08534 0.94697 0.0
C850 C 0.55067 0.15013 0.92628 0.0
C851 C 0.59065 0.19386 0.88549 0.0
C852 C 0.57951 0.17054 0.89839 0.0
C853 C 0.54851 0.10317 0.93727 0.0
C854 C 0.55891 0.12632 0.92357 0.0
H855 H 0.64353 0.22207 0.86901 0.0
H856 H 0.62526 0.18391 0.89011 0.0
H857 H 0.55439 0.19008 0.91672 0.0
H858 H 0.49662 0.07428 0.95643 0.0
H859 H 0.51347 0.112 0.93349 0.0
C860 C 0.87311 0.79129 0.36651 0.0
C861 C 0.88481 0.76962 0.36404 0.0
C862 C 0.88317 0.81218 0.37759 0.0
C863 C 0.93805 0.84147 0.40004 0.0
H864 H 0.89664 0.87375 0.43969 0.0
C865 C 0.96478 0.93447 0.44634 0.0
C866 C 0.95414 0.93766 0.46797 0.0
C867 C 0.95809 0.91327 0.43365 0.0
C868 C 0.90859 0.86481 0.42898 0.0
H869 H 0.91649 0.75307 0.37047 0.0
H870 H 0.934 0.78936 0.3905 0.0
H871 H 0.88197 0.83874 0.4173 0.0
H872 H 0.92923 0.92038 0.49391 0.0
H873 H 0.9182 0.88315 0.47234 0.0
H874 H 0.96483 0.86716 0.41254 0.0
C875 C 0.91718 0.79046 0.3835 0.0
C876 C 0.90005 0.84493 0.41573 0.0
C877 C 0.90717 0.76962 0.37208 0.0
C878 C 0.93753 0.91866 0.47714 0.0
C879 C 0.93108 0.89737 0.46465 0.0
C880 C 0.94666 0.86133 0.4135 0.0
C881 C 0.90508 0.8118 0.38687 0.0
C882 C 0.91459 0.83303 0.40094 0.0
C883 C 0.94079 0.89468 0.44243 0.0
C884 C 0.93202 0.87327 0.42819 0.0
H885 H 0.85597 0.79192 0.36015 0.0
H886 H 0.87357 0.82851 0.37918 0.0
H887 H 0.94977 0.83292 0.38875 0.0
H888 H 0.97759 0.94886 0.43878 0.0
H889 H 0.96587 0.912 0.41656 0.0
C890 C 0.40676 0.75344 0.61303 0.0
C891 C 0.383 0.75408 0.61115 0.0
C892 C 0.41809 0.73508 0.60206 0.0
C893 C 0.4128 0.69177 0.55425 0.0
H894 H 0.45468 0.65285 0.58903 0.0
C895 C 0.44075 0.59796 0.52298 0.0
C896 C 0.46308 0.59178 0.52707 0.0
C897 C 0.43278 0.61943 0.53218 0.0
C898 C 0.44337 0.66383 0.57891 0.0
H899 H 0.35255 0.73548 0.59652 0.0
H900 H 0.37238 0.7039 0.57707 0.0
H901 H 0.43747 0.68737 0.60715 0.0
H902 H 0.49474 0.60364 0.54367 0.0
H903 H 0.48092 0.64153 0.55942 0.0
H904 H 0.4186 0.66839 0.52601 0.0
C905 C 0.38225 0.71778 0.58685 0.0
C906 C 0.43346 0.68356 0.58933 0.0
C907 C 0.3709 0.73596 0.59796 0.0
C908 C 0.47742 0.60785 0.54025 0.0
C909 C 0.46945 0.62947 0.5494 0.0
C910 C 0.42281 0.67221 0.54377 0.0
C911 C 0.40595 0.71711 0.5888 0.0
C912 C 0.41777 0.69744 0.57724 0.0
C913 C 0.44696 0.63542 0.5456 0.0
C914 C 0.43791 0.65767 0.5561 0.0
H915 H 0.4167 0.76731 0.62275 0.0
H916 H 0.43641 0.73514 0.60369 0.0
H917 H 0.40107 0.70245 0.54436 0.0
H918 H 0.42919 0.58594 0.51301 0.0
H919 H 0.41524 0.6231 0.52923 0.0
C920 C 0.84817 0.859 0.6759 0.0
C921 C 0.83575 0.87261 0.69129 0.0
C922 C 0.86133 0.87169 0.65754 0.0
C923 C 0.88999 0.93537 0.63983 0.0
H924 H 0.89958 0.90451 0.58127 0.0
C925 C 0.94338 0.98667 0.56233 0.0
C926 C 0.95963 0.97252 0.55214 0.0
C927 C 0.92717 0.97499 0.57863 0.0
C928 C 0.89711 0.91327 0.5976 0.0
H929 H 0.82675 0.91023 0.6988 0.0
H930 H 0.84893 0.93225 0.66619 0.0
H931 H 0.87191 0.88347 0.6101 0.0
H932 H 0.97152 0.93499 0.5509 0.0
H933 H 0.94301 0.91454 0.57926 0.0
H934 H 0.91508 0.96528 0.62711 0.0
C935 C 0.84899 0.9118 0.6687 0.0
C936 C 0.88131 0.90122 0.61414 0.0
C937 C 0.83598 0.89911 0.68722 0.0
C938 C 0.9593 0.94643 0.55853 0.0
C939 C 0.94289 0.93468 0.57461 0.0
C940 C 0.90559 0.94753 0.62318 0.0
C941 C 0.86221 0.89831 0.65393 0.0
C942 C 0.87776 0.91196 0.63559 0.0
C943 C 0.9267 0.94886 0.58481 0.0
C944 C 0.90948 0.93645 0.60204 0.0
H945 H 0.84807 0.83852 0.67827 0.0
H946 H 0.87142 0.86066 0.64668 0.0
H947 H 0.88804 0.94398 0.6563 0.0
H948 H 0.9432 0.00682 0.55774 0.0
H949 H 0.91479 0.98631 0.58615 0.0
C950 C 0.61806 0.09857 0.21576 0.0
C951 C 0.61926 0.12463 0.21983 0.0
C952 C 0.6087 0.08957 0.1953 0.0
C953 C 0.5696 0.10764 0.14919 0.0
H954 H 0.59373 0.05354 0.11626 0.0
C955 C 0.53567 0.08048 0.06057 0.0
C956 C 0.53059 0.05441 0.0574 0.0
C957 C 0.54813 0.08854 0.07958 0.0
C958 C 0.58671 0.06853 0.12539 0.0
H959 H 0.61274 0.16183 0.20514 0.0
H960 H 0.59671 0.14626 0.16943 0.0
H961 H 0.61261 0.06869 0.151 0.0
H962 H 0.53539 0.01632 0.07127 0.0
H963 H 0.55716 0.03047 0.10465 0.0
H964 H 0.54375 0.10756 0.12371 0.0
C965 C 0.60239 0.13263 0.18226 0.0
C966 C 0.5975 0.07719 0.14529 0.0
C967 C 0.61161 0.14158 0.20271 0.0
C968 C 0.539 0.03655 0.07324 0.0
C969 C 0.55153 0.04465 0.09231 0.0
C970 C 0.55891 0.09907 0.12933 0.0
C971 C 0.60044 0.10647 0.17846 0.0
C972 C 0.58912 0.09695 0.15736 0.0
C973 C 0.55584 0.07074 0.09592 0.0
C974 C 0.56738 0.07952 0.11711 0.0
H975 H 0.6237 0.08504 0.22872 0.0
H976 H 0.60729 0.06929 0.19303 0.0
H977 H 0.56233 0.12245 0.15834 0.0
H978 H 0.52965 0.09476 0.0486 0.0
H979 H 0.55154 0.10878 0.08163 0.0
C980 C 0.36756 0.55952 0.29523 0.0
C981 C 0.36731 0.58587 0.29031 0.0
C982 C 0.3783 0.55024 0.31501 0.0
C983 C 0.39998 0.56926 0.37234 0.0
H984 H 0.43729 0.5131 0.36692 0.0
C985 C 0.46496 0.5447 0.44155 0.0
C986 C 0.46673 0.51889 0.44791 0.0
C987 C 0.45175 0.55173 0.42281 0.0
C988 C 0.42671 0.52859 0.36882 0.0
H989 H 0.37761 0.62306 0.30285 0.0
H990 H 0.39667 0.60698 0.3369 0.0
H991 H 0.41593 0.52736 0.33357 0.0
H992 H 0.45598 0.48021 0.43939 0.0
H993 H 0.43288 0.49253 0.40659 0.0
H994 H 0.41102 0.57073 0.40747 0.0
C995 C 0.38842 0.5934 0.32563 0.0
C996 C 0.41443 0.53676 0.3497 0.0
C997 C 0.37771 0.60266 0.30589 0.0
C998 C 0.455 0.50026 0.43496 0.0
C999 C 0.44185 0.50732 0.41609 0.0
C1000 C 0.4123 0.56114 0.39141 0.0
C1001 C 0.38899 0.56707 0.33041 0.0
C1002 C 0.40109 0.5574 0.35113 0.0
C1003 C 0.44 0.53316 0.40984 0.0
C1004 C 0.42602 0.54089 0.38984 0.0
H1005 H 0.35988 0.54604 0.28353 0.0
H1006 H 0.37817 0.52984 0.31826 0.0
H1007 H 0.38954 0.58486 0.37427 0.0
H1008 H 0.47374 0.55959 0.4511 0.0
H1009 H 0.45099 0.5718 0.41829 0.0
C1010 C 0.11712 0.41227 0.79519 0.0
C1011 C 0.11391 0.38578 0.79306 0.0
C1012 C 0.10795 0.42329 0.81444 0.0
C1013 C 0.08553 0.40788 0.87497 0.0
H1014 H 0.057 0.47073 0.86577 0.0
C1015 C 0.03026 0.44576 0.94705 0.0
C1016 C 0.03225 0.47213 0.9499 0.0
C1017 C 0.0409 0.43583 0.92807 0.0
C1018 C 0.06515 0.45335 0.86871 0.0
H1019 H 0.09887 0.35014 0.80988 0.0
H1020 H 0.08258 0.36935 0.84315 0.0
H1021 H 0.0744 0.45233 0.83257 0.0
H1022 H 0.04701 0.50873 0.93482 0.0
H1023 H 0.06571 0.49137 0.90173 0.0
H1024 H 0.0762 0.40881 0.91107 0.0
C1025 C 0.09235 0.38162 0.83004 0.0
C1026 C 0.07515 0.44278 0.84965 0.0
C1027 C 0.10147 0.37061 0.81078 0.0
C1028 C 0.0451 0.48834 0.93318 0.0
C1029 C 0.05572 0.47838 0.91413 0.0
C1030 C 0.07555 0.41844 0.89401 0.0
C1031 C 0.0954 0.40812 0.8321 0.0
C1032 C 0.08534 0.41981 0.8525 0.0
C1033 C 0.05381 0.45198 0.91136 0.0
C1034 C 0.06508 0.44122 0.89113 0.0
H1035 H 0.12643 0.42457 0.78179 0.0
H1036 H 0.11085 0.44372 0.81556 0.0
H1037 H 0.09359 0.39044 0.87792 0.0
H1038 H 0.02041 0.43268 0.95949 0.0
H1039 H 0.03872 0.41545 0.92633 0.0
C1040 C 0.68364 0.85287 0.84563 0.0
C1041 C 0.70083 0.84245 0.8586 0.0
C1042 C 0.66713 0.86579 0.85655 0.0
C1043 C 0.63901 0.87358 0.91295 0.0
H1044 H 0.62794 0.93988 0.8856 0.0
C1045 C 0.5839 0.94071 0.96029 0.0
C1046 C 0.56954 0.95482 0.94661 0.0
C1047 C 0.60001 0.92686 0.94978 0.0
C1048 C 0.63056 0.92125 0.89332 0.0
H1049 H 0.71392 0.83731 0.89336 0.0
H1050 H 0.68476 0.85933 0.91241 0.0
H1051 H 0.65499 0.91504 0.86659 0.0
H1052 H 0.56066 0.96529 0.9112 0.0
H1053 H 0.58825 0.94072 0.89294 0.0
H1054 H 0.61433 0.87953 0.93948 0.0
C1055 C 0.68408 0.85739 0.8938 0.0
C1056 C 0.64609 0.90706 0.88242 0.0
C1057 C 0.70073 0.84469 0.88286 0.0
C1058 C 0.57161 0.95479 0.92224 0.0
C1059 C 0.58754 0.94078 0.91175 0.0
C1060 C 0.62328 0.88767 0.92375 0.0
C1061 C 0.66731 0.86836 0.88071 0.0
C1062 C 0.65048 0.8831 0.89213 0.0
C1063 C 0.60197 0.92665 0.92537 0.0
C1064 C 0.61887 0.9117 0.91407 0.0
H1065 H 0.68293 0.8511 0.827 0.0
H1066 H 0.65418 0.87378 0.8461 0.0
H1067 H 0.64195 0.85505 0.92069 0.0
H1068 H 0.58276 0.94043 0.97912 0.0
H1069 H 0.61108 0.91651 0.9608 0.0
C1070 C 0.79236 0.10847 0.34602 0.0
C1071 C 0.77333 0.11246 0.36014 0.0
C1072 C 0.81216 0.10055 0.35595 0.0
C1073 C 0.84285 0.09857 0.41117 0.0
H1074 H 0.87385 0.04584 0.38315 0.0
C1075 C 0.91435 0.04904 0.45725 0.0
C1076 C 0.93295 0.04307 0.4435 0.0
C1077 C 0.89534 0.05841 0.44688 0.0
C1078 C 0.86559 0.06083 0.39103 0.0
H1079 H 0.76012 0.11074 0.39578 0.0
H1080 H 0.79468 0.09707 0.41306 0.0
H1081 H 0.83984 0.06036 0.36534 0.0
H1082 H 0.94634 0.04277 0.40807 0.0
H1083 H 0.91336 0.05946 0.39004 0.0
H1084 H 0.86859 0.09907 0.43686 0.0
C1085 C 0.7944 0.10044 0.39433 0.0
C1086 C 0.84607 0.06913 0.38082 0.0
C1087 C 0.77459 0.10829 0.38441 0.0
C1088 C 0.93226 0.04706 0.41918 0.0
C1089 C 0.91328 0.05648 0.40882 0.0
C1090 C 0.86241 0.09032 0.42135 0.0
C1091 C 0.81342 0.09648 0.38023 0.0
C1092 C 0.83442 0.08801 0.39083 0.0
C1093 C 0.8945 0.06208 0.42253 0.0
C1094 C 0.87397 0.07128 0.41145 0.0
H1095 H 0.7921 0.11187 0.32729 0.0
H1096 H 0.82663 0.09798 0.34462 0.0
H1097 H 0.83446 0.11343 0.41911 0.0
H1098 H 0.91429 0.0461 0.47604 0.0
H1099 H 0.88107 0.06224 0.45796 0.0
C1100 C 0.22255 0.5743 0.13563 0.0
C1101 C 0.22952 0.60044 0.13138 0.0
C1102 C 0.2022 0.56343 0.12665 0.0
C1103 C 0.16324 0.56986 0.07907 0.0
H1104 H 0.11783 0.53124 0.12017 0.0
C1105 C 0.07501 0.53009 0.04589 0.0
C1106 C 0.06478 0.50717 0.05663 0.0
C1107 C 0.09499 0.54217 0.05477 0.0
C1108 C 0.13044 0.54152 0.10826 0.0
H1109 H 0.21971 0.63562 0.11476 0.0
H1110 H 0.18493 0.6163 0.0983 0.0
H1111 H 0.15308 0.55007 0.13605 0.0
H1112 H 0.06791 0.47835 0.0844 0.0
H1113 H 0.103 0.49843 0.09903 0.0
H1114 H 0.14121 0.56061 0.0511 0.0
C1115 C 0.19534 0.60434 0.1086 0.0
C1116 C 0.15059 0.55246 0.11748 0.0
C1117 C 0.21541 0.61533 0.11796 0.0
C1118 C 0.07518 0.49624 0.07595 0.0
C1119 C 0.0953 0.50795 0.08449 0.0
C1120 C 0.14327 0.55847 0.06972 0.0
C1121 C 0.18853 0.57831 0.11286 0.0
C1122 C 0.16718 0.56672 0.10299 0.0
C1123 C 0.10539 0.5313 0.07431 0.0
C1124 C 0.12656 0.54405 0.08418 0.0
H1125 H 0.233 0.56202 0.14549 0.0
H1126 H 0.19736 0.54325 0.13007 0.0
H1127 H 0.17586 0.58068 0.0675 0.0
H1128 H 0.0673 0.53899 0.03101 0.0
H1129 H 0.10198 0.56026 0.04655 0.0
C1130 C 0.29198 0.3855 0.64159 0.0
C1131 C 0.27885 0.40095 0.65464 0.0
C1132 C 0.31243 0.39559 0.63024 0.0
C1133 C 0.35926 0.44537 0.63232 0.0
H1134 H 0.36746 0.43897 0.56592 0.0
C1135 C 0.4336 0.50278 0.58048 0.0
C1136 C 0.44336 0.49252 0.56104 0.0
C1137 C 0.41402 0.49049 0.59182 0.0
C1138 C 0.36574 0.44056 0.58454 0.0
H1139 H 0.27741 0.43939 0.66579 0.0
H1140 H 0.31359 0.45649 0.64689 0.0
H1141 H 0.33273 0.41925 0.58617 0.0
H1142 H 0.44038 0.46111 0.53839 0.0
H1143 H 0.40667 0.43893 0.5588 0.0
H1144 H 0.39237 0.46588 0.63114 0.0
C1145 C 0.30779 0.43659 0.64539 0.0
C1146 C 0.34574 0.42936 0.59608 0.0
C1147 C 0.28711 0.42667 0.65636 0.0
C1148 C 0.43317 0.46953 0.55328 0.0
C1149 C 0.41373 0.45692 0.56493 0.0
C1150 C 0.37944 0.45614 0.62091 0.0
C1151 C 0.32054 0.42121 0.63206 0.0
C1152 C 0.34219 0.43198 0.62001 0.0
C1153 C 0.40383 0.46727 0.58437 0.0
C1154 C 0.38285 0.45429 0.59675 0.0
H1155 H 0.28661 0.36549 0.64022 0.0
H1156 H 0.32209 0.38326 0.62027 0.0
H1157 H 0.35707 0.44735 0.65085 0.0
H1158 H 0.44085 0.52065 0.58673 0.0
H1159 H 0.40669 0.49955 0.60625 0.0
C1160 C 0.87745 0.69936 0.84021 0.0
C1161 C 0.86455 0.71718 0.85034 0.0
C1162 C 0.89036 0.68387 0.85403 0.0
C1163 C 0.89409 0.6564 0.91337 0.0
H1164 H 0.95715 0.6491 0.89598 0.0
C1165 C 0.95025 0.60127 0.97413 0.0
C1166 C 0.96453 0.58498 0.96384 0.0
C1167 C 0.93962 0.61905 0.96042 0.0
C1168 C 0.93949 0.65071 0.90096 0.0
H1169 H 0.85541 0.73281 0.88301 0.0
H1170 H 0.87743 0.70527 0.90709 0.0
H1171 H 0.93483 0.67603 0.87138 0.0
H1172 H 0.97948 0.57502 0.93119 0.0
H1173 H 0.96048 0.60559 0.90715 0.0
H1174 H 0.89835 0.63067 0.94254 0.0
C1175 C 0.87744 0.70329 0.88845 0.0
C1176 C 0.92675 0.66615 0.88688 0.0
C1177 C 0.86473 0.71896 0.87464 0.0
C1178 C 0.96866 0.58745 0.93963 0.0
C1179 C 0.9578 0.60503 0.92586 0.0
C1180 C 0.90672 0.64078 0.9273 0.0
C1181 C 0.89045 0.68568 0.87828 0.0
C1182 C 0.90396 0.66918 0.893 0.0
C1183 C 0.94279 0.6207 0.93606 0.0
C1184 C 0.92961 0.63779 0.92133 0.0
H1185 H 0.87743 0.6972 0.82161 0.0
H1186 H 0.90002 0.6702 0.84579 0.0
H1187 H 0.87644 0.65814 0.91831 0.0
H1188 H 0.94693 0.59996 0.99278 0.0
H1189 H 0.92864 0.63124 0.96893 0.0
C1190 C 0.40645 0.77693 0.14807 0.0
C1191 C 0.39754 0.75613 0.13581 0.0
C1192 C 0.41688 0.79897 0.13616 0.0
C1193 C 0.4198 0.83396 0.0785 0.0
H1194 H 0.474 0.87 0.10243 0.0
C1195 C 0.45514 0.93383 0.04101 0.0
C1196 C 0.47897 0.93884 0.03799 0.0
C1197 C 0.4456 0.91152 0.05311 0.0
C1198 C 0.45898 0.86006 0.09541 0.0
H1199 H 0.39308 0.74202 0.10139 0.0
H1200 H 0.41127 0.78043 0.08062 0.0
H1201 H 0.45704 0.83075 0.12285 0.0
H1202 H 0.51146 0.92434 0.04548 0.0
H1203 H 0.49476 0.88525 0.06643 0.0
H1204 H 0.42194 0.86298 0.05085 0.0
C1205 C 0.40987 0.77987 0.09945 0.0
C1206 C 0.44909 0.83771 0.10727 0.0
C1207 C 0.39943 0.75784 0.11136 0.0
C1208 C 0.49304 0.9211 0.04754 0.0
C1209 C 0.48347 0.89875 0.05965 0.0
C1210 C 0.42966 0.8563 0.06667 0.0
C1211 C 0.41865 0.80075 0.11169 0.0
C1212 C 0.42936 0.8244 0.09898 0.0
C1213 C 0.45962 0.89363 0.06248 0.0
C1214 C 0.44933 0.86968 0.075 0.0
H1215 H 0.40498 0.7764 0.16689 0.0
H1216 H 0.42313 0.81483 0.14612 0.0
H1217 H 0.40448 0.82436 0.07175 0.0
H1218 H 0.44379 0.94714 0.03401 0.0
H1219 H 0.42718 0.9084 0.05528 0.0
C1220 C 0.11764 0.24245 0.60571 0.0
C1221 C 0.1164 0.24324 0.63012 0.0
C1222 C 0.10722 0.22174 0.59468 0.0
C1223 C 0.06325 0.16775 0.59975 0.0
H1224 H 0.10362 0.13734 0.55752 0.0
C1225 C 0.03795 0.07146 0.5582 0.0
C1226 C 0.04727 0.06802 0.53603 0.0
C1227 C 0.04458 0.09348 0.56981 0.0
C1228 C 0.09189 0.14578 0.56886 0.0
H1229 H 0.10211 0.22318 0.66189 0.0
H1230 H 0.08337 0.18715 0.64239 0.0
H1231 H 0.11781 0.17467 0.57743 0.0
H1232 H 0.06966 0.08552 0.50799 0.0
H1233 H 0.08037 0.12426 0.52756 0.0
H1234 H 0.03712 0.13918 0.59078 0.0
C1235 C 0.09266 0.20264 0.63195 0.0
C1236 C 0.10013 0.16714 0.58041 0.0
C1237 C 0.10335 0.22332 0.64308 0.0
C1238 C 0.06244 0.0875 0.52522 0.0
C1239 C 0.06873 0.10964 0.53658 0.0
C1240 C 0.05484 0.14651 0.58789 0.0
C1241 C 0.09499 0.20139 0.60768 0.0
C1242 C 0.08591 0.17843 0.59589 0.0
C1243 C 0.06041 0.11268 0.55931 0.0
C1244 C 0.06904 0.1353 0.57216 0.0
H1245 H 0.12695 0.25775 0.59506 0.0
H1246 H 0.10895 0.22149 0.57591 0.0
H1247 H 0.0519 0.17617 0.61155 0.0
H1248 H 0.02631 0.05666 0.567 0.0
H1249 H 0.03791 0.09495 0.58732 0.0
C1250 C 0.6202 0.2508 0.41656 0.0
C1251 C 0.62101 0.25101 0.39208 0.0
C1252 C 0.60854 0.26854 0.42798 0.0
C1253 C 0.56348 0.3117 0.42101 0.0
H1254 H 0.59488 0.34847 0.46914 0.0
C1255 C 0.53082 0.40151 0.45796 0.0
C1256 C 0.53487 0.40624 0.48136 0.0
C1257 C 0.53974 0.38101 0.44783 0.0
C1258 C 0.58563 0.33808 0.45607 0.0
H1259 H 0.61007 0.27024 0.36051 0.0
H1260 H 0.58932 0.30078 0.38054 0.0
H1261 H 0.61338 0.31558 0.45012 0.0
H1262 H 0.55047 0.3925 0.5128 0.0
H1263 H 0.56534 0.35626 0.49542 0.0
H1264 H 0.53561 0.33396 0.42707 0.0
C1265 C 0.59766 0.28675 0.39082 0.0
C1266 C 0.59632 0.3193 0.4451 0.0
C1267 C 0.60953 0.26919 0.37936 0.0
C1268 C 0.54723 0.38947 0.49466 0.0
C1269 C 0.55591 0.3688 0.48462 0.0
C1270 C 0.55266 0.33032 0.43216 0.0
C1271 C 0.59721 0.28673 0.41523 0.0
C1272 C 0.58543 0.30605 0.42735 0.0
C1273 C 0.5527 0.36459 0.46094 0.0
C1274 C 0.56366 0.3439 0.44973 0.0
H1275 H 0.62842 0.23678 0.42696 0.0
H1276 H 0.60823 0.26789 0.44684 0.0
H1277 H 0.55459 0.30157 0.40755 0.0
H1278 H 0.52148 0.41419 0.4472 0.0
H1279 H 0.53713 0.37862 0.42949 0.0
loop_
_geom_bond_atom_site_label_1
_geom_bond_atom_site_label_2
_geom_bond_distance
_geom_bond_site_symmetry_2
_ccdc_geom_bond_type
C0 C1 1.391 . S
C0 C4 1.391 . S
C0 H42 0.948 . S
C1 C0 1.391 . S
C1 C2 1.391 . S
C2 C1 1.391 . S
C2 H58 0.947 . S
C2 C59 1.392 . S
C3 C4 1.391 . S
C3 C7 1.397 . S
C3 C59 1.419 . S
C4 C0 1.391 . S
C4 C3 1.391 . S
C4 C5 1.399 . S
C5 C4 1.399 . S
C5 C8 1.396 . S
C5 C17 1.453 . S
C5 C18 1.684 . S
H6 C30 0.948 . S
C7 C3 1.397 . S
C7 C8 1.394 . S
C7 C26 1.723 . S
C8 C5 1.396 . S
C8 C7 1.394 . S
C8 C38 1.723 . S
H9 C32 0.947 . S
H10 C33 0.948 . S
H11 C39 0.982 . S
H12 C40 0.979 . S
H13 C40 0.980 . S
H14 C40 0.983 . S
H15 C39 0.979 . S
H16 C39 0.977 . S
C17 C5 1.453 . S
C17 H46 0.982 . S
C17 H47 0.979 . S
C17 H48 0.977 . S
C18 C5 1.684 . S
C18 H43 0.979 . S
C18 H44 0.980 . S
C18 H45 0.983 . S
C19 C20 1.391 . S
C19 C24 1.391 . S
C19 H49 0.948 . S
C20 C19 1.391 . S
C20 C21 1.391 . S
C21 C20 1.391 . S
C21 C22 1.392 . S
C21 H50 0.947 . S
C22 C21 1.392 . S
C22 C23 1.419 . S
C22 H51 0.948 . S
C23 C22 1.419 . S
C23 C24 1.391 . S
C23 C27 1.397 . S
C24 C19 1.391 . S
C24 C23 1.391 . S
C24 C25 1.399 . S
C25 C24 1.399 . S
C25 C26 1.396 . S
C25 C28 1.453 . S
C25 C29 1.684 . S
C26 C7 1.723 . S
C26 C25 1.396 . S
C26 C27 1.394 . S
C27 C23 1.397 . S
C27 C26 1.394 . S
C27 C37 1.723 . S
C28 C25 1.453 . S
C28 H52 0.982 . S
C28 H53 0.979 . S
C28 H54 0.977 . S
C29 C25 1.684 . S
C29 H55 0.979 . S
C29 H56 0.980 . S
C29 H57 0.983 . S
C30 H6 0.948 . S
C30 C31 1.391 . S
C30 C35 1.391 . S
C31 C30 1.391 . S
C31 C32 1.391 . S
C32 H9 0.947 . S
C32 C31 1.391 . S
C32 C33 1.392 . S
C33 H10 0.948 . S
C33 C32 1.392 . S
C33 C34 1.419 . S
C34 C33 1.419 . S
C34 C35 1.391 . S
C34 C38 1.397 . S
C35 C30 1.391 . S
C35 C34 1.391 . S
C35 C36 1.399 . S
C36 C35 1.399 . S
C36 C37 1.396 . S
C36 C39 1.453 . S
C36 C40 1.684 . S
C37 C27 1.723 . S
C37 C36 1.396 . S
C37 C38 1.394 . S
C38 C8 1.723 . S
C38 C34 1.397 . S
C38 C37 1.394 . S
C39 H11 0.982 . S
C39 H15 0.979 . S
C39 H16 0.977 . S
C39 C36 1.453 . S
C40 H12 0.979 . S
C40 H13 0.980 . S
C40 H14 0.983 . S
C40 C36 1.684 . S
H41 C59 0.948 . S
H42 C0 0.948 . S
H43 C18 0.979 . S
H44 C18 0.980 . S
H45 C18 0.983 . S
H46 C17 0.982 . S
H47 C17 0.979 . S
H48 C17 0.977 . S
H49 C19 0.948 . S
H50 C21 0.947 . S
H51 C22 0.948 . S
H52 C28 0.982 . S
H53 C28 0.979 . S
H54 C28 0.977 . S
H55 C29 0.979 . S
H56 C29 0.980 . S
H57 C29 0.983 . S
H58 C2 0.947 . S
C59 C2 1.392 . S
C59 C3 1.419 . S
C59 H41 0.948 . S
C60 C61 1.391 . S
C60 C64 1.391 . S
C60 H102 0.948 . S
C61 C60 1.391 . S
C61 C62 1.391 . S
C62 C61 1.391 . S
C62 H118 0.947 . S
C62 C119 1.392 . S
C63 C64 1.391 . S
C63 C67 1.397 . S
C63 C119 1.419 . S
C64 C60 1.391 . S
C64 C63 1.391 . S
C64 C65 1.399 . S
C65 C64 1.399 . S
C65 C68 1.396 . S
C65 C77 1.453 . S
C65 C78 1.684 . S
H66 C90 0.948 . S
C67 C63 1.397 . S
C67 C68 1.394 . S
C67 C86 1.723 . S
C68 C65 1.396 . S
C68 C67 1.394 . S
C68 C98 1.723 . S
H69 C92 0.947 . S
H70 C93 0.948 . S
H71 C99 0.982 . S
H72 C100 0.979 . S
H73 C100 0.980 . S
H74 C100 0.983 . S
H75 C99 0.979 . S
H76 C99 0.977 . S
C77 C65 1.453 . S
C77 H106 0.982 . S
C77 H107 0.979 . S
C77 H108 0.977 . S
C78 C65 1.684 . S
C78 H103 0.979 . S
C78 H104 0.980 . S
C78 H105 0.983 . S
C79 C80 1.391 . S
C79 C84 1.391 . S
C79 H109 0.948 . S
C80 C79 1.391 . S
C80 C81 1.391 . S
C81 C80 1.391 . S
C81 C82 1.392 . S
C81 H110 0.947 . S
C82 C81 1.392 . S
C82 C83 1.419 . S
C82 H111 0.948 . S
C83 C82 1.419 . S
C83 C84 1.391 . S
C83 C87 1.397 . S
C84 C79 1.391 . S
C84 C83 1.391 . S
C84 C85 1.399 . S
C85 C84 1.399 . S
C85 C86 1.396 . S
C85 C88 1.453 . S
C85 C89 1.684 . S
C86 C67 1.723 . S
C86 C85 1.396 . S
C86 C87 1.394 . S
C87 C83 1.397 . S
C87 C86 1.394 . S
C87 C97 1.723 . S
C88 C85 1.453 . S
C88 H112 0.982 . S
C88 H113 0.979 . S
C88 H114 0.977 . S
C89 C85 1.684 . S
C89 H115 0.979 . S
C89 H116 0.980 . S
C89 H117 0.983 . S
C90 H66 0.948 . S
C90 C91 1.391 . S
C90 C95 1.391 . S
C91 C90 1.391 . S
C91 C92 1.391 . S
C92 H69 0.947 . S
C92 C91 1.391 . S
C92 C93 1.392 . S
C93 H70 0.948 . S
C93 C92 1.392 . S
C93 C94 1.419 . S
C94 C93 1.419 . S
C94 C95 1.391 . S
C94 C98 1.397 . S
C95 C90 1.391 . S
C95 C94 1.391 . S
C95 C96 1.399 . S
C96 C95 1.399 . S
C96 C97 1.396 . S
C96 C99 1.453 . S
C96 C100 1.684 . S
C97 C87 1.723 . S
C97 C96 1.396 . S
C97 C98 1.394 . S
C98 C68 1.723 . S
C98 C94 1.397 . S
C98 C97 1.394 . S
C99 H71 0.982 . S
C99 H75 0.979 . S
C99 H76 0.977 . S
C99 C96 1.453 . S
C100 H72 0.979 . S
C100 H73 0.980 . S
C100 H74 0.983 . S
C100 C96 1.684 . S
H101 C119 0.948 . S
H102 C60 0.948 . S
H103 C78 0.979 . S
H104 C78 0.980 . S
H105 C78 0.983 . S
H106 C77 0.982 . S
H107 C77 0.979 . S
H108 C77 0.977 . S
H109 C79 0.948 . S
H110 C81 0.947 . S
H111 C82 0.948 . S
H112 C88 0.982 . S
H113 C88 0.979 . S
H114 C88 0.977 . S
H115 C89 0.979 . S
H116 C89 0.980 . S
H117 C89 0.983 . S
H118 C62 0.947 . S
C119 C62 1.392 . S
C119 C63 1.419 . S
C119 H101 0.948 . S
C120 C121 1.391 . S
C120 C124 1.391 . S
C120 H162 0.948 . S
C121 C120 1.391 . S
C121 C122 1.391 . S
C122 C121 1.391 . S
C122 H178 0.947 . S
C122 C179 1.392 . S
C123 C124 1.391 . S
C123 C127 1.397 . S
C123 C179 1.419 . S
C124 C120 1.391 . S
C124 C123 1.391 . S
C124 C125 1.399 . S
C125 C124 1.399 . S
C125 C128 1.396 . S
C125 C137 1.453 . S
C125 C138 1.684 . S
H126 C150 0.948 . S
C127 C123 1.397 . S
C127 C128 1.394 . S
C127 C146 1.723 . S
C128 C125 1.396 . S
C128 C127 1.394 . S
C128 C158 1.723 . S
H129 C152 0.947 . S
H130 C153 0.948 . S
H131 C159 0.982 . S
H132 C160 0.979 . S
H133 C160 0.980 . S
H134 C160 0.983 . S
H135 C159 0.979 . S
H136 C159 0.977 . S
C137 C125 1.453 . S
C137 H166 0.982 . S
C137 H167 0.979 . S
C137 H168 0.977 . S
C138 C125 1.684 . S
C138 H163 0.979 . S
C138 H164 0.980 . S
C138 H165 0.983 . S
C139 C140 1.391 . S
C139 C144 1.391 . S
C139 H169 0.948 . S
C140 C139 1.391 . S
C140 C141 1.391 . S
C141 C140 1.391 . S
C141 C142 1.392 . S
C141 H170 0.947 . S
C142 C141 1.392 . S
C142 C143 1.419 . S
C142 H171 0.948 . S
C143 C142 1.419 . S
C143 C144 1.391 . S
C143 C147 1.397 . S
C144 C139 1.391 . S
C144 C143 1.391 . S
C144 C145 1.399 . S
C145 C144 1.399 . S
C145 C146 1.396 . S
C145 C148 1.453 . S
C145 C149 1.684 . S
C146 C127 1.723 . S
C146 C145 1.396 . S
C146 C147 1.394 . S
C147 C143 1.397 . S
C147 C146 1.394 . S
C147 C157 1.723 . S
C148 C145 1.453 . S
C148 H172 0.982 . S
C148 H173 0.979 . S
C148 H174 0.977 . S
C149 C145 1.684 . S
C149 H175 0.979 . S
C149 H176 0.980 . S
C149 H177 0.983 . S
C150 H126 0.948 . S
C150 C151 1.391 . S
C150 C155 1.391 . S
C151 C150 1.391 . S
C151 C152 1.391 . S
C152 H129 0.947 . S
C152 C151 1.391 . S
C152 C153 1.392 . S
C153 H130 0.948 . S
C153 C152 1.392 . S
C153 C154 1.419 . S
C154 C153 1.419 . S
C154 C155 1.391 . S
C154 C158 1.397 . S
C155 C150 1.391 . S
C155 C154 1.391 . S
C155 C156 1.399 . S
C156 C155 1.399 . S
C156 C157 1.396 . S
C156 C159 1.453 . S
C156 C160 1.684 . S
C157 C147 1.723 . S
C157 C156 1.396 . S
C157 C158 1.394 . S
C158 C128 1.723 . S
C158 C154 1.397 . S
C158 C157 1.394 . S
C159 H131 0.982 . S
C159 H135 0.979 . S
C159 H136 0.977 . S
C159 C156 1.453 . S
C160 H132 0.979 . S
C160 H133 0.980 . S
C160 H134 0.983 . S
C160 C156 1.684 . S
H161 C179 0.948 . S
H162 C120 0.948 . S
H163 C138 0.979 . S
H164 C138 0.980 . S
H165 C138 0.983 . S
H166 C137 0.982 . S
H167 C137 0.979 . S
H168 C137 0.977 . S
H169 C139 0.948 . S
H170 C141 0.947 . S
H171 C142 0.948 . S
H172 C148 0.982 . S
H173 C148 0.979 . S
H174 C148 0.977 . S
H175 C149 0.979 . S
H176 C149 0.980 . S
H177 C149 0.983 . S
H178 C122 0.947 . S
C179 C122 1.392 . S
C179 C123 1.419 . S
C179 H161 0.948 . S
C180 C181 1.391 . S
C180 C184 1.391 . S
C180 H222 0.948 . S
C181 C180 1.391 . S
C181 C182 1.391 . S
C182 C181 1.391 . S
C182 H238 0.947 . S
C182 C239 1.392 . S
C183 C184 1.391 . S
C183 C187 1.397 . S
C183 C239 1.419 . S
C184 C180 1.391 . S
C184 C183 1.391 . S
C184 C185 1.399 . S
C185 C184 1.399 . S
C185 C188 1.396 . S
C185 C197 1.453 . S
C185 C198 1.684 . S
H186 C210 0.948 . S
C187 C183 1.397 . S
C187 C188 1.394 . S
C187 C206 1.723 . S
C188 C185 1.396 . S
C188 C187 1.394 . S
C188 C218 1.723 . S
H189 C212 0.947 . S
H190 C213 0.948 . S
H191 C219 0.982 . S
H192 C220 0.979 . S
H193 C220 0.980 . S
H194 C220 0.983 . S
H195 C219 0.979 . S
H196 C219 0.977 . S
C197 C185 1.453 . S
C197 H226 0.982 . S
C197 H227 0.979 . S
C197 H228 0.977 . S
C198 C185 1.684 . S
C198 H223 0.979 . S
C198 H224 0.980 . S
C198 H225 0.983 . S
C199 C200 1.391 . S
C199 C204 1.391 . S
C199 H229 0.948 . S
C200 C199 1.391 . S
C200 C201 1.391 . S
C201 C200 1.391 . S
C201 C202 1.392 . S
C201 H230 0.947 . S
C202 C201 1.392 . S
C202 C203 1.419 . S
C202 H231 0.948 . S
C203 C202 1.419 . S
C203 C204 1.391 . S
C203 C207 1.397 . S
C204 C199 1.391 . S
C204 C203 1.391 . S
C204 C205 1.399 . S
C205 C204 1.399 . S
C205 C206 1.396 . S
C205 C208 1.453 . S
C205 C209 1.684 . S
C206 C187 1.723 . S
C206 C205 1.396 . S
C206 C207 1.394 . S
C207 C203 1.397 . S
C207 C206 1.394 . S
C207 C217 1.723 . S
C208 C205 1.453 . S
C208 H232 0.982 . S
C208 H233 0.979 . S
C208 H234 0.977 . S
C209 C205 1.684 . S
C209 H235 0.979 . S
C209 H236 0.980 . S
C209 H237 0.983 . S
C210 H186 0.948 . S
C210 C211 1.391 . S
C210 C215 1.391 . S
C211 C210 1.391 . S
C211 C212 1.391 . S
C212 H189 0.947 . S
C212 C211 1.391 . S
C212 C213 1.392 . S
C213 H190 0.948 . S
C213 C212 1.392 . S
C213 C214 1.419 . S
C214 C213 1.419 . S
C214 C215 1.391 . S
C214 C218 1.397 . S
C215 C210 1.391 . S
C215 C214 1.391 . S
C215 C216 1.399 . S
C216 C215 1.399 . S
C216 C217 1.396 . S
C216 C219 1.453 . S
C216 C220 1.684 . S
C217 C207 1.723 . S
C217 C216 1.396 . S
C217 C218 1.394 . S
C218 C188 1.723 . S
C218 C214 1.397 . S
C218 C217 1.394 . S
C219 H191 0.982 . S
C219 H195 0.979 . S
C219 H196 0.977 . S
C219 C216 1.453 . S
C220 H192 0.979 . S
C220 H193 0.980 . S
C220 H194 0.983 . S
C220 C216 1.684 . S
H221 C239 0.948 . S
H222 C180 0.948 . S
H223 C198 0.979 . S
H224 C198 0.980 . S
H225 C198 0.983 . S
H226 C197 0.982 . S
H227 C197 0.979 . S
H228 C197 0.977 . S
H229 C199 0.948 . S
H230 C201 0.947 . S
H231 C202 0.948 . S
H232 C208 0.982 . S
H233 C208 0.979 . S
H234 C208 0.977 . S
H235 C209 0.979 . S
H236 C209 0.980 . S
H237 C209 0.983 . S
H238 C182 0.947 . S
C239 C182 1.392 . S
C239 C183 1.419 . S
C239 H221 0.948 . S
C240 C241 1.391 . S
C240 C244 1.391 . S
C240 H282 0.948 . S
C241 C240 1.391 . S
C241 C242 1.391 . S
C242 C241 1.391 . S
C242 H298 0.947 . S
C242 C299 1.392 . S
C243 C244 1.391 . S
C243 C247 1.397 . S
C243 C299 1.419 . S
C244 C240 1.391 . S
C244 C243 1.391 . S
C244 C245 1.399 . S
C245 C244 1.399 . S
C245 C248 1.396 . S
C245 C257 1.453 . S
C245 C258 1.684 . S
H246 C270 0.948 . S
C247 C243 1.397 . S
C247 C248 1.394 . S
C247 C266 1.723 . S
C248 C245 1.396 . S
C248 C247 1.394 . S
C248 C278 1.723 . S
H249 C272 0.947 . S
H250 C273 0.948 . S
H251 C279 0.982 . S
H252 C280 0.979 . S
H253 C280 0.980 . S
H254 C280 0.983 . S
H255 C279 0.979 . S
H256 C279 0.977 . S
C257 C245 1.453 . S
C257 H286 0.982 . S
C257 H287 0.979 . S
C257 H288 0.977 . S
C258 C245 1.684 . S
C258 H283 0.979 . S
C258 H284 0.980 . S
C258 H285 0.983 . S
C259 C260 1.391 . S
C259 C264 1.391 . S
C259 H289 0.948 . S
C260 C259 1.391 . S
C260 C261 1.391 . S
C261 C260 1.391 . S
C261 C262 1.392 . S
C261 H290 0.947 . S
C262 C261 1.392 . S
C262 C263 1.419 . S
C262 H291 0.948 . S
C263 C262 1.419 . S
C263 C264 1.391 . S
C263 C267 1.397 . S
C264 C259 1.391 . S
C264 C263 1.391 . S
C264 C265 1.399 . S
C265 C264 1.399 . S
C265 C266 1.396 . S
C265 C268 1.453 . S
C265 C269 1.684 . S
C266 C247 1.723 . S
C266 C265 1.396 . S
C266 C267 1.394 . S
C267 C263 1.397 . S
C267 C266 1.394 . S
C267 C277 1.723 . S
C268 C265 1.453 . S
C268 H292 0.982 . S
C268 H293 0.979 . S
C268 H294 0.977 . S
C269 C265 1.684 . S
C269 H295 0.979 . S
C269 H296 0.980 . S
C269 H297 0.983 . S
C270 H246 0.948 . S
C270 C271 1.391 . S
C270 C275 1.391 . S
C271 C270 1.391 . S
C271 C272 1.391 . S
C272 H249 0.947 . S
C272 C271 1.391 . S
C272 C273 1.392 . S
C273 H250 0.948 . S
C273 C272 1.392 . S
C273 C274 1.419 . S
C274 C273 1.419 . S
C274 C275 1.391 . S
C274 C278 1.397 . S
C275 C270 1.391 . S
C275 C274 1.391 . S
C275 C276 1.399 . S
C276 C275 1.399 . S
C276 C277 1.396 . S
C276 C279 1.453 . S
C276 C280 1.684 . S
C277 C267 1.723 . S
C277 C276 1.396 . S
C277 C278 1.394 . S
C278 C248 1.723 . S
C278 C274 1.397 . S
C278 C277 1.394 . S
C279 H251 0.982 . S
C279 H255 0.979 . S
C279 H256 0.977 . S
C279 C276 1.453 . S
C280 H252 0.979 . S
C280 H253 0.980 . S
C280 H254 0.983 . S
C280 C276 1.684 . S
H281 C299 0.948 . S
H282 C240 0.948 . S
H283 C258 0.979 . S
H284 C258 0.980 . S
H285 C258 0.983 . S
H286 C257 0.982 . S
H287 C257 0.979 . S
H288 C257 0.977 . S
H289 C259 0.948 . S
H290 C261 0.947 . S
H291 C262 0.948 . S
H292 C268 0.982 . S
H293 C268 0.979 . S
H294 C268 0.977 . S
H295 C269 0.979 . S
H296 C269 0.980 . S
H297 C269 0.983 . S
H298 C242 0.947 . S
C299 C242 1.392 . S
C299 C243 1.419 . S
C299 H281 0.948 . S
C300 C301 1.391 . S
C300 C304 1.391 . S
C300 H342 0.948 . S
C301 C300 1.391 . S
C301 C302 1.391 . S
C302 C301 1.391 . S
C302 H358 0.947 . S
C302 C359 1.392 . S
C303 C304 1.391 . S
C303 C307 1.397 . S
C303 C359 1.419 . S
C304 C300 1.391 . S
C304 C303 1.391 . S
C304 C305 1.399 . S
C305 C304 1.399 . S
C305 C308 1.396 . S
C305 C317 1.453 . S
C305 C318 1.684 . S
H306 C330 0.948 . S
C307 C303 1.397 . S
C307 C308 1.394 . S
C307 C326 1.723 . S
C308 C305 1.396 . S
C308 C307 1.394 . S
C308 C338 1.723 . S
H309 C332 0.947 . S
H310 C333 0.948 . S
H311 C339 0.982 . S
H312 C340 0.979 . S
H313 C340 0.980 . S
H314 C340 0.983 . S
H315 C339 0.979 . S
H316 C339 0.977 . S
C317 C305 1.453 . S
C317 H346 0.982 . S
C317 H347 0.979 . S
C317 H348 0.977 . S
C318 C305 1.684 . S
C318 H343 0.979 . S
C318 H344 0.980 . S
C318 H345 0.983 . S
C319 C320 1.391 . S
C319 C324 1.391 . S
C319 H349 0.948 . S
C320 C319 1.391 . S
C320 C321 1.391 . S
C321 C320 1.391 . S
C321 C322 1.392 . S
C321 H350 0.947 . S
C322 C321 1.392 . S
C322 C323 1.419 . S
C322 H351 0.948 . S
C323 C322 1.419 . S
C323 C324 1.391 . S
C323 C327 1.397 . S
C324 C319 1.391 . S
C324 C323 1.391 . S
C324 C325 1.399 . S
C325 C324 1.399 . S
C325 C326 1.396 . S
C325 C328 1.453 . S
C325 C329 1.684 . S
C326 C307 1.723 . S
C326 C325 1.396 . S
C326 C327 1.394 . S
C327 C323 1.397 . S
C327 C326 1.394 . S
C327 C337 1.723 . S
C328 C325 1.453 . S
C328 H352 0.982 . S
C328 H353 0.979 . S
C328 H354 0.977 . S
C329 C325 1.684 . S
C329 H355 0.979 . S
C329 H356 0.980 . S
C329 H357 0.983 . S
C330 H306 0.948 . S
C330 C331 1.391 . S
C330 C335 1.391 . S
C331 C330 1.391 . S
C331 C332 1.391 . S
C332 H309 0.947 . S
C332 C331 1.391 . S
C332 C333 1.392 . S
C333 H310 0.948 . S
C333 C332 1.392 . S
C333 C334 1.419 . S
C334 C333 1.419 . S
C334 C335 1.391 . S
C334 C338 1.397 . S
C335 C330 1.391 . S
C335 C334 1.391 . S
C335 C336 1.399 . S
C336 C335 1.399 . S
C336 C337 1.396 . S
C336 C339 1.453 . S
C336 C340 1.684 . S
C337 C327 1.723 . S
C337 C336 1.396 . S
C337 C338 1.394 . S
C338 C308 1.723 . S
C338 C334 1.397 . S
C338 C337 1.394 . S
C339 H311 0.982 . S
C339 H315 0.979 . S
C339 H316 0.977 . S
C339 C336 1.453 . S
C340 H312 0.979 . S
C340 H313 0.980 . S
C340 H314 0.983 . S
C340 C336 1.684 . S
H341 C359 0.948 . S
H342 C300 0.948 . S
H343 C318 0.979 . S
H344 C318 0.980 . S
H345 C318 0.983 . S
H346 C317 0.982 . S
H347 C317 0.979 . S
H348 C317 0.977 . S
H349 C319 0.948 . S
H350 C321 0.947 . S
H351 C322 0.948 . S
H352 C328 0.982 . S
H353 C328 0.979 . S
H354 C328 0.977 . S
H355 C329 0.979 . S
H356 C329 0.980 . S
H357 C329 0.983 . S
H358 C302 0.947 . S
C359 C302 1.392 . S
C359 C303 1.419 . S
C359 H341 0.948 . S
C360 C361 1.391 . S
C360 C364 1.391 . S
C360 H402 0.948 . S
C361 C360 1.391 . S
C361 C362 1.391 . S
C362 C361 1.391 . S
C362 H418 0.947 . S
C362 C419 1.392 . S
C363 C364 1.391 . S
C363 C367 1.397 . S
C363 C419 1.419 . S
C364 C360 1.391 . S
C364 C363 1.391 . S
C364 C365 1.399 . S
C365 C364 1.399 . S
C365 C368 1.396 . S
C365 C377 1.453 . S
C365 C378 1.684 . S
H366 C390 0.948 . S
C367 C363 1.397 . S
C367 C368 1.394 . S
C367 C386 1.723 . S
C368 C365 1.396 . S
C368 C367 1.394 . S
C368 C398 1.723 . S
H369 C392 0.947 . S
H370 C393 0.948 . S
H371 C399 0.982 . S
H372 C400 0.979 . S
H373 C400 0.980 . S
H374 C400 0.983 . S
H375 C399 0.979 . S
H376 C399 0.977 . S
C377 C365 1.453 . S
C377 H406 0.982 . S
C377 H407 0.979 . S
C377 H408 0.977 . S
C378 C365 1.684 . S
C378 H403 0.979 . S
C378 H404 0.980 . S
C378 H405 0.983 . S
C379 C380 1.391 . S
C379 C384 1.391 . S
C379 H409 0.948 . S
C380 C379 1.391 . S
C380 C381 1.391 . S
C381 C380 1.391 . S
C381 C382 1.392 . S
C381 H410 0.947 . S
C382 C381 1.392 . S
C382 C383 1.419 . S
C382 H411 0.948 . S
C383 C382 1.419 . S
C383 C384 1.391 . S
C383 C387 1.397 . S
C384 C379 1.391 . S
C384 C383 1.391 . S
C384 C385 1.399 . S
C385 C384 1.399 . S
C385 C386 1.396 . S
C385 C388 1.453 . S
C385 C389 1.684 . S
C386 C367 1.723 . S
C386 C385 1.396 . S
C386 C387 1.394 . S
C387 C383 1.397 . S
C387 C386 1.394 . S
C387 C397 1.723 . S
C388 C385 1.453 . S
C388 H412 0.982 . S
C388 H413 0.979 . S
C388 H414 0.977 . S
C389 C385 1.684 . S
C389 H415 0.979 . S
C389 H416 0.980 . S
C389 H417 0.983 . S
C390 H366 0.948 . S
C390 C391 1.391 . S
C390 C395 1.391 . S
C391 C390 1.391 . S
C391 C392 1.391 . S
C392 H369 0.947 . S
C392 C391 1.391 . S
C392 C393 1.392 . S
C393 H370 0.948 . S
C393 C392 1.392 . S
C393 C394 1.419 . S
C394 C393 1.419 . S
C394 C395 1.391 . S
C394 C398 1.397 . S
C395 C390 1.391 . S
C395 C394 1.391 . S
C395 C396 1.399 . S
C396 C395 1.399 . S
C396 C397 1.396 . S
C396 C399 1.453 . S
C396 C400 1.684 . S
C397 C387 1.723 . S
C397 C396 1.396 . S
C397 C398 1.394 . S
C398 C368 1.723 . S
C398 C394 1.397 . S
C398 C397 1.394 . S
C399 H371 0.982 . S
C399 H375 0.979 . S
C399 H376 0.977 . S
C399 C396 1.453 . S
C400 H372 0.979 . S
C400 H373 0.980 . S
C400 H374 0.983 . S
C400 C396 1.684 . S
H401 C419 0.948 . S
H402 C360 0.948 . S
H403 C378 0.979 . S
H404 C378 0.980 . S
H405 C378 0.983 . S
H406 C377 0.982 . S
H407 C377 0.979 . S
H408 C377 0.977 . S
H409 C379 0.948 . S
H410 C381 0.947 . S
H411 C382 0.948 . S
H412 C388 0.982 . S
H413 C388 0.979 . S
H414 C388 0.977 . S
H415 C389 0.979 . S
H416 C389 0.980 . S
H417 C389 0.983 . S
H418 C362 0.947 . S
C419 C362 1.392 . S
C419 C363 1.419 . S
C419 H401 0.948 . S
C420 C421 1.391 . S
C420 C424 1.391 . S
C420 H462 0.948 . S
C421 C420 1.391 . S
C421 C422 1.391 . S
C422 C421 1.391 . S
C422 H478 0.947 . S
C422 C479 1.392 . S
C423 C424 1.391 . S
C423 C427 1.397 . S
C423 C479 1.419 . S
C424 C420 1.391 . S
C424 C423 1.391 . S
C424 C425 1.399 . S
C425 C424 1.399 . S
C425 C428 1.396 . S
C425 C437 1.453 . S
C425 C438 1.684 . S
H426 C450 0.948 . S
C427 C423 1.397 . S
C427 C428 1.394 . S
C427 C446 1.723 . S
C428 C425 1.396 . S
C428 C427 1.394 . S
C428 C458 1.723 . S
H429 C452 0.947 . S
H430 C453 0.948 . S
H431 C459 0.982 . S
H432 C460 0.979 . S
H433 C460 0.980 . S
H434 C460 0.983 . S
H435 C459 0.979 . S
H436 C459 0.977 . S
C437 C425 1.453 . S
C437 H466 0.982 . S
C437 H467 0.979 . S
C437 H468 0.977 . S
C438 C425 1.684 . S
C438 H463 0.979 . S
C438 H464 0.980 . S
C438 H465 0.983 . S
C439 C440 1.391 . S
C439 C444 1.391 . S
C439 H469 0.948 . S
C440 C439 1.391 . S
C440 C441 1.391 . S
C441 C440 1.391 . S
C441 C442 1.392 . S
C441 H470 0.947 . S
C442 C441 1.392 . S
C442 C443 1.419 . S
C442 H471 0.948 . S
C443 C442 1.419 . S
C443 C444 1.391 . S
C443 C447 1.397 . S
C444 C439 1.391 . S
C444 C443 1.391 . S
C444 C445 1.399 . S
C445 C444 1.399 . S
C445 C446 1.396 . S
C445 C448 1.453 . S
C445 C449 1.684 . S
C446 C427 1.723 . S
C446 C445 1.396 . S
C446 C447 1.394 . S
C447 C443 1.397 . S
C447 C446 1.394 . S
C447 C457 1.723 . S
C448 C445 1.453 . S
C448 H472 0.982 . S
C448 H473 0.979 . S
C448 H474 0.977 . S
C449 C445 1.684 . S
C449 H475 0.979 . S
C449 H476 0.980 . S
C449 H477 0.983 . S
C450 H426 0.948 . S
C450 C451 1.391 . S
C450 C455 1.391 . S
C451 C450 1.391 . S
C451 C452 1.391 . S
C452 H429 0.947 . S
C452 C451 1.391 . S
C452 C453 1.392 . S
C453 H430 0.948 . S
C453 C452 1.392 . S
C453 C454 1.419 . S
C454 C453 1.419 . S
C454 C455 1.391 . S
C454 C458 1.397 . S
C455 C450 1.391 . S
C455 C454 1.391 . S
C455 C456 1.399 . S
C456 C455 1.399 . S
C456 C457 1.396 . S
C456 C459 1.453 . S
C456 C460 1.684 . S
C457 C447 1.723 . S
C457 C456 1.396 . S
C457 C458 1.394 . S
C458 C428 1.723 . S
C458 C454 1.397 . S
C458 C457 1.394 . S
C459 H431 0.982 . S
C459 H435 0.979 . S
C459 H436 0.977 . S
C459 C456 1.453 . S
C460 H432 0.979 . S
C460 H433 0.980 . S
C460 H434 0.983 . S
C460 C456 1.684 . S
H461 C479 0.948 . S
H462 C420 0.948 . S
H463 C438 0.979 . S
H464 C438 0.980 . S
H465 C438 0.983 . S
H466 C437 0.982 . S
H467 C437 0.979 . S
H468 C437 0.977 . S
H469 C439 0.948 . S
H470 C441 0.947 . S
H471 C442 0.948 . S
H472 C448 0.982 . S
H473 C448 0.979 . S
H474 C448 0.977 . S
H475 C449 0.979 . S
H476 C449 0.980 . S
H477 C449 0.983 . S
H478 C422 0.947 . S
C479 C422 1.392 . S
C479 C423 1.419 . S
C479 H461 0.948 . S
Zn480 O486 1.969 1_545 S
Zn480 O487 1.965 1_545 S
Zn480 O491 2.024 . S
Zn480 O496 1.969 . S
Zn481 O488 1.969 . S
Zn481 O494 1.969 1_565 S
Zn481 O495 1.965 1_565 S
Zn481 O497 2.024 . S
C482 O483 1.229 . S
C482 O491 1.058 . S
O483 C482 1.229 . S
C484 O485 1.229 . S
C484 O497 1.058 . S
O485 C484 1.229 . S
O486 Zn480 1.969 1_565 S
O486 C489 1.267 . S
O487 Zn480 1.965 1_565 S
O487 C498 1.260 1_455 S
O488 Zn481 1.969 . S
O488 C498 1.258 . S
C489 O486 1.267 . S
C489 O490 1.228 . S
O490 C489 1.228 . S
O491 Zn480 2.024 . S
O491 C482 1.058 . S
C492 O493 1.228 . S
C492 O494 1.267 . S
O493 C492 1.228 . S
O494 Zn481 1.969 1_545 S
O494 C492 1.267 . S
O495 Zn481 1.965 1_545 S
O495 C499 1.260 1_655 S
O496 Zn480 1.969 . S
O496 C499 1.258 . S
O497 Zn481 2.024 . S
O497 C484 1.058 . S
C498 O487 1.260 1_655 S
C498 O488 1.258 . S
C499 O495 1.260 1_455 S
C499 O496 1.258 . S
Zn500 O506 1.969 . S
Zn500 O507 1.965 1_565 S
Zn500 O511 2.024 . S
Zn500 O516 1.969 . S
Zn501 O508 1.969 . S
Zn501 O514 1.969 . S
Zn501 O515 1.965 1_545 S
Zn501 O517 2.024 . S
C502 O503 1.229 . S
C502 O511 1.058 . S
O503 C502 1.229 . S
C504 O505 1.229 . S
C504 O517 1.058 . S
O505 C504 1.229 . S
O506 Zn500 1.969 . S
O506 C509 1.267 . S
O507 Zn500 1.965 1_545 S
O507 C518 1.260 . S
O508 Zn501 1.969 . S
O508 C518 1.258 1_554 S
C509 O506 1.267 . S
C509 O510 1.228 . S
O510 C509 1.228 . S
O511 Zn500 2.024 . S
O511 C502 1.058 . S
C512 O513 1.228 . S
C512 O514 1.267 . S
O513 C512 1.228 . S
O514 Zn501 1.969 . S
O514 C512 1.267 . S
O515 Zn501 1.965 1_565 S
O515 C519 1.260 . S
O516 Zn500 1.969 . S
O516 C519 1.258 1_556 S
O517 Zn501 2.024 . S
O517 C504 1.058 . S
C518 O507 1.260 . S
C518 O508 1.258 1_556 S
C519 O515 1.260 . S
C519 O516 1.258 1_554 S
Zn520 O526 1.969 . S
Zn520 O527 1.965 . S
Zn520 O531 2.024 . S
Zn520 O536 1.969 . S
Zn521 O528 1.969 . S
Zn521 O534 1.969 . S
Zn521 O535 1.965 . S
Zn521 O537 2.024 . S
C522 O523 1.229 . S
C522 O531 1.058 . S
O523 C522 1.229 . S
C524 O525 1.229 . S
C524 O537 1.058 . S
O525 C524 1.229 . S
O526 Zn520 1.969 . S
O526 C529 1.267 . S
O527 Zn520 1.965 . S
O527 C538 1.260 . S
O528 Zn521 1.969 . S
O528 C538 1.258 . S
C529 O526 1.267 . S
C529 O530 1.228 . S
O530 C529 1.228 . S
O531 Zn520 2.024 . S
O531 C522 1.058 . S
C532 O533 1.228 . S
C532 O534 1.267 . S
O533 C532 1.228 . S
O534 Zn521 1.969 . S
O534 C532 1.267 . S
O535 Zn521 1.965 . S
O535 C539 1.260 . S
O536 Zn520 1.969 . S
O536 C539 1.258 . S
O537 Zn521 2.024 . S
O537 C524 1.058 . S
C538 O527 1.260 . S
C538 O528 1.258 . S
C539 O535 1.260 . S
C539 O536 1.258 . S
Zn540 O546 1.969 . S
Zn540 O547 1.965 1_556 S
Zn540 O551 2.024 . S
Zn540 O556 1.991 . S
Zn541 O548 2.000 . S
Zn541 O554 1.969 . S
Zn541 O555 1.965 1_554 S
Zn541 O557 2.024 . S
C542 O543 1.229 . S
C542 O551 1.058 . S
O543 C542 1.229 . S
C544 O545 1.229 . S
C544 O557 1.058 . S
O545 C544 1.229 . S
O546 Zn540 1.969 . S
O546 C549 1.267 . S
O547 Zn540 1.965 1_554 S
O547 C558 1.260 . S
O548 Zn541 2.000 . S
O548 C558 1.227 1_455 S
C549 O546 1.267 . S
C549 O550 1.228 . S
O550 C549 1.228 . S
O551 Zn540 2.024 . S
O551 C542 1.058 . S
C552 O553 1.228 . S
C552 O554 1.267 . S
O553 C552 1.228 . S
O554 Zn541 1.969 . S
O554 C552 1.267 . S
O555 Zn541 1.965 1_556 S
O555 C559 1.260 . S
O556 Zn540 1.991 . S
O556 C559 1.237 1_655 S
O557 Zn541 2.024 . S
O557 C544 1.058 . S
C558 O547 1.260 . S
C558 O548 1.227 1_655 S
C559 O555 1.260 . S
C559 O556 1.237 1_455 S
C560 C561 1.349 . S
C560 C562 1.327 . S
C560 H585 0.950 . S
C561 C560 1.349 . S
C561 C577 1.349 . S
C562 C560 1.327 . S
C562 C581 1.429 . S
C562 H586 0.950 . S
C563 C580 1.574 . S
C563 C582 1.368 . S
C563 H587 0.949 . S
H564 C568 0.949 . S
C565 C566 1.349 . S
C565 C567 1.327 . S
C565 H588 0.950 . S
C566 C565 1.349 . S
C566 C578 1.349 . S
C567 C565 1.327 . S
C567 C583 1.429 . S
C567 H589 0.950 . S
C568 H564 0.949 . S
C568 C576 1.574 . S
C568 C584 1.368 . S
H569 C577 0.950 . S
H570 C575 0.950 . S
H571 C576 0.949 . S
H572 C578 0.950 . S
H573 C579 0.950 . S
H574 C580 0.949 . S
C575 H570 0.950 . S
C575 C577 1.327 . S
C575 C581 1.429 . S
C576 C568 1.574 . S
C576 H571 0.949 . S
C576 C582 1.368 . S
C577 C561 1.349 . S
C577 H569 0.950 . S
C577 C575 1.327 . S
C578 C566 1.349 . S
C578 H572 0.950 . S
C578 C579 1.327 . S
C579 H573 0.950 . S
C579 C578 1.327 . S
C579 C583 1.429 . S
C580 C563 1.574 . S
C580 H574 0.949 . S
C580 C584 1.368 . S
C581 C562 1.429 . S
C581 C575 1.429 . S
C581 C582 1.523 . S
C582 C563 1.368 . S
C582 C576 1.368 . S
C582 C581 1.523 . S
C583 C567 1.429 . S
C583 C579 1.429 . S
C583 C584 1.523 . S
C584 C568 1.368 . S
C584 C580 1.368 . S
C584 C583 1.523 . S
H585 C560 0.950 . S
H586 C562 0.950 . S
H587 C563 0.949 . S
H588 C565 0.950 . S
H589 C567 0.950 . S
C590 C591 1.349 . S
C590 C592 1.327 . S
C590 H615 0.950 . S
C591 C590 1.349 . S
C591 C607 1.349 . S
C592 C590 1.327 . S
C592 C611 1.429 . S
C592 H616 0.950 . S
C593 C610 1.574 . S
C593 C612 1.368 . S
C593 H617 0.949 . S
H594 C598 0.949 . S
C595 C596 1.349 . S
C595 C597 1.327 . S
C595 H618 0.950 . S
C596 C595 1.349 . S
C596 C608 1.349 . S
C597 C595 1.327 . S
C597 C613 1.429 . S
C597 H619 0.950 . S
C598 H594 0.949 . S
C598 C606 1.574 . S
C598 C614 1.368 . S
H599 C607 0.950 . S
H600 C605 0.950 . S
H601 C606 0.949 . S
H602 C608 0.950 . S
H603 C609 0.950 . S
H604 C610 0.949 . S
C605 H600 0.950 . S
C605 C607 1.327 . S
C605 C611 1.429 . S
C606 C598 1.574 . S
C606 H601 0.949 . S
C606 C612 1.368 . S
C607 C591 1.349 . S
C607 H599 0.950 . S
C607 C605 1.327 . S
C608 C596 1.349 . S
C608 H602 0.950 . S
C608 C609 1.327 . S
C609 H603 0.950 . S
C609 C608 1.327 . S
C609 C613 1.429 . S
C610 C593 1.574 . S
C610 H604 0.949 . S
C610 C614 1.368 . S
C611 C592 1.429 . S
C611 C605 1.429 . S
C611 C612 1.523 . S
C612 C593 1.368 . S
C612 C606 1.368 . S
C612 C611 1.523 . S
C613 C597 1.429 . S
C613 C609 1.429 . S
C613 C614 1.523 . S
C614 C598 1.368 . S
C614 C610 1.368 . S
C614 C613 1.523 . S
H615 C590 0.950 . S
H616 C592 0.950 . S
H617 C593 0.949 . S
H618 C595 0.950 . S
H619 C597 0.950 . S
C620 C621 1.349 . S
C620 C622 1.327 . S
C620 H645 0.950 . S
C621 C620 1.349 . S
C621 C637 1.349 . S
C622 C620 1.327 . S
C622 C641 1.429 . S
C622 H646 0.950 . S
C623 C640 1.574 . S
C623 C642 1.368 . S
C623 H647 0.949 . S
H624 C628 0.949 . S
C625 C626 1.349 . S
C625 C627 1.327 . S
C625 H648 0.950 . S
C626 C625 1.349 . S
C626 C638 1.349 . S
C627 C625 1.327 . S
C627 C643 1.429 . S
C627 H649 0.950 . S
C628 H624 0.949 . S
C628 C636 1.574 . S
C628 C644 1.368 . S
H629 C637 0.950 . S
H630 C635 0.950 . S
H631 C636 0.949 . S
H632 C638 0.950 . S
H633 C639 0.950 . S
H634 C640 0.949 . S
C635 H630 0.950 . S
C635 C637 1.327 . S
C635 C641 1.429 . S
C636 C628 1.574 . S
C636 H631 0.949 . S
C636 C642 1.368 . S
C637 C621 1.349 . S
C637 H629 0.950 . S
C637 C635 1.327 . S
C638 C626 1.349 . S
C638 H632 0.950 . S
C638 C639 1.327 . S
C639 H633 0.950 . S
C639 C638 1.327 . S
C639 C643 1.429 . S
C640 C623 1.574 . S
C640 H634 0.949 . S
C640 C644 1.368 . S
C641 C622 1.429 . S
C641 C635 1.429 . S
C641 C642 1.523 . S
C642 C623 1.368 . S
C642 C636 1.368 . S
C642 C641 1.523 . S
C643 C627 1.429 . S
C643 C639 1.429 . S
C643 C644 1.523 . S
C644 C628 1.368 . S
C644 C640 1.368 . S
C644 C643 1.523 . S
H645 C620 0.950 . S
H646 C622 0.950 . S
H647 C623 0.949 . S
H648 C625 0.950 . S
H649 C627 0.950 . S
C650 C651 1.349 . S
C650 C652 1.327 . S
C650 H675 0.950 . S
C651 C650 1.349 . S
C651 C667 1.349 . S
C652 C650 1.327 . S
C652 C671 1.429 . S
C652 H676 0.950 . S
C653 C670 1.574 . S
C653 C672 1.368 . S
C653 H677 0.949 . S
H654 C658 0.949 . S
C655 C656 1.349 . S
C655 C657 1.327 . S
C655 H678 0.950 . S
C656 C655 1.349 . S
C656 C668 1.349 . S
C657 C655 1.327 . S
C657 C673 1.429 . S
C657 H679 0.950 . S
C658 H654 0.949 . S
C658 C666 1.574 . S
C658 C674 1.368 . S
H659 C667 0.950 . S
H660 C665 0.950 . S
H661 C666 0.949 . S
H662 C668 0.950 . S
H663 C669 0.950 . S
H664 C670 0.949 . S
C665 H660 0.950 . S
C665 C667 1.327 . S
C665 C671 1.429 . S
C666 C658 1.574 . S
C666 H661 0.949 . S
C666 C672 1.368 . S
C667 C651 1.349 . S
C667 H659 0.950 . S
C667 C665 1.327 . S
C668 C656 1.349 . S
C668 H662 0.950 . S
C668 C669 1.327 . S
C669 H663 0.950 . S
C669 C668 1.327 . S
C669 C673 1.429 . S
C670 C653 1.574 . S
C670 H664 0.949 . S
C670 C674 1.368 . S
C671 C652 1.429 . S
C671 C665 1.429 . S
C671 C672 1.523 . S
C672 C653 1.368 . S
C672 C666 1.368 . S
C672 C671 1.523 . S
C673 C657 1.429 . S
C673 C669 1.429 . S
C673 C674 1.523 . S
C674 C658 1.368 . S
C674 C670 1.368 . S
C674 C673 1.523 . S
H675 C650 0.950 . S
H676 C652 0.950 . S
H677 C653 0.949 . S
H678 C655 0.950 . S
H679 C657 0.950 . S
C680 C681 1.349 . S
C680 C682 1.327 . S
C680 H705 0.950 . S
C681 C680 1.349 . S
C681 C697 1.349 . S
C682 C680 1.327 . S
C682 C701 1.429 . S
C682 H706 0.950 . S
C683 C700 1.574 . S
C683 C702 1.368 . S
C683 H707 0.949 . S
H684 C688 0.949 . S
C685 C686 1.349 . S
C685 C687 1.327 . S
C685 H708 0.950 . S
C686 C685 1.349 . S
C686 C698 1.349 . S
C687 C685 1.327 . S
C687 C703 1.429 . S
C687 H709 0.950 . S
C688 H684 0.949 . S
C688 C696 1.574 . S
C688 C704 1.368 . S
H689 C697 0.950 . S
H690 C695 0.950 . S
H691 C696 0.949 . S
H692 C698 0.950 . S
H693 C699 0.950 . S
H694 C700 0.949 . S
C695 H690 0.950 . S
C695 C697 1.327 . S
C695 C701 1.429 . S
C696 C688 1.574 . S
C696 H691 0.949 . S
C696 C702 1.368 . S
C697 C681 1.349 . S
C697 H689 0.950 . S
C697 C695 1.327 . S
C698 C686 1.349 . S
C698 H692 0.950 . S
C698 C699 1.327 . S
C699 H693 0.950 . S
C699 C698 1.327 . S
C699 C703 1.429 . S
C700 C683 1.574 . S
C700 H694 0.949 . S
C700 C704 1.368 . S
C701 C682 1.429 . S
C701 C695 1.429 . S
C701 C702 1.523 . S
C702 C683 1.368 . S
C702 C696 1.368 . S
C702 C701 1.523 . S
C703 C687 1.429 . S
C703 C699 1.429 . S
C703 C704 1.523 . S
C704 C688 1.368 . S
C704 C700 1.368 . S
C704 C703 1.523 . S
H705 C680 0.950 . S
H706 C682 0.950 . S
H707 C683 0.949 . S
H708 C685 0.950 . S
H709 C687 0.950 . S
C710 C711 1.349 . S
C710 C712 1.327 . S
C710 H735 0.950 . S
C711 C710 1.349 . S
C711 C727 1.349 . S
C712 C710 1.327 . S
C712 C731 1.429 . S
C712 H736 0.950 . S
C713 C730 1.574 . S
C713 C732 1.368 . S
C713 H737 0.949 . S
H714 C718 0.949 . S
C715 C716 1.349 . S
C715 C717 1.327 . S
C715 H738 0.950 . S
C716 C715 1.349 . S
C716 C728 1.349 . S
C717 C715 1.327 . S
C717 C733 1.429 . S
C717 H739 0.950 . S
C718 H714 0.949 . S
C718 C726 1.574 . S
C718 C734 1.368 . S
H719 C727 0.950 . S
H720 C725 0.950 . S
H721 C726 0.949 . S
H722 C728 0.950 . S
H723 C729 0.950 . S
H724 C730 0.949 . S
C725 H720 0.950 . S
C725 C727 1.327 . S
C725 C731 1.429 . S
C726 C718 1.574 . S
C726 H721 0.949 . S
C726 C732 1.368 . S
C727 C711 1.349 . S
C727 H719 0.950 . S
C727 C725 1.327 . S
C728 C716 1.349 . S
C728 H722 0.950 . S
C728 C729 1.327 . S
C729 H723 0.950 . S
C729 C728 1.327 . S
C729 C733 1.429 . S
C730 C713 1.574 . S
C730 H724 0.949 . S
C730 C734 1.368 . S
C731 C712 1.429 . S
C731 C725 1.429 . S
C731 C732 1.523 . S
C732 C713 1.368 . S
C732 C726 1.368 . S
C732 C731 1.523 . S
C733 C717 1.429 . S
C733 C729 1.429 . S
C733 C734 1.523 . S
C734 C718 1.368 . S
C734 C730 1.368 . S
C734 C733 1.523 . S
H735 C710 0.950 . S
H736 C712 0.950 . S
H737 C713 0.949 . S
H738 C715 0.950 . S
H739 C717 0.950 . S
C740 C741 1.349 . S
C740 C742 1.327 . S
C740 H765 0.950 . S
C741 C740 1.349 . S
C741 C757 1.349 . S
C742 C740 1.327 . S
C742 C761 1.429 . S
C742 H766 0.950 . S
C743 C760 1.574 . S
C743 C762 1.368 . S
C743 H767 0.949 . S
H744 C748 0.949 . S
C745 C746 1.349 . S
C745 C747 1.327 . S
C745 H768 0.950 . S
C746 C745 1.349 . S
C746 C758 1.349 . S
C747 C745 1.327 . S
C747 C763 1.429 . S
C747 H769 0.950 . S
C748 H744 0.949 . S
C748 C756 1.574 . S
C748 C764 1.368 . S
H749 C757 0.950 . S
H750 C755 0.950 . S
H751 C756 0.949 . S
H752 C758 0.950 . S
H753 C759 0.950 . S
H754 C760 0.949 . S
C755 H750 0.950 . S
C755 C757 1.327 . S
C755 C761 1.429 . S
C756 C748 1.574 . S
C756 H751 0.949 . S
C756 C762 1.368 . S
C757 C741 1.349 . S
C757 H749 0.950 . S
C757 C755 1.327 . S
C758 C746 1.349 . S
C758 H752 0.950 . S
C758 C759 1.327 . S
C759 H753 0.950 . S
C759 C758 1.327 . S
C759 C763 1.429 . S
C760 C743 1.574 . S
C760 H754 0.949 . S
C760 C764 1.368 . S
C761 C742 1.429 . S
C761 C755 1.429 . S
C761 C762 1.523 . S
C762 C743 1.368 . S
C762 C756 1.368 . S
C762 C761 1.523 . S
C763 C747 1.429 . S
C763 C759 1.429 . S
C763 C764 1.523 . S
C764 C748 1.368 . S
C764 C760 1.368 . S
C764 C763 1.523 . S
H765 C740 0.950 . S
H766 C742 0.950 . S
H767 C743 0.949 . S
H768 C745 0.950 . S
H769 C747 0.950 . S
C770 C771 1.349 . S
C770 C772 1.327 . S
C770 H795 0.950 . S
C771 C770 1.349 . S
C771 C787 1.349 . S
C772 C770 1.327 . S
C772 C791 1.429 . S
C772 H796 0.950 . S
C773 C790 1.574 . S
C773 C792 1.368 . S
C773 H797 0.949 . S
H774 C778 0.949 . S
C775 C776 1.349 . S
C775 C777 1.327 . S
C775 H798 0.950 . S
C776 C775 1.349 . S
C776 C788 1.349 . S
C777 C775 1.327 . S
C777 C793 1.429 . S
C777 H799 0.950 . S
C778 H774 0.949 . S
C778 C786 1.574 . S
C778 C794 1.368 . S
H779 C787 0.950 . S
H780 C785 0.950 . S
H781 C786 0.949 . S
H782 C788 0.950 . S
H783 C789 0.950 . S
H784 C790 0.949 . S
C785 H780 0.950 . S
C785 C787 1.327 . S
C785 C791 1.429 . S
C786 C778 1.574 . S
C786 H781 0.949 . S
C786 C792 1.368 . S
C787 C771 1.349 . S
C787 H779 0.950 . S
C787 C785 1.327 . S
C788 C776 1.349 . S
C788 H782 0.950 . S
C788 C789 1.327 . S
C789 H783 0.950 . S
C789 C788 1.327 . S
C789 C793 1.429 . S
C790 C773 1.574 . S
C790 H784 0.949 . S
C790 C794 1.368 . S
C791 C772 1.429 . S
C791 C785 1.429 . S
C791 C792 1.523 . S
C792 C773 1.368 . S
C792 C786 1.368 . S
C792 C791 1.523 . S
C793 C777 1.429 . S
C793 C789 1.429 . S
C793 C794 1.523 . S
C794 C778 1.368 . S
C794 C790 1.368 . S
C794 C793 1.523 . S
H795 C770 0.950 . S
H796 C772 0.950 . S
H797 C773 0.949 . S
H798 C775 0.950 . S
H799 C777 0.950 . S
C800 C801 1.349 . S
C800 C802 1.327 . S
C800 H825 0.950 . S
C801 C800 1.349 . S
C801 C817 1.349 . S
C802 C800 1.327 . S
C802 C821 1.429 . S
C802 H826 0.950 . S
C803 C820 1.574 . S
C803 C822 1.368 . S
C803 H827 0.949 . S
H804 C808 0.949 . S
C805 C806 1.349 . S
C805 C807 1.327 . S
C805 H828 0.950 . S
C806 C805 1.349 . S
C806 C818 1.349 . S
C807 C805 1.327 . S
C807 C823 1.429 . S
C807 H829 0.950 . S
C808 H804 0.949 . S
C808 C816 1.574 . S
C808 C824 1.368 . S
H809 C817 0.950 . S
H810 C815 0.950 . S
H811 C816 0.949 . S
H812 C818 0.950 . S
H813 C819 0.950 . S
H814 C820 0.949 . S
C815 H810 0.950 . S
C815 C817 1.327 . S
C815 C821 1.429 . S
C816 C808 1.574 . S
C816 H811 0.949 . S
C816 C822 1.368 . S
C817 C801 1.349 . S
C817 H809 0.950 . S
C817 C815 1.327 . S
C818 C806 1.349 . S
C818 H812 0.950 . S
C818 C819 1.327 . S
C819 H813 0.950 . S
C819 C818 1.327 . S
C819 C823 1.429 . S
C820 C803 1.574 . S
C820 H814 0.949 . S
C820 C824 1.368 . S
C821 C802 1.429 . S
C821 C815 1.429 . S
C821 C822 1.523 . S
C822 C803 1.368 . S
C822 C816 1.368 . S
C822 C821 1.523 . S
C823 C807 1.429 . S
C823 C819 1.429 . S
C823 C824 1.523 . S
C824 C808 1.368 . S
C824 C820 1.368 . S
C824 C823 1.523 . S
H825 C800 0.950 . S
H826 C802 0.950 . S
H827 C803 0.949 . S
H828 C805 0.950 . S
H829 C807 0.950 . S
C830 C831 1.349 . S
C830 C832 1.327 . S
C830 H855 0.950 . S
C831 C830 1.349 . S
C831 C847 1.349 . S
C832 C830 1.327 . S
C832 C851 1.429 . S
C832 H856 0.950 . S
C833 C850 1.574 . S
C833 C852 1.368 . S
C833 H857 0.949 . S
H834 C838 0.949 . S
C835 C836 1.349 . S
C835 C837 1.327 . S
C835 H858 0.950 . S
C836 C835 1.349 . S
C836 C848 1.349 . S
C837 C835 1.327 . S
C837 C853 1.429 . S
C837 H859 0.950 . S
C838 H834 0.949 . S
C838 C846 1.574 . S
C838 C854 1.368 . S
H839 C847 0.950 . S
H840 C845 0.950 . S
H841 C846 0.949 . S
H842 C848 0.950 . S
H843 C849 0.950 . S
H844 C850 0.949 . S
C845 H840 0.950 . S
C845 C847 1.327 . S
C845 C851 1.429 . S
C846 C838 1.574 . S
C846 H841 0.949 . S
C846 C852 1.368 . S
C847 C831 1.349 . S
C847 H839 0.950 . S
C847 C845 1.327 . S
C848 C836 1.349 . S
C848 H842 0.950 . S
C848 C849 1.327 . S
C849 H843 0.950 . S
C849 C848 1.327 . S
C849 C853 1.429 . S
C850 C833 1.574 . S
C850 H844 0.949 . S
C850 C854 1.368 . S
C851 C832 1.429 . S
C851 C845 1.429 . S
C851 C852 1.523 . S
C852 C833 1.368 . S
C852 C846 1.368 . S
C852 C851 1.523 . S
C853 C837 1.429 . S
C853 C849 1.429 . S
C853 C854 1.523 . S
C854 C838 1.368 . S
C854 C850 1.368 . S
C854 C853 1.523 . S
H855 C830 0.950 . S
H856 C832 0.950 . S
H857 C833 0.949 . S
H858 C835 0.950 . S
H859 C837 0.950 . S
C860 C861 1.349 . S
C860 C862 1.327 . S
C860 H885 0.950 . S
C861 C860 1.349 . S
C861 C877 1.349 . S
C862 C860 1.327 . S
C862 C881 1.429 . S
C862 H886 0.950 . S
C863 C880 1.574 . S
C863 C882 1.368 . S
C863 H887 0.949 . S
H864 C868 0.949 . S
C865 C866 1.349 . S
C865 C867 1.327 . S
C865 H888 0.950 . S
C866 C865 1.349 . S
C866 C878 1.349 . S
C867 C865 1.327 . S
C867 C883 1.429 . S
C867 H889 0.950 . S
C868 H864 0.949 . S
C868 C876 1.574 . S
C868 C884 1.368 . S
H869 C877 0.950 . S
H870 C875 0.950 . S
H871 C876 0.949 . S
H872 C878 0.950 . S
H873 C879 0.950 . S
H874 C880 0.949 . S
C875 H870 0.950 . S
C875 C877 1.327 . S
C875 C881 1.429 . S
C876 C868 1.574 . S
C876 H871 0.949 . S
C876 C882 1.368 . S
C877 C861 1.349 . S
C877 H869 0.950 . S
C877 C875 1.327 . S
C878 C866 1.349 . S
C878 H872 0.950 . S
C878 C879 1.327 . S
C879 H873 0.950 . S
C879 C878 1.327 . S
C879 C883 1.429 . S
C880 C863 1.574 . S
C880 H874 0.949 . S
C880 C884 1.368 . S
C881 C862 1.429 . S
C881 C875 1.429 . S
C881 C882 1.523 . S
C882 C863 1.368 . S
C882 C876 1.368 . S
C882 C881 1.523 . S
C883 C867 1.429 . S
C883 C879 1.429 . S
C883 C884 1.523 . S
C884 C868 1.368 . S
C884 C880 1.368 . S
C884 C883 1.523 . S
H885 C860 0.950 . S
H886 C862 0.950 . S
H887 C863 0.949 . S
H888 C865 0.950 . S
H889 C867 0.950 . S
C890 C891 1.349 . S
C890 C892 1.327 . S
C890 H915 0.950 . S
C891 C890 1.349 . S
C891 C907 1.349 . S
C892 C890 1.327 . S
C892 C911 1.429 . S
C892 H916 0.950 . S
C893 C910 1.574 . S
C893 C912 1.368 . S
C893 H917 0.949 . S
H894 C898 0.949 . S
C895 C896 1.349 . S
C895 C897 1.327 . S
C895 H918 0.950 . S
C896 C895 1.349 . S
C896 C908 1.349 . S
C897 C895 1.327 . S
C897 C913 1.429 . S
C897 H919 0.950 . S
C898 H894 0.949 . S
C898 C906 1.574 . S
C898 C914 1.368 . S
H899 C907 0.950 . S
H900 C905 0.950 . S
H901 C906 0.949 . S
H902 C908 0.950 . S
H903 C909 0.950 . S
H904 C910 0.949 . S
C905 H900 0.950 . S
C905 C907 1.327 . S
C905 C911 1.429 . S
C906 C898 1.574 . S
C906 H901 0.949 . S
C906 C912 1.368 . S
C907 C891 1.349 . S
C907 H899 0.950 . S
C907 C905 1.327 . S
C908 C896 1.349 . S
C908 H902 0.950 . S
C908 C909 1.327 . S
C909 H903 0.950 . S
C909 C908 1.327 . S
C909 C913 1.429 . S
C910 C893 1.574 . S
C910 H904 0.949 . S
C910 C914 1.368 . S
C911 C892 1.429 . S
C911 C905 1.429 . S
C911 C912 1.523 . S
C912 C893 1.368 . S
C912 C906 1.368 . S
C912 C911 1.523 . S
C913 C897 1.429 . S
C913 C909 1.429 . S
C913 C914 1.523 . S
C914 C898 1.368 . S
C914 C910 1.368 . S
C914 C913 1.523 . S
H915 C890 0.950 . S
H916 C892 0.950 . S
H917 C893 0.949 . S
H918 C895 0.950 . S
H919 C897 0.950 . S
C920 C921 1.349 . S
C920 C922 1.327 . S
C920 H945 0.950 . S
C921 C920 1.349 . S
C921 C937 1.349 . S
C922 C920 1.327 . S
C922 C941 1.429 . S
C922 H946 0.950 . S
C923 C940 1.574 . S
C923 C942 1.368 . S
C923 H947 0.949 . S
H924 C928 0.949 . S
C925 C926 1.349 . S
C925 C927 1.327 . S
C925 H948 0.950 . S
C926 C925 1.349 . S
C926 C938 1.349 . S
C927 C925 1.327 . S
C927 C943 1.429 . S
C927 H949 0.950 . S
C928 H924 0.949 . S
C928 C936 1.574 . S
C928 C944 1.368 . S
H929 C937 0.950 . S
H930 C935 0.950 . S
H931 C936 0.949 . S
H932 C938 0.950 . S
H933 C939 0.950 . S
H934 C940 0.949 . S
C935 H930 0.950 . S
C935 C937 1.327 . S
C935 C941 1.429 . S
C936 C928 1.574 . S
C936 H931 0.949 . S
C936 C942 1.368 . S
C937 C921 1.349 . S
C937 H929 0.950 . S
C937 C935 1.327 . S
C938 C926 1.349 . S
C938 H932 0.950 . S
C938 C939 1.327 . S
C939 H933 0.950 . S
C939 C938 1.327 . S
C939 C943 1.429 . S
C940 C923 1.574 . S
C940 H934 0.949 . S
C940 C944 1.368 . S
C941 C922 1.429 . S
C941 C935 1.429 . S
C941 C942 1.523 . S
C942 C923 1.368 . S
C942 C936 1.368 . S
C942 C941 1.523 . S
C943 C927 1.429 . S
C943 C939 1.429 . S
C943 C944 1.523 . S
C944 C928 1.368 . S
C944 C940 1.368 . S
C944 C943 1.523 . S
H945 C920 0.950 . S
H946 C922 0.950 . S
H947 C923 0.949 . S
H948 C925 0.950 . S
H949 C927 0.950 . S
C950 C951 1.349 . S
C950 C952 1.327 . S
C950 H975 0.950 . S
C951 C950 1.349 . S
C951 C967 1.349 . S
C952 C950 1.327 . S
C952 C971 1.429 . S
C952 H976 0.950 . S
C953 C970 1.574 . S
C953 C972 1.368 . S
C953 H977 0.949 . S
H954 C958 0.949 . S
C955 C956 1.349 . S
C955 C957 1.327 . S
C955 H978 0.950 . S
C956 C955 1.349 . S
C956 C968 1.349 . S
C957 C955 1.327 . S
C957 C973 1.429 . S
C957 H979 0.950 . S
C958 H954 0.949 . S
C958 C966 1.574 . S
C958 C974 1.368 . S
H959 C967 0.950 . S
H960 C965 0.950 . S
H961 C966 0.949 . S
H962 C968 0.950 . S
H963 C969 0.950 . S
H964 C970 0.949 . S
C965 H960 0.950 . S
C965 C967 1.327 . S
C965 C971 1.429 . S
C966 C958 1.574 . S
C966 H961 0.949 . S
C966 C972 1.368 . S
C967 C951 1.349 . S
C967 H959 0.950 . S
C967 C965 1.327 . S
C968 C956 1.349 . S
C968 H962 0.950 . S
C968 C969 1.327 . S
C969 H963 0.950 . S
C969 C968 1.327 . S
C969 C973 1.429 . S
C970 C953 1.574 . S
C970 H964 0.949 . S
C970 C974 1.368 . S
C971 C952 1.429 . S
C971 C965 1.429 . S
C971 C972 1.523 . S
C972 C953 1.368 . S
C972 C966 1.368 . S
C972 C971 1.523 . S
C973 C957 1.429 . S
C973 C969 1.429 . S
C973 C974 1.523 . S
C974 C958 1.368 . S
C974 C970 1.368 . S
C974 C973 1.523 . S
H975 C950 0.950 . S
H976 C952 0.950 . S
H977 C953 0.949 . S
H978 C955 0.950 . S
H979 C957 0.950 . S
C980 C981 1.349 . S
C980 C982 1.327 . S
C980 H1005 0.950 . S
C981 C980 1.349 . S
C981 C997 1.349 . S
C982 C980 1.327 . S
C982 C1001 1.429 . S
C982 H1006 0.950 . S
C983 C1000 1.574 . S
C983 C1002 1.368 . S
C983 H1007 0.949 . S
H984 C988 0.949 . S
C985 C986 1.349 . S
C985 C987 1.327 . S
C985 H1008 0.950 . S
C986 C985 1.349 . S
C986 C998 1.349 . S
C987 C985 1.327 . S
C987 C1003 1.429 . S
C987 H1009 0.950 . S
C988 H984 0.949 . S
C988 C996 1.574 . S
C988 C1004 1.368 . S
H989 C997 0.950 . S
H990 C995 0.950 . S
H991 C996 0.949 . S
H992 C998 0.950 . S
H993 C999 0.950 . S
H994 C1000 0.949 . S
C995 H990 0.950 . S
C995 C997 1.327 . S
C995 C1001 1.429 . S
C996 C988 1.574 . S
C996 H991 0.949 . S
C996 C1002 1.368 . S
C997 C981 1.349 . S
C997 H989 0.950 . S
C997 C995 1.327 . S
C998 C986 1.349 . S
C998 H992 0.950 . S
C998 C999 1.327 . S
C999 H993 0.950 . S
C999 C998 1.327 . S
C999 C1003 1.429 . S
C1000 C983 1.574 . S
C1000 H994 0.949 . S
C1000 C1004 1.368 . S
C1001 C982 1.429 . S
C1001 C995 1.429 . S
C1001 C1002 1.523 . S
C1002 C983 1.368 . S
C1002 C996 1.368 . S
C1002 C1001 1.523 . S
C1003 C987 1.429 . S
C1003 C999 1.429 . S
C1003 C1004 1.523 . S
C1004 C988 1.368 . S
C1004 C1000 1.368 . S
C1004 C1003 1.523 . S
H1005 C980 0.950 . S
H1006 C982 0.950 . S
H1007 C983 0.949 . S
H1008 C985 0.950 . S
H1009 C987 0.950 . S
C1010 C1011 1.349 . S
C1010 C1012 1.327 . S
C1010 H1035 0.950 . S
C1011 C1010 1.349 . S
C1011 C1027 1.349 . S
C1012 C1010 1.327 . S
C1012 C1031 1.429 . S
C1012 H1036 0.950 . S
C1013 C1030 1.574 . S
C1013 C1032 1.368 . S
C1013 H1037 0.949 . S
H1014 C1018 0.949 . S
C1015 C1016 1.349 . S
C1015 C1017 1.327 . S
C1015 H1038 0.950 . S
C1016 C1015 1.349 . S
C1016 C1028 1.349 . S
C1017 C1015 1.327 . S
C1017 C1033 1.429 . S
C1017 H1039 0.950 . S
C1018 H1014 0.949 . S
C1018 C1026 1.574 . S
C1018 C1034 1.368 . S
H1019 C1027 0.950 . S
H1020 C1025 0.950 . S
H1021 C1026 0.949 . S
H1022 C1028 0.950 . S
H1023 C1029 0.950 . S
H1024 C1030 0.949 . S
C1025 H1020 0.950 . S
C1025 C1027 1.327 . S
C1025 C1031 1.429 . S
C1026 C1018 1.574 . S
C1026 H1021 0.949 . S
C1026 C1032 1.368 . S
C1027 C1011 1.349 . S
C1027 H1019 0.950 . S
C1027 C1025 1.327 . S
C1028 C1016 1.349 . S
C1028 H1022 0.950 . S
C1028 C1029 1.327 . S
C1029 H1023 0.950 . S
C1029 C1028 1.327 . S
C1029 C1033 1.429 . S
C1030 C1013 1.574 . S
C1030 H1024 0.949 . S
C1030 C1034 1.368 . S
C1031 C1012 1.429 . S
C1031 C1025 1.429 . S
C1031 C1032 1.523 . S
C1032 C1013 1.368 . S
C1032 C1026 1.368 . S
C1032 C1031 1.523 . S
C1033 C1017 1.429 . S
C1033 C1029 1.429 . S
C1033 C1034 1.523 . S
C1034 C1018 1.368 . S
C1034 C1030 1.368 . S
C1034 C1033 1.523 . S
H1035 C1010 0.950 . S
H1036 C1012 0.950 . S
H1037 C1013 0.949 . S
H1038 C1015 0.950 . S
H1039 C1017 0.950 . S
C1040 C1041 1.349 . S
C1040 C1042 1.327 . S
C1040 H1065 0.950 . S
C1041 C1040 1.349 . S
C1041 C1057 1.349 . S
C1042 C1040 1.327 . S
C1042 C1061 1.429 . S
C1042 H1066 0.950 . S
C1043 C1060 1.574 . S
C1043 C1062 1.368 . S
C1043 H1067 0.949 . S
H1044 C1048 0.949 . S
C1045 C1046 1.349 . S
C1045 C1047 1.327 . S
C1045 H1068 0.950 . S
C1046 C1045 1.349 . S
C1046 C1058 1.349 . S
C1047 C1045 1.327 . S
C1047 C1063 1.429 . S
C1047 H1069 0.950 . S
C1048 H1044 0.949 . S
C1048 C1056 1.574 . S
C1048 C1064 1.368 . S
H1049 C1057 0.950 . S
H1050 C1055 0.950 . S
H1051 C1056 0.949 . S
H1052 C1058 0.950 . S
H1053 C1059 0.950 . S
H1054 C1060 0.949 . S
C1055 H1050 0.950 . S
C1055 C1057 1.327 . S
C1055 C1061 1.429 . S
C1056 C1048 1.574 . S
C1056 H1051 0.949 . S
C1056 C1062 1.368 . S
C1057 C1041 1.349 . S
C1057 H1049 0.950 . S
C1057 C1055 1.327 . S
C1058 C1046 1.349 . S
C1058 H1052 0.950 . S
C1058 C1059 1.327 . S
C1059 H1053 0.950 . S
C1059 C1058 1.327 . S
C1059 C1063 1.429 . S
C1060 C1043 1.574 . S
C1060 H1054 0.949 . S
C1060 C1064 1.368 . S
C1061 C1042 1.429 . S
C1061 C1055 1.429 . S
C1061 C1062 1.523 . S
C1062 C1043 1.368 . S
C1062 C1056 1.368 . S
C1062 C1061 1.523 . S
C1063 C1047 1.429 . S
C1063 C1059 1.429 . S
C1063 C1064 1.523 . S
C1064 C1048 1.368 . S
C1064 C1060 1.368 . S
C1064 C1063 1.523 . S
H1065 C1040 0.950 . S
H1066 C1042 0.950 . S
H1067 C1043 0.949 . S
H1068 C1045 0.950 . S
H1069 C1047 0.950 . S
C1070 C1071 1.349 . S
C1070 C1072 1.327 . S
C1070 H1095 0.950 . S
C1071 C1070 1.349 . S
C1071 C1087 1.349 . S
C1072 C1070 1.327 . S
C1072 C1091 1.429 . S
C1072 H1096 0.950 . S
C1073 C1090 1.574 . S
C1073 C1092 1.368 . S
C1073 H1097 0.949 . S
H1074 C1078 0.949 . S
C1075 C1076 1.349 . S
C1075 C1077 1.327 . S
C1075 H1098 0.950 . S
C1076 C1075 1.349 . S
C1076 C1088 1.349 . S
C1077 C1075 1.327 . S
C1077 C1093 1.429 . S
C1077 H1099 0.950 . S
C1078 H1074 0.949 . S
C1078 C1086 1.574 . S
C1078 C1094 1.368 . S
H1079 C1087 0.950 . S
H1080 C1085 0.950 . S
H1081 C1086 0.949 . S
H1082 C1088 0.950 . S
H1083 C1089 0.950 . S
H1084 C1090 0.949 . S
C1085 H1080 0.950 . S
C1085 C1087 1.327 . S
C1085 C1091 1.429 . S
C1086 C1078 1.574 . S
C1086 H1081 0.949 . S
C1086 C1092 1.368 . S
C1087 C1071 1.349 . S
C1087 H1079 0.950 . S
C1087 C1085 1.327 . S
C1088 C1076 1.349 . S
C1088 H1082 0.950 . S
C1088 C1089 1.327 . S
C1089 H1083 0.950 . S
C1089 C1088 1.327 . S
C1089 C1093 1.429 . S
C1090 C1073 1.574 . S
C1090 H1084 0.949 . S
C1090 C1094 1.368 . S
C1091 C1072 1.429 . S
C1091 C1085 1.429 . S
C1091 C1092 1.523 . S
C1092 C1073 1.368 . S
C1092 C1086 1.368 . S
C1092 C1091 1.523 . S
C1093 C1077 1.429 . S
C1093 C1089 1.429 . S
C1093 C1094 1.523 . S
C1094 C1078 1.368 . S
C1094 C1090 1.368 . S
C1094 C1093 1.523 . S
H1095 C1070 0.950 . S
H1096 C1072 0.950 . S
H1097 C1073 0.949 . S
H1098 C1075 0.950 . S
H1099 C1077 0.950 . S
C1100 C1101 1.349 . S
C1100 C1102 1.327 . S
C1100 H1125 0.950 . S
C1101 C1100 1.349 . S
C1101 C1117 1.349 . S
C1102 C1100 1.327 . S
C1102 C1121 1.429 . S
C1102 H1126 0.950 . S
C1103 C1120 1.574 . S
C1103 C1122 1.368 . S
C1103 H1127 0.949 . S
H1104 C1108 0.949 . S
C1105 C1106 1.349 . S
C1105 C1107 1.327 . S
C1105 H1128 0.950 . S
C1106 C1105 1.349 . S
C1106 C1118 1.349 . S
C1107 C1105 1.327 . S
C1107 C1123 1.429 . S
C1107 H1129 0.950 . S
C1108 H1104 0.949 . S
C1108 C1116 1.574 . S
C1108 C1124 1.368 . S
H1109 C1117 0.950 . S
H1110 C1115 0.950 . S
H1111 C1116 0.949 . S
H1112 C1118 0.950 . S
H1113 C1119 0.950 . S
H1114 C1120 0.949 . S
C1115 H1110 0.950 . S
C1115 C1117 1.327 . S
C1115 C1121 1.429 . S
C1116 C1108 1.574 . S
C1116 H1111 0.949 . S
C1116 C1122 1.368 . S
C1117 C1101 1.349 . S
C1117 H1109 0.950 . S
C1117 C1115 1.327 . S
C1118 C1106 1.349 . S
C1118 H1112 0.950 . S
C1118 C1119 1.327 . S
C1119 H1113 0.950 . S
C1119 C1118 1.327 . S
C1119 C1123 1.429 . S
C1120 C1103 1.574 . S
C1120 H1114 0.949 . S
C1120 C1124 1.368 . S
C1121 C1102 1.429 . S
C1121 C1115 1.429 . S
C1121 C1122 1.523 . S
C1122 C1103 1.368 . S
C1122 C1116 1.368 . S
C1122 C1121 1.523 . S
C1123 C1107 1.429 . S
C1123 C1119 1.429 . S
C1123 C1124 1.523 . S
C1124 C1108 1.368 . S
C1124 C1120 1.368 . S
C1124 C1123 1.523 . S
H1125 C1100 0.950 . S
H1126 C1102 0.950 . S
H1127 C1103 0.949 . S
H1128 C1105 0.950 . S
H1129 C1107 0.950 . S
C1130 C1131 1.349 . S
C1130 C1132 1.327 . S
C1130 H1155 0.950 . S
C1131 C1130 1.349 . S
C1131 C1147 1.349 . S
C1132 C1130 1.327 . S
C1132 C1151 1.429 . S
C1132 H1156 0.950 . S
C1133 C1150 1.574 . S
C1133 C1152 1.368 . S
C1133 H1157 0.949 . S
H1134 C1138 0.949 . S
C1135 C1136 1.349 . S
C1135 C1137 1.327 . S
C1135 H1158 0.950 . S
C1136 C1135 1.349 . S
C1136 C1148 1.349 . S
C1137 C1135 1.327 . S
C1137 C1153 1.429 . S
C1137 H1159 0.950 . S
C1138 H1134 0.949 . S
C1138 C1146 1.574 . S
C1138 C1154 1.368 . S
H1139 C1147 0.950 . S
H1140 C1145 0.950 . S
H1141 C1146 0.949 . S
H1142 C1148 0.950 . S
H1143 C1149 0.950 . S
H1144 C1150 0.949 . S
C1145 H1140 0.950 . S
C1145 C1147 1.327 . S
C1145 C1151 1.429 . S
C1146 C1138 1.574 . S
C1146 H1141 0.949 . S
C1146 C1152 1.368 . S
C1147 C1131 1.349 . S
C1147 H1139 0.950 . S
C1147 C1145 1.327 . S
C1148 C1136 1.349 . S
C1148 H1142 0.950 . S
C1148 C1149 1.327 . S
C1149 H1143 0.950 . S
C1149 C1148 1.327 . S
C1149 C1153 1.429 . S
C1150 C1133 1.574 . S
C1150 H1144 0.949 . S
C1150 C1154 1.368 . S
C1151 C1132 1.429 . S
C1151 C1145 1.429 . S
C1151 C1152 1.523 . S
C1152 C1133 1.368 . S
C1152 C1146 1.368 . S
C1152 C1151 1.523 . S
C1153 C1137 1.429 . S
C1153 C1149 1.429 . S
C1153 C1154 1.523 . S
C1154 C1138 1.368 . S
C1154 C1150 1.368 . S
C1154 C1153 1.523 . S
H1155 C1130 0.950 . S
H1156 C1132 0.950 . S
H1157 C1133 0.949 . S
H1158 C1135 0.950 . S
H1159 C1137 0.950 . S
C1160 C1161 1.349 . S
C1160 C1162 1.327 . S
C1160 H1185 0.950 . S
C1161 C1160 1.349 . S
C1161 C1177 1.349 . S
C1162 C1160 1.327 . S
C1162 C1181 1.429 . S
C1162 H1186 0.950 . S
C1163 C1180 1.574 . S
C1163 C1182 1.368 . S
C1163 H1187 0.949 . S
H1164 C1168 0.949 . S
C1165 C1166 1.349 . S
C1165 C1167 1.327 . S
C1165 H1188 0.950 . S
C1166 C1165 1.349 . S
C1166 C1178 1.349 . S
C1167 C1165 1.327 . S
C1167 C1183 1.429 . S
C1167 H1189 0.950 . S
C1168 H1164 0.949 . S
C1168 C1176 1.574 . S
C1168 C1184 1.368 . S
H1169 C1177 0.950 . S
H1170 C1175 0.950 . S
H1171 C1176 0.949 . S
H1172 C1178 0.950 . S
H1173 C1179 0.950 . S
H1174 C1180 0.949 . S
C1175 H1170 0.950 . S
C1175 C1177 1.327 . S
C1175 C1181 1.429 . S
C1176 C1168 1.574 . S
C1176 H1171 0.949 . S
C1176 C1182 1.368 . S
C1177 C1161 1.349 . S
C1177 H1169 0.950 . S
C1177 C1175 1.327 . S
C1178 C1166 1.349 . S
C1178 H1172 0.950 . S
C1178 C1179 1.327 . S
C1179 H1173 0.950 . S
C1179 C1178 1.327 . S
C1179 C1183 1.429 . S
C1180 C1163 1.574 . S
C1180 H1174 0.949 . S
C1180 C1184 1.368 . S
C1181 C1162 1.429 . S
C1181 C1175 1.429 . S
C1181 C1182 1.523 . S
C1182 C1163 1.368 . S
C1182 C1176 1.368 . S
C1182 C1181 1.523 . S
C1183 C1167 1.429 . S
C1183 C1179 1.429 . S
C1183 C1184 1.523 . S
C1184 C1168 1.368 . S
C1184 C1180 1.368 . S
C1184 C1183 1.523 . S
H1185 C1160 0.950 . S
H1186 C1162 0.950 . S
H1187 C1163 0.949 . S
H1188 C1165 0.950 . S
H1189 C1167 0.950 . S
C1190 C1191 1.349 . S
C1190 C1192 1.327 . S
C1190 H1215 0.950 . S
C1191 C1190 1.349 . S
C1191 C1207 1.349 . S
C1192 C1190 1.327 . S
C1192 C1211 1.429 . S
C1192 H1216 0.950 . S
C1193 C1210 1.574 . S
C1193 C1212 1.368 . S
C1193 H1217 0.949 . S
H1194 C1198 0.949 . S
C1195 C1196 1.349 . S
C1195 C1197 1.327 . S
C1195 H1218 0.950 . S
C1196 C1195 1.349 . S
C1196 C1208 1.349 . S
C1197 C1195 1.327 . S
C1197 C1213 1.429 . S
C1197 H1219 0.950 . S
C1198 H1194 0.949 . S
C1198 C1206 1.574 . S
C1198 C1214 1.368 . S
H1199 C1207 0.950 . S
H1200 C1205 0.950 . S
H1201 C1206 0.949 . S
H1202 C1208 0.950 . S
H1203 C1209 0.950 . S
H1204 C1210 0.949 . S
C1205 H1200 0.950 . S
C1205 C1207 1.327 . S
C1205 C1211 1.429 . S
C1206 C1198 1.574 . S
C1206 H1201 0.949 . S
C1206 C1212 1.368 . S
C1207 C1191 1.349 . S
C1207 H1199 0.950 . S
C1207 C1205 1.327 . S
C1208 C1196 1.349 . S
C1208 H1202 0.950 . S
C1208 C1209 1.327 . S
C1209 H1203 0.950 . S
C1209 C1208 1.327 . S
C1209 C1213 1.429 . S
C1210 C1193 1.574 . S
C1210 H1204 0.949 . S
C1210 C1214 1.368 . S
C1211 C1192 1.429 . S
C1211 C1205 1.429 . S
C1211 C1212 1.523 . S
C1212 C1193 1.368 . S
C1212 C1206 1.368 . S
C1212 C1211 1.523 . S
C1213 C1197 1.429 . S
C1213 C1209 1.429 . S
C1213 C1214 1.523 . S
C1214 C1198 1.368 . S
C1214 C1210 1.368 . S
C1214 C1213 1.523 . S
H1215 C1190 0.950 . S
H1216 C1192 0.950 . S
H1217 C1193 0.949 . S
H1218 C1195 0.950 . S
H1219 C1197 0.950 . S
C1220 C1221 1.349 . S
C1220 C1222 1.327 . S
C1220 H1245 0.950 . S
C1221 C1220 1.349 . S
C1221 C1237 1.349 . S
C1222 C1220 1.327 . S
C1222 C1241 1.429 . S
C1222 H1246 0.950 . S
C1223 C1240 1.574 . S
C1223 C1242 1.368 . S
C1223 H1247 0.949 . S
H1224 C1228 0.949 . S
C1225 C1226 1.349 . S
C1225 C1227 1.327 . S
C1225 H1248 0.950 . S
C1226 C1225 1.349 . S
C1226 C1238 1.349 . S
C1227 C1225 1.327 . S
C1227 C1243 1.429 . S
C1227 H1249 0.950 . S
C1228 H1224 0.949 . S
C1228 C1236 1.574 . S
C1228 C1244 1.368 . S
H1229 C1237 0.950 . S
H1230 C1235 0.950 . S
H1231 C1236 0.949 . S
H1232 C1238 0.950 . S
H1233 C1239 0.950 . S
H1234 C1240 0.949 . S
C1235 H1230 0.950 . S
C1235 C1237 1.327 . S
C1235 C1241 1.429 . S
C1236 C1228 1.574 . S
C1236 H1231 0.949 . S
C1236 C1242 1.368 . S
C1237 C1221 1.349 . S
C1237 H1229 0.950 . S
C1237 C1235 1.327 . S
C1238 C1226 1.349 . S
C1238 H1232 0.950 . S
C1238 C1239 1.327 . S
C1239 H1233 0.950 . S
C1239 C1238 1.327 . S
C1239 C1243 1.429 . S
C1240 C1223 1.574 . S
C1240 H1234 0.949 . S
C1240 C1244 1.368 . S
C1241 C1222 1.429 . S
C1241 C1235 1.429 . S
C1241 C1242 1.523 . S
C1242 C1223 1.368 . S
C1242 C1236 1.368 . S
C1242 C1241 1.523 . S
C1243 C1227 1.429 . S
C1243 C1239 1.429 . S
C1243 C1244 1.523 . S
C1244 C1228 1.368 . S
C1244 C1240 1.368 . S
C1244 C1243 1.523 . S
H1245 C1220 0.950 . S
H1246 C1222 0.950 . S
H1247 C1223 0.949 . S
H1248 C1225 0.950 . S
H1249 C1227 0.950 . S
C1250 C1251 1.349 . S
C1250 C1252 1.327 . S
C1250 H1275 0.950 . S
C1251 C1250 1.349 . S
C1251 C1267 1.349 . S
C1252 C1250 1.327 . S
C1252 C1271 1.429 . S
C1252 H1276 0.950 . S
C1253 C1270 1.574 . S
C1253 C1272 1.368 . S
C1253 H1277 0.949 . S
H1254 C1258 0.949 . S
C1255 C1256 1.349 . S
C1255 C1257 1.327 . S
C1255 H1278 0.950 . S
C1256 C1255 1.349 . S
C1256 C1268 1.349 . S
C1257 C1255 1.327 . S
C1257 C1273 1.429 . S
C1257 H1279 0.950 . S
C1258 H1254 0.949 . S
C1258 C1266 1.574 . S
C1258 C1274 1.368 . S
H1259 C1267 0.950 . S
H1260 C1265 0.950 . S
H1261 C1266 0.949 . S
H1262 C1268 0.950 . S
H1263 C1269 0.950 . S
H1264 C1270 0.949 . S
C1265 H1260 0.950 . S
C1265 C1267 1.327 . S
C1265 C1271 1.429 . S
C1266 C1258 1.574 . S
C1266 H1261 0.949 . S
C1266 C1272 1.368 . S
C1267 C1251 1.349 . S
C1267 H1259 0.950 . S
C1267 C1265 1.327 . S
C1268 C1256 1.349 . S
C1268 H1262 0.950 . S
C1268 C1269 1.327 . S
C1269 H1263 0.950 . S
C1269 C1268 1.327 . S
C1269 C1273 1.429 . S
C1270 C1253 1.574 . S
C1270 H1264 0.949 . S
C1270 C1274 1.368 . S
C1271 C1252 1.429 . S
C1271 C1265 1.429 . S
C1271 C1272 1.523 . S
C1272 C1253 1.368 . S
C1272 C1266 1.368 . S
C1272 C1271 1.523 . S
C1273 C1257 1.429 . S
C1273 C1269 1.429 . S
C1273 C1274 1.523 . S
C1274 C1258 1.368 . S
C1274 C1270 1.368 . S
C1274 C1273 1.523 . S
H1275 C1250 0.950 . S
H1276 C1252 0.950 . S
H1277 C1253 0.949 . S
H1278 C1255 0.950 . S
H1279 C1257 0.950 . S
C561 C1 1.459 . S
C566 C499 1.480 . S
C591 C80 1.290 . S
C596 C502 1.267 . S
C626 C538 1.722 . S
C621 C140 1.740 . S
C651 C211 1.630 . S
C656 C558 1.622 . S
C686 C512 1.734 . S
C681 C31 1.728 . S
C716 C489 1.553 . S
C711 C61 1.559 . S
C746 C542 1.530 . S
C741 C151 1.605 . S
C776 C522 1.374 . S
C771 C200 1.462 . S
C801 C20 1.320 . S
C806 C552 1.300 . S
C836 C518 1.580 . S
C831 C121 1.587 . S
C861 C181 1.620 . S
C866 C484 1.591 . S
C891 C91 1.329 . S
C896 C532 1.318 . S
C926 C498 1.482 . S
C921 C260 1.485 . S
C951 C320 1.290 . S
C956 C504 1.260 . S
C981 C361 1.731 . S
C986 C539 1.722 . S
C1011 C451 1.630 . S
C1016 C559 1.626 . S
C1041 C271 1.722 . S
C1046 C509 1.738 . S
C1076 C492 1.553 . S
C1071 C301 1.558 . S
C1106 C544 1.530 . S
C1101 C380 1.585 . S
C1136 C524 1.373 . S
C1131 C440 1.461 . S
C1161 C241 1.310 . S
C1166 C549 1.305 . S
C1196 C519 1.579 . S
C1191 C391 1.580 . S
C1226 C482 1.587 . S
C1221 C421 1.616 . S
C1251 C331 1.329 . S
C1256 C529 1.318 . S
