# Generated by pormake.
# Topology pyr, (3,6)-cn, num edge types: 1
# Building blocks:
#     Node 0, Type 0, BuildingBlock: KAKCAD_clean_linker_0, # of connection points: 3
#     Node 1, Type 0, BuildingBlock: KAKCAD_clean_linker_0, # of connection points: 3
#     Node 2, Type 0, BuildingBlock: KAKCAD_clean_linker_0, # of connection points: 3
#     Node 3, Type 0, BuildingBlock: KAKCAD_clean_linker_0, # of connection points: 3
#     Node 4, Type 0, BuildingBlock: KAKCAD_clean_linker_0, # of connection points: 3
#     Node 5, Type 0, BuildingBlock: KAKCAD_clean_linker_0, # of connection points: 3
#     Node 6, Type 0, BuildingBlock: KAKCAD_clean_linker_0, # of connection points: 3
#     Node 7, Type 0, BuildingBlock: KAKCAD_clean_linker_0, # of connection points: 3
#     Node 8, Type 1, BuildingBlock: VOLQOD_clean_sbu_1, # of connection points: 6
#     Node 9, Type 1, BuildingBlock: VOLQOD_clean_sbu_1, # of connection points: 6
#     Node 10, Type 1, BuildingBlock: VOLQOD_clean_sbu_1, # of connection points: 6
#     Node 11, Type 1, BuildingBlock: VOLQOD_clean_sbu_1, # of connection points: 6
#     Edge 12, Type (0, 1), BuildingBlock: ZUJKAS_clean_linker_0, # of connection points: 2
#     Edge 13, Type (0, 1), BuildingBlock: ZUJKAS_clean_linker_0, # of connection points: 2
#     Edge 14, Type (0, 1), BuildingBlock: ZUJKAS_clean_linker_0, # of connection points: 2
#     Edge 15, Type (0, 1), BuildingBlock: ZUJKAS_clean_linker_0, # of connection points: 2
#     Edge 16, Type (0, 1), BuildingBlock: ZUJKAS_clean_linker_0, # of connection points: 2
#     Edge 17, Type (0, 1), BuildingBlock: ZUJKAS_clean_linker_0, # of connection points: 2
#     Edge 18, Type (0, 1), BuildingBlock: ZUJKAS_clean_linker_0, # of connection points: 2
#     Edge 19, Type (0, 1), BuildingBlock: ZUJKAS_clean_linker_0, # of connection points: 2
#     Edge 20, Type (0, 1), BuildingBlock: ZUJKAS_clean_linker_0, # of connection points: 2
#     Edge 21, Type (0, 1), BuildingBlock: ZUJKAS_clean_linker_0, # of connection points: 2
#     Edge 22, Type (0, 1), BuildingBlock: ZUJKAS_clean_linker_0, # of connection points: 2
#     Edge 23, Type (0, 1), BuildingBlock: ZUJKAS_clean_linker_0, # of connection points: 2
#     Edge 24, Type (0, 1), BuildingBlock: ZUJKAS_clean_linker_0, # of connection points: 2
#     Edge 25, Type (0, 1), BuildingBlock: ZUJKAS_clean_linker_0, # of connection points: 2
#     Edge 26, Type (0, 1), BuildingBlock: ZUJKAS_clean_linker_0, # of connection points: 2
#     Edge 27, Type (0, 1), BuildingBlock: ZUJKAS_clean_linker_0, # of connection points: 2
#     Edge 28, Type (0, 1), BuildingBlock: ZUJKAS_clean_linker_0, # of connection points: 2
#     Edge 29, Type (0, 1), BuildingBlock: ZUJKAS_clean_linker_0, # of connection points: 2
#     Edge 30, Type (0, 1), BuildingBlock: ZUJKAS_clean_linker_0, # of connection points: 2
#     Edge 31, Type (0, 1), BuildingBlock: ZUJKAS_clean_linker_0, # of connection points: 2
#     Edge 32, Type (0, 1), BuildingBlock: ZUJKAS_clean_linker_0, # of connection points: 2
#     Edge 33, Type (0, 1), BuildingBlock: ZUJKAS_clean_linker_0, # of connection points: 2
#     Edge 34, Type (0, 1), BuildingBlock: ZUJKAS_clean_linker_0, # of connection points: 2
#     Edge 35, Type (0, 1), BuildingBlock: ZUJKAS_clean_linker_0, # of connection points: 2
# Relax obj value: 0.035
# Max RMSD: 0.119
# Mean RMSD: 0.043
data_MOF--net-pry--node1-VOLQOD_clean_sbu_1--node2-KAKCAD_clean_linker_0--edge1-ZUJKAS_clean_linker_0
_symmetry_space_group_name_H-M    P1
_symmetry_Int_Tables_number       1
_symmetry_cell_setting            triclinic
loop_
_symmetry_equiv_pos_as_xyz
'x, y, z'
_cell_length_a     56.333267
_cell_length_b     56.247197
_cell_length_c     56.467991
_cell_angle_alpha  90.38815
_cell_angle_beta   89.912059
_cell_angle_gamma 90.284548
loop_
_atom_site_label
_atom_site_type_symbol
_atom_site_fract_x
_atom_site_fract_y
_atom_site_fract_z
_atom_type_partial_charge
C0 C 0.08596 0.12428 0.21398 0.0
C1 C 0.10113 0.1171 0.23232 0.0
C2 C 0.09526 0.13351 0.19296 0.0
C3 C 0.11994 0.13569 0.18981 0.0
C4 C 0.13507 0.12861 0.2082 0.0
C5 C 0.12579 0.1194 0.22917 0.0
C6 C 0.12998 0.14522 0.16744 0.0
C7 C 0.11979 0.16505 0.15646 0.0
C8 C 0.12976 0.17454 0.13572 0.0
C9 C 0.15 0.16383 0.12584 0.0
C10 C 0.16038 0.14397 0.13654 0.0
C11 C 0.15018 0.13474 0.15725 0.0
C12 C 0.18212 0.13311 0.1264 0.0
C13 C 0.1843 0.12933 0.10186 0.0
C14 C 0.20093 0.12653 0.14125 0.0
C15 C 0.22147 0.11639 0.13181 0.0
C16 C 0.22367 0.11254 0.10728 0.0
C17 C 0.11946 0.19605 0.12472 0.0
C18 C 0.09478 0.19832 0.1221 0.0
C19 C 0.13431 0.21455 0.1169 0.0
C20 C 0.12471 0.23488 0.1067 0.0
C21 C 0.10002 0.23718 0.104 0.0
C22 C 0.08516 0.21865 0.11181 0.0
C23 C 0.20485 0.11913 0.09241 0.0
H24 H 0.06687 0.12297 0.21594 0.0
H25 H 0.08314 0.13865 0.17906 0.0
H26 H 0.15416 0.13034 0.20648 0.0
H27 H 0.13799 0.1138 0.24282 0.0
H28 H 0.10459 0.17365 0.16454 0.0
H29 H 0.15782 0.1191 0.16528 0.0
H30 H 0.15785 0.17111 0.10991 0.0
H31 H 0.16998 0.13396 0.09 0.0
H32 H 0.19993 0.12958 0.16019 0.0
H33 H 0.2358 0.11193 0.14372 0.0
H34 H 0.08291 0.18424 0.12773 0.0
H35 H 0.15338 0.2135 0.11905 0.0
H36 H 0.20585 0.11611 0.07347 0.0
H37 H 0.06609 0.21971 0.10971 0.0
H38 H 0.13664 0.249 0.1013 0.0
C39 C 0.39466 0.90996 0.72312 0.0
C40 C 0.4194 0.91193 0.72557 0.0
C41 C 0.38477 0.8993 0.70304 0.0
C42 C 0.39936 0.89042 0.68484 0.0
C43 C 0.42414 0.89237 0.68726 0.0
C44 C 0.43406 0.90298 0.70745 0.0
C45 C 0.38859 0.87891 0.66362 0.0
C46 C 0.3679 0.88832 0.65356 0.0
C47 C 0.35648 0.87679 0.63457 0.0
C48 C 0.36628 0.85576 0.62533 0.0
C49 C 0.38722 0.84634 0.63486 0.0
C50 C 0.39831 0.85804 0.65394 0.0
C51 C 0.39707 0.82383 0.62539 0.0
C52 C 0.38226 0.80394 0.62197 0.0
C53 C 0.42132 0.82203 0.61985 0.0
C54 C 0.43055 0.80076 0.61088 0.0
C55 C 0.41576 0.78083 0.60763 0.0
C56 C 0.33404 0.88648 0.62484 0.0
C57 C 0.31666 0.89581 0.64014 0.0
C58 C 0.32978 0.88651 0.6003 0.0
C59 C 0.30865 0.89573 0.5913 0.0
C60 C 0.2914 0.90521 0.60664 0.0
C61 C 0.29563 0.90511 0.63115 0.0
C62 C 0.39154 0.7826 0.61331 0.0
H63 H 0.3829 0.91625 0.73698 0.0
H64 H 0.36564 0.89763 0.702 0.0
H65 H 0.43587 0.88592 0.67345 0.0
H66 H 0.4532 0.90443 0.70876 0.0
H67 H 0.36074 0.90482 0.66045 0.0
H68 H 0.41399 0.85031 0.66183 0.0
H69 H 0.35751 0.84655 0.61085 0.0
H70 H 0.36353 0.8048 0.62628 0.0
H71 H 0.43308 0.83715 0.62224 0.0
H72 H 0.44931 0.7998 0.60677 0.0
H73 H 0.31914 0.89562 0.65916 0.0
H74 H 0.34293 0.87972 0.58802 0.0
H75 H 0.37972 0.76755 0.61081 0.0
H76 H 0.28248 0.91189 0.64344 0.0
H77 H 0.30596 0.89577 0.57231 0.0
C78 C 0.69497 0.44514 0.91507 0.0
C79 C 0.71287 0.43076 0.92466 0.0
C80 C 0.67342 0.43515 0.90764 0.0
C81 C 0.6693 0.41054 0.90951 0.0
C82 C 0.68706 0.39629 0.91951 0.0
C83 C 0.70847 0.40628 0.9271 0.0
C84 C 0.64713 0.39946 0.90013 0.0
C85 C 0.63731 0.40721 0.87866 0.0
C86 C 0.61778 0.39535 0.86855 0.0
C87 C 0.60793 0.37562 0.88013 0.0
C88 C 0.61729 0.36774 0.90172 0.0
C89 C 0.63666 0.38 0.91173 0.0
C90 C 0.60781 0.34584 0.913 0.0
C91 C 0.58329 0.34103 0.91331 0.0
C92 C 0.62339 0.32904 0.92264 0.0
C93 C 0.61473 0.30775 0.93191 0.0
C94 C 0.59028 0.30264 0.93167 0.0
C95 C 0.60857 0.40271 0.84518 0.0
C96 C 0.60356 0.42669 0.84065 0.0
C97 C 0.60514 0.38576 0.8271 0.0
C98 C 0.59712 0.3927 0.80482 0.0
C99 C 0.59209 0.41667 0.80027 0.0
C100 C 0.5952 0.43359 0.81844 0.0
C101 C 0.57462 0.31967 0.92253 0.0
H102 H 0.6978 0.46403 0.91276 0.0
H103 H 0.66004 0.44671 0.90027 0.0
H104 H 0.68472 0.37723 0.92095 0.0
H105 H 0.72166 0.39471 0.93477 0.0
H106 H 0.64556 0.42173 0.86912 0.0
H107 H 0.6437 0.37425 0.92858 0.0
H108 H 0.59326 0.36609 0.87199 0.0
H109 H 0.57078 0.35371 0.90625 0.0
H110 H 0.6424 0.33203 0.92246 0.0
H111 H 0.62726 0.29518 0.93912 0.0
H112 H 0.60599 0.44006 0.85434 0.0
H113 H 0.60907 0.36719 0.83007 0.0
H114 H 0.5557 0.31623 0.92192 0.0
H115 H 0.59159 0.45221 0.81532 0.0
H116 H 0.59471 0.37929 0.79116 0.0
C117 C 0.89968 0.59193 0.30329 0.0
C118 C 0.92413 0.5933 0.29846 0.0
C119 C 0.89079 0.59874 0.32539 0.0
C120 C 0.90614 0.6069 0.34333 0.0
C121 C 0.93066 0.60789 0.33866 0.0
C122 C 0.93954 0.60122 0.31647 0.0
C123 C 0.89645 0.61491 0.36656 0.0
C124 C 0.87717 0.60289 0.37692 0.0
C125 C 0.86672 0.6113 0.39793 0.0
C126 C 0.87622 0.63163 0.40904 0.0
C127 C 0.89562 0.64382 0.39909 0.0
C128 C 0.90561 0.63531 0.37786 0.0
C129 C 0.90467 0.66615 0.41012 0.0
C130 C 0.8888 0.68328 0.41894 0.0
C131 C 0.92919 0.67084 0.41128 0.0
C132 C 0.93761 0.69229 0.42077 0.0
C133 C 0.9217 0.70952 0.42933 0.0
C134 C 0.84503 0.59965 0.40746 0.0
C135 C 0.82667 0.59266 0.39205 0.0
C136 C 0.84212 0.59613 0.43192 0.0
C137 C 0.82119 0.58606 0.44077 0.0
C138 C 0.80272 0.57933 0.42535 0.0
C139 C 0.80578 0.58263 0.40088 0.0
C140 C 0.89721 0.70469 0.42845 0.0
H141 H 0.88732 0.58558 0.28998 0.0
H142 H 0.87179 0.59803 0.32822 0.0
H143 H 0.94301 0.61385 0.35215 0.0
H144 H 0.95845 0.60272 0.3133 0.0
H145 H 0.87023 0.58691 0.36859 0.0
H146 H 0.91988 0.64522 0.36957 0.0
H147 H 0.86816 0.63829 0.42519 0.0
H148 H 0.8698 0.68042 0.41792 0.0
H149 H 0.94188 0.65787 0.40492 0.0
H150 H 0.95659 0.69535 0.42149 0.0
H151 H 0.82816 0.59554 0.37316 0.0
H152 H 0.85606 0.60109 0.44421 0.0
H153 H 0.88447 0.71774 0.43453 0.0
H154 H 0.79175 0.57807 0.38855 0.0
H155 H 0.81949 0.58348 0.45969 0.0
C156 C 0.93602 0.93383 0.82814 0.0
C157 C 0.93386 0.95807 0.8228 0.0
C158 C 0.93126 0.92562 0.85087 0.0
C159 C 0.92434 0.94144 0.86895 0.0
C160 C 0.92268 0.96581 0.86381 0.0
C161 C 0.92748 0.97406 0.84094 0.0
C162 C 0.91759 0.93205 0.89255 0.0
C163 C 0.93036 0.91319 0.90242 0.0
C164 C 0.92186 0.90112 0.92241 0.0
C165 C 0.90103 0.90917 0.9335 0.0
C166 C 0.88823 0.92838 0.92422 0.0
C167 C 0.89673 0.9398 0.9038 0.0
C168 C 0.86464 0.93475 0.93415 0.0
C169 C 0.84846 0.9168 0.94055 0.0
C170 C 0.85761 0.95864 0.93612 0.0
C171 C 0.83474 0.9644 0.94387 0.0
C172 C 0.81842 0.94638 0.94974 0.0
C173 C 0.9329 0.87836 0.9297 0.0
C174 C 0.9402 0.86191 0.91233 0.0
C175 C 0.93465 0.87207 0.9537 0.0
C176 C 0.94285 0.84955 0.9601 0.0
C177 C 0.94939 0.8329 0.94262 0.0
C178 C 0.94843 0.83954 0.91871 0.0
C179 C 0.82567 0.92255 0.94831 0.0
H180 H 0.94124 0.9211 0.81464 0.0
H181 H 0.93235 0.90669 0.85407 0.0
H182 H 0.91749 0.97844 0.8774 0.0
H183 H 0.9256 0.99284 0.83732 0.0
H184 H 0.94658 0.90728 0.89393 0.0
H185 H 0.88622 0.95364 0.89572 0.0
H186 H 0.89413 0.89976 0.94873 0.0
H187 H 0.85312 0.89821 0.93892 0.0
H188 H 0.86973 0.97287 0.93145 0.0
H189 H 0.82965 0.98293 0.94464 0.0
H190 H 0.93876 0.86593 0.89366 0.0
H191 H 0.92934 0.8844 0.96751 0.0
H192 H 0.81363 0.90826 0.95301 0.0
H193 H 0.95372 0.82728 0.90483 0.0
H194 H 0.94332 0.84492 0.97868 0.0
C195 C 0.58097 0.04124 0.34393 0.0
C196 C 0.5715 0.05677 0.32703 0.0
C197 C 0.5878 0.04978 0.36626 0.0
C198 C 0.58548 0.07404 0.37202 0.0
C199 C 0.57579 0.08943 0.35508 0.0
C200 C 0.5688 0.08088 0.33294 0.0
C201 C 0.59422 0.08376 0.39499 0.0
C202 C 0.61581 0.076 0.40455 0.0
C203 C 0.62558 0.08711 0.4247 0.0
C204 C 0.61355 0.10635 0.43517 0.0
C205 C 0.59197 0.11445 0.42581 0.0
C206 C 0.58211 0.10248 0.40623 0.0
C207 C 0.58088 0.1367 0.43493 0.0
C208 C 0.58152 0.14269 0.45918 0.0
C209 C 0.57067 0.15286 0.41903 0.0
C210 C 0.56156 0.17446 0.42706 0.0
C211 C 0.56273 0.18065 0.45114 0.0
C212 C 0.64923 0.07973 0.43361 0.0
C213 C 0.65537 0.05555 0.43456 0.0
C214 C 0.66617 0.0969 0.44041 0.0
C215 C 0.68878 0.09007 0.44772 0.0
C216 C 0.69503 0.06593 0.44828 0.0
C217 C 0.67805 0.04873 0.44176 0.0
C218 C 0.57268 0.16453 0.46717 0.0
H219 H 0.58311 0.02253 0.33986 0.0
H220 H 0.59498 0.0374 0.37896 0.0
H221 H 0.57429 0.10831 0.3586 0.0
H222 H 0.562 0.09336 0.32012 0.0
H223 H 0.62572 0.06217 0.39554 0.0
H224 H 0.56515 0.10814 0.3993 0.0
H225 H 0.62142 0.1155 0.45018 0.0
H226 H 0.58897 0.13058 0.47197 0.0
H227 H 0.57038 0.14926 0.40018 0.0
H228 H 0.55438 0.18674 0.41426 0.0
H229 H 0.64263 0.04188 0.42971 0.0
H230 H 0.66222 0.11569 0.43944 0.0
H231 H 0.57366 0.16886 0.48587 0.0
H232 H 0.68229 0.02997 0.44228 0.0
H233 H 0.7016 0.10376 0.45226 0.0
C234 C 0.31989 0.58077 0.09584 0.0
C235 C 0.31752 0.57914 0.07108 0.0
C236 C 0.34154 0.58719 0.10608 0.0
C237 C 0.36131 0.59239 0.09183 0.0
C238 C 0.35908 0.59078 0.0671 0.0
C239 C 0.33745 0.58409 0.05683 0.0
C240 C 0.38387 0.60031 0.1029 0.0
C241 C 0.39282 0.58839 0.1227 0.0
C242 C 0.41297 0.59697 0.13471 0.0
C243 C 0.42437 0.61758 0.12641 0.0
C244 C 0.41561 0.6298 0.10663 0.0
C245 C 0.39549 0.62084 0.09482 0.0
C246 C 0.42617 0.65295 0.09951 0.0
C247 C 0.43254 0.66991 0.11679 0.0
C248 C 0.42885 0.65878 0.07547 0.0
C249 C 0.4372 0.68124 0.06889 0.0
C250 C 0.443 0.69838 0.0862 0.0
C251 C 0.42105 0.58543 0.15687 0.0
C252 C 0.40437 0.57788 0.1738 0.0
C253 C 0.44536 0.58273 0.16174 0.0
C254 C 0.4528 0.57309 0.18325 0.0
C255 C 0.43609 0.56602 0.20036 0.0
C256 C 0.4118 0.56825 0.19524 0.0
C257 C 0.44088 0.69232 0.11022 0.0
H258 H 0.30486 0.57764 0.1074 0.0
H259 H 0.34263 0.58871 0.12518 0.0
H260 H 0.37411 0.59457 0.05572 0.0
H261 H 0.33639 0.58271 0.03772 0.0
H262 H 0.38395 0.57243 0.12885 0.0
H263 H 0.38802 0.6306 0.08013 0.0
H264 H 0.43966 0.62457 0.13581 0.0
H265 H 0.43042 0.66614 0.13546 0.0
H266 H 0.42428 0.64603 0.06173 0.0
H267 H 0.43849 0.6854 0.05023 0.0
H268 H 0.38552 0.57995 0.17076 0.0
H269 H 0.45864 0.58818 0.14897 0.0
H270 H 0.4455 0.705 0.12401 0.0
H271 H 0.39845 0.56267 0.2079 0.0
H272 H 0.47165 0.57175 0.18671 0.0
C273 C 0.09242 0.32197 0.57533 0.0
C274 C 0.068 0.31732 0.57729 0.0
C275 C 0.10169 0.34407 0.58189 0.0
C276 C 0.08673 0.36222 0.59036 0.0
C277 C 0.0622 0.35767 0.59197 0.0
C278 C 0.05294 0.33539 0.5856 0.0
C279 C 0.09706 0.3853 0.59843 0.0
C280 C 0.11669 0.39515 0.58657 0.0
C281 C 0.12871 0.41514 0.5957 0.0
C282 C 0.12006 0.42605 0.61643 0.0
C283 C 0.09991 0.41702 0.62806 0.0
C284 C 0.08856 0.39662 0.61899 0.0
C285 C 0.09151 0.42801 0.65049 0.0
C286 C 0.1077 0.43389 0.66851 0.0
C287 C 0.06722 0.43211 0.65427 0.0
C288 C 0.05926 0.44177 0.67572 0.0
C289 C 0.07542 0.44735 0.69393 0.0
C290 C 0.15115 0.42355 0.58447 0.0
C291 C 0.1674 0.40703 0.5751 0.0
C292 C 0.157 0.4479 0.58378 0.0
C293 C 0.17874 0.45544 0.57437 0.0
C294 C 0.1949 0.43883 0.56516 0.0
C295 C 0.18891 0.4146 0.56541 0.0
C296 C 0.09975 0.44337 0.69 0.0
H297 H 0.10451 0.30824 0.56939 0.0
H298 H 0.12073 0.34666 0.58096 0.0
H299 H 0.05013 0.3713 0.59815 0.0
H300 H 0.034 0.33231 0.58712 0.0
H301 H 0.12282 0.38699 0.57025 0.0
H302 H 0.07384 0.38891 0.62869 0.0
H303 H 0.12927 0.4413 0.62388 0.0
H304 H 0.1265 0.43057 0.66623 0.0
H305 H 0.05437 0.42795 0.64058 0.0
H306 H 0.04045 0.44493 0.67799 0.0
H307 H 0.16386 0.38811 0.57582 0.0
H308 H 0.14481 0.46115 0.59051 0.0
H309 H 0.11267 0.447 0.70376 0.0
H310 H 0.20123 0.40139 0.55879 0.0
H311 H 0.18291 0.47426 0.57423 0.0
O312 O 0.99395 0.06315 0.53533 0.0
Zn313 Zn 0.98124 0.02977 0.53356 0.0
O314 O 0.00261 0.00896 0.51592 0.0
Zn315 Zn 0.98717 0.99849 0.48662 0.0
Zn316 Zn 0.03178 0.02646 0.50869 0.0
Zn317 Zn 0.01008 0.98121 0.53507 0.0
O318 O 0.98578 0.96272 0.4845 0.0
O319 O 0.99785 0.95099 0.51994 0.0
O320 O 0.94888 0.03064 0.51869 0.0
O321 O 0.95319 0.00956 0.48562 0.0
O322 O 0.0042 0.0114 0.4579 0.0
O323 O 0.03536 0.03008 0.47347 0.0
O324 O 0.06078 0.00959 0.52108 0.0
O325 O 0.97746 0.01871 0.56708 0.0
O326 O 0.04538 0.97768 0.53834 0.0
O327 O 0.99669 0.98439 0.5681 0.0
C328 C 0.01425 0.07221 0.53108 0.0
C329 C 0.9896 0.9463 0.49943 0.0
C330 C 0.02318 0.02359 0.45555 0.0
C331 C 0.9404 0.02191 0.49962 0.0
C332 C 0.06327 0.99016 0.53227 0.0
C333 C 0.98439 0.00045 0.57827 0.0
O334 O 0.03089 0.05984 0.52206 0.0
O335 O 0.50401 0.05752 0.99445 0.0
Zn336 Zn 0.4905 0.02444 0.99719 0.0
O337 O 0.51042 0.00463 0.01737 0.0
Zn338 Zn 0.52309 0.97804 0.99883 0.0
Zn339 Zn 0.53669 0.02375 0.03 0.0
Zn340 Zn 0.49131 0.99226 0.0435 0.0
O341 O 0.51329 0.94652 0.0127 0.0
O342 O 0.48948 0.95653 0.04244 0.0
O343 O 0.48749 0.0104 0.96435 0.0
O344 O 0.51067 0.97863 0.96548 0.0
O345 O 0.55883 0.97926 0.99728 0.0
O346 O 0.56814 0.01097 0.01901 0.0
O347 O 0.53694 0.02352 0.06571 0.0
O348 O 0.45767 0.02788 0.01087 0.0
O349 O 0.50565 0.00127 0.07489 0.0
O350 O 0.45811 0.00537 0.04298 0.0
C351 C 0.5213 0.0683 0.00438 0.0
C352 C 0.49951 0.94077 0.02966 0.0
C353 C 0.57425 0.99335 0.00616 0.0
C354 C 0.49665 0.99226 0.95434 0.0
C355 C 0.52359 0.01368 0.08105 0.0
C356 C 0.44735 0.01938 0.02905 0.0
O357 O 0.5349 0.05766 0.01882 0.0
O358 O 0.52816 0.49674 0.55487 0.0
Zn359 Zn 0.52468 0.51114 0.52255 0.0
O360 O 0.50433 0.49155 0.50225 0.0
Zn361 Zn 0.52327 0.4779 0.47642 0.0
Zn362 Zn 0.49012 0.4662 0.52121 0.0
Zn363 Zn 0.47915 0.51115 0.48904 0.0
O364 O 0.51033 0.48741 0.44445 0.0
O365 O 0.481 0.51207 0.45355 0.0
O366 O 0.55745 0.5144 0.50869 0.0
O367 O 0.55711 0.48976 0.47782 0.0
O368 O 0.52343 0.44205 0.47811 0.0
O369 O 0.49889 0.43417 0.50791 0.0
O370 O 0.45445 0.4683 0.52175 0.0
O371 O 0.511 0.5439 0.527 0.0
O372 O 0.44687 0.49829 0.4976 0.0
O373 O 0.48069 0.5446 0.50193 0.0
C374 C 0.51763 0.47974 0.56539 0.0
C375 C 0.49382 0.50146 0.43823 0.0
C376 C 0.51254 0.42723 0.49127 0.0
C377 C 0.56793 0.5045 0.49126 0.0
C378 C 0.43978 0.48164 0.51108 0.0
C379 C 0.49383 0.5548 0.51731 0.0
O380 O 0.50204 0.46708 0.55486 0.0
O381 O 0.98751 0.5176 0.05076 0.0
Zn382 Zn 0.99058 0.50405 0.01772 0.0
O383 O 0.01113 0.52393 0.998 0.0
Zn384 Zn 0.99247 0.53736 0.97213 0.0
Zn385 Zn 0.02462 0.54949 0.01743 0.0
Zn386 Zn 0.03696 0.50481 0.98488 0.0
O387 O 0.00516 0.52684 0.94027 0.0
O388 O 0.03504 0.50301 0.94937 0.0
O389 O 0.95772 0.5012 0.00389 0.0
O390 O 0.95845 0.52616 0.9736 0.0
O391 O 0.99266 0.5732 0.97362 0.0
O392 O 0.0149 0.58143 0.00508 0.0
O393 O 0.06033 0.54857 0.0176 0.0
O394 O 0.00408 0.47116 0.0209 0.0
O395 O 0.06894 0.51873 0.99319 0.0
O396 O 0.03604 0.4715 0.99785 0.0
C397 C 0.99807 0.53452 0.0616 0.0
C398 C 0.02185 0.51291 0.93406 0.0
C399 C 0.00227 0.58817 0.98772 0.0
C400 C 0.9474 0.51144 0.98672 0.0
C401 C 0.07544 0.53573 0.00675 0.0
C402 C 0.0221 0.46077 0.01204 0.0
O403 O 0.01319 0.54765 0.05111 0.0
H404 H 0.11607 0.12607 0.27758 0.0
H405 H 0.10112 0.10858 0.31421 0.0
H406 H 0.04866 0.06902 0.27451 0.0
H407 H 0.06408 0.08578 0.23763 0.0
H408 H 0.05584 0.1111 0.33361 0.0
H409 H 0.08069 0.0175 0.31387 0.0
H410 H 0.09222 0.04226 0.29716 0.0
H411 H 0.06265 0.03142 0.29178 0.0
C412 C 0.10154 0.11343 0.27659 0.0
C413 C 0.0914 0.10716 0.25465 0.0
C414 C 0.09291 0.10358 0.29755 0.0
C415 C 0.07404 0.08723 0.29702 0.0
C416 C 0.06354 0.08126 0.27525 0.0
H417 H 0.00237 0.01321 0.41274 0.0
H418 H 0.01377 0.02835 0.37374 0.0
C419 C 0.07219 0.09108 0.25423 0.0
C420 C 0.06523 0.07679 0.31939 0.0
H421 H 0.05914 0.02445 0.34921 0.0
C422 C 0.05654 0.09216 0.33702 0.0
C423 C 0.06611 0.05205 0.32373 0.0
C424 C 0.0761 0.03481 0.30575 0.0
C425 C 0.04875 0.08347 0.35892 0.0
C426 C 0.05 0.05881 0.3634 0.0
C427 C 0.05824 0.04335 0.34565 0.0
C428 C 0.04361 0.04891 0.38676 0.0
C429 C 0.03915 0.10072 0.3771 0.0
C430 C 0.05699 0.05505 0.40682 0.0
C431 C 0.05062 0.04642 0.42906 0.0
C432 C 0.03073 0.03141 0.43168 0.0
C433 C 0.01773 0.02479 0.41139 0.0
C434 C 0.02419 0.03341 0.38909 0.0
H435 H 0.03391 0.11784 0.36896 0.0
H436 H 0.02354 0.09307 0.38641 0.0
H437 H 0.05309 0.10454 0.39048 0.0
H438 H 0.07229 0.06668 0.40527 0.0
H439 H 0.06112 0.05181 0.44424 0.0
H440 H 0.40497 0.9523 0.7485 0.0
H441 H 0.42015 0.96878 0.78574 0.0
H442 H 0.47194 0.91268 0.78904 0.0
H443 H 0.45687 0.89611 0.75178 0.0
H444 H 0.42053 0.94587 0.82862 0.0
H445 H 0.51204 0.97172 0.80263 0.0
H446 H 0.48915 0.96512 0.78119 0.0
H447 H 0.50465 0.9414 0.79562 0.0
C448 C 0.41968 0.94354 0.75711 0.0
C449 C 0.42972 0.92289 0.74723 0.0
C450 C 0.42838 0.95303 0.77831 0.0
C451 C 0.44735 0.94213 0.78999 0.0
C452 C 0.45765 0.9217 0.78003 0.0
H453 H 0.51314 0.95545 0.92709 0.0
H454 H 0.50122 0.94465 0.88684 0.0
C455 C 0.449 0.91223 0.75876 0.0
C456 C 0.45522 0.95117 0.8134 0.0
H457 H 0.50347 0.97165 0.84402 0.0
C458 C 0.43861 0.95173 0.83195 0.0
C459 C 0.47883 0.95872 0.81767 0.0
C460 C 0.49716 0.95945 0.79818 0.0
C461 C 0.4451 0.95908 0.85482 0.0
C462 C 0.46875 0.9664 0.85915 0.0
C463 C 0.48534 0.96603 0.84059 0.0
C464 C 0.47671 0.97384 0.88303 0.0
C465 C 0.42677 0.9583 0.87434 0.0
C466 C 0.46718 0.99411 0.89401 0.0
C467 C 0.47392 0.00035 0.91705 0.0
C468 C 0.49037 0.98644 0.92948 0.0
C469 C 0.50034 0.9665 0.91811 0.0
C470 C 0.49361 0.96031 0.89508 0.0
H471 H 0.41106 0.94738 0.8693 0.0
H472 H 0.43449 0.95098 0.89082 0.0
H473 H 0.42061 0.97663 0.87822 0.0
H474 H 0.45439 0.00499 0.88482 0.0
H475 H 0.46599 0.01589 0.92519 0.0
H476 H 0.61129 0.40461 0.75758 0.0
H477 H 0.59793 0.41656 0.71823 0.0
H478 H 0.54069 0.45639 0.74996 0.0
H479 H 0.55446 0.44502 0.78941 0.0
H480 H 0.55751 0.40789 0.69589 0.0
H481 H 0.56843 0.50535 0.70652 0.0
H482 H 0.58015 0.48452 0.72758 0.0
H483 H 0.54928 0.49261 0.72848 0.0
C484 C 0.59589 0.41596 0.75612 0.0
C485 C 0.58396 0.42399 0.77649 0.0
C486 C 0.58829 0.42281 0.73366 0.0
C487 C 0.56853 0.43769 0.73113 0.0
C488 C 0.55637 0.44545 0.75147 0.0
H489 H 0.49332 0.4519 0.59686 0.0
H490 H 0.50474 0.44206 0.63737 0.0
C491 C 0.56417 0.43887 0.77398 0.0
C492 C 0.56038 0.44446 0.70714 0.0
H493 H 0.54802 0.492 0.67205 0.0
C494 C 0.5555 0.42629 0.69065 0.0
C495 C 0.55806 0.46847 0.70022 0.0
C496 C 0.56448 0.48886 0.71654 0.0
C497 C 0.54833 0.43143 0.66747 0.0
C498 C 0.5452 0.45543 0.6608 0.0
C499 C 0.55016 0.47361 0.67726 0.0
C500 C 0.53764 0.46211 0.6366 0.0
C501 C 0.54489 0.4111 0.6502 0.0
C502 C 0.55182 0.47745 0.62303 0.0
C503 C 0.54511 0.48349 0.60005 0.0
C504 C 0.52414 0.47417 0.59012 0.0
C505 C 0.50973 0.45915 0.60389 0.0
C506 C 0.51631 0.45338 0.627 0.0
H507 H 0.55452 0.39493 0.6559 0.0
H508 H 0.52573 0.40654 0.64919 0.0
H509 H 0.55111 0.41595 0.63219 0.0
H510 H 0.5683 0.4845 0.63011 0.0
H511 H 0.55662 0.4951 0.58993 0.0
H512 H 0.96511 0.56941 0.28731 0.0
H513 H 0.98039 0.55967 0.24785 0.0
H514 H 0.91886 0.59185 0.21625 0.0
H515 H 0.90407 0.60271 0.25542 0.0
H516 H 0.9615 0.53185 0.21324 0.0
H517 H 0.97215 0.62388 0.1806 0.0
H518 H 0.96696 0.61728 0.21141 0.0
H519 H 0.94257 0.61795 0.19085 0.0
C520 C 0.95501 0.57476 0.27196 0.0
C521 C 0.9334 0.58695 0.27457 0.0
C522 C 0.96368 0.56901 0.24943 0.0
C523 C 0.95096 0.57539 0.22911 0.0
C524 C 0.92924 0.58722 0.23166 0.0
H525 H 0.96134 0.51639 0.08779 0.0
H526 H 0.95132 0.52561 0.12893 0.0
C527 C 0.92063 0.5931 0.25412 0.0
C528 C 0.96005 0.5692 0.20522 0.0
H529 H 0.97353 0.59297 0.15139 0.0
C530 C 0.96434 0.54522 0.19976 0.0
C531 C 0.96414 0.5867 0.18778 0.0
C532 C 0.96146 0.61291 0.19301 0.0
C533 C 0.97192 0.53818 0.17709 0.0
C534 C 0.97472 0.55556 0.15928 0.0
C535 C 0.9711 0.57961 0.16496 0.0
C536 C 0.98123 0.54929 0.13457 0.0
C537 C 0.97711 0.51225 0.17256 0.0
C538 C 0.00103 0.56 0.12384 0.0
C539 C 0.00658 0.55508 0.10021 0.0
C540 C 0.99246 0.53928 0.08682 0.0
C541 C 0.97271 0.52847 0.09765 0.0
C542 C 0.96704 0.53359 0.12124 0.0
H543 H 0.98132 0.50282 0.18925 0.0
H544 H 0.9612 0.50361 0.16469 0.0
H545 H 0.9922 0.51003 0.16008 0.0
H546 H 0.01215 0.57226 0.13376 0.0
H547 H 0.02194 0.56369 0.09244 0.0
H548 H 0.24951 0.07565 0.12506 0.0
H549 H 0.28659 0.05928 0.10958 0.0
H550 H 0.28409 0.10807 0.05107 0.0
H551 H 0.24746 0.12517 0.06688 0.0
H552 H 0.29625 0.03792 0.0658 0.0
H553 H 0.35004 0.11999 0.07904 0.0
H554 H 0.3212 0.11594 0.09242 0.0
H555 H 0.32364 0.12397 0.06176 0.0
C556 C 0.25697 0.08308 0.10902 0.0
C557 C 0.24563 0.10187 0.09732 0.0
C558 C 0.27805 0.07357 0.10011 0.0
C559 C 0.28824 0.08271 0.07939 0.0
C560 C 0.27672 0.10106 0.06733 0.0
H561 H 0.41971 0.05106 0.00507 0.0
H562 H 0.38017 0.0652 0.01591 0.0
C563 C 0.25565 0.11062 0.07625 0.0
C564 C 0.31099 0.07303 0.0705 0.0
H565 H 0.36863 0.08803 0.05903 0.0
C566 C 0.31209 0.04884 0.06432 0.0
C567 C 0.3316 0.08736 0.06862 0.0
C568 C 0.33173 0.11321 0.076 0.0
C569 C 0.33327 0.03863 0.0561 0.0
C570 C 0.35389 0.05294 0.05434 0.0
C571 C 0.35273 0.07716 0.06032 0.0
C572 C 0.37707 0.04308 0.04696 0.0
C573 C 0.33336 0.01269 0.0491 0.0
C574 C 0.38838 0.02594 0.06084 0.0
C575 C 0.41099 0.01782 0.05473 0.0
C576 C 0.42276 0.02679 0.03466 0.0
C577 C 0.41118 0.04372 0.02061 0.0
C578 C 0.38859 0.05186 0.02677 0.0
H579 H 0.31513 0.00589 0.04565 0.0
H580 H 0.34438 0.00973 0.03303 0.0
H581 H 0.34104 0.00216 0.06373 0.0
H582 H 0.37996 0.01927 0.07674 0.0
H583 H 0.4194 0.00484 0.06601 0.0
H584 H 0.26929 0.94633 0.61988 0.0
H585 H 0.23125 0.9615 0.60583 0.0
H586 H 0.22465 0.90154 0.55825 0.0
H587 H 0.26279 0.88628 0.57215 0.0
H588 H 0.21239 0.94448 0.53744 0.0
H589 H 0.16702 0.93295 0.62395 0.0
H590 H 0.1935 0.95077 0.62552 0.0
H591 H 0.19549 0.91987 0.61744 0.0
C592 C 0.25968 0.93632 0.60649 0.0
C593 C 0.26891 0.915 0.59727 0.0
C594 C 0.23797 0.94501 0.5985 0.0
C595 C 0.22495 0.93241 0.58133 0.0
C596 C 0.2344 0.91147 0.57159 0.0
H597 H 0.07541 0.94774 0.55207 0.0
H598 H 0.11495 0.93396 0.56265 0.0
C599 C 0.2562 0.90282 0.57949 0.0
C600 C 0.20133 0.9409 0.57376 0.0
H601 H 0.1458 0.95359 0.59432 0.0
C602 C 0.19779 0.94645 0.54983 0.0
C603 C 0.18226 0.94312 0.58994 0.0
C604 C 0.18461 0.93616 0.6156 0.0
C605 C 0.1757 0.95446 0.54168 0.0
C606 C 0.15685 0.95735 0.55801 0.0
C607 C 0.16035 0.95156 0.58189 0.0
C608 C 0.13307 0.9657 0.5507 0.0
C609 C 0.17262 0.95923 0.51561 0.0
C610 C 0.13012 0.98821 0.54056 0.0
C611 C 0.10748 0.99614 0.53435 0.0
C612 C 0.08737 0.98179 0.53843 0.0
C613 C 0.09046 0.95929 0.54869 0.0
C614 C 0.11306 0.95136 0.55476 0.0
H615 H 0.18652 0.95032 0.5048 0.0
H616 H 0.15493 0.95311 0.50935 0.0
H617 H 0.17402 0.97864 0.5125 0.0
H618 H 0.14527 -0.00022 0.53775 0.0
H619 H 0.10573 0.01362 0.52662 0.0
H620 H 0.75673 0.41107 0.91818 0.0
H621 H 0.79516 0.42724 0.92998 0.0
H622 H 0.76109 0.49046 0.95676 0.0
H623 H 0.72228 0.47383 0.94614 0.0
H624 H 0.8176 0.46683 0.91551 0.0
H625 H 0.80183 0.47178 0.0125 0.0
H626 H 0.78222 0.45588 0.99266 0.0
H627 H 0.78055 0.48772 0.99519 0.0
C628 C 0.75728 0.42823 0.92699 0.0
C629 C 0.73632 0.441 0.93147 0.0
C630 C 0.77933 0.43755 0.93351 0.0
C631 C 0.78099 0.45989 0.94458 0.0
C632 C 0.76019 0.47295 0.9487 0.0
H633 H 0.91743 0.5342 0.95628 0.0
H634 H 0.8765 0.52347 0.94647 0.0
C635 C 0.73805 0.46355 0.94233 0.0
C636 C 0.80462 0.4695 0.95131 0.0
H637 H 0.83794 0.48818 0.99842 0.0
C638 C 0.82205 0.47154 0.93364 0.0
C639 C 0.81044 0.47538 0.97502 0.0
C640 C 0.79287 0.47239 0.99499 0.0
C641 C 0.8452 0.4791 0.93901 0.0
C642 C 0.85091 0.48542 0.96263 0.0
C643 C 0.83345 0.48353 0.9803 0.0
C644 C 0.87522 0.49293 0.96956 0.0
C645 C 0.8635 0.47943 0.91944 0.0
C646 C 0.88776 0.47991 0.98652 0.0
C647 C 0.91105 0.4862 0.99243 0.0
C648 C 0.92228 0.5056 0.98143 0.0
C649 C 0.90943 0.51898 0.96488 0.0
C650 C 0.88606 0.51281 0.95915 0.0
H651 H 0.85799 0.46823 0.90411 0.0
H652 H 0.86579 0.49792 0.91307 0.0
H653 H 0.88094 0.47304 0.92587 0.0
H654 H 0.8797 0.46457 0.99485 0.0
H655 H 0.92039 0.47553 0.00527 0.0
H656 H 0.77602 0.54268 0.40726 0.0
H657 H 0.73697 0.52909 0.42067 0.0
H658 H 0.73924 0.57984 0.47821 0.0
H659 H 0.77791 0.59413 0.46446 0.0
H660 H 0.72188 0.51041 0.46426 0.0
H661 H 0.67715 0.59574 0.44417 0.0
H662 H 0.70645 0.58871 0.43332 0.0
H663 H 0.70237 0.59843 0.46343 0.0
C664 C 0.76816 0.55104 0.4227 0.0
C665 C 0.77997 0.56967 0.43464 0.0
C666 C 0.74593 0.54314 0.43043 0.0
C667 C 0.73507 0.55374 0.45018 0.0
C668 C 0.74716 0.57172 0.46267 0.0
H669 H 0.59632 0.53622 0.51509 0.0
H670 H 0.63743 0.54703 0.50619 0.0
C671 C 0.76937 0.57967 0.45494 0.0
C672 C 0.71088 0.5463 0.45735 0.0
H673 H 0.6541 0.5664 0.46339 0.0
C674 C 0.70703 0.52261 0.46407 0.0
C675 C 0.69158 0.56229 0.457 0.0
C676 C 0.69445 0.58766 0.4489 0.0
C677 C 0.68438 0.51454 0.47075 0.0
C678 C 0.6651 0.53053 0.47034 0.0
C679 C 0.66898 0.55423 0.46375 0.0
C680 C 0.64061 0.523 0.47631 0.0
C681 C 0.68133 0.48909 0.47851 0.0
C682 C 0.62876 0.50599 0.46234 0.0
C683 C 0.60524 0.49977 0.46733 0.0
C684 C 0.59309 0.51055 0.48634 0.0
C685 C 0.60511 0.52753 0.50034 0.0
C686 C 0.62861 0.53375 0.4953 0.0
H687 H 0.69853 0.481 0.48357 0.0
H688 H 0.66892 0.48786 0.49375 0.0
H689 H 0.67378 0.47849 0.46366 0.0
H690 H 0.63758 0.49783 0.44731 0.0
H691 H 0.59653 0.4867 0.45613 0.0
H692 H 0.1168 0.26215 0.06596 0.0
H693 H 0.10127 0.29911 0.04971 0.0
H694 H 0.04428 0.29797 0.10077 0.0
H695 H 0.06021 0.26151 0.11777 0.0
H696 H 0.05722 0.30917 0.03004 0.0
H697 H 0.07351 0.36377 0.1108 0.0
H698 H 0.08621 0.33464 0.10665 0.0
H699 H 0.05575 0.33766 0.11568 0.0
C700 C 0.1011 0.26988 0.07391 0.0
C701 C 0.08989 0.25898 0.09333 0.0
C702 C 0.09214 0.29089 0.06446 0.0
C703 C 0.07185 0.30146 0.07427 0.0
C704 C 0.06022 0.29033 0.09322 0.0
H705 H 0.9983 0.4333 0.04423 0.0
H706 H 0.00895 0.39369 0.05807 0.0
C707 C 0.0692 0.26934 0.10273 0.0
C708 C 0.06303 0.32422 0.06474 0.0
H709 H 0.05273 0.38219 0.07959 0.0
C710 C 0.05624 0.32515 0.04085 0.0
C711 C 0.06181 0.34503 0.0789 0.0
C712 C 0.0699 0.34539 0.10437 0.0
C713 C 0.04806 0.34634 0.03077 0.0
C714 C 0.04693 0.36713 0.04492 0.0
C715 C 0.05353 0.36616 0.06884 0.0
C716 C 0.03958 0.39031 0.03519 0.0
C717 C 0.04043 0.34626 0.00518 0.0
C718 C 0.05329 0.40148 0.0177 0.0
C719 C 0.04731 0.42415 0.00976 0.0
C720 C 0.02754 0.4361 0.01925 0.0
C721 C 0.01362 0.42463 0.0365 0.0
C722 C 0.01967 0.40199 0.04446 0.0
H723 H 0.03668 0.32797 0.99859 0.0
H724 H 0.02434 0.35729 0.0027 0.0
H725 H 0.05489 0.35389 0.99418 0.0
H726 H 0.06899 0.39292 0.01063 0.0
H727 H 0.05846 0.43246 0.99651 0.0
H728 H 0.60996 0.25887 0.92441 0.0
H729 H 0.59528 0.22045 0.93803 0.0
H730 H 0.53522 0.25472 0.97083 0.0
H731 H 0.55029 0.29351 0.95801 0.0
H732 H 0.55618 0.22112 -0.00034 0.0
H733 H 0.53922 0.18384 0.91019 0.0
H734 H 0.56902 0.19469 0.91371 0.0
H735 H 0.54458 0.21511 0.91536 0.0
C736 C 0.59376 0.25833 0.93474 0.0
C737 C 0.5813 0.2793 0.94012 0.0
C738 C 0.58523 0.23629 0.94224 0.0
C739 C 0.56394 0.23471 0.95505 0.0
C740 C 0.55158 0.25557 0.96077 0.0
H741 H 0.49396 0.09802 0.97772 0.0
H742 H 0.50232 0.13932 0.96729 0.0
C743 C 0.56014 0.27768 0.9533 0.0
C744 C 0.5549 0.21123 0.96277 0.0
H745 H 0.53944 0.15617 0.9421 0.0
C746 C 0.5523 0.20696 0.98709 0.0
C747 C 0.54946 0.19293 0.94632 0.0
C748 C 0.55047 0.1969 0.91993 0.0
C749 C 0.54522 0.18456 0.99545 0.0
C750 C 0.54109 0.16588 0.97903 0.0
C751 C 0.54288 0.17042 0.95469 0.0
C752 C 0.5354 0.14133 0.98664 0.0
C753 C 0.54211 0.18118 0.02176 0.0
C754 C 0.55127 0.12871 0.00092 0.0
C755 C 0.54651 0.10513 0.00702 0.0
C756 C 0.52591 0.09359 0.99869 0.0
C757 C 0.51001 0.10633 0.98443 0.0
C758 C 0.51474 0.12995 0.97845 0.0
H759 H 0.53876 0.19835 0.03098 0.0
H760 H 0.52719 0.16881 0.02563 0.0
H761 H 0.55861 0.17355 0.02919 0.0
H762 H 0.56762 0.13694 0.00695 0.0
H763 H 0.55922 0.09583 0.0179 0.0
H764 H 0.95684 0.73763 0.41092 0.0
H765 H 0.96985 0.7768 0.42492 0.0
H766 H 0.91928 0.77333 0.48221 0.0
H767 H 0.9062 0.73408 0.46838 0.0
H768 H 0.9172 0.81533 0.45747 0.0
H769 H 0.0101 0.79514 0.4824 0.0
H770 H 0.0026 0.78616 0.45276 0.0
H771 H 0.98806 0.77223 0.47745 0.0
C772 C 0.94879 0.745 0.42675 0.0
C773 C 0.9305 0.73273 0.43856 0.0
C774 C 0.95626 0.76739 0.43474 0.0
C775 C 0.94574 0.77782 0.45478 0.0
C776 C 0.92766 0.76554 0.46674 0.0
H777 H 0.99359 0.90662 0.52704 0.0
H778 H 0.9828 0.8657 0.51663 0.0
C779 C 0.92014 0.74318 0.45875 0.0
C780 C 0.95264 0.80212 0.46247 0.0
H781 H -0.00024 0.83614 0.48039 0.0
C782 C 0.93522 0.81987 0.46262 0.0
C783 C 0.9761 0.80791 0.46942 0.0
C784 C 0.99526 0.78933 0.47075 0.0
C785 C 0.94072 0.84338 0.46904 0.0
C786 C 0.96437 0.84937 0.47509 0.0
C787 C 0.98169 0.83153 0.47548 0.0
C788 C 0.97142 0.87408 0.4811 0.0
C789 C 0.92109 0.86155 0.46956 0.0
C790 C 0.96898 0.89226 0.46441 0.0
C791 C 0.97506 0.91568 0.47029 0.0
C792 C 0.98387 0.92133 0.49296 0.0
C793 C 0.98679 0.90294 0.50946 0.0
C794 C 0.98066 0.87952 0.50355 0.0
H795 H 0.9033 0.853 0.47067 0.0
H796 H 0.9232 0.87396 0.4848 0.0
H797 H 0.92173 0.8721 0.45303 0.0
H798 H 0.96234 0.88834 0.44682 0.0
H799 H 0.97275 0.92933 0.45708 0.0
H800 H 0.40882 0.73629 0.62516 0.0
H801 H 0.42428 0.69876 0.6095 0.0
H802 H 0.45932 0.73667 0.55309 0.0
H803 H 0.4444 0.77432 0.5691 0.0
H804 H 0.41625 0.67783 0.56817 0.0
H805 H 0.51266 0.69598 0.57631 0.0
H806 H 0.49056 0.71465 0.59005 0.0
H807 H 0.49756 0.71791 0.55912 0.0
C808 C 0.41991 0.73659 0.60948 0.0
C809 C 0.4255 0.75818 0.59838 0.0
C810 C 0.42877 0.71517 0.60058 0.0
C811 C 0.44328 0.71491 0.58033 0.0
C812 C 0.44873 0.73647 0.5691 0.0
H813 H 0.46472 0.58671 0.49554 0.0
H814 H 0.45329 0.62613 0.50985 0.0
C815 C 0.44011 0.75795 0.57819 0.0
C816 C 0.45178 0.69195 0.57049 0.0
H817 H 0.50157 0.66167 0.55388 0.0
C818 C 0.43492 0.67427 0.56513 0.0
C819 C 0.47617 0.68721 0.5668 0.0
C820 C 0.4953 0.70484 0.57359 0.0
C821 C 0.44171 0.65203 0.5561 0.0
C822 C 0.46601 0.64761 0.55155 0.0
C823 C 0.48292 0.66521 0.55707 0.0
C824 C 0.4743 0.62452 0.54186 0.0
C825 C 0.42279 0.63331 0.55215 0.0
C826 C 0.49083 0.61101 0.55449 0.0
C827 C 0.49775 0.58865 0.54614 0.0
C828 C 0.48815 0.57932 0.52504 0.0
C829 C 0.47221 0.59324 0.51201 0.0
C830 C 0.46553 0.61573 0.52024 0.0
H831 H 0.40657 0.63706 0.56273 0.0
H832 H 0.41767 0.6331 0.53319 0.0
H833 H 0.42933 0.61537 0.55686 0.0
H834 H 0.49794 0.61751 0.57115 0.0
H835 H 0.51008 0.57841 0.5566 0.0
H836 H 0.95832 0.9975 0.80777 0.0
H837 H 0.96577 0.00968 0.76675 0.0
H838 H 0.92611 0.94886 0.74146 0.0
H839 H 0.91803 0.93703 0.78215 0.0
H840 H 0.98948 0.98373 0.73213 0.0
H841 H 0.89767 0.0031 0.70359 0.0
H842 H 0.90584 0.00049 0.73437 0.0
H843 H 0.9003 0.97428 0.71673 0.0
C844 C 0.95087 0.98699 0.79344 0.0
C845 C 0.93766 0.96627 0.79817 0.0
C846 C 0.95523 0.99388 0.77006 0.0
C847 C 0.94622 0.98033 0.75111 0.0
C848 C 0.93285 0.95981 0.75582 0.0
H849 H 0.9946 0.9635 0.60789 0.0
H850 H 0.98584 0.96057 0.65016 0.0
C851 C 0.92851 0.95292 0.77909 0.0
C852 C 0.95183 0.98666 0.72632 0.0
H853 H 0.92621 0.99669 0.67262 0.0
C854 C 0.97568 0.98687 0.71915 0.0
C855 C 0.93382 0.99106 0.70952 0.0
C856 C 0.90799 0.99248 0.71647 0.0
C857 C 0.98196 0.99036 0.69537 0.0
C858 C 0.96384 0.99327 0.67832 0.0
C859 C 0.94005 0.9941 0.68567 0.0
C860 C 0.96914 0.99507 0.6527 0.0
C861 C 0.00791 0.99087 0.68873 0.0
C862 C 0.96198 0.0151 0.63998 0.0
C863 C 0.96672 0.01674 0.61576 0.0
C864 C 0.97867 0.9983 0.60378 0.0
C865 C 0.98551 0.97808 0.61656 0.0
C866 C 0.98068 0.97645 0.64077 0.0
H867 H 0.01927 0.99543 0.7042 0.0
H868 H 0.01322 0.97302 0.68222 0.0
H869 H 0.0114 0.00393 0.67446 0.0
H870 H 0.95288 0.02958 0.64884 0.0
H871 H 0.96118 0.03256 0.60649 0.0
H872 H 0.59771 0.02802 0.29793 0.0
H873 H 0.58988 0.01832 0.25627 0.0
H874 H 0.52401 0.05693 0.25992 0.0
H875 H 0.53176 0.06678 0.30146 0.0
H876 H 0.55222 0.9954 0.23281 0.0
H877 H 0.56039 0.08993 0.2064 0.0
H878 H 0.56957 0.07944 0.23508 0.0
H879 H 0.53871 0.08488 0.22917 0.0
C880 C 0.58138 0.03409 0.28994 0.0
C881 C 0.56546 0.04837 0.30283 0.0
C882 C 0.57699 0.02863 0.26615 0.0
C883 C 0.55664 0.03736 0.25493 0.0
C884 C 0.54011 0.05053 0.26812 0.0
H885 H 0.49726 0.99846 0.11884 0.0
H886 H 0.50629 0.00329 0.16087 0.0
C887 C 0.54453 0.05609 0.29183 0.0
C888 C 0.55306 0.03348 0.22924 0.0
H889 H 0.54616 0.06295 0.1771 0.0
C890 C 0.55097 0.01013 0.22057 0.0
C891 C 0.55192 0.05274 0.2133 0.0
C892 C 0.55549 0.07815 0.22137 0.0
C893 C 0.54715 0.00555 0.1964 0.0
C894 C 0.54495 0.02487 0.18064 0.0
C895 C 0.54762 0.04818 0.18925 0.0
C896 C 0.53977 0.02142 0.15514 0.0
C897 C 0.5458 0.98008 0.18793 0.0
C898 C 0.55528 0.03059 0.13797 0.0
C899 C 0.55004 0.02812 0.1139 0.0
C900 C 0.52913 0.01647 0.10656 0.0
C901 C 0.51359 0.00739 0.12385 0.0
C902 C 0.5188 0.00996 0.1479 0.0
H903 H 0.55451 0.96782 0.20055 0.0
H904 H 0.5269 0.97466 0.18639 0.0
H905 H 0.55428 0.97795 0.17028 0.0
H906 H 0.57148 0.03964 0.14322 0.0
H907 H 0.56241 0.03531 0.10108 0.0
H908 H 0.41741 0.57686 0.24371 0.0
H909 H 0.42968 0.56207 0.28231 0.0
H910 H 0.48463 0.52047 0.24899 0.0
H911 H 0.47229 0.53506 0.21008 0.0
H912 H 0.43161 0.51396 0.29724 0.0
H913 H 0.51999 0.5586 0.30112 0.0
H914 H 0.49725 0.56736 0.28048 0.0
H915 H 0.51399 0.54077 0.27524 0.0
C916 C 0.43199 0.56442 0.24452 0.0
C917 C 0.44383 0.55708 0.2238 0.0
C918 C 0.43905 0.55608 0.26661 0.0
C919 C 0.45818 0.54037 0.2685 0.0
C920 C 0.47007 0.53292 0.24792 0.0
H921 H 0.51847 0.48388 0.39996 0.0
H922 H 0.51048 0.49085 0.35792 0.0
C923 C 0.46301 0.54127 0.22573 0.0
C924 C 0.46521 0.53162 0.29213 0.0
H925 H 0.50897 0.53516 0.3338 0.0
C926 C 0.44858 0.51845 0.30519 0.0
C927 C 0.48743 0.53738 0.30234 0.0
C928 C 0.50571 0.55194 0.28922 0.0
C929 C 0.45339 0.51128 0.32842 0.0
C930 C 0.47523 0.51783 0.33897 0.0
C931 C 0.49223 0.53024 0.32563 0.0
C932 C 0.48006 0.51332 0.3643 0.0
C933 C 0.43498 0.49688 0.34153 0.0
C934 C 0.46581 0.52394 0.38174 0.0
C935 C 0.4703 0.52006 0.40569 0.0
C936 C 0.48926 0.50554 0.41273 0.0
C937 C 0.50368 0.49508 0.39518 0.0
C938 C 0.49917 0.49905 0.37116 0.0
H939 H 0.42269 0.4876 0.32913 0.0
H940 H 0.44345 0.48348 0.35309 0.0
H941 H 0.42427 0.50894 0.35287 0.0
H942 H 0.45126 0.53542 0.37682 0.0
H943 H 0.45889 0.5285 0.41868 0.0
H944 H 0.03556 0.43406 0.71853 0.0
H945 H 0.02276 0.4478 0.7576 0.0
H946 H 0.08401 0.49393 0.76188 0.0
H947 H 0.09627 0.48127 0.72232 0.0
H948 H 0.04556 0.44222 0.79835 0.0
H949 H 0.03246 0.53837 0.78341 0.0
H950 H 0.03572 0.51733 0.75936 0.0
H951 H 0.06148 0.52881 0.77452 0.0
C952 C 0.04601 0.44758 0.72749 0.0
C953 C 0.06695 0.45658 0.71721 0.0
C954 C 0.03875 0.45528 0.74992 0.0
C955 C 0.05224 0.47213 0.76256 0.0
C956 C 0.07302 0.48132 0.75228 0.0
H957 H 0.059 0.48904 0.91396 0.0
H958 H 0.06508 0.47956 0.87218 0.0
C959 C 0.0802 0.47377 0.72978 0.0
C960 C 0.04555 0.47876 0.78714 0.0
H961 H 0.03568 0.52614 0.82393 0.0
C962 C 0.04316 0.46056 0.80388 0.0
C963 C 0.04208 0.50266 0.7943 0.0
C964 C 0.04281 0.52288 0.77689 0.0
C965 C 0.03813 0.46564 0.8277 0.0
C966 C 0.03606 0.48961 0.83512 0.0
C967 C 0.03764 0.50779 0.81827 0.0
C968 C 0.03264 0.49615 0.86037 0.0
C969 C 0.03494 0.44521 0.84464 0.0
C970 C 0.01283 0.50944 0.86751 0.0
C971 C 0.00942 0.51517 0.89142 0.0
C972 C 0.0258 0.50771 0.9086 0.0
C973 C 0.04588 0.49484 0.90126 0.0
C974 C 0.04934 0.48927 0.87738 0.0
H975 H 0.02984 0.42858 0.83518 0.0
H976 H 0.05196 0.44193 0.85389 0.0
H977 H 0.02116 0.44924 0.85815 0.0
H978 H -0.00018 0.51506 0.85463 0.0
H979 H 0.99379 0.52515 0.89644 0.0
H980 H 0.80303 0.98232 0.97903 0.0
H981 H 0.76199 0.99141 0.99035 0.0
H982 H 0.737 0.93293 0.94721 0.0
H983 H 0.77774 0.92389 0.93563 0.0
H984 H 0.72274 0.00221 0.96043 0.0
H985 H 0.70691 0.92035 0.01255 0.0
H986 H 0.7363 0.93042 0.00449 0.0
H987 H 0.71811 0.91495 0.98322 0.0
C988 C 0.78877 0.97148 0.97188 0.0
C989 C 0.79366 0.95222 0.95663 0.0
C990 C 0.76538 0.97663 0.97843 0.0
C991 C 0.74657 0.96255 0.96995 0.0
C992 C 0.75134 0.94363 0.9544 0.0
H993 H 0.59418 0.95823 0.97893 0.0
H994 H 0.63629 0.95192 0.97071 0.0
C995 C 0.77465 0.93848 0.94784 0.0
C996 C 0.7218 0.96781 0.97688 0.0
H997 H 0.67295 0.9435 0.00329 0.0
C998 C 0.71187 0.98951 0.97 0.0
C999 C 0.70775 0.95115 0.98934 0.0
C1000 C 0.71783 0.92799 0.99804 0.0
C1001 C 0.68794 0.99469 0.97458 0.0
C1002 C 0.67378 0.97783 0.98669 0.0
C1003 C 0.68385 0.95631 0.99392 0.0
C1004 C 0.64833 0.98196 0.99167 0.0
C1005 C 0.67781 0.01777 0.96575 0.0
C1006 C 0.64121 0.00079 0.00641 0.0
C1007 C 0.61715 0.00449 0.01113 0.0
C1008 C 0.59977 0.98931 0.00131 0.0
C1009 C 0.60705 0.97029 0.98675 0.0
C1010 C 0.63111 0.96664 0.98204 0.0
H1011 H 0.68933 0.02605 0.95207 0.0
H1012 H 0.65983 0.01497 0.95816 0.0
H1013 H 0.67624 0.03046 0.98079 0.0
H1014 H 0.65428 0.01253 0.01439 0.0
H1015 H 0.61221 0.01923 0.02253 0.0
H1016 H 0.72332 0.03313 0.42635 0.0
H1017 H 0.76453 0.02328 0.43579 0.0
H1018 H 0.76342 0.07351 0.49381 0.0
H1019 H 0.72211 0.08315 0.48477 0.0
H1020 H 0.80287 0.05683 0.43652 0.0
H1021 H 0.7909 0.01229 0.52325 0.0
H1022 H 0.76684 0.01617 0.50254 0.0
H1023 H 0.77659 0.04064 0.52074 0.0
C1024 C 0.73172 0.04175 0.44139 0.0
C1025 C 0.71948 0.05889 0.45485 0.0
C1026 C 0.75527 0.03621 0.44666 0.0
C1027 C 0.76688 0.0475 0.46562 0.0
C1028 C 0.75463 0.06435 0.47931 0.0
H1029 H 0.90847 0.04963 0.5236 0.0
H1030 H 0.86654 0.0555 0.51449 0.0
C1031 C 0.73113 0.06999 0.474 0.0
C1032 C 0.79223 0.0427 0.47026 0.0
H1033 H 0.83043 0.02195 0.51205 0.0
C1034 C 0.80894 0.04903 0.45294 0.0
C1035 C 0.79998 0.03265 0.49175 0.0
C1036 C 0.78267 0.02483 0.5106 0.0
C1037 C 0.83335 0.04612 0.45679 0.0
C1038 C 0.84114 0.03615 0.47833 0.0
C1039 C 0.82438 0.02962 0.49557 0.0
C1040 C 0.86664 0.03265 0.48351 0.0
C1041 C 0.85058 0.05442 0.43805 0.0
C1042 C 0.88054 0.01772 0.46919 0.0
C1043 C 0.90457 0.01442 0.47425 0.0
C1044 C 0.91507 0.02581 0.49389 0.0
C1045 C 0.901 0.04061 0.50831 0.0
C1046 C 0.87701 0.04397 0.50317 0.0
H1047 H 0.84221 0.06712 0.42563 0.0
H1048 H 0.86635 0.06311 0.44618 0.0
H1049 H 0.85673 0.03886 0.42759 0.0
H1050 H 0.87275 0.00842 0.45422 0.0
H1051 H 0.91482 0.00273 0.4629 0.0
H1052 H 0.28442 0.54717 0.08719 0.0
H1053 H 0.2448 0.53961 0.07162 0.0
H1054 H 0.25826 0.58829 0.01438 0.0
H1055 H 0.29744 0.5972 0.03076 0.0
H1056 H 0.21664 0.59676 0.03324 0.0
H1057 H 0.22281 0.50011 0.017 0.0
H1058 H 0.2301 0.50714 0.04712 0.0
H1059 H 0.24856 0.51819 0.02348 0.0
C1060 C 0.27899 0.55637 0.07134 0.0
C1061 C 0.29417 0.5729 0.06032 0.0
C1062 C 0.25642 0.5517 0.0622 0.0
C1063 C 0.24868 0.56301 0.04155 0.0
C1064 C 0.26392 0.57918 0.03023 0.0
H1065 H 0.11249 0.52 0.97952 0.0
H1066 H 0.15483 0.5279 0.98537 0.0
C1067 C 0.28642 0.5841 0.03952 0.0
C1068 C 0.2241 0.55921 0.03282 0.0
H1069 H 0.18323 0.51601 0.02011 0.0
C1070 C 0.20944 0.57911 0.03004 0.0
C1071 C 0.21476 0.53624 0.02818 0.0
C1072 C 0.22999 0.51426 0.02884 0.0
C1073 C 0.18547 0.57661 0.02375 0.0
C1074 C 0.17569 0.55354 0.02093 0.0
C1075 C 0.1906 0.5337 0.02267 0.0
C1076 C 0.14995 0.54952 0.01685 0.0
C1077 C 0.17097 0.59878 0.02009 0.0
C1078 C 0.13312 0.55886 0.03271 0.0
C1079 C 0.10892 0.55464 0.02923 0.0
C1080 C 0.10107 0.54055 0.01011 0.0
C1081 C 0.11796 0.53092 0.99444 0.0
C1082 C 0.14217 0.53542 0.99775 0.0
H1083 H 0.18239 0.61401 0.01477 0.0
H1084 H 0.15715 0.59601 0.00633 0.0
H1085 H 0.16211 0.6037 0.03697 0.0
H1086 H 0.1387 0.56914 0.04801 0.0
H1087 H 0.0964 0.56208 0.0418 0.0
H1088 H 0.2267 0.4684 0.58683 0.0
H1089 H 0.26723 0.47758 0.57414 0.0
H1090 H 0.2567 0.43561 0.51072 0.0
H1091 H 0.21635 0.42585 0.52374 0.0
H1092 H 0.29661 0.4239 0.53146 0.0
H1093 H 0.29367 0.52191 0.52557 0.0
H1094 H 0.28434 0.51179 0.55416 0.0
H1095 H 0.26717 0.50398 0.52834 0.0
C1096 C 0.23291 0.46154 0.56997 0.0
C1097 C 0.21844 0.44646 0.55623 0.0
C1098 C 0.25604 0.46686 0.56267 0.0
C1099 C 0.26491 0.4576 0.54128 0.0
C1100 C 0.25022 0.44302 0.52725 0.0
H1101 H 0.4033 0.50023 0.48529 0.0
H1102 H 0.36073 0.49373 0.49097 0.0
C1103 C 0.22721 0.43744 0.53469 0.0
C1104 C 0.29008 0.46153 0.53448 0.0
H1105 H 0.33247 0.50447 0.52741 0.0
C1106 C 0.30438 0.44154 0.53031 0.0
C1107 C 0.30016 0.48453 0.53263 0.0
C1108 C 0.28546 0.50676 0.53516 0.0
C1109 C 0.3286 0.44389 0.52504 0.0
C1110 C 0.339 0.46684 0.52466 0.0
C1111 C 0.32457 0.48687 0.52807 0.0
C1112 C 0.36484 0.47044 0.52103 0.0
C1113 C 0.34271 0.42174 0.51969 0.0
C1114 C 0.38129 0.45973 0.5362 0.0
C1115 C 0.40563 0.46317 0.53284 0.0
C1116 C 0.41399 0.4778 0.5145 0.0
C1117 C 0.39746 0.48885 0.49958 0.0
C1118 C 0.37312 0.48517 0.5028 0.0
H1119 H 0.33108 0.40707 0.51322 0.0
H1120 H 0.35663 0.42516 0.50619 0.0
H1121 H 0.35144 0.41563 0.53615 0.0
H1122 H 0.37531 0.44884 0.55081 0.0
H1123 H 0.41786 0.45462 0.54482 0.0
H1124 H 0.97802 0.81835 0.9791 0.0
H1125 H 0.98956 0.77747 0.9886 0.0
H1126 H 0.94757 0.75124 0.93015 0.0
H1127 H 0.93574 0.79173 0.92075 0.0
H1128 H 0.95942 0.73722 0.99892 0.0
H1129 H 0.01417 0.72282 0.9184 0.0
H1130 H 0.00565 0.75205 0.92863 0.0
H1131 H 0.98491 0.7338 0.91246 0.0
C1132 C 0.97116 0.80384 0.96837 0.0
C1133 C 0.95622 0.8083 0.94897 0.0
C1134 C 0.97784 0.78056 0.97376 0.0
C1135 C 0.96978 0.76147 0.95977 0.0
C1136 C 0.95444 0.76582 0.94079 0.0
H1137 H 0.97637 0.6095 0.95286 0.0
H1138 H 0.96955 0.65199 0.94746 0.0
C1139 C 0.94775 0.78898 0.93543 0.0
C1140 C 0.97694 0.73682 0.96503 0.0
H1141 H 0.00382 0.6883 0.9405 0.0
C1142 C 0.96938 0.72656 0.98634 0.0
C1143 C 0.98992 0.72305 0.94851 0.0
C1144 C 0.99934 0.73351 0.9258 0.0
C1145 C 0.97365 0.70249 0.99113 0.0
C1146 C 0.98611 0.68857 0.97431 0.0
C1147 C 0.99417 0.69903 0.95329 0.0
C1148 C 0.99038 0.66291 0.97783 0.0
C1149 C 0.96403 0.69194 0.01372 0.0
C1150 C 0.0046 0.65506 0.99653 0.0
C1151 C 0.00855 0.63078 -0.0003 0.0
C1152 C 0.99842 0.61393 0.98412 0.0
C1153 C 0.98441 0.62195 0.96522 0.0
C1154 C 0.98049 0.64623 0.96208 0.0
H1155 H 0.95051 0.70356 0.02216 0.0
H1156 H 0.95594 0.67421 0.01028 0.0
H1157 H 0.9788 0.68961 0.02645 0.0
H1158 H 0.01275 0.66771 0.00861 0.0
H1159 H 0.01953 0.62526 0.01437 0.0
H1160 H 0.42921 0.74042 0.10628 0.0
H1161 H 0.44121 0.78059 0.09512 0.0
H1162 H 0.48525 0.75196 0.03941 0.0
H1163 H 0.47347 0.71155 0.05059 0.0
H1164 H 0.48754 0.79999 0.09358 0.0
H1165 H 0.44382 0.8013 0.00532 0.0
H1166 H 0.4367 0.77937 0.02746 0.0
H1167 H 0.46352 0.77683 0.01043 0.0
C1168 C 0.44161 0.74261 0.09177 0.0
C1169 C 0.45042 0.72277 0.07934 0.0
C1170 C 0.44834 0.76559 0.08535 0.0
C1171 C 0.46389 0.76923 0.06629 0.0
C1172 C 0.47287 0.74952 0.0539 0.0
H1173 H 0.51711 0.90192 0.00597 0.0
H1174 H 0.50999 0.85993 0.01474 0.0
C1175 C 0.46613 0.72647 0.06031 0.0
C1176 C 0.47089 0.79374 0.0598 0.0
H1177 H 0.46628 0.83519 0.01617 0.0
C1178 C 0.48295 0.80769 0.07664 0.0
C1179 C 0.46495 0.80364 0.03764 0.0
C1180 C 0.45137 0.78964 0.01918 0.0
C1181 C 0.48915 0.83138 0.07197 0.0
C1182 C 0.48273 0.84146 0.05004 0.0
C1183 C 0.47113 0.82737 0.03298 0.0
C1184 C 0.48715 0.86686 0.04481 0.0
C1185 C 0.50264 0.84537 0.0905 0.0
C1186 C 0.47638 0.88461 0.05861 0.0
C1187 C 0.48039 0.90859 0.05368 0.0
C1188 C 0.49516 0.9153 0.03473 0.0
C1189 C 0.5057 0.89741 0.02074 0.0
C1190 C 0.50165 0.87341 0.0257 0.0
H1191 H 0.51182 0.8335 0.10316 0.0
H1192 H 0.51601 0.85728 0.08222 0.0
H1193 H 0.49002 0.85653 0.10072 0.0
H1194 H 0.46473 0.87991 0.07314 0.0
H1195 H 0.47186 0.92185 0.06474 0.0
H1196 H 0.07811 0.28992 0.53851 0.0
H1197 H 0.06562 0.24883 0.53087 0.0
H1198 H 0.02462 0.24927 0.59541 0.0
H1199 H 0.03719 0.29038 0.60329 0.0
H1200 H 0.0581 0.21015 0.58932 0.0
H1201 H 0.99866 0.22211 0.51186 0.0
H1202 H 0.02695 0.23696 0.51011 0.0
H1203 H 0.00584 0.24603 0.5322 0.0
C1204 C 0.06628 0.28131 0.55097 0.0
C1205 C 0.05862 0.29331 0.5715 0.0
C1206 C 0.05904 0.25794 0.5465 0.0
C1207 C 0.04408 0.24616 0.56249 0.0
C1208 C 0.03606 0.25818 0.5828 0.0
H1209 H 0.98159 0.10536 0.54499 0.0
H1210 H 0.9884 0.14754 0.55344 0.0
C1211 C 0.04314 0.28165 0.5872 0.0
C1212 C 0.03811 0.2208 0.55874 0.0
H1213 H 0.00977 0.18249 0.52099 0.0
C1214 C 0.0474 0.20407 0.57449 0.0
C1215 C 0.02407 0.21305 0.53944 0.0
C1216 C 0.0131 0.23043 0.52249 0.0
C1217 C 0.04348 0.17964 0.57109 0.0
C1218 C 0.03005 0.17184 0.55139 0.0
C1219 C 0.02023 0.18859 0.53598 0.0
C1220 C 0.0261 0.1463 0.54642 0.0
C1221 C 0.05369 0.16231 0.58858 0.0
C1222 C 0.04508 0.13177 0.5395 0.0
C1223 C 0.04128 0.10768 0.53454 0.0
C1224 C 0.01841 0.0977 0.53648 0.0
C1225 C 0.99944 0.11241 0.54342 0.0
C1226 C 0.00326 0.13652 0.54821 0.0
H1227 H 0.05937 0.17128 0.60524 0.0
H1228 H 0.04051 0.14825 0.59293 0.0
H1229 H 0.06942 0.15356 0.58059 0.0
H1230 H 0.0628 0.13913 0.53777 0.0
H1231 H 0.05626 0.09689 0.52921 0.0
H1232 H 0.58656 0.21249 0.47902 0.0
H1233 H 0.57546 0.2536 0.4879 0.0
H1234 H 0.5098 0.24362 0.44975 0.0
H1235 H 0.52113 0.20266 0.44036 0.0
H1236 H 0.53212 0.28269 0.43571 0.0
H1237 H 0.52906 0.28253 0.53368 0.0
H1238 H 0.55691 0.27203 0.52241 0.0
H1239 H 0.53013 0.25547 0.51637 0.0
C1240 C 0.56954 0.21894 0.47299 0.0
C1241 C 0.55468 0.20444 0.45903 0.0
C1242 C 0.56317 0.24241 0.47812 0.0
C1243 C 0.54165 0.25162 0.46975 0.0
C1244 C 0.52647 0.23688 0.45642 0.0
H1245 H 0.48695 0.39059 0.51033 0.0
H1246 H 0.49302 0.34799 0.50443 0.0
C1247 C 0.53295 0.21353 0.45106 0.0
C1248 C 0.53582 0.27709 0.47324 0.0
H1249 H 0.53037 0.3207 0.51519 0.0
C1250 C 0.53152 0.29095 0.45312 0.0
C1251 C 0.53478 0.28781 0.49595 0.0
C1252 C 0.53772 0.27363 0.51834 0.0
C1253 C 0.52668 0.31532 0.45503 0.0
C1254 C 0.52681 0.32628 0.47765 0.0
C1255 C 0.53058 0.31233 0.49782 0.0
C1256 C 0.523 0.35217 0.48079 0.0
C1257 C 0.52114 0.32895 0.43279 0.0
C1258 C 0.53796 0.36869 0.4696 0.0
C1259 C 0.53439 0.39308 0.47272 0.0
C1260 C 0.51603 0.40141 0.48745 0.0
C1261 C 0.50126 0.3848 0.49887 0.0
C1262 C 0.50471 0.36043 0.49554 0.0
H1263 H 0.51467 0.31699 0.41843 0.0
H1264 H 0.50753 0.34279 0.43616 0.0
H1265 H 0.53755 0.33783 0.42638 0.0
H1266 H 0.55258 0.36273 0.45863 0.0
H1267 H 0.54624 0.40538 0.46388 0.0
loop_
_geom_bond_atom_site_label_1
_geom_bond_atom_site_label_2
_geom_bond_distance
_geom_bond_site_symmetry_2
_ccdc_geom_bond_type
C0 C1 1.386 . S
C0 C2 1.397 . S
C0 H24 0.931 . S
C1 C0 1.386 . S
C1 C5 1.397 . S
C2 C0 1.397 . S
C2 C3 1.384 . S
C2 H25 0.930 . S
C3 C2 1.384 . S
C3 C4 1.377 . S
C3 C6 1.481 . S
C4 C3 1.377 . S
C4 C5 1.389 . S
C4 H26 0.929 . S
C5 C1 1.397 . S
C5 C4 1.389 . S
C5 H27 0.931 . S
C6 C3 1.481 . S
C6 C7 1.387 . S
C6 C11 1.390 . S
C7 C6 1.387 . S
C7 C8 1.401 . S
C7 H28 0.930 . S
C8 C7 1.401 . S
C8 C9 1.376 . S
C8 C17 1.511 . S
C9 C8 1.376 . S
C9 C10 1.392 . S
C9 H30 0.931 . S
C10 C9 1.392 . S
C10 C11 1.361 . S
C10 C12 1.500 . S
C11 C6 1.390 . S
C11 C10 1.361 . S
C11 H29 0.931 . S
C12 C10 1.500 . S
C12 C13 1.371 . S
C12 C14 1.365 . S
C13 C12 1.371 . S
C13 C23 1.386 . S
C13 H31 0.931 . S
C14 C12 1.365 . S
C14 C15 1.409 . S
C14 H32 0.929 . S
C15 C14 1.409 . S
C15 C16 1.380 . S
C15 H33 0.930 . S
C16 C15 1.380 . S
C16 C23 1.357 . S
C17 C8 1.511 . S
C17 C18 1.341 . S
C17 C19 1.371 . S
C18 C17 1.341 . S
C18 C22 1.394 . S
C18 H34 0.930 . S
C19 C17 1.371 . S
C19 C20 1.392 . S
C19 H35 0.931 . S
C20 C19 1.392 . S
C20 C21 1.331 . S
C20 H38 0.932 . S
C21 C20 1.331 . S
C21 C22 1.336 . S
C22 C18 1.394 . S
C22 C21 1.336 . S
C22 H37 0.929 . S
C23 C13 1.386 . S
C23 C16 1.357 . S
C23 H36 0.928 . S
H24 C0 0.931 . S
H25 C2 0.930 . S
H26 C4 0.929 . S
H27 C5 0.931 . S
H28 C7 0.930 . S
H29 C11 0.931 . S
H30 C9 0.931 . S
H31 C13 0.931 . S
H32 C14 0.929 . S
H33 C15 0.930 . S
H34 C18 0.930 . S
H35 C19 0.931 . S
H36 C23 0.928 . S
H37 C22 0.929 . S
H38 C20 0.932 . S
C39 C40 1.386 . S
C39 C41 1.397 . S
C39 H63 0.931 . S
C40 C39 1.386 . S
C40 C44 1.397 . S
C41 C39 1.397 . S
C41 C42 1.384 . S
C41 H64 0.930 . S
C42 C41 1.384 . S
C42 C43 1.377 . S
C42 C45 1.481 . S
C43 C42 1.377 . S
C43 C44 1.389 . S
C43 H65 0.929 . S
C44 C40 1.397 . S
C44 C43 1.389 . S
C44 H66 0.931 . S
C45 C42 1.481 . S
C45 C46 1.387 . S
C45 C50 1.390 . S
C46 C45 1.387 . S
C46 C47 1.401 . S
C46 H67 0.930 . S
C47 C46 1.401 . S
C47 C48 1.376 . S
C47 C56 1.511 . S
C48 C47 1.376 . S
C48 C49 1.392 . S
C48 H69 0.931 . S
C49 C48 1.392 . S
C49 C50 1.361 . S
C49 C51 1.500 . S
C50 C45 1.390 . S
C50 C49 1.361 . S
C50 H68 0.931 . S
C51 C49 1.500 . S
C51 C52 1.371 . S
C51 C53 1.365 . S
C52 C51 1.371 . S
C52 C62 1.386 . S
C52 H70 0.931 . S
C53 C51 1.365 . S
C53 C54 1.409 . S
C53 H71 0.929 . S
C54 C53 1.409 . S
C54 C55 1.380 . S
C54 H72 0.930 . S
C55 C54 1.380 . S
C55 C62 1.357 . S
C56 C47 1.511 . S
C56 C57 1.341 . S
C56 C58 1.371 . S
C57 C56 1.341 . S
C57 C61 1.394 . S
C57 H73 0.930 . S
C58 C56 1.371 . S
C58 C59 1.392 . S
C58 H74 0.931 . S
C59 C58 1.392 . S
C59 C60 1.331 . S
C59 H77 0.932 . S
C60 C59 1.331 . S
C60 C61 1.336 . S
C61 C57 1.394 . S
C61 C60 1.336 . S
C61 H76 0.929 . S
C62 C52 1.386 . S
C62 C55 1.357 . S
C62 H75 0.928 . S
H63 C39 0.931 . S
H64 C41 0.930 . S
H65 C43 0.929 . S
H66 C44 0.931 . S
H67 C46 0.930 . S
H68 C50 0.931 . S
H69 C48 0.931 . S
H70 C52 0.931 . S
H71 C53 0.929 . S
H72 C54 0.930 . S
H73 C57 0.930 . S
H74 C58 0.931 . S
H75 C62 0.928 . S
H76 C61 0.929 . S
H77 C59 0.932 . S
C78 C79 1.386 . S
C78 C80 1.397 . S
C78 H102 0.931 . S
C79 C78 1.386 . S
C79 C83 1.397 . S
C80 C78 1.397 . S
C80 C81 1.384 . S
C80 H103 0.930 . S
C81 C80 1.384 . S
C81 C82 1.377 . S
C81 C84 1.481 . S
C82 C81 1.377 . S
C82 C83 1.389 . S
C82 H104 0.929 . S
C83 C79 1.397 . S
C83 C82 1.389 . S
C83 H105 0.931 . S
C84 C81 1.481 . S
C84 C85 1.387 . S
C84 C89 1.390 . S
C85 C84 1.387 . S
C85 C86 1.401 . S
C85 H106 0.930 . S
C86 C85 1.401 . S
C86 C87 1.376 . S
C86 C95 1.511 . S
C87 C86 1.376 . S
C87 C88 1.392 . S
C87 H108 0.931 . S
C88 C87 1.392 . S
C88 C89 1.361 . S
C88 C90 1.500 . S
C89 C84 1.390 . S
C89 C88 1.361 . S
C89 H107 0.931 . S
C90 C88 1.500 . S
C90 C91 1.371 . S
C90 C92 1.365 . S
C91 C90 1.371 . S
C91 C101 1.386 . S
C91 H109 0.931 . S
C92 C90 1.365 . S
C92 C93 1.409 . S
C92 H110 0.929 . S
C93 C92 1.409 . S
C93 C94 1.380 . S
C93 H111 0.930 . S
C94 C93 1.380 . S
C94 C101 1.357 . S
C95 C86 1.511 . S
C95 C96 1.341 . S
C95 C97 1.371 . S
C96 C95 1.341 . S
C96 C100 1.394 . S
C96 H112 0.930 . S
C97 C95 1.371 . S
C97 C98 1.392 . S
C97 H113 0.931 . S
C98 C97 1.392 . S
C98 C99 1.331 . S
C98 H116 0.932 . S
C99 C98 1.331 . S
C99 C100 1.336 . S
C100 C96 1.394 . S
C100 C99 1.336 . S
C100 H115 0.929 . S
C101 C91 1.386 . S
C101 C94 1.357 . S
C101 H114 0.928 . S
H102 C78 0.931 . S
H103 C80 0.930 . S
H104 C82 0.929 . S
H105 C83 0.931 . S
H106 C85 0.930 . S
H107 C89 0.931 . S
H108 C87 0.931 . S
H109 C91 0.931 . S
H110 C92 0.929 . S
H111 C93 0.930 . S
H112 C96 0.930 . S
H113 C97 0.931 . S
H114 C101 0.928 . S
H115 C100 0.929 . S
H116 C98 0.932 . S
C117 C118 1.386 . S
C117 C119 1.397 . S
C117 H141 0.931 . S
C118 C117 1.386 . S
C118 C122 1.397 . S
C119 C117 1.397 . S
C119 C120 1.384 . S
C119 H142 0.930 . S
C120 C119 1.384 . S
C120 C121 1.377 . S
C120 C123 1.481 . S
C121 C120 1.377 . S
C121 C122 1.389 . S
C121 H143 0.929 . S
C122 C118 1.397 . S
C122 C121 1.389 . S
C122 H144 0.931 . S
C123 C120 1.481 . S
C123 C124 1.387 . S
C123 C128 1.390 . S
C124 C123 1.387 . S
C124 C125 1.401 . S
C124 H145 0.930 . S
C125 C124 1.401 . S
C125 C126 1.376 . S
C125 C134 1.511 . S
C126 C125 1.376 . S
C126 C127 1.392 . S
C126 H147 0.931 . S
C127 C126 1.392 . S
C127 C128 1.361 . S
C127 C129 1.500 . S
C128 C123 1.390 . S
C128 C127 1.361 . S
C128 H146 0.931 . S
C129 C127 1.500 . S
C129 C130 1.371 . S
C129 C131 1.365 . S
C130 C129 1.371 . S
C130 C140 1.386 . S
C130 H148 0.931 . S
C131 C129 1.365 . S
C131 C132 1.409 . S
C131 H149 0.929 . S
C132 C131 1.409 . S
C132 C133 1.380 . S
C132 H150 0.930 . S
C133 C132 1.380 . S
C133 C140 1.357 . S
C134 C125 1.511 . S
C134 C135 1.341 . S
C134 C136 1.371 . S
C135 C134 1.341 . S
C135 C139 1.394 . S
C135 H151 0.930 . S
C136 C134 1.371 . S
C136 C137 1.392 . S
C136 H152 0.931 . S
C137 C136 1.392 . S
C137 C138 1.331 . S
C137 H155 0.932 . S
C138 C137 1.331 . S
C138 C139 1.336 . S
C139 C135 1.394 . S
C139 C138 1.336 . S
C139 H154 0.929 . S
C140 C130 1.386 . S
C140 C133 1.357 . S
C140 H153 0.928 . S
H141 C117 0.931 . S
H142 C119 0.930 . S
H143 C121 0.929 . S
H144 C122 0.931 . S
H145 C124 0.930 . S
H146 C128 0.931 . S
H147 C126 0.931 . S
H148 C130 0.931 . S
H149 C131 0.929 . S
H150 C132 0.930 . S
H151 C135 0.930 . S
H152 C136 0.931 . S
H153 C140 0.928 . S
H154 C139 0.929 . S
H155 C137 0.932 . S
C156 C157 1.386 . S
C156 C158 1.397 . S
C156 H180 0.931 . S
C157 C156 1.386 . S
C157 C161 1.397 . S
C158 C156 1.397 . S
C158 C159 1.384 . S
C158 H181 0.930 . S
C159 C158 1.384 . S
C159 C160 1.377 . S
C159 C162 1.481 . S
C160 C159 1.377 . S
C160 C161 1.389 . S
C160 H182 0.929 . S
C161 C157 1.397 . S
C161 C160 1.389 . S
C161 H183 0.953 . S
C162 C159 1.481 . S
C162 C163 1.387 . S
C162 C167 1.390 . S
C163 C162 1.387 . S
C163 C164 1.401 . S
C163 H184 0.930 . S
C164 C163 1.401 . S
C164 C165 1.376 . S
C164 C173 1.511 . S
C165 C164 1.376 . S
C165 C166 1.392 . S
C165 H186 0.931 . S
C166 C165 1.392 . S
C166 C167 1.361 . S
C166 C168 1.500 . S
C167 C162 1.390 . S
C167 C166 1.361 . S
C167 H185 0.931 . S
C168 C166 1.500 . S
C168 C169 1.371 . S
C168 C170 1.365 . S
C169 C168 1.371 . S
C169 C179 1.386 . S
C169 H187 0.931 . S
C170 C168 1.365 . S
C170 C171 1.409 . S
C170 H188 0.929 . S
C171 C170 1.409 . S
C171 C172 1.380 . S
C171 H189 0.955 . S
C172 C171 1.380 . S
C172 C179 1.357 . S
C173 C164 1.511 . S
C173 C174 1.341 . S
C173 C175 1.371 . S
C174 C173 1.341 . S
C174 C178 1.394 . S
C174 H190 0.930 . S
C175 C173 1.371 . S
C175 C176 1.392 . S
C175 H191 0.931 . S
C176 C175 1.392 . S
C176 C177 1.331 . S
C176 H194 0.932 . S
C177 C176 1.331 . S
C177 C178 1.336 . S
C178 C174 1.394 . S
C178 C177 1.336 . S
C178 H193 0.929 . S
C179 C169 1.386 . S
C179 C172 1.357 . S
C179 H192 0.928 . S
H180 C156 0.931 . S
H181 C158 0.930 . S
H182 C160 0.929 . S
H183 C161 0.953 . S
H184 C163 0.930 . S
H185 C167 0.931 . S
H186 C165 0.931 . S
H187 C169 0.931 . S
H188 C170 0.929 . S
H189 C171 0.955 . S
H190 C174 0.930 . S
H191 C175 0.931 . S
H192 C179 0.928 . S
H193 C178 0.929 . S
H194 C176 0.932 . S
C195 C196 1.386 . S
C195 C197 1.397 . S
C195 H219 0.931 . S
C196 C195 1.386 . S
C196 C200 1.397 . S
C197 C195 1.397 . S
C197 C198 1.384 . S
C197 H220 0.930 . S
C198 C197 1.384 . S
C198 C199 1.377 . S
C198 C201 1.481 . S
C199 C198 1.377 . S
C199 C200 1.389 . S
C199 H221 0.929 . S
C200 C196 1.397 . S
C200 C199 1.389 . S
C200 H222 0.931 . S
C201 C198 1.481 . S
C201 C202 1.387 . S
C201 C206 1.390 . S
C202 C201 1.387 . S
C202 C203 1.401 . S
C202 H223 0.930 . S
C203 C202 1.401 . S
C203 C204 1.376 . S
C203 C212 1.511 . S
C204 C203 1.376 . S
C204 C205 1.392 . S
C204 H225 0.931 . S
C205 C204 1.392 . S
C205 C206 1.361 . S
C205 C207 1.500 . S
C206 C201 1.390 . S
C206 C205 1.361 . S
C206 H224 0.931 . S
C207 C205 1.500 . S
C207 C208 1.371 . S
C207 C209 1.365 . S
C208 C207 1.371 . S
C208 C218 1.386 . S
C208 H226 0.931 . S
C209 C207 1.365 . S
C209 C210 1.409 . S
C209 H227 0.929 . S
C210 C209 1.409 . S
C210 C211 1.380 . S
C210 H228 0.930 . S
C211 C210 1.380 . S
C211 C218 1.357 . S
C212 C203 1.511 . S
C212 C213 1.341 . S
C212 C214 1.371 . S
C213 C212 1.341 . S
C213 C217 1.394 . S
C213 H229 0.930 . S
C214 C212 1.371 . S
C214 C215 1.392 . S
C214 H230 0.931 . S
C215 C214 1.392 . S
C215 C216 1.331 . S
C215 H233 0.932 . S
C216 C215 1.331 . S
C216 C217 1.336 . S
C217 C213 1.394 . S
C217 C216 1.336 . S
C217 H232 0.929 . S
C218 C208 1.386 . S
C218 C211 1.357 . S
C218 H231 0.928 . S
H219 C195 0.931 . S
H220 C197 0.930 . S
H221 C199 0.929 . S
H222 C200 0.931 . S
H223 C202 0.930 . S
H224 C206 0.931 . S
H225 C204 0.931 . S
H226 C208 0.931 . S
H227 C209 0.929 . S
H228 C210 0.930 . S
H229 C213 0.930 . S
H230 C214 0.931 . S
H231 C218 0.928 . S
H232 C217 0.929 . S
H233 C215 0.932 . S
C234 C235 1.386 . S
C234 C236 1.397 . S
C234 H258 0.931 . S
C235 C234 1.386 . S
C235 C239 1.397 . S
C236 C234 1.397 . S
C236 C237 1.384 . S
C236 H259 0.930 . S
C237 C236 1.384 . S
C237 C238 1.377 . S
C237 C240 1.481 . S
C238 C237 1.377 . S
C238 C239 1.389 . S
C238 H260 0.929 . S
C239 C235 1.397 . S
C239 C238 1.389 . S
C239 H261 0.931 . S
C240 C237 1.481 . S
C240 C241 1.387 . S
C240 C245 1.390 . S
C241 C240 1.387 . S
C241 C242 1.401 . S
C241 H262 0.930 . S
C242 C241 1.401 . S
C242 C243 1.376 . S
C242 C251 1.511 . S
C243 C242 1.376 . S
C243 C244 1.392 . S
C243 H264 0.931 . S
C244 C243 1.392 . S
C244 C245 1.361 . S
C244 C246 1.500 . S
C245 C240 1.390 . S
C245 C244 1.361 . S
C245 H263 0.931 . S
C246 C244 1.500 . S
C246 C247 1.371 . S
C246 C248 1.365 . S
C247 C246 1.371 . S
C247 C257 1.386 . S
C247 H265 0.931 . S
C248 C246 1.365 . S
C248 C249 1.409 . S
C248 H266 0.929 . S
C249 C248 1.409 . S
C249 C250 1.380 . S
C249 H267 0.930 . S
C250 C249 1.380 . S
C250 C257 1.357 . S
C251 C242 1.511 . S
C251 C252 1.341 . S
C251 C253 1.371 . S
C252 C251 1.341 . S
C252 C256 1.394 . S
C252 H268 0.930 . S
C253 C251 1.371 . S
C253 C254 1.392 . S
C253 H269 0.931 . S
C254 C253 1.392 . S
C254 C255 1.331 . S
C254 H272 0.932 . S
C255 C254 1.331 . S
C255 C256 1.336 . S
C256 C252 1.394 . S
C256 C255 1.336 . S
C256 H271 0.929 . S
C257 C247 1.386 . S
C257 C250 1.357 . S
C257 H270 0.928 . S
H258 C234 0.931 . S
H259 C236 0.930 . S
H260 C238 0.929 . S
H261 C239 0.931 . S
H262 C241 0.930 . S
H263 C245 0.931 . S
H264 C243 0.931 . S
H265 C247 0.931 . S
H266 C248 0.929 . S
H267 C249 0.930 . S
H268 C252 0.930 . S
H269 C253 0.931 . S
H270 C257 0.928 . S
H271 C256 0.929 . S
H272 C254 0.932 . S
C273 C274 1.386 . S
C273 C275 1.397 . S
C273 H297 0.931 . S
C274 C273 1.386 . S
C274 C278 1.397 . S
C275 C273 1.397 . S
C275 C276 1.384 . S
C275 H298 0.930 . S
C276 C275 1.384 . S
C276 C277 1.377 . S
C276 C279 1.481 . S
C277 C276 1.377 . S
C277 C278 1.389 . S
C277 H299 0.929 . S
C278 C274 1.397 . S
C278 C277 1.389 . S
C278 H300 0.931 . S
C279 C276 1.481 . S
C279 C280 1.387 . S
C279 C284 1.390 . S
C280 C279 1.387 . S
C280 C281 1.401 . S
C280 H301 0.930 . S
C281 C280 1.401 . S
C281 C282 1.376 . S
C281 C290 1.511 . S
C282 C281 1.376 . S
C282 C283 1.392 . S
C282 H303 0.931 . S
C283 C282 1.392 . S
C283 C284 1.361 . S
C283 C285 1.500 . S
C284 C279 1.390 . S
C284 C283 1.361 . S
C284 H302 0.931 . S
C285 C283 1.500 . S
C285 C286 1.371 . S
C285 C287 1.365 . S
C286 C285 1.371 . S
C286 C296 1.386 . S
C286 H304 0.931 . S
C287 C285 1.365 . S
C287 C288 1.409 . S
C287 H305 0.929 . S
C288 C287 1.409 . S
C288 C289 1.380 . S
C288 H306 0.930 . S
C289 C288 1.380 . S
C289 C296 1.357 . S
C290 C281 1.511 . S
C290 C291 1.341 . S
C290 C292 1.371 . S
C291 C290 1.341 . S
C291 C295 1.394 . S
C291 H307 0.930 . S
C292 C290 1.371 . S
C292 C293 1.392 . S
C292 H308 0.931 . S
C293 C292 1.392 . S
C293 C294 1.331 . S
C293 H311 0.932 . S
C294 C293 1.331 . S
C294 C295 1.336 . S
C295 C291 1.394 . S
C295 C294 1.336 . S
C295 H310 0.929 . S
C296 C286 1.386 . S
C296 C289 1.357 . S
C296 H309 0.928 . S
H297 C273 0.931 . S
H298 C275 0.930 . S
H299 C277 0.929 . S
H300 C278 0.931 . S
H301 C280 0.930 . S
H302 C284 0.931 . S
H303 C282 0.931 . S
H304 C286 0.931 . S
H305 C287 0.929 . S
H306 C288 0.930 . S
H307 C291 0.930 . S
H308 C292 0.931 . S
H309 C296 0.928 . S
H310 C295 0.929 . S
H311 C293 0.932 . S
O312 Zn313 1.953 . S
O312 C328 1.225 1_655 S
Zn313 O312 1.953 . S
Zn313 O314 1.949 1_655 S
Zn313 O320 1.919 . S
Zn313 O325 1.924 . S
O314 Zn313 1.949 1_455 S
O314 Zn315 1.923 1_445 S
O314 Zn316 1.950 . S
O314 Zn317 1.945 1_545 S
Zn315 O314 1.923 1_665 S
Zn315 O318 1.933 . S
Zn315 O321 1.941 1_565 S
Zn315 O322 1.965 1_665 S
Zn316 O314 1.950 . S
Zn316 O323 1.938 . S
Zn316 O324 1.906 . S
Zn316 O334 1.953 . S
Zn317 O314 1.945 1_565 S
Zn317 O319 1.932 1_455 S
Zn317 O326 1.977 . S
Zn317 O327 1.910 1_455 S
O318 Zn315 1.933 . S
O318 C329 1.226 . S
O319 Zn317 1.932 1_655 S
O319 C329 1.307 . S
O320 Zn313 1.919 . S
O320 C331 1.253 . S
O321 Zn315 1.941 1_545 S
O321 C331 1.283 . S
O322 Zn315 1.965 1_445 S
O322 C330 1.303 . S
O323 Zn316 1.938 . S
O323 C330 1.247 . S
O324 Zn316 1.906 . S
O324 C332 1.304 1_545 S
O325 Zn313 1.924 . S
O325 C333 1.311 . S
O326 Zn317 1.977 . S
O326 C332 1.272 . S
O327 Zn317 1.910 1_655 S
O327 C333 1.231 1_565 S
C328 O312 1.225 1_455 S
C328 O334 1.298 . S
C329 O318 1.226 . S
C329 O319 1.307 . S
C330 O322 1.303 . S
C330 O323 1.247 . S
C331 O320 1.253 . S
C331 O321 1.283 . S
C332 O324 1.304 1_565 S
C332 O326 1.272 . S
C333 O325 1.311 . S
C333 O327 1.231 1_545 S
O334 Zn316 1.953 . S
O334 C328 1.298 . S
O335 Zn336 1.953 . S
O335 C351 1.225 . S
Zn336 O335 1.953 . S
Zn336 O337 1.949 1_556 S
Zn336 O343 1.919 . S
Zn336 O348 1.924 1_556 S
O337 Zn336 1.949 1_554 S
O337 Zn338 1.923 1_545 S
O337 Zn339 1.950 . S
O337 Zn340 1.950 . S
Zn338 O337 1.923 1_565 S
Zn338 O341 1.933 . S
Zn338 O344 1.941 1_554 S
Zn338 O345 1.965 . S
Zn339 O337 1.950 . S
Zn339 O346 1.938 . S
Zn339 O347 1.906 . S
Zn339 O357 1.953 . S
Zn340 O337 1.950 . S
Zn340 O342 1.908 1_545 S
Zn340 O349 1.983 . S
Zn340 O350 1.924 . S
O341 Zn338 1.933 . S
O341 C352 1.226 . S
O342 Zn340 1.908 1_565 S
O342 C352 1.307 . S
O343 Zn336 1.919 . S
O343 C354 1.253 1_545 S
O344 Zn338 1.941 1_556 S
O344 C354 1.283 . S
O345 Zn338 1.965 . S
O345 C353 1.303 . S
O346 Zn339 1.938 . S
O346 C353 1.247 1_545 S
O347 Zn339 1.906 . S
O347 C355 1.304 . S
O348 Zn336 1.924 1_554 S
O348 C356 1.311 . S
O349 Zn340 1.983 . S
O349 C355 1.272 . S
O350 Zn340 1.924 . S
O350 C356 1.231 . S
C351 O335 1.225 . S
C351 O357 1.298 1_556 S
C352 O341 1.226 . S
C352 O342 1.307 . S
C353 O345 1.303 . S
C353 O346 1.247 1_565 S
C354 O343 1.253 1_565 S
C354 O344 1.283 . S
C355 O347 1.304 . S
C355 O349 1.272 . S
C356 O348 1.311 . S
C356 O350 1.231 . S
O357 Zn339 1.953 . S
O357 C351 1.298 1_554 S
O358 Zn359 1.953 . S
O358 C374 1.225 . S
Zn359 O358 1.953 . S
Zn359 O360 1.949 . S
Zn359 O366 1.919 . S
Zn359 O371 1.924 . S
O360 Zn359 1.949 . S
O360 Zn361 1.923 . S
O360 Zn362 1.950 . S
O360 Zn363 1.945 . S
Zn361 O360 1.923 . S
Zn361 O364 1.933 . S
Zn361 O367 1.941 . S
Zn361 O368 1.965 . S
Zn362 O360 1.950 . S
Zn362 O369 1.938 . S
Zn362 O370 1.906 . S
Zn362 O380 1.953 . S
Zn363 O360 1.945 . S
Zn363 O365 1.932 . S
Zn363 O372 1.977 . S
Zn363 O373 1.910 . S
O364 Zn361 1.933 . S
O364 C375 1.226 . S
O365 Zn363 1.932 . S
O365 C375 1.307 . S
O366 Zn359 1.919 . S
O366 C377 1.253 . S
O367 Zn361 1.941 . S
O367 C377 1.283 . S
O368 Zn361 1.965 . S
O368 C376 1.303 . S
O369 Zn362 1.938 . S
O369 C376 1.247 . S
O370 Zn362 1.906 . S
O370 C378 1.304 . S
O371 Zn359 1.924 . S
O371 C379 1.311 . S
O372 Zn363 1.977 . S
O372 C378 1.272 . S
O373 Zn363 1.910 . S
O373 C379 1.231 . S
C374 O358 1.225 . S
C374 O380 1.298 . S
C375 O364 1.226 . S
C375 O365 1.307 . S
C376 O368 1.303 . S
C376 O369 1.247 . S
C377 O366 1.253 . S
C377 O367 1.283 . S
C378 O370 1.304 . S
C378 O372 1.272 . S
C379 O371 1.311 . S
C379 O373 1.231 . S
O380 Zn362 1.953 . S
O380 C374 1.298 . S
O381 Zn382 1.953 . S
O381 C397 1.225 . S
Zn382 O381 1.953 . S
Zn382 O383 1.949 1_655 S
Zn382 O389 1.919 . S
Zn382 O394 1.924 . S
O383 Zn382 1.949 1_455 S
O383 Zn384 1.923 1_454 S
O383 Zn385 1.950 . S
O383 Zn386 1.945 1_554 S
Zn384 O383 1.923 1_656 S
Zn384 O387 1.933 1_655 S
Zn384 O390 1.941 . S
Zn384 O391 1.965 . S
Zn385 O383 1.950 . S
Zn385 O392 1.938 . S
Zn385 O393 1.906 . S
Zn385 O403 1.953 . S
Zn386 O383 1.945 1_556 S
Zn386 O388 1.932 . S
Zn386 O395 1.977 1_556 S
Zn386 O396 1.910 1_556 S
O387 Zn384 1.933 1_455 S
O387 C398 1.226 . S
O388 Zn386 1.932 . S
O388 C398 1.307 . S
O389 Zn382 1.919 . S
O389 C400 1.253 1_554 S
O390 Zn384 1.941 . S
O390 C400 1.283 . S
O391 Zn384 1.965 . S
O391 C399 1.303 . S
O392 Zn385 1.938 . S
O392 C399 1.247 1_454 S
O393 Zn385 1.906 . S
O393 C401 1.304 . S
O394 Zn382 1.924 . S
O394 C402 1.311 1_655 S
O395 Zn386 1.977 1_554 S
O395 C401 1.272 . S
O396 Zn386 1.910 1_554 S
O396 C402 1.231 . S
C397 O381 1.225 . S
C397 O403 1.298 1_655 S
C398 O387 1.226 . S
C398 O388 1.307 . S
C399 O391 1.303 . S
C399 O392 1.247 1_656 S
C400 O389 1.253 1_556 S
C400 O390 1.283 . S
C401 O393 1.304 . S
C401 O395 1.272 . S
C402 O394 1.311 1_455 S
C402 O396 1.231 . S
O403 Zn385 1.953 . S
O403 C397 1.298 1_455 S
H404 C412 0.929 . S
H405 C414 0.930 . S
H406 C416 0.930 . S
H407 C419 0.929 . S
H408 C422 0.930 . S
H409 C424 0.960 . S
H410 C424 0.960 . S
H411 C424 0.960 . S
C412 H404 0.929 . S
C412 C413 1.377 . S
C412 C414 1.384 . S
C413 C412 1.377 . S
C413 C419 1.390 . S
C414 H405 0.930 . S
C414 C412 1.384 . S
C414 C415 1.372 . S
C415 C414 1.372 . S
C415 C416 1.400 . S
C415 C420 1.490 . S
C416 H406 0.930 . S
C416 C415 1.400 . S
C416 C419 1.386 . S
H417 C433 0.930 . S
H418 C434 0.931 . S
C419 H407 0.929 . S
C419 C413 1.390 . S
C419 C416 1.386 . S
C420 C415 1.490 . S
C420 C422 1.395 . S
C420 C423 1.403 . S
H421 C427 0.930 . S
C422 H408 0.930 . S
C422 C420 1.395 . S
C422 C425 1.403 . S
C423 C420 1.403 . S
C423 C424 1.524 . S
C423 C427 1.400 . S
C424 H409 0.960 . S
C424 H410 0.960 . S
C424 H411 0.960 . S
C424 C423 1.524 . S
C425 C422 1.403 . S
C425 C426 1.392 . S
C425 C429 1.495 . S
C426 C425 1.392 . S
C426 C427 1.385 . S
C426 C428 1.478 . S
C427 H421 0.930 . S
C427 C423 1.400 . S
C427 C426 1.385 . S
C428 C426 1.478 . S
C428 C430 1.381 . S
C428 C434 1.383 . S
C429 C425 1.495 . S
C429 H435 0.959 . S
C429 H436 0.961 . S
C429 H437 0.960 . S
C430 C428 1.381 . S
C430 C431 1.394 . S
C430 H438 0.930 . S
C431 C430 1.394 . S
C431 C432 1.383 . S
C431 H439 0.929 . S
C432 C431 1.383 . S
C432 C433 1.377 . S
C433 H417 0.930 . S
C433 C432 1.377 . S
C433 C434 1.379 . S
C434 H418 0.931 . S
C434 C428 1.383 . S
C434 C433 1.379 . S
H435 C429 0.959 . S
H436 C429 0.961 . S
H437 C429 0.960 . S
H438 C430 0.930 . S
H439 C431 0.929 . S
H440 C448 0.929 . S
H441 C450 0.930 . S
H442 C452 0.930 . S
H443 C455 0.929 . S
H444 C458 0.930 . S
H445 C460 0.960 . S
H446 C460 0.960 . S
H447 C460 0.960 . S
C448 H440 0.929 . S
C448 C449 1.377 . S
C448 C450 1.384 . S
C449 C448 1.377 . S
C449 C455 1.390 . S
C450 H441 0.930 . S
C450 C448 1.384 . S
C450 C451 1.372 . S
C451 C450 1.372 . S
C451 C452 1.400 . S
C451 C456 1.490 . S
C452 H442 0.930 . S
C452 C451 1.400 . S
C452 C455 1.386 . S
H453 C469 0.930 . S
H454 C470 0.931 . S
C455 H443 0.929 . S
C455 C449 1.390 . S
C455 C452 1.386 . S
C456 C451 1.490 . S
C456 C458 1.395 . S
C456 C459 1.403 . S
H457 C463 0.930 . S
C458 H444 0.930 . S
C458 C456 1.395 . S
C458 C461 1.403 . S
C459 C456 1.403 . S
C459 C460 1.524 . S
C459 C463 1.400 . S
C460 H445 0.960 . S
C460 H446 0.960 . S
C460 H447 0.960 . S
C460 C459 1.524 . S
C461 C458 1.403 . S
C461 C462 1.392 . S
C461 C465 1.495 . S
C462 C461 1.392 . S
C462 C463 1.385 . S
C462 C464 1.478 . S
C463 H457 0.930 . S
C463 C459 1.400 . S
C463 C462 1.385 . S
C464 C462 1.478 . S
C464 C466 1.381 . S
C464 C470 1.383 . S
C465 C461 1.495 . S
C465 H471 0.959 . S
C465 H472 0.961 . S
C465 H473 0.960 . S
C466 C464 1.381 . S
C466 C467 1.394 . S
C466 H474 0.930 . S
C467 C466 1.394 . S
C467 C468 1.383 . S
C467 H475 0.929 1_565 S
C468 C467 1.383 . S
C468 C469 1.377 . S
C469 H453 0.930 . S
C469 C468 1.377 . S
C469 C470 1.379 . S
C470 H454 0.931 . S
C470 C464 1.383 . S
C470 C469 1.379 . S
H471 C465 0.959 . S
H472 C465 0.961 . S
H473 C465 0.960 . S
H474 C466 0.930 . S
H475 C467 0.929 1_545 S
H476 C484 0.929 . S
H477 C486 0.930 . S
H478 C488 0.930 . S
H479 C491 0.929 . S
H480 C494 0.930 . S
H481 C496 0.960 . S
H482 C496 0.960 . S
H483 C496 0.960 . S
C484 H476 0.929 . S
C484 C485 1.377 . S
C484 C486 1.384 . S
C485 C484 1.377 . S
C485 C491 1.390 . S
C486 H477 0.930 . S
C486 C484 1.384 . S
C486 C487 1.372 . S
C487 C486 1.372 . S
C487 C488 1.400 . S
C487 C492 1.490 . S
C488 H478 0.930 . S
C488 C487 1.400 . S
C488 C491 1.386 . S
H489 C505 0.930 . S
H490 C506 0.931 . S
C491 H479 0.929 . S
C491 C485 1.390 . S
C491 C488 1.386 . S
C492 C487 1.490 . S
C492 C494 1.395 . S
C492 C495 1.403 . S
H493 C499 0.930 . S
C494 H480 0.930 . S
C494 C492 1.395 . S
C494 C497 1.403 . S
C495 C492 1.403 . S
C495 C496 1.524 . S
C495 C499 1.400 . S
C496 H481 0.960 . S
C496 H482 0.960 . S
C496 H483 0.960 . S
C496 C495 1.524 . S
C497 C494 1.403 . S
C497 C498 1.392 . S
C497 C501 1.495 . S
C498 C497 1.392 . S
C498 C499 1.385 . S
C498 C500 1.478 . S
C499 H493 0.930 . S
C499 C495 1.400 . S
C499 C498 1.385 . S
C500 C498 1.478 . S
C500 C502 1.381 . S
C500 C506 1.383 . S
C501 C497 1.495 . S
C501 H507 0.959 . S
C501 H508 0.961 . S
C501 H509 0.960 . S
C502 C500 1.381 . S
C502 C503 1.394 . S
C502 H510 0.930 . S
C503 C502 1.394 . S
C503 C504 1.383 . S
C503 H511 0.929 . S
C504 C503 1.383 . S
C504 C505 1.377 . S
C505 H489 0.930 . S
C505 C504 1.377 . S
C505 C506 1.379 . S
C506 H490 0.931 . S
C506 C500 1.383 . S
C506 C505 1.379 . S
H507 C501 0.959 . S
H508 C501 0.961 . S
H509 C501 0.960 . S
H510 C502 0.930 . S
H511 C503 0.929 . S
H512 C520 0.929 . S
H513 C522 0.930 . S
H514 C524 0.930 . S
H515 C527 0.929 . S
H516 C530 0.930 . S
H517 C532 0.960 . S
H518 C532 0.960 . S
H519 C532 0.960 . S
C520 H512 0.929 . S
C520 C521 1.377 . S
C520 C522 1.384 . S
C521 C520 1.377 . S
C521 C527 1.390 . S
C522 H513 0.930 . S
C522 C520 1.384 . S
C522 C523 1.372 . S
C523 C522 1.372 . S
C523 C524 1.400 . S
C523 C528 1.490 . S
C524 H514 0.930 . S
C524 C523 1.400 . S
C524 C527 1.386 . S
H525 C541 0.930 . S
H526 C542 0.931 . S
C527 H515 0.929 . S
C527 C521 1.390 . S
C527 C524 1.386 . S
C528 C523 1.490 . S
C528 C530 1.395 . S
C528 C531 1.403 . S
H529 C535 0.930 . S
C530 H516 0.930 . S
C530 C528 1.395 . S
C530 C533 1.403 . S
C531 C528 1.403 . S
C531 C532 1.524 . S
C531 C535 1.400 . S
C532 H517 0.960 . S
C532 H518 0.960 . S
C532 H519 0.960 . S
C532 C531 1.524 . S
C533 C530 1.403 . S
C533 C534 1.392 . S
C533 C537 1.495 . S
C534 C533 1.392 . S
C534 C535 1.385 . S
C534 C536 1.478 . S
C535 H529 0.930 . S
C535 C531 1.400 . S
C535 C534 1.385 . S
C536 C534 1.478 . S
C536 C538 1.381 . S
C536 C542 1.383 . S
C537 C533 1.495 . S
C537 H543 0.959 . S
C537 H544 0.961 . S
C537 H545 0.960 . S
C538 C536 1.381 . S
C538 C539 1.397 . S
C538 H546 0.930 1_655 S
C539 C538 1.397 . S
C539 C540 1.393 . S
C539 H547 0.916 1_655 S
C540 C539 1.393 . S
C540 C541 1.377 . S
C541 H525 0.930 . S
C541 C540 1.377 . S
C541 C542 1.379 . S
C542 H526 0.931 . S
C542 C536 1.383 . S
C542 C541 1.379 . S
H543 C537 0.959 . S
H544 C537 0.961 . S
H545 C537 0.960 . S
H546 C538 0.930 1_455 S
H547 C539 0.916 1_455 S
H548 C556 0.929 . S
H549 C558 0.930 . S
H550 C560 0.930 . S
H551 C563 0.929 . S
H552 C566 0.930 . S
H553 C568 0.960 . S
H554 C568 0.960 . S
H555 C568 0.960 . S
C556 H548 0.929 . S
C556 C557 1.377 . S
C556 C558 1.384 . S
C557 C556 1.377 . S
C557 C563 1.390 . S
C558 H549 0.930 . S
C558 C556 1.384 . S
C558 C559 1.372 . S
C559 C558 1.372 . S
C559 C560 1.400 . S
C559 C564 1.490 . S
C560 H550 0.930 . S
C560 C559 1.400 . S
C560 C563 1.386 . S
H561 C577 0.930 . S
H562 C578 0.931 . S
C563 H551 0.929 . S
C563 C557 1.390 . S
C563 C560 1.386 . S
C564 C559 1.490 . S
C564 C566 1.395 . S
C564 C567 1.403 . S
H565 C571 0.930 . S
C566 H552 0.930 . S
C566 C564 1.395 . S
C566 C569 1.403 . S
C567 C564 1.403 . S
C567 C568 1.524 . S
C567 C571 1.400 . S
C568 H553 0.960 . S
C568 H554 0.960 . S
C568 H555 0.960 . S
C568 C567 1.524 . S
C569 C566 1.403 . S
C569 C570 1.392 . S
C569 C573 1.495 . S
C570 C569 1.392 . S
C570 C571 1.385 . S
C570 C572 1.478 . S
C571 H565 0.930 . S
C571 C567 1.400 . S
C571 C570 1.385 . S
C572 C570 1.478 . S
C572 C574 1.381 . S
C572 C578 1.383 . S
C573 C569 1.495 . S
C573 H579 0.959 . S
C573 H580 0.961 . S
C573 H581 0.960 . S
C574 C572 1.381 . S
C574 C575 1.394 . S
C574 H582 0.930 . S
C575 C574 1.394 . S
C575 C576 1.383 . S
C575 H583 0.929 . S
C576 C575 1.383 . S
C576 C577 1.377 . S
C577 H561 0.930 . S
C577 C576 1.377 . S
C577 C578 1.379 . S
C578 H562 0.931 . S
C578 C572 1.383 . S
C578 C577 1.379 . S
H579 C573 0.959 . S
H580 C573 0.961 . S
H581 C573 0.960 . S
H582 C574 0.930 . S
H583 C575 0.929 . S
H584 C592 0.929 . S
H585 C594 0.930 . S
H586 C596 0.930 . S
H587 C599 0.929 . S
H588 C602 0.930 . S
H589 C604 0.960 . S
H590 C604 0.960 . S
H591 C604 0.960 . S
C592 H584 0.929 . S
C592 C593 1.377 . S
C592 C594 1.384 . S
C593 C592 1.377 . S
C593 C599 1.390 . S
C594 H585 0.930 . S
C594 C592 1.384 . S
C594 C595 1.372 . S
C595 C594 1.372 . S
C595 C596 1.400 . S
C595 C600 1.490 . S
C596 H586 0.930 . S
C596 C595 1.400 . S
C596 C599 1.386 . S
H597 C613 0.930 . S
H598 C614 0.931 . S
C599 H587 0.929 . S
C599 C593 1.390 . S
C599 C596 1.386 . S
C600 C595 1.490 . S
C600 C602 1.395 . S
C600 C603 1.403 . S
H601 C607 0.930 . S
C602 H588 0.930 . S
C602 C600 1.395 . S
C602 C605 1.403 . S
C603 C600 1.403 . S
C603 C604 1.524 . S
C603 C607 1.400 . S
C604 H589 0.960 . S
C604 H590 0.960 . S
C604 H591 0.960 . S
C604 C603 1.524 . S
C605 C602 1.403 . S
C605 C606 1.392 . S
C605 C609 1.495 . S
C606 C605 1.392 . S
C606 C607 1.385 . S
C606 C608 1.478 . S
C607 H601 0.930 . S
C607 C603 1.400 . S
C607 C606 1.385 . S
C608 C606 1.478 . S
C608 C610 1.381 . S
C608 C614 1.383 . S
C609 C605 1.495 . S
C609 H615 0.959 . S
C609 H616 0.961 . S
C609 H617 0.960 . S
C610 C608 1.381 . S
C610 C611 1.394 . S
C610 H618 0.930 . S
C611 C610 1.394 . S
C611 C612 1.383 . S
C611 H619 0.929 1_565 S
C612 C611 1.383 . S
C612 C613 1.377 . S
C613 H597 0.930 . S
C613 C612 1.377 . S
C613 C614 1.379 . S
C614 H598 0.931 . S
C614 C608 1.383 . S
C614 C613 1.379 . S
H615 C609 0.959 . S
H616 C609 0.961 . S
H617 C609 0.960 . S
H618 C610 0.930 . S
H619 C611 0.929 1_545 S
H620 C628 0.929 . S
H621 C630 0.930 . S
H622 C632 0.930 . S
H623 C635 0.929 . S
H624 C638 0.930 . S
H625 C640 0.935 1_554 S
H626 C640 0.960 . S
H627 C640 0.960 . S
C628 H620 0.929 . S
C628 C629 1.377 . S
C628 C630 1.384 . S
C629 C628 1.377 . S
C629 C635 1.390 . S
C630 H621 0.930 . S
C630 C628 1.384 . S
C630 C631 1.372 . S
C631 C630 1.372 . S
C631 C632 1.400 . S
C631 C636 1.490 . S
C632 H622 0.930 . S
C632 C631 1.400 . S
C632 C635 1.386 . S
H633 C649 0.930 . S
H634 C650 0.931 . S
C635 H623 0.929 . S
C635 C629 1.390 . S
C635 C632 1.386 . S
C636 C631 1.490 . S
C636 C638 1.395 . S
C636 C639 1.403 . S
H637 C643 0.930 . S
C638 H624 0.930 . S
C638 C636 1.395 . S
C638 C641 1.403 . S
C639 C636 1.403 . S
C639 C640 1.524 . S
C639 C643 1.400 . S
C640 H625 0.935 1_556 S
C640 H626 0.960 . S
C640 H627 0.960 . S
C640 C639 1.524 . S
C641 C638 1.403 . S
C641 C642 1.392 . S
C641 C645 1.495 . S
C642 C641 1.392 . S
C642 C643 1.385 . S
C642 C644 1.478 . S
C643 H637 0.930 . S
C643 C639 1.400 . S
C643 C642 1.385 . S
C644 C642 1.478 . S
C644 C646 1.381 . S
C644 C650 1.383 . S
C645 C641 1.495 . S
C645 H651 0.959 . S
C645 H652 0.961 . S
C645 H653 0.960 . S
C646 C644 1.381 . S
C646 C647 1.394 . S
C646 H654 0.930 . S
C647 C646 1.394 . S
C647 C648 1.383 . S
C647 H655 0.929 . S
C648 C647 1.383 . S
C648 C649 1.377 . S
C649 H633 0.930 . S
C649 C648 1.377 . S
C649 C650 1.379 . S
C650 H634 0.931 . S
C650 C644 1.383 . S
C650 C649 1.379 . S
H651 C645 0.959 . S
H652 C645 0.961 . S
H653 C645 0.960 . S
H654 C646 0.930 . S
H655 C647 0.929 . S
H656 C664 0.929 . S
H657 C666 0.930 . S
H658 C668 0.930 . S
H659 C671 0.929 . S
H660 C674 0.930 . S
H661 C676 0.960 . S
H662 C676 0.960 . S
H663 C676 0.960 . S
C664 H656 0.929 . S
C664 C665 1.377 . S
C664 C666 1.384 . S
C665 C664 1.377 . S
C665 C671 1.390 . S
C666 H657 0.930 . S
C666 C664 1.384 . S
C666 C667 1.372 . S
C667 C666 1.372 . S
C667 C668 1.400 . S
C667 C672 1.490 . S
C668 H658 0.930 . S
C668 C667 1.400 . S
C668 C671 1.386 . S
H669 C685 0.930 . S
H670 C686 0.931 . S
C671 H659 0.929 . S
C671 C665 1.390 . S
C671 C668 1.386 . S
C672 C667 1.490 . S
C672 C674 1.395 . S
C672 C675 1.403 . S
H673 C679 0.930 . S
C674 H660 0.930 . S
C674 C672 1.395 . S
C674 C677 1.403 . S
C675 C672 1.403 . S
C675 C676 1.524 . S
C675 C679 1.400 . S
C676 H661 0.960 . S
C676 H662 0.960 . S
C676 H663 0.960 . S
C676 C675 1.524 . S
C677 C674 1.403 . S
C677 C678 1.392 . S
C677 C681 1.495 . S
C678 C677 1.392 . S
C678 C679 1.385 . S
C678 C680 1.478 . S
C679 H673 0.930 . S
C679 C675 1.400 . S
C679 C678 1.385 . S
C680 C678 1.478 . S
C680 C682 1.381 . S
C680 C686 1.383 . S
C681 C677 1.495 . S
C681 H687 0.959 . S
C681 H688 0.961 . S
C681 H689 0.960 . S
C682 C680 1.381 . S
C682 C683 1.394 . S
C682 H690 0.930 . S
C683 C682 1.394 . S
C683 C684 1.383 . S
C683 H691 0.929 . S
C684 C683 1.383 . S
C684 C685 1.377 . S
C685 H669 0.930 . S
C685 C684 1.377 . S
C685 C686 1.379 . S
C686 H670 0.931 . S
C686 C680 1.383 . S
C686 C685 1.379 . S
H687 C681 0.959 . S
H688 C681 0.961 . S
H689 C681 0.960 . S
H690 C682 0.930 . S
H691 C683 0.929 . S
H692 C700 0.929 . S
H693 C702 0.930 . S
H694 C704 0.930 . S
H695 C707 0.929 . S
H696 C710 0.930 . S
H697 C712 0.960 . S
H698 C712 0.960 . S
H699 C712 0.960 . S
C700 H692 0.929 . S
C700 C701 1.377 . S
C700 C702 1.384 . S
C701 C700 1.377 . S
C701 C707 1.390 . S
C702 H693 0.930 . S
C702 C700 1.384 . S
C702 C703 1.372 . S
C703 C702 1.372 . S
C703 C704 1.400 . S
C703 C708 1.490 . S
C704 H694 0.930 . S
C704 C703 1.400 . S
C704 C707 1.386 . S
H705 C721 0.930 1_655 S
H706 C722 0.931 . S
C707 H695 0.929 . S
C707 C701 1.390 . S
C707 C704 1.386 . S
C708 C703 1.490 . S
C708 C710 1.395 . S
C708 C711 1.403 . S
H709 C715 0.930 . S
C710 H696 0.930 . S
C710 C708 1.395 . S
C710 C713 1.403 . S
C711 C708 1.403 . S
C711 C712 1.524 . S
C711 C715 1.400 . S
C712 H697 0.960 . S
C712 H698 0.960 . S
C712 H699 0.960 . S
C712 C711 1.524 . S
C713 C710 1.403 . S
C713 C714 1.392 . S
C713 C717 1.495 . S
C714 C713 1.392 . S
C714 C715 1.385 . S
C714 C716 1.478 . S
C715 H709 0.930 . S
C715 C711 1.400 . S
C715 C714 1.385 . S
C716 C714 1.478 . S
C716 C718 1.381 . S
C716 C722 1.383 . S
C717 C713 1.495 . S
C717 H723 0.959 . S
C717 H724 0.961 . S
C717 H725 0.960 . S
C718 C716 1.381 . S
C718 C719 1.394 . S
C718 H726 0.930 . S
C719 C718 1.394 . S
C719 C720 1.383 . S
C719 H727 0.929 . S
C720 C719 1.383 . S
C720 C721 1.377 . S
C721 H705 0.930 1_455 S
C721 C720 1.377 . S
C721 C722 1.379 . S
C722 H706 0.931 . S
C722 C716 1.383 . S
C722 C721 1.379 . S
H723 C717 0.959 . S
H724 C717 0.961 . S
H725 C717 0.960 . S
H726 C718 0.930 . S
H727 C719 0.929 . S
H728 C736 0.929 . S
H729 C738 0.930 . S
H730 C740 0.930 . S
H731 C743 0.929 . S
H732 C746 0.930 . S
H733 C748 0.960 . S
H734 C748 0.960 . S
H735 C748 0.960 . S
C736 H728 0.929 . S
C736 C737 1.377 . S
C736 C738 1.384 . S
C737 C736 1.377 . S
C737 C743 1.390 . S
C738 H729 0.930 . S
C738 C736 1.384 . S
C738 C739 1.372 . S
C739 C738 1.372 . S
C739 C740 1.400 . S
C739 C744 1.490 . S
C740 H730 0.930 . S
C740 C739 1.400 . S
C740 C743 1.386 . S
H741 C757 0.947 . S
H742 C758 0.931 . S
C743 H731 0.929 . S
C743 C737 1.390 . S
C743 C740 1.386 . S
C744 C739 1.490 . S
C744 C746 1.395 . S
C744 C747 1.403 . S
H745 C751 0.930 . S
C746 H732 0.930 . S
C746 C744 1.395 . S
C746 C749 1.403 . S
C747 C744 1.403 . S
C747 C748 1.524 . S
C747 C751 1.400 . S
C748 H733 0.960 . S
C748 H734 0.960 . S
C748 H735 0.960 . S
C748 C747 1.524 . S
C749 C746 1.403 . S
C749 C750 1.392 . S
C749 C753 1.495 1_556 S
C750 C749 1.392 . S
C750 C751 1.385 . S
C750 C752 1.478 . S
C751 H745 0.930 . S
C751 C747 1.400 . S
C751 C750 1.385 . S
C752 C750 1.478 . S
C752 C754 1.381 . S
C752 C758 1.383 . S
C753 C749 1.495 1_554 S
C753 H759 0.959 . S
C753 H760 0.961 . S
C753 H761 0.967 . S
C754 C752 1.381 . S
C754 C755 1.394 . S
C754 H762 0.930 . S
C755 C754 1.394 . S
C755 C756 1.383 . S
C755 H763 0.929 . S
C756 C755 1.383 . S
C756 C757 1.377 . S
C757 H741 0.947 . S
C757 C756 1.377 . S
C757 C758 1.379 . S
C758 H742 0.931 . S
C758 C752 1.383 . S
C758 C757 1.379 . S
H759 C753 0.959 . S
H760 C753 0.961 . S
H761 C753 0.967 . S
H762 C754 0.930 . S
H763 C755 0.929 . S
H764 C772 0.929 . S
H765 C774 0.930 . S
H766 C776 0.930 . S
H767 C779 0.929 . S
H768 C782 0.930 . S
H769 C784 0.960 . S
H770 C784 0.960 . S
H771 C784 0.960 . S
C772 H764 0.929 . S
C772 C773 1.377 . S
C772 C774 1.384 . S
C773 C772 1.377 . S
C773 C779 1.390 . S
C774 H765 0.930 . S
C774 C772 1.384 . S
C774 C775 1.372 . S
C775 C774 1.372 . S
C775 C776 1.400 . S
C775 C780 1.490 . S
C776 H766 0.930 . S
C776 C775 1.400 . S
C776 C779 1.386 . S
H777 C793 0.930 . S
H778 C794 0.931 . S
C779 H767 0.929 . S
C779 C773 1.390 . S
C779 C776 1.386 . S
C780 C775 1.490 . S
C780 C782 1.395 . S
C780 C783 1.403 . S
H781 C787 0.930 . S
C782 H768 0.930 . S
C782 C780 1.395 . S
C782 C785 1.403 . S
C783 C780 1.403 . S
C783 C784 1.524 . S
C783 C787 1.400 . S
C784 H769 0.960 . S
C784 H770 0.960 . S
C784 H771 0.960 . S
C784 C783 1.524 . S
C785 C782 1.403 . S
C785 C786 1.392 . S
C785 C789 1.495 . S
C786 C785 1.392 . S
C786 C787 1.385 . S
C786 C788 1.478 . S
C787 H781 0.930 . S
C787 C783 1.400 . S
C787 C786 1.385 . S
C788 C786 1.478 . S
C788 C790 1.381 . S
C788 C794 1.383 . S
C789 C785 1.495 . S
C789 H795 0.959 . S
C789 H796 0.961 . S
C789 H797 0.960 . S
C790 C788 1.381 . S
C790 C791 1.394 . S
C790 H798 0.957 . S
C791 C790 1.394 . S
C791 C792 1.383 . S
C791 H799 0.929 1_655 S
C792 C791 1.383 . S
C792 C793 1.377 . S
C793 H777 0.930 . S
C793 C792 1.377 . S
C793 C794 1.379 . S
C794 H778 0.931 . S
C794 C788 1.383 . S
C794 C793 1.379 . S
H795 C789 0.959 . S
H796 C789 0.961 . S
H797 C789 0.960 . S
H798 C790 0.957 . S
H799 C791 0.929 1_455 S
H800 C808 0.929 . S
H801 C810 0.930 . S
H802 C812 0.930 . S
H803 C815 0.929 . S
H804 C818 0.930 . S
H805 C820 0.960 . S
H806 C820 0.960 . S
H807 C820 0.960 . S
C808 H800 0.929 . S
C808 C809 1.377 . S
C808 C810 1.384 . S
C809 C808 1.377 . S
C809 C815 1.390 . S
C810 H801 0.930 . S
C810 C808 1.384 . S
C810 C811 1.372 . S
C811 C810 1.372 . S
C811 C812 1.400 . S
C811 C816 1.490 . S
C812 H802 0.930 . S
C812 C811 1.400 . S
C812 C815 1.386 . S
H813 C829 0.930 . S
H814 C830 0.931 . S
C815 H803 0.929 . S
C815 C809 1.390 . S
C815 C812 1.386 . S
C816 C811 1.490 . S
C816 C818 1.395 . S
C816 C819 1.403 . S
H817 C823 0.930 . S
C818 H804 0.930 . S
C818 C816 1.395 . S
C818 C821 1.403 . S
C819 C816 1.403 . S
C819 C820 1.524 . S
C819 C823 1.400 . S
C820 H805 0.960 . S
C820 H806 0.960 . S
C820 H807 0.960 . S
C820 C819 1.524 . S
C821 C818 1.403 . S
C821 C822 1.392 . S
C821 C825 1.495 . S
C822 C821 1.392 . S
C822 C823 1.385 . S
C822 C824 1.478 . S
C823 H817 0.930 . S
C823 C819 1.400 . S
C823 C822 1.385 . S
C824 C822 1.478 . S
C824 C826 1.381 . S
C824 C830 1.383 . S
C825 C821 1.495 . S
C825 H831 0.959 . S
C825 H832 0.961 . S
C825 H833 0.960 . S
C826 C824 1.381 . S
C826 C827 1.394 . S
C826 H834 0.930 . S
C827 C826 1.394 . S
C827 C828 1.383 . S
C827 H835 0.929 . S
C828 C827 1.383 . S
C828 C829 1.377 . S
C829 H813 0.930 . S
C829 C828 1.377 . S
C829 C830 1.379 . S
C830 H814 0.931 . S
C830 C824 1.383 . S
C830 C829 1.379 . S
H831 C825 0.959 . S
H832 C825 0.961 . S
H833 C825 0.960 . S
H834 C826 0.930 . S
H835 C827 0.929 . S
H836 C844 0.929 1_545 S
H837 C846 0.952 . S
H838 C848 0.930 . S
H839 C851 0.929 . S
H840 C854 0.930 . S
H841 C856 0.960 . S
H842 C856 0.960 1_545 S
H843 C856 0.960 . S
C844 H836 0.929 1_565 S
C844 C845 1.377 . S
C844 C846 1.380 1_565 S
C845 C844 1.377 . S
C845 C851 1.390 . S
C846 H837 0.952 . S
C846 C844 1.380 1_545 S
C846 C847 1.354 1_545 S
C847 C846 1.354 1_565 S
C847 C848 1.400 . S
C847 C852 1.490 . S
C848 H838 0.930 . S
C848 C847 1.400 . S
C848 C851 1.386 . S
H849 C865 0.930 . S
H850 C866 0.931 . S
C851 H839 0.929 . S
C851 C845 1.390 . S
C851 C848 1.386 . S
C852 C847 1.490 . S
C852 C854 1.395 . S
C852 C855 1.403 . S
H853 C859 0.930 . S
C854 H840 0.930 . S
C854 C852 1.395 . S
C854 C857 1.403 . S
C855 C852 1.403 . S
C855 C856 1.524 . S
C855 C859 1.400 . S
C856 H841 0.960 . S
C856 H842 0.960 1_565 S
C856 H843 0.960 . S
C856 C855 1.524 . S
C857 C854 1.403 . S
C857 C858 1.392 . S
C857 C861 1.495 1_655 S
C858 C857 1.392 . S
C858 C859 1.385 . S
C858 C860 1.478 . S
C859 H853 0.930 . S
C859 C855 1.400 . S
C859 C858 1.385 . S
C860 C858 1.478 . S
C860 C862 1.381 1_565 S
C860 C866 1.383 . S
C861 C857 1.495 1_455 S
C861 H867 0.959 . S
C861 H868 0.961 . S
C861 H869 0.960 1_565 S
C862 C860 1.381 1_545 S
C862 C863 1.394 . S
C862 H870 0.930 . S
C863 C862 1.394 . S
C863 C864 1.383 . S
C863 H871 0.929 . S
C864 C863 1.383 . S
C864 C865 1.377 1_545 S
C865 H849 0.930 . S
C865 C864 1.377 1_565 S
C865 C866 1.379 . S
C866 H850 0.931 . S
C866 C860 1.383 . S
C866 C865 1.379 . S
H867 C861 0.959 . S
H868 C861 0.961 . S
H869 C861 0.960 1_545 S
H870 C862 0.930 . S
H871 C863 0.929 . S
H872 C880 0.929 . S
H873 C882 0.930 . S
H874 C884 0.930 . S
H875 C887 0.929 . S
H876 C890 0.930 1_565 S
H877 C892 0.960 . S
H878 C892 0.960 . S
H879 C892 0.960 . S
C880 H872 0.929 . S
C880 C881 1.377 . S
C880 C882 1.384 . S
C881 C880 1.377 . S
C881 C887 1.390 . S
C882 H873 0.930 . S
C882 C880 1.384 . S
C882 C883 1.372 . S
C883 C882 1.372 . S
C883 C884 1.400 . S
C883 C888 1.490 . S
C884 H874 0.930 . S
C884 C883 1.400 . S
C884 C887 1.386 . S
H885 C901 0.930 . S
H886 C902 0.931 . S
C887 H875 0.929 . S
C887 C881 1.390 . S
C887 C884 1.386 . S
C888 C883 1.490 . S
C888 C890 1.395 . S
C888 C891 1.403 . S
H889 C895 0.930 . S
C890 H876 0.930 1_545 S
C890 C888 1.395 . S
C890 C893 1.403 . S
C891 C888 1.403 . S
C891 C892 1.524 . S
C891 C895 1.400 . S
C892 H877 0.960 . S
C892 H878 0.960 . S
C892 H879 0.960 . S
C892 C891 1.524 . S
C893 C890 1.403 . S
C893 C894 1.392 . S
C893 C897 1.495 1_545 S
C894 C893 1.392 . S
C894 C895 1.385 . S
C894 C896 1.478 . S
C895 H889 0.930 . S
C895 C891 1.400 . S
C895 C894 1.385 . S
C896 C894 1.478 . S
C896 C898 1.381 . S
C896 C902 1.383 . S
C897 C893 1.495 1_565 S
C897 H903 0.959 . S
C897 H904 0.961 . S
C897 H905 0.960 . S
C898 C896 1.381 . S
C898 C899 1.394 . S
C898 H906 0.930 . S
C899 C898 1.394 . S
C899 C900 1.383 . S
C899 H907 0.929 . S
C900 C899 1.383 . S
C900 C901 1.377 . S
C901 H885 0.930 . S
C901 C900 1.377 . S
C901 C902 1.379 . S
C902 H886 0.931 . S
C902 C896 1.383 . S
C902 C901 1.379 . S
H903 C897 0.959 . S
H904 C897 0.961 . S
H905 C897 0.960 . S
H906 C898 0.930 . S
H907 C899 0.929 . S
H908 C916 0.929 . S
H909 C918 0.930 . S
H910 C920 0.930 . S
H911 C923 0.929 . S
H912 C926 0.930 . S
H913 C928 0.960 . S
H914 C928 0.960 . S
H915 C928 0.960 . S
C916 H908 0.929 . S
C916 C917 1.377 . S
C916 C918 1.384 . S
C917 C916 1.377 . S
C917 C923 1.390 . S
C918 H909 0.930 . S
C918 C916 1.384 . S
C918 C919 1.372 . S
C919 C918 1.372 . S
C919 C920 1.400 . S
C919 C924 1.490 . S
C920 H910 0.930 . S
C920 C919 1.400 . S
C920 C923 1.386 . S
H921 C937 0.930 . S
H922 C938 0.931 . S
C923 H911 0.929 . S
C923 C917 1.390 . S
C923 C920 1.386 . S
C924 C919 1.490 . S
C924 C926 1.395 . S
C924 C927 1.403 . S
H925 C931 0.930 . S
C926 H912 0.930 . S
C926 C924 1.395 . S
C926 C929 1.403 . S
C927 C924 1.403 . S
C927 C928 1.524 . S
C927 C931 1.400 . S
C928 H913 0.960 . S
C928 H914 0.960 . S
C928 H915 0.960 . S
C928 C927 1.524 . S
C929 C926 1.403 . S
C929 C930 1.392 . S
C929 C933 1.495 . S
C930 C929 1.392 . S
C930 C931 1.385 . S
C930 C932 1.478 . S
C931 H925 0.930 . S
C931 C927 1.400 . S
C931 C930 1.385 . S
C932 C930 1.478 . S
C932 C934 1.381 . S
C932 C938 1.383 . S
C933 C929 1.495 . S
C933 H939 0.959 . S
C933 H940 0.961 . S
C933 H941 0.960 . S
C934 C932 1.381 . S
C934 C935 1.394 . S
C934 H942 0.930 . S
C935 C934 1.394 . S
C935 C936 1.383 . S
C935 H943 0.929 . S
C936 C935 1.383 . S
C936 C937 1.377 . S
C937 H921 0.930 . S
C937 C936 1.377 . S
C937 C938 1.379 . S
C938 H922 0.931 . S
C938 C932 1.383 . S
C938 C937 1.379 . S
H939 C933 0.959 . S
H940 C933 0.961 . S
H941 C933 0.960 . S
H942 C934 0.930 . S
H943 C935 0.929 . S
H944 C952 0.929 . S
H945 C954 0.930 . S
H946 C956 0.930 . S
H947 C959 0.929 . S
H948 C962 0.930 . S
H949 C964 0.960 . S
H950 C964 0.960 . S
H951 C964 0.960 . S
C952 H944 0.929 . S
C952 C953 1.377 . S
C952 C954 1.384 . S
C953 C952 1.377 . S
C953 C959 1.390 . S
C954 H945 0.930 . S
C954 C952 1.384 . S
C954 C955 1.372 . S
C955 C954 1.372 . S
C955 C956 1.400 . S
C955 C960 1.490 . S
C956 H946 0.930 . S
C956 C955 1.400 . S
C956 C959 1.386 . S
H957 C973 0.930 . S
H958 C974 0.931 . S
C959 H947 0.929 . S
C959 C953 1.390 . S
C959 C956 1.386 . S
C960 C955 1.490 . S
C960 C962 1.395 . S
C960 C963 1.403 . S
H961 C967 0.930 . S
C962 H948 0.930 . S
C962 C960 1.395 . S
C962 C965 1.403 . S
C963 C960 1.403 . S
C963 C964 1.524 . S
C963 C967 1.400 . S
C964 H949 0.960 . S
C964 H950 0.960 . S
C964 H951 0.960 . S
C964 C963 1.524 . S
C965 C962 1.403 . S
C965 C966 1.392 . S
C965 C969 1.495 . S
C966 C965 1.392 . S
C966 C967 1.385 . S
C966 C968 1.478 . S
C967 H961 0.930 . S
C967 C963 1.400 . S
C967 C966 1.385 . S
C968 C966 1.478 . S
C968 C970 1.381 . S
C968 C974 1.383 . S
C969 C965 1.495 . S
C969 H975 0.959 . S
C969 H976 0.961 . S
C969 H977 0.960 . S
C970 C968 1.381 . S
C970 C971 1.394 . S
C970 H978 0.930 . S
C971 C970 1.394 . S
C971 C972 1.383 . S
C971 H979 0.929 . S
C972 C971 1.383 . S
C972 C973 1.377 . S
C973 H957 0.930 . S
C973 C972 1.377 . S
C973 C974 1.379 . S
C974 H958 0.931 . S
C974 C968 1.383 . S
C974 C973 1.379 . S
H975 C969 0.959 . S
H976 C969 0.961 . S
H977 C969 0.960 . S
H978 C970 0.930 . S
H979 C971 0.929 . S
H980 C988 0.940 . S
H981 C990 0.930 1_545 S
H982 C992 0.930 . S
H983 C995 0.929 . S
H984 C998 0.930 . S
H985 C1000 0.960 . S
H986 C1000 0.960 . S
H987 C1000 0.960 . S
C988 H980 0.940 . S
C988 C989 1.377 . S
C988 C990 1.384 . S
C989 C988 1.377 . S
C989 C995 1.390 . S
C990 H981 0.930 1_565 S
C990 C988 1.384 . S
C990 C991 1.372 . S
C991 C990 1.372 . S
C991 C992 1.400 . S
C991 C996 1.490 . S
C992 H982 0.930 . S
C992 C991 1.400 . S
C992 C995 1.386 . S
H993 C1009 0.930 . S
H994 C1010 0.931 . S
C995 H983 0.929 . S
C995 C989 1.390 . S
C995 C992 1.386 . S
C996 C991 1.490 . S
C996 C998 1.395 1_565 S
C996 C999 1.403 . S
H997 C1003 0.930 . S
C998 H984 0.930 . S
C998 C996 1.395 1_545 S
C998 C1001 1.403 . S
C999 C996 1.403 . S
C999 C1000 1.524 . S
C999 C1003 1.400 . S
C1000 H985 0.960 . S
C1000 H986 0.960 . S
C1000 H987 0.960 . S
C1000 C999 1.524 . S
C1001 C998 1.403 . S
C1001 C1002 1.392 1_545 S
C1001 C1005 1.495 . S
C1002 C1001 1.392 1_565 S
C1002 C1003 1.385 . S
C1002 C1004 1.478 . S
C1003 H997 0.930 . S
C1003 C999 1.400 . S
C1003 C1002 1.385 . S
C1004 C1002 1.478 . S
C1004 C1006 1.381 1_566 S
C1004 C1010 1.383 . S
C1005 C1001 1.495 . S
C1005 H1011 0.959 . S
C1005 H1012 0.961 . S
C1005 H1013 0.960 . S
C1006 C1004 1.381 1_544 S
C1006 C1007 1.394 . S
C1006 H1014 0.930 . S
C1007 C1006 1.394 . S
C1007 C1008 1.383 1_544 S
C1007 H1015 0.929 . S
C1008 C1007 1.383 1_566 S
C1008 C1009 1.377 . S
C1009 H993 0.930 . S
C1009 C1008 1.377 . S
C1009 C1010 1.379 . S
C1010 H994 0.931 . S
C1010 C1004 1.383 . S
C1010 C1009 1.379 . S
H1011 C1005 0.959 . S
H1012 C1005 0.961 . S
H1013 C1005 0.960 . S
H1014 C1006 0.930 . S
H1015 C1007 0.929 . S
H1016 C1024 0.929 . S
H1017 C1026 0.930 . S
H1018 C1028 0.930 . S
H1019 C1031 0.929 . S
H1020 C1034 0.930 . S
H1021 C1036 0.961 . S
H1022 C1036 0.961 . S
H1023 C1036 0.959 1_545 S
C1024 H1016 0.929 . S
C1024 C1025 1.377 . S
C1024 C1026 1.384 . S
C1025 C1024 1.377 . S
C1025 C1031 1.390 . S
C1026 H1017 0.930 . S
C1026 C1024 1.384 . S
C1026 C1027 1.372 . S
C1027 C1026 1.372 . S
C1027 C1028 1.400 . S
C1027 C1032 1.490 . S
C1028 H1018 0.930 . S
C1028 C1027 1.400 . S
C1028 C1031 1.386 . S
H1029 C1045 0.930 . S
H1030 C1046 0.931 . S
C1031 H1019 0.929 . S
C1031 C1025 1.390 . S
C1031 C1028 1.386 . S
C1032 C1027 1.490 . S
C1032 C1034 1.395 . S
C1032 C1035 1.403 . S
H1033 C1039 0.930 . S
C1034 H1020 0.930 . S
C1034 C1032 1.395 . S
C1034 C1037 1.403 . S
C1035 C1032 1.403 . S
C1035 C1036 1.523 1_545 S
C1035 C1039 1.400 . S
C1036 H1021 0.961 . S
C1036 H1022 0.961 . S
C1036 H1023 0.959 1_565 S
C1036 C1035 1.523 1_565 S
C1037 C1034 1.403 . S
C1037 C1038 1.392 . S
C1037 C1041 1.495 . S
C1038 C1037 1.392 . S
C1038 C1039 1.385 . S
C1038 C1040 1.478 . S
C1039 H1033 0.930 . S
C1039 C1035 1.400 . S
C1039 C1038 1.385 . S
C1040 C1038 1.478 . S
C1040 C1042 1.381 . S
C1040 C1046 1.383 . S
C1041 C1037 1.495 . S
C1041 H1047 0.959 . S
C1041 H1048 0.961 . S
C1041 H1049 0.960 . S
C1042 C1040 1.381 . S
C1042 C1043 1.394 . S
C1042 H1050 0.930 . S
C1043 C1042 1.394 . S
C1043 C1044 1.383 . S
C1043 H1051 0.929 . S
C1044 C1043 1.383 . S
C1044 C1045 1.377 . S
C1045 H1029 0.930 . S
C1045 C1044 1.377 . S
C1045 C1046 1.379 . S
C1046 H1030 0.931 . S
C1046 C1040 1.383 . S
C1046 C1045 1.379 . S
H1047 C1041 0.959 . S
H1048 C1041 0.961 . S
H1049 C1041 0.960 . S
H1050 C1042 0.930 . S
H1051 C1043 0.929 . S
H1052 C1060 0.929 . S
H1053 C1062 0.930 . S
H1054 C1064 0.930 . S
H1055 C1067 0.929 . S
H1056 C1070 0.930 . S
H1057 C1072 0.960 1_556 S
H1058 C1072 0.960 . S
H1059 C1072 0.951 1_556 S
C1060 H1052 0.929 . S
C1060 C1061 1.377 . S
C1060 C1062 1.384 . S
C1061 C1060 1.377 . S
C1061 C1067 1.390 . S
C1062 H1053 0.930 . S
C1062 C1060 1.384 . S
C1062 C1063 1.372 . S
C1063 C1062 1.372 . S
C1063 C1064 1.400 . S
C1063 C1068 1.490 . S
C1064 H1054 0.930 . S
C1064 C1063 1.400 . S
C1064 C1067 1.386 . S
H1065 C1081 0.930 . S
H1066 C1082 0.931 1_556 S
C1067 H1055 0.929 . S
C1067 C1061 1.390 . S
C1067 C1064 1.386 . S
C1068 C1063 1.490 . S
C1068 C1070 1.395 . S
C1068 C1071 1.403 . S
H1069 C1075 0.930 . S
C1070 H1056 0.930 . S
C1070 C1068 1.395 . S
C1070 C1073 1.403 . S
C1071 C1068 1.403 . S
C1071 C1072 1.524 . S
C1071 C1075 1.400 . S
C1072 H1057 0.960 1_554 S
C1072 H1058 0.960 . S
C1072 H1059 0.951 1_554 S
C1072 C1071 1.524 . S
C1073 C1070 1.403 . S
C1073 C1074 1.392 . S
C1073 C1077 1.495 . S
C1074 C1073 1.392 . S
C1074 C1075 1.385 . S
C1074 C1076 1.478 . S
C1075 H1069 0.930 . S
C1075 C1071 1.400 . S
C1075 C1074 1.385 . S
C1076 C1074 1.478 . S
C1076 C1078 1.381 . S
C1076 C1082 1.383 . S
C1077 C1073 1.495 . S
C1077 H1083 0.959 . S
C1077 H1084 0.961 . S
C1077 H1085 0.960 . S
C1078 C1076 1.381 . S
C1078 C1079 1.394 . S
C1078 H1086 0.930 . S
C1079 C1078 1.394 . S
C1079 C1080 1.383 . S
C1079 H1087 0.929 . S
C1080 C1079 1.383 . S
C1080 C1081 1.377 1_554 S
C1081 H1065 0.930 . S
C1081 C1080 1.377 1_556 S
C1081 C1082 1.379 1_556 S
C1082 H1066 0.931 1_554 S
C1082 C1076 1.383 . S
C1082 C1081 1.379 1_554 S
H1083 C1077 0.959 . S
H1084 C1077 0.961 . S
H1085 C1077 0.960 . S
H1086 C1078 0.930 . S
H1087 C1079 0.929 . S
H1088 C1096 0.929 . S
H1089 C1098 0.930 . S
H1090 C1100 0.930 . S
H1091 C1103 0.929 . S
H1092 C1106 0.930 . S
H1093 C1108 0.960 . S
H1094 C1108 0.960 . S
H1095 C1108 0.960 . S
C1096 H1088 0.929 . S
C1096 C1097 1.377 . S
C1096 C1098 1.384 . S
C1097 C1096 1.377 . S
C1097 C1103 1.390 . S
C1098 H1089 0.930 . S
C1098 C1096 1.384 . S
C1098 C1099 1.372 . S
C1099 C1098 1.372 . S
C1099 C1100 1.400 . S
C1099 C1104 1.490 . S
C1100 H1090 0.930 . S
C1100 C1099 1.400 . S
C1100 C1103 1.386 . S
H1101 C1117 0.930 . S
H1102 C1118 0.931 . S
C1103 H1091 0.929 . S
C1103 C1097 1.390 . S
C1103 C1100 1.386 . S
C1104 C1099 1.490 . S
C1104 C1106 1.395 . S
C1104 C1107 1.403 . S
H1105 C1111 0.930 . S
C1106 H1092 0.930 . S
C1106 C1104 1.395 . S
C1106 C1109 1.403 . S
C1107 C1104 1.403 . S
C1107 C1108 1.524 . S
C1107 C1111 1.400 . S
C1108 H1093 0.960 . S
C1108 H1094 0.960 . S
C1108 H1095 0.960 . S
C1108 C1107 1.524 . S
C1109 C1106 1.403 . S
C1109 C1110 1.392 . S
C1109 C1113 1.495 . S
C1110 C1109 1.392 . S
C1110 C1111 1.385 . S
C1110 C1112 1.478 . S
C1111 H1105 0.930 . S
C1111 C1107 1.400 . S
C1111 C1110 1.385 . S
C1112 C1110 1.478 . S
C1112 C1114 1.381 . S
C1112 C1118 1.383 . S
C1113 C1109 1.495 . S
C1113 H1119 0.959 . S
C1113 H1120 0.961 . S
C1113 H1121 0.960 . S
C1114 C1112 1.381 . S
C1114 C1115 1.394 . S
C1114 H1122 0.930 . S
C1115 C1114 1.394 . S
C1115 C1116 1.383 . S
C1115 H1123 0.929 . S
C1116 C1115 1.383 . S
C1116 C1117 1.377 . S
C1117 H1101 0.930 . S
C1117 C1116 1.377 . S
C1117 C1118 1.379 . S
C1118 H1102 0.931 . S
C1118 C1112 1.383 . S
C1118 C1117 1.379 . S
H1119 C1113 0.959 . S
H1120 C1113 0.961 . S
H1121 C1113 0.960 . S
H1122 C1114 0.930 . S
H1123 C1115 0.929 . S
H1124 C1132 0.929 . S
H1125 C1134 0.930 1_554 S
H1126 C1136 0.930 . S
H1127 C1139 0.929 . S
H1128 C1142 0.930 . S
H1129 C1144 0.960 . S
H1130 C1144 0.960 . S
H1131 C1144 0.960 1_655 S
C1132 H1124 0.929 . S
C1132 C1133 1.377 . S
C1132 C1134 1.384 . S
C1133 C1132 1.377 . S
C1133 C1139 1.390 . S
C1134 H1125 0.930 1_556 S
C1134 C1132 1.384 . S
C1134 C1135 1.372 . S
C1135 C1134 1.372 . S
C1135 C1136 1.400 . S
C1135 C1140 1.490 . S
C1136 H1126 0.930 . S
C1136 C1135 1.400 . S
C1136 C1139 1.386 . S
H1137 C1153 0.930 . S
H1138 C1154 0.931 . S
C1139 H1127 0.929 . S
C1139 C1133 1.390 . S
C1139 C1136 1.386 . S
C1140 C1135 1.490 . S
C1140 C1142 1.395 . S
C1140 C1143 1.403 . S
H1141 C1147 0.930 . S
C1142 H1128 0.930 . S
C1142 C1140 1.395 . S
C1142 C1145 1.403 . S
C1143 C1140 1.403 . S
C1143 C1144 1.524 1_655 S
C1143 C1147 1.400 . S
C1144 H1129 0.960 . S
C1144 H1130 0.960 . S
C1144 H1131 0.960 1_455 S
C1144 C1143 1.524 1_455 S
C1145 C1142 1.403 . S
C1145 C1146 1.392 . S
C1145 C1149 1.495 1_556 S
C1146 C1145 1.392 . S
C1146 C1147 1.385 . S
C1146 C1148 1.478 . S
C1147 H1141 0.930 . S
C1147 C1143 1.400 . S
C1147 C1146 1.385 . S
C1148 C1146 1.478 . S
C1148 C1150 1.381 1_556 S
C1148 C1154 1.383 . S
C1149 C1145 1.495 1_554 S
C1149 H1155 0.959 . S
C1149 H1156 0.961 1_554 S
C1149 H1157 0.960 . S
C1150 C1148 1.381 1_554 S
C1150 C1151 1.394 . S
C1150 H1158 0.930 . S
C1151 C1150 1.394 . S
C1151 C1152 1.383 1_554 S
C1151 H1159 0.929 . S
C1152 C1151 1.383 1_556 S
C1152 C1153 1.377 . S
C1153 H1137 0.930 . S
C1153 C1152 1.377 . S
C1153 C1154 1.379 . S
C1154 H1138 0.931 . S
C1154 C1148 1.383 . S
C1154 C1153 1.379 . S
H1155 C1149 0.959 . S
H1156 C1149 0.961 1_556 S
H1157 C1149 0.960 . S
H1158 C1150 0.930 . S
H1159 C1151 0.929 . S
H1160 C1168 0.929 . S
H1161 C1170 0.930 . S
H1162 C1172 0.930 . S
H1163 C1175 0.929 . S
H1164 C1178 0.930 . S
H1165 C1180 0.960 . S
H1166 C1180 0.960 . S
H1167 C1180 0.960 . S
C1168 H1160 0.929 . S
C1168 C1169 1.377 . S
C1168 C1170 1.384 . S
C1169 C1168 1.377 . S
C1169 C1175 1.390 . S
C1170 H1161 0.930 . S
C1170 C1168 1.384 . S
C1170 C1171 1.372 . S
C1171 C1170 1.372 . S
C1171 C1172 1.400 . S
C1171 C1176 1.490 . S
C1172 H1162 0.930 . S
C1172 C1171 1.400 . S
C1172 C1175 1.386 . S
H1173 C1189 0.930 . S
H1174 C1190 0.931 . S
C1175 H1163 0.929 . S
C1175 C1169 1.390 . S
C1175 C1172 1.386 . S
C1176 C1171 1.490 . S
C1176 C1178 1.395 . S
C1176 C1179 1.403 . S
H1177 C1183 0.930 . S
C1178 H1164 0.930 . S
C1178 C1176 1.395 . S
C1178 C1181 1.403 . S
C1179 C1176 1.403 . S
C1179 C1180 1.524 . S
C1179 C1183 1.400 . S
C1180 H1165 0.960 . S
C1180 H1166 0.960 . S
C1180 H1167 0.960 . S
C1180 C1179 1.524 . S
C1181 C1178 1.403 . S
C1181 C1182 1.392 . S
C1181 C1185 1.495 . S
C1182 C1181 1.392 . S
C1182 C1183 1.385 . S
C1182 C1184 1.478 . S
C1183 H1177 0.930 . S
C1183 C1179 1.400 . S
C1183 C1182 1.385 . S
C1184 C1182 1.478 . S
C1184 C1186 1.381 . S
C1184 C1190 1.383 . S
C1185 C1181 1.495 . S
C1185 H1191 0.959 . S
C1185 H1192 0.961 . S
C1185 H1193 0.960 . S
C1186 C1184 1.381 . S
C1186 C1187 1.394 . S
C1186 H1194 0.930 . S
C1187 C1186 1.394 . S
C1187 C1188 1.383 . S
C1187 H1195 0.929 . S
C1188 C1187 1.383 . S
C1188 C1189 1.377 . S
C1189 H1173 0.930 . S
C1189 C1188 1.377 . S
C1189 C1190 1.379 . S
C1190 H1174 0.931 . S
C1190 C1184 1.383 . S
C1190 C1189 1.379 . S
H1191 C1185 0.959 . S
H1192 C1185 0.961 . S
H1193 C1185 0.960 . S
H1194 C1186 0.930 . S
H1195 C1187 0.929 . S
H1196 C1204 0.929 . S
H1197 C1206 0.930 . S
H1198 C1208 0.930 . S
H1199 C1211 0.929 . S
H1200 C1214 0.930 . S
H1201 C1216 0.960 . S
H1202 C1216 0.960 . S
H1203 C1216 0.960 . S
C1204 H1196 0.929 . S
C1204 C1205 1.377 . S
C1204 C1206 1.384 . S
C1205 C1204 1.377 . S
C1205 C1211 1.390 . S
C1206 H1197 0.930 . S
C1206 C1204 1.384 . S
C1206 C1207 1.372 . S
C1207 C1206 1.372 . S
C1207 C1208 1.400 . S
C1207 C1212 1.490 . S
C1208 H1198 0.930 . S
C1208 C1207 1.400 . S
C1208 C1211 1.386 . S
H1209 C1225 0.930 1_655 S
H1210 C1226 0.931 . S
C1211 H1199 0.929 . S
C1211 C1205 1.390 . S
C1211 C1208 1.386 . S
C1212 C1207 1.490 . S
C1212 C1214 1.395 . S
C1212 C1215 1.403 . S
H1213 C1219 0.930 . S
C1214 H1200 0.930 . S
C1214 C1212 1.395 . S
C1214 C1217 1.403 . S
C1215 C1212 1.403 . S
C1215 C1216 1.524 . S
C1215 C1219 1.400 . S
C1216 H1201 0.960 . S
C1216 H1202 0.960 . S
C1216 H1203 0.960 . S
C1216 C1215 1.524 . S
C1217 C1214 1.403 . S
C1217 C1218 1.392 . S
C1217 C1221 1.495 . S
C1218 C1217 1.392 . S
C1218 C1219 1.385 . S
C1218 C1220 1.478 . S
C1219 H1213 0.930 . S
C1219 C1215 1.400 . S
C1219 C1218 1.385 . S
C1220 C1218 1.478 . S
C1220 C1222 1.381 . S
C1220 C1226 1.383 . S
C1221 C1217 1.495 . S
C1221 H1227 0.959 . S
C1221 H1228 0.961 . S
C1221 H1229 0.960 . S
C1222 C1220 1.381 . S
C1222 C1223 1.394 . S
C1222 H1230 0.930 . S
C1223 C1222 1.394 . S
C1223 C1224 1.383 . S
C1223 H1231 0.929 . S
C1224 C1223 1.383 . S
C1224 C1225 1.377 . S
C1225 H1209 0.930 1_455 S
C1225 C1224 1.377 . S
C1225 C1226 1.379 . S
C1226 H1210 0.931 . S
C1226 C1220 1.383 . S
C1226 C1225 1.379 . S
H1227 C1221 0.959 . S
H1228 C1221 0.961 . S
H1229 C1221 0.960 . S
H1230 C1222 0.930 . S
H1231 C1223 0.929 . S
H1232 C1240 0.929 . S
H1233 C1242 0.930 . S
H1234 C1244 0.930 . S
H1235 C1247 0.929 . S
H1236 C1250 0.930 . S
H1237 C1252 0.960 . S
H1238 C1252 0.960 . S
H1239 C1252 0.960 . S
C1240 H1232 0.929 . S
C1240 C1241 1.377 . S
C1240 C1242 1.384 . S
C1241 C1240 1.377 . S
C1241 C1247 1.390 . S
C1242 H1233 0.930 . S
C1242 C1240 1.384 . S
C1242 C1243 1.372 . S
C1243 C1242 1.372 . S
C1243 C1244 1.400 . S
C1243 C1248 1.490 . S
C1244 H1234 0.930 . S
C1244 C1243 1.400 . S
C1244 C1247 1.386 . S
H1245 C1261 0.930 . S
H1246 C1262 0.931 . S
C1247 H1235 0.929 . S
C1247 C1241 1.390 . S
C1247 C1244 1.386 . S
C1248 C1243 1.490 . S
C1248 C1250 1.395 . S
C1248 C1251 1.403 . S
H1249 C1255 0.930 . S
C1250 H1236 0.930 . S
C1250 C1248 1.395 . S
C1250 C1253 1.403 . S
C1251 C1248 1.403 . S
C1251 C1252 1.524 . S
C1251 C1255 1.400 . S
C1252 H1237 0.960 . S
C1252 H1238 0.960 . S
C1252 H1239 0.960 . S
C1252 C1251 1.524 . S
C1253 C1250 1.403 . S
C1253 C1254 1.392 . S
C1253 C1257 1.495 . S
C1254 C1253 1.392 . S
C1254 C1255 1.385 . S
C1254 C1256 1.478 . S
C1255 H1249 0.930 . S
C1255 C1251 1.400 . S
C1255 C1254 1.385 . S
C1256 C1254 1.478 . S
C1256 C1258 1.381 . S
C1256 C1262 1.383 . S
C1257 C1253 1.495 . S
C1257 H1263 0.959 . S
C1257 H1264 0.961 . S
C1257 H1265 0.960 . S
C1258 C1256 1.381 . S
C1258 C1259 1.394 . S
C1258 H1266 0.930 . S
C1259 C1258 1.394 . S
C1259 C1260 1.383 . S
C1259 H1267 0.929 . S
C1260 C1259 1.383 . S
C1260 C1261 1.377 . S
C1261 H1245 0.930 . S
C1261 C1260 1.377 . S
C1261 C1262 1.379 . S
C1262 H1246 0.931 . S
C1262 C1256 1.383 . S
C1262 C1261 1.379 . S
H1263 C1257 0.959 . S
H1264 C1257 0.961 . S
H1265 C1257 0.960 . S
H1266 C1258 0.930 . S
H1267 C1259 0.929 . S
C413 C1 1.620 . S
C432 C330 1.613 . S
C449 C40 1.605 . S
C468 C354 1.587 . S
C504 C374 1.408 . S
C485 C99 1.398 . S
C521 C118 1.401 . S
C540 C397 1.407 . S
C576 C356 1.688 . S
C557 C16 1.745 . S
C612 C332 1.692 . S
C593 C60 1.721 . S
C648 C400 1.619 . S
C629 C79 1.641 . S
C684 C377 1.518 . S
C665 C138 1.577 . S
C701 C21 1.351 . S
C720 C402 1.293 . S
C756 C351 1.682 . S
C737 C94 1.669 . S
C773 C133 1.640 . S
C792 C329 1.645 . S
C809 C55 1.337 . S
C828 C379 1.307 . S
C864 C333 1.709 . S
C845 C157 1.690 . S
C881 C196 1.636 . S
C900 C355 1.653 . S
C917 C255 1.819 . S
C936 C375 1.852 . S
C953 C289 1.827 . S
C972 C398 1.848 . S
C989 C172 1.594 . S
C1008 C353 1.585 1_556 S
C1044 C331 1.581 . S
C1025 C216 1.579 . S
C1080 C401 1.488 . S
C1061 C235 1.517 . S
C1116 C378 1.496 . S
C1097 C294 1.515 . S
C1133 C177 1.965 . S
C1152 C399 1.963 . S
C1188 C352 1.591 . S
C1169 C250 1.573 . S
C1224 C328 1.586 . S
C1205 C274 1.557 . S
C1241 C211 1.938 . S
C1260 C376 1.926 . S
