# Generated by pormake.
# Topology ptr, (4,4)-cn, num edge types: 1
# Building blocks:
#     Node 0, Type 0, BuildingBlock: CEKHIL_clean_sbu_0, # of connection points: 4
#     Node 1, Type 0, BuildingBlock: CEKHIL_clean_sbu_0, # of connection points: 4
#     Node 2, Type 0, BuildingBlock: CEKHIL_clean_sbu_0, # of connection points: 4
#     Node 3, Type 0, BuildingBlock: CEKHIL_clean_sbu_0, # of connection points: 4
#     Node 4, Type 0, BuildingBlock: CEKHIL_clean_sbu_0, # of connection points: 4
#     Node 5, Type 0, BuildingBlock: CEKHIL_clean_sbu_0, # of connection points: 4
#     Node 6, Type 0, BuildingBlock: CEKHIL_clean_sbu_0, # of connection points: 4
#     Node 7, Type 0, BuildingBlock: CEKHIL_clean_sbu_0, # of connection points: 4
#     Node 8, Type 0, BuildingBlock: CEKHIL_clean_sbu_0, # of connection points: 4
#     Node 9, Type 0, BuildingBlock: CEKHIL_clean_sbu_0, # of connection points: 4
#     Node 10, Type 0, BuildingBlock: CEKHIL_clean_sbu_0, # of connection points: 4
#     Node 11, Type 0, BuildingBlock: CEKHIL_clean_sbu_0, # of connection points: 4
#     Node 12, Type 0, BuildingBlock: CEKHIL_clean_sbu_0, # of connection points: 4
#     Node 13, Type 0, BuildingBlock: CEKHIL_clean_sbu_0, # of connection points: 4
#     Node 14, Type 0, BuildingBlock: CEKHIL_clean_sbu_0, # of connection points: 4
#     Node 15, Type 0, BuildingBlock: CEKHIL_clean_sbu_0, # of connection points: 4
#     Node 16, Type 0, BuildingBlock: CEKHIL_clean_sbu_0, # of connection points: 4
#     Node 17, Type 0, BuildingBlock: CEKHIL_clean_sbu_0, # of connection points: 4
#     Node 18, Type 1, BuildingBlock: MIFKUJ_clean_linker_1, # of connection points: 4
#     Node 19, Type 1, BuildingBlock: MIFKUJ_clean_linker_1, # of connection points: 4
#     Node 20, Type 1, BuildingBlock: MIFKUJ_clean_linker_1, # of connection points: 4
#     Node 21, Type 1, BuildingBlock: MIFKUJ_clean_linker_1, # of connection points: 4
#     Node 22, Type 1, BuildingBlock: MIFKUJ_clean_linker_1, # of connection points: 4
#     Node 23, Type 1, BuildingBlock: MIFKUJ_clean_linker_1, # of connection points: 4
#     Node 24, Type 1, BuildingBlock: MIFKUJ_clean_linker_1, # of connection points: 4
#     Node 25, Type 1, BuildingBlock: MIFKUJ_clean_linker_1, # of connection points: 4
#     Node 26, Type 1, BuildingBlock: MIFKUJ_clean_linker_1, # of connection points: 4
#     Node 27, Type 1, BuildingBlock: MIFKUJ_clean_linker_1, # of connection points: 4
#     Node 28, Type 1, BuildingBlock: MIFKUJ_clean_linker_1, # of connection points: 4
#     Node 29, Type 1, BuildingBlock: MIFKUJ_clean_linker_1, # of connection points: 4
#     Node 30, Type 1, BuildingBlock: MIFKUJ_clean_linker_1, # of connection points: 4
#     Node 31, Type 1, BuildingBlock: MIFKUJ_clean_linker_1, # of connection points: 4
#     Node 32, Type 1, BuildingBlock: MIFKUJ_clean_linker_1, # of connection points: 4
#     Node 33, Type 1, BuildingBlock: MIFKUJ_clean_linker_1, # of connection points: 4
#     Node 34, Type 1, BuildingBlock: MIFKUJ_clean_linker_1, # of connection points: 4
#     Node 35, Type 1, BuildingBlock: MIFKUJ_clean_linker_1, # of connection points: 4
#     Edge 36, Type (0, 1), BuildingBlock: AJUNOK_clean_linker_0, # of connection points: 2
#     Edge 37, Type (0, 1), BuildingBlock: AJUNOK_clean_linker_0, # of connection points: 2
#     Edge 38, Type (0, 1), BuildingBlock: AJUNOK_clean_linker_0, # of connection points: 2
#     Edge 39, Type (0, 1), BuildingBlock: AJUNOK_clean_linker_0, # of connection points: 2
#     Edge 40, Type (0, 1), BuildingBlock: AJUNOK_clean_linker_0, # of connection points: 2
#     Edge 41, Type (0, 1), BuildingBlock: AJUNOK_clean_linker_0, # of connection points: 2
#     Edge 42, Type (0, 1), BuildingBlock: AJUNOK_clean_linker_0, # of connection points: 2
#     Edge 43, Type (0, 1), BuildingBlock: AJUNOK_clean_linker_0, # of connection points: 2
#     Edge 44, Type (0, 1), BuildingBlock: AJUNOK_clean_linker_0, # of connection points: 2
#     Edge 45, Type (0, 1), BuildingBlock: AJUNOK_clean_linker_0, # of connection points: 2
#     Edge 46, Type (0, 1), BuildingBlock: AJUNOK_clean_linker_0, # of connection points: 2
#     Edge 47, Type (0, 1), BuildingBlock: AJUNOK_clean_linker_0, # of connection points: 2
#     Edge 48, Type (0, 1), BuildingBlock: AJUNOK_clean_linker_0, # of connection points: 2
#     Edge 49, Type (0, 1), BuildingBlock: AJUNOK_clean_linker_0, # of connection points: 2
#     Edge 50, Type (0, 1), BuildingBlock: AJUNOK_clean_linker_0, # of connection points: 2
#     Edge 51, Type (0, 1), BuildingBlock: AJUNOK_clean_linker_0, # of connection points: 2
#     Edge 52, Type (0, 1), BuildingBlock: AJUNOK_clean_linker_0, # of connection points: 2
#     Edge 53, Type (0, 1), BuildingBlock: AJUNOK_clean_linker_0, # of connection points: 2
#     Edge 54, Type (0, 1), BuildingBlock: AJUNOK_clean_linker_0, # of connection points: 2
#     Edge 55, Type (0, 1), BuildingBlock: AJUNOK_clean_linker_0, # of connection points: 2
#     Edge 56, Type (0, 1), BuildingBlock: AJUNOK_clean_linker_0, # of connection points: 2
#     Edge 57, Type (0, 1), BuildingBlock: AJUNOK_clean_linker_0, # of connection points: 2
#     Edge 58, Type (0, 1), BuildingBlock: AJUNOK_clean_linker_0, # of connection points: 2
#     Edge 59, Type (0, 1), BuildingBlock: AJUNOK_clean_linker_0, # of connection points: 2
#     Edge 60, Type (0, 1), BuildingBlock: AJUNOK_clean_linker_0, # of connection points: 2
#     Edge 61, Type (0, 1), BuildingBlock: AJUNOK_clean_linker_0, # of connection points: 2
#     Edge 62, Type (0, 1), BuildingBlock: AJUNOK_clean_linker_0, # of connection points: 2
#     Edge 63, Type (0, 1), BuildingBlock: AJUNOK_clean_linker_0, # of connection points: 2
#     Edge 64, Type (0, 1), BuildingBlock: AJUNOK_clean_linker_0, # of connection points: 2
#     Edge 65, Type (0, 1), BuildingBlock: AJUNOK_clean_linker_0, # of connection points: 2
#     Edge 66, Type (0, 1), BuildingBlock: AJUNOK_clean_linker_0, # of connection points: 2
#     Edge 67, Type (0, 1), BuildingBlock: AJUNOK_clean_linker_0, # of connection points: 2
#     Edge 68, Type (0, 1), BuildingBlock: AJUNOK_clean_linker_0, # of connection points: 2
#     Edge 69, Type (0, 1), BuildingBlock: AJUNOK_clean_linker_0, # of connection points: 2
#     Edge 70, Type (0, 1), BuildingBlock: AJUNOK_clean_linker_0, # of connection points: 2
#     Edge 71, Type (0, 1), BuildingBlock: AJUNOK_clean_linker_0, # of connection points: 2
#     Edge 72, Type (0, 1), BuildingBlock: AJUNOK_clean_linker_0, # of connection points: 2
#     Edge 73, Type (0, 1), BuildingBlock: AJUNOK_clean_linker_0, # of connection points: 2
#     Edge 74, Type (0, 1), BuildingBlock: AJUNOK_clean_linker_0, # of connection points: 2
#     Edge 75, Type (0, 1), BuildingBlock: AJUNOK_clean_linker_0, # of connection points: 2
#     Edge 76, Type (0, 1), BuildingBlock: AJUNOK_clean_linker_0, # of connection points: 2
#     Edge 77, Type (0, 1), BuildingBlock: AJUNOK_clean_linker_0, # of connection points: 2
#     Edge 78, Type (0, 1), BuildingBlock: AJUNOK_clean_linker_0, # of connection points: 2
#     Edge 79, Type (0, 1), BuildingBlock: AJUNOK_clean_linker_0, # of connection points: 2
#     Edge 80, Type (0, 1), BuildingBlock: AJUNOK_clean_linker_0, # of connection points: 2
#     Edge 81, Type (0, 1), BuildingBlock: AJUNOK_clean_linker_0, # of connection points: 2
#     Edge 82, Type (0, 1), BuildingBlock: AJUNOK_clean_linker_0, # of connection points: 2
#     Edge 83, Type (0, 1), BuildingBlock: AJUNOK_clean_linker_0, # of connection points: 2
#     Edge 84, Type (0, 1), BuildingBlock: AJUNOK_clean_linker_0, # of connection points: 2
#     Edge 85, Type (0, 1), BuildingBlock: AJUNOK_clean_linker_0, # of connection points: 2
#     Edge 86, Type (0, 1), BuildingBlock: AJUNOK_clean_linker_0, # of connection points: 2
#     Edge 87, Type (0, 1), BuildingBlock: AJUNOK_clean_linker_0, # of connection points: 2
#     Edge 88, Type (0, 1), BuildingBlock: AJUNOK_clean_linker_0, # of connection points: 2
#     Edge 89, Type (0, 1), BuildingBlock: AJUNOK_clean_linker_0, # of connection points: 2
#     Edge 90, Type (0, 1), BuildingBlock: AJUNOK_clean_linker_0, # of connection points: 2
#     Edge 91, Type (0, 1), BuildingBlock: AJUNOK_clean_linker_0, # of connection points: 2
#     Edge 92, Type (0, 1), BuildingBlock: AJUNOK_clean_linker_0, # of connection points: 2
#     Edge 93, Type (0, 1), BuildingBlock: AJUNOK_clean_linker_0, # of connection points: 2
#     Edge 94, Type (0, 1), BuildingBlock: AJUNOK_clean_linker_0, # of connection points: 2
#     Edge 95, Type (0, 1), BuildingBlock: AJUNOK_clean_linker_0, # of connection points: 2
#     Edge 96, Type (0, 1), BuildingBlock: AJUNOK_clean_linker_0, # of connection points: 2
#     Edge 97, Type (0, 1), BuildingBlock: AJUNOK_clean_linker_0, # of connection points: 2
#     Edge 98, Type (0, 1), BuildingBlock: AJUNOK_clean_linker_0, # of connection points: 2
#     Edge 99, Type (0, 1), BuildingBlock: AJUNOK_clean_linker_0, # of connection points: 2
#     Edge 100, Type (0, 1), BuildingBlock: AJUNOK_clean_linker_0, # of connection points: 2
#     Edge 101, Type (0, 1), BuildingBlock: AJUNOK_clean_linker_0, # of connection points: 2
#     Edge 102, Type (0, 1), BuildingBlock: AJUNOK_clean_linker_0, # of connection points: 2
#     Edge 103, Type (0, 1), BuildingBlock: AJUNOK_clean_linker_0, # of connection points: 2
#     Edge 104, Type (0, 1), BuildingBlock: AJUNOK_clean_linker_0, # of connection points: 2
#     Edge 105, Type (0, 1), BuildingBlock: AJUNOK_clean_linker_0, # of connection points: 2
#     Edge 106, Type (0, 1), BuildingBlock: AJUNOK_clean_linker_0, # of connection points: 2
#     Edge 107, Type (0, 1), BuildingBlock: AJUNOK_clean_linker_0, # of connection points: 2
# Relax obj value: 0.037
# Max RMSD: 0.120
# Mean RMSD: 0.059
data_MOF--net-ptr--node1-CEKHIL_clean_sbu_0--node2-MIFKUJ_clean_linker_1--edge1-AJUNOK_clean_linker_0
_symmetry_space_group_name_H-M    P1
_symmetry_Int_Tables_number       1
_symmetry_cell_setting            triclinic
loop_
_symmetry_equiv_pos_as_xyz
'x, y, z'
_cell_length_a     70.134683
_cell_length_b     69.395035
_cell_length_c     48.543594
_cell_angle_alpha  90.831999
_cell_angle_beta   89.497676
_cell_angle_gamma 120.97822
loop_
_atom_site_label
_atom_site_type_symbol
_atom_site_fract_x
_atom_site_fract_y
_atom_site_fract_z
_atom_type_partial_charge
Co0 Co 0.01323 0.35271 0.0123 0.0
O1 O 0.02114 0.33924 0.04109 0.0
O2 O 0.04532 0.36813 0.01621 0.0
C3 C 0.98792 0.31987 0.99208 0.0
O4 O 0.01145 0.37095 0.98059 0.0
Co5 Co 0.96503 0.34325 0.00573 0.0
O6 O 0.97564 0.3566 0.96885 0.0
C7 C 0.99505 0.37575 0.04822 0.0
C8 C 0.04175 0.35397 0.03572 0.0
C9 C 0.99633 0.36962 0.96438 0.0
O10 O 0.01136 0.37356 0.04012 0.0
O11 O 0.97539 0.36444 0.03818 0.0
O12 O 0.00892 0.32893 0.98621 0.0
O13 O 0.98319 0.33011 0.0108 0.0
Co14 Co 0.65859 0.65915 0.01026 0.0
O15 O 0.68207 0.67423 0.98368 0.0
O16 O 0.6747 0.64347 0.00568 0.0
C17 C 0.66538 0.69038 0.03366 0.0
O18 O 0.63642 0.6395 0.03989 0.0
Co19 Co 0.61994 0.66873 0.01376 0.0
O20 O 0.61219 0.65096 0.04805 0.0
C21 C 0.62169 0.6415 0.96771 0.0
C22 C 0.687 0.65888 0.98791 0.0
C23 C 0.62031 0.63876 0.05381 0.0
O24 O 0.63728 0.64034 0.97994 0.0
O25 O 0.614 0.65362 0.97666 0.0
O26 O 0.67689 0.68099 0.03889 0.0
O27 O 0.65181 0.68182 0.01323 0.0
Co28 Co 0.34955 1.00138 0.01166 0.0
O29 O 0.33569 0.0112 0.98586 0.0
O30 O 0.36492 0.03407 0.01127 0.0
C31 C 0.31781 0.97458 0.03199 0.0
O32 O 0.36787 0.99706 0.04092 0.0
Co33 Co 0.34007 0.95256 0.007 0.0
O34 O 0.35666 0.96034 0.04229 0.0
C35 C 0.37037 0.98619 0.96725 0.0
C36 C 0.35054 0.03166 0.99268 0.0
C37 C 0.36838 0.9804 0.05161 0.0
O38 O 0.36978 1.00165 0.98154 0.0
O39 O 0.35805 0.96523 0.97243 0.0
O40 O 0.3269 0.99554 0.03952 0.0
O41 O 0.32685 0.97098 0.01079 0.0
Co42 Co 0.99938 0.65716 0.01464 0.0
O43 O 0.99153 0.67271 0.98876 0.0
O44 O 0.9673 0.64172 0.01027 0.0
C45 C 0.02444 0.68815 0.03832 0.0
O46 O 1.00122 0.63692 0.04345 0.0
Co47 Co 0.04776 0.66655 0.0179 0.0
O48 O 0.03728 0.65074 0.05361 0.0
C49 C 0.01846 0.6394 0.97178 0.0
C50 C 0.9709 0.6574 0.99294 0.0
C51 C 0.01664 0.63762 0.05846 0.0
O52 O 1.00164 0.63867 0.98373 0.0
O53 O 0.03836 0.65102 0.98102 0.0
O54 O 1.00335 0.67876 0.04388 0.0
O55 O 0.0293 0.67969 0.01758 0.0
Co56 Co 0.34796 0.34593 0.01914 0.0
O57 O 0.32392 0.33142 0.04513 0.0
O58 O 0.33262 0.36236 0.02249 0.0
C59 C 0.34113 0.3146 0.99608 0.0
O60 O 0.37081 0.36517 0.99003 0.0
Co61 Co 0.38602 0.3354 0.01757 0.0
O62 O 0.39476 0.35317 0.98321 0.0
C63 C 0.38463 0.36396 0.06219 0.0
C64 C 0.31979 0.34727 0.04027 0.0
C65 C 0.38704 0.36561 0.97683 0.0
O66 O 0.3689 0.36468 0.04973 0.0
O67 O 0.39223 0.35156 0.05396 0.0
O68 O 0.32994 0.32424 0.99031 0.0
O69 O 0.35423 0.32287 0.01699 0.0
Co70 Co 0.66257 0.00656 0.01183 0.0
O71 O 0.67606 0.99748 0.03917 0.0
O72 O 0.64659 0.974 0.01456 0.0
C73 C 0.69464 0.0318 0.99063 0.0
O74 O 0.64442 0.0097 0.98116 0.0
Co75 Co 0.67318 0.05583 0.01004 0.0
O76 O 0.6582 0.04644 0.97377 0.0
C77 C 0.64048 0.02451 0.05048 0.0
C78 C 0.66095 0.97686 0.03339 0.0
C79 C 0.64527 0.02584 0.96725 0.0
O80 O 0.64262 0.00833 0.04089 0.0
O81 O 0.65189 0.04475 0.04191 0.0
O82 O 0.68506 0.01051 0.98464 0.0
O83 O 0.68579 0.03681 0.01079 0.0
Co84 Co 0.67932 0.68683 0.34071 0.0
O85 O 0.68493 0.67196 0.37016 0.0
O86 O 0.71102 0.70061 0.34662 0.0
C87 C 0.65368 0.65507 0.31842 0.0
O88 O 0.68033 0.70637 0.3087 0.0
Co89 Co 0.63293 0.68109 0.33186 0.0
O90 O 0.64543 0.69565 0.29611 0.0
C91 C 0.66198 0.7111 0.37621 0.0
C92 C 0.70595 0.68603 0.36604 0.0
C93 C 0.66633 0.70698 0.29224 0.0
O94 O 0.67786 0.70811 0.36838 0.0
O95 O 0.64259 0.70088 0.36541 0.0
O96 O 0.67479 0.66291 0.31476 0.0
O97 O 0.64881 0.66546 0.33686 0.0
Co98 Co 0.32825 0.99213 0.34478 0.0
O99 O 0.35124 0.00704 0.31747 0.0
O100 O 0.34393 0.97614 0.33925 0.0
C101 C 0.33622 0.02385 0.36805 0.0
O102 O 0.30688 0.97249 0.37501 0.0
Co103 Co 0.29008 0.00203 0.35309 0.0
O104 O 0.28544 0.98626 0.3885 0.0
C105 C 0.28739 0.97131 0.30801 0.0
C106 C 0.35617 0.99167 0.32164 0.0
C107 C 0.29261 0.97288 0.39153 0.0
O108 O 0.30581 0.97309 0.3155 0.0
O109 O 0.27925 0.9823 0.31935 0.0
O110 O 0.34752 0.01414 0.37273 0.0
O111 O 0.32173 0.01503 0.34859 0.0
Co112 Co 0.01634 0.33908 0.34847 0.0
O113 O 1.00272 0.3492 0.32268 0.0
O114 O 0.03319 0.37177 0.3464 0.0
C115 C 0.98442 0.31402 0.36994 0.0
O116 O 0.03445 0.3345 0.37788 0.0
Co117 Co 1.00428 0.28926 0.34685 0.0
O118 O 0.01944 0.29727 0.38312 0.0
C119 C 0.03623 0.32098 0.30652 0.0
C120 C 0.01843 0.36953 0.32851 0.0
C121 C 0.03277 0.31752 0.39076 0.0
O122 O 0.03544 0.33726 0.31835 0.0
O123 O 0.02428 0.30044 0.31371 0.0
O124 O 0.99457 0.33521 0.37669 0.0
O125 O 0.99263 0.30914 0.34894 0.0
Co126 Co 0.66798 0.98958 0.34784 0.0
O127 O 0.66032 0.00499 0.32141 0.0
O128 O 0.63592 0.97399 0.34296 0.0
C129 C 0.69294 0.02125 0.37069 0.0
O130 O 0.66942 0.96942 0.37725 0.0
Co131 Co 0.71613 0.99883 0.3535 0.0
O132 O 0.7051 0.98291 0.38898 0.0
C133 C 0.68748 0.97058 0.30724 0.0
C134 C 0.63969 0.98968 0.32558 0.0
C135 C 0.68434 0.96968 0.39286 0.0
O136 O 0.67064 0.97089 0.31752 0.0
O137 O 0.70706 0.9818 0.31755 0.0
O138 O 0.67185 0.0117 0.37642 0.0
O139 O 0.69787 0.01208 0.35085 0.0
Co140 Co 0.01432 0.68069 0.35049 0.0
O141 O 0.99088 0.66482 0.37693 0.0
O142 O 0.99776 0.6958 0.3559 0.0
C143 C 0.00802 0.64994 0.32632 0.0
O144 O 0.03634 0.70126 0.32138 0.0
Co145 Co 0.05357 0.67207 0.34479 0.0
O146 O 0.05922 0.68868 0.30977 0.0
C147 C 0.05176 0.6985 0.3921 0.0
C148 C 0.98561 0.67999 0.37329 0.0
C149 C 0.05148 0.7015 0.3059 0.0
O150 O 0.03553 0.69919 0.38096 0.0
O151 O 0.05992 0.68711 0.38201 0.0
O152 O 0.99624 0.65911 0.32145 0.0
O153 O 0.0217 0.65853 0.34662 0.0
Co154 Co 0.32844 0.33596 0.34797 0.0
O155 O 0.34263 0.32745 0.375 0.0
O156 O 0.31232 0.30339 0.35202 0.0
C157 C 0.36029 0.36044 0.32578 0.0
O158 O 0.30983 0.3387 0.31743 0.0
Co159 Co 0.3395 0.38539 0.34551 0.0
O160 O 0.32401 0.3755 0.3096 0.0
C161 C 0.30865 0.35542 0.38836 0.0
C162 C 0.32752 0.30673 0.36984 0.0
C163 C 0.31103 0.35488 0.30319 0.0
O164 O 0.30926 0.33868 0.37745 0.0
O165 O 0.32079 0.37557 0.37979 0.0
O166 O 0.35046 0.33903 0.32049 0.0
O167 O 0.35174 0.36606 0.34569 0.0
Co168 Co 0.34096 0.01584 0.68181 0.0
O169 O 0.35011 1.00082 0.70657 0.0
O170 O 0.37333 0.03175 0.68434 0.0
C171 C 0.31549 0.9843 0.65932 0.0
O172 O 0.33696 0.03541 0.65379 0.0
Co173 Co 0.29179 0.00438 0.6844 0.0
O174 O 0.30032 0.02239 0.65031 0.0
C175 C 0.32335 0.033 0.7276 0.0
C176 C 0.37049 0.01623 0.70155 0.0
C177 C 0.32035 0.0355 0.64258 0.0
O178 O 0.33958 0.03428 0.71347 0.0
O179 O 0.30293 0.0202 0.72078 0.0
O180 O 0.33634 0.99422 0.65226 0.0
O181 O 0.31131 0.99266 0.68074 0.0
Co182 Co 0.99543 0.32887 0.67507 0.0
O183 O 0.01912 0.3438 0.64871 0.0
O184 O 0.01127 0.3129 0.67073 0.0
C185 C 1.00222 0.36003 0.69863 0.0
O186 O 0.97296 0.30931 0.70447 0.0
Co187 Co 0.9571 0.33901 0.67779 0.0
O188 O 0.94902 0.32124 0.71211 0.0
C189 C 0.95832 0.31088 0.63255 0.0
C190 C 0.02378 0.32827 0.65303 0.0
C191 C 0.95685 0.3088 0.7181 0.0
O192 O 0.97421 0.31016 0.64463 0.0
O193 O 0.95071 0.32315 0.64119 0.0
O194 O 0.01363 0.35054 0.7039 0.0
O195 O 0.9889 0.35173 0.67793 0.0
Co196 Co 0.67925 0.66698 0.67969 0.0
O197 O 0.66423 0.67589 0.6545 0.0
O198 O 0.69522 0.69962 0.67655 0.0
C199 C 0.64831 0.64186 0.70281 0.0
O200 O 0.69873 0.66366 0.70834 0.0
Co201 Co 0.66854 0.61768 0.67897 0.0
O202 O 0.6848 0.62671 0.71449 0.0
C203 C 0.69812 0.64876 0.63623 0.0
C204 C 0.67959 0.69652 0.65955 0.0
C205 C 0.69801 0.64719 0.72137 0.0
O206 O 0.69756 0.66504 0.64854 0.0
O207 O 0.68643 0.62834 0.64409 0.0
O208 O 0.65823 0.66315 0.70895 0.0
O209 O 0.65612 0.63686 0.6815 0.0
Co210 Co 0.33159 0.32104 0.68284 0.0
O211 O 0.3247 0.33623 0.65529 0.0
O212 O 0.29967 0.30564 0.67679 0.0
C213 C 0.35587 0.3526 0.70619 0.0
O214 O 0.33233 0.30109 0.71307 0.0
Co215 Co 0.37961 0.3304 0.69062 0.0
O216 O 0.36779 0.31513 0.72629 0.0
C217 C 0.35139 0.30044 0.6452 0.0
C218 C 0.30392 0.32111 0.65883 0.0
C219 C 0.34699 0.30171 0.72953 0.0
O220 O 0.33474 0.30199 0.65347 0.0
O221 O 0.37066 0.3112 0.65638 0.0
O222 O 0.33464 0.34313 0.71083 0.0
O223 O 0.36146 0.34367 0.68671 0.0
Co224 Co 0.68427 0.01518 0.68281 0.0
O225 O 0.66191 1.00026 0.71098 0.0
O226 O 0.66694 0.02941 0.687 0.0
C227 C 0.67878 0.98391 0.66036 0.0
O228 O 0.7046 0.03478 0.65187 0.0
Co229 Co 0.7252 0.00944 0.67824 0.0
O230 O 0.73187 0.02737 0.64424 0.0
C231 C 0.72246 0.03629 0.72366 0.0
C232 C 0.65595 0.01478 0.70604 0.0
C233 C 0.72156 0.03737 0.63818 0.0
O234 O 0.70601 0.03598 0.71166 0.0
O235 O 0.73089 0.02475 0.71507 0.0
O236 O 0.66573 0.99168 0.65587 0.0
O237 O 0.69307 0.99382 0.67992 0.0
Co238 Co 0.99258 0.66982 0.6809 0.0
O239 O 0.00766 0.66192 0.70744 0.0
O240 O 0.97783 0.63731 0.68404 0.0
C241 C 0.02373 0.69605 0.6588 0.0
O242 O 0.97323 0.67174 0.65072 0.0
Co243 Co 1.00043 0.71805 0.6812 0.0
O244 O 0.98376 0.70812 0.64608 0.0
C245 C 0.9713 0.68631 0.72336 0.0
C246 C 0.99307 0.64106 0.70199 0.0
C247 C 0.97265 0.68768 0.63809 0.0
O248 O 0.97262 0.67054 0.71084 0.0
O249 O 0.98264 0.70687 0.71598 0.0
O250 O 0.01511 0.67481 0.65312 0.0
O251 O 0.0147 0.70051 0.67929 0.0
H252 H 0.16169 0.37278 0.21777 0.0
H253 H 0.13189 0.36879 0.24817 0.0
H254 H 0.08428 0.3103 0.20168 0.0
H255 H 0.11418 0.31433 0.17118 0.0
H256 H 0.17558 0.3442 0.21224 0.0
H257 H 0.14425 0.37508 0.15427 0.0
H258 H 0.1162 0.37764 0.12745 0.0
H259 H 0.10945 0.32476 0.07324 0.0
H260 H 0.13659 0.32121 0.10086 0.0
H261 H 0.19128 0.31536 0.10765 0.0
H262 H 0.22175 0.31671 0.08089 0.0
H263 H 0.26868 0.3781 0.12324 0.0
H264 H 0.23814 0.3769 0.14965 0.0
H265 H 0.17749 0.34624 0.11018 0.0
H266 H 0.20542 0.31274 0.17625 0.0
H267 H 0.23447 0.31267 0.20441 0.0
H268 H 0.2503 0.37635 0.24062 0.0
H269 H 0.22124 0.37627 0.21291 0.0
C270 C 0.14021 0.34382 0.19223 0.0
C271 C 0.14482 0.35918 0.21397 0.0
C272 C 0.12781 0.35687 0.23135 0.0
C273 C 0.10586 0.33905 0.22748 0.0
C274 C 0.10106 0.32421 0.20506 0.0
C275 C 0.11812 0.3265 0.18765 0.0
C276 C 0.15876 0.3451 0.1757 0.0
C277 C 0.17603 0.34486 0.18991 0.0
C278 C 0.15922 0.34571 0.14648 0.0
C279 C 0.14233 0.3476 0.13007 0.0
C280 C 0.13648 0.36367 0.13699 0.0
C281 C 0.12063 0.36533 0.12153 0.0
C282 C 0.11082 0.35142 0.09837 0.0
C283 C 0.11692 0.33571 0.09099 0.0
C284 C 0.13244 0.33373 0.10677 0.0
C285 C 0.21246 0.34591 0.13079 0.0
C286 C 0.20812 0.32915 0.11109 0.0
C287 C 0.2255 0.3299 0.0959 0.0
C288 C 0.24751 0.3476 0.09988 0.0
C289 C 0.25183 0.36445 0.11949 0.0
C290 C 0.23444 0.36364 0.13478 0.0
C291 C 0.19393 0.34506 0.14679 0.0
C292 C 0.17674 0.3454 0.13249 0.0
C293 C 0.19358 0.34481 0.17591 0.0
C294 C 0.21127 0.3446 0.19236 0.0
C295 C 0.21521 0.3267 0.19022 0.0
C296 C 0.23168 0.3266 0.20634 0.0
C297 C 0.24467 0.34458 0.22448 0.0
C298 C 0.24064 0.3624 0.22658 0.0
C299 C 0.22403 0.36233 0.21084 0.0
H300 H 0.70739 0.90135 0.16892 0.0
H301 H 0.70951 0.93067 0.19974 0.0
H302 H 0.64294 0.88442 0.22868 0.0
H303 H 0.64075 0.85539 0.19725 0.0
H304 H 0.67843 0.84372 0.20149 0.0
H305 H 0.70355 0.89534 0.11629 0.0
H306 H 0.70014 0.92363 0.09077 0.0
H307 H 0.62856 0.88186 0.09468 0.0
H308 H 0.63217 0.85351 0.12007 0.0
H309 H 0.63791 0.78856 0.10702 0.0
H310 H 0.63629 0.75621 0.08369 0.0
H311 H 0.7039 0.77992 0.10863 0.0
H312 H 0.70521 0.81192 0.13243 0.0
H313 H 0.66711 0.83557 0.10019 0.0
H314 H 0.64302 0.78034 0.17347 0.0
H315 H 0.64457 0.75222 0.20136 0.0
H316 H 0.71304 0.80039 0.22181 0.0
H317 H 0.71093 0.82887 0.19477 0.0
C318 C 0.67385 0.87637 0.18069 0.0
C319 C 0.69305 0.89778 0.18132 0.0
C320 C 0.69426 0.91443 0.19902 0.0
C321 C 0.67633 0.90985 0.21648 0.0
C322 C 0.65682 0.88858 0.21508 0.0
C323 C 0.65562 0.87195 0.19732 0.0
C324 C 0.6736 0.85792 0.16489 0.0
C325 C 0.67619 0.84203 0.17932 0.0
C326 C 0.67038 0.85568 0.1361 0.0
C327 C 0.66812 0.87242 0.1201 0.0
C328 C 0.68714 0.89228 0.11157 0.0
C329 C 0.68515 0.90841 0.09704 0.0
C330 C 0.66408 0.90494 0.09055 0.0
C331 C 0.64502 0.88487 0.09893 0.0
C332 C 0.64704 0.86874 0.11357 0.0
C333 C 0.67163 0.80254 0.1215 0.0
C334 C 0.65238 0.78679 0.10736 0.0
C335 C 0.65147 0.76832 0.09413 0.0
C336 C 0.66987 0.76537 0.09466 0.0
C337 C 0.68927 0.78141 0.10848 0.0
C338 C 0.69011 0.7998 0.12184 0.0
C339 C 0.67215 0.82141 0.13678 0.0
C340 C 0.66953 0.83732 0.12232 0.0
C341 C 0.67547 0.82377 0.1656 0.0
C342 C 0.67687 0.80664 0.18198 0.0
C343 C 0.65841 0.78478 0.18381 0.0
C344 C 0.65945 0.76863 0.19949 0.0
C345 C 0.67914 0.77383 0.21334 0.0
C346 C 0.69766 0.79578 0.21137 0.0
C347 C 0.69649 0.81207 0.19596 0.0
H348 H 0.11476 0.81933 0.19591 0.0
H349 H 0.08733 0.78975 0.22595 0.0
H350 H 0.12137 0.75297 0.21507 0.0
H351 H 0.14761 0.78179 0.18366 0.0
H352 H 0.16655 0.84208 0.2056 0.0
H353 H 0.10832 0.80759 0.13941 0.0
H354 H 0.07717 0.77565 0.11589 0.0
H355 H 0.12118 0.75323 0.08742 0.0
H356 H 0.15245 0.78558 0.11063 0.0
H357 H 0.21793 0.84891 0.11149 0.0
H358 H 0.24993 0.87759 0.08561 0.0
H359 H 0.23 0.92571 0.10489 0.0
H360 H 0.19853 0.89715 0.13151 0.0
H361 H 0.17055 0.83234 0.1046 0.0
H362 H 0.22653 0.8647 0.18229 0.0
H363 H 0.25284 0.89352 0.21472 0.0
H364 H 0.20997 0.92104 0.22116 0.0
H365 H 0.18343 0.8917 0.18981 0.0
C366 C 0.13315 0.80267 0.18766 0.0
C367 C 0.11609 0.80474 0.19988 0.0
C368 C 0.10059 0.78793 0.21728 0.0
C369 C 0.10234 0.76911 0.22344 0.0
C370 C 0.11935 0.76707 0.2107 0.0
C371 C 0.13447 0.78359 0.19285 0.0
C372 C 0.15036 0.82081 0.1704 0.0
C373 C 0.16724 0.84014 0.18345 0.0
C374 C 0.15131 0.81809 0.14164 0.0
C375 C 0.13265 0.79883 0.12694 0.0
C376 C 0.11122 0.79569 0.12828 0.0
C377 C 0.0934 0.77734 0.115 0.0
C378 C 0.09663 0.76169 0.1002 0.0
C379 C 0.11818 0.765 0.09869 0.0
C380 C 0.13605 0.78346 0.11188 0.0
C381 C 0.20589 0.8709 0.12345 0.0
C382 C 0.22043 0.86562 0.11 0.0
C383 C 0.23863 0.88201 0.09506 0.0
C384 C 0.2424 0.90392 0.09285 0.0
C385 C 0.22769 0.90908 0.1063 0.0
C386 C 0.20965 0.89275 0.12146 0.0
C387 C 0.18694 0.8537 0.1399 0.0
C388 C 0.16979 0.8344 0.1267 0.0
C389 C 0.18546 0.85659 0.16854 0.0
C390 C 0.20304 0.87607 0.18395 0.0
C391 C 0.22305 0.87719 0.19043 0.0
C392 C 0.23804 0.89364 0.20887 0.0
C393 C 0.23316 0.90915 0.22096 0.0
C394 C 0.21383 0.90888 0.2128 0.0
C395 C 0.19876 0.89229 0.19474 0.0
H396 H 0.30074 0.18159 0.83394 0.0
H397 H 0.29942 0.20965 0.80522 0.0
H398 H 0.36981 0.25497 0.8186 0.0
H399 H 0.37054 0.22742 0.84862 0.0
H400 H 0.332 0.16416 0.82522 0.0
H401 H 0.30714 0.19659 0.89328 0.0
H402 H 0.30688 0.22741 0.91798 0.0
H403 H 0.37506 0.2537 0.94252 0.0
H404 H 0.37501 0.22243 0.91827 0.0
H405 H 0.37831 0.15952 0.91881 0.0
H406 H 0.38161 0.13106 0.94411 0.0
H407 H 0.31275 0.0824 0.92622 0.0
H408 H 0.30998 0.11062 0.8999 0.0
H409 H 0.34715 0.17546 0.92566 0.0
H410 H 0.36847 0.13765 0.85877 0.0
H411 H 0.3665 0.10708 0.83059 0.0
H412 H 0.30183 0.0906 0.80107 0.0
H413 H 0.30345 0.12044 0.83003 0.0
C414 C 0.33575 0.20244 0.84333 0.0
C415 C 0.31582 0.19766 0.83074 0.0
C416 C 0.31516 0.21366 0.81411 0.0
C417 C 0.3346 0.23452 0.80911 0.0
C418 C 0.35446 0.23923 0.82211 0.0
C419 C 0.35498 0.22344 0.83916 0.0
C420 C 0.3368 0.18539 0.86031 0.0
C421 C 0.33496 0.16639 0.84726 0.0
C422 C 0.34109 0.1886 0.88888 0.0
C423 C 0.34115 0.20736 0.90382 0.0
C424 C 0.32208 0.2091 0.90382 0.0
C425 C 0.322 0.2268 0.91775 0.0
C426 C 0.34106 0.24316 0.93182 0.0
C427 C 0.36013 0.24131 0.93187 0.0
C428 C 0.36013 0.2235 0.91807 0.0
C429 C 0.34394 0.13716 0.90735 0.0
C430 C 0.36391 0.14274 0.92054 0.0
C431 C 0.36571 0.12647 0.9352 0.0
C432 C 0.34739 0.10441 0.93747 0.0
C433 C 0.32727 0.09911 0.92469 0.0
C434 C 0.32561 0.11525 0.90973 0.0
C435 C 0.34228 0.154 0.89057 0.0
C436 C 0.34413 0.17309 0.90365 0.0
C437 C 0.33764 0.15064 0.86199 0.0
C438 C 0.33604 0.13125 0.84661 0.0
C439 C 0.35368 0.12714 0.84666 0.0
C440 C 0.35267 0.10987 0.83031 0.0
C441 C 0.33411 0.09662 0.81344 0.0
C442 C 0.31628 0.10044 0.81399 0.0
C443 C 0.31725 0.11758 0.83038 0.0
H444 H 0.83207 0.1263 0.82224 0.0
H445 H 0.80372 0.09666 0.79299 0.0
H446 H 0.75408 0.10892 0.82817 0.0
H447 H 0.7828 0.13926 0.85681 0.0
H448 H 0.84555 0.17025 0.82112 0.0
H449 H 0.81486 0.11149 0.89078 0.0
H450 H 0.78339 0.08141 0.91581 0.0
H451 H 0.76427 0.12859 0.94343 0.0
H452 H 0.79635 0.15877 0.91922 0.0
H453 H 0.86039 0.22119 0.92106 0.0
H454 H 0.89118 0.25229 0.94614 0.0
H455 H 0.93626 0.23297 0.91252 0.0
H456 H 0.90548 0.20242 0.88652 0.0
H457 H 0.84333 0.17493 0.92305 0.0
H458 H 0.87616 0.23444 0.85961 0.0
H459 H 0.90212 0.26422 0.82903 0.0
H460 H 0.91279 0.21636 0.78418 0.0
H461 H 0.88774 0.18684 0.8158 0.0
C462 C 0.80955 0.13492 0.84177 0.0
C463 C 0.81508 0.12259 0.82373 0.0
C464 C 0.79884 0.10557 0.80717 0.0
C465 C 0.77672 0.10056 0.80824 0.0
C466 C 0.77106 0.11263 0.82668 0.0
C467 C 0.78739 0.12977 0.84325 0.0
C468 C 0.82732 0.15391 0.85787 0.0
C469 C 0.84536 0.17111 0.84345 0.0
C470 C 0.82641 0.15537 0.88688 0.0
C471 C 0.80787 0.13733 0.90302 0.0
C472 C 0.80391 0.11533 0.90231 0.0
C473 C 0.78576 0.09811 0.91639 0.0
C474 C 0.771 0.10246 0.93119 0.0
C475 C 0.77531 0.12465 0.93228 0.0
C476 C 0.79362 0.14192 0.91846 0.0
C477 C 0.88065 0.20948 0.90202 0.0
C478 C 0.87689 0.2236 0.91922 0.0
C479 C 0.89449 0.24128 0.93365 0.0
C480 C 0.91612 0.24485 0.93173 0.0
C481 C 0.91983 0.23069 0.91439 0.0
C482 C 0.90226 0.21319 0.89964 0.0
C483 C 0.86205 0.19103 0.88628 0.0
C484 C 0.84376 0.174 0.90075 0.0
C485 C 0.86266 0.1898 0.85718 0.0
C486 C 0.88015 0.20837 0.84033 0.0
C487 C 0.88463 0.23045 0.84381 0.0
C488 C 0.8993 0.24744 0.82609 0.0
C489 C 0.90961 0.2427 0.80424 0.0
C490 C 0.90552 0.22071 0.80114 0.0
C491 C 0.89099 0.20375 0.81904 0.0
H492 H 0.78757 0.6262 0.81572 0.0
H493 H 0.75966 0.62597 0.78575 0.0
H494 H 0.77072 0.68728 0.8245 0.0
H495 H 0.79909 0.68767 0.8543 0.0
H496 H 0.83127 0.65692 0.81901 0.0
H497 H 0.76812 0.62642 0.88158 0.0
H498 H 0.73782 0.62662 0.90706 0.0
H499 H 0.78551 0.6888 0.94727 0.0
H500 H 0.81569 0.68872 0.92155 0.0
H501 H 0.87322 0.68737 0.92589 0.0
H502 H 0.90237 0.68708 0.95303 0.0
H503 H 0.88999 0.62674 0.91031 0.0
H504 H 0.86063 0.6269 0.88337 0.0
H505 H 0.82944 0.65852 0.92111 0.0
H506 H 0.89224 0.68931 0.86203 0.0
H507 H 0.92331 0.69427 0.8335 0.0
H508 H 0.87811 0.63599 0.78482 0.0
H509 H 0.8472 0.63048 0.81417 0.0
C510 C 0.79535 0.65684 0.83743 0.0
C511 C 0.78402 0.63961 0.81782 0.0
C512 C 0.76801 0.63946 0.80077 0.0
C513 C 0.76304 0.65665 0.8027 0.0
C514 C 0.77437 0.67395 0.82233 0.0
C515 C 0.79039 0.67404 0.83955 0.0
C516 C 0.81294 0.65709 0.85471 0.0
C517 C 0.83068 0.65686 0.84136 0.0
C518 C 0.81259 0.65789 0.88387 0.0
C519 C 0.79415 0.65773 0.89937 0.0
C520 C 0.77203 0.64017 0.89574 0.0
C521 C 0.75477 0.6402 0.91043 0.0
C522 C 0.75933 0.65784 0.92889 0.0
C523 C 0.78151 0.67518 0.93283 0.0
C524 C 0.79875 0.67509 0.91828 0.0
C525 C 0.86488 0.65732 0.90233 0.0
C526 C 0.87668 0.67401 0.92244 0.0
C527 C 0.89342 0.67391 0.93781 0.0
C528 C 0.89859 0.65702 0.93354 0.0
C529 C 0.88635 0.63996 0.91399 0.0
C530 C 0.8697 0.64014 0.89848 0.0
C531 C 0.8476 0.65791 0.88538 0.0
C532 C 0.82997 0.65837 0.89877 0.0
C533 C 0.84815 0.65752 0.8562 0.0
C534 C 0.86734 0.65936 0.84049 0.0
C535 C 0.88906 0.67718 0.84575 0.0
C536 C 0.90681 0.68013 0.82927 0.0
C537 C 0.9032 0.66543 0.80702 0.0
C538 C 0.88154 0.64731 0.80215 0.0
C539 C 0.86381 0.64429 0.81874 0.0
H540 H 0.8228 0.70133 0.54913 0.0
H541 H 0.79156 0.69596 0.57765 0.0
H542 H 0.74643 0.63955 0.52633 0.0
H543 H 0.77785 0.64446 0.49841 0.0
H544 H 0.83827 0.67452 0.54252 0.0
H545 H 0.80785 0.70592 0.48459 0.0
H546 H 0.77931 0.70803 0.45834 0.0
H547 H 0.7735 0.65613 0.40303 0.0
H548 H 0.8012 0.65305 0.43009 0.0
H549 H 0.85571 0.64701 0.43858 0.0
H550 H 0.88641 0.64791 0.41294 0.0
H551 H 0.93313 0.70924 0.45553 0.0
H552 H 0.90232 0.70844 0.48096 0.0
H553 H 0.84212 0.67818 0.44055 0.0
H554 H 0.86986 0.64465 0.50726 0.0
H555 H 0.89869 0.64498 0.53633 0.0
H556 H 0.91241 0.70782 0.57308 0.0
H557 H 0.88366 0.70738 0.5444 0.0
C558 C 0.80271 0.67339 0.52151 0.0
C559 C 0.80616 0.6879 0.54388 0.0
C560 C 0.78825 0.68499 0.55996 0.0
C561 C 0.76649 0.66751 0.55401 0.0
C562 C 0.76301 0.6532 0.53136 0.0
C563 C 0.78094 0.65607 0.51531 0.0
C564 C 0.82199 0.67566 0.50561 0.0
C565 C 0.83917 0.67557 0.52022 0.0
C566 C 0.82313 0.67692 0.47644 0.0
C567 C 0.80642 0.67894 0.45981 0.0
C568 C 0.80022 0.69468 0.46713 0.0
C569 C 0.78406 0.69604 0.45203 0.0
C570 C 0.77425 0.68217 0.42884 0.0
C571 C 0.7809 0.66698 0.42088 0.0
C572 C 0.79674 0.66528 0.43631 0.0
C573 C 0.87674 0.67749 0.46193 0.0
C574 C 0.87255 0.66066 0.44238 0.0
C575 C 0.89009 0.66112 0.42788 0.0
C576 C 0.91214 0.67852 0.43251 0.0
C577 C 0.91628 0.69564 0.45162 0.0
C578 C 0.89874 0.6951 0.46627 0.0
C579 C 0.85803 0.67667 0.47751 0.0
C580 C 0.84101 0.67705 0.46282 0.0
C581 C 0.85716 0.67608 0.50662 0.0
C582 C 0.87474 0.6761 0.52353 0.0
C583 C 0.87917 0.65853 0.52152 0.0
C584 C 0.89551 0.65865 0.53816 0.0
C585 C 0.90784 0.67651 0.55672 0.0
C586 C 0.9033 0.69399 0.5587 0.0
C587 C 0.88685 0.69372 0.54241 0.0
H588 H 0.37685 0.22293 0.52634 0.0
H589 H 0.37871 0.2517 0.5576 0.0
H590 H 0.30741 0.22149 0.55147 0.0
H591 H 0.30603 0.19363 0.51854 0.0
H592 H 0.3435 0.17256 0.54015 0.0
H593 H 0.3656 0.2319 0.4754 0.0
H594 H 0.36198 0.26006 0.45082 0.0
H595 H 0.30363 0.20758 0.4093 0.0
H596 H 0.30603 0.17935 0.43633 0.0
H597 H 0.30711 0.12044 0.44067 0.0
H598 H 0.30728 0.08948 0.41614 0.0
H599 H 0.3726 0.1114 0.44867 0.0
H600 H 0.37192 0.1418 0.47399 0.0
H601 H 0.3351 0.16649 0.43853 0.0
H602 H 0.31068 0.10772 0.50201 0.0
H603 H 0.30769 0.07864 0.53243 0.0
H604 H 0.366 0.12822 0.57663 0.0
H605 H 0.36975 0.15726 0.54504 0.0
C606 C 0.34136 0.20638 0.52004 0.0
C607 C 0.36173 0.22287 0.53126 0.0
C608 C 0.3627 0.23918 0.54925 0.0
C609 C 0.3432 0.23889 0.55713 0.0
C610 C 0.32281 0.22254 0.54539 0.0
C611 C 0.32194 0.2065 0.52677 0.0
C612 C 0.34033 0.18782 0.5036 0.0
C613 C 0.34202 0.17132 0.51787 0.0
C614 C 0.33743 0.18608 0.47465 0.0
C615 C 0.33576 0.20336 0.45847 0.0
C616 C 0.35163 0.22634 0.46165 0.0
C617 C 0.34987 0.24252 0.44689 0.0
C618 C 0.33275 0.23618 0.42753 0.0
C619 C 0.31699 0.21314 0.42407 0.0
C620 C 0.31847 0.19694 0.43937 0.0
C621 C 0.33942 0.1333 0.45926 0.0
C622 C 0.32146 0.11856 0.44248 0.0
C623 C 0.3216 0.10089 0.4285 0.0
C624 C 0.33985 0.0978 0.43073 0.0
C625 C 0.35803 0.11291 0.44713 0.0
C626 C 0.35776 0.13042 0.46138 0.0
C627 C 0.33881 0.15139 0.4751 0.0
C628 C 0.33669 0.16773 0.46078 0.0
C629 C 0.341 0.1529 0.50415 0.0
C630 C 0.34054 0.1348 0.52098 0.0
C631 C 0.32328 0.11234 0.51764 0.0
C632 C 0.32138 0.09572 0.53534 0.0
C633 C 0.33637 0.10121 0.55726 0.0
C634 C 0.3542 0.12347 0.55994 0.0
C635 C 0.35624 0.1401 0.54201 0.0
H636 H 0.77311 0.14761 0.51685 0.0
H637 H 0.74683 0.11702 0.54683 0.0
H638 H 0.79475 0.0961 0.55647 0.0
H639 H 0.82031 0.12594 0.52564 0.0
H640 H 0.83228 0.17741 0.53772 0.0
H641 H 0.77283 0.14642 0.46422 0.0
H642 H 0.74278 0.11349 0.44022 0.0
H643 H 0.78698 0.08832 0.4257 0.0
H644 H 0.81698 0.12143 0.4493 0.0
H645 H 0.8795 0.1874 0.43848 0.0
H646 H 0.91215 0.21715 0.41462 0.0
H647 H 0.89511 0.26571 0.44302 0.0
H648 H 0.86296 0.23602 0.46757 0.0
H649 H 0.8331 0.17162 0.43574 0.0
H650 H 0.89438 0.20767 0.50032 0.0
H651 H 0.92385 0.23803 0.5281 0.0
H652 H 0.87546 0.25136 0.565 0.0
H653 H 0.84633 0.22171 0.53649 0.0
C654 C 0.79851 0.13884 0.51898 0.0
C655 C 0.77773 0.13619 0.52518 0.0
C656 C 0.76287 0.11888 0.54253 0.0
C657 C 0.76879 0.10425 0.55425 0.0
C658 C 0.78958 0.10692 0.54761 0.0
C659 C 0.80426 0.12402 0.53013 0.0
C660 C 0.81496 0.15767 0.50199 0.0
C661 C 0.83226 0.17647 0.51538 0.0
C662 C 0.81509 0.15602 0.47304 0.0
C663 C 0.79708 0.13633 0.45833 0.0
C664 C 0.77598 0.13377 0.45584 0.0
C665 C 0.75884 0.11495 0.44228 0.0
C666 C 0.76261 0.09848 0.43085 0.0
C667 C 0.78372 0.10097 0.4338 0.0
C668 C 0.80085 0.11981 0.44729 0.0
C669 C 0.86892 0.20954 0.45495 0.0
C670 C 0.88275 0.20444 0.43939 0.0
C671 C 0.9014 0.22146 0.42581 0.0
C672 C 0.90648 0.24389 0.42734 0.0
C673 C 0.89209 0.24876 0.44212 0.0
C674 C 0.87357 0.23178 0.45591 0.0
C675 C 0.85041 0.19186 0.47145 0.0
C676 C 0.83292 0.17301 0.45801 0.0
C677 C 0.85 0.1936 0.50052 0.0
C678 C 0.86818 0.21256 0.51619 0.0
C679 C 0.89022 0.21741 0.51404 0.0
C680 C 0.90698 0.23456 0.53013 0.0
C681 C 0.9019 0.24693 0.54884 0.0
C682 C 0.8799 0.24223 0.5506 0.0
C683 C 0.86321 0.2252 0.53448 0.0
H684 H 0.97091 0.51763 0.15996 0.0
H685 H 0.97052 0.5462 0.13119 0.0
H686 H 0.03871 0.59333 0.15406 0.0
H687 H 0.03847 0.56516 0.18379 0.0
H688 H 1.0016 0.50172 0.15487 0.0
H689 H 0.97474 0.53231 0.22252 0.0
H690 H 0.9741 0.56299 0.24711 0.0
H691 H 0.04121 0.588 0.27527 0.0
H692 H 0.04153 0.5569 0.25112 0.0
H693 H 0.0417 0.49747 0.2591 0.0
H694 H 0.04444 0.47011 0.28724 0.0
H695 H 0.98749 0.41623 0.24505 0.0
H696 H 0.98336 0.44361 0.21936 0.0
H697 H 0.01374 0.50998 0.25593 0.0
H698 H 0.04025 0.4799 0.17818 0.0
H699 H 0.03889 0.45265 0.14402 0.0
H700 H 0.96845 0.42571 0.13368 0.0
H701 H 0.97015 0.45347 0.16664 0.0
C702 C 1.00465 0.53935 0.17417 0.0
C703 C 0.98562 0.53426 0.15904 0.0
C704 C 0.98547 0.55059 0.14256 0.0
C705 C 1.00447 0.57225 0.14056 0.0
C706 C 0.02349 0.57718 0.15579 0.0
C707 C 0.02349 0.56099 0.1726 0.0
C708 C 0.00533 0.52186 0.1907 0.0
C709 C 1.00403 0.50336 0.17703 0.0
C710 C 0.00866 0.52411 0.21947 0.0
C711 C 0.00823 0.54243 0.23494 0.0
C712 C 0.98934 0.54447 0.23393 0.0
C713 C 0.98906 0.5621 0.24776 0.0
C714 C 0.00773 0.5781 0.26276 0.0
C715 C 0.02657 0.57589 0.2639 0.0
C716 C 0.02678 0.55815 0.2502 0.0
C717 C 0.01266 0.47278 0.23636 0.0
C718 C 0.02973 0.47976 0.25594 0.0
C719 C 0.03151 0.46401 0.27179 0.0
C720 C 0.0165 0.4408 0.26812 0.0
C721 C 0.9994 0.4339 0.24857 0.0
C722 C 0.99729 0.44964 0.2333 0.0
C723 C 0.01044 0.48967 0.22004 0.0
C724 C 0.01147 0.50823 0.23377 0.0
C725 C 0.00655 0.48732 0.19122 0.0
C726 C 0.00532 0.46869 0.17469 0.0
C727 C 0.02451 0.46787 0.16877 0.0
C728 C 0.0237 0.45234 0.14933 0.0
C729 C 1.00368 0.43751 0.1357 0.0
C730 C 0.98425 0.43744 0.1432 0.0
C731 C 0.98513 0.45311 0.16218 0.0
H732 H 0.49726 0.45513 0.15415 0.0
H733 H 0.46772 0.4257 0.12596 0.0
H734 H 0.41952 0.43724 0.16698 0.0
H735 H 0.44944 0.46732 0.19484 0.0
H736 H 0.51028 0.49942 0.15619 0.0
H737 H 0.47514 0.43546 0.21577 0.0
H738 H 0.44253 0.40615 0.2393 0.0
H739 H 0.44199 0.45635 0.29256 0.0
H740 H 0.47297 0.48583 0.2666 0.0
H741 H 0.52771 0.53943 0.26661 0.0
H742 H 0.55788 0.57132 0.29093 0.0
H743 H 0.60541 0.57018 0.23473 0.0
H744 H 0.57531 0.53668 0.2122 0.0
H745 H 0.51371 0.49907 0.25809 0.0
H746 H 0.5419 0.5618 0.19643 0.0
H747 H 0.56685 0.59241 0.16584 0.0
H748 H 0.57714 0.5459 0.11724 0.0
H749 H 0.553 0.51562 0.14849 0.0
C750 C 0.47552 0.46331 0.17665 0.0
C751 C 0.48035 0.45138 0.15706 0.0
C752 C 0.46345 0.43447 0.14113 0.0
C753 C 0.44135 0.42919 0.14434 0.0
C754 C 0.43645 0.44113 0.16395 0.0
C755 C 0.45346 0.45816 0.17996 0.0
C756 C 0.4939 0.48143 0.19298 0.0
C757 C 0.51123 0.49926 0.17849 0.0
C758 C 0.49454 0.48135 0.22215 0.0
C759 C 0.4763 0.46307 0.23875 0.0
C760 C 0.46782 0.44027 0.23219 0.0
C761 C 0.44937 0.42336 0.24622 0.0
C762 C 0.43958 0.42871 0.26817 0.0
C763 C 0.44879 0.45151 0.27554 0.0
C764 C 0.46678 0.46845 0.26091 0.0
C765 C 0.54904 0.53591 0.23697 0.0
C766 C 0.54462 0.54573 0.25972 0.0
C767 C 0.56191 0.56429 0.27335 0.0
C768 C 0.584 0.57392 0.26406 0.0
C769 C 0.58857 0.56339 0.24219 0.0
C770 C 0.57129 0.54439 0.22903 0.0
C771 C 0.53028 0.51728 0.22124 0.0
C772 C 0.51286 0.49928 0.23581 0.0
C773 C 0.52922 0.51735 0.19208 0.0
C774 C 0.54573 0.53641 0.17497 0.0
C775 C 0.54996 0.5583 0.1796 0.0
C776 C 0.56409 0.57575 0.16198 0.0
C777 C 0.57415 0.57164 0.13924 0.0
C778 C 0.57012 0.54978 0.13491 0.0
C779 C 0.55611 0.53238 0.1526 0.0
H780 H 0.55256 0.03729 0.16583 0.0
H781 H 0.58242 0.04314 0.13447 0.0
H782 H 0.56086 0.97267 0.13919 0.0
H783 H 0.53164 0.96724 0.17211 0.0
H784 H 0.50458 1.00067 0.15155 0.0
H785 H 0.56436 0.02495 0.21631 0.0
H786 H 0.59289 0.02262 0.24133 0.0
H787 H 0.54219 0.96301 0.28222 0.0
H788 H 0.51371 0.96399 0.25462 0.0
H789 H 0.45816 0.96549 0.25771 0.0
H790 H 0.42849 0.96555 0.28452 0.0
H791 H 0.43716 0.02202 0.2377 0.0
H792 H 0.46812 0.02335 0.21312 0.0
H793 H 0.49961 0.99164 0.25291 0.0
H794 H 0.44019 0.96511 0.18828 0.0
H795 H 0.41107 0.96313 0.15891 0.0
H796 H 0.45993 0.02367 0.11795 0.0
H797 H 0.48876 0.02627 0.14834 0.0
C798 C 0.53995 1.00186 0.17123 0.0
C799 C 0.55448 0.02317 0.16041 0.0
C800 C 0.57136 0.02641 0.14225 0.0
C801 C 0.57358 0.00822 0.13364 0.0
C802 C 0.55951 0.98699 0.14532 0.0
C803 C 0.54282 0.98384 0.16406 0.0
C804 C 0.52063 0.9984 0.1878 0.0
C805 C 0.50347 0.99884 0.17377 0.0
C806 C 0.51909 0.99516 0.21666 0.0
C807 C 0.53673 0.9943 0.23279 0.0
C808 C 0.55929 0.01093 0.22995 0.0
C809 C 0.57568 0.00994 0.24501 0.0
C810 C 0.56994 0.99286 0.26436 0.0
C811 C 0.54731 0.97635 0.26746 0.0
C812 C 0.53095 0.97702 0.25182 0.0
C813 C 0.46533 0.99424 0.23304 0.0
C814 C 0.45393 0.97814 0.25354 0.0
C815 C 0.43677 0.97803 0.26869 0.0
C816 C 0.4305 0.99393 0.26355 0.0
C817 C 0.44188 0.00993 0.2429 0.0
C818 C 0.45936 0.01039 0.22831 0.0
C819 C 0.4835 0.99431 0.21669 0.0
C820 C 0.50047 0.99319 0.23067 0.0
C821 C 0.48479 0.99659 0.18761 0.0
C822 C 0.46673 0.99594 0.17078 0.0
C823 C 0.44458 0.97827 0.17345 0.0
C824 C 0.42795 0.97707 0.15648 0.0
C825 C 0.4331 0.99335 0.1362 0.0
C826 C 0.45524 0.01116 0.13376 0.0
C827 C 0.47182 0.01247 0.1509 0.0
H828 H 0.48339 0.04632 0.85005 0.0
H829 H 0.452 0.04106 0.87836 0.0
H830 H 0.4295 0.97046 0.88535 0.0
H831 H 0.46001 0.97565 0.85554 0.0
H832 H 0.509 0.01287 0.87239 0.0
H833 H 0.48724 0.0503 0.80087 0.0
H834 H 0.45765 0.05043 0.77442 0.0
H835 H 0.43575 0.9832 0.74493 0.0
H836 H 0.46477 0.98285 0.77233 0.0
H837 H 0.52727 0.98756 0.7662 0.0
H838 H 0.55803 0.98765 0.74148 0.0
H839 H 0.60529 0.04452 0.79028 0.0
H840 H 0.57464 0.04503 0.81443 0.0
H841 H 0.5141 0.01702 0.77045 0.0
H842 H 0.54237 0.98407 0.83625 0.0
H843 H 0.57127 0.98449 0.86509 0.0
H844 H 0.58179 0.0449 0.90587 0.0
H845 H 0.55327 0.04458 0.87698 0.0
C846 C 0.47375 0.01129 0.8503 0.0
C847 C 0.47131 0.02962 0.85706 0.0
C848 C 0.45359 0.02664 0.87368 0.0
C849 C 0.43838 0.00538 0.88451 0.0
C850 C 0.44075 0.98702 0.87722 0.0
C851 C 0.45823 0.98995 0.86027 0.0
C852 C 0.49353 0.01445 0.83509 0.0
C853 C 0.51034 0.01409 0.85012 0.0
C854 C 0.49505 0.01584 0.80608 0.0
C855 C 0.47774 0.0163 0.78923 0.0
C856 C 0.47584 0.03548 0.78904 0.0
C857 C 0.45913 0.03565 0.77362 0.0
C858 C 0.44413 0.01669 0.75796 0.0
C859 C 0.4467 0.99785 0.75733 0.0
C860 C 0.46332 0.99766 0.77285 0.0
C861 C 0.5486 0.01609 0.79247 0.0
C862 C 0.54423 1.00019 0.77146 0.0
C863 C 0.56172 1.00017 0.75743 0.0
C864 C 0.58383 0.01601 0.76424 0.0
C865 C 0.58829 0.0321 0.78491 0.0
C866 C 0.57081 0.03229 0.79876 0.0
C867 C 0.52988 0.01558 0.80776 0.0
C868 C 0.51305 0.01611 0.79275 0.0
C869 C 0.52855 0.0147 0.83692 0.0
C870 C 0.54576 0.0144 0.85432 0.0
C871 C 0.55096 0.99742 0.85136 0.0
C872 C 0.56733 0.99757 0.86795 0.0
C873 C 0.57875 0.01473 0.88771 0.0
C874 C 0.57338 0.03157 0.89067 0.0
C875 C 0.557 0.03134 0.87428 0.0
H876 H 0.03792 0.55039 0.871 0.0
H877 H 0.04002 0.58038 0.90007 0.0
H878 H 0.97579 0.56517 0.87046 0.0
H879 H 0.97348 0.53459 0.84166 0.0
H880 H 0.00867 0.50644 0.87335 0.0
H881 H 0.02938 0.56585 0.81028 0.0
H882 H 0.02649 0.59435 0.78539 0.0
H883 H 0.96911 0.5424 0.74178 0.0
H884 H 0.9707 0.51386 0.76899 0.0
H885 H 0.96929 0.45286 0.77646 0.0
H886 H 0.9693 0.42194 0.75141 0.0
H887 H 0.03653 0.44638 0.77867 0.0
H888 H 0.03619 0.47688 0.80413 0.0
H889 H 0.9981 0.5002 0.772 0.0
H890 H 0.97219 0.44392 0.8447 0.0
H891 H 0.97265 0.41536 0.87294 0.0
H892 H 0.04176 0.46178 0.89255 0.0
H893 H 0.04065 0.49076 0.86547 0.0
C894 C 0.00563 0.54037 0.85402 0.0
C895 C 0.0243 0.55353 0.87066 0.0
C896 C 0.02559 0.57081 0.88702 0.0
C897 C 0.00824 0.57535 0.88709 0.0
C898 C 0.98944 0.56209 0.87059 0.0
C899 C 0.98816 0.54473 0.85411 0.0
C900 C 1.00443 0.52174 0.8373 0.0
C901 C 0.00659 0.50529 0.85114 0.0
C902 C 1.00119 0.51999 0.80831 0.0
C903 C 0.99998 0.53754 0.79213 0.0
C904 C 0.01584 0.56048 0.79585 0.0
C905 C 0.01448 0.57686 0.781 0.0
C906 C 0.99782 0.57078 0.76102 0.0
C907 C 0.98211 0.54778 0.75703 0.0
C908 C 0.98314 0.53139 0.77243 0.0
C909 C 1.00266 0.46701 0.79227 0.0
C910 C 0.98399 0.45151 0.77701 0.0
C911 C 0.98404 0.43388 0.76277 0.0
C912 C 1.00281 0.43155 0.76341 0.0
C913 C 0.02161 0.44735 0.7784 0.0
C914 C 0.0215 0.46487 0.79275 0.0
C915 C 1.00242 0.48525 0.80818 0.0
C916 C 1.00005 0.50152 0.79421 0.0
C917 C 0.0055 0.48704 0.83699 0.0
C918 C 0.00639 0.46942 0.85296 0.0
C919 C 0.98748 0.44787 0.85494 0.0
C920 C 0.98789 0.43144 0.87083 0.0
C921 C 0.00741 0.43602 0.88464 0.0
C922 C 0.02644 0.45763 0.88227 0.0
C923 C 0.02587 0.47421 0.86677 0.0
H924 H 0.4559 0.48784 0.87972 0.0
H925 H 0.43101 0.45813 0.91129 0.0
H926 H 0.44338 0.41107 0.86731 0.0
H927 H 0.46911 0.44103 0.83678 0.0
H928 H 0.49843 0.50557 0.87408 0.0
H929 H 0.43825 0.47228 0.8096 0.0
H930 H 0.40707 0.4409 0.78528 0.0
H931 H 0.45172 0.42096 0.75168 0.0
H932 H 0.48295 0.45298 0.7751 0.0
H933 H 0.54711 0.51563 0.77629 0.0
H934 H 0.57922 0.54552 0.7518 0.0
H935 H 0.55992 0.59295 0.77758 0.0
H936 H 0.52833 0.56316 0.80278 0.0
H937 H 0.49996 0.49925 0.77222 0.0
H938 H 0.5606 0.53569 0.83927 0.0
H939 H 0.58934 0.56713 0.86675 0.0
H940 H 0.53992 0.58136 0.89778 0.0
H941 H 0.51147 0.55036 0.87002 0.0
C942 C 0.46425 0.46669 0.85563 0.0
C943 C 0.45307 0.47107 0.8767 0.0
C944 C 0.43865 0.45401 0.89455 0.0
C945 C 0.43505 0.43219 0.89161 0.0
C946 C 0.44581 0.42771 0.87008 0.0
C947 C 0.46035 0.44479 0.85241 0.0
C948 C 0.48131 0.48527 0.83846 0.0
C949 C 0.49848 0.50433 0.85177 0.0
C950 C 0.48163 0.48364 0.80938 0.0
C951 C 0.46288 0.46488 0.79418 0.0
C952 C 0.44128 0.46112 0.79695 0.0
C953 C 0.42344 0.44304 0.78329 0.0
C954 C 0.42683 0.42818 0.7669 0.0
C955 C 0.44855 0.43214 0.76405 0.0
C956 C 0.46643 0.45041 0.77739 0.0
C957 C 0.53546 0.53722 0.79151 0.0
C958 C 0.54979 0.53246 0.77656 0.0
C959 C 0.56812 0.54956 0.7626 0.0
C960 C 0.57238 0.57172 0.76313 0.0
C961 C 0.55755 0.57625 0.77744 0.0
C962 C 0.53935 0.55919 0.79161 0.0
C963 C 0.51702 0.51945 0.80798 0.0
C964 C 0.49969 0.50053 0.79451 0.0
C965 C 0.51626 0.52141 0.83693 0.0
C966 C 0.53396 0.54087 0.85245 0.0
C967 C 0.55608 0.54584 0.85166 0.0
C968 C 0.57242 0.56368 0.86741 0.0
C969 C 0.56687 0.57683 0.88403 0.0
C970 C 0.54475 0.57183 0.88464 0.0
C971 C 0.52846 0.55401 0.86902 0.0
H972 H 0.63295 0.84901 0.49693 0.0
H973 H 0.634 0.87798 0.46775 0.0
H974 H 0.70397 0.92134 0.48582 0.0
H975 H 0.70217 0.89294 0.51675 0.0
H976 H 0.66478 0.83203 0.48885 0.0
H977 H 0.64089 0.86837 0.55107 0.0
H978 H 0.64377 0.90074 0.57525 0.0
H979 H 0.69784 0.9064 0.62379 0.0
H980 H 0.69696 0.87614 0.59689 0.0
H981 H 0.70125 0.82387 0.5931 0.0
H982 H 0.70353 0.7956 0.62013 0.0
H983 H 0.64729 0.74305 0.57555 0.0
H984 H 0.64384 0.77119 0.55052 0.0
H985 H 0.67211 0.83563 0.59052 0.0
H986 H 0.70229 0.80902 0.51359 0.0
H987 H 0.70275 0.78353 0.47811 0.0
H988 H 0.63317 0.75769 0.46205 0.0
H989 H 0.63305 0.7836 0.49653 0.0
C990 C 0.66746 0.86889 0.50907 0.0
C991 C 0.64842 0.8649 0.4948 0.0
C992 C 0.64916 0.88141 0.47779 0.0
C993 C 0.66922 0.90192 0.47374 0.0
C994 C 0.68818 0.90589 0.48848 0.0
C995 C 0.68724 0.88963 0.5061 0.0
C996 C 0.66709 0.85081 0.52551 0.0
C997 C 0.66621 0.83275 0.51115 0.0
C998 C 0.66909 0.8519 0.55459 0.0
C999 C 0.66938 0.87033 0.57109 0.0
C1000 C 0.65396 0.8771 0.56614 0.0
C1001 C 0.65528 0.89536 0.58049 0.0
C1002 C 0.67153 0.90676 0.60091 0.0
C1003 C 0.68586 0.89886 0.60725 0.0
C1004 C 0.68507 0.88117 0.59219 0.0
C1005 C 0.67252 0.79983 0.56937 0.0
C1006 C 0.68925 0.80625 0.58931 0.0
C1007 C 0.69068 0.79005 0.60463 0.0
C1008 C 0.67542 0.76699 0.60037 0.0
C1009 C 0.65897 0.76062 0.58002 0.0
C1010 C 0.6573 0.77679 0.56512 0.0
C1011 C 0.67064 0.81719 0.55372 0.0
C1012 C 0.67092 0.83507 0.56824 0.0
C1013 C 0.66806 0.81608 0.52475 0.0
C1014 C 0.66766 0.79821 0.50744 0.0
C1015 C 0.6871 0.79756 0.50268 0.0
C1016 C 0.68734 0.78305 0.48247 0.0
C1017 C 0.66815 0.76911 0.46689 0.0
C1018 C 0.64837 0.76875 0.47319 0.0
C1019 C 0.64821 0.78337 0.493 0.0
H1020 H 0.16289 0.78727 0.48929 0.0
H1021 H 0.13404 0.75739 0.46076 0.0
H1022 H 0.08553 0.77182 0.49466 0.0
H1023 H 0.11474 0.80222 0.523 0.0
H1024 H 0.17707 0.83197 0.48813 0.0
H1025 H 0.13839 0.77002 0.54978 0.0
H1026 H 0.10542 0.74153 0.57375 0.0
H1027 H 0.10541 0.7935 0.62391 0.0
H1028 H 0.13627 0.822 0.5972 0.0
H1029 H 0.1904 0.88417 0.58195 0.0
H1030 H 0.21998 0.91676 0.6067 0.0
H1031 H 0.26644 0.89592 0.58393 0.0
H1032 H 0.23687 0.86371 0.55851 0.0
H1033 H 0.17581 0.83581 0.59019 0.0
H1034 H 0.19374 0.888 0.50849 0.0
H1035 H 0.22011 0.91782 0.4781 0.0
H1036 H 0.25972 0.88647 0.47376 0.0
H1037 H 0.23249 0.85603 0.5031 0.0
C1038 C 0.1409 0.79678 0.50842 0.0
C1039 C 0.14604 0.78396 0.49069 0.0
C1040 C 0.12951 0.76677 0.47463 0.0
C1041 C 0.1075 0.76206 0.47595 0.0
C1042 C 0.10236 0.77505 0.49348 0.0
C1043 C 0.11896 0.79229 0.50967 0.0
C1044 C 0.15884 0.81522 0.52488 0.0
C1045 C 0.17684 0.83253 0.51049 0.0
C1046 C 0.15822 0.8162 0.55411 0.0
C1047 C 0.13945 0.79841 0.57067 0.0
C1048 C 0.13086 0.7754 0.56526 0.0
C1049 C 0.11216 0.759 0.57945 0.0
C1050 C 0.1021 0.76509 0.6003 0.0
C1051 C 0.11179 0.78806 0.60706 0.0
C1052 C 0.1299 0.80448 0.59212 0.0
C1053 C 0.21149 0.87157 0.56856 0.0
C1054 C 0.20695 0.88663 0.5824 0.0
C1055 C 0.22383 0.90514 0.5966 0.0
C1056 C 0.24546 0.90869 0.5976 0.0
C1057 C 0.24997 0.89365 0.58345 0.0
C1058 C 0.23311 0.87523 0.56904 0.0
C1059 C 0.19365 0.85217 0.55328 0.0
C1060 C 0.17582 0.83482 0.56788 0.0
C1061 C 0.19408 0.85102 0.52432 0.0
C1062 C 0.2112 0.86986 0.50787 0.0
C1063 C 0.20815 0.88763 0.50101 0.0
C1064 C 0.22331 0.90471 0.48377 0.0
C1065 C 0.24192 0.90442 0.47317 0.0
C1066 C 0.24528 0.88691 0.48092 0.0
C1067 C 0.2299 0.86963 0.49789 0.0
H1068 H 0.1214 0.29368 0.4824 0.0
H1069 H 0.09262 0.29356 0.45406 0.0
H1070 H 0.10806 0.35724 0.48992 0.0
H1071 H 0.13692 0.35728 0.51852 0.0
H1072 H 0.16705 0.32577 0.48352 0.0
H1073 H 0.10373 0.29453 0.54632 0.0
H1074 H 0.07371 0.29515 0.57194 0.0
H1075 H 0.12207 0.3566 0.61293 0.0
H1076 H 0.15198 0.35612 0.58704 0.0
H1077 H 0.20873 0.35359 0.59092 0.0
H1078 H 0.23741 0.35224 0.61786 0.0
H1079 H 0.22469 0.29263 0.57303 0.0
H1080 H 0.19587 0.29392 0.54613 0.0
H1081 H 0.165 0.32514 0.58564 0.0
H1082 H 0.22809 0.35659 0.5282 0.0
H1083 H 0.25953 0.36254 0.49986 0.0
H1084 H 0.21489 0.30745 0.44659 0.0
H1085 H 0.18353 0.30062 0.47601 0.0
C1086 C 0.13117 0.32537 0.50276 0.0
C1087 C 0.11857 0.3076 0.48426 0.0
C1088 C 0.10209 0.3075 0.46819 0.0
C1089 C 0.09801 0.3253 0.47002 0.0
C1090 C 0.11085 0.34331 0.4882 0.0
C1091 C 0.12722 0.34327 0.50459 0.0
C1092 C 0.14875 0.32524 0.51956 0.0
C1093 C 0.16647 0.32522 0.50584 0.0
C1094 C 0.14837 0.32549 0.54871 0.0
C1095 C 0.13009 0.32546 0.56447 0.0
C1096 C 0.10785 0.30821 0.56069 0.0
C1097 C 0.09075 0.30847 0.57547 0.0
C1098 C 0.09558 0.32604 0.59418 0.0
C1099 C 0.11786 0.34305 0.59831 0.0
C1100 C 0.13495 0.34272 0.58365 0.0
C1101 C 0.20029 0.324 0.56628 0.0
C1102 C 0.21203 0.34017 0.58693 0.0
C1103 C 0.22848 0.33946 0.60221 0.0
C1104 C 0.23338 0.32245 0.59733 0.0
C1105 C 0.22123 0.30592 0.57718 0.0
C1106 C 0.2049 0.30674 0.56171 0.0
C1107 C 0.18321 0.32518 0.54959 0.0
C1108 C 0.16559 0.32547 0.5633 0.0
C1109 C 0.18393 0.32556 0.52039 0.0
C1110 C 0.20333 0.32802 0.50446 0.0
C1111 C 0.22505 0.34536 0.51089 0.0
C1112 C 0.24303 0.34899 0.49439 0.0
C1113 C 0.23965 0.33574 0.47066 0.0
C1114 C 0.21804 0.31793 0.46474 0.0
C1115 C 0.20007 0.31413 0.48144 0.0
C1116 C 0.0106 0.39462 0.09381 0.0
C1117 C 0.99902 0.39278 0.06948 0.0
C1118 C 0.01251 0.40947 0.11511 0.0
C1119 C 1.00306 0.42301 0.11252 0.0
H1120 H 0.01751 0.38398 0.09678 0.0
H1121 H 0.02084 0.40987 0.13398 0.0
S1122 S 0.97451 0.42707 0.05078 0.0
N1123 N 0.9801 0.40729 0.04278 0.0
N1124 N 0.98427 0.43561 0.08222 0.0
C1125 C 0.99262 0.42218 0.08756 0.0
C1126 C 0.99044 0.40695 0.06618 0.0
C1127 C 0.58963 0.61849 0.08824 0.0
C1128 C 0.60981 0.62236 0.07667 0.0
C1129 C 0.57859 0.60249 0.1088 0.0
C1130 C 0.58722 0.58962 0.11884 0.0
H1131 H 0.5819 0.62756 0.081 0.0
H1132 H 0.56281 0.59976 0.11634 0.0
S1133 S 0.64045 0.5944 0.09767 0.0
N1134 N 0.63861 0.6127 0.07822 0.0
N1135 N 0.61789 0.58279 0.11712 0.0
C1136 C 0.60767 0.59367 0.10815 0.0
C1137 C 0.61894 0.60998 0.08708 0.0
C1138 C 0.38644 0.96642 0.08353 0.0
C1139 C 0.38408 0.98435 0.07462 0.0
C1140 C 0.40193 0.96948 0.10372 0.0
C1141 C 0.41581 0.9906 0.11614 0.0
H1142 H 0.37658 0.94979 0.07445 0.0
H1143 H 0.40343 0.95521 0.10907 0.0
S1144 S 0.41526 0.04279 0.10236 0.0
N1145 N 0.39637 0.02393 0.08115 0.0
N1146 N 0.42526 0.02953 0.11948 0.0
C1147 C 0.41329 0.0086 0.10815 0.0
C1148 C 0.39749 0.00551 0.0874 0.0
C1149 C 0.38277 0.97843 0.92208 0.0
C1150 C 0.38711 0.99283 0.9449 0.0
C1151 C 0.39912 0.98312 0.90211 0.0
C1152 C 0.42062 0.00224 0.90431 0.0
H1153 H 0.36666 0.96321 0.91981 0.0
H1154 H 0.39499 0.97142 0.88501 0.0
S1155 S 0.4406 0.04509 0.96056 0.0
N1156 N 0.41437 0.02717 0.96844 0.0
N1157 N 0.44534 0.03559 0.93151 0.0
C1158 C 0.42505 0.01702 0.92681 0.0
C1159 C 0.40826 0.0124 0.94694 0.0
C1160 C 0.01522 0.40923 0.94834 0.0
C1161 C 1.0026 0.38614 0.94211 0.0
C1162 C 0.01744 0.42529 0.92924 0.0
C1163 C 0.00737 0.41886 0.90303 0.0
H1164 H 0.02225 0.41488 0.96872 0.0
H1165 H 0.02616 0.44278 0.93566 0.0
S1166 S 0.97595 0.36044 0.87523 0.0
N1167 N 0.98183 0.35762 0.90726 0.0
N1168 N 0.98698 0.38771 0.87073 0.0
C1169 C 0.99611 0.39581 0.89594 0.0
C1170 C 0.99347 0.37948 0.91563 0.0
C1171 C 0.60941 0.60593 0.94088 0.0
C1172 C 0.61067 0.62678 0.94347 0.0
C1173 C 0.59607 0.59021 0.9206 0.0
C1174 C 0.58364 0.59487 0.90216 0.0
H1175 H 0.61784 0.6012 0.9555 0.0
H1176 H 0.5946 0.57388 0.92027 0.0
S1177 S 0.58446 0.64853 0.89692 0.0
N1178 N 0.6006 0.65232 0.92352 0.0
N1179 N 0.57575 0.62283 0.88532 0.0
C1180 C 0.58603 0.61624 0.90324 0.0
C1181 C 0.5995 0.63218 0.9239 0.0
C1182 C 0.99475 0.60393 0.94477 0.0
C1183 C 0.01467 0.62482 0.94736 0.0
C1184 C 0.99227 0.58835 0.92424 0.0
C1185 C 0.00959 0.59322 0.90554 0.0
H1186 H 0.98143 0.59907 0.95958 0.0
H1187 H 0.97718 0.57198 0.9239 0.0
S1188 S 0.0633 0.6471 0.90031 0.0
N1189 N 0.05081 0.65062 0.92724 0.0
N1190 N 0.04598 0.62147 0.88851 0.0
C1191 C 0.02888 0.61466 0.90665 0.0
C1192 C 0.03146 0.63043 0.92759 0.0
C1193 C 0.41892 0.38631 0.94419 0.0
C1194 C 0.39816 0.38199 0.95416 0.0
C1195 C 0.43043 0.40227 0.92377 0.0
C1196 C 0.42172 0.41461 0.91228 0.0
H1197 H 0.42667 0.37763 0.95257 0.0
H1198 H 0.4466 0.40533 0.9174 0.0
S1199 S 0.36726 0.40863 0.92924 0.0
N1200 N 0.36885 0.39074 0.94978 0.0
N1201 N 0.39051 0.42058 0.91109 0.0
C1202 C 0.40078 0.41019 0.92149 0.0
C1203 C 0.38901 0.39393 0.94243 0.0
C1204 C 0.6332 0.03832 0.92626 0.0
C1205 C 0.62936 0.02088 0.94424 0.0
C1206 C 0.61712 0.03576 0.90729 0.0
C1207 C 0.59649 0.01562 0.90526 0.0
H1208 H 0.64853 0.05447 0.92742 0.0
H1209 H 0.62063 0.04993 0.89457 0.0
S1210 S 0.57846 0.96411 0.94579 0.0
N1211 N 0.60366 0.98213 0.95742 0.0
N1212 N 0.57343 0.97741 0.92159 0.0
C1213 C 0.59278 0.99758 0.92191 0.0
C1214 C 0.60921 1.00018 0.9414 0.0
C1215 C 0.62 0.0063 0.09422 0.0
C1216 C 0.62288 0.01946 0.07103 0.0
C1217 C 0.60387 0.00247 0.11435 0.0
C1218 C 0.58992 0.0114 0.11169 0.0
H1219 H 0.63065 0.99945 0.09719 0.0
H1220 H 0.60265 0.99286 0.13236 0.0
S1221 S 0.58856 0.04379 0.05224 0.0
N1222 N 0.60921 0.03957 0.04519 0.0
N1223 N 0.57843 0.03166 0.08216 0.0
C1224 C 0.59199 0.0236 0.08778 0.0
C1225 C 0.60858 0.0278 0.06768 0.0
C1226 C 0.99871 0.59808 0.07462 0.0
C1227 C 0.01061 0.6212 0.08073 0.0
C1228 C 0.99611 0.58231 0.0944 0.0
C1229 C 0.00506 0.58909 0.12113 0.0
H1230 H 0.99241 0.59222 0.054 0.0
H1231 H 0.9879 0.56478 0.08823 0.0
S1232 S 0.03436 0.64771 0.14839 0.0
N1233 N 0.02957 0.65013 0.11574 0.0
N1234 N 0.02374 0.62057 0.15343 0.0
C1235 C 0.0157 0.61217 0.1279 0.0
C1236 C 0.01871 0.6282 0.10757 0.0
C1237 C 0.40921 0.37505 0.10345 0.0
C1238 C 0.39588 0.37927 0.08597 0.0
C1239 C 0.4229 0.39079 0.12335 0.0
C1240 C 0.42387 0.41143 0.12659 0.0
H1241 H 0.40968 0.35975 0.10119 0.0
H1242 H 0.43341 0.3871 0.13568 0.0
S1243 S 0.39102 0.43011 0.08781 0.0
N1244 N 0.38332 0.40506 0.07471 0.0
N1245 N 0.40937 0.43479 0.11201 0.0
C1246 C 0.40971 0.4154 0.11046 0.0
C1247 C 0.39564 0.39929 0.09018 0.0
C1248 C 0.67602 0.72766 0.4232 0.0
C1249 C 0.66609 0.72767 0.39816 0.0
C1250 C 0.67728 0.74159 0.44533 0.0
C1251 C 0.66879 0.75598 0.44289 0.0
H1252 H 0.68195 0.71617 0.42607 0.0
H1253 H 0.68419 0.74051 0.46472 0.0
S1254 S 0.64492 0.76496 0.37985 0.0
N1255 N 0.65 0.74495 0.37114 0.0
N1256 N 0.65292 0.77149 0.41224 0.0
C1257 C 0.66019 0.7571 0.4173 0.0
C1258 C 0.65869 0.74284 0.39505 0.0
C1259 C 0.27572 0.96116 0.43836 0.0
C1260 C 0.28234 0.9558 0.41339 0.0
C1261 C 0.26353 0.94464 0.45805 0.0
C1262 C 0.25713 0.92201 0.45338 0.0
H1263 H 0.2797 0.97821 0.44254 0.0
H1264 H 0.25868 0.94958 0.47687 0.0
S1265 S 0.26999 0.89921 0.39089 0.0
N1266 N 0.28191 0.9264 0.38512 0.0
N1267 N 0.25833 0.89519 0.42161 0.0
C1268 C 0.26407 0.91653 0.42868 0.0
C1269 C 0.27681 0.93345 0.40882 0.0
C1270 C 0.06968 0.34036 0.41484 0.0
C1271 C 0.04812 0.32119 0.41391 0.0
C1272 C 0.08555 0.34215 0.43392 0.0
C1273 C 0.08039 0.32483 0.45268 0.0
H1274 H 0.07469 0.35354 0.39986 0.0
H1275 H 0.10224 0.35667 0.43314 0.0
S1276 S 0.02541 0.27306 0.46193 0.0
N1277 N 0.02181 0.2859 0.43589 0.0
N1278 N 0.05161 0.28932 0.47138 0.0
C1279 C 0.05856 0.30633 0.45313 0.0
C1280 C 0.04244 0.30451 0.43387 0.0
C1281 C 0.05096 0.32797 0.25824 0.0
C1282 C 0.05409 0.32651 0.28649 0.0
C1283 C 0.06782 0.33214 0.23912 0.0
C1284 C 0.08831 0.33515 0.24781 0.0
H1285 H 0.03535 0.32564 0.2509 0.0
H1286 H 0.06486 0.33309 0.21746 0.0
S1287 S 0.10401 0.33205 0.31972 0.0
N1288 N 0.07866 0.32789 0.32228 0.0
N1289 N 0.11032 0.33566 0.2866 0.0
C1290 C 0.09148 0.3337 0.27611 0.0
C1291 C 0.07435 0.32938 0.2954 0.0
C1292 C 0.68622 0.74677 0.2771 0.0
C1293 C 0.67427 0.72379 0.27017 0.0
C1294 C 0.68878 0.76302 0.25809 0.0
C1295 C 0.67964 0.75684 0.23139 0.0
H1296 H 0.69221 0.7521 0.29796 0.0
H1297 H 0.69679 0.78037 0.26497 0.0
S1298 S 0.65054 0.69897 0.20186 0.0
N1299 N 0.65539 0.69574 0.23421 0.0
N1300 N 0.66118 0.72623 0.19792 0.0
C1301 C 0.66932 0.73399 0.22361 0.0
C1302 C 0.66637 0.71747 0.24314 0.0
C1303 C 0.28368 0.95232 0.26221 0.0
C1304 C 0.27388 0.95477 0.28638 0.0
C1305 C 0.27049 0.93744 0.24105 0.0
C1306 C 0.24716 0.92444 0.24357 0.0
H1307 H 0.30153 0.96237 0.25936 0.0
H1308 H 0.27855 0.9364 0.22241 0.0
S1309 S 0.21402 0.92216 0.30481 0.0
N1310 N 0.23984 0.94145 0.31278 0.0
N1311 N 0.21524 0.91317 0.27356 0.0
C1312 C 0.2374 0.92603 0.26826 0.0
C1313 C 0.25071 0.94127 0.28952 0.0
C1314 C 0.70053 0.95021 0.27704 0.0
C1315 C 0.68426 0.95582 0.28309 0.0
C1316 C 0.69793 0.93576 0.25516 0.0
C1317 C 0.679 0.92629 0.23826 0.0
H1318 H 0.71528 0.95664 0.28967 0.0
H1319 H 0.71064 0.9315 0.25193 0.0
S1320 S 0.63226 0.93672 0.24367 0.0
N1321 N 0.64894 0.9515 0.26934 0.0
N1322 N 0.64421 0.92436 0.22795 0.0
C1323 C 0.66277 0.93202 0.24357 0.0
C1324 C 0.66537 0.94678 0.266 0.0
C1325 C 0.06712 0.71263 0.2585 0.0
C1326 C 0.06182 0.7185 0.28404 0.0
C1327 C 0.07928 0.72894 0.23859 0.0
C1328 C 0.08712 0.75189 0.24366 0.0
H1329 H 0.06207 0.6953 0.25402 0.0
H1330 H 0.08296 0.72355 0.21925 0.0
S1331 S 0.07796 0.77589 0.30788 0.0
N1332 N 0.06485 0.74857 0.31335 0.0
N1333 N 0.08865 0.77947 0.27661 0.0
C1334 C 0.08152 0.75787 0.26905 0.0
C1335 C 0.06868 0.74113 0.28907 0.0
C1336 C 0.27377 0.33098 0.28018 0.0
C1337 C 0.29544 0.35001 0.2799 0.0
C1338 C 0.25758 0.3286 0.26119 0.0
C1339 C 0.26255 0.34516 0.24136 0.0
H1340 H 0.26892 0.31851 0.29609 0.0
H1341 H 0.2408 0.31434 0.26295 0.0
S1342 S 0.31761 0.39596 0.22876 0.0
N1343 N 0.32159 0.38409 0.25558 0.0
N1344 N 0.29118 0.37961 0.22035 0.0
C1345 C 0.28447 0.36335 0.23965 0.0
C1346 C 0.30091 0.36576 0.25878 0.0
C1347 C 0.27831 0.3291 0.42078 0.0
C1348 C 0.29227 0.35107 0.41089 0.0
C1349 C 0.26164 0.32431 0.44044 0.0
C1350 C 0.25828 0.3413 0.45115 0.0
H1351 H 0.27997 0.31532 0.413 0.0
H1352 H 0.25121 0.30713 0.44719 0.0
S1353 S 0.28994 0.40156 0.43231 0.0
N1354 N 0.30147 0.39007 0.41387 0.0
N1355 N 0.27003 0.38088 0.45024 0.0
C1356 C 0.27224 0.36335 0.4418 0.0
C1357 C 0.28923 0.36828 0.42186 0.0
C1358 C 0.68768 0.95847 0.44047 0.0
C1359 C 0.67766 0.95241 0.41435 0.0
C1360 C 0.68407 0.94211 0.45988 0.0
C1361 C 0.67078 0.91894 0.45371 0.0
H1362 H 0.6987 0.97604 0.44579 0.0
H1363 H 0.69215 0.94772 0.47973 0.0
S1364 S 0.64155 0.89447 0.38734 0.0
N1365 N 0.6538 0.92189 0.38317 0.0
N1366 N 0.64792 0.89104 0.41883 0.0
C1367 C 0.66044 0.91273 0.42761 0.0
C1368 C 0.66369 0.92947 0.40814 0.0
C1369 C 0.06423 0.73372 0.41974 0.0
C1370 C 0.06291 0.71287 0.41649 0.0
C1371 C 0.07782 0.7492 0.44009 0.0
C1372 C 0.09041 0.74426 0.45791 0.0
H1373 H 0.05571 0.73864 0.40553 0.0
H1374 H 0.07939 0.76556 0.44091 0.0
S1375 S 0.08945 0.69044 0.46131 0.0
N1376 N 0.07305 0.68701 0.43516 0.0
N1377 N 0.09833 0.71601 0.47353 0.0
C1378 C 0.0879 0.72286 0.45621 0.0
C1379 C 0.07421 0.70718 0.43547 0.0
C1380 C 0.31137 0.04282 0.77152 0.0
C1381 C 0.32816 0.0481 0.75181 0.0
C1382 C 0.31395 0.05816 0.7923 0.0
C1383 C 0.3334 0.07945 0.79419 0.0
H1384 H 0.29576 0.02693 0.77044 0.0
H1385 H 0.3003 0.05358 0.8065 0.0
S1386 S 0.38293 0.10118 0.74879 0.0
N1387 N 0.36553 0.07572 0.73657 0.0
N1388 N 0.37019 0.10472 0.77541 0.0
C1389 C 0.3508 0.08458 0.77553 0.0
C1390 C 0.34823 0.06886 0.7544 0.0
C1391 C 0.92559 0.28862 0.75172 0.0
C1392 C 0.94597 0.29245 0.7409 0.0
C1393 C 0.91429 0.27283 0.77237 0.0
C1394 C 0.92283 0.26015 0.78332 0.0
H1395 H 0.91795 0.29758 0.74386 0.0
H1396 H 0.89841 0.27017 0.77936 0.0
S1397 S 0.9763 0.26471 0.76398 0.0
N1398 N 0.97472 0.28281 0.74382 0.0
N1399 N 0.95349 0.25328 0.78298 0.0
C1400 C 0.94338 0.26405 0.77323 0.0
C1401 C 0.95494 0.28015 0.75202 0.0
C1402 C 0.70959 0.6338 0.76195 0.0
C1403 C 0.71385 0.65155 0.74427 0.0
C1404 C 0.72523 0.63597 0.78139 0.0
C1405 C 0.74586 0.65602 0.78421 0.0
H1406 H 0.69418 0.61775 0.76036 0.0
H1407 H 0.72129 0.62162 0.79399 0.0
S1408 S 0.76506 0.7081 0.74436 0.0
N1409 N 0.74003 0.69038 0.73197 0.0
N1410 N 0.76948 0.69439 0.7686 0.0
C1411 C 0.75006 0.6743 0.76766 0.0
C1412 C 0.73406 0.67209 0.74772 0.0
C1413 C 0.71733 0.6367 0.60243 0.0
C1414 C 0.71417 0.65386 0.61315 0.0
C1415 C 0.73376 0.64119 0.58272 0.0
C1416 C 0.7478 0.66302 0.57279 0.0
H1417 H 0.70748 0.61966 0.60986 0.0
H1418 H 0.73601 0.62753 0.57595 0.0
S1419 S 0.74498 0.71355 0.59134 0.0
N1420 N 0.72552 0.6934 0.61041 0.0
N1421 N 0.75631 0.70168 0.5732 0.0
C1422 C 0.7443 0.6802 0.58232 0.0
C1423 C 0.72751 0.67566 0.60246 0.0
C1424 C 0.34536 0.06486 0.60796 0.0
C1425 C 0.3243 0.05201 0.62048 0.0
C1426 C 0.34924 0.08069 0.58747 0.0
C1427 C 0.33221 0.08421 0.57861 0.0
H1428 H 0.35898 0.0627 0.61397 0.0
H1429 H 0.36566 0.09012 0.57836 0.0
S1430 S 0.27462 0.05646 0.60602 0.0
N1431 N 0.28645 0.04496 0.62302 0.0
N1432 N 0.29396 0.07462 0.58505 0.0
C1433 C 0.31124 0.07176 0.59117 0.0
C1434 C 0.30723 0.05571 0.61192 0.0
C1435 C 0.93421 0.30054 0.5909 0.0
C1436 C 0.94696 0.29575 0.60866 0.0
C1437 C 0.92057 0.28512 0.57068 0.0
C1438 C 0.91906 0.26422 0.56741 0.0
H1439 H 0.93422 0.31611 0.59312 0.0
H1440 H 0.91061 0.28932 0.55801 0.0
S1441 S 0.94992 0.24383 0.60744 0.0
N1442 N 0.95815 0.26901 0.62054 0.0
N1443 N 0.93218 0.23985 0.58272 0.0
C1444 C 0.93251 0.25959 0.58405 0.0
C1445 C 0.94655 0.27539 0.60463 0.0
C1446 C 0.3596 0.27286 0.62367 0.0
C1447 C 0.34817 0.28454 0.62264 0.0
C1448 C 0.35752 0.25799 0.60261 0.0
C1449 C 0.34425 0.25444 0.57931 0.0
H1450 H 0.37011 0.27503 0.6411 0.0
H1451 H 0.36638 0.2491 0.60475 0.0
S1452 S 0.31129 0.28149 0.56637 0.0
N1453 N 0.32298 0.29163 0.59668 0.0
N1454 N 0.3197 0.26421 0.55631 0.0
C1455 C 0.33261 0.26596 0.57803 0.0
C1456 C 0.33444 0.2809 0.59985 0.0
C1457 C 0.73978 0.04885 0.59221 0.0
C1458 C 0.73049 0.0535 0.61527 0.0
C1459 C 0.75109 0.06497 0.57188 0.0
C1460 C 0.7539 0.08654 0.57401 0.0
H1461 H 0.7387 0.03274 0.59015 0.0
H1462 H 0.75824 0.0607 0.55469 0.0
S1463 S 0.7325 0.10702 0.63044 0.0
N1464 N 0.72413 0.08085 0.63877 0.0
N1465 N 0.74607 0.11151 0.60101 0.0
C1466 C 0.74403 0.09116 0.59656 0.0
C1467 C 0.73219 0.07456 0.61709 0.0
C1468 C 0.93635 0.66309 0.61336 0.0
C1469 C 0.95764 0.68263 0.61419 0.0
C1470 C 0.92052 0.6605 0.59366 0.0
C1471 C 0.92553 0.67735 0.57421 0.0
H1472 H 0.93146 0.65038 0.62897 0.0
H1473 H 0.90393 0.64583 0.59457 0.0
S1474 S 0.98003 0.7296 0.56453 0.0
N1475 N 0.9837 0.71758 0.59142 0.0
N1476 N 0.95401 0.71268 0.55476 0.0
C1477 C 0.94721 0.69608 0.5736 0.0
C1478 C 0.96325 0.69871 0.59348 0.0
C1479 C 0.95106 0.69718 0.75703 0.0
C1480 C 0.95498 0.68054 0.74628 0.0
C1481 C 0.93474 0.69219 0.77707 0.0
C1482 C 0.92156 0.67034 0.78739 0.0
H1483 H 0.96028 0.71423 0.74947 0.0
H1484 H 0.93196 0.70549 0.78392 0.0
S1485 S 0.92635 0.62099 0.7685 0.0
N1486 N 0.9451 0.64142 0.74906 0.0
N1487 N 0.91451 0.63219 0.78695 0.0
C1488 C 0.92569 0.65364 0.77763 0.0
C1489 C 0.94237 0.6587 0.75711 0.0
C1490 C 0.35029 0.29068 0.77715 0.0
C1491 C 0.34017 0.2845 0.75109 0.0
C1492 C 0.34738 0.2744 0.79628 0.0
C1493 C 0.33468 0.25124 0.78988 0.0
H1494 H 0.36106 0.30828 0.78251 0.0
H1495 H 0.35571 0.28008 0.81598 0.0
S1496 S 0.30478 0.22644 0.72402 0.0
N1497 N 0.31641 0.25382 0.72001 0.0
N1498 N 0.3117 0.22315 0.75528 0.0
C1499 C 0.3239 0.24487 0.76408 0.0
C1500 C 0.32649 0.26151 0.74485 0.0
C1501 C 0.74586 0.04697 0.76592 0.0
C1502 C 0.7333 0.05155 0.74755 0.0
C1503 C 0.75892 0.06245 0.78641 0.0
C1504 C 0.76005 0.08318 0.78933 0.0
H1505 H 0.7461 0.03152 0.76401 0.0
H1506 H 0.76876 0.05842 0.79958 0.0
S1507 S 0.72953 0.10297 0.74753 0.0
N1508 N 0.72188 0.07788 0.7346 0.0
N1509 N 0.7468 0.10718 0.77296 0.0
C1510 C 0.74679 0.08759 0.77201 0.0
C1511 C 0.73332 0.07172 0.75116 0.0
C1512 C 0.05587 0.34544 0.07818 0.0
C1513 C 0.06003 0.35439 0.05144 0.0
C1514 C 0.07253 0.34494 0.09342 0.0
C1515 C 0.09381 0.35294 0.08225 0.0
H1516 H 0.03962 0.33884 0.08751 0.0
H1517 H 0.06865 0.33792 0.11391 0.0
S1518 S 0.11336 0.37783 0.01329 0.0
N1519 N 0.08724 0.37163 0.01464 0.0
N1520 N 0.11832 0.37007 0.0431 0.0
C1521 C 0.09825 0.3619 0.05563 0.0
C1522 C 0.08143 0.36281 0.04027 0.0
C1523 C 0.65964 0.72276 0.03823 0.0
C1524 C 0.66707 0.70936 0.04994 0.0
C1525 C 0.66067 0.74079 0.05284 0.0
C1526 C 0.66899 0.74605 0.07987 0.0
H1527 H 0.65314 0.71946 0.01743 0.0
H1528 H 0.6551 0.75084 0.04274 0.0
S1529 S 0.68893 0.71508 0.12076 0.0
N1530 N 0.68225 0.70199 0.09056 0.0
N1531 N 0.68371 0.73565 0.11838 0.0
C1532 C 0.67621 0.7326 0.09203 0.0
C1533 C 0.67535 0.7143 0.07699 0.0
C1534 C 0.29293 0.96035 0.07338 0.0
C1535 C 0.29876 0.95617 0.04711 0.0
C1536 C 0.27485 0.94337 0.08802 0.0
C1537 C 0.26174 0.92152 0.07694 0.0
H1538 H 0.30248 0.97686 0.08286 0.0
H1539 H 0.27123 0.94739 0.10832 0.0
S1540 S 0.26923 0.90215 0.00818 0.0
N1541 N 0.28962 0.92864 0.0103 0.0
N1542 N 0.25537 0.89694 0.03747 0.0
C1543 C 0.26729 0.91715 0.05057 0.0
C1544 C 0.28583 0.93441 0.03575 0.0
C1545 C 0.34034 0.04749 0.95347 0.0
C1546 C 0.35095 0.05095 0.97909 0.0
C1547 C 0.33962 0.0649 0.94018 0.0
C1548 C 0.34922 0.08656 0.95203 0.0
H1549 H 0.33256 0.03115 0.94342 0.0
H1550 H 0.33149 0.06131 0.92032 0.0
S1551 S 0.37835 0.10427 0.01944 0.0
N1552 N 0.37122 0.07767 0.01599 0.0
N1553 N 0.36927 0.11029 0.99147 0.0
C1554 C 0.35995 0.0903 0.97769 0.0
C1555 C 0.36093 0.07255 0.9911 0.0
C1556 C 0.97291 0.29553 0.94975 0.0
C1557 C 0.97014 0.30001 0.97735 0.0
C1558 C 0.95545 0.27754 0.93516 0.0
C1559 C 0.93472 0.26329 0.94777 0.0
H1560 H 0.98841 0.30636 0.93912 0.0
H1561 H 0.95805 0.27509 0.91367 0.0
S1562 S 0.92018 0.26632 0.02078 0.0
N1563 N 0.94576 0.28789 0.01733 0.0
N1564 N 0.91332 0.25374 0.99031 0.0
C1565 C 0.93214 0.26714 0.97571 0.0
C1566 C 0.94976 0.28557 0.99039 0.0
C1567 C 0.70818 0.64013 0.9737 0.0
C1568 C 0.70563 0.65897 0.97293 0.0
C1569 C 0.72544 0.63977 0.95924 0.0
C1570 C 0.74098 0.65834 0.94377 0.0
H1571 H 0.69666 0.62546 0.98539 0.0
H1572 H 0.7268 0.62494 0.96041 0.0
S1573 S 0.74167 0.71163 0.93453 0.0
N1574 N 0.7202 0.69664 0.95496 0.0
N1575 N 0.75251 0.69584 0.928 0.0
C1576 C 0.73866 0.67725 0.9428 0.0
C1577 C 0.72103 0.67759 0.95729 0.0
C1578 C 0.93092 0.63869 0.97801 0.0
C1579 C 0.95254 0.65776 0.97824 0.0
C1580 C 0.91356 0.63851 0.96347 0.0
C1581 C 0.91708 0.65749 0.94897 0.0
H1582 H 0.92741 0.62367 0.98885 0.0
H1583 H 0.89722 0.62345 0.96374 0.0
S1584 S 0.97045 0.71163 0.94284 0.0
N1585 N 0.97636 0.69616 0.96245 0.0
N1586 N 0.94377 0.69571 0.93539 0.0
C1587 C 0.93853 0.67668 0.94915 0.0
C1588 C 0.95623 0.67683 0.96369 0.0
C1589 C 0.34882 0.28358 0.99005 0.0
C1590 C 0.34037 0.29636 0.97911 0.0
C1591 C 0.34897 0.26649 0.97459 0.0
C1592 C 0.34081 0.26158 0.94747 0.0
H1593 H 0.35527 0.28668 0.01086 0.0
H1594 H 0.35532 0.25689 0.9841 0.0
S1595 S 0.31822 0.29106 0.90852 0.0
N1596 N 0.32426 0.30343 0.93916 0.0
N1597 N 0.32496 0.27153 0.90981 0.0
C1598 C 0.33251 0.27436 0.93612 0.0
C1599 C 0.3322 0.2917 0.95199 0.0
C1600 C 0.72766 0.0707 0.98691 0.0
C1601 C 0.71388 0.04935 0.97491 0.0
C1602 C 0.74606 0.08766 0.97271 0.0
C1603 C 0.75132 0.08406 0.94578 0.0
H1604 H 0.7244 0.07429 0.00762 0.0
H1605 H 0.75639 0.10366 0.98308 0.0
S1606 S 0.71922 0.03171 0.90415 0.0
N1607 N 0.70611 0.02582 0.93405 0.0
N1608 N 0.74022 0.05785 0.90702 0.0
C1609 C 0.73736 0.06289 0.93332 0.0
C1610 C 0.71877 0.04552 0.94795 0.0
C1611 C 0.67414 0.96237 0.07109 0.0
C1612 C 0.66056 0.95786 0.0478 0.0
C1613 C 0.67495 0.94516 0.08481 0.0
C1614 C 0.66223 0.92264 0.07587 0.0
H1615 H 0.68434 0.9794 0.07889 0.0
H1616 H 0.6856 0.94956 0.10269 0.0
S1617 S 0.62439 0.90173 0.01554 0.0
N1618 N 0.63419 0.92907 0.01624 0.0
N1619 N 0.63591 0.89675 0.0419 0.0
C1620 C 0.64846 0.9178 0.05271 0.0
C1621 C 0.64759 0.93537 0.03872 0.0
C1622 C 0.06329 0.7203 0.04294 0.0
C1623 C 0.04218 0.70672 0.05486 0.0
C1624 C 0.08072 0.7379 0.05779 0.0
C1625 C 0.07783 0.74255 0.08528 0.0
H1626 H 0.06637 0.71748 0.02178 0.0
H1627 H 0.09653 0.74814 0.04749 0.0
S1628 S 0.02633 0.7107 0.12685 0.0
N1629 N 0.01958 0.6984 0.09619 0.0
N1630 N 0.05254 0.73125 0.12442 0.0
C1631 C 0.05689 0.72885 0.09766 0.0
C1632 C 0.03903 0.71099 0.08239 0.0
C1633 C 0.28555 0.32897 0.06943 0.0
C1634 C 0.3014 0.34792 0.05471 0.0
C1635 C 0.26811 0.32898 0.08371 0.0
C1636 C 0.26595 0.34802 0.08412 0.0
H1637 H 0.28655 0.31392 0.06994 0.0
H1638 H 0.2564 0.31406 0.09488 0.0
S1639 S 0.30267 0.40184 0.04865 0.0
N1640 N 0.31355 0.3862 0.04118 0.0
N1641 N 0.28076 0.38618 0.06818 0.0
C1642 C 0.28158 0.36707 0.06947 0.0
C1643 C 0.29928 0.36702 0.05469 0.0
C1644 C 0.74444 0.69266 0.37119 0.0
C1645 C 0.72327 0.6853 0.38257 0.0
C1646 C 0.76084 0.69141 0.38617 0.0
C1647 C 0.75679 0.68329 0.41324 0.0
H1648 H 0.74825 0.69904 0.35039 0.0
H1649 H 0.77684 0.69699 0.37661 0.0
S1650 S 0.7046 0.66276 0.45289 0.0
N1651 N 0.69938 0.66985 0.42277 0.0
N1652 N 0.73043 0.66816 0.45102 0.0
C1653 C 0.7359 0.67625 0.42501 0.0
C1654 C 0.71907 0.67708 0.40964 0.0
C1655 C 0.33209 0.05721 0.37262 0.0
C1656 C 0.33854 0.04305 0.38444 0.0
C1657 C 0.33293 0.07499 0.38762 0.0
C1658 C 0.33999 0.07921 0.41522 0.0
H1659 H 0.32635 0.05457 0.35148 0.0
H1660 H 0.32801 0.08554 0.37743 0.0
S1661 S 0.35762 0.04629 0.45624 0.0
N1662 N 0.35194 0.03414 0.42547 0.0
N1663 N 0.35292 0.06723 0.45411 0.0
C1664 C 0.34651 0.06516 0.42736 0.0
C1665 C 0.34591 0.04716 0.41188 0.0
C1666 C 0.95062 0.27558 0.37254 0.0
C1667 C 0.96493 0.29649 0.38526 0.0
C1668 C 0.93181 0.25875 0.38625 0.0
C1669 C 0.92666 0.26205 0.41335 0.0
H1670 H 0.95376 0.27227 0.35163 0.0
H1671 H 0.92106 0.24311 0.37536 0.0
S1672 S 0.96008 0.313 0.45684 0.0
N1673 N 0.97336 0.31916 0.42703 0.0
N1674 N 0.9384 0.28733 0.45309 0.0
C1675 C 0.94116 0.28271 0.42655 0.0
C1676 C 0.96019 0.29996 0.41246 0.0
C1677 C 0.99876 0.38759 0.30903 0.0
C1678 C 0.01893 0.38888 0.31516 0.0
C1679 C 0.99828 0.40469 0.29461 0.0
C1680 C 0.01794 0.42366 0.28503 0.0
H1681 H 0.98312 0.37317 0.31543 0.0
H1682 H 0.98224 0.40291 0.29085 0.0
S1683 S 0.07519 0.43451 0.29489 0.0
N1684 N 0.05911 0.41052 0.31079 0.0
N1685 N 0.05832 0.44224 0.28242 0.0
C1686 C 0.03832 0.42518 0.29121 0.0
C1687 C 0.03879 0.40791 0.30652 0.0
C1688 C 0.63976 0.61755 0.29562 0.0
C1689 C 0.63627 0.63515 0.30318 0.0
C1690 C 0.62289 0.59784 0.28286 0.0
C1691 C 0.60204 0.59517 0.27678 0.0
H1692 H 0.65539 0.61873 0.30035 0.0
H1693 H 0.62607 0.58442 0.27827 0.0
S1694 S 0.58577 0.63777 0.28867 0.0
N1695 N 0.61096 0.64924 0.30182 0.0
N1696 N 0.57993 0.61301 0.27647 0.0
C1697 C 0.59881 0.61315 0.28306 0.0
C1698 C 0.61573 0.63291 0.2966 0.0
C1699 C 0.37443 0.97251 0.29919 0.0
C1700 C 0.37534 0.99242 0.30759 0.0
C1701 C 0.39233 0.97311 0.2851 0.0
C1702 C 0.41198 0.99366 0.27938 0.0
H1703 H 0.35958 0.95637 0.30292 0.0
H1704 H 0.39056 0.95736 0.2782 0.0
S1705 S 0.4236 0.05036 0.30065 0.0
N1706 N 0.39785 0.03311 0.311 0.0
N1707 N 0.43186 0.03429 0.28592 0.0
C1708 C 0.41332 0.01364 0.28876 0.0
C1709 C 0.39493 0.01301 0.30251 0.0
C1710 C 0.60296 0.9708 0.301 0.0
C1711 C 0.62154 0.99051 0.31129 0.0
C1712 C 0.58633 0.97166 0.286 0.0
C1713 C 0.58745 0.99224 0.28114 0.0
H1714 H 0.60159 0.95467 0.30386 0.0
H1715 H 0.57274 0.95611 0.27767 0.0
S1716 S 0.63145 0.04827 0.30725 0.0
N1717 N 0.63948 0.03093 0.31732 0.0
N1718 N 0.60784 0.03254 0.29059 0.0
C1719 C 0.6056 0.01194 0.29244 0.0
C1720 C 0.62271 0.01107 0.30713 0.0
C1721 C 0.01463 0.61821 0.32094 0.0
C1722 C 0.00698 0.63151 0.30948 0.0
C1723 C 0.0147 0.60101 0.30569 0.0
C1724 C 0.00731 0.5965 0.27825 0.0
H1725 H 0.02053 0.62101 0.34201 0.0
H1726 H 0.02045 0.59103 0.3156 0.0
S1727 S 0.98699 0.62744 0.23798 0.0
N1728 N 0.99241 0.63952 0.26879 0.0
N1729 N 0.99301 0.6074 0.23976 0.0
C1730 C 0.99975 0.60978 0.26639 0.0
C1731 C 0.99949 0.62724 0.28209 0.0
C1732 C 0.38324 0.39835 0.30466 0.0
C1733 C 0.38029 0.37724 0.31064 0.0
C1734 C 0.40225 0.41467 0.29072 0.0
C1735 C 0.41944 0.4108 0.28284 0.0
H1736 H 0.37061 0.40221 0.31046 0.0
H1737 H 0.40336 0.4304 0.28592 0.0
S1738 S 0.42048 0.35876 0.29644 0.0
N1739 N 0.39623 0.35343 0.30869 0.0
N1740 N 0.43261 0.38446 0.28407 0.0
C1741 C 0.4168 0.38981 0.28935 0.0
C1742 C 0.39712 0.37298 0.30287 0.0
C1743 C 0.3094 0.26894 0.39268 0.0
C1744 C 0.32862 0.28811 0.38285 0.0
C1745 C 0.31078 0.25208 0.40678 0.0
C1746 C 0.3314 0.2536 0.41116 0.0
H1747 H 0.29329 0.26731 0.39025 0.0
H1748 H 0.29562 0.23805 0.41491 0.0
S1749 S 0.38617 0.29895 0.38532 0.0
N1750 N 0.36857 0.3068 0.37627 0.0
N1751 N 0.37112 0.27483 0.40133 0.0
C1752 C 0.35057 0.27224 0.40006 0.0
C1753 C 0.34918 0.28954 0.38629 0.0
C1754 C 0.70635 0.04749 0.4117 0.0
C1755 C 0.71054 0.0412 0.3857 0.0
C1756 C 0.72321 0.0661 0.42622 0.0
C1757 C 0.7448 0.07906 0.41519 0.0
H1758 H 0.69007 0.03781 0.42108 0.0
H1759 H 0.71943 0.07017 0.44638 0.0
S1760 S 0.76367 0.07106 0.34665 0.0
N1761 N 0.73756 0.05036 0.34883 0.0
N1762 N 0.7689 0.08532 0.37588 0.0
C1763 C 0.74898 0.07328 0.38893 0.0
C1764 C 0.73194 0.05436 0.37425 0.0
C1765 C 0.96386 0.6979 0.38829 0.0
C1766 C 0.96673 0.67926 0.38842 0.0
C1767 C 0.9463 0.69765 0.40279 0.0
C1768 C 0.93079 0.67864 0.41762 0.0
H1769 H 0.97534 0.71289 0.37708 0.0
H1770 H 0.94469 0.71235 0.40212 0.0
S1771 S 0.93092 0.62561 0.42507 0.0
N1772 N 0.95253 0.64129 0.40513 0.0
N1773 N 0.91964 0.64093 0.43213 0.0
C1774 C 0.93345 0.65992 0.41797 0.0
C1775 C 0.95138 0.66021 0.40345 0.0
C1776 C 0.4113 0.03397 0.71249 0.0
C1777 C 0.38925 0.01597 0.7154 0.0
C1778 C 0.429 0.03414 0.72622 0.0
C1779 C 0.42535 0.01623 0.74318 0.0
H1780 H 0.41493 0.04814 0.69972 0.0
H1781 H 0.44568 0.04834 0.72341 0.0
S1782 S 0.37081 0.96536 0.75836 0.0
N1783 N 0.3649 0.9798 0.73696 0.0
N1784 N 0.39799 0.98038 0.76273 0.0
C1785 C 0.40343 0.99818 0.74626 0.0
C1786 C 0.38545 0.99799 0.7324 0.0
C1787 C 0.99547 0.39169 0.70461 0.0
C1788 C 1.00315 0.37831 0.71572 0.0
C1789 C 0.99549 0.40883 0.72017 0.0
C1790 C 1.00301 0.41317 0.74757 0.0
H1791 H 0.98951 0.38903 0.68358 0.0
H1792 H 0.98973 0.4189 0.71053 0.0
S1793 S 0.0233 0.38184 0.78706 0.0
N1794 N 0.01777 0.36998 0.75613 0.0
N1795 N 0.01733 0.40193 0.78568 0.0
C1796 C 0.01052 0.39975 0.7591 0.0
C1797 C 0.01069 0.38237 0.74311 0.0
C1798 C 0.61551 0.60293 0.70716 0.0
C1799 C 0.62936 0.62437 0.71892 0.0
C1800 C 0.59719 0.58609 0.72156 0.0
C1801 C 0.59206 0.58993 0.74843 0.0
H1802 H 0.61863 0.59917 0.68645 0.0
H1803 H 0.58679 0.57002 0.71138 0.0
S1804 S 0.6243 0.64256 0.78949 0.0
N1805 N 0.63732 0.64821 0.75953 0.0
N1806 N 0.60328 0.6164 0.7869 0.0
C1807 C 0.60607 0.61116 0.76067 0.0
C1808 C 0.62462 0.6284 0.74587 0.0
C1809 C 0.69815 0.73445 0.63708 0.0
C1810 C 0.67873 0.71527 0.64653 0.0
C1811 C 0.69703 0.75126 0.6225 0.0
C1812 C 0.67648 0.74962 0.61714 0.0
H1813 H 0.71421 0.7361 0.64013 0.0
H1814 H 0.71234 0.76534 0.61474 0.0
S1815 S 0.62118 0.70417 0.64134 0.0
N1816 N 0.63863 0.69645 0.6516 0.0
N1817 N 0.63656 0.72828 0.62542 0.0
C1818 C 0.6571 0.73097 0.62777 0.0
C1819 C 0.65822 0.71376 0.64213 0.0
C1820 C 0.30134 0.95987 0.617 0.0
C1821 C 0.2976 0.96493 0.64393 0.0
C1822 C 0.28442 0.94167 0.60211 0.0
C1823 C 0.26319 0.92783 0.61368 0.0
H1824 H 0.31737 0.97017 0.60722 0.0
H1825 H 0.28791 0.93857 0.58126 0.0
S1826 S 0.24549 0.93277 0.68438 0.0
N1827 N 0.27137 0.95397 0.68204 0.0
N1828 N 0.23986 0.91959 0.65431 0.0
C1829 C 0.2594 0.93247 0.64079 0.0
C1830 C 0.27653 0.95105 0.65585 0.0
C1831 C 0.04438 0.30894 0.63869 0.0
C1832 C 0.04232 0.32808 0.63816 0.0
C1833 C 0.06151 0.30829 0.62426 0.0
C1834 C 0.07739 0.32686 0.60907 0.0
H1835 H 0.03257 0.29425 0.65014 0.0
H1836 H 0.06249 0.29323 0.62522 0.0
S1837 S 0.07939 0.38088 0.60057 0.0
N1838 N 0.0577 0.36602 0.62075 0.0
N1839 N 0.08976 0.36469 0.59385 0.0
C1840 C 0.07555 0.34607 0.60836 0.0
C1841 C 0.05806 0.3467 0.62282 0.0
C1842 C 0.26433 0.30287 0.6424 0.0
C1843 C 0.2861 0.3217 0.64309 0.0
C1844 C 0.24739 0.3031 0.62735 0.0
C1845 C 0.2515 0.32228 0.61282 0.0
H1846 H 0.26036 0.28777 0.65337 0.0
H1847 H 0.23089 0.28826 0.62735 0.0
S1848 S 0.30552 0.37582 0.60752 0.0
N1849 N 0.31074 0.36001 0.62744 0.0
N1850 N 0.27891 0.36034 0.59952 0.0
C1851 C 0.27312 0.34117 0.61331 0.0
C1852 C 0.29041 0.3409 0.62833 0.0
C1853 C 0.65642 0.94632 0.63729 0.0
C1854 C 0.6773 0.96485 0.64439 0.0
C1855 C 0.65462 0.92756 0.62334 0.0
C1856 C 0.67368 0.92691 0.61535 0.0
H1857 H 0.64135 0.94602 0.64325 0.0
H1858 H 0.63816 0.91335 0.6192 0.0
S1859 S 0.73228 0.97275 0.62576 0.0
N1860 N 0.71734 0.98195 0.64108 0.0
N1861 N 0.71412 0.94776 0.61306 0.0
C1862 C 0.69465 0.94587 0.62131 0.0
C1863 C 0.69642 0.96456 0.63627 0.0
C1864 C 0.06035 0.71003 0.63529 0.0
C1865 C 0.04327 0.71375 0.6437 0.0
C1866 C 0.07932 0.72669 0.62155 0.0
C1867 C 0.08171 0.74757 0.61495 0.0
H1868 H 0.0593 0.69428 0.63994 0.0
H1869 H 0.09232 0.72322 0.61641 0.0
S1870 S 0.04015 0.76444 0.62965 0.0
N1871 N 0.02947 0.73942 0.64361 0.0
N1872 N 0.06397 0.76991 0.6158 0.0
C1873 C 0.06425 0.75109 0.62245 0.0
C1874 C 0.04534 0.73441 0.63729 0.0
C1875 C 0.97493 0.60336 0.72477 0.0
C1876 C 0.99427 0.62269 0.7155 0.0
C1877 C 0.97617 0.5866 0.73926 0.0
C1878 C 0.99678 0.58835 0.7446 0.0
H1879 H 0.9588 0.60151 0.72159 0.0
H1880 H 0.96088 0.57241 0.74686 0.0
S1881 S 0.052 0.63442 0.72095 0.0
N1882 N 0.0344 0.64197 0.7108 0.0
N1883 N 0.03675 0.61014 0.73656 0.0
C1884 C 0.01613 0.60724 0.73423 0.0
C1885 C 0.01486 0.62446 0.72006 0.0
C1886 C 0.39376 0.38634 0.70987 0.0
C1887 C 0.37301 0.37203 0.7222 0.0
C1888 C 0.41084 0.40453 0.72439 0.0
C1889 C 0.40801 0.409 0.752 0.0
H1890 H 0.39685 0.38356 0.6887 0.0
H1891 H 0.42639 0.41523 0.71379 0.0
S1892 S 0.35716 0.37565 0.79427 0.0
N1893 N 0.35058 0.36313 0.76371 0.0
N1894 N 0.38298 0.39695 0.79148 0.0
C1895 C 0.38731 0.39471 0.76467 0.0
C1896 C 0.36976 0.37631 0.74966 0.0
C1897 C 0.627 0.02552 0.71014 0.0
C1898 C 0.63757 0.01481 0.72135 0.0
C1899 C 0.60951 0.02576 0.72408 0.0
C1900 C 0.60224 0.0156 0.74987 0.0
H1901 H 0.63209 0.03359 0.69028 0.0
H1902 H 0.60165 0.03401 0.71471 0.0
S1903 S 0.62462 0.9861 0.7888 0.0
N1904 N 0.63954 0.99408 0.7602 0.0
N1905 N 0.60689 0.99496 0.78645 0.0
C1906 C 0.61271 0.00507 0.7615 0.0
C1907 C 0.63033 0.00455 0.74722 0.0
loop_
_geom_bond_atom_site_label_1
_geom_bond_atom_site_label_2
_geom_bond_distance
_geom_bond_site_symmetry_2
_ccdc_geom_bond_type
Co0 O1 2.216 . S
Co0 O2 2.091 . S
Co0 O4 2.004 1_554 S
Co0 O10 2.021 . S
Co0 O12 2.137 1_454 S
Co0 O13 2.244 1_455 S
O1 Co0 2.216 . S
O1 C8 1.247 . S
O2 Co0 2.091 . S
O2 C8 1.261 . S
C3 O12 1.247 . S
C3 O13 1.272 1_556 S
O4 Co0 2.004 1_556 S
O4 C9 1.313 . S
Co5 O6 2.061 1_554 S
Co5 O11 2.052 . S
Co5 O13 2.135 . S
O6 Co5 2.061 1_556 S
O6 C9 1.182 1_655 S
C7 O10 1.238 1_655 S
C7 O11 1.241 . S
C8 O1 1.247 . S
C8 O2 1.261 . S
C9 O4 1.313 . S
C9 O6 1.182 1_455 S
O10 Co0 2.021 . S
O10 C7 1.238 1_455 S
O11 Co5 2.052 . S
O11 C7 1.241 . S
O12 Co0 2.137 1_656 S
O12 C3 1.247 . S
O13 Co0 2.244 1_655 S
O13 C3 1.272 1_554 S
O13 Co5 2.135 . S
Co14 O15 2.216 1_554 S
Co14 O16 2.091 . S
Co14 O18 2.004 . S
Co14 O24 2.021 1_554 S
Co14 O26 2.137 . S
Co14 O27 2.244 . S
O15 Co14 2.216 1_556 S
O15 C22 1.247 . S
O16 Co14 2.091 . S
O16 C22 1.261 1_554 S
C17 O26 1.247 . S
C17 O27 1.272 . S
O18 Co14 2.004 . S
O18 C23 1.259 . S
Co19 O20 2.061 . S
Co19 O25 2.052 1_554 S
Co19 O27 2.135 . S
O20 Co19 2.061 . S
O20 C23 1.235 . S
C21 O24 1.238 . S
C21 O25 1.241 . S
C22 O15 1.247 . S
C22 O16 1.261 1_556 S
C23 O18 1.259 . S
C23 O20 1.235 . S
O24 Co14 2.021 1_556 S
O24 C21 1.238 . S
O25 Co19 2.052 1_556 S
O25 C21 1.241 . S
O26 Co14 2.137 . S
O26 C17 1.247 . S
O27 Co14 2.244 . S
O27 C17 1.272 . S
O27 Co19 2.135 . S
Co28 O29 2.216 1_554 S
Co28 O30 2.091 . S
Co28 O32 2.004 . S
Co28 O38 2.021 1_554 S
Co28 O40 2.137 1_545 S
Co28 O41 2.244 1_545 S
O29 Co28 2.216 1_556 S
O29 C36 1.247 . S
O30 Co28 2.091 . S
O30 C36 1.261 1_554 S
C31 O40 1.247 . S
C31 O41 1.272 . S
O32 Co28 2.004 . S
O32 C37 1.259 . S
Co33 O34 2.061 . S
Co33 O39 2.052 1_554 S
Co33 O41 2.135 . S
O34 Co33 2.061 . S
O34 C37 1.235 1_565 S
C35 O38 1.238 1_565 S
C35 O39 1.241 . S
C36 O29 1.247 . S
C36 O30 1.261 1_556 S
C37 O32 1.259 . S
C37 O34 1.235 1_545 S
O38 Co28 2.021 1_556 S
O38 C35 1.238 1_545 S
O39 Co33 2.052 1_556 S
O39 C35 1.241 . S
O40 Co28 2.137 1_565 S
O40 C31 1.247 . S
O41 Co28 2.244 1_565 S
O41 C31 1.272 . S
O41 Co33 2.135 . S
Co42 O43 2.216 1_554 S
Co42 O44 2.091 . S
Co42 O46 2.004 . S
Co42 O52 2.021 1_554 S
Co42 O54 2.137 1_655 S
Co42 O55 2.244 1_655 S
O43 Co42 2.216 1_556 S
O43 C50 1.247 . S
O44 Co42 2.091 . S
O44 C50 1.261 1_554 S
C45 O54 1.247 . S
C45 O55 1.272 . S
O46 Co42 2.004 . S
O46 C51 1.257 1_655 S
Co47 O48 2.061 . S
Co47 O53 2.052 1_554 S
Co47 O55 2.135 . S
O48 Co47 2.061 . S
O48 C51 1.237 . S
C49 O52 1.238 1_455 S
C49 O53 1.241 . S
C50 O43 1.247 . S
C50 O44 1.261 1_556 S
C51 O46 1.257 1_455 S
C51 O48 1.237 . S
O52 Co42 2.021 1_556 S
O52 C49 1.238 1_655 S
O53 Co47 2.052 1_556 S
O53 C49 1.241 . S
O54 Co42 2.137 1_455 S
O54 C45 1.247 . S
O55 Co42 2.244 1_455 S
O55 C45 1.272 . S
O55 Co47 2.135 . S
Co56 O57 2.216 . S
Co56 O58 2.091 . S
Co56 O60 2.004 1_554 S
Co56 O66 2.021 . S
Co56 O68 2.137 1_554 S
Co56 O69 2.244 1_554 S
O57 Co56 2.216 . S
O57 C64 1.247 . S
O58 Co56 2.091 . S
O58 C64 1.261 . S
C59 O68 1.247 . S
C59 O69 1.272 . S
O60 Co56 2.004 1_556 S
O60 C65 1.259 . S
Co61 O62 2.061 . S
Co61 O67 2.052 1_556 S
Co61 O69 2.135 . S
O62 Co61 2.061 . S
O62 C65 1.235 . S
C63 O66 1.238 . S
C63 O67 1.241 . S
C64 O57 1.247 . S
C64 O58 1.261 . S
C65 O60 1.259 . S
C65 O62 1.235 . S
O66 Co56 2.021 . S
O66 C63 1.238 . S
O67 Co61 2.052 1_554 S
O67 C63 1.241 . S
O68 Co56 2.137 1_556 S
O68 C59 1.247 . S
O69 Co56 2.244 1_556 S
O69 C59 1.272 . S
O69 Co61 2.135 . S
Co70 O71 2.216 . S
Co70 O72 2.091 . S
Co70 O74 2.004 1_554 S
Co70 O80 2.021 . S
Co70 O82 2.137 1_564 S
Co70 O83 2.244 1_565 S
O71 Co70 2.216 . S
O71 C78 1.247 . S
O72 Co70 2.091 . S
O72 C78 1.261 . S
C73 O82 1.247 . S
C73 O83 1.272 1_556 S
O74 Co70 2.004 1_556 S
O74 C79 1.257 1_565 S
Co75 O76 2.061 1_554 S
Co75 O81 2.052 . S
Co75 O83 2.135 . S
O76 Co75 2.061 1_556 S
O76 C79 1.237 . S
C77 O80 1.238 1_545 S
C77 O81 1.241 . S
C78 O71 1.247 . S
C78 O72 1.261 . S
C79 O74 1.257 1_545 S
C79 O76 1.237 . S
O80 Co70 2.021 . S
O80 C77 1.238 1_565 S
O81 Co75 2.052 . S
O81 C77 1.241 . S
O82 Co70 2.137 1_546 S
O82 C73 1.247 . S
O83 Co70 2.244 1_545 S
O83 C73 1.272 1_554 S
O83 Co75 2.135 . S
Co84 O85 2.216 . S
Co84 O86 2.091 . S
Co84 O88 2.004 . S
Co84 O94 2.021 . S
Co84 O96 2.137 . S
Co84 O97 2.244 . S
O85 Co84 2.216 . S
O85 C92 1.247 . S
O86 Co84 2.091 . S
O86 C92 1.261 . S
C87 O96 1.247 . S
C87 O97 1.272 . S
O88 Co84 2.004 . S
O88 C93 1.259 . S
Co89 O90 2.061 . S
Co89 O95 2.052 . S
Co89 O97 2.135 . S
O90 Co89 2.061 . S
O90 C93 1.235 . S
C91 O94 1.238 . S
C91 O95 1.241 . S
C92 O85 1.247 . S
C92 O86 1.261 . S
C93 O88 1.259 . S
C93 O90 1.235 . S
O94 Co84 2.021 . S
O94 C91 1.238 . S
O95 Co89 2.052 . S
O95 C91 1.241 . S
O96 Co84 2.137 . S
O96 C87 1.247 . S
O97 Co84 2.244 . S
O97 C87 1.272 . S
O97 Co89 2.135 . S
Co98 O99 2.216 1_565 S
Co98 O100 2.091 . S
Co98 O102 2.004 . S
Co98 O108 2.021 . S
Co98 O110 2.137 1_565 S
Co98 O111 2.244 1_565 S
O99 Co98 2.216 1_545 S
O99 C106 1.247 1_545 S
O100 Co98 2.091 . S
O100 C106 1.261 . S
C101 O110 1.247 . S
C101 O111 1.272 . S
O102 Co98 2.004 . S
O102 C107 1.259 . S
Co103 O104 2.061 . S
Co103 O109 2.052 . S
Co103 O111 2.135 1_565 S
O104 Co103 2.061 . S
O104 C107 1.235 . S
C105 O108 1.238 . S
C105 O109 1.241 . S
C106 O99 1.247 1_565 S
C106 O100 1.261 . S
C107 O102 1.259 . S
C107 O104 1.235 . S
O108 Co98 2.021 . S
O108 C105 1.238 . S
O109 Co103 2.052 . S
O109 C105 1.241 . S
O110 Co98 2.137 1_545 S
O110 C101 1.247 . S
O111 Co98 2.244 1_545 S
O111 C101 1.272 . S
O111 Co103 2.135 1_545 S
Co112 O113 2.242 . S
Co112 O114 2.091 . S
Co112 O116 2.004 . S
Co112 O122 2.021 . S
Co112 O124 2.137 1_455 S
Co112 O125 2.244 1_455 S
O113 Co112 2.242 . S
O113 C120 1.248 . S
O114 Co112 2.091 . S
O114 C120 1.261 . S
C115 O124 1.247 . S
C115 O125 1.272 . S
O116 Co112 2.004 . S
O116 C121 1.259 . S
Co117 O118 2.061 . S
Co117 O123 2.052 . S
Co117 O125 2.135 1_455 S
O118 Co117 2.061 . S
O118 C121 1.235 . S
C119 O122 1.238 . S
C119 O123 1.241 . S
C120 O113 1.248 . S
C120 O114 1.261 . S
C121 O116 1.259 . S
C121 O118 1.235 . S
O122 Co112 2.021 . S
O122 C119 1.238 . S
O123 Co117 2.052 . S
O123 C119 1.241 . S
O124 Co112 2.137 1_655 S
O124 C115 1.247 . S
O125 Co112 2.244 1_655 S
O125 C115 1.272 . S
O125 Co117 2.135 1_655 S
Co126 O127 2.216 1_565 S
Co126 O128 2.091 . S
Co126 O130 2.004 . S
Co126 O136 2.021 . S
Co126 O138 2.137 1_565 S
Co126 O139 2.244 1_565 S
O127 Co126 2.216 1_545 S
O127 C134 1.247 1_545 S
O128 Co126 2.091 . S
O128 C134 1.261 . S
C129 O138 1.247 . S
C129 O139 1.272 . S
O130 Co126 2.004 . S
O130 C135 1.259 . S
Co131 O132 2.061 . S
Co131 O137 2.052 . S
Co131 O139 2.135 1_565 S
O132 Co131 2.061 . S
O132 C135 1.235 . S
C133 O136 1.238 . S
C133 O137 1.241 . S
C134 O127 1.247 1_565 S
C134 O128 1.261 . S
C135 O130 1.259 . S
C135 O132 1.235 . S
O136 Co126 2.021 . S
O136 C133 1.238 . S
O137 Co131 2.052 . S
O137 C133 1.241 . S
O138 Co126 2.137 1_545 S
O138 C129 1.247 . S
O139 Co126 2.244 1_545 S
O139 C129 1.272 . S
O139 Co131 2.135 1_545 S
Co140 O141 2.216 1_455 S
Co140 O142 2.091 1_455 S
Co140 O144 2.004 . S
Co140 O150 2.021 . S
Co140 O152 2.137 1_455 S
Co140 O153 2.244 . S
O141 Co140 2.216 1_655 S
O141 C148 1.247 . S
O142 Co140 2.091 1_655 S
O142 C148 1.261 . S
C143 O152 1.247 1_455 S
C143 O153 1.272 . S
O144 Co140 2.004 . S
O144 C149 1.259 . S
Co145 O146 2.061 . S
Co145 O151 2.052 . S
Co145 O153 2.135 . S
O146 Co145 2.061 . S
O146 C149 1.235 . S
C147 O150 1.238 . S
C147 O151 1.241 . S
C148 O141 1.247 . S
C148 O142 1.261 . S
C149 O144 1.259 . S
C149 O146 1.235 . S
O150 Co140 2.021 . S
O150 C147 1.238 . S
O151 Co145 2.052 . S
O151 C147 1.241 . S
O152 Co140 2.137 1_655 S
O152 C143 1.247 1_655 S
O153 Co140 2.244 . S
O153 C143 1.272 . S
O153 Co145 2.135 . S
Co154 O155 2.216 . S
Co154 O156 2.091 . S
Co154 O158 2.004 . S
Co154 O164 2.021 . S
Co154 O166 2.137 . S
Co154 O167 2.244 . S
O155 Co154 2.216 . S
O155 C162 1.247 . S
O156 Co154 2.091 . S
O156 C162 1.261 . S
C157 O166 1.247 . S
C157 O167 1.272 . S
O158 Co154 2.004 . S
O158 C163 1.259 . S
Co159 O160 2.061 . S
Co159 O165 2.052 . S
Co159 O167 2.135 . S
O160 Co159 2.061 . S
O160 C163 1.235 . S
C161 O164 1.238 . S
C161 O165 1.241 . S
C162 O155 1.247 . S
C162 O156 1.261 . S
C163 O158 1.259 . S
C163 O160 1.235 . S
O164 Co154 2.021 . S
O164 C161 1.238 . S
O165 Co159 2.052 . S
O165 C161 1.241 . S
O166 Co154 2.137 . S
O166 C157 1.247 . S
O167 Co154 2.244 . S
O167 C157 1.272 . S
O167 Co159 2.135 . S
Co168 O169 2.199 1_545 S
Co168 O170 2.091 . S
Co168 O172 2.004 . S
Co168 O178 2.021 . S
Co168 O180 2.137 1_545 S
Co168 O181 2.244 1_545 S
O169 Co168 2.199 1_565 S
O169 C176 1.247 1_565 S
O170 Co168 2.091 . S
O170 C176 1.261 . S
C171 O180 1.247 . S
C171 O181 1.272 . S
O172 Co168 2.004 . S
O172 C177 1.259 . S
Co173 O174 2.061 . S
Co173 O179 2.052 . S
Co173 O181 2.135 1_545 S
O174 Co173 2.061 . S
O174 C177 1.235 . S
C175 O178 1.238 . S
C175 O179 1.241 . S
C176 O169 1.247 1_545 S
C176 O170 1.261 . S
C177 O172 1.259 . S
C177 O174 1.235 . S
O178 Co168 2.021 . S
O178 C175 1.238 . S
O179 Co173 2.052 . S
O179 C175 1.241 . S
O180 Co168 2.137 1_565 S
O180 C171 1.247 . S
O181 Co168 2.244 1_565 S
O181 C171 1.272 . S
O181 Co173 2.135 1_565 S
Co182 O183 2.216 1_655 S
Co182 O184 2.091 1_655 S
Co182 O186 2.004 . S
Co182 O192 2.021 . S
Co182 O194 2.137 1_655 S
Co182 O195 2.244 . S
O183 Co182 2.216 1_455 S
O183 C190 1.247 . S
O184 Co182 2.091 1_455 S
O184 C190 1.261 . S
C185 O194 1.247 1_655 S
C185 O195 1.272 . S
O186 Co182 2.004 . S
O186 C191 1.259 . S
Co187 O188 2.061 . S
Co187 O193 2.052 . S
Co187 O195 2.135 . S
O188 Co187 2.061 . S
O188 C191 1.235 . S
C189 O192 1.238 . S
C189 O193 1.241 . S
C190 O183 1.247 . S
C190 O184 1.261 . S
C191 O186 1.259 . S
C191 O188 1.235 . S
O192 Co182 2.021 . S
O192 C189 1.238 . S
O193 Co187 2.052 . S
O193 C189 1.241 . S
O194 Co182 2.137 1_455 S
O194 C185 1.247 1_455 S
O195 Co182 2.244 . S
O195 C185 1.272 . S
O195 Co187 2.135 . S
Co196 O197 2.216 . S
Co196 O198 2.091 . S
Co196 O200 2.004 . S
Co196 O206 2.021 . S
Co196 O208 2.137 . S
Co196 O209 2.244 . S
O197 Co196 2.216 . S
O197 C204 1.247 . S
O198 Co196 2.091 . S
O198 C204 1.261 . S
C199 O208 1.247 . S
C199 O209 1.272 . S
O200 Co196 2.004 . S
O200 C205 1.259 . S
Co201 O202 2.061 . S
Co201 O207 2.052 . S
Co201 O209 2.135 . S
O202 Co201 2.061 . S
O202 C205 1.235 . S
C203 O206 1.238 . S
C203 O207 1.241 . S
C204 O197 1.247 . S
C204 O198 1.261 . S
C205 O200 1.259 . S
C205 O202 1.235 . S
O206 Co196 2.021 . S
O206 C203 1.238 . S
O207 Co201 2.052 . S
O207 C203 1.241 . S
O208 Co196 2.137 . S
O208 C199 1.247 . S
O209 Co196 2.244 . S
O209 C199 1.272 . S
O209 Co201 2.135 . S
Co210 O211 2.216 . S
Co210 O212 2.091 . S
Co210 O214 2.004 . S
Co210 O220 2.021 . S
Co210 O222 2.137 . S
Co210 O223 2.244 . S
O211 Co210 2.216 . S
O211 C218 1.247 . S
O212 Co210 2.091 . S
O212 C218 1.261 . S
C213 O222 1.247 . S
C213 O223 1.272 . S
O214 Co210 2.004 . S
O214 C219 1.259 . S
Co215 O216 2.061 . S
Co215 O221 2.052 . S
Co215 O223 2.135 . S
O216 Co215 2.061 . S
O216 C219 1.235 . S
C217 O220 1.238 . S
C217 O221 1.241 . S
C218 O211 1.247 . S
C218 O212 1.261 . S
C219 O214 1.259 . S
C219 O216 1.235 . S
O220 Co210 2.021 . S
O220 C217 1.238 . S
O221 Co215 2.052 . S
O221 C217 1.241 . S
O222 Co210 2.137 . S
O222 C213 1.247 . S
O223 Co210 2.244 . S
O223 C213 1.272 . S
O223 Co215 2.135 . S
Co224 O225 2.208 1_545 S
Co224 O226 2.091 . S
Co224 O228 2.004 . S
Co224 O234 2.021 . S
Co224 O236 2.137 1_545 S
Co224 O237 2.244 1_545 S
O225 Co224 2.208 1_565 S
O225 C232 1.217 1_565 S
O226 Co224 2.091 . S
O226 C232 1.261 . S
C227 O236 1.247 . S
C227 O237 1.272 . S
O228 Co224 2.004 . S
O228 C233 1.259 . S
Co229 O230 2.061 . S
Co229 O235 2.052 . S
Co229 O237 2.135 1_545 S
O230 Co229 2.061 . S
O230 C233 1.235 . S
C231 O234 1.238 . S
C231 O235 1.241 . S
C232 O225 1.217 1_545 S
C232 O226 1.261 . S
C233 O228 1.259 . S
C233 O230 1.235 . S
O234 Co224 2.021 . S
O234 C231 1.238 . S
O235 Co229 2.052 . S
O235 C231 1.241 . S
O236 Co224 2.137 1_565 S
O236 C227 1.247 . S
O237 Co224 2.244 1_565 S
O237 C227 1.272 . S
O237 Co229 2.135 1_565 S
Co238 O239 2.223 . S
Co238 O240 2.091 . S
Co238 O242 2.004 . S
Co238 O248 2.021 . S
Co238 O250 2.137 1_655 S
Co238 O251 2.244 1_655 S
O239 Co238 2.223 . S
O239 C246 1.247 . S
O240 Co238 2.091 . S
O240 C246 1.261 . S
C241 O250 1.247 . S
C241 O251 1.272 . S
O242 Co238 2.004 . S
O242 C247 1.259 . S
Co243 O244 2.061 . S
Co243 O249 2.052 . S
Co243 O251 2.135 1_655 S
O244 Co243 2.061 . S
O244 C247 1.235 . S
C245 O248 1.238 . S
C245 O249 1.241 . S
C246 O239 1.247 . S
C246 O240 1.261 . S
C247 O242 1.259 . S
C247 O244 1.235 . S
O248 Co238 2.021 . S
O248 C245 1.238 . S
O249 Co243 2.052 . S
O249 C245 1.241 . S
O250 Co238 2.137 1_455 S
O250 C241 1.247 . S
O251 Co238 2.244 1_455 S
O251 C241 1.272 . S
O251 Co243 2.135 1_455 S
H252 C271 0.949 . S
H253 C272 0.950 . S
H254 C274 0.950 . S
H255 C275 0.950 . S
H256 C277 0.950 . S
H257 C280 0.950 . S
H258 C281 0.950 . S
H259 C283 0.951 . S
H260 C284 0.949 . S
H261 C286 0.949 . S
H262 C287 0.950 . S
H263 C289 0.950 . S
H264 C290 0.950 . S
H265 C292 0.950 . S
H266 C295 0.950 . S
H267 C296 0.950 . S
H268 C298 0.951 . S
H269 C299 0.949 . S
C270 C271 1.376 . S
C270 C275 1.386 . S
C270 C276 1.483 . S
C271 H252 0.949 . S
C271 C270 1.376 . S
C271 C272 1.397 . S
C272 H253 0.950 . S
C272 C271 1.397 . S
C272 C273 1.391 . S
C273 C272 1.391 . S
C273 C274 1.405 . S
C274 H254 0.950 . S
C274 C273 1.405 . S
C274 C275 1.367 . S
C275 H255 0.950 . S
C275 C270 1.386 . S
C275 C274 1.367 . S
C276 C270 1.483 . S
C276 C277 1.382 . S
C276 C278 1.403 . S
C277 H256 0.950 . S
C277 C276 1.382 . S
C277 C293 1.411 . S
C278 C276 1.403 . S
C278 C279 1.489 . S
C278 C292 1.411 . S
C279 C278 1.489 . S
C279 C280 1.383 . S
C279 C284 1.382 . S
C280 H257 0.950 . S
C280 C279 1.383 . S
C280 C281 1.395 . S
C281 H258 0.950 . S
C281 C280 1.395 . S
C281 C282 1.288 . S
C282 C281 1.288 . S
C282 C283 1.392 . S
C283 H259 0.951 . S
C283 C282 1.392 . S
C283 C284 1.392 . S
C284 H260 0.949 . S
C284 C279 1.382 . S
C284 C283 1.392 . S
C285 C286 1.376 . S
C285 C290 1.386 . S
C285 C291 1.483 . S
C286 H261 0.949 . S
C286 C285 1.376 . S
C286 C287 1.397 . S
C287 H262 0.950 . S
C287 C286 1.397 . S
C287 C288 1.391 . S
C288 C287 1.391 . S
C288 C289 1.405 . S
C289 H263 0.950 . S
C289 C288 1.405 . S
C289 C290 1.367 . S
C290 H264 0.950 . S
C290 C285 1.386 . S
C290 C289 1.367 . S
C291 C285 1.483 . S
C291 C292 1.382 . S
C291 C293 1.403 . S
C292 H265 0.950 . S
C292 C278 1.411 . S
C292 C291 1.382 . S
C293 C277 1.411 . S
C293 C291 1.403 . S
C293 C294 1.489 . S
C294 C293 1.489 . S
C294 C295 1.383 . S
C294 C299 1.382 . S
C295 H266 0.950 . S
C295 C294 1.383 . S
C295 C296 1.395 . S
C296 H267 0.950 . S
C296 C295 1.395 . S
C296 C297 1.288 . S
C297 C296 1.288 . S
C297 C298 1.392 . S
C298 H268 0.951 . S
C298 C297 1.392 . S
C298 C299 1.392 . S
C299 H269 0.949 . S
C299 C294 1.382 . S
C299 C298 1.392 . S
H300 C319 0.949 . S
H301 C320 0.950 . S
H302 C322 0.950 . S
H303 C323 0.950 . S
H304 C325 0.950 . S
H305 C328 0.950 . S
H306 C329 0.950 . S
H307 C331 0.951 . S
H308 C332 0.949 . S
H309 C334 0.949 . S
H310 C335 0.950 . S
H311 C337 0.950 . S
H312 C338 0.950 . S
H313 C340 0.950 . S
H314 C343 0.950 . S
H315 C344 0.950 . S
H316 C346 0.951 . S
H317 C347 0.949 . S
C318 C319 1.376 . S
C318 C323 1.386 . S
C318 C324 1.483 . S
C319 H300 0.949 . S
C319 C318 1.376 . S
C319 C320 1.397 . S
C320 H301 0.950 . S
C320 C319 1.397 . S
C320 C321 1.391 . S
C321 C320 1.391 . S
C321 C322 1.405 . S
C322 H302 0.950 . S
C322 C321 1.405 . S
C322 C323 1.367 . S
C323 H303 0.950 . S
C323 C318 1.386 . S
C323 C322 1.367 . S
C324 C318 1.483 . S
C324 C325 1.382 . S
C324 C326 1.403 . S
C325 H304 0.950 . S
C325 C324 1.382 . S
C325 C341 1.411 . S
C326 C324 1.403 . S
C326 C327 1.489 . S
C326 C340 1.411 . S
C327 C326 1.489 . S
C327 C328 1.383 . S
C327 C332 1.382 . S
C328 H305 0.950 . S
C328 C327 1.383 . S
C328 C329 1.395 . S
C329 H306 0.950 . S
C329 C328 1.395 . S
C329 C330 1.288 . S
C330 C329 1.288 . S
C330 C331 1.392 . S
C331 H307 0.951 . S
C331 C330 1.392 . S
C331 C332 1.392 . S
C332 H308 0.949 . S
C332 C327 1.382 . S
C332 C331 1.392 . S
C333 C334 1.376 . S
C333 C338 1.386 . S
C333 C339 1.483 . S
C334 H309 0.949 . S
C334 C333 1.376 . S
C334 C335 1.397 . S
C335 H310 0.950 . S
C335 C334 1.397 . S
C335 C336 1.391 . S
C336 C335 1.391 . S
C336 C337 1.405 . S
C337 H311 0.950 . S
C337 C336 1.405 . S
C337 C338 1.367 . S
C338 H312 0.950 . S
C338 C333 1.386 . S
C338 C337 1.367 . S
C339 C333 1.483 . S
C339 C340 1.382 . S
C339 C341 1.403 . S
C340 H313 0.950 . S
C340 C326 1.411 . S
C340 C339 1.382 . S
C341 C325 1.411 . S
C341 C339 1.403 . S
C341 C342 1.489 . S
C342 C341 1.489 . S
C342 C343 1.383 . S
C342 C347 1.382 . S
C343 H314 0.950 . S
C343 C342 1.383 . S
C343 C344 1.395 . S
C344 H315 0.950 . S
C344 C343 1.395 . S
C344 C345 1.288 . S
C345 C344 1.288 . S
C345 C346 1.392 . S
C346 H316 0.951 . S
C346 C345 1.392 . S
C346 C347 1.392 . S
C347 H317 0.949 . S
C347 C342 1.382 . S
C347 C346 1.392 . S
H348 C367 0.949 . S
H349 C368 0.950 . S
H350 C370 0.950 . S
H351 C371 0.950 . S
H352 C373 0.950 . S
H353 C376 0.950 . S
H354 C377 0.950 . S
H355 C379 0.951 . S
H356 C380 0.949 . S
H357 C382 0.949 . S
H358 C383 0.950 . S
H359 C385 0.950 . S
H360 C386 0.950 . S
H361 C388 0.950 . S
H362 C391 0.950 . S
H363 C392 0.950 . S
H364 C394 0.951 . S
H365 C395 0.949 . S
C366 C367 1.376 . S
C366 C371 1.386 . S
C366 C372 1.483 . S
C367 H348 0.949 . S
C367 C366 1.376 . S
C367 C368 1.397 . S
C368 H349 0.950 . S
C368 C367 1.397 . S
C368 C369 1.391 . S
C369 C368 1.391 . S
C369 C370 1.405 . S
C370 H350 0.950 . S
C370 C369 1.405 . S
C370 C371 1.367 . S
C371 H351 0.950 . S
C371 C366 1.386 . S
C371 C370 1.367 . S
C372 C366 1.483 . S
C372 C373 1.382 . S
C372 C374 1.403 . S
C373 H352 0.950 . S
C373 C372 1.382 . S
C373 C389 1.411 . S
C374 C372 1.403 . S
C374 C375 1.489 . S
C374 C388 1.411 . S
C375 C374 1.489 . S
C375 C376 1.383 . S
C375 C380 1.382 . S
C376 H353 0.950 . S
C376 C375 1.383 . S
C376 C377 1.395 . S
C377 H354 0.950 . S
C377 C376 1.395 . S
C377 C378 1.288 . S
C378 C377 1.288 . S
C378 C379 1.392 . S
C379 H355 0.951 . S
C379 C378 1.392 . S
C379 C380 1.392 . S
C380 H356 0.949 . S
C380 C375 1.382 . S
C380 C379 1.392 . S
C381 C382 1.376 . S
C381 C386 1.386 . S
C381 C387 1.483 . S
C382 H357 0.949 . S
C382 C381 1.376 . S
C382 C383 1.397 . S
C383 H358 0.950 . S
C383 C382 1.397 . S
C383 C384 1.391 . S
C384 C383 1.391 . S
C384 C385 1.405 . S
C385 H359 0.950 . S
C385 C384 1.405 . S
C385 C386 1.367 . S
C386 H360 0.950 . S
C386 C381 1.386 . S
C386 C385 1.367 . S
C387 C381 1.483 . S
C387 C388 1.382 . S
C387 C389 1.403 . S
C388 H361 0.950 . S
C388 C374 1.411 . S
C388 C387 1.382 . S
C389 C373 1.411 . S
C389 C387 1.403 . S
C389 C390 1.489 . S
C390 C389 1.489 . S
C390 C391 1.383 . S
C390 C395 1.382 . S
C391 H362 0.950 . S
C391 C390 1.383 . S
C391 C392 1.395 . S
C392 H363 0.950 . S
C392 C391 1.395 . S
C392 C393 1.288 . S
C393 C392 1.288 . S
C393 C394 1.392 . S
C394 H364 0.951 . S
C394 C393 1.392 . S
C394 C395 1.392 . S
C395 H365 0.949 . S
C395 C390 1.382 . S
C395 C394 1.392 . S
H396 C415 0.949 . S
H397 C416 0.950 . S
H398 C418 0.950 . S
H399 C419 0.950 . S
H400 C421 0.950 . S
H401 C424 0.950 . S
H402 C425 0.950 . S
H403 C427 0.951 . S
H404 C428 0.949 . S
H405 C430 0.949 . S
H406 C431 0.950 . S
H407 C433 0.950 . S
H408 C434 0.950 . S
H409 C436 0.950 . S
H410 C439 0.950 . S
H411 C440 0.950 . S
H412 C442 0.951 . S
H413 C443 0.949 . S
C414 C415 1.376 . S
C414 C419 1.386 . S
C414 C420 1.483 . S
C415 H396 0.949 . S
C415 C414 1.376 . S
C415 C416 1.397 . S
C416 H397 0.950 . S
C416 C415 1.397 . S
C416 C417 1.391 . S
C417 C416 1.391 . S
C417 C418 1.405 . S
C418 H398 0.950 . S
C418 C417 1.405 . S
C418 C419 1.367 . S
C419 H399 0.950 . S
C419 C414 1.386 . S
C419 C418 1.367 . S
C420 C414 1.483 . S
C420 C421 1.382 . S
C420 C422 1.403 . S
C421 H400 0.950 . S
C421 C420 1.382 . S
C421 C437 1.411 . S
C422 C420 1.403 . S
C422 C423 1.489 . S
C422 C436 1.411 . S
C423 C422 1.489 . S
C423 C424 1.383 . S
C423 C428 1.382 . S
C424 H401 0.950 . S
C424 C423 1.383 . S
C424 C425 1.395 . S
C425 H402 0.950 . S
C425 C424 1.395 . S
C425 C426 1.288 . S
C426 C425 1.288 . S
C426 C427 1.392 . S
C427 H403 0.951 . S
C427 C426 1.392 . S
C427 C428 1.392 . S
C428 H404 0.949 . S
C428 C423 1.382 . S
C428 C427 1.392 . S
C429 C430 1.376 . S
C429 C434 1.386 . S
C429 C435 1.483 . S
C430 H405 0.949 . S
C430 C429 1.376 . S
C430 C431 1.397 . S
C431 H406 0.950 . S
C431 C430 1.397 . S
C431 C432 1.391 . S
C432 C431 1.391 . S
C432 C433 1.405 . S
C433 H407 0.950 . S
C433 C432 1.405 . S
C433 C434 1.367 . S
C434 H408 0.950 . S
C434 C429 1.386 . S
C434 C433 1.367 . S
C435 C429 1.483 . S
C435 C436 1.382 . S
C435 C437 1.403 . S
C436 H409 0.950 . S
C436 C422 1.411 . S
C436 C435 1.382 . S
C437 C421 1.411 . S
C437 C435 1.403 . S
C437 C438 1.489 . S
C438 C437 1.489 . S
C438 C439 1.383 . S
C438 C443 1.382 . S
C439 H410 0.950 . S
C439 C438 1.383 . S
C439 C440 1.395 . S
C440 H411 0.950 . S
C440 C439 1.395 . S
C440 C441 1.288 . S
C441 C440 1.288 . S
C441 C442 1.392 . S
C442 H412 0.951 . S
C442 C441 1.392 . S
C442 C443 1.392 . S
C443 H413 0.949 . S
C443 C438 1.382 . S
C443 C442 1.392 . S
H444 C463 0.949 . S
H445 C464 0.950 . S
H446 C466 0.950 . S
H447 C467 0.950 . S
H448 C469 0.950 . S
H449 C472 0.950 . S
H450 C473 0.950 . S
H451 C475 0.951 . S
H452 C476 0.949 . S
H453 C478 0.949 . S
H454 C479 0.950 . S
H455 C481 0.950 . S
H456 C482 0.950 . S
H457 C484 0.950 . S
H458 C487 0.950 . S
H459 C488 0.950 . S
H460 C490 0.951 . S
H461 C491 0.949 . S
C462 C463 1.376 . S
C462 C467 1.386 . S
C462 C468 1.483 . S
C463 H444 0.949 . S
C463 C462 1.376 . S
C463 C464 1.397 . S
C464 H445 0.950 . S
C464 C463 1.397 . S
C464 C465 1.391 . S
C465 C464 1.391 . S
C465 C466 1.405 . S
C466 H446 0.950 . S
C466 C465 1.405 . S
C466 C467 1.367 . S
C467 H447 0.950 . S
C467 C462 1.386 . S
C467 C466 1.367 . S
C468 C462 1.483 . S
C468 C469 1.382 . S
C468 C470 1.403 . S
C469 H448 0.950 . S
C469 C468 1.382 . S
C469 C485 1.411 . S
C470 C468 1.403 . S
C470 C471 1.489 . S
C470 C484 1.411 . S
C471 C470 1.489 . S
C471 C472 1.383 . S
C471 C476 1.382 . S
C472 H449 0.950 . S
C472 C471 1.383 . S
C472 C473 1.395 . S
C473 H450 0.950 . S
C473 C472 1.395 . S
C473 C474 1.288 . S
C474 C473 1.288 . S
C474 C475 1.392 . S
C475 H451 0.951 . S
C475 C474 1.392 . S
C475 C476 1.392 . S
C476 H452 0.949 . S
C476 C471 1.382 . S
C476 C475 1.392 . S
C477 C478 1.376 . S
C477 C482 1.386 . S
C477 C483 1.483 . S
C478 H453 0.949 . S
C478 C477 1.376 . S
C478 C479 1.397 . S
C479 H454 0.950 . S
C479 C478 1.397 . S
C479 C480 1.391 . S
C480 C479 1.391 . S
C480 C481 1.405 . S
C481 H455 0.950 . S
C481 C480 1.405 . S
C481 C482 1.367 . S
C482 H456 0.950 . S
C482 C477 1.386 . S
C482 C481 1.367 . S
C483 C477 1.483 . S
C483 C484 1.382 . S
C483 C485 1.403 . S
C484 H457 0.950 . S
C484 C470 1.411 . S
C484 C483 1.382 . S
C485 C469 1.411 . S
C485 C483 1.403 . S
C485 C486 1.489 . S
C486 C485 1.489 . S
C486 C487 1.383 . S
C486 C491 1.382 . S
C487 H458 0.950 . S
C487 C486 1.383 . S
C487 C488 1.395 . S
C488 H459 0.950 . S
C488 C487 1.395 . S
C488 C489 1.288 . S
C489 C488 1.288 . S
C489 C490 1.392 . S
C490 H460 0.951 . S
C490 C489 1.392 . S
C490 C491 1.392 . S
C491 H461 0.949 . S
C491 C486 1.382 . S
C491 C490 1.392 . S
H492 C511 0.949 . S
H493 C512 0.950 . S
H494 C514 0.950 . S
H495 C515 0.950 . S
H496 C517 0.950 . S
H497 C520 0.950 . S
H498 C521 0.950 . S
H499 C523 0.951 . S
H500 C524 0.949 . S
H501 C526 0.949 . S
H502 C527 0.950 . S
H503 C529 0.950 . S
H504 C530 0.950 . S
H505 C532 0.950 . S
H506 C535 0.950 . S
H507 C536 0.950 . S
H508 C538 0.951 . S
H509 C539 0.949 . S
C510 C511 1.376 . S
C510 C515 1.386 . S
C510 C516 1.483 . S
C511 H492 0.949 . S
C511 C510 1.376 . S
C511 C512 1.397 . S
C512 H493 0.950 . S
C512 C511 1.397 . S
C512 C513 1.391 . S
C513 C512 1.391 . S
C513 C514 1.405 . S
C514 H494 0.950 . S
C514 C513 1.405 . S
C514 C515 1.367 . S
C515 H495 0.950 . S
C515 C510 1.386 . S
C515 C514 1.367 . S
C516 C510 1.483 . S
C516 C517 1.382 . S
C516 C518 1.403 . S
C517 H496 0.950 . S
C517 C516 1.382 . S
C517 C533 1.411 . S
C518 C516 1.403 . S
C518 C519 1.489 . S
C518 C532 1.411 . S
C519 C518 1.489 . S
C519 C520 1.383 . S
C519 C524 1.382 . S
C520 H497 0.950 . S
C520 C519 1.383 . S
C520 C521 1.395 . S
C521 H498 0.950 . S
C521 C520 1.395 . S
C521 C522 1.288 . S
C522 C521 1.288 . S
C522 C523 1.392 . S
C523 H499 0.951 . S
C523 C522 1.392 . S
C523 C524 1.392 . S
C524 H500 0.949 . S
C524 C519 1.382 . S
C524 C523 1.392 . S
C525 C526 1.376 . S
C525 C530 1.386 . S
C525 C531 1.483 . S
C526 H501 0.949 . S
C526 C525 1.376 . S
C526 C527 1.397 . S
C527 H502 0.950 . S
C527 C526 1.397 . S
C527 C528 1.391 . S
C528 C527 1.391 . S
C528 C529 1.405 . S
C529 H503 0.950 . S
C529 C528 1.405 . S
C529 C530 1.367 . S
C530 H504 0.950 . S
C530 C525 1.386 . S
C530 C529 1.367 . S
C531 C525 1.483 . S
C531 C532 1.382 . S
C531 C533 1.403 . S
C532 H505 0.950 . S
C532 C518 1.411 . S
C532 C531 1.382 . S
C533 C517 1.411 . S
C533 C531 1.403 . S
C533 C534 1.489 . S
C534 C533 1.489 . S
C534 C535 1.383 . S
C534 C539 1.382 . S
C535 H506 0.950 . S
C535 C534 1.383 . S
C535 C536 1.395 . S
C536 H507 0.950 . S
C536 C535 1.395 . S
C536 C537 1.288 . S
C537 C536 1.288 . S
C537 C538 1.392 . S
C538 H508 0.951 . S
C538 C537 1.392 . S
C538 C539 1.392 . S
C539 H509 0.949 . S
C539 C534 1.382 . S
C539 C538 1.392 . S
H540 C559 0.949 . S
H541 C560 0.950 . S
H542 C562 0.950 . S
H543 C563 0.950 . S
H544 C565 0.950 . S
H545 C568 0.950 . S
H546 C569 0.950 . S
H547 C571 0.951 . S
H548 C572 0.949 . S
H549 C574 0.949 . S
H550 C575 0.950 . S
H551 C577 0.950 . S
H552 C578 0.950 . S
H553 C580 0.950 . S
H554 C583 0.950 . S
H555 C584 0.950 . S
H556 C586 0.951 . S
H557 C587 0.949 . S
C558 C559 1.376 . S
C558 C563 1.386 . S
C558 C564 1.483 . S
C559 H540 0.949 . S
C559 C558 1.376 . S
C559 C560 1.397 . S
C560 H541 0.950 . S
C560 C559 1.397 . S
C560 C561 1.391 . S
C561 C560 1.391 . S
C561 C562 1.405 . S
C562 H542 0.950 . S
C562 C561 1.405 . S
C562 C563 1.367 . S
C563 H543 0.950 . S
C563 C558 1.386 . S
C563 C562 1.367 . S
C564 C558 1.483 . S
C564 C565 1.382 . S
C564 C566 1.403 . S
C565 H544 0.950 . S
C565 C564 1.382 . S
C565 C581 1.411 . S
C566 C564 1.403 . S
C566 C567 1.489 . S
C566 C580 1.411 . S
C567 C566 1.489 . S
C567 C568 1.383 . S
C567 C572 1.382 . S
C568 H545 0.950 . S
C568 C567 1.383 . S
C568 C569 1.395 . S
C569 H546 0.950 . S
C569 C568 1.395 . S
C569 C570 1.288 . S
C570 C569 1.288 . S
C570 C571 1.392 . S
C571 H547 0.951 . S
C571 C570 1.392 . S
C571 C572 1.392 . S
C572 H548 0.949 . S
C572 C567 1.382 . S
C572 C571 1.392 . S
C573 C574 1.376 . S
C573 C578 1.386 . S
C573 C579 1.483 . S
C574 H549 0.949 . S
C574 C573 1.376 . S
C574 C575 1.397 . S
C575 H550 0.950 . S
C575 C574 1.397 . S
C575 C576 1.391 . S
C576 C575 1.391 . S
C576 C577 1.405 . S
C577 H551 0.950 . S
C577 C576 1.405 . S
C577 C578 1.367 . S
C578 H552 0.950 . S
C578 C573 1.386 . S
C578 C577 1.367 . S
C579 C573 1.483 . S
C579 C580 1.382 . S
C579 C581 1.403 . S
C580 H553 0.950 . S
C580 C566 1.411 . S
C580 C579 1.382 . S
C581 C565 1.411 . S
C581 C579 1.403 . S
C581 C582 1.489 . S
C582 C581 1.489 . S
C582 C583 1.383 . S
C582 C587 1.382 . S
C583 H554 0.950 . S
C583 C582 1.383 . S
C583 C584 1.395 . S
C584 H555 0.950 . S
C584 C583 1.395 . S
C584 C585 1.288 . S
C585 C584 1.288 . S
C585 C586 1.392 . S
C586 H556 0.951 . S
C586 C585 1.392 . S
C586 C587 1.392 . S
C587 H557 0.949 . S
C587 C582 1.382 . S
C587 C586 1.392 . S
H588 C607 0.949 . S
H589 C608 0.950 . S
H590 C610 0.950 . S
H591 C611 0.950 . S
H592 C613 0.950 . S
H593 C616 0.950 . S
H594 C617 0.950 . S
H595 C619 0.951 . S
H596 C620 0.949 . S
H597 C622 0.949 . S
H598 C623 0.950 . S
H599 C625 0.950 . S
H600 C626 0.950 . S
H601 C628 0.950 . S
H602 C631 0.950 . S
H603 C632 0.950 . S
H604 C634 0.951 . S
H605 C635 0.949 . S
C606 C607 1.376 . S
C606 C611 1.386 . S
C606 C612 1.483 . S
C607 H588 0.949 . S
C607 C606 1.376 . S
C607 C608 1.397 . S
C608 H589 0.950 . S
C608 C607 1.397 . S
C608 C609 1.391 . S
C609 C608 1.391 . S
C609 C610 1.405 . S
C610 H590 0.950 . S
C610 C609 1.405 . S
C610 C611 1.367 . S
C611 H591 0.950 . S
C611 C606 1.386 . S
C611 C610 1.367 . S
C612 C606 1.483 . S
C612 C613 1.382 . S
C612 C614 1.403 . S
C613 H592 0.950 . S
C613 C612 1.382 . S
C613 C629 1.411 . S
C614 C612 1.403 . S
C614 C615 1.489 . S
C614 C628 1.411 . S
C615 C614 1.489 . S
C615 C616 1.383 . S
C615 C620 1.382 . S
C616 H593 0.950 . S
C616 C615 1.383 . S
C616 C617 1.395 . S
C617 H594 0.950 . S
C617 C616 1.395 . S
C617 C618 1.288 . S
C618 C617 1.288 . S
C618 C619 1.392 . S
C619 H595 0.951 . S
C619 C618 1.392 . S
C619 C620 1.392 . S
C620 H596 0.949 . S
C620 C615 1.382 . S
C620 C619 1.392 . S
C621 C622 1.376 . S
C621 C626 1.386 . S
C621 C627 1.483 . S
C622 H597 0.949 . S
C622 C621 1.376 . S
C622 C623 1.397 . S
C623 H598 0.950 . S
C623 C622 1.397 . S
C623 C624 1.391 . S
C624 C623 1.391 . S
C624 C625 1.405 . S
C625 H599 0.950 . S
C625 C624 1.405 . S
C625 C626 1.367 . S
C626 H600 0.950 . S
C626 C621 1.386 . S
C626 C625 1.367 . S
C627 C621 1.483 . S
C627 C628 1.382 . S
C627 C629 1.403 . S
C628 H601 0.950 . S
C628 C614 1.411 . S
C628 C627 1.382 . S
C629 C613 1.411 . S
C629 C627 1.403 . S
C629 C630 1.489 . S
C630 C629 1.489 . S
C630 C631 1.383 . S
C630 C635 1.382 . S
C631 H602 0.950 . S
C631 C630 1.383 . S
C631 C632 1.395 . S
C632 H603 0.950 . S
C632 C631 1.395 . S
C632 C633 1.288 . S
C633 C632 1.288 . S
C633 C634 1.392 . S
C634 H604 0.951 . S
C634 C633 1.392 . S
C634 C635 1.392 . S
C635 H605 0.949 . S
C635 C630 1.382 . S
C635 C634 1.392 . S
H636 C655 0.949 . S
H637 C656 0.950 . S
H638 C658 0.950 . S
H639 C659 0.950 . S
H640 C661 0.950 . S
H641 C664 0.950 . S
H642 C665 0.950 . S
H643 C667 0.951 . S
H644 C668 0.949 . S
H645 C670 0.949 . S
H646 C671 0.950 . S
H647 C673 0.950 . S
H648 C674 0.950 . S
H649 C676 0.950 . S
H650 C679 0.950 . S
H651 C680 0.950 . S
H652 C682 0.951 . S
H653 C683 0.949 . S
C654 C655 1.376 . S
C654 C659 1.386 . S
C654 C660 1.483 . S
C655 H636 0.949 . S
C655 C654 1.376 . S
C655 C656 1.397 . S
C656 H637 0.950 . S
C656 C655 1.397 . S
C656 C657 1.391 . S
C657 C656 1.391 . S
C657 C658 1.405 . S
C658 H638 0.950 . S
C658 C657 1.405 . S
C658 C659 1.367 . S
C659 H639 0.950 . S
C659 C654 1.386 . S
C659 C658 1.367 . S
C660 C654 1.483 . S
C660 C661 1.382 . S
C660 C662 1.403 . S
C661 H640 0.950 . S
C661 C660 1.382 . S
C661 C677 1.411 . S
C662 C660 1.403 . S
C662 C663 1.489 . S
C662 C676 1.411 . S
C663 C662 1.489 . S
C663 C664 1.383 . S
C663 C668 1.382 . S
C664 H641 0.950 . S
C664 C663 1.383 . S
C664 C665 1.395 . S
C665 H642 0.950 . S
C665 C664 1.395 . S
C665 C666 1.288 . S
C666 C665 1.288 . S
C666 C667 1.392 . S
C667 H643 0.951 . S
C667 C666 1.392 . S
C667 C668 1.392 . S
C668 H644 0.949 . S
C668 C663 1.382 . S
C668 C667 1.392 . S
C669 C670 1.376 . S
C669 C674 1.386 . S
C669 C675 1.483 . S
C670 H645 0.949 . S
C670 C669 1.376 . S
C670 C671 1.397 . S
C671 H646 0.950 . S
C671 C670 1.397 . S
C671 C672 1.391 . S
C672 C671 1.391 . S
C672 C673 1.405 . S
C673 H647 0.950 . S
C673 C672 1.405 . S
C673 C674 1.367 . S
C674 H648 0.950 . S
C674 C669 1.386 . S
C674 C673 1.367 . S
C675 C669 1.483 . S
C675 C676 1.382 . S
C675 C677 1.403 . S
C676 H649 0.950 . S
C676 C662 1.411 . S
C676 C675 1.382 . S
C677 C661 1.411 . S
C677 C675 1.403 . S
C677 C678 1.489 . S
C678 C677 1.489 . S
C678 C679 1.383 . S
C678 C683 1.382 . S
C679 H650 0.950 . S
C679 C678 1.383 . S
C679 C680 1.395 . S
C680 H651 0.950 . S
C680 C679 1.395 . S
C680 C681 1.288 . S
C681 C680 1.288 . S
C681 C682 1.392 . S
C682 H652 0.951 . S
C682 C681 1.392 . S
C682 C683 1.392 . S
C683 H653 0.949 . S
C683 C678 1.382 . S
C683 C682 1.392 . S
H684 C703 0.949 . S
H685 C704 0.950 . S
H686 C706 0.950 . S
H687 C707 0.950 . S
H688 C709 0.950 . S
H689 C712 0.950 . S
H690 C713 0.950 . S
H691 C715 0.951 . S
H692 C716 0.949 . S
H693 C718 0.949 . S
H694 C719 0.950 . S
H695 C721 0.950 . S
H696 C722 0.950 . S
H697 C724 0.950 . S
H698 C727 0.950 . S
H699 C728 0.950 . S
H700 C730 0.951 . S
H701 C731 0.949 . S
C702 C703 1.376 . S
C702 C707 1.386 1_655 S
C702 C708 1.483 . S
C703 H684 0.949 . S
C703 C702 1.376 . S
C703 C704 1.397 . S
C704 H685 0.950 . S
C704 C703 1.397 . S
C704 C705 1.391 . S
C705 C704 1.391 . S
C705 C706 1.405 1_655 S
C706 H686 0.950 . S
C706 C705 1.405 1_455 S
C706 C707 1.367 . S
C707 H687 0.950 . S
C707 C702 1.386 1_455 S
C707 C706 1.367 . S
C708 C702 1.483 . S
C708 C709 1.382 . S
C708 C710 1.403 1_655 S
C709 H688 0.950 . S
C709 C708 1.382 . S
C709 C725 1.411 . S
C710 C708 1.403 1_455 S
C710 C711 1.489 . S
C710 C724 1.411 . S
C711 C710 1.489 . S
C711 C712 1.383 1_455 S
C711 C716 1.382 . S
C712 H689 0.950 . S
C712 C711 1.383 1_655 S
C712 C713 1.395 . S
C713 H690 0.950 . S
C713 C712 1.395 . S
C713 C714 1.288 1_655 S
C714 C713 1.288 1_455 S
C714 C715 1.392 . S
C715 H691 0.951 . S
C715 C714 1.392 . S
C715 C716 1.392 . S
C716 H692 0.949 . S
C716 C711 1.382 . S
C716 C715 1.392 . S
C717 C718 1.376 . S
C717 C722 1.386 1_455 S
C717 C723 1.483 . S
C718 H693 0.949 . S
C718 C717 1.376 . S
C718 C719 1.397 . S
C719 H694 0.950 . S
C719 C718 1.397 . S
C719 C720 1.391 . S
C720 C719 1.391 . S
C720 C721 1.405 1_455 S
C721 H695 0.950 . S
C721 C720 1.405 1_655 S
C721 C722 1.367 . S
C722 H696 0.950 . S
C722 C717 1.386 1_655 S
C722 C721 1.367 . S
C723 C717 1.483 . S
C723 C724 1.382 . S
C723 C725 1.403 1_455 S
C724 H697 0.950 . S
C724 C710 1.411 . S
C724 C723 1.382 . S
C725 C709 1.411 . S
C725 C723 1.403 1_655 S
C725 C726 1.489 . S
C726 C725 1.489 . S
C726 C727 1.383 1_655 S
C726 C731 1.382 . S
C727 H698 0.950 . S
C727 C726 1.383 1_455 S
C727 C728 1.395 . S
C728 H699 0.950 . S
C728 C727 1.395 . S
C728 C729 1.288 1_455 S
C729 C728 1.288 1_655 S
C729 C730 1.392 . S
C730 H700 0.951 . S
C730 C729 1.392 . S
C730 C731 1.392 . S
C731 H701 0.949 . S
C731 C726 1.382 . S
C731 C730 1.392 . S
H732 C751 0.949 . S
H733 C752 0.950 . S
H734 C754 0.950 . S
H735 C755 0.950 . S
H736 C757 0.950 . S
H737 C760 0.950 . S
H738 C761 0.950 . S
H739 C763 0.951 . S
H740 C764 0.949 . S
H741 C766 0.949 . S
H742 C767 0.950 . S
H743 C769 0.950 . S
H744 C770 0.950 . S
H745 C772 0.950 . S
H746 C775 0.950 . S
H747 C776 0.950 . S
H748 C778 0.951 . S
H749 C779 0.949 . S
C750 C751 1.376 . S
C750 C755 1.386 . S
C750 C756 1.483 . S
C751 H732 0.949 . S
C751 C750 1.376 . S
C751 C752 1.397 . S
C752 H733 0.950 . S
C752 C751 1.397 . S
C752 C753 1.391 . S
C753 C752 1.391 . S
C753 C754 1.405 . S
C754 H734 0.950 . S
C754 C753 1.405 . S
C754 C755 1.367 . S
C755 H735 0.950 . S
C755 C750 1.386 . S
C755 C754 1.367 . S
C756 C750 1.483 . S
C756 C757 1.382 . S
C756 C758 1.403 . S
C757 H736 0.950 . S
C757 C756 1.382 . S
C757 C773 1.411 . S
C758 C756 1.403 . S
C758 C759 1.489 . S
C758 C772 1.411 . S
C759 C758 1.489 . S
C759 C760 1.383 . S
C759 C764 1.382 . S
C760 H737 0.950 . S
C760 C759 1.383 . S
C760 C761 1.395 . S
C761 H738 0.950 . S
C761 C760 1.395 . S
C761 C762 1.288 . S
C762 C761 1.288 . S
C762 C763 1.392 . S
C763 H739 0.951 . S
C763 C762 1.392 . S
C763 C764 1.392 . S
C764 H740 0.949 . S
C764 C759 1.382 . S
C764 C763 1.392 . S
C765 C766 1.376 . S
C765 C770 1.386 . S
C765 C771 1.483 . S
C766 H741 0.949 . S
C766 C765 1.376 . S
C766 C767 1.397 . S
C767 H742 0.950 . S
C767 C766 1.397 . S
C767 C768 1.391 . S
C768 C767 1.391 . S
C768 C769 1.405 . S
C769 H743 0.950 . S
C769 C768 1.405 . S
C769 C770 1.367 . S
C770 H744 0.950 . S
C770 C765 1.386 . S
C770 C769 1.367 . S
C771 C765 1.483 . S
C771 C772 1.382 . S
C771 C773 1.403 . S
C772 H745 0.950 . S
C772 C758 1.411 . S
C772 C771 1.382 . S
C773 C757 1.411 . S
C773 C771 1.403 . S
C773 C774 1.489 . S
C774 C773 1.489 . S
C774 C775 1.383 . S
C774 C779 1.382 . S
C775 H746 0.950 . S
C775 C774 1.383 . S
C775 C776 1.395 . S
C776 H747 0.950 . S
C776 C775 1.395 . S
C776 C777 1.288 . S
C777 C776 1.288 . S
C777 C778 1.392 . S
C778 H748 0.951 . S
C778 C777 1.392 . S
C778 C779 1.392 . S
C779 H749 0.949 . S
C779 C774 1.382 . S
C779 C778 1.392 . S
H780 C799 0.949 . S
H781 C800 0.950 . S
H782 C802 0.950 . S
H783 C803 0.950 . S
H784 C805 0.950 . S
H785 C808 0.950 . S
H786 C809 0.950 . S
H787 C811 0.951 . S
H788 C812 0.949 . S
H789 C814 0.949 . S
H790 C815 0.950 . S
H791 C817 0.950 . S
H792 C818 0.950 . S
H793 C820 0.950 . S
H794 C823 0.950 . S
H795 C824 0.950 . S
H796 C826 0.951 . S
H797 C827 0.949 . S
C798 C799 1.376 . S
C798 C803 1.386 1_545 S
C798 C804 1.483 . S
C799 H780 0.949 . S
C799 C798 1.376 . S
C799 C800 1.397 . S
C800 H781 0.950 . S
C800 C799 1.397 . S
C800 C801 1.391 . S
C801 C800 1.391 . S
C801 C802 1.405 1_545 S
C802 H782 0.950 . S
C802 C801 1.405 1_565 S
C802 C803 1.367 . S
C803 H783 0.950 . S
C803 C798 1.386 1_565 S
C803 C802 1.367 . S
C804 C798 1.483 . S
C804 C805 1.382 . S
C804 C806 1.403 1_545 S
C805 H784 0.950 . S
C805 C804 1.382 . S
C805 C821 1.411 . S
C806 C804 1.403 1_565 S
C806 C807 1.489 . S
C806 C820 1.411 . S
C807 C806 1.489 . S
C807 C808 1.383 1_565 S
C807 C812 1.382 . S
C808 H785 0.950 . S
C808 C807 1.383 1_545 S
C808 C809 1.395 . S
C809 H786 0.950 . S
C809 C808 1.395 . S
C809 C810 1.288 1_545 S
C810 C809 1.288 1_565 S
C810 C811 1.392 . S
C811 H787 0.951 . S
C811 C810 1.392 . S
C811 C812 1.392 . S
C812 H788 0.949 . S
C812 C807 1.382 . S
C812 C811 1.392 . S
C813 C814 1.376 . S
C813 C818 1.386 1_565 S
C813 C819 1.483 . S
C814 H789 0.949 . S
C814 C813 1.376 . S
C814 C815 1.397 . S
C815 H790 0.950 . S
C815 C814 1.397 . S
C815 C816 1.391 . S
C816 C815 1.391 . S
C816 C817 1.405 1_565 S
C817 H791 0.950 . S
C817 C816 1.405 1_545 S
C817 C818 1.367 . S
C818 H792 0.950 . S
C818 C813 1.386 1_545 S
C818 C817 1.367 . S
C819 C813 1.483 . S
C819 C820 1.382 . S
C819 C821 1.403 1_565 S
C820 H793 0.950 . S
C820 C806 1.411 . S
C820 C819 1.382 . S
C821 C805 1.411 . S
C821 C819 1.403 1_545 S
C821 C822 1.489 . S
C822 C821 1.489 . S
C822 C823 1.383 1_545 S
C822 C827 1.382 . S
C823 H794 0.950 . S
C823 C822 1.383 1_565 S
C823 C824 1.395 . S
C824 H795 0.950 . S
C824 C823 1.395 . S
C824 C825 1.288 1_565 S
C825 C824 1.288 1_545 S
C825 C826 1.392 . S
C826 H796 0.951 . S
C826 C825 1.392 . S
C826 C827 1.392 . S
C827 H797 0.949 . S
C827 C822 1.382 . S
C827 C826 1.392 . S
H828 C847 0.949 . S
H829 C848 0.950 . S
H830 C850 0.950 . S
H831 C851 0.950 . S
H832 C853 0.950 . S
H833 C856 0.950 . S
H834 C857 0.950 . S
H835 C859 0.951 . S
H836 C860 0.949 . S
H837 C862 0.949 . S
H838 C863 0.950 . S
H839 C865 0.950 . S
H840 C866 0.950 . S
H841 C868 0.950 . S
H842 C871 0.950 . S
H843 C872 0.950 . S
H844 C874 0.951 . S
H845 C875 0.949 . S
C846 C847 1.396 . S
C846 C851 1.377 1_545 S
C846 C852 1.472 . S
C847 H828 0.949 . S
C847 C846 1.396 . S
C847 C848 1.397 . S
C848 H829 0.950 . S
C848 C847 1.397 . S
C848 C849 1.391 1_545 S
C849 C848 1.391 1_565 S
C849 C850 1.405 . S
C850 H830 0.950 . S
C850 C849 1.405 . S
C850 C851 1.367 . S
C851 H831 0.950 . S
C851 C846 1.377 1_565 S
C851 C850 1.367 . S
C852 C846 1.472 . S
C852 C853 1.382 . S
C852 C854 1.401 1_545 S
C853 H832 0.950 . S
C853 C852 1.382 . S
C853 C869 1.443 . S
C854 C852 1.401 1_565 S
C854 C855 1.481 . S
C854 C868 1.436 . S
C855 C854 1.481 . S
C855 C856 1.352 1_565 S
C855 C860 1.398 . S
C856 H833 0.950 . S
C856 C855 1.352 1_545 S
C856 C857 1.395 . S
C857 H834 0.950 . S
C857 C856 1.395 . S
C857 C858 1.288 . S
C858 C857 1.288 . S
C858 C859 1.392 1_545 S
C859 H835 0.951 . S
C859 C858 1.392 1_565 S
C859 C860 1.392 . S
C860 H836 0.949 . S
C860 C855 1.398 . S
C860 C859 1.392 . S
C861 C862 1.386 . S
C861 C866 1.381 1_565 S
C861 C867 1.501 . S
C862 H837 0.949 . S
C862 C861 1.386 . S
C862 C863 1.397 . S
C863 H838 0.950 . S
C863 C862 1.397 . S
C863 C864 1.391 1_565 S
C864 C863 1.391 1_545 S
C864 C865 1.405 . S
C865 H839 0.950 . S
C865 C864 1.405 . S
C865 C866 1.367 . S
C866 H840 0.950 . S
C866 C861 1.381 1_545 S
C866 C865 1.367 . S
C867 C861 1.501 . S
C867 C868 1.358 . S
C867 C869 1.401 1_565 S
C868 H841 0.950 . S
C868 C854 1.436 . S
C868 C867 1.358 . S
C869 C853 1.443 . S
C869 C867 1.401 1_545 S
C869 C870 1.481 . S
C870 C869 1.481 . S
C870 C871 1.339 1_545 S
C870 C875 1.405 . S
C871 H842 0.950 . S
C871 C870 1.339 1_565 S
C871 C872 1.395 . S
C872 H843 0.950 . S
C872 C871 1.395 . S
C872 C873 1.288 . S
C873 C872 1.288 . S
C873 C874 1.392 1_565 S
C874 H844 0.951 . S
C874 C873 1.392 1_545 S
C874 C875 1.392 . S
C875 H845 0.949 . S
C875 C870 1.405 . S
C875 C874 1.392 . S
H876 C895 0.949 . S
H877 C896 0.950 . S
H878 C898 0.950 . S
H879 C899 0.950 . S
H880 C901 0.950 . S
H881 C904 0.950 . S
H882 C905 0.950 . S
H883 C907 0.951 . S
H884 C908 0.949 . S
H885 C910 0.949 . S
H886 C911 0.950 . S
H887 C913 0.950 . S
H888 C914 0.950 . S
H889 C916 0.950 . S
H890 C919 0.950 . S
H891 C920 0.950 . S
H892 C922 0.951 . S
H893 C923 0.949 . S
C894 C895 1.376 . S
C894 C899 1.386 1_455 S
C894 C900 1.483 . S
C895 H876 0.949 . S
C895 C894 1.376 . S
C895 C896 1.397 . S
C896 H877 0.950 . S
C896 C895 1.397 . S
C896 C897 1.391 . S
C897 C896 1.391 . S
C897 C898 1.405 1_455 S
C898 H878 0.950 . S
C898 C897 1.405 1_655 S
C898 C899 1.367 . S
C899 H879 0.950 . S
C899 C894 1.386 1_655 S
C899 C898 1.367 . S
C900 C894 1.483 . S
C900 C901 1.382 . S
C900 C902 1.403 1_455 S
C901 H880 0.950 . S
C901 C900 1.382 . S
C901 C917 1.411 . S
C902 C900 1.403 1_655 S
C902 C903 1.489 . S
C902 C916 1.411 . S
C903 C902 1.489 . S
C903 C904 1.383 1_655 S
C903 C908 1.382 . S
C904 H881 0.950 . S
C904 C903 1.383 1_455 S
C904 C905 1.395 . S
C905 H882 0.950 . S
C905 C904 1.395 . S
C905 C906 1.288 1_455 S
C906 C905 1.288 1_655 S
C906 C907 1.392 . S
C907 H883 0.951 . S
C907 C906 1.392 . S
C907 C908 1.392 . S
C908 H884 0.949 . S
C908 C903 1.382 . S
C908 C907 1.392 . S
C909 C910 1.376 . S
C909 C914 1.386 1_655 S
C909 C915 1.483 . S
C910 H885 0.949 . S
C910 C909 1.376 . S
C910 C911 1.397 . S
C911 H886 0.950 . S
C911 C910 1.397 . S
C911 C912 1.391 . S
C912 C911 1.391 . S
C912 C913 1.405 1_655 S
C913 H887 0.950 . S
C913 C912 1.405 1_455 S
C913 C914 1.367 . S
C914 H888 0.950 . S
C914 C909 1.386 1_455 S
C914 C913 1.367 . S
C915 C909 1.483 . S
C915 C916 1.382 . S
C915 C917 1.403 1_655 S
C916 H889 0.950 . S
C916 C902 1.411 . S
C916 C915 1.382 . S
C917 C901 1.411 . S
C917 C915 1.403 1_455 S
C917 C918 1.489 . S
C918 C917 1.489 . S
C918 C919 1.383 1_455 S
C918 C923 1.382 . S
C919 H890 0.950 . S
C919 C918 1.383 1_655 S
C919 C920 1.395 . S
C920 H891 0.950 . S
C920 C919 1.395 . S
C920 C921 1.288 1_655 S
C921 C920 1.288 1_455 S
C921 C922 1.392 . S
C922 H892 0.951 . S
C922 C921 1.392 . S
C922 C923 1.392 . S
C923 H893 0.949 . S
C923 C918 1.382 . S
C923 C922 1.392 . S
H924 C943 0.949 . S
H925 C944 0.950 . S
H926 C946 0.950 . S
H927 C947 0.950 . S
H928 C949 0.950 . S
H929 C952 0.950 . S
H930 C953 0.950 . S
H931 C955 0.951 . S
H932 C956 0.949 . S
H933 C958 0.949 . S
H934 C959 0.950 . S
H935 C961 0.950 . S
H936 C962 0.950 . S
H937 C964 0.950 . S
H938 C967 0.950 . S
H939 C968 0.950 . S
H940 C970 0.951 . S
H941 C971 0.949 . S
C942 C943 1.376 . S
C942 C947 1.386 . S
C942 C948 1.483 . S
C943 H924 0.949 . S
C943 C942 1.376 . S
C943 C944 1.397 . S
C944 H925 0.950 . S
C944 C943 1.397 . S
C944 C945 1.391 . S
C945 C944 1.391 . S
C945 C946 1.405 . S
C946 H926 0.950 . S
C946 C945 1.405 . S
C946 C947 1.367 . S
C947 H927 0.950 . S
C947 C942 1.386 . S
C947 C946 1.367 . S
C948 C942 1.483 . S
C948 C949 1.382 . S
C948 C950 1.403 . S
C949 H928 0.950 . S
C949 C948 1.382 . S
C949 C965 1.411 . S
C950 C948 1.403 . S
C950 C951 1.489 . S
C950 C964 1.411 . S
C951 C950 1.489 . S
C951 C952 1.383 . S
C951 C956 1.382 . S
C952 H929 0.950 . S
C952 C951 1.383 . S
C952 C953 1.395 . S
C953 H930 0.950 . S
C953 C952 1.395 . S
C953 C954 1.288 . S
C954 C953 1.288 . S
C954 C955 1.392 . S
C955 H931 0.951 . S
C955 C954 1.392 . S
C955 C956 1.392 . S
C956 H932 0.949 . S
C956 C951 1.382 . S
C956 C955 1.392 . S
C957 C958 1.376 . S
C957 C962 1.386 . S
C957 C963 1.483 . S
C958 H933 0.949 . S
C958 C957 1.376 . S
C958 C959 1.397 . S
C959 H934 0.950 . S
C959 C958 1.397 . S
C959 C960 1.391 . S
C960 C959 1.391 . S
C960 C961 1.405 . S
C961 H935 0.950 . S
C961 C960 1.405 . S
C961 C962 1.367 . S
C962 H936 0.950 . S
C962 C957 1.386 . S
C962 C961 1.367 . S
C963 C957 1.483 . S
C963 C964 1.382 . S
C963 C965 1.403 . S
C964 H937 0.950 . S
C964 C950 1.411 . S
C964 C963 1.382 . S
C965 C949 1.411 . S
C965 C963 1.403 . S
C965 C966 1.489 . S
C966 C965 1.489 . S
C966 C967 1.383 . S
C966 C971 1.382 . S
C967 H938 0.950 . S
C967 C966 1.383 . S
C967 C968 1.395 . S
C968 H939 0.950 . S
C968 C967 1.395 . S
C968 C969 1.288 . S
C969 C968 1.288 . S
C969 C970 1.392 . S
C970 H940 0.951 . S
C970 C969 1.392 . S
C970 C971 1.392 . S
C971 H941 0.949 . S
C971 C966 1.382 . S
C971 C970 1.392 . S
H972 C991 0.949 . S
H973 C992 0.950 . S
H974 C994 0.950 . S
H975 C995 0.950 . S
H976 C997 0.950 . S
H977 C1000 0.950 . S
H978 C1001 0.950 . S
H979 C1003 0.951 . S
H980 C1004 0.949 . S
H981 C1006 0.949 . S
H982 C1007 0.950 . S
H983 C1009 0.950 . S
H984 C1010 0.950 . S
H985 C1012 0.950 . S
H986 C1015 0.950 . S
H987 C1016 0.950 . S
H988 C1018 0.951 . S
H989 C1019 0.949 . S
C990 C991 1.376 . S
C990 C995 1.386 . S
C990 C996 1.483 . S
C991 H972 0.949 . S
C991 C990 1.376 . S
C991 C992 1.397 . S
C992 H973 0.950 . S
C992 C991 1.397 . S
C992 C993 1.391 . S
C993 C992 1.391 . S
C993 C994 1.405 . S
C994 H974 0.950 . S
C994 C993 1.405 . S
C994 C995 1.367 . S
C995 H975 0.950 . S
C995 C990 1.386 . S
C995 C994 1.367 . S
C996 C990 1.483 . S
C996 C997 1.382 . S
C996 C998 1.403 . S
C997 H976 0.950 . S
C997 C996 1.382 . S
C997 C1013 1.411 . S
C998 C996 1.403 . S
C998 C999 1.489 . S
C998 C1012 1.411 . S
C999 C998 1.489 . S
C999 C1000 1.383 . S
C999 C1004 1.382 . S
C1000 H977 0.950 . S
C1000 C999 1.383 . S
C1000 C1001 1.395 . S
C1001 H978 0.950 . S
C1001 C1000 1.395 . S
C1001 C1002 1.288 . S
C1002 C1001 1.288 . S
C1002 C1003 1.392 . S
C1003 H979 0.951 . S
C1003 C1002 1.392 . S
C1003 C1004 1.392 . S
C1004 H980 0.949 . S
C1004 C999 1.382 . S
C1004 C1003 1.392 . S
C1005 C1006 1.376 . S
C1005 C1010 1.386 . S
C1005 C1011 1.483 . S
C1006 H981 0.949 . S
C1006 C1005 1.376 . S
C1006 C1007 1.397 . S
C1007 H982 0.950 . S
C1007 C1006 1.397 . S
C1007 C1008 1.391 . S
C1008 C1007 1.391 . S
C1008 C1009 1.405 . S
C1009 H983 0.950 . S
C1009 C1008 1.405 . S
C1009 C1010 1.367 . S
C1010 H984 0.950 . S
C1010 C1005 1.386 . S
C1010 C1009 1.367 . S
C1011 C1005 1.483 . S
C1011 C1012 1.382 . S
C1011 C1013 1.403 . S
C1012 H985 0.950 . S
C1012 C998 1.411 . S
C1012 C1011 1.382 . S
C1013 C997 1.411 . S
C1013 C1011 1.403 . S
C1013 C1014 1.489 . S
C1014 C1013 1.489 . S
C1014 C1015 1.383 . S
C1014 C1019 1.382 . S
C1015 H986 0.950 . S
C1015 C1014 1.383 . S
C1015 C1016 1.395 . S
C1016 H987 0.950 . S
C1016 C1015 1.395 . S
C1016 C1017 1.288 . S
C1017 C1016 1.288 . S
C1017 C1018 1.392 . S
C1018 H988 0.951 . S
C1018 C1017 1.392 . S
C1018 C1019 1.392 . S
C1019 H989 0.949 . S
C1019 C1014 1.382 . S
C1019 C1018 1.392 . S
H1020 C1039 0.949 . S
H1021 C1040 0.950 . S
H1022 C1042 0.950 . S
H1023 C1043 0.950 . S
H1024 C1045 0.950 . S
H1025 C1048 0.950 . S
H1026 C1049 0.950 . S
H1027 C1051 0.951 . S
H1028 C1052 0.949 . S
H1029 C1054 0.949 . S
H1030 C1055 0.950 . S
H1031 C1057 0.950 . S
H1032 C1058 0.950 . S
H1033 C1060 0.950 . S
H1034 C1063 0.950 . S
H1035 C1064 0.950 . S
H1036 C1066 0.951 . S
H1037 C1067 0.949 . S
C1038 C1039 1.376 . S
C1038 C1043 1.386 . S
C1038 C1044 1.483 . S
C1039 H1020 0.949 . S
C1039 C1038 1.376 . S
C1039 C1040 1.397 . S
C1040 H1021 0.950 . S
C1040 C1039 1.397 . S
C1040 C1041 1.391 . S
C1041 C1040 1.391 . S
C1041 C1042 1.405 . S
C1042 H1022 0.950 . S
C1042 C1041 1.405 . S
C1042 C1043 1.367 . S
C1043 H1023 0.950 . S
C1043 C1038 1.386 . S
C1043 C1042 1.367 . S
C1044 C1038 1.483 . S
C1044 C1045 1.382 . S
C1044 C1046 1.403 . S
C1045 H1024 0.950 . S
C1045 C1044 1.382 . S
C1045 C1061 1.411 . S
C1046 C1044 1.403 . S
C1046 C1047 1.489 . S
C1046 C1060 1.411 . S
C1047 C1046 1.489 . S
C1047 C1048 1.383 . S
C1047 C1052 1.382 . S
C1048 H1025 0.950 . S
C1048 C1047 1.383 . S
C1048 C1049 1.395 . S
C1049 H1026 0.950 . S
C1049 C1048 1.395 . S
C1049 C1050 1.288 . S
C1050 C1049 1.288 . S
C1050 C1051 1.392 . S
C1051 H1027 0.951 . S
C1051 C1050 1.392 . S
C1051 C1052 1.392 . S
C1052 H1028 0.949 . S
C1052 C1047 1.382 . S
C1052 C1051 1.392 . S
C1053 C1054 1.376 . S
C1053 C1058 1.386 . S
C1053 C1059 1.483 . S
C1054 H1029 0.949 . S
C1054 C1053 1.376 . S
C1054 C1055 1.397 . S
C1055 H1030 0.950 . S
C1055 C1054 1.397 . S
C1055 C1056 1.391 . S
C1056 C1055 1.391 . S
C1056 C1057 1.405 . S
C1057 H1031 0.950 . S
C1057 C1056 1.405 . S
C1057 C1058 1.367 . S
C1058 H1032 0.950 . S
C1058 C1053 1.386 . S
C1058 C1057 1.367 . S
C1059 C1053 1.483 . S
C1059 C1060 1.382 . S
C1059 C1061 1.403 . S
C1060 H1033 0.950 . S
C1060 C1046 1.411 . S
C1060 C1059 1.382 . S
C1061 C1045 1.411 . S
C1061 C1059 1.403 . S
C1061 C1062 1.489 . S
C1062 C1061 1.489 . S
C1062 C1063 1.383 . S
C1062 C1067 1.382 . S
C1063 H1034 0.950 . S
C1063 C1062 1.383 . S
C1063 C1064 1.395 . S
C1064 H1035 0.950 . S
C1064 C1063 1.395 . S
C1064 C1065 1.288 . S
C1065 C1064 1.288 . S
C1065 C1066 1.392 . S
C1066 H1036 0.951 . S
C1066 C1065 1.392 . S
C1066 C1067 1.392 . S
C1067 H1037 0.949 . S
C1067 C1062 1.382 . S
C1067 C1066 1.392 . S
H1068 C1087 0.949 . S
H1069 C1088 0.950 . S
H1070 C1090 0.950 . S
H1071 C1091 0.950 . S
H1072 C1093 0.950 . S
H1073 C1096 0.950 . S
H1074 C1097 0.950 . S
H1075 C1099 0.951 . S
H1076 C1100 0.949 . S
H1077 C1102 0.949 . S
H1078 C1103 0.950 . S
H1079 C1105 0.950 . S
H1080 C1106 0.950 . S
H1081 C1108 0.950 . S
H1082 C1111 0.950 . S
H1083 C1112 0.950 . S
H1084 C1114 0.951 . S
H1085 C1115 0.949 . S
C1086 C1087 1.376 . S
C1086 C1091 1.386 . S
C1086 C1092 1.483 . S
C1087 H1068 0.949 . S
C1087 C1086 1.376 . S
C1087 C1088 1.397 . S
C1088 H1069 0.950 . S
C1088 C1087 1.397 . S
C1088 C1089 1.391 . S
C1089 C1088 1.391 . S
C1089 C1090 1.405 . S
C1090 H1070 0.950 . S
C1090 C1089 1.405 . S
C1090 C1091 1.367 . S
C1091 H1071 0.950 . S
C1091 C1086 1.386 . S
C1091 C1090 1.367 . S
C1092 C1086 1.483 . S
C1092 C1093 1.382 . S
C1092 C1094 1.403 . S
C1093 H1072 0.950 . S
C1093 C1092 1.382 . S
C1093 C1109 1.411 . S
C1094 C1092 1.403 . S
C1094 C1095 1.489 . S
C1094 C1108 1.411 . S
C1095 C1094 1.489 . S
C1095 C1096 1.383 . S
C1095 C1100 1.382 . S
C1096 H1073 0.950 . S
C1096 C1095 1.383 . S
C1096 C1097 1.395 . S
C1097 H1074 0.950 . S
C1097 C1096 1.395 . S
C1097 C1098 1.288 . S
C1098 C1097 1.288 . S
C1098 C1099 1.392 . S
C1099 H1075 0.951 . S
C1099 C1098 1.392 . S
C1099 C1100 1.392 . S
C1100 H1076 0.949 . S
C1100 C1095 1.382 . S
C1100 C1099 1.392 . S
C1101 C1102 1.376 . S
C1101 C1106 1.386 . S
C1101 C1107 1.483 . S
C1102 H1077 0.949 . S
C1102 C1101 1.376 . S
C1102 C1103 1.397 . S
C1103 H1078 0.950 . S
C1103 C1102 1.397 . S
C1103 C1104 1.391 . S
C1104 C1103 1.391 . S
C1104 C1105 1.405 . S
C1105 H1079 0.950 . S
C1105 C1104 1.405 . S
C1105 C1106 1.367 . S
C1106 H1080 0.950 . S
C1106 C1101 1.386 . S
C1106 C1105 1.367 . S
C1107 C1101 1.483 . S
C1107 C1108 1.382 . S
C1107 C1109 1.403 . S
C1108 H1081 0.950 . S
C1108 C1094 1.411 . S
C1108 C1107 1.382 . S
C1109 C1093 1.411 . S
C1109 C1107 1.403 . S
C1109 C1110 1.489 . S
C1110 C1109 1.489 . S
C1110 C1111 1.383 . S
C1110 C1115 1.382 . S
C1111 H1082 0.950 . S
C1111 C1110 1.383 . S
C1111 C1112 1.395 . S
C1112 H1083 0.950 . S
C1112 C1111 1.395 . S
C1112 C1113 1.288 . S
C1113 C1112 1.288 . S
C1113 C1114 1.392 . S
C1114 H1084 0.951 . S
C1114 C1113 1.392 . S
C1114 C1115 1.392 . S
C1115 H1085 0.949 . S
C1115 C1110 1.382 . S
C1115 C1114 1.392 . S
C1116 C1117 1.369 1_455 S
C1116 C1118 1.419 . S
C1116 H1120 0.930 . S
C1117 C1116 1.369 1_655 S
C1117 C1126 1.429 . S
C1118 C1116 1.419 . S
C1118 C1119 1.363 1_455 S
C1118 H1121 0.929 . S
C1119 C1118 1.363 1_655 S
C1119 C1125 1.428 . S
H1120 C1116 0.930 . S
H1121 C1118 0.929 . S
S1122 N1123 1.613 . S
S1122 N1124 1.610 . S
N1123 S1122 1.613 . S
N1123 C1126 1.350 . S
N1124 S1122 1.610 . S
N1124 C1125 1.351 . S
C1125 C1119 1.428 . S
C1125 N1124 1.351 . S
C1125 C1126 1.434 . S
C1126 C1117 1.429 . S
C1126 N1123 1.350 . S
C1126 C1125 1.434 . S
C1127 C1128 1.369 . S
C1127 C1129 1.419 . S
C1127 H1131 0.930 . S
C1128 C1127 1.369 . S
C1128 C1137 1.429 . S
C1129 C1127 1.419 . S
C1129 C1130 1.363 . S
C1129 H1132 0.929 . S
C1130 C1129 1.363 . S
C1130 C1136 1.428 . S
H1131 C1127 0.930 . S
H1132 C1129 0.929 . S
S1133 N1134 1.613 . S
S1133 N1135 1.610 . S
N1134 S1133 1.613 . S
N1134 C1137 1.350 . S
N1135 S1133 1.610 . S
N1135 C1136 1.351 . S
C1136 C1130 1.428 . S
C1136 N1135 1.351 . S
C1136 C1137 1.434 . S
C1137 C1128 1.429 . S
C1137 N1134 1.350 . S
C1137 C1136 1.434 . S
C1138 C1139 1.369 1_565 S
C1138 C1140 1.419 . S
C1138 H1142 0.930 . S
C1139 C1138 1.369 1_545 S
C1139 C1148 1.429 . S
C1140 C1138 1.419 . S
C1140 C1141 1.363 1_565 S
C1140 H1143 0.929 . S
C1141 C1140 1.363 1_545 S
C1141 C1147 1.428 . S
H1142 C1138 0.930 . S
H1143 C1140 0.929 . S
S1144 N1145 1.613 . S
S1144 N1146 1.610 . S
N1145 S1144 1.613 . S
N1145 C1148 1.350 . S
N1146 S1144 1.610 . S
N1146 C1147 1.351 . S
C1147 C1141 1.428 . S
C1147 N1146 1.351 . S
C1147 C1148 1.434 . S
C1148 C1139 1.429 . S
C1148 N1145 1.350 . S
C1148 C1147 1.434 . S
C1149 C1150 1.369 . S
C1149 C1151 1.419 . S
C1149 H1153 0.930 . S
C1150 C1149 1.369 . S
C1150 C1159 1.429 1_565 S
C1151 C1149 1.419 . S
C1151 C1152 1.363 . S
C1151 H1154 0.929 . S
C1152 C1151 1.363 . S
C1152 C1158 1.428 1_565 S
H1153 C1149 0.930 . S
H1154 C1151 0.929 . S
S1155 N1156 1.613 . S
S1155 N1157 1.610 . S
N1156 S1155 1.613 . S
N1156 C1159 1.350 . S
N1157 S1155 1.610 . S
N1157 C1158 1.351 . S
C1158 C1152 1.428 1_545 S
C1158 N1157 1.351 . S
C1158 C1159 1.434 . S
C1159 C1150 1.429 1_545 S
C1159 N1156 1.350 . S
C1159 C1158 1.434 . S
C1160 C1161 1.369 . S
C1160 C1162 1.419 . S
C1160 H1164 0.930 . S
C1161 C1160 1.369 . S
C1161 C1170 1.429 . S
C1162 C1160 1.419 . S
C1162 C1163 1.363 . S
C1162 H1165 0.929 . S
C1163 C1162 1.363 . S
C1163 C1169 1.428 . S
H1164 C1160 0.930 . S
H1165 C1162 0.929 . S
S1166 N1167 1.620 . S
S1166 N1168 1.610 . S
N1167 S1166 1.620 . S
N1167 C1170 1.367 1_655 S
N1168 S1166 1.610 . S
N1168 C1169 1.351 1_655 S
C1169 C1163 1.428 . S
C1169 N1168 1.351 1_455 S
C1169 C1170 1.434 . S
C1170 C1161 1.429 . S
C1170 N1167 1.367 1_455 S
C1170 C1169 1.434 . S
C1171 C1172 1.369 . S
C1171 C1173 1.419 . S
C1171 H1175 0.930 . S
C1172 C1171 1.369 . S
C1172 C1181 1.429 . S
C1173 C1171 1.419 . S
C1173 C1174 1.363 . S
C1173 H1176 0.929 . S
C1174 C1173 1.363 . S
C1174 C1180 1.428 . S
H1175 C1171 0.930 . S
H1176 C1173 0.929 . S
S1177 N1178 1.613 . S
S1177 N1179 1.610 . S
N1178 S1177 1.613 . S
N1178 C1181 1.350 . S
N1179 S1177 1.610 . S
N1179 C1180 1.351 . S
C1180 C1174 1.428 . S
C1180 N1179 1.351 . S
C1180 C1181 1.434 . S
C1181 C1172 1.429 . S
C1181 N1178 1.350 . S
C1181 C1180 1.434 . S
C1182 C1183 1.369 1_655 S
C1182 C1184 1.419 . S
C1182 H1186 0.930 . S
C1183 C1182 1.369 1_455 S
C1183 C1192 1.429 . S
C1184 C1182 1.419 . S
C1184 C1185 1.363 1_655 S
C1184 H1187 0.929 . S
C1185 C1184 1.363 1_455 S
C1185 C1191 1.428 . S
H1186 C1182 0.930 . S
H1187 C1184 0.929 . S
S1188 N1189 1.613 . S
S1188 N1190 1.610 . S
N1189 S1188 1.613 . S
N1189 C1192 1.350 . S
N1190 S1188 1.610 . S
N1190 C1191 1.351 . S
C1191 C1185 1.428 . S
C1191 N1190 1.351 . S
C1191 C1192 1.434 . S
C1192 C1183 1.429 . S
C1192 N1189 1.350 . S
C1192 C1191 1.434 . S
C1193 C1194 1.369 . S
C1193 C1195 1.419 . S
C1193 H1197 0.930 . S
C1194 C1193 1.369 . S
C1194 C1203 1.429 . S
C1195 C1193 1.419 . S
C1195 C1196 1.363 . S
C1195 H1198 0.929 . S
C1196 C1195 1.363 . S
C1196 C1202 1.428 . S
H1197 C1193 0.930 . S
H1198 C1195 0.929 . S
S1199 N1200 1.613 . S
S1199 N1201 1.610 . S
N1200 S1199 1.613 . S
N1200 C1203 1.350 . S
N1201 S1199 1.610 . S
N1201 C1202 1.351 . S
C1202 C1196 1.428 . S
C1202 N1201 1.351 . S
C1202 C1203 1.434 . S
C1203 C1194 1.429 . S
C1203 N1200 1.350 . S
C1203 C1202 1.434 . S
C1204 C1205 1.369 1_545 S
C1204 C1206 1.419 . S
C1204 H1208 0.930 . S
C1205 C1204 1.369 1_565 S
C1205 C1214 1.429 . S
C1206 C1204 1.419 . S
C1206 C1207 1.363 1_545 S
C1206 H1209 0.929 . S
C1207 C1206 1.363 1_565 S
C1207 C1213 1.428 . S
H1208 C1204 0.930 . S
H1209 C1206 0.929 . S
S1210 N1211 1.613 . S
S1210 N1212 1.610 . S
N1211 S1210 1.613 . S
N1211 C1214 1.350 . S
N1212 S1210 1.610 . S
N1212 C1213 1.351 . S
C1213 C1207 1.428 . S
C1213 N1212 1.351 . S
C1213 C1214 1.434 . S
C1214 C1205 1.429 . S
C1214 N1211 1.350 . S
C1214 C1213 1.434 . S
C1215 C1216 1.369 1_565 S
C1215 C1217 1.419 . S
C1215 H1219 0.930 . S
C1216 C1215 1.369 1_545 S
C1216 C1225 1.429 . S
C1217 C1215 1.419 . S
C1217 C1218 1.363 1_565 S
C1217 H1220 0.929 . S
C1218 C1217 1.363 1_545 S
C1218 C1224 1.428 . S
H1219 C1215 0.930 . S
H1220 C1217 0.929 . S
S1221 N1222 1.613 . S
S1221 N1223 1.610 . S
N1222 S1221 1.613 . S
N1222 C1225 1.350 . S
N1223 S1221 1.610 . S
N1223 C1224 1.351 . S
C1224 C1218 1.428 . S
C1224 N1223 1.351 . S
C1224 C1225 1.434 . S
C1225 C1216 1.429 . S
C1225 N1222 1.350 . S
C1225 C1224 1.434 . S
C1226 C1227 1.369 . S
C1226 C1228 1.419 . S
C1226 H1230 0.926 1_655 S
C1227 C1226 1.369 . S
C1227 C1236 1.429 . S
C1228 C1226 1.419 . S
C1228 C1229 1.363 . S
C1228 H1231 0.901 1_655 S
C1229 C1228 1.363 . S
C1229 C1235 1.428 . S
H1230 C1226 0.926 1_455 S
H1231 C1228 0.901 1_455 S
S1232 N1233 1.613 . S
S1232 N1234 1.610 . S
N1233 S1232 1.613 . S
N1233 C1236 1.350 . S
N1234 S1232 1.610 . S
N1234 C1235 1.351 . S
C1235 C1229 1.428 . S
C1235 N1234 1.351 . S
C1235 C1236 1.434 . S
C1236 C1227 1.429 . S
C1236 N1233 1.350 . S
C1236 C1235 1.434 . S
C1237 C1238 1.369 . S
C1237 C1239 1.419 . S
C1237 H1241 0.930 . S
C1238 C1237 1.369 . S
C1238 C1247 1.429 . S
C1239 C1237 1.419 . S
C1239 C1240 1.363 . S
C1239 H1242 0.929 . S
C1240 C1239 1.363 . S
C1240 C1246 1.428 . S
H1241 C1237 0.930 . S
H1242 C1239 0.929 . S
S1243 N1244 1.613 . S
S1243 N1245 1.610 . S
N1244 S1243 1.613 . S
N1244 C1247 1.350 . S
N1245 S1243 1.610 . S
N1245 C1246 1.351 . S
C1246 C1240 1.428 . S
C1246 N1245 1.351 . S
C1246 C1247 1.434 . S
C1247 C1238 1.429 . S
C1247 N1244 1.350 . S
C1247 C1246 1.434 . S
C1248 C1249 1.369 . S
C1248 C1250 1.419 . S
C1248 H1252 0.930 . S
C1249 C1248 1.369 . S
C1249 C1258 1.429 . S
C1250 C1248 1.419 . S
C1250 C1251 1.363 . S
C1250 H1253 0.929 . S
C1251 C1250 1.363 . S
C1251 C1257 1.428 . S
H1252 C1248 0.930 . S
H1253 C1250 0.929 . S
S1254 N1255 1.613 . S
S1254 N1256 1.610 . S
N1255 S1254 1.613 . S
N1255 C1258 1.350 . S
N1256 S1254 1.610 . S
N1256 C1257 1.351 . S
C1257 C1251 1.428 . S
C1257 N1256 1.351 . S
C1257 C1258 1.434 . S
C1258 C1249 1.429 . S
C1258 N1255 1.350 . S
C1258 C1257 1.434 . S
C1259 C1260 1.369 . S
C1259 C1261 1.419 . S
C1259 H1263 0.930 . S
C1260 C1259 1.369 . S
C1260 C1269 1.429 . S
C1261 C1259 1.419 . S
C1261 C1262 1.363 . S
C1261 H1264 0.929 . S
C1262 C1261 1.363 . S
C1262 C1268 1.428 . S
H1263 C1259 0.930 . S
H1264 C1261 0.929 . S
S1265 N1266 1.613 . S
S1265 N1267 1.610 . S
N1266 S1265 1.613 . S
N1266 C1269 1.350 . S
N1267 S1265 1.610 . S
N1267 C1268 1.351 . S
C1268 C1262 1.428 . S
C1268 N1267 1.351 . S
C1268 C1269 1.434 . S
C1269 C1260 1.429 . S
C1269 N1266 1.350 . S
C1269 C1268 1.434 . S
C1270 C1271 1.369 . S
C1270 C1272 1.419 . S
C1270 H1274 0.930 . S
C1271 C1270 1.369 . S
C1271 C1280 1.429 . S
C1272 C1270 1.419 . S
C1272 C1273 1.363 . S
C1272 H1275 0.929 . S
C1273 C1272 1.363 . S
C1273 C1279 1.428 . S
H1274 C1270 0.930 . S
H1275 C1272 0.929 . S
S1276 N1277 1.613 . S
S1276 N1278 1.610 . S
N1277 S1276 1.613 . S
N1277 C1280 1.350 . S
N1278 S1276 1.610 . S
N1278 C1279 1.351 . S
C1279 C1273 1.428 . S
C1279 N1278 1.351 . S
C1279 C1280 1.434 . S
C1280 C1271 1.429 . S
C1280 N1277 1.350 . S
C1280 C1279 1.434 . S
C1281 C1282 1.369 . S
C1281 C1283 1.419 . S
C1281 H1285 0.930 . S
C1282 C1281 1.369 . S
C1282 C1291 1.429 . S
C1283 C1281 1.419 . S
C1283 C1284 1.363 . S
C1283 H1286 0.929 . S
C1284 C1283 1.363 . S
C1284 C1290 1.428 . S
H1285 C1281 0.930 . S
H1286 C1283 0.929 . S
S1287 N1288 1.613 . S
S1287 N1289 1.610 . S
N1288 S1287 1.613 . S
N1288 C1291 1.350 . S
N1289 S1287 1.610 . S
N1289 C1290 1.351 . S
C1290 C1284 1.428 . S
C1290 N1289 1.351 . S
C1290 C1291 1.434 . S
C1291 C1282 1.429 . S
C1291 N1288 1.350 . S
C1291 C1290 1.434 . S
C1292 C1293 1.369 . S
C1292 C1294 1.419 . S
C1292 H1296 0.930 . S
C1293 C1292 1.369 . S
C1293 C1302 1.429 . S
C1294 C1292 1.419 . S
C1294 C1295 1.363 . S
C1294 H1297 0.929 . S
C1295 C1294 1.363 . S
C1295 C1301 1.428 . S
H1296 C1292 0.930 . S
H1297 C1294 0.929 . S
S1298 N1299 1.613 . S
S1298 N1300 1.610 . S
N1299 S1298 1.613 . S
N1299 C1302 1.350 . S
N1300 S1298 1.610 . S
N1300 C1301 1.351 . S
C1301 C1295 1.428 . S
C1301 N1300 1.351 . S
C1301 C1302 1.434 . S
C1302 C1293 1.429 . S
C1302 N1299 1.350 . S
C1302 C1301 1.434 . S
C1303 C1304 1.369 . S
C1303 C1305 1.419 . S
C1303 H1307 0.930 . S
C1304 C1303 1.369 . S
C1304 C1313 1.429 . S
C1305 C1303 1.419 . S
C1305 C1306 1.363 . S
C1305 H1308 0.929 . S
C1306 C1305 1.363 . S
C1306 C1312 1.428 . S
H1307 C1303 0.930 . S
H1308 C1305 0.929 . S
S1309 N1310 1.613 . S
S1309 N1311 1.610 . S
N1310 S1309 1.613 . S
N1310 C1313 1.350 . S
N1311 S1309 1.610 . S
N1311 C1312 1.351 . S
C1312 C1306 1.428 . S
C1312 N1311 1.351 . S
C1312 C1313 1.434 . S
C1313 C1304 1.429 . S
C1313 N1310 1.350 . S
C1313 C1312 1.434 . S
C1314 C1315 1.369 . S
C1314 C1316 1.419 . S
C1314 H1318 0.930 . S
C1315 C1314 1.369 . S
C1315 C1324 1.429 . S
C1316 C1314 1.419 . S
C1316 C1317 1.363 . S
C1316 H1319 0.929 . S
C1317 C1316 1.363 . S
C1317 C1323 1.428 . S
H1318 C1314 0.930 . S
H1319 C1316 0.929 . S
S1320 N1321 1.613 . S
S1320 N1322 1.610 . S
N1321 S1320 1.613 . S
N1321 C1324 1.350 . S
N1322 S1320 1.610 . S
N1322 C1323 1.351 . S
C1323 C1317 1.428 . S
C1323 N1322 1.351 . S
C1323 C1324 1.434 . S
C1324 C1315 1.429 . S
C1324 N1321 1.350 . S
C1324 C1323 1.434 . S
C1325 C1326 1.369 . S
C1325 C1327 1.419 . S
C1325 H1329 0.930 . S
C1326 C1325 1.369 . S
C1326 C1335 1.429 . S
C1327 C1325 1.419 . S
C1327 C1328 1.363 . S
C1327 H1330 0.929 . S
C1328 C1327 1.363 . S
C1328 C1334 1.428 . S
H1329 C1325 0.930 . S
H1330 C1327 0.929 . S
S1331 N1332 1.613 . S
S1331 N1333 1.610 . S
N1332 S1331 1.613 . S
N1332 C1335 1.350 . S
N1333 S1331 1.610 . S
N1333 C1334 1.351 . S
C1334 C1328 1.428 . S
C1334 N1333 1.351 . S
C1334 C1335 1.434 . S
C1335 C1326 1.429 . S
C1335 N1332 1.350 . S
C1335 C1334 1.434 . S
C1336 C1337 1.369 . S
C1336 C1338 1.419 . S
C1336 H1340 0.930 . S
C1337 C1336 1.369 . S
C1337 C1346 1.429 . S
C1338 C1336 1.419 . S
C1338 C1339 1.363 . S
C1338 H1341 0.929 . S
C1339 C1338 1.363 . S
C1339 C1345 1.428 . S
H1340 C1336 0.930 . S
H1341 C1338 0.929 . S
S1342 N1343 1.613 . S
S1342 N1344 1.610 . S
N1343 S1342 1.613 . S
N1343 C1346 1.350 . S
N1344 S1342 1.610 . S
N1344 C1345 1.351 . S
C1345 C1339 1.428 . S
C1345 N1344 1.351 . S
C1345 C1346 1.434 . S
C1346 C1337 1.429 . S
C1346 N1343 1.350 . S
C1346 C1345 1.434 . S
C1347 C1348 1.369 . S
C1347 C1349 1.419 . S
C1347 H1351 0.930 . S
C1348 C1347 1.369 . S
C1348 C1357 1.429 . S
C1349 C1347 1.419 . S
C1349 C1350 1.363 . S
C1349 H1352 0.929 . S
C1350 C1349 1.363 . S
C1350 C1356 1.428 . S
H1351 C1347 0.930 . S
H1352 C1349 0.929 . S
S1353 N1354 1.613 . S
S1353 N1355 1.610 . S
N1354 S1353 1.613 . S
N1354 C1357 1.350 . S
N1355 S1353 1.610 . S
N1355 C1356 1.351 . S
C1356 C1350 1.428 . S
C1356 N1355 1.351 . S
C1356 C1357 1.434 . S
C1357 C1348 1.429 . S
C1357 N1354 1.350 . S
C1357 C1356 1.434 . S
C1358 C1359 1.369 . S
C1358 C1360 1.419 . S
C1358 H1362 0.930 . S
C1359 C1358 1.369 . S
C1359 C1368 1.429 . S
C1360 C1358 1.419 . S
C1360 C1361 1.363 . S
C1360 H1363 0.929 . S
C1361 C1360 1.363 . S
C1361 C1367 1.428 . S
H1362 C1358 0.930 . S
H1363 C1360 0.929 . S
S1364 N1365 1.613 . S
S1364 N1366 1.610 . S
N1365 S1364 1.613 . S
N1365 C1368 1.350 . S
N1366 S1364 1.610 . S
N1366 C1367 1.351 . S
C1367 C1361 1.428 . S
C1367 N1366 1.351 . S
C1367 C1368 1.434 . S
C1368 C1359 1.429 . S
C1368 N1365 1.350 . S
C1368 C1367 1.434 . S
C1369 C1370 1.369 . S
C1369 C1371 1.419 . S
C1369 H1373 0.930 . S
C1370 C1369 1.369 . S
C1370 C1379 1.429 . S
C1371 C1369 1.419 . S
C1371 C1372 1.363 . S
C1371 H1374 0.929 . S
C1372 C1371 1.363 . S
C1372 C1378 1.428 . S
H1373 C1369 0.930 . S
H1374 C1371 0.929 . S
S1375 N1376 1.613 . S
S1375 N1377 1.610 . S
N1376 S1375 1.613 . S
N1376 C1379 1.350 . S
N1377 S1375 1.610 . S
N1377 C1378 1.351 . S
C1378 C1372 1.428 . S
C1378 N1377 1.351 . S
C1378 C1379 1.434 . S
C1379 C1370 1.429 . S
C1379 N1376 1.350 . S
C1379 C1378 1.434 . S
C1380 C1381 1.369 . S
C1380 C1382 1.419 . S
C1380 H1384 0.930 . S
C1381 C1380 1.369 . S
C1381 C1390 1.429 . S
C1382 C1380 1.419 . S
C1382 C1383 1.363 . S
C1382 H1385 0.929 . S
C1383 C1382 1.363 . S
C1383 C1389 1.428 . S
H1384 C1380 0.930 . S
H1385 C1382 0.929 . S
S1386 N1387 1.613 . S
S1386 N1388 1.610 . S
N1387 S1386 1.613 . S
N1387 C1390 1.350 . S
N1388 S1386 1.610 . S
N1388 C1389 1.351 . S
C1389 C1383 1.428 . S
C1389 N1388 1.351 . S
C1389 C1390 1.434 . S
C1390 C1381 1.429 . S
C1390 N1387 1.350 . S
C1390 C1389 1.434 . S
C1391 C1392 1.369 . S
C1391 C1393 1.419 . S
C1391 H1395 0.930 . S
C1392 C1391 1.369 . S
C1392 C1401 1.429 . S
C1393 C1391 1.419 . S
C1393 C1394 1.363 . S
C1393 H1396 0.929 . S
C1394 C1393 1.363 . S
C1394 C1400 1.428 . S
H1395 C1391 0.930 . S
H1396 C1393 0.929 . S
S1397 N1398 1.613 . S
S1397 N1399 1.610 . S
N1398 S1397 1.613 . S
N1398 C1401 1.350 . S
N1399 S1397 1.610 . S
N1399 C1400 1.351 . S
C1400 C1394 1.428 . S
C1400 N1399 1.351 . S
C1400 C1401 1.434 . S
C1401 C1392 1.429 . S
C1401 N1398 1.350 . S
C1401 C1400 1.434 . S
C1402 C1403 1.369 . S
C1402 C1404 1.419 . S
C1402 H1406 0.930 . S
C1403 C1402 1.369 . S
C1403 C1412 1.429 . S
C1404 C1402 1.419 . S
C1404 C1405 1.363 . S
C1404 H1407 0.929 . S
C1405 C1404 1.363 . S
C1405 C1411 1.428 . S
H1406 C1402 0.930 . S
H1407 C1404 0.929 . S
S1408 N1409 1.613 . S
S1408 N1410 1.610 . S
N1409 S1408 1.613 . S
N1409 C1412 1.350 . S
N1410 S1408 1.610 . S
N1410 C1411 1.351 . S
C1411 C1405 1.428 . S
C1411 N1410 1.351 . S
C1411 C1412 1.434 . S
C1412 C1403 1.429 . S
C1412 N1409 1.350 . S
C1412 C1411 1.434 . S
C1413 C1414 1.369 . S
C1413 C1415 1.419 . S
C1413 H1417 0.930 . S
C1414 C1413 1.369 . S
C1414 C1423 1.429 . S
C1415 C1413 1.419 . S
C1415 C1416 1.363 . S
C1415 H1418 0.929 . S
C1416 C1415 1.363 . S
C1416 C1422 1.428 . S
H1417 C1413 0.930 . S
H1418 C1415 0.929 . S
S1419 N1420 1.613 . S
S1419 N1421 1.610 . S
N1420 S1419 1.613 . S
N1420 C1423 1.350 . S
N1421 S1419 1.610 . S
N1421 C1422 1.351 . S
C1422 C1416 1.428 . S
C1422 N1421 1.351 . S
C1422 C1423 1.434 . S
C1423 C1414 1.429 . S
C1423 N1420 1.350 . S
C1423 C1422 1.434 . S
C1424 C1425 1.369 . S
C1424 C1426 1.419 . S
C1424 H1428 0.930 . S
C1425 C1424 1.369 . S
C1425 C1434 1.429 . S
C1426 C1424 1.419 . S
C1426 C1427 1.363 . S
C1426 H1429 0.929 . S
C1427 C1426 1.363 . S
C1427 C1433 1.428 . S
H1428 C1424 0.930 . S
H1429 C1426 0.929 . S
S1430 N1431 1.613 . S
S1430 N1432 1.610 . S
N1431 S1430 1.613 . S
N1431 C1434 1.350 . S
N1432 S1430 1.610 . S
N1432 C1433 1.351 . S
C1433 C1427 1.428 . S
C1433 N1432 1.351 . S
C1433 C1434 1.434 . S
C1434 C1425 1.429 . S
C1434 N1431 1.350 . S
C1434 C1433 1.434 . S
C1435 C1436 1.369 . S
C1435 C1437 1.419 . S
C1435 H1439 0.930 . S
C1436 C1435 1.369 . S
C1436 C1445 1.429 . S
C1437 C1435 1.419 . S
C1437 C1438 1.363 . S
C1437 H1440 0.929 . S
C1438 C1437 1.363 . S
C1438 C1444 1.428 . S
H1439 C1435 0.930 . S
H1440 C1437 0.929 . S
S1441 N1442 1.613 . S
S1441 N1443 1.610 . S
N1442 S1441 1.613 . S
N1442 C1445 1.350 . S
N1443 S1441 1.610 . S
N1443 C1444 1.351 . S
C1444 C1438 1.428 . S
C1444 N1443 1.351 . S
C1444 C1445 1.434 . S
C1445 C1436 1.429 . S
C1445 N1442 1.350 . S
C1445 C1444 1.434 . S
C1446 C1447 1.369 . S
C1446 C1448 1.419 . S
C1446 H1450 0.930 . S
C1447 C1446 1.369 . S
C1447 C1456 1.429 . S
C1448 C1446 1.419 . S
C1448 C1449 1.363 . S
C1448 H1451 0.929 . S
C1449 C1448 1.363 . S
C1449 C1455 1.428 . S
H1450 C1446 0.930 . S
H1451 C1448 0.929 . S
S1452 N1453 1.613 . S
S1452 N1454 1.610 . S
N1453 S1452 1.613 . S
N1453 C1456 1.350 . S
N1454 S1452 1.610 . S
N1454 C1455 1.351 . S
C1455 C1449 1.428 . S
C1455 N1454 1.351 . S
C1455 C1456 1.434 . S
C1456 C1447 1.429 . S
C1456 N1453 1.350 . S
C1456 C1455 1.434 . S
C1457 C1458 1.369 . S
C1457 C1459 1.419 . S
C1457 H1461 0.930 . S
C1458 C1457 1.369 . S
C1458 C1467 1.429 . S
C1459 C1457 1.419 . S
C1459 C1460 1.363 . S
C1459 H1462 0.929 . S
C1460 C1459 1.363 . S
C1460 C1466 1.428 . S
H1461 C1457 0.930 . S
H1462 C1459 0.929 . S
S1463 N1464 1.613 . S
S1463 N1465 1.610 . S
N1464 S1463 1.613 . S
N1464 C1467 1.350 . S
N1465 S1463 1.610 . S
N1465 C1466 1.351 . S
C1466 C1460 1.428 . S
C1466 N1465 1.351 . S
C1466 C1467 1.434 . S
C1467 C1458 1.429 . S
C1467 N1464 1.350 . S
C1467 C1466 1.434 . S
C1468 C1469 1.369 . S
C1468 C1470 1.419 . S
C1468 H1472 0.930 . S
C1469 C1468 1.369 . S
C1469 C1478 1.429 . S
C1470 C1468 1.419 . S
C1470 C1471 1.363 . S
C1470 H1473 0.929 . S
C1471 C1470 1.363 . S
C1471 C1477 1.428 . S
H1472 C1468 0.930 . S
H1473 C1470 0.929 . S
S1474 N1475 1.613 . S
S1474 N1476 1.610 . S
N1475 S1474 1.613 . S
N1475 C1478 1.350 . S
N1476 S1474 1.610 . S
N1476 C1477 1.351 . S
C1477 C1471 1.428 . S
C1477 N1476 1.351 . S
C1477 C1478 1.434 . S
C1478 C1469 1.429 . S
C1478 N1475 1.350 . S
C1478 C1477 1.434 . S
C1479 C1480 1.369 . S
C1479 C1481 1.419 . S
C1479 H1483 0.930 . S
C1480 C1479 1.369 . S
C1480 C1489 1.429 . S
C1481 C1479 1.419 . S
C1481 C1482 1.363 . S
C1481 H1484 0.929 . S
C1482 C1481 1.363 . S
C1482 C1488 1.428 . S
H1483 C1479 0.930 . S
H1484 C1481 0.929 . S
S1485 N1486 1.613 . S
S1485 N1487 1.610 . S
N1486 S1485 1.613 . S
N1486 C1489 1.350 . S
N1487 S1485 1.610 . S
N1487 C1488 1.351 . S
C1488 C1482 1.428 . S
C1488 N1487 1.351 . S
C1488 C1489 1.434 . S
C1489 C1480 1.429 . S
C1489 N1486 1.350 . S
C1489 C1488 1.434 . S
C1490 C1491 1.369 . S
C1490 C1492 1.419 . S
C1490 H1494 0.930 . S
C1491 C1490 1.369 . S
C1491 C1500 1.429 . S
C1492 C1490 1.419 . S
C1492 C1493 1.363 . S
C1492 H1495 0.929 . S
C1493 C1492 1.363 . S
C1493 C1499 1.428 . S
H1494 C1490 0.930 . S
H1495 C1492 0.929 . S
S1496 N1497 1.613 . S
S1496 N1498 1.610 . S
N1497 S1496 1.613 . S
N1497 C1500 1.350 . S
N1498 S1496 1.610 . S
N1498 C1499 1.351 . S
C1499 C1493 1.428 . S
C1499 N1498 1.351 . S
C1499 C1500 1.434 . S
C1500 C1491 1.429 . S
C1500 N1497 1.350 . S
C1500 C1499 1.434 . S
C1501 C1502 1.369 . S
C1501 C1503 1.419 . S
C1501 H1505 0.930 . S
C1502 C1501 1.369 . S
C1502 C1511 1.429 . S
C1503 C1501 1.419 . S
C1503 C1504 1.363 . S
C1503 H1506 0.929 . S
C1504 C1503 1.363 . S
C1504 C1510 1.428 . S
H1505 C1501 0.930 . S
H1506 C1503 0.929 . S
S1507 N1508 1.613 . S
S1507 N1509 1.610 . S
N1508 S1507 1.613 . S
N1508 C1511 1.350 . S
N1509 S1507 1.610 . S
N1509 C1510 1.351 . S
C1510 C1504 1.428 . S
C1510 N1509 1.351 . S
C1510 C1511 1.434 . S
C1511 C1502 1.429 . S
C1511 N1508 1.350 . S
C1511 C1510 1.434 . S
C1512 C1513 1.369 . S
C1512 C1514 1.419 . S
C1512 H1516 0.930 . S
C1513 C1512 1.369 . S
C1513 C1522 1.429 . S
C1514 C1512 1.419 . S
C1514 C1515 1.363 . S
C1514 H1517 0.929 . S
C1515 C1514 1.363 . S
C1515 C1521 1.428 . S
H1516 C1512 0.930 . S
H1517 C1514 0.929 . S
S1518 N1519 1.613 1_556 S
S1518 N1520 1.610 1_556 S
N1519 S1518 1.613 1_554 S
N1519 C1522 1.350 . S
N1520 S1518 1.610 1_554 S
N1520 C1521 1.351 . S
C1521 C1515 1.428 . S
C1521 N1520 1.351 . S
C1521 C1522 1.434 . S
C1522 C1513 1.429 . S
C1522 N1519 1.350 . S
C1522 C1521 1.434 . S
C1523 C1524 1.369 . S
C1523 C1525 1.419 . S
C1523 H1527 0.930 . S
C1524 C1523 1.369 . S
C1524 C1533 1.429 . S
C1525 C1523 1.419 . S
C1525 C1526 1.363 . S
C1525 H1528 0.929 . S
C1526 C1525 1.363 . S
C1526 C1532 1.428 . S
H1527 C1523 0.930 . S
H1528 C1525 0.929 . S
S1529 N1530 1.613 . S
S1529 N1531 1.610 . S
N1530 S1529 1.613 . S
N1530 C1533 1.350 . S
N1531 S1529 1.610 . S
N1531 C1532 1.351 . S
C1532 C1526 1.428 . S
C1532 N1531 1.351 . S
C1532 C1533 1.434 . S
C1533 C1524 1.429 . S
C1533 N1530 1.350 . S
C1533 C1532 1.434 . S
C1534 C1535 1.369 . S
C1534 C1536 1.419 . S
C1534 H1538 0.930 . S
C1535 C1534 1.369 . S
C1535 C1544 1.429 . S
C1536 C1534 1.419 . S
C1536 C1537 1.363 . S
C1536 H1539 0.929 . S
C1537 C1536 1.363 . S
C1537 C1543 1.428 . S
H1538 C1534 0.930 . S
H1539 C1536 0.929 . S
S1540 N1541 1.613 1_556 S
S1540 N1542 1.610 1_556 S
N1541 S1540 1.613 1_554 S
N1541 C1544 1.350 . S
N1542 S1540 1.610 1_554 S
N1542 C1543 1.351 . S
C1543 C1537 1.428 . S
C1543 N1542 1.351 . S
C1543 C1544 1.434 . S
C1544 C1535 1.429 . S
C1544 N1541 1.350 . S
C1544 C1543 1.434 . S
C1545 C1546 1.369 . S
C1545 C1547 1.419 . S
C1545 H1549 0.930 . S
C1546 C1545 1.369 . S
C1546 C1555 1.429 . S
C1547 C1545 1.419 . S
C1547 C1548 1.363 . S
C1547 H1550 0.929 . S
C1548 C1547 1.363 . S
C1548 C1554 1.428 . S
H1549 C1545 0.930 . S
H1550 C1547 0.929 . S
S1551 N1552 1.613 . S
S1551 N1553 1.610 . S
N1552 S1551 1.613 . S
N1552 C1555 1.350 . S
N1553 S1551 1.610 . S
N1553 C1554 1.351 . S
C1554 C1548 1.428 . S
C1554 N1553 1.351 . S
C1554 C1555 1.434 . S
C1555 C1546 1.429 . S
C1555 N1552 1.350 . S
C1555 C1554 1.434 . S
C1556 C1557 1.369 . S
C1556 C1558 1.419 . S
C1556 H1560 0.930 . S
C1557 C1556 1.369 . S
C1557 C1566 1.429 . S
C1558 C1556 1.419 . S
C1558 C1559 1.363 . S
C1558 H1561 0.929 . S
C1559 C1558 1.363 . S
C1559 C1565 1.428 . S
H1560 C1556 0.930 . S
H1561 C1558 0.929 . S
S1562 N1563 1.613 . S
S1562 N1564 1.610 1_554 S
N1563 S1562 1.613 . S
N1563 C1566 1.350 1_554 S
N1564 S1562 1.610 1_556 S
N1564 C1565 1.351 . S
C1565 C1559 1.428 . S
C1565 N1564 1.351 . S
C1565 C1566 1.434 . S
C1566 C1557 1.429 . S
C1566 N1563 1.350 1_556 S
C1566 C1565 1.434 . S
C1567 C1568 1.369 . S
C1567 C1569 1.419 . S
C1567 H1571 0.930 . S
C1568 C1567 1.369 . S
C1568 C1577 1.429 . S
C1569 C1567 1.419 . S
C1569 C1570 1.363 . S
C1569 H1572 0.929 . S
C1570 C1569 1.363 . S
C1570 C1576 1.428 . S
H1571 C1567 0.930 . S
H1572 C1569 0.929 . S
S1573 N1574 1.613 . S
S1573 N1575 1.610 . S
N1574 S1573 1.613 . S
N1574 C1577 1.350 . S
N1575 S1573 1.610 . S
N1575 C1576 1.351 . S
C1576 C1570 1.428 . S
C1576 N1575 1.351 . S
C1576 C1577 1.434 . S
C1577 C1568 1.429 . S
C1577 N1574 1.350 . S
C1577 C1576 1.434 . S
C1578 C1579 1.369 . S
C1578 C1580 1.419 . S
C1578 H1582 0.930 . S
C1579 C1578 1.369 . S
C1579 C1588 1.429 . S
C1580 C1578 1.419 . S
C1580 C1581 1.363 . S
C1580 H1583 0.929 . S
C1581 C1580 1.363 . S
C1581 C1587 1.428 . S
H1582 C1578 0.930 . S
H1583 C1580 0.929 . S
S1584 N1585 1.613 . S
S1584 N1586 1.610 . S
N1585 S1584 1.613 . S
N1585 C1588 1.350 . S
N1586 S1584 1.610 . S
N1586 C1587 1.351 . S
C1587 C1581 1.428 . S
C1587 N1586 1.351 . S
C1587 C1588 1.434 . S
C1588 C1579 1.429 . S
C1588 N1585 1.350 . S
C1588 C1587 1.434 . S
C1589 C1590 1.369 . S
C1589 C1591 1.419 . S
C1589 H1593 0.930 1_556 S
C1590 C1589 1.369 . S
C1590 C1599 1.429 . S
C1591 C1589 1.419 . S
C1591 C1592 1.363 . S
C1591 H1594 0.929 . S
C1592 C1591 1.363 . S
C1592 C1598 1.428 . S
H1593 C1589 0.930 1_554 S
H1594 C1591 0.929 . S
S1595 N1596 1.613 . S
S1595 N1597 1.610 . S
N1596 S1595 1.613 . S
N1596 C1599 1.350 . S
N1597 S1595 1.610 . S
N1597 C1598 1.351 . S
C1598 C1592 1.428 . S
C1598 N1597 1.351 . S
C1598 C1599 1.434 . S
C1599 C1590 1.429 . S
C1599 N1596 1.350 . S
C1599 C1598 1.434 . S
C1600 C1601 1.369 . S
C1600 C1602 1.419 . S
C1600 H1604 0.930 1_556 S
C1601 C1600 1.369 . S
C1601 C1610 1.429 . S
C1602 C1600 1.419 . S
C1602 C1603 1.363 . S
C1602 H1605 0.929 . S
C1603 C1602 1.363 . S
C1603 C1609 1.428 . S
H1604 C1600 0.930 1_554 S
H1605 C1602 0.929 . S
S1606 N1607 1.613 . S
S1606 N1608 1.610 . S
N1607 S1606 1.613 . S
N1607 C1610 1.350 . S
N1608 S1606 1.610 . S
N1608 C1609 1.351 . S
C1609 C1603 1.428 . S
C1609 N1608 1.351 . S
C1609 C1610 1.434 . S
C1610 C1601 1.429 . S
C1610 N1607 1.350 . S
C1610 C1609 1.434 . S
C1611 C1612 1.369 . S
C1611 C1613 1.419 . S
C1611 H1615 0.930 . S
C1612 C1611 1.369 . S
C1612 C1621 1.429 . S
C1613 C1611 1.419 . S
C1613 C1614 1.363 . S
C1613 H1616 0.929 . S
C1614 C1613 1.363 . S
C1614 C1620 1.428 . S
H1615 C1611 0.930 . S
H1616 C1613 0.929 . S
S1617 N1618 1.613 1_556 S
S1617 N1619 1.610 1_556 S
N1618 S1617 1.613 1_554 S
N1618 C1621 1.350 . S
N1619 S1617 1.610 1_554 S
N1619 C1620 1.351 . S
C1620 C1614 1.428 . S
C1620 N1619 1.351 . S
C1620 C1621 1.434 . S
C1621 C1612 1.429 . S
C1621 N1618 1.350 . S
C1621 C1620 1.434 . S
C1622 C1623 1.369 . S
C1622 C1624 1.419 . S
C1622 H1626 0.930 . S
C1623 C1622 1.369 . S
C1623 C1632 1.429 . S
C1624 C1622 1.419 . S
C1624 C1625 1.363 . S
C1624 H1627 0.929 . S
C1625 C1624 1.363 . S
C1625 C1631 1.428 . S
H1626 C1622 0.930 . S
H1627 C1624 0.929 . S
S1628 N1629 1.613 . S
S1628 N1630 1.610 . S
N1629 S1628 1.613 . S
N1629 C1632 1.350 . S
N1630 S1628 1.610 . S
N1630 C1631 1.351 . S
C1631 C1625 1.428 . S
C1631 N1630 1.351 . S
C1631 C1632 1.434 . S
C1632 C1623 1.429 . S
C1632 N1629 1.350 . S
C1632 C1631 1.434 . S
C1633 C1634 1.369 . S
C1633 C1635 1.419 . S
C1633 H1637 0.930 . S
C1634 C1633 1.369 . S
C1634 C1643 1.429 . S
C1635 C1633 1.419 . S
C1635 C1636 1.363 . S
C1635 H1638 0.929 . S
C1636 C1635 1.363 . S
C1636 C1642 1.428 . S
H1637 C1633 0.930 . S
H1638 C1635 0.929 . S
S1639 N1640 1.613 . S
S1639 N1641 1.610 . S
N1640 S1639 1.613 . S
N1640 C1643 1.350 . S
N1641 S1639 1.610 . S
N1641 C1642 1.351 . S
C1642 C1636 1.428 . S
C1642 N1641 1.351 . S
C1642 C1643 1.434 . S
C1643 C1634 1.429 . S
C1643 N1640 1.350 . S
C1643 C1642 1.434 . S
C1644 C1645 1.369 . S
C1644 C1646 1.419 . S
C1644 H1648 0.930 . S
C1645 C1644 1.369 . S
C1645 C1654 1.429 . S
C1646 C1644 1.419 . S
C1646 C1647 1.363 . S
C1646 H1649 0.929 . S
C1647 C1646 1.363 . S
C1647 C1653 1.428 . S
H1648 C1644 0.930 . S
H1649 C1646 0.929 . S
S1650 N1651 1.613 . S
S1650 N1652 1.610 . S
N1651 S1650 1.613 . S
N1651 C1654 1.350 . S
N1652 S1650 1.610 . S
N1652 C1653 1.351 . S
C1653 C1647 1.428 . S
C1653 N1652 1.351 . S
C1653 C1654 1.434 . S
C1654 C1645 1.429 . S
C1654 N1651 1.350 . S
C1654 C1653 1.434 . S
C1655 C1656 1.369 . S
C1655 C1657 1.419 . S
C1655 H1659 0.930 . S
C1656 C1655 1.369 . S
C1656 C1665 1.429 . S
C1657 C1655 1.419 . S
C1657 C1658 1.363 . S
C1657 H1660 0.929 . S
C1658 C1657 1.363 . S
C1658 C1664 1.428 . S
H1659 C1655 0.930 . S
H1660 C1657 0.929 . S
S1661 N1662 1.613 . S
S1661 N1663 1.610 . S
N1662 S1661 1.613 . S
N1662 C1665 1.350 . S
N1663 S1661 1.610 . S
N1663 C1664 1.351 . S
C1664 C1658 1.428 . S
C1664 N1663 1.351 . S
C1664 C1665 1.434 . S
C1665 C1656 1.429 . S
C1665 N1662 1.350 . S
C1665 C1664 1.434 . S
C1666 C1667 1.369 . S
C1666 C1668 1.419 . S
C1666 H1670 0.930 . S
C1667 C1666 1.369 . S
C1667 C1676 1.429 . S
C1668 C1666 1.419 . S
C1668 C1669 1.363 . S
C1668 H1671 0.929 . S
C1669 C1668 1.363 . S
C1669 C1675 1.428 . S
H1670 C1666 0.930 . S
H1671 C1668 0.929 . S
S1672 N1673 1.613 . S
S1672 N1674 1.610 . S
N1673 S1672 1.613 . S
N1673 C1676 1.350 . S
N1674 S1672 1.610 . S
N1674 C1675 1.351 . S
C1675 C1669 1.428 . S
C1675 N1674 1.351 . S
C1675 C1676 1.434 . S
C1676 C1667 1.429 . S
C1676 N1673 1.350 . S
C1676 C1675 1.434 . S
C1677 C1678 1.369 1_655 S
C1677 C1679 1.419 . S
C1677 H1681 0.930 . S
C1678 C1677 1.369 1_455 S
C1678 C1687 1.429 . S
C1679 C1677 1.419 . S
C1679 C1680 1.363 1_655 S
C1679 H1682 0.929 . S
C1680 C1679 1.363 1_455 S
C1680 C1686 1.428 . S
H1681 C1677 0.930 . S
H1682 C1679 0.929 . S
S1683 N1684 1.613 . S
S1683 N1685 1.610 . S
N1684 S1683 1.613 . S
N1684 C1687 1.350 . S
N1685 S1683 1.610 . S
N1685 C1686 1.351 . S
C1686 C1680 1.428 . S
C1686 N1685 1.351 . S
C1686 C1687 1.434 . S
C1687 C1678 1.429 . S
C1687 N1684 1.350 . S
C1687 C1686 1.434 . S
C1688 C1689 1.369 . S
C1688 C1690 1.419 . S
C1688 H1692 0.930 . S
C1689 C1688 1.369 . S
C1689 C1698 1.429 . S
C1690 C1688 1.419 . S
C1690 C1691 1.363 . S
C1690 H1693 0.929 . S
C1691 C1690 1.363 . S
C1691 C1697 1.428 . S
H1692 C1688 0.930 . S
H1693 C1690 0.929 . S
S1694 N1695 1.613 . S
S1694 N1696 1.610 . S
N1695 S1694 1.613 . S
N1695 C1698 1.350 . S
N1696 S1694 1.610 . S
N1696 C1697 1.351 . S
C1697 C1691 1.428 . S
C1697 N1696 1.351 . S
C1697 C1698 1.434 . S
C1698 C1689 1.429 . S
C1698 N1695 1.350 . S
C1698 C1697 1.434 . S
C1699 C1700 1.369 . S
C1699 C1701 1.419 . S
C1699 H1703 0.930 . S
C1700 C1699 1.369 . S
C1700 C1709 1.429 1_565 S
C1701 C1699 1.419 . S
C1701 C1702 1.363 . S
C1701 H1704 0.929 . S
C1702 C1701 1.363 . S
C1702 C1708 1.428 1_565 S
H1703 C1699 0.930 . S
H1704 C1701 0.929 . S
S1705 N1706 1.613 . S
S1705 N1707 1.610 . S
N1706 S1705 1.613 . S
N1706 C1709 1.350 . S
N1707 S1705 1.610 . S
N1707 C1708 1.351 . S
C1708 C1702 1.428 1_545 S
C1708 N1707 1.351 . S
C1708 C1709 1.434 . S
C1709 C1700 1.429 1_545 S
C1709 N1706 1.350 . S
C1709 C1708 1.434 . S
C1710 C1711 1.369 . S
C1710 C1712 1.419 . S
C1710 H1714 0.930 . S
C1711 C1710 1.369 . S
C1711 C1720 1.429 1_565 S
C1712 C1710 1.419 . S
C1712 C1713 1.363 . S
C1712 H1715 0.929 . S
C1713 C1712 1.363 . S
C1713 C1719 1.428 1_565 S
H1714 C1710 0.930 . S
H1715 C1712 0.929 . S
S1716 N1717 1.613 . S
S1716 N1718 1.610 . S
N1717 S1716 1.613 . S
N1717 C1720 1.350 . S
N1718 S1716 1.610 . S
N1718 C1719 1.351 . S
C1719 C1713 1.428 1_545 S
C1719 N1718 1.351 . S
C1719 C1720 1.434 . S
C1720 C1711 1.429 1_545 S
C1720 N1717 1.350 . S
C1720 C1719 1.434 . S
C1721 C1722 1.369 . S
C1721 C1723 1.419 . S
C1721 H1725 0.930 . S
C1722 C1721 1.369 . S
C1722 C1731 1.429 1_455 S
C1723 C1721 1.419 . S
C1723 C1724 1.363 . S
C1723 H1726 0.929 . S
C1724 C1723 1.363 . S
C1724 C1730 1.428 1_455 S
H1725 C1721 0.930 . S
H1726 C1723 0.929 . S
S1727 N1728 1.613 . S
S1727 N1729 1.610 . S
N1728 S1727 1.613 . S
N1728 C1731 1.350 . S
N1729 S1727 1.610 . S
N1729 C1730 1.351 . S
C1730 C1724 1.428 1_655 S
C1730 N1729 1.351 . S
C1730 C1731 1.434 . S
C1731 C1722 1.429 1_655 S
C1731 N1728 1.350 . S
C1731 C1730 1.434 . S
C1732 C1733 1.369 . S
C1732 C1734 1.419 . S
C1732 H1736 0.930 . S
C1733 C1732 1.369 . S
C1733 C1742 1.429 . S
C1734 C1732 1.419 . S
C1734 C1735 1.363 . S
C1734 H1737 0.929 . S
C1735 C1734 1.363 . S
C1735 C1741 1.428 . S
H1736 C1732 0.930 . S
H1737 C1734 0.929 . S
S1738 N1739 1.613 . S
S1738 N1740 1.610 . S
N1739 S1738 1.613 . S
N1739 C1742 1.350 . S
N1740 S1738 1.610 . S
N1740 C1741 1.351 . S
C1741 C1735 1.428 . S
C1741 N1740 1.351 . S
C1741 C1742 1.434 . S
C1742 C1733 1.429 . S
C1742 N1739 1.350 . S
C1742 C1741 1.434 . S
C1743 C1744 1.369 . S
C1743 C1745 1.419 . S
C1743 H1747 0.930 . S
C1744 C1743 1.369 . S
C1744 C1753 1.429 . S
C1745 C1743 1.419 . S
C1745 C1746 1.363 . S
C1745 H1748 0.929 . S
C1746 C1745 1.363 . S
C1746 C1752 1.428 . S
H1747 C1743 0.930 . S
H1748 C1745 0.929 . S
S1749 N1750 1.613 . S
S1749 N1751 1.610 . S
N1750 S1749 1.613 . S
N1750 C1753 1.350 . S
N1751 S1749 1.610 . S
N1751 C1752 1.351 . S
C1752 C1746 1.428 . S
C1752 N1751 1.351 . S
C1752 C1753 1.434 . S
C1753 C1744 1.429 . S
C1753 N1750 1.350 . S
C1753 C1752 1.434 . S
C1754 C1755 1.369 . S
C1754 C1756 1.419 . S
C1754 H1758 0.930 . S
C1755 C1754 1.369 . S
C1755 C1764 1.429 . S
C1756 C1754 1.419 . S
C1756 C1757 1.363 . S
C1756 H1759 0.929 . S
C1757 C1756 1.363 . S
C1757 C1763 1.428 . S
H1758 C1754 0.930 . S
H1759 C1756 0.929 . S
S1760 N1761 1.613 . S
S1760 N1762 1.610 . S
N1761 S1760 1.613 . S
N1761 C1764 1.350 . S
N1762 S1760 1.610 . S
N1762 C1763 1.351 . S
C1763 C1757 1.428 . S
C1763 N1762 1.351 . S
C1763 C1764 1.434 . S
C1764 C1755 1.429 . S
C1764 N1761 1.350 . S
C1764 C1763 1.434 . S
C1765 C1766 1.369 . S
C1765 C1767 1.419 . S
C1765 H1769 0.930 . S
C1766 C1765 1.369 . S
C1766 C1775 1.429 . S
C1767 C1765 1.419 . S
C1767 C1768 1.363 . S
C1767 H1770 0.929 . S
C1768 C1767 1.363 . S
C1768 C1774 1.428 . S
H1769 C1765 0.930 . S
H1770 C1767 0.929 . S
S1771 N1772 1.613 . S
S1771 N1773 1.610 . S
N1772 S1771 1.613 . S
N1772 C1775 1.350 . S
N1773 S1771 1.610 . S
N1773 C1774 1.351 . S
C1774 C1768 1.428 . S
C1774 N1773 1.351 . S
C1774 C1775 1.434 . S
C1775 C1766 1.429 . S
C1775 N1772 1.350 . S
C1775 C1774 1.434 . S
C1776 C1777 1.369 . S
C1776 C1778 1.419 . S
C1776 H1780 0.930 . S
C1777 C1776 1.369 . S
C1777 C1786 1.429 1_545 S
C1778 C1776 1.419 . S
C1778 C1779 1.363 . S
C1778 H1781 0.929 . S
C1779 C1778 1.363 . S
C1779 C1785 1.428 1_545 S
H1780 C1776 0.930 . S
H1781 C1778 0.929 . S
S1782 N1783 1.613 . S
S1782 N1784 1.610 . S
N1783 S1782 1.613 . S
N1783 C1786 1.350 . S
N1784 S1782 1.610 . S
N1784 C1785 1.351 . S
C1785 C1779 1.428 1_565 S
C1785 N1784 1.351 . S
C1785 C1786 1.434 . S
C1786 C1777 1.429 1_565 S
C1786 N1783 1.350 . S
C1786 C1785 1.434 . S
C1787 C1788 1.369 . S
C1787 C1789 1.419 . S
C1787 H1791 0.930 . S
C1788 C1787 1.369 . S
C1788 C1797 1.429 . S
C1789 C1787 1.419 . S
C1789 C1790 1.363 . S
C1789 H1792 0.929 . S
C1790 C1789 1.363 . S
C1790 C1796 1.428 . S
H1791 C1787 0.930 . S
H1792 C1789 0.929 . S
S1793 N1794 1.613 . S
S1793 N1795 1.610 . S
N1794 S1793 1.613 . S
N1794 C1797 1.350 . S
N1795 S1793 1.610 . S
N1795 C1796 1.351 . S
C1796 C1790 1.428 . S
C1796 N1795 1.351 . S
C1796 C1797 1.434 . S
C1797 C1788 1.429 . S
C1797 N1794 1.350 . S
C1797 C1796 1.434 . S
C1798 C1799 1.369 . S
C1798 C1800 1.419 . S
C1798 H1802 0.930 . S
C1799 C1798 1.369 . S
C1799 C1808 1.429 . S
C1800 C1798 1.419 . S
C1800 C1801 1.363 . S
C1800 H1803 0.929 . S
C1801 C1800 1.363 . S
C1801 C1807 1.428 . S
H1802 C1798 0.930 . S
H1803 C1800 0.929 . S
S1804 N1805 1.613 . S
S1804 N1806 1.610 . S
N1805 S1804 1.613 . S
N1805 C1808 1.350 . S
N1806 S1804 1.610 . S
N1806 C1807 1.351 . S
C1807 C1801 1.428 . S
C1807 N1806 1.351 . S
C1807 C1808 1.434 . S
C1808 C1799 1.429 . S
C1808 N1805 1.350 . S
C1808 C1807 1.434 . S
C1809 C1810 1.369 . S
C1809 C1811 1.419 . S
C1809 H1813 0.930 . S
C1810 C1809 1.369 . S
C1810 C1819 1.429 . S
C1811 C1809 1.419 . S
C1811 C1812 1.363 . S
C1811 H1814 0.929 . S
C1812 C1811 1.363 . S
C1812 C1818 1.428 . S
H1813 C1809 0.930 . S
H1814 C1811 0.929 . S
S1815 N1816 1.613 . S
S1815 N1817 1.610 . S
N1816 S1815 1.613 . S
N1816 C1819 1.350 . S
N1817 S1815 1.610 . S
N1817 C1818 1.351 . S
C1818 C1812 1.428 . S
C1818 N1817 1.351 . S
C1818 C1819 1.434 . S
C1819 C1810 1.429 . S
C1819 N1816 1.350 . S
C1819 C1818 1.434 . S
C1820 C1821 1.369 . S
C1820 C1822 1.419 . S
C1820 H1824 0.930 . S
C1821 C1820 1.369 . S
C1821 C1830 1.429 . S
C1822 C1820 1.419 . S
C1822 C1823 1.363 . S
C1822 H1825 0.929 . S
C1823 C1822 1.363 . S
C1823 C1829 1.428 . S
H1824 C1820 0.930 . S
H1825 C1822 0.929 . S
S1826 N1827 1.613 . S
S1826 N1828 1.610 . S
N1827 S1826 1.613 . S
N1827 C1830 1.350 . S
N1828 S1826 1.610 . S
N1828 C1829 1.351 . S
C1829 C1823 1.428 . S
C1829 N1828 1.351 . S
C1829 C1830 1.434 . S
C1830 C1821 1.429 . S
C1830 N1827 1.350 . S
C1830 C1829 1.434 . S
C1831 C1832 1.369 . S
C1831 C1833 1.419 . S
C1831 H1835 0.930 . S
C1832 C1831 1.369 . S
C1832 C1841 1.429 . S
C1833 C1831 1.419 . S
C1833 C1834 1.363 . S
C1833 H1836 0.929 . S
C1834 C1833 1.363 . S
C1834 C1840 1.428 . S
H1835 C1831 0.930 . S
H1836 C1833 0.929 . S
S1837 N1838 1.613 . S
S1837 N1839 1.610 . S
N1838 S1837 1.613 . S
N1838 C1841 1.350 . S
N1839 S1837 1.610 . S
N1839 C1840 1.351 . S
C1840 C1834 1.428 . S
C1840 N1839 1.351 . S
C1840 C1841 1.434 . S
C1841 C1832 1.429 . S
C1841 N1838 1.350 . S
C1841 C1840 1.434 . S
C1842 C1843 1.369 . S
C1842 C1844 1.419 . S
C1842 H1846 0.930 . S
C1843 C1842 1.369 . S
C1843 C1852 1.429 . S
C1844 C1842 1.419 . S
C1844 C1845 1.363 . S
C1844 H1847 0.929 . S
C1845 C1844 1.363 . S
C1845 C1851 1.428 . S
H1846 C1842 0.930 . S
H1847 C1844 0.929 . S
S1848 N1849 1.613 . S
S1848 N1850 1.610 . S
N1849 S1848 1.613 . S
N1849 C1852 1.350 . S
N1850 S1848 1.610 . S
N1850 C1851 1.351 . S
C1851 C1845 1.428 . S
C1851 N1850 1.351 . S
C1851 C1852 1.434 . S
C1852 C1843 1.429 . S
C1852 N1849 1.350 . S
C1852 C1851 1.434 . S
C1853 C1854 1.369 . S
C1853 C1855 1.419 . S
C1853 H1857 0.930 . S
C1854 C1853 1.369 . S
C1854 C1863 1.429 . S
C1855 C1853 1.419 . S
C1855 C1856 1.363 . S
C1855 H1858 0.929 . S
C1856 C1855 1.363 . S
C1856 C1862 1.428 . S
H1857 C1853 0.930 . S
H1858 C1855 0.929 . S
S1859 N1860 1.613 . S
S1859 N1861 1.610 . S
N1860 S1859 1.613 . S
N1860 C1863 1.350 . S
N1861 S1859 1.610 . S
N1861 C1862 1.351 . S
C1862 C1856 1.428 . S
C1862 N1861 1.351 . S
C1862 C1863 1.434 . S
C1863 C1854 1.429 . S
C1863 N1860 1.350 . S
C1863 C1862 1.434 . S
C1864 C1865 1.369 . S
C1864 C1866 1.419 . S
C1864 H1868 0.930 . S
C1865 C1864 1.369 . S
C1865 C1874 1.429 . S
C1866 C1864 1.419 . S
C1866 C1867 1.363 . S
C1866 H1869 0.929 . S
C1867 C1866 1.363 . S
C1867 C1873 1.428 . S
H1868 C1864 0.930 . S
H1869 C1866 0.929 . S
S1870 N1871 1.613 . S
S1870 N1872 1.610 . S
N1871 S1870 1.613 . S
N1871 C1874 1.350 . S
N1872 S1870 1.610 . S
N1872 C1873 1.351 . S
C1873 C1867 1.428 . S
C1873 N1872 1.351 . S
C1873 C1874 1.434 . S
C1874 C1865 1.429 . S
C1874 N1871 1.350 . S
C1874 C1873 1.434 . S
C1875 C1876 1.369 . S
C1875 C1877 1.419 . S
C1875 H1879 0.930 . S
C1876 C1875 1.369 . S
C1876 C1885 1.429 1_655 S
C1877 C1875 1.419 . S
C1877 C1878 1.363 . S
C1877 H1880 0.929 . S
C1878 C1877 1.363 . S
C1878 C1884 1.428 1_655 S
H1879 C1875 0.930 . S
H1880 C1877 0.929 . S
S1881 N1882 1.613 . S
S1881 N1883 1.610 . S
N1882 S1881 1.613 . S
N1882 C1885 1.350 . S
N1883 S1881 1.610 . S
N1883 C1884 1.351 . S
C1884 C1878 1.428 1_455 S
C1884 N1883 1.351 . S
C1884 C1885 1.434 . S
C1885 C1876 1.429 1_455 S
C1885 N1882 1.350 . S
C1885 C1884 1.434 . S
C1886 C1887 1.369 . S
C1886 C1888 1.419 . S
C1886 H1890 0.930 . S
C1887 C1886 1.369 . S
C1887 C1896 1.429 . S
C1888 C1886 1.419 . S
C1888 C1889 1.363 . S
C1888 H1891 0.929 . S
C1889 C1888 1.363 . S
C1889 C1895 1.428 . S
H1890 C1886 0.930 . S
H1891 C1888 0.929 . S
S1892 N1893 1.613 . S
S1892 N1894 1.610 . S
N1893 S1892 1.613 . S
N1893 C1896 1.350 . S
N1894 S1892 1.610 . S
N1894 C1895 1.351 . S
C1895 C1889 1.428 . S
C1895 N1894 1.351 . S
C1895 C1896 1.434 . S
C1896 C1887 1.429 . S
C1896 N1893 1.350 . S
C1896 C1895 1.434 . S
C1897 C1898 1.369 1_565 S
C1897 C1899 1.419 . S
C1897 H1901 0.930 . S
C1898 C1897 1.369 1_545 S
C1898 C1907 1.429 . S
C1899 C1897 1.419 . S
C1899 C1900 1.363 1_565 S
C1899 H1902 0.929 . S
C1900 C1899 1.363 1_545 S
C1900 C1906 1.428 . S
H1901 C1897 0.930 . S
H1902 C1899 0.929 . S
S1903 N1904 1.613 . S
S1903 N1905 1.610 . S
N1904 S1903 1.613 . S
N1904 C1907 1.350 . S
N1905 S1903 1.610 . S
N1905 C1906 1.351 . S
C1906 C1900 1.428 . S
C1906 N1905 1.351 . S
C1906 C1907 1.434 . S
C1907 C1898 1.429 . S
C1907 N1904 1.350 . S
C1907 C1906 1.434 . S
C1117 C7 1.480 . S
C1119 C729 1.495 . S
C1128 C23 1.623 . S
C1130 C777 1.611 . S
C1141 C825 1.509 . S
C1139 C37 1.489 . S
C1150 C35 1.486 . S
C1152 C849 1.509 . S
C1161 C9 1.485 . S
C1163 C921 1.516 . S
C1172 C21 1.585 . S
C1174 C969 1.624 . S
C1183 C49 1.484 . S
C1185 C897 1.504 . S
C1196 C945 1.614 . S
C1194 C65 1.627 . S
C1207 C873 1.515 . S
C1205 C79 1.502 1_565 S
C1216 C77 1.475 . S
C1218 C801 1.495 . S
C1229 C705 1.531 . S
C1227 C51 1.506 1_655 S
C1238 C63 1.590 . S
C1240 C753 1.621 . S
C1249 C91 1.640 . S
C1251 C1017 1.680 . S
C1260 C107 1.691 . S
C1262 C1065 1.666 . S
C1273 C1089 1.649 . S
C1271 C121 1.698 . S
C1282 C119 1.624 . S
C1284 C273 1.633 . S
C1293 C93 1.691 . S
C1295 C345 1.672 . S
C1304 C105 1.636 . S
C1306 C393 1.661 . S
C1315 C133 1.586 . S
C1317 C321 1.612 . S
C1326 C149 1.672 . S
C1328 C369 1.649 . S
C1339 C297 1.613 . S
C1337 C163 1.685 . S
C1350 C1113 1.665 . S
C1348 C161 1.676 . S
C1361 C993 1.665 . S
C1359 C135 1.693 . S
C1372 C1041 1.692 . S
C1370 C147 1.656 . S
C1381 C175 1.585 . S
C1383 C441 1.616 . S
C1392 C191 1.665 . S
C1394 C489 1.644 . S
C1403 C205 1.689 . S
C1405 C513 1.648 . S
C1414 C203 1.688 . S
C1416 C561 1.695 . S
C1427 C633 1.674 . S
C1425 C177 1.698 . S
C1438 C681 1.691 . S
C1436 C189 1.658 . S
C1449 C609 1.686 . S
C1447 C217 1.655 . S
C1460 C657 1.674 . S
C1458 C233 1.699 . S
C1469 C247 1.692 . S
C1471 C585 1.612 . S
C1482 C537 1.594 . S
C1480 C245 1.620 . S
C1491 C219 1.690 . S
C1493 C417 1.668 . S
C1504 C465 1.662 . S
C1502 C231 1.639 . S
C1515 C282 1.621 . S
C1513 C8 1.621 . S
C1524 C17 1.555 . S
C1526 C336 1.518 . S
C1537 C384 1.598 . S
C1535 C31 1.621 . S
C1548 C432 1.598 . S
C1546 C36 1.636 . S
C1559 C480 1.577 . S
C1557 C3 1.605 . S
C1570 C522 1.565 . S
C1568 C22 1.570 . S
C1579 C50 1.626 . S
C1581 C528 1.616 . S
C1590 C59 1.551 . S
C1592 C426 1.503 . S
C1601 C73 1.603 . S
C1603 C474 1.561 . S
C1612 C78 1.646 . S
C1614 C330 1.598 . S
C1625 C378 1.561 . S
C1623 C45 1.604 . S
C1634 C64 1.574 . S
C1636 C288 1.549 . S
C1647 C570 1.597 . S
C1645 C92 1.601 . S
C1656 C101 1.651 . S
C1658 C624 1.610 . S
C1667 C115 1.663 . S
C1669 C672 1.625 . S
C1680 C720 1.465 . S
C1678 C120 1.465 . S
C1689 C87 1.591 . S
C1691 C768 1.555 . S
C1700 C106 1.433 . S
C1702 C816 1.435 . S
C1711 C134 1.449 . S
C1713 C810 1.451 . S
C1722 C143 1.455 . S
C1724 C714 1.450 . S
C1735 C762 1.558 . S
C1733 C157 1.592 . S
C1744 C162 1.609 . S
C1746 C618 1.563 . S
C1755 C129 1.659 . S
C1757 C666 1.606 . S
C1768 C576 1.633 . S
C1766 C148 1.653 . S
C1779 C858 1.452 . S
C1777 C176 1.451 . S
C1788 C185 1.451 . S
C1790 C912 1.444 . S
C1799 C199 1.597 . S
C1801 C960 1.570 . S
C1812 C1008 1.568 . S
C1810 C204 1.604 . S
C1823 C1056 1.619 . S
C1821 C171 1.655 . S
C1832 C190 1.651 . S
C1834 C1098 1.649 . S
C1843 C218 1.605 . S
C1845 C1104 1.589 . S
C1854 C227 1.648 . S
C1856 C1002 1.594 . S
C1867 C1050 1.601 . S
C1865 C241 1.649 . S
C1878 C906 1.459 . S
C1876 C246 1.457 . S
C1889 C954 1.549 . S
C1887 C213 1.593 . S
C1898 C232 1.440 . S
C1900 C864 1.438 . S
