# Generated by pormake.
# Topology pth, (4,4)-cn, num edge types: 1
# Building blocks:
#     Node 0, Type 0, BuildingBlock: TATPOV_clean_sbu_0, # of connection points: 4
#     Node 1, Type 0, BuildingBlock: TATPOV_clean_sbu_0, # of connection points: 4
#     Node 2, Type 0, BuildingBlock: TATPOV_clean_sbu_0, # of connection points: 4
#     Node 3, Type 1, BuildingBlock: MUDLON_clean_linker_0, # of connection points: 4
#     Node 4, Type 1, BuildingBlock: MUDLON_clean_linker_0, # of connection points: 4
#     Node 5, Type 1, BuildingBlock: MUDLON_clean_linker_0, # of connection points: 4
#     Edge 6, Type (0, 1), BuildingBlock: TEMPAE_clean_linker_10, # of connection points: 2
#     Edge 7, Type (0, 1), BuildingBlock: TEMPAE_clean_linker_10, # of connection points: 2
#     Edge 8, Type (0, 1), BuildingBlock: TEMPAE_clean_linker_10, # of connection points: 2
#     Edge 9, Type (0, 1), BuildingBlock: TEMPAE_clean_linker_10, # of connection points: 2
#     Edge 10, Type (0, 1), BuildingBlock: TEMPAE_clean_linker_10, # of connection points: 2
#     Edge 11, Type (0, 1), BuildingBlock: TEMPAE_clean_linker_10, # of connection points: 2
#     Edge 12, Type (0, 1), BuildingBlock: TEMPAE_clean_linker_10, # of connection points: 2
#     Edge 13, Type (0, 1), BuildingBlock: TEMPAE_clean_linker_10, # of connection points: 2
#     Edge 14, Type (0, 1), BuildingBlock: TEMPAE_clean_linker_10, # of connection points: 2
#     Edge 15, Type (0, 1), BuildingBlock: TEMPAE_clean_linker_10, # of connection points: 2
#     Edge 16, Type (0, 1), BuildingBlock: TEMPAE_clean_linker_10, # of connection points: 2
#     Edge 17, Type (0, 1), BuildingBlock: TEMPAE_clean_linker_10, # of connection points: 2
# Relax obj value: 0.054
# Max RMSD: 0.166
# Mean RMSD: 0.112
data_MOF--net-pth--node1-TATPOV_clean_sbu_0--node2-MUDLON_clean_linker_0--edge1-TEMPAE_clean_linker_10
_symmetry_space_group_name_H-M    P1
_symmetry_Int_Tables_number       1
_symmetry_cell_setting            triclinic
loop_
_symmetry_equiv_pos_as_xyz
'x, y, z'
_cell_length_a     34.098152
_cell_length_b     33.825944
_cell_length_c     66.75637
_cell_angle_alpha  92.444431
_cell_angle_beta   92.243788
_cell_angle_gamma 120.93289
loop_
_atom_site_label
_atom_site_type_symbol
_atom_site_fract_x
_atom_site_fract_y
_atom_site_fract_z
_atom_type_partial_charge
Zn0 Zn 0.10673 0.98399 0.02877 0.0
Zn1 Zn 0.08117 0.03832 0.04775 0.0
O2 O 0.08273 0.9977 0.06951 0.0
O3 O 0.10891 0.95708 0.05494 0.0
O4 O 0.06566 0.08101 0.06259 0.0
O5 O 0.16257 0.04034 0.01963 0.0
O6 O 0.14115 0.08371 0.03548 0.0
C7 C 0.09465 0.96769 0.0703 0.0
C8 C 0.01817 0.96895 0.0138 0.0
O9 O 0.02738 0.00179 0.02679 0.0
O10 O 0.04597 0.95487 0.01193 0.0
C11 C 0.02852 0.06538 0.07127 0.0
O12 O -3e-05 0.02047 0.07052 0.0
C13 C 0.16915 0.07996 0.02463 0.0
Zn14 Zn 0.11062 0.07837 0.34299 0.0
Zn15 Zn 0.04637 0.05983 0.36974 0.0
O16 O 0.10369 0.07791 0.388 0.0
O17 O 0.15715 0.09572 0.3667 0.0
O18 O 0.99898 0.05332 0.38851 0.0
O19 O 0.09994 0.12548 0.33049 0.0
O20 O 0.04816 0.10957 0.35243 0.0
C21 C 0.14509 0.09144 0.38458 0.0
C22 C 0.03342 0.9832 0.33985 0.0
O23 O 0.01949 0.99593 0.35484 0.0
O24 O 0.07012 0.01158 0.33219 0.0
C25 C 0.98594 0.02905 0.40358 0.0
O26 O 0.00396 0.00403 0.40811 0.0
C27 C 0.06971 0.13185 0.33772 0.0
Zn28 Zn 0.06732 0.93528 0.72869 0.0
Zn29 Zn 0.03299 0.97887 0.70767 0.0
O30 O 0.06727 0.96398 0.68693 0.0
O31 O 0.09387 0.92657 0.70333 0.0
O32 O 0.00044 0.00444 0.69198 0.0
O33 O 0.0042 0.88747 0.73654 0.0
O34 O 0.9785 0.92529 0.71996 0.0
C35 C 0.08998 0.9436 0.68735 0.0
C36 C 0.10316 0.03195 0.74267 0.0
O37 O 0.07719 0.03122 0.72822 0.0
O38 O 0.10432 0.99588 0.74596 0.0
C39 C 0.01504 0.02858 0.67694 0.0
O40 O 0.05553 0.03993 0.67094 0.0
C41 C 0.97124 0.89243 0.7308 0.0
H42 H 0.83781 0.64401 0.21533 0.0
N43 N 0.88628 0.60758 0.20308 0.0
H44 H 0.8526 0.69328 0.24567 0.0
H45 H 0.94581 0.6211 0.2352 0.0
H46 H 0.95833 0.66691 0.26653 0.0
H47 H 0.97957 0.66332 0.20367 0.0
H48 H 0.02217 0.72687 0.18229 0.0
H49 H 0.85249 0.63215 0.17281 0.0
H50 H 0.89441 0.69659 0.15182 0.0
H51 H 0.84276 0.53488 0.22543 0.0
H52 H 0.93518 0.584 0.17762 0.0
H53 H 0.84625 0.46476 0.2246 0.0
H54 H 0.93743 0.51388 0.17654 0.0
H55 H 0.86355 0.23185 0.21142 0.0
H56 H 0.89023 0.20876 0.24035 0.0
H57 H 0.98271 0.35271 0.26018 0.0
H58 H 0.95874 0.37517 0.23027 0.0
H59 H 0.98723 0.34405 0.19536 0.0
H60 H 0.01626 0.31333 0.16999 0.0
H61 H 0.87967 0.23061 0.14112 0.0
H62 H 0.85116 0.26239 0.16638 0.0
H63 H 0.82492 0.32466 0.2037 0.0
H64 H 0.82175 0.39533 0.20413 0.0
H65 H 0.96666 0.47427 0.19528 0.0
N66 N 0.89718 0.31611 0.19931 0.0
H67 H 0.96906 0.40348 0.19429 0.0
C68 C 0.89046 0.62882 0.22293 0.0
C69 C 0.86361 0.64833 0.22665 0.0
C70 C 0.872 0.67627 0.24417 0.0
C71 C 0.907 0.68464 0.25872 0.0
C72 C 0.93188 0.66239 0.25555 0.0
C73 C 0.92434 0.63552 0.2377 0.0
C74 C 0.91277 0.64271 0.18961 0.0
C75 C 0.96091 0.67014 0.19222 0.0
C76 C 0.98515 0.70669 0.18009 0.0
C77 C 0.96178 0.71699 0.16532 0.0
C78 C 0.91367 0.68921 0.16275 0.0
C79 C 0.88956 0.65243 0.17473 0.0
C80 C 0.89038 0.56672 0.20243 0.0
C81 C 0.86433 0.53116 0.21496 0.0
C82 C 0.86585 0.49064 0.21429 0.0
C83 C 0.89256 0.48385 0.20065 0.0
C84 C 0.91753 0.51852 0.18764 0.0
C85 C 0.91625 0.55918 0.18837 0.0
C86 C 0.90876 0.30502 0.21849 0.0
C87 C 0.88913 0.25836 0.22219 0.0
C88 C 0.90432 0.2453 0.23892 0.0
C89 C 0.93893 0.27878 0.2528 0.0
C90 C 0.95682 0.32578 0.24967 0.0
C91 C 0.94252 0.3388 0.23256 0.0
C92 C 0.91685 0.30544 0.1827 0.0
C93 C 0.96379 0.32041 0.18323 0.0
C94 C 0.98026 0.30241 0.16884 0.0
C95 C 0.95018 0.26912 0.15367 0.0
C96 C 0.90383 0.25645 0.15249 0.0
C97 C 0.88742 0.27449 0.16689 0.0
C98 C 0.89694 0.35858 0.1989 0.0
C99 C 0.85584 0.35726 0.20173 0.0
C100 C 0.85425 0.39773 0.20214 0.0
C101 C 0.89402 0.4406 0.19983 0.0
C102 C 0.93525 0.44182 0.19683 0.0
C103 C 0.93671 0.40124 0.19631 0.0
H104 H 0.81553 0.18104 0.5644 0.0
N105 N 0.73537 0.11978 0.54543 0.0
H106 H 0.85916 0.16687 0.59006 0.0
H107 H 0.70345 0.04049 0.56505 0.0
H108 H 0.74655 0.02601 0.59092 0.0
H109 H 0.70583 0.03222 0.52934 0.0
H110 H 0.74166 0.01207 0.50293 0.0
H111 H 0.79545 0.17677 0.52104 0.0
H112 H 0.83041 0.15702 0.4941 0.0
H113 H 0.69635 0.13039 0.57804 0.0
H114 H 0.66623 0.08439 0.51484 0.0
H115 H 0.62075 0.1201 0.57959 0.0
H116 H 0.5913 0.07547 0.51644 0.0
H117 H 0.40681 0.14578 0.57323 0.0
H118 H 0.34739 0.11008 0.59699 0.0
H119 H 0.33288 0.97768 0.58134 0.0
H120 H 0.39214 0.01377 0.55745 0.0
H121 H 0.36887 0.02933 0.52472 0.0
H122 H 0.32549 0.0313 0.49538 0.0
H123 H 0.41152 0.18029 0.49847 0.0
H124 H 0.45317 0.17787 0.52866 0.0
H125 H 0.51558 0.16362 0.567 0.0
H126 H 0.58613 0.16154 0.56708 0.0
H127 H 0.51515 0.03323 0.52983 0.0
N128 N 0.4351 0.1043 0.54825 0.0
H129 H 0.44479 0.03621 0.5296 0.0
C130 C 0.75649 0.11197 0.56279 0.0
C131 C 0.8 0.14744 0.57046 0.0
C132 C 0.82478 0.13925 0.58513 0.0
C133 C 0.80645 0.09519 0.59243 0.0
C134 C 0.76189 0.06011 0.58536 0.0
C135 C 0.73712 0.06837 0.57067 0.0
C136 C 0.74841 0.10619 0.52726 0.0
C137 C 0.73255 0.05956 0.52152 0.0
C138 C 0.75292 0.0481 0.50634 0.0
C139 C 0.78944 0.08301 0.49665 0.0
C140 C 0.80305 0.12937 0.50157 0.0
C141 C 0.7828 0.14075 0.51676 0.0
C142 C 0.68755 0.10648 0.54657 0.0
C143 C 0.67333 0.11676 0.56459 0.0
C144 C 0.63008 0.11154 0.56543 0.0
C145 C 0.59991 0.097 0.54813 0.0
C146 C 0.61336 0.08591 0.53015 0.0
C147 C 0.65668 0.09101 0.5293 0.0
C148 C 0.404 0.08265 0.56367 0.0
C149 C 0.39129 0.10922 0.57521 0.0
C150 C 0.35741 0.08874 0.58877 0.0
C151 C 0.33539 0.041 0.59103 0.0
C152 C 0.34891 0.01444 0.57978 0.0
C153 C 0.38303 0.0351 0.56623 0.0
C154 C 0.41397 0.10368 0.52904 0.0
C155 C 0.37873 0.06238 0.51901 0.0
C156 C 0.35406 0.06359 0.50207 0.0
C157 C 0.36456 0.10604 0.49462 0.0
C158 C 0.40171 0.14706 0.50404 0.0
C159 C 0.42593 0.1458 0.52113 0.0
C160 C 0.47516 0.10035 0.54831 0.0
C161 C 0.51531 0.13497 0.55896 0.0
C162 C 0.55544 0.13347 0.55908 0.0
C163 C 0.55629 0.09703 0.54854 0.0
C164 C 0.51574 0.06193 0.53797 0.0
C165 C 0.47543 0.06348 0.53789 0.0
H166 H 0.72445 0.74273 0.87286 0.0
N167 N 0.63698 0.72782 0.86939 0.0
H168 H 0.78399 0.79022 0.89906 0.0
H169 H 0.63038 0.77198 0.90203 0.0
H170 H 0.69047 0.81894 0.92895 0.0
H171 H 0.66039 0.67435 0.84623 0.0
H172 H 0.70167 0.69619 0.81605 0.0
H173 H 0.65329 0.79823 0.84769 0.0
H174 H 0.69491 0.82027 0.81709 0.0
H175 H 0.5467 0.68014 0.86107 0.0
H176 H 0.65785 0.66705 0.88596 0.0
H177 H 0.4932 0.59787 0.86479 0.0
H178 H 0.60482 0.58595 0.8903 0.0
H179 H 0.34853 0.38311 0.8978 0.0
H180 H 0.31306 0.34378 0.9275 0.0
H181 H 0.42184 0.31553 0.93808 0.0
H182 H 0.45785 0.35611 0.9084 0.0
H183 H 0.42494 0.32228 0.86065 0.0
H184 H 0.37075 0.2723 0.83275 0.0
H185 H 0.30295 0.35049 0.83591 0.0
H186 H 0.35759 0.40057 0.86367 0.0
H187 H 0.40501 0.45759 0.89113 0.0
H188 H 0.45663 0.5406 0.88942 0.0
H189 H 0.56132 0.51589 0.8688 0.0
N190 N 0.42466 0.38987 0.882 0.0
H191 H 0.50967 0.43292 0.87105 0.0
C192 C 0.67277 0.75443 0.88517 0.0
C193 C 0.71646 0.75952 0.88478 0.0
C194 C 0.75065 0.78668 0.89982 0.0
C195 C 0.74187 0.80861 0.91582 0.0
C196 C 0.698 0.80247 0.91667 0.0
C197 C 0.66384 0.77582 0.90136 0.0
C198 C 0.65355 0.73483 0.84943 0.0
C199 C 0.66629 0.70556 0.8398 0.0
C200 C 0.69002 0.71807 0.82239 0.0
C201 C 0.70183 0.7601 0.81428 0.0
C202 C 0.68666 0.78787 0.82314 0.0
C203 C 0.66268 0.77524 0.84052 0.0
C204 C 0.60617 0.6801 0.87328 0.0
C205 C 0.55939 0.65973 0.86762 0.0
C206 C 0.52892 0.61284 0.86984 0.0
C207 C 0.5448 0.58532 0.87777 0.0
C208 C 0.59157 0.606 0.88386 0.0
C209 C 0.62197 0.65275 0.88159 0.0
C210 C 0.40601 0.3725 0.90084 0.0
C211 C 0.36544 0.3695 0.90668 0.0
C212 C 0.34493 0.34663 0.92364 0.0
C213 C 0.36441 0.32617 0.93504 0.0
C214 C 0.4062 0.33128 0.92974 0.0
C215 C 0.42671 0.35424 0.91278 0.0
C216 C 0.39517 0.36478 0.86431 0.0
C217 C 0.39884 0.32902 0.85506 0.0
C218 C 0.368 0.30071 0.83912 0.0
C219 C 0.33258 0.3075 0.8322 0.0
C220 C 0.32971 0.34429 0.84107 0.0
C221 C 0.36095 0.37293 0.85693 0.0
C222 C 0.45377 0.43905 0.88133 0.0
C223 C 0.43905 0.46992 0.88634 0.0
C224 C 0.46857 0.51748 0.88524 0.0
C225 C 0.5132 0.53493 0.87908 0.0
C226 C 0.52752 0.50376 0.87397 0.0
C227 C 0.49806 0.45638 0.87512 0.0
C228 C 0.97791 0.07999 0.09264 0.0
C229 C 0.0179 0.09736 0.08228 0.0
C230 C 0.96788 0.10979 0.1035 0.0
C231 C 0.99851 0.15816 0.10399 0.0
C232 C 0.03862 0.17599 0.09335 0.0
C233 C 0.04787 0.14538 0.08265 0.0
C234 C 0.92479 0.08945 0.11469 0.0
C235 C 0.07204 0.22736 0.0935 0.0
C236 C 0.95095 0.23373 0.11991 0.0
C237 C 0.96595 0.24445 0.14036 0.0
C238 C 0.96232 0.2067 0.10772 0.0
C239 C 0.98917 0.18988 0.11621 0.0
C240 C 0.00546 0.20166 0.13669 0.0
C241 C 0.99366 0.22876 0.1485 0.0
C242 C 0.94462 0.19515 0.0859 0.0
C243 C 0.03408 0.18432 0.14632 0.0
H244 H 0.95453 0.04298 0.09243 0.0
H245 H 0.0788 0.15916 0.07465 0.0
H246 H 0.93383 0.0992 0.13103 0.0
H247 H 0.90337 0.10365 0.10969 0.0
H248 H 0.904 0.05115 0.11241 0.0
H249 H 0.10079 0.23573 0.08386 0.0
H250 H 0.05412 0.24499 0.08819 0.0
H251 H 0.08646 0.24174 0.10908 0.0
H252 H 0.9299 0.24612 0.11349 0.0
H253 H 0.00477 0.23623 0.16435 0.0
H254 H 0.92069 0.15734 0.08316 0.0
H255 H 0.97338 0.20484 0.07614 0.0
H256 H 0.9264 0.21306 0.08133 0.0
H257 H 0.01369 0.14606 0.14612 0.0
H258 H 0.04607 0.1986 0.16213 0.0
H259 H 0.06442 0.19365 0.13766 0.0
C260 C 0.94012 0.00787 0.43403 0.0
C261 C 0.95245 0.03129 0.41639 0.0
C262 C 0.9107 0.01244 0.44685 0.0
C263 C 0.89329 0.04111 0.44188 0.0
C264 C 0.90444 0.06361 0.42378 0.0
C265 C 0.93381 0.05842 0.41127 0.0
C266 C 0.89943 0.98778 0.466 0.0
C267 C 0.88662 0.09451 0.41794 0.0
C268 C 0.79293 0.03382 0.46821 0.0
C269 C 0.81551 0.0716 0.48255 0.0
C270 C 0.81776 0.02294 0.45503 0.0
C271 C 0.86624 0.05047 0.45626 0.0
C272 C 0.88916 0.08829 0.47085 0.0
C273 C 0.86356 0.0983 0.48382 0.0
C274 C 0.79216 0.98237 0.43964 0.0
C275 C 0.94081 0.11847 0.47269 0.0
H276 H 0.95418 0.9867 0.43807 0.0
H277 H 0.94287 0.07646 0.39761 0.0
H278 H 0.91446 0.0135 0.47915 0.0
H279 H 0.86178 0.96761 0.46714 0.0
H280 H 0.91279 0.96404 0.46693 0.0
H281 H 0.89605 0.1071 0.40276 0.0
H282 H 0.84875 0.07577 0.4182 0.0
H283 H 0.90076 0.12487 0.42901 0.0
H284 H 0.75582 0.01316 0.4671 0.0
H285 H 0.88133 0.12689 0.49516 0.0
H286 H 0.80461 0.95804 0.44116 0.0
H287 H 0.79878 0.99457 0.42428 0.0
H288 H 0.75457 0.96334 0.44114 0.0
H289 H 0.95634 0.09713 0.47539 0.0
H290 H 0.95338 0.14603 0.48509 0.0
H291 H 0.95312 0.135 0.45842 0.0
C292 C 0.88853 0.86815 0.73185 0.0
C293 C 0.92553 0.86378 0.73864 0.0
C294 C 0.84733 0.84724 0.74143 0.0
C295 C 0.84327 0.8218 0.75831 0.0
C296 C 0.87937 0.81482 0.76442 0.0
C297 C 0.91998 0.83569 0.75444 0.0
C298 C 0.80928 0.85477 0.73426 0.0
C299 C 0.8764 0.78795 0.78238 0.0
C300 C 0.77245 0.82246 0.80047 0.0
C301 C 0.73452 0.77727 0.79827 0.0
C302 C 0.80725 0.83777 0.78712 0.0
C303 C 0.80396 0.80722 0.77107 0.0
C304 C 0.76475 0.76224 0.76818 0.0
C305 C 0.73055 0.74766 0.78192 0.0
C306 C 0.84864 0.88598 0.79079 0.0
C307 C 0.75973 0.72898 0.75107 0.0
H308 H 0.89231 0.8894 0.71951 0.0
H309 H 0.94827 0.83193 0.75974 0.0
H310 H 0.77575 0.82185 0.73334 0.0
H311 H 0.80718 0.87916 0.74518 0.0
H312 H 0.81495 0.8693 0.71931 0.0
H313 H 0.90546 0.78197 0.78401 0.0
H314 H 0.87655 0.80729 0.79626 0.0
H315 H 0.84387 0.75404 0.78116 0.0
H316 H 0.77609 0.84526 0.81325 0.0
H317 H 0.70108 0.7128 0.78009 0.0
H318 H 0.85461 0.90501 0.77703 0.0
H319 H 0.87958 0.88399 0.79444 0.0
H320 H 0.84484 0.90615 0.80333 0.0
H321 H 0.76637 0.74585 0.73667 0.0
H322 H 0.72507 0.69732 0.74959 0.0
H323 H 0.78547 0.71862 0.75357 0.0
C324 C 0.05394 0.93754 0.10147 0.0
C325 C 0.08585 0.94033 0.08809 0.0
C326 C 0.03806 0.90461 0.11587 0.0
C327 C 0.05504 0.87431 0.1171 0.0
C328 C 0.08998 0.87955 0.10475 0.0
C329 C 0.10473 0.91228 0.09028 0.0
C330 C 0.00062 0.89999 0.1287 0.0
C331 C 0.10971 0.84862 0.10592 0.0
C332 C 0.02458 0.79888 0.16136 0.0
C333 C 0.98714 0.75698 0.15287 0.0
C334 C 0.04763 0.83725 0.14987 0.0
C335 C 0.03247 0.83385 0.12949 0.0
C336 C 0.99502 0.7916 0.12079 0.0
C337 C 0.97312 0.75366 0.13252 0.0
C338 C 0.0878 0.88156 0.15957 0.0
C339 C 0.97771 0.78656 0.0991 0.0
H340 H 0.03915 0.95905 0.09987 0.0
H341 H 0.12977 0.91459 0.08013 0.0
H342 H 0.96813 0.86746 0.12383 0.0
H343 H 0.00905 0.89797 0.14469 0.0
H344 H 0.99483 0.9293 0.12756 0.0
H345 H 0.14092 0.86136 0.09745 0.0
H346 H 0.11844 0.84591 0.12179 0.0
H347 H 0.08378 0.81331 0.09955 0.0
H348 H 0.03537 0.80204 0.17713 0.0
H349 H 0.94488 0.72125 0.1257 0.0
H350 H 0.07965 0.90937 0.15973 0.0
H351 H 0.11822 0.89289 0.15072 0.0
H352 H 0.09688 0.8778 0.17526 0.0
H353 H 0.96746 0.8123 0.09651 0.0
H354 H 0.94786 0.75151 0.09469 0.0
H355 H 0.00542 0.79351 0.08908 0.0
C356 C 0.22572 0.12311 0.39853 0.0
C357 C 0.17862 0.09911 0.40132 0.0
C358 C 0.25766 0.12735 0.41368 0.0
C359 C 0.24206 0.10643 0.43191 0.0
C360 C 0.19465 0.083 0.43499 0.0
C361 C 0.16353 0.07997 0.41972 0.0
C362 C 0.30802 0.15342 0.41001 0.0
C363 C 0.17665 0.05981 0.45415 0.0
C364 C 0.31629 0.07313 0.46197 0.0
C365 C 0.33525 0.10759 0.47788 0.0
C366 C 0.28608 0.07248 0.44688 0.0
C367 C 0.2751 0.10757 0.44749 0.0
C368 C 0.295 0.14314 0.46317 0.0
C369 C 0.32448 0.1425 0.47825 0.0
C370 C 0.26529 0.03377 0.43046 0.0
C371 C 0.28456 0.18147 0.46419 0.0
H372 H 0.23765 0.13826 0.3844 0.0
H373 H 0.12717 0.06116 0.42194 0.0
H374 H 0.32777 0.18039 0.4224 0.0
H375 H 0.32112 0.12943 0.40978 0.0
H376 H 0.31477 0.17016 0.39555 0.0
H377 H 0.13898 0.04417 0.45444 0.0
H378 H 0.18481 0.03225 0.45582 0.0
H379 H 0.19363 0.08511 0.46735 0.0
H380 H 0.32491 0.04644 0.46133 0.0
H381 H 0.33818 0.16885 0.49062 0.0
H382 H 0.27401 0.04811 0.41555 0.0
H383 H 0.22737 0.01448 0.43059 0.0
H384 H 0.27732 0.00909 0.43215 0.0
H385 H 0.29181 0.1986 0.44986 0.0
H386 H 0.30488 0.20799 0.4767 0.0
H387 H 0.24762 0.1669 0.46628 0.0
C388 C 0.1404 0.11776 0.74972 0.0
C389 C 0.13335 0.07519 0.75537 0.0
C390 C 0.17119 0.15912 0.76113 0.0
C391 C 0.19512 0.15772 0.77864 0.0
C392 C 0.18724 0.11476 0.78466 0.0
C393 C 0.15662 0.07411 0.77294 0.0
C394 C 0.17891 0.20435 0.75421 0.0
C395 C 0.21177 0.11174 0.80335 0.0
C396 C 0.30964 0.2586 0.79978 0.0
C397 C 0.29706 0.27405 0.81679 0.0
C398 C 0.27644 0.22244 0.78652 0.0
C399 C 0.22961 0.20101 0.79048 0.0
C400 C 0.21653 0.21808 0.80705 0.0
C401 C 0.25046 0.25454 0.81999 0.0
C402 C 0.29172 0.2056 0.76887 0.0
C403 C 0.16698 0.19603 0.81182 0.0
H404 H 0.12263 0.11892 0.73614 0.0
H405 H 0.15118 0.04138 0.7775 0.0
H406 H 0.17307 0.22352 0.76647 0.0
H407 H 0.21503 0.22632 0.75045 0.0
H408 H 0.15607 0.19937 0.7408 0.0
H409 H 0.20046 0.07549 0.80637 0.0
H410 H 0.24927 0.1307 0.80175 0.0
H411 H 0.2057 0.12833 0.8166 0.0
H412 H 0.34563 0.27406 0.79714 0.0
H413 H 0.24062 0.26613 0.83322 0.0
H414 H 0.27131 0.20235 0.75488 0.0
H415 H 0.28584 0.17078 0.77136 0.0
H416 H 0.32864 0.22905 0.76663 0.0
H417 H 0.14511 0.19176 0.79819 0.0
H418 H 0.16201 0.21662 0.82377 0.0
H419 H 0.15491 0.16107 0.81697 0.0
C420 C 0.94127 0.02732 0.67184 0.0
C421 C 0.98519 0.04123 0.66569 0.0
C422 C 0.91155 0.0368 0.66081 0.0
C423 C 0.92604 0.06082 0.6432 0.0
C424 C 0.97061 0.07578 0.63711 0.0
C425 C 0.99966 0.0658 0.64843 0.0
C426 C 0.86428 0.02027 0.66778 0.0
C427 C 0.9873 0.1016 0.61842 0.0
C428 C 0.83587 0.04446 0.60306 0.0
C429 C 0.83501 0.08526 0.6063 0.0
C430 C 0.86496 0.03589 0.61511 0.0
C431 C 0.89401 0.06894 0.63076 0.0
C432 C 0.89279 0.10983 0.63434 0.0
C433 C 0.86329 0.1175 0.62207 0.0
C434 C 0.86524 0.99183 0.61082 0.0
C435 C 0.92308 0.14575 0.65097 0.0
H436 H 0.92975 0.00837 0.68518 0.0
H437 H 0.03351 0.07673 0.64357 0.0
H438 H 0.85865 0.04968 0.6697 0.0
H439 H 0.83795 0.99503 0.65623 0.0
H440 H 0.85889 0.00358 0.68222 0.0
H441 H 0.02343 0.11225 0.61612 0.0
H442 H 0.9654 0.07948 0.60504 0.0
H443 H 0.98453 0.13289 0.61933 0.0
H444 H 0.81469 0.01973 0.59071 0.0
H445 H 0.86244 0.14886 0.62479 0.0
H446 H 0.85786 0.97236 0.62451 0.0
H447 H 0.89974 0.0002 0.60665 0.0
H448 H 0.83966 0.96909 0.59845 0.0
H449 H 0.91667 0.12991 0.66561 0.0
H450 H 0.91735 0.17524 0.65205 0.0
H451 H 0.95963 0.15922 0.64836 0.0
C452 C 0.948 0.96725 -0.00034 0.0
C453 C 0.97494 0.94693 0.00082 0.0
C454 C 0.90775 0.94719 0.98687 0.0
C455 C 0.89395 0.90563 0.97518 0.0
C456 C 0.92041 0.88442 0.97668 0.0
C457 C 0.96068 0.90545 0.98938 0.0
C458 C 0.8806 0.97099 0.98549 0.0
C459 C 0.90659 0.83982 0.96461 0.0
C460 C 0.77262 0.82813 0.95177 0.0
C461 C 0.77885 0.83744 0.93152 0.0
C462 C 0.80946 0.85143 0.9664 0.0
C463 C 0.85316 0.88516 0.96058 0.0
C464 C 0.85882 0.89641 0.9403 0.0
C465 C 0.82164 0.87211 0.92598 0.0
C466 C 0.80223 0.83819 0.98784 0.0
C467 C 0.90464 0.93265 0.93354 0.0
H468 H 0.9588 -0.00069 0.00845 0.0
H469 H 0.98104 0.88928 0.99032 0.0
H470 H 0.88065 0.98187 0.97004 0.0
H471 H 0.84437 0.94674 0.98848 0.0
H472 H 0.89474 0.00192 0.99626 0.0
H473 H 0.92959 0.82654 0.9683 0.0
H474 H 0.87099 0.81298 0.96739 0.0
H475 H 0.90727 0.84525 0.94832 0.0
H476 H 0.73951 0.8011 0.95599 0.0
H477 H 0.82622 0.87954 0.91032 0.0
H478 H 0.8161 0.86944 0.99835 0.0
H479 H 0.82112 0.82056 0.9917 0.0
H480 H 0.76543 0.81467 0.99028 0.0
H481 H 0.91907 0.96507 0.94334 0.0
H482 H 0.90217 0.94053 0.91772 0.0
H483 H 0.92916 0.92042 0.93485 0.0
C484 C 0.99106 0.89784 0.34278 0.0
C485 C 0.00683 0.93546 0.33084 0.0
C486 C 0.97089 0.85255 0.33389 0.0
C487 C 0.96533 0.84509 0.31265 0.0
C488 C 0.97885 0.88299 0.30066 0.0
C489 C 0.00019 0.92778 0.30991 0.0
C490 C 0.95806 0.81323 0.34715 0.0
C491 C 0.97234 0.87648 0.27799 0.0
C492 C 0.96695 0.74908 0.2825 0.0
C493 C 0.92056 0.72028 0.27579 0.0
C494 C 0.98137 0.78758 0.29607 0.0
C495 C 0.94896 0.79862 0.30262 0.0
C496 C 0.90183 0.76826 0.29702 0.0
C497 C 0.88813 0.72903 0.28395 0.0
C498 C 0.03188 0.81836 0.30218 0.0
C499 C 0.86621 0.77905 0.3035 0.0
H500 H 0.99664 0.90405 0.359 0.0
H501 H 0.01215 0.95703 0.30073 0.0
H502 H 0.92332 0.78359 0.34245 0.0
H503 H 0.98244 0.80096 0.34561 0.0
H504 H 0.95901 0.82376 0.36324 0.0
H505 H 0.98025 0.90881 0.27103 0.0
H506 H 0.99511 0.86496 0.2721 0.0
H507 H 0.93651 0.84927 0.27315 0.0
H508 H 0.99269 0.74341 0.27632 0.0
H509 H 0.85205 0.70635 0.27947 0.0
H510 H 0.03738 0.82874 0.31851 0.0
H511 H 0.04614 0.85034 0.29404 0.0
H512 H 0.05138 0.80115 0.29866 0.0
H513 H 0.87173 0.79001 0.31976 0.0
H514 H 0.83081 0.749 0.3004 0.0
H515 H 0.86931 0.8082 0.29523 0.0
C516 C 0.14501 0.92613 0.67121 0.0
C517 C 0.11726 0.9456 0.67023 0.0
C518 C 0.1776 0.93529 0.65711 0.0
C519 C 0.18262 0.96467 0.64169 0.0
C520 C 0.15248 0.98164 0.63975 0.0
C521 C 0.12008 0.97181 0.65402 0.0
C522 C 0.2087 0.91604 0.65954 0.0
C523 C 0.15653 0.01286 0.62344 0.0
C524 C 0.30094 0.0411 0.62344 0.0
C525 C 0.29738 0.01917 0.60458 0.0
C526 C 0.26409 0.02314 0.63576 0.0
C527 C 0.22259 0.98208 0.62913 0.0
C528 C 0.21915 0.95893 0.61038 0.0
C529 C 0.25662 0.97779 0.59831 0.0
C530 C 0.26928 0.04875 0.65572 0.0
C531 C 0.17553 0.915 0.60285 0.0
H532 H 0.14285 0.90548 0.68357 0.0
H533 H 0.09863 0.98678 0.65303 0.0
H534 H 0.21151 0.90124 0.6449 0.0
H535 H 0.24364 0.94434 0.66497 0.0
H536 H 0.1964 0.8889 0.67045 0.0
H537 H 0.12738 0.01882 0.62258 0.0
H538 H 0.18879 0.04677 0.62643 0.0
H539 H 0.15816 0.99792 0.6086 0.0
H540 H 0.33259 0.07268 0.6285 0.0
H541 H 0.25348 0.9609 0.58366 0.0
H542 H 0.26201 0.02547 0.66806 0.0
H543 H 0.24407 0.0602 0.65588 0.0
H544 H 0.3042 0.07955 0.65889 0.0
H545 H 0.16449 0.88929 0.61435 0.0
H546 H 0.17952 0.8994 0.58867 0.0
H547 H 0.14769 0.92239 0.60013 0.0
C548 C 0.23414 0.11636 0.00232 0.0
C549 C 0.20632 0.12124 0.01594 0.0
C550 C 0.26418 0.15332 0.99137 0.0
C551 C 0.26667 0.19628 0.99418 0.0
C552 C 0.24116 0.20242 0.00892 0.0
C553 C 0.21119 0.16477 0.01962 0.0
C554 C 0.29091 0.14538 0.97583 0.0
C555 C 0.24332 0.24788 0.01251 0.0
C556 C 0.362 0.29714 0.9693 0.0
C557 C 0.33911 0.29594 0.95114 0.0
C558 C 0.33863 0.2659 0.98384 0.0
C559 C 0.29144 0.23255 0.98 0.0
C560 C 0.26799 0.23198 0.96192 0.0
C561 C 0.29208 0.26366 0.94774 0.0
C562 C 0.36463 0.26778 0.00303 0.0
C563 C 0.2177 0.1968 0.95719 0.0
H564 H 0.23096 0.08301 -0.00052 0.0
H565 H 0.19014 0.16903 0.03022 0.0
H566 H 0.27711 0.14585 0.96056 0.0
H567 H 0.32745 0.17343 0.97742 0.0
H568 H 0.28895 0.11174 0.97697 0.0
H569 H 0.22673 0.24909 0.02633 0.0
H570 H 0.2794 0.27703 0.01379 0.0
H571 H 0.22561 0.25317 -0.00047 0.0
H572 H 0.39828 0.32229 0.97206 0.0
H573 H 0.27433 0.26199 0.93361 0.0
H574 H 0.36623 0.23589 0.00348 0.0
H575 H 0.34655 0.26924 0.01625 0.0
H576 H 0.40017 0.29808 0.00445 0.0
H577 H 0.21236 0.16151 0.9561 0.0
H578 H 0.20413 0.2023 0.94285 0.0
H579 H 0.19739 0.19827 0.96946 0.0
C580 C 0.03916 0.18512 0.33854 0.0
C581 C 0.05573 0.16108 0.32764 0.0
C582 C 0.02235 0.20988 0.32866 0.0
C583 C 0.02035 0.20876 0.3074 0.0
C584 C 0.03756 0.18488 0.2964 0.0
C585 C 0.05581 0.16206 0.30669 0.0
C586 C 0.0061 0.23656 0.34093 0.0
C587 C 0.03493 0.18174 0.27369 0.0
C588 C 0.93119 0.22221 0.27797 0.0
C589 C 0.95851 0.2644 0.26941 0.0
C590 C 0.95061 0.20442 0.291 0.0
C591 C 0.99828 0.23035 0.29637 0.0
C592 C 0.02542 0.27473 0.2893 0.0
C593 C 0.00546 0.29084 0.27561 0.0
C594 C 0.92055 0.15652 0.29791 0.0
C595 C 0.07608 0.30421 0.2953 0.0
H596 H 0.03932 0.18451 0.35477 0.0
H597 H 0.06815 0.14302 0.29824 0.0
H598 H 0.02143 0.2722 0.33605 0.0
H599 H 0.96837 0.21979 0.33849 0.0
H600 H 0.015 0.23848 0.35727 0.0
H601 H 0.04944 0.16141 0.26742 0.0
H602 H 0.99866 0.16527 0.26773 0.0
H603 H 0.05376 0.21681 0.26815 0.0
H604 H 0.89467 0.20209 0.27394 0.0
H605 H 0.02735 0.32327 0.26912 0.0
H606 H 0.92441 0.15699 0.31449 0.0
H607 H 0.93138 0.13311 0.29147 0.0
H608 H 0.88374 0.14187 0.29326 0.0
H609 H 0.08279 0.30375 0.31167 0.0
H610 H 0.09039 0.34061 0.29157 0.0
H611 H 0.09467 0.29012 0.2873 0.0
loop_
_geom_bond_atom_site_label_1
_geom_bond_atom_site_label_2
_geom_bond_distance
_geom_bond_site_symmetry_2
_ccdc_geom_bond_type
Zn0 O3 2.035 . S
Zn0 O5 2.039 1_565 S
Zn0 O10 2.061 . S
Zn1 O2 1.962 . S
Zn1 O4 1.986 . S
Zn1 O6 1.996 . S
Zn1 O9 1.943 . S
O2 Zn1 1.962 . S
O2 C7 1.254 1_545 S
O3 Zn0 2.035 . S
O3 C7 1.269 . S
O4 Zn1 1.986 . S
O4 C11 1.262 . S
O5 Zn0 2.039 1_545 S
O5 C13 1.260 . S
O6 Zn1 1.996 . S
O6 C13 1.257 . S
C7 O2 1.254 1_565 S
C7 O3 1.269 . S
C8 O9 1.249 1_665 S
C8 O10 1.270 1_655 S
O9 Zn1 1.943 . S
O9 C8 1.249 1_445 S
O10 Zn0 2.061 . S
O10 C8 1.270 1_455 S
C11 O4 1.262 . S
C11 O12 1.232 . S
O12 C11 1.232 . S
C13 O5 1.260 . S
C13 O6 1.257 . S
Zn14 O17 2.031 . S
Zn14 O19 2.049 . S
Zn14 O24 2.067 . S
Zn15 O16 1.962 . S
Zn15 O18 1.986 1_455 S
Zn15 O20 1.996 . S
Zn15 O23 1.943 1_455 S
O16 Zn15 1.962 . S
O16 C21 1.254 . S
O17 Zn14 2.031 . S
O17 C21 1.269 . S
O18 Zn15 1.986 1_655 S
O18 C25 1.262 . S
O19 Zn14 2.049 . S
O19 C27 1.260 . S
O20 Zn15 1.996 . S
O20 C27 1.257 . S
C21 O16 1.254 . S
C21 O17 1.269 . S
C22 O23 1.249 1_465 S
C22 O24 1.270 1_565 S
O23 Zn15 1.943 1_655 S
O23 C22 1.249 1_645 S
O24 Zn14 2.067 . S
O24 C22 1.270 1_545 S
C25 O18 1.262 . S
C25 O26 1.232 . S
O26 C25 1.232 . S
C27 O19 1.260 . S
C27 O20 1.257 . S
Zn28 O31 2.031 1_565 S
Zn28 O33 2.049 . S
Zn28 O38 2.067 1_565 S
Zn29 O30 1.962 1_545 S
Zn29 O32 1.986 1_445 S
Zn29 O34 1.996 1_445 S
Zn29 O37 1.943 . S
O30 Zn29 1.962 1_565 S
O30 C35 1.254 . S
O31 Zn28 2.031 1_545 S
O31 C35 1.269 1_545 S
O32 Zn29 1.986 1_665 S
O32 C39 1.262 1_565 S
O33 Zn28 2.049 . S
O33 C41 1.260 1_455 S
O34 Zn29 1.996 1_665 S
O34 C41 1.257 . S
C35 O30 1.254 . S
C35 O31 1.269 1_565 S
C36 O37 1.249 . S
C36 O38 1.270 . S
O37 Zn29 1.943 . S
O37 C36 1.249 . S
O38 Zn28 2.067 1_545 S
O38 C36 1.270 . S
C39 O32 1.262 1_545 S
C39 O40 1.232 . S
O40 C39 1.232 . S
C41 O33 1.260 1_655 S
C41 O34 1.257 . S
H42 C69 0.929 . S
N43 C68 1.433 . S
N43 C74 1.435 . S
N43 C80 1.423 . S
H44 C70 0.954 . S
H45 C73 0.931 . S
H46 C72 0.929 . S
H47 C75 0.930 . S
H48 C76 0.932 . S
H49 C79 0.929 . S
H50 C78 0.931 1_655 S
H51 C81 0.929 . S
H52 C85 0.932 . S
H53 C82 0.931 . S
H54 C84 0.929 . S
H55 C87 0.929 . S
H56 C88 0.928 . S
H57 C90 0.929 . S
H58 C91 0.931 . S
H59 C93 0.930 . S
H60 C94 0.932 . S
H61 C96 0.931 1_655 S
H62 C97 0.929 . S
H63 C99 0.929 . S
H64 C100 0.931 . S
H65 C102 0.929 . S
N66 C86 1.433 . S
N66 C92 1.435 . S
N66 C98 1.423 . S
H67 C103 0.932 . S
C68 N43 1.433 . S
C68 C69 1.363 1_455 S
C68 C73 1.370 . S
C69 H42 0.929 . S
C69 C68 1.363 1_655 S
C69 C70 1.381 . S
C70 H44 0.954 . S
C70 C69 1.381 . S
C70 C71 1.338 1_655 S
C71 C70 1.338 1_455 S
C71 C72 1.406 . S
C72 H46 0.929 . S
C72 C71 1.406 . S
C72 C73 1.391 . S
C73 H45 0.931 . S
C73 C68 1.370 . S
C73 C72 1.391 . S
C74 N43 1.435 . S
C74 C75 1.358 . S
C74 C79 1.371 1_455 S
C75 H47 0.930 . S
C75 C74 1.358 . S
C75 C76 1.405 . S
C76 H48 0.932 . S
C76 C75 1.405 . S
C76 C77 1.383 . S
C77 C76 1.383 . S
C77 C78 1.393 . S
C78 H50 0.931 1_455 S
C78 C77 1.393 . S
C78 C79 1.382 1_455 S
C79 H49 0.929 . S
C79 C74 1.371 1_655 S
C79 C78 1.382 1_655 S
C80 N43 1.423 . S
C80 C81 1.362 1_455 S
C80 C85 1.388 . S
C81 H51 0.929 . S
C81 C80 1.362 1_655 S
C81 C82 1.376 . S
C82 H53 0.931 . S
C82 C81 1.376 . S
C82 C83 1.396 . S
C83 C82 1.396 . S
C83 C84 1.347 1_655 S
C83 C101 1.472 . S
C84 H54 0.929 . S
C84 C83 1.347 1_455 S
C84 C85 1.443 . S
C85 H52 0.932 . S
C85 C80 1.388 . S
C85 C84 1.443 . S
C86 N66 1.433 . S
C86 C87 1.363 1_455 S
C86 C91 1.370 . S
C87 H55 0.929 . S
C87 C86 1.363 1_655 S
C87 C88 1.391 . S
C88 H56 0.928 . S
C88 C87 1.391 . S
C88 C89 1.354 1_655 S
C89 C88 1.354 1_455 S
C89 C90 1.406 . S
C90 H57 0.929 . S
C90 C89 1.406 . S
C90 C91 1.391 . S
C91 H58 0.931 . S
C91 C86 1.370 . S
C91 C90 1.391 . S
C92 N66 1.435 . S
C92 C93 1.358 . S
C92 C97 1.371 1_455 S
C93 H59 0.930 . S
C93 C92 1.358 . S
C93 C94 1.405 . S
C94 H60 0.932 . S
C94 C93 1.405 . S
C94 C95 1.383 . S
C95 C94 1.383 . S
C95 C96 1.393 . S
C96 H61 0.931 1_455 S
C96 C95 1.393 . S
C96 C97 1.382 1_455 S
C97 H62 0.929 . S
C97 C92 1.371 1_655 S
C97 C96 1.382 1_655 S
C98 N66 1.423 . S
C98 C99 1.362 1_455 S
C98 C103 1.388 . S
C99 H63 0.929 . S
C99 C98 1.362 1_655 S
C99 C100 1.376 . S
C100 H64 0.931 . S
C100 C99 1.376 . S
C100 C101 1.396 . S
C101 C83 1.472 . S
C101 C100 1.396 . S
C101 C102 1.347 1_655 S
C102 H65 0.929 . S
C102 C101 1.347 1_455 S
C102 C103 1.443 . S
C103 H67 0.932 . S
C103 C98 1.388 . S
C103 C102 1.443 . S
H104 C131 0.929 . S
N105 C130 1.433 . S
N105 C136 1.435 . S
N105 C142 1.423 . S
H106 C132 0.930 . S
H107 C135 0.931 . S
H108 C134 0.929 1_565 S
H109 C137 0.930 1_565 S
H110 C138 0.932 1_565 S
H111 C141 0.929 . S
H112 C140 0.931 . S
H113 C143 0.929 . S
H114 C147 0.932 . S
H115 C144 0.931 . S
H116 C146 0.929 . S
H117 C149 0.929 . S
H118 C150 0.930 . S
H119 C152 0.929 1_565 S
H120 C153 0.931 . S
H121 C155 0.930 1_565 S
H122 C156 0.932 1_565 S
H123 C158 0.931 . S
H124 C159 0.929 . S
H125 C161 0.929 . S
H126 C162 0.931 . S
H127 C164 0.929 . S
N128 C148 1.433 . S
N128 C154 1.435 . S
N128 C160 1.423 . S
H129 C165 0.932 . S
C130 N105 1.433 . S
C130 C131 1.363 . S
C130 C135 1.370 . S
C131 H104 0.929 . S
C131 C130 1.363 . S
C131 C132 1.385 . S
C132 H106 0.930 . S
C132 C131 1.385 . S
C132 C133 1.357 . S
C133 C132 1.357 . S
C133 C134 1.406 . S
C134 H108 0.929 1_545 S
C134 C133 1.406 . S
C134 C135 1.391 . S
C135 H107 0.931 . S
C135 C130 1.370 . S
C135 C134 1.391 . S
C136 N105 1.435 . S
C136 C137 1.358 . S
C136 C141 1.371 . S
C137 H109 0.930 1_545 S
C137 C136 1.358 . S
C137 C138 1.405 . S
C138 H110 0.932 1_545 S
C138 C137 1.405 . S
C138 C139 1.383 . S
C139 C138 1.383 . S
C139 C140 1.393 . S
C140 H112 0.931 . S
C140 C139 1.393 . S
C140 C141 1.382 . S
C141 H111 0.929 . S
C141 C136 1.371 . S
C141 C140 1.382 . S
C142 N105 1.423 . S
C142 C143 1.362 . S
C142 C147 1.388 . S
C143 H113 0.929 . S
C143 C142 1.362 . S
C143 C144 1.376 . S
C144 H115 0.931 . S
C144 C143 1.376 . S
C144 C145 1.396 . S
C145 C144 1.396 . S
C145 C146 1.348 . S
C145 C163 1.472 . S
C146 H116 0.929 . S
C146 C145 1.348 . S
C146 C147 1.443 . S
C147 H114 0.932 . S
C147 C142 1.388 . S
C147 C146 1.443 . S
C148 N128 1.433 . S
C148 C149 1.363 . S
C148 C153 1.370 . S
C149 H117 0.929 . S
C149 C148 1.363 . S
C149 C150 1.385 . S
C150 H118 0.930 . S
C150 C149 1.385 . S
C150 C151 1.357 . S
C151 C150 1.357 . S
C151 C152 1.406 . S
C152 H119 0.929 1_545 S
C152 C151 1.406 . S
C152 C153 1.391 . S
C153 H120 0.931 . S
C153 C148 1.370 . S
C153 C152 1.391 . S
C154 N128 1.435 . S
C154 C155 1.358 . S
C154 C159 1.371 . S
C155 H121 0.930 1_545 S
C155 C154 1.358 . S
C155 C156 1.405 . S
C156 H122 0.932 1_545 S
C156 C155 1.405 . S
C156 C157 1.383 . S
C157 C156 1.383 . S
C157 C158 1.393 . S
C158 H123 0.931 . S
C158 C157 1.393 . S
C158 C159 1.382 . S
C159 H124 0.929 . S
C159 C154 1.371 . S
C159 C158 1.382 . S
C160 N128 1.423 . S
C160 C161 1.362 . S
C160 C165 1.388 . S
C161 H125 0.929 . S
C161 C160 1.362 . S
C161 C162 1.376 . S
C162 H126 0.931 . S
C162 C161 1.376 . S
C162 C163 1.396 . S
C163 C145 1.472 . S
C163 C162 1.396 . S
C163 C164 1.348 . S
C164 H127 0.929 . S
C164 C163 1.348 . S
C164 C165 1.443 . S
C165 H129 0.932 . S
C165 C160 1.388 . S
C165 C164 1.443 . S
H166 C193 0.929 . S
N167 C192 1.433 . S
N167 C198 1.435 . S
N167 C204 1.423 . S
H168 C194 0.930 . S
H169 C197 0.931 . S
H170 C196 0.929 . S
H171 C199 0.930 . S
H172 C200 0.932 . S
H173 C203 0.929 . S
H174 C202 0.931 . S
H175 C205 0.929 . S
H176 C209 0.932 . S
H177 C206 0.931 . S
H178 C208 0.929 . S
H179 C211 0.929 . S
H180 C212 0.930 . S
H181 C214 0.929 . S
H182 C215 0.931 . S
H183 C217 0.930 . S
H184 C218 0.932 . S
H185 C220 0.931 . S
H186 C221 0.929 . S
H187 C223 0.929 . S
H188 C224 0.931 . S
H189 C226 0.929 . S
N190 C210 1.433 . S
N190 C216 1.435 . S
N190 C222 1.423 . S
H191 C227 0.932 . S
C192 N167 1.433 . S
C192 C193 1.363 . S
C192 C197 1.370 . S
C193 H166 0.929 . S
C193 C192 1.363 . S
C193 C194 1.385 . S
C194 H168 0.930 . S
C194 C193 1.385 . S
C194 C195 1.357 . S
C195 C194 1.357 . S
C195 C196 1.406 . S
C196 H170 0.929 . S
C196 C195 1.406 . S
C196 C197 1.391 . S
C197 H169 0.931 . S
C197 C192 1.370 . S
C197 C196 1.391 . S
C198 N167 1.435 . S
C198 C199 1.358 . S
C198 C203 1.371 . S
C199 H171 0.930 . S
C199 C198 1.358 . S
C199 C200 1.405 . S
C200 H172 0.932 . S
C200 C199 1.405 . S
C200 C201 1.383 . S
C201 C200 1.383 . S
C201 C202 1.393 . S
C202 H174 0.931 . S
C202 C201 1.393 . S
C202 C203 1.382 . S
C203 H173 0.929 . S
C203 C198 1.371 . S
C203 C202 1.382 . S
C204 N167 1.423 . S
C204 C205 1.362 . S
C204 C209 1.388 . S
C205 H175 0.929 . S
C205 C204 1.362 . S
C205 C206 1.376 . S
C206 H177 0.931 . S
C206 C205 1.376 . S
C206 C207 1.396 . S
C207 C206 1.396 . S
C207 C208 1.348 . S
C207 C225 1.472 . S
C208 H178 0.929 . S
C208 C207 1.348 . S
C208 C209 1.443 . S
C209 H176 0.932 . S
C209 C204 1.388 . S
C209 C208 1.443 . S
C210 N190 1.433 . S
C210 C211 1.363 . S
C210 C215 1.370 . S
C211 H179 0.929 . S
C211 C210 1.363 . S
C211 C212 1.385 . S
C212 H180 0.930 . S
C212 C211 1.385 . S
C212 C213 1.357 . S
C213 C212 1.357 . S
C213 C214 1.406 . S
C214 H181 0.929 . S
C214 C213 1.406 . S
C214 C215 1.391 . S
C215 H182 0.931 . S
C215 C210 1.370 . S
C215 C214 1.391 . S
C216 N190 1.435 . S
C216 C217 1.358 . S
C216 C221 1.371 . S
C217 H183 0.930 . S
C217 C216 1.358 . S
C217 C218 1.405 . S
C218 H184 0.932 . S
C218 C217 1.405 . S
C218 C219 1.383 . S
C219 C218 1.383 . S
C219 C220 1.393 . S
C220 H185 0.931 . S
C220 C219 1.393 . S
C220 C221 1.382 . S
C221 H186 0.929 . S
C221 C216 1.371 . S
C221 C220 1.382 . S
C222 N190 1.423 . S
C222 C223 1.362 . S
C222 C227 1.388 . S
C223 H187 0.929 . S
C223 C222 1.362 . S
C223 C224 1.376 . S
C224 H188 0.931 . S
C224 C223 1.376 . S
C224 C225 1.396 . S
C225 C207 1.472 . S
C225 C224 1.396 . S
C225 C226 1.348 . S
C226 H189 0.929 . S
C226 C225 1.348 . S
C226 C227 1.443 . S
C227 H191 0.932 . S
C227 C222 1.388 . S
C227 C226 1.443 . S
C228 C229 1.391 1_655 S
C228 C230 1.394 . S
C228 H244 0.931 . S
C229 C228 1.391 1_455 S
C229 C233 1.376 . S
C230 C228 1.394 . S
C230 C231 1.369 1_655 S
C230 C234 1.531 . S
C231 C230 1.369 1_455 S
C231 C232 1.410 . S
C231 C239 1.503 . S
C232 C231 1.410 . S
C232 C233 1.392 . S
C232 C235 1.511 . S
C233 C229 1.376 . S
C233 C232 1.392 . S
C233 H245 0.929 . S
C234 C230 1.531 . S
C234 H246 0.960 . S
C234 H247 0.962 . S
C234 H248 0.960 . S
C235 C232 1.511 . S
C235 H249 0.961 . S
C235 H250 0.961 . S
C235 H251 0.961 . S
C236 C237 1.370 . S
C236 C238 1.363 . S
C236 H252 0.931 . S
C237 C236 1.370 . S
C237 C241 1.408 . S
C238 C236 1.363 . S
C238 C239 1.370 . S
C238 C242 1.524 . S
C239 C231 1.503 . S
C239 C238 1.370 . S
C239 C240 1.403 . S
C240 C239 1.403 . S
C240 C241 1.404 . S
C240 C243 1.539 . S
C241 C237 1.408 . S
C241 C240 1.404 . S
C241 H253 0.930 . S
C242 C238 1.524 . S
C242 H254 0.956 . S
C242 H255 0.961 . S
C242 H256 0.961 . S
C243 C240 1.539 . S
C243 H257 0.958 1_455 S
C243 H258 0.961 . S
C243 H259 0.960 . S
H244 C228 0.931 . S
H245 C233 0.929 . S
H246 C234 0.960 . S
H247 C234 0.962 . S
H248 C234 0.960 . S
H249 C235 0.961 . S
H250 C235 0.961 . S
H251 C235 0.961 . S
H252 C236 0.931 . S
H253 C241 0.930 . S
H254 C242 0.956 . S
H255 C242 0.961 . S
H256 C242 0.961 . S
H257 C243 0.958 1_655 S
H258 C243 0.961 . S
H259 C243 0.960 . S
C260 C261 1.391 . S
C260 C262 1.394 . S
C260 H276 0.931 . S
C261 C260 1.391 . S
C261 C265 1.376 . S
C262 C260 1.394 . S
C262 C263 1.369 . S
C262 C266 1.531 . S
C263 C262 1.369 . S
C263 C264 1.410 . S
C263 C271 1.503 . S
C264 C263 1.410 . S
C264 C265 1.392 . S
C264 C267 1.511 . S
C265 C261 1.376 . S
C265 C264 1.392 . S
C265 H277 0.929 . S
C266 C262 1.531 . S
C266 H278 0.960 . S
C266 H279 0.962 . S
C266 H280 0.960 . S
C267 C264 1.511 . S
C267 H281 0.961 1_545 S
C267 H282 0.961 1_545 S
C267 H283 0.961 . S
C268 C269 1.370 . S
C268 C270 1.363 . S
C268 H284 0.931 1_545 S
C269 C268 1.370 . S
C269 C273 1.408 . S
C270 C268 1.363 . S
C270 C271 1.370 . S
C270 C274 1.524 1_545 S
C271 C263 1.503 . S
C271 C270 1.370 . S
C271 C272 1.403 . S
C272 C271 1.403 . S
C272 C273 1.404 . S
C272 C275 1.539 . S
C273 C269 1.408 . S
C273 C272 1.404 . S
C273 H285 0.930 . S
C274 C270 1.524 1_565 S
C274 H286 0.956 . S
C274 H287 0.961 . S
C274 H288 0.961 . S
C275 C272 1.539 . S
C275 H289 0.958 . S
C275 H290 0.961 . S
C275 H291 0.960 . S
H276 C260 0.931 . S
H277 C265 0.929 . S
H278 C266 0.960 . S
H279 C266 0.962 . S
H280 C266 0.960 . S
H281 C267 0.961 1_565 S
H282 C267 0.961 1_565 S
H283 C267 0.961 . S
H284 C268 0.931 1_565 S
H285 C273 0.930 . S
H286 C274 0.956 . S
H287 C274 0.961 . S
H288 C274 0.961 . S
H289 C275 0.958 . S
H290 C275 0.961 . S
H291 C275 0.960 . S
C292 C293 1.391 . S
C292 C294 1.394 . S
C292 H308 0.931 . S
C293 C292 1.391 . S
C293 C297 1.376 . S
C294 C292 1.394 . S
C294 C295 1.369 . S
C294 C298 1.531 . S
C295 C294 1.369 . S
C295 C296 1.410 . S
C295 C303 1.503 . S
C296 C295 1.410 . S
C296 C297 1.392 . S
C296 C299 1.511 . S
C297 C293 1.376 . S
C297 C296 1.392 . S
C297 H309 0.929 . S
C298 C294 1.531 . S
C298 H310 0.960 . S
C298 H311 0.962 . S
C298 H312 0.960 . S
C299 C296 1.511 . S
C299 H313 0.961 . S
C299 H314 0.961 . S
C299 H315 0.961 . S
C300 C301 1.370 . S
C300 C302 1.363 . S
C300 H316 0.931 . S
C301 C300 1.370 . S
C301 C305 1.408 . S
C302 C300 1.363 . S
C302 C303 1.370 . S
C302 C306 1.524 . S
C303 C295 1.503 . S
C303 C302 1.370 . S
C303 C304 1.403 . S
C304 C303 1.403 . S
C304 C305 1.404 . S
C304 C307 1.539 . S
C305 C301 1.408 . S
C305 C304 1.404 . S
C305 H317 0.930 . S
C306 C302 1.524 . S
C306 H318 0.956 . S
C306 H319 0.961 . S
C306 H320 0.961 . S
C307 C304 1.539 . S
C307 H321 0.958 . S
C307 H322 0.961 . S
C307 H323 0.960 . S
H308 C292 0.931 . S
H309 C297 0.929 . S
H310 C298 0.960 . S
H311 C298 0.962 . S
H312 C298 0.960 . S
H313 C299 0.961 . S
H314 C299 0.961 . S
H315 C299 0.961 . S
H316 C300 0.931 . S
H317 C305 0.930 . S
H318 C306 0.956 . S
H319 C306 0.961 . S
H320 C306 0.961 . S
H321 C307 0.958 . S
H322 C307 0.961 . S
H323 C307 0.960 . S
C324 C325 1.391 . S
C324 C326 1.394 . S
C324 H340 0.931 1_455 S
C325 C324 1.391 . S
C325 C329 1.376 . S
C326 C324 1.394 . S
C326 C327 1.369 . S
C326 C330 1.531 1_455 S
C327 C326 1.369 . S
C327 C328 1.410 . S
C327 C335 1.503 . S
C328 C327 1.410 . S
C328 C329 1.392 . S
C328 C331 1.511 . S
C329 C325 1.376 . S
C329 C328 1.392 . S
C329 H341 0.929 . S
C330 C326 1.531 1_655 S
C330 H342 0.960 . S
C330 H343 0.962 . S
C330 H344 0.960 . S
C331 C328 1.511 . S
C331 H345 0.961 . S
C331 H346 0.961 . S
C331 H347 0.961 . S
C332 C333 1.370 . S
C332 C334 1.363 . S
C332 H348 0.931 . S
C333 C332 1.370 . S
C333 C337 1.408 . S
C334 C332 1.363 . S
C334 C335 1.370 . S
C334 C338 1.524 . S
C335 C327 1.503 . S
C335 C334 1.370 . S
C335 C336 1.403 . S
C336 C335 1.403 . S
C336 C337 1.404 . S
C336 C339 1.539 . S
C337 C333 1.408 . S
C337 C336 1.404 . S
C337 H349 0.930 . S
C338 C334 1.524 . S
C338 H350 0.956 . S
C338 H351 0.961 . S
C338 H352 0.961 . S
C339 C336 1.539 . S
C339 H353 0.958 1_455 S
C339 H354 0.961 . S
C339 H355 0.960 . S
H340 C324 0.931 1_655 S
H341 C329 0.929 . S
H342 C330 0.960 . S
H343 C330 0.962 . S
H344 C330 0.960 . S
H345 C331 0.961 . S
H346 C331 0.961 . S
H347 C331 0.961 . S
H348 C332 0.931 . S
H349 C337 0.930 . S
H350 C338 0.956 . S
H351 C338 0.961 . S
H352 C338 0.961 . S
H353 C339 0.958 1_655 S
H354 C339 0.961 . S
H355 C339 0.960 . S
C356 C357 1.391 . S
C356 C358 1.394 . S
C356 H372 0.931 . S
C357 C356 1.391 . S
C357 C361 1.376 . S
C358 C356 1.394 . S
C358 C359 1.369 . S
C358 C362 1.531 . S
C359 C358 1.369 . S
C359 C360 1.410 . S
C359 C367 1.503 . S
C360 C359 1.410 . S
C360 C361 1.392 . S
C360 C363 1.511 . S
C361 C357 1.376 . S
C361 C360 1.392 . S
C361 H373 0.929 . S
C362 C358 1.531 . S
C362 H374 0.960 . S
C362 H375 0.962 . S
C362 H376 0.960 . S
C363 C360 1.511 . S
C363 H377 0.961 1_545 S
C363 H378 0.961 . S
C363 H379 0.961 . S
C364 C365 1.370 . S
C364 C366 1.363 . S
C364 H380 0.931 1_545 S
C365 C364 1.370 . S
C365 C369 1.408 . S
C366 C364 1.363 . S
C366 C367 1.370 . S
C366 C370 1.524 1_545 S
C367 C359 1.503 . S
C367 C366 1.370 . S
C367 C368 1.403 . S
C368 C367 1.403 . S
C368 C369 1.404 . S
C368 C371 1.539 . S
C369 C365 1.408 . S
C369 C368 1.404 . S
C369 H381 0.930 . S
C370 C366 1.524 1_565 S
C370 H382 0.956 1_565 S
C370 H383 0.961 . S
C370 H384 0.961 . S
C371 C368 1.539 . S
C371 H385 0.958 . S
C371 H386 0.961 . S
C371 H387 0.960 . S
H372 C356 0.931 . S
H373 C361 0.929 . S
H374 C362 0.960 . S
H375 C362 0.962 . S
H376 C362 0.960 . S
H377 C363 0.961 1_565 S
H378 C363 0.961 . S
H379 C363 0.961 . S
H380 C364 0.931 1_565 S
H381 C369 0.930 . S
H382 C370 0.956 1_545 S
H383 C370 0.961 . S
H384 C370 0.961 . S
H385 C371 0.958 . S
H386 C371 0.961 . S
H387 C371 0.960 . S
C388 C389 1.391 . S
C388 C390 1.394 . S
C388 H404 0.931 . S
C389 C388 1.391 . S
C389 C393 1.376 . S
C390 C388 1.394 . S
C390 C391 1.369 . S
C390 C394 1.531 . S
C391 C390 1.369 . S
C391 C392 1.410 . S
C391 C399 1.503 . S
C392 C391 1.410 . S
C392 C393 1.392 . S
C392 C395 1.511 . S
C393 C389 1.376 . S
C393 C392 1.392 . S
C393 H405 0.929 . S
C394 C390 1.531 . S
C394 H406 0.960 . S
C394 H407 0.962 . S
C394 H408 0.960 . S
C395 C392 1.511 . S
C395 H409 0.961 . S
C395 H410 0.961 . S
C395 H411 0.961 . S
C396 C397 1.370 . S
C396 C398 1.363 . S
C396 H412 0.931 . S
C397 C396 1.370 . S
C397 C401 1.408 . S
C398 C396 1.363 . S
C398 C399 1.370 . S
C398 C402 1.524 . S
C399 C391 1.503 . S
C399 C398 1.370 . S
C399 C400 1.403 . S
C400 C399 1.403 . S
C400 C401 1.404 . S
C400 C403 1.539 . S
C401 C397 1.408 . S
C401 C400 1.404 . S
C401 H413 0.930 . S
C402 C398 1.524 . S
C402 H414 0.956 . S
C402 H415 0.961 . S
C402 H416 0.961 . S
C403 C400 1.539 . S
C403 H417 0.958 . S
C403 H418 0.961 . S
C403 H419 0.960 . S
H404 C388 0.931 . S
H405 C393 0.929 . S
H406 C394 0.960 . S
H407 C394 0.962 . S
H408 C394 0.960 . S
H409 C395 0.961 . S
H410 C395 0.961 . S
H411 C395 0.961 . S
H412 C396 0.931 . S
H413 C401 0.930 . S
H414 C402 0.956 . S
H415 C402 0.961 . S
H416 C402 0.961 . S
H417 C403 0.958 . S
H418 C403 0.961 . S
H419 C403 0.960 . S
C420 C421 1.391 . S
C420 C422 1.394 . S
C420 H436 0.931 . S
C421 C420 1.391 . S
C421 C425 1.376 . S
C422 C420 1.394 . S
C422 C423 1.369 . S
C422 C426 1.531 . S
C423 C422 1.369 . S
C423 C424 1.410 . S
C423 C431 1.503 . S
C424 C423 1.410 . S
C424 C425 1.392 . S
C424 C427 1.511 . S
C425 C421 1.376 . S
C425 C424 1.392 . S
C425 H437 0.929 . S
C426 C422 1.531 . S
C426 H438 0.960 . S
C426 H439 0.962 . S
C426 H440 0.960 . S
C427 C424 1.511 . S
C427 H441 0.961 . S
C427 H442 0.961 . S
C427 H443 0.961 . S
C428 C429 1.370 1_565 S
C428 C430 1.363 . S
C428 H444 0.931 . S
C429 C428 1.370 1_545 S
C429 C433 1.408 . S
C430 C428 1.363 . S
C430 C431 1.370 1_565 S
C430 C434 1.524 . S
C431 C423 1.503 . S
C431 C430 1.370 1_545 S
C431 C432 1.403 . S
C432 C431 1.403 . S
C432 C433 1.404 . S
C432 C435 1.539 . S
C433 C429 1.408 . S
C433 C432 1.404 . S
C433 H445 0.930 . S
C434 C430 1.524 . S
C434 H446 0.956 . S
C434 H447 0.961 . S
C434 H448 0.961 . S
C435 C432 1.539 . S
C435 H449 0.958 . S
C435 H450 0.961 . S
C435 H451 0.960 . S
H436 C420 0.931 . S
H437 C425 0.929 . S
H438 C426 0.960 . S
H439 C426 0.962 . S
H440 C426 0.960 . S
H441 C427 0.961 . S
H442 C427 0.961 . S
H443 C427 0.961 . S
H444 C428 0.931 . S
H445 C433 0.930 . S
H446 C434 0.956 . S
H447 C434 0.961 . S
H448 C434 0.961 . S
H449 C435 0.958 . S
H450 C435 0.961 . S
H451 C435 0.960 . S
C452 C453 1.391 . S
C452 C454 1.394 . S
C452 H468 0.931 . S
C453 C452 1.391 . S
C453 C457 1.376 1_554 S
C454 C452 1.394 . S
C454 C455 1.369 1_554 S
C454 C458 1.531 . S
C455 C454 1.369 1_556 S
C455 C456 1.410 . S
C455 C463 1.503 . S
C456 C455 1.410 . S
C456 C457 1.392 . S
C456 C459 1.511 . S
C457 C453 1.376 1_556 S
C457 C456 1.392 . S
C457 H469 0.929 . S
C458 C454 1.531 . S
C458 H470 0.960 . S
C458 H471 0.962 . S
C458 H472 0.960 . S
C459 C456 1.511 . S
C459 H473 0.961 . S
C459 H474 0.961 . S
C459 H475 0.961 . S
C460 C461 1.370 . S
C460 C462 1.363 . S
C460 H476 0.931 . S
C461 C460 1.370 . S
C461 C465 1.408 . S
C462 C460 1.363 . S
C462 C463 1.370 . S
C462 C466 1.524 . S
C463 C455 1.503 . S
C463 C462 1.370 . S
C463 C464 1.403 . S
C464 C463 1.403 . S
C464 C465 1.404 . S
C464 C467 1.539 . S
C465 C461 1.408 . S
C465 C464 1.404 . S
C465 H477 0.930 . S
C466 C462 1.524 . S
C466 H478 0.956 . S
C466 H479 0.961 . S
C466 H480 0.961 . S
C467 C464 1.539 . S
C467 H481 0.958 . S
C467 H482 0.961 . S
C467 H483 0.960 . S
H468 C452 0.931 . S
H469 C457 0.929 . S
H470 C458 0.960 . S
H471 C458 0.962 . S
H472 C458 0.960 . S
H473 C459 0.961 . S
H474 C459 0.961 . S
H475 C459 0.961 . S
H476 C460 0.931 . S
H477 C465 0.930 . S
H478 C466 0.956 . S
H479 C466 0.961 . S
H480 C466 0.961 . S
H481 C467 0.958 . S
H482 C467 0.961 . S
H483 C467 0.960 . S
C484 C485 1.391 1_455 S
C484 C486 1.394 . S
C484 H500 0.931 . S
C485 C484 1.391 1_655 S
C485 C489 1.376 . S
C486 C484 1.394 . S
C486 C487 1.367 1_455 S
C486 C490 1.531 . S
C487 C486 1.367 1_655 S
C487 C488 1.421 . S
C487 C495 1.492 1_655 S
C488 C487 1.421 . S
C488 C489 1.392 . S
C488 C491 1.511 . S
C489 C485 1.376 . S
C489 C488 1.392 . S
C489 H501 0.929 . S
C490 C486 1.531 . S
C490 H502 0.960 . S
C490 H503 0.962 . S
C490 H504 0.960 . S
C491 C488 1.511 . S
C491 H505 0.961 . S
C491 H506 0.961 . S
C491 H507 0.961 . S
C492 C493 1.370 . S
C492 C494 1.363 . S
C492 H508 0.931 . S
C493 C492 1.370 . S
C493 C497 1.408 1_455 S
C494 C492 1.363 . S
C494 C495 1.370 . S
C494 C498 1.524 . S
C495 C487 1.492 1_455 S
C495 C494 1.370 . S
C495 C496 1.403 1_455 S
C496 C495 1.403 1_655 S
C496 C497 1.404 . S
C496 C499 1.539 . S
C497 C493 1.408 1_655 S
C497 C496 1.404 . S
C497 H509 0.930 . S
C498 C494 1.524 . S
C498 H510 0.956 . S
C498 H511 0.961 . S
C498 H512 0.961 . S
C499 C496 1.539 . S
C499 H513 0.958 . S
C499 H514 0.961 . S
C499 H515 0.960 . S
H500 C484 0.931 . S
H501 C489 0.929 . S
H502 C490 0.960 . S
H503 C490 0.962 . S
H504 C490 0.960 . S
H505 C491 0.961 . S
H506 C491 0.961 . S
H507 C491 0.961 . S
H508 C492 0.931 . S
H509 C497 0.930 . S
H510 C498 0.956 . S
H511 C498 0.961 . S
H512 C498 0.961 . S
H513 C499 0.958 . S
H514 C499 0.961 . S
H515 C499 0.960 . S
C516 C517 1.391 . S
C516 C518 1.394 . S
C516 H532 0.931 . S
C517 C516 1.391 . S
C517 C521 1.376 1_565 S
C518 C516 1.394 . S
C518 C519 1.369 . S
C518 C522 1.531 . S
C519 C518 1.369 . S
C519 C520 1.410 1_565 S
C519 C527 1.503 1_565 S
C520 C519 1.410 1_545 S
C520 C521 1.392 . S
C520 C523 1.511 . S
C521 C517 1.376 1_545 S
C521 C520 1.392 . S
C521 H533 0.929 . S
C522 C518 1.531 . S
C522 H534 0.960 . S
C522 H535 0.962 . S
C522 H536 0.960 . S
C523 C520 1.511 . S
C523 H537 0.961 . S
C523 H538 0.961 . S
C523 H539 0.961 . S
C524 C525 1.370 . S
C524 C526 1.363 . S
C524 H540 0.931 . S
C525 C524 1.370 . S
C525 C529 1.408 1_545 S
C526 C524 1.363 . S
C526 C527 1.370 . S
C526 C530 1.524 . S
C527 C519 1.503 1_545 S
C527 C526 1.370 . S
C527 C528 1.403 1_545 S
C528 C527 1.403 1_565 S
C528 C529 1.404 . S
C528 C531 1.539 . S
C529 C525 1.408 1_565 S
C529 C528 1.404 . S
C529 H541 0.930 . S
C530 C526 1.524 . S
C530 H542 0.956 . S
C530 H543 0.961 . S
C530 H544 0.961 . S
C531 C528 1.539 . S
C531 H545 0.958 . S
C531 H546 0.961 . S
C531 H547 0.960 . S
H532 C516 0.931 . S
H533 C521 0.929 . S
H534 C522 0.960 . S
H535 C522 0.962 . S
H536 C522 0.960 . S
H537 C523 0.961 . S
H538 C523 0.961 . S
H539 C523 0.961 . S
H540 C524 0.931 . S
H541 C529 0.930 . S
H542 C530 0.956 . S
H543 C530 0.961 . S
H544 C530 0.961 . S
H545 C531 0.958 . S
H546 C531 0.961 . S
H547 C531 0.960 . S
C548 C549 1.391 1_556 S
C548 C550 1.394 . S
C548 H564 0.931 1_556 S
C549 C548 1.391 1_554 S
C549 C553 1.376 1_554 S
C550 C548 1.394 . S
C550 C551 1.369 . S
C550 C554 1.531 . S
C551 C550 1.369 . S
C551 C552 1.410 . S
C551 C559 1.503 . S
C552 C551 1.410 . S
C552 C553 1.392 . S
C552 C555 1.511 . S
C553 C549 1.376 1_556 S
C553 C552 1.392 . S
C553 H565 0.915 1_556 S
C554 C550 1.531 . S
C554 H566 0.960 . S
C554 H567 0.962 . S
C554 H568 0.960 . S
C555 C552 1.511 . S
C555 H569 0.961 . S
C555 H570 0.961 . S
C555 H571 0.961 . S
C556 C557 1.370 . S
C556 C558 1.363 . S
C556 H572 0.931 . S
C557 C556 1.370 . S
C557 C561 1.408 . S
C558 C556 1.363 . S
C558 C559 1.370 . S
C558 C562 1.524 1_556 S
C559 C551 1.503 . S
C559 C558 1.370 . S
C559 C560 1.403 . S
C560 C559 1.403 . S
C560 C561 1.404 . S
C560 C563 1.539 . S
C561 C557 1.408 . S
C561 C560 1.404 . S
C561 H573 0.930 . S
C562 C558 1.524 1_554 S
C562 H574 0.956 . S
C562 H575 0.961 . S
C562 H576 0.961 . S
C563 C560 1.539 . S
C563 H577 0.958 . S
C563 H578 0.961 . S
C563 H579 0.960 . S
H564 C548 0.931 1_554 S
H565 C553 0.915 1_554 S
H566 C554 0.960 . S
H567 C554 0.962 . S
H568 C554 0.960 . S
H569 C555 0.961 . S
H570 C555 0.961 . S
H571 C555 0.961 . S
H572 C556 0.931 . S
H573 C561 0.930 . S
H574 C562 0.956 . S
H575 C562 0.961 . S
H576 C562 0.961 . S
H577 C563 0.958 . S
H578 C563 0.961 . S
H579 C563 0.960 . S
C580 C581 1.391 . S
C580 C582 1.394 . S
C580 H596 0.942 . S
C581 C580 1.391 . S
C581 C585 1.376 . S
C582 C580 1.394 . S
C582 C583 1.369 . S
C582 C586 1.531 1_455 S
C583 C582 1.369 . S
C583 C584 1.410 . S
C583 C591 1.503 . S
C584 C583 1.410 . S
C584 C585 1.392 . S
C584 C587 1.511 . S
C585 C581 1.376 . S
C585 C584 1.392 . S
C585 H597 0.929 . S
C586 C582 1.531 1_655 S
C586 H598 0.960 1_655 S
C586 H599 0.962 . S
C586 H600 0.960 . S
C587 C584 1.511 . S
C587 H601 0.961 . S
C587 H602 0.961 . S
C587 H603 0.961 . S
C588 C589 1.370 1_655 S
C588 C590 1.374 . S
C588 H604 0.931 . S
C589 C588 1.370 1_455 S
C589 C593 1.408 . S
C590 C588 1.374 . S
C590 C591 1.356 1_655 S
C590 C594 1.529 . S
C591 C583 1.503 . S
C591 C590 1.356 1_455 S
C591 C592 1.403 . S
C592 C591 1.403 . S
C592 C593 1.404 . S
C592 C595 1.539 . S
C593 C589 1.408 . S
C593 C592 1.404 . S
C593 H605 0.930 . S
C594 C590 1.529 . S
C594 H606 0.956 . S
C594 H607 0.961 . S
C594 H608 0.961 . S
C595 C592 1.539 . S
C595 H609 0.958 . S
C595 H610 0.961 . S
C595 H611 0.960 . S
H596 C580 0.942 . S
H597 C585 0.929 . S
H598 C586 0.960 1_455 S
H599 C586 0.962 . S
H600 C586 0.960 . S
H601 C587 0.961 . S
H602 C587 0.961 . S
H603 C587 0.961 . S
H604 C588 0.931 . S
H605 C593 0.930 . S
H606 C594 0.956 . S
H607 C594 0.961 . S
H608 C594 0.961 . S
H609 C595 0.958 . S
H610 C595 0.961 . S
H611 C595 0.960 . S
C237 C95 1.199 . S
C229 C11 1.183 . S
C261 C25 1.253 . S
C269 C139 1.273 . S
C293 C41 1.240 . S
C301 C201 1.341 . S
C325 C7 1.218 . S
C333 C77 1.230 . S
C365 C157 1.273 . S
C357 C21 1.295 . S
C389 C36 1.326 . S
C397 C219 1.337 . S
C429 C133 1.489 . S
C421 C39 1.613 . S
C453 C8 1.642 . S
C461 C195 1.545 . S
C493 C71 1.601 . S
C485 C22 1.684 1_655 S
C525 C151 1.513 . S
C517 C35 1.613 . S
C557 C213 1.535 . S
C549 C13 1.585 . S
C581 C27 1.648 . S
C589 C89 1.606 . S
