# Generated by pormake.
# Topology pth, (4,4)-cn, num edge types: 1
# Building blocks:
#     Node 0, Type 0, BuildingBlock: QUQFOY_clean_sbu_3, # of connection points: 4
#     Node 1, Type 0, BuildingBlock: QUQFOY_clean_sbu_3, # of connection points: 4
#     Node 2, Type 0, BuildingBlock: QUQFOY_clean_sbu_3, # of connection points: 4
#     Node 3, Type 1, BuildingBlock: AZAVOO_clean_linker_0, # of connection points: 4
#     Node 4, Type 1, BuildingBlock: AZAVOO_clean_linker_0, # of connection points: 4
#     Node 5, Type 1, BuildingBlock: AZAVOO_clean_linker_0, # of connection points: 4
#     Edge 6, Type (0, 1), BuildingBlock: TEMPAE_clean_linker_10, # of connection points: 2
#     Edge 7, Type (0, 1), BuildingBlock: TEMPAE_clean_linker_10, # of connection points: 2
#     Edge 8, Type (0, 1), BuildingBlock: TEMPAE_clean_linker_10, # of connection points: 2
#     Edge 9, Type (0, 1), BuildingBlock: TEMPAE_clean_linker_10, # of connection points: 2
#     Edge 10, Type (0, 1), BuildingBlock: TEMPAE_clean_linker_10, # of connection points: 2
#     Edge 11, Type (0, 1), BuildingBlock: TEMPAE_clean_linker_10, # of connection points: 2
#     Edge 12, Type (0, 1), BuildingBlock: TEMPAE_clean_linker_10, # of connection points: 2
#     Edge 13, Type (0, 1), BuildingBlock: TEMPAE_clean_linker_10, # of connection points: 2
#     Edge 14, Type (0, 1), BuildingBlock: TEMPAE_clean_linker_10, # of connection points: 2
#     Edge 15, Type (0, 1), BuildingBlock: TEMPAE_clean_linker_10, # of connection points: 2
#     Edge 16, Type (0, 1), BuildingBlock: TEMPAE_clean_linker_10, # of connection points: 2
#     Edge 17, Type (0, 1), BuildingBlock: TEMPAE_clean_linker_10, # of connection points: 2
# Relax obj value: 0.108
# Max RMSD: 0.224
# Mean RMSD: 0.148
data_MOF--net-pth--node1-QUQFOY_clean_sbu_3--node2-AZAVOO_clean_linker_0--edge1-TEMPAE_clean_linker_10
_symmetry_space_group_name_H-M    P1
_symmetry_Int_Tables_number       1
_symmetry_cell_setting            triclinic
loop_
_symmetry_equiv_pos_as_xyz
'x, y, z'
_cell_length_a     26.732745
_cell_length_b     26.981128
_cell_length_c     74.482471
_cell_angle_alpha  92.402495
_cell_angle_beta   89.49699
_cell_angle_gamma 120.73824
loop_
_atom_site_label
_atom_site_type_symbol
_atom_site_fract_x
_atom_site_fract_y
_atom_site_fract_z
_atom_type_partial_charge
C0 C -0.01044 0.1138 0.10138 0.0
O1 O 0.95823 0.10991 0.08807 0.0
Cd2 Cd 0.96928 0.07525 0.05881 0.0
O3 O 0.02553 0.09635 0.09979 0.0
Cd4 Cd 0.05999 0.04886 0.07856 0.0
C5 C 0.11796 0.1652 0.05335 0.0
O6 O 0.97031 0.98791 0.06157 0.0
O7 O 0.04906 -0.00358 0.05033 0.0
O8 O 0.0437 0.98566 0.10239 0.0
C9 C -0.00562 0.97431 0.0491 0.0
O10 O 0.06548 0.14814 0.04889 0.0
C11 C 0.09425 -0.0076 0.10262 0.0
O12 O 0.12954 0.13929 0.06509 0.0
O13 O 0.13045 0.02637 0.0914 0.0
C14 C 0.14211 0.10961 0.41866 0.0
O15 O 0.16238 0.14152 0.4053 0.0
Cd16 Cd 0.0969 0.1311 0.38164 0.0
O17 O 0.08743 0.07757 0.42062 0.0
Cd18 Cd -0.00776 0.05304 0.40807 0.0
C19 C 0.01971 0.98153 0.37532 0.0
O20 O 0.02418 0.14577 0.39562 0.0
O21 O 0.93897 0.07692 0.38693 0.0
O22 O 0.97427 0.06889 0.43899 0.0
C23 C 0.97798 0.12986 0.38662 0.0
O24 O 0.05763 0.03119 0.37004 0.0
C25 C 0.92357 0.02476 0.43949 0.0
O26 O -0.01009 0.97646 0.38927 0.0
O27 O 0.90421 -0.007 0.42519 0.0
C28 C 0.94319 0.11829 0.72016 0.0
O29 O 0.94678 0.15333 0.73271 0.0
Cd30 Cd 0.00413 0.17338 0.75929 0.0
O31 O 0.97376 0.09445 0.72079 0.0
Cd32 Cd 0.04881 0.0966 0.74073 0.0
C33 C 0.9477 0.03417 0.7725 0.0
O34 O 0.10038 0.19882 0.75024 0.0
O35 O 0.11834 0.14329 0.76551 0.0
O36 O 0.10396 0.10184 0.71409 0.0
C37 C 0.13077 0.19405 0.76225 0.0
O38 O 0.95237 0.08335 0.77499 0.0
C39 C 0.11213 0.06111 0.71795 0.0
O40 O 0.9766 0.02568 0.76034 0.0
O41 O 0.08918 0.03536 0.73228 0.0
H42 H 0.06651 0.426 0.13223 0.0
H43 H 0.10728 0.90321 0.28353 0.0
H44 H 0.94386 0.41065 0.23088 0.0
H45 H 0.93112 0.32707 0.21284 0.0
H46 H 0.11761 0.40045 0.21294 0.0
H47 H 0.12986 0.48441 0.23068 0.0
H48 H 0.98254 0.48072 0.19848 0.0
H49 H 0.00043 0.44921 0.1691 0.0
H50 H 0.18573 0.56162 0.17798 0.0
H51 H 0.16716 0.592 0.20751 0.0
H52 H 0.00176 0.60321 0.20067 0.0
H53 H 0.02826 0.67409 0.17763 0.0
H54 H 0.20033 0.77654 0.20149 0.0
H55 H 0.17308 0.70514 0.22462 0.0
H56 H 0.96837 0.64066 0.24306 0.0
H57 H 0.96807 0.7271 0.25431 0.0
H58 H 0.14869 0.80486 0.2705 0.0
H59 H 0.14814 0.71796 0.2593 0.0
H60 H 0.93236 0.55098 0.27063 0.0
H61 H 0.91331 0.59905 0.29604 0.0
H62 H 0.09498 0.68481 0.31175 0.0
H63 H 0.11287 0.63475 0.28672 0.0
H64 H 0.93024 0.45339 0.2705 0.0
H65 H 0.91009 0.3826 0.29334 0.0
H66 H 0.09047 0.42864 0.29256 0.0
H67 H 0.11015 0.49917 0.26989 0.0
O68 O 0.06041 0.44054 0.14363 0.0
O69 O 0.15509 0.5016 0.1483 0.0
O70 O 0.01313 0.82628 0.2706 0.0
O71 O 0.10666 0.86925 0.27849 0.0
C72 C 0.04577 0.5108 0.23698 0.0
C73 C 0.06268 0.5523 0.22373 0.0
C74 C 0.06875 0.60637 0.22819 0.0
C75 C 0.05593 0.61815 0.24568 0.0
C76 C 0.03847 0.57633 0.25884 0.0
C77 C 0.03429 0.52302 0.25458 0.0
C78 C 0.03776 0.45363 0.23183 0.0
C79 C 0.98171 0.40741 0.22764 0.0
C80 C 0.97457 0.35979 0.2173 0.0
C81 C 0.0235 0.35797 0.21116 0.0
C82 C 0.07924 0.40139 0.21719 0.0
C83 C 0.08632 0.449 0.22746 0.0
C84 C 0.07357 0.53845 0.20511 0.0
C85 C 0.02694 0.49878 0.19398 0.0
C86 C 0.0373 0.48079 0.17723 0.0
C87 C 0.09454 0.50265 0.17122 0.0
C88 C 0.14113 0.54382 0.18221 0.0
C89 C 0.13068 0.56152 0.19903 0.0
C90 C 0.08546 0.64937 0.21428 0.0
C91 C 0.04522 0.64084 0.20084 0.0
C92 C 0.06063 0.68109 0.18764 0.0
C93 C 0.11657 0.73062 0.18769 0.0
C94 C 0.1569 0.7389 0.20118 0.0
C95 C 0.14145 0.69837 0.21437 0.0
C96 C 0.05839 0.67341 0.25025 0.0
C97 C 0.00805 0.67686 0.24876 0.0
C98 C 0.00792 0.72609 0.25531 0.0
C99 C 0.05832 0.77283 0.26339 0.0
C100 C 0.10915 0.76968 0.26438 0.0
C101 C 0.10912 0.72032 0.25788 0.0
C102 C 0.02392 0.58946 0.27692 0.0
C103 C 0.96732 0.57793 0.2801 0.0
C104 C 0.95675 0.60607 0.29445 0.0
C105 C 0.00287 0.64659 0.30567 0.0
C106 C 0.05843 0.6536 0.30344 0.0
C107 C 0.0688 0.625 0.28917 0.0
C108 C 0.02169 0.48146 0.26869 0.0
C109 C 0.96538 0.44848 0.27545 0.0
C110 C 0.95398 0.40818 0.28842 0.0
C111 C -0.00131 0.40003 0.29462 0.0
C112 C 0.05506 0.43349 0.28784 0.0
C113 C 0.06643 0.4739 0.275 0.0
C114 C 0.1054 0.48184 0.15369 0.0
C115 C 0.05779 0.82429 0.27099 0.0
H116 H 0.53882 0.97341 0.45554 0.0
H117 H 0.24175 0.13784 0.6099 0.0
H118 H 0.52929 0.92543 0.55203 0.0
H119 H 0.60556 0.91866 0.53561 0.0
H120 H 0.72946 0.09565 0.5518 0.0
H121 H 0.653 0.10203 0.56828 0.0
H122 H 0.44158 0.94861 0.52756 0.0
H123 H 0.46699 0.94405 0.49611 0.0
H124 H 0.62811 0.1066 0.50479 0.0
H125 H 0.60157 0.11119 0.53606 0.0
H126 H 0.34629 0.97836 0.54752 0.0
H127 H 0.29872 0.00121 0.52382 0.0
H128 H 0.46097 0.1572 0.51398 0.0
H129 H 0.50792 0.13581 0.53821 0.0
H130 H 0.33845 0.95904 0.58849 0.0
H131 H 0.2622 0.97469 0.60075 0.0
H132 H 0.36614 0.15552 0.58928 0.0
H133 H 0.44257 0.13941 0.57734 0.0
H134 H 0.41935 0.93734 0.60976 0.0
H135 H 0.36572 0.93039 0.63731 0.0
H136 H 0.44134 0.1155 0.63951 0.0
H137 H 0.49505 0.12197 0.61215 0.0
H138 H 0.53929 0.93737 0.59546 0.0
H139 H 0.61236 0.94469 0.61698 0.0
H140 H 0.67294 0.12582 0.6268 0.0
H141 H 0.60044 0.11822 0.60534 0.0
O142 O 0.5292 0.97648 0.46794 0.0
O143 O 0.61217 0.05932 0.47327 0.0
O144 O 0.21907 0.03693 0.61039 0.0
O145 O 0.27048 0.13016 0.60465 0.0
C146 C 0.53742 0.02295 0.56672 0.0
C147 C 0.50544 0.03125 0.55338 0.0
C148 C 0.46015 0.0412 0.55838 0.0
C149 C 0.44481 0.03963 0.5766 0.0
C150 C 0.47738 0.03189 0.58991 0.0
C151 C 0.52465 0.02523 0.58501 0.0
C152 C 0.58578 0.01427 0.56121 0.0
C153 C 0.57343 0.96195 0.55259 0.0
C154 C 0.61691 0.95815 0.54326 0.0
C155 C 0.673 0.00683 0.54236 0.0
C156 C 0.68635 0.05769 0.55227 0.0
C157 C 0.64299 0.06128 0.56175 0.0
C158 C 0.51994 0.02995 0.5341 0.0
C159 C 0.48213 0.98334 0.52259 0.0
C160 C 0.49686 0.98078 0.50466 0.0
C161 C 0.54974 0.02482 0.49796 0.0
C162 C 0.58716 0.07186 0.50952 0.0
C163 C 0.5722 0.07451 0.5274 0.0
C164 C 0.43052 0.05538 0.54453 0.0
C165 C 0.37131 0.01786 0.54045 0.0
C166 C 0.34436 0.03077 0.52696 0.0
C167 C 0.37662 0.08076 0.51726 0.0
C168 C 0.43564 0.11843 0.52138 0.0
C169 C 0.4623 0.10613 0.53509 0.0
C170 C 0.39598 0.0481 0.58204 0.0
C171 C 0.34442 0.0019 0.5885 0.0
C172 C 0.30101 0.01098 0.59553 0.0
C173 C 0.3082 0.06645 0.59607 0.0
C174 C 0.35928 0.11232 0.5891 0.0
C175 C 0.40283 0.10321 0.58217 0.0
C176 C 0.46056 0.03008 0.60896 0.0
C177 C 0.42611 0.97652 0.61664 0.0
C178 C 0.39514 0.97259 0.63224 0.0
C179 C 0.39874 0.0223 0.64037 0.0
C180 C 0.43797 0.07651 0.63361 0.0
C181 C 0.4687 0.08034 0.61799 0.0
C182 C 0.56465 0.02724 0.59897 0.0
C183 C 0.56808 0.97837 0.60242 0.0
C184 C 0.60966 0.98262 0.61465 0.0
C185 C 0.64854 0.03596 0.62337 0.0
C186 C 0.64408 0.08443 0.62005 0.0
C187 C 0.60242 0.08006 0.60797 0.0
C188 C 0.56577 0.02148 0.479 0.0
C189 C 0.26307 0.07669 0.60411 0.0
H190 H 0.67696 0.7311 0.02262 0.0
H191 H 0.22181 0.24436 0.88872 0.0
H192 H 0.61766 0.74102 0.92945 0.0
H193 H 0.70598 0.81127 0.94594 0.0
H194 H 0.789 0.71596 0.92884 0.0
H195 H 0.70004 0.64562 0.91234 0.0
H196 H 0.53633 0.65668 0.95644 0.0
H197 H 0.5834 0.69249 0.98602 0.0
H198 H 0.69269 0.6203 0.97444 0.0
H199 H 0.64489 0.5844 0.94497 0.0
H200 H 0.41826 0.55093 0.94386 0.0
H201 H 0.36295 0.49139 0.9689 0.0
H202 H 0.46965 0.41345 0.96789 0.0
H203 H 0.5247 0.47324 0.94284 0.0
H204 H 0.38347 0.53072 0.90118 0.0
H205 H 0.2895 0.44422 0.89366 0.0
H206 H 0.36582 0.33844 0.901 0.0
H207 H 0.45969 0.42542 0.90826 0.0
H208 H 0.46057 0.61186 0.87574 0.0
H209 H 0.40416 0.56862 0.84772 0.0
H210 H 0.46485 0.44772 0.84468 0.0
H211 H 0.52027 0.49059 0.87267 0.0
H212 H 0.59937 0.73192 0.89298 0.0
H213 H 0.66324 0.79696 0.8702 0.0
H214 H 0.68495 0.6602 0.84678 0.0
H215 H 0.62304 0.59585 0.87011 0.0
O216 O 0.65762 0.71496 0.01112 0.0
O217 O 0.71088 0.67478 0.00484 0.0
O218 O 0.2213 0.33558 0.88808 0.0
O219 O 0.25829 0.27921 0.89181 0.0
C220 C 0.59493 0.63696 0.91577 0.0
C221 C 0.56302 0.60185 0.93003 0.0
C222 C 0.50841 0.55206 0.92658 0.0
C223 C 0.48575 0.53691 0.9089 0.0
C224 C 0.51812 0.57172 0.89461 0.0
C225 C 0.57266 0.62205 0.89804 0.0
C226 C 0.65265 0.68832 0.91985 0.0
C227 C 0.65589 0.73694 0.92855 0.0
C228 C 0.70632 0.77692 0.93797 0.0
C229 C 0.75387 0.76841 0.93884 0.0
C230 C 0.75262 0.72302 0.92848 0.0
C231 C 0.70221 0.68323 0.91895 0.0
C232 C 0.58721 0.61795 0.94864 0.0
C233 C 0.56984 0.64795 0.96046 0.0
C234 C 0.59706 0.66864 0.97728 0.0
C235 C 0.64205 0.65954 0.98256 0.0
C236 C 0.65827 0.62813 0.97079 0.0
C237 C 0.63095 0.60742 0.95399 0.0
C238 C 0.47502 0.51592 0.94158 0.0
C239 C 0.42959 0.52101 0.9491 0.0
C240 C 0.39852 0.48745 0.96344 0.0
C241 C 0.4123 0.44808 0.97033 0.0
C242 C 0.45806 0.4433 0.96275 0.0
C243 C 0.48942 0.47726 0.94852 0.0
C244 C 0.42822 0.48419 0.90524 0.0
C245 C 0.37969 0.48878 0.90118 0.0
C246 C 0.32613 0.43934 0.8969 0.0
C247 C 0.32017 0.38438 0.8967 0.0
C248 C 0.36889 0.38005 0.90101 0.0
C249 C 0.42248 0.42958 0.90523 0.0
C250 C 0.49433 0.55422 0.87611 0.0
C251 C 0.46286 0.57713 0.86869 0.0
C252 C 0.43061 0.55233 0.85281 0.0
C253 C 0.43028 0.50494 0.8441 0.0
C254 C 0.465 0.4847 0.851 0.0
C255 C 0.4965 0.50895 0.86696 0.0
C256 C 0.60673 0.65926 0.88322 0.0
C257 C 0.61788 0.71597 0.88294 0.0
C258 C 0.65419 0.75294 0.86998 0.0
C259 C 0.67887 0.73333 0.85688 0.0
C260 C 0.66605 0.67597 0.85675 0.0
C261 C 0.63065 0.6393 0.86997 0.0
C262 C 0.67233 0.68337 0.00016 0.0
C263 C 0.26353 0.33176 0.89194 0.0
C264 C 0.95401 0.16833 0.12029 0.0
C265 C 0.98667 0.14104 0.11872 0.0
C266 C 0.95579 0.19901 0.1362 0.0
C267 C -0.00904 0.20228 0.15083 0.0
C268 C 0.02185 0.17262 0.14962 0.0
C269 C 0.01934 0.14237 0.13359 0.0
C270 C 0.92216 0.23009 0.13705 0.0
C271 C 0.05979 0.17512 0.16496 0.0
C272 C 0.05336 0.33634 0.18153 0.0
C273 C 0.01709 0.31634 0.19647 0.0
C274 C 0.04545 0.29945 0.16668 0.0
C275 C -9e-05 0.24111 0.16672 0.0
C276 C 0.96339 0.22036 0.18181 0.0
C277 C 0.97237 0.25836 0.19654 0.0
C278 C 0.08525 0.32328 0.15082 0.0
C279 C 0.91445 0.15835 0.18226 0.0
H280 H 0.92847 0.16731 0.10891 0.0
H281 H 0.04433 0.12096 0.13258 0.0
H282 H 0.89582 0.21949 0.14942 0.0
H283 H 0.95297 0.27741 0.13765 0.0
H284 H 0.89276 0.21891 0.12521 0.0
H285 H 0.07666 0.14542 0.1625 0.0
H286 H 0.0974 0.21973 0.16689 0.0
H287 H 0.03515 0.16395 0.17766 0.0
H288 H 0.08699 0.38149 0.1812 0.0
H289 H 0.94425 0.24287 0.20807 0.0
H290 H 0.05952 0.31972 0.13872 0.0
H291 H 0.10646 0.29774 0.14782 0.0
H292 H 0.11967 0.36926 0.15319 0.0
H293 H 0.88312 0.14858 0.17109 0.0
H294 H 0.89066 0.14879 0.19514 0.0
H295 H 0.9318 0.12896 0.18026 0.0
C296 C 0.82745 0.97773 0.45472 0.0
C297 C 0.88814 0.01307 0.45578 0.0
C298 C 0.79303 0.97219 0.4697 0.0
C299 C 0.82021 0.00195 0.48612 0.0
C300 C 0.88163 0.03481 0.48753 0.0
C301 C 0.91488 0.04039 0.47228 0.0
C302 C 0.72757 0.93729 0.46765 0.0
C303 C 0.91217 0.06638 0.5049 0.0
C304 C 0.73656 0.04976 0.51621 0.0
C305 C 0.71425 0.00724 0.52899 0.0
C306 C 0.77124 0.04848 0.50224 0.0
C307 C 0.7845 0.00393 0.50118 0.0
C308 C 0.76308 0.96147 0.51428 0.0
C309 C 0.72754 0.96327 0.52798 0.0
C310 C 0.79252 0.09407 0.48838 0.0
C311 C 0.77713 0.9139 0.51368 0.0
H312 H 0.80668 0.95656 0.44197 0.0
H313 H 0.96189 0.06722 0.4732 0.0
H314 H 0.70825 0.90647 0.47856 0.0
H315 H 0.70984 0.96656 0.46874 0.0
H316 H 0.71338 0.91278 0.45451 0.0
H317 H 0.95989 0.08411 0.50437 0.0
H318 H 0.90451 0.10264 0.50775 0.0
H319 H 0.89436 0.03717 0.51627 0.0
H320 H 0.72513 0.08301 0.51679 0.0
H321 H 0.70993 0.93031 0.53786 0.0
H322 H 0.77612 0.07337 0.47484 0.0
H323 H 0.84075 0.11789 0.48799 0.0
H324 H 0.77813 0.12562 0.49117 0.0
H325 H 0.75897 0.88673 0.50116 0.0
H326 H 0.75931 0.88585 0.52535 0.0
H327 H 0.82498 0.93264 0.51348 0.0
C328 C 0.91723 0.94116 0.78702 0.0
C329 C 0.90761 0.98646 0.78379 0.0
C330 C 0.8806 0.89704 0.7984 0.0
C331 C 0.83259 0.89773 0.80631 0.0
C332 C 0.82172 0.94243 0.80262 0.0
C333 C 0.85979 0.98664 0.79157 0.0
C334 C 0.89417 0.85068 0.80234 0.0
C335 C 0.77026 0.94398 0.81052 0.0
C336 C 0.70839 0.76151 0.82533 0.0
C337 C 0.71955 0.77355 0.8438 0.0
C338 C 0.74535 0.80123 0.81287 0.0
C339 C 0.79507 0.85334 0.81913 0.0
C340 C 0.80744 0.86459 0.8378 0.0
C341 C 0.76908 0.82477 0.84993 0.0
C342 C 0.7302 0.78834 0.79309 0.0
C343 C 0.86063 0.91913 0.84498 0.0
H344 H 0.95434 0.94108 0.78107 0.0
H345 H 0.85185 0.02127 0.78893 0.0
H346 H 0.90359 0.85246 0.81692 0.0
H347 H 0.85596 0.80739 0.79901 0.0
H348 H 0.93213 0.85539 0.7947 0.0
H349 H 0.7658 0.9796 0.80536 0.0
H350 H 0.72949 0.90247 0.80738 0.0
H351 H 0.775 0.9496 0.82536 0.0
H352 H 0.66981 0.72183 0.82068 0.0
H353 H 0.77777 0.83354 0.86426 0.0
H354 H 0.76733 0.79096 0.78553 0.0
H355 H 0.72162 0.82118 0.78779 0.0
H356 H 0.69124 0.74492 0.7904 0.0
H357 H 0.90029 0.92434 0.83835 0.0
H358 H 0.86614 0.91927 0.85975 0.0
H359 H 0.85721 0.95715 0.84186 0.0
C360 C 0.16188 0.96192 0.11428 0.0
C361 C 0.10884 0.96072 0.11524 0.0
C362 C 0.17379 0.92897 0.12573 0.0
C363 C 0.13162 0.89428 0.13834 0.0
C364 C 0.07875 0.89422 0.13964 0.0
C365 C 0.06807 0.9274 0.12809 0.0
C366 C 0.23068 0.93015 0.12407 0.0
C367 C 0.03267 0.85795 0.15296 0.0
C368 C 0.11348 0.75747 0.15621 0.0
C369 C 0.13107 0.77459 0.17419 0.0
C370 C 0.11787 0.79729 0.1439 0.0
C371 C 0.14051 0.85558 0.14974 0.0
C372 C 0.16277 0.87401 0.16747 0.0
C373 C 0.15766 0.83317 0.17954 0.0
C374 C 0.09393 0.77596 0.12506 0.0
C375 C 0.18761 0.93589 0.17415 0.0
H376 H 0.19357 0.98772 0.10439 0.0
H377 H 0.02716 0.92656 0.12901 0.0
H378 H 0.25258 0.93961 0.13741 0.0
H379 H 0.22228 0.8871 0.11919 0.0
H380 H 0.26072 0.96281 0.11464 0.0
H381 H -0.00524 0.86427 0.15262 0.0
H382 H 0.01689 0.81157 0.15 0.0
H383 H 0.05135 0.86876 0.16679 0.0
H384 H 0.09405 0.71237 0.15195 0.0
H385 H 0.17125 0.84661 0.19343 0.0
H386 H 0.12448 0.80532 0.11504 0.0
H387 H 0.05238 0.77541 0.12356 0.0
H388 H 0.08547 0.73168 0.12193 0.0
H389 H 0.21699 0.96604 0.16407 0.0
H390 H 0.21204 0.94524 0.18704 0.0
H391 H 0.15162 0.94458 0.17631 0.0
C392 C 0.16347 0.05924 0.44183 0.0
C393 C 0.18159 0.10903 0.4322 0.0
C394 C 0.19917 0.05773 0.45514 0.0
C395 C 0.25371 0.10773 0.45923 0.0
C396 C 0.27246 0.15816 0.44951 0.0
C397 C 0.23635 0.15797 0.4359 0.0
C398 C 0.17826 0.0027 0.46493 0.0
C399 C 0.32988 0.21256 0.4538 0.0
C400 C 0.30927 0.11061 0.50604 0.0
C401 C 0.34896 0.09248 0.50242 0.0
C402 C 0.2801 0.11877 0.49197 0.0
C403 C 0.29012 0.10706 0.474 0.0
C404 C 0.33129 0.08989 0.47034 0.0
C405 C 0.36072 0.08329 0.48467 0.0
C406 C 0.23727 0.13811 0.49635 0.0
C407 C 0.34223 0.07593 0.4514 0.0
H408 H 0.12135 0.02115 0.43884 0.0
H409 H 0.25019 0.19659 0.42852 0.0
H410 H 0.21106 -0.01084 0.464 0.0
H411 H 0.17285 0.01016 0.47939 0.0
H412 H 0.13611 0.96677 0.45945 0.0
H413 H 0.33857 0.24774 0.44475 0.0
H414 H 0.33004 0.2278 0.46788 0.0
H415 H 0.36602 0.20371 0.45268 0.0
H416 H 0.30075 0.11783 0.51987 0.0
H417 H 0.39151 0.06907 0.48207 0.0
H418 H 0.19245 0.10252 0.49295 0.0
H419 H 0.24608 0.17511 0.48818 0.0
H420 H 0.23897 0.151 0.5108 0.0
H421 H 0.30221 0.0375 0.44579 0.0
H422 H 0.37837 0.06689 0.45078 0.0
H423 H 0.35275 0.11218 0.44264 0.0
C424 C 0.19329 0.30083 0.76789 0.0
C425 C 0.17582 0.24468 0.77281 0.0
C426 C 0.23599 0.3491 0.77793 0.0
C427 C 0.26116 0.34075 0.79328 0.0
C428 C 0.24365 0.28415 0.79828 0.0
C429 C 0.20142 0.23681 0.78792 0.0
C430 C 0.25409 0.40889 0.77215 0.0
C431 C 0.26916 0.27352 0.81469 0.0
C432 C 0.40625 0.4531 0.81399 0.0
C433 C 0.38848 0.47163 0.82931 0.0
C434 C 0.36526 0.41314 0.80142 0.0
C435 C 0.30524 0.39081 0.80444 0.0
C436 C 0.28735 0.4119 0.81936 0.0
C437 C 0.32931 0.45231 0.8316 0.0
C438 C 0.38599 0.39224 0.78553 0.0
C439 C 0.22375 0.38874 0.82314 0.0
H440 H 0.17377 0.3071 0.75616 0.0
H441 H 0.18801 0.19351 0.7918 0.0
H442 H 0.24468 0.43245 0.78294 0.0
H443 H 0.30172 0.43375 0.76992 0.0
H444 H 0.23131 0.40798 0.75962 0.0
H445 H 0.25064 0.2268 0.81675 0.0
H446 H 0.31703 0.29418 0.81341 0.0
H447 H 0.26088 0.29331 0.82685 0.0
H448 H 0.4521 0.46836 0.8122 0.0
H449 H 0.31548 0.46604 0.84358 0.0
H450 H 0.36395 0.39232 0.77298 0.0
H451 H 0.37471 0.34712 0.78741 0.0
H452 H 0.43382 0.41919 0.78383 0.0
H453 H 0.20054 0.38884 0.81088 0.0
H454 H 0.21737 0.41416 0.83408 0.0
H455 H 0.20327 0.34333 0.82714 0.0
C456 C 0.89918 0.06777 0.69047 0.0
C457 C 0.90182 0.10385 0.70503 0.0
C458 C 0.8591 0.05295 0.67628 0.0
C459 C 0.82071 0.07452 0.67675 0.0
C460 C 0.82314 0.11088 0.69139 0.0
C461 C 0.86374 0.12522 0.70531 0.0
C462 C 0.85789 0.01438 0.6608 0.0
C463 C 0.78277 0.13465 0.69236 0.0
C464 C 0.7512 0.08811 0.63467 0.0
C465 C 0.69397 0.04177 0.63592 0.0
C466 C 0.79372 0.09771 0.64744 0.0
C467 C 0.77842 0.0602 0.66184 0.0
C468 C 0.7213 0.01188 0.66274 0.0
C469 C 0.67968 0.00311 0.64969 0.0
C470 C 0.85432 0.14935 0.64593 0.0
C471 C 0.70342 0.97109 0.67794 0.0
H472 H 0.92845 0.05107 0.69014 0.0
H473 H 0.86526 0.15293 0.71652 0.0
H474 H 0.81404 0.97508 0.65946 0.0
H475 H 0.86654 0.03707 0.64804 0.0
H476 H 0.89053 0.00104 0.6625 0.0
H477 H 0.78967 0.16162 0.70482 0.0
H478 H 0.78947 0.16127 0.68062 0.0
H479 H 0.73681 0.09871 0.69182 0.0
H480 H 0.76245 0.11748 0.62383 0.0
H481 H 0.63535 0.9674 0.65068 0.0
H482 H 0.88723 0.13613 0.64694 0.0
H483 H 0.86285 0.181 0.65721 0.0
H484 H 0.86049 0.17118 0.63309 0.0
H485 H 0.73462 0.95594 0.67948 0.0
H486 H 0.65902 0.93293 0.67583 0.0
H487 H 0.70424 -0.00588 0.69073 0.0
C488 C 0.90145 0.91625 0.0316 0.0
C489 C 0.96201 0.94135 0.03267 0.0
C490 C 0.87074 0.88769 0.0157 0.0
C491 C 0.90151 0.88472 0.00051 0.0
C492 C 0.9625 0.90923 0.00159 0.0
C493 C -0.00796 0.93707 0.0177 0.0
C494 C 0.80546 0.86126 0.01507 0.0
C495 C -0.00337 0.90693 0.98563 0.0
C496 C 0.81139 0.76902 0.96494 0.0
C497 C 0.7991 0.80011 0.9529 0.0
C498 C 0.8463 0.79641 0.98024 0.0
C499 C 0.86962 0.85632 0.98347 0.0
C500 C 0.85954 0.88843 0.97094 0.0
C501 C 0.82406 0.85979 0.9558 0.0
C502 C 0.85592 0.76078 -0.00664 0.0
C503 C 0.88414 0.95252 0.97392 0.0
H504 H 0.87806 0.91931 0.04315 0.0
H505 H 0.03891 0.9565 0.01845 0.0
H506 H 0.79356 0.88253 0.00491 0.0
H507 H 0.784 0.81482 0.01091 0.0
H508 H 0.78785 0.8654 0.02825 0.0
H509 H 0.04378 0.92709 -0.01119 0.0
H510 H 0.97953 0.86149 0.9809 0.0
H511 H -0.00859 0.92958 0.97435 0.0
H512 H 0.79116 0.72263 0.96291 0.0
H513 H 0.81444 0.88373 0.94648 0.0
H514 H 0.83663 0.76211 0.00649 0.0
H515 H 0.90317 0.77907 -0.00427 0.0
H516 H 0.83624 0.71497 -0.01146 0.0
H517 H 0.86411 0.96063 0.98594 0.0
H518 H 0.87603 0.97184 0.96223 0.0
H519 H 0.93174 0.9749 0.97655 0.0
C520 C 0.05155 0.93394 0.3522 0.0
C521 C 0.01202 0.92917 0.3655 0.0
C522 C 0.04636 0.88478 0.34325 0.0
C523 C 0.00023 0.8295 0.34759 0.0
C524 C 0.95972 0.82428 0.36082 0.0
C525 C 0.96624 0.87422 0.36969 0.0
C526 C 0.09056 0.89198 0.32924 0.0
C527 C 0.90953 0.766 0.36557 0.0
C528 C 0.96499 0.71315 0.31143 0.0
C529 C -0.00462 0.68744 0.31771 0.0
C530 C 0.96386 0.75762 0.32146 0.0
C531 C -0.00552 0.77739 0.33806 0.0
C532 C 0.02347 0.75028 0.3448 0.0
C533 C 0.02342 0.70543 0.33456 0.0
C534 C 0.9324 0.78541 0.31382 0.0
C535 C 0.05687 0.7705 0.36242 0.0
H536 H 0.08721 0.97615 0.34893 0.0
H537 H 0.93539 0.87014 0.37991 0.0
H538 H 0.11346 0.86946 0.33325 0.0
H539 H 0.06835 0.87192 0.31617 0.0
H540 H 0.12345 0.93803 0.32729 0.0
H541 H 0.88157 0.76937 0.37609 0.0
H542 H 0.88231 0.74342 0.35342 0.0
H543 H 0.92622 0.73877 0.37044 0.0
H544 H 0.94432 0.70046 0.29825 0.0
H545 H 0.04666 0.68545 0.3395 0.0
H546 H 0.96457 0.82986 0.30996 0.0
H547 H 0.9038 0.78879 0.32407 0.0
H548 H 0.90556 0.76095 0.30176 0.0
H549 H 0.09453 0.81494 0.36128 0.0
H550 H 0.07333 0.74212 0.36642 0.0
H551 H 0.02897 0.77209 0.37327 0.0
C552 C 0.17254 0.07539 0.69079 0.0
C553 C 0.14943 0.04688 0.70676 0.0
C554 C 0.21164 0.06603 0.68068 0.0
C555 C 0.22816 0.02731 0.68672 0.0
C556 C 0.20388 -0.0028 0.70257 0.0
C557 C 0.16466 0.00731 0.71241 0.0
C558 C 0.23627 0.0986 0.66374 0.0
C559 C 0.22031 0.95535 0.70932 0.0
C560 C 0.29661 0.97786 0.65097 0.0
C561 C 0.35605 0.01738 0.65404 0.0
C562 C 0.2544 0.97858 0.66208 0.0
C563 C 0.27214 0.0199 0.67658 0.0
C564 C 0.33218 0.05791 0.6803 0.0
C565 C 0.37348 0.05629 0.66894 0.0
C566 C 0.19083 0.93753 0.65762 0.0
C567 C 0.35276 0.10241 0.6957 0.0
H568 H 0.16081 0.10587 0.6863 0.0
H569 H 0.14695 0.98514 0.72475 0.0
H570 H 0.28417 0.12697 0.66522 0.0
H571 H 0.22781 0.06797 0.65216 0.0
H572 H 0.21743 0.12566 0.66058 0.0
H573 H 0.19553 0.93342 0.72142 0.0
H574 H 0.21238 0.9221 0.69864 0.0
H575 H 0.26747 0.97861 0.71272 0.0
H576 H 0.28285 0.94839 0.63927 0.0
H577 H 0.41943 0.08666 0.67137 0.0
H578 H 0.17153 0.96193 0.65228 0.0
H579 H 0.16658 0.91656 0.66987 0.0
H580 H 0.1844 0.90346 0.64741 0.0
H581 H 0.34066 0.13508 0.69295 0.0
H582 H 0.40067 0.12493 0.69781 0.0
H583 H 0.33119 0.08188 0.70832 0.0
C584 C 0.22417 0.23395 0.04823 0.0
C585 C 0.16568 0.21331 0.04375 0.0
C586 C 0.26929 0.27593 0.03804 0.0
C587 C 0.2554 0.29715 0.02298 0.0
C588 C 0.19659 0.27791 0.01877 0.0
C589 C 0.15252 0.2365 0.02926 0.0
C590 C 0.33165 0.29619 0.04303 0.0
C591 C 0.18 0.29935 0.00275 0.0
C592 C 0.36335 0.43327 2e-05 0.0
C593 C 0.37718 0.41033 0.98485 0.0
C594 C 0.32609 0.39712 0.01313 0.0
C595 C 0.30165 0.33672 0.01082 0.0
C596 C 0.31719 0.31359 -0.00415 0.0
C597 C 0.35503 0.35078 0.98307 0.0
C598 C 0.31109 0.42333 0.02906 0.0
C599 C 0.29153 0.24933 -0.00717 0.0
H600 H 0.23475 0.21652 0.05946 0.0
H601 H 0.10752 0.22103 0.02569 0.0
H602 H 0.35101 0.28127 0.03244 0.0
H603 H 0.35782 0.34404 0.04387 0.0
H604 H 0.33534 0.27965 0.05607 0.0
H605 H 0.13235 0.2818 0.00176 0.0
H606 H 0.20251 0.34715 0.00353 0.0
H607 H 0.1941 0.28663 -0.00979 0.0
H608 H 0.38112 0.47947 0.0015 0.0
H609 H 0.36535 0.33298 0.97126 0.0
H610 H 0.31613 0.40601 0.04173 0.0
H611 H 0.26489 0.41154 0.02798 0.0
H612 H 0.33874 0.47115 0.02994 0.0
H613 H 0.29765 0.2306 0.005 0.0
H614 H 0.31135 0.23868 0.98124 0.0
H615 H 0.24399 0.22821 -0.00974 0.0
C616 C 0.01767 0.22749 0.37442 0.0
C617 C 0.97335 0.16936 0.37451 0.0
C618 C 0.01667 0.2645 0.36198 0.0
C619 C 0.97033 0.24274 0.3493 0.0
C620 C 0.92427 0.18471 0.34976 0.0
C621 C 0.92627 0.14865 0.36242 0.0
C622 C 0.06643 0.3263 0.36196 0.0
C623 C 0.87417 0.16009 0.33643 0.0
C624 C 0.95606 0.35364 0.32365 0.0
C625 C 0.98708 0.35668 0.30806 0.0
C626 C 0.94872 0.3155 0.33706 0.0
C627 C 0.9728 0.27961 0.33469 0.0
C628 C 0.00236 0.28113 0.31868 0.0
C629 C 0.00918 0.31972 0.30556 0.0
C630 C 0.91703 0.31502 0.35398 0.0
C631 C 0.02823 0.24316 0.3156 0.0
H632 H 0.05396 0.24385 0.38383 0.0
H633 H 0.89176 0.10379 0.36247 0.0
H634 H 0.09133 0.33337 0.34938 0.0
H635 H 0.04952 0.35627 0.36231 0.0
H636 H 0.09675 0.3376 0.37356 0.0
H637 H 0.83935 0.11576 0.3396 0.0
H638 H 0.85505 0.18812 0.33614 0.0
H639 H 0.89023 0.15865 0.32274 0.0
H640 H 0.93922 0.38244 0.32563 0.0
H641 H 0.03234 0.32138 0.29337 0.0
H642 H 0.94784 0.33119 0.3656 0.0
H643 H 0.88234 0.2703 0.35672 0.0
H644 H 0.89711 0.3423 0.35315 0.0
H645 H 0.06298 0.25467 0.32577 0.0
H646 H 0.04717 0.24745 0.30201 0.0
H647 H -0.00552 0.19726 0.31723 0.0
loop_
_geom_bond_atom_site_label_1
_geom_bond_atom_site_label_2
_geom_bond_distance
_geom_bond_site_symmetry_2
_ccdc_geom_bond_type
C0 O1 1.306 . S
C0 O3 1.160 . S
O1 C0 1.306 . S
O1 Cd2 2.228 . S
Cd2 O1 2.228 . S
Cd2 O6 2.273 1_455 S
Cd2 O10 2.277 . S
O3 C0 1.160 . S
O3 Cd4 2.203 . S
Cd4 O3 2.203 . S
Cd4 O6 2.411 1_455 S
Cd4 O7 2.333 1_545 S
Cd4 O8 2.352 1_545 S
Cd4 O12 2.277 . S
Cd4 O13 2.356 . S
C5 O10 1.209 . S
C5 O12 1.226 . S
O6 Cd2 2.273 1_655 S
O6 Cd4 2.411 1_655 S
O6 C9 1.331 . S
O7 Cd4 2.333 1_565 S
O7 C9 1.205 1_465 S
O8 Cd4 2.352 1_565 S
O8 C11 1.258 . S
C9 O6 1.331 . S
C9 O7 1.205 1_645 S
O10 Cd2 2.277 . S
O10 C5 1.209 . S
C11 O8 1.258 . S
C11 O13 1.282 1_565 S
O12 Cd4 2.277 . S
O12 C5 1.226 . S
O13 Cd4 2.356 . S
O13 C11 1.282 1_545 S
C14 O15 1.306 . S
C14 O17 1.160 . S
O15 C14 1.306 . S
O15 Cd16 2.228 . S
Cd16 O15 2.228 . S
Cd16 O20 2.273 . S
Cd16 O24 2.281 . S
O17 C14 1.160 . S
O17 Cd18 2.203 1_455 S
Cd18 O17 2.203 1_655 S
Cd18 O20 2.411 1_655 S
Cd18 O21 2.333 . S
Cd18 O22 2.352 . S
Cd18 O26 2.277 1_545 S
Cd18 O27 2.356 1_545 S
C19 O24 1.205 1_565 S
C19 O26 1.226 1_455 S
O20 Cd16 2.273 . S
O20 Cd18 2.411 1_455 S
O20 C23 1.320 . S
O21 Cd18 2.333 . S
O21 C23 1.214 1_655 S
O22 Cd18 2.352 . S
O22 C25 1.258 . S
C23 O20 1.320 . S
C23 O21 1.214 1_455 S
O24 Cd16 2.281 . S
O24 C19 1.205 1_545 S
C25 O22 1.258 . S
C25 O27 1.282 1_545 S
O26 Cd18 2.277 1_565 S
O26 C19 1.226 1_655 S
O27 Cd18 2.356 1_565 S
O27 C25 1.282 1_565 S
C28 O29 1.306 . S
C28 O31 1.160 . S
O29 C28 1.306 . S
O29 Cd30 2.228 . S
Cd30 O29 2.228 . S
Cd30 O34 2.273 . S
Cd30 O38 2.277 . S
O31 C28 1.160 . S
O31 Cd32 2.203 . S
Cd32 O31 2.203 . S
Cd32 O34 2.411 . S
Cd32 O35 2.333 . S
Cd32 O36 2.352 . S
Cd32 O40 2.277 . S
Cd32 O41 2.356 . S
C33 O38 1.209 . S
C33 O40 1.226 . S
O34 Cd30 2.273 . S
O34 Cd32 2.411 . S
O34 C37 1.320 . S
O35 Cd32 2.333 . S
O35 C37 1.214 . S
O36 Cd32 2.352 . S
O36 C39 1.258 . S
C37 O34 1.320 . S
C37 O35 1.214 . S
O38 Cd30 2.277 . S
O38 C33 1.209 . S
C39 O36 1.258 . S
C39 O41 1.282 . S
O40 Cd32 2.277 . S
O40 C33 1.226 . S
O41 Cd32 2.356 . S
O41 C39 1.282 . S
H42 O68 0.856 . S
H43 O71 0.854 . S
H44 C79 0.930 . S
H45 C80 0.930 . S
H46 C82 0.930 . S
H47 C83 0.930 . S
H48 C85 0.931 1_655 S
H49 C86 0.930 1_655 S
H50 C88 0.930 . S
H51 C89 0.929 . S
H52 C91 0.930 1_655 S
H53 C92 0.931 1_655 S
H54 C94 0.930 . S
H55 C95 0.929 . S
H56 C97 0.931 1_655 S
H57 C98 0.930 1_655 S
H58 C100 0.930 . S
H59 C101 0.932 . S
H60 C103 0.930 . S
H61 C104 0.929 . S
H62 C106 0.931 . S
H63 C107 0.930 . S
H64 C109 0.929 . S
H65 C110 0.931 . S
H66 C112 0.930 . S
H67 C113 0.929 . S
O68 H42 0.856 . S
O68 C114 1.300 . S
O69 C114 1.209 . S
O70 C115 1.199 . S
O71 H43 0.854 . S
O71 C115 1.297 . S
C72 C73 1.404 . S
C72 C77 1.397 . S
C72 C78 1.492 . S
C73 C72 1.404 . S
C73 C74 1.396 . S
C73 C84 1.492 . S
C74 C73 1.396 . S
C74 C75 1.397 . S
C74 C90 1.509 . S
C75 C74 1.397 . S
C75 C76 1.412 . S
C75 C96 1.485 . S
C76 C75 1.412 . S
C76 C77 1.388 . S
C76 C102 1.490 . S
C77 C72 1.397 . S
C77 C76 1.388 . S
C77 C108 1.519 . S
C78 C72 1.492 . S
C78 C79 1.363 1_455 S
C78 C83 1.390 . S
C79 H44 0.930 . S
C79 C78 1.363 1_655 S
C79 C80 1.372 . S
C80 H45 0.930 . S
C80 C79 1.372 . S
C80 C81 1.383 1_655 S
C81 C80 1.383 1_455 S
C81 C82 1.395 . S
C82 H46 0.930 . S
C82 C81 1.395 . S
C82 C83 1.362 . S
C83 H47 0.930 . S
C83 C78 1.390 . S
C83 C82 1.362 . S
C84 C73 1.492 . S
C84 C85 1.377 . S
C84 C89 1.397 . S
C85 H48 0.931 1_455 S
C85 C84 1.377 . S
C85 C86 1.376 . S
C86 H49 0.930 1_455 S
C86 C85 1.376 . S
C86 C87 1.376 . S
C87 C86 1.376 . S
C87 C88 1.378 . S
C87 C114 1.486 . S
C88 H50 0.930 . S
C88 C87 1.378 . S
C88 C89 1.376 . S
C89 H51 0.929 . S
C89 C84 1.397 . S
C89 C88 1.376 . S
C90 C74 1.509 . S
C90 C91 1.391 . S
C90 C95 1.386 . S
C91 H52 0.930 1_455 S
C91 C90 1.391 . S
C91 C92 1.375 . S
C92 H53 0.931 1_455 S
C92 C91 1.375 . S
C92 C93 1.375 . S
C93 C92 1.375 . S
C93 C94 1.361 . S
C94 H54 0.930 . S
C94 C93 1.361 . S
C94 C95 1.399 . S
C95 H55 0.929 . S
C95 C90 1.386 . S
C95 C94 1.399 . S
C96 C75 1.485 . S
C96 C97 1.394 . S
C96 C101 1.360 . S
C97 H56 0.931 1_455 S
C97 C96 1.394 . S
C97 C98 1.372 . S
C98 H57 0.930 1_455 S
C98 C97 1.372 . S
C98 C99 1.397 . S
C99 C98 1.397 . S
C99 C100 1.390 . S
C99 C115 1.476 . S
C100 H58 0.930 . S
C100 C99 1.390 . S
C100 C101 1.366 . S
C101 H59 0.932 . S
C101 C96 1.360 . S
C101 C100 1.366 . S
C102 C76 1.490 . S
C102 C103 1.380 1_455 S
C102 C107 1.386 . S
C103 H60 0.930 . S
C103 C102 1.380 1_655 S
C103 C104 1.381 . S
C104 H61 0.929 . S
C104 C103 1.381 . S
C104 C105 1.371 1_655 S
C105 C104 1.371 1_455 S
C105 C106 1.380 . S
C106 H62 0.931 . S
C106 C105 1.380 . S
C106 C107 1.387 . S
C107 H63 0.930 . S
C107 C102 1.386 . S
C107 C106 1.387 . S
C108 C77 1.519 . S
C108 C109 1.377 1_455 S
C108 C113 1.361 . S
C109 H64 0.929 . S
C109 C108 1.377 1_655 S
C109 C110 1.386 . S
C110 H65 0.931 . S
C110 C109 1.386 . S
C110 C111 1.363 1_655 S
C111 C110 1.363 1_455 S
C111 C112 1.385 . S
C112 H66 0.930 . S
C112 C111 1.385 . S
C112 C113 1.396 . S
C113 H67 0.929 . S
C113 C108 1.361 . S
C113 C112 1.396 . S
C114 O68 1.300 . S
C114 O69 1.209 . S
C114 C87 1.486 . S
C115 O70 1.199 . S
C115 O71 1.297 . S
C115 C99 1.476 . S
H116 O142 0.856 . S
H117 O145 0.854 . S
H118 C153 0.930 1_565 S
H119 C154 0.930 1_565 S
H120 C156 0.930 . S
H121 C157 0.930 . S
H122 C159 0.931 . S
H123 C160 0.930 . S
H124 C162 0.930 . S
H125 C163 0.929 . S
H126 C165 0.930 . S
H127 C166 0.931 . S
H128 C168 0.930 . S
H129 C169 0.929 . S
H130 C171 0.931 . S
H131 C172 0.930 . S
H132 C174 0.930 . S
H133 C175 0.932 . S
H134 C177 0.930 . S
H135 C178 0.929 1_565 S
H136 C180 0.931 . S
H137 C181 0.930 . S
H138 C183 0.929 . S
H139 C184 0.931 . S
H140 C186 0.930 . S
H141 C187 0.929 . S
O142 H116 0.856 . S
O142 C188 1.300 . S
O143 C188 1.209 . S
O144 C189 1.199 . S
O145 H117 0.854 . S
O145 C189 1.297 . S
C146 C147 1.404 . S
C146 C151 1.397 . S
C146 C152 1.492 . S
C147 C146 1.404 . S
C147 C148 1.396 . S
C147 C158 1.492 . S
C148 C147 1.396 . S
C148 C149 1.397 . S
C148 C164 1.509 . S
C149 C148 1.397 . S
C149 C150 1.412 . S
C149 C170 1.485 . S
C150 C149 1.412 . S
C150 C151 1.388 . S
C150 C176 1.490 . S
C151 C146 1.397 . S
C151 C150 1.388 . S
C151 C182 1.519 . S
C152 C146 1.492 . S
C152 C153 1.363 . S
C152 C157 1.390 . S
C153 H118 0.930 1_545 S
C153 C152 1.363 . S
C153 C154 1.372 . S
C154 H119 0.930 1_545 S
C154 C153 1.372 . S
C154 C155 1.383 . S
C155 C154 1.383 . S
C155 C156 1.395 . S
C156 H120 0.930 . S
C156 C155 1.395 . S
C156 C157 1.362 . S
C157 H121 0.930 . S
C157 C152 1.390 . S
C157 C156 1.362 . S
C158 C147 1.492 . S
C158 C159 1.377 . S
C158 C163 1.397 . S
C159 H122 0.931 . S
C159 C158 1.377 . S
C159 C160 1.376 . S
C160 H123 0.930 . S
C160 C159 1.376 . S
C160 C161 1.376 . S
C161 C160 1.376 . S
C161 C162 1.378 . S
C161 C188 1.486 . S
C162 H124 0.930 . S
C162 C161 1.378 . S
C162 C163 1.376 . S
C163 H125 0.929 . S
C163 C158 1.397 . S
C163 C162 1.376 . S
C164 C148 1.509 . S
C164 C165 1.391 . S
C164 C169 1.386 . S
C165 H126 0.930 . S
C165 C164 1.391 . S
C165 C166 1.375 . S
C166 H127 0.931 . S
C166 C165 1.375 . S
C166 C167 1.375 . S
C167 C166 1.375 . S
C167 C168 1.361 . S
C168 H128 0.930 . S
C168 C167 1.361 . S
C168 C169 1.399 . S
C169 H129 0.929 . S
C169 C164 1.386 . S
C169 C168 1.399 . S
C170 C149 1.485 . S
C170 C171 1.394 . S
C170 C175 1.360 . S
C171 H130 0.931 . S
C171 C170 1.394 . S
C171 C172 1.372 . S
C172 H131 0.930 . S
C172 C171 1.372 . S
C172 C173 1.397 . S
C173 C172 1.397 . S
C173 C174 1.390 . S
C173 C189 1.476 . S
C174 H132 0.930 . S
C174 C173 1.390 . S
C174 C175 1.366 . S
C175 H133 0.932 . S
C175 C170 1.360 . S
C175 C174 1.366 . S
C176 C150 1.490 . S
C176 C177 1.380 . S
C176 C181 1.386 . S
C177 H134 0.930 . S
C177 C176 1.380 . S
C177 C178 1.381 . S
C178 H135 0.929 1_545 S
C178 C177 1.381 . S
C178 C179 1.371 . S
C179 C178 1.371 . S
C179 C180 1.380 . S
C180 H136 0.931 . S
C180 C179 1.380 . S
C180 C181 1.387 . S
C181 H137 0.930 . S
C181 C176 1.386 . S
C181 C180 1.387 . S
C182 C151 1.519 . S
C182 C183 1.377 . S
C182 C187 1.361 . S
C183 H138 0.929 . S
C183 C182 1.377 . S
C183 C184 1.386 . S
C184 H139 0.931 . S
C184 C183 1.386 . S
C184 C185 1.363 . S
C185 C184 1.363 . S
C185 C186 1.385 . S
C186 H140 0.930 . S
C186 C185 1.385 . S
C186 C187 1.396 . S
C187 H141 0.929 . S
C187 C182 1.361 . S
C187 C186 1.396 . S
C188 O142 1.300 . S
C188 O143 1.209 . S
C188 C161 1.486 . S
C189 O144 1.199 . S
C189 O145 1.297 . S
C189 C173 1.476 . S
H190 O216 0.856 . S
H191 O219 0.854 . S
H192 C227 0.930 . S
H193 C228 0.930 . S
H194 C230 0.930 . S
H195 C231 0.930 . S
H196 C233 0.931 . S
H197 C234 0.930 . S
H198 C236 0.930 1_554 S
H199 C237 0.929 . S
H200 C239 0.930 . S
H201 C240 0.931 . S
H202 C242 0.930 . S
H203 C243 0.929 . S
H204 C245 0.931 . S
H205 C246 0.930 . S
H206 C248 0.930 . S
H207 C249 0.932 . S
H208 C251 0.930 . S
H209 C252 0.929 . S
H210 C254 0.931 . S
H211 C255 0.930 . S
H212 C257 0.929 . S
H213 C258 0.931 . S
H214 C260 0.930 . S
H215 C261 0.929 . S
O216 H190 0.856 . S
O216 C262 1.300 . S
O217 C262 1.209 . S
O218 C263 1.199 . S
O219 H191 0.854 . S
O219 C263 1.297 . S
C220 C221 1.404 . S
C220 C225 1.397 . S
C220 C226 1.492 . S
C221 C220 1.404 . S
C221 C222 1.396 . S
C221 C232 1.492 . S
C222 C221 1.396 . S
C222 C223 1.397 . S
C222 C238 1.509 . S
C223 C222 1.397 . S
C223 C224 1.412 . S
C223 C244 1.485 . S
C224 C223 1.412 . S
C224 C225 1.388 . S
C224 C250 1.490 . S
C225 C220 1.397 . S
C225 C224 1.388 . S
C225 C256 1.519 . S
C226 C220 1.492 . S
C226 C227 1.363 . S
C226 C231 1.390 . S
C227 H192 0.930 . S
C227 C226 1.363 . S
C227 C228 1.372 . S
C228 H193 0.930 . S
C228 C227 1.372 . S
C228 C229 1.383 . S
C229 C228 1.383 . S
C229 C230 1.395 . S
C230 H194 0.930 . S
C230 C229 1.395 . S
C230 C231 1.362 . S
C231 H195 0.930 . S
C231 C226 1.390 . S
C231 C230 1.362 . S
C232 C221 1.492 . S
C232 C233 1.377 . S
C232 C237 1.397 . S
C233 H196 0.931 . S
C233 C232 1.377 . S
C233 C234 1.376 1_556 S
C234 H197 0.930 . S
C234 C233 1.376 1_554 S
C234 C235 1.376 . S
C235 C234 1.376 . S
C235 C236 1.378 1_554 S
C235 C262 1.486 . S
C236 H198 0.930 1_556 S
C236 C235 1.378 1_556 S
C236 C237 1.376 . S
C237 H199 0.929 . S
C237 C232 1.397 . S
C237 C236 1.376 . S
C238 C222 1.509 . S
C238 C239 1.391 . S
C238 C243 1.386 . S
C239 H200 0.930 . S
C239 C238 1.391 . S
C239 C240 1.375 . S
C240 H201 0.931 . S
C240 C239 1.375 . S
C240 C241 1.375 . S
C241 C240 1.375 . S
C241 C242 1.361 . S
C242 H202 0.930 . S
C242 C241 1.361 . S
C242 C243 1.399 . S
C243 H203 0.929 . S
C243 C238 1.386 . S
C243 C242 1.399 . S
C244 C223 1.485 . S
C244 C245 1.394 . S
C244 C249 1.360 . S
C245 H204 0.931 . S
C245 C244 1.394 . S
C245 C246 1.372 . S
C246 H205 0.930 . S
C246 C245 1.372 . S
C246 C247 1.397 . S
C247 C246 1.397 . S
C247 C248 1.390 . S
C247 C263 1.476 . S
C248 H206 0.930 . S
C248 C247 1.390 . S
C248 C249 1.366 . S
C249 H207 0.932 . S
C249 C244 1.360 . S
C249 C248 1.366 . S
C250 C224 1.490 . S
C250 C251 1.380 . S
C250 C255 1.386 . S
C251 H208 0.930 . S
C251 C250 1.380 . S
C251 C252 1.381 . S
C252 H209 0.929 . S
C252 C251 1.381 . S
C252 C253 1.371 . S
C253 C252 1.371 . S
C253 C254 1.380 . S
C254 H210 0.931 . S
C254 C253 1.380 . S
C254 C255 1.387 . S
C255 H211 0.930 . S
C255 C250 1.386 . S
C255 C254 1.387 . S
C256 C225 1.519 . S
C256 C257 1.377 . S
C256 C261 1.361 . S
C257 H212 0.929 . S
C257 C256 1.377 . S
C257 C258 1.386 . S
C258 H213 0.931 . S
C258 C257 1.386 . S
C258 C259 1.363 . S
C259 C258 1.363 . S
C259 C260 1.385 . S
C260 H214 0.930 . S
C260 C259 1.385 . S
C260 C261 1.396 . S
C261 H215 0.929 . S
C261 C256 1.361 . S
C261 C260 1.396 . S
C262 O216 1.300 . S
C262 O217 1.209 . S
C262 C235 1.486 . S
C263 O218 1.199 . S
C263 O219 1.297 . S
C263 C247 1.476 . S
C264 C265 1.391 1_655 S
C264 C266 1.394 . S
C264 H280 0.931 . S
C265 C264 1.391 1_455 S
C265 C269 1.376 . S
C266 C264 1.394 . S
C266 C267 1.369 1_655 S
C266 C270 1.531 . S
C267 C266 1.369 1_455 S
C267 C268 1.410 . S
C267 C275 1.503 . S
C268 C267 1.410 . S
C268 C269 1.392 . S
C268 C271 1.511 . S
C269 C265 1.376 . S
C269 C268 1.392 . S
C269 H281 0.929 . S
C270 C266 1.531 . S
C270 H282 0.960 . S
C270 H283 0.962 . S
C270 H284 0.960 . S
C271 C268 1.511 . S
C271 H285 0.961 . S
C271 H286 0.961 . S
C271 H287 0.961 . S
C272 C273 1.370 . S
C272 C274 1.363 . S
C272 H288 0.931 . S
C273 C272 1.370 . S
C273 C277 1.408 . S
C274 C272 1.363 . S
C274 C275 1.370 . S
C274 C278 1.524 . S
C275 C267 1.503 . S
C275 C274 1.370 . S
C275 C276 1.403 . S
C276 C275 1.403 . S
C276 C277 1.404 . S
C276 C279 1.539 . S
C277 C273 1.408 . S
C277 C276 1.404 . S
C277 H289 0.929 1_455 S
C278 C274 1.524 . S
C278 H290 0.956 . S
C278 H291 0.961 . S
C278 H292 0.961 . S
C279 C276 1.539 . S
C279 H293 0.958 1_455 S
C279 H294 0.961 . S
C279 H295 0.960 . S
H280 C264 0.931 . S
H281 C269 0.929 . S
H282 C270 0.960 . S
H283 C270 0.962 . S
H284 C270 0.960 . S
H285 C271 0.961 . S
H286 C271 0.961 . S
H287 C271 0.961 . S
H288 C272 0.931 . S
H289 C277 0.929 1_655 S
H290 C278 0.956 . S
H291 C278 0.961 . S
H292 C278 0.961 . S
H293 C279 0.958 1_655 S
H294 C279 0.961 . S
H295 C279 0.960 . S
C296 C297 1.391 . S
C296 C298 1.394 . S
C296 H312 0.931 . S
C297 C296 1.391 . S
C297 C301 1.376 . S
C298 C296 1.394 . S
C298 C299 1.369 . S
C298 C302 1.531 . S
C299 C298 1.369 . S
C299 C300 1.410 . S
C299 C307 1.503 . S
C300 C299 1.410 . S
C300 C301 1.392 . S
C300 C303 1.511 . S
C301 C297 1.376 . S
C301 C300 1.392 . S
C301 H313 0.929 . S
C302 C298 1.531 . S
C302 H314 0.960 . S
C302 H315 0.962 . S
C302 H316 0.960 . S
C303 C300 1.511 . S
C303 H317 0.961 . S
C303 H318 0.961 . S
C303 H319 0.961 1_545 S
C304 C305 1.370 . S
C304 C306 1.363 . S
C304 H320 0.931 . S
C305 C304 1.370 . S
C305 C309 1.408 1_545 S
C306 C304 1.363 . S
C306 C307 1.370 . S
C306 C310 1.524 . S
C307 C299 1.503 . S
C307 C306 1.370 . S
C307 C308 1.403 1_545 S
C308 C307 1.403 1_565 S
C308 C309 1.404 . S
C308 C311 1.539 . S
C309 C305 1.408 1_565 S
C309 C308 1.404 . S
C309 H321 0.930 . S
C310 C306 1.524 . S
C310 H322 0.956 . S
C310 H323 0.961 . S
C310 H324 0.961 . S
C311 C308 1.539 . S
C311 H325 0.958 . S
C311 H326 0.961 . S
C311 H327 0.960 . S
H312 C296 0.931 . S
H313 C301 0.929 . S
H314 C302 0.960 . S
H315 C302 0.962 . S
H316 C302 0.960 . S
H317 C303 0.961 . S
H318 C303 0.961 . S
H319 C303 0.961 1_565 S
H320 C304 0.931 . S
H321 C309 0.930 . S
H322 C310 0.956 . S
H323 C310 0.961 . S
H324 C310 0.961 . S
H325 C311 0.958 . S
H326 C311 0.961 . S
H327 C311 0.960 . S
C328 C329 1.391 . S
C328 C330 1.394 . S
C328 H344 0.922 1_655 S
C329 C328 1.391 . S
C329 C333 1.376 . S
C330 C328 1.394 . S
C330 C331 1.369 . S
C330 C334 1.531 . S
C331 C330 1.369 . S
C331 C332 1.410 . S
C331 C339 1.503 . S
C332 C331 1.410 . S
C332 C333 1.392 . S
C332 C335 1.511 . S
C333 C329 1.376 . S
C333 C332 1.392 . S
C333 H345 0.929 . S
C334 C330 1.531 . S
C334 H346 0.960 . S
C334 H347 0.962 . S
C334 H348 0.960 . S
C335 C332 1.511 . S
C335 H349 0.961 . S
C335 H350 0.961 . S
C335 H351 0.961 . S
C336 C337 1.370 . S
C336 C338 1.363 . S
C336 H352 0.931 . S
C337 C336 1.370 . S
C337 C341 1.408 . S
C338 C336 1.363 . S
C338 C339 1.370 . S
C338 C342 1.524 . S
C339 C331 1.503 . S
C339 C338 1.370 . S
C339 C340 1.403 . S
C340 C339 1.403 . S
C340 C341 1.404 . S
C340 C343 1.539 . S
C341 C337 1.408 . S
C341 C340 1.404 . S
C341 H353 0.930 . S
C342 C338 1.524 . S
C342 H354 0.956 . S
C342 H355 0.961 . S
C342 H356 0.961 . S
C343 C340 1.539 . S
C343 H357 0.958 . S
C343 H358 0.961 . S
C343 H359 0.960 . S
H344 C328 0.922 1_455 S
H345 C333 0.929 . S
H346 C334 0.960 . S
H347 C334 0.962 . S
H348 C334 0.960 . S
H349 C335 0.961 . S
H350 C335 0.961 . S
H351 C335 0.961 . S
H352 C336 0.931 . S
H353 C341 0.930 . S
H354 C342 0.956 . S
H355 C342 0.961 . S
H356 C342 0.961 . S
H357 C343 0.958 . S
H358 C343 0.961 . S
H359 C343 0.960 . S
C360 C361 1.391 . S
C360 C362 1.394 . S
C360 H376 0.931 . S
C361 C360 1.391 . S
C361 C365 1.376 . S
C362 C360 1.394 . S
C362 C363 1.369 . S
C362 C366 1.531 . S
C363 C362 1.369 . S
C363 C364 1.410 . S
C363 C371 1.503 . S
C364 C363 1.410 . S
C364 C365 1.392 . S
C364 C367 1.511 . S
C365 C361 1.376 . S
C365 C364 1.392 . S
C365 H377 0.929 1_565 S
C366 C362 1.531 . S
C366 H378 0.960 . S
C366 H379 0.962 . S
C366 H380 0.960 . S
C367 C364 1.511 . S
C367 H381 0.960 . S
C367 H382 0.961 . S
C367 H383 0.961 . S
C368 C369 1.370 . S
C368 C370 1.363 . S
C368 H384 0.918 1_455 S
C369 C368 1.370 . S
C369 C373 1.408 . S
C370 C368 1.363 . S
C370 C371 1.370 . S
C370 C374 1.524 1_455 S
C371 C363 1.503 . S
C371 C370 1.370 . S
C371 C372 1.403 . S
C372 C371 1.403 . S
C372 C373 1.404 . S
C372 C375 1.539 . S
C373 C369 1.408 . S
C373 C372 1.404 . S
C373 H385 0.930 . S
C374 C370 1.524 1_655 S
C374 H386 0.956 . S
C374 H387 0.961 . S
C374 H388 0.961 . S
C375 C372 1.539 . S
C375 H389 0.958 . S
C375 H390 0.961 . S
C375 H391 0.960 . S
H376 C360 0.931 . S
H377 C365 0.929 1_545 S
H378 C366 0.960 . S
H379 C366 0.962 . S
H380 C366 0.960 . S
H381 C367 0.960 . S
H382 C367 0.961 . S
H383 C367 0.961 . S
H384 C368 0.918 1_655 S
H385 C373 0.930 . S
H386 C374 0.956 . S
H387 C374 0.961 . S
H388 C374 0.961 . S
H389 C375 0.958 . S
H390 C375 0.961 . S
H391 C375 0.960 . S
C392 C393 1.391 . S
C392 C394 1.394 . S
C392 H408 0.931 1_545 S
C393 C392 1.391 . S
C393 C397 1.376 . S
C394 C392 1.394 . S
C394 C395 1.369 . S
C394 C398 1.531 1_545 S
C395 C394 1.369 . S
C395 C396 1.410 . S
C395 C403 1.503 . S
C396 C395 1.410 . S
C396 C397 1.392 . S
C396 C399 1.511 . S
C397 C393 1.376 . S
C397 C396 1.392 . S
C397 H409 0.929 . S
C398 C394 1.531 1_565 S
C398 H410 0.960 . S
C398 H411 0.962 . S
C398 H412 0.960 . S
C399 C396 1.511 . S
C399 H413 0.961 . S
C399 H414 0.961 . S
C399 H415 0.961 . S
C400 C401 1.370 . S
C400 C402 1.363 . S
C400 H416 0.931 . S
C401 C400 1.370 . S
C401 C405 1.408 . S
C402 C400 1.363 . S
C402 C403 1.370 . S
C402 C406 1.524 . S
C403 C395 1.503 . S
C403 C402 1.370 . S
C403 C404 1.403 . S
C404 C403 1.403 . S
C404 C405 1.404 . S
C404 C407 1.539 . S
C405 C401 1.408 . S
C405 C404 1.404 . S
C405 H417 0.930 . S
C406 C402 1.524 . S
C406 H418 0.956 . S
C406 H419 0.961 . S
C406 H420 0.961 . S
C407 C404 1.539 . S
C407 H421 0.958 . S
C407 H422 0.961 . S
C407 H423 0.960 . S
H408 C392 0.931 1_565 S
H409 C397 0.929 . S
H410 C398 0.960 . S
H411 C398 0.962 . S
H412 C398 0.960 . S
H413 C399 0.961 . S
H414 C399 0.961 . S
H415 C399 0.961 . S
H416 C400 0.931 . S
H417 C405 0.930 . S
H418 C406 0.956 . S
H419 C406 0.961 . S
H420 C406 0.961 . S
H421 C407 0.958 . S
H422 C407 0.961 . S
H423 C407 0.960 . S
C424 C425 1.391 . S
C424 C426 1.394 . S
C424 H440 0.931 . S
C425 C424 1.391 . S
C425 C429 1.376 . S
C426 C424 1.394 . S
C426 C427 1.369 . S
C426 C430 1.531 . S
C427 C426 1.369 . S
C427 C428 1.410 . S
C427 C435 1.503 . S
C428 C427 1.410 . S
C428 C429 1.392 . S
C428 C431 1.511 . S
C429 C425 1.376 . S
C429 C428 1.392 . S
C429 H441 0.929 . S
C430 C426 1.531 . S
C430 H442 0.960 . S
C430 H443 0.962 . S
C430 H444 0.960 . S
C431 C428 1.511 . S
C431 H445 0.961 . S
C431 H446 0.961 . S
C431 H447 0.961 . S
C432 C433 1.370 . S
C432 C434 1.363 . S
C432 H448 0.931 . S
C433 C432 1.370 . S
C433 C437 1.408 . S
C434 C432 1.363 . S
C434 C435 1.370 . S
C434 C438 1.524 . S
C435 C427 1.503 . S
C435 C434 1.370 . S
C435 C436 1.403 . S
C436 C435 1.403 . S
C436 C437 1.404 . S
C436 C439 1.539 . S
C437 C433 1.408 . S
C437 C436 1.404 . S
C437 H449 0.930 . S
C438 C434 1.524 . S
C438 H450 0.956 . S
C438 H451 0.961 . S
C438 H452 0.961 . S
C439 C436 1.539 . S
C439 H453 0.958 . S
C439 H454 0.961 . S
C439 H455 0.960 . S
H440 C424 0.931 . S
H441 C429 0.929 . S
H442 C430 0.960 . S
H443 C430 0.962 . S
H444 C430 0.960 . S
H445 C431 0.961 . S
H446 C431 0.961 . S
H447 C431 0.961 . S
H448 C432 0.931 . S
H449 C437 0.930 . S
H450 C438 0.956 . S
H451 C438 0.961 . S
H452 C438 0.961 . S
H453 C439 0.958 . S
H454 C439 0.961 . S
H455 C439 0.960 . S
C456 C457 1.391 . S
C456 C458 1.394 . S
C456 H472 0.931 . S
C457 C456 1.391 . S
C457 C461 1.376 . S
C458 C456 1.394 . S
C458 C459 1.369 . S
C458 C462 1.526 1_545 S
C459 C458 1.369 . S
C459 C460 1.410 . S
C459 C467 1.503 . S
C460 C459 1.410 . S
C460 C461 1.392 . S
C460 C463 1.511 . S
C461 C457 1.376 . S
C461 C460 1.392 . S
C461 H473 0.929 . S
C462 C458 1.526 1_565 S
C462 H474 0.956 . S
C462 H475 0.963 1_565 S
C462 H476 0.967 . S
C463 C460 1.511 . S
C463 H477 0.961 . S
C463 H478 0.961 . S
C463 H479 0.961 . S
C464 C465 1.370 . S
C464 C466 1.363 . S
C464 H480 0.931 . S
C465 C464 1.370 . S
C465 C469 1.408 . S
C466 C464 1.363 . S
C466 C467 1.370 . S
C466 C470 1.524 . S
C467 C459 1.503 . S
C467 C466 1.370 . S
C467 C468 1.403 . S
C468 C467 1.403 . S
C468 C469 1.404 . S
C468 C471 1.539 . S
C469 C465 1.408 . S
C469 C468 1.404 . S
C469 H481 0.930 . S
C470 C466 1.524 . S
C470 H482 0.956 . S
C470 H483 0.961 . S
C470 H484 0.961 . S
C471 C468 1.539 . S
C471 H485 0.958 . S
C471 H486 0.961 . S
C471 H487 0.960 . S
H472 C456 0.931 . S
H473 C461 0.929 . S
H474 C462 0.956 . S
H475 C462 0.963 1_545 S
H476 C462 0.967 . S
H477 C463 0.961 . S
H478 C463 0.961 . S
H479 C463 0.961 . S
H480 C464 0.931 . S
H481 C469 0.930 . S
H482 C470 0.956 . S
H483 C470 0.961 . S
H484 C470 0.961 . S
H485 C471 0.958 . S
H486 C471 0.961 . S
H487 C471 0.960 . S
C488 C489 1.391 . S
C488 C490 1.394 . S
C488 H504 0.931 . S
C489 C488 1.391 . S
C489 C493 1.376 . S
C490 C488 1.394 . S
C490 C491 1.369 . S
C490 C494 1.531 . S
C491 C490 1.369 . S
C491 C492 1.410 . S
C491 C499 1.500 . S
C492 C491 1.410 . S
C492 C493 1.392 . S
C492 C495 1.511 1_554 S
C493 C489 1.376 . S
C493 C492 1.392 . S
C493 H505 0.929 1_655 S
C494 C490 1.531 . S
C494 H506 0.960 . S
C494 H507 0.962 . S
C494 H508 0.960 . S
C495 C492 1.511 1_556 S
C495 H509 0.961 1_556 S
C495 H510 0.961 . S
C495 H511 0.961 . S
C496 C497 1.370 . S
C496 C498 1.363 . S
C496 H512 0.931 . S
C497 C496 1.370 . S
C497 C501 1.408 . S
C498 C496 1.363 . S
C498 C499 1.371 1_556 S
C498 C502 1.524 1_556 S
C499 C491 1.500 . S
C499 C498 1.371 1_554 S
C499 C500 1.406 1_554 S
C500 C499 1.406 1_556 S
C500 C501 1.404 . S
C500 C503 1.539 1_565 S
C501 C497 1.408 . S
C501 C500 1.404 . S
C501 H513 0.930 . S
C502 C498 1.524 1_554 S
C502 H514 0.956 . S
C502 H515 0.961 . S
C502 H516 0.961 . S
C503 C500 1.539 1_545 S
C503 H517 0.958 . S
C503 H518 0.961 . S
C503 H519 0.960 . S
H504 C488 0.931 . S
H505 C493 0.929 1_455 S
H506 C494 0.960 . S
H507 C494 0.962 . S
H508 C494 0.960 . S
H509 C495 0.961 1_554 S
H510 C495 0.961 . S
H511 C495 0.961 . S
H512 C496 0.931 . S
H513 C501 0.930 . S
H514 C502 0.956 . S
H515 C502 0.961 . S
H516 C502 0.961 . S
H517 C503 0.958 . S
H518 C503 0.961 . S
H519 C503 0.960 . S
C520 C521 1.391 . S
C520 C522 1.394 . S
C520 H536 0.931 . S
C521 C520 1.391 . S
C521 C525 1.376 1_455 S
C522 C520 1.394 . S
C522 C523 1.369 . S
C522 C526 1.531 . S
C523 C522 1.369 . S
C523 C524 1.410 1_455 S
C523 C531 1.503 . S
C524 C523 1.410 1_655 S
C524 C525 1.392 . S
C524 C527 1.511 . S
C525 C521 1.376 1_655 S
C525 C524 1.392 . S
C525 H537 0.929 . S
C526 C522 1.531 . S
C526 H538 0.960 . S
C526 H539 0.962 . S
C526 H540 0.960 . S
C527 C524 1.511 . S
C527 H541 0.961 . S
C527 H542 0.961 . S
C527 H543 0.961 . S
C528 C529 1.370 . S
C528 C530 1.363 . S
C528 H544 0.931 . S
C529 C528 1.370 . S
C529 C533 1.408 1_455 S
C530 C528 1.363 . S
C530 C531 1.370 . S
C530 C534 1.524 . S
C531 C523 1.503 . S
C531 C530 1.370 . S
C531 C532 1.403 1_455 S
C532 C531 1.403 1_655 S
C532 C533 1.404 . S
C532 C535 1.539 . S
C533 C529 1.408 1_655 S
C533 C532 1.404 . S
C533 H545 0.930 . S
C534 C530 1.524 . S
C534 H546 0.956 . S
C534 H547 0.961 1_455 S
C534 H548 0.961 . S
C535 C532 1.539 . S
C535 H549 0.958 1_655 S
C535 H550 0.961 . S
C535 H551 0.960 . S
H536 C520 0.931 . S
H537 C525 0.929 . S
H538 C526 0.960 . S
H539 C526 0.962 . S
H540 C526 0.960 . S
H541 C527 0.961 . S
H542 C527 0.961 . S
H543 C527 0.961 . S
H544 C528 0.931 . S
H545 C533 0.930 . S
H546 C534 0.956 . S
H547 C534 0.961 1_655 S
H548 C534 0.961 . S
H549 C535 0.958 1_455 S
H550 C535 0.961 . S
H551 C535 0.960 . S
C552 C553 1.391 . S
C552 C554 1.394 . S
C552 H568 0.931 . S
C553 C552 1.391 . S
C553 C557 1.376 . S
C554 C552 1.394 . S
C554 C555 1.369 . S
C554 C558 1.531 . S
C555 C554 1.369 . S
C555 C556 1.410 . S
C555 C563 1.503 . S
C556 C555 1.410 . S
C556 C557 1.392 . S
C556 C559 1.511 1_545 S
C557 C553 1.376 . S
C557 C556 1.392 . S
C557 H569 0.929 . S
C558 C554 1.531 . S
C558 H570 0.960 . S
C558 H571 0.962 . S
C558 H572 0.960 . S
C559 C556 1.511 1_565 S
C559 H573 0.961 . S
C559 H574 0.961 . S
C559 H575 0.961 . S
C560 C561 1.370 . S
C560 C562 1.363 . S
C560 H576 0.931 . S
C561 C560 1.370 . S
C561 C565 1.408 . S
C562 C560 1.363 . S
C562 C563 1.370 . S
C562 C566 1.524 . S
C563 C555 1.503 . S
C563 C562 1.370 . S
C563 C564 1.403 . S
C564 C563 1.403 . S
C564 C565 1.404 . S
C564 C567 1.539 . S
C565 C561 1.408 . S
C565 C564 1.404 . S
C565 H577 0.930 . S
C566 C562 1.524 . S
C566 H578 0.956 . S
C566 H579 0.961 . S
C566 H580 0.961 . S
C567 C564 1.539 . S
C567 H581 0.958 . S
C567 H582 0.961 . S
C567 H583 0.960 . S
H568 C552 0.931 . S
H569 C557 0.929 . S
H570 C558 0.960 . S
H571 C558 0.962 . S
H572 C558 0.960 . S
H573 C559 0.961 . S
H574 C559 0.961 . S
H575 C559 0.961 . S
H576 C560 0.931 . S
H577 C565 0.930 . S
H578 C566 0.956 . S
H579 C566 0.961 . S
H580 C566 0.961 . S
H581 C567 0.958 . S
H582 C567 0.961 . S
H583 C567 0.960 . S
C584 C585 1.391 . S
C584 C586 1.394 . S
C584 H600 0.931 . S
C585 C584 1.391 . S
C585 C589 1.376 . S
C586 C584 1.394 . S
C586 C587 1.369 . S
C586 C590 1.531 . S
C587 C586 1.369 . S
C587 C588 1.410 . S
C587 C595 1.503 . S
C588 C587 1.410 . S
C588 C589 1.392 . S
C588 C591 1.511 . S
C589 C585 1.376 . S
C589 C588 1.392 . S
C589 H601 0.929 . S
C590 C586 1.531 . S
C590 H602 0.960 . S
C590 H603 0.962 . S
C590 H604 0.960 . S
C591 C588 1.511 . S
C591 H605 0.961 . S
C591 H606 0.961 . S
C591 H607 0.961 . S
C592 C593 1.370 1_554 S
C592 C594 1.363 . S
C592 H608 0.931 . S
C593 C592 1.370 1_556 S
C593 C597 1.408 . S
C594 C592 1.363 . S
C594 C595 1.370 . S
C594 C598 1.524 . S
C595 C587 1.503 . S
C595 C594 1.370 . S
C595 C596 1.403 . S
C596 C595 1.403 . S
C596 C597 1.404 1_554 S
C596 C599 1.539 . S
C597 C593 1.408 . S
C597 C596 1.404 1_556 S
C597 H609 0.930 . S
C598 C594 1.524 . S
C598 H610 0.956 . S
C598 H611 0.961 . S
C598 H612 0.961 . S
C599 C596 1.539 . S
C599 H613 0.958 . S
C599 H614 0.961 1_554 S
C599 H615 0.960 . S
H600 C584 0.931 . S
H601 C589 0.929 . S
H602 C590 0.960 . S
H603 C590 0.962 . S
H604 C590 0.960 . S
H605 C591 0.961 . S
H606 C591 0.961 . S
H607 C591 0.961 . S
H608 C592 0.931 . S
H609 C597 0.930 . S
H610 C598 0.956 . S
H611 C598 0.961 . S
H612 C598 0.961 . S
H613 C599 0.958 . S
H614 C599 0.961 1_556 S
H615 C599 0.960 . S
C616 C617 1.391 . S
C616 C618 1.394 . S
C616 H632 0.931 . S
C617 C616 1.391 . S
C617 C621 1.376 . S
C618 C616 1.394 . S
C618 C619 1.369 . S
C618 C622 1.531 . S
C619 C618 1.369 . S
C619 C620 1.410 . S
C619 C627 1.503 . S
C620 C619 1.410 . S
C620 C621 1.392 . S
C620 C623 1.511 . S
C621 C617 1.376 . S
C621 C620 1.392 . S
C621 H633 0.929 . S
C622 C618 1.531 . S
C622 H634 0.960 . S
C622 H635 0.962 1_455 S
C622 H636 0.960 . S
C623 C620 1.511 . S
C623 H637 0.961 . S
C623 H638 0.961 . S
C623 H639 0.961 . S
C624 C625 1.369 1_655 S
C624 C626 1.364 . S
C624 H640 0.933 . S
C625 C624 1.369 1_455 S
C625 C629 1.408 . S
C626 C624 1.364 . S
C626 C627 1.365 1_655 S
C626 C630 1.527 . S
C627 C619 1.503 . S
C627 C626 1.365 1_455 S
C627 C628 1.403 . S
C628 C627 1.403 . S
C628 C629 1.404 . S
C628 C631 1.539 . S
C629 C625 1.408 . S
C629 C628 1.404 . S
C629 H641 0.930 . S
C630 C626 1.527 . S
C630 H642 0.956 . S
C630 H643 0.961 . S
C630 H644 0.961 . S
C631 C628 1.539 . S
C631 H645 0.958 . S
C631 H646 0.961 . S
C631 H647 0.960 . S
H632 C616 0.931 . S
H633 C621 0.929 . S
H634 C622 0.960 . S
H635 C622 0.962 1_655 S
H636 C622 0.960 . S
H637 C623 0.961 . S
H638 C623 0.961 . S
H639 C623 0.961 . S
H640 C624 0.933 . S
H641 C629 0.930 . S
H642 C630 0.956 . S
H643 C630 0.961 . S
H644 C630 0.961 . S
H645 C631 0.958 . S
H646 C631 0.961 . S
H647 C631 0.960 . S
C273 C81 1.432 . S
C265 C0 1.502 . S
C297 C25 1.456 . S
C305 C155 1.382 . S
C329 C33 2.119 1_665 S
C337 C259 2.128 . S
C361 C11 0.793 . S
C369 C93 0.809 . S
C401 C167 0.820 . S
C393 C14 0.794 . S
C425 C37 1.592 . S
C433 C253 1.448 . S
C465 C185 2.124 . S
C457 C28 2.120 1_655 S
C489 C9 1.563 1_565 S
C497 C229 1.485 . S
C529 C105 1.522 . S
C521 C19 1.608 . S
C561 C179 1.422 . S
C553 C39 1.485 . S
C593 C241 0.839 . S
C585 C5 0.845 . S
C617 C23 2.230 . S
C625 C111 2.232 . S
