# Generated by pormake.
# Topology llj, (12,3)-cn, num edge types: 1
# Building blocks:
#     Node 0, Type 0, BuildingBlock: QEWDON_clean_sbu_0, # of connection points: 12
#     Node 1, Type 0, BuildingBlock: QEWDON_clean_sbu_0, # of connection points: 12
#     Node 2, Type 1, BuildingBlock: MIDCAF_clean_linker_0, # of connection points: 3
#     Node 3, Type 1, BuildingBlock: MIDCAF_clean_linker_0, # of connection points: 3
#     Node 4, Type 1, BuildingBlock: MIDCAF_clean_linker_0, # of connection points: 3
#     Node 5, Type 1, BuildingBlock: MIDCAF_clean_linker_0, # of connection points: 3
#     Node 6, Type 1, BuildingBlock: MIDCAF_clean_linker_0, # of connection points: 3
#     Node 7, Type 1, BuildingBlock: MIDCAF_clean_linker_0, # of connection points: 3
#     Node 8, Type 1, BuildingBlock: MIDCAF_clean_linker_0, # of connection points: 3
#     Node 9, Type 1, BuildingBlock: MIDCAF_clean_linker_0, # of connection points: 3
#     Edge 10, Type (0, 1), BuildingBlock: MIFKUJ_clean_linker_0, # of connection points: 2
#     Edge 11, Type (0, 1), BuildingBlock: MIFKUJ_clean_linker_0, # of connection points: 2
#     Edge 12, Type (0, 1), BuildingBlock: MIFKUJ_clean_linker_0, # of connection points: 2
#     Edge 13, Type (0, 1), BuildingBlock: MIFKUJ_clean_linker_0, # of connection points: 2
#     Edge 14, Type (0, 1), BuildingBlock: MIFKUJ_clean_linker_0, # of connection points: 2
#     Edge 15, Type (0, 1), BuildingBlock: MIFKUJ_clean_linker_0, # of connection points: 2
#     Edge 16, Type (0, 1), BuildingBlock: MIFKUJ_clean_linker_0, # of connection points: 2
#     Edge 17, Type (0, 1), BuildingBlock: MIFKUJ_clean_linker_0, # of connection points: 2
#     Edge 18, Type (0, 1), BuildingBlock: MIFKUJ_clean_linker_0, # of connection points: 2
#     Edge 19, Type (0, 1), BuildingBlock: MIFKUJ_clean_linker_0, # of connection points: 2
#     Edge 20, Type (0, 1), BuildingBlock: MIFKUJ_clean_linker_0, # of connection points: 2
#     Edge 21, Type (0, 1), BuildingBlock: MIFKUJ_clean_linker_0, # of connection points: 2
#     Edge 22, Type (0, 1), BuildingBlock: MIFKUJ_clean_linker_0, # of connection points: 2
#     Edge 23, Type (0, 1), BuildingBlock: MIFKUJ_clean_linker_0, # of connection points: 2
#     Edge 24, Type (0, 1), BuildingBlock: MIFKUJ_clean_linker_0, # of connection points: 2
#     Edge 25, Type (0, 1), BuildingBlock: MIFKUJ_clean_linker_0, # of connection points: 2
#     Edge 26, Type (0, 1), BuildingBlock: MIFKUJ_clean_linker_0, # of connection points: 2
#     Edge 27, Type (0, 1), BuildingBlock: MIFKUJ_clean_linker_0, # of connection points: 2
#     Edge 28, Type (0, 1), BuildingBlock: MIFKUJ_clean_linker_0, # of connection points: 2
#     Edge 29, Type (0, 1), BuildingBlock: MIFKUJ_clean_linker_0, # of connection points: 2
#     Edge 30, Type (0, 1), BuildingBlock: MIFKUJ_clean_linker_0, # of connection points: 2
#     Edge 31, Type (0, 1), BuildingBlock: MIFKUJ_clean_linker_0, # of connection points: 2
#     Edge 32, Type (0, 1), BuildingBlock: MIFKUJ_clean_linker_0, # of connection points: 2
#     Edge 33, Type (0, 1), BuildingBlock: MIFKUJ_clean_linker_0, # of connection points: 2
# Relax obj value: 0.012
# Max RMSD: 0.053
# Mean RMSD: 0.050
data_MOF--net-llj--node1-QEWDON_clean_sbu_0--node2-MIDCAF_clean_linker_0--edge1-MIFKUJ_clean_linker_0
_symmetry_space_group_name_H-M    P1
_symmetry_Int_Tables_number       1
_symmetry_cell_setting            triclinic
loop_
_symmetry_equiv_pos_as_xyz
'x, y, z'
_cell_length_a     54.837645
_cell_length_b     54.83213
_cell_length_c     38.480787
_cell_angle_alpha  89.822999
_cell_angle_beta   90.036777
_cell_angle_gamma 89.870536
loop_
_atom_site_label
_atom_site_type_symbol
_atom_site_fract_x
_atom_site_fract_y
_atom_site_fract_z
_atom_type_partial_charge
Zn0 Zn 0.97033 0.04186 0.98649 0.0
Zn1 Zn 0.97291 0.03466 0.06875 0.0
O2 O 0.99174 0.02921 0.02504 0.0
H3 H 0.00383 0.01658 0.02179 0.0
C4 C 0.93909 0.97769 0.92095 0.0
O5 O 0.92472 0.98017 0.94802 0.0
Zn6 Zn 0.04284 0.95863 0.07267 0.0
Zn7 Zn 0.03944 0.93489 0.99744 0.0
O8 O 0.02513 0.96093 0.02787 0.0
H9 H 0.01194 0.97198 0.02218 0.0
Zn10 Zn 0.96328 0.95162 0.97426 0.0
O11 O 0.95739 0.97632 0.01276 0.0
Zn12 Zn 0.95415 0.95591 0.05552 0.0
H13 H 0.95227 0.99305 0.00966 0.0
Zn14 Zn 0.04274 0.04029 0.98208 0.0
O15 O 0.06 0.01498 0.0125 0.0
H16 H 0.07227 0.00349 0.00495 0.0
Zn17 Zn 0.06076 0.03658 0.05402 0.0
C18 C 0.01934 0.00722 0.9334 0.0
O19 O 0.01756 0.99413 0.96188 0.0
O20 O 0.94035 0.06033 0.00429 0.0
O21 O 0.94638 0.06029 0.06145 0.0
O22 O 0.06326 0.91165 0.02231 0.0
O23 O 0.06663 0.93008 0.07346 0.0
O24 O 0.94654 0.91881 0.98562 0.0
O25 O 0.94024 0.92304 0.04244 0.0
C26 C 0.01874 0.04586 0.10078 0.0
O27 O 0.05862 0.07447 0.98561 0.0
O28 O 0.07252 0.06964 0.03952 0.0
O29 O 0.01721 0.92144 0.95914 0.0
C30 C 0.93458 0.06744 0.03466 0.0
O31 O 0.98805 0.05968 0.94659 0.0
C32 C 0.99603 0.95176 0.10607 0.0
O33 O 0.9585 0.96525 0.92432 0.0
C34 C 0.07233 0.91287 0.05275 0.0
O35 O 0.02925 0.0281 0.9349 0.0
C36 C 0.93849 0.99515 0.094 0.0
O37 O 0.99602 0.04527 0.10703 0.0
O38 O 0.02641 0.03834 0.07165 0.0
C39 C 0.93834 0.91074 0.01444 0.0
O40 O 0.0188 0.95345 0.11121 0.0
O41 O 0.98801 0.95381 0.07522 0.0
C42 C 0.07682 -0.00045 0.09613 0.0
O43 O 0.93204 0.9732 0.08948 0.0
O44 O 0.95739 0.00236 0.07794 0.0
C45 C 0.07002 0.08249 0.01209 0.0
O46 O 0.08251 0.02166 0.0908 0.0
O47 O 0.05952 0.99086 0.07803 0.0
C48 C 0.00395 0.90291 0.96475 0.0
O49 O 0.00496 0.892 0.99517 0.0
C50 C 0.98578 0.08271 0.94479 0.0
O51 O 0.97235 0.09404 0.96797 0.0
Zn52 Zn 0.43894 0.56987 0.48983 0.0
Zn53 Zn 0.45147 0.55281 0.56766 0.0
O54 O 0.46173 0.54867 0.51848 0.0
H55 H 0.47235 0.53603 0.50964 0.0
C56 C 0.46028 0.47896 0.44155 0.0
O57 O 0.47433 0.49006 0.46419 0.0
Zn58 Zn 0.52758 0.4596 0.57432 0.0
Zn59 Zn 0.53423 0.45123 0.49506 0.0
O60 O 0.50798 0.45648 0.53145 0.0
H61 H 0.49249 0.46443 0.52741 0.0
Zn62 Zn 0.44734 0.45347 0.5042 0.0
O63 O 0.43897 0.48327 0.53254 0.0
Zn64 Zn 0.43824 0.46784 0.57926 0.0
H65 H 0.44319 0.49973 0.52599 0.0
Zn66 Zn 0.54044 0.53971 0.46122 0.0
O67 O 0.53763 0.51848 0.50451 0.0
H68 H 0.5325 0.50166 0.50559 0.0
Zn69 Zn 0.54103 0.54198 0.54364 0.0
C70 C 0.57063 0.50889 0.41997 0.0
O71 O 0.58096 0.5072 0.45071 0.0
O72 O 0.4149 0.59063 0.51919 0.0
O73 O 0.42514 0.57872 0.57262 0.0
O74 O 0.56599 0.43649 0.51502 0.0
O75 O 0.55823 0.43864 0.57164 0.0
O76 O 0.42937 0.42291 0.52235 0.0
O77 O 0.42038 0.43561 0.57576 0.0
C78 C 0.50214 0.55885 0.58841 0.0
O79 O 0.55893 0.5718 0.47079 0.0
O80 O 0.55979 0.5716 0.52853 0.0
O81 O 0.52173 0.43543 0.44986 0.0
C82 C 0.41235 0.59186 0.55211 0.0
O83 O 0.45318 0.58409 0.44404 0.0
C84 C 0.48427 0.44898 0.61489 0.0
O85 O 0.44725 0.46119 0.45169 0.0
C86 C 0.57172 0.43183 0.54644 0.0
O87 O 0.55155 0.52187 0.41668 0.0
C88 C 0.42541 0.5136 0.60847 0.0
O89 O 0.48009 0.56208 0.59688 0.0
O90 O 0.50734 0.55091 0.55845 0.0
C91 C 0.41909 0.41963 0.55173 0.0
O92 O 0.50735 0.44714 0.61393 0.0
O93 O 0.47363 0.46221 0.59224 0.0
C94 C 0.55406 0.50502 0.59144 0.0
O95 O 0.42092 0.49105 0.61214 0.0
O96 O 0.43982 0.52003 0.58429 0.0
C97 C 0.56547 0.58128 0.49951 0.0
O98 O 0.55972 0.52663 0.58306 0.0
O99 O 0.53635 0.49499 0.57588 0.0
C100 C 0.50059 0.42598 0.45026 0.0
O101 O 0.48757 0.42693 0.47884 0.0
C102 C 0.47625 0.58533 0.4413 0.0
O103 O 0.48987 0.57772 0.46728 0.0
C104 C 0.42787 0.30312 0.1175 0.0
C105 C 0.41775 0.29615 0.14954 0.0
C106 C 0.39915 0.27861 0.15011 0.0
C107 C 0.39037 0.26871 0.11919 0.0
H108 H 0.32973 0.23611 0.08098 0.0
H109 H 0.29003 0.21619 0.08124 0.0
H110 H 0.29858 0.19821 0.97281 0.0
H111 H 0.3383 0.21827 0.97222 0.0
H112 H 0.38065 0.25003 0.92774 0.0
H113 H 0.3884 0.27081 0.87229 0.0
H114 H 0.41375 0.33421 0.92743 0.0
H115 H 0.40668 0.31348 0.98287 0.0
H116 H 0.42691 0.29947 0.06225 0.0
H117 H 0.4421 0.31678 0.11626 0.0
H118 H 0.39125 0.27266 0.17449 0.0
H119 H 0.37574 0.25551 0.12062 0.0
N120 N 0.37029 0.25132 0.05493 0.0
N121 N 0.36756 0.25264 0.99421 0.0
N122 N 0.39699 0.27604 0.02304 0.0
C123 C 0.35942 0.2439 0.02511 0.0
C124 C 0.38631 0.26872 0.99298 0.0
C125 C 0.38925 0.26718 0.05413 0.0
C126 C 0.33709 0.22894 0.02648 0.0
C127 C 0.32338 0.22759 0.0573 0.0
C128 C 0.30059 0.21635 0.05746 0.0
C129 C 0.29128 0.20592 0.02699 0.0
C130 C 0.30546 0.2061 0.99665 0.0
C131 C 0.32812 0.21766 0.99632 0.0
C132 C 0.39308 0.28014 0.95961 0.0
C133 C 0.38815 0.26829 0.92801 0.0
C134 C 0.39254 0.28008 0.89639 0.0
C135 C 0.40143 0.30401 0.89602 0.0
C136 C 0.40677 0.31574 0.9274 0.0
C137 C 0.40287 0.30381 0.95898 0.0
C138 C 0.39994 0.27622 0.08698 0.0
C139 C 0.41905 0.29328 0.08653 0.0
C140 C 0.69424 0.42748 0.08733 0.0
C141 C 0.69608 0.41629 0.12015 0.0
C142 C 0.7085 0.3939 0.12299 0.0
C143 C 0.71805 0.38255 0.09351 0.0
H144 H 0.77568 0.33618 0.05432 0.0
H145 H 0.79981 0.29924 0.06119 0.0
H146 H 0.76999 0.27133 0.96517 0.0
H147 H 0.74674 0.30883 0.95757 0.0
H148 H 0.73492 0.3625 0.90241 0.0
H149 H 0.7159 0.37463 0.84722 0.0
H150 H 0.65985 0.41321 0.90352 0.0
H151 H 0.67871 0.4015 0.95827 0.0
H152 H 0.70133 0.42494 0.03287 0.0
H153 H 0.68528 0.44498 0.08431 0.0
H154 H 0.71004 0.38462 0.14778 0.0
H155 H 0.72686 0.36496 0.09649 0.0
N156 N 0.7379 0.36041 0.03103 0.0
N157 N 0.7345 0.3543 0.97082 0.0
N158 N 0.71378 0.38669 0.99744 0.0
C159 C 0.74384 0.34748 0.00217 0.0
C160 C 0.71948 0.37399 0.96833 0.0
C161 C 0.72293 0.38009 0.02884 0.0
C162 C 0.75928 0.32543 0.0054 0.0
C163 C 0.77438 0.3222 0.03458 0.0
C164 C 0.78808 0.30089 0.03865 0.0
C165 C 0.78676 0.28211 0.01391 0.0
C166 C 0.7718 0.2855 0.98453 0.0
C167 C 0.75836 0.30699 0.9802 0.0
C168 C 0.70835 0.38105 0.93472 0.0
C169 C 0.71853 0.37355 0.90294 0.0
C170 C 0.70775 0.38053 0.87142 0.0
C171 C 0.68637 0.39469 0.87125 0.0
C172 C 0.67618 0.40206 0.90297 0.0
C173 C 0.68712 0.39547 0.93431 0.0
C174 C 0.7152 0.39323 0.06051 0.0
C175 C 0.70356 0.41603 0.05784 0.0
C176 C 0.6011 0.64992 0.92098 0.0
C177 C 0.61521 0.65185 0.89061 0.0
C178 C 0.63652 0.666 0.89129 0.0
C179 C 0.64359 0.67795 0.92165 0.0
H180 H 0.69141 0.72868 0.95744 0.0
H181 H 0.72915 0.7519 0.95666 0.0
H182 H 0.72865 0.75477 0.06878 0.0
H183 H 0.69085 0.73133 0.0698 0.0
H184 H 0.64158 0.71575 0.10856 0.0
H185 H 0.61919 0.70892 0.16239 0.0
H186 H 0.56791 0.66345 0.10739 0.0
H187 H 0.58986 0.67057 0.05354 0.0
H188 H 0.59683 0.65999 0.97427 0.0
H189 H 0.58438 0.63945 0.92115 0.0
H190 H 0.64793 0.66763 0.86844 0.0
H191 H 0.66019 0.6886 0.92117 0.0
N192 N 0.65776 0.7023 0.98455 0.0
N193 N 0.65232 0.71065 0.04373 0.0
N194 N 0.62431 0.68591 0.01423 0.0
C195 C 0.66542 0.71345 0.01403 0.0
C196 C 0.63168 0.69697 0.04402 0.0
C197 C 0.63728 0.68849 0.98438 0.0
C198 C 0.68807 0.72809 0.01371 0.0
C199 C 0.69927 0.73423 0.982 0.0
C200 C 0.72084 0.74766 0.98148 0.0
C201 C 0.73181 0.75511 0.01264 0.0
C202 C 0.72068 0.74904 0.04438 0.0
C203 C 0.69895 0.73576 0.04491 0.0
C204 C 0.61763 0.69363 0.07663 0.0
C205 C 0.62545 0.70441 0.10784 0.0
C206 C 0.61268 0.70043 0.13878 0.0
C207 C 0.59178 0.68565 0.1392 0.0
C208 C 0.58373 0.67524 0.1079 0.0
C209 C 0.59648 0.67919 0.07701 0.0
C210 C 0.62951 0.67601 0.9521 0.0
C211 C 0.60817 0.66186 0.95139 0.0
C212 C 0.35765 0.63924 0.92277 0.0
C213 C 0.34017 0.64497 0.8973 0.0
C214 C 0.31741 0.65417 0.90763 0.0
C215 C 0.3123 0.65775 0.94285 0.0
H216 H 0.27594 0.70564 0.00762 0.0
H217 H 0.24399 0.73401 0.0237 0.0
H218 H 0.25058 0.71162 0.13104 0.0
H219 H 0.28321 0.68341 0.1151 0.0
H220 H 0.33819 0.6575 0.13318 0.0
H221 H 0.36037 0.63427 0.17735 0.0
H222 H 0.37868 0.57973 0.10102 0.0
H223 H 0.35679 0.60305 0.05656 0.0
H224 H 0.36623 0.63767 0.97696 0.0
H225 H 0.37523 0.63181 0.91547 0.0
H226 H 0.30364 0.65867 0.88844 0.0
H227 H 0.29459 0.66489 0.95007 0.0
N228 N 0.30655 0.67102 0.01562 0.0
N229 N 0.31438 0.6621 0.07419 0.0
N230 N 0.3369 0.64268 0.03037 0.0
C231 C 0.30153 0.67466 0.04977 0.0
C232 C 0.33205 0.64603 0.06466 0.0
C233 C 0.32423 0.65517 0.00571 0.0
C234 C 0.28215 0.6921 0.06002 0.0
C235 C 0.27066 0.70665 0.03469 0.0
C236 C 0.25218 0.72287 0.04389 0.0
C237 C 0.24454 0.72489 0.07861 0.0
C238 C 0.25616 0.71058 0.1041 0.0
C239 C 0.27479 0.69434 0.0949 0.0
C240 C 0.34573 0.63212 0.09135 0.0
C241 C 0.34698 0.64059 0.12575 0.0
C242 C 0.35978 0.6274 0.15099 0.0
C243 C 0.37123 0.60527 0.14248 0.0
C244 C 0.36993 0.59671 0.1082 0.0
C245 C 0.3575 0.61012 0.08278 0.0
C246 C 0.32969 0.6517 0.9684 0.0
C247 C 0.35241 0.64239 0.95796 0.0
C248 C 0.90894 0.81944 0.62545 0.0
C249 C 0.89538 0.81277 0.65496 0.0
C250 C 0.87515 0.79737 0.65092 0.0
C251 C 0.86845 0.78903 0.61804 0.0
H252 H 0.81754 0.7482 0.56902 0.0
H253 H 0.78004 0.72508 0.56229 0.0
H254 H 0.78992 0.72477 0.45096 0.0
H255 H 0.82765 0.74765 0.45748 0.0
H256 H 0.87272 0.77626 0.4247 0.0
H257 H 0.88801 0.79689 0.37307 0.0
H258 H 0.92139 0.85181 0.43781 0.0
H259 H 0.90688 0.83077 0.48938 0.0
H260 H 0.91302 0.81679 0.5704 0.0
H261 H 0.9249 0.83092 0.62778 0.0
H262 H 0.8642 0.79209 0.67311 0.0
H263 H 0.85257 0.77742 0.61588 0.0
N264 N 0.85512 0.77236 0.54967 0.0
N265 N 0.85863 0.77485 0.48911 0.0
N266 N 0.88514 0.79713 0.52463 0.0
C267 C 0.84732 0.76564 0.51762 0.0
C268 C 0.87756 0.79058 0.49239 0.0
C269 C 0.8741 0.78799 0.55341 0.0
C270 C 0.82557 0.74996 0.51377 0.0
C271 C 0.81189 0.74307 0.54308 0.0
C272 C 0.7903 0.72996 0.53926 0.0
C273 C 0.78197 0.72335 0.50609 0.0
C274 C 0.79599 0.72953 0.47686 0.0
C275 C 0.81755 0.74274 0.48064 0.0
C276 C 0.88846 0.80193 0.46118 0.0
C277 C 0.88351 0.79262 0.42793 0.0
C278 C 0.89214 0.80453 0.3983 0.0
C279 C 0.90574 0.82613 0.40125 0.0
C280 C 0.91124 0.83505 0.43456 0.0
C281 C 0.90281 0.82302 0.46419 0.0
C282 C 0.8818 0.79599 0.58844 0.0
C283 C 0.9022 0.81118 0.59256 0.0
C284 C 0.11284 0.90293 0.60577 0.0
C285 C 0.11565 0.89818 0.64142 0.0
C286 C 0.13426 0.88218 0.65228 0.0
C287 C 0.14984 0.87133 0.62803 0.0
H288 H 0.20995 0.8258 0.61858 0.0
H289 H 0.24052 0.79578 0.6359 0.0
H290 H 0.25793 0.78315 0.52794 0.0
H291 H 0.22797 0.81346 0.51063 0.0
H292 H 0.20914 0.8584 0.45444 0.0
H293 H 0.20251 0.8701 0.39351 0.0
H294 H 0.12769 0.88819 0.41709 0.0
H295 H 0.1342 0.87685 0.4775 0.0
H296 H 0.12572 0.89642 0.55432 0.0
H297 H 0.0989 0.91541 0.59656 0.0
H298 H 0.13671 0.87791 0.67956 0.0
H299 H 0.16401 0.85916 0.63733 0.0
N300 N 0.18197 0.84971 0.57631 0.0
N301 N 0.19415 0.84541 0.51812 0.0
N302 N 0.16098 0.87048 0.5322 0.0
C303 C 0.19719 0.8397 0.55232 0.0
C304 C 0.17602 0.86076 0.50792 0.0
C305 C 0.16382 0.86519 0.56641 0.0
C306 C 0.2164 0.8221 0.56315 0.0
C307 C 0.22039 0.81673 0.59851 0.0
C308 C 0.23785 0.79941 0.60848 0.0
C309 C 0.25172 0.78702 0.58336 0.0
C310 C 0.2479 0.79261 0.54807 0.0
C311 C 0.23054 0.80994 0.5381 0.0
C312 C 0.17222 0.86677 0.4708 0.0
C313 C 0.19126 0.86473 0.44649 0.0
C314 C 0.18752 0.87149 0.41173 0.0
C315 C 0.16456 0.87988 0.40065 0.0
C316 C 0.14549 0.88149 0.42485 0.0
C317 C 0.1493 0.87517 0.45952 0.0
C318 C 0.14716 0.87626 0.59235 0.0
C319 C 0.12839 0.89212 0.58155 0.0
C320 C 0.08139 0.18623 0.40726 0.0
C321 C 0.09655 0.19183 0.37893 0.0
C322 C 0.11547 0.20877 0.38351 0.0
C323 C 0.11949 0.21943 0.41597 0.0
H324 H 0.1624 0.2707 0.47082 0.0
H325 H 0.20154 0.29075 0.48049 0.0
H326 H 0.19941 0.26958 0.58857 0.0
H327 H 0.16021 0.24966 0.5792 0.0
H328 H 0.09942 0.24223 0.60544 0.0
H329 H 0.07871 0.22482 0.65593 0.0
H330 H 0.05079 0.16658 0.59218 0.0
H331 H 0.07119 0.18397 0.54155 0.0
H332 H 0.07354 0.19171 0.46091 0.0
H333 H 0.06686 0.173 0.40478 0.0
H334 H 0.12726 0.2137 0.36205 0.0
H335 H 0.13446 0.23213 0.41874 0.0
N336 N 0.12974 0.2373 0.48526 0.0
N337 N 0.12131 0.23768 0.54502 0.0
N338 N 0.09599 0.21607 0.50704 0.0
C339 C 0.13552 0.24472 0.5179 0.0
C340 C 0.10143 0.22346 0.53973 0.0
C341 C 0.10994 0.22299 0.47963 0.0
C342 C 0.15822 0.25853 0.5242 0.0
C343 C 0.17016 0.27048 0.49672 0.0
C344 C 0.19249 0.28205 0.50225 0.0
C345 C 0.20345 0.28157 0.53523 0.0
C346 C 0.19137 0.27001 0.56285 0.0
C347 C 0.16887 0.25877 0.55747 0.0
C348 C 0.08709 0.21439 0.56956 0.0
C349 C 0.08864 0.22587 0.60209 0.0
C350 C 0.07669 0.21603 0.63091 0.0
C351 C 0.06329 0.19436 0.6278 0.0
C352 C 0.06114 0.18326 0.59516 0.0
C353 C 0.07275 0.19329 0.56623 0.0
C354 C 0.10466 0.21335 0.44451 0.0
C355 C 0.08534 0.19689 0.43959 0.0
C356 C 0.84109 0.11947 0.39848 0.0
C357 C 0.82507 0.1232 0.37053 0.0
C358 C 0.80208 0.13366 0.37671 0.0
C359 C 0.79539 0.14056 0.41042 0.0
H360 H 0.75013 0.18825 0.46796 0.0
H361 H 0.72257 0.22244 0.47807 0.0
H362 H 0.74749 0.22694 0.58429 0.0
H363 H 0.77514 0.19272 0.57435 0.0
H364 H 0.80984 0.14955 0.60413 0.0
H365 H 0.82976 0.12767 0.6516 0.0
H366 H 0.856 0.07372 0.57893 0.0
H367 H 0.83688 0.09587 0.53154 0.0
H368 H 0.84705 0.12263 0.4531 0.0
H369 H 0.85881 0.11116 0.39439 0.0
H370 H 0.78944 0.13664 0.35547 0.0
H371 H 0.77759 0.14864 0.41459 0.0
N372 N 0.78788 0.16099 0.4806 0.0
N373 N 0.79351 0.1559 0.54074 0.0
N374 N 0.81531 0.13161 0.50156 0.0
C375 C 0.78238 0.16758 0.51375 0.0
C376 C 0.80988 0.13774 0.53479 0.0
C377 C 0.80447 0.14311 0.47437 0.0
C378 C 0.76493 0.18774 0.52031 0.0
C379 C 0.74972 0.19644 0.49353 0.0
C380 C 0.73381 0.21594 0.49935 0.0
C381 C 0.73292 0.22736 0.53195 0.0
C382 C 0.74795 0.21859 0.55882 0.0
C383 C 0.76368 0.1989 0.55314 0.0
C384 C 0.82177 0.12455 0.56396 0.0
C385 C 0.81989 0.13304 0.59828 0.0
C386 C 0.83123 0.12042 0.62554 0.0
C387 C 0.84455 0.09892 0.61912 0.0
C388 C 0.84632 0.09044 0.5848 0.0
C389 C 0.83517 0.10312 0.55758 0.0
C390 C 0.81137 0.13652 0.43848 0.0
C391 C 0.83426 0.12587 0.43211 0.0
H392 H 0.09258 0.10221 0.95566 0.0
H393 H 0.12575 0.13201 0.95796 0.0
H394 H 0.11104 0.14439 0.06649 0.0
H395 H 0.0784 0.11423 0.06465 0.0
H396 H 0.13837 0.17964 0.98016 0.0
H397 H 0.16347 0.13396 0.10838 0.0
H398 H 0.15225 0.09735 0.14229 0.0
H399 H 0.1391 0.058 0.04783 0.0
H400 H 0.15063 0.09423 0.01343 0.0
H401 H 0.24993 0.22836 0.0492 0.0
H402 H 0.20806 0.21294 0.04598 0.0
H403 H 0.23444 0.14628 -3e-05 0.0
H404 H 0.27637 0.16172 0.00282 0.0
H405 H 0.20032 0.1402 0.0562 0.0
H406 H 0.21064 0.18431 0.94833 0.0
H407 H 0.22076 0.22038 0.9128 0.0
H408 H 0.16389 0.2612 0.9628 0.0
H409 H 0.15367 0.22544 -0.00098 0.0
C410 C 0.09575 0.11207 0.97959 0.0
C411 C 0.08342 0.10561 0.01019 0.0
C412 C 0.11463 0.1291 0.98083 0.0
C413 C 0.12107 0.13987 0.01253 0.0
C414 C 0.10648 0.13596 0.04191 0.0
C415 C 0.08792 0.1187 0.04084 0.0
C416 C 0.14557 0.15056 0.0165 0.0
C417 C 0.15186 0.17124 0.99704 0.0
C418 C 0.16323 0.1392 0.03805 0.0
C419 C 0.15772 0.11685 0.0584 0.0
C420 C 0.1584 0.11741 0.09489 0.0
C421 C 0.15194 0.09675 0.11418 0.0
C422 C 0.14489 0.07539 0.09722 0.0
C423 C 0.14452 0.07457 0.06094 0.0
C424 C 0.15105 0.09514 0.04153 0.0
C425 C 0.24676 0.21034 0.03867 0.0
C426 C 0.26626 0.19614 0.02632 0.0
C427 C 0.22291 0.20166 0.03667 0.0
C428 C 0.2183 0.17858 0.02263 0.0
C429 C 0.23777 0.16417 0.01087 0.0
C430 C 0.26159 0.17299 0.01239 0.0
C431 C 0.19313 0.16943 0.02007 0.0
C432 C 0.18675 0.14889 0.03974 0.0
C433 C 0.17554 0.18083 0.99852 0.0
C434 C 0.18158 0.20229 0.97665 0.0
C435 C 0.20045 0.20105 0.95198 0.0
C436 C 0.20617 0.22142 0.93167 0.0
C437 C 0.19302 0.2431 0.93561 0.0
C438 C 0.17408 0.24441 0.95981 0.0
C439 C 0.16831 0.22409 0.98022 0.0
H440 H 0.19748 0.25885 0.91985 0.0
H441 H 0.13975 0.05947 0.11218 0.0
H442 H 0.90407 0.0841 0.98396 0.0
H443 H 0.87718 0.11945 0.98642 0.0
H444 H 0.89462 0.12927 0.0947 0.0
H445 H 0.92202 0.09384 0.09256 0.0
H446 H 0.84107 0.13585 0.07037 0.0
H447 H 0.92408 0.16289 0.05047 0.0
H448 H 0.9639 0.16068 0.02087 0.0
H449 H 0.92916 0.17467 0.92276 0.0
H450 H 0.88905 0.17659 0.95175 0.0
H451 H 0.79625 0.25771 0.07495 0.0
H452 H 0.82013 0.22059 0.08305 0.0
H453 H 0.83151 0.21612 0.9723 0.0
H454 H 0.80921 0.25418 0.96419 0.0
H455 H 0.87177 0.20668 0.0028 0.0
H456 H 0.7896 0.17924 0.01888 0.0
H457 H 0.74841 0.17838 0.04452 0.0
H458 H 0.77908 0.16253 0.1448 0.0
H459 H 0.82049 0.16363 0.11985 0.0
C460 C 0.902 0.09348 0.00851 0.0
C461 C 0.91543 0.0863 0.03799 0.0
C462 C 0.88657 0.11366 0.00982 0.0
C463 C 0.88419 0.12697 0.04061 0.0
C464 C 0.89636 0.11914 0.0707 0.0
C465 C 0.91198 0.09894 0.06939 0.0
C466 C 0.87067 0.15024 0.04005 0.0
C467 C 0.84785 0.15158 0.05622 0.0
C468 C 0.8794 0.1703 0.02064 0.0
C469 C 0.90355 0.1697 0.00325 0.0
C470 C 0.92491 0.16533 0.02255 0.0
C471 C 0.94753 0.16415 0.00589 0.0
C472 C 0.94905 0.1675 0.96995 0.0
C473 C 0.92795 0.17208 0.95061 0.0
C474 C 0.90527 0.17325 0.96714 0.0
C475 C 0.8041 0.24906 0.0523 0.0
C476 C 0.80077 0.25906 0.01887 0.0
C477 C 0.81746 0.22757 0.05697 0.0
C478 C 0.82733 0.2153 0.02825 0.0
C479 C 0.824 0.22519 0.99488 0.0
C480 C 0.81098 0.24686 0.99024 0.0
C481 C 0.84173 0.19253 0.03288 0.0
C482 C 0.86487 0.19119 0.01737 0.0
C483 C 0.83305 0.17238 0.05247 0.0
C484 C 0.80817 0.17183 0.06757 0.0
C485 C 0.78758 0.1758 0.04646 0.0
C486 C 0.76419 0.17522 0.06086 0.0
C487 C 0.76113 0.17049 0.09629 0.0
C488 C 0.78147 0.16625 0.11738 0.0
C489 C 0.80491 0.16685 0.10312 0.0
H490 H 0.74301 0.17003 0.10739 0.0
H491 H 0.96658 0.16662 0.95712 0.0
H492 H 0.927 0.88128 0.95954 0.0
H493 H 0.89548 0.84981 0.95798 0.0
H494 H 0.88383 0.85855 0.06804 0.0
H495 H 0.91543 0.88973 0.07 0.0
H496 H 0.88339 0.80456 0.99776 0.0
H497 H 0.82254 0.87107 0.07351 0.0
H498 H 0.81966 0.91526 0.08496 0.0
H499 H 0.85268 0.93055 0.9861 0.0
H500 H 0.85534 0.88652 0.97386 0.0
H501 H 0.77259 0.74784 0.05223 0.0
H502 H 0.81075 0.77099 0.05048 0.0
H503 H 0.78118 0.8169 0.96946 0.0
H504 H 0.74293 0.79403 0.97136 0.0
H505 H 0.803 0.84319 0.02074 0.0
H506 H 0.82172 0.77467 0.94869 0.0
H507 H 0.82504 0.73105 0.93403 0.0
H508 H 0.87577 0.72035 0.01779 0.0
H509 H 0.87247 0.76387 0.03327 0.0
C510 C 0.91828 0.87597 0.98358 0.0
C511 C 0.92346 0.88828 0.01474 0.0
C512 C 0.90033 0.85794 0.98266 0.0
C513 C 0.88723 0.85216 0.01283 0.0
C514 C 0.89373 0.86293 0.04448 0.0
C515 C 0.91176 0.8808 0.04548 0.0
C516 C 0.86456 0.83782 0.01049 0.0
C517 C 0.8658 0.81288 0.00286 0.0
C518 C 0.84166 0.84896 0.01637 0.0
C519 C 0.83936 0.87551 0.02297 0.0
C520 C 0.82904 0.88388 0.05416 0.0
C521 C 0.82747 0.9089 0.06079 0.0
C522 C 0.83605 0.9257 0.03633 0.0
C523 C 0.8461 0.91753 0.00509 0.0
C524 C 0.84767 0.89255 0.9983 0.0
C525 C 0.77421 0.76296 0.0342 0.0
C526 C 0.75484 0.76915 0.0119 0.0
C527 C 0.79605 0.77601 0.03301 0.0
C528 C 0.79881 0.79548 0.00961 0.0
C529 C 0.77941 0.80185 0.98759 0.0
C530 C 0.75766 0.78872 0.98858 0.0
C531 C 0.82171 0.80966 0.00867 0.0
C532 C 0.82054 0.8347 0.0157 0.0
C533 C 0.84456 0.79863 0.00166 0.0
C534 C 0.84667 0.77248 0.99234 0.0
C535 C 0.83343 0.76298 0.96416 0.0
C536 C 0.83534 0.73828 0.95567 0.0
C537 C 0.85056 0.72292 0.97502 0.0
C538 C 0.86396 0.73226 0.00285 0.0
C539 C 0.8621 0.75695 0.01147 0.0
H540 H 0.85201 0.70381 0.9684 0.0
H541 H 0.83487 0.94505 0.04155 0.0
H542 H 0.0966 0.90954 0.11506 0.0
H543 H 0.12341 0.87651 0.13485 0.0
H544 H 0.11231 0.83903 0.03772 0.0
H545 H 0.08552 0.87169 0.01785 0.0
H546 H 0.10885 0.80834 0.09522 0.0
H547 H 0.16314 0.87286 0.0509 0.0
H548 H 0.17884 0.91499 0.05228 0.0
H549 H 0.19904 0.90588 0.15928 0.0
H550 H 0.18316 0.86379 0.15873 0.0
H551 H 0.20239 0.73295 0.04277 0.0
H552 H 0.17134 0.76358 0.05396 0.0
H553 H 0.20922 0.78546 0.14711 0.0
H554 H 0.24128 0.75541 0.13497 0.0
H555 H 0.19718 0.82406 0.11149 0.0
H556 H 0.1529 0.75624 0.15155 0.0
H557 H 0.13635 0.71448 0.1525 0.0
H558 H 0.09592 0.72924 0.05917 0.0
H559 H 0.11249 0.77097 0.05732 0.0
C560 C 0.09987 0.89427 0.09792 0.0
C561 C 0.08901 0.89333 0.06477 0.0
C562 C 0.11515 0.87541 0.10931 0.0
C563 C 0.11979 0.85536 0.08772 0.0
C564 C 0.10881 0.8543 0.05485 0.0
C565 C 0.09364 0.8731 0.04343 0.0
C566 C 0.1368 0.83571 0.09823 0.0
C567 C 0.12818 0.81166 0.09885 0.0
C568 C 0.16175 0.84026 0.10471 0.0
C569 C 0.17179 0.86531 0.10484 0.0
C570 C 0.17084 0.8799 0.07477 0.0
C571 C 0.17975 0.90376 0.07542 0.0
C572 C 0.18983 0.91314 0.10594 0.0
C573 C 0.19114 0.89862 0.13578 0.0
C574 C 0.18221 0.87476 0.1353 0.0
C575 C 0.20418 0.74425 0.06566 0.0
C576 C 0.22445 0.7419 0.08777 0.0
C577 C 0.18617 0.76154 0.07236 0.0
C578 C 0.1877 0.77661 0.10171 0.0
C579 C 0.20758 0.77392 0.12443 0.0
C580 C 0.22579 0.75665 0.11758 0.0
C581 C 0.16948 0.79638 0.1065 0.0
C582 C 0.1778 0.82053 0.10893 0.0
C583 C 0.14415 0.79189 0.10334 0.0
C584 C 0.13402 0.76677 0.10427 0.0
C585 C 0.14059 0.75055 0.1311 0.0
C586 C 0.13119 0.72688 0.13181 0.0
C587 C 0.11511 0.71921 0.10591 0.0
C588 C 0.10836 0.73522 0.07925 0.0
C589 C 0.11772 0.75891 0.0784 0.0
H590 H 0.10785 0.70087 0.1065 0.0
H591 H 0.1967 0.93162 0.10643 0.0
H592 H 0.57948 0.60932 0.44399 0.0
H593 H 0.61432 0.63712 0.44175 0.0
H594 H 0.62613 0.62678 0.55163 0.0
H595 H 0.59136 0.59922 0.55434 0.0
H596 H 0.6293 0.68009 0.4776 0.0
H597 H 0.68916 0.61325 0.55866 0.0
H598 H 0.69175 0.56932 0.5721 0.0
H599 H 0.65371 0.55267 0.47758 0.0
H600 H 0.65166 0.59641 0.46295 0.0
H601 H 0.73894 0.73372 0.53831 0.0
H602 H 0.70014 0.71225 0.53244 0.0
H603 H 0.7328 0.66319 0.4583 0.0
H604 H 0.77186 0.6843 0.4646 0.0
H605 H 0.70742 0.63909 0.50739 0.0
H606 H 0.69395 0.70605 0.43045 0.0
H607 H 0.69277 0.74923 0.41249 0.0
H608 H 0.63927 0.76427 0.49104 0.0
H609 H 0.64039 0.72122 0.50982 0.0
C610 C 0.58915 0.6134 0.46783 0.0
C611 C 0.5829 0.60177 0.49921 0.0
C612 C 0.60898 0.62931 0.4665 0.0
C613 C 0.62293 0.63356 0.4964 0.0
C614 C 0.61566 0.62344 0.52823 0.0
C615 C 0.59574 0.60775 0.52969 0.0
C616 C 0.64638 0.64655 0.49384 0.0
C617 C 0.64641 0.67121 0.48417 0.0
C618 C 0.66867 0.63464 0.50155 0.0
C619 C 0.66992 0.6082 0.50999 0.0
C620 C 0.68146 0.60022 0.54064 0.0
C621 C 0.68293 0.57533 0.54839 0.0
C622 C 0.67279 0.55822 0.5258 0.0
C623 C 0.66142 0.56595 0.49518 0.0
C624 C 0.66013 0.5908 0.48712 0.0
C625 C 0.73787 0.71828 0.52088 0.0
C626 C 0.75841 0.71059 0.50201 0.0
C627 C 0.71565 0.70623 0.51728 0.0
C628 C 0.71359 0.68632 0.49468 0.0
C629 C 0.73404 0.67861 0.47574 0.0
C630 C 0.75627 0.69072 0.47924 0.0
C631 C 0.69035 0.67287 0.49212 0.0
C632 C 0.69035 0.64804 0.50083 0.0
C633 C 0.6682 0.68455 0.48301 0.0
C634 C 0.6674 0.71044 0.47173 0.0
C635 C 0.68207 0.7186 0.44408 0.0
C636 C 0.68139 0.74305 0.43372 0.0
C637 C 0.66599 0.7595 0.45066 0.0
C638 C 0.6512 0.75151 0.47796 0.0
C639 C 0.65183 0.72708 0.48844 0.0
H640 H 0.66549 0.77842 0.4426 0.0
H641 H 0.6738 0.53898 0.53198 0.0
H642 H 0.41168 0.61068 0.61793 0.0
H643 H 0.38403 0.64188 0.64105 0.0
H644 H 0.34586 0.64407 0.54307 0.0
H645 H 0.37346 0.61316 0.5197 0.0
H646 H 0.37759 0.68957 0.61284 0.0
H647 H 0.2839 0.64977 0.56456 0.0
H648 H 0.26417 0.60952 0.56071 0.0
H649 H 0.31238 0.58145 0.63927 0.0
H650 H 0.33211 0.62161 0.644 0.0
H651 H 0.29672 0.77829 0.55526 0.0
H652 H 0.32406 0.74431 0.56737 0.0
H653 H 0.27542 0.71871 0.64763 0.0
H654 H 0.24723 0.75212 0.63433 0.0
H655 H 0.28744 0.68242 0.60961 0.0
H656 H 0.33318 0.74181 0.66783 0.0
H657 H 0.35318 0.78131 0.67851 0.0
H658 H 0.40119 0.76908 0.59218 0.0
H659 H 0.38126 0.72967 0.58062 0.0
C660 C 0.39721 0.6176 0.60146 0.0
C661 C 0.39477 0.6095 0.56693 0.0
C662 C 0.38154 0.63549 0.61468 0.0
C663 C 0.36292 0.64518 0.59378 0.0
C664 C 0.36004 0.63665 0.55967 0.0
C665 C 0.37589 0.61909 0.5463 0.0
C666 C 0.3472 0.66529 0.6063 0.0
C667 C 0.35787 0.68806 0.61252 0.0
C668 C 0.32155 0.66295 0.60733 0.0
C669 C 0.3096 0.63874 0.60452 0.0
C670 C 0.29021 0.63508 0.58118 0.0
C671 C 0.27903 0.61225 0.5788 0.0
C672 C 0.28704 0.59293 0.59968 0.0
C673 C 0.30624 0.59639 0.62299 0.0
C674 C 0.31745 0.61917 0.62548 0.0
C675 C 0.2918 0.76548 0.57553 0.0
C676 C 0.26964 0.76786 0.59358 0.0
C677 C 0.30767 0.74621 0.58283 0.0
C678 C 0.30201 0.72905 0.60877 0.0
C679 C 0.28026 0.73177 0.62762 0.0
C680 C 0.26424 0.751 0.62015 0.0
C681 C 0.31779 0.70719 0.61356 0.0
C682 C 0.30713 0.684 0.6107 0.0
C683 C 0.34348 0.70908 0.61651 0.0
C684 C 0.35563 0.73278 0.6233 0.0
C685 C 0.3479 0.7476 0.65097 0.0
C686 C 0.35924 0.76997 0.65721 0.0
C687 C 0.37843 0.7777 0.63603 0.0
C688 C 0.38633 0.76305 0.60859 0.0
C689 C 0.37505 0.74067 0.60223 0.0
H690 H 0.38718 0.79503 0.64089 0.0
H691 H 0.27835 0.57528 0.5978 0.0
H692 H 0.3852 0.4122 0.6026 0.0
H693 H 0.3538 0.38104 0.60393 0.0
H694 H 0.38601 0.34656 0.51417 0.0
H695 H 0.41674 0.37863 0.51153 0.0
H696 H 0.34241 0.35258 0.50105 0.0
H697 H 0.37965 0.31405 0.59921 0.0
H698 H 0.39918 0.30975 0.65671 0.0
H699 H 0.3381 0.34525 0.70472 0.0
H700 H 0.31785 0.34909 0.64765 0.0
H701 H 0.24306 0.26056 0.56597 0.0
H702 H 0.28412 0.27762 0.57151 0.0
H703 H 0.25941 0.34429 0.52284 0.0
H704 H 0.21862 0.32695 0.51625 0.0
H705 H 0.30344 0.31408 0.60364 0.0
H706 H 0.30227 0.36909 0.47376 0.0
H707 H 0.2844 0.36582 0.41513 0.0
H708 H 0.27934 0.2881 0.42685 0.0
H709 H 0.29751 0.29085 0.48534 0.0
C710 C 0.38591 0.39774 0.58352 0.0
C711 C 0.40321 0.39814 0.55659 0.0
C712 C 0.36804 0.37966 0.58456 0.0
C713 C 0.36746 0.36127 0.55923 0.0
C714 C 0.38589 0.36064 0.53387 0.0
C715 C 0.40347 0.379 0.53236 0.0
C716 C 0.34573 0.34527 0.55602 0.0
C717 C 0.33415 0.34391 0.52349 0.0
C718 C 0.33494 0.33352 0.58497 0.0
C719 C 0.34733 0.332 0.61916 0.0
C720 C 0.37044 0.32104 0.62202 0.0
C721 C 0.38157 0.31855 0.65455 0.0
C722 C 0.36998 0.32739 0.68429 0.0
C723 C 0.34709 0.33847 0.68164 0.0
C724 C 0.33568 0.34061 0.64927 0.0
C725 C 0.24645 0.2789 0.55664 0.0
C726 C 0.22782 0.29242 0.54045 0.0
C727 C 0.26987 0.28861 0.5598 0.0
C728 C 0.27497 0.31206 0.54703 0.0
C729 C 0.25608 0.32591 0.53205 0.0
C730 C 0.23279 0.31606 0.52839 0.0
C731 C 0.30005 0.32204 0.54898 0.0
C732 C 0.31208 0.32237 0.58119 0.0
C733 C 0.31173 0.33207 0.51946 0.0
C734 C 0.30109 0.33022 0.48406 0.0
C735 C 0.29747 0.35129 0.46376 0.0
C736 C 0.28726 0.34953 0.43056 0.0
C737 C 0.28068 0.32677 0.41731 0.0
C738 C 0.28438 0.30572 0.43719 0.0
C739 C 0.29461 0.30737 0.47037 0.0
H740 H 0.27275 0.32545 0.39162 0.0
H741 H 0.37866 0.32553 0.70942 0.0
H742 H 0.61357 0.42801 0.50871 0.0
H743 H 0.64415 0.39562 0.51268 0.0
H744 H 0.60664 0.36529 0.60137 0.0
H745 H 0.57692 0.39858 0.59877 0.0
H746 H 0.65205 0.35509 0.60814 0.0
H747 H 0.59457 0.34633 0.51567 0.0
H748 H 0.57149 0.35895 0.46356 0.0
H749 H 0.63822 0.36509 0.40589 0.0
H750 H 0.66173 0.35281 0.45782 0.0
H751 H 0.68507 0.2324 0.51336 0.0
H752 H 0.65881 0.26811 0.52118 0.0
H753 H 0.71835 0.30645 0.56982 0.0
H754 H 0.74443 0.27058 0.56281 0.0
H755 H 0.66055 0.31139 0.49596 0.0
H756 H 0.70045 0.3448 0.62644 0.0
H757 H 0.71795 0.32648 0.67979 0.0
H758 H 0.67489 0.26215 0.66462 0.0
H759 H 0.65739 0.2799 0.61113 0.0
C760 C 0.61226 0.41479 0.5296 0.0
C761 C 0.5927 0.41555 0.5531 0.0
C762 C 0.62964 0.39619 0.53174 0.0
C763 C 0.62721 0.37746 0.55653 0.0
C764 C 0.60881 0.37935 0.58179 0.0
C765 C 0.5918 0.39838 0.58026 0.0
C766 C 0.64214 0.35484 0.55386 0.0
C767 C 0.65397 0.34563 0.58356 0.0
C768 C 0.644 0.34182 0.52215 0.0
C769 C 0.62992 0.34888 0.49071 0.0
C770 C 0.60433 0.35048 0.49191 0.0
C771 C 0.59117 0.35757 0.46242 0.0
C772 C 0.60339 0.36288 0.43146 0.0
C773 C 0.62879 0.36101 0.4299 0.0
C774 C 0.64203 0.35397 0.45935 0.0
C775 C 0.69249 0.24844 0.52583 0.0
C776 C 0.71675 0.2487 0.53759 0.0
C777 C 0.67749 0.26883 0.53029 0.0
C778 C 0.68649 0.28993 0.5464 0.0
C779 C 0.71078 0.29023 0.55804 0.0
C780 C 0.7257 0.26974 0.55396 0.0
C781 C 0.67073 0.31188 0.55002 0.0
C782 C 0.65872 0.32093 0.52049 0.0
C783 C 0.66775 0.32402 0.58216 0.0
C784 C 0.67768 0.31366 0.61485 0.0
C785 C 0.69462 0.32683 0.63468 0.0
C786 C 0.7046 0.31651 0.66482 0.0
C787 C 0.69746 0.29326 0.67563 0.0
C788 C 0.68041 0.28017 0.65624 0.0
C789 C 0.67054 0.29029 0.62595 0.0
H790 H 0.70518 0.28535 0.69899 0.0
H791 H 0.59317 0.36839 0.40866 0.0
H792 H 0.04684 0.08476 0.08779 0.0
H793 H 0.07024 0.10886 0.12935 0.0
H794 H 0.04829 0.06 0.21166 0.0
H795 H 0.02568 0.03525 0.16939 0.0
H796 H 0.04847 0.13282 0.17885 0.0
H797 H 0.09072 0.06327 0.27804 0.0
H798 H 0.11426 0.0249 0.27818 0.0
H799 H 0.13671 0.0382 0.17299 0.0
H800 H 0.1134 0.07668 0.17219 0.0
H801 H 0.05353 0.18113 0.34651 0.0
H802 H 0.04763 0.15697 0.29416 0.0
H803 H 0.12559 0.1504 0.28198 0.0
H804 H 0.13164 0.17365 0.33545 0.0
H805 H 0.10521 0.10784 0.27288 0.0
H806 H 0.09196 0.1871 0.22738 0.0
H807 H 0.07498 0.22872 0.22429 0.0
H808 H 0.00274 0.19949 0.21446 0.0
H809 H 0.01925 0.15767 0.21799 0.0
C810 C 0.04824 0.07844 0.11433 0.0
C811 C 0.03527 0.05784 0.1253 0.0
C812 C 0.06121 0.09241 0.13818 0.0
C813 C 0.06115 0.08615 0.17353 0.0
C814 C 0.04892 0.06494 0.1844 0.0
C815 C 0.0359 0.05093 0.1604 0.0
C816 C 0.07064 0.10363 0.19944 0.0
C817 C 0.06102 0.12738 0.19927 0.0
C818 C 0.08745 0.09674 0.22554 0.0
C819 C 0.10019 0.07284 0.22504 0.0
C820 C 0.10062 0.05799 0.2549 0.0
C821 C 0.11397 0.03624 0.25511 0.0
C822 C 0.12704 0.02918 0.22566 0.0
C823 C 0.12652 0.04367 0.19575 0.0
C824 C 0.11316 0.06541 0.19535 0.0
C825 C 0.06944 0.17454 0.33275 0.0
C826 C 0.09305 0.17924 0.34523 0.0
C827 C 0.06605 0.16095 0.30259 0.0
C828 C 0.08618 0.15209 0.28395 0.0
C829 C 0.10981 0.15712 0.29593 0.0
C830 C 0.11322 0.17062 0.32628 0.0
C831 C 0.08234 0.13665 0.25291 0.0
C832 C 0.0929 0.1133 0.25219 0.0
C833 C 0.06691 0.1441 0.22539 0.0
C834 C 0.05685 0.16923 0.22317 0.0
C835 C 0.07244 0.18954 0.2248 0.0
C836 C 0.0629 0.21317 0.22293 0.0
C837 C 0.03779 0.21674 0.21923 0.0
C838 C 0.02218 0.19669 0.21733 0.0
C839 C 0.03163 0.17302 0.21921 0.0
H840 H 0.03044 0.23506 0.21779 0.0
H841 H 0.13751 0.01243 0.22605 0.0
H842 H 0.89108 0.9897 0.11438 0.0
H843 H 0.86818 0.01525 0.15513 0.0
H844 H 0.93021 0.06297 0.16489 0.0
H845 H 0.9532 0.03723 0.12512 0.0
H846 H 0.91348 0.04703 0.22708 0.0
H847 H 0.87947 0.08104 0.12255 0.0
H848 H 0.85809 0.08042 0.06603 0.0
H849 H 0.79419 0.05151 0.11535 0.0
H850 H 0.81534 0.05146 0.17194 0.0
H851 H 0.86626 0.13572 0.33581 0.0
H852 H 0.88193 0.11768 0.28222 0.0
H853 H 0.8168 0.0741 0.27336 0.0
H854 H 0.80074 0.09276 0.32661 0.0
H855 H 0.83341 0.08763 0.20965 0.0
H856 H 0.86662 0.05079 0.31221 0.0
H857 H 0.88688 0.05008 0.36943 0.0
H858 H 0.95114 0.08175 0.32452 0.0
H859 H 0.93111 0.08302 0.26711 0.0
C860 C 0.89973 0.00581 0.12493 0.0
C861 C 0.92395 0.01162 0.11625 0.0
C862 C 0.88655 0.02047 0.14799 0.0
C863 C 0.89743 0.04112 0.16279 0.0
C864 C 0.92141 0.0472 0.15358 0.0
C865 C 0.93452 0.03257 0.13059 0.0
C866 C 0.88487 0.05509 0.1904 0.0
C867 C 0.89616 0.05624 0.22305 0.0
C868 C 0.86179 0.06624 0.1855 0.0
C869 C 0.84912 0.06601 0.1514 0.0
C870 C 0.86096 0.07431 0.12123 0.0
C871 C 0.84887 0.07415 0.08922 0.0
C872 C 0.82483 0.06593 0.08712 0.0
C873 C 0.81283 0.05785 0.11701 0.0
C874 C 0.82487 0.0579 0.14905 0.0
C875 C 0.85512 0.12265 0.32199 0.0
C876 C 0.83246 0.11537 0.33538 0.0
C877 C 0.86406 0.11233 0.29148 0.0
C878 C 0.85077 0.09412 0.27429 0.0
C879 C 0.82738 0.08803 0.28631 0.0
C880 C 0.81824 0.09866 0.31667 0.0
C881 C 0.86234 0.07994 0.24597 0.0
C882 C 0.8508 0.07852 0.21347 0.0
C883 C 0.88507 0.06817 0.25099 0.0
C884 C 0.89727 0.06721 0.28543 0.0
C885 C 0.88501 0.05776 0.31459 0.0
C886 C 0.89645 0.05724 0.34705 0.0
C887 C 0.92026 0.06592 0.35063 0.0
C888 C 0.93269 0.07507 0.32172 0.0
C889 C 0.9213 0.07568 0.28921 0.0
H890 H 0.92909 0.0655 0.37578 0.0
H891 H 0.81549 0.06586 0.06233 0.0
H892 H 0.00484 0.96195 0.17375 0.0
H893 H 0.98446 0.94396 0.22399 0.0
H894 H 0.93141 0.91069 0.15652 0.0
H895 H 0.95215 0.92802 0.10596 0.0
H896 H 0.91454 0.9295 0.22821 0.0
H897 H 0.97317 0.87817 0.16896 0.0
H898 H 0.01322 0.87004 0.14237 0.0
H899 H 0.0483 0.88216 0.24051 0.0
H900 H 0.00852 0.89143 0.26742 0.0
H901 H 0.87988 0.83333 0.34114 0.0
H902 H 0.89199 0.85686 0.29014 0.0
H903 H 0.96018 0.87479 0.33984 0.0
H904 H 0.94884 0.85008 0.3901 0.0
H905 H 0.96794 0.86394 0.27513 0.0
H906 H 0.91146 0.91574 0.33511 0.0
H907 H 0.87253 0.92671 0.3631 0.0
H908 H 0.83461 0.91508 0.26693 0.0
H909 H 0.87329 0.90371 0.23846 0.0
C910 C 0.98843 0.95136 0.16962 0.0
C911 C 0.98009 0.94629 0.13585 0.0
C912 C 0.97682 0.94119 0.19835 0.0
C913 C 0.9567 0.92586 0.19373 0.0
C914 C 0.94689 0.92261 0.16043 0.0
C915 C 0.95869 0.93262 0.13156 0.0
C916 C 0.94858 0.91035 0.22277 0.0
C917 C 0.92597 0.91493 0.23831 0.0
C918 C 0.96391 0.89177 0.23611 0.0
C919 C 0.98786 0.88592 0.22007 0.0
C920 C 0.98945 0.87953 0.18477 0.0
C921 C 0.01212 0.87472 0.16962 0.0
C922 C 0.03333 0.87583 0.18967 0.0
C923 C 0.03188 0.88161 0.22494 0.0
C924 C 0.00928 0.88667 0.24014 0.0
C925 C 0.89764 0.84193 0.34103 0.0
C926 C 0.91337 0.83985 0.36979 0.0
C927 C 0.90438 0.85568 0.31203 0.0
C928 C 0.92679 0.86797 0.31145 0.0
C929 C 0.94272 0.86559 0.33983 0.0
C930 C 0.93611 0.85163 0.36868 0.0
C931 C 0.93383 0.8831 0.28116 0.0
C932 C 0.95634 0.87842 0.26518 0.0
C933 C 0.9185 0.90174 0.26773 0.0
C934 C 0.89523 0.90862 0.28475 0.0
C935 C 0.89479 0.91533 0.32 0.0
C936 C 0.87278 0.92166 0.33594 0.0
C937 C 0.8511 0.92152 0.31683 0.0
C938 C 0.85141 0.91513 0.28171 0.0
C939 C 0.87337 0.90877 0.26565 0.0
H940 H 0.83408 0.92643 0.32922 0.0
H941 H 0.05086 0.87206 0.17793 0.0
H942 H 0.06131 0.95772 0.12747 0.0
H943 H 0.08085 0.93474 0.17356 0.0
H944 H 0.14057 0.9858 0.17367 0.0
H945 H 0.12122 0.00848 0.12594 0.0
H946 H 0.15625 0.93903 0.18588 0.0
H947 H 0.0926 0.99166 0.2268 0.0
H948 H 0.05099 0.0085 0.22883 0.0
H949 H 0.0234 0.9387 0.26067 0.0
H950 H 0.06491 0.92143 0.25838 0.0
H951 H 0.19189 0.91148 0.36192 0.0
H952 H 0.18105 0.92947 0.3056 0.0
H953 H 0.11679 0.88424 0.30152 0.0
H954 H 0.12731 0.86669 0.35804 0.0
H955 H 0.10506 0.92988 0.29139 0.0
H956 H 0.16581 0.87584 0.2423 0.0
H957 H 0.20669 0.85721 0.23768 0.0
H958 H 0.23834 0.92796 0.22207 0.0
H959 H 0.19762 0.94699 0.22661 0.0
C960 C 0.07881 0.96376 0.13643 0.0
C961 C 0.08962 0.98487 0.12282 0.0
C962 C 0.08992 0.95072 0.16318 0.0
C963 C 0.11189 0.95888 0.17761 0.0
C964 C 0.12344 0.97935 0.16315 0.0
C965 C 0.1123 0.99236 0.13607 0.0
C966 C 0.12154 0.94712 0.20947 0.0
C967 C 0.1452 0.93729 0.20914 0.0
C968 C 0.10689 0.94451 0.23958 0.0
C969 C 0.08194 0.95517 0.24207 0.0
C970 C 0.0777 0.97989 0.23416 0.0
C971 C 0.05409 0.98951 0.2353 0.0
C972 C 0.03451 0.97464 0.24472 0.0
C973 C 0.03856 0.95017 0.25321 0.0
C974 C 0.06214 0.94047 0.252 0.0
C975 C 0.17577 0.90502 0.34855 0.0
C976 C 0.16032 0.88785 0.36435 0.0
C977 C 0.1696 0.91526 0.31636 0.0
C978 C 0.14809 0.9082 0.29928 0.0
C979 C 0.13338 0.89009 0.31429 0.0
C980 C 0.13939 0.88007 0.34654 0.0
C981 C 0.13956 0.92121 0.26762 0.0
C982 C 0.11612 0.93155 0.26814 0.0
C983 C 0.1543 0.92416 0.23776 0.0
C984 C 0.17875 0.91282 0.23509 0.0
C985 C 0.18153 0.88741 0.2381 0.0
C986 C 0.20465 0.87679 0.23541 0.0
C987 C 0.22511 0.8914 0.22971 0.0
C988 C 0.22249 0.91667 0.22657 0.0
C989 C 0.19939 0.92738 0.22909 0.0
H990 H 0.24299 0.88314 0.22763 0.0
H991 H 0.01623 0.98208 0.24551 0.0
H992 H 0.02351 0.95946 0.91732 0.0
H993 H 0.02714 0.94214 0.85945 0.0
H994 H 0.00818 0.01175 0.81433 0.0
H995 H 0.00575 0.02956 0.87265 0.0
H996 H 0.00668 0.93468 0.79892 0.0
H997 H 0.04582 0.02445 0.75183 0.0
H998 H 0.05978 0.06364 0.77637 0.0
H999 H 0.08568 0.02649 0.86765 0.0
H1000 H 0.07198 0.98716 0.84356 0.0
H1001 H 0.06625 0.90594 0.63735 0.0
H1002 H 0.04011 0.92663 0.67968 0.0
H1003 H 0.10242 0.93807 0.74611 0.0
H1004 H 0.1287 0.91817 0.70358 0.0
H1005 H 0.07522 0.97838 0.7422 0.0
H1006 H 0.06222 0.89225 0.76066 0.0
H1007 H 0.05081 0.85077 0.74238 0.0
H1008 H 0.97856 0.87574 0.7176 0.0
H1009 H 0.98971 0.91753 0.73516 0.0
C1010 C 0.01937 0.9709 0.89513 0.0
C1011 C 0.01496 0.99592 0.89933 0.0
C1012 C 0.02135 0.96095 0.86197 0.0
C1013 C 0.01866 0.97585 0.8325 0.0
C1014 C 0.01099 0.00014 0.83675 0.0
C1015 C 0.00964 0.01028 0.87 0.0
C1016 C 0.02864 0.96721 0.79887 0.0
C1017 C 0.02131 0.94444 0.78601 0.0
C1018 C 0.04807 0.97971 0.78241 0.0
C1019 C 0.05776 0.00299 0.79601 0.0
C1020 C 0.05469 0.02468 0.77698 0.0
C1021 C 0.0625 0.04689 0.79084 0.0
C1022 C 0.07357 0.04752 0.82356 0.0
C1023 C 0.07709 0.02596 0.84234 0.0
C1024 C 0.06934 0.00372 0.82859 0.0
C1025 C 0.0744 0.91307 0.66085 0.0
C1026 C 0.09956 0.91032 0.66719 0.0
C1027 C 0.05941 0.92475 0.68507 0.0
C1028 C 0.0693 0.93381 0.71609 0.0
C1029 C 0.09441 0.93127 0.7223 0.0
C1030 C 0.10937 0.91963 0.69815 0.0
C1031 C 0.05367 0.94555 0.7427 0.0
C1032 C 0.06 0.96895 0.7542 0.0
C1033 C 0.03383 0.93326 0.75848 0.0
C1034 C 0.02694 0.90809 0.74859 0.0
C1035 C 0.04397 0.88894 0.75102 0.0
C1036 C 0.03755 0.86538 0.74083 0.0
C1037 C 0.01406 0.86067 0.72856 0.0
C1038 C 0.99681 0.87946 0.72688 0.0
C1039 C 0.00318 0.90309 0.73693 0.0
H1040 H 0.00926 0.84246 0.72034 0.0
H1041 H 0.07944 0.06469 0.83441 0.0
H1042 H 0.02352 0.06882 0.90297 0.0
H1043 H 0.03801 0.08927 0.8507 0.0
H1044 H 0.98685 0.14794 0.86812 0.0
H1045 H 0.97207 0.12729 0.92032 0.0
H1046 H 0.98253 0.13266 0.80491 0.0
H1047 H 0.05095 0.15368 0.87702 0.0
H1048 H 0.08577 0.14667 0.91636 0.0
H1049 H 0.12002 0.10131 0.83973 0.0
H1050 H 0.08532 0.1079 0.80002 0.0
H1051 H 0.03435 0.21461 0.67775 0.0
H1052 H 0.02037 0.19529 0.73186 0.0
H1053 H 0.0563 0.12839 0.70261 0.0
H1054 H 0.06997 0.14744 0.64835 0.0
H1055 H 0.06836 0.14778 0.7707 0.0
H1056 H -0.00028 0.12599 0.6999 0.0
H1057 H 0.96536 0.13338 0.65983 0.0
H1058 H 0.93213 0.18117 0.73433 0.0
H1059 H 0.96647 0.17431 0.77468 0.0
C1060 C 0.01554 0.08617 0.89588 0.0
C1061 C 0.99647 0.09631 0.91548 0.0
C1062 C 0.02398 0.09798 0.8661 0.0
C1063 C 0.01346 0.12012 0.85535 0.0
C1064 C 0.99512 0.13077 0.87577 0.0
C1065 C 0.98677 0.11903 0.90568 0.0
C1066 C 0.02012 0.13115 0.82148 0.0
C1067 C 0.0013 0.1364 0.79777 0.0
C1068 C 0.04465 0.13522 0.8116 0.0
C1069 C 0.06539 0.13107 0.83569 0.0
C1070 C 0.06579 0.14202 0.86868 0.0
C1071 C 0.08556 0.13817 0.89102 0.0
C1072 C 0.10507 0.12348 0.88059 0.0
C1073 C 0.1049 0.11269 0.84778 0.0
C1074 C 0.08522 0.11652 0.82532 0.0
C1075 C 0.03899 0.19571 0.6828 0.0
C1076 C 0.05315 0.18244 0.65903 0.0
C1077 C 0.03095 0.18471 0.71351 0.0
C1078 C 0.03732 0.16047 0.72099 0.0
C1079 C 0.05119 0.14711 0.6971 0.0
C1080 C 0.05886 0.15794 0.66616 0.0
C1081 C 0.0308 0.14952 0.75475 0.0
C1082 C 0.04963 0.14419 0.77821 0.0
C1083 C 0.00634 0.14549 0.76449 0.0
C1084 C 0.98582 0.14988 0.74012 0.0
C1085 C 0.98523 0.1383 0.70758 0.0
C1086 C 0.96572 0.14233 0.68486 0.0
C1087 C 0.94661 0.1578 0.69448 0.0
C1088 C 0.94696 0.16923 0.72688 0.0
C1089 C 0.96644 0.16527 0.74969 0.0
H1090 H 0.93151 0.16087 0.67687 0.0
H1091 H 0.12037 0.12049 0.89783 0.0
H1092 H 0.96322 0.9749 0.85838 0.0
H1093 H 0.95071 0.99326 0.8028 0.0
H1094 H 0.8872 0.02402 0.85239 0.0
H1095 H 0.89952 0.00604 0.90752 0.0
H1096 H 0.87582 0.00034 0.79258 0.0
H1097 H 0.9368 0.05828 0.83256 0.0
H1098 H 0.9777 0.0724 0.84905 0.0
H1099 H 0.0057 0.05039 0.74977 0.0
H1100 H 0.96493 0.03564 0.7329 0.0
H1101 H 0.82684 0.09094 0.68478 0.0
H1102 H 0.8459 0.06792 0.73185 0.0
H1103 H 0.90728 0.05155 0.66577 0.0
H1104 H 0.88895 0.07571 0.6191 0.0
H1105 H 0.92296 0.06256 0.72749 0.0
H1106 H 0.86306 0.00818 0.68431 0.0
H1107 H 0.82243 0.99472 0.66485 0.0
H1108 H 0.79341 0.00832 0.76659 0.0
H1109 H 0.8338 0.0222 0.78655 0.0
C1110 C 0.94673 0.98578 0.85741 0.0
C1111 C 0.93238 0.98906 0.88736 0.0
C1112 C 0.93961 0.99624 0.82568 0.0
C1113 C 0.91802 0.01002 0.82351 0.0
C1114 C 0.90387 0.01338 0.85345 0.0
C1115 C 0.91099 0.00312 0.88501 0.0
C1116 C 0.90939 0.02057 0.79017 0.0
C1117 C 0.88607 0.01404 0.77841 0.0
C1118 C 0.9232 0.03765 0.77087 0.0
C1119 C 0.94789 0.04552 0.78168 0.0
C1120 C 0.95175 0.05609 0.81445 0.0
C1121 C 0.97493 0.06431 0.8238 0.0
C1122 C 0.99436 0.06226 0.80049 0.0
C1123 C 0.99065 0.05191 0.76781 0.0
C1124 C 0.96753 0.04358 0.75838 0.0
C1125 C 0.84453 0.08273 0.68033 0.0
C1126 C 0.85629 0.08513 0.64804 0.0
C1127 C 0.85527 0.06925 0.70715 0.0
C1128 C 0.8778 0.05754 0.70214 0.0
C1129 C 0.88979 0.06022 0.67016 0.0
C1130 C 0.87916 0.07388 0.64339 0.0
C1131 C 0.88901 0.04299 0.73061 0.0
C1132 C 0.91282 0.04861 0.7413 0.0
C1133 C 0.87579 0.0248 0.7487 0.0
C1134 C 0.85145 0.0164 0.73685 0.0
C1135 C 0.84798 0.00847 0.70248 0.0
C1136 C 0.825 0.00074 0.69136 0.0
C1137 C 0.80534 0.00071 0.71445 0.0
C1138 C 0.80865 0.00836 0.74873 0.0
C1139 C 0.8316 0.01614 0.75997 0.0
H1140 H 0.78756 0.99472 0.7058 0.0
H1141 H 0.0123 0.06861 0.80765 0.0
H1142 H 0.99098 0.92599 0.90482 0.0
H1143 H 0.96691 0.90979 0.85697 0.0
H1144 H 0.95656 0.84265 0.91387 0.0
H1145 H 0.98093 0.85878 0.96194 0.0
H1146 H 0.9725 0.83487 0.84822 0.0
H1147 H 0.90852 0.87982 0.9017 0.0
H1148 H 0.88915 0.91554 0.92914 0.0
H1149 H 0.89759 0.95645 0.83457 0.0
H1150 H 0.91778 0.92122 0.80701 0.0
H1151 H 0.896 0.78752 0.71643 0.0
H1152 H 0.90893 0.80229 0.7734 0.0
H1153 H 0.92424 0.87297 0.72902 0.0
H1154 H 0.91047 0.85864 0.67226 0.0
H1155 H 0.90228 0.87671 0.7924 0.0
H1156 H 0.96741 0.83127 0.73991 0.0
H1157 H 0.98781 0.79566 0.71392 0.0
H1158 H 0.97657 0.75479 0.80789 0.0
H1159 H 0.95586 0.79014 0.83433 0.0
C1160 C 0.98352 0.90783 0.90724 0.0
C1161 C 0.98807 0.89355 0.93694 0.0
C1162 C 0.96956 0.89867 0.88001 0.0
C1163 C 0.95983 0.87509 0.88203 0.0
C1164 C 0.96393 0.86092 0.9119 0.0
C1165 C 0.97782 0.87015 0.9393 0.0
C1166 C 0.94701 0.86468 0.85175 0.0
C1167 C 0.95678 0.84366 0.83643 0.0
C1168 C 0.92691 0.87659 0.83605 0.0
C1169 C 0.9149 0.89795 0.85245 0.0
C1170 C 0.90657 0.89656 0.88696 0.0
C1171 C 0.89542 0.91671 0.90251 0.0
C1172 C 0.8922 0.93828 0.88363 0.0
C1173 C 0.90016 0.93975 0.84919 0.0
C1174 C 0.9115 0.9197 0.83362 0.0
C1175 C 0.90173 0.80632 0.71891 0.0
C1176 C 0.90239 0.82187 0.68979 0.0
C1177 C 0.90924 0.81468 0.75141 0.0
C1178 C 0.91774 0.83863 0.75528 0.0
C1179 C 0.91774 0.85441 0.72653 0.0
C1180 C 0.91016 0.8461 0.69406 0.0
C1181 C 0.92788 0.84695 0.78879 0.0
C1182 C 0.91772 0.86767 0.80455 0.0
C1183 C 0.94761 0.8347 0.805 0.0
C1184 C 0.95989 0.81333 0.78899 0.0
C1185 C 0.96915 0.81466 0.75497 0.0
C1186 C 0.98079 0.79452 0.74016 0.0
C1187 C 0.98344 0.77295 0.75921 0.0
C1188 C 0.97448 0.7715 0.79314 0.0
C1189 C 0.9628 0.7916 0.80805 0.0
H1190 H 0.99247 0.75737 0.74772 0.0
H1191 H 0.88349 0.95384 0.89566 0.0
H1192 H 0.53739 0.59351 0.58893 0.0
H1193 H 0.56203 0.60535 0.63924 0.0
H1194 H 0.53298 0.54443 0.69737 0.0
H1195 H 0.50759 0.53348 0.64765 0.0
H1196 H 0.52741 0.58312 0.7326 0.0
H1197 H 0.59612 0.54901 0.67171 0.0
H1198 H 0.62192 0.54371 0.61976 0.0
H1199 H 0.63887 0.62006 0.6199 0.0
H1200 H 0.61321 0.62591 0.67191 0.0
H1201 H 0.59683 0.60574 0.88379 0.0
H1202 H 0.58248 0.586 0.83069 0.0
H1203 H 0.60222 0.64973 0.77116 0.0
H1204 H 0.6164 0.6697 0.82415 0.0
H1205 H 0.61444 0.60736 0.73725 0.0
H1206 H 0.54431 0.6417 0.79499 0.0
H1207 H 0.51559 0.64848 0.84331 0.0
H1208 H 0.4994 0.57191 0.84644 0.0
H1209 H 0.52836 0.56466 0.79855 0.0
C1210 C 0.53696 0.58234 0.61219 0.0
C1211 C 0.52088 0.56263 0.61475 0.0
C1212 C 0.55104 0.58901 0.64089 0.0
C1213 C 0.54953 0.57567 0.67212 0.0
C1214 C 0.53449 0.555 0.67366 0.0
C1215 C 0.52009 0.54869 0.64529 0.0
C1216 C 0.56128 0.58477 0.70427 0.0
C1217 C 0.54658 0.58791 0.73377 0.0
C1218 C 0.58611 0.59166 0.70558 0.0
C1219 C 0.60265 0.58792 0.67559 0.0
C1220 C 0.60538 0.56467 0.66071 0.0
C1221 C 0.61993 0.56157 0.63124 0.0
C1222 C 0.63185 0.58155 0.61645 0.0
C1223 C 0.62958 0.60462 0.63139 0.0
C1224 C 0.61513 0.60783 0.66096 0.0
C1225 C 0.59805 0.61559 0.85941 0.0
C1226 C 0.60756 0.63937 0.85822 0.0
C1227 C 0.58998 0.60423 0.8291 0.0
C1228 C 0.59113 0.6165 0.79708 0.0
C1229 C 0.60128 0.63993 0.7956 0.0
C1230 C 0.60937 0.6513 0.82591 0.0
C1231 C 0.58053 0.60546 0.76545 0.0
C1232 C 0.59539 0.60212 0.73611 0.0
C1233 C 0.55579 0.5983 0.7642 0.0
C1234 C 0.53874 0.60259 0.79348 0.0
C1235 C 0.53484 0.62628 0.80626 0.0
C1236 C 0.51848 0.63021 0.83353 0.0
C1237 C 0.50574 0.61063 0.84803 0.0
C1238 C 0.50935 0.58706 0.83529 0.0
C1239 C 0.52576 0.58302 0.80811 0.0
H1240 H 0.49303 0.61372 0.86907 0.0
H1241 H 0.64281 0.57915 0.59339 0.0
H1242 H 0.44548 0.55568 0.63173 0.0
H1243 H 0.4287 0.58483 0.6726 0.0
H1244 H 0.36463 0.54 0.6838 0.0
H1245 H 0.38115 0.51128 0.64089 0.0
H1246 H 0.35399 0.58999 0.68222 0.0
H1247 H 0.41262 0.53585 0.74083 0.0
H1248 H 0.45353 0.51757 0.74772 0.0
H1249 H 0.48481 0.58893 0.75799 0.0
H1250 H 0.4442 0.60758 0.75082 0.0
H1251 H 0.31248 0.61955 0.85114 0.0
H1252 H 0.32479 0.6052 0.79369 0.0
H1253 H 0.3921 0.64544 0.80244 0.0
H1254 H 0.3801 0.65912 0.86041 0.0
H1255 H 0.40242 0.60175 0.78974 0.0
H1256 H 0.35034 0.65762 0.73152 0.0
H1257 H 0.31358 0.68125 0.71581 0.0
H1258 H 0.27402 0.6148 0.69918 0.0
H1259 H 0.31059 0.59079 0.71464 0.0
C1260 C 0.42755 0.55246 0.64178 0.0
C1261 C 0.41451 0.53156 0.63238 0.0
C1262 C 0.41807 0.56894 0.66566 0.0
C1263 C 0.39553 0.56446 0.68147 0.0
C1264 C 0.38208 0.5438 0.67178 0.0
C1265 C 0.39158 0.52737 0.64752 0.0
C1266 C 0.38684 0.58047 0.70973 0.0
C1267 C 0.36435 0.59242 0.70598 0.0
C1268 C 0.40106 0.58454 0.73985 0.0
C1269 C 0.42538 0.57311 0.74502 0.0
C1270 C 0.42825 0.54762 0.74444 0.0
C1271 C 0.4514 0.53719 0.74841 0.0
C1272 C 0.47179 0.55207 0.75323 0.0
C1273 C 0.46905 0.57739 0.75426 0.0
C1274 C 0.44597 0.5879 0.7503 0.0
C1275 C 0.3296 0.62583 0.84034 0.0
C1276 C 0.34551 0.64014 0.86027 0.0
C1277 C 0.33657 0.61777 0.80737 0.0
C1278 C 0.35941 0.62422 0.79361 0.0
C1279 C 0.37447 0.64008 0.81255 0.0
C1280 C 0.36766 0.64783 0.84567 0.0
C1281 C 0.3692 0.61129 0.76273 0.0
C1282 C 0.39195 0.5997 0.76599 0.0
C1283 C 0.35558 0.60822 0.73179 0.0
C1284 C 0.3331 0.62243 0.72465 0.0
C1285 C 0.3337 0.64806 0.72497 0.0
C1286 C 0.31295 0.66152 0.71591 0.0
C1287 C 0.29145 0.64953 0.70665 0.0
C1288 C 0.29065 0.62406 0.70651 0.0
C1289 C 0.3114 0.61052 0.71532 0.0
H1290 H 0.27545 0.65999 0.69947 0.0
H1291 H 0.48971 0.54398 0.75621 0.0
H1292 H 0.50035 0.40767 0.64614 0.0
H1293 H 0.47923 0.38237 0.68852 0.0
H1294 H 0.41664 0.43001 0.6832 0.0
H1295 H 0.43806 0.45574 0.64105 0.0
H1296 H 0.43217 0.41961 0.75065 0.0
H1297 H 0.41366 0.37553 0.64689 0.0
H1298 H 0.42272 0.35467 0.59171 0.0
H1299 H 0.46781 0.3029 0.64542 0.0
H1300 H 0.4595 0.32358 0.70093 0.0
H1301 H 0.3745 0.34181 0.87172 0.0
H1302 H 0.38138 0.36544 0.81842 0.0
H1303 H 0.44342 0.31985 0.79429 0.0
H1304 H 0.43563 0.2955 0.84667 0.0
H1305 H 0.42104 0.33036 0.73736 0.0
H1306 H 0.44828 0.37707 0.83566 0.0
H1307 H 0.44424 0.39771 0.89222 0.0
H1308 H 0.38839 0.44426 0.8502 0.0
H1309 H 0.39188 0.42364 0.79348 0.0
C1310 C 0.48205 0.41281 0.65385 0.0
C1311 C 0.47073 0.43373 0.63999 0.0
C1312 C 0.46994 0.39817 0.67785 0.0
C1313 C 0.44625 0.40413 0.68853 0.0
C1314 C 0.43485 0.425 0.67493 0.0
C1315 C 0.447 0.43963 0.65069 0.0
C1316 C 0.43426 0.3892 0.71555 0.0
C1317 C 0.4291 0.40019 0.74753 0.0
C1318 C 0.43108 0.36377 0.7116 0.0
C1319 C 0.43606 0.35125 0.67814 0.0
C1320 C 0.42575 0.35988 0.64693 0.0
C1321 C 0.43073 0.34808 0.61557 0.0
C1322 C 0.44586 0.32757 0.61502 0.0
C1323 C 0.45608 0.31879 0.64587 0.0
C1324 C 0.45122 0.33053 0.67731 0.0
C1325 C 0.38938 0.33678 0.85465 0.0
C1326 C 0.40469 0.3171 0.86301 0.0
C1327 C 0.39339 0.35029 0.8244 0.0
C1328 C 0.41323 0.34474 0.80271 0.0
C1329 C 0.42802 0.32449 0.81062 0.0
C1330 C 0.42368 0.31067 0.8405 0.0
C1331 C 0.41943 0.36066 0.77278 0.0
C1332 C 0.42353 0.34986 0.74028 0.0
C1333 C 0.42224 0.38621 0.77642 0.0
C1334 C 0.42011 0.39861 0.81049 0.0
C1335 C 0.435 0.39158 0.83857 0.0
C1336 C 0.43283 0.40329 0.87064 0.0
C1337 C 0.41601 0.42223 0.87484 0.0
C1338 C 0.40137 0.42954 0.84694 0.0
C1339 C 0.40343 0.41786 0.81482 0.0
H1340 H 0.41437 0.43128 0.89968 0.0
H1341 H 0.4496 0.31845 0.59069 0.0
H1342 H 0.53799 0.4745 0.64189 0.0
H1343 H 0.56234 0.45307 0.6857 0.0
H1344 H 0.6277 0.48572 0.6441 0.0
H1345 H 0.60329 0.50617 0.59908 0.0
H1346 H 0.63518 0.43801 0.66137 0.0
H1347 H 0.60488 0.5096 0.71781 0.0
H1348 H 0.57373 0.53962 0.73496 0.0
H1349 H 0.53269 0.48337 0.78594 0.0
H1350 H 0.56392 0.45297 0.76956 0.0
H1351 H 0.70733 0.41686 0.81508 0.0
H1352 H 0.68648 0.43354 0.76382 0.0
H1353 H 0.61798 0.40572 0.80221 0.0
H1354 H 0.63865 0.38971 0.85376 0.0
H1355 H 0.61361 0.45186 0.78497 0.0
H1356 H 0.65008 0.38068 0.73044 0.0
H1357 H 0.68485 0.35442 0.7145 0.0
H1358 H 0.71755 0.41387 0.65868 0.0
H1359 H 0.68319 0.4406 0.67482 0.0
C1360 C 0.55758 0.47643 0.6415 0.0
C1361 C 0.56885 0.49157 0.61697 0.0
C1362 C 0.57146 0.46456 0.66682 0.0
C1363 C 0.59681 0.46798 0.6683 0.0
C1364 C 0.60817 0.48282 0.64338 0.0
C1365 C 0.59424 0.49463 0.61796 0.0
C1366 C 0.61122 0.45675 0.69671 0.0
C1367 C 0.63067 0.44117 0.68844 0.0
C1368 C 0.60528 0.46088 0.73192 0.0
C1369 C 0.58659 0.47902 0.74222 0.0
C1370 C 0.58917 0.50363 0.73259 0.0
C1371 C 0.57152 0.52072 0.74222 0.0
C1372 C 0.5511 0.5134 0.76124 0.0
C1373 C 0.54848 0.489 0.77112 0.0
C1374 C 0.56622 0.47185 0.76185 0.0
C1375 C 0.6879 0.41398 0.81216 0.0
C1376 C 0.67453 0.40213 0.83832 0.0
C1377 C 0.67601 0.42346 0.78288 0.0
C1378 C 0.65066 0.42076 0.77905 0.0
C1379 C 0.63752 0.40811 0.80465 0.0
C1380 C 0.64931 0.39895 0.83405 0.0
C1381 C 0.63739 0.43255 0.74983 0.0
C1382 C 0.61813 0.44845 0.75796 0.0
C1383 C 0.64391 0.42903 0.71457 0.0
C1384 C 0.6642 0.4127 0.70417 0.0
C1385 C 0.66475 0.38818 0.71493 0.0
C1386 C 0.6844 0.37321 0.70584 0.0
C1387 C 0.70346 0.38252 0.68573 0.0
C1388 C 0.70281 0.40672 0.67436 0.0
C1389 C 0.68326 0.42178 0.68346 0.0
H1390 H 0.71877 0.37103 0.67891 0.0
H1391 H 0.53734 0.52663 0.76834 0.0
H1392 H 0.5546 0.50929 0.35247 0.0
H1393 H 0.57552 0.4927 0.30158 0.0
H1394 H 0.63353 0.46599 0.36735 0.0
H1395 H 0.61288 0.4826 0.41825 0.0
H1396 H 0.651 0.49102 0.3122 0.0
H1397 H 0.59272 0.42738 0.33221 0.0
H1398 H 0.55236 0.40855 0.33997 0.0
H1399 H 0.53051 0.43374 0.23885 0.0
H1400 H 0.57064 0.45315 0.23071 0.0
H1401 H 0.71263 0.4179 0.18752 0.0
H1402 H 0.69109 0.43348 0.23841 0.0
H1403 H 0.63098 0.4558 0.17318 0.0
H1404 H 0.65174 0.43911 0.12257 0.0
H1405 H 0.6146 0.43315 0.22817 0.0
H1406 H 0.67215 0.49736 0.20796 0.0
H1407 H 0.71283 0.51533 0.1988 0.0
H1408 H 0.73588 0.48923 0.29891 0.0
H1409 H 0.69542 0.47082 0.30848 0.0
C1410 C 0.5717 0.4997 0.35614 0.0
C1411 C 0.58214 0.49735 0.38939 0.0
C1412 C 0.58359 0.49016 0.32705 0.0
C1413 C 0.60605 0.47808 0.33073 0.0
C1414 C 0.61624 0.47532 0.36395 0.0
C1415 C 0.60437 0.48477 0.39302 0.0
C1416 C 0.61952 0.46924 0.29986 0.0
C1417 C 0.64317 0.47812 0.29403 0.0
C1418 C 0.60902 0.45295 0.2757 0.0
C1419 C 0.5846 0.44199 0.28105 0.0
C1420 C 0.5792 0.42922 0.31183 0.0
C1421 C 0.55637 0.41839 0.31626 0.0
C1422 C 0.53885 0.42005 0.28998 0.0
C1423 C 0.5441 0.43253 0.25921 0.0
C1424 C 0.56687 0.44348 0.2547 0.0
C1425 C 0.69479 0.42603 0.18402 0.0
C1426 C 0.68395 0.42727 0.1509 0.0
C1427 C 0.68261 0.43519 0.21309 0.0
C1428 C 0.65953 0.44606 0.20955 0.0
C1429 C 0.64881 0.44756 0.17651 0.0
C1430 C 0.66085 0.43825 0.14752 0.0
C1431 C 0.64604 0.45499 0.24039 0.0
C1432 C 0.62241 0.44612 0.24626 0.0
C1433 C 0.65649 0.4714 0.26445 0.0
C1434 C 0.68082 0.48251 0.25879 0.0
C1435 C 0.68595 0.49529 0.22791 0.0
C1436 C 0.70896 0.50559 0.22266 0.0
C1437 C 0.72695 0.50337 0.24822 0.0
C1438 C 0.72194 0.49091 0.27912 0.0
C1439 C 0.69897 0.48056 0.28448 0.0
H1440 H 0.74475 0.51135 0.24411 0.0
H1441 H 0.52123 0.41164 0.2934 0.0
H1442 H 0.45395 0.59972 0.38088 0.0
H1443 H 0.47305 0.61875 0.33007 0.0
H1444 H 0.54335 0.61371 0.37979 0.0
H1445 H 0.52447 0.59506 0.43079 0.0
H1446 H 0.53637 0.65813 0.35192 0.0
H1447 H 0.52924 0.5758 0.31465 0.0
H1448 H 0.51244 0.53598 0.29761 0.0
H1449 H 0.46512 0.57112 0.22389 0.0
H1450 H 0.48121 0.61128 0.24105 0.0
H1451 H 0.61202 0.67512 0.20253 0.0
H1452 H 0.59103 0.66196 0.25531 0.0
H1453 H 0.52171 0.66987 0.2034 0.0
H1454 H 0.54256 0.6833 0.15057 0.0
H1455 H 0.52709 0.62554 0.23262 0.0
H1456 H 0.538 0.70837 0.26851 0.0
H1457 H 0.56095 0.74607 0.28023 0.0
H1458 H 0.60512 0.70806 0.35509 0.0
H1459 H 0.58267 0.67003 0.34345 0.0
C1460 C 0.47348 0.60259 0.38095 0.0
C1461 C 0.4877 0.59592 0.4099 0.0
C1462 C 0.48435 0.61332 0.35184 0.0
C1463 C 0.50959 0.61747 0.35109 0.0
C1464 C 0.52383 0.61069 0.37985 0.0
C1465 C 0.51301 0.59994 0.40892 0.0
C1466 C 0.52105 0.62945 0.32064 0.0
C1467 C 0.53455 0.65088 0.32585 0.0
C1468 C 0.51821 0.6203 0.28657 0.0
C1469 C 0.50633 0.59658 0.27932 0.0
C1470 C 0.51483 0.57512 0.29541 0.0
C1471 C 0.5055 0.55247 0.28562 0.0
C1472 C 0.4878 0.55106 0.25959 0.0
C1473 C 0.47883 0.5723 0.24405 0.0
C1474 C 0.48801 0.595 0.25384 0.0
C1475 C 0.59228 0.67462 0.20258 0.0
C1476 C 0.57896 0.68012 0.17228 0.0
C1477 C 0.58031 0.66709 0.23279 0.0
C1478 C 0.5548 0.66504 0.23332 0.0
C1479 C 0.54141 0.67129 0.2035 0.0
C1480 C 0.55336 0.67884 0.1733 0.0
C1481 C 0.54229 0.65423 0.26381 0.0
C1482 C 0.52862 0.63298 0.25863 0.0
C1483 C 0.54521 0.66343 0.29786 0.0
C1484 C 0.55878 0.68628 0.30486 0.0
C1485 C 0.55275 0.70799 0.28724 0.0
C1486 C 0.56564 0.72943 0.29392 0.0
C1487 C 0.58452 0.72945 0.31832 0.0
C1488 C 0.59051 0.70802 0.33616 0.0
C1489 C 0.57769 0.68652 0.32955 0.0
H1490 H 0.59448 0.74607 0.32347 0.0
H1491 H 0.4813 0.53352 0.25101 0.0
H1492 H 0.43286 0.46045 0.38857 0.0
H1493 H 0.42218 0.48066 0.33401 0.0
H1494 H 0.46901 0.54102 0.36031 0.0
H1495 H 0.47948 0.52112 0.41526 0.0
H1496 H 0.42437 0.55625 0.3426 0.0
H1497 H 0.48277 0.50074 0.29873 0.0
H1498 H 0.50297 0.46176 0.28651 0.0
H1499 H 0.44038 0.43786 0.22896 0.0
H1500 H 0.41943 0.47666 0.2415 0.0
H1501 H 0.40597 0.62127 0.18755 0.0
H1502 H 0.42558 0.59828 0.23447 0.0
H1503 H 0.38431 0.53436 0.20617 0.0
H1504 H 0.36541 0.55715 0.15833 0.0
H1505 H 0.42804 0.52097 0.22419 0.0
H1506 H 0.36736 0.57292 0.27531 0.0
H1507 H 0.34638 0.6118 0.28756 0.0
H1508 H 0.41207 0.64052 0.33224 0.0
H1509 H 0.43346 0.60187 0.31974 0.0
C1510 C 0.44116 0.47787 0.38255 0.0
C1511 C 0.45682 0.48929 0.40638 0.0
C1512 C 0.4351 0.48935 0.35128 0.0
C1513 C 0.44477 0.51235 0.34315 0.0
C1514 C 0.46127 0.52331 0.3662 0.0
C1515 C 0.46732 0.51185 0.3975 0.0
C1516 C 0.43629 0.52572 0.31188 0.0
C1517 C 0.42554 0.54868 0.31662 0.0
C1518 C 0.43707 0.5154 0.27821 0.0
C1519 C 0.44941 0.49171 0.27125 0.0
C1520 C 0.47312 0.48715 0.28378 0.0
C1521 C 0.48476 0.46505 0.27672 0.0
C1522 C 0.47301 0.44735 0.25687 0.0
C1523 C 0.44949 0.45162 0.24428 0.0
C1524 C 0.43771 0.4737 0.25137 0.0
C1525 C 0.40123 0.60227 0.19131 0.0
C1526 C 0.38407 0.591 0.16961 0.0
C1527 C 0.41236 0.58916 0.21814 0.0
C1528 C 0.40604 0.5647 0.22438 0.0
C1529 C 0.38946 0.5532 0.20196 0.0
C1530 C 0.37864 0.56622 0.1747 0.0
C1531 C 0.41597 0.55141 0.25501 0.0
C1532 C 0.42687 0.52844 0.2502 0.0
C1533 C 0.415 0.56145 0.28883 0.0
C1534 C 0.40208 0.58463 0.29636 0.0
C1535 C 0.37736 0.5876 0.28754 0.0
C1536 C 0.36538 0.60957 0.29454 0.0
C1537 C 0.37789 0.62865 0.3106 0.0
C1538 C 0.4024 0.62576 0.31976 0.0
C1539 C 0.41445 0.60383 0.31276 0.0
H1540 H 0.36859 0.64564 0.31601 0.0
H1541 H 0.48219 0.4304 0.25115 0.0
H1542 H 0.45341 0.41353 0.43657 0.0
H1543 H 0.43791 0.39174 0.38592 0.0
H1544 H 0.51106 0.386 0.34545 0.0
H1545 H 0.52646 0.40918 0.3949 0.0
H1546 H 0.4808 0.39789 0.29573 0.0
H1547 H 0.48103 0.3375 0.38771 0.0
H1548 H 0.46996 0.32193 0.44579 0.0
H1549 H 0.39399 0.32703 0.4196 0.0
H1550 H 0.40462 0.34288 0.36146 0.0
H1551 H 0.46443 0.30591 0.17013 0.0
H1552 H 0.47746 0.32751 0.22246 0.0
H1553 H 0.40242 0.33479 0.25454 0.0
H1554 H 0.38928 0.31314 0.20235 0.0
H1555 H 0.43134 0.32285 0.30874 0.0
H1556 H 0.43191 0.38267 0.21655 0.0
H1557 H 0.4431 0.40019 0.15966 0.0
H1558 H 0.51893 0.39634 0.18712 0.0
H1559 H 0.5082 0.37845 0.24397 0.0
C1560 C 0.46615 0.40787 0.41666 0.0
C1561 C 0.49113 0.41316 0.41952 0.0
C1562 C 0.45729 0.39522 0.3879 0.0
C1563 C 0.47338 0.38699 0.36211 0.0
C1564 C 0.49832 0.39236 0.36492 0.0
C1565 C 0.50709 0.40552 0.39321 0.0
C1566 C 0.4644 0.37292 0.33195 0.0
C1567 C 0.47043 0.38122 0.29858 0.0
C1568 C 0.45 0.35168 0.33574 0.0
C1569 C 0.44362 0.34156 0.37035 0.0
C1570 C 0.46197 0.33538 0.39439 0.0
C1571 C 0.45577 0.32651 0.42731 0.0
C1572 C 0.43128 0.32355 0.43641 0.0
C1573 C 0.41294 0.32934 0.41252 0.0
C1574 C 0.41904 0.33824 0.37956 0.0
C1575 C 0.45074 0.31213 0.18834 0.0
C1576 C 0.42585 0.30795 0.18211 0.0
C1577 C 0.45818 0.32444 0.2182 0.0
C1578 C 0.44086 0.33302 0.24209 0.0
C1579 C 0.41606 0.32829 0.23641 0.0
C1580 C 0.4086 0.31589 0.20665 0.0
C1581 C 0.44855 0.34746 0.27256 0.0
C1582 C 0.44204 0.33936 0.30592 0.0
C1583 C 0.46274 0.36881 0.26884 0.0
C1584 C 0.46925 0.37902 0.23435 0.0
C1585 C 0.45098 0.3853 0.21028 0.0
C1586 C 0.45724 0.39535 0.17808 0.0
C1587 C 0.48171 0.39932 0.16974 0.0
C1588 C 0.49999 0.3932 0.19357 0.0
C1589 C 0.49383 0.38309 0.22576 0.0
H1590 H 0.48652 0.40717 0.14484 0.0
H1591 H 0.42652 0.31675 0.46195 0.0
loop_
_geom_bond_atom_site_label_1
_geom_bond_atom_site_label_2
_geom_bond_distance
_geom_bond_site_symmetry_2
_ccdc_geom_bond_type
Zn0 O2 1.933 1_556 S
Zn0 O20 1.985 . S
Zn0 O31 1.955 . S
Zn1 O2 1.911 . S
Zn1 O21 1.970 . S
Zn1 O37 1.945 . S
Zn1 O44 1.981 . S
O2 Zn0 1.933 1_554 S
O2 Zn1 1.911 . S
O2 H3 0.841 1_655 S
H3 O2 0.841 1_455 S
C4 O5 1.246 . S
C4 O33 1.276 1_545 S
O5 C4 1.246 . S
Zn6 O8 1.911 . S
Zn6 O23 1.970 . S
Zn6 O40 1.945 . S
Zn6 O47 1.981 . S
Zn7 O8 1.933 1_556 S
Zn7 O22 1.985 . S
Zn7 O29 1.955 . S
O8 Zn6 1.911 . S
O8 Zn7 1.933 1_554 S
O8 H9 0.841 1_455 S
H9 O8 0.841 1_655 S
Zn10 O11 1.933 1_556 S
Zn10 O24 1.985 . S
Zn10 O33 1.955 . S
O11 Zn10 1.933 1_554 S
O11 Zn12 1.911 . S
O11 H13 0.841 1_565 S
Zn12 O11 1.911 . S
Zn12 O25 1.970 . S
Zn12 O41 1.981 . S
Zn12 O43 1.945 . S
H13 O11 0.841 1_545 S
Zn14 O15 1.933 1_556 S
Zn14 O27 1.985 . S
Zn14 O35 1.955 . S
O15 Zn14 1.933 1_554 S
O15 H16 0.841 1_545 S
O15 Zn17 1.911 . S
H16 O15 0.841 1_565 S
Zn17 O15 1.911 . S
Zn17 O28 1.970 . S
Zn17 O38 1.981 . S
Zn17 O46 1.945 . S
C18 O19 1.246 . S
C18 O35 1.276 1_565 S
O19 C18 1.246 . S
O20 Zn0 1.985 . S
O20 C30 1.245 1_556 S
O21 Zn1 1.970 . S
O21 C30 1.263 . S
O22 Zn7 1.985 . S
O22 C34 1.245 1_556 S
O23 Zn6 1.970 . S
O23 C34 1.263 . S
O24 Zn10 1.985 . S
O24 C39 1.245 1_556 S
O25 Zn12 1.970 . S
O25 C39 1.263 . S
C26 O37 1.262 1_455 S
C26 O38 1.245 . S
O27 Zn14 1.985 . S
O27 C45 1.245 1_556 S
O28 Zn17 1.970 . S
O28 C45 1.263 . S
O29 Zn7 1.955 . S
O29 C48 1.276 1_455 S
C30 O20 1.245 1_554 S
C30 O21 1.263 . S
O31 Zn0 1.955 . S
O31 C50 1.276 1_655 S
C32 O40 1.262 1_655 S
C32 O41 1.245 . S
O33 C4 1.276 1_565 S
O33 Zn10 1.955 . S
C34 O22 1.245 1_554 S
C34 O23 1.263 . S
O35 Zn14 1.955 . S
O35 C18 1.276 1_545 S
C36 O43 1.262 1_545 S
C36 O44 1.245 . S
O37 Zn1 1.945 . S
O37 C26 1.262 1_655 S
O38 Zn17 1.981 . S
O38 C26 1.245 . S
C39 O24 1.245 1_554 S
C39 O25 1.263 . S
O40 Zn6 1.945 . S
O40 C32 1.262 1_455 S
O41 Zn12 1.981 . S
O41 C32 1.245 . S
C42 O46 1.262 1_565 S
C42 O47 1.245 . S
O43 Zn12 1.945 . S
O43 C36 1.262 1_565 S
O44 Zn1 1.981 . S
O44 C36 1.245 . S
C45 O27 1.245 1_554 S
C45 O28 1.263 . S
O46 Zn17 1.945 . S
O46 C42 1.262 1_545 S
O47 Zn6 1.981 . S
O47 C42 1.245 . S
C48 O29 1.276 1_655 S
C48 O49 1.246 . S
O49 C48 1.246 . S
C50 O31 1.276 1_455 S
C50 O51 1.246 . S
O51 C50 1.246 . S
Zn52 O54 1.933 . S
Zn52 O72 1.985 . S
Zn52 O83 1.955 . S
Zn53 O54 1.911 . S
Zn53 O73 1.970 . S
Zn53 O89 1.945 . S
Zn53 O96 1.981 . S
O54 Zn52 1.933 . S
O54 Zn53 1.911 . S
O54 H55 0.841 . S
H55 O54 0.841 . S
C56 O57 1.246 . S
C56 O85 1.276 . S
O57 C56 1.246 . S
Zn58 O60 1.911 . S
Zn58 O75 1.970 . S
Zn58 O92 1.945 . S
Zn58 O99 1.981 . S
Zn59 O60 1.933 . S
Zn59 O74 1.985 . S
Zn59 O81 1.955 . S
O60 Zn58 1.911 . S
O60 Zn59 1.933 . S
O60 H61 0.841 . S
H61 O60 0.841 . S
Zn62 O63 1.933 . S
Zn62 O76 1.985 . S
Zn62 O85 1.955 . S
O63 Zn62 1.933 . S
O63 Zn64 1.911 . S
O63 H65 0.841 . S
Zn64 O63 1.911 . S
Zn64 O77 1.970 . S
Zn64 O93 1.981 . S
Zn64 O95 1.945 . S
H65 O63 0.841 . S
Zn66 O67 1.933 . S
Zn66 O79 1.985 . S
Zn66 O87 1.955 . S
O67 Zn66 1.933 . S
O67 H68 0.841 . S
O67 Zn69 1.911 . S
H68 O67 0.841 . S
Zn69 O67 1.911 . S
Zn69 O80 1.970 . S
Zn69 O90 1.981 . S
Zn69 O98 1.945 . S
C70 O71 1.246 . S
C70 O87 1.276 . S
O71 C70 1.246 . S
O72 Zn52 1.985 . S
O72 C82 1.245 . S
O73 Zn53 1.970 . S
O73 C82 1.263 . S
O74 Zn59 1.985 . S
O74 C86 1.245 . S
O75 Zn58 1.970 . S
O75 C86 1.263 . S
O76 Zn62 1.985 . S
O76 C91 1.245 . S
O77 Zn64 1.970 . S
O77 C91 1.263 . S
C78 O89 1.262 . S
C78 O90 1.245 . S
O79 Zn66 1.985 . S
O79 C97 1.245 . S
O80 Zn69 1.970 . S
O80 C97 1.263 . S
O81 Zn59 1.955 . S
O81 C100 1.276 . S
C82 O72 1.245 . S
C82 O73 1.263 . S
O83 Zn52 1.955 . S
O83 C102 1.276 . S
C84 O92 1.262 . S
C84 O93 1.245 . S
O85 C56 1.276 . S
O85 Zn62 1.955 . S
C86 O74 1.245 . S
C86 O75 1.263 . S
O87 Zn66 1.955 . S
O87 C70 1.276 . S
C88 O95 1.262 . S
C88 O96 1.245 . S
O89 Zn53 1.945 . S
O89 C78 1.262 . S
O90 Zn69 1.981 . S
O90 C78 1.245 . S
C91 O76 1.245 . S
C91 O77 1.263 . S
O92 Zn58 1.945 . S
O92 C84 1.262 . S
O93 Zn64 1.981 . S
O93 C84 1.245 . S
C94 O98 1.262 . S
C94 O99 1.245 . S
O95 Zn64 1.945 . S
O95 C88 1.262 . S
O96 Zn53 1.981 . S
O96 C88 1.245 . S
C97 O79 1.245 . S
C97 O80 1.263 . S
O98 Zn69 1.945 . S
O98 C94 1.262 . S
O99 Zn58 1.981 . S
O99 C94 1.245 . S
C100 O81 1.276 . S
C100 O101 1.246 . S
O101 C100 1.246 . S
C102 O83 1.276 . S
C102 O103 1.246 . S
O103 C102 1.246 . S
C104 C105 1.384 . S
C104 H117 0.947 . S
C104 C139 1.382 . S
C105 C104 1.384 . S
C105 C106 1.378 . S
C106 C105 1.378 . S
C106 C107 1.378 . S
C106 H118 0.952 . S
C107 C106 1.378 . S
C107 H119 0.950 . S
C107 C138 1.383 . S
H108 C127 0.947 . S
H109 C128 0.946 . S
H110 C130 0.953 . S
H111 C131 0.945 . S
H112 C133 0.952 . S
H113 C134 0.949 . S
H114 C136 0.950 . S
H115 C137 0.948 . S
H116 C139 0.951 . S
H117 C104 0.947 . S
H118 C106 0.952 . S
H119 C107 0.950 . S
N120 C123 1.382 . S
N120 C125 1.363 . S
N121 C123 1.371 1_556 S
N121 C124 1.372 . S
N122 C124 1.361 1_554 S
N122 C125 1.377 . S
C123 N120 1.382 . S
C123 N121 1.371 1_554 S
C123 C126 1.480 . S
C124 N121 1.372 . S
C124 N122 1.361 1_556 S
C124 C132 1.457 . S
C125 N120 1.363 . S
C125 N122 1.377 . S
C125 C138 1.479 . S
C126 C123 1.480 . S
C126 C127 1.383 . S
C126 C131 1.385 1_554 S
C127 H108 0.947 . S
C127 C126 1.383 . S
C127 C128 1.388 . S
C128 H109 0.946 . S
C128 C127 1.388 . S
C128 C129 1.384 . S
C129 C128 1.384 . S
C129 C130 1.377 1_554 S
C130 H110 0.953 . S
C130 C129 1.377 1_556 S
C130 C131 1.369 . S
C131 H111 0.945 . S
C131 C126 1.385 1_556 S
C131 C130 1.369 . S
C132 C124 1.457 . S
C132 C133 1.372 . S
C132 C137 1.364 . S
C133 H112 0.952 . S
C133 C132 1.372 . S
C133 C134 1.389 . S
C134 H113 0.949 . S
C134 C133 1.389 . S
C134 C135 1.387 . S
C135 C134 1.387 . S
C135 C136 1.372 . S
C136 H114 0.950 . S
C136 C135 1.372 . S
C136 C137 1.379 . S
C137 H115 0.948 . S
C137 C132 1.364 . S
C137 C136 1.379 . S
C138 C107 1.383 . S
C138 C125 1.479 . S
C138 C139 1.398 . S
C139 C104 1.382 . S
C139 H116 0.951 . S
C139 C138 1.398 . S
C140 C141 1.384 . S
C140 H153 0.947 . S
C140 C175 1.382 . S
C141 C140 1.384 . S
C141 C142 1.378 . S
C142 C141 1.378 . S
C142 C143 1.378 . S
C142 H154 0.952 . S
C143 C142 1.378 . S
C143 H155 0.950 . S
C143 C174 1.383 . S
H144 C163 0.947 . S
H145 C164 0.946 . S
H146 C166 0.953 . S
H147 C167 0.945 . S
H148 C169 0.952 . S
H149 C170 0.949 . S
H150 C172 0.950 . S
H151 C173 0.948 . S
H152 C175 0.951 . S
H153 C140 0.947 . S
H154 C142 0.952 . S
H155 C143 0.950 . S
N156 C159 1.382 . S
N156 C161 1.363 . S
N157 C159 1.371 1_556 S
N157 C160 1.372 . S
N158 C160 1.361 1_554 S
N158 C161 1.377 . S
C159 N156 1.382 . S
C159 N157 1.371 1_554 S
C159 C162 1.480 . S
C160 N157 1.372 . S
C160 N158 1.361 1_556 S
C160 C168 1.457 . S
C161 N156 1.363 . S
C161 N158 1.377 . S
C161 C174 1.479 . S
C162 C159 1.480 . S
C162 C163 1.383 . S
C162 C167 1.385 1_554 S
C163 H144 0.947 . S
C163 C162 1.383 . S
C163 C164 1.388 . S
C164 H145 0.946 . S
C164 C163 1.388 . S
C164 C165 1.384 . S
C165 C164 1.384 . S
C165 C166 1.377 1_554 S
C166 H146 0.953 . S
C166 C165 1.377 1_556 S
C166 C167 1.369 . S
C167 H147 0.945 . S
C167 C162 1.385 1_556 S
C167 C166 1.369 . S
C168 C160 1.457 . S
C168 C169 1.372 . S
C168 C173 1.364 . S
C169 H148 0.952 . S
C169 C168 1.372 . S
C169 C170 1.389 . S
C170 H149 0.949 . S
C170 C169 1.389 . S
C170 C171 1.387 . S
C171 C170 1.387 . S
C171 C172 1.372 . S
C172 H150 0.950 . S
C172 C171 1.372 . S
C172 C173 1.379 . S
C173 H151 0.948 . S
C173 C168 1.364 . S
C173 C172 1.379 . S
C174 C143 1.383 . S
C174 C161 1.479 . S
C174 C175 1.398 . S
C175 C140 1.382 . S
C175 H152 0.951 . S
C175 C174 1.398 . S
C176 C177 1.384 . S
C176 H189 0.947 . S
C176 C211 1.382 . S
C177 C176 1.384 . S
C177 C178 1.378 . S
C178 C177 1.378 . S
C178 C179 1.378 . S
C178 H190 0.952 . S
C179 C178 1.378 . S
C179 H191 0.950 . S
C179 C210 1.383 . S
H180 C199 0.947 . S
H181 C200 0.946 . S
H182 C202 0.953 . S
H183 C203 0.945 . S
H184 C205 0.952 . S
H185 C206 0.949 . S
H186 C208 0.950 . S
H187 C209 0.948 . S
H188 C211 0.951 . S
H189 C176 0.947 . S
H190 C178 0.952 . S
H191 C179 0.950 . S
N192 C195 1.382 1_556 S
N192 C197 1.363 . S
N193 C195 1.371 . S
N193 C196 1.372 . S
N194 C196 1.361 . S
N194 C197 1.377 1_554 S
C195 N192 1.382 1_554 S
C195 N193 1.371 . S
C195 C198 1.480 . S
C196 N193 1.372 . S
C196 N194 1.361 . S
C196 C204 1.457 . S
C197 N192 1.363 . S
C197 N194 1.377 1_556 S
C197 C210 1.479 . S
C198 C195 1.480 . S
C198 C199 1.383 1_554 S
C198 C203 1.385 . S
C199 H180 0.947 . S
C199 C198 1.383 1_556 S
C199 C200 1.388 . S
C200 H181 0.946 . S
C200 C199 1.388 . S
C200 C201 1.384 1_556 S
C201 C200 1.384 1_554 S
C201 C202 1.377 . S
C202 H182 0.953 . S
C202 C201 1.377 . S
C202 C203 1.369 . S
C203 H183 0.945 . S
C203 C198 1.385 . S
C203 C202 1.369 . S
C204 C196 1.457 . S
C204 C205 1.372 . S
C204 C209 1.364 . S
C205 H184 0.952 . S
C205 C204 1.372 . S
C205 C206 1.389 . S
C206 H185 0.949 . S
C206 C205 1.389 . S
C206 C207 1.387 . S
C207 C206 1.387 . S
C207 C208 1.372 . S
C208 H186 0.950 . S
C208 C207 1.372 . S
C208 C209 1.379 . S
C209 H187 0.948 . S
C209 C204 1.364 . S
C209 C208 1.379 . S
C210 C179 1.383 . S
C210 C197 1.479 . S
C210 C211 1.398 . S
C211 C176 1.382 . S
C211 H188 0.951 . S
C211 C210 1.398 . S
C212 C213 1.384 . S
C212 H225 0.947 . S
C212 C247 1.382 . S
C213 C212 1.384 . S
C213 C214 1.378 . S
C214 C213 1.378 . S
C214 C215 1.378 . S
C214 H226 0.952 . S
C215 C214 1.378 . S
C215 H227 0.950 . S
C215 C246 1.383 . S
H216 C235 0.947 . S
H217 C236 0.946 . S
H218 C238 0.953 . S
H219 C239 0.945 . S
H220 C241 0.952 . S
H221 C242 0.949 . S
H222 C244 0.950 . S
H223 C245 0.948 . S
H224 C247 0.951 . S
H225 C212 0.947 . S
H226 C214 0.952 . S
H227 C215 0.950 . S
N228 C231 1.382 1_556 S
N228 C233 1.363 . S
N229 C231 1.371 . S
N229 C232 1.372 . S
N230 C232 1.361 . S
N230 C233 1.377 1_554 S
C231 N228 1.382 1_554 S
C231 N229 1.371 . S
C231 C234 1.480 . S
C232 N229 1.372 . S
C232 N230 1.361 . S
C232 C240 1.457 . S
C233 N228 1.363 . S
C233 N230 1.377 1_556 S
C233 C246 1.479 . S
C234 C231 1.480 . S
C234 C235 1.383 1_554 S
C234 C239 1.385 . S
C235 H216 0.947 . S
C235 C234 1.383 1_556 S
C235 C236 1.388 . S
C236 H217 0.946 . S
C236 C235 1.388 . S
C236 C237 1.384 1_556 S
C237 C236 1.384 1_554 S
C237 C238 1.377 . S
C238 H218 0.953 . S
C238 C237 1.377 . S
C238 C239 1.369 . S
C239 H219 0.945 . S
C239 C234 1.385 . S
C239 C238 1.369 . S
C240 C232 1.457 . S
C240 C241 1.372 . S
C240 C245 1.364 . S
C241 H220 0.952 . S
C241 C240 1.372 . S
C241 C242 1.389 . S
C242 H221 0.949 . S
C242 C241 1.389 . S
C242 C243 1.387 . S
C243 C242 1.387 . S
C243 C244 1.372 . S
C244 H222 0.950 . S
C244 C243 1.372 . S
C244 C245 1.379 . S
C245 H223 0.948 . S
C245 C240 1.364 . S
C245 C244 1.379 . S
C246 C215 1.383 . S
C246 C233 1.479 . S
C246 C247 1.398 . S
C247 C212 1.382 . S
C247 H224 0.951 . S
C247 C246 1.398 . S
C248 C249 1.384 . S
C248 H261 0.947 . S
C248 C283 1.382 . S
C249 C248 1.384 . S
C249 C250 1.378 . S
C250 C249 1.378 . S
C250 C251 1.378 . S
C250 H262 0.952 . S
C251 C250 1.378 . S
C251 H263 0.950 . S
C251 C282 1.383 . S
H252 C271 0.947 . S
H253 C272 0.946 . S
H254 C274 0.953 . S
H255 C275 0.945 . S
H256 C277 0.952 . S
H257 C278 0.949 . S
H258 C280 0.950 . S
H259 C281 0.948 . S
H260 C283 0.951 . S
H261 C248 0.947 . S
H262 C250 0.952 . S
H263 C251 0.950 . S
N264 C267 1.382 . S
N264 C269 1.363 . S
N265 C267 1.371 . S
N265 C268 1.372 . S
N266 C268 1.361 . S
N266 C269 1.377 . S
C267 N264 1.382 . S
C267 N265 1.371 . S
C267 C270 1.480 . S
C268 N265 1.372 . S
C268 N266 1.361 . S
C268 C276 1.457 . S
C269 N264 1.363 . S
C269 N266 1.377 . S
C269 C282 1.479 . S
C270 C267 1.480 . S
C270 C271 1.383 . S
C270 C275 1.385 . S
C271 H252 0.947 . S
C271 C270 1.383 . S
C271 C272 1.388 . S
C272 H253 0.946 . S
C272 C271 1.388 . S
C272 C273 1.384 . S
C273 C272 1.384 . S
C273 C274 1.377 . S
C274 H254 0.953 . S
C274 C273 1.377 . S
C274 C275 1.369 . S
C275 H255 0.945 . S
C275 C270 1.385 . S
C275 C274 1.369 . S
C276 C268 1.457 . S
C276 C277 1.372 . S
C276 C281 1.364 . S
C277 H256 0.952 . S
C277 C276 1.372 . S
C277 C278 1.389 . S
C278 H257 0.949 . S
C278 C277 1.389 . S
C278 C279 1.387 . S
C279 C278 1.387 . S
C279 C280 1.372 . S
C280 H258 0.950 . S
C280 C279 1.372 . S
C280 C281 1.379 . S
C281 H259 0.948 . S
C281 C276 1.364 . S
C281 C280 1.379 . S
C282 C251 1.383 . S
C282 C269 1.479 . S
C282 C283 1.398 . S
C283 C248 1.382 . S
C283 H260 0.951 . S
C283 C282 1.398 . S
C284 C285 1.384 . S
C284 H297 0.947 . S
C284 C319 1.382 . S
C285 C284 1.384 . S
C285 C286 1.378 . S
C286 C285 1.378 . S
C286 C287 1.378 . S
C286 H298 0.952 . S
C287 C286 1.378 . S
C287 H299 0.950 . S
C287 C318 1.383 . S
H288 C307 0.947 . S
H289 C308 0.946 . S
H290 C310 0.953 . S
H291 C311 0.945 . S
H292 C313 0.952 . S
H293 C314 0.949 . S
H294 C316 0.950 . S
H295 C317 0.948 . S
H296 C319 0.951 . S
H297 C284 0.947 . S
H298 C286 0.952 . S
H299 C287 0.950 . S
N300 C303 1.382 . S
N300 C305 1.363 . S
N301 C303 1.371 . S
N301 C304 1.372 . S
N302 C304 1.361 . S
N302 C305 1.377 . S
C303 N300 1.382 . S
C303 N301 1.371 . S
C303 C306 1.480 . S
C304 N301 1.372 . S
C304 N302 1.361 . S
C304 C312 1.457 . S
C305 N300 1.363 . S
C305 N302 1.377 . S
C305 C318 1.479 . S
C306 C303 1.480 . S
C306 C307 1.383 . S
C306 C311 1.385 . S
C307 H288 0.947 . S
C307 C306 1.383 . S
C307 C308 1.388 . S
C308 H289 0.946 . S
C308 C307 1.388 . S
C308 C309 1.384 . S
C309 C308 1.384 . S
C309 C310 1.377 . S
C310 H290 0.953 . S
C310 C309 1.377 . S
C310 C311 1.369 . S
C311 H291 0.945 . S
C311 C306 1.385 . S
C311 C310 1.369 . S
C312 C304 1.457 . S
C312 C313 1.372 . S
C312 C317 1.364 . S
C313 H292 0.952 . S
C313 C312 1.372 . S
C313 C314 1.389 . S
C314 H293 0.949 . S
C314 C313 1.389 . S
C314 C315 1.387 . S
C315 C314 1.387 . S
C315 C316 1.372 . S
C316 H294 0.950 . S
C316 C315 1.372 . S
C316 C317 1.379 . S
C317 H295 0.948 . S
C317 C312 1.364 . S
C317 C316 1.379 . S
C318 C287 1.383 . S
C318 C305 1.479 . S
C318 C319 1.398 . S
C319 C284 1.382 . S
C319 H296 0.951 . S
C319 C318 1.398 . S
C320 C321 1.384 . S
C320 H333 0.947 . S
C320 C355 1.382 . S
C321 C320 1.384 . S
C321 C322 1.378 . S
C322 C321 1.378 . S
C322 C323 1.378 . S
C322 H334 0.952 . S
C323 C322 1.378 . S
C323 H335 0.950 . S
C323 C354 1.383 . S
H324 C343 0.947 . S
H325 C344 0.946 . S
H326 C346 0.953 . S
H327 C347 0.945 . S
H328 C349 0.952 . S
H329 C350 0.949 . S
H330 C352 0.950 . S
H331 C353 0.948 . S
H332 C355 0.951 . S
H333 C320 0.947 . S
H334 C322 0.952 . S
H335 C323 0.950 . S
N336 C339 1.382 . S
N336 C341 1.363 . S
N337 C339 1.371 . S
N337 C340 1.372 . S
N338 C340 1.361 . S
N338 C341 1.377 . S
C339 N336 1.382 . S
C339 N337 1.371 . S
C339 C342 1.480 . S
C340 N337 1.372 . S
C340 N338 1.361 . S
C340 C348 1.457 . S
C341 N336 1.363 . S
C341 N338 1.377 . S
C341 C354 1.479 . S
C342 C339 1.480 . S
C342 C343 1.383 . S
C342 C347 1.385 . S
C343 H324 0.947 . S
C343 C342 1.383 . S
C343 C344 1.388 . S
C344 H325 0.946 . S
C344 C343 1.388 . S
C344 C345 1.384 . S
C345 C344 1.384 . S
C345 C346 1.377 . S
C346 H326 0.953 . S
C346 C345 1.377 . S
C346 C347 1.369 . S
C347 H327 0.945 . S
C347 C342 1.385 . S
C347 C346 1.369 . S
C348 C340 1.457 . S
C348 C349 1.372 . S
C348 C353 1.364 . S
C349 H328 0.952 . S
C349 C348 1.372 . S
C349 C350 1.389 . S
C350 H329 0.949 . S
C350 C349 1.389 . S
C350 C351 1.387 . S
C351 C350 1.387 . S
C351 C352 1.372 . S
C352 H330 0.950 . S
C352 C351 1.372 . S
C352 C353 1.379 . S
C353 H331 0.948 . S
C353 C348 1.364 . S
C353 C352 1.379 . S
C354 C323 1.383 . S
C354 C341 1.479 . S
C354 C355 1.398 . S
C355 C320 1.382 . S
C355 H332 0.951 . S
C355 C354 1.398 . S
C356 C357 1.384 . S
C356 H369 0.947 . S
C356 C391 1.382 . S
C357 C356 1.384 . S
C357 C358 1.378 . S
C358 C357 1.378 . S
C358 C359 1.378 . S
C358 H370 0.952 . S
C359 C358 1.378 . S
C359 H371 0.950 . S
C359 C390 1.383 . S
H360 C379 0.947 . S
H361 C380 0.946 . S
H362 C382 0.953 . S
H363 C383 0.945 . S
H364 C385 0.952 . S
H365 C386 0.949 . S
H366 C388 0.950 . S
H367 C389 0.948 . S
H368 C391 0.951 . S
H369 C356 0.947 . S
H370 C358 0.952 . S
H371 C359 0.950 . S
N372 C375 1.382 . S
N372 C377 1.363 . S
N373 C375 1.371 . S
N373 C376 1.372 . S
N374 C376 1.361 . S
N374 C377 1.377 . S
C375 N372 1.382 . S
C375 N373 1.371 . S
C375 C378 1.480 . S
C376 N373 1.372 . S
C376 N374 1.361 . S
C376 C384 1.457 . S
C377 N372 1.363 . S
C377 N374 1.377 . S
C377 C390 1.479 . S
C378 C375 1.480 . S
C378 C379 1.383 . S
C378 C383 1.385 . S
C379 H360 0.947 . S
C379 C378 1.383 . S
C379 C380 1.388 . S
C380 H361 0.946 . S
C380 C379 1.388 . S
C380 C381 1.384 . S
C381 C380 1.384 . S
C381 C382 1.377 . S
C382 H362 0.953 . S
C382 C381 1.377 . S
C382 C383 1.369 . S
C383 H363 0.945 . S
C383 C378 1.385 . S
C383 C382 1.369 . S
C384 C376 1.457 . S
C384 C385 1.372 . S
C384 C389 1.364 . S
C385 H364 0.952 . S
C385 C384 1.372 . S
C385 C386 1.389 . S
C386 H365 0.949 . S
C386 C385 1.389 . S
C386 C387 1.387 . S
C387 C386 1.387 . S
C387 C388 1.372 . S
C388 H366 0.950 . S
C388 C387 1.372 . S
C388 C389 1.379 . S
C389 H367 0.948 . S
C389 C384 1.364 . S
C389 C388 1.379 . S
C390 C359 1.383 . S
C390 C377 1.479 . S
C390 C391 1.398 . S
C391 C356 1.382 . S
C391 H368 0.951 . S
C391 C390 1.398 . S
H392 C410 0.951 . S
H393 C412 0.951 . S
H394 C414 0.950 . S
H395 C415 0.950 . S
H396 C417 0.950 1_556 S
H397 C420 0.950 . S
H398 C421 0.950 . S
H399 C423 0.950 . S
H400 C424 0.950 . S
H401 C425 0.951 . S
H402 C427 0.951 . S
H403 C429 0.950 . S
H404 C430 0.950 . S
H405 C432 0.950 . S
H406 C435 0.950 . S
H407 C436 0.950 . S
H408 C438 0.950 . S
H409 C439 0.950 . S
C410 H392 0.951 . S
C410 C411 1.366 . S
C410 C412 1.388 . S
C411 C410 1.366 . S
C411 C415 1.385 . S
C412 H393 0.951 . S
C412 C410 1.388 . S
C412 C413 1.366 . S
C413 C412 1.366 . S
C413 C414 1.414 . S
C413 C416 1.499 . S
C414 H394 0.950 . S
C414 C413 1.414 . S
C414 C415 1.374 . S
C415 H395 0.950 . S
C415 C411 1.385 . S
C415 C414 1.374 . S
C416 C413 1.499 . S
C416 C417 1.373 . S
C416 C418 1.389 . S
C417 H396 0.950 1_554 S
C417 C416 1.373 . S
C417 C433 1.376 . S
C418 C416 1.389 . S
C418 C419 1.524 . S
C418 C432 1.377 . S
C419 C418 1.524 . S
C419 C420 1.397 . S
C419 C424 1.363 . S
C420 H397 0.950 . S
C420 C419 1.397 . S
C420 C421 1.334 . S
C421 H398 0.950 . S
C421 C420 1.334 . S
C421 C422 1.287 . S
C422 C421 1.287 . S
C422 C423 1.524 . S
C422 H441 0.913 . S
C423 H399 0.950 . S
C423 C422 1.524 . S
C423 C424 1.415 . S
C424 H400 0.950 . S
C424 C419 1.363 . S
C424 C423 1.415 . S
C425 H401 0.951 . S
C425 C426 1.366 . S
C425 C427 1.388 . S
C426 C425 1.366 . S
C426 C430 1.385 . S
C427 H402 0.951 . S
C427 C425 1.388 . S
C427 C428 1.366 . S
C428 C427 1.366 . S
C428 C429 1.414 . S
C428 C431 1.499 . S
C429 H403 0.950 . S
C429 C428 1.414 . S
C429 C430 1.374 . S
C430 H404 0.950 . S
C430 C426 1.385 . S
C430 C429 1.374 . S
C431 C428 1.499 . S
C431 C432 1.373 . S
C431 C433 1.388 . S
C432 H405 0.950 . S
C432 C418 1.377 . S
C432 C431 1.373 . S
C433 C417 1.376 . S
C433 C431 1.388 . S
C433 C434 1.526 1_554 S
C434 C433 1.526 1_556 S
C434 C435 1.397 . S
C434 C439 1.363 . S
C435 H406 0.950 . S
C435 C434 1.397 . S
C435 C436 1.334 . S
C436 H407 0.950 . S
C436 C435 1.334 . S
C436 C437 1.287 . S
C437 C436 1.287 . S
C437 C438 1.524 . S
C437 H440 0.999 . S
C438 H408 0.950 . S
C438 C437 1.524 . S
C438 C439 1.415 . S
C439 H409 0.950 . S
C439 C434 1.363 . S
C439 C438 1.415 . S
H440 C437 0.999 . S
H441 C422 0.913 . S
H442 C460 0.951 . S
H443 C462 0.951 . S
H444 C464 0.950 . S
H445 C465 0.950 . S
H446 C467 0.950 . S
H447 C470 0.950 . S
H448 C471 0.950 . S
H449 C473 0.950 . S
H450 C474 0.950 . S
H451 C475 0.951 . S
H452 C477 0.951 . S
H453 C479 0.950 . S
H454 C480 0.950 . S
H455 C482 0.950 1_556 S
H456 C485 0.950 . S
H457 C486 0.950 . S
H458 C488 0.950 . S
H459 C489 0.950 . S
C460 H442 0.951 . S
C460 C461 1.366 1_556 S
C460 C462 1.388 . S
C461 C460 1.366 1_554 S
C461 C465 1.385 . S
C462 H443 0.951 . S
C462 C460 1.388 . S
C462 C463 1.366 1_556 S
C463 C462 1.366 1_554 S
C463 C464 1.414 . S
C463 C466 1.499 . S
C464 H444 0.950 . S
C464 C463 1.414 . S
C464 C465 1.374 . S
C465 H445 0.950 . S
C465 C461 1.385 . S
C465 C464 1.374 . S
C466 C463 1.499 . S
C466 C467 1.373 . S
C466 C468 1.389 . S
C467 H446 0.950 . S
C467 C466 1.373 . S
C467 C483 1.377 . S
C468 C466 1.389 . S
C468 C469 1.524 1_554 S
C468 C482 1.377 . S
C469 C468 1.524 1_556 S
C469 C470 1.397 1_556 S
C469 C474 1.363 . S
C470 H447 0.950 . S
C470 C469 1.397 1_554 S
C470 C471 1.334 . S
C471 H448 0.950 . S
C471 C470 1.334 . S
C471 C472 1.287 1_554 S
C472 C471 1.287 1_556 S
C472 C473 1.524 . S
C472 H491 0.913 . S
C473 H449 0.950 . S
C473 C472 1.524 . S
C473 C474 1.415 . S
C474 H450 0.950 . S
C474 C469 1.363 . S
C474 C473 1.415 . S
C475 H451 0.951 . S
C475 C476 1.366 . S
C475 C477 1.388 . S
C476 C475 1.366 . S
C476 C480 1.385 1_554 S
C477 H452 0.951 . S
C477 C475 1.388 . S
C477 C478 1.366 . S
C478 C477 1.366 . S
C478 C479 1.414 1_554 S
C478 C481 1.499 . S
C479 H453 0.950 . S
C479 C478 1.414 1_556 S
C479 C480 1.374 . S
C480 H454 0.950 . S
C480 C476 1.385 1_556 S
C480 C479 1.374 . S
C481 C478 1.499 . S
C481 C482 1.373 . S
C481 C483 1.389 . S
C482 H455 0.950 1_554 S
C482 C468 1.377 . S
C482 C481 1.373 . S
C483 C467 1.377 . S
C483 C481 1.389 . S
C483 C484 1.524 . S
C484 C483 1.524 . S
C484 C485 1.397 . S
C484 C489 1.363 . S
C485 H456 0.950 . S
C485 C484 1.397 . S
C485 C486 1.334 . S
C486 H457 0.950 . S
C486 C485 1.334 . S
C486 C487 1.287 . S
C487 C486 1.287 . S
C487 C488 1.524 . S
C487 H490 0.999 . S
C488 H458 0.950 . S
C488 C487 1.524 . S
C488 C489 1.415 . S
C489 H459 0.950 . S
C489 C484 1.363 . S
C489 C488 1.415 . S
H490 C487 0.999 . S
H491 C472 0.913 . S
H492 C510 0.951 . S
H493 C512 0.951 . S
H494 C514 0.950 . S
H495 C515 0.950 . S
H496 C517 0.950 . S
H497 C520 0.950 . S
H498 C521 0.950 . S
H499 C523 0.950 . S
H500 C524 0.950 . S
H501 C525 0.951 . S
H502 C527 0.951 . S
H503 C529 0.948 1_556 S
H504 C530 0.949 1_556 S
H505 C532 0.950 . S
H506 C535 0.950 . S
H507 C536 0.950 . S
H508 C538 0.950 . S
H509 C539 0.950 . S
C510 H492 0.951 . S
C510 C511 1.366 . S
C510 C512 1.388 . S
C511 C510 1.366 . S
C511 C515 1.385 . S
C512 H493 0.951 . S
C512 C510 1.388 . S
C512 C513 1.366 . S
C513 C512 1.366 . S
C513 C514 1.414 . S
C513 C516 1.499 . S
C514 H494 0.950 . S
C514 C513 1.414 . S
C514 C515 1.374 . S
C515 H495 0.950 . S
C515 C511 1.385 . S
C515 C514 1.374 . S
C516 C513 1.499 . S
C516 C517 1.373 . S
C516 C518 1.389 . S
C517 H496 0.950 . S
C517 C516 1.373 . S
C517 C533 1.377 . S
C518 C516 1.389 . S
C518 C519 1.524 . S
C518 C532 1.377 . S
C519 C518 1.524 . S
C519 C520 1.397 . S
C519 C524 1.363 . S
C520 H497 0.950 . S
C520 C519 1.397 . S
C520 C521 1.334 . S
C521 H498 0.950 . S
C521 C520 1.334 . S
C521 C522 1.287 . S
C522 C521 1.287 . S
C522 C523 1.524 . S
C522 H541 0.913 . S
C523 H499 0.950 . S
C523 C522 1.524 . S
C523 C524 1.415 . S
C524 H500 0.950 . S
C524 C519 1.363 . S
C524 C523 1.415 . S
C525 H501 0.951 . S
C525 C526 1.366 . S
C525 C527 1.388 . S
C526 C525 1.366 . S
C526 C530 1.385 . S
C527 H502 0.951 . S
C527 C525 1.388 . S
C527 C528 1.366 . S
C528 C527 1.366 . S
C528 C529 1.414 . S
C528 C531 1.499 . S
C529 H503 0.948 1_554 S
C529 C528 1.414 . S
C529 C530 1.374 . S
C530 H504 0.949 1_554 S
C530 C526 1.385 . S
C530 C529 1.374 . S
C531 C528 1.499 . S
C531 C532 1.373 . S
C531 C533 1.389 . S
C532 H505 0.950 . S
C532 C518 1.377 . S
C532 C531 1.373 . S
C533 C517 1.377 . S
C533 C531 1.389 . S
C533 C534 1.524 1_554 S
C534 C533 1.524 1_556 S
C534 C535 1.397 . S
C534 C539 1.363 1_556 S
C535 H506 0.950 . S
C535 C534 1.397 . S
C535 C536 1.334 . S
C536 H507 0.950 . S
C536 C535 1.334 . S
C536 C537 1.287 . S
C537 C536 1.287 . S
C537 C538 1.524 . S
C537 H540 0.999 . S
C538 H508 0.950 . S
C538 C537 1.524 . S
C538 C539 1.415 1_556 S
C539 H509 0.950 . S
C539 C534 1.363 1_554 S
C539 C538 1.415 1_554 S
H540 C537 0.999 . S
H541 C522 0.913 . S
H542 C560 0.951 . S
H543 C562 0.951 . S
H544 C564 0.950 1_556 S
H545 C565 0.950 1_556 S
H546 C567 0.950 . S
H547 C570 0.950 . S
H548 C571 0.950 . S
H549 C573 0.950 1_554 S
H550 C574 0.950 . S
H551 C575 0.951 1_556 S
H552 C577 0.951 1_556 S
H553 C579 0.950 . S
H554 C580 0.950 . S
H555 C582 0.950 . S
H556 C585 0.950 . S
H557 C586 0.950 . S
H558 C588 0.950 . S
H559 C589 0.950 . S
C560 H542 0.951 . S
C560 C561 1.366 . S
C560 C562 1.388 . S
C561 C560 1.366 . S
C561 C565 1.385 . S
C562 H543 0.951 . S
C562 C560 1.388 . S
C562 C563 1.366 . S
C563 C562 1.366 . S
C563 C564 1.414 . S
C563 C566 1.499 . S
C564 H544 0.950 1_554 S
C564 C563 1.414 . S
C564 C565 1.374 . S
C565 H545 0.950 1_554 S
C565 C561 1.385 . S
C565 C564 1.374 . S
C566 C563 1.499 . S
C566 C567 1.373 . S
C566 C568 1.389 . S
C567 H546 0.950 . S
C567 C566 1.373 . S
C567 C583 1.377 . S
C568 C566 1.389 . S
C568 C569 1.524 1_554 S
C568 C582 1.377 . S
C569 C568 1.524 1_556 S
C569 C570 1.397 . S
C569 C574 1.363 1_556 S
C570 H547 0.950 . S
C570 C569 1.397 . S
C570 C571 1.334 . S
C571 H548 0.950 . S
C571 C570 1.334 . S
C571 C572 1.287 . S
C572 C571 1.287 . S
C572 C573 1.524 . S
C572 H591 0.913 . S
C573 H549 0.950 1_556 S
C573 C572 1.524 . S
C573 C574 1.415 1_556 S
C574 H550 0.950 . S
C574 C569 1.363 1_554 S
C574 C573 1.415 1_554 S
C575 H551 0.951 1_554 S
C575 C576 1.366 . S
C575 C577 1.388 . S
C576 C575 1.366 . S
C576 C580 1.385 . S
C577 H552 0.951 1_554 S
C577 C575 1.388 . S
C577 C578 1.366 . S
C578 C577 1.366 . S
C578 C579 1.414 . S
C578 C581 1.499 . S
C579 H553 0.950 . S
C579 C578 1.414 . S
C579 C580 1.374 . S
C580 H554 0.950 . S
C580 C576 1.385 . S
C580 C579 1.374 . S
C581 C578 1.499 . S
C581 C582 1.373 . S
C581 C583 1.389 . S
C582 H555 0.950 . S
C582 C568 1.377 . S
C582 C581 1.373 . S
C583 C567 1.377 . S
C583 C581 1.389 . S
C583 C584 1.524 . S
C584 C583 1.524 . S
C584 C585 1.397 . S
C584 C589 1.363 . S
C585 H556 0.950 . S
C585 C584 1.397 . S
C585 C586 1.334 . S
C586 H557 0.950 . S
C586 C585 1.334 . S
C586 C587 1.287 . S
C587 C586 1.287 . S
C587 C588 1.524 . S
C587 H590 0.999 . S
C588 H558 0.950 . S
C588 C587 1.524 . S
C588 C589 1.415 . S
C589 H559 0.950 . S
C589 C584 1.363 . S
C589 C588 1.415 . S
H590 C587 0.999 . S
H591 C572 0.913 . S
H592 C610 0.951 . S
H593 C612 0.951 . S
H594 C614 0.950 . S
H595 C615 0.950 . S
H596 C617 0.950 . S
H597 C620 0.950 . S
H598 C621 0.950 . S
H599 C623 0.950 . S
H600 C624 0.950 . S
H601 C625 0.951 . S
H602 C627 0.951 . S
H603 C629 0.950 . S
H604 C630 0.950 . S
H605 C632 0.950 . S
H606 C635 0.950 . S
H607 C636 0.950 . S
H608 C638 0.950 . S
H609 C639 0.950 . S
C610 H592 0.951 . S
C610 C611 1.366 . S
C610 C612 1.388 . S
C611 C610 1.366 . S
C611 C615 1.385 . S
C612 H593 0.951 . S
C612 C610 1.388 . S
C612 C613 1.366 . S
C613 C612 1.366 . S
C613 C614 1.414 . S
C613 C616 1.499 . S
C614 H594 0.950 . S
C614 C613 1.414 . S
C614 C615 1.374 . S
C615 H595 0.950 . S
C615 C611 1.385 . S
C615 C614 1.374 . S
C616 C613 1.499 . S
C616 C617 1.373 . S
C616 C618 1.389 . S
C617 H596 0.950 . S
C617 C616 1.373 . S
C617 C633 1.377 . S
C618 C616 1.389 . S
C618 C619 1.524 . S
C618 C632 1.377 . S
C619 C618 1.524 . S
C619 C620 1.397 . S
C619 C624 1.363 . S
C620 H597 0.950 . S
C620 C619 1.397 . S
C620 C621 1.334 . S
C621 H598 0.950 . S
C621 C620 1.334 . S
C621 C622 1.287 . S
C622 C621 1.287 . S
C622 C623 1.524 . S
C622 H641 0.913 . S
C623 H599 0.950 . S
C623 C622 1.524 . S
C623 C624 1.415 . S
C624 H600 0.950 . S
C624 C619 1.363 . S
C624 C623 1.415 . S
C625 H601 0.951 . S
C625 C626 1.366 . S
C625 C627 1.388 . S
C626 C625 1.366 . S
C626 C630 1.385 . S
C627 H602 0.951 . S
C627 C625 1.388 . S
C627 C628 1.366 . S
C628 C627 1.366 . S
C628 C629 1.414 . S
C628 C631 1.499 . S
C629 H603 0.950 . S
C629 C628 1.414 . S
C629 C630 1.374 . S
C630 H604 0.950 . S
C630 C626 1.385 . S
C630 C629 1.374 . S
C631 C628 1.499 . S
C631 C632 1.373 . S
C631 C633 1.389 . S
C632 H605 0.950 . S
C632 C618 1.377 . S
C632 C631 1.373 . S
C633 C617 1.377 . S
C633 C631 1.389 . S
C633 C634 1.524 . S
C634 C633 1.524 . S
C634 C635 1.397 . S
C634 C639 1.363 . S
C635 H606 0.950 . S
C635 C634 1.397 . S
C635 C636 1.334 . S
C636 H607 0.950 . S
C636 C635 1.334 . S
C636 C637 1.287 . S
C637 C636 1.287 . S
C637 C638 1.524 . S
C637 H640 0.999 . S
C638 H608 0.950 . S
C638 C637 1.524 . S
C638 C639 1.415 . S
C639 H609 0.950 . S
C639 C634 1.363 . S
C639 C638 1.415 . S
H640 C637 0.999 . S
H641 C622 0.913 . S
H642 C660 0.951 . S
H643 C662 0.951 . S
H644 C664 0.950 . S
H645 C665 0.950 . S
H646 C667 0.950 . S
H647 C670 0.950 . S
H648 C671 0.950 . S
H649 C673 0.950 . S
H650 C674 0.950 . S
H651 C675 0.951 . S
H652 C677 0.951 . S
H653 C679 0.950 . S
H654 C680 0.950 . S
H655 C682 0.950 . S
H656 C685 0.950 . S
H657 C686 0.950 . S
H658 C688 0.950 . S
H659 C689 0.950 . S
C660 H642 0.951 . S
C660 C661 1.366 . S
C660 C662 1.388 . S
C661 C660 1.366 . S
C661 C665 1.385 . S
C662 H643 0.951 . S
C662 C660 1.388 . S
C662 C663 1.366 . S
C663 C662 1.366 . S
C663 C664 1.414 . S
C663 C666 1.499 . S
C664 H644 0.950 . S
C664 C663 1.414 . S
C664 C665 1.374 . S
C665 H645 0.950 . S
C665 C661 1.385 . S
C665 C664 1.374 . S
C666 C663 1.499 . S
C666 C667 1.373 . S
C666 C668 1.389 . S
C667 H646 0.950 . S
C667 C666 1.373 . S
C667 C683 1.377 . S
C668 C666 1.389 . S
C668 C669 1.524 . S
C668 C682 1.377 . S
C669 C668 1.524 . S
C669 C670 1.397 . S
C669 C674 1.363 . S
C670 H647 0.950 . S
C670 C669 1.397 . S
C670 C671 1.334 . S
C671 H648 0.950 . S
C671 C670 1.334 . S
C671 C672 1.287 . S
C672 C671 1.287 . S
C672 C673 1.524 . S
C672 H691 0.913 . S
C673 H649 0.950 . S
C673 C672 1.524 . S
C673 C674 1.415 . S
C674 H650 0.950 . S
C674 C669 1.363 . S
C674 C673 1.415 . S
C675 H651 0.951 . S
C675 C676 1.366 . S
C675 C677 1.388 . S
C676 C675 1.366 . S
C676 C680 1.385 . S
C677 H652 0.951 . S
C677 C675 1.388 . S
C677 C678 1.366 . S
C678 C677 1.366 . S
C678 C679 1.414 . S
C678 C681 1.499 . S
C679 H653 0.950 . S
C679 C678 1.414 . S
C679 C680 1.374 . S
C680 H654 0.950 . S
C680 C676 1.385 . S
C680 C679 1.374 . S
C681 C678 1.499 . S
C681 C682 1.373 . S
C681 C683 1.389 . S
C682 H655 0.950 . S
C682 C668 1.377 . S
C682 C681 1.373 . S
C683 C667 1.377 . S
C683 C681 1.389 . S
C683 C684 1.524 . S
C684 C683 1.524 . S
C684 C685 1.397 . S
C684 C689 1.363 . S
C685 H656 0.950 . S
C685 C684 1.397 . S
C685 C686 1.334 . S
C686 H657 0.950 . S
C686 C685 1.334 . S
C686 C687 1.287 . S
C687 C686 1.287 . S
C687 C688 1.524 . S
C687 H690 0.999 . S
C688 H658 0.950 . S
C688 C687 1.524 . S
C688 C689 1.415 . S
C689 H659 0.950 . S
C689 C684 1.363 . S
C689 C688 1.415 . S
H690 C687 0.999 . S
H691 C672 0.913 . S
H692 C710 0.951 . S
H693 C712 0.951 . S
H694 C714 0.950 . S
H695 C715 0.950 . S
H696 C717 0.950 . S
H697 C720 0.950 . S
H698 C721 0.950 . S
H699 C723 0.950 . S
H700 C724 0.950 . S
H701 C725 0.951 . S
H702 C727 0.951 . S
H703 C729 0.950 . S
H704 C730 0.950 . S
H705 C732 0.950 . S
H706 C735 0.950 . S
H707 C736 0.950 . S
H708 C738 0.950 . S
H709 C739 0.950 . S
C710 H692 0.951 . S
C710 C711 1.366 . S
C710 C712 1.388 . S
C711 C710 1.366 . S
C711 C715 1.385 . S
C712 H693 0.951 . S
C712 C710 1.388 . S
C712 C713 1.366 . S
C713 C712 1.366 . S
C713 C714 1.414 . S
C713 C716 1.499 . S
C714 H694 0.950 . S
C714 C713 1.414 . S
C714 C715 1.374 . S
C715 H695 0.950 . S
C715 C711 1.385 . S
C715 C714 1.374 . S
C716 C713 1.499 . S
C716 C717 1.373 . S
C716 C718 1.389 . S
C717 H696 0.950 . S
C717 C716 1.373 . S
C717 C733 1.377 . S
C718 C716 1.389 . S
C718 C719 1.524 . S
C718 C732 1.377 . S
C719 C718 1.524 . S
C719 C720 1.397 . S
C719 C724 1.363 . S
C720 H697 0.950 . S
C720 C719 1.397 . S
C720 C721 1.334 . S
C721 H698 0.950 . S
C721 C720 1.334 . S
C721 C722 1.287 . S
C722 C721 1.287 . S
C722 C723 1.524 . S
C722 H741 0.913 . S
C723 H699 0.950 . S
C723 C722 1.524 . S
C723 C724 1.415 . S
C724 H700 0.950 . S
C724 C719 1.363 . S
C724 C723 1.415 . S
C725 H701 0.951 . S
C725 C726 1.366 . S
C725 C727 1.388 . S
C726 C725 1.366 . S
C726 C730 1.385 . S
C727 H702 0.951 . S
C727 C725 1.388 . S
C727 C728 1.366 . S
C728 C727 1.366 . S
C728 C729 1.414 . S
C728 C731 1.499 . S
C729 H703 0.950 . S
C729 C728 1.414 . S
C729 C730 1.374 . S
C730 H704 0.950 . S
C730 C726 1.385 . S
C730 C729 1.374 . S
C731 C728 1.499 . S
C731 C732 1.373 . S
C731 C733 1.389 . S
C732 H705 0.950 . S
C732 C718 1.377 . S
C732 C731 1.373 . S
C733 C717 1.377 . S
C733 C731 1.389 . S
C733 C734 1.524 . S
C734 C733 1.524 . S
C734 C735 1.397 . S
C734 C739 1.363 . S
C735 H706 0.950 . S
C735 C734 1.397 . S
C735 C736 1.334 . S
C736 H707 0.950 . S
C736 C735 1.334 . S
C736 C737 1.287 . S
C737 C736 1.287 . S
C737 C738 1.524 . S
C737 H740 0.999 . S
C738 H708 0.950 . S
C738 C737 1.524 . S
C738 C739 1.415 . S
C739 H709 0.950 . S
C739 C734 1.363 . S
C739 C738 1.415 . S
H740 C737 0.999 . S
H741 C722 0.913 . S
H742 C760 0.951 . S
H743 C762 0.951 . S
H744 C764 0.950 . S
H745 C765 0.950 . S
H746 C767 0.950 . S
H747 C770 0.950 . S
H748 C771 0.950 . S
H749 C773 0.950 . S
H750 C774 0.950 . S
H751 C775 0.951 . S
H752 C777 0.951 . S
H753 C779 0.950 . S
H754 C780 0.950 . S
H755 C782 0.950 . S
H756 C785 0.950 . S
H757 C786 0.950 . S
H758 C788 0.950 . S
H759 C789 0.950 . S
C760 H742 0.951 . S
C760 C761 1.366 . S
C760 C762 1.388 . S
C761 C760 1.366 . S
C761 C765 1.385 . S
C762 H743 0.951 . S
C762 C760 1.388 . S
C762 C763 1.366 . S
C763 C762 1.366 . S
C763 C764 1.414 . S
C763 C766 1.499 . S
C764 H744 0.950 . S
C764 C763 1.414 . S
C764 C765 1.374 . S
C765 H745 0.950 . S
C765 C761 1.385 . S
C765 C764 1.374 . S
C766 C763 1.499 . S
C766 C767 1.373 . S
C766 C768 1.389 . S
C767 H746 0.950 . S
C767 C766 1.373 . S
C767 C783 1.377 . S
C768 C766 1.389 . S
C768 C769 1.524 . S
C768 C782 1.377 . S
C769 C768 1.524 . S
C769 C770 1.397 . S
C769 C774 1.363 . S
C770 H747 0.950 . S
C770 C769 1.397 . S
C770 C771 1.334 . S
C771 H748 0.950 . S
C771 C770 1.334 . S
C771 C772 1.287 . S
C772 C771 1.287 . S
C772 C773 1.524 . S
C772 H791 0.913 . S
C773 H749 0.950 . S
C773 C772 1.524 . S
C773 C774 1.415 . S
C774 H750 0.950 . S
C774 C769 1.363 . S
C774 C773 1.415 . S
C775 H751 0.951 . S
C775 C776 1.366 . S
C775 C777 1.388 . S
C776 C775 1.366 . S
C776 C780 1.385 . S
C777 H752 0.951 . S
C777 C775 1.388 . S
C777 C778 1.366 . S
C778 C777 1.366 . S
C778 C779 1.414 . S
C778 C781 1.499 . S
C779 H753 0.950 . S
C779 C778 1.414 . S
C779 C780 1.374 . S
C780 H754 0.950 . S
C780 C776 1.385 . S
C780 C779 1.374 . S
C781 C778 1.499 . S
C781 C782 1.373 . S
C781 C783 1.389 . S
C782 H755 0.950 . S
C782 C768 1.377 . S
C782 C781 1.373 . S
C783 C767 1.377 . S
C783 C781 1.389 . S
C783 C784 1.524 . S
C784 C783 1.524 . S
C784 C785 1.397 . S
C784 C789 1.363 . S
C785 H756 0.950 . S
C785 C784 1.397 . S
C785 C786 1.334 . S
C786 H757 0.950 . S
C786 C785 1.334 . S
C786 C787 1.287 . S
C787 C786 1.287 . S
C787 C788 1.524 . S
C787 H790 0.999 . S
C788 H758 0.950 . S
C788 C787 1.524 . S
C788 C789 1.415 . S
C789 H759 0.950 . S
C789 C784 1.363 . S
C789 C788 1.415 . S
H790 C787 0.999 . S
H791 C772 0.913 . S
H792 C810 0.951 . S
H793 C812 0.951 . S
H794 C814 0.927 1_655 S
H795 C815 0.950 1_655 S
H796 C817 0.950 . S
H797 C820 0.950 . S
H798 C821 0.950 . S
H799 C823 0.950 . S
H800 C824 0.950 . S
H801 C825 0.951 . S
H802 C827 0.951 . S
H803 C829 0.950 . S
H804 C830 0.950 . S
H805 C832 0.950 . S
H806 C835 0.950 . S
H807 C836 0.950 . S
H808 C838 0.950 . S
H809 C839 0.946 1_655 S
C810 H792 0.951 . S
C810 C811 1.366 . S
C810 C812 1.388 . S
C811 C810 1.366 . S
C811 C815 1.385 . S
C812 H793 0.951 . S
C812 C810 1.388 . S
C812 C813 1.366 . S
C813 C812 1.366 . S
C813 C814 1.414 . S
C813 C816 1.499 . S
C814 H794 0.927 1_455 S
C814 C813 1.414 . S
C814 C815 1.374 . S
C815 H795 0.950 1_455 S
C815 C811 1.385 . S
C815 C814 1.374 . S
C816 C813 1.499 . S
C816 C817 1.373 . S
C816 C818 1.389 . S
C817 H796 0.950 . S
C817 C816 1.373 . S
C817 C833 1.377 . S
C818 C816 1.389 . S
C818 C819 1.524 . S
C818 C832 1.377 . S
C819 C818 1.524 . S
C819 C820 1.397 . S
C819 C824 1.363 . S
C820 H797 0.950 . S
C820 C819 1.397 . S
C820 C821 1.334 . S
C821 H798 0.950 . S
C821 C820 1.334 . S
C821 C822 1.287 . S
C822 C821 1.287 . S
C822 C823 1.524 . S
C822 H841 0.913 . S
C823 H799 0.950 . S
C823 C822 1.524 . S
C823 C824 1.415 . S
C824 H800 0.950 . S
C824 C819 1.363 . S
C824 C823 1.415 . S
C825 H801 0.951 . S
C825 C826 1.366 . S
C825 C827 1.388 . S
C826 C825 1.366 . S
C826 C830 1.385 . S
C827 H802 0.951 . S
C827 C825 1.388 . S
C827 C828 1.366 . S
C828 C827 1.366 . S
C828 C829 1.414 . S
C828 C831 1.499 . S
C829 H803 0.950 . S
C829 C828 1.414 . S
C829 C830 1.374 . S
C830 H804 0.950 . S
C830 C826 1.385 . S
C830 C829 1.374 . S
C831 C828 1.499 . S
C831 C832 1.373 . S
C831 C833 1.389 . S
C832 H805 0.950 . S
C832 C818 1.377 . S
C832 C831 1.373 . S
C833 C817 1.377 . S
C833 C831 1.389 . S
C833 C834 1.524 . S
C834 C833 1.524 . S
C834 C835 1.397 . S
C834 C839 1.371 . S
C835 H806 0.950 . S
C835 C834 1.397 . S
C835 C836 1.334 . S
C836 H807 0.950 . S
C836 C835 1.334 . S
C836 C837 1.287 . S
C837 C836 1.287 . S
C837 C838 1.524 1_455 S
C837 H840 0.999 . S
C838 H808 0.950 . S
C838 C837 1.524 1_655 S
C838 C839 1.411 1_655 S
C839 H809 0.946 1_455 S
C839 C834 1.371 . S
C839 C838 1.411 1_455 S
H840 C837 0.999 . S
H841 C822 0.913 . S
H842 C860 0.951 . S
H843 C862 0.951 . S
H844 C864 0.950 . S
H845 C865 0.950 . S
H846 C867 0.950 . S
H847 C870 0.950 . S
H848 C871 0.950 . S
H849 C873 0.950 . S
H850 C874 0.950 . S
H851 C875 0.951 . S
H852 C877 0.951 . S
H853 C879 0.950 . S
H854 C880 0.950 . S
H855 C882 0.950 . S
H856 C885 0.950 . S
H857 C886 0.950 1_565 S
H858 C888 0.950 . S
H859 C889 0.950 . S
C860 H842 0.951 . S
C860 C861 1.366 . S
C860 C862 1.388 . S
C861 C860 1.366 . S
C861 C865 1.385 . S
C862 H843 0.951 . S
C862 C860 1.388 . S
C862 C863 1.366 . S
C863 C862 1.366 . S
C863 C864 1.414 . S
C863 C866 1.499 . S
C864 H844 0.950 . S
C864 C863 1.414 . S
C864 C865 1.374 . S
C865 H845 0.950 . S
C865 C861 1.385 . S
C865 C864 1.374 . S
C866 C863 1.499 . S
C866 C867 1.373 . S
C866 C868 1.389 . S
C867 H846 0.950 . S
C867 C866 1.373 . S
C867 C883 1.377 . S
C868 C866 1.389 . S
C868 C869 1.524 . S
C868 C882 1.377 . S
C869 C868 1.524 . S
C869 C870 1.397 . S
C869 C874 1.363 . S
C870 H847 0.950 . S
C870 C869 1.397 . S
C870 C871 1.334 . S
C871 H848 0.950 . S
C871 C870 1.334 . S
C871 C872 1.287 . S
C872 C871 1.287 . S
C872 C873 1.524 . S
C872 H891 0.913 . S
C873 H849 0.950 . S
C873 C872 1.524 . S
C873 C874 1.415 . S
C874 H850 0.950 . S
C874 C869 1.363 . S
C874 C873 1.415 . S
C875 H851 0.951 . S
C875 C876 1.366 . S
C875 C877 1.388 . S
C876 C875 1.366 . S
C876 C880 1.385 . S
C877 H852 0.951 . S
C877 C875 1.388 . S
C877 C878 1.366 . S
C878 C877 1.366 . S
C878 C879 1.414 . S
C878 C881 1.499 . S
C879 H853 0.950 . S
C879 C878 1.414 . S
C879 C880 1.374 . S
C880 H854 0.950 . S
C880 C876 1.385 . S
C880 C879 1.374 . S
C881 C878 1.499 . S
C881 C882 1.373 . S
C881 C883 1.389 . S
C882 H855 0.950 . S
C882 C868 1.377 . S
C882 C881 1.373 . S
C883 C867 1.377 . S
C883 C881 1.389 . S
C883 C884 1.524 . S
C884 C883 1.524 . S
C884 C885 1.397 . S
C884 C889 1.363 . S
C885 H856 0.950 . S
C885 C884 1.397 . S
C885 C886 1.334 . S
C886 H857 0.950 1_545 S
C886 C885 1.334 . S
C886 C887 1.287 . S
C887 C886 1.287 . S
C887 C888 1.524 . S
C887 H890 0.999 . S
C888 H858 0.950 . S
C888 C887 1.524 . S
C888 C889 1.415 . S
C889 H859 0.950 . S
C889 C884 1.363 . S
C889 C888 1.415 . S
H890 C887 0.999 . S
H891 C872 0.913 . S
H892 C910 0.951 1_455 S
H893 C912 0.951 . S
H894 C914 0.950 . S
H895 C915 0.950 . S
H896 C917 0.950 . S
H897 C920 0.950 . S
H898 C921 0.950 . S
H899 C923 0.950 . S
H900 C924 0.950 1_455 S
H901 C925 0.951 . S
H902 C927 0.951 . S
H903 C929 0.950 . S
H904 C930 0.950 . S
H905 C932 0.950 . S
H906 C935 0.950 . S
H907 C936 0.950 . S
H908 C938 0.950 . S
H909 C939 0.950 . S
C910 H892 0.951 1_655 S
C910 C911 1.366 . S
C910 C912 1.388 . S
C911 C910 1.366 . S
C911 C915 1.385 . S
C912 H893 0.951 . S
C912 C910 1.388 . S
C912 C913 1.366 . S
C913 C912 1.366 . S
C913 C914 1.414 . S
C913 C916 1.499 . S
C914 H894 0.950 . S
C914 C913 1.414 . S
C914 C915 1.374 . S
C915 H895 0.950 . S
C915 C911 1.385 . S
C915 C914 1.374 . S
C916 C913 1.499 . S
C916 C917 1.373 . S
C916 C918 1.389 . S
C917 H896 0.950 . S
C917 C916 1.373 . S
C917 C933 1.377 . S
C918 C916 1.389 . S
C918 C919 1.524 . S
C918 C932 1.377 . S
C919 C918 1.524 . S
C919 C920 1.397 . S
C919 C924 1.363 . S
C920 H897 0.950 . S
C920 C919 1.397 . S
C920 C921 1.334 . S
C921 H898 0.950 . S
C921 C920 1.334 . S
C921 C922 1.287 . S
C922 C921 1.287 . S
C922 C923 1.524 1_655 S
C922 H941 0.913 . S
C923 H899 0.950 . S
C923 C922 1.524 1_455 S
C923 C924 1.415 1_455 S
C924 H900 0.950 1_655 S
C924 C919 1.363 . S
C924 C923 1.415 1_655 S
C925 H901 0.951 . S
C925 C926 1.366 . S
C925 C927 1.388 . S
C926 C925 1.366 . S
C926 C930 1.385 . S
C927 H902 0.951 . S
C927 C925 1.388 . S
C927 C928 1.366 . S
C928 C927 1.366 . S
C928 C929 1.414 . S
C928 C931 1.499 . S
C929 H903 0.950 . S
C929 C928 1.414 . S
C929 C930 1.374 . S
C930 H904 0.950 . S
C930 C926 1.385 . S
C930 C929 1.374 . S
C931 C928 1.499 . S
C931 C932 1.373 . S
C931 C933 1.389 . S
C932 H905 0.950 . S
C932 C918 1.377 . S
C932 C931 1.373 . S
C933 C917 1.377 . S
C933 C931 1.389 . S
C933 C934 1.524 . S
C934 C933 1.524 . S
C934 C935 1.397 . S
C934 C939 1.363 . S
C935 H906 0.950 . S
C935 C934 1.397 . S
C935 C936 1.334 . S
C936 H907 0.950 . S
C936 C935 1.334 . S
C936 C937 1.287 . S
C937 C936 1.287 . S
C937 C938 1.524 . S
C937 H940 0.999 . S
C938 H908 0.950 . S
C938 C937 1.524 . S
C938 C939 1.415 . S
C939 H909 0.950 . S
C939 C934 1.363 . S
C939 C938 1.415 . S
H940 C937 0.999 . S
H941 C922 0.913 . S
H942 C960 0.951 . S
H943 C962 0.951 . S
H944 C964 0.950 . S
H945 C965 0.950 . S
H946 C967 0.950 . S
H947 C970 0.950 . S
H948 C971 0.950 . S
H949 C973 0.950 . S
H950 C974 0.950 . S
H951 C975 0.951 . S
H952 C977 0.951 . S
H953 C979 0.950 . S
H954 C980 0.950 . S
H955 C982 0.950 . S
H956 C985 0.950 . S
H957 C986 0.950 . S
H958 C988 0.950 . S
H959 C989 0.950 . S
C960 H942 0.951 . S
C960 C961 1.366 . S
C960 C962 1.388 . S
C961 C960 1.366 . S
C961 C965 1.385 . S
C962 H943 0.951 . S
C962 C960 1.388 . S
C962 C963 1.366 . S
C963 C962 1.366 . S
C963 C964 1.414 . S
C963 C966 1.499 . S
C964 H944 0.950 . S
C964 C963 1.414 . S
C964 C965 1.374 . S
C965 H945 0.950 . S
C965 C961 1.385 . S
C965 C964 1.374 . S
C966 C963 1.499 . S
C966 C967 1.373 . S
C966 C968 1.389 . S
C967 H946 0.950 . S
C967 C966 1.373 . S
C967 C983 1.377 . S
C968 C966 1.389 . S
C968 C969 1.524 . S
C968 C982 1.377 . S
C969 C968 1.524 . S
C969 C970 1.397 1_565 S
C969 C974 1.363 . S
C970 H947 0.950 . S
C970 C969 1.397 1_545 S
C970 C971 1.334 . S
C971 H948 0.950 . S
C971 C970 1.334 . S
C971 C972 1.287 . S
C972 C971 1.287 . S
C972 C973 1.524 1_545 S
C972 H991 0.913 . S
C973 H949 0.950 . S
C973 C972 1.524 1_565 S
C973 C974 1.415 . S
C974 H950 0.950 . S
C974 C969 1.363 . S
C974 C973 1.415 . S
C975 H951 0.951 . S
C975 C976 1.366 . S
C975 C977 1.388 . S
C976 C975 1.366 . S
C976 C980 1.385 . S
C977 H952 0.951 . S
C977 C975 1.388 . S
C977 C978 1.366 . S
C978 C977 1.366 . S
C978 C979 1.414 . S
C978 C981 1.499 . S
C979 H953 0.950 . S
C979 C978 1.414 . S
C979 C980 1.374 . S
C980 H954 0.950 . S
C980 C976 1.385 . S
C980 C979 1.374 . S
C981 C978 1.499 . S
C981 C982 1.373 . S
C981 C983 1.389 . S
C982 H955 0.950 . S
C982 C968 1.377 . S
C982 C981 1.373 . S
C983 C967 1.377 . S
C983 C981 1.389 . S
C983 C984 1.524 . S
C984 C983 1.524 . S
C984 C985 1.397 . S
C984 C989 1.363 . S
C985 H956 0.950 . S
C985 C984 1.397 . S
C985 C986 1.334 . S
C986 H957 0.950 . S
C986 C985 1.334 . S
C986 C987 1.287 . S
C987 C986 1.287 . S
C987 C988 1.524 . S
C987 H990 0.999 . S
C988 H958 0.950 . S
C988 C987 1.524 . S
C988 C989 1.415 . S
C989 H959 0.950 . S
C989 C984 1.363 . S
C989 C988 1.415 . S
H990 C987 0.999 . S
H991 C972 0.913 . S
H992 C1010 0.951 . S
H993 C1012 0.951 . S
H994 C1014 0.950 . S
H995 C1015 0.950 . S
H996 C1017 0.950 . S
H997 C1020 0.950 . S
H998 C1021 0.950 . S
H999 C1023 0.950 . S
H1000 C1024 0.950 . S
H1001 C1025 0.951 . S
H1002 C1027 0.951 . S
H1003 C1029 0.950 . S
H1004 C1030 0.950 . S
H1005 C1032 0.950 . S
H1006 C1035 0.950 . S
H1007 C1036 0.950 . S
H1008 C1038 0.950 . S
H1009 C1039 0.950 . S
C1010 H992 0.951 . S
C1010 C1011 1.366 . S
C1010 C1012 1.388 . S
C1011 C1010 1.366 . S
C1011 C1015 1.385 . S
C1012 H993 0.951 . S
C1012 C1010 1.388 . S
C1012 C1013 1.366 . S
C1013 C1012 1.366 . S
C1013 C1014 1.414 . S
C1013 C1016 1.499 . S
C1014 H994 0.950 . S
C1014 C1013 1.414 . S
C1014 C1015 1.374 . S
C1015 H995 0.950 . S
C1015 C1011 1.385 . S
C1015 C1014 1.374 . S
C1016 C1013 1.499 . S
C1016 C1017 1.373 . S
C1016 C1018 1.389 . S
C1017 H996 0.950 . S
C1017 C1016 1.373 . S
C1017 C1033 1.377 . S
C1018 C1016 1.389 . S
C1018 C1019 1.524 1_565 S
C1018 C1032 1.377 . S
C1019 C1018 1.524 1_545 S
C1019 C1020 1.397 . S
C1019 C1024 1.363 . S
C1020 H997 0.950 . S
C1020 C1019 1.397 . S
C1020 C1021 1.334 . S
C1021 H998 0.950 . S
C1021 C1020 1.334 . S
C1021 C1022 1.287 . S
C1022 C1021 1.287 . S
C1022 C1023 1.524 . S
C1022 H1041 0.913 . S
C1023 H999 0.950 . S
C1023 C1022 1.524 . S
C1023 C1024 1.415 . S
C1024 H1000 0.950 . S
C1024 C1019 1.363 . S
C1024 C1023 1.415 . S
C1025 H1001 0.951 . S
C1025 C1026 1.366 . S
C1025 C1027 1.388 . S
C1026 C1025 1.366 . S
C1026 C1030 1.385 . S
C1027 H1002 0.951 . S
C1027 C1025 1.388 . S
C1027 C1028 1.366 . S
C1028 C1027 1.366 . S
C1028 C1029 1.414 . S
C1028 C1031 1.499 . S
C1029 H1003 0.950 . S
C1029 C1028 1.414 . S
C1029 C1030 1.374 . S
C1030 H1004 0.950 . S
C1030 C1026 1.385 . S
C1030 C1029 1.374 . S
C1031 C1028 1.499 . S
C1031 C1032 1.373 . S
C1031 C1033 1.389 . S
C1032 H1005 0.950 . S
C1032 C1018 1.377 . S
C1032 C1031 1.373 . S
C1033 C1017 1.377 . S
C1033 C1031 1.389 . S
C1033 C1034 1.524 . S
C1034 C1033 1.524 . S
C1034 C1035 1.397 . S
C1034 C1039 1.363 . S
C1035 H1006 0.950 . S
C1035 C1034 1.397 . S
C1035 C1036 1.334 . S
C1036 H1007 0.950 . S
C1036 C1035 1.334 . S
C1036 C1037 1.287 . S
C1037 C1036 1.287 . S
C1037 C1038 1.524 . S
C1037 H1040 0.999 . S
C1038 H1008 0.950 . S
C1038 C1037 1.524 . S
C1038 C1039 1.415 . S
C1039 H1009 0.950 . S
C1039 C1034 1.363 . S
C1039 C1038 1.415 . S
H1040 C1037 0.999 . S
H1041 C1022 0.913 . S
H1042 C1060 0.951 . S
H1043 C1062 0.951 . S
H1044 C1064 0.950 . S
H1045 C1065 0.950 . S
H1046 C1067 0.950 . S
H1047 C1070 0.950 . S
H1048 C1071 0.950 . S
H1049 C1073 0.950 . S
H1050 C1074 0.950 . S
H1051 C1075 0.951 . S
H1052 C1077 0.951 . S
H1053 C1079 0.950 . S
H1054 C1080 0.950 . S
H1055 C1082 0.950 . S
H1056 C1085 0.966 . S
H1057 C1086 0.950 . S
H1058 C1088 0.950 . S
H1059 C1089 0.950 . S
C1060 H1042 0.951 . S
C1060 C1061 1.366 . S
C1060 C1062 1.388 . S
C1061 C1060 1.366 . S
C1061 C1065 1.385 . S
C1062 H1043 0.951 . S
C1062 C1060 1.388 . S
C1062 C1063 1.366 . S
C1063 C1062 1.366 . S
C1063 C1064 1.414 . S
C1063 C1066 1.499 . S
C1064 H1044 0.950 . S
C1064 C1063 1.414 . S
C1064 C1065 1.374 . S
C1065 H1045 0.950 . S
C1065 C1061 1.385 . S
C1065 C1064 1.374 . S
C1066 C1063 1.499 . S
C1066 C1067 1.373 . S
C1066 C1068 1.389 . S
C1067 H1046 0.950 . S
C1067 C1066 1.373 . S
C1067 C1083 1.377 . S
C1068 C1066 1.389 . S
C1068 C1069 1.524 . S
C1068 C1082 1.377 . S
C1069 C1068 1.524 . S
C1069 C1070 1.397 . S
C1069 C1074 1.363 . S
C1070 H1047 0.950 . S
C1070 C1069 1.397 . S
C1070 C1071 1.334 . S
C1071 H1048 0.950 . S
C1071 C1070 1.334 . S
C1071 C1072 1.287 . S
C1072 C1071 1.287 . S
C1072 C1073 1.524 . S
C1072 H1091 0.913 . S
C1073 H1049 0.950 . S
C1073 C1072 1.524 . S
C1073 C1074 1.415 . S
C1074 H1050 0.950 . S
C1074 C1069 1.363 . S
C1074 C1073 1.415 . S
C1075 H1051 0.951 . S
C1075 C1076 1.366 . S
C1075 C1077 1.388 . S
C1076 C1075 1.366 . S
C1076 C1080 1.385 . S
C1077 H1052 0.951 . S
C1077 C1075 1.388 . S
C1077 C1078 1.366 . S
C1078 C1077 1.366 . S
C1078 C1079 1.414 . S
C1078 C1081 1.499 . S
C1079 H1053 0.950 . S
C1079 C1078 1.414 . S
C1079 C1080 1.374 . S
C1080 H1054 0.950 . S
C1080 C1076 1.385 . S
C1080 C1079 1.374 . S
C1081 C1078 1.499 . S
C1081 C1082 1.373 . S
C1081 C1083 1.389 . S
C1082 H1055 0.950 . S
C1082 C1068 1.377 . S
C1082 C1081 1.373 . S
C1083 C1067 1.377 . S
C1083 C1081 1.389 . S
C1083 C1084 1.524 . S
C1084 C1083 1.524 . S
C1084 C1085 1.403 . S
C1084 C1089 1.363 1_455 S
C1085 H1056 0.966 . S
C1085 C1084 1.403 . S
C1085 C1086 1.312 1_455 S
C1086 H1057 0.950 . S
C1086 C1085 1.312 1_655 S
C1086 C1087 1.287 . S
C1087 C1086 1.287 . S
C1087 C1088 1.524 . S
C1087 H1090 0.999 . S
C1088 H1058 0.950 . S
C1088 C1087 1.524 . S
C1088 C1089 1.415 . S
C1089 H1059 0.950 . S
C1089 C1084 1.363 1_655 S
C1089 C1088 1.415 . S
H1090 C1087 0.999 . S
H1091 C1072 0.913 . S
H1092 C1110 0.951 . S
H1093 C1112 0.951 . S
H1094 C1114 0.950 . S
H1095 C1115 0.950 . S
H1096 C1117 0.950 . S
H1097 C1120 0.950 . S
H1098 C1121 0.950 . S
H1099 C1123 0.950 . S
H1100 C1124 0.950 . S
H1101 C1125 0.951 . S
H1102 C1127 0.951 . S
H1103 C1129 0.950 . S
H1104 C1130 0.950 . S
H1105 C1132 0.950 . S
H1106 C1135 0.950 . S
H1107 C1136 0.950 . S
H1108 C1138 0.950 . S
H1109 C1139 0.950 . S
C1110 H1092 0.951 . S
C1110 C1111 1.366 . S
C1110 C1112 1.388 . S
C1111 C1110 1.366 . S
C1111 C1115 1.385 . S
C1112 H1093 0.951 . S
C1112 C1110 1.388 . S
C1112 C1113 1.366 . S
C1113 C1112 1.366 . S
C1113 C1114 1.414 . S
C1113 C1116 1.499 . S
C1114 H1094 0.950 . S
C1114 C1113 1.414 . S
C1114 C1115 1.374 . S
C1115 H1095 0.950 . S
C1115 C1111 1.385 . S
C1115 C1114 1.374 . S
C1116 C1113 1.499 . S
C1116 C1117 1.373 . S
C1116 C1118 1.389 . S
C1117 H1096 0.950 . S
C1117 C1116 1.373 . S
C1117 C1133 1.377 . S
C1118 C1116 1.389 . S
C1118 C1119 1.524 . S
C1118 C1132 1.377 . S
C1119 C1118 1.524 . S
C1119 C1120 1.397 . S
C1119 C1124 1.363 . S
C1120 H1097 0.950 . S
C1120 C1119 1.397 . S
C1120 C1121 1.334 . S
C1121 H1098 0.950 . S
C1121 C1120 1.334 . S
C1121 C1122 1.287 . S
C1122 C1121 1.287 . S
C1122 C1123 1.524 . S
C1122 H1141 0.913 . S
C1123 H1099 0.950 . S
C1123 C1122 1.524 . S
C1123 C1124 1.415 . S
C1124 H1100 0.950 . S
C1124 C1119 1.363 . S
C1124 C1123 1.415 . S
C1125 H1101 0.951 . S
C1125 C1126 1.366 . S
C1125 C1127 1.388 . S
C1126 C1125 1.366 . S
C1126 C1130 1.385 . S
C1127 H1102 0.951 . S
C1127 C1125 1.388 . S
C1127 C1128 1.366 . S
C1128 C1127 1.366 . S
C1128 C1129 1.414 . S
C1128 C1131 1.499 . S
C1129 H1103 0.950 . S
C1129 C1128 1.414 . S
C1129 C1130 1.374 . S
C1130 H1104 0.950 . S
C1130 C1126 1.385 . S
C1130 C1129 1.374 . S
C1131 C1128 1.499 . S
C1131 C1132 1.373 . S
C1131 C1133 1.389 . S
C1132 H1105 0.950 . S
C1132 C1118 1.377 . S
C1132 C1131 1.373 . S
C1133 C1117 1.377 . S
C1133 C1131 1.389 . S
C1133 C1134 1.524 . S
C1134 C1133 1.524 . S
C1134 C1135 1.397 . S
C1134 C1139 1.363 . S
C1135 H1106 0.950 . S
C1135 C1134 1.397 . S
C1135 C1136 1.334 1_545 S
C1136 H1107 0.950 . S
C1136 C1135 1.334 1_565 S
C1136 C1137 1.287 . S
C1137 C1136 1.287 . S
C1137 C1138 1.524 . S
C1137 H1140 0.999 . S
C1138 H1108 0.950 . S
C1138 C1137 1.524 . S
C1138 C1139 1.415 1_565 S
C1139 H1109 0.950 . S
C1139 C1134 1.363 . S
C1139 C1138 1.415 1_545 S
H1140 C1137 0.999 . S
H1141 C1122 0.913 . S
H1142 C1160 0.951 . S
H1143 C1162 0.951 . S
H1144 C1164 0.950 . S
H1145 C1165 0.950 . S
H1146 C1167 0.950 . S
H1147 C1170 0.950 . S
H1148 C1171 0.950 . S
H1149 C1173 0.950 . S
H1150 C1174 0.950 . S
H1151 C1175 0.951 . S
H1152 C1177 0.951 . S
H1153 C1179 0.950 . S
H1154 C1180 0.950 . S
H1155 C1182 0.950 . S
H1156 C1185 0.941 1_655 S
H1157 C1186 0.950 . S
H1158 C1188 0.950 . S
H1159 C1189 0.953 . S
C1160 H1142 0.951 . S
C1160 C1161 1.366 . S
C1160 C1162 1.388 . S
C1161 C1160 1.366 . S
C1161 C1165 1.385 . S
C1162 H1143 0.951 . S
C1162 C1160 1.388 . S
C1162 C1163 1.366 . S
C1163 C1162 1.366 . S
C1163 C1164 1.414 . S
C1163 C1166 1.499 . S
C1164 H1144 0.950 . S
C1164 C1163 1.414 . S
C1164 C1165 1.374 . S
C1165 H1145 0.950 . S
C1165 C1161 1.385 . S
C1165 C1164 1.374 . S
C1166 C1163 1.499 . S
C1166 C1167 1.373 . S
C1166 C1168 1.389 . S
C1167 H1146 0.950 . S
C1167 C1166 1.373 . S
C1167 C1183 1.377 . S
C1168 C1166 1.389 . S
C1168 C1169 1.524 . S
C1168 C1182 1.377 . S
C1169 C1168 1.524 . S
C1169 C1170 1.397 . S
C1169 C1174 1.363 . S
C1170 H1147 0.950 . S
C1170 C1169 1.397 . S
C1170 C1171 1.334 . S
C1171 H1148 0.950 . S
C1171 C1170 1.334 . S
C1171 C1172 1.287 . S
C1172 C1171 1.287 . S
C1172 C1173 1.524 . S
C1172 H1191 0.913 . S
C1173 H1149 0.950 . S
C1173 C1172 1.524 . S
C1173 C1174 1.415 . S
C1174 H1150 0.950 . S
C1174 C1169 1.363 . S
C1174 C1173 1.415 . S
C1175 H1151 0.951 . S
C1175 C1176 1.366 . S
C1175 C1177 1.388 . S
C1176 C1175 1.366 . S
C1176 C1180 1.385 . S
C1177 H1152 0.951 . S
C1177 C1175 1.388 . S
C1177 C1178 1.366 . S
C1178 C1177 1.366 . S
C1178 C1179 1.414 . S
C1178 C1181 1.499 . S
C1179 H1153 0.950 . S
C1179 C1178 1.414 . S
C1179 C1180 1.374 . S
C1180 H1154 0.950 . S
C1180 C1176 1.385 . S
C1180 C1179 1.374 . S
C1181 C1178 1.499 . S
C1181 C1182 1.373 . S
C1181 C1183 1.389 . S
C1182 H1155 0.950 . S
C1182 C1168 1.377 . S
C1182 C1181 1.373 . S
C1183 C1167 1.377 . S
C1183 C1181 1.389 . S
C1183 C1184 1.524 . S
C1184 C1183 1.524 . S
C1184 C1185 1.388 1_655 S
C1184 C1189 1.365 . S
C1185 H1156 0.941 1_455 S
C1185 C1184 1.388 1_455 S
C1185 C1186 1.352 . S
C1186 H1157 0.950 . S
C1186 C1185 1.352 . S
C1186 C1187 1.287 . S
C1187 C1186 1.287 . S
C1187 C1188 1.524 . S
C1187 H1190 0.999 . S
C1188 H1158 0.950 . S
C1188 C1187 1.524 . S
C1188 C1189 1.409 1_455 S
C1189 H1159 0.953 . S
C1189 C1184 1.365 . S
C1189 C1188 1.409 1_655 S
H1190 C1187 0.999 . S
H1191 C1172 0.913 . S
H1192 C1210 0.951 . S
H1193 C1212 0.951 . S
H1194 C1214 0.950 . S
H1195 C1215 0.950 . S
H1196 C1217 0.950 . S
H1197 C1220 0.950 . S
H1198 C1221 0.950 . S
H1199 C1223 0.950 . S
H1200 C1224 0.950 . S
H1201 C1225 0.951 . S
H1202 C1227 0.951 . S
H1203 C1229 0.950 . S
H1204 C1230 0.950 . S
H1205 C1232 0.950 . S
H1206 C1235 0.950 . S
H1207 C1236 0.950 . S
H1208 C1238 0.950 . S
H1209 C1239 0.950 . S
C1210 H1192 0.951 . S
C1210 C1211 1.366 . S
C1210 C1212 1.388 . S
C1211 C1210 1.366 . S
C1211 C1215 1.385 . S
C1212 H1193 0.951 . S
C1212 C1210 1.388 . S
C1212 C1213 1.366 . S
C1213 C1212 1.366 . S
C1213 C1214 1.414 . S
C1213 C1216 1.499 . S
C1214 H1194 0.950 . S
C1214 C1213 1.414 . S
C1214 C1215 1.374 . S
C1215 H1195 0.950 . S
C1215 C1211 1.385 . S
C1215 C1214 1.374 . S
C1216 C1213 1.499 . S
C1216 C1217 1.373 . S
C1216 C1218 1.389 . S
C1217 H1196 0.950 . S
C1217 C1216 1.373 . S
C1217 C1233 1.377 . S
C1218 C1216 1.389 . S
C1218 C1219 1.524 . S
C1218 C1232 1.377 . S
C1219 C1218 1.524 . S
C1219 C1220 1.397 . S
C1219 C1224 1.363 . S
C1220 H1197 0.950 . S
C1220 C1219 1.397 . S
C1220 C1221 1.334 . S
C1221 H1198 0.950 . S
C1221 C1220 1.334 . S
C1221 C1222 1.287 . S
C1222 C1221 1.287 . S
C1222 C1223 1.524 . S
C1222 H1241 0.913 . S
C1223 H1199 0.950 . S
C1223 C1222 1.524 . S
C1223 C1224 1.415 . S
C1224 H1200 0.950 . S
C1224 C1219 1.363 . S
C1224 C1223 1.415 . S
C1225 H1201 0.951 . S
C1225 C1226 1.366 . S
C1225 C1227 1.388 . S
C1226 C1225 1.366 . S
C1226 C1230 1.385 . S
C1227 H1202 0.951 . S
C1227 C1225 1.388 . S
C1227 C1228 1.366 . S
C1228 C1227 1.366 . S
C1228 C1229 1.414 . S
C1228 C1231 1.499 . S
C1229 H1203 0.950 . S
C1229 C1228 1.414 . S
C1229 C1230 1.374 . S
C1230 H1204 0.950 . S
C1230 C1226 1.385 . S
C1230 C1229 1.374 . S
C1231 C1228 1.499 . S
C1231 C1232 1.373 . S
C1231 C1233 1.389 . S
C1232 H1205 0.950 . S
C1232 C1218 1.377 . S
C1232 C1231 1.373 . S
C1233 C1217 1.377 . S
C1233 C1231 1.389 . S
C1233 C1234 1.524 . S
C1234 C1233 1.524 . S
C1234 C1235 1.397 . S
C1234 C1239 1.363 . S
C1235 H1206 0.950 . S
C1235 C1234 1.397 . S
C1235 C1236 1.334 . S
C1236 H1207 0.950 . S
C1236 C1235 1.334 . S
C1236 C1237 1.287 . S
C1237 C1236 1.287 . S
C1237 C1238 1.524 . S
C1237 H1240 0.999 . S
C1238 H1208 0.950 . S
C1238 C1237 1.524 . S
C1238 C1239 1.415 . S
C1239 H1209 0.950 . S
C1239 C1234 1.363 . S
C1239 C1238 1.415 . S
H1240 C1237 0.999 . S
H1241 C1222 0.913 . S
H1242 C1260 0.951 . S
H1243 C1262 0.951 . S
H1244 C1264 0.950 . S
H1245 C1265 0.950 . S
H1246 C1267 0.950 . S
H1247 C1270 0.950 . S
H1248 C1271 0.950 . S
H1249 C1273 0.950 . S
H1250 C1274 0.950 . S
H1251 C1275 0.951 . S
H1252 C1277 0.951 . S
H1253 C1279 0.950 . S
H1254 C1280 0.950 . S
H1255 C1282 0.950 . S
H1256 C1285 0.950 . S
H1257 C1286 0.950 . S
H1258 C1288 0.950 . S
H1259 C1289 0.950 . S
C1260 H1242 0.951 . S
C1260 C1261 1.366 . S
C1260 C1262 1.388 . S
C1261 C1260 1.366 . S
C1261 C1265 1.385 . S
C1262 H1243 0.951 . S
C1262 C1260 1.388 . S
C1262 C1263 1.366 . S
C1263 C1262 1.366 . S
C1263 C1264 1.414 . S
C1263 C1266 1.499 . S
C1264 H1244 0.950 . S
C1264 C1263 1.414 . S
C1264 C1265 1.374 . S
C1265 H1245 0.950 . S
C1265 C1261 1.385 . S
C1265 C1264 1.374 . S
C1266 C1263 1.499 . S
C1266 C1267 1.373 . S
C1266 C1268 1.389 . S
C1267 H1246 0.950 . S
C1267 C1266 1.373 . S
C1267 C1283 1.377 . S
C1268 C1266 1.389 . S
C1268 C1269 1.524 . S
C1268 C1282 1.377 . S
C1269 C1268 1.524 . S
C1269 C1270 1.397 . S
C1269 C1274 1.363 . S
C1270 H1247 0.950 . S
C1270 C1269 1.397 . S
C1270 C1271 1.334 . S
C1271 H1248 0.950 . S
C1271 C1270 1.334 . S
C1271 C1272 1.287 . S
C1272 C1271 1.287 . S
C1272 C1273 1.524 . S
C1272 H1291 0.913 . S
C1273 H1249 0.950 . S
C1273 C1272 1.524 . S
C1273 C1274 1.415 . S
C1274 H1250 0.950 . S
C1274 C1269 1.363 . S
C1274 C1273 1.415 . S
C1275 H1251 0.951 . S
C1275 C1276 1.366 . S
C1275 C1277 1.388 . S
C1276 C1275 1.366 . S
C1276 C1280 1.385 . S
C1277 H1252 0.951 . S
C1277 C1275 1.388 . S
C1277 C1278 1.366 . S
C1278 C1277 1.366 . S
C1278 C1279 1.414 . S
C1278 C1281 1.499 . S
C1279 H1253 0.950 . S
C1279 C1278 1.414 . S
C1279 C1280 1.374 . S
C1280 H1254 0.950 . S
C1280 C1276 1.385 . S
C1280 C1279 1.374 . S
C1281 C1278 1.499 . S
C1281 C1282 1.373 . S
C1281 C1283 1.389 . S
C1282 H1255 0.950 . S
C1282 C1268 1.377 . S
C1282 C1281 1.373 . S
C1283 C1267 1.377 . S
C1283 C1281 1.389 . S
C1283 C1284 1.524 . S
C1284 C1283 1.524 . S
C1284 C1285 1.397 . S
C1284 C1289 1.363 . S
C1285 H1256 0.950 . S
C1285 C1284 1.397 . S
C1285 C1286 1.334 . S
C1286 H1257 0.950 . S
C1286 C1285 1.334 . S
C1286 C1287 1.287 . S
C1287 C1286 1.287 . S
C1287 C1288 1.524 . S
C1287 H1290 0.999 . S
C1288 H1258 0.950 . S
C1288 C1287 1.524 . S
C1288 C1289 1.415 . S
C1289 H1259 0.950 . S
C1289 C1284 1.363 . S
C1289 C1288 1.415 . S
H1290 C1287 0.999 . S
H1291 C1272 0.913 . S
H1292 C1310 0.951 . S
H1293 C1312 0.951 . S
H1294 C1314 0.950 . S
H1295 C1315 0.950 . S
H1296 C1317 0.950 . S
H1297 C1320 0.950 . S
H1298 C1321 0.950 . S
H1299 C1323 0.950 . S
H1300 C1324 0.950 . S
H1301 C1325 0.951 . S
H1302 C1327 0.951 . S
H1303 C1329 0.950 . S
H1304 C1330 0.950 . S
H1305 C1332 0.950 . S
H1306 C1335 0.950 . S
H1307 C1336 0.950 . S
H1308 C1338 0.950 . S
H1309 C1339 0.950 . S
C1310 H1292 0.951 . S
C1310 C1311 1.366 . S
C1310 C1312 1.388 . S
C1311 C1310 1.366 . S
C1311 C1315 1.385 . S
C1312 H1293 0.951 . S
C1312 C1310 1.388 . S
C1312 C1313 1.366 . S
C1313 C1312 1.366 . S
C1313 C1314 1.414 . S
C1313 C1316 1.499 . S
C1314 H1294 0.950 . S
C1314 C1313 1.414 . S
C1314 C1315 1.374 . S
C1315 H1295 0.950 . S
C1315 C1311 1.385 . S
C1315 C1314 1.374 . S
C1316 C1313 1.499 . S
C1316 C1317 1.373 . S
C1316 C1318 1.389 . S
C1317 H1296 0.950 . S
C1317 C1316 1.373 . S
C1317 C1333 1.377 . S
C1318 C1316 1.389 . S
C1318 C1319 1.524 . S
C1318 C1332 1.377 . S
C1319 C1318 1.524 . S
C1319 C1320 1.397 . S
C1319 C1324 1.363 . S
C1320 H1297 0.950 . S
C1320 C1319 1.397 . S
C1320 C1321 1.334 . S
C1321 H1298 0.950 . S
C1321 C1320 1.334 . S
C1321 C1322 1.287 . S
C1322 C1321 1.287 . S
C1322 C1323 1.524 . S
C1322 H1341 0.913 . S
C1323 H1299 0.950 . S
C1323 C1322 1.524 . S
C1323 C1324 1.415 . S
C1324 H1300 0.950 . S
C1324 C1319 1.363 . S
C1324 C1323 1.415 . S
C1325 H1301 0.951 . S
C1325 C1326 1.366 . S
C1325 C1327 1.388 . S
C1326 C1325 1.366 . S
C1326 C1330 1.385 . S
C1327 H1302 0.951 . S
C1327 C1325 1.388 . S
C1327 C1328 1.366 . S
C1328 C1327 1.366 . S
C1328 C1329 1.414 . S
C1328 C1331 1.499 . S
C1329 H1303 0.950 . S
C1329 C1328 1.414 . S
C1329 C1330 1.374 . S
C1330 H1304 0.950 . S
C1330 C1326 1.385 . S
C1330 C1329 1.374 . S
C1331 C1328 1.499 . S
C1331 C1332 1.373 . S
C1331 C1333 1.389 . S
C1332 H1305 0.950 . S
C1332 C1318 1.377 . S
C1332 C1331 1.373 . S
C1333 C1317 1.377 . S
C1333 C1331 1.389 . S
C1333 C1334 1.524 . S
C1334 C1333 1.524 . S
C1334 C1335 1.397 . S
C1334 C1339 1.363 . S
C1335 H1306 0.950 . S
C1335 C1334 1.397 . S
C1335 C1336 1.334 . S
C1336 H1307 0.950 . S
C1336 C1335 1.334 . S
C1336 C1337 1.287 . S
C1337 C1336 1.287 . S
C1337 C1338 1.524 . S
C1337 H1340 0.999 . S
C1338 H1308 0.950 . S
C1338 C1337 1.524 . S
C1338 C1339 1.415 . S
C1339 H1309 0.950 . S
C1339 C1334 1.363 . S
C1339 C1338 1.415 . S
H1340 C1337 0.999 . S
H1341 C1322 0.913 . S
H1342 C1360 0.951 . S
H1343 C1362 0.951 . S
H1344 C1364 0.950 . S
H1345 C1365 0.950 . S
H1346 C1367 0.950 . S
H1347 C1370 0.950 . S
H1348 C1371 0.950 . S
H1349 C1373 0.950 . S
H1350 C1374 0.950 . S
H1351 C1375 0.951 . S
H1352 C1377 0.951 . S
H1353 C1379 0.950 . S
H1354 C1380 0.950 . S
H1355 C1382 0.950 . S
H1356 C1385 0.950 . S
H1357 C1386 0.950 . S
H1358 C1388 0.950 . S
H1359 C1389 0.950 . S
C1360 H1342 0.951 . S
C1360 C1361 1.366 . S
C1360 C1362 1.388 . S
C1361 C1360 1.366 . S
C1361 C1365 1.385 . S
C1362 H1343 0.951 . S
C1362 C1360 1.388 . S
C1362 C1363 1.366 . S
C1363 C1362 1.366 . S
C1363 C1364 1.414 . S
C1363 C1366 1.499 . S
C1364 H1344 0.950 . S
C1364 C1363 1.414 . S
C1364 C1365 1.374 . S
C1365 H1345 0.950 . S
C1365 C1361 1.385 . S
C1365 C1364 1.374 . S
C1366 C1363 1.499 . S
C1366 C1367 1.373 . S
C1366 C1368 1.389 . S
C1367 H1346 0.950 . S
C1367 C1366 1.373 . S
C1367 C1383 1.377 . S
C1368 C1366 1.389 . S
C1368 C1369 1.524 . S
C1368 C1382 1.377 . S
C1369 C1368 1.524 . S
C1369 C1370 1.397 . S
C1369 C1374 1.363 . S
C1370 H1347 0.950 . S
C1370 C1369 1.397 . S
C1370 C1371 1.334 . S
C1371 H1348 0.950 . S
C1371 C1370 1.334 . S
C1371 C1372 1.287 . S
C1372 C1371 1.287 . S
C1372 C1373 1.524 . S
C1372 H1391 0.913 . S
C1373 H1349 0.950 . S
C1373 C1372 1.524 . S
C1373 C1374 1.415 . S
C1374 H1350 0.950 . S
C1374 C1369 1.363 . S
C1374 C1373 1.415 . S
C1375 H1351 0.951 . S
C1375 C1376 1.366 . S
C1375 C1377 1.388 . S
C1376 C1375 1.366 . S
C1376 C1380 1.385 . S
C1377 H1352 0.951 . S
C1377 C1375 1.388 . S
C1377 C1378 1.366 . S
C1378 C1377 1.366 . S
C1378 C1379 1.414 . S
C1378 C1381 1.499 . S
C1379 H1353 0.950 . S
C1379 C1378 1.414 . S
C1379 C1380 1.374 . S
C1380 H1354 0.950 . S
C1380 C1376 1.385 . S
C1380 C1379 1.374 . S
C1381 C1378 1.499 . S
C1381 C1382 1.373 . S
C1381 C1383 1.389 . S
C1382 H1355 0.950 . S
C1382 C1368 1.377 . S
C1382 C1381 1.373 . S
C1383 C1367 1.377 . S
C1383 C1381 1.389 . S
C1383 C1384 1.524 . S
C1384 C1383 1.524 . S
C1384 C1385 1.397 . S
C1384 C1389 1.363 . S
C1385 H1356 0.950 . S
C1385 C1384 1.397 . S
C1385 C1386 1.334 . S
C1386 H1357 0.950 . S
C1386 C1385 1.334 . S
C1386 C1387 1.287 . S
C1387 C1386 1.287 . S
C1387 C1388 1.524 . S
C1387 H1390 0.999 . S
C1388 H1358 0.950 . S
C1388 C1387 1.524 . S
C1388 C1389 1.415 . S
C1389 H1359 0.950 . S
C1389 C1384 1.363 . S
C1389 C1388 1.415 . S
H1390 C1387 0.999 . S
H1391 C1372 0.913 . S
H1392 C1410 0.951 . S
H1393 C1412 0.951 . S
H1394 C1414 0.950 . S
H1395 C1415 0.950 . S
H1396 C1417 0.950 . S
H1397 C1420 0.950 . S
H1398 C1421 0.950 . S
H1399 C1423 0.950 . S
H1400 C1424 0.950 . S
H1401 C1425 0.951 . S
H1402 C1427 0.951 . S
H1403 C1429 0.950 . S
H1404 C1430 0.950 . S
H1405 C1432 0.950 . S
H1406 C1435 0.950 . S
H1407 C1436 0.950 . S
H1408 C1438 0.950 . S
H1409 C1439 0.950 . S
C1410 H1392 0.951 . S
C1410 C1411 1.366 . S
C1410 C1412 1.388 . S
C1411 C1410 1.366 . S
C1411 C1415 1.385 . S
C1412 H1393 0.951 . S
C1412 C1410 1.388 . S
C1412 C1413 1.366 . S
C1413 C1412 1.366 . S
C1413 C1414 1.414 . S
C1413 C1416 1.499 . S
C1414 H1394 0.950 . S
C1414 C1413 1.414 . S
C1414 C1415 1.374 . S
C1415 H1395 0.950 . S
C1415 C1411 1.385 . S
C1415 C1414 1.374 . S
C1416 C1413 1.499 . S
C1416 C1417 1.373 . S
C1416 C1418 1.389 . S
C1417 H1396 0.950 . S
C1417 C1416 1.373 . S
C1417 C1433 1.377 . S
C1418 C1416 1.389 . S
C1418 C1419 1.524 . S
C1418 C1432 1.377 . S
C1419 C1418 1.524 . S
C1419 C1420 1.397 . S
C1419 C1424 1.363 . S
C1420 H1397 0.950 . S
C1420 C1419 1.397 . S
C1420 C1421 1.334 . S
C1421 H1398 0.950 . S
C1421 C1420 1.334 . S
C1421 C1422 1.287 . S
C1422 C1421 1.287 . S
C1422 C1423 1.524 . S
C1422 H1441 0.913 . S
C1423 H1399 0.950 . S
C1423 C1422 1.524 . S
C1423 C1424 1.415 . S
C1424 H1400 0.950 . S
C1424 C1419 1.363 . S
C1424 C1423 1.415 . S
C1425 H1401 0.951 . S
C1425 C1426 1.366 . S
C1425 C1427 1.388 . S
C1426 C1425 1.366 . S
C1426 C1430 1.385 . S
C1427 H1402 0.951 . S
C1427 C1425 1.388 . S
C1427 C1428 1.366 . S
C1428 C1427 1.366 . S
C1428 C1429 1.414 . S
C1428 C1431 1.499 . S
C1429 H1403 0.950 . S
C1429 C1428 1.414 . S
C1429 C1430 1.374 . S
C1430 H1404 0.950 . S
C1430 C1426 1.385 . S
C1430 C1429 1.374 . S
C1431 C1428 1.499 . S
C1431 C1432 1.373 . S
C1431 C1433 1.389 . S
C1432 H1405 0.950 . S
C1432 C1418 1.377 . S
C1432 C1431 1.373 . S
C1433 C1417 1.377 . S
C1433 C1431 1.389 . S
C1433 C1434 1.524 . S
C1434 C1433 1.524 . S
C1434 C1435 1.397 . S
C1434 C1439 1.363 . S
C1435 H1406 0.950 . S
C1435 C1434 1.397 . S
C1435 C1436 1.334 . S
C1436 H1407 0.950 . S
C1436 C1435 1.334 . S
C1436 C1437 1.287 . S
C1437 C1436 1.287 . S
C1437 C1438 1.524 . S
C1437 H1440 0.999 . S
C1438 H1408 0.950 . S
C1438 C1437 1.524 . S
C1438 C1439 1.415 . S
C1439 H1409 0.950 . S
C1439 C1434 1.363 . S
C1439 C1438 1.415 . S
H1440 C1437 0.999 . S
H1441 C1422 0.913 . S
H1442 C1460 0.951 . S
H1443 C1462 0.951 . S
H1444 C1464 0.950 . S
H1445 C1465 0.950 . S
H1446 C1467 0.950 . S
H1447 C1470 0.950 . S
H1448 C1471 0.950 . S
H1449 C1473 0.950 . S
H1450 C1474 0.950 . S
H1451 C1475 0.951 . S
H1452 C1477 0.951 . S
H1453 C1479 0.950 . S
H1454 C1480 0.950 . S
H1455 C1482 0.950 . S
H1456 C1485 0.950 . S
H1457 C1486 0.950 . S
H1458 C1488 0.950 . S
H1459 C1489 0.950 . S
C1460 H1442 0.951 . S
C1460 C1461 1.366 . S
C1460 C1462 1.388 . S
C1461 C1460 1.366 . S
C1461 C1465 1.385 . S
C1462 H1443 0.951 . S
C1462 C1460 1.388 . S
C1462 C1463 1.366 . S
C1463 C1462 1.366 . S
C1463 C1464 1.414 . S
C1463 C1466 1.499 . S
C1464 H1444 0.950 . S
C1464 C1463 1.414 . S
C1464 C1465 1.374 . S
C1465 H1445 0.950 . S
C1465 C1461 1.385 . S
C1465 C1464 1.374 . S
C1466 C1463 1.499 . S
C1466 C1467 1.373 . S
C1466 C1468 1.389 . S
C1467 H1446 0.950 . S
C1467 C1466 1.373 . S
C1467 C1483 1.377 . S
C1468 C1466 1.389 . S
C1468 C1469 1.524 . S
C1468 C1482 1.377 . S
C1469 C1468 1.524 . S
C1469 C1470 1.397 . S
C1469 C1474 1.363 . S
C1470 H1447 0.950 . S
C1470 C1469 1.397 . S
C1470 C1471 1.334 . S
C1471 H1448 0.950 . S
C1471 C1470 1.334 . S
C1471 C1472 1.287 . S
C1472 C1471 1.287 . S
C1472 C1473 1.524 . S
C1472 H1491 0.913 . S
C1473 H1449 0.950 . S
C1473 C1472 1.524 . S
C1473 C1474 1.415 . S
C1474 H1450 0.950 . S
C1474 C1469 1.363 . S
C1474 C1473 1.415 . S
C1475 H1451 0.951 . S
C1475 C1476 1.366 . S
C1475 C1477 1.388 . S
C1476 C1475 1.366 . S
C1476 C1480 1.385 . S
C1477 H1452 0.951 . S
C1477 C1475 1.388 . S
C1477 C1478 1.366 . S
C1478 C1477 1.366 . S
C1478 C1479 1.414 . S
C1478 C1481 1.499 . S
C1479 H1453 0.950 . S
C1479 C1478 1.414 . S
C1479 C1480 1.374 . S
C1480 H1454 0.950 . S
C1480 C1476 1.385 . S
C1480 C1479 1.374 . S
C1481 C1478 1.499 . S
C1481 C1482 1.373 . S
C1481 C1483 1.389 . S
C1482 H1455 0.950 . S
C1482 C1468 1.377 . S
C1482 C1481 1.373 . S
C1483 C1467 1.377 . S
C1483 C1481 1.389 . S
C1483 C1484 1.524 . S
C1484 C1483 1.524 . S
C1484 C1485 1.397 . S
C1484 C1489 1.363 . S
C1485 H1456 0.950 . S
C1485 C1484 1.397 . S
C1485 C1486 1.334 . S
C1486 H1457 0.950 . S
C1486 C1485 1.334 . S
C1486 C1487 1.287 . S
C1487 C1486 1.287 . S
C1487 C1488 1.524 . S
C1487 H1490 0.999 . S
C1488 H1458 0.950 . S
C1488 C1487 1.524 . S
C1488 C1489 1.415 . S
C1489 H1459 0.950 . S
C1489 C1484 1.363 . S
C1489 C1488 1.415 . S
H1490 C1487 0.999 . S
H1491 C1472 0.913 . S
H1492 C1510 0.951 . S
H1493 C1512 0.951 . S
H1494 C1514 0.950 . S
H1495 C1515 0.950 . S
H1496 C1517 0.950 . S
H1497 C1520 0.950 . S
H1498 C1521 0.950 . S
H1499 C1523 0.950 . S
H1500 C1524 0.950 . S
H1501 C1525 0.951 . S
H1502 C1527 0.951 . S
H1503 C1529 0.950 . S
H1504 C1530 0.950 . S
H1505 C1532 0.950 . S
H1506 C1535 0.950 . S
H1507 C1536 0.950 . S
H1508 C1538 0.950 . S
H1509 C1539 0.950 . S
C1510 H1492 0.951 . S
C1510 C1511 1.366 . S
C1510 C1512 1.388 . S
C1511 C1510 1.366 . S
C1511 C1515 1.385 . S
C1512 H1493 0.951 . S
C1512 C1510 1.388 . S
C1512 C1513 1.366 . S
C1513 C1512 1.366 . S
C1513 C1514 1.414 . S
C1513 C1516 1.499 . S
C1514 H1494 0.950 . S
C1514 C1513 1.414 . S
C1514 C1515 1.374 . S
C1515 H1495 0.950 . S
C1515 C1511 1.385 . S
C1515 C1514 1.374 . S
C1516 C1513 1.499 . S
C1516 C1517 1.373 . S
C1516 C1518 1.389 . S
C1517 H1496 0.950 . S
C1517 C1516 1.373 . S
C1517 C1533 1.377 . S
C1518 C1516 1.389 . S
C1518 C1519 1.524 . S
C1518 C1532 1.377 . S
C1519 C1518 1.524 . S
C1519 C1520 1.397 . S
C1519 C1524 1.363 . S
C1520 H1497 0.950 . S
C1520 C1519 1.397 . S
C1520 C1521 1.334 . S
C1521 H1498 0.950 . S
C1521 C1520 1.334 . S
C1521 C1522 1.287 . S
C1522 C1521 1.287 . S
C1522 C1523 1.524 . S
C1522 H1541 0.913 . S
C1523 H1499 0.950 . S
C1523 C1522 1.524 . S
C1523 C1524 1.415 . S
C1524 H1500 0.950 . S
C1524 C1519 1.363 . S
C1524 C1523 1.415 . S
C1525 H1501 0.951 . S
C1525 C1526 1.366 . S
C1525 C1527 1.388 . S
C1526 C1525 1.366 . S
C1526 C1530 1.385 . S
C1527 H1502 0.951 . S
C1527 C1525 1.388 . S
C1527 C1528 1.366 . S
C1528 C1527 1.366 . S
C1528 C1529 1.414 . S
C1528 C1531 1.499 . S
C1529 H1503 0.950 . S
C1529 C1528 1.414 . S
C1529 C1530 1.374 . S
C1530 H1504 0.950 . S
C1530 C1526 1.385 . S
C1530 C1529 1.374 . S
C1531 C1528 1.499 . S
C1531 C1532 1.373 . S
C1531 C1533 1.389 . S
C1532 H1505 0.950 . S
C1532 C1518 1.377 . S
C1532 C1531 1.373 . S
C1533 C1517 1.377 . S
C1533 C1531 1.389 . S
C1533 C1534 1.524 . S
C1534 C1533 1.524 . S
C1534 C1535 1.397 . S
C1534 C1539 1.363 . S
C1535 H1506 0.950 . S
C1535 C1534 1.397 . S
C1535 C1536 1.334 . S
C1536 H1507 0.950 . S
C1536 C1535 1.334 . S
C1536 C1537 1.287 . S
C1537 C1536 1.287 . S
C1537 C1538 1.524 . S
C1537 H1540 0.999 . S
C1538 H1508 0.950 . S
C1538 C1537 1.524 . S
C1538 C1539 1.415 . S
C1539 H1509 0.950 . S
C1539 C1534 1.363 . S
C1539 C1538 1.415 . S
H1540 C1537 0.999 . S
H1541 C1522 0.913 . S
H1542 C1560 0.951 . S
H1543 C1562 0.951 . S
H1544 C1564 0.950 . S
H1545 C1565 0.950 . S
H1546 C1567 0.950 . S
H1547 C1570 0.950 . S
H1548 C1571 0.950 . S
H1549 C1573 0.950 . S
H1550 C1574 0.950 . S
H1551 C1575 0.951 . S
H1552 C1577 0.951 . S
H1553 C1579 0.950 . S
H1554 C1580 0.950 . S
H1555 C1582 0.950 . S
H1556 C1585 0.950 . S
H1557 C1586 0.950 . S
H1558 C1588 0.950 . S
H1559 C1589 0.950 . S
C1560 H1542 0.951 . S
C1560 C1561 1.366 . S
C1560 C1562 1.388 . S
C1561 C1560 1.366 . S
C1561 C1565 1.385 . S
C1562 H1543 0.951 . S
C1562 C1560 1.388 . S
C1562 C1563 1.366 . S
C1563 C1562 1.366 . S
C1563 C1564 1.414 . S
C1563 C1566 1.499 . S
C1564 H1544 0.950 . S
C1564 C1563 1.414 . S
C1564 C1565 1.374 . S
C1565 H1545 0.950 . S
C1565 C1561 1.385 . S
C1565 C1564 1.374 . S
C1566 C1563 1.499 . S
C1566 C1567 1.373 . S
C1566 C1568 1.389 . S
C1567 H1546 0.950 . S
C1567 C1566 1.373 . S
C1567 C1583 1.377 . S
C1568 C1566 1.389 . S
C1568 C1569 1.524 . S
C1568 C1582 1.377 . S
C1569 C1568 1.524 . S
C1569 C1570 1.397 . S
C1569 C1574 1.363 . S
C1570 H1547 0.950 . S
C1570 C1569 1.397 . S
C1570 C1571 1.334 . S
C1571 H1548 0.950 . S
C1571 C1570 1.334 . S
C1571 C1572 1.287 . S
C1572 C1571 1.287 . S
C1572 C1573 1.524 . S
C1572 H1591 0.913 . S
C1573 H1549 0.950 . S
C1573 C1572 1.524 . S
C1573 C1574 1.415 . S
C1574 H1550 0.950 . S
C1574 C1569 1.363 . S
C1574 C1573 1.415 . S
C1575 H1551 0.951 . S
C1575 C1576 1.366 . S
C1575 C1577 1.388 . S
C1576 C1575 1.366 . S
C1576 C1580 1.385 . S
C1577 H1552 0.951 . S
C1577 C1575 1.388 . S
C1577 C1578 1.366 . S
C1578 C1577 1.366 . S
C1578 C1579 1.414 . S
C1578 C1581 1.499 . S
C1579 H1553 0.950 . S
C1579 C1578 1.414 . S
C1579 C1580 1.374 . S
C1580 H1554 0.950 . S
C1580 C1576 1.385 . S
C1580 C1579 1.374 . S
C1581 C1578 1.499 . S
C1581 C1582 1.373 . S
C1581 C1583 1.389 . S
C1582 H1555 0.950 . S
C1582 C1568 1.377 . S
C1582 C1581 1.373 . S
C1583 C1567 1.377 . S
C1583 C1581 1.389 . S
C1583 C1584 1.524 . S
C1584 C1583 1.524 . S
C1584 C1585 1.397 . S
C1584 C1589 1.363 . S
C1585 H1556 0.950 . S
C1585 C1584 1.397 . S
C1585 C1586 1.334 . S
C1586 H1557 0.950 . S
C1586 C1585 1.334 . S
C1586 C1587 1.287 . S
C1587 C1586 1.287 . S
C1587 C1588 1.524 . S
C1587 H1590 0.999 . S
C1588 H1558 0.950 . S
C1588 C1587 1.524 . S
C1588 C1589 1.415 . S
C1589 H1559 0.950 . S
C1589 C1584 1.363 . S
C1589 C1588 1.415 . S
H1590 C1587 0.999 . S
H1591 C1572 0.913 . S
C411 C45 1.633 . S
C426 C129 1.654 . S
C461 C30 1.633 . S
C476 C165 1.659 . S
C511 C39 1.633 . S
C526 C201 1.623 . S
C576 C237 1.620 . S
C561 C34 1.631 . S
C611 C97 1.633 . S
C626 C273 1.657 . S
C676 C309 1.657 . S
C661 C82 1.633 . S
C726 C345 1.620 . S
C711 C91 1.633 . S
C776 C381 1.620 . S
C761 C86 1.633 . S
C826 C321 1.507 . S
C811 C26 1.472 . S
C876 C357 1.507 . S
C861 C36 1.476 . S
C926 C279 1.533 . S
C911 C32 1.479 . S
C976 C315 1.533 . S
C961 C42 1.476 . S
C1011 C18 1.561 . S
C1026 C285 1.635 . S
C1076 C351 1.600 . S
C1061 C50 1.563 . S
C1111 C4 1.564 . S
C1126 C387 1.602 . S
C1161 C48 1.561 . S
C1176 C249 1.638 . S
C1226 C177 1.507 . S
C1211 C78 1.474 . S
C1261 C88 1.474 . S
C1276 C213 1.507 . S
C1326 C135 1.533 . S
C1311 C84 1.477 . S
C1376 C171 1.533 . S
C1361 C94 1.477 . S
C1426 C141 1.637 . S
C1411 C70 1.561 . S
C1476 C207 1.600 . S
C1461 C102 1.564 . S
C1511 C56 1.564 . S
C1526 C243 1.601 . S
C1561 C100 1.562 . S
C1576 C105 1.637 . S
