# Generated by pormake.
# Topology zzz, (3,6)-cn, num edge types: 1
# Building blocks:
#     Node 0, Type 0, BuildingBlock: BETDIP_clean_linker_0, # of connection points: 3
#     Node 1, Type 0, BuildingBlock: BETDIP_clean_linker_0, # of connection points: 3
#     Node 2, Type 0, BuildingBlock: BETDIP_clean_linker_0, # of connection points: 3
#     Node 3, Type 0, BuildingBlock: BETDIP_clean_linker_0, # of connection points: 3
#     Node 4, Type 0, BuildingBlock: BETDIP_clean_linker_0, # of connection points: 3
#     Node 5, Type 0, BuildingBlock: BETDIP_clean_linker_0, # of connection points: 3
#     Node 6, Type 0, BuildingBlock: BETDIP_clean_linker_0, # of connection points: 3
#     Node 7, Type 0, BuildingBlock: BETDIP_clean_linker_0, # of connection points: 3
#     Node 8, Type 1, BuildingBlock: NUHQIS_clean_sbu_0, # of connection points: 6
#     Node 9, Type 1, BuildingBlock: NUHQIS_clean_sbu_0, # of connection points: 6
#     Node 10, Type 1, BuildingBlock: NUHQIS_clean_sbu_0, # of connection points: 6
#     Node 11, Type 1, BuildingBlock: NUHQIS_clean_sbu_0, # of connection points: 6
#     Edge 12, Type (0, 1), BuildingBlock: AJUNOK_clean_linker_0, # of connection points: 2
#     Edge 13, Type (0, 1), BuildingBlock: AJUNOK_clean_linker_0, # of connection points: 2
#     Edge 14, Type (0, 1), BuildingBlock: AJUNOK_clean_linker_0, # of connection points: 2
#     Edge 15, Type (0, 1), BuildingBlock: AJUNOK_clean_linker_0, # of connection points: 2
#     Edge 16, Type (0, 1), BuildingBlock: AJUNOK_clean_linker_0, # of connection points: 2
#     Edge 17, Type (0, 1), BuildingBlock: AJUNOK_clean_linker_0, # of connection points: 2
#     Edge 18, Type (0, 1), BuildingBlock: AJUNOK_clean_linker_0, # of connection points: 2
#     Edge 19, Type (0, 1), BuildingBlock: AJUNOK_clean_linker_0, # of connection points: 2
#     Edge 20, Type (0, 1), BuildingBlock: AJUNOK_clean_linker_0, # of connection points: 2
#     Edge 21, Type (0, 1), BuildingBlock: AJUNOK_clean_linker_0, # of connection points: 2
#     Edge 22, Type (0, 1), BuildingBlock: AJUNOK_clean_linker_0, # of connection points: 2
#     Edge 23, Type (0, 1), BuildingBlock: AJUNOK_clean_linker_0, # of connection points: 2
#     Edge 24, Type (0, 1), BuildingBlock: AJUNOK_clean_linker_0, # of connection points: 2
#     Edge 25, Type (0, 1), BuildingBlock: AJUNOK_clean_linker_0, # of connection points: 2
#     Edge 26, Type (0, 1), BuildingBlock: AJUNOK_clean_linker_0, # of connection points: 2
#     Edge 27, Type (0, 1), BuildingBlock: AJUNOK_clean_linker_0, # of connection points: 2
#     Edge 28, Type (0, 1), BuildingBlock: AJUNOK_clean_linker_0, # of connection points: 2
#     Edge 29, Type (0, 1), BuildingBlock: AJUNOK_clean_linker_0, # of connection points: 2
#     Edge 30, Type (0, 1), BuildingBlock: AJUNOK_clean_linker_0, # of connection points: 2
#     Edge 31, Type (0, 1), BuildingBlock: AJUNOK_clean_linker_0, # of connection points: 2
#     Edge 32, Type (0, 1), BuildingBlock: AJUNOK_clean_linker_0, # of connection points: 2
#     Edge 33, Type (0, 1), BuildingBlock: AJUNOK_clean_linker_0, # of connection points: 2
#     Edge 34, Type (0, 1), BuildingBlock: AJUNOK_clean_linker_0, # of connection points: 2
#     Edge 35, Type (0, 1), BuildingBlock: AJUNOK_clean_linker_0, # of connection points: 2
# Relax obj value: 0.342
# Max RMSD: 0.178
# Mean RMSD: 0.137
data_MOF--net-zzz--node1-NUHQIS_clean_sbu_0--node2-BETDIP_clean_linker_0--edge1-AJUNOK_clean_linker_0
_symmetry_space_group_name_H-M    P1
_symmetry_Int_Tables_number       1
_symmetry_cell_setting            triclinic
loop_
_symmetry_equiv_pos_as_xyz
'x, y, z'
_cell_length_a     37.798188
_cell_length_b     37.770788
_cell_length_c     10.286522
_cell_angle_alpha  89.369667
_cell_angle_beta   90.070927
_cell_angle_gamma 89.474016
loop_
_atom_site_label
_atom_site_type_symbol
_atom_site_fract_x
_atom_site_fract_y
_atom_site_fract_z
_atom_type_partial_charge
H0 H 0.77551 0.55219 0.52526 0.0
H1 H 0.74111 0.45124 0.3821 0.0
H2 H 0.84016 0.45989 0.58404 0.0
H3 H 0.73933 0.49494 0.19849 0.0
C4 C 0.71843 0.50935 0.24835 0.0
C5 C 0.77888 0.52376 0.51934 0.0
C6 C 0.80951 0.50727 0.57304 0.0
C7 C 0.75386 0.50343 0.45015 0.0
C8 C 0.75973 0.46672 0.43741 0.0
C9 C 0.79131 0.45068 0.48069 0.0
C10 C 0.81487 0.471 0.5542 0.0
N11 N 0.72536 0.51994 0.37907 0.0
H12 H 1.00805 0.78874 0.53221 0.0
H13 H 0.10501 0.75512 0.34639 0.0
H14 H 0.10266 0.84951 0.5739 0.0
H15 H 0.05866 0.7517 0.18226 0.0
C16 C 0.04503 0.73144 0.23835 0.0
C17 C 0.03616 0.7918 0.51593 0.0
C18 C 0.05407 0.82112 0.56938 0.0
C19 C 0.05459 0.76743 0.43568 0.0
C20 C 0.09085 0.77278 0.41081 0.0
C21 C 0.10833 0.80242 0.4588 0.0
C22 C 0.08997 0.82551 0.54138 0.0
N23 N 0.03653 0.73947 0.37045 0.0
H24 H 0.76615 1.02505 0.59093 0.0
H25 H 0.80705 0.09305 0.28656 0.0
H26 H 0.70382 0.11158 0.43593 0.0
H27 H 0.8058 1.01985 0.22051 0.0
C28 C 0.82792 1.02204 0.28763 0.0
C29 C 0.76331 0.04819 0.5286 0.0
C30 C 0.73208 0.06935 0.53433 0.0
C31 C 0.79023 0.05631 0.43666 0.0
C32 C 0.78678 0.0867 0.35724 0.0
C33 C 0.7565 0.10782 0.36382 0.0
C34 C 0.72894 0.09777 0.44623 0.0
N35 N 0.8197 1.03316 0.41636 0.0
H36 H 0.53239 0.77002 0.5565 0.0
H37 H 0.59801 0.82916 0.29384 0.0
H38 H 0.63513 0.73211 0.42926 0.0
H39 H 0.57901 0.87486 0.50829 0.0
C40 C 0.55634 0.87036 0.44562 0.0
C41 C 0.557 0.77218 0.50379 0.0
C42 C 0.58119 0.74273 0.49633 0.0
C43 C 0.56532 0.8051 0.44117 0.0
C44 C 0.59446 0.80622 0.35649 0.0
C45 C 0.61114 0.77454 0.32358 0.0
C46 C 0.6124 0.74943 0.42497 0.0
N47 N 0.54227 0.83529 0.44548 0.0
H48 H 0.26399 0.52132 0.15511 0.0
H49 H 0.29326 0.61798 0.34757 0.0
H50 H 0.19649 0.61328 0.13159 0.0
H51 H 0.34897 0.59833 0.26461 0.0
C52 C 0.34801 0.57255 0.31223 0.0
C53 C 0.25903 0.54893 0.17637 0.0
C54 C 0.22753 0.56568 0.13075 0.0
C55 C 0.2842 0.56833 0.24926 0.0
C56 C 0.27609 0.60367 0.2826 0.0
C57 C 0.24484 0.6201 0.23906 0.0
C58 C 0.22149 0.60119 0.1606 0.0
N59 N 0.31659 0.55215 0.29452 0.0
H60 H 0.03881 0.27448 0.15599 0.0
H61 H 0.93824 0.31017 0.30721 0.0
H62 H 0.94669 0.21083 0.11051 0.0
H63 H 0.97815 0.3211 0.47794 0.0
C64 C 0.99538 0.33835 0.42176 0.0
C65 C 1.01049 0.27132 0.16605 0.0
C66 C 0.994 0.24072 0.11661 0.0
C67 C 0.9904 0.29678 0.23559 0.0
C68 C 0.9538 0.29129 0.25265 0.0
C69 C 0.93759 0.26018 0.21028 0.0
C70 C 0.95787 0.23596 0.13835 0.0
N71 N 1.00717 0.32614 0.29752 0.0
H72 H 0.28331 0.04359 0.17845 0.0
H73 H 0.25838 0.95094 0.40981 0.0
H74 H 0.35376 0.95368 0.18802 0.0
H75 H 0.20318 0.96645 0.3649 0.0
C76 C 0.20342 0.99481 0.37995 0.0
C77 C 0.28913 1.01665 0.20928 0.0
C78 C 0.32103 1.00004 0.16944 0.0
C79 C 0.26493 0.99828 0.29042 0.0
C80 C 0.27435 0.96419 0.33725 0.0
C81 C 0.30588 0.94779 0.29896 0.0
C82 C 0.32835 0.96549 0.21229 0.0
N83 N 0.23267 1.01491 0.33227 0.0
H84 H 0.48598 0.29756 0.1648 0.0
H85 H 0.58005 0.24478 0.30853 0.0
H86 H 0.58785 0.34222 0.09006 0.0
H87 H 0.52638 0.1938 0.2064 0.0
C88 C 0.51744 0.20422 0.29886 0.0
C89 C 0.51455 0.2957 0.17047 0.0
C90 C 0.53558 0.32212 0.11094 0.0
C91 C 0.53076 0.26681 0.23789 0.0
C92 C 0.56781 0.26563 0.25034 0.0
C93 C 0.58862 0.29334 0.20165 0.0
C94 C 0.57229 0.32027 0.12663 0.0
N95 N 0.51014 0.24129 0.30694 0.0
Tb96 Tb 0.04501 1.01845 0.98885 0.0
Eu97 Eu 0.99826 0.04063 0.73224 0.0
C98 C 0.08279 1.02778 0.70822 0.0
C99 C 1.02705 0.10031 0.92703 0.0
C100 C 0.10928 0.97645 0.21678 0.0
C101 C 0.15328 0.93341 0.14608 0.0
C102 C 0.13166 0.96296 0.11976 0.0
C103 C 0.1102 0.96152 0.34147 0.0
C104 C 0.1317 0.93224 0.36789 0.0
C105 C 0.15267 0.91705 0.26953 0.0
C106 C 0.08153 1.00264 0.18686 0.0
O107 O 0.98963 1.01003 0.04459 0.0
O108 O 0.96572 0.05178 0.91021 0.0
O109 O 0.99904 0.98038 0.73553 0.0
O110 O 0.04418 0.96898 0.88061 0.0
C111 C 0.96313 1.03109 1.01231 0.0
O112 O 0.94504 0.03978 0.64849 0.0
O113 O 0.98833 0.0627 0.53925 0.0
O114 O 0.05261 1.03312 0.6473 0.0
O115 O 0.08491 1.02335 0.83536 0.0
O116 O 1.03254 0.07485 1.01348 0.0
O117 O 1.01897 0.09293 0.80579 0.0
C118 C 1.02172 0.9583 0.79153 0.0
O119 O 0.08951 1.02802 0.1055 0.0
O120 O 0.05059 0.98937 0.16241 0.0
C121 C 0.93314 0.0921 0.52976 0.0
C122 C 0.89558 0.15546 0.47666 0.0
C123 C 0.87945 0.1225 0.45765 0.0
C124 C 0.89817 0.091 0.48406 0.0
C125 C 0.94818 0.12485 0.55819 0.0
C126 C 0.92978 0.15607 0.53138 0.0
C127 C 0.95405 0.05943 0.54918 0.0
H128 H 0.1686 0.92193 0.06794 0.0
H129 H 0.1309 0.97393 1.02203 0.0
H130 H 0.09274 0.97128 0.4168 0.0
H131 H 0.12952 0.91985 0.46296 0.0
H132 H 0.85298 0.1211 0.41848 0.0
H133 H 0.88568 0.06588 0.46634 0.0
H134 H 0.9748 0.12649 0.59678 0.0
H135 H 0.94353 0.18073 0.54622 0.0
Tb136 Tb 0.53501 0.0663 0.99029 0.0
Eu137 Eu 0.52055 1.00881 0.76425 0.0
C138 C 0.51895 0.09335 0.70098 0.0
C139 C 0.45687 0.0373 0.94911 0.0
C140 C 0.5793 0.13675 0.17048 0.0
C141 C 0.62668 0.16757 0.05871 0.0
C142 C 0.59341 0.15171 0.05636 0.0
C143 C 0.59667 0.1417 0.28897 0.0
C144 C 0.63011 0.15698 0.29087 0.0
C145 C 0.64657 0.16743 0.17396 0.0
C146 C 0.55147 0.10999 0.16375 0.0
O147 O 0.55027 1.01387 0.06964 0.0
O148 O 0.51322 0.97931 0.95353 0.0
O149 O 0.58024 1.01392 0.77691 0.0
O150 O 0.58133 0.0691 0.86457 0.0
C151 C 0.53303 0.98397 0.05607 0.0
O152 O 0.52877 0.9551 0.69304 0.0
O153 O 0.50034 0.99391 0.57486 0.0
O154 O 0.52438 0.06123 0.65663 0.0
O155 O 0.51719 0.09958 0.82648 0.0
O156 O 0.48075 0.04978 0.02959 0.0
O157 O 0.46582 1.0248 0.83437 0.0
C158 C 0.59696 0.04348 0.80043 0.0
O159 O 0.5261 0.11541 0.0799 0.0
O160 O 0.56328 0.07758 0.16 0.0
C161 C 0.48164 0.93521 0.56058 0.0
C162 C 0.42 0.89685 0.5069 0.0
C163 C 0.43697 0.91651 0.40853 0.0
C164 C 0.46715 0.93574 0.43571 0.0
C165 C 0.46642 0.91367 0.65757 0.0
C166 C 0.43561 0.8947 0.63091 0.0
C167 C 0.50955 0.96073 0.58929 0.0
H168 H 0.63842 0.17648 0.96851 0.0
H169 H 0.5803 0.14828 0.96383 0.0
H170 H 0.5861 0.13048 0.37811 0.0
H171 H 0.64465 0.15655 0.38173 0.0
H172 H 0.42507 0.91999 0.31331 0.0
H173 H 0.47789 0.95294 0.36093 0.0
H174 H 0.47693 0.91324 0.75559 0.0
H175 H 0.42262 0.88045 0.70909 0.0
Tb176 Tb 0.50929 0.54465 0.89072 0.0
Eu177 Eu 0.55534 0.51444 0.65378 0.0
C178 C 0.4731 0.53338 0.62484 0.0
C179 C 0.51827 0.46049 0.86328 0.0
C180 C 0.49065 0.61367 0.103 0.0
C181 C 0.50431 0.67254 1.01915 0.0
C182 C 0.48311 0.64246 1.01889 0.0
C183 C 0.517 0.61756 0.19784 0.0
C184 C 0.53791 0.64773 0.19855 0.0
C185 C 0.53317 0.67467 0.10457 0.0
C186 C 0.47913 0.5777 0.06809 0.0
O187 O 0.56535 0.54778 0.95035 0.0
O188 O 0.58558 0.50086 0.83556 0.0
O189 O 0.57088 0.57153 0.67434 0.0
O190 O 0.52072 0.5918 0.76982 0.0
C191 C 0.58885 0.52223 0.9341 0.0
O192 O 0.6056 0.51423 0.55061 0.0
O193 O 0.56068 0.48641 0.4702 0.0
O194 O 0.50441 0.5379 0.57254 0.0
O195 O 0.47054 0.52566 0.74927 0.0
O196 O 0.50961 0.48777 0.93634 0.0
O197 O 0.53217 0.46484 0.7464 0.0
C198 C 0.54955 0.59785 0.70231 0.0
O199 O 0.46544 0.57472 0.95237 0.0
O200 O 0.50231 0.55258 0.09118 0.0
C201 C 0.61757 0.46332 0.42533 0.0
C202 C 0.6526 0.39943 0.36559 0.0
C203 C 0.6591 0.41621 0.48458 0.0
C204 C 0.64144 0.44785 0.51479 0.0
C205 C 0.61387 0.44855 0.30223 0.0
C206 C 0.63116 0.41701 0.27248 0.0
C207 C 0.59443 0.49323 0.45984 0.0
H208 H 0.49932 0.69289 0.94656 0.0
H209 H 0.46282 0.64059 0.94489 0.0
H210 H 0.52324 0.59618 0.26544 0.0
H211 H 0.55867 0.64934 0.27012 0.0
H212 H 0.67587 0.40372 0.55749 0.0
H213 H 0.64508 0.45913 0.61018 0.0
H214 H 0.59588 0.46031 0.23148 0.0
H215 H 0.62508 0.40491 0.18021 0.0
Tb216 Tb 1.01036 0.51478 0.94742 0.0
Eu217 Eu 1.03254 0.55793 0.68246 0.0
C218 C 1.01835 0.47496 0.67771 0.0
C219 C 0.09178 0.53441 0.89595 0.0
C220 C 0.95929 0.45464 0.15567 0.0
C221 C 0.93064 0.39948 0.21781 0.0
C222 C 0.96138 0.41851 0.18917 0.0
C223 C 0.92595 0.47085 0.1429 0.0
C224 C 0.89546 0.45197 0.17045 0.0
C225 C 0.89737 0.41628 0.21112 0.0
C226 C 0.99163 0.47536 0.13341 0.0
O227 O 1.02206 0.56706 0.026 0.0
O228 O 1.02549 0.59981 0.83603 0.0
O229 O 0.97456 0.54493 0.66095 0.0
O230 O 0.95947 0.5356 0.87403 0.0
C231 C 1.02504 0.59753 0.96385 0.0
O232 O 1.02114 0.60186 0.54885 0.0
O233 O 0.06346 0.56468 0.5054 0.0
O234 O 0.03925 0.49989 0.63375 0.0
O235 O 0.99946 0.48015 0.78309 0.0
O236 O 0.06853 0.51261 0.94801 0.0
O237 O 0.08299 0.55643 0.80096 0.0
C238 C 0.95038 0.54132 0.75164 0.0
O239 O 1.01201 0.46466 0.03936 0.0
O240 O 0.98773 0.50973 0.13224 0.0
C241 C 0.07168 0.62364 0.43992 0.0
C242 C 0.12858 0.66927 0.39089 0.0
C243 C 0.11644 0.64616 0.29414 0.0
C244 C 0.0886 0.62326 0.3193 0.0
C245 C 0.08115 0.64911 0.53194 0.0
C246 C 0.10958 0.67175 0.50775 0.0
C247 C 0.04785 0.59448 0.47328 0.0
H248 H 0.93292 0.37206 0.24809 0.0
H249 H 0.98676 0.4052 0.19498 0.0
H250 H 0.92329 0.49848 0.11499 0.0
H251 H 0.87041 0.46612 0.16654 0.0
H252 H 0.13081 0.64293 0.2039 0.0
H253 H 0.08181 0.60365 0.2475 0.0
H254 H 0.0682 0.6498 0.62558 0.0
H255 H 0.11859 0.689 0.58413 0.0
C256 C 0.16981 0.9894 0.58648 0.0
C257 C 0.17639 1.00869 0.47139 0.0
C258 C 0.14047 0.99702 0.66536 0.0
C259 C 0.11573 1.0235 0.63004 0.0
H260 H 0.18696 0.96738 0.61368 0.0
H261 H 0.13618 0.98078 0.75127 0.0
S262 S 0.12139 0.08235 0.33951 0.0
N263 N 0.15671 0.05643 0.3285 0.0
N264 N 0.10062 0.07002 0.47367 0.0
C265 C 0.1224 0.04355 0.51635 0.0
C266 C 0.15298 0.03638 0.4379 0.0
C267 C 0.50104 0.14431 0.38416 0.0
C268 C 0.51297 0.17872 0.4097 0.0
C269 C 0.50248 0.11722 0.47913 0.0
C270 C 0.51532 0.12347 0.60539 0.0
H271 H 0.49107 0.13807 0.28854 0.0
H272 H 0.49373 0.09103 0.45272 0.0
S273 S 0.54866 0.20959 0.72421 0.0
N274 N 0.53739 0.21789 0.57154 0.0
N275 N 0.53917 0.16754 0.75156 0.0
C276 C 0.52589 0.15831 0.63412 0.0
C277 C 0.52484 0.18581 0.53628 0.0
C278 C 0.38158 0.52894 0.4614 0.0
C279 C 0.3795 0.56149 0.39296 0.0
C280 C 0.41161 0.51988 0.53817 0.0
C281 C 0.44081 0.54278 0.54735 0.0
H282 H 0.35993 0.51043 0.4561 0.0
H283 H 0.41221 0.49462 0.58899 0.0
S284 S 0.44701 0.63243 0.39945 0.0
N285 N 0.40853 0.61754 0.34865 0.0
N286 N 0.46445 0.60022 0.48908 0.0
C287 C 0.4387 0.57542 0.48113 0.0
C288 C 0.40823 0.58482 0.40509 0.0
C289 C 0.98413 0.38336 0.59151 0.0
C290 C 1.00302 0.37379 0.47926 0.0
C291 C 0.98936 0.41583 0.6531 0.0
C292 C 1.01387 0.44076 0.60596 0.0
H293 H 0.96482 0.36544 0.63286 0.0
H294 H 0.97382 0.42126 0.73912 0.0
S295 S 0.0705 0.42889 0.31388 0.0
N296 N 0.04775 0.39181 0.32327 0.0
N297 N 0.05729 0.45336 0.4372 0.0
C298 C 1.033 0.4317 0.49276 0.0
C299 C 1.02772 0.39818 0.4301 0.0
C300 C 0.89425 1.01159 0.27787 0.0
C301 C 0.86326 1.02736 0.2269 0.0
C302 C 0.92663 1.01326 0.20947 0.0
C303 C 0.92926 1.0311 0.08834 0.0
H304 H 0.89321 0.99694 0.36886 0.0
H305 H 0.94963 1.00009 0.2511 0.0
S306 S 0.85564 0.07909 0.91951 0.0
N307 N 0.83739 0.06265 0.05241 0.0
N308 N 0.89755 0.06658 0.92553 0.0
C309 C 0.89845 0.0481 0.03973 0.0
C310 C 0.86567 0.04596 0.10839 0.0
C311 C 0.5678 0.93006 0.34765 0.0
C312 C 0.54809 0.89855 0.34559 0.0
C313 C 0.56257 0.95733 0.25511 0.0
C314 C 0.5374 0.9545 0.15479 0.0
H315 H 0.58777 0.93371 0.42183 0.0
H316 H 0.57874 0.98075 0.2621 0.0
S317 S 0.47633 0.8788 0.11152 0.0
N318 N 0.50069 0.86707 0.23863 0.0
N319 N 0.49094 0.91791 0.06397 0.0
C320 C 0.51703 0.92324 0.15237 0.0
C321 C 0.52234 0.89542 0.24753 0.0
C322 C 0.65844 0.53885 0.20145 0.0
C323 C 0.68331 0.51145 0.18108 0.0
C324 C 0.62759 0.54206 0.12332 0.0
C325 C 0.62036 0.51782 1.02285 0.0
H326 H 0.66343 0.55858 0.27467 0.0
H327 H 0.60969 0.56409 0.14018 0.0
S328 S 0.67523 0.43849 0.94434 0.0
N329 N 0.6971 0.45805 0.06186 0.0
N330 N 0.63975 0.46333 0.91859 0.0
C331 C 0.64441 0.48934 1.00727 0.0
C332 C 0.67564 0.48639 0.08531 0.0
C333 C 1.01682 0.67025 0.22212 0.0
C334 C 0.04028 0.69624 0.17525 0.0
C335 C 1.01213 0.63798 0.15515 0.0
C336 C 1.03062 0.63076 0.03891 0.0
H337 H 1.00174 0.67498 0.30976 0.0
H338 H 0.99355 0.61887 0.19341 0.0
S339 S 0.09833 0.68816 0.88583 0.0
N340 N 0.0841 0.71104 1.01136 0.0
N341 N 0.07567 0.65104 0.88844 0.0
C342 C 0.05492 0.6561 0.99457 0.0
C343 C 0.05961 0.68861 0.06187 0.0
C344 C 0.90125 0.24988 0.40772 0.0
C345 C 0.90404 0.24752 0.2714 0.0
C346 C 0.88922 0.22094 0.48094 0.0
C347 C 0.8811 0.18892 0.41913 0.0
H348 H 0.91405 0.27096 0.4599 0.0
H349 H 0.89304 0.22134 0.58536 0.0
S350 S 0.86203 0.17954 0.06753 0.0
N351 N 0.87971 0.2192 0.08026 0.0
N352 N 0.86036 0.16317 0.21695 0.0
C353 C 0.87368 0.19063 0.28515 0.0
C354 C 0.88437 0.2208 0.2111 0.0
C355 C 0.32706 0.92154 0.50545 0.0
C356 C 0.32051 0.91699 0.37207 0.0
C357 C 0.35766 0.90716 0.56267 0.0
C358 C 0.38225 0.88832 0.48689 0.0
H359 H 0.31212 0.94096 0.55998 0.0
H360 H 0.36492 0.91637 0.6584 0.0
S361 S 0.36787 0.85557 0.15369 0.0
N362 N 0.33369 0.88203 0.18115 0.0
N363 N 0.39136 0.85489 0.28931 0.0
C364 C 0.37109 0.87622 0.36502 0.0
C365 C 0.34003 0.89088 0.30665 0.0
C366 C 0.64883 0.31839 0.17634 0.0
C367 C 0.62426 0.30073 0.25642 0.0
C368 C 0.6662 0.34851 0.22182 0.0
C369 C 0.65954 0.36091 0.34825 0.0
H370 H 0.64909 0.31351 0.07273 0.0
H371 H 0.6793 0.36546 0.15151 0.0
S372 S 0.61695 0.30968 0.6138 0.0
N373 N 0.60855 0.28719 0.48079 0.0
N374 N 0.64123 0.34356 0.56655 0.0
C375 C 0.64434 0.337 0.43741 0.0
C376 C 0.62664 0.30647 0.39098 0.0
C377 C 0.22181 0.65072 0.43057 0.0
C378 C 0.23113 0.65304 0.29851 0.0
C379 C 0.18939 0.66463 0.47298 0.0
C380 C 0.1659 0.68077 0.3834 0.0
H381 H 0.23593 0.63265 0.49515 0.0
H382 H 0.18017 0.65659 0.56844 0.0
S383 S 0.18754 0.70952 0.04864 0.0
N384 N 0.22179 0.68494 0.09496 0.0
N385 N 0.16066 0.71109 0.17508 0.0
C386 C 0.17971 0.69181 0.26321 0.0
C387 C 0.2127 0.67774 0.22012 0.0
C388 C 0.13844 0.82245 0.25964 0.0
C389 C 0.1408 0.81587 0.39443 0.0
C390 C 0.15076 0.8544 0.20708 0.0
C391 C 0.16538 0.88006 0.28881 0.0
H392 H 0.1214 0.80655 0.19936 0.0
H393 H 0.14282 0.86137 0.1089 0.0
S394 S 0.19567 0.86536 0.62713 0.0
N395 N 0.17269 0.82964 0.59248 0.0
N396 N 0.19571 0.88995 0.49324 0.0
C397 C 0.17715 0.86884 0.41223 0.0
C398 C 0.16476 0.8363 0.46565 0.0
C399 C 0.73606 0.16858 0.31841 0.0
C400 C 0.74869 0.13628 0.26849 0.0
C401 C 0.70459 0.18373 0.27033 0.0
C402 C 0.68582 0.1672 0.16996 0.0
H403 H 0.74629 0.17809 0.40995 0.0
H404 H 0.6922 0.20486 0.32486 0.0
S405 S 0.71765 0.09131 0.97429 0.0
N406 N 0.74798 0.09597 0.08791 0.0
N407 N 0.68848 0.12337 0.99816 0.0
C408 C 0.70325 0.14019 0.10052 0.0
C409 C 0.73543 0.12524 0.14894 0.0
C410 C 0.61679 0.7256 0.16412 0.0
C411 C 0.60243 0.75919 0.1928 0.0
C412 C 0.5947 0.69839 0.12177 0.0
C413 C 0.55836 0.70469 0.09996 0.0
H414 H 0.64312 0.7185 0.1977 0.0
H415 H 0.60532 0.67167 0.11896 0.0
S416 S 0.51589 0.79315 0.06938 0.0
N417 N 0.55581 0.80102 0.1265 0.0
N418 N 0.51376 0.74987 0.05346 0.0
C419 C 0.54682 0.74004 0.09204 0.0
C420 C 0.56952 0.76766 0.13353 0.0
C421 C 0.8029 0.41729 0.27881 0.0
C422 C 0.80539 0.41822 0.41563 0.0
C423 C 0.83246 0.40797 0.20437 0.0
C424 C 0.86493 0.4 0.26558 0.0
H425 H 0.78096 0.42987 0.22814 0.0
H426 H 0.83172 0.41363 0.10086 0.0
S427 S 0.8765 0.37653 0.61373 0.0
N428 N 0.83572 0.39249 0.60324 0.0
N429 N 0.89253 0.3777 0.46441 0.0
C430 C 0.86403 0.39062 0.39806 0.0
C431 C 0.83344 0.39887 0.47321 0.0
C432 C 1.00813 0.20039 0.93086 0.0
C433 C 1.01341 0.20955 0.06189 0.0
C434 C 1.0146 0.16569 0.88639 0.0
C435 C 1.02597 0.13826 0.97158 0.0
H436 H 0.99661 0.21965 0.86402 0.0
H437 H 1.00868 0.15998 0.7858 0.0
S438 S 0.04471 0.14898 0.32437 0.0
N439 N 1.03186 0.18881 0.27511 0.0
N440 N 0.04399 0.12393 0.19386 0.0
C441 C 1.03299 0.14768 0.10185 0.0
C442 C 1.0267 0.18311 0.14627 0.0
C443 C 0.3616 1.00454 0.9775 0.0
C444 C 0.35 1.01833 0.09704 0.0
C445 C 0.39526 1.01247 0.9267 0.0
C446 C 0.41919 0.03407 0.99435 0.0
H447 H 0.34539 0.98559 0.92694 0.0
H448 H 0.40326 0.9998 0.83732 0.0
S449 S 0.40042 0.07897 0.30729 0.0
N450 N 0.36414 0.05637 0.27758 0.0
N451 N 0.42715 0.07147 0.18355 0.0
C452 C 0.40699 0.04967 0.11054 0.0
C453 C 0.37254 0.04177 0.16137 0.0
C454 C 0.51369 0.38509 0.11611 0.0
C455 C 0.52109 0.35451 0.04358 0.0
C456 C 0.51078 0.41881 0.05614 0.0
C457 C 0.51561 0.42366 0.92077 0.0
H458 H 0.51243 0.38327 0.22119 0.0
H459 H 0.50668 0.4415 0.118 0.0
S460 S 0.53228 0.35128 0.68588 0.0
N461 N 0.53091 0.33083 0.82855 0.0
N462 N 0.52523 0.39365 0.71536 0.0
C463 C 0.52114 0.39285 0.84655 0.0
C464 C 0.524 0.35855 0.90792 0.0
C465 C 0.18999 0.55718 0.93253 0.0
C466 C 0.19793 0.54746 0.06211 0.0
C467 C 0.15631 0.5513 0.8778 0.0
C468 C 0.12881 0.53555 0.95023 0.0
H469 H 0.20927 0.57166 0.87566 0.0
H470 H 0.15141 0.56059 0.77937 0.0
S471 S 0.13589 0.50553 0.29486 0.0
N472 N 0.17552 0.52119 0.26108 0.0
N473 N 0.1126 0.50975 0.15952 0.0
C474 C 0.13694 0.52434 0.07848 0.0
C475 C 0.17129 0.53041 0.13394 0.0
C476 C 1.0173 0.87704 0.57052 0.0
C477 C 0.03644 0.8509 0.64045 0.0
C478 C 1.01091 0.91101 0.62264 0.0
C479 C 1.02385 0.92051 0.74637 0.0
H480 H 1.00942 0.87209 0.47112 0.0
H481 H 0.99756 0.93058 0.56202 0.0
S482 S 0.07194 0.86007 0.97449 0.0
N483 N 0.06554 0.83586 0.84398 0.0
N484 N 0.05369 0.89907 0.94211 0.0
C485 C 0.04112 0.89375 0.82011 0.0
C486 C 0.04735 0.85923 0.76726 0.0
C487 C 0.68772 1.02745 0.64017 0.0
C488 C 0.70086 0.06199 0.62197 0.0
C489 C 0.65461 1.02141 0.70042 0.0
C490 C 0.63314 0.04964 0.74463 0.0
H491 H 0.70226 1.005 0.60223 0.0
H492 H 0.64541 0.99443 0.70958 0.0
S493 S 0.65517 0.14523 0.72065 0.0
N494 N 0.69025 0.12469 0.66238 0.0
N495 N 0.62758 0.11359 0.76275 0.0
C496 C 0.64634 0.08418 0.72925 0.0
C497 C 0.68022 0.09023 0.6717 0.0
C498 C 0.54729 0.69934 0.64578 0.0
C499 C 0.57372 0.70537 0.55055 0.0
C500 C 0.53923 0.66487 0.69277 0.0
C501 C 0.55786 0.63453 0.65136 0.0
H502 H 0.53238 0.72128 0.68518 0.0
H503 H 0.51802 0.66193 0.76185 0.0
S504 S 0.62708 0.63279 0.39558 0.0
N505 N 0.61588 0.67482 0.40783 0.0
N506 N 0.60255 0.61227 0.50401 0.0
C507 C 0.58396 0.6397 0.5561 0.0
C508 C 0.59147 0.67435 0.50457 0.0
C509 C 0.85133 0.51996 0.75637 0.0
C510 C 0.8404 0.52682 0.6273 0.0
C511 C 0.88618 0.52683 0.79818 0.0
C512 C 0.91198 0.5402 0.71199 0.0
H513 H 0.83346 0.50687 0.82325 0.0
H514 H 0.89342 0.51948 0.89678 0.0
S515 S 0.89614 0.56453 0.36495 0.0
N516 N 0.85763 0.54945 0.41573 0.0
N517 N 0.92274 0.56243 0.49231 0.0
C518 C 0.90069 0.549 0.58436 0.0
C519 C 0.86511 0.54231 0.54264 0.0
loop_
_geom_bond_atom_site_label_1
_geom_bond_atom_site_label_2
_geom_bond_distance
_geom_bond_site_symmetry_2
_ccdc_geom_bond_type
H0 C5 0.930 . S
H1 C8 0.930 . S
H2 C10 0.930 . S
H3 C4 1.016 . S
C4 H3 1.016 . S
C4 N11 1.286 . S
C5 H0 0.930 . S
C5 C6 1.397 . S
C5 C7 1.361 . S
C6 C5 1.397 . S
C6 C10 1.390 . S
C7 C5 1.361 . S
C7 C8 1.393 . S
C7 N11 1.413 . S
C8 H1 0.930 . S
C8 C7 1.393 . S
C8 C9 1.399 . S
C9 C8 1.399 . S
C9 C10 1.381 . S
C10 H2 0.930 . S
C10 C6 1.390 . S
C10 C9 1.381 . S
N11 C4 1.286 . S
N11 C7 1.413 . S
H12 C17 0.930 . S
H13 C20 0.930 . S
H14 C22 0.930 . S
H15 C16 1.016 . S
C16 H15 1.016 . S
C16 N23 1.286 1_655 S
C17 H12 0.930 . S
C17 C18 1.397 . S
C17 C19 1.361 . S
C18 C17 1.397 . S
C18 C22 1.390 1_455 S
C19 C17 1.361 . S
C19 C20 1.393 . S
C19 N23 1.413 . S
C20 H13 0.930 . S
C20 C19 1.393 . S
C20 C21 1.403 . S
C21 C20 1.403 . S
C21 C22 1.379 1_455 S
C22 H14 0.930 . S
C22 C18 1.390 1_655 S
C22 C21 1.379 1_655 S
N23 C16 1.286 1_455 S
N23 C19 1.413 . S
H24 C29 0.930 . S
H25 C32 0.930 . S
H26 C34 0.930 . S
H27 C28 1.016 . S
C28 H27 1.016 . S
C28 N35 1.286 1_565 S
C29 H24 0.930 . S
C29 C30 1.397 . S
C29 C31 1.361 . S
C30 C29 1.397 . S
C30 C34 1.390 1_545 S
C31 C29 1.361 . S
C31 C32 1.393 . S
C31 N35 1.413 . S
C32 H25 0.930 . S
C32 C31 1.393 . S
C32 C33 1.403 . S
C33 C32 1.403 . S
C33 C34 1.379 1_545 S
C34 H26 0.930 . S
C34 C30 1.390 1_565 S
C34 C33 1.379 1_565 S
N35 C28 1.286 1_545 S
N35 C31 1.413 . S
H36 C41 0.930 . S
H37 C44 0.930 . S
H38 C46 0.930 . S
H39 C40 1.016 . S
C40 H39 1.016 . S
C40 N47 1.286 . S
C41 H36 0.930 . S
C41 C42 1.397 . S
C41 C43 1.361 . S
C42 C41 1.397 . S
C42 C46 1.390 . S
C43 C41 1.361 . S
C43 C44 1.393 . S
C43 N47 1.413 . S
C44 H37 0.930 . S
C44 C43 1.393 . S
C44 C45 1.399 . S
C45 C44 1.399 . S
C45 C46 1.381 . S
C46 H38 0.930 . S
C46 C42 1.390 . S
C46 C45 1.381 . S
N47 C40 1.286 . S
N47 C43 1.413 . S
H48 C53 0.930 . S
H49 C56 0.930 . S
H50 C58 0.930 . S
H51 C52 1.016 . S
C52 H51 1.016 . S
C52 N59 1.286 . S
C53 H48 0.930 . S
C53 C54 1.397 . S
C53 C55 1.361 1_556 S
C54 C53 1.397 . S
C54 C58 1.390 1_556 S
C55 C53 1.361 1_554 S
C55 C56 1.393 . S
C55 N59 1.413 . S
C56 H49 0.930 . S
C56 C55 1.393 . S
C56 C57 1.399 . S
C57 C56 1.399 . S
C57 C58 1.381 . S
C58 H50 0.930 . S
C58 C54 1.390 1_554 S
C58 C57 1.381 . S
N59 C52 1.286 . S
N59 C55 1.413 . S
H60 C65 0.930 . S
H61 C68 0.930 . S
H62 C70 0.930 . S
H63 C64 1.026 . S
C64 H63 1.026 . S
C64 N71 1.272 1_655 S
C65 H60 0.930 . S
C65 C66 1.397 . S
C65 C67 1.361 1_556 S
C66 C65 1.397 . S
C66 C70 1.390 1_456 S
C67 C65 1.361 1_554 S
C67 C68 1.393 . S
C67 N71 1.413 . S
C68 H61 0.930 . S
C68 C67 1.393 . S
C68 C69 1.404 . S
C69 C68 1.404 . S
C69 C70 1.378 1_455 S
C70 H62 0.930 . S
C70 C66 1.390 1_654 S
C70 C69 1.378 1_655 S
N71 C64 1.272 1_455 S
N71 C67 1.413 . S
H72 C77 0.930 . S
H73 C80 0.930 . S
H74 C82 0.930 . S
H75 C76 1.026 . S
C76 H75 1.026 . S
C76 N83 1.272 1_565 S
C77 H72 0.930 . S
C77 C78 1.397 . S
C77 C79 1.361 1_556 S
C78 C77 1.397 . S
C78 C82 1.390 1_546 S
C79 C77 1.361 1_554 S
C79 C80 1.393 . S
C79 N83 1.413 . S
C80 H73 0.930 . S
C80 C79 1.393 . S
C80 C81 1.404 . S
C81 C80 1.404 . S
C81 C82 1.378 1_545 S
C82 H74 0.930 . S
C82 C78 1.390 1_564 S
C82 C81 1.378 1_565 S
N83 C76 1.272 1_545 S
N83 C79 1.413 . S
H84 C89 0.930 . S
H85 C92 0.930 . S
H86 C94 0.930 . S
H87 C88 1.016 . S
C88 H87 1.016 . S
C88 N95 1.286 . S
C89 H84 0.930 . S
C89 C90 1.397 . S
C89 C91 1.361 1_556 S
C90 C89 1.397 . S
C90 C94 1.390 1_556 S
C91 C89 1.361 1_554 S
C91 C92 1.393 . S
C91 N95 1.413 . S
C92 H85 0.930 . S
C92 C91 1.393 . S
C92 C93 1.399 . S
C93 C92 1.399 . S
C93 C94 1.381 . S
C94 H86 0.930 . S
C94 C90 1.390 1_554 S
C94 C93 1.381 . S
N95 C88 1.286 . S
N95 C91 1.413 . S
Tb96 C106 2.825 1_556 S
Tb96 O107 2.347 1_455 S
Tb96 O110 2.366 . S
Tb96 O115 2.418 . S
Tb96 O116 2.384 1_565 S
Tb96 O119 2.479 1_556 S
Tb96 O120 2.471 1_556 S
Eu97 O108 2.418 . S
Eu97 O109 2.384 1_545 S
Eu97 O112 2.479 . S
Eu97 O113 2.471 . S
Eu97 O114 2.347 1_655 S
Eu97 O117 2.366 . S
Eu97 C127 2.825 . S
C98 O114 1.259 1_565 S
C98 O115 1.265 . S
C99 O116 1.255 . S
C99 O117 1.265 1_455 S
C100 C102 1.380 . S
C100 C103 1.374 . S
C100 C106 1.507 . S
C101 C102 1.384 . S
C101 C105 1.387 . S
C101 H128 0.930 . S
C102 C100 1.380 . S
C102 C101 1.384 . S
C102 H129 0.931 . S
C103 C100 1.374 . S
C103 C104 1.390 . S
C103 H130 0.930 1_455 S
C104 C103 1.390 . S
C104 C105 1.391 . S
C104 H131 0.930 1_455 S
C105 C101 1.387 . S
C105 C104 1.391 . S
C106 Tb96 2.825 1_554 S
C106 C100 1.507 . S
C106 O119 1.238 . S
C106 O120 1.247 . S
O107 Tb96 2.347 1_655 S
O107 C111 1.259 1_565 S
O108 Eu97 2.418 . S
O108 C111 1.265 . S
O109 Eu97 2.384 1_565 S
O109 C118 1.255 . S
O110 Tb96 2.366 . S
O110 C118 1.265 1_455 S
C111 O107 1.259 1_545 S
C111 O108 1.265 . S
O112 Eu97 2.479 . S
O112 C127 1.238 . S
O113 Eu97 2.471 . S
O113 C127 1.247 . S
O114 Eu97 2.347 1_455 S
O114 C98 1.259 1_545 S
O115 Tb96 2.418 . S
O115 C98 1.265 . S
O116 Tb96 2.384 1_545 S
O116 C99 1.255 . S
O117 Eu97 2.366 . S
O117 C99 1.265 1_655 S
C118 O109 1.255 . S
C118 O110 1.265 1_655 S
O119 Tb96 2.479 1_554 S
O119 C106 1.238 . S
O120 Tb96 2.471 1_554 S
O120 C106 1.247 . S
C121 C124 1.380 . S
C121 C125 1.374 . S
C121 C127 1.507 . S
C122 C123 1.387 . S
C122 C126 1.391 . S
C123 C122 1.387 . S
C123 C124 1.384 . S
C123 H132 0.930 . S
C124 C121 1.380 . S
C124 C123 1.384 . S
C124 H133 0.931 . S
C125 C121 1.374 . S
C125 C126 1.390 . S
C125 H134 0.930 1_655 S
C126 C122 1.391 . S
C126 C125 1.390 . S
C126 H135 0.930 1_655 S
C127 Eu97 2.825 . S
C127 O112 1.238 . S
C127 O113 1.247 . S
C127 C121 1.507 . S
H128 C101 0.930 . S
H129 C102 0.931 . S
H130 C103 0.930 1_655 S
H131 C104 0.930 1_655 S
H132 C123 0.930 . S
H133 C124 0.931 . S
H134 C125 0.930 1_455 S
H135 C126 0.930 1_455 S
Tb136 C146 2.825 1_556 S
Tb136 O147 2.347 1_545 S
Tb136 O150 2.366 . S
Tb136 O155 2.418 . S
Tb136 O156 2.384 . S
Tb136 O159 2.479 1_556 S
Tb136 O160 2.471 1_556 S
Eu137 O148 2.418 . S
Eu137 O149 2.384 . S
Eu137 O152 2.479 . S
Eu137 O153 2.471 . S
Eu137 O154 2.347 1_565 S
Eu137 O157 2.366 . S
Eu137 C167 2.825 . S
C138 O154 1.259 . S
C138 O155 1.265 . S
C139 O156 1.255 . S
C139 O157 1.265 1_545 S
C140 C142 1.380 . S
C140 C143 1.374 . S
C140 C146 1.507 . S
C141 C142 1.384 . S
C141 C145 1.387 . S
C141 H168 0.930 . S
C142 C140 1.380 . S
C142 C141 1.384 . S
C142 H169 0.931 . S
C143 C140 1.374 . S
C143 C144 1.390 . S
C143 H170 0.930 1_545 S
C144 C143 1.390 . S
C144 C145 1.391 . S
C144 H171 0.930 1_545 S
C145 C141 1.387 . S
C145 C144 1.391 . S
C146 Tb136 2.825 1_554 S
C146 C140 1.507 . S
C146 O159 1.238 . S
C146 O160 1.247 . S
O147 Tb136 2.347 1_565 S
O147 C151 1.259 . S
O148 Eu137 2.418 . S
O148 C151 1.265 . S
O149 Eu137 2.384 . S
O149 C158 1.255 . S
O150 Tb136 2.366 . S
O150 C158 1.265 1_545 S
C151 O147 1.259 . S
C151 O148 1.265 . S
O152 Eu137 2.479 . S
O152 C167 1.238 . S
O153 Eu137 2.471 . S
O153 C167 1.247 . S
O154 Eu137 2.347 1_545 S
O154 C138 1.259 . S
O155 Tb136 2.418 . S
O155 C138 1.265 . S
O156 Tb136 2.384 . S
O156 C139 1.255 . S
O157 Eu137 2.366 . S
O157 C139 1.265 1_565 S
C158 O149 1.255 . S
C158 O150 1.265 1_565 S
O159 Tb136 2.479 1_554 S
O159 C146 1.238 . S
O160 Tb136 2.471 1_554 S
O160 C146 1.247 . S
C161 C164 1.380 . S
C161 C165 1.374 . S
C161 C167 1.507 . S
C162 C163 1.387 . S
C162 C166 1.391 . S
C163 C162 1.387 . S
C163 C164 1.384 . S
C163 H172 0.930 . S
C164 C161 1.380 . S
C164 C163 1.384 . S
C164 H173 0.931 . S
C165 C161 1.374 . S
C165 C166 1.390 . S
C165 H174 0.930 1_565 S
C166 C162 1.391 . S
C166 C165 1.390 . S
C166 H175 0.930 1_565 S
C167 Eu137 2.825 . S
C167 O152 1.238 . S
C167 O153 1.247 . S
C167 C161 1.507 . S
H168 C141 0.930 . S
H169 C142 0.931 . S
H170 C143 0.930 1_565 S
H171 C144 0.930 1_565 S
H172 C163 0.930 . S
H173 C164 0.931 . S
H174 C165 0.930 1_545 S
H175 C166 0.930 1_545 S
Tb176 C186 2.825 1_556 S
Tb176 O187 2.347 . S
Tb176 O190 2.366 . S
Tb176 O195 2.418 . S
Tb176 O196 2.384 . S
Tb176 O199 2.479 1_556 S
Tb176 O200 2.471 1_556 S
Eu177 O188 2.418 . S
Eu177 O189 2.384 . S
Eu177 O192 2.479 . S
Eu177 O193 2.471 . S
Eu177 O194 2.347 . S
Eu177 O197 2.366 . S
Eu177 C207 2.825 . S
C178 O194 1.259 . S
C178 O195 1.265 . S
C179 O196 1.255 . S
C179 O197 1.265 . S
C180 C182 1.380 . S
C180 C183 1.374 . S
C180 C186 1.507 . S
C181 C182 1.384 . S
C181 C185 1.387 . S
C181 H208 0.930 . S
C182 C180 1.380 . S
C182 C181 1.384 . S
C182 H209 0.931 . S
C183 C180 1.374 . S
C183 C184 1.390 . S
C183 H210 0.930 . S
C184 C183 1.390 . S
C184 C185 1.391 . S
C184 H211 0.930 . S
C185 C181 1.387 . S
C185 C184 1.391 . S
C186 Tb176 2.825 1_554 S
C186 C180 1.507 . S
C186 O199 1.238 . S
C186 O200 1.247 . S
O187 Tb176 2.347 . S
O187 C191 1.259 . S
O188 Eu177 2.418 . S
O188 C191 1.265 . S
O189 Eu177 2.384 . S
O189 C198 1.255 . S
O190 Tb176 2.366 . S
O190 C198 1.265 . S
C191 O187 1.259 . S
C191 O188 1.265 . S
O192 Eu177 2.479 . S
O192 C207 1.238 . S
O193 Eu177 2.471 . S
O193 C207 1.247 . S
O194 Eu177 2.347 . S
O194 C178 1.259 . S
O195 Tb176 2.418 . S
O195 C178 1.265 . S
O196 Tb176 2.384 . S
O196 C179 1.255 . S
O197 Eu177 2.366 . S
O197 C179 1.265 . S
C198 O189 1.255 . S
C198 O190 1.265 . S
O199 Tb176 2.479 1_554 S
O199 C186 1.238 . S
O200 Tb176 2.471 1_554 S
O200 C186 1.247 . S
C201 C204 1.380 . S
C201 C205 1.374 . S
C201 C207 1.507 . S
C202 C203 1.387 . S
C202 C206 1.391 . S
C203 C202 1.387 . S
C203 C204 1.384 . S
C203 H212 0.930 . S
C204 C201 1.380 . S
C204 C203 1.384 . S
C204 H213 0.931 . S
C205 C201 1.374 . S
C205 C206 1.390 . S
C205 H214 0.930 . S
C206 C202 1.391 . S
C206 C205 1.390 . S
C206 H215 0.930 . S
C207 Eu177 2.825 . S
C207 O192 1.238 . S
C207 O193 1.247 . S
C207 C201 1.507 . S
H208 C181 0.930 . S
H209 C182 0.931 . S
H210 C183 0.930 . S
H211 C184 0.930 . S
H212 C203 0.930 . S
H213 C204 0.931 . S
H214 C205 0.930 . S
H215 C206 0.930 . S
Tb216 C226 2.825 1_556 S
Tb216 O227 2.347 . S
Tb216 O230 2.366 . S
Tb216 O235 2.418 . S
Tb216 O236 2.384 1_655 S
Tb216 O239 2.479 1_556 S
Tb216 O240 2.471 1_556 S
Eu217 O228 2.418 . S
Eu217 O229 2.384 1_455 S
Eu217 O232 2.479 . S
Eu217 O233 2.471 . S
Eu217 O234 2.347 . S
Eu217 O237 2.366 . S
Eu217 C247 2.825 . S
C218 O234 1.259 1_655 S
C218 O235 1.265 . S
C219 O236 1.255 . S
C219 O237 1.265 . S
C220 C222 1.380 . S
C220 C223 1.374 . S
C220 C226 1.507 . S
C221 C222 1.384 . S
C221 C225 1.387 . S
C221 H248 0.930 . S
C222 C220 1.380 . S
C222 C221 1.384 . S
C222 H249 0.931 . S
C223 C220 1.374 . S
C223 C224 1.390 . S
C223 H250 0.930 . S
C224 C223 1.390 . S
C224 C225 1.391 . S
C224 H251 0.930 . S
C225 C221 1.387 . S
C225 C224 1.391 . S
C226 Tb216 2.825 1_554 S
C226 C220 1.507 . S
C226 O239 1.238 . S
C226 O240 1.247 . S
O227 Tb216 2.347 . S
O227 C231 1.259 1_655 S
O228 Eu217 2.418 . S
O228 C231 1.265 . S
O229 Eu217 2.384 1_655 S
O229 C238 1.255 . S
O230 Tb216 2.366 . S
O230 C238 1.265 . S
C231 O227 1.259 1_455 S
C231 O228 1.265 . S
O232 Eu217 2.479 . S
O232 C247 1.238 . S
O233 Eu217 2.471 . S
O233 C247 1.247 . S
O234 Eu217 2.347 . S
O234 C218 1.259 1_455 S
O235 Tb216 2.418 . S
O235 C218 1.265 . S
O236 Tb216 2.384 1_455 S
O236 C219 1.255 . S
O237 Eu217 2.366 . S
O237 C219 1.265 . S
C238 O229 1.255 . S
C238 O230 1.265 . S
O239 Tb216 2.479 1_554 S
O239 C226 1.238 . S
O240 Tb216 2.471 1_554 S
O240 C226 1.247 . S
C241 C244 1.380 . S
C241 C245 1.374 . S
C241 C247 1.507 . S
C242 C243 1.387 . S
C242 C246 1.391 . S
C243 C242 1.387 . S
C243 C244 1.384 . S
C243 H252 0.930 . S
C244 C241 1.380 . S
C244 C243 1.384 . S
C244 H253 0.931 . S
C245 C241 1.374 . S
C245 C246 1.390 . S
C245 H254 0.930 . S
C246 C242 1.391 . S
C246 C245 1.390 . S
C246 H255 0.930 . S
C247 Eu217 2.825 . S
C247 O232 1.238 . S
C247 O233 1.247 . S
C247 C241 1.507 . S
H248 C221 0.930 . S
H249 C222 0.931 . S
H250 C223 0.930 . S
H251 C224 0.930 . S
H252 C243 0.930 . S
H253 C244 0.931 . S
H254 C245 0.930 . S
H255 C246 0.930 . S
C256 C257 1.368 1_565 S
C256 C258 1.419 . S
C256 H260 0.930 . S
C257 C256 1.368 1_545 S
C257 C266 1.430 . S
C258 C256 1.419 . S
C258 C259 1.364 . S
C258 H261 0.929 . S
C259 C258 1.364 . S
C259 C265 1.428 1_565 S
H260 C256 0.930 . S
H261 C258 0.929 . S
S262 N263 1.613 . S
S262 N264 1.610 . S
N263 S262 1.613 . S
N263 C266 1.350 . S
N264 S262 1.610 . S
N264 C265 1.351 . S
C265 C259 1.428 1_545 S
C265 N264 1.351 . S
C265 C266 1.434 . S
C266 C257 1.430 . S
C266 N263 1.350 . S
C266 C265 1.434 . S
C267 C268 1.369 . S
C267 C269 1.419 . S
C267 H271 0.930 . S
C268 C267 1.369 . S
C268 C277 1.429 . S
C269 C267 1.419 . S
C269 C270 1.363 . S
C269 H272 0.929 . S
C270 C269 1.363 . S
C270 C276 1.428 . S
H271 C267 0.930 . S
H272 C269 0.929 . S
S273 N274 1.613 . S
S273 N275 1.610 . S
N274 S273 1.613 . S
N274 C277 1.350 . S
N275 S273 1.610 . S
N275 C276 1.351 . S
C276 C270 1.428 . S
C276 N275 1.351 . S
C276 C277 1.434 . S
C277 C268 1.429 . S
C277 N274 1.350 . S
C277 C276 1.434 . S
C278 C279 1.369 . S
C278 C280 1.419 . S
C278 H282 0.930 . S
C279 C278 1.369 . S
C279 C288 1.429 . S
C280 C278 1.419 . S
C280 C281 1.363 . S
C280 H283 0.929 . S
C281 C280 1.363 . S
C281 C287 1.428 . S
H282 C278 0.930 . S
H283 C280 0.929 . S
S284 N285 1.613 . S
S284 N286 1.610 . S
N285 S284 1.613 . S
N285 C288 1.350 . S
N286 S284 1.610 . S
N286 C287 1.351 . S
C287 C281 1.428 . S
C287 N286 1.351 . S
C287 C288 1.434 . S
C288 C279 1.429 . S
C288 N285 1.350 . S
C288 C287 1.434 . S
C289 C290 1.368 1_655 S
C289 C291 1.419 . S
C289 H293 0.930 . S
C290 C289 1.368 1_455 S
C290 C299 1.430 . S
C291 C289 1.419 . S
C291 C292 1.362 1_655 S
C291 H294 0.930 . S
C292 C291 1.362 1_455 S
C292 C298 1.428 . S
H293 C289 0.930 . S
H294 C291 0.930 . S
S295 N296 1.613 . S
S295 N297 1.610 . S
N296 S295 1.613 . S
N296 C299 1.350 . S
N297 S295 1.610 . S
N297 C298 1.351 . S
C298 C292 1.428 . S
C298 N297 1.351 . S
C298 C299 1.434 . S
C299 C290 1.430 . S
C299 N296 1.350 . S
C299 C298 1.434 . S
C300 C301 1.368 1_545 S
C300 C302 1.419 . S
C300 H304 0.930 . S
C301 C300 1.368 1_565 S
C301 C310 1.430 . S
C302 C300 1.419 . S
C302 C303 1.366 . S
C302 H305 0.929 . S
C303 C302 1.366 . S
C303 C309 1.425 1_545 S
H304 C300 0.930 . S
H305 C302 0.929 . S
S306 N307 1.613 . S
S306 N308 1.610 . S
N307 S306 1.613 . S
N307 C310 1.350 . S
N308 S306 1.610 . S
N308 C309 1.351 . S
C309 C303 1.425 1_565 S
C309 N308 1.351 . S
C309 C310 1.434 . S
C310 C301 1.430 . S
C310 N307 1.350 . S
C310 C309 1.434 . S
C311 C312 1.369 . S
C311 C313 1.419 . S
C311 H315 0.930 . S
C312 C311 1.369 . S
C312 C321 1.429 . S
C313 C311 1.419 . S
C313 C314 1.363 . S
C313 H316 0.929 . S
C314 C313 1.363 . S
C314 C320 1.428 . S
H315 C311 0.930 . S
H316 C313 0.929 . S
S317 N318 1.613 . S
S317 N319 1.610 . S
N318 S317 1.613 . S
N318 C321 1.350 . S
N319 S317 1.610 . S
N319 C320 1.351 . S
C320 C314 1.428 . S
C320 N319 1.351 . S
C320 C321 1.434 . S
C321 C312 1.429 . S
C321 N318 1.350 . S
C321 C320 1.434 . S
C322 C323 1.369 . S
C322 C324 1.419 . S
C322 H326 0.930 . S
C323 C322 1.369 . S
C323 C332 1.429 . S
C324 C322 1.419 . S
C324 C325 1.363 . S
C324 H327 0.929 . S
C325 C324 1.363 . S
C325 C331 1.428 . S
H326 C322 0.930 . S
H327 C324 0.929 . S
S328 N329 1.613 . S
S328 N330 1.610 . S
N329 S328 1.613 . S
N329 C332 1.350 . S
N330 S328 1.610 . S
N330 C331 1.351 . S
C331 C325 1.428 . S
C331 N330 1.351 . S
C331 C332 1.434 . S
C332 C323 1.429 . S
C332 N329 1.350 . S
C332 C331 1.434 . S
C333 C334 1.374 . S
C333 C335 1.419 . S
C333 H337 0.930 . S
C334 C333 1.374 . S
C334 C343 1.424 1_655 S
C335 C333 1.419 . S
C335 C336 1.379 . S
C335 H338 0.929 . S
C336 C335 1.379 . S
C336 C342 1.413 1_655 S
H337 C333 0.930 . S
H338 C335 0.929 . S
S339 N340 1.613 . S
S339 N341 1.610 . S
N340 S339 1.613 . S
N340 C343 1.350 . S
N341 S339 1.610 . S
N341 C342 1.351 . S
C342 C336 1.413 1_455 S
C342 N341 1.351 . S
C342 C343 1.434 . S
C343 C334 1.424 1_455 S
C343 N340 1.350 . S
C343 C342 1.434 . S
C344 C345 1.368 1_655 S
C344 C346 1.419 . S
C344 H348 0.930 . S
C345 C344 1.368 1_455 S
C345 C354 1.429 . S
C346 C344 1.419 . S
C346 C347 1.363 . S
C346 H349 0.929 . S
C347 C346 1.363 . S
C347 C353 1.428 . S
H348 C344 0.930 . S
H349 C346 0.929 . S
S350 N351 1.613 . S
S350 N352 1.610 1_455 S
N351 S350 1.613 . S
N351 C354 1.350 . S
N352 S350 1.610 1_655 S
N352 C353 1.351 . S
C353 C347 1.428 . S
C353 N352 1.351 . S
C353 C354 1.434 1_655 S
C354 C345 1.429 . S
C354 N351 1.350 . S
C354 C353 1.434 1_455 S
C355 C356 1.368 1_545 S
C355 C357 1.419 1_545 S
C355 H359 0.930 . S
C356 C355 1.368 1_565 S
C356 C365 1.431 . S
C357 C355 1.419 1_565 S
C357 C358 1.363 . S
C357 H360 0.929 . S
C358 C357 1.363 . S
C358 C364 1.428 . S
H359 C355 0.930 . S
H360 C357 0.929 . S
S361 N362 1.613 . S
S361 N363 1.610 . S
N362 S361 1.613 . S
N362 C365 1.350 . S
N363 S361 1.610 . S
N363 C364 1.351 . S
C364 C358 1.428 . S
C364 N363 1.351 . S
C364 C365 1.434 . S
C365 C356 1.431 . S
C365 N362 1.350 . S
C365 C364 1.434 . S
C366 C367 1.369 . S
C366 C368 1.419 . S
C366 H370 0.930 . S
C367 C366 1.369 . S
C367 C376 1.429 . S
C368 C366 1.419 . S
C368 C369 1.363 . S
C368 H371 0.929 . S
C369 C368 1.363 . S
C369 C375 1.428 . S
H370 C366 0.930 . S
H371 C368 0.929 . S
S372 N373 1.613 . S
S372 N374 1.610 . S
N373 S372 1.613 . S
N373 C376 1.350 . S
N374 S372 1.610 . S
N374 C375 1.351 . S
C375 C369 1.428 . S
C375 N374 1.351 . S
C375 C376 1.434 . S
C376 C367 1.429 . S
C376 N373 1.350 . S
C376 C375 1.434 . S
C377 C378 1.369 . S
C377 C379 1.419 . S
C377 H381 0.930 . S
C378 C377 1.369 . S
C378 C387 1.429 . S
C379 C377 1.419 . S
C379 C380 1.363 . S
C379 H382 0.929 . S
C380 C379 1.363 . S
C380 C386 1.428 . S
H381 C377 0.930 . S
H382 C379 0.929 . S
S383 N384 1.613 . S
S383 N385 1.610 . S
N384 S383 1.613 . S
N384 C387 1.350 . S
N385 S383 1.610 . S
N385 C386 1.351 . S
C386 C380 1.428 . S
C386 N385 1.351 . S
C386 C387 1.434 . S
C387 C378 1.429 . S
C387 N384 1.350 . S
C387 C386 1.434 . S
C388 C389 1.369 1_455 S
C388 C390 1.419 . S
C388 H392 0.930 1_455 S
C389 C388 1.369 1_655 S
C389 C398 1.428 1_655 S
C390 C388 1.419 . S
C390 C391 1.363 . S
C390 H393 0.929 . S
C391 C390 1.363 . S
C391 C397 1.428 . S
H392 C388 0.930 1_655 S
H393 C390 0.929 . S
S394 N395 1.613 . S
S394 N396 1.610 . S
N395 S394 1.613 . S
N395 C398 1.350 . S
N396 S394 1.610 . S
N396 C397 1.351 . S
C397 C391 1.428 . S
C397 N396 1.351 . S
C397 C398 1.434 . S
C398 C389 1.428 1_455 S
C398 N395 1.350 . S
C398 C397 1.434 . S
C399 C400 1.366 1_545 S
C399 C401 1.419 . S
C399 H403 0.930 . S
C400 C399 1.366 1_565 S
C400 C409 1.430 . S
C401 C399 1.419 . S
C401 C402 1.363 . S
C401 H404 0.929 . S
C402 C401 1.363 . S
C402 C408 1.428 . S
H403 C399 0.930 . S
H404 C401 0.929 . S
S405 N406 1.613 . S
S405 N407 1.610 . S
N406 S405 1.613 . S
N406 C409 1.350 . S
N407 S405 1.610 . S
N407 C408 1.351 1_565 S
C408 C402 1.428 . S
C408 N407 1.351 1_545 S
C408 C409 1.434 1_545 S
C409 C400 1.430 . S
C409 N406 1.350 . S
C409 C408 1.434 1_565 S
C410 C411 1.369 . S
C410 C412 1.419 . S
C410 H414 0.930 . S
C411 C410 1.369 . S
C411 C420 1.429 . S
C412 C410 1.419 . S
C412 C413 1.363 . S
C412 H415 0.929 . S
C413 C412 1.363 . S
C413 C419 1.428 . S
H414 C410 0.930 . S
H415 C412 0.929 . S
S416 N417 1.613 . S
S416 N418 1.610 . S
N417 S416 1.613 . S
N417 C420 1.350 . S
N418 S416 1.610 . S
N418 C419 1.351 . S
C419 C413 1.428 . S
C419 N418 1.351 . S
C419 C420 1.434 . S
C420 C411 1.429 . S
C420 N417 1.350 . S
C420 C419 1.434 . S
C421 C422 1.369 . S
C421 C423 1.419 . S
C421 H425 0.930 . S
C422 C421 1.369 . S
C422 C431 1.429 . S
C423 C421 1.419 . S
C423 C424 1.363 . S
C423 H426 0.929 . S
C424 C423 1.363 . S
C424 C430 1.428 . S
H425 C421 0.930 . S
H426 C423 0.929 . S
S427 N428 1.613 . S
S427 N429 1.610 . S
N428 S427 1.613 . S
N428 C431 1.350 . S
N429 S427 1.610 . S
N429 C430 1.351 . S
C430 C424 1.428 . S
C430 N429 1.351 . S
C430 C431 1.434 . S
C431 C422 1.429 . S
C431 N428 1.350 . S
C431 C430 1.434 . S
C432 C433 1.369 1_655 S
C432 C434 1.419 . S
C432 H436 0.930 . S
C433 C432 1.369 1_455 S
C433 C442 1.429 . S
C434 C432 1.419 . S
C434 C435 1.363 1_655 S
C434 H437 0.929 . S
C435 C434 1.363 1_455 S
C435 C441 1.428 . S
H436 C432 0.930 . S
H437 C434 0.929 . S
S438 N439 1.613 . S
S438 N440 1.610 . S
N439 S438 1.613 . S
N439 C442 1.350 1_554 S
N440 S438 1.610 . S
N440 C441 1.351 1_554 S
C441 C435 1.428 . S
C441 N440 1.351 1_556 S
C441 C442 1.434 . S
C442 C433 1.429 . S
C442 N439 1.350 1_556 S
C442 C441 1.434 . S
C443 C444 1.369 1_565 S
C443 C445 1.419 . S
C443 H447 0.930 . S
C444 C443 1.369 1_545 S
C444 C453 1.429 . S
C445 C443 1.419 . S
C445 C446 1.363 1_565 S
C445 H448 0.929 . S
C446 C445 1.363 1_545 S
C446 C452 1.428 . S
H447 C443 0.930 . S
H448 C445 0.929 . S
S449 N450 1.613 . S
S449 N451 1.610 . S
N450 S449 1.613 . S
N450 C453 1.350 . S
N451 S449 1.610 . S
N451 C452 1.351 . S
C452 C446 1.428 . S
C452 N451 1.351 . S
C452 C453 1.434 . S
C453 C444 1.429 . S
C453 N450 1.350 . S
C453 C452 1.434 . S
C454 C455 1.369 . S
C454 C456 1.419 . S
C454 H458 0.930 . S
C455 C454 1.369 . S
C455 C464 1.429 . S
C456 C454 1.419 . S
C456 C457 1.363 . S
C456 H459 0.929 . S
C457 C456 1.363 . S
C457 C463 1.428 . S
H458 C454 0.930 . S
H459 C456 0.929 . S
S460 N461 1.613 . S
S460 N462 1.610 . S
N461 S460 1.613 . S
N461 C464 1.350 . S
N462 S460 1.610 . S
N462 C463 1.351 . S
C463 C457 1.428 . S
C463 N462 1.351 . S
C463 C464 1.434 . S
C464 C455 1.429 . S
C464 N461 1.350 . S
C464 C463 1.434 . S
C465 C466 1.369 . S
C465 C467 1.419 . S
C465 H469 0.930 . S
C466 C465 1.369 . S
C466 C475 1.429 . S
C467 C465 1.419 . S
C467 C468 1.363 . S
C467 H470 0.929 . S
C468 C467 1.363 . S
C468 C474 1.428 . S
H469 C465 0.930 . S
H470 C467 0.929 . S
S471 N472 1.613 . S
S471 N473 1.610 . S
N472 S471 1.613 . S
N472 C475 1.350 . S
N473 S471 1.610 . S
N473 C474 1.351 . S
C474 C468 1.428 . S
C474 N473 1.351 . S
C474 C475 1.434 . S
C475 C466 1.429 . S
C475 N472 1.350 . S
C475 C474 1.434 . S
C476 C477 1.369 . S
C476 C478 1.419 . S
C476 H480 0.930 . S
C477 C476 1.369 . S
C477 C486 1.429 1_655 S
C478 C476 1.419 . S
C478 C479 1.363 . S
C478 H481 0.929 . S
C479 C478 1.363 . S
C479 C485 1.428 1_655 S
H480 C476 0.930 . S
H481 C478 0.929 . S
S482 N483 1.613 . S
S482 N484 1.610 . S
N483 S482 1.613 . S
N483 C486 1.350 . S
N484 S482 1.610 . S
N484 C485 1.351 . S
C485 C479 1.428 1_455 S
C485 N484 1.351 . S
C485 C486 1.434 . S
C486 C477 1.429 1_455 S
C486 N483 1.350 . S
C486 C485 1.434 . S
C487 C488 1.369 . S
C487 C489 1.419 . S
C487 H491 0.930 . S
C488 C487 1.369 . S
C488 C497 1.429 1_565 S
C489 C487 1.419 . S
C489 C490 1.363 . S
C489 H492 0.929 . S
C490 C489 1.363 . S
C490 C496 1.428 1_565 S
H491 C487 0.930 . S
H492 C489 0.929 . S
S493 N494 1.613 . S
S493 N495 1.610 . S
N494 S493 1.613 . S
N494 C497 1.350 . S
N495 S493 1.610 . S
N495 C496 1.351 . S
C496 C490 1.428 1_545 S
C496 N495 1.351 . S
C496 C497 1.434 . S
C497 C488 1.429 1_545 S
C497 N494 1.350 . S
C497 C496 1.434 . S
C498 C499 1.369 . S
C498 C500 1.419 . S
C498 H502 0.930 . S
C499 C498 1.369 . S
C499 C508 1.429 . S
C500 C498 1.419 . S
C500 C501 1.363 . S
C500 H503 0.929 . S
C501 C500 1.363 . S
C501 C507 1.428 . S
H502 C498 0.930 . S
H503 C500 0.929 . S
S504 N505 1.613 . S
S504 N506 1.610 . S
N505 S504 1.613 . S
N505 C508 1.350 . S
N506 S504 1.610 . S
N506 C507 1.351 . S
C507 C501 1.428 . S
C507 N506 1.351 . S
C507 C508 1.434 . S
C508 C499 1.429 . S
C508 N505 1.350 . S
C508 C507 1.434 . S
C509 C510 1.369 . S
C509 C511 1.419 . S
C509 H513 0.930 . S
C510 C509 1.369 . S
C510 C519 1.429 . S
C511 C509 1.419 . S
C511 C512 1.363 . S
C511 H514 0.929 . S
C512 C511 1.363 . S
C512 C518 1.428 . S
H513 C509 0.930 . S
H514 C511 0.929 . S
S515 N516 1.613 . S
S515 N517 1.610 . S
N516 S515 1.613 . S
N516 C519 1.350 . S
N517 S515 1.610 . S
N517 C518 1.351 . S
C518 C512 1.428 . S
C518 N517 1.351 . S
C518 C519 1.434 . S
C519 C510 1.429 . S
C519 N516 1.350 . S
C519 C518 1.434 . S
C257 C76 1.931 1_545 S
C259 C98 2.202 . S
C270 C138 2.222 . S
C268 C88 1.942 . S
C281 C178 2.231 . S
C279 C52 1.967 . S
C292 C218 2.215 1_455 S
C290 C64 1.946 1_455 S
C303 C111 2.206 1_554 S
C301 C28 1.928 . S
C312 C40 1.938 . S
C314 C151 2.223 1_554 S
C323 C4 1.951 . S
C325 C191 2.232 1_554 S
C334 C16 1.935 . S
C336 C231 2.215 1_654 S
C347 C122 0.749 . S
C345 C69 0.744 . S
C358 C162 0.758 . S
C356 C81 0.748 1_565 S
C369 C202 0.736 . S
C367 C93 0.752 . S
C378 C57 0.740 . S
C380 C242 0.742 . S
C389 C21 0.746 1_655 S
C391 C105 0.754 . S
C402 C145 0.743 . S
C400 C33 0.762 1_565 S
C413 C185 0.746 . S
C411 C45 0.731 . S
C422 C9 0.730 . S
C424 C225 0.751 . S
C433 C66 2.241 . S
C435 C99 2.574 . S
C444 C78 2.201 . S
C446 C139 2.536 . S
C457 C179 2.521 . S
C455 C90 2.183 . S
C468 C219 2.564 . S
C466 C54 2.223 . S
C477 C18 2.258 1_655 S
C479 C118 2.579 . S
C490 C158 2.534 . S
C488 C30 2.211 1_565 S
C501 C198 2.522 . S
C499 C42 2.195 . S
C510 C6 2.236 . S
C512 C238 2.568 . S
