# Generated by pormake.
# Topology pyr, (3,6)-cn, num edge types: 1
# Building blocks:
#     Node 0, Type 0, BuildingBlock: VETTIZ_charged_linker_0, # of connection points: 3
#     Node 1, Type 0, BuildingBlock: VETTIZ_charged_linker_0, # of connection points: 3
#     Node 2, Type 0, BuildingBlock: VETTIZ_charged_linker_0, # of connection points: 3
#     Node 3, Type 0, BuildingBlock: VETTIZ_charged_linker_0, # of connection points: 3
#     Node 4, Type 0, BuildingBlock: VETTIZ_charged_linker_0, # of connection points: 3
#     Node 5, Type 0, BuildingBlock: VETTIZ_charged_linker_0, # of connection points: 3
#     Node 6, Type 0, BuildingBlock: VETTIZ_charged_linker_0, # of connection points: 3
#     Node 7, Type 0, BuildingBlock: VETTIZ_charged_linker_0, # of connection points: 3
#     Node 8, Type 1, BuildingBlock: BETFAJ_clean_sbu_0, # of connection points: 6
#     Node 9, Type 1, BuildingBlock: BETFAJ_clean_sbu_0, # of connection points: 6
#     Node 10, Type 1, BuildingBlock: BETFAJ_clean_sbu_0, # of connection points: 6
#     Node 11, Type 1, BuildingBlock: BETFAJ_clean_sbu_0, # of connection points: 6
#     Edge 12, Type (0, 1), BuildingBlock: MIFKUJ_clean_linker_0, # of connection points: 2
#     Edge 13, Type (0, 1), BuildingBlock: MIFKUJ_clean_linker_0, # of connection points: 2
#     Edge 14, Type (0, 1), BuildingBlock: MIFKUJ_clean_linker_0, # of connection points: 2
#     Edge 15, Type (0, 1), BuildingBlock: MIFKUJ_clean_linker_0, # of connection points: 2
#     Edge 16, Type (0, 1), BuildingBlock: MIFKUJ_clean_linker_0, # of connection points: 2
#     Edge 17, Type (0, 1), BuildingBlock: MIFKUJ_clean_linker_0, # of connection points: 2
#     Edge 18, Type (0, 1), BuildingBlock: MIFKUJ_clean_linker_0, # of connection points: 2
#     Edge 19, Type (0, 1), BuildingBlock: MIFKUJ_clean_linker_0, # of connection points: 2
#     Edge 20, Type (0, 1), BuildingBlock: MIFKUJ_clean_linker_0, # of connection points: 2
#     Edge 21, Type (0, 1), BuildingBlock: MIFKUJ_clean_linker_0, # of connection points: 2
#     Edge 22, Type (0, 1), BuildingBlock: MIFKUJ_clean_linker_0, # of connection points: 2
#     Edge 23, Type (0, 1), BuildingBlock: MIFKUJ_clean_linker_0, # of connection points: 2
#     Edge 24, Type (0, 1), BuildingBlock: MIFKUJ_clean_linker_0, # of connection points: 2
#     Edge 25, Type (0, 1), BuildingBlock: MIFKUJ_clean_linker_0, # of connection points: 2
#     Edge 26, Type (0, 1), BuildingBlock: MIFKUJ_clean_linker_0, # of connection points: 2
#     Edge 27, Type (0, 1), BuildingBlock: MIFKUJ_clean_linker_0, # of connection points: 2
#     Edge 28, Type (0, 1), BuildingBlock: MIFKUJ_clean_linker_0, # of connection points: 2
#     Edge 29, Type (0, 1), BuildingBlock: MIFKUJ_clean_linker_0, # of connection points: 2
#     Edge 30, Type (0, 1), BuildingBlock: MIFKUJ_clean_linker_0, # of connection points: 2
#     Edge 31, Type (0, 1), BuildingBlock: MIFKUJ_clean_linker_0, # of connection points: 2
#     Edge 32, Type (0, 1), BuildingBlock: MIFKUJ_clean_linker_0, # of connection points: 2
#     Edge 33, Type (0, 1), BuildingBlock: MIFKUJ_clean_linker_0, # of connection points: 2
#     Edge 34, Type (0, 1), BuildingBlock: MIFKUJ_clean_linker_0, # of connection points: 2
#     Edge 35, Type (0, 1), BuildingBlock: MIFKUJ_clean_linker_0, # of connection points: 2
# Relax obj value: 0.073
# Max RMSD: 0.116
# Mean RMSD: 0.055
data_MOF--net-pyr--node1-BETFAJ_clean_sbu_0--node2-VETTIZ_charged_linker_0--edge1-MIFKUJ_clean_linker_0
_symmetry_space_group_name_H-M    P1
_symmetry_Int_Tables_number       1
_symmetry_cell_setting            triclinic
loop_
_symmetry_equiv_pos_as_xyz
'x, y, z'
_cell_length_a     56.863235
_cell_length_b     61.044354
_cell_length_c     55.641555
_cell_angle_alpha  91.496387
_cell_angle_beta   88.753072
_cell_angle_gamma 98.571541
loop_
_atom_site_label
_atom_site_type_symbol
_atom_site_fract_x
_atom_site_fract_y
_atom_site_fract_z
_atom_type_partial_charge
C0 C 0.28172 0.23252 0.30094 0.0
C1 C 0.26439 0.24388 0.31197 0.0
C2 C 0.26022 0.26403 0.30229 0.0
C3 C 0.28667 0.25886 0.26867 0.0
C4 C 0.29267 0.24034 0.27935 0.0
C5 C 0.31029 0.22961 0.26424 0.0
H6 H 0.36248 0.21658 0.15575 0.0
C7 C 0.29806 0.2606 0.24458 0.0
C8 C 0.31231 0.2438 0.24197 0.0
H9 H 0.37274 0.18393 0.22206 0.0
H10 H 0.34772 0.20669 0.24332 0.0
H11 H 0.36823 0.2669 0.1805 0.0
H12 H 0.30693 0.2187 0.16362 0.0
H13 H 0.30109 0.24492 0.15537 0.0
H14 H 0.32515 0.23335 0.14071 0.0
H15 H 0.35947 0.25987 0.15012 0.0
H16 H 0.34668 0.28062 0.16754 0.0
C17 C 0.33407 0.23197 0.27791 0.0
C18 C 0.29922 0.20533 0.25852 0.0
C19 C 0.26874 0.31114 0.18506 0.0
C20 C 0.2715 0.31332 0.16007 0.0
C21 C 0.28838 0.3022 0.14777 0.0
C22 C 0.30127 0.28818 0.16009 0.0
C23 C 0.29711 0.28513 0.18491 0.0
C24 C 0.28136 0.29689 0.19697 0.0
C25 C 0.27795 0.29091 0.22291 0.0
C26 C 0.29435 0.27361 0.22463 0.0
C27 C 0.30551 0.27017 0.20234 0.0
C28 C 0.2865 0.31183 0.2386 0.0
C29 C 0.25139 0.28102 0.22679 0.0
C30 C 0.35961 0.21449 0.17491 0.0
C31 C 0.36936 0.19807 0.18708 0.0
C32 C 0.365 0.19597 0.21204 0.0
C33 C 0.35058 0.20932 0.22445 0.0
C34 C 0.34028 0.22499 0.21189 0.0
C35 C 0.34532 0.22782 0.18767 0.0
C36 C 0.33334 0.24592 0.17759 0.0
C37 C 0.32051 0.25353 0.19984 0.0
C38 C 0.32426 0.24081 0.21971 0.0
C39 C 0.35281 0.26433 0.16824 0.0
C40 C 0.31577 0.23538 0.15817 0.0
H41 H 0.26672 0.28661 0.27387 0.0
H42 H 0.28556 0.21713 0.30808 0.0
H43 H 0.28057 0.20458 0.25252 0.0
H44 H 0.30865 0.19749 0.24392 0.0
H45 H 0.29897 0.19498 0.27468 0.0
H46 H 0.33538 0.24554 0.29178 0.0
H47 H 0.33599 0.21647 0.28722 0.0
H48 H 0.34971 0.2365 0.26585 0.0
H49 H 0.25624 0.31975 0.19514 0.0
H50 H 0.29087 0.30361 0.12849 0.0
H51 H 0.31343 0.27972 0.1497 0.0
H52 H 0.30081 0.3231 0.22927 0.0
H53 H 0.27171 0.32139 0.24283 0.0
H54 H 0.29457 0.30782 0.25556 0.0
H55 H 0.24465 0.27054 0.21102 0.0
H56 H 0.24814 0.26993 0.24217 0.0
H57 H 0.24014 0.29434 0.22917 0.0
H58 H 0.24754 0.27348 0.31085 0.0
C59 C 0.27135 0.27162 0.28079 0.0
C60 C 0.2521 0.88406 0.57101 0.0
C61 C 0.2408 0.89651 0.58805 0.0
C62 C 0.24973 0.89962 0.61146 0.0
C63 C 0.28156 0.87883 0.60036 0.0
C64 C 0.27229 0.87522 0.5776 0.0
C65 C 0.28612 0.86099 0.56198 0.0
H66 H 0.37791 0.80253 0.55024 0.0
C67 C 0.30296 0.86793 0.60122 0.0
C68 C 0.30567 0.85731 0.57889 0.0
H69 H 0.32303 0.80717 0.49882 0.0
H70 H 0.30592 0.83264 0.52567 0.0
H71 H 0.38676 0.85552 0.56602 0.0
H72 H 0.3448 0.79724 0.59494 0.0
H73 H 0.35743 0.81324 0.61939 0.0
H74 H 0.37659 0.80253 0.5972 0.0
H75 H 0.39979 0.83463 0.58088 0.0
H76 H 0.38946 0.85728 0.59742 0.0
C77 C 0.29609 0.87452 0.5399 0.0
C78 C 0.26955 0.83914 0.55569 0.0
C79 C 0.35306 0.87698 0.67601 0.0
C80 C 0.3742 0.86936 0.68227 0.0
C81 C 0.38506 0.85607 0.66557 0.0
C82 C 0.375 0.8505 0.64302 0.0
C83 C 0.35385 0.85832 0.63709 0.0
C84 C 0.34324 0.87125 0.65354 0.0
C85 C 0.32087 0.87811 0.64431 0.0
C86 C 0.31988 0.86733 0.61944 0.0
C87 C 0.3392 0.8558 0.61529 0.0
C88 C 0.32458 0.90375 0.64326 0.0
C89 C 0.29975 0.86806 0.66066 0.0
C90 C 0.36258 0.80947 0.54441 0.0
C91 C 0.35194 0.80303 0.52226 0.0
C92 C 0.33153 0.81191 0.5158 0.0
C93 C 0.32161 0.8266 0.53145 0.0
C94 C 0.33208 0.83229 0.55388 0.0
C95 C 0.35238 0.82391 0.55988 0.0
C96 C 0.36069 0.83102 0.58472 0.0
C97 C 0.34178 0.84475 0.59287 0.0
C98 C 0.32513 0.84553 0.57473 0.0
C99 C 0.38554 0.84525 0.58236 0.0
C100 C 0.36007 0.81002 0.59997 0.0
H101 H 0.27627 0.89408 0.63571 0.0
H102 H 0.24527 0.88115 0.553 0.0
H103 H 0.2562 0.83459 0.57032 0.0
H104 H 0.2792 0.82474 0.55375 0.0
H105 H 0.25965 0.84068 0.53897 0.0
H106 H 0.30282 0.89195 0.54537 0.0
H107 H 0.28207 0.87488 0.52637 0.0
H108 H 0.31138 0.86819 0.5311 0.0
H109 H 0.34445 0.88756 0.68819 0.0
H110 H 0.40125 0.84982 0.67002 0.0
H111 H 0.38405 0.84031 0.63111 0.0
H112 H 0.34293 0.91015 0.63682 0.0
H113 H 0.32204 0.91133 0.66132 0.0
H114 H 0.31274 0.91008 0.63053 0.0
H115 H 0.3032 0.85239 0.66875 0.0
H116 H 0.2831 0.86331 0.65065 0.0
H117 H 0.29653 0.87968 0.67566 0.0
H118 H 0.24122 0.90922 0.62479 0.0
C119 C 0.27012 0.89091 0.61769 0.0
C120 C 0.63901 0.27683 0.8837 0.0
C121 C 0.61843 0.26295 0.87552 0.0
C122 C 0.60676 0.27036 0.85564 0.0
C123 C 0.63557 0.30443 0.85314 0.0
C124 C 0.64715 0.29715 0.87239 0.0
C125 C 0.66887 0.31327 0.8791 0.0
H126 H 0.74387 0.40957 0.86264 0.0
C127 C 0.64876 0.32661 0.84574 0.0
C128 C 0.66836 0.33164 0.86117 0.0
H129 H 0.74852 0.35869 0.91428 0.0
H130 H 0.71262 0.33756 0.89931 0.0
H131 H 0.68812 0.40979 0.86991 0.0
H132 H 0.7263 0.37533 0.81707 0.0
H133 H 0.70482 0.388 0.80248 0.0
H134 H 0.72811 0.40496 0.81872 0.0
H135 H 0.70271 0.42363 0.8444 0.0
H136 H 0.67259 0.40924 0.84293 0.0
C137 C 0.66531 0.32155 0.9053 0.0
C138 C 0.69097 0.30142 0.87506 0.0
C139 C 0.62124 0.37049 0.77547 0.0
C140 C 0.62956 0.3918 0.76592 0.0
C141 C 0.64921 0.40446 0.77755 0.0
C142 C 0.66065 0.39626 0.79684 0.0
C143 C 0.65252 0.37504 0.80562 0.0
C144 C 0.63281 0.36261 0.79532 0.0
C145 C 0.626 0.34086 0.80833 0.0
C146 C 0.64511 0.34218 0.8276 0.0
C147 C 0.66082 0.36235 0.82567 0.0
C148 C 0.60094 0.34066 0.81963 0.0
C149 C 0.62762 0.32155 0.7902 0.0
C150 C 0.73714 0.39393 0.87083 0.0
C151 C 0.74972 0.38589 0.88966 0.0
C152 C 0.73994 0.36531 0.89949 0.0
C153 C 0.71879 0.35299 0.89082 0.0
C154 C 0.70671 0.36105 0.8719 0.0
C155 C 0.71587 0.38126 0.86225 0.0
C156 C 0.70039 0.38717 0.84229 0.0
C157 C 0.68075 0.36709 0.84133 0.0
C158 C 0.68452 0.35183 0.85885 0.0
C159 C 0.69049 0.40865 0.85003 0.0
C160 C 0.71559 0.38915 0.81883 0.0
H161 H 0.60531 0.29524 0.82961 0.0
H162 H 0.64895 0.27189 0.89848 0.0
H163 H 0.68846 0.28949 0.85953 0.0
H164 H 0.70723 0.31291 0.87039 0.0
H165 H 0.69435 0.29198 0.89111 0.0
H166 H 0.64645 0.32377 0.9088 0.0
H167 H 0.66991 0.30951 0.91841 0.0
H168 H 0.6757 0.33796 0.90925 0.0
H169 H 0.60622 0.35999 0.76763 0.0
H170 H 0.65583 0.42114 0.7721 0.0
H171 H 0.67549 0.40696 0.80435 0.0
H172 H 0.5994 0.35696 0.82847 0.0
H173 H 0.58706 0.3374 0.8057 0.0
H174 H 0.59688 0.3283 0.83379 0.0
H175 H 0.64443 0.32468 0.77941 0.0
H176 H 0.62783 0.30564 0.79906 0.0
H177 H 0.61253 0.31963 0.77758 0.0
H178 H 0.5908 0.26048 0.84879 0.0
C179 C 0.61512 0.29079 0.84454 0.0
C180 C 0.90315 0.75133 0.36404 0.0
C181 C 0.89522 0.76206 0.38496 0.0
C182 C 0.87467 0.7516 0.39706 0.0
C183 C 0.87046 0.72064 0.36818 0.0
C184 C 0.89066 0.73058 0.35615 0.0
C185 C 0.89695 0.71625 0.33496 0.0
H186 H 0.87133 0.62085 0.26654 0.0
C187 C 0.86147 0.69925 0.35559 0.0
C188 C 0.877 0.69644 0.33603 0.0
H189 H 0.93123 0.67289 0.25809 0.0
H190 H 0.91681 0.69331 0.29167 0.0
H191 H 0.87224 0.62017 0.32571 0.0
H192 H 0.83247 0.65333 0.27657 0.0
H193 H 0.81329 0.64374 0.30045 0.0
H194 H 0.82584 0.62405 0.28119 0.0
H195 H 0.85013 0.60553 0.30623 0.0
H196 H 0.84214 0.6166 0.33507 0.0
C197 C 0.92153 0.70938 0.33954 0.0
C198 C 0.89607 0.72945 0.31176 0.0
C199 C 0.78521 0.65236 0.38677 0.0
C200 C 0.77146 0.63244 0.37867 0.0
C201 C 0.7795 0.62179 0.35786 0.0
C202 C 0.80062 0.63058 0.34556 0.0
C203 C 0.81409 0.65049 0.35385 0.0
C204 C 0.80616 0.66108 0.37407 0.0
C205 C 0.82223 0.68245 0.37989 0.0
C206 C 0.84117 0.68293 0.36001 0.0
C207 C 0.83649 0.66405 0.34482 0.0
C208 C 0.83277 0.68041 0.40505 0.0
C209 C 0.80749 0.70172 0.3779 0.0
C210 C 0.88158 0.63651 0.27198 0.0
C211 C 0.90264 0.64501 0.25922 0.0
C212 C 0.91486 0.66582 0.26704 0.0
C213 C 0.90655 0.67768 0.28682 0.0
C214 C 0.88562 0.66887 0.29936 0.0
C215 C 0.87348 0.6486 0.29175 0.0
C216 C 0.85137 0.64182 0.30693 0.0
C217 C 0.85242 0.66102 0.32515 0.0
C218 C 0.87257 0.67702 0.3207 0.0
C219 C 0.85386 0.61979 0.3191 0.0
C220 C 0.82949 0.64046 0.29056 0.0
H221 H 0.84687 0.72442 0.39905 0.0
H222 H 0.91897 0.75868 0.35435 0.0
H223 H 0.88015 0.73808 0.3121 0.0
H224 H 0.89451 0.71878 0.2954 0.0
H225 H 0.91208 0.74219 0.30991 0.0
H226 H 0.92313 0.70536 0.35878 0.0
H227 H 0.93612 0.72298 0.33514 0.0
H228 H 0.92449 0.69427 0.32934 0.0
H229 H 0.77955 0.66125 0.40243 0.0
H230 H 0.76956 0.60639 0.3512 0.0
H231 H 0.80567 0.62149 0.32999 0.0
H232 H 0.83606 0.66316 0.40797 0.0
H233 H 0.82042 0.68474 0.41956 0.0
H234 H 0.85029 0.69072 0.40733 0.0
H235 H 0.79458 0.6984 0.36303 0.0
H236 H 0.81847 0.71762 0.37343 0.0
H237 H 0.79722 0.70396 0.39477 0.0
H238 H 0.86785 0.75938 0.41293 0.0
C239 C 0.86235 0.7312 0.38885 0.0
C240 C 0.74 0.71817 0.87081 0.0
C241 C 0.75629 0.70515 0.86061 0.0
C242 C 0.76127 0.70619 0.8357 0.0
C243 C 0.73645 0.73482 0.83217 0.0
C244 C 0.73014 0.73272 0.8562 0.0
C245 C 0.713 0.74826 0.86398 0.0
H246 H 0.65599 0.83449 0.83767 0.0
C247 C 0.72524 0.75294 0.82254 0.0
C248 C 0.71097 0.76059 0.84087 0.0
H249 H 0.65332 0.79946 0.90436 0.0
H250 H 0.67851 0.77439 0.88685 0.0
H251 H 0.65333 0.79022 0.80018 0.0
H252 H 0.70833 0.83811 0.83041 0.0
H253 H 0.72013 0.83009 0.80279 0.0
H254 H 0.69382 0.84342 0.80336 0.0
H255 H 0.65833 0.81912 0.79318 0.0
H256 H 0.67388 0.7995 0.77705 0.0
C257 C 0.68911 0.73418 0.87135 0.0
C258 C 0.72466 0.7638 0.88424 0.0
C259 C 0.75596 0.7863 0.74353 0.0
C260 C 0.75292 0.80611 0.73248 0.0
C261 C 0.73418 0.81735 0.74053 0.0
C262 C 0.72002 0.80996 0.76052 0.0
C263 C 0.72487 0.79133 0.77278 0.0
C264 C 0.74208 0.77944 0.76377 0.0
C265 C 0.74574 0.7608 0.77975 0.0
C266 C 0.72854 0.76403 0.80035 0.0
C267 C 0.7164 0.78193 0.79618 0.0
C268 C 0.73838 0.73857 0.76583 0.0
C269 C 0.77202 0.76481 0.78781 0.0
C270 C 0.66046 0.82112 0.8483 0.0
C271 C 0.65257 0.81876 0.8723 0.0
C272 C 0.65928 0.80157 0.88582 0.0
C273 C 0.67386 0.78704 0.87561 0.0
C274 C 0.68215 0.78997 0.85175 0.0
C275 C 0.67531 0.80673 0.83849 0.0
C276 C 0.68692 0.80828 0.81395 0.0
C277 C 0.7012 0.78918 0.81432 0.0
C278 C 0.69845 0.77856 0.83654 0.0
C279 C 0.66718 0.80422 0.79494 0.0
C280 C 0.70304 0.83113 0.81231 0.0
H281 H 0.75633 0.72127 0.80277 0.0
H282 H 0.73548 0.71742 0.88981 0.0
H283 H 0.74388 0.76906 0.88016 0.0
H284 H 0.71702 0.77933 0.88638 0.0
H285 H 0.7232 0.75531 0.90174 0.0
H286 H 0.68571 0.71868 0.86019 0.0
H287 H 0.68918 0.72936 0.89046 0.0
H288 H 0.67362 0.74271 0.86843 0.0
H289 H 0.76992 0.77707 0.73746 0.0
H290 H 0.73142 0.83267 0.73239 0.0
H291 H 0.70662 0.81965 0.76635 0.0
H292 H 0.72536 0.74023 0.75159 0.0
H293 H 0.754 0.7326 0.75696 0.0
H294 H 0.72917 0.72548 0.77757 0.0
H295 H 0.7776 0.7826 0.79269 0.0
H296 H 0.77527 0.75569 0.80391 0.0
H297 H 0.7841 0.76029 0.77316 0.0
H298 H 0.7738 0.69646 0.82738 0.0
C299 C 0.75131 0.72082 0.82145 0.0
C300 C 0.7558 0.12348 0.45782 0.0
C301 C 0.76029 0.10553 0.44291 0.0
C302 C 0.74677 0.1004 0.42204 0.0
C303 C 0.72597 0.13169 0.43032 0.0
C304 C 0.73862 0.13626 0.45123 0.0
C305 C 0.73213 0.15627 0.46469 0.0
H306 H 0.67393 0.24516 0.46587 0.0
C307 C 0.71052 0.14885 0.42792 0.0
C308 C 0.7139 0.16323 0.44809 0.0
H309 H 0.718 0.22633 0.52162 0.0
H310 H 0.72377 0.19307 0.49842 0.0
H311 H 0.6438 0.20207 0.45877 0.0
H312 H 0.70599 0.23048 0.41967 0.0
H313 H 0.68414 0.21936 0.39889 0.0
H314 H 0.67774 0.24034 0.42028 0.0
H315 H 0.64145 0.2177 0.43233 0.0
H316 H 0.64108 0.18815 0.43062 0.0
C317 C 0.72099 0.1488 0.48934 0.0
C318 C 0.75471 0.17385 0.46637 0.0
C319 C 0.66282 0.15102 0.35207 0.0
C320 C 0.6477 0.16559 0.34436 0.0
C321 C 0.64278 0.183 0.35986 0.0
C322 C 0.65331 0.18625 0.38242 0.0
C323 C 0.669 0.172 0.38954 0.0
C324 C 0.67318 0.15449 0.37467 0.0
C325 C 0.68991 0.14075 0.38555 0.0
C326 C 0.69523 0.15309 0.40932 0.0
C327 C 0.68318 0.17148 0.41133 0.0
C328 C 0.67639 0.11704 0.38917 0.0
C329 C 0.71228 0.1419 0.36894 0.0
C330 C 0.68494 0.23388 0.47295 0.0
C331 C 0.69592 0.23828 0.49519 0.0
C332 C 0.70967 0.22317 0.5043 0.0
C333 C 0.7129 0.20398 0.49084 0.0
C334 C 0.70201 0.19995 0.4683 0.0
C335 C 0.68798 0.21466 0.45999 0.0
C336 C 0.67692 0.20756 0.43629 0.0
C337 C 0.68671 0.18611 0.43152 0.0
C338 C 0.70171 0.18187 0.45002 0.0
C339 C 0.64942 0.20375 0.43955 0.0
C340 C 0.6865 0.22533 0.41769 0.0
H341 H 0.7201 0.10873 0.39947 0.0
H342 H 0.766 0.128 0.47388 0.0
H343 H 0.76463 0.17498 0.44888 0.0
H344 H 0.75077 0.1907 0.47047 0.0
H345 H 0.76686 0.16947 0.48025 0.0
H346 H 0.71126 0.1316 0.48814 0.0
H347 H 0.73487 0.14914 0.50315 0.0
H348 H 0.70751 0.15896 0.49584 0.0
H349 H 0.66656 0.13722 0.34071 0.0
H350 H 0.63124 0.19446 0.35428 0.0
H351 H 0.64909 0.19993 0.39327 0.0
H352 H 0.65713 0.11733 0.39286 0.0
H353 H 0.67791 0.10636 0.3729 0.0
H354 H 0.68254 0.10896 0.40493 0.0
H355 H 0.71736 0.15889 0.36194 0.0
H356 H 0.72816 0.13834 0.37824 0.0
H357 H 0.70896 0.13032 0.35324 0.0
H358 H 0.74958 0.08644 0.41048 0.0
C359 C 0.72961 0.11334 0.4157 0.0
C360 C 0.40854 0.66701 0.26435 0.0
C361 C 0.39988 0.64615 0.27456 0.0
C362 C 0.37916 0.63392 0.26455 0.0
C363 C 0.37637 0.66244 0.23514 0.0
C364 C 0.39669 0.67467 0.24458 0.0
C365 C 0.40388 0.69587 0.23074 0.0
H366 H 0.38104 0.76385 0.13971 0.0
C367 C 0.36826 0.67468 0.21458 0.0
C368 C 0.3845 0.69442 0.21176 0.0
H369 H 0.44011 0.77485 0.18825 0.0
H370 H 0.42561 0.74025 0.20779 0.0
H371 H 0.34069 0.74525 0.17998 0.0
H372 H 0.38368 0.71354 0.12932 0.0
H373 H 0.35578 0.69685 0.13039 0.0
H374 H 0.35806 0.72496 0.12024 0.0
H375 H 0.33674 0.74525 0.14806 0.0
H376 H 0.32225 0.72299 0.16619 0.0
C377 C 0.40311 0.71579 0.24825 0.0
C378 C 0.42866 0.6951 0.2191 0.0
C379 C 0.29182 0.64278 0.16962 0.0
C380 C 0.27999 0.65003 0.14974 0.0
C381 C 0.29064 0.66989 0.13886 0.0
C382 C 0.31167 0.68233 0.14762 0.0
C383 C 0.32293 0.67509 0.16758 0.0
C384 C 0.31315 0.65546 0.1781 0.0
C385 C 0.32821 0.65006 0.19867 0.0
C386 C 0.34831 0.66979 0.19895 0.0
C387 C 0.34501 0.6845 0.18068 0.0
C388 C 0.31283 0.64937 0.22199 0.0
C389 C 0.33757 0.62804 0.1922 0.0
C390 C 0.39084 0.75905 0.15468 0.0
C391 C 0.41189 0.77258 0.16223 0.0
C392 C 0.42404 0.76498 0.18164 0.0
C393 C 0.4155 0.74479 0.19314 0.0
C394 C 0.3945 0.73152 0.18526 0.0
C395 C 0.38267 0.73883 0.16621 0.0
C396 C 0.36097 0.72263 0.15962 0.0
C397 C 0.36143 0.70446 0.17782 0.0
C398 C 0.38111 0.70957 0.19311 0.0
C399 C 0.3389 0.73453 0.16344 0.0
C400 C 0.36455 0.71407 0.1335 0.0
H401 H 0.3518 0.63157 0.23885 0.0
H402 H 0.42446 0.6769 0.27125 0.0
H403 H 0.42971 0.67836 0.21113 0.0
H404 H 0.43264 0.7067 0.20419 0.0
H405 H 0.44285 0.6988 0.23266 0.0
H406 H 0.38646 0.71338 0.25935 0.0
H407 H 0.4184 0.7177 0.26062 0.0
H408 H 0.40319 0.7315 0.23889 0.0
H409 H 0.28456 0.62772 0.17866 0.0
H410 H 0.28293 0.67586 0.12315 0.0
H411 H 0.31842 0.69721 0.13835 0.0
H412 H 0.30211 0.66321 0.22263 0.0
H413 H 0.30031 0.6336 0.22298 0.0
H414 H 0.32351 0.6515 0.23843 0.0
H415 H 0.34105 0.62654 0.17252 0.0
H416 H 0.3548 0.6269 0.20049 0.0
H417 H 0.32445 0.61352 0.19742 0.0
H418 H 0.3717 0.61809 0.27191 0.0
C419 C 0.36746 0.64188 0.24524 0.0
C420 C 0.12521 0.28461 0.66918 0.0
C421 C 0.13385 0.27349 0.64884 0.0
C422 C 0.15529 0.28345 0.63782 0.0
C423 C 0.15863 0.31473 0.66622 0.0
C424 C 0.13782 0.30517 0.67747 0.0
C425 C 0.13126 0.31956 0.69852 0.0
H426 H 0.15718 0.41444 0.76788 0.0
C427 C 0.16754 0.33608 0.67893 0.0
C428 C 0.15158 0.3391 0.69804 0.0
H429 H 0.09666 0.3629 0.77537 0.0
H430 H 0.11107 0.34261 0.74167 0.0
H431 H 0.15679 0.4154 0.70852 0.0
H432 H 0.19574 0.38175 0.758 0.0
H433 H 0.21524 0.39152 0.73443 0.0
H434 H 0.20248 0.41108 0.75369 0.0
H435 H 0.17878 0.42986 0.72824 0.0
H436 H 0.18698 0.41878 0.69948 0.0
C437 C 0.10705 0.3269 0.6933 0.0
C438 C 0.13123 0.30618 0.72171 0.0
C439 C 0.24412 0.38274 0.64839 0.0
C440 C 0.25789 0.40275 0.65637 0.0
C441 C 0.24962 0.41341 0.67714 0.0
C442 C 0.22841 0.40465 0.68932 0.0
C443 C 0.215 0.38473 0.68104 0.0
C444 C 0.22311 0.37406 0.66098 0.0
C445 C 0.20714 0.35266 0.65514 0.0
C446 C 0.18799 0.35228 0.67479 0.0
C447 C 0.1925 0.37121 0.68991 0.0
C448 C 0.19687 0.35458 0.62985 0.0
C449 C 0.22186 0.33339 0.65746 0.0
C450 C 0.14681 0.39891 0.76221 0.0
C451 C 0.12558 0.3905 0.77474 0.0
C452 C 0.11317 0.36987 0.76661 0.0
C453 C 0.1215 0.35808 0.74678 0.0
C454 C 0.14266 0.36674 0.73456 0.0
C455 C 0.15494 0.38688 0.74242 0.0
C456 C 0.17726 0.39355 0.72752 0.0
C457 C 0.17629 0.37437 0.70929 0.0
C458 C 0.15592 0.35851 0.7134 0.0
C459 C 0.17509 0.41563 0.71533 0.0
C460 C 0.19892 0.39474 0.74415 0.0
H461 H 0.18362 0.31017 0.6368 0.0
H462 H 0.10883 0.27768 0.6782 0.0
H463 H 0.14677 0.29704 0.72167 0.0
H464 H 0.13285 0.31677 0.73813 0.0
H465 H 0.11484 0.29384 0.72324 0.0
H466 H 0.10627 0.33151 0.67415 0.0
H467 H 0.09216 0.31332 0.6968 0.0
H468 H 0.10391 0.34176 0.70387 0.0
H469 H 0.24935 0.37394 0.63251 0.0
H470 H 0.25973 0.42846 0.68439 0.0
H471 H 0.22334 0.4137 0.70491 0.0
H472 H 0.19266 0.37157 0.62721 0.0
H473 H 0.20981 0.35115 0.61551 0.0
H474 H 0.17991 0.34351 0.62701 0.0
H475 H 0.23567 0.33731 0.67142 0.0
H476 H 0.211 0.31789 0.66346 0.0
H477 H 0.2311 0.3301 0.64024 0.0
H478 H 0.16291 0.27536 0.62263 0.0
C479 C 0.16754 0.30377 0.64626 0.0
Sm480 Sm 0.01767 0.02796 0.49209 0.0
Sm481 Sm 1.00468 1.00852 0.54063 0.0
C482 C 0.02601 0.05279 0.45368 0.0
C483 C 0.0458 0.06997 0.44642 0.0
C484 C 0.04136 0.09137 0.44146 0.0
C485 C 0.06012 0.10801 0.43555 0.0
C486 C 0.0837 0.10351 0.43438 0.0
C487 C 0.08803 0.08199 0.43922 0.0
C488 C 0.06934 0.06545 0.44528 0.0
C489 C 0.05024 1.00374 0.50961 0.0
C490 C 0.03313 0.06 0.53977 0.0
C491 C 0.99898 0.99118 0.5836 0.0
C492 C 0.97978 0.97546 0.59461 0.0
C493 C 0.9848 0.95556 0.6039 0.0
C494 C 0.96644 0.93995 0.61295 0.0
C495 C 0.94272 0.94403 0.61296 0.0
C496 C 0.93784 0.96416 0.60398 0.0
C497 C 0.95612 0.97963 0.59479 0.0
C498 C 0.96642 0.01898 0.51631 0.0
C499 C 0.99235 0.97699 0.49287 0.0
O500 O 1.01279 0.05793 0.47185 0.0
O501 O 0.03068 0.03252 0.45447 0.0
O502 O 0.03978 0.01717 0.52168 0.0
O503 O 0.04474 1.00353 0.48715 0.0
O504 O 0.03508 0.05744 0.51613 0.0
O505 O 0.02206 0.0438 0.55308 0.0
O506 O 1.01152 0.98304 0.56641 0.0
O507 O 0.99373 1.01078 0.57886 0.0
O508 O 0.98664 0.03049 0.51722 0.0
O509 O 0.9653 1.00187 0.52975 0.0
O510 O 1.00059 0.97744 0.51504 0.0
O511 O 0.99263 0.99575 0.48131 0.0
H512 H 0.02339 0.09528 0.4424 0.0
H513 H 0.05617 0.12446 0.43221 0.0
H514 H 0.10588 0.07781 0.43805 0.0
H515 H 0.07341 0.04913 0.44913 0.0
H516 H 1.00288 0.95193 0.60378 0.0
H517 H 0.97079 0.92452 0.61951 0.0
H518 H 0.91987 0.96806 0.60414 0.0
H519 H 0.95159 0.99477 0.58764 0.0
Sm520 Sm 0.53578 0.02109 0.0311 0.0
Sm521 Sm 0.49416 1.01353 1.00503 0.0
C522 C 0.57299 0.03726 0.0574 0.0
C523 C 0.57801 0.05474 0.0759 0.0
C524 C 0.56547 0.07289 0.07695 0.0
C525 C 0.5689 0.08833 0.096 0.0
C526 C 0.58503 0.08585 0.11417 0.0
C527 C 0.59785 0.06784 0.11273 0.0
C528 C 0.59434 0.0524 0.09375 0.0
C529 C 0.50952 0.98015 0.04263 0.0
C530 C 0.49023 0.04309 0.05135 0.0
C531 C 0.45649 0.99765 0.97921 0.0
C532 C 0.45229 0.98587 0.95602 0.0
C533 C 0.46625 0.96983 0.9482 0.0
C534 C 0.46259 0.9594 0.92568 0.0
C535 C 0.44484 0.9648 0.91067 0.0
C536 C 0.43088 0.98084 0.91863 0.0
C537 C 0.4346 0.99128 0.94111 0.0
C538 C 0.52057 0.05441 0.99351 0.0
C539 C 0.54016 0.99123 0.98463 0.0
O540 O 0.5699 0.04364 0.03564 0.0
O541 O 0.55753 0.0203 0.06362 0.0
O542 O 0.50088 0.9981 0.04064 0.0
O543 O 0.53212 0.98356 0.03768 0.0
O544 O 0.51354 0.04596 0.04904 0.0
O545 O 0.47742 0.02774 0.03835 0.0
O546 O 0.4645 0.98676 0.99637 0.0
O547 O 0.46699 0.0181 0.97819 0.0
O548 O 0.52905 0.03637 0.99537 0.0
O549 O 0.49797 0.05111 0.99849 0.0
O550 O 0.51691 0.99049 0.98438 0.0
O551 O 0.553 1.00441 0.99987 0.0
H552 H 0.55278 0.07495 0.06326 0.0
H553 H 0.5589 0.10212 0.09658 0.0
H554 H 0.6101 0.06527 0.12667 0.0
H555 H 0.60397 0.03835 0.09331 0.0
H556 H 0.47999 0.96537 0.95948 0.0
H557 H 0.47346 0.94696 0.92013 0.0
H558 H 0.4173 0.98557 0.90731 0.0
H559 H 0.42379 1.00374 0.94679 0.0
Sm560 Sm 0.52048 0.49748 0.50077 0.0
Sm561 Sm 0.51061 0.53837 0.5366 0.0
C562 C 0.54291 0.47189 0.47234 0.0
C563 C 0.54925 0.44968 0.47422 0.0
C564 C 0.56604 0.44261 0.45818 0.0
C565 C 0.57542 0.42322 0.46249 0.0
C566 C 0.56821 0.41085 0.48303 0.0
C567 C 0.55035 0.41738 0.49828 0.0
C568 C 0.54097 0.43671 0.49393 0.0
C569 C 0.47812 0.48612 0.52679 0.0
C570 C 0.53492 0.49693 0.55935 0.0
C571 C 0.48767 0.56518 0.56272 0.0
C572 C 0.48048 0.58637 0.55671 0.0
C573 C 0.46197 0.59423 0.56965 0.0
C574 C 0.45211 0.61216 0.56125 0.0
C575 C 0.46056 0.62233 0.53967 0.0
C576 C 0.47972 0.61485 0.52724 0.0
C577 C 0.48959 0.59699 0.53569 0.0
C578 C 0.55268 0.54976 0.50996 0.0
C579 C 0.49571 0.53893 0.4784 0.0
O580 O 0.55377 0.48647 0.48764 0.0
O581 O 0.5202 0.47316 0.47037 0.0
O582 O 0.49237 0.50414 0.52764 0.0
O583 O 0.48627 0.47313 0.51077 0.0
O584 O 0.53548 0.48765 0.53739 0.0
O585 O 0.5261 0.51573 0.56363 0.0
O586 O 0.47693 0.54837 0.55011 0.0
O587 O 0.5106 0.56494 0.56468 0.0
O588 O 0.53845 0.53175 0.50941 0.0
O589 O 0.54468 0.56276 0.52603 0.0
O590 O 0.49449 0.5476 0.50052 0.0
O591 O 0.50549 0.52068 0.47395 0.0
H592 H 0.57274 0.45263 0.44302 0.0
H593 H 0.58931 0.41866 0.45059 0.0
H594 H 0.54433 0.40802 0.5141 0.0
H595 H 0.52811 0.44209 0.50657 0.0
H596 H 0.45446 0.58592 0.58565 0.0
H597 H 0.43717 0.6174 0.57106 0.0
H598 H 0.48675 0.62249 0.51072 0.0
H599 H 0.50369 0.59089 0.52529 0.0
Sm600 Sm 0.02043 0.4928 0.02796 0.0
Sm601 Sm 1.01093 0.54191 1.00858 0.0
C602 C 0.03865 0.4555 0.02826 0.0
C603 C 0.05752 0.44545 0.03952 0.0
C604 C 0.07332 0.43561 0.02454 0.0
C605 C 0.09214 0.42674 0.03424 0.0
C606 C 0.09546 0.4274 0.0592 0.0
C607 C 0.07946 0.43705 0.07429 0.0
C608 C 0.06068 0.44615 0.06451 0.0
C609 C 1.00073 0.51814 0.06368 0.0
C610 C 0.06041 0.53813 0.03903 0.0
C611 C 0.99336 0.57954 1.00788 0.0
C612 C 0.97584 0.59012 0.99516 0.0
C613 C 0.9618 0.60323 1.00847 0.0
C614 C 0.94386 0.61237 0.99742 0.0
C615 C 0.93963 0.60866 0.97271 0.0
C616 C 0.95399 0.59565 0.95933 0.0
C617 C 0.97188 0.58637 0.9705 0.0
C618 C 0.03024 0.51652 0.97263 0.0
C619 C 0.97068 0.49651 0.99819 0.0
O620 O 0.04614 0.47177 1.01381 0.0
O621 O 0.01983 0.45867 0.04129 0.0
O622 O 1.00712 0.52299 0.04238 0.0
O623 O 1.00467 0.49789 0.06689 0.0
O624 O 0.05504 0.51611 0.03896 0.0
O625 O 0.04621 0.55112 0.0297 0.0
O626 O 0.98443 0.56284 0.02121 0.0
O627 O 1.01305 0.5765 0.99628 0.0
O628 O 0.02437 0.51177 0.99409 0.0
O629 O 0.02603 0.53668 0.96942 0.0
O630 O 0.97602 0.51855 0.99828 0.0
O631 O 0.98504 0.48351 1.00719 0.0
H632 H 0.07119 0.43493 1.00521 0.0
H633 H 0.10397 0.41913 0.02221 0.0
H634 H 0.0817 0.43787 0.09359 0.0
H635 H 0.04883 0.45385 0.07642 0.0
H636 H 0.96445 0.60608 0.0276 0.0
H637 H 0.93293 0.62191 1.00841 0.0
H638 H 0.95144 0.59266 0.94023 0.0
H639 H 0.98241 0.5761 0.95994 0.0
H640 H 0.21648 0.24212 0.31619 0.0
H641 H 0.18955 0.22198 0.34513 0.0
H642 H 0.24901 0.20106 0.38039 0.0
H643 H 0.27637 0.22133 0.35109 0.0
H644 H 0.21586 0.16699 0.37223 0.0
H645 H 0.21565 0.23782 0.40865 0.0
H646 H 0.21373 0.27789 0.41103 0.0
H647 H 0.14243 0.26621 0.38471 0.0
H648 H 0.14402 0.22609 0.38182 0.0
H649 H 0.12858 0.11119 0.45296 0.0
H650 H 0.1623 0.138 0.43951 0.0
H651 H 0.11785 0.1625 0.38775 0.0
H652 H 0.08422 0.13539 0.40053 0.0
H653 H 0.14789 0.19627 0.4125 0.0
H654 H 0.15218 0.1263 0.36982 0.0
H655 H 0.1545 0.08627 0.36755 0.0
H656 H 0.21932 0.09716 0.4072 0.0
H657 H 0.21719 0.13725 0.40998 0.0
C658 C 0.22399 0.23379 0.33048 0.0
C659 C 0.24863 0.23352 0.33146 0.0
C660 C 0.2085 0.22224 0.34707 0.0
C661 C 0.21724 0.21029 0.36522 0.0
C662 C 0.24189 0.21028 0.3666 0.0
C663 C 0.25748 0.22181 0.34985 0.0
C664 C 0.20026 0.19633 0.38115 0.0
C665 C 0.20137 0.17352 0.38158 0.0
C666 C 0.18114 0.20476 0.39313 0.0
C667 C 0.18001 0.22891 0.39492 0.0
C668 C 0.19961 0.24379 0.40322 0.0
C669 C 0.19857 0.26653 0.40468 0.0
C670 C 0.17798 0.2746 0.398 0.0
C671 C 0.15836 0.25994 0.38989 0.0
C672 C 0.15931 0.23719 0.38838 0.0
C673 C 0.12597 0.12222 0.43865 0.0
C674 C 0.10371 0.12097 0.42766 0.0
C675 C 0.14523 0.13762 0.43113 0.0
C676 C 0.14256 0.1521 0.41257 0.0
C677 C 0.12021 0.15151 0.4022 0.0
C678 C 0.10098 0.13603 0.40958 0.0
C679 C 0.16327 0.16706 0.40288 0.0
C680 C 0.16277 0.18995 0.40363 0.0
C681 C 0.18304 0.15876 0.39215 0.0
C682 C 0.18436 0.1347 0.39037 0.0
C683 C 0.16681 0.12012 0.37823 0.0
C684 C 0.16812 0.09744 0.37682 0.0
C685 C 0.18701 0.08917 0.3873 0.0
C686 C 0.20467 0.10358 0.39914 0.0
C687 C 0.20343 0.12628 0.40064 0.0
H688 H 0.18799 0.0716 0.38618 0.0
H689 H 0.17722 0.2922 0.39914 0.0
H690 H 0.42142 0.88173 0.69252 0.0
H691 H 0.4382 0.89634 0.73095 0.0
H692 H 0.36802 0.88704 0.76349 0.0
H693 H 0.35122 0.87173 0.72561 0.0
H694 H 0.39437 0.93133 0.76711 0.0
H695 H 0.40316 0.85437 0.77899 0.0
H696 H 0.41809 0.81943 0.76822 0.0
H697 H 0.49001 0.85288 0.77101 0.0
H698 H 0.47547 0.88812 0.78147 0.0
H699 H 0.4023 0.94879 0.89056 0.0
H700 H 0.39527 0.93215 0.85055 0.0
H701 H 0.47094 0.93887 0.8368 0.0
H702 H 0.47816 0.95571 0.87699 0.0
H703 H 0.44791 0.89872 0.82068 0.0
H704 H 0.44096 0.97444 0.81198 0.0
H705 H 0.42775 1.01034 0.82179 0.0
H706 H 0.35512 0.9813 0.81091 0.0
H707 H 0.36785 0.94511 0.8014 0.0
C708 C 0.40964 0.88229 0.70801 0.0
C709 C 0.38494 0.87584 0.70594 0.0
C710 C 0.41925 0.89073 0.72988 0.0
C711 C 0.40427 0.89288 0.74987 0.0
C712 C 0.37979 0.88566 0.74812 0.0
C713 C 0.37023 0.87704 0.72644 0.0
C714 C 0.41359 0.90405 0.77226 0.0
C715 C 0.40594 0.92416 0.77894 0.0
C716 C 0.42951 0.89509 0.78701 0.0
C717 C 0.43822 0.87393 0.7807 0.0
C718 C 0.42215 0.85433 0.77705 0.0
C719 C 0.43054 0.83446 0.77107 0.0
C720 C 0.45498 0.83395 0.76885 0.0
C721 C 0.47108 0.85331 0.77268 0.0
C722 C 0.46278 0.87323 0.77865 0.0
C723 C 0.41745 0.94685 0.87899 0.0
C724 C 0.44076 0.95377 0.88679 0.0
C725 C 0.41342 0.9373 0.85617 0.0
C726 C 0.43259 0.93463 0.84062 0.0
C727 C 0.45593 0.94087 0.84856 0.0
C728 C 0.46 0.95042 0.87148 0.0
C729 C 0.42793 0.92562 0.81598 0.0
C730 C 0.43657 0.90605 0.80876 0.0
C731 C 0.41316 0.93525 0.80046 0.0
C732 C 0.40536 0.957 0.80615 0.0
C733 C 0.42215 0.97565 0.81187 0.0
C734 C 0.41475 0.99607 0.81735 0.0
C735 C 0.39061 0.99809 0.81702 0.0
C736 C 0.37382 0.97971 0.81117 0.0
C737 C 0.38112 0.95924 0.80571 0.0
H738 H 0.38492 1.01392 0.82126 0.0
H739 H 0.46145 0.81855 0.76423 0.0
H740 H 0.65 0.42363 0.73337 0.0
H741 H 0.6318 0.44061 0.701 0.0
H742 H 0.56572 0.39796 0.71392 0.0
H743 H 0.58322 0.38168 0.7479 0.0
H744 H 0.58427 0.4023 0.6617 0.0
H745 H 0.56463 0.44662 0.7301 0.0
H746 H 0.57391 0.46984 0.76657 0.0
H747 H 0.62144 0.51653 0.72544 0.0
H748 H 0.61271 0.49339 0.68878 0.0
H749 H 0.52314 0.45349 0.57268 0.0
H750 H 0.53586 0.43523 0.60762 0.0
H751 H 0.58196 0.4954 0.6276 0.0
H752 H 0.56696 0.51419 0.59406 0.0
H753 H 0.5716 0.48089 0.66559 0.0
H754 H 0.60064 0.43625 0.60131 0.0
H755 H 0.59962 0.41213 0.56514 0.0
H756 H 0.54214 0.36734 0.59615 0.0
H757 H 0.54347 0.39097 0.63295 0.0
C758 C 0.63139 0.41799 0.73014 0.0
C759 C 0.61826 0.40126 0.74436 0.0
C760 C 0.62101 0.42775 0.7111 0.0
C761 C 0.5972 0.42091 0.70484 0.0
C762 C 0.58411 0.40375 0.71825 0.0
C763 C 0.59434 0.39426 0.73777 0.0
C764 C 0.58638 0.43157 0.68417 0.0
C765 C 0.58113 0.41941 0.66269 0.0
C766 C 0.58305 0.45417 0.68476 0.0
C767 C 0.58818 0.46816 0.70674 0.0
C768 C 0.57722 0.46173 0.72887 0.0
C769 C 0.58234 0.4749 0.74957 0.0
C770 C 0.59829 0.49462 0.74834 0.0
C771 C 0.6091 0.50124 0.72638 0.0
C772 C 0.60406 0.48811 0.70563 0.0
C773 C 0.53605 0.46282 0.58452 0.0
C774 C 0.54404 0.48538 0.58027 0.0
C775 C 0.54377 0.45216 0.60458 0.0
C776 C 0.56082 0.46328 0.62065 0.0
C777 C 0.56886 0.48593 0.61611 0.0
C778 C 0.56036 0.49681 0.59661 0.0
C779 C 0.56972 0.45181 0.64232 0.0
C780 C 0.57463 0.46379 0.66422 0.0
C781 C 0.57349 0.42917 0.64191 0.0
C782 C 0.57189 0.4155 0.61959 0.0
C783 C 0.58765 0.42136 0.60027 0.0
C784 C 0.58707 0.40771 0.5797 0.0
C785 C 0.57055 0.38832 0.57816 0.0
C786 C 0.55481 0.38241 0.59732 0.0
C787 C 0.55559 0.39583 0.6181 0.0
H788 H 0.56999 0.37775 0.56222 0.0
H789 H 0.60224 0.5048 0.76438 0.0
H790 H 0.90116 0.59964 0.25261 0.0
H791 H 0.91684 0.57936 0.21892 0.0
H792 H 0.94174 0.64092 0.18407 0.0
H793 H 0.9254 0.66131 0.21735 0.0
H794 H 0.92402 0.61103 0.15093 0.0
H795 H 0.98 0.61109 0.21413 0.0
H796 H 0.99312 0.60483 0.25501 0.0
H797 H 0.96698 0.53537 0.24704 0.0
H798 H 0.95341 0.54127 0.2062 0.0
H799 H 1.0003 0.56356 0.06508 0.0
H800 H 0.98356 0.5858 0.09675 0.0
H801 H 0.96042 0.52653 0.13654 0.0
H802 H 0.97733 0.5045 0.10514 0.0
H803 H 0.97803 0.55658 0.16682 0.0
H804 H 0.92124 0.55627 0.10415 0.0
H805 H 0.90808 0.56216 0.06318 0.0
H806 H 0.93557 0.63142 0.06984 0.0
H807 H 0.94914 0.62591 0.1108 0.0
C808 C 0.90972 0.60898 0.23772 0.0
C809 C 0.91197 0.63233 0.23811 0.0
C810 C 0.91898 0.59727 0.21842 0.0
C811 C 0.93096 0.60844 0.19879 0.0
C812 C 0.93278 0.6317 0.19886 0.0
C813 C 0.92356 0.64344 0.21818 0.0
C814 C 0.94178 0.59594 0.17849 0.0
C815 C 0.93607 0.59934 0.15447 0.0
C816 C 0.95727 0.58027 0.1827 0.0
C817 C 0.96548 0.57666 0.2072 0.0
C818 C 0.97689 0.59451 0.22116 0.0
C819 C 0.98444 0.59102 0.24431 0.0
C820 C 0.98083 0.56973 0.25364 0.0
C821 C 0.96973 0.55186 0.2398 0.0
C822 C 0.96213 0.55526 0.21665 0.0
C823 C 0.99124 0.55524 0.08034 0.0
C824 C 0.98983 0.53212 0.08223 0.0
C825 C 0.98167 0.56801 0.09861 0.0
C826 C 0.97025 0.55802 0.11925 0.0
C827 C 0.96901 0.5349 0.12104 0.0
C828 C 0.97866 0.52221 0.10291 0.0
C829 C 0.96007 0.5714 0.13922 0.0
C830 C 0.96596 0.56823 0.16322 0.0
C831 C 0.94471 0.58721 0.13496 0.0
C832 C 0.93639 0.59064 0.11046 0.0
C833 C 0.9246 0.57274 0.09683 0.0
C834 C 0.91705 0.57601 0.07362 0.0
C835 C 0.92101 0.59714 0.06391 0.0
C836 C 0.93251 0.61506 0.0774 0.0
C837 C 0.94012 0.61188 0.10062 0.0
H838 H 0.91511 0.59964 0.04596 0.0
H839 H 0.98668 0.56706 0.27157 0.0
H840 H 0.40178 0.20743 0.14996 0.0
H841 H 0.42368 0.18158 0.12766 0.0
H842 H 0.39103 0.12831 0.17221 0.0
H843 H 0.36863 0.15375 0.19413 0.0
H844 H 0.43934 0.12782 0.16507 0.0
H845 H 0.36986 0.13305 0.11826 0.0
H846 H 0.34258 0.15289 0.09632 0.0
H847 H 0.39956 0.17851 0.0482 0.0
H848 H 0.42726 0.15906 0.0701 0.0
H849 H 0.44253 0.04375 0.05795 0.0
H850 H 0.42332 0.07047 0.08183 0.0
H851 H 0.49204 0.10429 0.10315 0.0
H852 H 0.51138 0.07749 0.07962 0.0
H853 H 0.42616 0.11478 0.07764 0.0
H854 H 0.48709 0.12549 0.15969 0.0
H855 H 0.51348 0.10402 0.18083 0.0
H856 H 0.47047 0.04331 0.15869 0.0
H857 H 0.44362 0.06438 0.13777 0.0
C858 C 0.39913 0.19019 0.15492 0.0
C859 C 0.3834 0.18271 0.17387 0.0
C860 C 0.41177 0.17548 0.14226 0.0
C861 C 0.40894 0.15303 0.14828 0.0
C862 C 0.39362 0.1456 0.16741 0.0
C863 C 0.38088 0.16023 0.17997 0.0
C864 C 0.42118 0.13702 0.13414 0.0
C865 C 0.43656 0.12504 0.14593 0.0
C866 C 0.41734 0.13323 0.10924 0.0
C867 C 0.40067 0.14479 0.09597 0.0
C868 C 0.37661 0.14306 0.10312 0.0
C869 C 0.36107 0.1542 0.09067 0.0
C870 C 0.36935 0.167 0.07092 0.0
C871 C 0.39318 0.16862 0.06353 0.0
C872 C 0.4088 0.15753 0.07594 0.0
C873 C 0.45357 0.05676 0.06787 0.0
C874 C 0.4785 0.05844 0.06691 0.0
C875 C 0.44256 0.0721 0.08139 0.0
C876 C 0.45623 0.08933 0.09431 0.0
C877 C 0.48113 0.09099 0.09351 0.0
C878 C 0.49216 0.07565 0.08002 0.0
C879 C 0.44438 0.1056 0.10853 0.0
C880 C 0.4291 0.11767 0.09674 0.0
C881 C 0.44812 0.10929 0.13347 0.0
C882 C 0.4635 0.09652 0.14698 0.0
C883 C 0.48318 0.10757 0.1595 0.0
C884 C 0.49824 0.09547 0.17139 0.0
C885 C 0.49373 0.07233 0.17096 0.0
C886 C 0.47399 0.06123 0.1589 0.0
C887 C 0.45885 0.07324 0.14703 0.0
H888 H 0.5055 0.06297 0.17994 0.0
H889 H 0.35729 0.17562 0.0613 0.0
H890 H 0.19745 0.89308 0.61066 0.0
H891 H 0.16318 0.91053 0.59922 0.0
H892 H 0.20379 0.94087 0.53926 0.0
H893 H 0.23786 0.92316 0.55033 0.0
H894 H 0.1782 0.97008 0.57016 0.0
H895 H 0.16783 0.89997 0.52543 0.0
H896 H 0.16383 0.85925 0.52179 0.0
H897 H 0.10218 0.85316 0.56848 0.0
H898 H 0.10606 0.89388 0.5727 0.0
H899 H 0.07478 0.97487 0.48554 0.0
H900 H 0.10546 0.95535 0.50146 0.0
H901 H 0.09563 0.98458 0.57174 0.0
H902 H 0.06507 1.00432 0.55584 0.0
H903 H 0.10513 0.92533 0.5378 0.0
H904 H 0.15075 0.99697 0.59635 0.0
H905 H 0.15448 0.03776 0.59955 0.0
H906 H 0.14631 0.04095 0.52324 0.0
H907 H 0.14277 1.00023 0.51958 0.0
C908 C 0.19896 0.90349 0.59506 0.0
C909 C 0.22011 0.90678 0.58126 0.0
C910 C 0.17948 0.91338 0.58858 0.0
C911 C 0.18112 0.92694 0.56847 0.0
C912 C 0.20232 0.93047 0.55487 0.0
C913 C 0.22163 0.92028 0.56109 0.0
C914 C 0.1606 0.93723 0.56126 0.0
C915 C 0.16215 0.96033 0.56321 0.0
C916 C 0.13979 0.92441 0.55222 0.0
C917 C 0.1374 0.89995 0.54961 0.0
C918 C 0.15356 0.88994 0.53512 0.0
C919 C 0.15129 0.86686 0.53291 0.0
C920 C 0.13281 0.85362 0.54496 0.0
C921 C 0.11652 0.86343 0.5592 0.0
C922 C 0.11874 0.88651 0.56149 0.0
C923 C 0.07913 0.97705 0.50439 0.0
C924 C 0.06784 0.99124 0.51943 0.0
C925 C 0.09651 0.96581 0.51348 0.0
C926 C 0.10289 0.96871 0.53769 0.0
C927 C 0.09109 0.98235 0.55293 0.0
C928 C 0.07369 0.99359 0.54385 0.0
C929 C 0.12272 0.95824 0.54657 0.0
C930 C 0.12104 0.93509 0.545 0.0
C931 C 0.14346 0.97104 0.55591 0.0
C932 C 0.14629 0.99557 0.55774 0.0
C933 C 0.14988 1.00641 0.58025 0.0
C934 C 0.15192 0.0295 0.58215 0.0
C935 C 0.15057 0.04193 0.56162 0.0
C936 C 0.14728 0.0313 0.53914 0.0
C937 C 0.14523 1.00822 0.53714 0.0
H938 H 0.15211 0.0598 0.56314 0.0
H939 H 0.13107 0.83575 0.54322 0.0
H940 H 0.76331 0.43136 0.89606 0.0
H941 H 0.79991 0.45103 0.91368 0.0
H942 H 0.82536 0.38881 0.92296 0.0
H943 H 0.7891 0.36915 0.90533 0.0
H944 H 0.83381 0.4128 0.9623 0.0
H945 H 0.84784 0.4277 0.87823 0.0
H946 H 0.83893 0.44122 0.83854 0.0
H947 H 0.83867 0.5066 0.86888 0.0
H948 H 0.84729 0.49339 0.90882 0.0
H949 H 0.95446 0.452 0.99026 0.0
H950 H 0.91758 0.4347 0.97162 0.0
H951 H 0.89711 0.49907 0.9621 0.0
H952 H 0.93435 0.51655 0.98023 0.0
H953 H 0.88518 0.47534 0.92362 0.0
H954 H 0.87157 0.4613 1.00719 0.0
H955 H 0.87991 0.44835 0.0473 0.0
H956 H 0.87836 0.38215 0.01869 0.0
H957 H 0.87031 0.39476 0.97832 0.0
C958 C 0.77678 0.42182 0.90153 0.0
C959 C 0.77281 0.39847 0.89926 0.0
C960 C 0.79786 0.43316 0.91172 0.0
C961 C 0.81582 0.42159 0.91976 0.0
C962 C 0.81196 0.39834 0.91721 0.0
C963 C 0.79098 0.38702 0.9071 0.0
C964 C 0.83834 0.43338 0.93122 0.0
C965 C 0.84513 0.42628 0.95359 0.0
C966 C 0.8531 0.45153 0.92054 0.0
C967 C 0.84796 0.4595 0.89655 0.0
C968 C 0.84571 0.44492 0.87647 0.0
C969 C 0.84074 0.45254 0.85392 0.0
C970 C 0.83817 0.47474 0.8512 0.0
C971 C 0.84063 0.48939 0.87102 0.0
C972 C 0.84557 0.48186 0.89361 0.0
C973 C 0.94215 0.46258 0.98433 0.0
C974 C 0.94763 0.48582 0.98706 0.0
C975 C 0.92082 0.45257 0.97368 0.0
C976 C 0.90396 0.46537 0.96562 0.0
C977 C 0.90952 0.4886 0.96809 0.0
C978 C 0.93094 0.49865 0.97863 0.0
C979 C 0.88077 0.45458 0.95458 0.0
C980 C 0.87384 0.46187 0.93234 0.0
C981 C 0.86577 0.43668 0.96544 0.0
C982 C 0.87056 0.42902 0.98969 0.0
C983 C 0.87317 0.44401 1.00942 0.0
C984 C 0.87783 0.43673 0.03221 0.0
C985 C 0.87973 0.41446 0.03553 0.0
C986 C 0.87692 0.3994 1.01608 0.0
C987 C 0.87229 0.4066 0.99325 0.0
H988 H 0.88333 0.40885 0.05319 0.0
H989 H 0.83433 0.48061 0.83374 0.0
H990 H 0.72852 0.61428 0.35931 0.0
H991 H 0.69169 0.59878 0.38034 0.0
H992 H 0.72594 0.6131 0.44844 0.0
H993 H 0.76286 0.62873 0.4275 0.0
H994 H 0.69827 0.57055 0.44661 0.0
H995 H 0.6892 0.64604 0.43017 0.0
H996 H 0.68845 0.6781 0.40428 0.0
H997 H 0.6324 0.64099 0.36308 0.0
H998 H 0.63305 0.60859 0.38854 0.0
H999 H 0.57946 0.59035 0.50851 0.0
H1000 H 0.6157 0.60244 0.48522 0.0
H1001 H 0.6129 0.53671 0.45417 0.0
H1002 H 0.57604 0.52457 0.47734 0.0
H1003 H 0.62485 0.60403 0.4368 0.0
H1004 H 0.67294 0.52841 0.44536 0.0
H1005 H 0.67392 0.49725 0.47252 0.0
H1006 H 0.65236 0.53639 0.53197 0.0
H1007 H 0.65156 0.56786 0.50523 0.0
C1008 C 0.72833 0.61404 0.37877 0.0
C1009 C 0.74883 0.62286 0.39162 0.0
C1010 C 0.70714 0.60521 0.39081 0.0
C1011 C 0.70583 0.60471 0.41609 0.0
C1012 C 0.72636 0.61319 0.42897 0.0
C1013 C 0.74747 0.62232 0.41694 0.0
C1014 C 0.68296 0.59595 0.42905 0.0
C1015 C 0.68221 0.57782 0.44432 0.0
C1016 C 0.66183 0.60534 0.42633 0.0
C1017 C 0.66135 0.62483 0.4111 0.0
C1018 C 0.67685 0.64466 0.41547 0.0
C1019 C 0.67642 0.6629 0.4009 0.0
C1020 C 0.66043 0.66157 0.38201 0.0
C1021 C 0.6448 0.64199 0.3777 0.0
C1022 C 0.64518 0.62369 0.3922 0.0
C1023 C 0.58644 0.57837 0.49672 0.0
C1024 C 0.57476 0.55635 0.49502 0.0
C1025 C 0.60724 0.58539 0.48328 0.0
C1026 C 0.61734 0.57058 0.46791 0.0
C1027 C 0.6057 0.54852 0.46601 0.0
C1028 C 0.58457 0.54153 0.4793 0.0
C1029 C 0.64005 0.57848 0.45421 0.0
C1030 C 0.6408 0.59653 0.43884 0.0
C1031 C 0.66115 0.56903 0.45689 0.0
C1032 C 0.66194 0.55038 0.47323 0.0
C1033 C 0.66849 0.53038 0.46424 0.0
C1034 C 0.669 0.51266 0.47956 0.0
C1035 C 0.66312 0.51481 0.50394 0.0
C1036 C 0.65681 0.53471 0.51307 0.0
C1037 C 0.6563 0.55248 0.49783 0.0
H1038 H 0.66351 0.50107 0.51576 0.0
H1039 H 0.66012 0.67571 0.37075 0.0
H1040 H 0.22392 0.31194 0.16757 0.0
H1041 H 0.19702 0.33265 0.14755 0.0
H1042 H 0.25478 0.36273 0.1022 0.0
H1043 H 0.2823 0.3424 0.12296 0.0
H1044 H 0.22719 0.3931 0.11899 0.0
H1045 H 0.214 0.32278 0.07911 0.0
H1046 H 0.20657 0.28203 0.07523 0.0
H1047 H 0.13963 0.28083 0.11277 0.0
H1048 H 0.1468 0.32157 0.1172 0.0
H1049 H 0.1418 0.43276 0.0436 0.0
H1050 H 0.17407 0.41457 0.05842 0.0
H1051 H 0.12643 0.38193 0.11218 0.0
H1052 H 0.09402 0.39988 0.09727 0.0
H1053 H 0.15174 0.35332 0.0862 0.0
H1054 H 0.16741 0.42427 0.12817 0.0
H1055 H 0.17492 0.46511 0.13015 0.0
H1056 H 0.23774 0.465 0.08594 0.0
H1057 H 0.23042 0.42412 0.08343 0.0
C1058 C 0.23106 0.32312 0.15352 0.0
C1059 C 0.25533 0.32568 0.147 0.0
C1060 C 0.21556 0.33478 0.14189 0.0
C1061 C 0.22382 0.34904 0.12319 0.0
C1062 C 0.24804 0.35173 0.11655 0.0
C1063 C 0.26368 0.34001 0.12828 0.0
C1064 C 0.20686 0.36113 0.11099 0.0
C1065 C 0.2109 0.3844 0.11138 0.0
C1066 C 0.18549 0.34979 0.10129 0.0
C1067 C 0.18103 0.32525 0.09863 0.0
C1068 C 0.19777 0.31383 0.0867 0.0
C1069 C 0.19359 0.29072 0.08438 0.0
C1070 C 0.17266 0.27884 0.09378 0.0
C1071 C 0.15584 0.29005 0.1055 0.0
C1072 C 0.15994 0.31316 0.10789 0.0
C1073 C 0.13825 0.42173 0.05861 0.0
C1074 C 0.1154 0.41767 0.06927 0.0
C1075 C 0.15671 0.41147 0.06713 0.0
C1076 C 0.15263 0.39696 0.08641 0.0
C1077 C 0.12992 0.39309 0.09727 0.0
C1078 C 0.11149 0.40346 0.08887 0.0
C1079 C 0.17178 0.3852 0.09483 0.0
C1080 C 0.16814 0.36198 0.09361 0.0
C1081 C 0.19356 0.3966 0.1035 0.0
C1082 C 0.19823 0.42115 0.10541 0.0
C1083 C 0.18274 0.43296 0.11874 0.0
C1084 C 0.18697 0.45611 0.11998 0.0
C1085 C 0.20675 0.46765 0.10811 0.0
C1086 C 0.2224 0.45604 0.09509 0.0
C1087 C 0.21824 0.43288 0.09377 0.0
H1088 H 0.20997 0.48558 0.10905 0.0
H1089 H 0.16945 0.26096 0.09196 0.0
H1090 H 0.59658 0.22323 0.85501 0.0
H1091 H 0.58181 0.18827 0.87443 0.0
H1092 H 0.60453 0.21723 0.94306 0.0
H1093 H 0.61944 0.25223 0.92374 0.0
H1094 H 0.61348 0.17693 0.9426 0.0
H1095 H 0.54356 0.20763 0.92426 0.0
H1096 H 0.51573 0.22344 0.8987 0.0
H1097 H 0.5063 0.16392 0.85491 0.0
H1098 H 0.53432 0.14786 0.88004 0.0
H1099 H 0.5028 0.0932 0.98901 0.0
H1100 H 0.52051 0.12731 0.96969 0.0
H1101 H 0.58326 0.09802 0.95169 0.0
H1102 H 0.56559 0.06375 0.97171 0.0
H1103 H 0.53187 0.13868 0.9272 0.0
H1104 H 0.63188 0.1386 0.94375 0.0
H1105 H 0.65758 0.12519 0.97356 0.0
H1106 H 0.60339 0.12752 0.02814 0.0
H1107 H 0.57752 0.14123 0.99875 0.0
C1108 C 0.59831 0.22238 0.87429 0.0
C1109 C 0.60928 0.24105 0.88757 0.0
C1110 C 0.58977 0.20214 0.8855 0.0
C1111 C 0.59155 0.19972 0.91054 0.0
C1112 C 0.6028 0.21823 0.92379 0.0
C1113 C 0.61145 0.23845 0.91257 0.0
C1114 C 0.58155 0.17819 0.92289 0.0
C1115 C 0.59565 0.1686 0.93905 0.0
C1116 C 0.55808 0.16706 0.91901 0.0
C1117 C 0.54122 0.17664 0.90388 0.0
C1118 C 0.53567 0.19798 0.90908 0.0
C1119 C 0.51985 0.20697 0.89468 0.0
C1120 C 0.5093 0.19471 0.87515 0.0
C1121 C 0.51451 0.17341 0.87002 0.0
C1122 C 0.53035 0.16434 0.88434 0.0
C1123 C 0.52046 0.09394 0.98108 0.0
C1124 C 0.53265 0.07548 0.98208 0.0
C1125 C 0.53062 0.11362 0.96982 0.0
C1126 C 0.55348 0.11578 0.95905 0.0
C1127 C 0.5658 0.09731 0.96005 0.0
C1128 C 0.55562 0.07754 0.97149 0.0
C1129 C 0.56388 0.13722 0.94671 0.0
C1130 C 0.5498 0.14685 0.93058 0.0
C1131 C 0.58714 0.14862 0.95108 0.0
C1132 C 0.60268 0.14069 0.96897 0.0
C1133 C 0.62549 0.13632 0.96213 0.0
C1134 C 0.64009 0.12866 0.97896 0.0
C1135 C 0.63209 0.12543 1.00271 0.0
C1136 C 0.60953 0.12995 1.00972 0.0
C1137 C 0.59489 0.13765 0.99298 0.0
H1138 H 0.6434 0.11947 1.01569 0.0
H1139 H 0.49705 0.2017 0.86404 0.0
H1140 H 0.90652 0.77363 0.43175 0.0
H1141 H 0.9237 0.80965 0.44854 0.0
H1142 H 0.92932 0.83674 0.37751 0.0
H1143 H 0.91267 0.80026 0.36048 0.0
H1144 H 0.96634 0.85496 0.40105 0.0
H1145 H 0.88336 0.84595 0.42101 0.0
H1146 H 0.84515 0.82707 0.43722 0.0
H1147 H 0.87524 0.82721 0.50733 0.0
H1148 H 0.91368 0.84599 0.49152 0.0
H1149 H 0.98014 0.96814 0.44542 0.0
H1150 H 0.96481 0.93236 0.42624 0.0
H1151 H 0.96701 0.90029 0.49405 0.0
H1152 H 0.98246 0.93593 0.51328 0.0
H1153 H 0.92538 0.88555 0.47105 0.0
H1154 H 1.00863 0.89526 0.45001 0.0
H1155 H 0.04611 0.91488 0.43304 0.0
H1156 H 0.01423 0.91445 0.36374 0.0
H1157 H 0.97642 0.89509 0.38039 0.0
C1158 C 0.91143 0.78721 0.41961 0.0
C1159 C 0.90787 0.78392 0.39469 0.0
C1160 C 0.92119 0.80799 0.42931 0.0
C1161 C 0.92732 0.82646 0.41456 0.0
C1162 C 0.92466 0.82302 0.38951 0.0
C1163 C 0.91515 0.80205 0.37971 0.0
C1164 C 0.93619 0.84917 0.42537 0.0
C1165 C 0.95709 0.8617 0.41612 0.0
C1166 C 0.9246 0.85826 0.44537 0.0
C1167 C 0.90145 0.8472 0.45503 0.0
C1168 C 0.88185 0.84187 0.43987 0.0
C1169 C 0.86015 0.83122 0.44899 0.0
C1170 C 0.85778 0.82594 0.47329 0.0
C1171 C 0.87709 0.83136 0.48854 0.0
C1172 C 0.89883 0.84204 0.47951 0.0
C1173 C 0.9774 0.9535 0.4563 0.0
C1174 C 0.98271 0.95512 0.48099 0.0
C1175 C 0.96868 0.93293 0.44523 0.0
C1176 C 0.96483 0.91333 0.45852 0.0
C1177 C 0.96978 0.91499 0.48324 0.0
C1178 C 0.97874 0.93549 0.49425 0.0
C1179 C 0.95554 0.89118 0.44682 0.0
C1180 C 0.93455 0.87879 0.45593 0.0
C1181 C 0.96691 0.88237 0.42657 0.0
C1182 C 0.98962 0.89394 0.41651 0.0
C1183 C 1.00955 0.89952 0.4312 0.0
C1184 C 0.03087 0.91056 0.42163 0.0
C1185 C 0.03253 0.91597 0.39735 0.0
C1186 C 1.0129 0.91028 0.38256 0.0
C1187 C 0.99153 0.89926 0.39205 0.0
H1188 H 0.04906 0.92451 0.38997 0.0
H1189 H 0.84097 0.81767 0.48032 0.0
H1190 H 0.39806 0.79864 0.51146 0.0
H1191 H 0.41263 0.76461 0.49885 0.0
H1192 H 0.34058 0.73302 0.48696 0.0
H1193 H 0.32583 0.76685 0.5008 0.0
H1194 H 0.35921 0.71089 0.51709 0.0
H1195 H 0.38457 0.73601 0.44087 0.0
H1196 H 0.4024 0.76151 0.40961 0.0
H1197 H 0.47099 0.76448 0.44132 0.0
H1198 H 0.45355 0.73927 0.47302 0.0
H1199 H 0.44855 0.62686 0.49287 0.0
H1200 H 0.42645 0.65459 0.47681 0.0
H1201 H 0.42333 0.68484 0.54753 0.0
H1202 H 0.44543 0.65734 0.56365 0.0
H1203 H 0.43455 0.69977 0.47515 0.0
H1204 H 0.3699 0.69828 0.55826 0.0
H1205 H 0.35064 0.67111 0.58728 0.0
H1206 H 0.35668 0.61811 0.53632 0.0
H1207 H 0.37562 0.64497 0.50684 0.0
C1208 C 0.38536 0.78462 0.50554 0.0
C1209 C 0.3608 0.78523 0.50764 0.0
C1210 C 0.39373 0.7652 0.49799 0.0
C1211 C 0.37771 0.74613 0.49202 0.0
C1212 C 0.35327 0.74749 0.49157 0.0
C1213 C 0.34486 0.7669 0.49935 0.0
C1214 C 0.38615 0.72426 0.49134 0.0
C1215 C 0.37543 0.70833 0.50751 0.0
C1216 C 0.40697 0.72052 0.47842 0.0
C1217 C 0.41769 0.73572 0.45939 0.0
C1218 C 0.40343 0.74219 0.44129 0.0
C1219 C 0.41348 0.75659 0.42346 0.0
C1220 C 0.43781 0.76461 0.42348 0.0
C1221 C 0.45215 0.75822 0.44131 0.0
C1222 C 0.44219 0.74383 0.45919 0.0
C1223 C 0.44342 0.63962 0.50492 0.0
C1224 C 0.44858 0.63988 0.52958 0.0
C1225 C 0.43073 0.65536 0.49572 0.0
C1226 C 0.42293 0.67148 0.51106 0.0
C1227 C 0.42877 0.67221 0.53549 0.0
C1228 C 0.44137 0.65651 0.54469 0.0
C1229 C 0.40838 0.68753 0.50198 0.0
C1230 C 0.41794 0.70218 0.48406 0.0
C1231 C 0.38617 0.68989 0.51285 0.0
C1232 C 0.37428 0.67367 0.53035 0.0
C1233 C 0.36695 0.68085 0.55316 0.0
C1234 C 0.35613 0.66549 0.56972 0.0
C1235 C 0.35247 0.6429 0.56366 0.0
C1236 C 0.35957 0.63561 0.54101 0.0
C1237 C 0.37037 0.6509 0.52437 0.0
H1238 H 0.34412 0.63104 0.57653 0.0
H1239 H 0.44555 0.77576 0.40966 0.0
H1240 H 0.80086 0.80834 0.73569 0.0
H1241 H 0.83161 0.82953 0.71114 0.0
H1242 H 0.77803 0.85019 0.66682 0.0
H1243 H 0.74678 0.82843 0.69119 0.0
H1244 H 0.82069 0.83966 0.64106 0.0
H1245 H 0.79767 0.88439 0.70735 0.0
H1246 H 0.78854 0.89231 0.74993 0.0
H1247 H 0.85965 0.88475 0.76884 0.0
H1248 H 0.86909 0.87641 0.72639 0.0
H1249 H 0.89798 0.93264 0.5949 0.0
H1250 H 0.86483 0.90754 0.61204 0.0
H1251 H 0.9099 0.89212 0.66871 0.0
H1252 H 0.9428 0.91814 0.65243 0.0
H1253 H 0.86922 0.90058 0.68671 0.0
H1254 H 0.8925 0.85528 0.621 0.0
H1255 H 0.90202 0.8468 0.57863 0.0
H1256 H 0.83138 0.85489 0.5586 0.0
H1257 H 0.82153 0.86372 0.60083 0.0
C1258 C 0.7955 0.8168 0.72031 0.0
C1259 C 0.77132 0.81666 0.71537 0.0
C1260 C 0.81315 0.82906 0.70642 0.0
C1261 C 0.80703 0.84155 0.68738 0.0
C1262 C 0.78303 0.84063 0.68151 0.0
C1263 C 0.76525 0.82835 0.69551 0.0
C1264 C 0.82577 0.85695 0.67518 0.0
C1265 C 0.83113 0.85321 0.65085 0.0
C1266 C 0.83956 0.87431 0.68821 0.0
C1267 C 0.83402 0.87958 0.71372 0.0
C1268 C 0.81131 0.88424 0.72061 0.0
C1269 C 0.80608 0.88883 0.74472 0.0
C1270 C 0.82349 0.88898 0.76209 0.0
C1271 C 0.84618 0.8846 0.75537 0.0
C1272 C 0.85148 0.87996 0.73128 0.0
C1273 C 0.90083 0.92402 0.61111 0.0
C1274 C 0.92305 0.92753 0.62238 0.0
C1275 C 0.88192 0.90943 0.6207 0.0
C1276 C 0.88493 0.89777 0.64153 0.0
C1277 C 0.90719 0.90092 0.65258 0.0
C1278 C 0.92606 0.91565 0.64312 0.0
C1279 C 0.86462 0.88314 0.65255 0.0
C1280 C 0.85885 0.88709 0.67676 0.0
C1281 C 0.85057 0.86597 0.63938 0.0
C1282 C 0.85636 0.86038 0.61404 0.0
C1283 C 0.87905 0.8554 0.60754 0.0
C1284 C 0.88449 0.8505 0.58356 0.0
C1285 C 0.86734 0.85038 0.56593 0.0
C1286 C 0.84466 0.85503 0.57227 0.0
C1287 C 0.83913 0.85996 0.59623 0.0
H1288 H 0.87161 0.84665 0.54738 0.0
H1289 H 0.81941 0.89254 0.78074 0.0
H1290 H 0.67089 0.15768 0.30251 0.0
H1291 H 0.65441 0.15238 0.26231 0.0
H1292 H 0.58563 0.16288 0.29065 0.0
H1293 H 0.602 0.16781 0.33121 0.0
H1294 H 0.58334 0.12588 0.26188 0.0
H1295 H 0.61592 0.20171 0.25584 0.0
H1296 H 0.64619 0.23489 0.26014 0.0
H1297 H 0.69306 0.2058 0.21148 0.0
H1298 H 0.66323 0.17229 0.20714 0.0
H1299 H 0.55025 0.10276 0.14043 0.0
H1300 H 0.55514 0.12489 0.17786 0.0
H1301 H 0.63101 0.1251 0.17311 0.0
H1302 H 0.6264 0.10389 0.13535 0.0
H1303 H 0.62125 0.16406 0.19016 0.0
H1304 H 0.59402 0.08595 0.20541 0.0
H1305 H 0.56611 0.05092 0.20346 0.0
H1306 H 0.51101 0.08346 0.23589 0.0
H1307 H 0.53856 0.11875 0.23779 0.0
C1308 C 0.65225 0.15883 0.30019 0.0
C1309 C 0.63768 0.16303 0.31997 0.0
C1310 C 0.64293 0.1561 0.27719 0.0
C1311 C 0.6189 0.15759 0.27349 0.0
C1312 C 0.60428 0.16189 0.29316 0.0
C1313 C 0.61365 0.16474 0.31624 0.0
C1314 C 0.60894 0.15293 0.24925 0.0
C1315 C 0.59111 0.13463 0.24621 0.0
C1316 C 0.61935 0.1642 0.22888 0.0
C1317 C 0.63732 0.18443 0.23122 0.0
C1318 C 0.63273 0.20232 0.24615 0.0
C1319 C 0.64981 0.22121 0.24859 0.0
C1320 C 0.67154 0.22245 0.2361 0.0
C1321 C 0.67621 0.20483 0.22112 0.0
C1322 C 0.6592 0.1859 0.21863 0.0
C1323 C 0.56802 0.10801 0.14708 0.0
C1324 C 0.58795 0.10137 0.13515 0.0
C1325 C 0.57074 0.12048 0.16854 0.0
C1326 C 0.59337 0.1263 0.17843 0.0
C1327 C 0.61337 0.12074 0.16582 0.0
C1328 C 0.61069 0.10842 0.14438 0.0
C1329 C 0.59643 0.13646 0.20281 0.0
C1330 C 0.61292 0.1558 0.20587 0.0
C1331 C 0.58496 0.12603 0.22324 0.0
C1332 C 0.56824 0.10501 0.22148 0.0
C1333 C 0.57588 0.08566 0.21191 0.0
C1334 C 0.56016 0.06576 0.21089 0.0
C1335 C 0.53683 0.06496 0.21961 0.0
C1336 C 0.52911 0.08409 0.22922 0.0
C1337 C 0.54476 0.10405 0.23024 0.0
H1338 H 0.5247 0.04951 0.21888 0.0
H1339 H 0.68474 0.23708 0.23803 0.0
H1340 H 0.41778 0.66679 0.31697 0.0
H1341 H 0.4338 0.6501 0.35155 0.0
H1342 H 0.42585 0.58697 0.31368 0.0
H1343 H 0.409 0.60341 0.27973 0.0
H1344 H 0.41383 0.57767 0.35565 0.0
H1345 H 0.48314 0.62484 0.32637 0.0
H1346 H 0.50713 0.65989 0.31392 0.0
H1347 H 0.49774 0.68851 0.38416 0.0
H1348 H 0.47345 0.6537 0.39694 0.0
H1349 H 0.48739 0.52379 0.43145 0.0
H1350 H 0.47191 0.54256 0.39809 0.0
H1351 H 0.46675 0.59942 0.44428 0.0
H1352 H 0.48201 0.58066 0.47781 0.0
H1353 H 0.48519 0.61253 0.39959 0.0
H1354 H 0.41706 0.56395 0.42861 0.0
H1355 H 0.39431 0.52818 0.44057 0.0
H1356 H 0.40322 0.50137 0.3694 0.0
H1357 H 0.42633 0.53691 0.35711 0.0
C1358 C 0.41969 0.6494 0.31587 0.0
C1359 C 0.41193 0.63661 0.29526 0.0
C1360 C 0.42902 0.63975 0.33581 0.0
C1361 C 0.43159 0.61701 0.33569 0.0
C1362 C 0.42416 0.6044 0.31486 0.0
C1363 C 0.41449 0.61394 0.29518 0.0
C1364 C 0.44129 0.60611 0.35712 0.0
C1365 C 0.42969 0.58532 0.36485 0.0
C1366 C 0.4617 0.61583 0.37014 0.0
C1367 C 0.47628 0.63675 0.36252 0.0
C1368 C 0.48606 0.63867 0.33911 0.0
C1369 C 0.49973 0.65848 0.332 0.0
C1370 C 0.5039 0.67644 0.34822 0.0
C1371 C 0.49446 0.6746 0.3716 0.0
C1372 C 0.48076 0.65483 0.37879 0.0
C1373 C 0.48295 0.54027 0.43466 0.0
C1374 C 0.48601 0.55047 0.45769 0.0
C1375 C 0.47396 0.55106 0.41541 0.0
C1376 C 0.46786 0.57258 0.41832 0.0
C1377 C 0.47121 0.58292 0.44121 0.0
C1378 C 0.47991 0.57202 0.46056 0.0
C1379 C 0.45792 0.58411 0.39765 0.0
C1380 C 0.4694 0.60497 0.39021 0.0
C1381 C 0.43758 0.57437 0.3847 0.0
C1382 C 0.42362 0.55302 0.39201 0.0
C1383 C 0.41433 0.55037 0.41557 0.0
C1384 C 0.40134 0.53015 0.4224 0.0
C1385 C 0.39737 0.5125 0.40577 0.0
C1386 C 0.40633 0.51505 0.38227 0.0
C1387 C 0.41936 0.53523 0.37535 0.0
H1388 H 0.38731 0.49685 0.41109 0.0
H1389 H 0.51449 0.69176 0.34268 0.0
H1390 H 0.10288 0.37382 0.81641 0.0
H1391 H 0.08744 0.39389 0.85036 0.0
H1392 H 0.11173 0.45584 0.81601 0.0
H1393 H 0.12731 0.43585 0.78197 0.0
H1394 H 0.1207 0.46118 0.86175 0.0
H1395 H 0.05062 0.43028 0.81888 0.0
H1396 H 0.02244 0.4006 0.79981 0.0
H1397 H 1.01067 0.36785 0.86731 0.0
H1398 H 0.03902 0.3972 0.88673 0.0
H1399 H 0.05354 0.53028 0.93116 0.0
H1400 H 0.06995 0.50829 0.89938 0.0
H1401 H 0.04699 0.44886 0.93888 0.0
H1402 H 0.02996 0.47096 0.9706 0.0
H1403 H 0.0378 0.44117 0.89201 0.0
H1404 H 0.10677 0.47271 0.93519 0.0
H1405 H 0.13469 0.5025 0.95438 0.0
H1406 H 0.14847 0.53406 0.88639 0.0
H1407 H 0.12037 0.50461 0.86685 0.0
C1408 C 0.10479 0.39171 0.81583 0.0
C1409 C 0.11635 0.40301 0.79602 0.0
C1410 C 0.09587 0.40327 0.83544 0.0
C1411 C 0.0979 0.42658 0.83593 0.0
C1412 C 0.10977 0.43793 0.81637 0.0
C1413 C 0.1188 0.42638 0.79678 0.0
C1414 C 0.08786 0.4391 0.85674 0.0
C1415 C 0.10245 0.4569 0.86806 0.0
C1416 C 0.06421 0.43343 0.86581 0.0
C1417 C 0.04712 0.41581 0.8542 0.0
C1418 C 0.04215 0.41666 0.82962 0.0
C1419 C 0.02613 0.39992 0.81875 0.0
C1420 C 0.01482 0.38232 0.83232 0.0
C1421 C 0.01947 0.38147 0.85681 0.0
C1422 C 0.03549 0.39816 0.86776 0.0
C1423 C 0.05209 0.51253 0.93324 0.0
C1424 C 0.04084 0.50253 0.95385 0.0
C1425 C 0.06164 0.4999 0.91499 0.0
C1426 C 0.06025 0.47676 0.91662 0.0
C1427 C 0.04863 0.46664 0.93705 0.0
C1428 C 0.03912 0.47935 0.95544 0.0
C1429 C 0.07059 0.46332 0.89683 0.0
C1430 C 0.05606 0.44538 0.88571 0.0
C1431 C 0.09429 0.46885 0.88793 0.0
C1432 C 0.11129 0.48655 0.89959 0.0
C1433 C 0.11562 0.48609 0.92436 0.0
C1434 C 0.1315 0.5029 0.9353 0.0
C1435 C 0.14331 0.52019 0.92163 0.0
C1436 C 0.1393 0.52067 0.89697 0.0
C1437 C 0.12341 0.50391 0.88594 0.0
H1438 H 0.1556 0.53319 0.93013 0.0
H1439 H 1.00242 0.36938 0.82388 0.0
H1440 H 0.66138 0.84197 0.91432 0.0
H1441 H 0.64016 0.87075 0.93162 0.0
H1442 H 0.59082 0.86093 0.87304 0.0
H1443 H 0.61277 0.8327 0.85517 0.0
H1444 H 0.60182 0.90257 0.88078 0.0
H1445 H 0.57567 0.84247 0.93204 0.0
H1446 H 0.57896 0.81147 0.95869 0.0
H1447 H 0.61882 0.85632 1.00881 0.0
H1448 H 0.61606 0.88756 0.9823 0.0
H1449 H 0.52169 0.96592 0.9461 0.0
H1450 H 0.53904 0.93628 0.9249 0.0
H1451 H 0.60141 0.95034 0.96862 0.0
H1452 H 0.58435 0.97997 0.98977 0.0
H1453 H 0.57978 0.90509 0.96745 0.0
H1454 H 0.60603 0.96494 0.91273 0.0
H1455 H 0.59948 0.99482 0.88578 0.0
H1456 H 0.55429 0.94802 0.84192 0.0
H1457 H 0.56035 0.9179 0.86879 0.0
C1458 C 0.64583 0.84578 0.90532 0.0
C1459 C 0.63858 0.83503 0.88354 0.0
C1460 C 0.63365 0.86219 0.91523 0.0
C1461 C 0.61357 0.86779 0.9039 0.0
C1462 C 0.60621 0.85692 0.88217 0.0
C1463 C 0.61869 0.84076 0.87201 0.0
C1464 C 0.60084 0.88551 0.91436 0.0
C1465 C 0.59664 0.90286 0.89965 0.0
C1466 C 0.59413 0.88608 0.93903 0.0
C1467 C 0.59582 0.86734 0.95507 0.0
C1468 C 0.58529 0.84571 0.94866 0.0
C1469 C 0.58704 0.82809 0.96376 0.0
C1470 C 0.59914 0.83192 0.9854 0.0
C1471 C 0.60947 0.85338 0.99203 0.0
C1472 C 0.6078 0.87105 0.97699 0.0
C1473 C 0.53919 0.96285 0.95102 0.0
C1474 C 0.55158 0.97523 0.9697 0.0
C1475 C 0.54909 0.94596 0.93886 0.0
C1476 C 0.57145 0.94111 0.9453 0.0
C1477 C 0.5841 0.95381 0.96347 0.0
C1478 C 0.57436 0.97083 0.97542 0.0
C1479 C 0.58133 0.92215 0.93398 0.0
C1480 C 0.58485 0.90458 0.94855 0.0
C1481 C 0.58692 0.92115 0.90915 0.0
C1482 C 0.58345 0.93922 0.8929 0.0
C1483 C 0.59455 0.96106 0.89744 0.0
C1484 C 0.59096 0.97803 0.88216 0.0
C1485 C 0.57643 0.97333 0.86218 0.0
C1486 C 0.56552 0.95164 0.85741 0.0
C1487 C 0.56905 0.93461 0.87265 0.0
H1488 H 0.57367 0.98649 0.85038 0.0
H1489 H 0.60047 0.81826 0.99707 0.0
H1490 H 0.77255 0.09202 0.48685 0.0
H1491 H 0.8076 0.07522 0.49627 0.0
H1492 H 0.8273 0.07396 0.42101 0.0
H1493 H 0.79257 0.09112 0.41144 0.0
H1494 H 0.83447 0.03571 0.4442 0.0
H1495 H 0.85318 0.11462 0.45416 0.0
H1496 H 0.84698 0.15157 0.46968 0.0
H1497 H 0.85272 0.13052 0.54207 0.0
H1498 H 0.85857 0.0933 0.52699 0.0
H1499 H 0.96533 0.05637 0.49103 0.0
H1500 H 0.93038 0.0692 0.4745 0.0
H1501 H 0.88592 1.01084 0.50066 0.0
H1502 H 0.92086 0.99776 0.51684 0.0
H1503 H 0.8926 0.07987 0.4984 0.0
H1504 H 0.83877 0.9973 0.46349 0.0
H1505 H 0.84636 0.96145 0.4459 0.0
H1506 H 0.91429 0.99208 0.41877 0.0
H1507 H 0.90696 0.02817 0.43587 0.0
C1508 C 0.7843 0.08811 0.4723 0.0
C1509 C 0.77991 0.09308 0.44843 0.0
C1510 C 0.80422 0.07843 0.47769 0.0
C1511 C 0.82009 0.0736 0.45933 0.0
C1512 C 0.81518 0.07754 0.43539 0.0
C1513 C 0.7953 0.08728 0.42997 0.0
C1514 C 0.8426 0.06586 0.46531 0.0
C1515 C 0.8472 0.0453 0.45606 0.0
C1516 C 0.85939 0.07869 0.48031 0.0
C1517 C 0.85609 0.10112 0.48945 0.0
C1518 C 0.85294 0.11782 0.47339 0.0
C1519 C 0.84951 0.13881 0.48211 0.0
C1520 C 0.8494 0.14337 0.50685 0.0
C1521 C 0.85278 0.12695 0.52292 0.0
C1522 C 0.85616 0.10591 0.51429 0.0
C1523 C 0.94813 0.0462 0.49302 0.0
C1524 C 0.9457 0.02614 0.50524 0.0
C1525 C 0.92821 0.05355 0.48364 0.0
C1526 C 0.90561 0.04091 0.48626 0.0
C1527 C 0.90324 0.02069 0.49815 0.0
C1528 C 0.92317 1.0133 0.50748 0.0
C1529 C 0.88434 0.04945 0.47771 0.0
C1530 C 0.87994 0.07022 0.4865 0.0
C1531 C 0.868 0.03696 0.46196 0.0
C1532 C 0.87238 1.01541 0.45116 0.0
C1533 C 0.85527 0.99641 0.45366 0.0
C1534 C 0.85954 0.97604 0.44379 0.0
C1535 C 0.88082 0.97447 0.43129 0.0
C1536 C 0.89784 0.9933 0.42854 0.0
C1537 C 0.89365 1.01371 0.43833 0.0
H1538 H 0.88411 0.95868 0.4237 0.0
H1539 H 0.84674 0.15964 0.51356 0.0
H1540 H 0.24303 0.66655 0.12808 0.0
H1541 H 0.20734 0.64668 0.11016 0.0
H1542 H 0.22652 0.58476 0.13258 0.0
H1543 H 0.26355 0.60455 0.14912 0.0
H1544 H 0.20852 0.57737 0.09096 0.0
H1545 H 0.17979 0.61226 0.16077 0.0
H1546 H 0.17467 0.64273 0.18948 0.0
H1547 H 0.14391 0.6767 0.13429 0.0
H1548 H 0.14913 0.64656 0.10515 0.0
H1549 H 0.0926 0.51824 0.06422 0.0
H1550 H 0.12891 0.53554 0.084 0.0
H1551 H 0.11697 0.59951 0.0601 0.0
H1552 H 0.08026 0.58236 0.04083 0.0
H1553 H 0.13101 0.60406 0.10433 0.0
H1554 H 0.16135 0.56749 0.0344 0.0
H1555 H 0.16549 0.53529 1.00776 0.0
H1556 H 0.19195 0.50222 0.06639 0.0
H1557 H 0.18773 0.53414 0.09343 0.0
C1558 C 0.24011 0.64867 0.12903 0.0
C1559 C 0.25683 0.63741 0.1401 0.0
C1560 C 0.21915 0.63722 0.11902 0.0
C1561 C 0.21352 0.614 0.12019 0.0
C1562 C 0.23006 0.60262 0.13133 0.0
C1563 C 0.25129 0.61409 0.14113 0.0
C1564 C 0.19072 0.60182 0.10948 0.0
C1565 C 0.19157 0.58311 0.09426 0.0
C1566 C 0.16826 0.60909 0.11326 0.0
C1567 C 0.16505 0.62724 0.13072 0.0
C1568 C 0.17208 0.6263 0.15471 0.0
C1569 C 0.16914 0.6435 0.17107 0.0
C1570 C 0.15902 0.66166 0.1637 0.0
C1571 C 0.15177 0.66263 0.13996 0.0
C1572 C 0.15469 0.64548 0.12353 0.0
C1573 C 0.09766 0.536 0.06301 0.0
C1574 C 0.08324 0.54875 0.05066 0.0
C1575 C 0.1187 0.54595 0.07431 0.0
C1576 C 0.1263 0.56899 0.07342 0.0
C1577 C 0.11183 0.58175 0.0612 0.0
C1578 C 0.09072 0.57184 0.05002 0.0
C1579 C 0.1489 0.57991 0.08551 0.0
C1580 C 0.14798 0.59835 0.10105 0.0
C1581 C 0.17118 0.57216 0.08231 0.0
C1582 C 0.17402 0.55312 0.06597 0.0
C1583 C 0.16794 0.55331 0.04163 0.0
C1584 C 0.17032 0.53511 0.02645 0.0
C1585 C 0.17893 0.5167 0.03539 0.0
C1586 C 0.18527 0.51648 0.0595 0.0
C1587 C 0.18291 0.53463 0.07474 0.0
H1588 H 0.18073 0.50263 0.02362 0.0
H1589 H 0.15676 0.67496 0.17639 0.0
H1590 H 0.28992 0.38073 0.63041 0.0
H1591 H 0.3263 0.39619 0.60937 0.0
H1592 H 0.31587 0.46195 0.63285 0.0
H1593 H 0.27835 0.44682 0.65229 0.0
H1594 H 0.33273 0.46565 0.59062 0.0
H1595 H 0.3585 0.43026 0.65851 0.0
H1596 H 0.36066 0.40005 0.68659 0.0
H1597 H 0.38561 0.36053 0.62924 0.0
H1598 H 0.38331 0.3904 0.60074 0.0
H1599 H 0.45519 0.5108 0.56028 0.0
H1600 H 0.41824 0.49858 0.58318 0.0
H1601 H 0.41433 0.43356 0.5501 0.0
H1602 H 0.45067 0.44579 0.52697 0.0
H1603 H 0.40591 0.43162 0.59933 0.0
H1604 H 0.37875 0.46876 0.53169 0.0
H1605 H 0.37806 0.50067 0.50556 0.0
H1606 H 0.35761 0.53928 0.56597 0.0
H1607 H 0.35849 0.50766 0.59253 0.0
C1608 C 0.29496 0.39854 0.6309 0.0
C1609 C 0.28075 0.41232 0.64343 0.0
C1610 C 0.31625 0.40741 0.61908 0.0
C1611 C 0.32454 0.43036 0.61981 0.0
C1612 C 0.31027 0.4442 0.63199 0.0
C1613 C 0.28876 0.43538 0.6435 0.0
C1614 C 0.34785 0.43986 0.60781 0.0
C1615 C 0.34875 0.45833 0.59293 0.0
C1616 C 0.36908 0.43049 0.61038 0.0
C1617 C 0.37052 0.41249 0.62745 0.0
C1618 C 0.36429 0.41506 0.65186 0.0
C1619 C 0.36556 0.39801 0.66785 0.0
C1620 C 0.37321 0.37836 0.65969 0.0
C1621 C 0.37966 0.37575 0.63553 0.0
C1622 C 0.3784 0.39274 0.61945 0.0
C1623 C 0.44637 0.49401 0.55774 0.0
C1624 C 0.45591 0.47944 0.54151 0.0
C1625 C 0.42519 0.48697 0.5709 0.0
C1626 C 0.41323 0.46508 0.56838 0.0
C1627 C 0.42304 0.45049 0.55249 0.0
C1628 C 0.4439 0.45759 0.53917 0.0
C1629 C 0.39058 0.45713 0.5821 0.0
C1630 C 0.38985 0.43896 0.59725 0.0
C1631 C 0.36969 0.46701 0.58012 0.0
C1632 C 0.36894 0.48593 0.56414 0.0
C1633 C 0.37429 0.48411 0.53943 0.0
C1634 C 0.37383 0.50213 0.52454 0.0
C1635 C 0.36787 0.52201 0.53411 0.0
C1636 C 0.36226 0.52388 0.55859 0.0
C1637 C 0.36272 0.50591 0.57357 0.0
H1638 H 0.36753 0.53595 0.52256 0.0
H1639 H 0.37418 0.36518 0.6721 0.0
H1640 H 0.77734 0.71805 0.9033 0.0
H1641 H 0.80581 0.69966 0.92457 0.0
H1642 H 0.79567 0.64513 0.87315 0.0
H1643 H 0.76677 0.66324 0.85203 0.0
H1644 H 0.80139 0.63143 0.91984 0.0
H1645 H 0.84019 0.68518 0.86444 0.0
H1646 H 0.84902 0.7222 0.8468 0.0
H1647 H 0.87482 0.74986 0.91469 0.0
H1648 H 0.86579 0.71303 0.93284 0.0
H1649 H 0.90928 0.58935 0.93785 0.0
H1650 H 0.87649 0.60444 0.91993 0.0
H1651 H 0.89176 0.66349 0.9646 0.0
H1652 H 0.92545 0.64916 0.98149 0.0
H1653 H 0.88263 0.67444 0.92146 0.0
H1654 H 0.84457 0.62066 0.97702 0.0
H1655 H 0.83559 0.58371 0.99482 0.0
H1656 H 0.80843 0.55612 0.9274 0.0
H1657 H 0.81752 0.59288 0.90911 0.0
C1658 C 0.78063 0.70185 0.89692 0.0
C1659 C 0.76999 0.69218 0.87586 0.0
C1660 C 0.79705 0.69145 0.90898 0.0
C1661 C 0.80314 0.67124 0.90016 0.0
C1662 C 0.79131 0.66079 0.88015 0.0
C1663 C 0.77492 0.67121 0.86804 0.0
C1664 C 0.82326 0.662 0.91049 0.0
C1665 C 0.81921 0.64071 0.92004 0.0
C1666 C 0.84642 0.67428 0.911 0.0
C1667 C 0.85209 0.69639 0.90006 0.0
C1668 C 0.84758 0.69919 0.87565 0.0
C1669 C 0.85264 0.72013 0.86556 0.0
C1670 C 0.86242 0.73838 0.87963 0.0
C1671 C 0.86722 0.73571 0.90382 0.0
C1672 C 0.86214 0.7148 0.91402 0.0
C1673 C 0.90592 0.6057 0.94361 0.0
C1674 C 0.92 0.61797 0.96124 0.0
C1675 C 0.88691 0.61417 0.93359 0.0
C1676 C 0.88132 0.63492 0.94126 0.0
C1677 C 0.8956 0.64737 0.95851 0.0
C1678 C 0.91475 0.63904 0.96833 0.0
C1679 C 0.86082 0.64387 0.93116 0.0
C1680 C 0.86482 0.66513 0.92147 0.0
C1681 C 0.83763 0.63155 0.93062 0.0
C1682 C 0.83192 0.60949 0.94165 0.0
C1683 C 0.83681 0.60669 0.96595 0.0
C1684 C 0.83169 0.58578 0.97613 0.0
C1685 C 0.8215 0.56757 0.96223 0.0
C1686 C 0.81634 0.57024 0.93814 0.0
C1687 C 0.82145 0.59111 0.92786 0.0
H1688 H 0.81756 0.55139 0.97014 0.0
H1689 H 0.86633 0.75459 0.87178 0.0
H1690 H 0.45845 0.79083 0.15149 0.0
H1691 H 0.4733 0.8255 0.13158 0.0
H1692 H 0.40148 0.83902 0.12507 0.0
H1693 H 0.38651 0.80399 0.14446 0.0
H1694 H 0.42297 0.85233 0.0864 0.0
H1695 H 0.44504 0.8666 0.16822 0.0
H1696 H 0.46316 0.86031 0.20683 0.0
H1697 H 0.53191 0.8652 0.17222 0.0
H1698 H 0.51415 0.87123 0.13331 0.0
H1699 H 0.46201 0.96774 0.05663 0.0
H1700 H 0.44405 0.93351 0.0767 0.0
H1701 H 0.51241 0.91109 0.07622 0.0
H1702 H 0.53019 0.94487 0.0562 0.0
H1703 H 0.49112 0.90356 0.11939 0.0
H1704 H 0.46754 0.88921 0.03717 0.0
H1705 H 0.44854 0.89685 0.99948 0.0
H1706 H 0.38116 0.89388 0.03657 0.0
H1707 H 0.39985 0.88654 0.07458 0.0
C1708 C 0.44572 0.80119 0.14606 0.0
C1709 C 0.42114 0.79429 0.14995 0.0
C1710 C 0.45431 0.82128 0.1346 0.0
C1711 C 0.43875 0.83563 0.12698 0.0
C1712 C 0.41416 0.82862 0.13059 0.0
C1713 C 0.40553 0.80838 0.14179 0.0
C1714 C 0.44804 0.85767 0.11523 0.0
C1715 C 0.43765 0.86359 0.09397 0.0
C1716 C 0.46746 0.87274 0.12447 0.0
C1717 C 0.47822 0.86915 0.14781 0.0
C1718 C 0.464 0.86618 0.16881 0.0
C1719 C 0.4742 0.86269 0.19075 0.0
C1720 C 0.49866 0.8623 0.19196 0.0
C1721 C 0.51296 0.86547 0.17124 0.0
C1722 C 0.50284 0.86895 0.14925 0.0
C1723 C 0.47319 0.95549 0.06074 0.0
C1724 C 0.49765 0.9593 0.05467 0.0
C1725 C 0.46287 0.93577 0.07222 0.0
C1726 C 0.47671 0.9193 0.07811 0.0
C1727 C 0.50112 0.92327 0.07212 0.0
C1728 C 0.51133 0.94274 0.0605 0.0
C1729 C 0.46617 0.89805 0.09058 0.0
C1730 C 0.47636 0.8923 0.11196 0.0
C1731 C 0.44642 0.88331 0.08161 0.0
C1732 C 0.43514 0.88757 0.05877 0.0
C1733 C 0.44871 0.89036 0.03733 0.0
C1734 C 0.43799 0.89461 1.0159 0.0
C1735 C 0.41367 0.89591 1.01565 0.0
C1736 C 0.40001 0.8929 0.03681 0.0
C1737 C 0.41065 0.88869 0.05829 0.0
H1738 H 0.40541 0.8992 0.99904 0.0
H1739 H 0.50653 0.85959 0.20897 0.0
H1740 H 0.12884 0.26008 0.60133 0.0
H1741 H 0.11149 0.22424 0.58454 0.0
H1742 H 0.09157 0.2013 0.65576 0.0
H1743 H 0.10991 0.23717 0.67291 0.0
H1744 H 0.10887 0.16924 0.63067 0.0
H1745 H 0.05002 0.21512 0.61441 0.0
H1746 H 0.03472 0.24779 0.59925 0.0
H1747 H 0.05831 0.23258 0.52775 0.0
H1748 H 0.07404 0.19998 0.54253 0.0
H1749 H 0.03398 0.07151 0.5881 0.0
H1750 H 0.04987 0.10702 0.60727 0.0
H1751 H 0.07186 0.13346 0.53792 0.0
H1752 H 0.05575 0.09805 0.51859 0.0
H1753 H 0.05237 0.16349 0.56336 0.0
H1754 H 0.11206 0.11844 0.5793 0.0
H1755 H 0.12762 0.0857 0.59394 0.0
H1756 H 0.10284 0.09926 0.66546 0.0
H1757 H 0.08682 0.13191 0.65117 0.0
C1758 C 0.12092 0.24747 0.6136 0.0
C1759 C 0.12108 0.25178 0.63867 0.0
C1760 C 0.11067 0.22688 0.60384 0.0
C1761 C 0.09983 0.20979 0.61868 0.0
C1762 C 0.09972 0.21403 0.64374 0.0
C1763 C 0.11005 0.23474 0.65357 0.0
C1764 C 0.08907 0.18759 0.60795 0.0
C1765 C 0.0962 0.16803 0.61624 0.0
C1766 C 0.07293 0.18567 0.58859 0.0
C1767 C 0.06339 0.20521 0.57963 0.0
C1768 C 0.05209 0.21883 0.59548 0.0
C1769 C 0.04332 0.23732 0.58695 0.0
C1770 C 0.04559 0.24229 0.56256 0.0
C1771 C 0.05658 0.22873 0.54664 0.0
C1772 C 0.06541 0.21023 0.55508 0.0
C1773 C 0.04228 0.0848 0.57685 0.0
C1774 C 0.04355 0.08165 0.55167 0.0
C1775 C 0.05151 0.10521 0.58792 0.0
C1776 C 0.06243 0.12316 0.57423 0.0
C1777 C 0.06361 0.12006 0.54907 0.0
C1778 C 0.05443 0.09965 0.53798 0.0
C1779 C 0.07225 0.14516 0.58599 0.0
C1780 C 0.06496 0.16469 0.57787 0.0
C1781 C 0.08828 0.14703 0.60544 0.0
C1782 C 0.09802 0.12749 0.61411 0.0
C1783 C 0.10977 0.11434 0.59812 0.0
C1784 C 0.1187 0.09582 0.60635 0.0
C1785 C 0.11616 0.09037 0.6306 0.0
C1786 C 0.10475 0.10348 0.64667 0.0
C1787 C 0.09576 0.12201 0.63852 0.0
H1788 H 0.12308 0.07602 0.63694 0.0
H1789 H 0.03879 0.25661 0.55599 0.0
H1790 H 0.66789 0.24135 0.53485 0.0
H1791 H 0.64855 0.27367 0.54561 0.0
H1792 H 0.69365 0.31244 0.49409 0.0
H1793 H 0.71307 0.28033 0.48366 0.0
H1794 H 0.67885 0.3389 0.53051 0.0
H1795 H 0.64416 0.28007 0.47384 0.0
H1796 H 0.62828 0.24131 0.46323 0.0
H1797 H 0.57742 0.23969 0.52154 0.0
H1798 H 0.59298 0.27857 0.53245 0.0
H1799 H 0.58112 0.37701 0.45466 0.0
H1800 H 0.60499 0.34885 0.46638 0.0
H1801 H 0.60843 0.3761 0.53875 0.0
H1802 H 0.58501 0.40449 0.52686 0.0
H1803 H 0.59739 0.31667 0.4993 0.0
H1804 H 0.66229 0.37073 0.56149 0.0
H1805 H 0.67851 0.41018 0.56818 0.0
H1806 H 0.67045 0.4224 0.49337 0.0
H1807 H 0.65443 0.38299 0.48621 0.0
C1808 C 0.67453 0.25715 0.52693 0.0
C1809 C 0.69182 0.25853 0.50845 0.0
C1810 C 0.6634 0.27554 0.53292 0.0
C1811 C 0.66934 0.29526 0.52023 0.0
C1812 C 0.68878 0.29738 0.50407 0.0
C1813 C 0.6999 0.27906 0.49813 0.0
C1814 C 0.65258 0.31157 0.51942 0.0
C1815 C 0.66088 0.33404 0.52416 0.0
C1816 C 0.62929 0.30529 0.51066 0.0
C1817 C 0.61985 0.28205 0.50408 0.0
C1818 C 0.62965 0.27139 0.48444 0.0
C1819 C 0.62072 0.24942 0.47837 0.0
C1820 C 0.60197 0.23797 0.49178 0.0
C1821 C 0.59199 0.24855 0.51121 0.0
C1822 C 0.60081 0.27056 0.51731 0.0
C1823 C 0.58691 0.37689 0.47306 0.0
C1824 C 0.58111 0.39275 0.49001 0.0
C1825 C 0.60042 0.36079 0.47978 0.0
C1826 C 0.60852 0.36049 0.50343 0.0
C1827 C 0.60243 0.37612 0.52041 0.0
C1828 C 0.5889 0.39214 0.51371 0.0
C1829 C 0.62372 0.34405 0.51013 0.0
C1830 C 0.61509 0.32155 0.50639 0.0
C1831 C 0.64677 0.35041 0.51948 0.0
C1832 C 0.65699 0.37399 0.52339 0.0
C1833 C 0.6641 0.38183 0.54646 0.0
C1834 C 0.67323 0.40418 0.55034 0.0
C1835 C 0.67545 0.4188 0.53123 0.0
C1836 C 0.66865 0.41108 0.50817 0.0
C1837 C 0.65953 0.38874 0.5042 0.0
H1838 H 0.68247 0.4361 0.53427 0.0
H1839 H 0.59512 0.22094 0.48705 0.0
loop_
_geom_bond_atom_site_label_1
_geom_bond_atom_site_label_2
_geom_bond_distance
_geom_bond_site_symmetry_2
_ccdc_geom_bond_type
C0 C1 1.391 . S
C0 C4 1.391 . S
C0 H42 0.948 . S
C1 C0 1.391 . S
C1 C2 1.391 . S
C2 C1 1.391 . S
C2 H58 0.947 . S
C2 C59 1.392 . S
C3 C4 1.391 . S
C3 C7 1.397 . S
C3 C59 1.419 . S
C4 C0 1.391 . S
C4 C3 1.391 . S
C4 C5 1.399 . S
C5 C4 1.399 . S
C5 C8 1.396 . S
C5 C17 1.453 . S
C5 C18 1.684 . S
H6 C30 0.948 . S
C7 C3 1.397 . S
C7 C8 1.394 . S
C7 C26 1.723 . S
C8 C5 1.396 . S
C8 C7 1.394 . S
C8 C38 1.723 . S
H9 C32 0.947 . S
H10 C33 0.948 . S
H11 C39 0.982 . S
H12 C40 0.979 . S
H13 C40 0.980 . S
H14 C40 0.983 . S
H15 C39 0.979 . S
H16 C39 0.977 . S
C17 C5 1.453 . S
C17 H46 0.982 . S
C17 H47 0.979 . S
C17 H48 0.977 . S
C18 C5 1.684 . S
C18 H43 0.979 . S
C18 H44 0.980 . S
C18 H45 0.983 . S
C19 C20 1.391 . S
C19 C24 1.391 . S
C19 H49 0.948 . S
C20 C19 1.391 . S
C20 C21 1.391 . S
C21 C20 1.391 . S
C21 C22 1.392 . S
C21 H50 0.947 . S
C22 C21 1.392 . S
C22 C23 1.419 . S
C22 H51 0.948 . S
C23 C22 1.419 . S
C23 C24 1.391 . S
C23 C27 1.397 . S
C24 C19 1.391 . S
C24 C23 1.391 . S
C24 C25 1.399 . S
C25 C24 1.399 . S
C25 C26 1.396 . S
C25 C28 1.453 . S
C25 C29 1.684 . S
C26 C7 1.723 . S
C26 C25 1.396 . S
C26 C27 1.394 . S
C27 C23 1.397 . S
C27 C26 1.394 . S
C27 C37 1.723 . S
C28 C25 1.453 . S
C28 H52 0.982 . S
C28 H53 0.979 . S
C28 H54 0.977 . S
C29 C25 1.684 . S
C29 H55 0.979 . S
C29 H56 0.980 . S
C29 H57 0.983 . S
C30 H6 0.948 . S
C30 C31 1.391 . S
C30 C35 1.391 . S
C31 C30 1.391 . S
C31 C32 1.391 . S
C32 H9 0.947 . S
C32 C31 1.391 . S
C32 C33 1.392 . S
C33 H10 0.948 . S
C33 C32 1.392 . S
C33 C34 1.419 . S
C34 C33 1.419 . S
C34 C35 1.391 . S
C34 C38 1.397 . S
C35 C30 1.391 . S
C35 C34 1.391 . S
C35 C36 1.399 . S
C36 C35 1.399 . S
C36 C37 1.396 . S
C36 C39 1.453 . S
C36 C40 1.684 . S
C37 C27 1.723 . S
C37 C36 1.396 . S
C37 C38 1.394 . S
C38 C8 1.723 . S
C38 C34 1.397 . S
C38 C37 1.394 . S
C39 H11 0.982 . S
C39 H15 0.979 . S
C39 H16 0.977 . S
C39 C36 1.453 . S
C40 H12 0.979 . S
C40 H13 0.980 . S
C40 H14 0.983 . S
C40 C36 1.684 . S
H41 C59 0.948 . S
H42 C0 0.948 . S
H43 C18 0.979 . S
H44 C18 0.980 . S
H45 C18 0.983 . S
H46 C17 0.982 . S
H47 C17 0.979 . S
H48 C17 0.977 . S
H49 C19 0.948 . S
H50 C21 0.947 . S
H51 C22 0.948 . S
H52 C28 0.982 . S
H53 C28 0.979 . S
H54 C28 0.977 . S
H55 C29 0.979 . S
H56 C29 0.980 . S
H57 C29 0.983 . S
H58 C2 0.947 . S
C59 C2 1.392 . S
C59 C3 1.419 . S
C59 H41 0.948 . S
C60 C61 1.391 . S
C60 C64 1.391 . S
C60 H102 0.948 . S
C61 C60 1.391 . S
C61 C62 1.391 . S
C62 C61 1.391 . S
C62 H118 0.947 . S
C62 C119 1.392 . S
C63 C64 1.391 . S
C63 C67 1.397 . S
C63 C119 1.419 . S
C64 C60 1.391 . S
C64 C63 1.391 . S
C64 C65 1.399 . S
C65 C64 1.399 . S
C65 C68 1.396 . S
C65 C77 1.453 . S
C65 C78 1.684 . S
H66 C90 0.948 . S
C67 C63 1.397 . S
C67 C68 1.394 . S
C67 C86 1.723 . S
C68 C65 1.396 . S
C68 C67 1.394 . S
C68 C98 1.723 . S
H69 C92 0.947 . S
H70 C93 0.948 . S
H71 C99 0.982 . S
H72 C100 0.979 . S
H73 C100 0.980 . S
H74 C100 0.983 . S
H75 C99 0.979 . S
H76 C99 0.977 . S
C77 C65 1.453 . S
C77 H106 0.982 . S
C77 H107 0.979 . S
C77 H108 0.977 . S
C78 C65 1.684 . S
C78 H103 0.979 . S
C78 H104 0.980 . S
C78 H105 0.983 . S
C79 C80 1.391 . S
C79 C84 1.391 . S
C79 H109 0.948 . S
C80 C79 1.391 . S
C80 C81 1.391 . S
C81 C80 1.391 . S
C81 C82 1.392 . S
C81 H110 0.947 . S
C82 C81 1.392 . S
C82 C83 1.419 . S
C82 H111 0.948 . S
C83 C82 1.419 . S
C83 C84 1.391 . S
C83 C87 1.397 . S
C84 C79 1.391 . S
C84 C83 1.391 . S
C84 C85 1.399 . S
C85 C84 1.399 . S
C85 C86 1.396 . S
C85 C88 1.453 . S
C85 C89 1.684 . S
C86 C67 1.723 . S
C86 C85 1.396 . S
C86 C87 1.394 . S
C87 C83 1.397 . S
C87 C86 1.394 . S
C87 C97 1.723 . S
C88 C85 1.453 . S
C88 H112 0.982 . S
C88 H113 0.979 . S
C88 H114 0.977 . S
C89 C85 1.684 . S
C89 H115 0.979 . S
C89 H116 0.980 . S
C89 H117 0.983 . S
C90 H66 0.948 . S
C90 C91 1.391 . S
C90 C95 1.391 . S
C91 C90 1.391 . S
C91 C92 1.391 . S
C92 H69 0.947 . S
C92 C91 1.391 . S
C92 C93 1.392 . S
C93 H70 0.948 . S
C93 C92 1.392 . S
C93 C94 1.419 . S
C94 C93 1.419 . S
C94 C95 1.391 . S
C94 C98 1.397 . S
C95 C90 1.391 . S
C95 C94 1.391 . S
C95 C96 1.399 . S
C96 C95 1.399 . S
C96 C97 1.396 . S
C96 C99 1.453 . S
C96 C100 1.684 . S
C97 C87 1.723 . S
C97 C96 1.396 . S
C97 C98 1.394 . S
C98 C68 1.723 . S
C98 C94 1.397 . S
C98 C97 1.394 . S
C99 H71 0.982 . S
C99 H75 0.979 . S
C99 H76 0.977 . S
C99 C96 1.453 . S
C100 H72 0.979 . S
C100 H73 0.980 . S
C100 H74 0.983 . S
C100 C96 1.684 . S
H101 C119 0.948 . S
H102 C60 0.948 . S
H103 C78 0.979 . S
H104 C78 0.980 . S
H105 C78 0.983 . S
H106 C77 0.982 . S
H107 C77 0.979 . S
H108 C77 0.977 . S
H109 C79 0.948 . S
H110 C81 0.947 . S
H111 C82 0.948 . S
H112 C88 0.982 . S
H113 C88 0.979 . S
H114 C88 0.977 . S
H115 C89 0.979 . S
H116 C89 0.980 . S
H117 C89 0.983 . S
H118 C62 0.947 . S
C119 C62 1.392 . S
C119 C63 1.419 . S
C119 H101 0.948 . S
C120 C121 1.391 . S
C120 C124 1.391 . S
C120 H162 0.948 . S
C121 C120 1.391 . S
C121 C122 1.391 . S
C122 C121 1.391 . S
C122 H178 0.947 . S
C122 C179 1.392 . S
C123 C124 1.391 . S
C123 C127 1.397 . S
C123 C179 1.419 . S
C124 C120 1.391 . S
C124 C123 1.391 . S
C124 C125 1.399 . S
C125 C124 1.399 . S
C125 C128 1.396 . S
C125 C137 1.453 . S
C125 C138 1.684 . S
H126 C150 0.948 . S
C127 C123 1.397 . S
C127 C128 1.394 . S
C127 C146 1.723 . S
C128 C125 1.396 . S
C128 C127 1.394 . S
C128 C158 1.723 . S
H129 C152 0.947 . S
H130 C153 0.948 . S
H131 C159 0.982 . S
H132 C160 0.979 . S
H133 C160 0.980 . S
H134 C160 0.983 . S
H135 C159 0.979 . S
H136 C159 0.977 . S
C137 C125 1.453 . S
C137 H166 0.982 . S
C137 H167 0.979 . S
C137 H168 0.977 . S
C138 C125 1.684 . S
C138 H163 0.979 . S
C138 H164 0.980 . S
C138 H165 0.983 . S
C139 C140 1.391 . S
C139 C144 1.391 . S
C139 H169 0.948 . S
C140 C139 1.391 . S
C140 C141 1.391 . S
C141 C140 1.391 . S
C141 C142 1.392 . S
C141 H170 0.947 . S
C142 C141 1.392 . S
C142 C143 1.419 . S
C142 H171 0.948 . S
C143 C142 1.419 . S
C143 C144 1.391 . S
C143 C147 1.397 . S
C144 C139 1.391 . S
C144 C143 1.391 . S
C144 C145 1.399 . S
C145 C144 1.399 . S
C145 C146 1.396 . S
C145 C148 1.453 . S
C145 C149 1.684 . S
C146 C127 1.723 . S
C146 C145 1.396 . S
C146 C147 1.394 . S
C147 C143 1.397 . S
C147 C146 1.394 . S
C147 C157 1.723 . S
C148 C145 1.453 . S
C148 H172 0.982 . S
C148 H173 0.979 . S
C148 H174 0.977 . S
C149 C145 1.684 . S
C149 H175 0.979 . S
C149 H176 0.980 . S
C149 H177 0.983 . S
C150 H126 0.948 . S
C150 C151 1.391 . S
C150 C155 1.391 . S
C151 C150 1.391 . S
C151 C152 1.391 . S
C152 H129 0.947 . S
C152 C151 1.391 . S
C152 C153 1.392 . S
C153 H130 0.948 . S
C153 C152 1.392 . S
C153 C154 1.419 . S
C154 C153 1.419 . S
C154 C155 1.391 . S
C154 C158 1.397 . S
C155 C150 1.391 . S
C155 C154 1.391 . S
C155 C156 1.399 . S
C156 C155 1.399 . S
C156 C157 1.396 . S
C156 C159 1.453 . S
C156 C160 1.684 . S
C157 C147 1.723 . S
C157 C156 1.396 . S
C157 C158 1.394 . S
C158 C128 1.723 . S
C158 C154 1.397 . S
C158 C157 1.394 . S
C159 H131 0.982 . S
C159 H135 0.979 . S
C159 H136 0.977 . S
C159 C156 1.453 . S
C160 H132 0.979 . S
C160 H133 0.980 . S
C160 H134 0.983 . S
C160 C156 1.684 . S
H161 C179 0.948 . S
H162 C120 0.948 . S
H163 C138 0.979 . S
H164 C138 0.980 . S
H165 C138 0.983 . S
H166 C137 0.982 . S
H167 C137 0.979 . S
H168 C137 0.977 . S
H169 C139 0.948 . S
H170 C141 0.947 . S
H171 C142 0.948 . S
H172 C148 0.982 . S
H173 C148 0.979 . S
H174 C148 0.977 . S
H175 C149 0.979 . S
H176 C149 0.980 . S
H177 C149 0.983 . S
H178 C122 0.947 . S
C179 C122 1.392 . S
C179 C123 1.419 . S
C179 H161 0.948 . S
C180 C181 1.391 . S
C180 C184 1.391 . S
C180 H222 0.948 . S
C181 C180 1.391 . S
C181 C182 1.391 . S
C182 C181 1.391 . S
C182 H238 0.947 . S
C182 C239 1.392 . S
C183 C184 1.391 . S
C183 C187 1.397 . S
C183 C239 1.419 . S
C184 C180 1.391 . S
C184 C183 1.391 . S
C184 C185 1.399 . S
C185 C184 1.399 . S
C185 C188 1.396 . S
C185 C197 1.453 . S
C185 C198 1.684 . S
H186 C210 0.948 . S
C187 C183 1.397 . S
C187 C188 1.394 . S
C187 C206 1.723 . S
C188 C185 1.396 . S
C188 C187 1.394 . S
C188 C218 1.723 . S
H189 C212 0.947 . S
H190 C213 0.948 . S
H191 C219 0.982 . S
H192 C220 0.979 . S
H193 C220 0.980 . S
H194 C220 0.983 . S
H195 C219 0.979 . S
H196 C219 0.977 . S
C197 C185 1.453 . S
C197 H226 0.982 . S
C197 H227 0.979 . S
C197 H228 0.977 . S
C198 C185 1.684 . S
C198 H223 0.979 . S
C198 H224 0.980 . S
C198 H225 0.983 . S
C199 C200 1.391 . S
C199 C204 1.391 . S
C199 H229 0.948 . S
C200 C199 1.391 . S
C200 C201 1.391 . S
C201 C200 1.391 . S
C201 C202 1.392 . S
C201 H230 0.947 . S
C202 C201 1.392 . S
C202 C203 1.419 . S
C202 H231 0.948 . S
C203 C202 1.419 . S
C203 C204 1.391 . S
C203 C207 1.397 . S
C204 C199 1.391 . S
C204 C203 1.391 . S
C204 C205 1.399 . S
C205 C204 1.399 . S
C205 C206 1.396 . S
C205 C208 1.453 . S
C205 C209 1.684 . S
C206 C187 1.723 . S
C206 C205 1.396 . S
C206 C207 1.394 . S
C207 C203 1.397 . S
C207 C206 1.394 . S
C207 C217 1.723 . S
C208 C205 1.453 . S
C208 H232 0.982 . S
C208 H233 0.979 . S
C208 H234 0.977 . S
C209 C205 1.684 . S
C209 H235 0.979 . S
C209 H236 0.980 . S
C209 H237 0.983 . S
C210 H186 0.948 . S
C210 C211 1.391 . S
C210 C215 1.391 . S
C211 C210 1.391 . S
C211 C212 1.391 . S
C212 H189 0.947 . S
C212 C211 1.391 . S
C212 C213 1.392 . S
C213 H190 0.948 . S
C213 C212 1.392 . S
C213 C214 1.419 . S
C214 C213 1.419 . S
C214 C215 1.391 . S
C214 C218 1.397 . S
C215 C210 1.391 . S
C215 C214 1.391 . S
C215 C216 1.399 . S
C216 C215 1.399 . S
C216 C217 1.396 . S
C216 C219 1.453 . S
C216 C220 1.684 . S
C217 C207 1.723 . S
C217 C216 1.396 . S
C217 C218 1.394 . S
C218 C188 1.723 . S
C218 C214 1.397 . S
C218 C217 1.394 . S
C219 H191 0.982 . S
C219 H195 0.979 . S
C219 H196 0.977 . S
C219 C216 1.453 . S
C220 H192 0.979 . S
C220 H193 0.980 . S
C220 H194 0.983 . S
C220 C216 1.684 . S
H221 C239 0.948 . S
H222 C180 0.948 . S
H223 C198 0.979 . S
H224 C198 0.980 . S
H225 C198 0.983 . S
H226 C197 0.982 . S
H227 C197 0.979 . S
H228 C197 0.977 . S
H229 C199 0.948 . S
H230 C201 0.947 . S
H231 C202 0.948 . S
H232 C208 0.982 . S
H233 C208 0.979 . S
H234 C208 0.977 . S
H235 C209 0.979 . S
H236 C209 0.980 . S
H237 C209 0.983 . S
H238 C182 0.947 . S
C239 C182 1.392 . S
C239 C183 1.419 . S
C239 H221 0.948 . S
C240 C241 1.391 . S
C240 C244 1.391 . S
C240 H282 0.948 . S
C241 C240 1.391 . S
C241 C242 1.391 . S
C242 C241 1.391 . S
C242 H298 0.947 . S
C242 C299 1.392 . S
C243 C244 1.391 . S
C243 C247 1.397 . S
C243 C299 1.419 . S
C244 C240 1.391 . S
C244 C243 1.391 . S
C244 C245 1.399 . S
C245 C244 1.399 . S
C245 C248 1.396 . S
C245 C257 1.453 . S
C245 C258 1.684 . S
H246 C270 0.948 . S
C247 C243 1.397 . S
C247 C248 1.394 . S
C247 C266 1.723 . S
C248 C245 1.396 . S
C248 C247 1.394 . S
C248 C278 1.723 . S
H249 C272 0.947 . S
H250 C273 0.948 . S
H251 C279 0.982 . S
H252 C280 0.979 . S
H253 C280 0.980 . S
H254 C280 0.983 . S
H255 C279 0.979 . S
H256 C279 0.977 . S
C257 C245 1.453 . S
C257 H286 0.982 . S
C257 H287 0.979 . S
C257 H288 0.977 . S
C258 C245 1.684 . S
C258 H283 0.979 . S
C258 H284 0.980 . S
C258 H285 0.983 . S
C259 C260 1.391 . S
C259 C264 1.391 . S
C259 H289 0.948 . S
C260 C259 1.391 . S
C260 C261 1.391 . S
C261 C260 1.391 . S
C261 C262 1.392 . S
C261 H290 0.947 . S
C262 C261 1.392 . S
C262 C263 1.419 . S
C262 H291 0.948 . S
C263 C262 1.419 . S
C263 C264 1.391 . S
C263 C267 1.397 . S
C264 C259 1.391 . S
C264 C263 1.391 . S
C264 C265 1.399 . S
C265 C264 1.399 . S
C265 C266 1.396 . S
C265 C268 1.453 . S
C265 C269 1.684 . S
C266 C247 1.723 . S
C266 C265 1.396 . S
C266 C267 1.394 . S
C267 C263 1.397 . S
C267 C266 1.394 . S
C267 C277 1.723 . S
C268 C265 1.453 . S
C268 H292 0.982 . S
C268 H293 0.979 . S
C268 H294 0.977 . S
C269 C265 1.684 . S
C269 H295 0.979 . S
C269 H296 0.980 . S
C269 H297 0.983 . S
C270 H246 0.948 . S
C270 C271 1.391 . S
C270 C275 1.391 . S
C271 C270 1.391 . S
C271 C272 1.391 . S
C272 H249 0.947 . S
C272 C271 1.391 . S
C272 C273 1.392 . S
C273 H250 0.948 . S
C273 C272 1.392 . S
C273 C274 1.419 . S
C274 C273 1.419 . S
C274 C275 1.391 . S
C274 C278 1.397 . S
C275 C270 1.391 . S
C275 C274 1.391 . S
C275 C276 1.399 . S
C276 C275 1.399 . S
C276 C277 1.396 . S
C276 C279 1.453 . S
C276 C280 1.684 . S
C277 C267 1.723 . S
C277 C276 1.396 . S
C277 C278 1.394 . S
C278 C248 1.723 . S
C278 C274 1.397 . S
C278 C277 1.394 . S
C279 H251 0.982 . S
C279 H255 0.979 . S
C279 H256 0.977 . S
C279 C276 1.453 . S
C280 H252 0.979 . S
C280 H253 0.980 . S
C280 H254 0.983 . S
C280 C276 1.684 . S
H281 C299 0.948 . S
H282 C240 0.948 . S
H283 C258 0.979 . S
H284 C258 0.980 . S
H285 C258 0.983 . S
H286 C257 0.982 . S
H287 C257 0.979 . S
H288 C257 0.977 . S
H289 C259 0.948 . S
H290 C261 0.947 . S
H291 C262 0.948 . S
H292 C268 0.982 . S
H293 C268 0.979 . S
H294 C268 0.977 . S
H295 C269 0.979 . S
H296 C269 0.980 . S
H297 C269 0.983 . S
H298 C242 0.947 . S
C299 C242 1.392 . S
C299 C243 1.419 . S
C299 H281 0.948 . S
C300 C301 1.391 . S
C300 C304 1.391 . S
C300 H342 0.948 . S
C301 C300 1.391 . S
C301 C302 1.391 . S
C302 C301 1.391 . S
C302 H358 0.947 . S
C302 C359 1.392 . S
C303 C304 1.391 . S
C303 C307 1.397 . S
C303 C359 1.419 . S
C304 C300 1.391 . S
C304 C303 1.391 . S
C304 C305 1.399 . S
C305 C304 1.399 . S
C305 C308 1.396 . S
C305 C317 1.453 . S
C305 C318 1.684 . S
H306 C330 0.948 . S
C307 C303 1.397 . S
C307 C308 1.394 . S
C307 C326 1.723 . S
C308 C305 1.396 . S
C308 C307 1.394 . S
C308 C338 1.723 . S
H309 C332 0.947 . S
H310 C333 0.948 . S
H311 C339 0.982 . S
H312 C340 0.979 . S
H313 C340 0.980 . S
H314 C340 0.983 . S
H315 C339 0.979 . S
H316 C339 0.977 . S
C317 C305 1.453 . S
C317 H346 0.982 . S
C317 H347 0.979 . S
C317 H348 0.977 . S
C318 C305 1.684 . S
C318 H343 0.979 . S
C318 H344 0.980 . S
C318 H345 0.983 . S
C319 C320 1.391 . S
C319 C324 1.391 . S
C319 H349 0.948 . S
C320 C319 1.391 . S
C320 C321 1.391 . S
C321 C320 1.391 . S
C321 C322 1.392 . S
C321 H350 0.947 . S
C322 C321 1.392 . S
C322 C323 1.419 . S
C322 H351 0.948 . S
C323 C322 1.419 . S
C323 C324 1.391 . S
C323 C327 1.397 . S
C324 C319 1.391 . S
C324 C323 1.391 . S
C324 C325 1.399 . S
C325 C324 1.399 . S
C325 C326 1.396 . S
C325 C328 1.453 . S
C325 C329 1.684 . S
C326 C307 1.723 . S
C326 C325 1.396 . S
C326 C327 1.394 . S
C327 C323 1.397 . S
C327 C326 1.394 . S
C327 C337 1.723 . S
C328 C325 1.453 . S
C328 H352 0.982 . S
C328 H353 0.979 . S
C328 H354 0.977 . S
C329 C325 1.684 . S
C329 H355 0.979 . S
C329 H356 0.980 . S
C329 H357 0.983 . S
C330 H306 0.948 . S
C330 C331 1.391 . S
C330 C335 1.391 . S
C331 C330 1.391 . S
C331 C332 1.391 . S
C332 H309 0.947 . S
C332 C331 1.391 . S
C332 C333 1.392 . S
C333 H310 0.948 . S
C333 C332 1.392 . S
C333 C334 1.419 . S
C334 C333 1.419 . S
C334 C335 1.391 . S
C334 C338 1.397 . S
C335 C330 1.391 . S
C335 C334 1.391 . S
C335 C336 1.399 . S
C336 C335 1.399 . S
C336 C337 1.396 . S
C336 C339 1.453 . S
C336 C340 1.684 . S
C337 C327 1.723 . S
C337 C336 1.396 . S
C337 C338 1.394 . S
C338 C308 1.723 . S
C338 C334 1.397 . S
C338 C337 1.394 . S
C339 H311 0.982 . S
C339 H315 0.979 . S
C339 H316 0.977 . S
C339 C336 1.453 . S
C340 H312 0.979 . S
C340 H313 0.980 . S
C340 H314 0.983 . S
C340 C336 1.684 . S
H341 C359 0.948 . S
H342 C300 0.948 . S
H343 C318 0.979 . S
H344 C318 0.980 . S
H345 C318 0.983 . S
H346 C317 0.982 . S
H347 C317 0.979 . S
H348 C317 0.977 . S
H349 C319 0.948 . S
H350 C321 0.947 . S
H351 C322 0.948 . S
H352 C328 0.982 . S
H353 C328 0.979 . S
H354 C328 0.977 . S
H355 C329 0.979 . S
H356 C329 0.980 . S
H357 C329 0.983 . S
H358 C302 0.947 . S
C359 C302 1.392 . S
C359 C303 1.419 . S
C359 H341 0.948 . S
C360 C361 1.391 . S
C360 C364 1.391 . S
C360 H402 0.948 . S
C361 C360 1.391 . S
C361 C362 1.391 . S
C362 C361 1.391 . S
C362 H418 0.947 . S
C362 C419 1.392 . S
C363 C364 1.391 . S
C363 C367 1.397 . S
C363 C419 1.419 . S
C364 C360 1.391 . S
C364 C363 1.391 . S
C364 C365 1.399 . S
C365 C364 1.399 . S
C365 C368 1.396 . S
C365 C377 1.453 . S
C365 C378 1.684 . S
H366 C390 0.948 . S
C367 C363 1.397 . S
C367 C368 1.394 . S
C367 C386 1.723 . S
C368 C365 1.396 . S
C368 C367 1.394 . S
C368 C398 1.723 . S
H369 C392 0.947 . S
H370 C393 0.948 . S
H371 C399 0.982 . S
H372 C400 0.979 . S
H373 C400 0.980 . S
H374 C400 0.983 . S
H375 C399 0.979 . S
H376 C399 0.977 . S
C377 C365 1.453 . S
C377 H406 0.982 . S
C377 H407 0.979 . S
C377 H408 0.977 . S
C378 C365 1.684 . S
C378 H403 0.979 . S
C378 H404 0.980 . S
C378 H405 0.983 . S
C379 C380 1.391 . S
C379 C384 1.391 . S
C379 H409 0.948 . S
C380 C379 1.391 . S
C380 C381 1.391 . S
C381 C380 1.391 . S
C381 C382 1.392 . S
C381 H410 0.947 . S
C382 C381 1.392 . S
C382 C383 1.419 . S
C382 H411 0.948 . S
C383 C382 1.419 . S
C383 C384 1.391 . S
C383 C387 1.397 . S
C384 C379 1.391 . S
C384 C383 1.391 . S
C384 C385 1.399 . S
C385 C384 1.399 . S
C385 C386 1.396 . S
C385 C388 1.453 . S
C385 C389 1.684 . S
C386 C367 1.723 . S
C386 C385 1.396 . S
C386 C387 1.394 . S
C387 C383 1.397 . S
C387 C386 1.394 . S
C387 C397 1.723 . S
C388 C385 1.453 . S
C388 H412 0.982 . S
C388 H413 0.979 . S
C388 H414 0.977 . S
C389 C385 1.684 . S
C389 H415 0.979 . S
C389 H416 0.980 . S
C389 H417 0.983 . S
C390 H366 0.948 . S
C390 C391 1.391 . S
C390 C395 1.391 . S
C391 C390 1.391 . S
C391 C392 1.391 . S
C392 H369 0.947 . S
C392 C391 1.391 . S
C392 C393 1.392 . S
C393 H370 0.948 . S
C393 C392 1.392 . S
C393 C394 1.419 . S
C394 C393 1.419 . S
C394 C395 1.391 . S
C394 C398 1.397 . S
C395 C390 1.391 . S
C395 C394 1.391 . S
C395 C396 1.399 . S
C396 C395 1.399 . S
C396 C397 1.396 . S
C396 C399 1.453 . S
C396 C400 1.684 . S
C397 C387 1.723 . S
C397 C396 1.396 . S
C397 C398 1.394 . S
C398 C368 1.723 . S
C398 C394 1.397 . S
C398 C397 1.394 . S
C399 H371 0.982 . S
C399 H375 0.979 . S
C399 H376 0.977 . S
C399 C396 1.453 . S
C400 H372 0.979 . S
C400 H373 0.980 . S
C400 H374 0.983 . S
C400 C396 1.684 . S
H401 C419 0.948 . S
H402 C360 0.948 . S
H403 C378 0.979 . S
H404 C378 0.980 . S
H405 C378 0.983 . S
H406 C377 0.982 . S
H407 C377 0.979 . S
H408 C377 0.977 . S
H409 C379 0.948 . S
H410 C381 0.947 . S
H411 C382 0.948 . S
H412 C388 0.982 . S
H413 C388 0.979 . S
H414 C388 0.977 . S
H415 C389 0.979 . S
H416 C389 0.980 . S
H417 C389 0.983 . S
H418 C362 0.947 . S
C419 C362 1.392 . S
C419 C363 1.419 . S
C419 H401 0.948 . S
C420 C421 1.391 . S
C420 C424 1.391 . S
C420 H462 0.948 . S
C421 C420 1.391 . S
C421 C422 1.391 . S
C422 C421 1.391 . S
C422 H478 0.947 . S
C422 C479 1.392 . S
C423 C424 1.391 . S
C423 C427 1.397 . S
C423 C479 1.419 . S
C424 C420 1.391 . S
C424 C423 1.391 . S
C424 C425 1.399 . S
C425 C424 1.399 . S
C425 C428 1.396 . S
C425 C437 1.453 . S
C425 C438 1.684 . S
H426 C450 0.948 . S
C427 C423 1.397 . S
C427 C428 1.394 . S
C427 C446 1.723 . S
C428 C425 1.396 . S
C428 C427 1.394 . S
C428 C458 1.723 . S
H429 C452 0.947 . S
H430 C453 0.948 . S
H431 C459 0.982 . S
H432 C460 0.979 . S
H433 C460 0.980 . S
H434 C460 0.983 . S
H435 C459 0.979 . S
H436 C459 0.977 . S
C437 C425 1.453 . S
C437 H466 0.982 . S
C437 H467 0.979 . S
C437 H468 0.977 . S
C438 C425 1.684 . S
C438 H463 0.979 . S
C438 H464 0.980 . S
C438 H465 0.983 . S
C439 C440 1.391 . S
C439 C444 1.391 . S
C439 H469 0.948 . S
C440 C439 1.391 . S
C440 C441 1.391 . S
C441 C440 1.391 . S
C441 C442 1.392 . S
C441 H470 0.947 . S
C442 C441 1.392 . S
C442 C443 1.419 . S
C442 H471 0.948 . S
C443 C442 1.419 . S
C443 C444 1.391 . S
C443 C447 1.397 . S
C444 C439 1.391 . S
C444 C443 1.391 . S
C444 C445 1.399 . S
C445 C444 1.399 . S
C445 C446 1.396 . S
C445 C448 1.453 . S
C445 C449 1.684 . S
C446 C427 1.723 . S
C446 C445 1.396 . S
C446 C447 1.394 . S
C447 C443 1.397 . S
C447 C446 1.394 . S
C447 C457 1.723 . S
C448 C445 1.453 . S
C448 H472 0.982 . S
C448 H473 0.979 . S
C448 H474 0.977 . S
C449 C445 1.684 . S
C449 H475 0.979 . S
C449 H476 0.980 . S
C449 H477 0.983 . S
C450 H426 0.948 . S
C450 C451 1.391 . S
C450 C455 1.391 . S
C451 C450 1.391 . S
C451 C452 1.391 . S
C452 H429 0.947 . S
C452 C451 1.391 . S
C452 C453 1.392 . S
C453 H430 0.948 . S
C453 C452 1.392 . S
C453 C454 1.419 . S
C454 C453 1.419 . S
C454 C455 1.391 . S
C454 C458 1.397 . S
C455 C450 1.391 . S
C455 C454 1.391 . S
C455 C456 1.399 . S
C456 C455 1.399 . S
C456 C457 1.396 . S
C456 C459 1.453 . S
C456 C460 1.684 . S
C457 C447 1.723 . S
C457 C456 1.396 . S
C457 C458 1.394 . S
C458 C428 1.723 . S
C458 C454 1.397 . S
C458 C457 1.394 . S
C459 H431 0.982 . S
C459 H435 0.979 . S
C459 H436 0.977 . S
C459 C456 1.453 . S
C460 H432 0.979 . S
C460 H433 0.980 . S
C460 H434 0.983 . S
C460 C456 1.684 . S
H461 C479 0.948 . S
H462 C420 0.948 . S
H463 C438 0.979 . S
H464 C438 0.980 . S
H465 C438 0.983 . S
H466 C437 0.982 . S
H467 C437 0.979 . S
H468 C437 0.977 . S
H469 C439 0.948 . S
H470 C441 0.947 . S
H471 C442 0.948 . S
H472 C448 0.982 . S
H473 C448 0.979 . S
H474 C448 0.977 . S
H475 C449 0.979 . S
H476 C449 0.980 . S
H477 C449 0.983 . S
H478 C422 0.947 . S
C479 C422 1.392 . S
C479 C423 1.419 . S
C479 H461 0.948 . S
Sm480 C482 2.846 . S
Sm480 O500 2.543 . S
Sm480 O501 2.450 . S
Sm480 O502 2.681 1_545 S
Sm480 O503 2.464 1_545 S
Sm480 O504 2.396 . S
Sm480 O508 2.386 1_455 S
Sm480 O511 2.408 1_445 S
Sm481 C491 2.846 . S
Sm481 O502 2.386 1_655 S
Sm481 O505 2.408 1_665 S
Sm481 O506 2.543 . S
Sm481 O507 2.450 . S
Sm481 O508 2.681 1_565 S
Sm481 O509 2.464 1_565 S
Sm481 O510 2.396 . S
C482 Sm480 2.846 . S
C482 C483 1.506 . S
C482 O500 1.261 . S
C482 O501 1.242 . S
C483 C482 1.506 . S
C483 C484 1.358 . S
C483 C488 1.382 . S
C484 C483 1.358 . S
C484 C485 1.385 . S
C484 H512 0.930 . S
C485 C484 1.385 . S
C485 C486 1.395 . S
C485 H513 0.929 . S
C486 C485 1.395 . S
C486 C487 1.335 . S
C487 C486 1.335 . S
C487 C488 1.398 . S
C487 H514 0.930 . S
C488 C483 1.382 . S
C488 C487 1.398 . S
C488 H515 0.929 . S
C489 O502 1.271 . S
C489 O503 1.251 . S
C490 O504 1.252 . S
C490 O505 1.272 . S
C491 Sm481 2.846 . S
C491 C492 1.506 . S
C491 O506 1.261 . S
C491 O507 1.242 . S
C492 C491 1.506 . S
C492 C493 1.358 . S
C492 C497 1.382 . S
C493 C492 1.358 . S
C493 C494 1.385 . S
C493 H516 0.930 . S
C494 C493 1.385 . S
C494 C495 1.395 . S
C494 H517 0.929 . S
C495 C494 1.395 . S
C495 C496 1.335 . S
C496 C495 1.335 . S
C496 C497 1.398 . S
C496 H518 0.930 . S
C497 C492 1.382 . S
C497 C496 1.398 . S
C497 H519 0.929 . S
C498 O508 1.271 . S
C498 O509 1.251 . S
C499 O510 1.252 . S
C499 O511 1.272 . S
O500 Sm480 2.543 . S
O500 C482 1.261 . S
O501 Sm480 2.450 . S
O501 C482 1.242 . S
O502 Sm480 2.681 1_565 S
O502 Sm481 2.386 1_455 S
O502 C489 1.271 . S
O503 Sm480 2.464 1_565 S
O503 C489 1.251 . S
O504 Sm480 2.396 . S
O504 C490 1.252 . S
O505 Sm481 2.408 1_445 S
O505 C490 1.272 . S
O506 Sm481 2.543 . S
O506 C491 1.261 . S
O507 Sm481 2.450 . S
O507 C491 1.242 . S
O508 Sm480 2.386 1_655 S
O508 Sm481 2.681 1_545 S
O508 C498 1.271 . S
O509 Sm481 2.464 1_545 S
O509 C498 1.251 . S
O510 Sm481 2.396 . S
O510 C499 1.252 . S
O511 Sm480 2.408 1_665 S
O511 C499 1.272 . S
H512 C484 0.930 . S
H513 C485 0.929 . S
H514 C487 0.930 . S
H515 C488 0.929 . S
H516 C493 0.930 . S
H517 C494 0.929 . S
H518 C496 0.930 . S
H519 C497 0.929 . S
Sm520 C522 2.828 1_565 S
Sm520 O540 2.513 1_565 S
Sm520 O541 2.448 1_565 S
Sm520 O542 2.696 . S
Sm520 O543 2.490 . S
Sm520 O544 2.378 1_565 S
Sm520 O548 2.362 1_564 S
Sm520 O551 2.428 1_554 S
Sm521 C531 2.846 1_545 S
Sm521 O542 2.386 1_546 S
Sm521 O545 2.408 1_556 S
Sm521 O546 2.543 1_545 S
Sm521 O547 2.450 1_545 S
Sm521 O548 2.681 . S
Sm521 O549 2.464 . S
Sm521 O550 2.396 1_545 S
C522 Sm520 2.828 1_545 S
C522 C523 1.506 . S
C522 O540 1.261 . S
C522 O541 1.242 . S
C523 C522 1.506 . S
C523 C524 1.358 . S
C523 C528 1.382 . S
C524 C523 1.358 . S
C524 C525 1.385 . S
C524 H552 0.930 . S
C525 C524 1.385 . S
C525 C526 1.395 . S
C525 H553 0.929 . S
C526 C525 1.395 . S
C526 C527 1.335 . S
C527 C526 1.335 . S
C527 C528 1.398 . S
C527 H554 0.930 . S
C528 C523 1.382 . S
C528 C527 1.398 . S
C528 H555 0.929 . S
C529 O542 1.271 . S
C529 O543 1.251 . S
C530 O544 1.252 . S
C530 O545 1.272 . S
C531 Sm521 2.846 1_565 S
C531 C532 1.506 . S
C531 O546 1.261 . S
C531 O547 1.242 . S
C532 C531 1.506 . S
C532 C533 1.358 . S
C532 C537 1.382 . S
C533 C532 1.358 . S
C533 C534 1.385 . S
C533 H556 0.930 . S
C534 C533 1.385 . S
C534 C535 1.395 . S
C534 H557 0.929 . S
C535 C534 1.395 . S
C535 C536 1.335 . S
C536 C535 1.335 . S
C536 C537 1.398 . S
C536 H558 0.930 . S
C537 C532 1.382 . S
C537 C536 1.398 . S
C537 H559 0.929 . S
C538 O548 1.271 . S
C538 O549 1.251 . S
C539 O550 1.252 . S
C539 O551 1.272 . S
O540 Sm520 2.513 1_545 S
O540 C522 1.261 . S
O541 Sm520 2.448 1_545 S
O541 C522 1.242 . S
O542 Sm520 2.696 . S
O542 Sm521 2.386 1_564 S
O542 C529 1.271 . S
O543 Sm520 2.490 . S
O543 C529 1.251 . S
O544 Sm520 2.378 1_545 S
O544 C530 1.252 . S
O545 Sm521 2.408 1_554 S
O545 C530 1.272 . S
O546 Sm521 2.543 1_565 S
O546 C531 1.261 . S
O547 Sm521 2.450 1_565 S
O547 C531 1.242 . S
O548 Sm520 2.362 1_546 S
O548 Sm521 2.681 . S
O548 C538 1.271 . S
O549 Sm521 2.464 . S
O549 C538 1.251 . S
O550 Sm521 2.396 1_565 S
O550 C539 1.252 . S
O551 Sm520 2.428 1_556 S
O551 C539 1.272 . S
H552 C524 0.930 . S
H553 C525 0.929 . S
H554 C527 0.930 . S
H555 C528 0.929 . S
H556 C533 0.930 . S
H557 C534 0.929 . S
H558 C536 0.930 . S
H559 C537 0.929 . S
Sm560 C562 2.846 . S
Sm560 O580 2.543 . S
Sm560 O581 2.450 . S
Sm560 O582 2.681 . S
Sm560 O583 2.464 . S
Sm560 O584 2.396 . S
Sm560 O588 2.386 . S
Sm560 O591 2.408 . S
Sm561 C571 2.846 . S
Sm561 O582 2.386 . S
Sm561 O585 2.408 . S
Sm561 O586 2.543 . S
Sm561 O587 2.450 . S
Sm561 O588 2.681 . S
Sm561 O589 2.464 . S
Sm561 O590 2.396 . S
C562 Sm560 2.846 . S
C562 C563 1.506 . S
C562 O580 1.261 . S
C562 O581 1.242 . S
C563 C562 1.506 . S
C563 C564 1.358 . S
C563 C568 1.382 . S
C564 C563 1.358 . S
C564 C565 1.385 . S
C564 H592 0.930 . S
C565 C564 1.385 . S
C565 C566 1.395 . S
C565 H593 0.929 . S
C566 C565 1.395 . S
C566 C567 1.335 . S
C567 C566 1.335 . S
C567 C568 1.398 . S
C567 H594 0.930 . S
C568 C563 1.382 . S
C568 C567 1.398 . S
C568 H595 0.929 . S
C569 O582 1.271 . S
C569 O583 1.251 . S
C570 O584 1.252 . S
C570 O585 1.272 . S
C571 Sm561 2.846 . S
C571 C572 1.506 . S
C571 O586 1.261 . S
C571 O587 1.242 . S
C572 C571 1.506 . S
C572 C573 1.358 . S
C572 C577 1.382 . S
C573 C572 1.358 . S
C573 C574 1.385 . S
C573 H596 0.930 . S
C574 C573 1.385 . S
C574 C575 1.395 . S
C574 H597 0.929 . S
C575 C574 1.395 . S
C575 C576 1.335 . S
C576 C575 1.335 . S
C576 C577 1.398 . S
C576 H598 0.930 . S
C577 C572 1.382 . S
C577 C576 1.398 . S
C577 H599 0.929 . S
C578 O588 1.271 . S
C578 O589 1.251 . S
C579 O590 1.252 . S
C579 O591 1.272 . S
O580 Sm560 2.543 . S
O580 C562 1.261 . S
O581 Sm560 2.450 . S
O581 C562 1.242 . S
O582 Sm560 2.681 . S
O582 Sm561 2.386 . S
O582 C569 1.271 . S
O583 Sm560 2.464 . S
O583 C569 1.251 . S
O584 Sm560 2.396 . S
O584 C570 1.252 . S
O585 Sm561 2.408 . S
O585 C570 1.272 . S
O586 Sm561 2.543 . S
O586 C571 1.261 . S
O587 Sm561 2.450 . S
O587 C571 1.242 . S
O588 Sm560 2.386 . S
O588 Sm561 2.681 . S
O588 C578 1.271 . S
O589 Sm561 2.464 . S
O589 C578 1.251 . S
O590 Sm561 2.396 . S
O590 C579 1.252 . S
O591 Sm560 2.408 . S
O591 C579 1.272 . S
H592 C564 0.930 . S
H593 C565 0.929 . S
H594 C567 0.930 . S
H595 C568 0.929 . S
H596 C573 0.930 . S
H597 C574 0.929 . S
H598 C576 0.930 . S
H599 C577 0.929 . S
Sm600 C602 2.846 . S
Sm600 O620 2.543 . S
Sm600 O621 2.450 . S
Sm600 O622 2.681 1_455 S
Sm600 O623 2.464 1_455 S
Sm600 O624 2.396 . S
Sm600 O628 2.386 1_554 S
Sm600 O631 2.408 1_454 S
Sm601 C611 2.846 . S
Sm601 O622 2.386 1_556 S
Sm601 O625 2.408 1_656 S
Sm601 O626 2.543 . S
Sm601 O627 2.450 . S
Sm601 O628 2.681 1_655 S
Sm601 O629 2.464 1_655 S
Sm601 O630 2.396 . S
C602 Sm600 2.846 . S
C602 C603 1.506 . S
C602 O620 1.261 . S
C602 O621 1.242 . S
C603 C602 1.506 . S
C603 C604 1.358 . S
C603 C608 1.382 . S
C604 C603 1.358 . S
C604 C605 1.385 . S
C604 H632 0.930 . S
C605 C604 1.385 . S
C605 C606 1.395 . S
C605 H633 0.929 . S
C606 C605 1.395 . S
C606 C607 1.335 . S
C607 C606 1.335 . S
C607 C608 1.398 . S
C607 H634 0.930 . S
C608 C603 1.382 . S
C608 C607 1.398 . S
C608 H635 0.929 . S
C609 O622 1.271 . S
C609 O623 1.251 . S
C610 O624 1.252 . S
C610 O625 1.272 . S
C611 Sm601 2.846 . S
C611 C612 1.506 . S
C611 O626 1.261 . S
C611 O627 1.242 . S
C612 C611 1.506 . S
C612 C613 1.358 . S
C612 C617 1.382 . S
C613 C612 1.358 . S
C613 C614 1.385 . S
C613 H636 0.930 . S
C614 C613 1.385 . S
C614 C615 1.395 . S
C614 H637 0.929 . S
C615 C614 1.395 . S
C615 C616 1.335 . S
C616 C615 1.335 . S
C616 C617 1.398 . S
C616 H638 0.930 . S
C617 C612 1.382 . S
C617 C616 1.398 . S
C617 H639 0.929 . S
C618 O628 1.271 . S
C618 O629 1.251 . S
C619 O630 1.252 . S
C619 O631 1.272 . S
O620 Sm600 2.543 . S
O620 C602 1.261 . S
O621 Sm600 2.450 . S
O621 C602 1.242 . S
O622 Sm600 2.681 1_655 S
O622 Sm601 2.386 1_554 S
O622 C609 1.271 . S
O623 Sm600 2.464 1_655 S
O623 C609 1.251 . S
O624 Sm600 2.396 . S
O624 C610 1.252 . S
O625 Sm601 2.408 1_454 S
O625 C610 1.272 . S
O626 Sm601 2.543 . S
O626 C611 1.261 . S
O627 Sm601 2.450 . S
O627 C611 1.242 . S
O628 Sm600 2.386 1_556 S
O628 Sm601 2.681 1_455 S
O628 C618 1.271 . S
O629 Sm601 2.464 1_455 S
O629 C618 1.251 . S
O630 Sm601 2.396 . S
O630 C619 1.252 . S
O631 Sm600 2.408 1_656 S
O631 C619 1.272 . S
H632 C604 0.930 . S
H633 C605 0.929 . S
H634 C607 0.930 . S
H635 C608 0.929 . S
H636 C613 0.930 . S
H637 C614 0.929 . S
H638 C616 0.930 . S
H639 C617 0.929 . S
H640 C658 0.951 . S
H641 C660 0.951 . S
H642 C662 0.950 . S
H643 C663 0.950 . S
H644 C665 0.950 . S
H645 C668 0.950 . S
H646 C669 0.950 . S
H647 C671 0.950 . S
H648 C672 0.950 . S
H649 C673 0.951 . S
H650 C675 0.951 . S
H651 C677 0.950 . S
H652 C678 0.950 . S
H653 C680 0.950 . S
H654 C683 0.950 . S
H655 C684 0.950 . S
H656 C686 0.950 . S
H657 C687 0.950 . S
C658 H640 0.951 . S
C658 C659 1.366 . S
C658 C660 1.388 . S
C659 C658 1.366 . S
C659 C663 1.385 . S
C660 H641 0.951 . S
C660 C658 1.388 . S
C660 C661 1.366 . S
C661 C660 1.366 . S
C661 C662 1.414 . S
C661 C664 1.499 . S
C662 H642 0.950 . S
C662 C661 1.414 . S
C662 C663 1.374 . S
C663 H643 0.950 . S
C663 C659 1.385 . S
C663 C662 1.374 . S
C664 C661 1.499 . S
C664 C665 1.373 . S
C664 C666 1.389 . S
C665 H644 0.950 . S
C665 C664 1.373 . S
C665 C681 1.377 . S
C666 C664 1.389 . S
C666 C667 1.524 . S
C666 C680 1.377 . S
C667 C666 1.524 . S
C667 C668 1.397 . S
C667 C672 1.363 . S
C668 H645 0.950 . S
C668 C667 1.397 . S
C668 C669 1.334 . S
C669 H646 0.950 . S
C669 C668 1.334 . S
C669 C670 1.287 . S
C670 C669 1.287 . S
C670 C671 1.524 . S
C670 H689 0.913 . S
C671 H647 0.950 . S
C671 C670 1.524 . S
C671 C672 1.415 . S
C672 H648 0.950 . S
C672 C667 1.363 . S
C672 C671 1.415 . S
C673 H649 0.951 . S
C673 C674 1.366 . S
C673 C675 1.388 . S
C674 C673 1.366 . S
C674 C678 1.385 . S
C675 H650 0.951 . S
C675 C673 1.388 . S
C675 C676 1.366 . S
C676 C675 1.366 . S
C676 C677 1.414 . S
C676 C679 1.499 . S
C677 H651 0.950 . S
C677 C676 1.414 . S
C677 C678 1.374 . S
C678 H652 0.950 . S
C678 C674 1.385 . S
C678 C677 1.374 . S
C679 C676 1.499 . S
C679 C680 1.373 . S
C679 C681 1.389 . S
C680 H653 0.950 . S
C680 C666 1.377 . S
C680 C679 1.373 . S
C681 C665 1.377 . S
C681 C679 1.389 . S
C681 C682 1.524 . S
C682 C681 1.524 . S
C682 C683 1.397 . S
C682 C687 1.363 . S
C683 H654 0.950 . S
C683 C682 1.397 . S
C683 C684 1.334 . S
C684 H655 0.950 . S
C684 C683 1.334 . S
C684 C685 1.287 . S
C685 C684 1.287 . S
C685 C686 1.524 . S
C685 H688 0.999 . S
C686 H656 0.950 . S
C686 C685 1.524 . S
C686 C687 1.415 . S
C687 H657 0.950 . S
C687 C682 1.363 . S
C687 C686 1.415 . S
H688 C685 0.999 . S
H689 C670 0.913 . S
H690 C708 0.951 . S
H691 C710 0.951 . S
H692 C712 0.950 . S
H693 C713 0.950 . S
H694 C715 0.950 . S
H695 C718 0.950 . S
H696 C719 0.950 . S
H697 C721 0.950 . S
H698 C722 0.950 . S
H699 C723 0.951 . S
H700 C725 0.951 . S
H701 C727 0.950 . S
H702 C728 0.950 . S
H703 C730 0.950 . S
H704 C733 0.950 . S
H705 C734 0.950 . S
H706 C736 0.950 1_545 S
H707 C737 0.950 . S
C708 H690 0.951 . S
C708 C709 1.366 . S
C708 C710 1.388 . S
C709 C708 1.366 . S
C709 C713 1.385 . S
C710 H691 0.951 . S
C710 C708 1.388 . S
C710 C711 1.366 . S
C711 C710 1.366 . S
C711 C712 1.414 . S
C711 C714 1.499 . S
C712 H692 0.950 . S
C712 C711 1.414 . S
C712 C713 1.374 . S
C713 H693 0.950 . S
C713 C709 1.385 . S
C713 C712 1.374 . S
C714 C711 1.499 . S
C714 C715 1.373 . S
C714 C716 1.389 . S
C715 H694 0.950 . S
C715 C714 1.373 . S
C715 C731 1.377 . S
C716 C714 1.389 . S
C716 C717 1.524 . S
C716 C730 1.377 . S
C717 C716 1.524 . S
C717 C718 1.397 . S
C717 C722 1.363 . S
C718 H695 0.950 . S
C718 C717 1.397 . S
C718 C719 1.334 . S
C719 H696 0.950 . S
C719 C718 1.334 . S
C719 C720 1.287 . S
C720 C719 1.287 . S
C720 C721 1.524 . S
C720 H739 0.913 . S
C721 H697 0.950 . S
C721 C720 1.524 . S
C721 C722 1.415 . S
C722 H698 0.950 . S
C722 C717 1.363 . S
C722 C721 1.415 . S
C723 H699 0.951 . S
C723 C724 1.366 . S
C723 C725 1.388 . S
C724 C723 1.366 . S
C724 C728 1.385 . S
C725 H700 0.951 . S
C725 C723 1.388 . S
C725 C726 1.366 . S
C726 C725 1.366 . S
C726 C727 1.414 . S
C726 C729 1.499 . S
C727 H701 0.950 . S
C727 C726 1.414 . S
C727 C728 1.374 . S
C728 H702 0.950 . S
C728 C724 1.385 . S
C728 C727 1.374 . S
C729 C726 1.499 . S
C729 C730 1.373 . S
C729 C731 1.389 . S
C730 H703 0.950 . S
C730 C716 1.377 . S
C730 C729 1.373 . S
C731 C715 1.377 . S
C731 C729 1.389 . S
C731 C732 1.524 . S
C732 C731 1.524 . S
C732 C733 1.397 . S
C732 C737 1.363 . S
C733 H704 0.950 . S
C733 C732 1.397 . S
C733 C734 1.334 . S
C734 H705 0.950 . S
C734 C733 1.334 . S
C734 C735 1.287 1_565 S
C735 C734 1.287 1_545 S
C735 C736 1.524 1_545 S
C735 H738 0.999 . S
C736 H706 0.950 1_565 S
C736 C735 1.524 1_565 S
C736 C737 1.415 . S
C737 H707 0.950 . S
C737 C732 1.363 . S
C737 C736 1.415 . S
H738 C735 0.999 . S
H739 C720 0.913 . S
H740 C758 0.951 . S
H741 C760 0.951 . S
H742 C762 0.950 . S
H743 C763 0.950 . S
H744 C765 0.950 . S
H745 C768 0.950 . S
H746 C769 0.950 . S
H747 C771 0.950 . S
H748 C772 0.950 . S
H749 C773 0.951 . S
H750 C775 0.951 . S
H751 C777 0.950 . S
H752 C778 0.950 . S
H753 C780 0.950 . S
H754 C783 0.950 . S
H755 C784 0.950 . S
H756 C786 0.950 . S
H757 C787 0.950 . S
C758 H740 0.951 . S
C758 C759 1.366 . S
C758 C760 1.388 . S
C759 C758 1.366 . S
C759 C763 1.385 . S
C760 H741 0.951 . S
C760 C758 1.388 . S
C760 C761 1.366 . S
C761 C760 1.366 . S
C761 C762 1.414 . S
C761 C764 1.499 . S
C762 H742 0.950 . S
C762 C761 1.414 . S
C762 C763 1.374 . S
C763 H743 0.950 . S
C763 C759 1.385 . S
C763 C762 1.374 . S
C764 C761 1.499 . S
C764 C765 1.373 . S
C764 C766 1.389 . S
C765 H744 0.950 . S
C765 C764 1.373 . S
C765 C781 1.377 . S
C766 C764 1.389 . S
C766 C767 1.524 . S
C766 C780 1.377 . S
C767 C766 1.524 . S
C767 C768 1.397 . S
C767 C772 1.363 . S
C768 H745 0.950 . S
C768 C767 1.397 . S
C768 C769 1.334 . S
C769 H746 0.950 . S
C769 C768 1.334 . S
C769 C770 1.287 . S
C770 C769 1.287 . S
C770 C771 1.524 . S
C770 H789 0.913 . S
C771 H747 0.950 . S
C771 C770 1.524 . S
C771 C772 1.415 . S
C772 H748 0.950 . S
C772 C767 1.363 . S
C772 C771 1.415 . S
C773 H749 0.951 . S
C773 C774 1.366 . S
C773 C775 1.388 . S
C774 C773 1.366 . S
C774 C778 1.385 . S
C775 H750 0.951 . S
C775 C773 1.388 . S
C775 C776 1.366 . S
C776 C775 1.366 . S
C776 C777 1.414 . S
C776 C779 1.499 . S
C777 H751 0.950 . S
C777 C776 1.414 . S
C777 C778 1.374 . S
C778 H752 0.950 . S
C778 C774 1.385 . S
C778 C777 1.374 . S
C779 C776 1.499 . S
C779 C780 1.373 . S
C779 C781 1.389 . S
C780 H753 0.950 . S
C780 C766 1.377 . S
C780 C779 1.373 . S
C781 C765 1.377 . S
C781 C779 1.389 . S
C781 C782 1.524 . S
C782 C781 1.524 . S
C782 C783 1.397 . S
C782 C787 1.363 . S
C783 H754 0.950 . S
C783 C782 1.397 . S
C783 C784 1.334 . S
C784 H755 0.950 . S
C784 C783 1.334 . S
C784 C785 1.287 . S
C785 C784 1.287 . S
C785 C786 1.524 . S
C785 H788 0.999 . S
C786 H756 0.950 . S
C786 C785 1.524 . S
C786 C787 1.415 . S
C787 H757 0.950 . S
C787 C782 1.363 . S
C787 C786 1.415 . S
H788 C785 0.999 . S
H789 C770 0.913 . S
H790 C808 0.951 . S
H791 C810 0.951 . S
H792 C812 0.950 . S
H793 C813 0.950 . S
H794 C815 0.950 . S
H795 C818 0.950 . S
H796 C819 0.950 . S
H797 C821 0.950 . S
H798 C822 0.950 . S
H799 C823 0.951 . S
H800 C825 0.951 . S
H801 C827 0.950 . S
H802 C828 0.950 . S
H803 C830 0.950 . S
H804 C833 0.950 . S
H805 C834 0.950 . S
H806 C836 0.950 . S
H807 C837 0.950 . S
C808 H790 0.951 . S
C808 C809 1.366 . S
C808 C810 1.388 . S
C809 C808 1.366 . S
C809 C813 1.385 . S
C810 H791 0.951 . S
C810 C808 1.388 . S
C810 C811 1.366 . S
C811 C810 1.366 . S
C811 C812 1.414 . S
C811 C814 1.499 . S
C812 H792 0.950 . S
C812 C811 1.414 . S
C812 C813 1.374 . S
C813 H793 0.950 . S
C813 C809 1.385 . S
C813 C812 1.374 . S
C814 C811 1.499 . S
C814 C815 1.373 . S
C814 C816 1.389 . S
C815 H794 0.950 . S
C815 C814 1.373 . S
C815 C831 1.377 . S
C816 C814 1.389 . S
C816 C817 1.524 . S
C816 C830 1.377 . S
C817 C816 1.524 . S
C817 C818 1.397 . S
C817 C822 1.363 . S
C818 H795 0.950 . S
C818 C817 1.397 . S
C818 C819 1.334 . S
C819 H796 0.950 . S
C819 C818 1.334 . S
C819 C820 1.287 . S
C820 C819 1.287 . S
C820 C821 1.524 . S
C820 H839 0.913 . S
C821 H797 0.950 . S
C821 C820 1.524 . S
C821 C822 1.415 . S
C822 H798 0.950 . S
C822 C817 1.363 . S
C822 C821 1.415 . S
C823 H799 0.951 . S
C823 C824 1.366 . S
C823 C825 1.388 . S
C824 C823 1.366 . S
C824 C828 1.385 . S
C825 H800 0.951 . S
C825 C823 1.388 . S
C825 C826 1.366 . S
C826 C825 1.366 . S
C826 C827 1.414 . S
C826 C829 1.499 . S
C827 H801 0.950 . S
C827 C826 1.414 . S
C827 C828 1.374 . S
C828 H802 0.950 . S
C828 C824 1.385 . S
C828 C827 1.374 . S
C829 C826 1.499 . S
C829 C830 1.373 . S
C829 C831 1.389 . S
C830 H803 0.950 . S
C830 C816 1.377 . S
C830 C829 1.373 . S
C831 C815 1.377 . S
C831 C829 1.389 . S
C831 C832 1.524 . S
C832 C831 1.524 . S
C832 C833 1.397 . S
C832 C837 1.363 . S
C833 H804 0.950 . S
C833 C832 1.397 . S
C833 C834 1.334 . S
C834 H805 0.950 . S
C834 C833 1.334 . S
C834 C835 1.287 . S
C835 C834 1.287 . S
C835 C836 1.524 . S
C835 H838 0.999 . S
C836 H806 0.950 . S
C836 C835 1.524 . S
C836 C837 1.415 . S
C837 H807 0.950 . S
C837 C832 1.363 . S
C837 C836 1.415 . S
H838 C835 0.999 . S
H839 C820 0.913 . S
H840 C858 0.951 . S
H841 C860 0.951 . S
H842 C862 0.950 . S
H843 C863 0.950 . S
H844 C865 0.950 . S
H845 C868 0.950 . S
H846 C869 0.950 . S
H847 C871 0.950 . S
H848 C872 0.950 . S
H849 C873 0.951 . S
H850 C875 0.951 . S
H851 C877 0.950 . S
H852 C878 0.950 . S
H853 C880 0.950 . S
H854 C883 0.950 . S
H855 C884 0.950 . S
H856 C886 0.950 . S
H857 C887 0.950 . S
C858 H840 0.951 . S
C858 C859 1.366 . S
C858 C860 1.388 . S
C859 C858 1.366 . S
C859 C863 1.385 . S
C860 H841 0.951 . S
C860 C858 1.388 . S
C860 C861 1.366 . S
C861 C860 1.366 . S
C861 C862 1.414 . S
C861 C864 1.499 . S
C862 H842 0.950 . S
C862 C861 1.414 . S
C862 C863 1.374 . S
C863 H843 0.950 . S
C863 C859 1.385 . S
C863 C862 1.374 . S
C864 C861 1.499 . S
C864 C865 1.373 . S
C864 C866 1.389 . S
C865 H844 0.950 . S
C865 C864 1.373 . S
C865 C881 1.377 . S
C866 C864 1.389 . S
C866 C867 1.524 . S
C866 C880 1.377 . S
C867 C866 1.524 . S
C867 C868 1.397 . S
C867 C872 1.363 . S
C868 H845 0.950 . S
C868 C867 1.397 . S
C868 C869 1.334 . S
C869 H846 0.950 . S
C869 C868 1.334 . S
C869 C870 1.287 . S
C870 C869 1.287 . S
C870 C871 1.524 . S
C870 H889 0.913 . S
C871 H847 0.950 . S
C871 C870 1.524 . S
C871 C872 1.415 . S
C872 H848 0.950 . S
C872 C867 1.363 . S
C872 C871 1.415 . S
C873 H849 0.951 . S
C873 C874 1.366 . S
C873 C875 1.388 . S
C874 C873 1.366 . S
C874 C878 1.385 . S
C875 H850 0.951 . S
C875 C873 1.388 . S
C875 C876 1.366 . S
C876 C875 1.366 . S
C876 C877 1.414 . S
C876 C879 1.499 . S
C877 H851 0.950 . S
C877 C876 1.414 . S
C877 C878 1.374 . S
C878 H852 0.950 . S
C878 C874 1.385 . S
C878 C877 1.374 . S
C879 C876 1.499 . S
C879 C880 1.373 . S
C879 C881 1.389 . S
C880 H853 0.950 . S
C880 C866 1.377 . S
C880 C879 1.373 . S
C881 C865 1.377 . S
C881 C879 1.389 . S
C881 C882 1.524 . S
C882 C881 1.524 . S
C882 C883 1.397 . S
C882 C887 1.363 . S
C883 H854 0.950 . S
C883 C882 1.397 . S
C883 C884 1.334 . S
C884 H855 0.950 . S
C884 C883 1.334 . S
C884 C885 1.287 . S
C885 C884 1.287 . S
C885 C886 1.524 . S
C885 H888 0.999 . S
C886 H856 0.950 . S
C886 C885 1.524 . S
C886 C887 1.415 . S
C887 H857 0.950 . S
C887 C882 1.363 . S
C887 C886 1.415 . S
H888 C885 0.999 . S
H889 C870 0.913 . S
H890 C908 0.951 . S
H891 C910 0.951 . S
H892 C912 0.950 . S
H893 C913 0.950 . S
H894 C915 0.950 . S
H895 C918 0.950 . S
H896 C919 0.950 . S
H897 C921 0.950 . S
H898 C922 0.950 . S
H899 C923 0.951 . S
H900 C925 0.951 . S
H901 C927 0.950 . S
H902 C928 0.950 . S
H903 C930 0.950 . S
H904 C933 0.950 . S
H905 C934 0.950 . S
H906 C936 0.950 . S
H907 C937 0.950 . S
C908 H890 0.951 . S
C908 C909 1.366 . S
C908 C910 1.388 . S
C909 C908 1.366 . S
C909 C913 1.385 . S
C910 H891 0.951 . S
C910 C908 1.388 . S
C910 C911 1.366 . S
C911 C910 1.366 . S
C911 C912 1.414 . S
C911 C914 1.499 . S
C912 H892 0.950 . S
C912 C911 1.414 . S
C912 C913 1.374 . S
C913 H893 0.950 . S
C913 C909 1.385 . S
C913 C912 1.374 . S
C914 C911 1.499 . S
C914 C915 1.373 . S
C914 C916 1.389 . S
C915 H894 0.950 . S
C915 C914 1.373 . S
C915 C931 1.377 . S
C916 C914 1.389 . S
C916 C917 1.524 . S
C916 C930 1.377 . S
C917 C916 1.524 . S
C917 C918 1.397 . S
C917 C922 1.363 . S
C918 H895 0.950 . S
C918 C917 1.397 . S
C918 C919 1.334 . S
C919 H896 0.950 . S
C919 C918 1.334 . S
C919 C920 1.287 . S
C920 C919 1.287 . S
C920 C921 1.524 . S
C920 H939 0.913 . S
C921 H897 0.950 . S
C921 C920 1.524 . S
C921 C922 1.415 . S
C922 H898 0.950 . S
C922 C917 1.363 . S
C922 C921 1.415 . S
C923 H899 0.951 . S
C923 C924 1.366 . S
C923 C925 1.388 . S
C924 C923 1.366 . S
C924 C928 1.385 . S
C925 H900 0.951 . S
C925 C923 1.388 . S
C925 C926 1.366 . S
C926 C925 1.366 . S
C926 C927 1.414 . S
C926 C929 1.499 . S
C927 H901 0.950 . S
C927 C926 1.414 . S
C927 C928 1.374 . S
C928 H902 0.950 . S
C928 C924 1.385 . S
C928 C927 1.374 . S
C929 C926 1.499 . S
C929 C930 1.373 . S
C929 C931 1.389 . S
C930 H903 0.950 . S
C930 C916 1.377 . S
C930 C929 1.373 . S
C931 C915 1.377 . S
C931 C929 1.389 . S
C931 C932 1.524 . S
C932 C931 1.524 . S
C932 C933 1.397 . S
C932 C937 1.363 . S
C933 H904 0.950 . S
C933 C932 1.397 . S
C933 C934 1.334 1_565 S
C934 H905 0.950 . S
C934 C933 1.334 1_545 S
C934 C935 1.287 . S
C935 C934 1.287 . S
C935 C936 1.524 . S
C935 H938 0.999 . S
C936 H906 0.950 . S
C936 C935 1.524 . S
C936 C937 1.415 1_545 S
C937 H907 0.950 . S
C937 C932 1.363 . S
C937 C936 1.415 1_565 S
H938 C935 0.999 . S
H939 C920 0.913 . S
H940 C958 0.951 . S
H941 C960 0.951 . S
H942 C962 0.950 . S
H943 C963 0.950 . S
H944 C965 0.950 . S
H945 C968 0.950 . S
H946 C969 0.950 . S
H947 C971 0.950 . S
H948 C972 0.950 . S
H949 C973 0.951 . S
H950 C975 0.951 . S
H951 C977 0.950 . S
H952 C978 0.950 . S
H953 C980 0.950 . S
H954 C983 0.950 . S
H955 C984 0.950 . S
H956 C986 0.950 . S
H957 C987 0.950 . S
C958 H940 0.951 . S
C958 C959 1.366 . S
C958 C960 1.388 . S
C959 C958 1.366 . S
C959 C963 1.385 . S
C960 H941 0.951 . S
C960 C958 1.388 . S
C960 C961 1.366 . S
C961 C960 1.366 . S
C961 C962 1.414 . S
C961 C964 1.499 . S
C962 H942 0.950 . S
C962 C961 1.414 . S
C962 C963 1.374 . S
C963 H943 0.950 . S
C963 C959 1.385 . S
C963 C962 1.374 . S
C964 C961 1.499 . S
C964 C965 1.373 . S
C964 C966 1.389 . S
C965 H944 0.950 . S
C965 C964 1.373 . S
C965 C981 1.377 . S
C966 C964 1.389 . S
C966 C967 1.524 . S
C966 C980 1.377 . S
C967 C966 1.524 . S
C967 C968 1.397 . S
C967 C972 1.363 . S
C968 H945 0.950 . S
C968 C967 1.397 . S
C968 C969 1.334 . S
C969 H946 0.950 . S
C969 C968 1.334 . S
C969 C970 1.287 . S
C970 C969 1.287 . S
C970 C971 1.524 . S
C970 H989 0.913 . S
C971 H947 0.950 . S
C971 C970 1.524 . S
C971 C972 1.415 . S
C972 H948 0.950 . S
C972 C967 1.363 . S
C972 C971 1.415 . S
C973 H949 0.951 . S
C973 C974 1.366 . S
C973 C975 1.388 . S
C974 C973 1.366 . S
C974 C978 1.385 . S
C975 H950 0.951 . S
C975 C973 1.388 . S
C975 C976 1.366 . S
C976 C975 1.366 . S
C976 C977 1.414 . S
C976 C979 1.499 . S
C977 H951 0.950 . S
C977 C976 1.414 . S
C977 C978 1.374 . S
C978 H952 0.950 . S
C978 C974 1.385 . S
C978 C977 1.374 . S
C979 C976 1.499 . S
C979 C980 1.373 . S
C979 C981 1.389 . S
C980 H953 0.950 . S
C980 C966 1.377 . S
C980 C979 1.373 . S
C981 C965 1.377 . S
C981 C979 1.389 . S
C981 C982 1.524 . S
C982 C981 1.524 . S
C982 C983 1.397 . S
C982 C987 1.363 . S
C983 H954 0.950 . S
C983 C982 1.397 . S
C983 C984 1.334 . S
C984 H955 0.950 . S
C984 C983 1.334 . S
C984 C985 1.287 . S
C985 C984 1.287 . S
C985 C986 1.524 . S
C985 H988 0.999 . S
C986 H956 0.950 . S
C986 C985 1.524 . S
C986 C987 1.415 . S
C987 H957 0.950 . S
C987 C982 1.363 . S
C987 C986 1.415 . S
H988 C985 0.999 . S
H989 C970 0.913 . S
H990 C1008 0.951 . S
H991 C1010 0.951 . S
H992 C1012 0.950 . S
H993 C1013 0.950 . S
H994 C1015 0.950 . S
H995 C1018 0.950 . S
H996 C1019 0.950 . S
H997 C1021 0.950 . S
H998 C1022 0.950 . S
H999 C1023 0.951 . S
H1000 C1025 0.951 . S
H1001 C1027 0.950 . S
H1002 C1028 0.950 . S
H1003 C1030 0.950 . S
H1004 C1033 0.950 . S
H1005 C1034 0.950 . S
H1006 C1036 0.950 . S
H1007 C1037 0.950 . S
C1008 H990 0.951 . S
C1008 C1009 1.366 . S
C1008 C1010 1.388 . S
C1009 C1008 1.366 . S
C1009 C1013 1.385 . S
C1010 H991 0.951 . S
C1010 C1008 1.388 . S
C1010 C1011 1.366 . S
C1011 C1010 1.366 . S
C1011 C1012 1.414 . S
C1011 C1014 1.499 . S
C1012 H992 0.950 . S
C1012 C1011 1.414 . S
C1012 C1013 1.374 . S
C1013 H993 0.950 . S
C1013 C1009 1.385 . S
C1013 C1012 1.374 . S
C1014 C1011 1.499 . S
C1014 C1015 1.373 . S
C1014 C1016 1.389 . S
C1015 H994 0.950 . S
C1015 C1014 1.373 . S
C1015 C1031 1.377 . S
C1016 C1014 1.389 . S
C1016 C1017 1.524 . S
C1016 C1030 1.377 . S
C1017 C1016 1.524 . S
C1017 C1018 1.397 . S
C1017 C1022 1.363 . S
C1018 H995 0.950 . S
C1018 C1017 1.397 . S
C1018 C1019 1.334 . S
C1019 H996 0.950 . S
C1019 C1018 1.334 . S
C1019 C1020 1.287 . S
C1020 C1019 1.287 . S
C1020 C1021 1.524 . S
C1020 H1039 0.913 . S
C1021 H997 0.950 . S
C1021 C1020 1.524 . S
C1021 C1022 1.415 . S
C1022 H998 0.950 . S
C1022 C1017 1.363 . S
C1022 C1021 1.415 . S
C1023 H999 0.951 . S
C1023 C1024 1.366 . S
C1023 C1025 1.388 . S
C1024 C1023 1.366 . S
C1024 C1028 1.385 . S
C1025 H1000 0.951 . S
C1025 C1023 1.388 . S
C1025 C1026 1.366 . S
C1026 C1025 1.366 . S
C1026 C1027 1.414 . S
C1026 C1029 1.499 . S
C1027 H1001 0.950 . S
C1027 C1026 1.414 . S
C1027 C1028 1.374 . S
C1028 H1002 0.950 . S
C1028 C1024 1.385 . S
C1028 C1027 1.374 . S
C1029 C1026 1.499 . S
C1029 C1030 1.373 . S
C1029 C1031 1.389 . S
C1030 H1003 0.950 . S
C1030 C1016 1.377 . S
C1030 C1029 1.373 . S
C1031 C1015 1.377 . S
C1031 C1029 1.389 . S
C1031 C1032 1.524 . S
C1032 C1031 1.524 . S
C1032 C1033 1.397 . S
C1032 C1037 1.363 . S
C1033 H1004 0.950 . S
C1033 C1032 1.397 . S
C1033 C1034 1.334 . S
C1034 H1005 0.950 . S
C1034 C1033 1.334 . S
C1034 C1035 1.287 . S
C1035 C1034 1.287 . S
C1035 C1036 1.524 . S
C1035 H1038 0.999 . S
C1036 H1006 0.950 . S
C1036 C1035 1.524 . S
C1036 C1037 1.415 . S
C1037 H1007 0.950 . S
C1037 C1032 1.363 . S
C1037 C1036 1.415 . S
H1038 C1035 0.999 . S
H1039 C1020 0.913 . S
H1040 C1058 0.951 . S
H1041 C1060 0.951 . S
H1042 C1062 0.950 . S
H1043 C1063 0.950 . S
H1044 C1065 0.950 . S
H1045 C1068 0.950 . S
H1046 C1069 0.950 . S
H1047 C1071 0.950 . S
H1048 C1072 0.950 . S
H1049 C1073 0.951 . S
H1050 C1075 0.951 . S
H1051 C1077 0.950 . S
H1052 C1078 0.950 . S
H1053 C1080 0.950 . S
H1054 C1083 0.950 . S
H1055 C1084 0.950 . S
H1056 C1086 0.950 . S
H1057 C1087 0.950 . S
C1058 H1040 0.951 . S
C1058 C1059 1.366 . S
C1058 C1060 1.388 . S
C1059 C1058 1.366 . S
C1059 C1063 1.385 . S
C1060 H1041 0.951 . S
C1060 C1058 1.388 . S
C1060 C1061 1.366 . S
C1061 C1060 1.366 . S
C1061 C1062 1.414 . S
C1061 C1064 1.499 . S
C1062 H1042 0.950 . S
C1062 C1061 1.414 . S
C1062 C1063 1.374 . S
C1063 H1043 0.950 . S
C1063 C1059 1.385 . S
C1063 C1062 1.374 . S
C1064 C1061 1.499 . S
C1064 C1065 1.373 . S
C1064 C1066 1.389 . S
C1065 H1044 0.950 . S
C1065 C1064 1.373 . S
C1065 C1081 1.377 . S
C1066 C1064 1.389 . S
C1066 C1067 1.524 . S
C1066 C1080 1.377 . S
C1067 C1066 1.524 . S
C1067 C1068 1.397 . S
C1067 C1072 1.363 . S
C1068 H1045 0.950 . S
C1068 C1067 1.397 . S
C1068 C1069 1.334 . S
C1069 H1046 0.950 . S
C1069 C1068 1.334 . S
C1069 C1070 1.287 . S
C1070 C1069 1.287 . S
C1070 C1071 1.524 . S
C1070 H1089 0.913 . S
C1071 H1047 0.950 . S
C1071 C1070 1.524 . S
C1071 C1072 1.415 . S
C1072 H1048 0.950 . S
C1072 C1067 1.363 . S
C1072 C1071 1.415 . S
C1073 H1049 0.951 . S
C1073 C1074 1.366 . S
C1073 C1075 1.388 . S
C1074 C1073 1.366 . S
C1074 C1078 1.385 . S
C1075 H1050 0.951 . S
C1075 C1073 1.388 . S
C1075 C1076 1.366 . S
C1076 C1075 1.366 . S
C1076 C1077 1.414 . S
C1076 C1079 1.499 . S
C1077 H1051 0.950 . S
C1077 C1076 1.414 . S
C1077 C1078 1.374 . S
C1078 H1052 0.950 . S
C1078 C1074 1.385 . S
C1078 C1077 1.374 . S
C1079 C1076 1.499 . S
C1079 C1080 1.373 . S
C1079 C1081 1.389 . S
C1080 H1053 0.950 . S
C1080 C1066 1.377 . S
C1080 C1079 1.373 . S
C1081 C1065 1.377 . S
C1081 C1079 1.389 . S
C1081 C1082 1.524 . S
C1082 C1081 1.524 . S
C1082 C1083 1.397 . S
C1082 C1087 1.363 . S
C1083 H1054 0.950 . S
C1083 C1082 1.397 . S
C1083 C1084 1.334 . S
C1084 H1055 0.950 . S
C1084 C1083 1.334 . S
C1084 C1085 1.287 . S
C1085 C1084 1.287 . S
C1085 C1086 1.524 . S
C1085 H1088 0.999 . S
C1086 H1056 0.950 . S
C1086 C1085 1.524 . S
C1086 C1087 1.415 . S
C1087 H1057 0.950 . S
C1087 C1082 1.363 . S
C1087 C1086 1.415 . S
H1088 C1085 0.999 . S
H1089 C1070 0.913 . S
H1090 C1108 0.951 . S
H1091 C1110 0.951 . S
H1092 C1112 0.950 . S
H1093 C1113 0.950 . S
H1094 C1115 0.950 . S
H1095 C1118 0.950 . S
H1096 C1119 0.950 . S
H1097 C1121 0.950 . S
H1098 C1122 0.950 . S
H1099 C1123 0.951 . S
H1100 C1125 0.951 . S
H1101 C1127 0.950 . S
H1102 C1128 0.950 . S
H1103 C1130 0.950 . S
H1104 C1133 0.950 . S
H1105 C1134 0.950 . S
H1106 C1136 0.955 . S
H1107 C1137 0.950 . S
C1108 H1090 0.951 . S
C1108 C1109 1.366 . S
C1108 C1110 1.388 . S
C1109 C1108 1.366 . S
C1109 C1113 1.385 . S
C1110 H1091 0.951 . S
C1110 C1108 1.388 . S
C1110 C1111 1.366 . S
C1111 C1110 1.366 . S
C1111 C1112 1.414 . S
C1111 C1114 1.499 . S
C1112 H1092 0.950 . S
C1112 C1111 1.414 . S
C1112 C1113 1.374 . S
C1113 H1093 0.950 . S
C1113 C1109 1.385 . S
C1113 C1112 1.374 . S
C1114 C1111 1.499 . S
C1114 C1115 1.373 . S
C1114 C1116 1.389 . S
C1115 H1094 0.950 . S
C1115 C1114 1.373 . S
C1115 C1131 1.377 . S
C1116 C1114 1.389 . S
C1116 C1117 1.524 . S
C1116 C1130 1.377 . S
C1117 C1116 1.524 . S
C1117 C1118 1.397 . S
C1117 C1122 1.363 . S
C1118 H1095 0.950 . S
C1118 C1117 1.397 . S
C1118 C1119 1.334 . S
C1119 H1096 0.950 . S
C1119 C1118 1.334 . S
C1119 C1120 1.287 . S
C1120 C1119 1.287 . S
C1120 C1121 1.524 . S
C1120 H1139 0.913 . S
C1121 H1097 0.950 . S
C1121 C1120 1.524 . S
C1121 C1122 1.415 . S
C1122 H1098 0.950 . S
C1122 C1117 1.363 . S
C1122 C1121 1.415 . S
C1123 H1099 0.951 . S
C1123 C1124 1.366 . S
C1123 C1125 1.388 . S
C1124 C1123 1.366 . S
C1124 C1128 1.385 . S
C1125 H1100 0.951 . S
C1125 C1123 1.388 . S
C1125 C1126 1.366 . S
C1126 C1125 1.366 . S
C1126 C1127 1.414 . S
C1126 C1129 1.499 . S
C1127 H1101 0.950 . S
C1127 C1126 1.414 . S
C1127 C1128 1.374 . S
C1128 H1102 0.950 . S
C1128 C1124 1.385 . S
C1128 C1127 1.374 . S
C1129 C1126 1.499 . S
C1129 C1130 1.373 . S
C1129 C1131 1.389 . S
C1130 H1103 0.950 . S
C1130 C1116 1.377 . S
C1130 C1129 1.373 . S
C1131 C1115 1.377 . S
C1131 C1129 1.389 . S
C1131 C1132 1.524 . S
C1132 C1131 1.524 . S
C1132 C1133 1.397 . S
C1132 C1137 1.363 . S
C1133 H1104 0.950 . S
C1133 C1132 1.397 . S
C1133 C1134 1.334 . S
C1134 H1105 0.950 . S
C1134 C1133 1.334 . S
C1134 C1135 1.287 . S
C1135 C1134 1.287 . S
C1135 C1136 1.524 1_556 S
C1135 H1138 0.999 1_556 S
C1136 H1106 0.955 . S
C1136 C1135 1.524 1_554 S
C1136 C1137 1.409 1_554 S
C1137 H1107 0.950 . S
C1137 C1132 1.363 . S
C1137 C1136 1.409 1_556 S
H1138 C1135 0.999 1_554 S
H1139 C1120 0.913 . S
H1140 C1158 0.951 . S
H1141 C1160 0.951 . S
H1142 C1162 0.950 . S
H1143 C1163 0.950 . S
H1144 C1165 0.950 . S
H1145 C1168 0.950 . S
H1146 C1169 0.950 . S
H1147 C1171 0.950 . S
H1148 C1172 0.950 . S
H1149 C1173 0.951 . S
H1150 C1175 0.951 . S
H1151 C1177 0.950 . S
H1152 C1178 0.950 . S
H1153 C1180 0.950 . S
H1154 C1183 0.950 . S
H1155 C1184 0.950 . S
H1156 C1186 0.950 . S
H1157 C1187 0.950 . S
C1158 H1140 0.951 . S
C1158 C1159 1.366 . S
C1158 C1160 1.388 . S
C1159 C1158 1.366 . S
C1159 C1163 1.385 . S
C1160 H1141 0.951 . S
C1160 C1158 1.388 . S
C1160 C1161 1.366 . S
C1161 C1160 1.366 . S
C1161 C1162 1.414 . S
C1161 C1164 1.499 . S
C1162 H1142 0.950 . S
C1162 C1161 1.414 . S
C1162 C1163 1.374 . S
C1163 H1143 0.950 . S
C1163 C1159 1.385 . S
C1163 C1162 1.374 . S
C1164 C1161 1.499 . S
C1164 C1165 1.373 . S
C1164 C1166 1.389 . S
C1165 H1144 0.950 . S
C1165 C1164 1.373 . S
C1165 C1181 1.377 . S
C1166 C1164 1.389 . S
C1166 C1167 1.524 . S
C1166 C1180 1.377 . S
C1167 C1166 1.524 . S
C1167 C1168 1.397 . S
C1167 C1172 1.363 . S
C1168 H1145 0.950 . S
C1168 C1167 1.397 . S
C1168 C1169 1.334 . S
C1169 H1146 0.950 . S
C1169 C1168 1.334 . S
C1169 C1170 1.287 . S
C1170 C1169 1.287 . S
C1170 C1171 1.524 . S
C1170 H1189 0.913 . S
C1171 H1147 0.950 . S
C1171 C1170 1.524 . S
C1171 C1172 1.415 . S
C1172 H1148 0.950 . S
C1172 C1167 1.363 . S
C1172 C1171 1.415 . S
C1173 H1149 0.951 . S
C1173 C1174 1.366 . S
C1173 C1175 1.388 . S
C1174 C1173 1.366 . S
C1174 C1178 1.385 . S
C1175 H1150 0.951 . S
C1175 C1173 1.388 . S
C1175 C1176 1.366 . S
C1176 C1175 1.366 . S
C1176 C1177 1.414 . S
C1176 C1179 1.499 . S
C1177 H1151 0.950 . S
C1177 C1176 1.414 . S
C1177 C1178 1.374 . S
C1178 H1152 0.950 . S
C1178 C1174 1.385 . S
C1178 C1177 1.374 . S
C1179 C1176 1.499 . S
C1179 C1180 1.373 . S
C1179 C1181 1.389 . S
C1180 H1153 0.950 . S
C1180 C1166 1.377 . S
C1180 C1179 1.373 . S
C1181 C1165 1.377 . S
C1181 C1179 1.389 . S
C1181 C1182 1.524 . S
C1182 C1181 1.524 . S
C1182 C1183 1.397 . S
C1182 C1187 1.363 . S
C1183 H1154 0.950 . S
C1183 C1182 1.397 . S
C1183 C1184 1.334 1_655 S
C1184 H1155 0.950 . S
C1184 C1183 1.334 1_455 S
C1184 C1185 1.287 . S
C1185 C1184 1.287 . S
C1185 C1186 1.524 . S
C1185 H1188 0.999 . S
C1186 H1156 0.950 . S
C1186 C1185 1.524 . S
C1186 C1187 1.415 1_455 S
C1187 H1157 0.950 . S
C1187 C1182 1.363 . S
C1187 C1186 1.415 1_655 S
H1188 C1185 0.999 . S
H1189 C1170 0.913 . S
H1190 C1208 0.951 . S
H1191 C1210 0.951 . S
H1192 C1212 0.950 . S
H1193 C1213 0.950 . S
H1194 C1215 0.950 . S
H1195 C1218 0.950 . S
H1196 C1219 0.950 . S
H1197 C1221 0.950 . S
H1198 C1222 0.950 . S
H1199 C1223 0.951 . S
H1200 C1225 0.951 . S
H1201 C1227 0.950 . S
H1202 C1228 0.950 . S
H1203 C1230 0.950 . S
H1204 C1233 0.950 . S
H1205 C1234 0.950 . S
H1206 C1236 0.950 . S
H1207 C1237 0.950 . S
C1208 H1190 0.951 . S
C1208 C1209 1.366 . S
C1208 C1210 1.388 . S
C1209 C1208 1.366 . S
C1209 C1213 1.385 . S
C1210 H1191 0.951 . S
C1210 C1208 1.388 . S
C1210 C1211 1.366 . S
C1211 C1210 1.366 . S
C1211 C1212 1.414 . S
C1211 C1214 1.499 . S
C1212 H1192 0.950 . S
C1212 C1211 1.414 . S
C1212 C1213 1.374 . S
C1213 H1193 0.950 . S
C1213 C1209 1.385 . S
C1213 C1212 1.374 . S
C1214 C1211 1.499 . S
C1214 C1215 1.373 . S
C1214 C1216 1.389 . S
C1215 H1194 0.950 . S
C1215 C1214 1.373 . S
C1215 C1231 1.377 . S
C1216 C1214 1.389 . S
C1216 C1217 1.524 . S
C1216 C1230 1.377 . S
C1217 C1216 1.524 . S
C1217 C1218 1.397 . S
C1217 C1222 1.363 . S
C1218 H1195 0.950 . S
C1218 C1217 1.397 . S
C1218 C1219 1.334 . S
C1219 H1196 0.950 . S
C1219 C1218 1.334 . S
C1219 C1220 1.287 . S
C1220 C1219 1.287 . S
C1220 C1221 1.524 . S
C1220 H1239 0.913 . S
C1221 H1197 0.950 . S
C1221 C1220 1.524 . S
C1221 C1222 1.415 . S
C1222 H1198 0.950 . S
C1222 C1217 1.363 . S
C1222 C1221 1.415 . S
C1223 H1199 0.951 . S
C1223 C1224 1.366 . S
C1223 C1225 1.388 . S
C1224 C1223 1.366 . S
C1224 C1228 1.385 . S
C1225 H1200 0.951 . S
C1225 C1223 1.388 . S
C1225 C1226 1.366 . S
C1226 C1225 1.366 . S
C1226 C1227 1.414 . S
C1226 C1229 1.499 . S
C1227 H1201 0.950 . S
C1227 C1226 1.414 . S
C1227 C1228 1.374 . S
C1228 H1202 0.950 . S
C1228 C1224 1.385 . S
C1228 C1227 1.374 . S
C1229 C1226 1.499 . S
C1229 C1230 1.373 . S
C1229 C1231 1.389 . S
C1230 H1203 0.950 . S
C1230 C1216 1.377 . S
C1230 C1229 1.373 . S
C1231 C1215 1.377 . S
C1231 C1229 1.389 . S
C1231 C1232 1.524 . S
C1232 C1231 1.524 . S
C1232 C1233 1.397 . S
C1232 C1237 1.363 . S
C1233 H1204 0.950 . S
C1233 C1232 1.397 . S
C1233 C1234 1.334 . S
C1234 H1205 0.950 . S
C1234 C1233 1.334 . S
C1234 C1235 1.287 . S
C1235 C1234 1.287 . S
C1235 C1236 1.524 . S
C1235 H1238 0.999 . S
C1236 H1206 0.950 . S
C1236 C1235 1.524 . S
C1236 C1237 1.415 . S
C1237 H1207 0.950 . S
C1237 C1232 1.363 . S
C1237 C1236 1.415 . S
H1238 C1235 0.999 . S
H1239 C1220 0.913 . S
H1240 C1258 0.951 . S
H1241 C1260 0.951 . S
H1242 C1262 0.950 . S
H1243 C1263 0.950 . S
H1244 C1265 0.950 . S
H1245 C1268 0.950 . S
H1246 C1269 0.950 . S
H1247 C1271 0.950 . S
H1248 C1272 0.950 . S
H1249 C1273 0.951 . S
H1250 C1275 0.951 . S
H1251 C1277 0.950 . S
H1252 C1278 0.950 . S
H1253 C1280 0.950 . S
H1254 C1283 0.950 . S
H1255 C1284 0.950 . S
H1256 C1286 0.950 . S
H1257 C1287 0.950 . S
C1258 H1240 0.951 . S
C1258 C1259 1.366 . S
C1258 C1260 1.388 . S
C1259 C1258 1.366 . S
C1259 C1263 1.385 . S
C1260 H1241 0.951 . S
C1260 C1258 1.388 . S
C1260 C1261 1.366 . S
C1261 C1260 1.366 . S
C1261 C1262 1.414 . S
C1261 C1264 1.499 . S
C1262 H1242 0.950 . S
C1262 C1261 1.414 . S
C1262 C1263 1.374 . S
C1263 H1243 0.950 . S
C1263 C1259 1.385 . S
C1263 C1262 1.374 . S
C1264 C1261 1.499 . S
C1264 C1265 1.373 . S
C1264 C1266 1.389 . S
C1265 H1244 0.950 . S
C1265 C1264 1.373 . S
C1265 C1281 1.377 . S
C1266 C1264 1.389 . S
C1266 C1267 1.524 . S
C1266 C1280 1.377 . S
C1267 C1266 1.524 . S
C1267 C1268 1.397 . S
C1267 C1272 1.363 . S
C1268 H1245 0.950 . S
C1268 C1267 1.397 . S
C1268 C1269 1.334 . S
C1269 H1246 0.950 . S
C1269 C1268 1.334 . S
C1269 C1270 1.287 . S
C1270 C1269 1.287 . S
C1270 C1271 1.524 . S
C1270 H1289 0.913 . S
C1271 H1247 0.950 . S
C1271 C1270 1.524 . S
C1271 C1272 1.415 . S
C1272 H1248 0.950 . S
C1272 C1267 1.363 . S
C1272 C1271 1.415 . S
C1273 H1249 0.951 . S
C1273 C1274 1.366 . S
C1273 C1275 1.388 . S
C1274 C1273 1.366 . S
C1274 C1278 1.385 . S
C1275 H1250 0.951 . S
C1275 C1273 1.388 . S
C1275 C1276 1.366 . S
C1276 C1275 1.366 . S
C1276 C1277 1.414 . S
C1276 C1279 1.499 . S
C1277 H1251 0.950 . S
C1277 C1276 1.414 . S
C1277 C1278 1.374 . S
C1278 H1252 0.950 . S
C1278 C1274 1.385 . S
C1278 C1277 1.374 . S
C1279 C1276 1.499 . S
C1279 C1280 1.373 . S
C1279 C1281 1.389 . S
C1280 H1253 0.950 . S
C1280 C1266 1.377 . S
C1280 C1279 1.373 . S
C1281 C1265 1.377 . S
C1281 C1279 1.389 . S
C1281 C1282 1.524 . S
C1282 C1281 1.524 . S
C1282 C1283 1.397 . S
C1282 C1287 1.363 . S
C1283 H1254 0.950 . S
C1283 C1282 1.397 . S
C1283 C1284 1.334 . S
C1284 H1255 0.950 . S
C1284 C1283 1.334 . S
C1284 C1285 1.287 . S
C1285 C1284 1.287 . S
C1285 C1286 1.524 . S
C1285 H1288 0.999 . S
C1286 H1256 0.950 . S
C1286 C1285 1.524 . S
C1286 C1287 1.415 . S
C1287 H1257 0.950 . S
C1287 C1282 1.363 . S
C1287 C1286 1.415 . S
H1288 C1285 0.999 . S
H1289 C1270 0.913 . S
H1290 C1308 0.951 . S
H1291 C1310 0.951 . S
H1292 C1312 0.950 . S
H1293 C1313 0.950 . S
H1294 C1315 0.950 . S
H1295 C1318 0.950 . S
H1296 C1319 0.950 . S
H1297 C1321 0.950 . S
H1298 C1322 0.950 . S
H1299 C1323 0.951 . S
H1300 C1325 0.951 . S
H1301 C1327 0.950 . S
H1302 C1328 0.950 . S
H1303 C1330 0.950 . S
H1304 C1333 0.950 . S
H1305 C1334 0.950 . S
H1306 C1336 0.950 . S
H1307 C1337 0.950 . S
C1308 H1290 0.951 . S
C1308 C1309 1.366 . S
C1308 C1310 1.388 . S
C1309 C1308 1.366 . S
C1309 C1313 1.385 . S
C1310 H1291 0.951 . S
C1310 C1308 1.388 . S
C1310 C1311 1.366 . S
C1311 C1310 1.366 . S
C1311 C1312 1.414 . S
C1311 C1314 1.499 . S
C1312 H1292 0.950 . S
C1312 C1311 1.414 . S
C1312 C1313 1.374 . S
C1313 H1293 0.950 . S
C1313 C1309 1.385 . S
C1313 C1312 1.374 . S
C1314 C1311 1.499 . S
C1314 C1315 1.373 . S
C1314 C1316 1.389 . S
C1315 H1294 0.950 . S
C1315 C1314 1.373 . S
C1315 C1331 1.377 . S
C1316 C1314 1.389 . S
C1316 C1317 1.524 . S
C1316 C1330 1.377 . S
C1317 C1316 1.524 . S
C1317 C1318 1.397 . S
C1317 C1322 1.363 . S
C1318 H1295 0.950 . S
C1318 C1317 1.397 . S
C1318 C1319 1.334 . S
C1319 H1296 0.950 . S
C1319 C1318 1.334 . S
C1319 C1320 1.287 . S
C1320 C1319 1.287 . S
C1320 C1321 1.524 . S
C1320 H1339 0.913 . S
C1321 H1297 0.950 . S
C1321 C1320 1.524 . S
C1321 C1322 1.415 . S
C1322 H1298 0.950 . S
C1322 C1317 1.363 . S
C1322 C1321 1.415 . S
C1323 H1299 0.951 . S
C1323 C1324 1.366 . S
C1323 C1325 1.388 . S
C1324 C1323 1.366 . S
C1324 C1328 1.385 . S
C1325 H1300 0.951 . S
C1325 C1323 1.388 . S
C1325 C1326 1.366 . S
C1326 C1325 1.366 . S
C1326 C1327 1.414 . S
C1326 C1329 1.499 . S
C1327 H1301 0.950 . S
C1327 C1326 1.414 . S
C1327 C1328 1.374 . S
C1328 H1302 0.950 . S
C1328 C1324 1.385 . S
C1328 C1327 1.374 . S
C1329 C1326 1.499 . S
C1329 C1330 1.373 . S
C1329 C1331 1.389 . S
C1330 H1303 0.950 . S
C1330 C1316 1.377 . S
C1330 C1329 1.373 . S
C1331 C1315 1.377 . S
C1331 C1329 1.389 . S
C1331 C1332 1.524 . S
C1332 C1331 1.524 . S
C1332 C1333 1.397 . S
C1332 C1337 1.363 . S
C1333 H1304 0.950 . S
C1333 C1332 1.397 . S
C1333 C1334 1.334 . S
C1334 H1305 0.950 . S
C1334 C1333 1.334 . S
C1334 C1335 1.287 . S
C1335 C1334 1.287 . S
C1335 C1336 1.524 . S
C1335 H1338 0.999 . S
C1336 H1306 0.950 . S
C1336 C1335 1.524 . S
C1336 C1337 1.415 . S
C1337 H1307 0.950 . S
C1337 C1332 1.363 . S
C1337 C1336 1.415 . S
H1338 C1335 0.999 . S
H1339 C1320 0.913 . S
H1340 C1358 0.951 . S
H1341 C1360 0.951 . S
H1342 C1362 0.950 . S
H1343 C1363 0.950 . S
H1344 C1365 0.950 . S
H1345 C1368 0.950 . S
H1346 C1369 0.950 . S
H1347 C1371 0.950 . S
H1348 C1372 0.950 . S
H1349 C1373 0.951 . S
H1350 C1375 0.951 . S
H1351 C1377 0.950 . S
H1352 C1378 0.950 . S
H1353 C1380 0.950 . S
H1354 C1383 0.950 . S
H1355 C1384 0.950 . S
H1356 C1386 0.950 . S
H1357 C1387 0.950 . S
C1358 H1340 0.951 . S
C1358 C1359 1.366 . S
C1358 C1360 1.388 . S
C1359 C1358 1.366 . S
C1359 C1363 1.385 . S
C1360 H1341 0.951 . S
C1360 C1358 1.388 . S
C1360 C1361 1.366 . S
C1361 C1360 1.366 . S
C1361 C1362 1.414 . S
C1361 C1364 1.499 . S
C1362 H1342 0.950 . S
C1362 C1361 1.414 . S
C1362 C1363 1.374 . S
C1363 H1343 0.950 . S
C1363 C1359 1.385 . S
C1363 C1362 1.374 . S
C1364 C1361 1.499 . S
C1364 C1365 1.373 . S
C1364 C1366 1.389 . S
C1365 H1344 0.950 . S
C1365 C1364 1.373 . S
C1365 C1381 1.377 . S
C1366 C1364 1.389 . S
C1366 C1367 1.524 . S
C1366 C1380 1.377 . S
C1367 C1366 1.524 . S
C1367 C1368 1.397 . S
C1367 C1372 1.363 . S
C1368 H1345 0.950 . S
C1368 C1367 1.397 . S
C1368 C1369 1.334 . S
C1369 H1346 0.950 . S
C1369 C1368 1.334 . S
C1369 C1370 1.287 . S
C1370 C1369 1.287 . S
C1370 C1371 1.524 . S
C1370 H1389 0.913 . S
C1371 H1347 0.950 . S
C1371 C1370 1.524 . S
C1371 C1372 1.415 . S
C1372 H1348 0.950 . S
C1372 C1367 1.363 . S
C1372 C1371 1.415 . S
C1373 H1349 0.951 . S
C1373 C1374 1.366 . S
C1373 C1375 1.388 . S
C1374 C1373 1.366 . S
C1374 C1378 1.385 . S
C1375 H1350 0.951 . S
C1375 C1373 1.388 . S
C1375 C1376 1.366 . S
C1376 C1375 1.366 . S
C1376 C1377 1.414 . S
C1376 C1379 1.499 . S
C1377 H1351 0.950 . S
C1377 C1376 1.414 . S
C1377 C1378 1.374 . S
C1378 H1352 0.950 . S
C1378 C1374 1.385 . S
C1378 C1377 1.374 . S
C1379 C1376 1.499 . S
C1379 C1380 1.373 . S
C1379 C1381 1.389 . S
C1380 H1353 0.950 . S
C1380 C1366 1.377 . S
C1380 C1379 1.373 . S
C1381 C1365 1.377 . S
C1381 C1379 1.389 . S
C1381 C1382 1.524 . S
C1382 C1381 1.524 . S
C1382 C1383 1.397 . S
C1382 C1387 1.363 . S
C1383 H1354 0.950 . S
C1383 C1382 1.397 . S
C1383 C1384 1.334 . S
C1384 H1355 0.950 . S
C1384 C1383 1.334 . S
C1384 C1385 1.287 . S
C1385 C1384 1.287 . S
C1385 C1386 1.524 . S
C1385 H1388 0.999 . S
C1386 H1356 0.950 . S
C1386 C1385 1.524 . S
C1386 C1387 1.415 . S
C1387 H1357 0.950 . S
C1387 C1382 1.363 . S
C1387 C1386 1.415 . S
H1388 C1385 0.999 . S
H1389 C1370 0.913 . S
H1390 C1408 0.951 . S
H1391 C1410 0.951 . S
H1392 C1412 0.950 . S
H1393 C1413 0.950 . S
H1394 C1415 0.950 . S
H1395 C1418 0.950 . S
H1396 C1419 0.950 . S
H1397 C1421 0.950 . S
H1398 C1422 0.950 . S
H1399 C1423 0.951 . S
H1400 C1425 0.951 . S
H1401 C1427 0.950 . S
H1402 C1428 0.950 . S
H1403 C1430 0.950 . S
H1404 C1433 0.950 . S
H1405 C1434 0.950 . S
H1406 C1436 0.950 . S
H1407 C1437 0.950 . S
C1408 H1390 0.951 . S
C1408 C1409 1.366 . S
C1408 C1410 1.388 . S
C1409 C1408 1.366 . S
C1409 C1413 1.385 . S
C1410 H1391 0.951 . S
C1410 C1408 1.388 . S
C1410 C1411 1.366 . S
C1411 C1410 1.366 . S
C1411 C1412 1.414 . S
C1411 C1414 1.499 . S
C1412 H1392 0.950 . S
C1412 C1411 1.414 . S
C1412 C1413 1.374 . S
C1413 H1393 0.950 . S
C1413 C1409 1.385 . S
C1413 C1412 1.374 . S
C1414 C1411 1.499 . S
C1414 C1415 1.373 . S
C1414 C1416 1.389 . S
C1415 H1394 0.950 . S
C1415 C1414 1.373 . S
C1415 C1431 1.377 . S
C1416 C1414 1.389 . S
C1416 C1417 1.524 . S
C1416 C1430 1.377 . S
C1417 C1416 1.524 . S
C1417 C1418 1.397 . S
C1417 C1422 1.363 . S
C1418 H1395 0.950 . S
C1418 C1417 1.397 . S
C1418 C1419 1.334 . S
C1419 H1396 0.950 . S
C1419 C1418 1.334 . S
C1419 C1420 1.287 . S
C1420 C1419 1.287 . S
C1420 C1421 1.524 . S
C1420 H1439 0.913 . S
C1421 H1397 0.950 . S
C1421 C1420 1.524 . S
C1421 C1422 1.415 . S
C1422 H1398 0.950 . S
C1422 C1417 1.363 . S
C1422 C1421 1.415 . S
C1423 H1399 0.951 . S
C1423 C1424 1.366 . S
C1423 C1425 1.388 . S
C1424 C1423 1.366 . S
C1424 C1428 1.385 . S
C1425 H1400 0.951 . S
C1425 C1423 1.388 . S
C1425 C1426 1.366 . S
C1426 C1425 1.366 . S
C1426 C1427 1.414 . S
C1426 C1429 1.499 . S
C1427 H1401 0.950 . S
C1427 C1426 1.414 . S
C1427 C1428 1.374 . S
C1428 H1402 0.950 . S
C1428 C1424 1.385 . S
C1428 C1427 1.374 . S
C1429 C1426 1.499 . S
C1429 C1430 1.373 . S
C1429 C1431 1.389 . S
C1430 H1403 0.950 . S
C1430 C1416 1.377 . S
C1430 C1429 1.373 . S
C1431 C1415 1.377 . S
C1431 C1429 1.389 . S
C1431 C1432 1.524 . S
C1432 C1431 1.524 . S
C1432 C1433 1.397 . S
C1432 C1437 1.363 . S
C1433 H1404 0.950 . S
C1433 C1432 1.397 . S
C1433 C1434 1.334 . S
C1434 H1405 0.950 . S
C1434 C1433 1.334 . S
C1434 C1435 1.287 . S
C1435 C1434 1.287 . S
C1435 C1436 1.524 . S
C1435 H1438 0.999 . S
C1436 H1406 0.950 . S
C1436 C1435 1.524 . S
C1436 C1437 1.415 . S
C1437 H1407 0.950 . S
C1437 C1432 1.363 . S
C1437 C1436 1.415 . S
H1438 C1435 0.999 . S
H1439 C1420 0.913 . S
H1440 C1458 0.951 . S
H1441 C1460 0.951 . S
H1442 C1462 0.950 . S
H1443 C1463 0.950 . S
H1444 C1465 0.950 . S
H1445 C1468 0.950 . S
H1446 C1469 0.950 . S
H1447 C1471 0.950 . S
H1448 C1472 0.950 . S
H1449 C1473 0.951 . S
H1450 C1475 0.951 . S
H1451 C1477 0.950 . S
H1452 C1478 0.950 . S
H1453 C1480 0.950 . S
H1454 C1483 0.950 . S
H1455 C1484 0.950 . S
H1456 C1486 0.950 . S
H1457 C1487 0.950 . S
C1458 H1440 0.951 . S
C1458 C1459 1.366 . S
C1458 C1460 1.388 . S
C1459 C1458 1.366 . S
C1459 C1463 1.385 . S
C1460 H1441 0.951 . S
C1460 C1458 1.388 . S
C1460 C1461 1.366 . S
C1461 C1460 1.366 . S
C1461 C1462 1.414 . S
C1461 C1464 1.499 . S
C1462 H1442 0.950 . S
C1462 C1461 1.414 . S
C1462 C1463 1.374 . S
C1463 H1443 0.950 . S
C1463 C1459 1.385 . S
C1463 C1462 1.374 . S
C1464 C1461 1.499 . S
C1464 C1465 1.373 . S
C1464 C1466 1.389 . S
C1465 H1444 0.950 . S
C1465 C1464 1.373 . S
C1465 C1481 1.377 . S
C1466 C1464 1.389 . S
C1466 C1467 1.524 . S
C1466 C1480 1.377 . S
C1467 C1466 1.524 . S
C1467 C1468 1.397 . S
C1467 C1472 1.363 . S
C1468 H1445 0.950 . S
C1468 C1467 1.397 . S
C1468 C1469 1.334 . S
C1469 H1446 0.950 . S
C1469 C1468 1.334 . S
C1469 C1470 1.287 . S
C1470 C1469 1.287 . S
C1470 C1471 1.524 . S
C1470 H1489 0.913 . S
C1471 H1447 0.950 . S
C1471 C1470 1.524 . S
C1471 C1472 1.415 . S
C1472 H1448 0.950 . S
C1472 C1467 1.363 . S
C1472 C1471 1.415 . S
C1473 H1449 0.951 . S
C1473 C1474 1.366 . S
C1473 C1475 1.388 . S
C1474 C1473 1.366 . S
C1474 C1478 1.385 . S
C1475 H1450 0.951 . S
C1475 C1473 1.388 . S
C1475 C1476 1.366 . S
C1476 C1475 1.366 . S
C1476 C1477 1.414 . S
C1476 C1479 1.499 . S
C1477 H1451 0.950 . S
C1477 C1476 1.414 . S
C1477 C1478 1.374 . S
C1478 H1452 0.950 . S
C1478 C1474 1.385 . S
C1478 C1477 1.374 . S
C1479 C1476 1.499 . S
C1479 C1480 1.373 . S
C1479 C1481 1.389 . S
C1480 H1453 0.950 . S
C1480 C1466 1.377 . S
C1480 C1479 1.373 . S
C1481 C1465 1.377 . S
C1481 C1479 1.389 . S
C1481 C1482 1.524 . S
C1482 C1481 1.524 . S
C1482 C1483 1.397 . S
C1482 C1487 1.363 . S
C1483 H1454 0.950 . S
C1483 C1482 1.397 . S
C1483 C1484 1.334 . S
C1484 H1455 0.950 . S
C1484 C1483 1.334 . S
C1484 C1485 1.287 . S
C1485 C1484 1.287 . S
C1485 C1486 1.524 . S
C1485 H1488 0.999 . S
C1486 H1456 0.950 . S
C1486 C1485 1.524 . S
C1486 C1487 1.415 . S
C1487 H1457 0.950 . S
C1487 C1482 1.363 . S
C1487 C1486 1.415 . S
H1488 C1485 0.999 . S
H1489 C1470 0.913 . S
H1490 C1508 0.951 . S
H1491 C1510 0.951 . S
H1492 C1512 0.950 . S
H1493 C1513 0.950 . S
H1494 C1515 0.950 . S
H1495 C1518 0.950 . S
H1496 C1519 0.950 . S
H1497 C1521 0.950 . S
H1498 C1522 0.950 . S
H1499 C1523 0.951 . S
H1500 C1525 0.951 . S
H1501 C1527 0.950 . S
H1502 C1528 0.950 . S
H1503 C1530 0.950 . S
H1504 C1533 0.950 . S
H1505 C1534 0.950 . S
H1506 C1536 0.950 . S
H1507 C1537 0.950 . S
C1508 H1490 0.951 . S
C1508 C1509 1.366 . S
C1508 C1510 1.388 . S
C1509 C1508 1.366 . S
C1509 C1513 1.385 . S
C1510 H1491 0.951 . S
C1510 C1508 1.388 . S
C1510 C1511 1.366 . S
C1511 C1510 1.366 . S
C1511 C1512 1.414 . S
C1511 C1514 1.499 . S
C1512 H1492 0.950 . S
C1512 C1511 1.414 . S
C1512 C1513 1.374 . S
C1513 H1493 0.950 . S
C1513 C1509 1.385 . S
C1513 C1512 1.374 . S
C1514 C1511 1.499 . S
C1514 C1515 1.373 . S
C1514 C1516 1.389 . S
C1515 H1494 0.950 . S
C1515 C1514 1.373 . S
C1515 C1531 1.377 . S
C1516 C1514 1.389 . S
C1516 C1517 1.524 . S
C1516 C1530 1.377 . S
C1517 C1516 1.524 . S
C1517 C1518 1.397 . S
C1517 C1522 1.363 . S
C1518 H1495 0.950 . S
C1518 C1517 1.397 . S
C1518 C1519 1.334 . S
C1519 H1496 0.950 . S
C1519 C1518 1.334 . S
C1519 C1520 1.287 . S
C1520 C1519 1.287 . S
C1520 C1521 1.524 . S
C1520 H1539 0.913 . S
C1521 H1497 0.950 . S
C1521 C1520 1.524 . S
C1521 C1522 1.415 . S
C1522 H1498 0.950 . S
C1522 C1517 1.363 . S
C1522 C1521 1.415 . S
C1523 H1499 0.951 . S
C1523 C1524 1.366 . S
C1523 C1525 1.388 . S
C1524 C1523 1.366 . S
C1524 C1528 1.385 . S
C1525 H1500 0.951 . S
C1525 C1523 1.388 . S
C1525 C1526 1.366 . S
C1526 C1525 1.366 . S
C1526 C1527 1.414 . S
C1526 C1529 1.499 . S
C1527 H1501 0.950 . S
C1527 C1526 1.414 . S
C1527 C1528 1.374 . S
C1528 H1502 0.950 . S
C1528 C1524 1.385 . S
C1528 C1527 1.374 . S
C1529 C1526 1.499 . S
C1529 C1530 1.373 . S
C1529 C1531 1.389 . S
C1530 H1503 0.950 . S
C1530 C1516 1.377 . S
C1530 C1529 1.373 . S
C1531 C1515 1.377 . S
C1531 C1529 1.389 . S
C1531 C1532 1.524 . S
C1532 C1531 1.524 . S
C1532 C1533 1.397 . S
C1532 C1537 1.363 . S
C1533 H1504 0.950 . S
C1533 C1532 1.397 . S
C1533 C1534 1.334 1_545 S
C1534 H1505 0.950 . S
C1534 C1533 1.334 1_565 S
C1534 C1535 1.287 . S
C1535 C1534 1.287 . S
C1535 C1536 1.524 . S
C1535 H1538 0.999 . S
C1536 H1506 0.950 . S
C1536 C1535 1.524 . S
C1536 C1537 1.415 1_565 S
C1537 H1507 0.950 . S
C1537 C1532 1.363 . S
C1537 C1536 1.415 1_545 S
H1538 C1535 0.999 . S
H1539 C1520 0.913 . S
H1540 C1558 0.951 . S
H1541 C1560 0.951 . S
H1542 C1562 0.950 . S
H1543 C1563 0.950 . S
H1544 C1565 0.950 . S
H1545 C1568 0.950 . S
H1546 C1569 0.950 . S
H1547 C1571 0.950 . S
H1548 C1572 0.950 . S
H1549 C1573 0.951 . S
H1550 C1575 0.951 . S
H1551 C1577 0.950 . S
H1552 C1578 0.950 . S
H1553 C1580 0.950 . S
H1554 C1583 0.950 . S
H1555 C1584 0.950 1_556 S
H1556 C1586 0.950 . S
H1557 C1587 0.950 . S
C1558 H1540 0.951 . S
C1558 C1559 1.366 . S
C1558 C1560 1.388 . S
C1559 C1558 1.366 . S
C1559 C1563 1.385 . S
C1560 H1541 0.951 . S
C1560 C1558 1.388 . S
C1560 C1561 1.366 . S
C1561 C1560 1.366 . S
C1561 C1562 1.414 . S
C1561 C1564 1.499 . S
C1562 H1542 0.950 . S
C1562 C1561 1.414 . S
C1562 C1563 1.374 . S
C1563 H1543 0.950 . S
C1563 C1559 1.385 . S
C1563 C1562 1.374 . S
C1564 C1561 1.499 . S
C1564 C1565 1.373 . S
C1564 C1566 1.389 . S
C1565 H1544 0.950 . S
C1565 C1564 1.373 . S
C1565 C1581 1.377 . S
C1566 C1564 1.389 . S
C1566 C1567 1.524 . S
C1566 C1580 1.377 . S
C1567 C1566 1.524 . S
C1567 C1568 1.397 . S
C1567 C1572 1.363 . S
C1568 H1545 0.950 . S
C1568 C1567 1.397 . S
C1568 C1569 1.334 . S
C1569 H1546 0.950 . S
C1569 C1568 1.334 . S
C1569 C1570 1.287 . S
C1570 C1569 1.287 . S
C1570 C1571 1.524 . S
C1570 H1589 0.913 . S
C1571 H1547 0.950 . S
C1571 C1570 1.524 . S
C1571 C1572 1.415 . S
C1572 H1548 0.950 . S
C1572 C1567 1.363 . S
C1572 C1571 1.415 . S
C1573 H1549 0.951 . S
C1573 C1574 1.366 . S
C1573 C1575 1.388 . S
C1574 C1573 1.366 . S
C1574 C1578 1.385 . S
C1575 H1550 0.951 . S
C1575 C1573 1.388 . S
C1575 C1576 1.366 . S
C1576 C1575 1.366 . S
C1576 C1577 1.414 . S
C1576 C1579 1.499 . S
C1577 H1551 0.950 . S
C1577 C1576 1.414 . S
C1577 C1578 1.374 . S
C1578 H1552 0.950 . S
C1578 C1574 1.385 . S
C1578 C1577 1.374 . S
C1579 C1576 1.499 . S
C1579 C1580 1.373 . S
C1579 C1581 1.389 . S
C1580 H1553 0.950 . S
C1580 C1566 1.377 . S
C1580 C1579 1.373 . S
C1581 C1565 1.377 . S
C1581 C1579 1.389 . S
C1581 C1582 1.524 . S
C1582 C1581 1.524 . S
C1582 C1583 1.397 . S
C1582 C1587 1.363 . S
C1583 H1554 0.950 . S
C1583 C1582 1.397 . S
C1583 C1584 1.334 . S
C1584 H1555 0.950 1_554 S
C1584 C1583 1.334 . S
C1584 C1585 1.287 . S
C1585 C1584 1.287 . S
C1585 C1586 1.524 . S
C1585 H1588 0.999 . S
C1586 H1556 0.950 . S
C1586 C1585 1.524 . S
C1586 C1587 1.415 . S
C1587 H1557 0.950 . S
C1587 C1582 1.363 . S
C1587 C1586 1.415 . S
H1588 C1585 0.999 . S
H1589 C1570 0.913 . S
H1590 C1608 0.951 . S
H1591 C1610 0.951 . S
H1592 C1612 0.950 . S
H1593 C1613 0.950 . S
H1594 C1615 0.950 . S
H1595 C1618 0.950 . S
H1596 C1619 0.950 . S
H1597 C1621 0.950 . S
H1598 C1622 0.950 . S
H1599 C1623 0.951 . S
H1600 C1625 0.951 . S
H1601 C1627 0.950 . S
H1602 C1628 0.950 . S
H1603 C1630 0.950 . S
H1604 C1633 0.950 . S
H1605 C1634 0.950 . S
H1606 C1636 0.950 . S
H1607 C1637 0.950 . S
C1608 H1590 0.951 . S
C1608 C1609 1.366 . S
C1608 C1610 1.388 . S
C1609 C1608 1.366 . S
C1609 C1613 1.385 . S
C1610 H1591 0.951 . S
C1610 C1608 1.388 . S
C1610 C1611 1.366 . S
C1611 C1610 1.366 . S
C1611 C1612 1.414 . S
C1611 C1614 1.499 . S
C1612 H1592 0.950 . S
C1612 C1611 1.414 . S
C1612 C1613 1.374 . S
C1613 H1593 0.950 . S
C1613 C1609 1.385 . S
C1613 C1612 1.374 . S
C1614 C1611 1.499 . S
C1614 C1615 1.373 . S
C1614 C1616 1.389 . S
C1615 H1594 0.950 . S
C1615 C1614 1.373 . S
C1615 C1631 1.377 . S
C1616 C1614 1.389 . S
C1616 C1617 1.524 . S
C1616 C1630 1.377 . S
C1617 C1616 1.524 . S
C1617 C1618 1.397 . S
C1617 C1622 1.363 . S
C1618 H1595 0.950 . S
C1618 C1617 1.397 . S
C1618 C1619 1.334 . S
C1619 H1596 0.950 . S
C1619 C1618 1.334 . S
C1619 C1620 1.287 . S
C1620 C1619 1.287 . S
C1620 C1621 1.524 . S
C1620 H1639 0.913 . S
C1621 H1597 0.950 . S
C1621 C1620 1.524 . S
C1621 C1622 1.415 . S
C1622 H1598 0.950 . S
C1622 C1617 1.363 . S
C1622 C1621 1.415 . S
C1623 H1599 0.951 . S
C1623 C1624 1.366 . S
C1623 C1625 1.388 . S
C1624 C1623 1.366 . S
C1624 C1628 1.385 . S
C1625 H1600 0.951 . S
C1625 C1623 1.388 . S
C1625 C1626 1.366 . S
C1626 C1625 1.366 . S
C1626 C1627 1.414 . S
C1626 C1629 1.499 . S
C1627 H1601 0.950 . S
C1627 C1626 1.414 . S
C1627 C1628 1.374 . S
C1628 H1602 0.950 . S
C1628 C1624 1.385 . S
C1628 C1627 1.374 . S
C1629 C1626 1.499 . S
C1629 C1630 1.373 . S
C1629 C1631 1.389 . S
C1630 H1603 0.950 . S
C1630 C1616 1.377 . S
C1630 C1629 1.373 . S
C1631 C1615 1.377 . S
C1631 C1629 1.389 . S
C1631 C1632 1.524 . S
C1632 C1631 1.524 . S
C1632 C1633 1.397 . S
C1632 C1637 1.363 . S
C1633 H1604 0.950 . S
C1633 C1632 1.397 . S
C1633 C1634 1.334 . S
C1634 H1605 0.950 . S
C1634 C1633 1.334 . S
C1634 C1635 1.287 . S
C1635 C1634 1.287 . S
C1635 C1636 1.524 . S
C1635 H1638 0.999 . S
C1636 H1606 0.950 . S
C1636 C1635 1.524 . S
C1636 C1637 1.415 . S
C1637 H1607 0.950 . S
C1637 C1632 1.363 . S
C1637 C1636 1.415 . S
H1638 C1635 0.999 . S
H1639 C1620 0.913 . S
H1640 C1658 0.951 . S
H1641 C1660 0.951 . S
H1642 C1662 0.950 . S
H1643 C1663 0.950 . S
H1644 C1665 0.950 . S
H1645 C1668 0.950 . S
H1646 C1669 0.950 . S
H1647 C1671 0.950 . S
H1648 C1672 0.950 . S
H1649 C1673 0.951 . S
H1650 C1675 0.951 . S
H1651 C1677 0.950 . S
H1652 C1678 0.950 . S
H1653 C1680 0.950 . S
H1654 C1683 0.950 . S
H1655 C1684 0.950 . S
H1656 C1686 0.950 . S
H1657 C1687 0.950 . S
C1658 H1640 0.951 . S
C1658 C1659 1.366 . S
C1658 C1660 1.388 . S
C1659 C1658 1.366 . S
C1659 C1663 1.385 . S
C1660 H1641 0.951 . S
C1660 C1658 1.388 . S
C1660 C1661 1.366 . S
C1661 C1660 1.366 . S
C1661 C1662 1.414 . S
C1661 C1664 1.499 . S
C1662 H1642 0.950 . S
C1662 C1661 1.414 . S
C1662 C1663 1.374 . S
C1663 H1643 0.950 . S
C1663 C1659 1.385 . S
C1663 C1662 1.374 . S
C1664 C1661 1.499 . S
C1664 C1665 1.373 . S
C1664 C1666 1.389 . S
C1665 H1644 0.950 . S
C1665 C1664 1.373 . S
C1665 C1681 1.377 . S
C1666 C1664 1.389 . S
C1666 C1667 1.524 . S
C1666 C1680 1.377 . S
C1667 C1666 1.524 . S
C1667 C1668 1.397 . S
C1667 C1672 1.363 . S
C1668 H1645 0.950 . S
C1668 C1667 1.397 . S
C1668 C1669 1.334 . S
C1669 H1646 0.950 . S
C1669 C1668 1.334 . S
C1669 C1670 1.287 . S
C1670 C1669 1.287 . S
C1670 C1671 1.524 . S
C1670 H1689 0.913 . S
C1671 H1647 0.950 . S
C1671 C1670 1.524 . S
C1671 C1672 1.415 . S
C1672 H1648 0.950 . S
C1672 C1667 1.363 . S
C1672 C1671 1.415 . S
C1673 H1649 0.951 . S
C1673 C1674 1.366 . S
C1673 C1675 1.388 . S
C1674 C1673 1.366 . S
C1674 C1678 1.385 . S
C1675 H1650 0.951 . S
C1675 C1673 1.388 . S
C1675 C1676 1.366 . S
C1676 C1675 1.366 . S
C1676 C1677 1.414 . S
C1676 C1679 1.499 . S
C1677 H1651 0.950 . S
C1677 C1676 1.414 . S
C1677 C1678 1.374 . S
C1678 H1652 0.950 . S
C1678 C1674 1.385 . S
C1678 C1677 1.374 . S
C1679 C1676 1.499 . S
C1679 C1680 1.373 . S
C1679 C1681 1.389 . S
C1680 H1653 0.950 . S
C1680 C1666 1.377 . S
C1680 C1679 1.373 . S
C1681 C1665 1.377 . S
C1681 C1679 1.389 . S
C1681 C1682 1.524 . S
C1682 C1681 1.524 . S
C1682 C1683 1.397 . S
C1682 C1687 1.363 . S
C1683 H1654 0.950 . S
C1683 C1682 1.397 . S
C1683 C1684 1.334 . S
C1684 H1655 0.950 . S
C1684 C1683 1.334 . S
C1684 C1685 1.287 . S
C1685 C1684 1.287 . S
C1685 C1686 1.524 . S
C1685 H1688 0.999 . S
C1686 H1656 0.950 . S
C1686 C1685 1.524 . S
C1686 C1687 1.415 . S
C1687 H1657 0.950 . S
C1687 C1682 1.363 . S
C1687 C1686 1.415 . S
H1688 C1685 0.999 . S
H1689 C1670 0.913 . S
H1690 C1708 0.951 . S
H1691 C1710 0.951 . S
H1692 C1712 0.950 . S
H1693 C1713 0.950 . S
H1694 C1715 0.950 . S
H1695 C1718 0.950 . S
H1696 C1719 0.950 . S
H1697 C1721 0.950 . S
H1698 C1722 0.950 . S
H1699 C1723 0.951 . S
H1700 C1725 0.951 . S
H1701 C1727 0.950 . S
H1702 C1728 0.950 . S
H1703 C1730 0.950 . S
H1704 C1733 0.950 . S
H1705 C1734 0.950 . S
H1706 C1736 0.950 1_556 S
H1707 C1737 0.950 . S
C1708 H1690 0.951 . S
C1708 C1709 1.366 . S
C1708 C1710 1.388 . S
C1709 C1708 1.366 . S
C1709 C1713 1.385 . S
C1710 H1691 0.951 . S
C1710 C1708 1.388 . S
C1710 C1711 1.366 . S
C1711 C1710 1.366 . S
C1711 C1712 1.414 . S
C1711 C1714 1.499 . S
C1712 H1692 0.950 . S
C1712 C1711 1.414 . S
C1712 C1713 1.374 . S
C1713 H1693 0.950 . S
C1713 C1709 1.385 . S
C1713 C1712 1.374 . S
C1714 C1711 1.499 . S
C1714 C1715 1.373 . S
C1714 C1716 1.389 . S
C1715 H1694 0.950 . S
C1715 C1714 1.373 . S
C1715 C1731 1.377 . S
C1716 C1714 1.389 . S
C1716 C1717 1.524 . S
C1716 C1730 1.377 . S
C1717 C1716 1.524 . S
C1717 C1718 1.397 . S
C1717 C1722 1.363 . S
C1718 H1695 0.950 . S
C1718 C1717 1.397 . S
C1718 C1719 1.334 . S
C1719 H1696 0.950 . S
C1719 C1718 1.334 . S
C1719 C1720 1.287 . S
C1720 C1719 1.287 . S
C1720 C1721 1.524 . S
C1720 H1739 0.913 . S
C1721 H1697 0.950 . S
C1721 C1720 1.524 . S
C1721 C1722 1.415 . S
C1722 H1698 0.950 . S
C1722 C1717 1.363 . S
C1722 C1721 1.415 . S
C1723 H1699 0.951 . S
C1723 C1724 1.366 . S
C1723 C1725 1.388 . S
C1724 C1723 1.366 . S
C1724 C1728 1.385 . S
C1725 H1700 0.951 . S
C1725 C1723 1.388 . S
C1725 C1726 1.366 . S
C1726 C1725 1.366 . S
C1726 C1727 1.414 . S
C1726 C1729 1.499 . S
C1727 H1701 0.950 . S
C1727 C1726 1.414 . S
C1727 C1728 1.374 . S
C1728 H1702 0.950 . S
C1728 C1724 1.385 . S
C1728 C1727 1.374 . S
C1729 C1726 1.499 . S
C1729 C1730 1.373 . S
C1729 C1731 1.389 . S
C1730 H1703 0.950 . S
C1730 C1716 1.377 . S
C1730 C1729 1.373 . S
C1731 C1715 1.377 . S
C1731 C1729 1.389 . S
C1731 C1732 1.524 . S
C1732 C1731 1.524 . S
C1732 C1733 1.397 . S
C1732 C1737 1.363 . S
C1733 H1704 0.950 . S
C1733 C1732 1.397 . S
C1733 C1734 1.334 1_554 S
C1734 H1705 0.950 . S
C1734 C1733 1.334 1_556 S
C1734 C1735 1.287 . S
C1735 C1734 1.287 . S
C1735 C1736 1.524 1_556 S
C1735 H1738 0.999 . S
C1736 H1706 0.950 1_554 S
C1736 C1735 1.524 1_554 S
C1736 C1737 1.415 . S
C1737 H1707 0.950 . S
C1737 C1732 1.363 . S
C1737 C1736 1.415 . S
H1738 C1735 0.999 . S
H1739 C1720 0.913 . S
H1740 C1758 0.951 . S
H1741 C1760 0.951 . S
H1742 C1762 0.950 . S
H1743 C1763 0.950 . S
H1744 C1765 0.950 . S
H1745 C1768 0.950 . S
H1746 C1769 0.950 . S
H1747 C1771 0.950 . S
H1748 C1772 0.950 . S
H1749 C1773 0.951 . S
H1750 C1775 0.951 . S
H1751 C1777 0.950 . S
H1752 C1778 0.950 . S
H1753 C1780 0.950 . S
H1754 C1783 0.950 . S
H1755 C1784 0.950 . S
H1756 C1786 0.950 . S
H1757 C1787 0.950 . S
C1758 H1740 0.951 . S
C1758 C1759 1.366 . S
C1758 C1760 1.388 . S
C1759 C1758 1.366 . S
C1759 C1763 1.385 . S
C1760 H1741 0.951 . S
C1760 C1758 1.388 . S
C1760 C1761 1.366 . S
C1761 C1760 1.366 . S
C1761 C1762 1.414 . S
C1761 C1764 1.499 . S
C1762 H1742 0.950 . S
C1762 C1761 1.414 . S
C1762 C1763 1.374 . S
C1763 H1743 0.950 . S
C1763 C1759 1.385 . S
C1763 C1762 1.374 . S
C1764 C1761 1.499 . S
C1764 C1765 1.373 . S
C1764 C1766 1.389 . S
C1765 H1744 0.950 . S
C1765 C1764 1.373 . S
C1765 C1781 1.377 . S
C1766 C1764 1.389 . S
C1766 C1767 1.524 . S
C1766 C1780 1.377 . S
C1767 C1766 1.524 . S
C1767 C1768 1.397 . S
C1767 C1772 1.363 . S
C1768 H1745 0.950 . S
C1768 C1767 1.397 . S
C1768 C1769 1.334 . S
C1769 H1746 0.950 . S
C1769 C1768 1.334 . S
C1769 C1770 1.287 . S
C1770 C1769 1.287 . S
C1770 C1771 1.524 . S
C1770 H1789 0.913 . S
C1771 H1747 0.950 . S
C1771 C1770 1.524 . S
C1771 C1772 1.415 . S
C1772 H1748 0.950 . S
C1772 C1767 1.363 . S
C1772 C1771 1.415 . S
C1773 H1749 0.951 . S
C1773 C1774 1.366 . S
C1773 C1775 1.388 . S
C1774 C1773 1.366 . S
C1774 C1778 1.385 . S
C1775 H1750 0.951 . S
C1775 C1773 1.388 . S
C1775 C1776 1.366 . S
C1776 C1775 1.366 . S
C1776 C1777 1.414 . S
C1776 C1779 1.499 . S
C1777 H1751 0.950 . S
C1777 C1776 1.414 . S
C1777 C1778 1.374 . S
C1778 H1752 0.950 . S
C1778 C1774 1.385 . S
C1778 C1777 1.374 . S
C1779 C1776 1.499 . S
C1779 C1780 1.373 . S
C1779 C1781 1.389 . S
C1780 H1753 0.950 . S
C1780 C1766 1.377 . S
C1780 C1779 1.373 . S
C1781 C1765 1.377 . S
C1781 C1779 1.389 . S
C1781 C1782 1.524 . S
C1782 C1781 1.524 . S
C1782 C1783 1.397 . S
C1782 C1787 1.363 . S
C1783 H1754 0.950 . S
C1783 C1782 1.397 . S
C1783 C1784 1.334 . S
C1784 H1755 0.950 . S
C1784 C1783 1.334 . S
C1784 C1785 1.287 . S
C1785 C1784 1.287 . S
C1785 C1786 1.524 . S
C1785 H1788 0.999 . S
C1786 H1756 0.950 . S
C1786 C1785 1.524 . S
C1786 C1787 1.415 . S
C1787 H1757 0.950 . S
C1787 C1782 1.363 . S
C1787 C1786 1.415 . S
H1788 C1785 0.999 . S
H1789 C1770 0.913 . S
H1790 C1808 0.951 . S
H1791 C1810 0.951 . S
H1792 C1812 0.950 . S
H1793 C1813 0.950 . S
H1794 C1815 0.950 . S
H1795 C1818 0.950 . S
H1796 C1819 0.950 . S
H1797 C1821 0.950 . S
H1798 C1822 0.950 . S
H1799 C1823 0.951 . S
H1800 C1825 0.951 . S
H1801 C1827 0.950 . S
H1802 C1828 0.950 . S
H1803 C1830 0.950 . S
H1804 C1833 0.950 . S
H1805 C1834 0.950 . S
H1806 C1836 0.950 . S
H1807 C1837 0.950 . S
C1808 H1790 0.951 . S
C1808 C1809 1.366 . S
C1808 C1810 1.388 . S
C1809 C1808 1.366 . S
C1809 C1813 1.385 . S
C1810 H1791 0.951 . S
C1810 C1808 1.388 . S
C1810 C1811 1.366 . S
C1811 C1810 1.366 . S
C1811 C1812 1.414 . S
C1811 C1814 1.499 . S
C1812 H1792 0.950 . S
C1812 C1811 1.414 . S
C1812 C1813 1.374 . S
C1813 H1793 0.950 . S
C1813 C1809 1.385 . S
C1813 C1812 1.374 . S
C1814 C1811 1.499 . S
C1814 C1815 1.373 . S
C1814 C1816 1.389 . S
C1815 H1794 0.950 . S
C1815 C1814 1.373 . S
C1815 C1831 1.377 . S
C1816 C1814 1.389 . S
C1816 C1817 1.524 . S
C1816 C1830 1.377 . S
C1817 C1816 1.524 . S
C1817 C1818 1.397 . S
C1817 C1822 1.363 . S
C1818 H1795 0.950 . S
C1818 C1817 1.397 . S
C1818 C1819 1.334 . S
C1819 H1796 0.950 . S
C1819 C1818 1.334 . S
C1819 C1820 1.287 . S
C1820 C1819 1.287 . S
C1820 C1821 1.524 . S
C1820 H1839 0.913 . S
C1821 H1797 0.950 . S
C1821 C1820 1.524 . S
C1821 C1822 1.415 . S
C1822 H1798 0.950 . S
C1822 C1817 1.363 . S
C1822 C1821 1.415 . S
C1823 H1799 0.951 . S
C1823 C1824 1.366 . S
C1823 C1825 1.388 . S
C1824 C1823 1.366 . S
C1824 C1828 1.385 . S
C1825 H1800 0.951 . S
C1825 C1823 1.388 . S
C1825 C1826 1.366 . S
C1826 C1825 1.366 . S
C1826 C1827 1.414 . S
C1826 C1829 1.499 . S
C1827 H1801 0.950 . S
C1827 C1826 1.414 . S
C1827 C1828 1.374 . S
C1828 H1802 0.950 . S
C1828 C1824 1.385 . S
C1828 C1827 1.374 . S
C1829 C1826 1.499 . S
C1829 C1830 1.373 . S
C1829 C1831 1.389 . S
C1830 H1803 0.950 . S
C1830 C1816 1.377 . S
C1830 C1829 1.373 . S
C1831 C1815 1.377 . S
C1831 C1829 1.389 . S
C1831 C1832 1.524 . S
C1832 C1831 1.524 . S
C1832 C1833 1.397 . S
C1832 C1837 1.363 . S
C1833 H1804 0.950 . S
C1833 C1832 1.397 . S
C1833 C1834 1.334 . S
C1834 H1805 0.950 . S
C1834 C1833 1.334 . S
C1834 C1835 1.287 . S
C1835 C1834 1.287 . S
C1835 C1836 1.524 . S
C1835 H1838 0.999 . S
C1836 H1806 0.950 . S
C1836 C1835 1.524 . S
C1836 C1837 1.415 . S
C1837 H1807 0.950 . S
C1837 C1832 1.363 . S
C1837 C1836 1.415 . S
H1838 C1835 0.999 . S
H1839 C1820 0.913 . S
C659 C1 1.157 . S
C674 C486 1.245 . S
C709 C80 0.913 . S
C724 C535 0.934 . S
C774 C570 2.448 . S
C759 C140 2.443 . S
C809 C211 2.296 . S
C824 C609 2.271 . S
C874 C530 2.491 . S
C859 C31 2.293 . S
C924 C489 0.884 . S
C909 C61 0.886 . S
C974 C619 1.872 . S
C959 C151 1.887 . S
C1024 C578 1.522 . S
C1009 C200 1.528 . S
C1059 C20 1.675 . S
C1074 C606 1.758 . S
C1124 C538 2.313 . S
C1109 C121 2.376 . S
C1159 C181 2.298 . S
C1174 C499 2.330 . S
C1209 C91 0.716 . S
C1224 C575 0.716 . S
C1274 C495 1.244 . S
C1259 C260 1.182 . S
C1309 C320 0.912 . S
C1324 C526 0.929 . S
C1359 C361 2.442 . S
C1374 C579 2.448 . S
C1409 C451 2.297 . S
C1424 C618 2.275 . S
C1459 C271 2.350 . S
C1474 C539 2.492 . S
C1524 C498 0.885 . S
C1509 C301 0.887 . S
C1574 C610 1.872 . S
C1559 C380 1.873 . S
C1624 C569 1.522 . S
C1609 C440 1.528 . S
C1659 C241 1.621 . S
C1674 C615 1.760 . S
C1724 C529 2.313 . S
C1709 C391 2.369 . S
C1774 C490 2.330 . S
C1759 C421 2.298 . S
C1809 C331 0.716 . S
C1824 C566 0.716 . S
