# Generated by pormake.
# Topology anh, (6,3)-cn, num edge types: 1
# Building blocks:
#     Node 0, Type 0, BuildingBlock: BETGAK_clean_sbu_0, # of connection points: 6
#     Node 1, Type 0, BuildingBlock: BETGAK_clean_sbu_0, # of connection points: 6
#     Node 2, Type 0, BuildingBlock: BETGAK_clean_sbu_0, # of connection points: 6
#     Node 3, Type 1, BuildingBlock: BETDAH_clean_linker_0, # of connection points: 3
#     Node 4, Type 1, BuildingBlock: BETDAH_clean_linker_0, # of connection points: 3
#     Node 5, Type 1, BuildingBlock: BETDAH_clean_linker_0, # of connection points: 3
#     Node 6, Type 1, BuildingBlock: BETDAH_clean_linker_0, # of connection points: 3
#     Node 7, Type 1, BuildingBlock: BETDAH_clean_linker_0, # of connection points: 3
#     Node 8, Type 1, BuildingBlock: BETDAH_clean_linker_0, # of connection points: 3
#     Edge 9, Type (0, 1), BuildingBlock: OJICUG_clean_linker_0, # of connection points: 2
#     Edge 10, Type (0, 1), BuildingBlock: OJICUG_clean_linker_0, # of connection points: 2
#     Edge 11, Type (0, 1), BuildingBlock: OJICUG_clean_linker_0, # of connection points: 2
#     Edge 12, Type (0, 1), BuildingBlock: OJICUG_clean_linker_0, # of connection points: 2
#     Edge 13, Type (0, 1), BuildingBlock: OJICUG_clean_linker_0, # of connection points: 2
#     Edge 14, Type (0, 1), BuildingBlock: OJICUG_clean_linker_0, # of connection points: 2
#     Edge 15, Type (0, 1), BuildingBlock: OJICUG_clean_linker_0, # of connection points: 2
#     Edge 16, Type (0, 1), BuildingBlock: OJICUG_clean_linker_0, # of connection points: 2
#     Edge 17, Type (0, 1), BuildingBlock: OJICUG_clean_linker_0, # of connection points: 2
#     Edge 18, Type (0, 1), BuildingBlock: OJICUG_clean_linker_0, # of connection points: 2
#     Edge 19, Type (0, 1), BuildingBlock: OJICUG_clean_linker_0, # of connection points: 2
#     Edge 20, Type (0, 1), BuildingBlock: OJICUG_clean_linker_0, # of connection points: 2
#     Edge 21, Type (0, 1), BuildingBlock: OJICUG_clean_linker_0, # of connection points: 2
#     Edge 22, Type (0, 1), BuildingBlock: OJICUG_clean_linker_0, # of connection points: 2
#     Edge 23, Type (0, 1), BuildingBlock: OJICUG_clean_linker_0, # of connection points: 2
#     Edge 24, Type (0, 1), BuildingBlock: OJICUG_clean_linker_0, # of connection points: 2
#     Edge 25, Type (0, 1), BuildingBlock: OJICUG_clean_linker_0, # of connection points: 2
#     Edge 26, Type (0, 1), BuildingBlock: OJICUG_clean_linker_0, # of connection points: 2
# Relax obj value: 0.218
# Max RMSD: 0.212
# Mean RMSD: 0.121
data_MOF--net-anh--node1-BETGAK_clean_sbu_0--node2-BETDAH_clean_linker_0--edge1-OJICUG_clean_linker_0
_symmetry_space_group_name_H-M    P1
_symmetry_Int_Tables_number       1
_symmetry_cell_setting            triclinic
loop_
_symmetry_equiv_pos_as_xyz
'x, y, z'
_cell_length_a     21.944441
_cell_length_b     29.544907
_cell_length_c     35.646865
_cell_angle_alpha  93.754242
_cell_angle_beta   87.06138
_cell_angle_gamma 133.06813
loop_
_atom_site_label
_atom_site_type_symbol
_atom_site_fract_x
_atom_site_fract_y
_atom_site_fract_z
_atom_type_partial_charge
La0 La 0.29632 0.60905 0.15451 0.0
La1 La 0.17219 0.61682 0.18468 0.0
C2 C 0.3877 0.60189 0.1152 0.0
C3 C 0.37673 0.54741 0.10708 0.0
C4 C 0.317 0.49384 0.12743 0.0
C5 C 0.2989 0.43933 0.11752 0.0
C6 C 0.34053 0.43738 0.08713 0.0
C7 C 0.40116 0.49151 0.06702 0.0
C8 C 0.41879 0.54606 0.07685 0.0
C9 C 0.26694 0.59673 0.22773 0.0
C10 C 0.36066 0.7423 0.17273 0.0
C11 C 1.07766 0.62328 0.22094 0.0
C12 C 0.98569 0.57649 0.22082 0.0
C13 C 0.94291 0.59118 0.2065 0.0
C14 C 0.86066 0.54392 0.19446 0.0
C15 C 0.8203 0.48137 0.19656 0.0
C16 C 0.85982 0.46693 0.21498 0.0
C17 C 0.94179 0.51408 0.2271 0.0
C18 C 0.16095 0.58742 0.11182 0.0
C19 C 1.1136 0.48639 0.17148 0.0
O20 O 0.32915 0.59682 0.10125 0.0
O21 O 0.40416 0.62325 0.15025 0.0
O22 O 0.28315 0.56791 0.20746 0.0
O23 O 0.27242 0.63236 0.20734 0.0
O24 O 0.3789 0.71009 0.15839 0.0
O25 O 0.28493 0.71536 0.18526 0.0
O26 O 1.1128 0.6502 0.18885 0.0
O27 O 1.11286 0.60645 0.23573 0.0
O28 O 1.09884 0.56908 0.13319 0.0
O29 O 0.22661 0.62572 0.13068 0.0
O30 O 1.10502 0.51988 0.19308 0.0
O31 O 0.17885 0.51269 0.1489 0.0
H32 H 0.28307 0.4938 0.1506 0.0
H33 H 0.25126 0.39843 0.13331 0.0
H34 H 0.43539 0.49186 0.04386 0.0
H35 H 0.46437 0.58684 0.06059 0.0
H36 H 0.97536 0.63885 0.20143 0.0
H37 H 0.83184 0.55648 0.18023 0.0
H38 H 0.82964 0.41912 0.2174 0.0
H39 H 0.97262 0.50107 0.23844 0.0
La40 La 0.8005 0.09559 0.4855 0.0
La41 La 0.67952 0.10846 0.47575 0.0
C42 C 0.87938 0.06883 0.50817 0.0
C43 C 0.8627 1.01461 0.52019 0.0
C44 C 0.79064 0.95409 0.50895 0.0
C45 C 0.77925 0.90359 0.51865 0.0
C46 C 0.83997 0.91287 0.53961 0.0
C47 C 0.91076 0.97361 0.55172 0.0
C48 C 0.92187 1.02393 0.5421 0.0
C49 C 0.78555 0.11251 0.41587 0.0
C50 C 0.60846 0.9755 0.47218 0.0
C51 C 0.60646 0.14226 0.45828 0.0
C52 C 0.61609 0.19507 0.47264 0.0
C53 C 0.58642 0.19477 0.50866 0.0
C54 C 0.60325 0.24714 0.52368 0.0
C55 C 0.64994 0.30108 0.50308 0.0
C56 C 0.67725 0.30074 0.46658 0.0
C57 C 0.66028 0.24821 0.45148 0.0
C58 C 0.69314 0.09166 0.5455 0.0
C59 C 0.8754 0.23012 0.48361 0.0
O60 O 0.86635 0.06859 0.47273 0.0
O61 O 0.85202 0.08877 0.53042 0.0
O62 O 0.85474 0.134 0.42995 0.0
O63 O 0.72787 0.07969 0.43954 0.0
O64 O 0.678 0.99972 0.48926 0.0
O65 O 0.60151 1.01175 0.45748 0.0
O66 O 0.57563 0.09878 0.48188 0.0
O67 O 0.66991 0.15649 0.43927 0.0
O68 O 0.62524 0.07109 0.5308 0.0
O69 O 0.75208 0.12489 0.52222 0.0
O70 O 0.79966 0.20535 0.475 0.0
O71 O 0.8898 0.19563 0.49285 0.0
H72 H 0.74422 0.94603 0.49201 0.0
H73 H 0.72354 0.85739 0.50926 0.0
H74 H 0.95934 0.98265 0.56739 0.0
H75 H 0.97792 0.07041 0.55097 0.0
H76 H 0.55208 0.1547 0.52582 0.0
H77 H 0.582 0.246 0.55201 0.0
H78 H 0.7123 0.34125 0.44976 0.0
H79 H 0.68348 0.2497 0.42358 0.0
La80 La 0.73278 0.62124 0.8563 0.0
La81 La 0.59943 0.48301 0.85394 0.0
C82 C 0.8252 0.73438 0.84293 0.0
C83 C 0.81574 0.77611 0.83122 0.0
C84 C 0.88018 0.84002 0.8385 0.0
C85 C 0.87334 0.88087 0.82739 0.0
C86 C 0.80171 0.85853 0.80874 0.0
C87 C 0.73699 0.79419 0.80152 0.0
C88 C 0.74403 0.75332 0.8126 0.0
C89 C 0.6894 0.56827 0.92136 0.0
C90 C 0.53863 0.55197 0.86016 0.0
C91 C 0.51666 0.37011 0.86282 0.0
C92 C 0.53309 0.33078 0.84914 0.0
C93 C 0.52941 0.31558 0.81058 0.0
C94 C 0.55436 0.28478 0.79731 0.0
C95 C 0.5837 0.2684 0.82219 0.0
C96 C 0.58454 0.28154 0.86092 0.0
C97 C 0.55945 0.3124 0.87425 0.0
C98 C 0.6422 0.53298 0.78772 0.0
C99 C 0.79468 0.55292 0.85733 0.0
O100 O 0.79697 0.71238 0.87649 0.0
O101 O 0.80598 0.69198 0.81788 0.0
O102 O 0.76559 0.61704 0.91256 0.0
O103 O 0.6425 0.55353 0.89498 0.0
O104 O 0.61579 0.60096 0.84914 0.0
O105 O 0.52015 0.50117 0.86987 0.0
O106 O 0.49959 0.38993 0.83731 0.0
O107 O 0.56893 0.41407 0.88775 0.0
O108 O 0.56787 0.48312 0.79708 0.0
O109 O 0.69086 0.55056 0.81426 0.0
O110 O 0.71469 0.50133 0.86055 0.0
O111 O 0.81766 0.60649 0.85123 0.0
H112 H 0.93588 0.8584 0.85292 0.0
H113 H 0.92364 0.92993 0.83407 0.0
H114 H 0.68124 0.77548 0.78703 0.0
H115 H 0.69373 0.70406 0.80652 0.0
H116 H 0.50916 0.32873 0.79036 0.0
H117 H 0.55128 0.27423 0.76741 0.0
H118 H 0.60717 0.26982 0.88082 0.0
H119 H 0.56306 0.32357 0.9041 0.0
H120 H 0.61419 0.98553 0.26596 0.0
H121 H 0.8199 0.17617 0.23945 0.0
H122 H 0.66918 0.03758 0.15086 0.0
C123 C 0.65138 1.02118 0.24544 0.0
C124 C 0.63309 1.0043 0.20715 0.0
C125 C 0.71907 0.08288 0.25741 0.0
C126 C 0.76812 0.12845 0.2304 0.0
C127 C 0.74965 0.11217 0.19184 0.0
C128 C 0.68303 0.05003 0.18053 0.0
N129 N 0.79625 0.15661 0.16356 0.0
C130 C 0.85905 0.22039 0.17028 0.0
H131 H 0.68136 0.47748 0.62819 0.0
H132 H 0.80478 0.66929 0.62691 0.0
H133 H 0.81116 0.5804 0.52851 0.0
C134 C 0.71714 0.51995 0.61319 0.0
C135 C 0.74263 0.52193 0.5759 0.0
C136 C 0.74005 0.57299 0.63188 0.0
C137 C 0.78724 0.6283 0.61271 0.0
C138 C 0.81237 0.63056 0.57525 0.0
C139 C 0.79147 0.57795 0.55741 0.0
N140 N 0.85992 0.6853 0.55485 0.0
C141 C 0.84802 0.7259 0.55799 0.0
H142 H 1.02164 0.55739 0.95396 0.0
H143 H 0.22993 0.57151 0.93517 0.0
H144 H 1.09965 0.55594 0.84136 0.0
C145 C 1.06368 0.55949 0.93501 0.0
C146 C 1.05314 0.55643 0.89613 0.0
C147 C 1.12807 0.5661 0.94966 0.0
C148 C 0.18021 0.56644 0.92443 0.0
C149 C 0.16976 0.56211 0.88527 0.0
C150 C 1.10714 0.55839 0.87145 0.0
N151 N 0.2211 0.56208 0.85886 0.0
C152 C 0.28273 0.56176 0.8669 0.0
H153 H 0.37367 0.72784 0.38029 0.0
H154 H 0.19432 0.53546 0.40755 0.0
H155 H 0.32821 0.67834 0.49564 0.0
C156 C 0.3399 0.69254 0.40108 0.0
C157 C 0.3571 0.71076 0.43923 0.0
C158 C 0.28136 0.62962 0.38927 0.0
C159 C 0.2399 0.58406 0.41641 0.0
C160 C 0.25679 0.60176 0.45498 0.0
C161 C 0.31588 0.66497 0.46599 0.0
N162 N 0.21556 0.55787 0.48366 0.0
C163 C 1.14984 0.49413 0.47815 0.0
H164 H 0.67054 0.15102 0.70423 0.0
H165 H 0.76936 0.06778 0.71715 0.0
H166 H 0.73539 0.14367 0.81408 0.0
C167 C 0.69476 0.13829 0.72225 0.0
C168 C 0.69968 0.15113 0.76116 0.0
C169 C 0.7203 0.10877 0.7062 0.0
C170 C 0.74994 0.09079 0.72945 0.0
C171 C 0.75426 0.10283 0.7686 0.0
C172 C 0.73025 0.13359 0.78401 0.0
N173 N 0.78379 0.086 0.79351 0.0
C174 C 0.7837 0.03916 0.78632 0.0
H175 H 0.68162 0.43512 0.05672 0.0
H176 H 0.45591 0.30714 0.99259 0.0
H177 H 0.47538 0.25448 0.09742 0.0
C178 C 0.62067 0.38909 0.05191 0.0
C179 C 0.58559 0.34497 0.0793 0.0
C180 C 0.57455 0.37627 0.02047 0.0
C181 C 0.49375 0.31739 0.01604 0.0
C182 C 0.45787 0.27315 0.04357 0.0
C183 C 0.50457 0.28681 0.07497 0.0
N184 N 0.37027 0.22344 0.04471 0.0
C185 C 0.32454 0.23992 0.05053 0.0
C186 C 0.32089 0.36189 0.03937 0.0
C187 C 0.32257 0.37967 0.07719 0.0
H188 H 0.31775 0.30111 0.00114 0.0
C189 C 0.31127 0.34357 0.10563 0.0
H190 H 0.32824 0.38814 0.01679 0.0
C191 C 0.30356 0.29318 0.09652 0.0
C192 C 0.30646 0.2779 0.05892 0.0
H193 H 0.31329 0.35635 0.13503 0.0
H194 H 0.30094 0.26882 0.11895 0.0
C195 C 0.31323 0.31145 0.03033 0.0
C196 C 1.02816 0.32575 0.48887 0.0
C197 C 0.94614 0.29832 0.48204 0.0
H198 H 1.15752 0.40998 0.49252 0.0
C199 C 0.93291 0.33664 0.47266 0.0
H200 H 1.04085 0.29781 0.49597 0.0
C201 C 1.00001 0.40081 0.47051 0.0
C202 C 1.08131 0.42762 0.47753 0.0
H203 H 0.87069 0.31719 0.46711 0.0
H204 H 0.98825 0.42949 0.4638 0.0
C205 C 1.09507 0.38985 0.48666 0.0
C206 C 0.71853 0.88797 0.8042 0.0
C207 C 0.79398 0.90237 0.79821 0.0
H208 H 0.6564 0.92091 0.80474 0.0
C209 C 0.8635 0.96067 0.78433 0.0
H210 H 0.66407 0.84383 0.81521 0.0
C211 C 0.85884 1.00458 0.77841 0.0
C212 C 0.78456 0.99079 0.78604 0.0
H213 H 0.92214 0.9729 0.77885 0.0
H214 H 0.91409 0.05004 0.76921 0.0
C215 C 0.71402 0.93197 0.79826 0.0
C216 C 0.6823 0.43313 0.17074 0.0
C217 C 0.74618 0.43338 0.17315 0.0
H218 H 0.57914 0.40285 0.13869 0.0
C219 C 0.74671 0.39479 0.14804 0.0
H220 H 0.6804 0.46228 0.18978 0.0
C221 C 0.68909 0.36109 0.11893 0.0
C222 C 0.62976 0.36498 0.11493 0.0
H223 H 0.79593 0.39472 0.14886 0.0
H224 H 0.69462 0.33567 0.09807 0.0
C225 C 0.62437 0.39905 0.14177 0.0
C226 C 0.47527 0.88192 0.44175 0.0
C227 C 0.54099 0.90729 0.46631 0.0
H228 H 0.36554 0.80011 0.41435 0.0
C229 C 0.54281 0.86695 0.4839 0.0
H230 H 0.47155 0.91144 0.42785 0.0
C231 C 0.48161 0.8028 0.47618 0.0
C232 C 0.41781 0.77787 0.45049 0.0
H233 H 0.59212 0.88493 0.50329 0.0
H234 H 0.48574 0.77296 0.48931 0.0
C235 C 0.41464 0.81806 0.43387 0.0
C236 C 0.59623 0.19012 0.82575 0.0
C237 C 0.61526 0.23926 0.80743 0.0
H238 H 0.60701 0.12325 0.82531 0.0
C239 C 0.66445 0.26035 0.7745 0.0
H240 H 0.55792 0.17245 0.85099 0.0
C241 C 0.69255 0.23227 0.75983 0.0
C242 C 0.67231 0.18241 0.77773 0.0
H243 H 0.68183 0.29899 0.76013 0.0
H244 H 0.73065 0.24992 0.73453 0.0
C245 C 0.62442 0.16199 0.81105 0.0
C246 C 0.80568 0.81532 0.51757 0.0
C247 C 0.83318 0.8604 0.54639 0.0
H248 H 0.78903 0.73694 0.49909 0.0
C249 C 0.85999 0.8574 0.58046 0.0
H250 H 0.78582 0.81666 0.49081 0.0
C251 C 0.86235 0.81189 0.58494 0.0
C252 C 0.83762 0.76872 0.55553 0.0
H253 H 0.88054 0.89089 0.60338 0.0
H254 H 0.88538 0.81141 0.61095 0.0
C255 C 0.80795 0.76992 0.52215 0.0
C256 C 0.83998 0.5023 0.88312 0.0
C257 C 0.85994 0.55099 0.86357 0.0
H258 H 0.88512 0.46622 0.90887 0.0
C259 C 0.94365 0.59938 0.85246 0.0
H260 H 0.77653 0.46443 0.89244 0.0
C261 C 1.00572 0.59959 0.86127 0.0
C262 C 0.98602 0.55214 0.88212 0.0
H263 H 0.96151 0.63765 0.83742 0.0
H264 H 1.06978 0.63818 0.8531 0.0
C265 C 0.90224 0.50328 0.89263 0.0
C266 C 0.50696 0.8436 0.16075 0.0
C267 C 0.4287 0.81057 0.17845 0.0
H268 H 0.63295 0.93133 0.15559 0.0
C269 C 0.41725 0.84286 0.20378 0.0
H270 H 0.5178 0.82018 0.14106 0.0
C271 C 0.48321 0.90597 0.21238 0.0
C272 C 0.56185 0.93861 0.19543 0.0
H273 H 0.358 0.81901 0.21804 0.0
H274 H 0.47304 0.92922 0.23271 0.0
C275 C 0.57274 0.9072 0.16893 0.0
C276 C 0.61453 0.35417 0.54269 0.0
C277 C 0.67252 0.35803 0.52033 0.0
H278 H 0.5908 0.40279 0.5773 0.0
C279 C 0.75334 0.41646 0.51578 0.0
H280 H 0.55142 0.31002 0.54632 0.0
C281 C 0.77594 0.46963 0.53358 0.0
C282 C 0.71826 0.46562 0.55636 0.0
H283 H 0.79993 0.42094 0.49927 0.0
H284 H 0.83923 0.51372 0.53019 0.0
C285 C 0.63714 0.40732 0.56049 0.0
C286 C 0.49182 0.60942 0.85444 0.0
C287 C 0.47324 0.55527 0.86331 0.0
H288 H 0.44603 0.65394 0.84902 0.0
C289 C 0.39125 0.50426 0.87525 0.0
H290 H 0.55398 0.64976 0.84526 0.0
C291 C 0.32958 0.507 0.87759 0.0
C292 C 0.34835 0.56083 0.86824 0.0
H293 H 0.37427 0.46179 0.88243 0.0
H294 H 0.26677 0.46656 0.88608 0.0
C295 C 0.4301 0.61207 0.85681 0.0
C296 C 0.97498 0.38754 0.19374 0.0
C297 C 1.04883 0.41775 0.17247 0.0
H298 H 0.85624 0.30028 0.20976 0.0
C299 C 1.05996 0.38157 0.15177 0.0
H300 H 0.96427 0.41386 0.20995 0.0
C301 C 0.99836 0.31684 0.15192 0.0
C302 C 0.92465 0.28713 0.17271 0.0
H303 H 1.11599 0.40313 0.13515 0.0
H304 H 1.00784 0.29 0.1353 0.0
C305 C 0.91326 0.32265 0.19376 0.0
C306 C 0.17286 0.55202 0.04841 0.0
C307 C 1.15785 0.58473 0.07045 0.0
H308 H 0.17388 0.51934 0.99305 0.0
C309 C 1.13549 0.61254 0.05282 0.0
H310 H 0.18863 0.52918 0.06157 0.0
C311 C 1.12797 0.6077 0.01372 0.0
C312 C 1.14093 0.57375 0.99129 0.0
H313 H 1.12375 0.63807 0.06935 0.0
H314 H 1.11189 0.63071 0.00112 0.0
C315 C 0.16435 0.54645 0.00918 0.0
C316 C 0.83686 0.1402 0.34925 0.0
C317 C 0.77143 0.11191 0.3757 0.0
H318 H 0.87163 0.15343 0.29082 0.0
C319 C 0.69055 0.07954 0.36319 0.0
H320 H 0.89987 0.1657 0.3582 0.0
C321 C 0.67444 0.07265 0.32485 0.0
C322 C 0.73891 0.09814 0.29813 0.0
H323 H 0.639 0.05782 0.38297 0.0
H324 H 0.61098 0.046 0.31602 0.0
C325 C 0.82075 0.13347 0.31076 0.0
C326 C 0.75222 0.5967 0.73787 0.0
C327 C 0.66787 0.5498 0.74817 0.0
H328 H 0.84126 0.64165 0.69239 0.0
C329 C 0.60733 0.51515 0.71988 0.0
H330 H 0.80014 0.62389 0.75911 0.0
C331 C 0.63083 0.52461 0.68203 0.0
C332 C 0.71522 0.56971 0.67168 0.0
H333 H 0.54178 0.4789 0.72694 0.0
H334 H 0.58322 0.49552 0.66077 0.0
C335 C 0.77569 0.6069 0.69982 0.0
C336 C 0.7797 0.12518 0.603 0.0
C337 C 0.70148 0.09032 0.58618 0.0
H338 H 0.84687 0.15744 0.65491 0.0
C339 C 0.62956 0.05623 0.60904 0.0
H340 H 0.83609 0.15195 0.58602 0.0
C341 C 0.6358 0.05973 0.64804 0.0
C342 C 0.71397 0.09667 0.66503 0.0
H343 H 0.56835 0.02855 0.59688 0.0
H344 H 0.57966 0.03526 0.6651 0.0
C345 C 0.78585 0.12812 0.64226 0.0
C346 C 0.71938 0.51915 0.96155 0.0
C347 C 0.6643 0.52422 0.94973 0.0
H348 H 0.73343 0.46676 0.99229 0.0
C349 C 0.58079 0.48155 0.96169 0.0
H350 H 0.7838 0.55104 0.9521 0.0
C351 C 0.55201 0.43366 0.98451 0.0
C352 C 0.60598 0.42695 0.99556 0.0
H353 H 0.53722 0.48459 0.95281 0.0
H354 H 0.48741 0.40208 0.99364 0.0
C355 C 0.69033 0.47069 0.98422 0.0
C356 C 0.25652 0.64013 0.28705 0.0
C357 C 0.26071 0.59856 0.26917 0.0
H358 H 0.25646 0.68057 0.33889 0.0
C359 C 0.26333 0.56223 0.29126 0.0
H360 H 0.25501 0.6691 0.27087 0.0
C361 C 0.26555 0.56958 0.33065 0.0
C362 C 0.26525 0.61343 0.34836 0.0
H363 H 0.26643 0.52972 0.2781 0.0
H364 H 0.27144 0.54321 0.34709 0.0
C365 C 0.25804 0.64708 0.3261 0.0
loop_
_geom_bond_atom_site_label_1
_geom_bond_atom_site_label_2
_geom_bond_distance
_geom_bond_site_symmetry_2
_ccdc_geom_bond_type
La0 C2 2.928 . S
La0 O20 2.521 . S
La0 O21 2.628 . S
La0 O22 2.554 . S
La0 O23 2.757 . S
La0 O24 2.470 . S
La0 O29 2.482 . S
La0 O31 2.503 1_455 S
La1 C11 2.928 . S
La1 O23 2.482 1_655 S
La1 O25 2.503 1_655 S
La1 O26 2.521 . S
La1 O27 2.628 . S
La1 O28 2.554 . S
La1 O29 2.757 1_655 S
La1 O30 2.470 . S
C2 La0 2.928 . S
C2 C3 1.503 . S
C2 O20 1.261 . S
C2 O21 1.243 . S
C3 C2 1.503 . S
C3 C4 1.394 . S
C3 C8 1.373 . S
C4 C3 1.394 . S
C4 C5 1.380 . S
C4 H32 0.930 . S
C5 C4 1.380 . S
C5 C6 1.376 . S
C5 H33 0.930 . S
C6 C5 1.376 . S
C6 C7 1.370 . S
C7 C6 1.370 . S
C7 C8 1.396 . S
C7 H34 0.929 . S
C8 C3 1.373 . S
C8 C7 1.396 . S
C8 H35 0.929 . S
C9 O22 1.240 . S
C9 O23 1.289 . S
C10 O24 1.258 . S
C10 O25 1.256 . S
C11 La1 2.928 . S
C11 C12 1.503 . S
C11 O26 1.261 . S
C11 O27 1.243 . S
C12 C11 1.503 . S
C12 C13 1.394 . S
C12 C17 1.373 . S
C13 C12 1.394 . S
C13 C14 1.380 . S
C13 H36 0.930 . S
C14 C13 1.380 . S
C14 C15 1.376 . S
C14 H37 0.930 . S
C15 C14 1.376 . S
C15 C16 1.370 . S
C16 C15 1.370 . S
C16 C17 1.396 . S
C16 H38 0.929 . S
C17 C12 1.373 . S
C17 C16 1.396 . S
C17 H39 0.929 . S
C18 O28 1.240 1_455 S
C18 O29 1.289 . S
C19 O30 1.258 . S
C19 O31 1.256 . S
O20 La0 2.521 . S
O20 C2 1.261 . S
O21 La0 2.628 . S
O21 C2 1.243 . S
O22 La0 2.554 . S
O22 C9 1.240 . S
O23 La0 2.757 . S
O23 La1 2.482 1_455 S
O23 C9 1.289 . S
O24 La0 2.470 . S
O24 C10 1.258 . S
O25 La1 2.503 1_455 S
O25 C10 1.256 . S
O26 La1 2.521 . S
O26 C11 1.261 . S
O27 La1 2.628 . S
O27 C11 1.243 . S
O28 La1 2.554 . S
O28 C18 1.240 1_655 S
O29 La0 2.482 . S
O29 La1 2.757 1_455 S
O29 C18 1.289 . S
O30 La1 2.470 . S
O30 C19 1.258 . S
O31 La0 2.503 1_655 S
O31 C19 1.256 . S
H32 C4 0.930 . S
H33 C5 0.930 . S
H34 C7 0.929 . S
H35 C8 0.929 . S
H36 C13 0.930 . S
H37 C14 0.930 . S
H38 C16 0.929 . S
H39 C17 0.929 . S
La40 C42 2.928 1_545 S
La40 O60 2.521 1_545 S
La40 O61 2.628 1_545 S
La40 O62 2.554 . S
La40 O63 2.757 . S
La40 O64 2.470 1_545 S
La40 O69 2.482 . S
La40 O71 2.503 . S
La41 C51 2.928 . S
La41 O63 2.482 . S
La41 O65 2.503 1_545 S
La41 O66 2.521 . S
La41 O67 2.628 . S
La41 O68 2.554 . S
La41 O69 2.757 . S
La41 O70 2.470 . S
C42 La40 2.928 1_565 S
C42 C43 1.503 . S
C42 O60 1.261 . S
C42 O61 1.243 . S
C43 C42 1.503 . S
C43 C44 1.394 . S
C43 C48 1.373 . S
C44 C43 1.394 . S
C44 C45 1.380 . S
C44 H72 0.930 . S
C45 C44 1.380 . S
C45 C46 1.376 . S
C45 H73 0.930 . S
C46 C45 1.376 . S
C46 C47 1.370 . S
C47 C46 1.370 . S
C47 C48 1.396 . S
C47 H74 0.929 . S
C48 C43 1.373 . S
C48 C47 1.396 . S
C48 H75 0.929 . S
C49 O62 1.240 . S
C49 O63 1.289 . S
C50 O64 1.258 . S
C50 O65 1.256 . S
C51 La41 2.928 . S
C51 C52 1.503 . S
C51 O66 1.261 . S
C51 O67 1.243 . S
C52 C51 1.503 . S
C52 C53 1.394 . S
C52 C57 1.373 . S
C53 C52 1.394 . S
C53 C54 1.380 . S
C53 H76 0.930 . S
C54 C53 1.380 . S
C54 C55 1.376 . S
C54 H77 0.930 . S
C55 C54 1.376 . S
C55 C56 1.370 . S
C56 C55 1.370 . S
C56 C57 1.396 . S
C56 H78 0.929 . S
C57 C52 1.373 . S
C57 C56 1.396 . S
C57 H79 0.929 . S
C58 O68 1.240 . S
C58 O69 1.289 . S
C59 O70 1.258 . S
C59 O71 1.256 . S
O60 La40 2.521 1_565 S
O60 C42 1.261 . S
O61 La40 2.628 1_565 S
O61 C42 1.243 . S
O62 La40 2.554 . S
O62 C49 1.240 . S
O63 La40 2.757 . S
O63 La41 2.482 . S
O63 C49 1.289 . S
O64 La40 2.470 1_565 S
O64 C50 1.258 . S
O65 La41 2.503 1_565 S
O65 C50 1.256 . S
O66 La41 2.521 . S
O66 C51 1.261 . S
O67 La41 2.628 . S
O67 C51 1.243 . S
O68 La41 2.554 . S
O68 C58 1.240 . S
O69 La40 2.482 . S
O69 La41 2.757 . S
O69 C58 1.289 . S
O70 La41 2.470 . S
O70 C59 1.258 . S
O71 La40 2.503 . S
O71 C59 1.256 . S
H72 C44 0.930 . S
H73 C45 0.930 . S
H74 C47 0.929 . S
H75 C48 0.929 . S
H76 C53 0.930 . S
H77 C54 0.930 . S
H78 C56 0.929 . S
H79 C57 0.929 . S
La80 C82 2.928 . S
La80 O100 2.521 . S
La80 O101 2.628 . S
La80 O102 2.554 . S
La80 O103 2.757 . S
La80 O104 2.470 . S
La80 O109 2.482 . S
La80 O111 2.503 . S
La81 C91 2.928 . S
La81 O103 2.482 . S
La81 O105 2.503 . S
La81 O106 2.521 . S
La81 O107 2.628 . S
La81 O108 2.554 . S
La81 O109 2.757 . S
La81 O110 2.470 . S
C82 La80 2.928 . S
C82 C83 1.503 . S
C82 O100 1.261 . S
C82 O101 1.243 . S
C83 C82 1.503 . S
C83 C84 1.394 . S
C83 C88 1.373 . S
C84 C83 1.394 . S
C84 C85 1.380 . S
C84 H112 0.930 . S
C85 C84 1.380 . S
C85 C86 1.376 . S
C85 H113 0.930 . S
C86 C85 1.376 . S
C86 C87 1.370 . S
C87 C86 1.370 . S
C87 C88 1.396 . S
C87 H114 0.929 . S
C88 C83 1.373 . S
C88 C87 1.396 . S
C88 H115 0.929 . S
C89 O102 1.240 . S
C89 O103 1.289 . S
C90 O104 1.258 . S
C90 O105 1.256 . S
C91 La81 2.928 . S
C91 C92 1.503 . S
C91 O106 1.261 . S
C91 O107 1.243 . S
C92 C91 1.503 . S
C92 C93 1.394 . S
C92 C97 1.373 . S
C93 C92 1.394 . S
C93 C94 1.380 . S
C93 H116 0.930 . S
C94 C93 1.380 . S
C94 C95 1.376 . S
C94 H117 0.930 . S
C95 C94 1.376 . S
C95 C96 1.370 . S
C96 C95 1.370 . S
C96 C97 1.396 . S
C96 H118 0.929 . S
C97 C92 1.373 . S
C97 C96 1.396 . S
C97 H119 0.929 . S
C98 O108 1.240 . S
C98 O109 1.289 . S
C99 O110 1.258 . S
C99 O111 1.256 . S
O100 La80 2.521 . S
O100 C82 1.261 . S
O101 La80 2.628 . S
O101 C82 1.243 . S
O102 La80 2.554 . S
O102 C89 1.240 . S
O103 La80 2.757 . S
O103 La81 2.482 . S
O103 C89 1.289 . S
O104 La80 2.470 . S
O104 C90 1.258 . S
O105 La81 2.503 . S
O105 C90 1.256 . S
O106 La81 2.521 . S
O106 C91 1.261 . S
O107 La81 2.628 . S
O107 C91 1.243 . S
O108 La81 2.554 . S
O108 C98 1.240 . S
O109 La80 2.482 . S
O109 La81 2.757 . S
O109 C98 1.289 . S
O110 La81 2.470 . S
O110 C99 1.258 . S
O111 La80 2.503 . S
O111 C99 1.256 . S
H112 C84 0.930 . S
H113 C85 0.930 . S
H114 C87 0.929 . S
H115 C88 0.929 . S
H116 C93 0.930 . S
H117 C94 0.930 . S
H118 C96 0.929 . S
H119 C97 0.929 . S
H120 C123 0.929 . S
H121 C126 0.929 . S
H122 C128 0.930 1_565 S
C123 H120 0.929 . S
C123 C124 1.398 . S
C123 C125 1.396 1_565 S
C124 C123 1.398 . S
C124 C128 1.407 1_565 S
C125 C123 1.396 1_545 S
C125 C126 1.394 . S
C126 H121 0.929 . S
C126 C125 1.394 . S
C126 C127 1.382 . S
C127 C126 1.382 . S
C127 C128 1.392 . S
C127 N129 1.420 . S
C128 H122 0.930 1_545 S
C128 C124 1.407 1_545 S
C128 C127 1.392 . S
N129 C127 1.420 . S
N129 C130 1.244 . S
C130 N129 1.244 . S
H131 C134 0.929 . S
H132 C137 0.929 . S
H133 C139 0.930 . S
C134 H131 0.929 . S
C134 C135 1.398 . S
C134 C136 1.396 . S
C135 C134 1.398 . S
C135 C139 1.407 . S
C136 C134 1.396 . S
C136 C137 1.394 . S
C137 H132 0.929 . S
C137 C136 1.394 . S
C137 C138 1.382 . S
C138 C137 1.382 . S
C138 C139 1.392 . S
C138 N140 1.420 . S
C139 H133 0.930 . S
C139 C135 1.407 . S
C139 C138 1.392 . S
N140 C138 1.420 . S
N140 C141 1.244 . S
C141 N140 1.244 . S
H142 C145 0.929 1_655 S
H143 C148 0.929 . S
H144 C150 0.930 . S
C145 H142 0.929 1_455 S
C145 C146 1.398 1_455 S
C145 C147 1.396 . S
C146 C145 1.398 1_655 S
C146 C150 1.407 1_655 S
C147 C145 1.396 . S
C147 C148 1.394 . S
C148 H143 0.929 . S
C148 C147 1.394 . S
C148 C149 1.382 . S
C149 C148 1.382 . S
C149 C150 1.392 . S
C149 N151 1.420 . S
C150 H144 0.930 . S
C150 C146 1.407 1_455 S
C150 C149 1.392 . S
N151 C149 1.420 . S
N151 C152 1.244 . S
C152 N151 1.244 . S
H153 C156 0.929 . S
H154 C159 0.929 . S
H155 C161 0.930 . S
C156 H153 0.929 . S
C156 C157 1.398 . S
C156 C158 1.396 . S
C157 C156 1.398 . S
C157 C161 1.407 . S
C158 C156 1.396 . S
C158 C159 1.394 1_455 S
C159 H154 0.929 . S
C159 C158 1.394 1_655 S
C159 C160 1.382 . S
C160 C159 1.382 . S
C160 C161 1.392 1_655 S
C160 N162 1.420 . S
C161 H155 0.930 . S
C161 C157 1.407 . S
C161 C160 1.392 1_455 S
N162 C160 1.420 . S
N162 C163 1.244 . S
C163 N162 1.244 . S
H164 C167 0.929 . S
H165 C170 0.929 1_565 S
H166 C172 0.930 . S
C167 H164 0.929 . S
C167 C168 1.398 . S
C167 C169 1.396 . S
C168 C167 1.398 . S
C168 C172 1.407 . S
C169 C167 1.396 . S
C169 C170 1.394 . S
C170 H165 0.929 1_545 S
C170 C169 1.394 . S
C170 C171 1.382 . S
C171 C170 1.382 . S
C171 C172 1.392 . S
C171 N173 1.430 . S
C172 H166 0.930 . S
C172 C168 1.407 . S
C172 C171 1.392 . S
N173 C171 1.430 . S
N173 C174 1.234 1_545 S
C174 N173 1.234 1_565 S
H175 C178 0.929 . S
H176 C181 0.929 . S
H177 C183 0.930 . S
C178 H175 0.929 . S
C178 C179 1.398 . S
C178 C180 1.396 . S
C179 C178 1.398 . S
C179 C183 1.407 . S
C180 C178 1.396 . S
C180 C181 1.394 . S
C181 H176 0.929 . S
C181 C180 1.394 . S
C181 C182 1.382 . S
C182 C181 1.382 . S
C182 C183 1.392 . S
C182 N184 1.420 . S
C183 H177 0.930 . S
C183 C179 1.407 . S
C183 C182 1.392 . S
N184 C182 1.420 . S
N184 C185 1.244 . S
C185 N184 1.244 . S
C186 C187 1.387 . S
C186 H190 0.950 . S
C186 C195 1.390 . S
C187 C186 1.387 . S
C187 C189 1.387 . S
H188 C195 0.950 . S
C189 C187 1.387 . S
C189 C191 1.390 . S
C189 H193 0.950 . S
H190 C186 0.950 . S
C191 C189 1.390 . S
C191 C192 1.387 . S
C191 H194 0.950 . S
C192 C191 1.387 . S
C192 C195 1.387 . S
H193 C189 0.950 . S
H194 C191 0.950 . S
C195 C186 1.390 . S
C195 H188 0.950 . S
C195 C192 1.387 . S
C196 C197 1.387 . S
C196 H200 0.950 . S
C196 C205 1.390 . S
C197 C196 1.387 . S
C197 C199 1.387 . S
H198 C205 0.950 . S
C199 C197 1.387 . S
C199 C201 1.390 . S
C199 H203 0.950 . S
H200 C196 0.950 . S
C201 C199 1.390 . S
C201 C202 1.387 . S
C201 H204 0.950 . S
C202 C201 1.387 . S
C202 C205 1.387 . S
H203 C199 0.950 . S
H204 C201 0.950 . S
C205 C196 1.390 . S
C205 H198 0.950 . S
C205 C202 1.387 . S
C206 C207 1.387 . S
C206 H210 0.950 . S
C206 C215 1.390 . S
C207 C206 1.387 . S
C207 C209 1.387 . S
H208 C215 0.950 . S
C209 C207 1.387 . S
C209 C211 1.390 . S
C209 H213 0.950 . S
H210 C206 0.950 . S
C211 C209 1.390 . S
C211 C212 1.387 . S
C211 H214 0.950 . S
C212 C211 1.387 . S
C212 C215 1.387 . S
H213 C209 0.950 . S
H214 C211 0.950 . S
C215 C206 1.390 . S
C215 H208 0.950 . S
C215 C212 1.387 . S
C216 C217 1.387 . S
C216 H220 0.950 . S
C216 C225 1.390 . S
C217 C216 1.387 . S
C217 C219 1.387 . S
H218 C225 0.950 . S
C219 C217 1.387 . S
C219 C221 1.390 . S
C219 H223 0.950 . S
H220 C216 0.950 . S
C221 C219 1.390 . S
C221 C222 1.387 . S
C221 H224 0.950 . S
C222 C221 1.387 . S
C222 C225 1.387 . S
H223 C219 0.950 . S
H224 C221 0.950 . S
C225 C216 1.390 . S
C225 H218 0.950 . S
C225 C222 1.387 . S
C226 C227 1.387 . S
C226 H230 0.950 . S
C226 C235 1.390 . S
C227 C226 1.387 . S
C227 C229 1.387 . S
H228 C235 0.950 . S
C229 C227 1.387 . S
C229 C231 1.390 . S
C229 H233 0.950 . S
H230 C226 0.950 . S
C231 C229 1.390 . S
C231 C232 1.387 . S
C231 H234 0.950 . S
C232 C231 1.387 . S
C232 C235 1.387 . S
H233 C229 0.950 . S
H234 C231 0.950 . S
C235 C226 1.390 . S
C235 H228 0.950 . S
C235 C232 1.387 . S
C236 C237 1.387 . S
C236 H240 0.950 . S
C236 C245 1.390 . S
C237 C236 1.387 . S
C237 C239 1.387 . S
H238 C245 0.950 . S
C239 C237 1.387 . S
C239 C241 1.390 . S
C239 H243 0.950 . S
H240 C236 0.950 . S
C241 C239 1.390 . S
C241 C242 1.387 . S
C241 H244 0.950 . S
C242 C241 1.387 . S
C242 C245 1.387 . S
H243 C239 0.950 . S
H244 C241 0.950 . S
C245 C236 1.390 . S
C245 H238 0.950 . S
C245 C242 1.387 . S
C246 C247 1.387 . S
C246 H250 0.950 . S
C246 C255 1.390 . S
C247 C246 1.387 . S
C247 C249 1.387 . S
H248 C255 0.950 . S
C249 C247 1.387 . S
C249 C251 1.390 . S
C249 H253 0.950 . S
H250 C246 0.950 . S
C251 C249 1.390 . S
C251 C252 1.387 . S
C251 H254 0.950 . S
C252 C251 1.387 . S
C252 C255 1.387 . S
H253 C249 0.950 . S
H254 C251 0.950 . S
C255 C246 1.390 . S
C255 H248 0.950 . S
C255 C252 1.387 . S
C256 C257 1.387 . S
C256 H260 0.950 . S
C256 C265 1.390 . S
C257 C256 1.387 . S
C257 C259 1.387 . S
H258 C265 0.950 . S
C259 C257 1.387 . S
C259 C261 1.390 . S
C259 H263 0.950 . S
H260 C256 0.950 . S
C261 C259 1.390 . S
C261 C262 1.387 . S
C261 H264 0.950 . S
C262 C261 1.387 . S
C262 C265 1.387 . S
H263 C259 0.950 . S
H264 C261 0.950 . S
C265 C256 1.390 . S
C265 H258 0.950 . S
C265 C262 1.387 . S
C266 C267 1.387 . S
C266 H270 0.950 . S
C266 C275 1.390 . S
C267 C266 1.387 . S
C267 C269 1.387 . S
H268 C275 0.950 . S
C269 C267 1.387 . S
C269 C271 1.390 . S
C269 H273 0.950 . S
H270 C266 0.950 . S
C271 C269 1.390 . S
C271 C272 1.387 . S
C271 H274 0.950 . S
C272 C271 1.387 . S
C272 C275 1.387 . S
H273 C269 0.950 . S
H274 C271 0.950 . S
C275 C266 1.390 . S
C275 H268 0.950 . S
C275 C272 1.387 . S
C276 C277 1.387 . S
C276 H280 0.950 . S
C276 C285 1.390 . S
C277 C276 1.387 . S
C277 C279 1.387 . S
H278 C285 0.950 . S
C279 C277 1.387 . S
C279 C281 1.390 . S
C279 H283 0.950 . S
H280 C276 0.950 . S
C281 C279 1.390 . S
C281 C282 1.387 . S
C281 H284 0.950 . S
C282 C281 1.387 . S
C282 C285 1.387 . S
H283 C279 0.950 . S
H284 C281 0.950 . S
C285 C276 1.390 . S
C285 H278 0.950 . S
C285 C282 1.387 . S
C286 C287 1.387 . S
C286 H290 0.950 . S
C286 C295 1.390 . S
C287 C286 1.387 . S
C287 C289 1.387 . S
H288 C295 0.950 . S
C289 C287 1.387 . S
C289 C291 1.390 . S
C289 H293 0.950 . S
H290 C286 0.950 . S
C291 C289 1.390 . S
C291 C292 1.387 . S
C291 H294 0.950 . S
C292 C291 1.387 . S
C292 C295 1.387 . S
H293 C289 0.950 . S
H294 C291 0.950 . S
C295 C286 1.390 . S
C295 H288 0.950 . S
C295 C292 1.387 . S
C296 C297 1.387 . S
C296 H300 0.950 . S
C296 C305 1.390 . S
C297 C296 1.387 . S
C297 C299 1.387 . S
H298 C305 0.950 . S
C299 C297 1.387 . S
C299 C301 1.390 . S
C299 H303 0.950 . S
H300 C296 0.950 . S
C301 C299 1.390 . S
C301 C302 1.387 . S
C301 H304 0.950 . S
C302 C301 1.387 . S
C302 C305 1.387 . S
H303 C299 0.950 . S
H304 C301 0.950 . S
C305 C296 1.390 . S
C305 H298 0.950 . S
C305 C302 1.387 . S
C306 C307 1.387 . S
C306 H310 0.950 1_455 S
C306 C315 1.390 1_554 S
C307 C306 1.387 . S
C307 C309 1.387 . S
H308 C315 0.950 . S
C309 C307 1.387 . S
C309 C311 1.390 . S
C309 H313 0.950 . S
H310 C306 0.950 1_655 S
C311 C309 1.390 . S
C311 C312 1.387 1_554 S
C311 H314 0.950 1_554 S
C312 C311 1.387 1_556 S
C312 C315 1.387 . S
H313 C309 0.950 . S
H314 C311 0.950 1_556 S
C315 C306 1.390 1_556 S
C315 H308 0.950 . S
C315 C312 1.387 . S
C316 C317 1.387 1_565 S
C316 H320 0.950 . S
C316 C325 1.390 . S
C317 C316 1.387 1_545 S
C317 C319 1.387 . S
H318 C325 0.950 . S
C319 C317 1.387 . S
C319 C321 1.390 . S
C319 H323 0.950 . S
H320 C316 0.950 . S
C321 C319 1.390 . S
C321 C322 1.387 . S
C321 H324 0.950 . S
C322 C321 1.387 . S
C322 C325 1.387 1_545 S
H323 C319 0.950 . S
H324 C321 0.950 . S
C325 C316 1.390 . S
C325 H318 0.950 . S
C325 C322 1.387 1_565 S
C326 C327 1.387 . S
C326 H330 0.950 . S
C326 C335 1.390 . S
C327 C326 1.387 . S
C327 C329 1.387 . S
H328 C335 0.950 . S
C329 C327 1.387 . S
C329 C331 1.390 . S
C329 H333 0.950 . S
H330 C326 0.950 . S
C331 C329 1.390 . S
C331 C332 1.387 . S
C331 H334 0.950 . S
C332 C331 1.387 . S
C332 C335 1.387 . S
H333 C329 0.950 . S
H334 C331 0.950 . S
C335 C326 1.390 . S
C335 H328 0.950 . S
C335 C332 1.387 . S
C336 C337 1.387 . S
C336 H340 0.950 . S
C336 C345 1.390 . S
C337 C336 1.387 . S
C337 C339 1.387 1_545 S
H338 C345 0.950 . S
C339 C337 1.387 1_565 S
C339 C341 1.390 . S
C339 H343 0.950 . S
H340 C336 0.950 . S
C341 C339 1.390 . S
C341 C342 1.387 1_565 S
C341 H344 0.950 . S
C342 C341 1.387 1_545 S
C342 C345 1.387 . S
H343 C339 0.950 . S
H344 C341 0.950 . S
C345 C336 1.390 . S
C345 H338 0.950 . S
C345 C342 1.387 . S
C346 C347 1.387 . S
C346 H350 0.950 . S
C346 C355 1.390 . S
C347 C346 1.387 . S
C347 C349 1.387 . S
H348 C355 0.950 . S
C349 C347 1.387 . S
C349 C351 1.390 1_556 S
C349 H353 0.950 . S
H350 C346 0.950 . S
C351 C349 1.390 1_554 S
C351 C352 1.387 . S
C351 H354 0.950 . S
C352 C351 1.387 . S
C352 C355 1.387 1_554 S
H353 C349 0.950 . S
H354 C351 0.950 . S
C355 C346 1.390 . S
C355 H348 0.950 . S
C355 C352 1.387 1_556 S
C356 C357 1.387 1_655 S
C356 H360 0.950 . S
C356 C365 1.390 . S
C357 C356 1.387 1_455 S
C357 C359 1.387 . S
H358 C365 0.950 . S
C359 C357 1.387 . S
C359 C361 1.390 . S
C359 H363 0.950 . S
H360 C356 0.950 . S
C361 C359 1.390 . S
C361 C362 1.387 . S
C361 H364 0.950 . S
C362 C361 1.387 . S
C362 C365 1.387 1_455 S
H363 C359 0.950 . S
H364 C361 0.950 . S
C365 C356 1.390 . S
C365 H358 0.950 . S
C365 C362 1.387 1_655 S
C187 C6 1.127 . S
C192 C185 1.255 . S
C197 C59 1.962 . S
C202 C163 1.909 . S
C207 C86 1.426 . S
C212 C174 1.490 . S
C217 C15 0.700 . S
C222 C179 0.642 . S
C232 C157 1.871 . S
C227 C50 1.913 . S
C242 C168 1.278 . S
C237 C95 1.250 . S
C247 C46 1.375 . S
C252 C141 1.410 . S
C257 C99 3.101 . S
C262 C146 3.063 . S
C267 C10 1.934 . S
C272 C124 1.921 . S
C282 C135 1.287 . S
C277 C55 1.249 . S
C292 C152 3.068 . S
C287 C90 3.104 . S
C297 C19 1.971 . S
C302 C130 1.944 . S
C312 C147 1.761 . S
C307 C18 1.719 . S
C317 C49 1.374 . S
C322 C125 1.449 . S
C327 C98 1.494 . S
C332 C136 1.535 . S
C342 C169 1.497 . S
C337 C58 1.487 . S
C352 C180 1.186 . S
C347 C89 1.189 . S
C357 C9 1.356 . S
C362 C158 1.406 . S
