# Generated by pormake.
# Topology pyr, (3,6)-cn, num edge types: 1
# Building blocks:
#     Node 0, Type 0, BuildingBlock: ESEHIV_clean_linker_0, # of connection points: 3
#     Node 1, Type 0, BuildingBlock: ESEHIV_clean_linker_0, # of connection points: 3
#     Node 2, Type 0, BuildingBlock: ESEHIV_clean_linker_0, # of connection points: 3
#     Node 3, Type 0, BuildingBlock: ESEHIV_clean_linker_0, # of connection points: 3
#     Node 4, Type 0, BuildingBlock: ESEHIV_clean_linker_0, # of connection points: 3
#     Node 5, Type 0, BuildingBlock: ESEHIV_clean_linker_0, # of connection points: 3
#     Node 6, Type 0, BuildingBlock: ESEHIV_clean_linker_0, # of connection points: 3
#     Node 7, Type 0, BuildingBlock: ESEHIV_clean_linker_0, # of connection points: 3
#     Node 8, Type 1, BuildingBlock: PAMTUU_clean_sbu_0, # of connection points: 6
#     Node 9, Type 1, BuildingBlock: PAMTUU_clean_sbu_0, # of connection points: 6
#     Node 10, Type 1, BuildingBlock: PAMTUU_clean_sbu_0, # of connection points: 6
#     Node 11, Type 1, BuildingBlock: PAMTUU_clean_sbu_0, # of connection points: 6
#     Edge 12, Type (0, 1), BuildingBlock: XUDNAN_clean_linker_2, # of connection points: 2
#     Edge 13, Type (0, 1), BuildingBlock: XUDNAN_clean_linker_2, # of connection points: 2
#     Edge 14, Type (0, 1), BuildingBlock: XUDNAN_clean_linker_2, # of connection points: 2
#     Edge 15, Type (0, 1), BuildingBlock: XUDNAN_clean_linker_2, # of connection points: 2
#     Edge 16, Type (0, 1), BuildingBlock: XUDNAN_clean_linker_2, # of connection points: 2
#     Edge 17, Type (0, 1), BuildingBlock: XUDNAN_clean_linker_2, # of connection points: 2
#     Edge 18, Type (0, 1), BuildingBlock: XUDNAN_clean_linker_2, # of connection points: 2
#     Edge 19, Type (0, 1), BuildingBlock: XUDNAN_clean_linker_2, # of connection points: 2
#     Edge 20, Type (0, 1), BuildingBlock: XUDNAN_clean_linker_2, # of connection points: 2
#     Edge 21, Type (0, 1), BuildingBlock: XUDNAN_clean_linker_2, # of connection points: 2
#     Edge 22, Type (0, 1), BuildingBlock: XUDNAN_clean_linker_2, # of connection points: 2
#     Edge 23, Type (0, 1), BuildingBlock: XUDNAN_clean_linker_2, # of connection points: 2
#     Edge 24, Type (0, 1), BuildingBlock: XUDNAN_clean_linker_2, # of connection points: 2
#     Edge 25, Type (0, 1), BuildingBlock: XUDNAN_clean_linker_2, # of connection points: 2
#     Edge 26, Type (0, 1), BuildingBlock: XUDNAN_clean_linker_2, # of connection points: 2
#     Edge 27, Type (0, 1), BuildingBlock: XUDNAN_clean_linker_2, # of connection points: 2
#     Edge 28, Type (0, 1), BuildingBlock: XUDNAN_clean_linker_2, # of connection points: 2
#     Edge 29, Type (0, 1), BuildingBlock: XUDNAN_clean_linker_2, # of connection points: 2
#     Edge 30, Type (0, 1), BuildingBlock: XUDNAN_clean_linker_2, # of connection points: 2
#     Edge 31, Type (0, 1), BuildingBlock: XUDNAN_clean_linker_2, # of connection points: 2
#     Edge 32, Type (0, 1), BuildingBlock: XUDNAN_clean_linker_2, # of connection points: 2
#     Edge 33, Type (0, 1), BuildingBlock: XUDNAN_clean_linker_2, # of connection points: 2
#     Edge 34, Type (0, 1), BuildingBlock: XUDNAN_clean_linker_2, # of connection points: 2
#     Edge 35, Type (0, 1), BuildingBlock: XUDNAN_clean_linker_2, # of connection points: 2
# Relax obj value: 0.128
# Max RMSD: 0.142
# Mean RMSD: 0.057
data_MOF--net-pyr--node1-PAMTUU_clean_sbu_0--node2-ESEHIV_clean_linker_0--edge1-XUDNAN_clean_linker_2
_symmetry_space_group_name_H-M    P1
_symmetry_Int_Tables_number       1
_symmetry_cell_setting            triclinic
loop_
_symmetry_equiv_pos_as_xyz
'x, y, z'
_cell_length_a     35.787642
_cell_length_b     36.905691
_cell_length_c     35.417427
_cell_angle_alpha  90.006343
_cell_angle_beta   89.440292
_cell_angle_gamma 102.11769
loop_
_atom_site_label
_atom_site_type_symbol
_atom_site_fract_x
_atom_site_fract_y
_atom_site_fract_z
_atom_type_partial_charge
H0 H 0.32484 0.33149 0.24587 0.0
H1 H 0.41048 0.26611 0.24231 0.0
H2 H 0.39275 0.3304 0.14546 0.0
C3 C 0.34905 0.32416 0.23147 0.0
C4 C 0.3564 0.33414 0.19343 0.0
C5 C 0.36935 0.30064 0.24973 0.0
C6 C 0.39713 0.28667 0.2293 0.0
C7 C 0.40465 0.29612 0.19112 0.0
C8 C 0.38636 0.32226 0.17459 0.0
H9 H 0.14154 0.81748 0.76448 0.0
H10 H 0.2177 0.74276 0.76859 0.0
H11 H 0.14006 0.73747 0.67601 0.0
C12 C 0.15039 0.79342 0.7529 0.0
C13 C 0.13836 0.78035 0.71681 0.0
C14 C 0.17751 0.77835 0.77253 0.0
C15 C 0.19408 0.75133 0.75493 0.0
C16 C 0.18243 0.73792 0.71883 0.0
C17 C 0.15127 0.74954 0.70248 0.0
H18 H 0.69444 0.34653 0.91675 0.0
H19 H 0.7099 0.44345 0.8467 0.0
H20 H 0.61703 0.35028 0.8251 0.0
C21 C 0.68563 0.36086 0.89289 0.0
C22 C 0.65337 0.34316 0.87221 0.0
C23 C 0.70612 0.39713 0.88459 0.0
C24 C 0.69424 0.41574 0.85328 0.0
C25 C 0.66178 0.39949 0.83123 0.0
C26 C 0.64192 0.36296 0.84115 0.0
H27 H 0.8429 0.72223 0.42713 0.0
H28 H 0.93159 0.74339 0.34206 0.0
H29 H 0.84088 0.64603 0.33481 0.0
C30 C 0.85522 0.71439 0.40113 0.0
C31 C 0.83726 0.6813 0.38305 0.0
C32 C 0.88946 0.7371 0.38719 0.0
C33 C 0.9053 0.72645 0.35303 0.0
C34 C 0.88834 0.69303 0.33397 0.0
C35 C 0.85448 0.67093 0.34958 0.0
H36 H 0.63181 0.80976 0.83422 0.0
H37 H 0.70593 0.73263 0.84228 0.0
H38 H 0.6332 0.74641 0.93607 0.0
C39 C 0.64124 0.78783 0.84942 0.0
C40 C 0.62748 0.77866 0.88618 0.0
C41 C 0.67006 0.77192 0.83365 0.0
C42 C 0.68272 0.74421 0.85368 0.0
C43 C 0.66925 0.7346 0.89038 0.0
C44 C 0.64211 0.75234 0.90698 0.0
H45 H 0.81069 0.29102 0.33915 0.0
H46 H 0.91552 0.25319 0.3526 0.0
H47 H 0.87651 0.31759 0.43942 0.0
C48 C 0.83691 0.29148 0.3543 0.0
C49 C 0.84087 0.30712 0.39053 0.0
C50 C 0.8644 0.27281 0.33957 0.0
C51 C 0.89543 0.26925 0.36252 0.0
C52 C 0.89839 0.28289 0.39969 0.0
C53 C 0.87339 0.3053 0.41153 0.0
H54 H 0.343 0.73585 0.1796 0.0
H55 H 0.32959 0.6352 0.24332 0.0
H56 H 0.42679 0.72491 0.26266 0.0
C57 C 0.35407 0.71916 0.20004 0.0
C58 C 0.38832 0.73484 0.21868 0.0
C59 C 0.33335 0.68273 0.2071 0.0
C60 C 0.3459 0.66269 0.237 0.0
C61 C 0.37941 0.67765 0.25835 0.0
C62 C 0.40037 0.71375 0.24826 0.0
H63 H 0.12135 0.34108 0.7697 0.0
H64 H 0.21107 0.35371 0.6853 0.0
H65 H 0.20412 0.44427 0.7591 0.0
C66 C 0.1464 0.35779 0.75619 0.0
C67 C 0.15986 0.39526 0.76795 0.0
C68 C 0.16543 0.34217 0.72663 0.0
C69 C 0.19751 0.3649 0.70878 0.0
C70 C 0.21183 0.40178 0.71983 0.0
C71 C 0.19294 0.41619 0.74972 0.0
Tb72 Tb 0.06663 0.04712 0.52358 0.0
Tb73 Tb 0.99685 0.03502 0.58578 0.0
C74 C 0.99657 0.977 0.51899 0.0
C75 C 0.14949 0.08873 0.46087 0.0
C76 C 0.20712 0.14556 0.43062 0.0
C77 C 0.18713 0.11723 0.40735 0.0
C78 C 0.15875 0.08906 0.42239 0.0
C79 C 0.1686 0.11738 0.48419 0.0
C80 C 0.19728 0.14554 0.46918 0.0
C81 C 0.12058 0.05772 0.47594 0.0
O82 O 0.03925 0.09344 0.51616 0.0
O83 O 0.98062 0.0632 0.53685 0.0
O84 O 0.0313 0.08989 0.59913 0.0
O85 O 0.08803 0.08363 0.57182 0.0
O86 O 0.93789 1.02912 0.59391 0.0
O87 O 0.97575 1.03218 0.64152 0.0
O88 O 0.03657 1.00308 0.60842 0.0
O89 O 0.07103 0.998 0.55428 0.0
O90 O 0.02149 1.00221 0.49994 0.0
O91 O 0.98704 0.9831 0.55413 0.0
C92 C 1.00258 0.09135 0.5198 0.0
O93 O 0.12421 0.0486 0.51112 0.0
O94 O 0.08513 0.05741 0.46734 0.0
C95 C 0.06842 0.10135 0.59465 0.0
C96 C 0.91345 0.99533 0.64747 0.0
C97 C 0.85879 0.93565 0.67677 0.0
C98 C 0.85005 0.97085 0.67253 0.0
C99 C 0.87719 1.0004 0.65814 0.0
C100 C 0.9224 0.96026 0.65108 0.0
C101 C 0.89525 0.93059 0.66579 0.0
C102 C 0.94035 1.02648 0.63039 0.0
C103 C 0.06019 0.98742 0.58868 0.0
H104 H 0.19323 0.11689 0.37735 0.0
H105 H 0.14411 0.06733 0.40394 0.0
H106 H 0.16171 0.11776 0.51403 0.0
H107 H 0.21217 0.16687 0.48787 0.0
H108 H 0.82201 0.97552 0.67997 0.0
H109 H 0.86969 1.02719 0.65489 0.0
H110 H 0.95022 0.95582 0.64242 0.0
H111 H 0.90295 0.90391 0.66899 0.0
Tb112 Tb 0.56551 0.04603 0.06502 0.0
Tb113 Tb 0.47965 1.03149 1.02979 0.0
C114 C 0.53891 0.98594 1.00112 0.0
C115 C 0.66315 0.08559 0.10472 0.0
C116 C 0.72711 0.13416 0.13512 0.0
C117 C 0.73193 0.10669 0.10909 0.0
C118 C 0.70021 0.08253 0.09419 0.0
C119 C 0.65817 0.11476 0.12843 0.0
C120 C 0.6899 0.13881 0.14354 0.0
C121 C 0.63079 0.05573 0.09415 0.0
O122 O 0.5718 0.08541 1.01694 0.0
O123 O 0.50842 0.086 1.00752 0.0
O124 O 0.4809 0.06011 0.0833 0.0
O125 O 0.54194 0.09301 0.08254 0.0
O126 O 0.44216 1.03262 0.98486 0.0
O127 O 0.42079 1.02034 1.04162 0.0
O128 O 0.48082 0.9798 0.05994 0.0
O129 O 0.52765 1.00488 0.10168 0.0
O130 O 0.56033 0.9965 1.03066 0.0
O131 O 0.51012 1.00112 0.99227 0.0
C132 C 0.54503 0.10038 1.00152 0.0
O133 O 0.59907 0.05298 0.11352 0.0
O134 O 0.6247 0.04992 0.05817 0.0
C135 C 0.50596 0.09017 0.09145 0.0
C136 C 0.38303 0.99124 0.99216 0.0
C137 C 0.32737 0.93324 0.96256 0.0
C138 C 0.31843 0.96775 0.97073 0.0
C139 C 0.3461 0.99652 0.9854 0.0
C140 C 0.39199 0.95666 0.985 0.0
C141 C 0.36433 0.92784 0.97022 0.0
C142 C 0.41195 1.02222 1.00622 0.0
C143 C 0.49923 0.97755 0.09157 0.0
H144 H 0.76022 0.10279 0.10155 0.0
H145 H 0.70467 0.06032 0.07579 0.0
H146 H 0.62983 0.1179 0.13683 0.0
H147 H 0.68513 0.15947 0.16372 0.0
H148 H 0.29043 0.97294 0.9646 0.0
H149 H 0.33883 1.02311 0.99088 0.0
H150 H 0.42043 0.95216 0.99038 0.0
H151 H 0.37193 0.90145 0.96447 0.0
Tb152 Tb 0.51632 0.49867 0.52681 0.0
Tb153 Tb 0.52385 0.58016 0.56319 0.0
C154 C 0.4845 0.5628 0.48309 0.0
C155 C 0.54408 0.41651 0.48853 0.0
C156 C 0.60661 0.38296 0.47521 0.0
C157 C 0.57819 0.38133 0.44776 0.0
C158 C 0.54705 0.39796 0.45444 0.0
C159 C 0.57228 0.41786 0.51606 0.0
C160 C 0.60314 0.4011 0.50953 0.0
C161 C 0.51407 0.43776 0.49374 0.0
O162 O 0.57309 0.52943 0.50871 0.0
O163 O 0.58023 0.58698 0.53642 0.0
O164 O 0.54977 0.5488 0.60548 0.0
O165 O 0.54948 0.49245 0.57765 0.0
O166 O 0.53168 0.63829 0.56188 0.0
O167 O 0.51699 0.60794 0.61368 0.0
O168 O 0.46372 0.55185 0.56991 0.0
O169 O 0.46819 0.49122 0.56657 0.0
O170 O 0.48069 0.52716 0.49113 0.0
O171 O 0.50428 0.58806 0.50548 0.0
C172 C 0.59313 0.56323 0.51473 0.0
O173 O 0.50217 0.4405 0.52828 0.0
O174 O 0.52048 0.46959 0.47646 0.0
C175 C 0.55766 0.5153 0.60643 0.0
C176 C 0.48385 0.65418 0.60085 0.0
C177 C 0.41171 0.67075 0.61517 0.0
C178 C 0.44137 0.68044 0.64146 0.0
C179 C 0.4772 0.67216 0.63434 0.0
C180 C 0.4545 0.64516 0.57428 0.0
C181 C 0.41886 0.65345 0.58131 0.0
C182 C 0.51855 0.63924 0.59625 0.0
C183 C 0.4496 0.51665 0.57707 0.0
H184 H 0.58015 0.36735 0.42115 0.0
H185 H 0.5258 0.39711 0.4327 0.0
H186 H 0.57102 0.43267 0.54228 0.0
H187 H 0.62493 0.40335 0.53093 0.0
H188 H 0.43675 0.69411 0.66764 0.0
H189 H 0.49927 0.67865 0.65547 0.0
H190 H 0.45861 0.63036 0.54867 0.0
H191 H 0.39648 0.64511 0.56077 0.0
Tb192 Tb 1.01705 0.58057 1.02057 0.0
Tb193 Tb 1.01659 0.50858 0.07199 0.0
C194 C 0.05404 0.51691 0.98798 0.0
C195 C 0.97098 0.64598 0.97302 0.0
C196 C 0.8954 0.65478 0.9616 0.0
C197 C 0.91554 0.64089 0.93263 0.0
C198 C 0.95299 0.63673 0.93821 0.0
C199 C 0.95147 0.66165 1.00134 0.0
C200 C 0.9141 0.66608 0.99562 0.0
C201 C 1.00733 0.6345 0.98119 0.0
O202 O 0.96839 0.53801 1.00125 0.0
O203 O 0.95676 0.50382 0.05523 0.0
O204 O 0.99763 0.54694 0.11246 0.0
O205 O 0.98213 0.58813 0.07006 0.0
O206 O 1.00361 0.45043 0.076 0.0
O207 O 0.02826 0.48399 0.12281 0.0
O208 O 0.07511 0.54085 0.079 0.0
O209 O 0.07104 0.59645 0.05148 0.0
O210 O 0.05649 0.55291 0.99037 0.0
O211 O 0.03604 0.49469 1.01469 0.0
C212 C 0.9455 0.51315 1.02197 0.0
O213 O 1.01895 0.63775 1.01605 0.0
O214 O 1.01054 0.60271 0.96699 0.0
C215 C 0.98309 0.57613 0.10499 0.0
C216 C 0.05271 0.43161 0.10975 0.0
C217 C 0.12095 0.40557 0.11559 0.0
C218 C 0.09612 0.40397 0.14688 0.0
C219 C 0.06222 0.41691 0.14395 0.0
C220 C 0.07699 0.43234 0.07823 0.0
C221 C 0.11068 0.41929 0.08108 0.0
C222 C 1.0208 0.45091 0.10833 0.0
C223 C 0.08951 0.57609 0.07196 0.0
H224 H 0.90211 0.63268 0.9058 0.0
H225 H 0.96731 0.62477 0.91581 0.0
H226 H 0.9644 0.6691 1.02854 0.0
H227 H 0.89929 0.6769 1.01843 0.0
H228 H 0.10315 0.39317 0.17373 0.0
H229 H 0.0441 0.41661 0.16868 0.0
H230 H 0.07069 0.44426 0.05171 0.0
H231 H 0.12942 0.42133 0.05662 0.0
H232 H 0.35579 0.22805 0.27146 0.0
H233 H 0.34943 0.33766 0.3115 0.0
H234 H 0.314 0.30972 0.36826 0.0
H235 H 0.26617 0.18607 0.29367 0.0
H236 H 0.27586 0.14226 0.3085 0.0
H237 H 0.30742 0.17068 0.27544 0.0
H238 H 0.36503 0.17095 0.31924 0.0
H239 H 0.33375 0.14181 0.35232 0.0
H240 H 0.36273 0.18516 0.36776 0.0
H241 H 0.26968 0.26937 0.41404 0.0
H242 H 0.22255 0.22025 0.44613 0.0
H243 H 0.26065 0.13734 0.37738 0.0
C244 C 0.34865 0.24636 0.29299 0.0
C245 C 0.35573 0.28507 0.28726 0.0
C246 C 0.34437 0.30792 0.31543 0.0
C247 C 0.32439 0.29231 0.3478 0.0
C248 C 0.31648 0.25387 0.35179 0.0
C249 C 0.32886 0.23125 0.3254 0.0
C250 C 0.31321 0.19072 0.33393 0.0
C251 C 0.28925 0.17134 0.30093 0.0
C252 C 0.34562 0.171 0.34392 0.0
C253 C 0.28851 0.19407 0.36807 0.0
C254 C 0.29116 0.23063 0.37836 0.0
C255 C 0.26813 0.24059 0.40687 0.0
C256 C 0.24146 0.21249 0.42499 0.0
C257 C 0.23788 0.17491 0.41431 0.0
C258 C 0.26247 0.16578 0.38608 0.0
H259 H 0.25256 0.80093 0.79165 0.0
H260 H 0.13733 0.79565 0.83377 0.0
H261 H 0.16357 0.82919 0.89143 0.0
H262 H 0.29727 0.79123 0.88425 0.0
H263 H 0.34055 0.82343 0.87085 0.0
H264 H 0.31261 0.79501 0.83551 0.0
H265 H 0.3084 0.85393 0.79733 0.0
H266 H 0.33615 0.88247 0.83249 0.0
H267 H 0.28979 0.8903 0.81994 0.0
H268 H 0.20244 0.86849 0.94113 0.0
H269 H 0.25064 0.91143 0.9783 0.0
H270 H 0.33994 0.8905 0.90283 0.0
C271 C 0.23282 0.80571 0.81354 0.0
C272 C 0.19292 0.79523 0.8086 0.0
C273 C 0.16802 0.80335 0.83721 0.0
C274 C 0.18266 0.82215 0.87006 0.0
C275 C 0.22221 0.83247 0.87381 0.0
C276 C 0.24692 0.8244 0.84635 0.0
C277 C 0.28808 0.84123 0.85548 0.0
C278 C 0.31097 0.81091 0.86191 0.0
C279 C 0.30667 0.86861 0.82448 0.0
C280 C 0.28268 0.86102 0.89184 0.0
C281 C 0.24455 0.85527 0.90225 0.0
C282 C 0.23242 0.87279 0.93352 0.0
C283 C 0.25993 0.89726 0.95431 0.0
C284 C 0.29902 0.9041 0.94354 0.0
C285 C 0.31042 0.88516 0.9123 0.0
H286 H 0.62782 0.37684 0.76014 0.0
H287 H 0.66196 0.47424 0.8306 0.0
H288 H 0.64104 0.51246 0.78163 0.0
H289 H 0.65594 0.42318 0.66996 0.0
H290 H 0.61573 0.39757 0.64422 0.0
H291 H 0.63345 0.37688 0.68458 0.0
H292 H 0.56624 0.36504 0.71543 0.0
H293 H 0.54831 0.3856 0.67511 0.0
H294 H 0.54255 0.4032 0.7218 0.0
H295 H 0.61567 0.54157 0.7251 0.0
H296 H 0.58801 0.5588 0.66611 0.0
H297 H 0.5689 0.44437 0.62889 0.0
C298 C 0.63085 0.40618 0.76544 0.0
C299 C 0.64754 0.42205 0.79992 0.0
C300 C 0.65056 0.46084 0.80476 0.0
C301 C 0.63833 0.48305 0.77692 0.0
C302 C 0.62263 0.46675 0.74349 0.0
C303 C 0.61875 0.42915 0.73749 0.0
C304 C 0.6007 0.41903 0.69866 0.0
C305 C 0.62809 0.40322 0.67283 0.0
C306 C 0.56216 0.39158 0.70302 0.0
C307 C 0.5951 0.45669 0.68397 0.0
C308 C 0.60797 0.4837 0.71056 0.0
C309 C 0.60561 0.52052 0.70416 0.0
C310 C 0.58969 0.53011 0.67019 0.0
C311 C 0.57602 0.50337 0.64195 0.0
C312 C 0.57912 0.46592 0.64929 0.0
H313 H 0.89974 0.62303 0.31131 0.0
H314 H 0.91479 0.73665 0.27244 0.0
H315 H 0.93919 0.71874 0.21121 0.0
H316 H 0.98647 0.60518 0.26575 0.0
H317 H 0.96549 0.55778 0.25407 0.0
H318 H 0.94857 0.57908 0.2948 0.0
H319 H 0.87976 0.56294 0.26896 0.0
H320 H 0.89649 0.54171 0.22809 0.0
H321 H 0.87045 0.57814 0.22227 0.0
H322 H 0.95884 0.68796 0.1522 0.0
H323 H 0.97849 0.64887 0.10269 0.0
H324 H 0.95624 0.55468 0.17908 0.0
C325 C 0.90818 0.64419 0.28993 0.0
C326 C 0.90506 0.68156 0.29721 0.0
C327 C 0.91698 0.7081 0.26821 0.0
C328 C 0.93074 0.69805 0.23304 0.0
C329 C 0.93323 0.6612 0.2268 0.0
C330 C 0.92283 0.6347 0.25463 0.0
C331 C 0.92958 0.59724 0.24072 0.0
C332 C 0.95929 0.58404 0.2653 0.0
C333 C 0.89182 0.56829 0.23997 0.0
C334 C 0.94509 0.60671 0.20067 0.0
C335 C 0.9464 0.64376 0.19326 0.0
C336 C 0.95821 0.65904 0.15799 0.0
C337 C 0.96923 0.63633 0.12977 0.0
C338 C 0.96926 0.59835 0.13639 0.0
C339 C 0.95697 0.58351 0.17276 0.0
H340 H 0.46703 0.26468 0.20686 0.0
H341 H 0.38321 0.27144 0.12044 0.0
H342 H 0.40599 0.22469 0.08335 0.0
H343 H 0.54303 0.24366 0.14058 0.0
H344 H 0.55652 0.21144 0.17338 0.0
H345 H 0.53886 0.2507 0.19069 0.0
H346 H 0.48663 0.20642 0.22934 0.0
H347 H 0.50372 0.16704 0.21182 0.0
H348 H 0.45442 0.16959 0.20548 0.0
H349 H 0.42794 0.17064 0.06089 0.0
H350 H 0.45378 0.11467 0.05065 0.0
H351 H 0.52549 0.14093 0.14912 0.0
C352 C 0.45419 0.25702 0.17969 0.0
C353 C 0.42375 0.2726 0.16648 0.0
C354 C 0.40741 0.26126 0.1309 0.0
C355 C 0.4199 0.23427 0.10959 0.0
C356 C 0.44889 0.2187 0.12395 0.0
C357 C 0.46637 0.22985 0.15783 0.0
C358 C 0.49475 0.20605 0.16789 0.0
C359 C 0.53573 0.22936 0.16814 0.0
C360 C 0.48423 0.1861 0.20588 0.0
C361 C 0.48901 0.17891 0.13519 0.0
C362 C 0.46248 0.18705 0.1102 0.0
C363 C 0.44942 0.1644 0.07966 0.0
C364 C 0.46398 0.13255 0.07429 0.0
C365 C 0.49158 0.12385 0.09904 0.0
C366 C 0.50473 0.14748 0.12963 0.0
H367 H 0.08889 0.82801 0.7335 0.0
H368 H 0.15023 0.78855 0.64048 0.0
H369 H 0.13127 0.83314 0.5986 0.0
H370 H 1.01138 0.85375 0.67492 0.0
H371 H 1.01136 0.89517 0.70188 0.0
H372 H 0.02319 0.85524 0.72434 0.0
H373 H 0.08733 0.89577 0.74633 0.0
H374 H 0.07599 0.93566 0.72354 0.0
H375 H 0.11983 0.92134 0.71179 0.0
H376 H 0.11559 0.88613 0.56836 0.0
H377 H 0.09841 0.94372 0.54885 0.0
H378 H 0.04794 0.95393 0.65966 0.0
C379 C 0.09773 0.82817 0.70419 0.0
C380 C 0.12056 0.80362 0.69069 0.0
C381 C 0.13153 0.80539 0.65193 0.0
C382 C 0.1213 0.83121 0.62762 0.0
C383 C 0.10025 0.85561 0.64215 0.0
C384 C 0.08811 0.85435 0.6793 0.0
C385 C 0.06844 0.88628 0.68778 0.0
C386 C 0.02607 0.87173 0.69782 0.0
C387 C 0.08915 0.91123 0.71922 0.0
C388 C 0.07295 0.90619 0.6499 0.0
C389 C 0.09115 0.88752 0.62417 0.0
C390 C 0.10073 0.90078 0.58796 0.0
C391 C 0.09102 0.93388 0.57731 0.0
C392 C 0.07173 0.95363 0.60269 0.0
C393 C 0.06254 0.93949 0.63959 0.0
H394 H 0.77735 0.44511 0.86798 0.0
H395 H 0.70794 0.39202 0.96188 0.0
H396 H 0.76026 0.4156 1.0054 0.0
H397 H 0.86766 0.43042 0.89997 0.0
H398 H 0.89497 0.47522 0.8859 0.0
H399 H 0.85191 0.45488 0.86115 0.0
H400 H 0.82475 0.51327 0.87453 0.0
H401 H 0.86765 0.53388 0.89947 0.0
H402 H 0.82172 0.52878 0.92251 0.0
H403 H 0.82141 0.44148 1.03951 0.0
H404 H 0.88532 0.47193 0.06201 0.0
H405 H 0.91635 0.51288 0.94868 0.0
C406 C 0.77294 0.43874 0.89772 0.0
C407 C 0.73817 0.41548 0.91081 0.0
C408 C 0.73422 0.40838 0.9503 0.0
C409 C 0.76389 0.42203 0.9756 0.0
C410 C 0.79787 0.44373 0.96175 0.0
C411 C 0.80249 0.45266 0.92384 0.0
C412 C 0.84218 0.47706 0.91693 0.0
C413 C 0.86556 0.45826 0.88934 0.0
C414 C 0.83888 0.51553 0.90249 0.0
C415 C 0.85919 0.47958 0.95659 0.0
C416 C 0.83294 0.46005 0.98191 0.0
C417 C 0.84203 0.45713 1.01992 0.0
C418 C 0.87867 0.47454 1.0325 0.0
C419 C 0.90634 0.49516 1.00748 0.0
C420 C 0.89605 0.4977 0.96886 0.0
H421 H 0.77715 0.7024 0.42305 0.0
H422 H 0.81519 0.60477 0.38293 0.0
H423 H 0.75813 0.56512 0.41191 0.0
H424 H 0.74122 0.66372 0.51353 0.0
H425 H 0.70109 0.68618 0.51443 0.0
H426 H 0.74428 0.70728 0.48942 0.0
H427 H 0.70558 0.70938 0.42842 0.0
H428 H 0.66227 0.68837 0.45325 0.0
H429 H 0.67592 0.66728 0.41081 0.0
H430 H 0.69637 0.53528 0.44588 0.0
H431 H 0.63557 0.51804 0.48125 0.0
H432 H 0.63777 0.63431 0.50249 0.0
C433 C 0.77388 0.67269 0.42046 0.0
C434 C 0.80136 0.65716 0.40012 0.0
C435 C 0.79481 0.61792 0.39738 0.0
C436 C 0.76242 0.59495 0.41418 0.0
C437 C 0.73634 0.61122 0.43409 0.0
C438 C 0.7417 0.64923 0.43734 0.0
C439 C 0.70937 0.6596 0.4606 0.0
C440 C 0.72493 0.68043 0.49663 0.0
C441 C 0.68696 0.68252 0.43685 0.0
C442 C 0.685 0.62151 0.46999 0.0
C443 C 0.70111 0.59402 0.45426 0.0
C444 C 0.68367 0.55667 0.45834 0.0
C445 C 0.64892 0.54712 0.47862 0.0
C446 C 0.63147 0.5746 0.49512 0.0
C447 C 0.65024 0.61241 0.49077 0.0
H448 H 0.31355 0.3847 0.21652 0.0
H449 H 0.33202 0.31577 0.12143 0.0
H450 H 0.27742 0.3315 0.08919 0.0
H451 H 0.21548 0.3548 0.21871 0.0
H452 H 0.20431 0.39866 0.23138 0.0
H453 H 0.24943 0.38848 0.24461 0.0
H454 H 0.28555 0.44791 0.21056 0.0
H455 H 0.24048 0.45864 0.19768 0.0
H456 H 0.27557 0.45536 0.1617 0.0
H457 H 0.2162 0.34711 0.0705 0.0
H458 H 0.15356 0.36464 0.0656 0.0
H459 H 0.17236 0.42126 0.17338 0.0
C460 C 0.30668 0.37353 0.18858 0.0
C461 C 0.32782 0.34941 0.17152 0.0
C462 C 0.31745 0.33528 0.13491 0.0
C463 C 0.28604 0.34372 0.11635 0.0
C464 C 0.26502 0.36624 0.13464 0.0
C465 C 0.27501 0.38128 0.16978 0.0
C466 C 0.24545 0.40184 0.18462 0.0
C467 C 0.22762 0.38492 0.22204 0.0
C468 C 0.2628 0.44341 0.18888 0.0
C469 C 0.21679 0.39487 0.15288 0.0
C470 C 0.2289 0.37468 0.12414 0.0
C471 C 0.20664 0.36347 0.09251 0.0
C472 C 0.17113 0.37352 0.08999 0.0
C473 C 0.15815 0.39434 0.11905 0.0
C474 C 0.18139 0.40509 0.15086 0.0
H475 H 0.6794 0.28444 0.90726 0.0
H476 H 0.57514 0.31482 0.86897 0.0
H477 H 0.53774 0.25632 0.89525 0.0
H478 H 0.65017 0.18494 0.89176 0.0
H479 H 0.6728 0.17284 0.93382 0.0
H480 H 0.69185 0.21597 0.9099 0.0
H481 H 0.68636 0.25181 0.97176 0.0
H482 H 0.66727 0.20882 0.99585 0.0
H483 H 0.6409 0.2454 0.99597 0.0
H484 H 0.51055 0.19496 0.92898 0.0
H485 H 0.49625 0.13682 0.96534 0.0
H486 H 0.61742 0.14559 0.98465 0.0
C487 C 0.64869 0.27919 0.90432 0.0
C488 C 0.63073 0.30528 0.8855 0.0
C489 C 0.59029 0.29584 0.88225 0.0
C490 C 0.56856 0.26252 0.89757 0.0
C491 C 0.58717 0.23816 0.91644 0.0
C492 C 0.62641 0.24604 0.91978 0.0
C493 C 0.63932 0.21552 0.94233 0.0
C494 C 0.66506 0.19617 0.91799 0.0
C495 C 0.65967 0.23134 0.97863 0.0
C496 C 0.60122 0.18928 0.95139 0.0
C497 C 0.57156 0.20295 0.93603 0.0
C498 C 0.53371 0.18411 0.94089 0.0
C499 C 0.52586 0.15078 0.9618 0.0
C500 C 0.55547 0.13576 0.97817 0.0
C501 C 0.59386 0.15568 0.97257 0.0
H502 H 0.92347 0.81101 0.36567 0.0
H503 H 0.90033 0.73817 0.46319 0.0
H504 H 0.92514 0.79058 0.5049 0.0
H505 H 1.01337 0.86873 0.40337 0.0
H506 H 1.00481 0.91144 0.38414 0.0
H507 H 0.98619 0.86813 0.3607 0.0
H508 H 0.91819 0.88153 0.36422 0.0
H509 H 0.93656 0.92476 0.38786 0.0
H510 H 0.89861 0.89098 0.40938 0.0
H511 H 0.94812 0.85035 0.53749 0.0
H512 H 0.9728 0.91381 0.55924 0.0
H513 H 0.98609 0.95204 0.44291 0.0
C514 C 0.92413 0.80604 0.39575 0.0
C515 C 0.90905 0.76994 0.41085 0.0
C516 C 0.91064 0.76519 0.45057 0.0
C517 C 0.92495 0.79496 0.4747 0.0
C518 C 0.93841 0.83003 0.45924 0.0
C519 C 0.93875 0.8359 0.4207 0.0
C520 C 0.95507 0.87701 0.41224 0.0
C521 C 0.99206 0.8816 0.3887 0.0
C522 C 0.92533 0.89461 0.39223 0.0
C523 C 0.96324 0.89309 0.452 0.0
C524 C 0.95311 0.86513 0.47844 0.0
C525 C 0.95639 0.87239 0.517 0.0
C526 C 0.97036 0.90891 0.52912 0.0
C527 C 0.98154 0.93861 0.50313 0.0
C528 C 0.9781 0.93027 0.46374 0.0
H529 H 0.23195 0.69275 0.74121 0.0
H530 H 0.19312 0.74304 0.64169 0.0
H531 H 0.24257 0.724 0.60396 0.0
H532 H 0.32702 0.72797 0.72377 0.0
H533 H 0.34463 0.68855 0.7403 0.0
H534 H 0.30051 0.69745 0.75896 0.0
H535 H 0.26485 0.63168 0.73946 0.0
H536 H 0.30907 0.62228 0.72125 0.0
H537 H 0.26788 0.61679 0.69125 0.0
H538 H 0.30173 0.70978 0.57827 0.0
H539 H 0.36599 0.69795 0.56613 0.0
H540 H 0.37054 0.66028 0.68182 0.0
C541 C 0.23318 0.69926 0.7114 0.0
C542 C 0.20763 0.71925 0.69496 0.0
C543 C 0.21081 0.72677 0.65551 0.0
C544 C 0.2394 0.71639 0.63351 0.0
C545 C 0.2651 0.69866 0.65106 0.0
C546 C 0.26223 0.68981 0.68901 0.0
C547 C 0.29632 0.67456 0.70161 0.0
C548 C 0.31841 0.69858 0.73301 0.0
C549 C 0.28377 0.63391 0.71412 0.0
C550 C 0.31936 0.67783 0.66514 0.0
C551 C 0.3004 0.69119 0.63624 0.0
C552 C 0.3166 0.69856 0.60043 0.0
C553 C 0.35311 0.69179 0.59381 0.0
C554 C 0.37318 0.67803 0.62293 0.0
C555 C 0.35594 0.67094 0.65904 0.0
H556 H 0.6976 0.84534 0.82341 0.0
H557 H 0.69595 0.73842 0.77193 0.0
H558 H 0.74251 0.76893 0.72336 0.0
H559 H 0.70874 0.90111 0.73644 0.0
H560 H 0.74022 0.9393 0.75907 0.0
H561 H 0.70356 0.90919 0.78623 0.0
H562 H 0.75501 0.89638 0.8325 0.0
H563 H 0.79189 0.92592 0.80524 0.0
H564 H 0.79486 0.87858 0.81441 0.0
H565 H 0.79328 0.81157 0.68356 0.0
H566 H 0.84204 0.86222 0.65533 0.0
H567 H 0.81068 0.93938 0.73614 0.0
C568 C 0.70585 0.82842 0.80111 0.0
C569 C 0.69261 0.78965 0.80086 0.0
C570 C 0.70549 0.76828 0.77223 0.0
C571 C 0.73188 0.78535 0.74464 0.0
C572 C 0.74506 0.82368 0.74635 0.0
C573 C 0.73222 0.84488 0.77381 0.0
C574 C 0.75269 0.88498 0.77165 0.0
C575 C 0.72463 0.91012 0.7628 0.0
C576 C 0.77493 0.89715 0.8081 0.0
C577 C 0.77937 0.88317 0.73882 0.0
C578 C 0.77457 0.84773 0.72436 0.0
C579 C 0.79706 0.83946 0.69452 0.0
C580 C 0.82488 0.86831 0.6789 0.0
C581 C 0.82998 0.90482 0.69335 0.0
C582 C 0.80696 0.91201 0.72385 0.0
H583 H 0.8261 0.28994 0.27661 0.0
H584 H 0.88334 0.20608 0.32077 0.0
H585 H 0.86499 0.16833 0.26488 0.0
H586 H 0.74585 0.22684 0.25172 0.0
H587 H 0.73535 0.2506 0.20994 0.0
H588 H 0.76153 0.27643 0.24774 0.0
H589 H 0.81666 0.30358 0.20123 0.0
H590 H 0.79053 0.27776 0.16314 0.0
H591 H 0.83844 0.27269 0.1732 0.0
H592 H 0.83266 0.13458 0.21073 0.0
H593 H 0.78455 0.10542 0.16498 0.0
H594 H 0.74272 0.20741 0.15744 0.0
C595 C 0.83545 0.26397 0.27439 0.0
C596 C 0.85711 0.25187 0.30328 0.0
C597 C 0.86831 0.21736 0.29884 0.0
C598 C 0.8577 0.19527 0.26706 0.0
C599 C 0.83537 0.20752 0.23995 0.0
C600 C 0.82409 0.24095 0.24333 0.0
C601 C 0.79497 0.24477 0.21357 0.0
C602 C 0.7572 0.24994 0.23184 0.0
C603 C 0.81113 0.27659 0.18615 0.0
C604 C 0.79035 0.20748 0.19421 0.0
C605 C 0.81484 0.18698 0.20916 0.0
C606 C 0.8139 0.15061 0.19817 0.0
C607 C 0.78651 0.13432 0.17195 0.0
C608 C 0.76004 0.15422 0.15728 0.0
C609 C 0.76272 0.1916 0.16795 0.0
H610 H 0.41961 0.70072 0.32615 0.0
H611 H 0.37215 0.60141 0.26241 0.0
H612 H 0.39194 0.5633 0.31211 0.0
H613 H 0.50304 0.66796 0.36004 0.0
H614 H 0.50286 0.68908 0.40591 0.0
H615 H 0.48428 0.70933 0.36578 0.0
H616 H 0.42012 0.70561 0.40125 0.0
H617 H 0.43847 0.68523 0.44144 0.0
H618 H 0.39478 0.66166 0.41967 0.0
H619 H 0.41671 0.53432 0.36954 0.0
H620 H 0.44589 0.51772 0.42805 0.0
H621 H 0.48056 0.63432 0.45625 0.0
C622 C 0.41345 0.67098 0.32234 0.0
C623 C 0.39323 0.6547 0.28964 0.0
C624 C 0.38621 0.61535 0.28689 0.0
C625 C 0.39779 0.59313 0.31516 0.0
C626 C 0.41704 0.60997 0.34681 0.0
C627 C 0.42507 0.64806 0.35056 0.0
C628 C 0.4467 0.65886 0.38749 0.0
C629 C 0.48659 0.68273 0.37931 0.0
C630 C 0.42365 0.67904 0.41403 0.0
C631 C 0.44953 0.62099 0.40378 0.0
C632 C 0.43202 0.59323 0.37972 0.0
C633 C 0.43052 0.55599 0.38841 0.0
C634 C 0.44729 0.54675 0.42209 0.0
C635 C 0.4659 0.57433 0.44757 0.0
C636 C 0.46678 0.61219 0.43786 0.0
H637 H 0.13195 0.37415 0.84244 0.0
H638 H 0.14123 0.46239 0.75966 0.0
H639 H 0.11608 0.50068 0.80614 0.0
H640 H 0.04184 0.39033 0.88716 0.0
H641 H 0.05541 0.38061 0.93437 0.0
H642 H 0.07309 0.35856 0.89453 0.0
H643 H 0.14236 0.38374 0.91635 0.0
H644 H 0.12489 0.40611 0.95606 0.0
H645 H 0.15879 0.43286 0.92346 0.0
H646 H 0.09452 0.53227 0.86162 0.0
H647 H 0.07173 0.5535 0.92141 0.0
H648 H 0.07125 0.44616 0.97201 0.0
C649 C 0.12805 0.40127 0.83394 0.0
C650 C 0.13923 0.41505 0.79682 0.0
C651 C 0.13366 0.45099 0.78755 0.0
C652 C 0.11924 0.47314 0.81395 0.0
C653 C 0.10969 0.45943 0.85022 0.0
C654 C 0.11322 0.42416 0.86037 0.0
C655 C 0.10051 0.41697 0.90181 0.0
C656 C 0.06564 0.38469 0.90463 0.0
C657 C 0.13361 0.40946 0.92584 0.0
C658 C 0.08984 0.45376 0.91314 0.0
C659 C 0.09575 0.47768 0.88264 0.0
C660 C 0.08948 0.5136 0.88556 0.0
C661 C 0.07659 0.52554 0.92011 0.0
C662 C 0.06936 0.50192 0.95221 0.0
C663 C 0.07614 0.46518 0.94834 0.0
H664 H 0.6405 0.81917 0.95082 0.0
H665 H 0.56024 0.79127 0.85923 0.0
H666 H 0.52633 0.83959 0.88072 0.0
H667 H 0.57173 0.84427 1.02177 0.0
H668 H 0.60761 0.88171 1.04005 0.0
H669 H 0.62131 0.84105 1.02102 0.0
H670 H 0.66857 0.88278 0.97522 0.0
H671 H 0.65442 0.92344 0.99341 0.0
H672 H 0.65098 0.91351 0.94359 0.0
H673 H 0.50602 0.89553 0.90766 0.0
H674 H 0.4981 0.95244 0.94062 0.0
H675 H 0.59295 0.94456 1.01363 0.0
C676 C 0.61483 0.82225 0.93632 0.0
C677 C 0.60245 0.8012 0.90382 0.0
C678 C 0.56971 0.80691 0.88452 0.0
C679 C 0.55041 0.83431 0.89645 0.0
C680 C 0.56428 0.85571 0.9277 0.0
C681 C 0.59545 0.84969 0.94769 0.0
C682 C 0.60652 0.87845 0.97832 0.0
C683 C 0.60147 0.86028 1.01762 0.0
C684 C 0.64755 0.90086 0.97224 0.0
C685 C 0.57738 0.90211 0.9718 0.0
C686 C 0.55307 0.88839 0.94271 0.0
C687 C 0.52463 0.90631 0.93078 0.0
C688 C 0.52054 0.93879 0.94951 0.0
C689 C 0.54494 0.95314 0.97968 0.0
C690 C 0.57379 0.93446 0.99069 0.0
H691 H 0.96624 0.25751 0.39198 0.0
H692 H 0.87582 0.26543 0.47276 0.0
H693 H 0.89886 0.22344 0.51498 0.0
H694 H 0.95596 0.16467 0.39885 0.0
H695 H 1.00571 0.16235 0.39567 0.0
H696 H 0.9896 0.20073 0.37485 0.0
H697 H 0.0385 0.24715 0.41397 0.0
H698 H 0.05549 0.20892 0.43436 0.0
H699 H 0.03941 0.24202 0.46455 0.0
H700 H 0.91985 0.17054 0.54165 0.0
H701 H 0.94574 0.11543 0.55625 0.0
H702 H 0.02338 0.13935 0.46029 0.0
C703 C 0.95194 0.25134 0.41899 0.0
C704 C 0.91921 0.26548 0.42862 0.0
C705 C 0.90153 0.25637 0.4645 0.0
C706 C 0.91417 0.23195 0.48888 0.0
C707 C 0.94468 0.21673 0.47739 0.0
C708 C 0.96404 0.22655 0.44376 0.0
C709 C 0.99336 0.2029 0.43665 0.0
C710 C 0.98567 0.1814 0.3993 0.0
C711 C 0.03411 0.22667 0.43744 0.0
C712 C 0.9857 0.17706 0.47044 0.0
C713 C 0.95763 0.18584 0.49362 0.0
C714 C 0.94261 0.16392 0.52439 0.0
C715 C 0.95709 0.13243 0.53214 0.0
C716 C 0.98648 0.12336 0.50939 0.0
C717 C 1.00119 0.14609 0.47833 0.0
H718 H 0.26359 0.63088 0.22239 0.0
H719 H 0.32721 0.69567 0.13123 0.0
H720 H 0.27299 0.67628 0.08918 0.0
H721 H 0.21937 0.55311 0.15971 0.0
H722 H 0.17453 0.54352 0.18519 0.0
H723 H 0.2182 0.56271 0.20956 0.0
H724 H 0.18894 0.61718 0.23292 0.0
H725 H 0.14527 0.59825 0.20848 0.0
H726 H 0.17032 0.6451 0.19902 0.0
H727 H 0.21007 0.65469 0.05709 0.0
H728 H 0.14557 0.62515 1.03506 0.0
H729 H 0.12244 0.56713 0.14195 0.0
C730 C 0.26637 0.64077 0.19354 0.0
C731 C 0.30003 0.66638 0.18124 0.0
C732 C 0.30177 0.67775 0.1427 0.0
C733 C 0.27098 0.66649 0.11808 0.0
C734 C 0.23813 0.64257 0.13134 0.0
C735 C 0.23576 0.62901 0.16786 0.0
C736 C 0.19707 0.60243 0.17393 0.0
C737 C 0.20263 0.5631 0.18262 0.0
C738 C 0.17404 0.61659 0.20547 0.0
C739 C 0.17816 0.6039 0.13547 0.0
C740 C 0.20244 0.62767 0.11158 0.0
C741 C 0.19107 0.63555 0.07538 0.0
C742 C 0.15418 0.61869 0.06307 0.0
C743 C 0.12879 0.59337 0.08631 0.0
C744 C 0.14128 0.58581 0.1231 0.0
H745 H 0.27623 0.38111 0.68794 0.0
H746 H 0.22486 0.47679 0.70389 0.0
H747 H 0.27918 0.51569 0.66998 0.0
H748 H 0.37446 0.42866 0.69791 0.0
H749 H 0.39229 0.40228 0.66164 0.0
H750 H 0.34977 0.38188 0.688 0.0
H751 H 0.31237 0.36784 0.62568 0.0
H752 H 0.35477 0.38823 0.59912 0.0
H753 H 0.31142 0.40501 0.59292 0.0
H754 H 0.33975 0.54495 0.63354 0.0
H755 H 0.4007 0.56157 0.59817 0.0
H756 H 0.41247 0.44696 0.60323 0.0
C757 C 0.27605 0.41017 0.68417 0.0
C758 C 0.24573 0.42553 0.69928 0.0
C759 C 0.24761 0.46402 0.69369 0.0
C760 C 0.27839 0.48647 0.67401 0.0
C761 C 0.30749 0.47038 0.65955 0.0
C762 C 0.30656 0.43306 0.66432 0.0
C763 C 0.3414 0.42263 0.64565 0.0
C764 C 0.36593 0.408 0.67506 0.0
C765 C 0.32926 0.39424 0.61396 0.0
C766 C 0.3621 0.45989 0.62969 0.0
C767 C 0.34202 0.48707 0.6381 0.0
C768 C 0.35555 0.52376 0.62677 0.0
C769 C 0.39038 0.53296 0.60654 0.0
C770 C 0.41174 0.50571 0.59746 0.0
C771 C 0.39701 0.46858 0.60929 0.0
H772 H 0.72316 0.75708 0.94291 0.0
H773 H 0.66364 0.66045 0.88272 0.0
H774 H 0.71147 0.6254 0.90389 0.0
H775 H 0.81012 0.75113 0.91429 0.0
H776 H 0.83583 0.76638 0.95689 0.0
H777 H 0.79191 0.78063 0.9472 0.0
H778 H 0.76307 0.75343 1.01104 0.0
H779 H 0.80738 0.73979 1.02152 0.0
H780 H 0.76307 0.70587 1.02265 0.0
H781 H 0.77181 0.60576 0.91957 0.0
H782 H 0.83862 0.60161 0.93159 0.0
H783 H 0.86056 0.71202 0.97975 0.0
C784 C 0.7191 0.72787 0.93628 0.0
C785 C 0.68926 0.71084 0.91241 0.0
C786 C 0.68574 0.67333 0.90207 0.0
C787 C 0.71287 0.65338 0.91382 0.0
C788 C 0.74328 0.67151 0.93575 0.0
C789 C 0.74627 0.70781 0.94739 0.0
C790 C 0.7845 0.72272 0.96571 0.0
C791 C 0.80688 0.75723 0.94475 0.0
C792 C 0.77918 0.73093 1.00773 0.0
C793 C 0.80332 0.68993 0.96071 0.0
C794 C 0.77883 0.66043 0.94402 0.0
C795 C 0.79095 0.62837 0.93339 0.0
C796 C 0.82905 0.62643 0.93991 0.0
C797 C 0.85471 0.65649 0.95661 0.0
C798 C 0.84138 0.68836 0.96761 0.0
H799 H 0.39298 0.76831 0.14705 0.0
H800 H 0.43553 0.78962 0.26112 0.0
H801 H 0.46946 0.85215 0.24108 0.0
H802 H 0.4755 0.81927 0.09696 0.0
H803 H 0.44786 0.83682 0.06173 0.0
H804 H 0.42888 0.79308 0.08447 0.0
H805 H 0.36867 0.81675 0.10503 0.0
H806 H 0.38744 0.86054 0.08231 0.0
H807 H 0.37404 0.85919 0.13156 0.0
H808 H 0.49894 0.91449 0.20762 0.0
H809 H 0.5186 0.969 0.16579 0.0
H810 H 0.45281 0.90876 0.07487 0.0
C811 C 0.40888 0.78595 0.16834 0.0
C812 C 0.41082 0.77305 0.20622 0.0
C813 C 0.43343 0.79773 0.23199 0.0
C814 C 0.45275 0.83374 0.22083 0.0
C815 C 0.44942 0.84547 0.18363 0.0
C816 C 0.42784 0.82219 0.15784 0.0
C817 C 0.42783 0.84162 0.11978 0.0
C818 C 0.4461 0.82149 0.08892 0.0
C819 C 0.38707 0.8447 0.10905 0.0
C820 C 0.45263 0.87964 0.12803 0.0
C821 C 0.46516 0.88122 0.16494 0.0
C822 C 0.48902 0.91333 0.17879 0.0
C823 C 0.50014 0.94435 0.15465 0.0
C824 C 0.48729 0.9438 0.11678 0.0
C825 C 0.46309 0.91063 0.1036 0.0
H826 H 0.09394 0.29995 0.70317 0.0
H827 H 0.2124 0.29352 0.71897 0.0
H828 H 0.20039 0.23251 0.68805 0.0
H829 H 0.05427 0.19902 0.71914 0.0
H830 H 1.0179 0.19659 0.68383 0.0
H831 H 0.03488 0.23924 0.70901 0.0
H832 H 0.05152 0.27366 0.64548 0.0
H833 H 0.03497 0.23106 0.62015 0.0
H834 H 0.08284 0.2574 0.61234 0.0
H835 H 0.17788 0.17454 0.64965 0.0
H836 H 0.14427 0.12037 0.61346 0.0
H837 H 0.03867 0.1597 0.62451 0.0
C838 C 0.11706 0.28526 0.70097 0.0
C839 C 0.15435 0.3021 0.71373 0.0
C840 C 0.18373 0.28175 0.70949 0.0
C841 C 0.1772 0.2469 0.69179 0.0
C842 C 0.14078 0.2317 0.67844 0.0
C843 C 0.11091 0.24979 0.68337 0.0
C844 C 0.0746 0.22683 0.66587 0.0
C845 C 0.04357 0.2147 0.69628 0.0
C846 C 0.06013 0.24855 0.63408 0.0
C847 C 0.08894 0.19352 0.65012 0.0
C848 C 0.12736 0.19721 0.65747 0.0
C849 C 0.14763 0.17115 0.64427 0.0
C850 C 0.12826 0.14037 0.62349 0.0
C851 C 0.08861 0.13508 0.61622 0.0
C852 C 0.06884 0.16234 0.62992 0.0
H853 H 0.79057 0.34788 0.36233 0.0
H854 H 0.81474 0.28807 0.46175 0.0
H855 H 0.75774 0.30091 0.49337 0.0
H856 H 0.75315 0.41897 0.41245 0.0
H857 H 0.71632 0.42013 0.3784 0.0
H858 H 0.76034 0.40779 0.36372 0.0
H859 H 0.72199 0.34623 0.33613 0.0
H860 H 0.67787 0.35823 0.35105 0.0
H861 H 0.689 0.31509 0.36614 0.0
H862 H 0.69784 0.31789 0.51402 0.0
H863 H 0.63853 0.34088 0.5235 0.0
H864 H 0.65137 0.38917 0.41111 0.0
C865 C 0.78397 0.3378 0.39084 0.0
C866 C 0.80771 0.31769 0.40978 0.0
C867 C 0.79786 0.3046 0.447 0.0
C868 C 0.76522 0.31135 0.46514 0.0
C869 C 0.74241 0.33101 0.4457 0.0
C870 C 0.75126 0.34424 0.40949 0.0
C871 C 0.72128 0.3642 0.39506 0.0
C872 C 0.73883 0.40521 0.38695 0.0
C873 C 0.70136 0.34476 0.36002 0.0
C874 C 0.69432 0.35991 0.42883 0.0
C875 C 0.70715 0.3406 0.45764 0.0
C876 C 0.68747 0.33319 0.49178 0.0
C877 C 0.65392 0.3464 0.49693 0.0
C878 C 0.64048 0.36681 0.46809 0.0
C879 C 0.66077 0.37326 0.43345 0.0
loop_
_geom_bond_atom_site_label_1
_geom_bond_atom_site_label_2
_geom_bond_distance
_geom_bond_site_symmetry_2
_ccdc_geom_bond_type
H0 C3 0.931 . S
H1 C6 0.928 . S
H2 C8 0.930 . S
C3 H0 0.931 . S
C3 C4 1.413 . S
C3 C5 1.360 . S
C4 C3 1.413 . S
C4 C8 1.429 . S
C5 C3 1.360 . S
C5 C6 1.372 . S
C6 H1 0.928 . S
C6 C5 1.372 . S
C6 C7 1.404 . S
C7 C6 1.404 . S
C7 C8 1.391 . S
C8 H2 0.930 . S
C8 C4 1.429 . S
C8 C7 1.391 . S
H9 C12 0.931 . S
H10 C15 0.928 . S
H11 C17 0.930 . S
C12 H9 0.931 . S
C12 C13 1.413 . S
C12 C14 1.360 . S
C13 C12 1.413 . S
C13 C17 1.429 . S
C14 C12 1.360 . S
C14 C15 1.372 . S
C15 H10 0.928 . S
C15 C14 1.372 . S
C15 C16 1.404 . S
C16 C15 1.404 . S
C16 C17 1.391 . S
C17 H11 0.930 . S
C17 C13 1.429 . S
C17 C16 1.391 . S
H18 C21 0.931 . S
H19 C24 0.928 . S
H20 C26 0.930 . S
C21 H18 0.931 . S
C21 C22 1.413 . S
C21 C23 1.360 . S
C22 C21 1.413 . S
C22 C26 1.429 . S
C23 C21 1.360 . S
C23 C24 1.372 . S
C24 H19 0.928 . S
C24 C23 1.372 . S
C24 C25 1.404 . S
C25 C24 1.404 . S
C25 C26 1.391 . S
C26 H20 0.930 . S
C26 C22 1.429 . S
C26 C25 1.391 . S
H27 C30 0.931 . S
H28 C33 0.928 . S
H29 C35 0.930 . S
C30 H27 0.931 . S
C30 C31 1.413 . S
C30 C32 1.360 . S
C31 C30 1.413 . S
C31 C35 1.429 . S
C32 C30 1.360 . S
C32 C33 1.372 . S
C33 H28 0.928 . S
C33 C32 1.372 . S
C33 C34 1.404 . S
C34 C33 1.404 . S
C34 C35 1.391 . S
C35 H29 0.930 . S
C35 C31 1.429 . S
C35 C34 1.391 . S
H36 C39 0.931 . S
H37 C42 0.928 . S
H38 C44 0.930 . S
C39 H36 0.931 . S
C39 C40 1.413 . S
C39 C41 1.360 . S
C40 C39 1.413 . S
C40 C44 1.429 . S
C41 C39 1.360 . S
C41 C42 1.372 . S
C42 H37 0.928 . S
C42 C41 1.372 . S
C42 C43 1.404 . S
C43 C42 1.404 . S
C43 C44 1.391 . S
C44 H38 0.930 . S
C44 C40 1.429 . S
C44 C43 1.391 . S
H45 C48 0.931 . S
H46 C51 0.928 . S
H47 C53 0.930 . S
C48 H45 0.931 . S
C48 C49 1.413 . S
C48 C50 1.360 . S
C49 C48 1.413 . S
C49 C53 1.429 . S
C50 C48 1.360 . S
C50 C51 1.372 . S
C51 H46 0.928 . S
C51 C50 1.372 . S
C51 C52 1.404 . S
C52 C51 1.404 . S
C52 C53 1.391 . S
C53 H47 0.930 . S
C53 C49 1.429 . S
C53 C52 1.391 . S
H54 C57 0.931 . S
H55 C60 0.928 . S
H56 C62 0.930 . S
C57 H54 0.931 . S
C57 C58 1.413 . S
C57 C59 1.360 . S
C58 C57 1.413 . S
C58 C62 1.429 . S
C59 C57 1.360 . S
C59 C60 1.372 . S
C60 H55 0.928 . S
C60 C59 1.372 . S
C60 C61 1.404 . S
C61 C60 1.404 . S
C61 C62 1.391 . S
C62 H56 0.930 . S
C62 C58 1.429 . S
C62 C61 1.391 . S
H63 C66 0.931 . S
H64 C69 0.928 . S
H65 C71 0.930 . S
C66 H63 0.931 . S
C66 C67 1.413 . S
C66 C68 1.360 . S
C67 C66 1.413 . S
C67 C71 1.429 . S
C68 C66 1.360 . S
C68 C69 1.372 . S
C69 H64 0.928 . S
C69 C68 1.372 . S
C69 C70 1.404 . S
C70 C69 1.404 . S
C70 C71 1.391 . S
C71 H65 0.930 . S
C71 C67 1.429 . S
C71 C70 1.391 . S
Tb72 C81 2.764 . S
Tb72 O82 2.301 1_455 S
Tb72 O85 2.303 . S
Tb72 O89 2.322 1_545 S
Tb72 O90 2.349 1_545 S
Tb72 O93 2.415 . S
Tb72 O94 2.399 . S
Tb73 O83 2.343 . S
Tb73 O84 2.374 . S
Tb73 O86 2.389 1_545 S
Tb73 O87 2.397 1_545 S
Tb73 O88 2.307 1_645 S
Tb73 O91 2.283 1_545 S
Tb73 C102 2.748 1_545 S
C74 O90 1.261 1_655 S
C74 O91 1.257 . S
C75 C78 1.358 . S
C75 C79 1.332 . S
C75 C81 1.504 . S
C76 C77 1.373 . S
C76 C80 1.308 . S
C77 C76 1.373 . S
C77 C78 1.429 . S
C77 H104 0.932 . S
C78 C75 1.358 . S
C78 C77 1.429 . S
C78 H105 0.930 . S
C79 C75 1.332 . S
C79 C80 1.394 . S
C79 H106 0.932 . S
C80 C76 1.308 . S
C80 C79 1.394 . S
C80 H107 0.929 . S
C81 Tb72 2.764 . S
C81 C75 1.504 . S
C81 O93 1.239 . S
C81 O94 1.263 . S
O82 Tb72 2.301 1_655 S
O82 C92 1.261 . S
O83 Tb73 2.343 . S
O83 C92 1.257 . S
O84 Tb73 2.374 . S
O84 C95 1.261 1_655 S
O85 Tb72 2.303 . S
O85 C95 1.257 . S
O86 Tb73 2.389 1_565 S
O86 C102 1.239 . S
O87 Tb73 2.397 1_565 S
O87 C102 1.263 . S
O88 Tb73 2.307 1_465 S
O88 C103 1.236 . S
O89 Tb72 2.322 1_565 S
O89 C103 1.257 . S
O90 Tb72 2.349 1_565 S
O90 C74 1.261 1_455 S
O91 Tb73 2.283 1_565 S
O91 C74 1.257 . S
C92 O82 1.261 . S
C92 O83 1.257 . S
O93 Tb72 2.415 . S
O93 C81 1.239 . S
O94 Tb72 2.399 . S
O94 C81 1.263 . S
C95 O84 1.261 1_455 S
C95 O85 1.257 . S
C96 C99 1.358 . S
C96 C100 1.332 . S
C96 C102 1.504 . S
C97 C98 1.373 . S
C97 C101 1.308 . S
C98 C97 1.373 . S
C98 C99 1.429 . S
C98 H108 0.932 . S
C99 C96 1.358 . S
C99 C98 1.429 . S
C99 H109 0.930 . S
C100 C96 1.332 . S
C100 C101 1.394 . S
C100 H110 0.932 . S
C101 C97 1.308 . S
C101 C100 1.394 . S
C101 H111 0.929 . S
C102 Tb73 2.748 1_565 S
C102 O86 1.239 . S
C102 O87 1.263 . S
C102 C96 1.504 . S
C103 O88 1.236 . S
C103 O89 1.257 . S
H104 C77 0.932 . S
H105 C78 0.930 . S
H106 C79 0.932 . S
H107 C80 0.929 . S
H108 C98 0.932 . S
H109 C99 0.930 . S
H110 C100 0.932 . S
H111 C101 0.929 . S
Tb112 C121 2.764 . S
Tb112 O122 2.325 1_554 S
Tb112 O125 2.303 . S
Tb112 O129 2.322 1_545 S
Tb112 O130 2.349 1_544 S
Tb112 O133 2.415 . S
Tb112 O134 2.399 . S
Tb113 O123 2.322 1_565 S
Tb113 O124 2.349 1_566 S
Tb113 O126 2.415 . S
Tb113 O127 2.399 . S
Tb113 O128 2.325 1_556 S
Tb113 O131 2.303 . S
Tb113 C142 2.764 . S
C114 O130 1.261 . S
C114 O131 1.257 . S
C115 C118 1.358 . S
C115 C119 1.332 . S
C115 C121 1.504 . S
C116 C117 1.373 . S
C116 C120 1.308 . S
C117 C116 1.373 . S
C117 C118 1.429 . S
C117 H144 0.932 . S
C118 C115 1.358 . S
C118 C117 1.429 . S
C118 H145 0.930 . S
C119 C115 1.332 . S
C119 C120 1.394 . S
C119 H146 0.932 . S
C120 C116 1.308 . S
C120 C119 1.394 . S
C120 H147 0.929 . S
C121 Tb112 2.764 . S
C121 C115 1.504 . S
C121 O133 1.239 . S
C121 O134 1.263 . S
O122 Tb112 2.325 1_556 S
O122 C132 1.236 . S
O123 Tb113 2.322 1_545 S
O123 C132 1.257 . S
O124 Tb113 2.349 1_544 S
O124 C135 1.261 . S
O125 Tb112 2.303 . S
O125 C135 1.257 . S
O126 Tb113 2.415 . S
O126 C142 1.239 . S
O127 Tb113 2.399 . S
O127 C142 1.263 . S
O128 Tb113 2.325 1_554 S
O128 C143 1.236 . S
O129 Tb112 2.322 1_565 S
O129 C143 1.257 . S
O130 Tb112 2.349 1_566 S
O130 C114 1.261 . S
O131 Tb113 2.303 . S
O131 C114 1.257 . S
C132 O122 1.236 . S
C132 O123 1.257 . S
O133 Tb112 2.415 . S
O133 C121 1.239 . S
O134 Tb112 2.399 . S
O134 C121 1.263 . S
C135 O124 1.261 . S
C135 O125 1.257 . S
C136 C139 1.358 . S
C136 C140 1.332 . S
C136 C142 1.504 . S
C137 C138 1.373 . S
C137 C141 1.308 . S
C138 C137 1.373 . S
C138 C139 1.429 . S
C138 H148 0.932 . S
C139 C136 1.358 . S
C139 C138 1.429 . S
C139 H149 0.930 . S
C140 C136 1.332 . S
C140 C141 1.394 . S
C140 H150 0.932 . S
C141 C137 1.308 . S
C141 C140 1.394 . S
C141 H151 0.929 . S
C142 Tb113 2.764 . S
C142 O126 1.239 . S
C142 O127 1.263 . S
C142 C136 1.504 . S
C143 O128 1.236 . S
C143 O129 1.257 . S
H144 C117 0.932 . S
H145 C118 0.930 . S
H146 C119 0.932 . S
H147 C120 0.929 . S
H148 C138 0.932 . S
H149 C139 0.930 . S
H150 C140 0.932 . S
H151 C141 0.929 . S
Tb152 C161 2.764 . S
Tb152 O162 2.325 . S
Tb152 O165 2.303 . S
Tb152 O169 2.322 . S
Tb152 O170 2.349 . S
Tb152 O173 2.415 . S
Tb152 O174 2.399 . S
Tb153 O163 2.322 . S
Tb153 O164 2.349 . S
Tb153 O166 2.415 . S
Tb153 O167 2.399 . S
Tb153 O168 2.325 . S
Tb153 O171 2.303 . S
Tb153 C182 2.764 . S
C154 O170 1.261 . S
C154 O171 1.257 . S
C155 C158 1.358 . S
C155 C159 1.332 . S
C155 C161 1.504 . S
C156 C157 1.373 . S
C156 C160 1.308 . S
C157 C156 1.373 . S
C157 C158 1.429 . S
C157 H184 0.932 . S
C158 C155 1.358 . S
C158 C157 1.429 . S
C158 H185 0.930 . S
C159 C155 1.332 . S
C159 C160 1.394 . S
C159 H186 0.932 . S
C160 C156 1.308 . S
C160 C159 1.394 . S
C160 H187 0.929 . S
C161 Tb152 2.764 . S
C161 C155 1.504 . S
C161 O173 1.239 . S
C161 O174 1.263 . S
O162 Tb152 2.325 . S
O162 C172 1.236 . S
O163 Tb153 2.322 . S
O163 C172 1.257 . S
O164 Tb153 2.349 . S
O164 C175 1.261 . S
O165 Tb152 2.303 . S
O165 C175 1.257 . S
O166 Tb153 2.415 . S
O166 C182 1.239 . S
O167 Tb153 2.399 . S
O167 C182 1.263 . S
O168 Tb153 2.325 . S
O168 C183 1.236 . S
O169 Tb152 2.322 . S
O169 C183 1.257 . S
O170 Tb152 2.349 . S
O170 C154 1.261 . S
O171 Tb153 2.303 . S
O171 C154 1.257 . S
C172 O162 1.236 . S
C172 O163 1.257 . S
O173 Tb152 2.415 . S
O173 C161 1.239 . S
O174 Tb152 2.399 . S
O174 C161 1.263 . S
C175 O164 1.261 . S
C175 O165 1.257 . S
C176 C179 1.358 . S
C176 C180 1.332 . S
C176 C182 1.504 . S
C177 C178 1.373 . S
C177 C181 1.308 . S
C178 C177 1.373 . S
C178 C179 1.429 . S
C178 H188 0.932 . S
C179 C176 1.358 . S
C179 C178 1.429 . S
C179 H189 0.930 . S
C180 C176 1.332 . S
C180 C181 1.394 . S
C180 H190 0.932 . S
C181 C177 1.308 . S
C181 C180 1.394 . S
C181 H191 0.929 . S
C182 Tb153 2.764 . S
C182 O166 1.239 . S
C182 O167 1.263 . S
C182 C176 1.504 . S
C183 O168 1.236 . S
C183 O169 1.257 . S
H184 C157 0.932 . S
H185 C158 0.930 . S
H186 C159 0.932 . S
H187 C160 0.929 . S
H188 C178 0.932 . S
H189 C179 0.930 . S
H190 C180 0.932 . S
H191 C181 0.929 . S
Tb192 C201 2.764 . S
Tb192 O202 2.325 . S
Tb192 O205 2.303 1_556 S
Tb192 O209 2.319 1_656 S
Tb192 O210 2.349 1_655 S
Tb192 O213 2.415 . S
Tb192 O214 2.399 . S
Tb193 O203 2.322 1_455 S
Tb193 O204 2.349 1_455 S
Tb193 O206 2.415 . S
Tb193 O207 2.399 . S
Tb193 O208 2.325 . S
Tb193 O211 2.303 1_554 S
Tb193 C222 2.764 . S
C194 O210 1.261 . S
C194 O211 1.257 . S
C195 C198 1.358 . S
C195 C199 1.332 . S
C195 C201 1.504 . S
C196 C197 1.373 . S
C196 C200 1.308 . S
C197 C196 1.373 . S
C197 C198 1.429 . S
C197 H224 0.932 . S
C198 C195 1.358 . S
C198 C197 1.429 . S
C198 H225 0.930 . S
C199 C195 1.332 . S
C199 C200 1.394 . S
C199 H226 0.932 . S
C200 C196 1.308 . S
C200 C199 1.394 . S
C200 H227 0.929 . S
C201 Tb192 2.764 . S
C201 C195 1.504 . S
C201 O213 1.239 . S
C201 O214 1.263 . S
O202 Tb192 2.325 . S
O202 C212 1.236 . S
O203 Tb193 2.322 1_655 S
O203 C212 1.257 1_554 S
O204 Tb193 2.349 1_655 S
O204 C215 1.261 . S
O205 Tb192 2.303 1_554 S
O205 C215 1.257 . S
O206 Tb193 2.415 . S
O206 C222 1.239 . S
O207 Tb193 2.399 . S
O207 C222 1.263 . S
O208 Tb193 2.325 . S
O208 C223 1.236 . S
O209 Tb192 2.319 1_454 S
O209 C223 1.263 . S
O210 Tb192 2.349 1_455 S
O210 C194 1.261 . S
O211 Tb193 2.303 1_556 S
O211 C194 1.257 . S
C212 O202 1.236 . S
C212 O203 1.257 1_556 S
O213 Tb192 2.415 . S
O213 C201 1.239 . S
O214 Tb192 2.399 . S
O214 C201 1.263 . S
C215 O204 1.261 . S
C215 O205 1.257 . S
C216 C219 1.358 . S
C216 C220 1.332 . S
C216 C222 1.504 . S
C217 C218 1.373 . S
C217 C221 1.308 . S
C218 C217 1.373 . S
C218 C219 1.429 . S
C218 H228 0.932 . S
C219 C216 1.358 . S
C219 C218 1.429 . S
C219 H229 0.930 . S
C220 C216 1.332 . S
C220 C221 1.394 . S
C220 H230 0.932 . S
C221 C217 1.308 . S
C221 C220 1.394 . S
C221 H231 0.929 . S
C222 Tb193 2.764 . S
C222 O206 1.239 . S
C222 O207 1.263 . S
C222 C216 1.504 . S
C223 O208 1.236 . S
C223 O209 1.263 . S
H224 C197 0.932 . S
H225 C198 0.930 . S
H226 C199 0.932 . S
H227 C200 0.929 . S
H228 C218 0.932 . S
H229 C219 0.930 . S
H230 C220 0.932 . S
H231 C221 0.929 . S
H232 C244 0.930 . S
H233 C246 0.930 . S
H234 C247 0.930 . S
H235 C251 0.959 . S
H236 C251 0.959 . S
H237 C251 0.961 . S
H238 C252 0.960 . S
H239 C252 0.961 . S
H240 C252 0.959 . S
H241 C255 0.929 . S
H242 C256 0.931 . S
H243 C258 0.930 . S
C244 H232 0.930 . S
C244 C245 1.399 . S
C244 C249 1.399 . S
C245 C244 1.399 . S
C245 C246 1.376 . S
C246 H233 0.930 . S
C246 C245 1.376 . S
C246 C247 1.388 . S
C247 H234 0.930 . S
C247 C246 1.388 . S
C247 C248 1.390 . S
C248 C247 1.390 . S
C248 C249 1.394 . S
C248 C254 1.465 . S
C249 C244 1.399 . S
C249 C248 1.394 . S
C249 C250 1.516 . S
C250 C249 1.516 . S
C250 C251 1.502 . S
C250 C252 1.561 . S
C250 C253 1.526 . S
C251 H235 0.959 . S
C251 H236 0.959 . S
C251 H237 0.961 . S
C251 C250 1.502 . S
C252 H238 0.960 . S
C252 H239 0.961 . S
C252 H240 0.959 . S
C252 C250 1.561 . S
C253 C250 1.526 . S
C253 C254 1.396 . S
C253 C258 1.390 . S
C254 C248 1.465 . S
C254 C253 1.396 . S
C254 C255 1.399 . S
C255 H241 0.929 . S
C255 C254 1.399 . S
C255 C256 1.385 . S
C256 H242 0.931 . S
C256 C255 1.385 . S
C256 C257 1.389 . S
C257 C256 1.389 . S
C257 C258 1.387 . S
C258 H243 0.930 . S
C258 C253 1.390 . S
C258 C257 1.387 . S
H259 C271 0.930 . S
H260 C273 0.930 . S
H261 C274 0.930 . S
H262 C278 0.959 . S
H263 C278 0.959 . S
H264 C278 0.961 . S
H265 C279 0.960 . S
H266 C279 0.961 . S
H267 C279 0.959 . S
H268 C282 0.929 . S
H269 C283 0.931 . S
H270 C285 0.930 . S
C271 H259 0.930 . S
C271 C272 1.399 . S
C271 C276 1.399 . S
C272 C271 1.399 . S
C272 C273 1.376 . S
C273 H260 0.930 . S
C273 C272 1.376 . S
C273 C274 1.388 . S
C274 H261 0.930 . S
C274 C273 1.388 . S
C274 C275 1.390 . S
C275 C274 1.390 . S
C275 C276 1.394 . S
C275 C281 1.465 . S
C276 C271 1.399 . S
C276 C275 1.394 . S
C276 C277 1.516 . S
C277 C276 1.516 . S
C277 C278 1.502 . S
C277 C279 1.561 . S
C277 C280 1.526 . S
C278 H262 0.959 . S
C278 H263 0.959 . S
C278 H264 0.961 . S
C278 C277 1.502 . S
C279 H265 0.960 . S
C279 H266 0.961 . S
C279 H267 0.959 . S
C279 C277 1.561 . S
C280 C277 1.526 . S
C280 C281 1.396 . S
C280 C285 1.390 . S
C281 C275 1.465 . S
C281 C280 1.396 . S
C281 C282 1.399 . S
C282 H268 0.929 . S
C282 C281 1.399 . S
C282 C283 1.385 . S
C283 H269 0.931 . S
C283 C282 1.385 . S
C283 C284 1.389 . S
C284 C283 1.389 . S
C284 C285 1.387 . S
C285 H270 0.930 . S
C285 C280 1.390 . S
C285 C284 1.387 . S
H286 C298 0.930 . S
H287 C300 0.930 . S
H288 C301 0.930 . S
H289 C305 0.959 . S
H290 C305 0.959 . S
H291 C305 0.961 . S
H292 C306 0.960 . S
H293 C306 0.961 . S
H294 C306 0.959 . S
H295 C309 0.929 . S
H296 C310 0.931 . S
H297 C312 0.930 . S
C298 H286 0.930 . S
C298 C299 1.399 . S
C298 C303 1.399 . S
C299 C298 1.399 . S
C299 C300 1.376 . S
C300 H287 0.930 . S
C300 C299 1.376 . S
C300 C301 1.388 . S
C301 H288 0.930 . S
C301 C300 1.388 . S
C301 C302 1.390 . S
C302 C301 1.390 . S
C302 C303 1.394 . S
C302 C308 1.465 . S
C303 C298 1.399 . S
C303 C302 1.394 . S
C303 C304 1.516 . S
C304 C303 1.516 . S
C304 C305 1.502 . S
C304 C306 1.561 . S
C304 C307 1.526 . S
C305 H289 0.959 . S
C305 H290 0.959 . S
C305 H291 0.961 . S
C305 C304 1.502 . S
C306 H292 0.960 . S
C306 H293 0.961 . S
C306 H294 0.959 . S
C306 C304 1.561 . S
C307 C304 1.526 . S
C307 C308 1.396 . S
C307 C312 1.390 . S
C308 C302 1.465 . S
C308 C307 1.396 . S
C308 C309 1.399 . S
C309 H295 0.929 . S
C309 C308 1.399 . S
C309 C310 1.385 . S
C310 H296 0.931 . S
C310 C309 1.385 . S
C310 C311 1.389 . S
C311 C310 1.389 . S
C311 C312 1.387 . S
C312 H297 0.930 . S
C312 C307 1.390 . S
C312 C311 1.387 . S
H313 C325 0.930 . S
H314 C327 0.930 . S
H315 C328 0.930 . S
H316 C332 0.959 . S
H317 C332 0.959 . S
H318 C332 0.961 . S
H319 C333 0.960 . S
H320 C333 0.961 . S
H321 C333 0.959 . S
H322 C336 0.929 . S
H323 C337 0.931 1_455 S
H324 C339 0.930 . S
C325 H313 0.930 . S
C325 C326 1.399 . S
C325 C330 1.399 . S
C326 C325 1.399 . S
C326 C327 1.376 . S
C327 H314 0.930 . S
C327 C326 1.376 . S
C327 C328 1.388 . S
C328 H315 0.930 . S
C328 C327 1.388 . S
C328 C329 1.390 . S
C329 C328 1.390 . S
C329 C330 1.394 . S
C329 C335 1.465 . S
C330 C325 1.399 . S
C330 C329 1.394 . S
C330 C331 1.516 . S
C331 C330 1.516 . S
C331 C332 1.502 . S
C331 C333 1.561 . S
C331 C334 1.526 . S
C332 H316 0.959 . S
C332 H317 0.959 . S
C332 H318 0.961 . S
C332 C331 1.502 . S
C333 H319 0.960 . S
C333 H320 0.961 . S
C333 H321 0.959 . S
C333 C331 1.561 . S
C334 C331 1.526 . S
C334 C335 1.396 . S
C334 C339 1.390 . S
C335 C329 1.465 . S
C335 C334 1.396 . S
C335 C336 1.399 . S
C336 H322 0.929 . S
C336 C335 1.399 . S
C336 C337 1.385 . S
C337 H323 0.931 1_655 S
C337 C336 1.385 . S
C337 C338 1.389 . S
C338 C337 1.389 . S
C338 C339 1.387 . S
C339 H324 0.930 . S
C339 C334 1.390 . S
C339 C338 1.387 . S
H340 C352 0.930 . S
H341 C354 0.930 . S
H342 C355 0.930 . S
H343 C359 0.959 . S
H344 C359 0.959 . S
H345 C359 0.961 . S
H346 C360 0.960 . S
H347 C360 0.961 . S
H348 C360 0.959 . S
H349 C363 0.929 . S
H350 C364 0.931 . S
H351 C366 0.930 . S
C352 H340 0.930 . S
C352 C353 1.399 . S
C352 C357 1.399 . S
C353 C352 1.399 . S
C353 C354 1.376 . S
C354 H341 0.930 . S
C354 C353 1.376 . S
C354 C355 1.388 . S
C355 H342 0.930 . S
C355 C354 1.388 . S
C355 C356 1.390 . S
C356 C355 1.390 . S
C356 C357 1.394 . S
C356 C362 1.465 . S
C357 C352 1.399 . S
C357 C356 1.394 . S
C357 C358 1.516 . S
C358 C357 1.516 . S
C358 C359 1.502 . S
C358 C360 1.561 . S
C358 C361 1.526 . S
C359 H343 0.959 . S
C359 H344 0.959 . S
C359 H345 0.961 . S
C359 C358 1.502 . S
C360 H346 0.960 . S
C360 H347 0.961 . S
C360 H348 0.959 . S
C360 C358 1.561 . S
C361 C358 1.526 . S
C361 C362 1.396 . S
C361 C366 1.390 . S
C362 C356 1.465 . S
C362 C361 1.396 . S
C362 C363 1.399 . S
C363 H349 0.929 . S
C363 C362 1.399 . S
C363 C364 1.385 . S
C364 H350 0.931 . S
C364 C363 1.385 . S
C364 C365 1.389 . S
C365 C364 1.389 . S
C365 C366 1.387 . S
C366 H351 0.930 . S
C366 C361 1.390 . S
C366 C365 1.387 . S
H367 C379 0.930 . S
H368 C381 0.930 . S
H369 C382 0.930 . S
H370 C386 0.959 1_655 S
H371 C386 0.959 1_655 S
H372 C386 0.961 1_655 S
H373 C387 0.960 . S
H374 C387 0.961 . S
H375 C387 0.959 . S
H376 C390 0.929 . S
H377 C391 0.931 . S
H378 C393 0.930 . S
C379 H367 0.930 . S
C379 C380 1.399 . S
C379 C384 1.399 . S
C380 C379 1.399 . S
C380 C381 1.376 . S
C381 H368 0.930 . S
C381 C380 1.376 . S
C381 C382 1.388 . S
C382 H369 0.930 . S
C382 C381 1.388 . S
C382 C383 1.390 . S
C383 C382 1.390 . S
C383 C384 1.394 . S
C383 C389 1.465 . S
C384 C379 1.399 . S
C384 C383 1.394 . S
C384 C385 1.516 . S
C385 C384 1.516 . S
C385 C386 1.502 . S
C385 C387 1.561 . S
C385 C388 1.526 . S
C386 H370 0.959 1_455 S
C386 H371 0.959 1_455 S
C386 H372 0.961 1_455 S
C386 C385 1.502 . S
C387 H373 0.960 . S
C387 H374 0.961 . S
C387 H375 0.959 . S
C387 C385 1.561 . S
C388 C385 1.526 . S
C388 C389 1.396 . S
C388 C393 1.390 . S
C389 C383 1.465 . S
C389 C388 1.396 . S
C389 C390 1.399 . S
C390 H376 0.929 . S
C390 C389 1.399 . S
C390 C391 1.385 . S
C391 H377 0.931 . S
C391 C390 1.385 . S
C391 C392 1.389 . S
C392 C391 1.389 . S
C392 C393 1.387 . S
C393 H378 0.930 . S
C393 C388 1.390 . S
C393 C392 1.387 . S
H394 C406 0.930 . S
H395 C408 0.930 . S
H396 C409 0.930 . S
H397 C413 0.959 . S
H398 C413 0.959 . S
H399 C413 0.961 . S
H400 C414 0.960 . S
H401 C414 0.961 . S
H402 C414 0.959 . S
H403 C417 0.929 . S
H404 C418 0.931 . S
H405 C420 0.930 . S
C406 H394 0.930 . S
C406 C407 1.399 . S
C406 C411 1.399 . S
C407 C406 1.399 . S
C407 C408 1.376 . S
C408 H395 0.930 . S
C408 C407 1.376 . S
C408 C409 1.388 . S
C409 H396 0.930 . S
C409 C408 1.388 . S
C409 C410 1.390 . S
C410 C409 1.390 . S
C410 C411 1.394 . S
C410 C416 1.465 . S
C411 C406 1.399 . S
C411 C410 1.394 . S
C411 C412 1.516 . S
C412 C411 1.516 . S
C412 C413 1.502 . S
C412 C414 1.561 . S
C412 C415 1.526 . S
C413 H397 0.959 . S
C413 H398 0.959 . S
C413 H399 0.961 . S
C413 C412 1.502 . S
C414 H400 0.960 . S
C414 H401 0.961 . S
C414 H402 0.959 . S
C414 C412 1.561 . S
C415 C412 1.526 . S
C415 C416 1.396 . S
C415 C420 1.390 . S
C416 C410 1.465 . S
C416 C415 1.396 . S
C416 C417 1.399 . S
C417 H403 0.929 . S
C417 C416 1.399 . S
C417 C418 1.385 . S
C418 H404 0.931 . S
C418 C417 1.385 . S
C418 C419 1.389 . S
C419 C418 1.389 . S
C419 C420 1.387 . S
C420 H405 0.930 . S
C420 C415 1.390 . S
C420 C419 1.387 . S
H421 C433 0.930 . S
H422 C435 0.930 . S
H423 C436 0.930 . S
H424 C440 0.959 . S
H425 C440 0.959 . S
H426 C440 0.961 . S
H427 C441 0.960 . S
H428 C441 0.961 . S
H429 C441 0.959 . S
H430 C444 0.929 . S
H431 C445 0.931 . S
H432 C447 0.930 . S
C433 H421 0.930 . S
C433 C434 1.399 . S
C433 C438 1.399 . S
C434 C433 1.399 . S
C434 C435 1.376 . S
C435 H422 0.930 . S
C435 C434 1.376 . S
C435 C436 1.388 . S
C436 H423 0.930 . S
C436 C435 1.388 . S
C436 C437 1.390 . S
C437 C436 1.390 . S
C437 C438 1.394 . S
C437 C443 1.465 . S
C438 C433 1.399 . S
C438 C437 1.394 . S
C438 C439 1.516 . S
C439 C438 1.516 . S
C439 C440 1.502 . S
C439 C441 1.561 . S
C439 C442 1.526 . S
C440 H424 0.959 . S
C440 H425 0.959 . S
C440 H426 0.961 . S
C440 C439 1.502 . S
C441 H427 0.960 . S
C441 H428 0.961 . S
C441 H429 0.959 . S
C441 C439 1.561 . S
C442 C439 1.526 . S
C442 C443 1.396 . S
C442 C447 1.390 . S
C443 C437 1.465 . S
C443 C442 1.396 . S
C443 C444 1.399 . S
C444 H430 0.929 . S
C444 C443 1.399 . S
C444 C445 1.385 . S
C445 H431 0.931 . S
C445 C444 1.385 . S
C445 C446 1.389 . S
C446 C445 1.389 . S
C446 C447 1.387 . S
C447 H432 0.930 . S
C447 C442 1.390 . S
C447 C446 1.387 . S
H448 C460 0.930 . S
H449 C462 0.930 . S
H450 C463 0.930 . S
H451 C467 0.959 . S
H452 C467 0.959 . S
H453 C467 0.961 . S
H454 C468 0.960 . S
H455 C468 0.961 . S
H456 C468 0.959 . S
H457 C471 0.929 . S
H458 C472 0.931 . S
H459 C474 0.930 . S
C460 H448 0.930 . S
C460 C461 1.399 . S
C460 C465 1.399 . S
C461 C460 1.399 . S
C461 C462 1.376 . S
C462 H449 0.930 . S
C462 C461 1.376 . S
C462 C463 1.388 . S
C463 H450 0.930 . S
C463 C462 1.388 . S
C463 C464 1.390 . S
C464 C463 1.390 . S
C464 C465 1.394 . S
C464 C470 1.465 . S
C465 C460 1.399 . S
C465 C464 1.394 . S
C465 C466 1.516 . S
C466 C465 1.516 . S
C466 C467 1.502 . S
C466 C468 1.561 . S
C466 C469 1.526 . S
C467 H451 0.959 . S
C467 H452 0.959 . S
C467 H453 0.961 . S
C467 C466 1.502 . S
C468 H454 0.960 . S
C468 H455 0.961 . S
C468 H456 0.959 . S
C468 C466 1.561 . S
C469 C466 1.526 . S
C469 C470 1.396 . S
C469 C474 1.390 . S
C470 C464 1.465 . S
C470 C469 1.396 . S
C470 C471 1.399 . S
C471 H457 0.929 . S
C471 C470 1.399 . S
C471 C472 1.385 . S
C472 H458 0.931 . S
C472 C471 1.385 . S
C472 C473 1.389 . S
C473 C472 1.389 . S
C473 C474 1.387 . S
C474 H459 0.930 . S
C474 C469 1.390 . S
C474 C473 1.387 . S
H475 C487 0.930 . S
H476 C489 0.930 . S
H477 C490 0.930 . S
H478 C494 0.959 . S
H479 C494 0.959 . S
H480 C494 0.961 . S
H481 C495 0.960 . S
H482 C495 0.961 . S
H483 C495 0.959 . S
H484 C498 0.929 . S
H485 C499 0.931 . S
H486 C501 0.930 . S
C487 H475 0.930 . S
C487 C488 1.399 . S
C487 C492 1.399 . S
C488 C487 1.399 . S
C488 C489 1.376 . S
C489 H476 0.930 . S
C489 C488 1.376 . S
C489 C490 1.388 . S
C490 H477 0.930 . S
C490 C489 1.388 . S
C490 C491 1.390 . S
C491 C490 1.390 . S
C491 C492 1.394 . S
C491 C497 1.465 . S
C492 C487 1.399 . S
C492 C491 1.394 . S
C492 C493 1.516 . S
C493 C492 1.516 . S
C493 C494 1.502 . S
C493 C495 1.561 . S
C493 C496 1.526 . S
C494 H478 0.959 . S
C494 H479 0.959 . S
C494 H480 0.961 . S
C494 C493 1.502 . S
C495 H481 0.960 . S
C495 H482 0.961 . S
C495 H483 0.959 . S
C495 C493 1.561 . S
C496 C493 1.526 . S
C496 C497 1.396 . S
C496 C501 1.390 . S
C497 C491 1.465 . S
C497 C496 1.396 . S
C497 C498 1.399 . S
C498 H484 0.929 . S
C498 C497 1.399 . S
C498 C499 1.385 . S
C499 H485 0.931 . S
C499 C498 1.385 . S
C499 C500 1.389 . S
C500 C499 1.389 . S
C500 C501 1.387 . S
C501 H486 0.930 . S
C501 C496 1.390 . S
C501 C500 1.387 . S
H502 C514 0.930 . S
H503 C516 0.930 . S
H504 C517 0.930 . S
H505 C521 0.959 . S
H506 C521 0.959 1_455 S
H507 C521 0.961 . S
H508 C522 0.960 . S
H509 C522 0.961 . S
H510 C522 0.959 . S
H511 C525 0.929 . S
H512 C526 0.931 . S
H513 C528 0.930 . S
C514 H502 0.930 . S
C514 C515 1.399 . S
C514 C519 1.399 . S
C515 C514 1.399 . S
C515 C516 1.376 . S
C516 H503 0.930 . S
C516 C515 1.376 . S
C516 C517 1.388 . S
C517 H504 0.930 . S
C517 C516 1.388 . S
C517 C518 1.390 . S
C518 C517 1.390 . S
C518 C519 1.394 . S
C518 C524 1.465 . S
C519 C514 1.399 . S
C519 C518 1.394 . S
C519 C520 1.516 . S
C520 C519 1.516 . S
C520 C521 1.502 . S
C520 C522 1.561 . S
C520 C523 1.526 . S
C521 H505 0.959 . S
C521 H506 0.959 1_655 S
C521 H507 0.961 . S
C521 C520 1.502 . S
C522 H508 0.960 . S
C522 H509 0.961 . S
C522 H510 0.959 . S
C522 C520 1.561 . S
C523 C520 1.526 . S
C523 C524 1.396 . S
C523 C528 1.390 . S
C524 C518 1.465 . S
C524 C523 1.396 . S
C524 C525 1.399 . S
C525 H511 0.929 . S
C525 C524 1.399 . S
C525 C526 1.385 . S
C526 H512 0.931 . S
C526 C525 1.385 . S
C526 C527 1.389 . S
C527 C526 1.389 . S
C527 C528 1.387 . S
C528 H513 0.930 . S
C528 C523 1.390 . S
C528 C527 1.387 . S
H529 C541 0.930 . S
H530 C543 0.930 . S
H531 C544 0.930 . S
H532 C548 0.959 . S
H533 C548 0.959 . S
H534 C548 0.961 . S
H535 C549 0.960 . S
H536 C549 0.961 . S
H537 C549 0.959 . S
H538 C552 0.929 . S
H539 C553 0.931 . S
H540 C555 0.930 . S
C541 H529 0.930 . S
C541 C542 1.399 . S
C541 C546 1.399 . S
C542 C541 1.399 . S
C542 C543 1.376 . S
C543 H530 0.930 . S
C543 C542 1.376 . S
C543 C544 1.388 . S
C544 H531 0.930 . S
C544 C543 1.388 . S
C544 C545 1.390 . S
C545 C544 1.390 . S
C545 C546 1.394 . S
C545 C551 1.465 . S
C546 C541 1.399 . S
C546 C545 1.394 . S
C546 C547 1.516 . S
C547 C546 1.516 . S
C547 C548 1.502 . S
C547 C549 1.561 . S
C547 C550 1.526 . S
C548 H532 0.959 . S
C548 H533 0.959 . S
C548 H534 0.961 . S
C548 C547 1.502 . S
C549 H535 0.960 . S
C549 H536 0.961 . S
C549 H537 0.959 . S
C549 C547 1.561 . S
C550 C547 1.526 . S
C550 C551 1.396 . S
C550 C555 1.390 . S
C551 C545 1.465 . S
C551 C550 1.396 . S
C551 C552 1.399 . S
C552 H538 0.929 . S
C552 C551 1.399 . S
C552 C553 1.385 . S
C553 H539 0.931 . S
C553 C552 1.385 . S
C553 C554 1.389 . S
C554 C553 1.389 . S
C554 C555 1.387 . S
C555 H540 0.930 . S
C555 C550 1.390 . S
C555 C554 1.387 . S
H556 C568 0.930 . S
H557 C570 0.930 . S
H558 C571 0.930 . S
H559 C575 0.959 . S
H560 C575 0.959 . S
H561 C575 0.961 . S
H562 C576 0.960 . S
H563 C576 0.961 . S
H564 C576 0.959 . S
H565 C579 0.929 . S
H566 C580 0.931 . S
H567 C582 0.930 . S
C568 H556 0.930 . S
C568 C569 1.399 . S
C568 C573 1.399 . S
C569 C568 1.399 . S
C569 C570 1.376 . S
C570 H557 0.930 . S
C570 C569 1.376 . S
C570 C571 1.388 . S
C571 H558 0.930 . S
C571 C570 1.388 . S
C571 C572 1.390 . S
C572 C571 1.390 . S
C572 C573 1.394 . S
C572 C578 1.465 . S
C573 C568 1.399 . S
C573 C572 1.394 . S
C573 C574 1.516 . S
C574 C573 1.516 . S
C574 C575 1.502 . S
C574 C576 1.561 . S
C574 C577 1.526 . S
C575 H559 0.959 . S
C575 H560 0.959 . S
C575 H561 0.961 . S
C575 C574 1.502 . S
C576 H562 0.960 . S
C576 H563 0.961 . S
C576 H564 0.959 . S
C576 C574 1.561 . S
C577 C574 1.526 . S
C577 C578 1.396 . S
C577 C582 1.390 . S
C578 C572 1.465 . S
C578 C577 1.396 . S
C578 C579 1.399 . S
C579 H565 0.929 . S
C579 C578 1.399 . S
C579 C580 1.385 . S
C580 H566 0.931 . S
C580 C579 1.385 . S
C580 C581 1.389 . S
C581 C580 1.389 . S
C581 C582 1.387 . S
C582 H567 0.930 . S
C582 C577 1.390 . S
C582 C581 1.387 . S
H583 C595 0.930 . S
H584 C597 0.930 . S
H585 C598 0.930 . S
H586 C602 0.959 . S
H587 C602 0.959 . S
H588 C602 0.961 . S
H589 C603 0.960 . S
H590 C603 0.961 . S
H591 C603 0.959 . S
H592 C606 0.929 . S
H593 C607 0.931 . S
H594 C609 0.930 . S
C595 H583 0.930 . S
C595 C596 1.399 . S
C595 C600 1.399 . S
C596 C595 1.399 . S
C596 C597 1.376 . S
C597 H584 0.930 . S
C597 C596 1.376 . S
C597 C598 1.388 . S
C598 H585 0.930 . S
C598 C597 1.388 . S
C598 C599 1.390 . S
C599 C598 1.390 . S
C599 C600 1.394 . S
C599 C605 1.465 . S
C600 C595 1.399 . S
C600 C599 1.394 . S
C600 C601 1.516 . S
C601 C600 1.516 . S
C601 C602 1.502 . S
C601 C603 1.561 . S
C601 C604 1.526 . S
C602 H586 0.959 . S
C602 H587 0.959 . S
C602 H588 0.961 . S
C602 C601 1.502 . S
C603 H589 0.960 . S
C603 H590 0.961 . S
C603 H591 0.959 . S
C603 C601 1.561 . S
C604 C601 1.526 . S
C604 C605 1.396 . S
C604 C609 1.390 . S
C605 C599 1.465 . S
C605 C604 1.396 . S
C605 C606 1.399 . S
C606 H592 0.929 . S
C606 C605 1.399 . S
C606 C607 1.385 . S
C607 H593 0.931 . S
C607 C606 1.385 . S
C607 C608 1.389 . S
C608 C607 1.389 . S
C608 C609 1.387 . S
C609 H594 0.930 . S
C609 C604 1.390 . S
C609 C608 1.387 . S
H610 C622 0.930 . S
H611 C624 0.930 . S
H612 C625 0.930 . S
H613 C629 0.959 . S
H614 C629 0.959 . S
H615 C629 0.961 . S
H616 C630 0.960 . S
H617 C630 0.961 . S
H618 C630 0.959 . S
H619 C633 0.929 . S
H620 C634 0.931 . S
H621 C636 0.930 . S
C622 H610 0.930 . S
C622 C623 1.399 . S
C622 C627 1.399 . S
C623 C622 1.399 . S
C623 C624 1.376 . S
C624 H611 0.930 . S
C624 C623 1.376 . S
C624 C625 1.388 . S
C625 H612 0.930 . S
C625 C624 1.388 . S
C625 C626 1.390 . S
C626 C625 1.390 . S
C626 C627 1.394 . S
C626 C632 1.465 . S
C627 C622 1.399 . S
C627 C626 1.394 . S
C627 C628 1.516 . S
C628 C627 1.516 . S
C628 C629 1.502 . S
C628 C630 1.561 . S
C628 C631 1.526 . S
C629 H613 0.959 . S
C629 H614 0.959 . S
C629 H615 0.961 . S
C629 C628 1.502 . S
C630 H616 0.960 . S
C630 H617 0.961 . S
C630 H618 0.959 . S
C630 C628 1.561 . S
C631 C628 1.526 . S
C631 C632 1.396 . S
C631 C636 1.390 . S
C632 C626 1.465 . S
C632 C631 1.396 . S
C632 C633 1.399 . S
C633 H619 0.929 . S
C633 C632 1.399 . S
C633 C634 1.385 . S
C634 H620 0.931 . S
C634 C633 1.385 . S
C634 C635 1.389 . S
C635 C634 1.389 . S
C635 C636 1.387 . S
C636 H621 0.930 . S
C636 C631 1.390 . S
C636 C635 1.387 . S
H637 C649 0.930 . S
H638 C651 0.930 . S
H639 C652 0.930 . S
H640 C656 0.959 . S
H641 C656 0.959 . S
H642 C656 0.961 . S
H643 C657 0.960 . S
H644 C657 0.961 . S
H645 C657 0.959 . S
H646 C660 0.929 . S
H647 C661 0.931 . S
H648 C663 0.930 . S
C649 H637 0.930 . S
C649 C650 1.399 . S
C649 C654 1.399 . S
C650 C649 1.399 . S
C650 C651 1.376 . S
C651 H638 0.930 . S
C651 C650 1.376 . S
C651 C652 1.388 . S
C652 H639 0.930 . S
C652 C651 1.388 . S
C652 C653 1.390 . S
C653 C652 1.390 . S
C653 C654 1.394 . S
C653 C659 1.465 . S
C654 C649 1.399 . S
C654 C653 1.394 . S
C654 C655 1.516 . S
C655 C654 1.516 . S
C655 C656 1.502 . S
C655 C657 1.561 . S
C655 C658 1.526 . S
C656 H640 0.959 . S
C656 H641 0.959 . S
C656 H642 0.961 . S
C656 C655 1.502 . S
C657 H643 0.960 . S
C657 H644 0.961 . S
C657 H645 0.959 . S
C657 C655 1.561 . S
C658 C655 1.526 . S
C658 C659 1.396 . S
C658 C663 1.390 . S
C659 C653 1.465 . S
C659 C658 1.396 . S
C659 C660 1.399 . S
C660 H646 0.929 . S
C660 C659 1.399 . S
C660 C661 1.385 . S
C661 H647 0.931 . S
C661 C660 1.385 . S
C661 C662 1.389 . S
C662 C661 1.389 . S
C662 C663 1.387 . S
C663 H648 0.930 . S
C663 C658 1.390 . S
C663 C662 1.387 . S
H664 C676 0.930 . S
H665 C678 0.930 . S
H666 C679 0.930 . S
H667 C683 0.959 . S
H668 C683 0.959 . S
H669 C683 0.961 . S
H670 C684 0.960 . S
H671 C684 0.961 . S
H672 C684 0.959 . S
H673 C687 0.929 . S
H674 C688 0.931 . S
H675 C690 0.930 . S
C676 H664 0.930 . S
C676 C677 1.399 . S
C676 C681 1.399 . S
C677 C676 1.399 . S
C677 C678 1.376 . S
C678 H665 0.930 . S
C678 C677 1.376 . S
C678 C679 1.388 . S
C679 H666 0.930 . S
C679 C678 1.388 . S
C679 C680 1.390 . S
C680 C679 1.390 . S
C680 C681 1.394 . S
C680 C686 1.465 . S
C681 C676 1.399 . S
C681 C680 1.394 . S
C681 C682 1.516 . S
C682 C681 1.516 . S
C682 C683 1.502 . S
C682 C684 1.561 . S
C682 C685 1.526 . S
C683 H667 0.959 . S
C683 H668 0.959 . S
C683 H669 0.961 . S
C683 C682 1.502 . S
C684 H670 0.960 . S
C684 H671 0.961 . S
C684 H672 0.959 . S
C684 C682 1.561 . S
C685 C682 1.526 . S
C685 C686 1.396 . S
C685 C690 1.390 . S
C686 C680 1.465 . S
C686 C685 1.396 . S
C686 C687 1.399 . S
C687 H673 0.929 . S
C687 C686 1.399 . S
C687 C688 1.385 . S
C688 H674 0.931 . S
C688 C687 1.385 . S
C688 C689 1.389 . S
C689 C688 1.389 . S
C689 C690 1.387 . S
C690 H675 0.930 . S
C690 C685 1.390 . S
C690 C689 1.387 . S
H691 C703 0.930 . S
H692 C705 0.930 . S
H693 C706 0.930 . S
H694 C710 0.959 . S
H695 C710 0.959 . S
H696 C710 0.961 . S
H697 C711 0.960 . S
H698 C711 0.961 . S
H699 C711 0.959 . S
H700 C714 0.929 . S
H701 C715 0.931 . S
H702 C717 0.930 . S
C703 H691 0.930 . S
C703 C704 1.399 . S
C703 C708 1.399 . S
C704 C703 1.399 . S
C704 C705 1.376 . S
C705 H692 0.930 . S
C705 C704 1.376 . S
C705 C706 1.388 . S
C706 H693 0.930 . S
C706 C705 1.388 . S
C706 C707 1.390 . S
C707 C706 1.390 . S
C707 C708 1.394 . S
C707 C713 1.465 . S
C708 C703 1.399 . S
C708 C707 1.394 . S
C708 C709 1.516 . S
C709 C708 1.516 . S
C709 C710 1.502 1_655 S
C709 C711 1.561 . S
C709 C712 1.526 . S
C710 H694 0.959 . S
C710 H695 0.959 . S
C710 H696 0.961 . S
C710 C709 1.502 1_455 S
C711 H697 0.960 . S
C711 H698 0.961 . S
C711 H699 0.959 . S
C711 C709 1.561 . S
C712 C709 1.526 . S
C712 C713 1.396 . S
C712 C717 1.390 . S
C713 C707 1.465 . S
C713 C712 1.396 . S
C713 C714 1.399 . S
C714 H700 0.929 . S
C714 C713 1.399 . S
C714 C715 1.385 . S
C715 H701 0.931 . S
C715 C714 1.385 . S
C715 C716 1.389 . S
C716 C715 1.389 . S
C716 C717 1.387 . S
C717 H702 0.930 . S
C717 C712 1.390 . S
C717 C716 1.387 . S
H718 C730 0.930 . S
H719 C732 0.930 . S
H720 C733 0.930 . S
H721 C737 0.959 . S
H722 C737 0.959 . S
H723 C737 0.961 . S
H724 C738 0.960 . S
H725 C738 0.961 . S
H726 C738 0.959 . S
H727 C741 0.929 . S
H728 C742 0.931 1_556 S
H729 C744 0.930 . S
C730 H718 0.930 . S
C730 C731 1.399 . S
C730 C735 1.399 . S
C731 C730 1.399 . S
C731 C732 1.376 . S
C732 H719 0.930 . S
C732 C731 1.376 . S
C732 C733 1.388 . S
C733 H720 0.930 . S
C733 C732 1.388 . S
C733 C734 1.390 . S
C734 C733 1.390 . S
C734 C735 1.394 . S
C734 C740 1.465 . S
C735 C730 1.399 . S
C735 C734 1.394 . S
C735 C736 1.516 . S
C736 C735 1.516 . S
C736 C737 1.502 . S
C736 C738 1.561 . S
C736 C739 1.526 . S
C737 H721 0.959 . S
C737 H722 0.959 . S
C737 H723 0.961 . S
C737 C736 1.502 . S
C738 H724 0.960 . S
C738 H725 0.961 . S
C738 H726 0.959 . S
C738 C736 1.561 . S
C739 C736 1.526 . S
C739 C740 1.396 . S
C739 C744 1.390 . S
C740 C734 1.465 . S
C740 C739 1.396 . S
C740 C741 1.399 . S
C741 H727 0.929 . S
C741 C740 1.399 . S
C741 C742 1.385 . S
C742 H728 0.931 1_554 S
C742 C741 1.385 . S
C742 C743 1.389 . S
C743 C742 1.389 . S
C743 C744 1.387 . S
C744 H729 0.930 . S
C744 C739 1.390 . S
C744 C743 1.387 . S
H745 C757 0.930 . S
H746 C759 0.930 . S
H747 C760 0.930 . S
H748 C764 0.959 . S
H749 C764 0.959 . S
H750 C764 0.961 . S
H751 C765 0.960 . S
H752 C765 0.961 . S
H753 C765 0.959 . S
H754 C768 0.929 . S
H755 C769 0.931 . S
H756 C771 0.930 . S
C757 H745 0.930 . S
C757 C758 1.399 . S
C757 C762 1.399 . S
C758 C757 1.399 . S
C758 C759 1.376 . S
C759 H746 0.930 . S
C759 C758 1.376 . S
C759 C760 1.388 . S
C760 H747 0.930 . S
C760 C759 1.388 . S
C760 C761 1.390 . S
C761 C760 1.390 . S
C761 C762 1.394 . S
C761 C767 1.465 . S
C762 C757 1.399 . S
C762 C761 1.394 . S
C762 C763 1.516 . S
C763 C762 1.516 . S
C763 C764 1.502 . S
C763 C765 1.561 . S
C763 C766 1.526 . S
C764 H748 0.959 . S
C764 H749 0.959 . S
C764 H750 0.961 . S
C764 C763 1.502 . S
C765 H751 0.960 . S
C765 H752 0.961 . S
C765 H753 0.959 . S
C765 C763 1.561 . S
C766 C763 1.526 . S
C766 C767 1.396 . S
C766 C771 1.390 . S
C767 C761 1.465 . S
C767 C766 1.396 . S
C767 C768 1.399 . S
C768 H754 0.929 . S
C768 C767 1.399 . S
C768 C769 1.385 . S
C769 H755 0.931 . S
C769 C768 1.385 . S
C769 C770 1.389 . S
C770 C769 1.389 . S
C770 C771 1.387 . S
C771 H756 0.930 . S
C771 C766 1.390 . S
C771 C770 1.387 . S
H772 C784 0.930 . S
H773 C786 0.930 . S
H774 C787 0.930 . S
H775 C791 0.959 . S
H776 C791 0.959 . S
H777 C791 0.961 . S
H778 C792 0.960 . S
H779 C792 0.961 . S
H780 C792 0.959 . S
H781 C795 0.929 . S
H782 C796 0.931 . S
H783 C798 0.930 . S
C784 H772 0.930 . S
C784 C785 1.399 . S
C784 C789 1.399 . S
C785 C784 1.399 . S
C785 C786 1.376 . S
C786 H773 0.930 . S
C786 C785 1.376 . S
C786 C787 1.388 . S
C787 H774 0.930 . S
C787 C786 1.388 . S
C787 C788 1.390 . S
C788 C787 1.390 . S
C788 C789 1.394 . S
C788 C794 1.465 . S
C789 C784 1.399 . S
C789 C788 1.394 . S
C789 C790 1.516 . S
C790 C789 1.516 . S
C790 C791 1.502 . S
C790 C792 1.561 . S
C790 C793 1.526 . S
C791 H775 0.959 . S
C791 H776 0.959 . S
C791 H777 0.961 . S
C791 C790 1.502 . S
C792 H778 0.960 . S
C792 H779 0.961 . S
C792 H780 0.959 . S
C792 C790 1.561 . S
C793 C790 1.526 . S
C793 C794 1.396 . S
C793 C798 1.390 . S
C794 C788 1.465 . S
C794 C793 1.396 . S
C794 C795 1.399 . S
C795 H781 0.929 . S
C795 C794 1.399 . S
C795 C796 1.385 . S
C796 H782 0.931 . S
C796 C795 1.385 . S
C796 C797 1.389 . S
C797 C796 1.389 . S
C797 C798 1.387 . S
C798 H783 0.930 . S
C798 C793 1.390 . S
C798 C797 1.387 . S
H799 C811 0.930 . S
H800 C813 0.930 . S
H801 C814 0.930 . S
H802 C818 0.959 . S
H803 C818 0.959 . S
H804 C818 0.961 . S
H805 C819 0.960 . S
H806 C819 0.961 . S
H807 C819 0.959 . S
H808 C822 0.929 . S
H809 C823 0.931 . S
H810 C825 0.930 . S
C811 H799 0.930 . S
C811 C812 1.399 . S
C811 C816 1.399 . S
C812 C811 1.399 . S
C812 C813 1.376 . S
C813 H800 0.930 . S
C813 C812 1.376 . S
C813 C814 1.388 . S
C814 H801 0.930 . S
C814 C813 1.388 . S
C814 C815 1.390 . S
C815 C814 1.390 . S
C815 C816 1.394 . S
C815 C821 1.465 . S
C816 C811 1.399 . S
C816 C815 1.394 . S
C816 C817 1.516 . S
C817 C816 1.516 . S
C817 C818 1.502 . S
C817 C819 1.561 . S
C817 C820 1.526 . S
C818 H802 0.959 . S
C818 H803 0.959 . S
C818 H804 0.961 . S
C818 C817 1.502 . S
C819 H805 0.960 . S
C819 H806 0.961 . S
C819 H807 0.959 . S
C819 C817 1.561 . S
C820 C817 1.526 . S
C820 C821 1.396 . S
C820 C825 1.390 . S
C821 C815 1.465 . S
C821 C820 1.396 . S
C821 C822 1.399 . S
C822 H808 0.929 . S
C822 C821 1.399 . S
C822 C823 1.385 . S
C823 H809 0.931 . S
C823 C822 1.385 . S
C823 C824 1.389 . S
C824 C823 1.389 . S
C824 C825 1.387 . S
C825 H810 0.930 . S
C825 C820 1.390 . S
C825 C824 1.387 . S
H826 C838 0.930 . S
H827 C840 0.930 . S
H828 C841 0.930 . S
H829 C845 0.959 . S
H830 C845 0.959 . S
H831 C845 0.961 . S
H832 C846 0.960 . S
H833 C846 0.961 1_655 S
H834 C846 0.959 . S
H835 C849 0.929 . S
H836 C850 0.931 . S
H837 C852 0.930 . S
C838 H826 0.930 . S
C838 C839 1.399 . S
C838 C843 1.399 . S
C839 C838 1.399 . S
C839 C840 1.376 . S
C840 H827 0.930 . S
C840 C839 1.376 . S
C840 C841 1.388 . S
C841 H828 0.930 . S
C841 C840 1.388 . S
C841 C842 1.390 . S
C842 C841 1.390 . S
C842 C843 1.394 . S
C842 C848 1.465 . S
C843 C838 1.399 . S
C843 C842 1.394 . S
C843 C844 1.516 . S
C844 C843 1.516 . S
C844 C845 1.502 . S
C844 C846 1.561 . S
C844 C847 1.526 . S
C845 H829 0.959 . S
C845 H830 0.959 . S
C845 H831 0.961 . S
C845 C844 1.502 . S
C846 H832 0.960 . S
C846 H833 0.961 1_455 S
C846 H834 0.959 . S
C846 C844 1.561 . S
C847 C844 1.526 . S
C847 C848 1.396 . S
C847 C852 1.390 . S
C848 C842 1.465 . S
C848 C847 1.396 . S
C848 C849 1.399 . S
C849 H835 0.929 . S
C849 C848 1.399 . S
C849 C850 1.385 . S
C850 H836 0.931 . S
C850 C849 1.385 . S
C850 C851 1.389 . S
C851 C850 1.389 . S
C851 C852 1.387 . S
C852 H837 0.930 . S
C852 C847 1.390 . S
C852 C851 1.387 . S
H853 C865 0.930 . S
H854 C867 0.930 . S
H855 C868 0.930 . S
H856 C872 0.959 . S
H857 C872 0.959 . S
H858 C872 0.961 . S
H859 C873 0.960 . S
H860 C873 0.961 . S
H861 C873 0.959 . S
H862 C876 0.929 . S
H863 C877 0.931 . S
H864 C879 0.930 . S
C865 H853 0.930 . S
C865 C866 1.399 . S
C865 C870 1.399 . S
C866 C865 1.399 . S
C866 C867 1.376 . S
C867 H854 0.930 . S
C867 C866 1.376 . S
C867 C868 1.388 . S
C868 H855 0.930 . S
C868 C867 1.388 . S
C868 C869 1.390 . S
C869 C868 1.390 . S
C869 C870 1.394 . S
C869 C875 1.465 . S
C870 C865 1.399 . S
C870 C869 1.394 . S
C870 C871 1.516 . S
C871 C870 1.516 . S
C871 C872 1.502 . S
C871 C873 1.561 . S
C871 C874 1.526 . S
C872 H856 0.959 . S
C872 H857 0.959 . S
C872 H858 0.961 . S
C872 C871 1.502 . S
C873 H859 0.960 . S
C873 H860 0.961 . S
C873 H861 0.959 . S
C873 C871 1.561 . S
C874 C871 1.526 . S
C874 C875 1.396 . S
C874 C879 1.390 . S
C875 C869 1.465 . S
C875 C874 1.396 . S
C875 C876 1.399 . S
C876 H862 0.929 . S
C876 C875 1.399 . S
C876 C877 1.385 . S
C877 H863 0.931 . S
C877 C876 1.385 . S
C877 C878 1.389 . S
C878 C877 1.389 . S
C878 C879 1.387 . S
C879 H864 0.930 . S
C879 C874 1.390 . S
C879 C878 1.387 . S
C245 C5 0.827 . S
C257 C76 0.830 . S
C272 C14 1.022 . S
C284 C137 1.003 . S
C311 C175 2.499 . S
C299 C25 2.577 . S
C326 C34 2.394 . S
C338 C215 2.340 . S
C365 C135 1.064 . S
C353 C7 1.050 . S
C392 C103 1.779 . S
C380 C13 1.676 . S
C419 C212 1.775 . S
C407 C23 1.778 . S
C446 C172 1.871 . S
C434 C31 1.907 . S
C461 C4 1.042 . S
C473 C217 1.000 . S
C500 C132 2.364 . S
C488 C22 2.354 . S
C515 C32 2.227 . S
C527 C74 2.214 . S
C542 C16 1.253 . S
C554 C177 1.279 . S
C581 C97 0.798 . S
C569 C41 0.837 . S
C596 C50 0.991 . S
C608 C116 0.998 . S
C623 C61 2.567 . S
C635 C154 2.503 . S
C650 C67 2.396 . S
C662 C194 2.359 . S
C677 C40 1.087 . S
C689 C114 1.142 . S
C716 C92 1.759 . S
C704 C52 1.648 . S
C743 C223 1.791 . S
C731 C59 1.788 . S
C770 C183 1.875 . S
C758 C70 1.904 . S
C785 C43 1.034 . S
C797 C196 1.020 . S
C824 C143 2.366 . S
C812 C58 2.375 . S
C851 C95 2.197 . S
C839 C68 2.210 . S
C866 C49 1.220 . S
C878 C156 1.291 . S
