# Generated by pormake.
# Topology anh, (6,3)-cn, num edge types: 1
# Building blocks:
#     Node 0, Type 0, BuildingBlock: NUHQIS_clean_sbu_0, # of connection points: 6
#     Node 1, Type 0, BuildingBlock: NUHQIS_clean_sbu_0, # of connection points: 6
#     Node 2, Type 0, BuildingBlock: NUHQIS_clean_sbu_0, # of connection points: 6
#     Node 3, Type 1, BuildingBlock: QEWDON_clean_linker_0, # of connection points: 3
#     Node 4, Type 1, BuildingBlock: QEWDON_clean_linker_0, # of connection points: 3
#     Node 5, Type 1, BuildingBlock: QEWDON_clean_linker_0, # of connection points: 3
#     Node 6, Type 1, BuildingBlock: QEWDON_clean_linker_0, # of connection points: 3
#     Node 7, Type 1, BuildingBlock: QEWDON_clean_linker_0, # of connection points: 3
#     Node 8, Type 1, BuildingBlock: QEWDON_clean_linker_0, # of connection points: 3
#     Edge 9, Type (0, 1), BuildingBlock: XUDNAN_clean_linker_2, # of connection points: 2
#     Edge 10, Type (0, 1), BuildingBlock: XUDNAN_clean_linker_2, # of connection points: 2
#     Edge 11, Type (0, 1), BuildingBlock: XUDNAN_clean_linker_2, # of connection points: 2
#     Edge 12, Type (0, 1), BuildingBlock: XUDNAN_clean_linker_2, # of connection points: 2
#     Edge 13, Type (0, 1), BuildingBlock: XUDNAN_clean_linker_2, # of connection points: 2
#     Edge 14, Type (0, 1), BuildingBlock: XUDNAN_clean_linker_2, # of connection points: 2
#     Edge 15, Type (0, 1), BuildingBlock: XUDNAN_clean_linker_2, # of connection points: 2
#     Edge 16, Type (0, 1), BuildingBlock: XUDNAN_clean_linker_2, # of connection points: 2
#     Edge 17, Type (0, 1), BuildingBlock: XUDNAN_clean_linker_2, # of connection points: 2
#     Edge 18, Type (0, 1), BuildingBlock: XUDNAN_clean_linker_2, # of connection points: 2
#     Edge 19, Type (0, 1), BuildingBlock: XUDNAN_clean_linker_2, # of connection points: 2
#     Edge 20, Type (0, 1), BuildingBlock: XUDNAN_clean_linker_2, # of connection points: 2
#     Edge 21, Type (0, 1), BuildingBlock: XUDNAN_clean_linker_2, # of connection points: 2
#     Edge 22, Type (0, 1), BuildingBlock: XUDNAN_clean_linker_2, # of connection points: 2
#     Edge 23, Type (0, 1), BuildingBlock: XUDNAN_clean_linker_2, # of connection points: 2
#     Edge 24, Type (0, 1), BuildingBlock: XUDNAN_clean_linker_2, # of connection points: 2
#     Edge 25, Type (0, 1), BuildingBlock: XUDNAN_clean_linker_2, # of connection points: 2
#     Edge 26, Type (0, 1), BuildingBlock: XUDNAN_clean_linker_2, # of connection points: 2
# Relax obj value: 0.217
# Max RMSD: 0.137
# Mean RMSD: 0.120
data_MOF--net-anh--node1-NUHQIS_clean_sbu_0--node2-QEWDON_clean_linker_0--edge1-XUDNAN_clean_linker_2
_symmetry_space_group_name_H-M    P1
_symmetry_Int_Tables_number       1
_symmetry_cell_setting            triclinic
loop_
_symmetry_equiv_pos_as_xyz
'x, y, z'
_cell_length_a     33.40533
_cell_length_b     33.076615
_cell_length_c     49.107343
_cell_angle_alpha  93.280857
_cell_angle_beta   97.332513
_cell_angle_gamma 119.80539
loop_
_atom_site_label
_atom_site_type_symbol
_atom_site_fract_x
_atom_site_fract_y
_atom_site_fract_z
_atom_type_partial_charge
Tb0 Tb 0.15987 0.61022 0.16418 0.0
Eu1 Eu 0.09919 0.65473 0.14392 0.0
C2 C 0.11631 0.64381 0.20606 0.0
C3 C 1.04506 0.54045 0.1563 0.0
C4 C 0.26687 0.6103 0.17341 0.0
C5 C 0.346 0.67789 0.1863 0.0
C6 C 0.30458 0.64366 0.19383 0.0
C7 C 0.27346 0.60861 0.14572 0.0
C8 C 0.31477 0.64274 0.13824 0.0
C9 C 0.3504 0.67904 0.15825 0.0
C10 C 0.21883 0.58685 0.17969 0.0
O11 O 0.16011 0.60734 0.11901 0.0
O12 O 0.11137 0.63437 0.10312 0.0
O13 O 0.17543 0.714 0.14083 0.0
O14 O 0.21503 0.68837 0.16905 0.0
C15 C 0.13847 0.61771 0.09859 0.0
O16 O 1.03641 0.65062 0.12118 0.0
O17 O 0.08855 0.71443 0.14817 0.0
O18 O 0.12112 0.67472 0.18964 0.0
O19 O 0.12384 0.61 0.19846 0.0
O20 O 0.08771 0.54527 0.15993 0.0
O21 O 1.04199 0.57819 0.15118 0.0
C22 C 0.21602 0.72242 0.15532 0.0
O23 O 0.21053 0.61363 0.19575 0.0
O24 O 0.18455 0.56348 0.15857 0.0
C25 C 1.00883 0.69052 0.14783 0.0
C26 C 0.93763 0.69066 0.17309 0.0
C27 C 0.92625 0.65807 0.14958 0.0
C28 C 0.96145 0.65811 0.13704 0.0
C29 C 1.0203 0.72232 0.17181 0.0
C30 C 0.98503 0.72233 0.18432 0.0
C31 C 1.04587 0.69077 0.13414 0.0
H32 H 0.37312 0.7053 0.20218 0.0
H33 H 0.30054 0.64582 0.21532 0.0
H34 H 0.24542 0.58326 0.12941 0.0
H35 H 0.31788 0.64203 0.11655 0.0
H36 H 0.89003 0.63395 0.14001 0.0
H37 H 0.95148 0.6333 0.11857 0.0
H38 H 1.0565 0.74769 0.18075 0.0
H39 H 0.99477 0.74791 0.20236 0.0
Tb40 Tb 0.67751 0.12203 0.49534 0.0
Eu41 Eu 0.56856 0.06351 0.47333 0.0
C42 C 0.60607 0.0868 0.53578 0.0
C43 C 0.62635 1.00582 0.48761 0.0
C44 C 0.78514 0.22047 0.5336 0.0
C45 C 0.84783 0.30212 0.54137 0.0
C46 C 0.83079 0.25492 0.53147 0.0
C47 C 0.75809 0.23321 0.54766 0.0
C48 C 0.77501 0.28024 0.55748 0.0
C49 C 0.81917 0.31537 0.55329 0.0
C50 C 0.76266 0.17375 0.51706 0.0
O51 O 0.67121 0.10132 0.45073 0.0
O52 O 0.59962 0.09287 0.43641 0.0
O53 O 0.58375 0.14056 0.48563 0.0
O54 O 0.6627 0.18006 0.48686 0.0
C55 C 0.63891 0.09808 0.43076 0.0
O56 O 0.50646 1.01019 0.4444 0.0
O57 O 0.49988 1.05241 0.4772 0.0
O58 O 0.57917 1.05115 0.51672 0.0
O59 O 0.64177 0.12415 0.52953 0.0
O60 O 0.66342 1.04821 0.49772 0.0
O61 O 0.58715 1.00347 0.47516 0.0
C62 C 0.62358 0.18135 0.48717 0.0
O63 O 0.73259 0.13881 0.52817 0.0
O64 O 0.74605 0.17216 0.49128 0.0
C65 C 0.43885 0.97449 0.46522 0.0
C66 C 0.36444 0.89767 0.48267 0.0
C67 C 0.36138 0.93734 0.47708 0.0
C68 C 0.39825 0.97535 0.46838 0.0
C69 C 0.44241 0.93516 0.47101 0.0
C70 C 0.40516 0.89673 0.47945 0.0
C71 C 0.47796 1.01633 0.45769 0.0
H72 H 0.88178 0.32855 0.53753 0.0
H73 H 0.85194 0.24581 0.52044 0.0
H74 H 0.72258 0.20728 0.54938 0.0
H75 H 0.75229 0.28952 0.56661 0.0
H76 H 0.32997 0.93855 0.47881 0.0
H77 H 0.39514 1.0056 0.46422 0.0
H78 H 0.4739 0.93421 0.46913 0.0
H79 H 0.40817 0.86642 0.48354 0.0
Tb80 Tb 0.70624 0.64787 0.81833 0.0
Eu81 Eu 0.6494 0.53969 0.82209 0.0
C82 C 0.69087 0.61425 0.87589 0.0
C83 C 0.76643 0.5936 0.8237 0.0
C84 C 0.72286 0.76332 0.82188 0.0
C85 C 0.67396 0.79327 0.80246 0.0
C86 C 0.70952 0.7832 0.80065 0.0
C87 C 0.70472 0.7599 0.84659 0.0
C88 C 0.66967 0.77075 0.84855 0.0
C89 C 0.65218 0.7846 0.82578 0.0
C90 C 0.74278 0.73394 0.81479 0.0
O91 O 0.69439 0.61287 0.77628 0.0
O92 O 0.62571 0.54793 0.77881 0.0
O93 O 0.59067 0.55795 0.82609 0.0
O94 O 0.63211 0.635 0.81903 0.0
C95 C 0.65439 0.57645 0.76383 0.0
O96 O 0.6223 0.46793 0.80309 0.0
O97 O 0.61147 0.48079 0.84462 0.0
O98 O 0.68608 0.57453 0.86557 0.0
O99 O 0.69035 0.64392 0.85969 0.0
O100 O 0.76689 0.63412 0.82824 0.0
O101 O 0.72453 0.55422 0.81719 0.0
C102 C 0.59182 0.59833 0.82346 0.0
O103 O 0.75712 0.71784 0.83519 0.0
O104 O 0.71696 0.70096 0.79385 0.0
C105 C 0.6256 0.41847 0.83528 0.0
C106 C 0.64969 0.35141 0.85074 0.0
C107 C 0.66866 0.37815 0.82957 0.0
C108 C 0.65692 0.41143 0.82202 0.0
C109 C 0.60869 0.39386 0.85745 0.0
C110 C 0.62088 0.36087 0.86525 0.0
C111 C 0.6093 0.45014 0.82565 0.0
H112 H 0.66078 0.80406 0.78471 0.0
H113 H 0.72272 0.78587 0.78138 0.0
H114 H 0.71404 0.74445 0.8633 0.0
H115 H 0.65314 0.76389 0.86669 0.0
H116 H 0.6903 0.37149 0.81756 0.0
H117 H 0.6711 0.43028 0.80506 0.0
H118 H 0.58494 0.39916 0.86821 0.0
H119 H 0.60617 0.34137 0.88189 0.0
H120 H 0.66551 0.14738 0.22047 0.0
C121 C 0.63288 0.11692 0.21011 0.0
C122 C 0.605 0.0831 0.22632 0.0
C123 C 0.61836 0.11375 0.18144 0.0
H124 H 0.54115 1.01891 0.22722 0.0
C125 C 0.56127 1.04336 0.21388 0.0
C126 C 0.54254 1.03486 0.18534 0.0
C127 C 0.57206 0.07146 0.16931 0.0
C128 C 0.65021 0.15644 0.16563 0.0
H129 H 0.55894 0.06634 0.14739 0.0
C130 C 0.70016 0.19505 0.17486 0.0
C131 C 0.72485 0.2348 0.15903 0.0
C132 C 0.62817 0.1601 0.14034 0.0
H133 H 0.59182 0.13481 0.13204 0.0
C134 C 0.65125 0.19681 0.12512 0.0
H135 H 0.71952 0.19456 0.19411 0.0
C136 C 0.69773 0.23278 0.13407 0.0
H137 H 0.71282 0.25915 0.12054 0.0
H138 H 0.63235 0.19752 0.10569 0.0
H139 H 0.62052 0.60492 0.55309 0.0
C140 C 0.62253 0.57626 0.5429 0.0
C141 C 0.62271 0.54201 0.55884 0.0
C142 C 0.62184 0.57235 0.51401 0.0
H143 H 0.62414 0.47812 0.55963 0.0
C144 C 0.62311 0.5027 0.54634 0.0
C145 C 0.62295 0.49472 0.51782 0.0
C146 C 0.62301 0.53091 0.50189 0.0
C147 C 0.61561 0.6089 0.49686 0.0
H148 H 0.62357 0.52622 0.48004 0.0
C149 C 0.62359 0.65591 0.50741 0.0
C150 C 0.61311 0.68522 0.48947 0.0
C151 C 0.5977 0.59429 0.46834 0.0
H152 H 0.58921 0.56017 0.4587 0.0
C153 C 0.58857 0.62206 0.45123 0.0
H154 H 0.63731 0.6694 0.52917 0.0
C155 C 0.59601 0.66593 0.46137 0.0
H156 H 0.5888 0.6854 0.44646 0.0
H157 H 0.57502 0.609 0.42936 0.0
H158 H 0.20204 0.60316 0.89005 0.0
C159 C 0.17095 0.60215 0.87965 0.0
C160 C 0.13938 0.60405 0.89589 0.0
C161 C 0.16256 0.59714 0.85041 0.0
H162 H 1.07429 0.60324 0.89551 0.0
C163 C 0.09854 0.60335 0.88282 0.0
C164 C 1.08606 0.59944 0.85386 0.0
C165 C 0.11869 0.59552 0.83778 0.0
C166 C 0.19738 0.58927 0.83402 0.0
H167 H 0.10988 0.59183 0.81549 0.0
C168 C 0.24642 0.60016 0.84434 0.0
C169 C 0.27348 0.58732 0.82736 0.0
C170 C 0.17882 0.56644 0.80662 0.0
H171 H 0.14338 0.55591 0.79728 0.0
C172 C 0.20407 0.55475 0.79047 0.0
H173 H 0.26315 0.61788 0.86524 0.0
C174 C 0.24952 0.56462 0.80043 0.0
H175 H 0.26651 0.5548 0.78622 0.0
H176 H 0.18769 0.5371 0.76948 0.0
H177 H 0.93539 0.60155 0.37814 0.0
C178 C 0.96784 0.61737 0.39304 0.0
C179 C 1.01046 0.63173 0.38377 0.0
C180 C 0.96716 0.62266 0.42159 0.0
H181 H 1.08527 0.66662 0.39564 0.0
C182 C 1.0524 0.65274 0.40314 0.0
C183 C 1.05251 0.65877 0.43169 0.0
C184 C 1.00958 0.64289 0.44062 0.0
C185 C 0.9229 0.60828 0.4322 0.0
H186 H 1.00922 0.64732 0.46259 0.0
C187 C 0.91594 0.58715 0.45649 0.0
C188 C 0.87728 0.57783 0.46902 0.0
C189 C 0.8891 0.61808 0.41957 0.0
H190 H 0.89365 0.63478 0.40096 0.0
C191 C 0.8497 0.60767 0.43145 0.0
H192 H 0.94072 0.57742 0.46559 0.0
C193 C 0.84381 0.58784 0.45612 0.0
H194 H 0.81337 0.5806 0.46514 0.0
H195 H 0.82392 0.61557 0.4217 0.0
H196 H 0.46274 0.96259 0.70724 0.0
C197 C 0.48771 0.98867 0.72445 0.0
C198 C 0.52556 1.03097 0.71937 0.0
C199 C 0.48279 0.97919 0.75169 0.0
H200 H 0.58607 0.09746 0.73819 0.0
C201 C 0.55813 0.06386 0.74192 0.0
C202 C 0.55288 1.05518 0.76926 0.0
C203 C 0.51548 1.01255 0.77397 0.0
C204 C 0.44479 0.93372 0.75718 0.0
H205 H 0.51125 1.0057 0.79506 0.0
C206 C 0.45631 0.90664 0.77374 0.0
C207 C 0.42147 0.86271 0.77903 0.0
C208 C 0.39763 0.91684 0.74589 0.0
H209 H 0.38798 0.93729 0.73304 0.0
C210 C 0.36256 0.87347 0.75142 0.0
H211 H 0.493 0.91905 0.78139 0.0
C212 C 0.37433 0.84632 0.76778 0.0
H213 H 0.34679 0.81244 0.77138 0.0
H214 H 0.3262 0.86062 0.74274 0.0
H215 H 0.68328 0.79139 0.04437 0.0
C216 C 0.69415 0.78197 0.06354 0.0
C217 C 0.6992 0.74218 0.06309 0.0
C218 C 0.70119 0.80868 0.08883 0.0
H219 H 0.71796 0.70074 0.08833 0.0
C220 C 0.71166 0.72989 0.08833 0.0
C221 C 0.71883 0.75638 0.11367 0.0
C222 C 0.71368 0.79585 0.11387 0.0
C223 C 0.69133 0.84743 0.08928 0.0
H224 H 0.71944 0.81659 0.13343 0.0
C225 C 0.65512 0.84374 0.10237 0.0
C226 C 0.64189 0.8779 0.10144 0.0
C227 C 0.71547 0.88629 0.07553 0.0
H228 H 0.74343 0.88952 0.06513 0.0
C229 C 0.70339 0.92119 0.07513 0.0
H230 H 0.63537 0.81254 0.11191 0.0
C231 C 0.66648 0.91689 0.0878 0.0
H232 H 0.65676 0.94358 0.08665 0.0
H233 H 0.7221 0.95117 0.06452 0.0
H234 H 0.44368 0.72218 0.18115 0.0
H235 H 0.34667 0.72724 0.11566 0.0
H236 H 0.41299 0.79208 0.09927 0.0
H237 H 0.53155 0.85259 0.19309 0.0
H238 H 0.57981 0.84224 0.19951 0.0
H239 H 0.52419 0.8018 0.20864 0.0
H240 H 0.52185 0.73289 0.17874 0.0
H241 H 0.57721 0.77332 0.16972 0.0
H242 H 0.52717 0.73685 0.14277 0.0
H243 H 0.48917 0.84788 0.08618 0.0
H244 H 0.5689 0.88494 0.07519 0.0
H245 H 0.61699 0.84695 0.15031 0.0
C246 C 0.43645 0.73772 0.16376 0.0
C247 C 0.39024 0.71956 0.14953 0.0
C248 C 0.382 0.74018 0.12656 0.0
C249 C 0.41936 0.77742 0.11733 0.0
C250 C 0.46467 0.79407 0.13154 0.0
C251 C 0.47336 0.77497 0.15431 0.0
C252 C 0.52539 0.79593 0.16415 0.0
C253 C 0.54115 0.82486 0.19307 0.0
C254 C 0.53865 0.75747 0.16379 0.0
C255 C 0.54446 0.82749 0.14229 0.0
C256 C 0.50898 0.82708 0.12416 0.0
C257 C 0.51746 0.84944 0.10056 0.0
C258 C 0.56293 0.87068 0.09455 0.0
C259 C 0.59899 0.86882 0.11195 0.0
C260 C 0.59003 0.84909 0.13679 0.0
H261 H 0.76325 0.34777 0.53294 0.0
H262 H 0.90307 0.39439 0.57687 0.0
H263 H 0.92707 0.47638 0.57019 0.0
H264 H 0.79668 0.40747 0.48101 0.0
H265 H 0.74998 0.42033 0.47542 0.0
H266 H 0.74195 0.37065 0.49203 0.0
H267 H 0.71973 0.40422 0.53281 0.0
H268 H 0.73233 0.45673 0.51754 0.0
H269 H 0.76171 0.46139 0.55191 0.0
H270 H 0.94069 0.54752 0.54954 0.0
H271 H 0.94497 0.59872 0.51419 0.0
H272 H 0.79742 0.50445 0.48082 0.0
C273 C 0.79816 0.37567 0.5425 0.0
C274 C 0.83113 0.36508 0.55585 0.0
C275 C 0.8772 0.40202 0.56691 0.0
C276 C 0.89095 0.44867 0.56335 0.0
C277 C 0.8582 0.45767 0.54868 0.0
C278 C 0.81255 0.42206 0.53854 0.0
C279 C 0.787 0.43848 0.51858 0.0
C280 C 0.76782 0.40745 0.49008 0.0
C281 C 0.74784 0.44028 0.53095 0.0
C282 C 0.82645 0.48743 0.51704 0.0
C283 C 0.86663 0.49867 0.53552 0.0
C284 C 0.90922 0.53946 0.53542 0.0
C285 C 0.9114 0.56811 0.51508 0.0
C286 C 0.87155 0.55517 0.49459 0.0
C287 C 0.82812 0.51567 0.49654 0.0
H288 H 0.63108 0.84602 0.85073 0.0
H289 H 0.57104 0.71556 0.79528 0.0
H290 H 0.49423 0.71076 0.78784 0.0
H291 H 0.51842 0.8203 0.87764 0.0
H292 H 0.53294 0.88051 0.87715 0.0
H293 H 0.57895 0.86702 0.88472 0.0
H294 H 0.61752 0.91107 0.8448 0.0
H295 H 0.57215 0.92499 0.83744 0.0
H296 H 0.583 0.89444 0.81039 0.0
H297 H 0.43074 0.72772 0.77865 0.0
H298 H 0.38956 0.76944 0.76409 0.0
H299 H 0.48846 0.88954 0.82532 0.0
C300 C 0.6011 0.8158 0.83786 0.0
C301 C 0.60616 0.78076 0.82387 0.0
C302 C 0.56719 0.74242 0.8063 0.0
C303 C 0.52345 0.7392 0.8022 0.0
C304 C 0.51942 0.77482 0.81575 0.0
C305 C 0.55726 0.81257 0.83318 0.0
C306 C 0.54616 0.85039 0.84094 0.0
C307 C 0.54398 0.85479 0.87196 0.0
C308 C 0.58178 0.89797 0.83289 0.0
C309 C 0.49789 0.82979 0.82334 0.0
C310 C 0.48227 0.78529 0.8099 0.0
C311 C 0.44187 0.76199 0.78957 0.0
C312 C 0.41849 0.78588 0.78149 0.0
C313 C 0.43599 0.83274 0.79354 0.0
C314 C 0.47434 0.85362 0.81588 0.0
H315 H 0.93776 0.77173 0.18414 0.0
H316 H 0.85207 0.62105 0.1817 0.0
H317 H 0.78248 0.62851 0.18245 0.0
H318 H 0.85682 0.80416 0.22269 0.0
H319 H 0.86943 0.85055 0.20166 0.0
H320 H 0.91416 0.83695 0.21366 0.0
H321 H 0.92497 0.82613 0.16303 0.0
H322 H 0.88051 0.83912 0.15096 0.0
H323 H 0.87494 0.78438 0.13736 0.0
H324 H 0.72244 0.64647 0.16587 0.0
H325 H 0.67947 0.67304 0.1344 0.0
H326 H 0.8011 0.8131 0.14794 0.0
C327 C 0.90484 0.74082 0.18561 0.0
C328 C 0.90012 0.69592 0.18286 0.0
C329 C 0.8563 0.65581 0.18377 0.0
C330 C 0.81665 0.65986 0.18444 0.0
C331 C 0.82152 0.70431 0.18456 0.0
C332 C 0.86492 0.74445 0.1859 0.0
C333 C 0.85988 0.78617 0.17958 0.0
C334 C 0.87602 0.82154 0.20597 0.0
C335 C 0.88656 0.81021 0.15634 0.0
C336 C 0.80724 0.76181 0.17045 0.0
C337 C 0.78549 0.71513 0.17492 0.0
C338 C 0.73863 0.68328 0.16331 0.0
C339 C 0.71442 0.69854 0.14539 0.0
C340 C 0.73716 0.74519 0.13925 0.0
C341 C 0.78288 0.77778 0.15325 0.0
H342 H 0.32353 0.807 0.45848 0.0
H343 H 0.31136 0.89635 0.52083 0.0
H344 H 0.23164 0.83239 0.52283 0.0
H345 H 0.22227 0.76662 0.4203 0.0
H346 H 0.20668 0.70654 0.4105 0.0
H347 H 0.26718 0.75137 0.42045 0.0
H348 H 0.27884 0.70557 0.4587 0.0
H349 H 0.2182 0.65971 0.44851 0.0
H350 H 0.24082 0.68759 0.48403 0.0
H351 H 0.14946 0.77256 0.50762 0.0
H352 H 1.07255 0.71885 0.4792 0.0
H353 H 0.13579 0.66164 0.42899 0.0
C354 C 0.30497 0.81194 0.47367 0.0
C355 C 0.32329 0.85627 0.48953 0.0
C356 C 0.29767 0.86246 0.5085 0.0
C357 C 0.25253 0.82622 0.50991 0.0
C358 C 0.23394 0.78382 0.49254 0.0
C359 C 0.25976 0.77598 0.47523 0.0
C360 C 0.22921 0.73073 0.45534 0.0
C361 C 0.23147 0.7394 0.42488 0.0
C362 C 0.24256 0.6937 0.46206 0.0
C363 C 0.18159 0.71711 0.46223 0.0
C364 C 0.18526 0.74744 0.48424 0.0
C365 C 0.14602 0.74718 0.49121 0.0
C366 C 0.10216 0.71618 0.47484 0.0
C367 C 0.09761 0.6854 0.45177 0.0
C368 C 0.13782 0.68468 0.44634 0.0
H369 H 0.58102 0.26567 0.85919 0.0
H370 H 0.72574 0.34045 0.84769 0.0
H371 H 0.72178 0.26485 0.8367 0.0
H372 H 0.58309 0.15505 0.88391 0.0
H373 H 0.52356 0.11831 0.86573 0.0
H374 H 0.54284 0.17652 0.88256 0.0
H375 H 0.51511 0.19631 0.83624 0.0
H376 H 0.49673 0.13911 0.81918 0.0
H377 H 0.53827 0.19053 0.80594 0.0
H378 H 0.69469 0.18643 0.81184 0.0
H379 H 0.64875 0.11181 0.77973 0.0
H380 H 0.52286 0.08634 0.80952 0.0
C381 C 0.61284 0.26634 0.85616 0.0
C382 C 0.65345 0.30896 0.85399 0.0
C383 C 0.69393 0.30816 0.84907 0.0
C384 C 0.69214 0.26531 0.84306 0.0
C385 C 0.65007 0.22363 0.84287 0.0
C386 C 0.61151 0.22383 0.85024 0.0
C387 C 0.56815 0.17526 0.84375 0.0
C388 C 0.55357 0.15509 0.87059 0.0
C389 C 0.52727 0.17539 0.82516 0.0
C390 C 0.58693 0.1491 0.82857 0.0
C391 C 0.63463 0.17703 0.82907 0.0
C392 C 0.65785 0.16349 0.81226 0.0
C393 C 0.6315 0.12129 0.79392 0.0
C394 C 0.58251 0.09327 0.79256 0.0
C395 C 0.56055 0.10642 0.81095 0.0
H396 H 0.56446 0.90616 0.46509 0.0
H397 H 0.69693 0.99932 0.51985 0.0
H398 H 0.70639 0.93151 0.52835 0.0
H399 H 0.52687 0.80489 0.50397 0.0
H400 H 0.50154 0.7612 0.47357 0.0
H401 H 0.50417 0.81679 0.47206 0.0
H402 H 0.54864 0.83097 0.43107 0.0
H403 H 0.54597 0.77535 0.43241 0.0
H404 H 0.60179 0.82858 0.43477 0.0
H405 H 0.70157 0.84771 0.53174 0.0
H406 H 0.68535 0.7654 0.52612 0.0
H407 H 0.55723 0.72423 0.46887 0.0
C408 C 0.59559 0.91269 0.47895 0.0
C409 C 0.62986 0.96038 0.49169 0.0
C410 C 0.66967 0.96486 0.50947 0.0
C411 C 0.67545 0.9257 0.5146 0.0
C412 C 0.64147 0.87985 0.50189 0.0
C413 C 0.60229 0.87332 0.48417 0.0
C414 C 0.57152 0.82037 0.47251 0.0
C415 C 0.52314 0.79958 0.48103 0.0
C416 C 0.56667 0.81341 0.44081 0.0
C417 C 0.59909 0.79825 0.48625 0.0
C418 C 0.63932 0.83313 0.50337 0.0
C419 C 0.66993 0.82072 0.5182 0.0
C420 C 0.66014 0.77294 0.51511 0.0
C421 C 0.61985 0.73587 0.49704 0.0
C422 C 0.58887 0.75013 0.48286 0.0
H423 H 0.8614 0.64776 0.85779 0.0
H424 H 0.78039 0.53206 0.79097 0.0
H425 H 0.84961 0.52371 0.78928 0.0
H426 H 0.97629 0.69733 0.8353 0.0
H427 H 1.0099 0.71006 0.86965 0.0
H428 H 0.955 0.70912 0.86493 0.0
H429 H 0.92454 0.64776 0.89858 0.0
H430 H 0.97941 0.64866 0.90345 0.0
H431 H 0.92506 0.59382 0.89216 0.0
H432 H 0.9346 0.52941 0.79388 0.0
H433 H 1.01452 0.54188 0.80782 0.0
H434 H 1.04204 0.64863 0.87462 0.0
C435 C 0.85792 0.62075 0.84254 0.0
C436 C 0.81309 0.59106 0.82406 0.0
C437 C 0.81249 0.55594 0.80533 0.0
C438 C 0.85257 0.55088 0.80418 0.0
C439 C 0.89552 0.58032 0.82237 0.0
C440 C 0.89806 0.61421 0.84163 0.0
C441 C 0.94778 0.63945 0.85998 0.0
C442 C 0.97379 0.69214 0.85732 0.0
C443 C 0.94397 0.632 0.89035 0.0
C444 C 0.97286 0.61524 0.84805 0.0
C445 C 0.94218 0.58155 0.826 0.0
C446 C 0.95804 0.55571 0.81134 0.0
C447 C 1.00464 0.56339 0.81936 0.0
C448 C 1.03731 0.59644 0.84257 0.0
C449 C 1.01971 0.6227 0.85678 0.0
H450 H 0.3091 0.76855 0.19096 0.0
H451 H 0.23377 0.79094 0.12057 0.0
H452 H 0.30476 0.86712 0.11901 0.0
H453 H 0.37508 0.89316 0.22338 0.0
H454 H 0.42811 0.8932 0.2362 0.0
H455 H 0.37217 0.83935 0.23141 0.0
H456 H 0.40111 0.7983 0.19911 0.0
H457 H 0.45735 0.85204 0.20518 0.0
H458 H 0.42631 0.82639 0.17032 0.0
H459 H 0.39058 0.94696 0.12495 0.0
H460 H 0.4714 1.01533 0.13927 0.0
H461 H 0.49364 0.9452 0.20654 0.0
C462 C 0.30714 0.78915 0.17505 0.0
C463 C 0.26331 0.77115 0.1557 0.0
C464 C 0.26491 0.80162 0.1358 0.0
C465 C 0.30603 0.84591 0.13471 0.0
C466 C 0.3479 0.86237 0.15388 0.0
C467 C 0.34846 0.83472 0.17394 0.0
C468 C 0.3976 0.8616 0.19285 0.0
C469 C 0.39296 0.87245 0.22274 0.0
C470 C 0.42202 0.8328 0.19186 0.0
C471 C 0.42471 0.90786 0.18024 0.0
C472 C 0.39539 0.90763 0.15765 0.0
C473 C 0.41304 0.94661 0.14277 0.0
C474 C 0.46016 0.98609 0.15107 0.0
C475 C 0.49185 0.98881 0.17456 0.0
C476 C 0.47233 0.94736 0.18885 0.0
H477 H 0.58621 0.22567 0.5206 0.0
H478 H 0.6652 0.25038 0.45392 0.0
H479 H 0.6698 0.3272 0.45199 0.0
H480 H 0.52202 0.28541 0.49744 0.0
H481 H 0.52636 0.31108 0.53185 0.0
H482 H 0.52645 0.25671 0.52685 0.0
H483 H 0.60463 0.29365 0.56128 0.0
H484 H 0.60512 0.34831 0.56631 0.0
H485 H 0.65429 0.34748 0.55549 0.0
H486 H 0.66654 0.40762 0.45795 0.0
H487 H 0.66011 0.47691 0.47273 0.0
H488 H 0.58665 0.40411 0.53714 0.0
C489 C 0.60437 0.24696 0.50542 0.0
C490 C 0.62483 0.2297 0.48704 0.0
C491 C 0.64878 0.26085 0.46821 0.0
C492 C 0.65157 0.30534 0.46695 0.0
C493 C 0.63179 0.32139 0.48537 0.0
C494 C 0.60895 0.29295 0.50451 0.0
C495 C 0.59229 0.31932 0.52278 0.0
C496 C 0.53859 0.29146 0.51954 0.0
C497 C 0.61545 0.32768 0.55327 0.0
C498 C 0.60908 0.36662 0.51113 0.0
C499 C 0.6314 0.36701 0.48927 0.0
C500 C 0.64909 0.40686 0.47519 0.0
C501 C 0.64496 0.44679 0.48373 0.0
C502 C 0.62332 0.44876 0.50662 0.0
C503 C 0.60469 0.40651 0.51999 0.0
H504 H 0.49001 0.53291 0.8101 0.0
H505 H 0.59038 0.67704 0.84576 0.0
H506 H 0.52515 0.68937 0.8535 0.0
H507 H 0.40292 0.55872 0.77359 0.0
H508 H 0.35267 0.50505 0.77906 0.0
H509 H 0.40721 0.50705 0.77739 0.0
H510 H 0.40662 0.4787 0.82526 0.0
H511 H 0.3522 0.47688 0.82711 0.0
H512 H 0.40227 0.51107 0.85442 0.0
H513 H 0.44182 0.68621 0.85724 0.0
H514 H 0.35958 0.66855 0.85416 0.0
H515 H 0.31073 0.52789 0.81429 0.0
C516 C 0.49875 0.56734 0.8195 0.0
C517 C 0.54785 0.60404 0.82711 0.0
C518 C 0.55488 0.64794 0.83924 0.0
C519 C 0.51713 0.65531 0.84387 0.0
C520 C 0.46983 0.61904 0.83589 0.0
C521 C 0.46072 0.57577 0.82365 0.0
C522 C 0.40666 0.54279 0.81618 0.0
C523 C 0.39146 0.52747 0.78469 0.0
C524 C 0.39101 0.49979 0.83165 0.0
C525 C 0.38667 0.57351 0.82613 0.0
C526 C 0.42371 0.61753 0.83767 0.0
C527 C 0.41331 0.65145 0.84822 0.0
C528 C 0.36546 0.64087 0.84665 0.0
C529 C 0.32583 0.59638 0.83431 0.0
C530 C 0.33835 0.56253 0.82416 0.0
H531 H 0.9434 0.50401 0.14437 0.0
H532 H 1.04206 0.46153 0.17562 0.0
H533 H 0.97622 0.38473 0.18197 0.0
H534 H 0.85764 0.44342 0.18982 0.0
H535 H 0.80677 0.42535 0.16359 0.0
H536 H 0.86151 0.47764 0.16194 0.0
H537 H 0.85892 0.4445 0.11251 0.0
H538 H 0.8041 0.39222 0.11399 0.0
H539 H 0.85304 0.38738 0.10636 0.0
H540 H 0.89319 0.30604 0.18584 0.0
H541 H 0.81074 0.24127 0.18286 0.0
H542 H 0.76318 0.33097 0.1484 0.0
C543 C 0.95164 0.47883 0.1526 0.0
C544 C 1.00045 0.49143 0.1594 0.0
C545 C 1.00682 0.45518 0.16996 0.0
C546 C 0.96874 0.41043 0.17379 0.0
C547 C 0.92181 0.3994 0.16698 0.0
C548 C 0.91326 0.43288 0.15633 0.0
C549 C 0.85933 0.41165 0.14995 0.0
C550 C 0.84549 0.44129 0.16735 0.0
C551 C 0.84287 0.40879 0.11886 0.0
C552 C 0.8389 0.36156 0.15854 0.0
C553 C 0.87559 0.35516 0.16857 0.0
C554 C 0.86488 0.31164 0.17784 0.0
C555 C 0.81697 0.27431 0.17634 0.0
C556 C 0.77766 0.27843 0.16538 0.0
C557 C 0.79052 0.32423 0.15677 0.0
H558 H 0.11411 0.65199 0.05353 0.0
H559 H 0.17845 0.57 0.07708 0.0
H560 H 0.1878 0.55921 0.02838 0.0
H561 H 1.05006 0.58534 0.98727 0.0
H562 H 1.05981 0.63592 0.97072 0.0
H563 H 1.05873 0.63735 0.00731 0.0
H564 H 0.14121 0.71236 0.01755 0.0
H565 H 0.14252 0.71121 0.98096 0.0
H566 H 0.18894 0.71173 0.00444 0.0
H567 H 0.18643 0.55452 0.97577 0.0
H568 H 0.17703 0.55821 0.92553 0.0
H569 H 0.11859 0.64822 0.9373 0.0
C570 C 0.13017 0.63166 0.04857 0.0
C571 C 0.14521 0.61153 0.06935 0.0
C572 C 0.16649 0.58571 0.06171 0.0
C573 C 0.17194 0.57939 0.03403 0.0
C574 C 0.15646 0.59954 0.01411 0.0
C575 C 0.13634 0.6255 0.02117 0.0
C576 C 0.12292 0.64391 -0.00396 0.0
C577 C 1.06973 0.62446 -0.01001 0.0
C578 C 0.15056 0.69801 -1e-05 0.0
C579 C 0.13797 0.62377 0.97357 0.0
C580 C 0.15716 0.59821 0.98434 0.0
C581 C 0.17202 0.57503 0.96729 0.0
C582 C 0.1669 0.57776 0.93862 0.0
C583 C 0.14737 0.60387 0.92692 0.0
C584 C 0.13326 0.6275 0.94506 0.0
H585 H 0.57303 0.08015 0.38514 0.0
H586 H 0.71825 0.11775 0.40874 0.0
H587 H 0.72655 0.11949 0.3592 0.0
H588 H 0.54705 1.00351 0.32273 0.0
H589 H 0.50913 1.02088 0.30424 0.0
H590 H 0.51552 1.02346 0.34137 0.0
H591 H 0.54038 0.11163 0.34623 0.0
H592 H 0.53409 0.10934 0.30911 0.0
H593 H 0.58891 0.15198 0.33092 0.0
H594 H 0.71793 0.11755 0.30578 0.0
H595 H 0.69283 0.10908 0.25502 0.0
H596 H 0.55319 0.07223 0.26764 0.0
C597 C 0.6068 0.08891 0.38009 0.0
C598 C 0.64511 0.099 0.40109 0.0
C599 C 0.68837 0.10989 0.39319 0.0
C600 C 0.69338 0.11103 0.36504 0.0
C601 C 0.65477 0.10099 0.34494 0.0
C602 C 0.61227 0.08994 0.35225 0.0
C603 C 0.57573 0.07979 0.32698 0.0
C604 C 0.53443 1.02889 0.32364 0.0
C605 C 0.5588 0.11531 0.3284 0.0
C606 C 0.6041 0.0868 0.30412 0.0
C607 C 0.6497 0.09924 0.31477 0.0
C608 C 0.68225 0.10776 0.29737 0.0
C609 C 0.66774 0.1031 0.26851 0.0
C610 C 0.62092 0.08972 0.25713 0.0
C611 C 0.58903 0.08183 0.27545 0.0
H612 H 0.70486 0.62648 0.72418 0.0
H613 H 0.57419 0.50302 0.73286 0.0
H614 H 0.55143 0.48402 0.68211 0.0
H615 H 0.65649 0.65722 0.66309 0.0
H616 H 0.70729 0.67549 0.64698 0.0
H617 H 0.71362 0.68077 0.68423 0.0
H618 H 0.75407 0.63128 0.68542 0.0
H619 H 0.748 0.62598 0.64821 0.0
H620 H 0.72468 0.57389 0.66501 0.0
H621 H 0.54323 0.47573 0.6306 0.0
H622 H 0.55045 0.47895 0.58123 0.0
H623 H 0.685 0.60812 0.60397 0.0
C624 C 0.67138 0.59556 0.7154 0.0
C625 C 0.6414 0.5663 0.73282 0.0
C626 C 0.59794 0.52613 0.72027 0.0
C627 C 0.58457 0.51499 0.69133 0.0
C628 C 0.61478 0.54431 0.67483 0.0
C629 C 0.65728 0.58384 0.6863 0.0
C630 C 0.68334 0.60874 0.66354 0.0
C631 C 0.69061 0.65851 0.66453 0.0
C632 C 0.73031 0.61004 0.66568 0.0
C633 C 0.64901 0.57676 0.63759 0.0
C634 C 0.60969 0.53987 0.64475 0.0
C635 C 0.57367 0.50466 0.62475 0.0
C636 C 0.57803 0.50678 0.59674 0.0
C637 C 0.61794 0.54394 0.5887 0.0
C638 C 0.65372 0.57973 0.60947 0.0
H639 H 0.65506 0.10785 0.5891 0.0
H640 H 0.51835 0.06347 0.54088 0.0
H641 H 0.48438 1.0507 0.58344 0.0
H642 H 0.61459 1.02224 0.63269 0.0
H643 H 0.65499 1.05839 0.66383 0.0
H644 H 0.67101 0.07178 0.63047 0.0
H645 H 0.68661 0.15632 0.64215 0.0
H646 H 0.67115 0.14337 0.67575 0.0
H647 H 0.6413 0.16466 0.65294 0.0
H648 H 0.46306 1.03405 0.62944 0.0
H649 H 0.45602 1.01696 0.67739 0.0
H650 H 0.60557 0.06941 0.69653 0.0
C651 C 0.61841 0.09699 0.58782 0.0
C652 C 0.58928 0.08712 0.56195 0.0
C653 C 0.54112 0.07145 0.56066 0.0
C654 C 0.52155 0.06417 0.58468 0.0
C655 C 0.5506 0.07257 0.60984 0.0
C656 C 0.59804 0.08892 0.61173 0.0
C657 C 0.62018 0.09089 0.6411 0.0
C658 C 0.64143 1.05891 0.64206 0.0
C659 C 0.65699 0.14185 0.65373 0.0
C660 C 0.57754 0.07191 0.65506 0.0
C661 C 0.53794 0.06205 0.63666 0.0
C662 C 0.49388 1.04207 0.64419 0.0
C663 C 0.49013 1.03204 0.67137 0.0
C664 C 0.53018 1.04177 0.69065 0.0
C665 C 0.57446 0.06219 0.68233 0.0
H666 H 0.72048 0.69947 0.90541 0.0
H667 H 0.66377 0.55172 0.91355 0.0
H668 H 0.65884 0.56821 0.96242 0.0
H669 H 0.7911 0.74526 0.97461 0.0
H670 H 0.78031 0.79336 0.97839 0.0
H671 H 0.78047 0.76964 0.9445 0.0
H672 H 0.69704 0.75505 0.92753 0.0
H673 H 0.69631 0.77813 0.96146 0.0
H674 H 0.65041 0.71991 0.94573 0.0
H675 H 0.65491 0.60021 0.00917 0.0
H676 H 0.65991 0.64627 0.05204 0.0
H677 H 0.72367 0.77387 0.01373 0.0
C678 C 0.7074 0.6706 0.91752 0.0
C679 C 0.6924 0.6243 0.90575 0.0
C680 C 0.67571 0.58752 0.92227 0.0
C681 C 0.67253 0.5965 0.94995 0.0
C682 C 0.68669 0.64246 0.96073 0.0
C683 C 0.70449 0.67901 0.94515 0.0
C684 C 0.71758 0.72526 0.96161 0.0
C685 C 0.77051 0.76044 0.96498 0.0
C686 C 0.6886 0.74578 0.94828 0.0
C687 C 0.70391 0.709 -0.01112 0.0
C688 C 0.68586 0.6611 -0.01211 0.0
C689 C 0.66969 0.63786 0.01035 0.0
C690 C 0.67293 0.66445 0.03466 0.0
C691 C 0.69278 0.71393 0.0365 0.0
C692 C 0.70799 0.73617 0.01307 0.0
H693 H 0.12219 0.60646 0.25432 0.0
H694 H 1.05929 0.6787 0.21223 0.0
H695 H 1.01868 0.67564 0.25111 0.0
H696 H 1.02332 0.53058 0.28696 0.0
H697 H 1.05989 0.53642 0.31903 0.0
H698 H 1.08156 0.54073 0.2869 0.0
H699 H 0.15358 0.62256 0.30737 0.0
H700 H 0.13237 0.61824 0.3396 0.0
H701 H 0.14448 0.66813 0.32175 0.0
H702 H 0.98593 0.66655 0.29472 0.0
H703 H 0.97097 0.66033 0.3428 0.0
H704 H 1.05704 0.59704 0.35779 0.0
C705 C 0.0997 0.62138 0.25333 0.0
C706 C 0.09398 0.64285 0.2303 0.0
C707 C 1.0646 0.66245 0.22979 0.0
C708 C 1.04095 0.6605 0.25166 0.0
C709 C 1.04727 0.63918 0.27409 0.0
C710 C 1.07639 0.62053 0.27533 0.0
C711 C 1.07972 0.60289 0.30285 0.0
C712 C 1.05993 0.54948 0.29867 0.0
C713 C 0.13055 0.62956 0.31883 0.0
C714 C 1.04849 0.61514 0.31689 0.0
C715 C 1.02941 0.63522 0.29973 0.0
C716 C 1.00044 0.65063 0.30835 0.0
C717 C 0.99185 0.64669 0.33558 0.0
C718 C 1.01273 0.62811 0.35387 0.0
C719 C 1.04056 0.61126 0.34414 0.0
loop_
_geom_bond_atom_site_label_1
_geom_bond_atom_site_label_2
_geom_bond_distance
_geom_bond_site_symmetry_2
_ccdc_geom_bond_type
Tb0 C10 2.825 . S
Tb0 O11 2.347 . S
Tb0 O14 2.366 . S
Tb0 O19 2.418 . S
Tb0 O20 2.384 1_455 S
Tb0 O23 2.479 . S
Tb0 O24 2.471 . S
Eu1 O12 2.418 . S
Eu1 O13 2.384 . S
Eu1 O16 2.479 1_455 S
Eu1 O17 2.471 1_455 S
Eu1 O18 2.347 . S
Eu1 O21 2.366 1_455 S
Eu1 C31 2.825 1_455 S
C2 O18 1.259 . S
C2 O19 1.265 . S
C3 O20 1.255 . S
C3 O21 1.265 . S
C4 C6 1.380 . S
C4 C7 1.374 . S
C4 C10 1.507 . S
C5 C6 1.384 . S
C5 C9 1.387 . S
C5 H32 0.930 . S
C6 C4 1.380 . S
C6 C5 1.384 . S
C6 H33 0.931 . S
C7 C4 1.374 . S
C7 C8 1.390 . S
C7 H34 0.930 . S
C8 C7 1.390 . S
C8 C9 1.391 . S
C8 H35 0.930 . S
C9 C5 1.387 . S
C9 C8 1.391 . S
C10 Tb0 2.825 . S
C10 C4 1.507 . S
C10 O23 1.238 . S
C10 O24 1.247 . S
O11 Tb0 2.347 . S
O11 C15 1.259 . S
O12 Eu1 2.418 . S
O12 C15 1.265 . S
O13 Eu1 2.384 . S
O13 C22 1.255 . S
O14 Tb0 2.366 . S
O14 C22 1.265 . S
C15 O11 1.259 . S
C15 O12 1.265 . S
O16 Eu1 2.479 1_655 S
O16 C31 1.238 . S
O17 Eu1 2.471 1_655 S
O17 C31 1.247 . S
O18 Eu1 2.347 . S
O18 C2 1.259 . S
O19 Tb0 2.418 . S
O19 C2 1.265 . S
O20 Tb0 2.384 1_655 S
O20 C3 1.255 . S
O21 Eu1 2.366 1_655 S
O21 C3 1.265 . S
C22 O13 1.255 . S
C22 O14 1.265 . S
O23 Tb0 2.479 . S
O23 C10 1.238 . S
O24 Tb0 2.471 . S
O24 C10 1.247 . S
C25 C28 1.380 . S
C25 C29 1.374 . S
C25 C31 1.507 . S
C26 C27 1.387 . S
C26 C30 1.391 . S
C27 C26 1.387 . S
C27 C28 1.384 . S
C27 H36 0.930 . S
C28 C25 1.380 . S
C28 C27 1.384 . S
C28 H37 0.931 . S
C29 C25 1.374 . S
C29 C30 1.390 . S
C29 H38 0.930 . S
C30 C26 1.391 . S
C30 C29 1.390 . S
C30 H39 0.930 . S
C31 Eu1 2.825 1_655 S
C31 O16 1.238 . S
C31 O17 1.247 . S
C31 C25 1.507 . S
H32 C5 0.930 . S
H33 C6 0.931 . S
H34 C7 0.930 . S
H35 C8 0.930 . S
H36 C27 0.930 . S
H37 C28 0.931 . S
H38 C29 0.930 . S
H39 C30 0.930 . S
Tb40 C50 2.825 . S
Tb40 O51 2.347 . S
Tb40 O54 2.366 . S
Tb40 O59 2.418 . S
Tb40 O60 2.384 . S
Tb40 O63 2.479 . S
Tb40 O64 2.471 . S
Eu41 O52 2.418 . S
Eu41 O53 2.384 . S
Eu41 O56 2.479 1_545 S
Eu41 O57 2.471 1_545 S
Eu41 O58 2.347 . S
Eu41 O61 2.366 1_545 S
Eu41 C71 2.825 1_545 S
C42 O58 1.259 . S
C42 O59 1.265 . S
C43 O60 1.255 1_565 S
C43 O61 1.265 . S
C44 C46 1.380 . S
C44 C47 1.374 . S
C44 C50 1.507 . S
C45 C46 1.384 . S
C45 C49 1.387 . S
C45 H72 0.930 . S
C46 C44 1.380 . S
C46 C45 1.384 . S
C46 H73 0.931 . S
C47 C44 1.374 . S
C47 C48 1.390 . S
C47 H74 0.930 . S
C48 C47 1.390 . S
C48 C49 1.391 . S
C48 H75 0.930 . S
C49 C45 1.387 . S
C49 C48 1.391 . S
C50 Tb40 2.825 . S
C50 C44 1.507 . S
C50 O63 1.238 . S
C50 O64 1.247 . S
O51 Tb40 2.347 . S
O51 C55 1.259 . S
O52 Eu41 2.418 . S
O52 C55 1.265 . S
O53 Eu41 2.384 . S
O53 C62 1.255 . S
O54 Tb40 2.366 . S
O54 C62 1.265 . S
C55 O51 1.259 . S
C55 O52 1.265 . S
O56 Eu41 2.479 1_565 S
O56 C71 1.238 . S
O57 Eu41 2.471 1_565 S
O57 C71 1.247 . S
O58 Eu41 2.347 . S
O58 C42 1.259 . S
O59 Tb40 2.418 . S
O59 C42 1.265 . S
O60 Tb40 2.384 . S
O60 C43 1.255 1_545 S
O61 Eu41 2.366 1_565 S
O61 C43 1.265 . S
C62 O53 1.255 . S
C62 O54 1.265 . S
O63 Tb40 2.479 . S
O63 C50 1.238 . S
O64 Tb40 2.471 . S
O64 C50 1.247 . S
C65 C68 1.380 . S
C65 C69 1.374 . S
C65 C71 1.507 . S
C66 C67 1.387 . S
C66 C70 1.391 . S
C67 C66 1.387 . S
C67 C68 1.384 . S
C67 H76 0.930 . S
C68 C65 1.380 . S
C68 C67 1.384 . S
C68 H77 0.931 . S
C69 C65 1.374 . S
C69 C70 1.390 . S
C69 H78 0.930 . S
C70 C66 1.391 . S
C70 C69 1.390 . S
C70 H79 0.930 . S
C71 Eu41 2.825 1_565 S
C71 O56 1.238 . S
C71 O57 1.247 . S
C71 C65 1.507 . S
H72 C45 0.930 . S
H73 C46 0.931 . S
H74 C47 0.930 . S
H75 C48 0.930 . S
H76 C67 0.930 . S
H77 C68 0.931 . S
H78 C69 0.930 . S
H79 C70 0.930 . S
Tb80 C90 2.825 . S
Tb80 O91 2.347 . S
Tb80 O94 2.366 . S
Tb80 O99 2.418 . S
Tb80 O100 2.384 . S
Tb80 O103 2.479 . S
Tb80 O104 2.471 . S
Eu81 O92 2.418 . S
Eu81 O93 2.384 . S
Eu81 O96 2.479 . S
Eu81 O97 2.471 . S
Eu81 O98 2.347 . S
Eu81 O101 2.366 . S
Eu81 C111 2.825 . S
C82 O98 1.259 . S
C82 O99 1.265 . S
C83 O100 1.255 . S
C83 O101 1.265 . S
C84 C86 1.380 . S
C84 C87 1.374 . S
C84 C90 1.507 . S
C85 C86 1.384 . S
C85 C89 1.387 . S
C85 H112 0.930 . S
C86 C84 1.380 . S
C86 C85 1.384 . S
C86 H113 0.931 . S
C87 C84 1.374 . S
C87 C88 1.390 . S
C87 H114 0.930 . S
C88 C87 1.390 . S
C88 C89 1.391 . S
C88 H115 0.930 . S
C89 C85 1.387 . S
C89 C88 1.391 . S
C90 Tb80 2.825 . S
C90 C84 1.507 . S
C90 O103 1.238 . S
C90 O104 1.247 . S
O91 Tb80 2.347 . S
O91 C95 1.259 . S
O92 Eu81 2.418 . S
O92 C95 1.265 . S
O93 Eu81 2.384 . S
O93 C102 1.255 . S
O94 Tb80 2.366 . S
O94 C102 1.265 . S
C95 O91 1.259 . S
C95 O92 1.265 . S
O96 Eu81 2.479 . S
O96 C111 1.238 . S
O97 Eu81 2.471 . S
O97 C111 1.247 . S
O98 Eu81 2.347 . S
O98 C82 1.259 . S
O99 Tb80 2.418 . S
O99 C82 1.265 . S
O100 Tb80 2.384 . S
O100 C83 1.255 . S
O101 Eu81 2.366 . S
O101 C83 1.265 . S
C102 O93 1.255 . S
C102 O94 1.265 . S
O103 Tb80 2.479 . S
O103 C90 1.238 . S
O104 Tb80 2.471 . S
O104 C90 1.247 . S
C105 C108 1.380 . S
C105 C109 1.374 . S
C105 C111 1.507 . S
C106 C107 1.387 . S
C106 C110 1.391 . S
C107 C106 1.387 . S
C107 C108 1.384 . S
C107 H116 0.930 . S
C108 C105 1.380 . S
C108 C107 1.384 . S
C108 H117 0.931 . S
C109 C105 1.374 . S
C109 C110 1.390 . S
C109 H118 0.930 . S
C110 C106 1.391 . S
C110 C109 1.390 . S
C110 H119 0.930 . S
C111 Eu81 2.825 . S
C111 O96 1.238 . S
C111 O97 1.247 . S
C111 C105 1.507 . S
H112 C85 0.930 . S
H113 C86 0.931 . S
H114 C87 0.930 . S
H115 C88 0.930 . S
H116 C107 0.930 . S
H117 C108 0.931 . S
H118 C109 0.930 . S
H119 C110 0.930 . S
H120 C121 0.949 . S
C121 H120 0.949 . S
C121 C122 1.395 . S
C121 C123 1.391 . S
C122 C121 1.395 . S
C122 C125 1.390 . S
C123 C121 1.391 . S
C123 C127 1.387 . S
C123 C128 1.491 . S
H124 C125 0.950 1_565 S
C125 C122 1.390 . S
C125 H124 0.950 1_545 S
C125 C126 1.378 . S
C126 C125 1.378 . S
C126 C127 1.409 . S
C127 C123 1.387 . S
C127 C126 1.409 . S
C127 H129 0.951 . S
C128 C123 1.491 . S
C128 C130 1.382 . S
C128 C132 1.404 . S
H129 C127 0.951 . S
C130 C128 1.382 . S
C130 C131 1.390 . S
C130 H135 0.949 . S
C131 C130 1.390 . S
C131 C136 1.399 . S
C132 C128 1.404 . S
C132 H133 0.950 . S
C132 C134 1.375 . S
H133 C132 0.950 . S
C134 C132 1.375 . S
C134 C136 1.382 . S
C134 H138 0.950 . S
H135 C130 0.949 . S
C136 C131 1.399 . S
C136 C134 1.382 . S
C136 H137 0.952 . S
H137 C136 0.952 . S
H138 C134 0.950 . S
H139 C140 0.949 . S
C140 H139 0.949 . S
C140 C141 1.395 . S
C140 C142 1.391 . S
C141 C140 1.395 . S
C141 C144 1.390 . S
C142 C140 1.391 . S
C142 C146 1.387 . S
C142 C147 1.491 . S
H143 C144 0.950 . S
C144 C141 1.390 . S
C144 H143 0.950 . S
C144 C145 1.378 . S
C145 C144 1.378 . S
C145 C146 1.409 . S
C146 C142 1.387 . S
C146 C145 1.409 . S
C146 H148 0.951 . S
C147 C142 1.491 . S
C147 C149 1.382 . S
C147 C151 1.404 . S
H148 C146 0.951 . S
C149 C147 1.382 . S
C149 C150 1.390 . S
C149 H154 0.949 . S
C150 C149 1.390 . S
C150 C155 1.399 . S
C151 C147 1.404 . S
C151 H152 0.950 . S
C151 C153 1.375 . S
H152 C151 0.950 . S
C153 C151 1.375 . S
C153 C155 1.382 . S
C153 H157 0.950 . S
H154 C149 0.949 . S
C155 C150 1.399 . S
C155 C153 1.382 . S
C155 H156 0.952 . S
H156 C155 0.952 . S
H157 C153 0.950 . S
H158 C159 0.949 . S
C159 H158 0.949 . S
C159 C160 1.395 . S
C159 C161 1.391 . S
C160 C159 1.395 . S
C160 C163 1.390 1_455 S
C161 C159 1.391 . S
C161 C165 1.387 . S
C161 C166 1.491 . S
H162 C163 0.950 . S
C163 C160 1.390 1_655 S
C163 H162 0.950 . S
C163 C164 1.378 . S
C164 C163 1.378 . S
C164 C165 1.409 1_655 S
C165 C161 1.387 . S
C165 C164 1.409 1_455 S
C165 H167 0.951 1_455 S
C166 C161 1.491 . S
C166 C168 1.382 . S
C166 C170 1.404 . S
H167 C165 0.951 1_655 S
C168 C166 1.382 . S
C168 C169 1.390 . S
C168 H173 0.949 . S
C169 C168 1.390 . S
C169 C174 1.399 . S
C170 C166 1.404 . S
C170 H171 0.950 . S
C170 C172 1.375 . S
H171 C170 0.950 . S
C172 C170 1.375 . S
C172 C174 1.382 . S
C172 H176 0.950 . S
H173 C168 0.949 . S
C174 C169 1.399 . S
C174 C172 1.382 . S
C174 H175 0.952 . S
H175 C174 0.952 . S
H176 C172 0.950 . S
H177 C178 0.949 1_655 S
C178 H177 0.949 1_455 S
C178 C179 1.395 . S
C178 C180 1.391 . S
C179 C178 1.395 . S
C179 C182 1.390 . S
C180 C178 1.391 . S
C180 C184 1.387 . S
C180 C185 1.491 1_455 S
H181 C182 0.950 . S
C182 C179 1.390 . S
C182 H181 0.950 . S
C182 C183 1.378 . S
C183 C182 1.378 . S
C183 C184 1.409 . S
C184 C180 1.387 . S
C184 C183 1.409 . S
C184 H186 0.951 . S
C185 C180 1.491 1_655 S
C185 C187 1.382 . S
C185 C189 1.404 . S
H186 C184 0.951 . S
C187 C185 1.382 . S
C187 C188 1.390 . S
C187 H192 0.949 . S
C188 C187 1.390 . S
C188 C193 1.399 . S
C189 C185 1.404 . S
C189 H190 0.950 . S
C189 C191 1.375 . S
H190 C189 0.950 . S
C191 C189 1.375 . S
C191 C193 1.382 . S
C191 H195 0.950 . S
H192 C187 0.949 . S
C193 C188 1.399 . S
C193 C191 1.382 . S
C193 H194 0.952 . S
H194 C193 0.952 . S
H195 C191 0.950 . S
H196 C197 0.949 1_565 S
C197 H196 0.949 1_545 S
C197 C198 1.395 . S
C197 C199 1.391 . S
C198 C197 1.395 . S
C198 C201 1.390 . S
C199 C197 1.391 . S
C199 C203 1.387 . S
C199 C204 1.491 1_545 S
H200 C201 0.950 . S
C201 C198 1.390 . S
C201 H200 0.950 . S
C201 C202 1.378 . S
C202 C201 1.378 . S
C202 C203 1.409 . S
C203 C199 1.387 . S
C203 C202 1.409 . S
C203 H205 0.951 . S
C204 C199 1.491 1_565 S
C204 C206 1.382 . S
C204 C208 1.404 . S
H205 C203 0.951 . S
C206 C204 1.382 . S
C206 C207 1.390 . S
C206 H211 0.949 . S
C207 C206 1.390 . S
C207 C212 1.399 . S
C208 C204 1.404 . S
C208 H209 0.950 . S
C208 C210 1.375 . S
H209 C208 0.950 . S
C210 C208 1.375 . S
C210 C212 1.382 . S
C210 H214 0.950 . S
H211 C206 0.949 . S
C212 C207 1.399 . S
C212 C210 1.382 . S
C212 H213 0.952 . S
H213 C212 0.952 . S
H214 C210 0.950 . S
H215 C216 0.949 . S
C216 H215 0.949 . S
C216 C217 1.395 . S
C216 C218 1.391 . S
C217 C216 1.395 . S
C217 C220 1.390 . S
C218 C216 1.391 . S
C218 C222 1.387 . S
C218 C223 1.491 . S
H219 C220 0.950 . S
C220 C217 1.390 . S
C220 H219 0.950 . S
C220 C221 1.378 . S
C221 C220 1.378 . S
C221 C222 1.409 . S
C222 C218 1.387 . S
C222 C221 1.409 . S
C222 H224 0.951 . S
C223 C218 1.491 . S
C223 C225 1.382 . S
C223 C227 1.404 . S
H224 C222 0.951 . S
C225 C223 1.382 . S
C225 C226 1.390 . S
C225 H230 0.949 . S
C226 C225 1.390 . S
C226 C231 1.399 . S
C227 C223 1.404 . S
C227 H228 0.950 . S
C227 C229 1.375 . S
H228 C227 0.950 . S
C229 C227 1.375 . S
C229 C231 1.382 . S
C229 H233 0.950 . S
H230 C225 0.949 . S
C231 C226 1.399 . S
C231 C229 1.382 . S
C231 H232 0.952 . S
H232 C231 0.952 . S
H233 C229 0.950 . S
H234 C246 0.930 . S
H235 C248 0.930 . S
H236 C249 0.930 . S
H237 C253 0.959 . S
H238 C253 0.959 . S
H239 C253 0.961 . S
H240 C254 0.960 . S
H241 C254 0.961 . S
H242 C254 0.959 . S
H243 C257 0.929 . S
H244 C258 0.931 . S
H245 C260 0.930 . S
C246 H234 0.930 . S
C246 C247 1.399 . S
C246 C251 1.399 . S
C247 C246 1.399 . S
C247 C248 1.376 . S
C248 H235 0.930 . S
C248 C247 1.376 . S
C248 C249 1.388 . S
C249 H236 0.930 . S
C249 C248 1.388 . S
C249 C250 1.390 . S
C250 C249 1.390 . S
C250 C251 1.394 . S
C250 C256 1.465 . S
C251 C246 1.399 . S
C251 C250 1.394 . S
C251 C252 1.516 . S
C252 C251 1.516 . S
C252 C253 1.502 . S
C252 C254 1.561 . S
C252 C255 1.526 . S
C253 H237 0.959 . S
C253 H238 0.959 . S
C253 H239 0.961 . S
C253 C252 1.502 . S
C254 H240 0.960 . S
C254 H241 0.961 . S
C254 H242 0.959 . S
C254 C252 1.561 . S
C255 C252 1.526 . S
C255 C256 1.396 . S
C255 C260 1.390 . S
C256 C250 1.465 . S
C256 C255 1.396 . S
C256 C257 1.399 . S
C257 H243 0.929 . S
C257 C256 1.399 . S
C257 C258 1.385 . S
C258 H244 0.931 . S
C258 C257 1.385 . S
C258 C259 1.389 . S
C259 C258 1.389 . S
C259 C260 1.387 . S
C260 H245 0.930 . S
C260 C255 1.390 . S
C260 C259 1.387 . S
H261 C273 0.930 . S
H262 C275 0.930 . S
H263 C276 0.930 . S
H264 C280 0.959 . S
H265 C280 0.959 . S
H266 C280 0.961 . S
H267 C281 0.960 . S
H268 C281 0.961 . S
H269 C281 0.959 . S
H270 C284 0.929 . S
H271 C285 0.931 . S
H272 C287 0.930 . S
C273 H261 0.930 . S
C273 C274 1.399 . S
C273 C278 1.399 . S
C274 C273 1.399 . S
C274 C275 1.376 . S
C275 H262 0.930 . S
C275 C274 1.376 . S
C275 C276 1.388 . S
C276 H263 0.930 . S
C276 C275 1.388 . S
C276 C277 1.390 . S
C277 C276 1.390 . S
C277 C278 1.394 . S
C277 C283 1.465 . S
C278 C273 1.399 . S
C278 C277 1.394 . S
C278 C279 1.516 . S
C279 C278 1.516 . S
C279 C280 1.502 . S
C279 C281 1.561 . S
C279 C282 1.526 . S
C280 H264 0.959 . S
C280 H265 0.959 . S
C280 H266 0.961 . S
C280 C279 1.502 . S
C281 H267 0.960 . S
C281 H268 0.961 . S
C281 H269 0.959 . S
C281 C279 1.561 . S
C282 C279 1.526 . S
C282 C283 1.396 . S
C282 C287 1.390 . S
C283 C277 1.465 . S
C283 C282 1.396 . S
C283 C284 1.399 . S
C284 H270 0.929 . S
C284 C283 1.399 . S
C284 C285 1.385 . S
C285 H271 0.931 . S
C285 C284 1.385 . S
C285 C286 1.389 . S
C286 C285 1.389 . S
C286 C287 1.387 . S
C287 H272 0.930 . S
C287 C282 1.390 . S
C287 C286 1.387 . S
H288 C300 0.930 . S
H289 C302 0.930 . S
H290 C303 0.930 . S
H291 C307 0.959 . S
H292 C307 0.959 . S
H293 C307 0.961 . S
H294 C308 0.960 . S
H295 C308 0.961 . S
H296 C308 0.959 . S
H297 C311 0.929 . S
H298 C312 0.931 . S
H299 C314 0.930 . S
C300 H288 0.930 . S
C300 C301 1.399 . S
C300 C305 1.399 . S
C301 C300 1.399 . S
C301 C302 1.376 . S
C302 H289 0.930 . S
C302 C301 1.376 . S
C302 C303 1.388 . S
C303 H290 0.930 . S
C303 C302 1.388 . S
C303 C304 1.390 . S
C304 C303 1.390 . S
C304 C305 1.394 . S
C304 C310 1.465 . S
C305 C300 1.399 . S
C305 C304 1.394 . S
C305 C306 1.516 . S
C306 C305 1.516 . S
C306 C307 1.502 . S
C306 C308 1.561 . S
C306 C309 1.526 . S
C307 H291 0.959 . S
C307 H292 0.959 . S
C307 H293 0.961 . S
C307 C306 1.502 . S
C308 H294 0.960 . S
C308 H295 0.961 . S
C308 H296 0.959 . S
C308 C306 1.561 . S
C309 C306 1.526 . S
C309 C310 1.396 . S
C309 C314 1.390 . S
C310 C304 1.465 . S
C310 C309 1.396 . S
C310 C311 1.399 . S
C311 H297 0.929 . S
C311 C310 1.399 . S
C311 C312 1.385 . S
C312 H298 0.931 . S
C312 C311 1.385 . S
C312 C313 1.389 . S
C313 C312 1.389 . S
C313 C314 1.387 . S
C314 H299 0.930 . S
C314 C309 1.390 . S
C314 C313 1.387 . S
H315 C327 0.930 . S
H316 C329 0.930 . S
H317 C330 0.930 . S
H318 C334 0.959 . S
H319 C334 0.959 . S
H320 C334 0.961 . S
H321 C335 0.960 . S
H322 C335 0.961 . S
H323 C335 0.959 . S
H324 C338 0.929 . S
H325 C339 0.931 . S
H326 C341 0.930 . S
C327 H315 0.930 . S
C327 C328 1.399 . S
C327 C332 1.399 . S
C328 C327 1.399 . S
C328 C329 1.376 . S
C329 H316 0.930 . S
C329 C328 1.376 . S
C329 C330 1.388 . S
C330 H317 0.930 . S
C330 C329 1.388 . S
C330 C331 1.390 . S
C331 C330 1.390 . S
C331 C332 1.394 . S
C331 C337 1.465 . S
C332 C327 1.399 . S
C332 C331 1.394 . S
C332 C333 1.516 . S
C333 C332 1.516 . S
C333 C334 1.502 . S
C333 C335 1.561 . S
C333 C336 1.526 . S
C334 H318 0.959 . S
C334 H319 0.959 . S
C334 H320 0.961 . S
C334 C333 1.502 . S
C335 H321 0.960 . S
C335 H322 0.961 . S
C335 H323 0.959 . S
C335 C333 1.561 . S
C336 C333 1.526 . S
C336 C337 1.396 . S
C336 C341 1.390 . S
C337 C331 1.465 . S
C337 C336 1.396 . S
C337 C338 1.399 . S
C338 H324 0.929 . S
C338 C337 1.399 . S
C338 C339 1.385 . S
C339 H325 0.931 . S
C339 C338 1.385 . S
C339 C340 1.389 . S
C340 C339 1.389 . S
C340 C341 1.387 . S
C341 H326 0.930 . S
C341 C336 1.390 . S
C341 C340 1.387 . S
H342 C354 0.930 . S
H343 C356 0.930 . S
H344 C357 0.930 . S
H345 C361 0.959 . S
H346 C361 0.959 . S
H347 C361 0.961 . S
H348 C362 0.960 . S
H349 C362 0.961 . S
H350 C362 0.959 . S
H351 C365 0.929 . S
H352 C366 0.931 . S
H353 C368 0.930 . S
C354 H342 0.930 . S
C354 C355 1.399 . S
C354 C359 1.399 . S
C355 C354 1.399 . S
C355 C356 1.376 . S
C356 H343 0.930 . S
C356 C355 1.376 . S
C356 C357 1.388 . S
C357 H344 0.930 . S
C357 C356 1.388 . S
C357 C358 1.390 . S
C358 C357 1.390 . S
C358 C359 1.394 . S
C358 C364 1.465 . S
C359 C354 1.399 . S
C359 C358 1.394 . S
C359 C360 1.516 . S
C360 C359 1.516 . S
C360 C361 1.502 . S
C360 C362 1.561 . S
C360 C363 1.526 . S
C361 H345 0.959 . S
C361 H346 0.959 . S
C361 H347 0.961 . S
C361 C360 1.502 . S
C362 H348 0.960 . S
C362 H349 0.961 . S
C362 H350 0.959 . S
C362 C360 1.561 . S
C363 C360 1.526 . S
C363 C364 1.396 . S
C363 C368 1.390 . S
C364 C358 1.465 . S
C364 C363 1.396 . S
C364 C365 1.399 . S
C365 H351 0.929 . S
C365 C364 1.399 . S
C365 C366 1.385 . S
C366 H352 0.931 . S
C366 C365 1.385 . S
C366 C367 1.389 . S
C367 C366 1.389 . S
C367 C368 1.387 . S
C368 H353 0.930 . S
C368 C363 1.390 . S
C368 C367 1.387 . S
H369 C381 0.930 . S
H370 C383 0.930 . S
H371 C384 0.930 . S
H372 C388 0.959 . S
H373 C388 0.959 . S
H374 C388 0.961 . S
H375 C389 0.960 . S
H376 C389 0.961 . S
H377 C389 0.959 . S
H378 C392 0.929 . S
H379 C393 0.931 . S
H380 C395 0.930 . S
C381 H369 0.930 . S
C381 C382 1.399 . S
C381 C386 1.399 . S
C382 C381 1.399 . S
C382 C383 1.376 . S
C383 H370 0.930 . S
C383 C382 1.376 . S
C383 C384 1.388 . S
C384 H371 0.930 . S
C384 C383 1.388 . S
C384 C385 1.390 . S
C385 C384 1.390 . S
C385 C386 1.394 . S
C385 C391 1.465 . S
C386 C381 1.399 . S
C386 C385 1.394 . S
C386 C387 1.516 . S
C387 C386 1.516 . S
C387 C388 1.502 . S
C387 C389 1.561 . S
C387 C390 1.526 . S
C388 H372 0.959 . S
C388 H373 0.959 . S
C388 H374 0.961 . S
C388 C387 1.502 . S
C389 H375 0.960 . S
C389 H376 0.961 . S
C389 H377 0.959 . S
C389 C387 1.561 . S
C390 C387 1.526 . S
C390 C391 1.396 . S
C390 C395 1.390 . S
C391 C385 1.465 . S
C391 C390 1.396 . S
C391 C392 1.399 . S
C392 H378 0.929 . S
C392 C391 1.399 . S
C392 C393 1.385 . S
C393 H379 0.931 . S
C393 C392 1.385 . S
C393 C394 1.389 . S
C394 C393 1.389 . S
C394 C395 1.387 . S
C395 H380 0.930 . S
C395 C390 1.390 . S
C395 C394 1.387 . S
H396 C408 0.930 . S
H397 C410 0.930 . S
H398 C411 0.930 . S
H399 C415 0.959 . S
H400 C415 0.959 . S
H401 C415 0.961 . S
H402 C416 0.960 . S
H403 C416 0.961 . S
H404 C416 0.959 . S
H405 C419 0.929 . S
H406 C420 0.931 . S
H407 C422 0.930 . S
C408 H396 0.930 . S
C408 C409 1.399 . S
C408 C413 1.399 . S
C409 C408 1.399 . S
C409 C410 1.376 . S
C410 H397 0.930 . S
C410 C409 1.376 . S
C410 C411 1.388 . S
C411 H398 0.930 . S
C411 C410 1.388 . S
C411 C412 1.390 . S
C412 C411 1.390 . S
C412 C413 1.394 . S
C412 C418 1.465 . S
C413 C408 1.399 . S
C413 C412 1.394 . S
C413 C414 1.516 . S
C414 C413 1.516 . S
C414 C415 1.502 . S
C414 C416 1.561 . S
C414 C417 1.526 . S
C415 H399 0.959 . S
C415 H400 0.959 . S
C415 H401 0.961 . S
C415 C414 1.502 . S
C416 H402 0.960 . S
C416 H403 0.961 . S
C416 H404 0.959 . S
C416 C414 1.561 . S
C417 C414 1.526 . S
C417 C418 1.396 . S
C417 C422 1.390 . S
C418 C412 1.465 . S
C418 C417 1.396 . S
C418 C419 1.399 . S
C419 H405 0.929 . S
C419 C418 1.399 . S
C419 C420 1.385 . S
C420 H406 0.931 . S
C420 C419 1.385 . S
C420 C421 1.389 . S
C421 C420 1.389 . S
C421 C422 1.387 . S
C422 H407 0.930 . S
C422 C417 1.390 . S
C422 C421 1.387 . S
H423 C435 0.930 . S
H424 C437 0.930 . S
H425 C438 0.930 . S
H426 C442 0.959 . S
H427 C442 0.959 . S
H428 C442 0.961 . S
H429 C443 0.960 . S
H430 C443 0.961 . S
H431 C443 0.959 . S
H432 C446 0.929 . S
H433 C447 0.931 . S
H434 C449 0.930 . S
C435 H423 0.930 . S
C435 C436 1.399 . S
C435 C440 1.399 . S
C436 C435 1.399 . S
C436 C437 1.376 . S
C437 H424 0.930 . S
C437 C436 1.376 . S
C437 C438 1.388 . S
C438 H425 0.930 . S
C438 C437 1.388 . S
C438 C439 1.390 . S
C439 C438 1.390 . S
C439 C440 1.394 . S
C439 C445 1.465 . S
C440 C435 1.399 . S
C440 C439 1.394 . S
C440 C441 1.516 . S
C441 C440 1.516 . S
C441 C442 1.502 . S
C441 C443 1.561 . S
C441 C444 1.526 . S
C442 H426 0.959 . S
C442 H427 0.959 . S
C442 H428 0.961 . S
C442 C441 1.502 . S
C443 H429 0.960 . S
C443 H430 0.961 . S
C443 H431 0.959 . S
C443 C441 1.561 . S
C444 C441 1.526 . S
C444 C445 1.396 . S
C444 C449 1.390 . S
C445 C439 1.465 . S
C445 C444 1.396 . S
C445 C446 1.399 . S
C446 H432 0.929 . S
C446 C445 1.399 . S
C446 C447 1.385 . S
C447 H433 0.931 . S
C447 C446 1.385 . S
C447 C448 1.389 . S
C448 C447 1.389 . S
C448 C449 1.387 . S
C449 H434 0.930 . S
C449 C444 1.390 . S
C449 C448 1.387 . S
H450 C462 0.930 . S
H451 C464 0.930 . S
H452 C465 0.930 . S
H453 C469 0.959 . S
H454 C469 0.959 . S
H455 C469 0.961 . S
H456 C470 0.960 . S
H457 C470 0.961 . S
H458 C470 0.959 . S
H459 C473 0.929 . S
H460 C474 0.931 . S
H461 C476 0.930 . S
C462 H450 0.930 . S
C462 C463 1.399 . S
C462 C467 1.399 . S
C463 C462 1.399 . S
C463 C464 1.376 . S
C464 H451 0.930 . S
C464 C463 1.376 . S
C464 C465 1.388 . S
C465 H452 0.930 . S
C465 C464 1.388 . S
C465 C466 1.390 . S
C466 C465 1.390 . S
C466 C467 1.394 . S
C466 C472 1.465 . S
C467 C462 1.399 . S
C467 C466 1.394 . S
C467 C468 1.516 . S
C468 C467 1.516 . S
C468 C469 1.502 . S
C468 C470 1.561 . S
C468 C471 1.526 . S
C469 H453 0.959 . S
C469 H454 0.959 . S
C469 H455 0.961 . S
C469 C468 1.502 . S
C470 H456 0.960 . S
C470 H457 0.961 . S
C470 H458 0.959 . S
C470 C468 1.561 . S
C471 C468 1.526 . S
C471 C472 1.396 . S
C471 C476 1.390 . S
C472 C466 1.465 . S
C472 C471 1.396 . S
C472 C473 1.399 . S
C473 H459 0.929 . S
C473 C472 1.399 . S
C473 C474 1.385 . S
C474 H460 0.931 . S
C474 C473 1.385 . S
C474 C475 1.389 . S
C475 C474 1.389 . S
C475 C476 1.387 . S
C476 H461 0.930 . S
C476 C471 1.390 . S
C476 C475 1.387 . S
H477 C489 0.930 . S
H478 C491 0.930 . S
H479 C492 0.930 . S
H480 C496 0.959 . S
H481 C496 0.959 . S
H482 C496 0.961 . S
H483 C497 0.960 . S
H484 C497 0.961 . S
H485 C497 0.959 . S
H486 C500 0.929 . S
H487 C501 0.931 . S
H488 C503 0.930 . S
C489 H477 0.930 . S
C489 C490 1.399 . S
C489 C494 1.399 . S
C490 C489 1.399 . S
C490 C491 1.376 . S
C491 H478 0.930 . S
C491 C490 1.376 . S
C491 C492 1.388 . S
C492 H479 0.930 . S
C492 C491 1.388 . S
C492 C493 1.390 . S
C493 C492 1.390 . S
C493 C494 1.394 . S
C493 C499 1.465 . S
C494 C489 1.399 . S
C494 C493 1.394 . S
C494 C495 1.516 . S
C495 C494 1.516 . S
C495 C496 1.502 . S
C495 C497 1.561 . S
C495 C498 1.526 . S
C496 H480 0.959 . S
C496 H481 0.959 . S
C496 H482 0.961 . S
C496 C495 1.502 . S
C497 H483 0.960 . S
C497 H484 0.961 . S
C497 H485 0.959 . S
C497 C495 1.561 . S
C498 C495 1.526 . S
C498 C499 1.396 . S
C498 C503 1.390 . S
C499 C493 1.465 . S
C499 C498 1.396 . S
C499 C500 1.399 . S
C500 H486 0.929 . S
C500 C499 1.399 . S
C500 C501 1.385 . S
C501 H487 0.931 . S
C501 C500 1.385 . S
C501 C502 1.389 . S
C502 C501 1.389 . S
C502 C503 1.387 . S
C503 H488 0.930 . S
C503 C498 1.390 . S
C503 C502 1.387 . S
H504 C516 0.930 . S
H505 C518 0.930 . S
H506 C519 0.930 . S
H507 C523 0.959 . S
H508 C523 0.959 . S
H509 C523 0.961 . S
H510 C524 0.960 . S
H511 C524 0.961 . S
H512 C524 0.959 . S
H513 C527 0.929 . S
H514 C528 0.931 . S
H515 C530 0.930 . S
C516 H504 0.930 . S
C516 C517 1.399 . S
C516 C521 1.399 . S
C517 C516 1.399 . S
C517 C518 1.376 . S
C518 H505 0.930 . S
C518 C517 1.376 . S
C518 C519 1.388 . S
C519 H506 0.930 . S
C519 C518 1.388 . S
C519 C520 1.390 . S
C520 C519 1.390 . S
C520 C521 1.394 . S
C520 C526 1.465 . S
C521 C516 1.399 . S
C521 C520 1.394 . S
C521 C522 1.516 . S
C522 C521 1.516 . S
C522 C523 1.502 . S
C522 C524 1.561 . S
C522 C525 1.526 . S
C523 H507 0.959 . S
C523 H508 0.959 . S
C523 H509 0.961 . S
C523 C522 1.502 . S
C524 H510 0.960 . S
C524 H511 0.961 . S
C524 H512 0.959 . S
C524 C522 1.561 . S
C525 C522 1.526 . S
C525 C526 1.396 . S
C525 C530 1.390 . S
C526 C520 1.465 . S
C526 C525 1.396 . S
C526 C527 1.399 . S
C527 H513 0.929 . S
C527 C526 1.399 . S
C527 C528 1.385 . S
C528 H514 0.931 . S
C528 C527 1.385 . S
C528 C529 1.389 . S
C529 C528 1.389 . S
C529 C530 1.387 . S
C530 H515 0.930 . S
C530 C525 1.390 . S
C530 C529 1.387 . S
H531 C543 0.930 . S
H532 C545 0.930 . S
H533 C546 0.930 . S
H534 C550 0.959 . S
H535 C550 0.959 . S
H536 C550 0.961 . S
H537 C551 0.960 . S
H538 C551 0.961 . S
H539 C551 0.959 . S
H540 C554 0.929 . S
H541 C555 0.931 . S
H542 C557 0.930 . S
C543 H531 0.930 . S
C543 C544 1.399 . S
C543 C548 1.399 . S
C544 C543 1.399 . S
C544 C545 1.376 . S
C545 H532 0.930 . S
C545 C544 1.376 . S
C545 C546 1.388 . S
C546 H533 0.930 . S
C546 C545 1.388 . S
C546 C547 1.390 . S
C547 C546 1.390 . S
C547 C548 1.394 . S
C547 C553 1.465 . S
C548 C543 1.399 . S
C548 C547 1.394 . S
C548 C549 1.516 . S
C549 C548 1.516 . S
C549 C550 1.502 . S
C549 C551 1.561 . S
C549 C552 1.526 . S
C550 H534 0.959 . S
C550 H535 0.959 . S
C550 H536 0.961 . S
C550 C549 1.502 . S
C551 H537 0.960 . S
C551 H538 0.961 . S
C551 H539 0.959 . S
C551 C549 1.561 . S
C552 C549 1.526 . S
C552 C553 1.396 . S
C552 C557 1.390 . S
C553 C547 1.465 . S
C553 C552 1.396 . S
C553 C554 1.399 . S
C554 H540 0.929 . S
C554 C553 1.399 . S
C554 C555 1.385 . S
C555 H541 0.931 . S
C555 C554 1.385 . S
C555 C556 1.389 . S
C556 C555 1.389 . S
C556 C557 1.387 . S
C557 H542 0.930 . S
C557 C552 1.390 . S
C557 C556 1.387 . S
H558 C570 0.930 . S
H559 C572 0.930 . S
H560 C573 0.930 . S
H561 C577 0.960 1_656 S
H562 C577 0.926 1_556 S
H563 C577 0.989 . S
H564 C578 0.960 . S
H565 C578 0.961 1_556 S
H566 C578 0.959 . S
H567 C581 0.929 . S
H568 C582 0.931 . S
H569 C584 0.930 . S
C570 H558 0.930 . S
C570 C571 1.399 . S
C570 C575 1.399 . S
C571 C570 1.399 . S
C571 C572 1.376 . S
C572 H559 0.930 . S
C572 C571 1.376 . S
C572 C573 1.388 . S
C573 H560 0.930 . S
C573 C572 1.388 . S
C573 C574 1.390 . S
C574 C573 1.390 . S
C574 C575 1.394 . S
C574 C580 1.465 1_554 S
C575 C570 1.399 . S
C575 C574 1.394 . S
C575 C576 1.516 . S
C576 C575 1.516 . S
C576 C577 1.509 . S
C576 C578 1.561 . S
C576 C579 1.526 1_554 S
C577 H561 0.960 1_454 S
C577 H562 0.926 1_554 S
C577 H563 0.989 . S
C577 C576 1.509 . S
C578 H564 0.960 . S
C578 H565 0.961 1_554 S
C578 H566 0.959 . S
C578 C576 1.561 . S
C579 C576 1.526 1_556 S
C579 C580 1.396 . S
C579 C584 1.390 . S
C580 C574 1.465 1_556 S
C580 C579 1.396 . S
C580 C581 1.399 . S
C581 H567 0.929 . S
C581 C580 1.399 . S
C581 C582 1.385 . S
C582 H568 0.931 . S
C582 C581 1.385 . S
C582 C583 1.389 . S
C583 C582 1.389 . S
C583 C584 1.387 . S
C584 H569 0.930 . S
C584 C579 1.390 . S
C584 C583 1.387 . S
H585 C597 0.930 . S
H586 C599 0.930 . S
H587 C600 0.930 . S
H588 C604 0.959 . S
H589 C604 0.959 . S
H590 C604 0.961 . S
H591 C605 0.960 . S
H592 C605 0.961 . S
H593 C605 0.959 . S
H594 C608 0.929 . S
H595 C609 0.931 . S
H596 C611 0.930 . S
C597 H585 0.930 . S
C597 C598 1.399 . S
C597 C602 1.399 . S
C598 C597 1.399 . S
C598 C599 1.376 . S
C599 H586 0.930 . S
C599 C598 1.376 . S
C599 C600 1.388 . S
C600 H587 0.930 . S
C600 C599 1.388 . S
C600 C601 1.390 . S
C601 C600 1.390 . S
C601 C602 1.394 . S
C601 C607 1.465 . S
C602 C597 1.399 . S
C602 C601 1.394 . S
C602 C603 1.516 . S
C603 C602 1.516 . S
C603 C604 1.502 . S
C603 C605 1.561 . S
C603 C606 1.526 . S
C604 H588 0.959 . S
C604 H589 0.959 . S
C604 H590 0.961 . S
C604 C603 1.502 . S
C605 H591 0.960 . S
C605 H592 0.961 . S
C605 H593 0.959 . S
C605 C603 1.561 . S
C606 C603 1.526 . S
C606 C607 1.396 . S
C606 C611 1.390 . S
C607 C601 1.465 . S
C607 C606 1.396 . S
C607 C608 1.399 . S
C608 H594 0.929 . S
C608 C607 1.399 . S
C608 C609 1.385 . S
C609 H595 0.931 . S
C609 C608 1.385 . S
C609 C610 1.389 . S
C610 C609 1.389 . S
C610 C611 1.387 . S
C611 H596 0.930 . S
C611 C606 1.390 . S
C611 C610 1.387 . S
H612 C624 0.930 . S
H613 C626 0.930 . S
H614 C627 0.930 . S
H615 C631 0.959 . S
H616 C631 0.959 . S
H617 C631 0.961 . S
H618 C632 0.960 . S
H619 C632 0.961 . S
H620 C632 0.959 . S
H621 C635 0.929 . S
H622 C636 0.931 . S
H623 C638 0.930 . S
C624 H612 0.930 . S
C624 C625 1.399 . S
C624 C629 1.399 . S
C625 C624 1.399 . S
C625 C626 1.376 . S
C626 H613 0.930 . S
C626 C625 1.376 . S
C626 C627 1.388 . S
C627 H614 0.930 . S
C627 C626 1.388 . S
C627 C628 1.390 . S
C628 C627 1.390 . S
C628 C629 1.394 . S
C628 C634 1.465 . S
C629 C624 1.399 . S
C629 C628 1.394 . S
C629 C630 1.516 . S
C630 C629 1.516 . S
C630 C631 1.502 . S
C630 C632 1.561 . S
C630 C633 1.526 . S
C631 H615 0.959 . S
C631 H616 0.959 . S
C631 H617 0.961 . S
C631 C630 1.502 . S
C632 H618 0.960 . S
C632 H619 0.961 . S
C632 H620 0.959 . S
C632 C630 1.561 . S
C633 C630 1.526 . S
C633 C634 1.396 . S
C633 C638 1.390 . S
C634 C628 1.465 . S
C634 C633 1.396 . S
C634 C635 1.399 . S
C635 H621 0.929 . S
C635 C634 1.399 . S
C635 C636 1.385 . S
C636 H622 0.931 . S
C636 C635 1.385 . S
C636 C637 1.389 . S
C637 C636 1.389 . S
C637 C638 1.387 . S
C638 H623 0.930 . S
C638 C633 1.390 . S
C638 C637 1.387 . S
H639 C651 0.930 . S
H640 C653 0.930 . S
H641 C654 0.930 1_565 S
H642 C658 0.959 . S
H643 C658 0.959 . S
H644 C658 0.961 . S
H645 C659 0.960 . S
H646 C659 0.961 . S
H647 C659 0.959 . S
H648 C662 0.929 1_565 S
H649 C663 0.931 1_565 S
H650 C665 0.930 . S
C651 H639 0.930 . S
C651 C652 1.399 . S
C651 C656 1.399 . S
C652 C651 1.399 . S
C652 C653 1.376 . S
C653 H640 0.930 . S
C653 C652 1.376 . S
C653 C654 1.388 . S
C654 H641 0.930 1_545 S
C654 C653 1.388 . S
C654 C655 1.390 . S
C655 C654 1.390 . S
C655 C656 1.394 . S
C655 C661 1.465 . S
C656 C651 1.399 . S
C656 C655 1.394 . S
C656 C657 1.516 . S
C657 C656 1.516 . S
C657 C658 1.502 . S
C657 C659 1.561 . S
C657 C660 1.526 . S
C658 H642 0.959 . S
C658 H643 0.959 . S
C658 H644 0.961 . S
C658 C657 1.502 . S
C659 H645 0.960 . S
C659 H646 0.961 . S
C659 H647 0.959 . S
C659 C657 1.561 . S
C660 C657 1.526 . S
C660 C661 1.396 . S
C660 C665 1.390 . S
C661 C655 1.465 . S
C661 C660 1.396 . S
C661 C662 1.399 . S
C662 H648 0.929 1_545 S
C662 C661 1.399 . S
C662 C663 1.385 . S
C663 H649 0.931 1_545 S
C663 C662 1.385 . S
C663 C664 1.389 . S
C664 C663 1.389 . S
C664 C665 1.387 . S
C665 H650 0.930 . S
C665 C660 1.390 . S
C665 C664 1.387 . S
H666 C678 0.930 . S
H667 C680 0.930 . S
H668 C681 0.930 . S
H669 C685 0.959 . S
H670 C685 0.959 . S
H671 C685 0.961 1_556 S
H672 C686 0.960 . S
H673 C686 0.961 1_554 S
H674 C686 0.959 . S
H675 C689 0.929 1_556 S
H676 C690 0.931 . S
H677 C692 0.930 . S
C678 H666 0.930 . S
C678 C679 1.399 . S
C678 C683 1.399 . S
C679 C678 1.399 . S
C679 C680 1.376 . S
C680 H667 0.930 . S
C680 C679 1.376 . S
C680 C681 1.388 . S
C681 H668 0.930 . S
C681 C680 1.388 . S
C681 C682 1.390 . S
C682 C681 1.390 . S
C682 C683 1.394 . S
C682 C688 1.465 . S
C683 C678 1.399 . S
C683 C682 1.394 . S
C683 C684 1.516 . S
C684 C683 1.516 . S
C684 C685 1.502 1_556 S
C684 C686 1.561 . S
C684 C687 1.526 1_556 S
C685 H669 0.959 . S
C685 H670 0.959 . S
C685 H671 0.961 1_554 S
C685 C684 1.502 1_554 S
C686 H672 0.960 . S
C686 H673 0.961 1_556 S
C686 H674 0.959 . S
C686 C684 1.561 . S
C687 C684 1.526 1_554 S
C687 C688 1.396 1_554 S
C687 C692 1.390 . S
C688 C682 1.465 . S
C688 C687 1.396 1_556 S
C688 C689 1.399 1_556 S
C689 H675 0.929 1_554 S
C689 C688 1.399 1_554 S
C689 C690 1.385 . S
C690 H676 0.931 . S
C690 C689 1.385 . S
C690 C691 1.389 . S
C691 C690 1.389 . S
C691 C692 1.387 . S
C692 H677 0.930 . S
C692 C687 1.390 . S
C692 C691 1.387 . S
H693 C705 0.930 1_655 S
H694 C707 0.930 . S
H695 C708 0.930 . S
H696 C712 0.959 . S
H697 C712 0.959 . S
H698 C712 0.961 . S
H699 C713 0.960 1_655 S
H700 C713 0.961 1_655 S
H701 C713 0.959 . S
H702 C716 0.929 . S
H703 C717 0.931 . S
H704 C719 0.930 1_655 S
C705 H693 0.930 1_455 S
C705 C706 1.399 . S
C705 C710 1.399 . S
C706 C705 1.399 . S
C706 C707 1.376 . S
C707 H694 0.930 . S
C707 C706 1.376 . S
C707 C708 1.388 . S
C708 H695 0.930 . S
C708 C707 1.388 . S
C708 C709 1.390 . S
C709 C708 1.390 . S
C709 C710 1.394 . S
C709 C715 1.465 . S
C710 C705 1.399 . S
C710 C709 1.394 . S
C710 C711 1.516 . S
C711 C710 1.516 . S
C711 C712 1.502 1_455 S
C711 C713 1.561 . S
C711 C714 1.526 . S
C712 H696 0.959 . S
C712 H697 0.959 . S
C712 H698 0.961 . S
C712 C711 1.502 1_655 S
C713 H699 0.960 1_455 S
C713 H700 0.961 1_455 S
C713 H701 0.959 . S
C713 C711 1.561 . S
C714 C711 1.526 . S
C714 C715 1.396 . S
C714 C719 1.390 . S
C715 C709 1.465 . S
C715 C714 1.396 . S
C715 C716 1.399 . S
C716 H702 0.929 . S
C716 C715 1.399 . S
C716 C717 1.385 . S
C717 H703 0.931 . S
C717 C716 1.385 . S
C717 C718 1.389 . S
C718 C717 1.389 . S
C718 C719 1.387 . S
C719 H704 0.930 1_455 S
C719 C714 1.390 . S
C719 C718 1.387 . S
C247 C9 0.653 . S
C259 C226 0.717 . S
C274 C49 0.494 . S
C286 C188 0.540 . S
C301 C89 0.283 . S
C313 C207 0.618 . S
C328 C26 0.185 . S
C340 C221 0.219 . S
C367 C183 0.124 . S
C355 C66 0.132 . S
C394 C202 0.111 . S
C382 C106 0.286 . S
C409 C43 3.100 . S
C421 C150 2.988 . S
C436 C83 3.012 . S
C448 C164 2.958 . S
C463 C22 3.052 . S
C475 C126 2.986 1_565 S
C502 C145 3.011 . S
C490 C62 3.048 . S
C529 C169 3.016 . S
C517 C102 3.119 . S
C544 C3 3.099 . S
C556 C131 2.989 . S
C583 C160 1.721 . S
C571 C15 1.725 . S
C598 C55 1.745 . S
C610 C122 1.736 . S
C625 C95 1.710 . S
C637 C141 1.715 . S
C664 C198 1.353 . S
C652 C42 1.325 . S
C691 C217 1.356 . S
C679 C82 1.328 . S
C706 C2 1.273 . S
C718 C179 1.277 . S
