# Generated by pormake.
# Topology eea, (3,6)-cn, num edge types: 1
# Building blocks:
#     Node 0, Type 0, BuildingBlock: BETDIP_clean_linker_0, # of connection points: 3
#     Node 1, Type 0, BuildingBlock: BETDIP_clean_linker_0, # of connection points: 3
#     Node 2, Type 0, BuildingBlock: BETDIP_clean_linker_0, # of connection points: 3
#     Node 3, Type 0, BuildingBlock: BETDIP_clean_linker_0, # of connection points: 3
#     Node 4, Type 0, BuildingBlock: BETDIP_clean_linker_0, # of connection points: 3
#     Node 5, Type 0, BuildingBlock: BETDIP_clean_linker_0, # of connection points: 3
#     Node 6, Type 0, BuildingBlock: BETDIP_clean_linker_0, # of connection points: 3
#     Node 7, Type 0, BuildingBlock: BETDIP_clean_linker_0, # of connection points: 3
#     Node 8, Type 0, BuildingBlock: BETDIP_clean_linker_0, # of connection points: 3
#     Node 9, Type 0, BuildingBlock: BETDIP_clean_linker_0, # of connection points: 3
#     Node 10, Type 0, BuildingBlock: BETDIP_clean_linker_0, # of connection points: 3
#     Node 11, Type 0, BuildingBlock: BETDIP_clean_linker_0, # of connection points: 3
#     Node 12, Type 0, BuildingBlock: BETDIP_clean_linker_0, # of connection points: 3
#     Node 13, Type 0, BuildingBlock: BETDIP_clean_linker_0, # of connection points: 3
#     Node 14, Type 0, BuildingBlock: BETDIP_clean_linker_0, # of connection points: 3
#     Node 15, Type 0, BuildingBlock: BETDIP_clean_linker_0, # of connection points: 3
#     Node 16, Type 0, BuildingBlock: BETDIP_clean_linker_0, # of connection points: 3
#     Node 17, Type 0, BuildingBlock: BETDIP_clean_linker_0, # of connection points: 3
#     Node 18, Type 1, BuildingBlock: NUHQIS_clean_sbu_0, # of connection points: 6
#     Node 19, Type 1, BuildingBlock: NUHQIS_clean_sbu_0, # of connection points: 6
#     Node 20, Type 1, BuildingBlock: NUHQIS_clean_sbu_0, # of connection points: 6
#     Node 21, Type 1, BuildingBlock: NUHQIS_clean_sbu_0, # of connection points: 6
#     Node 22, Type 1, BuildingBlock: NUHQIS_clean_sbu_0, # of connection points: 6
#     Node 23, Type 1, BuildingBlock: NUHQIS_clean_sbu_0, # of connection points: 6
#     Node 24, Type 1, BuildingBlock: NUHQIS_clean_sbu_0, # of connection points: 6
#     Node 25, Type 1, BuildingBlock: NUHQIS_clean_sbu_0, # of connection points: 6
#     Node 26, Type 1, BuildingBlock: NUHQIS_clean_sbu_0, # of connection points: 6
#     Edge 27, Type (0, 1), BuildingBlock: ZUJKAS_clean_linker_0, # of connection points: 2
#     Edge 28, Type (0, 1), BuildingBlock: ZUJKAS_clean_linker_0, # of connection points: 2
#     Edge 29, Type (0, 1), BuildingBlock: ZUJKAS_clean_linker_0, # of connection points: 2
#     Edge 30, Type (0, 1), BuildingBlock: ZUJKAS_clean_linker_0, # of connection points: 2
#     Edge 31, Type (0, 1), BuildingBlock: ZUJKAS_clean_linker_0, # of connection points: 2
#     Edge 32, Type (0, 1), BuildingBlock: ZUJKAS_clean_linker_0, # of connection points: 2
#     Edge 33, Type (0, 1), BuildingBlock: ZUJKAS_clean_linker_0, # of connection points: 2
#     Edge 34, Type (0, 1), BuildingBlock: ZUJKAS_clean_linker_0, # of connection points: 2
#     Edge 35, Type (0, 1), BuildingBlock: ZUJKAS_clean_linker_0, # of connection points: 2
#     Edge 36, Type (0, 1), BuildingBlock: ZUJKAS_clean_linker_0, # of connection points: 2
#     Edge 37, Type (0, 1), BuildingBlock: ZUJKAS_clean_linker_0, # of connection points: 2
#     Edge 38, Type (0, 1), BuildingBlock: ZUJKAS_clean_linker_0, # of connection points: 2
#     Edge 39, Type (0, 1), BuildingBlock: ZUJKAS_clean_linker_0, # of connection points: 2
#     Edge 40, Type (0, 1), BuildingBlock: ZUJKAS_clean_linker_0, # of connection points: 2
#     Edge 41, Type (0, 1), BuildingBlock: ZUJKAS_clean_linker_0, # of connection points: 2
#     Edge 42, Type (0, 1), BuildingBlock: ZUJKAS_clean_linker_0, # of connection points: 2
#     Edge 43, Type (0, 1), BuildingBlock: ZUJKAS_clean_linker_0, # of connection points: 2
#     Edge 44, Type (0, 1), BuildingBlock: ZUJKAS_clean_linker_0, # of connection points: 2
#     Edge 45, Type (0, 1), BuildingBlock: ZUJKAS_clean_linker_0, # of connection points: 2
#     Edge 46, Type (0, 1), BuildingBlock: ZUJKAS_clean_linker_0, # of connection points: 2
#     Edge 47, Type (0, 1), BuildingBlock: ZUJKAS_clean_linker_0, # of connection points: 2
#     Edge 48, Type (0, 1), BuildingBlock: ZUJKAS_clean_linker_0, # of connection points: 2
#     Edge 49, Type (0, 1), BuildingBlock: ZUJKAS_clean_linker_0, # of connection points: 2
#     Edge 50, Type (0, 1), BuildingBlock: ZUJKAS_clean_linker_0, # of connection points: 2
#     Edge 51, Type (0, 1), BuildingBlock: ZUJKAS_clean_linker_0, # of connection points: 2
#     Edge 52, Type (0, 1), BuildingBlock: ZUJKAS_clean_linker_0, # of connection points: 2
#     Edge 53, Type (0, 1), BuildingBlock: ZUJKAS_clean_linker_0, # of connection points: 2
#     Edge 54, Type (0, 1), BuildingBlock: ZUJKAS_clean_linker_0, # of connection points: 2
#     Edge 55, Type (0, 1), BuildingBlock: ZUJKAS_clean_linker_0, # of connection points: 2
#     Edge 56, Type (0, 1), BuildingBlock: ZUJKAS_clean_linker_0, # of connection points: 2
#     Edge 57, Type (0, 1), BuildingBlock: ZUJKAS_clean_linker_0, # of connection points: 2
#     Edge 58, Type (0, 1), BuildingBlock: ZUJKAS_clean_linker_0, # of connection points: 2
#     Edge 59, Type (0, 1), BuildingBlock: ZUJKAS_clean_linker_0, # of connection points: 2
#     Edge 60, Type (0, 1), BuildingBlock: ZUJKAS_clean_linker_0, # of connection points: 2
#     Edge 61, Type (0, 1), BuildingBlock: ZUJKAS_clean_linker_0, # of connection points: 2
#     Edge 62, Type (0, 1), BuildingBlock: ZUJKAS_clean_linker_0, # of connection points: 2
#     Edge 63, Type (0, 1), BuildingBlock: ZUJKAS_clean_linker_0, # of connection points: 2
#     Edge 64, Type (0, 1), BuildingBlock: ZUJKAS_clean_linker_0, # of connection points: 2
#     Edge 65, Type (0, 1), BuildingBlock: ZUJKAS_clean_linker_0, # of connection points: 2
#     Edge 66, Type (0, 1), BuildingBlock: ZUJKAS_clean_linker_0, # of connection points: 2
#     Edge 67, Type (0, 1), BuildingBlock: ZUJKAS_clean_linker_0, # of connection points: 2
#     Edge 68, Type (0, 1), BuildingBlock: ZUJKAS_clean_linker_0, # of connection points: 2
#     Edge 69, Type (0, 1), BuildingBlock: ZUJKAS_clean_linker_0, # of connection points: 2
#     Edge 70, Type (0, 1), BuildingBlock: ZUJKAS_clean_linker_0, # of connection points: 2
#     Edge 71, Type (0, 1), BuildingBlock: ZUJKAS_clean_linker_0, # of connection points: 2
#     Edge 72, Type (0, 1), BuildingBlock: ZUJKAS_clean_linker_0, # of connection points: 2
#     Edge 73, Type (0, 1), BuildingBlock: ZUJKAS_clean_linker_0, # of connection points: 2
#     Edge 74, Type (0, 1), BuildingBlock: ZUJKAS_clean_linker_0, # of connection points: 2
#     Edge 75, Type (0, 1), BuildingBlock: ZUJKAS_clean_linker_0, # of connection points: 2
#     Edge 76, Type (0, 1), BuildingBlock: ZUJKAS_clean_linker_0, # of connection points: 2
#     Edge 77, Type (0, 1), BuildingBlock: ZUJKAS_clean_linker_0, # of connection points: 2
#     Edge 78, Type (0, 1), BuildingBlock: ZUJKAS_clean_linker_0, # of connection points: 2
#     Edge 79, Type (0, 1), BuildingBlock: ZUJKAS_clean_linker_0, # of connection points: 2
#     Edge 80, Type (0, 1), BuildingBlock: ZUJKAS_clean_linker_0, # of connection points: 2
# Relax obj value: 0.059
# Max RMSD: 0.198
# Mean RMSD: 0.138
data_MOF--net-eea--node1-NUHQIS_clean_sbu_0--node2-BETDIP_clean_linker_0--edge1-ZUJKAS_clean_linker_0
_symmetry_space_group_name_H-M    P1
_symmetry_Int_Tables_number       1
_symmetry_cell_setting            triclinic
loop_
_symmetry_equiv_pos_as_xyz
'x, y, z'
_cell_length_a     71.397039
_cell_length_b     71.92741
_cell_length_c     85.161235
_cell_angle_alpha  93.178569
_cell_angle_beta   93.610251
_cell_angle_gamma 119.77011
loop_
_atom_site_label
_atom_site_type_symbol
_atom_site_fract_x
_atom_site_fract_y
_atom_site_fract_z
_atom_type_partial_charge
H0 H 0.24802 0.12002 0.3898 0.0
H1 H 0.27708 0.17177 0.42715 0.0
H2 H 0.27382 0.11166 0.43422 0.0
H3 H 0.28328 0.19203 0.40638 0.0
C4 C 0.26785 0.18274 0.39913 0.0
C5 C 0.25634 0.12635 0.40159 0.0
C6 C 0.26035 0.11324 0.41128 0.0
C7 C 0.26266 0.14755 0.40708 0.0
C8 C 0.2727 0.15563 0.4226 0.0
C9 C 0.27681 0.14278 0.43246 0.0
C10 C 0.27073 0.12168 0.42665 0.0
N11 N 0.25755 0.15993 0.39707 0.0
H12 H 0.9029 0.12651 0.3923 0.0
H13 H 0.86246 0.10948 0.43031 0.0
H14 H 0.9236 0.16856 0.43562 0.0
H15 H 0.83572 0.09299 0.40965 0.0
C16 C 0.84272 0.0855 0.4025 0.0
C17 C 0.90001 0.13042 0.40405 0.0
C18 C 0.91579 0.14928 0.41327 0.0
C19 C 0.88049 0.11634 0.40991 0.0
C20 C 0.87696 0.12087 0.42536 0.0
C21 C 0.89248 0.13961 0.43477 0.0
C22 C 0.9118 0.15379 0.42859 0.0
N23 N 0.86514 0.09722 0.40034 0.0
H24 H 0.89996 0.79607 0.41268 0.0
H25 H 0.91956 0.77009 0.45052 0.0
H26 H 0.85873 0.76867 0.44956 0.0
H27 H 0.95244 0.79075 0.44401 0.0
C28 C 0.95126 0.79265 0.4315 0.0
C29 C 0.89677 0.78829 0.42352 0.0
C30 C 0.87738 0.78275 0.43021 0.0
C31 C 0.91245 0.78445 0.43096 0.0
C32 C 0.90822 0.77418 0.445 0.0
C33 C 0.88884 0.76839 0.45178 0.0
C34 C 0.87363 0.7729 0.44434 0.0
N35 N 0.93203 0.79085 0.42386 0.0
H36 H 0.09799 0.20912 0.6317 0.0
H37 H 0.13677 0.22984 0.59284 0.0
H38 H 0.08264 0.24005 0.59516 0.0
H39 H 0.1394 0.19989 0.59733 0.0
C40 C 0.14291 0.20255 0.61012 0.0
C41 C 0.10123 0.21654 0.62071 0.0
C42 C 0.08821 0.22458 0.6145 0.0
C43 C 0.11839 0.21786 0.61277 0.0
C44 C 0.12297 0.22789 0.5987 0.0
C45 C 0.11024 0.23606 0.59232 0.0
C46 C 0.09291 0.23435 0.6003 0.0
N47 N 0.13116 0.20948 0.61934 0.0
H48 H 0.76667 0.88019 0.65987 0.0
H49 H 0.73936 0.89867 0.62153 0.0
H50 H 0.74663 0.84317 0.61435 0.0
H51 H 0.72972 0.91302 0.64214 0.0
C52 C 0.74495 0.92053 0.64972 0.0
C53 C 0.75945 0.87718 0.64775 0.0
C54 C 0.75729 0.85981 0.63783 0.0
C55 C 0.7527 0.89104 0.64208 0.0
C56 C 0.74406 0.88771 0.62619 0.0
C57 C 0.7418 0.87045 0.61612 0.0
C58 C 0.7483 0.8565 0.62208 0.0
N59 N 0.75606 0.90899 0.65228 0.0
H60 H 0.11454 0.88974 0.63723 0.0
H61 H 0.09222 0.84168 0.59743 0.0
H62 H 0.15244 0.90084 0.59786 0.0
H63 H 0.07202 0.81956 0.61413 0.0
C64 C 0.06812 0.82885 0.6224 0.0
C65 C 0.11701 0.88432 0.62582 0.0
C66 C 0.13547 0.89777 0.61845 0.0
C67 C 0.10143 0.86396 0.61849 0.0
C68 C 0.10427 0.85711 0.60345 0.0
C69 C 0.12276 0.87028 0.59598 0.0
C70 C 0.13822 0.89053 0.60359 0.0
N71 N 0.08281 0.85122 0.62636 0.0
H72 H 0.91817 0.45746 0.72084 0.0
H73 H 0.94557 0.50725 0.75953 0.0
H74 H 0.94529 0.44795 0.76418 0.0
H75 H 0.95089 0.52855 0.73891 0.0
C76 C 0.93503 0.51892 0.73224 0.0
C77 C 0.92654 0.46338 0.73266 0.0
C78 C 0.93144 0.45026 0.74164 0.0
C79 C 0.9319 0.48402 0.73889 0.0
C80 C 0.94192 0.49154 0.75445 0.0
C81 C 0.94677 0.47859 0.76369 0.0
C82 C 0.94167 0.45806 0.75712 0.0
N83 N 0.92562 0.49624 0.72965 0.0
H84 H 0.5734 0.45763 0.73006 0.0
H85 H 0.53286 0.44154 0.76802 0.0
H86 H 0.58864 0.50473 0.76954 0.0
H87 H 0.53046 0.40892 0.76145 0.0
C88 C 0.52715 0.40762 0.74868 0.0
C89 C 0.56967 0.46234 0.74122 0.0
C90 C 0.58334 0.4831 0.74897 0.0
C91 C 0.55175 0.44715 0.74817 0.0
C92 C 0.5469 0.45307 0.76271 0.0
C93 C 0.56021 0.47377 0.77056 0.0
C94 C 0.57843 0.48865 0.76362 0.0
N95 N 0.53889 0.42598 0.74041 0.0
H96 H 0.56523 0.12559 0.74391 0.0
H97 H 0.58778 0.1043 0.78326 0.0
H98 H 0.5237 0.0958 0.7802 0.0
H99 H 0.62051 0.13159 0.77815 0.0
C100 C 0.61928 0.13014 0.76531 0.0
C101 C 0.56243 0.11827 0.75495 0.0
C102 C 0.54226 0.11061 0.76096 0.0
C103 C 0.57914 0.11656 0.76307 0.0
C104 C 0.57539 0.10659 0.77723 0.0
C105 C 0.55531 0.09881 0.78341 0.0
C106 C 0.53895 0.10105 0.77523 0.0
N107 N 0.59925 0.1244 0.75647 0.0
H108 H 0.76278 0.54293 0.96523 0.0
H109 H 0.80244 0.56446 0.92687 0.0
H110 H 0.74965 0.57671 0.92987 0.0
H111 H 0.80404 0.53375 0.9307 0.0
C112 C 0.80742 0.53598 0.9435 0.0
C113 C 0.76654 0.55094 0.9545 0.0
C114 C 0.75422 0.55987 0.94861 0.0
C115 C 0.78364 0.55211 0.94656 0.0
C116 C 0.78873 0.56272 0.93274 0.0
C117 C 0.77661 0.57172 0.92666 0.0
C118 C 0.75944 0.57031 0.93472 0.0
N119 N 0.79584 0.54298 0.95286 0.0
H120 H 0.4341 0.21174 0.99171 0.0
H121 H 0.40803 0.23008 0.95253 0.0
H122 H 0.41398 0.1737 0.94658 0.0
H123 H 0.39733 0.24398 0.97315 0.0
C124 C 0.41281 0.25201 0.98045 0.0
C125 C 0.42704 0.20857 0.97954 0.0
C126 C 0.42467 0.19085 0.96992 0.0
C127 C 0.42069 0.22253 0.97347 0.0
C128 C 0.41235 0.21901 0.9575 0.0
C129 C 0.40989 0.20142 0.94775 0.0
C130 C 0.41587 0.18731 0.95409 0.0
N131 N 0.42413 0.24075 0.98335 0.0
H132 H 0.78251 0.22351 0.9708 0.0
H133 H 0.76194 0.17313 0.93299 0.0
H134 H 0.82215 0.23221 0.93279 0.0
H135 H 0.72908 0.16497 0.93878 0.0
C136 C 0.73042 0.16841 0.9515 0.0
C137 C 0.78544 0.21744 0.95984 0.0
C138 C 0.80447 0.2302 0.95279 0.0
C139 C 0.76962 0.19719 0.95252 0.0
C140 C 0.77341 0.18921 0.93831 0.0
C141 C 0.79228 0.20176 0.93102 0.0
C142 C 0.80765 0.22226 0.93837 0.0
N143 N 0.7501 0.18532 0.95967 0.0
H144 H 0.58536 0.79081 0.05468 0.0
H145 H 0.61523 0.84233 0.09218 0.0
H146 H 0.60781 0.78057 0.09965 0.0
H147 H 0.62093 0.86307 0.07203 0.0
C148 C 0.60587 0.8537 0.06436 0.0
C149 C 0.59336 0.79684 0.06659 0.0
C150 C 0.59609 0.78316 0.07643 0.0
C151 C 0.60039 0.81822 0.07207 0.0
C152 C 0.61013 0.82599 0.08771 0.0
C153 C 0.61293 0.81252 0.09777 0.0
C154 C 0.60591 0.79116 0.09197 0.0
N155 N 0.59603 0.83096 0.06194 0.0
H156 H 0.23563 0.79303 0.05958 0.0
H157 H 0.19517 0.7768 0.09758 0.0
H158 H 0.25574 0.83641 0.10215 0.0
H159 H 0.16851 0.75913 0.07715 0.0
C160 C 0.17569 0.75172 0.0701 0.0
C161 C 0.23265 0.79723 0.07121 0.0
C162 C 0.24821 0.81648 0.08015 0.0
C163 C 0.21323 0.78316 0.0772 0.0
C164 C 0.20958 0.78812 0.0925 0.0
C165 C 0.22488 0.80724 0.10164 0.0
C166 C 0.24411 0.82137 0.09533 0.0
N167 N 0.19808 0.76368 0.06789 0.0
H168 H 0.2302 0.45823 0.07691 0.0
H169 H 0.25184 0.43668 0.11664 0.0
H170 H 0.18894 0.43081 0.11379 0.0
H171 H 0.27409 0.43509 0.10079 0.0
C172 C 0.27797 0.44739 0.09274 0.0
C173 C 0.22731 0.45115 0.08804 0.0
C174 C 0.20747 0.44467 0.09433 0.0
C175 C 0.2433 0.44797 0.09576 0.0
C176 C 0.23957 0.43881 0.11027 0.0
C177 C 0.21985 0.43227 0.11673 0.0
C178 C 0.20395 0.43528 0.10866 0.0
N179 N 0.26289 0.45428 0.08867 0.0
H180 H 0.43128 0.87643 0.29878 0.0
H181 H 0.46966 0.89723 0.25976 0.0
H182 H 0.4146 0.90595 0.2618 0.0
H183 H 0.47286 0.86774 0.26435 0.0
C184 C 0.47625 0.87023 0.27715 0.0
C185 C 0.43418 0.88361 0.28769 0.0
C186 C 0.42059 0.89093 0.28131 0.0
C187 C 0.45151 0.88529 0.2798 0.0
C188 C 0.45595 0.89531 0.26572 0.0
C189 C 0.44277 0.90291 0.25922 0.0
C190 C 0.42499 0.90042 0.26697 0.0
N191 N 0.46449 0.87715 0.28637 0.0
H192 H 0.09895 0.54369 0.32498 0.0
H193 H 0.07595 0.56343 0.285 0.0
H194 H 0.08471 0.50871 0.27903 0.0
H195 H 0.06187 0.57494 0.30499 0.0
C196 C 0.07675 0.58302 0.31298 0.0
C197 C 0.0932 0.54115 0.31254 0.0
C198 C 0.09274 0.52453 0.30274 0.0
C199 C 0.08661 0.55486 0.30633 0.0
C200 C 0.07995 0.55221 0.29006 0.0
C201 C 0.07951 0.53576 0.2801 0.0
C202 C 0.08566 0.52185 0.28658 0.0
N203 N 0.08833 0.57215 0.31642 0.0
H204 H 0.45204 0.55453 0.3079 0.0
H205 H 0.42777 0.51164 0.26495 0.0
H206 H 0.49131 0.56739 0.26918 0.0
H207 H 0.40555 0.48821 0.28004 0.0
C208 C 0.40224 0.49724 0.28898 0.0
C209 C 0.45433 0.55018 0.29607 0.0
C210 C 0.47392 0.56311 0.2897 0.0
C211 C 0.43771 0.53137 0.28742 0.0
C212 C 0.44057 0.52575 0.27199 0.0
C213 C 0.46006 0.53849 0.26546 0.0
C214 C 0.47657 0.5571 0.2744 0.0
N215 N 0.41819 0.51885 0.29443 0.0
Tb216 Tb 0.48222 0.99204 1.00181 0.0
Eu217 Eu 0.49686 0.01316 0.03905 0.0
C218 C 0.5037 0.97482 0.02548 0.0
C219 C 0.4511 0.97146 0.02821 0.0
C220 C 0.47948 0.98721 0.95821 0.0
C221 C 0.48016 0.98309 0.92981 0.0
C222 C 0.47282 0.9741 0.94387 0.0
C223 C 0.49357 0.00945 0.95837 0.0
C224 C 0.50088 0.01848 0.94432 0.0
C225 C 0.49429 0.0054 0.92985 0.0
C226 C 0.47218 0.97755 0.97297 0.0
O227 O 0.48433 0.02326 1.00233 0.0
O228 O 0.47649 0.02552 0.0277 0.0
O229 O 0.52205 0.0375 0.02524 0.0
O230 O 0.51706 0.01422 1.00364 0.0
C231 C 0.47758 0.03132 0.01333 0.0
O232 O 0.4893 0.02518 0.06036 0.0
O233 O 0.51954 0.02504 0.06053 0.0
O234 O 0.51236 0.99311 0.03447 0.0
O235 O 0.48774 0.96939 0.01439 0.0
O236 O 0.45275 0.97742 0.0138 0.0
O237 O 0.46786 0.98022 0.03898 0.0
C238 C 0.52871 0.03276 0.01237 0.0
O239 O 0.48675 0.97632 0.98215 0.0
O240 O 0.46151 0.98455 0.98092 0.0
C241 C 0.5022 0.01797 0.08389 0.0
C242 C 0.49277 -0.00079 0.11264 0.0
C243 C 0.50664 0.02153 0.11258 0.0
C244 C 0.51127 0.03083 0.0983 0.0
C245 C 0.4886 0.99567 0.08385 0.0
C246 C 0.48389 0.98637 0.0981 0.0
C247 C 0.50639 0.02791 0.06896 0.0
H248 H 0.47502 0.97251 0.91894 0.0
H249 H 0.46209 0.95688 0.94358 0.0
H250 H 0.49893 0.01981 0.96938 0.0
H251 H 0.51152 0.03572 0.94477 0.0
H252 H 0.51354 0.03188 0.12356 0.0
H253 H 0.52174 0.04809 0.09851 0.0
H254 H 0.48151 0.9855 0.07279 0.0
H255 H 0.47339 0.96911 0.09774 0.0
Tb256 Tb 0.01094 0.48444 1.00183 0.0
Eu257 Eu 0.99503 0.48436 0.03738 0.0
C258 C 0.03202 0.52634 0.02517 0.0
C259 C 0.03464 0.47623 0.03114 0.0
C260 C 0.01954 0.49104 0.95906 0.0
C261 C 0.03231 0.50138 0.93349 0.0
C262 C 0.03562 0.49665 0.94875 0.0
C263 C 1.00037 0.49101 0.95417 0.0
C264 C 0.99698 0.49562 0.93887 0.0
C265 C 0.01274 0.50044 0.92824 0.0
C266 C 0.02253 0.48404 0.97444 0.0
O267 O 0.9927 0.45123 1.00751 0.0
O268 O 0.96928 0.4551 0.02237 0.0
O269 O 0.97884 0.49821 0.02241 0.0
O270 O 0.98145 0.48613 0.99749 0.0
C271 C 0.97373 0.44307 0.01304 0.0
O272 O 0.98111 0.46724 0.05777 0.0
O273 O 0.98872 0.50038 0.05706 0.0
O274 O 0.027 0.51454 0.03709 0.0
O275 O 0.02283 0.51784 0.01075 0.0
O276 O 0.036 0.48408 0.01742 0.0
O277 O 0.0185 0.47205 0.03966 0.0
C278 C 0.97317 0.49443 1.00709 0.0
O279 O 0.03422 0.49913 0.98582 0.0
O280 O 0.00526 0.46836 0.97928 0.0
C281 C 0.99131 0.48887 0.08201 0.0
C282 C 0.00819 0.49865 0.11404 0.0
C283 C 0.98564 0.48712 0.10976 0.0
C284 C 0.9773 0.48231 0.09387 0.0
C285 C 0.01382 0.50016 0.08612 0.0
C286 C 0.02221 0.50504 0.10204 0.0
C287 C 0.98215 0.484 0.06544 0.0
H288 H 0.04496 0.50544 0.92572 0.0
H289 H 0.05057 0.49689 0.95237 0.0
H290 H 0.98777 0.4868 0.96201 0.0
H291 H 0.98166 0.49456 0.9352 0.0
H292 H 0.97441 0.48163 0.11869 0.0
H293 H 0.95987 0.47348 0.09085 0.0
H294 H 0.02486 0.50532 0.07704 0.0
H295 H 0.03965 0.51409 0.10494 0.0
Tb296 Tb 0.52871 0.52037 0.03702 0.0
Eu297 Eu 0.51113 0.52406 1.00129 0.0
C298 C 0.50621 0.48026 0.01219 0.0
C299 C 0.55779 0.52929 0.00894 0.0
C300 C 0.53402 0.51922 0.08034 0.0
C301 C 0.53437 0.51378 0.10818 0.0
C302 C 0.54172 0.51311 0.09344 0.0
C303 C 0.51897 0.52614 0.08208 0.0
C304 C 0.51164 0.52686 0.09682 0.0
C305 C 0.51917 0.52058 0.11003 0.0
C306 C 0.5409 0.51731 0.06476 0.0
O307 O 0.52659 0.5495 0.0388 0.0
O308 O 0.53235 0.5575 0.01336 0.0
O309 O 0.48741 0.52463 0.0172 0.0
O310 O 0.49384 0.50742 0.03699 0.0
C311 C 0.5325 0.56341 0.02822 0.0
O312 O 0.51621 0.54243 0.98093 0.0
O313 O 0.48713 0.51139 0.98053 0.0
O314 O 0.49637 0.48892 1.00461 0.0
O315 O 0.52314 0.4919 0.02256 0.0
O316 O 0.55712 0.53466 0.02384 0.0
O317 O 0.54035 0.52051 0.99878 0.0
C318 C 0.48164 0.51395 0.02972 0.0
O319 O 0.52651 0.501 0.05513 0.0
O320 O 0.55017 0.5349 0.05773 0.0
C321 C 0.5024 0.52144 0.95653 0.0
C322 C 0.51068 0.5124 0.92596 0.0
C323 C 0.49655 0.52048 0.92806 0.0
C324 C 0.49248 0.52499 0.94324 0.0
C325 C 0.51625 0.51309 0.95454 0.0
C326 C 0.52038 0.50862 0.93938 0.0
C327 C 0.49895 0.52729 0.97242 0.0
H328 H 0.54026 0.50852 0.11803 0.0
H329 H 0.55318 0.50752 0.09223 0.0
H330 H 0.51277 0.53081 0.07202 0.0
H331 H 0.50015 0.53243 0.09787 0.0
H332 H 0.48903 0.5238 0.91799 0.0
H333 H 0.48183 0.53154 0.9446 0.0
H334 H 0.52404 0.51025 0.96472 0.0
H335 H 0.53111 0.50216 0.93815 0.0
Tb336 Tb 0.14981 0.32575 0.33559 0.0
Eu337 Eu 0.16442 0.34719 0.3727 0.0
C338 C 0.17061 0.3082 0.35956 0.0
C339 C 0.11861 0.30547 0.36201 0.0
C340 C 0.14705 0.32104 0.29204 0.0
C341 C 0.14673 0.3174 0.26351 0.0
C342 C 0.13967 0.3082 0.27756 0.0
C343 C 0.16159 0.3432 0.29237 0.0
C344 C 0.16864 0.35243 0.27834 0.0
C345 C 0.16131 0.33964 0.26373 0.0
C346 C 0.13987 0.31122 0.30677 0.0
O347 O 0.15169 0.35687 0.33594 0.0
O348 O 0.14378 0.35919 0.36129 0.0
O349 O 0.1892 0.37148 0.35858 0.0
O350 O 0.18473 0.34768 0.33759 0.0
C351 C 0.14476 0.36484 0.34687 0.0
O352 O 0.15646 0.35852 0.39415 0.0
O353 O 0.18764 0.36041 0.39386 0.0
O354 O 0.17943 0.32657 0.36849 0.0
O355 O 0.15486 0.30295 0.34832 0.0
O356 O 0.12033 0.31123 0.34754 0.0
O357 O 0.13533 0.31433 0.37283 0.0
C358 C 0.19611 0.36652 0.34596 0.0
O359 O 0.1546 0.31024 0.31594 0.0
O360 O 0.12899 0.31794 0.31472 0.0
C361 C 0.17105 0.35284 0.41757 0.0
C362 C 0.16246 0.33404 0.44636 0.0
C363 C 0.16955 0.35608 0.44592 0.0
C364 C 0.1738 0.36538 0.43163 0.0
C365 C 0.16418 0.33092 0.41792 0.0
C366 C 0.15998 0.32161 0.4322 0.0
C367 C 0.17418 0.36243 0.4025 0.0
H368 H 0.14101 0.30703 0.25251 0.0
H369 H 0.12855 0.29103 0.27713 0.0
H370 H 0.16748 0.35335 0.30349 0.0
H371 H 0.17964 0.36963 0.27892 0.0
H372 H 0.17133 0.36605 0.45654 0.0
H373 H 0.17888 0.38229 0.43152 0.0
H374 H 0.16185 0.32098 0.40712 0.0
H375 H 0.15483 0.30468 0.43213 0.0
Tb376 Tb 0.67829 0.81768 0.33642 0.0
Eu377 Eu 0.66291 0.81775 0.37204 0.0
C378 C 0.69918 0.85975 0.35948 0.0
C379 C 0.70289 0.8104 0.36549 0.0
C380 C 0.68346 0.82293 0.29339 0.0
C381 C 0.69491 0.83867 0.26878 0.0
C382 C 0.69997 0.83454 0.28384 0.0
C383 C 0.66183 0.81608 0.28787 0.0
C384 C 0.65675 0.81997 0.27276 0.0
C385 C 0.67321 0.83102 0.26299 0.0
C386 C 0.68897 0.81739 0.30873 0.0
O387 O 0.6608 0.7846 0.34252 0.0
O388 O 0.63718 0.78815 0.35732 0.0
O389 O 0.64616 0.83107 0.35708 0.0
O390 O 0.64816 0.81821 0.33228 0.0
C391 C 0.64187 0.7762 0.34813 0.0
O392 O 0.64935 0.80095 0.39259 0.0
O393 O 0.65707 0.83413 0.39183 0.0
O394 O 0.69466 0.84809 0.37146 0.0
O395 O 0.68966 0.85101 0.34517 0.0
O396 O 0.70413 0.81854 0.35189 0.0
O397 O 0.68654 0.80556 0.37393 0.0
C398 C 0.64006 0.82675 0.34182 0.0
O399 O 0.70013 0.83329 0.31968 0.0
O400 O 0.67345 0.80079 0.31434 0.0
C401 C 0.66023 0.8231 0.41702 0.0
C402 C 0.67627 0.83264 0.44928 0.0
C403 C 0.67811 0.8171 0.43981 0.0
C404 C 0.67023 0.81241 0.42379 0.0
C405 C 0.65852 0.8387 0.42645 0.0
C406 C 0.66654 0.8435 0.44241 0.0
C407 C 0.65092 0.81793 0.40035 0.0
H408 H 0.70787 0.84711 0.26143 0.0
H409 H 0.71675 0.84001 0.28791 0.0
H410 H 0.64879 0.80732 0.29509 0.0
H411 H 0.63992 0.8141 0.26861 0.0
H412 H 0.68572 0.80863 0.44478 0.0
H413 H 0.67186 0.80035 0.41678 0.0
H414 H 0.65076 0.84705 0.4215 0.0
H415 H 0.66467 0.85536 0.44947 0.0
Tb416 Tb 0.1946 0.85084 0.36941 0.0
Eu417 Eu 0.17773 0.85581 0.33368 0.0
C418 C 0.1722 0.81148 0.34394 0.0
C419 C 0.2243 0.86053 0.34159 0.0
C420 C 0.19874 0.848 0.41264 0.0
C421 C 0.19167 0.83526 0.4386 0.0
C422 C 0.1997 0.83515 0.42408 0.0
C423 C 0.18977 0.86112 0.41591 0.0
C424 C 0.18192 0.8614 0.4305 0.0
C425 C 0.18263 0.84833 0.44194 0.0
C426 C 0.20582 0.84647 0.39703 0.0
O427 O 0.19319 0.88034 0.37165 0.0
O428 O 0.19882 0.88894 0.34628 0.0
O429 O 0.1537 0.85596 0.34947 0.0
O430 O 0.15984 0.83845 0.3692 0.0
C431 C 0.1991 0.8945 0.36125 0.0
O432 O 0.18312 0.8749 0.3137 0.0
O433 O 0.15424 0.8436 0.31265 0.0
O434 O 0.16263 0.82048 0.33648 0.0
O435 O 0.18903 0.82277 0.35445 0.0
O436 O 0.22333 0.86491 0.35663 0.0
O437 O 0.20719 0.85269 0.33116 0.0
C438 C 0.14785 0.84525 0.36197 0.0
O439 O 0.19137 0.83058 0.38712 0.0
O440 O 0.21577 0.8643 0.39033 0.0
C441 C 0.17016 0.85461 0.28899 0.0
C442 C 0.17928 0.84642 0.25848 0.0
C443 C 0.16569 0.85516 0.26057 0.0
C444 C 0.1612 0.85923 0.27571 0.0
C445 C 0.18353 0.8457 0.28701 0.0
C446 C 0.18806 0.84164 0.27188 0.0
C447 C 0.16616 0.85986 0.30487 0.0
H448 H 0.19259 0.82519 0.44725 0.0
H449 H 0.20641 0.82481 0.42169 0.0
H450 H 0.18857 0.87091 0.40712 0.0
H451 H 0.17483 0.87144 0.4327 0.0
H452 H 0.15889 0.85927 0.25053 0.0
H453 H 0.15095 0.86624 0.27707 0.0
H454 H 0.19059 0.84204 0.29717 0.0
H455 H 0.19835 0.83465 0.27067 0.0
Tb456 Tb 0.81532 0.6608 0.66985 0.0
Eu457 Eu 0.82965 0.68246 0.707 0.0
C458 C 0.83459 0.64232 0.69445 0.0
C459 C 0.78368 0.64091 0.69612 0.0
C460 C 0.8128 0.65576 0.62621 0.0
C461 C 0.81249 0.65154 0.59771 0.0
C462 C 0.80524 0.64269 0.61184 0.0
C463 C 0.82771 0.67781 0.62637 0.0
C464 C 0.83496 0.6867 0.61226 0.0
C465 C 0.82744 0.67366 0.59775 0.0
C466 C 0.80541 0.64626 0.64101 0.0
O467 O 0.81818 0.69237 0.67006 0.0
O468 O 0.80963 0.69483 0.69517 0.0
O469 O 0.8552 0.706 0.69291 0.0
O470 O 0.85039 0.68166 0.67222 0.0
C471 C 0.81117 0.70056 0.68077 0.0
O472 O 0.82141 0.69375 0.72833 0.0
O473 O 0.85287 0.69621 0.72814 0.0
O474 O 0.84326 0.66048 0.70364 0.0
O475 O 0.81976 0.63767 0.6826 0.0
O476 O 0.78565 0.64649 0.6816 0.0
O477 O 0.8002 0.64988 0.7071 0.0
C478 C 0.86214 0.70046 0.68056 0.0
O479 O 0.81984 0.64494 0.65027 0.0
O480 O 0.79484 0.65349 0.64885 0.0
C481 C 0.83627 0.68857 0.75185 0.0
C482 C 0.82816 0.67003 0.78075 0.0
C483 C 0.83513 0.69203 0.78023 0.0
C484 C 0.83913 0.7012 0.76588 0.0
C485 C 0.82954 0.66669 0.75228 0.0
C486 C 0.82557 0.6575 0.76661 0.0
C487 C 0.83923 0.69802 0.73672 0.0
H488 H 0.80661 0.64099 0.5868 0.0
H489 H 0.79383 0.62561 0.61154 0.0
H490 H 0.83374 0.68814 0.63741 0.0
H491 H 0.84625 0.70381 0.6127 0.0
H492 H 0.83699 0.70207 0.79084 0.0
H493 H 0.84413 0.71808 0.76571 0.0
H494 H 0.82715 0.65667 0.7415 0.0
H495 H 0.82051 0.6406 0.76661 0.0
Tb496 Tb 0.34534 0.15023 0.66899 0.0
Eu497 Eu 0.32918 0.14936 0.70452 0.0
C498 C 0.36687 0.19141 0.69303 0.0
C499 C 0.36814 0.14036 0.69793 0.0
C500 C 0.35418 0.15792 0.62641 0.0
C501 C 0.36653 0.16826 0.60074 0.0
C502 C 0.36994 0.1632 0.61586 0.0
C503 C 0.33528 0.15858 0.62192 0.0
C504 C 0.33178 0.16352 0.60676 0.0
C505 C 0.34717 0.16798 0.59588 0.0
C506 C 0.35716 0.15054 0.64161 0.0
O507 O 0.32637 0.11678 0.67402 0.0
O508 O 0.30322 0.12077 0.68912 0.0
O509 O 0.31361 0.16412 0.68991 0.0
O510 O 0.31615 0.15246 0.66482 0.0
C511 C 0.30742 0.10876 0.67957 0.0
O512 O 0.31466 0.13163 0.72455 0.0
O513 O 0.32323 0.16514 0.72455 0.0
O514 O 0.36156 0.17912 0.70466 0.0
O515 O 0.3577 0.1835 0.67853 0.0
O516 O 0.36992 0.14881 0.68442 0.0
O517 O 0.35193 0.13615 0.70637 0.0
C518 C 0.30802 0.16075 0.67458 0.0
O519 O 0.36876 0.16537 0.65316 0.0
O520 O 0.33987 0.13468 0.64626 0.0
C521 C 0.32501 0.15243 0.74918 0.0
C522 C 0.3412 0.16057 0.78129 0.0
C523 C 0.31876 0.14815 0.77672 0.0
C524 C 0.31076 0.14415 0.76079 0.0
C525 C 0.34744 0.16463 0.7536 0.0
C526 C 0.35548 0.16873 0.76957 0.0
C527 C 0.31613 0.14838 0.73257 0.0
H528 H 0.37889 0.17202 0.59276 0.0
H529 H 0.38469 0.16291 0.61918 0.0
H530 H 0.32294 0.15463 0.62995 0.0
H531 H 0.31662 0.16297 0.60338 0.0
H532 H 0.30735 0.14188 0.78548 0.0
H533 H 0.29339 0.13472 0.75753 0.0
H534 H 0.35867 0.17104 0.74473 0.0
H535 H 0.37285 0.17816 0.77274 0.0
Tb536 Tb 0.86494 0.19154 0.70376 0.0
Eu537 Eu 0.84514 0.1894 0.6672 0.0
C538 C 0.84026 0.14829 0.6821 0.0
C539 C 0.89328 0.19675 0.67555 0.0
C540 C 0.86844 0.18971 0.74719 0.0
C541 C 0.86392 0.17531 0.77272 0.0
C542 C 0.87285 0.17831 0.75827 0.0
C543 C 0.8546 0.19772 0.75062 0.0
C544 C 0.8459 0.19495 0.7651 0.0
C545 C 0.85063 0.1839 0.77634 0.0
C546 C 0.87851 0.1934 0.73224 0.0
O547 O 0.88017 0.22399 0.69653 0.0
O548 O 0.85151 0.2201 0.68048 0.0
O549 O 0.81669 0.17764 0.68163 0.0
O550 O 0.83499 0.1919 0.70645 0.0
C551 C 0.86929 0.23228 0.68989 0.0
O552 O 0.8461 0.20566 0.64617 0.0
O553 O 0.82203 0.17197 0.64641 0.0
O554 O 0.84608 0.15898 0.66965 0.0
O555 O 0.84138 0.15807 0.6959 0.0
O556 O 0.88808 0.18944 0.68938 0.0
O557 O 0.88073 0.20115 0.66642 0.0
C558 C 0.817 0.18283 0.69674 0.0
O559 O 0.87177 0.17657 0.7221 0.0
O560 O 0.88044 0.20992 0.72539 0.0
C561 C 0.83596 0.1836 0.62224 0.0
C562 C 0.84627 0.17598 0.59203 0.0
C563 C 0.83147 0.18332 0.59375 0.0
C564 C 0.82637 0.18709 0.60874 0.0
C565 C 0.85073 0.17629 0.62066 0.0
C566 C 0.85582 0.17247 0.60567 0.0
C567 C 0.83091 0.18819 0.63792 0.0
H568 H 0.86786 0.1668 0.78122 0.0
H569 H 0.8834 0.17193 0.75581 0.0
H570 H 0.85069 0.20635 0.7422 0.0
H571 H 0.83547 0.20148 0.76753 0.0
H572 H 0.82408 0.18652 0.58353 0.0
H573 H 0.81506 0.19289 0.60979 0.0
H574 H 0.85833 0.17358 0.63102 0.0
H575 H 0.86708 0.1666 0.60477 0.0
H576 H 0.2892 0.83825 0.09562 0.0
H577 H 0.32281 0.86375 0.08524 0.0
H578 H 0.28756 0.85364 0.03962 0.0
H579 H 0.25372 0.8286 0.05004 0.0
H580 H 0.34266 0.85687 0.05988 0.0
H581 H 0.32038 0.91936 0.04931 0.0
H582 H 0.30563 0.89778 0.06135 0.0
H583 H 0.30133 0.8928 0.04016 0.0
C584 C 0.28854 0.84163 0.08342 0.0
C585 C 0.26874 0.83151 0.07369 0.0
C586 C 0.30779 0.85609 0.07749 0.0
C587 C 0.30762 0.86081 0.06173 0.0
C588 C 0.28798 0.8505 0.05189 0.0
H589 H 0.4123 0.94967 0.00948 0.0
H590 H 0.37733 0.92189 0.01682 0.0
C591 C 0.2687 0.83602 0.05782 0.0
C592 C 0.32811 0.87639 0.05564 0.0
H593 H 0.35375 0.92534 0.04103 0.0
C594 C 0.34509 0.87184 0.05574 0.0
C595 C 0.33119 0.89586 0.0502 0.0
C596 C 0.31376 0.90191 0.05034 0.0
C597 C 0.3651 0.88624 0.05055 0.0
C598 C 0.36831 0.90587 0.04537 0.0
C599 C 0.35121 0.91027 0.04501 0.0
C600 C 0.38954 0.92241 0.04084 0.0
C601 C 0.38256 0.88024 0.05051 0.0
C602 C 0.40791 0.93208 0.05197 0.0
C603 C 0.42789 0.94793 0.04784 0.0
C604 C 0.42987 0.95454 0.03249 0.0
C605 C 0.41137 0.94493 0.02138 0.0
C606 C 0.39137 0.92906 0.02555 0.0
H607 H 0.37571 0.86259 0.05056 0.0
H608 H 0.39172 0.88559 0.04004 0.0
H609 H 0.39414 0.88825 0.0613 0.0
H610 H 0.40676 0.92751 0.06393 0.0
H611 H 0.44173 0.95505 0.05673 0.0
H612 H 0.16401 0.41582 0.08941 0.0
H613 H 0.13529 0.42143 0.07768 0.0
H614 H 0.18309 0.4856 0.06881 0.0
H615 H 0.21199 0.48025 0.08086 0.0
H616 H 0.14765 0.48308 0.08388 0.0
H617 H 0.11973 0.42403 0.03077 0.0
H618 H 0.12116 0.41323 0.04904 0.0
H619 H 0.1456 0.43374 0.04218 0.0
C620 C 0.16843 0.43112 0.08493 0.0
C621 C 0.19027 0.44762 0.08609 0.0
C622 C 0.15201 0.43423 0.07811 0.0
C623 C 0.15708 0.45384 0.07223 0.0
C624 C 0.17887 0.47029 0.0732 0.0
H625 H 0.06918 0.48068 0.01613 0.0
H626 H 0.09888 0.47562 0.02633 0.0
C627 C 0.19535 0.46717 0.07999 0.0
C628 C 0.1395 0.45744 0.06573 0.0
H629 H 0.09717 0.43854 0.03681 0.0
C630 C 0.13667 0.47344 0.07354 0.0
C631 C 0.12531 0.44492 0.05218 0.0
C632 C 0.12815 0.42814 0.04294 0.0
C633 C 0.11974 0.47698 0.06833 0.0
C634 C 0.10514 0.46401 0.05507 0.0
C635 C 0.10824 0.4483 0.04708 0.0
C636 C 0.08688 0.46687 0.04903 0.0
C637 C 0.11779 0.49477 0.07692 0.0
C638 C 0.07008 0.46335 0.05835 0.0
C639 C 0.05299 0.46621 0.05255 0.0
C640 C 0.05237 0.47261 0.0373 0.0
C641 C 0.06912 0.47583 0.02795 0.0
C642 C 0.08613 0.47292 0.03374 0.0
H643 H 0.13303 0.50638 0.08436 0.0
H644 H 0.11364 0.50368 0.06844 0.0
H645 H 0.10462 0.48767 0.08476 0.0
H646 H 0.07016 0.45831 0.07009 0.0
H647 H 0.04035 0.46353 0.06006 0.0
H648 H 0.57471 0.74745 0.09223 0.0
H649 H 0.56401 0.71032 0.08334 0.0
H650 H 0.58839 0.72998 0.0385 0.0
H651 H 0.59998 0.76738 0.04755 0.0
H652 H 0.53586 0.68337 0.058 0.0
H653 H 0.61913 0.69794 0.05272 0.0
H654 H 0.61402 0.71749 0.06276 0.0
H655 H 0.61219 0.71449 0.04152 0.0
C656 C 0.57804 0.74394 0.08054 0.0
C657 C 0.58847 0.76042 0.07067 0.0
C658 C 0.57176 0.72269 0.07544 0.0
C659 C 0.57577 0.71748 0.06038 0.0
C660 C 0.58557 0.73375 0.0503 0.0
H661 H 0.5485 0.59714 0.01006 0.0
H662 H 0.55851 0.63441 0.01781 0.0
C663 C 0.59195 0.75505 0.05541 0.0
C664 C 0.56956 0.69497 0.05528 0.0
H665 H 0.59004 0.66308 0.04356 0.0
C666 C 0.5477 0.67891 0.05488 0.0
C667 C 0.58508 0.68923 0.05126 0.0
C668 C 0.60895 0.70564 0.05221 0.0
C669 C 0.54088 0.65726 0.05037 0.0
C670 C 0.5564 0.65155 0.04634 0.0
C671 C 0.57823 0.66759 0.04665 0.0
C672 C 0.55029 0.62898 0.04178 0.0
C673 C 0.51711 0.64067 0.04973 0.0
C674 C 0.54263 0.61371 0.05279 0.0
C675 C 0.53696 0.59239 0.04844 0.0
C676 C 0.53886 0.58603 0.03298 0.0
C677 C 0.54675 0.60147 0.02204 0.0
C678 C 0.5525 0.62278 0.02643 0.0
H679 H 0.50677 0.64819 0.04983 0.0
H680 H 0.51185 0.62912 0.03897 0.0
H681 H 0.51439 0.63144 0.06019 0.0
H682 H 0.54114 0.61831 0.06477 0.0
H683 H 0.531 0.58092 0.05717 0.0
H684 H 0.82574 0.26705 0.93828 0.0
H685 H 0.85455 0.30239 0.95002 0.0
H686 H 0.84885 0.27849 0.99584 0.0
H687 H 0.8204 0.24274 0.98405 0.0
H688 H 0.85376 0.3298 0.97355 0.0
H689 H 0.91376 0.30497 0.99119 0.0
H690 H 0.88969 0.28811 0.97777 0.0
H691 H 0.8879 0.28997 0.99869 0.0
C692 C 0.83075 0.26923 0.95084 0.0
C693 C 0.82098 0.25201 0.96021 0.0
C694 C 0.84712 0.28947 0.95754 0.0
C695 C 0.8541 0.29296 0.97374 0.0
C696 C 0.84399 0.27601 0.98325 0.0
H697 H 0.93426 0.42046 0.02423 0.0
H698 H 0.90548 0.38373 0.01544 0.0
C699 C 0.82758 0.25568 0.97653 0.0
C700 C 0.87185 0.31446 0.98056 0.0
H701 H 0.92357 0.34105 0.99895 0.0
C702 C 0.869 0.33226 0.97914 0.0
C703 C 0.89182 0.31764 0.98765 0.0
C704 C 0.89615 0.29922 0.98882 0.0
C705 C 0.88557 0.35319 0.98464 0.0
C706 C 0.90539 0.35632 0.99203 0.0
C707 C 0.90829 0.33854 0.9934 0.0
C708 C 0.92341 0.37805 0.9981 0.0
C709 C 0.88191 0.3718 0.98213 0.0
C710 C 0.94336 0.38675 0.99167 0.0
C711 C 0.95997 0.40773 0.99676 0.0
C712 C 0.95689 0.42035 0.00839 0.0
C713 C 0.93711 0.41128 0.01515 0.0
C714 C 0.92059 0.39031 0.0101 0.0
H715 H 0.86829 0.36731 0.97288 0.0
H716 H 0.87784 0.37692 0.99332 0.0
H717 H 0.89674 0.38577 0.97867 0.0
H718 H 0.94589 0.37747 0.98245 0.0
H719 H 0.97501 0.41421 0.99134 0.0
H720 H 0.72189 0.52367 0.95917 0.0
H721 H 0.68934 0.51936 0.97034 0.0
H722 H 0.71157 0.58672 0.96734 0.0
H723 H 0.7439 0.59099 0.95584 0.0
H724 H 0.68276 0.53711 0.99652 0.0
H725 H 0.65207 0.55924 0.94351 0.0
H726 H 0.67448 0.55429 0.94351 0.0
H727 H 0.67869 0.57986 0.95169 0.0
C728 C 0.7199 0.53759 0.96102 0.0
C729 C 0.73534 0.55763 0.95651 0.0
C730 C 0.70128 0.5351 0.96735 0.0
C731 C 0.69776 0.55261 0.96936 0.0
C732 C 0.7136 0.57284 0.96547 0.0
H733 H 0.59863 0.55295 0.02467 0.0
H734 H 0.6328 0.55896 0.01547 0.0
C735 C 0.73211 0.57529 0.95897 0.0
C736 C 0.6774 0.54958 0.97535 0.0
H737 H 0.63336 0.55527 0.96625 0.0
C738 C 0.67193 0.54104 0.9899 0.0
C739 C 0.66309 0.55439 0.96658 0.0
C740 C 0.66723 0.56224 0.95039 0.0
C741 C 0.65263 0.53733 0.99597 0.0
C742 C 0.63869 0.54283 0.98745 0.0
C743 C 0.64413 0.55126 0.97286 0.0
C744 C 0.61803 0.53937 0.99314 0.0
C745 C 0.64712 0.52698 0.01123 0.0
C746 C 0.5984 0.52695 0.98346 0.0
C747 C 0.57889 0.5238 0.98856 0.0
C748 C 0.57857 0.53294 1.00351 0.0
C749 C 0.59827 0.5455 0.01316 0.0
C750 C 0.61782 0.54883 1.00796 0.0
H751 H 0.65596 0.51821 0.01375 0.0
H752 H 0.65191 0.53966 0.02115 0.0
H753 H 0.62944 0.51552 0.0109 0.0
H754 H 0.59814 0.51956 0.97195 0.0
H755 H 0.56404 0.51403 0.98082 0.0
H756 H 0.44701 0.17433 0.95541 0.0
H757 H 0.45611 0.14802 0.96472 0.0
H758 H 0.42815 0.14841 1.0081 0.0
H759 H 0.4182 0.17422 0.99858 0.0
H760 H 0.48174 0.15024 0.99132 0.0
H761 H 0.39639 0.08454 0.99188 0.0
H762 H 0.4034 0.1086 0.98232 0.0
H763 H 0.40348 0.10921 1.00345 0.0
C764 C 0.44261 0.16868 0.96688 0.0
C765 C 0.43159 0.17611 0.97617 0.0
C766 C 0.44797 0.15378 0.97223 0.0
C767 C 0.44246 0.146 0.98696 0.0
C768 C 0.43215 0.15391 0.99654 0.0
H769 H 0.46063 0.04972 0.03249 0.0
H770 H 0.45256 0.0781 0.02675 0.0
C771 C 0.4267 0.16882 0.99117 0.0
C772 C 0.44741 0.12945 0.9921 0.0
H773 H 0.42388 0.07729 1.00083 0.0
C774 C 0.46911 0.13431 0.99344 0.0
C775 C 0.43086 0.10868 0.99483 0.0
C776 C 0.4072 0.10229 0.99293 0.0
C777 C 0.47471 0.1189 0.9974 0.0
C778 C 0.45814 0.09807 0.9999 0.0
C779 C 0.4365 0.09331 0.99887 0.0
C780 C 0.46292 0.08083 1.00326 0.0
C781 C 0.49829 0.12502 0.99895 0.0
C782 C 0.47106 0.07278 0.99181 0.0
C783 C 0.47562 0.05651 0.995 0.0
C784 C 0.47208 0.04802 0.00971 0.0
C785 C 0.46362 0.05596 0.02107 0.0
C786 C 0.45899 0.07216 0.01783 0.0
H787 H 0.50923 0.14277 1.00035 0.0
H788 H 0.5021 0.11817 0.00923 0.0
H789 H 0.50176 0.11843 0.98814 0.0
H790 H 0.47385 0.07907 0.98039 0.0
H791 H 0.48206 0.05073 0.98598 0.0
H792 H 0.69223 0.13465 0.93875 0.0
H793 H 0.65948 0.11351 0.95179 0.0
H794 H 0.69172 0.15285 0.99575 0.0
H795 H 0.72466 0.17409 0.98277 0.0
H796 H 0.6576 0.09103 0.9806 0.0
H797 H 0.63234 0.15272 0.98742 0.0
H798 H 0.65016 0.15365 0.97294 0.0
H799 H 0.66015 0.1607 0.99349 0.0
C800 C 0.69232 0.1388 0.95119 0.0
C801 C 0.71093 0.15597 0.95974 0.0
C802 C 0.67365 0.12673 0.95861 0.0
C803 C 0.67319 0.13176 0.97467 0.0
C804 C 0.69174 0.1489 0.98329 0.0
H805 H 0.56108 0.06973 0.02934 0.0
H806 H 0.59713 0.09433 0.02157 0.0
C807 C 0.71054 0.16094 0.97588 0.0
C808 C 0.6533 0.11861 0.98232 0.0
H809 H 0.60946 0.11882 0.99599 0.0
C810 C 0.64713 0.09712 0.98409 0.0
C811 C 0.63985 0.12672 0.98695 0.0
C812 C 0.64577 0.14968 0.98509 0.0
C813 C 0.6276 0.08334 0.99013 0.0
C814 C 0.61362 0.09114 0.99411 0.0
C815 C 0.62016 0.11286 0.99285 0.0
C816 C 0.5917 0.07667 0.99876 0.0
C817 C 0.62212 0.06053 0.99217 0.0
C818 C 0.57655 0.05893 0.98835 0.0
C819 C 0.55607 0.04485 0.99275 0.0
C820 C 0.55018 0.04834 1.00761 0.0
C821 C 0.56513 0.06653 0.01784 0.0
C822 C 0.58573 0.08059 0.01343 0.0
H823 H 0.63695 0.05912 0.99338 0.0
H824 H 0.61326 0.05471 1.00273 0.0
H825 H 0.61164 0.04983 0.98159 0.0
H826 H 0.5806 0.05593 0.97679 0.0
H827 H 0.54486 0.0312 0.98446 0.0
H828 H 0.82997 0.52103 0.92816 0.0
H829 H 0.85783 0.51376 0.93942 0.0
H830 H 0.85015 0.53356 0.98618 0.0
H831 H 0.822 0.54053 0.97499 0.0
H832 H 0.8969 0.54234 0.95682 0.0
H833 H 0.84556 0.47544 0.99168 0.0
H834 H 0.83422 0.48477 0.9766 0.0
H835 H 0.84436 0.49956 0.99583 0.0
C836 C 0.83412 0.52365 0.94086 0.0
C837 C 0.82376 0.53119 0.9507 0.0
C838 C 0.85005 0.51954 0.94726 0.0
C839 C 0.85587 0.52284 0.96365 0.0
C840 C 0.84558 0.53047 0.97353 0.0
H841 H 0.95153 0.51057 0.02322 0.0
H842 H 0.92367 0.51802 0.0125 0.0
C843 C 0.82958 0.53454 0.96712 0.0
C844 C 0.87319 0.51892 0.97026 0.0
H845 H 0.88348 0.48891 0.99538 0.0
C846 C 0.89396 0.53061 0.96521 0.0
C847 C 0.86931 0.50363 0.98121 0.0
C848 C 0.84712 0.48997 0.98657 0.0
C849 C 0.91103 0.52761 0.97098 0.0
C850 C 0.90713 0.51228 0.9819 0.0
C851 C 0.8864 0.50066 0.987 0.0
C852 C 0.92436 0.50807 0.98821 0.0
C853 C 0.9332 0.54116 0.96557 0.0
C854 C 0.93389 0.49985 0.97811 0.0
C855 C 0.94987 0.49556 0.98418 0.0
C856 C 0.95654 0.49933 1.00051 0.0
C857 C 0.94687 0.50752 0.01059 0.0
C858 C 0.9309 0.51177 1.0045 0.0
H859 H 0.9348 0.55567 0.9604 0.0
H860 H 0.94612 0.54638 0.97554 0.0
H861 H 0.93591 0.53147 0.95635 0.0
H862 H 0.92879 0.49651 0.96553 0.0
H863 H 0.95686 0.48917 0.97608 0.0
H864 H 0.39674 0.27794 0.97369 0.0
H865 H 0.41387 0.31684 0.98059 0.0
H866 H 0.46793 0.31694 1.00634 0.0
H867 H 0.45108 0.27812 0.99922 0.0
H868 H 0.42662 0.34107 0.00964 0.0
H869 H 0.49744 0.36217 0.97575 0.0
H870 H 0.47366 0.33568 0.97346 0.0
H871 H 0.49358 0.34368 0.99022 0.0
C872 C 0.41224 0.28628 0.98088 0.0
C873 C 0.42266 0.27511 0.98581 0.0
C874 C 0.42199 0.30845 0.98481 0.0
C875 C 0.44234 0.31981 0.99373 0.0
C876 C 0.45246 0.30854 0.99914 0.0
H877 H 0.52355 0.45693 0.02427 0.0
H878 H 0.50837 0.4179 0.02041 0.0
C879 C 0.44274 0.28635 0.99515 0.0
C880 C 0.45294 0.34346 0.99718 0.0
H881 H 0.49732 0.39082 0.99066 0.0
C882 C 0.44208 0.35196 1.00551 0.0
C883 C 0.47312 0.35759 0.99176 0.0
C884 C 0.48509 0.34939 0.98218 0.0
C885 C 0.45087 0.37425 0.00857 0.0
C886 C 0.47089 0.38834 1.00298 0.0
C887 C 0.48196 0.37989 0.99491 0.0
C888 C 0.48029 0.41194 1.00502 0.0
C889 C 0.43875 0.38259 0.0178 0.0
C890 C 0.4697 0.42144 0.99736 0.0
C891 C 0.47833 0.44369 0.99946 0.0
C892 C 0.49774 0.45684 0.00927 0.0
C893 C 0.50854 0.44727 0.01668 0.0
C894 C 0.49991 0.42499 0.0145 0.0
H895 H 0.42643 0.36997 0.02436 0.0
H896 H 0.45011 0.39657 0.02635 0.0
H897 H 0.43024 0.38801 0.00951 0.0
H898 H 0.4547 0.41161 0.98978 0.0
H899 H 0.46963 0.45053 0.99354 0.0
H900 H 0.13382 0.7251 0.0745 0.0
H901 H 0.11078 0.68708 0.06469 0.0
H902 H 0.16301 0.68941 0.04037 0.0
H903 H 0.18631 0.72737 0.05046 0.0
H904 H 0.09695 0.667 0.03458 0.0
H905 H 0.14719 0.63905 0.06661 0.0
H906 H 0.15114 0.6657 0.07079 0.0
H907 H 0.16141 0.65946 0.05375 0.0
C908 C 0.14036 0.71748 0.06704 0.0
C909 C 0.16185 0.72909 0.06334 0.0
C910 C 0.12719 0.6958 0.06143 0.0
C911 C 0.13528 0.68532 0.052 0.0
C912 C 0.15659 0.69706 0.04791 0.0
H913 H 0.04903 0.5558 1.00351 0.0
H914 H 0.07484 0.59446 0.00884 0.0
C915 C 0.16984 0.71877 0.05361 0.0
C916 C 0.12131 0.66207 0.04666 0.0
H917 H 0.11672 0.61289 0.04979 0.0
C918 C 0.1013 0.65515 0.03782 0.0
C919 C 0.12694 0.64666 0.05107 0.0
C920 C 0.14774 0.653 0.06119 0.0
C921 C 0.08663 0.6332 0.03345 0.0
C922 C 0.09234 0.6178 0.03775 0.0
C923 C 0.11247 0.62475 0.0464 0.0
C924 C 0.07713 0.59434 0.03429 0.0
C925 C 0.06483 0.62667 0.02479 0.0
C926 C 0.07032 0.58135 0.0468 0.0
C927 C 0.05578 0.55928 0.04381 0.0
C928 C 0.04772 0.54971 0.02821 0.0
C929 C 0.05477 0.5627 0.01566 0.0
C930 C 0.06944 0.58481 0.01868 0.0
H931 H 0.06103 0.63989 0.02571 0.0
H932 H 0.06492 0.62245 0.01207 0.0
H933 H 0.05169 0.61236 0.02948 0.0
H934 H 0.07609 0.58836 0.05894 0.0
H935 H 0.05073 0.54979 0.05376 0.0
H936 H 0.29341 0.476 0.07009 0.0
H937 H 0.3274 0.48817 0.05797 0.0
H938 H 0.34307 0.44956 0.08707 0.0
H939 H 0.30904 0.43707 0.09896 0.0
H940 H 0.37013 0.51 0.0716 0.0
H941 H 0.34947 0.43014 0.04303 0.0
H942 H 0.32944 0.43532 0.05092 0.0
H943 H 0.34683 0.43003 0.06384 0.0
C944 C 0.30407 0.47006 0.07385 0.0
C945 C 0.29853 0.45544 0.08538 0.0
C946 C 0.32349 0.47704 0.06693 0.0
C947 C 0.33758 0.46945 0.07139 0.0
C948 C 0.33222 0.45522 0.08315 0.0
H949 H 0.46349 0.49045 0.05431 0.0
H950 H 0.42852 0.48086 0.06377 0.0
C951 C 0.31284 0.4482 0.09 0.0
C952 C 0.35809 0.47659 0.06402 0.0
H953 H 0.38673 0.45769 0.04471 0.0
C954 C 0.37368 0.49861 0.06555 0.0
C955 C 0.36266 0.46171 0.05608 0.0
C956 C 0.34613 0.43801 0.05321 0.0
C957 C 0.39405 0.50604 0.05989 0.0
C958 C 0.39882 0.49105 0.05241 0.0
C959 C 0.38306 0.46912 0.05055 0.0
C960 C 0.4203 0.49765 0.04683 0.0
C961 C 0.41061 0.52973 0.06242 0.0
C962 C 0.42724 0.51024 0.03411 0.0
C963 C 0.44724 0.51571 0.02859 0.0
C964 C 0.46063 0.50865 0.0357 0.0
C965 C 0.45363 0.49616 0.04852 0.0
C966 C 0.43363 0.49064 0.05396 0.0
H967 H 0.40584 0.53862 0.07084 0.0
H968 H 0.42671 0.53223 0.06695 0.0
H969 H 0.41234 0.53674 0.05095 0.0
H970 H 0.41705 0.51558 0.02831 0.0
H971 H 0.4521 0.52533 0.01869 0.0
H972 H 0.56848 0.83634 0.04399 0.0
H973 H 0.5502 0.85503 0.03382 0.0
H974 H 0.60058 0.91462 0.05902 0.0
H975 H 0.61913 0.8961 0.06898 0.0
H976 H 0.53398 0.87574 0.05117 0.0
H977 H 0.59573 0.93295 0.01556 0.0
H978 H 0.59657 0.91003 0.0224 0.0
H979 H 0.60679 0.9344 0.03539 0.0
C980 C 0.57581 0.85348 0.04719 0.0
C981 C 0.59528 0.86485 0.05725 0.0
C982 C 0.56534 0.86412 0.04138 0.0
C983 C 0.5742 0.88627 0.04546 0.0
C984 C 0.59373 0.89764 0.05539 0.0
H985 H 0.5386 0.98244 0.04557 0.0
H986 H 0.55407 0.95918 0.04892 0.0
C987 C 0.60424 0.88704 0.06116 0.0
C988 C 0.56236 0.89728 0.04029 0.0
H989 H 0.56859 0.94137 0.0229 0.0
C990 C 0.54138 0.88987 0.04475 0.0
C991 C 0.57202 0.91566 0.03185 0.0
C992 C 0.59393 0.9236 0.02588 0.0
C993 C 0.53025 0.90102 0.04169 0.0
C994 C 0.54037 0.91992 0.03391 0.0
C995 C 0.56099 0.9269 0.02895 0.0
C996 C 0.53047 0.93353 0.0318 0.0
C997 C 0.50819 0.8931 0.04738 0.0
C998 C 0.51206 0.92671 0.02104 0.0
C999 C 0.50314 0.94 0.01904 0.0
C1000 C 0.51252 0.96028 0.02782 0.0
C1001 C 0.5309 0.96691 0.03865 0.0
C1002 C 0.53983 0.95369 0.04056 0.0
H1003 H 0.50376 0.87967 0.05491 0.0
H1004 H 0.50774 0.90645 0.05422 0.0
H1005 H 0.49576 0.88735 0.03704 0.0
H1006 H 0.50475 0.91123 0.01409 0.0
H1007 H 0.48901 0.93444 0.01058 0.0
H1008 H 0.92158 0.16266 0.38353 0.0
H1009 H 0.95567 0.18766 0.37336 0.0
H1010 H 0.99057 0.19543 0.4187 0.0
H1011 H 0.95674 0.16999 0.4288 0.0
H1012 H 0.98447 0.23055 0.38457 0.0
H1013 H 0.02498 0.18191 0.38806 0.0
H1014 H 0.99624 0.17056 0.38927 0.0
H1015 H 0.0153 0.18548 0.40629 0.0
C1016 C 0.93656 0.16944 0.39126 0.0
C1017 C 0.93645 0.16428 0.40696 0.0
C1018 C 0.95599 0.18382 0.38546 0.0
C1019 C 0.97568 0.19315 0.3952 0.0
C1020 C 0.97562 0.1881 0.41089 0.0
H1021 H 0.10908 0.28912 0.39055 0.0
H1022 H 0.07393 0.26174 0.39772 0.0
C1023 C 0.95623 0.17375 0.41669 0.0
C1024 C 0.99621 0.2088 0.3892 0.0
H1025 H 0.04726 0.21878 0.3838 0.0
C1026 C 0.99814 0.22791 0.38424 0.0
C1027 C 0.01399 0.20528 0.38879 0.0
C1028 C 0.01252 0.18461 0.39324 0.0
C1029 C 0.01765 0.24394 0.37937 0.0
C1030 C 0.03555 0.24058 0.37925 0.0
C1031 C 0.03351 0.22132 0.38396 0.0
C1032 C 0.05677 0.25711 0.37469 0.0
C1033 C 0.01917 0.26462 0.3749 0.0
C1034 C 0.05879 0.2634 0.3593 0.0
C1035 C 0.07888 0.27908 0.35513 0.0
C1036 C 0.09733 0.28868 0.36629 0.0
C1037 C 0.09523 0.28213 0.38166 0.0
C1038 C 0.07516 0.26645 0.38579 0.0
H1039 H 0.00573 0.26661 0.37896 0.0
H1040 H 0.03485 0.27874 0.37998 0.0
H1041 H 0.01829 0.26452 0.36183 0.0
H1042 H 0.04486 0.2561 0.35048 0.0
H1043 H 0.07993 0.28366 0.34318 0.0
H1044 H 0.86121 0.77432 0.39901 0.0
H1045 H 0.83235 0.77973 0.38688 0.0
H1046 H 0.82731 0.80608 0.4321 0.0
H1047 H 0.85618 0.80092 0.44424 0.0
H1048 H 0.78857 0.76157 0.39688 0.0
H1049 H 0.8333 0.85095 0.40067 0.0
H1050 H 0.84689 0.83546 0.40172 0.0
H1051 H 0.83511 0.83964 0.41862 0.0
C1052 C 0.85414 0.78155 0.4063 0.0
C1053 C 0.86092 0.78718 0.42257 0.0
C1054 C 0.83761 0.7845 0.39939 0.0
C1055 C 0.82784 0.79343 0.40859 0.0
C1056 C 0.83481 0.79937 0.42477 0.0
H1057 H 0.70565 0.79141 0.39198 0.0
H1058 H 0.73578 0.78666 0.40199 0.0
C1059 C 0.85118 0.79628 0.4317 0.0
C1060 C 0.8098 0.79584 0.40147 0.0
H1061 H 0.79524 0.83326 0.39364 0.0
C1062 C 0.79002 0.77723 0.39608 0.0
C1063 C 0.81184 0.81629 0.40038 0.0
C1064 C 0.83296 0.83678 0.40553 0.0
C1065 C 0.77204 0.77854 0.38992 0.0
C1066 C 0.77391 0.79898 0.38925 0.0
C1067 C 0.79383 0.8176 0.39432 0.0
C1068 C 0.75545 0.80143 0.3831 0.0
C1069 C 0.75123 0.75808 0.38406 0.0
C1070 C 0.75668 0.81155 0.3693 0.0
C1071 C 0.73953 0.81427 0.36354 0.0
C1072 C 0.72086 0.80711 0.37157 0.0
C1073 C 0.71974 0.79706 0.38547 0.0
C1074 C 0.73689 0.79424 0.39118 0.0
H1075 H 0.7538 0.74412 0.38229 0.0
H1076 H 0.73938 0.75449 0.39288 0.0
H1077 H 0.74401 0.75992 0.37273 0.0
H1078 H 0.77092 0.81729 0.36294 0.0
H1079 H 0.74103 0.82215 0.35283 0.0
H1080 H 0.2412 0.07763 0.42745 0.0
H1081 H 0.23123 0.04074 0.41843 0.0
H1082 H 0.25283 0.06055 0.37294 0.0
H1083 H 0.26365 0.09773 0.38208 0.0
H1084 H 0.2021 0.01347 0.39344 0.0
H1085 H 0.28535 0.02951 0.3857 0.0
H1086 H 0.28026 0.04872 0.39631 0.0
H1087 H 0.27745 0.04581 0.37505 0.0
C1088 C 0.24409 0.07421 0.41559 0.0
C1089 C 0.25345 0.09067 0.40554 0.0
C1090 C 0.23823 0.05309 0.41042 0.0
C1091 C 0.24163 0.048 0.39512 0.0
C1092 C 0.25048 0.06424 0.38491 0.0
H1093 H 0.21455 0.92859 0.34341 0.0
H1094 H 0.2245 0.96571 0.35167 0.0
C1095 C 0.25641 0.08542 0.39008 0.0
C1096 C 0.23565 0.02559 0.38987 0.0
H1097 H 0.25638 0.99442 0.37692 0.0
C1098 C 0.21396 0.00927 0.38987 0.0
C1099 C 0.2512 0.02021 0.38524 0.0
C1100 C 0.27491 0.03693 0.38569 0.0
C1101 C 0.20734 0.98771 0.38517 0.0
C1102 C 0.22288 0.98235 0.38056 0.0
C1103 C 0.24454 0.99865 0.38047 0.0
C1104 C 0.21696 0.95988 0.37573 0.0
C1105 C 0.18371 0.97087 0.38493 0.0
C1106 C 0.20972 0.94443 0.38663 0.0
C1107 C 0.20406 0.92319 0.38198 0.0
C1108 C 0.20557 0.91707 0.36634 0.0
C1109 C 0.2131 0.93271 0.35552 0.0
C1110 C 0.21883 0.95394 0.36021 0.0
H1111 H 0.17318 0.97815 0.38538 0.0
H1112 H 0.17822 0.95932 0.37415 0.0
H1113 H 0.18154 0.96169 0.39538 0.0
H1114 H 0.20851 0.94882 0.39874 0.0
H1115 H 0.1984 0.91157 0.39062 0.0
H1116 H 0.47027 0.59404 0.30734 0.0
H1117 H 0.49981 0.62903 0.31948 0.0
H1118 H 0.5468 0.61291 0.30406 0.0
H1119 H 0.51749 0.57781 0.29217 0.0
H1120 H 0.53896 0.63993 0.34262 0.0
H1121 H 0.55787 0.66935 0.28334 0.0
H1122 H 0.53211 0.64657 0.28654 0.0
H1123 H 0.55567 0.64374 0.28607 0.0
C1124 C 0.48689 0.59776 0.30681 0.0
C1125 C 0.49155 0.58326 0.29863 0.0
C1126 C 0.50371 0.61777 0.31369 0.0
C1127 C 0.5254 0.62358 0.31244 0.0
C1128 C 0.53013 0.60878 0.30494 0.0
H1129 H 0.64655 0.74558 0.33104 0.0
H1130 H 0.61895 0.70786 0.32351 0.0
C1131 C 0.51337 0.5888 0.29811 0.0
C1132 C 0.54312 0.64552 0.3182 0.0
H1133 H 0.58073 0.69266 0.30538 0.0
C1134 C 0.54813 0.65151 0.33453 0.0
C1135 C 0.55504 0.66045 0.30755 0.0
C1136 C 0.5499 0.65487 0.28988 0.0
C1137 C 0.565 0.67212 0.34053 0.0
C1138 C 0.57675 0.6872 0.32986 0.0
C1139 C 0.57176 0.68108 0.31353 0.0
C1140 C 0.59383 0.70965 0.33531 0.0
C1141 C 0.57032 0.67738 0.3582 0.0
C1142 C 0.58884 0.7232 0.34437 0.0
C1143 C 0.60458 0.7447 0.34875 0.0
C1144 C 0.62558 0.75316 0.34399 0.0
C1145 C 0.63056 0.73956 0.33493 0.0
C1146 C 0.61481 0.718 0.33061 0.0
H1147 H 0.56472 0.66258 0.36437 0.0
H1148 H 0.58804 0.68801 0.36144 0.0
H1149 H 0.56196 0.68586 0.36257 0.0
H1150 H 0.57262 0.7173 0.34776 0.0
H1151 H 0.60013 0.75476 0.35563 0.0
H1152 H 0.40516 0.91904 0.284 0.0
H1153 H 0.37266 0.91364 0.29557 0.0
H1154 H 0.36098 0.85221 0.30921 0.0
H1155 H 0.39273 0.85684 0.29677 0.0
H1156 H 0.32488 0.84879 0.29601 0.0
H1157 H 0.36285 0.91934 0.34085 0.0
H1158 H 0.36915 0.92705 0.32136 0.0
H1159 H 0.37859 0.9106 0.33017 0.0
C1160 C 0.39564 0.9043 0.28937 0.0
C1161 C 0.40162 0.88835 0.28938 0.0
C1162 C 0.37722 0.9014 0.29623 0.0
C1163 C 0.36456 0.88271 0.30355 0.0
C1164 C 0.37058 0.86686 0.30375 0.0
H1165 H 0.26076 0.86804 0.35992 0.0
H1166 H 0.29457 0.87256 0.35103 0.0
C1167 C 0.38889 0.86963 0.29674 0.0
C1168 C 0.34439 0.87914 0.31018 0.0
H1169 H 0.32425 0.9022 0.33506 0.0
C1170 C 0.32479 0.86039 0.30466 0.0
C1171 C 0.34426 0.89409 0.32166 0.0
C1172 C 0.36488 0.91377 0.32898 0.0
C1173 C 0.30503 0.85641 0.30997 0.0
C1174 C 0.30474 0.87195 0.32075 0.0
C1175 C 0.3244 0.89043 0.32661 0.0
C1176 C 0.28421 0.86934 0.3261 0.0
C1177 C 0.28474 0.83543 0.30412 0.0
C1178 C 0.26726 0.8664 0.31507 0.0
C1179 C 0.24783 0.86357 0.3201 0.0
C1180 C 0.2451 0.86404 0.33631 0.0
C1181 C 0.26232 0.86759 0.34736 0.0
C1182 C 0.28167 0.87017 0.34229 0.0
H1183 H 0.28862 0.82284 0.30021 0.0
H1184 H 0.27351 0.82939 0.31344 0.0
H1185 H 0.27624 0.83793 0.29381 0.0
H1186 H 0.26906 0.86635 0.30254 0.0
H1187 H 0.235 0.86114 0.31128 0.0
H1188 H 0.08341 0.50557 0.33042 0.0
H1189 H 0.09364 0.48005 0.34016 0.0
H1190 H 0.1273 0.48447 0.29898 0.0
H1191 H 0.11787 0.51046 0.2895 0.0
H1192 H 0.08252 0.44044 0.32524 0.0
H1193 H 0.17193 0.49223 0.33448 0.0
H1194 H 0.15402 0.50306 0.33196 0.0
H1195 H 0.16089 0.49246 0.31503 0.0
C1196 C 0.09336 0.50142 0.32362 0.0
C1197 C 0.09981 0.50999 0.30918 0.0
C1198 C 0.09907 0.48676 0.32914 0.0
C1199 C 0.11146 0.4806 0.32038 0.0
C1200 C 0.1181 0.48933 0.30607 0.0
H1201 H 0.14978 0.38462 0.31966 0.0
H1202 H 0.14109 0.41262 0.31392 0.0
C1203 C 0.11246 0.50397 0.30057 0.0
C1204 C 0.11638 0.46408 0.32563 0.0
H1205 H 0.15794 0.45419 0.33345 0.0
C1206 C 0.09901 0.44349 0.32724 0.0
C1207 C 0.13792 0.46815 0.32821 0.0
C1208 C 0.15726 0.49024 0.32749 0.0
C1209 C 0.10258 0.42663 0.33083 0.0
C1210 C 0.12408 0.43059 0.33296 0.0
C1211 C 0.14147 0.45124 0.33167 0.0
C1212 C 0.12886 0.41339 0.3364 0.0
C1213 C 0.08338 0.40456 0.33185 0.0
C1214 C 0.1249 0.4047 0.35097 0.0
C1215 C 0.1299 0.38877 0.35432 0.0
C1216 C 0.13893 0.38127 0.34313 0.0
C1217 C 0.14277 0.38998 0.32851 0.0
C1218 C 0.13788 0.406 0.32522 0.0
H1219 H 0.06788 0.40327 0.32711 0.0
H1220 H 0.08543 0.39205 0.32525 0.0
H1221 H 0.08224 0.40113 0.34441 0.0
H1222 H 0.11817 0.41042 0.3598 0.0
H1223 H 0.12676 0.38243 0.3657 0.0
H1224 H 0.36888 0.45722 0.2797 0.0
H1225 H 0.33377 0.4383 0.29034 0.0
H1226 H 0.35293 0.49327 0.324 0.0
H1227 H 0.38817 0.51233 0.31339 0.0
H1228 H 0.33405 0.45187 0.33679 0.0
H1229 H 0.28369 0.45184 0.28443 0.0
H1230 H 0.30199 0.44241 0.27998 0.0
H1231 H 0.31266 0.46992 0.28775 0.0
C1232 C 0.36557 0.46528 0.28934 0.0
C1233 C 0.38119 0.48623 0.29567 0.0
C1234 C 0.3455 0.45452 0.29534 0.0
C1235 C 0.34067 0.46452 0.30779 0.0
C1236 C 0.35633 0.48536 0.3143 0.0
H1237 H 0.22505 0.40726 0.35988 0.0
H1238 H 0.26019 0.43292 0.35137 0.0
C1239 C 0.37642 0.49621 0.30823 0.0
C1240 C 0.31944 0.45283 0.3142 0.0
H1241 H 0.2649 0.4282 0.30362 0.0
C1242 C 0.3189 0.44691 0.32966 0.0
C1243 C 0.29977 0.44645 0.30482 0.0
C1244 C 0.29946 0.45312 0.28837 0.0
C1245 C 0.29911 0.43384 0.33574 0.0
C1246 C 0.27942 0.42692 0.32618 0.0
C1247 C 0.28001 0.43347 0.31091 0.0
C1248 C 0.25804 0.41178 0.33137 0.0
C1249 C 0.29947 0.42675 0.35205 0.0
C1250 C 0.24495 0.39163 0.32273 0.0
C1251 C 0.22486 0.37704 0.32746 0.0
C1252 C 0.21737 0.38229 0.34096 0.0
C1253 C 0.23039 0.40263 0.3495 0.0
C1254 C 0.25053 0.41728 0.34471 0.0
H1255 H 0.31576 0.42957 0.35642 0.0
H1256 H 0.2951 0.436 0.36043 0.0
H1257 H 0.28747 0.40938 0.35213 0.0
H1258 H 0.25039 0.3871 0.31236 0.0
H1259 H 0.21525 0.36159 0.32052 0.0
H1260 H 0.49888 0.85515 0.26208 0.0
H1261 H 0.52637 0.84756 0.27361 0.0
H1262 H 0.51827 0.86752 0.32018 0.0
H1263 H 0.49049 0.87483 0.30872 0.0
H1264 H 0.56535 0.87585 0.29135 0.0
H1265 H 0.51265 0.80893 0.32571 0.0
H1266 H 0.50182 0.81853 0.31049 0.0
H1267 H 0.51175 0.83323 0.32977 0.0
C1268 C 0.50287 0.85776 0.27479 0.0
C1269 C 0.49249 0.86543 0.2845 0.0
C1270 C 0.51858 0.85347 0.28136 0.0
C1271 C 0.52416 0.8567 0.29777 0.0
C1272 C 0.51389 0.86449 0.30752 0.0
H1273 H 0.61828 0.84276 0.35791 0.0
H1274 H 0.59066 0.85049 0.34708 0.0
C1275 C 0.4981 0.86876 0.30095 0.0
C1276 C 0.54118 0.85248 0.30454 0.0
H1277 H 0.55044 0.82183 0.32966 0.0
C1278 C 0.56208 0.864 0.29969 0.0
C1279 C 0.53687 0.83703 0.31543 0.0
C1280 C 0.51453 0.82356 0.32058 0.0
C1281 C 0.57888 0.86065 0.30557 0.0
C1282 C 0.57454 0.84514 0.31641 0.0
C1283 C 0.55369 0.83371 0.32134 0.0
C1284 C 0.59146 0.84056 0.32281 0.0
C1285 C 0.60121 0.87402 0.30037 0.0
C1286 C 0.60092 0.83221 0.31275 0.0
C1287 C 0.61675 0.82776 0.31889 0.0
C1288 C 0.62334 0.8315 0.33523 0.0
C1289 C 0.61368 0.83974 0.34527 0.0
C1290 C 0.59785 0.84414 0.33912 0.0
H1291 H 0.60313 0.88868 0.29524 0.0
H1292 H 0.61394 0.87899 0.31043 0.0
H1293 H 0.60389 0.86429 0.29117 0.0
H1294 H 0.59593 0.82896 0.30016 0.0
H1295 H 0.62377 0.82135 0.31082 0.0
H1296 H 0.11391 0.60931 0.33277 0.0
H1297 H 0.13003 0.64803 0.33993 0.0
H1298 H 0.07677 0.64727 0.31242 0.0
H1299 H 0.06039 0.60849 0.30544 0.0
H1300 H 0.14342 0.67907 0.3192 0.0
H1301 H 0.08098 0.68116 0.35356 0.0
H1302 H 0.08186 0.6568 0.34907 0.0
H1303 H 0.07009 0.66621 0.33447 0.0
C1304 C 0.10548 0.61734 0.32844 0.0
C1305 C 0.08587 0.60595 0.31856 0.0
C1306 C 0.11472 0.63945 0.33253 0.0
C1307 C 0.10446 0.65046 0.32687 0.0
C1308 C 0.08471 0.63901 0.31721 0.0
H1309 H 0.13612 0.7824 0.32449 0.0
H1310 H 0.12062 0.74339 0.32052 0.0
C1311 C 0.07543 0.61691 0.31316 0.0
C1312 C 0.11511 0.67414 0.33014 0.0
H1313 H 0.10736 0.71455 0.34507 0.0
C1314 C 0.13565 0.68685 0.32501 0.0
C1315 C 0.1049 0.6842 0.33769 0.0
C1316 C 0.08333 0.67139 0.34415 0.0
C1317 C 0.146 0.70939 0.32681 0.0
C1318 C 0.13559 0.71942 0.33408 0.0
C1319 C 0.1152 0.70675 0.33941 0.0
C1320 C 0.14552 0.74308 0.33615 0.0
C1321 C 0.16769 0.72232 0.32054 0.0
C1322 C 0.16464 0.75575 0.34626 0.0
C1323 C 0.17357 0.77805 0.34856 0.0
C1324 C 0.16346 0.78804 0.34082 0.0
C1325 C 0.14437 0.77526 0.33059 0.0
C1326 C 0.13544 0.75296 0.32834 0.0
H1327 H 0.17131 0.71221 0.31236 0.0
H1328 H 0.16824 0.73567 0.31425 0.0
H1329 H 0.18065 0.72949 0.33059 0.0
H1330 H 0.17247 0.74835 0.35256 0.0
H1331 H 0.18822 0.78739 0.35658 0.0
H1332 H 0.80087 0.05909 0.40708 0.0
H1333 H 0.77767 0.02102 0.39745 0.0
H1334 H 0.82949 0.02299 0.37279 0.0
H1335 H 0.85295 0.06098 0.3827 0.0
H1336 H 0.76338 0.00041 0.3675 0.0
H1337 H 0.81431 0.97323 0.39954 0.0
H1338 H 0.81824 -9e-05 0.40349 0.0
H1339 H 0.82825 0.99337 0.38642 0.0
C1340 C 0.80727 0.05139 0.39957 0.0
C1341 C 0.82871 0.06289 0.39574 0.0
C1342 C 0.79402 0.02968 0.39406 0.0
C1343 C 0.80196 0.01908 0.38461 0.0
C1344 C 0.82319 0.03073 0.38035 0.0
H1345 H 0.71547 0.88881 0.33749 0.0
H1346 H 0.74109 0.92754 0.3424 0.0
C1347 C 0.83653 0.05246 0.38595 0.0
C1348 C 0.78799 0.99577 0.3795 0.0
H1349 H 0.78366 0.94677 0.38304 0.0
C1350 C 0.76784 0.98866 0.37082 0.0
C1351 C 0.79376 0.98049 0.38401 0.0
C1352 C 0.81472 0.98704 0.394 0.0
C1353 C 0.75316 0.96666 0.36669 0.0
C1354 C 0.75902 0.9514 0.37109 0.0
C1355 C 0.77929 0.95853 0.37958 0.0
C1356 C 0.74385 0.92789 0.36789 0.0
C1357 C 0.73122 0.95993 0.35818 0.0
C1358 C 0.73737 0.91516 0.38055 0.0
C1359 C 0.72295 0.89304 0.37779 0.0
C1360 C 0.71469 0.88318 0.36228 0.0
C1361 C 0.72139 0.89593 0.34958 0.0
C1362 C 0.73594 0.91809 0.35237 0.0
H1363 H 0.72738 0.97312 0.35904 0.0
H1364 H 0.73112 0.95551 0.34547 0.0
H1365 H 0.71822 0.9457 0.36305 0.0
H1366 H 0.74333 0.92239 0.39262 0.0
H1367 H 0.71817 0.88372 0.38785 0.0
H1368 H 0.98865 0.7951 0.44299 0.0
H1369 H 0.02091 0.80422 0.42936 0.0
H1370 H 0.98973 0.81188 0.38719 0.0
H1371 H 0.95734 0.80271 0.40074 0.0
H1372 H 0.02207 0.78208 0.39971 0.0
H1373 H 0.05012 0.86899 0.39628 0.0
H1374 H 0.03167 0.85343 0.41016 0.0
H1375 H 0.02213 0.85003 0.38963 0.0
C1376 C 0.9887 0.79877 0.43082 0.0
C1377 C 0.97053 0.79823 0.42295 0.0
C1378 C 0.0071 0.80396 0.42306 0.0
C1379 C 0.00776 0.80891 0.40734 0.0
C1380 C 0.98962 0.80836 0.39939 0.0
H1381 H 0.11491 0.84998 0.34799 0.0
H1382 H 0.08016 0.84057 0.35802 0.0
C1383 C 0.97111 0.80304 0.40713 0.0
C1384 C 0.02735 0.81421 0.39925 0.0
H1385 H 0.07093 0.85556 0.38508 0.0
C1386 C 0.03273 0.79812 0.39644 0.0
C1387 C 0.04109 0.83509 0.39492 0.0
C1388 C 0.03615 0.853 0.39795 0.0
C1389 C 0.0516 0.80238 0.38949 0.0
C1390 C 0.06577 0.82346 0.38563 0.0
C1391 C 0.06011 0.83944 0.3881 0.0
C1392 C 0.08691 0.82941 0.37958 0.0
C1393 C 0.05604 0.78416 0.38621 0.0
C1394 C 0.10243 0.82669 0.3885 0.0
C1395 C 0.12219 0.83191 0.38278 0.0
C1396 C 0.12701 0.84024 0.36807 0.0
C1397 C 0.11169 0.84352 0.35933 0.0
C1398 C 0.09182 0.83816 0.36504 0.0
H1399 H 0.04087 0.76826 0.38515 0.0
H1400 H 0.06398 0.78571 0.37517 0.0
H1401 H 0.067 0.78443 0.39617 0.0
H1402 H 0.09928 0.82057 0.39996 0.0
H1403 H 0.13371 0.82946 0.38996 0.0
H1404 H 0.22974 0.16573 0.37956 0.0
H1405 H 0.21209 0.18509 0.36949 0.0
H1406 H 0.26439 0.24455 0.39346 0.0
H1407 H 0.2823 0.22537 0.40328 0.0
H1408 H 0.19749 0.2074 0.38673 0.0
H1409 H 0.25911 0.26196 0.34981 0.0
H1410 H 0.2593 0.23888 0.35695 0.0
H1411 H 0.27056 0.26371 0.36956 0.0
C1412 C 0.23761 0.18298 0.38251 0.0
C1413 C 0.25744 0.19414 0.39216 0.0
C1414 C 0.2275 0.19399 0.37676 0.0
C1415 C 0.2371 0.21631 0.38051 0.0
C1416 C 0.25696 0.22744 0.39008 0.0
H1417 H 0.20517 0.31528 0.37983 0.0
H1418 H 0.21968 0.29126 0.38359 0.0
C1419 C 0.26711 0.21646 0.39577 0.0
C1420 C 0.22579 0.22783 0.37533 0.0
H1421 H 0.23314 0.27192 0.35739 0.0
C1422 C 0.2051 0.22129 0.38008 0.0
C1423 C 0.23574 0.24589 0.3666 0.0
C1424 C 0.25731 0.25289 0.36029 0.0
C1425 C 0.19457 0.23298 0.377 0.0
C1426 C 0.20499 0.25157 0.36892 0.0
C1427 C 0.22531 0.2577 0.36369 0.0
C1428 C 0.19568 0.26565 0.36663 0.0
C1429 C 0.1728 0.22598 0.38295 0.0
C1430 C 0.17738 0.2591 0.35583 0.0
C1431 C 0.16903 0.27283 0.35359 0.0
C1432 C 0.17887 0.29328 0.36217 0.0
C1433 C 0.19714 0.29964 0.37306 0.0
C1434 C 0.20551 0.28598 0.3752 0.0
H1435 H 0.16807 0.21264 0.3906 0.0
H1436 H 0.17306 0.23975 0.38974 0.0
H1437 H 0.16021 0.22044 0.37273 0.0
H1438 H 0.16971 0.24349 0.34903 0.0
H1439 H 0.15497 0.26745 0.3451 0.0
H1440 H 0.6238 0.50925 0.76434 0.0
H1441 H 0.65651 0.53513 0.75323 0.0
H1442 H 0.62088 0.51775 0.70696 0.0
H1443 H 0.58784 0.4921 0.71807 0.0
H1444 H 0.67709 0.52628 0.7286 0.0
H1445 H 0.65038 0.58428 0.7131 0.0
H1446 H 0.63702 0.56432 0.72663 0.0
H1447 H 0.63236 0.55658 0.70572 0.0
C1448 C 0.62283 0.51112 0.75183 0.0
C1449 C 0.60318 0.49875 0.74211 0.0
C1450 C 0.64156 0.5258 0.74549 0.0
C1451 C 0.64103 0.52852 0.72932 0.0
C1452 C 0.62153 0.51611 0.71952 0.0
H1453 H 0.74554 0.61776 0.67675 0.0
H1454 H 0.7106 0.58949 0.68376 0.0
C1455 C 0.60274 0.50133 0.72585 0.0
C1456 C 0.66111 0.54408 0.7228 0.0
H1457 H 0.68495 0.59192 0.70656 0.0
C1458 C 0.67881 0.5406 0.72373 0.0
C1459 C 0.6632 0.56265 0.71637 0.0
C1460 C 0.64483 0.56737 0.71545 0.0
C1461 C 0.69866 0.55532 0.71852 0.0
C1462 C 0.70098 0.57423 0.71252 0.0
C1463 C 0.68311 0.57744 0.7112 0.0
C1464 C 0.7221 0.59129 0.70822 0.0
C1465 C 0.71694 0.55045 0.71943 0.0
C1466 C 0.74002 0.60188 0.71972 0.0
C1467 C 0.75997 0.61799 0.71577 0.0
C1468 C 0.76238 0.62396 0.70025 0.0
C1469 C 0.74428 0.61353 0.6888 0.0
C1470 C 0.7243 0.59738 0.69277 0.0
H1471 H 0.71082 0.53297 0.71983 0.0
H1472 H 0.72653 0.55588 0.70916 0.0
H1473 H 0.72794 0.55907 0.73038 0.0
H1474 H 0.73854 0.59776 0.7318 0.0
H1475 H 0.77349 0.62576 0.72493 0.0
H1476 H 0.5455 0.14581 0.74762 0.0
H1477 H 0.51587 0.15025 0.73593 0.0
H1478 H 0.46959 0.08532 0.74435 0.0
H1479 H 0.49911 0.08058 0.7557 0.0
H1480 H 0.46207 0.0964 0.71426 0.0
H1481 H 0.4729 0.15721 0.76255 0.0
H1482 H 0.49685 0.16349 0.75305 0.0
H1483 H 0.48517 0.14058 0.76423 0.0
C1484 C 0.52905 0.13239 0.74678 0.0
C1485 C 0.52463 0.1129 0.75271 0.0
C1486 C 0.51212 0.13502 0.74025 0.0
C1487 C 0.49051 0.11824 0.73955 0.0
C1488 C 0.48614 0.09853 0.74491 0.0
H1489 H 0.37295 0.12634 0.72647 0.0
H1490 H 0.40216 0.12012 0.73633 0.0
C1491 C 0.50301 0.0959 0.75146 0.0
C1492 C 0.47235 0.12124 0.73349 0.0
H1493 H 0.44709 0.1501 0.74084 0.0
C1494 C 0.45878 0.10815 0.72005 0.0
C1495 C 0.4679 0.13633 0.74123 0.0
C1496 C 0.48132 0.1501 0.75615 0.0
C1497 C 0.44107 0.10997 0.714 0.0
C1498 C 0.43698 0.12546 0.72149 0.0
C1499 C 0.45035 0.13833 0.73507 0.0
C1500 C 0.41902 0.12872 0.71535 0.0
C1501 C 0.42667 0.09508 0.69977 0.0
C1502 C 0.41893 0.13578 0.70034 0.0
C1503 C 0.40231 0.13935 0.69467 0.0
C1504 C 0.38544 0.13603 0.70392 0.0
C1505 C 0.3856 0.12897 0.71899 0.0
C1506 C 0.4023 0.12545 0.72467 0.0
H1507 H 0.42856 0.0807 0.69797 0.0
H1508 H 0.40935 0.08963 0.70099 0.0
H1509 H 0.43112 0.1038 0.68905 0.0
H1510 H 0.43188 0.13879 0.69307 0.0
H1511 H 0.4028 0.14486 0.68304 0.0
H1512 H 0.93517 0.43704 0.71178 0.0
H1513 H 0.92436 0.40045 0.70094 0.0
H1514 H 0.90383 0.37722 0.74592 0.0
H1515 H 0.91376 0.41348 0.75665 0.0
H1516 H 0.93899 0.37341 0.71058 0.0
H1517 H 0.85081 0.33696 0.71523 0.0
H1518 H 0.86903 0.3657 0.71712 0.0
H1519 H 0.86704 0.35044 0.73361 0.0
C1520 C 0.9281 0.42409 0.7193 0.0
C1521 C 0.92526 0.42817 0.73506 0.0
C1522 C 0.92208 0.40323 0.71312 0.0
C1523 C 0.913 0.3861 0.72256 0.0
C1524 C 0.91042 0.39015 0.73834 0.0
H1525 H 0.90244 0.26136 0.71152 0.0
H1526 H 0.91363 0.29916 0.71812 0.0
C1527 C 0.91637 0.41095 0.74452 0.0
C1528 C 0.90659 0.364 0.71604 0.0
H1529 H 0.86385 0.31256 0.7105 0.0
C1530 C 0.92252 0.36011 0.71043 0.0
C1531 C 0.88504 0.34676 0.71562 0.0
C1532 C 0.86694 0.35017 0.72057 0.0
C1533 C 0.91761 0.33928 0.70488 0.0
C1534 C 0.8963 0.32187 0.70525 0.0
C1535 C 0.88023 0.32589 0.71039 0.0
C1536 C 0.89032 0.29928 0.70065 0.0
C1537 C 0.93524 0.33615 0.69857 0.0
C1538 C 0.87323 0.28667 0.68884 0.0
C1539 C 0.86662 0.26498 0.68516 0.0
C1540 C 0.87697 0.25548 0.69326 0.0
C1541 C 0.89424 0.26821 0.70497 0.0
C1542 C 0.90076 0.28988 0.7087 0.0
H1543 H 0.94826 0.35128 0.69465 0.0
H1544 H 0.94271 0.33123 0.70809 0.0
H1545 H 0.92863 0.32341 0.68848 0.0
H1546 H 0.86488 0.29359 0.68254 0.0
H1547 H 0.85326 0.25563 0.67607 0.0
H1548 H 0.15555 0.9353 0.60462 0.0
H1549 H 0.18478 0.97033 0.61651 0.0
H1550 H 0.18155 0.94468 0.66149 0.0
H1551 H 0.15272 0.90923 0.6495 0.0
H1552 H 0.18557 0.99705 0.6411 0.0
H1553 H 0.24574 0.97109 0.6548 0.0
H1554 H 0.22098 0.95467 0.64195 0.0
H1555 H 0.22045 0.956 0.66304 0.0
C1556 C 0.16117 0.93704 0.61702 0.0
C1557 C 0.15202 0.91942 0.62608 0.0
C1558 C 0.17778 0.9571 0.62381 0.0
C1559 C 0.1856 0.95999 0.6398 0.0
C1560 C 0.17605 0.94266 0.64904 0.0
H1561 H 0.26851 0.08609 0.69147 0.0
H1562 H 0.23926 0.04966 0.68252 0.0
C1563 C 0.15941 0.9225 0.64223 0.0
C1564 C 0.20371 0.98126 0.64665 0.0
H1565 H 0.25614 0.00703 0.66363 0.0
C1566 C 0.20099 -0.00076 0.64607 0.0
C1567 C 0.2239 0.98408 0.6529 0.0
C1568 C 0.22811 0.9655 0.65311 0.0
C1569 C 0.21789 0.01999 0.65159 0.0
C1570 C 0.23792 0.02276 0.65816 0.0
C1571 C 0.2407 0.0048 0.6587 0.0
C1572 C 0.25627 0.04427 0.66428 0.0
C1573 C 0.21431 0.03882 0.64995 0.0
C1574 C 0.27589 0.05299 0.65739 0.0
C1575 C 0.29279 0.0738 0.66258 0.0
C1576 C 0.29032 0.08619 0.67475 0.0
C1577 C 0.27088 0.07709 0.68195 0.0
C1578 C 0.25408 0.05629 0.67681 0.0
H1579 H 0.20039 0.0347 0.64108 0.0
H1580 H 0.21073 0.04359 0.66149 0.0
H1581 H 0.229 0.05289 0.64644 0.0
H1582 H 0.27793 0.04389 0.64775 0.0
H1583 H 0.30757 0.08033 0.65681 0.0
H1584 H 0.05818 0.18939 0.62775 0.0
H1585 H 0.02583 0.18483 0.63938 0.0
H1586 H 0.04264 0.24945 0.63044 0.0
H1587 H 0.07532 0.25436 0.61919 0.0
H1588 H 0.02868 0.23858 0.6607 0.0
H1589 H 0.97166 0.17698 0.61273 0.0
H1590 H 0.99095 0.17103 0.62231 0.0
H1591 H 1.00026 0.19378 0.61098 0.0
C1592 C 0.05517 0.20274 0.62846 0.0
C1593 C 0.06927 0.2222 0.62245 0.0
C1594 C 0.03655 0.20002 0.63496 0.0
C1595 C 0.03166 0.21667 0.63552 0.0
C1596 C 0.04604 0.23634 0.63001 0.0
H1597 H 0.90848 0.20905 0.64696 0.0
H1598 H 0.94237 0.21425 0.63782 0.0
C1599 C 0.06463 0.23906 0.62349 0.0
C1600 C 0.01136 0.21352 0.64159 0.0
H1601 H 0.95614 0.18409 0.63436 0.0
C1602 C 0.01281 0.22666 0.65497 0.0
C1603 C 0.9907 0.19815 0.63395 0.0
C1604 C 0.98818 0.18428 0.61911 0.0
C1605 C 0.9941 0.22468 0.66102 0.0
C1606 C 0.97344 0.20899 0.65357 0.0
C1607 C 0.97201 0.19599 0.64011 0.0
C1608 C 0.95306 0.20606 0.65935 0.0
C1609 C 0.99662 0.23971 0.6751 0.0
C1610 C 0.94772 0.19952 0.67444 0.0
C1611 C 0.92834 0.19653 0.67973 0.0
C1612 C 0.91388 0.19996 0.66999 0.0
C1613 C 0.91925 0.20637 0.65482 0.0
C1614 C 0.93861 0.20931 0.64955 0.0
H1615 H 0.0132 0.25401 0.67702 0.0
H1616 H 0.98468 0.24528 0.67363 0.0
H1617 H 0.99363 0.23104 0.68587 0.0
H1618 H 0.95845 0.19653 0.68208 0.0
H1619 H 0.9247 0.1915 0.69144 0.0
H1620 H 0.77984 0.844 0.62272 0.0
H1621 H 0.78927 0.81761 0.63137 0.0
H1622 H 0.76158 0.81669 0.67509 0.0
H1623 H 0.7513 0.84255 0.66625 0.0
H1624 H 0.81509 0.81916 0.65755 0.0
H1625 H 0.72992 0.75318 0.65805 0.0
H1626 H 0.73679 0.77752 0.64891 0.0
H1627 H 0.73689 0.77752 0.67003 0.0
C1628 C 0.77558 0.83806 0.63413 0.0
C1629 C 0.76453 0.84511 0.6437 0.0
C1630 C 0.78113 0.8231 0.63909 0.0
C1631 C 0.77576 0.81491 0.65373 0.0
C1632 C 0.76546 0.8225 0.6636 0.0
H1633 H 0.79409 0.71931 0.69942 0.0
H1634 H 0.78605 0.74752 0.69315 0.0
C1635 C 0.75983 0.83744 0.65861 0.0
C1636 C 0.78082 0.79828 0.65847 0.0
H1637 H 0.75753 0.74609 0.6671 0.0
C1638 C 0.80253 0.80318 0.65965 0.0
C1639 C 0.76435 0.77744 0.66114 0.0
C1640 C 0.74065 0.77096 0.65935 0.0
C1641 C 0.80823 0.78781 0.66352 0.0
C1642 C 0.79175 0.76697 0.66609 0.0
C1643 C 0.77009 0.76212 0.6651 0.0
C1644 C 0.79666 0.7499 0.66975 0.0
C1645 C 0.83185 0.79403 0.665 0.0
C1646 C 0.80499 0.74172 0.65854 0.0
C1647 C 0.80955 0.72553 0.66204 0.0
C1648 C 0.80583 0.71727 0.67682 0.0
C1649 C 0.79723 0.72537 0.68794 0.0
C1650 C 0.79261 0.74147 0.6844 0.0
H1651 H 0.84273 0.81178 0.66622 0.0
H1652 H 0.83579 0.78739 0.67536 0.0
H1653 H 0.83524 0.78727 0.65424 0.0
H1654 H 0.80787 0.7478 0.64705 0.0
H1655 H 0.81609 0.71961 0.65319 0.0
H1656 H 0.03716 0.78699 0.61629 0.0
H1657 H 0.00295 0.76766 0.62805 0.0
H1658 H 0.019 0.82558 0.65727 0.0
H1659 H 0.05306 0.84511 0.64531 0.0
H1660 H 0.99651 0.76092 0.6593 0.0
H1661 H 0.9581 0.80667 0.6371 0.0
H1662 H 0.98188 0.80844 0.62945 0.0
H1663 H 0.98429 0.82276 0.64813 0.0
C1664 C 0.03333 0.7956 0.62518 0.0
C1665 C 0.04768 0.81752 0.62983 0.0
C1666 C 0.01382 0.78456 0.6319 0.0
C1667 C 0.00829 0.79525 0.64338 0.0
C1668 C 0.02273 0.81713 0.64819 0.0
H1669 H 0.89111 0.74176 0.6935 0.0
H1670 H 0.92734 0.76593 0.68574 0.0
C1671 C 0.04225 0.82823 0.64141 0.0
C1672 C 0.98756 0.78321 0.65044 0.0
H1673 H 0.93856 0.77988 0.65386 0.0
C1674 C 0.98388 0.76512 0.65816 0.0
C1675 C 0.97113 0.78879 0.649 0.0
C1676 C 0.97388 0.80761 0.64037 0.0
C1677 C 0.96412 0.75228 0.66427 0.0
C1678 C 0.94754 0.75754 0.66249 0.0
C1679 C 0.95138 0.77596 0.65521 0.0
C1680 C 0.92563 0.74323 0.66715 0.0
C1681 C 0.96105 0.73306 0.67251 0.0
C1682 C 0.91264 0.72268 0.65908 0.0
C1683 C 0.89202 0.70893 0.6634 0.0
C1684 C 0.88392 0.71544 0.67592 0.0
C1685 C 0.89689 0.7362 0.68387 0.0
C1686 C 0.91756 0.75003 0.67945 0.0
H1687 H 0.97681 0.73427 0.67637 0.0
H1688 H 0.952 0.73132 0.68299 0.0
H1689 H 0.95148 0.71825 0.66423 0.0
H1690 H 0.91848 0.71729 0.64939 0.0
H1691 H 0.88248 0.69313 0.65694 0.0
H1692 H 0.15736 0.20742 0.64169 0.0
H1693 H 0.18607 0.20134 0.65309 0.0
H1694 H 0.19473 0.18214 0.60646 0.0
H1695 H 0.1663 0.18844 0.59501 0.0
H1696 H 0.1885 0.16352 0.65122 0.0
H1697 H 0.25632 0.22837 0.62398 0.0
H1698 H 0.23037 0.22684 0.62469 0.0
H1699 H 0.23375 0.21009 0.61 0.0
C1700 C 0.16541 0.20193 0.63388 0.0
C1701 C 0.1597 0.19847 0.61745 0.0
C1702 C 0.18179 0.19847 0.6404 0.0
C1703 C 0.19278 0.19165 0.63059 0.0
C1704 C 0.1868 0.18786 0.61422 0.0
H1705 H 0.29195 0.15635 0.64363 0.0
H1706 H 0.26392 0.16395 0.63336 0.0
C1707 C 0.17048 0.19132 0.60771 0.0
C1708 C 0.21019 0.18805 0.63744 0.0
H1709 H 0.26364 0.2034 0.63624 0.0
C1710 C 0.20497 0.17234 0.64805 0.0
C1711 C 0.23166 0.19957 0.63325 0.0
C1712 C 0.23847 0.21731 0.62247 0.0
C1713 C 0.22053 0.16746 0.65429 0.0
C1714 C 0.24193 0.17883 0.64998 0.0
C1715 C 0.24719 0.19465 0.63947 0.0
C1716 C 0.2591 0.17454 0.65625 0.0
C1717 C 0.21379 0.14978 0.66512 0.0
C1718 C 0.26593 0.17834 0.67249 0.0
C1719 C 0.28195 0.17404 0.67841 0.0
C1720 C 0.29153 0.16593 0.66818 0.0
C1721 C 0.2849 0.16251 0.65186 0.0
C1722 C 0.26889 0.16685 0.64595 0.0
H1723 H 0.19588 0.13924 0.66421 0.0
H1724 H 0.22116 0.13969 0.6624 0.0
H1725 H 0.2195 0.15708 0.67754 0.0
H1726 H 0.25889 0.18466 0.6806 0.0
H1727 H 0.28671 0.17699 0.69103 0.0
H1728 H 0.78241 0.94518 0.66966 0.0
H1729 H 0.79913 0.98357 0.67847 0.0
H1730 H 0.74645 0.98564 0.65247 0.0
H1731 H 0.72945 0.94719 0.64391 0.0
H1732 H 0.81356 0.01635 0.66002 0.0
H1733 H 0.75081 0.01692 0.69467 0.0
H1734 H 0.751 0.9925 0.68882 0.0
H1735 H 0.73987 0.00357 0.67512 0.0
C1736 C 0.77424 0.95376 0.66601 0.0
C1737 C 0.75459 0.94325 0.65613 0.0
C1738 C 0.78382 0.97568 0.67105 0.0
C1739 C 0.77388 0.9874 0.66632 0.0
C1740 C 0.75414 0.97682 0.65659 0.0
H1741 H 0.83165 0.12201 0.65496 0.0
H1742 H 0.81671 0.0831 0.65226 0.0
C1743 C 0.74451 0.95491 0.65163 0.0
C1744 C 0.78485 0.01096 0.67058 0.0
H1745 H 0.77696 0.05087 0.68642 0.0
C1746 C 0.80567 0.02389 0.66597 0.0
C1747 C 0.77468 0.02076 0.67854 0.0
C1748 C 0.75295 0.0077 0.68473 0.0
C1749 C 0.81625 0.04641 0.66854 0.0
C1750 C 0.80549 0.05624 0.6756 0.0
C1751 C 0.78505 0.0433 0.6808 0.0
C1752 C 0.81491 0.0799 0.67733 0.0
C1753 C 0.83884 0.05944 0.66369 0.0
C1754 C 0.81832 0.09096 0.69228 0.0
C1755 C 0.82665 0.1132 0.69385 0.0
C1756 C 0.83164 0.12478 0.68048 0.0
C1757 C 0.82813 0.11363 0.66551 0.0
C1758 C 0.81972 0.09139 0.66396 0.0
H1759 H 0.84715 0.04985 0.66312 0.0
H1760 H 0.83784 0.0645 0.65174 0.0
H1761 H 0.8489 0.07411 0.67203 0.0
H1762 H 0.81458 0.08236 0.70274 0.0
H1763 H 0.82915 0.12129 0.70555 0.0
H1764 H 0.50375 0.37098 0.7621 0.0
H1765 H 0.47606 0.33574 0.7492 0.0
H1766 H 0.48574 0.36127 0.70389 0.0
H1767 H 0.5137 0.39665 0.71675 0.0
H1768 H 0.43734 0.32643 0.73054 0.0
H1769 H 0.49039 0.30618 0.69693 0.0
H1770 H 0.50112 0.32701 0.71326 0.0
H1771 H 0.4923 0.33173 0.69446 0.0
C1772 C 0.50006 0.36904 0.74937 0.0
C1773 C 0.51089 0.38647 0.74042 0.0
C1774 C 0.48424 0.34894 0.74203 0.0
C1775 C 0.47901 0.34587 0.72559 0.0
C1776 C 0.4898 0.36325 0.71657 0.0
H1777 H 0.38381 0.22207 0.67214 0.0
H1778 H 0.4102 0.26055 0.67839 0.0
C1779 C 0.50568 0.38345 0.72393 0.0
C1780 C 0.46181 0.32449 0.71818 0.0
H1781 H 0.45326 0.28014 0.69498 0.0
C1782 C 0.44076 0.31638 0.72264 0.0
C1783 C 0.46631 0.31152 0.70778 0.0
C1784 C 0.48876 0.31939 0.70285 0.0
C1785 C 0.42423 0.29537 0.71738 0.0
C1786 C 0.42898 0.28204 0.7076 0.0
C1787 C 0.44974 0.29044 0.70253 0.0
C1788 C 0.4131 0.25887 0.70364 0.0
C1789 C 0.40188 0.28751 0.72252 0.0
C1790 C 0.40633 0.24522 0.71575 0.0
C1791 C 0.39138 0.22334 0.71225 0.0
C1792 C 0.38292 0.21462 0.69654 0.0
C1793 C 0.38993 0.2283 0.68437 0.0
C1794 C 0.40501 0.25026 0.6879 0.0
H1795 H 0.39927 0.30111 0.72598 0.0
H1796 H 0.3891 0.27667 0.71295 0.0
H1797 H 0.40002 0.27834 0.73293 0.0
H1798 H 0.4127 0.25151 0.72794 0.0
H1799 H 0.38644 0.2133 0.72192 0.0
H1800 H 0.62361 0.12805 0.73342 0.0
H1801 H 0.65672 0.13656 0.72107 0.0
H1802 H 0.69272 0.15343 0.76718 0.0
H1803 H 0.65964 0.14457 0.77957 0.0
H1804 H 0.6959 0.17469 0.72289 0.0
H1805 H 0.70795 0.11089 0.74691 0.0
H1806 H 0.68288 0.11119 0.74757 0.0
H1807 H 0.70569 0.12795 0.76194 0.0
C1808 C 0.63857 0.13352 0.74092 0.0
C1809 C 0.63907 0.13556 0.75748 0.0
C1810 C 0.65747 0.13839 0.73385 0.0
C1811 C 0.67712 0.14526 0.7432 0.0
C1812 C 0.67766 0.14766 0.75973 0.0
H1813 H 0.81032 0.18777 0.72765 0.0
H1814 H 0.77619 0.17902 0.73826 0.0
C1815 C 0.65879 0.14273 0.76679 0.0
C1816 C 0.69717 0.15032 0.73574 0.0
H1817 H 0.73749 0.13785 0.73494 0.0
C1818 C 0.70491 0.16652 0.72541 0.0
C1819 C 0.70889 0.13962 0.73903 0.0
C1820 C 0.70084 0.1213 0.74934 0.0
C1821 C 0.72437 0.17272 0.71864 0.0
C1822 C 0.73625 0.16227 0.72216 0.0
C1823 C 0.7284 0.14592 0.73234 0.0
C1824 C 0.75699 0.16814 0.71551 0.0
C1825 C 0.73239 0.19079 0.70811 0.0
C1826 C 0.7575 0.16481 0.69919 0.0
C1827 C 0.777 0.16977 0.69305 0.0
C1828 C 0.79639 0.17813 0.70314 0.0
C1829 C 0.79578 0.18148 0.7195 0.0
C1830 C 0.77626 0.17644 0.72562 0.0
H1831 H 0.72403 0.20026 0.70939 0.0
H1832 H 0.75014 0.20183 0.7108 0.0
H1833 H 0.72925 0.18395 0.69559 0.0
H1834 H 0.74274 0.15809 0.69121 0.0
H1835 H 0.77683 0.16689 0.68041 0.0
H1836 H 0.94994 0.56174 0.73413 0.0
H1837 H 0.93027 0.57999 0.72574 0.0
H1838 H 0.87424 0.51869 0.70871 0.0
H1839 H 0.89378 0.50032 0.71702 0.0
H1840 H 0.90856 0.57666 0.69393 0.0
H1841 H 0.85332 0.54891 0.7415 0.0
H1842 H 0.87863 0.54884 0.74261 0.0
H1843 H 0.85571 0.52877 0.72973 0.0
C1844 C 0.93348 0.5522 0.72849 0.0
C1845 C 0.92338 0.52968 0.72626 0.0
C1846 C 0.9223 0.56261 0.72371 0.0
C1847 C 0.90079 0.55062 0.71676 0.0
C1848 C 0.89078 0.52815 0.7142 0.0
H1849 H 0.82715 0.60699 0.67521 0.0
H1850 H 0.84164 0.58295 0.6798 0.0
C1851 C 0.90199 0.51772 0.71891 0.0
C1852 C 0.88876 0.56174 0.71255 0.0
H1853 H 0.84879 0.57087 0.72393 0.0
C1854 C 0.89536 0.57528 0.70036 0.0
C1855 C 0.87167 0.55993 0.72109 0.0
C1856 C 0.8644 0.54596 0.73455 0.0
C1857 C 0.88541 0.58731 0.69658 0.0
C1858 C 0.86846 0.58564 0.70521 0.0
C1859 C 0.8617 0.57191 0.71728 0.0
C1860 C 0.85868 0.59927 0.70266 0.0
C1861 C 0.89353 0.60227 0.68376 0.0
C1862 C 0.86316 0.61603 0.71415 0.0
C1863 C 0.85501 0.62979 0.71158 0.0
C1864 C 0.84207 0.6269 0.69749 0.0
C1865 C 0.83708 0.60965 0.68618 0.0
C1866 C 0.84539 0.59596 0.68873 0.0
H1867 H 0.90868 0.60385 0.67968 0.0
H1868 H 0.88095 0.596 0.67349 0.0
H1869 H 0.8966 0.61851 0.68806 0.0
H1870 H 0.87335 0.61874 0.72499 0.0
H1871 H 0.85904 0.64281 0.72059 0.0
H1872 H 0.41428 0.89615 0.23353 0.0
H1873 H 0.4226 0.9126 0.20858 0.0
H1874 H 0.49035 0.94968 0.22625 0.0
H1875 H 0.48217 0.9333 0.25117 0.0
H1876 H 0.44186 0.95564 0.20281 0.0
H1877 H 0.4916 0.92027 0.18431 0.0
H1878 H 0.47444 0.91082 0.20012 0.0
H1879 H 0.50057 0.93492 0.20359 0.0
C1880 C 0.43092 0.90791 0.23212 0.0
C1881 C 0.4476 0.91331 0.24426 0.0
C1882 C 0.43566 0.91722 0.21786 0.0
C1883 C 0.45714 0.93204 0.21547 0.0
C1884 C 0.47374 0.93786 0.2277 0.0
H1885 H 0.52019 0.00775 0.1394 0.0
H1886 H 0.51107 0.99174 0.16444 0.0
C1887 C 0.46904 0.92851 0.24193 0.0
C1888 C 0.46218 0.94162 0.20024 0.0
H1889 H 0.4919 0.94714 0.16914 0.0
C1890 C 0.4527 0.95369 0.19539 0.0
C1891 C 0.47633 0.93904 0.1906 0.0
C1892 C 0.48618 0.92539 0.19481 0.0
C1893 C 0.45734 0.96362 0.1813 0.0
C1894 C 0.47161 0.96116 0.17174 0.0
C1895 C 0.48103 0.94905 0.17655 0.0
C1896 C 0.47694 0.97099 0.15664 0.0
C1897 C 0.44732 0.97704 0.17691 0.0
C1898 C 0.4608 0.96444 0.14394 0.0
C1899 C 0.46594 0.97357 0.12965 0.0
C1900 C 0.48735 0.9894 0.12779 0.0
C1901 C 0.50351 0.99581 0.14053 0.0
C1902 C 0.49836 0.98661 0.1548 0.0
H1903 H 0.44092 0.98144 0.18717 0.0
H1904 H 0.45932 0.99203 0.17217 0.0
H1905 H 0.43361 0.96772 0.16756 0.0
H1906 H 0.44424 0.95216 0.14506 0.0
H1907 H 0.4531 0.96841 0.12011 0.0
H1908 H 0.09861 0.52747 0.25595 0.0
H1909 H 0.08763 0.52271 0.22757 0.0
H1910 H 0.03527 0.53407 0.23681 0.0
H1911 H 0.04597 0.53861 0.26527 0.0
H1912 H 0.04654 0.4918 0.21175 0.0
H1913 H 0.0666 0.57556 0.20345 0.0
H1914 H 0.07718 0.56879 0.22067 0.0
H1915 H 0.0498 0.56373 0.219 0.0
C1916 C 0.08468 0.52885 0.25196 0.0
C1917 C 0.07311 0.53337 0.26286 0.0
C1918 C 0.07853 0.52626 0.23575 0.0
C1919 C 0.06083 0.5283 0.23013 0.0
C1920 C 0.04925 0.53285 0.24093 0.0
H1921 H 0.9933 0.51236 0.13833 0.0
H1922 H 0.00658 0.51945 0.1664 0.0
C1923 C 0.05537 0.53543 0.25717 0.0
C1924 C 0.05396 0.52477 0.21298 0.0
H1925 H 0.04734 0.54925 0.18163 0.0
C1926 C 0.04681 0.50437 0.20511 0.0
C1927 C 0.05432 0.54122 0.20444 0.0
C1928 C 0.06255 0.56363 0.21225 0.0
C1929 C 0.03956 0.49981 0.18893 0.0
C1930 C 0.03991 0.51626 0.18038 0.0
C1931 C 0.04714 0.5367 0.18824 0.0
C1932 C 0.03235 0.51242 0.16331 0.0
C1933 C 0.03103 0.47728 0.18125 0.0
C1934 C 0.04269 0.50646 0.15228 0.0
C1935 C 0.035 0.50218 0.13624 0.0
C1936 C 0.01693 0.50393 0.13097 0.0
C1937 C 0.00699 0.51046 0.14204 0.0
C1938 C 0.01465 0.51468 0.15806 0.0
H1939 H 0.02681 0.46542 0.19013 0.0
H1940 H 0.01644 0.47218 0.17282 0.0
H1941 H 0.0437 0.47687 0.17457 0.0
H1942 H 0.05664 0.50502 0.15608 0.0
H1943 H 0.04295 0.4971 0.12803 0.0
H1944 H 0.43136 0.52473 0.23868 0.0
H1945 H 0.43783 0.5176 0.21166 0.0
H1946 H 0.50275 0.53326 0.22847 0.0
H1947 H 0.49619 0.53967 0.25548 0.0
H1948 H 0.46882 0.54676 0.19453 0.0
H1949 H 0.48129 0.47737 0.2008 0.0
H1950 H 0.46917 0.48606 0.21535 0.0
H1951 H 0.4982 0.49964 0.21529 0.0
C1952 C 0.44684 0.52619 0.23665 0.0
C1953 C 0.46327 0.53276 0.24921 0.0
C1954 C 0.45055 0.52225 0.22121 0.0
C1955 C 0.47066 0.52462 0.21809 0.0
C1956 C 0.48696 0.53089 0.23063 0.0
H1957 H 0.54233 0.53316 0.13928 0.0
H1958 H 0.52881 0.533 0.16498 0.0
C1959 C 0.48327 0.53481 0.24604 0.0
C1960 C 0.47526 0.52203 0.20163 0.0
H1961 H 0.49407 0.49637 0.17798 0.0
C1962 C 0.47403 0.53553 0.19082 0.0
C1963 C 0.48206 0.50736 0.19684 0.0
C1964 C 0.48256 0.49163 0.20763 0.0
C1965 C 0.4803 0.53537 0.17554 0.0
C1966 C 0.48776 0.5212 0.17095 0.0
C1967 C 0.48846 0.50731 0.1816 0.0
C1968 C 0.49566 0.52108 0.15532 0.0
C1969 C 0.47967 0.55092 0.16462 0.0
C1970 C 0.48141 0.51426 0.14141 0.0
C1971 C 0.48904 0.51418 0.1267 0.0
C1972 C 0.51106 0.52088 0.12565 0.0
C1973 C 0.52524 0.52765 0.13966 0.0
C1974 C 0.51758 0.52766 0.15435 0.0
H1975 H 0.47735 0.56344 0.17094 0.0
H1976 H 0.49489 0.55897 0.15883 0.0
H1977 H 0.466 0.54193 0.1552 0.0
H1978 H 0.46436 0.5088 0.14195 0.0
H1979 H 0.47761 0.50851 0.11618 0.0
H1980 H 0.93559 0.49922 0.78597 0.0
H1981 H 0.9494 0.50925 0.81396 0.0
H1982 H 0.99193 0.48357 0.80749 0.0
H1983 H 0.97886 0.47428 0.77939 0.0
H1984 H 0.94584 0.48143 0.83542 0.0
H1985 H 0.03254 0.54083 0.83286 0.0
H1986 H 0.01244 0.53262 0.81606 0.0
H1987 H 0.024 0.51612 0.82086 0.0
C1988 C 0.94828 0.4962 0.79041 0.0
C1989 C 0.95617 0.48599 0.78044 0.0
C1990 C 0.95605 0.50182 0.80643 0.0
C1991 C 0.97191 0.49744 0.81276 0.0
C1992 C 0.98004 0.48754 0.80279 0.0
H1993 H 0.02281 0.48521 0.90189 0.0
H1994 H 0.01351 0.48743 0.87427 0.0
C1995 C 0.97234 0.48197 0.78677 0.0
C1996 C 0.97865 0.50154 0.83 0.0
H1997 H 0.02307 0.52503 0.85738 0.0
C1998 C 0.96268 0.49126 0.84026 0.0
C1999 C 1.00063 0.51439 0.83627 0.0
C2000 C 0.01836 0.52679 0.82595 0.0
C2001 C 0.96821 0.49266 0.85656 0.0
C2002 C 0.99026 0.50485 0.86273 0.0
C2003 C 0.00618 0.51567 0.85256 0.0
C2004 C 0.9972 0.50521 0.87952 0.0
C2005 C 0.95055 0.48033 0.86696 0.0
C2006 C 0.99145 0.51488 0.8916 0.0
C2007 C 0.9969 0.5138 0.90746 0.0
C2008 C 0.00823 0.50306 0.91148 0.0
C2009 C 0.0144 0.4939 0.89927 0.0
C2010 C 0.00901 0.49504 0.88346 0.0
H2011 H 0.93484 0.46891 0.85996 0.0
H2012 H 0.95526 0.47117 0.8748 0.0
H2013 H 0.94812 0.49182 0.87458 0.0
H2014 H 0.98256 0.52304 0.88876 0.0
H2015 H 0.99218 0.5213 0.91657 0.0
H2016 H 0.52075 0.46502 0.7796 0.0
H2017 H 0.51254 0.47271 0.80583 0.0
H2018 H 0.58028 0.50283 0.82313 0.0
H2019 H 0.58862 0.49517 0.79695 0.0
H2020 H 0.51991 0.45831 0.83387 0.0
H2021 H 0.56434 0.54761 0.83823 0.0
H2022 H 0.55818 0.53119 0.81973 0.0
H2023 H 0.58056 0.53579 0.83349 0.0
C2024 C 0.53391 0.47332 0.78899 0.0
C2025 C 0.55535 0.47951 0.78621 0.0
C2026 C 0.5292 0.47777 0.80394 0.0
C2027 C 0.54583 0.48858 0.81637 0.0
C2028 C 0.56727 0.49491 0.81361 0.0
H2029 H 0.55012 0.52202 0.9164 0.0
H2030 H 0.55825 0.51558 0.88983 0.0
C2031 C 0.57201 0.49051 0.79865 0.0
C2032 C 0.54058 0.49226 0.83239 0.0
H2033 H 0.55091 0.5315 0.8617 0.0
C2034 C 0.52657 0.47431 0.83993 0.0
C2035 C 0.54936 0.51316 0.84026 0.0
C2036 C 0.56379 0.53307 0.83248 0.0
C2037 C 0.52139 0.47666 0.85526 0.0
C2038 C 0.53021 0.49755 0.86314 0.0
C2039 C 0.54421 0.51551 0.85561 0.0
C2040 C 0.5251 0.5011 0.87923 0.0
C2041 C 0.50691 0.45677 0.86304 0.0
C2042 C 0.50379 0.49521 0.88203 0.0
C2043 C 0.49907 0.49876 0.89721 0.0
C2044 C 0.5156 0.50833 0.90986 0.0
C2045 C 0.53696 0.51431 0.90697 0.0
C2046 C 0.54167 0.51079 0.89178 0.0
H2047 H 0.50584 0.4421 0.85706 0.0
H2048 H 0.51288 0.45845 0.87569 0.0
H2049 H 0.4903 0.45445 0.86244 0.0
H2050 H 0.49083 0.488 0.87244 0.0
H2051 H 0.48244 0.49386 0.89906 0.0
H2052 H 0.51862 0.063 0.79017 0.0
H2053 H 0.51092 0.04768 0.81547 0.0
H2054 H 0.57532 0.09535 0.83588 0.0
H2055 H 0.58291 0.11131 0.81073 0.0
H2056 H 0.53112 0.03052 0.83359 0.0
H2057 H 0.53681 0.10253 0.86625 0.0
H2058 H 0.53529 0.09918 0.84497 0.0
H2059 H 0.56044 0.10754 0.85678 0.0
C2060 C 0.53111 0.07035 0.80007 0.0
C2061 C 0.55129 0.08855 0.79848 0.0
C2062 C 0.52673 0.06147 0.81449 0.0
C2063 C 0.54241 0.07061 0.82763 0.0
C2064 C 0.56284 0.08832 0.82597 0.0
H2065 H 0.53504 0.03749 0.92513 0.0
H2066 H 0.54771 0.0532 0.90047 0.0
C2067 C 0.56723 0.09726 0.81154 0.0
C2068 C 0.53713 0.0616 0.84306 0.0
H2069 H 0.53076 0.07357 0.88103 0.0
C2070 C 0.53108 0.03994 0.84397 0.0
C2071 C 0.53709 0.07394 0.85659 0.0
C2072 C 0.54257 0.09703 0.85614 0.0
C2073 C 0.52497 0.03025 0.85806 0.0
C2074 C 0.52463 0.04249 0.87151 0.0
C2075 C 0.53106 0.06425 0.87069 0.0
C2076 C 0.51699 0.03283 0.88639 0.0
C2077 C 0.51905 0.00703 0.85847 0.0
C2078 C 0.49543 0.0164 0.88668 0.0
C2079 C 0.48808 0.00752 0.90076 0.0
C2080 C 0.50213 0.01494 0.91487 0.0
C2081 C 0.52371 0.03155 0.91454 0.0
C2082 C 0.53103 0.04046 0.90044 0.0
H2083 H 0.52547 0.00167 0.84873 0.0
H2084 H 0.52536 0.0045 0.86993 0.0
H2085 H 0.50112 0.99671 0.85712 0.0
H2086 H 0.48421 0.01061 0.87603 0.0
H2087 H 0.47127 0.99506 0.90064 0.0
H2088 H 0.11136 0.27324 0.58518 0.0
H2089 H 0.11987 0.29004 0.56039 0.0
H2090 H 0.12832 0.23849 0.54065 0.0
H2091 H 0.11994 0.22167 0.56538 0.0
H2092 H 0.16138 0.27823 0.53556 0.0
H2093 H 0.0816 0.27113 0.51852 0.0
H2094 H 0.0937 0.28465 0.5379 0.0
H2095 H 0.08555 0.2567 0.53386 0.0
C2096 C 0.1148 0.26538 0.57549 0.0
C2097 C 0.11496 0.24613 0.57722 0.0
C2098 C 0.11962 0.27497 0.56133 0.0
C2099 C 0.12444 0.26536 0.5486 0.0
C2100 C 0.12463 0.24616 0.55032 0.0
H2101 H 0.12859 0.29457 0.45109 0.0
H2102 H 0.12009 0.27803 0.47591 0.0
C2103 C 0.11991 0.23662 0.56447 0.0
C2104 C 0.1299 0.27555 0.53363 0.0
H2105 H 0.11018 0.29205 0.50317 0.0
C2106 C 0.15018 0.28123 0.52846 0.0
C2107 C 0.11515 0.27919 0.52429 0.0
C2108 C 0.0927 0.27243 0.52881 0.0
C2109 C 0.15621 0.29063 0.51427 0.0
C2110 C 0.14171 0.29484 0.50516 0.0
C2111 C 0.12134 0.28898 0.51025 0.0
C2112 C 0.14718 0.30492 0.49014 0.0
C2113 C 0.17785 0.29552 0.50899 0.0
C2114 C 0.16514 0.3256 0.48993 0.0
C2115 C 0.17021 0.335 0.47573 0.0
C2116 C 0.15727 0.32398 0.46147 0.0
C2117 C 0.13913 0.30335 0.46179 0.0
C2118 C 0.13413 0.29394 0.47598 0.0
H2119 H 0.18432 0.2862 0.51494 0.0
H2120 H 0.17659 0.29186 0.496 0.0
H2121 H 0.18972 0.31289 0.51204 0.0
H2122 H 0.1752 0.33452 0.50077 0.0
H2123 H 0.18436 0.35084 0.47591 0.0
H2124 H 0.75214 0.90112 0.59546 0.0
H2125 H 0.73991 0.89562 0.56722 0.0
H2126 H 0.70143 0.82725 0.57018 0.0
H2127 H 0.71292 0.83268 0.5985 0.0
H2128 H 0.74665 0.87156 0.54434 0.0
H2129 H 0.65857 0.84009 0.54645 0.0
H2130 H 0.67813 0.8535 0.56359 0.0
H2131 H 0.66865 0.82567 0.55738 0.0
C2132 C 0.7407 0.88497 0.59016 0.0
C2133 C 0.73344 0.86733 0.59921 0.0
C2134 C 0.73386 0.88184 0.57402 0.0
C2135 C 0.71957 0.86107 0.56666 0.0
C2136 C 0.71214 0.84346 0.57568 0.0
H2137 H 0.66967 0.80359 0.47065 0.0
H2138 H 0.68106 0.81109 0.49913 0.0
C2139 C 0.71892 0.84656 0.59182 0.0
C2140 C 0.7134 0.85764 0.54939 0.0
H2141 H 0.66986 0.83614 0.52131 0.0
C2142 C 0.72988 0.86399 0.53929 0.0
C2143 C 0.6915 0.84774 0.54287 0.0
C2144 C 0.6732 0.84154 0.55313 0.0
C2145 C 0.72501 0.86024 0.52281 0.0
C2146 C 0.70311 0.85005 0.51633 0.0
C2147 C 0.68663 0.84385 0.52639 0.0
C2148 C 0.69696 0.84569 0.49908 0.0
C2149 C 0.74322 0.86673 0.51244 0.0
C2150 C 0.70216 0.8627 0.48972 0.0
C2151 C 0.69569 0.85848 0.47349 0.0
C2152 C 0.68394 0.83717 0.46637 0.0
C2153 C 0.67893 0.82017 0.47579 0.0
C2154 C 0.68529 0.82441 0.49203 0.0
H2155 H 0.75869 0.87055 0.51928 0.0
H2156 H 0.73901 0.8537 0.5029 0.0
H2157 H 0.74583 0.88124 0.50678 0.0
H2158 H 0.71098 0.87922 0.49501 0.0
H2159 H 0.69987 0.87189 0.4665 0.0
H2160 H 0.09253 0.84989 0.57019 0.0
H2161 H 0.09866 0.84083 0.54358 0.0
H2162 H 0.16653 0.86712 0.55905 0.0
H2163 H 0.16034 0.87516 0.58575 0.0
H2164 H 0.12356 0.86804 0.52388 0.0
H2165 H 0.15301 0.81157 0.53516 0.0
H2166 H 0.13999 0.81924 0.5496 0.0
H2167 H 0.16846 0.83626 0.54773 0.0
C2168 C 0.10864 0.85323 0.56802 0.0
C2169 C 0.12595 0.86328 0.5801 0.0
C2170 C 0.11215 0.84819 0.55278 0.0
C2171 C 0.133 0.85303 0.54936 0.0
C2172 C 0.15021 0.86276 0.56146 0.0
H2173 H 0.18945 0.88287 0.46162 0.0
H2174 H 0.17539 0.88255 0.48712 0.0
C2175 C 0.1467 0.86766 0.57669 0.0
C2176 C 0.13721 0.84946 0.53294 0.0
H2177 H 0.1622 0.8287 0.51105 0.0
C2178 C 0.13174 0.85917 0.52102 0.0
C2179 C 0.14754 0.83759 0.52913 0.0
C2180 C 0.15236 0.82538 0.54106 0.0
C2181 C 0.13716 0.85814 0.50557 0.0
C2182 C 0.14891 0.84762 0.50206 0.0
C2183 C 0.15351 0.83708 0.5138 0.0
C2184 C 0.15706 0.84779 0.48644 0.0
C2185 C 0.13017 0.86831 0.49318 0.0
C2186 C 0.152 0.8284 0.47779 0.0
C2187 C 0.1603 0.82857 0.46334 0.0
C2188 C 0.17377 0.84815 0.45725 0.0
C2189 C 0.17884 0.86755 0.46592 0.0
C2190 C 0.17072 0.86737 0.48045 0.0
H2191 H 0.11567 0.86913 0.49621 0.0
H2192 H 0.14348 0.88502 0.49252 0.0
H2193 H 0.12637 0.85923 0.48134 0.0
H2194 H 0.14158 0.81311 0.48222 0.0
H2195 H 0.156 0.81337 0.45684 0.0
H2196 H 0.64067 0.80365 0.11514 0.0
H2197 H 0.6521 0.81237 0.14342 0.0
H2198 H 0.61939 0.84904 0.14656 0.0
H2199 H 0.60646 0.83904 0.11847 0.0
H2200 H 0.67588 0.84825 0.16243 0.0
H2201 H 0.59134 0.80772 0.17867 0.0
H2202 H 0.59755 0.80569 0.15869 0.0
H2203 H 0.59764 0.82942 0.16669 0.0
C2204 C 0.63569 0.81339 0.12185 0.0
C2205 C 0.62224 0.82024 0.11454 0.0
C2206 C 0.64246 0.81857 0.138 0.0
C2207 C 0.63617 0.83093 0.1472 0.0
C2208 C 0.62393 0.83898 0.13979 0.0
H2209 H 0.69066 0.86737 0.24745 0.0
H2210 H 0.68193 0.87028 0.21967 0.0
C2211 C 0.61683 0.83351 0.12365 0.0
C2212 C 0.64174 0.83444 0.1646 0.0
H2213 H 0.61929 0.82412 0.19956 0.0
C2214 C 0.66353 0.8431 0.17058 0.0
C2215 C 0.62556 0.8275 0.17519 0.0
C2216 C 0.6017 0.81688 0.16952 0.0
C2217 C 0.66955 0.84437 0.18679 0.0
C2218 C 0.65337 0.83746 0.19738 0.0
C2219 C 0.63168 0.82951 0.19144 0.0
C2220 C 0.65816 0.83641 0.21441 0.0
C2221 C 0.693 0.85205 0.19227 0.0
C2222 C 0.6471 0.81664 0.22084 0.0
C2223 C 0.65171 0.81508 0.2367 0.0
C2224 C 0.66761 0.83323 0.24644 0.0
C2225 C 0.67849 0.85311 0.24011 0.0
C2226 C 0.67361 0.85474 0.22425 0.0
H2227 H 0.70213 0.85156 0.18231 0.0
H2228 H 0.70089 0.86896 0.19762 0.0
H2229 H 0.69433 0.8421 0.20131 0.0
H2230 H 0.63513 0.80227 0.21349 0.0
H2231 H 0.64324 0.79952 0.24126 0.0
H2232 H 0.25364 0.82395 0.12842 0.0
H2233 H 0.24642 0.83097 0.1552 0.0
H2234 H 0.1798 0.80876 0.13825 0.0
H2235 H 0.1869 0.80189 0.11145 0.0
H2236 H 0.23035 0.85782 0.16631 0.0
H2237 H 0.17504 0.77209 0.17489 0.0
H2238 H 0.19273 0.78017 0.15931 0.0
H2239 H 0.1678 0.78071 0.15727 0.0
C2240 C 0.2375 0.82074 0.13036 0.0
C2241 C 0.2208 0.81221 0.11782 0.0
C2242 C 0.23339 0.82466 0.14568 0.0
C2243 C 0.21249 0.82003 0.14873 0.0
C2244 C 0.19592 0.81198 0.1362 0.0
H2245 H 0.15176 0.82977 0.23112 0.0
H2246 H 0.16053 0.82417 0.20459 0.0
C2247 C 0.20001 0.80806 0.1209 0.0
C2248 C 0.20802 0.82373 0.16501 0.0
H2249 H 0.1773 0.79817 0.19441 0.0
C2250 C 0.21886 0.84479 0.17252 0.0
C2251 C 0.19301 0.80667 0.17304 0.0
C2252 C 0.18159 0.7836 0.1658 0.0
C2253 C 0.21468 0.84934 0.18773 0.0
C2254 C 0.19956 0.83229 0.19571 0.0
C2255 C 0.18884 0.81121 0.18824 0.0
C2256 C 0.19447 0.83597 0.2118 0.0
C2257 C 0.22607 0.87241 0.19496 0.0
C2258 C 0.2106 0.84422 0.22466 0.0
C2259 C 0.20567 0.84756 0.23982 0.0
C2260 C 0.18447 0.84258 0.24241 0.0
C2261 C 0.1683 0.83407 0.2295 0.0
C2262 C 0.17325 0.83073 0.21435 0.0
H2263 H 0.23285 0.88392 0.1859 0.0
H2264 H 0.21483 0.87588 0.20127 0.0
H2265 H 0.23969 0.87524 0.20365 0.0
H2266 H 0.22699 0.84801 0.22299 0.0
H2267 H 0.21853 0.85429 0.24947 0.0
H2268 H 0.24752 0.44453 0.14398 0.0
H2269 H 0.24 0.42838 0.16908 0.0
H2270 H 0.17501 0.38187 0.149 0.0
H2271 H 0.1826 0.39741 0.12379 0.0
H2272 H 0.20853 0.42467 0.18816 0.0
H2273 H 0.19567 0.34404 0.16861 0.0
H2274 H 0.20833 0.36659 0.157 0.0
H2275 H 0.17927 0.35142 0.15664 0.0
C2276 C 0.23176 0.43063 0.14484 0.0
C2277 C 0.21567 0.42223 0.13188 0.0
C2278 C 0.22745 0.42151 0.15921 0.0
C2279 C 0.20705 0.40374 0.16084 0.0
C2280 C 0.191 0.39531 0.14792 0.0
H2281 H 0.13739 0.33057 0.23503 0.0
H2282 H 0.14976 0.3466 0.21045 0.0
C2283 C 0.19528 0.40438 0.13357 0.0
C2284 C 0.20211 0.3946 0.17623 0.0
H2285 H 0.1838 0.34777 0.1936 0.0
C2286 C 0.20336 0.40793 0.18942 0.0
C2287 C 0.19537 0.37274 0.17782 0.0
C2288 C 0.19477 0.35791 0.1643 0.0
C2289 C 0.19732 0.39979 0.20402 0.0
C2290 C 0.19011 0.37783 0.20549 0.0
C2291 C 0.18924 0.36459 0.1924 0.0
C2292 C 0.18289 0.36813 0.22043 0.0
C2293 C 0.198 0.41458 0.21761 0.0
C2294 C 0.1975 0.37476 0.23413 0.0
C2295 C 0.19052 0.36554 0.24818 0.0
C2296 C 0.1688 0.34943 0.24878 0.0
C2297 C 0.15427 0.34273 0.23495 0.0
C2298 C 0.16128 0.35194 0.22091 0.0
H2299 H 0.19946 0.42965 0.21362 0.0
H2300 H 0.1832 0.40642 0.22385 0.0
H2301 H 0.21225 0.41901 0.22621 0.0
H2302 H 0.21435 0.38695 0.23391 0.0
H2303 H 0.20222 0.37081 0.25852 0.0
H2304 H 0.77869 0.60953 0.92005 0.0
H2305 H 0.78737 0.6267 0.89541 0.0
H2306 H 0.79465 0.57472 0.87495 0.0
H2307 H 0.78604 0.55751 0.8995 0.0
H2308 H 0.82815 0.61461 0.87001 0.0
H2309 H 0.74851 0.60826 0.8537 0.0
H2310 H 0.7609 0.62147 0.87311 0.0
H2311 H 0.75243 0.5935 0.86879 0.0
C2312 C 0.78193 0.60167 0.91024 0.0
C2313 C 0.78166 0.58216 0.91172 0.0
C2314 C 0.78686 0.61147 0.89617 0.0
C2315 C 0.79137 0.60184 0.88328 0.0
C2316 C 0.7912 0.58242 0.88475 0.0
H2317 H 0.79444 0.63061 0.78577 0.0
H2318 H 0.7863 0.6143 0.81069 0.0
C2319 C 0.78635 0.57266 0.8988 0.0
C2320 C 0.79676 0.61214 0.86834 0.0
H2321 H 0.77683 0.62878 0.83809 0.0
C2322 C 0.81693 0.6177 0.86301 0.0
C2323 C 0.78199 0.61591 0.85915 0.0
C2324 C 0.75966 0.60931 0.86387 0.0
C2325 C 0.82282 0.62707 0.84879 0.0
C2326 C 0.80827 0.63135 0.83981 0.0
C2327 C 0.78803 0.62565 0.84508 0.0
C2328 C 0.81354 0.6413 0.82473 0.0
C2329 C 0.84434 0.63184 0.84334 0.0
C2330 C 0.83148 0.66196 0.82437 0.0
C2331 C 0.83632 0.67124 0.8101 0.0
C2332 C 0.82321 0.6601 0.79593 0.0
C2333 C 0.80511 0.63948 0.79639 0.0
C2334 C 0.80032 0.6302 0.81065 0.0
H2335 H 0.85089 0.62259 0.84928 0.0
H2336 H 0.84285 0.62803 0.83035 0.0
H2337 H 0.85625 0.64923 0.84625 0.0
H2338 H 0.84167 0.67096 0.83514 0.0
H2339 H 0.85045 0.68708 0.81016 0.0
H2340 H 0.42217 0.23152 0.92655 0.0
H2341 H 0.41015 0.22567 0.89822 0.0
H2342 H 0.36815 0.15804 0.90224 0.0
H2343 H 0.37974 0.16382 0.93062 0.0
H2344 H 0.41416 0.19714 0.87569 0.0
H2345 H 0.32846 0.17629 0.87847 0.0
H2346 H 0.34899 0.18992 0.89505 0.0
H2347 H 0.33694 0.16137 0.89034 0.0
C2348 C 0.41009 0.21548 0.92144 0.0
C2349 C 0.40183 0.19813 0.93078 0.0
C2350 C 0.40336 0.21215 0.90526 0.0
C2351 C 0.38813 0.19148 0.89822 0.0
C2352 C 0.3797 0.17417 0.90753 0.0
H2353 H 0.32858 0.13271 0.8041 0.0
H2354 H 0.34097 0.14086 0.83238 0.0
C2355 C 0.38646 0.17746 0.92368 0.0
C2356 C 0.38174 0.1878 0.881 0.0
H2357 H 0.33823 0.17019 0.85337 0.0
C2358 C 0.3976 0.1914 0.87076 0.0
C2359 C 0.36013 0.18027 0.8747 0.0
C2360 C 0.34264 0.17689 0.88518 0.0
C2361 C 0.39229 0.1871 0.85432 0.0
C2362 C 0.37063 0.17941 0.84801 0.0
C2363 C 0.35482 0.17604 0.85826 0.0
C2364 C 0.36389 0.1745 0.83081 0.0
C2365 C 0.40976 0.19023 0.84389 0.0
C2366 C 0.37267 0.19075 0.8206 0.0
C2367 C 0.36563 0.18614 0.80444 0.0
C2368 C 0.34952 0.16525 0.79827 0.0
C2369 C 0.34085 0.149 0.80854 0.0
C2370 C 0.34795 0.15361 0.82467 0.0
H2371 H 0.42392 0.19087 0.85067 0.0
H2372 H 0.4034 0.17707 0.83412 0.0
H2373 H 0.41554 0.20568 0.8386 0.0
H2374 H 0.38465 0.20708 0.82517 0.0
H2375 H 0.37235 0.19905 0.79686 0.0
H2376 H 0.76181 0.17837 0.90584 0.0
H2377 H 0.76781 0.16812 0.87966 0.0
H2378 H 0.83646 0.19893 0.89421 0.0
H2379 H 0.83042 0.20773 0.92072 0.0
H2380 H 0.78874 0.19346 0.85915 0.0
H2381 H 0.82811 0.14565 0.87103 0.0
H2382 H 0.81494 0.15243 0.88587 0.0
H2383 H 0.84259 0.17118 0.88267 0.0
C2384 C 0.7781 0.18236 0.90366 0.0
C2385 C 0.79563 0.19396 0.91545 0.0
C2386 C 0.78153 0.17664 0.88861 0.0
C2387 C 0.80255 0.18249 0.88496 0.0
C2388 C 0.82001 0.1937 0.89678 0.0
H2389 H 0.85278 0.21598 0.79614 0.0
H2390 H 0.83923 0.21336 0.82202 0.0
C2391 C 0.81656 0.19912 0.9119 0.0
C2392 C 0.80655 0.17882 0.86847 0.0
H2393 H 0.83508 0.16245 0.84649 0.0
C2394 C 0.79857 0.18633 0.85636 0.0
C2395 C 0.819 0.16913 0.86468 0.0
C2396 C 0.82641 0.15893 0.87675 0.0
C2397 C 0.80357 0.1854 0.84079 0.0
C2398 C 0.81763 0.1775 0.83731 0.0
C2399 C 0.82467 0.16893 0.84921 0.0
C2400 C 0.82598 0.17892 0.82164 0.0
C2401 C 0.79371 0.19295 0.82825 0.0
C2402 C 0.82391 0.16061 0.81309 0.0
C2403 C 0.83206 0.16217 0.79839 0.0
C2404 C 0.84227 0.18206 0.792 0.0
C2405 C 0.84458 0.20039 0.80067 0.0
C2406 C 0.83673 0.19887 0.81541 0.0
H2407 H 0.77798 0.191 0.83135 0.0
H2408 H 0.80481 0.21033 0.82735 0.0
H2409 H 0.79097 0.18397 0.81651 0.0
H2410 H 0.81585 0.14508 0.81772 0.0
H2411 H 0.83008 0.14781 0.79192 0.0
H2412 H 0.26725 0.16563 0.45407 0.0
H2413 H 0.28194 0.17702 0.48186 0.0
H2414 H 0.32253 0.14892 0.47621 0.0
H2415 H 0.30852 0.13817 0.44833 0.0
H2416 H 0.27812 0.14998 0.50426 0.0
H2417 H 0.36495 0.20707 0.49992 0.0
H2418 H 0.34444 0.19864 0.48336 0.0
H2419 H 0.35551 0.18181 0.48842 0.0
C2420 C 0.27969 0.16234 0.45866 0.0
C2421 C 0.28674 0.15101 0.44901 0.0
C2422 C 0.28797 0.16876 0.47455 0.0
C2423 C 0.30355 0.1641 0.48104 0.0
C2424 C 0.31088 0.15311 0.47137 0.0
H2425 H 0.35582 0.15212 0.56913 0.0
H2426 H 0.34594 0.15458 0.54171 0.0
C2427 C 0.30264 0.14672 0.45549 0.0
C2428 C 0.31079 0.16897 0.4982 0.0
H2429 H 0.35599 0.1921 0.52482 0.0
C2430 C 0.29511 0.15953 0.5088 0.0
C2431 C 0.33296 0.18146 0.50407 0.0
C2432 C 0.35041 0.193 0.49335 0.0
C2433 C 0.3011 0.16126 0.52506 0.0
C2434 C 0.32333 0.17296 0.53082 0.0
C2435 C 0.33896 0.1831 0.52032 0.0
C2436 C 0.33072 0.17327 0.54749 0.0
C2437 C 0.28372 0.14968 0.53583 0.0
C2438 C 0.32579 0.18337 0.55981 0.0
C2439 C 0.33158 0.18215 0.57557 0.0
C2440 C 0.34242 0.17083 0.57922 0.0
C2441 C 0.34781 0.16126 0.56677 0.0
C2442 C 0.34208 0.16254 0.55108 0.0
H2443 H 0.26767 0.13857 0.52913 0.0
H2444 H 0.28821 0.14031 0.54361 0.0
H2445 H 0.28208 0.16167 0.54351 0.0
H2446 H 0.31727 0.19197 0.55724 0.0
H2447 H 0.32747 0.18995 0.58487 0.0
H2448 H 0.92141 0.15549 0.46149 0.0
H2449 H 0.91445 0.1619 0.48849 0.0
H2450 H 0.84777 0.14017 0.4721 0.0
H2451 H 0.85462 0.13405 0.44506 0.0
H2452 H 0.89787 0.18876 0.50005 0.0
H2453 H 0.84406 0.10257 0.50829 0.0
H2454 H 0.86188 0.11117 0.49279 0.0
H2455 H 0.83672 0.11124 0.49073 0.0
C2456 C 0.90532 0.15228 0.4636 0.0
C2457 C 0.88853 0.14413 0.45112 0.0
C2458 C 0.90135 0.15584 0.47904 0.0
C2459 C 0.88053 0.15117 0.48229 0.0
C2460 C 0.86385 0.14344 0.46986 0.0
H2461 H 0.81887 0.15763 0.56472 0.0
H2462 H 0.82812 0.15238 0.53833 0.0
C2463 C 0.8678 0.13993 0.45443 0.0
C2464 C 0.87621 0.15453 0.49868 0.0
H2465 H 0.84613 0.12819 0.52812 0.0
C2466 C 0.88668 0.17554 0.50626 0.0
C2467 C 0.86159 0.13722 0.50669 0.0
C2468 C 0.85052 0.11424 0.4993 0.0
C2469 C 0.88244 0.17978 0.52153 0.0
C2470 C 0.86769 0.16247 0.52951 0.0
C2471 C 0.85741 0.14143 0.52196 0.0
C2472 C 0.86233 0.16584 0.54557 0.0
C2473 C 0.89329 0.20281 0.52877 0.0
C2474 C 0.87846 0.1749 0.55844 0.0
C2475 C 0.87327 0.17812 0.57353 0.0
C2476 C 0.85179 0.17217 0.57606 0.0
C2477 C 0.83562 0.16274 0.56316 0.0
C2478 C 0.84085 0.15958 0.54808 0.0
H2479 H 0.8996 0.21438 0.5197 0.0
H2480 H 0.88186 0.20582 0.53523 0.0
H2481 H 0.9072 0.20607 0.53733 0.0
H2482 H 0.89507 0.17945 0.55683 0.0
H2483 H 0.88614 0.18555 0.58317 0.0
H2484 H 0.85068 0.73455 0.45881 0.0
H2485 H 0.84262 0.71867 0.4839 0.0
H2486 H 0.90887 0.76158 0.50337 0.0
H2487 H 0.91691 0.77809 0.47845 0.0
H2488 H 0.86092 0.69824 0.50065 0.0
H2489 H 0.87388 0.77215 0.53541 0.0
H2490 H 0.87127 0.76918 0.51408 0.0
H2491 H 0.89635 0.77545 0.52509 0.0
C2492 C 0.86351 0.74074 0.46846 0.0
C2493 C 0.88438 0.75777 0.46669 0.0
C2494 C 0.85891 0.73154 0.48275 0.0
C2495 C 0.87504 0.73919 0.49557 0.0
C2496 C 0.89607 0.75571 0.49371 0.0
H2497 H 0.86863 0.70409 0.59243 0.0
H2498 H 0.88104 0.71968 0.56769 0.0
C2499 C 0.9007 0.76496 0.47941 0.0
C2500 C 0.86966 0.72991 0.51089 0.0
H2501 H 0.86599 0.74215 0.54949 0.0
C2502 C 0.86205 0.70783 0.51134 0.0
C2503 C 0.87118 0.74248 0.52481 0.0
C2504 C 0.87843 0.76609 0.52488 0.0
C2505 C 0.85594 0.69798 0.52537 0.0
C2506 C 0.85715 0.71049 0.53922 0.0
C2507 C 0.86509 0.73262 0.53884 0.0
C2508 C 0.84966 0.7008 0.55413 0.0
C2509 C 0.8484 0.67431 0.52527 0.0
C2510 C 0.82783 0.68525 0.55474 0.0
C2511 C 0.82064 0.67643 0.56887 0.0
C2512 C 0.83513 0.68306 0.58271 0.0
C2513 C 0.85698 0.69878 0.58206 0.0
C2514 C 0.86415 0.70762 0.56791 0.0
H2515 H 0.85387 0.66847 0.51517 0.0
H2516 H 0.85447 0.67089 0.53644 0.0
H2517 H 0.8304 0.66504 0.52416 0.0
H2518 H 0.81627 0.68014 0.54433 0.0
H2519 H 0.80363 0.66467 0.56901 0.0
loop_
_geom_bond_atom_site_label_1
_geom_bond_atom_site_label_2
_geom_bond_distance
_geom_bond_site_symmetry_2
_ccdc_geom_bond_type
H0 C5 0.930 . S
H1 C8 0.930 . S
H2 C10 0.930 . S
H3 C4 1.016 . S
C4 H3 1.016 . S
C4 N11 1.286 . S
C5 H0 0.930 . S
C5 C6 1.397 . S
C5 C7 1.361 . S
C6 C5 1.397 . S
C6 C10 1.390 . S
C7 C5 1.361 . S
C7 C8 1.393 . S
C7 N11 1.413 . S
C8 H1 0.930 . S
C8 C7 1.393 . S
C8 C9 1.399 . S
C9 C8 1.399 . S
C9 C10 1.381 . S
C10 H2 0.930 . S
C10 C6 1.390 . S
C10 C9 1.381 . S
N11 C4 1.286 . S
N11 C7 1.413 . S
H12 C17 0.930 . S
H13 C20 0.930 . S
H14 C22 0.930 . S
H15 C16 1.016 . S
C16 H15 1.016 . S
C16 N23 1.286 . S
C17 H12 0.930 . S
C17 C18 1.397 . S
C17 C19 1.361 . S
C18 C17 1.397 . S
C18 C22 1.390 . S
C19 C17 1.361 . S
C19 C20 1.393 . S
C19 N23 1.413 . S
C20 H13 0.930 . S
C20 C19 1.393 . S
C20 C21 1.399 . S
C21 C20 1.399 . S
C21 C22 1.381 . S
C22 H14 0.930 . S
C22 C18 1.390 . S
C22 C21 1.381 . S
N23 C16 1.286 . S
N23 C19 1.413 . S
H24 C29 0.930 . S
H25 C32 0.930 . S
H26 C34 0.930 . S
H27 C28 1.016 . S
C28 H27 1.016 . S
C28 N35 1.286 . S
C29 H24 0.930 . S
C29 C30 1.397 . S
C29 C31 1.361 . S
C30 C29 1.397 . S
C30 C34 1.390 . S
C31 C29 1.361 . S
C31 C32 1.393 . S
C31 N35 1.413 . S
C32 H25 0.930 . S
C32 C31 1.393 . S
C32 C33 1.399 . S
C33 C32 1.399 . S
C33 C34 1.381 . S
C34 H26 0.930 . S
C34 C30 1.390 . S
C34 C33 1.381 . S
N35 C28 1.286 . S
N35 C31 1.413 . S
H36 C41 0.930 . S
H37 C44 0.930 . S
H38 C46 0.930 . S
H39 C40 1.016 . S
C40 H39 1.016 . S
C40 N47 1.286 . S
C41 H36 0.930 . S
C41 C42 1.397 . S
C41 C43 1.361 . S
C42 C41 1.397 . S
C42 C46 1.390 . S
C43 C41 1.361 . S
C43 C44 1.393 . S
C43 N47 1.413 . S
C44 H37 0.930 . S
C44 C43 1.393 . S
C44 C45 1.399 . S
C45 C44 1.399 . S
C45 C46 1.381 . S
C46 H38 0.930 . S
C46 C42 1.390 . S
C46 C45 1.381 . S
N47 C40 1.286 . S
N47 C43 1.413 . S
H48 C53 0.930 . S
H49 C56 0.930 . S
H50 C58 0.930 . S
H51 C52 1.016 . S
C52 H51 1.016 . S
C52 N59 1.286 . S
C53 H48 0.930 . S
C53 C54 1.397 . S
C53 C55 1.361 . S
C54 C53 1.397 . S
C54 C58 1.390 . S
C55 C53 1.361 . S
C55 C56 1.393 . S
C55 N59 1.413 . S
C56 H49 0.930 . S
C56 C55 1.393 . S
C56 C57 1.399 . S
C57 C56 1.399 . S
C57 C58 1.381 . S
C58 H50 0.930 . S
C58 C54 1.390 . S
C58 C57 1.381 . S
N59 C52 1.286 . S
N59 C55 1.413 . S
H60 C65 0.930 . S
H61 C68 0.930 . S
H62 C70 0.930 . S
H63 C64 1.016 . S
C64 H63 1.016 . S
C64 N71 1.286 . S
C65 H60 0.930 . S
C65 C66 1.397 . S
C65 C67 1.361 . S
C66 C65 1.397 . S
C66 C70 1.390 . S
C67 C65 1.361 . S
C67 C68 1.393 . S
C67 N71 1.413 . S
C68 H61 0.930 . S
C68 C67 1.393 . S
C68 C69 1.399 . S
C69 C68 1.399 . S
C69 C70 1.381 . S
C70 H62 0.930 . S
C70 C66 1.390 . S
C70 C69 1.381 . S
N71 C64 1.286 . S
N71 C67 1.413 . S
H72 C77 0.930 . S
H73 C80 0.930 . S
H74 C82 0.930 . S
H75 C76 1.016 . S
C76 H75 1.016 . S
C76 N83 1.286 . S
C77 H72 0.930 . S
C77 C78 1.397 . S
C77 C79 1.361 . S
C78 C77 1.397 . S
C78 C82 1.390 . S
C79 C77 1.361 . S
C79 C80 1.393 . S
C79 N83 1.413 . S
C80 H73 0.930 . S
C80 C79 1.393 . S
C80 C81 1.399 . S
C81 C80 1.399 . S
C81 C82 1.381 . S
C82 H74 0.930 . S
C82 C78 1.390 . S
C82 C81 1.381 . S
N83 C76 1.286 . S
N83 C79 1.413 . S
H84 C89 0.930 . S
H85 C92 0.930 . S
H86 C94 0.930 . S
H87 C88 1.016 . S
C88 H87 1.016 . S
C88 N95 1.286 . S
C89 H84 0.930 . S
C89 C90 1.397 . S
C89 C91 1.361 . S
C90 C89 1.397 . S
C90 C94 1.390 . S
C91 C89 1.361 . S
C91 C92 1.393 . S
C91 N95 1.413 . S
C92 H85 0.930 . S
C92 C91 1.393 . S
C92 C93 1.399 . S
C93 C92 1.399 . S
C93 C94 1.381 . S
C94 H86 0.930 . S
C94 C90 1.390 . S
C94 C93 1.381 . S
N95 C88 1.286 . S
N95 C91 1.413 . S
H96 C101 0.930 . S
H97 C104 0.930 . S
H98 C106 0.930 . S
H99 C100 1.016 . S
C100 H99 1.016 . S
C100 N107 1.286 . S
C101 H96 0.930 . S
C101 C102 1.397 . S
C101 C103 1.361 . S
C102 C101 1.397 . S
C102 C106 1.390 . S
C103 C101 1.361 . S
C103 C104 1.393 . S
C103 N107 1.413 . S
C104 H97 0.930 . S
C104 C103 1.393 . S
C104 C105 1.399 . S
C105 C104 1.399 . S
C105 C106 1.381 . S
C106 H98 0.930 . S
C106 C102 1.390 . S
C106 C105 1.381 . S
N107 C100 1.286 . S
N107 C103 1.413 . S
H108 C113 0.930 . S
H109 C116 0.930 . S
H110 C118 0.930 . S
H111 C112 1.016 . S
C112 H111 1.016 . S
C112 N119 1.286 . S
C113 H108 0.930 . S
C113 C114 1.397 . S
C113 C115 1.361 . S
C114 C113 1.397 . S
C114 C118 1.390 . S
C115 C113 1.361 . S
C115 C116 1.393 . S
C115 N119 1.413 . S
C116 H109 0.930 . S
C116 C115 1.393 . S
C116 C117 1.399 . S
C117 C116 1.399 . S
C117 C118 1.381 . S
C118 H110 0.930 . S
C118 C114 1.390 . S
C118 C117 1.381 . S
N119 C112 1.286 . S
N119 C115 1.413 . S
H120 C125 0.930 . S
H121 C128 0.930 . S
H122 C130 0.930 . S
H123 C124 1.016 . S
C124 H123 1.016 . S
C124 N131 1.286 . S
C125 H120 0.930 . S
C125 C126 1.397 . S
C125 C127 1.361 . S
C126 C125 1.397 . S
C126 C130 1.390 . S
C127 C125 1.361 . S
C127 C128 1.393 . S
C127 N131 1.413 . S
C128 H121 0.930 . S
C128 C127 1.393 . S
C128 C129 1.399 . S
C129 C128 1.399 . S
C129 C130 1.381 . S
C130 H122 0.930 . S
C130 C126 1.390 . S
C130 C129 1.381 . S
N131 C124 1.286 . S
N131 C127 1.413 . S
H132 C137 0.930 . S
H133 C140 0.930 . S
H134 C142 0.930 . S
H135 C136 1.016 . S
C136 H135 1.016 . S
C136 N143 1.286 . S
C137 H132 0.930 . S
C137 C138 1.397 . S
C137 C139 1.361 . S
C138 C137 1.397 . S
C138 C142 1.390 . S
C139 C137 1.361 . S
C139 C140 1.393 . S
C139 N143 1.413 . S
C140 H133 0.930 . S
C140 C139 1.393 . S
C140 C141 1.399 . S
C141 C140 1.399 . S
C141 C142 1.381 . S
C142 H134 0.930 . S
C142 C138 1.390 . S
C142 C141 1.381 . S
N143 C136 1.286 . S
N143 C139 1.413 . S
H144 C149 0.930 . S
H145 C152 0.930 . S
H146 C154 0.930 . S
H147 C148 1.016 . S
C148 H147 1.016 . S
C148 N155 1.286 . S
C149 H144 0.930 . S
C149 C150 1.397 . S
C149 C151 1.361 . S
C150 C149 1.397 . S
C150 C154 1.390 . S
C151 C149 1.361 . S
C151 C152 1.393 . S
C151 N155 1.413 . S
C152 H145 0.930 . S
C152 C151 1.393 . S
C152 C153 1.399 . S
C153 C152 1.399 . S
C153 C154 1.381 . S
C154 H146 0.930 . S
C154 C150 1.390 . S
C154 C153 1.381 . S
N155 C148 1.286 . S
N155 C151 1.413 . S
H156 C161 0.930 . S
H157 C164 0.930 . S
H158 C166 0.930 . S
H159 C160 1.016 . S
C160 H159 1.016 . S
C160 N167 1.286 . S
C161 H156 0.930 . S
C161 C162 1.397 . S
C161 C163 1.361 . S
C162 C161 1.397 . S
C162 C166 1.390 . S
C163 C161 1.361 . S
C163 C164 1.393 . S
C163 N167 1.413 . S
C164 H157 0.930 . S
C164 C163 1.393 . S
C164 C165 1.399 . S
C165 C164 1.399 . S
C165 C166 1.381 . S
C166 H158 0.930 . S
C166 C162 1.390 . S
C166 C165 1.381 . S
N167 C160 1.286 . S
N167 C163 1.413 . S
H168 C173 0.930 . S
H169 C176 0.930 . S
H170 C178 0.930 . S
H171 C172 1.016 . S
C172 H171 1.016 . S
C172 N179 1.286 . S
C173 H168 0.930 . S
C173 C174 1.397 . S
C173 C175 1.361 . S
C174 C173 1.397 . S
C174 C178 1.390 . S
C175 C173 1.361 . S
C175 C176 1.393 . S
C175 N179 1.413 . S
C176 H169 0.930 . S
C176 C175 1.393 . S
C176 C177 1.399 . S
C177 C176 1.399 . S
C177 C178 1.381 . S
C178 H170 0.930 . S
C178 C174 1.390 . S
C178 C177 1.381 . S
N179 C172 1.286 . S
N179 C175 1.413 . S
H180 C185 0.930 . S
H181 C188 0.930 . S
H182 C190 0.930 . S
H183 C184 1.016 . S
C184 H183 1.016 . S
C184 N191 1.286 . S
C185 H180 0.930 . S
C185 C186 1.397 . S
C185 C187 1.361 . S
C186 C185 1.397 . S
C186 C190 1.390 . S
C187 C185 1.361 . S
C187 C188 1.393 . S
C187 N191 1.413 . S
C188 H181 0.930 . S
C188 C187 1.393 . S
C188 C189 1.399 . S
C189 C188 1.399 . S
C189 C190 1.381 . S
C190 H182 0.930 . S
C190 C186 1.390 . S
C190 C189 1.381 . S
N191 C184 1.286 . S
N191 C187 1.413 . S
H192 C197 0.930 . S
H193 C200 0.930 . S
H194 C202 0.930 . S
H195 C196 1.016 . S
C196 H195 1.016 . S
C196 N203 1.286 . S
C197 H192 0.930 . S
C197 C198 1.397 . S
C197 C199 1.361 . S
C198 C197 1.397 . S
C198 C202 1.390 . S
C199 C197 1.361 . S
C199 C200 1.393 . S
C199 N203 1.413 . S
C200 H193 0.930 . S
C200 C199 1.393 . S
C200 C201 1.399 . S
C201 C200 1.399 . S
C201 C202 1.381 . S
C202 H194 0.930 . S
C202 C198 1.390 . S
C202 C201 1.381 . S
N203 C196 1.286 . S
N203 C199 1.413 . S
H204 C209 0.930 . S
H205 C212 0.930 . S
H206 C214 0.930 . S
H207 C208 1.016 . S
C208 H207 1.016 . S
C208 N215 1.286 . S
C209 H204 0.930 . S
C209 C210 1.397 . S
C209 C211 1.361 . S
C210 C209 1.397 . S
C210 C214 1.390 . S
C211 C209 1.361 . S
C211 C212 1.393 . S
C211 N215 1.413 . S
C212 H205 0.930 . S
C212 C211 1.393 . S
C212 C213 1.399 . S
C213 C212 1.399 . S
C213 C214 1.381 . S
C214 H206 0.930 . S
C214 C210 1.390 . S
C214 C213 1.381 . S
N215 C208 1.286 . S
N215 C211 1.413 . S
Tb216 C226 2.825 1_565 S
Tb216 O227 2.347 1_566 S
Tb216 O230 2.366 1_565 S
Tb216 O235 2.418 . S
Tb216 O236 2.384 1_556 S
Tb216 O239 2.479 . S
Tb216 O240 2.471 1_565 S
Eu217 O228 2.418 . S
Eu217 O229 2.384 . S
Eu217 O232 2.479 . S
Eu217 O233 2.471 1_545 S
Eu217 O234 2.347 1_545 S
Eu217 O237 2.366 1_545 S
Eu217 C247 2.825 . S
C218 O234 1.259 . S
C218 O235 1.265 1_554 S
C219 O236 1.255 . S
C219 O237 1.265 . S
C220 C222 1.380 . S
C220 C223 1.374 . S
C220 C226 1.507 . S
C221 C222 1.384 . S
C221 C225 1.387 . S
C221 H248 0.954 . S
C222 C220 1.380 . S
C222 C221 1.384 . S
C222 H249 0.931 1_545 S
C223 C220 1.374 . S
C223 C224 1.390 . S
C223 H250 0.930 . S
C224 C223 1.390 . S
C224 C225 1.391 . S
C224 H251 0.930 . S
C225 C221 1.387 . S
C225 C224 1.391 . S
C226 Tb216 2.825 1_545 S
C226 C220 1.507 . S
C226 O239 1.238 1_545 S
C226 O240 1.247 . S
O227 Tb216 2.347 1_544 S
O227 C231 1.259 . S
O228 Eu217 2.418 . S
O228 C231 1.265 . S
O229 Eu217 2.384 . S
O229 C238 1.255 . S
O230 Tb216 2.366 1_545 S
O230 C238 1.265 1_556 S
C231 O227 1.259 . S
C231 O228 1.265 . S
O232 Eu217 2.479 . S
O232 C247 1.238 . S
O233 Eu217 2.471 1_565 S
O233 C247 1.247 1_565 S
O234 Eu217 2.347 1_565 S
O234 C218 1.259 . S
O235 Tb216 2.418 . S
O235 C218 1.265 1_556 S
O236 Tb216 2.384 1_554 S
O236 C219 1.255 . S
O237 Eu217 2.366 1_565 S
O237 C219 1.265 . S
C238 O229 1.255 . S
C238 O230 1.265 1_554 S
O239 Tb216 2.479 . S
O239 C226 1.238 1_565 S
O240 Tb216 2.471 1_545 S
O240 C226 1.247 . S
C241 C244 1.380 1_565 S
C241 C245 1.374 . S
C241 C247 1.507 1_565 S
C242 C243 1.387 1_565 S
C242 C246 1.391 . S
C243 C242 1.387 1_545 S
C243 C244 1.384 . S
C243 H252 0.930 . S
C244 C241 1.380 1_545 S
C244 C243 1.384 . S
C244 H253 0.931 . S
C245 C241 1.374 . S
C245 C246 1.390 . S
C245 H254 0.930 . S
C246 C242 1.391 . S
C246 C245 1.390 . S
C246 H255 0.930 . S
C247 Eu217 2.825 . S
C247 O232 1.238 . S
C247 O233 1.247 1_545 S
C247 C241 1.507 1_545 S
H248 C221 0.954 . S
H249 C222 0.931 1_565 S
H250 C223 0.930 . S
H251 C224 0.930 . S
H252 C243 0.930 . S
H253 C244 0.931 . S
H254 C245 0.930 . S
H255 C246 0.930 . S
Tb256 C266 2.825 . S
Tb256 O267 2.347 1_456 S
Tb256 O270 2.366 1_455 S
Tb256 O275 2.432 . S
Tb256 O276 2.384 1_556 S
Tb256 O279 2.479 . S
Tb256 O280 2.471 1_455 S
Eu257 O268 2.418 . S
Eu257 O269 2.384 . S
Eu257 O272 2.479 . S
Eu257 O273 2.471 1_655 S
Eu257 O274 2.347 1_655 S
Eu257 O277 2.366 1_655 S
Eu257 C287 2.825 1_655 S
C258 O274 1.259 . S
C258 O275 1.211 1_554 S
C259 O276 1.255 . S
C259 O277 1.265 . S
C260 C262 1.380 1_655 S
C260 C263 1.374 . S
C260 C266 1.507 1_655 S
C261 C262 1.384 1_655 S
C261 C265 1.387 . S
C261 H288 0.930 1_655 S
C262 C260 1.380 1_455 S
C262 C261 1.384 1_455 S
C262 H289 0.931 . S
C263 C260 1.374 . S
C263 C264 1.390 . S
C263 H290 0.930 . S
C264 C263 1.390 . S
C264 C265 1.391 . S
C264 H291 0.930 . S
C265 C261 1.387 . S
C265 C264 1.391 . S
C266 Tb256 2.825 . S
C266 C260 1.507 1_455 S
C266 O279 1.238 . S
C266 O280 1.247 1_455 S
O267 Tb256 2.347 1_654 S
O267 C271 1.259 . S
O268 Eu257 2.418 . S
O268 C271 1.265 . S
O269 Eu257 2.384 . S
O269 C278 1.255 1_554 S
O270 Tb256 2.366 1_655 S
O270 C278 1.265 . S
C271 O267 1.259 . S
C271 O268 1.265 . S
O272 Eu257 2.479 . S
O272 C287 1.238 1_655 S
O273 Eu257 2.471 1_455 S
O273 C287 1.247 . S
O274 Eu257 2.347 1_455 S
O274 C258 1.259 . S
O275 Tb256 2.432 . S
O275 C258 1.211 1_556 S
O276 Tb256 2.384 1_554 S
O276 C259 1.255 . S
O277 Eu257 2.366 1_455 S
O277 C259 1.265 . S
C278 O269 1.255 1_556 S
C278 O270 1.265 . S
O279 Tb256 2.479 . S
O279 C266 1.238 . S
O280 Tb256 2.471 1_655 S
O280 C266 1.247 1_655 S
C281 C284 1.380 . S
C281 C285 1.374 . S
C281 C287 1.507 . S
C282 C283 1.387 . S
C282 C286 1.391 . S
C283 C282 1.387 . S
C283 C284 1.384 . S
C283 H292 0.930 . S
C284 C281 1.380 . S
C284 C283 1.384 . S
C284 H293 0.931 1_455 S
C285 C281 1.374 . S
C285 C286 1.390 . S
C285 H294 0.930 . S
C286 C282 1.391 . S
C286 C285 1.390 . S
C286 H295 0.930 . S
C287 Eu257 2.825 1_455 S
C287 O272 1.238 1_455 S
C287 O273 1.247 . S
C287 C281 1.507 . S
H288 C261 0.930 1_455 S
H289 C262 0.931 . S
H290 C263 0.930 . S
H291 C264 0.930 . S
H292 C283 0.930 . S
H293 C284 0.931 1_655 S
H294 C285 0.930 . S
H295 C286 0.930 . S
Tb296 C306 2.825 . S
Tb296 O307 2.347 . S
Tb296 O310 2.366 . S
Tb296 O315 2.418 . S
Tb296 O316 2.384 . S
Tb296 O319 2.479 . S
Tb296 O320 2.471 . S
Eu297 O308 2.418 1_556 S
Eu297 O309 2.384 1_556 S
Eu297 O312 2.479 . S
Eu297 O313 2.471 . S
Eu297 O314 2.347 1_556 S
Eu297 O317 2.366 . S
Eu297 C327 2.825 . S
C298 O314 1.259 . S
C298 O315 1.265 . S
C299 O316 1.255 . S
C299 O317 1.265 1_554 S
C300 C302 1.380 . S
C300 C303 1.374 . S
C300 C306 1.507 . S
C301 C302 1.384 . S
C301 C305 1.387 . S
C301 H328 0.930 . S
C302 C300 1.380 . S
C302 C301 1.384 . S
C302 H329 0.931 . S
C303 C300 1.374 . S
C303 C304 1.390 . S
C303 H330 0.930 . S
C304 C303 1.390 . S
C304 C305 1.391 . S
C304 H331 0.930 . S
C305 C301 1.387 . S
C305 C304 1.391 . S
C306 Tb296 2.825 . S
C306 C300 1.507 . S
C306 O319 1.238 . S
C306 O320 1.247 . S
O307 Tb296 2.347 . S
O307 C311 1.259 . S
O308 Eu297 2.418 1_554 S
O308 C311 1.265 . S
O309 Eu297 2.384 1_554 S
O309 C318 1.255 . S
O310 Tb296 2.366 . S
O310 C318 1.265 . S
C311 O307 1.259 . S
C311 O308 1.265 . S
O312 Eu297 2.479 . S
O312 C327 1.238 . S
O313 Eu297 2.471 . S
O313 C327 1.247 . S
O314 Eu297 2.347 1_554 S
O314 C298 1.259 . S
O315 Tb296 2.418 . S
O315 C298 1.265 . S
O316 Tb296 2.384 . S
O316 C299 1.255 . S
O317 Eu297 2.366 . S
O317 C299 1.265 1_556 S
C318 O309 1.255 . S
C318 O310 1.265 . S
O319 Tb296 2.479 . S
O319 C306 1.238 . S
O320 Tb296 2.471 . S
O320 C306 1.247 . S
C321 C324 1.380 . S
C321 C325 1.374 . S
C321 C327 1.507 . S
C322 C323 1.387 . S
C322 C326 1.391 . S
C323 C322 1.387 . S
C323 C324 1.384 . S
C323 H332 0.930 . S
C324 C321 1.380 . S
C324 C323 1.384 . S
C324 H333 0.931 . S
C325 C321 1.374 . S
C325 C326 1.390 . S
C325 H334 0.930 . S
C326 C322 1.391 . S
C326 C325 1.390 . S
C326 H335 0.930 . S
C327 Eu297 2.825 . S
C327 O312 1.238 . S
C327 O313 1.247 . S
C327 C321 1.507 . S
H328 C301 0.930 . S
H329 C302 0.931 . S
H330 C303 0.930 . S
H331 C304 0.930 . S
H332 C323 0.930 . S
H333 C324 0.931 . S
H334 C325 0.930 . S
H335 C326 0.930 . S
Tb336 C346 2.825 . S
Tb336 O347 2.347 . S
Tb336 O350 2.366 . S
Tb336 O355 2.418 . S
Tb336 O356 2.384 . S
Tb336 O359 2.479 . S
Tb336 O360 2.471 . S
Eu337 O348 2.418 . S
Eu337 O349 2.384 . S
Eu337 O352 2.479 . S
Eu337 O353 2.471 . S
Eu337 O354 2.347 . S
Eu337 O357 2.366 . S
Eu337 C367 2.825 . S
C338 O354 1.259 . S
C338 O355 1.265 . S
C339 O356 1.255 . S
C339 O357 1.265 . S
C340 C342 1.380 . S
C340 C343 1.374 . S
C340 C346 1.507 . S
C341 C342 1.384 . S
C341 C345 1.387 . S
C341 H368 0.930 . S
C342 C340 1.380 . S
C342 C341 1.384 . S
C342 H369 0.931 . S
C343 C340 1.374 . S
C343 C344 1.390 . S
C343 H370 0.930 . S
C344 C343 1.390 . S
C344 C345 1.391 . S
C344 H371 0.930 . S
C345 C341 1.387 . S
C345 C344 1.391 . S
C346 Tb336 2.825 . S
C346 C340 1.507 . S
C346 O359 1.238 . S
C346 O360 1.247 . S
O347 Tb336 2.347 . S
O347 C351 1.259 . S
O348 Eu337 2.418 . S
O348 C351 1.265 . S
O349 Eu337 2.384 . S
O349 C358 1.255 . S
O350 Tb336 2.366 . S
O350 C358 1.265 . S
C351 O347 1.259 . S
C351 O348 1.265 . S
O352 Eu337 2.479 . S
O352 C367 1.238 . S
O353 Eu337 2.471 . S
O353 C367 1.247 . S
O354 Eu337 2.347 . S
O354 C338 1.259 . S
O355 Tb336 2.418 . S
O355 C338 1.265 . S
O356 Tb336 2.384 . S
O356 C339 1.255 . S
O357 Eu337 2.366 . S
O357 C339 1.265 . S
C358 O349 1.255 . S
C358 O350 1.265 . S
O359 Tb336 2.479 . S
O359 C346 1.238 . S
O360 Tb336 2.471 . S
O360 C346 1.247 . S
C361 C364 1.380 . S
C361 C365 1.374 . S
C361 C367 1.507 . S
C362 C363 1.387 . S
C362 C366 1.391 . S
C363 C362 1.387 . S
C363 C364 1.384 . S
C363 H372 0.930 . S
C364 C361 1.380 . S
C364 C363 1.384 . S
C364 H373 0.931 . S
C365 C361 1.374 . S
C365 C366 1.390 . S
C365 H374 0.930 . S
C366 C362 1.391 . S
C366 C365 1.390 . S
C366 H375 0.930 . S
C367 Eu337 2.825 . S
C367 O352 1.238 . S
C367 O353 1.247 . S
C367 C361 1.507 . S
H368 C341 0.930 . S
H369 C342 0.931 . S
H370 C343 0.930 . S
H371 C344 0.930 . S
H372 C363 0.930 . S
H373 C364 0.931 . S
H374 C365 0.930 . S
H375 C366 0.930 . S
Tb376 C386 2.825 . S
Tb376 O387 2.347 . S
Tb376 O390 2.366 . S
Tb376 O395 2.418 . S
Tb376 O396 2.384 . S
Tb376 O399 2.479 . S
Tb376 O400 2.471 . S
Eu377 O388 2.418 . S
Eu377 O389 2.384 . S
Eu377 O392 2.479 . S
Eu377 O393 2.471 . S
Eu377 O394 2.347 . S
Eu377 O397 2.366 . S
Eu377 C407 2.825 . S
C378 O394 1.259 . S
C378 O395 1.265 . S
C379 O396 1.255 . S
C379 O397 1.265 . S
C380 C382 1.380 . S
C380 C383 1.374 . S
C380 C386 1.507 . S
C381 C382 1.384 . S
C381 C385 1.387 . S
C381 H408 0.930 . S
C382 C380 1.380 . S
C382 C381 1.384 . S
C382 H409 0.931 . S
C383 C380 1.374 . S
C383 C384 1.390 . S
C383 H410 0.930 . S
C384 C383 1.390 . S
C384 C385 1.391 . S
C384 H411 0.930 . S
C385 C381 1.387 . S
C385 C384 1.391 . S
C386 Tb376 2.825 . S
C386 C380 1.507 . S
C386 O399 1.238 . S
C386 O400 1.247 . S
O387 Tb376 2.347 . S
O387 C391 1.259 . S
O388 Eu377 2.418 . S
O388 C391 1.265 . S
O389 Eu377 2.384 . S
O389 C398 1.255 . S
O390 Tb376 2.366 . S
O390 C398 1.265 . S
C391 O387 1.259 . S
C391 O388 1.265 . S
O392 Eu377 2.479 . S
O392 C407 1.238 . S
O393 Eu377 2.471 . S
O393 C407 1.247 . S
O394 Eu377 2.347 . S
O394 C378 1.259 . S
O395 Tb376 2.418 . S
O395 C378 1.265 . S
O396 Tb376 2.384 . S
O396 C379 1.255 . S
O397 Eu377 2.366 . S
O397 C379 1.265 . S
C398 O389 1.255 . S
C398 O390 1.265 . S
O399 Tb376 2.479 . S
O399 C386 1.238 . S
O400 Tb376 2.471 . S
O400 C386 1.247 . S
C401 C404 1.380 . S
C401 C405 1.374 . S
C401 C407 1.507 . S
C402 C403 1.387 . S
C402 C406 1.391 . S
C403 C402 1.387 . S
C403 C404 1.384 . S
C403 H412 0.930 . S
C404 C401 1.380 . S
C404 C403 1.384 . S
C404 H413 0.931 . S
C405 C401 1.374 . S
C405 C406 1.390 . S
C405 H414 0.930 . S
C406 C402 1.391 . S
C406 C405 1.390 . S
C406 H415 0.930 . S
C407 Eu377 2.825 . S
C407 O392 1.238 . S
C407 O393 1.247 . S
C407 C401 1.507 . S
H408 C381 0.930 . S
H409 C382 0.931 . S
H410 C383 0.930 . S
H411 C384 0.930 . S
H412 C403 0.930 . S
H413 C404 0.931 . S
H414 C405 0.930 . S
H415 C406 0.930 . S
Tb416 C426 2.825 . S
Tb416 O427 2.347 . S
Tb416 O430 2.366 . S
Tb416 O435 2.418 . S
Tb416 O436 2.384 . S
Tb416 O439 2.479 . S
Tb416 O440 2.471 . S
Eu417 O428 2.418 . S
Eu417 O429 2.384 . S
Eu417 O432 2.479 . S
Eu417 O433 2.471 . S
Eu417 O434 2.347 . S
Eu417 O437 2.366 . S
Eu417 C447 2.825 . S
C418 O434 1.259 . S
C418 O435 1.265 . S
C419 O436 1.255 . S
C419 O437 1.265 . S
C420 C422 1.380 . S
C420 C423 1.374 . S
C420 C426 1.507 . S
C421 C422 1.384 . S
C421 C425 1.387 . S
C421 H448 0.930 . S
C422 C420 1.380 . S
C422 C421 1.384 . S
C422 H449 0.931 . S
C423 C420 1.374 . S
C423 C424 1.390 . S
C423 H450 0.930 . S
C424 C423 1.390 . S
C424 C425 1.391 . S
C424 H451 0.930 . S
C425 C421 1.387 . S
C425 C424 1.391 . S
C426 Tb416 2.825 . S
C426 C420 1.507 . S
C426 O439 1.238 . S
C426 O440 1.247 . S
O427 Tb416 2.347 . S
O427 C431 1.259 . S
O428 Eu417 2.418 . S
O428 C431 1.265 . S
O429 Eu417 2.384 . S
O429 C438 1.255 . S
O430 Tb416 2.366 . S
O430 C438 1.265 . S
C431 O427 1.259 . S
C431 O428 1.265 . S
O432 Eu417 2.479 . S
O432 C447 1.238 . S
O433 Eu417 2.471 . S
O433 C447 1.247 . S
O434 Eu417 2.347 . S
O434 C418 1.259 . S
O435 Tb416 2.418 . S
O435 C418 1.265 . S
O436 Tb416 2.384 . S
O436 C419 1.255 . S
O437 Eu417 2.366 . S
O437 C419 1.265 . S
C438 O429 1.255 . S
C438 O430 1.265 . S
O439 Tb416 2.479 . S
O439 C426 1.238 . S
O440 Tb416 2.471 . S
O440 C426 1.247 . S
C441 C444 1.380 . S
C441 C445 1.374 . S
C441 C447 1.507 . S
C442 C443 1.387 . S
C442 C446 1.391 . S
C443 C442 1.387 . S
C443 C444 1.384 . S
C443 H452 0.930 . S
C444 C441 1.380 . S
C444 C443 1.384 . S
C444 H453 0.931 . S
C445 C441 1.374 . S
C445 C446 1.390 . S
C445 H454 0.930 . S
C446 C442 1.391 . S
C446 C445 1.390 . S
C446 H455 0.930 . S
C447 Eu417 2.825 . S
C447 O432 1.238 . S
C447 O433 1.247 . S
C447 C441 1.507 . S
H448 C421 0.930 . S
H449 C422 0.931 . S
H450 C423 0.930 . S
H451 C424 0.930 . S
H452 C443 0.930 . S
H453 C444 0.931 . S
H454 C445 0.930 . S
H455 C446 0.930 . S
Tb456 C466 2.825 . S
Tb456 O467 2.347 . S
Tb456 O470 2.366 . S
Tb456 O475 2.418 . S
Tb456 O476 2.384 . S
Tb456 O479 2.479 . S
Tb456 O480 2.471 . S
Eu457 O468 2.418 . S
Eu457 O469 2.384 . S
Eu457 O472 2.479 . S
Eu457 O473 2.471 . S
Eu457 O474 2.347 . S
Eu457 O477 2.366 . S
Eu457 C487 2.825 . S
C458 O474 1.259 . S
C458 O475 1.265 . S
C459 O476 1.255 . S
C459 O477 1.265 . S
C460 C462 1.380 . S
C460 C463 1.374 . S
C460 C466 1.507 . S
C461 C462 1.384 . S
C461 C465 1.387 . S
C461 H488 0.930 . S
C462 C460 1.380 . S
C462 C461 1.384 . S
C462 H489 0.931 . S
C463 C460 1.374 . S
C463 C464 1.390 . S
C463 H490 0.930 . S
C464 C463 1.390 . S
C464 C465 1.391 . S
C464 H491 0.930 . S
C465 C461 1.387 . S
C465 C464 1.391 . S
C466 Tb456 2.825 . S
C466 C460 1.507 . S
C466 O479 1.238 . S
C466 O480 1.247 . S
O467 Tb456 2.347 . S
O467 C471 1.259 . S
O468 Eu457 2.418 . S
O468 C471 1.265 . S
O469 Eu457 2.384 . S
O469 C478 1.255 . S
O470 Tb456 2.366 . S
O470 C478 1.265 . S
C471 O467 1.259 . S
C471 O468 1.265 . S
O472 Eu457 2.479 . S
O472 C487 1.238 . S
O473 Eu457 2.471 . S
O473 C487 1.247 . S
O474 Eu457 2.347 . S
O474 C458 1.259 . S
O475 Tb456 2.418 . S
O475 C458 1.265 . S
O476 Tb456 2.384 . S
O476 C459 1.255 . S
O477 Eu457 2.366 . S
O477 C459 1.265 . S
C478 O469 1.255 . S
C478 O470 1.265 . S
O479 Tb456 2.479 . S
O479 C466 1.238 . S
O480 Tb456 2.471 . S
O480 C466 1.247 . S
C481 C484 1.380 . S
C481 C485 1.374 . S
C481 C487 1.507 . S
C482 C483 1.387 . S
C482 C486 1.391 . S
C483 C482 1.387 . S
C483 C484 1.384 . S
C483 H492 0.930 . S
C484 C481 1.380 . S
C484 C483 1.384 . S
C484 H493 0.931 . S
C485 C481 1.374 . S
C485 C486 1.390 . S
C485 H494 0.930 . S
C486 C482 1.391 . S
C486 C485 1.390 . S
C486 H495 0.930 . S
C487 Eu457 2.825 . S
C487 O472 1.238 . S
C487 O473 1.247 . S
C487 C481 1.507 . S
H488 C461 0.930 . S
H489 C462 0.931 . S
H490 C463 0.930 . S
H491 C464 0.930 . S
H492 C483 0.930 . S
H493 C484 0.931 . S
H494 C485 0.930 . S
H495 C486 0.930 . S
Tb496 C506 2.825 . S
Tb496 O507 2.347 . S
Tb496 O510 2.366 . S
Tb496 O515 2.418 . S
Tb496 O516 2.384 . S
Tb496 O519 2.479 . S
Tb496 O520 2.471 . S
Eu497 O508 2.418 . S
Eu497 O509 2.384 . S
Eu497 O512 2.479 . S
Eu497 O513 2.471 . S
Eu497 O514 2.347 . S
Eu497 O517 2.366 . S
Eu497 C527 2.825 . S
C498 O514 1.259 . S
C498 O515 1.265 . S
C499 O516 1.255 . S
C499 O517 1.265 . S
C500 C502 1.380 . S
C500 C503 1.374 . S
C500 C506 1.507 . S
C501 C502 1.384 . S
C501 C505 1.387 . S
C501 H528 0.930 . S
C502 C500 1.380 . S
C502 C501 1.384 . S
C502 H529 0.931 . S
C503 C500 1.374 . S
C503 C504 1.390 . S
C503 H530 0.930 . S
C504 C503 1.390 . S
C504 C505 1.391 . S
C504 H531 0.930 . S
C505 C501 1.387 . S
C505 C504 1.391 . S
C506 Tb496 2.825 . S
C506 C500 1.507 . S
C506 O519 1.238 . S
C506 O520 1.247 . S
O507 Tb496 2.347 . S
O507 C511 1.259 . S
O508 Eu497 2.418 . S
O508 C511 1.265 . S
O509 Eu497 2.384 . S
O509 C518 1.255 . S
O510 Tb496 2.366 . S
O510 C518 1.265 . S
C511 O507 1.259 . S
C511 O508 1.265 . S
O512 Eu497 2.479 . S
O512 C527 1.238 . S
O513 Eu497 2.471 . S
O513 C527 1.247 . S
O514 Eu497 2.347 . S
O514 C498 1.259 . S
O515 Tb496 2.418 . S
O515 C498 1.265 . S
O516 Tb496 2.384 . S
O516 C499 1.255 . S
O517 Eu497 2.366 . S
O517 C499 1.265 . S
C518 O509 1.255 . S
C518 O510 1.265 . S
O519 Tb496 2.479 . S
O519 C506 1.238 . S
O520 Tb496 2.471 . S
O520 C506 1.247 . S
C521 C524 1.380 . S
C521 C525 1.374 . S
C521 C527 1.507 . S
C522 C523 1.387 . S
C522 C526 1.391 . S
C523 C522 1.387 . S
C523 C524 1.384 . S
C523 H532 0.930 . S
C524 C521 1.380 . S
C524 C523 1.384 . S
C524 H533 0.931 . S
C525 C521 1.374 . S
C525 C526 1.390 . S
C525 H534 0.930 . S
C526 C522 1.391 . S
C526 C525 1.390 . S
C526 H535 0.930 . S
C527 Eu497 2.825 . S
C527 O512 1.238 . S
C527 O513 1.247 . S
C527 C521 1.507 . S
H528 C501 0.930 . S
H529 C502 0.931 . S
H530 C503 0.930 . S
H531 C504 0.930 . S
H532 C523 0.930 . S
H533 C524 0.931 . S
H534 C525 0.930 . S
H535 C526 0.930 . S
Tb536 C546 2.825 . S
Tb536 O547 2.347 . S
Tb536 O550 2.366 . S
Tb536 O555 2.418 . S
Tb536 O556 2.384 . S
Tb536 O559 2.479 . S
Tb536 O560 2.471 . S
Eu537 O548 2.418 . S
Eu537 O549 2.384 . S
Eu537 O552 2.479 . S
Eu537 O553 2.471 . S
Eu537 O554 2.347 . S
Eu537 O557 2.366 . S
Eu537 C567 2.825 . S
C538 O554 1.259 . S
C538 O555 1.265 . S
C539 O556 1.255 . S
C539 O557 1.265 . S
C540 C542 1.380 . S
C540 C543 1.374 . S
C540 C546 1.507 . S
C541 C542 1.384 . S
C541 C545 1.387 . S
C541 H568 0.930 . S
C542 C540 1.380 . S
C542 C541 1.384 . S
C542 H569 0.931 . S
C543 C540 1.374 . S
C543 C544 1.390 . S
C543 H570 0.930 . S
C544 C543 1.390 . S
C544 C545 1.391 . S
C544 H571 0.930 . S
C545 C541 1.387 . S
C545 C544 1.391 . S
C546 Tb536 2.825 . S
C546 C540 1.507 . S
C546 O559 1.238 . S
C546 O560 1.247 . S
O547 Tb536 2.347 . S
O547 C551 1.259 . S
O548 Eu537 2.418 . S
O548 C551 1.265 . S
O549 Eu537 2.384 . S
O549 C558 1.255 . S
O550 Tb536 2.366 . S
O550 C558 1.265 . S
C551 O547 1.259 . S
C551 O548 1.265 . S
O552 Eu537 2.479 . S
O552 C567 1.238 . S
O553 Eu537 2.471 . S
O553 C567 1.247 . S
O554 Eu537 2.347 . S
O554 C538 1.259 . S
O555 Tb536 2.418 . S
O555 C538 1.265 . S
O556 Tb536 2.384 . S
O556 C539 1.255 . S
O557 Eu537 2.366 . S
O557 C539 1.265 . S
C558 O549 1.255 . S
C558 O550 1.265 . S
O559 Tb536 2.479 . S
O559 C546 1.238 . S
O560 Tb536 2.471 . S
O560 C546 1.247 . S
C561 C564 1.380 . S
C561 C565 1.374 . S
C561 C567 1.507 . S
C562 C563 1.387 . S
C562 C566 1.391 . S
C563 C562 1.387 . S
C563 C564 1.384 . S
C563 H572 0.930 . S
C564 C561 1.380 . S
C564 C563 1.384 . S
C564 H573 0.931 . S
C565 C561 1.374 . S
C565 C566 1.390 . S
C565 H574 0.930 . S
C566 C562 1.391 . S
C566 C565 1.390 . S
C566 H575 0.930 . S
C567 Eu537 2.825 . S
C567 O552 1.238 . S
C567 O553 1.247 . S
C567 C561 1.507 . S
H568 C541 0.930 . S
H569 C542 0.931 . S
H570 C543 0.930 . S
H571 C544 0.930 . S
H572 C563 0.930 . S
H573 C564 0.931 . S
H574 C565 0.930 . S
H575 C566 0.930 . S
H576 C584 0.929 . S
H577 C586 0.930 . S
H578 C588 0.930 . S
H579 C591 0.929 . S
H580 C594 0.930 . S
H581 C596 0.960 . S
H582 C596 0.960 . S
H583 C596 0.960 . S
C584 H576 0.929 . S
C584 C585 1.377 . S
C584 C586 1.384 . S
C585 C584 1.377 . S
C585 C591 1.390 . S
C586 H577 0.930 . S
C586 C584 1.384 . S
C586 C587 1.372 . S
C587 C586 1.372 . S
C587 C588 1.400 . S
C587 C592 1.490 . S
C588 H578 0.930 . S
C588 C587 1.400 . S
C588 C591 1.386 . S
H589 C605 0.930 . S
H590 C606 0.931 . S
C591 H579 0.929 . S
C591 C585 1.390 . S
C591 C588 1.386 . S
C592 C587 1.490 . S
C592 C594 1.395 . S
C592 C595 1.403 . S
H593 C599 0.930 . S
C594 H580 0.930 . S
C594 C592 1.395 . S
C594 C597 1.403 . S
C595 C592 1.403 . S
C595 C596 1.524 . S
C595 C599 1.400 . S
C596 H581 0.960 . S
C596 H582 0.960 . S
C596 H583 0.960 . S
C596 C595 1.524 . S
C597 C594 1.403 . S
C597 C598 1.392 . S
C597 C601 1.495 . S
C598 C597 1.392 . S
C598 C599 1.385 . S
C598 C600 1.478 . S
C599 H593 0.930 . S
C599 C595 1.400 . S
C599 C598 1.385 . S
C600 C598 1.478 . S
C600 C602 1.381 . S
C600 C606 1.383 . S
C601 C597 1.495 . S
C601 H607 0.959 . S
C601 H608 0.961 . S
C601 H609 0.960 . S
C602 C600 1.381 . S
C602 C603 1.394 . S
C602 H610 0.930 . S
C603 C602 1.394 . S
C603 C604 1.383 . S
C603 H611 0.929 . S
C604 C603 1.383 . S
C604 C605 1.377 . S
C605 H589 0.930 . S
C605 C604 1.377 . S
C605 C606 1.379 . S
C606 H590 0.931 . S
C606 C600 1.383 . S
C606 C605 1.379 . S
H607 C601 0.959 . S
H608 C601 0.961 . S
H609 C601 0.960 . S
H610 C602 0.930 . S
H611 C603 0.929 . S
H612 C620 0.929 . S
H613 C622 0.930 . S
H614 C624 0.930 . S
H615 C627 0.929 . S
H616 C630 0.930 . S
H617 C632 0.960 . S
H618 C632 0.960 . S
H619 C632 0.960 . S
C620 H612 0.929 . S
C620 C621 1.377 . S
C620 C622 1.384 . S
C621 C620 1.377 . S
C621 C627 1.390 . S
C622 H613 0.930 . S
C622 C620 1.384 . S
C622 C623 1.372 . S
C623 C622 1.372 . S
C623 C624 1.400 . S
C623 C628 1.490 . S
C624 H614 0.930 . S
C624 C623 1.400 . S
C624 C627 1.386 . S
H625 C641 0.930 . S
H626 C642 0.931 . S
C627 H615 0.929 . S
C627 C621 1.390 . S
C627 C624 1.386 . S
C628 C623 1.490 . S
C628 C630 1.395 . S
C628 C631 1.403 . S
H629 C635 0.930 . S
C630 H616 0.930 . S
C630 C628 1.395 . S
C630 C633 1.403 . S
C631 C628 1.403 . S
C631 C632 1.524 . S
C631 C635 1.400 . S
C632 H617 0.960 . S
C632 H618 0.960 . S
C632 H619 0.960 . S
C632 C631 1.524 . S
C633 C630 1.403 . S
C633 C634 1.392 . S
C633 C637 1.495 . S
C634 C633 1.392 . S
C634 C635 1.385 . S
C634 C636 1.478 . S
C635 H629 0.930 . S
C635 C631 1.400 . S
C635 C634 1.385 . S
C636 C634 1.478 . S
C636 C638 1.381 . S
C636 C642 1.383 . S
C637 C633 1.495 . S
C637 H643 0.959 . S
C637 H644 0.961 . S
C637 H645 0.960 . S
C638 C636 1.381 . S
C638 C639 1.394 . S
C638 H646 0.930 . S
C639 C638 1.394 . S
C639 C640 1.383 . S
C639 H647 0.929 . S
C640 C639 1.383 . S
C640 C641 1.377 . S
C641 H625 0.930 . S
C641 C640 1.377 . S
C641 C642 1.379 . S
C642 H626 0.931 . S
C642 C636 1.383 . S
C642 C641 1.379 . S
H643 C637 0.959 . S
H644 C637 0.961 . S
H645 C637 0.960 . S
H646 C638 0.930 . S
H647 C639 0.929 . S
H648 C656 0.929 . S
H649 C658 0.930 . S
H650 C660 0.930 . S
H651 C663 0.929 . S
H652 C666 0.930 . S
H653 C668 0.960 . S
H654 C668 0.960 . S
H655 C668 0.960 . S
C656 H648 0.929 . S
C656 C657 1.377 . S
C656 C658 1.384 . S
C657 C656 1.377 . S
C657 C663 1.390 . S
C658 H649 0.930 . S
C658 C656 1.384 . S
C658 C659 1.372 . S
C659 C658 1.372 . S
C659 C660 1.400 . S
C659 C664 1.490 . S
C660 H650 0.930 . S
C660 C659 1.400 . S
C660 C663 1.386 . S
H661 C677 0.986 . S
H662 C678 0.931 . S
C663 H651 0.929 . S
C663 C657 1.390 . S
C663 C660 1.386 . S
C664 C659 1.490 . S
C664 C666 1.395 . S
C664 C667 1.403 . S
H665 C671 0.930 . S
C666 H652 0.930 . S
C666 C664 1.395 . S
C666 C669 1.403 . S
C667 C664 1.403 . S
C667 C668 1.524 . S
C667 C671 1.400 . S
C668 H653 0.960 . S
C668 H654 0.960 . S
C668 H655 0.960 . S
C668 C667 1.524 . S
C669 C666 1.403 . S
C669 C670 1.392 . S
C669 C673 1.495 . S
C670 C669 1.392 . S
C670 C671 1.385 . S
C670 C672 1.478 . S
C671 H665 0.930 . S
C671 C667 1.400 . S
C671 C670 1.385 . S
C672 C670 1.478 . S
C672 C674 1.381 . S
C672 C678 1.383 . S
C673 C669 1.495 . S
C673 H679 0.959 . S
C673 H680 0.961 . S
C673 H681 0.960 . S
C674 C672 1.381 . S
C674 C675 1.394 . S
C674 H682 0.930 . S
C675 C674 1.394 . S
C675 C676 1.383 . S
C675 H683 0.929 . S
C676 C675 1.383 . S
C676 C677 1.377 . S
C677 H661 0.986 . S
C677 C676 1.377 . S
C677 C678 1.379 . S
C678 H662 0.931 . S
C678 C672 1.383 . S
C678 C677 1.379 . S
H679 C673 0.959 . S
H680 C673 0.961 . S
H681 C673 0.960 . S
H682 C674 0.930 . S
H683 C675 0.929 . S
H684 C692 0.929 . S
H685 C694 0.930 . S
H686 C696 0.930 . S
H687 C699 0.929 . S
H688 C702 0.930 . S
H689 C704 0.957 . S
H690 C704 0.960 . S
H691 C704 0.952 1_554 S
C692 H684 0.929 . S
C692 C693 1.377 . S
C692 C694 1.384 . S
C693 C692 1.377 . S
C693 C699 1.390 . S
C694 H685 0.930 . S
C694 C692 1.384 . S
C694 C695 1.372 . S
C695 C694 1.372 . S
C695 C696 1.400 . S
C695 C700 1.490 . S
C696 H686 0.930 . S
C696 C695 1.400 . S
C696 C699 1.386 . S
H697 C713 0.930 . S
H698 C714 0.931 . S
C699 H687 0.929 . S
C699 C693 1.390 . S
C699 C696 1.386 . S
C700 C695 1.490 . S
C700 C702 1.395 . S
C700 C703 1.403 . S
H701 C707 0.930 . S
C702 H688 0.930 . S
C702 C700 1.395 . S
C702 C705 1.403 . S
C703 C700 1.403 . S
C703 C704 1.524 . S
C703 C707 1.400 . S
C704 H689 0.957 . S
C704 H690 0.960 . S
C704 H691 0.952 1_556 S
C704 C703 1.524 . S
C705 C702 1.403 . S
C705 C706 1.392 . S
C705 C709 1.495 . S
C706 C705 1.392 . S
C706 C707 1.385 . S
C706 C708 1.478 . S
C707 H701 0.930 . S
C707 C703 1.400 . S
C707 C706 1.385 . S
C708 C706 1.478 . S
C708 C710 1.381 . S
C708 C714 1.383 1_556 S
C709 C705 1.495 . S
C709 H715 0.959 . S
C709 H716 0.961 . S
C709 H717 0.960 . S
C710 C708 1.381 . S
C710 C711 1.394 . S
C710 H718 0.930 . S
C711 C710 1.394 . S
C711 C712 1.392 . S
C711 H719 0.929 . S
C712 C711 1.392 . S
C712 C713 1.370 1_556 S
C713 H697 0.930 . S
C713 C712 1.370 1_554 S
C713 C714 1.379 . S
C714 H698 0.931 . S
C714 C708 1.383 1_554 S
C714 C713 1.379 . S
H715 C709 0.959 . S
H716 C709 0.961 . S
H717 C709 0.960 . S
H718 C710 0.930 . S
H719 C711 0.929 . S
H720 C728 0.929 . S
H721 C730 0.930 . S
H722 C732 0.930 . S
H723 C735 0.929 . S
H724 C738 0.930 . S
H725 C740 0.960 . S
H726 C740 0.960 . S
H727 C740 0.960 . S
C728 H720 0.929 . S
C728 C729 1.377 . S
C728 C730 1.384 . S
C729 C728 1.377 . S
C729 C735 1.390 . S
C730 H721 0.930 . S
C730 C728 1.384 . S
C730 C731 1.372 . S
C731 C730 1.372 . S
C731 C732 1.400 . S
C731 C736 1.490 . S
C732 H722 0.930 . S
C732 C731 1.400 . S
C732 C735 1.386 . S
H733 C749 0.921 1_554 S
H734 C750 0.931 . S
C735 H723 0.929 . S
C735 C729 1.390 . S
C735 C732 1.386 . S
C736 C731 1.490 . S
C736 C738 1.395 . S
C736 C739 1.403 . S
H737 C743 0.930 . S
C738 H724 0.930 . S
C738 C736 1.395 . S
C738 C741 1.403 . S
C739 C736 1.403 . S
C739 C740 1.524 . S
C739 C743 1.400 . S
C740 H725 0.960 . S
C740 H726 0.960 . S
C740 H727 0.960 . S
C740 C739 1.524 . S
C741 C738 1.403 . S
C741 C742 1.392 . S
C741 C745 1.495 1_556 S
C742 C741 1.392 . S
C742 C743 1.385 . S
C742 C744 1.478 . S
C743 H737 0.930 . S
C743 C739 1.400 . S
C743 C742 1.385 . S
C744 C742 1.478 . S
C744 C746 1.381 . S
C744 C750 1.383 . S
C745 C741 1.495 1_554 S
C745 H751 0.959 . S
C745 H752 0.961 . S
C745 H753 0.960 . S
C746 C744 1.381 . S
C746 C747 1.394 . S
C746 H754 0.930 . S
C747 C746 1.394 . S
C747 C748 1.383 . S
C747 H755 0.929 . S
C748 C747 1.383 . S
C748 C749 1.377 . S
C749 H733 0.921 1_556 S
C749 C748 1.377 . S
C749 C750 1.379 . S
C750 H734 0.931 . S
C750 C744 1.383 . S
C750 C749 1.379 . S
H751 C745 0.959 . S
H752 C745 0.961 . S
H753 C745 0.960 . S
H754 C746 0.930 . S
H755 C747 0.929 . S
H756 C764 0.929 . S
H757 C766 0.930 . S
H758 C768 0.930 1_554 S
H759 C771 0.929 1_554 S
H760 C774 0.930 . S
H761 C776 0.960 . S
H762 C776 0.960 1_556 S
H763 C776 0.960 . S
C764 H756 0.929 . S
C764 C765 1.377 . S
C764 C766 1.384 . S
C765 C764 1.377 . S
C765 C771 1.390 . S
C766 H757 0.930 . S
C766 C764 1.384 . S
C766 C767 1.372 . S
C767 C766 1.372 . S
C767 C768 1.400 . S
C767 C772 1.490 . S
C768 H758 0.930 1_556 S
C768 C767 1.400 . S
C768 C771 1.386 . S
H769 C785 0.930 . S
H770 C786 0.931 . S
C771 H759 0.929 1_556 S
C771 C765 1.390 . S
C771 C768 1.386 . S
C772 C767 1.490 . S
C772 C774 1.395 . S
C772 C775 1.403 . S
H773 C779 0.911 1_554 S
C774 H760 0.930 . S
C774 C772 1.395 . S
C774 C777 1.403 . S
C775 C772 1.403 . S
C775 C776 1.524 1_556 S
C775 C779 1.406 . S
C776 H761 0.960 . S
C776 H762 0.960 1_554 S
C776 H763 0.960 . S
C776 C775 1.524 1_554 S
C777 C774 1.403 . S
C777 C778 1.392 . S
C777 C781 1.495 . S
C778 C777 1.392 . S
C778 C779 1.399 . S
C778 C780 1.478 . S
C779 H773 0.911 1_556 S
C779 C775 1.406 . S
C779 C778 1.399 . S
C780 C778 1.478 . S
C780 C782 1.381 . S
C780 C786 1.383 1_556 S
C781 C777 1.495 . S
C781 H787 0.959 . S
C781 H788 0.961 . S
C781 H789 0.960 . S
C782 C780 1.381 . S
C782 C783 1.394 . S
C782 H790 0.930 . S
C783 C782 1.394 . S
C783 C784 1.383 1_556 S
C783 H791 0.929 . S
C784 C783 1.383 1_554 S
C784 C785 1.377 . S
C785 H769 0.930 . S
C785 C784 1.377 . S
C785 C786 1.379 . S
C786 H770 0.931 . S
C786 C780 1.383 1_554 S
C786 C785 1.379 . S
H787 C781 0.959 . S
H788 C781 0.961 . S
H789 C781 0.960 . S
H790 C782 0.930 . S
H791 C783 0.929 . S
H792 C800 0.929 . S
H793 C802 0.930 . S
H794 C804 0.930 . S
H795 C807 0.929 . S
H796 C810 0.930 . S
H797 C812 0.960 . S
H798 C812 0.960 1_556 S
H799 C812 0.960 . S
C800 H792 0.929 . S
C800 C801 1.377 . S
C800 C802 1.384 . S
C801 C800 1.377 . S
C801 C807 1.390 . S
C802 H793 0.930 . S
C802 C800 1.384 . S
C802 C803 1.372 . S
C803 C802 1.372 . S
C803 C804 1.400 . S
C803 C808 1.490 . S
C804 H794 0.930 . S
C804 C803 1.400 . S
C804 C807 1.386 . S
H805 C821 0.930 . S
H806 C822 0.931 . S
C807 H795 0.929 . S
C807 C801 1.390 . S
C807 C804 1.386 . S
C808 C803 1.490 . S
C808 C810 1.395 . S
C808 C811 1.403 . S
H809 C815 0.930 1_554 S
C810 H796 0.930 . S
C810 C808 1.395 . S
C810 C813 1.403 . S
C811 C808 1.403 . S
C811 C812 1.524 1_556 S
C811 C815 1.400 . S
C812 H797 0.960 . S
C812 H798 0.960 1_554 S
C812 H799 0.960 . S
C812 C811 1.524 1_554 S
C813 C810 1.403 . S
C813 C814 1.392 . S
C813 C817 1.495 . S
C814 C813 1.392 . S
C814 C815 1.385 . S
C814 C816 1.478 . S
C815 H809 0.930 1_556 S
C815 C811 1.400 . S
C815 C814 1.385 . S
C816 C814 1.478 . S
C816 C818 1.381 . S
C816 C822 1.383 1_556 S
C817 C813 1.495 . S
C817 H823 0.959 . S
C817 H824 0.961 . S
C817 H825 0.960 . S
C818 C816 1.381 . S
C818 C819 1.394 . S
C818 H826 0.930 . S
C819 C818 1.394 . S
C819 C820 1.383 . S
C819 H827 0.929 . S
C820 C819 1.383 . S
C820 C821 1.377 1_556 S
C821 H805 0.930 . S
C821 C820 1.377 1_554 S
C821 C822 1.379 . S
C822 H806 0.931 . S
C822 C816 1.383 1_554 S
C822 C821 1.379 . S
H823 C817 0.959 . S
H824 C817 0.961 . S
H825 C817 0.960 . S
H826 C818 0.930 . S
H827 C819 0.929 . S
H828 C836 0.929 . S
H829 C838 0.930 . S
H830 C840 0.930 . S
H831 C843 0.929 . S
H832 C846 0.930 . S
H833 C848 0.960 1_554 S
H834 C848 0.964 . S
H835 C848 0.960 . S
C836 H828 0.929 . S
C836 C837 1.377 . S
C836 C838 1.384 . S
C837 C836 1.377 . S
C837 C843 1.390 . S
C838 H829 0.930 . S
C838 C836 1.384 . S
C838 C839 1.372 . S
C839 C838 1.372 . S
C839 C840 1.400 . S
C839 C844 1.490 . S
C840 H830 0.930 . S
C840 C839 1.400 . S
C840 C843 1.386 . S
H841 C857 0.930 . S
H842 C858 0.931 . S
C843 H831 0.929 . S
C843 C837 1.390 . S
C843 C840 1.386 . S
C844 C839 1.490 . S
C844 C846 1.395 . S
C844 C847 1.403 . S
H845 C851 0.930 . S
C846 H832 0.930 . S
C846 C844 1.395 . S
C846 C849 1.403 . S
C847 C844 1.403 . S
C847 C848 1.524 . S
C847 C851 1.400 . S
C848 H833 0.960 1_556 S
C848 H834 0.964 . S
C848 H835 0.960 . S
C848 C847 1.524 . S
C849 C846 1.403 . S
C849 C850 1.392 . S
C849 C853 1.495 . S
C850 C849 1.392 . S
C850 C851 1.385 . S
C850 C852 1.478 . S
C851 H845 0.930 . S
C851 C847 1.400 . S
C851 C850 1.385 . S
C852 C850 1.478 . S
C852 C854 1.381 . S
C852 C858 1.383 . S
C853 C849 1.495 . S
C853 H859 0.959 . S
C853 H860 0.961 . S
C853 H861 0.960 . S
C854 C852 1.381 . S
C854 C855 1.394 . S
C854 H862 0.930 . S
C855 C854 1.394 . S
C855 C856 1.383 . S
C855 H863 0.929 . S
C856 C855 1.383 . S
C856 C857 1.377 . S
C857 H841 0.930 . S
C857 C856 1.377 . S
C857 C858 1.379 . S
C858 H842 0.931 . S
C858 C852 1.383 . S
C858 C857 1.379 . S
H859 C853 0.959 . S
H860 C853 0.961 . S
H861 C853 0.960 . S
H862 C854 0.930 . S
H863 C855 0.929 . S
H864 C872 0.929 . S
H865 C874 0.930 . S
H866 C876 0.930 . S
H867 C879 0.929 . S
H868 C882 0.930 . S
H869 C884 0.960 . S
H870 C884 0.960 . S
H871 C884 0.960 1_554 S
C872 H864 0.929 . S
C872 C873 1.377 . S
C872 C874 1.384 . S
C873 C872 1.377 . S
C873 C879 1.390 1_556 S
C874 H865 0.930 . S
C874 C872 1.384 . S
C874 C875 1.372 . S
C875 C874 1.372 . S
C875 C876 1.400 1_556 S
C875 C880 1.490 . S
C876 H866 0.930 . S
C876 C875 1.400 1_554 S
C876 C879 1.386 . S
H877 C893 0.930 . S
H878 C894 0.931 . S
C879 H867 0.929 . S
C879 C873 1.390 1_554 S
C879 C876 1.386 . S
C880 C875 1.490 . S
C880 C882 1.395 . S
C880 C883 1.403 . S
H881 C887 0.935 1_554 S
C882 H868 0.930 . S
C882 C880 1.395 . S
C882 C885 1.403 . S
C883 C880 1.403 . S
C883 C884 1.524 . S
C883 C887 1.402 . S
C884 H869 0.960 . S
C884 H870 0.960 . S
C884 H871 0.960 1_556 S
C884 C883 1.524 . S
C885 C882 1.403 . S
C885 C886 1.393 1_556 S
C885 C889 1.497 . S
C886 C885 1.393 1_554 S
C886 C887 1.382 1_554 S
C886 C888 1.479 . S
C887 H881 0.935 1_556 S
C887 C883 1.402 . S
C887 C886 1.382 1_556 S
C888 C886 1.479 . S
C888 C890 1.381 1_554 S
C888 C894 1.383 . S
C889 C885 1.497 . S
C889 H895 0.960 . S
C889 H896 0.941 1_556 S
C889 H897 0.978 . S
C890 C888 1.381 1_556 S
C890 C891 1.394 . S
C890 H898 0.930 . S
C891 C890 1.394 . S
C891 C892 1.383 1_556 S
C891 H899 0.929 . S
C892 C891 1.383 1_554 S
C892 C893 1.377 . S
C893 H877 0.930 . S
C893 C892 1.377 . S
C893 C894 1.379 . S
C894 H878 0.931 . S
C894 C888 1.383 . S
C894 C893 1.379 . S
H895 C889 0.960 . S
H896 C889 0.941 1_554 S
H897 C889 0.978 . S
H898 C890 0.930 . S
H899 C891 0.929 . S
H900 C908 0.929 . S
H901 C910 0.930 . S
H902 C912 0.930 . S
H903 C915 0.929 . S
H904 C918 0.930 . S
H905 C920 0.960 . S
H906 C920 0.960 . S
H907 C920 0.960 . S
C908 H900 0.929 . S
C908 C909 1.377 . S
C908 C910 1.384 . S
C909 C908 1.377 . S
C909 C915 1.390 . S
C910 H901 0.930 . S
C910 C908 1.384 . S
C910 C911 1.372 . S
C911 C910 1.372 . S
C911 C912 1.400 . S
C911 C916 1.490 . S
C912 H902 0.930 . S
C912 C911 1.400 . S
C912 C915 1.386 . S
H913 C929 0.870 1_556 S
H914 C930 0.931 . S
C915 H903 0.929 . S
C915 C909 1.390 . S
C915 C912 1.386 . S
C916 C911 1.490 . S
C916 C918 1.395 . S
C916 C919 1.403 . S
H917 C923 0.930 . S
C918 H904 0.930 . S
C918 C916 1.395 . S
C918 C921 1.403 . S
C919 C916 1.403 . S
C919 C920 1.524 . S
C919 C923 1.400 . S
C920 H905 0.960 . S
C920 H906 0.960 . S
C920 H907 0.960 . S
C920 C919 1.524 . S
C921 C918 1.403 . S
C921 C922 1.392 . S
C921 C925 1.495 . S
C922 C921 1.392 . S
C922 C923 1.385 . S
C922 C924 1.478 . S
C923 H917 0.930 . S
C923 C919 1.400 . S
C923 C922 1.385 . S
C924 C922 1.478 . S
C924 C926 1.381 . S
C924 C930 1.383 . S
C925 C921 1.495 . S
C925 H931 0.959 . S
C925 H932 0.961 . S
C925 H933 0.960 . S
C926 C924 1.381 . S
C926 C927 1.394 . S
C926 H934 0.930 . S
C927 C926 1.394 . S
C927 C928 1.383 . S
C927 H935 0.929 . S
C928 C927 1.383 . S
C928 C929 1.377 . S
C929 H913 0.870 1_554 S
C929 C928 1.377 . S
C929 C930 1.379 . S
C930 H914 0.931 . S
C930 C924 1.383 . S
C930 C929 1.379 . S
H931 C925 0.959 . S
H932 C925 0.961 . S
H933 C925 0.960 . S
H934 C926 0.930 . S
H935 C927 0.929 . S
H936 C944 0.929 . S
H937 C946 0.930 . S
H938 C948 0.930 . S
H939 C951 0.929 . S
H940 C954 0.930 . S
H941 C956 0.960 . S
H942 C956 0.960 . S
H943 C956 0.960 . S
C944 H936 0.929 . S
C944 C945 1.377 . S
C944 C946 1.384 . S
C945 C944 1.377 . S
C945 C951 1.390 . S
C946 H937 0.930 . S
C946 C944 1.384 . S
C946 C947 1.372 . S
C947 C946 1.372 . S
C947 C948 1.400 . S
C947 C952 1.490 . S
C948 H938 0.930 . S
C948 C947 1.400 . S
C948 C951 1.386 . S
H949 C965 0.930 . S
H950 C966 0.931 . S
C951 H939 0.929 . S
C951 C945 1.390 . S
C951 C948 1.386 . S
C952 C947 1.490 . S
C952 C954 1.395 . S
C952 C955 1.403 . S
H953 C959 0.930 . S
C954 H940 0.930 . S
C954 C952 1.395 . S
C954 C957 1.403 . S
C955 C952 1.403 . S
C955 C956 1.524 . S
C955 C959 1.400 . S
C956 H941 0.960 . S
C956 H942 0.960 . S
C956 H943 0.960 . S
C956 C955 1.524 . S
C957 C954 1.403 . S
C957 C958 1.392 . S
C957 C961 1.495 . S
C958 C957 1.392 . S
C958 C959 1.385 . S
C958 C960 1.478 . S
C959 H953 0.930 . S
C959 C955 1.400 . S
C959 C958 1.385 . S
C960 C958 1.478 . S
C960 C962 1.381 . S
C960 C966 1.383 . S
C961 C957 1.495 . S
C961 H967 0.959 . S
C961 H968 0.961 . S
C961 H969 0.960 . S
C962 C960 1.381 . S
C962 C963 1.394 . S
C962 H970 0.930 . S
C963 C962 1.394 . S
C963 C964 1.383 . S
C963 H971 0.929 . S
C964 C963 1.383 . S
C964 C965 1.377 . S
C965 H949 0.930 . S
C965 C964 1.377 . S
C965 C966 1.379 . S
C966 H950 0.931 . S
C966 C960 1.383 . S
C966 C965 1.379 . S
H967 C961 0.959 . S
H968 C961 0.961 . S
H969 C961 0.960 . S
H970 C962 0.930 . S
H971 C963 0.929 . S
H972 C980 0.929 . S
H973 C982 0.930 . S
H974 C984 0.930 . S
H975 C987 0.929 . S
H976 C990 0.930 . S
H977 C992 0.960 . S
H978 C992 0.960 . S
H979 C992 0.960 . S
C980 H972 0.929 . S
C980 C981 1.377 . S
C980 C982 1.384 . S
C981 C980 1.377 . S
C981 C987 1.390 . S
C982 H973 0.930 . S
C982 C980 1.384 . S
C982 C983 1.372 . S
C983 C982 1.372 . S
C983 C984 1.400 . S
C983 C988 1.490 . S
C984 H974 0.930 . S
C984 C983 1.400 . S
C984 C987 1.386 . S
H985 C1001 0.930 . S
H986 C1002 0.931 . S
C987 H975 0.929 . S
C987 C981 1.390 . S
C987 C984 1.386 . S
C988 C983 1.490 . S
C988 C990 1.395 . S
C988 C991 1.403 . S
H989 C995 0.930 . S
C990 H976 0.930 . S
C990 C988 1.395 . S
C990 C993 1.403 . S
C991 C988 1.403 . S
C991 C992 1.524 . S
C991 C995 1.400 . S
C992 H977 0.960 . S
C992 H978 0.960 . S
C992 H979 0.960 . S
C992 C991 1.524 . S
C993 C990 1.403 . S
C993 C994 1.392 . S
C993 C997 1.495 . S
C994 C993 1.392 . S
C994 C995 1.385 . S
C994 C996 1.478 . S
C995 H989 0.930 . S
C995 C991 1.400 . S
C995 C994 1.385 . S
C996 C994 1.478 . S
C996 C998 1.381 . S
C996 C1002 1.383 . S
C997 C993 1.495 . S
C997 H1003 0.959 . S
C997 H1004 0.961 . S
C997 H1005 0.960 . S
C998 C996 1.381 . S
C998 C999 1.394 . S
C998 H1006 0.930 1_554 S
C999 C998 1.394 . S
C999 C1000 1.383 . S
C999 H1007 0.929 1_554 S
C1000 C999 1.383 . S
C1000 C1001 1.377 . S
C1001 H985 0.930 . S
C1001 C1000 1.377 . S
C1001 C1002 1.379 . S
C1002 H986 0.931 . S
C1002 C996 1.383 . S
C1002 C1001 1.379 . S
H1003 C997 0.959 . S
H1004 C997 0.961 . S
H1005 C997 0.960 . S
H1006 C998 0.930 1_556 S
H1007 C999 0.929 1_556 S
H1008 C1016 0.929 . S
H1009 C1018 0.930 . S
H1010 C1020 0.930 . S
H1011 C1023 0.929 . S
H1012 C1026 0.930 . S
H1013 C1028 0.960 . S
H1014 C1028 0.960 . S
H1015 C1028 0.960 . S
C1016 H1008 0.929 . S
C1016 C1017 1.377 . S
C1016 C1018 1.384 . S
C1017 C1016 1.377 . S
C1017 C1023 1.390 . S
C1018 H1009 0.930 . S
C1018 C1016 1.384 . S
C1018 C1019 1.372 . S
C1019 C1018 1.372 . S
C1019 C1020 1.400 . S
C1019 C1024 1.490 . S
C1020 H1010 0.930 . S
C1020 C1019 1.400 . S
C1020 C1023 1.386 . S
H1021 C1037 0.930 . S
H1022 C1038 0.931 . S
C1023 H1011 0.929 . S
C1023 C1017 1.390 . S
C1023 C1020 1.386 . S
C1024 C1019 1.490 . S
C1024 C1026 1.395 . S
C1024 C1027 1.403 . S
H1025 C1031 0.930 . S
C1026 H1012 0.930 . S
C1026 C1024 1.395 . S
C1026 C1029 1.366 1_655 S
C1027 C1024 1.403 . S
C1027 C1028 1.524 . S
C1027 C1031 1.400 1_655 S
C1028 H1013 0.960 . S
C1028 H1014 0.960 . S
C1028 H1015 0.960 . S
C1028 C1027 1.524 . S
C1029 C1026 1.366 1_455 S
C1029 C1030 1.449 . S
C1029 C1033 1.477 . S
C1030 C1029 1.449 . S
C1030 C1031 1.385 . S
C1030 C1032 1.478 . S
C1031 H1025 0.930 . S
C1031 C1027 1.400 1_455 S
C1031 C1030 1.385 . S
C1032 C1030 1.478 . S
C1032 C1034 1.381 . S
C1032 C1038 1.383 . S
C1033 C1029 1.477 . S
C1033 H1039 0.959 1_455 S
C1033 H1040 0.961 . S
C1033 H1041 0.960 . S
C1034 C1032 1.381 . S
C1034 C1035 1.394 . S
C1034 H1042 0.930 . S
C1035 C1034 1.394 . S
C1035 C1036 1.383 . S
C1035 H1043 0.929 . S
C1036 C1035 1.383 . S
C1036 C1037 1.377 . S
C1037 H1021 0.930 . S
C1037 C1036 1.377 . S
C1037 C1038 1.379 . S
C1038 H1022 0.931 . S
C1038 C1032 1.383 . S
C1038 C1037 1.379 . S
H1039 C1033 0.959 1_655 S
H1040 C1033 0.961 . S
H1041 C1033 0.960 . S
H1042 C1034 0.930 . S
H1043 C1035 0.929 . S
H1044 C1052 0.929 . S
H1045 C1054 0.930 . S
H1046 C1056 0.930 . S
H1047 C1059 0.929 . S
H1048 C1062 0.930 . S
H1049 C1064 0.960 . S
H1050 C1064 0.960 . S
H1051 C1064 0.960 . S
C1052 H1044 0.929 . S
C1052 C1053 1.377 . S
C1052 C1054 1.384 . S
C1053 C1052 1.377 . S
C1053 C1059 1.390 . S
C1054 H1045 0.930 . S
C1054 C1052 1.384 . S
C1054 C1055 1.372 . S
C1055 C1054 1.372 . S
C1055 C1056 1.400 . S
C1055 C1060 1.490 . S
C1056 H1046 0.930 . S
C1056 C1055 1.400 . S
C1056 C1059 1.386 . S
H1057 C1073 0.930 . S
H1058 C1074 0.931 . S
C1059 H1047 0.929 . S
C1059 C1053 1.390 . S
C1059 C1056 1.386 . S
C1060 C1055 1.490 . S
C1060 C1062 1.395 . S
C1060 C1063 1.403 . S
H1061 C1067 0.930 . S
C1062 H1048 0.930 . S
C1062 C1060 1.395 . S
C1062 C1065 1.403 . S
C1063 C1060 1.403 . S
C1063 C1064 1.524 . S
C1063 C1067 1.400 . S
C1064 H1049 0.960 . S
C1064 H1050 0.960 . S
C1064 H1051 0.960 . S
C1064 C1063 1.524 . S
C1065 C1062 1.403 . S
C1065 C1066 1.392 . S
C1065 C1069 1.495 . S
C1066 C1065 1.392 . S
C1066 C1067 1.385 . S
C1066 C1068 1.478 . S
C1067 H1061 0.930 . S
C1067 C1063 1.400 . S
C1067 C1066 1.385 . S
C1068 C1066 1.478 . S
C1068 C1070 1.381 . S
C1068 C1074 1.383 . S
C1069 C1065 1.495 . S
C1069 H1075 0.959 . S
C1069 H1076 0.961 . S
C1069 H1077 0.960 . S
C1070 C1068 1.381 . S
C1070 C1071 1.394 . S
C1070 H1078 0.930 . S
C1071 C1070 1.394 . S
C1071 C1072 1.383 . S
C1071 H1079 0.929 . S
C1072 C1071 1.383 . S
C1072 C1073 1.377 . S
C1073 H1057 0.930 . S
C1073 C1072 1.377 . S
C1073 C1074 1.379 . S
C1074 H1058 0.931 . S
C1074 C1068 1.383 . S
C1074 C1073 1.379 . S
H1075 C1069 0.959 . S
H1076 C1069 0.961 . S
H1077 C1069 0.960 . S
H1078 C1070 0.930 . S
H1079 C1071 0.929 . S
H1080 C1088 0.929 . S
H1081 C1090 0.930 . S
H1082 C1092 0.930 . S
H1083 C1095 0.929 . S
H1084 C1098 0.930 . S
H1085 C1100 0.960 . S
H1086 C1100 0.960 . S
H1087 C1100 0.960 . S
C1088 H1080 0.929 . S
C1088 C1089 1.377 . S
C1088 C1090 1.384 . S
C1089 C1088 1.377 . S
C1089 C1095 1.390 . S
C1090 H1081 0.930 . S
C1090 C1088 1.384 . S
C1090 C1091 1.372 . S
C1091 C1090 1.372 . S
C1091 C1092 1.400 . S
C1091 C1096 1.490 . S
C1092 H1082 0.930 . S
C1092 C1091 1.400 . S
C1092 C1095 1.386 . S
H1093 C1109 0.930 . S
H1094 C1110 0.931 . S
C1095 H1083 0.929 . S
C1095 C1089 1.390 . S
C1095 C1092 1.386 . S
C1096 C1091 1.490 . S
C1096 C1098 1.395 . S
C1096 C1099 1.403 . S
H1097 C1103 0.930 . S
C1098 H1084 0.930 . S
C1098 C1096 1.395 . S
C1098 C1101 1.403 . S
C1099 C1096 1.403 . S
C1099 C1100 1.524 . S
C1099 C1103 1.400 . S
C1100 H1085 0.960 . S
C1100 H1086 0.960 . S
C1100 H1087 0.960 . S
C1100 C1099 1.524 . S
C1101 C1098 1.403 . S
C1101 C1102 1.392 1_545 S
C1101 C1105 1.495 1_545 S
C1102 C1101 1.392 1_565 S
C1102 C1103 1.385 1_565 S
C1102 C1104 1.478 . S
C1103 H1097 0.930 . S
C1103 C1099 1.400 . S
C1103 C1102 1.385 1_545 S
C1104 C1102 1.478 . S
C1104 C1106 1.381 . S
C1104 C1110 1.383 . S
C1105 C1101 1.495 1_565 S
C1105 H1111 0.959 . S
C1105 H1112 0.961 . S
C1105 H1113 0.960 . S
C1106 C1104 1.381 . S
C1106 C1107 1.394 . S
C1106 H1114 0.930 . S
C1107 C1106 1.394 . S
C1107 C1108 1.383 . S
C1107 H1115 0.929 . S
C1108 C1107 1.383 . S
C1108 C1109 1.377 . S
C1109 H1093 0.930 . S
C1109 C1108 1.377 . S
C1109 C1110 1.379 . S
C1110 H1094 0.931 . S
C1110 C1104 1.383 . S
C1110 C1109 1.379 . S
H1111 C1105 0.959 . S
H1112 C1105 0.961 . S
H1113 C1105 0.960 . S
H1114 C1106 0.930 . S
H1115 C1107 0.929 . S
H1116 C1124 0.929 . S
H1117 C1126 0.930 . S
H1118 C1128 0.930 . S
H1119 C1131 0.929 . S
H1120 C1134 0.930 . S
H1121 C1136 0.960 . S
H1122 C1136 0.960 . S
H1123 C1136 0.960 . S
C1124 H1116 0.929 . S
C1124 C1125 1.377 . S
C1124 C1126 1.384 . S
C1125 C1124 1.377 . S
C1125 C1131 1.390 . S
C1126 H1117 0.930 . S
C1126 C1124 1.384 . S
C1126 C1127 1.372 . S
C1127 C1126 1.372 . S
C1127 C1128 1.400 . S
C1127 C1132 1.490 . S
C1128 H1118 0.930 . S
C1128 C1127 1.400 . S
C1128 C1131 1.386 . S
H1129 C1145 0.930 . S
H1130 C1146 0.931 . S
C1131 H1119 0.929 . S
C1131 C1125 1.390 . S
C1131 C1128 1.386 . S
C1132 C1127 1.490 . S
C1132 C1134 1.395 . S
C1132 C1135 1.403 . S
H1133 C1139 0.930 . S
C1134 H1120 0.930 . S
C1134 C1132 1.395 . S
C1134 C1137 1.403 . S
C1135 C1132 1.403 . S
C1135 C1136 1.524 . S
C1135 C1139 1.400 . S
C1136 H1121 0.960 . S
C1136 H1122 0.960 . S
C1136 H1123 0.960 . S
C1136 C1135 1.524 . S
C1137 C1134 1.403 . S
C1137 C1138 1.392 . S
C1137 C1141 1.495 . S
C1138 C1137 1.392 . S
C1138 C1139 1.385 . S
C1138 C1140 1.478 . S
C1139 H1133 0.930 . S
C1139 C1135 1.400 . S
C1139 C1138 1.385 . S
C1140 C1138 1.478 . S
C1140 C1142 1.381 . S
C1140 C1146 1.383 . S
C1141 C1137 1.495 . S
C1141 H1147 0.959 . S
C1141 H1148 0.961 . S
C1141 H1149 0.960 . S
C1142 C1140 1.381 . S
C1142 C1143 1.394 . S
C1142 H1150 0.930 . S
C1143 C1142 1.394 . S
C1143 C1144 1.383 . S
C1143 H1151 0.929 . S
C1144 C1143 1.383 . S
C1144 C1145 1.377 . S
C1145 H1129 0.930 . S
C1145 C1144 1.377 . S
C1145 C1146 1.379 . S
C1146 H1130 0.931 . S
C1146 C1140 1.383 . S
C1146 C1145 1.379 . S
H1147 C1141 0.959 . S
H1148 C1141 0.961 . S
H1149 C1141 0.960 . S
H1150 C1142 0.930 . S
H1151 C1143 0.929 . S
H1152 C1160 0.929 . S
H1153 C1162 0.930 . S
H1154 C1164 0.930 . S
H1155 C1167 0.929 . S
H1156 C1170 0.930 . S
H1157 C1172 0.960 . S
H1158 C1172 0.960 . S
H1159 C1172 0.960 . S
C1160 H1152 0.929 . S
C1160 C1161 1.377 . S
C1160 C1162 1.384 . S
C1161 C1160 1.377 . S
C1161 C1167 1.390 . S
C1162 H1153 0.930 . S
C1162 C1160 1.384 . S
C1162 C1163 1.372 . S
C1163 C1162 1.372 . S
C1163 C1164 1.400 . S
C1163 C1168 1.490 . S
C1164 H1154 0.930 . S
C1164 C1163 1.400 . S
C1164 C1167 1.386 . S
H1165 C1181 0.930 . S
H1166 C1182 0.931 . S
C1167 H1155 0.929 . S
C1167 C1161 1.390 . S
C1167 C1164 1.386 . S
C1168 C1163 1.490 . S
C1168 C1170 1.395 . S
C1168 C1171 1.403 . S
H1169 C1175 0.930 . S
C1170 H1156 0.930 . S
C1170 C1168 1.395 . S
C1170 C1173 1.403 . S
C1171 C1168 1.403 . S
C1171 C1172 1.524 . S
C1171 C1175 1.400 . S
C1172 H1157 0.960 . S
C1172 H1158 0.960 . S
C1172 H1159 0.960 . S
C1172 C1171 1.524 . S
C1173 C1170 1.403 . S
C1173 C1174 1.392 . S
C1173 C1177 1.495 . S
C1174 C1173 1.392 . S
C1174 C1175 1.385 . S
C1174 C1176 1.478 . S
C1175 H1169 0.930 . S
C1175 C1171 1.400 . S
C1175 C1174 1.385 . S
C1176 C1174 1.478 . S
C1176 C1178 1.381 . S
C1176 C1182 1.383 . S
C1177 C1173 1.495 . S
C1177 H1183 0.959 . S
C1177 H1184 0.961 . S
C1177 H1185 0.960 . S
C1178 C1176 1.381 . S
C1178 C1179 1.394 . S
C1178 H1186 0.930 . S
C1179 C1178 1.394 . S
C1179 C1180 1.383 . S
C1179 H1187 0.929 . S
C1180 C1179 1.383 . S
C1180 C1181 1.377 . S
C1181 H1165 0.930 . S
C1181 C1180 1.377 . S
C1181 C1182 1.379 . S
C1182 H1166 0.931 . S
C1182 C1176 1.383 . S
C1182 C1181 1.379 . S
H1183 C1177 0.959 . S
H1184 C1177 0.961 . S
H1185 C1177 0.960 . S
H1186 C1178 0.930 . S
H1187 C1179 0.929 . S
H1188 C1196 0.929 . S
H1189 C1198 0.930 . S
H1190 C1200 0.930 . S
H1191 C1203 0.929 . S
H1192 C1206 0.930 . S
H1193 C1208 0.960 . S
H1194 C1208 0.960 . S
H1195 C1208 0.960 . S
C1196 H1188 0.929 . S
C1196 C1197 1.377 . S
C1196 C1198 1.384 . S
C1197 C1196 1.377 . S
C1197 C1203 1.390 . S
C1198 H1189 0.930 . S
C1198 C1196 1.384 . S
C1198 C1199 1.372 . S
C1199 C1198 1.372 . S
C1199 C1200 1.400 . S
C1199 C1204 1.490 . S
C1200 H1190 0.930 . S
C1200 C1199 1.400 . S
C1200 C1203 1.386 . S
H1201 C1217 0.930 . S
H1202 C1218 0.931 . S
C1203 H1191 0.929 . S
C1203 C1197 1.390 . S
C1203 C1200 1.386 . S
C1204 C1199 1.490 . S
C1204 C1206 1.395 . S
C1204 C1207 1.403 . S
H1205 C1211 0.930 . S
C1206 H1192 0.930 . S
C1206 C1204 1.395 . S
C1206 C1209 1.403 . S
C1207 C1204 1.403 . S
C1207 C1208 1.524 . S
C1207 C1211 1.400 . S
C1208 H1193 0.960 . S
C1208 H1194 0.960 . S
C1208 H1195 0.960 . S
C1208 C1207 1.524 . S
C1209 C1206 1.403 . S
C1209 C1210 1.392 . S
C1209 C1213 1.495 . S
C1210 C1209 1.392 . S
C1210 C1211 1.385 . S
C1210 C1212 1.478 . S
C1211 H1205 0.930 . S
C1211 C1207 1.400 . S
C1211 C1210 1.385 . S
C1212 C1210 1.478 . S
C1212 C1214 1.381 . S
C1212 C1218 1.383 . S
C1213 C1209 1.495 . S
C1213 H1219 0.959 . S
C1213 H1220 0.961 . S
C1213 H1221 0.960 . S
C1214 C1212 1.381 . S
C1214 C1215 1.394 . S
C1214 H1222 0.930 . S
C1215 C1214 1.394 . S
C1215 C1216 1.383 . S
C1215 H1223 0.929 . S
C1216 C1215 1.383 . S
C1216 C1217 1.377 . S
C1217 H1201 0.930 . S
C1217 C1216 1.377 . S
C1217 C1218 1.379 . S
C1218 H1202 0.931 . S
C1218 C1212 1.383 . S
C1218 C1217 1.379 . S
H1219 C1213 0.959 . S
H1220 C1213 0.961 . S
H1221 C1213 0.960 . S
H1222 C1214 0.930 . S
H1223 C1215 0.929 . S
H1224 C1232 0.929 . S
H1225 C1234 0.930 . S
H1226 C1236 0.930 . S
H1227 C1239 0.929 . S
H1228 C1242 0.930 . S
H1229 C1244 0.960 . S
H1230 C1244 0.960 . S
H1231 C1244 0.960 . S
C1232 H1224 0.929 . S
C1232 C1233 1.377 . S
C1232 C1234 1.384 . S
C1233 C1232 1.377 . S
C1233 C1239 1.390 . S
C1234 H1225 0.930 . S
C1234 C1232 1.384 . S
C1234 C1235 1.372 . S
C1235 C1234 1.372 . S
C1235 C1236 1.400 . S
C1235 C1240 1.490 . S
C1236 H1226 0.930 . S
C1236 C1235 1.400 . S
C1236 C1239 1.386 . S
H1237 C1253 0.930 . S
H1238 C1254 0.931 . S
C1239 H1227 0.929 . S
C1239 C1233 1.390 . S
C1239 C1236 1.386 . S
C1240 C1235 1.490 . S
C1240 C1242 1.395 . S
C1240 C1243 1.403 . S
H1241 C1247 0.930 . S
C1242 H1228 0.930 . S
C1242 C1240 1.395 . S
C1242 C1245 1.403 . S
C1243 C1240 1.403 . S
C1243 C1244 1.524 . S
C1243 C1247 1.400 . S
C1244 H1229 0.960 . S
C1244 H1230 0.960 . S
C1244 H1231 0.960 . S
C1244 C1243 1.524 . S
C1245 C1242 1.403 . S
C1245 C1246 1.392 . S
C1245 C1249 1.495 . S
C1246 C1245 1.392 . S
C1246 C1247 1.385 . S
C1246 C1248 1.478 . S
C1247 H1241 0.930 . S
C1247 C1243 1.400 . S
C1247 C1246 1.385 . S
C1248 C1246 1.478 . S
C1248 C1250 1.381 . S
C1248 C1254 1.383 . S
C1249 C1245 1.495 . S
C1249 H1255 0.959 . S
C1249 H1256 0.961 . S
C1249 H1257 0.960 . S
C1250 C1248 1.381 . S
C1250 C1251 1.394 . S
C1250 H1258 0.930 . S
C1251 C1250 1.394 . S
C1251 C1252 1.383 . S
C1251 H1259 0.929 . S
C1252 C1251 1.383 . S
C1252 C1253 1.377 . S
C1253 H1237 0.930 . S
C1253 C1252 1.377 . S
C1253 C1254 1.379 . S
C1254 H1238 0.931 . S
C1254 C1248 1.383 . S
C1254 C1253 1.379 . S
H1255 C1249 0.959 . S
H1256 C1249 0.961 . S
H1257 C1249 0.960 . S
H1258 C1250 0.930 . S
H1259 C1251 0.929 . S
H1260 C1268 0.929 . S
H1261 C1270 0.930 . S
H1262 C1272 0.930 . S
H1263 C1275 0.929 . S
H1264 C1278 0.930 . S
H1265 C1280 0.960 . S
H1266 C1280 0.960 . S
H1267 C1280 0.960 . S
C1268 H1260 0.929 . S
C1268 C1269 1.377 . S
C1268 C1270 1.384 . S
C1269 C1268 1.377 . S
C1269 C1275 1.390 . S
C1270 H1261 0.930 . S
C1270 C1268 1.384 . S
C1270 C1271 1.372 . S
C1271 C1270 1.372 . S
C1271 C1272 1.400 . S
C1271 C1276 1.490 . S
C1272 H1262 0.930 . S
C1272 C1271 1.400 . S
C1272 C1275 1.386 . S
H1273 C1289 0.930 . S
H1274 C1290 0.931 . S
C1275 H1263 0.929 . S
C1275 C1269 1.390 . S
C1275 C1272 1.386 . S
C1276 C1271 1.490 . S
C1276 C1278 1.395 . S
C1276 C1279 1.403 . S
H1277 C1283 0.930 . S
C1278 H1264 0.930 . S
C1278 C1276 1.395 . S
C1278 C1281 1.403 . S
C1279 C1276 1.403 . S
C1279 C1280 1.524 . S
C1279 C1283 1.400 . S
C1280 H1265 0.960 . S
C1280 H1266 0.960 . S
C1280 H1267 0.960 . S
C1280 C1279 1.524 . S
C1281 C1278 1.403 . S
C1281 C1282 1.392 . S
C1281 C1285 1.495 . S
C1282 C1281 1.392 . S
C1282 C1283 1.385 . S
C1282 C1284 1.478 . S
C1283 H1277 0.930 . S
C1283 C1279 1.400 . S
C1283 C1282 1.385 . S
C1284 C1282 1.478 . S
C1284 C1286 1.381 . S
C1284 C1290 1.383 . S
C1285 C1281 1.495 . S
C1285 H1291 0.959 . S
C1285 H1292 0.961 . S
C1285 H1293 0.960 . S
C1286 C1284 1.381 . S
C1286 C1287 1.394 . S
C1286 H1294 0.930 . S
C1287 C1286 1.394 . S
C1287 C1288 1.383 . S
C1287 H1295 0.929 . S
C1288 C1287 1.383 . S
C1288 C1289 1.377 . S
C1289 H1273 0.930 . S
C1289 C1288 1.377 . S
C1289 C1290 1.379 . S
C1290 H1274 0.931 . S
C1290 C1284 1.383 . S
C1290 C1289 1.379 . S
H1291 C1285 0.959 . S
H1292 C1285 0.961 . S
H1293 C1285 0.960 . S
H1294 C1286 0.930 . S
H1295 C1287 0.929 . S
H1296 C1304 0.929 . S
H1297 C1306 0.930 . S
H1298 C1308 0.930 . S
H1299 C1311 0.929 . S
H1300 C1314 0.930 . S
H1301 C1316 0.960 . S
H1302 C1316 0.960 . S
H1303 C1316 0.960 . S
C1304 H1296 0.929 . S
C1304 C1305 1.377 . S
C1304 C1306 1.384 . S
C1305 C1304 1.377 . S
C1305 C1311 1.390 . S
C1306 H1297 0.930 . S
C1306 C1304 1.384 . S
C1306 C1307 1.372 . S
C1307 C1306 1.372 . S
C1307 C1308 1.400 . S
C1307 C1312 1.490 . S
C1308 H1298 0.930 . S
C1308 C1307 1.400 . S
C1308 C1311 1.386 . S
H1309 C1325 0.930 . S
H1310 C1326 0.931 . S
C1311 H1299 0.929 . S
C1311 C1305 1.390 . S
C1311 C1308 1.386 . S
C1312 C1307 1.490 . S
C1312 C1314 1.395 . S
C1312 C1315 1.403 . S
H1313 C1319 0.930 . S
C1314 H1300 0.930 . S
C1314 C1312 1.395 . S
C1314 C1317 1.403 . S
C1315 C1312 1.403 . S
C1315 C1316 1.524 . S
C1315 C1319 1.400 . S
C1316 H1301 0.960 . S
C1316 H1302 0.960 . S
C1316 H1303 0.960 . S
C1316 C1315 1.524 . S
C1317 C1314 1.403 . S
C1317 C1318 1.392 . S
C1317 C1321 1.495 . S
C1318 C1317 1.392 . S
C1318 C1319 1.385 . S
C1318 C1320 1.478 . S
C1319 H1313 0.930 . S
C1319 C1315 1.400 . S
C1319 C1318 1.385 . S
C1320 C1318 1.478 . S
C1320 C1322 1.381 . S
C1320 C1326 1.383 . S
C1321 C1317 1.495 . S
C1321 H1327 0.959 . S
C1321 H1328 0.961 . S
C1321 H1329 0.960 . S
C1322 C1320 1.381 . S
C1322 C1323 1.394 . S
C1322 H1330 0.930 . S
C1323 C1322 1.394 . S
C1323 C1324 1.383 . S
C1323 H1331 0.929 . S
C1324 C1323 1.383 . S
C1324 C1325 1.377 . S
C1325 H1309 0.930 . S
C1325 C1324 1.377 . S
C1325 C1326 1.379 . S
C1326 H1310 0.931 . S
C1326 C1320 1.383 . S
C1326 C1325 1.379 . S
H1327 C1321 0.959 . S
H1328 C1321 0.961 . S
H1329 C1321 0.960 . S
H1330 C1322 0.930 . S
H1331 C1323 0.929 . S
H1332 C1340 0.929 . S
H1333 C1342 0.930 . S
H1334 C1344 0.930 . S
H1335 C1347 0.929 . S
H1336 C1350 0.930 . S
H1337 C1352 0.960 . S
H1338 C1352 0.960 . S
H1339 C1352 0.960 . S
C1340 H1332 0.929 . S
C1340 C1341 1.377 . S
C1340 C1342 1.384 . S
C1341 C1340 1.377 . S
C1341 C1347 1.390 . S
C1342 H1333 0.930 . S
C1342 C1340 1.384 . S
C1342 C1343 1.372 . S
C1343 C1342 1.372 . S
C1343 C1344 1.400 . S
C1343 C1348 1.490 1_545 S
C1344 H1334 0.930 . S
C1344 C1343 1.400 . S
C1344 C1347 1.386 . S
H1345 C1361 0.930 . S
H1346 C1362 0.931 . S
C1347 H1335 0.929 . S
C1347 C1341 1.390 . S
C1347 C1344 1.386 . S
C1348 C1343 1.490 1_565 S
C1348 C1350 1.395 . S
C1348 C1351 1.403 . S
H1349 C1355 0.930 . S
C1350 H1336 0.930 . S
C1350 C1348 1.395 . S
C1350 C1353 1.403 . S
C1351 C1348 1.403 . S
C1351 C1352 1.524 . S
C1351 C1355 1.400 . S
C1352 H1337 0.960 . S
C1352 H1338 0.960 . S
C1352 H1339 0.960 . S
C1352 C1351 1.524 . S
C1353 C1350 1.403 . S
C1353 C1354 1.392 . S
C1353 C1357 1.495 . S
C1354 C1353 1.392 . S
C1354 C1355 1.385 . S
C1354 C1356 1.478 . S
C1355 H1349 0.930 . S
C1355 C1351 1.400 . S
C1355 C1354 1.385 . S
C1356 C1354 1.478 . S
C1356 C1358 1.381 . S
C1356 C1362 1.383 . S
C1357 C1353 1.495 . S
C1357 H1363 0.959 . S
C1357 H1364 0.961 . S
C1357 H1365 0.960 . S
C1358 C1356 1.381 . S
C1358 C1359 1.394 . S
C1358 H1366 0.930 . S
C1359 C1358 1.394 . S
C1359 C1360 1.383 . S
C1359 H1367 0.929 . S
C1360 C1359 1.383 . S
C1360 C1361 1.377 . S
C1361 H1345 0.930 . S
C1361 C1360 1.377 . S
C1361 C1362 1.379 . S
C1362 H1346 0.931 . S
C1362 C1356 1.383 . S
C1362 C1361 1.379 . S
H1363 C1357 0.959 . S
H1364 C1357 0.961 . S
H1365 C1357 0.960 . S
H1366 C1358 0.930 . S
H1367 C1359 0.929 . S
H1368 C1376 0.929 . S
H1369 C1378 0.930 . S
H1370 C1380 0.930 . S
H1371 C1383 0.929 . S
H1372 C1386 0.930 . S
H1373 C1388 0.960 . S
H1374 C1388 0.960 . S
H1375 C1388 0.960 . S
C1376 H1368 0.929 . S
C1376 C1377 1.377 . S
C1376 C1378 1.384 1_655 S
C1377 C1376 1.377 . S
C1377 C1383 1.390 . S
C1378 H1369 0.930 . S
C1378 C1376 1.384 1_455 S
C1378 C1379 1.372 . S
C1379 C1378 1.372 . S
C1379 C1380 1.400 1_455 S
C1379 C1384 1.490 . S
C1380 H1370 0.930 . S
C1380 C1379 1.400 1_655 S
C1380 C1383 1.386 . S
H1381 C1397 0.930 . S
H1382 C1398 0.931 . S
C1383 H1371 0.929 . S
C1383 C1377 1.390 . S
C1383 C1380 1.386 . S
C1384 C1379 1.490 . S
C1384 C1386 1.395 . S
C1384 C1387 1.403 . S
H1385 C1391 0.930 . S
C1386 H1372 0.930 . S
C1386 C1384 1.395 . S
C1386 C1389 1.403 . S
C1387 C1384 1.403 . S
C1387 C1388 1.524 . S
C1387 C1391 1.400 . S
C1388 H1373 0.960 . S
C1388 H1374 0.960 . S
C1388 H1375 0.960 . S
C1388 C1387 1.524 . S
C1389 C1386 1.403 . S
C1389 C1390 1.392 . S
C1389 C1393 1.495 . S
C1390 C1389 1.392 . S
C1390 C1391 1.385 . S
C1390 C1392 1.478 . S
C1391 H1385 0.930 . S
C1391 C1387 1.400 . S
C1391 C1390 1.385 . S
C1392 C1390 1.478 . S
C1392 C1394 1.381 . S
C1392 C1398 1.383 . S
C1393 C1389 1.495 . S
C1393 H1399 0.959 . S
C1393 H1400 0.961 . S
C1393 H1401 0.960 . S
C1394 C1392 1.381 . S
C1394 C1395 1.394 . S
C1394 H1402 0.930 . S
C1395 C1394 1.394 . S
C1395 C1396 1.383 . S
C1395 H1403 0.929 . S
C1396 C1395 1.383 . S
C1396 C1397 1.377 . S
C1397 H1381 0.930 . S
C1397 C1396 1.377 . S
C1397 C1398 1.379 . S
C1398 H1382 0.931 . S
C1398 C1392 1.383 . S
C1398 C1397 1.379 . S
H1399 C1393 0.959 . S
H1400 C1393 0.961 . S
H1401 C1393 0.960 . S
H1402 C1394 0.930 . S
H1403 C1395 0.929 . S
H1404 C1412 0.929 . S
H1405 C1414 0.930 . S
H1406 C1416 0.930 . S
H1407 C1419 0.929 . S
H1408 C1422 0.930 . S
H1409 C1424 0.960 . S
H1410 C1424 0.960 . S
H1411 C1424 0.960 . S
C1412 H1404 0.929 . S
C1412 C1413 1.377 . S
C1412 C1414 1.384 . S
C1413 C1412 1.377 . S
C1413 C1419 1.390 . S
C1414 H1405 0.930 . S
C1414 C1412 1.384 . S
C1414 C1415 1.372 . S
C1415 C1414 1.372 . S
C1415 C1416 1.400 . S
C1415 C1420 1.490 . S
C1416 H1406 0.930 . S
C1416 C1415 1.400 . S
C1416 C1419 1.386 . S
H1417 C1433 0.930 . S
H1418 C1434 0.931 . S
C1419 H1407 0.929 . S
C1419 C1413 1.390 . S
C1419 C1416 1.386 . S
C1420 C1415 1.490 . S
C1420 C1422 1.395 . S
C1420 C1423 1.403 . S
H1421 C1427 0.930 . S
C1422 H1408 0.930 . S
C1422 C1420 1.395 . S
C1422 C1425 1.403 . S
C1423 C1420 1.403 . S
C1423 C1424 1.524 . S
C1423 C1427 1.400 . S
C1424 H1409 0.960 . S
C1424 H1410 0.960 . S
C1424 H1411 0.960 . S
C1424 C1423 1.524 . S
C1425 C1422 1.403 . S
C1425 C1426 1.392 . S
C1425 C1429 1.495 . S
C1426 C1425 1.392 . S
C1426 C1427 1.385 . S
C1426 C1428 1.478 . S
C1427 H1421 0.930 . S
C1427 C1423 1.400 . S
C1427 C1426 1.385 . S
C1428 C1426 1.478 . S
C1428 C1430 1.381 . S
C1428 C1434 1.383 . S
C1429 C1425 1.495 . S
C1429 H1435 0.959 . S
C1429 H1436 0.961 . S
C1429 H1437 0.960 . S
C1430 C1428 1.381 . S
C1430 C1431 1.394 . S
C1430 H1438 0.930 . S
C1431 C1430 1.394 . S
C1431 C1432 1.383 . S
C1431 H1439 0.929 . S
C1432 C1431 1.383 . S
C1432 C1433 1.377 . S
C1433 H1417 0.930 . S
C1433 C1432 1.377 . S
C1433 C1434 1.379 . S
C1434 H1418 0.931 . S
C1434 C1428 1.383 . S
C1434 C1433 1.379 . S
H1435 C1429 0.959 . S
H1436 C1429 0.961 . S
H1437 C1429 0.960 . S
H1438 C1430 0.930 . S
H1439 C1431 0.929 . S
H1440 C1448 0.929 . S
H1441 C1450 0.930 . S
H1442 C1452 0.930 . S
H1443 C1455 0.929 . S
H1444 C1458 0.930 . S
H1445 C1460 0.960 . S
H1446 C1460 0.960 . S
H1447 C1460 0.960 . S
C1448 H1440 0.929 . S
C1448 C1449 1.377 . S
C1448 C1450 1.384 . S
C1449 C1448 1.377 . S
C1449 C1455 1.390 . S
C1450 H1441 0.930 . S
C1450 C1448 1.384 . S
C1450 C1451 1.372 . S
C1451 C1450 1.372 . S
C1451 C1452 1.400 . S
C1451 C1456 1.490 . S
C1452 H1442 0.930 . S
C1452 C1451 1.400 . S
C1452 C1455 1.386 . S
H1453 C1469 0.930 . S
H1454 C1470 0.931 . S
C1455 H1443 0.929 . S
C1455 C1449 1.390 . S
C1455 C1452 1.386 . S
C1456 C1451 1.490 . S
C1456 C1458 1.395 . S
C1456 C1459 1.403 . S
H1457 C1463 0.930 . S
C1458 H1444 0.930 . S
C1458 C1456 1.395 . S
C1458 C1461 1.403 . S
C1459 C1456 1.403 . S
C1459 C1460 1.524 . S
C1459 C1463 1.400 . S
C1460 H1445 0.960 . S
C1460 H1446 0.960 . S
C1460 H1447 0.960 . S
C1460 C1459 1.524 . S
C1461 C1458 1.403 . S
C1461 C1462 1.392 . S
C1461 C1465 1.495 . S
C1462 C1461 1.392 . S
C1462 C1463 1.385 . S
C1462 C1464 1.478 . S
C1463 H1457 0.930 . S
C1463 C1459 1.400 . S
C1463 C1462 1.385 . S
C1464 C1462 1.478 . S
C1464 C1466 1.381 . S
C1464 C1470 1.383 . S
C1465 C1461 1.495 . S
C1465 H1471 0.959 . S
C1465 H1472 0.961 . S
C1465 H1473 0.960 . S
C1466 C1464 1.381 . S
C1466 C1467 1.394 . S
C1466 H1474 0.930 . S
C1467 C1466 1.394 . S
C1467 C1468 1.383 . S
C1467 H1475 0.929 . S
C1468 C1467 1.383 . S
C1468 C1469 1.377 . S
C1469 H1453 0.930 . S
C1469 C1468 1.377 . S
C1469 C1470 1.379 . S
C1470 H1454 0.931 . S
C1470 C1464 1.383 . S
C1470 C1469 1.379 . S
H1471 C1465 0.959 . S
H1472 C1465 0.961 . S
H1473 C1465 0.960 . S
H1474 C1466 0.930 . S
H1475 C1467 0.929 . S
H1476 C1484 0.929 . S
H1477 C1486 0.930 . S
H1478 C1488 0.930 . S
H1479 C1491 0.929 . S
H1480 C1494 0.930 . S
H1481 C1496 0.960 . S
H1482 C1496 0.960 . S
H1483 C1496 0.960 . S
C1484 H1476 0.929 . S
C1484 C1485 1.377 . S
C1484 C1486 1.384 . S
C1485 C1484 1.377 . S
C1485 C1491 1.390 . S
C1486 H1477 0.930 . S
C1486 C1484 1.384 . S
C1486 C1487 1.372 . S
C1487 C1486 1.372 . S
C1487 C1488 1.400 . S
C1487 C1492 1.490 . S
C1488 H1478 0.930 . S
C1488 C1487 1.400 . S
C1488 C1491 1.386 . S
H1489 C1505 0.930 . S
H1490 C1506 0.931 . S
C1491 H1479 0.929 . S
C1491 C1485 1.390 . S
C1491 C1488 1.386 . S
C1492 C1487 1.490 . S
C1492 C1494 1.395 . S
C1492 C1495 1.403 . S
H1493 C1499 0.930 . S
C1494 H1480 0.930 . S
C1494 C1492 1.395 . S
C1494 C1497 1.403 . S
C1495 C1492 1.403 . S
C1495 C1496 1.524 . S
C1495 C1499 1.400 . S
C1496 H1481 0.960 . S
C1496 H1482 0.960 . S
C1496 H1483 0.960 . S
C1496 C1495 1.524 . S
C1497 C1494 1.403 . S
C1497 C1498 1.392 . S
C1497 C1501 1.495 . S
C1498 C1497 1.392 . S
C1498 C1499 1.385 . S
C1498 C1500 1.478 . S
C1499 H1493 0.930 . S
C1499 C1495 1.400 . S
C1499 C1498 1.385 . S
C1500 C1498 1.478 . S
C1500 C1502 1.381 . S
C1500 C1506 1.383 . S
C1501 C1497 1.495 . S
C1501 H1507 0.959 . S
C1501 H1508 0.961 . S
C1501 H1509 0.960 . S
C1502 C1500 1.381 . S
C1502 C1503 1.394 . S
C1502 H1510 0.930 . S
C1503 C1502 1.394 . S
C1503 C1504 1.383 . S
C1503 H1511 0.929 . S
C1504 C1503 1.383 . S
C1504 C1505 1.377 . S
C1505 H1489 0.930 . S
C1505 C1504 1.377 . S
C1505 C1506 1.379 . S
C1506 H1490 0.931 . S
C1506 C1500 1.383 . S
C1506 C1505 1.379 . S
H1507 C1501 0.959 . S
H1508 C1501 0.961 . S
H1509 C1501 0.960 . S
H1510 C1502 0.930 . S
H1511 C1503 0.929 . S
H1512 C1520 0.929 . S
H1513 C1522 0.930 . S
H1514 C1524 0.930 . S
H1515 C1527 0.929 . S
H1516 C1530 0.930 . S
H1517 C1532 0.960 . S
H1518 C1532 0.960 . S
H1519 C1532 0.960 . S
C1520 H1512 0.929 . S
C1520 C1521 1.377 . S
C1520 C1522 1.384 . S
C1521 C1520 1.377 . S
C1521 C1527 1.390 . S
C1522 H1513 0.930 . S
C1522 C1520 1.384 . S
C1522 C1523 1.372 . S
C1523 C1522 1.372 . S
C1523 C1524 1.400 . S
C1523 C1528 1.490 . S
C1524 H1514 0.930 . S
C1524 C1523 1.400 . S
C1524 C1527 1.386 . S
H1525 C1541 0.930 . S
H1526 C1542 0.931 . S
C1527 H1515 0.929 . S
C1527 C1521 1.390 . S
C1527 C1524 1.386 . S
C1528 C1523 1.490 . S
C1528 C1530 1.395 . S
C1528 C1531 1.403 . S
H1529 C1535 0.930 . S
C1530 H1516 0.930 . S
C1530 C1528 1.395 . S
C1530 C1533 1.403 . S
C1531 C1528 1.403 . S
C1531 C1532 1.524 . S
C1531 C1535 1.400 . S
C1532 H1517 0.960 . S
C1532 H1518 0.960 . S
C1532 H1519 0.960 . S
C1532 C1531 1.524 . S
C1533 C1530 1.403 . S
C1533 C1534 1.392 . S
C1533 C1537 1.495 . S
C1534 C1533 1.392 . S
C1534 C1535 1.385 . S
C1534 C1536 1.478 . S
C1535 H1529 0.930 . S
C1535 C1531 1.400 . S
C1535 C1534 1.385 . S
C1536 C1534 1.478 . S
C1536 C1538 1.381 . S
C1536 C1542 1.383 . S
C1537 C1533 1.495 . S
C1537 H1543 0.959 . S
C1537 H1544 0.961 . S
C1537 H1545 0.960 . S
C1538 C1536 1.381 . S
C1538 C1539 1.394 . S
C1538 H1546 0.930 . S
C1539 C1538 1.394 . S
C1539 C1540 1.383 . S
C1539 H1547 0.929 . S
C1540 C1539 1.383 . S
C1540 C1541 1.377 . S
C1541 H1525 0.930 . S
C1541 C1540 1.377 . S
C1541 C1542 1.379 . S
C1542 H1526 0.931 . S
C1542 C1536 1.383 . S
C1542 C1541 1.379 . S
H1543 C1537 0.959 . S
H1544 C1537 0.961 . S
H1545 C1537 0.960 . S
H1546 C1538 0.930 . S
H1547 C1539 0.929 . S
H1548 C1556 0.929 . S
H1549 C1558 0.930 . S
H1550 C1560 0.930 . S
H1551 C1563 0.929 . S
H1552 C1566 0.930 . S
H1553 C1568 0.960 . S
H1554 C1568 0.960 . S
H1555 C1568 0.960 . S
C1556 H1548 0.929 . S
C1556 C1557 1.377 . S
C1556 C1558 1.384 . S
C1557 C1556 1.377 . S
C1557 C1563 1.390 . S
C1558 H1549 0.930 . S
C1558 C1556 1.384 . S
C1558 C1559 1.372 . S
C1559 C1558 1.372 . S
C1559 C1560 1.400 . S
C1559 C1564 1.490 . S
C1560 H1550 0.930 . S
C1560 C1559 1.400 . S
C1560 C1563 1.386 . S
H1561 C1577 0.930 . S
H1562 C1578 0.931 . S
C1563 H1551 0.929 . S
C1563 C1557 1.390 . S
C1563 C1560 1.386 . S
C1564 C1559 1.490 . S
C1564 C1566 1.395 . S
C1564 C1567 1.403 . S
H1565 C1571 0.930 . S
C1566 H1552 0.930 . S
C1566 C1564 1.395 . S
C1566 C1569 1.403 1_565 S
C1567 C1564 1.403 . S
C1567 C1568 1.524 . S
C1567 C1571 1.400 1_565 S
C1568 H1553 0.960 . S
C1568 H1554 0.960 . S
C1568 H1555 0.960 . S
C1568 C1567 1.524 . S
C1569 C1566 1.403 1_545 S
C1569 C1570 1.392 . S
C1569 C1573 1.495 . S
C1570 C1569 1.392 . S
C1570 C1571 1.385 . S
C1570 C1572 1.478 . S
C1571 H1565 0.930 . S
C1571 C1567 1.400 1_545 S
C1571 C1570 1.385 . S
C1572 C1570 1.478 . S
C1572 C1574 1.381 . S
C1572 C1578 1.383 . S
C1573 C1569 1.495 . S
C1573 H1579 0.959 . S
C1573 H1580 0.961 . S
C1573 H1581 0.960 . S
C1574 C1572 1.381 . S
C1574 C1575 1.394 . S
C1574 H1582 0.930 . S
C1575 C1574 1.394 . S
C1575 C1576 1.383 . S
C1575 H1583 0.929 . S
C1576 C1575 1.383 . S
C1576 C1577 1.377 . S
C1577 H1561 0.930 . S
C1577 C1576 1.377 . S
C1577 C1578 1.379 . S
C1578 H1562 0.931 . S
C1578 C1572 1.383 . S
C1578 C1577 1.379 . S
H1579 C1573 0.959 . S
H1580 C1573 0.961 . S
H1581 C1573 0.960 . S
H1582 C1574 0.930 . S
H1583 C1575 0.929 . S
H1584 C1592 0.929 . S
H1585 C1594 0.930 . S
H1586 C1596 0.930 . S
H1587 C1599 0.929 . S
H1588 C1602 0.930 . S
H1589 C1604 0.960 . S
H1590 C1604 0.928 1_455 S
H1591 C1604 0.960 1_455 S
C1592 H1584 0.929 . S
C1592 C1593 1.377 . S
C1592 C1594 1.384 . S
C1593 C1592 1.377 . S
C1593 C1599 1.390 . S
C1594 H1585 0.930 . S
C1594 C1592 1.384 . S
C1594 C1595 1.372 . S
C1595 C1594 1.372 . S
C1595 C1596 1.400 . S
C1595 C1600 1.490 . S
C1596 H1586 0.930 . S
C1596 C1595 1.400 . S
C1596 C1599 1.386 . S
H1597 C1613 0.930 . S
H1598 C1614 0.931 . S
C1599 H1587 0.929 . S
C1599 C1593 1.390 . S
C1599 C1596 1.386 . S
C1600 C1595 1.490 . S
C1600 C1602 1.395 . S
C1600 C1603 1.403 . S
H1601 C1607 0.930 . S
C1602 H1588 0.930 . S
C1602 C1600 1.395 . S
C1602 C1605 1.403 . S
C1603 C1600 1.403 . S
C1603 C1604 1.524 1_455 S
C1603 C1607 1.400 1_455 S
C1604 H1589 0.960 . S
C1604 H1590 0.928 1_655 S
C1604 H1591 0.960 1_655 S
C1604 C1603 1.524 1_655 S
C1605 C1602 1.403 . S
C1605 C1606 1.392 1_455 S
C1605 C1609 1.495 . S
C1606 C1605 1.392 1_655 S
C1606 C1607 1.385 . S
C1606 C1608 1.478 . S
C1607 H1601 0.930 . S
C1607 C1603 1.400 1_655 S
C1607 C1606 1.385 . S
C1608 C1606 1.478 . S
C1608 C1610 1.381 . S
C1608 C1614 1.383 . S
C1609 C1605 1.495 . S
C1609 H1615 0.959 . S
C1609 H1616 0.961 . S
C1609 H1617 0.960 1_455 S
C1610 C1608 1.381 . S
C1610 C1611 1.394 . S
C1610 H1618 0.930 . S
C1611 C1610 1.394 . S
C1611 C1612 1.383 . S
C1611 H1619 0.929 . S
C1612 C1611 1.383 . S
C1612 C1613 1.377 . S
C1613 H1597 0.930 . S
C1613 C1612 1.377 . S
C1613 C1614 1.379 . S
C1614 H1598 0.931 . S
C1614 C1608 1.383 . S
C1614 C1613 1.379 . S
H1615 C1609 0.959 . S
H1616 C1609 0.961 . S
H1617 C1609 0.960 1_655 S
H1618 C1610 0.930 . S
H1619 C1611 0.929 . S
H1620 C1628 0.929 . S
H1621 C1630 0.930 . S
H1622 C1632 0.930 . S
H1623 C1635 0.929 . S
H1624 C1638 0.930 . S
H1625 C1640 0.960 . S
H1626 C1640 0.960 . S
H1627 C1640 0.960 . S
C1628 H1620 0.929 . S
C1628 C1629 1.377 . S
C1628 C1630 1.384 . S
C1629 C1628 1.377 . S
C1629 C1635 1.390 . S
C1630 H1621 0.930 . S
C1630 C1628 1.384 . S
C1630 C1631 1.372 . S
C1631 C1630 1.372 . S
C1631 C1632 1.400 . S
C1631 C1636 1.490 . S
C1632 H1622 0.930 . S
C1632 C1631 1.400 . S
C1632 C1635 1.386 . S
H1633 C1649 0.930 . S
H1634 C1650 0.931 . S
C1635 H1623 0.929 . S
C1635 C1629 1.390 . S
C1635 C1632 1.386 . S
C1636 C1631 1.490 . S
C1636 C1638 1.395 . S
C1636 C1639 1.403 . S
H1637 C1643 0.930 . S
C1638 H1624 0.930 . S
C1638 C1636 1.395 . S
C1638 C1641 1.403 . S
C1639 C1636 1.403 . S
C1639 C1640 1.524 . S
C1639 C1643 1.400 . S
C1640 H1625 0.960 . S
C1640 H1626 0.960 . S
C1640 H1627 0.960 . S
C1640 C1639 1.524 . S
C1641 C1638 1.403 . S
C1641 C1642 1.392 . S
C1641 C1645 1.495 . S
C1642 C1641 1.392 . S
C1642 C1643 1.385 . S
C1642 C1644 1.478 . S
C1643 H1637 0.930 . S
C1643 C1639 1.400 . S
C1643 C1642 1.385 . S
C1644 C1642 1.478 . S
C1644 C1646 1.381 . S
C1644 C1650 1.383 . S
C1645 C1641 1.495 . S
C1645 H1651 0.959 . S
C1645 H1652 0.961 . S
C1645 H1653 0.960 . S
C1646 C1644 1.381 . S
C1646 C1647 1.394 . S
C1646 H1654 0.930 . S
C1647 C1646 1.394 . S
C1647 C1648 1.383 . S
C1647 H1655 0.929 . S
C1648 C1647 1.383 . S
C1648 C1649 1.377 . S
C1649 H1633 0.930 . S
C1649 C1648 1.377 . S
C1649 C1650 1.379 . S
C1650 H1634 0.931 . S
C1650 C1644 1.383 . S
C1650 C1649 1.379 . S
H1651 C1645 0.959 . S
H1652 C1645 0.961 . S
H1653 C1645 0.960 . S
H1654 C1646 0.930 . S
H1655 C1647 0.929 . S
H1656 C1664 0.929 . S
H1657 C1666 0.930 . S
H1658 C1668 0.930 . S
H1659 C1671 0.929 . S
H1660 C1674 0.930 . S
H1661 C1676 0.960 . S
H1662 C1676 0.960 . S
H1663 C1676 0.960 . S
C1664 H1656 0.929 . S
C1664 C1665 1.377 . S
C1664 C1666 1.384 . S
C1665 C1664 1.377 . S
C1665 C1671 1.390 . S
C1666 H1657 0.930 . S
C1666 C1664 1.384 . S
C1666 C1667 1.372 . S
C1667 C1666 1.372 . S
C1667 C1668 1.400 . S
C1667 C1672 1.490 1_455 S
C1668 H1658 0.930 . S
C1668 C1667 1.400 . S
C1668 C1671 1.386 . S
H1669 C1685 0.930 . S
H1670 C1686 0.931 . S
C1671 H1659 0.929 . S
C1671 C1665 1.390 . S
C1671 C1668 1.386 . S
C1672 C1667 1.490 1_655 S
C1672 C1674 1.395 . S
C1672 C1675 1.403 . S
H1673 C1679 0.930 . S
C1674 H1660 0.930 . S
C1674 C1672 1.395 . S
C1674 C1677 1.403 . S
C1675 C1672 1.403 . S
C1675 C1676 1.524 . S
C1675 C1679 1.400 . S
C1676 H1661 0.960 . S
C1676 H1662 0.960 . S
C1676 H1663 0.960 . S
C1676 C1675 1.524 . S
C1677 C1674 1.403 . S
C1677 C1678 1.392 . S
C1677 C1681 1.495 . S
C1678 C1677 1.392 . S
C1678 C1679 1.385 . S
C1678 C1680 1.478 . S
C1679 H1673 0.930 . S
C1679 C1675 1.400 . S
C1679 C1678 1.385 . S
C1680 C1678 1.478 . S
C1680 C1682 1.381 . S
C1680 C1686 1.383 . S
C1681 C1677 1.495 . S
C1681 H1687 0.959 . S
C1681 H1688 0.961 . S
C1681 H1689 0.960 . S
C1682 C1680 1.381 . S
C1682 C1683 1.394 . S
C1682 H1690 0.930 . S
C1683 C1682 1.394 . S
C1683 C1684 1.383 . S
C1683 H1691 0.929 . S
C1684 C1683 1.383 . S
C1684 C1685 1.377 . S
C1685 H1669 0.930 . S
C1685 C1684 1.377 . S
C1685 C1686 1.379 . S
C1686 H1670 0.931 . S
C1686 C1680 1.383 . S
C1686 C1685 1.379 . S
H1687 C1681 0.959 . S
H1688 C1681 0.961 . S
H1689 C1681 0.960 . S
H1690 C1682 0.930 . S
H1691 C1683 0.929 . S
H1692 C1700 0.929 . S
H1693 C1702 0.930 . S
H1694 C1704 0.930 . S
H1695 C1707 0.929 . S
H1696 C1710 0.930 . S
H1697 C1712 0.960 . S
H1698 C1712 0.960 . S
H1699 C1712 0.960 . S
C1700 H1692 0.929 . S
C1700 C1701 1.377 . S
C1700 C1702 1.384 . S
C1701 C1700 1.377 . S
C1701 C1707 1.390 . S
C1702 H1693 0.930 . S
C1702 C1700 1.384 . S
C1702 C1703 1.372 . S
C1703 C1702 1.372 . S
C1703 C1704 1.400 . S
C1703 C1708 1.490 . S
C1704 H1694 0.930 . S
C1704 C1703 1.400 . S
C1704 C1707 1.386 . S
H1705 C1721 0.930 . S
H1706 C1722 0.931 . S
C1707 H1695 0.929 . S
C1707 C1701 1.390 . S
C1707 C1704 1.386 . S
C1708 C1703 1.490 . S
C1708 C1710 1.395 . S
C1708 C1711 1.403 . S
H1709 C1715 0.930 . S
C1710 H1696 0.930 . S
C1710 C1708 1.395 . S
C1710 C1713 1.403 . S
C1711 C1708 1.403 . S
C1711 C1712 1.524 . S
C1711 C1715 1.400 . S
C1712 H1697 0.960 . S
C1712 H1698 0.960 . S
C1712 H1699 0.960 . S
C1712 C1711 1.524 . S
C1713 C1710 1.403 . S
C1713 C1714 1.392 . S
C1713 C1717 1.495 . S
C1714 C1713 1.392 . S
C1714 C1715 1.385 . S
C1714 C1716 1.478 . S
C1715 H1709 0.930 . S
C1715 C1711 1.400 . S
C1715 C1714 1.385 . S
C1716 C1714 1.478 . S
C1716 C1718 1.381 . S
C1716 C1722 1.383 . S
C1717 C1713 1.495 . S
C1717 H1723 0.959 . S
C1717 H1724 0.961 . S
C1717 H1725 0.960 . S
C1718 C1716 1.381 . S
C1718 C1719 1.394 . S
C1718 H1726 0.930 . S
C1719 C1718 1.394 . S
C1719 C1720 1.383 . S
C1719 H1727 0.929 . S
C1720 C1719 1.383 . S
C1720 C1721 1.377 . S
C1721 H1705 0.930 . S
C1721 C1720 1.377 . S
C1721 C1722 1.379 . S
C1722 H1706 0.931 . S
C1722 C1716 1.383 . S
C1722 C1721 1.379 . S
H1723 C1717 0.959 . S
H1724 C1717 0.961 . S
H1725 C1717 0.960 . S
H1726 C1718 0.930 . S
H1727 C1719 0.929 . S
H1728 C1736 0.929 . S
H1729 C1738 0.930 . S
H1730 C1740 0.930 . S
H1731 C1743 0.929 . S
H1732 C1746 0.930 . S
H1733 C1748 0.960 . S
H1734 C1748 0.960 . S
H1735 C1748 0.960 . S
C1736 H1728 0.929 . S
C1736 C1737 1.377 . S
C1736 C1738 1.384 . S
C1737 C1736 1.377 . S
C1737 C1743 1.390 . S
C1738 H1729 0.930 . S
C1738 C1736 1.384 . S
C1738 C1739 1.372 . S
C1739 C1738 1.372 . S
C1739 C1740 1.400 . S
C1739 C1744 1.490 1_565 S
C1740 H1730 0.930 . S
C1740 C1739 1.400 . S
C1740 C1743 1.386 . S
H1741 C1757 0.930 . S
H1742 C1758 0.931 . S
C1743 H1731 0.929 . S
C1743 C1737 1.390 . S
C1743 C1740 1.386 . S
C1744 C1739 1.490 1_545 S
C1744 C1746 1.395 . S
C1744 C1747 1.403 . S
H1745 C1751 0.930 . S
C1746 H1732 0.930 . S
C1746 C1744 1.395 . S
C1746 C1749 1.403 . S
C1747 C1744 1.403 . S
C1747 C1748 1.524 . S
C1747 C1751 1.400 . S
C1748 H1733 0.960 . S
C1748 H1734 0.960 . S
C1748 H1735 0.960 . S
C1748 C1747 1.524 . S
C1749 C1746 1.403 . S
C1749 C1750 1.392 . S
C1749 C1753 1.495 . S
C1750 C1749 1.392 . S
C1750 C1751 1.385 . S
C1750 C1752 1.478 . S
C1751 H1745 0.930 . S
C1751 C1747 1.400 . S
C1751 C1750 1.385 . S
C1752 C1750 1.478 . S
C1752 C1754 1.381 . S
C1752 C1758 1.383 . S
C1753 C1749 1.495 . S
C1753 H1759 0.959 . S
C1753 H1760 0.961 . S
C1753 H1761 0.960 . S
C1754 C1752 1.381 . S
C1754 C1755 1.394 . S
C1754 H1762 0.930 . S
C1755 C1754 1.394 . S
C1755 C1756 1.383 . S
C1755 H1763 0.929 . S
C1756 C1755 1.383 . S
C1756 C1757 1.377 . S
C1757 H1741 0.930 . S
C1757 C1756 1.377 . S
C1757 C1758 1.379 . S
C1758 H1742 0.931 . S
C1758 C1752 1.383 . S
C1758 C1757 1.379 . S
H1759 C1753 0.959 . S
H1760 C1753 0.961 . S
H1761 C1753 0.960 . S
H1762 C1754 0.930 . S
H1763 C1755 0.929 . S
H1764 C1772 0.929 . S
H1765 C1774 0.930 . S
H1766 C1776 0.930 . S
H1767 C1779 0.929 . S
H1768 C1782 0.930 . S
H1769 C1784 0.960 . S
H1770 C1784 0.960 . S
H1771 C1784 0.960 . S
C1772 H1764 0.929 . S
C1772 C1773 1.377 . S
C1772 C1774 1.384 . S
C1773 C1772 1.377 . S
C1773 C1779 1.390 . S
C1774 H1765 0.930 . S
C1774 C1772 1.384 . S
C1774 C1775 1.372 . S
C1775 C1774 1.372 . S
C1775 C1776 1.400 . S
C1775 C1780 1.490 . S
C1776 H1766 0.930 . S
C1776 C1775 1.400 . S
C1776 C1779 1.386 . S
H1777 C1793 0.930 . S
H1778 C1794 0.931 . S
C1779 H1767 0.929 . S
C1779 C1773 1.390 . S
C1779 C1776 1.386 . S
C1780 C1775 1.490 . S
C1780 C1782 1.395 . S
C1780 C1783 1.403 . S
H1781 C1787 0.930 . S
C1782 H1768 0.930 . S
C1782 C1780 1.395 . S
C1782 C1785 1.403 . S
C1783 C1780 1.403 . S
C1783 C1784 1.524 . S
C1783 C1787 1.400 . S
C1784 H1769 0.960 . S
C1784 H1770 0.960 . S
C1784 H1771 0.960 . S
C1784 C1783 1.524 . S
C1785 C1782 1.403 . S
C1785 C1786 1.392 . S
C1785 C1789 1.495 . S
C1786 C1785 1.392 . S
C1786 C1787 1.385 . S
C1786 C1788 1.478 . S
C1787 H1781 0.930 . S
C1787 C1783 1.400 . S
C1787 C1786 1.385 . S
C1788 C1786 1.478 . S
C1788 C1790 1.381 . S
C1788 C1794 1.383 . S
C1789 C1785 1.495 . S
C1789 H1795 0.959 . S
C1789 H1796 0.961 . S
C1789 H1797 0.960 . S
C1790 C1788 1.381 . S
C1790 C1791 1.394 . S
C1790 H1798 0.930 . S
C1791 C1790 1.394 . S
C1791 C1792 1.383 . S
C1791 H1799 0.929 . S
C1792 C1791 1.383 . S
C1792 C1793 1.377 . S
C1793 H1777 0.930 . S
C1793 C1792 1.377 . S
C1793 C1794 1.379 . S
C1794 H1778 0.931 . S
C1794 C1788 1.383 . S
C1794 C1793 1.379 . S
H1795 C1789 0.959 . S
H1796 C1789 0.961 . S
H1797 C1789 0.960 . S
H1798 C1790 0.930 . S
H1799 C1791 0.929 . S
H1800 C1808 0.929 . S
H1801 C1810 0.930 . S
H1802 C1812 0.930 . S
H1803 C1815 0.929 . S
H1804 C1818 0.930 . S
H1805 C1820 0.960 . S
H1806 C1820 0.960 . S
H1807 C1820 0.960 . S
C1808 H1800 0.929 . S
C1808 C1809 1.377 . S
C1808 C1810 1.384 . S
C1809 C1808 1.377 . S
C1809 C1815 1.390 . S
C1810 H1801 0.930 . S
C1810 C1808 1.384 . S
C1810 C1811 1.372 . S
C1811 C1810 1.372 . S
C1811 C1812 1.400 . S
C1811 C1816 1.490 . S
C1812 H1802 0.930 . S
C1812 C1811 1.400 . S
C1812 C1815 1.386 . S
H1813 C1829 0.930 . S
H1814 C1830 0.931 . S
C1815 H1803 0.929 . S
C1815 C1809 1.390 . S
C1815 C1812 1.386 . S
C1816 C1811 1.490 . S
C1816 C1818 1.395 . S
C1816 C1819 1.403 . S
H1817 C1823 0.930 . S
C1818 H1804 0.930 . S
C1818 C1816 1.395 . S
C1818 C1821 1.403 . S
C1819 C1816 1.403 . S
C1819 C1820 1.524 . S
C1819 C1823 1.400 . S
C1820 H1805 0.960 . S
C1820 H1806 0.960 . S
C1820 H1807 0.960 . S
C1820 C1819 1.524 . S
C1821 C1818 1.403 . S
C1821 C1822 1.392 . S
C1821 C1825 1.495 . S
C1822 C1821 1.392 . S
C1822 C1823 1.385 . S
C1822 C1824 1.478 . S
C1823 H1817 0.930 . S
C1823 C1819 1.400 . S
C1823 C1822 1.385 . S
C1824 C1822 1.478 . S
C1824 C1826 1.381 . S
C1824 C1830 1.383 . S
C1825 C1821 1.495 . S
C1825 H1831 0.959 . S
C1825 H1832 0.961 . S
C1825 H1833 0.960 . S
C1826 C1824 1.381 . S
C1826 C1827 1.394 . S
C1826 H1834 0.930 . S
C1827 C1826 1.394 . S
C1827 C1828 1.383 . S
C1827 H1835 0.929 . S
C1828 C1827 1.383 . S
C1828 C1829 1.377 . S
C1829 H1813 0.930 . S
C1829 C1828 1.377 . S
C1829 C1830 1.379 . S
C1830 H1814 0.931 . S
C1830 C1824 1.383 . S
C1830 C1829 1.379 . S
H1831 C1825 0.959 . S
H1832 C1825 0.961 . S
H1833 C1825 0.960 . S
H1834 C1826 0.930 . S
H1835 C1827 0.929 . S
H1836 C1844 0.929 . S
H1837 C1846 0.930 . S
H1838 C1848 0.930 . S
H1839 C1851 0.929 . S
H1840 C1854 0.930 . S
H1841 C1856 0.960 . S
H1842 C1856 0.960 . S
H1843 C1856 0.960 . S
C1844 H1836 0.929 . S
C1844 C1845 1.377 . S
C1844 C1846 1.384 . S
C1845 C1844 1.377 . S
C1845 C1851 1.390 . S
C1846 H1837 0.930 . S
C1846 C1844 1.384 . S
C1846 C1847 1.372 . S
C1847 C1846 1.372 . S
C1847 C1848 1.400 . S
C1847 C1852 1.490 . S
C1848 H1838 0.930 . S
C1848 C1847 1.400 . S
C1848 C1851 1.386 . S
H1849 C1865 0.930 . S
H1850 C1866 0.931 . S
C1851 H1839 0.929 . S
C1851 C1845 1.390 . S
C1851 C1848 1.386 . S
C1852 C1847 1.490 . S
C1852 C1854 1.395 . S
C1852 C1855 1.403 . S
H1853 C1859 0.930 . S
C1854 H1840 0.930 . S
C1854 C1852 1.395 . S
C1854 C1857 1.403 . S
C1855 C1852 1.403 . S
C1855 C1856 1.524 . S
C1855 C1859 1.400 . S
C1856 H1841 0.960 . S
C1856 H1842 0.960 . S
C1856 H1843 0.960 . S
C1856 C1855 1.524 . S
C1857 C1854 1.403 . S
C1857 C1858 1.392 . S
C1857 C1861 1.495 . S
C1858 C1857 1.392 . S
C1858 C1859 1.385 . S
C1858 C1860 1.478 . S
C1859 H1853 0.930 . S
C1859 C1855 1.400 . S
C1859 C1858 1.385 . S
C1860 C1858 1.478 . S
C1860 C1862 1.381 . S
C1860 C1866 1.383 . S
C1861 C1857 1.495 . S
C1861 H1867 0.959 . S
C1861 H1868 0.961 . S
C1861 H1869 0.960 . S
C1862 C1860 1.381 . S
C1862 C1863 1.394 . S
C1862 H1870 0.930 . S
C1863 C1862 1.394 . S
C1863 C1864 1.383 . S
C1863 H1871 0.929 . S
C1864 C1863 1.383 . S
C1864 C1865 1.377 . S
C1865 H1849 0.930 . S
C1865 C1864 1.377 . S
C1865 C1866 1.379 . S
C1866 H1850 0.931 . S
C1866 C1860 1.383 . S
C1866 C1865 1.379 . S
H1867 C1861 0.959 . S
H1868 C1861 0.961 . S
H1869 C1861 0.960 . S
H1870 C1862 0.930 . S
H1871 C1863 0.929 . S
H1872 C1880 0.929 . S
H1873 C1882 0.930 . S
H1874 C1884 0.930 . S
H1875 C1887 0.929 . S
H1876 C1890 0.930 . S
H1877 C1892 0.960 . S
H1878 C1892 0.960 . S
H1879 C1892 0.960 . S
C1880 H1872 0.929 . S
C1880 C1881 1.377 . S
C1880 C1882 1.384 . S
C1881 C1880 1.377 . S
C1881 C1887 1.390 . S
C1882 H1873 0.930 . S
C1882 C1880 1.384 . S
C1882 C1883 1.372 . S
C1883 C1882 1.372 . S
C1883 C1884 1.400 . S
C1883 C1888 1.490 . S
C1884 H1874 0.930 . S
C1884 C1883 1.400 . S
C1884 C1887 1.386 . S
H1885 C1901 0.930 . S
H1886 C1902 0.931 . S
C1887 H1875 0.929 . S
C1887 C1881 1.390 . S
C1887 C1884 1.386 . S
C1888 C1883 1.490 . S
C1888 C1890 1.395 . S
C1888 C1891 1.403 . S
H1889 C1895 0.930 . S
C1890 H1876 0.930 . S
C1890 C1888 1.395 . S
C1890 C1893 1.403 . S
C1891 C1888 1.403 . S
C1891 C1892 1.524 . S
C1891 C1895 1.400 . S
C1892 H1877 0.960 . S
C1892 H1878 0.960 . S
C1892 H1879 0.960 . S
C1892 C1891 1.524 . S
C1893 C1890 1.403 . S
C1893 C1894 1.392 . S
C1893 C1897 1.495 . S
C1894 C1893 1.392 . S
C1894 C1895 1.385 . S
C1894 C1896 1.478 . S
C1895 H1889 0.930 . S
C1895 C1891 1.400 . S
C1895 C1894 1.385 . S
C1896 C1894 1.478 . S
C1896 C1898 1.381 . S
C1896 C1902 1.383 . S
C1897 C1893 1.495 . S
C1897 H1903 0.959 . S
C1897 H1904 0.961 . S
C1897 H1905 0.960 . S
C1898 C1896 1.381 . S
C1898 C1899 1.394 . S
C1898 H1906 0.930 . S
C1899 C1898 1.394 . S
C1899 C1900 1.383 . S
C1899 H1907 0.929 . S
C1900 C1899 1.383 . S
C1900 C1901 1.377 . S
C1901 H1885 0.930 . S
C1901 C1900 1.377 . S
C1901 C1902 1.379 . S
C1902 H1886 0.931 . S
C1902 C1896 1.383 . S
C1902 C1901 1.379 . S
H1903 C1897 0.959 . S
H1904 C1897 0.961 . S
H1905 C1897 0.960 . S
H1906 C1898 0.930 . S
H1907 C1899 0.929 . S
H1908 C1916 0.929 . S
H1909 C1918 0.930 . S
H1910 C1920 0.930 . S
H1911 C1923 0.929 . S
H1912 C1926 0.930 . S
H1913 C1928 0.960 . S
H1914 C1928 0.960 . S
H1915 C1928 0.960 . S
C1916 H1908 0.929 . S
C1916 C1917 1.377 . S
C1916 C1918 1.384 . S
C1917 C1916 1.377 . S
C1917 C1923 1.390 . S
C1918 H1909 0.930 . S
C1918 C1916 1.384 . S
C1918 C1919 1.372 . S
C1919 C1918 1.372 . S
C1919 C1920 1.400 . S
C1919 C1924 1.490 . S
C1920 H1910 0.930 . S
C1920 C1919 1.400 . S
C1920 C1923 1.386 . S
H1921 C1937 0.930 . S
H1922 C1938 0.931 . S
C1923 H1911 0.929 . S
C1923 C1917 1.390 . S
C1923 C1920 1.386 . S
C1924 C1919 1.490 . S
C1924 C1926 1.395 . S
C1924 C1927 1.403 . S
H1925 C1931 0.930 . S
C1926 H1912 0.930 . S
C1926 C1924 1.395 . S
C1926 C1929 1.403 . S
C1927 C1924 1.403 . S
C1927 C1928 1.524 . S
C1927 C1931 1.400 . S
C1928 H1913 0.960 . S
C1928 H1914 0.960 . S
C1928 H1915 0.960 . S
C1928 C1927 1.524 . S
C1929 C1926 1.403 . S
C1929 C1930 1.392 . S
C1929 C1933 1.495 . S
C1930 C1929 1.392 . S
C1930 C1931 1.385 . S
C1930 C1932 1.478 . S
C1931 H1925 0.930 . S
C1931 C1927 1.400 . S
C1931 C1930 1.385 . S
C1932 C1930 1.478 . S
C1932 C1934 1.381 . S
C1932 C1938 1.383 . S
C1933 C1929 1.495 . S
C1933 H1939 0.959 . S
C1933 H1940 0.961 . S
C1933 H1941 0.960 . S
C1934 C1932 1.381 . S
C1934 C1935 1.394 . S
C1934 H1942 0.930 . S
C1935 C1934 1.394 . S
C1935 C1936 1.383 . S
C1935 H1943 0.929 . S
C1936 C1935 1.383 . S
C1936 C1937 1.377 . S
C1937 H1921 0.930 . S
C1937 C1936 1.377 . S
C1937 C1938 1.379 . S
C1938 H1922 0.931 . S
C1938 C1932 1.383 . S
C1938 C1937 1.379 . S
H1939 C1933 0.959 . S
H1940 C1933 0.961 . S
H1941 C1933 0.960 . S
H1942 C1934 0.930 . S
H1943 C1935 0.929 . S
H1944 C1952 0.929 . S
H1945 C1954 0.930 . S
H1946 C1956 0.930 . S
H1947 C1959 0.929 . S
H1948 C1962 0.930 . S
H1949 C1964 0.960 . S
H1950 C1964 0.960 . S
H1951 C1964 0.960 . S
C1952 H1944 0.929 . S
C1952 C1953 1.377 . S
C1952 C1954 1.384 . S
C1953 C1952 1.377 . S
C1953 C1959 1.390 . S
C1954 H1945 0.930 . S
C1954 C1952 1.384 . S
C1954 C1955 1.372 . S
C1955 C1954 1.372 . S
C1955 C1956 1.400 . S
C1955 C1960 1.490 . S
C1956 H1946 0.930 . S
C1956 C1955 1.400 . S
C1956 C1959 1.386 . S
H1957 C1973 0.930 . S
H1958 C1974 0.931 . S
C1959 H1947 0.929 . S
C1959 C1953 1.390 . S
C1959 C1956 1.386 . S
C1960 C1955 1.490 . S
C1960 C1962 1.395 . S
C1960 C1963 1.403 . S
H1961 C1967 0.930 . S
C1962 H1948 0.930 . S
C1962 C1960 1.395 . S
C1962 C1965 1.403 . S
C1963 C1960 1.403 . S
C1963 C1964 1.524 . S
C1963 C1967 1.400 . S
C1964 H1949 0.960 . S
C1964 H1950 0.960 . S
C1964 H1951 0.960 . S
C1964 C1963 1.524 . S
C1965 C1962 1.403 . S
C1965 C1966 1.392 . S
C1965 C1969 1.495 . S
C1966 C1965 1.392 . S
C1966 C1967 1.385 . S
C1966 C1968 1.478 . S
C1967 H1961 0.930 . S
C1967 C1963 1.400 . S
C1967 C1966 1.385 . S
C1968 C1966 1.478 . S
C1968 C1970 1.381 . S
C1968 C1974 1.383 . S
C1969 C1965 1.495 . S
C1969 H1975 0.959 . S
C1969 H1976 0.961 . S
C1969 H1977 0.960 . S
C1970 C1968 1.381 . S
C1970 C1971 1.394 . S
C1970 H1978 0.930 . S
C1971 C1970 1.394 . S
C1971 C1972 1.383 . S
C1971 H1979 0.929 . S
C1972 C1971 1.383 . S
C1972 C1973 1.377 . S
C1973 H1957 0.930 . S
C1973 C1972 1.377 . S
C1973 C1974 1.379 . S
C1974 H1958 0.931 . S
C1974 C1968 1.383 . S
C1974 C1973 1.379 . S
H1975 C1969 0.959 . S
H1976 C1969 0.961 . S
H1977 C1969 0.960 . S
H1978 C1970 0.930 . S
H1979 C1971 0.929 . S
H1980 C1988 0.929 . S
H1981 C1990 0.930 . S
H1982 C1992 0.930 . S
H1983 C1995 0.929 . S
H1984 C1998 0.930 . S
H1985 C2000 0.960 . S
H1986 C2000 0.960 . S
H1987 C2000 0.960 . S
C1988 H1980 0.929 . S
C1988 C1989 1.377 . S
C1988 C1990 1.384 . S
C1989 C1988 1.377 . S
C1989 C1995 1.390 . S
C1990 H1981 0.930 . S
C1990 C1988 1.384 . S
C1990 C1991 1.372 . S
C1991 C1990 1.372 . S
C1991 C1992 1.400 . S
C1991 C1996 1.490 . S
C1992 H1982 0.930 . S
C1992 C1991 1.400 . S
C1992 C1995 1.386 . S
H1993 C2009 0.922 1_455 S
H1994 C2010 0.931 . S
C1995 H1983 0.929 . S
C1995 C1989 1.390 . S
C1995 C1992 1.386 . S
C1996 C1991 1.490 . S
C1996 C1998 1.395 . S
C1996 C1999 1.403 . S
H1997 C2003 0.930 . S
C1998 H1984 0.930 . S
C1998 C1996 1.395 . S
C1998 C2001 1.403 . S
C1999 C1996 1.403 . S
C1999 C2000 1.524 . S
C1999 C2003 1.400 . S
C2000 H1985 0.960 . S
C2000 H1986 0.960 . S
C2000 H1987 0.960 . S
C2000 C1999 1.524 . S
C2001 C1998 1.403 . S
C2001 C2002 1.392 . S
C2001 C2005 1.495 . S
C2002 C2001 1.392 . S
C2002 C2003 1.385 . S
C2002 C2004 1.478 . S
C2003 H1997 0.930 . S
C2003 C1999 1.400 . S
C2003 C2002 1.385 . S
C2004 C2002 1.478 . S
C2004 C2006 1.381 . S
C2004 C2010 1.383 . S
C2005 C2001 1.495 . S
C2005 H2011 0.959 . S
C2005 H2012 0.961 . S
C2005 H2013 0.960 . S
C2006 C2004 1.381 . S
C2006 C2007 1.394 . S
C2006 H2014 0.930 . S
C2007 C2006 1.394 . S
C2007 C2008 1.383 . S
C2007 H2015 0.929 . S
C2008 C2007 1.383 . S
C2008 C2009 1.377 . S
C2009 H1993 0.922 1_655 S
C2009 C2008 1.377 . S
C2009 C2010 1.379 . S
C2010 H1994 0.931 . S
C2010 C2004 1.383 . S
C2010 C2009 1.379 . S
H2011 C2005 0.959 . S
H2012 C2005 0.961 . S
H2013 C2005 0.960 . S
H2014 C2006 0.930 . S
H2015 C2007 0.929 . S
H2016 C2024 0.929 . S
H2017 C2026 0.930 . S
H2018 C2028 0.930 . S
H2019 C2031 0.929 . S
H2020 C2034 0.930 . S
H2021 C2036 0.960 . S
H2022 C2036 0.960 . S
H2023 C2036 0.960 . S
C2024 H2016 0.929 . S
C2024 C2025 1.377 . S
C2024 C2026 1.384 . S
C2025 C2024 1.377 . S
C2025 C2031 1.390 . S
C2026 H2017 0.930 . S
C2026 C2024 1.384 . S
C2026 C2027 1.372 . S
C2027 C2026 1.372 . S
C2027 C2028 1.400 . S
C2027 C2032 1.490 . S
C2028 H2018 0.930 . S
C2028 C2027 1.400 . S
C2028 C2031 1.386 . S
H2029 C2045 0.930 . S
H2030 C2046 0.931 . S
C2031 H2019 0.929 . S
C2031 C2025 1.390 . S
C2031 C2028 1.386 . S
C2032 C2027 1.490 . S
C2032 C2034 1.395 . S
C2032 C2035 1.403 . S
H2033 C2039 0.930 . S
C2034 H2020 0.930 . S
C2034 C2032 1.395 . S
C2034 C2037 1.403 . S
C2035 C2032 1.403 . S
C2035 C2036 1.524 . S
C2035 C2039 1.400 . S
C2036 H2021 0.960 . S
C2036 H2022 0.960 . S
C2036 H2023 0.960 . S
C2036 C2035 1.524 . S
C2037 C2034 1.403 . S
C2037 C2038 1.392 . S
C2037 C2041 1.495 . S
C2038 C2037 1.392 . S
C2038 C2039 1.385 . S
C2038 C2040 1.478 . S
C2039 H2033 0.930 . S
C2039 C2035 1.400 . S
C2039 C2038 1.385 . S
C2040 C2038 1.478 . S
C2040 C2042 1.381 . S
C2040 C2046 1.383 . S
C2041 C2037 1.495 . S
C2041 H2047 0.959 . S
C2041 H2048 0.961 . S
C2041 H2049 0.960 . S
C2042 C2040 1.381 . S
C2042 C2043 1.394 . S
C2042 H2050 0.930 . S
C2043 C2042 1.394 . S
C2043 C2044 1.383 . S
C2043 H2051 0.929 . S
C2044 C2043 1.383 . S
C2044 C2045 1.377 . S
C2045 H2029 0.930 . S
C2045 C2044 1.377 . S
C2045 C2046 1.379 . S
C2046 H2030 0.931 . S
C2046 C2040 1.383 . S
C2046 C2045 1.379 . S
H2047 C2041 0.959 . S
H2048 C2041 0.961 . S
H2049 C2041 0.960 . S
H2050 C2042 0.930 . S
H2051 C2043 0.929 . S
H2052 C2060 0.929 . S
H2053 C2062 0.930 . S
H2054 C2064 0.930 . S
H2055 C2067 0.929 . S
H2056 C2070 0.930 . S
H2057 C2072 0.960 . S
H2058 C2072 0.960 . S
H2059 C2072 0.960 . S
C2060 H2052 0.929 . S
C2060 C2061 1.377 . S
C2060 C2062 1.384 . S
C2061 C2060 1.377 . S
C2061 C2067 1.390 . S
C2062 H2053 0.930 . S
C2062 C2060 1.384 . S
C2062 C2063 1.372 . S
C2063 C2062 1.372 . S
C2063 C2064 1.400 . S
C2063 C2068 1.490 . S
C2064 H2054 0.930 . S
C2064 C2063 1.400 . S
C2064 C2067 1.386 . S
H2065 C2081 0.930 . S
H2066 C2082 0.931 . S
C2067 H2055 0.929 . S
C2067 C2061 1.390 . S
C2067 C2064 1.386 . S
C2068 C2063 1.490 . S
C2068 C2070 1.395 . S
C2068 C2071 1.403 . S
H2069 C2075 0.930 . S
C2070 H2056 0.930 . S
C2070 C2068 1.395 . S
C2070 C2073 1.403 . S
C2071 C2068 1.403 . S
C2071 C2072 1.524 . S
C2071 C2075 1.400 . S
C2072 H2057 0.960 . S
C2072 H2058 0.960 . S
C2072 H2059 0.960 . S
C2072 C2071 1.524 . S
C2073 C2070 1.403 . S
C2073 C2074 1.392 . S
C2073 C2077 1.495 . S
C2074 C2073 1.392 . S
C2074 C2075 1.385 . S
C2074 C2076 1.478 . S
C2075 H2069 0.930 . S
C2075 C2071 1.400 . S
C2075 C2074 1.385 . S
C2076 C2074 1.478 . S
C2076 C2078 1.381 . S
C2076 C2082 1.383 . S
C2077 C2073 1.495 . S
C2077 H2083 0.959 . S
C2077 H2084 0.961 . S
C2077 H2085 0.960 . S
C2078 C2076 1.381 . S
C2078 C2079 1.394 . S
C2078 H2086 0.930 . S
C2079 C2078 1.394 . S
C2079 C2080 1.383 . S
C2079 H2087 0.929 . S
C2080 C2079 1.383 . S
C2080 C2081 1.377 . S
C2081 H2065 0.930 . S
C2081 C2080 1.377 . S
C2081 C2082 1.379 . S
C2082 H2066 0.931 . S
C2082 C2076 1.383 . S
C2082 C2081 1.379 . S
H2083 C2077 0.959 . S
H2084 C2077 0.961 . S
H2085 C2077 0.960 . S
H2086 C2078 0.930 . S
H2087 C2079 0.929 . S
H2088 C2096 0.929 . S
H2089 C2098 0.930 . S
H2090 C2100 0.930 . S
H2091 C2103 0.929 . S
H2092 C2106 0.930 . S
H2093 C2108 0.960 . S
H2094 C2108 0.960 . S
H2095 C2108 0.960 . S
C2096 H2088 0.929 . S
C2096 C2097 1.377 . S
C2096 C2098 1.384 . S
C2097 C2096 1.377 . S
C2097 C2103 1.390 . S
C2098 H2089 0.930 . S
C2098 C2096 1.384 . S
C2098 C2099 1.372 . S
C2099 C2098 1.372 . S
C2099 C2100 1.400 . S
C2099 C2104 1.490 . S
C2100 H2090 0.930 . S
C2100 C2099 1.400 . S
C2100 C2103 1.386 . S
H2101 C2117 0.930 . S
H2102 C2118 0.931 . S
C2103 H2091 0.929 . S
C2103 C2097 1.390 . S
C2103 C2100 1.386 . S
C2104 C2099 1.490 . S
C2104 C2106 1.395 . S
C2104 C2107 1.403 . S
H2105 C2111 0.930 . S
C2106 H2092 0.930 . S
C2106 C2104 1.395 . S
C2106 C2109 1.403 . S
C2107 C2104 1.403 . S
C2107 C2108 1.524 . S
C2107 C2111 1.400 . S
C2108 H2093 0.960 . S
C2108 H2094 0.960 . S
C2108 H2095 0.960 . S
C2108 C2107 1.524 . S
C2109 C2106 1.403 . S
C2109 C2110 1.392 . S
C2109 C2113 1.495 . S
C2110 C2109 1.392 . S
C2110 C2111 1.385 . S
C2110 C2112 1.478 . S
C2111 H2105 0.930 . S
C2111 C2107 1.400 . S
C2111 C2110 1.385 . S
C2112 C2110 1.478 . S
C2112 C2114 1.381 . S
C2112 C2118 1.383 . S
C2113 C2109 1.495 . S
C2113 H2119 0.959 . S
C2113 H2120 0.961 . S
C2113 H2121 0.960 . S
C2114 C2112 1.381 . S
C2114 C2115 1.394 . S
C2114 H2122 0.930 . S
C2115 C2114 1.394 . S
C2115 C2116 1.383 . S
C2115 H2123 0.929 . S
C2116 C2115 1.383 . S
C2116 C2117 1.377 . S
C2117 H2101 0.930 . S
C2117 C2116 1.377 . S
C2117 C2118 1.379 . S
C2118 H2102 0.931 . S
C2118 C2112 1.383 . S
C2118 C2117 1.379 . S
H2119 C2113 0.959 . S
H2120 C2113 0.961 . S
H2121 C2113 0.960 . S
H2122 C2114 0.930 . S
H2123 C2115 0.929 . S
H2124 C2132 0.929 . S
H2125 C2134 0.930 . S
H2126 C2136 0.930 . S
H2127 C2139 0.929 . S
H2128 C2142 0.930 . S
H2129 C2144 0.960 . S
H2130 C2144 0.960 . S
H2131 C2144 0.960 . S
C2132 H2124 0.929 . S
C2132 C2133 1.377 . S
C2132 C2134 1.384 . S
C2133 C2132 1.377 . S
C2133 C2139 1.390 . S
C2134 H2125 0.930 . S
C2134 C2132 1.384 . S
C2134 C2135 1.372 . S
C2135 C2134 1.372 . S
C2135 C2136 1.400 . S
C2135 C2140 1.490 . S
C2136 H2126 0.930 . S
C2136 C2135 1.400 . S
C2136 C2139 1.386 . S
H2137 C2153 0.930 . S
H2138 C2154 0.931 . S
C2139 H2127 0.929 . S
C2139 C2133 1.390 . S
C2139 C2136 1.386 . S
C2140 C2135 1.490 . S
C2140 C2142 1.395 . S
C2140 C2143 1.403 . S
H2141 C2147 0.930 . S
C2142 H2128 0.930 . S
C2142 C2140 1.395 . S
C2142 C2145 1.403 . S
C2143 C2140 1.403 . S
C2143 C2144 1.524 . S
C2143 C2147 1.400 . S
C2144 H2129 0.960 . S
C2144 H2130 0.960 . S
C2144 H2131 0.960 . S
C2144 C2143 1.524 . S
C2145 C2142 1.403 . S
C2145 C2146 1.392 . S
C2145 C2149 1.495 . S
C2146 C2145 1.392 . S
C2146 C2147 1.385 . S
C2146 C2148 1.478 . S
C2147 H2141 0.930 . S
C2147 C2143 1.400 . S
C2147 C2146 1.385 . S
C2148 C2146 1.478 . S
C2148 C2150 1.381 . S
C2148 C2154 1.383 . S
C2149 C2145 1.495 . S
C2149 H2155 0.959 . S
C2149 H2156 0.961 . S
C2149 H2157 0.960 . S
C2150 C2148 1.381 . S
C2150 C2151 1.394 . S
C2150 H2158 0.930 . S
C2151 C2150 1.394 . S
C2151 C2152 1.383 . S
C2151 H2159 0.929 . S
C2152 C2151 1.383 . S
C2152 C2153 1.377 . S
C2153 H2137 0.930 . S
C2153 C2152 1.377 . S
C2153 C2154 1.379 . S
C2154 H2138 0.931 . S
C2154 C2148 1.383 . S
C2154 C2153 1.379 . S
H2155 C2149 0.959 . S
H2156 C2149 0.961 . S
H2157 C2149 0.960 . S
H2158 C2150 0.930 . S
H2159 C2151 0.929 . S
H2160 C2168 0.929 . S
H2161 C2170 0.930 . S
H2162 C2172 0.930 . S
H2163 C2175 0.929 . S
H2164 C2178 0.930 . S
H2165 C2180 0.960 . S
H2166 C2180 0.960 . S
H2167 C2180 0.960 . S
C2168 H2160 0.929 . S
C2168 C2169 1.377 . S
C2168 C2170 1.384 . S
C2169 C2168 1.377 . S
C2169 C2175 1.390 . S
C2170 H2161 0.930 . S
C2170 C2168 1.384 . S
C2170 C2171 1.372 . S
C2171 C2170 1.372 . S
C2171 C2172 1.400 . S
C2171 C2176 1.490 . S
C2172 H2162 0.930 . S
C2172 C2171 1.400 . S
C2172 C2175 1.386 . S
H2173 C2189 0.930 . S
H2174 C2190 0.931 . S
C2175 H2163 0.929 . S
C2175 C2169 1.390 . S
C2175 C2172 1.386 . S
C2176 C2171 1.490 . S
C2176 C2178 1.395 . S
C2176 C2179 1.403 . S
H2177 C2183 0.930 . S
C2178 H2164 0.930 . S
C2178 C2176 1.395 . S
C2178 C2181 1.403 . S
C2179 C2176 1.403 . S
C2179 C2180 1.524 . S
C2179 C2183 1.400 . S
C2180 H2165 0.960 . S
C2180 H2166 0.960 . S
C2180 H2167 0.960 . S
C2180 C2179 1.524 . S
C2181 C2178 1.403 . S
C2181 C2182 1.392 . S
C2181 C2185 1.495 . S
C2182 C2181 1.392 . S
C2182 C2183 1.385 . S
C2182 C2184 1.478 . S
C2183 H2177 0.930 . S
C2183 C2179 1.400 . S
C2183 C2182 1.385 . S
C2184 C2182 1.478 . S
C2184 C2186 1.381 . S
C2184 C2190 1.383 . S
C2185 C2181 1.495 . S
C2185 H2191 0.959 . S
C2185 H2192 0.961 . S
C2185 H2193 0.960 . S
C2186 C2184 1.381 . S
C2186 C2187 1.394 . S
C2186 H2194 0.930 . S
C2187 C2186 1.394 . S
C2187 C2188 1.383 . S
C2187 H2195 0.929 . S
C2188 C2187 1.383 . S
C2188 C2189 1.377 . S
C2189 H2173 0.930 . S
C2189 C2188 1.377 . S
C2189 C2190 1.379 . S
C2190 H2174 0.931 . S
C2190 C2184 1.383 . S
C2190 C2189 1.379 . S
H2191 C2185 0.959 . S
H2192 C2185 0.961 . S
H2193 C2185 0.960 . S
H2194 C2186 0.930 . S
H2195 C2187 0.929 . S
H2196 C2204 0.929 . S
H2197 C2206 0.930 . S
H2198 C2208 0.930 . S
H2199 C2211 0.929 . S
H2200 C2214 0.930 . S
H2201 C2216 0.960 . S
H2202 C2216 0.960 . S
H2203 C2216 0.960 . S
C2204 H2196 0.929 . S
C2204 C2205 1.377 . S
C2204 C2206 1.384 . S
C2205 C2204 1.377 . S
C2205 C2211 1.390 . S
C2206 H2197 0.930 . S
C2206 C2204 1.384 . S
C2206 C2207 1.372 . S
C2207 C2206 1.372 . S
C2207 C2208 1.400 . S
C2207 C2212 1.490 . S
C2208 H2198 0.930 . S
C2208 C2207 1.400 . S
C2208 C2211 1.386 . S
H2209 C2225 0.930 . S
H2210 C2226 0.931 . S
C2211 H2199 0.929 . S
C2211 C2205 1.390 . S
C2211 C2208 1.386 . S
C2212 C2207 1.490 . S
C2212 C2214 1.395 . S
C2212 C2215 1.403 . S
H2213 C2219 0.930 . S
C2214 H2200 0.930 . S
C2214 C2212 1.395 . S
C2214 C2217 1.403 . S
C2215 C2212 1.403 . S
C2215 C2216 1.524 . S
C2215 C2219 1.400 . S
C2216 H2201 0.960 . S
C2216 H2202 0.960 . S
C2216 H2203 0.960 . S
C2216 C2215 1.524 . S
C2217 C2214 1.403 . S
C2217 C2218 1.392 . S
C2217 C2221 1.495 . S
C2218 C2217 1.392 . S
C2218 C2219 1.385 . S
C2218 C2220 1.478 . S
C2219 H2213 0.930 . S
C2219 C2215 1.400 . S
C2219 C2218 1.385 . S
C2220 C2218 1.478 . S
C2220 C2222 1.381 . S
C2220 C2226 1.383 . S
C2221 C2217 1.495 . S
C2221 H2227 0.959 . S
C2221 H2228 0.961 . S
C2221 H2229 0.960 . S
C2222 C2220 1.381 . S
C2222 C2223 1.394 . S
C2222 H2230 0.930 . S
C2223 C2222 1.394 . S
C2223 C2224 1.383 . S
C2223 H2231 0.929 . S
C2224 C2223 1.383 . S
C2224 C2225 1.377 . S
C2225 H2209 0.930 . S
C2225 C2224 1.377 . S
C2225 C2226 1.379 . S
C2226 H2210 0.931 . S
C2226 C2220 1.383 . S
C2226 C2225 1.379 . S
H2227 C2221 0.959 . S
H2228 C2221 0.961 . S
H2229 C2221 0.960 . S
H2230 C2222 0.930 . S
H2231 C2223 0.929 . S
H2232 C2240 0.929 . S
H2233 C2242 0.930 . S
H2234 C2244 0.930 . S
H2235 C2247 0.929 . S
H2236 C2250 0.930 . S
H2237 C2252 0.960 . S
H2238 C2252 0.960 . S
H2239 C2252 0.960 . S
C2240 H2232 0.929 . S
C2240 C2241 1.377 . S
C2240 C2242 1.384 . S
C2241 C2240 1.377 . S
C2241 C2247 1.390 . S
C2242 H2233 0.930 . S
C2242 C2240 1.384 . S
C2242 C2243 1.372 . S
C2243 C2242 1.372 . S
C2243 C2244 1.400 . S
C2243 C2248 1.490 . S
C2244 H2234 0.930 . S
C2244 C2243 1.400 . S
C2244 C2247 1.386 . S
H2245 C2261 0.930 . S
H2246 C2262 0.931 . S
C2247 H2235 0.929 . S
C2247 C2241 1.390 . S
C2247 C2244 1.386 . S
C2248 C2243 1.490 . S
C2248 C2250 1.395 . S
C2248 C2251 1.403 . S
H2249 C2255 0.930 . S
C2250 H2236 0.930 . S
C2250 C2248 1.395 . S
C2250 C2253 1.403 . S
C2251 C2248 1.403 . S
C2251 C2252 1.524 . S
C2251 C2255 1.400 . S
C2252 H2237 0.960 . S
C2252 H2238 0.960 . S
C2252 H2239 0.960 . S
C2252 C2251 1.524 . S
C2253 C2250 1.403 . S
C2253 C2254 1.392 . S
C2253 C2257 1.495 . S
C2254 C2253 1.392 . S
C2254 C2255 1.385 . S
C2254 C2256 1.478 . S
C2255 H2249 0.930 . S
C2255 C2251 1.400 . S
C2255 C2254 1.385 . S
C2256 C2254 1.478 . S
C2256 C2258 1.381 . S
C2256 C2262 1.383 . S
C2257 C2253 1.495 . S
C2257 H2263 0.959 . S
C2257 H2264 0.961 . S
C2257 H2265 0.960 . S
C2258 C2256 1.381 . S
C2258 C2259 1.394 . S
C2258 H2266 0.930 . S
C2259 C2258 1.394 . S
C2259 C2260 1.383 . S
C2259 H2267 0.929 . S
C2260 C2259 1.383 . S
C2260 C2261 1.377 . S
C2261 H2245 0.930 . S
C2261 C2260 1.377 . S
C2261 C2262 1.379 . S
C2262 H2246 0.931 . S
C2262 C2256 1.383 . S
C2262 C2261 1.379 . S
H2263 C2257 0.959 . S
H2264 C2257 0.961 . S
H2265 C2257 0.960 . S
H2266 C2258 0.930 . S
H2267 C2259 0.929 . S
H2268 C2276 0.929 . S
H2269 C2278 0.930 . S
H2270 C2280 0.930 . S
H2271 C2283 0.929 . S
H2272 C2286 0.930 . S
H2273 C2288 0.960 . S
H2274 C2288 0.960 . S
H2275 C2288 0.960 . S
C2276 H2268 0.929 . S
C2276 C2277 1.377 . S
C2276 C2278 1.384 . S
C2277 C2276 1.377 . S
C2277 C2283 1.390 . S
C2278 H2269 0.930 . S
C2278 C2276 1.384 . S
C2278 C2279 1.372 . S
C2279 C2278 1.372 . S
C2279 C2280 1.400 . S
C2279 C2284 1.490 . S
C2280 H2270 0.930 . S
C2280 C2279 1.400 . S
C2280 C2283 1.386 . S
H2281 C2297 0.930 . S
H2282 C2298 0.931 . S
C2283 H2271 0.929 . S
C2283 C2277 1.390 . S
C2283 C2280 1.386 . S
C2284 C2279 1.490 . S
C2284 C2286 1.395 . S
C2284 C2287 1.403 . S
H2285 C2291 0.930 . S
C2286 H2272 0.930 . S
C2286 C2284 1.395 . S
C2286 C2289 1.403 . S
C2287 C2284 1.403 . S
C2287 C2288 1.524 . S
C2287 C2291 1.400 . S
C2288 H2273 0.960 . S
C2288 H2274 0.960 . S
C2288 H2275 0.960 . S
C2288 C2287 1.524 . S
C2289 C2286 1.403 . S
C2289 C2290 1.392 . S
C2289 C2293 1.495 . S
C2290 C2289 1.392 . S
C2290 C2291 1.385 . S
C2290 C2292 1.478 . S
C2291 H2285 0.930 . S
C2291 C2287 1.400 . S
C2291 C2290 1.385 . S
C2292 C2290 1.478 . S
C2292 C2294 1.381 . S
C2292 C2298 1.383 . S
C2293 C2289 1.495 . S
C2293 H2299 0.959 . S
C2293 H2300 0.961 . S
C2293 H2301 0.960 . S
C2294 C2292 1.381 . S
C2294 C2295 1.394 . S
C2294 H2302 0.930 . S
C2295 C2294 1.394 . S
C2295 C2296 1.383 . S
C2295 H2303 0.929 . S
C2296 C2295 1.383 . S
C2296 C2297 1.377 . S
C2297 H2281 0.930 . S
C2297 C2296 1.377 . S
C2297 C2298 1.379 . S
C2298 H2282 0.931 . S
C2298 C2292 1.383 . S
C2298 C2297 1.379 . S
H2299 C2293 0.959 . S
H2300 C2293 0.961 . S
H2301 C2293 0.960 . S
H2302 C2294 0.930 . S
H2303 C2295 0.929 . S
H2304 C2312 0.929 . S
H2305 C2314 0.930 . S
H2306 C2316 0.930 . S
H2307 C2319 0.929 . S
H2308 C2322 0.930 . S
H2309 C2324 0.960 . S
H2310 C2324 0.960 . S
H2311 C2324 0.960 . S
C2312 H2304 0.929 . S
C2312 C2313 1.377 . S
C2312 C2314 1.384 . S
C2313 C2312 1.377 . S
C2313 C2319 1.390 . S
C2314 H2305 0.930 . S
C2314 C2312 1.384 . S
C2314 C2315 1.372 . S
C2315 C2314 1.372 . S
C2315 C2316 1.400 . S
C2315 C2320 1.490 . S
C2316 H2306 0.930 . S
C2316 C2315 1.400 . S
C2316 C2319 1.386 . S
H2317 C2333 0.930 . S
H2318 C2334 0.931 . S
C2319 H2307 0.929 . S
C2319 C2313 1.390 . S
C2319 C2316 1.386 . S
C2320 C2315 1.490 . S
C2320 C2322 1.395 . S
C2320 C2323 1.403 . S
H2321 C2327 0.930 . S
C2322 H2308 0.930 . S
C2322 C2320 1.395 . S
C2322 C2325 1.403 . S
C2323 C2320 1.403 . S
C2323 C2324 1.524 . S
C2323 C2327 1.400 . S
C2324 H2309 0.960 . S
C2324 H2310 0.960 . S
C2324 H2311 0.960 . S
C2324 C2323 1.524 . S
C2325 C2322 1.403 . S
C2325 C2326 1.392 . S
C2325 C2329 1.495 . S
C2326 C2325 1.392 . S
C2326 C2327 1.385 . S
C2326 C2328 1.478 . S
C2327 H2321 0.930 . S
C2327 C2323 1.400 . S
C2327 C2326 1.385 . S
C2328 C2326 1.478 . S
C2328 C2330 1.381 . S
C2328 C2334 1.383 . S
C2329 C2325 1.495 . S
C2329 H2335 0.959 . S
C2329 H2336 0.961 . S
C2329 H2337 0.960 . S
C2330 C2328 1.381 . S
C2330 C2331 1.394 . S
C2330 H2338 0.930 . S
C2331 C2330 1.394 . S
C2331 C2332 1.383 . S
C2331 H2339 0.929 . S
C2332 C2331 1.383 . S
C2332 C2333 1.377 . S
C2333 H2317 0.930 . S
C2333 C2332 1.377 . S
C2333 C2334 1.379 . S
C2334 H2318 0.931 . S
C2334 C2328 1.383 . S
C2334 C2333 1.379 . S
H2335 C2329 0.959 . S
H2336 C2329 0.961 . S
H2337 C2329 0.960 . S
H2338 C2330 0.930 . S
H2339 C2331 0.929 . S
H2340 C2348 0.929 . S
H2341 C2350 0.930 . S
H2342 C2352 0.930 . S
H2343 C2355 0.929 . S
H2344 C2358 0.930 . S
H2345 C2360 0.960 . S
H2346 C2360 0.960 . S
H2347 C2360 0.960 . S
C2348 H2340 0.929 . S
C2348 C2349 1.377 . S
C2348 C2350 1.384 . S
C2349 C2348 1.377 . S
C2349 C2355 1.390 . S
C2350 H2341 0.930 . S
C2350 C2348 1.384 . S
C2350 C2351 1.372 . S
C2351 C2350 1.372 . S
C2351 C2352 1.400 . S
C2351 C2356 1.490 . S
C2352 H2342 0.930 . S
C2352 C2351 1.400 . S
C2352 C2355 1.386 . S
H2353 C2369 0.930 . S
H2354 C2370 0.931 . S
C2355 H2343 0.929 . S
C2355 C2349 1.390 . S
C2355 C2352 1.386 . S
C2356 C2351 1.490 . S
C2356 C2358 1.395 . S
C2356 C2359 1.403 . S
H2357 C2363 0.930 . S
C2358 H2344 0.930 . S
C2358 C2356 1.395 . S
C2358 C2361 1.403 . S
C2359 C2356 1.403 . S
C2359 C2360 1.524 . S
C2359 C2363 1.400 . S
C2360 H2345 0.960 . S
C2360 H2346 0.960 . S
C2360 H2347 0.960 . S
C2360 C2359 1.524 . S
C2361 C2358 1.403 . S
C2361 C2362 1.392 . S
C2361 C2365 1.495 . S
C2362 C2361 1.392 . S
C2362 C2363 1.385 . S
C2362 C2364 1.478 . S
C2363 H2357 0.930 . S
C2363 C2359 1.400 . S
C2363 C2362 1.385 . S
C2364 C2362 1.478 . S
C2364 C2366 1.381 . S
C2364 C2370 1.383 . S
C2365 C2361 1.495 . S
C2365 H2371 0.959 . S
C2365 H2372 0.961 . S
C2365 H2373 0.960 . S
C2366 C2364 1.381 . S
C2366 C2367 1.394 . S
C2366 H2374 0.930 . S
C2367 C2366 1.394 . S
C2367 C2368 1.383 . S
C2367 H2375 0.929 . S
C2368 C2367 1.383 . S
C2368 C2369 1.377 . S
C2369 H2353 0.930 . S
C2369 C2368 1.377 . S
C2369 C2370 1.379 . S
C2370 H2354 0.931 . S
C2370 C2364 1.383 . S
C2370 C2369 1.379 . S
H2371 C2365 0.959 . S
H2372 C2365 0.961 . S
H2373 C2365 0.960 . S
H2374 C2366 0.930 . S
H2375 C2367 0.929 . S
H2376 C2384 0.929 . S
H2377 C2386 0.930 . S
H2378 C2388 0.930 . S
H2379 C2391 0.929 . S
H2380 C2394 0.930 . S
H2381 C2396 0.960 . S
H2382 C2396 0.960 . S
H2383 C2396 0.960 . S
C2384 H2376 0.929 . S
C2384 C2385 1.377 . S
C2384 C2386 1.384 . S
C2385 C2384 1.377 . S
C2385 C2391 1.390 . S
C2386 H2377 0.930 . S
C2386 C2384 1.384 . S
C2386 C2387 1.372 . S
C2387 C2386 1.372 . S
C2387 C2388 1.400 . S
C2387 C2392 1.490 . S
C2388 H2378 0.930 . S
C2388 C2387 1.400 . S
C2388 C2391 1.386 . S
H2389 C2405 0.930 . S
H2390 C2406 0.931 . S
C2391 H2379 0.929 . S
C2391 C2385 1.390 . S
C2391 C2388 1.386 . S
C2392 C2387 1.490 . S
C2392 C2394 1.395 . S
C2392 C2395 1.403 . S
H2393 C2399 0.930 . S
C2394 H2380 0.930 . S
C2394 C2392 1.395 . S
C2394 C2397 1.403 . S
C2395 C2392 1.403 . S
C2395 C2396 1.524 . S
C2395 C2399 1.400 . S
C2396 H2381 0.960 . S
C2396 H2382 0.960 . S
C2396 H2383 0.960 . S
C2396 C2395 1.524 . S
C2397 C2394 1.403 . S
C2397 C2398 1.392 . S
C2397 C2401 1.495 . S
C2398 C2397 1.392 . S
C2398 C2399 1.385 . S
C2398 C2400 1.478 . S
C2399 H2393 0.930 . S
C2399 C2395 1.400 . S
C2399 C2398 1.385 . S
C2400 C2398 1.478 . S
C2400 C2402 1.381 . S
C2400 C2406 1.383 . S
C2401 C2397 1.495 . S
C2401 H2407 0.959 . S
C2401 H2408 0.961 . S
C2401 H2409 0.960 . S
C2402 C2400 1.381 . S
C2402 C2403 1.394 . S
C2402 H2410 0.930 . S
C2403 C2402 1.394 . S
C2403 C2404 1.383 . S
C2403 H2411 0.929 . S
C2404 C2403 1.383 . S
C2404 C2405 1.377 . S
C2405 H2389 0.930 . S
C2405 C2404 1.377 . S
C2405 C2406 1.379 . S
C2406 H2390 0.931 . S
C2406 C2400 1.383 . S
C2406 C2405 1.379 . S
H2407 C2401 0.959 . S
H2408 C2401 0.961 . S
H2409 C2401 0.960 . S
H2410 C2402 0.930 . S
H2411 C2403 0.929 . S
H2412 C2420 0.929 . S
H2413 C2422 0.930 . S
H2414 C2424 0.930 . S
H2415 C2427 0.929 . S
H2416 C2430 0.930 . S
H2417 C2432 0.960 . S
H2418 C2432 0.960 . S
H2419 C2432 0.960 . S
C2420 H2412 0.929 . S
C2420 C2421 1.377 . S
C2420 C2422 1.384 . S
C2421 C2420 1.377 . S
C2421 C2427 1.390 . S
C2422 H2413 0.930 . S
C2422 C2420 1.384 . S
C2422 C2423 1.372 . S
C2423 C2422 1.372 . S
C2423 C2424 1.400 . S
C2423 C2428 1.490 . S
C2424 H2414 0.930 . S
C2424 C2423 1.400 . S
C2424 C2427 1.386 . S
H2425 C2441 0.930 . S
H2426 C2442 0.931 . S
C2427 H2415 0.929 . S
C2427 C2421 1.390 . S
C2427 C2424 1.386 . S
C2428 C2423 1.490 . S
C2428 C2430 1.395 . S
C2428 C2431 1.403 . S
H2429 C2435 0.930 . S
C2430 H2416 0.930 . S
C2430 C2428 1.395 . S
C2430 C2433 1.403 . S
C2431 C2428 1.403 . S
C2431 C2432 1.524 . S
C2431 C2435 1.400 . S
C2432 H2417 0.960 . S
C2432 H2418 0.960 . S
C2432 H2419 0.960 . S
C2432 C2431 1.524 . S
C2433 C2430 1.403 . S
C2433 C2434 1.392 . S
C2433 C2437 1.495 . S
C2434 C2433 1.392 . S
C2434 C2435 1.385 . S
C2434 C2436 1.478 . S
C2435 H2429 0.930 . S
C2435 C2431 1.400 . S
C2435 C2434 1.385 . S
C2436 C2434 1.478 . S
C2436 C2438 1.381 . S
C2436 C2442 1.383 . S
C2437 C2433 1.495 . S
C2437 H2443 0.959 . S
C2437 H2444 0.961 . S
C2437 H2445 0.960 . S
C2438 C2436 1.381 . S
C2438 C2439 1.394 . S
C2438 H2446 0.930 . S
C2439 C2438 1.394 . S
C2439 C2440 1.383 . S
C2439 H2447 0.929 . S
C2440 C2439 1.383 . S
C2440 C2441 1.377 . S
C2441 H2425 0.930 . S
C2441 C2440 1.377 . S
C2441 C2442 1.379 . S
C2442 H2426 0.931 . S
C2442 C2436 1.383 . S
C2442 C2441 1.379 . S
H2443 C2437 0.959 . S
H2444 C2437 0.961 . S
H2445 C2437 0.960 . S
H2446 C2438 0.930 . S
H2447 C2439 0.929 . S
H2448 C2456 0.929 . S
H2449 C2458 0.930 . S
H2450 C2460 0.930 . S
H2451 C2463 0.929 . S
H2452 C2466 0.930 . S
H2453 C2468 0.960 . S
H2454 C2468 0.960 . S
H2455 C2468 0.960 . S
C2456 H2448 0.929 . S
C2456 C2457 1.377 . S
C2456 C2458 1.384 . S
C2457 C2456 1.377 . S
C2457 C2463 1.390 . S
C2458 H2449 0.930 . S
C2458 C2456 1.384 . S
C2458 C2459 1.372 . S
C2459 C2458 1.372 . S
C2459 C2460 1.400 . S
C2459 C2464 1.490 . S
C2460 H2450 0.930 . S
C2460 C2459 1.400 . S
C2460 C2463 1.386 . S
H2461 C2477 0.930 . S
H2462 C2478 0.931 . S
C2463 H2451 0.929 . S
C2463 C2457 1.390 . S
C2463 C2460 1.386 . S
C2464 C2459 1.490 . S
C2464 C2466 1.395 . S
C2464 C2467 1.403 . S
H2465 C2471 0.930 . S
C2466 H2452 0.930 . S
C2466 C2464 1.395 . S
C2466 C2469 1.403 . S
C2467 C2464 1.403 . S
C2467 C2468 1.524 . S
C2467 C2471 1.400 . S
C2468 H2453 0.960 . S
C2468 H2454 0.960 . S
C2468 H2455 0.960 . S
C2468 C2467 1.524 . S
C2469 C2466 1.403 . S
C2469 C2470 1.392 . S
C2469 C2473 1.495 . S
C2470 C2469 1.392 . S
C2470 C2471 1.385 . S
C2470 C2472 1.478 . S
C2471 H2465 0.930 . S
C2471 C2467 1.400 . S
C2471 C2470 1.385 . S
C2472 C2470 1.478 . S
C2472 C2474 1.381 . S
C2472 C2478 1.383 . S
C2473 C2469 1.495 . S
C2473 H2479 0.959 . S
C2473 H2480 0.961 . S
C2473 H2481 0.960 . S
C2474 C2472 1.381 . S
C2474 C2475 1.394 . S
C2474 H2482 0.930 . S
C2475 C2474 1.394 . S
C2475 C2476 1.383 . S
C2475 H2483 0.929 . S
C2476 C2475 1.383 . S
C2476 C2477 1.377 . S
C2477 H2461 0.930 . S
C2477 C2476 1.377 . S
C2477 C2478 1.379 . S
C2478 H2462 0.931 . S
C2478 C2472 1.383 . S
C2478 C2477 1.379 . S
H2479 C2473 0.959 . S
H2480 C2473 0.961 . S
H2481 C2473 0.960 . S
H2482 C2474 0.930 . S
H2483 C2475 0.929 . S
H2484 C2492 0.929 . S
H2485 C2494 0.930 . S
H2486 C2496 0.930 . S
H2487 C2499 0.929 . S
H2488 C2502 0.930 . S
H2489 C2504 0.960 . S
H2490 C2504 0.960 . S
H2491 C2504 0.960 . S
C2492 H2484 0.929 . S
C2492 C2493 1.377 . S
C2492 C2494 1.384 . S
C2493 C2492 1.377 . S
C2493 C2499 1.390 . S
C2494 H2485 0.930 . S
C2494 C2492 1.384 . S
C2494 C2495 1.372 . S
C2495 C2494 1.372 . S
C2495 C2496 1.400 . S
C2495 C2500 1.490 . S
C2496 H2486 0.930 . S
C2496 C2495 1.400 . S
C2496 C2499 1.386 . S
H2497 C2513 0.930 . S
H2498 C2514 0.931 . S
C2499 H2487 0.929 . S
C2499 C2493 1.390 . S
C2499 C2496 1.386 . S
C2500 C2495 1.490 . S
C2500 C2502 1.395 . S
C2500 C2503 1.403 . S
H2501 C2507 0.930 . S
C2502 H2488 0.930 . S
C2502 C2500 1.395 . S
C2502 C2505 1.403 . S
C2503 C2500 1.403 . S
C2503 C2504 1.524 . S
C2503 C2507 1.400 . S
C2504 H2489 0.960 . S
C2504 H2490 0.960 . S
C2504 H2491 0.960 . S
C2504 C2503 1.524 . S
C2505 C2502 1.403 . S
C2505 C2506 1.392 . S
C2505 C2509 1.495 . S
C2506 C2505 1.392 . S
C2506 C2507 1.385 . S
C2506 C2508 1.478 . S
C2507 H2501 0.930 . S
C2507 C2503 1.400 . S
C2507 C2506 1.385 . S
C2508 C2506 1.478 . S
C2508 C2510 1.381 . S
C2508 C2514 1.383 . S
C2509 C2505 1.495 . S
C2509 H2515 0.959 . S
C2509 H2516 0.961 . S
C2509 H2517 0.960 . S
C2510 C2508 1.381 . S
C2510 C2511 1.394 . S
C2510 H2518 0.930 . S
C2511 C2510 1.394 . S
C2511 C2512 1.383 . S
C2511 H2519 0.929 . S
C2512 C2511 1.383 . S
C2512 C2513 1.377 . S
C2513 H2497 0.930 . S
C2513 C2512 1.377 . S
C2513 C2514 1.379 . S
C2514 H2498 0.931 . S
C2514 C2508 1.383 . S
C2514 C2513 1.379 . S
H2515 C2509 0.959 . S
H2516 C2509 0.961 . S
H2517 C2509 0.960 . S
H2518 C2510 0.930 . S
H2519 C2511 0.929 . S
C585 C162 1.694 . S
C604 C219 1.695 . S
C621 C174 1.858 . S
C640 C259 1.856 . S
C657 C150 1.610 . S
C676 C311 1.591 . S
C693 C138 1.465 . S
C712 C271 1.436 1_556 S
C748 C299 1.488 1_556 S
C729 C114 1.496 . S
C765 C126 1.311 . S
C784 C231 1.303 . S
C820 C238 1.679 1_556 S
C801 C136 1.658 . S
C856 C278 1.716 . S
C837 C112 1.697 . S
C873 C124 1.661 . S
C892 C298 1.693 . S
C909 C160 1.479 . S
C928 C258 1.497 . S
C945 C172 1.434 . S
C964 C318 1.445 . S
C1000 C218 1.433 . S
C981 C148 1.413 . S
C1036 C339 1.698 . S
C1017 C18 1.697 . S
C1053 C30 1.858 . S
C1072 C379 1.857 . S
C1089 C6 1.609 . S
C1108 C431 1.579 . S
C1125 C210 1.465 . S
C1144 C391 1.424 . S
C1161 C186 1.496 . S
C1180 C419 1.491 . S
C1197 C198 1.313 . S
C1216 C351 1.311 . S
C1233 C208 1.660 . S
C1252 C358 1.674 . S
C1269 C184 1.692 . S
C1288 C398 1.706 . S
C1324 C418 1.710 . S
C1305 C196 1.669 . S
C1341 C16 1.479 . S
C1360 C378 1.483 . S
C1396 C438 1.436 . S
C1377 C28 1.430 . S
C1413 C4 1.413 . S
C1432 C338 1.438 . S
C1468 C459 1.697 . S
C1449 C90 1.695 . S
C1485 C102 1.857 . S
C1504 C499 1.844 . S
C1540 C551 1.591 . S
C1521 C78 1.613 . S
C1576 C511 1.428 . S
C1557 C66 1.464 . S
C1612 C539 1.491 . S
C1593 C42 1.496 . S
C1629 C54 1.309 . S
C1648 C471 1.290 . S
C1665 C64 1.658 . S
C1684 C478 1.671 . S
C1701 C40 1.696 . S
C1720 C518 1.704 . S
C1756 C538 1.708 . S
C1737 C52 1.670 . S
C1773 C88 1.482 . S
C1792 C498 1.513 . S
C1809 C100 1.432 . S
C1828 C558 1.435 . S
C1845 C76 1.406 . S
C1864 C458 1.413 . S
C1881 C189 1.424 . S
C1900 C242 1.413 . S
C1936 C282 1.992 . S
C1917 C201 2.015 . S
C1953 C213 1.578 . S
C1972 C305 1.593 . S
C1989 C81 1.851 . S
C2008 C265 1.851 . S
C2025 C93 1.708 . S
C2044 C322 1.674 . S
C2080 C225 1.248 . S
C2061 C105 1.241 . S
C2097 C45 1.422 . S
C2116 C362 1.377 . S
C2133 C57 2.016 . S
C2152 C402 1.995 . S
C2169 C69 1.578 . S
C2188 C425 1.592 . S
C2205 C153 1.848 . S
C2224 C385 1.836 . S
C2260 C442 1.688 . S
C2241 C165 1.705 . S
C2277 C177 1.246 . S
C2296 C345 1.252 . S
C2313 C117 1.422 . S
C2332 C482 1.378 . S
C2349 C129 2.016 . S
C2368 C522 1.995 . S
C2404 C545 1.592 . S
C2385 C141 1.578 . S
C2421 C9 1.851 . S
C2440 C505 1.852 . S
C2457 C21 1.707 . S
C2476 C562 1.699 . S
C2493 C33 1.241 . S
C2512 C465 1.246 . S
