# Generated by pormake.
# Topology rtl, (3,6)-cn, num edge types: 1
# Building blocks:
#     Node 0, Type 0, BuildingBlock: ESEHIV_clean_linker_0, # of connection points: 3
#     Node 1, Type 0, BuildingBlock: ESEHIV_clean_linker_0, # of connection points: 3
#     Node 2, Type 0, BuildingBlock: ESEHIV_clean_linker_0, # of connection points: 3
#     Node 3, Type 0, BuildingBlock: ESEHIV_clean_linker_0, # of connection points: 3
#     Node 4, Type 1, BuildingBlock: LEVNOQ01_clean_sbu_1, # of connection points: 6
#     Node 5, Type 1, BuildingBlock: LEVNOQ01_clean_sbu_1, # of connection points: 6
#     Edge 6, Type (0, 1), BuildingBlock: TEMPAE_clean_linker_10, # of connection points: 2
#     Edge 7, Type (0, 1), BuildingBlock: TEMPAE_clean_linker_10, # of connection points: 2
#     Edge 8, Type (0, 1), BuildingBlock: TEMPAE_clean_linker_10, # of connection points: 2
#     Edge 9, Type (0, 1), BuildingBlock: TEMPAE_clean_linker_10, # of connection points: 2
#     Edge 10, Type (0, 1), BuildingBlock: TEMPAE_clean_linker_10, # of connection points: 2
#     Edge 11, Type (0, 1), BuildingBlock: TEMPAE_clean_linker_10, # of connection points: 2
#     Edge 12, Type (0, 1), BuildingBlock: TEMPAE_clean_linker_10, # of connection points: 2
#     Edge 13, Type (0, 1), BuildingBlock: TEMPAE_clean_linker_10, # of connection points: 2
#     Edge 14, Type (0, 1), BuildingBlock: TEMPAE_clean_linker_10, # of connection points: 2
#     Edge 15, Type (0, 1), BuildingBlock: TEMPAE_clean_linker_10, # of connection points: 2
#     Edge 16, Type (0, 1), BuildingBlock: TEMPAE_clean_linker_10, # of connection points: 2
#     Edge 17, Type (0, 1), BuildingBlock: TEMPAE_clean_linker_10, # of connection points: 2
# Relax obj value: 0.026
# Max RMSD: 0.059
# Mean RMSD: 0.045
data_MOF--net-rtl--node1-LEVNOQ01_clean_sbu_1--node2-ESEHIV_clean_linker_0--edge1-TEMPAE_clean_linker_10
_symmetry_space_group_name_H-M    P1
_symmetry_Int_Tables_number       1
_symmetry_cell_setting            triclinic
loop_
_symmetry_equiv_pos_as_xyz
'x, y, z'
_cell_length_a     29.061715
_cell_length_b     33.033796
_cell_length_c     23.19778
_cell_angle_alpha  89.847461
_cell_angle_beta   98.192893
_cell_angle_gamma 90.394861
loop_
_atom_site_label
_atom_site_type_symbol
_atom_site_fract_x
_atom_site_fract_y
_atom_site_fract_z
_atom_type_partial_charge
H0 H 0.21569 0.93194 0.09452 0.0
H1 H 0.30486 0.85433 0.20816 0.0
H2 H 0.28376 0.83271 0.02296 0.0
C3 C 0.23959 0.90671 0.10015 0.0
C4 C 0.24864 0.88441 0.05151 0.0
C5 C 0.25917 0.89531 0.15649 0.0
C6 C 0.28971 0.86254 0.16433 0.0
C7 C 0.29944 0.83979 0.11651 0.0
C8 C 0.2786 0.85105 0.06012 0.0
H9 H 0.70992 0.57345 0.56836 0.0
H10 H 0.79184 0.6648 0.49879 0.0
H11 H 0.81004 0.64252 0.68379 0.0
C12 C 0.73719 0.59623 0.57533 0.0
C13 C 0.75853 0.60526 0.63211 0.0
C14 C 0.74932 0.61757 0.52748 0.0
C15 C 0.78385 0.64755 0.53598 0.0
C16 C 0.80665 0.65638 0.5923 0.0
C17 C 0.7938 0.63497 0.64013 0.0
H18 H 0.81538 0.08187 0.01203 0.0
H19 H 0.74044 0.1773 0.08232 0.0
H20 H 0.72489 0.15893 0.89709 0.0
C21 C 0.79019 0.10613 0.00559 0.0
C22 C 0.77037 0.11706 0.94894 0.0
C23 C 0.77934 0.12775 0.05374 0.0
C24 C 0.74807 0.15999 0.04518 0.0
C25 C 0.72801 0.17101 0.98881 0.0
C26 C 0.7391 0.14946 0.94078 0.0
H27 H 0.30723 0.43705 0.48981 0.0
H28 H 0.23594 0.33676 0.55694 0.0
H29 H 0.21535 0.36251 0.37298 0.0
C30 C 0.28317 0.41171 0.48311 0.0
C31 C 0.26254 0.40229 0.4263 0.0
C32 C 0.27308 0.38868 0.53087 0.0
C33 C 0.24206 0.35586 0.52071 0.0
C34 C 0.22076 0.34618 0.46398 0.0
C35 C 0.23088 0.36993 0.41701 0.0
O36 O 0.96529 0.09075 0.642 0.0
Mg37 Mg 0.03688 0.08477 0.63934 0.0
O38 O 0.95398 0.02961 0.60401 0.0
Mg39 Mg 0.01497 0.01192 0.55324 0.0
O40 O 0.05024 0.0744 0.55728 0.0
O41 O 0.07212 0.13104 0.6061 0.0
O42 O 0.07286 0.99247 0.50074 0.0
O43 O 0.97587 0.04561 0.46877 0.0
Mg44 Mg 0.96784 0.97589 0.47886 0.0
O45 O 0.98006 0.94442 0.55466 0.0
O46 O 0.0211 0.9804 0.42431 0.0
O47 O 0.90956 0.01498 0.46403 0.0
O48 O 0.94149 0.92021 0.47049 0.0
C49 C 0.07968 0.00506 0.68601 0.0
C50 C 0.9395 0.06008 0.62971 0.0
C51 C 0.07017 0.10964 0.55938 0.0
C52 C 0.0632 0.98511 0.44655 0.0
C53 C 0.93288 0.04424 0.44879 0.0
C54 C 0.95582 0.91589 0.52529 0.0
O55 O 0.07471 0.04256 0.69512 0.0
O56 O 0.06047 0.9883 0.6388 0.0
O57 O 0.52523 0.49288 0.17263 0.0
Mg58 Mg 0.50064 0.45532 0.09994 0.0
O59 O 0.5512 0.5357 0.11251 0.0
Mg60 Mg 0.50308 0.5136 0.03012 0.0
O61 O 0.53766 0.44787 0.03235 0.0
O62 O 0.53909 0.40508 0.10848 0.0
O63 O 0.45417 0.49299 0.94584 0.0
O64 O 0.56432 0.52775 0.97632 0.0
Mg65 Mg 0.4811 0.58995 0.94029 0.0
O66 O 0.47532 0.57709 0.02387 0.0
O67 O 0.43717 0.5476 0.89058 0.0
O68 O 0.55221 0.58758 0.93274 0.0
O69 O 0.45401 0.63643 0.985 0.0
C70 C 0.41368 0.47416 0.09126 0.0
C71 C 0.54925 0.52388 0.16434 0.0
C72 C 0.55157 0.41442 0.05901 0.0
C73 C 0.43262 0.50997 0.90018 0.0
C74 C 0.57787 0.55717 0.94673 0.0
C75 C 0.45808 0.61243 0.02928 0.0
O76 O 0.43007 0.43988 0.08293 0.0
O77 O 0.43842 0.50523 0.08349 0.0
C78 C 0.19479 0.28264 0.40862 0.0
C79 C 0.19055 0.3096 0.45431 0.0
C80 C 0.17157 0.24505 0.40485 0.0
C81 C 0.14456 0.23392 0.44857 0.0
C82 C 0.13749 0.2623 0.4922 0.0
C83 C 0.16014 0.29989 0.49404 0.0
C84 C 0.17851 0.21659 0.35614 0.0
C85 C 0.10862 0.25203 0.53963 0.0
C86 C 0.06334 0.14793 0.46721 0.0
C87 C 0.09125 0.12649 0.51094 0.0
C88 C 0.08214 0.18026 0.43849 0.0
C89 C 0.1293 0.19133 0.45531 0.0
C90 C 0.15881 0.16544 0.49251 0.0
C91 C 0.13922 0.13323 0.5201 0.0
C92 C 0.05021 0.20562 0.3962 0.0
C93 C 0.20962 0.17531 0.51041 0.0
H94 H 0.21808 0.28987 0.37746 0.0
H95 H 0.15556 0.32112 0.5283 0.0
H96 H 0.20967 0.19781 0.36978 0.0
H97 H 0.14823 0.19602 0.34483 0.0
H98 H 0.18449 0.23367 0.31653 0.0
H99 H 0.10536 0.27804 0.56901 0.0
H100 H 0.07322 0.24227 0.52024 0.0
H101 H 0.12473 0.22651 0.56629 0.0
H102 H 0.02609 0.14256 0.46022 0.0
H103 H 0.16059 0.11643 0.55407 0.0
H104 H 0.06896 0.21863 0.36193 0.0
H105 H 0.03668 0.23106 0.41988 0.0
H106 H 0.02004 0.18753 0.37525 0.0
H107 H 0.22621 0.18411 0.47205 0.0
H108 H 0.22889 0.14932 0.53244 0.0
H109 H 0.21294 0.20134 0.54095 0.0
C110 C 0.32701 0.77748 0.17417 0.0
C111 C 0.32866 0.80277 0.12556 0.0
C112 C 0.35185 0.74105 0.18065 0.0
C113 C 0.37726 0.72873 0.13623 0.0
C114 C 0.38041 0.75475 0.08813 0.0
C115 C 0.35687 0.79169 0.0841 0.0
C116 C 0.349 0.71547 0.23403 0.0
C117 C 0.40702 0.74295 0.03931 0.0
C118 C 0.46665 0.65134 0.12017 0.0
C119 C 0.43955 0.62542 0.0814 0.0
C120 C 0.44553 0.68211 0.1485 0.0
C121 C 0.39688 0.68737 0.13537 0.0
C122 C 0.36928 0.65656 0.10508 0.0
C123 C 0.39121 0.62554 0.07854 0.0
C124 C 0.47572 0.71235 0.18516 0.0
C125 C 0.31709 0.65999 0.0922 0.0
H126 H 0.30514 0.78527 0.20654 0.0
H127 H 0.35976 0.81152 0.04748 0.0
H128 H 0.31633 0.69745 0.22749 0.0
H129 H 0.37874 0.69443 0.24343 0.0
H130 H 0.34788 0.73498 0.27273 0.0
H131 H 0.40474 0.76617 0.0043 0.0
H132 H 0.44423 0.7385 0.05654 0.0
H133 H 0.39332 0.71391 0.01967 0.0
H134 H 0.5042 0.65084 0.12275 0.0
H135 H 0.37046 0.60506 0.04871 0.0
H136 H 0.45754 0.72449 0.22032 0.0
H137 H 0.4839 0.73808 0.15742 0.0
H138 H 0.50904 0.6985 0.20484 0.0
H139 H 0.30246 0.66884 0.13187 0.0
H140 H 0.30053 0.6311 0.07553 0.0
H141 H 0.3079 0.68386 0.05883 0.0
C142 C 0.83853 0.71915 0.64489 0.0
C143 C 0.84076 0.69038 0.60095 0.0
C144 C 0.86488 0.75507 0.6469 0.0
C145 C 0.89357 0.76253 0.60352 0.0
C146 C 0.89918 0.73192 0.56249 0.0
C147 C 0.87276 0.6962 0.56177 0.0
C148 C 0.8585 0.78656 0.69204 0.0
C149 C 0.92961 0.73845 0.51565 0.0
C150 C 0.89424 0.86603 0.53511 0.0
C151 C 0.93959 0.87968 0.55389 0.0
C152 C 0.87828 0.82901 0.55384 0.0
C153 C 0.90862 0.8046 0.59218 0.0
C154 C 0.9537 0.81927 0.61432 0.0
C155 C 0.96874 0.85701 0.59498 0.0
C156 C 0.82961 0.81514 0.52983 0.0
C157 C 0.98676 0.79433 0.65587 0.0
H158 H 0.81394 0.71498 0.67544 0.0
H159 H 0.8755 0.67362 0.52864 0.0
H160 H 0.8918 0.80223 0.7077 0.0
H161 H 0.83354 0.8097 0.67229 0.0
H162 H 0.84455 0.773 0.72993 0.0
H163 H 0.93578 0.70985 0.49295 0.0
H164 H 0.91253 0.76017 0.48291 0.0
H165 H 0.96363 0.75169 0.53435 0.0
H166 H 0.87138 0.88401 0.50415 0.0
H167 H 0.0038 0.86771 0.60963 0.0
H168 H 0.81016 0.80652 0.56585 0.0
H169 H 0.83131 0.78799 0.50217 0.0
H170 H 0.80965 0.83888 0.5032 0.0
H171 H 0.96849 0.78017 0.68973 0.0
H172 H 0.01637 0.81278 0.67747 0.0
H173 H 0.00089 0.76954 0.63155 0.0
C174 C 0.65682 0.20845 0.00354 0.0
C175 C 0.69874 0.20735 0.98067 0.0
C176 C 0.63209 0.24465 0.00427 0.0
C177 C 0.65058 0.28068 0.98309 0.0
C178 C 0.69175 0.27915 0.95709 0.0
C179 C 0.71526 0.24225 0.95581 0.0
C180 C 0.58784 0.24483 0.03138 0.0
C181 C 0.71298 0.3169 0.93491 0.0
C182 C 0.5707 0.37163 0.97729 0.0
C183 C 0.58224 0.38631 0.03407 0.0
C184 C 0.59439 0.33829 0.95832 0.0
C185 C 0.63075 0.32022 0.99689 0.0
C186 C 0.64486 0.33742 0.05248 0.0
C187 C 0.61995 0.36991 0.07065 0.0
C188 C 0.5782 0.32064 0.89894 0.0
C189 C 0.68423 0.31981 0.09445 0.0
H190 H 0.64427 0.18124 0.02262 0.0
H191 H 0.748 0.24118 0.93856 0.0
H192 H 0.59429 0.26018 0.0743 0.0
H193 H 0.56031 0.26192 0.00362 0.0
H194 H 0.5748 0.21372 0.03807 0.0
H195 H 0.74002 0.30969 0.90722 0.0
H196 H 0.68598 0.33591 0.90951 0.0
H197 H 0.72935 0.33517 0.97249 0.0
H198 H 0.54121 0.3843 0.94931 0.0
H199 H 0.62889 0.38163 0.11449 0.0
H200 H 0.5587 0.29214 0.90394 0.0
H201 H 0.60823 0.313 0.87647 0.0
H202 H 0.55507 0.34168 0.87103 0.0
H203 H 0.67345 0.29 0.11039 0.0
H204 H 0.69448 0.33973 0.13271 0.0
H205 H 0.71511 0.31481 0.07232 0.0
C206 C 0.21732 0.88808 0.24146 0.0
C207 C 0.24159 0.91307 0.20729 0.0
C208 C 0.1945 0.90432 0.28515 0.0
C209 C 0.19696 0.94653 0.29578 0.0
C210 C 0.22404 0.9716 0.26382 0.0
C211 C 0.24543 0.95461 0.21895 0.0
C212 C 0.16517 0.87658 0.31716 0.0
C213 C 0.22869 0.01649 0.27522 0.0
C214 C 0.08763 0.98297 0.34827 0.0
C215 C 0.09992 0.98125 0.40891 0.0
C216 C 0.12007 0.97467 0.31085 0.0
C217 C 0.16605 0.96434 0.33463 0.0
C218 C 0.17966 0.96547 0.39573 0.0
C219 C 0.14631 0.97395 0.43235 0.0
C220 C 0.1041 0.97416 0.24593 0.0
C221 C 0.22865 0.95539 0.4225 0.0
H222 H 0.21413 0.85599 0.23181 0.0
H223 H 0.26446 0.97377 0.19241 0.0
H224 H 0.17444 0.88035 0.36488 0.0
H225 H 0.12795 0.88461 0.30575 0.0
H226 H 0.16932 0.84421 0.30621 0.0
H227 H 0.25734 0.03018 0.25457 0.0
H228 H 0.19581 0.03173 0.25744 0.0
H229 H 0.23515 0.02259 0.32272 0.0
H230 H 0.05206 0.98957 0.32981 0.0
H231 H 0.15611 0.97309 0.4792 0.0
H232 H 0.10416 0.94259 0.22971 0.0
H233 H 0.12824 0.99204 0.22279 0.0
H234 H 0.06852 0.98655 0.23439 0.0
H235 H 0.23407 0.92228 0.41977 0.0
H236 H 0.23577 0.96446 0.46902 0.0
H237 H 0.25425 0.97056 0.39832 0.0
C238 C 0.69215 0.58479 0.68336 0.0
C239 C 0.7403 0.58715 0.68313 0.0
C240 C 0.6737 0.57251 0.73317 0.0
C241 C 0.70412 0.56236 0.78437 0.0
C242 C 0.75274 0.56235 0.78353 0.0
C243 C 0.77032 0.57502 0.73293 0.0
C244 C 0.62156 0.57302 0.73199 0.0
C245 C 0.78624 0.55101 0.8368 0.0
C246 C 0.64482 0.59097 0.91166 0.0
C247 C 0.62142 0.5549 0.92119 0.0
C248 C 0.67638 0.59275 0.87147 0.0
C249 C 0.6845 0.55755 0.83985 0.0
C250 C 0.66537 0.51996 0.85458 0.0
C251 C 0.63387 0.51904 0.89539 0.0
C252 C 0.69647 0.6334 0.85793 0.0
C253 C 0.67408 0.48157 0.82292 0.0
H254 H 0.66869 0.5946 0.64541 0.0
H255 H 0.80757 0.57624 0.73273 0.0
H256 H 0.6093 0.54383 0.74821 0.0
H257 H 0.61214 0.59724 0.76116 0.0
H258 H 0.60272 0.5785 0.68756 0.0
H259 H 0.82145 0.54451 0.82586 0.0
H260 H 0.78927 0.57639 0.86834 0.0
H261 H 0.77347 0.52414 0.8587 0.0
H262 H 0.63561 0.61862 0.93228 0.0
H263 H 0.61587 0.49105 0.9028 0.0
H264 H 0.67813 0.6447 0.81577 0.0
H265 H 0.73383 0.63077 0.85363 0.0
H266 H 0.69268 0.6562 0.89204 0.0
H267 H 0.65077 0.48061 0.78066 0.0
H268 H 0.66694 0.45428 0.84839 0.0
H269 H 0.71044 0.48044 0.81358 0.0
C270 C 0.79439 0.08218 0.13994 0.0
C271 C 0.80317 0.11864 0.11268 0.0
C272 C 0.81663 0.07343 0.19628 0.0
C273 C 0.84895 0.10159 0.22526 0.0
C274 C 0.85817 0.13835 0.19743 0.0
C275 C 0.83477 0.1466 0.14151 0.0
C276 C 0.80569 0.03401 0.2247 0.0
C277 C 0.89291 0.16875 0.22656 0.0
C278 C 0.87408 0.08722 0.38912 0.0
C279 C 0.9155 0.0654 0.3945 0.0
C280 C 0.85344 0.10151 0.33447 0.0
C281 C 0.87375 0.09195 0.28417 0.0
C282 C 0.91628 0.07067 0.28991 0.0
C283 C 0.93705 0.05824 0.34528 0.0
C284 C 0.80894 0.1253 0.33022 0.0
C285 C 0.9384 0.05884 0.23734 0.0
H286 H 0.76976 0.06077 0.11732 0.0
H287 H 0.84156 0.17469 0.11984 0.0
H288 H 0.83782 0.01589 0.23511 0.0
H289 H 0.79245 0.0401 0.26636 0.0
H290 H 0.77935 0.01565 0.19652 0.0
H291 H 0.89565 0.19609 0.19925 0.0
H292 H 0.88286 0.1782 0.26887 0.0
H293 H 0.92775 0.1547 0.23593 0.0
H294 H 0.85743 0.09235 0.4274 0.0
H295 H 0.9687 0.04058 0.34962 0.0
H296 H 0.77975 0.10692 0.30765 0.0
H297 H 0.81155 0.15317 0.30405 0.0
H298 H 0.80053 0.13398 0.37375 0.0
H299 H 0.91538 0.03709 0.21036 0.0
H300 H 0.97291 0.04453 0.2496 0.0
H301 H 0.94262 0.08572 0.2098 0.0
C302 C 0.27037 0.39625 0.6383 0.0
C303 C 0.29566 0.3984 0.59105 0.0
C304 C 0.29051 0.40803 0.69449 0.0
C305 C 0.33675 0.42292 0.70344 0.0
C306 C 0.36309 0.42335 0.65657 0.0
C307 C 0.34236 0.41083 0.60115 0.0
C308 C 0.2615 0.40649 0.7435 0.0
C309 C 0.4125 0.43911 0.66418 0.0
C310 C 0.3726 0.50603 0.81242 0.0
C311 C 0.40313 0.48586 0.85519 0.0
C312 C 0.34896 0.48535 0.76446 0.0
C313 C 0.35573 0.44326 0.75901 0.0
C314 C 0.38405 0.4221 0.80388 0.0
C315 C 0.40756 0.44371 0.85161 0.0
C316 C 0.31881 0.50913 0.71793 0.0
C317 C 0.39127 0.37705 0.80012 0.0
H318 H 0.23423 0.38677 0.63106 0.0
H319 H 0.36261 0.41146 0.56538 0.0
H320 H 0.28197 0.39431 0.78377 0.0
H321 H 0.25065 0.43757 0.75324 0.0
H322 H 0.22974 0.38758 0.73226 0.0
H323 H 0.42938 0.43451 0.62466 0.0
H324 H 0.41277 0.47199 0.67396 0.0
H325 H 0.43361 0.42389 0.70152 0.0
H326 H 0.36823 0.5385 0.81533 0.0
H327 H 0.43085 0.42786 0.88466 0.0
H328 H 0.28378 0.4951 0.70851 0.0
H329 H 0.33443 0.50867 0.67698 0.0
H330 H 0.31479 0.54117 0.73064 0.0
H331 H 0.35754 0.36121 0.78769 0.0
H332 H 0.40863 0.36428 0.84193 0.0
H333 H 0.41319 0.37068 0.76581 0.0
C334 C 0.73341 0.57646 0.43711 0.0
C335 C 0.72325 0.61018 0.46915 0.0
C336 C 0.70587 0.56672 0.38419 0.0
C337 C 0.6669 0.591 0.36361 0.0
C338 C 0.65748 0.62592 0.39517 0.0
C339 C 0.68597 0.63517 0.44767 0.0
C340 C 0.71732 0.52948 0.35157 0.0
C341 C 0.61609 0.65234 0.37502 0.0
C342 C 0.61107 0.57307 0.20709 0.0
C343 C 0.57652 0.54449 0.21485 0.0
C344 C 0.63992 0.58964 0.2552 0.0
C345 C 0.63379 0.57749 0.31223 0.0
C346 C 0.59754 0.55015 0.32028 0.0
C347 C 0.56948 0.53393 0.27157 0.0
C348 C 0.67806 0.61888 0.24494 0.0
C349 C 0.58935 0.53687 0.38039 0.0
H350 H 0.7623 0.55725 0.45419 0.0
H351 H 0.6782 0.66112 0.47306 0.0
H352 H 0.68949 0.50641 0.35241 0.0
H353 H 0.7189 0.53703 0.30526 0.0
H354 H 0.75098 0.51594 0.37065 0.0
H355 H 0.61645 0.68058 0.40097 0.0
H356 H 0.6151 0.6605 0.32845 0.0
H357 H 0.5836 0.63538 0.379 0.0
H358 H 0.61658 0.58153 0.1634 0.0
H359 H 0.54248 0.51228 0.27805 0.0
H360 H 0.71239 0.60468 0.25856 0.0
H361 H 0.67665 0.64649 0.27172 0.0
H362 H 0.67573 0.62793 0.19846 0.0
H363 H 0.61975 0.51951 0.40149 0.0
H364 H 0.55778 0.51757 0.3793 0.0
H365 H 0.58564 0.56364 0.40808 0.0
C366 C 0.75604 0.08064 0.85343 0.0
C367 C 0.78707 0.09853 0.89805 0.0
C368 C 0.77167 0.06665 0.80245 0.0
C369 C 0.819 0.07193 0.79573 0.0
C370 C 0.85051 0.08915 0.84157 0.0
C371 C 0.83417 0.10185 0.89237 0.0
C372 C 0.73744 0.04747 0.75522 0.0
C373 C 0.90118 0.09599 0.83596 0.0
C374 C 0.88911 0.02359 0.69048 0.0
C375 C 0.89656 0.05731 0.65617 0.0
C376 C 0.8592 0.0261 0.73281 0.0
C377 C 0.83589 0.06291 0.73968 0.0
C378 C 0.8383 0.0948 0.69925 0.0
C379 C 0.86929 0.09183 0.65844 0.0
C380 C 0.8574 0.99132 0.77471 0.0
C381 C 0.81293 0.13412 0.7038 0.0
H382 H 0.71957 0.07807 0.85824 0.0
H383 H 0.85792 0.11615 0.92678 0.0
H384 H 0.73254 0.06744 0.71635 0.0
H385 H 0.75106 0.01825 0.74158 0.0
H386 H 0.70303 0.042 0.76954 0.0
H387 H 0.92133 0.1082 0.87656 0.0
H388 H 0.91732 0.06722 0.82493 0.0
H389 H 0.90415 0.11773 0.8001 0.0
H390 H 0.91036 0.99688 0.68875 0.0
H391 H 0.87485 0.11773 0.63137 0.0
H392 H 0.82208 0.98764 0.78695 0.0
H393 H 0.88173 -0.00242 0.81513 0.0
H394 H 0.86786 0.96242 0.75605 0.0
H395 H 0.77727 0.12859 0.71392 0.0
H396 H 0.81069 0.15205 0.66291 0.0
H397 H 0.83183 0.15248 0.73972 0.0
C398 C 0.32464 0.42091 0.36798 0.0
C399 C 0.27798 0.42333 0.3761 0.0
C400 C 0.33967 0.43646 0.31759 0.0
C401 C 0.30736 0.45578 0.27486 0.0
C402 C 0.26064 0.46038 0.28453 0.0
C403 C 0.24625 0.4434 0.33476 0.0
C404 C 0.38966 0.43021 0.30876 0.0
C405 C 0.2256 0.48191 0.24102 0.0
C406 C 0.37231 0.50798 0.16529 0.0
C407 C 0.37469 0.47626 0.12573 0.0
C408 C 0.34617 0.50362 0.21154 0.0
C409 C 0.3221 0.4668 0.21794 0.0
C410 C 0.31984 0.43697 0.17391 0.0
C411 C 0.34605 0.44216 0.12821 0.0
C412 C 0.34838 0.53666 0.25663 0.0
C413 C 0.29431 0.39736 0.17855 0.0
H414 H 0.34898 0.40511 0.39996 0.0
H415 H 0.21018 0.4454 0.34149 0.0
H416 H 0.39095 0.41048 0.27038 0.0
H417 H 0.40603 0.45957 0.29988 0.0
H418 H 0.41065 0.41599 0.34719 0.0
H419 H 0.19315 0.4887 0.25923 0.0
H420 H 0.24045 0.51065 0.22668 0.0
H421 H 0.21653 0.46271 0.20186 0.0
H422 H 0.39407 0.53462 0.16338 0.0
H423 H 0.34719 0.41786 0.09711 0.0
H424 H 0.3747 0.5287 0.29437 0.0
H425 H 0.31447 0.53997 0.2728 0.0
H426 H 0.35848 0.56622 0.23901 0.0
H427 H 0.31404 0.37845 0.21309 0.0
H428 H 0.29026 0.38011 0.13707 0.0
H429 H 0.25939 0.40255 0.19095 0.0
C430 C 0.24873 0.8949 0.94403 0.0
C431 C 0.22455 0.89454 0.99228 0.0
C432 C 0.22677 0.90696 0.88874 0.0
C433 C 0.17965 0.91907 0.88172 0.0
C434 C 0.15453 0.91682 0.92965 0.0
C435 C 0.17723 0.90451 0.9842 0.0
C436 C 0.25471 0.90881 0.8387 0.0
C437 C 0.10426 0.92952 0.92413 0.0
C438 C 0.13742 0.00249 0.776 0.0
C439 C 0.10857 0.98152 0.73209 0.0
C440 C 0.16221 0.98219 0.82337 0.0
C441 C 0.15833 0.93963 0.82729 0.0
C442 C 0.13112 0.91787 0.78184 0.0
C443 C 0.10648 0.93913 0.73454 0.0
C444 C 0.19096 0.00667 0.87059 0.0
C445 C 0.12668 0.8724 0.78427 0.0
H446 H 0.28529 0.88718 0.9499 0.0
H447 H 0.15798 0.90324 0.02091 0.0
H448 H 0.23464 0.89571 0.79875 0.0
H449 H 0.26237 0.94087 0.8291 0.0
H450 H 0.2882 0.89246 0.84865 0.0
H451 H 0.08849 0.92233 0.96387 0.0
H452 H 0.10177 0.96265 0.91633 0.0
H453 H 0.08354 0.91436 0.88633 0.0
H454 H 0.14002 0.03521 0.77409 0.0
H455 H 0.08452 0.9227 0.70064 0.0
H456 H 0.22694 0.99489 0.87903 0.0
H457 H 0.17584 0.00391 0.91174 0.0
H458 H 0.19258 0.03928 0.85916 0.0
H459 H 0.16156 0.8584 0.79349 0.0
H460 H 0.10816 0.85966 0.74301 0.0
H461 H 0.10726 0.86373 0.82032 0.0
loop_
_geom_bond_atom_site_label_1
_geom_bond_atom_site_label_2
_geom_bond_distance
_geom_bond_site_symmetry_2
_ccdc_geom_bond_type
H0 C3 0.931 . S
H1 C6 0.928 . S
H2 C8 0.938 . S
C3 H0 0.931 . S
C3 C4 1.413 . S
C3 C5 1.360 . S
C4 C3 1.413 . S
C4 C8 1.429 . S
C5 C3 1.360 . S
C5 C6 1.372 . S
C6 H1 0.928 . S
C6 C5 1.372 . S
C6 C7 1.404 . S
C7 C6 1.404 . S
C7 C8 1.391 . S
C8 H2 0.938 . S
C8 C4 1.429 . S
C8 C7 1.391 . S
H9 C12 0.931 . S
H10 C15 0.928 . S
H11 C17 0.930 . S
C12 H9 0.931 . S
C12 C13 1.413 . S
C12 C14 1.360 . S
C13 C12 1.413 . S
C13 C17 1.429 . S
C14 C12 1.360 . S
C14 C15 1.372 . S
C15 H10 0.928 . S
C15 C14 1.372 . S
C15 C16 1.404 . S
C16 C15 1.404 . S
C16 C17 1.391 . S
C17 H11 0.930 . S
C17 C13 1.429 . S
C17 C16 1.391 . S
H18 C21 0.931 . S
H19 C24 0.928 . S
H20 C26 0.930 . S
C21 H18 0.931 . S
C21 C22 1.413 1_554 S
C21 C23 1.360 . S
C22 C21 1.413 1_556 S
C22 C26 1.429 . S
C23 C21 1.360 . S
C23 C24 1.372 . S
C24 H19 0.928 . S
C24 C23 1.372 . S
C24 C25 1.404 1_554 S
C25 C24 1.404 1_556 S
C25 C26 1.391 . S
C26 H20 0.930 . S
C26 C22 1.429 . S
C26 C25 1.391 . S
H27 C30 0.931 . S
H28 C33 0.928 . S
H29 C35 0.930 . S
C30 H27 0.931 . S
C30 C31 1.413 . S
C30 C32 1.360 . S
C31 C30 1.413 . S
C31 C35 1.429 . S
C32 C30 1.360 . S
C32 C33 1.372 . S
C33 H28 0.928 . S
C33 C32 1.372 . S
C33 C34 1.404 . S
C34 C33 1.404 . S
C34 C35 1.391 . S
C35 H29 0.930 . S
C35 C31 1.429 . S
C35 C34 1.391 . S
O36 Mg37 1.990 1_655 S
O36 C50 1.253 . S
Mg37 O36 1.990 1_455 S
Mg37 O40 2.180 . S
Mg37 O41 2.117 . S
Mg37 O55 2.030 . S
O38 Mg39 2.072 1_655 S
O38 C50 1.260 . S
Mg39 O38 2.072 1_455 S
Mg39 O40 2.099 . S
Mg39 O42 2.079 1_545 S
Mg39 O43 2.072 1_455 S
Mg39 O45 2.099 1_445 S
Mg39 O56 2.079 1_545 S
O40 Mg37 2.180 . S
O40 Mg39 2.099 . S
O40 C51 1.279 . S
O41 Mg37 2.117 . S
O41 C51 1.250 . S
O42 Mg39 2.079 1_565 S
O42 C52 1.264 . S
O43 Mg39 2.072 1_655 S
O43 C53 1.260 . S
Mg44 O45 2.180 . S
Mg44 O46 2.030 1_655 S
Mg44 O47 1.990 . S
Mg44 O48 2.117 . S
O45 Mg39 2.099 1_665 S
O45 Mg44 2.180 . S
O45 C54 1.279 . S
O46 Mg44 2.030 1_455 S
O46 C52 1.248 . S
O47 Mg44 1.990 . S
O47 C53 1.253 1_565 S
O48 Mg44 2.117 . S
O48 C54 1.250 . S
C49 O55 1.248 1_565 S
C49 O56 1.264 . S
C50 O36 1.253 . S
C50 O38 1.260 . S
C51 O40 1.279 . S
C51 O41 1.250 . S
C52 O42 1.264 . S
C52 O46 1.248 . S
C53 O43 1.260 . S
C53 O47 1.253 1_545 S
C54 O45 1.279 . S
C54 O48 1.250 . S
O55 Mg37 2.030 . S
O55 C49 1.248 1_545 S
O56 Mg39 2.079 1_565 S
O56 C49 1.264 . S
O57 Mg58 1.990 . S
O57 C71 1.253 . S
Mg58 O57 1.990 . S
Mg58 O61 2.180 . S
Mg58 O62 2.117 . S
Mg58 O76 2.030 . S
O59 Mg60 2.072 . S
O59 C71 1.260 . S
Mg60 O59 2.072 . S
Mg60 O61 2.099 . S
Mg60 O63 2.079 1_554 S
Mg60 O64 2.072 1_554 S
Mg60 O66 2.099 . S
Mg60 O77 2.079 . S
O61 Mg58 2.180 . S
O61 Mg60 2.099 . S
O61 C72 1.279 . S
O62 Mg58 2.117 . S
O62 C72 1.250 . S
O63 Mg60 2.079 1_556 S
O63 C73 1.264 . S
O64 Mg60 2.072 1_556 S
O64 C74 1.260 . S
Mg65 O66 2.180 1_556 S
Mg65 O67 2.030 . S
Mg65 O68 1.990 . S
Mg65 O69 2.117 . S
O66 Mg60 2.099 . S
O66 Mg65 2.180 1_554 S
O66 C75 1.279 . S
O67 Mg65 2.030 . S
O67 C73 1.248 . S
O68 Mg65 1.990 . S
O68 C74 1.253 . S
O69 Mg65 2.117 . S
O69 C75 1.250 1_556 S
C70 O76 1.248 . S
C70 O77 1.264 . S
C71 O57 1.253 . S
C71 O59 1.260 . S
C72 O61 1.279 . S
C72 O62 1.250 . S
C73 O63 1.264 . S
C73 O67 1.248 . S
C74 O64 1.260 . S
C74 O68 1.253 . S
C75 O66 1.279 . S
C75 O69 1.250 1_554 S
O76 Mg58 2.030 . S
O76 C70 1.248 . S
O77 Mg60 2.079 . S
O77 C70 1.264 . S
C78 C79 1.391 . S
C78 C80 1.394 . S
C78 H94 0.931 . S
C79 C78 1.391 . S
C79 C83 1.376 . S
C80 C78 1.394 . S
C80 C81 1.369 . S
C80 C84 1.531 . S
C81 C80 1.369 . S
C81 C82 1.410 . S
C81 C89 1.503 . S
C82 C81 1.410 . S
C82 C83 1.392 . S
C82 C85 1.511 . S
C83 C79 1.376 . S
C83 C82 1.392 . S
C83 H95 0.929 . S
C84 C80 1.531 . S
C84 H96 0.960 . S
C84 H97 0.962 . S
C84 H98 0.960 . S
C85 C82 1.511 . S
C85 H99 0.961 . S
C85 H100 0.961 . S
C85 H101 0.961 . S
C86 C87 1.370 . S
C86 C88 1.363 . S
C86 H102 0.931 . S
C87 C86 1.370 . S
C87 C91 1.408 . S
C88 C86 1.363 . S
C88 C89 1.370 . S
C88 C92 1.524 . S
C89 C81 1.503 . S
C89 C88 1.370 . S
C89 C90 1.403 . S
C90 C89 1.403 . S
C90 C91 1.404 . S
C90 C93 1.539 . S
C91 C87 1.408 . S
C91 C90 1.404 . S
C91 H103 0.930 . S
C92 C88 1.524 . S
C92 H104 0.956 . S
C92 H105 0.961 . S
C92 H106 0.961 . S
C93 C90 1.539 . S
C93 H107 0.958 . S
C93 H108 0.961 . S
C93 H109 0.960 . S
H94 C78 0.931 . S
H95 C83 0.929 . S
H96 C84 0.960 . S
H97 C84 0.962 . S
H98 C84 0.960 . S
H99 C85 0.961 . S
H100 C85 0.961 . S
H101 C85 0.961 . S
H102 C86 0.931 . S
H103 C91 0.930 . S
H104 C92 0.956 . S
H105 C92 0.961 . S
H106 C92 0.961 . S
H107 C93 0.958 . S
H108 C93 0.961 . S
H109 C93 0.960 . S
C110 C111 1.391 . S
C110 C112 1.394 . S
C110 H126 0.931 . S
C111 C110 1.391 . S
C111 C115 1.376 . S
C112 C110 1.394 . S
C112 C113 1.369 . S
C112 C116 1.531 . S
C113 C112 1.369 . S
C113 C114 1.410 . S
C113 C121 1.503 . S
C114 C113 1.410 . S
C114 C115 1.392 . S
C114 C117 1.511 1_554 S
C115 C111 1.376 . S
C115 C114 1.392 . S
C115 H127 0.929 . S
C116 C112 1.531 . S
C116 H128 0.960 . S
C116 H129 0.962 . S
C116 H130 0.960 . S
C117 C114 1.511 1_556 S
C117 H131 0.961 . S
C117 H132 0.961 . S
C117 H133 0.961 . S
C118 C119 1.370 . S
C118 C120 1.363 . S
C118 H134 0.931 . S
C119 C118 1.370 . S
C119 C123 1.408 . S
C120 C118 1.363 . S
C120 C121 1.370 . S
C120 C124 1.524 . S
C121 C113 1.503 . S
C121 C120 1.370 . S
C121 C122 1.403 . S
C122 C121 1.403 . S
C122 C123 1.404 . S
C122 C125 1.539 . S
C123 C119 1.408 . S
C123 C122 1.404 . S
C123 H135 0.930 . S
C124 C120 1.524 . S
C124 H136 0.956 . S
C124 H137 0.961 . S
C124 H138 0.961 . S
C125 C122 1.539 . S
C125 H139 0.958 . S
C125 H140 0.961 1_554 S
C125 H141 0.960 . S
H126 C110 0.931 . S
H127 C115 0.929 . S
H128 C116 0.960 . S
H129 C116 0.962 . S
H130 C116 0.960 . S
H131 C117 0.961 . S
H132 C117 0.961 . S
H133 C117 0.961 . S
H134 C118 0.931 . S
H135 C123 0.930 . S
H136 C124 0.956 . S
H137 C124 0.961 . S
H138 C124 0.961 . S
H139 C125 0.958 . S
H140 C125 0.961 1_556 S
H141 C125 0.960 . S
C142 C143 1.391 . S
C142 C144 1.394 . S
C142 H158 0.931 . S
C143 C142 1.391 . S
C143 C147 1.376 . S
C144 C142 1.394 . S
C144 C145 1.369 . S
C144 C148 1.531 . S
C145 C144 1.369 . S
C145 C146 1.410 . S
C145 C153 1.503 . S
C146 C145 1.410 . S
C146 C147 1.392 . S
C146 C149 1.511 . S
C147 C143 1.376 . S
C147 C146 1.392 . S
C147 H159 0.929 . S
C148 C144 1.531 . S
C148 H160 0.960 . S
C148 H161 0.962 . S
C148 H162 0.960 . S
C149 C146 1.511 . S
C149 H163 0.961 . S
C149 H164 0.961 . S
C149 H165 0.961 . S
C150 C151 1.370 . S
C150 C152 1.363 . S
C150 H166 0.931 . S
C151 C150 1.370 . S
C151 C155 1.408 . S
C152 C150 1.363 . S
C152 C153 1.370 . S
C152 C156 1.524 . S
C153 C145 1.503 . S
C153 C152 1.370 . S
C153 C154 1.403 . S
C154 C153 1.403 . S
C154 C155 1.404 . S
C154 C157 1.539 . S
C155 C151 1.408 . S
C155 C154 1.404 . S
C155 H167 0.930 . S
C156 C152 1.524 . S
C156 H168 0.956 . S
C156 H169 0.961 . S
C156 H170 0.961 . S
C157 C154 1.539 . S
C157 H171 0.958 . S
C157 H172 0.961 1_655 S
C157 H173 0.960 . S
H158 C142 0.931 . S
H159 C147 0.929 . S
H160 C148 0.960 . S
H161 C148 0.962 . S
H162 C148 0.960 . S
H163 C149 0.961 . S
H164 C149 0.961 . S
H165 C149 0.961 . S
H166 C150 0.931 . S
H167 C155 0.930 . S
H168 C156 0.956 . S
H169 C156 0.961 . S
H170 C156 0.961 . S
H171 C157 0.958 . S
H172 C157 0.961 1_455 S
H173 C157 0.960 . S
C174 C175 1.391 . S
C174 C176 1.394 . S
C174 H190 0.931 . S
C175 C174 1.391 . S
C175 C179 1.376 1_554 S
C176 C174 1.394 . S
C176 C177 1.369 . S
C176 C180 1.531 . S
C177 C176 1.369 . S
C177 C178 1.410 . S
C177 C185 1.503 . S
C178 C177 1.410 . S
C178 C179 1.392 1_554 S
C178 C181 1.511 1_554 S
C179 C175 1.376 1_556 S
C179 C178 1.392 1_556 S
C179 H191 0.929 . S
C180 C176 1.531 . S
C180 H192 0.960 . S
C180 H193 0.962 . S
C180 H194 0.960 . S
C181 C178 1.511 1_556 S
C181 H195 0.961 . S
C181 H196 0.961 . S
C181 H197 0.961 1_556 S
C182 C183 1.370 1_556 S
C182 C184 1.363 . S
C182 H198 0.931 . S
C183 C182 1.370 1_554 S
C183 C187 1.408 . S
C184 C182 1.363 . S
C184 C185 1.370 1_556 S
C184 C188 1.524 . S
C185 C177 1.503 . S
C185 C184 1.370 1_554 S
C185 C186 1.403 . S
C186 C185 1.403 . S
C186 C187 1.404 . S
C186 C189 1.539 . S
C187 C183 1.408 . S
C187 C186 1.404 . S
C187 H199 0.930 . S
C188 C184 1.524 . S
C188 H200 0.956 . S
C188 H201 0.961 . S
C188 H202 0.961 . S
C189 C186 1.539 . S
C189 H203 0.958 . S
C189 H204 0.961 . S
C189 H205 0.960 . S
H190 C174 0.931 . S
H191 C179 0.929 . S
H192 C180 0.960 . S
H193 C180 0.962 . S
H194 C180 0.960 . S
H195 C181 0.961 . S
H196 C181 0.961 . S
H197 C181 0.961 1_554 S
H198 C182 0.931 . S
H199 C187 0.930 . S
H200 C188 0.956 . S
H201 C188 0.961 . S
H202 C188 0.961 . S
H203 C189 0.958 . S
H204 C189 0.961 . S
H205 C189 0.960 . S
C206 C207 1.391 . S
C206 C208 1.394 . S
C206 H222 0.931 . S
C207 C206 1.391 . S
C207 C211 1.376 . S
C208 C206 1.394 . S
C208 C209 1.369 . S
C208 C212 1.531 . S
C209 C208 1.369 . S
C209 C210 1.410 . S
C209 C217 1.503 . S
C210 C209 1.410 . S
C210 C211 1.392 . S
C210 C213 1.535 . S
C211 C207 1.376 . S
C211 C210 1.392 . S
C211 H223 0.929 . S
C212 C208 1.531 . S
C212 H224 0.960 . S
C212 H225 0.962 . S
C212 H226 0.960 . S
C213 C210 1.535 . S
C213 H227 0.942 1_565 S
C213 H228 0.952 1_565 S
C213 H229 0.966 . S
C214 C215 1.370 . S
C214 C216 1.363 . S
C214 H230 0.931 . S
C215 C214 1.370 . S
C215 C219 1.408 . S
C216 C214 1.363 . S
C216 C217 1.370 . S
C216 C220 1.524 . S
C217 C209 1.503 . S
C217 C216 1.370 . S
C217 C218 1.403 . S
C218 C217 1.403 . S
C218 C219 1.404 . S
C218 C221 1.539 . S
C219 C215 1.408 . S
C219 C218 1.404 . S
C219 H231 0.930 . S
C220 C216 1.524 . S
C220 H232 0.956 . S
C220 H233 0.961 . S
C220 H234 0.961 . S
C221 C218 1.539 . S
C221 H235 0.958 . S
C221 H236 0.961 . S
C221 H237 0.960 . S
H222 C206 0.931 . S
H223 C211 0.929 . S
H224 C212 0.960 . S
H225 C212 0.962 . S
H226 C212 0.960 . S
H227 C213 0.942 1_545 S
H228 C213 0.952 1_545 S
H229 C213 0.966 . S
H230 C214 0.931 . S
H231 C219 0.930 . S
H232 C220 0.956 . S
H233 C220 0.961 . S
H234 C220 0.961 . S
H235 C221 0.958 . S
H236 C221 0.961 . S
H237 C221 0.960 . S
C238 C239 1.391 . S
C238 C240 1.394 . S
C238 H254 0.931 . S
C239 C238 1.391 . S
C239 C243 1.376 . S
C240 C238 1.394 . S
C240 C241 1.369 . S
C240 C244 1.531 . S
C241 C240 1.369 . S
C241 C242 1.410 . S
C241 C249 1.503 . S
C242 C241 1.410 . S
C242 C243 1.392 . S
C242 C245 1.511 . S
C243 C239 1.376 . S
C243 C242 1.392 . S
C243 H255 0.929 . S
C244 C240 1.531 . S
C244 H256 0.960 . S
C244 H257 0.962 . S
C244 H258 0.960 . S
C245 C242 1.511 . S
C245 H259 0.961 . S
C245 H260 0.961 . S
C245 H261 0.961 . S
C246 C247 1.370 . S
C246 C248 1.363 . S
C246 H262 0.931 . S
C247 C246 1.370 . S
C247 C251 1.408 . S
C248 C246 1.363 . S
C248 C249 1.370 . S
C248 C252 1.524 . S
C249 C241 1.503 . S
C249 C248 1.370 . S
C249 C250 1.403 . S
C250 C249 1.403 . S
C250 C251 1.404 . S
C250 C253 1.539 . S
C251 C247 1.408 . S
C251 C250 1.404 . S
C251 H263 0.930 . S
C252 C248 1.524 . S
C252 H264 0.956 . S
C252 H265 0.961 . S
C252 H266 0.961 . S
C253 C250 1.539 . S
C253 H267 0.958 . S
C253 H268 0.961 . S
C253 H269 0.960 . S
H254 C238 0.931 . S
H255 C243 0.929 . S
H256 C244 0.960 . S
H257 C244 0.962 . S
H258 C244 0.960 . S
H259 C245 0.961 . S
H260 C245 0.961 . S
H261 C245 0.961 . S
H262 C246 0.931 . S
H263 C251 0.930 . S
H264 C252 0.956 . S
H265 C252 0.961 . S
H266 C252 0.961 . S
H267 C253 0.958 . S
H268 C253 0.961 . S
H269 C253 0.960 . S
C270 C271 1.391 . S
C270 C272 1.394 . S
C270 H286 0.931 . S
C271 C270 1.391 . S
C271 C275 1.376 . S
C272 C270 1.394 . S
C272 C273 1.369 . S
C272 C276 1.531 . S
C273 C272 1.369 . S
C273 C274 1.410 . S
C273 C281 1.503 . S
C274 C273 1.410 . S
C274 C275 1.392 . S
C274 C277 1.511 . S
C275 C271 1.376 . S
C275 C274 1.392 . S
C275 H287 0.929 . S
C276 C272 1.531 . S
C276 H288 0.960 . S
C276 H289 0.962 . S
C276 H290 0.960 . S
C277 C274 1.511 . S
C277 H291 0.961 . S
C277 H292 0.961 . S
C277 H293 0.961 . S
C278 C279 1.370 . S
C278 C280 1.363 . S
C278 H294 0.931 . S
C279 C278 1.370 . S
C279 C283 1.408 . S
C280 C278 1.363 . S
C280 C281 1.370 . S
C280 C284 1.524 . S
C281 C273 1.503 . S
C281 C280 1.370 . S
C281 C282 1.403 . S
C282 C281 1.403 . S
C282 C283 1.404 . S
C282 C285 1.539 . S
C283 C279 1.408 . S
C283 C282 1.404 . S
C283 H295 0.930 . S
C284 C280 1.524 . S
C284 H296 0.956 . S
C284 H297 0.961 . S
C284 H298 0.961 . S
C285 C282 1.539 . S
C285 H299 0.958 1_545 S
C285 H300 0.961 . S
C285 H301 0.960 . S
H286 C270 0.931 . S
H287 C275 0.929 . S
H288 C276 0.960 . S
H289 C276 0.962 . S
H290 C276 0.960 . S
H291 C277 0.961 . S
H292 C277 0.961 . S
H293 C277 0.961 . S
H294 C278 0.931 . S
H295 C283 0.930 . S
H296 C284 0.956 . S
H297 C284 0.961 . S
H298 C284 0.961 . S
H299 C285 0.958 1_565 S
H300 C285 0.961 . S
H301 C285 0.960 . S
C302 C303 1.391 . S
C302 C304 1.394 . S
C302 H318 0.931 . S
C303 C302 1.391 . S
C303 C307 1.376 . S
C304 C302 1.394 . S
C304 C305 1.369 . S
C304 C308 1.531 . S
C305 C304 1.369 . S
C305 C306 1.410 . S
C305 C313 1.503 . S
C306 C305 1.410 . S
C306 C307 1.392 . S
C306 C309 1.511 . S
C307 C303 1.376 . S
C307 C306 1.392 . S
C307 H319 0.929 . S
C308 C304 1.531 . S
C308 H320 0.960 . S
C308 H321 0.962 . S
C308 H322 0.960 . S
C309 C306 1.511 . S
C309 H323 0.961 . S
C309 H324 0.961 . S
C309 H325 0.961 . S
C310 C311 1.370 . S
C310 C312 1.363 . S
C310 H326 0.931 . S
C311 C310 1.370 . S
C311 C315 1.408 . S
C312 C310 1.363 . S
C312 C313 1.370 . S
C312 C316 1.524 . S
C313 C305 1.503 . S
C313 C312 1.370 . S
C313 C314 1.403 . S
C314 C313 1.403 . S
C314 C315 1.404 . S
C314 C317 1.539 . S
C315 C311 1.408 . S
C315 C314 1.404 . S
C315 H327 0.930 . S
C316 C312 1.524 . S
C316 H328 0.956 . S
C316 H329 0.961 . S
C316 H330 0.961 . S
C317 C314 1.539 . S
C317 H331 0.958 . S
C317 H332 0.961 . S
C317 H333 0.960 . S
H318 C302 0.931 . S
H319 C307 0.929 . S
H320 C308 0.960 . S
H321 C308 0.962 . S
H322 C308 0.960 . S
H323 C309 0.961 . S
H324 C309 0.961 . S
H325 C309 0.961 . S
H326 C310 0.931 . S
H327 C315 0.930 . S
H328 C316 0.956 . S
H329 C316 0.961 . S
H330 C316 0.961 . S
H331 C317 0.958 . S
H332 C317 0.961 . S
H333 C317 0.960 . S
C334 C335 1.391 . S
C334 C336 1.394 . S
C334 H350 0.931 . S
C335 C334 1.391 . S
C335 C339 1.376 . S
C336 C334 1.394 . S
C336 C337 1.369 . S
C336 C340 1.531 . S
C337 C336 1.369 . S
C337 C338 1.410 . S
C337 C345 1.503 . S
C338 C337 1.410 . S
C338 C339 1.392 . S
C338 C341 1.511 . S
C339 C335 1.376 . S
C339 C338 1.392 . S
C339 H351 0.929 . S
C340 C336 1.531 . S
C340 H352 0.960 . S
C340 H353 0.962 . S
C340 H354 0.960 . S
C341 C338 1.511 . S
C341 H355 0.961 . S
C341 H356 0.961 . S
C341 H357 0.961 . S
C342 C343 1.370 . S
C342 C344 1.363 . S
C342 H358 0.931 . S
C343 C342 1.370 . S
C343 C347 1.408 . S
C344 C342 1.363 . S
C344 C345 1.370 . S
C344 C348 1.524 . S
C345 C337 1.503 . S
C345 C344 1.370 . S
C345 C346 1.403 . S
C346 C345 1.403 . S
C346 C347 1.404 . S
C346 C349 1.539 . S
C347 C343 1.408 . S
C347 C346 1.404 . S
C347 H359 0.930 . S
C348 C344 1.524 . S
C348 H360 0.956 . S
C348 H361 0.961 . S
C348 H362 0.961 . S
C349 C346 1.539 . S
C349 H363 0.958 . S
C349 H364 0.961 . S
C349 H365 0.960 . S
H350 C334 0.931 . S
H351 C339 0.929 . S
H352 C340 0.960 . S
H353 C340 0.962 . S
H354 C340 0.960 . S
H355 C341 0.961 . S
H356 C341 0.961 . S
H357 C341 0.961 . S
H358 C342 0.931 . S
H359 C347 0.930 . S
H360 C348 0.956 . S
H361 C348 0.961 . S
H362 C348 0.961 . S
H363 C349 0.958 . S
H364 C349 0.961 . S
H365 C349 0.960 . S
C366 C367 1.391 . S
C366 C368 1.394 . S
C366 H382 0.931 . S
C367 C366 1.391 . S
C367 C371 1.376 . S
C368 C366 1.394 . S
C368 C369 1.369 . S
C368 C372 1.531 . S
C369 C368 1.369 . S
C369 C370 1.410 . S
C369 C377 1.503 . S
C370 C369 1.410 . S
C370 C371 1.392 . S
C370 C373 1.511 . S
C371 C367 1.376 . S
C371 C370 1.392 . S
C371 H383 0.929 . S
C372 C368 1.531 . S
C372 H384 0.960 . S
C372 H385 0.962 . S
C372 H386 0.960 . S
C373 C370 1.511 . S
C373 H387 0.961 . S
C373 H388 0.961 . S
C373 H389 0.961 . S
C374 C375 1.370 . S
C374 C376 1.363 . S
C374 H390 0.931 . S
C375 C374 1.370 . S
C375 C379 1.408 . S
C376 C374 1.363 . S
C376 C377 1.370 . S
C376 C380 1.524 . S
C377 C369 1.503 . S
C377 C376 1.370 . S
C377 C378 1.403 . S
C378 C377 1.403 . S
C378 C379 1.404 . S
C378 C381 1.539 . S
C379 C375 1.408 . S
C379 C378 1.404 . S
C379 H391 0.930 . S
C380 C376 1.524 . S
C380 H392 0.956 . S
C380 H393 0.961 . S
C380 H394 0.961 . S
C381 C378 1.539 . S
C381 H395 0.958 . S
C381 H396 0.961 . S
C381 H397 0.960 . S
H382 C366 0.931 . S
H383 C371 0.929 . S
H384 C372 0.960 . S
H385 C372 0.962 . S
H386 C372 0.960 . S
H387 C373 0.961 . S
H388 C373 0.961 . S
H389 C373 0.961 . S
H390 C374 0.931 . S
H391 C379 0.930 . S
H392 C380 0.956 . S
H393 C380 0.961 . S
H394 C380 0.961 . S
H395 C381 0.958 . S
H396 C381 0.961 . S
H397 C381 0.960 . S
C398 C399 1.391 . S
C398 C400 1.394 . S
C398 H414 0.931 . S
C399 C398 1.391 . S
C399 C403 1.376 . S
C400 C398 1.394 . S
C400 C401 1.369 . S
C400 C404 1.531 . S
C401 C400 1.369 . S
C401 C402 1.410 . S
C401 C409 1.503 . S
C402 C401 1.410 . S
C402 C403 1.392 . S
C402 C405 1.511 . S
C403 C399 1.376 . S
C403 C402 1.392 . S
C403 H415 0.929 . S
C404 C400 1.531 . S
C404 H416 0.960 . S
C404 H417 0.962 . S
C404 H418 0.960 . S
C405 C402 1.511 . S
C405 H419 0.961 . S
C405 H420 0.961 . S
C405 H421 0.961 . S
C406 C407 1.370 . S
C406 C408 1.363 . S
C406 H422 0.931 . S
C407 C406 1.370 . S
C407 C411 1.408 . S
C408 C406 1.363 . S
C408 C409 1.370 . S
C408 C412 1.524 . S
C409 C401 1.503 . S
C409 C408 1.370 . S
C409 C410 1.403 . S
C410 C409 1.403 . S
C410 C411 1.404 . S
C410 C413 1.539 . S
C411 C407 1.408 . S
C411 C410 1.404 . S
C411 H423 0.930 . S
C412 C408 1.524 . S
C412 H424 0.956 . S
C412 H425 0.961 . S
C412 H426 0.961 . S
C413 C410 1.539 . S
C413 H427 0.958 . S
C413 H428 0.961 . S
C413 H429 0.960 . S
H414 C398 0.931 . S
H415 C403 0.929 . S
H416 C404 0.960 . S
H417 C404 0.962 . S
H418 C404 0.960 . S
H419 C405 0.961 . S
H420 C405 0.961 . S
H421 C405 0.961 . S
H422 C406 0.931 . S
H423 C411 0.930 . S
H424 C412 0.956 . S
H425 C412 0.961 . S
H426 C412 0.961 . S
H427 C413 0.958 . S
H428 C413 0.961 . S
H429 C413 0.960 . S
C430 C431 1.391 . S
C430 C432 1.394 . S
C430 H446 0.931 . S
C431 C430 1.391 . S
C431 C435 1.376 . S
C432 C430 1.394 . S
C432 C433 1.369 . S
C432 C436 1.531 . S
C433 C432 1.369 . S
C433 C434 1.410 . S
C433 C441 1.503 . S
C434 C433 1.410 . S
C434 C435 1.392 . S
C434 C437 1.511 . S
C435 C431 1.376 . S
C435 C434 1.392 . S
C435 H447 0.929 1_556 S
C436 C432 1.531 . S
C436 H448 0.960 . S
C436 H449 0.962 . S
C436 H450 0.960 . S
C437 C434 1.511 . S
C437 H451 0.961 . S
C437 H452 0.961 . S
C437 H453 0.961 . S
C438 C439 1.370 . S
C438 C440 1.363 . S
C438 H454 0.931 1_565 S
C439 C438 1.370 . S
C439 C443 1.408 . S
C440 C438 1.363 . S
C440 C441 1.370 . S
C440 C444 1.524 1_565 S
C441 C433 1.503 . S
C441 C440 1.370 . S
C441 C442 1.403 . S
C442 C441 1.403 . S
C442 C443 1.404 . S
C442 C445 1.539 . S
C443 C439 1.408 . S
C443 C442 1.404 . S
C443 H455 0.930 . S
C444 C440 1.524 1_545 S
C444 H456 0.956 . S
C444 H457 0.961 . S
C444 H458 0.961 . S
C445 C442 1.539 . S
C445 H459 0.958 . S
C445 H460 0.961 . S
C445 H461 0.960 . S
H446 C430 0.931 . S
H447 C435 0.929 1_554 S
H448 C436 0.960 . S
H449 C436 0.962 . S
H450 C436 0.960 . S
H451 C437 0.961 . S
H452 C437 0.961 . S
H453 C437 0.961 . S
H454 C438 0.931 1_545 S
H455 C443 0.930 . S
H456 C444 0.956 . S
H457 C444 0.961 . S
H458 C444 0.961 . S
H459 C445 0.958 . S
H460 C445 0.961 . S
H461 C445 0.960 . S
C87 C51 1.241 . S
C79 C34 1.422 . S
C111 C7 1.430 . S
C119 C75 1.250 . S
C143 C16 1.591 . S
C151 C54 1.375 . S
C175 C25 1.567 1_554 S
C183 C72 1.350 . S
C215 C52 1.482 . S
C207 C5 1.511 . S
C247 C74 1.502 . S
C239 C13 1.545 . S
C271 C23 1.537 . S
C279 C53 1.470 . S
C303 C32 1.481 . S
C311 C73 1.458 . S
C343 C71 1.468 . S
C335 C14 1.535 . S
C375 C50 1.486 . S
C367 C22 1.548 . S
C407 C70 1.476 . S
C399 C31 1.500 . S
C431 C4 1.487 1_556 S
C439 C49 1.458 . S
