# Generated by pormake.
# Topology ptr, (4,4)-cn, num edge types: 1
# Building blocks:
#     Node 0, Type 0, BuildingBlock: QUQFOY_clean_sbu_1, # of connection points: 4
#     Node 1, Type 0, BuildingBlock: QUQFOY_clean_sbu_1, # of connection points: 4
#     Node 2, Type 0, BuildingBlock: QUQFOY_clean_sbu_1, # of connection points: 4
#     Node 3, Type 0, BuildingBlock: QUQFOY_clean_sbu_1, # of connection points: 4
#     Node 4, Type 0, BuildingBlock: QUQFOY_clean_sbu_1, # of connection points: 4
#     Node 5, Type 0, BuildingBlock: QUQFOY_clean_sbu_1, # of connection points: 4
#     Node 6, Type 0, BuildingBlock: QUQFOY_clean_sbu_1, # of connection points: 4
#     Node 7, Type 0, BuildingBlock: QUQFOY_clean_sbu_1, # of connection points: 4
#     Node 8, Type 0, BuildingBlock: QUQFOY_clean_sbu_1, # of connection points: 4
#     Node 9, Type 0, BuildingBlock: QUQFOY_clean_sbu_1, # of connection points: 4
#     Node 10, Type 0, BuildingBlock: QUQFOY_clean_sbu_1, # of connection points: 4
#     Node 11, Type 0, BuildingBlock: QUQFOY_clean_sbu_1, # of connection points: 4
#     Node 12, Type 0, BuildingBlock: QUQFOY_clean_sbu_1, # of connection points: 4
#     Node 13, Type 0, BuildingBlock: QUQFOY_clean_sbu_1, # of connection points: 4
#     Node 14, Type 0, BuildingBlock: QUQFOY_clean_sbu_1, # of connection points: 4
#     Node 15, Type 0, BuildingBlock: QUQFOY_clean_sbu_1, # of connection points: 4
#     Node 16, Type 0, BuildingBlock: QUQFOY_clean_sbu_1, # of connection points: 4
#     Node 17, Type 0, BuildingBlock: QUQFOY_clean_sbu_1, # of connection points: 4
#     Node 18, Type 1, BuildingBlock: GIZVER_clean_linker_0, # of connection points: 4
#     Node 19, Type 1, BuildingBlock: GIZVER_clean_linker_0, # of connection points: 4
#     Node 20, Type 1, BuildingBlock: GIZVER_clean_linker_0, # of connection points: 4
#     Node 21, Type 1, BuildingBlock: GIZVER_clean_linker_0, # of connection points: 4
#     Node 22, Type 1, BuildingBlock: GIZVER_clean_linker_0, # of connection points: 4
#     Node 23, Type 1, BuildingBlock: GIZVER_clean_linker_0, # of connection points: 4
#     Node 24, Type 1, BuildingBlock: GIZVER_clean_linker_0, # of connection points: 4
#     Node 25, Type 1, BuildingBlock: GIZVER_clean_linker_0, # of connection points: 4
#     Node 26, Type 1, BuildingBlock: GIZVER_clean_linker_0, # of connection points: 4
#     Node 27, Type 1, BuildingBlock: GIZVER_clean_linker_0, # of connection points: 4
#     Node 28, Type 1, BuildingBlock: GIZVER_clean_linker_0, # of connection points: 4
#     Node 29, Type 1, BuildingBlock: GIZVER_clean_linker_0, # of connection points: 4
#     Node 30, Type 1, BuildingBlock: GIZVER_clean_linker_0, # of connection points: 4
#     Node 31, Type 1, BuildingBlock: GIZVER_clean_linker_0, # of connection points: 4
#     Node 32, Type 1, BuildingBlock: GIZVER_clean_linker_0, # of connection points: 4
#     Node 33, Type 1, BuildingBlock: GIZVER_clean_linker_0, # of connection points: 4
#     Node 34, Type 1, BuildingBlock: GIZVER_clean_linker_0, # of connection points: 4
#     Node 35, Type 1, BuildingBlock: GIZVER_clean_linker_0, # of connection points: 4
#     Edge 36, Type (0, 1), BuildingBlock: EZIPEK_clean_linker_0, # of connection points: 2
#     Edge 37, Type (0, 1), BuildingBlock: EZIPEK_clean_linker_0, # of connection points: 2
#     Edge 38, Type (0, 1), BuildingBlock: EZIPEK_clean_linker_0, # of connection points: 2
#     Edge 39, Type (0, 1), BuildingBlock: EZIPEK_clean_linker_0, # of connection points: 2
#     Edge 40, Type (0, 1), BuildingBlock: EZIPEK_clean_linker_0, # of connection points: 2
#     Edge 41, Type (0, 1), BuildingBlock: EZIPEK_clean_linker_0, # of connection points: 2
#     Edge 42, Type (0, 1), BuildingBlock: EZIPEK_clean_linker_0, # of connection points: 2
#     Edge 43, Type (0, 1), BuildingBlock: EZIPEK_clean_linker_0, # of connection points: 2
#     Edge 44, Type (0, 1), BuildingBlock: EZIPEK_clean_linker_0, # of connection points: 2
#     Edge 45, Type (0, 1), BuildingBlock: EZIPEK_clean_linker_0, # of connection points: 2
#     Edge 46, Type (0, 1), BuildingBlock: EZIPEK_clean_linker_0, # of connection points: 2
#     Edge 47, Type (0, 1), BuildingBlock: EZIPEK_clean_linker_0, # of connection points: 2
#     Edge 48, Type (0, 1), BuildingBlock: EZIPEK_clean_linker_0, # of connection points: 2
#     Edge 49, Type (0, 1), BuildingBlock: EZIPEK_clean_linker_0, # of connection points: 2
#     Edge 50, Type (0, 1), BuildingBlock: EZIPEK_clean_linker_0, # of connection points: 2
#     Edge 51, Type (0, 1), BuildingBlock: EZIPEK_clean_linker_0, # of connection points: 2
#     Edge 52, Type (0, 1), BuildingBlock: EZIPEK_clean_linker_0, # of connection points: 2
#     Edge 53, Type (0, 1), BuildingBlock: EZIPEK_clean_linker_0, # of connection points: 2
#     Edge 54, Type (0, 1), BuildingBlock: EZIPEK_clean_linker_0, # of connection points: 2
#     Edge 55, Type (0, 1), BuildingBlock: EZIPEK_clean_linker_0, # of connection points: 2
#     Edge 56, Type (0, 1), BuildingBlock: EZIPEK_clean_linker_0, # of connection points: 2
#     Edge 57, Type (0, 1), BuildingBlock: EZIPEK_clean_linker_0, # of connection points: 2
#     Edge 58, Type (0, 1), BuildingBlock: EZIPEK_clean_linker_0, # of connection points: 2
#     Edge 59, Type (0, 1), BuildingBlock: EZIPEK_clean_linker_0, # of connection points: 2
#     Edge 60, Type (0, 1), BuildingBlock: EZIPEK_clean_linker_0, # of connection points: 2
#     Edge 61, Type (0, 1), BuildingBlock: EZIPEK_clean_linker_0, # of connection points: 2
#     Edge 62, Type (0, 1), BuildingBlock: EZIPEK_clean_linker_0, # of connection points: 2
#     Edge 63, Type (0, 1), BuildingBlock: EZIPEK_clean_linker_0, # of connection points: 2
#     Edge 64, Type (0, 1), BuildingBlock: EZIPEK_clean_linker_0, # of connection points: 2
#     Edge 65, Type (0, 1), BuildingBlock: EZIPEK_clean_linker_0, # of connection points: 2
#     Edge 66, Type (0, 1), BuildingBlock: EZIPEK_clean_linker_0, # of connection points: 2
#     Edge 67, Type (0, 1), BuildingBlock: EZIPEK_clean_linker_0, # of connection points: 2
#     Edge 68, Type (0, 1), BuildingBlock: EZIPEK_clean_linker_0, # of connection points: 2
#     Edge 69, Type (0, 1), BuildingBlock: EZIPEK_clean_linker_0, # of connection points: 2
#     Edge 70, Type (0, 1), BuildingBlock: EZIPEK_clean_linker_0, # of connection points: 2
#     Edge 71, Type (0, 1), BuildingBlock: EZIPEK_clean_linker_0, # of connection points: 2
#     Edge 72, Type (0, 1), BuildingBlock: EZIPEK_clean_linker_0, # of connection points: 2
#     Edge 73, Type (0, 1), BuildingBlock: EZIPEK_clean_linker_0, # of connection points: 2
#     Edge 74, Type (0, 1), BuildingBlock: EZIPEK_clean_linker_0, # of connection points: 2
#     Edge 75, Type (0, 1), BuildingBlock: EZIPEK_clean_linker_0, # of connection points: 2
#     Edge 76, Type (0, 1), BuildingBlock: EZIPEK_clean_linker_0, # of connection points: 2
#     Edge 77, Type (0, 1), BuildingBlock: EZIPEK_clean_linker_0, # of connection points: 2
#     Edge 78, Type (0, 1), BuildingBlock: EZIPEK_clean_linker_0, # of connection points: 2
#     Edge 79, Type (0, 1), BuildingBlock: EZIPEK_clean_linker_0, # of connection points: 2
#     Edge 80, Type (0, 1), BuildingBlock: EZIPEK_clean_linker_0, # of connection points: 2
#     Edge 81, Type (0, 1), BuildingBlock: EZIPEK_clean_linker_0, # of connection points: 2
#     Edge 82, Type (0, 1), BuildingBlock: EZIPEK_clean_linker_0, # of connection points: 2
#     Edge 83, Type (0, 1), BuildingBlock: EZIPEK_clean_linker_0, # of connection points: 2
#     Edge 84, Type (0, 1), BuildingBlock: EZIPEK_clean_linker_0, # of connection points: 2
#     Edge 85, Type (0, 1), BuildingBlock: EZIPEK_clean_linker_0, # of connection points: 2
#     Edge 86, Type (0, 1), BuildingBlock: EZIPEK_clean_linker_0, # of connection points: 2
#     Edge 87, Type (0, 1), BuildingBlock: EZIPEK_clean_linker_0, # of connection points: 2
#     Edge 88, Type (0, 1), BuildingBlock: EZIPEK_clean_linker_0, # of connection points: 2
#     Edge 89, Type (0, 1), BuildingBlock: EZIPEK_clean_linker_0, # of connection points: 2
#     Edge 90, Type (0, 1), BuildingBlock: EZIPEK_clean_linker_0, # of connection points: 2
#     Edge 91, Type (0, 1), BuildingBlock: EZIPEK_clean_linker_0, # of connection points: 2
#     Edge 92, Type (0, 1), BuildingBlock: EZIPEK_clean_linker_0, # of connection points: 2
#     Edge 93, Type (0, 1), BuildingBlock: EZIPEK_clean_linker_0, # of connection points: 2
#     Edge 94, Type (0, 1), BuildingBlock: EZIPEK_clean_linker_0, # of connection points: 2
#     Edge 95, Type (0, 1), BuildingBlock: EZIPEK_clean_linker_0, # of connection points: 2
#     Edge 96, Type (0, 1), BuildingBlock: EZIPEK_clean_linker_0, # of connection points: 2
#     Edge 97, Type (0, 1), BuildingBlock: EZIPEK_clean_linker_0, # of connection points: 2
#     Edge 98, Type (0, 1), BuildingBlock: EZIPEK_clean_linker_0, # of connection points: 2
#     Edge 99, Type (0, 1), BuildingBlock: EZIPEK_clean_linker_0, # of connection points: 2
#     Edge 100, Type (0, 1), BuildingBlock: EZIPEK_clean_linker_0, # of connection points: 2
#     Edge 101, Type (0, 1), BuildingBlock: EZIPEK_clean_linker_0, # of connection points: 2
#     Edge 102, Type (0, 1), BuildingBlock: EZIPEK_clean_linker_0, # of connection points: 2
#     Edge 103, Type (0, 1), BuildingBlock: EZIPEK_clean_linker_0, # of connection points: 2
#     Edge 104, Type (0, 1), BuildingBlock: EZIPEK_clean_linker_0, # of connection points: 2
#     Edge 105, Type (0, 1), BuildingBlock: EZIPEK_clean_linker_0, # of connection points: 2
#     Edge 106, Type (0, 1), BuildingBlock: EZIPEK_clean_linker_0, # of connection points: 2
#     Edge 107, Type (0, 1), BuildingBlock: EZIPEK_clean_linker_0, # of connection points: 2
# Relax obj value: 0.019
# Max RMSD: 0.067
# Mean RMSD: 0.054
data_MOF--net-ptr--node1-QUQFOY_clean_sbu_1--node2-GIZVER_clean_linker_0--edge1-EZIPEK_clean_linker_0
_symmetry_space_group_name_H-M    P1
_symmetry_Int_Tables_number       1
_symmetry_cell_setting            triclinic
loop_
_symmetry_equiv_pos_as_xyz
'x, y, z'
_cell_length_a     61.153818
_cell_length_b     61.133067
_cell_length_c     37.066259
_cell_angle_alpha  90.492708
_cell_angle_beta   90.26125
_cell_angle_gamma 120.04562
loop_
_atom_site_label
_atom_site_type_symbol
_atom_site_fract_x
_atom_site_fract_y
_atom_site_fract_z
_atom_type_partial_charge
O0 O 0.02818 0.42003 0.06666 0.0
Cd1 Cd 0.03363 0.40502 0.0196 0.0
Cd2 Cd 0.98183 0.38804 0.01363 0.0
O3 O 0.98751 0.40738 0.06211 0.0
O4 O 0.06761 0.40842 0.02778 0.0
O5 O 0.03308 0.37167 0.01827 0.0
C6 C 0.05701 0.38416 0.02547 0.0
C7 C 0.94991 0.34588 0.00499 0.0
C8 C 1.0085 0.41942 0.07894 0.0
C9 C 0.01622 0.42206 0.95518 0.0
O10 O 0.99392 0.40945 0.96747 0.0
O11 O 0.03489 0.42294 0.97186 0.0
O12 O 0.94467 0.36378 0.00824 0.0
O13 O 0.97328 0.35178 0.00879 0.0
O14 O 0.59324 0.613 0.06506 0.0
Cd15 Cd 0.60689 0.63471 0.01953 0.0
Cd16 Cd 0.63817 0.61307 0.01812 0.0
O17 O 0.61999 0.59858 0.06652 0.0
O18 O 0.59757 0.66168 0.02185 0.0
O19 O 0.63695 0.66951 0.02632 0.0
C20 C 0.62118 0.67775 0.02734 0.0
C21 C 0.68051 0.62412 0.01008 0.0
C22 C 0.6017 0.60007 0.0801 0.0
C23 C 0.60102 0.60208 0.95587 0.0
O24 O 0.6176 0.59841 0.971 0.0
O25 O 0.5941 0.61648 0.97043 0.0
O26 O 0.66316 0.60116 0.01581 0.0
O27 O 0.67427 0.6414 0.01183 0.0
O28 O 0.42684 0.02653 0.97236 0.0
Cd29 Cd 0.40585 0.03046 0.01302 0.0
Cd30 Cd 0.37782 0.97932 0.00258 0.0
O31 O 0.3974 0.98845 0.95442 0.0
O32 O 0.41671 0.06717 0.01543 0.0
O33 O 0.37834 0.03768 -0.00189 0.0
C34 C 0.39471 0.06135 0.00293 0.0
C35 C 0.33412 0.94904 0.00351 0.0
C36 C 0.4186 0.00837 0.94958 0.0
C37 C 0.40794 0.99924 0.07152 0.0
O38 O 0.39742 0.98094 0.04909 0.0
O39 O 0.4106 0.02068 0.06416 0.0
O40 O 0.35117 0.94285 -0.00137 0.0
O41 O 0.34214 0.9729 0.00753 0.0
O42 O 0.99035 0.58338 0.97502 0.0
Cd43 Cd 0.98655 0.60417 0.01625 0.0
Cd44 Cd 0.03621 0.63484 0.00522 0.0
O45 O 0.02709 0.61455 0.95716 0.0
O46 O 0.9502 0.59428 0.01802 0.0
O47 O 0.98051 0.63209 0.00101 0.0
C48 C 0.95671 0.61624 0.00516 0.0
C49 C 0.06378 0.67906 0.00439 0.0
C50 C 1.00795 0.59271 0.95197 0.0
C51 C 0.02022 0.60589 0.07449 0.0
O52 O 0.03787 0.61734 0.05193 0.0
O53 O 0.99788 0.60091 0.06715 0.0
O54 O 0.07154 0.66319 -0.00039 0.0
O55 O 0.03985 0.66954 0.00954 0.0
O56 O 0.41705 0.40389 0.96729 0.0
Cd57 Cd 0.39937 0.38394 0.0135 0.0
Cd58 Cd 0.38063 0.41739 0.00718 0.0
O59 O 0.39827 0.4262 0.95797 0.0
O60 O 0.41173 0.35917 0.01607 0.0
O61 O 0.37199 0.3475 0.00413 0.0
C62 C 0.38946 0.34158 0.00659 0.0
C63 C 0.33767 0.40185 0.01708 0.0
C64 C 0.41373 0.4192 0.94814 0.0
C65 C 0.41204 0.42387 0.07201 0.0
O66 O 0.4038 0.43448 0.05099 0.0
O67 O 0.40963 0.40248 0.06369 0.0
O68 O 0.35246 0.42515 0.00849 0.0
O69 O 0.34696 0.38692 0.01741 0.0
O70 O 0.60074 0.98974 0.06412 0.0
Cd71 Cd 0.61457 0.98176 0.01789 0.0
Cd72 Cd 0.6339 0.03323 0.01186 0.0
O73 O 0.61396 0.03043 0.05807 0.0
O74 O 0.6103 0.94763 0.02764 0.0
O75 O 0.64739 0.98126 0.01755 0.0
C76 C 0.63447 0.9576 0.02554 0.0
C77 C 0.6773 0.06158 0.00682 0.0
C78 C 0.60165 0.00994 0.0753 0.0
C79 C 0.59881 0.99878 0.9525 0.0
O80 O 0.61311 0.0211 0.96452 0.0
O81 O 0.59628 0.97974 0.96971 0.0
O82 O 0.66096 0.06887 0.00271 0.0
O83 O 0.66896 0.03835 0.01575 0.0
O84 O 0.6928 0.74676 0.3962 0.0
Cd85 Cd 0.69499 0.7288 0.34937 0.0
Cd86 Cd 0.6441 0.71415 0.35122 0.0
O87 O 0.65178 0.73201 0.40067 0.0
O88 O 0.72969 0.73312 0.3542 0.0
O89 O 0.69517 0.69578 0.35173 0.0
C90 C 0.7194 0.7089 0.35583 0.0
C91 C 0.61327 0.67194 0.34017 0.0
C92 C 0.67411 0.74565 0.4129 0.0
C93 C 0.67408 0.74617 0.2892 0.0
O94 O 0.65414 0.73785 0.30785 0.0
O95 O 0.69211 0.74283 0.29949 0.0
O96 O 0.6071 0.68887 0.34715 0.0
O97 O 0.63698 0.67873 0.3417 0.0
O98 O 0.25776 0.94215 0.39238 0.0
Cd99 Cd 0.27067 0.96364 0.34669 0.0
Cd100 Cd 0.30439 0.94553 0.34597 0.0
O101 O 0.28477 0.92809 0.39228 0.0
O102 O 0.26067 0.9901 0.34901 0.0
O103 O 0.30028 0.99853 0.35364 0.0
C104 C 0.28419 0.00638 0.35481 0.0
C105 C 0.34846 0.96095 0.34703 0.0
C106 C 0.26649 0.9292 0.40657 0.0
C107 C 0.26842 0.933 0.28213 0.0
O108 O 0.28657 0.93168 0.29675 0.0
O109 O 0.25906 0.94506 0.29753 0.0
O110 O 0.33203 0.93721 0.34516 0.0
O111 O 0.33964 0.9762 0.34792 0.0
O112 O 0.09921 0.36104 0.30628 0.0
Cd113 Cd 0.08056 0.36738 0.34786 0.0
Cd114 Cd 0.05025 0.31592 0.33941 0.0
O115 O 0.06706 0.32421 0.28907 0.0
O116 O 0.09297 0.40446 0.34849 0.0
O117 O 0.05372 0.3756 0.33369 0.0
C118 C 0.07092 0.39915 0.33688 0.0
C119 C 1.00769 0.28602 0.34921 0.0
C120 C 0.08893 0.34302 0.28335 0.0
C121 C 0.08306 0.33638 0.40591 0.0
O122 O 0.07223 0.31813 0.38343 0.0
O123 O 0.08555 0.35782 0.39903 0.0
O124 O 0.02339 0.2794 0.3376 0.0
O125 O 0.01551 0.30992 0.35194 0.0
O126 O 0.65171 0.9174 0.31131 0.0
Cd127 Cd 0.64627 0.93713 0.35246 0.0
Cd128 Cd 0.69676 0.96714 0.3444 0.0
O129 O 0.68798 0.94971 0.29424 0.0
O130 O 0.60975 0.92672 0.35192 0.0
O131 O 0.64021 0.96503 0.3371 0.0
C132 C 0.61635 0.94883 0.33955 0.0
C133 C 0.72715 0.00975 0.3532 0.0
C134 C 0.66938 0.92761 0.28848 0.0
C135 C 0.67747 0.93526 0.41074 0.0
O136 O 0.69539 0.94587 0.38835 0.0
O137 O 0.65595 0.93268 0.40385 0.0
O138 O 0.73328 0.99353 0.34209 0.0
O139 O 0.7034 1.0023 0.35628 0.0
O140 O 0.08522 0.73584 0.30245 0.0
Cd141 Cd 0.06828 0.71677 0.34963 0.0
Cd142 Cd 0.04686 0.74626 0.34073 0.0
O143 O 0.06243 0.75379 0.28994 0.0
O144 O 0.07896 0.69077 0.35304 0.0
O145 O 0.0394 0.68052 0.34617 0.0
C146 C 0.0557 0.67316 0.34995 0.0
C147 C 1.00344 0.72534 0.35266 0.0
C148 C 0.07953 0.74866 0.28143 0.0
C149 C 0.08051 0.75727 0.40529 0.0
O150 O 0.07072 0.76592 0.38346 0.0
O151 O 0.07949 0.73635 0.39846 0.0
O152 O 0.01602 0.74943 0.34742 0.0
O153 O 0.0154 0.71304 0.34866 0.0
O154 O 0.26142 0.31557 0.38704 0.0
Cd155 Cd 0.27556 0.30707 0.34177 0.0
Cd156 Cd 0.3 0.35966 0.33829 0.0
O157 O 0.28045 0.35727 0.38481 0.0
O158 O 0.26537 0.27056 0.34648 0.0
O159 O 0.30506 0.30146 0.34952 0.0
C160 C 0.28883 0.27763 0.3519 0.0
C161 C 0.34391 0.38559 0.33365 0.0
C162 C 0.26538 0.3366 0.40013 0.0
C163 C 0.26513 0.32941 0.27649 0.0
O164 O 0.27964 0.35097 0.29069 0.0
O165 O 0.26139 0.30932 0.29186 0.0
O166 O 0.32894 0.39471 0.33149 0.0
O167 O 0.33396 0.36182 0.34062 0.0
O168 O 0.36712 0.0891 0.72133 0.0
Cd169 Cd 0.37175 0.0722 0.67609 0.0
Cd170 Cd 0.3192 0.05043 0.67465 0.0
O171 O 0.32558 0.06728 0.72569 0.0
O172 O 0.40576 0.07566 0.68401 0.0
O173 O 0.37073 0.03876 0.67855 0.0
C174 C 0.39478 0.05134 0.68489 0.0
C175 C 0.2875 0.00823 0.66437 0.0
C176 C 0.34707 0.08383 0.7382 0.0
C177 C 0.35038 0.08565 0.61372 0.0
O178 O 0.32907 0.07309 0.62914 0.0
O179 O 0.37021 0.08713 0.62734 0.0
O180 O 0.28198 0.02571 0.6704 0.0
O181 O 0.31104 0.01445 0.66618 0.0
O182 O 0.92692 0.2769 0.73181 0.0
Cd183 Cd 0.94287 0.29926 0.68689 0.0
Cd184 Cd 0.97005 0.2733 0.68877 0.0
O185 O 0.95355 0.26263 0.73852 0.0
O186 O 0.93306 0.32598 0.68864 0.0
O187 O 0.97231 0.33407 0.69676 0.0
C188 C 0.95632 0.34206 0.69642 0.0
C189 C 0.01201 0.28429 0.67822 0.0
C190 C 0.93504 0.26469 0.74972 0.0
C191 C 0.93585 0.26437 0.62503 0.0
O192 O 0.94749 0.25626 0.64422 0.0
O193 O 0.93372 0.28306 0.63559 0.0
O194 O 0.99526 0.26166 0.687 0.0
O195 O 1.00549 0.3014 0.67842 0.0
O196 O 0.77051 0.6981 0.64124 0.0
Cd197 Cd 0.75246 0.70499 0.68309 0.0
Cd198 Cd 0.72241 0.65283 0.67683 0.0
O199 O 0.73842 0.66064 0.62611 0.0
O200 O 0.76517 0.74206 0.68288 0.0
O201 O 0.72567 0.71326 0.66916 0.0
C202 C 0.74304 0.73678 0.67168 0.0
C203 C 0.68031 0.622 0.68718 0.0
C204 C 0.75992 0.67959 0.61914 0.0
C205 C 0.75575 0.67532 0.74246 0.0
O206 O 0.74502 0.65658 0.72078 0.0
O207 O 0.75792 0.69646 0.73454 0.0
O208 O 0.6966 0.61594 0.67636 0.0
O209 O 0.6873 0.64574 0.68905 0.0
O210 O 0.332 0.25758 0.62739 0.0
Cd211 Cd 0.32385 0.27304 0.67174 0.0
Cd212 Cd 0.37679 0.30199 0.67276 0.0
O213 O 0.37336 0.28307 0.62525 0.0
O214 O 0.28679 0.25985 0.66756 0.0
O215 O 0.31539 0.30029 0.66146 0.0
C216 C 0.29201 0.28251 0.66015 0.0
C217 C 0.40527 0.34596 0.67488 0.0
C218 C 0.35309 0.26498 0.61205 0.0
C219 C 0.35102 0.26902 0.73666 0.0
O220 O 0.37143 0.28252 0.71982 0.0
O221 O 0.32988 0.2643 0.72333 0.0
O222 O 0.41273 0.32964 0.67515 0.0
O223 O 0.38114 0.337 0.67402 0.0
O224 O 0.7595 0.0757 0.64249 0.0
Cd225 Cd 0.74315 0.05405 0.68708 0.0
Cd226 Cd 0.71602 0.08019 0.68341 0.0
O227 O 0.73245 0.08904 0.63245 0.0
O228 O 0.75588 0.02961 0.68667 0.0
O229 O 0.71575 0.01789 0.67729 0.0
C230 C 0.73337 0.01208 0.67796 0.0
C231 C 0.67287 0.06462 0.69302 0.0
C232 C 0.75131 0.08699 0.62276 0.0
C233 C 0.75113 0.09043 0.74726 0.0
O234 O 0.73819 0.09753 0.72892 0.0
O235 O 0.75387 0.07217 0.73639 0.0
O236 O 0.68778 0.08792 0.68471 0.0
O237 O 0.68211 0.04966 0.69331 0.0
O238 O 0.93539 0.65592 0.72935 0.0
Cd239 Cd 0.94785 0.64769 0.68207 0.0
Cd240 Cd 0.96842 0.69891 0.67664 0.0
O241 O 0.95007 0.69693 0.7243 0.0
O242 O 0.94345 0.61345 0.69121 0.0
O243 O 0.98048 0.64696 0.68029 0.0
C244 C 0.9676 0.62337 0.68859 0.0
C245 C 0.01203 0.72479 0.66955 0.0
C246 C 0.93748 0.67644 0.74145 0.0
C247 C 0.93159 0.66568 0.61812 0.0
O248 O 0.94656 0.68785 0.63014 0.0
O249 O 0.92892 0.64639 0.63479 0.0
O250 O 0.99695 0.73379 0.66737 0.0
O251 O 1.0024 0.70128 0.67787 0.0
H252 H 0.159 0.33349 0.15148 0.0
H253 H 0.1402 0.34022 0.04098 0.0
H254 H 0.10558 0.35742 0.1287 0.0
H255 H 0.1569 0.30417 0.08917 0.0
H256 H 0.1672 0.32367 0.05075 0.0
H257 H 0.18413 0.31656 0.14589 0.0
H258 H 0.26364 0.35844 0.12574 0.0
H259 H 0.21149 0.35498 0.04463 0.0
C260 C 0.14945 0.33877 0.13182 0.0
C261 C 0.13211 0.34582 0.14412 0.0
C262 C 0.15286 0.33685 0.09446 0.0
C263 C 0.13881 0.34264 0.06972 0.0
C264 C 0.12202 0.35044 0.08205 0.0
C265 C 0.11905 0.35209 0.11913 0.0
C266 C 0.16741 0.32426 0.08077 0.0
C267 C 0.19448 0.33571 0.09449 0.0
C268 C 0.19951 0.32905 0.12862 0.0
C269 C 0.22446 0.33788 0.14029 0.0
C270 C 0.24441 0.35225 0.11705 0.0
C271 C 0.23991 0.35806 0.0824 0.0
C272 C 0.21497 0.35045 0.07148 0.0
H273 H 0.69454 0.83018 0.16068 0.0
H274 H 0.66744 0.80578 0.0514 0.0
H275 H 0.66092 0.7521 0.13066 0.0
H276 H 0.71318 0.85961 0.10555 0.0
H277 H 0.69695 0.8498 0.06332 0.0
H278 H 0.68154 0.85764 0.16096 0.0
H279 H 0.65679 0.90917 0.13136 0.0
H280 H 0.67817 0.87421 0.04857 0.0
C281 C 0.68516 0.81545 0.14048 0.0
C282 C 0.67696 0.79033 0.15007 0.0
C283 C 0.68191 0.82144 0.10478 0.0
C284 C 0.67022 0.80168 0.07887 0.0
C285 C 0.66298 0.77672 0.08819 0.0
C286 C 0.66685 0.77145 0.12345 0.0
C287 C 0.69404 0.84884 0.09301 0.0
C288 C 0.67984 0.8625 0.10327 0.0
C289 C 0.67638 0.86632 0.13991 0.0
C290 C 0.66846 0.8834 0.15 0.0
C291 C 0.66266 0.89576 0.12341 0.0
C292 C 0.66577 0.89237 0.08686 0.0
C293 C 0.67451 0.87581 0.07676 0.0
H294 H 0.16902 0.8059 0.16473 0.0
H295 H 0.16296 0.79012 0.0504 0.0
H296 H 0.09784 0.75169 0.1177 0.0
H297 H 0.20494 0.80772 0.12633 0.0
H298 H 0.20292 0.80807 0.07876 0.0
H299 H 0.20428 0.84505 0.16227 0.0
H300 H 0.26531 0.91315 0.11943 0.0
H301 H 0.22522 0.84775 0.05077 0.0
C302 C 0.15765 0.7972 0.14077 0.0
C303 C 0.13173 0.77984 0.14461 0.0
C304 C 0.16917 0.80152 0.10666 0.0
C305 C 0.15418 0.78813 0.07642 0.0
C306 C 0.12871 0.76939 0.08058 0.0
C307 C 0.11743 0.76623 0.11434 0.0
C308 C 0.19773 0.81443 0.10388 0.0
C309 C 0.21193 0.84311 0.1058 0.0
C310 C 0.21509 0.85553 0.1392 0.0
C311 C 0.23436 0.88079 0.14424 0.0
C312 C 0.24985 0.89398 0.11525 0.0
C313 C 0.2464 0.88236 0.08138 0.0
C314 C 0.22703 0.85708 0.07652 0.0
H315 H 0.37225 0.20871 0.85984 0.0
H316 H 0.38502 0.22928 0.9726 0.0
H317 H 0.35443 0.26298 0.90254 0.0
H318 H 0.40717 0.2083 0.9006 0.0
H319 H 0.40238 0.20587 0.94774 0.0
H320 H 0.37232 0.17268 0.85865 0.0
H321 H 0.35493 0.10087 0.90058 0.0
H322 H 0.38486 0.16541 0.97137 0.0
C323 C 0.36947 0.21767 0.88323 0.0
C324 C 0.36088 0.23481 0.87789 0.0
C325 C 0.37717 0.21444 0.91771 0.0
C326 C 0.37678 0.22947 0.94675 0.0
C327 C 0.36901 0.24736 0.9411 0.0
C328 C 0.35964 0.24866 0.90723 0.0
C329 C 0.39215 0.20082 0.92137 0.0
C330 C 0.37725 0.17217 0.91663 0.0
C331 C 0.36958 0.16106 0.88186 0.0
C332 C 0.36094 0.13519 0.87619 0.0
C333 C 0.35998 0.1204 0.90539 0.0
C334 C 0.36951 0.1314 0.9392 0.0
C335 C 0.37674 0.15687 0.94538 0.0
H336 H 0.86869 0.18846 0.88378 0.0
H337 H 0.86178 0.21969 0.98529 0.0
H338 H 0.90798 0.26849 0.90089 0.0
H339 H 0.8553 0.16311 0.94236 0.0
H340 H 0.84652 0.17512 0.98013 0.0
H341 H 0.82847 0.1595 0.8802 0.0
H342 H 0.74998 0.11361 0.90341 0.0
H343 H 0.80282 0.15098 0.99025 0.0
C344 C 0.87212 0.20444 0.90058 0.0
C345 C 0.88801 0.22887 0.88771 0.0
C346 C 0.86156 0.20076 0.93531 0.0
C347 C 0.8687 0.22212 0.95791 0.0
C348 C 0.88615 0.24655 0.9459 0.0
C349 C 0.89488 0.24967 0.91047 0.0
C350 C 0.84612 0.1742 0.95013 0.0
C351 C 0.81889 0.15955 0.93655 0.0
C352 C 0.81347 0.15316 0.89958 0.0
C353 C 0.78862 0.13684 0.8876 0.0
C354 C 0.76904 0.12692 0.91259 0.0
C355 C 0.77404 0.13143 0.94957 0.0
C356 C 0.79889 0.14812 0.96153 0.0
H357 H 0.85113 0.65477 0.86375 0.0
H358 H 0.85689 0.63001 0.97028 0.0
H359 H 0.91994 0.65936 0.89886 0.0
H360 H 0.81459 0.61318 0.89976 0.0
H361 H 0.81669 0.61628 0.94722 0.0
H362 H 0.81312 0.64798 0.8622 0.0
H363 H 0.75914 0.66465 0.90763 0.0
H364 H 0.79384 0.63329 0.97436 0.0
C365 C 0.86209 0.65341 0.88552 0.0
C366 C 0.88711 0.65961 0.8783 0.0
C367 C 0.85068 0.64251 0.91867 0.0
C368 C 0.86549 0.63955 0.94539 0.0
C369 C 0.8904 0.64555 0.93815 0.0
C370 C 0.90114 0.65591 0.90495 0.0
C371 C 0.82204 0.62748 0.92201 0.0
C372 C 0.80823 0.6423 0.91987 0.0
C373 C 0.80467 0.65058 0.88616 0.0
C374 C 0.7876 0.65935 0.88205 0.0
C375 C 0.77364 0.6596 0.91162 0.0
C376 C 0.77524 0.64951 0.94458 0.0
C377 C 0.79341 0.64204 0.94926 0.0
H378 H 0.82665 0.66764 0.48723 0.0
H379 H 0.80486 0.66754 0.37595 0.0
H380 H 0.77207 0.68919 0.46128 0.0
H381 H 0.82241 0.63426 0.42701 0.0
H382 H 0.83338 0.65291 0.38788 0.0
H383 H 0.84917 0.64901 0.48557 0.0
H384 H 0.9288 0.6885 0.46747 0.0
H385 H 0.87791 0.67839 0.38015 0.0
C386 C 0.81662 0.67159 0.46674 0.0
C387 C 0.79932 0.6789 0.47807 0.0
C388 C 0.81914 0.6675 0.42979 0.0
C389 C 0.80425 0.67167 0.4043 0.0
C390 C 0.78757 0.67997 0.41556 0.0
C391 C 0.78551 0.68365 0.45237 0.0
C392 C 0.83342 0.65414 0.41784 0.0
C393 C 0.86036 0.66514 0.43225 0.0
C394 C 0.8648 0.66047 0.46803 0.0
C395 C 0.8895 0.66954 0.48095 0.0
C396 C 0.9098 0.68219 0.45758 0.0
C397 C 0.90586 0.68468 0.42093 0.0
C398 C 0.88111 0.67673 0.40852 0.0
H399 H 0.36612 0.16349 0.47837 0.0
H400 H 0.33001 0.13323 0.37502 0.0
H401 H 0.32349 0.08352 0.46079 0.0
H402 H 0.38077 0.18846 0.41801 0.0
H403 H 0.35949 0.1775 0.3805 0.0
H404 H 0.36576 0.19938 0.47806 0.0
H405 H 0.32596 0.23911 0.45887 0.0
H406 H 0.33172 0.19424 0.37356 0.0
C407 C 0.35382 0.14772 0.46104 0.0
C408 C 0.34423 0.12313 0.47408 0.0
C409 C 0.34822 0.15173 0.42554 0.0
C410 C 0.33377 0.13057 0.40276 0.0
C411 C 0.32545 0.10598 0.41519 0.0
C412 C 0.33018 0.1025 0.45102 0.0
C413 C 0.36037 0.17826 0.41051 0.0
C414 C 0.34894 0.19366 0.42465 0.0
C415 C 0.35417 0.20334 0.46025 0.0
C416 C 0.34527 0.2191 0.4728 0.0
C417 C 0.3321 0.22623 0.44933 0.0
C418 C 0.32756 0.2178 0.41343 0.0
C419 C 0.33531 0.20085 0.40134 0.0
H420 H 0.83765 0.14517 0.50275 0.0
H421 H 0.83085 0.12232 0.39103 0.0
H422 H 0.76591 0.08999 0.4591 0.0
H423 H 0.87306 0.14356 0.46437 0.0
H424 H 0.87116 0.1447 0.41688 0.0
H425 H 0.87469 0.18046 0.50261 0.0
H426 H 0.9314 0.25049 0.45899 0.0
H427 H 0.89496 0.18458 0.39066 0.0
C428 C 0.82614 0.13574 0.47925 0.0
C429 C 0.80021 0.11889 0.48404 0.0
C430 C 0.83745 0.13805 0.44528 0.0
C431 C 0.82221 0.12269 0.41632 0.0
C432 C 0.79657 0.1049 0.42161 0.0
C433 C 0.78549 0.10425 0.45475 0.0
C434 C 0.86605 0.15078 0.44233 0.0
C435 C 0.88055 0.17948 0.44517 0.0
C436 C 0.88409 0.19143 0.47912 0.0
C437 C 0.90205 0.21711 0.48398 0.0
C438 C 0.91645 0.23109 0.45463 0.0
C439 C 0.91442 0.21935 0.42126 0.0
C440 C 0.89571 0.19384 0.41608 0.0
H441 H 0.05075 0.55057 0.19709 0.0
H442 H 0.0513 0.56289 0.31189 0.0
H443 H 0.03013 0.60322 0.2384 0.0
H444 H 0.07978 0.54511 0.24195 0.0
H445 H 0.07295 0.54302 0.28865 0.0
H446 H 0.03436 0.50936 0.2028 0.0
H447 H 0.02988 0.43988 0.23334 0.0
H448 H 0.06279 0.50292 0.30675 0.0
C449 C 0.04613 0.55843 0.22012 0.0
C450 C 0.03793 0.57582 0.21411 0.0
C451 C 0.05009 0.55271 0.25543 0.0
C452 C 0.04673 0.56572 0.28467 0.0
C453 C 0.04053 0.5847 0.27848 0.0
C454 C 0.03507 0.58874 0.24333 0.0
C455 C 0.06395 0.53817 0.26139 0.0
C456 C 0.04868 0.50953 0.25662 0.0
C457 C 0.0366 0.49829 0.22343 0.0
C458 C 0.02992 0.47318 0.21487 0.0
C459 C 0.03403 0.45886 0.24037 0.0
C460 C 0.04544 0.46937 0.2736 0.0
C461 C 0.05239 0.49449 0.28193 0.0
H462 H 0.53423 0.51782 0.20902 0.0
H463 H 0.52667 0.54622 0.31261 0.0
H464 H 0.57365 0.59743 0.2309 0.0
H465 H 0.52101 0.49107 0.26587 0.0
H466 H 0.51244 0.50204 0.305 0.0
H467 H 0.49216 0.49323 0.20494 0.0
H468 H 0.41606 0.43763 0.22948 0.0
H469 H 0.46968 0.47338 0.31584 0.0
C470 C 0.53768 0.53338 0.22682 0.0
C471 C 0.5538 0.55819 0.2154 0.0
C472 C 0.52679 0.5287 0.26143 0.0
C473 C 0.53377 0.54943 0.28529 0.0
C474 C 0.55132 0.57421 0.27464 0.0
C475 C 0.56045 0.57833 0.2394 0.0
C476 C 0.51167 0.50173 0.27499 0.0
C477 C 0.48421 0.48671 0.2622 0.0
C478 C 0.47796 0.48323 0.22501 0.0
C479 C 0.45346 0.46529 0.21322 0.0
C480 C 0.4349 0.45159 0.23864 0.0
C481 C 0.44043 0.45459 0.27557 0.0
C482 C 0.46515 0.47201 0.28732 0.0
H483 H 0.51142 0.9867 0.19386 0.0
H484 H 0.51681 0.96121 0.3 0.0
H485 H 0.58068 0.99228 0.23014 0.0
H486 H 0.47552 0.94386 0.22897 0.0
H487 H 0.47673 0.94733 0.27634 0.0
H488 H 0.46986 0.97416 0.18927 0.0
H489 H 0.41667 0.99192 0.23596 0.0
H490 H 0.45947 0.97045 0.30449 0.0
C491 C 0.52248 0.98533 0.21561 0.0
C492 C 0.54771 0.99198 0.2089 0.0
C493 C 0.51089 0.97394 0.24841 0.0
C494 C 0.5256 0.9711 0.27539 0.0
C495 C 0.55072 0.97769 0.26875 0.0
C496 C 0.56169 0.98842 0.23583 0.0
C497 C 0.48232 0.95836 0.25096 0.0
C498 C 0.46813 0.97268 0.2476 0.0
C499 C 0.46209 0.97785 0.2132 0.0
C500 C 0.44412 0.98554 0.20918 0.0
C501 C 0.43165 0.98748 0.23948 0.0
C502 C 0.43668 0.98156 0.27376 0.0
C503 C 0.45599 0.97558 0.27803 0.0
H504 H 0.49274 1.00037 0.82282 0.0
H505 H 0.47628 0.00675 0.71105 0.0
H506 H 0.44049 0.02506 0.79588 0.0
H507 H 0.49116 0.9704 0.76178 0.0
H508 H 0.50235 0.9895 0.72306 0.0
H509 H 0.51752 0.98294 0.8194 0.0
H510 H 0.59734 0.02303 0.80144 0.0
H511 H 0.54694 0.01997 0.71778 0.0
C512 C 0.48375 1.00577 0.80242 0.0
C513 C 0.46632 0.01307 0.81342 0.0
C514 C 0.48781 1.00355 0.76537 0.0
C515 C 0.47443 0.00944 0.73957 0.0
C516 C 0.45767 0.01764 0.75053 0.0
C517 C 0.45401 0.01953 0.78737 0.0
C518 C 0.50213 0.9904 0.75304 0.0
C519 C 0.52895 1.00147 0.76765 0.0
C520 C 0.53326 0.99498 0.80235 0.0
C521 C 0.55794 1.00343 0.81492 0.0
C522 C 0.57832 0.01714 0.79202 0.0
C523 C 0.57453 0.02275 0.75685 0.0
C524 C 0.54988 0.01559 0.74502 0.0
H525 H 0.03599 0.50051 0.81762 0.0
H526 H 0.99798 0.46819 0.71606 0.0
H527 H 0.99472 0.42022 0.80241 0.0
H528 H 0.04743 0.52556 0.75895 0.0
H529 H 0.02687 0.51283 0.72069 0.0
H530 H 0.01661 0.52273 0.82049 0.0
H531 H 0.99276 0.57562 0.79519 0.0
H532 H 0.01139 0.54055 0.70921 0.0
C533 C 0.02355 0.48431 0.80097 0.0
C534 C 0.01462 0.46001 0.81469 0.0
C535 C 0.01661 0.48762 0.76593 0.0
C536 C 1.00247 0.46606 0.74366 0.0
C537 C 0.99539 0.44178 0.75641 0.0
C538 C 1.0008 0.43898 0.79219 0.0
C539 C 0.02724 0.51401 0.75068 0.0
C540 C 0.0141 0.52832 0.7631 0.0
C541 C 0.01156 0.53197 0.80019 0.0
C542 C 1.00431 0.54931 0.81175 0.0
C543 C 0.99824 0.56211 0.78618 0.0
C544 C 1.00033 0.5588 0.74926 0.0
C545 C 1.00853 0.5421 0.73774 0.0
H546 H 0.50522 0.47944 0.83342 0.0
H547 H 0.5029 0.45843 0.72145 0.0
H548 H 0.43784 0.41771 0.78807 0.0
H549 H 0.54328 0.48016 0.79829 0.0
H550 H 0.54231 0.48023 0.75066 0.0
H551 H 0.53791 0.51691 0.83127 0.0
H552 H 0.60232 0.58478 0.79557 0.0
H553 H 0.56831 0.51981 0.72547 0.0
C554 C 0.49494 0.46872 0.8098 0.0
C555 C 0.46965 0.44946 0.8139 0.0
C556 C 0.50743 0.47212 0.77659 0.0
C557 C 0.49358 0.45665 0.74695 0.0
C558 C 0.46867 0.43669 0.75124 0.0
C559 C 0.45689 0.4334 0.78459 0.0
C560 C 0.53615 0.48633 0.77509 0.0
C561 C 0.54965 0.51506 0.77686 0.0
C562 C 0.55022 0.52737 0.80946 0.0
C563 C 0.56934 0.55239 0.81646 0.0
C564 C 0.58691 0.56584 0.78967 0.0
C565 C 0.58626 0.5544 0.75657 0.0
C566 C 0.56745 0.52912 0.74999 0.0
H567 H 0.71004 0.87896 0.52654 0.0
H568 H 0.72839 0.9006 0.63831 0.0
H569 H 0.6935 0.93289 0.5739 0.0
H570 H 0.74661 0.87901 0.56142 0.0
H571 H 0.74614 0.8789 0.60913 0.0
H572 H 0.70482 0.8407 0.52837 0.0
H573 H 0.70135 0.7734 0.5676 0.0
H574 H 0.7335 0.83982 0.63475 0.0
C575 C 0.70822 0.88793 0.55069 0.0
C576 C 0.69888 0.90461 0.54735 0.0
C577 C 0.71789 0.88526 0.58391 0.0
C578 C 0.71872 0.90039 0.61362 0.0
C579 C 0.7104 0.91798 0.60976 0.0
C580 C 0.69918 0.91881 0.57728 0.0
C581 C 0.73362 0.87237 0.58483 0.0
C582 C 0.71915 0.8436 0.58297 0.0
C583 C 0.70709 0.83068 0.55058 0.0
C584 C 0.70057 0.80529 0.54497 0.0
C585 C 0.70524 0.79257 0.57239 0.0
C586 C 0.71676 0.80482 0.60478 0.0
C587 C 0.72318 0.83009 0.61043 0.0
H588 H 0.20196 0.85087 0.541 0.0
H589 H 0.19737 0.88317 0.64287 0.0
H590 H 0.24386 0.93096 0.55787 0.0
H591 H 0.1884 0.82581 0.59968 0.0
H592 H 0.18035 0.83842 0.63751 0.0
H593 H 0.16031 0.82878 0.53711 0.0
H594 H 0.08385 0.77454 0.56185 0.0
H595 H 0.13747 0.81032 0.64818 0.0
C596 C 0.20615 0.86709 0.55784 0.0
C597 C 0.22252 0.89134 0.54479 0.0
C598 C 0.19581 0.86382 0.59264 0.0
C599 C 0.20399 0.88533 0.61535 0.0
C600 C 0.22206 0.90952 0.60322 0.0
C601 C 0.23039 0.9123 0.56762 0.0
C602 C 0.17973 0.83735 0.60751 0.0
C603 C 0.15229 0.82291 0.59447 0.0
C604 C 0.14607 0.81921 0.55725 0.0
C605 C 0.1215 0.80148 0.54546 0.0
C606 C 0.10277 0.78835 0.57094 0.0
C607 C 0.10823 0.7917 0.60789 0.0
C608 C 0.13303 0.80879 0.61961 0.0
H609 H 0.17929 0.31531 0.52442 0.0
H610 H 0.18707 0.2884 0.62838 0.0
H611 H 0.24929 0.32103 0.55559 0.0
H612 H 0.14363 0.27207 0.56053 0.0
H613 H 0.14635 0.2757 0.6079 0.0
H614 H 0.14045 0.3058 0.52246 0.0
H615 H 0.08775 0.32345 0.57011 0.0
H616 H 0.12389 0.29296 0.63564 0.0
C617 C 0.19063 0.31363 0.54529 0.0
C618 C 0.21559 0.32028 0.53682 0.0
C619 C 0.17979 0.30187 0.57828 0.0
C620 C 0.19519 0.29862 0.60373 0.0
C621 C 0.22033 0.30586 0.59569 0.0
C622 C 0.23037 0.31686 0.56251 0.0
C623 C 0.1512 0.28661 0.58245 0.0
C624 C 0.13699 0.30108 0.58045 0.0
C625 C 0.13257 0.30877 0.54676 0.0
C626 C 0.11557 0.31771 0.54333 0.0
C627 C 0.10222 0.31828 0.57346 0.0
C628 C 0.10453 0.30861 0.60639 0.0
C629 C 0.12283 0.30125 0.61043 0.0
C630 C 0.9946 0.42403 0.14171 0.0
C631 C 0.01099 0.43469 0.11189 0.0
C632 C 0.03871 0.47223 0.14842 0.0
C633 C 0.02178 0.46221 0.17778 0.0
N634 N 0.98037 0.43188 0.19885 0.0
N635 N 0.04335 0.47252 0.0837 0.0
C636 C 0.99856 0.43922 0.17312 0.0
C637 C 0.03133 0.45997 0.11423 0.0
N638 N 0.97636 0.39908 0.14122 0.0
N639 N 0.06254 0.49235 0.15339 0.0
H640 H 0.03775 0.46455 0.05792 0.0
H641 H 0.05682 0.4917 0.08372 0.0
H642 H 0.06948 0.50144 0.17817 0.0
H643 H 0.07631 0.49843 0.13353 0.0
H644 H 0.96576 0.38981 0.16377 0.0
H645 H 0.97331 0.38699 0.11941 0.0
H646 H 0.96222 0.41646 0.19553 0.0
H647 H 0.98272 0.4428 0.22192 0.0
C648 C 0.56286 0.57015 0.11427 0.0
C649 C 0.58954 0.5861 0.11354 0.0
C650 C 0.59204 0.57557 0.17647 0.0
C651 C 0.5654 0.56387 0.17899 0.0
N652 N 0.52518 0.55176 0.15075 0.0
N653 N 0.6295 0.60653 0.14582 0.0
C654 C 0.55065 0.56136 0.14793 0.0
C655 C 0.60423 0.58926 0.14501 0.0
N656 N 0.54926 0.56282 0.08273 0.0
N657 N 0.60565 0.5736 0.20431 0.0
H658 H 0.63914 0.61782 0.12399 0.0
H659 H 0.64045 0.61144 0.16931 0.0
H660 H 0.59714 0.5634 0.22755 0.0
H661 H 0.62488 0.57976 0.20273 0.0
H662 H 0.5301 0.54932 0.08146 0.0
H663 H 0.55764 0.56813 0.05746 0.0
H664 H 0.51404 0.55229 0.12982 0.0
H665 H 0.51542 0.54495 0.1748 0.0
C666 C 0.40107 0.97559 0.1292 0.0
C667 C 0.41753 0.99554 0.10636 0.0
C668 C 0.45158 0.00953 0.15143 0.0
C669 C 0.4357 0.98837 0.17277 0.0
N670 N 0.39747 0.94801 0.17804 0.0
N671 N 0.46004 0.02799 0.09202 0.0
C672 C 0.41108 0.97038 0.16042 0.0
C673 C 0.44327 0.01158 0.11641 0.0
N674 N 0.37567 0.96238 0.12208 0.0
N675 N 0.47426 0.02804 0.16498 0.0
H676 H 0.45494 0.02954 0.06569 0.0
H677 H 0.47947 0.03823 0.09669 0.0
H678 H 0.4811 0.0271 0.19041 0.0
H679 H 0.48532 0.04524 0.15224 0.0
H680 H 0.36254 0.94944 0.13992 0.0
H681 H 0.36737 0.96611 0.10013 0.0
H682 H 0.38048 0.93317 0.16812 0.0
H683 H 0.40436 0.94328 0.20069 0.0
C684 C 0.43639 0.98957 0.90582 0.0
C685 C 0.43378 0.01043 0.91705 0.0
C686 C 0.46096 0.03492 0.86716 0.0
C687 C 0.45895 0.01264 0.85189 0.0
N688 N 0.44074 0.96723 0.85485 0.0
N689 N 0.43986 0.05174 0.90305 0.0
C690 C 0.44577 0.98952 0.87082 0.0
C691 C 0.44532 0.03297 0.89655 0.0
N692 N 0.43057 0.97008 0.92878 0.0
N693 N 0.4775 0.05791 0.85309 0.0
H694 H 0.42659 0.05018 0.92188 0.0
H695 H 0.44615 0.0675 0.88665 0.0
H696 H 0.48943 0.05989 0.83177 0.0
H697 H 0.48116 0.07493 0.86504 0.0
H698 H 0.43425 0.95554 0.92282 0.0
H699 H 0.4249 0.96998 0.9553 0.0
H700 H 0.42884 0.94971 0.8663 0.0
H701 H 0.44639 0.96593 0.82885 0.0
C702 C 0.03222 0.43141 0.89125 0.0
C703 C 0.02016 0.43583 0.92081 0.0
C704 C 1.00746 0.45981 0.8817 0.0
C705 C 0.01996 0.45579 0.85241 0.0
N706 N 0.05037 0.44455 0.83188 0.0
N707 N 1.00326 0.46058 0.9466 0.0
C708 C 0.0345 0.44393 0.85819 0.0
C709 C 0.01001 0.45211 0.91679 0.0
N710 N 0.0399 0.41396 0.89369 0.0
N711 N 0.99202 0.46964 0.87584 0.0
H712 H 1.00557 0.45588 0.97279 0.0
H713 H 0.99797 0.47433 0.94558 0.0
H714 H 0.98957 0.47557 0.85063 0.0
H715 H 0.98017 0.47018 0.89549 0.0
H716 H 0.0462 0.40805 0.87162 0.0
H717 H 0.03785 0.40357 0.91682 0.0
H718 H 0.06318 0.43824 0.83572 0.0
H719 H 0.05252 0.45381 0.80748 0.0
C720 C 0.58276 0.56283 0.91764 0.0
C721 C 0.58931 0.58852 0.92138 0.0
C722 C 0.57521 0.5873 0.85898 0.0
C723 C 0.57374 0.56359 0.8535 0.0
N724 N 0.5822 0.53162 0.87703 0.0
N725 N 0.59553 0.62668 0.89264 0.0
C726 C 0.57902 0.55197 0.88269 0.0
C727 C 0.58632 0.60119 0.89138 0.0
N728 N 0.57962 0.54856 0.94742 0.0
N729 N 0.56599 0.59653 0.83329 0.0
H730 H 0.60515 0.63804 0.91486 0.0
H731 H 0.59595 0.63697 0.87012 0.0
H732 H 0.55736 0.58658 0.80952 0.0
H733 H 0.56459 0.61267 0.83732 0.0
H734 H 0.57285 0.52917 0.94585 0.0
H735 H 0.58076 0.5554 0.97366 0.0
H736 H 0.58838 0.5242 0.89728 0.0
H737 H 0.58158 0.52397 0.85157 0.0
C738 C 0.98355 0.56732 0.89702 0.0
C739 C 1.00602 0.57838 0.91833 0.0
C740 C 0.0275 0.5686 0.87058 0.0
C741 C 1.00448 0.55591 0.85058 0.0
N742 N 0.95916 0.53692 0.85003 0.0
N743 N 0.04682 0.5824 0.92968 0.0
C744 C 0.98198 0.55304 0.86577 0.0
C745 C 0.0272 0.57672 0.9065 0.0
N746 N 0.96447 0.57205 0.9047 0.0
N747 N 0.0499 0.5744 0.85486 0.0
H748 H 0.04683 0.58744 0.95664 0.0
H749 H 0.06164 0.57931 0.92322 0.0
H750 H 0.05135 0.56973 0.82823 0.0
H751 H 0.06735 0.58601 0.86729 0.0
H752 H 0.94874 0.56625 0.88794 0.0
H753 H 0.96572 0.58431 0.92531 0.0
H754 H 0.942 0.53256 0.86174 0.0
H755 H 0.95744 0.52594 0.82729 0.0
C756 C 0.45442 0.43546 0.91398 0.0
C757 C 0.42868 0.42925 0.91446 0.0
C758 C 0.4328 0.44309 0.85172 0.0
C759 C 0.45662 0.44442 0.84946 0.0
N760 N 0.48717 0.43567 0.87774 0.0
N761 N 0.39192 0.42222 0.87987 0.0
C762 C 0.46672 0.43896 0.88041 0.0
C763 C 0.41742 0.43185 0.88232 0.0
N764 N 0.46753 0.43895 0.94547 0.0
N765 N 0.42492 0.45278 0.82485 0.0
H766 H 0.37948 0.41203 0.90039 0.0
H767 H 0.38281 0.42175 0.85578 0.0
H768 H 0.43604 0.46189 0.80256 0.0
H769 H 0.40865 0.45416 0.82678 0.0
H770 H 0.48688 0.44545 0.94616 0.0
H771 H 0.45993 0.43853 0.97076 0.0
H772 H 0.4936 0.42941 0.8992 0.0
H773 H 0.49589 0.43636 0.85335 0.0
C774 C 0.56883 0.0068 0.91668 0.0
C775 C 0.58411 0.9954 0.91885 0.0
C776 C 0.57412 0.982 0.85552 0.0
C777 C 0.56316 0.99756 0.85179 0.0
N778 N 0.55158 0.02649 0.87844 0.0
N779 N 0.60296 0.97352 0.88944 0.0
C780 C 0.56058 0.01018 0.88236 0.0
C781 C 0.5869 0.98297 0.88818 0.0
N782 N 0.56184 0.01397 0.94756 0.0
N783 N 0.57225 0.96629 0.82774 0.0
H784 H 0.61296 0.9741 0.9126 0.0
H785 H 0.60794 0.9669 0.86673 0.0
H786 H 0.56278 0.96506 0.80364 0.0
H787 H 0.57781 0.9528 0.82992 0.0
H788 H 0.54878 0.02018 0.94792 0.0
H789 H 0.56702 0.01116 0.97322 0.0
H790 H 0.55215 0.03845 0.89906 0.0
H791 H 0.54522 0.0295 0.85386 0.0
C792 C 0.56111 0.98828 0.10918 0.0
C793 C 0.58641 0.00851 0.10735 0.0
C794 C 0.58201 0.02227 0.16792 0.0
C795 C 0.55898 0.99917 0.17225 0.0
N796 N 0.52892 0.95781 0.1479 0.0
N797 N 0.6221 0.04371 0.13717 0.0
C798 C 0.54894 0.98159 0.14303 0.0
C799 C 0.59714 0.02552 0.13711 0.0
N800 N 0.5485 0.97565 0.07846 0.0
N801 N 0.58941 0.04102 0.19335 0.0
H802 H 0.63413 0.04632 0.11579 0.0
H803 H 0.63142 0.05477 0.1598 0.0
H804 H 0.57854 0.03921 0.21597 0.0
H805 H 0.60487 0.05908 0.19014 0.0
H806 H 0.52931 0.9622 0.07806 0.0
H807 H 0.55643 0.98073 0.05288 0.0
H808 H 0.52281 0.94365 0.12816 0.0
H809 H 0.52005 0.95128 0.17257 0.0
C810 C 0.01134 0.57206 0.11955 0.0
C811 C 0.02564 0.5978 0.10935 0.0
C812 C 0.05131 0.60735 0.16434 0.0
C813 C 0.03466 0.58262 0.17689 0.0
N814 N 0.99665 0.54223 0.16856 0.0
N815 N 0.0566 0.64097 0.12499 0.0
C816 C 0.01409 0.56512 0.15504 0.0
C817 C 0.04504 0.61575 0.13244 0.0
N818 N 0.99588 0.55407 0.09494 0.0
N819 N 0.07341 0.62262 0.18251 0.0
H820 H 0.05204 0.6481 0.10253 0.0
H821 H 0.06894 0.655 0.14295 0.0
H822 H 0.0789 0.6169 0.20562 0.0
H823 H 0.0874 0.63989 0.17266 0.0
H824 H 0.98701 0.53475 0.09986 0.0
H825 H 0.99394 0.55823 0.06829 0.0
H826 H 0.97978 0.52994 0.15525 0.0
H827 H 0.99797 0.53638 0.19443 0.0
C828 C 0.44754 0.43845 0.11774 0.0
C829 C 0.42436 0.43661 0.10678 0.0
C830 C 0.42635 0.46151 0.16017 0.0
C831 C 0.44659 0.45907 0.17431 0.0
N832 N 0.47401 0.44134 0.16828 0.0
N833 N 0.38907 0.4423 0.1222 0.0
C834 C 0.45671 0.44664 0.1535 0.0
C835 C 0.41311 0.44724 0.12906 0.0
N836 N 0.46125 0.43317 0.09382 0.0
N837 N 0.41964 0.47728 0.17675 0.0
H838 H 0.37774 0.43022 0.10153 0.0
H839 H 0.3793 0.44777 0.13964 0.0
H840 H 0.42927 0.48824 0.19939 0.0
H841 H 0.4064 0.48141 0.16582 0.0
H842 H 0.47936 0.43648 0.09965 0.0
H843 H 0.45584 0.42824 0.06691 0.0
H844 H 0.47977 0.42986 0.15542 0.0
H845 H 0.48097 0.44644 0.19456 0.0
C846 C 0.6642 0.75215 0.47726 0.0
C847 C 0.67888 0.76189 0.44562 0.0
C848 C 0.70742 0.80107 0.4785 0.0
C849 C 0.69164 0.79219 0.50921 0.0
N850 N 0.65139 0.76203 0.53404 0.0
N851 N 0.70918 0.79905 0.41359 0.0
C852 C 0.66876 0.76864 0.50723 0.0
C853 C 0.69885 0.78744 0.44542 0.0
N854 N 0.64708 0.72695 0.47982 0.0
N855 N 0.73123 0.82155 0.4811 0.0
H856 H 0.70245 0.79031 0.3885 0.0
H857 H 0.72229 0.8183 0.41204 0.0
H858 H 0.73904 0.83154 0.50506 0.0
H859 H 0.74418 0.82697 0.46015 0.0
H860 H 0.63778 0.71865 0.50367 0.0
H861 H 0.64408 0.71385 0.45949 0.0
H862 H 0.63343 0.74609 0.53246 0.0
H863 H 0.65404 0.77391 0.55605 0.0
C864 C 0.27078 0.91925 0.47127 0.0
C865 C 0.25525 0.91559 0.44055 0.0
C866 C 0.21735 0.89237 0.47736 0.0
C867 C 0.23292 0.8955 0.50771 0.0
N868 N 0.27356 0.9048 0.53088 0.0
N869 N 0.21413 0.89218 0.41218 0.0
C870 C 0.25937 0.90647 0.50362 0.0
C871 C 0.22861 0.90004 0.44291 0.0
N872 N 0.29611 0.93628 0.47064 0.0
N873 N 0.19208 0.88338 0.48158 0.0
H874 H 0.22185 0.89677 0.38643 0.0
H875 H 0.19488 0.87895 0.41212 0.0
H876 H 0.183 0.87747 0.50627 0.0
H877 H 0.18046 0.88352 0.46106 0.0
H878 H 0.30763 0.94153 0.49357 0.0
H879 H 0.30529 0.94711 0.44824 0.0
H880 H 0.29261 0.91045 0.52821 0.0
H881 H 0.26558 0.8953 0.5548 0.0
C882 C 0.0744 0.31219 0.46311 0.0
C883 C 0.0918 0.33208 0.44104 0.0
C884 C 0.12499 0.34365 0.48694 0.0
C885 C 0.10815 0.32219 0.50711 0.0
N886 N 0.06886 0.28249 0.50963 0.0
N887 N 0.13489 0.36394 0.42867 0.0
C888 C 0.08345 0.30536 0.49373 0.0
C889 C 0.11749 0.34711 0.45203 0.0
N890 N 0.04906 0.30059 0.45587 0.0
N891 N 0.14782 0.36106 0.50149 0.0
H892 H 0.13024 0.3667 0.40266 0.0
H893 H 0.15427 0.37348 0.43386 0.0
H894 H 0.15401 0.35901 0.52684 0.0
H895 H 0.1597 0.37842 0.48971 0.0
H896 H 0.03542 0.28765 0.47319 0.0
H897 H 0.04149 0.30586 0.43464 0.0
H898 H 0.05165 0.26856 0.49883 0.0
H899 H 0.07517 0.27635 0.53138 0.0
C900 C 0.10384 0.32276 0.23739 0.0
C901 C 0.10249 0.34417 0.2495 0.0
C902 C 0.12884 0.36817 0.19872 0.0
C903 C 0.12583 0.34561 0.183 0.0
N904 N 0.10681 0.30013 0.18561 0.0
N905 N 0.10962 0.38598 0.23664 0.0
C906 C 0.11253 0.32251 0.20194 0.0
C907 C 0.11414 0.3667 0.22905 0.0
N908 N 0.09751 0.30294 0.25992 0.0
N909 N 0.14544 0.39098 0.18419 0.0
H910 H 0.09697 0.38474 0.25634 0.0
H911 H 0.11594 0.40184 0.22046 0.0
H912 H 0.15668 0.39259 0.16212 0.0
H913 H 0.14987 0.40817 0.19636 0.0
H914 H 0.10037 0.28795 0.25338 0.0
H915 H 0.09211 0.30284 0.28659 0.0
H916 H 0.09473 0.28264 0.19699 0.0
H917 H 0.11224 0.29881 0.15946 0.0
C918 C 0.69804 0.78085 0.24355 0.0
C919 C 0.67547 0.75884 0.25434 0.0
C920 C 0.65347 0.76374 0.20252 0.0
C921 C 0.67679 0.78246 0.18816 0.0
N922 N 0.72233 0.8061 0.19306 0.0
N923 N 0.63339 0.72561 0.2371 0.0
C924 C 0.69945 0.79039 0.20815 0.0
C925 C 0.65356 0.74927 0.23199 0.0
N926 N 0.71773 0.79331 0.26729 0.0
N927 N 0.63118 0.75968 0.1879 0.0
H928 H 0.63347 0.71305 0.25586 0.0
H929 H 0.61794 0.71728 0.21944 0.0
H930 H 0.6304 0.77058 0.16694 0.0
H931 H 0.61371 0.74749 0.1993 0.0
H932 H 0.73362 0.81063 0.26151 0.0
H933 H 0.71699 0.78795 0.29407 0.0
H934 H 0.7394 0.8103 0.20528 0.0
H935 H 0.72422 0.81311 0.16703 0.0
C936 C 0.2526 0.89383 0.24392 0.0
C937 C 0.25732 0.91897 0.24772 0.0
C938 C 0.24075 0.91609 0.18643 0.0
C939 C 0.24048 0.89295 0.18074 0.0
N940 N 0.25204 0.86286 0.20268 0.0
N941 N 0.25983 0.95573 0.21956 0.0
C942 C 0.24795 0.88256 0.20911 0.0
C943 C 0.25231 0.93059 0.21824 0.0
N944 N 0.25171 0.88031 0.2736 0.0
N945 N 0.22973 0.92408 0.16169 0.0
H946 H 0.26951 0.96745 0.24149 0.0
H947 H 0.25882 0.96551 0.19733 0.0
H948 H 0.22062 0.91365 0.13845 0.0
H949 H 0.22738 0.93963 0.1661 0.0
H950 H 0.24616 0.86117 0.27222 0.0
H951 H 0.25346 0.88725 0.2999 0.0
H952 H 0.25984 0.85639 0.22198 0.0
H953 H 0.25035 0.85481 0.17719 0.0
C954 C 0.64618 0.902 0.23319 0.0
C955 C 0.66842 0.91368 0.25494 0.0
C956 C 0.6909 0.90407 0.20862 0.0
C957 C 0.66807 0.89058 0.18835 0.0
N958 N 0.62269 0.87092 0.1865 0.0
N959 N 0.70958 0.91894 0.26779 0.0
C960 C 0.64523 0.8875 0.20256 0.0
C961 C 0.69006 0.91254 0.24408 0.0
N962 N 0.62669 0.90626 0.24 0.0
N963 N 0.71359 0.91026 0.19352 0.0
H964 H 0.70925 0.92425 0.29452 0.0
H965 H 0.72473 0.91622 0.26207 0.0
H966 H 0.71543 0.90535 0.16719 0.0
H967 H 0.73085 0.92239 0.20608 0.0
H968 H 0.61104 0.89997 0.22293 0.0
H969 H 0.62753 0.9186 0.2602 0.0
H970 H 0.60531 0.8664 0.19757 0.0
H971 H 0.62143 0.85978 0.16419 0.0
C972 C 0.09485 0.73934 0.22374 0.0
C973 C 0.09288 0.75711 0.2464 0.0
C974 C 0.11588 0.79014 0.20161 0.0
C975 C 0.11994 0.77288 0.18094 0.0
N976 N 0.11877 0.73285 0.17736 0.0
N977 N 0.10642 0.8008 0.26038 0.0
C978 C 0.11111 0.74801 0.19359 0.0
C979 C 0.10473 0.78294 0.23632 0.0
N980 N 0.08028 0.714 0.22989 0.0
N981 N 0.12194 0.81312 0.18775 0.0
H982 H 0.0993 0.79652 0.28646 0.0
H983 H 0.11709 0.82014 0.25574 0.0
H984 H 0.13022 0.81911 0.16254 0.0
H985 H 0.11685 0.82532 0.19993 0.0
H986 H 0.07922 0.70022 0.21206 0.0
H987 H 0.06711 0.70665 0.25058 0.0
H988 H 0.11481 0.71545 0.18768 0.0
H989 H 0.13133 0.73878 0.15585 0.0
C990 C 0.25427 0.31642 0.21109 0.0
C991 C 0.25135 0.32797 0.24266 0.0
C992 C 0.22797 0.34374 0.20786 0.0
C993 C 0.23037 0.33169 0.17649 0.0
N994 N 0.23971 0.30119 0.15009 0.0
N995 N 0.2293 0.34614 0.27316 0.0
C996 C 0.24151 0.3162 0.17879 0.0
C997 C 0.23625 0.33961 0.24167 0.0
N998 N 0.27036 0.30698 0.21126 0.0
N999 N 0.21898 0.36014 0.2052 0.0
H1000 H 0.23445 0.34278 0.2985 0.0
H1001 H 0.2163 0.35241 0.27428 0.0
H1002 H 0.21256 0.36364 0.18104 0.0
H1003 H 0.21966 0.37173 0.22646 0.0
H1004 H 0.2754 0.30095 0.18801 0.0
H1005 H 0.28038 0.30709 0.23414 0.0
H1006 H 0.24536 0.28772 0.15121 0.0
H1007 H 0.23025 0.30048 0.1262 0.0
C1008 C 0.22548 0.31728 0.4356 0.0
C1009 C 0.25127 0.33625 0.43302 0.0
C1010 C 0.24925 0.35 0.49465 0.0
C1011 C 0.22577 0.32752 0.49958 0.0
N1012 N 0.19377 0.28699 0.47492 0.0
N1013 N 0.28889 0.36924 0.46294 0.0
C1014 C 0.21424 0.31048 0.47003 0.0
C1015 C 0.26348 0.35258 0.4631 0.0
N1016 N 0.2116 0.30587 0.40514 0.0
N1017 N 0.25803 0.36874 0.52029 0.0
H1018 H 0.30051 0.37106 0.4414 0.0
H1019 H 0.29889 0.37955 0.48575 0.0
H1020 H 0.2478 0.36744 0.54343 0.0
H1021 H 0.27401 0.38641 0.5167 0.0
H1022 H 0.19217 0.29334 0.40564 0.0
H1023 H 0.21888 0.31127 0.37927 0.0
H1024 H 0.18651 0.27326 0.45451 0.0
H1025 H 0.18571 0.28013 0.49995 0.0
C1026 C 0.70279 0.94453 0.46756 0.0
C1027 C 0.68232 0.92692 0.44574 0.0
C1028 C 0.67165 0.89431 0.49136 0.0
C1029 C 0.69365 0.91134 0.5112 0.0
N1030 N 0.73365 0.95042 0.51312 0.0
N1031 N 0.64994 0.88371 0.43347 0.0
C1032 C 0.71031 0.93579 0.49772 0.0
C1033 C 0.6674 0.90139 0.45667 0.0
N1034 N 0.71432 0.96981 0.46058 0.0
N1035 N 0.65454 0.87173 0.50599 0.0
H1036 H 0.64661 0.88803 0.40759 0.0
H1037 H 0.64039 0.86441 0.4386 0.0
H1038 H 0.65724 0.86584 0.53113 0.0
H1039 H 0.63686 0.85975 0.4945 0.0
H1040 H 0.72775 0.98361 0.4778 0.0
H1041 H 0.70852 0.97718 0.43977 0.0
H1042 H 0.74737 0.96743 0.50219 0.0
H1043 H 0.74031 0.94429 0.53447 0.0
C1044 C 0.08147 0.78222 0.46078 0.0
C1045 C 0.09303 0.77156 0.43914 0.0
C1046 C 0.1253 0.78252 0.4863 0.0
C1047 C 0.1148 0.79482 0.50655 0.0
N1048 N 0.08759 0.81277 0.50748 0.0
N1049 N 0.13061 0.7692 0.42695 0.0
C1050 C 0.09454 0.79692 0.49171 0.0
C1051 C 0.11644 0.77411 0.45051 0.0
N1052 N 0.05731 0.77686 0.4537 0.0
N1053 N 0.14259 0.77741 0.50163 0.0
H1054 H 0.12546 0.76429 0.39996 0.0
H1055 H 0.14881 0.77291 0.43314 0.0
H1056 H 0.14916 0.78241 0.52809 0.0
H1057 H 0.14864 0.76609 0.48905 0.0
H1058 H 0.04742 0.78233 0.47088 0.0
H1059 H 0.04603 0.76451 0.43325 0.0
H1060 H 0.07432 0.81663 0.496 0.0
H1061 H 0.09709 0.82404 0.52994 0.0
C1062 C 0.36799 0.09865 0.7987 0.0
C1063 C 0.34948 0.09666 0.77359 0.0
C1064 C 0.33763 0.12008 0.81609 0.0
C1065 C 0.35799 0.12421 0.83911 0.0
N1066 N 0.39702 0.12373 0.84635 0.0
N1067 N 0.32019 0.1103 0.75535 0.0
C1068 C 0.37459 0.11549 0.82847 0.0
C1069 C 0.33517 0.10867 0.7814 0.0
N1070 N 0.3785 0.08358 0.79522 0.0
N1071 N 0.3203 0.1264 0.8276 0.0
H1072 H 0.3185 0.10302 0.72931 0.0
H1073 H 0.31139 0.12102 0.75851 0.0
H1074 H 0.32171 0.13503 0.85257 0.0
H1075 H 0.30361 0.12135 0.81356 0.0
H1076 H 0.3904 0.08281 0.81477 0.0
H1077 H 0.37304 0.0697 0.77515 0.0
H1078 H 0.41073 0.11957 0.83765 0.0
H1079 H 0.40311 0.13706 0.8673 0.0
C1080 C 0.89618 0.23697 0.78575 0.0
C1081 C 0.92285 0.25286 0.78431 0.0
C1082 C 0.92593 0.24521 0.84838 0.0
C1083 C 0.8993 0.23343 0.85115 0.0
N1084 N 0.8588 0.21997 0.82284 0.0
N1085 N 0.96291 0.27537 0.81618 0.0
C1086 C 0.88426 0.22958 0.81988 0.0
C1087 C 0.93776 0.25767 0.81606 0.0
N1088 N 0.88231 0.2283 0.75455 0.0
N1089 N 0.93988 0.24447 0.87675 0.0
H1090 H 0.97226 0.28606 0.79373 0.0
H1091 H 0.97394 0.28138 0.83962 0.0
H1092 H 0.93165 0.23513 0.90066 0.0
H1093 H 0.95913 0.25074 0.8751 0.0
H1094 H 0.86316 0.21475 0.75403 0.0
H1095 H 0.89044 0.23259 0.72905 0.0
H1096 H 0.8474 0.21946 0.80151 0.0
H1097 H 0.84928 0.21419 0.84725 0.0
C1098 C 0.74697 0.65211 0.80045 0.0
C1099 C 0.76436 0.67183 0.77817 0.0
C1100 C 0.79712 0.68471 0.82507 0.0
C1101 C 0.78036 0.66334 0.84545 0.0
N1102 N 0.74166 0.62306 0.84777 0.0
N1103 N 0.80732 0.70424 0.76627 0.0
C1104 C 0.75596 0.64592 0.83168 0.0
C1105 C 0.78986 0.68748 0.78963 0.0
N1106 N 0.72166 0.64004 0.79278 0.0
N1107 N 0.81962 0.70261 0.83987 0.0
H1108 H 0.80285 0.70647 0.73988 0.0
H1109 H 0.82663 0.71426 0.77194 0.0
H1110 H 0.82561 0.70103 0.86561 0.0
H1111 H 0.83139 0.7199 0.82779 0.0
H1112 H 0.70802 0.62719 0.81019 0.0
H1113 H 0.71406 0.64487 0.77108 0.0
H1114 H 0.72472 0.60879 0.83675 0.0
H1115 H 0.74804 0.6173 0.86986 0.0
C1116 C 0.77422 0.65877 0.57348 0.0
C1117 C 0.77265 0.6802 0.58475 0.0
C1118 C 0.79638 0.70272 0.53129 0.0
C1119 C 0.79356 0.67989 0.51688 0.0
N1120 N 0.77557 0.63465 0.52249 0.0
N1121 N 0.77804 0.72109 0.56995 0.0
C1122 C 0.78151 0.65747 0.53756 0.0
C1123 C 0.78284 0.70195 0.56268 0.0
N1124 N 0.76937 0.63993 0.59721 0.0
N1125 N 0.81179 0.7251 0.51473 0.0
H1126 H 0.76633 0.72035 0.59079 0.0
H1127 H 0.78318 0.73626 0.55274 0.0
H1128 H 0.82223 0.72624 0.49188 0.0
H1129 H 0.81618 0.74256 0.52583 0.0
H1130 H 0.7725 0.62505 0.59112 0.0
H1131 H 0.76498 0.64064 0.6242 0.0
H1132 H 0.76437 0.61755 0.53542 0.0
H1133 H 0.77969 0.63245 0.49593 0.0
C1134 C 0.3628 0.09359 0.54831 0.0
C1135 C 0.35183 0.09829 0.579 0.0
C1136 C 0.33792 0.12205 0.54148 0.0
C1137 C 0.34984 0.11822 0.51128 0.0
N1138 N 0.37965 0.10684 0.48838 0.0
N1139 N 0.33527 0.12283 0.60664 0.0
C1140 C 0.36436 0.1062 0.51562 0.0
C1141 C 0.34134 0.11436 0.57616 0.0
N1142 N 0.37012 0.07583 0.54941 0.0
N1143 N 0.32237 0.13188 0.53688 0.0
H1144 H 0.33823 0.11822 0.63254 0.0
H1145 H 0.32982 0.13648 0.60634 0.0
H1146 H 0.31941 0.13782 0.51198 0.0
H1147 H 0.31094 0.13239 0.55725 0.0
H1148 H 0.37569 0.06984 0.52662 0.0
H1149 H 0.36823 0.06511 0.57211 0.0
H1150 H 0.39246 0.10044 0.49124 0.0
H1151 H 0.38138 0.1162 0.46421 0.0
C1152 C 0.90109 0.24322 0.57791 0.0
C1153 C 0.9267 0.25298 0.58864 0.0
C1154 C 0.9342 0.23524 0.5339 0.0
C1155 C 0.90967 0.2283 0.52092 0.0
N1156 N 0.87073 0.22872 0.52837 0.0
N1157 N 0.96914 0.26396 0.57199 0.0
C1158 C 0.89333 0.23314 0.54231 0.0
C1159 C 0.94371 0.25062 0.56523 0.0
N1160 N 0.88396 0.24255 0.60207 0.0
N1161 N 0.94816 0.22644 0.51702 0.0
H1162 H 0.97714 0.27661 0.59363 0.0
H1163 H 0.98245 0.26464 0.55386 0.0
H1164 H 0.94143 0.21411 0.49488 0.0
H1165 H 0.96519 0.2291 0.52746 0.0
H1166 H 0.86459 0.23329 0.59689 0.0
H1167 H 0.88879 0.24929 0.62852 0.0
H1168 H 0.85923 0.23435 0.54127 0.0
H1169 H 0.86442 0.2212 0.50254 0.0
C1170 C 0.36534 0.26818 0.54681 0.0
C1171 C 0.35381 0.25299 0.57746 0.0
C1172 C 0.33834 0.21471 0.54 0.0
C1173 C 0.35094 0.22996 0.50993 0.0
N1174 N 0.38228 0.27041 0.4872 0.0
N1175 N 0.33528 0.21199 0.60513 0.0
C1176 C 0.36647 0.25646 0.51428 0.0
C1177 C 0.34213 0.22626 0.57466 0.0
N1178 N 0.3736 0.29351 0.54776 0.0
N1179 N 0.32187 0.18943 0.53529 0.0
H1180 H 0.33843 0.21987 0.63103 0.0
H1181 H 0.32891 0.19267 0.60487 0.0
H1182 H 0.31861 0.18023 0.51037 0.0
H1183 H 0.31004 0.17798 0.55557 0.0
H1184 H 0.37968 0.30479 0.52494 0.0
H1185 H 0.37195 0.30288 0.57028 0.0
H1186 H 0.39575 0.28949 0.49018 0.0
H1187 H 0.38371 0.26228 0.4631 0.0
C1188 C 0.76569 0.07848 0.56408 0.0
C1189 C 0.76297 0.09575 0.58679 0.0
C1190 C 0.78423 0.12883 0.54142 0.0
C1191 C 0.7892 0.11214 0.52084 0.0
N1192 N 0.79047 0.0733 0.51788 0.0
N1193 N 0.77343 0.13869 0.59993 0.0
C1194 C 0.78171 0.08763 0.53384 0.0
C1195 C 0.77321 0.12134 0.57625 0.0
N1196 N 0.75211 0.05309 0.57045 0.0
N1197 N 0.78944 0.15151 0.52738 0.0
H1198 H 0.76588 0.13403 0.62575 0.0
H1199 H 0.78298 0.15804 0.59515 0.0
H1200 H 0.79787 0.1577 0.5023 0.0
H1201 H 0.78376 0.16329 0.53939 0.0
H1202 H 0.75166 0.03956 0.55269 0.0
H1203 H 0.73907 0.04537 0.59125 0.0
H1204 H 0.78743 0.05626 0.52843 0.0
H1205 H 0.80311 0.07974 0.49649 0.0
C1206 C 0.90253 0.67531 0.58237 0.0
C1207 C 0.91675 0.66274 0.5847 0.0
C1208 C 0.90451 0.6476 0.5224 0.0
C1209 C 0.89477 0.66416 0.51812 0.0
N1210 N 0.8854 0.69493 0.54357 0.0
N1211 N 0.93344 0.63881 0.55528 0.0
C1212 C 0.89372 0.67813 0.5481 0.0
C1213 C 0.91804 0.64904 0.55444 0.0
N1214 N 0.89692 0.68398 0.61306 0.0
N1215 N 0.9007 0.63044 0.49576 0.0
H1216 H 0.94429 0.63996 0.57774 0.0
H1217 H 0.93722 0.63113 0.53258 0.0
H1218 H 0.89023 0.62857 0.47246 0.0
H1219 H 0.90544 0.61637 0.49852 0.0
H1220 H 0.88469 0.6912 0.61345 0.0
H1221 H 0.90237 0.6815 0.63873 0.0
H1222 H 0.88705 0.70783 0.56347 0.0
H1223 H 0.87831 0.69715 0.51908 0.0
C1224 C 0.89795 0.65559 0.77763 0.0
C1225 C 0.92336 0.6754 0.77463 0.0
C1226 C 0.92114 0.68921 0.8362 0.0
C1227 C 0.89792 0.66643 0.84132 0.0
N1228 N 0.86672 0.6253 0.81759 0.0
N1229 N 0.96038 0.70986 0.80327 0.0
C1230 C 0.8868 0.64895 0.81216 0.0
C1231 C 0.93528 0.69218 0.80434 0.0
N1232 N 0.88426 0.64328 0.74742 0.0
N1233 N 0.92965 0.70797 0.86179 0.0
H1234 H 0.97171 0.71224 0.78108 0.0
H1235 H 0.9705 0.72065 0.82569 0.0
H1236 H 0.91953 0.70644 0.88515 0.0
H1237 H 0.9453 0.72586 0.85809 0.0
H1238 H 0.86498 0.63014 0.74806 0.0
H1239 H 0.89141 0.64839 0.72143 0.0
H1240 H 0.85978 0.61122 0.79767 0.0
H1241 H 0.85871 0.61873 0.84275 0.0
C1242 C 0.37023 0.27696 0.79839 0.0
C1243 C 0.35239 0.25973 0.77297 0.0
C1244 C 0.33856 0.22577 0.8173 0.0
C1245 C 0.35838 0.24252 0.84083 0.0
N1246 N 0.39753 0.28205 0.84874 0.0
N1247 N 0.32296 0.2164 0.75565 0.0
C1248 C 0.37558 0.26753 0.82984 0.0
C1249 C 0.33737 0.23371 0.78167 0.0
N1250 N 0.38136 0.30245 0.79335 0.0
N1251 N 0.3206 0.20257 0.82915 0.0
H1252 H 0.3222 0.22124 0.72897 0.0
H1253 H 0.3137 0.19697 0.7597 0.0
H1254 H 0.32102 0.19611 0.85496 0.0
H1255 H 0.30428 0.19063 0.81443 0.0
H1256 H 0.39272 0.31571 0.81291 0.0
H1257 H 0.37696 0.31033 0.77161 0.0
H1258 H 0.41168 0.2996 0.83991 0.0
H1259 H 0.40288 0.27535 0.8709 0.0
C1260 C 0.77664 0.12987 0.78553 0.0
C1261 C 0.76253 0.10302 0.78243 0.0
C1262 C 0.77311 0.10002 0.84518 0.0
C1263 C 0.78294 0.12634 0.85011 0.0
N1264 N 0.79216 0.16641 0.82546 0.0
N1265 N 0.74289 0.06266 0.81256 0.0
C1266 C 0.78432 0.14139 0.82037 0.0
C1267 C 0.75965 0.08807 0.81309 0.0
N1268 N 0.78359 0.14435 0.75527 0.0
N1269 N 0.77689 0.08647 0.87108 0.0
H1270 H 0.73111 0.05318 0.7906 0.0
H1271 H 0.73854 0.05154 0.8355 0.0
H1272 H 0.78773 0.09495 0.89424 0.0
H1273 H 0.77185 0.06758 0.8675 0.0
H1274 H 0.79586 0.16382 0.75589 0.0
H1275 H 0.77933 0.13665 0.72924 0.0
H1276 H 0.79096 0.17764 0.80545 0.0
H1277 H 0.79817 0.17551 0.85048 0.0
C1278 C 0.06274 0.34948 0.05386 0.0
C1279 C 0.07217 0.3715 0.03226 0.0
C1280 C 0.11476 0.37685 0.03629 0.0
C1281 C 0.10516 0.35482 0.05751 0.0
N1282 N 0.06904 0.31552 0.07464 0.0
N1283 N 0.10513 0.40003 0.99242 0.0
C1284 C 0.07872 0.33945 0.0618 0.0
C1285 C 0.09756 0.3832 0.02003 0.0
N1286 N 0.03959 0.33931 0.06971 0.0
N1287 N 0.14022 0.39245 0.03317 0.0
H1288 H 0.09266 0.40405 0.97861 0.0
H1289 H 0.12284 0.4076 0.98059 0.0
H1290 H 0.1534 0.38833 0.04434 0.0
H1291 H 0.14819 0.41024 0.02153 0.0
H1292 H 0.03332 0.32492 0.08859 0.0
H1293 H 0.02765 0.34676 0.06746 0.0
H1294 H 0.04971 0.30265 0.07555 0.0
H1295 H 0.08048 0.30781 0.08061 0.0
C1296 C 0.61627 0.71061 0.06269 0.0
C1297 C 0.62977 0.70464 0.03691 0.0
C1298 C 0.66373 0.74908 0.03774 0.0
C1299 C 0.64985 0.75482 0.06283 0.0
N1300 N 0.60973 0.74326 0.08911 0.0
N1301 N 0.66245 0.71989 0.99193 0.0
C1302 C 0.62483 0.7363 0.0713 0.0
C1303 C 0.65229 0.72445 0.02181 0.0
N1304 N 0.59684 0.69202 0.08173 0.0
N1305 N 0.68819 0.76665 0.03048 0.0
H1306 H 0.65397 0.70237 0.97872 0.0
H1307 H 0.67764 0.7341 0.97808 0.0
H1308 H 0.69685 0.78505 0.04087 0.0
H1309 H 0.7002 0.76252 0.01583 0.0
H1310 H 0.58823 0.69582 0.10317 0.0
H1311 H 0.59123 0.67294 0.07944 0.0
H1312 H 0.5906 0.73087 0.09356 0.0
H1313 H 0.61584 0.76209 0.09588 0.0
C1314 C 0.30092 0.90382 0.01534 0.0
C1315 C 0.30699 0.92918 0.01015 0.0
C1316 C 0.26664 0.91891 0.03847 0.0
C1317 C 0.26497 0.89652 0.05243 0.0
N1318 N 0.28217 0.86848 0.05562 0.0
N1319 N 0.29114 0.95805 0.00557 0.0
C1320 C 0.28229 0.88893 0.04083 0.0
C1321 C 0.28834 0.93588 0.01814 0.0
N1322 N 0.3121 0.89358 0.99485 0.0
N1323 N 0.24727 0.92356 0.04434 0.0
H1324 H 0.30397 0.9682 0.98535 0.0
H1325 H 0.28039 0.96597 0.01396 0.0
H1326 H 0.23102 0.91106 0.05828 0.0
H1327 H 0.24629 0.93871 0.03362 0.0
H1328 H 0.30702 0.87458 0.99612 0.0
H1329 H 0.32342 0.90304 0.97289 0.0
H1330 H 0.29624 0.86401 0.0505 0.0
H1331 H 0.26955 0.85737 0.07542 0.0
C1332 C 0.40649 0.10066 0.96776 0.0
C1333 C 0.38937 0.08147 0.99119 0.0
C1334 C 0.36015 0.09797 0.98569 0.0
C1335 C 0.37781 0.11761 0.96353 0.0
N1336 N 0.42048 0.14156 0.94153 0.0
N1337 N 0.35259 0.06534 0.02894 0.0
C1338 C 0.40196 0.12036 0.95765 0.0
C1339 C 0.36696 0.08117 0.00217 0.0
N1340 N 0.426 0.09908 0.95253 0.0
N1341 N 0.33666 0.09501 0.99011 0.0
H1342 H 0.35738 0.0533 0.04213 0.0
H1343 H 0.3373 0.06581 0.04036 0.0
H1344 H 0.33172 0.10781 0.97985 0.0
H1345 H 0.32185 0.07934 0.00231 0.0
H1346 H 0.43706 0.11084 0.93192 0.0
H1347 H 0.42961 0.08443 0.95732 0.0
H1348 H 0.4392 0.14573 0.94017 0.0
H1349 H 0.41787 0.1562 0.93263 0.0
C1350 C 0.91177 0.31491 0.96761 0.0
C1351 C 0.92993 0.3195 0.99523 0.0
C1352 C 0.91552 0.27407 0.99616 0.0
C1353 C 0.8969 0.26959 0.96954 0.0
N1354 N 0.87212 0.28445 0.93917 0.0
N1355 N 0.94306 0.30214 0.04339 0.0
C1356 C 0.89314 0.28963 0.95886 0.0
C1357 C 0.92986 0.29863 0.012 0.0
N1358 N 0.91351 0.33426 0.94725 0.0
N1359 N 0.92067 0.25544 0.00489 0.0
H1360 H 0.95285 0.31964 0.05657 0.0
H1361 H 0.94191 0.28724 0.05833 0.0
H1362 H 0.9106 0.23716 0.99424 0.0
H1363 H 0.93611 0.25867 0.02082 0.0
H1364 H 0.90212 0.33132 0.92466 0.0
H1365 H 0.92808 0.3529 0.94988 0.0
H1366 H 0.86727 0.2981 0.93309 0.0
H1367 H 0.85829 0.26598 0.93237 0.0
C1368 C 0.70724 0.61423 0.96949 0.0
C1369 C 0.70583 0.62969 0.99722 0.0
C1370 C 0.752 0.65722 0.99489 0.0
C1371 C 0.75318 0.64069 0.96894 0.0
N1372 N 0.73277 0.59956 0.94015 0.0
N1373 N 0.72756 0.66283 0.04181 0.0
C1374 C 0.73108 0.61775 0.95954 0.0
C1375 C 0.72845 0.65032 0.01166 0.0
N1376 N 0.68615 0.59768 0.95016 0.0
N1377 N 0.7732 0.67974 0.00273 0.0
H1378 H 0.71077 0.6578 0.05526 0.0
H1379 H 0.74363 0.67657 0.05534 0.0
H1380 H 0.7908 0.68461 0.99204 0.0
H1381 H 0.77304 0.69395 0.01825 0.0
H1382 H 0.68682 0.58792 0.92738 0.0
H1383 H 0.66849 0.59602 0.95365 0.0
H1384 H 0.71734 0.58157 0.93543 0.0
H1385 H 0.74995 0.6015 0.93205 0.0
C1386 C 0.91841 0.60584 0.96722 0.0
C1387 C 0.93727 0.62229 0.99243 0.0
C1388 C 0.92304 0.65319 0.98578 0.0
C1389 C 0.90387 0.63639 0.9615 0.0
N1390 N 0.87943 0.59455 0.9355 0.0
N1391 N 0.95384 0.65881 0.03186 0.0
C1392 C 0.90018 0.61192 0.95464 0.0
C1393 C 0.93848 0.64516 0.00359 0.0
N1394 N 0.91896 0.58541 0.95294 0.0
N1395 N 0.92692 0.67703 0.99097 0.0
H1396 H 0.96488 0.65311 0.04602 0.0
H1397 H 0.95391 0.67442 0.04344 0.0
H1398 H 0.91515 0.68299 0.97962 0.0
H1399 H 0.94246 0.69125 0.00485 0.0
H1400 H 0.90781 0.57485 0.93106 0.0
H1401 H 0.9321 0.58018 0.96035 0.0
H1402 H 0.87418 0.57553 0.93336 0.0
H1403 H 0.86611 0.59849 0.92439 0.0
C1404 C 0.364 0.29353 0.006 0.0
C1405 C 0.38519 0.31639 0.99419 0.0
C1406 C 0.3996 0.29164 0.95963 0.0
C1407 C 0.37641 0.26927 0.96615 0.0
N1408 N 0.33572 0.24866 0.99429 0.0
N1409 N 0.41988 0.3367 0.95229 0.0
C1410 C 0.3584 0.2701 0.98923 0.0
C1411 C 0.40233 0.31535 0.96935 0.0
N1412 N 0.34966 0.29411 0.0337 0.0
N1413 N 0.41885 0.29033 0.94313 0.0
H1414 H 0.4213 0.3543 0.95563 0.0
H1415 H 0.43096 0.33637 0.93126 0.0
H1416 H 0.4175 0.27331 0.93514 0.0
H1417 H 0.43696 0.30589 0.9408 0.0
H1418 H 0.33534 0.27791 0.04559 0.0
H1419 H 0.35361 0.31081 0.04704 0.0
H1420 H 0.32059 0.2485 0.00733 0.0
H1421 H 0.33174 0.23114 0.98373 0.0
C1422 C 0.71935 0.07097 0.98019 0.0
C1423 C 0.70466 0.0793 -0.00057 0.0
C1424 C 0.73893 0.12335 0.99293 0.0
C1425 C 0.75344 0.11472 0.97453 0.0
N1426 N 0.76144 0.08057 0.96352 0.0
N1427 N 0.70464 0.11286 0.03442 0.0
C1428 C 0.74501 0.08855 0.973 0.0
C1429 C 0.71578 0.10536 0.00912 0.0
N1430 N 0.70859 0.04714 0.96564 0.0
N1431 N 0.74669 0.14852 0.99379 0.0
H1432 H 0.68857 0.10004 0.0484 0.0
H1433 H 0.71295 0.13131 0.04444 0.0
H1434 H 0.7639 0.16212 0.98312 0.0
H1435 H 0.73541 0.15563 0.00322 0.0
H1436 H 0.71833 0.0414 0.94859 0.0
H1437 H 0.68939 0.03403 0.96655 0.0
H1438 H 0.75681 0.06169 0.96454 0.0
H1439 H 0.7805 0.09326 0.95875 0.0
C1440 C 0.63453 0.91646 0.02149 0.0
C1441 C 0.64662 0.94212 0.03351 0.0
C1442 C 0.67806 0.93543 0.06521 0.0
C1443 C 0.66234 0.90896 0.06084 0.0
N1444 N 0.62488 0.87381 0.03497 0.0
N1445 N 0.6791 0.9752 0.0714 0.0
C1446 C 0.64054 0.8993 0.03851 0.0
C1447 C 0.66856 0.95164 0.05597 0.0
N1448 N 0.61765 0.90862 0.9934 0.0
N1449 N 0.70177 0.9449 0.07948 0.0
H1450 H 0.67207 0.98741 0.06806 0.0
H1451 H 0.69341 0.98166 0.09088 0.0
H1452 H 0.70901 0.93324 0.08655 0.0
H1453 H 0.71495 0.96416 0.08058 0.0
H1454 H 0.60979 0.89067 0.98168 0.0
H1455 H 0.61381 0.921 0.97918 0.0
H1456 H 0.60716 0.86575 0.02254 0.0
H1457 H 0.62898 0.86073 0.04639 0.0
C1458 C 0.10827 0.71459 0.01381 0.0
C1459 C 0.08236 0.7068 0.00986 0.0
C1460 C 0.09119 0.74699 0.03829 0.0
C1461 C 0.1145 0.75022 0.05161 0.0
N1462 N 0.1439 0.73447 0.05434 0.0
N1463 N 0.05105 0.71969 0.00777 0.0
C1464 C 0.12297 0.73362 0.03954 0.0
C1465 C 0.07437 0.72439 0.01867 0.0
N1466 N 0.11902 0.70434 0.99244 0.0
N1467 N 0.08551 0.76569 0.04408 0.0
H1468 H 0.04049 0.70598 0.98821 0.0
H1469 H 0.04249 0.72964 0.01717 0.0
H1470 H 0.09787 0.78253 0.05755 0.0
H1471 H 0.06967 0.76552 0.03341 0.0
H1472 H 0.13833 0.71066 0.99305 0.0
H1473 H 0.10929 0.6924 0.97066 0.0
H1474 H 0.14905 0.72097 0.04835 0.0
H1475 H 0.15455 0.74678 0.07521 0.0
C1476 C 0.30589 0.4061 0.05572 0.0
C1477 C 0.31113 0.39273 0.02861 0.0
C1478 C 0.26727 0.35774 0.03176 0.0
C1479 C 0.26204 0.37145 0.05811 0.0
N1480 N 0.27396 0.4112 0.08715 0.0
N1481 N 0.29489 0.35925 0.98388 0.0
C1482 C 0.28057 0.39659 0.06708 0.0
C1483 C 0.29117 0.36961 0.01439 0.0
N1484 N 0.32512 0.42666 0.07295 0.0
N1485 N 0.25 0.33298 0.02466 0.0
H1486 H 0.31191 0.36784 0.96993 0.0
H1487 H 0.28041 0.34366 0.97039 0.0
H1488 H 0.23214 0.32373 0.03622 0.0
H1489 H 0.25401 0.32116 0.00911 0.0
H1490 H 0.32239 0.43523 0.09555 0.0
H1491 H 0.34413 0.43374 0.06733 0.0
H1492 H 0.28604 0.43045 0.09184 0.0
H1493 H 0.25549 0.40455 0.09584 0.0
C1494 C 0.72698 0.67654 0.3883 0.0
C1495 C 0.73526 0.69709 0.36397 0.0
C1496 C 0.77822 0.70317 0.36675 0.0
C1497 C 0.7697 0.68253 0.39056 0.0
N1498 N 0.73457 0.64418 0.41249 0.0
N1499 N 0.76657 0.72324 0.32037 0.0
C1500 C 0.74348 0.66724 0.39692 0.0
C1501 C 0.76021 0.70823 0.35002 0.0
N1502 N 0.70457 0.66729 0.40604 0.0
N1503 N 0.80347 0.71873 0.36146 0.0
H1504 H 0.75345 0.72612 0.3062 0.0
H1505 H 0.78387 0.73023 0.30747 0.0
H1506 H 0.81718 0.71546 0.37283 0.0
H1507 H 0.81078 0.73573 0.34769 0.0
H1508 H 0.69928 0.65411 0.4266 0.0
H1509 H 0.69249 0.67455 0.40367 0.0
H1510 H 0.71535 0.63128 0.41512 0.0
H1511 H 0.74641 0.63704 0.41905 0.0
C1512 C 0.31463 0.05308 0.34947 0.0
C1513 C 0.29242 0.03309 0.3648 0.0
C1514 C 0.28766 0.06429 0.40077 0.0
C1515 C 0.31239 0.08311 0.39148 0.0
N1516 N 0.35069 0.09497 0.35861 0.0
N1517 N 0.25997 0.01981 0.41044 0.0
C1518 C 0.32616 0.07754 0.36584 0.0
C1519 C 0.27917 0.0387 0.39147 0.0
N1520 N 0.32447 0.04885 0.31896 0.0
N1521 N 0.27262 0.0709 0.41952 0.0
H1522 H 0.25426 1.00076 0.40721 0.0
H1523 H 0.25158 0.02327 0.4325 0.0
H1524 H 0.27856 0.08963 0.42669 0.0
H1525 H 0.2536 0.0583 0.42445 0.0
H1526 H 0.33936 0.06326 0.3049 0.0
H1527 H 0.31596 0.03141 0.30551 0.0
H1528 H 0.36247 0.09075 0.34349 0.0
H1529 H 0.35987 0.11314 0.36974 0.0
C1530 C 0.98149 0.24908 0.38935 0.0
C1531 C 0.98263 0.26675 0.36358 0.0
C1532 C 0.93718 0.25081 0.37176 0.0
C1533 C 0.93604 0.23247 0.39604 0.0
N1534 N 0.95562 0.20993 0.42058 0.0
N1535 N 0.96056 0.28088 0.32473 0.0
C1536 C 0.95767 0.23011 0.40205 0.0
C1537 C 0.96013 0.26655 0.35309 0.0
N1538 N 1.00316 0.25155 0.4042 0.0
N1539 N 0.91652 0.25358 0.36733 0.0
H1540 H 0.97689 0.29215 0.31009 0.0
H1541 H 0.9444 0.27987 0.31366 0.0
H1542 H 0.89921 0.24153 0.37931 0.0
H1543 H 0.9169 0.26848 0.35339 0.0
H1544 H 1.00324 0.24108 0.42618 0.0
H1545 H 0.02121 0.26586 0.39762 0.0
H1546 H 0.97021 0.20585 0.42236 0.0
H1547 H 0.93867 0.19586 0.43117 0.0
C1548 C 0.08231 0.4375 0.29926 0.0
C1549 C 0.06605 0.41953 0.32486 0.0
C1550 C 0.0374 0.43674 0.32068 0.0
C1551 C 0.05408 0.45502 0.29602 0.0
N1552 N 0.09508 0.4768 0.26843 0.0
N1553 N 0.03141 0.40595 0.3662 0.0
C1554 C 0.0775 0.4568 0.28778 0.0
C1555 C 0.04454 0.42032 0.33748 0.0
N1556 N 0.10125 0.4351 0.28364 0.0
N1557 N 0.01445 0.43463 0.3272 0.0
H1558 H 0.03654 0.39426 0.3797 0.0
H1559 H 0.01698 0.40737 0.37879 0.0
H1560 H 0.00923 0.44714 0.3166 0.0
H1561 H 1.00015 0.41978 0.34142 0.0
H1562 H 0.11147 0.44564 0.26159 0.0
H1563 H 0.10537 0.42104 0.29014 0.0
H1564 H 0.11357 0.48065 0.2651 0.0
H1565 H 0.09198 0.49093 0.25851 0.0
C1566 C 0.57553 0.64171 0.30165 0.0
C1567 C 0.59387 0.64573 0.32868 0.0
C1568 C 0.58062 0.60057 0.32567 0.0
C1569 C 0.56182 0.59657 0.29962 0.0
N1570 N 0.53642 0.6116 0.27157 0.0
N1571 N 0.60828 0.62745 0.37377 0.0
C1572 C 0.55749 0.6166 0.29097 0.0
C1573 C 0.59461 0.62464 0.34308 0.0
N1574 N 0.57654 0.66163 0.2837 0.0
N1575 N 0.58622 0.58197 0.33235 0.0
H1576 H 0.61799 0.64457 0.38793 0.0
H1577 H 0.6077 0.61228 0.38723 0.0
H1578 H 0.57633 0.56401 0.3206 0.0
H1579 H 0.60182 0.58494 0.3477 0.0
H1580 H 0.56518 0.65938 0.26134 0.0
H1581 H 0.59046 0.68037 0.28819 0.0
H1582 H 0.53106 0.62507 0.26702 0.0
H1583 H 0.523 0.59328 0.2634 0.0
C1584 C 0.38328 0.95097 0.34151 0.0
C1585 C 0.37612 0.96965 0.3431 0.0
C1586 C 0.41641 0.99926 0.31468 0.0
C1587 C 0.41895 0.97834 0.30345 0.0
N1588 N 0.40299 0.93313 0.30502 0.0
N1589 N 0.39029 0.01425 0.34252 0.0
C1590 C 0.40229 0.95393 0.31718 0.0
C1591 C 0.39419 0.9948 0.33347 0.0
N1592 N 0.37207 0.93056 0.36356 0.0
N1593 N 0.4354 0.02319 0.30752 0.0
H1594 H 0.37731 0.01245 0.36206 0.0
H1595 H 0.4005 0.03233 0.332 0.0
H1596 H 0.45195 0.02667 0.29458 0.0
H1597 H 0.43579 0.03954 0.31655 0.0
H1598 H 0.37788 0.9172 0.36516 0.0
H1599 H 0.35942 0.92907 0.38353 0.0
H1600 H 0.38933 0.91479 0.31179 0.0
H1601 H 0.41556 0.93376 0.28567 0.0
C1602 C 0.59766 0.97733 0.33656 0.0
C1603 C 0.59707 0.95472 0.32553 0.0
C1604 C 0.56105 0.94444 0.2854 0.0
C1605 C 0.5642 0.96869 0.29238 0.0
N1606 N 0.58603 0.00902 0.32295 0.0
N1607 N 0.58024 0.9183 0.28523 0.0
C1608 C 0.58257 0.98534 0.3177 0.0
C1609 C 0.57906 0.93846 0.29924 0.0
N1610 N 0.61204 0.9907 0.36575 0.0
N1611 N 0.54098 0.92716 0.26503 0.0
H1612 H 0.59315 0.91303 0.2937 0.0
H1613 H 0.56987 0.90798 0.26268 0.0
H1614 H 0.5279 0.93106 0.25295 0.0
H1615 H 0.53598 0.90822 0.26272 0.0
H1616 H 0.61153 0.00605 0.37719 0.0
H1617 H 0.62274 0.98497 0.38072 0.0
H1618 H 0.60108 0.02316 0.33771 0.0
H1619 H 0.5745 0.01496 0.31076 0.0
C1620 C 0.06862 0.64011 0.34524 0.0
C1621 C 0.0489 0.64588 0.34562 0.0
C1622 C 0.02096 0.60445 0.31698 0.0
C1623 C 0.04263 0.60291 0.30732 0.0
N1624 N 0.08805 0.6208 0.31118 0.0
N1625 N 1.00387 0.62912 0.34409 0.0
C1626 C 0.06668 0.62083 0.32173 0.0
C1627 C 0.02415 0.62656 0.33543 0.0
N1628 N 0.08878 0.65245 0.36819 0.0
N1629 N 0.99752 0.58463 0.30864 0.0
H1630 H 1.0051 0.64223 0.36336 0.0
H1631 H 0.98573 0.61771 0.33375 0.0
H1632 H 0.99496 0.56815 0.29608 0.0
H1633 H 0.98064 0.58359 0.31597 0.0
H1634 H 0.10286 0.64767 0.37064 0.0
H1635 H 0.0893 0.66476 0.38831 0.0
H1636 H 0.10613 0.63529 0.31819 0.0
H1637 H 0.08803 0.60774 0.29296 0.0
C1638 C 0.3847 0.39368 0.30381 0.0
C1639 C 0.3715 0.4021 0.3264 0.0
C1640 C 0.40713 0.44565 0.32266 0.0
C1641 C 0.42014 0.43706 0.30041 0.0
N1642 N 0.42539 0.40231 0.28127 0.0
N1643 N 0.37441 0.43449 0.36718 0.0
C1644 C 0.41034 0.41078 0.29536 0.0
C1645 C 0.38414 0.4276 0.33907 0.0
N1646 N 0.37251 0.37037 0.28749 0.0
N1647 N 0.41589 0.47093 0.32666 0.0
H1648 H 0.35832 0.42147 0.38094 0.0
H1649 H 0.38387 0.45233 0.37938 0.0
H1650 H 0.43282 0.48468 0.31554 0.0
H1651 H 0.40554 0.47814 0.33909 0.0
H1652 H 0.38094 0.36474 0.26796 0.0
H1653 H 0.35333 0.35759 0.29005 0.0
H1654 H 0.41996 0.38322 0.27975 0.0
H1655 H 0.44426 0.4146 0.27483 0.0
C1656 C 0.31867 0.26043 0.34749 0.0
C1657 C 0.29674 0.2591 0.36266 0.0
C1658 C 0.29071 0.22304 0.3987 0.0
C1659 C 0.31519 0.22802 0.3895 0.0
N1660 N 0.35382 0.25331 0.35689 0.0
N1661 N 0.26436 0.24142 0.40852 0.0
C1662 C 0.32948 0.24701 0.36398 0.0
C1663 C 0.28309 0.24073 0.38943 0.0
N1664 N 0.32889 0.27401 0.31694 0.0
N1665 N 0.27506 0.20173 0.41737 0.0
H1666 H 0.25946 0.25534 0.40548 0.0
H1667 H 0.25568 0.22989 0.43057 0.0
H1668 H 0.28034 0.18851 0.42449 0.0
H1669 H 0.25618 0.19599 0.42224 0.0
H1670 H 0.34355 0.2738 0.30301 0.0
H1671 H 0.32089 0.28321 0.3033 0.0
H1672 H 0.36601 0.26904 0.34186 0.0
H1673 H 0.36244 0.2439 0.36806 0.0
C1674 C 0.765 0.03675 0.39253 0.0
C1675 C 0.74695 0.03511 0.36668 0.0
C1676 C 0.76394 0.08096 0.37283 0.0
C1677 C 0.78264 0.08253 0.39719 0.0
N1678 N 0.80498 0.06303 0.42286 0.0
N1679 N 0.73252 0.0563 0.32674 0.0
C1680 C 0.7846 0.06081 0.40425 0.0
C1681 C 0.7474 0.05745 0.35514 0.0
N1682 N 0.76235 0.01542 0.40835 0.0
N1683 N 0.76163 0.10177 0.3674 0.0
H1684 H 0.72062 0.0395 0.31285 0.0
H1685 H 0.73363 0.0722 0.31493 0.0
H1686 H 0.77425 0.11943 0.37864 0.0
H1687 H 0.74659 0.10127 0.35335 0.0
H1688 H 0.77318 0.01586 0.43043 0.0
H1689 H 0.74764 0.99726 0.40245 0.0
H1690 H 0.80868 0.04822 0.42531 0.0
H1691 H 0.81953 0.08017 0.43288 0.0
C1692 C 0.96678 0.69127 0.38821 0.0
C1693 C 0.97651 0.7126 0.36513 0.0
C1694 C 0.93787 0.71482 0.37545 0.0
C1695 C 0.92774 0.69246 0.39606 0.0
N1696 N 0.9289 0.65443 0.40857 0.0
N1697 N 0.96622 0.73835 0.32717 0.0
C1698 C 0.94093 0.67893 0.3975 0.0
C1699 C 0.96049 0.72247 0.35569 0.0
N1700 N 0.9822 0.68391 0.40422 0.0
N1701 N 0.9267 0.72934 0.37572 0.0
H1702 H 0.98125 0.74259 0.31 0.0
H1703 H 0.95414 0.74452 0.31787 0.0
H1704 H 0.91035 0.72457 0.39013 0.0
H1705 H 0.93494 0.74713 0.36396 0.0
H1706 H 0.97562 0.66951 0.42315 0.0
H1707 H 1.00181 0.69417 0.40315 0.0
H1708 H 0.93738 0.64328 0.40779 0.0
H1709 H 0.90963 0.64461 0.41425 0.0
C1710 C 0.43502 0.0494 0.6833 0.0
C1711 C 0.40955 0.03873 0.69484 0.0
C1712 C 0.41486 0.00736 0.72866 0.0
C1713 C 0.4414 0.02201 0.72471 0.0
N1714 N 0.47723 0.05843 0.69918 0.0
N1715 N 0.37658 0.00906 0.73449 0.0
C1716 C 0.45168 0.04327 0.70184 0.0
C1717 C 0.39956 0.01775 0.7186 0.0
N1718 N 0.44319 0.06496 0.65421 0.0
N1719 N 0.40441 0.98382 0.74317 0.0
H1720 H 0.36533 0.01721 0.73122 0.0
H1721 H 0.36997 0.99545 0.75457 0.0
H1722 H 0.41531 0.97577 0.75059 0.0
H1723 H 0.38496 0.97148 0.74403 0.0
H1724 H 0.461 0.07165 0.64301 0.0
H1725 H 0.43113 0.06865 0.63872 0.0
H1726 H 0.4856 0.07574 0.68609 0.0
H1727 H 0.49006 0.0546 0.7122 0.0
C1728 C 0.95044 0.37386 0.73296 0.0
C1729 C 0.96425 0.36867 0.70673 0.0
C1730 C 0.99724 0.41346 0.70791 0.0
C1731 C 0.98294 0.41862 0.73313 0.0
N1732 N 0.9429 0.40544 0.761 0.0
N1733 N 0.99693 0.38491 0.66183 0.0
C1734 C 0.95838 0.39935 0.74238 0.0
C1735 C 0.98644 0.38894 0.69181 0.0
N1736 N 0.93109 0.35464 0.75127 0.0
N1737 N 0.0216 0.43142 0.70078 0.0
H1738 H 0.98906 0.3674 0.64868 0.0
H1739 H 0.01177 0.39946 0.64789 0.0
H1740 H 0.03017 0.44969 0.71158 0.0
H1741 H 0.03386 0.42766 0.68609 0.0
H1742 H 0.92226 0.35768 0.77314 0.0
H1743 H 0.9256 0.33566 0.74756 0.0
H1744 H 0.92395 0.39253 0.76581 0.0
H1745 H 0.94841 0.42406 0.76822 0.0
C1746 C 0.63264 0.60099 0.6886 0.0
C1747 C 0.65531 0.60235 0.70108 0.0
C1748 C 0.63054 0.56658 0.74111 0.0
C1749 C 0.60857 0.56782 0.73272 0.0
N1750 N 0.58842 0.58684 0.70002 0.0
N1751 N 0.67608 0.58899 0.7442 0.0
C1752 C 0.60949 0.58511 0.70666 0.0
C1753 C 0.65433 0.5856 0.72831 0.0
N1754 N 0.63315 0.61434 0.65894 0.0
N1755 N 0.62873 0.54736 0.76186 0.0
H1756 H 0.69407 0.60324 0.73719 0.0
H1757 H 0.67628 0.57932 0.76707 0.0
H1758 H 0.61171 0.5334 0.77251 0.0
H1759 H 0.6436 0.54388 0.76562 0.0
H1760 H 0.61697 0.6124 0.64647 0.0
H1761 H 0.64966 0.62572 0.64474 0.0
H1762 H 0.58851 0.60105 0.68462 0.0
H1763 H 0.571 0.57469 0.71163 0.0
C1764 C 0.71689 0.75813 0.6719 0.0
C1765 C 0.73828 0.75711 0.65929 0.0
C1766 C 0.74953 0.79382 0.62118 0.0
C1767 C 0.72604 0.79196 0.62907 0.0
N1768 N 0.68666 0.77214 0.66084 0.0
N1769 N 0.77321 0.77205 0.61764 0.0
C1770 C 0.70959 0.77419 0.65441 0.0
C1771 C 0.75442 0.77471 0.63324 0.0
N1772 N 0.704 0.74427 0.70112 0.0
N1773 N 0.76701 0.81361 0.60144 0.0
H1774 H 0.77726 0.75796 0.62431 0.0
H1775 H 0.78334 0.78236 0.59537 0.0
H1776 H 0.76384 0.82762 0.59121 0.0
H1777 H 0.78552 0.81747 0.59816 0.0
H1778 H 0.68965 0.74589 0.71359 0.0
H1779 H 0.70929 0.73287 0.71509 0.0
H1780 H 0.67249 0.75757 0.67561 0.0
H1781 H 0.68138 0.78447 0.64974 0.0
C1782 C 0.24915 0.97807 0.62679 0.0
C1783 C 0.26754 0.98202 0.65371 0.0
C1784 C 0.25268 0.93646 0.65273 0.0
C1785 C 0.23378 0.93258 0.62692 0.0
N1786 N 0.20926 0.94837 0.59815 0.0
N1787 N 0.28136 0.96376 0.69966 0.0
C1788 C 0.23031 0.953 0.6173 0.0
C1789 C 0.26756 0.96081 0.66906 0.0
N1790 N 0.25082 0.99794 0.60785 0.0
N1791 N 0.25748 0.91743 0.66024 0.0
H1792 H 0.2917 0.9811 0.7131 0.0
H1793 H 0.2803 0.94861 0.71379 0.0
H1794 H 0.24694 0.89927 0.64927 0.0
H1795 H 0.27306 0.92016 0.67543 0.0
H1796 H 0.23933 0.99561 0.58562 0.0
H1797 H 0.26537 0.01652 0.61135 0.0
H1798 H 0.20456 0.96226 0.59298 0.0
H1799 H 0.19523 0.93009 0.59087 0.0
C1800 C 0.03733 0.27334 0.6363 0.0
C1801 C 0.03683 0.28948 0.66375 0.0
C1802 C 0.08275 0.3173 0.65773 0.0
C1803 C 0.08314 0.30028 0.63189 0.0
N1804 N 0.06205 0.25873 0.60438 0.0
N1805 N 0.05982 0.32395 0.70595 0.0
C1806 C 0.06086 0.27707 0.62416 0.0
C1807 C 0.05981 0.31065 0.67615 0.0
N1808 N 0.01551 0.25578 0.61938 0.0
N1809 N 0.10409 0.34005 0.66388 0.0
H1810 H 0.04349 0.3192 0.72046 0.0
H1811 H 0.07625 0.33816 0.71816 0.0
H1812 H 0.12132 0.3448 0.65198 0.0
H1813 H 0.10438 0.35456 0.67921 0.0
H1814 H 0.01529 0.24561 0.59654 0.0
H1815 H 0.99778 0.25336 0.6251 0.0
H1816 H 0.0467 0.24052 0.601 0.0
H1817 H 0.07891 0.26083 0.59446 0.0
C1818 C 0.26825 0.30647 0.66266 0.0
C1819 C 0.27188 0.28731 0.64669 0.0
C1820 C 0.23611 0.27597 0.6057 0.0
C1821 C 0.23503 0.29744 0.61781 0.0
N1822 N 0.2508 0.33429 0.65619 0.0
N1823 N 0.26232 0.25717 0.59788 0.0
C1824 C 0.25121 0.31296 0.64606 0.0
C1825 C 0.25645 0.27272 0.61708 0.0
N1826 N 0.28053 0.31793 0.69413 0.0
N1827 N 0.21782 0.25883 0.58285 0.0
H1828 H 0.27801 0.25529 0.60351 0.0
H1829 H 0.25329 0.24825 0.57379 0.0
H1830 H 0.20274 0.26076 0.57362 0.0
H1831 H 0.21623 0.24152 0.57599 0.0
H1832 H 0.27691 0.33033 0.70886 0.0
H1833 H 0.29278 0.31331 0.70726 0.0
H1834 H 0.26411 0.348 0.6736 0.0
H1835 H 0.23784 0.33893 0.64549 0.0
C1836 C 0.70838 0.96414 0.67782 0.0
C1837 C 0.72878 0.98703 0.66461 0.0
C1838 C 0.7415 0.9625 0.62627 0.0
C1839 C 0.71888 0.94005 0.63476 0.0
N1840 N 0.67991 0.91917 0.66736 0.0
N1841 N 0.76144 0.00764 0.61983 0.0
C1842 C 0.70211 0.94074 0.66044 0.0
C1843 C 0.74469 0.98616 0.63743 0.0
N1844 N 0.69543 0.9647 0.70741 0.0
N1845 N 0.75976 0.96131 0.60668 0.0
H1846 H 0.76337 0.02531 0.62486 0.0
H1847 H 0.77134 0.00747 0.59713 0.0
H1848 H 0.75803 0.94435 0.5975 0.0
H1849 H 0.77764 0.97692 0.60273 0.0
H1850 H 0.68186 0.94851 0.72024 0.0
H1851 H 0.6999 0.98142 0.72114 0.0
H1852 H 0.66547 0.91887 0.68253 0.0
H1853 H 0.67553 0.90166 0.65629 0.0
C1854 C 0.05249 0.76677 0.67232 0.0
C1855 C 0.03938 0.74102 0.66077 0.0
C1856 C 0.07746 0.7484 0.62879 0.0
C1857 C 0.08778 0.77481 0.63297 0.0
N1858 N 0.08453 0.80961 0.65796 0.0
N1859 N 0.03907 0.7083 0.62262 0.0
C1860 C 0.07535 0.78419 0.655 0.0
C1861 C 0.05189 0.73185 0.63812 0.0
N1862 N 0.0434 0.77448 0.70028 0.0
N1863 N 0.09196 0.73924 0.61479 0.0
H1864 H 0.01983 0.69593 0.62574 0.0
H1865 H 0.04699 0.70205 0.60313 0.0
H1866 H 0.1108 0.75108 0.60778 0.0
H1867 H 0.08613 0.72003 0.61391 0.0
H1868 H 0.05327 0.79255 0.7117 0.0
H1869 H 0.02742 0.76196 0.7147 0.0
H1870 H 0.07458 0.81732 0.67022 0.0
H1871 H 0.10136 0.82293 0.6461 0.0
C1872 C 0.96775 0.58228 0.68506 0.0
C1873 C 0.97982 0.608 0.69669 0.0
C1874 C 0.01163 0.60178 0.72817 0.0
C1875 C 0.99607 0.57527 0.72405 0.0
N1876 N 0.95832 0.53981 0.69919 0.0
N1877 N 0.01227 0.64134 0.73432 0.0
C1878 C 0.97401 0.56533 0.70217 0.0
C1879 C 1.00186 0.61777 0.71899 0.0
N1880 N 0.95064 0.57416 0.65724 0.0
N1881 N 0.0355 0.61154 0.74198 0.0
H1882 H 1.00501 0.65338 0.73111 0.0
H1883 H 0.02667 0.64797 0.75366 0.0
H1884 H 0.04302 0.60009 0.74889 0.0
H1885 H 0.04852 0.63085 0.7428 0.0
H1886 H 0.94279 0.55614 0.64576 0.0
H1887 H 0.94657 0.58636 0.64299 0.0
H1888 H 0.9405 0.53164 0.68708 0.0
H1889 H 0.96244 0.52683 0.71087 0.0
C1890 C 0.41599 0.39157 0.68739 0.0
C1891 C 0.42391 0.37364 0.68072 0.0
C1892 C 0.46403 0.40077 0.71167 0.0
C1893 C 0.45521 0.41736 0.72229 0.0
N1894 N 0.42644 0.43281 0.7123 0.0
N1895 N 0.46056 0.37022 0.66695 0.0
C1896 C 0.43227 0.41412 0.70747 0.0
C1897 C 0.44964 0.38118 0.68647 0.0
N1898 N 0.39338 0.38731 0.67387 0.0
N1899 N 0.4851 0.40242 0.72726 0.0
H1900 H 0.45107 0.35771 0.64559 0.0
H1901 H 0.4798 0.37632 0.66849 0.0
H1902 H 0.49585 0.41572 0.74711 0.0
H1903 H 0.4905 0.38894 0.72278 0.0
H1904 H 0.38465 0.39747 0.68152 0.0
H1905 H 0.38378 0.37403 0.65341 0.0
H1906 H 0.41076 0.43261 0.70095 0.0
H1907 H 0.43845 0.44966 0.72604 0.0
C1908 C 0.62616 0.03281 0.69021 0.0
C1909 C 0.64637 0.05568 0.70461 0.0
C1910 C 0.61608 0.06049 0.74238 0.0
C1911 C 0.59709 0.03557 0.73315 0.0
N1912 N 0.58445 0.99684 0.69999 0.0
N1913 N 0.66084 0.08931 0.74948 0.0
C1914 C 0.60211 0.02147 0.70715 0.0
C1915 C 0.6414 0.06927 0.73167 0.0
N1916 N 0.62977 0.02217 0.6599 0.0
N1917 N 0.6099 0.07557 0.76208 0.0
H1918 H 0.67982 0.09554 0.7447 0.0
H1919 H 0.65818 0.09808 0.7719 0.0
H1920 H 0.59143 0.06948 0.77028 0.0
H1921 H 0.62242 0.09471 0.76692 0.0
H1922 H 0.61515 0.0068 0.64626 0.0
H1923 H 0.64692 0.03033 0.64628 0.0
H1924 H 0.5882 0.98474 0.68469 0.0
H1925 H 0.5665 0.98797 0.71129 0.0
loop_
_geom_bond_atom_site_label_1
_geom_bond_atom_site_label_2
_geom_bond_distance
_geom_bond_site_symmetry_2
_ccdc_geom_bond_type
O0 Cd1 2.223 . S
O0 C8 1.315 . S
Cd1 O0 2.223 . S
Cd1 O4 2.297 . S
Cd1 O5 2.439 . S
Cd1 O11 2.240 1_554 S
Cd2 O3 2.240 . S
Cd2 O10 2.223 1_554 S
Cd2 O12 2.297 1_554 S
Cd2 O13 2.439 1_554 S
O3 Cd2 2.240 . S
O3 C8 1.279 1_655 S
O4 Cd1 2.297 . S
O4 C6 1.247 . S
O5 Cd1 2.439 . S
O5 C6 1.208 . S
C6 O4 1.247 . S
C6 O5 1.208 . S
C7 O12 1.247 . S
C7 O13 1.208 . S
C8 O0 1.315 . S
C8 O3 1.279 1_455 S
C9 O10 1.315 . S
C9 O11 1.279 1_655 S
O10 Cd2 2.223 1_556 S
O10 C9 1.315 . S
O11 Cd1 2.240 1_556 S
O11 C9 1.279 1_455 S
O12 Cd2 2.297 1_556 S
O12 C7 1.247 . S
O13 Cd2 2.439 1_556 S
O13 C7 1.208 . S
O14 Cd15 2.223 . S
O14 C22 1.315 . S
Cd15 O14 2.223 . S
Cd15 O18 2.297 . S
Cd15 O19 2.439 . S
Cd15 O25 2.240 1_554 S
Cd16 O17 2.240 . S
Cd16 O24 2.223 1_554 S
Cd16 O26 2.297 1_554 S
Cd16 O27 2.439 1_554 S
O17 Cd16 2.240 . S
O17 C22 1.279 . S
O18 Cd15 2.297 . S
O18 C20 1.247 . S
O19 Cd15 2.439 . S
O19 C20 1.208 . S
C20 O18 1.247 . S
C20 O19 1.208 . S
C21 O26 1.247 . S
C21 O27 1.208 . S
C22 O14 1.315 . S
C22 O17 1.279 . S
C23 O24 1.315 . S
C23 O25 1.279 . S
O24 Cd16 2.223 1_556 S
O24 C23 1.315 . S
O25 Cd15 2.240 1_556 S
O25 C23 1.279 . S
O26 Cd16 2.297 1_556 S
O26 C21 1.247 . S
O27 Cd16 2.439 1_556 S
O27 C21 1.208 . S
O28 Cd29 2.223 1_556 S
O28 C36 1.315 . S
Cd29 O28 2.223 1_554 S
Cd29 O32 2.297 1_554 S
Cd29 O33 2.439 1_554 S
Cd29 O39 2.240 . S
Cd30 O31 2.240 1_554 S
Cd30 O38 2.223 . S
Cd30 O40 2.297 . S
Cd30 O41 2.439 . S
O31 Cd30 2.240 1_556 S
O31 C36 1.279 1_565 S
O32 Cd29 2.297 1_556 S
O32 C34 1.247 . S
O33 Cd29 2.439 1_556 S
O33 C34 1.208 . S
C34 O32 1.247 . S
C34 O33 1.208 . S
C35 O40 1.247 . S
C35 O41 1.208 . S
C36 O28 1.315 . S
C36 O31 1.279 1_545 S
C37 O38 1.315 . S
C37 O39 1.279 1_565 S
O38 Cd30 2.223 . S
O38 C37 1.315 . S
O39 Cd29 2.240 . S
O39 C37 1.279 1_545 S
O40 Cd30 2.297 . S
O40 C35 1.247 . S
O41 Cd30 2.439 . S
O41 C35 1.208 . S
O42 Cd43 2.223 1_556 S
O42 C50 1.315 . S
Cd43 O42 2.223 1_554 S
Cd43 O46 2.297 1_554 S
Cd43 O47 2.439 1_554 S
Cd43 O53 2.240 . S
Cd44 O45 2.240 1_554 S
Cd44 O52 2.223 . S
Cd44 O54 2.297 . S
Cd44 O55 2.439 . S
O45 Cd44 2.240 1_556 S
O45 C50 1.279 1_455 S
O46 Cd43 2.297 1_556 S
O46 C48 1.247 . S
O47 Cd43 2.439 1_556 S
O47 C48 1.208 . S
C48 O46 1.247 . S
C48 O47 1.208 . S
C49 O54 1.247 . S
C49 O55 1.208 . S
C50 O42 1.315 . S
C50 O45 1.279 1_655 S
C51 O52 1.315 . S
C51 O53 1.279 1_455 S
O52 Cd44 2.223 . S
O52 C51 1.315 . S
O53 Cd43 2.240 . S
O53 C51 1.279 1_655 S
O54 Cd44 2.297 . S
O54 C49 1.247 . S
O55 Cd44 2.439 . S
O55 C49 1.208 . S
O56 Cd57 2.223 1_556 S
O56 C64 1.315 . S
Cd57 O56 2.223 1_554 S
Cd57 O60 2.297 1_554 S
Cd57 O61 2.439 1_554 S
Cd57 O67 2.240 . S
Cd58 O59 2.240 1_554 S
Cd58 O66 2.223 . S
Cd58 O68 2.297 . S
Cd58 O69 2.439 . S
O59 Cd58 2.240 1_556 S
O59 C64 1.279 . S
O60 Cd57 2.297 1_556 S
O60 C62 1.247 . S
O61 Cd57 2.439 1_556 S
O61 C62 1.208 . S
C62 O60 1.247 . S
C62 O61 1.208 . S
C63 O68 1.247 . S
C63 O69 1.208 . S
C64 O56 1.315 . S
C64 O59 1.279 . S
C65 O66 1.315 . S
C65 O67 1.279 . S
O66 Cd58 2.223 . S
O66 C65 1.315 . S
O67 Cd57 2.240 . S
O67 C65 1.279 . S
O68 Cd58 2.297 . S
O68 C63 1.247 . S
O69 Cd58 2.439 . S
O69 C63 1.208 . S
O70 Cd71 2.223 . S
O70 C78 1.315 . S
Cd71 O70 2.223 . S
Cd71 O74 2.297 . S
Cd71 O75 2.439 . S
Cd71 O81 2.240 1_554 S
Cd72 O73 2.240 . S
Cd72 O80 2.223 1_554 S
Cd72 O82 2.297 1_554 S
Cd72 O83 2.439 1_554 S
O73 Cd72 2.240 . S
O73 C78 1.279 1_545 S
O74 Cd71 2.297 . S
O74 C76 1.247 . S
O75 Cd71 2.439 . S
O75 C76 1.208 . S
C76 O74 1.247 . S
C76 O75 1.208 . S
C77 O82 1.247 . S
C77 O83 1.208 . S
C78 O70 1.315 . S
C78 O73 1.279 1_565 S
C79 O80 1.315 . S
C79 O81 1.279 1_545 S
O80 Cd72 2.223 1_556 S
O80 C79 1.315 . S
O81 Cd71 2.240 1_556 S
O81 C79 1.279 1_565 S
O82 Cd72 2.297 1_556 S
O82 C77 1.247 . S
O83 Cd72 2.439 1_556 S
O83 C77 1.208 . S
O84 Cd85 2.223 . S
O84 C92 1.315 . S
Cd85 O84 2.223 . S
Cd85 O88 2.297 . S
Cd85 O89 2.439 . S
Cd85 O95 2.240 . S
Cd86 O87 2.240 . S
Cd86 O94 2.223 . S
Cd86 O96 2.297 . S
Cd86 O97 2.439 . S
O87 Cd86 2.240 . S
O87 C92 1.279 . S
O88 Cd85 2.297 . S
O88 C90 1.247 . S
O89 Cd85 2.439 . S
O89 C90 1.208 . S
C90 O88 1.247 . S
C90 O89 1.208 . S
C91 O96 1.247 . S
C91 O97 1.208 . S
C92 O84 1.315 . S
C92 O87 1.279 . S
C93 O94 1.315 . S
C93 O95 1.279 . S
O94 Cd86 2.223 . S
O94 C93 1.315 . S
O95 Cd85 2.240 . S
O95 C93 1.279 . S
O96 Cd86 2.297 . S
O96 C91 1.247 . S
O97 Cd86 2.439 . S
O97 C91 1.208 . S
O98 Cd99 2.223 . S
O98 C106 1.315 . S
Cd99 O98 2.223 . S
Cd99 O102 2.297 1_565 S
Cd99 O103 2.439 1_565 S
Cd99 O109 2.240 . S
Cd100 O101 2.240 . S
Cd100 O108 2.223 . S
Cd100 O110 2.297 . S
Cd100 O111 2.439 . S
O101 Cd100 2.240 . S
O101 C106 1.279 . S
O102 Cd99 2.297 1_545 S
O102 C104 1.247 . S
O103 Cd99 2.439 1_545 S
O103 C104 1.208 . S
C104 O102 1.247 . S
C104 O103 1.208 . S
C105 O110 1.247 . S
C105 O111 1.208 . S
C106 O98 1.315 . S
C106 O101 1.279 . S
C107 O108 1.315 . S
C107 O109 1.279 . S
O108 Cd100 2.223 . S
O108 C107 1.315 . S
O109 Cd99 2.240 . S
O109 C107 1.279 . S
O110 Cd100 2.297 . S
O110 C105 1.247 . S
O111 Cd100 2.439 . S
O111 C105 1.208 . S
O112 Cd113 2.223 . S
O112 C120 1.315 . S
Cd113 O112 2.223 . S
Cd113 O116 2.297 . S
Cd113 O117 2.439 . S
Cd113 O123 2.240 . S
Cd114 O115 2.240 . S
Cd114 O122 2.223 . S
Cd114 O124 2.297 1_455 S
Cd114 O125 2.439 1_455 S
O115 Cd114 2.240 . S
O115 C120 1.279 . S
O116 Cd113 2.297 . S
O116 C118 1.247 . S
O117 Cd113 2.439 . S
O117 C118 1.208 . S
C118 O116 1.247 . S
C118 O117 1.208 . S
C119 O124 1.247 . S
C119 O125 1.208 . S
C120 O112 1.315 . S
C120 O115 1.279 . S
C121 O122 1.315 . S
C121 O123 1.279 . S
O122 Cd114 2.223 . S
O122 C121 1.315 . S
O123 Cd113 2.240 . S
O123 C121 1.279 . S
O124 Cd114 2.297 1_655 S
O124 C119 1.247 . S
O125 Cd114 2.439 1_655 S
O125 C119 1.208 . S
O126 Cd127 2.223 . S
O126 C134 1.315 . S
Cd127 O126 2.223 . S
Cd127 O130 2.297 . S
Cd127 O131 2.439 . S
Cd127 O137 2.240 . S
Cd128 O129 2.240 . S
Cd128 O136 2.223 . S
Cd128 O138 2.297 1_565 S
Cd128 O139 2.439 1_565 S
O129 Cd128 2.240 . S
O129 C134 1.279 . S
O130 Cd127 2.297 . S
O130 C132 1.247 . S
O131 Cd127 2.439 . S
O131 C132 1.208 . S
C132 O130 1.247 . S
C132 O131 1.208 . S
C133 O138 1.247 . S
C133 O139 1.208 . S
C134 O126 1.315 . S
C134 O129 1.279 . S
C135 O136 1.315 . S
C135 O137 1.279 . S
O136 Cd128 2.223 . S
O136 C135 1.315 . S
O137 Cd127 2.240 . S
O137 C135 1.279 . S
O138 Cd128 2.297 1_545 S
O138 C133 1.247 . S
O139 Cd128 2.439 1_545 S
O139 C133 1.208 . S
O140 Cd141 2.223 . S
O140 C148 1.315 . S
Cd141 O140 2.223 . S
Cd141 O144 2.297 . S
Cd141 O145 2.439 . S
Cd141 O151 2.240 . S
Cd142 O143 2.240 . S
Cd142 O150 2.223 . S
Cd142 O152 2.297 1_455 S
Cd142 O153 2.439 1_455 S
O143 Cd142 2.240 . S
O143 C148 1.279 . S
O144 Cd141 2.297 . S
O144 C146 1.247 . S
O145 Cd141 2.439 . S
O145 C146 1.208 . S
C146 O144 1.247 . S
C146 O145 1.208 . S
C147 O152 1.247 . S
C147 O153 1.208 . S
C148 O140 1.315 . S
C148 O143 1.279 . S
C149 O150 1.315 . S
C149 O151 1.279 . S
O150 Cd142 2.223 . S
O150 C149 1.315 . S
O151 Cd141 2.240 . S
O151 C149 1.279 . S
O152 Cd142 2.297 1_655 S
O152 C147 1.247 . S
O153 Cd142 2.439 1_655 S
O153 C147 1.208 . S
O154 Cd155 2.223 . S
O154 C162 1.315 . S
Cd155 O154 2.223 . S
Cd155 O158 2.297 . S
Cd155 O159 2.439 . S
Cd155 O165 2.240 . S
Cd156 O157 2.240 . S
Cd156 O164 2.223 . S
Cd156 O166 2.297 . S
Cd156 O167 2.439 . S
O157 Cd156 2.240 . S
O157 C162 1.279 . S
O158 Cd155 2.297 . S
O158 C160 1.247 . S
O159 Cd155 2.439 . S
O159 C160 1.208 . S
C160 O158 1.247 . S
C160 O159 1.208 . S
C161 O166 1.247 . S
C161 O167 1.208 . S
C162 O154 1.315 . S
C162 O157 1.279 . S
C163 O164 1.315 . S
C163 O165 1.279 . S
O164 Cd156 2.223 . S
O164 C163 1.315 . S
O165 Cd155 2.240 . S
O165 C163 1.279 . S
O166 Cd156 2.297 . S
O166 C161 1.247 . S
O167 Cd156 2.439 . S
O167 C161 1.208 . S
O168 Cd169 2.223 . S
O168 C176 1.315 . S
Cd169 O168 2.223 . S
Cd169 O172 2.297 . S
Cd169 O173 2.439 . S
Cd169 O179 2.240 . S
Cd170 O171 2.240 . S
Cd170 O178 2.223 . S
Cd170 O180 2.297 1_545 S
Cd170 O181 2.439 1_545 S
O171 Cd170 2.240 . S
O171 C176 1.279 . S
O172 Cd169 2.297 . S
O172 C174 1.247 . S
O173 Cd169 2.439 . S
O173 C174 1.208 . S
C174 O172 1.247 . S
C174 O173 1.208 . S
C175 O180 1.247 . S
C175 O181 1.208 . S
C176 O168 1.315 . S
C176 O171 1.279 . S
C177 O178 1.315 . S
C177 O179 1.279 . S
O178 Cd170 2.223 . S
O178 C177 1.315 . S
O179 Cd169 2.240 . S
O179 C177 1.279 . S
O180 Cd170 2.297 1_565 S
O180 C175 1.247 . S
O181 Cd170 2.439 1_565 S
O181 C175 1.208 . S
O182 Cd183 2.223 . S
O182 C190 1.315 . S
Cd183 O182 2.223 . S
Cd183 O186 2.297 . S
Cd183 O187 2.439 . S
Cd183 O193 2.240 . S
Cd184 O185 2.240 . S
Cd184 O192 2.223 . S
Cd184 O194 2.297 1_655 S
Cd184 O195 2.439 1_655 S
O185 Cd184 2.240 . S
O185 C190 1.279 . S
O186 Cd183 2.297 . S
O186 C188 1.247 . S
O187 Cd183 2.439 . S
O187 C188 1.208 . S
C188 O186 1.247 . S
C188 O187 1.208 . S
C189 O194 1.247 . S
C189 O195 1.208 . S
C190 O182 1.315 . S
C190 O185 1.279 . S
C191 O192 1.315 . S
C191 O193 1.279 . S
O192 Cd184 2.223 . S
O192 C191 1.315 . S
O193 Cd183 2.240 . S
O193 C191 1.279 . S
O194 Cd184 2.297 1_455 S
O194 C189 1.247 . S
O195 Cd184 2.439 1_455 S
O195 C189 1.208 . S
O196 Cd197 2.223 . S
O196 C204 1.315 . S
Cd197 O196 2.223 . S
Cd197 O200 2.297 . S
Cd197 O201 2.439 . S
Cd197 O207 2.240 . S
Cd198 O199 2.240 . S
Cd198 O206 2.223 . S
Cd198 O208 2.297 . S
Cd198 O209 2.439 . S
O199 Cd198 2.240 . S
O199 C204 1.279 . S
O200 Cd197 2.297 . S
O200 C202 1.247 . S
O201 Cd197 2.439 . S
O201 C202 1.208 . S
C202 O200 1.247 . S
C202 O201 1.208 . S
C203 O208 1.247 . S
C203 O209 1.208 . S
C204 O196 1.315 . S
C204 O199 1.279 . S
C205 O206 1.315 . S
C205 O207 1.279 . S
O206 Cd198 2.223 . S
O206 C205 1.315 . S
O207 Cd197 2.240 . S
O207 C205 1.279 . S
O208 Cd198 2.297 . S
O208 C203 1.247 . S
O209 Cd198 2.439 . S
O209 C203 1.208 . S
O210 Cd211 2.223 . S
O210 C218 1.315 . S
Cd211 O210 2.223 . S
Cd211 O214 2.297 . S
Cd211 O215 2.439 . S
Cd211 O221 2.240 . S
Cd212 O213 2.240 . S
Cd212 O220 2.223 . S
Cd212 O222 2.297 . S
Cd212 O223 2.439 . S
O213 Cd212 2.240 . S
O213 C218 1.279 . S
O214 Cd211 2.297 . S
O214 C216 1.247 . S
O215 Cd211 2.439 . S
O215 C216 1.208 . S
C216 O214 1.247 . S
C216 O215 1.208 . S
C217 O222 1.247 . S
C217 O223 1.208 . S
C218 O210 1.315 . S
C218 O213 1.279 . S
C219 O220 1.315 . S
C219 O221 1.279 . S
O220 Cd212 2.223 . S
O220 C219 1.315 . S
O221 Cd211 2.240 . S
O221 C219 1.279 . S
O222 Cd212 2.297 . S
O222 C217 1.247 . S
O223 Cd212 2.439 . S
O223 C217 1.208 . S
O224 Cd225 2.223 . S
O224 C232 1.315 . S
Cd225 O224 2.223 . S
Cd225 O228 2.297 1_545 S
Cd225 O229 2.439 1_545 S
Cd225 O235 2.240 . S
Cd226 O227 2.240 . S
Cd226 O234 2.223 . S
Cd226 O236 2.297 . S
Cd226 O237 2.439 . S
O227 Cd226 2.240 . S
O227 C232 1.279 . S
O228 Cd225 2.297 1_565 S
O228 C230 1.247 . S
O229 Cd225 2.439 1_565 S
O229 C230 1.208 . S
C230 O228 1.247 . S
C230 O229 1.208 . S
C231 O236 1.247 . S
C231 O237 1.208 . S
C232 O224 1.315 . S
C232 O227 1.279 . S
C233 O234 1.315 . S
C233 O235 1.279 . S
O234 Cd226 2.223 . S
O234 C233 1.315 . S
O235 Cd225 2.240 . S
O235 C233 1.279 . S
O236 Cd226 2.297 . S
O236 C231 1.247 . S
O237 Cd226 2.439 . S
O237 C231 1.208 . S
O238 Cd239 2.223 . S
O238 C246 1.315 . S
Cd239 O238 2.223 . S
Cd239 O242 2.297 . S
Cd239 O243 2.439 . S
Cd239 O249 2.240 . S
Cd240 O241 2.240 . S
Cd240 O248 2.223 . S
Cd240 O250 2.297 1_655 S
Cd240 O251 2.439 1_655 S
O241 Cd240 2.240 . S
O241 C246 1.279 . S
O242 Cd239 2.297 . S
O242 C244 1.247 . S
O243 Cd239 2.439 . S
O243 C244 1.208 . S
C244 O242 1.247 . S
C244 O243 1.208 . S
C245 O250 1.247 . S
C245 O251 1.208 . S
C246 O238 1.315 . S
C246 O241 1.279 . S
C247 O248 1.315 . S
C247 O249 1.279 . S
O248 Cd240 2.223 . S
O248 C247 1.315 . S
O249 Cd239 2.240 . S
O249 C247 1.279 . S
O250 Cd240 2.297 1_455 S
O250 C245 1.247 . S
O251 Cd240 2.439 1_455 S
O251 C245 1.208 . S
H252 C260 0.930 . S
H253 C263 0.930 . S
H254 C265 0.930 . S
H255 C266 0.970 . S
H256 C266 0.970 . S
H257 C268 0.930 . S
H258 C270 0.930 . S
H259 C272 0.930 . S
C260 H252 0.930 . S
C260 C261 1.382 . S
C260 C262 1.426 . S
C261 C260 1.382 . S
C261 C265 1.389 . S
C262 C260 1.426 . S
C262 C263 1.375 . S
C262 C266 1.532 . S
C263 H253 0.930 . S
C263 C262 1.375 . S
C263 C264 1.416 . S
C264 C263 1.416 . S
C264 C265 1.371 . S
C265 H254 0.930 . S
C265 C261 1.389 . S
C265 C264 1.371 . S
C266 H255 0.970 . S
C266 H256 0.970 . S
C266 C262 1.532 . S
C266 C267 1.499 . S
C267 C266 1.499 . S
C267 C268 1.370 . S
C267 C272 1.415 . S
C268 H257 0.930 . S
C268 C267 1.370 . S
C268 C269 1.407 . S
C269 C268 1.407 . S
C269 C270 1.365 . S
C270 H258 0.930 . S
C270 C269 1.365 . S
C270 C271 1.393 . S
C271 C270 1.393 . S
C271 C272 1.387 . S
C272 H259 0.930 . S
C272 C267 1.415 . S
C272 C271 1.387 . S
H273 C281 0.930 . S
H274 C284 0.930 . S
H275 C286 0.930 . S
H276 C287 0.970 . S
H277 C287 0.970 . S
H278 C289 0.930 . S
H279 C291 0.930 . S
H280 C293 0.930 . S
C281 H273 0.930 . S
C281 C282 1.382 . S
C281 C283 1.426 . S
C282 C281 1.382 . S
C282 C286 1.389 . S
C283 C281 1.426 . S
C283 C284 1.375 . S
C283 C287 1.532 . S
C284 H274 0.930 . S
C284 C283 1.375 . S
C284 C285 1.416 . S
C285 C284 1.416 . S
C285 C286 1.371 . S
C286 H275 0.930 . S
C286 C282 1.389 . S
C286 C285 1.371 . S
C287 H276 0.970 . S
C287 H277 0.970 . S
C287 C283 1.532 . S
C287 C288 1.499 . S
C288 C287 1.499 . S
C288 C289 1.370 . S
C288 C293 1.415 . S
C289 H278 0.930 . S
C289 C288 1.370 . S
C289 C290 1.407 . S
C290 C289 1.407 . S
C290 C291 1.365 . S
C291 H279 0.930 . S
C291 C290 1.365 . S
C291 C292 1.393 . S
C292 C291 1.393 . S
C292 C293 1.387 . S
C293 H280 0.930 . S
C293 C288 1.415 . S
C293 C292 1.387 . S
H294 C302 0.930 . S
H295 C305 0.930 . S
H296 C307 0.930 . S
H297 C308 0.970 . S
H298 C308 0.970 . S
H299 C310 0.930 . S
H300 C312 0.930 . S
H301 C314 0.930 . S
C302 H294 0.930 . S
C302 C303 1.382 . S
C302 C304 1.426 . S
C303 C302 1.382 . S
C303 C307 1.389 . S
C304 C302 1.426 . S
C304 C305 1.375 . S
C304 C308 1.532 . S
C305 H295 0.930 . S
C305 C304 1.375 . S
C305 C306 1.416 . S
C306 C305 1.416 . S
C306 C307 1.371 . S
C307 H296 0.930 . S
C307 C303 1.389 . S
C307 C306 1.371 . S
C308 H297 0.970 . S
C308 H298 0.970 . S
C308 C304 1.532 . S
C308 C309 1.499 . S
C309 C308 1.499 . S
C309 C310 1.370 . S
C309 C314 1.415 . S
C310 H299 0.930 . S
C310 C309 1.370 . S
C310 C311 1.407 . S
C311 C310 1.407 . S
C311 C312 1.365 . S
C312 H300 0.930 . S
C312 C311 1.365 . S
C312 C313 1.393 . S
C313 C312 1.393 . S
C313 C314 1.387 . S
C314 H301 0.930 . S
C314 C309 1.415 . S
C314 C313 1.387 . S
H315 C323 0.930 . S
H316 C326 0.930 . S
H317 C328 0.930 . S
H318 C329 0.970 . S
H319 C329 0.970 . S
H320 C331 0.930 . S
H321 C333 0.930 . S
H322 C335 0.930 . S
C323 H315 0.930 . S
C323 C324 1.382 . S
C323 C325 1.426 . S
C324 C323 1.382 . S
C324 C328 1.389 . S
C325 C323 1.426 . S
C325 C326 1.375 . S
C325 C329 1.532 . S
C326 H316 0.930 . S
C326 C325 1.375 . S
C326 C327 1.416 . S
C327 C326 1.416 . S
C327 C328 1.371 . S
C328 H317 0.930 . S
C328 C324 1.389 . S
C328 C327 1.371 . S
C329 H318 0.970 . S
C329 H319 0.970 . S
C329 C325 1.532 . S
C329 C330 1.499 . S
C330 C329 1.499 . S
C330 C331 1.370 . S
C330 C335 1.415 . S
C331 H320 0.930 . S
C331 C330 1.370 . S
C331 C332 1.407 . S
C332 C331 1.407 . S
C332 C333 1.365 . S
C333 H321 0.930 . S
C333 C332 1.365 . S
C333 C334 1.393 . S
C334 C333 1.393 . S
C334 C335 1.387 . S
C335 H322 0.930 . S
C335 C330 1.415 . S
C335 C334 1.387 . S
H336 C344 0.930 . S
H337 C347 0.930 . S
H338 C349 0.930 . S
H339 C350 0.970 . S
H340 C350 0.970 . S
H341 C352 0.930 . S
H342 C354 0.930 . S
H343 C356 0.930 . S
C344 H336 0.930 . S
C344 C345 1.382 . S
C344 C346 1.426 . S
C345 C344 1.382 . S
C345 C349 1.389 . S
C346 C344 1.426 . S
C346 C347 1.375 . S
C346 C350 1.532 . S
C347 H337 0.930 . S
C347 C346 1.375 . S
C347 C348 1.416 . S
C348 C347 1.416 . S
C348 C349 1.371 . S
C349 H338 0.930 . S
C349 C345 1.389 . S
C349 C348 1.371 . S
C350 H339 0.970 . S
C350 H340 0.970 . S
C350 C346 1.532 . S
C350 C351 1.499 . S
C351 C350 1.499 . S
C351 C352 1.370 . S
C351 C356 1.415 . S
C352 H341 0.930 . S
C352 C351 1.370 . S
C352 C353 1.407 . S
C353 C352 1.407 . S
C353 C354 1.365 . S
C354 H342 0.930 . S
C354 C353 1.365 . S
C354 C355 1.393 . S
C355 C354 1.393 . S
C355 C356 1.387 . S
C356 H343 0.930 . S
C356 C351 1.415 . S
C356 C355 1.387 . S
H357 C365 0.930 . S
H358 C368 0.930 . S
H359 C370 0.930 . S
H360 C371 0.970 . S
H361 C371 0.970 . S
H362 C373 0.930 . S
H363 C375 0.930 . S
H364 C377 0.930 . S
C365 H357 0.930 . S
C365 C366 1.382 . S
C365 C367 1.426 . S
C366 C365 1.382 . S
C366 C370 1.389 . S
C367 C365 1.426 . S
C367 C368 1.375 . S
C367 C371 1.532 . S
C368 H358 0.930 . S
C368 C367 1.375 . S
C368 C369 1.416 . S
C369 C368 1.416 . S
C369 C370 1.371 . S
C370 H359 0.930 . S
C370 C366 1.389 . S
C370 C369 1.371 . S
C371 H360 0.970 . S
C371 H361 0.970 . S
C371 C367 1.532 . S
C371 C372 1.499 . S
C372 C371 1.499 . S
C372 C373 1.370 . S
C372 C377 1.415 . S
C373 H362 0.930 . S
C373 C372 1.370 . S
C373 C374 1.407 . S
C374 C373 1.407 . S
C374 C375 1.365 . S
C375 H363 0.930 . S
C375 C374 1.365 . S
C375 C376 1.393 . S
C376 C375 1.393 . S
C376 C377 1.387 . S
C377 H364 0.930 . S
C377 C372 1.415 . S
C377 C376 1.387 . S
H378 C386 0.930 . S
H379 C389 0.930 . S
H380 C391 0.930 . S
H381 C392 0.970 . S
H382 C392 0.970 . S
H383 C394 0.930 . S
H384 C396 0.930 . S
H385 C398 0.930 . S
C386 H378 0.930 . S
C386 C387 1.382 . S
C386 C388 1.426 . S
C387 C386 1.382 . S
C387 C391 1.389 . S
C388 C386 1.426 . S
C388 C389 1.375 . S
C388 C392 1.532 . S
C389 H379 0.930 . S
C389 C388 1.375 . S
C389 C390 1.416 . S
C390 C389 1.416 . S
C390 C391 1.371 . S
C391 H380 0.930 . S
C391 C387 1.389 . S
C391 C390 1.371 . S
C392 H381 0.970 . S
C392 H382 0.970 . S
C392 C388 1.532 . S
C392 C393 1.499 . S
C393 C392 1.499 . S
C393 C394 1.370 . S
C393 C398 1.415 . S
C394 H383 0.930 . S
C394 C393 1.370 . S
C394 C395 1.407 . S
C395 C394 1.407 . S
C395 C396 1.365 . S
C396 H384 0.930 . S
C396 C395 1.365 . S
C396 C397 1.393 . S
C397 C396 1.393 . S
C397 C398 1.387 . S
C398 H385 0.930 . S
C398 C393 1.415 . S
C398 C397 1.387 . S
H399 C407 0.930 . S
H400 C410 0.930 . S
H401 C412 0.930 . S
H402 C413 0.970 . S
H403 C413 0.970 . S
H404 C415 0.930 . S
H405 C417 0.930 . S
H406 C419 0.930 . S
C407 H399 0.930 . S
C407 C408 1.382 . S
C407 C409 1.426 . S
C408 C407 1.382 . S
C408 C412 1.389 . S
C409 C407 1.426 . S
C409 C410 1.375 . S
C409 C413 1.532 . S
C410 H400 0.930 . S
C410 C409 1.375 . S
C410 C411 1.416 . S
C411 C410 1.416 . S
C411 C412 1.371 . S
C412 H401 0.930 . S
C412 C408 1.389 . S
C412 C411 1.371 . S
C413 H402 0.970 . S
C413 H403 0.970 . S
C413 C409 1.532 . S
C413 C414 1.499 . S
C414 C413 1.499 . S
C414 C415 1.370 . S
C414 C419 1.415 . S
C415 H404 0.930 . S
C415 C414 1.370 . S
C415 C416 1.407 . S
C416 C415 1.407 . S
C416 C417 1.365 . S
C417 H405 0.930 . S
C417 C416 1.365 . S
C417 C418 1.393 . S
C418 C417 1.393 . S
C418 C419 1.387 . S
C419 H406 0.930 . S
C419 C414 1.415 . S
C419 C418 1.387 . S
H420 C428 0.930 . S
H421 C431 0.930 . S
H422 C433 0.930 . S
H423 C434 0.970 . S
H424 C434 0.970 . S
H425 C436 0.930 . S
H426 C438 0.930 . S
H427 C440 0.930 . S
C428 H420 0.930 . S
C428 C429 1.382 . S
C428 C430 1.426 . S
C429 C428 1.382 . S
C429 C433 1.389 . S
C430 C428 1.426 . S
C430 C431 1.375 . S
C430 C434 1.532 . S
C431 H421 0.930 . S
C431 C430 1.375 . S
C431 C432 1.416 . S
C432 C431 1.416 . S
C432 C433 1.371 . S
C433 H422 0.930 . S
C433 C429 1.389 . S
C433 C432 1.371 . S
C434 H423 0.970 . S
C434 H424 0.970 . S
C434 C430 1.532 . S
C434 C435 1.499 . S
C435 C434 1.499 . S
C435 C436 1.370 . S
C435 C440 1.415 . S
C436 H425 0.930 . S
C436 C435 1.370 . S
C436 C437 1.407 . S
C437 C436 1.407 . S
C437 C438 1.365 . S
C438 H426 0.930 . S
C438 C437 1.365 . S
C438 C439 1.393 . S
C439 C438 1.393 . S
C439 C440 1.387 . S
C440 H427 0.930 . S
C440 C435 1.415 . S
C440 C439 1.387 . S
H441 C449 0.930 . S
H442 C452 0.930 . S
H443 C454 0.923 1_655 S
H444 C455 0.970 . S
H445 C455 0.970 . S
H446 C457 0.930 . S
H447 C459 0.936 . S
H448 C461 0.930 . S
C449 H441 0.930 . S
C449 C450 1.382 . S
C449 C451 1.426 . S
C450 C449 1.382 . S
C450 C454 1.392 . S
C451 C449 1.426 . S
C451 C452 1.375 . S
C451 C455 1.532 . S
C452 H442 0.930 . S
C452 C451 1.375 . S
C452 C453 1.416 . S
C453 C452 1.416 . S
C453 C454 1.375 . S
C454 H443 0.923 1_455 S
C454 C450 1.392 . S
C454 C453 1.375 . S
C455 H444 0.970 . S
C455 H445 0.970 . S
C455 C451 1.532 . S
C455 C456 1.499 . S
C456 C455 1.499 . S
C456 C457 1.370 . S
C456 C461 1.415 . S
C457 H446 0.930 . S
C457 C456 1.370 . S
C457 C458 1.407 . S
C458 C457 1.407 . S
C458 C459 1.370 1_455 S
C459 H447 0.936 . S
C459 C458 1.370 1_655 S
C459 C460 1.386 1_655 S
C460 C459 1.386 1_455 S
C460 C461 1.387 . S
C461 H448 0.930 . S
C461 C456 1.415 . S
C461 C460 1.387 . S
H462 C470 0.930 . S
H463 C473 0.930 . S
H464 C475 0.930 . S
H465 C476 0.970 . S
H466 C476 0.970 . S
H467 C478 0.930 . S
H468 C480 0.930 . S
H469 C482 0.930 . S
C470 H462 0.930 . S
C470 C471 1.382 . S
C470 C472 1.426 . S
C471 C470 1.382 . S
C471 C475 1.389 . S
C472 C470 1.426 . S
C472 C473 1.375 . S
C472 C476 1.532 . S
C473 H463 0.930 . S
C473 C472 1.375 . S
C473 C474 1.416 . S
C474 C473 1.416 . S
C474 C475 1.371 . S
C475 H464 0.930 . S
C475 C471 1.389 . S
C475 C474 1.371 . S
C476 H465 0.970 . S
C476 H466 0.970 . S
C476 C472 1.532 . S
C476 C477 1.499 . S
C477 C476 1.499 . S
C477 C478 1.370 . S
C477 C482 1.415 . S
C478 H467 0.930 . S
C478 C477 1.370 . S
C478 C479 1.407 . S
C479 C478 1.407 . S
C479 C480 1.365 . S
C480 H468 0.930 . S
C480 C479 1.365 . S
C480 C481 1.393 . S
C481 C480 1.393 . S
C481 C482 1.387 . S
C482 H469 0.930 . S
C482 C477 1.415 . S
C482 C481 1.387 . S
H483 C491 0.930 . S
H484 C494 0.930 . S
H485 C496 0.930 . S
H486 C497 0.970 . S
H487 C497 0.970 . S
H488 C499 0.930 . S
H489 C501 0.930 . S
H490 C503 0.930 . S
C491 H483 0.930 . S
C491 C492 1.382 . S
C491 C493 1.426 . S
C492 C491 1.382 . S
C492 C496 1.389 1_565 S
C493 C491 1.426 . S
C493 C494 1.375 . S
C493 C497 1.532 . S
C494 H484 0.930 . S
C494 C493 1.375 . S
C494 C495 1.416 . S
C495 C494 1.416 . S
C495 C496 1.371 1_565 S
C496 H485 0.930 . S
C496 C492 1.389 1_545 S
C496 C495 1.371 1_545 S
C497 H486 0.970 . S
C497 H487 0.970 . S
C497 C493 1.532 . S
C497 C498 1.499 . S
C498 C497 1.499 . S
C498 C499 1.370 . S
C498 C503 1.415 . S
C499 H488 0.930 . S
C499 C498 1.370 . S
C499 C500 1.439 . S
C500 C499 1.439 . S
C500 C501 1.352 1_565 S
C501 H489 0.930 . S
C501 C500 1.352 1_545 S
C501 C502 1.393 1_545 S
C502 C501 1.393 1_565 S
C502 C503 1.387 . S
C503 H490 0.930 . S
C503 C498 1.415 . S
C503 C502 1.387 . S
H504 C512 0.930 . S
H505 C515 0.930 . S
H506 C517 0.930 . S
H507 C518 0.970 . S
H508 C518 0.970 . S
H509 C520 0.930 . S
H510 C522 0.930 . S
H511 C524 0.930 . S
C512 H504 0.930 . S
C512 C513 1.382 . S
C512 C514 1.426 . S
C513 C512 1.382 . S
C513 C517 1.389 1_565 S
C514 C512 1.426 . S
C514 C515 1.375 . S
C514 C518 1.532 . S
C515 H505 0.930 . S
C515 C514 1.375 . S
C515 C516 1.385 1_565 S
C516 C515 1.385 1_545 S
C516 C517 1.383 . S
C517 H506 0.930 . S
C517 C513 1.389 1_545 S
C517 C516 1.383 . S
C518 H507 0.970 . S
C518 H508 0.970 . S
C518 C514 1.532 . S
C518 C519 1.499 . S
C519 C518 1.499 . S
C519 C520 1.370 . S
C519 C524 1.415 . S
C520 H509 0.930 . S
C520 C519 1.370 . S
C520 C521 1.407 . S
C521 C520 1.407 . S
C521 C522 1.365 1_565 S
C522 H510 0.930 . S
C522 C521 1.365 1_545 S
C522 C523 1.393 1_545 S
C523 C522 1.393 1_565 S
C523 C524 1.387 . S
C524 H511 0.930 . S
C524 C519 1.415 . S
C524 C523 1.387 . S
H525 C533 0.930 . S
H526 C536 0.930 . S
H527 C538 0.930 . S
H528 C539 0.970 . S
H529 C539 0.970 . S
H530 C541 0.930 . S
H531 C543 0.930 . S
H532 C545 0.930 . S
C533 H525 0.930 . S
C533 C534 1.382 . S
C533 C535 1.426 . S
C534 C533 1.382 . S
C534 C538 1.389 1_455 S
C535 C533 1.426 . S
C535 C536 1.375 . S
C535 C539 1.532 . S
C536 H526 0.930 . S
C536 C535 1.375 . S
C536 C537 1.416 . S
C537 C536 1.416 . S
C537 C538 1.371 1_455 S
C538 H527 0.930 . S
C538 C534 1.389 1_655 S
C538 C537 1.371 1_655 S
C539 H528 0.970 . S
C539 H529 0.970 . S
C539 C535 1.532 . S
C539 C540 1.499 . S
C540 C539 1.499 . S
C540 C541 1.370 . S
C540 C545 1.415 . S
C541 H530 0.930 . S
C541 C540 1.370 . S
C541 C542 1.407 . S
C542 C541 1.407 . S
C542 C543 1.365 1_455 S
C543 H531 0.930 . S
C543 C542 1.365 1_655 S
C543 C544 1.393 1_655 S
C544 C543 1.393 1_455 S
C544 C545 1.387 . S
C545 H532 0.930 . S
C545 C540 1.415 . S
C545 C544 1.387 . S
H546 C554 0.930 . S
H547 C557 0.930 . S
H548 C559 0.930 . S
H549 C560 0.970 . S
H550 C560 0.970 . S
H551 C562 0.930 . S
H552 C564 0.930 . S
H553 C566 0.930 . S
C554 H546 0.930 . S
C554 C555 1.382 . S
C554 C556 1.426 . S
C555 C554 1.382 . S
C555 C559 1.389 . S
C556 C554 1.426 . S
C556 C557 1.375 . S
C556 C560 1.532 . S
C557 H547 0.930 . S
C557 C556 1.375 . S
C557 C558 1.416 . S
C558 C557 1.416 . S
C558 C559 1.371 . S
C559 H548 0.930 . S
C559 C555 1.389 . S
C559 C558 1.371 . S
C560 H549 0.970 . S
C560 H550 0.970 . S
C560 C556 1.532 . S
C560 C561 1.499 . S
C561 C560 1.499 . S
C561 C562 1.370 . S
C561 C566 1.415 . S
C562 H551 0.930 . S
C562 C561 1.370 . S
C562 C563 1.407 . S
C563 C562 1.407 . S
C563 C564 1.365 . S
C564 H552 0.930 . S
C564 C563 1.365 . S
C564 C565 1.393 . S
C565 C564 1.393 . S
C565 C566 1.387 . S
C566 H553 0.930 . S
C566 C561 1.415 . S
C566 C565 1.387 . S
H567 C575 0.930 . S
H568 C578 0.930 . S
H569 C580 0.930 . S
H570 C581 0.970 . S
H571 C581 0.970 . S
H572 C583 0.930 . S
H573 C585 0.930 . S
H574 C587 0.930 . S
C575 H567 0.930 . S
C575 C576 1.382 . S
C575 C577 1.426 . S
C576 C575 1.382 . S
C576 C580 1.389 . S
C577 C575 1.426 . S
C577 C578 1.375 . S
C577 C581 1.532 . S
C578 H568 0.930 . S
C578 C577 1.375 . S
C578 C579 1.416 . S
C579 C578 1.416 . S
C579 C580 1.371 . S
C580 H569 0.930 . S
C580 C576 1.389 . S
C580 C579 1.371 . S
C581 H570 0.970 . S
C581 H571 0.970 . S
C581 C577 1.532 . S
C581 C582 1.499 . S
C582 C581 1.499 . S
C582 C583 1.370 . S
C582 C587 1.415 . S
C583 H572 0.930 . S
C583 C582 1.370 . S
C583 C584 1.407 . S
C584 C583 1.407 . S
C584 C585 1.365 . S
C585 H573 0.930 . S
C585 C584 1.365 . S
C585 C586 1.393 . S
C586 C585 1.393 . S
C586 C587 1.387 . S
C587 H574 0.930 . S
C587 C582 1.415 . S
C587 C586 1.387 . S
H588 C596 0.930 . S
H589 C599 0.930 . S
H590 C601 0.930 . S
H591 C602 0.970 . S
H592 C602 0.970 . S
H593 C604 0.930 . S
H594 C606 0.930 . S
H595 C608 0.930 . S
C596 H588 0.930 . S
C596 C597 1.382 . S
C596 C598 1.426 . S
C597 C596 1.382 . S
C597 C601 1.389 . S
C598 C596 1.426 . S
C598 C599 1.375 . S
C598 C602 1.532 . S
C599 H589 0.930 . S
C599 C598 1.375 . S
C599 C600 1.416 . S
C600 C599 1.416 . S
C600 C601 1.371 . S
C601 H590 0.930 . S
C601 C597 1.389 . S
C601 C600 1.371 . S
C602 H591 0.970 . S
C602 H592 0.970 . S
C602 C598 1.532 . S
C602 C603 1.499 . S
C603 C602 1.499 . S
C603 C604 1.370 . S
C603 C608 1.415 . S
C604 H593 0.930 . S
C604 C603 1.370 . S
C604 C605 1.407 . S
C605 C604 1.407 . S
C605 C606 1.365 . S
C606 H594 0.930 . S
C606 C605 1.365 . S
C606 C607 1.393 . S
C607 C606 1.393 . S
C607 C608 1.387 . S
C608 H595 0.930 . S
C608 C603 1.415 . S
C608 C607 1.387 . S
H609 C617 0.930 . S
H610 C620 0.930 . S
H611 C622 0.930 . S
H612 C623 0.970 . S
H613 C623 0.970 . S
H614 C625 0.930 . S
H615 C627 0.930 . S
H616 C629 0.930 . S
C617 H609 0.930 . S
C617 C618 1.382 . S
C617 C619 1.426 . S
C618 C617 1.382 . S
C618 C622 1.389 . S
C619 C617 1.426 . S
C619 C620 1.375 . S
C619 C623 1.532 . S
C620 H610 0.930 . S
C620 C619 1.375 . S
C620 C621 1.416 . S
C621 C620 1.416 . S
C621 C622 1.371 . S
C622 H611 0.930 . S
C622 C618 1.389 . S
C622 C621 1.371 . S
C623 H612 0.970 . S
C623 H613 0.970 . S
C623 C619 1.532 . S
C623 C624 1.499 . S
C624 C623 1.499 . S
C624 C625 1.370 . S
C624 C629 1.415 . S
C625 H614 0.930 . S
C625 C624 1.370 . S
C625 C626 1.407 . S
C626 C625 1.407 . S
C626 C627 1.365 . S
C627 H615 0.930 . S
C627 C626 1.365 . S
C627 C628 1.393 . S
C628 C627 1.393 . S
C628 C629 1.387 . S
C629 H616 0.930 . S
C629 C624 1.415 . S
C629 C628 1.387 . S
C630 C631 1.363 1_655 S
C630 C636 1.379 . S
C630 N638 1.356 . S
C631 C630 1.363 1_455 S
C631 C637 1.363 . S
C632 C633 1.363 1_455 S
C632 C637 1.379 . S
C632 N639 1.356 . S
C633 C632 1.363 1_655 S
C633 C636 1.363 . S
N634 C636 1.356 . S
N634 H646 0.984 . S
N634 H647 0.985 . S
N635 C637 1.356 . S
N635 H640 0.984 . S
N635 H641 0.985 . S
C636 C630 1.379 . S
C636 C633 1.363 . S
C636 N634 1.356 . S
C637 C631 1.363 . S
C637 C632 1.379 . S
C637 N635 1.356 . S
N638 C630 1.356 . S
N638 H644 0.984 . S
N638 H645 0.984 . S
N639 C632 1.356 . S
N639 H642 0.984 . S
N639 H643 0.985 . S
H640 N635 0.984 . S
H641 N635 0.985 . S
H642 N639 0.984 . S
H643 N639 0.985 . S
H644 N638 0.984 . S
H645 N638 0.984 . S
H646 N634 0.984 . S
H647 N634 0.985 . S
C648 C649 1.363 . S
C648 C654 1.379 . S
C648 N656 1.356 . S
C649 C648 1.363 . S
C649 C655 1.363 . S
C650 C651 1.363 . S
C650 C655 1.379 . S
C650 N657 1.356 . S
C651 C650 1.363 . S
C651 C654 1.363 . S
N652 C654 1.356 . S
N652 H664 0.984 . S
N652 H665 0.985 . S
N653 C655 1.356 . S
N653 H658 0.984 . S
N653 H659 0.985 . S
C654 C648 1.379 . S
C654 C651 1.363 . S
C654 N652 1.356 . S
C655 C649 1.363 . S
C655 C650 1.379 . S
C655 N653 1.356 . S
N656 C648 1.356 . S
N656 H662 0.984 . S
N656 H663 0.984 . S
N657 C650 1.356 . S
N657 H660 0.984 . S
N657 H661 0.985 . S
H658 N653 0.984 . S
H659 N653 0.985 . S
H660 N657 0.984 . S
H661 N657 0.985 . S
H662 N656 0.984 . S
H663 N656 0.984 . S
H664 N652 0.984 . S
H665 N652 0.985 . S
C666 C667 1.340 1_565 S
C666 C672 1.379 . S
C666 N674 1.356 . S
C667 C666 1.340 1_545 S
C667 C673 1.374 . S
C668 C669 1.363 . S
C668 C673 1.379 . S
C668 N675 1.356 . S
C669 C668 1.363 . S
C669 C672 1.363 1_545 S
N670 C672 1.356 . S
N670 H682 0.984 . S
N670 H683 0.985 . S
N671 C673 1.356 . S
N671 H676 0.984 . S
N671 H677 0.985 . S
C672 C666 1.379 . S
C672 C669 1.363 1_565 S
C672 N670 1.356 . S
C673 C667 1.374 . S
C673 C668 1.379 . S
C673 N671 1.356 . S
N674 C666 1.356 . S
N674 H680 0.984 . S
N674 H681 0.984 . S
N675 C668 1.356 . S
N675 H678 0.984 . S
N675 H679 0.985 . S
H676 N671 0.984 . S
H677 N671 0.985 . S
H678 N675 0.984 . S
H679 N675 0.985 . S
H680 N674 0.984 . S
H681 N674 0.984 . S
H682 N670 0.984 . S
H683 N670 0.985 . S
C684 C685 1.363 1_565 S
C684 C690 1.379 . S
C684 N692 1.356 . S
C685 C684 1.363 1_545 S
C685 C691 1.363 . S
C686 C687 1.363 1_545 S
C686 C691 1.379 . S
C686 N693 1.356 . S
C687 C686 1.363 1_565 S
C687 C690 1.363 . S
N688 C690 1.356 . S
N688 H700 0.984 . S
N688 H701 0.985 . S
N689 C691 1.356 . S
N689 H694 0.984 . S
N689 H695 0.985 . S
C690 C684 1.379 . S
C690 C687 1.363 . S
C690 N688 1.356 . S
C691 C685 1.363 . S
C691 C686 1.379 . S
C691 N689 1.356 . S
N692 C684 1.356 . S
N692 H698 0.984 . S
N692 H699 0.984 . S
N693 C686 1.356 . S
N693 H696 0.984 . S
N693 H697 0.985 . S
H694 N689 0.984 . S
H695 N689 0.985 . S
H696 N693 0.984 . S
H697 N693 0.985 . S
H698 N692 0.984 . S
H699 N692 0.984 . S
H700 N688 0.984 . S
H701 N688 0.985 . S
C702 C703 1.363 1_655 S
C702 C708 1.388 1_655 S
C702 N710 1.356 . S
C703 C702 1.363 1_455 S
C703 C709 1.353 . S
C704 C705 1.363 . S
C704 C709 1.379 . S
C704 N711 1.356 . S
C705 C704 1.363 . S
C705 C708 1.353 . S
N706 C708 1.353 1_655 S
N706 H718 0.982 . S
N706 H719 0.988 1_655 S
N707 C709 1.356 . S
N707 H712 0.984 1_556 S
N707 H713 0.985 1_556 S
C708 C702 1.388 1_455 S
C708 C705 1.353 . S
C708 N706 1.353 1_455 S
C709 C703 1.353 . S
C709 C704 1.379 . S
C709 N707 1.356 . S
N710 C702 1.356 . S
N710 H716 0.984 . S
N710 H717 0.984 . S
N711 C704 1.356 . S
N711 H714 0.984 . S
N711 H715 0.985 . S
H712 N707 0.984 1_554 S
H713 N707 0.985 1_554 S
H714 N711 0.984 . S
H715 N711 0.985 . S
H716 N710 0.984 . S
H717 N710 0.984 . S
H718 N706 0.982 . S
H719 N706 0.988 1_455 S
C720 C721 1.363 . S
C720 C726 1.379 . S
C720 N728 1.356 . S
C721 C720 1.363 . S
C721 C727 1.363 . S
C722 C723 1.363 . S
C722 C727 1.379 . S
C722 N729 1.356 . S
C723 C722 1.363 . S
C723 C726 1.363 . S
N724 C726 1.356 . S
N724 H736 0.984 . S
N724 H737 0.985 . S
N725 C727 1.356 . S
N725 H730 0.984 . S
N725 H731 0.985 . S
C726 C720 1.379 . S
C726 C723 1.363 . S
C726 N724 1.356 . S
C727 C721 1.363 . S
C727 C722 1.379 . S
C727 N725 1.356 . S
N728 C720 1.356 . S
N728 H734 0.984 . S
N728 H735 0.984 . S
N729 C722 1.356 . S
N729 H732 0.984 . S
N729 H733 0.985 . S
H730 N725 0.984 . S
H731 N725 0.985 . S
H732 N729 0.984 . S
H733 N729 0.985 . S
H734 N728 0.984 . S
H735 N728 0.984 . S
H736 N724 0.984 . S
H737 N724 0.985 . S
C738 C739 1.369 . S
C738 C744 1.379 . S
C738 N746 1.356 . S
C739 C738 1.369 . S
C739 C745 1.352 1_655 S
C740 C741 1.382 . S
C740 C745 1.379 . S
C740 N747 1.356 . S
C741 C740 1.382 . S
C741 C744 1.330 1_455 S
N742 C744 1.356 . S
N742 H754 0.984 . S
N742 H755 0.985 . S
N743 C745 1.356 . S
N743 H748 0.984 . S
N743 H749 0.985 . S
C744 C738 1.379 . S
C744 C741 1.330 1_655 S
C744 N742 1.356 . S
C745 C739 1.352 1_455 S
C745 C740 1.379 . S
C745 N743 1.356 . S
N746 C738 1.356 . S
N746 H752 0.984 . S
N746 H753 0.984 . S
N747 C740 1.356 . S
N747 H750 0.984 . S
N747 H751 0.985 . S
H748 N743 0.984 . S
H749 N743 0.985 . S
H750 N747 0.984 . S
H751 N747 0.985 . S
H752 N746 0.984 . S
H753 N746 0.984 . S
H754 N742 0.984 . S
H755 N742 0.985 . S
C756 C757 1.363 . S
C756 C762 1.379 . S
C756 N764 1.356 . S
C757 C756 1.363 . S
C757 C763 1.363 . S
C758 C759 1.363 . S
C758 C763 1.379 . S
C758 N765 1.356 . S
C759 C758 1.363 . S
C759 C762 1.363 . S
N760 C762 1.356 . S
N760 H772 0.984 . S
N760 H773 0.985 . S
N761 C763 1.356 . S
N761 H766 0.984 . S
N761 H767 0.985 . S
C762 C756 1.379 . S
C762 C759 1.363 . S
C762 N760 1.356 . S
C763 C757 1.363 . S
C763 C758 1.379 . S
C763 N761 1.356 . S
N764 C756 1.356 . S
N764 H770 0.984 . S
N764 H771 0.984 . S
N765 C758 1.356 . S
N765 H768 0.984 . S
N765 H769 0.985 . S
H766 N761 0.984 . S
H767 N761 0.985 . S
H768 N765 0.984 . S
H769 N765 0.985 . S
H770 N764 0.984 . S
H771 N764 0.984 . S
H772 N760 0.984 . S
H773 N760 0.985 . S
C774 C775 1.363 . S
C774 C780 1.379 . S
C774 N782 1.356 . S
C775 C774 1.363 . S
C775 C781 1.363 1_545 S
C776 C777 1.363 1_565 S
C776 C781 1.379 . S
C776 N783 1.356 . S
C777 C776 1.363 1_545 S
C777 C780 1.363 . S
N778 C780 1.356 . S
N778 H790 0.984 . S
N778 H791 0.985 . S
N779 C781 1.356 . S
N779 H784 0.984 . S
N779 H785 0.985 . S
C780 C774 1.379 . S
C780 C777 1.363 . S
C780 N778 1.356 . S
C781 C775 1.363 1_565 S
C781 C776 1.379 . S
C781 N779 1.356 . S
N782 C774 1.356 . S
N782 H788 0.984 . S
N782 H789 0.984 . S
N783 C776 1.356 . S
N783 H786 0.984 . S
N783 H787 0.985 . S
H784 N779 0.984 . S
H785 N779 0.985 . S
H786 N783 0.984 . S
H787 N783 0.985 . S
H788 N782 0.984 . S
H789 N782 0.984 . S
H790 N778 0.984 . S
H791 N778 0.985 . S
C792 C793 1.364 1_565 S
C792 C798 1.379 . S
C792 N800 1.356 . S
C793 C792 1.364 1_545 S
C793 C799 1.361 . S
C794 C795 1.373 . S
C794 C799 1.379 . S
C794 N801 1.356 . S
C795 C794 1.373 . S
C795 C798 1.338 1_545 S
N796 C798 1.356 . S
N796 H808 0.984 . S
N796 H809 0.985 . S
N797 C799 1.356 . S
N797 H802 0.984 . S
N797 H803 0.985 . S
C798 C792 1.379 . S
C798 C795 1.338 1_565 S
C798 N796 1.356 . S
C799 C793 1.361 . S
C799 C794 1.379 . S
C799 N797 1.356 . S
N800 C792 1.356 . S
N800 H806 0.984 . S
N800 H807 0.984 . S
N801 C794 1.356 . S
N801 H804 0.984 . S
N801 H805 0.985 . S
H802 N797 0.984 . S
H803 N797 0.985 . S
H804 N801 0.984 . S
H805 N801 0.985 . S
H806 N800 0.984 . S
H807 N800 0.984 . S
H808 N796 0.984 . S
H809 N796 0.985 . S
C810 C811 1.363 1_655 S
C810 C816 1.379 . S
C810 N818 1.356 . S
C811 C810 1.363 1_455 S
C811 C817 1.363 . S
C812 C813 1.363 . S
C812 C817 1.379 . S
C812 N819 1.356 . S
C813 C812 1.363 . S
C813 C816 1.363 1_455 S
N814 C816 1.356 . S
N814 H826 0.984 . S
N814 H827 0.985 . S
N815 C817 1.356 . S
N815 H820 0.984 . S
N815 H821 0.985 . S
C816 C810 1.379 . S
C816 C813 1.363 1_655 S
C816 N814 1.356 . S
C817 C811 1.363 . S
C817 C812 1.379 . S
C817 N815 1.356 . S
N818 C810 1.356 . S
N818 H824 0.984 . S
N818 H825 0.984 . S
N819 C812 1.356 . S
N819 H822 0.984 . S
N819 H823 0.985 . S
H820 N815 0.984 . S
H821 N815 0.985 . S
H822 N819 0.984 . S
H823 N819 0.985 . S
H824 N818 0.984 . S
H825 N818 0.984 . S
H826 N814 0.984 . S
H827 N814 0.985 . S
C828 C829 1.363 . S
C828 C834 1.379 . S
C828 N836 1.356 . S
C829 C828 1.363 . S
C829 C835 1.363 . S
C830 C831 1.363 . S
C830 C835 1.379 . S
C830 N837 1.356 . S
C831 C830 1.363 . S
C831 C834 1.363 . S
N832 C834 1.356 . S
N832 H844 0.984 . S
N832 H845 0.985 . S
N833 C835 1.356 . S
N833 H838 0.984 . S
N833 H839 0.985 . S
C834 C828 1.379 . S
C834 C831 1.363 . S
C834 N832 1.356 . S
C835 C829 1.363 . S
C835 C830 1.379 . S
C835 N833 1.356 . S
N836 C828 1.356 . S
N836 H842 0.984 . S
N836 H843 0.984 . S
N837 C830 1.356 . S
N837 H840 0.984 . S
N837 H841 0.985 . S
H838 N833 0.984 . S
H839 N833 0.985 . S
H840 N837 0.984 . S
H841 N837 0.985 . S
H842 N836 0.984 . S
H843 N836 0.984 . S
H844 N832 0.984 . S
H845 N832 0.985 . S
C846 C847 1.363 . S
C846 C852 1.379 . S
C846 N854 1.356 . S
C847 C846 1.363 . S
C847 C853 1.363 . S
C848 C849 1.363 . S
C848 C853 1.379 . S
C848 N855 1.356 . S
C849 C848 1.363 . S
C849 C852 1.363 . S
N850 C852 1.356 . S
N850 H862 0.984 . S
N850 H863 0.985 . S
N851 C853 1.356 . S
N851 H856 0.984 . S
N851 H857 0.985 . S
C852 C846 1.379 . S
C852 C849 1.363 . S
C852 N850 1.356 . S
C853 C847 1.363 . S
C853 C848 1.379 . S
C853 N851 1.356 . S
N854 C846 1.356 . S
N854 H860 0.984 . S
N854 H861 0.984 . S
N855 C848 1.356 . S
N855 H858 0.984 . S
N855 H859 0.985 . S
H856 N851 0.984 . S
H857 N851 0.985 . S
H858 N855 0.984 . S
H859 N855 0.985 . S
H860 N854 0.984 . S
H861 N854 0.984 . S
H862 N850 0.984 . S
H863 N850 0.985 . S
C864 C865 1.363 . S
C864 C870 1.379 . S
C864 N872 1.356 . S
C865 C864 1.363 . S
C865 C871 1.363 . S
C866 C867 1.363 . S
C866 C871 1.379 . S
C866 N873 1.356 . S
C867 C866 1.363 . S
C867 C870 1.363 . S
N868 C870 1.356 . S
N868 H880 0.984 . S
N868 H881 0.985 . S
N869 C871 1.356 . S
N869 H874 0.984 . S
N869 H875 0.985 . S
C870 C864 1.379 . S
C870 C867 1.363 . S
C870 N868 1.356 . S
C871 C865 1.363 . S
C871 C866 1.379 . S
C871 N869 1.356 . S
N872 C864 1.356 . S
N872 H878 0.984 . S
N872 H879 0.984 . S
N873 C866 1.356 . S
N873 H876 0.984 . S
N873 H877 0.985 . S
H874 N869 0.984 . S
H875 N869 0.985 . S
H876 N873 0.984 . S
H877 N873 0.985 . S
H878 N872 0.984 . S
H879 N872 0.984 . S
H880 N868 0.984 . S
H881 N868 0.985 . S
C882 C883 1.363 . S
C882 C888 1.379 . S
C882 N890 1.356 . S
C883 C882 1.363 . S
C883 C889 1.363 . S
C884 C885 1.363 . S
C884 C889 1.379 . S
C884 N891 1.356 . S
C885 C884 1.363 . S
C885 C888 1.363 . S
N886 C888 1.356 . S
N886 H898 0.984 . S
N886 H899 0.985 . S
N887 C889 1.356 . S
N887 H892 0.984 . S
N887 H893 0.985 . S
C888 C882 1.379 . S
C888 C885 1.363 . S
C888 N886 1.356 . S
C889 C883 1.363 . S
C889 C884 1.379 . S
C889 N887 1.356 . S
N890 C882 1.356 . S
N890 H896 0.984 . S
N890 H897 0.984 . S
N891 C884 1.356 . S
N891 H894 0.984 . S
N891 H895 0.985 . S
H892 N887 0.984 . S
H893 N887 0.985 . S
H894 N891 0.984 . S
H895 N891 0.985 . S
H896 N890 0.984 . S
H897 N890 0.984 . S
H898 N886 0.984 . S
H899 N886 0.985 . S
C900 C901 1.363 . S
C900 C906 1.379 . S
C900 N908 1.356 . S
C901 C900 1.363 . S
C901 C907 1.363 . S
C902 C903 1.363 . S
C902 C907 1.379 . S
C902 N909 1.356 . S
C903 C902 1.363 . S
C903 C906 1.363 . S
N904 C906 1.356 . S
N904 H916 0.984 . S
N904 H917 0.985 . S
N905 C907 1.356 . S
N905 H910 0.984 . S
N905 H911 0.985 . S
C906 C900 1.379 . S
C906 C903 1.363 . S
C906 N904 1.356 . S
C907 C901 1.363 . S
C907 C902 1.379 . S
C907 N905 1.356 . S
N908 C900 1.356 . S
N908 H914 0.984 . S
N908 H915 0.984 . S
N909 C902 1.356 . S
N909 H912 0.984 . S
N909 H913 0.985 . S
H910 N905 0.984 . S
H911 N905 0.985 . S
H912 N909 0.984 . S
H913 N909 0.985 . S
H914 N908 0.984 . S
H915 N908 0.984 . S
H916 N904 0.984 . S
H917 N904 0.985 . S
C918 C919 1.363 . S
C918 C924 1.379 . S
C918 N926 1.356 . S
C919 C918 1.363 . S
C919 C925 1.363 . S
C920 C921 1.363 . S
C920 C925 1.379 . S
C920 N927 1.356 . S
C921 C920 1.363 . S
C921 C924 1.363 . S
N922 C924 1.356 . S
N922 H934 0.984 . S
N922 H935 0.985 . S
N923 C925 1.356 . S
N923 H928 0.984 . S
N923 H929 0.985 . S
C924 C918 1.379 . S
C924 C921 1.363 . S
C924 N922 1.356 . S
C925 C919 1.363 . S
C925 C920 1.379 . S
C925 N923 1.356 . S
N926 C918 1.356 . S
N926 H932 0.984 . S
N926 H933 0.984 . S
N927 C920 1.356 . S
N927 H930 0.984 . S
N927 H931 0.985 . S
H928 N923 0.984 . S
H929 N923 0.985 . S
H930 N927 0.984 . S
H931 N927 0.985 . S
H932 N926 0.984 . S
H933 N926 0.984 . S
H934 N922 0.984 . S
H935 N922 0.985 . S
C936 C937 1.363 . S
C936 C942 1.379 . S
C936 N944 1.356 . S
C937 C936 1.363 . S
C937 C943 1.363 . S
C938 C939 1.363 . S
C938 C943 1.379 . S
C938 N945 1.356 . S
C939 C938 1.363 . S
C939 C942 1.363 . S
N940 C942 1.356 . S
N940 H952 0.984 . S
N940 H953 0.985 . S
N941 C943 1.356 . S
N941 H946 0.984 . S
N941 H947 0.985 . S
C942 C936 1.379 . S
C942 C939 1.363 . S
C942 N940 1.356 . S
C943 C937 1.363 . S
C943 C938 1.379 . S
C943 N941 1.356 . S
N944 C936 1.356 . S
N944 H950 0.984 . S
N944 H951 0.984 . S
N945 C938 1.356 . S
N945 H948 0.984 . S
N945 H949 0.985 . S
H946 N941 0.984 . S
H947 N941 0.985 . S
H948 N945 0.984 . S
H949 N945 0.985 . S
H950 N944 0.984 . S
H951 N944 0.984 . S
H952 N940 0.984 . S
H953 N940 0.985 . S
C954 C955 1.363 . S
C954 C960 1.379 . S
C954 N962 1.356 . S
C955 C954 1.363 . S
C955 C961 1.363 . S
C956 C957 1.363 . S
C956 C961 1.379 . S
C956 N963 1.356 . S
C957 C956 1.363 . S
C957 C960 1.363 . S
N958 C960 1.356 . S
N958 H970 0.984 . S
N958 H971 0.985 . S
N959 C961 1.356 . S
N959 H964 0.984 . S
N959 H965 0.985 . S
C960 C954 1.379 . S
C960 C957 1.363 . S
C960 N958 1.356 . S
C961 C955 1.363 . S
C961 C956 1.379 . S
C961 N959 1.356 . S
N962 C954 1.356 . S
N962 H968 0.984 . S
N962 H969 0.984 . S
N963 C956 1.356 . S
N963 H966 0.984 . S
N963 H967 0.985 . S
H964 N959 0.984 . S
H965 N959 0.985 . S
H966 N963 0.984 . S
H967 N963 0.985 . S
H968 N962 0.984 . S
H969 N962 0.984 . S
H970 N958 0.984 . S
H971 N958 0.985 . S
C972 C973 1.363 . S
C972 C978 1.379 . S
C972 N980 1.356 . S
C973 C972 1.363 . S
C973 C979 1.363 . S
C974 C975 1.363 . S
C974 C979 1.379 . S
C974 N981 1.356 . S
C975 C974 1.363 . S
C975 C978 1.363 . S
N976 C978 1.356 . S
N976 H988 0.984 . S
N976 H989 0.985 . S
N977 C979 1.356 . S
N977 H982 0.984 . S
N977 H983 0.985 . S
C978 C972 1.379 . S
C978 C975 1.363 . S
C978 N976 1.356 . S
C979 C973 1.363 . S
C979 C974 1.379 . S
C979 N977 1.356 . S
N980 C972 1.356 . S
N980 H986 0.984 . S
N980 H987 0.984 . S
N981 C974 1.356 . S
N981 H984 0.984 . S
N981 H985 0.985 . S
H982 N977 0.984 . S
H983 N977 0.985 . S
H984 N981 0.984 . S
H985 N981 0.985 . S
H986 N980 0.984 . S
H987 N980 0.984 . S
H988 N976 0.984 . S
H989 N976 0.985 . S
C990 C991 1.363 . S
C990 C996 1.379 . S
C990 N998 1.356 . S
C991 C990 1.363 . S
C991 C997 1.363 . S
C992 C993 1.363 . S
C992 C997 1.379 . S
C992 N999 1.356 . S
C993 C992 1.363 . S
C993 C996 1.363 . S
N994 C996 1.356 . S
N994 H1006 0.984 . S
N994 H1007 0.985 . S
N995 C997 1.356 . S
N995 H1000 0.984 . S
N995 H1001 0.985 . S
C996 C990 1.379 . S
C996 C993 1.363 . S
C996 N994 1.356 . S
C997 C991 1.363 . S
C997 C992 1.379 . S
C997 N995 1.356 . S
N998 C990 1.356 . S
N998 H1004 0.984 . S
N998 H1005 0.984 . S
N999 C992 1.356 . S
N999 H1002 0.984 . S
N999 H1003 0.985 . S
H1000 N995 0.984 . S
H1001 N995 0.985 . S
H1002 N999 0.984 . S
H1003 N999 0.985 . S
H1004 N998 0.984 . S
H1005 N998 0.984 . S
H1006 N994 0.984 . S
H1007 N994 0.985 . S
C1008 C1009 1.363 . S
C1008 C1014 1.379 . S
C1008 N1016 1.356 . S
C1009 C1008 1.363 . S
C1009 C1015 1.363 . S
C1010 C1011 1.363 . S
C1010 C1015 1.379 . S
C1010 N1017 1.356 . S
C1011 C1010 1.363 . S
C1011 C1014 1.363 . S
N1012 C1014 1.356 . S
N1012 H1024 0.984 . S
N1012 H1025 0.985 . S
N1013 C1015 1.356 . S
N1013 H1018 0.984 . S
N1013 H1019 0.985 . S
C1014 C1008 1.379 . S
C1014 C1011 1.363 . S
C1014 N1012 1.356 . S
C1015 C1009 1.363 . S
C1015 C1010 1.379 . S
C1015 N1013 1.356 . S
N1016 C1008 1.356 . S
N1016 H1022 0.984 . S
N1016 H1023 0.984 . S
N1017 C1010 1.356 . S
N1017 H1020 0.984 . S
N1017 H1021 0.985 . S
H1018 N1013 0.984 . S
H1019 N1013 0.985 . S
H1020 N1017 0.984 . S
H1021 N1017 0.985 . S
H1022 N1016 0.984 . S
H1023 N1016 0.984 . S
H1024 N1012 0.984 . S
H1025 N1012 0.985 . S
C1026 C1027 1.363 . S
C1026 C1032 1.379 . S
C1026 N1034 1.356 . S
C1027 C1026 1.363 . S
C1027 C1033 1.363 . S
C1028 C1029 1.363 . S
C1028 C1033 1.379 . S
C1028 N1035 1.356 . S
C1029 C1028 1.363 . S
C1029 C1032 1.363 . S
N1030 C1032 1.356 . S
N1030 H1042 0.984 . S
N1030 H1043 0.985 . S
N1031 C1033 1.356 . S
N1031 H1036 0.984 . S
N1031 H1037 0.985 . S
C1032 C1026 1.379 . S
C1032 C1029 1.363 . S
C1032 N1030 1.356 . S
C1033 C1027 1.363 . S
C1033 C1028 1.379 . S
C1033 N1031 1.356 . S
N1034 C1026 1.356 . S
N1034 H1040 0.984 . S
N1034 H1041 0.984 . S
N1035 C1028 1.356 . S
N1035 H1038 0.984 . S
N1035 H1039 0.985 . S
H1036 N1031 0.984 . S
H1037 N1031 0.985 . S
H1038 N1035 0.984 . S
H1039 N1035 0.985 . S
H1040 N1034 0.984 . S
H1041 N1034 0.984 . S
H1042 N1030 0.984 . S
H1043 N1030 0.985 . S
C1044 C1045 1.363 . S
C1044 C1050 1.379 . S
C1044 N1052 1.356 . S
C1045 C1044 1.363 . S
C1045 C1051 1.363 . S
C1046 C1047 1.363 . S
C1046 C1051 1.379 . S
C1046 N1053 1.356 . S
C1047 C1046 1.363 . S
C1047 C1050 1.363 . S
N1048 C1050 1.356 . S
N1048 H1060 0.984 . S
N1048 H1061 0.985 . S
N1049 C1051 1.356 . S
N1049 H1054 0.984 . S
N1049 H1055 0.985 . S
C1050 C1044 1.379 . S
C1050 C1047 1.363 . S
C1050 N1048 1.356 . S
C1051 C1045 1.363 . S
C1051 C1046 1.379 . S
C1051 N1049 1.356 . S
N1052 C1044 1.356 . S
N1052 H1058 0.984 . S
N1052 H1059 0.984 . S
N1053 C1046 1.356 . S
N1053 H1056 0.984 . S
N1053 H1057 0.985 . S
H1054 N1049 0.984 . S
H1055 N1049 0.985 . S
H1056 N1053 0.984 . S
H1057 N1053 0.985 . S
H1058 N1052 0.984 . S
H1059 N1052 0.984 . S
H1060 N1048 0.984 . S
H1061 N1048 0.985 . S
C1062 C1063 1.363 . S
C1062 C1068 1.379 . S
C1062 N1070 1.356 . S
C1063 C1062 1.363 . S
C1063 C1069 1.363 . S
C1064 C1065 1.363 . S
C1064 C1069 1.379 . S
C1064 N1071 1.356 . S
C1065 C1064 1.363 . S
C1065 C1068 1.363 . S
N1066 C1068 1.356 . S
N1066 H1078 0.984 . S
N1066 H1079 0.985 . S
N1067 C1069 1.356 . S
N1067 H1072 0.984 . S
N1067 H1073 0.985 . S
C1068 C1062 1.379 . S
C1068 C1065 1.363 . S
C1068 N1066 1.356 . S
C1069 C1063 1.363 . S
C1069 C1064 1.379 . S
C1069 N1067 1.356 . S
N1070 C1062 1.356 . S
N1070 H1076 0.984 . S
N1070 H1077 0.984 . S
N1071 C1064 1.356 . S
N1071 H1074 0.984 . S
N1071 H1075 0.985 . S
H1072 N1067 0.984 . S
H1073 N1067 0.985 . S
H1074 N1071 0.984 . S
H1075 N1071 0.985 . S
H1076 N1070 0.984 . S
H1077 N1070 0.984 . S
H1078 N1066 0.984 . S
H1079 N1066 0.985 . S
C1080 C1081 1.363 . S
C1080 C1086 1.379 . S
C1080 N1088 1.356 . S
C1081 C1080 1.363 . S
C1081 C1087 1.363 . S
C1082 C1083 1.363 . S
C1082 C1087 1.379 . S
C1082 N1089 1.356 . S
C1083 C1082 1.363 . S
C1083 C1086 1.363 . S
N1084 C1086 1.356 . S
N1084 H1096 0.984 . S
N1084 H1097 0.985 . S
N1085 C1087 1.356 . S
N1085 H1090 0.984 . S
N1085 H1091 0.985 . S
C1086 C1080 1.379 . S
C1086 C1083 1.363 . S
C1086 N1084 1.356 . S
C1087 C1081 1.363 . S
C1087 C1082 1.379 . S
C1087 N1085 1.356 . S
N1088 C1080 1.356 . S
N1088 H1094 0.984 . S
N1088 H1095 0.984 . S
N1089 C1082 1.356 . S
N1089 H1092 0.984 . S
N1089 H1093 0.985 . S
H1090 N1085 0.984 . S
H1091 N1085 0.985 . S
H1092 N1089 0.984 . S
H1093 N1089 0.985 . S
H1094 N1088 0.984 . S
H1095 N1088 0.984 . S
H1096 N1084 0.984 . S
H1097 N1084 0.985 . S
C1098 C1099 1.363 . S
C1098 C1104 1.379 . S
C1098 N1106 1.356 . S
C1099 C1098 1.363 . S
C1099 C1105 1.363 . S
C1100 C1101 1.363 . S
C1100 C1105 1.379 . S
C1100 N1107 1.356 . S
C1101 C1100 1.363 . S
C1101 C1104 1.363 . S
N1102 C1104 1.356 . S
N1102 H1114 0.984 . S
N1102 H1115 0.985 . S
N1103 C1105 1.356 . S
N1103 H1108 0.984 . S
N1103 H1109 0.985 . S
C1104 C1098 1.379 . S
C1104 C1101 1.363 . S
C1104 N1102 1.356 . S
C1105 C1099 1.363 . S
C1105 C1100 1.379 . S
C1105 N1103 1.356 . S
N1106 C1098 1.356 . S
N1106 H1112 0.984 . S
N1106 H1113 0.984 . S
N1107 C1100 1.356 . S
N1107 H1110 0.984 . S
N1107 H1111 0.985 . S
H1108 N1103 0.984 . S
H1109 N1103 0.985 . S
H1110 N1107 0.984 . S
H1111 N1107 0.985 . S
H1112 N1106 0.984 . S
H1113 N1106 0.984 . S
H1114 N1102 0.984 . S
H1115 N1102 0.985 . S
C1116 C1117 1.363 . S
C1116 C1122 1.379 . S
C1116 N1124 1.356 . S
C1117 C1116 1.363 . S
C1117 C1123 1.363 . S
C1118 C1119 1.363 . S
C1118 C1123 1.379 . S
C1118 N1125 1.356 . S
C1119 C1118 1.363 . S
C1119 C1122 1.363 . S
N1120 C1122 1.356 . S
N1120 H1132 0.984 . S
N1120 H1133 0.985 . S
N1121 C1123 1.356 . S
N1121 H1126 0.984 . S
N1121 H1127 0.985 . S
C1122 C1116 1.379 . S
C1122 C1119 1.363 . S
C1122 N1120 1.356 . S
C1123 C1117 1.363 . S
C1123 C1118 1.379 . S
C1123 N1121 1.356 . S
N1124 C1116 1.356 . S
N1124 H1130 0.984 . S
N1124 H1131 0.984 . S
N1125 C1118 1.356 . S
N1125 H1128 0.984 . S
N1125 H1129 0.985 . S
H1126 N1121 0.984 . S
H1127 N1121 0.985 . S
H1128 N1125 0.984 . S
H1129 N1125 0.985 . S
H1130 N1124 0.984 . S
H1131 N1124 0.984 . S
H1132 N1120 0.984 . S
H1133 N1120 0.985 . S
C1134 C1135 1.363 . S
C1134 C1140 1.379 . S
C1134 N1142 1.356 . S
C1135 C1134 1.363 . S
C1135 C1141 1.363 . S
C1136 C1137 1.363 . S
C1136 C1141 1.379 . S
C1136 N1143 1.356 . S
C1137 C1136 1.363 . S
C1137 C1140 1.363 . S
N1138 C1140 1.356 . S
N1138 H1150 0.984 . S
N1138 H1151 0.985 . S
N1139 C1141 1.356 . S
N1139 H1144 0.984 . S
N1139 H1145 0.985 . S
C1140 C1134 1.379 . S
C1140 C1137 1.363 . S
C1140 N1138 1.356 . S
C1141 C1135 1.363 . S
C1141 C1136 1.379 . S
C1141 N1139 1.356 . S
N1142 C1134 1.356 . S
N1142 H1148 0.984 . S
N1142 H1149 0.984 . S
N1143 C1136 1.356 . S
N1143 H1146 0.984 . S
N1143 H1147 0.985 . S
H1144 N1139 0.984 . S
H1145 N1139 0.985 . S
H1146 N1143 0.984 . S
H1147 N1143 0.985 . S
H1148 N1142 0.984 . S
H1149 N1142 0.984 . S
H1150 N1138 0.984 . S
H1151 N1138 0.985 . S
C1152 C1153 1.363 . S
C1152 C1158 1.379 . S
C1152 N1160 1.356 . S
C1153 C1152 1.363 . S
C1153 C1159 1.363 . S
C1154 C1155 1.363 . S
C1154 C1159 1.379 . S
C1154 N1161 1.356 . S
C1155 C1154 1.363 . S
C1155 C1158 1.363 . S
N1156 C1158 1.356 . S
N1156 H1168 0.984 . S
N1156 H1169 0.985 . S
N1157 C1159 1.356 . S
N1157 H1162 0.984 . S
N1157 H1163 0.985 . S
C1158 C1152 1.379 . S
C1158 C1155 1.363 . S
C1158 N1156 1.356 . S
C1159 C1153 1.363 . S
C1159 C1154 1.379 . S
C1159 N1157 1.356 . S
N1160 C1152 1.356 . S
N1160 H1166 0.984 . S
N1160 H1167 0.984 . S
N1161 C1154 1.356 . S
N1161 H1164 0.984 . S
N1161 H1165 0.985 . S
H1162 N1157 0.984 . S
H1163 N1157 0.985 . S
H1164 N1161 0.984 . S
H1165 N1161 0.985 . S
H1166 N1160 0.984 . S
H1167 N1160 0.984 . S
H1168 N1156 0.984 . S
H1169 N1156 0.985 . S
C1170 C1171 1.363 . S
C1170 C1176 1.379 . S
C1170 N1178 1.356 . S
C1171 C1170 1.363 . S
C1171 C1177 1.363 . S
C1172 C1173 1.363 . S
C1172 C1177 1.379 . S
C1172 N1179 1.356 . S
C1173 C1172 1.363 . S
C1173 C1176 1.363 . S
N1174 C1176 1.356 . S
N1174 H1186 0.984 . S
N1174 H1187 0.985 . S
N1175 C1177 1.356 . S
N1175 H1180 0.984 . S
N1175 H1181 0.985 . S
C1176 C1170 1.379 . S
C1176 C1173 1.363 . S
C1176 N1174 1.356 . S
C1177 C1171 1.363 . S
C1177 C1172 1.379 . S
C1177 N1175 1.356 . S
N1178 C1170 1.356 . S
N1178 H1184 0.984 . S
N1178 H1185 0.984 . S
N1179 C1172 1.356 . S
N1179 H1182 0.984 . S
N1179 H1183 0.985 . S
H1180 N1175 0.984 . S
H1181 N1175 0.985 . S
H1182 N1179 0.984 . S
H1183 N1179 0.985 . S
H1184 N1178 0.984 . S
H1185 N1178 0.984 . S
H1186 N1174 0.984 . S
H1187 N1174 0.985 . S
C1188 C1189 1.363 . S
C1188 C1194 1.379 . S
C1188 N1196 1.356 . S
C1189 C1188 1.363 . S
C1189 C1195 1.363 . S
C1190 C1191 1.363 . S
C1190 C1195 1.379 . S
C1190 N1197 1.356 . S
C1191 C1190 1.363 . S
C1191 C1194 1.363 . S
N1192 C1194 1.356 . S
N1192 H1204 0.984 . S
N1192 H1205 0.985 . S
N1193 C1195 1.356 . S
N1193 H1198 0.984 . S
N1193 H1199 0.985 . S
C1194 C1188 1.379 . S
C1194 C1191 1.363 . S
C1194 N1192 1.356 . S
C1195 C1189 1.363 . S
C1195 C1190 1.379 . S
C1195 N1193 1.356 . S
N1196 C1188 1.356 . S
N1196 H1202 0.984 . S
N1196 H1203 0.984 . S
N1197 C1190 1.356 . S
N1197 H1200 0.984 . S
N1197 H1201 0.985 . S
H1198 N1193 0.984 . S
H1199 N1193 0.985 . S
H1200 N1197 0.984 . S
H1201 N1197 0.985 . S
H1202 N1196 0.984 . S
H1203 N1196 0.984 . S
H1204 N1192 0.984 . S
H1205 N1192 0.985 . S
C1206 C1207 1.363 . S
C1206 C1212 1.379 . S
C1206 N1214 1.356 . S
C1207 C1206 1.363 . S
C1207 C1213 1.363 . S
C1208 C1209 1.363 . S
C1208 C1213 1.379 . S
C1208 N1215 1.356 . S
C1209 C1208 1.363 . S
C1209 C1212 1.363 . S
N1210 C1212 1.356 . S
N1210 H1222 0.984 . S
N1210 H1223 0.985 . S
N1211 C1213 1.356 . S
N1211 H1216 0.984 . S
N1211 H1217 0.985 . S
C1212 C1206 1.379 . S
C1212 C1209 1.363 . S
C1212 N1210 1.356 . S
C1213 C1207 1.363 . S
C1213 C1208 1.379 . S
C1213 N1211 1.356 . S
N1214 C1206 1.356 . S
N1214 H1220 0.984 . S
N1214 H1221 0.984 . S
N1215 C1208 1.356 . S
N1215 H1218 0.984 . S
N1215 H1219 0.985 . S
H1216 N1211 0.984 . S
H1217 N1211 0.985 . S
H1218 N1215 0.984 . S
H1219 N1215 0.985 . S
H1220 N1214 0.984 . S
H1221 N1214 0.984 . S
H1222 N1210 0.984 . S
H1223 N1210 0.985 . S
C1224 C1225 1.363 . S
C1224 C1230 1.379 . S
C1224 N1232 1.356 . S
C1225 C1224 1.363 . S
C1225 C1231 1.363 . S
C1226 C1227 1.363 . S
C1226 C1231 1.379 . S
C1226 N1233 1.356 . S
C1227 C1226 1.363 . S
C1227 C1230 1.363 . S
N1228 C1230 1.356 . S
N1228 H1240 0.984 . S
N1228 H1241 0.985 . S
N1229 C1231 1.356 . S
N1229 H1234 0.984 . S
N1229 H1235 0.985 . S
C1230 C1224 1.379 . S
C1230 C1227 1.363 . S
C1230 N1228 1.356 . S
C1231 C1225 1.363 . S
C1231 C1226 1.379 . S
C1231 N1229 1.356 . S
N1232 C1224 1.356 . S
N1232 H1238 0.984 . S
N1232 H1239 0.984 . S
N1233 C1226 1.356 . S
N1233 H1236 0.984 . S
N1233 H1237 0.985 . S
H1234 N1229 0.984 . S
H1235 N1229 0.985 . S
H1236 N1233 0.984 . S
H1237 N1233 0.985 . S
H1238 N1232 0.984 . S
H1239 N1232 0.984 . S
H1240 N1228 0.984 . S
H1241 N1228 0.985 . S
C1242 C1243 1.363 . S
C1242 C1248 1.379 . S
C1242 N1250 1.356 . S
C1243 C1242 1.363 . S
C1243 C1249 1.363 . S
C1244 C1245 1.363 . S
C1244 C1249 1.379 . S
C1244 N1251 1.356 . S
C1245 C1244 1.363 . S
C1245 C1248 1.363 . S
N1246 C1248 1.356 . S
N1246 H1258 0.984 . S
N1246 H1259 0.985 . S
N1247 C1249 1.356 . S
N1247 H1252 0.984 . S
N1247 H1253 0.985 . S
C1248 C1242 1.379 . S
C1248 C1245 1.363 . S
C1248 N1246 1.356 . S
C1249 C1243 1.363 . S
C1249 C1244 1.379 . S
C1249 N1247 1.356 . S
N1250 C1242 1.356 . S
N1250 H1256 0.984 . S
N1250 H1257 0.984 . S
N1251 C1244 1.356 . S
N1251 H1254 0.984 . S
N1251 H1255 0.985 . S
H1252 N1247 0.984 . S
H1253 N1247 0.985 . S
H1254 N1251 0.984 . S
H1255 N1251 0.985 . S
H1256 N1250 0.984 . S
H1257 N1250 0.984 . S
H1258 N1246 0.984 . S
H1259 N1246 0.985 . S
C1260 C1261 1.363 . S
C1260 C1266 1.379 . S
C1260 N1268 1.356 . S
C1261 C1260 1.363 . S
C1261 C1267 1.363 . S
C1262 C1263 1.363 . S
C1262 C1267 1.379 . S
C1262 N1269 1.356 . S
C1263 C1262 1.363 . S
C1263 C1266 1.363 . S
N1264 C1266 1.356 . S
N1264 H1276 0.984 . S
N1264 H1277 0.985 . S
N1265 C1267 1.356 . S
N1265 H1270 0.984 . S
N1265 H1271 0.985 . S
C1266 C1260 1.379 . S
C1266 C1263 1.363 . S
C1266 N1264 1.356 . S
C1267 C1261 1.363 . S
C1267 C1262 1.379 . S
C1267 N1265 1.356 . S
N1268 C1260 1.356 . S
N1268 H1274 0.984 . S
N1268 H1275 0.984 . S
N1269 C1262 1.356 . S
N1269 H1272 0.984 . S
N1269 H1273 0.985 . S
H1270 N1265 0.984 . S
H1271 N1265 0.985 . S
H1272 N1269 0.984 . S
H1273 N1269 0.985 . S
H1274 N1268 0.984 . S
H1275 N1268 0.984 . S
H1276 N1264 0.984 . S
H1277 N1264 0.985 . S
C1278 C1279 1.363 . S
C1278 C1284 1.379 . S
C1278 N1286 1.356 . S
C1279 C1278 1.363 . S
C1279 C1285 1.363 . S
C1280 C1281 1.363 . S
C1280 C1285 1.379 . S
C1280 N1287 1.356 . S
C1281 C1280 1.363 . S
C1281 C1284 1.363 . S
N1282 C1284 1.356 . S
N1282 H1294 0.984 . S
N1282 H1295 0.985 . S
N1283 C1285 1.356 . S
N1283 H1288 0.984 . S
N1283 H1289 0.985 . S
C1284 C1278 1.379 . S
C1284 C1281 1.363 . S
C1284 N1282 1.356 . S
C1285 C1279 1.363 . S
C1285 C1280 1.379 . S
C1285 N1283 1.356 . S
N1286 C1278 1.356 . S
N1286 H1292 0.984 . S
N1286 H1293 0.984 . S
N1287 C1280 1.356 . S
N1287 H1290 0.984 . S
N1287 H1291 0.985 . S
H1288 N1283 0.984 . S
H1289 N1283 0.985 . S
H1290 N1287 0.984 . S
H1291 N1287 0.985 . S
H1292 N1286 0.984 . S
H1293 N1286 0.984 . S
H1294 N1282 0.984 . S
H1295 N1282 0.985 . S
C1296 C1297 1.363 . S
C1296 C1302 1.379 . S
C1296 N1304 1.356 . S
C1297 C1296 1.363 . S
C1297 C1303 1.363 . S
C1298 C1299 1.363 . S
C1298 C1303 1.379 . S
C1298 N1305 1.356 . S
C1299 C1298 1.363 . S
C1299 C1302 1.363 . S
N1300 C1302 1.356 . S
N1300 H1312 0.984 . S
N1300 H1313 0.985 . S
N1301 C1303 1.356 . S
N1301 H1306 0.984 . S
N1301 H1307 0.985 . S
C1302 C1296 1.379 . S
C1302 C1299 1.363 . S
C1302 N1300 1.356 . S
C1303 C1297 1.363 . S
C1303 C1298 1.379 . S
C1303 N1301 1.356 . S
N1304 C1296 1.356 . S
N1304 H1310 0.984 . S
N1304 H1311 0.984 . S
N1305 C1298 1.356 . S
N1305 H1308 0.984 . S
N1305 H1309 0.985 . S
H1306 N1301 0.984 . S
H1307 N1301 0.985 . S
H1308 N1305 0.984 . S
H1309 N1305 0.985 . S
H1310 N1304 0.984 . S
H1311 N1304 0.984 . S
H1312 N1300 0.984 . S
H1313 N1300 0.985 . S
C1314 C1315 1.363 . S
C1314 C1320 1.379 . S
C1314 N1322 1.356 . S
C1315 C1314 1.363 . S
C1315 C1321 1.363 . S
C1316 C1317 1.363 . S
C1316 C1321 1.379 . S
C1316 N1323 1.356 . S
C1317 C1316 1.363 . S
C1317 C1320 1.363 . S
N1318 C1320 1.356 . S
N1318 H1330 0.984 . S
N1318 H1331 0.985 . S
N1319 C1321 1.356 . S
N1319 H1324 0.984 . S
N1319 H1325 0.985 . S
C1320 C1314 1.379 . S
C1320 C1317 1.363 . S
C1320 N1318 1.356 . S
C1321 C1315 1.363 . S
C1321 C1316 1.379 . S
C1321 N1319 1.356 . S
N1322 C1314 1.356 . S
N1322 H1328 0.984 . S
N1322 H1329 0.984 . S
N1323 C1316 1.356 . S
N1323 H1326 0.984 . S
N1323 H1327 0.985 . S
H1324 N1319 0.984 . S
H1325 N1319 0.985 . S
H1326 N1323 0.984 . S
H1327 N1323 0.985 . S
H1328 N1322 0.984 . S
H1329 N1322 0.984 . S
H1330 N1318 0.984 . S
H1331 N1318 0.985 . S
C1332 C1333 1.363 . S
C1332 C1338 1.379 . S
C1332 N1340 1.356 . S
C1333 C1332 1.363 . S
C1333 C1339 1.363 . S
C1334 C1335 1.363 . S
C1334 C1339 1.379 . S
C1334 N1341 1.356 . S
C1335 C1334 1.363 . S
C1335 C1338 1.363 . S
N1336 C1338 1.356 . S
N1336 H1348 0.984 . S
N1336 H1349 0.985 . S
N1337 C1339 1.356 1_554 S
N1337 H1342 0.984 . S
N1337 H1343 0.985 . S
C1338 C1332 1.379 . S
C1338 C1335 1.363 . S
C1338 N1336 1.356 . S
C1339 C1333 1.363 . S
C1339 C1334 1.379 . S
C1339 N1337 1.356 1_556 S
N1340 C1332 1.356 . S
N1340 H1346 0.984 . S
N1340 H1347 0.984 . S
N1341 C1334 1.356 . S
N1341 H1344 0.984 . S
N1341 H1345 0.985 . S
H1342 N1337 0.984 . S
H1343 N1337 0.985 . S
H1344 N1341 0.984 . S
H1345 N1341 0.985 . S
H1346 N1340 0.984 . S
H1347 N1340 0.984 . S
H1348 N1336 0.984 . S
H1349 N1336 0.985 . S
C1350 C1351 1.363 . S
C1350 C1356 1.379 . S
C1350 N1358 1.356 . S
C1351 C1350 1.363 . S
C1351 C1357 1.363 . S
C1352 C1353 1.363 . S
C1352 C1357 1.379 . S
C1352 N1359 1.356 . S
C1353 C1352 1.363 . S
C1353 C1356 1.363 . S
N1354 C1356 1.356 . S
N1354 H1366 0.984 . S
N1354 H1367 0.985 . S
N1355 C1357 1.356 . S
N1355 H1360 0.984 1_556 S
N1355 H1361 0.985 1_556 S
C1356 C1350 1.379 . S
C1356 C1353 1.363 . S
C1356 N1354 1.356 . S
C1357 C1351 1.363 . S
C1357 C1352 1.379 . S
C1357 N1355 1.356 . S
N1358 C1350 1.356 . S
N1358 H1364 0.984 . S
N1358 H1365 0.984 . S
N1359 C1352 1.356 . S
N1359 H1362 0.984 . S
N1359 H1363 0.985 . S
H1360 N1355 0.984 1_554 S
H1361 N1355 0.985 1_554 S
H1362 N1359 0.984 . S
H1363 N1359 0.985 . S
H1364 N1358 0.984 . S
H1365 N1358 0.984 . S
H1366 N1354 0.984 . S
H1367 N1354 0.985 . S
C1368 C1369 1.363 . S
C1368 C1374 1.379 . S
C1368 N1376 1.356 . S
C1369 C1368 1.363 . S
C1369 C1375 1.363 . S
C1370 C1371 1.363 . S
C1370 C1375 1.379 . S
C1370 N1377 1.356 . S
C1371 C1370 1.363 . S
C1371 C1374 1.363 . S
N1372 C1374 1.356 . S
N1372 H1384 0.984 . S
N1372 H1385 0.985 . S
N1373 C1375 1.356 1_554 S
N1373 H1378 0.984 . S
N1373 H1379 0.985 . S
C1374 C1368 1.379 . S
C1374 C1371 1.363 . S
C1374 N1372 1.356 . S
C1375 C1369 1.363 . S
C1375 C1370 1.379 . S
C1375 N1373 1.356 1_556 S
N1376 C1368 1.356 . S
N1376 H1382 0.984 . S
N1376 H1383 0.984 . S
N1377 C1370 1.356 . S
N1377 H1380 0.984 . S
N1377 H1381 0.985 . S
H1378 N1373 0.984 . S
H1379 N1373 0.985 . S
H1380 N1377 0.984 . S
H1381 N1377 0.985 . S
H1382 N1376 0.984 . S
H1383 N1376 0.984 . S
H1384 N1372 0.984 . S
H1385 N1372 0.985 . S
C1386 C1387 1.363 . S
C1386 C1392 1.379 . S
C1386 N1394 1.356 . S
C1387 C1386 1.363 . S
C1387 C1393 1.363 . S
C1388 C1389 1.363 . S
C1388 C1393 1.379 . S
C1388 N1395 1.356 . S
C1389 C1388 1.363 . S
C1389 C1392 1.363 . S
N1390 C1392 1.356 . S
N1390 H1402 0.984 . S
N1390 H1403 0.985 . S
N1391 C1393 1.356 . S
N1391 H1396 0.984 . S
N1391 H1397 0.985 . S
C1392 C1386 1.379 . S
C1392 C1389 1.363 . S
C1392 N1390 1.356 . S
C1393 C1387 1.363 . S
C1393 C1388 1.379 . S
C1393 N1391 1.356 . S
N1394 C1386 1.356 . S
N1394 H1400 0.984 . S
N1394 H1401 0.984 . S
N1395 C1388 1.356 . S
N1395 H1398 0.984 . S
N1395 H1399 0.985 . S
H1396 N1391 0.984 . S
H1397 N1391 0.985 . S
H1398 N1395 0.984 . S
H1399 N1395 0.985 . S
H1400 N1394 0.984 . S
H1401 N1394 0.984 . S
H1402 N1390 0.984 . S
H1403 N1390 0.985 . S
C1404 C1405 1.363 . S
C1404 C1410 1.379 . S
C1404 N1412 1.356 1_556 S
C1405 C1404 1.363 . S
C1405 C1411 1.363 . S
C1406 C1407 1.363 . S
C1406 C1411 1.379 . S
C1406 N1413 1.356 . S
C1407 C1406 1.363 . S
C1407 C1410 1.363 . S
N1408 C1410 1.356 . S
N1408 H1420 0.984 . S
N1408 H1421 0.985 . S
N1409 C1411 1.356 . S
N1409 H1414 0.984 . S
N1409 H1415 0.985 . S
C1410 C1404 1.379 . S
C1410 C1407 1.363 . S
C1410 N1408 1.356 . S
C1411 C1405 1.363 . S
C1411 C1406 1.379 . S
C1411 N1409 1.356 . S
N1412 C1404 1.356 1_554 S
N1412 H1418 0.984 . S
N1412 H1419 0.984 . S
N1413 C1406 1.356 . S
N1413 H1416 0.984 . S
N1413 H1417 0.985 . S
H1414 N1409 0.984 . S
H1415 N1409 0.985 . S
H1416 N1413 0.984 . S
H1417 N1413 0.985 . S
H1418 N1412 0.984 . S
H1419 N1412 0.984 . S
H1420 N1408 0.984 . S
H1421 N1408 0.985 . S
C1422 C1423 1.363 . S
C1422 C1428 1.379 . S
C1422 N1430 1.356 . S
C1423 C1422 1.363 . S
C1423 C1429 1.363 . S
C1424 C1425 1.363 . S
C1424 C1429 1.379 . S
C1424 N1431 1.356 . S
C1425 C1424 1.363 . S
C1425 C1428 1.363 . S
N1426 C1428 1.356 . S
N1426 H1438 0.984 . S
N1426 H1439 0.985 . S
N1427 C1429 1.356 . S
N1427 H1432 0.984 . S
N1427 H1433 0.985 . S
C1428 C1422 1.379 . S
C1428 C1425 1.363 . S
C1428 N1426 1.356 . S
C1429 C1423 1.363 . S
C1429 C1424 1.379 . S
C1429 N1427 1.356 . S
N1430 C1422 1.356 . S
N1430 H1436 0.984 . S
N1430 H1437 0.984 . S
N1431 C1424 1.356 . S
N1431 H1434 0.984 . S
N1431 H1435 0.985 . S
H1432 N1427 0.984 . S
H1433 N1427 0.985 . S
H1434 N1431 0.984 . S
H1435 N1431 0.985 . S
H1436 N1430 0.984 . S
H1437 N1430 0.984 . S
H1438 N1426 0.984 . S
H1439 N1426 0.985 . S
C1440 C1441 1.363 . S
C1440 C1446 1.379 . S
C1440 N1448 1.356 . S
C1441 C1440 1.363 . S
C1441 C1447 1.363 . S
C1442 C1443 1.363 . S
C1442 C1447 1.379 . S
C1442 N1449 1.356 . S
C1443 C1442 1.363 . S
C1443 C1446 1.363 . S
N1444 C1446 1.356 . S
N1444 H1456 0.984 . S
N1444 H1457 0.985 . S
N1445 C1447 1.356 . S
N1445 H1450 0.984 . S
N1445 H1451 0.985 . S
C1446 C1440 1.379 . S
C1446 C1443 1.363 . S
C1446 N1444 1.356 . S
C1447 C1441 1.363 . S
C1447 C1442 1.379 . S
C1447 N1445 1.356 . S
N1448 C1440 1.356 . S
N1448 H1454 0.984 . S
N1448 H1455 0.984 . S
N1449 C1442 1.356 . S
N1449 H1452 0.984 . S
N1449 H1453 0.985 . S
H1450 N1445 0.984 . S
H1451 N1445 0.985 . S
H1452 N1449 0.984 . S
H1453 N1449 0.985 . S
H1454 N1448 0.984 . S
H1455 N1448 0.984 . S
H1456 N1444 0.984 . S
H1457 N1444 0.985 . S
C1458 C1459 1.363 . S
C1458 C1464 1.379 . S
C1458 N1466 1.356 . S
C1459 C1458 1.363 . S
C1459 C1465 1.363 . S
C1460 C1461 1.363 . S
C1460 C1465 1.379 . S
C1460 N1467 1.356 . S
C1461 C1460 1.363 . S
C1461 C1464 1.363 . S
N1462 C1464 1.356 . S
N1462 H1474 0.984 . S
N1462 H1475 0.985 . S
N1463 C1465 1.356 . S
N1463 H1468 0.984 . S
N1463 H1469 0.985 . S
C1464 C1458 1.379 . S
C1464 C1461 1.363 . S
C1464 N1462 1.356 . S
C1465 C1459 1.363 . S
C1465 C1460 1.379 . S
C1465 N1463 1.356 . S
N1466 C1458 1.356 . S
N1466 H1472 0.984 . S
N1466 H1473 0.984 . S
N1467 C1460 1.356 . S
N1467 H1470 0.984 . S
N1467 H1471 0.985 . S
H1468 N1463 0.984 . S
H1469 N1463 0.985 . S
H1470 N1467 0.984 . S
H1471 N1467 0.985 . S
H1472 N1466 0.984 . S
H1473 N1466 0.984 . S
H1474 N1462 0.984 . S
H1475 N1462 0.985 . S
C1476 C1477 1.363 . S
C1476 C1482 1.379 . S
C1476 N1484 1.356 . S
C1477 C1476 1.363 . S
C1477 C1483 1.363 . S
C1478 C1479 1.363 . S
C1478 C1483 1.379 . S
C1478 N1485 1.356 . S
C1479 C1478 1.363 . S
C1479 C1482 1.363 . S
N1480 C1482 1.356 . S
N1480 H1492 0.984 . S
N1480 H1493 0.985 . S
N1481 C1483 1.356 . S
N1481 H1486 0.984 . S
N1481 H1487 0.985 . S
C1482 C1476 1.379 . S
C1482 C1479 1.363 . S
C1482 N1480 1.356 . S
C1483 C1477 1.363 . S
C1483 C1478 1.379 . S
C1483 N1481 1.356 . S
N1484 C1476 1.356 . S
N1484 H1490 0.984 . S
N1484 H1491 0.984 . S
N1485 C1478 1.356 . S
N1485 H1488 0.984 . S
N1485 H1489 0.985 . S
H1486 N1481 0.984 . S
H1487 N1481 0.985 . S
H1488 N1485 0.984 . S
H1489 N1485 0.985 . S
H1490 N1484 0.984 . S
H1491 N1484 0.984 . S
H1492 N1480 0.984 . S
H1493 N1480 0.985 . S
C1494 C1495 1.363 . S
C1494 C1500 1.379 . S
C1494 N1502 1.356 . S
C1495 C1494 1.363 . S
C1495 C1501 1.363 . S
C1496 C1497 1.363 . S
C1496 C1501 1.379 . S
C1496 N1503 1.356 . S
C1497 C1496 1.363 . S
C1497 C1500 1.363 . S
N1498 C1500 1.356 . S
N1498 H1510 0.984 . S
N1498 H1511 0.985 . S
N1499 C1501 1.356 . S
N1499 H1504 0.984 . S
N1499 H1505 0.985 . S
C1500 C1494 1.379 . S
C1500 C1497 1.363 . S
C1500 N1498 1.356 . S
C1501 C1495 1.363 . S
C1501 C1496 1.379 . S
C1501 N1499 1.356 . S
N1502 C1494 1.356 . S
N1502 H1508 0.984 . S
N1502 H1509 0.984 . S
N1503 C1496 1.356 . S
N1503 H1506 0.984 . S
N1503 H1507 0.985 . S
H1504 N1499 0.984 . S
H1505 N1499 0.985 . S
H1506 N1503 0.984 . S
H1507 N1503 0.985 . S
H1508 N1502 0.984 . S
H1509 N1502 0.984 . S
H1510 N1498 0.984 . S
H1511 N1498 0.985 . S
C1512 C1513 1.363 . S
C1512 C1518 1.379 . S
C1512 N1520 1.356 . S
C1513 C1512 1.363 . S
C1513 C1519 1.363 . S
C1514 C1515 1.363 . S
C1514 C1519 1.379 . S
C1514 N1521 1.356 . S
C1515 C1514 1.363 . S
C1515 C1518 1.363 . S
N1516 C1518 1.356 . S
N1516 H1528 0.984 . S
N1516 H1529 0.985 . S
N1517 C1519 1.356 . S
N1517 H1522 0.984 . S
N1517 H1523 0.985 . S
C1518 C1512 1.379 . S
C1518 C1515 1.363 . S
C1518 N1516 1.356 . S
C1519 C1513 1.363 . S
C1519 C1514 1.379 . S
C1519 N1517 1.356 . S
N1520 C1512 1.356 . S
N1520 H1526 0.984 . S
N1520 H1527 0.984 . S
N1521 C1514 1.356 . S
N1521 H1524 0.984 . S
N1521 H1525 0.985 . S
H1522 N1517 0.984 . S
H1523 N1517 0.985 . S
H1524 N1521 0.984 . S
H1525 N1521 0.985 . S
H1526 N1520 0.984 . S
H1527 N1520 0.984 . S
H1528 N1516 0.984 . S
H1529 N1516 0.985 . S
C1530 C1531 1.363 . S
C1530 C1536 1.379 . S
C1530 N1538 1.356 . S
C1531 C1530 1.363 . S
C1531 C1537 1.363 . S
C1532 C1533 1.363 . S
C1532 C1537 1.379 . S
C1532 N1539 1.356 . S
C1533 C1532 1.363 . S
C1533 C1536 1.363 . S
N1534 C1536 1.356 . S
N1534 H1546 0.984 . S
N1534 H1547 0.985 . S
N1535 C1537 1.356 . S
N1535 H1540 0.984 . S
N1535 H1541 0.985 . S
C1536 C1530 1.379 . S
C1536 C1533 1.363 . S
C1536 N1534 1.356 . S
C1537 C1531 1.363 . S
C1537 C1532 1.379 . S
C1537 N1535 1.356 . S
N1538 C1530 1.356 . S
N1538 H1544 0.984 . S
N1538 H1545 0.984 . S
N1539 C1532 1.356 . S
N1539 H1542 0.984 . S
N1539 H1543 0.985 . S
H1540 N1535 0.984 . S
H1541 N1535 0.985 . S
H1542 N1539 0.984 . S
H1543 N1539 0.985 . S
H1544 N1538 0.984 . S
H1545 N1538 0.984 . S
H1546 N1534 0.984 . S
H1547 N1534 0.985 . S
C1548 C1549 1.363 . S
C1548 C1554 1.379 . S
C1548 N1556 1.356 . S
C1549 C1548 1.363 . S
C1549 C1555 1.363 . S
C1550 C1551 1.363 . S
C1550 C1555 1.379 . S
C1550 N1557 1.356 . S
C1551 C1550 1.363 . S
C1551 C1554 1.363 . S
N1552 C1554 1.356 . S
N1552 H1564 0.984 . S
N1552 H1565 0.985 . S
N1553 C1555 1.356 . S
N1553 H1558 0.984 . S
N1553 H1559 0.985 . S
C1554 C1548 1.379 . S
C1554 C1551 1.363 . S
C1554 N1552 1.356 . S
C1555 C1549 1.363 . S
C1555 C1550 1.379 . S
C1555 N1553 1.356 . S
N1556 C1548 1.356 . S
N1556 H1562 0.984 . S
N1556 H1563 0.984 . S
N1557 C1550 1.356 . S
N1557 H1560 0.984 . S
N1557 H1561 0.985 . S
H1558 N1553 0.984 . S
H1559 N1553 0.985 . S
H1560 N1557 0.984 . S
H1561 N1557 0.985 . S
H1562 N1556 0.984 . S
H1563 N1556 0.984 . S
H1564 N1552 0.984 . S
H1565 N1552 0.985 . S
C1566 C1567 1.363 . S
C1566 C1572 1.379 . S
C1566 N1574 1.356 . S
C1567 C1566 1.363 . S
C1567 C1573 1.363 . S
C1568 C1569 1.363 . S
C1568 C1573 1.379 . S
C1568 N1575 1.356 . S
C1569 C1568 1.363 . S
C1569 C1572 1.363 . S
N1570 C1572 1.356 . S
N1570 H1582 0.984 . S
N1570 H1583 0.985 . S
N1571 C1573 1.356 . S
N1571 H1576 0.984 . S
N1571 H1577 0.985 . S
C1572 C1566 1.379 . S
C1572 C1569 1.363 . S
C1572 N1570 1.356 . S
C1573 C1567 1.363 . S
C1573 C1568 1.379 . S
C1573 N1571 1.356 . S
N1574 C1566 1.356 . S
N1574 H1580 0.984 . S
N1574 H1581 0.984 . S
N1575 C1568 1.356 . S
N1575 H1578 0.984 . S
N1575 H1579 0.985 . S
H1576 N1571 0.984 . S
H1577 N1571 0.985 . S
H1578 N1575 0.984 . S
H1579 N1575 0.985 . S
H1580 N1574 0.984 . S
H1581 N1574 0.984 . S
H1582 N1570 0.984 . S
H1583 N1570 0.985 . S
C1584 C1585 1.363 . S
C1584 C1590 1.379 . S
C1584 N1592 1.356 . S
C1585 C1584 1.363 . S
C1585 C1591 1.363 1_565 S
C1586 C1587 1.363 1_545 S
C1586 C1591 1.379 . S
C1586 N1593 1.356 . S
C1587 C1586 1.363 1_565 S
C1587 C1590 1.363 . S
N1588 C1590 1.356 . S
N1588 H1600 0.984 . S
N1588 H1601 0.985 . S
N1589 C1591 1.356 . S
N1589 H1594 0.984 . S
N1589 H1595 0.985 . S
C1590 C1584 1.379 . S
C1590 C1587 1.363 . S
C1590 N1588 1.356 . S
C1591 C1585 1.363 1_545 S
C1591 C1586 1.379 . S
C1591 N1589 1.356 . S
N1592 C1584 1.356 . S
N1592 H1598 0.984 . S
N1592 H1599 0.984 . S
N1593 C1586 1.356 . S
N1593 H1596 0.984 . S
N1593 H1597 0.985 . S
H1594 N1589 0.984 . S
H1595 N1589 0.985 . S
H1596 N1593 0.984 . S
H1597 N1593 0.985 . S
H1598 N1592 0.984 . S
H1599 N1592 0.984 . S
H1600 N1588 0.984 . S
H1601 N1588 0.985 . S
C1602 C1603 1.363 1_545 S
C1602 C1608 1.379 . S
C1602 N1610 1.356 . S
C1603 C1602 1.363 1_565 S
C1603 C1609 1.363 . S
C1604 C1605 1.363 . S
C1604 C1609 1.379 . S
C1604 N1611 1.356 . S
C1605 C1604 1.363 . S
C1605 C1608 1.363 1_565 S
N1606 C1608 1.356 . S
N1606 H1618 0.984 . S
N1606 H1619 0.985 . S
N1607 C1609 1.356 . S
N1607 H1612 0.984 . S
N1607 H1613 0.985 . S
C1608 C1602 1.379 . S
C1608 C1605 1.363 1_545 S
C1608 N1606 1.356 . S
C1609 C1603 1.363 . S
C1609 C1604 1.379 . S
C1609 N1607 1.356 . S
N1610 C1602 1.356 . S
N1610 H1616 0.984 . S
N1610 H1617 0.984 . S
N1611 C1604 1.356 . S
N1611 H1614 0.984 . S
N1611 H1615 0.985 . S
H1612 N1607 0.984 . S
H1613 N1607 0.985 . S
H1614 N1611 0.984 . S
H1615 N1611 0.985 . S
H1616 N1610 0.984 . S
H1617 N1610 0.984 . S
H1618 N1606 0.984 . S
H1619 N1606 0.985 . S
C1620 C1621 1.363 . S
C1620 C1626 1.379 . S
C1620 N1628 1.356 . S
C1621 C1620 1.363 . S
C1621 C1627 1.363 1_455 S
C1622 C1623 1.363 1_655 S
C1622 C1627 1.379 . S
C1622 N1629 1.356 . S
C1623 C1622 1.363 1_455 S
C1623 C1626 1.363 . S
N1624 C1626 1.356 . S
N1624 H1636 0.984 . S
N1624 H1637 0.985 . S
N1625 C1627 1.356 . S
N1625 H1630 0.984 . S
N1625 H1631 0.985 . S
C1626 C1620 1.379 . S
C1626 C1623 1.363 . S
C1626 N1624 1.356 . S
C1627 C1621 1.363 1_655 S
C1627 C1622 1.379 . S
C1627 N1625 1.356 . S
N1628 C1620 1.356 . S
N1628 H1634 0.984 . S
N1628 H1635 0.984 . S
N1629 C1622 1.356 . S
N1629 H1632 0.984 . S
N1629 H1633 0.985 . S
H1630 N1625 0.984 . S
H1631 N1625 0.985 . S
H1632 N1629 0.984 . S
H1633 N1629 0.985 . S
H1634 N1628 0.984 . S
H1635 N1628 0.984 . S
H1636 N1624 0.984 . S
H1637 N1624 0.985 . S
C1638 C1639 1.363 . S
C1638 C1644 1.379 . S
C1638 N1646 1.356 . S
C1639 C1638 1.363 . S
C1639 C1645 1.363 . S
C1640 C1641 1.363 . S
C1640 C1645 1.379 . S
C1640 N1647 1.356 . S
C1641 C1640 1.363 . S
C1641 C1644 1.363 . S
N1642 C1644 1.356 . S
N1642 H1654 0.984 . S
N1642 H1655 0.985 . S
N1643 C1645 1.356 . S
N1643 H1648 0.984 . S
N1643 H1649 0.985 . S
C1644 C1638 1.379 . S
C1644 C1641 1.363 . S
C1644 N1642 1.356 . S
C1645 C1639 1.363 . S
C1645 C1640 1.379 . S
C1645 N1643 1.356 . S
N1646 C1638 1.356 . S
N1646 H1652 0.984 . S
N1646 H1653 0.984 . S
N1647 C1640 1.356 . S
N1647 H1650 0.984 . S
N1647 H1651 0.985 . S
H1648 N1643 0.984 . S
H1649 N1643 0.985 . S
H1650 N1647 0.984 . S
H1651 N1647 0.985 . S
H1652 N1646 0.984 . S
H1653 N1646 0.984 . S
H1654 N1642 0.984 . S
H1655 N1642 0.985 . S
C1656 C1657 1.363 . S
C1656 C1662 1.379 . S
C1656 N1664 1.356 . S
C1657 C1656 1.363 . S
C1657 C1663 1.363 . S
C1658 C1659 1.363 . S
C1658 C1663 1.379 . S
C1658 N1665 1.356 . S
C1659 C1658 1.363 . S
C1659 C1662 1.363 . S
N1660 C1662 1.356 . S
N1660 H1672 0.984 . S
N1660 H1673 0.985 . S
N1661 C1663 1.356 . S
N1661 H1666 0.984 . S
N1661 H1667 0.985 . S
C1662 C1656 1.379 . S
C1662 C1659 1.363 . S
C1662 N1660 1.356 . S
C1663 C1657 1.363 . S
C1663 C1658 1.379 . S
C1663 N1661 1.356 . S
N1664 C1656 1.356 . S
N1664 H1670 0.984 . S
N1664 H1671 0.984 . S
N1665 C1658 1.356 . S
N1665 H1668 0.984 . S
N1665 H1669 0.985 . S
H1666 N1661 0.984 . S
H1667 N1661 0.985 . S
H1668 N1665 0.984 . S
H1669 N1665 0.985 . S
H1670 N1664 0.984 . S
H1671 N1664 0.984 . S
H1672 N1660 0.984 . S
H1673 N1660 0.985 . S
C1674 C1675 1.363 . S
C1674 C1680 1.379 . S
C1674 N1682 1.356 . S
C1675 C1674 1.363 . S
C1675 C1681 1.363 . S
C1676 C1677 1.363 . S
C1676 C1681 1.379 . S
C1676 N1683 1.356 . S
C1677 C1676 1.363 . S
C1677 C1680 1.363 . S
N1678 C1680 1.356 . S
N1678 H1690 0.984 . S
N1678 H1691 0.985 . S
N1679 C1681 1.356 . S
N1679 H1684 0.984 . S
N1679 H1685 0.985 . S
C1680 C1674 1.379 . S
C1680 C1677 1.363 . S
C1680 N1678 1.356 . S
C1681 C1675 1.363 . S
C1681 C1676 1.379 . S
C1681 N1679 1.356 . S
N1682 C1674 1.356 . S
N1682 H1688 0.984 . S
N1682 H1689 0.984 . S
N1683 C1676 1.356 . S
N1683 H1686 0.984 . S
N1683 H1687 0.985 . S
H1684 N1679 0.984 . S
H1685 N1679 0.985 . S
H1686 N1683 0.984 . S
H1687 N1683 0.985 . S
H1688 N1682 0.984 . S
H1689 N1682 0.984 . S
H1690 N1678 0.984 . S
H1691 N1678 0.985 . S
C1692 C1693 1.363 . S
C1692 C1698 1.379 . S
C1692 N1700 1.356 . S
C1693 C1692 1.363 . S
C1693 C1699 1.363 . S
C1694 C1695 1.363 . S
C1694 C1699 1.379 . S
C1694 N1701 1.356 . S
C1695 C1694 1.363 . S
C1695 C1698 1.363 . S
N1696 C1698 1.356 . S
N1696 H1708 0.984 . S
N1696 H1709 0.985 . S
N1697 C1699 1.356 . S
N1697 H1702 0.984 . S
N1697 H1703 0.985 . S
C1698 C1692 1.379 . S
C1698 C1695 1.363 . S
C1698 N1696 1.356 . S
C1699 C1693 1.363 . S
C1699 C1694 1.379 . S
C1699 N1697 1.356 . S
N1700 C1692 1.356 . S
N1700 H1706 0.984 . S
N1700 H1707 0.984 . S
N1701 C1694 1.356 . S
N1701 H1704 0.984 . S
N1701 H1705 0.985 . S
H1702 N1697 0.984 . S
H1703 N1697 0.985 . S
H1704 N1701 0.984 . S
H1705 N1701 0.985 . S
H1706 N1700 0.984 . S
H1707 N1700 0.984 . S
H1708 N1696 0.984 . S
H1709 N1696 0.985 . S
C1710 C1711 1.363 . S
C1710 C1716 1.379 . S
C1710 N1718 1.356 . S
C1711 C1710 1.363 . S
C1711 C1717 1.363 1_545 S
C1712 C1713 1.363 1_565 S
C1712 C1717 1.379 . S
C1712 N1719 1.356 . S
C1713 C1712 1.363 1_545 S
C1713 C1716 1.363 . S
N1714 C1716 1.356 . S
N1714 H1726 0.984 . S
N1714 H1727 0.985 . S
N1715 C1717 1.356 . S
N1715 H1720 0.984 . S
N1715 H1721 0.985 . S
C1716 C1710 1.379 . S
C1716 C1713 1.363 . S
C1716 N1714 1.356 . S
C1717 C1711 1.363 1_565 S
C1717 C1712 1.379 . S
C1717 N1715 1.356 . S
N1718 C1710 1.356 . S
N1718 H1724 0.984 . S
N1718 H1725 0.984 . S
N1719 C1712 1.356 . S
N1719 H1722 0.984 . S
N1719 H1723 0.985 . S
H1720 N1715 0.984 . S
H1721 N1715 0.985 . S
H1722 N1719 0.984 . S
H1723 N1719 0.985 . S
H1724 N1718 0.984 . S
H1725 N1718 0.984 . S
H1726 N1714 0.984 . S
H1727 N1714 0.985 . S
C1728 C1729 1.363 . S
C1728 C1734 1.379 . S
C1728 N1736 1.356 . S
C1729 C1728 1.363 . S
C1729 C1735 1.363 1_655 S
C1730 C1731 1.363 1_455 S
C1730 C1735 1.379 . S
C1730 N1737 1.356 . S
C1731 C1730 1.363 1_655 S
C1731 C1734 1.363 . S
N1732 C1734 1.356 . S
N1732 H1744 0.984 . S
N1732 H1745 0.985 . S
N1733 C1735 1.356 . S
N1733 H1738 0.984 . S
N1733 H1739 0.985 . S
C1734 C1728 1.379 . S
C1734 C1731 1.363 . S
C1734 N1732 1.356 . S
C1735 C1729 1.363 1_455 S
C1735 C1730 1.379 . S
C1735 N1733 1.356 . S
N1736 C1728 1.356 . S
N1736 H1742 0.984 . S
N1736 H1743 0.984 . S
N1737 C1730 1.356 . S
N1737 H1740 0.984 . S
N1737 H1741 0.985 . S
H1738 N1733 0.984 . S
H1739 N1733 0.985 . S
H1740 N1737 0.984 . S
H1741 N1737 0.985 . S
H1742 N1736 0.984 . S
H1743 N1736 0.984 . S
H1744 N1732 0.984 . S
H1745 N1732 0.985 . S
C1746 C1747 1.363 . S
C1746 C1752 1.379 . S
C1746 N1754 1.356 . S
C1747 C1746 1.363 . S
C1747 C1753 1.363 . S
C1748 C1749 1.363 . S
C1748 C1753 1.379 . S
C1748 N1755 1.356 . S
C1749 C1748 1.363 . S
C1749 C1752 1.363 . S
N1750 C1752 1.356 . S
N1750 H1762 0.984 . S
N1750 H1763 0.985 . S
N1751 C1753 1.356 . S
N1751 H1756 0.984 . S
N1751 H1757 0.985 . S
C1752 C1746 1.379 . S
C1752 C1749 1.363 . S
C1752 N1750 1.356 . S
C1753 C1747 1.363 . S
C1753 C1748 1.379 . S
C1753 N1751 1.356 . S
N1754 C1746 1.356 . S
N1754 H1760 0.984 . S
N1754 H1761 0.984 . S
N1755 C1748 1.356 . S
N1755 H1758 0.984 . S
N1755 H1759 0.985 . S
H1756 N1751 0.984 . S
H1757 N1751 0.985 . S
H1758 N1755 0.984 . S
H1759 N1755 0.985 . S
H1760 N1754 0.984 . S
H1761 N1754 0.984 . S
H1762 N1750 0.984 . S
H1763 N1750 0.985 . S
C1764 C1765 1.363 . S
C1764 C1770 1.379 . S
C1764 N1772 1.356 . S
C1765 C1764 1.363 . S
C1765 C1771 1.363 . S
C1766 C1767 1.363 . S
C1766 C1771 1.379 . S
C1766 N1773 1.356 . S
C1767 C1766 1.363 . S
C1767 C1770 1.363 . S
N1768 C1770 1.356 . S
N1768 H1780 0.984 . S
N1768 H1781 0.985 . S
N1769 C1771 1.356 . S
N1769 H1774 0.984 . S
N1769 H1775 0.985 . S
C1770 C1764 1.379 . S
C1770 C1767 1.363 . S
C1770 N1768 1.356 . S
C1771 C1765 1.363 . S
C1771 C1766 1.379 . S
C1771 N1769 1.356 . S
N1772 C1764 1.356 . S
N1772 H1778 0.984 . S
N1772 H1779 0.984 . S
N1773 C1766 1.356 . S
N1773 H1776 0.984 . S
N1773 H1777 0.985 . S
H1774 N1769 0.984 . S
H1775 N1769 0.985 . S
H1776 N1773 0.984 . S
H1777 N1773 0.985 . S
H1778 N1772 0.984 . S
H1779 N1772 0.984 . S
H1780 N1768 0.984 . S
H1781 N1768 0.985 . S
C1782 C1783 1.363 . S
C1782 C1788 1.379 . S
C1782 N1790 1.356 . S
C1783 C1782 1.363 . S
C1783 C1789 1.363 . S
C1784 C1785 1.363 . S
C1784 C1789 1.379 . S
C1784 N1791 1.356 . S
C1785 C1784 1.363 . S
C1785 C1788 1.363 . S
N1786 C1788 1.356 . S
N1786 H1798 0.984 . S
N1786 H1799 0.985 . S
N1787 C1789 1.356 . S
N1787 H1792 0.984 . S
N1787 H1793 0.985 . S
C1788 C1782 1.379 . S
C1788 C1785 1.363 . S
C1788 N1786 1.356 . S
C1789 C1783 1.363 . S
C1789 C1784 1.379 . S
C1789 N1787 1.356 . S
N1790 C1782 1.356 . S
N1790 H1796 0.984 . S
N1790 H1797 0.984 . S
N1791 C1784 1.356 . S
N1791 H1794 0.984 . S
N1791 H1795 0.985 . S
H1792 N1787 0.984 . S
H1793 N1787 0.985 . S
H1794 N1791 0.984 . S
H1795 N1791 0.985 . S
H1796 N1790 0.984 . S
H1797 N1790 0.984 . S
H1798 N1786 0.984 . S
H1799 N1786 0.985 . S
C1800 C1801 1.363 . S
C1800 C1806 1.379 . S
C1800 N1808 1.356 . S
C1801 C1800 1.363 . S
C1801 C1807 1.363 . S
C1802 C1803 1.363 . S
C1802 C1807 1.379 . S
C1802 N1809 1.356 . S
C1803 C1802 1.363 . S
C1803 C1806 1.363 . S
N1804 C1806 1.356 . S
N1804 H1816 0.984 . S
N1804 H1817 0.985 . S
N1805 C1807 1.356 . S
N1805 H1810 0.984 . S
N1805 H1811 0.985 . S
C1806 C1800 1.379 . S
C1806 C1803 1.363 . S
C1806 N1804 1.356 . S
C1807 C1801 1.363 . S
C1807 C1802 1.379 . S
C1807 N1805 1.356 . S
N1808 C1800 1.356 . S
N1808 H1814 0.984 . S
N1808 H1815 0.984 . S
N1809 C1802 1.356 . S
N1809 H1812 0.984 . S
N1809 H1813 0.985 . S
H1810 N1805 0.984 . S
H1811 N1805 0.985 . S
H1812 N1809 0.984 . S
H1813 N1809 0.985 . S
H1814 N1808 0.984 . S
H1815 N1808 0.984 . S
H1816 N1804 0.984 . S
H1817 N1804 0.985 . S
C1818 C1819 1.363 . S
C1818 C1824 1.379 . S
C1818 N1826 1.356 . S
C1819 C1818 1.363 . S
C1819 C1825 1.363 . S
C1820 C1821 1.363 . S
C1820 C1825 1.379 . S
C1820 N1827 1.356 . S
C1821 C1820 1.363 . S
C1821 C1824 1.363 . S
N1822 C1824 1.356 . S
N1822 H1834 0.984 . S
N1822 H1835 0.985 . S
N1823 C1825 1.356 . S
N1823 H1828 0.984 . S
N1823 H1829 0.985 . S
C1824 C1818 1.379 . S
C1824 C1821 1.363 . S
C1824 N1822 1.356 . S
C1825 C1819 1.363 . S
C1825 C1820 1.379 . S
C1825 N1823 1.356 . S
N1826 C1818 1.356 . S
N1826 H1832 0.984 . S
N1826 H1833 0.984 . S
N1827 C1820 1.356 . S
N1827 H1830 0.984 . S
N1827 H1831 0.985 . S
H1828 N1823 0.984 . S
H1829 N1823 0.985 . S
H1830 N1827 0.984 . S
H1831 N1827 0.985 . S
H1832 N1826 0.984 . S
H1833 N1826 0.984 . S
H1834 N1822 0.984 . S
H1835 N1822 0.985 . S
C1836 C1837 1.363 . S
C1836 C1842 1.379 . S
C1836 N1844 1.356 . S
C1837 C1836 1.363 . S
C1837 C1843 1.363 . S
C1838 C1839 1.363 . S
C1838 C1843 1.379 . S
C1838 N1845 1.356 . S
C1839 C1838 1.363 . S
C1839 C1842 1.363 . S
N1840 C1842 1.356 . S
N1840 H1852 0.984 . S
N1840 H1853 0.985 . S
N1841 C1843 1.356 . S
N1841 H1846 0.984 . S
N1841 H1847 0.985 . S
C1842 C1836 1.379 . S
C1842 C1839 1.363 . S
C1842 N1840 1.356 . S
C1843 C1837 1.363 . S
C1843 C1838 1.379 . S
C1843 N1841 1.356 . S
N1844 C1836 1.356 . S
N1844 H1850 0.984 . S
N1844 H1851 0.984 . S
N1845 C1838 1.356 . S
N1845 H1848 0.984 . S
N1845 H1849 0.985 . S
H1846 N1841 0.984 . S
H1847 N1841 0.985 . S
H1848 N1845 0.984 . S
H1849 N1845 0.985 . S
H1850 N1844 0.984 . S
H1851 N1844 0.984 . S
H1852 N1840 0.984 . S
H1853 N1840 0.985 . S
C1854 C1855 1.363 . S
C1854 C1860 1.379 . S
C1854 N1862 1.356 . S
C1855 C1854 1.363 . S
C1855 C1861 1.363 . S
C1856 C1857 1.363 . S
C1856 C1861 1.379 . S
C1856 N1863 1.356 . S
C1857 C1856 1.363 . S
C1857 C1860 1.363 . S
N1858 C1860 1.356 . S
N1858 H1870 0.984 . S
N1858 H1871 0.985 . S
N1859 C1861 1.356 . S
N1859 H1864 0.984 . S
N1859 H1865 0.985 . S
C1860 C1854 1.379 . S
C1860 C1857 1.363 . S
C1860 N1858 1.356 . S
C1861 C1855 1.363 . S
C1861 C1856 1.379 . S
C1861 N1859 1.356 . S
N1862 C1854 1.356 . S
N1862 H1868 0.984 . S
N1862 H1869 0.984 . S
N1863 C1856 1.356 . S
N1863 H1866 0.984 . S
N1863 H1867 0.985 . S
H1864 N1859 0.984 . S
H1865 N1859 0.985 . S
H1866 N1863 0.984 . S
H1867 N1863 0.985 . S
H1868 N1862 0.984 . S
H1869 N1862 0.984 . S
H1870 N1858 0.984 . S
H1871 N1858 0.985 . S
C1872 C1873 1.363 . S
C1872 C1878 1.379 . S
C1872 N1880 1.356 . S
C1873 C1872 1.363 . S
C1873 C1879 1.363 1_655 S
C1874 C1875 1.363 1_455 S
C1874 C1879 1.379 . S
C1874 N1881 1.356 . S
C1875 C1874 1.363 1_655 S
C1875 C1878 1.363 . S
N1876 C1878 1.356 . S
N1876 H1888 0.984 . S
N1876 H1889 0.985 . S
N1877 C1879 1.356 . S
N1877 H1882 0.984 . S
N1877 H1883 0.985 . S
C1878 C1872 1.379 . S
C1878 C1875 1.363 . S
C1878 N1876 1.356 . S
C1879 C1873 1.363 1_455 S
C1879 C1874 1.379 . S
C1879 N1877 1.356 . S
N1880 C1872 1.356 . S
N1880 H1886 0.984 . S
N1880 H1887 0.984 . S
N1881 C1874 1.356 . S
N1881 H1884 0.984 . S
N1881 H1885 0.985 . S
H1882 N1877 0.984 . S
H1883 N1877 0.985 . S
H1884 N1881 0.984 . S
H1885 N1881 0.985 . S
H1886 N1880 0.984 . S
H1887 N1880 0.984 . S
H1888 N1876 0.984 . S
H1889 N1876 0.985 . S
C1890 C1891 1.363 . S
C1890 C1896 1.379 . S
C1890 N1898 1.356 . S
C1891 C1890 1.363 . S
C1891 C1897 1.363 . S
C1892 C1893 1.363 . S
C1892 C1897 1.379 . S
C1892 N1899 1.356 . S
C1893 C1892 1.363 . S
C1893 C1896 1.363 . S
N1894 C1896 1.356 . S
N1894 H1906 0.984 . S
N1894 H1907 0.985 . S
N1895 C1897 1.356 . S
N1895 H1900 0.984 . S
N1895 H1901 0.985 . S
C1896 C1890 1.379 . S
C1896 C1893 1.363 . S
C1896 N1894 1.356 . S
C1897 C1891 1.363 . S
C1897 C1892 1.379 . S
C1897 N1895 1.356 . S
N1898 C1890 1.356 . S
N1898 H1904 0.984 . S
N1898 H1905 0.984 . S
N1899 C1892 1.356 . S
N1899 H1902 0.984 . S
N1899 H1903 0.985 . S
H1900 N1895 0.984 . S
H1901 N1895 0.985 . S
H1902 N1899 0.984 . S
H1903 N1899 0.985 . S
H1904 N1898 0.984 . S
H1905 N1898 0.984 . S
H1906 N1894 0.984 . S
H1907 N1894 0.985 . S
C1908 C1909 1.363 1_565 S
C1908 C1914 1.379 . S
C1908 N1916 1.356 . S
C1909 C1908 1.363 1_545 S
C1909 C1915 1.363 . S
C1910 C1911 1.363 . S
C1910 C1915 1.379 . S
C1910 N1917 1.356 . S
C1911 C1910 1.363 . S
C1911 C1914 1.363 1_545 S
N1912 C1914 1.356 . S
N1912 H1924 0.984 . S
N1912 H1925 0.985 . S
N1913 C1915 1.356 . S
N1913 H1918 0.984 . S
N1913 H1919 0.985 . S
C1914 C1908 1.379 . S
C1914 C1911 1.363 1_565 S
C1914 N1912 1.356 . S
C1915 C1909 1.363 . S
C1915 C1910 1.379 . S
C1915 N1913 1.356 . S
N1916 C1908 1.356 . S
N1916 H1922 0.984 . S
N1916 H1923 0.984 . S
N1917 C1910 1.356 . S
N1917 H1920 0.984 . S
N1917 H1921 0.985 . S
H1918 N1913 0.984 . S
H1919 N1913 0.985 . S
H1920 N1917 0.984 . S
H1921 N1917 0.985 . S
H1922 N1916 0.984 . S
H1923 N1916 0.984 . S
H1924 N1912 0.984 . S
H1925 N1912 0.985 . S
C631 C8 1.554 . S
C633 C458 1.480 1_655 S
C649 C22 1.545 . S
C651 C471 1.514 . S
C669 C500 1.454 1_545 S
C667 C37 1.551 1_545 S
C685 C36 1.538 . S
C687 C513 1.508 . S
C703 C9 1.555 1_455 S
C705 C534 1.519 . S
C721 C23 1.546 . S
C723 C563 1.474 . S
C739 C50 1.544 . S
C741 C542 1.509 . S
C759 C555 1.483 . S
C757 C64 1.529 . S
C777 C521 1.486 1_545 S
C775 C79 1.526 . S
C793 C78 1.524 1_545 S
C795 C492 1.484 1_545 S
C813 C450 1.487 . S
C811 C51 1.533 . S
C829 C65 1.530 . S
C831 C479 1.490 . S
C847 C92 1.554 . S
C849 C584 1.480 . S
C865 C106 1.545 . S
C867 C597 1.514 . S
C885 C626 1.471 . S
C883 C121 1.542 . S
C901 C120 1.538 . S
C903 C261 1.508 . S
C919 C93 1.549 . S
C921 C282 1.518 . S
C937 C107 1.546 . S
C939 C311 1.474 . S
C955 C134 1.538 . S
C957 C290 1.497 . S
C973 C148 1.529 . S
C975 C303 1.483 . S
C993 C269 1.486 . S
C991 C163 1.526 . S
C1011 C618 1.479 . S
C1009 C162 1.522 . S
C1029 C576 1.487 . S
C1027 C135 1.533 . S
C1047 C605 1.490 . S
C1045 C149 1.530 . S
C1063 C176 1.554 . S
C1065 C332 1.480 . S
C1081 C190 1.545 . S
C1083 C345 1.514 . S
C1099 C205 1.542 . S
C1101 C374 1.471 . S
C1117 C204 1.538 . S
C1119 C387 1.508 . S
C1137 C408 1.518 . S
C1135 C177 1.549 . S
C1155 C437 1.474 . S
C1153 C191 1.546 . S
C1173 C416 1.497 . S
C1171 C218 1.538 . S
C1191 C429 1.483 . S
C1189 C232 1.529 . S
C1207 C247 1.526 . S
C1209 C395 1.486 . S
C1227 C366 1.479 . S
C1225 C246 1.522 . S
C1243 C219 1.533 . S
C1245 C324 1.487 . S
C1263 C353 1.490 . S
C1261 C233 1.530 . S
C1281 C264 1.397 . S
C1279 C6 1.478 . S
C1297 C20 1.468 . S
C1299 C285 1.389 . S
C1317 C313 1.418 . S
C1315 C35 1.467 . S
C1335 C334 1.412 . S
C1333 C34 1.460 . S
C1353 C348 1.391 . S
C1351 C7 1.471 . S
C1371 C376 1.421 . S
C1369 C21 1.470 . S
C1387 C48 1.488 . S
C1389 C369 1.390 . S
C1405 C62 1.479 . S
C1407 C327 1.382 . S
C1423 C77 1.477 . S
C1425 C355 1.427 . S
C1441 C76 1.470 . S
C1443 C292 1.420 . S
C1461 C306 1.385 . S
C1459 C49 1.481 . S
C1477 C63 1.480 . S
C1479 C271 1.429 . S
C1497 C390 1.397 . S
C1495 C90 1.478 . S
C1513 C104 1.468 . S
C1515 C411 1.388 . S
C1531 C119 1.467 . S
C1533 C439 1.418 . S
C1551 C460 1.412 . S
C1549 C118 1.460 . S
C1567 C91 1.471 . S
C1569 C474 1.391 . S
C1585 C105 1.470 . S
C1587 C502 1.423 . S
C1603 C132 1.489 . S
C1605 C495 1.389 . S
C1621 C146 1.479 . S
C1623 C453 1.382 . S
C1641 C481 1.427 . S
C1639 C161 1.478 . S
C1657 C160 1.470 . S
C1659 C418 1.420 . S
C1675 C133 1.481 . S
C1677 C432 1.384 . S
C1695 C397 1.429 . S
C1693 C147 1.480 . S
C1713 C516 1.418 . S
C1711 C174 1.478 . S
C1729 C188 1.468 . S
C1731 C537 1.389 1_655 S
C1747 C203 1.467 . S
C1749 C565 1.417 . S
C1767 C586 1.412 . S
C1765 C202 1.460 . S
C1785 C600 1.391 . S
C1783 C175 1.471 . S
C1801 C189 1.470 . S
C1803 C628 1.421 . S
C1819 C216 1.489 . S
C1821 C621 1.390 . S
C1837 C230 1.479 . S
C1839 C579 1.382 . S
C1857 C607 1.427 . S
C1855 C245 1.477 . S
C1875 C544 1.420 1_655 S
C1873 C244 1.467 . S
C1893 C558 1.384 . S
C1891 C217 1.481 . S
C1909 C231 1.480 . S
C1911 C523 1.429 1_545 S
