# Generated by pormake.
# Topology zzz, (3,6)-cn, num edge types: 1
# Building blocks:
#     Node 0, Type 0, BuildingBlock: ESEHIV_clean_linker_0, # of connection points: 3
#     Node 1, Type 0, BuildingBlock: ESEHIV_clean_linker_0, # of connection points: 3
#     Node 2, Type 0, BuildingBlock: ESEHIV_clean_linker_0, # of connection points: 3
#     Node 3, Type 0, BuildingBlock: ESEHIV_clean_linker_0, # of connection points: 3
#     Node 4, Type 0, BuildingBlock: ESEHIV_clean_linker_0, # of connection points: 3
#     Node 5, Type 0, BuildingBlock: ESEHIV_clean_linker_0, # of connection points: 3
#     Node 6, Type 0, BuildingBlock: ESEHIV_clean_linker_0, # of connection points: 3
#     Node 7, Type 0, BuildingBlock: ESEHIV_clean_linker_0, # of connection points: 3
#     Node 8, Type 1, BuildingBlock: MIFKUJ_clean_sbu_0, # of connection points: 6
#     Node 9, Type 1, BuildingBlock: MIFKUJ_clean_sbu_0, # of connection points: 6
#     Node 10, Type 1, BuildingBlock: MIFKUJ_clean_sbu_0, # of connection points: 6
#     Node 11, Type 1, BuildingBlock: MIFKUJ_clean_sbu_0, # of connection points: 6
#     Edge 12, Type (0, 1), BuildingBlock: UVAHIK_clean_linker_0, # of connection points: 2
#     Edge 13, Type (0, 1), BuildingBlock: UVAHIK_clean_linker_0, # of connection points: 2
#     Edge 14, Type (0, 1), BuildingBlock: UVAHIK_clean_linker_0, # of connection points: 2
#     Edge 15, Type (0, 1), BuildingBlock: UVAHIK_clean_linker_0, # of connection points: 2
#     Edge 16, Type (0, 1), BuildingBlock: UVAHIK_clean_linker_0, # of connection points: 2
#     Edge 17, Type (0, 1), BuildingBlock: UVAHIK_clean_linker_0, # of connection points: 2
#     Edge 18, Type (0, 1), BuildingBlock: UVAHIK_clean_linker_0, # of connection points: 2
#     Edge 19, Type (0, 1), BuildingBlock: UVAHIK_clean_linker_0, # of connection points: 2
#     Edge 20, Type (0, 1), BuildingBlock: UVAHIK_clean_linker_0, # of connection points: 2
#     Edge 21, Type (0, 1), BuildingBlock: UVAHIK_clean_linker_0, # of connection points: 2
#     Edge 22, Type (0, 1), BuildingBlock: UVAHIK_clean_linker_0, # of connection points: 2
#     Edge 23, Type (0, 1), BuildingBlock: UVAHIK_clean_linker_0, # of connection points: 2
#     Edge 24, Type (0, 1), BuildingBlock: UVAHIK_clean_linker_0, # of connection points: 2
#     Edge 25, Type (0, 1), BuildingBlock: UVAHIK_clean_linker_0, # of connection points: 2
#     Edge 26, Type (0, 1), BuildingBlock: UVAHIK_clean_linker_0, # of connection points: 2
#     Edge 27, Type (0, 1), BuildingBlock: UVAHIK_clean_linker_0, # of connection points: 2
#     Edge 28, Type (0, 1), BuildingBlock: UVAHIK_clean_linker_0, # of connection points: 2
#     Edge 29, Type (0, 1), BuildingBlock: UVAHIK_clean_linker_0, # of connection points: 2
#     Edge 30, Type (0, 1), BuildingBlock: UVAHIK_clean_linker_0, # of connection points: 2
#     Edge 31, Type (0, 1), BuildingBlock: UVAHIK_clean_linker_0, # of connection points: 2
#     Edge 32, Type (0, 1), BuildingBlock: UVAHIK_clean_linker_0, # of connection points: 2
#     Edge 33, Type (0, 1), BuildingBlock: UVAHIK_clean_linker_0, # of connection points: 2
#     Edge 34, Type (0, 1), BuildingBlock: UVAHIK_clean_linker_0, # of connection points: 2
#     Edge 35, Type (0, 1), BuildingBlock: UVAHIK_clean_linker_0, # of connection points: 2
# Relax obj value: 0.310
# Max RMSD: 0.212
# Mean RMSD: 0.192
data_MOF--net-zzz--node1-MIFKUJ_clean_sbu_0--node2-ESEHIV_clean_linker_0--edge1-UVAHIK_clean_linker_0
_symmetry_space_group_name_H-M    P1
_symmetry_Int_Tables_number       1
_symmetry_cell_setting            triclinic
loop_
_symmetry_equiv_pos_as_xyz
'x, y, z'
_cell_length_a     57.314549
_cell_length_b     58.375053
_cell_length_c     21.42143
_cell_angle_alpha  89.219946
_cell_angle_beta   90.436652
_cell_angle_gamma 91.305227
loop_
_atom_site_label
_atom_site_type_symbol
_atom_site_fract_x
_atom_site_fract_y
_atom_site_fract_z
_atom_type_partial_charge
H0 H 0.78189 0.58273 0.08765 0.0
H1 H 0.71905 0.58478 0.97808 0.0
H2 H 0.71629 0.56357 0.17127 0.0
C3 C 0.763 0.58178 0.08457 0.0
C4 C 0.75032 0.57473 0.13747 0.0
C5 C 0.75197 0.58456 0.02647 0.0
C6 C 0.72766 0.58258 0.02299 0.0
C7 C 0.71457 0.57496 0.07458 0.0
C8 C 0.72604 0.57051 0.13193 0.0
H9 H 0.01656 0.77928 0.11735 0.0
H10 H 0.01155 0.72309 0.99078 0.0
H11 H 0.97947 0.71724 0.17207 0.0
C12 C 0.01079 0.76187 0.10736 0.0
C13 C -0.00241 0.74947 0.15172 0.0
C14 C 0.01569 0.75254 0.04926 0.0
C15 C 0.0077 0.73037 0.03579 0.0
C16 C 0.99496 0.71741 0.07998 0.0
C17 C 0.98956 0.72705 0.13804 0.0
H18 H 0.72829 0.90899 0.14384 0.0
H19 H 0.77738 0.91837 0.99582 0.0
H20 H 0.80176 0.91273 0.18625 0.0
C21 C 0.74626 0.90984 0.12819 0.0
C22 C 0.76435 0.90962 0.17242 0.0
C23 C 0.75077 0.91392 0.06509 0.0
C24 C 0.77385 0.91488 0.04475 0.0
C25 C 0.7925 0.9137 0.08769 0.0
C26 C 0.78768 0.91197 0.15229 0.0
H27 H 0.44483 0.72288 0.1034 0.0
H28 H 0.4775 0.78448 0.17599 0.0
H29 H 0.46087 0.77899 0.9799 0.0
C30 C 0.45107 0.74043 0.09693 0.0
C31 C 0.45131 0.74983 0.03676 0.0
C32 C 0.46052 0.75258 0.14776 0.0
C33 C 0.46994 0.77492 0.13755 0.0
C34 C 0.46976 0.78459 0.07673 0.0
C35 C 0.46052 0.77185 0.02694 0.0
H36 H 0.21391 0.41802 0.09169 0.0
H37 H 0.27482 0.41753 0.20917 0.0
H38 H 0.28033 0.43938 0.01679 0.0
C39 C 0.2327 0.41961 0.09726 0.0
C40 C 0.24602 0.42737 0.04627 0.0
C41 C 0.24279 0.41676 0.15657 0.0
C42 C 0.26694 0.41966 0.16332 0.0
C43 C 0.28069 0.42776 0.11343 0.0
C44 C 0.27008 0.43216 0.05485 0.0
H45 H 0.98863 0.22233 0.05778 0.0
H46 H 0.97978 0.2794 0.17861 0.0
H47 H 0.01395 0.28935 0.00101 0.0
C48 C 0.99089 0.24048 0.06708 0.0
C49 C 0.00194 0.25468 0.02264 0.0
C50 C 0.98306 0.24917 0.1235 0.0
C51 C 0.98553 0.27262 0.13453 0.0
C52 C 0.99658 0.28727 0.09074 0.0
C53 C 0.00503 0.27826 0.03453 0.0
H54 H 0.2682 0.09654 0.07723 0.0
H55 H 0.20717 0.0886 0.19062 0.0
H56 H 0.20369 0.07229 0.99549 0.0
C57 C 0.24951 0.09352 0.08102 0.0
C58 C 0.23693 0.08611 0.02829 0.0
C59 C 0.23913 0.09378 0.13997 0.0
C60 C 0.21525 0.08874 0.14495 0.0
C61 C 0.20231 0.08116 0.09313 0.0
C62 C 0.21326 0.07941 0.03478 0.0
H63 H 0.54235 0.28223 0.04926 0.0
H64 H 0.51426 0.21562 0.0025 0.0
H65 H 0.54487 0.22735 0.18428 0.0
C66 C 0.53922 0.26436 0.06181 0.0
C67 C 0.54507 0.25652 0.12178 0.0
C68 C 0.52823 0.24985 0.01852 0.0
C69 C 0.52292 0.22693 0.03549 0.0
C70 C 0.52941 0.2187 0.0952 0.0
C71 C 0.54032 0.2336 0.13794 0.0
Zn72 Zn 0.98032 0.02498 0.56926 0.0
Zn73 Zn 0.01073 0.97952 0.6126 0.0
C74 C 0.98429 0.05546 0.67277 0.0
O75 O 0.96244 0.04859 0.67903 0.0
C76 C 0.0096 0.94418 0.52771 0.0
O77 O 0.03175 0.95014 0.53345 0.0
O78 O 0.95945 0.04689 0.52401 0.0
O79 O 0.00285 0.01513 0.50267 0.0
O80 O 0.03123 0.00024 0.5593 0.0
C81 C 0.97156 0.06236 0.49628 0.0
O82 O 0.99442 0.06196 0.50045 0.0
O83 O 0.99669 0.04624 0.63134 0.0
C84 C 0.02048 0.94679 0.70379 0.0
O85 O -0.00207 0.94935 0.71028 0.0
O86 O 0.03146 0.95915 0.66401 0.0
O87 O 0.98908 0.99342 0.67589 0.0
O88 O 0.95997 0.001 0.61269 0.0
O89 O 0.9946 0.95597 0.55599 0.0
C90 C 0.02413 0.00985 0.50929 0.0
C91 C 0.9673 0.99361 0.66506 0.0
Zn92 Zn 0.46056 0.00205 0.58044 0.0
Zn93 Zn 0.53375 0.98859 0.57245 0.0
C94 C 0.42589 0.00779 0.66743 0.0
O95 O 0.42251 0.98694 0.64628 0.0
C96 C 0.57102 0.98256 0.49501 0.0
O97 O 0.57231 0.00405 0.51246 0.0
O98 O 0.4356 0.00019 0.5144 0.0
O99 O 0.48752 0.02052 0.53825 0.0
O100 O 0.52596 0.01818 0.53025 0.0
C101 C 0.42975 0.02065 0.50209 0.0
O102 O 0.44003 0.03753 0.53234 0.0
O103 O 0.44378 0.01924 0.64879 0.0
C104 C 0.56164 0.97359 0.66361 0.0
O105 O 0.55225 0.95518 0.6381 0.0
O106 O 0.55578 0.9932 0.64342 0.0
O107 O 0.50541 0.97265 0.60853 0.0
O108 O 0.46739 0.97082 0.61856 0.0
O109 O 0.55336 0.97041 0.51207 0.0
C110 C 0.50709 0.02843 0.51808 0.0
C111 C 0.4873 0.96278 0.63086 0.0
Zn112 Zn 0.51433 0.48335 0.563 0.0
Zn113 Zn 0.48121 0.51865 0.62159 0.0
C114 C 0.5202 0.44809 0.64941 0.0
O115 O 0.54153 0.45561 0.63771 0.0
C116 C 0.47163 0.55246 0.5335 0.0
O117 O 0.45114 0.54397 0.55016 0.0
O118 O 0.53369 0.46461 0.50579 0.0
O119 O 0.48803 0.49447 0.50706 0.0
O120 O 0.46127 0.49427 0.57952 0.0
C121 C 0.52128 0.44965 0.47746 0.0
O122 O 0.49861 0.44897 0.48618 0.0
O123 O 0.50322 0.45881 0.62503 0.0
C124 C 0.47271 0.55498 0.69541 0.0
O125 O 0.49473 0.55748 0.67968 0.0
O126 O 0.46132 0.53723 0.67792 0.0
O127 O 0.50806 0.50996 0.67861 0.0
O128 O 0.5354 0.50604 0.60864 0.0
O129 O 0.48989 0.54292 0.55486 0.0
C130 C 0.46686 0.49142 0.52292 0.0
C131 C 0.52949 0.51077 0.66397 0.0
Zn132 Zn 0.02245 0.50761 0.57283 0.0
Zn133 Zn 0.97155 0.49256 0.61084 0.0
C134 C 0.05502 0.50215 0.66832 0.0
O135 O 0.05608 0.52408 0.65357 0.0
C136 C 0.94297 0.49795 0.50652 0.0
O137 O 0.94075 0.4762 0.5225 0.0
O138 O 0.04946 0.51561 0.51665 0.0
O139 O 0.00206 0.48862 0.51358 0.0
O140 O 0.98596 0.46376 0.57832 0.0
C141 C 0.05686 0.49648 0.49823 0.0
O142 O 0.04706 0.47738 0.51927 0.0
O143 O 0.03934 0.48967 0.64207 0.0
C144 C 0.93211 0.50544 0.66237 0.0
O145 O 0.94354 0.5241 0.64432 0.0
O146 O 0.94161 0.48607 0.65693 0.0
O147 O 0.98976 0.51168 0.67391 0.0
O148 O 0.00857 0.53562 0.61137 0.0
O149 O 0.95824 0.51022 0.53509 0.0
C150 C 0.99481 0.46831 0.5253 0.0
C151 C -0.00145 0.53149 0.66315 0.0
C152 C 0.16057 0.08557 0.1209 0.0
C153 C 0.17892 0.07119 0.10554 0.0
C154 C 0.14112 0.07676 0.15318 0.0
C155 C 0.13015 0.03715 0.27637 0.0
H156 H 0.06404 0.04124 0.24017 0.0
C157 C 0.06195 0.00372 0.45425 0.0
C158 C 0.04072 0.01515 0.45805 0.0
C159 C 0.07759 0.00886 0.40591 0.0
C160 C 0.08241 0.04027 0.25165 0.0
H161 H 0.19116 0.03643 0.10948 0.0
H162 H 0.1573 0.02107 0.16684 0.0
H163 H 0.09248 0.05353 0.16139 0.0
H164 H 0.01927 0.04093 0.41384 0.0
H165 H 0.04694 0.0509 0.33229 0.0
H166 H 0.12063 0.02539 0.36751 0.0
C167 C 0.15773 0.03897 0.1528 0.0
C168 C 0.09864 0.04711 0.2061 0.0
C169 C 0.17691 0.04768 0.11946 0.0
C170 C 0.03548 0.0318 0.41239 0.0
C171 C 0.05133 0.03734 0.36495 0.0
C172 C 0.11402 0.03084 0.32239 0.0
C173 C 0.1401 0.0536 0.17181 0.0
C174 C 0.12263 0.04551 0.21808 0.0
C175 C 0.07266 0.02596 0.36086 0.0
C176 C 0.08986 0.03226 0.31086 0.0
H177 H 0.1621 0.10386 0.11207 0.0
H178 H 0.12782 0.08839 0.1679 0.0
H179 H 0.14862 0.03615 0.28703 0.0
H180 H 0.06638 0.99058 0.48824 0.0
H181 H 0.09348 -0.00075 0.40385 0.0
C182 C 0.50251 0.18746 0.134 0.0
C183 C 0.52496 0.19475 0.11564 0.0
C184 C 0.49943 0.16742 0.17016 0.0
C185 C 0.53276 0.13506 0.28637 0.0
H186 H 0.48186 0.0903 0.27924 0.0
C187 C 0.52985 0.05653 0.45151 0.0
C188 C 0.50813 0.04835 0.47384 0.0
C189 C 0.53115 0.07376 0.4057 0.0
C190 C 0.49602 0.10284 0.28239 0.0
H191 H 0.5615 0.18633 0.11645 0.0
H192 H 0.55617 0.15109 0.17798 0.0
H193 H 0.48525 0.12011 0.19811 0.0
H194 H 0.47083 0.05224 0.46451 0.0
H195 H 0.47301 0.08295 0.3868 0.0
H196 H 0.54332 0.11845 0.371 0.0
C197 C 0.54097 0.16092 0.16563 0.0
C198 C 0.49801 0.11983 0.23565 0.0
C199 C 0.54401 0.1809 0.12981 0.0
C200 C 0.48779 0.05824 0.44955 0.0
C201 C 0.48907 0.07567 0.404 0.0
C202 C 0.53069 0.11828 0.33315 0.0
C203 C 0.51882 0.1545 0.18863 0.0
C204 C 0.51654 0.13601 0.2369 0.0
C205 C 0.5108 0.08356 0.3811 0.0
C206 C 0.5124 0.10182 0.33171 0.0
H207 H 0.48764 0.19812 0.12441 0.0
H208 H 0.48216 0.16297 0.18727 0.0
H209 H 0.5469 0.14762 0.28971 0.0
H210 H 0.54598 0.04927 0.46838 0.0
H211 H 0.54821 0.07902 0.38859 0.0
C212 C 0.31994 0.41823 0.15564 0.0
C213 C 0.30518 0.43445 0.12812 0.0
C214 C 0.33993 0.42525 0.18868 0.0
C215 C 0.36021 0.47413 0.28167 0.0
H216 H 0.41781 0.44073 0.29325 0.0
C217 C 0.4251 0.48451 0.48903 0.0
C218 C 0.44901 0.48543 0.4748 0.0
C219 C 0.40848 0.47899 0.44293 0.0
C220 C 0.40191 0.45038 0.29031 0.0
H221 H 0.30038 0.4706 0.11038 0.0
H222 H 0.33563 0.48298 0.16721 0.0
H223 H 0.38886 0.43057 0.21354 0.0
H224 H 0.47414 0.48117 0.40075 0.0
H225 H 0.44527 0.4716 0.32088 0.0
H226 H 0.3732 0.49387 0.35861 0.0
C227 C 0.33164 0.46482 0.16371 0.0
C228 C 0.38525 0.44445 0.24483 0.0
C229 C 0.3117 0.45775 0.13022 0.0
C230 C 0.45588 0.48061 0.41351 0.0
C231 C 0.43932 0.47498 0.36766 0.0
C232 C 0.37682 0.47998 0.32736 0.0
C233 C 0.34548 0.44869 0.19539 0.0
C234 C 0.36413 0.45617 0.24011 0.0
C235 C 0.4154 0.47412 0.38167 0.0
C236 C 0.39783 0.4681 0.33251 0.0
H237 H 0.31504 0.40019 0.15555 0.0
H238 H 0.35004 0.41236 0.21272 0.0
H239 H 0.34399 0.48329 0.28009 0.0
H240 H 0.41919 0.48811 0.53571 0.0
H241 H 0.39021 0.47824 0.45551 0.0
C242 C 0.02162 0.31848 0.13505 0.0
C243 C 0.00022 0.31146 0.10851 0.0
C244 C 0.02307 0.33818 0.17162 0.0
C245 C 0.99189 0.39011 0.22014 0.0
H246 H 0.01972 0.37722 0.38219 0.0
C247 C 0.00163 0.45794 0.41405 0.0
C248 C 0.99551 0.45102 0.47512 0.0
C249 C 0.00294 0.442 0.36625 0.0
C250 C 0.01183 0.38105 0.33725 0.0
H251 H 0.96397 0.32003 0.09593 0.0
H252 H 0.96656 0.35478 0.15817 0.0
H253 H 0.02209 0.34912 0.29919 0.0
H254 H 0.986 0.42176 0.53362 0.0
H255 H 0.98849 0.39373 0.44981 0.0
H256 H 0.98134 0.42194 0.25869 0.0
C257 C 0.98225 0.34522 0.15086 0.0
C258 C 0.01346 0.3651 0.28939 0.0
C259 C 0.98077 0.32541 0.11488 0.0
C260 C 0.99071 0.42767 0.48715 0.0
C261 C 0.99227 0.41162 0.43925 0.0
C262 C 0.99049 0.40619 0.26785 0.0
C263 C 0.00315 0.35124 0.182 0.0
C264 C 0.00332 0.36933 0.23043 0.0
C265 C -0.00161 0.41864 0.37824 0.0
C266 C 0.00021 0.40172 0.32719 0.0
H267 H 0.03671 0.30773 0.13177 0.0
H268 H 0.03948 0.34255 0.19438 0.0
H269 H 0.98391 0.39388 0.17528 0.0
H270 H 0.00551 0.47578 0.40295 0.0
H271 H 0.00794 0.44794 0.32002 0.0
C272 C 0.83068 0.93556 0.08268 0.0
C273 C 0.81645 0.91708 0.06289 0.0
C274 C 0.85004 0.94273 0.04715 0.0
C275 C 0.8639 0.95453 0.89611 0.0
H276 H 0.92998 0.94295 0.91254 0.0
C277 C 0.92795 0.97835 0.69796 0.0
C278 C 0.95076 0.98552 0.71382 0.0
C279 C 0.91271 0.96982 0.74387 0.0
C280 C 0.91164 0.94669 0.90764 0.0
H281 H 0.81238 0.89044 0.99389 0.0
H282 H 0.8461 0.90306 0.93203 0.0
H283 H 0.90283 0.92784 0.9916 0.0
H284 H 0.97531 0.98981 0.79047 0.0
H285 H 0.94851 0.97588 0.8708 0.0
H286 H 0.87228 0.97365 0.8133 0.0
C287 C 0.84227 0.91194 0.97472 0.0
C288 C 0.89617 0.93791 0.95283 0.0
C289 C 0.82307 0.90473 0.01016 0.0
C290 C 0.95788 0.98428 0.77669 0.0
C291 C 0.94253 0.9761 0.82275 0.0
C292 C 0.87931 0.9635 0.85138 0.0
C293 C 0.85537 0.93144 0.99174 0.0
C294 C 0.8722 0.94166 0.947 0.0
C295 C 0.91974 0.9686 0.80702 0.0
C296 C 0.90341 0.95954 0.85605 0.0
H297 H 0.8258 0.94554 0.12259 0.0
H298 H 0.85991 0.95793 0.06069 0.0
H299 H 0.8454 0.95757 0.89091 0.0
H300 H 0.92204 0.97886 0.64982 0.0
H301 H 0.89551 0.9638 0.72948 0.0
C302 C 0.49847 0.80946 0.02071 0.0
C303 C 0.47941 0.80766 0.06138 0.0
C304 C 0.50251 0.82944 0.98542 0.0
C305 C 0.4677 0.87599 0.91752 0.0
H306 H 0.52699 0.89461 0.84483 0.0
C307 C 0.47171 0.92765 0.68638 0.0
C308 C 0.48926 0.94465 0.67959 0.0
C309 C 0.47205 0.91231 0.73723 0.0
C310 C 0.51027 0.88986 0.86498 0.0
H311 H 0.45082 0.82585 0.10126 0.0
H312 H 0.4584 0.86131 0.04173 0.0
H313 H 0.52619 0.86822 0.93383 0.0
H314 H 0.52015 0.95965 0.72271 0.0
H315 H 0.52106 0.93286 0.81062 0.0
H316 H 0.45178 0.89789 0.84952 0.0
C317 C 0.46994 0.84709 0.03574 0.0
C318 C 0.5098 0.87451 0.91585 0.0
C319 C 0.46584 0.82697 0.07087 0.0
C320 C 0.50713 0.94599 0.72475 0.0
C321 C 0.50743 0.93076 0.77575 0.0
C322 C 0.46818 0.89144 0.86703 0.0
C323 C 0.48755 0.84813 0.99007 0.0
C324 C 0.48847 0.86699 0.9421 0.0
C325 C 0.48974 0.91385 0.78317 0.0
C326 C 0.48942 0.89824 0.83914 0.0
H327 H 0.5089 0.79461 0.0118 0.0
H328 H 0.51613 0.82938 0.9507 0.0
H329 H 0.45088 0.87046 0.93561 0.0
H330 H 0.45754 0.92642 0.65275 0.0
H331 H 0.45832 0.89931 0.74062 0.0
C332 C 0.68346 0.54496 0.06027 0.0
C333 C 0.68989 0.56829 0.06228 0.0
C334 C 0.66352 0.53779 0.02696 0.0
C335 C 0.63519 0.52814 0.90901 0.0
H336 H 0.57789 0.56184 0.89402 0.0
C337 C 0.57127 0.51672 0.69962 0.0
C338 C 0.54725 0.5167 0.71251 0.0
C339 C 0.58772 0.5223 0.74616 0.0
C340 C 0.59369 0.55208 0.89789 0.0
H341 H 0.67972 0.60249 0.03527 0.0
H342 H 0.64475 0.59016 0.97837 0.0
H343 H 0.60634 0.57204 0.9748 0.0
H344 H 0.52178 0.52255 0.78481 0.0
H345 H 0.5503 0.53199 0.86544 0.0
H346 H 0.62255 0.50816 0.83216 0.0
C347 C 0.65494 0.57731 0.00233 0.0
C348 C 0.61009 0.55806 0.94401 0.0
C349 C 0.6749 0.58443 0.0353 0.0
C350 C 0.54012 0.5224 0.77298 0.0
C351 C 0.55651 0.52799 0.81931 0.0
C352 C 0.61882 0.5222 0.86279 0.0
C353 C 0.64958 0.55384 0.99526 0.0
C354 C 0.63113 0.54626 0.94998 0.0
C355 C 0.58053 0.52805 0.80663 0.0
C356 C 0.5979 0.53417 0.85634 0.0
H357 H 0.69494 0.53216 0.07968 0.0
H358 H 0.65967 0.5196 0.02338 0.0
H359 H 0.65136 0.51891 0.91144 0.0
H360 H 0.57738 0.51245 0.65359 0.0
H361 H 0.60607 0.52243 0.73447 0.0
C362 C 0.00422 0.6763 0.07079 0.0
C363 C 0.98806 0.69381 0.06283 0.0
C364 C 0.00217 0.65627 0.03579 0.0
C365 C 0.97986 0.63956 0.88175 0.0
H366 H -0.00014 0.57897 0.93144 0.0
C367 C 0.0052 0.57184 0.70113 0.0
C368 C 0.99705 0.54925 0.7119 0.0
C369 C 0.00292 0.5885 0.74707 0.0
C370 C 0.99408 0.59576 0.91687 0.0
H371 H 0.9564 0.70376 0.0153 0.0
H372 H 0.95227 0.66846 0.95548 0.0
H373 H 0.99547 0.60836 0.01047 0.0
H374 H 0.98029 0.5265 0.77994 0.0
H375 H 0.97639 0.55546 0.85946 0.0
H376 H 0.97852 0.62706 0.78827 0.0
C377 C 0.96672 0.67024 0.98806 0.0
C378 C 0.99168 0.61264 0.96214 0.0
C379 C 0.96881 0.69027 0.02302 0.0
C380 C 0.98684 0.5437 0.76992 0.0
C381 C 0.98468 0.56029 0.81582 0.0
C382 C 0.98236 0.62276 0.83655 0.0
C383 C 0.98399 0.6535 0.99179 0.0
C384 C 0.98466 0.6348 0.9451 0.0
C385 C 0.99256 0.58294 0.80491 0.0
C386 C 0.98967 0.6007 0.85341 0.0
H387 H 0.01951 0.67895 0.1001 0.0
H388 H 0.01587 0.64384 0.03965 0.0
H389 H 0.9748 0.65653 0.86665 0.0
H390 H 0.01317 0.57669 0.65708 0.0
H391 H 0.00943 0.60574 0.73744 0.0
C392 C 0.95289 0.23769 0.20363 0.0
C393 C 0.97365 0.23322 0.17177 0.0
C394 C 0.94332 0.2213 0.24513 0.0
C395 C 0.93726 0.16143 0.2633 0.0
H396 H 0.94725 0.162 0.44252 0.0
C397 C 0.97121 0.08748 0.40295 0.0
C398 C 0.96074 0.08057 0.45917 0.0
C399 C 0.96316 0.10647 0.37023 0.0
C400 C 0.94352 0.16182 0.39287 0.0
H401 H 0.00157 0.20909 0.16171 0.0
H402 H 0.9847 0.18053 0.23298 0.0
H403 H 0.95167 0.19775 0.38154 0.0
H404 H 0.9336 0.08762 0.52555 0.0
H405 H 0.91994 0.12192 0.46876 0.0
H406 H 0.9315 0.12524 0.27337 0.0
C407 C 0.97571 0.19647 0.22523 0.0
C408 C 0.94607 0.1822 0.35816 0.0
C409 C 0.98525 0.21273 0.18435 0.0
C410 C 0.94168 0.0926 0.48173 0.0
C411 C 0.93397 0.11213 0.44962 0.0
C412 C 0.93479 0.14114 0.29778 0.0
C413 C 0.95449 0.20042 0.25479 0.0
C414 C 0.94412 0.1818 0.2929 0.0
C415 C 0.94482 0.11922 0.39384 0.0
C416 C 0.93918 0.141 0.36228 0.0
H417 H 0.94369 0.25342 0.1948 0.0
H418 H 0.92696 0.22458 0.26795 0.0
H419 H 0.93586 0.16084 0.21286 0.0
H420 H 0.986 0.07846 0.38495 0.0
H421 H 0.97203 0.11185 0.32781 0.0
C422 C 0.25142 0.07536 0.23992 0.0
C423 C 0.25433 0.09337 0.19617 0.0
C424 C 0.26943 0.06989 0.28112 0.0
C425 C 0.33275 0.07247 0.27769 0.0
H426 H 0.32822 0.04413 0.44206 0.0
C427 C 0.41201 0.04684 0.42507 0.0
C428 C 0.4108 0.02604 0.4585 0.0
C429 C 0.39271 0.05453 0.39191 0.0
C430 C 0.32959 0.05174 0.3958 0.0
H431 H 0.27701 0.12162 0.16684 0.0
H432 H 0.30848 0.11227 0.23976 0.0
H433 H 0.29412 0.06253 0.396 0.0
H434 H 0.38904 0.99642 0.48213 0.0
H435 H 0.35481 0.01006 0.42393 0.0
H436 H 0.36816 0.06172 0.27744 0.0
C437 C 0.29251 0.10199 0.24082 0.0
C438 C 0.31019 0.06243 0.36972 0.0
C439 C 0.27448 0.10745 0.19945 0.0
C440 C 0.39034 0.01244 0.45609 0.0
C441 C 0.37079 0.02033 0.42353 0.0
C442 C 0.35211 0.06189 0.30381 0.0
C443 C 0.29065 0.08236 0.2794 0.0
C444 C 0.31159 0.07292 0.31036 0.0
C445 C 0.37173 0.04168 0.39227 0.0
C446 C 0.35071 0.05143 0.36304 0.0
H447 H 0.23621 0.06402 0.23833 0.0
H448 H 0.26745 0.05466 0.31018 0.0
H449 H 0.33422 0.07979 0.23111 0.0
H450 H 0.42767 0.0576 0.42634 0.0
H451 H 0.39388 0.07108 0.36852 0.0
C452 C 0.57076 0.28997 0.15096 0.0
C453 C 0.55416 0.27304 0.16839 0.0
C454 C 0.57545 0.30859 0.18959 0.0
C455 C 0.56028 0.35298 0.2456 0.0
H456 H 0.56214 0.35406 0.42658 0.0
C457 C 0.5185 0.42179 0.39137 0.0
C458 C 0.53181 0.43198 0.43917 0.0
C459 C 0.52713 0.40341 0.35867 0.0
C460 C 0.56204 0.35401 0.37601 0.0
H461 H 0.53102 0.26122 0.24228 0.0
H462 H 0.53928 0.29372 0.30993 0.0
H463 H 0.5683 0.31794 0.37235 0.0
H464 H 0.56454 0.43117 0.49038 0.0
H465 H 0.57952 0.3983 0.43356 0.0
H466 H 0.55263 0.38865 0.24923 0.0
C467 C 0.54872 0.29257 0.26651 0.0
C468 C 0.56541 0.3334 0.3451 0.0
C469 C 0.54397 0.27396 0.22774 0.0
C470 C 0.5541 0.42372 0.45315 0.0
C471 C 0.56257 0.40491 0.42115 0.0
C472 C 0.55661 0.37343 0.27642 0.0
C473 C 0.56369 0.31055 0.24646 0.0
C474 C 0.56407 0.33263 0.27962 0.0
C475 C 0.54905 0.39459 0.37389 0.0
C476 C 0.55691 0.37399 0.34182 0.0
H477 H 0.57921 0.28945 0.10594 0.0
H478 H 0.58734 0.32207 0.17351 0.0
H479 H 0.55878 0.35286 0.19516 0.0
H480 H 0.50123 0.42783 0.37986 0.0
H481 H 0.51631 0.39556 0.32279 0.0
C482 C 0.23227 0.43182 0.26069 0.0
C483 C 0.2275 0.41634 0.21214 0.0
C484 C 0.21464 0.43794 0.30121 0.0
C485 C 0.15394 0.44778 0.28114 0.0
H486 H 0.15425 0.46438 0.45575 0.0
C487 C 0.07345 0.47898 0.40603 0.0
C488 C 0.07615 0.49457 0.45479 0.0
C489 C 0.09285 0.47114 0.3751 0.0
C490 C 0.15417 0.46022 0.40664 0.0
H491 H 0.20176 0.39237 0.17461 0.0
H492 H 0.17077 0.40344 0.24502 0.0
H493 H 0.18631 0.44219 0.41452 0.0
H494 H 0.1007 0.51536 0.50779 0.0
H495 H 0.1351 0.50188 0.4525 0.0
H496 H 0.12231 0.46617 0.27232 0.0
C497 C 0.18804 0.41108 0.25075 0.0
C498 C 0.17229 0.44725 0.38342 0.0
C499 C 0.20574 0.40477 0.21055 0.0
C500 C 0.09834 0.5036 0.46944 0.0
C501 C 0.11793 0.4956 0.4386 0.0
C502 C 0.13603 0.46089 0.30406 0.0
C503 C 0.19201 0.42879 0.29353 0.0
C504 C 0.17216 0.44073 0.32061 0.0
C505 C 0.11536 0.47866 0.39272 0.0
C506 C 0.1358 0.46706 0.36714 0.0
H507 H 0.24879 0.44114 0.26337 0.0
H508 H 0.21814 0.4516 0.33397 0.0
H509 H 0.15382 0.44361 0.232 0.0
H510 H 0.05641 0.47164 0.39472 0.0
H511 H 0.09024 0.45796 0.34049 0.0
C512 C 0.04868 0.77849 0.01642 0.0
C513 C 0.02779 0.76677 0.00156 0.0
C514 C 0.05788 0.79514 0.97561 0.0
C515 C 0.04911 0.82366 0.81965 0.0
H516 H 0.06102 0.87874 0.9151 0.0
C517 C 0.04871 0.91478 0.70841 0.0
C518 C 0.03183 0.92798 0.7375 0.0
C519 C 0.05635 0.89455 0.73702 0.0
C520 C 0.05812 0.86345 0.8877 0.0
H521 H 0.00091 0.7619 0.93114 0.0
H522 H 0.01638 0.79153 0.86075 0.0
H523 H 0.05979 0.84179 0.96824 0.0
H524 H 0.01054 0.9313 0.81981 0.0
H525 H 0.0243 0.89651 0.87045 0.0
H526 H 0.04561 0.84591 0.73981 0.0
C527 C 0.02611 0.78761 0.90295 0.0
C528 C 0.05761 0.84219 0.91799 0.0
C529 C 0.01712 0.77072 0.9434 0.0
C530 C 0.02365 0.92142 0.7967 0.0
C531 C 0.03161 0.90159 0.82571 0.0
C532 C 0.04962 0.84503 0.78928 0.0
C533 C 0.04607 0.80067 0.91979 0.0
C534 C 0.05209 0.82212 0.88483 0.0
C535 C 0.04761 0.88768 0.79561 0.0
C536 C 0.05309 0.86515 0.82368 0.0
H537 H 0.05735 0.77544 0.06078 0.0
H538 H 0.07357 0.80452 0.98932 0.0
H539 H 0.04516 0.80849 0.79263 0.0
H540 H 0.05499 0.9194 0.66225 0.0
H541 H 0.06863 0.88403 0.71288 0.0
C542 C 0.71519 0.93653 0.04493 0.0
C543 C 0.73151 0.92094 0.02324 0.0
C544 C 0.69709 0.94375 0.00657 0.0
C545 C 0.67872 0.951 0.84496 0.0
H546 H 0.61636 0.94828 0.91456 0.0
C547 C 0.59791 0.98726 0.71771 0.0
C548 C 0.57967 0.97098 0.71175 0.0
C549 C 0.6166 0.98298 0.7581 0.0
C550 C 0.6337 0.94921 0.89475 0.0
H551 H 0.74214 0.90123 0.94371 0.0
H552 H 0.71017 0.9141 0.87576 0.0
H553 H 0.64943 0.93606 0.97814 0.0
H554 H 0.56581 0.93817 0.74475 0.0
H555 H 0.59815 0.93095 0.81621 0.0
H556 H 0.66279 0.96393 0.76117 0.0
C557 C 0.71155 0.92056 0.92284 0.0
C558 C 0.65257 0.94229 0.93101 0.0
C559 C 0.72971 0.91317 0.96159 0.0
C560 C 0.57977 0.95093 0.74853 0.0
C561 C 0.59818 0.94685 0.78948 0.0
C562 C 0.65981 0.95814 0.80877 0.0
C563 C 0.69501 0.93574 0.94543 0.0
C564 C 0.6752 0.943 0.90631 0.0
C565 C 0.61694 0.96261 0.79368 0.0
C566 C 0.63716 0.95708 0.83333 0.0
H567 H 0.71656 0.94345 0.09152 0.0
H568 H 0.68481 0.95581 0.0246 0.0
H569 H 0.69607 0.95187 0.82523 0.0
H570 H 0.59822 0.00277 0.68935 0.0
H571 H 0.63089 0.9954 0.76104 0.0
C572 C 0.42322 0.72401 0.97999 0.0
C573 C 0.44507 0.73524 0.98347 0.0
C574 C 0.41891 0.70744 0.93457 0.0
C575 C 0.44662 0.67995 0.79655 0.0
H576 H 0.41256 0.62623 0.85732 0.0
C577 C 0.46093 0.59483 0.6793 0.0
C578 C 0.46051 0.57508 0.71691 0.0
C579 C 0.45136 0.61499 0.70009 0.0
C580 C 0.42245 0.64092 0.83983 0.0
H581 H 0.47933 0.73865 0.94238 0.0
H582 H 0.47257 0.70914 0.86593 0.0
H583 H 0.41104 0.66151 0.91462 0.0
H584 H 0.45015 0.56046 0.80582 0.0
H585 H 0.43581 0.59632 0.84611 0.0
H586 H 0.4605 0.65908 0.7267 0.0
C587 C 0.45818 0.71351 0.89557 0.0
C588 C 0.42111 0.66148 0.87211 0.0
C589 C 0.46222 0.7304 0.93978 0.0
C590 C 0.45032 0.57558 0.77589 0.0
C591 C 0.44186 0.59618 0.79844 0.0
C592 C 0.44872 0.65926 0.76583 0.0
C593 C 0.43664 0.70139 0.89311 0.0
C594 C 0.43396 0.68105 0.85223 0.0
C595 C 0.44272 0.61639 0.76125 0.0
C596 C 0.43729 0.63916 0.78811 0.0
H597 H 0.40976 0.72762 0.01346 0.0
H598 H 0.40195 0.69891 0.93337 0.0
H599 H 0.45603 0.69482 0.77817 0.0
H600 H 0.46925 0.59481 0.63422 0.0
H601 H 0.45163 0.62961 0.66856 0.0
C602 C 0.7882 0.59454 0.96569 0.0
C603 C 0.76606 0.58377 0.96878 0.0
C604 C 0.80412 0.58811 0.92048 0.0
C605 C 0.81183 0.55306 0.779 0.0
H606 H 0.8697 0.53673 0.86162 0.0
C607 C 0.89401 0.52366 0.65412 0.0
C608 C 0.90831 0.50784 0.68482 0.0
C609 C 0.8737 0.53091 0.68205 0.0
C610 C 0.85349 0.54089 0.8382 0.0
H611 H 0.7425 0.55952 0.92268 0.0
H612 H 0.76996 0.54876 0.84403 0.0
H613 H 0.84083 0.55802 0.91811 0.0
H614 H 0.91208 0.4857 0.76584 0.0
H615 H 0.87622 0.49845 0.81554 0.0
H616 H 0.82449 0.53553 0.6993 0.0
C617 C 0.77512 0.5621 0.87634 0.0
C618 C 0.8372 0.55354 0.87004 0.0
C619 C 0.75929 0.5684 0.92155 0.0
C620 C 0.90115 0.49786 0.74149 0.0
C621 C 0.88085 0.50532 0.76996 0.0
C622 C 0.82821 0.54043 0.74701 0.0
C623 C 0.79806 0.57093 0.87755 0.0
C624 C 0.81619 0.55973 0.84084 0.0
C625 C 0.86752 0.52261 0.74152 0.0
C626 C 0.84916 0.53417 0.77646 0.0
H627 H 0.79376 0.60675 0.00073 0.0
H628 H 0.8216 0.59557 0.92144 0.0
H629 H 0.79574 0.55755 0.75548 0.0
H630 H 0.89927 0.53145 0.61005 0.0
H631 H 0.86387 0.54428 0.65912 0.0
C632 C 0.02968 0.22903 0.972 0.0
C633 C 0.01041 0.24336 0.96603 0.0
C634 C 0.03238 0.21073 0.93136 0.0
C635 C 0.01108 0.18259 0.78661 0.0
H636 H 0.01528 0.1268 0.88629 0.0
C637 C 0.00994 0.09086 0.68073 0.0
C638 C 0.99286 0.07599 0.70683 0.0
C639 C 0.01559 0.11185 0.70893 0.0
C640 C 0.01426 0.14222 0.85775 0.0
H641 H 0.97984 0.25086 0.9104 0.0
H642 H 0.9849 0.2193 0.83789 0.0
H643 H 0.02007 0.16396 0.93621 0.0
H644 H 0.96895 0.07112 0.78396 0.0
H645 H 0.97939 0.1073 0.83422 0.0
H646 H 0.00482 0.16062 0.70826 0.0
C647 C -0.00202 0.22221 0.87386 0.0
C648 C 0.0172 0.16352 0.8862 0.0
C649 C 0.99518 0.24045 0.91495 0.0
C650 C 0.98223 0.08216 0.76286 0.0
C651 C 0.98822 0.10286 0.79167 0.0
C652 C 0.00853 0.1612 0.75788 0.0
C653 C 0.01588 0.20642 0.88379 0.0
C654 C 0.01531 0.18399 0.85123 0.0
C655 C 0.00465 0.11814 0.76448 0.0
C656 C 0.00966 0.14079 0.79342 0.0
H657 H 0.04135 0.2306 0.01184 0.0
H658 H 0.0465 0.19903 0.93976 0.0
H659 H 0.00949 0.19804 0.75847 0.0
H660 H 0.01825 0.08671 0.63719 0.0
H661 H 0.02839 0.12324 0.68713 0.0
C662 C 0.25131 0.05967 0.9469 0.0
C663 C 0.25036 0.0819 0.97076 0.0
C664 C 0.2689 0.05401 0.90516 0.0
C665 C 0.32911 0.07253 0.86602 0.0
H666 H 0.32269 0.02618 0.73895 0.0
C667 C 0.40673 0.04189 0.71508 0.0
C668 C 0.40732 0.01816 0.70503 0.0
C669 C 0.38743 0.05149 0.74419 0.0
C670 C 0.3248 0.03907 0.77457 0.0
H671 H 0.26577 0.11608 0.96588 0.0
H672 H 0.29603 0.10643 0.89168 0.0
H673 H 0.28797 0.04006 0.78998 0.0
H674 H 0.38861 0.98584 0.72032 0.0
H675 H 0.35543 0.00244 0.77116 0.0
H676 H 0.36602 0.07127 0.85103 0.0
C677 C 0.28364 0.09318 0.90632 0.0
C678 C 0.30488 0.04704 0.80378 0.0
C679 C 0.26613 0.0988 0.94815 0.0
C680 C 0.38868 0.00421 0.7267 0.0
C681 C 0.3695 0.01375 0.75546 0.0
C682 C 0.34906 0.06459 0.83663 0.0
C683 C 0.28585 0.0705 0.88629 0.0
C684 C 0.30677 0.06362 0.85063 0.0
C685 C 0.36838 0.03753 0.76349 0.0
C686 C 0.34718 0.04744 0.79139 0.0
H687 H 0.23964 0.04622 0.96431 0.0
H688 H 0.2701 0.03633 0.89108 0.0
H689 H 0.33133 0.08505 0.90257 0.0
H690 H 0.42076 0.05311 0.69869 0.0
H691 H 0.3871 0.06989 0.74974 0.0
C692 C 0.49919 0.26668 0.94477 0.0
C693 C 0.52214 0.25999 0.9571 0.0
C694 C 0.49471 0.28334 0.89868 0.0
C695 C 0.52301 0.31899 0.77166 0.0
H696 H 0.48364 0.36669 0.83386 0.0
C697 C 0.53627 0.41316 0.7008 0.0
C698 C 0.51671 0.42588 0.68303 0.0
C699 C 0.5336 0.39129 0.72715 0.0
C700 C 0.4944 0.3534 0.81534 0.0
H701 H 0.55813 0.2641 0.92879 0.0
H702 H 0.55053 0.29288 0.84873 0.0
H703 H 0.48441 0.32957 0.88759 0.0
H704 H 0.47887 0.42576 0.68097 0.0
H705 H 0.47421 0.38743 0.72879 0.0
H706 H 0.53393 0.34335 0.70151 0.0
C707 C 0.5358 0.2853 0.87341 0.0
C708 C 0.49477 0.33203 0.84589 0.0
C709 C 0.54022 0.2687 0.91923 0.0
C710 C 0.4943 0.41642 0.69418 0.0
C711 C 0.49162 0.3945 0.72143 0.0
C712 C 0.52281 0.3404 0.74163 0.0
C713 C 0.51314 0.29364 0.86441 0.0
C714 C 0.50959 0.31473 0.8255 0.0
C715 C 0.51129 0.38156 0.7371 0.0
C716 C 0.50899 0.35803 0.76414 0.0
H717 H 0.48504 0.26047 0.97415 0.0
H718 H 0.47699 0.28904 0.89228 0.0
H719 H 0.53425 0.30599 0.75374 0.0
H720 H 0.55381 0.41986 0.69321 0.0
H721 H 0.54909 0.38194 0.73989 0.0
C722 C 0.23041 0.456 0.96973 0.0
C723 C 0.23314 0.43303 0.98791 0.0
C724 C 0.21266 0.46207 0.92758 0.0
C725 C 0.15469 0.44011 0.87358 0.0
H726 H 0.15822 0.4926 0.76119 0.0
C727 C 0.07726 0.4686 0.71281 0.0
C728 C 0.07388 0.49236 0.70787 0.0
C729 C 0.09691 0.46005 0.74434 0.0
C730 C 0.15688 0.47797 0.7927 0.0
H731 H 0.22053 0.39827 0.97356 0.0
H732 H 0.19029 0.40863 0.89811 0.0
H733 H 0.1933 0.4801 0.81556 0.0
H734 H 0.08808 0.52562 0.73469 0.0
H735 H 0.12185 0.51081 0.7895 0.0
H736 H 0.11818 0.43811 0.85076 0.0
C737 C 0.20134 0.42211 0.91739 0.0
C738 C 0.17705 0.47079 0.82394 0.0
C739 C 0.21893 0.4161 0.95976 0.0
C740 C 0.09014 0.50723 0.73698 0.0
C741 C 0.10969 0.49874 0.76809 0.0
C742 C 0.13453 0.44723 0.84206 0.0
C743 C 0.19731 0.44526 0.9026 0.0
C744 C 0.17622 0.45193 0.86545 0.0
C745 C 0.11362 0.47509 0.77125 0.0
C746 C 0.13528 0.46647 0.80193 0.0
H747 H 0.24075 0.46942 0.99184 0.0
H748 H 0.21006 0.48008 0.91785 0.0
H749 H 0.15317 0.42576 0.90595 0.0
H750 H 0.06515 0.45667 0.6907 0.0
H751 H 0.0994 0.44172 0.74588 0.0
C752 C 0.01082 0.76784 0.25004 0.0
C753 C 0.99229 0.76114 0.21071 0.0
C754 C 0.00779 0.78459 0.29505 0.0
C755 C 0.97197 0.83513 0.32157 0.0
H756 H 0.00942 0.83858 0.47272 0.0
C757 C 0.97988 0.91612 0.48197 0.0
C758 C 0.0032 0.92264 0.4948 0.0
C759 C 0.97458 0.8951 0.45306 0.0
C760 C -0.00124 0.83784 0.43077 0.0
H761 H 0.95579 0.76588 0.18913 0.0
H762 H 0.95019 0.79493 0.26913 0.0
H763 H 0.00643 0.80263 0.41635 0.0
H764 H 0.03917 0.91211 0.48692 0.0
H765 H 0.02993 0.87582 0.43791 0.0
H766 H 0.96472 0.87064 0.33594 0.0
C767 C 0.96716 0.78735 0.26488 0.0
C768 C 0.99709 0.81725 0.3983 0.0
C769 C 0.97022 0.77046 0.2198 0.0
C770 C 0.021 0.90777 0.47786 0.0
C771 C 0.01571 0.8868 0.45011 0.0
C772 C 0.97348 0.85575 0.35451 0.0
C773 C 0.98614 0.79521 0.30164 0.0
C774 C 0.98435 0.81579 0.34204 0.0
C775 C 0.99249 0.88009 0.43772 0.0
C776 C 0.98754 0.85751 0.40831 0.0
H777 H 0.02811 0.76125 0.24296 0.0
H778 H 0.02293 0.79031 0.32159 0.0
H779 H 0.96216 0.8348 0.27818 0.0
H780 H 0.96577 0.92718 0.49441 0.0
H781 H 0.95651 0.89038 0.44384 0.0
C782 C 0.75707 0.93383 0.26312 0.0
C783 C 0.75706 0.91174 0.23814 0.0
C784 C 0.73959 0.93993 0.3046 0.0
C785 C 0.68789 0.91986 0.39622 0.0
H786 H 0.65931 0.97259 0.31763 0.0
C787 C 0.5941 0.94894 0.45807 0.0
C788 C 0.5913 0.97272 0.46299 0.0
C789 C 0.6148 0.94024 0.43388 0.0
C790 C 0.66712 0.95804 0.34094 0.0
H791 H 0.74117 0.87782 0.24402 0.0
H792 H 0.71109 0.88822 0.31781 0.0
H793 H 0.69697 0.9602 0.28193 0.0
H794 H 0.60783 0.00593 0.44473 0.0
H795 H 0.64351 0.99098 0.40394 0.0
H796 H 0.65785 0.91783 0.45548 0.0
C797 C 0.72427 0.90097 0.30489 0.0
C798 C 0.68884 0.95099 0.32056 0.0
C799 C 0.74171 0.89491 0.26319 0.0
C800 C 0.6093 0.98752 0.44166 0.0
C801 C 0.62983 0.9789 0.41778 0.0
C802 C 0.66613 0.9271 0.41722 0.0
C803 C 0.72201 0.92394 0.3222 0.0
C804 C 0.6996 0.93192 0.34811 0.0
C805 C 0.63303 0.95516 0.41395 0.0
C806 C 0.65553 0.94641 0.39003 0.0
H807 H 0.7685 0.94719 0.24415 0.0
H808 H 0.73858 0.95767 0.31832 0.0
H809 H 0.69564 0.90497 0.41796 0.0
H810 H 0.5806 0.93707 0.47436 0.0
H811 H 0.61653 0.92185 0.43094 0.0
C812 C 0.48312 0.73743 0.2402 0.0
C813 C 0.46173 0.74026 0.20891 0.0
C814 C 0.48535 0.72045 0.28693 0.0
C815 C 0.44986 0.67562 0.37686 0.0
H816 H 0.50869 0.64447 0.38363 0.0
C817 C 0.45532 0.5909 0.51425 0.0
C818 C 0.47269 0.57513 0.5016 0.0
C819 C 0.45599 0.6128 0.48771 0.0
C820 C 0.49191 0.65253 0.38164 0.0
H821 H 0.42551 0.72904 0.20574 0.0
H822 H 0.42938 0.69917 0.28313 0.0
H823 H 0.50562 0.67966 0.32364 0.0
H824 H 0.50405 0.56964 0.44905 0.0
H825 H 0.50381 0.60693 0.39598 0.0
H826 H 0.43516 0.64768 0.42764 0.0
C827 C 0.44456 0.71 0.27406 0.0
C828 C 0.4903 0.6733 0.34811 0.0
C829 C 0.44227 0.72718 0.22882 0.0
C830 C 0.4905 0.58155 0.45994 0.0
C831 C 0.49043 0.6032 0.43015 0.0
C832 C 0.45116 0.65451 0.40781 0.0
C833 C 0.4663 0.70575 0.30264 0.0
C834 C 0.4691 0.68505 0.34437 0.0
C835 C 0.4731 0.61932 0.44356 0.0
C836 C 0.47219 0.64239 0.41096 0.0
H837 H 0.49847 0.74722 0.22572 0.0
H838 H 0.50225 0.71833 0.30883 0.0
H839 H 0.43335 0.68422 0.37756 0.0
H840 H 0.44147 0.5866 0.54683 0.0
H841 H 0.44291 0.62449 0.50287 0.0
C842 C 0.77911 0.58514 0.22096 0.0
C843 C 0.76399 0.56864 0.19414 0.0
C844 C 0.79731 0.57852 0.26079 0.0
C845 C 0.83593 0.53022 0.28082 0.0
H846 H 0.85753 0.56028 0.43153 0.0
C847 C 0.90992 0.49332 0.43108 0.0
C848 C 0.92514 0.50803 0.46424 0.0
C849 C 0.89082 0.50185 0.39818 0.0
C850 C 0.85198 0.55193 0.38892 0.0
H851 H 0.75531 0.53245 0.19023 0.0
H852 H 0.78704 0.52078 0.26021 0.0
H853 H 0.82149 0.57254 0.38034 0.0
H854 H 0.93252 0.54351 0.48715 0.0
H855 H 0.89936 0.55864 0.42784 0.0
H856 H 0.8665 0.51008 0.28768 0.0
C857 C 0.78482 0.53886 0.25043 0.0
C858 C 0.8312 0.55885 0.35993 0.0
C859 C 0.76644 0.54553 0.21119 0.0
C860 C 0.92124 0.53172 0.46171 0.0
C861 C 0.90203 0.54034 0.42839 0.0
C862 C 0.85677 0.52351 0.30921 0.0
C863 C 0.80098 0.55521 0.27379 0.0
C864 C 0.82278 0.54785 0.30598 0.0
C865 C 0.88635 0.52544 0.39685 0.0
C866 C 0.86499 0.53402 0.36419 0.0
H867 H 0.77782 0.60304 0.20761 0.0
H868 H 0.80948 0.59151 0.27774 0.0
H869 H 0.83029 0.52181 0.23834 0.0
H870 H 0.9123 0.47496 0.43207 0.0
H871 H 0.87907 0.48971 0.3756 0.0
loop_
_geom_bond_atom_site_label_1
_geom_bond_atom_site_label_2
_geom_bond_distance
_geom_bond_site_symmetry_2
_ccdc_geom_bond_type
H0 C3 0.931 . S
H1 C6 0.928 . S
H2 C8 0.930 . S
C3 H0 0.931 . S
C3 C4 1.413 . S
C3 C5 1.360 1_554 S
C4 C3 1.413 . S
C4 C8 1.429 . S
C5 C3 1.360 1_556 S
C5 C6 1.372 . S
C6 H1 0.928 . S
C6 C5 1.372 . S
C6 C7 1.404 . S
C7 C6 1.404 . S
C7 C8 1.391 1_556 S
C8 H2 0.930 . S
C8 C4 1.429 . S
C8 C7 1.391 1_554 S
H9 C12 0.930 . S
H10 C15 0.928 . S
H11 C17 0.929 . S
C12 H9 0.930 . S
C12 C13 1.413 . S
C12 C14 1.360 1_554 S
C13 C12 1.413 . S
C13 C17 1.429 1_655 S
C14 C12 1.360 1_556 S
C14 C15 1.372 . S
C15 H10 0.928 . S
C15 C14 1.372 . S
C15 C16 1.405 1_556 S
C16 C15 1.405 1_554 S
C16 C17 1.391 1_655 S
C17 H11 0.929 . S
C17 C13 1.429 1_455 S
C17 C16 1.391 1_455 S
H18 C21 0.931 . S
H19 C24 0.928 . S
H20 C26 0.930 . S
C21 H18 0.931 . S
C21 C22 1.413 . S
C21 C23 1.360 1_554 S
C22 C21 1.413 . S
C22 C26 1.429 . S
C23 C21 1.360 1_556 S
C23 C24 1.372 . S
C24 H19 0.928 . S
C24 C23 1.372 . S
C24 C25 1.404 1_556 S
C25 C24 1.404 1_554 S
C25 C26 1.391 . S
C26 H20 0.930 . S
C26 C22 1.429 . S
C26 C25 1.391 . S
H27 C30 0.931 . S
H28 C33 0.928 . S
H29 C35 0.930 . S
C30 H27 0.931 . S
C30 C31 1.413 1_554 S
C30 C32 1.360 . S
C31 C30 1.413 1_556 S
C31 C35 1.429 . S
C32 C30 1.360 . S
C32 C33 1.372 . S
C33 H28 0.928 . S
C33 C32 1.372 . S
C33 C34 1.404 . S
C34 C33 1.404 . S
C34 C35 1.391 1_554 S
C35 H29 0.930 . S
C35 C31 1.429 . S
C35 C34 1.391 1_556 S
H36 C39 0.931 . S
H37 C42 0.928 . S
H38 C44 0.930 . S
C39 H36 0.931 . S
C39 C40 1.413 . S
C39 C41 1.360 . S
C40 C39 1.413 . S
C40 C44 1.429 . S
C41 C39 1.360 . S
C41 C42 1.372 . S
C42 H37 0.928 . S
C42 C41 1.372 . S
C42 C43 1.404 . S
C43 C42 1.404 . S
C43 C44 1.391 . S
C44 H38 0.930 . S
C44 C40 1.429 . S
C44 C43 1.391 . S
H45 C48 0.931 . S
H46 C51 0.928 . S
H47 C53 0.930 . S
C48 H45 0.931 . S
C48 C49 1.413 . S
C48 C50 1.360 . S
C49 C48 1.413 . S
C49 C53 1.429 1_655 S
C50 C48 1.360 . S
C50 C51 1.372 . S
C51 H46 0.928 . S
C51 C50 1.372 . S
C51 C52 1.404 . S
C52 C51 1.404 . S
C52 C53 1.390 1_655 S
C53 H47 0.930 . S
C53 C49 1.429 1_455 S
C53 C52 1.390 1_455 S
H54 C57 0.931 . S
H55 C60 0.928 . S
H56 C62 0.930 . S
C57 H54 0.931 . S
C57 C58 1.413 . S
C57 C59 1.360 . S
C58 C57 1.413 . S
C58 C62 1.429 . S
C59 C57 1.360 . S
C59 C60 1.372 . S
C60 H55 0.928 . S
C60 C59 1.372 . S
C60 C61 1.404 . S
C61 C60 1.404 . S
C61 C62 1.391 . S
C62 H56 0.930 . S
C62 C58 1.429 . S
C62 C61 1.391 . S
H63 C66 0.931 . S
H64 C69 0.928 . S
H65 C71 0.930 . S
C66 H63 0.931 . S
C66 C67 1.413 . S
C66 C68 1.360 . S
C67 C66 1.413 . S
C67 C71 1.429 . S
C68 C66 1.360 . S
C68 C69 1.372 . S
C69 H64 0.928 . S
C69 C68 1.372 . S
C69 C70 1.404 . S
C70 C69 1.404 . S
C70 C71 1.391 . S
C71 H65 0.930 . S
C71 C67 1.429 . S
C71 C70 1.391 . S
Zn72 O78 1.969 . S
Zn72 O79 1.965 1_655 S
Zn72 O83 2.024 1_655 S
Zn72 O88 1.969 . S
Zn73 O80 1.969 . S
Zn73 O86 1.969 . S
Zn73 O87 1.965 1_455 S
Zn73 O89 2.024 1_455 S
C74 O75 1.229 1_455 S
C74 O83 1.058 . S
O75 C74 1.229 1_655 S
C76 O77 1.229 1_655 S
C76 O89 1.058 . S
O77 C76 1.229 1_455 S
O78 Zn72 1.969 . S
O78 C81 1.267 . S
O79 Zn72 1.965 1_455 S
O79 C90 1.260 . S
O80 Zn73 1.969 . S
O80 C90 1.258 1_565 S
C81 O78 1.267 . S
C81 O82 1.228 1_655 S
O82 C81 1.228 1_455 S
O83 Zn72 2.024 1_455 S
O83 C74 1.058 . S
C84 O85 1.228 1_455 S
C84 O86 1.267 . S
O85 C84 1.228 1_655 S
O86 Zn73 1.969 . S
O86 C84 1.267 . S
O87 Zn73 1.965 1_655 S
O87 C91 1.264 . S
O88 Zn72 1.969 . S
O88 C91 1.251 1_545 S
O89 Zn73 2.024 1_655 S
O89 C76 1.058 . S
C90 O79 1.260 . S
C90 O80 1.258 1_545 S
C91 O87 1.264 . S
C91 O88 1.251 1_565 S
Zn92 O98 1.956 1_545 S
Zn92 O99 1.965 . S
Zn92 O103 2.024 . S
Zn92 O108 1.969 1_545 S
Zn93 O100 1.969 1_565 S
Zn93 O106 1.969 1_565 S
Zn93 O107 1.965 . S
Zn93 O109 2.024 . S
C94 O95 1.229 . S
C94 O103 1.058 . S
O95 C94 1.229 . S
C96 O97 1.229 . S
C96 O109 1.058 . S
O97 C96 1.229 . S
O98 Zn92 1.956 1_565 S
O98 C101 1.236 1_565 S
O99 Zn92 1.965 . S
O99 C110 1.260 . S
O100 Zn93 1.969 1_545 S
O100 C110 1.258 . S
C101 O98 1.236 1_545 S
C101 O102 1.228 . S
O102 C101 1.228 . S
O103 Zn92 2.024 . S
O103 C94 1.058 . S
C104 O105 1.228 . S
C104 O106 1.267 1_565 S
O105 C104 1.228 . S
O106 Zn93 1.969 1_545 S
O106 C104 1.267 1_545 S
O107 Zn93 1.965 . S
O107 C111 1.260 . S
O108 Zn92 1.969 1_565 S
O108 C111 1.258 . S
O109 Zn93 2.024 . S
O109 C96 1.058 . S
C110 O99 1.260 . S
C110 O100 1.258 . S
C111 O107 1.260 . S
C111 O108 1.258 . S
Zn112 O118 1.969 . S
Zn112 O119 1.965 . S
Zn112 O123 2.024 . S
Zn112 O128 1.969 . S
Zn113 O120 1.969 . S
Zn113 O126 1.969 . S
Zn113 O127 1.965 . S
Zn113 O129 2.024 . S
C114 O115 1.229 . S
C114 O123 1.058 . S
O115 C114 1.229 . S
C116 O117 1.229 . S
C116 O129 1.058 . S
O117 C116 1.229 . S
O118 Zn112 1.969 . S
O118 C121 1.267 . S
O119 Zn112 1.965 . S
O119 C130 1.260 . S
O120 Zn113 1.969 . S
O120 C130 1.258 . S
C121 O118 1.267 . S
C121 O122 1.228 . S
O122 C121 1.228 . S
O123 Zn112 2.024 . S
O123 C114 1.058 . S
C124 O125 1.228 . S
C124 O126 1.267 . S
O125 C124 1.228 . S
O126 Zn113 1.969 . S
O126 C124 1.267 . S
O127 Zn113 1.965 . S
O127 C131 1.260 . S
O128 Zn112 1.969 . S
O128 C131 1.258 . S
O129 Zn113 2.024 . S
O129 C116 1.058 . S
C130 O119 1.260 . S
C130 O120 1.258 . S
C131 O127 1.260 . S
C131 O128 1.258 . S
Zn132 O138 1.969 . S
Zn132 O139 1.965 . S
Zn132 O143 2.024 . S
Zn132 O148 1.969 . S
Zn133 O140 1.969 . S
Zn133 O146 1.969 . S
Zn133 O147 1.965 . S
Zn133 O149 2.024 . S
C134 O135 1.229 . S
C134 O143 1.058 . S
O135 C134 1.229 . S
C136 O137 1.229 . S
C136 O149 1.058 . S
O137 C136 1.229 . S
O138 Zn132 1.969 . S
O138 C141 1.267 . S
O139 Zn132 1.965 . S
O139 C150 1.260 1_455 S
O140 Zn133 1.969 . S
O140 C150 1.258 . S
C141 O138 1.267 . S
C141 O142 1.228 . S
O142 C141 1.228 . S
O143 Zn132 2.024 . S
O143 C134 1.058 . S
C144 O145 1.228 . S
C144 O146 1.267 . S
O145 C144 1.228 . S
O146 Zn133 1.969 . S
O146 C144 1.267 . S
O147 Zn133 1.965 . S
O147 C151 1.260 1_655 S
O148 Zn132 1.969 . S
O148 C151 1.258 . S
O149 Zn133 2.024 . S
O149 C136 1.058 . S
C150 O139 1.260 1_655 S
C150 O140 1.258 . S
C151 O147 1.260 1_455 S
C151 O148 1.258 . S
C152 C153 1.349 . S
C152 C154 1.327 . S
C152 H177 0.950 . S
C153 C152 1.349 . S
C153 C169 1.349 . S
C154 C152 1.327 . S
C154 C173 1.429 . S
C154 H178 0.950 . S
C155 C172 1.574 . S
C155 C174 1.368 . S
C155 H179 0.949 . S
H156 C160 0.949 . S
C157 C158 1.349 . S
C157 C159 1.327 . S
C157 H180 0.950 1_545 S
C158 C157 1.349 . S
C158 C170 1.349 . S
C159 C157 1.327 . S
C159 C175 1.429 . S
C159 H181 0.976 . S
C160 H156 0.949 . S
C160 C168 1.574 . S
C160 C176 1.368 . S
H161 C169 0.950 . S
H162 C167 0.950 . S
H163 C168 0.949 . S
H164 C170 0.950 . S
H165 C171 0.950 . S
H166 C172 0.949 . S
C167 H162 0.950 . S
C167 C169 1.327 . S
C167 C173 1.429 . S
C168 C160 1.574 . S
C168 H163 0.949 . S
C168 C174 1.368 . S
C169 C153 1.349 . S
C169 H161 0.950 . S
C169 C167 1.327 . S
C170 C158 1.349 . S
C170 H164 0.950 . S
C170 C171 1.327 . S
C171 H165 0.950 . S
C171 C170 1.327 . S
C171 C175 1.429 . S
C172 C155 1.574 . S
C172 H166 0.949 . S
C172 C176 1.368 . S
C173 C154 1.429 . S
C173 C167 1.429 . S
C173 C174 1.523 . S
C174 C155 1.368 . S
C174 C168 1.368 . S
C174 C173 1.523 . S
C175 C159 1.429 . S
C175 C171 1.429 . S
C175 C176 1.523 . S
C176 C160 1.368 . S
C176 C172 1.368 . S
C176 C175 1.523 . S
H177 C152 0.950 . S
H178 C154 0.950 . S
H179 C155 0.949 . S
H180 C157 0.950 1_565 S
H181 C159 0.976 . S
C182 C183 1.349 . S
C182 C184 1.327 . S
C182 H207 0.950 . S
C183 C182 1.349 . S
C183 C199 1.349 . S
C184 C182 1.327 . S
C184 C203 1.429 . S
C184 H208 0.950 . S
C185 C202 1.574 . S
C185 C204 1.368 . S
C185 H209 0.949 . S
H186 C190 0.949 . S
C187 C188 1.349 . S
C187 C189 1.327 . S
C187 H210 0.950 . S
C188 C187 1.349 . S
C188 C200 1.349 . S
C189 C187 1.327 . S
C189 C205 1.429 . S
C189 H211 0.950 . S
C190 H186 0.949 . S
C190 C198 1.574 . S
C190 C206 1.368 . S
H191 C199 0.950 . S
H192 C197 0.950 . S
H193 C198 0.949 . S
H194 C200 0.950 . S
H195 C201 0.950 . S
H196 C202 0.949 . S
C197 H192 0.950 . S
C197 C199 1.327 . S
C197 C203 1.429 . S
C198 C190 1.574 . S
C198 H193 0.949 . S
C198 C204 1.368 . S
C199 C183 1.349 . S
C199 H191 0.950 . S
C199 C197 1.327 . S
C200 C188 1.349 . S
C200 H194 0.950 . S
C200 C201 1.327 . S
C201 H195 0.950 . S
C201 C200 1.327 . S
C201 C205 1.429 . S
C202 C185 1.574 . S
C202 H196 0.949 . S
C202 C206 1.368 . S
C203 C184 1.429 . S
C203 C197 1.429 . S
C203 C204 1.523 . S
C204 C185 1.368 . S
C204 C198 1.368 . S
C204 C203 1.523 . S
C205 C189 1.429 . S
C205 C201 1.429 . S
C205 C206 1.523 . S
C206 C190 1.368 . S
C206 C202 1.368 . S
C206 C205 1.523 . S
H207 C182 0.950 . S
H208 C184 0.950 . S
H209 C185 0.949 . S
H210 C187 0.950 . S
H211 C189 0.950 . S
C212 C213 1.349 . S
C212 C214 1.327 . S
C212 H237 0.950 . S
C213 C212 1.349 . S
C213 C229 1.349 . S
C214 C212 1.327 . S
C214 C233 1.429 . S
C214 H238 0.950 . S
C215 C232 1.574 . S
C215 C234 1.368 . S
C215 H239 0.949 . S
H216 C220 0.949 . S
C217 C218 1.349 . S
C217 C219 1.327 . S
C217 H240 0.950 . S
C218 C217 1.349 . S
C218 C230 1.349 . S
C219 C217 1.327 . S
C219 C235 1.429 . S
C219 H241 0.950 . S
C220 H216 0.949 . S
C220 C228 1.574 . S
C220 C236 1.368 . S
H221 C229 0.950 . S
H222 C227 0.950 . S
H223 C228 0.949 . S
H224 C230 0.950 . S
H225 C231 0.950 . S
H226 C232 0.949 . S
C227 H222 0.950 . S
C227 C229 1.327 . S
C227 C233 1.429 . S
C228 C220 1.574 . S
C228 H223 0.949 . S
C228 C234 1.368 . S
C229 C213 1.349 . S
C229 H221 0.950 . S
C229 C227 1.327 . S
C230 C218 1.349 . S
C230 H224 0.950 . S
C230 C231 1.327 . S
C231 H225 0.950 . S
C231 C230 1.327 . S
C231 C235 1.429 . S
C232 C215 1.574 . S
C232 H226 0.949 . S
C232 C236 1.368 . S
C233 C214 1.429 . S
C233 C227 1.429 . S
C233 C234 1.523 . S
C234 C215 1.368 . S
C234 C228 1.368 . S
C234 C233 1.523 . S
C235 C219 1.429 . S
C235 C231 1.429 . S
C235 C236 1.523 . S
C236 C220 1.368 . S
C236 C232 1.368 . S
C236 C235 1.523 . S
H237 C212 0.950 . S
H238 C214 0.950 . S
H239 C215 0.949 . S
H240 C217 0.950 . S
H241 C219 0.950 . S
C242 C243 1.346 1_455 S
C242 C244 1.327 . S
C242 H267 0.950 . S
C243 C242 1.346 1_655 S
C243 C259 1.351 . S
C244 C242 1.327 . S
C244 C263 1.429 1_455 S
C244 H268 0.950 . S
C245 C262 1.574 . S
C245 C264 1.368 . S
C245 H269 0.949 . S
H246 C250 0.949 . S
C247 C248 1.349 . S
C247 C249 1.327 . S
C247 H270 0.950 . S
C248 C247 1.349 . S
C248 C260 1.349 1_655 S
C249 C247 1.327 . S
C249 C265 1.429 . S
C249 H271 0.950 . S
C250 H246 0.949 . S
C250 C258 1.574 . S
C250 C266 1.368 1_455 S
H251 C259 0.950 . S
H252 C257 0.950 . S
H253 C258 0.949 . S
H254 C260 0.950 . S
H255 C261 0.950 . S
H256 C262 0.949 . S
C257 H252 0.950 . S
C257 C259 1.327 . S
C257 C263 1.429 . S
C258 C250 1.574 . S
C258 H253 0.949 . S
C258 C264 1.368 1_455 S
C259 C243 1.351 . S
C259 H251 0.950 . S
C259 C257 1.327 . S
C260 C248 1.349 1_455 S
C260 H254 0.950 . S
C260 C261 1.327 . S
C261 H255 0.950 . S
C261 C260 1.327 . S
C261 C265 1.429 1_455 S
C262 C245 1.574 . S
C262 H256 0.949 . S
C262 C266 1.368 . S
C263 C244 1.429 1_655 S
C263 C257 1.429 . S
C263 C264 1.523 . S
C264 C245 1.368 . S
C264 C258 1.368 1_655 S
C264 C263 1.523 . S
C265 C249 1.429 . S
C265 C261 1.429 1_655 S
C265 C266 1.523 . S
C266 C250 1.368 1_655 S
C266 C262 1.368 . S
C266 C265 1.523 . S
H267 C242 0.950 . S
H268 C244 0.950 . S
H269 C245 0.949 . S
H270 C247 0.950 . S
H271 C249 0.950 . S
C272 C273 1.349 1_554 S
C272 C274 1.327 1_554 S
C272 H297 0.950 . S
C273 C272 1.349 1_556 S
C273 C289 1.349 . S
C274 C272 1.327 1_556 S
C274 C293 1.429 . S
C274 H298 0.950 . S
C275 C292 1.574 . S
C275 C294 1.368 . S
C275 H299 0.949 . S
H276 C280 0.949 . S
C277 C278 1.349 . S
C277 C279 1.327 . S
C277 H300 0.950 . S
C278 C277 1.349 . S
C278 C290 1.349 . S
C279 C277 1.327 . S
C279 C295 1.429 . S
C279 H301 0.950 . S
C280 H276 0.949 . S
C280 C288 1.574 . S
C280 C296 1.368 . S
H281 C289 0.950 . S
H282 C287 0.950 . S
H283 C288 0.949 . S
H284 C290 0.950 1_545 S
H285 C291 0.950 . S
H286 C292 0.949 . S
C287 H282 0.950 . S
C287 C289 1.327 . S
C287 C293 1.429 . S
C288 C280 1.574 . S
C288 H283 0.949 . S
C288 C294 1.368 . S
C289 C273 1.349 . S
C289 H281 0.950 . S
C289 C287 1.327 . S
C290 C278 1.349 . S
C290 H284 0.950 1_565 S
C290 C291 1.327 . S
C291 H285 0.950 . S
C291 C290 1.327 . S
C291 C295 1.429 . S
C292 C275 1.574 . S
C292 H286 0.949 . S
C292 C296 1.368 . S
C293 C274 1.429 . S
C293 C287 1.429 . S
C293 C294 1.523 . S
C294 C275 1.368 . S
C294 C288 1.368 . S
C294 C293 1.523 . S
C295 C279 1.429 . S
C295 C291 1.429 . S
C295 C296 1.523 . S
C296 C280 1.368 . S
C296 C292 1.368 . S
C296 C295 1.523 . S
H297 C272 0.950 . S
H298 C274 0.950 . S
H299 C275 0.949 . S
H300 C277 0.950 . S
H301 C279 0.950 . S
C302 C303 1.349 1_554 S
C302 C304 1.327 1_554 S
C302 H327 0.950 . S
C303 C302 1.349 1_556 S
C303 C319 1.349 . S
C304 C302 1.327 1_556 S
C304 C323 1.429 . S
C304 H328 0.950 . S
C305 C322 1.574 . S
C305 C324 1.368 . S
C305 H329 0.949 . S
H306 C310 0.949 . S
C307 C308 1.349 . S
C307 C309 1.327 . S
C307 H330 0.950 . S
C308 C307 1.349 . S
C308 C320 1.349 . S
C309 C307 1.327 . S
C309 C325 1.429 . S
C309 H331 0.950 . S
C310 H306 0.949 . S
C310 C318 1.574 . S
C310 C326 1.368 . S
H311 C319 0.950 . S
H312 C317 0.950 . S
H313 C318 0.949 . S
H314 C320 0.950 . S
H315 C321 0.950 . S
H316 C322 0.949 . S
C317 H312 0.950 . S
C317 C319 1.327 . S
C317 C323 1.429 . S
C318 C310 1.574 . S
C318 H313 0.949 . S
C318 C324 1.368 . S
C319 C303 1.349 . S
C319 H311 0.950 . S
C319 C317 1.327 . S
C320 C308 1.349 . S
C320 H314 0.950 . S
C320 C321 1.327 . S
C321 H315 0.950 . S
C321 C320 1.327 . S
C321 C325 1.429 . S
C322 C305 1.574 . S
C322 H316 0.949 . S
C322 C326 1.368 . S
C323 C304 1.429 . S
C323 C317 1.429 . S
C323 C324 1.523 . S
C324 C305 1.368 . S
C324 C318 1.368 . S
C324 C323 1.523 . S
C325 C309 1.429 . S
C325 C321 1.429 . S
C325 C326 1.523 . S
C326 C310 1.368 . S
C326 C322 1.368 . S
C326 C325 1.523 . S
H327 C302 0.950 . S
H328 C304 0.950 . S
H329 C305 0.949 . S
H330 C307 0.950 . S
H331 C309 0.950 . S
C332 C333 1.349 . S
C332 C334 1.327 . S
C332 H357 0.950 1_556 S
C333 C332 1.349 . S
C333 C349 1.349 . S
C334 C332 1.327 . S
C334 C353 1.429 . S
C334 H358 0.950 . S
C335 C352 1.574 . S
C335 C354 1.368 . S
C335 H359 0.949 . S
H336 C340 0.949 . S
C337 C338 1.349 . S
C337 C339 1.327 . S
C337 H360 0.950 . S
C338 C337 1.349 . S
C338 C350 1.349 . S
C339 C337 1.327 . S
C339 C355 1.429 . S
C339 H361 0.950 . S
C340 H336 0.949 . S
C340 C348 1.574 . S
C340 C356 1.368 . S
H341 C349 0.950 . S
H342 C347 0.950 . S
H343 C348 0.949 . S
H344 C350 0.950 . S
H345 C351 0.950 . S
H346 C352 0.949 . S
C347 H342 0.950 . S
C347 C349 1.327 . S
C347 C353 1.429 . S
C348 C340 1.574 . S
C348 H343 0.949 . S
C348 C354 1.368 . S
C349 C333 1.349 . S
C349 H341 0.950 . S
C349 C347 1.327 . S
C350 C338 1.349 . S
C350 H344 0.950 . S
C350 C351 1.327 . S
C351 H345 0.950 . S
C351 C350 1.327 . S
C351 C355 1.429 . S
C352 C335 1.574 . S
C352 H346 0.949 . S
C352 C356 1.368 . S
C353 C334 1.429 . S
C353 C347 1.429 . S
C353 C354 1.523 . S
C354 C335 1.368 . S
C354 C348 1.368 . S
C354 C353 1.523 . S
C355 C339 1.429 . S
C355 C351 1.429 . S
C355 C356 1.523 . S
C356 C340 1.368 . S
C356 C352 1.368 . S
C356 C355 1.523 . S
H357 C332 0.950 1_554 S
H358 C334 0.950 . S
H359 C335 0.949 . S
H360 C337 0.950 . S
H361 C339 0.950 . S
C362 C363 1.349 1_554 S
C362 C364 1.327 1_554 S
C362 H387 0.950 . S
C363 C362 1.349 1_556 S
C363 C379 1.349 1_455 S
C364 C362 1.327 1_556 S
C364 C383 1.429 . S
C364 H388 0.950 . S
C365 C382 1.573 . S
C365 C384 1.364 1_655 S
C365 H389 0.955 . S
H366 C370 0.949 . S
C367 C368 1.349 . S
C367 C369 1.327 . S
C367 H390 0.950 . S
C368 C367 1.349 . S
C368 C380 1.349 . S
C369 C367 1.327 . S
C369 C385 1.429 . S
C369 H391 0.944 1_455 S
C370 H366 0.949 . S
C370 C378 1.574 . S
C370 C386 1.368 . S
H371 C379 0.950 . S
H372 C377 0.950 . S
H373 C378 0.949 . S
H374 C380 0.950 . S
H375 C381 0.950 . S
H376 C382 0.949 . S
C377 H372 0.950 . S
C377 C379 1.327 . S
C377 C383 1.429 1_655 S
C378 C370 1.574 . S
C378 H373 0.949 . S
C378 C384 1.368 . S
C379 C363 1.349 1_655 S
C379 H371 0.950 . S
C379 C377 1.327 . S
C380 C368 1.349 . S
C380 H374 0.950 . S
C380 C381 1.327 . S
C381 H375 0.950 . S
C381 C380 1.327 . S
C381 C385 1.429 . S
C382 C365 1.573 . S
C382 H376 0.949 . S
C382 C386 1.368 1_655 S
C383 C364 1.429 . S
C383 C377 1.429 1_455 S
C383 C384 1.523 . S
C384 C365 1.364 1_455 S
C384 C378 1.368 . S
C384 C383 1.523 . S
C385 C369 1.429 . S
C385 C381 1.429 . S
C385 C386 1.523 . S
C386 C370 1.368 . S
C386 C382 1.368 1_455 S
C386 C385 1.523 . S
H387 C362 0.950 . S
H388 C364 0.950 . S
H389 C365 0.955 . S
H390 C367 0.950 . S
H391 C369 0.944 1_655 S
C392 C393 1.333 1_655 S
C392 C394 1.327 . S
C392 H417 0.950 . S
C393 C392 1.333 1_455 S
C393 C409 1.363 . S
C394 C392 1.327 . S
C394 C413 1.429 . S
C394 H418 0.950 . S
C395 C412 1.574 . S
C395 C414 1.368 1_455 S
C395 H419 0.949 . S
H396 C400 0.949 . S
C397 C398 1.349 . S
C397 C399 1.327 1_655 S
C397 H420 0.950 1_655 S
C398 C397 1.349 . S
C398 C410 1.349 . S
C399 C397 1.327 1_455 S
C399 C415 1.429 1_455 S
C399 H421 0.950 . S
C400 H396 0.949 . S
C400 C408 1.574 . S
C400 C416 1.368 . S
H401 C409 0.950 . S
H402 C407 0.950 . S
H403 C408 0.949 . S
H404 C410 0.950 . S
H405 C411 0.950 . S
H406 C412 0.949 . S
C407 H402 0.950 . S
C407 C409 1.327 . S
C407 C413 1.429 1_455 S
C408 C400 1.574 . S
C408 H403 0.949 . S
C408 C414 1.368 . S
C409 C393 1.363 . S
C409 H401 0.950 . S
C409 C407 1.327 . S
C410 C398 1.349 . S
C410 H404 0.950 . S
C410 C411 1.327 . S
C411 H405 0.950 . S
C411 C410 1.327 . S
C411 C415 1.429 . S
C412 C395 1.574 . S
C412 H406 0.949 . S
C412 C416 1.368 1_455 S
C413 C394 1.429 . S
C413 C407 1.429 1_655 S
C413 C414 1.523 . S
C414 C395 1.368 1_655 S
C414 C408 1.368 . S
C414 C413 1.523 . S
C415 C399 1.429 1_655 S
C415 C411 1.429 . S
C415 C416 1.523 . S
C416 C400 1.368 . S
C416 C412 1.368 1_655 S
C416 C415 1.523 . S
H417 C392 0.950 . S
H418 C394 0.950 . S
H419 C395 0.949 . S
H420 C397 0.950 1_455 S
H421 C399 0.950 . S
C422 C423 1.349 . S
C422 C424 1.327 . S
C422 H447 0.950 . S
C423 C422 1.349 . S
C423 C439 1.349 . S
C424 C422 1.327 . S
C424 C443 1.429 . S
C424 H448 0.950 . S
C425 C442 1.574 . S
C425 C444 1.368 . S
C425 H449 0.949 . S
H426 C430 0.949 . S
C427 C428 1.349 . S
C427 C429 1.327 . S
C427 H450 0.950 . S
C428 C427 1.349 . S
C428 C440 1.349 . S
C429 C427 1.327 . S
C429 C445 1.429 . S
C429 H451 0.950 . S
C430 H426 0.949 . S
C430 C438 1.574 . S
C430 C446 1.368 . S
H431 C439 0.950 . S
H432 C437 0.950 . S
H433 C438 0.949 . S
H434 C440 0.950 1_565 S
H435 C441 0.950 . S
H436 C442 0.949 . S
C437 H432 0.950 . S
C437 C439 1.327 . S
C437 C443 1.429 . S
C438 C430 1.574 . S
C438 H433 0.949 . S
C438 C444 1.368 . S
C439 C423 1.349 . S
C439 H431 0.950 . S
C439 C437 1.327 . S
C440 C428 1.349 . S
C440 H434 0.950 1_545 S
C440 C441 1.327 . S
C441 H435 0.950 . S
C441 C440 1.327 . S
C441 C445 1.429 . S
C442 C425 1.574 . S
C442 H436 0.949 . S
C442 C446 1.368 . S
C443 C424 1.429 . S
C443 C437 1.429 . S
C443 C444 1.523 . S
C444 C425 1.368 . S
C444 C438 1.368 . S
C444 C443 1.523 . S
C445 C429 1.429 . S
C445 C441 1.429 . S
C445 C446 1.523 . S
C446 C430 1.368 . S
C446 C442 1.368 . S
C446 C445 1.523 . S
H447 C422 0.950 . S
H448 C424 0.950 . S
H449 C425 0.949 . S
H450 C427 0.950 . S
H451 C429 0.950 . S
C452 C453 1.349 . S
C452 C454 1.327 . S
C452 H477 0.950 . S
C453 C452 1.349 . S
C453 C469 1.349 . S
C454 C452 1.327 . S
C454 C473 1.429 . S
C454 H478 0.950 . S
C455 C472 1.574 . S
C455 C474 1.368 . S
C455 H479 0.949 . S
H456 C460 0.949 . S
C457 C458 1.349 . S
C457 C459 1.327 . S
C457 H480 0.950 . S
C458 C457 1.349 . S
C458 C470 1.349 . S
C459 C457 1.327 . S
C459 C475 1.429 . S
C459 H481 0.950 . S
C460 H456 0.949 . S
C460 C468 1.574 . S
C460 C476 1.368 . S
H461 C469 0.950 . S
H462 C467 0.950 . S
H463 C468 0.949 . S
H464 C470 0.950 . S
H465 C471 0.950 . S
H466 C472 0.949 . S
C467 H462 0.950 . S
C467 C469 1.327 . S
C467 C473 1.429 . S
C468 C460 1.574 . S
C468 H463 0.949 . S
C468 C474 1.368 . S
C469 C453 1.349 . S
C469 H461 0.950 . S
C469 C467 1.327 . S
C470 C458 1.349 . S
C470 H464 0.950 . S
C470 C471 1.327 . S
C471 H465 0.950 . S
C471 C470 1.327 . S
C471 C475 1.429 . S
C472 C455 1.574 . S
C472 H466 0.949 . S
C472 C476 1.368 . S
C473 C454 1.429 . S
C473 C467 1.429 . S
C473 C474 1.523 . S
C474 C455 1.368 . S
C474 C468 1.368 . S
C474 C473 1.523 . S
C475 C459 1.429 . S
C475 C471 1.429 . S
C475 C476 1.523 . S
C476 C460 1.368 . S
C476 C472 1.368 . S
C476 C475 1.523 . S
H477 C452 0.950 . S
H478 C454 0.950 . S
H479 C455 0.949 . S
H480 C457 0.950 . S
H481 C459 0.950 . S
C482 C483 1.349 . S
C482 C484 1.327 . S
C482 H507 0.950 . S
C483 C482 1.349 . S
C483 C499 1.349 . S
C484 C482 1.327 . S
C484 C503 1.429 . S
C484 H508 0.950 . S
C485 C502 1.574 . S
C485 C504 1.368 . S
C485 H509 0.949 . S
H486 C490 0.949 . S
C487 C488 1.349 . S
C487 C489 1.327 . S
C487 H510 0.950 . S
C488 C487 1.349 . S
C488 C500 1.349 . S
C489 C487 1.327 . S
C489 C505 1.429 . S
C489 H511 0.950 . S
C490 H486 0.949 . S
C490 C498 1.574 . S
C490 C506 1.368 . S
H491 C499 0.950 . S
H492 C497 0.950 . S
H493 C498 0.949 . S
H494 C500 0.950 . S
H495 C501 0.950 . S
H496 C502 0.949 . S
C497 H492 0.950 . S
C497 C499 1.327 . S
C497 C503 1.429 . S
C498 C490 1.574 . S
C498 H493 0.949 . S
C498 C504 1.368 . S
C499 C483 1.349 . S
C499 H491 0.950 . S
C499 C497 1.327 . S
C500 C488 1.349 . S
C500 H494 0.950 . S
C500 C501 1.327 . S
C501 H495 0.950 . S
C501 C500 1.327 . S
C501 C505 1.429 . S
C502 C485 1.574 . S
C502 H496 0.949 . S
C502 C506 1.368 . S
C503 C484 1.429 . S
C503 C497 1.429 . S
C503 C504 1.523 . S
C504 C485 1.368 . S
C504 C498 1.368 . S
C504 C503 1.523 . S
C505 C489 1.429 . S
C505 C501 1.429 . S
C505 C506 1.523 . S
C506 C490 1.368 . S
C506 C502 1.368 . S
C506 C505 1.523 . S
H507 C482 0.950 . S
H508 C484 0.950 . S
H509 C485 0.949 . S
H510 C487 0.950 . S
H511 C489 0.950 . S
C512 C513 1.334 1_455 S
C512 C514 1.327 . S
C512 H537 0.950 1_556 S
C513 C512 1.334 1_655 S
C513 C529 1.362 . S
C514 C512 1.327 . S
C514 C533 1.429 . S
C514 H538 0.950 . S
C515 C532 1.574 . S
C515 C534 1.368 1_655 S
C515 H539 0.949 . S
H516 C520 0.949 . S
C517 C518 1.349 . S
C517 C519 1.329 . S
C517 H540 0.950 1_455 S
C518 C517 1.349 . S
C518 C530 1.349 . S
C519 C517 1.329 . S
C519 C535 1.439 . S
C519 H541 0.937 1_455 S
C520 H516 0.949 . S
C520 C528 1.574 . S
C520 C536 1.368 . S
H521 C529 0.950 . S
H522 C527 0.950 . S
H523 C528 0.949 . S
H524 C530 0.950 . S
H525 C531 0.950 . S
H526 C532 0.949 . S
C527 H522 0.950 . S
C527 C529 1.327 . S
C527 C533 1.429 1_655 S
C528 C520 1.574 . S
C528 H523 0.949 . S
C528 C534 1.368 . S
C529 C513 1.362 . S
C529 H521 0.950 . S
C529 C527 1.327 . S
C530 C518 1.349 . S
C530 H524 0.950 . S
C530 C531 1.327 . S
C531 H525 0.950 . S
C531 C530 1.327 . S
C531 C535 1.429 . S
C532 C515 1.574 . S
C532 H526 0.949 . S
C532 C536 1.368 1_655 S
C533 C514 1.429 . S
C533 C527 1.429 1_455 S
C533 C534 1.523 . S
C534 C515 1.368 1_455 S
C534 C528 1.368 . S
C534 C533 1.523 . S
C535 C519 1.439 . S
C535 C531 1.429 . S
C535 C536 1.523 . S
C536 C520 1.368 . S
C536 C532 1.368 1_455 S
C536 C535 1.523 . S
H537 C512 0.950 1_554 S
H538 C514 0.950 . S
H539 C515 0.949 . S
H540 C517 0.950 1_655 S
H541 C519 0.937 1_655 S
C542 C543 1.349 . S
C542 C544 1.327 . S
C542 H567 0.950 1_556 S
C543 C542 1.349 . S
C543 C559 1.349 . S
C544 C542 1.327 . S
C544 C563 1.429 . S
C544 H568 0.950 . S
C545 C562 1.574 . S
C545 C564 1.368 . S
C545 H569 0.949 . S
H546 C550 0.949 . S
C547 C548 1.349 . S
C547 C549 1.327 . S
C547 H570 0.950 . S
C548 C547 1.349 . S
C548 C560 1.349 . S
C549 C547 1.327 . S
C549 C565 1.429 . S
C549 H571 0.950 . S
C550 H546 0.949 . S
C550 C558 1.574 . S
C550 C566 1.368 . S
H551 C559 0.950 . S
H552 C557 0.950 . S
H553 C558 0.949 . S
H554 C560 0.950 . S
H555 C561 0.950 . S
H556 C562 0.949 . S
C557 H552 0.950 . S
C557 C559 1.327 . S
C557 C563 1.429 . S
C558 C550 1.574 . S
C558 H553 0.949 . S
C558 C564 1.368 . S
C559 C543 1.349 . S
C559 H551 0.950 . S
C559 C557 1.327 . S
C560 C548 1.349 . S
C560 H554 0.950 . S
C560 C561 1.327 . S
C561 H555 0.950 . S
C561 C560 1.327 . S
C561 C565 1.429 . S
C562 C545 1.574 . S
C562 H556 0.949 . S
C562 C566 1.368 . S
C563 C544 1.429 . S
C563 C557 1.429 . S
C563 C564 1.523 . S
C564 C545 1.368 . S
C564 C558 1.368 . S
C564 C563 1.523 . S
C565 C549 1.429 . S
C565 C561 1.429 . S
C565 C566 1.523 . S
C566 C550 1.368 . S
C566 C562 1.368 . S
C566 C565 1.523 . S
H567 C542 0.950 1_554 S
H568 C544 0.950 . S
H569 C545 0.949 . S
H570 C547 0.950 . S
H571 C549 0.950 . S
C572 C573 1.349 . S
C572 C574 1.327 . S
C572 H597 0.950 1_556 S
C573 C572 1.349 . S
C573 C589 1.349 . S
C574 C572 1.327 . S
C574 C593 1.429 . S
C574 H598 0.950 . S
C575 C592 1.574 . S
C575 C594 1.368 . S
C575 H599 0.949 . S
H576 C580 0.949 . S
C577 C578 1.349 . S
C577 C579 1.327 . S
C577 H600 0.950 . S
C578 C577 1.349 . S
C578 C590 1.349 . S
C579 C577 1.327 . S
C579 C595 1.429 . S
C579 H601 0.950 . S
C580 H576 0.949 . S
C580 C588 1.574 . S
C580 C596 1.368 . S
H581 C589 0.950 . S
H582 C587 0.950 . S
H583 C588 0.949 . S
H584 C590 0.950 . S
H585 C591 0.950 . S
H586 C592 0.949 . S
C587 H582 0.950 . S
C587 C589 1.327 . S
C587 C593 1.429 . S
C588 C580 1.574 . S
C588 H583 0.949 . S
C588 C594 1.368 . S
C589 C573 1.349 . S
C589 H581 0.950 . S
C589 C587 1.327 . S
C590 C578 1.349 . S
C590 H584 0.950 . S
C590 C591 1.327 . S
C591 H585 0.950 . S
C591 C590 1.327 . S
C591 C595 1.429 . S
C592 C575 1.574 . S
C592 H586 0.949 . S
C592 C596 1.368 . S
C593 C574 1.429 . S
C593 C587 1.429 . S
C593 C594 1.523 . S
C594 C575 1.368 . S
C594 C588 1.368 . S
C594 C593 1.523 . S
C595 C579 1.429 . S
C595 C591 1.429 . S
C595 C596 1.523 . S
C596 C580 1.368 . S
C596 C592 1.368 . S
C596 C595 1.523 . S
H597 C572 0.950 1_554 S
H598 C574 0.950 . S
H599 C575 0.949 . S
H600 C577 0.950 . S
H601 C579 0.950 . S
C602 C603 1.349 . S
C602 C604 1.327 . S
C602 H627 0.950 . S
C603 C602 1.349 . S
C603 C619 1.349 . S
C604 C602 1.327 . S
C604 C623 1.429 . S
C604 H628 0.950 . S
C605 C622 1.574 . S
C605 C624 1.368 . S
C605 H629 0.949 . S
H606 C610 0.949 . S
C607 C608 1.349 . S
C607 C609 1.327 . S
C607 H630 0.950 . S
C608 C607 1.349 . S
C608 C620 1.349 . S
C609 C607 1.327 . S
C609 C625 1.429 . S
C609 H631 0.950 . S
C610 H606 0.949 . S
C610 C618 1.574 . S
C610 C626 1.368 . S
H611 C619 0.950 . S
H612 C617 0.950 . S
H613 C618 0.949 . S
H614 C620 0.950 . S
H615 C621 0.950 . S
H616 C622 0.949 . S
C617 H612 0.950 . S
C617 C619 1.327 . S
C617 C623 1.429 . S
C618 C610 1.574 . S
C618 H613 0.949 . S
C618 C624 1.368 . S
C619 C603 1.349 . S
C619 H611 0.950 . S
C619 C617 1.327 . S
C620 C608 1.349 . S
C620 H614 0.950 . S
C620 C621 1.327 . S
C621 H615 0.950 . S
C621 C620 1.327 . S
C621 C625 1.429 . S
C622 C605 1.574 . S
C622 H616 0.949 . S
C622 C626 1.368 . S
C623 C604 1.429 . S
C623 C617 1.429 . S
C623 C624 1.523 . S
C624 C605 1.368 . S
C624 C618 1.368 . S
C624 C623 1.523 . S
C625 C609 1.429 . S
C625 C621 1.429 . S
C625 C626 1.523 . S
C626 C610 1.368 . S
C626 C622 1.368 . S
C626 C625 1.523 . S
H627 C602 0.950 . S
H628 C604 0.950 . S
H629 C605 0.949 . S
H630 C607 0.950 . S
H631 C609 0.950 . S
C632 C633 1.359 . S
C632 C634 1.327 . S
C632 H657 0.950 . S
C633 C632 1.359 . S
C633 C649 1.341 1_454 S
C634 C632 1.327 . S
C634 C653 1.429 1_554 S
C634 H658 0.950 . S
C635 C652 1.574 . S
C635 C654 1.368 1_655 S
C635 H659 0.949 . S
H636 C640 0.949 . S
C637 C638 1.353 . S
C637 C639 1.325 1_455 S
C637 H660 0.946 1_455 S
C638 C637 1.353 . S
C638 C650 1.349 . S
C639 C637 1.325 1_655 S
C639 C655 1.421 1_655 S
C639 H661 0.960 . S
C640 H636 0.949 . S
C640 C648 1.574 . S
C640 C656 1.368 . S
H641 C649 0.950 . S
H642 C647 0.950 . S
H643 C648 0.949 . S
H644 C650 0.950 . S
H645 C651 0.950 . S
H646 C652 0.949 . S
C647 H642 0.950 . S
C647 C649 1.327 . S
C647 C653 1.429 1_655 S
C648 C640 1.574 . S
C648 H643 0.949 . S
C648 C654 1.368 . S
C649 C633 1.341 1_656 S
C649 H641 0.950 . S
C649 C647 1.327 . S
C650 C638 1.349 . S
C650 H644 0.950 . S
C650 C651 1.327 . S
C651 H645 0.950 . S
C651 C650 1.327 . S
C651 C655 1.429 . S
C652 C635 1.574 . S
C652 H646 0.949 . S
C652 C656 1.368 1_655 S
C653 C634 1.429 1_556 S
C653 C647 1.429 1_455 S
C653 C654 1.523 . S
C654 C635 1.368 1_455 S
C654 C648 1.368 . S
C654 C653 1.523 . S
C655 C639 1.421 1_455 S
C655 C651 1.429 . S
C655 C656 1.523 . S
C656 C640 1.368 . S
C656 C652 1.368 1_455 S
C656 C655 1.523 . S
H657 C632 0.950 . S
H658 C634 0.950 . S
H659 C635 0.949 . S
H660 C637 0.946 1_655 S
H661 C639 0.960 . S
C662 C663 1.349 1_556 S
C662 C664 1.327 . S
C662 H687 0.950 . S
C663 C662 1.349 1_554 S
C663 C679 1.349 . S
C664 C662 1.327 . S
C664 C683 1.429 . S
C664 H688 0.950 . S
C665 C682 1.574 . S
C665 C684 1.368 . S
C665 H689 0.949 . S
H666 C670 0.949 . S
C667 C668 1.349 . S
C667 C669 1.327 . S
C667 H690 0.950 . S
C668 C667 1.349 . S
C668 C680 1.349 . S
C669 C667 1.327 . S
C669 C685 1.429 . S
C669 H691 0.950 . S
C670 H666 0.949 . S
C670 C678 1.574 . S
C670 C686 1.368 . S
H671 C679 0.950 . S
H672 C677 0.950 . S
H673 C678 0.949 . S
H674 C680 0.950 . S
H675 C681 0.950 . S
H676 C682 0.949 . S
C677 H672 0.950 . S
C677 C679 1.327 . S
C677 C683 1.429 1_554 S
C678 C670 1.574 . S
C678 H673 0.949 . S
C678 C684 1.368 . S
C679 C663 1.349 . S
C679 H671 0.950 . S
C679 C677 1.327 . S
C680 C668 1.349 . S
C680 H674 0.950 . S
C680 C681 1.327 . S
C681 H675 0.950 . S
C681 C680 1.327 . S
C681 C685 1.429 . S
C682 C665 1.574 . S
C682 H676 0.949 . S
C682 C686 1.368 . S
C683 C664 1.429 . S
C683 C677 1.429 1_556 S
C683 C684 1.523 . S
C684 C665 1.368 . S
C684 C678 1.368 . S
C684 C683 1.523 . S
C685 C669 1.429 . S
C685 C681 1.429 . S
C685 C686 1.523 . S
C686 C670 1.368 . S
C686 C682 1.368 . S
C686 C685 1.523 . S
H687 C662 0.950 . S
H688 C664 0.950 . S
H689 C665 0.949 . S
H690 C667 0.950 . S
H691 C669 0.950 . S
C692 C693 1.349 . S
C692 C694 1.327 1_554 S
C692 H717 0.950 . S
C693 C692 1.349 . S
C693 C709 1.349 1_554 S
C694 C692 1.327 1_556 S
C694 C713 1.429 . S
C694 H718 0.950 . S
C695 C712 1.574 . S
C695 C714 1.368 . S
C695 H719 0.949 . S
H696 C700 0.949 . S
C697 C698 1.349 . S
C697 C699 1.327 . S
C697 H720 0.950 . S
C698 C697 1.349 . S
C698 C710 1.349 . S
C699 C697 1.327 . S
C699 C715 1.429 . S
C699 H721 0.950 . S
C700 H696 0.949 . S
C700 C708 1.574 . S
C700 C716 1.368 . S
H701 C709 0.950 . S
H702 C707 0.950 . S
H703 C708 0.949 . S
H704 C710 0.950 . S
H705 C711 0.950 . S
H706 C712 0.949 . S
C707 H702 0.950 . S
C707 C709 1.327 . S
C707 C713 1.429 . S
C708 C700 1.574 . S
C708 H703 0.949 . S
C708 C714 1.368 . S
C709 C693 1.349 1_556 S
C709 H701 0.950 . S
C709 C707 1.327 . S
C710 C698 1.349 . S
C710 H704 0.950 . S
C710 C711 1.327 . S
C711 H705 0.950 . S
C711 C710 1.327 . S
C711 C715 1.429 . S
C712 C695 1.574 . S
C712 H706 0.949 . S
C712 C716 1.368 . S
C713 C694 1.429 . S
C713 C707 1.429 . S
C713 C714 1.523 . S
C714 C695 1.368 . S
C714 C708 1.368 . S
C714 C713 1.523 . S
C715 C699 1.429 . S
C715 C711 1.429 . S
C715 C716 1.523 . S
C716 C700 1.368 . S
C716 C712 1.368 . S
C716 C715 1.523 . S
H717 C692 0.950 . S
H718 C694 0.950 . S
H719 C695 0.949 . S
H720 C697 0.950 . S
H721 C699 0.950 . S
C722 C723 1.349 . S
C722 C724 1.327 1_554 S
C722 H747 0.950 . S
C723 C722 1.349 . S
C723 C739 1.349 . S
C724 C722 1.327 1_556 S
C724 C743 1.429 . S
C724 H748 0.950 . S
C725 C742 1.574 . S
C725 C744 1.368 . S
C725 H749 0.949 . S
H726 C730 0.949 . S
C727 C728 1.349 . S
C727 C729 1.327 . S
C727 H750 0.950 . S
C728 C727 1.349 . S
C728 C740 1.349 . S
C729 C727 1.327 . S
C729 C745 1.429 . S
C729 H751 0.950 . S
C730 H726 0.949 . S
C730 C738 1.574 . S
C730 C746 1.368 . S
H731 C739 0.950 . S
H732 C737 0.950 1_556 S
H733 C738 0.949 . S
H734 C740 0.950 . S
H735 C741 0.950 . S
H736 C742 0.949 . S
C737 H732 0.950 1_554 S
C737 C739 1.327 . S
C737 C743 1.429 1_554 S
C738 C730 1.574 . S
C738 H733 0.949 . S
C738 C744 1.368 . S
C739 C723 1.349 . S
C739 H731 0.950 . S
C739 C737 1.327 . S
C740 C728 1.349 . S
C740 H734 0.950 . S
C740 C741 1.327 . S
C741 H735 0.950 . S
C741 C740 1.327 . S
C741 C745 1.429 . S
C742 C725 1.574 . S
C742 H736 0.949 . S
C742 C746 1.368 . S
C743 C724 1.429 . S
C743 C737 1.429 1_556 S
C743 C744 1.523 . S
C744 C725 1.368 . S
C744 C738 1.368 . S
C744 C743 1.523 . S
C745 C729 1.429 . S
C745 C741 1.429 . S
C745 C746 1.523 . S
C746 C730 1.368 . S
C746 C742 1.368 . S
C746 C745 1.523 . S
H747 C722 0.950 . S
H748 C724 0.950 . S
H749 C725 0.949 . S
H750 C727 0.950 . S
H751 C729 0.950 . S
C752 C753 1.339 1_455 S
C752 C754 1.327 . S
C752 H777 0.950 . S
C753 C752 1.339 1_655 S
C753 C769 1.361 . S
C754 C752 1.327 . S
C754 C773 1.429 1_455 S
C754 H778 0.950 . S
C755 C772 1.574 . S
C755 C774 1.368 . S
C755 H779 0.949 . S
H756 C760 0.949 . S
C757 C758 1.349 . S
C757 C759 1.327 . S
C757 H780 0.950 . S
C758 C757 1.349 . S
C758 C770 1.349 1_655 S
C759 C757 1.327 . S
C759 C775 1.429 . S
C759 H781 0.950 . S
C760 H756 0.949 . S
C760 C768 1.574 . S
C760 C776 1.368 1_455 S
H761 C769 0.950 . S
H762 C767 0.950 . S
H763 C768 0.949 . S
H764 C770 0.950 . S
H765 C771 0.950 . S
H766 C772 0.949 . S
C767 H762 0.950 . S
C767 C769 1.327 . S
C767 C773 1.429 . S
C768 C760 1.574 . S
C768 H763 0.949 . S
C768 C774 1.368 1_455 S
C769 C753 1.361 . S
C769 H761 0.950 . S
C769 C767 1.327 . S
C770 C758 1.349 1_455 S
C770 H764 0.950 . S
C770 C771 1.327 . S
C771 H765 0.950 . S
C771 C770 1.327 . S
C771 C775 1.429 1_455 S
C772 C755 1.574 . S
C772 H766 0.949 . S
C772 C776 1.368 . S
C773 C754 1.429 1_655 S
C773 C767 1.429 . S
C773 C774 1.523 . S
C774 C755 1.368 . S
C774 C768 1.368 1_655 S
C774 C773 1.523 . S
C775 C759 1.429 . S
C775 C771 1.429 1_655 S
C775 C776 1.523 . S
C776 C760 1.368 1_655 S
C776 C772 1.368 . S
C776 C775 1.523 . S
H777 C752 0.950 . S
H778 C754 0.950 . S
H779 C755 0.949 . S
H780 C757 0.950 . S
H781 C759 0.950 . S
C782 C783 1.349 . S
C782 C784 1.327 . S
C782 H807 0.950 . S
C783 C782 1.349 . S
C783 C799 1.349 . S
C784 C782 1.327 . S
C784 C803 1.429 . S
C784 H808 0.950 . S
C785 C802 1.574 . S
C785 C804 1.368 . S
C785 H809 0.949 . S
H786 C790 0.949 . S
C787 C788 1.349 . S
C787 C789 1.327 . S
C787 H810 0.950 . S
C788 C787 1.349 . S
C788 C800 1.349 . S
C789 C787 1.327 . S
C789 C805 1.429 . S
C789 H811 0.950 . S
C790 H786 0.949 . S
C790 C798 1.574 . S
C790 C806 1.368 . S
H791 C799 0.950 . S
H792 C797 0.950 . S
H793 C798 0.949 . S
H794 C800 0.969 . S
H795 C801 0.950 . S
H796 C802 0.949 . S
C797 H792 0.950 . S
C797 C799 1.327 . S
C797 C803 1.429 . S
C798 C790 1.574 . S
C798 H793 0.949 . S
C798 C804 1.368 . S
C799 C783 1.349 . S
C799 H791 0.950 . S
C799 C797 1.327 . S
C800 C788 1.349 . S
C800 H794 0.969 . S
C800 C801 1.327 . S
C801 H795 0.950 . S
C801 C800 1.327 . S
C801 C805 1.429 . S
C802 C785 1.574 . S
C802 H796 0.949 . S
C802 C806 1.368 . S
C803 C784 1.429 . S
C803 C797 1.429 . S
C803 C804 1.523 . S
C804 C785 1.368 . S
C804 C798 1.368 . S
C804 C803 1.523 . S
C805 C789 1.429 . S
C805 C801 1.429 . S
C805 C806 1.523 . S
C806 C790 1.368 . S
C806 C802 1.368 . S
C806 C805 1.523 . S
H807 C782 0.950 . S
H808 C784 0.950 . S
H809 C785 0.949 . S
H810 C787 0.950 . S
H811 C789 0.950 . S
C812 C813 1.349 . S
C812 C814 1.327 . S
C812 H837 0.950 . S
C813 C812 1.349 . S
C813 C829 1.349 . S
C814 C812 1.327 . S
C814 C833 1.429 . S
C814 H838 0.950 . S
C815 C832 1.574 . S
C815 C834 1.368 . S
C815 H839 0.949 . S
H816 C820 0.949 . S
C817 C818 1.349 . S
C817 C819 1.327 . S
C817 H840 0.950 . S
C818 C817 1.349 . S
C818 C830 1.349 . S
C819 C817 1.327 . S
C819 C835 1.429 . S
C819 H841 0.950 . S
C820 H816 0.949 . S
C820 C828 1.574 . S
C820 C836 1.368 . S
H821 C829 0.950 . S
H822 C827 0.950 . S
H823 C828 0.949 . S
H824 C830 0.950 . S
H825 C831 0.950 . S
H826 C832 0.949 . S
C827 H822 0.950 . S
C827 C829 1.327 . S
C827 C833 1.429 . S
C828 C820 1.574 . S
C828 H823 0.949 . S
C828 C834 1.368 . S
C829 C813 1.349 . S
C829 H821 0.950 . S
C829 C827 1.327 . S
C830 C818 1.349 . S
C830 H824 0.950 . S
C830 C831 1.327 . S
C831 H825 0.950 . S
C831 C830 1.327 . S
C831 C835 1.429 . S
C832 C815 1.574 . S
C832 H826 0.949 . S
C832 C836 1.368 . S
C833 C814 1.429 . S
C833 C827 1.429 . S
C833 C834 1.523 . S
C834 C815 1.368 . S
C834 C828 1.368 . S
C834 C833 1.523 . S
C835 C819 1.429 . S
C835 C831 1.429 . S
C835 C836 1.523 . S
C836 C820 1.368 . S
C836 C832 1.368 . S
C836 C835 1.523 . S
H837 C812 0.950 . S
H838 C814 0.950 . S
H839 C815 0.949 . S
H840 C817 0.950 . S
H841 C819 0.950 . S
C842 C843 1.349 . S
C842 C844 1.327 . S
C842 H867 0.950 . S
C843 C842 1.349 . S
C843 C859 1.349 . S
C844 C842 1.327 . S
C844 C863 1.429 . S
C844 H868 0.950 . S
C845 C862 1.574 . S
C845 C864 1.368 . S
C845 H869 0.949 . S
H846 C850 0.949 . S
C847 C848 1.349 . S
C847 C849 1.327 . S
C847 H870 0.950 . S
C848 C847 1.349 . S
C848 C860 1.349 . S
C849 C847 1.327 . S
C849 C865 1.429 . S
C849 H871 0.950 . S
C850 H846 0.949 . S
C850 C858 1.574 . S
C850 C866 1.368 . S
H851 C859 0.950 . S
H852 C857 0.950 . S
H853 C858 0.949 . S
H854 C860 0.950 . S
H855 C861 0.950 . S
H856 C862 0.949 . S
C857 H852 0.950 . S
C857 C859 1.327 . S
C857 C863 1.429 . S
C858 C850 1.574 . S
C858 H853 0.949 . S
C858 C864 1.368 . S
C859 C843 1.349 . S
C859 H851 0.950 . S
C859 C857 1.327 . S
C860 C848 1.349 . S
C860 H854 0.950 . S
C860 C861 1.327 . S
C861 H855 0.950 . S
C861 C860 1.327 . S
C861 C865 1.429 . S
C862 C845 1.574 . S
C862 H856 0.949 . S
C862 C866 1.368 . S
C863 C844 1.429 . S
C863 C857 1.429 . S
C863 C864 1.523 . S
C864 C845 1.368 . S
C864 C858 1.368 . S
C864 C863 1.523 . S
C865 C849 1.429 . S
C865 C861 1.429 . S
C865 C866 1.523 . S
C866 C850 1.368 . S
C866 C862 1.368 . S
C866 C865 1.523 . S
H867 C842 0.950 . S
H868 C844 0.950 . S
H869 C845 0.949 . S
H870 C847 0.950 . S
H871 C849 0.950 . S
C153 C61 1.472 . S
C158 C90 1.488 . S
C188 C110 1.294 . S
C183 C70 1.305 . S
C218 C130 1.471 . S
C213 C43 1.459 . S
C248 C150 1.287 . S
C243 C52 1.291 . S
C278 C91 1.494 . S
C273 C25 1.481 1_556 S
C303 C34 1.306 1_556 S
C308 C111 1.293 . S
C333 C7 1.464 . S
C338 C131 1.472 . S
C363 C16 1.290 1_456 S
C368 C151 1.288 . S
C398 C81 0.529 . S
C393 C50 0.452 1_455 S
C428 C101 0.579 . S
C423 C59 0.548 . S
C458 C121 0.556 . S
C453 C67 0.513 . S
C483 C41 0.498 . S
C488 C141 0.549 . S
C513 C14 0.452 . S
C518 C84 0.523 . S
C548 C104 0.579 . S
C543 C23 0.542 . S
C578 C124 0.557 . S
C573 C31 0.512 . S
C603 C5 0.488 . S
C608 C144 0.552 . S
C633 C49 1.513 1_455 S
C638 C74 1.486 . S
C663 C58 1.542 . S
C668 C94 1.514 . S
C698 C114 1.405 . S
C693 C68 1.431 . S
C728 C134 1.618 . S
C723 C40 1.646 . S
C753 C13 1.513 . S
C758 C76 1.487 . S
C788 C96 1.513 . S
C783 C22 1.544 . S
C818 C116 1.405 . S
C813 C32 1.435 . S
C843 C4 1.651 . S
C848 C136 1.620 . S
