# Generated by pormake.
# Topology rtl, (3,6)-cn, num edge types: 1
# Building blocks:
#     Node 0, Type 0, BuildingBlock: KAKCAD_clean_linker_0, # of connection points: 3
#     Node 1, Type 0, BuildingBlock: KAKCAD_clean_linker_0, # of connection points: 3
#     Node 2, Type 0, BuildingBlock: KAKCAD_clean_linker_0, # of connection points: 3
#     Node 3, Type 0, BuildingBlock: KAKCAD_clean_linker_0, # of connection points: 3
#     Node 4, Type 1, BuildingBlock: KUMJIN_clean_sbu_1, # of connection points: 6
#     Node 5, Type 1, BuildingBlock: KUMJIN_clean_sbu_1, # of connection points: 6
#     Edge 6, Type (0, 1), BuildingBlock: ZUJKAS_clean_linker_0, # of connection points: 2
#     Edge 7, Type (0, 1), BuildingBlock: ZUJKAS_clean_linker_0, # of connection points: 2
#     Edge 8, Type (0, 1), BuildingBlock: ZUJKAS_clean_linker_0, # of connection points: 2
#     Edge 9, Type (0, 1), BuildingBlock: ZUJKAS_clean_linker_0, # of connection points: 2
#     Edge 10, Type (0, 1), BuildingBlock: ZUJKAS_clean_linker_0, # of connection points: 2
#     Edge 11, Type (0, 1), BuildingBlock: ZUJKAS_clean_linker_0, # of connection points: 2
#     Edge 12, Type (0, 1), BuildingBlock: ZUJKAS_clean_linker_0, # of connection points: 2
#     Edge 13, Type (0, 1), BuildingBlock: ZUJKAS_clean_linker_0, # of connection points: 2
#     Edge 14, Type (0, 1), BuildingBlock: ZUJKAS_clean_linker_0, # of connection points: 2
#     Edge 15, Type (0, 1), BuildingBlock: ZUJKAS_clean_linker_0, # of connection points: 2
#     Edge 16, Type (0, 1), BuildingBlock: ZUJKAS_clean_linker_0, # of connection points: 2
#     Edge 17, Type (0, 1), BuildingBlock: ZUJKAS_clean_linker_0, # of connection points: 2
# Relax obj value: 0.017
# Max RMSD: 0.086
# Mean RMSD: 0.053
data_MOF--net-rtl--node1-KUMJIN_clean_sbu_1--node2-KAKCAD_clean_linker_0--edge1-ZUJKAS_clean_linker_0
_symmetry_space_group_name_H-M    P1
_symmetry_Int_Tables_number       1
_symmetry_cell_setting            triclinic
loop_
_symmetry_equiv_pos_as_xyz
'x, y, z'
_cell_length_a     49.50168
_cell_length_b     49.967694
_cell_length_c     42.879607
_cell_angle_alpha  81.852605
_cell_angle_beta   99.711329
_cell_angle_gamma 90.411014
loop_
_atom_site_label
_atom_site_type_symbol
_atom_site_fract_x
_atom_site_fract_y
_atom_site_fract_z
_atom_type_partial_charge
C0 C 0.16992 0.87254 0.90305 0.0
C1 C 0.1638 0.90041 0.89659 0.0
C2 C 0.18335 0.86094 0.93315 0.0
C3 C 0.19114 0.87693 0.95752 0.0
C4 C 0.18511 0.90483 0.95106 0.0
C5 C 0.17157 0.91644 0.92095 0.0
C6 C 0.20532 0.86447 0.98959 0.0
C7 C 0.22544 0.8442 0.9925 0.0
C8 C 0.23833 0.83168 0.02268 0.0
C9 C 0.23132 0.83999 0.05028 0.0
C10 C 0.21114 0.86021 0.04788 0.0
C11 C 0.19828 0.87228 0.0174 0.0
C12 C 0.20237 0.86794 0.07696 0.0
C13 C 0.19894 0.84814 0.10269 0.0
C14 C 0.19596 0.89504 0.07848 0.0
C15 C 0.18542 0.90205 0.10451 0.0
C16 C 0.18119 0.88214 0.1298 0.0
C17 C 0.25848 0.80933 0.02508 0.0
C18 C 0.25262 0.78869 0.006 0.0
C19 C 0.28362 0.80852 0.04607 0.0
C20 C 0.30273 0.78768 0.04751 0.0
C21 C 0.29698 0.76714 0.02815 0.0
C22 C 0.27158 0.76781 0.00759 0.0
C23 C 0.18854 0.85517 0.12883 0.0
H24 H 0.16455 0.85965 0.88473 0.0
H25 H 0.18737 0.83933 0.93741 0.0
H26 H 0.19104 0.91776 0.96922 0.0
H27 H 0.16694 0.93793 0.91687 0.0
H28 H 0.23133 0.83828 0.97119 0.0
H29 H 0.18196 0.88711 0.01529 0.0
H30 H 0.24127 0.83038 0.0736 0.0
H31 H 0.20345 0.82704 0.10222 0.0
H32 H 0.19873 0.91086 0.05928 0.0
H33 H 0.17977 0.92298 0.10425 0.0
H34 H 0.23319 0.78854 0.99001 0.0
H35 H 0.28874 0.8243 0.06088 0.0
H36 H 0.18595 0.83937 0.14812 0.0
H37 H 0.26617 0.75202 0.99288 0.0
H38 H 0.3222 0.78797 0.06335 0.0
C39 C 0.64884 0.68161 0.70584 0.0
C40 C 0.64011 0.65476 0.71014 0.0
C41 C 0.65805 0.69237 0.67758 0.0
C42 C 0.65918 0.6763 0.65332 0.0
C43 C 0.65109 0.64915 0.65831 0.0
C44 C 0.64139 0.63863 0.68619 0.0
C45 C 0.66846 0.68761 0.6228 0.0
C46 C 0.68939 0.70685 0.62231 0.0
C47 C 0.69863 0.71676 0.59363 0.0
C48 C 0.68688 0.70704 0.56528 0.0
C49 C 0.66604 0.68785 0.5652 0.0
C50 C 0.65667 0.67867 0.59392 0.0
C51 C 0.65469 0.67667 0.53539 0.0
C52 C 0.64973 0.6934 0.50567 0.0
C53 C 0.64942 0.64888 0.53639 0.0
C54 C 0.63967 0.63807 0.50839 0.0
C55 C 0.63505 0.65473 0.47865 0.0
C56 C 0.72076 0.73704 0.59308 0.0
C57 C 0.72065 0.75947 0.60952 0.0
C58 C 0.7417 0.73456 0.57518 0.0
C59 C 0.76163 0.75435 0.57306 0.0
C60 C 0.76116 0.77715 0.5888 0.0
C61 C 0.74063 0.77932 0.60738 0.0
C62 C 0.64008 0.68255 0.47762 0.0
H63 H 0.64792 0.69444 0.724 0.0
H64 H 0.66377 0.71341 0.67455 0.0
H65 H 0.65237 0.63583 0.64077 0.0
H66 H 0.63514 0.61773 0.68921 0.0
H67 H 0.69916 0.71353 0.64437 0.0
H68 H 0.63986 0.66466 0.59362 0.0
H69 H 0.69417 0.7143 0.54321 0.0
H70 H 0.65318 0.71494 0.50409 0.0
H71 H 0.65347 0.63532 0.55877 0.0
H72 H 0.63643 0.61649 0.50996 0.0
H73 H 0.70466 0.76208 0.62329 0.0
H74 H 0.7427 0.71726 0.56277 0.0
H75 H 0.63638 0.69596 0.45511 0.0
H76 H 0.73953 0.79673 0.61958 0.0
H77 H 0.77749 0.75174 0.55911 0.0
C78 C 0.80986 0.10844 0.1377 0.0
C79 C 0.83776 0.10111 0.14582 0.0
C80 C 0.79873 0.11948 0.10641 0.0
C81 C 0.81536 0.12383 0.08262 0.0
C82 C 0.84322 0.11602 0.09078 0.0
C83 C 0.85423 0.10463 0.12197 0.0
C84 C 0.80412 0.13766 0.04991 0.0
C85 C 0.785 0.15907 0.04569 0.0
C86 C 0.77565 0.17345 0.01527 0.0
C87 C 0.78574 0.16652 0.98874 0.0
C88 C 0.80461 0.14492 0.99227 0.0
C89 C 0.81337 0.13043 0.02292 0.0
C90 C 0.81579 0.13794 0.96422 0.0
C91 C 0.79906 0.13913 0.93406 0.0
C92 C 0.84353 0.13034 0.96735 0.0
C93 C 0.85427 0.12418 0.94107 0.0
C94 C 0.83766 0.12573 0.91081 0.0
C95 C 0.75588 0.19624 0.01166 0.0
C96 C 0.73181 0.19272 0.02495 0.0
C97 C 0.76143 0.22183 0.99607 0.0
C98 C 0.74353 0.2437 0.99451 0.0
C99 C 0.71956 0.24022 0.00803 0.0
C100 C 0.7137 0.21446 0.02292 0.0
C101 C 0.80987 0.13317 0.90767 0.0
H102 H 0.79666 0.10563 0.1556 0.0
H103 H 0.7771 0.12472 0.10092 0.0
H104 H 0.85681 0.11948 0.07335 0.0
H105 H 0.87588 0.09942 0.12769 0.0
H106 H 0.77809 0.16537 0.06623 0.0
H107 H 0.82734 0.11334 0.02577 0.0
H108 H 0.77901 0.17814 0.96542 0.0
H109 H 0.77753 0.14458 0.93082 0.0
H110 H 0.85716 0.12953 0.99006 0.0
H111 H 0.87565 0.11814 0.94456 0.0
H112 H 0.72707 0.17314 0.03701 0.0
H113 H 0.77995 0.22507 0.98582 0.0
H114 H 0.79651 0.13485 0.8847 0.0
H115 H 0.69545 0.21128 0.03371 0.0
H116 H 0.74841 0.26335 0.98276 0.0
C117 C 0.36037 0.34055 0.34702 0.0
C118 C 0.38814 0.34736 0.34857 0.0
C119 C 0.35025 0.32984 0.37465 0.0
C120 C 0.36761 0.32581 0.40452 0.0
C121 C 0.39544 0.33231 0.406 0.0
C122 C 0.4056 0.3429 0.37836 0.0
C123 C 0.35656 0.31559 0.43412 0.0
C124 C 0.33774 0.29433 0.43443 0.0
C125 C 0.32667 0.2851 0.4621 0.0
C126 C 0.33464 0.29758 0.48955 0.0
C127 C 0.35346 0.31874 0.48982 0.0
C128 C 0.36441 0.32754 0.46202 0.0
C129 C 0.36126 0.33176 0.51912 0.0
C130 C 0.3413 0.33734 0.53718 0.0
C131 C 0.38869 0.33818 0.52968 0.0
C132 C 0.396 0.34953 0.5579 0.0
C133 C 0.37604 0.35481 0.57613 0.0
C134 C 0.30645 0.26281 0.46253 0.0
C135 C 0.28594 0.26091 0.43593 0.0
C136 C 0.30679 0.24386 0.4902 0.0
C137 C 0.2866 0.22429 0.49173 0.0
C138 C 0.26568 0.22273 0.46544 0.0
C139 C 0.2659 0.24106 0.43732 0.0
C140 C 0.3486 0.34864 0.56533 0.0
H141 H 0.34644 0.34347 0.32441 0.0
H142 H 0.32866 0.32525 0.37271 0.0
H143 H 0.40942 0.32922 0.42859 0.0
H144 H 0.42703 0.34813 0.38045 0.0
H145 H 0.33214 0.28463 0.41326 0.0
H146 H 0.37835 0.34436 0.46178 0.0
H147 H 0.32603 0.29089 0.51088 0.0
H148 H 0.31994 0.333 0.52953 0.0
H149 H 0.40459 0.33398 0.51643 0.0
H150 H 0.41728 0.35431 0.56533 0.0
H151 H 0.28488 0.27522 0.41427 0.0
H152 H 0.32255 0.24429 0.51096 0.0
H153 H 0.33272 0.35213 0.57891 0.0
H154 H 0.25046 0.24025 0.41635 0.0
H155 H 0.28708 0.21085 0.51396 0.0
Eu156 Eu 0.02338 0.97735 0.5021 0.0
C157 C 0.94696 0.07472 0.48081 0.0
N158 N 0.97376 0.07298 0.49469 0.0
C159 C 0.98329 0.11345 0.46148 0.0
C160 C 0.9375 0.09535 0.45539 0.0
C161 C 0.99177 0.09243 0.48638 0.0
C162 C 0.95612 0.11472 0.44563 0.0
C163 C 0.90101 0.05716 0.47841 0.0
C164 C 0.92901 0.05583 0.49225 0.0
C165 C 0.89168 0.07699 0.45219 0.0
C166 C 0.90986 0.09608 0.44076 0.0
Eu167 Eu 0.98666 0.03687 0.53616 0.0
N168 N 0.93865 0.03699 0.51779 0.0
C169 C 0.88309 0.039 0.4919 0.0
C170 C 0.92085 0.02079 0.53256 0.0
C171 C 0.89299 0.02106 0.51943 0.0
H172 H 0.01279 0.09129 0.49864 0.0
H173 H 0.8791 0.0077 0.53084 0.0
H174 H 0.98104 0.92389 0.50488 0.0
H175 H 0.13301 0.98072 0.54609 0.0
H176 H 0.92787 0.00789 0.55479 0.0
H177 H 0.86145 0.03933 0.48195 0.0
H178 H 0.08799 0.99805 0.51597 0.0
H179 H 0.99771 0.12856 0.45444 0.0
H180 H 0.8703 0.07812 0.44105 0.0
H181 H 0.90226 0.11157 0.42091 0.0
H182 H 0.98118 0.87747 0.53327 0.0
H183 H 0.94964 0.13091 0.4262 0.0
H184 H 0.137 0.9347 0.57685 0.0
N185 N 0.02156 0.93203 0.52668 0.0
C186 C 0.04533 0.92132 0.54459 0.0
C187 C 0.99925 0.8897 0.53705 0.0
C188 C 0.04669 0.89446 0.56033 0.0
C189 C 0.99904 0.91629 0.52154 0.0
C190 C 0.02308 0.87884 0.55687 0.0
N191 N 0.06678 0.96269 0.53086 0.0
C192 C 0.08957 0.9781 0.52969 0.0
C193 C 0.09398 0.92609 0.5635 0.0
C194 C 0.06872 0.9369 0.54618 0.0
C195 C 0.11723 0.94225 0.56379 0.0
C196 C 0.11505 0.96828 0.54654 0.0
H197 H 0.02327 0.85813 0.5686 0.0
H198 H 0.073 0.86332 0.59074 0.0
H199 H 0.11439 0.89102 0.59352 0.0
O200 O 0.04008 0.98911 0.45829 0.0
O201 O 0.0412 0.98628 0.55229 0.0
O202 O 0.00402 1.00099 0.5717 0.0
O203 O 0.02818 0.94781 0.47031 0.0
O204 O 0.03935 0.01996 0.49249 0.0
O205 O 0.03209 0.04124 0.53498 0.0
O206 O 0.96565 0.05617 0.56908 0.0
O207 O 0.98924 0.03759 0.48356 0.0
O208 O 0.98182 0.99376 0.4771 0.0
O209 O 0.00805 0.06595 0.56418 0.0
O210 O 0.97325 0.99372 0.55107 0.0
O211 O 0.97881 0.97146 0.50867 0.0
C212 C 0.02899 0.99091 0.57608 0.0
C213 C 0.02413 0.96513 0.41567 0.0
C214 C 0.0285 0.9593 0.36124 0.0
C215 C 1.00055 0.96616 0.35132 0.0
C216 C 0.99619 0.9713 0.40556 0.0
C217 C 0.98451 0.97203 0.37344 0.0
C218 C 0.04018 0.95903 0.39356 0.0
C219 C 0.04562 0.03819 0.51179 0.0
C220 C 0.03695 0.96539 0.44906 0.0
C221 C 0.07163 0.88385 0.57835 0.0
C222 C 0.09523 0.8996 0.57987 0.0
C223 C 0.97759 0.0195 0.46667 0.0
C224 C 0.98843 0.09007 0.6002 0.0
C225 C 0.97413 0.10616 0.64625 0.0
C226 C 0.99173 0.12824 0.64266 0.0
C227 C 0.00606 0.11209 0.59741 0.0
C228 C 0.97237 0.08722 0.62455 0.0
C229 C 0.00755 0.1311 0.61844 0.0
C230 C 0.96723 0.97402 0.53366 0.0
C231 C 0.98714 0.07028 0.57762 0.0
H232 H 0.99096 0.9664 0.32663 0.0
H233 H 0.9835 0.97544 0.42251 0.0
H234 H 0.96294 0.97698 0.36572 0.0
H235 H 0.06181 0.95432 0.40149 0.0
H236 H 0.99312 0.14349 0.65843 0.0
H237 H 0.01853 0.11474 0.57875 0.0
H238 H 0.95913 0.06996 0.62706 0.0
H239 H 0.02102 0.14815 0.61595 0.0
Eu240 Eu 0.4783 0.48645 0.99573 0.0
C241 C 0.59404 0.52961 0.02475 0.0
N242 N 0.5834 0.50887 0.04266 0.0
C243 C 0.6233 0.48152 0.04389 0.0
C244 C 0.61924 0.5266 0.01431 0.0
C245 C 0.59845 0.4857 0.05402 0.0
C246 C 0.63348 0.50187 0.02338 0.0
C247 C 0.59188 0.57701 1.00204 0.0
C248 C 0.58064 0.55449 0.01875 0.0
C249 C 0.61632 0.57381 0.99032 0.0
C250 C 0.62992 0.54863 0.99633 0.0
Eu251 Eu 0.5397 0.51683 0.05553 0.0
N252 N 0.55697 0.55687 0.0302 0.0
C253 C 0.5785 0.60217 0.99828 0.0
C254 C 0.54469 0.58158 0.02834 0.0
C255 C 0.55501 0.60452 0.01188 0.0
H256 H 0.59142 0.47047 0.07115 0.0
H257 H 0.54485 0.62397 0.00964 0.0
H258 H 0.42175 0.51311 0.01197 0.0
H259 H 0.50514 0.37932 1.00164 0.0
H260 H 0.52644 0.58328 0.03872 0.0
H261 H 0.58645 0.61996 0.98554 0.0
H262 H 0.50549 0.42799 0.98144 0.0
H263 H 0.63475 0.46277 0.05225 0.0
H264 H 0.62528 0.59082 0.97734 0.0
H265 H 0.64912 0.54663 0.98785 0.0
H266 H 0.38333 0.4989 0.04067 0.0
H267 H 0.65289 0.49872 0.01584 0.0
H268 H 0.47336 0.3621 0.03835 0.0
N269 N 0.44045 0.47405 0.02114 0.0
C270 C 0.4386 0.44759 0.03301 0.0
C271 C 0.39884 0.48431 0.03886 0.0
C272 C 0.41737 0.4386 0.04985 0.0
C273 C 0.42049 0.49229 0.02264 0.0
C274 C 0.3975 0.45743 0.05297 0.0
N275 N 0.47674 0.43875 0.00942 0.0
C276 C 0.49256 0.42096 0.99868 0.0
C277 C 0.45595 0.40167 0.03871 0.0
C278 C 0.45766 0.42946 0.02749 0.0
C279 C 0.47397 0.3836 0.03021 0.0
C280 C 0.49197 0.39325 0.00955 0.0
H281 H 0.38083 0.45133 0.06572 0.0
H282 H 0.40056 0.40392 0.07601 0.0
H283 H 0.43435 0.37153 0.06623 0.0
O284 O 0.45727 0.4689 0.95375 0.0
O285 O 0.47582 0.48854 0.04793 0.0
O286 O 0.5195 0.47815 0.07306 0.0
O287 O 0.45322 0.51208 0.95639 0.0
O288 O 0.5217 0.47051 0.99794 0.0
O289 O 0.54227 0.47214 0.05011 0.0
O290 O 0.53109 0.53419 0.09686 0.0
O291 O 0.52545 0.53646 0.00425 0.0
O292 O 0.5163 0.50119 0.97597 0.0
O293 O 0.57197 0.52008 0.09638 0.0
O294 O 0.49783 0.53669 0.05141 0.0
O295 O 0.47256 0.53038 1.00201 0.0
C296 C 0.49302 0.47659 0.07249 0.0
C297 C 0.42808 0.4966 0.90903 0.0
C298 C 0.413 0.48557 0.85513 0.0
C299 C 0.3937 0.507 0.84944 0.0
C300 C 0.40878 0.51797 0.90265 0.0
C301 C 0.3916 0.52298 0.87309 0.0
C302 C 0.42994 0.48021 0.88531 0.0
C303 C 0.54 0.46162 0.02329 0.0
C304 C 0.44663 0.49226 0.94008 0.0
C305 C 0.41644 0.41118 0.06253 0.0
C306 C 0.43573 0.39274 0.05702 0.0
C307 C 0.52735 0.52475 0.97929 0.0
C308 C 0.55694 0.51564 0.14607 0.0
C309 C 0.56327 0.51792 0.20335 0.0
C310 C 0.55835 0.48999 0.20884 0.0
C311 C 0.55224 0.48783 0.15204 0.0
C312 C 0.56239 0.53061 0.17167 0.0
C313 C 0.55285 0.47512 0.1833 0.0
C314 C 0.47771 0.54336 0.0271 0.0
C315 C 0.55558 0.52934 0.1132 0.0
H316 H 0.38006 0.51131 0.8267 0.0
H317 H 0.40693 0.53079 0.92058 0.0
H318 H 0.37668 0.53941 0.86843 0.0
H319 H 0.4451 0.46396 0.88995 0.0
H320 H 0.55921 0.47952 0.2329 0.0
H321 H 0.54815 0.476 0.13254 0.0
H322 H 0.56559 0.55218 0.16681 0.0
H323 H 0.54919 0.45364 0.18777 0.0
H324 H 0.21112 0.22896 0.43859 0.0
H325 H 0.17437 0.19693 0.44467 0.0
H326 H 0.23198 0.13986 0.50571 0.0
H327 H 0.26925 0.17088 0.49781 0.0
H328 H 0.19771 0.11438 0.46739 0.0
H329 H 0.13743 0.18305 0.52093 0.0
H330 H 0.14291 0.1974 0.4818 0.0
H331 H 0.17171 0.19065 0.51382 0.0
C332 C 0.21618 0.20943 0.45285 0.0
C333 C 0.2433 0.20273 0.46793 0.0
C334 C 0.19496 0.19128 0.45677 0.0
C335 C 0.2002 0.16627 0.47643 0.0
C336 C 0.22731 0.15918 0.49075 0.0
H337 H 0.0744 0.06844 0.55406 0.0
H338 H 0.11256 0.09841 0.54566 0.0
C339 C 0.24861 0.17712 0.48645 0.0
C340 C 0.17755 0.1474 0.48202 0.0
H341 H 0.1153 0.14305 0.50655 0.0
C342 C 0.17975 0.12063 0.47609 0.0
C343 C 0.15431 0.15534 0.49399 0.0
C344 C 0.15155 0.18308 0.50333 0.0
C345 C 0.15929 0.10172 0.48141 0.0
C346 C 0.13544 0.11004 0.49188 0.0
C347 C 0.13339 0.13672 0.49816 0.0
C348 C 0.11253 0.09138 0.49696 0.0
C349 C 0.16387 0.07287 0.47657 0.0
C350 C 0.09955 0.0776 0.47233 0.0
C351 C 0.07802 0.0601 0.47726 0.0
C352 C 0.06858 0.05652 0.50669 0.0
C353 C 0.08118 0.07076 0.5311 0.0
C354 C 0.103 0.08792 0.52632 0.0
H355 H 0.18604 0.06802 0.47873 0.0
H356 H 0.15515 0.05834 0.49417 0.0
H357 H 0.1538 0.06993 0.45217 0.0
H358 H 0.10587 0.08055 0.44913 0.0
H359 H 0.06849 0.04972 0.45781 0.0
H360 H 0.30931 0.74395 0.97801 0.0
H361 H 0.34093 0.70629 0.97986 0.0
H362 H 0.36359 0.70371 0.08189 0.0
H363 H 0.33093 0.74051 0.08052 0.0
H364 H 0.396 0.70176 0.99902 0.0
H365 H 0.34369 0.62589 0.07477 0.0
H366 H 0.32808 0.65812 0.05667 0.0
H367 H 0.3533 0.65576 0.09249 0.0
C368 C 0.3207 0.73514 1.00095 0.0
C369 C 0.31728 0.74507 0.02918 0.0
C370 C 0.33895 0.71376 1.00191 0.0
C371 C 0.35424 0.70186 0.03108 0.0
C372 C 0.35153 0.71218 0.0592 0.0
H373 H 0.47686 0.57199 0.07689 0.0
H374 H 0.44767 0.611 0.07803 0.0
C375 C 0.33311 0.73348 0.05831 0.0
C376 C 0.3731 0.67877 0.03181 0.0
H377 H 0.38634 0.6125 0.06316 0.0
C378 C 0.39386 0.68223 0.01301 0.0
C379 C 0.37022 0.65328 0.05003 0.0
C380 C 0.34748 0.64787 0.0694 0.0
C381 C 0.41189 0.66094 0.01207 0.0
C382 C 0.40898 0.63555 0.03027 0.0
C383 C 0.38848 0.63209 0.04933 0.0
C384 C 0.42673 0.61213 0.02934 0.0
C385 C 0.43408 0.66571 0.99182 0.0
C386 C 0.42433 0.59976 1.00165 0.0
C387 C 0.44083 0.57737 1.00092 0.0
C388 C 0.46009 0.567 0.02789 0.0
C389 C 0.46234 0.57948 0.05564 0.0
C390 C 0.44568 0.60175 0.05639 0.0
H391 H 0.43689 0.68759 0.98411 0.0
H392 H 0.45389 0.65673 0.00513 0.0
H393 H 0.42849 0.65576 0.97013 0.0
H394 H 0.40955 0.60735 0.98067 0.0
H395 H 0.4385 0.56827 0.97916 0.0
H396 H 0.78018 0.79825 0.53436 0.0
H397 H 0.8146 0.83303 0.52836 0.0
H398 H 0.82232 0.8407 0.62836 0.0
H399 H 0.7884 0.80526 0.63484 0.0
H400 H 0.8136 0.88688 0.54061 0.0
H401 H 0.90187 0.82842 0.61666 0.0
H402 H 0.8702 0.8127 0.60202 0.0
H403 H 0.87227 0.83132 0.63521 0.0
C404 C 0.78942 0.80707 0.55521 0.0
C405 C 0.78172 0.79876 0.58517 0.0
C406 C 0.80894 0.8271 0.55166 0.0
C407 C 0.82127 0.83918 0.57798 0.0
C408 C 0.81337 0.83131 0.60784 0.0
H409 H 0.95047 0.95975 0.5912 0.0
H410 H 0.91396 0.92842 0.60311 0.0
C411 C 0.79379 0.81125 0.61142 0.0
C412 C 0.84225 0.86015 0.57388 0.0
H413 H 0.91012 0.87335 0.59542 0.0
C414 C 0.83469 0.88397 0.55265 0.0
C415 C 0.86972 0.85632 0.58972 0.0
C416 C 0.87918 0.83074 0.612 0.0
C417 C 0.8539 0.90406 0.54671 0.0
C418 C 0.88149 0.89996 0.56199 0.0
C419 C 0.88895 0.87641 0.58374 0.0
C420 C 0.90315 0.91936 0.55474 0.0
C421 C 0.84446 0.92956 0.52428 0.0
C422 C 0.9093 0.92444 0.52369 0.0
C423 C 0.93003 0.9423 0.51685 0.0
C424 C 0.94519 0.95525 0.541 0.0
C425 C 0.93905 0.95011 0.57211 0.0
C426 C 0.91829 0.9322 0.57895 0.0
H427 H 0.822 0.93297 0.52183 0.0
H428 H 0.85518 0.9475 0.53264 0.0
H429 H 0.84915 0.92779 0.50024 0.0
H430 H 0.89819 0.9144 0.50477 0.0
H431 H 0.93411 0.94604 0.49258 0.0
H432 H 0.66399 0.24319 0.98971 0.0
H433 H 0.63331 0.28135 0.99014 0.0
H434 H 0.70263 0.32715 0.02732 0.0
H435 H 0.73338 0.28942 0.02576 0.0
H436 H 0.62205 0.30441 0.0376 0.0
H437 H 0.66633 0.3817 0.95602 0.0
H438 H 0.67578 0.34638 0.96091 0.0
H439 H 0.69151 0.36762 0.98928 0.0
C440 C 0.67263 0.26153 0.9977 0.0
C441 C 0.70104 0.2635 0.00744 0.0
C442 C 0.65513 0.28329 0.99796 0.0
C443 C 0.66567 0.30735 0.00821 0.0
C444 C 0.69405 0.30918 0.01834 0.0
H445 H 0.56783 0.4262 0.0726 0.0
H446 H 0.59858 0.38905 0.06907 0.0
C447 C 0.7116 0.28758 0.01759 0.0
C448 C 0.64686 0.33007 0.0095 0.0
H449 H 0.63558 0.3979 0.98675 0.0
C450 C 0.6249 0.32482 0.02627 0.0
C451 C 0.65028 0.35665 0.99432 0.0
C452 C 0.67207 0.36338 0.97384 0.0
C453 C 0.60654 0.34541 0.02867 0.0
C454 C 0.61082 0.37223 0.01489 0.0
C455 C 0.63252 0.37742 0.99772 0.0
C456 C 0.5927 0.39514 0.01733 0.0
C457 C 0.58239 0.33803 0.04529 0.0
C458 C 0.58002 0.41164 0.98953 0.0
C459 C 0.5631 0.43334 0.99155 0.0
C460 C 0.55836 0.43889 0.02142 0.0
C461 C 0.57118 0.42248 0.04925 0.0
C462 C 0.58846 0.40101 0.04724 0.0
H463 H 0.57736 0.3163 0.04547 0.0
H464 H 0.58752 0.34172 0.07051 0.0
H465 H 0.5639 0.35034 0.03363 0.0
H466 H 0.5831 0.40763 0.96619 0.0
H467 H 0.55371 0.44577 0.96968 0.0
H468 H 0.18878 0.92744 0.15967 0.0
H469 H 0.16414 0.94061 0.20008 0.0
H470 H 0.11951 0.86614 0.20085 0.0
H471 H 0.14299 0.85341 0.15934 0.0
H472 H 0.08597 0.90929 0.19631 0.0
H473 H 0.17355 0.91352 0.29482 0.0
H474 H 0.17786 0.93418 0.25825 0.0
H475 H 0.17633 0.89803 0.25991 0.0
C476 C 0.17369 0.91386 0.16839 0.0
C477 C 0.16792 0.88933 0.15623 0.0
C478 C 0.15988 0.92128 0.19181 0.0
C479 C 0.14028 0.90418 0.20383 0.0
C480 C 0.1347 0.87956 0.19206 0.0
H481 H 0.06502 0.91715 0.3696 0.0
H482 H 0.09208 0.9043 0.33115 0.0
C483 C 0.14836 0.8722 0.16852 0.0
C484 C 0.12448 0.9125 0.22743 0.0
H485 H 0.13093 0.93167 0.30162 0.0
C486 C 0.09579 0.91409 0.2194 0.0
C487 C 0.13732 0.91848 0.25765 0.0
C488 C 0.16794 0.91573 0.26837 0.0
C489 C 0.07957 0.92171 0.24063 0.0
C490 C 0.09245 0.92856 0.27042 0.0
C491 C 0.12113 0.92671 0.27861 0.0
C492 C 0.07646 0.93694 0.29379 0.0
C493 C 0.04878 0.92174 0.23121 0.0
C494 C 0.05902 0.9598 0.28571 0.0
C495 C 0.04344 0.96712 0.30759 0.0
C496 C 0.04534 0.95192 0.33811 0.0
C497 C 0.06329 0.92939 0.34636 0.0
C498 C 0.0787 0.92198 0.32441 0.0
H499 H 0.04223 0.90913 0.212 0.0
H500 H 0.03882 0.91412 0.25202 0.0
H501 H 0.04128 0.94272 0.22208 0.0
H502 H 0.05748 0.97201 0.26248 0.0
H503 H 0.03012 0.98483 0.30076 0.0
H504 H 0.6651 0.65295 0.77229 0.0
H505 H 0.6485 0.6309 0.82024 0.0
H506 H 0.57377 0.61033 0.76144 0.0
H507 H 0.59093 0.6311 0.71358 0.0
H508 H 0.6071 0.63867 0.84828 0.0
H509 H 0.59567 0.53786 0.80944 0.0
H510 H 0.61231 0.56508 0.78817 0.0
H511 H 0.57547 0.5627 0.78096 0.0
C512 C 0.64514 0.64368 0.76976 0.0
C513 C 0.62939 0.64337 0.73934 0.0
C514 C 0.63567 0.63109 0.79709 0.0
C515 C 0.61018 0.61825 0.79444 0.0
C516 C 0.59392 0.61914 0.76409 0.0
H517 H 0.51825 0.57634 0.94984 0.0
H518 H 0.53963 0.59934 0.90616 0.0
C519 C 0.60361 0.63121 0.73677 0.0
C520 C 0.60046 0.60407 0.82332 0.0
H521 H 0.57305 0.54489 0.85276 0.0
C522 C 0.59994 0.61804 0.84942 0.0
C523 C 0.59168 0.57693 0.82525 0.0
C524 C 0.59411 0.5597 0.79959 0.0
C525 C 0.5902 0.60594 0.87695 0.0
C526 C 0.57963 0.57943 0.87794 0.0
C527 C 0.58082 0.56528 0.8521 0.0
C528 C 0.56702 0.56589 0.90515 0.0
C529 C 0.59193 0.62171 0.90472 0.0
C530 C 0.5743 0.53898 0.91844 0.0
C531 C 0.56109 0.52545 0.94228 0.0
C532 C 0.54088 0.53881 0.95385 0.0
C533 C 0.5339 0.56577 0.94122 0.0
C534 C 0.54642 0.57901 0.91659 0.0
H535 H 0.60946 0.63575 0.90542 0.0
H536 H 0.57296 0.63413 0.9019 0.0
H537 H 0.59429 0.60819 0.92788 0.0
H538 H 0.59012 0.52834 0.91019 0.0
H539 H 0.56695 0.50471 0.95207 0.0
H540 H 0.87105 0.0567 0.1676 0.0
H541 H 0.89248 0.04075 0.22286 0.0
H542 H 0.85455 0.10731 0.25435 0.0
H543 H 0.83241 0.12271 0.19936 0.0
H544 H 0.9286 0.06417 0.26169 0.0
H545 H 0.83597 0.04641 0.31754 0.0
H546 H 0.83431 0.05256 0.27478 0.0
H547 H 0.83665 0.08038 0.29758 0.0
C548 C 0.86713 0.06772 0.18642 0.0
C549 C 0.84993 0.09079 0.17931 0.0
C550 C 0.87934 0.05862 0.21795 0.0
C551 C 0.87475 0.07253 0.2429 0.0
C552 C 0.85773 0.09572 0.23573 0.0
H553 H 0.98322 0.06513 0.42538 0.0
H554 H 0.95736 0.07813 0.37148 0.0
C555 C 0.84519 0.10459 0.20429 0.0
C556 C 0.88892 0.06362 0.27612 0.0
H557 H 0.87847 0.04831 0.35333 0.0
C558 C 0.91758 0.0605 0.28167 0.0
C559 C 0.87456 0.05839 0.30219 0.0
C560 C 0.84366 0.05932 0.2977 0.0
C561 C 0.93231 0.05288 0.31258 0.0
C562 C 0.91807 0.04916 0.3388 0.0
C563 C 0.88938 0.05164 0.33324 0.0
C564 C 0.93258 0.04223 0.37213 0.0
C565 C 0.96292 0.04841 0.31675 0.0
C566 C 0.92636 0.01837 0.3909 0.0
C567 C 0.9407 0.01125 0.42191 0.0
C568 C 0.96151 0.02784 0.43462 0.0
C569 C 0.96721 0.05205 0.41616 0.0
C570 C 0.9527 0.0593 0.38525 0.0
H571 H 0.96931 0.04432 0.29423 0.0
H572 H 0.97347 0.06688 0.32368 0.0
H573 H 0.96994 0.03122 0.33577 0.0
H574 H 0.91077 0.00501 0.38132 0.0
H575 H 0.93575 0.99259 0.43583 0.0
H576 H 0.42122 0.34273 0.62291 0.0
H577 H 0.43254 0.3609 0.67363 0.0
H578 H 0.35943 0.41104 0.64885 0.0
H579 H 0.34818 0.39342 0.59803 0.0
H580 H 0.44037 0.41558 0.68503 0.0
H581 H 0.35332 0.36888 0.73756 0.0
H582 H 0.36458 0.35795 0.7034 0.0
H583 H 0.34324 0.38773 0.69845 0.0
C584 C 0.40768 0.35783 0.6281 0.0
C585 C 0.38365 0.36645 0.60647 0.0
C586 C 0.41412 0.36805 0.65717 0.0
C587 C 0.39655 0.38691 0.66522 0.0
C588 C 0.37292 0.39601 0.64342 0.0
H589 H 0.41356 0.50403 0.79227 0.0
H590 H 0.41328 0.47751 0.74861 0.0
C591 C 0.36652 0.38589 0.61438 0.0
C592 C 0.40291 0.39749 0.69619 0.0
H593 H 0.3763 0.40422 0.76316 0.0
C594 C 0.42656 0.41284 0.70233 0.0
C595 C 0.38515 0.39347 0.71898 0.0
C596 C 0.36028 0.37588 0.7145 0.0
C597 C 0.43215 0.42548 0.72993 0.0
C598 C 0.41341 0.4229 0.75169 0.0
C599 C 0.39053 0.40638 0.74634 0.0
C600 C 0.41596 0.43872 0.77879 0.0
C601 C 0.4579 0.4417 0.73538 0.0
C602 C 0.41728 0.42574 0.8103 0.0
C603 C 0.41721 0.44091 0.83538 0.0
C604 C 0.41542 0.4693 0.82924 0.0
C605 C 0.41465 0.48218 0.79773 0.0
C606 C 0.41484 0.46706 0.77278 0.0
H607 H 0.47384 0.43483 0.72274 0.0
H608 H 0.45304 0.46327 0.72589 0.0
H609 H 0.46644 0.44024 0.76124 0.0
H610 H 0.41792 0.40387 0.8154 0.0
H611 H 0.4176 0.43041 0.85936 0.0
H612 H 0.65362 0.66572 0.42167 0.0
H613 H 0.63961 0.64475 0.37331 0.0
H614 H 0.58218 0.59551 0.42012 0.0
H615 H 0.59565 0.61674 0.46834 0.0
H616 H 0.64317 0.58845 0.36968 0.0
H617 H 0.53622 0.628 0.33356 0.0
H618 H 0.56149 0.64307 0.36106 0.0
H619 H 0.5449 0.61253 0.3745 0.0
C620 C 0.63767 0.65076 0.42148 0.0
C621 C 0.6257 0.64293 0.44882 0.0
C622 C 0.62981 0.6387 0.39391 0.0
C623 C 0.60966 0.61881 0.39304 0.0
C624 C 0.59747 0.61112 0.42014 0.0
H625 H 0.5397 0.5138 0.25728 0.0
H626 H 0.55145 0.53851 0.30293 0.0
C627 C 0.60539 0.62308 0.44776 0.0
C628 C 0.60241 0.60509 0.36439 0.0
H629 H 0.5494 0.59357 0.30598 0.0
C630 C 0.62273 0.5897 0.35559 0.0
C631 C 0.57568 0.60667 0.34623 0.0
C632 C 0.55332 0.62363 0.35406 0.0
C633 C 0.61691 0.57532 0.32946 0.0
C634 C 0.59018 0.5769 0.31123 0.0
C635 C 0.56987 0.5924 0.31997 0.0
C636 C 0.58284 0.56236 0.28321 0.0
C637 C 0.63925 0.55797 0.32219 0.0
C638 C 0.59629 0.56787 0.25676 0.0
C639 C 0.58984 0.55359 0.23078 0.0
C640 C 0.5696 0.53366 0.23061 0.0
C641 C 0.55572 0.52865 0.25687 0.0
C642 C 0.56225 0.54291 0.28287 0.0
H643 H 0.65595 0.55328 0.34308 0.0
H644 H 0.63096 0.53866 0.31491 0.0
H645 H 0.64832 0.56896 0.30219 0.0
H646 H 0.61188 0.58317 0.25625 0.0
H647 H 0.60107 0.55784 0.2111 0.0
H648 H 0.81386 0.09957 0.86099 0.0
H649 H 0.83362 0.09096 0.81457 0.0
H650 H 0.908 0.12991 0.85066 0.0
H651 H 0.88827 0.13945 0.89643 0.0
H652 H 0.85685 0.13296 0.76937 0.0
H653 H 0.93145 0.05281 0.83306 0.0
H654 H 0.90124 0.06137 0.84834 0.0
H655 H 0.9307 0.0826 0.85206 0.0
C656 C 0.83433 0.10653 0.85895 0.0
C657 C 0.8495 0.1201 0.88263 0.0
C658 C 0.84563 0.10141 0.83252 0.0
C659 C 0.87236 0.10948 0.82951 0.0
C660 C 0.88749 0.1231 0.85291 0.0
H661 H 0.99102 0.11515 0.70784 0.0
H662 H 0.96388 0.1135 0.75048 0.0
C663 C 0.87619 0.12842 0.87914 0.0
C664 C 0.88443 0.10451 0.80152 0.0
H665 H 0.93773 0.07207 0.78082 0.0
C666 C 0.87427 0.11936 0.77162 0.0
C667 C 0.90712 0.08677 0.80474 0.0
C668 C 0.91822 0.06976 0.8362 0.0
C669 C 0.8872 0.11804 0.7451 0.0
C670 C 0.91048 0.10088 0.74853 0.0
C671 C 0.91991 0.08522 0.77822 0.0
C672 C 0.92679 0.10061 0.72253 0.0
C673 C 0.87669 0.13609 0.71417 0.0
C674 C 0.91512 0.09339 0.69275 0.0
C675 C 0.93054 0.09471 0.66804 0.0
C676 C 0.95796 0.10306 0.6728 0.0
C677 C 0.96979 0.10925 0.70308 0.0
C678 C 0.95437 0.10808 0.72761 0.0
H679 H 0.86261 0.15224 0.71758 0.0
H680 H 0.89392 0.14573 0.70348 0.0
H681 H 0.86524 0.12377 0.6969 0.0
H682 H 0.89403 0.087 0.68851 0.0
H683 H 0.92078 0.08983 0.64502 0.0
H684 H 0.43661 0.33606 0.32978 0.0
H685 H 0.4546 0.35763 0.2827 0.0
H686 H 0.38155 0.40761 0.25402 0.0
H687 H 0.36365 0.38658 0.30129 0.0
H688 H 0.43044 0.36115 0.21608 0.0
H689 H 0.44516 0.46204 0.25616 0.0
H690 H 0.44046 0.43181 0.2831 0.0
H691 H 0.41152 0.44837 0.25662 0.0
C692 C 0.42445 0.35177 0.31357 0.0
C693 C 0.39874 0.35968 0.3194 0.0
C694 C 0.43469 0.36395 0.28659 0.0
C695 C 0.41956 0.38444 0.26511 0.0
C696 C 0.39372 0.39208 0.27054 0.0
H697 H 0.44514 0.48685 0.09227 0.0
H698 H 0.42722 0.46332 0.13834 0.0
C699 C 0.38341 0.37985 0.29741 0.0
C700 C 0.43079 0.39787 0.23702 0.0
H701 H 0.4517 0.45889 0.20333 0.0
C702 C 0.43523 0.38248 0.21332 0.0
C703 C 0.43696 0.42571 0.23351 0.0
C704 C 0.43353 0.44298 0.25878 0.0
C705 C 0.44516 0.39436 0.18583 0.0
C706 C 0.4513 0.42221 0.18233 0.0
C707 C 0.44695 0.43755 0.20609 0.0
C708 C 0.46205 0.43592 0.15406 0.0
C709 C 0.44834 0.37722 0.16035 0.0
C710 C 0.48769 0.42848 0.14777 0.0
C711 C 0.49783 0.44175 0.12127 0.0
C712 C 0.48254 0.46273 0.10071 0.0
C713 C 0.45709 0.47039 0.10734 0.0
C714 C 0.44693 0.4571 0.13376 0.0
H715 H 0.43676 0.35813 0.16303 0.0
H716 H 0.44119 0.38846 0.13612 0.0
H717 H 0.47032 0.37188 0.16218 0.0
H718 H 0.49993 0.41254 0.16348 0.0
H719 H 0.51754 0.43547 0.11674 0.0
H720 H 0.12118 0.87959 0.8585 0.0
H721 H 0.09904 0.89857 0.80471 0.0
H722 H 0.15056 0.96838 0.80878 0.0
H723 H 0.17369 0.949 0.86211 0.0
H724 H 0.07029 0.94629 0.78284 0.0
H725 H 0.16303 0.94248 0.72636 0.0
H726 H 0.1614 0.92531 0.76594 0.0
H727 H 0.16699 0.96112 0.75966 0.0
C728 C 0.12805 0.89884 0.84784 0.0
C729 C 0.14943 0.91262 0.8645 0.0
C730 C 0.1152 0.90977 0.81721 0.0
C731 C 0.12344 0.93468 0.80258 0.0
C732 C 0.14424 0.94888 0.81941 0.0
H733 H 0.02839 0.01985 0.62506 0.0
H734 H 0.0517 0.00856 0.6806 0.0
C735 C 0.15721 0.93791 0.85004 0.0
C736 C 0.1103 0.94551 0.7696 0.0
H737 H 0.12313 0.96262 0.69362 0.0
C738 C 0.08182 0.94999 0.76331 0.0
C739 C 0.12541 0.95 0.74418 0.0
C740 C 0.15585 0.94427 0.74919 0.0
C741 C 0.06794 0.95858 0.73219 0.0
C742 C 0.0831 0.96337 0.70683 0.0
C743 C 0.11162 0.95917 0.71318 0.0
C744 C 0.06962 0.97104 0.6732 0.0
C745 C 0.0371 0.96149 0.72661 0.0
C746 C 0.07253 0.9541 0.6505 0.0
C747 C 0.05952 0.96068 0.61887 0.0
C748 C 0.04348 0.98433 0.60925 0.0
C749 C 0.04064 0.0014 0.63192 0.0
C750 C 0.05382 0.99493 0.66361 0.0
H751 H 0.0282 0.95087 0.74698 0.0
H752 H 0.03135 0.98323 0.72374 0.0
H753 H 0.02779 0.95337 0.70452 0.0
H754 H 0.08445 0.93545 0.65741 0.0
H755 H 0.06122 0.94673 0.60237 0.0
loop_
_geom_bond_atom_site_label_1
_geom_bond_atom_site_label_2
_geom_bond_distance
_geom_bond_site_symmetry_2
_ccdc_geom_bond_type
C0 C1 1.386 . S
C0 C2 1.397 . S
C0 H24 0.931 . S
C1 C0 1.386 . S
C1 C5 1.397 . S
C2 C0 1.397 . S
C2 C3 1.384 . S
C2 H25 0.930 . S
C3 C2 1.384 . S
C3 C4 1.377 . S
C3 C6 1.481 . S
C4 C3 1.377 . S
C4 C5 1.389 . S
C4 H26 0.929 . S
C5 C1 1.397 . S
C5 C4 1.389 . S
C5 H27 0.931 . S
C6 C3 1.481 . S
C6 C7 1.387 . S
C6 C11 1.390 1_556 S
C7 C6 1.387 . S
C7 C8 1.401 1_556 S
C7 H28 0.930 . S
C8 C7 1.401 1_554 S
C8 C9 1.376 . S
C8 C17 1.511 . S
C9 C8 1.376 . S
C9 C10 1.392 . S
C9 H30 0.931 . S
C10 C9 1.392 . S
C10 C11 1.361 . S
C10 C12 1.500 . S
C11 C6 1.390 1_554 S
C11 C10 1.361 . S
C11 H29 0.931 . S
C12 C10 1.500 . S
C12 C13 1.371 . S
C12 C14 1.365 . S
C13 C12 1.371 . S
C13 C23 1.386 . S
C13 H31 0.931 . S
C14 C12 1.365 . S
C14 C15 1.409 . S
C14 H32 0.929 . S
C15 C14 1.409 . S
C15 C16 1.380 . S
C15 H33 0.930 . S
C16 C15 1.380 . S
C16 C23 1.357 . S
C17 C8 1.511 . S
C17 C18 1.341 . S
C17 C19 1.371 . S
C18 C17 1.341 . S
C18 C22 1.394 . S
C18 H34 0.930 1_554 S
C19 C17 1.371 . S
C19 C20 1.392 . S
C19 H35 0.931 . S
C20 C19 1.392 . S
C20 C21 1.331 . S
C20 H38 0.932 . S
C21 C20 1.331 . S
C21 C22 1.336 . S
C22 C18 1.394 . S
C22 C21 1.336 . S
C22 H37 0.929 1_554 S
C23 C13 1.386 . S
C23 C16 1.357 . S
C23 H36 0.928 . S
H24 C0 0.931 . S
H25 C2 0.930 . S
H26 C4 0.929 . S
H27 C5 0.931 . S
H28 C7 0.930 . S
H29 C11 0.931 . S
H30 C9 0.931 . S
H31 C13 0.931 . S
H32 C14 0.929 . S
H33 C15 0.930 . S
H34 C18 0.930 1_556 S
H35 C19 0.931 . S
H36 C23 0.928 . S
H37 C22 0.929 1_556 S
H38 C20 0.932 . S
C39 C40 1.386 . S
C39 C41 1.397 . S
C39 H63 0.931 . S
C40 C39 1.386 . S
C40 C44 1.397 . S
C41 C39 1.397 . S
C41 C42 1.384 . S
C41 H64 0.930 . S
C42 C41 1.384 . S
C42 C43 1.377 . S
C42 C45 1.481 . S
C43 C42 1.377 . S
C43 C44 1.389 . S
C43 H65 0.929 . S
C44 C40 1.397 . S
C44 C43 1.389 . S
C44 H66 0.931 . S
C45 C42 1.481 . S
C45 C46 1.387 . S
C45 C50 1.390 . S
C46 C45 1.387 . S
C46 C47 1.401 . S
C46 H67 0.930 . S
C47 C46 1.401 . S
C47 C48 1.376 . S
C47 C56 1.511 . S
C48 C47 1.376 . S
C48 C49 1.392 . S
C48 H69 0.931 . S
C49 C48 1.392 . S
C49 C50 1.361 . S
C49 C51 1.500 . S
C50 C45 1.390 . S
C50 C49 1.361 . S
C50 H68 0.931 . S
C51 C49 1.500 . S
C51 C52 1.371 . S
C51 C53 1.365 . S
C52 C51 1.371 . S
C52 C62 1.386 . S
C52 H70 0.931 . S
C53 C51 1.365 . S
C53 C54 1.409 . S
C53 H71 0.929 . S
C54 C53 1.409 . S
C54 C55 1.380 . S
C54 H72 0.930 . S
C55 C54 1.380 . S
C55 C62 1.357 . S
C56 C47 1.511 . S
C56 C57 1.341 . S
C56 C58 1.371 . S
C57 C56 1.341 . S
C57 C61 1.394 . S
C57 H73 0.930 . S
C58 C56 1.371 . S
C58 C59 1.392 . S
C58 H74 0.931 . S
C59 C58 1.392 . S
C59 C60 1.331 . S
C59 H77 0.932 . S
C60 C59 1.331 . S
C60 C61 1.336 . S
C61 C57 1.394 . S
C61 C60 1.336 . S
C61 H76 0.929 . S
C62 C52 1.386 . S
C62 C55 1.357 . S
C62 H75 0.928 . S
H63 C39 0.931 . S
H64 C41 0.930 . S
H65 C43 0.929 . S
H66 C44 0.931 . S
H67 C46 0.930 . S
H68 C50 0.931 . S
H69 C48 0.931 . S
H70 C52 0.931 . S
H71 C53 0.929 . S
H72 C54 0.930 . S
H73 C57 0.930 . S
H74 C58 0.931 . S
H75 C62 0.928 . S
H76 C61 0.929 . S
H77 C59 0.932 . S
C78 C79 1.386 . S
C78 C80 1.397 . S
C78 H102 0.931 . S
C79 C78 1.386 . S
C79 C83 1.397 . S
C80 C78 1.397 . S
C80 C81 1.384 . S
C80 H103 0.930 . S
C81 C80 1.384 . S
C81 C82 1.377 . S
C81 C84 1.481 . S
C82 C81 1.377 . S
C82 C83 1.389 . S
C82 H104 0.929 . S
C83 C79 1.397 . S
C83 C82 1.389 . S
C83 H105 0.931 . S
C84 C81 1.481 . S
C84 C85 1.387 . S
C84 C89 1.390 . S
C85 C84 1.387 . S
C85 C86 1.401 . S
C85 H106 0.930 . S
C86 C85 1.401 . S
C86 C87 1.376 1_554 S
C86 C95 1.511 . S
C87 C86 1.376 1_556 S
C87 C88 1.392 . S
C87 H108 0.931 . S
C88 C87 1.392 . S
C88 C89 1.361 1_556 S
C88 C90 1.500 . S
C89 C84 1.390 . S
C89 C88 1.361 1_554 S
C89 H107 0.931 . S
C90 C88 1.500 . S
C90 C91 1.371 . S
C90 C92 1.365 . S
C91 C90 1.371 . S
C91 C101 1.386 . S
C91 H109 0.931 . S
C92 C90 1.365 . S
C92 C93 1.409 . S
C92 H110 0.929 . S
C93 C92 1.409 . S
C93 C94 1.380 . S
C93 H111 0.930 . S
C94 C93 1.380 . S
C94 C101 1.357 . S
C95 C86 1.511 . S
C95 C96 1.341 . S
C95 C97 1.371 1_554 S
C96 C95 1.341 . S
C96 C100 1.394 . S
C96 H112 0.930 . S
C97 C95 1.371 1_556 S
C97 C98 1.392 . S
C97 H113 0.931 . S
C98 C97 1.392 . S
C98 C99 1.331 1_556 S
C98 H116 0.932 . S
C99 C98 1.331 1_554 S
C99 C100 1.336 . S
C100 C96 1.394 . S
C100 C99 1.336 . S
C100 H115 0.929 . S
C101 C91 1.386 . S
C101 C94 1.357 . S
C101 H114 0.928 . S
H102 C78 0.931 . S
H103 C80 0.930 . S
H104 C82 0.929 . S
H105 C83 0.931 . S
H106 C85 0.930 . S
H107 C89 0.931 . S
H108 C87 0.931 . S
H109 C91 0.931 . S
H110 C92 0.929 . S
H111 C93 0.930 . S
H112 C96 0.930 . S
H113 C97 0.931 . S
H114 C101 0.928 . S
H115 C100 0.929 . S
H116 C98 0.932 . S
C117 C118 1.386 . S
C117 C119 1.397 . S
C117 H141 0.931 . S
C118 C117 1.386 . S
C118 C122 1.397 . S
C119 C117 1.397 . S
C119 C120 1.384 . S
C119 H142 0.930 . S
C120 C119 1.384 . S
C120 C121 1.377 . S
C120 C123 1.481 . S
C121 C120 1.377 . S
C121 C122 1.389 . S
C121 H143 0.929 . S
C122 C118 1.397 . S
C122 C121 1.389 . S
C122 H144 0.931 . S
C123 C120 1.481 . S
C123 C124 1.387 . S
C123 C128 1.390 . S
C124 C123 1.387 . S
C124 C125 1.401 . S
C124 H145 0.930 . S
C125 C124 1.401 . S
C125 C126 1.376 . S
C125 C134 1.511 . S
C126 C125 1.376 . S
C126 C127 1.392 . S
C126 H147 0.931 . S
C127 C126 1.392 . S
C127 C128 1.361 . S
C127 C129 1.500 . S
C128 C123 1.390 . S
C128 C127 1.361 . S
C128 H146 0.931 . S
C129 C127 1.500 . S
C129 C130 1.371 . S
C129 C131 1.365 . S
C130 C129 1.371 . S
C130 C140 1.386 . S
C130 H148 0.931 . S
C131 C129 1.365 . S
C131 C132 1.409 . S
C131 H149 0.929 . S
C132 C131 1.409 . S
C132 C133 1.380 . S
C132 H150 0.930 . S
C133 C132 1.380 . S
C133 C140 1.357 . S
C134 C125 1.511 . S
C134 C135 1.341 . S
C134 C136 1.371 . S
C135 C134 1.341 . S
C135 C139 1.394 . S
C135 H151 0.930 . S
C136 C134 1.371 . S
C136 C137 1.392 . S
C136 H152 0.931 . S
C137 C136 1.392 . S
C137 C138 1.331 . S
C137 H155 0.932 . S
C138 C137 1.331 . S
C138 C139 1.336 . S
C139 C135 1.394 . S
C139 C138 1.336 . S
C139 H154 0.929 . S
C140 C130 1.386 . S
C140 C133 1.357 . S
C140 H153 0.928 . S
H141 C117 0.931 . S
H142 C119 0.930 . S
H143 C121 0.929 . S
H144 C122 0.931 . S
H145 C124 0.930 . S
H146 C128 0.931 . S
H147 C126 0.931 . S
H148 C130 0.931 . S
H149 C131 0.929 . S
H150 C132 0.930 . S
H151 C135 0.930 . S
H152 C136 0.931 . S
H153 C140 0.928 . S
H154 C139 0.929 . S
H155 C137 0.932 . S
Eu156 N185 2.600 . S
Eu156 N191 2.562 . S
Eu156 O200 2.462 . S
Eu156 O201 2.373 . S
Eu156 O203 2.432 . S
Eu156 O204 2.291 1_565 S
Eu156 O208 2.353 1_455 S
Eu156 O211 2.372 1_455 S
Eu156 C220 2.787 . S
C157 N158 1.365 . S
C157 C160 1.405 . S
C157 C164 1.448 . S
N158 C157 1.365 . S
N158 C161 1.319 1_655 S
N158 Eu167 2.600 . S
C159 C161 1.397 . S
C159 C162 1.367 1_455 S
C159 H179 0.931 . S
C160 C157 1.405 . S
C160 C162 1.403 . S
C160 C166 1.439 . S
C161 N158 1.319 1_455 S
C161 C159 1.397 . S
C161 H172 0.930 . S
C162 C159 1.367 1_655 S
C162 C160 1.403 . S
C162 H183 0.929 . S
C163 C164 1.430 . S
C163 C165 1.387 . S
C163 C169 1.404 . S
C164 C157 1.448 . S
C164 C163 1.430 . S
C164 N168 1.351 . S
C165 C163 1.387 . S
C165 C166 1.374 . S
C165 H180 0.931 . S
C166 C160 1.439 . S
C166 C165 1.374 . S
C166 H181 0.931 . S
Eu167 N158 2.600 . S
Eu167 N168 2.562 . S
Eu167 O202 2.335 1_655 S
Eu167 O205 2.372 1_655 S
Eu167 O206 2.462 . S
Eu167 O207 2.373 . S
Eu167 O209 2.432 . S
Eu167 O210 2.291 1_545 S
Eu167 C231 2.787 . S
N168 C164 1.351 . S
N168 Eu167 2.562 . S
N168 C170 1.325 . S
C169 C163 1.404 . S
C169 C171 1.366 . S
C169 H177 0.930 . S
C170 N168 1.325 . S
C170 C171 1.416 . S
C170 H176 0.929 . S
C171 C169 1.366 . S
C171 C170 1.416 . S
C171 H173 0.930 . S
H172 C161 0.930 . S
H173 C171 0.930 . S
H174 C189 0.930 1_655 S
H175 C196 0.930 . S
H176 C170 0.929 . S
H177 C169 0.930 . S
H178 C192 0.929 . S
H179 C159 0.931 . S
H180 C165 0.931 . S
H181 C166 0.931 . S
H182 C187 0.931 1_655 S
H183 C162 0.929 . S
H184 C195 0.930 . S
N185 Eu156 2.600 . S
N185 C186 1.365 . S
N185 C189 1.319 . S
C186 N185 1.365 . S
C186 C188 1.405 . S
C186 C194 1.448 . S
C187 H182 0.931 1_455 S
C187 C189 1.397 . S
C187 C190 1.367 . S
C188 C186 1.405 . S
C188 C190 1.403 . S
C188 C221 1.439 . S
C189 H174 0.930 1_455 S
C189 N185 1.319 . S
C189 C187 1.397 . S
C190 C187 1.367 . S
C190 C188 1.403 . S
C190 H197 0.929 . S
N191 Eu156 2.562 . S
N191 C192 1.325 . S
N191 C194 1.351 . S
C192 H178 0.929 . S
C192 N191 1.325 . S
C192 C196 1.416 . S
C193 C194 1.430 . S
C193 C195 1.404 . S
C193 C222 1.387 . S
C194 C186 1.448 . S
C194 N191 1.351 . S
C194 C193 1.430 . S
C195 H184 0.930 . S
C195 C193 1.404 . S
C195 C196 1.366 . S
C196 H175 0.930 . S
C196 C192 1.416 . S
C196 C195 1.366 . S
H197 C190 0.929 . S
H198 C221 0.931 . S
H199 C222 0.931 . S
O200 Eu156 2.462 . S
O200 C220 1.252 . S
O201 Eu156 2.373 . S
O201 C212 1.249 . S
O202 Eu167 2.335 1_455 S
O202 C212 1.264 1_545 S
O203 Eu156 2.432 . S
O203 C220 1.268 . S
O204 Eu156 2.291 1_545 S
O204 C219 1.255 . S
O205 Eu167 2.372 1_455 S
O205 C219 1.257 . S
O206 Eu167 2.462 . S
O206 C231 1.252 . S
O207 Eu167 2.373 . S
O207 C223 1.249 . S
O208 Eu156 2.353 1_655 S
O208 C223 1.236 1_565 S
O209 Eu167 2.432 . S
O209 C231 1.268 . S
O210 Eu167 2.291 1_565 S
O210 C230 1.255 . S
O211 Eu156 2.372 1_655 S
O211 C230 1.257 . S
C212 O201 1.249 . S
C212 O202 1.264 1_565 S
C213 C216 1.382 . S
C213 C218 1.390 . S
C213 C220 1.506 . S
C214 C215 1.398 . S
C214 C218 1.392 . S
C215 C214 1.398 . S
C215 C217 1.372 . S
C215 H232 0.931 . S
C216 C213 1.382 . S
C216 C217 1.390 . S
C216 H233 0.931 . S
C217 C215 1.372 . S
C217 C216 1.390 . S
C217 H234 0.929 . S
C218 C213 1.390 . S
C218 C214 1.392 . S
C218 H235 0.930 . S
C219 O204 1.255 . S
C219 O205 1.257 . S
C220 Eu156 2.787 . S
C220 O200 1.252 . S
C220 O203 1.268 . S
C220 C213 1.506 . S
C221 C188 1.439 . S
C221 H198 0.931 . S
C221 C222 1.374 . S
C222 C193 1.387 . S
C222 H199 0.931 . S
C222 C221 1.374 . S
C223 O207 1.249 . S
C223 O208 1.236 1_545 S
C224 C227 1.382 . S
C224 C228 1.390 . S
C224 C231 1.506 . S
C225 C226 1.398 . S
C225 C228 1.392 . S
C226 C225 1.398 . S
C226 C229 1.372 . S
C226 H236 0.931 . S
C227 C224 1.382 . S
C227 C229 1.390 . S
C227 H237 0.931 . S
C228 C224 1.390 . S
C228 C225 1.392 . S
C228 H238 0.930 . S
C229 C226 1.372 . S
C229 C227 1.390 . S
C229 H239 0.929 . S
C230 O210 1.255 . S
C230 O211 1.257 . S
C231 Eu167 2.787 . S
C231 O206 1.252 . S
C231 O209 1.268 . S
C231 C224 1.506 . S
H232 C215 0.931 . S
H233 C216 0.931 . S
H234 C217 0.929 . S
H235 C218 0.930 . S
H236 C226 0.931 . S
H237 C227 0.931 . S
H238 C228 0.930 . S
H239 C229 0.929 . S
Eu240 N269 2.600 . S
Eu240 N275 2.562 1_556 S
Eu240 O284 2.462 . S
Eu240 O285 2.373 1_556 S
Eu240 O287 2.432 . S
Eu240 O288 2.291 1_556 S
Eu240 O292 2.335 . S
Eu240 O295 2.372 . S
Eu240 C304 2.787 . S
C241 N242 1.365 . S
C241 C244 1.405 . S
C241 C248 1.448 . S
N242 C241 1.365 . S
N242 C245 1.319 . S
N242 Eu251 2.600 . S
C243 C245 1.397 . S
C243 C246 1.367 . S
C243 H263 0.931 . S
C244 C241 1.405 . S
C244 C246 1.403 . S
C244 C250 1.439 . S
C245 N242 1.319 . S
C245 C243 1.397 . S
C245 H256 0.930 . S
C246 C243 1.367 . S
C246 C244 1.403 . S
C246 H267 0.929 . S
C247 C248 1.430 . S
C247 C249 1.387 . S
C247 C253 1.404 . S
C248 C241 1.448 . S
C248 C247 1.430 . S
C248 N252 1.351 . S
C249 C247 1.387 . S
C249 C250 1.374 . S
C249 H264 0.931 . S
C250 C244 1.439 . S
C250 C249 1.374 . S
C250 H265 0.931 . S
Eu251 N242 2.600 . S
Eu251 N252 2.562 . S
Eu251 O286 2.335 . S
Eu251 O289 2.372 . S
Eu251 O290 2.462 . S
Eu251 O291 2.373 1_554 S
Eu251 O293 2.432 . S
Eu251 O294 2.291 . S
Eu251 C315 2.787 . S
N252 C248 1.351 . S
N252 Eu251 2.562 . S
N252 C254 1.325 . S
C253 C247 1.404 . S
C253 C255 1.366 . S
C253 H261 0.930 . S
C254 N252 1.325 . S
C254 C255 1.416 . S
C254 H260 0.929 . S
C255 C253 1.366 . S
C255 C254 1.416 . S
C255 H257 0.930 . S
H256 C245 0.930 . S
H257 C255 0.930 . S
H258 C273 0.930 . S
H259 C280 0.930 . S
H260 C254 0.929 . S
H261 C253 0.930 . S
H262 C276 0.929 . S
H263 C243 0.931 . S
H264 C249 0.931 . S
H265 C250 0.931 . S
H266 C271 0.931 . S
H267 C246 0.929 . S
H268 C279 0.930 . S
N269 Eu240 2.600 . S
N269 C270 1.365 1_556 S
N269 C273 1.319 . S
C270 N269 1.365 1_554 S
C270 C272 1.405 . S
C270 C278 1.448 . S
C271 H266 0.931 . S
C271 C273 1.397 . S
C271 C274 1.367 1_556 S
C272 C270 1.405 . S
C272 C274 1.403 . S
C272 C305 1.439 . S
C273 H258 0.930 . S
C273 N269 1.319 . S
C273 C271 1.397 . S
C274 C271 1.367 1_554 S
C274 C272 1.403 . S
C274 H281 0.929 . S
N275 Eu240 2.562 1_554 S
N275 C276 1.325 . S
N275 C278 1.351 . S
C276 H262 0.929 . S
C276 N275 1.325 . S
C276 C280 1.416 . S
C277 C278 1.430 . S
C277 C279 1.404 . S
C277 C306 1.387 . S
C278 C270 1.448 . S
C278 N275 1.351 . S
C278 C277 1.430 . S
C279 H268 0.930 . S
C279 C277 1.404 . S
C279 C280 1.366 . S
C280 H259 0.930 . S
C280 C276 1.416 . S
C280 C279 1.366 . S
H281 C274 0.929 . S
H282 C305 0.931 . S
H283 C306 0.931 . S
O284 Eu240 2.462 . S
O284 C304 1.252 . S
O285 Eu240 2.373 1_554 S
O285 C296 1.249 . S
O286 Eu251 2.335 . S
O286 C296 1.264 . S
O287 Eu240 2.432 . S
O287 C304 1.268 . S
O288 Eu240 2.291 1_554 S
O288 C303 1.255 . S
O289 Eu251 2.372 . S
O289 C303 1.257 . S
O290 Eu251 2.462 . S
O290 C315 1.252 . S
O291 Eu251 2.373 1_556 S
O291 C307 1.249 . S
O292 Eu240 2.335 . S
O292 C307 1.264 . S
O293 Eu251 2.432 . S
O293 C315 1.268 . S
O294 Eu251 2.291 . S
O294 C314 1.255 . S
O295 Eu240 2.372 . S
O295 C314 1.257 1_556 S
C296 O285 1.249 . S
C296 O286 1.264 . S
C297 C300 1.382 . S
C297 C302 1.390 . S
C297 C304 1.506 . S
C298 C299 1.398 . S
C298 C302 1.392 . S
C299 C298 1.398 . S
C299 C301 1.372 . S
C299 H316 0.931 . S
C300 C297 1.382 . S
C300 C301 1.390 . S
C300 H317 0.931 . S
C301 C299 1.372 . S
C301 C300 1.390 . S
C301 H318 0.929 . S
C302 C297 1.390 . S
C302 C298 1.392 . S
C302 H319 0.930 . S
C303 O288 1.255 . S
C303 O289 1.257 . S
C304 Eu240 2.787 . S
C304 O284 1.252 . S
C304 O287 1.268 . S
C304 C297 1.506 . S
C305 C272 1.439 . S
C305 H282 0.931 . S
C305 C306 1.374 . S
C306 C277 1.387 . S
C306 H283 0.931 . S
C306 C305 1.374 . S
C307 O291 1.249 . S
C307 O292 1.264 . S
C308 C311 1.382 . S
C308 C312 1.390 . S
C308 C315 1.506 . S
C309 C310 1.398 . S
C309 C312 1.392 . S
C310 C309 1.398 . S
C310 C313 1.372 . S
C310 H320 0.931 . S
C311 C308 1.382 . S
C311 C313 1.390 . S
C311 H321 0.931 . S
C312 C308 1.390 . S
C312 C309 1.392 . S
C312 H322 0.930 . S
C313 C310 1.372 . S
C313 C311 1.390 . S
C313 H323 0.929 . S
C314 O294 1.255 . S
C314 O295 1.257 1_554 S
C315 Eu251 2.787 . S
C315 O290 1.252 . S
C315 O293 1.268 . S
C315 C308 1.506 . S
H316 C299 0.931 . S
H317 C300 0.931 . S
H318 C301 0.929 . S
H319 C302 0.930 . S
H320 C310 0.931 . S
H321 C311 0.931 . S
H322 C312 0.930 . S
H323 C313 0.929 . S
H324 C332 0.929 . S
H325 C334 0.930 . S
H326 C336 0.930 . S
H327 C339 0.929 . S
H328 C342 0.930 . S
H329 C344 0.960 . S
H330 C344 0.960 . S
H331 C344 0.960 . S
C332 H324 0.929 . S
C332 C333 1.377 . S
C332 C334 1.384 . S
C333 C332 1.377 . S
C333 C339 1.390 . S
C334 H325 0.930 . S
C334 C332 1.384 . S
C334 C335 1.372 . S
C335 C334 1.372 . S
C335 C336 1.400 . S
C335 C340 1.490 . S
C336 H326 0.930 . S
C336 C335 1.400 . S
C336 C339 1.386 . S
H337 C353 0.930 . S
H338 C354 0.931 . S
C339 H327 0.929 . S
C339 C333 1.390 . S
C339 C336 1.386 . S
C340 C335 1.490 . S
C340 C342 1.395 . S
C340 C343 1.403 . S
H341 C347 0.930 . S
C342 H328 0.930 . S
C342 C340 1.395 . S
C342 C345 1.403 . S
C343 C340 1.403 . S
C343 C344 1.524 . S
C343 C347 1.400 . S
C344 H329 0.960 . S
C344 H330 0.960 . S
C344 H331 0.960 . S
C344 C343 1.524 . S
C345 C342 1.403 . S
C345 C346 1.392 . S
C345 C349 1.495 . S
C346 C345 1.392 . S
C346 C347 1.385 . S
C346 C348 1.478 . S
C347 H341 0.930 . S
C347 C343 1.400 . S
C347 C346 1.385 . S
C348 C346 1.478 . S
C348 C350 1.381 . S
C348 C354 1.383 . S
C349 C345 1.495 . S
C349 H355 0.959 . S
C349 H356 0.961 . S
C349 H357 0.960 . S
C350 C348 1.381 . S
C350 C351 1.394 . S
C350 H358 0.930 . S
C351 C350 1.394 . S
C351 C352 1.383 . S
C351 H359 0.929 . S
C352 C351 1.383 . S
C352 C353 1.377 . S
C353 H337 0.930 . S
C353 C352 1.377 . S
C353 C354 1.379 . S
C354 H338 0.931 . S
C354 C348 1.383 . S
C354 C353 1.379 . S
H355 C349 0.959 . S
H356 C349 0.961 . S
H357 C349 0.960 . S
H358 C350 0.930 . S
H359 C351 0.929 . S
H360 C368 0.929 1_556 S
H361 C370 0.930 1_556 S
H362 C372 0.930 . S
H363 C375 0.929 . S
H364 C378 0.930 . S
H365 C380 0.960 . S
H366 C380 0.960 . S
H367 C380 0.960 . S
C368 H360 0.929 1_554 S
C368 C369 1.377 . S
C368 C370 1.384 . S
C369 C368 1.377 . S
C369 C375 1.390 . S
C370 H361 0.930 1_554 S
C370 C368 1.384 . S
C370 C371 1.372 . S
C371 C370 1.372 . S
C371 C372 1.400 . S
C371 C376 1.490 . S
C372 H362 0.930 . S
C372 C371 1.400 . S
C372 C375 1.386 . S
H373 C389 0.930 . S
H374 C390 0.931 . S
C375 H363 0.929 . S
C375 C369 1.390 . S
C375 C372 1.386 . S
C376 C371 1.490 . S
C376 C378 1.395 . S
C376 C379 1.403 . S
H377 C383 0.930 . S
C378 H364 0.930 . S
C378 C376 1.395 . S
C378 C381 1.403 . S
C379 C376 1.403 . S
C379 C380 1.524 . S
C379 C383 1.400 . S
C380 H365 0.960 . S
C380 H366 0.960 . S
C380 H367 0.960 . S
C380 C379 1.524 . S
C381 C378 1.403 . S
C381 C382 1.392 . S
C381 C385 1.495 . S
C382 C381 1.392 . S
C382 C383 1.385 . S
C382 C384 1.478 . S
C383 H377 0.930 . S
C383 C379 1.400 . S
C383 C382 1.385 . S
C384 C382 1.478 . S
C384 C386 1.381 . S
C384 C390 1.383 . S
C385 C381 1.495 . S
C385 H391 0.959 . S
C385 H392 0.961 . S
C385 H393 0.960 . S
C386 C384 1.381 . S
C386 C387 1.399 . S
C386 H394 0.930 1_554 S
C387 C386 1.399 . S
C387 C388 1.396 . S
C387 H395 0.912 1_554 S
C388 C387 1.396 . S
C388 C389 1.377 . S
C389 H373 0.930 . S
C389 C388 1.377 . S
C389 C390 1.379 . S
C390 H374 0.931 . S
C390 C384 1.383 . S
C390 C389 1.379 . S
H391 C385 0.959 . S
H392 C385 0.961 . S
H393 C385 0.960 . S
H394 C386 0.930 1_556 S
H395 C387 0.912 1_556 S
H396 C404 0.929 . S
H397 C406 0.930 . S
H398 C408 0.930 . S
H399 C411 0.929 . S
H400 C414 0.930 . S
H401 C416 0.960 . S
H402 C416 0.960 . S
H403 C416 0.960 . S
C404 H396 0.929 . S
C404 C405 1.377 . S
C404 C406 1.384 . S
C405 C404 1.377 . S
C405 C411 1.390 . S
C406 H397 0.930 . S
C406 C404 1.384 . S
C406 C407 1.372 . S
C407 C406 1.372 . S
C407 C408 1.400 . S
C407 C412 1.490 . S
C408 H398 0.930 . S
C408 C407 1.400 . S
C408 C411 1.386 . S
H409 C425 0.930 . S
H410 C426 0.931 . S
C411 H399 0.929 . S
C411 C405 1.390 . S
C411 C408 1.386 . S
C412 C407 1.490 . S
C412 C414 1.395 . S
C412 C415 1.403 . S
H413 C419 0.930 . S
C414 H400 0.930 . S
C414 C412 1.395 . S
C414 C417 1.403 . S
C415 C412 1.403 . S
C415 C416 1.524 . S
C415 C419 1.400 . S
C416 H401 0.960 . S
C416 H402 0.960 . S
C416 H403 0.960 . S
C416 C415 1.524 . S
C417 C414 1.403 . S
C417 C418 1.392 . S
C417 C421 1.495 . S
C418 C417 1.392 . S
C418 C419 1.385 . S
C418 C420 1.478 . S
C419 H413 0.930 . S
C419 C415 1.400 . S
C419 C418 1.385 . S
C420 C418 1.478 . S
C420 C422 1.381 . S
C420 C426 1.383 . S
C421 C417 1.495 . S
C421 H427 0.959 . S
C421 H428 0.961 . S
C421 H429 0.960 . S
C422 C420 1.381 . S
C422 C423 1.394 . S
C422 H430 0.930 . S
C423 C422 1.394 . S
C423 C424 1.383 . S
C423 H431 0.929 . S
C424 C423 1.383 . S
C424 C425 1.377 . S
C425 H409 0.930 . S
C425 C424 1.377 . S
C425 C426 1.379 . S
C426 H410 0.931 . S
C426 C420 1.383 . S
C426 C425 1.379 . S
H427 C421 0.959 . S
H428 C421 0.961 . S
H429 C421 0.960 . S
H430 C422 0.930 . S
H431 C423 0.929 . S
H432 C440 0.929 . S
H433 C442 0.930 . S
H434 C444 0.930 . S
H435 C447 0.929 . S
H436 C450 0.930 . S
H437 C452 0.960 . S
H438 C452 0.960 . S
H439 C452 0.960 . S
C440 H432 0.929 . S
C440 C441 1.377 1_556 S
C440 C442 1.384 . S
C441 C440 1.377 1_554 S
C441 C447 1.390 . S
C442 H433 0.930 . S
C442 C440 1.384 . S
C442 C443 1.372 1_556 S
C443 C442 1.372 1_554 S
C443 C444 1.400 . S
C443 C448 1.490 . S
C444 H434 0.930 . S
C444 C443 1.400 . S
C444 C447 1.386 . S
H445 C461 0.930 . S
H446 C462 0.931 . S
C447 H435 0.929 . S
C447 C441 1.390 . S
C447 C444 1.386 . S
C448 C443 1.490 . S
C448 C450 1.395 . S
C448 C451 1.403 1_554 S
H449 C455 0.930 . S
C450 H436 0.930 . S
C450 C448 1.395 . S
C450 C453 1.403 . S
C451 C448 1.403 1_556 S
C451 C452 1.524 . S
C451 C455 1.400 . S
C452 H437 0.960 . S
C452 H438 0.960 . S
C452 H439 0.960 . S
C452 C451 1.524 . S
C453 C450 1.403 . S
C453 C454 1.392 . S
C453 C457 1.495 . S
C454 C453 1.392 . S
C454 C455 1.385 1_554 S
C454 C456 1.478 . S
C455 H449 0.930 . S
C455 C451 1.400 . S
C455 C454 1.385 1_556 S
C456 C454 1.478 . S
C456 C458 1.381 . S
C456 C462 1.383 . S
C457 C453 1.495 . S
C457 H463 0.959 . S
C457 H464 0.961 . S
C457 H465 0.960 . S
C458 C456 1.381 . S
C458 C459 1.394 . S
C458 H466 0.930 1_554 S
C459 C458 1.394 . S
C459 C460 1.383 . S
C459 H467 0.929 1_554 S
C460 C459 1.383 . S
C460 C461 1.377 . S
C461 H445 0.930 . S
C461 C460 1.377 . S
C461 C462 1.379 . S
C462 H446 0.931 . S
C462 C456 1.383 . S
C462 C461 1.379 . S
H463 C457 0.959 . S
H464 C457 0.961 . S
H465 C457 0.960 . S
H466 C458 0.930 1_556 S
H467 C459 0.929 1_556 S
H468 C476 0.929 . S
H469 C478 0.930 . S
H470 C480 0.930 . S
H471 C483 0.929 . S
H472 C486 0.930 . S
H473 C488 0.960 . S
H474 C488 0.960 . S
H475 C488 0.960 . S
C476 H468 0.929 . S
C476 C477 1.377 . S
C476 C478 1.384 . S
C477 C476 1.377 . S
C477 C483 1.390 . S
C478 H469 0.930 . S
C478 C476 1.384 . S
C478 C479 1.372 . S
C479 C478 1.372 . S
C479 C480 1.400 . S
C479 C484 1.490 . S
C480 H470 0.930 . S
C480 C479 1.400 . S
C480 C483 1.386 . S
H481 C497 0.930 . S
H482 C498 0.931 . S
C483 H471 0.929 . S
C483 C477 1.390 . S
C483 C480 1.386 . S
C484 C479 1.490 . S
C484 C486 1.395 . S
C484 C487 1.403 . S
H485 C491 0.930 . S
C486 H472 0.930 . S
C486 C484 1.395 . S
C486 C489 1.403 . S
C487 C484 1.403 . S
C487 C488 1.524 . S
C487 C491 1.400 . S
C488 H473 0.960 . S
C488 H474 0.960 . S
C488 H475 0.960 . S
C488 C487 1.524 . S
C489 C486 1.403 . S
C489 C490 1.392 . S
C489 C493 1.495 . S
C490 C489 1.392 . S
C490 C491 1.385 . S
C490 C492 1.478 . S
C491 H485 0.930 . S
C491 C487 1.400 . S
C491 C490 1.385 . S
C492 C490 1.478 . S
C492 C494 1.381 . S
C492 C498 1.383 . S
C493 C489 1.495 . S
C493 H499 0.959 . S
C493 H500 0.961 . S
C493 H501 0.960 . S
C494 C492 1.381 . S
C494 C495 1.394 . S
C494 H502 0.930 . S
C495 C494 1.394 . S
C495 C496 1.383 . S
C495 H503 0.929 1_565 S
C496 C495 1.383 . S
C496 C497 1.377 . S
C497 H481 0.930 . S
C497 C496 1.377 . S
C497 C498 1.379 . S
C498 H482 0.931 . S
C498 C492 1.383 . S
C498 C497 1.379 . S
H499 C493 0.959 . S
H500 C493 0.961 . S
H501 C493 0.960 . S
H502 C494 0.930 . S
H503 C495 0.929 1_545 S
H504 C512 0.929 . S
H505 C514 0.930 . S
H506 C516 0.930 . S
H507 C519 0.929 . S
H508 C522 0.930 . S
H509 C524 0.960 . S
H510 C524 0.960 . S
H511 C524 0.960 . S
C512 H504 0.929 . S
C512 C513 1.377 . S
C512 C514 1.384 . S
C513 C512 1.377 . S
C513 C519 1.390 . S
C514 H505 0.930 . S
C514 C512 1.384 . S
C514 C515 1.372 . S
C515 C514 1.372 . S
C515 C516 1.400 . S
C515 C520 1.490 . S
C516 H506 0.930 . S
C516 C515 1.400 . S
C516 C519 1.386 . S
H517 C533 0.930 . S
H518 C534 0.931 . S
C519 H507 0.929 . S
C519 C513 1.390 . S
C519 C516 1.386 . S
C520 C515 1.490 . S
C520 C522 1.395 . S
C520 C523 1.403 . S
H521 C527 0.930 . S
C522 H508 0.930 . S
C522 C520 1.395 . S
C522 C525 1.403 . S
C523 C520 1.403 . S
C523 C524 1.524 . S
C523 C527 1.400 . S
C524 H509 0.960 . S
C524 H510 0.960 . S
C524 H511 0.960 . S
C524 C523 1.524 . S
C525 C522 1.403 . S
C525 C526 1.392 . S
C525 C529 1.495 . S
C526 C525 1.392 . S
C526 C527 1.385 . S
C526 C528 1.478 . S
C527 H521 0.930 . S
C527 C523 1.400 . S
C527 C526 1.385 . S
C528 C526 1.478 . S
C528 C530 1.381 . S
C528 C534 1.383 . S
C529 C525 1.495 . S
C529 H535 0.959 . S
C529 H536 0.961 . S
C529 H537 0.960 . S
C530 C528 1.381 . S
C530 C531 1.394 . S
C530 H538 0.930 . S
C531 C530 1.394 . S
C531 C532 1.383 . S
C531 H539 0.929 . S
C532 C531 1.383 . S
C532 C533 1.377 . S
C533 H517 0.930 . S
C533 C532 1.377 . S
C533 C534 1.379 . S
C534 H518 0.931 . S
C534 C528 1.383 . S
C534 C533 1.379 . S
H535 C529 0.959 . S
H536 C529 0.961 . S
H537 C529 0.960 . S
H538 C530 0.930 . S
H539 C531 0.929 . S
H540 C548 0.929 . S
H541 C550 0.930 . S
H542 C552 0.930 . S
H543 C555 0.929 . S
H544 C558 0.930 . S
H545 C560 0.960 . S
H546 C560 0.960 . S
H547 C560 0.960 . S
C548 H540 0.929 . S
C548 C549 1.377 . S
C548 C550 1.384 . S
C549 C548 1.377 . S
C549 C555 1.390 . S
C550 H541 0.930 . S
C550 C548 1.384 . S
C550 C551 1.372 . S
C551 C550 1.372 . S
C551 C552 1.400 . S
C551 C556 1.490 . S
C552 H542 0.930 . S
C552 C551 1.400 . S
C552 C555 1.386 . S
H553 C569 0.930 . S
H554 C570 0.931 . S
C555 H543 0.929 . S
C555 C549 1.390 . S
C555 C552 1.386 . S
C556 C551 1.490 . S
C556 C558 1.395 . S
C556 C559 1.403 . S
H557 C563 0.930 . S
C558 H544 0.930 . S
C558 C556 1.395 . S
C558 C561 1.403 . S
C559 C556 1.403 . S
C559 C560 1.524 . S
C559 C563 1.400 . S
C560 H545 0.960 . S
C560 H546 0.960 . S
C560 H547 0.960 . S
C560 C559 1.524 . S
C561 C558 1.403 . S
C561 C562 1.392 . S
C561 C565 1.495 . S
C562 C561 1.392 . S
C562 C563 1.385 . S
C562 C564 1.478 . S
C563 H557 0.930 . S
C563 C559 1.400 . S
C563 C562 1.385 . S
C564 C562 1.478 . S
C564 C566 1.381 . S
C564 C570 1.383 . S
C565 C561 1.495 . S
C565 H571 0.959 . S
C565 H572 0.961 . S
C565 H573 0.960 . S
C566 C564 1.381 . S
C566 C567 1.394 . S
C566 H574 0.930 1_545 S
C567 C566 1.394 . S
C567 C568 1.383 . S
C567 H575 0.929 1_545 S
C568 C567 1.383 . S
C568 C569 1.377 . S
C569 H553 0.930 . S
C569 C568 1.377 . S
C569 C570 1.379 . S
C570 H554 0.931 . S
C570 C564 1.383 . S
C570 C569 1.379 . S
H571 C565 0.959 . S
H572 C565 0.961 . S
H573 C565 0.960 . S
H574 C566 0.930 1_565 S
H575 C567 0.929 1_565 S
H576 C584 0.929 . S
H577 C586 0.930 . S
H578 C588 0.930 . S
H579 C591 0.929 . S
H580 C594 0.930 . S
H581 C596 0.960 . S
H582 C596 0.960 . S
H583 C596 0.960 . S
C584 H576 0.929 . S
C584 C585 1.377 . S
C584 C586 1.384 . S
C585 C584 1.377 . S
C585 C591 1.390 . S
C586 H577 0.930 . S
C586 C584 1.384 . S
C586 C587 1.372 . S
C587 C586 1.372 . S
C587 C588 1.400 . S
C587 C592 1.490 . S
C588 H578 0.930 . S
C588 C587 1.400 . S
C588 C591 1.386 . S
H589 C605 0.930 . S
H590 C606 0.931 . S
C591 H579 0.929 . S
C591 C585 1.390 . S
C591 C588 1.386 . S
C592 C587 1.490 . S
C592 C594 1.395 . S
C592 C595 1.403 . S
H593 C599 0.930 . S
C594 H580 0.930 . S
C594 C592 1.395 . S
C594 C597 1.403 . S
C595 C592 1.403 . S
C595 C596 1.524 . S
C595 C599 1.400 . S
C596 H581 0.960 . S
C596 H582 0.960 . S
C596 H583 0.960 . S
C596 C595 1.524 . S
C597 C594 1.403 . S
C597 C598 1.392 . S
C597 C601 1.495 . S
C598 C597 1.392 . S
C598 C599 1.385 . S
C598 C600 1.478 . S
C599 H593 0.930 . S
C599 C595 1.400 . S
C599 C598 1.385 . S
C600 C598 1.478 . S
C600 C602 1.381 . S
C600 C606 1.383 . S
C601 C597 1.495 . S
C601 H607 0.959 . S
C601 H608 0.961 . S
C601 H609 0.960 . S
C602 C600 1.381 . S
C602 C603 1.394 . S
C602 H610 0.930 . S
C603 C602 1.394 . S
C603 C604 1.383 . S
C603 H611 0.929 . S
C604 C603 1.383 . S
C604 C605 1.377 . S
C605 H589 0.930 . S
C605 C604 1.377 . S
C605 C606 1.379 . S
C606 H590 0.931 . S
C606 C600 1.383 . S
C606 C605 1.379 . S
H607 C601 0.959 . S
H608 C601 0.961 . S
H609 C601 0.960 . S
H610 C602 0.930 . S
H611 C603 0.929 . S
H612 C620 0.929 . S
H613 C622 0.930 . S
H614 C624 0.930 . S
H615 C627 0.929 . S
H616 C630 0.930 . S
H617 C632 0.960 . S
H618 C632 0.960 . S
H619 C632 0.960 . S
C620 H612 0.929 . S
C620 C621 1.377 . S
C620 C622 1.384 . S
C621 C620 1.377 . S
C621 C627 1.390 . S
C622 H613 0.930 . S
C622 C620 1.384 . S
C622 C623 1.372 . S
C623 C622 1.372 . S
C623 C624 1.400 . S
C623 C628 1.490 . S
C624 H614 0.930 . S
C624 C623 1.400 . S
C624 C627 1.386 . S
H625 C641 0.930 . S
H626 C642 0.931 . S
C627 H615 0.929 . S
C627 C621 1.390 . S
C627 C624 1.386 . S
C628 C623 1.490 . S
C628 C630 1.395 . S
C628 C631 1.403 . S
H629 C635 0.930 . S
C630 H616 0.930 . S
C630 C628 1.395 . S
C630 C633 1.403 . S
C631 C628 1.403 . S
C631 C632 1.524 . S
C631 C635 1.400 . S
C632 H617 0.960 . S
C632 H618 0.960 . S
C632 H619 0.960 . S
C632 C631 1.524 . S
C633 C630 1.403 . S
C633 C634 1.392 . S
C633 C637 1.495 . S
C634 C633 1.392 . S
C634 C635 1.385 . S
C634 C636 1.478 . S
C635 H629 0.930 . S
C635 C631 1.400 . S
C635 C634 1.385 . S
C636 C634 1.478 . S
C636 C638 1.381 . S
C636 C642 1.383 . S
C637 C633 1.495 . S
C637 H643 0.959 . S
C637 H644 0.961 . S
C637 H645 0.960 . S
C638 C636 1.381 . S
C638 C639 1.394 . S
C638 H646 0.930 . S
C639 C638 1.394 . S
C639 C640 1.383 . S
C639 H647 0.929 . S
C640 C639 1.383 . S
C640 C641 1.377 . S
C641 H625 0.930 . S
C641 C640 1.377 . S
C641 C642 1.379 . S
C642 H626 0.931 . S
C642 C636 1.383 . S
C642 C641 1.379 . S
H643 C637 0.959 . S
H644 C637 0.961 . S
H645 C637 0.960 . S
H646 C638 0.930 . S
H647 C639 0.929 . S
H648 C656 0.929 . S
H649 C658 0.930 . S
H650 C660 0.930 . S
H651 C663 0.929 . S
H652 C666 0.930 . S
H653 C668 0.960 . S
H654 C668 0.960 . S
H655 C668 0.960 . S
C656 H648 0.929 . S
C656 C657 1.377 . S
C656 C658 1.384 . S
C657 C656 1.377 . S
C657 C663 1.390 . S
C658 H649 0.930 . S
C658 C656 1.384 . S
C658 C659 1.372 . S
C659 C658 1.372 . S
C659 C660 1.400 . S
C659 C664 1.490 . S
C660 H650 0.930 . S
C660 C659 1.400 . S
C660 C663 1.386 . S
H661 C677 0.930 . S
H662 C678 0.931 . S
C663 H651 0.929 . S
C663 C657 1.390 . S
C663 C660 1.386 . S
C664 C659 1.490 . S
C664 C666 1.395 . S
C664 C667 1.403 . S
H665 C671 0.930 . S
C666 H652 0.930 . S
C666 C664 1.395 . S
C666 C669 1.403 . S
C667 C664 1.403 . S
C667 C668 1.524 . S
C667 C671 1.400 . S
C668 H653 0.960 . S
C668 H654 0.960 . S
C668 H655 0.960 . S
C668 C667 1.524 . S
C669 C666 1.403 . S
C669 C670 1.392 . S
C669 C673 1.495 . S
C670 C669 1.392 . S
C670 C671 1.385 . S
C670 C672 1.478 . S
C671 H665 0.930 . S
C671 C667 1.400 . S
C671 C670 1.385 . S
C672 C670 1.478 . S
C672 C674 1.381 . S
C672 C678 1.383 . S
C673 C669 1.495 . S
C673 H679 0.959 . S
C673 H680 0.961 . S
C673 H681 0.960 . S
C674 C672 1.381 . S
C674 C675 1.394 . S
C674 H682 0.930 . S
C675 C674 1.394 . S
C675 C676 1.383 . S
C675 H683 0.929 . S
C676 C675 1.383 . S
C676 C677 1.377 . S
C677 H661 0.930 . S
C677 C676 1.377 . S
C677 C678 1.379 . S
C678 H662 0.931 . S
C678 C672 1.383 . S
C678 C677 1.379 . S
H679 C673 0.959 . S
H680 C673 0.961 . S
H681 C673 0.960 . S
H682 C674 0.930 . S
H683 C675 0.929 . S
H684 C692 0.929 . S
H685 C694 0.930 . S
H686 C696 0.930 . S
H687 C699 0.929 . S
H688 C702 0.930 . S
H689 C704 0.960 . S
H690 C704 0.960 . S
H691 C704 0.960 . S
C692 H684 0.929 . S
C692 C693 1.377 . S
C692 C694 1.384 . S
C693 C692 1.377 . S
C693 C699 1.390 . S
C694 H685 0.930 . S
C694 C692 1.384 . S
C694 C695 1.372 . S
C695 C694 1.372 . S
C695 C696 1.400 . S
C695 C700 1.490 . S
C696 H686 0.930 . S
C696 C695 1.400 . S
C696 C699 1.386 . S
H697 C713 0.930 . S
H698 C714 0.931 . S
C699 H687 0.929 . S
C699 C693 1.390 . S
C699 C696 1.386 . S
C700 C695 1.490 . S
C700 C702 1.395 . S
C700 C703 1.403 . S
H701 C707 0.930 . S
C702 H688 0.930 . S
C702 C700 1.395 . S
C702 C705 1.403 . S
C703 C700 1.403 . S
C703 C704 1.524 . S
C703 C707 1.400 . S
C704 H689 0.960 . S
C704 H690 0.960 . S
C704 H691 0.960 . S
C704 C703 1.524 . S
C705 C702 1.403 . S
C705 C706 1.392 . S
C705 C709 1.495 . S
C706 C705 1.392 . S
C706 C707 1.385 . S
C706 C708 1.478 . S
C707 H701 0.930 . S
C707 C703 1.400 . S
C707 C706 1.385 . S
C708 C706 1.478 . S
C708 C710 1.381 . S
C708 C714 1.383 . S
C709 C705 1.495 . S
C709 H715 0.959 . S
C709 H716 0.961 . S
C709 H717 0.960 . S
C710 C708 1.381 . S
C710 C711 1.394 . S
C710 H718 0.930 . S
C711 C710 1.394 . S
C711 C712 1.383 . S
C711 H719 0.929 . S
C712 C711 1.383 . S
C712 C713 1.377 . S
C713 H697 0.930 . S
C713 C712 1.377 . S
C713 C714 1.379 . S
C714 H698 0.931 . S
C714 C708 1.383 . S
C714 C713 1.379 . S
H715 C709 0.959 . S
H716 C709 0.961 . S
H717 C709 0.960 . S
H718 C710 0.930 . S
H719 C711 0.929 . S
H720 C728 0.929 . S
H721 C730 0.930 . S
H722 C732 0.930 . S
H723 C735 0.929 . S
H724 C738 0.930 . S
H725 C740 0.960 . S
H726 C740 0.960 . S
H727 C740 0.960 . S
C728 H720 0.929 . S
C728 C729 1.377 . S
C728 C730 1.384 . S
C729 C728 1.377 . S
C729 C735 1.390 . S
C730 H721 0.930 . S
C730 C728 1.384 . S
C730 C731 1.372 . S
C731 C730 1.372 . S
C731 C732 1.400 . S
C731 C736 1.490 . S
C732 H722 0.930 . S
C732 C731 1.400 . S
C732 C735 1.386 . S
H733 C749 0.930 1_545 S
H734 C750 0.931 . S
C735 H723 0.929 . S
C735 C729 1.390 . S
C735 C732 1.386 . S
C736 C731 1.490 . S
C736 C738 1.395 . S
C736 C739 1.403 . S
H737 C743 0.930 . S
C738 H724 0.930 . S
C738 C736 1.395 . S
C738 C741 1.403 . S
C739 C736 1.403 . S
C739 C740 1.524 . S
C739 C743 1.400 . S
C740 H725 0.960 . S
C740 H726 0.960 . S
C740 H727 0.960 . S
C740 C739 1.524 . S
C741 C738 1.403 . S
C741 C742 1.392 . S
C741 C745 1.495 . S
C742 C741 1.392 . S
C742 C743 1.385 . S
C742 C744 1.478 . S
C743 H737 0.930 . S
C743 C739 1.400 . S
C743 C742 1.385 . S
C744 C742 1.478 . S
C744 C746 1.381 . S
C744 C750 1.383 . S
C745 C741 1.495 . S
C745 H751 0.959 . S
C745 H752 0.961 . S
C745 H753 0.960 . S
C746 C744 1.381 . S
C746 C747 1.394 . S
C746 H754 0.930 . S
C747 C746 1.394 . S
C747 C748 1.383 . S
C747 H755 0.929 . S
C748 C747 1.383 . S
C748 C749 1.377 . S
C749 H733 0.930 1_565 S
C749 C748 1.377 . S
C749 C750 1.379 . S
C750 H734 0.931 . S
C750 C744 1.383 . S
C750 C749 1.379 . S
H751 C745 0.959 . S
H752 C745 0.961 . S
H753 C745 0.960 . S
H754 C746 0.930 . S
H755 C747 0.929 . S
C352 C219 1.634 . S
C333 C138 1.623 . S
C369 C21 1.611 . S
C388 C314 1.608 . S
C405 C60 1.628 . S
C424 C230 1.620 . S
C441 C99 1.622 . S
C460 C303 1.596 . S
C496 C214 1.406 . S
C477 C16 1.563 . S
C532 C307 1.611 . S
C513 C40 1.604 . S
C549 C79 1.594 . S
C568 C223 1.598 . S
C585 C133 1.545 . S
C604 C298 1.437 . S
C640 C309 1.363 . S
C621 C55 1.544 . S
C676 C225 1.421 . S
C657 C94 1.561 . S
C712 C296 1.609 . S
C693 C118 1.603 . S
C729 C1 1.585 . S
C748 C212 1.598 . S
