# Generated by pormake.
# Topology ssc, (4,4)-cn, num edge types: 1
# Building blocks:
#     Node 0, Type 0, BuildingBlock: ESEHIV_clean_sbu_0, # of connection points: 4
#     Node 1, Type 0, BuildingBlock: ESEHIV_clean_sbu_0, # of connection points: 4
#     Node 2, Type 0, BuildingBlock: ESEHIV_clean_sbu_0, # of connection points: 4
#     Node 3, Type 0, BuildingBlock: ESEHIV_clean_sbu_0, # of connection points: 4
#     Node 4, Type 0, BuildingBlock: ESEHIV_clean_sbu_0, # of connection points: 4
#     Node 5, Type 0, BuildingBlock: ESEHIV_clean_sbu_0, # of connection points: 4
#     Node 6, Type 0, BuildingBlock: ESEHIV_clean_sbu_0, # of connection points: 4
#     Node 7, Type 0, BuildingBlock: ESEHIV_clean_sbu_0, # of connection points: 4
#     Node 8, Type 0, BuildingBlock: ESEHIV_clean_sbu_0, # of connection points: 4
#     Node 9, Type 0, BuildingBlock: ESEHIV_clean_sbu_0, # of connection points: 4
#     Node 10, Type 0, BuildingBlock: ESEHIV_clean_sbu_0, # of connection points: 4
#     Node 11, Type 0, BuildingBlock: ESEHIV_clean_sbu_0, # of connection points: 4
#     Node 12, Type 1, BuildingBlock: GIZVER_clean_linker_0, # of connection points: 4
#     Node 13, Type 1, BuildingBlock: GIZVER_clean_linker_0, # of connection points: 4
#     Node 14, Type 1, BuildingBlock: GIZVER_clean_linker_0, # of connection points: 4
#     Node 15, Type 1, BuildingBlock: GIZVER_clean_linker_0, # of connection points: 4
#     Node 16, Type 1, BuildingBlock: GIZVER_clean_linker_0, # of connection points: 4
#     Node 17, Type 1, BuildingBlock: GIZVER_clean_linker_0, # of connection points: 4
#     Node 18, Type 1, BuildingBlock: GIZVER_clean_linker_0, # of connection points: 4
#     Node 19, Type 1, BuildingBlock: GIZVER_clean_linker_0, # of connection points: 4
#     Node 20, Type 1, BuildingBlock: GIZVER_clean_linker_0, # of connection points: 4
#     Node 21, Type 1, BuildingBlock: GIZVER_clean_linker_0, # of connection points: 4
#     Node 22, Type 1, BuildingBlock: GIZVER_clean_linker_0, # of connection points: 4
#     Node 23, Type 1, BuildingBlock: GIZVER_clean_linker_0, # of connection points: 4
#     Edge 24, Type (0, 1), BuildingBlock: CIFDUS_clean_linker_0, # of connection points: 2
#     Edge 25, Type (0, 1), BuildingBlock: CIFDUS_clean_linker_0, # of connection points: 2
#     Edge 26, Type (0, 1), BuildingBlock: CIFDUS_clean_linker_0, # of connection points: 2
#     Edge 27, Type (0, 1), BuildingBlock: CIFDUS_clean_linker_0, # of connection points: 2
#     Edge 28, Type (0, 1), BuildingBlock: CIFDUS_clean_linker_0, # of connection points: 2
#     Edge 29, Type (0, 1), BuildingBlock: CIFDUS_clean_linker_0, # of connection points: 2
#     Edge 30, Type (0, 1), BuildingBlock: CIFDUS_clean_linker_0, # of connection points: 2
#     Edge 31, Type (0, 1), BuildingBlock: CIFDUS_clean_linker_0, # of connection points: 2
#     Edge 32, Type (0, 1), BuildingBlock: CIFDUS_clean_linker_0, # of connection points: 2
#     Edge 33, Type (0, 1), BuildingBlock: CIFDUS_clean_linker_0, # of connection points: 2
#     Edge 34, Type (0, 1), BuildingBlock: CIFDUS_clean_linker_0, # of connection points: 2
#     Edge 35, Type (0, 1), BuildingBlock: CIFDUS_clean_linker_0, # of connection points: 2
#     Edge 36, Type (0, 1), BuildingBlock: CIFDUS_clean_linker_0, # of connection points: 2
#     Edge 37, Type (0, 1), BuildingBlock: CIFDUS_clean_linker_0, # of connection points: 2
#     Edge 38, Type (0, 1), BuildingBlock: CIFDUS_clean_linker_0, # of connection points: 2
#     Edge 39, Type (0, 1), BuildingBlock: CIFDUS_clean_linker_0, # of connection points: 2
#     Edge 40, Type (0, 1), BuildingBlock: CIFDUS_clean_linker_0, # of connection points: 2
#     Edge 41, Type (0, 1), BuildingBlock: CIFDUS_clean_linker_0, # of connection points: 2
#     Edge 42, Type (0, 1), BuildingBlock: CIFDUS_clean_linker_0, # of connection points: 2
#     Edge 43, Type (0, 1), BuildingBlock: CIFDUS_clean_linker_0, # of connection points: 2
#     Edge 44, Type (0, 1), BuildingBlock: CIFDUS_clean_linker_0, # of connection points: 2
#     Edge 45, Type (0, 1), BuildingBlock: CIFDUS_clean_linker_0, # of connection points: 2
#     Edge 46, Type (0, 1), BuildingBlock: CIFDUS_clean_linker_0, # of connection points: 2
#     Edge 47, Type (0, 1), BuildingBlock: CIFDUS_clean_linker_0, # of connection points: 2
#     Edge 48, Type (0, 1), BuildingBlock: CIFDUS_clean_linker_0, # of connection points: 2
#     Edge 49, Type (0, 1), BuildingBlock: CIFDUS_clean_linker_0, # of connection points: 2
#     Edge 50, Type (0, 1), BuildingBlock: CIFDUS_clean_linker_0, # of connection points: 2
#     Edge 51, Type (0, 1), BuildingBlock: CIFDUS_clean_linker_0, # of connection points: 2
#     Edge 52, Type (0, 1), BuildingBlock: CIFDUS_clean_linker_0, # of connection points: 2
#     Edge 53, Type (0, 1), BuildingBlock: CIFDUS_clean_linker_0, # of connection points: 2
#     Edge 54, Type (0, 1), BuildingBlock: CIFDUS_clean_linker_0, # of connection points: 2
#     Edge 55, Type (0, 1), BuildingBlock: CIFDUS_clean_linker_0, # of connection points: 2
#     Edge 56, Type (0, 1), BuildingBlock: CIFDUS_clean_linker_0, # of connection points: 2
#     Edge 57, Type (0, 1), BuildingBlock: CIFDUS_clean_linker_0, # of connection points: 2
#     Edge 58, Type (0, 1), BuildingBlock: CIFDUS_clean_linker_0, # of connection points: 2
#     Edge 59, Type (0, 1), BuildingBlock: CIFDUS_clean_linker_0, # of connection points: 2
#     Edge 60, Type (0, 1), BuildingBlock: CIFDUS_clean_linker_0, # of connection points: 2
#     Edge 61, Type (0, 1), BuildingBlock: CIFDUS_clean_linker_0, # of connection points: 2
#     Edge 62, Type (0, 1), BuildingBlock: CIFDUS_clean_linker_0, # of connection points: 2
#     Edge 63, Type (0, 1), BuildingBlock: CIFDUS_clean_linker_0, # of connection points: 2
#     Edge 64, Type (0, 1), BuildingBlock: CIFDUS_clean_linker_0, # of connection points: 2
#     Edge 65, Type (0, 1), BuildingBlock: CIFDUS_clean_linker_0, # of connection points: 2
#     Edge 66, Type (0, 1), BuildingBlock: CIFDUS_clean_linker_0, # of connection points: 2
#     Edge 67, Type (0, 1), BuildingBlock: CIFDUS_clean_linker_0, # of connection points: 2
#     Edge 68, Type (0, 1), BuildingBlock: CIFDUS_clean_linker_0, # of connection points: 2
#     Edge 69, Type (0, 1), BuildingBlock: CIFDUS_clean_linker_0, # of connection points: 2
#     Edge 70, Type (0, 1), BuildingBlock: CIFDUS_clean_linker_0, # of connection points: 2
#     Edge 71, Type (0, 1), BuildingBlock: CIFDUS_clean_linker_0, # of connection points: 2
# Relax obj value: 0.047
# Max RMSD: 0.292
# Mean RMSD: 0.196
data_MOF--net-ssc--node1-ESEHIV_clean_sbu_0--node2-GIZVER_clean_linker_0--edge1-CIFDUS_clean_linker_0
_symmetry_space_group_name_H-M    P1
_symmetry_Int_Tables_number       1
_symmetry_cell_setting            triclinic
loop_
_symmetry_equiv_pos_as_xyz
'x, y, z'
_cell_length_a     29.68027
_cell_length_b     29.743401
_cell_length_c     29.54037
_cell_angle_alpha  89.977834
_cell_angle_beta   94.016068
_cell_angle_gamma 98.114993
loop_
_atom_site_label
_atom_site_type_symbol
_atom_site_fract_x
_atom_site_fract_y
_atom_site_fract_z
_atom_type_partial_charge
Cu0 Cu 0.00728 0.24763 0.12997 0.0
N1 N 0.95019 0.2255 0.15053 0.0
N2 N 0.89124 0.20724 0.19355 0.0
C3 C 0.93418 0.22948 0.19173 0.0
C4 C 0.88007 0.18889 0.15178 0.0
C5 C 0.9161 0.20067 0.12532 0.0
O6 O 0.0551 0.2576 0.17966 0.0
C7 C 0.01027 0.16338 0.0857 0.0
O8 O 0.99812 0.14605 0.12467 0.0
H9 H 0.95423 0.24692 0.22014 0.0
H10 H 0.91777 0.19096 0.09026 0.0
N11 N 1.00172 0.30297 0.10199 0.0
N12 N 1.00012 0.35522 0.04771 0.0
C13 C 0.00687 0.31229 0.05795 0.0
C14 C 0.99111 0.34116 0.12041 0.0
C15 C 0.99036 0.37363 0.08701 0.0
C16 C 0.05776 0.23218 0.21424 0.0
O17 O 0.02823 0.19509 0.21664 0.0
H18 H 0.01662 0.28833 0.03418 0.0
H19 H 0.98459 0.34512 0.15565 0.0
O20 O 0.02002 0.20629 0.08262 0.0
H21 H 0.84849 0.16769 0.14108 0.0
H22 H 0.98331 0.40803 0.09135 0.0
Cu23 Cu 0.03908 0.73981 0.38543 0.0
N24 N 0.05228 0.79574 0.41587 0.0
N25 N 0.0532 0.84861 0.47 0.0
C26 C 0.04544 0.80385 0.45949 0.0
C27 C 0.06612 0.86943 0.43137 0.0
C28 C 0.06559 0.83671 0.39811 0.0
O29 O 0.027 0.69127 0.42878 0.0
C30 C 0.95542 0.76209 0.34386 0.0
O31 O 0.95124 0.78181 0.38283 0.0
H32 H 0.03273 0.77758 0.48243 0.0
H33 H 0.07279 0.84248 0.36302 0.0
N34 N 0.08984 0.72728 0.35663 0.0
N35 N 0.14005 0.72226 0.30441 0.0
C36 C 0.10762 0.74558 0.31885 0.0
C37 C 0.11149 0.69136 0.3663 0.0
C38 C 0.14198 0.68793 0.33409 0.0
C39 C 0.99686 0.68667 0.45761 0.0
O40 O 0.96676 0.71507 0.45779 0.0
H41 H 0.09545 0.77393 0.30127 0.0
H42 H 0.10348 0.66754 0.39323 0.0
O43 O 0.98943 0.74117 0.3394 0.0
H44 H 0.07423 0.90572 0.42696 0.0
H45 H 0.16144 0.66013 0.33086 0.0
Cu46 Cu 0.5182 0.77072 0.64107 0.0
N47 N 0.52024 0.82932 0.61772 0.0
N48 N 0.53302 0.89027 0.57401 0.0
C49 C 0.5357 0.84553 0.57822 0.0
C50 C 0.51575 0.90283 0.61217 0.0
C51 C 0.50751 0.86505 0.63896 0.0
O52 O 0.51551 0.72657 0.59194 0.0
C53 C 0.60955 0.79074 0.68033 0.0
O54 O 0.61655 0.81618 0.64444 0.0
H55 H 0.55034 0.82551 0.554 0.0
H56 H 0.49424 0.86385 0.67219 0.0
N57 N 0.46497 0.75918 0.67212 0.0
N58 N 0.41684 0.74102 0.72641 0.0
C59 C 0.46049 0.74416 0.71487 0.0
C60 C 0.4229 0.76603 0.65625 0.0
C61 C 0.39318 0.75481 0.68962 0.0
C62 C 0.5039 0.68453 0.59938 0.0
O63 O 0.49628 0.67143 0.64098 0.0
H64 H 0.48855 0.73513 0.73678 0.0
H65 H 0.41458 0.77876 0.62284 0.0
O66 O 0.57044 0.76772 0.68408 0.0
H67 H 0.51067 0.93703 0.62043 0.0
H68 H 0.35717 0.75732 0.6874 0.0
Cu69 Cu 0.52567 0.26621 0.87917 0.0
N70 N 0.53167 0.32128 0.91126 0.0
N71 N 0.52353 0.37473 0.96173 0.0
C72 C 0.50517 0.33465 0.94244 0.0
C73 C 0.56282 0.3874 0.94207 0.0
C74 C 0.5675 0.35462 0.91058 0.0
O75 O 0.51918 0.21454 0.92018 0.0
C76 C 0.43895 0.27533 0.83324 0.0
O77 O 0.42695 0.28619 0.87331 0.0
H78 H 0.47412 0.31482 0.95231 0.0
H79 H 0.59586 0.35455 0.88954 0.0
N80 N 0.58099 0.26521 0.8535 0.0
N81 N 0.63346 0.26426 0.80302 0.0
C82 C 0.58862 0.2633 0.80925 0.0
C83 C 0.62215 0.2674 0.87613 0.0
C84 C 0.65458 0.2669 0.84514 0.0
C85 C 0.48942 0.20499 0.94904 0.0
O86 O 0.45603 0.22938 0.95088 0.0
H87 H 0.56161 0.26023 0.78238 0.0
H88 H 0.62809 0.26954 0.91267 0.0
O89 O 0.47833 0.26396 0.82975 0.0
H90 H 0.58665 0.41776 0.95048 0.0
H91 H 0.69084 0.26838 0.85316 0.0
Cu92 Cu 0.14424 0.04666 0.25946 0.0
N93 N 0.11989 0.04922 0.31539 0.0
N94 N 0.07109 0.03427 0.36937 0.0
C95 C 0.07745 0.0314 0.32471 0.0
C96 C 0.11128 0.05483 0.38882 0.0
C97 C 0.14147 0.06369 0.35539 0.0
O98 O 0.09592 0.05001 0.2124 0.0
C99 C 0.18936 0.13622 0.26179 0.0
O100 O 0.14793 0.14555 0.26637 0.0
H101 H 0.05173 0.01692 0.299 0.0
H102 H 0.17684 0.07886 0.35995 0.0
N103 N 0.16368 0.99009 0.25778 0.0
N104 N 0.20732 0.93524 0.26885 0.0
C105 C 0.2063 0.98049 0.26657 0.0
C106 C 0.13665 0.94979 0.25465 0.0
C107 C 0.16347 0.91582 0.26116 0.0
C108 C 0.09774 0.03662 0.17176 0.0
O109 O 0.13545 0.02308 0.1596 0.0
H110 H 0.23584 0.00632 0.2713 0.0
H111 H 0.09985 0.94556 0.24933 0.0
O112 O 0.19508 0.09506 0.25608 0.0
H113 H 0.11854 0.06254 0.42461 0.0
H114 H 0.15143 0.87974 0.26105 0.0
Cu115 Cu 0.24423 0.89725 0.5377 0.0
N116 N 0.22505 0.86592 0.48352 0.0
N117 N 0.22735 0.81848 0.42544 0.0
C118 C 0.2519 0.84786 0.45567 0.0
C119 C 0.18341 0.81798 0.43456 0.0
C120 C 0.18207 0.84752 0.47028 0.0
O121 O 0.26545 0.85244 0.57848 0.0
C122 C 0.30506 0.98132 0.55123 0.0
O123 O 0.28384 0.98677 0.58797 0.0
H124 H 0.28879 0.85283 0.46022 0.0
H125 H 0.1523 0.85248 0.48774 0.0
N126 N 0.19394 0.91868 0.56039 0.0
N127 N 0.14079 0.9622 0.57419 0.0
C128 C 0.1778 0.95802 0.55111 0.0
C129 C 0.16588 0.89695 0.5897 0.0
C130 C 0.13345 0.9239 0.5987 0.0
C131 C 0.26842 0.85426 0.62163 0.0
O132 O 0.26065 0.8912 0.64235 0.0
H133 H 0.1937 0.98357 0.52892 0.0
H134 H 0.16905 0.86392 0.60387 0.0
O135 O 0.29304 0.94593 0.52658 0.0
H136 H 0.15477 0.79572 0.41846 0.0
H137 H 0.10676 0.91597 0.62174 0.0
Cu138 Cu 0.40996 0.04392 0.76474 0.0
N139 N 0.43846 0.04561 0.8234 0.0
N140 N 0.49392 0.04367 0.87849 0.0
C141 C 0.48365 0.04771 0.8335 0.0
C142 C 0.45349 0.03892 0.89751 0.0
C143 C 0.41932 0.04034 0.8634 0.0
O144 O 0.45302 0.02756 0.72337 0.0
C145 C 0.35307 0.95881 0.76753 0.0
O146 O 0.39149 0.94222 0.77615 0.0
H147 H 0.50829 0.0496 0.80798 0.0
H148 H 0.383 0.03614 0.86728 0.0
N149 N 0.39482 0.10092 0.74917 0.0
N150 N 0.35307 0.15731 0.73669 0.0
C151 C 0.35711 0.11828 0.75915 0.0
C152 C 0.41552 0.12992 0.71967 0.0
C153 C 0.38971 0.16444 0.71162 0.0
C154 C 0.4463 0.02566 0.68034 0.0
O155 O 0.40646 0.03236 0.66134 0.0
H156 H 0.33173 0.10102 0.78015 0.0
H157 H 0.44597 0.12502 0.70333 0.0
O158 O 0.35423 1.0012 0.7612 0.0
H159 H 0.44887 0.03366 0.93325 0.0
H160 H 0.39657 0.19148 0.68768 0.0
Cu161 Cu 0.27389 0.16251 0.05347 0.0
N162 N 0.28697 0.19416 1.00006 0.0
N163 N 0.29267 0.24635 0.94544 0.0
C164 C 0.27952 0.2363 0.98766 0.0
C165 C 0.30917 0.2093 0.93097 0.0
C166 C 0.30579 0.17736 0.96474 0.0
O167 O 0.27065 0.20375 0.10405 0.0
C168 C 0.18441 0.12536 0.01825 0.0
O169 O 0.18365 0.16606 1.00118 0.0
H170 H 0.26322 0.25839 0.00836 0.0
H171 H 0.31565 0.14377 0.96337 0.0
N172 N 0.32299 0.13129 0.06848 0.0
N173 N 0.3697 0.07833 0.07085 0.0
C174 C 0.33176 0.09212 0.05046 0.0
C175 C 0.3564 0.14296 0.10115 0.0
C176 C 0.385 0.1103 0.10293 0.0
C177 C 0.24035 0.2291 0.11003 0.0
O178 O 0.20558 0.22871 0.07992 0.0
H179 H 0.31013 0.07384 0.02356 0.0
H180 H 0.35889 0.17242 0.12312 0.0
O181 O 0.21931 0.11769 0.04304 0.0
H182 H 0.32211 0.20534 0.89805 0.0
H183 H 0.41328 0.109 0.12779 0.0
Cu184 Cu 0.78909 0.4083 0.04948 0.0
N185 N 0.78469 0.38389 0.99109 0.0
N186 N 0.77715 0.33252 0.93495 0.0
C187 C 0.78302 0.33979 0.98026 0.0
C188 C 0.77516 0.37387 0.91663 0.0
C189 C 0.77958 0.40548 0.95144 0.0
O190 O 0.79611 0.35954 0.09212 0.0
C191 C 0.87578 0.45982 0.03807 0.0
O192 O 0.88554 0.4224 0.0198 0.0
H193 H 0.78668 0.3137 0.00525 0.0
H194 H 0.77873 0.44158 0.94818 0.0
N195 N 0.73508 0.43136 0.05632 0.0
N196 N 0.68356 0.47942 0.05075 0.0
C197 C 0.72497 0.47106 0.03959 0.0
C198 C 0.6989 0.41345 0.07848 0.0
C199 C 0.66723 0.44316 0.07546 0.0
C200 C 0.78826 0.35951 0.13396 0.0
O201 O 0.77847 0.39667 0.1527 0.0
H202 H 0.74798 0.49337 0.01997 0.0
H203 H 0.69616 0.38153 0.09633 0.0
O204 O 0.83766 0.45919 0.05531 0.0
H205 H 0.77046 0.38079 0.88077 0.0
H206 H 0.63554 0.43897 0.09195 0.0
Cu207 Cu 0.8857 0.55691 0.24709 0.0
N208 N 0.91861 0.56064 0.30359 0.0
N209 N 0.97199 0.55499 0.35967 0.0
C210 C 0.961 0.55086 0.31453 0.0
C211 C 0.93533 0.56801 0.37769 0.0
C212 C 0.90259 0.57168 0.343 0.0
O213 O 0.92548 0.5547 0.19765 0.0
C214 C 0.83986 0.46814 0.26444 0.0
O215 O 0.87971 0.46076 0.28287 0.0
H216 H 0.98247 0.53895 0.29029 0.0
H217 H 0.86888 0.5806 0.34636 0.0
N218 N 0.85885 0.60967 0.23945 0.0
N219 N 0.80852 0.65906 0.24128 0.0
C220 C 0.82209 0.62067 0.25891 0.0
C221 C 0.86919 0.64203 0.20868 0.0
C222 C 0.83814 0.67219 0.20944 0.0
C223 C 0.94641 0.52243 0.18605 0.0
O224 O 0.94218 0.48431 0.20881 0.0
H225 H 0.80466 0.59969 0.28402 0.0
H226 H 0.8959 0.64223 0.18554 0.0
O227 O 0.83636 0.50623 0.24587 0.0
H228 H 0.93213 0.5735 0.4135 0.0
H229 H 0.83579 0.69973 0.18588 0.0
Cu230 Cu 0.76208 0.67546 0.54341 0.0
N231 N 0.76537 0.69389 0.48307 0.0
N232 N 0.76672 0.7364 0.42058 0.0
C233 C 0.76597 0.73611 0.46631 0.0
C234 C 0.76667 0.69272 0.40821 0.0
C235 C 0.76611 0.66667 0.44685 0.0
O236 O 0.74566 0.72343 0.58094 0.0
C237 C 0.67785 0.61647 0.53143 0.0
O238 O 0.66188 0.65259 0.51496 0.0
H239 H 0.764 0.76568 0.48705 0.0
H240 H 0.76533 0.63023 0.44843 0.0
N241 N 0.81987 0.66473 0.56605 0.0
N242 N 0.87903 0.63026 0.59047 0.0
C243 C 0.83889 0.62616 0.56517 0.0
C244 C 0.84915 0.69409 0.59226 0.0
C245 C 0.88535 0.67281 0.60775 0.0
C246 C 0.74522 0.71822 0.62372 0.0
O247 O 0.7494 0.678 0.64059 0.0
H248 H 0.82247 0.59504 0.54866 0.0
H249 H 0.84343 0.72799 0.60123 0.0
O250 O 0.7195 0.61987 0.54635 0.0
H251 H 0.76629 0.68042 0.37367 0.0
H252 H 0.91321 0.68694 0.63136 0.0
Cu253 Cu 0.65906 0.50698 0.74556 0.0
N254 N 0.6351 0.50346 0.80253 0.0
N255 N 0.58833 0.49316 0.85906 0.0
C256 C 0.59135 0.49651 0.81359 0.0
C257 C 0.63187 0.49779 0.87696 0.0
C258 C 0.66047 0.50393 0.8421 0.0
O259 O 0.61331 0.51069 0.6955 0.0
C260 C 0.70737 0.59697 0.75926 0.0
O261 O 0.66896 0.60658 0.77379 0.0
H262 H 0.56244 0.49451 0.78889 0.0
H263 H 0.69736 0.50803 0.84523 0.0
N264 N 0.68243 0.45277 0.73751 0.0
N265 N 0.72963 0.40025 0.73832 0.0
C266 C 0.72424 0.4429 0.75078 0.0
C267 C 0.66043 0.41525 0.71623 0.0
C268 C 0.68948 0.38304 0.71635 0.0
C269 C 0.5813 0.53514 0.69247 0.0
O270 O 0.57674 0.56286 0.72592 0.0
H271 H 0.7506 0.46722 0.76769 0.0
H272 H 0.62594 0.41196 0.70086 0.0
O273 O 0.70924 0.55692 0.74492 0.0
H274 H 0.64245 0.49661 0.91271 0.0
H275 H 0.6819 0.35007 0.7003 0.0
H276 H 0.12113 0.31473 0.64303 0.0
H277 H 0.01158 0.21079 0.59582 0.0
H278 H 0.12271 0.17625 0.68296 0.0
H279 H 0.06776 0.32336 0.57416 0.0
H280 H 0.01605 0.28488 0.5638 0.0
H281 H 0.97476 0.27805 0.65246 0.0
H282 H 0.93597 0.40995 0.67037 0.0
H283 H 0.03958 0.3933 0.58051 0.0
C284 C 0.10395 0.28015 0.64449 0.0
C285 C 0.12602 0.24709 0.66758 0.0
C286 C 0.06114 0.26776 0.62039 0.0
C287 C 0.04206 0.22147 0.61772 0.0
C288 C 0.06411 0.18857 0.64083 0.0
C289 C 0.10445 0.20218 0.6675 0.0
C290 C 0.03994 0.30223 0.59111 0.0
C291 C 0.01382 0.33281 0.61714 0.0
C292 C 0.9806 0.31431 0.64666 0.0
C293 C 0.9534 0.34254 0.66696 0.0
C294 C 0.95916 0.38892 0.6571 0.0
C295 C 0.98939 0.40754 0.62566 0.0
C296 C 0.01697 0.37938 0.60587 0.0
H297 H 0.09394 0.80281 0.82032 0.0
H298 H 0.03946 0.84124 0.94384 0.0
H299 H 0.11672 0.94162 0.86457 0.0
H300 H 0.05142 0.74577 0.85998 0.0
H301 H 0.07197 0.75787 0.91714 0.0
H302 H 0.96604 0.77607 0.84181 0.0
H303 H 0.8771 0.69761 0.93018 0.0
H304 H 0.02121 0.7187 0.96399 0.0
C305 C 0.08667 0.82893 0.84321 0.0
C306 C 0.10677 0.87387 0.83727 0.0
C307 C 0.06058 0.81692 0.88058 0.0
C308 C 0.05592 0.85067 0.91293 0.0
C309 C 0.07523 0.89614 0.90661 0.0
C310 C 0.09915 0.90734 0.86793 0.0
C311 C 0.04705 0.76694 0.88996 0.0
C312 C 0.99888 0.7536 0.90393 0.0
C313 C 0.96091 0.75911 0.8739 0.0
C314 C 0.91669 0.73976 0.88396 0.0
C315 C 0.91075 0.71504 0.92403 0.0
C316 C 0.94826 0.70656 0.95247 0.0
C317 C 0.9921 0.72664 0.94281 0.0
H318 H 0.48908 0.68 0.07677 0.0
H319 H 0.53793 0.76376 0.19418 0.0
H320 H 0.63084 0.69742 0.12275 0.0
H321 H 0.43726 0.72171 0.10932 0.0
H322 H 0.44797 0.70449 0.16623 0.0
H323 H 0.48429 0.81317 0.10117 0.0
H324 H 0.41525 0.89281 0.18705 0.0
H325 H 0.40929 0.74974 0.2097 0.0
C326 C 0.51718 0.6967 0.09885 0.0
C327 C 0.56118 0.68582 0.09476 0.0
C328 C 0.50849 0.726 0.13368 0.0
C329 C 0.54457 0.74419 0.16507 0.0
C330 C 0.58893 0.73484 0.15987 0.0
C331 C 0.59696 0.70688 0.12412 0.0
C332 C 0.45945 0.73053 0.14089 0.0
C333 C 0.45181 0.77694 0.15667 0.0
C334 C 0.46584 0.81594 0.1312 0.0
C335 C 0.45342 0.85791 0.1431 0.0
C336 C 0.42709 0.86075 0.18017 0.0
C337 C 0.41015 0.82188 0.20376 0.0
C338 C 0.42341 0.78015 0.19246 0.0
H339 H 0.5973 0.29602 0.34078 0.0
H340 H 0.5319 0.34318 0.45401 0.0
H341 H 0.60254 0.43888 0.36546 0.0
H342 H 0.5611 0.24132 0.38902 0.0
H343 H 0.56676 0.26274 0.44591 0.0
H344 H 0.4774 0.27088 0.34791 0.0
H345 H 0.371 0.19544 0.41985 0.0
H346 H 0.50773 0.21675 0.48038 0.0
C347 C 0.58651 0.32353 0.35945 0.0
C348 C 0.60179 0.36861 0.34774 0.0
C349 C 0.55959 0.31392 0.39674 0.0
C350 C 0.54939 0.35014 0.42322 0.0
C351 C 0.56411 0.39529 0.4113 0.0
C352 C 0.58894 0.40405 0.37288 0.0
C353 C 0.54822 0.26532 0.41215 0.0
C354 C 0.4977 0.25001 0.41579 0.0
C355 C 0.466 0.25449 0.37868 0.0
C356 C 0.41996 0.23573 0.38055 0.0
C357 C 0.40592 0.21222 0.41938 0.0
C358 C 0.43735 0.20481 0.45506 0.0
C359 C 0.48313 0.22403 0.45347 0.0
H360 H 0.56712 0.03771 0.1767 0.0
H361 H 0.69099 0.09221 0.25429 0.0
H362 H 0.609 0.18165 0.18413 0.0
H363 H 0.60758 0.98636 0.21837 0.0
H364 H 0.66463 0.00569 0.20522 0.0
H365 H 0.59512 0.02228 0.3062 0.0
H366 H 0.68584 0.95893 0.39747 0.0
H367 H 0.71126 0.97022 0.25708 0.0
C368 C 0.58998 0.06657 0.191 0.0
C369 C 0.58268 0.11059 0.17834 0.0
C370 C 0.62805 0.05954 0.22013 0.0
C371 C 0.65987 0.09731 0.23497 0.0
C372 C 0.65256 0.14146 0.22263 0.0
C373 C 0.61329 0.14773 0.19562 0.0
C374 C 0.63804 0.01153 0.22841 0.0
C375 C 0.654 1.00187 0.27687 0.0
C376 C 0.62656 0.00807 0.31292 0.0
C377 C 0.63823 0.99319 0.35693 0.0
C378 C 0.67805 0.97312 0.36448 0.0
C379 C 0.70412 0.9642 0.32882 0.0
C380 C 0.69219 0.97882 0.28504 0.0
H381 H 0.27317 0.32101 0.58204 0.0
H382 H 0.30615 0.45594 0.52907 0.0
H383 H 0.40838 0.39221 0.6047 0.0
H384 H 0.21598 0.35029 0.53737 0.0
H385 H 0.2204 0.40706 0.55676 0.0
H386 H 0.23429 0.33515 0.45449 0.0
H387 H 0.18004 0.42988 0.36334 0.0
H388 H 0.20604 0.46382 0.50451 0.0
C389 C 0.2982 0.34985 0.57506 0.0
C390 C 0.34278 0.35204 0.59494 0.0
C391 C 0.28507 0.38612 0.54866 0.0
C392 C 0.31685 0.42599 0.54498 0.0
C393 C 0.3618 0.42778 0.56451 0.0
C394 C 0.37458 0.38989 0.58741 0.0
C395 C 0.23505 0.38486 0.53312 0.0
C396 C 0.22556 0.39958 0.48457 0.0
C397 C 0.22492 0.36862 0.44809 0.0
C398 C 0.20919 0.37986 0.40396 0.0
C399 C 0.19489 0.42235 0.39663 0.0
C400 C 0.19289 0.45238 0.43259 0.0
C401 C 0.2091 0.44131 0.47638 0.0
H402 H 0.96824 0.04302 0.66482 0.0
H403 H 0.83986 0.00788 0.72436 0.0
H404 H 0.89904 0.90653 0.65449 0.0
H405 H 0.94064 0.10003 0.70411 0.0
H406 H 0.88166 0.0927 0.68631 0.0
H407 H 0.95731 0.06568 0.78997 0.0
H408 H 0.8813 0.13415 0.87969 0.0
H409 H 0.83945 0.12427 0.73775 0.0
C410 C 0.94092 0.01753 0.67419 0.0
C411 C 0.93878 0.97292 0.65796 0.0
C412 C 0.90646 0.03025 0.69985 0.0
C413 C 0.86845 0.99779 0.70796 0.0
C414 C 0.86643 0.95282 0.69244 0.0
C415 C 0.90218 0.94058 0.66866 0.0
C416 C 0.90716 0.08006 0.7107 0.0
C417 C 0.89702 0.08999 0.75888 0.0
C418 C 0.92763 0.08177 0.79576 0.0
C419 C 0.9211 0.09675 0.83967 0.0
C420 C 0.88425 0.12005 0.84631 0.0
C421 C 0.85521 0.13091 0.80979 0.0
C422 C 0.86114 0.11493 0.76627 0.0
H423 H 0.29545 0.63215 0.07932 0.0
H424 H 0.19846 0.51891 0.0278 0.0
H425 H 0.15375 0.62739 0.10031 0.0
H426 H 0.32132 0.56346 0.0592 0.0
H427 H 0.28106 0.51374 0.04685 0.0
H428 H 0.27854 0.61477 0.9693 0.0
H429 H 0.3518 0.55613 0.86947 0.0
H430 H 0.33993 0.49416 0.99942 0.0
C431 C 0.2604 0.61662 0.07204 0.0
C432 C 0.22524 0.63592 0.09067 0.0
C433 C 0.25094 0.57493 0.04805 0.0
C434 C 0.20554 0.55252 0.04308 0.0
C435 C 0.17001 0.57191 0.06124 0.0
C436 C 0.18034 0.61422 0.08318 0.0
C437 C 0.29019 0.54999 0.03749 0.0
C438 C 0.30327 0.55149 0.98869 0.0
C439 C 0.29581 0.58725 0.95869 0.0
C440 C 0.31279 0.58819 0.91529 0.0
C441 C 0.337 0.55388 0.90214 0.0
C442 C 0.34786 0.52058 0.93256 0.0
C443 C 0.33068 0.51934 0.97555 0.0
H444 H 0.77663 0.81877 0.10784 0.0
H445 H 0.83221 0.93382 0.03018 0.0
H446 H 0.86489 0.9288 0.17402 0.0
H447 H 0.80187 0.83176 0.00945 0.0
H448 H 0.74709 0.82441 0.03121 0.0
H449 H 0.78147 0.8395 0.93201 0.0
H450 H 0.69549 0.93584 0.88406 0.0
H451 H 0.72086 0.91824 0.02765 0.0
C452 C 0.79512 0.85284 0.10645 0.0
C453 C 0.81912 0.87217 0.14586 0.0
C454 C 0.79751 0.87585 0.06468 0.0
C455 C 0.82651 0.91772 0.06259 0.0
C456 C 0.85002 0.93751 0.10239 0.0
C457 C 0.8446 0.91515 0.14383 0.0
C458 C 0.77554 0.85068 0.0223 0.0
C459 C 0.75731 0.87915 0.98448 0.0
C460 C 0.7624 0.86689 0.93915 0.0
C461 C 0.74067 0.88779 0.90295 0.0
C462 C 0.71418 0.92159 0.91215 0.0
C463 C 0.70644 0.93282 0.95682 0.0
C464 C 0.72805 0.91129 0.99308 0.0
H465 H 0.43238 0.54003 0.16373 0.0
H466 H 0.32561 0.50418 0.2557 0.0
H467 H 0.34488 0.41307 0.14819 0.0
H468 H 0.43375 0.58368 0.23345 0.0
H469 H 0.38134 0.59861 0.21187 0.0
H470 H 0.44617 0.56232 0.31454 0.0
H471 H 0.36018 0.61918 0.4037 0.0
H472 H 0.32202 0.60894 0.26122 0.0
C473 C 0.40489 0.51607 0.17575 0.0
C474 C 0.39089 0.47537 0.15169 0.0
C475 C 0.38211 0.52705 0.21388 0.0
C476 C 0.34477 0.49607 0.22767 0.0
C477 C 0.33196 0.45455 0.20408 0.0
C478 C 0.35533 0.44484 0.16667 0.0
C479 C 0.39624 0.57402 0.23478 0.0
C480 C 0.38351 0.58109 0.28275 0.0
C481 C 0.41443 0.57488 0.32008 0.0
C482 C 0.40587 0.5881 0.36405 0.0
C483 C 0.36582 0.60651 0.37039 0.0
C484 C 0.33593 0.61463 0.33366 0.0
C485 C 0.34437 0.6013 0.28991 0.0
H486 H 0.75031 0.20349 0.55901 0.0
H487 H 0.68932 0.0689 0.51715 0.0
H488 H 0.60581 0.16475 0.56016 0.0
H489 H 0.79846 0.15234 0.54178 0.0
H490 H 0.77397 0.09828 0.56154 0.0
H491 H 0.74836 0.14254 0.44322 0.0
H492 H 0.83792 0.06199 0.38372 0.0
H493 H 0.83142 0.0641 0.52807 0.0
C494 C 0.72005 0.1796 0.54944 0.0
C495 C 0.67745 0.18973 0.56069 0.0
C496 C 0.72461 0.13645 0.53234 0.0
C497 C 0.68559 0.10357 0.52554 0.0
C498 C 0.64245 0.11445 0.53425 0.0
C499 C 0.63857 0.15822 0.54948 0.0
C500 C 0.77179 0.12281 0.53327 0.0
C501 C 0.78396 0.10129 0.4903 0.0
C502 C 0.77081 0.11684 0.44684 0.0
C503 C 0.7891 0.10108 0.4082 0.0
C504 C 0.82123 0.07087 0.41333 0.0
C505 C 0.83786 0.05864 0.45642 0.0
C506 C 0.81781 0.07251 0.49459 0.0
H507 H 0.07842 0.5296 0.68825 0.0
H508 H 0.20709 0.58588 0.75694 0.0
H509 H 0.11911 0.67389 0.69407 0.0
H510 H 0.12674 0.47893 0.71974 0.0
H511 H 0.18579 0.50201 0.72058 0.0
H512 H 0.09011 0.50756 0.79923 0.0
H513 H 0.16513 0.45572 0.91194 0.0
H514 H 0.22391 0.47123 0.78318 0.0
C515 C 0.10195 0.55874 0.70106 0.0
C516 C 0.09326 0.60265 0.68935 0.0
C517 C 0.14221 0.55243 0.72723 0.0
C518 C 0.17451 0.59054 0.74004 0.0
C519 C 0.16554 0.63438 0.72875 0.0
C520 C 0.12439 0.64004 0.70499 0.0
C521 C 0.15334 0.50502 0.73627 0.0
C522 C 0.15821 0.49464 0.78639 0.0
C523 C 0.12151 0.49711 0.81374 0.0
C524 C 0.1247 0.4839 0.85927 0.0
C525 C 0.1643 0.46822 0.87739 0.0
C526 C 0.19987 0.46259 0.85022 0.0
C527 C 0.19695 0.47638 0.80471 0.0
H528 H 0.0283 0.4442 0.03425 0.0
H529 H 0.98722 0.31633 0.9642 0.0
H530 H 0.01244 0.35036 0.89345 0.0
H531 H 0.05934 0.41214 0.85588 0.0
H532 H 0.10579 0.53781 0.92773 0.0
H533 H 0.06292 0.51004 0.99239 0.0
C534 C 0.02394 0.42405 0.00337 0.0
C535 C 0.00708 0.37747 0.00485 0.0
C536 C 0.03924 0.4437 0.96294 0.0
C537 C 1.0013 0.35194 0.96428 0.0
C538 C 0.01546 0.37145 0.92373 0.0
C539 C 0.05818 0.43414 0.88495 0.0
C540 C 0.08506 0.47701 0.88709 0.0
C541 C 0.03629 0.41676 0.92315 0.0
C542 C 0.08461 0.50499 0.92521 0.0
C543 C 0.06105 0.48871 0.96256 0.0
H544 H 0.88335 0.8103 0.33902 0.0
H545 H 0.95956 0.73171 0.25734 0.0
H546 H 0.91821 0.7539 0.18879 0.0
H547 H 0.86637 0.80185 0.15126 0.0
H548 H 0.79437 0.88499 0.23171 0.0
H549 H 0.8272 0.85398 0.30144 0.0
C550 C 0.89035 0.79734 0.30631 0.0
C551 C 0.925 0.76981 0.30343 0.0
C552 C 0.86674 0.81068 0.26673 0.0
C553 C 0.93343 0.75326 0.26069 0.0
C554 C 0.90985 0.76603 0.22134 0.0
C555 C 0.85661 0.81181 0.18413 0.0
C556 C 0.82743 0.84485 0.18658 0.0
C557 C 0.8771 0.79538 0.22386 0.0
C558 C 0.81606 0.85882 0.22921 0.0
C559 C 0.83507 0.84137 0.26899 0.0
H560 H 0.53772 0.68615 0.51534 0.0
H561 H 0.43832 0.61177 0.59699 0.0
H562 H 0.40589 0.56549 0.53142 0.0
H563 H 0.3971 0.55573 0.44903 0.0
H564 H 0.4925 0.63331 0.36564 0.0
H565 H 0.53663 0.6668 0.43352 0.0
C566 C 0.50964 0.65908 0.51885 0.0
C567 C 0.49033 0.65237 0.56096 0.0
C568 C 0.49067 0.63284 0.48063 0.0
C569 C 0.45416 0.61708 0.56516 0.0
C570 C 0.43542 0.59075 0.5276 0.0
C571 C 0.42859 0.57861 0.4459 0.0
C572 C 0.44126 0.59243 0.40251 0.0
C573 C 0.4523 0.59944 0.4849 0.0
C574 C 0.48213 0.622 0.39869 0.0
C575 C 0.5069 0.64182 0.43753 0.0
H576 H 0.59944 0.28335 0.71892 0.0
H577 H 0.71398 0.23425 0.79123 0.0
H578 H 0.74442 0.21767 0.71987 0.0
H579 H 0.73118 0.2042 0.6384 0.0
H580 H 0.61503 0.24933 0.56525 0.0
H581 H 0.5929 0.28098 0.63548 0.0
C582 C 0.63101 0.26898 0.71915 0.0
C583 C 0.65386 0.25938 0.76067 0.0
C584 C 0.64797 0.25864 0.67778 0.0
C585 C 0.69567 0.2423 0.76008 0.0
C586 C 0.71302 0.23245 0.71914 0.0
C587 C 0.70209 0.22263 0.63724 0.0
C588 C 0.67438 0.2238 0.5967 0.0
C589 C 0.68861 0.23899 0.6779 0.0
C590 C 0.63665 0.24762 0.59613 0.0
C591 C 0.62368 0.26516 0.63637 0.0
H592 H 0.97881 0.69983 0.54502 0.0
H593 H 0.03263 0.60772 0.45757 0.0
H594 H 0.05867 0.56608 0.52348 0.0
H595 H 0.07795 0.56454 0.60555 0.0
H596 H 0.03189 0.66231 0.69267 0.0
H597 H 0.99266 0.69416 0.62755 0.0
C598 C 0.99509 0.66987 0.54041 0.0
C599 C 0.00339 0.65646 0.49651 0.0
C600 C 0.01243 0.64787 0.57855 0.0
C601 C 0.02533 0.61814 0.49105 0.0
C602 C 0.04063 0.59467 0.52872 0.0
C603 C 0.05753 0.59141 0.61049 0.0
C604 C 0.05761 0.61092 0.65383 0.0
C605 C 0.0359 0.61027 0.57267 0.0
C606 C 0.03202 0.64657 0.65961 0.0
C607 C 0.0097 0.6649 0.62234 0.0
H608 H 0.67832 0.85997 0.6992 0.0
H609 H 0.61668 0.73176 0.75053 0.0
H610 H 0.6621 0.74648 0.82263 0.0
H611 H 0.70698 0.80242 0.87538 0.0
H612 H 0.76327 0.93306 0.82567 0.0
H613 H 0.73333 0.91055 0.74847 0.0
C614 C 0.67571 0.83469 0.72571 0.0
C615 C 0.64364 0.79517 0.71979 0.0
C616 C 0.70077 0.84412 0.7676 0.0
C617 C 0.64062 0.76279 0.75452 0.0
C618 C 0.66656 0.77121 0.79577 0.0
C619 C 0.71426 0.82516 0.84727 0.0
C620 C 0.73713 0.86932 0.85603 0.0
C621 C 0.69506 0.81271 0.80342 0.0
C622 C 0.74578 0.89887 0.81955 0.0
C623 C 0.72823 0.88616 0.77556 0.0
H624 H 0.43856 0.39278 0.96807 0.0
H625 H 0.57137 0.40492 0.03858 0.0
H626 H 0.5431 0.44113 0.10358 0.0
H627 H 0.47982 0.46834 0.14048 0.0
H628 H 0.34632 0.45337 0.07023 0.0
H629 H 0.37562 0.42065 0.00432 0.0
C630 C 0.46113 0.40373 0.99768 0.0
C631 C 0.50692 0.39692 0.99886 0.0
C632 C 0.44474 0.42494 0.03432 0.0
C633 C 0.53617 0.41085 0.03711 0.0
C634 C 0.51999 0.43137 0.07407 0.0
C635 C 0.45761 0.45895 0.11024 0.0
C636 C 0.41126 0.46377 0.10973 0.0
C637 C 0.47442 0.43901 0.07291 0.0
C638 C 0.38234 0.45044 0.07089 0.0
C639 C 0.39892 0.43139 0.03345 0.0
H640 H 0.82569 0.13707 0.20847 0.0
H641 H 0.89697 0.26195 0.26782 0.0
H642 H 0.86099 0.24461 0.33885 0.0
H643 H 0.82015 0.18754 0.38752 0.0
H644 H 0.75287 0.06119 0.32875 0.0
H645 H 0.77511 0.08607 0.25358 0.0
C646 C 0.83268 0.16112 0.23645 0.0
C647 C 0.86499 0.20028 0.233 0.0
C648 C 0.81229 0.15063 0.27735 0.0
C649 C 0.87334 0.23092 0.26988 0.0
C650 C 0.85248 0.22117 0.31045 0.0
C651 C 0.80842 0.16656 0.35781 0.0
C652 C 0.78464 0.12279 0.36339 0.0
C653 C 0.82327 0.18028 0.31512 0.0
C654 C 0.77062 0.09523 0.32497 0.0
C655 C 0.78403 0.10919 0.28219 0.0
H656 H 0.04518 0.07111 0.44494 0.0
H657 H 1.00137 0.96906 0.34141 0.0
H658 H 0.92428 0.95942 0.36714 0.0
H659 H 0.86713 0.99069 0.40946 0.0
H660 H 0.91149 0.09421 0.51152 0.0
H661 H 0.9908 0.09075 0.49771 0.0
C662 C 0.01925 0.04579 0.42886 0.0
C663 C 0.02876 0.02192 0.39042 0.0
C664 C 0.97489 0.04078 0.44352 0.0
C665 C 0.99457 0.98909 0.37008 0.0
C666 C 0.95052 0.98332 0.38495 0.0
C667 C 0.89429 0.0113 0.42971 0.0
C668 C 0.88337 0.04324 0.46074 0.0
C669 C 0.93985 0.01057 0.42024 0.0
C670 C 0.91882 0.06934 0.48732 0.0
C671 C 0.96427 0.06805 0.47884 0.0
H672 H 0.24179 0.83481 0.70674 0.0
H673 H 0.29629 0.77668 0.59218 0.0
H674 H 0.27929 0.70101 0.62382 0.0
H675 H 0.23441 0.65094 0.67493 0.0
H676 H 0.17218 0.70821 0.78442 0.0
H677 H 0.20782 0.78427 0.76513 0.0
C678 C 0.2514 0.80579 0.68954 0.0
C679 C 0.26958 0.81132 0.64682 0.0
C680 C 0.24004 0.76203 0.7072 0.0
C681 C 0.28157 0.77328 0.62476 0.0
C682 C 0.27175 0.72992 0.64278 0.0
C683 C 0.23076 0.67998 0.69591 0.0
C684 C 0.20126 0.67426 0.73122 0.0
C685 C 0.24905 0.72373 0.6828 0.0
C686 C 0.19551 0.71197 0.75761 0.0
C687 C 0.2154 0.75553 0.74612 0.0
H688 H 0.51261 0.99005 0.94946 0.0
H689 H 0.57516 0.08603 0.85515 0.0
H690 H 0.65034 0.06701 0.87989 0.0
H691 H 0.69584 0.0136 0.91793 0.0
H692 H 0.63293 0.91343 0.00803 0.0
H693 H 0.56104 0.94481 0.9972 0.0
C694 C 0.54282 0.00759 0.93521 0.0
C695 C 0.53823 0.03866 0.89969 0.0
C696 C 0.58596 0.9956 0.9489 0.0
C697 C 0.57775 0.0612 0.88166 0.0
C698 C 0.62074 0.05043 0.89592 0.0
C699 C 0.66671 0.99953 0.93623 0.0
C700 C 0.66954 0.96087 0.96322 0.0
C701 C 0.62497 0.01622 0.92796 0.0
C702 C 0.63176 0.94325 0.98715 0.0
C703 C 0.59038 0.96077 0.98037 0.0
H704 H 0.20102 0.30624 0.1181 0.0
H705 H 0.29873 0.22962 0.18553 0.0
H706 H 0.32572 0.29342 0.23681 0.0
H707 H 0.33477 0.37587 0.24833 0.0
H708 H 0.24318 0.45459 0.17544 0.0
H709 H 0.19917 0.38536 0.14235 0.0
C710 C 0.2274 0.30309 0.14475 0.0
C711 C 0.24867 0.26362 0.14713 0.0
C712 C 0.24405 0.34067 0.17313 0.0
C713 C 0.28242 0.25994 0.18229 0.0
C714 C 0.29789 0.29646 0.21172 0.0
C715 C 0.30341 0.37749 0.22754 0.0
C716 C 0.29277 0.42022 0.21356 0.0
C717 C 0.28076 0.33779 0.20573 0.0
C718 C 0.25212 0.42209 0.18665 0.0
C719 C 0.22779 0.38249 0.16654 0.0
H720 H 0.01599 0.06421 0.18457 0.0
H721 H 0.08337 0.98854 0.09187 0.0
H722 H 0.0099 0.95908 0.05283 0.0
H723 H 0.92627 0.9421 0.05642 0.0
H724 H 0.85947 0.01654 0.15042 0.0
H725 H 0.93268 0.05967 0.17714 0.0
C726 C 0.01472 0.04192 0.15531 0.0
C727 C 0.05506 0.02765 0.14192 0.0
C728 C 0.97226 0.02427 0.13374 0.0
C729 C 0.05284 0.99965 0.10325 0.0
C730 C 0.01073 0.98255 0.08104 0.0
C731 C 0.92756 0.96936 0.08107 0.0
C732 C 0.88771 0.97586 0.10183 0.0
C733 C 0.97009 0.99288 0.09741 0.0
C734 C 0.8898 0.01101 0.13405 0.0
C735 C 0.93176 0.03502 0.14995 0.0
H736 H 0.20418 0.72824 0.42427 0.0
H737 H 0.29213 0.83735 0.36627 0.0
H738 H 0.32936 0.78236 0.32569 0.0
H739 H 0.34155 0.70315 0.31307 0.0
H740 H 0.25792 0.59443 0.37669 0.0
H741 H 0.21373 0.64891 0.4085 0.0
C742 C 0.23088 0.73976 0.40197 0.0
C743 C 0.24539 0.78652 0.3978 0.0
C744 C 0.25287 0.70797 0.38007 0.0
C745 C 0.2806 0.80139 0.36969 0.0
C746 C 0.30177 0.77002 0.34662 0.0
C747 C 0.31257 0.69148 0.33259 0.0
C748 C 0.30195 0.64494 0.34167 0.0
C749 C 0.28877 0.72323 0.35227 0.0
C750 C 0.26561 0.63003 0.36837 0.0
C751 C 0.24096 0.66123 0.3871 0.0
H752 H 0.45053 0.03992 0.58903 0.0
H753 H 0.53141 0.00884 0.70929 0.0
H754 H 0.60033 0.02228 0.66836 0.0
H755 H 0.63874 0.05798 0.60425 0.0
H756 H 0.55956 0.09623 0.48656 0.0
H757 H 0.48916 0.06317 0.51962 0.0
C758 C 0.48307 0.03505 0.60598 0.0
C759 C 0.48582 0.02439 0.65251 0.0
C760 C 0.52303 0.04411 0.58255 0.0
C761 C 0.5283 0.01789 0.67379 0.0
C762 C 0.56784 0.02554 0.6504 0.0
C763 C 0.60607 0.0571 0.58504 0.0
C764 C 0.60412 0.07899 0.54298 0.0
C765 C 0.56583 0.04077 0.60554 0.0
C766 C 0.56174 0.07881 0.51868 0.0
C767 C 0.52148 0.06064 0.538 0.0
H768 H 0.29815 0.33266 0.97548 0.0
H769 H 0.2701 0.24824 0.85564 0.0
H770 H 0.24721 0.3119 0.81191 0.0
H771 H 0.22465 0.38829 0.8109 0.0
H772 H 0.24942 0.47185 0.93156 0.0
H773 H 0.2859 0.41297 0.97133 0.0
C774 C 0.28751 0.32853 0.93968 0.0
C775 C 0.28497 0.28562 0.91896 0.0
C776 C 0.27434 0.36544 0.91479 0.0
C777 C 0.27206 0.28084 0.87233 0.0
C778 C 0.25895 0.31728 0.84733 0.0
C779 C 0.23965 0.3943 0.8453 0.0
C780 C 0.23444 0.4344 0.86831 0.0
C781 C 0.25867 0.35939 0.86852 0.0
C782 C 0.25339 0.44135 0.91316 0.0
C783 C 0.27362 0.40742 0.93607 0.0
H784 H 0.45391 0.05812 0.09624 0.0
H785 H 0.32312 1.00069 0.03238 0.0
H786 H 0.34534 0.92525 0.03731 0.0
H787 H 0.39419 0.87469 0.07529 0.0
H788 H 0.52021 0.93115 0.14787 0.0
H789 H 0.50851 0.00749 0.12268 0.0
C790 C 0.43039 0.02926 0.08293 0.0
C791 C 0.38628 0.03534 0.06529 0.0
C792 C 0.44273 0.98548 0.08744 0.0
C793 C 0.35703 0.99747 0.04669 0.0
C794 C 0.36965 0.95402 0.04967 0.0
C795 C 0.4201 0.90359 0.08366 0.0
C796 C 0.45812 0.89757 0.11294 0.0
C797 C 0.4114 0.94745 0.07206 0.0
C798 C 0.49108 0.93508 0.12473 0.0
C799 C 0.48391 0.97874 0.11112 0.0
H800 H 0.86101 0.54376 0.06523 0.0
H801 H 0.95249 0.47573 0.99136 0.0
H802 H 0.98934 0.54868 0.96514 0.0
H803 H 0.98731 0.63006 0.95342 0.0
H804 H 0.89168 0.69729 0.02195 0.0
H805 H 0.86527 0.62666 0.0608 0.0
C806 C 0.88957 0.54486 0.04407 0.0
C807 C 0.90373 0.50414 0.02998 0.0
C808 C 0.9096 0.58689 0.02787 0.0
C809 C 0.94103 0.50641 1.00289 0.0
C810 C 0.96188 0.54815 0.98753 0.0
C811 C 0.96178 0.62954 0.97803 0.0
C812 C 0.94151 0.66871 0.98504 0.0
C813 C 0.94535 0.5884 0.99846 0.0
C814 C 0.90783 0.6675 0.01631 0.0
C815 C 0.89247 0.62706 0.0381 0.0
H816 H 0.78811 0.74213 0.21727 0.0
H817 H 0.73319 0.61745 0.2807 0.0
H818 H 0.65769 0.64032 0.27442 0.0
H819 H 0.6053 0.68539 0.23315 0.0
H820 H 0.65919 0.8041 0.16057 0.0
H821 H 0.73659 0.79478 0.18878 0.0
C822 C 0.75991 0.72007 0.23018 0.0
C823 C 0.76655 0.67717 0.24765 0.0
C824 C 0.71598 0.73251 0.2246 0.0
C825 C 0.72954 0.65017 0.26612 0.0
C826 C 0.686 0.66318 0.2624 0.0
C827 C 0.63391 0.71069 0.22588 0.0
C828 C 0.62681 0.74535 0.19494 0.0
C829 C 0.67846 0.70294 0.23933 0.0
C830 C 0.66394 0.77754 0.18481 0.0
C831 C 0.7083 0.77153 0.20014 0.0
H832 H 0.59655 0.59334 0.48197 0.0
H833 H 0.69762 0.53673 0.56798 0.0
H834 H 0.66235 0.46018 0.54584 0.0
H835 H 0.61298 0.41068 0.49082 0.0
H836 H 0.51717 0.46741 0.39927 0.0
H837 H 0.53873 0.54208 0.43574 0.0
C838 C 0.61027 0.56426 0.49665 0.0
C839 C 0.65044 0.57084 0.52568 0.0
C840 C 0.59065 0.52019 0.4826 0.0
C841 C 0.66735 0.53271 0.54481 0.0
C842 C 0.64722 0.48885 0.53213 0.0
C843 C 0.59552 0.43905 0.48029 0.0
C844 C 0.5634 0.43375 0.44279 0.0
C845 C 0.61027 0.48228 0.49945 0.0
C846 C 0.54161 0.4708 0.42851 0.0
C847 C 0.55448 0.51357 0.44891 0.0
H848 H 0.2154 0.85052 0.24095 0.0
H849 H 0.28962 0.96868 0.31065 0.0
H850 H 0.36068 0.93702 0.30671 0.0
H851 H 0.40269 0.88317 0.27009 0.0
H852 H 0.32804 0.7678 0.19645 0.0
H853 H 0.25631 0.79049 0.21672 0.0
C854 C 0.24681 0.86894 0.25637 0.0
C855 C 0.24727 0.9127 0.27463 0.0
C856 C 0.28768 0.85091 0.25332 0.0
C857 C 0.28846 0.93571 0.29481 0.0
C858 C 0.32912 0.91747 0.29289 0.0
C859 C 0.3707 0.862 0.2601 0.0
C860 C 0.37065 0.82441 0.23122 0.0
C861 C 0.32938 0.87615 0.27022 0.0
C862 C 0.32913 0.79685 0.21881 0.0
C863 C 0.28795 0.81003 0.22993 0.0
H864 H 0.09688 0.98933 0.64394 0.0
H865 H 0.12999 0.02246 0.50692 0.0
H866 H 0.09745 0.09316 0.51218 0.0
H867 H 0.0701 0.15014 0.55959 0.0
H868 H 0.04117 0.11842 0.69774 0.0
H869 H 0.05946 0.04158 0.68755 0.0
C870 C 0.09614 0.01147 0.61486 0.0
C871 C 0.11673 1.00102 0.5754 0.0
C872 C 0.07759 0.05213 0.6182 0.0
C873 C 0.11544 0.03026 0.53807 0.0
C874 C 0.09637 0.07044 0.54088 0.0
C875 C 0.06558 0.12558 0.58666 0.0
C876 C 0.05404 0.13966 0.62925 0.0
C877 C 0.07855 0.08235 0.58123 0.0
C878 C 0.04947 0.10803 0.66453 0.0
C879 C 0.06088 0.06448 0.65897 0.0
H880 H 0.75177 0.47592 0.23632 0.0
H881 H 0.83387 0.38775 0.31025 0.0
H882 H 0.76514 0.34309 0.33598 0.0
H883 H 0.68326 0.33737 0.3481 0.0
H884 H 0.6018 0.42755 0.27696 0.0
H885 H 0.66844 0.46254 0.23893 0.0
C886 C 0.75467 0.44648 0.25743 0.0
C887 C 0.7981 0.43598 0.27223 0.0
C888 C 0.715 0.42144 0.27292 0.0
C889 C 0.80101 0.39719 0.29893 0.0
C890 C 0.76167 0.37164 0.31383 0.0
C891 C 0.67981 0.3636 0.32308 0.0
C892 C 0.63777 0.38002 0.31544 0.0
C893 C 0.71865 0.38461 0.30259 0.0
C894 C 0.63388 0.41444 0.28337 0.0
C895 C 0.67205 0.43467 0.26194 0.0
H896 H 0.71977 0.6782 0.80493 0.0
H897 H 0.791 0.59013 0.72868 0.0
H898 H 0.86369 0.63584 0.75219 0.0
H899 H 0.90749 0.69077 0.80659 0.0
H900 H 0.83675 0.77442 0.88775 0.0
H901 H 0.7637 0.74172 0.84934 0.0
C902 C 0.75108 0.66947 0.79272 0.0
C903 C 0.74992 0.62997 0.76604 0.0
C904 C 0.79305 0.69523 0.80747 0.0
C905 C 0.79086 0.61972 0.75001 0.0
C906 C 0.83255 0.64589 0.76346 0.0
C907 C 0.87622 0.70328 0.81425 0.0
C908 C 0.87738 0.73507 0.84967 0.0
C909 C 0.83422 0.68239 0.79388 0.0
C910 C 0.83662 0.75036 0.86019 0.0
C911 C 0.79482 0.73112 0.83872 0.0
H912 H 0.49889 0.90194 0.48908 0.0
H913 H 0.61259 0.94453 0.58499 0.0
H914 H 0.65212 0.98999 0.52669 0.0
H915 H 0.65721 0.01117 0.44699 0.0
H916 H 0.54656 0.96258 0.34893 0.0
H917 H 0.50113 0.92956 0.40973 0.0
C918 C 0.53195 0.92199 0.49698 0.0
C919 C 0.55333 0.92007 0.5407 0.0
C920 C 0.55426 0.94804 0.4632 0.0
C921 C 0.59602 0.94578 0.55125 0.0
C922 C 0.61837 0.97178 0.51804 0.0
C923 C 0.62272 0.99423 0.43906 0.0
C924 C 0.60568 0.98873 0.39338 0.0
C925 C 0.59816 0.97254 0.47372 0.0
C926 C 0.56059 0.96752 0.38371 0.0
C927 C 0.53488 0.9478 0.41844 0.0
H928 H 0.45528 0.26008 0.74522 0.0
H929 H 0.35693 0.30747 0.82782 0.0
H930 H 0.31374 0.32889 0.7597 0.0
H931 H 0.30923 0.34274 0.67734 0.0
H932 H 0.40817 0.2967 0.59507 0.0
H933 H 0.44591 0.26625 0.66227 0.0
C934 C 0.4241 0.27459 0.7484 0.0
C935 C 0.40964 0.28247 0.79173 0.0
C936 C 0.39973 0.28741 0.70908 0.0
C937 C 0.36892 0.301 0.795 0.0
C938 C 0.34428 0.31349 0.75604 0.0
C939 C 0.33795 0.32437 0.67403 0.0
C940 C 0.35545 0.32106 0.63134 0.0
C941 C 0.35997 0.30788 0.71299 0.0
C942 C 0.39357 0.29859 0.62751 0.0
C943 C 0.41551 0.28187 0.666 0.0
H944 H 0.04666 0.17804 1.0033 0.0
H945 H 0.94816 0.08799 0.07278 0.0
H946 H 0.91977 0.04944 1.00192 0.0
H947 H 0.9118 0.05234 0.91885 0.0
H948 H 0.00558 0.14572 0.84771 0.0
H949 H 0.04697 0.17174 0.91969 0.0
C950 C 0.01975 0.14926 1.00294 0.0
C951 C 1.00005 0.13547 0.04362 0.0
C952 C 0.0022 0.12828 0.96134 0.0
C953 C 0.9651 0.09825 0.04252 0.0
C954 C 0.94822 0.07664 1.00167 0.0
C955 C 0.94269 0.07671 0.91912 0.0
C956 C 0.95583 0.09695 0.87821 0.0
C957 C 0.96517 0.0926 0.9607 0.0
C958 C 0.9953 0.1292 0.8788 0.0
C959 C 0.01842 0.14469 0.92005 0.0
H960 H 0.21878 0.69306 0.28667 0.0
H961 H 0.11077 0.76098 0.22614 0.0
H962 H 0.13859 0.75223 0.15133 0.0
H963 H 0.18261 0.71005 0.10273 0.0
H964 H 0.28614 0.63679 0.16427 0.0
H965 H 0.27318 0.66545 0.23878 0.0
C966 C 0.2019 0.70688 0.25738 0.0
C967 C 0.16204 0.72659 0.26217 0.0
C968 C 0.2174 0.70067 0.21438 0.0
C969 C 0.1412 0.74522 0.2237 0.0
C970 C 0.15701 0.74001 0.18073 0.0
C971 C 0.20359 0.70189 0.13233 0.0
C972 C 0.23423 0.67019 0.12807 0.0
C973 C 0.1936 0.71569 0.17552 0.0
C974 C 0.262 0.66071 0.16642 0.0
C975 C 0.25386 0.67624 0.20931 0.0
H976 H 0.46441 0.20622 0.03564 0.0
H977 H 0.53525 0.13191 0.94492 0.0
H978 H 0.56297 0.08831 0.00864 0.0
H979 H 0.5779 0.08112 0.09134 0.0
H980 H 0.51388 0.16168 0.18214 0.0
H981 H 0.47259 0.19292 0.11763 0.0
C982 C 0.485 0.17972 0.02968 0.0
C983 C 0.49811 0.17258 0.98569 0.0
C984 C 0.50261 0.15636 0.06679 0.0
C985 C 0.52505 0.1383 0.97855 0.0
C986 C 0.54102 0.11347 0.01502 0.0
C987 C 0.5536 0.10424 0.09691 0.0
C988 C 0.54857 0.1189 0.14131 0.0
C989 C 0.5316 0.12355 0.0595 0.0
C990 C 0.5179 0.14972 0.14821 0.0
C991 C 0.49471 0.1679 0.11132 0.0
H992 H 0.13488 0.29457 0.21629 0.0
H993 H 0.05277 0.20403 0.30202 0.0
H994 H 0.09835 0.23657 0.36925 0.0
H995 H 0.15484 0.29816 0.40426 0.0
H996 H 0.23687 0.38809 0.31821 0.0
H997 H 0.19817 0.34842 0.25111 0.0
C998 C 0.12729 0.28157 0.24964 0.0
C999 C 0.08984 0.24747 0.25404 0.0
C1000 C 0.15374 0.30039 0.28832 0.0
C1001 C 0.08111 0.23048 0.29752 0.0
C1002 C 0.10712 0.24919 0.33612 0.0
C1003 C 0.16569 0.30767 0.37085 0.0
C1004 C 0.19871 0.34602 0.36626 0.0
C1005 C 0.14275 0.28506 0.33206 0.0
C1006 C 0.21183 0.35846 0.32266 0.0
C1007 C 0.18948 0.33599 0.28415 0.0
H1008 H 0.03319 0.93391 0.48133 0.0
H1009 H 0.04918 0.81004 0.55318 0.0
H1010 H 0.0189 0.83956 0.61985 0.0
H1011 H 0.98139 0.89777 0.65544 0.0
H1012 H 0.96475 0.02104 0.5831 0.0
H1013 H 0.00409 0.99525 0.52018 0.0
C1014 C 0.03104 0.9136 0.51174 0.0
C1015 C 0.04253 0.86923 0.51154 0.0
C1016 C 0.01348 0.93073 0.55014 0.0
C1017 C 0.03935 0.8437 0.55164 0.0
C1018 C 0.02217 0.86063 0.58998 0.0
C1019 C 0.98679 0.91919 0.62603 0.0
C1020 C 0.96994 0.9611 0.62394 0.0
C1021 C 0.00803 0.90364 0.5892 0.0
C1022 C 0.97753 0.98872 0.5858 0.0
C1023 C 0.99935 0.97375 0.54942 0.0
H1024 H 0.33359 0.69433 0.73682 0.0
H1025 H 0.45963 0.75004 0.8104 0.0
H1026 H 0.43213 0.71574 0.8804 0.0
H1027 H 0.377 0.66098 0.9177 0.0
H1028 H 0.25483 0.59895 0.84219 0.0
H1029 H 0.27561 0.64496 0.77621 0.0
C1030 C 0.3546 0.69976 0.76837 0.0
C1031 C 0.3988 0.72436 0.76833 0.0
C1032 C 0.33893 0.67905 0.80826 0.0
C1033 C 0.42586 0.73061 0.80941 0.0
C1034 C 0.41 0.71126 0.84947 0.0
C1035 C 0.35375 0.65959 0.88753 0.0
C1036 C 0.31384 0.62773 0.88506 0.0
C1037 C 0.36711 0.6844 0.84903 0.0
C1038 C 0.28484 0.62445 0.84527 0.0
C1039 C 0.29705 0.65032 0.80734 0.0
H1040 H 0.50268 0.45605 0.82948 0.0
H1041 H 0.58195 0.52246 0.94496 0.0
H1042 H 0.51255 0.52649 0.98288 0.0
H1043 H 0.42976 0.5239 0.97801 0.0
H1044 H 0.34958 0.46272 0.86107 0.0
H1045 H 0.41862 0.44304 0.82958 0.0
C1046 C 0.50481 0.47121 0.86304 0.0
C1047 C 0.54761 0.48987 0.88368 0.0
C1048 C 0.46454 0.47439 0.88457 0.0
C1049 C 0.54972 0.50804 0.9279 0.0
C1050 C 0.50997 0.5106 0.94972 0.0
C1051 C 0.42729 0.50472 0.94647 0.0
C1052 C 0.3849 0.49476 0.92179 0.0
C1053 C 0.46722 0.49557 0.92769 0.0
C1054 C 0.38202 0.47048 0.88065 0.0
C1055 C 0.42152 0.4598 0.86243 0.0
H1056 H 0.74512 0.34025 0.21193 0.0
H1057 H 0.81258 0.2789 0.10812 0.0
H1058 H 0.78303 0.20368 0.13441 0.0
H1059 H 0.7287 0.15563 0.17824 0.0
H1060 H 0.65453 0.21649 0.27614 0.0
H1061 H 0.69812 0.29099 0.263 0.0
C1062 C 0.7548 0.31047 0.19616 0.0
C1063 C 0.78046 0.31533 0.15762 0.0
C1064 C 0.7371 0.26694 0.21104 0.0
C1065 C 0.7925 0.27627 0.1375 0.0
C1066 C 0.77586 0.23309 0.15268 0.0
C1067 C 0.72366 0.18499 0.19809 0.0
C1068 C 0.689 0.18076 0.22841 0.0
C1069 C 0.7468 0.22799 0.18824 0.0
C1070 C 0.68169 0.21902 0.2532 0.0
C1071 C 0.7062 0.26169 0.2452 0.0
H1072 H 0.05882 0.57123 0.33648 0.0
H1073 H 0.97365 0.50887 0.43793 0.0
H1074 H 0.03891 0.47956 0.47635 0.0
H1075 H 0.11717 0.4624 0.4744 0.0
H1076 H 0.20166 0.52062 0.37052 0.0
H1077 H 0.14068 0.56232 0.34068 0.0
C1078 C 0.05491 0.55156 0.36722 0.0
C1079 C 0.01155 0.54173 0.38417 0.0
C1080 C 0.09262 0.53447 0.38886 0.0
C1081 C 0.00675 0.5168 0.42437 0.0
C1082 C 0.04402 0.49996 0.44624 0.0
C1083 C 0.12281 0.48563 0.44637 0.0
C1084 C 0.16381 0.48866 0.42476 0.0
C1085 C 0.08681 0.50752 0.42809 0.0
C1086 C 0.17044 0.51815 0.38785 0.0
C1087 C 0.13534 0.54139 0.37041 0.0
H1088 H 0.72492 0.80333 0.60584 0.0
H1089 H 0.78707 0.72453 0.70894 0.0
H1090 H 0.82314 0.7939 0.74798 0.0
H1091 H 0.85177 0.87562 0.74127 0.0
H1092 H 0.78936 0.95451 0.63884 0.0
H1093 H 0.73792 0.88692 0.6117 0.0
C1094 C 0.74532 0.80141 0.63753 0.0
C1095 C 0.75442 0.7589 0.6537 0.0
C1096 C 0.7665 0.84157 0.65957 0.0
C1097 C 0.77993 0.75682 0.69543 0.0
C1098 C 0.80095 0.79656 0.71763 0.0
C1099 C 0.8253 0.87828 0.71455 0.0
C1100 C 0.82436 0.91967 0.69181 0.0
C1101 C 0.79665 0.83902 0.69846 0.0
C1102 C 0.79031 0.92295 0.65699 0.0
C1103 C 0.76148 0.88414 0.64096 0.0
H1104 H 0.49401 0.55521 0.68799 0.0
H1105 H 0.58939 0.49662 0.61038 0.0
H1106 H 0.52827 0.46922 0.55331 0.0
H1107 H 0.4463 0.4479 0.53476 0.0
H1108 H 0.35007 0.49973 0.61611 0.0
H1109 H 0.41251 0.54477 0.66141 0.0
C1110 C 0.50162 0.53744 0.65803 0.0
C1111 C 0.54608 0.52719 0.65396 0.0
C1112 C 0.46591 0.52032 0.626 0.0
C1113 C 0.55536 0.50432 0.61475 0.0
C1114 C 0.52043 0.4887 0.582 0.0
C1115 C 0.43907 0.47113 0.56074 0.0
C1116 C 0.39374 0.47047 0.57217 0.0
C1117 C 0.47529 0.49466 0.58835 0.0
C1118 C 0.38464 0.50004 0.60636 0.0
C1119 C 0.42046 0.5249 0.63304 0.0
H1120 H 0.80172 0.32004 0.84994 0.0
H1121 H 0.75034 0.24835 0.9669 0.0
H1122 H 0.76126 0.1763 0.93306 0.0
H1123 H 0.79695 0.13558 0.87611 0.0
H1124 H 0.85059 0.20782 0.76052 0.0
H1125 H 0.8251 0.27701 0.78696 0.0
C1126 C 0.79197 0.28866 0.86765 0.0
C1127 C 0.77658 0.28985 0.91158 0.0
C1128 C 0.79866 0.24726 0.84814 0.0
C1129 C 0.76377 0.24863 0.93377 0.0
C1130 C 0.76967 0.20732 0.91428 0.0
C1131 C 0.80183 0.16623 0.85605 0.0
C1132 C 0.82623 0.16672 0.81688 0.0
C1133 C 0.78884 0.20646 0.87235 0.0
C1134 C 0.83184 0.2064 0.79079 0.0
C1135 C 0.81794 0.24629 0.80624 0.0
H1136 H 0.01056 0.46994 0.16292 0.0
H1137 H 0.95534 0.59312 0.12748 0.0
H1138 H 0.0148 0.61318 0.07556 0.0
H1139 H 0.08797 0.60177 0.04854 0.0
H1140 H 0.14956 0.48446 0.09111 0.0
H1141 H 0.08095 0.45456 0.12892 0.0
C1142 C 0.01101 0.5007 0.14314 0.0
C1143 C 0.97876 0.53026 0.14971 0.0
C1144 C 0.04623 0.51278 0.11387 0.0
C1145 C 0.97993 0.56995 0.12369 0.0
C1146 C 0.01388 0.58144 0.09374 0.0
C1147 C 0.08589 0.56906 0.06515 0.0
C1148 C 0.12419 0.54585 0.06762 0.0
C1149 C 0.04795 0.55389 0.08964 0.0
C1150 C 0.12067 0.5031 0.0885 0.0
C1151 C 0.08173 0.48643 0.11099 0.0
H1152 H 0.80289 0.82379 0.43571 0.0
H1153 H 0.71952 0.73415 0.33886 0.0
H1154 H 0.70069 0.79922 0.29471 0.0
H1155 H 0.69811 0.8812 0.29059 0.0
H1156 H 0.77854 0.97103 0.38915 0.0
H1157 H 0.81017 0.90673 0.42438 0.0
C1158 C 0.7812 0.81862 0.40454 0.0
C1159 C 0.76193 0.77431 0.39104 0.0
C1160 C 0.77041 0.85628 0.37934 0.0
C1161 C 0.73471 0.76789 0.35003 0.0
C1162 C 0.72387 0.8051 0.32477 0.0
C1163 C 0.72408 0.88684 0.31852 0.0
C1164 C 0.73606 0.93064 0.33733 0.0
C1165 C 0.74025 0.84944 0.33992 0.0
C1166 C 0.76921 0.93755 0.37398 0.0
C1167 C 0.78663 0.9007 0.39456 0.0
H1168 H 0.9051 0.56898 0.53414 0.0
H1169 H 0.9139 0.61283 0.67384 0.0
H1170 H 0.95842 0.55226 0.69585 0.0
H1171 H 0.98867 0.48301 0.67657 0.0
H1172 H 0.97651 0.43542 0.53791 0.0
H1173 H 0.94204 0.50247 0.5138 0.0
C1174 C 0.91685 0.56501 0.5693 0.0
C1175 C 0.90604 0.59493 0.60245 0.0
C1176 C 0.9426 0.53002 0.5817 0.0
C1177 C 0.9219 0.59014 0.64785 0.0
C1178 C 0.94733 0.55556 0.66041 0.0
C1179 C 0.97947 0.48793 0.64088 0.0
C1180 C 0.98465 0.45405 0.60919 0.0
C1181 C 0.95735 0.525 0.62775 0.0
C1182 C 0.97316 0.46107 0.56299 0.0
C1183 C 0.9526 0.49897 0.54931 0.0
H1184 H 0.32402 0.06968 0.58088 0.0
H1185 H 0.36516 0.97445 0.48706 0.0
H1186 H 0.41621 0.03525 0.45439 0.0
H1187 H 0.44202 0.11648 0.44591 0.0
H1188 H 0.39703 0.21327 0.5346 0.0
H1189 H 0.35578 0.1511 0.5768 0.0
C1190 C 0.3447 0.06215 0.55378 0.0
C1191 C 0.34019 0.01761 0.53601 0.0
C1192 C 0.37345 0.09765 0.53434 0.0
C1193 C 0.36736 0.00846 0.50094 0.0
C1194 C 0.39663 0.04323 0.4822 0.0
C1195 C 0.42426 0.12371 0.47538 0.0
C1196 C 0.42295 0.169 0.48779 0.0
C1197 C 0.39899 0.08806 0.49775 0.0
C1198 C 0.39903 0.17844 0.52517 0.0
C1199 C 0.37506 0.14294 0.54883 0.0
H1200 H 0.32338 0.20722 0.66715 0.0
H1201 H 0.29573 0.1639 0.80305 0.0
H1202 H 0.22534 0.198 0.79729 0.0
H1203 H 0.1672 0.2313 0.74992 0.0
H1204 H 0.19482 0.2733 0.61388 0.0
H1205 H 0.27053 0.25009 0.62412 0.0
C1206 C 0.3027 0.20617 0.69602 0.0
C1207 C 0.31466 0.18236 0.73527 0.0
C1208 C 0.26251 0.22632 0.6927 0.0
C1209 C 0.28697 0.18117 0.7721 0.0
C1210 C 0.24694 0.20112 0.76903 0.0
C1211 C 0.19084 0.23761 0.72347 0.0
C1212 C 0.17553 0.25411 0.68128 0.0
C1213 C 0.23385 0.22288 0.72911 0.0
C1214 C 0.20604 0.26142 0.6469 0.0
C1215 C 0.24906 0.24735 0.65245 0.0
H1216 H 0.17376 0.03714 0.0472 0.0
H1217 H 0.11483 0.12757 0.95328 0.0
H1218 H 0.06651 0.06317 0.91607 0.0
H1219 H 0.05198 0.98103 0.90125 0.0
H1220 H 0.11281 0.89021 0.99271 0.0
H1221 H 0.14799 0.95457 0.04059 0.0
C1222 C 0.14971 0.04287 0.01917 0.0
C1223 C 0.14887 0.08717 1.0024 0.0
C1224 C 0.12225 0.00547 0.99738 0.0
C1225 C 0.11679 0.09392 0.96658 0.0
C1226 C 0.08908 0.05705 0.94517 0.0
C1227 C 0.07144 0.9753 0.93269 0.0
C1228 C 0.08007 0.93104 0.94328 0.0
C1229 C 0.09298 0.01261 0.95902 0.0
C1230 C 0.10539 0.92391 0.98399 0.0
C1231 C 0.12619 0.96084 0.01095 0.0
H1232 H 0.75126 0.33159 0.68715 0.0
H1233 H 0.80236 0.42214 0.79913 0.0
H1234 H 0.87792 0.39978 0.79549 0.0
H1235 H 0.93183 0.36763 0.74984 0.0
H1236 H 0.88127 0.28129 0.63513 0.0
H1237 H 0.80277 0.28596 0.65269 0.0
C1238 C 0.77839 0.34568 0.71163 0.0
C1239 C 0.77129 0.38003 0.74221 0.0
C1240 C 0.82202 0.33305 0.70899 0.0
C1241 C 0.80715 0.39716 0.77395 0.0
C1242 C 0.85039 0.3841 0.77215 0.0
C1243 C 0.90352 0.34811 0.73007 0.0
C1244 C 0.91219 0.32501 0.69071 0.0
C1245 C 0.8587 0.35395 0.73825 0.0
C1246 C 0.87548 0.29945 0.66549 0.0
C1247 C 0.83055 0.30308 0.67489 0.0
H1248 H 0.59572 0.49004 0.05727 0.0
H1249 H 0.72557 0.56236 0.02506 0.0
H1250 H 0.69378 0.63335 0.02349 0.0
H1251 H 0.63356 0.67617 0.04523 0.0
H1252 H 0.5073 0.60352 0.08754 0.0
H1253 H 0.53255 0.53173 0.07015 0.0
C1254 C 0.61702 0.52105 0.04973 0.0
C1255 C 0.66325 0.5204 0.04264 0.0
C1256 C 0.59899 0.56205 0.05066 0.0
C1257 C 0.68996 0.56126 0.03117 0.0
C1258 C 0.67181 0.60216 0.03041 0.0
C1259 C 0.6111 0.64459 0.04946 0.0
C1260 C 0.569 0.64535 0.06851 0.0
C1261 C 0.62696 0.60314 0.04205 0.0
C1262 C 0.53983 0.60424 0.07288 0.0
C1263 C 0.55462 0.56294 0.06371 0.0
H1264 H 0.26876 0.97878 0.74041 0.0
H1265 H 0.33736 0.87409 0.80412 0.0
H1266 H 0.26429 0.83348 0.82418 0.0
H1267 H 0.18284 0.83428 0.83419 0.0
H1268 H 0.11487 0.94064 0.77366 0.0
H1269 H 0.18536 0.97328 0.74045 0.0
C1270 C 0.26765 0.94666 0.758 0.0
C1271 C 0.30856 0.93005 0.7717 0.0
C1272 C 0.22551 0.92373 0.76988 0.0
C1273 C 0.30648 0.88797 0.79366 0.0
C1274 C 0.26466 0.86476 0.8053 0.0
C1275 C 0.18311 0.86364 0.81235 0.0
C1276 C 0.14386 0.88511 0.80632 0.0
C1277 C 0.22418 0.88317 0.79501 0.0
C1278 C 0.14474 0.92357 0.77859 0.0
C1279 C 0.18512 0.94243 0.76003 0.0
H1280 H 0.27757 0.13577 0.24121 0.0
H1281 H 0.19104 0.21434 0.3096 0.0
H1282 H 0.25775 0.26187 0.34512 0.0
H1283 H 0.33949 0.26888 0.36987 0.0
H1284 H 0.42624 0.18975 0.30269 0.0
H1285 H 0.36122 0.15554 0.25274 0.0
C1286 C 0.27341 0.16397 0.26306 0.0
C1287 C 0.22939 0.17095 0.27358 0.0
C1288 C 0.31212 0.1908 0.28394 0.0
C1289 C 0.22448 0.20821 0.30112 0.0
C1290 C 0.2627 0.23519 0.32177 0.0
C1291 C 0.34438 0.24572 0.34286 0.0
C1292 C 0.38731 0.2315 0.34005 0.0
C1293 C 0.30658 0.22519 0.3153 0.0
C1294 C 0.39349 0.20135 0.3052 0.0
C1295 C 0.35615 0.18122 0.27717 0.0
loop_
_geom_bond_atom_site_label_1
_geom_bond_atom_site_label_2
_geom_bond_distance
_geom_bond_site_symmetry_2
_ccdc_geom_bond_type
Cu0 N1 1.999 1_455 S
Cu0 O6 1.974 . S
Cu0 N11 1.985 . S
Cu0 O20 1.959 1_455 S
N1 Cu0 1.999 1_655 S
N1 C3 1.263 . S
N1 C5 1.389 . S
N2 C3 1.358 . S
N2 C4 1.400 . S
C3 N1 1.263 . S
C3 N2 1.358 . S
C3 H9 0.939 . S
C4 N2 1.400 . S
C4 C5 1.351 . S
C4 H21 0.930 . S
C5 N1 1.389 . S
C5 C4 1.351 . S
C5 H10 0.930 . S
O6 Cu0 1.974 . S
O6 C16 1.282 . S
C7 O8 1.261 1_655 S
C7 O20 1.251 . S
O8 C7 1.261 1_455 S
H9 C3 0.939 . S
H10 C5 0.930 . S
N11 Cu0 1.985 . S
N11 C13 1.335 . S
N11 C14 1.390 . S
N12 C13 1.345 . S
N12 C15 1.336 . S
C13 N11 1.335 . S
C13 N12 1.345 . S
C13 H18 0.930 . S
C14 N11 1.390 . S
C14 C15 1.346 . S
C14 H19 0.930 . S
C15 N12 1.336 . S
C15 C14 1.346 . S
C15 H22 0.929 . S
C16 O6 1.282 . S
C16 O17 1.216 . S
O17 C16 1.216 . S
H18 C13 0.930 . S
H19 C14 0.930 . S
O20 Cu0 1.959 1_655 S
O20 C7 1.251 . S
H21 C4 0.930 . S
H22 C15 0.929 . S
Cu23 N24 1.999 1_455 S
Cu23 O29 1.974 . S
Cu23 N34 1.985 . S
Cu23 O43 1.959 . S
N24 Cu23 1.999 1_655 S
N24 C26 1.263 . S
N24 C28 1.389 . S
N25 C26 1.358 . S
N25 C27 1.400 . S
C26 N24 1.263 . S
C26 N25 1.358 . S
C26 H32 0.930 . S
C27 N25 1.400 . S
C27 C28 1.351 . S
C27 H44 0.930 . S
C28 N24 1.389 . S
C28 C27 1.351 . S
C28 H33 0.930 . S
O29 Cu23 1.974 . S
O29 C39 1.282 . S
C30 O31 1.261 . S
C30 O43 1.251 1_655 S
O31 C30 1.261 . S
H32 C26 0.930 . S
H33 C28 0.930 . S
N34 Cu23 1.985 . S
N34 C36 1.335 . S
N34 C37 1.390 . S
N35 C36 1.345 . S
N35 C38 1.336 . S
C36 N34 1.335 . S
C36 N35 1.345 . S
C36 H41 0.930 . S
C37 N34 1.390 . S
C37 C38 1.346 . S
C37 H42 0.930 . S
C38 N35 1.336 . S
C38 C37 1.346 . S
C38 H45 0.929 . S
C39 O29 1.282 . S
C39 O40 1.216 . S
O40 C39 1.216 . S
H41 C36 0.930 . S
H42 C37 0.930 . S
O43 Cu23 1.959 . S
O43 C30 1.251 1_455 S
H44 C27 0.930 . S
H45 C38 0.929 . S
Cu46 N47 1.999 . S
Cu46 O52 1.974 . S
Cu46 N57 1.985 . S
Cu46 O66 1.959 . S
N47 Cu46 1.999 . S
N47 C49 1.263 . S
N47 C51 1.389 . S
N48 C49 1.358 . S
N48 C50 1.400 . S
C49 N47 1.263 . S
C49 N48 1.358 . S
C49 H55 0.930 . S
C50 N48 1.400 . S
C50 C51 1.351 . S
C50 H67 0.930 . S
C51 N47 1.389 . S
C51 C50 1.351 . S
C51 H56 0.930 . S
O52 Cu46 1.974 . S
O52 C62 1.282 . S
C53 O54 1.261 . S
C53 O66 1.251 . S
O54 C53 1.261 . S
H55 C49 0.930 . S
H56 C51 0.930 . S
N57 Cu46 1.985 . S
N57 C59 1.335 . S
N57 C60 1.390 . S
N58 C59 1.345 . S
N58 C61 1.336 . S
C59 N57 1.335 . S
C59 N58 1.345 . S
C59 H64 0.930 . S
C60 N57 1.390 . S
C60 C61 1.346 . S
C60 H65 0.930 . S
C61 N58 1.336 . S
C61 C60 1.346 . S
C61 H68 0.929 . S
C62 O52 1.282 . S
C62 O63 1.216 . S
O63 C62 1.216 . S
H64 C59 0.930 . S
H65 C60 0.930 . S
O66 Cu46 1.959 . S
O66 C53 1.251 . S
H67 C50 0.930 . S
H68 C61 0.929 . S
Cu69 N70 1.999 . S
Cu69 O75 1.974 . S
Cu69 N80 1.985 . S
Cu69 O89 1.959 . S
N70 Cu69 1.999 . S
N70 C72 1.263 . S
N70 C74 1.389 . S
N71 C72 1.358 . S
N71 C73 1.400 . S
C72 N70 1.263 . S
C72 N71 1.358 . S
C72 H78 0.930 . S
C73 N71 1.400 . S
C73 C74 1.351 . S
C73 H90 0.930 . S
C74 N70 1.389 . S
C74 C73 1.351 . S
C74 H79 0.930 . S
O75 Cu69 1.974 . S
O75 C85 1.282 . S
C76 O77 1.261 . S
C76 O89 1.251 . S
O77 C76 1.261 . S
H78 C72 0.930 . S
H79 C74 0.930 . S
N80 Cu69 1.985 . S
N80 C82 1.335 . S
N80 C83 1.390 . S
N81 C82 1.345 . S
N81 C84 1.336 . S
C82 N80 1.335 . S
C82 N81 1.345 . S
C82 H87 0.930 . S
C83 N80 1.390 . S
C83 C84 1.346 . S
C83 H88 0.930 . S
C84 N81 1.336 . S
C84 C83 1.346 . S
C84 H91 0.929 . S
C85 O75 1.282 . S
C85 O86 1.216 . S
O86 C85 1.216 . S
H87 C82 0.930 . S
H88 C83 0.930 . S
O89 Cu69 1.959 . S
O89 C76 1.251 . S
H90 C73 0.930 . S
H91 C84 0.929 . S
Cu92 N93 1.999 1_565 S
Cu92 O98 1.974 . S
Cu92 N103 1.985 . S
Cu92 O112 1.959 1_565 S
N93 Cu92 1.999 1_545 S
N93 C95 1.263 . S
N93 C97 1.389 . S
N94 C95 1.358 . S
N94 C96 1.400 . S
C95 N93 1.263 . S
C95 N94 1.358 . S
C95 H101 0.930 . S
C96 N94 1.400 . S
C96 C97 1.351 . S
C96 H113 0.930 . S
C97 N93 1.389 . S
C97 C96 1.351 . S
C97 H102 0.930 . S
O98 Cu92 1.974 . S
O98 C108 1.282 . S
C99 O100 1.261 . S
C99 O112 1.251 . S
O100 C99 1.261 . S
H101 C95 0.930 . S
H102 C97 0.930 . S
N103 Cu92 1.985 . S
N103 C105 1.335 . S
N103 C106 1.390 . S
N104 C105 1.345 . S
N104 C107 1.336 . S
C105 N103 1.335 . S
C105 N104 1.345 . S
C105 H110 0.930 . S
C106 N103 1.390 . S
C106 C107 1.346 . S
C106 H111 0.930 . S
C107 N104 1.336 . S
C107 C106 1.346 . S
C107 H114 0.929 . S
C108 O98 1.282 . S
C108 O109 1.216 . S
O109 C108 1.216 . S
H110 C105 0.930 . S
H111 C106 0.930 . S
O112 Cu92 1.959 1_545 S
O112 C99 1.251 . S
H113 C96 0.930 . S
H114 C107 0.929 . S
Cu115 N116 1.999 . S
Cu115 O121 1.974 . S
Cu115 N126 1.985 . S
Cu115 O135 1.959 . S
N116 Cu115 1.999 . S
N116 C118 1.263 . S
N116 C120 1.389 . S
N117 C118 1.358 . S
N117 C119 1.400 . S
C118 N116 1.263 . S
C118 N117 1.358 . S
C118 H124 0.930 . S
C119 N117 1.400 . S
C119 C120 1.351 . S
C119 H136 0.930 . S
C120 N116 1.389 . S
C120 C119 1.351 . S
C120 H125 0.930 . S
O121 Cu115 1.974 . S
O121 C131 1.282 . S
C122 O123 1.261 . S
C122 O135 1.251 . S
O123 C122 1.261 . S
H124 C118 0.930 . S
H125 C120 0.930 . S
N126 Cu115 1.985 . S
N126 C128 1.335 1_565 S
N126 C129 1.390 . S
N127 C128 1.345 . S
N127 C130 1.336 1_545 S
C128 N126 1.335 1_545 S
C128 N127 1.345 . S
C128 H133 0.930 . S
C129 N126 1.390 . S
C129 C130 1.346 . S
C129 H134 0.930 . S
C130 N127 1.336 1_565 S
C130 C129 1.346 . S
C130 H137 0.929 . S
C131 O121 1.282 . S
C131 O132 1.216 . S
O132 C131 1.216 . S
H133 C128 0.930 . S
H134 C129 0.930 . S
O135 Cu115 1.959 . S
O135 C122 1.251 . S
H136 C119 0.930 . S
H137 C130 0.929 . S
Cu138 N139 1.999 . S
Cu138 O144 1.974 . S
Cu138 N149 1.985 . S
Cu138 O158 1.959 . S
N139 Cu138 1.999 . S
N139 C141 1.263 1_545 S
N139 C143 1.389 1_545 S
N140 C141 1.358 . S
N140 C142 1.400 . S
C141 N139 1.263 1_565 S
C141 N140 1.358 . S
C141 H147 0.930 . S
C142 N140 1.400 . S
C142 C143 1.351 . S
C142 H159 0.930 . S
C143 N139 1.389 1_565 S
C143 C142 1.351 . S
C143 H148 0.937 . S
O144 Cu138 1.974 . S
O144 C154 1.282 . S
C145 O146 1.261 . S
C145 O158 1.251 1_565 S
O146 C145 1.261 . S
H147 C141 0.930 . S
H148 C143 0.937 . S
N149 Cu138 1.985 . S
N149 C151 1.335 . S
N149 C152 1.390 . S
N150 C151 1.345 . S
N150 C153 1.336 . S
C151 N149 1.335 . S
C151 N150 1.345 . S
C151 H156 0.930 . S
C152 N149 1.390 . S
C152 C153 1.346 . S
C152 H157 0.930 . S
C153 N150 1.336 . S
C153 C152 1.346 . S
C153 H160 0.929 . S
C154 O144 1.282 . S
C154 O155 1.216 . S
O155 C154 1.216 . S
H156 C151 0.930 . S
H157 C152 0.930 . S
O158 Cu138 1.959 . S
O158 C145 1.251 1_545 S
H159 C142 0.930 . S
H160 C153 0.929 . S
Cu161 N162 1.999 . S
Cu161 O167 1.974 1_556 S
Cu161 N172 1.985 1_556 S
Cu161 O181 1.959 . S
N162 Cu161 1.999 . S
N162 C164 1.263 . S
N162 C166 1.389 . S
N163 C164 1.358 . S
N163 C165 1.400 . S
C164 N162 1.263 . S
C164 N163 1.358 . S
C164 H170 0.930 . S
C165 N163 1.400 . S
C165 C166 1.351 . S
C165 H182 0.930 . S
C166 N162 1.389 . S
C166 C165 1.351 . S
C166 H171 0.930 . S
O167 Cu161 1.974 1_554 S
O167 C177 1.282 . S
C168 O169 1.261 1_556 S
C168 O181 1.251 . S
O169 C168 1.261 1_554 S
H170 C164 0.930 . S
H171 C166 0.930 . S
N172 Cu161 1.985 1_554 S
N172 C174 1.335 . S
N172 C175 1.390 . S
N173 C174 1.345 . S
N173 C176 1.336 . S
C174 N172 1.335 . S
C174 N173 1.345 . S
C174 H179 0.930 1_554 S
C175 N172 1.390 . S
C175 C176 1.346 . S
C175 H180 0.930 . S
C176 N173 1.336 . S
C176 C175 1.346 . S
C176 H183 0.929 . S
C177 O167 1.282 . S
C177 O178 1.216 . S
O178 C177 1.216 . S
H179 C174 0.930 1_556 S
H180 C175 0.930 . S
O181 Cu161 1.959 . S
O181 C168 1.251 . S
H182 C165 0.930 . S
H183 C176 0.929 . S
Cu184 N185 1.999 . S
Cu184 O190 1.974 1_556 S
Cu184 N195 1.985 1_556 S
Cu184 O204 1.959 . S
N185 Cu184 1.999 . S
N185 C187 1.263 . S
N185 C189 1.389 . S
N186 C187 1.358 . S
N186 C188 1.400 . S
C187 N185 1.263 . S
C187 N186 1.358 . S
C187 H193 0.930 . S
C188 N186 1.400 . S
C188 C189 1.351 . S
C188 H205 0.930 . S
C189 N185 1.389 . S
C189 C188 1.351 . S
C189 H194 0.930 . S
O190 Cu184 1.974 1_554 S
O190 C200 1.282 . S
C191 O192 1.261 1_556 S
C191 O204 1.251 . S
O192 C191 1.261 1_554 S
H193 C187 0.930 . S
H194 C189 0.930 . S
N195 Cu184 1.985 1_554 S
N195 C197 1.335 . S
N195 C198 1.390 . S
N196 C197 1.345 . S
N196 C199 1.336 . S
C197 N195 1.335 . S
C197 N196 1.345 . S
C197 H202 0.930 1_554 S
C198 N195 1.390 . S
C198 C199 1.346 . S
C198 H203 0.930 . S
C199 N196 1.336 . S
C199 C198 1.346 . S
C199 H206 0.929 . S
C200 O190 1.282 . S
C200 O201 1.216 . S
O201 C200 1.216 . S
H202 C197 0.930 1_556 S
H203 C198 0.930 . S
O204 Cu184 1.959 . S
O204 C191 1.251 . S
H205 C188 0.930 . S
H206 C199 0.929 . S
Cu207 N208 1.999 . S
Cu207 O213 1.974 . S
Cu207 N218 1.985 . S
Cu207 O227 1.959 . S
N208 Cu207 1.999 . S
N208 C210 1.263 . S
N208 C212 1.389 . S
N209 C210 1.358 . S
N209 C211 1.400 . S
C210 N208 1.263 . S
C210 N209 1.358 . S
C210 H216 0.930 . S
C211 N209 1.400 . S
C211 C212 1.351 . S
C211 H228 0.930 . S
C212 N208 1.389 . S
C212 C211 1.351 . S
C212 H217 0.930 . S
O213 Cu207 1.974 . S
O213 C223 1.282 . S
C214 O215 1.261 . S
C214 O227 1.251 . S
O215 C214 1.261 . S
H216 C210 0.930 . S
H217 C212 0.930 . S
N218 Cu207 1.985 . S
N218 C220 1.335 . S
N218 C221 1.390 . S
N219 C220 1.345 . S
N219 C222 1.336 . S
C220 N218 1.335 . S
C220 N219 1.345 . S
C220 H225 0.930 . S
C221 N218 1.390 . S
C221 C222 1.346 . S
C221 H226 0.930 . S
C222 N219 1.336 . S
C222 C221 1.346 . S
C222 H229 0.929 . S
C223 O213 1.282 . S
C223 O224 1.216 . S
O224 C223 1.216 . S
H225 C220 0.930 . S
H226 C221 0.930 . S
O227 Cu207 1.959 . S
O227 C214 1.251 . S
H228 C211 0.930 . S
H229 C222 0.929 . S
Cu230 N231 1.999 . S
Cu230 O236 1.974 . S
Cu230 N241 1.985 . S
Cu230 O250 1.959 . S
N231 Cu230 1.999 . S
N231 C233 1.263 . S
N231 C235 1.389 . S
N232 C233 1.358 . S
N232 C234 1.400 . S
C233 N231 1.263 . S
C233 N232 1.358 . S
C233 H239 0.930 . S
C234 N232 1.400 . S
C234 C235 1.351 . S
C234 H251 0.930 . S
C235 N231 1.389 . S
C235 C234 1.351 . S
C235 H240 0.930 . S
O236 Cu230 1.974 . S
O236 C246 1.282 . S
C237 O238 1.261 . S
C237 O250 1.251 . S
O238 C237 1.261 . S
H239 C233 0.930 . S
H240 C235 0.930 . S
N241 Cu230 1.985 . S
N241 C243 1.335 . S
N241 C244 1.390 . S
N242 C243 1.345 . S
N242 C245 1.336 . S
C243 N241 1.335 . S
C243 N242 1.345 . S
C243 H248 0.930 . S
C244 N241 1.390 . S
C244 C245 1.346 . S
C244 H249 0.930 . S
C245 N242 1.336 . S
C245 C244 1.346 . S
C245 H252 0.929 . S
C246 O236 1.282 . S
C246 O247 1.216 . S
O247 C246 1.216 . S
H248 C243 0.930 . S
H249 C244 0.930 . S
O250 Cu230 1.959 . S
O250 C237 1.251 . S
H251 C234 0.930 . S
H252 C245 0.929 . S
Cu253 N254 1.999 . S
Cu253 O259 1.974 . S
Cu253 N264 1.985 . S
Cu253 O273 1.959 . S
N254 Cu253 1.999 . S
N254 C256 1.263 . S
N254 C258 1.389 . S
N255 C256 1.358 . S
N255 C257 1.400 . S
C256 N254 1.263 . S
C256 N255 1.358 . S
C256 H262 0.930 . S
C257 N255 1.400 . S
C257 C258 1.351 . S
C257 H274 0.930 . S
C258 N254 1.389 . S
C258 C257 1.351 . S
C258 H263 0.930 . S
O259 Cu253 1.974 . S
O259 C269 1.282 . S
C260 O261 1.261 . S
C260 O273 1.251 . S
O261 C260 1.261 . S
H262 C256 0.930 . S
H263 C258 0.930 . S
N264 Cu253 1.985 . S
N264 C266 1.335 . S
N264 C267 1.390 . S
N265 C266 1.345 . S
N265 C268 1.336 . S
C266 N264 1.335 . S
C266 N265 1.345 . S
C266 H271 0.930 . S
C267 N264 1.390 . S
C267 C268 1.346 . S
C267 H272 0.930 . S
C268 N265 1.336 . S
C268 C267 1.346 . S
C268 H275 0.929 . S
C269 O259 1.282 . S
C269 O270 1.216 . S
O270 C269 1.216 . S
H271 C266 0.930 . S
H272 C267 0.930 . S
O273 Cu253 1.959 . S
O273 C260 1.251 . S
H274 C257 0.930 . S
H275 C268 0.929 . S
H276 C284 0.930 . S
H277 C287 0.930 . S
H278 C289 0.930 . S
H279 C290 0.970 . S
H280 C290 0.970 . S
H281 C292 0.930 . S
H282 C294 0.930 . S
H283 C296 0.930 . S
C284 H276 0.930 . S
C284 C285 1.382 . S
C284 C286 1.426 . S
C285 C284 1.382 . S
C285 C289 1.389 . S
C286 C284 1.426 . S
C286 C287 1.375 . S
C286 C290 1.532 . S
C287 H277 0.930 . S
C287 C286 1.375 . S
C287 C288 1.416 . S
C288 C287 1.416 . S
C288 C289 1.371 . S
C289 H278 0.930 . S
C289 C285 1.389 . S
C289 C288 1.371 . S
C290 H279 0.970 . S
C290 H280 0.970 . S
C290 C286 1.532 . S
C290 C291 1.499 . S
C291 C290 1.499 . S
C291 C292 1.370 . S
C291 C296 1.415 . S
C292 H281 0.930 . S
C292 C291 1.370 . S
C292 C293 1.407 1_455 S
C293 C292 1.407 1_655 S
C293 C294 1.365 . S
C294 H282 0.930 . S
C294 C293 1.365 . S
C294 C295 1.393 . S
C295 C294 1.393 . S
C295 C296 1.387 1_655 S
C296 H283 0.930 . S
C296 C291 1.415 . S
C296 C295 1.387 1_455 S
H297 C305 0.930 . S
H298 C308 0.930 . S
H299 C310 0.930 . S
H300 C311 0.970 . S
H301 C311 0.970 . S
H302 C313 0.930 . S
H303 C315 0.930 . S
H304 C317 0.930 . S
C305 H297 0.930 . S
C305 C306 1.382 . S
C305 C307 1.426 . S
C306 C305 1.382 . S
C306 C310 1.389 . S
C307 C305 1.426 . S
C307 C308 1.375 . S
C307 C311 1.532 . S
C308 H298 0.930 . S
C308 C307 1.375 . S
C308 C309 1.416 . S
C309 C308 1.416 . S
C309 C310 1.371 . S
C310 H299 0.930 . S
C310 C306 1.389 . S
C310 C309 1.371 . S
C311 H300 0.970 . S
C311 H301 0.970 . S
C311 C307 1.532 . S
C311 C312 1.499 . S
C312 C311 1.499 . S
C312 C313 1.370 1_455 S
C312 C317 1.415 1_455 S
C313 H302 0.930 . S
C313 C312 1.370 1_655 S
C313 C314 1.407 . S
C314 C313 1.407 . S
C314 C315 1.365 . S
C315 H303 0.930 . S
C315 C314 1.365 . S
C315 C316 1.393 . S
C316 C315 1.393 . S
C316 C317 1.387 . S
C317 H304 0.930 . S
C317 C312 1.415 1_655 S
C317 C316 1.387 . S
H318 C326 0.930 . S
H319 C329 0.930 . S
H320 C331 0.930 . S
H321 C332 0.970 . S
H322 C332 0.970 . S
H323 C334 0.930 . S
H324 C336 0.930 . S
H325 C338 0.930 . S
C326 H318 0.930 . S
C326 C327 1.382 . S
C326 C328 1.426 . S
C327 C326 1.382 . S
C327 C331 1.389 . S
C328 C326 1.426 . S
C328 C329 1.375 . S
C328 C332 1.532 . S
C329 H319 0.930 . S
C329 C328 1.375 . S
C329 C330 1.416 . S
C330 C329 1.416 . S
C330 C331 1.371 . S
C331 H320 0.930 . S
C331 C327 1.389 . S
C331 C330 1.371 . S
C332 H321 0.970 . S
C332 H322 0.970 . S
C332 C328 1.532 . S
C332 C333 1.499 . S
C333 C332 1.499 . S
C333 C334 1.370 . S
C333 C338 1.415 . S
C334 H323 0.930 . S
C334 C333 1.370 . S
C334 C335 1.407 . S
C335 C334 1.407 . S
C335 C336 1.365 . S
C336 H324 0.930 . S
C336 C335 1.365 . S
C336 C337 1.393 . S
C337 C336 1.393 . S
C337 C338 1.387 . S
C338 H325 0.930 . S
C338 C333 1.415 . S
C338 C337 1.387 . S
H339 C347 0.930 . S
H340 C350 0.930 . S
H341 C352 0.930 . S
H342 C353 0.970 . S
H343 C353 0.970 . S
H344 C355 0.930 . S
H345 C357 0.930 . S
H346 C359 0.930 . S
C347 H339 0.930 . S
C347 C348 1.382 . S
C347 C349 1.426 . S
C348 C347 1.382 . S
C348 C352 1.389 . S
C349 C347 1.426 . S
C349 C350 1.375 . S
C349 C353 1.532 . S
C350 H340 0.930 . S
C350 C349 1.375 . S
C350 C351 1.416 . S
C351 C350 1.416 . S
C351 C352 1.371 . S
C352 H341 0.930 . S
C352 C348 1.389 . S
C352 C351 1.371 . S
C353 H342 0.970 . S
C353 H343 0.970 . S
C353 C349 1.532 . S
C353 C354 1.499 . S
C354 C353 1.499 . S
C354 C355 1.370 . S
C354 C359 1.415 . S
C355 H344 0.930 . S
C355 C354 1.370 . S
C355 C356 1.407 . S
C356 C355 1.407 . S
C356 C357 1.365 . S
C357 H345 0.930 . S
C357 C356 1.365 . S
C357 C358 1.393 . S
C358 C357 1.393 . S
C358 C359 1.387 . S
C359 H346 0.930 . S
C359 C354 1.415 . S
C359 C358 1.387 . S
H360 C368 0.930 . S
H361 C371 0.930 . S
H362 C373 0.930 . S
H363 C374 0.970 1_565 S
H364 C374 0.970 . S
H365 C376 0.930 . S
H366 C378 0.930 . S
H367 C380 0.929 . S
C368 H360 0.930 . S
C368 C369 1.382 . S
C368 C370 1.426 . S
C369 C368 1.382 . S
C369 C373 1.389 . S
C370 C368 1.426 . S
C370 C371 1.375 . S
C370 C374 1.532 . S
C371 H361 0.930 . S
C371 C370 1.375 . S
C371 C372 1.416 . S
C372 C371 1.416 . S
C372 C373 1.371 . S
C373 H362 0.930 . S
C373 C369 1.389 . S
C373 C372 1.371 . S
C374 H363 0.970 1_545 S
C374 H364 0.970 . S
C374 C370 1.532 . S
C374 C375 1.499 . S
C375 C374 1.499 . S
C375 C376 1.370 . S
C375 C380 1.418 . S
C376 H365 0.930 . S
C376 C375 1.370 . S
C376 C377 1.407 1_545 S
C377 C376 1.407 1_565 S
C377 C378 1.365 . S
C378 H366 0.930 . S
C378 C377 1.365 . S
C378 C379 1.393 . S
C379 C378 1.393 . S
C379 C380 1.385 1_565 S
C380 H367 0.929 . S
C380 C375 1.418 . S
C380 C379 1.385 1_545 S
H381 C389 0.930 . S
H382 C392 0.930 . S
H383 C394 0.930 . S
H384 C395 0.970 . S
H385 C395 0.970 . S
H386 C397 0.930 . S
H387 C399 0.930 . S
H388 C401 0.930 . S
C389 H381 0.930 . S
C389 C390 1.382 . S
C389 C391 1.426 . S
C390 C389 1.382 . S
C390 C394 1.389 . S
C391 C389 1.426 . S
C391 C392 1.375 . S
C391 C395 1.532 . S
C392 H382 0.930 . S
C392 C391 1.375 . S
C392 C393 1.416 . S
C393 C392 1.416 . S
C393 C394 1.371 . S
C394 H383 0.930 . S
C394 C390 1.389 . S
C394 C393 1.371 . S
C395 H384 0.970 . S
C395 H385 0.970 . S
C395 C391 1.532 . S
C395 C396 1.499 . S
C396 C395 1.499 . S
C396 C397 1.370 . S
C396 C401 1.415 . S
C397 H386 0.930 . S
C397 C396 1.370 . S
C397 C398 1.407 . S
C398 C397 1.407 . S
C398 C399 1.365 . S
C399 H387 0.930 . S
C399 C398 1.365 . S
C399 C400 1.393 . S
C400 C399 1.393 . S
C400 C401 1.387 . S
C401 H388 0.930 . S
C401 C396 1.415 . S
C401 C400 1.387 . S
H402 C410 0.930 . S
H403 C413 0.930 . S
H404 C415 0.930 . S
H405 C416 0.970 . S
H406 C416 0.970 . S
H407 C418 0.930 . S
H408 C420 0.930 . S
H409 C422 0.930 . S
C410 H402 0.930 . S
C410 C411 1.382 1_545 S
C410 C412 1.426 . S
C411 C410 1.382 1_565 S
C411 C415 1.389 . S
C412 C410 1.426 . S
C412 C413 1.375 . S
C412 C416 1.532 . S
C413 H403 0.930 . S
C413 C412 1.375 . S
C413 C414 1.416 1_545 S
C414 C413 1.416 1_565 S
C414 C415 1.371 . S
C415 H404 0.930 . S
C415 C411 1.389 . S
C415 C414 1.371 . S
C416 H405 0.970 . S
C416 H406 0.970 . S
C416 C412 1.532 . S
C416 C417 1.499 . S
C417 C416 1.499 . S
C417 C418 1.370 . S
C417 C422 1.415 . S
C418 H407 0.930 . S
C418 C417 1.370 . S
C418 C419 1.407 . S
C419 C418 1.407 . S
C419 C420 1.365 . S
C420 H408 0.930 . S
C420 C419 1.365 . S
C420 C421 1.393 . S
C421 C420 1.393 . S
C421 C422 1.387 . S
C422 H409 0.930 . S
C422 C417 1.415 . S
C422 C421 1.387 . S
H423 C431 0.930 . S
H424 C434 0.930 . S
H425 C436 0.930 . S
H426 C437 0.970 . S
H427 C437 0.970 . S
H428 C439 0.930 1_554 S
H429 C441 0.930 . S
H430 C443 0.930 . S
C431 H423 0.930 . S
C431 C432 1.382 . S
C431 C433 1.426 . S
C432 C431 1.382 . S
C432 C436 1.389 . S
C433 C431 1.426 . S
C433 C434 1.375 . S
C433 C437 1.532 . S
C434 H424 0.930 . S
C434 C433 1.375 . S
C434 C435 1.416 . S
C435 C434 1.416 . S
C435 C436 1.371 . S
C436 H425 0.930 . S
C436 C432 1.389 . S
C436 C435 1.371 . S
C437 H426 0.970 . S
C437 H427 0.970 . S
C437 C433 1.532 . S
C437 C438 1.499 . S
C438 C437 1.499 . S
C438 C439 1.370 1_554 S
C438 C443 1.415 . S
C439 H428 0.930 1_556 S
C439 C438 1.370 1_556 S
C439 C440 1.407 . S
C440 C439 1.407 . S
C440 C441 1.365 . S
C441 H429 0.930 . S
C441 C440 1.365 . S
C441 C442 1.393 . S
C442 C441 1.393 . S
C442 C443 1.387 1_556 S
C443 H430 0.930 . S
C443 C438 1.415 . S
C443 C442 1.387 1_554 S
H444 C452 0.930 . S
H445 C455 0.930 . S
H446 C457 0.930 . S
H447 C458 0.970 . S
H448 C458 0.970 . S
H449 C460 0.936 . S
H450 C462 0.930 . S
H451 C464 0.930 1_554 S
C452 H444 0.930 . S
C452 C453 1.382 . S
C452 C454 1.426 . S
C453 C452 1.382 . S
C453 C457 1.389 . S
C454 C452 1.426 . S
C454 C455 1.375 . S
C454 C458 1.532 . S
C455 H445 0.930 . S
C455 C454 1.375 . S
C455 C456 1.416 . S
C456 C455 1.416 . S
C456 C457 1.371 . S
C457 H446 0.930 . S
C457 C453 1.389 . S
C457 C456 1.371 . S
C458 H447 0.970 . S
C458 H448 0.970 . S
C458 C454 1.532 . S
C458 C459 1.499 . S
C459 C458 1.499 . S
C459 C460 1.370 1_554 S
C459 C464 1.415 1_554 S
C460 H449 0.936 . S
C460 C459 1.370 1_556 S
C460 C461 1.407 . S
C461 C460 1.407 . S
C461 C462 1.365 . S
C462 H450 0.930 . S
C462 C461 1.365 . S
C462 C463 1.393 . S
C463 C462 1.393 . S
C463 C464 1.387 . S
C464 H451 0.930 1_556 S
C464 C459 1.415 1_556 S
C464 C463 1.387 . S
H465 C473 0.930 . S
H466 C476 0.930 . S
H467 C478 0.930 . S
H468 C479 0.970 . S
H469 C479 0.970 . S
H470 C481 0.930 . S
H471 C483 0.930 . S
H472 C485 0.930 . S
C473 H465 0.930 . S
C473 C474 1.382 . S
C473 C475 1.426 . S
C474 C473 1.382 . S
C474 C478 1.389 . S
C475 C473 1.426 . S
C475 C476 1.375 . S
C475 C479 1.532 . S
C476 H466 0.930 . S
C476 C475 1.375 . S
C476 C477 1.416 . S
C477 C476 1.416 . S
C477 C478 1.371 . S
C478 H467 0.930 . S
C478 C474 1.389 . S
C478 C477 1.371 . S
C479 H468 0.970 . S
C479 H469 0.970 . S
C479 C475 1.532 . S
C479 C480 1.499 . S
C480 C479 1.499 . S
C480 C481 1.370 . S
C480 C485 1.415 . S
C481 H470 0.930 . S
C481 C480 1.370 . S
C481 C482 1.407 . S
C482 C481 1.407 . S
C482 C483 1.365 . S
C483 H471 0.930 . S
C483 C482 1.365 . S
C483 C484 1.393 . S
C484 C483 1.393 . S
C484 C485 1.387 . S
C485 H472 0.930 . S
C485 C480 1.415 . S
C485 C484 1.387 . S
H486 C494 0.930 . S
H487 C497 0.930 . S
H488 C499 0.930 . S
H489 C500 0.970 . S
H490 C500 0.970 . S
H491 C502 0.930 . S
H492 C504 0.930 . S
H493 C506 0.930 . S
C494 H486 0.930 . S
C494 C495 1.382 . S
C494 C496 1.426 . S
C495 C494 1.382 . S
C495 C499 1.389 . S
C496 C494 1.426 . S
C496 C497 1.375 . S
C496 C500 1.532 . S
C497 H487 0.930 . S
C497 C496 1.375 . S
C497 C498 1.416 . S
C498 C497 1.416 . S
C498 C499 1.371 . S
C499 H488 0.930 . S
C499 C495 1.389 . S
C499 C498 1.371 . S
C500 H489 0.970 . S
C500 H490 0.970 . S
C500 C496 1.532 . S
C500 C501 1.499 . S
C501 C500 1.499 . S
C501 C502 1.370 . S
C501 C506 1.415 . S
C502 H491 0.930 . S
C502 C501 1.370 . S
C502 C503 1.407 . S
C503 C502 1.407 . S
C503 C504 1.365 . S
C504 H492 0.930 . S
C504 C503 1.365 . S
C504 C505 1.393 . S
C505 C504 1.393 . S
C505 C506 1.387 . S
C506 H493 0.930 . S
C506 C501 1.415 . S
C506 C505 1.387 . S
H507 C515 0.930 . S
H508 C518 0.930 . S
H509 C520 0.930 . S
H510 C521 0.970 . S
H511 C521 0.970 . S
H512 C523 0.930 . S
H513 C525 0.930 . S
H514 C527 0.930 . S
C515 H507 0.930 . S
C515 C516 1.382 . S
C515 C517 1.426 . S
C516 C515 1.382 . S
C516 C520 1.389 . S
C517 C515 1.426 . S
C517 C518 1.375 . S
C517 C521 1.532 . S
C518 H508 0.930 . S
C518 C517 1.375 . S
C518 C519 1.416 . S
C519 C518 1.416 . S
C519 C520 1.371 . S
C520 H509 0.930 . S
C520 C516 1.389 . S
C520 C519 1.371 . S
C521 H510 0.970 . S
C521 H511 0.970 . S
C521 C517 1.532 . S
C521 C522 1.499 . S
C522 C521 1.499 . S
C522 C523 1.370 . S
C522 C527 1.415 . S
C523 H512 0.930 . S
C523 C522 1.370 . S
C523 C524 1.407 . S
C524 C523 1.407 . S
C524 C525 1.365 . S
C525 H513 0.930 . S
C525 C524 1.365 . S
C525 C526 1.393 . S
C526 C525 1.393 . S
C526 C527 1.387 . S
C527 H514 0.930 . S
C527 C522 1.415 . S
C527 C526 1.387 . S
H528 C534 0.930 1_554 S
H529 C537 0.930 . S
H530 C538 0.930 . S
H531 C539 0.930 . S
H532 C542 0.930 . S
H533 C543 0.930 . S
C534 H528 0.930 1_556 S
C534 C535 1.355 . S
C534 C536 1.415 . S
C535 C534 1.355 . S
C535 C537 1.419 . S
C536 C534 1.415 . S
C536 C541 1.425 . S
C536 C543 1.409 . S
C537 H529 0.930 . S
C537 C535 1.419 . S
C537 C538 1.362 . S
C538 H530 0.930 . S
C538 C537 1.362 . S
C538 C541 1.409 . S
C539 H531 0.930 . S
C539 C540 1.355 . S
C539 C541 1.415 . S
C540 C539 1.355 . S
C540 C542 1.419 . S
C541 C536 1.425 . S
C541 C538 1.409 . S
C541 C539 1.415 . S
C542 H532 0.930 . S
C542 C540 1.419 . S
C542 C543 1.362 . S
C543 H533 0.930 . S
C543 C536 1.409 . S
C543 C542 1.362 . S
H544 C550 0.930 . S
H545 C553 0.930 . S
H546 C554 0.930 . S
H547 C555 0.930 . S
H548 C558 0.930 . S
H549 C559 0.930 . S
C550 H544 0.930 . S
C550 C551 1.355 . S
C550 C552 1.415 . S
C551 C550 1.355 . S
C551 C553 1.419 . S
C552 C550 1.415 . S
C552 C557 1.425 . S
C552 C559 1.409 . S
C553 H545 0.930 . S
C553 C551 1.419 . S
C553 C554 1.362 . S
C554 H546 0.930 . S
C554 C553 1.362 . S
C554 C557 1.409 . S
C555 H547 0.930 . S
C555 C556 1.355 . S
C555 C557 1.415 . S
C556 C555 1.355 . S
C556 C558 1.419 . S
C557 C552 1.425 . S
C557 C554 1.409 . S
C557 C555 1.415 . S
C558 H548 0.930 . S
C558 C556 1.419 . S
C558 C559 1.362 . S
C559 H549 0.930 . S
C559 C552 1.409 . S
C559 C558 1.362 . S
H560 C566 0.930 . S
H561 C569 0.930 . S
H562 C570 0.930 . S
H563 C571 0.930 . S
H564 C574 0.930 . S
H565 C575 0.930 . S
C566 H560 0.930 . S
C566 C567 1.355 . S
C566 C568 1.415 . S
C567 C566 1.355 . S
C567 C569 1.419 . S
C568 C566 1.415 . S
C568 C573 1.425 . S
C568 C575 1.409 . S
C569 H561 0.930 . S
C569 C567 1.419 . S
C569 C570 1.362 . S
C570 H562 0.930 . S
C570 C569 1.362 . S
C570 C573 1.409 . S
C571 H563 0.930 . S
C571 C572 1.355 . S
C571 C573 1.415 . S
C572 C571 1.355 . S
C572 C574 1.419 . S
C573 C568 1.425 . S
C573 C570 1.409 . S
C573 C571 1.415 . S
C574 H564 0.930 . S
C574 C572 1.419 . S
C574 C575 1.362 . S
C575 H565 0.930 . S
C575 C568 1.409 . S
C575 C574 1.362 . S
H576 C582 0.930 . S
H577 C585 0.930 . S
H578 C586 0.930 . S
H579 C587 0.930 . S
H580 C590 0.930 . S
H581 C591 0.930 . S
C582 H576 0.930 . S
C582 C583 1.355 . S
C582 C584 1.415 . S
C583 C582 1.355 . S
C583 C585 1.419 . S
C584 C582 1.415 . S
C584 C589 1.425 . S
C584 C591 1.409 . S
C585 H577 0.930 . S
C585 C583 1.419 . S
C585 C586 1.362 . S
C586 H578 0.930 . S
C586 C585 1.362 . S
C586 C589 1.409 . S
C587 H579 0.930 . S
C587 C588 1.355 . S
C587 C589 1.415 . S
C588 C587 1.355 . S
C588 C590 1.419 . S
C589 C584 1.425 . S
C589 C586 1.409 . S
C589 C587 1.415 . S
C590 H580 0.930 . S
C590 C588 1.419 . S
C590 C591 1.362 . S
C591 H581 0.930 . S
C591 C584 1.409 . S
C591 C590 1.362 . S
H592 C598 0.930 . S
H593 C601 0.930 1_655 S
H594 C602 0.930 1_655 S
H595 C603 0.930 . S
H596 C606 0.930 . S
H597 C607 0.930 . S
C598 H592 0.930 . S
C598 C599 1.355 . S
C598 C600 1.415 . S
C599 C598 1.355 . S
C599 C601 1.419 . S
C600 C598 1.415 . S
C600 C605 1.425 . S
C600 C607 1.409 . S
C601 H593 0.930 1_455 S
C601 C599 1.419 . S
C601 C602 1.362 . S
C602 H594 0.930 1_455 S
C602 C601 1.362 . S
C602 C605 1.409 . S
C603 H595 0.930 . S
C603 C604 1.355 . S
C603 C605 1.415 . S
C604 C603 1.355 . S
C604 C606 1.419 . S
C605 C600 1.425 . S
C605 C602 1.409 . S
C605 C603 1.415 . S
C606 H596 0.930 . S
C606 C604 1.419 . S
C606 C607 1.362 . S
C607 H597 0.930 . S
C607 C600 1.409 . S
C607 C606 1.362 . S
H608 C614 0.930 . S
H609 C617 0.930 . S
H610 C618 0.930 . S
H611 C619 0.930 . S
H612 C622 0.930 . S
H613 C623 0.930 . S
C614 H608 0.930 . S
C614 C615 1.355 . S
C614 C616 1.415 . S
C615 C614 1.355 . S
C615 C617 1.419 . S
C616 C614 1.415 . S
C616 C621 1.425 . S
C616 C623 1.409 . S
C617 H609 0.930 . S
C617 C615 1.419 . S
C617 C618 1.362 . S
C618 H610 0.930 . S
C618 C617 1.362 . S
C618 C621 1.409 . S
C619 H611 0.930 . S
C619 C620 1.355 . S
C619 C621 1.415 . S
C620 C619 1.355 . S
C620 C622 1.419 . S
C621 C616 1.425 . S
C621 C618 1.409 . S
C621 C619 1.415 . S
C622 H612 0.930 . S
C622 C620 1.419 . S
C622 C623 1.362 . S
C623 H613 0.930 . S
C623 C616 1.409 . S
C623 C622 1.362 . S
H624 C630 0.930 . S
H625 C633 0.930 . S
H626 C634 0.930 . S
H627 C635 0.930 . S
H628 C638 0.930 . S
H629 C639 0.930 . S
C630 H624 0.930 . S
C630 C631 1.355 . S
C630 C632 1.415 . S
C631 C630 1.355 . S
C631 C633 1.419 . S
C632 C630 1.415 . S
C632 C637 1.425 . S
C632 C639 1.409 . S
C633 H625 0.930 . S
C633 C631 1.419 . S
C633 C634 1.362 . S
C634 H626 0.930 . S
C634 C633 1.362 . S
C634 C637 1.409 . S
C635 H627 0.930 . S
C635 C636 1.355 . S
C635 C637 1.415 . S
C636 C635 1.355 . S
C636 C638 1.419 . S
C637 C632 1.425 . S
C637 C634 1.409 . S
C637 C635 1.415 . S
C638 H628 0.930 . S
C638 C636 1.419 . S
C638 C639 1.362 . S
C639 H629 0.930 . S
C639 C632 1.409 . S
C639 C638 1.362 . S
H640 C646 0.930 . S
H641 C649 0.930 . S
H642 C650 0.930 . S
H643 C651 0.930 . S
H644 C654 0.930 . S
H645 C655 0.930 . S
C646 H640 0.930 . S
C646 C647 1.355 . S
C646 C648 1.415 . S
C647 C646 1.355 . S
C647 C649 1.419 . S
C648 C646 1.415 . S
C648 C653 1.425 . S
C648 C655 1.409 . S
C649 H641 0.930 . S
C649 C647 1.419 . S
C649 C650 1.362 . S
C650 H642 0.930 . S
C650 C649 1.362 . S
C650 C653 1.409 . S
C651 H643 0.930 . S
C651 C652 1.355 . S
C651 C653 1.415 . S
C652 C651 1.355 . S
C652 C654 1.419 . S
C653 C648 1.425 . S
C653 C650 1.409 . S
C653 C651 1.415 . S
C654 H644 0.930 . S
C654 C652 1.419 . S
C654 C655 1.362 . S
C655 H645 0.930 . S
C655 C648 1.409 . S
C655 C654 1.362 . S
H656 C662 0.930 1_455 S
H657 C665 0.930 . S
H658 C666 0.930 . S
H659 C667 0.930 . S
H660 C670 0.930 . S
H661 C671 0.930 . S
C662 H656 0.930 1_655 S
C662 C663 1.355 . S
C662 C664 1.415 . S
C663 C662 1.355 . S
C663 C665 1.419 . S
C664 C662 1.415 . S
C664 C669 1.425 . S
C664 C671 1.409 . S
C665 H657 0.930 . S
C665 C663 1.419 . S
C665 C666 1.362 . S
C666 H658 0.930 . S
C666 C665 1.362 . S
C666 C669 1.409 . S
C667 H659 0.930 . S
C667 C668 1.355 . S
C667 C669 1.415 . S
C668 C667 1.355 . S
C668 C670 1.419 . S
C669 C664 1.425 . S
C669 C666 1.409 . S
C669 C667 1.415 . S
C670 H660 0.930 . S
C670 C668 1.419 . S
C670 C671 1.362 . S
C671 H661 0.930 . S
C671 C664 1.409 . S
C671 C670 1.362 . S
H672 C678 0.930 . S
H673 C681 0.930 . S
H674 C682 0.930 . S
H675 C683 0.930 . S
H676 C686 0.930 . S
H677 C687 0.930 . S
C678 H672 0.930 . S
C678 C679 1.355 . S
C678 C680 1.415 . S
C679 C678 1.355 . S
C679 C681 1.419 . S
C680 C678 1.415 . S
C680 C685 1.425 . S
C680 C687 1.409 . S
C681 H673 0.930 . S
C681 C679 1.419 . S
C681 C682 1.362 . S
C682 H674 0.930 . S
C682 C681 1.362 . S
C682 C685 1.409 . S
C683 H675 0.930 . S
C683 C684 1.355 . S
C683 C685 1.415 . S
C684 C683 1.355 . S
C684 C686 1.419 . S
C685 C680 1.425 . S
C685 C682 1.409 . S
C685 C683 1.415 . S
C686 H676 0.930 . S
C686 C684 1.419 . S
C686 C687 1.362 . S
C687 H677 0.930 . S
C687 C680 1.409 . S
C687 C686 1.362 . S
H688 C694 0.930 . S
H689 C697 0.930 . S
H690 C698 0.930 . S
H691 C699 0.930 . S
H692 C702 0.930 . S
H693 C703 0.930 . S
C694 H688 0.930 . S
C694 C695 1.355 . S
C694 C696 1.415 . S
C695 C694 1.355 . S
C695 C697 1.419 . S
C696 C694 1.415 . S
C696 C701 1.425 . S
C696 C703 1.409 . S
C697 H689 0.930 . S
C697 C695 1.419 . S
C697 C698 1.362 . S
C698 H690 0.930 . S
C698 C697 1.362 . S
C698 C701 1.409 . S
C699 H691 0.930 . S
C699 C700 1.355 . S
C699 C701 1.415 . S
C700 C699 1.355 . S
C700 C702 1.419 . S
C701 C696 1.425 . S
C701 C698 1.409 . S
C701 C699 1.415 . S
C702 H692 0.930 . S
C702 C700 1.419 . S
C702 C703 1.362 . S
C703 H693 0.930 . S
C703 C696 1.409 . S
C703 C702 1.362 . S
H704 C710 0.930 . S
H705 C713 0.930 . S
H706 C714 0.930 . S
H707 C715 0.930 . S
H708 C718 0.930 . S
H709 C719 0.930 . S
C710 H704 0.930 . S
C710 C711 1.355 . S
C710 C712 1.415 . S
C711 C710 1.355 . S
C711 C713 1.419 . S
C712 C710 1.415 . S
C712 C717 1.425 . S
C712 C719 1.409 . S
C713 H705 0.930 . S
C713 C711 1.419 . S
C713 C714 1.362 . S
C714 H706 0.930 . S
C714 C713 1.362 . S
C714 C717 1.409 . S
C715 H707 0.930 . S
C715 C716 1.355 . S
C715 C717 1.415 . S
C716 C715 1.355 . S
C716 C718 1.419 . S
C717 C712 1.425 . S
C717 C714 1.409 . S
C717 C715 1.415 . S
C718 H708 0.930 . S
C718 C716 1.419 . S
C718 C719 1.362 . S
C719 H709 0.930 . S
C719 C712 1.409 . S
C719 C718 1.362 . S
H720 C726 0.930 . S
H721 C729 0.930 . S
H722 C730 0.930 . S
H723 C731 0.930 . S
H724 C734 0.930 . S
H725 C735 0.930 . S
C726 H720 0.930 . S
C726 C727 1.355 1_655 S
C726 C728 1.415 . S
C727 C726 1.355 1_455 S
C727 C729 1.419 . S
C728 C726 1.415 . S
C728 C733 1.425 . S
C728 C735 1.409 . S
C729 H721 0.930 . S
C729 C727 1.419 . S
C729 C730 1.362 . S
C730 H722 0.930 . S
C730 C729 1.362 . S
C730 C733 1.409 1_455 S
C731 H723 0.930 . S
C731 C732 1.355 . S
C731 C733 1.415 . S
C732 C731 1.355 . S
C732 C734 1.419 . S
C733 C728 1.425 . S
C733 C730 1.409 1_655 S
C733 C731 1.415 . S
C734 H724 0.930 . S
C734 C732 1.419 . S
C734 C735 1.362 . S
C735 H725 0.930 . S
C735 C728 1.409 . S
C735 C734 1.362 . S
H736 C742 0.930 . S
H737 C745 0.930 . S
H738 C746 0.930 . S
H739 C747 0.930 . S
H740 C750 0.930 . S
H741 C751 0.930 . S
C742 H736 0.930 . S
C742 C743 1.355 . S
C742 C744 1.415 . S
C743 C742 1.355 . S
C743 C745 1.419 . S
C744 C742 1.415 . S
C744 C749 1.425 . S
C744 C751 1.409 . S
C745 H737 0.930 . S
C745 C743 1.419 . S
C745 C746 1.362 . S
C746 H738 0.930 . S
C746 C745 1.362 . S
C746 C749 1.409 . S
C747 H739 0.930 . S
C747 C748 1.355 . S
C747 C749 1.415 . S
C748 C747 1.355 . S
C748 C750 1.419 . S
C749 C744 1.425 . S
C749 C746 1.409 . S
C749 C747 1.415 . S
C750 H740 0.930 . S
C750 C748 1.419 . S
C750 C751 1.362 . S
C751 H741 0.930 . S
C751 C744 1.409 . S
C751 C750 1.362 . S
H752 C758 0.930 . S
H753 C761 0.930 . S
H754 C762 0.930 . S
H755 C763 0.930 . S
H756 C766 0.930 . S
H757 C767 0.930 . S
C758 H752 0.930 . S
C758 C759 1.355 . S
C758 C760 1.415 . S
C759 C758 1.355 . S
C759 C761 1.419 . S
C760 C758 1.415 . S
C760 C765 1.425 . S
C760 C767 1.409 . S
C761 H753 0.930 . S
C761 C759 1.419 . S
C761 C762 1.362 . S
C762 H754 0.930 . S
C762 C761 1.362 . S
C762 C765 1.409 . S
C763 H755 0.930 . S
C763 C764 1.355 . S
C763 C765 1.415 . S
C764 C763 1.355 . S
C764 C766 1.419 . S
C765 C760 1.425 . S
C765 C762 1.409 . S
C765 C763 1.415 . S
C766 H756 0.930 . S
C766 C764 1.419 . S
C766 C767 1.362 . S
C767 H757 0.930 . S
C767 C760 1.409 . S
C767 C766 1.362 . S
H768 C774 0.930 . S
H769 C777 0.930 . S
H770 C778 0.930 . S
H771 C779 0.930 . S
H772 C782 0.930 . S
H773 C783 0.930 . S
C774 H768 0.930 . S
C774 C775 1.355 . S
C774 C776 1.415 . S
C775 C774 1.355 . S
C775 C777 1.419 . S
C776 C774 1.415 . S
C776 C781 1.425 . S
C776 C783 1.409 . S
C777 H769 0.930 . S
C777 C775 1.419 . S
C777 C778 1.362 . S
C778 H770 0.930 . S
C778 C777 1.362 . S
C778 C781 1.409 . S
C779 H771 0.930 . S
C779 C780 1.355 . S
C779 C781 1.415 . S
C780 C779 1.355 . S
C780 C782 1.419 . S
C781 C776 1.425 . S
C781 C778 1.409 . S
C781 C779 1.415 . S
C782 H772 0.930 . S
C782 C780 1.419 . S
C782 C783 1.362 . S
C783 H773 0.930 . S
C783 C776 1.409 . S
C783 C782 1.362 . S
H784 C790 0.930 . S
H785 C793 0.930 . S
H786 C794 0.930 . S
H787 C795 0.930 . S
H788 C798 0.930 . S
H789 C799 0.930 1_545 S
C790 H784 0.930 . S
C790 C791 1.355 . S
C790 C792 1.415 1_545 S
C791 C790 1.355 . S
C791 C793 1.419 1_545 S
C792 C790 1.415 1_565 S
C792 C797 1.425 . S
C792 C799 1.409 . S
C793 H785 0.930 . S
C793 C791 1.419 1_565 S
C793 C794 1.362 . S
C794 H786 0.930 . S
C794 C793 1.362 . S
C794 C797 1.409 . S
C795 H787 0.930 . S
C795 C796 1.355 . S
C795 C797 1.415 . S
C796 C795 1.355 . S
C796 C798 1.419 . S
C797 C792 1.425 . S
C797 C794 1.409 . S
C797 C795 1.415 . S
C798 H788 0.930 . S
C798 C796 1.419 . S
C798 C799 1.362 . S
C799 H789 0.930 1_565 S
C799 C792 1.409 . S
C799 C798 1.362 . S
H800 C806 0.930 . S
H801 C809 0.930 1_554 S
H802 C810 0.930 1_554 S
H803 C811 0.930 . S
H804 C814 0.930 . S
H805 C815 0.930 . S
C806 H800 0.930 . S
C806 C807 1.355 . S
C806 C808 1.415 . S
C807 C806 1.355 . S
C807 C809 1.419 . S
C808 C806 1.415 . S
C808 C813 1.425 . S
C808 C815 1.409 . S
C809 H801 0.930 1_556 S
C809 C807 1.419 . S
C809 C810 1.362 . S
C810 H802 0.930 1_556 S
C810 C809 1.362 . S
C810 C813 1.409 . S
C811 H803 0.930 . S
C811 C812 1.355 . S
C811 C813 1.415 . S
C812 C811 1.355 . S
C812 C814 1.419 . S
C813 C808 1.425 . S
C813 C810 1.409 . S
C813 C811 1.415 . S
C814 H804 0.930 . S
C814 C812 1.419 . S
C814 C815 1.362 . S
C815 H805 0.930 . S
C815 C808 1.409 . S
C815 C814 1.362 . S
H816 C822 0.930 . S
H817 C825 0.930 . S
H818 C826 0.930 . S
H819 C827 0.930 . S
H820 C830 0.930 . S
H821 C831 0.930 . S
C822 H816 0.930 . S
C822 C823 1.355 . S
C822 C824 1.415 . S
C823 C822 1.355 . S
C823 C825 1.419 . S
C824 C822 1.415 . S
C824 C829 1.425 . S
C824 C831 1.409 . S
C825 H817 0.930 . S
C825 C823 1.419 . S
C825 C826 1.362 . S
C826 H818 0.930 . S
C826 C825 1.362 . S
C826 C829 1.409 . S
C827 H819 0.930 . S
C827 C828 1.355 . S
C827 C829 1.415 . S
C828 C827 1.355 . S
C828 C830 1.419 . S
C829 C824 1.425 . S
C829 C826 1.409 . S
C829 C827 1.415 . S
C830 H820 0.930 . S
C830 C828 1.419 . S
C830 C831 1.362 . S
C831 H821 0.930 . S
C831 C824 1.409 . S
C831 C830 1.362 . S
H832 C838 0.930 . S
H833 C841 0.930 . S
H834 C842 0.930 . S
H835 C843 0.930 . S
H836 C846 0.930 . S
H837 C847 0.930 . S
C838 H832 0.930 . S
C838 C839 1.355 . S
C838 C840 1.415 . S
C839 C838 1.355 . S
C839 C841 1.419 . S
C840 C838 1.415 . S
C840 C845 1.425 . S
C840 C847 1.409 . S
C841 H833 0.930 . S
C841 C839 1.419 . S
C841 C842 1.362 . S
C842 H834 0.930 . S
C842 C841 1.362 . S
C842 C845 1.409 . S
C843 H835 0.930 . S
C843 C844 1.355 . S
C843 C845 1.415 . S
C844 C843 1.355 . S
C844 C846 1.419 . S
C845 C840 1.425 . S
C845 C842 1.409 . S
C845 C843 1.415 . S
C846 H836 0.930 . S
C846 C844 1.419 . S
C846 C847 1.362 . S
C847 H837 0.930 . S
C847 C840 1.409 . S
C847 C846 1.362 . S
H848 C854 0.930 . S
H849 C857 0.930 . S
H850 C858 0.930 . S
H851 C859 0.930 . S
H852 C862 0.930 . S
H853 C863 0.930 . S
C854 H848 0.930 . S
C854 C855 1.355 . S
C854 C856 1.415 . S
C855 C854 1.355 . S
C855 C857 1.419 . S
C856 C854 1.415 . S
C856 C861 1.425 . S
C856 C863 1.409 . S
C857 H849 0.930 . S
C857 C855 1.419 . S
C857 C858 1.362 . S
C858 H850 0.930 . S
C858 C857 1.362 . S
C858 C861 1.409 . S
C859 H851 0.930 . S
C859 C860 1.355 . S
C859 C861 1.415 . S
C860 C859 1.355 . S
C860 C862 1.419 . S
C861 C856 1.425 . S
C861 C858 1.409 . S
C861 C859 1.415 . S
C862 H852 0.930 . S
C862 C860 1.419 . S
C862 C863 1.362 . S
C863 H853 0.930 . S
C863 C856 1.409 . S
C863 C862 1.362 . S
H864 C870 0.930 . S
H865 C873 0.930 . S
H866 C874 0.930 . S
H867 C875 0.930 . S
H868 C878 0.930 . S
H869 C879 0.930 . S
C870 H864 0.930 . S
C870 C871 1.355 . S
C870 C872 1.415 . S
C871 C870 1.355 . S
C871 C873 1.419 . S
C872 C870 1.415 . S
C872 C877 1.425 . S
C872 C879 1.409 . S
C873 H865 0.930 . S
C873 C871 1.419 . S
C873 C874 1.362 . S
C874 H866 0.930 . S
C874 C873 1.362 . S
C874 C877 1.409 . S
C875 H867 0.930 . S
C875 C876 1.355 . S
C875 C877 1.415 . S
C876 C875 1.355 . S
C876 C878 1.419 . S
C877 C872 1.425 . S
C877 C874 1.409 . S
C877 C875 1.415 . S
C878 H868 0.930 . S
C878 C876 1.419 . S
C878 C879 1.362 . S
C879 H869 0.930 . S
C879 C872 1.409 . S
C879 C878 1.362 . S
H880 C886 0.930 . S
H881 C889 0.930 . S
H882 C890 0.930 . S
H883 C891 0.930 . S
H884 C894 0.930 . S
H885 C895 0.930 . S
C886 H880 0.930 . S
C886 C887 1.355 . S
C886 C888 1.415 . S
C887 C886 1.355 . S
C887 C889 1.419 . S
C888 C886 1.415 . S
C888 C893 1.425 . S
C888 C895 1.409 . S
C889 H881 0.930 . S
C889 C887 1.419 . S
C889 C890 1.362 . S
C890 H882 0.930 . S
C890 C889 1.362 . S
C890 C893 1.409 . S
C891 H883 0.930 . S
C891 C892 1.355 . S
C891 C893 1.415 . S
C892 C891 1.355 . S
C892 C894 1.419 . S
C893 C888 1.425 . S
C893 C890 1.409 . S
C893 C891 1.415 . S
C894 H884 0.930 . S
C894 C892 1.419 . S
C894 C895 1.362 . S
C895 H885 0.930 . S
C895 C888 1.409 . S
C895 C894 1.362 . S
H896 C902 0.930 . S
H897 C905 0.930 . S
H898 C906 0.930 . S
H899 C907 0.930 . S
H900 C910 0.930 . S
H901 C911 0.930 . S
C902 H896 0.930 . S
C902 C903 1.355 . S
C902 C904 1.415 . S
C903 C902 1.355 . S
C903 C905 1.419 . S
C904 C902 1.415 . S
C904 C909 1.425 . S
C904 C911 1.409 . S
C905 H897 0.930 . S
C905 C903 1.419 . S
C905 C906 1.362 . S
C906 H898 0.930 . S
C906 C905 1.362 . S
C906 C909 1.409 . S
C907 H899 0.930 . S
C907 C908 1.355 . S
C907 C909 1.415 . S
C908 C907 1.355 . S
C908 C910 1.419 . S
C909 C904 1.425 . S
C909 C906 1.409 . S
C909 C907 1.415 . S
C910 H900 0.930 . S
C910 C908 1.419 . S
C910 C911 1.362 . S
C911 H901 0.930 . S
C911 C904 1.409 . S
C911 C910 1.362 . S
H912 C918 0.930 . S
H913 C921 0.930 . S
H914 C922 0.930 . S
H915 C923 0.930 . S
H916 C926 0.930 . S
H917 C927 0.930 . S
C918 H912 0.930 . S
C918 C919 1.355 . S
C918 C920 1.415 . S
C919 C918 1.355 . S
C919 C921 1.419 . S
C920 C918 1.415 . S
C920 C925 1.425 . S
C920 C927 1.409 . S
C921 H913 0.930 . S
C921 C919 1.419 . S
C921 C922 1.362 . S
C922 H914 0.930 . S
C922 C921 1.362 . S
C922 C925 1.409 . S
C923 H915 0.930 . S
C923 C924 1.355 . S
C923 C925 1.415 . S
C924 C923 1.355 . S
C924 C926 1.419 . S
C925 C920 1.425 . S
C925 C922 1.409 . S
C925 C923 1.415 . S
C926 H916 0.930 . S
C926 C924 1.419 . S
C926 C927 1.362 . S
C927 H917 0.930 . S
C927 C920 1.409 . S
C927 C926 1.362 . S
H928 C934 0.930 . S
H929 C937 0.930 . S
H930 C938 0.930 . S
H931 C939 0.930 . S
H932 C942 0.930 . S
H933 C943 0.930 . S
C934 H928 0.930 . S
C934 C935 1.355 . S
C934 C936 1.415 . S
C935 C934 1.355 . S
C935 C937 1.419 . S
C936 C934 1.415 . S
C936 C941 1.425 . S
C936 C943 1.409 . S
C937 H929 0.930 . S
C937 C935 1.419 . S
C937 C938 1.362 . S
C938 H930 0.930 . S
C938 C937 1.362 . S
C938 C941 1.409 . S
C939 H931 0.930 . S
C939 C940 1.355 . S
C939 C941 1.415 . S
C940 C939 1.355 . S
C940 C942 1.419 . S
C941 C936 1.425 . S
C941 C938 1.409 . S
C941 C939 1.415 . S
C942 H932 0.930 . S
C942 C940 1.419 . S
C942 C943 1.362 . S
C943 H933 0.930 . S
C943 C936 1.409 . S
C943 C942 1.362 . S
H944 C950 0.930 . S
H945 C953 0.930 . S
H946 C954 0.930 . S
H947 C955 0.930 . S
H948 C958 0.930 . S
H949 C959 0.930 . S
C950 H944 0.930 . S
C950 C951 1.355 1_556 S
C950 C952 1.415 . S
C951 C950 1.355 1_554 S
C951 C953 1.419 . S
C952 C950 1.415 . S
C952 C957 1.425 . S
C952 C959 1.409 . S
C953 H945 0.930 . S
C953 C951 1.419 . S
C953 C954 1.362 . S
C954 H946 0.930 . S
C954 C953 1.362 . S
C954 C957 1.409 1_554 S
C955 H947 0.930 . S
C955 C956 1.355 . S
C955 C957 1.415 . S
C956 C955 1.355 . S
C956 C958 1.419 . S
C957 C952 1.425 . S
C957 C954 1.409 1_556 S
C957 C955 1.415 . S
C958 H948 0.930 . S
C958 C956 1.419 . S
C958 C959 1.362 . S
C959 H949 0.930 . S
C959 C952 1.409 . S
C959 C958 1.362 . S
H960 C966 0.930 . S
H961 C969 0.930 . S
H962 C970 0.930 . S
H963 C971 0.930 . S
H964 C974 0.930 . S
H965 C975 0.930 . S
C966 H960 0.930 . S
C966 C967 1.355 . S
C966 C968 1.415 . S
C967 C966 1.355 . S
C967 C969 1.419 . S
C968 C966 1.415 . S
C968 C973 1.425 . S
C968 C975 1.409 . S
C969 H961 0.930 . S
C969 C967 1.419 . S
C969 C970 1.362 . S
C970 H962 0.930 . S
C970 C969 1.362 . S
C970 C973 1.409 . S
C971 H963 0.930 . S
C971 C972 1.355 . S
C971 C973 1.415 . S
C972 C971 1.355 . S
C972 C974 1.419 . S
C973 C968 1.425 . S
C973 C970 1.409 . S
C973 C971 1.415 . S
C974 H964 0.930 . S
C974 C972 1.419 . S
C974 C975 1.362 . S
C975 H965 0.930 . S
C975 C968 1.409 . S
C975 C974 1.362 . S
H976 C982 0.930 . S
H977 C985 0.930 . S
H978 C986 0.930 . S
H979 C987 0.930 . S
H980 C990 0.930 . S
H981 C991 0.930 . S
C982 H976 0.930 . S
C982 C983 1.355 . S
C982 C984 1.415 . S
C983 C982 1.355 . S
C983 C985 1.419 . S
C984 C982 1.415 . S
C984 C989 1.425 . S
C984 C991 1.409 . S
C985 H977 0.930 . S
C985 C983 1.419 . S
C985 C986 1.362 . S
C986 H978 0.930 . S
C986 C985 1.362 . S
C986 C989 1.409 . S
C987 H979 0.930 . S
C987 C988 1.355 . S
C987 C989 1.415 . S
C988 C987 1.355 . S
C988 C990 1.419 . S
C989 C984 1.425 . S
C989 C986 1.409 . S
C989 C987 1.415 . S
C990 H980 0.930 . S
C990 C988 1.419 . S
C990 C991 1.362 . S
C991 H981 0.930 . S
C991 C984 1.409 . S
C991 C990 1.362 . S
H992 C998 0.930 . S
H993 C1001 0.930 . S
H994 C1002 0.930 . S
H995 C1003 0.930 . S
H996 C1006 0.930 . S
H997 C1007 0.930 . S
C998 H992 0.930 . S
C998 C999 1.355 . S
C998 C1000 1.415 . S
C999 C998 1.355 . S
C999 C1001 1.419 . S
C1000 C998 1.415 . S
C1000 C1005 1.425 . S
C1000 C1007 1.409 . S
C1001 H993 0.930 . S
C1001 C999 1.419 . S
C1001 C1002 1.362 . S
C1002 H994 0.930 . S
C1002 C1001 1.362 . S
C1002 C1005 1.409 . S
C1003 H995 0.930 . S
C1003 C1004 1.355 . S
C1003 C1005 1.415 . S
C1004 C1003 1.355 . S
C1004 C1006 1.419 . S
C1005 C1000 1.425 . S
C1005 C1002 1.409 . S
C1005 C1003 1.415 . S
C1006 H996 0.930 . S
C1006 C1004 1.419 . S
C1006 C1007 1.362 . S
C1007 H997 0.930 . S
C1007 C1000 1.409 . S
C1007 C1006 1.362 . S
H1008 C1014 0.932 . S
H1009 C1017 0.930 . S
H1010 C1018 0.930 . S
H1011 C1019 0.930 . S
H1012 C1022 0.929 1_445 S
H1013 C1023 0.930 1_455 S
C1014 H1008 0.932 . S
C1014 C1015 1.355 . S
C1014 C1016 1.415 . S
C1015 C1014 1.355 . S
C1015 C1017 1.419 . S
C1016 C1014 1.415 . S
C1016 C1021 1.425 . S
C1016 C1023 1.409 . S
C1017 H1009 0.930 . S
C1017 C1015 1.419 . S
C1017 C1018 1.362 . S
C1018 H1010 0.930 . S
C1018 C1017 1.362 . S
C1018 C1021 1.409 . S
C1019 H1011 0.930 . S
C1019 C1020 1.355 . S
C1019 C1021 1.415 . S
C1020 C1019 1.355 . S
C1020 C1022 1.419 . S
C1021 C1016 1.425 . S
C1021 C1018 1.409 . S
C1021 C1019 1.415 . S
C1022 H1012 0.929 1_665 S
C1022 C1020 1.419 . S
C1022 C1023 1.362 . S
C1023 H1013 0.930 1_655 S
C1023 C1016 1.409 . S
C1023 C1022 1.362 . S
H1024 C1030 0.930 . S
H1025 C1033 0.930 . S
H1026 C1034 0.930 . S
H1027 C1035 0.930 . S
H1028 C1038 0.930 . S
H1029 C1039 0.930 . S
C1030 H1024 0.930 . S
C1030 C1031 1.355 . S
C1030 C1032 1.415 . S
C1031 C1030 1.355 . S
C1031 C1033 1.419 . S
C1032 C1030 1.415 . S
C1032 C1037 1.425 . S
C1032 C1039 1.409 . S
C1033 H1025 0.930 . S
C1033 C1031 1.419 . S
C1033 C1034 1.362 . S
C1034 H1026 0.930 . S
C1034 C1033 1.362 . S
C1034 C1037 1.409 . S
C1035 H1027 0.930 . S
C1035 C1036 1.355 . S
C1035 C1037 1.415 . S
C1036 C1035 1.355 . S
C1036 C1038 1.419 . S
C1037 C1032 1.425 . S
C1037 C1034 1.409 . S
C1037 C1035 1.415 . S
C1038 H1028 0.930 . S
C1038 C1036 1.419 . S
C1038 C1039 1.362 . S
C1039 H1029 0.930 . S
C1039 C1032 1.409 . S
C1039 C1038 1.362 . S
H1040 C1046 0.930 . S
H1041 C1049 0.930 . S
H1042 C1050 0.930 . S
H1043 C1051 0.930 . S
H1044 C1054 0.930 . S
H1045 C1055 0.930 . S
C1046 H1040 0.930 . S
C1046 C1047 1.355 . S
C1046 C1048 1.415 . S
C1047 C1046 1.355 . S
C1047 C1049 1.419 . S
C1048 C1046 1.415 . S
C1048 C1053 1.425 . S
C1048 C1055 1.409 . S
C1049 H1041 0.930 . S
C1049 C1047 1.419 . S
C1049 C1050 1.362 . S
C1050 H1042 0.930 . S
C1050 C1049 1.362 . S
C1050 C1053 1.409 . S
C1051 H1043 0.930 . S
C1051 C1052 1.355 . S
C1051 C1053 1.415 . S
C1052 C1051 1.355 . S
C1052 C1054 1.419 . S
C1053 C1048 1.425 . S
C1053 C1050 1.409 . S
C1053 C1051 1.415 . S
C1054 H1044 0.930 . S
C1054 C1052 1.419 . S
C1054 C1055 1.362 . S
C1055 H1045 0.930 . S
C1055 C1048 1.409 . S
C1055 C1054 1.362 . S
H1056 C1062 0.930 . S
H1057 C1065 0.930 . S
H1058 C1066 0.930 . S
H1059 C1067 0.930 . S
H1060 C1070 0.930 . S
H1061 C1071 0.930 . S
C1062 H1056 0.930 . S
C1062 C1063 1.355 . S
C1062 C1064 1.415 . S
C1063 C1062 1.355 . S
C1063 C1065 1.419 . S
C1064 C1062 1.415 . S
C1064 C1069 1.425 . S
C1064 C1071 1.409 . S
C1065 H1057 0.930 . S
C1065 C1063 1.419 . S
C1065 C1066 1.362 . S
C1066 H1058 0.930 . S
C1066 C1065 1.362 . S
C1066 C1069 1.409 . S
C1067 H1059 0.930 . S
C1067 C1068 1.355 . S
C1067 C1069 1.415 . S
C1068 C1067 1.355 . S
C1068 C1070 1.419 . S
C1069 C1064 1.425 . S
C1069 C1066 1.409 . S
C1069 C1067 1.415 . S
C1070 H1060 0.930 . S
C1070 C1068 1.419 . S
C1070 C1071 1.362 . S
C1071 H1061 0.930 . S
C1071 C1064 1.409 . S
C1071 C1070 1.362 . S
H1072 C1078 0.930 . S
H1073 C1081 0.930 1_655 S
H1074 C1082 0.930 . S
H1075 C1083 0.930 . S
H1076 C1086 0.930 . S
H1077 C1087 0.930 . S
C1078 H1072 0.930 . S
C1078 C1079 1.355 . S
C1078 C1080 1.415 . S
C1079 C1078 1.355 . S
C1079 C1081 1.419 . S
C1080 C1078 1.415 . S
C1080 C1085 1.425 . S
C1080 C1087 1.409 . S
C1081 H1073 0.930 1_455 S
C1081 C1079 1.419 . S
C1081 C1082 1.362 . S
C1082 H1074 0.930 . S
C1082 C1081 1.362 . S
C1082 C1085 1.409 . S
C1083 H1075 0.930 . S
C1083 C1084 1.355 . S
C1083 C1085 1.415 . S
C1084 C1083 1.355 . S
C1084 C1086 1.419 . S
C1085 C1080 1.425 . S
C1085 C1082 1.409 . S
C1085 C1083 1.415 . S
C1086 H1076 0.930 . S
C1086 C1084 1.419 . S
C1086 C1087 1.362 . S
C1087 H1077 0.930 . S
C1087 C1080 1.409 . S
C1087 C1086 1.362 . S
H1088 C1094 0.930 . S
H1089 C1097 0.930 . S
H1090 C1098 0.930 . S
H1091 C1099 0.930 . S
H1092 C1102 0.930 . S
H1093 C1103 0.930 . S
C1094 H1088 0.930 . S
C1094 C1095 1.355 . S
C1094 C1096 1.415 . S
C1095 C1094 1.355 . S
C1095 C1097 1.419 . S
C1096 C1094 1.415 . S
C1096 C1101 1.425 . S
C1096 C1103 1.409 . S
C1097 H1089 0.930 . S
C1097 C1095 1.419 . S
C1097 C1098 1.362 . S
C1098 H1090 0.930 . S
C1098 C1097 1.362 . S
C1098 C1101 1.409 . S
C1099 H1091 0.930 . S
C1099 C1100 1.355 . S
C1099 C1101 1.415 . S
C1100 C1099 1.355 . S
C1100 C1102 1.419 . S
C1101 C1096 1.425 . S
C1101 C1098 1.409 . S
C1101 C1099 1.415 . S
C1102 H1092 0.930 . S
C1102 C1100 1.419 . S
C1102 C1103 1.362 . S
C1103 H1093 0.930 . S
C1103 C1096 1.409 . S
C1103 C1102 1.362 . S
H1104 C1110 0.930 . S
H1105 C1113 0.930 . S
H1106 C1114 0.930 . S
H1107 C1115 0.930 . S
H1108 C1118 0.930 . S
H1109 C1119 0.930 . S
C1110 H1104 0.930 . S
C1110 C1111 1.355 . S
C1110 C1112 1.415 . S
C1111 C1110 1.355 . S
C1111 C1113 1.419 . S
C1112 C1110 1.415 . S
C1112 C1117 1.425 . S
C1112 C1119 1.409 . S
C1113 H1105 0.930 . S
C1113 C1111 1.419 . S
C1113 C1114 1.362 . S
C1114 H1106 0.930 . S
C1114 C1113 1.362 . S
C1114 C1117 1.409 . S
C1115 H1107 0.930 . S
C1115 C1116 1.355 . S
C1115 C1117 1.415 . S
C1116 C1115 1.355 . S
C1116 C1118 1.419 . S
C1117 C1112 1.425 . S
C1117 C1114 1.409 . S
C1117 C1115 1.415 . S
C1118 H1108 0.930 . S
C1118 C1116 1.419 . S
C1118 C1119 1.362 . S
C1119 H1109 0.930 . S
C1119 C1112 1.409 . S
C1119 C1118 1.362 . S
H1120 C1126 0.930 . S
H1121 C1129 0.930 . S
H1122 C1130 0.930 . S
H1123 C1131 0.930 . S
H1124 C1134 0.930 . S
H1125 C1135 0.930 . S
C1126 H1120 0.930 . S
C1126 C1127 1.355 . S
C1126 C1128 1.415 . S
C1127 C1126 1.355 . S
C1127 C1129 1.419 . S
C1128 C1126 1.415 . S
C1128 C1133 1.425 . S
C1128 C1135 1.409 . S
C1129 H1121 0.930 . S
C1129 C1127 1.419 . S
C1129 C1130 1.362 . S
C1130 H1122 0.930 . S
C1130 C1129 1.362 . S
C1130 C1133 1.409 . S
C1131 H1123 0.930 . S
C1131 C1132 1.355 . S
C1131 C1133 1.415 . S
C1132 C1131 1.355 . S
C1132 C1134 1.419 . S
C1133 C1128 1.425 . S
C1133 C1130 1.409 . S
C1133 C1131 1.415 . S
C1134 H1124 0.930 . S
C1134 C1132 1.419 . S
C1134 C1135 1.362 . S
C1135 H1125 0.930 . S
C1135 C1128 1.409 . S
C1135 C1134 1.362 . S
H1136 C1142 0.930 . S
H1137 C1145 0.930 1_655 S
H1138 C1146 0.930 . S
H1139 C1147 0.930 . S
H1140 C1150 0.930 . S
H1141 C1151 0.930 . S
C1142 H1136 0.930 . S
C1142 C1143 1.355 . S
C1142 C1144 1.415 . S
C1143 C1142 1.355 . S
C1143 C1145 1.419 . S
C1144 C1142 1.415 . S
C1144 C1149 1.425 . S
C1144 C1151 1.409 . S
C1145 H1137 0.930 1_455 S
C1145 C1143 1.419 . S
C1145 C1146 1.362 . S
C1146 H1138 0.930 . S
C1146 C1145 1.362 . S
C1146 C1149 1.409 . S
C1147 H1139 0.930 . S
C1147 C1148 1.355 . S
C1147 C1149 1.415 . S
C1148 C1147 1.355 . S
C1148 C1150 1.419 . S
C1149 C1144 1.425 . S
C1149 C1146 1.409 . S
C1149 C1147 1.415 . S
C1150 H1140 0.930 . S
C1150 C1148 1.419 . S
C1150 C1151 1.362 . S
C1151 H1141 0.930 . S
C1151 C1144 1.409 . S
C1151 C1150 1.362 . S
H1152 C1158 0.930 . S
H1153 C1161 0.930 . S
H1154 C1162 0.930 . S
H1155 C1163 0.930 . S
H1156 C1166 0.930 . S
H1157 C1167 0.930 . S
C1158 H1152 0.930 . S
C1158 C1159 1.355 . S
C1158 C1160 1.415 . S
C1159 C1158 1.355 . S
C1159 C1161 1.419 . S
C1160 C1158 1.415 . S
C1160 C1165 1.425 . S
C1160 C1167 1.409 . S
C1161 H1153 0.930 . S
C1161 C1159 1.419 . S
C1161 C1162 1.362 . S
C1162 H1154 0.930 . S
C1162 C1161 1.362 . S
C1162 C1165 1.409 . S
C1163 H1155 0.930 . S
C1163 C1164 1.355 . S
C1163 C1165 1.415 . S
C1164 C1163 1.355 . S
C1164 C1166 1.419 . S
C1165 C1160 1.425 . S
C1165 C1162 1.409 . S
C1165 C1163 1.415 . S
C1166 H1156 0.930 . S
C1166 C1164 1.419 . S
C1166 C1167 1.362 . S
C1167 H1157 0.930 . S
C1167 C1160 1.409 . S
C1167 C1166 1.362 . S
H1168 C1174 0.930 . S
H1169 C1177 0.930 . S
H1170 C1178 0.930 . S
H1171 C1179 0.930 . S
H1172 C1182 0.930 . S
H1173 C1183 0.930 . S
C1174 H1168 0.930 . S
C1174 C1175 1.355 . S
C1174 C1176 1.415 . S
C1175 C1174 1.355 . S
C1175 C1177 1.419 . S
C1176 C1174 1.415 . S
C1176 C1181 1.425 . S
C1176 C1183 1.409 . S
C1177 H1169 0.930 . S
C1177 C1175 1.419 . S
C1177 C1178 1.362 . S
C1178 H1170 0.930 . S
C1178 C1177 1.362 . S
C1178 C1181 1.409 . S
C1179 H1171 0.930 . S
C1179 C1180 1.355 . S
C1179 C1181 1.415 . S
C1180 C1179 1.355 . S
C1180 C1182 1.419 . S
C1181 C1176 1.425 . S
C1181 C1178 1.409 . S
C1181 C1179 1.415 . S
C1182 H1172 0.930 . S
C1182 C1180 1.419 . S
C1182 C1183 1.362 . S
C1183 H1173 0.930 . S
C1183 C1176 1.409 . S
C1183 C1182 1.362 . S
H1184 C1190 0.930 . S
H1185 C1193 0.930 . S
H1186 C1194 0.930 . S
H1187 C1195 0.930 . S
H1188 C1198 0.930 . S
H1189 C1199 0.930 . S
C1190 H1184 0.930 . S
C1190 C1191 1.355 . S
C1190 C1192 1.415 . S
C1191 C1190 1.355 . S
C1191 C1193 1.419 . S
C1192 C1190 1.415 . S
C1192 C1197 1.425 . S
C1192 C1199 1.409 . S
C1193 H1185 0.930 . S
C1193 C1191 1.419 . S
C1193 C1194 1.362 . S
C1194 H1186 0.930 . S
C1194 C1193 1.362 . S
C1194 C1197 1.409 . S
C1195 H1187 0.930 . S
C1195 C1196 1.355 . S
C1195 C1197 1.415 . S
C1196 C1195 1.355 . S
C1196 C1198 1.419 . S
C1197 C1192 1.425 . S
C1197 C1194 1.409 . S
C1197 C1195 1.415 . S
C1198 H1188 0.930 . S
C1198 C1196 1.419 . S
C1198 C1199 1.362 . S
C1199 H1189 0.930 . S
C1199 C1192 1.409 . S
C1199 C1198 1.362 . S
H1200 C1206 0.930 . S
H1201 C1209 0.930 . S
H1202 C1210 0.930 . S
H1203 C1211 0.930 . S
H1204 C1214 0.930 . S
H1205 C1215 0.930 . S
C1206 H1200 0.930 . S
C1206 C1207 1.355 . S
C1206 C1208 1.415 . S
C1207 C1206 1.355 . S
C1207 C1209 1.419 . S
C1208 C1206 1.415 . S
C1208 C1213 1.425 . S
C1208 C1215 1.409 . S
C1209 H1201 0.930 . S
C1209 C1207 1.419 . S
C1209 C1210 1.362 . S
C1210 H1202 0.930 . S
C1210 C1209 1.362 . S
C1210 C1213 1.409 . S
C1211 H1203 0.930 . S
C1211 C1212 1.355 . S
C1211 C1213 1.415 . S
C1212 C1211 1.355 . S
C1212 C1214 1.419 . S
C1213 C1208 1.425 . S
C1213 C1210 1.409 . S
C1213 C1211 1.415 . S
C1214 H1204 0.930 . S
C1214 C1212 1.419 . S
C1214 C1215 1.362 . S
C1215 H1205 0.930 . S
C1215 C1208 1.409 . S
C1215 C1214 1.362 . S
H1216 C1222 0.930 . S
H1217 C1225 0.923 1_554 S
H1218 C1226 0.930 1_554 S
H1219 C1227 0.930 . S
H1220 C1230 0.930 . S
H1221 C1231 0.930 . S
C1222 H1216 0.930 . S
C1222 C1223 1.355 . S
C1222 C1224 1.415 1_545 S
C1223 C1222 1.355 . S
C1223 C1225 1.419 . S
C1224 C1222 1.415 1_565 S
C1224 C1229 1.425 . S
C1224 C1231 1.409 . S
C1225 H1217 0.923 1_556 S
C1225 C1223 1.419 . S
C1225 C1226 1.362 . S
C1226 H1218 0.930 1_556 S
C1226 C1225 1.362 . S
C1226 C1229 1.409 1_545 S
C1227 H1219 0.930 . S
C1227 C1228 1.355 . S
C1227 C1229 1.415 . S
C1228 C1227 1.355 . S
C1228 C1230 1.419 . S
C1229 C1224 1.425 . S
C1229 C1226 1.409 1_565 S
C1229 C1227 1.415 . S
C1230 H1220 0.930 . S
C1230 C1228 1.419 . S
C1230 C1231 1.362 . S
C1231 H1221 0.930 . S
C1231 C1224 1.409 . S
C1231 C1230 1.362 . S
H1232 C1238 0.930 . S
H1233 C1241 0.930 . S
H1234 C1242 0.930 . S
H1235 C1243 0.930 . S
H1236 C1246 0.930 . S
H1237 C1247 0.930 . S
C1238 H1232 0.930 . S
C1238 C1239 1.355 . S
C1238 C1240 1.415 . S
C1239 C1238 1.355 . S
C1239 C1241 1.419 . S
C1240 C1238 1.415 . S
C1240 C1245 1.425 . S
C1240 C1247 1.409 . S
C1241 H1233 0.930 . S
C1241 C1239 1.419 . S
C1241 C1242 1.362 . S
C1242 H1234 0.930 . S
C1242 C1241 1.362 . S
C1242 C1245 1.409 . S
C1243 H1235 0.930 . S
C1243 C1244 1.355 . S
C1243 C1245 1.415 . S
C1244 C1243 1.355 . S
C1244 C1246 1.419 . S
C1245 C1240 1.425 . S
C1245 C1242 1.409 . S
C1245 C1243 1.415 . S
C1246 H1236 0.930 . S
C1246 C1244 1.419 . S
C1246 C1247 1.362 . S
C1247 H1237 0.930 . S
C1247 C1240 1.409 . S
C1247 C1246 1.362 . S
H1248 C1254 0.930 . S
H1249 C1257 0.930 . S
H1250 C1258 0.930 . S
H1251 C1259 0.930 . S
H1252 C1262 0.930 . S
H1253 C1263 0.930 . S
C1254 H1248 0.930 . S
C1254 C1255 1.355 . S
C1254 C1256 1.415 . S
C1255 C1254 1.355 . S
C1255 C1257 1.419 . S
C1256 C1254 1.415 . S
C1256 C1261 1.425 . S
C1256 C1263 1.409 . S
C1257 H1249 0.930 . S
C1257 C1255 1.419 . S
C1257 C1258 1.362 . S
C1258 H1250 0.930 . S
C1258 C1257 1.362 . S
C1258 C1261 1.409 . S
C1259 H1251 0.930 . S
C1259 C1260 1.355 . S
C1259 C1261 1.415 . S
C1260 C1259 1.355 . S
C1260 C1262 1.419 . S
C1261 C1256 1.425 . S
C1261 C1258 1.409 . S
C1261 C1259 1.415 . S
C1262 H1252 0.930 . S
C1262 C1260 1.419 . S
C1262 C1263 1.362 . S
C1263 H1253 0.930 . S
C1263 C1256 1.409 . S
C1263 C1262 1.362 . S
H1264 C1270 0.930 . S
H1265 C1273 0.930 . S
H1266 C1274 0.930 . S
H1267 C1275 0.930 . S
H1268 C1278 0.930 . S
H1269 C1279 0.930 . S
C1270 H1264 0.930 . S
C1270 C1271 1.355 . S
C1270 C1272 1.415 . S
C1271 C1270 1.355 . S
C1271 C1273 1.419 . S
C1272 C1270 1.415 . S
C1272 C1277 1.425 . S
C1272 C1279 1.409 . S
C1273 H1265 0.930 . S
C1273 C1271 1.419 . S
C1273 C1274 1.362 . S
C1274 H1266 0.930 . S
C1274 C1273 1.362 . S
C1274 C1277 1.409 . S
C1275 H1267 0.930 . S
C1275 C1276 1.355 . S
C1275 C1277 1.415 . S
C1276 C1275 1.355 . S
C1276 C1278 1.419 . S
C1277 C1272 1.425 . S
C1277 C1274 1.409 . S
C1277 C1275 1.415 . S
C1278 H1268 0.930 . S
C1278 C1276 1.419 . S
C1278 C1279 1.362 . S
C1279 H1269 0.930 . S
C1279 C1272 1.409 . S
C1279 C1278 1.362 . S
H1280 C1286 0.930 . S
H1281 C1289 0.930 . S
H1282 C1290 0.930 . S
H1283 C1291 0.930 . S
H1284 C1294 0.930 . S
H1285 C1295 0.930 . S
C1286 H1280 0.930 . S
C1286 C1287 1.355 . S
C1286 C1288 1.415 . S
C1287 C1286 1.355 . S
C1287 C1289 1.419 . S
C1288 C1286 1.415 . S
C1288 C1293 1.425 . S
C1288 C1295 1.409 . S
C1289 H1281 0.930 . S
C1289 C1287 1.419 . S
C1289 C1290 1.362 . S
C1290 H1282 0.930 . S
C1290 C1289 1.362 . S
C1290 C1293 1.409 . S
C1291 H1283 0.930 . S
C1291 C1292 1.355 . S
C1291 C1293 1.415 . S
C1292 C1291 1.355 . S
C1292 C1294 1.419 . S
C1293 C1288 1.425 . S
C1293 C1290 1.409 . S
C1293 C1291 1.415 . S
C1294 H1284 0.930 . S
C1294 C1292 1.419 . S
C1294 C1295 1.362 . S
C1295 H1285 0.930 . S
C1295 C1288 1.409 . S
C1295 C1294 1.362 . S
C540 C524 1.250 . S
C535 N12 1.474 1_556 S
C551 C30 1.499 . S
C556 C453 1.130 . S
C567 C62 1.341 . S
C572 C482 1.198 . S
C588 C495 1.153 . S
C583 N81 1.406 . S
C599 C39 1.371 . S
C604 C516 1.161 . S
C620 C461 1.293 . S
C615 C53 1.493 . S
C636 C474 1.144 . S
C631 N71 1.353 1_554 S
C652 C503 1.211 . S
C647 N2 1.328 . S
C663 N94 1.456 1_655 S
C668 C505 1.170 . S
C684 C519 1.223 . S
C679 C131 1.405 . S
C700 C463 1.164 . S
C695 N140 1.366 . S
C716 C477 1.288 . S
C711 C177 1.420 . S
C727 C108 1.358 . S
C732 C456 1.247 . S
C743 N117 1.426 . S
C748 C484 1.279 . S
C759 C154 1.420 . S
C764 C498 1.218 . S
C780 C526 1.278 . S
C775 N163 1.440 . S
C796 C335 1.259 . S
C791 N173 1.433 . S
C812 C316 1.203 . S
C807 C191 1.427 . S
C828 C330 1.150 . S
C823 N219 1.432 . S
C844 C351 1.233 . S
C839 C237 1.425 . S
C855 N104 1.426 . S
C860 C337 1.144 . S
C871 N127 1.418 . S
C876 C288 1.246 . S
C887 C214 1.457 . S
C892 C348 1.231 . S
C903 C260 1.480 . S
C908 C314 1.240 . S
C924 C377 1.212 . S
C919 N48 1.348 . S
C940 C390 1.210 . S
C935 C76 1.479 . S
C951 C7 1.413 . S
C956 C419 1.256 . S
C967 N35 1.398 . S
C972 C432 1.115 . S
C988 C369 1.230 . S
C983 C85 1.455 1_554 S
C1004 C398 1.210 . S
C999 C16 1.410 . S
C1015 N25 1.460 . S
C1020 C411 1.191 . S
C1036 C440 1.285 . S
C1031 N58 1.414 . S
C1047 N255 1.415 . S
C1052 C442 1.224 . S
C1063 C200 1.382 . S
C1068 C372 1.201 . S
C1084 C400 1.306 . S
C1079 N209 1.384 1_455 S
C1095 C246 1.369 . S
C1100 C414 1.230 . S
C1116 C393 1.325 . S
C1111 C269 1.422 . S
C1127 N186 1.410 . S
C1132 C421 1.197 . S
C1148 C435 1.307 . S
C1143 C223 1.466 1_455 S
C1164 C379 1.193 . S
C1159 N232 1.359 . S
C1180 C295 1.278 . S
C1175 N242 1.387 . S
C1196 C358 1.224 . S
C1191 C122 1.460 1_545 S
C1207 N150 1.443 . S
C1212 C285 1.126 . S
C1228 C309 1.268 . S
C1223 C168 1.458 . S
C1244 C293 1.246 . S
C1239 N265 1.426 . S
C1255 N196 1.433 . S
C1260 C327 1.090 . S
C1271 C145 1.422 . S
C1276 C306 1.201 . S
C1287 C99 1.430 . S
C1292 C356 1.176 . S
