# Generated by pormake.
# Topology zzz, (3,6)-cn, num edge types: 1
# Building blocks:
#     Node 0, Type 0, BuildingBlock: QEWDON_clean_linker_0, # of connection points: 3
#     Node 1, Type 0, BuildingBlock: QEWDON_clean_linker_0, # of connection points: 3
#     Node 2, Type 0, BuildingBlock: QEWDON_clean_linker_0, # of connection points: 3
#     Node 3, Type 0, BuildingBlock: QEWDON_clean_linker_0, # of connection points: 3
#     Node 4, Type 0, BuildingBlock: QEWDON_clean_linker_0, # of connection points: 3
#     Node 5, Type 0, BuildingBlock: QEWDON_clean_linker_0, # of connection points: 3
#     Node 6, Type 0, BuildingBlock: QEWDON_clean_linker_0, # of connection points: 3
#     Node 7, Type 0, BuildingBlock: QEWDON_clean_linker_0, # of connection points: 3
#     Node 8, Type 1, BuildingBlock: GEDQOX_clean_sbu_0, # of connection points: 6
#     Node 9, Type 1, BuildingBlock: GEDQOX_clean_sbu_0, # of connection points: 6
#     Node 10, Type 1, BuildingBlock: GEDQOX_clean_sbu_0, # of connection points: 6
#     Node 11, Type 1, BuildingBlock: GEDQOX_clean_sbu_0, # of connection points: 6
#     Edge 12, Type (0, 1), BuildingBlock: XUDNAN_clean_linker_2, # of connection points: 2
#     Edge 13, Type (0, 1), BuildingBlock: XUDNAN_clean_linker_2, # of connection points: 2
#     Edge 14, Type (0, 1), BuildingBlock: XUDNAN_clean_linker_2, # of connection points: 2
#     Edge 15, Type (0, 1), BuildingBlock: XUDNAN_clean_linker_2, # of connection points: 2
#     Edge 16, Type (0, 1), BuildingBlock: XUDNAN_clean_linker_2, # of connection points: 2
#     Edge 17, Type (0, 1), BuildingBlock: XUDNAN_clean_linker_2, # of connection points: 2
#     Edge 18, Type (0, 1), BuildingBlock: XUDNAN_clean_linker_2, # of connection points: 2
#     Edge 19, Type (0, 1), BuildingBlock: XUDNAN_clean_linker_2, # of connection points: 2
#     Edge 20, Type (0, 1), BuildingBlock: XUDNAN_clean_linker_2, # of connection points: 2
#     Edge 21, Type (0, 1), BuildingBlock: XUDNAN_clean_linker_2, # of connection points: 2
#     Edge 22, Type (0, 1), BuildingBlock: XUDNAN_clean_linker_2, # of connection points: 2
#     Edge 23, Type (0, 1), BuildingBlock: XUDNAN_clean_linker_2, # of connection points: 2
#     Edge 24, Type (0, 1), BuildingBlock: XUDNAN_clean_linker_2, # of connection points: 2
#     Edge 25, Type (0, 1), BuildingBlock: XUDNAN_clean_linker_2, # of connection points: 2
#     Edge 26, Type (0, 1), BuildingBlock: XUDNAN_clean_linker_2, # of connection points: 2
#     Edge 27, Type (0, 1), BuildingBlock: XUDNAN_clean_linker_2, # of connection points: 2
#     Edge 28, Type (0, 1), BuildingBlock: XUDNAN_clean_linker_2, # of connection points: 2
#     Edge 29, Type (0, 1), BuildingBlock: XUDNAN_clean_linker_2, # of connection points: 2
#     Edge 30, Type (0, 1), BuildingBlock: XUDNAN_clean_linker_2, # of connection points: 2
#     Edge 31, Type (0, 1), BuildingBlock: XUDNAN_clean_linker_2, # of connection points: 2
#     Edge 32, Type (0, 1), BuildingBlock: XUDNAN_clean_linker_2, # of connection points: 2
#     Edge 33, Type (0, 1), BuildingBlock: XUDNAN_clean_linker_2, # of connection points: 2
#     Edge 34, Type (0, 1), BuildingBlock: XUDNAN_clean_linker_2, # of connection points: 2
#     Edge 35, Type (0, 1), BuildingBlock: XUDNAN_clean_linker_2, # of connection points: 2
# Relax obj value: 0.067
# Max RMSD: 0.161
# Mean RMSD: 0.050
data_MOF--net-zzz--node1-GEDQOX_clean_sbu_0--node2-QEWDON_clean_linker_0--edge1-XUDNAN_clean_linker_2
_symmetry_space_group_name_H-M    P1
_symmetry_Int_Tables_number       1
_symmetry_cell_setting            triclinic
loop_
_symmetry_equiv_pos_as_xyz
'x, y, z'
_cell_length_a     58.192957
_cell_length_b     57.164554
_cell_length_c     17.049867
_cell_angle_alpha  80.236286
_cell_angle_beta   89.346093
_cell_angle_gamma 98.927891
loop_
_atom_site_label
_atom_site_type_symbol
_atom_site_fract_x
_atom_site_fract_y
_atom_site_fract_z
_atom_type_partial_charge
H0 H 0.80278 0.54615 0.04636 0.0
C1 C 0.81001 0.54859 0.10325 0.0
C2 C 0.83159 0.54118 0.12372 0.0
C3 C 0.79855 0.56058 0.15436 0.0
H4 H 0.85843 0.54171 0.21011 0.0
C5 C 0.84133 0.54602 0.19529 0.0
C6 C 0.83046 0.55812 0.24578 0.0
C7 C 0.80878 0.5647 0.22659 0.0
C8 C 0.77808 0.57237 0.12835 0.0
H9 H 0.80058 0.57441 0.26548 0.0
C10 C 0.7579 0.56009 0.09856 0.0
C11 C 0.73882 0.57218 0.07741 0.0
C12 C 0.7789 0.59674 0.13454 0.0
H13 H 0.79424 0.6068 0.15556 0.0
C14 C 0.76013 0.60857 0.1133 0.0
H15 H 0.75694 0.54138 0.09276 0.0
C16 C 0.74021 0.5964 0.08519 0.0
H17 H 0.72581 0.60597 0.06884 0.0
H18 H 0.76105 0.6273 0.11852 0.0
H19 H 0.03283 0.79955 0.10936 0.0
C20 C 0.03102 0.80544 0.16594 0.0
C21 C 0.03915 0.82958 0.17234 0.0
C22 C 0.01929 0.78937 0.23178 0.0
H23 H 0.04173 0.8563 0.24745 0.0
C24 C 0.03564 0.83757 0.24384 0.0
C25 C 0.02316 0.82269 0.30863 0.0
C26 C 0.01558 0.79833 0.30339 0.0
C27 C 1.0074 0.76468 0.22248 0.0
H28 H 1.00581 0.78669 0.35347 0.0
C29 C 0.01844 0.74795 0.188 0.0
C30 C 1.006 0.72475 0.18185 0.0
C31 C 0.98387 0.75805 0.24774 0.0
H32 H 0.97469 0.77041 0.27242 0.0
C33 C 0.97155 0.73577 0.23992 0.0
H34 H 0.03657 0.7527 0.16829 0.0
C35 C 0.98237 0.71938 0.20741 0.0
H36 H 0.97192 0.70242 0.20129 0.0
H37 H 0.95335 0.73118 0.2589 0.0
H38 H 0.76477 0.03444 0.03056 0.0
C39 C 0.75901 0.03093 0.09272 0.0
C40 C 0.7393 0.03994 0.1161 0.0
C41 C 0.77034 0.01612 0.14924 0.0
H42 H 0.71526 0.04022 0.21206 0.0
C43 C 0.73119 0.03425 0.19571 0.0
C44 C 0.74169 0.01893 0.25219 0.0
C45 C 0.76141 1.01004 0.22861 0.0
C46 C 0.78901 1.00367 0.12403 0.0
H47 H 0.76939 0.99776 0.27134 0.0
C48 C 0.81122 0.01615 0.09535 0.0
C49 C 0.82865 1.00328 0.07514 0.0
C50 C 0.7845 0.97851 0.13135 0.0
H51 H 0.76761 0.96859 0.15324 0.0
C52 C 0.80164 0.96591 0.11039 0.0
H53 H 0.815 0.03553 0.08999 0.0
C54 C 0.82357 0.97818 0.08256 0.0
H55 H 0.83671 0.96804 0.0671 0.0
H56 H 0.79793 0.94654 0.11611 0.0
H57 H 0.54324 0.79503 0.31983 0.0
C58 C 0.54325 0.78227 0.37443 0.0
C59 C 0.53496 0.75795 0.37305 0.0
C60 C 0.55163 0.7898 0.44527 0.0
H61 H 0.53093 0.72191 0.43903 0.0
C62 C 0.53646 0.74081 0.44104 0.0
C63 C 0.54537 0.74741 0.51116 0.0
C64 C 0.55205 0.77194 0.51419 0.0
C65 C 0.56043 0.81596 0.44682 0.0
H66 H 0.55791 0.77681 0.57007 0.0
C67 C 0.55276 0.83467 0.39272 0.0
C68 C 0.56127 0.8592 0.39408 0.0
C69 C 0.57703 0.8225 0.502 0.0
H70 H 0.5844 0.80915 0.54228 0.0
C71 C 0.58483 0.84656 0.50577 0.0
H72 H 0.54029 0.83022 0.34912 0.0
C73 C 0.57691 0.86472 0.45314 0.0
H74 H 0.58315 0.88313 0.45932 0.0
H75 H 0.59725 0.85118 0.54963 0.0
H76 H 0.26787 0.55825 0.75395 0.0
C77 C 0.26092 0.5486 0.7077 0.0
C78 C 0.23675 0.54179 0.70452 0.0
C79 C 0.2759 0.54501 0.64674 0.0
H80 H 0.20902 0.52596 0.63967 0.0
C81 C 0.22777 0.53047 0.64238 0.0
C82 C 0.24217 0.52686 0.58056 0.0
C83 C 0.26639 0.53429 0.583 0.0
C84 C 0.30026 0.55771 0.63948 0.0
H85 H 0.27771 0.53278 0.53382 0.0
C86 C 0.319 0.54721 0.67453 0.0
C87 C 0.34193 0.56034 0.66568 0.0
C88 C 0.3045 0.58124 0.59662 0.0
H89 H 0.29034 0.58958 0.56957 0.0
C90 C 0.32689 0.59433 0.58878 0.0
H91 H 0.31577 0.52897 0.70724 0.0
C92 C 0.34541 0.58408 0.62305 0.0
H93 H 0.36252 0.59497 0.61683 0.0
H94 H 0.32992 0.61257 0.55618 0.0
H95 H 0.01351 0.28221 0.67853 0.0
C96 C 0.02038 0.27689 0.62611 0.0
C97 C 0.02123 0.2523 0.62576 0.0
C98 C 0.02717 0.29428 0.55663 0.0
H99 H 0.03116 0.2267 0.55817 0.0
C100 C 0.02966 0.24544 0.55744 0.0
C101 C 0.03627 0.26187 0.488 0.0
C102 C 0.0356 0.28639 0.48813 0.0
C103 C 0.02289 0.31995 0.5505 0.0
H104 H 0.04092 0.29916 0.43409 0.0
C105 C 0.02732 0.334 0.61226 0.0
C106 C 0.0236 0.35847 0.60015 0.0
C107 C 0.01372 0.33058 0.47954 0.0
H108 H 0.00924 0.32042 0.43221 0.0
C109 C 0.00977 0.35426 0.46829 0.0
H110 H 0.03416 0.32628 0.66783 0.0
C111 C 0.01476 0.36808 0.52742 0.0
H112 H 0.01128 0.38641 0.51655 0.0
H113 H 1.00269 0.36197 0.41318 0.0
H114 H 0.30552 1.00987 0.79405 0.0
C115 C 0.31056 0.01958 0.73452 0.0
C116 C 0.33425 0.02691 0.71277 0.0
C117 C 0.29338 0.02341 0.67815 0.0
H118 H 0.35889 0.04443 0.61856 0.0
C119 C 0.34056 0.0389 0.63526 0.0
C120 C 0.32392 0.04264 0.57766 0.0
C121 C 0.30017 0.03474 0.59931 0.0
C122 C 0.26896 1.0119 0.69909 0.0
H123 H 0.28716 0.0366 0.55467 0.0
C124 C 0.25116 0.02532 0.71097 0.0
C125 C 0.22832 0.01347 0.73532 0.0
C126 C 0.26375 0.98675 0.71049 0.0
H127 H 0.27718 0.97614 0.70189 0.0
C128 C 0.24125 0.97503 0.73285 0.0
H129 H 0.25526 0.04474 0.70342 0.0
C130 C 0.22368 0.9882 0.74514 0.0
H131 H 0.20632 0.97849 0.76139 0.0
H132 H 0.23739 0.95561 0.7408 0.0
H133 H 0.55946 0.28397 0.45585 0.0
C134 C 0.55321 0.29581 0.40725 0.0
C135 C 0.55347 0.31979 0.41486 0.0
C136 C 0.54497 0.28736 0.33793 0.0
H137 H 0.54834 0.3548 0.35747 0.0
C138 C 0.54686 0.33602 0.35171 0.0
C139 C 0.53928 0.32866 0.2809 0.0
C140 C 0.53803 0.30418 0.2747 0.0
C141 C 0.54391 0.26124 0.33185 0.0
H142 H 0.53132 0.29838 0.22105 0.0
C143 C 0.54145 0.24303 0.40071 0.0
C144 C 0.54132 0.2186 0.39511 0.0
C145 C 0.5459 0.25429 0.25701 0.0
H146 H 0.54861 0.26743 0.20273 0.0
C147 C 0.54489 0.23016 0.25077 0.0
H148 H 0.53989 0.24777 0.45898 0.0
C149 C 0.54254 0.21247 0.3188 0.0
H150 H 0.54164 0.19394 0.31121 0.0
H151 H 0.54618 0.22513 0.19264 0.0
Nd152 Nd 0.02763 0.0365 0.82939 0.0
Nd153 Nd 0.04684 0.04954 0.99687 0.0
C154 C 1.00675 0.01315 0.72088 0.0
C155 C 1.00744 0.98993 0.69353 0.0
C156 C 0.99104 0.982 0.64024 0.0
C157 C 0.99164 0.9603 0.61271 0.0
C158 C 1.00872 0.9459 0.63768 0.0
C159 C 0.02496 0.95383 0.69221 0.0
C160 C 0.02433 0.97557 0.71974 0.0
C161 C 0.07458 0.05344 0.83092 0.0
C162 C 0.04573 0.99466 0.96841 0.0
C163 C 0.07173 0.07279 0.09683 0.0
C164 C 0.06955 0.0945 0.13156 0.0
C165 C 0.08822 0.10538 0.17094 0.0
C166 C 0.08695 0.12685 0.19924 0.0
C167 C 0.06696 0.13802 0.18864 0.0
C168 C 0.04817 0.12685 0.1497 0.0
C169 C 0.04948 0.10538 0.12138 0.0
C170 C 0.99828 0.04117 0.99781 0.0
C171 C 0.02798 0.09044 0.86264 0.0
O172 O 0.99779 1.01194 0.79252 0.0
O173 O 0.02538 0.02951 0.70521 0.0
O174 O 0.06161 0.05859 0.7707 0.0
O175 O 0.06267 0.03926 0.88713 0.0
O176 O 0.03408 1.00018 0.90311 0.0
O177 O 0.05429 1.01075 0.01255 0.0
O178 O 0.07632 0.07671 0.01982 0.0
O179 O 0.05612 0.05356 0.12057 0.0
O180 O 0.00981 0.04513 0.06024 0.0
O181 O 0.01284 0.04108 0.94346 0.0
O182 O 0.04348 0.08509 0.91606 0.0
O183 O 0.0166 0.07397 0.82455 0.0
H184 H 0.97774 0.99266 0.61962 0.0
H185 H 0.97853 0.95474 0.57217 0.0
H186 H 0.03854 0.94353 0.71247 0.0
H187 H 0.03718 0.98127 0.76095 0.0
H188 H 0.10393 0.09741 0.17914 0.0
H189 H 0.10164 0.13461 0.22988 0.0
H190 H 0.03261 0.13497 0.13944 0.0
H191 H 0.03494 0.09746 0.09029 0.0
Nd192 Nd 0.5428 0.02468 0.86466 0.0
Nd193 Nd 0.53468 0.05731 0.99256 0.0
C194 C 0.55679 0.98982 0.80295 0.0
C195 C 0.57708 0.98846 0.7518 0.0
C196 C 0.59149 0.97126 0.77639 0.0
C197 C 0.61174 0.97085 0.73187 0.0
C198 C 0.61799 0.98762 0.66152 0.0
C199 C 0.6033 1.00463 0.63653 0.0
C200 C 0.58316 1.00513 0.68132 0.0
C201 C 0.54557 0.07196 0.78889 0.0
C202 C 0.5873 0.05692 0.93821 0.0
C203 C 0.51665 0.08528 0.07682 0.0
C204 C 0.49331 0.08239 0.11553 0.0
C205 C 0.48371 0.10245 0.12905 0.0
C206 C 0.46106 0.09956 0.16236 0.0
C207 C 0.44755 0.07653 0.18203 0.0
C208 C 0.45737 0.05651 0.16849 0.0
C209 C 0.47996 0.05941 0.13568 0.0
C210 C 0.54088 1.01096 0.0505 0.0
C211 C 0.48926 0.02771 0.91228 0.0
O212 O 0.5616 0.99351 0.87523 0.0
O213 O 0.54101 1.00215 0.77052 0.0
O214 O 0.54823 0.05443 0.75197 0.0
O215 O 0.54199 0.06379 0.86202 0.0
O216 O 0.57903 0.03709 0.91062 0.0
O217 O 0.57343 0.07079 0.96256 0.0
O218 O 0.51724 0.08892 -0.00109 0.0
O219 O 0.52991 0.06976 0.10706 0.0
O220 O 0.54952 0.02924 0.08284 0.0
O221 O 0.52895 0.01743 0.99182 0.0
O222 O 0.49759 0.04322 0.9584 0.0
O223 O 0.50284 0.01699 0.87196 0.0
H224 H 0.58729 0.95839 0.83099 0.0
H225 H 0.62274 0.9577 0.75353 0.0
H226 H 0.60728 0.01755 0.58201 0.0
H227 H 0.57252 0.01876 0.6611 0.0
H228 H 0.49364 0.12036 0.11328 0.0
H229 H 0.454 0.11537 0.17161 0.0
H230 H 0.44768 0.03849 0.18409 0.0
H231 H 0.48696 0.04364 0.12546 0.0
Nd232 Nd 0.52638 0.53986 0.97231 0.0
Nd233 Nd 0.54719 0.53381 0.81757 0.0
C234 C 0.50184 0.55567 0.0769 0.0
C235 C 0.5024 0.58054 0.08987 0.0
C236 C 0.48169 0.58909 0.10392 0.0
C237 C 0.48206 0.61342 0.10777 0.0
C238 C 0.50319 0.62959 0.09731 0.0
C239 C 0.52388 0.62083 0.0835 0.0
C240 C 0.52347 0.59664 0.07932 0.0
C241 C 0.57394 0.54154 0.97258 0.0
C242 C 0.54252 0.58791 0.83081 0.0
C243 C 0.57218 0.52037 0.70814 0.0
C244 C 0.57792 0.49692 0.69724 0.0
C245 C 0.58667 0.4817 0.75971 0.0
C246 C 0.5891 0.45827 0.75162 0.0
C247 C 0.58251 0.44975 0.68158 0.0
C248 C 0.57462 0.46521 0.61825 0.0
C249 C 0.57246 0.48866 0.62588 0.0
C250 C 0.50021 0.53453 0.81398 0.0
C251 C 0.5317 0.48602 0.95977 0.0
O252 O 0.49382 0.55148 0.00848 0.0
O253 O 0.52054 0.54609 0.09527 0.0
O254 O 0.56016 0.53149 0.03349 0.0
O255 O 0.56266 0.55125 0.91679 0.0
O256 O 0.52997 0.57808 0.89661 0.0
O257 O 0.55357 0.57485 0.7912 0.0
O258 O 0.58127 0.52928 0.76855 0.0
O259 O 0.55033 0.52284 0.69975 0.0
O260 O 0.51492 0.54482 0.75588 0.0
O261 O 0.51028 0.52338 0.87089 0.0
O262 O 0.54513 0.4962 0.89618 0.0
O263 O 0.51954 0.49875 0.99705 0.0
H264 H 0.4652 0.57704 0.1105 0.0
H265 H 0.4658 0.61962 0.11801 0.0
H266 H 0.54052 0.6326 0.07677 0.0
H267 H 0.53965 0.5906 0.06667 0.0
H268 H 0.59084 0.48755 0.81579 0.0
H269 H 0.59507 0.4465 0.80117 0.0
H270 H 0.56954 0.45889 0.56357 0.0
H271 H 0.56567 0.50006 0.57717 0.0
Nd272 Nd 0.03333 0.55223 0.84611 0.0
Nd273 Nd 0.03376 0.52564 0.00479 0.0
C274 C 0.02238 0.58064 0.71741 0.0
C275 C 1.00033 0.58323 0.67692 0.0
C276 C 0.98122 0.58919 0.71625 0.0
C277 C 0.95988 0.58951 0.67949 0.0
C278 C 0.95715 0.58386 0.60267 0.0
C279 C 0.97648 0.57846 0.56281 0.0
C280 C 0.99782 0.57825 0.59944 0.0
C281 C 0.03642 0.50433 0.84483 0.0
C282 C 0.98317 0.52846 0.94117 0.0
C283 C 0.0464 0.49831 0.13323 0.0
C284 C 0.06892 0.49986 0.17265 0.0
C285 C 0.07628 0.47918 0.21455 0.0
C286 C 0.09853 0.48052 0.24605 0.0
C287 C 0.11388 0.50254 0.23552 0.0
C288 C 0.10622 0.52324 0.19437 0.0
C289 C 0.08404 0.5219 0.16322 0.0
C290 C 0.0303 0.57335 0.00593 0.0
C291 C 0.08389 0.54931 0.90705 0.0
O292 O 0.02444 0.58715 0.78719 0.0
O293 O 0.03042 0.56067 0.71491 0.0
O294 O 0.04848 0.52242 0.79792 0.0
O295 O 0.0231 0.5117 0.89162 0.0
O296 O 0.99468 0.54554 0.8869 0.0
O297 O 0.99446 0.51489 0.99244 0.0
O298 O 0.04676 0.49256 0.06235 0.0
O299 O 0.03471 0.51592 0.13632 0.0
O300 O 0.0185 0.55524 0.05336 0.0
O301 O 0.04383 0.5661 0.95948 0.0
O302 O 0.0726 0.53284 0.96367 0.0
O303 O 0.07247 0.56243 0.85531 0.0
H304 H 0.98254 0.59312 0.77614 0.0
H305 H 0.94549 0.59405 0.71156 0.0
H306 H 0.97498 0.57365 0.50412 0.0
H307 H 0.01225 0.57354 0.56791 0.0
H308 H 0.06498 0.46196 0.22171 0.0
H309 H 0.10391 0.46422 0.27705 0.0
H310 H 0.11737 0.54056 0.18623 0.0
H311 H 0.07886 0.53808 0.13045 0.0
H312 H 0.19348 1.00112 0.85276 0.0
H313 H 0.21877 0.05588 0.64865 0.0
H314 H 0.1841 0.07519 0.6625 0.0
H315 H 0.13536 0.99339 0.80239 0.0
H316 H 0.1235 0.98859 0.90301 0.0
H317 H 0.15176 0.98121 0.88427 0.0
H318 H 0.16966 1.00886 0.98099 0.0
H319 H 0.14137 0.01632 -0.00013 0.0
H320 H 0.16547 0.03987 0.96551 0.0
H321 H 0.14425 0.08537 0.68757 0.0
H322 H 0.10299 0.08583 0.72252 0.0
H323 H 0.10352 0.02448 0.91042 0.0
C324 C 0.19192 0.01734 0.81136 0.0
C325 C 0.20898 0.02693 0.74938 0.0
C326 C 0.20622 0.04832 0.69721 0.0
C327 C 0.18649 0.05937 0.70447 0.0
C328 C 0.16972 0.04899 0.76472 0.0
C329 C 0.17234 0.02853 0.81769 0.0
C330 C 0.15106 0.01989 0.87349 0.0
C331 C 0.13976 0.99426 0.86524 0.0
C332 C 0.15727 0.02133 0.96011 0.0
C333 C 0.13568 0.03822 0.84198 0.0
C334 C 0.14686 0.055 0.77976 0.0
C335 C 0.13552 0.07259 0.73711 0.0
C336 C 0.11208 0.07272 0.75737 0.0
C337 C 0.10016 0.05542 0.81978 0.0
C338 C 0.11233 0.0383 0.86371 0.0
H339 H 0.56213 0.17784 0.4152 0.0
H340 H 0.51849 0.21558 0.5414 0.0
H341 H 0.5174 0.18393 0.6601 0.0
H342 H 0.53098 0.11937 0.48901 0.0
H343 H 0.55661 0.10515 0.49344 0.0
H344 H 0.55559 0.13192 0.42164 0.0
H345 H 0.59339 0.15266 0.4762 0.0
H346 H 0.59442 0.12599 0.54866 0.0
H347 H 0.59454 0.15449 0.58064 0.0
H348 H 0.52061 0.14688 0.76599 0.0
H349 H 0.52515 0.10696 0.84253 0.0
H350 H 0.56373 0.09273 0.64167 0.0
C351 C 0.55209 0.17954 0.46718 0.0
C352 C 0.54047 0.19953 0.46803 0.0
C353 C 0.528 0.20088 0.53884 0.0
C354 C 0.52715 0.18285 0.60676 0.0
C355 C 0.53869 0.16338 0.6032 0.0
C356 C 0.55073 0.16157 0.53476 0.0
C357 C 0.56056 0.13827 0.54404 0.0
C358 C 0.55031 0.12277 0.48346 0.0
C359 C 0.58731 0.14316 0.53698 0.0
C360 C 0.552 0.12706 0.6282 0.0
C361 C 0.53973 0.14191 0.66212 0.0
C362 C 0.5302 0.13517 0.7398 0.0
C363 C 0.53294 0.11253 0.78306 0.0
C364 C 0.54479 0.09683 0.74803 0.0
C365 C 0.55457 0.10438 0.66996 0.0
H366 H 0.38569 0.56569 0.597 0.0
H367 H 0.34521 0.53232 0.81327 0.0
H368 H 0.38092 0.52004 0.87465 0.0
H369 H 0.42614 0.52282 0.60346 0.0
H370 H 0.45032 0.54592 0.56598 0.0
H371 H 0.42119 0.54968 0.53797 0.0
H372 H 0.42629 0.59018 0.58984 0.0
H373 H 0.45535 0.58648 0.61849 0.0
H374 H 0.43446 0.59095 0.69117 0.0
H375 H 0.42279 0.51403 0.91503 0.0
H376 H 0.46533 0.51423 0.92779 0.0
H377 H 0.47729 0.55321 0.68594 0.0
C378 C 0.38419 0.55568 0.65723 0.0
C379 C 0.36253 0.5501 0.70033 0.0
C380 C 0.36148 0.53663 0.77857 0.0
C381 C 0.38174 0.52972 0.81411 0.0
C382 C 0.40295 0.5363 0.77056 0.0
C383 C 0.40415 0.54887 0.69349 0.0
C384 C 0.42896 0.55485 0.65988 0.0
C385 C 0.43181 0.54258 0.58755 0.0
C386 C 0.43671 0.58224 0.63863 0.0
C387 C 0.44174 0.54401 0.73026 0.0
C388 C 0.42655 0.5332 0.79362 0.0
C389 C 0.43472 0.52235 0.86543 0.0
C390 C 0.45891 0.52256 0.87228 0.0
C391 C 0.47464 0.5337 0.80792 0.0
C392 C 0.46577 0.54448 0.73627 0.0
H393 H 0.04881 0.40393 0.57802 0.0
H394 H 1.0071 0.35104 0.75671 0.0
H395 H 1.00731 0.38184 0.84377 0.0
H396 H 0.08398 0.43705 0.71669 0.0
H397 H 0.08405 0.46559 0.6526 0.0
H398 H 0.0827 0.4386 0.61037 0.0
H399 H 0.04517 0.44778 0.5396 0.0
H400 H 0.0462 0.47459 0.58241 0.0
H401 H 0.02054 0.45196 0.59777 0.0
H402 H 1.0083 0.42105 0.90414 0.0
H403 H 0.01277 0.46247 0.93484 0.0
H404 H 0.05445 0.48892 0.71651 0.0
C405 C 0.04027 0.3986 0.63651 0.0
C406 C 0.02813 0.37485 0.66071 0.0
C407 C 0.01689 0.36886 0.73728 0.0
C408 C 0.01675 0.38639 0.7868 0.0
C409 C 0.02814 0.40989 0.75953 0.0
C410 C 0.04005 0.4158 0.68647 0.0
C411 C 0.05004 0.44242 0.66847 0.0
C412 C 0.07678 0.44613 0.66166 0.0
C413 C 0.03988 0.45491 0.59258 0.0
C414 C 0.04163 0.45083 0.74201 0.0
C415 C 0.02898 0.4319 0.79408 0.0
C416 C 0.01848 0.43581 0.86403 0.0
C417 C 0.02104 0.45946 0.88102 0.0
C418 C 0.03409 0.47906 0.82864 0.0
C419 C 0.04458 0.47441 0.75854 0.0
H420 H 0.86596 0.01485 0.16488 0.0
H421 H 0.84505 0.01599 0.92166 0.0
H422 H 0.88631 0.02765 0.87396 0.0
H423 H 0.91564 0.06572 0.12173 0.0
H424 H 0.93314 0.05137 0.19599 0.0
H425 H 0.90187 0.0461 0.20921 0.0
H426 H 0.902 1.00025 0.22522 0.0
H427 H 0.93318 1.00537 0.21074 0.0
H428 H 0.91529 0.98841 0.14758 0.0
H429 H 0.93017 0.03495 0.85447 0.0
H430 H 0.97302 0.0401 0.86379 0.0
H431 H 0.96557 0.03437 0.11989 0.0
C432 C 0.8701 0.01848 0.10146 0.0
C433 C 0.8524 0.01524 0.04649 0.0
C434 C 0.8584 0.01906 0.96419 0.0
C435 C 0.88177 0.02551 0.93678 0.0
C436 C 0.89895 0.02801 0.99256 0.0
C437 C 0.89339 0.02493 0.07317 0.0
C438 C 0.91521 0.02732 0.12101 0.0
C439 C 0.91654 0.04892 0.16455 0.0
C440 C 0.91648 1.00394 0.17957 0.0
C441 C 0.9339 0.03173 0.05504 0.0
C442 C 0.92417 0.0321 0.98135 0.0
C443 C 0.93795 0.03493 0.91182 0.0
C444 C 0.96227 0.03766 0.91768 0.0
C445 C 0.9726 0.03754 0.99246 0.0
C446 C 0.95816 0.0346 0.06185 0.0
H447 H 0.58682 0.90402 0.33501 0.0
H448 H 0.51961 0.86024 0.31605 0.0
H449 H 0.5087 0.89294 0.21738 0.0
H450 H 0.56353 0.95817 0.33523 0.0
H451 H 0.58835 0.97715 0.28148 0.0
H452 H 0.59192 0.94926 0.34354 0.0
H453 H 0.61052 0.93582 0.22317 0.0
H454 H 0.60683 0.96361 0.16053 0.0
H455 H 0.59476 0.9353 0.13288 0.0
H456 H 0.50503 0.93096 0.11949 0.0
H457 H 0.50707 0.97244 0.04484 0.0
H458 H 0.57424 0.99272 0.14245 0.0
C459 C 0.56964 0.90113 0.31142 0.0
C460 C 0.55427 0.87907 0.33398 0.0
C461 C 0.53216 0.87644 0.29907 0.0
C462 C 0.52566 0.89508 0.24304 0.0
C463 C 0.54123 0.9165 0.22308 0.0
C464 C 0.56261 0.91972 0.25726 0.0
C465 C 0.57549 0.94507 0.23059 0.0
C466 C 0.58008 0.95818 0.30195 0.0
C467 C 0.59825 0.94493 0.18402 0.0
C468 C 0.55789 0.95573 0.17656 0.0
C469 C 0.53846 0.93881 0.17145 0.0
C470 C 0.5201 0.94436 0.12356 0.0
C471 C 0.52143 0.96791 0.08116 0.0
C472 C 0.54072 0.98571 0.08855 0.0
C473 C 0.55922 0.97944 0.13635 0.0
H474 H 0.6997 0.54658 0.15989 0.0
H475 H 0.72881 0.57513 0.92199 0.0
H476 H 0.68972 0.56724 0.86741 0.0
H477 H 0.65299 0.49912 0.10013 0.0
H478 H 0.63247 0.50369 0.17386 0.0
H479 H 0.66317 0.50778 0.19213 0.0
H480 H 0.66109 0.55079 0.21757 0.0
H481 H 0.63056 0.54708 0.19779 0.0
H482 H 0.65025 0.57188 0.14165 0.0
H483 H 0.64715 0.56382 0.84262 0.0
H484 H 0.60431 0.55966 0.84601 0.0
H485 H 0.60201 0.53037 0.09829 0.0
C486 C 0.69791 0.54996 0.09599 0.0
C487 C 0.7173 0.56076 0.0446 0.0
C488 C 0.71425 0.56616 0.96172 0.0
C489 C 0.69209 0.56192 0.93042 0.0
C490 C 0.67313 0.55209 0.98281 0.0
C491 C 0.67584 0.54561 0.06368 0.0
C492 C 0.65234 0.53694 0.10742 0.0
C493 C 0.65011 0.51029 0.14564 0.0
C494 C 0.64834 0.55261 0.16976 0.0
C495 C 0.63602 0.54044 0.03904 0.0
C496 C 0.64841 0.54924 0.96773 0.0
C497 C 0.63727 0.55615 0.89758 0.0
C498 C 0.61288 0.55369 0.90003 0.0
C499 C 0.59973 0.54398 0.97173 0.0
C500 C 0.61155 0.53727 0.04211 0.0
H501 H 0.99841 0.67579 0.23573 0.0
H502 H 0.03684 0.72984 0.05168 0.0
H503 H 0.04886 0.69739 0.98799 0.0
H504 H 0.03757 0.63145 0.24684 0.0
H505 H 0.01395 0.6065 0.26203 0.0
H506 H 0.01072 0.63401 0.29604 0.0
H507 H 0.97367 0.63661 0.21453 0.0
H508 H 0.97687 0.60924 0.17977 0.0
H509 H 0.97522 0.63617 0.10913 0.0
H510 H 0.05446 0.65731 0.93957 0.0
H511 H 0.0535 0.61548 0.91516 0.0
H512 H 0.00939 0.58891 0.12801 0.0
C513 C 0.00946 0.681 0.18214 0.0
C514 C 0.0165 0.70566 0.14877 0.0
C515 C 0.03132 0.71127 0.07927 0.0
C516 C 0.03809 0.69286 0.04226 0.0
C517 C 0.02999 0.66877 0.07531 0.0
C518 C 0.01609 0.66294 0.14424 0.0
C519 C 1.00871 0.63592 0.1669 0.0
C520 C 0.01832 0.62642 0.24773 0.0
C521 C 0.98204 0.6291 0.16757 0.0
C522 C 0.02031 0.62725 0.09946 0.0
C523 C 0.03274 0.64633 0.04735 0.0
C524 C 0.0448 0.64237 0.98045 0.0
C525 C 0.04416 0.61851 0.96687 0.0
C526 C 0.03137 0.59878 0.0194 0.0
C527 C 0.01933 0.60347 0.08638 0.0
H528 H 0.99169 0.21066 0.62458 0.0
H529 H 0.03702 0.24852 0.77745 0.0
H530 H 0.03789 0.21009 0.86846 0.0
H531 H 0.96213 0.15813 0.78332 0.0
H532 H 0.96329 0.13753 0.71471 0.0
H533 H 0.95953 0.16815 0.67818 0.0
H534 H 0.99526 0.17283 0.58257 0.0
H535 H 0.99988 0.14269 0.62001 0.0
H536 H 0.02295 0.16756 0.62219 0.0
H537 H 0.04145 0.16779 0.92362 0.0
H538 H 0.04595 0.12544 0.94521 0.0
H539 H 1.00098 0.11367 0.74916 0.0
C540 C 1.00068 0.21097 0.67977 0.0
C541 C 0.0141 0.23261 0.69462 0.0
C542 C 0.02624 0.23234 0.7659 0.0
C543 C 0.027 0.21048 0.81739 0.0
C544 C 0.01546 0.18915 0.79664 0.0
C545 C 1.00219 0.18925 0.73004 0.0
C546 C 0.99493 0.16392 0.71294 0.0
C547 C 0.96839 0.15649 0.72291 0.0
C548 C 1.00381 0.16163 0.62953 0.0
C549 C 1.0072 0.14959 0.77784 0.0
C550 C 0.01843 0.16449 0.82643 0.0
C551 C 0.03234 0.15595 0.88688 0.0
C552 C 0.03491 0.13169 0.89811 0.0
C553 C 0.02384 0.11592 0.84874 0.0
C554 C 0.00954 0.12507 0.78829 0.0
H555 H 0.37268 1.00789 0.68048 0.0
H556 H 0.33856 0.03419 0.86759 0.0
H557 H 0.37347 0.03164 0.94865 0.0
H558 H 0.40737 0.96794 0.81063 0.0
H559 H 0.43197 0.97594 0.74082 0.0
H560 H 0.40284 0.9753 0.70548 0.0
H561 H 0.41396 0.01937 0.63281 0.0
H562 H 0.44299 0.02025 0.66832 0.0
H563 H 0.4257 0.04226 0.68876 0.0
H564 H 0.41405 0.03248 0.99846 0.0
H565 H 0.45629 0.03568 0.01544 0.0
H566 H 0.4643 1.00959 0.79377 0.0
C567 C 0.37235 1.01257 0.73938 0.0
C568 C 0.35297 0.02129 0.76792 0.0
C569 C 0.35313 0.02723 0.84512 0.0
C570 C 0.37291 0.0259 0.89131 0.0
C571 C 0.39217 0.0183 0.8596 0.0
C572 C 0.3919 1.01147 0.78567 0.0
C573 C 0.41551 1.00642 0.76119 0.0
C574 C 0.41435 0.97981 0.75414 0.0
C575 C 0.42509 0.02307 0.6832 0.0
C576 C 0.42947 1.01238 0.8315 0.0
C577 C 0.4156 0.01886 0.88813 0.0
C578 C 0.42493 0.027 0.95523 0.0
C579 C 0.44902 0.02889 0.9641 0.0
C580 C 0.46364 0.02279 0.90611 0.0
C581 C 0.45357 0.01395 0.83984 0.0
H582 H 0.5268 0.33874 0.5084 0.0
H583 H 0.59635 0.3229 0.47996 0.0
H584 H 0.61035 0.34917 0.57687 0.0
H585 H 0.5417 0.39633 0.49285 0.0
H586 H 0.52078 0.40198 0.5633 0.0
H587 H 0.51459 0.37608 0.51636 0.0
H588 H 0.50845 0.34814 0.65397 0.0
H589 H 0.5142 0.37412 0.70201 0.0
H590 H 0.53082 0.34992 0.72596 0.0
H591 H 0.6183 0.3846 0.64692 0.0
H592 H 0.61922 0.42495 0.68349 0.0
H593 H 0.54459 0.41823 0.66192 0.0
C594 C 0.54468 0.33985 0.52631 0.0
C595 C 0.5605 0.32873 0.4884 0.0
C596 C 0.58397 0.33098 0.51019 0.0
C597 C 0.59201 0.34588 0.56499 0.0
C598 C 0.57622 0.35802 0.59763 0.0
C599 C 0.55288 0.35476 0.57998 0.0
C600 C 0.54025 0.3729 0.60986 0.0
C601 C 0.52869 0.38768 0.54153 0.0
C602 C 0.52238 0.36053 0.67696 0.0
C603 C 0.56039 0.38807 0.64151 0.0
C604 C 0.5809 0.37887 0.63653 0.0
C605 C 0.60225 0.39157 0.65336 0.0
C606 C 0.60267 0.41443 0.67381 0.0
C607 C 0.58193 0.42432 0.67551 0.0
C608 C 0.56056 0.4107 0.66176 0.0
H609 H 0.20364 0.56939 0.66345 0.0
H610 H 0.23083 0.52743 0.86653 0.0
H611 H 0.19614 0.53013 0.94871 0.0
H612 H 0.17239 0.60768 0.77537 0.0
H613 H 0.14867 0.60622 0.70839 0.0
H614 H 0.17783 0.60571 0.67257 0.0
H615 H 0.16325 0.56599 0.62172 0.0
H616 H 0.13421 0.56609 0.65838 0.0
H617 H 0.14848 0.54048 0.69054 0.0
H618 H 0.15531 0.53074 -0.00061 0.0
H619 H 0.1132 0.53075 0.01675 0.0
H620 H 0.11262 0.57222 0.7791 0.0
C621 C 0.20271 0.56166 0.72621 0.0
C622 C 0.21992 0.54846 0.75932 0.0
C623 C 0.218 0.53801 0.84083 0.0
C624 C 0.19831 0.53937 0.88758 0.0
C625 C 0.18096 0.55146 0.85177 0.0
C626 C 0.1832 0.56275 0.77307 0.0
C627 C 0.16109 0.57195 0.74539 0.0
C628 C 0.16525 0.59953 0.72421 0.0
C629 C 0.15119 0.56043 0.6749 0.0
C630 C 0.14561 0.56328 0.81976 0.0
C631 C 0.15744 0.55176 0.88083 0.0
C632 C 0.14609 0.54023 0.95263 0.0
C633 C 0.1221 0.54028 0.96185 0.0
C634 C 0.10961 0.55175 0.89967 0.0
C635 C 0.12172 0.56376 0.82839 0.0
H636 H 0.01448 0.85262 0.05897 0.0
H637 H 0.08392 0.8515 0.14515 0.0
H638 H 0.09498 0.89434 0.08626 0.0
H639 H 0.03251 0.90158 0.86922 0.0
H640 H 1.00632 0.91394 0.88177 0.0
H641 H 1.00614 0.88201 0.90877 0.0
H642 H 0.99024 0.88363 0.04981 0.0
H643 H 0.9912 0.91558 0.02513 0.0
H644 H 1.00661 0.90312 0.10927 0.0
H645 H 0.09472 0.93873 0.05505 0.0
H646 H 0.08579 0.98023 0.02678 0.0
H647 H 0.01707 0.95301 0.95407 0.0
C648 C 0.0325 0.86095 0.05958 0.0
C649 C 0.04856 0.8486 0.1046 0.0
C650 C 0.07165 0.86042 0.10859 0.0
C651 C 0.07795 0.8849 0.07632 0.0
C652 C 0.06108 0.89719 0.03862 0.0
C653 C 0.03905 0.88542 0.02711 0.0
C654 C 0.02336 0.90325 0.99311 0.0
C655 C 0.01669 0.9 0.90818 0.0
C656 C 1.00159 0.90126 0.04762 0.0
C657 C 0.03946 0.92683 0.99245 0.0
C658 C 0.06118 0.92298 0.01859 0.0
C659 C 0.07803 0.94196 0.03204 0.0
C660 C 0.07272 0.96543 0.01693 0.0
C661 C 0.0508 0.96978 0.98805 0.0
C662 C 0.0341 0.9502 0.97504 0.0
H663 H 0.71138 0.01948 0.01221 0.0
H664 H 0.73097 0.08596 0.10112 0.0
H665 H 0.6959 0.10074 0.0446 0.0
H666 H 0.68002 0.04546 0.82708 0.0
H667 H 0.65812 0.01894 0.84162 0.0
H668 H 0.68767 0.01665 0.86846 0.0
H669 H 0.67271 0.99608 0.01098 0.0
H670 H 0.64329 0.9988 0.98544 0.0
H671 H 0.65563 1.01135 0.06858 0.0
H672 H 0.65483 0.10421 0.00668 0.0
H673 H 0.61276 0.09735 0.98119 0.0
H674 H 0.61973 0.02835 0.91751 0.0
C675 C 0.709 0.03775 0.0149 0.0
C676 C 0.72421 0.05197 0.05842 0.0
C677 C 0.71989 0.07521 0.06553 0.0
C678 C 0.6999 0.08363 0.03414 0.0
C679 C 0.68443 0.0686 0.99561 0.0
C680 C 0.68899 0.04629 0.98441 0.0
C681 C 0.66814 0.0322 0.95152 0.0
C682 C 0.67383 0.02808 0.86715 0.0
C683 C 0.65944 1.00821 0.0075 0.0
C684 C 0.65081 0.04948 0.94997 0.0
C685 C 0.66057 0.07052 0.97444 0.0
C686 C 0.64718 0.08807 0.9854 0.0
C687 C 0.62324 0.08397 0.97124 0.0
C688 C 0.61287 0.06241 0.94677 0.0
C689 C 0.62708 0.04523 0.93485 0.0
H690 H 0.49574 0.7264 0.36298 0.0
H691 H 0.55492 0.76867 0.22198 0.0
H692 H 0.54613 0.74467 0.11521 0.0
H693 H 0.50865 0.67461 0.33904 0.0
H694 H 0.47957 0.65846 0.33592 0.0
H695 H 0.48442 0.68382 0.38596 0.0
H696 H 0.45478 0.70445 0.29787 0.0
H697 H 0.44947 0.67883 0.24791 0.0
H698 H 0.45811 0.70857 0.19093 0.0
H699 H 0.53741 0.71036 0.04176 0.0
H700 H 0.53018 0.66944 0.00964 0.0
H701 H 0.47902 0.64747 0.20573 0.0
C702 C 0.50616 0.73127 0.30788 0.0
C703 C 0.52593 0.74936 0.30032 0.0
C704 C 0.53946 0.75514 0.22828 0.0
C705 C 0.53459 0.74151 0.16747 0.0
C706 C 0.51608 0.72237 0.1797 0.0
C707 C 0.50186 0.71746 0.24802 0.0
C708 C 0.4863 0.69332 0.25521 0.0
C709 C 0.48999 0.67659 0.33358 0.0
C710 C 0.46064 0.69649 0.24748 0.0
C711 C 0.49514 0.68455 0.18352 0.0
C712 C 0.51169 0.70187 0.13904 0.0
C713 C 0.52414 0.69688 0.0752 0.0
C714 C 0.5201 0.67349 0.05797 0.0
C715 C 0.5041 0.65519 0.10553 0.0
C716 C 0.49094 0.66115 0.16716 0.0
H717 H 0.85914 0.50636 0.1599 0.0
H718 H 0.83946 0.55693 0.96266 0.0
H719 H 0.87364 0.5521 0.8836 0.0
H720 H 0.9145 0.53265 0.15084 0.0
H721 H 0.9276 0.50605 0.17968 0.0
H722 H 0.89806 0.50622 0.21083 0.0
H723 H 0.88391 0.46894 0.14623 0.0
H724 H 0.91357 0.46824 0.11611 0.0
H725 H 0.89144 0.46941 0.04305 0.0
H726 H 0.91382 0.54916 0.83787 0.0
H727 H 0.95581 0.54828 0.82808 0.0
H728 H 0.95197 0.50329 0.06145 0.0
C729 C 0.8615 0.5157 0.09886 0.0
C730 C 0.84653 0.53206 0.06763 0.0
C731 C 0.85032 0.54398 0.98767 0.0
C732 C 0.86989 0.54148 0.94249 0.0
C733 C 0.88549 0.52699 0.97807 0.0
C734 C 0.88138 0.5141 0.0544 0.0
C735 C 0.90264 0.50347 0.08476 0.0
C736 C 0.9112 0.51266 0.16097 0.0
C737 C 0.89758 0.47587 0.09831 0.0
C738 C 0.91978 0.51331 0.01507 0.0
C739 C 0.90932 0.52628 0.95336 0.0
C740 C 0.92202 0.53871 0.88528 0.0
C741 C 0.946 0.53824 0.88065 0.0
C742 C 0.95732 0.52578 0.94419 0.0
C743 C 0.94384 0.51269 0.01147 0.0
H744 H 0.01082 0.22654 0.42264 0.0
H745 H 0.07768 0.27295 0.39952 0.0
H746 H 0.0921 0.24813 0.30914 0.0
H747 H 0.03191 0.17382 0.44228 0.0
H748 H 0.01002 0.15811 0.38768 0.0
H749 H 1.0032 0.182 0.43559 0.0
H750 H 0.01036 0.21111 0.21688 0.0
H751 H 0.99076 0.20476 0.30318 0.0
H752 H 0.99672 0.18066 0.25415 0.0
H753 H 0.10063 0.2143 0.2371 0.0
H754 H 0.10191 0.17686 0.18422 0.0
H755 H 0.02956 0.15188 0.26011 0.0
C756 C 0.02821 0.23205 0.39587 0.0
C757 C 0.04305 0.25193 0.41708 0.0
C758 C 0.06588 0.25819 0.38267 0.0
C759 C 0.07423 0.24401 0.33189 0.0
C760 C 0.05948 0.22373 0.31573 0.0
C761 C 0.03678 0.21804 0.34587 0.0
C762 C 0.025 0.19424 0.3262 0.0
C763 C 0.01709 0.17597 0.40248 0.0
C764 C 1.0045 0.19792 0.27185 0.0
C765 C 0.04475 0.18693 0.28215 0.0
C766 C 0.06445 0.20424 0.27596 0.0
C767 C 0.08519 0.20083 0.24102 0.0
C768 C 0.0858 0.17932 0.21175 0.0
C769 C 0.06585 0.16122 0.21775 0.0
C770 C 0.04504 0.16538 0.2531 0.0
H771 H 0.35668 0.08178 0.52425 0.0
H772 H 0.31262 0.02264 0.44534 0.0
H773 H 0.33674 0.02961 0.32067 0.0
H774 H 0.37474 0.11967 0.32004 0.0
H775 H 0.40387 0.12765 0.35227 0.0
H776 H 0.37945 0.12265 0.42244 0.0
H777 H 0.39896 0.09103 0.51388 0.0
H778 H 0.42312 0.09542 0.44368 0.0
H779 H 0.4067 0.06577 0.47491 0.0
H780 H 0.37035 0.03722 0.22 0.0
H781 H 0.40882 0.04608 0.14932 0.0
H782 H 0.43219 0.09868 0.299 0.0
C783 C 0.35146 0.07108 0.47885 0.0
C784 C 0.33264 0.05183 0.49402 0.0
C785 C 0.32662 0.03781 0.43425 0.0
C786 C 0.34039 0.04154 0.36351 0.0
C787 C 0.35997 0.0595 0.35328 0.0
C788 C 0.36525 0.07433 0.40893 0.0
C789 C 0.38895 0.08979 0.39058 0.0
C790 C 0.38661 0.11653 0.37009 0.0
C791 C 0.40538 0.08521 0.45984 0.0
C792 C 0.39672 0.08062 0.31804 0.0
C793 C 0.37962 0.06347 0.29647 0.0
C794 C 0.38363 0.05096 0.2355 0.0
C795 C 0.40565 0.05596 0.19619 0.0
C796 C 0.42357 0.07314 0.21842 0.0
C797 C 0.41875 0.08587 0.27928 0.0
H798 H 0.51593 0.36664 0.28787 0.0
H799 H 0.55212 0.33379 0.12235 0.0
H800 H 0.55063 0.36913 0.01736 0.0
H801 H 0.47931 0.39845 0.14163 0.0
H802 H 0.48245 0.4243 0.19054 0.0
H803 H 0.4829 0.39481 0.24768 0.0
H804 H 0.52281 0.41016 0.3018 0.0
H805 H 0.52264 0.43958 0.24434 0.0
H806 H 0.54671 0.4239 0.23263 0.0
H807 H 0.55003 0.41054 0.93639 0.0
H808 H 0.54867 0.45324 0.88431 0.0
H809 H 0.51375 0.45958 0.10428 0.0
C810 C 0.52313 0.36661 0.22906 0.0
C811 C 0.53415 0.34732 0.2135 0.0
C812 C 0.54328 0.34807 0.13558 0.0
C813 C 0.54265 0.3682 0.07569 0.0
C814 C 0.53267 0.38738 0.09439 0.0
C815 C 0.52281 0.38658 0.16903 0.0
C816 C 0.51486 0.41022 0.17624 0.0
C817 C 0.4883 0.40673 0.1898 0.0
C818 C 0.52751 0.42163 0.24267 0.0
C819 C 0.52236 0.42476 0.09466 0.0
C820 C 0.53242 0.4112 0.04807 0.0
C821 C 0.54188 0.42116 0.97205 0.0
C822 C 0.54111 0.44554 0.9431 0.0
C823 C 0.53101 0.45987 0.98993 0.0
C824 C 0.52131 0.44913 0.06646 0.0
H825 H 0.20452 0.4916 0.5786 0.0
H826 H 0.25285 0.54531 0.42239 0.0
H827 H 0.22734 0.53999 0.30989 0.0
H828 H 0.18116 0.45385 0.4269 0.0
H829 H 0.15212 0.44961 0.47046 0.0
H830 H 0.17692 0.45281 0.53242 0.0
H831 H 0.16182 0.48809 0.58312 0.0
H832 H 0.13724 0.4853 0.52065 0.0
H833 H 0.15641 0.51367 0.51222 0.0
H834 H 0.19327 0.5345 0.22115 0.0
H835 H 0.15456 0.52849 0.16326 0.0
H836 H 0.12714 0.4808 0.38085 0.0
C837 C 0.21016 0.50167 0.5201 0.0
C838 C 0.2308 0.51883 0.50948 0.0
C839 C 0.23743 0.53173 0.43202 0.0
C840 C 0.2229 0.52895 0.36776 0.0
C841 C 0.20185 0.51313 0.38181 0.0
C842 C 0.19563 0.49949 0.45606 0.0
C843 C 0.1708 0.4864 0.45892 0.0
C844 C 0.17022 0.45904 0.47298 0.0
C845 C 0.15569 0.49382 0.52244 0.0
C846 C 0.16365 0.4955 0.37559 0.0
C847 C 0.18192 0.51055 0.33152 0.0
C848 C 0.17899 0.52247 0.25481 0.0
C849 C 0.15684 0.51912 0.22272 0.0
C850 C 0.13773 0.50419 0.2675 0.0
C851 C 0.14143 0.49195 0.34445 0.0
H852 H 1.00426 0.86369 0.30073 0.0
H853 H 0.02926 0.80868 0.46996 0.0
H854 H 0.026 0.83297 0.57653 0.0
H855 H 0.03653 0.91243 0.36661 0.0
H856 H 0.01464 0.93165 0.34935 0.0
H857 H 0.01563 0.90839 0.29089 0.0
H858 H 0.97272 0.89055 0.33278 0.0
H859 H 0.97147 0.91392 0.39083 0.0
H860 H 0.96413 0.8828 0.43705 0.0
H861 H 0.02346 0.86619 0.6614 0.0
H862 H 0.0206 0.9031 0.71592 0.0
H863 H 0.99953 0.93672 0.48611 0.0
C864 C 1.0086 0.85645 0.36066 0.0
C865 C 0.01698 0.83419 0.37704 0.0
C866 C 0.02252 0.82547 0.45617 0.0
C867 C 0.02088 0.83928 0.51683 0.0
C868 C 0.01355 0.86172 0.49744 0.0
C869 C 1.0073 0.87004 0.4211 0.0
C870 C 1.00153 0.89529 0.41313 0.0
C871 C 0.01807 0.91297 0.35136 0.0
C872 C 0.97594 0.89565 0.39223 0.0
C873 C 1.00581 0.90023 0.49668 0.0
C874 C 0.01256 0.88066 0.54487 0.0
C875 C 0.01806 0.88149 0.62396 0.0
C876 C 0.01658 0.90271 0.65429 0.0
C877 C 0.00979 0.92308 0.60576 0.0
C878 C 1.00433 0.92152 0.52582 0.0
H879 H 0.72241 0.04493 0.34916 0.0
H880 H 0.73236 0.97237 0.33128 0.0
H881 H 0.70478 0.95647 0.44602 0.0
H882 H 0.71259 0.03504 0.57163 0.0
H883 H 0.69069 0.05434 0.56286 0.0
H884 H 0.71461 0.0601 0.49049 0.0
H885 H 0.68526 0.05871 0.37758 0.0
H886 H 0.66128 0.05255 0.44935 0.0
H887 H 0.66359 0.03233 0.38024 0.0
H888 H 0.67123 0.9482 0.54719 0.0
H889 H 0.63645 0.94839 0.63116 0.0
H890 H 0.64846 0.02645 0.58305 0.0
C891 C 0.71933 0.02574 0.37099 0.0
C892 C 0.72968 1.00991 0.33156 0.0
C893 C 0.72503 0.98489 0.36142 0.0
C894 C 0.70923 0.97568 0.42627 0.0
C895 C 0.69842 0.99173 0.46111 0.0
C896 C 0.70357 0.01629 0.43527 0.0
C897 C 0.68801 0.02958 0.47734 0.0
C898 C 0.70233 0.04572 0.52864 0.0
C899 C 0.6737 0.04414 0.41755 0.0
C900 C 0.67266 1.00863 0.5286 0.0
C901 C 0.67908 0.98696 0.51921 0.0
C902 C 0.66639 0.96509 0.55635 0.0
C903 C 0.64665 0.9654 0.60415 0.0
C904 C 0.63966 0.98743 0.6142 0.0
C905 C 0.65315 1.00927 0.57643 0.0
H906 H 0.56511 0.70754 0.50623 0.0
H907 H 0.53032 0.7428 0.66786 0.0
H908 H 0.52862 0.70662 0.77292 0.0
H909 H 0.53118 0.65161 0.55756 0.0
H910 H 0.55431 0.63453 0.54798 0.0
H911 H 0.55589 0.66425 0.49075 0.0
H912 H 0.59585 0.6774 0.54894 0.0
H913 H 0.59454 0.64759 0.60584 0.0
H914 H 0.59858 0.67331 0.65543 0.0
H915 H 0.52647 0.66436 0.85375 0.0
H916 H 0.52578 0.6212 0.90526 0.0
H917 H 0.56181 0.61397 0.68848 0.0
C918 C 0.55757 0.70785 0.56436 0.0
C919 C 0.54786 0.72796 0.57911 0.0
C920 C 0.5381 0.7277 0.65571 0.0
C921 C 0.53696 0.70718 0.71543 0.0
C922 C 0.54587 0.68725 0.6976 0.0
C923 C 0.55625 0.68762 0.62404 0.0
C924 C 0.56304 0.66349 0.61721 0.0
C925 C 0.55034 0.65285 0.54938 0.0
C926 C 0.58958 0.66558 0.60623 0.0
C927 C 0.55442 0.64918 0.69786 0.0
C928 C 0.54468 0.66317 0.74369 0.0
C929 C 0.53439 0.65341 0.81873 0.0
C930 C 0.53404 0.6288 0.84741 0.0
C931 C 0.54391 0.61413 0.80128 0.0
C932 C 0.55437 0.62466 0.72578 0.0
H933 H 0.87389 0.58368 0.23811 0.0
H934 H 0.81706 0.54914 0.4047 0.0
H935 H 0.84246 0.55614 0.51735 0.0
H936 H 0.91666 0.55762 0.33802 0.0
H937 H 0.93932 0.58338 0.31492 0.0
H938 H 0.91567 0.57949 0.24904 0.0
H939 H 0.90608 0.62156 0.26118 0.0
H940 H 0.92996 0.62567 0.32644 0.0
H941 H 0.90108 0.62868 0.35838 0.0
H942 H 0.87604 0.56168 0.60999 0.0
H943 H 0.91385 0.56646 0.67451 0.0
H944 H 0.94826 0.59795 0.44522 0.0
C945 C 0.86663 0.57817 0.29842 0.0
C946 C 0.84358 0.56592 0.31323 0.0
C947 C 0.83462 0.55878 0.39253 0.0
C948 C 0.84895 0.56262 0.45658 0.0
C949 C 0.872 0.57388 0.43979 0.0
C950 C 0.88064 0.58183 0.36241 0.0
C951 C 0.90642 0.59147 0.35935 0.0
C952 C 0.92032 0.57713 0.31261 0.0
C953 C 0.91115 0.61845 0.32429 0.0
C954 C 0.91122 0.58703 0.44708 0.0
C955 C 0.89117 0.5771 0.49274 0.0
C956 C 0.89173 0.56992 0.57492 0.0
C957 C 0.91332 0.5728 0.61111 0.0
C958 C 0.93411 0.58271 0.56513 0.0
C959 C 0.93279 0.59022 0.4822 0.0
loop_
_geom_bond_atom_site_label_1
_geom_bond_atom_site_label_2
_geom_bond_distance
_geom_bond_site_symmetry_2
_ccdc_geom_bond_type
H0 C1 0.949 . S
C1 H0 0.949 . S
C1 C2 1.395 . S
C1 C3 1.391 1_556 S
C2 C1 1.395 . S
C2 C5 1.390 1_556 S
C3 C1 1.391 1_554 S
C3 C7 1.387 . S
C3 C8 1.491 . S
H4 C5 0.950 . S
C5 C2 1.390 1_554 S
C5 H4 0.950 . S
C5 C6 1.378 . S
C6 C5 1.378 . S
C6 C7 1.409 . S
C7 C3 1.387 . S
C7 C6 1.409 . S
C7 H9 0.951 . S
C8 C3 1.491 . S
C8 C10 1.382 1_554 S
C8 C12 1.404 . S
H9 C7 0.951 . S
C10 C8 1.382 1_556 S
C10 C11 1.390 . S
C10 H15 0.949 . S
C11 C10 1.390 . S
C11 C16 1.398 . S
C12 C8 1.404 . S
C12 H13 0.950 . S
C12 C14 1.375 . S
H13 C12 0.950 . S
C14 C12 1.375 . S
C14 C16 1.383 1_554 S
C14 H18 0.950 . S
H15 C10 0.949 . S
C16 C11 1.398 . S
C16 C14 1.383 1_556 S
C16 H17 0.951 . S
H17 C16 0.951 . S
H18 C14 0.950 . S
H19 C20 0.949 . S
C20 H19 0.949 . S
C20 C21 1.395 . S
C20 C22 1.391 . S
C21 C20 1.395 . S
C21 C24 1.390 . S
C22 C20 1.391 . S
C22 C26 1.387 . S
C22 C27 1.491 . S
H23 C24 0.950 . S
C24 C21 1.390 . S
C24 H23 0.950 . S
C24 C25 1.378 . S
C25 C24 1.378 . S
C25 C26 1.409 . S
C26 C22 1.387 . S
C26 C25 1.409 . S
C26 H28 0.951 . S
C27 C22 1.491 . S
C27 C29 1.382 . S
C27 C31 1.404 . S
H28 C26 0.951 . S
C29 C27 1.382 . S
C29 C30 1.390 . S
C29 H34 0.936 1_655 S
C30 C29 1.390 . S
C30 C35 1.399 . S
C31 C27 1.404 . S
C31 H32 0.950 . S
C31 C33 1.375 . S
H32 C31 0.950 . S
C33 C31 1.375 . S
C33 C35 1.382 . S
C33 H37 0.950 . S
H34 C29 0.936 1_455 S
C35 C30 1.399 . S
C35 C33 1.382 . S
C35 H36 0.952 . S
H36 C35 0.952 . S
H37 C33 0.950 . S
H38 C39 0.949 1_556 S
C39 H38 0.949 1_554 S
C39 C40 1.395 . S
C39 C41 1.391 . S
C40 C39 1.395 . S
C40 C43 1.390 . S
C41 C39 1.391 . S
C41 C45 1.387 . S
C41 C46 1.491 . S
H42 C43 0.950 . S
C43 C40 1.390 . S
C43 H42 0.950 . S
C43 C44 1.378 . S
C44 C43 1.378 . S
C44 C45 1.409 . S
C45 C41 1.387 . S
C45 C44 1.409 . S
C45 H47 0.951 . S
C46 C41 1.491 . S
C46 C48 1.382 . S
C46 C50 1.404 . S
H47 C45 0.951 . S
C48 C46 1.382 . S
C48 C49 1.390 . S
C48 H53 0.949 1_554 S
C49 C48 1.390 . S
C49 C54 1.399 . S
C50 C46 1.404 . S
C50 H51 0.950 . S
C50 C52 1.375 . S
H51 C50 0.950 . S
C52 C50 1.375 . S
C52 C54 1.382 . S
C52 H56 0.950 . S
H53 C48 0.949 1_556 S
C54 C49 1.399 . S
C54 C52 1.382 . S
C54 H55 0.952 . S
H55 C54 0.952 . S
H56 C52 0.950 . S
H57 C58 0.949 . S
C58 H57 0.949 . S
C58 C59 1.395 . S
C58 C60 1.391 . S
C59 C58 1.395 . S
C59 C62 1.390 . S
C60 C58 1.391 . S
C60 C64 1.387 . S
C60 C65 1.491 . S
H61 C62 0.950 . S
C62 C59 1.390 . S
C62 H61 0.950 . S
C62 C63 1.378 . S
C63 C62 1.378 . S
C63 C64 1.409 . S
C64 C60 1.387 . S
C64 C63 1.409 . S
C64 H66 0.951 . S
C65 C60 1.491 . S
C65 C67 1.382 . S
C65 C69 1.404 . S
H66 C64 0.951 . S
C67 C65 1.382 . S
C67 C68 1.390 . S
C67 H72 0.949 . S
C68 C67 1.390 . S
C68 C73 1.399 . S
C69 C65 1.404 . S
C69 H70 0.950 . S
C69 C71 1.375 . S
H70 C69 0.950 . S
C71 C69 1.375 . S
C71 C73 1.382 . S
C71 H75 0.950 . S
H72 C67 0.949 . S
C73 C68 1.399 . S
C73 C71 1.382 . S
C73 H74 0.952 . S
H74 C73 0.952 . S
H75 C71 0.950 . S
H76 C77 0.949 . S
C77 H76 0.949 . S
C77 C78 1.395 . S
C77 C79 1.391 . S
C78 C77 1.395 . S
C78 C81 1.390 . S
C79 C77 1.391 . S
C79 C83 1.387 . S
C79 C84 1.491 . S
H80 C81 0.950 . S
C81 C78 1.390 . S
C81 H80 0.950 . S
C81 C82 1.378 . S
C82 C81 1.378 . S
C82 C83 1.409 . S
C83 C79 1.387 . S
C83 C82 1.409 . S
C83 H85 0.951 . S
C84 C79 1.491 . S
C84 C86 1.382 . S
C84 C88 1.404 . S
H85 C83 0.951 . S
C86 C84 1.382 . S
C86 C87 1.390 . S
C86 H91 0.949 . S
C87 C86 1.390 . S
C87 C92 1.399 . S
C88 C84 1.404 . S
C88 H89 0.950 . S
C88 C90 1.375 . S
H89 C88 0.950 . S
C90 C88 1.375 . S
C90 C92 1.382 . S
C90 H94 0.950 . S
H91 C86 0.949 . S
C92 C87 1.399 . S
C92 C90 1.382 . S
C92 H93 0.952 . S
H93 C92 0.952 . S
H94 C90 0.950 . S
H95 C96 0.949 . S
C96 H95 0.949 . S
C96 C97 1.395 . S
C96 C98 1.391 . S
C97 C96 1.395 . S
C97 C100 1.390 . S
C98 C96 1.391 . S
C98 C102 1.387 . S
C98 C103 1.491 . S
H99 C100 0.950 . S
C100 C97 1.390 . S
C100 H99 0.950 . S
C100 C101 1.378 . S
C101 C100 1.378 . S
C101 C102 1.409 . S
C102 C98 1.387 . S
C102 C101 1.409 . S
C102 H104 0.951 . S
C103 C98 1.491 . S
C103 C105 1.382 . S
C103 C107 1.404 . S
H104 C102 0.951 . S
C105 C103 1.382 . S
C105 C106 1.390 . S
C105 H110 0.949 . S
C106 C105 1.390 . S
C106 C111 1.399 . S
C107 C103 1.404 . S
C107 H108 0.950 . S
C107 C109 1.375 . S
H108 C107 0.950 . S
C109 C107 1.375 . S
C109 C111 1.382 . S
C109 H113 0.950 . S
H110 C105 0.949 . S
C111 C106 1.399 . S
C111 C109 1.382 . S
C111 H112 0.952 . S
H112 C111 0.952 . S
H113 C109 0.950 . S
H114 C115 0.949 . S
C115 H114 0.949 . S
C115 C116 1.395 . S
C115 C117 1.391 . S
C116 C115 1.395 . S
C116 C119 1.390 . S
C117 C115 1.391 . S
C117 C121 1.387 . S
C117 C122 1.491 . S
H118 C119 0.950 . S
C119 C116 1.390 . S
C119 H118 0.950 . S
C119 C120 1.378 . S
C120 C119 1.378 . S
C120 C121 1.409 . S
C121 C117 1.387 . S
C121 C120 1.409 . S
C121 H123 0.951 . S
C122 C117 1.491 . S
C122 C124 1.382 . S
C122 C126 1.404 . S
H123 C121 0.951 . S
C124 C122 1.382 . S
C124 C125 1.390 . S
C124 H129 0.949 . S
C125 C124 1.390 . S
C125 C130 1.399 . S
C126 C122 1.404 . S
C126 H127 0.950 . S
C126 C128 1.375 . S
H127 C126 0.950 . S
C128 C126 1.375 . S
C128 C130 1.382 . S
C128 H132 0.950 . S
H129 C124 0.949 . S
C130 C125 1.399 . S
C130 C128 1.382 . S
C130 H131 0.952 . S
H131 C130 0.952 . S
H132 C128 0.950 . S
H133 C134 0.949 . S
C134 H133 0.949 . S
C134 C135 1.395 . S
C134 C136 1.391 . S
C135 C134 1.395 . S
C135 C138 1.390 . S
C136 C134 1.391 . S
C136 C140 1.387 . S
C136 C141 1.491 . S
H137 C138 0.950 . S
C138 C135 1.390 . S
C138 H137 0.950 . S
C138 C139 1.378 . S
C139 C138 1.378 . S
C139 C140 1.409 . S
C140 C136 1.387 . S
C140 C139 1.409 . S
C140 H142 0.951 . S
C141 C136 1.491 . S
C141 C143 1.382 . S
C141 C145 1.404 . S
H142 C140 0.951 . S
C143 C141 1.382 . S
C143 C144 1.390 . S
C143 H148 0.949 . S
C144 C143 1.390 . S
C144 C149 1.399 . S
C145 C141 1.404 . S
C145 H146 0.950 . S
C145 C147 1.375 . S
H146 C145 0.950 . S
C147 C145 1.375 . S
C147 C149 1.382 . S
C147 H151 0.950 . S
H148 C143 0.949 . S
C149 C144 1.399 . S
C149 C147 1.382 . S
C149 H150 0.952 . S
H150 C149 0.952 . S
H151 C147 0.950 . S
Nd152 C154 2.836 1_545 S
Nd152 O172 2.500 1_545 S
Nd152 O173 2.492 1_545 S
Nd152 O174 2.487 . S
Nd152 O175 2.682 . S
Nd152 O176 2.410 1_545 S
Nd152 O181 2.405 1_455 S
Nd152 O183 2.424 . S
Nd153 C163 2.836 . S
Nd153 O175 2.414 1_554 S
Nd153 O177 2.424 1_545 S
Nd153 O178 2.500 . S
Nd153 O179 2.492 . S
Nd153 O180 2.487 1_455 S
Nd153 O181 2.674 1_454 S
Nd153 O182 2.410 1_554 S
C154 Nd152 2.836 1_565 S
C154 C155 1.498 . S
C154 O172 1.258 . S
C154 O173 1.239 . S
C155 C154 1.498 . S
C155 C156 1.366 1_455 S
C155 C160 1.407 . S
C156 C155 1.366 1_655 S
C156 C157 1.392 . S
C156 H184 0.930 . S
C157 C156 1.392 . S
C157 C158 1.398 1_655 S
C157 H185 0.929 . S
C158 C157 1.398 1_455 S
C158 C159 1.352 . S
C159 C158 1.352 . S
C159 C160 1.384 . S
C159 H186 0.930 . S
C160 C155 1.407 . S
C160 C159 1.384 . S
C160 H187 0.929 . S
C161 O174 1.241 . S
C161 O175 1.273 . S
C162 O176 1.251 . S
C162 O177 1.268 1_556 S
C163 Nd153 2.836 . S
C163 C164 1.498 . S
C163 O178 1.258 . S
C163 O179 1.239 . S
C164 C163 1.498 . S
C164 C165 1.366 . S
C164 C169 1.407 . S
C165 C164 1.366 . S
C165 C166 1.392 . S
C165 H188 0.930 . S
C166 C165 1.392 . S
C166 C167 1.398 . S
C166 H189 0.929 . S
C167 C166 1.398 . S
C167 C168 1.352 . S
C168 C167 1.352 . S
C168 C169 1.384 . S
C168 H190 0.930 . S
C169 C164 1.407 . S
C169 C168 1.384 . S
C169 H191 0.929 . S
C170 O180 1.241 1_556 S
C170 O181 1.285 . S
C171 O182 1.251 . S
C171 O183 1.268 . S
O172 Nd152 2.500 1_565 S
O172 C154 1.258 . S
O173 Nd152 2.492 1_565 S
O173 C154 1.239 . S
O174 Nd152 2.487 . S
O174 C161 1.241 . S
O175 Nd152 2.682 . S
O175 Nd153 2.414 1_556 S
O175 C161 1.273 . S
O176 Nd152 2.410 1_565 S
O176 C162 1.251 . S
O177 Nd153 2.424 1_565 S
O177 C162 1.268 1_554 S
O178 Nd153 2.500 . S
O178 C163 1.258 . S
O179 Nd153 2.492 . S
O179 C163 1.239 . S
O180 Nd153 2.487 1_655 S
O180 C170 1.241 1_554 S
O181 Nd152 2.405 1_655 S
O181 Nd153 2.674 1_656 S
O181 C170 1.285 . S
O182 Nd153 2.410 1_556 S
O182 C171 1.251 . S
O183 Nd152 2.424 . S
O183 C171 1.268 . S
H184 C156 0.930 . S
H185 C157 0.929 . S
H186 C159 0.930 . S
H187 C160 0.929 . S
H188 C165 0.930 . S
H189 C166 0.929 . S
H190 C168 0.930 . S
H191 C169 0.929 . S
Nd192 C194 2.836 . S
Nd192 O212 2.500 1_545 S
Nd192 O213 2.492 . S
Nd192 O214 2.487 . S
Nd192 O215 2.682 . S
Nd192 O216 2.410 . S
Nd192 O221 2.413 1_545 S
Nd192 O223 2.424 . S
Nd193 C203 2.836 . S
Nd193 O215 2.414 1_554 S
Nd193 O217 2.424 1_554 S
Nd193 O218 2.500 . S
Nd193 O219 2.492 . S
Nd193 O220 2.487 1_545 S
Nd193 O221 2.677 1_544 S
Nd193 O222 2.410 1_554 S
C194 Nd192 2.836 . S
C194 C195 1.498 1_545 S
C194 O212 1.258 1_545 S
C194 O213 1.239 . S
C195 C194 1.498 1_565 S
C195 C196 1.366 . S
C195 C200 1.407 1_565 S
C196 C195 1.366 . S
C196 C197 1.392 . S
C196 H224 0.930 . S
C197 C196 1.392 . S
C197 C198 1.398 . S
C197 H225 0.929 . S
C198 C197 1.398 . S
C198 C199 1.352 1_565 S
C199 C198 1.352 1_545 S
C199 C200 1.384 . S
C199 H226 0.930 . S
C200 C195 1.407 1_545 S
C200 C199 1.384 . S
C200 H227 0.929 . S
C201 O214 1.241 . S
C201 O215 1.273 . S
C202 O216 1.251 . S
C202 O217 1.268 . S
C203 Nd193 2.836 . S
C203 C204 1.498 . S
C203 O218 1.258 . S
C203 O219 1.239 . S
C204 C203 1.498 . S
C204 C205 1.366 . S
C204 C209 1.407 . S
C205 C204 1.366 . S
C205 C206 1.392 . S
C205 H228 0.930 . S
C206 C205 1.392 . S
C206 C207 1.398 . S
C206 H229 0.929 . S
C207 C206 1.398 . S
C207 C208 1.352 . S
C208 C207 1.352 . S
C208 C209 1.384 . S
C208 H230 0.930 . S
C209 C204 1.407 . S
C209 C208 1.384 . S
C209 H231 0.929 . S
C210 O220 1.241 1_556 S
C210 O221 1.276 . S
C211 O222 1.251 . S
C211 O223 1.268 . S
O212 Nd192 2.500 1_565 S
O212 C194 1.258 1_565 S
O213 Nd192 2.492 . S
O213 C194 1.239 . S
O214 Nd192 2.487 . S
O214 C201 1.241 . S
O215 Nd192 2.682 . S
O215 Nd193 2.414 1_556 S
O215 C201 1.273 . S
O216 Nd192 2.410 . S
O216 C202 1.251 . S
O217 Nd193 2.424 1_556 S
O217 C202 1.268 . S
O218 Nd193 2.500 . S
O218 C203 1.258 . S
O219 Nd193 2.492 . S
O219 C203 1.239 . S
O220 Nd193 2.487 1_565 S
O220 C210 1.241 1_554 S
O221 Nd192 2.413 1_565 S
O221 Nd193 2.677 1_566 S
O221 C210 1.276 . S
O222 Nd193 2.410 1_556 S
O222 C211 1.251 . S
O223 Nd192 2.424 . S
O223 C211 1.268 . S
H224 C196 0.930 . S
H225 C197 0.929 . S
H226 C199 0.930 . S
H227 C200 0.929 . S
H228 C205 0.930 . S
H229 C206 0.929 . S
H230 C208 0.930 . S
H231 C209 0.929 . S
Nd232 C234 2.836 . S
Nd232 O252 2.500 . S
Nd232 O253 2.492 . S
Nd232 O254 2.487 1_554 S
Nd232 O255 2.682 1_554 S
Nd232 O256 2.410 1_554 S
Nd232 O261 2.414 1_554 S
Nd232 O263 2.424 . S
Nd233 C243 2.836 . S
Nd233 O255 2.414 . S
Nd233 O257 2.424 . S
Nd233 O258 2.500 . S
Nd233 O259 2.492 . S
Nd233 O260 2.487 . S
Nd233 O261 2.682 . S
Nd233 O262 2.410 . S
C234 Nd232 2.836 . S
C234 C235 1.498 . S
C234 O252 1.258 . S
C234 O253 1.239 . S
C235 C234 1.498 . S
C235 C236 1.366 . S
C235 C240 1.407 . S
C236 C235 1.366 . S
C236 C237 1.392 . S
C236 H264 0.930 . S
C237 C236 1.392 . S
C237 C238 1.398 . S
C237 H265 0.929 . S
C238 C237 1.398 . S
C238 C239 1.352 . S
C239 C238 1.352 . S
C239 C240 1.384 . S
C239 H266 0.930 . S
C240 C235 1.407 . S
C240 C239 1.384 . S
C240 H267 0.929 . S
C241 O254 1.241 . S
C241 O255 1.273 . S
C242 O256 1.251 . S
C242 O257 1.268 . S
C243 Nd233 2.836 . S
C243 C244 1.498 . S
C243 O258 1.258 . S
C243 O259 1.239 . S
C244 C243 1.498 . S
C244 C245 1.366 . S
C244 C249 1.407 . S
C245 C244 1.366 . S
C245 C246 1.392 . S
C245 H268 0.930 . S
C246 C245 1.392 . S
C246 C247 1.398 . S
C246 H269 0.929 . S
C247 C246 1.398 . S
C247 C248 1.352 . S
C248 C247 1.352 . S
C248 C249 1.384 . S
C248 H270 0.930 . S
C249 C244 1.407 . S
C249 C248 1.384 . S
C249 H271 0.929 . S
C250 O260 1.241 . S
C250 O261 1.273 . S
C251 O262 1.251 . S
C251 O263 1.268 1_556 S
O252 Nd232 2.500 . S
O252 C234 1.258 . S
O253 Nd232 2.492 . S
O253 C234 1.239 . S
O254 Nd232 2.487 1_556 S
O254 C241 1.241 . S
O255 Nd232 2.682 1_556 S
O255 Nd233 2.414 . S
O255 C241 1.273 . S
O256 Nd232 2.410 1_556 S
O256 C242 1.251 . S
O257 Nd233 2.424 . S
O257 C242 1.268 . S
O258 Nd233 2.500 . S
O258 C243 1.258 . S
O259 Nd233 2.492 . S
O259 C243 1.239 . S
O260 Nd233 2.487 . S
O260 C250 1.241 . S
O261 Nd232 2.414 1_556 S
O261 Nd233 2.682 . S
O261 C250 1.273 . S
O262 Nd233 2.410 . S
O262 C251 1.251 . S
O263 Nd232 2.424 . S
O263 C251 1.268 1_554 S
H264 C236 0.930 . S
H265 C237 0.929 . S
H266 C239 0.930 . S
H267 C240 0.929 . S
H268 C245 0.930 . S
H269 C246 0.929 . S
H270 C248 0.930 . S
H271 C249 0.929 . S
Nd272 C274 2.836 1_455 S
Nd272 O292 2.500 1_455 S
Nd272 O293 2.492 1_455 S
Nd272 O294 2.487 . S
Nd272 O295 2.682 . S
Nd272 O296 2.410 1_455 S
Nd272 O301 2.414 . S
Nd272 O303 2.424 . S
Nd273 C283 2.836 . S
Nd273 O295 2.414 1_554 S
Nd273 O297 2.424 1_454 S
Nd273 O298 2.500 . S
Nd273 O299 2.492 . S
Nd273 O300 2.487 . S
Nd273 O301 2.682 1_554 S
Nd273 O302 2.410 1_554 S
C274 Nd272 2.836 1_655 S
C274 C275 1.498 . S
C274 O292 1.258 . S
C274 O293 1.239 . S
C275 C274 1.498 . S
C275 C276 1.366 . S
C275 C280 1.407 . S
C276 C275 1.366 . S
C276 C277 1.392 . S
C276 H304 0.930 . S
C277 C276 1.392 . S
C277 C278 1.398 . S
C277 H305 0.929 . S
C278 C277 1.398 . S
C278 C279 1.352 . S
C279 C278 1.352 . S
C279 C280 1.384 . S
C279 H306 0.930 . S
C280 C275 1.407 . S
C280 C279 1.384 . S
C280 H307 0.929 . S
C281 O294 1.241 . S
C281 O295 1.273 . S
C282 O296 1.251 . S
C282 O297 1.268 . S
C283 Nd273 2.836 . S
C283 C284 1.498 . S
C283 O298 1.258 . S
C283 O299 1.239 . S
C284 C283 1.498 . S
C284 C285 1.366 . S
C284 C289 1.407 . S
C285 C284 1.366 . S
C285 C286 1.392 . S
C285 H308 0.930 . S
C286 C285 1.392 . S
C286 C287 1.398 . S
C286 H309 0.929 . S
C287 C286 1.398 . S
C287 C288 1.352 . S
C288 C287 1.352 . S
C288 C289 1.384 . S
C288 H310 0.930 . S
C289 C284 1.407 . S
C289 C288 1.384 . S
C289 H311 0.929 . S
C290 O300 1.241 1_556 S
C290 O301 1.273 . S
C291 O302 1.251 . S
C291 O303 1.268 . S
O292 Nd272 2.500 1_655 S
O292 C274 1.258 . S
O293 Nd272 2.492 1_655 S
O293 C274 1.239 . S
O294 Nd272 2.487 . S
O294 C281 1.241 . S
O295 Nd272 2.682 . S
O295 Nd273 2.414 1_556 S
O295 C281 1.273 . S
O296 Nd272 2.410 1_655 S
O296 C282 1.251 . S
O297 Nd273 2.424 1_656 S
O297 C282 1.268 . S
O298 Nd273 2.500 . S
O298 C283 1.258 . S
O299 Nd273 2.492 . S
O299 C283 1.239 . S
O300 Nd273 2.487 . S
O300 C290 1.241 1_554 S
O301 Nd272 2.414 . S
O301 Nd273 2.682 1_556 S
O301 C290 1.273 . S
O302 Nd273 2.410 1_556 S
O302 C291 1.251 . S
O303 Nd272 2.424 . S
O303 C291 1.268 . S
H304 C276 0.930 . S
H305 C277 0.929 . S
H306 C279 0.930 . S
H307 C280 0.929 . S
H308 C285 0.930 . S
H309 C286 0.929 . S
H310 C288 0.930 . S
H311 C289 0.929 . S
H312 C324 0.930 . S
H313 C326 0.930 . S
H314 C327 0.930 . S
H315 C331 0.959 . S
H316 C331 0.959 1_554 S
H317 C331 0.961 . S
H318 C332 0.960 . S
H319 C332 0.961 . S
H320 C332 0.959 . S
H321 C335 0.929 . S
H322 C336 0.931 . S
H323 C338 0.930 . S
C324 H312 0.930 . S
C324 C325 1.399 . S
C324 C329 1.399 . S
C325 C324 1.399 . S
C325 C326 1.376 . S
C326 H313 0.930 . S
C326 C325 1.376 . S
C326 C327 1.388 . S
C327 H314 0.930 . S
C327 C326 1.388 . S
C327 C328 1.390 . S
C328 C327 1.390 . S
C328 C329 1.394 . S
C328 C334 1.465 . S
C329 C324 1.399 . S
C329 C328 1.394 . S
C329 C330 1.516 . S
C330 C329 1.516 . S
C330 C331 1.502 . S
C330 C332 1.561 1_556 S
C330 C333 1.526 . S
C331 H315 0.959 . S
C331 H316 0.959 1_556 S
C331 H317 0.961 . S
C331 C330 1.502 . S
C332 H318 0.960 . S
C332 H319 0.961 . S
C332 H320 0.959 . S
C332 C330 1.561 1_554 S
C333 C330 1.526 . S
C333 C334 1.396 . S
C333 C338 1.390 . S
C334 C328 1.465 . S
C334 C333 1.396 . S
C334 C335 1.399 . S
C335 H321 0.929 . S
C335 C334 1.399 . S
C335 C336 1.385 . S
C336 H322 0.931 . S
C336 C335 1.385 . S
C336 C337 1.389 . S
C337 C336 1.389 . S
C337 C338 1.387 . S
C338 H323 0.930 . S
C338 C333 1.390 . S
C338 C337 1.387 . S
H339 C351 0.930 . S
H340 C353 0.930 . S
H341 C354 0.930 . S
H342 C358 0.959 . S
H343 C358 0.959 . S
H344 C358 0.961 . S
H345 C359 0.960 . S
H346 C359 0.961 . S
H347 C359 0.959 . S
H348 C362 0.929 . S
H349 C363 0.931 . S
H350 C365 0.930 . S
C351 H339 0.930 . S
C351 C352 1.399 . S
C351 C356 1.399 . S
C352 C351 1.399 . S
C352 C353 1.376 . S
C353 H340 0.930 . S
C353 C352 1.376 . S
C353 C354 1.388 . S
C354 H341 0.930 . S
C354 C353 1.388 . S
C354 C355 1.390 . S
C355 C354 1.390 . S
C355 C356 1.394 . S
C355 C361 1.465 . S
C356 C351 1.399 . S
C356 C355 1.394 . S
C356 C357 1.516 . S
C357 C356 1.516 . S
C357 C358 1.502 . S
C357 C359 1.561 . S
C357 C360 1.526 . S
C358 H342 0.959 . S
C358 H343 0.959 . S
C358 H344 0.961 . S
C358 C357 1.502 . S
C359 H345 0.960 . S
C359 H346 0.961 . S
C359 H347 0.959 . S
C359 C357 1.561 . S
C360 C357 1.526 . S
C360 C361 1.396 . S
C360 C365 1.390 . S
C361 C355 1.465 . S
C361 C360 1.396 . S
C361 C362 1.399 . S
C362 H348 0.929 . S
C362 C361 1.399 . S
C362 C363 1.385 . S
C363 H349 0.931 . S
C363 C362 1.385 . S
C363 C364 1.389 . S
C364 C363 1.389 . S
C364 C365 1.387 . S
C365 H350 0.930 . S
C365 C360 1.390 . S
C365 C364 1.387 . S
H366 C378 0.930 . S
H367 C380 0.930 . S
H368 C381 0.930 . S
H369 C385 0.959 1_554 S
H370 C385 0.959 . S
H371 C385 0.961 . S
H372 C386 0.960 . S
H373 C386 0.961 . S
H374 C386 0.959 . S
H375 C389 0.929 . S
H376 C390 0.931 . S
H377 C392 0.930 . S
C378 H366 0.930 . S
C378 C379 1.399 . S
C378 C383 1.399 . S
C379 C378 1.399 . S
C379 C380 1.376 . S
C380 H367 0.930 . S
C380 C379 1.376 . S
C380 C381 1.388 . S
C381 H368 0.930 . S
C381 C380 1.388 . S
C381 C382 1.390 . S
C382 C381 1.390 . S
C382 C383 1.394 . S
C382 C388 1.465 . S
C383 C378 1.399 . S
C383 C382 1.394 . S
C383 C384 1.516 . S
C384 C383 1.516 . S
C384 C385 1.502 . S
C384 C386 1.561 . S
C384 C387 1.526 . S
C385 H369 0.959 1_556 S
C385 H370 0.959 . S
C385 H371 0.961 . S
C385 C384 1.502 . S
C386 H372 0.960 . S
C386 H373 0.961 . S
C386 H374 0.959 . S
C386 C384 1.561 . S
C387 C384 1.526 . S
C387 C388 1.396 . S
C387 C392 1.390 . S
C388 C382 1.465 . S
C388 C387 1.396 . S
C388 C389 1.399 . S
C389 H375 0.929 . S
C389 C388 1.399 . S
C389 C390 1.385 . S
C390 H376 0.931 . S
C390 C389 1.385 . S
C390 C391 1.389 . S
C391 C390 1.389 . S
C391 C392 1.387 . S
C392 H377 0.930 . S
C392 C387 1.390 . S
C392 C391 1.387 . S
H393 C405 0.930 . S
H394 C407 0.930 . S
H395 C408 0.930 . S
H396 C412 0.959 . S
H397 C412 0.959 . S
H398 C412 0.961 . S
H399 C413 0.960 . S
H400 C413 0.961 . S
H401 C413 0.959 . S
H402 C416 0.929 . S
H403 C417 0.931 . S
H404 C419 0.930 . S
C405 H393 0.930 . S
C405 C406 1.399 . S
C405 C410 1.399 . S
C406 C405 1.399 . S
C406 C407 1.376 . S
C407 H394 0.930 . S
C407 C406 1.376 . S
C407 C408 1.388 . S
C408 H395 0.930 . S
C408 C407 1.388 . S
C408 C409 1.390 . S
C409 C408 1.390 . S
C409 C410 1.394 . S
C409 C415 1.465 . S
C410 C405 1.399 . S
C410 C409 1.394 . S
C410 C411 1.516 . S
C411 C410 1.516 . S
C411 C412 1.502 . S
C411 C413 1.561 . S
C411 C414 1.526 . S
C412 H396 0.959 . S
C412 H397 0.959 . S
C412 H398 0.961 . S
C412 C411 1.502 . S
C413 H399 0.960 . S
C413 H400 0.961 . S
C413 H401 0.959 . S
C413 C411 1.561 . S
C414 C411 1.526 . S
C414 C415 1.396 . S
C414 C419 1.390 . S
C415 C409 1.465 . S
C415 C414 1.396 . S
C415 C416 1.399 . S
C416 H402 0.929 . S
C416 C415 1.399 . S
C416 C417 1.385 . S
C417 H403 0.931 . S
C417 C416 1.385 . S
C417 C418 1.389 . S
C418 C417 1.389 . S
C418 C419 1.387 . S
C419 H404 0.930 . S
C419 C414 1.390 . S
C419 C418 1.387 . S
H420 C432 0.930 . S
H421 C434 0.930 . S
H422 C435 0.930 . S
H423 C439 0.959 1_556 S
H424 C439 0.959 . S
H425 C439 0.961 . S
H426 C440 0.960 . S
H427 C440 0.957 1_545 S
H428 C440 0.959 . S
H429 C443 0.929 . S
H430 C444 0.931 . S
H431 C446 0.930 1_554 S
C432 H420 0.930 . S
C432 C433 1.399 1_554 S
C432 C437 1.399 1_554 S
C433 C432 1.399 1_556 S
C433 C434 1.376 . S
C434 H421 0.930 . S
C434 C433 1.376 . S
C434 C435 1.388 . S
C435 H422 0.930 . S
C435 C434 1.388 . S
C435 C436 1.390 . S
C436 C435 1.390 . S
C436 C437 1.394 . S
C436 C442 1.465 . S
C437 C432 1.399 1_556 S
C437 C436 1.394 . S
C437 C438 1.516 1_566 S
C438 C437 1.516 1_544 S
C438 C439 1.502 . S
C438 C440 1.561 1_545 S
C438 C441 1.526 1_554 S
C439 H423 0.959 1_554 S
C439 H424 0.959 . S
C439 H425 0.961 . S
C439 C438 1.502 . S
C440 H426 0.960 . S
C440 H427 0.957 1_565 S
C440 H428 0.959 . S
C440 C438 1.561 1_565 S
C441 C438 1.526 1_556 S
C441 C442 1.396 1_545 S
C441 C446 1.390 . S
C442 C436 1.465 . S
C442 C441 1.396 1_565 S
C442 C443 1.399 . S
C443 H429 0.929 . S
C443 C442 1.399 . S
C443 C444 1.385 . S
C444 H430 0.931 . S
C444 C443 1.385 . S
C444 C445 1.389 1_565 S
C445 C444 1.389 1_545 S
C445 C446 1.387 . S
C446 H431 0.930 1_556 S
C446 C441 1.390 . S
C446 C445 1.387 . S
H447 C459 0.930 . S
H448 C461 0.930 . S
H449 C462 0.930 . S
H450 C466 0.959 . S
H451 C466 0.959 . S
H452 C466 0.961 . S
H453 C467 0.960 . S
H454 C467 0.961 . S
H455 C467 0.959 . S
H456 C470 0.929 . S
H457 C471 0.931 . S
H458 C473 0.930 1_556 S
C459 H447 0.930 . S
C459 C460 1.399 . S
C459 C464 1.399 . S
C460 C459 1.399 . S
C460 C461 1.376 . S
C461 H448 0.930 . S
C461 C460 1.376 . S
C461 C462 1.388 . S
C462 H449 0.930 . S
C462 C461 1.388 . S
C462 C463 1.390 . S
C463 C462 1.390 . S
C463 C464 1.394 . S
C463 C469 1.465 . S
C464 C459 1.399 . S
C464 C463 1.394 . S
C464 C465 1.516 . S
C465 C464 1.516 . S
C465 C466 1.502 . S
C465 C467 1.561 . S
C465 C468 1.526 . S
C466 H450 0.959 . S
C466 H451 0.959 . S
C466 H452 0.961 . S
C466 C465 1.502 . S
C467 H453 0.960 . S
C467 H454 0.961 . S
C467 H455 0.959 . S
C467 C465 1.561 . S
C468 C465 1.526 . S
C468 C469 1.396 . S
C468 C473 1.390 . S
C469 C463 1.465 . S
C469 C468 1.396 . S
C469 C470 1.399 . S
C470 H456 0.929 . S
C470 C469 1.399 . S
C470 C471 1.385 . S
C471 H457 0.931 . S
C471 C470 1.385 . S
C471 C472 1.389 . S
C472 C471 1.389 . S
C472 C473 1.387 . S
C473 H458 0.930 1_554 S
C473 C468 1.390 . S
C473 C472 1.387 . S
H474 C486 0.930 1_554 S
H475 C488 0.930 . S
H476 C489 0.930 . S
H477 C493 0.959 . S
H478 C493 0.959 1_554 S
H479 C493 0.961 1_554 S
H480 C494 0.960 . S
H481 C494 0.961 . S
H482 C494 0.959 . S
H483 C497 0.929 . S
H484 C498 0.931 . S
H485 C500 0.930 . S
C486 H474 0.930 1_556 S
C486 C487 1.399 . S
C486 C491 1.399 . S
C487 C486 1.399 . S
C487 C488 1.376 . S
C488 H475 0.930 . S
C488 C487 1.376 . S
C488 C489 1.388 . S
C489 H476 0.930 . S
C489 C488 1.388 . S
C489 C490 1.390 . S
C490 C489 1.390 . S
C490 C491 1.394 . S
C490 C496 1.465 . S
C491 C486 1.399 . S
C491 C490 1.394 . S
C491 C492 1.516 . S
C492 C491 1.516 . S
C492 C493 1.502 . S
C492 C494 1.561 1_556 S
C492 C495 1.526 . S
C493 H477 0.959 . S
C493 H478 0.959 1_556 S
C493 H479 0.961 1_556 S
C493 C492 1.502 . S
C494 H480 0.960 . S
C494 H481 0.961 . S
C494 H482 0.959 . S
C494 C492 1.561 1_554 S
C495 C492 1.526 . S
C495 C496 1.396 . S
C495 C500 1.390 . S
C496 C490 1.465 . S
C496 C495 1.396 . S
C496 C497 1.399 . S
C497 H483 0.929 . S
C497 C496 1.399 . S
C497 C498 1.385 . S
C498 H484 0.931 . S
C498 C497 1.385 . S
C498 C499 1.389 . S
C499 C498 1.389 . S
C499 C500 1.387 . S
C500 H485 0.930 . S
C500 C495 1.390 . S
C500 C499 1.387 . S
H501 C513 0.930 . S
H502 C515 0.930 . S
H503 C516 0.930 . S
H504 C520 0.959 . S
H505 C520 0.959 . S
H506 C520 0.961 . S
H507 C521 0.960 . S
H508 C521 0.961 . S
H509 C521 0.959 . S
H510 C524 0.929 1_655 S
H511 C525 0.931 . S
H512 C527 0.930 1_554 S
C513 H501 0.930 . S
C513 C514 1.399 1_455 S
C513 C518 1.399 . S
C514 C513 1.399 1_655 S
C514 C515 1.376 1_554 S
C515 H502 0.930 . S
C515 C514 1.376 1_556 S
C515 C516 1.388 . S
C516 H503 0.930 . S
C516 C515 1.388 . S
C516 C517 1.413 . S
C517 C516 1.413 . S
C517 C518 1.384 1_656 S
C517 C523 1.449 1_655 S
C518 C513 1.399 . S
C518 C517 1.384 1_454 S
C518 C519 1.516 . S
C519 C518 1.516 . S
C519 C520 1.502 . S
C519 C521 1.561 1_455 S
C519 C522 1.526 . S
C520 H504 0.959 . S
C520 H505 0.959 . S
C520 H506 0.961 . S
C520 C519 1.502 . S
C521 H507 0.960 . S
C521 H508 0.961 . S
C521 H509 0.959 . S
C521 C519 1.561 1_655 S
C522 C519 1.526 . S
C522 C523 1.396 1_554 S
C522 C527 1.390 1_554 S
C523 C517 1.449 1_455 S
C523 C522 1.396 1_556 S
C523 C524 1.399 . S
C524 H510 0.929 1_455 S
C524 C523 1.399 . S
C524 C525 1.385 . S
C525 H511 0.931 . S
C525 C524 1.385 . S
C525 C526 1.389 . S
C526 C525 1.389 . S
C526 C527 1.387 . S
C527 H512 0.930 1_556 S
C527 C522 1.390 1_556 S
C527 C526 1.387 . S
H528 C540 0.930 . S
H529 C542 0.930 . S
H530 C543 0.930 . S
H531 C547 0.959 . S
H532 C547 0.959 . S
H533 C547 0.961 . S
H534 C548 0.960 . S
H535 C548 0.961 . S
H536 C548 0.959 . S
H537 C551 0.929 . S
H538 C552 0.931 . S
H539 C554 0.930 . S
C540 H528 0.930 . S
C540 C541 1.399 . S
C540 C545 1.399 . S
C541 C540 1.399 . S
C541 C542 1.376 . S
C542 H529 0.930 . S
C542 C541 1.376 . S
C542 C543 1.388 . S
C543 H530 0.930 . S
C543 C542 1.388 . S
C543 C544 1.390 . S
C544 C543 1.390 . S
C544 C545 1.394 . S
C544 C550 1.465 . S
C545 C540 1.399 . S
C545 C544 1.394 . S
C545 C546 1.516 . S
C546 C545 1.516 . S
C546 C547 1.502 . S
C546 C548 1.561 . S
C546 C549 1.526 . S
C547 H531 0.959 . S
C547 H532 0.959 . S
C547 H533 0.961 . S
C547 C546 1.502 . S
C548 H534 0.960 . S
C548 H535 0.961 . S
C548 H536 0.959 . S
C548 C546 1.561 . S
C549 C546 1.526 . S
C549 C550 1.396 . S
C549 C554 1.390 . S
C550 C544 1.465 . S
C550 C549 1.396 . S
C550 C551 1.399 . S
C551 H537 0.929 . S
C551 C550 1.399 . S
C551 C552 1.385 . S
C552 H538 0.931 . S
C552 C551 1.385 . S
C552 C553 1.389 . S
C553 C552 1.389 . S
C553 C554 1.387 . S
C554 H539 0.930 . S
C554 C549 1.390 . S
C554 C553 1.387 . S
H555 C567 0.930 . S
H556 C569 0.930 . S
H557 C570 0.930 . S
H558 C574 0.959 . S
H559 C574 0.959 1_565 S
H560 C574 0.961 . S
H561 C575 0.960 . S
H562 C575 0.961 . S
H563 C575 0.959 . S
H564 C578 0.929 . S
H565 C579 0.931 . S
H566 C581 0.930 . S
C567 H555 0.930 . S
C567 C568 1.399 . S
C567 C572 1.399 . S
C568 C567 1.399 . S
C568 C569 1.376 . S
C569 H556 0.930 . S
C569 C568 1.376 . S
C569 C570 1.388 . S
C570 H557 0.930 . S
C570 C569 1.388 . S
C570 C571 1.390 . S
C571 C570 1.390 . S
C571 C572 1.394 . S
C571 C577 1.465 . S
C572 C567 1.399 . S
C572 C571 1.394 . S
C572 C573 1.516 . S
C573 C572 1.516 . S
C573 C574 1.502 . S
C573 C575 1.561 . S
C573 C576 1.526 . S
C574 H558 0.959 . S
C574 H559 0.959 1_545 S
C574 H560 0.961 . S
C574 C573 1.502 . S
C575 H561 0.960 . S
C575 H562 0.961 . S
C575 H563 0.959 . S
C575 C573 1.561 . S
C576 C573 1.526 . S
C576 C577 1.396 . S
C576 C581 1.390 . S
C577 C571 1.465 . S
C577 C576 1.396 . S
C577 C578 1.399 . S
C578 H564 0.929 . S
C578 C577 1.399 . S
C578 C579 1.385 . S
C579 H565 0.931 . S
C579 C578 1.385 . S
C579 C580 1.389 . S
C580 C579 1.389 . S
C580 C581 1.387 . S
C581 H566 0.930 . S
C581 C576 1.390 . S
C581 C580 1.387 . S
H582 C594 0.930 . S
H583 C596 0.930 . S
H584 C597 0.930 . S
H585 C601 0.959 . S
H586 C601 0.959 . S
H587 C601 0.961 . S
H588 C602 0.960 . S
H589 C602 0.961 . S
H590 C602 0.959 . S
H591 C605 0.929 . S
H592 C606 0.931 . S
H593 C608 0.930 . S
C594 H582 0.930 . S
C594 C595 1.399 . S
C594 C599 1.399 . S
C595 C594 1.399 . S
C595 C596 1.376 . S
C596 H583 0.930 . S
C596 C595 1.376 . S
C596 C597 1.388 . S
C597 H584 0.930 . S
C597 C596 1.388 . S
C597 C598 1.390 . S
C598 C597 1.390 . S
C598 C599 1.394 . S
C598 C604 1.465 . S
C599 C594 1.399 . S
C599 C598 1.394 . S
C599 C600 1.516 . S
C600 C599 1.516 . S
C600 C601 1.502 . S
C600 C602 1.561 . S
C600 C603 1.526 . S
C601 H585 0.959 . S
C601 H586 0.959 . S
C601 H587 0.961 . S
C601 C600 1.502 . S
C602 H588 0.960 . S
C602 H589 0.961 . S
C602 H590 0.959 . S
C602 C600 1.561 . S
C603 C600 1.526 . S
C603 C604 1.396 . S
C603 C608 1.390 . S
C604 C598 1.465 . S
C604 C603 1.396 . S
C604 C605 1.399 . S
C605 H591 0.929 . S
C605 C604 1.399 . S
C605 C606 1.385 . S
C606 H592 0.931 . S
C606 C605 1.385 . S
C606 C607 1.389 . S
C607 C606 1.389 . S
C607 C608 1.387 . S
C608 H593 0.930 . S
C608 C603 1.390 . S
C608 C607 1.387 . S
H609 C621 0.930 . S
H610 C623 0.939 . S
H611 C624 0.930 1_554 S
H612 C628 0.959 . S
H613 C628 0.959 . S
H614 C628 0.961 . S
H615 C629 0.960 . S
H616 C629 0.961 . S
H617 C629 0.959 . S
H618 C632 0.929 1_554 S
H619 C633 0.931 1_554 S
H620 C635 0.930 . S
C621 H609 0.930 . S
C621 C622 1.399 . S
C621 C626 1.399 . S
C622 C621 1.399 . S
C622 C623 1.376 . S
C623 H610 0.939 . S
C623 C622 1.376 . S
C623 C624 1.388 . S
C624 H611 0.930 1_556 S
C624 C623 1.388 . S
C624 C625 1.390 . S
C625 C624 1.390 . S
C625 C626 1.394 . S
C625 C631 1.465 . S
C626 C621 1.399 . S
C626 C625 1.394 . S
C626 C627 1.516 . S
C627 C626 1.516 . S
C627 C628 1.502 . S
C627 C629 1.561 . S
C627 C630 1.526 . S
C628 H612 0.959 . S
C628 H613 0.959 . S
C628 H614 0.961 . S
C628 C627 1.502 . S
C629 H615 0.960 . S
C629 H616 0.961 . S
C629 H617 0.959 . S
C629 C627 1.561 . S
C630 C627 1.526 . S
C630 C631 1.396 . S
C630 C635 1.390 . S
C631 C625 1.465 . S
C631 C630 1.396 . S
C631 C632 1.399 . S
C632 H618 0.929 1_556 S
C632 C631 1.399 . S
C632 C633 1.385 . S
C633 H619 0.931 1_556 S
C633 C632 1.385 . S
C633 C634 1.389 . S
C634 C633 1.389 . S
C634 C635 1.387 . S
C635 H620 0.930 . S
C635 C630 1.390 . S
C635 C634 1.387 . S
H636 C648 0.930 . S
H637 C650 0.930 . S
H638 C651 0.930 . S
H639 C655 0.959 . S
H640 C655 0.959 . S
H641 C655 0.961 . S
H642 C656 0.960 . S
H643 C656 0.961 . S
H644 C656 0.959 . S
H645 C659 0.929 . S
H646 C660 0.931 . S
H647 C662 0.930 . S
C648 H636 0.930 . S
C648 C649 1.399 . S
C648 C653 1.399 . S
C649 C648 1.399 . S
C649 C650 1.376 1_654 S
C650 H637 0.930 . S
C650 C649 1.376 1_456 S
C650 C651 1.388 . S
C651 H638 0.930 . S
C651 C650 1.388 . S
C651 C652 1.390 . S
C652 C651 1.390 . S
C652 C653 1.394 1_456 S
C652 C658 1.465 . S
C653 C648 1.399 . S
C653 C652 1.394 1_654 S
C653 C654 1.516 . S
C654 C653 1.516 . S
C654 C655 1.502 . S
C654 C656 1.561 1_655 S
C654 C657 1.526 1_655 S
C655 H639 0.959 . S
C655 H640 0.959 . S
C655 H641 0.961 . S
C655 C654 1.502 . S
C656 H642 0.960 . S
C656 H643 0.961 . S
C656 H644 0.959 . S
C656 C654 1.561 1_455 S
C657 C654 1.526 1_455 S
C657 C658 1.396 1_554 S
C657 C662 1.390 . S
C658 C652 1.465 . S
C658 C657 1.396 1_556 S
C658 C659 1.399 . S
C659 H645 0.929 . S
C659 C658 1.399 . S
C659 C660 1.385 . S
C660 H646 0.931 . S
C660 C659 1.385 . S
C660 C661 1.389 . S
C661 C660 1.389 . S
C661 C662 1.387 1_556 S
C662 H647 0.930 . S
C662 C657 1.390 . S
C662 C661 1.387 1_554 S
H663 C675 0.930 . S
H664 C677 0.930 . S
H665 C678 0.930 . S
H666 C682 0.959 . S
H667 C682 0.959 . S
H668 C682 0.961 1_565 S
H669 C683 0.960 . S
H670 C683 0.961 . S
H671 C683 0.959 . S
H672 C686 0.929 . S
H673 C687 0.931 . S
H674 C689 0.930 . S
C675 H663 0.930 . S
C675 C676 1.399 . S
C675 C680 1.399 . S
C676 C675 1.399 . S
C676 C677 1.376 1_556 S
C677 H664 0.930 . S
C677 C676 1.376 1_554 S
C677 C678 1.388 . S
C678 H665 0.930 . S
C678 C677 1.388 . S
C678 C679 1.390 1_554 S
C679 C678 1.390 1_556 S
C679 C680 1.394 . S
C679 C685 1.442 1_565 S
C680 C675 1.399 . S
C680 C679 1.394 . S
C680 C681 1.516 . S
C681 C680 1.516 . S
C681 C682 1.502 1_565 S
C681 C683 1.561 . S
C681 C684 1.511 1_565 S
C682 H666 0.959 . S
C682 H667 0.959 . S
C682 H668 0.961 1_545 S
C682 C681 1.502 1_545 S
C683 H669 0.960 . S
C683 H670 0.961 . S
C683 H671 0.959 . S
C683 C681 1.561 . S
C684 C681 1.511 1_545 S
C684 C685 1.393 . S
C684 C689 1.400 . S
C685 C679 1.442 1_545 S
C685 C684 1.393 . S
C685 C686 1.426 1_556 S
C686 H672 0.929 . S
C686 C685 1.426 1_554 S
C686 C687 1.385 . S
C687 H673 0.931 . S
C687 C686 1.385 . S
C687 C688 1.389 1_554 S
C688 C687 1.389 1_556 S
C688 C689 1.387 . S
C689 H674 0.930 . S
C689 C684 1.400 . S
C689 C688 1.387 . S
H690 C702 0.930 . S
H691 C704 0.930 . S
H692 C705 0.930 . S
H693 C709 0.959 . S
H694 C709 0.959 . S
H695 C709 0.961 . S
H696 C710 0.960 . S
H697 C710 0.961 . S
H698 C710 0.959 . S
H699 C713 0.929 . S
H700 C714 0.931 . S
H701 C716 0.930 . S
C702 H690 0.930 . S
C702 C703 1.399 . S
C702 C707 1.399 . S
C703 C702 1.399 . S
C703 C704 1.376 . S
C704 H691 0.930 . S
C704 C703 1.376 . S
C704 C705 1.388 . S
C705 H692 0.930 . S
C705 C704 1.388 . S
C705 C706 1.390 . S
C706 C705 1.390 . S
C706 C707 1.394 . S
C706 C712 1.465 . S
C707 C702 1.399 . S
C707 C706 1.394 . S
C707 C708 1.516 . S
C708 C707 1.516 . S
C708 C709 1.502 . S
C708 C710 1.561 . S
C708 C711 1.526 . S
C709 H693 0.959 . S
C709 H694 0.959 . S
C709 H695 0.961 . S
C709 C708 1.502 . S
C710 H696 0.960 . S
C710 H697 0.961 . S
C710 H698 0.959 . S
C710 C708 1.561 . S
C711 C708 1.526 . S
C711 C712 1.396 . S
C711 C716 1.390 . S
C712 C706 1.465 . S
C712 C711 1.396 . S
C712 C713 1.399 . S
C713 H699 0.929 . S
C713 C712 1.399 . S
C713 C714 1.385 . S
C714 H700 0.931 . S
C714 C713 1.385 . S
C714 C715 1.389 . S
C715 C714 1.389 . S
C715 C716 1.387 . S
C716 H701 0.930 . S
C716 C711 1.390 . S
C716 C715 1.387 . S
H717 C729 0.930 . S
H718 C731 0.930 . S
H719 C732 0.930 . S
H720 C736 0.959 . S
H721 C736 0.959 . S
H722 C736 0.961 . S
H723 C737 0.960 . S
H724 C737 0.961 . S
H725 C737 0.959 . S
H726 C740 0.929 . S
H727 C741 0.931 . S
H728 C743 0.930 . S
C729 H717 0.930 . S
C729 C730 1.399 . S
C729 C734 1.399 . S
C730 C729 1.399 . S
C730 C731 1.376 1_556 S
C731 H718 0.930 . S
C731 C730 1.376 1_554 S
C731 C732 1.388 . S
C732 H719 0.930 . S
C732 C731 1.388 . S
C732 C733 1.390 1_554 S
C733 C732 1.390 1_556 S
C733 C734 1.394 . S
C733 C739 1.465 . S
C734 C729 1.399 . S
C734 C733 1.394 . S
C734 C735 1.516 . S
C735 C734 1.516 . S
C735 C736 1.502 . S
C735 C737 1.561 . S
C735 C738 1.526 . S
C736 H720 0.959 . S
C736 H721 0.959 . S
C736 H722 0.961 . S
C736 C735 1.502 . S
C737 H723 0.960 . S
C737 H724 0.961 . S
C737 H725 0.959 . S
C737 C735 1.561 . S
C738 C735 1.526 . S
C738 C739 1.396 . S
C738 C743 1.390 . S
C739 C733 1.465 . S
C739 C738 1.396 . S
C739 C740 1.399 1_556 S
C740 H726 0.929 . S
C740 C739 1.399 1_554 S
C740 C741 1.385 . S
C741 H727 0.931 . S
C741 C740 1.385 . S
C741 C742 1.389 1_554 S
C742 C741 1.389 1_556 S
C742 C743 1.387 . S
C743 H728 0.930 . S
C743 C738 1.390 . S
C743 C742 1.387 . S
H744 C756 0.930 . S
H745 C758 0.930 . S
H746 C759 0.930 . S
H747 C763 0.959 . S
H748 C763 0.959 . S
H749 C763 0.961 . S
H750 C764 0.960 . S
H751 C764 0.961 . S
H752 C764 0.959 . S
H753 C767 0.929 . S
H754 C768 0.931 . S
H755 C770 0.930 . S
C756 H744 0.930 . S
C756 C757 1.399 . S
C756 C761 1.399 . S
C757 C756 1.399 . S
C757 C758 1.376 . S
C758 H745 0.930 . S
C758 C757 1.376 . S
C758 C759 1.388 . S
C759 H746 0.930 . S
C759 C758 1.388 . S
C759 C760 1.390 . S
C760 C759 1.390 . S
C760 C761 1.394 . S
C760 C766 1.465 . S
C761 C756 1.399 . S
C761 C760 1.394 . S
C761 C762 1.516 . S
C762 C761 1.516 . S
C762 C763 1.502 . S
C762 C764 1.561 . S
C762 C765 1.526 . S
C763 H747 0.959 . S
C763 H748 0.959 . S
C763 H749 0.961 . S
C763 C762 1.502 . S
C764 H750 0.960 . S
C764 H751 0.961 . S
C764 H752 0.959 . S
C764 C762 1.561 . S
C765 C762 1.526 . S
C765 C766 1.396 . S
C765 C770 1.390 . S
C766 C760 1.465 . S
C766 C765 1.396 . S
C766 C767 1.399 . S
C767 H753 0.929 . S
C767 C766 1.399 . S
C767 C768 1.385 . S
C768 H754 0.931 . S
C768 C767 1.385 . S
C768 C769 1.389 . S
C769 C768 1.389 . S
C769 C770 1.387 . S
C770 H755 0.930 . S
C770 C765 1.390 . S
C770 C769 1.387 . S
H771 C783 0.930 . S
H772 C785 0.930 . S
H773 C786 0.930 . S
H774 C790 0.959 . S
H775 C790 0.959 . S
H776 C790 0.961 . S
H777 C791 0.960 . S
H778 C791 0.961 . S
H779 C791 0.959 . S
H780 C794 0.929 . S
H781 C795 0.931 . S
H782 C797 0.930 . S
C783 H771 0.930 . S
C783 C784 1.399 . S
C783 C788 1.399 . S
C784 C783 1.399 . S
C784 C785 1.376 . S
C785 H772 0.930 . S
C785 C784 1.376 . S
C785 C786 1.388 . S
C786 H773 0.930 . S
C786 C785 1.388 . S
C786 C787 1.390 . S
C787 C786 1.390 . S
C787 C788 1.394 . S
C787 C793 1.465 . S
C788 C783 1.399 . S
C788 C787 1.394 . S
C788 C789 1.516 . S
C789 C788 1.516 . S
C789 C790 1.502 . S
C789 C791 1.561 . S
C789 C792 1.526 . S
C790 H774 0.959 . S
C790 H775 0.959 . S
C790 H776 0.961 . S
C790 C789 1.502 . S
C791 H777 0.960 . S
C791 H778 0.961 . S
C791 H779 0.959 . S
C791 C789 1.561 . S
C792 C789 1.526 . S
C792 C793 1.396 . S
C792 C797 1.390 . S
C793 C787 1.465 . S
C793 C792 1.396 . S
C793 C794 1.399 . S
C794 H780 0.929 . S
C794 C793 1.399 . S
C794 C795 1.385 . S
C795 H781 0.931 . S
C795 C794 1.385 . S
C795 C796 1.389 . S
C796 C795 1.389 . S
C796 C797 1.387 . S
C797 H782 0.930 . S
C797 C792 1.390 . S
C797 C796 1.387 . S
H798 C810 0.930 . S
H799 C812 0.930 . S
H800 C813 0.930 . S
H801 C817 0.959 . S
H802 C817 0.959 . S
H803 C817 0.961 . S
H804 C818 0.960 . S
H805 C818 0.961 . S
H806 C818 0.959 . S
H807 C821 0.929 . S
H808 C822 0.931 . S
H809 C824 0.930 . S
C810 H798 0.930 . S
C810 C811 1.399 . S
C810 C815 1.399 . S
C811 C810 1.399 . S
C811 C812 1.376 . S
C812 H799 0.930 . S
C812 C811 1.376 . S
C812 C813 1.388 . S
C813 H800 0.930 . S
C813 C812 1.388 . S
C813 C814 1.390 . S
C814 C813 1.390 . S
C814 C815 1.394 . S
C814 C820 1.465 . S
C815 C810 1.399 . S
C815 C814 1.394 . S
C815 C816 1.516 . S
C816 C815 1.516 . S
C816 C817 1.502 . S
C816 C818 1.561 . S
C816 C819 1.526 . S
C817 H801 0.959 . S
C817 H802 0.959 . S
C817 H803 0.961 . S
C817 C816 1.502 . S
C818 H804 0.960 . S
C818 H805 0.961 . S
C818 H806 0.959 . S
C818 C816 1.561 . S
C819 C816 1.526 . S
C819 C820 1.396 . S
C819 C824 1.390 . S
C820 C814 1.465 . S
C820 C819 1.396 . S
C820 C821 1.399 1_554 S
C821 H807 0.929 . S
C821 C820 1.399 1_556 S
C821 C822 1.385 . S
C822 H808 0.931 . S
C822 C821 1.385 . S
C822 C823 1.389 1_556 S
C823 C822 1.389 1_554 S
C823 C824 1.387 . S
C824 H809 0.930 . S
C824 C819 1.390 . S
C824 C823 1.387 . S
H825 C837 0.930 . S
H826 C839 0.930 . S
H827 C840 0.930 . S
H828 C844 0.959 . S
H829 C844 0.959 . S
H830 C844 0.961 . S
H831 C845 0.960 . S
H832 C845 0.961 . S
H833 C845 0.959 . S
H834 C848 0.929 . S
H835 C849 0.931 . S
H836 C851 0.930 . S
C837 H825 0.930 . S
C837 C838 1.399 . S
C837 C842 1.399 . S
C838 C837 1.399 . S
C838 C839 1.376 . S
C839 H826 0.930 . S
C839 C838 1.376 . S
C839 C840 1.388 . S
C840 H827 0.930 . S
C840 C839 1.388 . S
C840 C841 1.390 . S
C841 C840 1.390 . S
C841 C842 1.394 . S
C841 C847 1.465 . S
C842 C837 1.399 . S
C842 C841 1.394 . S
C842 C843 1.516 . S
C843 C842 1.516 . S
C843 C844 1.502 . S
C843 C845 1.561 . S
C843 C846 1.526 . S
C844 H828 0.959 . S
C844 H829 0.959 . S
C844 H830 0.961 . S
C844 C843 1.502 . S
C845 H831 0.960 . S
C845 H832 0.961 . S
C845 H833 0.959 . S
C845 C843 1.561 . S
C846 C843 1.526 . S
C846 C847 1.396 . S
C846 C851 1.390 . S
C847 C841 1.465 . S
C847 C846 1.396 . S
C847 C848 1.399 . S
C848 H834 0.929 . S
C848 C847 1.399 . S
C848 C849 1.385 . S
C849 H835 0.931 . S
C849 C848 1.385 . S
C849 C850 1.389 . S
C850 C849 1.389 . S
C850 C851 1.387 . S
C851 H836 0.930 . S
C851 C846 1.390 . S
C851 C850 1.387 . S
H852 C864 0.930 . S
H853 C866 0.930 . S
H854 C867 0.930 . S
H855 C871 0.959 . S
H856 C871 0.959 . S
H857 C871 0.961 . S
H858 C872 0.960 . S
H859 C872 0.961 . S
H860 C872 0.959 . S
H861 C875 0.929 . S
H862 C876 0.931 . S
H863 C878 0.930 . S
C864 H852 0.930 . S
C864 C865 1.399 . S
C864 C869 1.399 . S
C865 C864 1.399 . S
C865 C866 1.376 1_655 S
C866 H853 0.930 . S
C866 C865 1.376 1_455 S
C866 C867 1.388 . S
C867 H854 0.930 . S
C867 C866 1.388 . S
C867 C868 1.390 . S
C868 C867 1.390 . S
C868 C869 1.394 1_455 S
C868 C874 1.465 . S
C869 C864 1.399 . S
C869 C868 1.394 1_655 S
C869 C870 1.516 . S
C870 C869 1.516 . S
C870 C871 1.502 . S
C870 C872 1.561 . S
C870 C873 1.526 . S
C871 H855 0.959 . S
C871 H856 0.959 . S
C871 H857 0.961 . S
C871 C870 1.502 . S
C872 H858 0.960 . S
C872 H859 0.961 . S
C872 H860 0.959 . S
C872 C870 1.561 . S
C873 C870 1.526 . S
C873 C874 1.396 1_655 S
C873 C878 1.390 . S
C874 C868 1.465 . S
C874 C873 1.396 1_455 S
C874 C875 1.399 . S
C875 H861 0.929 . S
C875 C874 1.399 . S
C875 C876 1.385 . S
C876 H862 0.931 . S
C876 C875 1.385 . S
C876 C877 1.389 . S
C877 C876 1.389 . S
C877 C878 1.387 1_455 S
C878 H863 0.930 . S
C878 C873 1.390 . S
C878 C877 1.387 1_655 S
H879 C891 0.930 1_545 S
H880 C893 0.930 . S
H881 C894 0.930 . S
H882 C898 0.959 . S
H883 C898 0.959 . S
H884 C898 0.961 . S
H885 C899 0.960 . S
H886 C899 0.961 . S
H887 C899 0.959 . S
H888 C902 0.929 . S
H889 C903 0.931 . S
H890 C905 0.930 1_545 S
C891 H879 0.930 1_565 S
C891 C892 1.399 . S
C891 C896 1.399 . S
C892 C891 1.399 . S
C892 C893 1.376 . S
C893 H880 0.930 . S
C893 C892 1.376 . S
C893 C894 1.388 . S
C894 H881 0.930 . S
C894 C893 1.388 . S
C894 C895 1.390 . S
C895 C894 1.390 . S
C895 C896 1.394 . S
C895 C901 1.465 . S
C896 C891 1.399 . S
C896 C895 1.394 . S
C896 C897 1.516 1_565 S
C897 C896 1.516 1_545 S
C897 C898 1.502 . S
C897 C899 1.561 . S
C897 C900 1.526 1_545 S
C898 H882 0.959 . S
C898 H883 0.959 . S
C898 H884 0.961 . S
C898 C897 1.502 . S
C899 H885 0.960 . S
C899 H886 0.961 . S
C899 H887 0.959 . S
C899 C897 1.561 . S
C900 C897 1.526 1_565 S
C900 C901 1.396 . S
C900 C905 1.390 . S
C901 C895 1.465 . S
C901 C900 1.396 . S
C901 C902 1.399 . S
C902 H888 0.929 . S
C902 C901 1.399 . S
C902 C903 1.385 . S
C903 H889 0.931 . S
C903 C902 1.385 . S
C903 C904 1.389 . S
C904 C903 1.389 . S
C904 C905 1.387 . S
C905 H890 0.930 1_565 S
C905 C900 1.390 . S
C905 C904 1.387 . S
H906 C918 0.930 . S
H907 C920 0.930 . S
H908 C921 0.930 . S
H909 C925 0.959 . S
H910 C925 0.959 . S
H911 C925 0.961 . S
H912 C926 0.960 . S
H913 C926 0.961 . S
H914 C926 0.959 . S
H915 C929 0.929 . S
H916 C930 0.931 . S
H917 C932 0.930 . S
C918 H906 0.930 . S
C918 C919 1.399 . S
C918 C923 1.399 . S
C919 C918 1.399 . S
C919 C920 1.376 . S
C920 H907 0.930 . S
C920 C919 1.376 . S
C920 C921 1.388 . S
C921 H908 0.930 . S
C921 C920 1.388 . S
C921 C922 1.390 . S
C922 C921 1.390 . S
C922 C923 1.394 . S
C922 C928 1.465 . S
C923 C918 1.399 . S
C923 C922 1.394 . S
C923 C924 1.516 . S
C924 C923 1.516 . S
C924 C925 1.502 . S
C924 C926 1.561 . S
C924 C927 1.526 . S
C925 H909 0.959 . S
C925 H910 0.959 . S
C925 H911 0.961 . S
C925 C924 1.502 . S
C926 H912 0.960 . S
C926 H913 0.961 . S
C926 H914 0.959 . S
C926 C924 1.561 . S
C927 C924 1.526 . S
C927 C928 1.396 . S
C927 C932 1.390 . S
C928 C922 1.465 . S
C928 C927 1.396 . S
C928 C929 1.399 . S
C929 H915 0.929 . S
C929 C928 1.399 . S
C929 C930 1.385 . S
C930 H916 0.931 . S
C930 C929 1.385 . S
C930 C931 1.389 . S
C931 C930 1.389 . S
C931 C932 1.387 . S
C932 H917 0.930 . S
C932 C927 1.390 . S
C932 C931 1.387 . S
H933 C945 0.930 . S
H934 C947 0.930 . S
H935 C948 0.930 . S
H936 C952 0.959 . S
H937 C952 0.959 . S
H938 C952 0.961 . S
H939 C953 0.960 . S
H940 C953 0.961 . S
H941 C953 0.959 . S
H942 C956 0.929 . S
H943 C957 0.931 . S
H944 C959 0.930 . S
C945 H933 0.930 . S
C945 C946 1.399 . S
C945 C950 1.399 . S
C946 C945 1.399 . S
C946 C947 1.376 . S
C947 H934 0.930 . S
C947 C946 1.376 . S
C947 C948 1.388 . S
C948 H935 0.930 . S
C948 C947 1.388 . S
C948 C949 1.390 . S
C949 C948 1.390 . S
C949 C950 1.394 . S
C949 C955 1.465 . S
C950 C945 1.399 . S
C950 C949 1.394 . S
C950 C951 1.516 . S
C951 C950 1.516 . S
C951 C952 1.502 . S
C951 C953 1.561 . S
C951 C954 1.526 . S
C952 H936 0.959 . S
C952 H937 0.959 . S
C952 H938 0.961 . S
C952 C951 1.502 . S
C953 H939 0.960 . S
C953 H940 0.961 . S
C953 H941 0.959 . S
C953 C951 1.561 . S
C954 C951 1.526 . S
C954 C955 1.396 . S
C954 C959 1.390 . S
C955 C949 1.465 . S
C955 C954 1.396 . S
C955 C956 1.399 . S
C956 H942 0.929 . S
C956 C955 1.399 . S
C956 C957 1.385 . S
C957 H943 0.931 . S
C957 C956 1.385 . S
C957 C958 1.389 . S
C958 C957 1.389 . S
C958 C959 1.387 . S
C959 H944 0.930 . S
C959 C954 1.390 . S
C959 C958 1.387 . S
C325 C125 1.451 . S
C337 C161 1.620 . S
C364 C201 1.269 . S
C352 C144 1.394 . S
C391 C250 1.416 . S
C379 C87 1.216 . S
C418 C281 1.799 . S
C406 C106 1.657 . S
C445 C170 1.663 . S
C433 C49 1.572 1_556 S
C460 C68 1.384 . S
C472 C210 1.237 1_554 S
C487 C11 1.272 . S
C499 C241 1.405 . S
C514 C30 1.787 . S
C526 C290 1.807 . S
C553 C171 1.150 . S
C541 C97 1.106 . S
C580 C211 1.548 . S
C568 C116 1.369 . S
C607 C247 0.827 . S
C595 C135 0.807 . S
C622 C78 1.219 . S
C634 C291 1.320 . S
C649 C21 1.077 . S
C661 C162 1.143 . S
C688 C202 1.557 . S
C676 C40 1.308 1_556 S
C715 C238 0.865 . S
C703 C59 0.886 . S
C730 C2 1.102 . S
C742 C282 1.325 . S
C757 C101 1.637 . S
C769 C167 1.652 . S
C784 C120 1.364 . S
C796 C207 1.362 . S
C823 C251 1.922 1_554 S
C811 C139 1.812 . S
C850 C287 1.353 . S
C838 C82 1.378 . S
C865 C25 1.623 . S
C877 C158 1.644 . S
C904 C198 1.397 . S
C892 C44 1.377 . S
C931 C242 1.921 . S
C919 C63 1.829 . S
C946 C6 1.400 . S
C958 C278 1.378 . S
