# Generated by pormake.
# Topology tsx, (6,3)-cn, num edge types: 1
# Building blocks:
#     Node 0, Type 0, BuildingBlock: VOLQOD_clean_sbu_1, # of connection points: 6
#     Node 1, Type 0, BuildingBlock: VOLQOD_clean_sbu_1, # of connection points: 6
#     Node 2, Type 1, BuildingBlock: INOVEN_clean_linker_0, # of connection points: 3
#     Node 3, Type 1, BuildingBlock: INOVEN_clean_linker_0, # of connection points: 3
#     Node 4, Type 1, BuildingBlock: INOVEN_clean_linker_0, # of connection points: 3
#     Node 5, Type 1, BuildingBlock: INOVEN_clean_linker_0, # of connection points: 3
#     Edge 6, Type (0, 1), BuildingBlock: TEMPAE_clean_linker_10, # of connection points: 2
#     Edge 7, Type (0, 1), BuildingBlock: TEMPAE_clean_linker_10, # of connection points: 2
#     Edge 8, Type (0, 1), BuildingBlock: TEMPAE_clean_linker_10, # of connection points: 2
#     Edge 9, Type (0, 1), BuildingBlock: TEMPAE_clean_linker_10, # of connection points: 2
#     Edge 10, Type (0, 1), BuildingBlock: TEMPAE_clean_linker_10, # of connection points: 2
#     Edge 11, Type (0, 1), BuildingBlock: TEMPAE_clean_linker_10, # of connection points: 2
#     Edge 12, Type (0, 1), BuildingBlock: TEMPAE_clean_linker_10, # of connection points: 2
#     Edge 13, Type (0, 1), BuildingBlock: TEMPAE_clean_linker_10, # of connection points: 2
#     Edge 14, Type (0, 1), BuildingBlock: TEMPAE_clean_linker_10, # of connection points: 2
#     Edge 15, Type (0, 1), BuildingBlock: TEMPAE_clean_linker_10, # of connection points: 2
#     Edge 16, Type (0, 1), BuildingBlock: TEMPAE_clean_linker_10, # of connection points: 2
#     Edge 17, Type (0, 1), BuildingBlock: TEMPAE_clean_linker_10, # of connection points: 2
# Relax obj value: 0.050
# Max RMSD: 0.107
# Mean RMSD: 0.096
data_MOF--net-tsx--node1-VOLQOD_clean_sbu_1--node2-INOVEN_clean_linker_0--edge1-TEMPAE_clean_linker_10
_symmetry_space_group_name_H-M    P1
_symmetry_Int_Tables_number       1
_symmetry_cell_setting            triclinic
loop_
_symmetry_equiv_pos_as_xyz
'x, y, z'
_cell_length_a     21.313864
_cell_length_b     22.003782
_cell_length_c     37.786891
_cell_angle_alpha  90.13257
_cell_angle_beta   97.971103
_cell_angle_gamma 89.901402
loop_
_atom_site_label
_atom_site_type_symbol
_atom_site_fract_x
_atom_site_fract_y
_atom_site_fract_z
_atom_type_partial_charge
O0 O 0.05527 0.00778 0.08527 0.0
Zn1 Zn 0.07869 0.0068 0.03503 0.0
O2 O 0.00255 0.00677 0.99912 0.0
Zn3 Zn 0.00595 0.93628 0.9678 0.0
Zn4 Zn 0.92671 0.00495 0.02286 0.0
Zn5 Zn 0.99802 0.08007 0.97008 0.0
O6 O 0.00525 0.96119 0.91645 0.0
O7 O 0.99514 0.0617 0.91786 0.0
O8 O 0.13402 0.93291 0.03061 0.0
O9 O 0.08626 0.88891 0.98113 0.0
O10 O 0.93235 0.87997 0.97156 0.0
O11 O 0.87696 0.9298 0.00817 0.0
O12 O 0.8697 0.07826 0.01174 0.0
O13 O 0.13157 0.0809 0.02823 0.0
O14 O 0.92234 0.13055 0.9755 0.0
O15 O 0.07302 0.13234 0.98482 0.0
C16 C 0.00234 0.00525 0.09733 0.0
C17 C -8e-05 0.01246 0.90079 0.0
C18 C 0.88458 0.88423 0.98833 0.0
C19 C 0.13153 0.89153 0.00685 0.0
C20 C 0.87539 0.12491 0.99258 0.0
C21 C 0.12247 0.12668 0.00754 0.0
O22 O 0.95024 0.00303 0.0763 0.0
O23 O 0.56624 0.52396 0.58659 0.0
Zn24 Zn 0.58733 0.52113 0.53578 0.0
O25 O 0.50939 0.52226 0.5011 0.0
Zn26 Zn 0.50975 0.4523 0.46904 0.0
Zn27 Zn 0.4347 0.51926 0.52595 0.0
Zn28 Zn 0.50517 0.59706 0.47302 0.0
O29 O 0.5084 0.47895 0.418 0.0
O30 O 0.49973 0.57957 0.42043 0.0
O31 O 0.63947 0.44511 0.53074 0.0
O32 O 0.5891 0.40306 0.48127 0.0
O33 O 0.43485 0.39676 0.47254 0.0
O34 O 0.38378 0.4435 0.51224 0.0
O35 O 0.3772 0.59233 0.51504 0.0
O36 O 0.64287 0.5933 0.52742 0.0
O37 O 0.42955 0.64729 0.47977 0.0
O38 O 0.58236 0.64841 0.48665 0.0
C39 C 0.51402 0.52168 0.59949 0.0
C40 C 0.50337 0.53066 0.40284 0.0
C41 C 0.38904 0.39934 0.49093 0.0
C42 C 0.635 0.4041 0.50669 0.0
C43 C 0.38245 0.64 0.49662 0.0
C44 C 0.63371 0.64022 0.5076 0.0
O45 O 0.46114 0.51869 0.57918 0.0
H46 H 0.00905 0.97994 0.46829 0.0
H47 H 0.0675 0.91641 0.37016 0.0
H48 H 0.92781 0.05802 0.36822 0.0
N49 N 0.9273 0.06449 0.43744 0.0
N50 N 0.94292 0.08209 0.46882 0.0
C51 C 0.00632 0.98229 0.43951 0.0
C52 C 0.0419 0.94185 0.42143 0.0
C53 C 0.96523 0.02421 0.42019 0.0
C54 C 0.96025 0.02598 0.38285 0.0
C55 C 0.99717 0.98737 0.36444 0.0
C56 C 0.03777 0.94549 0.38403 0.0
H57 H 0.01039 0.97702 0.53289 0.0
H58 H 0.91756 0.95188 0.62577 0.0
H59 H 0.08652 0.05987 0.63242 0.0
N60 N 0.09683 0.05821 0.56491 0.0
N61 N 0.09328 0.068 0.53219 0.0
C62 C 0.00694 0.98597 0.56071 0.0
C63 C 0.96088 0.95622 0.5777 0.0
C64 C 0.05065 0.02533 0.58053 0.0
C65 C 0.04988 0.03257 0.61731 0.0
C66 C 0.00277 0.0052 0.63435 0.0
C67 C 0.95658 0.97015 0.61361 0.0
H68 H 0.52201 0.48349 0.97035 0.0
H69 H 0.58164 0.42504 0.87155 0.0
H70 H 0.44856 0.57209 0.87196 0.0
N71 N 0.44408 0.57244 0.94094 0.0
N72 N 0.45506 0.583 0.97365 0.0
C73 C 0.52078 0.48839 0.94173 0.0
C74 C 0.55521 0.44802 0.92297 0.0
C75 C 0.48238 0.53324 0.92321 0.0
C76 C 0.47927 0.53807 0.88602 0.0
C77 C 0.51497 0.49923 0.867 0.0
C78 C 0.55291 0.45453 0.88581 0.0
H79 H 0.47971 0.46908 0.0346 0.0
H80 H 0.39405 0.46156 0.13106 0.0
H81 H 0.56849 0.55818 0.12942 0.0
N82 N 0.56991 0.54515 0.05843 0.0
N83 N 0.6187 0.57132 0.07273 0.0
C84 C 0.47895 0.48123 0.06233 0.0
C85 C 0.4326 0.45757 0.08141 0.0
C86 C 0.52649 0.51911 0.0792 0.0
C87 C 0.52955 0.53162 0.11602 0.0
C88 C 0.48279 0.50937 0.13542 0.0
C89 C 0.43267 0.47555 0.11711 0.0
C90 C 0.14712 0.23576 0.01607 0.0
C91 C 0.16826 0.17649 0.01133 0.0
C92 C 0.19031 0.28359 0.02283 0.0
C93 C 0.25575 0.27183 0.02339 0.0
C94 C 0.27674 0.21262 0.01599 0.0
C95 C 0.23267 0.1651 0.01089 0.0
C96 C 0.1663 0.34549 0.03201 0.0
C97 C 0.34592 0.19901 0.01497 0.0
C98 C 0.36352 0.40982 0.02902 0.0
C99 C 0.38723 0.41035 0.06561 0.0
C100 C 0.32225 0.36371 0.01442 0.0
C101 C 0.30241 0.31883 0.03722 0.0
C102 C 0.32581 0.31934 0.07408 0.0
C103 C 0.36912 0.36394 0.08755 0.0
C104 C 0.29994 0.36303 0.97472 0.0
C105 C 0.30468 0.2731 0.09953 0.0
H106 H 0.097 0.24406 0.01635 0.0
H107 H 0.24846 0.11912 0.0066 0.0
H108 H 0.18289 0.3557 0.06055 0.0
H109 H 0.1855 0.38126 0.01593 0.0
H110 H 0.11374 0.34821 0.02751 0.0
H111 H 0.35286 0.15403 0.00265 0.0
H112 H 0.3675 0.23459 0.99975 0.0
H113 H 0.37178 0.19896 0.04254 0.0
H114 H 0.37683 0.44542 0.01177 0.0
H115 H 0.38896 0.36203 0.11551 0.0
H116 H 0.24839 0.37259 0.9696 0.0
H117 H 0.30752 0.31736 0.96352 0.0
H118 H 0.32493 0.39727 0.96025 0.0
H119 H 0.25221 0.27283 0.09736 0.0
H120 H 0.32444 0.2824 0.12779 0.0
H121 H 0.31981 0.22693 0.09246 0.0
C122 C 0.20978 0.81973 0.0401 0.0
C123 C 0.1834 0.84688 0.00793 0.0
C124 C 0.25682 0.77464 0.04054 0.0
C125 C 0.27918 0.75823 0.00822 0.0
C126 C 0.25412 0.78742 0.97593 0.0
C127 C 0.20576 0.83054 0.97611 0.0
C128 C 0.28092 0.74317 0.07522 0.0
C129 C 0.2778 0.77259 0.94102 0.0
C130 C 0.43529 0.67817 0.00284 0.0
C131 C 0.41372 0.62168 0.98941 0.0
C132 C 0.39226 0.7225 0.01139 0.0
C133 C 0.32664 0.70879 0.00722 0.0
C134 C 0.30578 0.64944 0.99684 0.0
C135 C 0.3496 0.60682 0.98746 0.0
C136 C 0.41645 0.78537 0.02175 0.0
C137 C 0.23665 0.63223 0.99316 0.0
H138 H 0.19207 0.83223 0.06467 0.0
H139 H 0.18574 0.8521 0.9513 0.0
H140 H 0.26766 0.6944 0.07322 0.0
H141 H 0.33337 0.74528 0.08048 0.0
H142 H 0.26128 0.76344 0.0983 0.0
H143 H 0.25701 0.80289 0.91897 0.0
H144 H 0.33016 0.77669 0.94407 0.0
H145 H 0.26567 0.72495 0.93326 0.0
H146 H 0.48515 0.68903 0.00409 0.0
H147 H 0.33363 0.56256 0.97727 0.0
H148 H 0.39477 0.80291 0.04478 0.0
H149 H 0.40288 0.81681 0.99904 0.0
H150 H 0.46884 0.78626 0.02869 0.0
H151 H 0.21498 0.64895 0.01641 0.0
H152 H 0.2298 0.58225 0.99087 0.0
H153 H 0.21088 0.65375 0.96885 0.0
C154 C 0.78075 0.84215 0.99935 0.0
C155 C 0.83979 0.83296 0.98783 0.0
C156 C 0.74253 0.79292 0.00585 0.0
C157 C 0.76418 0.73304 0.00099 0.0
C158 C 0.821 0.72357 0.98631 0.0
C159 C 0.85824 0.77384 0.97979 0.0
C160 C 0.68156 0.80502 0.02084 0.0
C161 C 0.84503 0.66038 0.98025 0.0
C162 C 0.714 0.62899 0.07096 0.0
C163 C 0.65976 0.6024 0.05258 0.0
C164 C 0.75106 0.66853 0.05368 0.0
C165 C 0.73288 0.68181 0.01701 0.0
C166 C 0.68031 0.65167 0.9976 0.0
C167 C 0.64403 0.61219 0.01569 0.0
C168 C 0.80707 0.6993 0.07535 0.0
C169 C 0.6597 0.66406 0.95845 0.0
H170 H 0.76565 0.88785 0.00492 0.0
H171 H 0.90364 0.76644 0.97062 0.0
H172 H 0.64244 0.77732 0.00667 0.0
H173 H 0.68744 0.79186 0.04945 0.0
H174 H 0.6676 0.85369 0.01877 0.0
H175 H 0.88265 0.66066 0.96264 0.0
H176 H 0.86504 0.64028 0.0063 0.0
H177 H 0.80585 0.63051 0.96823 0.0
H178 H 0.72559 0.62092 0.09942 0.0
H179 H 0.60193 0.59138 0.00132 0.0
H180 H 0.79676 0.74843 0.07803 0.0
H181 H 0.84965 0.69539 0.06162 0.0
H182 H 0.81825 0.67966 0.10256 0.0
H183 H 0.63332 0.70767 0.95555 0.0
H184 H 0.62811 0.62768 0.94573 0.0
H185 H 0.70118 0.66834 0.94385 0.0
C186 C 0.83272 0.22358 0.9672 0.0
C187 C 0.82665 0.1735 0.9894 0.0
C188 C 0.786 0.26865 0.962 0.0
C189 C 0.73175 0.26391 0.97957 0.0
C190 C 0.72633 0.21496 0.0032 0.0
C191 C 0.77382 0.17007 0.00775 0.0
C192 C 0.79355 0.32005 0.93646 0.0
C193 C 0.66947 0.20894 0.0227 0.0
C194 C 0.63537 0.4094 0.97281 0.0
C195 C 0.59342 0.39826 0.9415 0.0
C196 C 0.67799 0.36427 0.98737 0.0
C197 C 0.67853 0.30714 0.97002 0.0
C198 C 0.63306 0.29445 0.93995 0.0
C199 C 0.59093 0.3401 0.92617 0.0
C200 C 0.7251 0.37918 0.01981 0.0
C201 C 0.63181 0.23413 0.92068 0.0
H202 H 0.87351 0.22708 0.9531 0.0
H203 H 0.76898 0.13187 0.02522 0.0
H204 H 0.75579 0.31727 0.91314 0.0
H205 H 0.78838 0.36448 0.94969 0.0
H206 H 0.84024 0.319 0.92655 0.0
H207 H 0.67618 0.17299 0.04347 0.0
H208 H 0.65956 0.25269 0.03551 0.0
H209 H 0.62709 0.19748 0.00336 0.0
H210 H 0.63718 0.45427 0.98484 0.0
H211 H 0.55736 0.33097 0.90248 0.0
H212 H 0.77227 0.38728 0.01145 0.0
H213 H 0.73006 0.34064 0.03888 0.0
H214 H 0.71119 0.42051 0.0338 0.0
H215 H 0.67479 0.22978 0.9073 0.0
H216 H 0.58946 0.22934 0.90014 0.0
H217 H 0.63239 0.19604 0.93989 0.0
C218 C 0.74485 0.67229 0.5043 0.0
C219 C 0.68295 0.68728 0.50952 0.0
C220 C 0.79247 0.71681 0.50734 0.0
C221 C 0.77828 0.77668 0.51764 0.0
C222 C 0.71509 0.79227 0.52163 0.0
C223 C 0.66788 0.7475 0.5168 0.0
C224 C 0.85845 0.69927 0.50092 0.0
C225 C 0.69815 0.85504 0.5335 0.0
C226 C 0.90463 0.85744 0.58023 0.0
C227 C 0.91931 0.90749 0.55988 0.0
C228 C 0.8594 0.81463 0.56655 0.0
C229 C 0.83051 0.81937 0.53066 0.0
C230 C 0.84904 0.86659 0.50878 0.0
C231 C 0.89251 0.91091 0.52385 0.0
C232 C 0.84054 0.76591 0.59123 0.0
C233 C 0.8217 0.87172 0.4699 0.0
H234 H 0.75594 0.62579 0.49786 0.0
H235 H 0.61969 0.75886 0.52054 0.0
H236 H 0.87891 0.73495 0.48523 0.0
H237 H 0.88962 0.69497 0.52684 0.0
H238 H 0.85892 0.65526 0.48648 0.0
H239 H 0.64635 0.86068 0.53354 0.0
H240 H 0.72261 0.8638 0.56093 0.0
H241 H 0.71445 0.88994 0.51574 0.0
H242 H 0.92731 0.85251 0.60758 0.0
H243 H 0.90399 0.94888 0.5077 0.0
H244 H 0.85071 0.72026 0.58094 0.0
H245 H 0.78883 0.76837 0.59238 0.0
H246 H 0.86587 0.77029 0.61886 0.0
H247 H 0.81367 0.82621 0.45737 0.0
H248 H 0.85331 0.89824 0.45468 0.0
H249 H 0.77543 0.89554 0.46761 0.0
C250 C 0.70757 0.34282 0.47499 0.0
C251 C 0.68524 0.35792 0.507 0.0
C252 C 0.75383 0.29781 0.47397 0.0
C253 C 0.77661 0.26544 0.50553 0.0
C254 C 0.75444 0.28077 0.53808 0.0
C255 C 0.70966 0.32776 0.53856 0.0
C256 C 0.77751 0.28424 0.4389 0.0
C257 C 0.77602 0.24599 0.57198 0.0
C258 C 0.83772 0.11173 0.48129 0.0
C259 C 0.90293 0.12256 0.48442 0.0
C260 C 0.79642 0.15625 0.49129 0.0
C261 C 0.82091 0.21359 0.50343 0.0
C262 C 0.88734 0.22319 0.50861 0.0
C263 C 0.92776 0.17683 0.4996 0.0
C264 C 0.72623 0.14323 0.48662 0.0
C265 C 0.91538 0.28395 0.52068 0.0
H266 H 0.68904 0.36669 0.45068 0.0
H267 H 0.69193 0.33934 0.56326 0.0
H268 H 0.83007 0.28509 0.44243 0.0
H269 H 0.76233 0.23802 0.42961 0.0
H270 H 0.75937 0.31727 0.41771 0.0
H271 H 0.75755 0.26605 0.59549 0.0
H272 H 0.75941 0.19827 0.56873 0.0
H273 H 0.82849 0.24467 0.57739 0.0
H274 H 0.81906 0.06905 0.46996 0.0
H275 H 0.97838 0.1846 0.50184 0.0
H276 H 0.70251 0.16791 0.46288 0.0
H277 H 0.70508 0.15944 0.51017 0.0
H278 H 0.71608 0.09396 0.48279 0.0
H279 H 0.90436 0.31738 0.49874 0.0
H280 H 0.96766 0.28153 0.52794 0.0
H281 H 0.89431 0.30131 0.54397 0.0
C282 C 0.35296 0.29408 0.47145 0.0
C283 C 0.34243 0.3488 0.48895 0.0
C284 C 0.31217 0.2441 0.47257 0.0
C285 C 0.25956 0.24902 0.49154 0.0
C286 C 0.24691 0.30509 0.50764 0.0
C287 C 0.28847 0.35412 0.50622 0.0
C288 C 0.32714 0.18521 0.45496 0.0
C289 C 0.19106 0.3125 0.52792 0.0
C290 C 0.1245 0.13487 0.48642 0.0
C291 C 0.13977 0.10459 0.51896 0.0
C292 C 0.16475 0.18004 0.47585 0.0
C293 C 0.22179 0.19436 0.49833 0.0
C294 C 0.2396 0.16025 0.52986 0.0
C295 C 0.19836 0.11593 0.53983 0.0
C296 C 0.14417 0.21501 0.44194 0.0
C297 C 0.30034 0.17321 0.55436 0.0
H298 H 0.39431 0.28948 0.45788 0.0
H299 H 0.27935 0.39632 0.51948 0.0
H300 H 0.34395 0.15123 0.47579 0.0
H301 H 0.28399 0.16639 0.4389 0.0
H302 H 0.36436 0.19097 0.43736 0.0
H303 H 0.18455 0.36035 0.53614 0.0
H304 H 0.1469 0.29702 0.51135 0.0
H305 H 0.19811 0.28381 0.55227 0.0
H306 H 0.07931 0.12572 0.47033 0.0
H307 H 0.21093 0.09172 0.56476 0.0
H308 H 0.18431 0.2209 0.42646 0.0
H309 H 0.12811 0.26102 0.4488 0.0
H310 H 0.10459 0.19215 0.42474 0.0
H311 H 0.341 0.17458 0.53897 0.0
H312 H 0.31028 0.13869 0.57582 0.0
H313 H 0.29707 0.21845 0.56703 0.0
C314 C 0.33554 0.73672 0.47044 0.0
C315 C 0.33208 0.68711 0.49336 0.0
C316 C 0.28635 0.77931 0.46449 0.0
C317 C 0.23235 0.7726 0.48209 0.0
C318 C 0.22978 0.72451 0.50667 0.0
C319 C 0.27959 0.68204 0.51189 0.0
C320 C 0.2909 0.82982 0.43793 0.0
C321 C 0.17338 0.71654 0.52635 0.0
C322 C 0.12539 0.91132 0.47188 0.0
C323 C 0.08406 0.89574 0.44102 0.0
C324 C 0.17145 0.86994 0.48738 0.0
C325 C 0.1763 0.81209 0.4714 0.0
C326 C 0.13175 0.79485 0.44178 0.0
C327 C 0.086 0.83676 0.42712 0.0
C328 C 0.21729 0.8896 0.51939 0.0
C329 C 0.13502 0.73362 0.42395 0.0
H330 H 0.37599 0.74147 0.45616 0.0
H331 H 0.27673 0.64424 0.52994 0.0
H332 H 0.25373 0.82372 0.41455 0.0
H333 H 0.28254 0.87448 0.45013 0.0
H334 H 0.33778 0.83098 0.42825 0.0
H335 H 0.18253 0.68251 0.54814 0.0
H336 H 0.16035 0.76044 0.5379 0.0
H337 H 0.13198 0.70122 0.50738 0.0
H338 H 0.12391 0.95681 0.48283 0.0
H339 H 0.05297 0.82404 0.40383 0.0
H340 H 0.26369 0.90043 0.51078 0.0
H341 H 0.22522 0.85248 0.53934 0.0
H342 H 0.20022 0.93058 0.53245 0.0
H343 H 0.1786 0.73103 0.41098 0.0
H344 H 0.0935 0.72526 0.40329 0.0
H345 H 0.13767 0.69668 0.44401 0.0
C346 C 0.94286 0.0038 0.15014 0.0
C347 C 0.00097 0.00455 0.13655 0.0
C348 C 0.94055 0.00231 0.18707 0.0
C349 C 0.99767 0.00143 0.21113 0.0
C350 C 0.05648 0.00261 0.19769 0.0
C351 C 0.05744 0.00421 0.16059 0.0
C352 C 0.8769 0.00122 0.20035 0.0
C353 C 0.11842 0.0016 0.22252 0.0
C354 C 0.99435 0.04779 0.30792 0.0
C355 C 0.99458 0.99116 0.32494 0.0
C356 C 0.99496 0.05186 0.27087 0.0
C357 C 0.99589 0.99802 0.25034 0.0
C358 C 0.99534 0.94074 0.26729 0.0
C359 C 0.99456 0.93802 0.30433 0.0
C360 C 0.99543 0.11376 0.25376 0.0
C361 C 0.99603 0.88228 0.24632 0.0
H362 H 0.89889 0.0042 0.13189 0.0
H363 H 0.10257 0.0048 0.15045 0.0
H364 H 0.87231 0.9591 0.21587 0.0
H365 H 0.87293 0.04016 0.21861 0.0
H366 H 0.83684 0.00332 0.17819 0.0
H367 H 0.16009 0.00381 0.20787 0.0
H368 H 0.12056 0.0405 0.24137 0.0
H369 H 0.12178 0.95944 0.23873 0.0
H370 H 0.99516 0.08903 0.32372 0.0
H371 H 0.99383 0.8941 0.3172 0.0
H372 H 0.95458 0.11822 0.23227 0.0
H373 H 0.03911 0.1192 0.24116 0.0
H374 H 0.99322 0.1512 0.27332 0.0
H375 H 0.95447 0.88062 0.22512 0.0
H376 H 0.9952 0.84146 0.26349 0.0
H377 H 0.03909 0.88032 0.23288 0.0
C378 C 0.05177 0.98867 0.84756 0.0
C379 C 0.00141 0.01518 0.86213 0.0
C380 C 0.05461 0.99174 0.81076 0.0
C381 C 0.00441 0.01967 0.788 0.0
C382 C 0.95325 0.04633 0.80273 0.0
C383 C 0.95309 0.04488 0.83985 0.0
C384 C 0.11105 0.96476 0.79622 0.0
C385 C 0.89767 0.07432 0.77923 0.0
C386 C 0.02577 0.0623 0.6929 0.0
C387 C 0.00293 0.0101 0.67384 0.0
C388 C 0.02747 0.06585 0.73017 0.0
C389 C 0.0034 0.01714 0.74864 0.0
C390 C 0.97915 0.96499 0.72961 0.0
C391 C 0.98081 0.96144 0.69277 0.0
C392 C 0.05575 0.12133 0.74983 0.0
C393 C 0.95148 0.91266 0.74815 0.0
H394 H 0.08948 0.96646 0.8651 0.0
H395 H 0.91419 0.06523 0.85139 0.0
H396 H 0.0961 0.92459 0.77939 0.0
H397 H 0.13115 0.99828 0.77899 0.0
H398 H 0.14889 0.95039 0.81782 0.0
H399 H 0.86224 0.09403 0.79497 0.0
H400 H 0.9141 0.11056 0.76238 0.0
H401 H 0.87398 0.03922 0.76092 0.0
H402 H 0.0423 0.10059 0.67881 0.0
H403 H 0.96514 0.91983 0.67897 0.0
H404 H 0.09462 0.10752 0.77094 0.0
H405 H 0.01945 0.14474 0.7633 0.0
H406 H 0.07483 0.15416 0.73176 0.0
H407 H 0.98907 0.89045 0.76698 0.0
H408 H 0.92955 0.87784 0.729 0.0
H409 H 0.91495 0.92957 0.76403 0.0
C410 C 0.57153 0.52014 0.66225 0.0
C411 C 0.51432 0.52185 0.63886 0.0
C412 C 0.57197 0.51854 0.69948 0.0
C413 C 0.51387 0.51886 0.71369 0.0
C414 C 0.45605 0.52155 0.69028 0.0
C415 C 0.45696 0.52292 0.65322 0.0
C416 C 0.63461 0.5155 0.72359 0.0
C417 C 0.39311 0.52216 0.70438 0.0
C418 C 0.51072 0.45236 0.80612 0.0
C419 C 0.51279 0.5047 0.82757 0.0
C420 C 0.51121 0.45639 0.76911 0.0
C421 C 0.5134 0.5142 0.75298 0.0
C422 C 0.51468 0.56729 0.77434 0.0
C423 C 0.51442 0.56191 0.81139 0.0
C424 C 0.50955 0.39869 0.74728 0.0
C425 C 0.51681 0.62974 0.75809 0.0
H426 H 0.6161 0.51933 0.6515 0.0
H427 H 0.41243 0.52451 0.63549 0.0
H428 H 0.63836 0.55359 0.74306 0.0
H429 H 0.63757 0.47265 0.73916 0.0
H430 H 0.67563 0.51753 0.70843 0.0
H431 H 0.35246 0.5265 0.6827 0.0
H432 H 0.3874 0.4796 0.71929 0.0
H433 H 0.39141 0.56045 0.72338 0.0
H434 H 0.50839 0.40802 0.8183 0.0
H435 H 0.51674 0.60252 0.8278 0.0
H436 H 0.5518 0.39632 0.73316 0.0
H437 H 0.46718 0.39861 0.72659 0.0
H438 H 0.50842 0.35728 0.76394 0.0
H439 H 0.56001 0.63427 0.74496 0.0
H440 H 0.51677 0.66651 0.77829 0.0
H441 H 0.47543 0.63622 0.73715 0.0
C442 C 0.45505 0.56527 0.34256 0.0
C443 C 0.50327 0.53402 0.36404 0.0
C444 C 0.45264 0.56577 0.30525 0.0
C445 C 0.5011 0.5364 0.28944 0.0
C446 C 0.55164 0.50742 0.31138 0.0
C447 C 0.55134 0.50544 0.34844 0.0
C448 C 0.39672 0.59506 0.28271 0.0
C449 C 0.60533 0.47746 0.29567 0.0
C450 C 0.46535 0.47186 0.19596 0.0
C451 C 0.48738 0.51774 0.17495 0.0
C452 C 0.46778 0.47846 0.23295 0.0
C453 C 0.49596 0.5309 0.24995 0.0
C454 C 0.51997 0.5768 0.22934 0.0
C455 C 0.51438 0.57021 0.192 0.0
C456 C 0.44028 0.42898 0.25383 0.0
C457 C 0.55228 0.63241 0.24678 0.0
H458 H 0.4179 0.58719 0.35487 0.0
H459 H 0.58901 0.48198 0.36533 0.0
H460 H 0.41306 0.62858 0.26413 0.0
H461 H 0.36927 0.55984 0.26615 0.0
H462 H 0.36461 0.61835 0.29918 0.0
H463 H 0.64463 0.46368 0.31657 0.0
H464 H 0.58771 0.4364 0.28038 0.0
H465 H 0.62432 0.50875 0.27676 0.0
H466 H 0.44653 0.43002 0.18363 0.0
H467 H 0.53107 0.60631 0.17628 0.0
H468 H 0.40643 0.44878 0.27052 0.0
H469 H 0.47857 0.40665 0.27213 0.0
H470 H 0.41524 0.39365 0.23618 0.0
H471 H 0.51885 0.65836 0.26107 0.0
H472 H 0.5703 0.66297 0.22712 0.0
H473 H 0.59259 0.61849 0.26696 0.0
loop_
_geom_bond_atom_site_label_1
_geom_bond_atom_site_label_2
_geom_bond_distance
_geom_bond_site_symmetry_2
_ccdc_geom_bond_type
O0 Zn1 1.953 . S
O0 C16 1.225 1_565 S
Zn1 O0 1.953 . S
Zn1 O2 1.949 1_565 S
Zn1 O8 1.919 . S
Zn1 O13 1.924 1_565 S
O2 Zn1 1.949 1_545 S
O2 Zn3 1.923 1_444 S
O2 Zn4 1.950 1_455 S
O2 Zn5 1.945 1_554 S
Zn3 O2 1.923 1_666 S
Zn3 O6 1.933 . S
Zn3 O9 1.941 1_655 S
Zn3 O10 1.965 . S
Zn4 O2 1.950 1_655 S
Zn4 O11 1.938 1_545 S
Zn4 O12 1.906 . S
Zn4 O22 1.953 . S
Zn5 O2 1.945 1_556 S
Zn5 O7 1.932 . S
Zn5 O14 1.977 1_455 S
Zn5 O15 1.910 . S
O6 Zn3 1.933 . S
O6 C17 1.229 1_565 S
O7 Zn5 1.932 . S
O7 C17 1.305 1_455 S
O8 Zn1 1.919 . S
O8 C19 1.253 1_554 S
O9 Zn3 1.941 1_455 S
O9 C19 1.283 . S
O10 Zn3 1.965 . S
O10 C18 1.303 1_556 S
O11 Zn4 1.938 1_565 S
O11 C18 1.247 . S
O12 Zn4 1.906 . S
O12 C20 1.304 1_554 S
O13 Zn1 1.924 1_545 S
O13 C21 1.311 . S
O14 Zn5 1.977 1_655 S
O14 C20 1.272 . S
O15 Zn5 1.910 . S
O15 C21 1.231 1_556 S
C16 O0 1.225 1_545 S
C16 O22 1.298 1_455 S
C17 O6 1.229 1_545 S
C17 O7 1.305 1_655 S
C18 O10 1.303 1_554 S
C18 O11 1.247 . S
C19 O8 1.253 1_556 S
C19 O9 1.283 . S
C20 O12 1.304 1_556 S
C20 O14 1.272 . S
C21 O13 1.311 . S
C21 O15 1.231 1_554 S
O22 Zn4 1.953 . S
O22 C16 1.298 1_655 S
O23 Zn24 1.953 . S
O23 C39 1.225 . S
Zn24 O23 1.953 . S
Zn24 O25 1.949 . S
Zn24 O31 1.919 . S
Zn24 O36 1.924 . S
O25 Zn24 1.949 . S
O25 Zn26 1.923 . S
O25 Zn27 1.950 . S
O25 Zn28 1.945 . S
Zn26 O25 1.923 . S
Zn26 O29 1.933 . S
Zn26 O32 1.941 . S
Zn26 O33 1.965 . S
Zn27 O25 1.950 . S
Zn27 O34 1.938 . S
Zn27 O35 1.906 . S
Zn27 O45 1.953 . S
Zn28 O25 1.945 . S
Zn28 O30 1.932 . S
Zn28 O37 1.977 . S
Zn28 O38 1.910 . S
O29 Zn26 1.933 . S
O29 C40 1.226 . S
O30 Zn28 1.932 . S
O30 C40 1.307 . S
O31 Zn24 1.919 . S
O31 C42 1.253 . S
O32 Zn26 1.941 . S
O32 C42 1.283 . S
O33 Zn26 1.965 . S
O33 C41 1.303 . S
O34 Zn27 1.938 . S
O34 C41 1.247 . S
O35 Zn27 1.906 . S
O35 C43 1.304 . S
O36 Zn24 1.924 . S
O36 C44 1.311 . S
O37 Zn28 1.977 . S
O37 C43 1.272 . S
O38 Zn28 1.910 . S
O38 C44 1.231 . S
C39 O23 1.225 . S
C39 O45 1.298 . S
C40 O29 1.226 . S
C40 O30 1.307 . S
C41 O33 1.303 . S
C41 O34 1.247 . S
C42 O31 1.253 . S
C42 O32 1.283 . S
C43 O35 1.304 . S
C43 O37 1.272 . S
C44 O36 1.311 . S
C44 O38 1.231 . S
O45 Zn27 1.953 . S
O45 C39 1.298 . S
H46 C51 0.929 . S
H47 C56 0.931 . S
H48 C54 0.930 . S
N49 N50 1.234 . S
N49 C53 1.453 . S
N50 N49 1.234 . S
C51 H46 0.929 . S
C51 C52 1.373 . S
C51 C53 1.368 1_465 S
C52 C51 1.373 . S
C52 C56 1.397 . S
C53 N49 1.453 . S
C53 C51 1.368 1_645 S
C53 C54 1.373 . S
C54 H48 0.930 . S
C54 C53 1.373 . S
C54 C55 1.376 1_655 S
C55 C54 1.376 1_455 S
C55 C56 1.376 1_545 S
C56 H47 0.931 . S
C56 C52 1.397 . S
C56 C55 1.376 1_565 S
H57 C62 0.929 . S
H58 C67 0.931 . S
H59 C65 0.930 . S
N60 N61 1.234 . S
N60 C64 1.453 . S
N61 N60 1.234 . S
C62 H57 0.929 . S
C62 C63 1.373 . S
C62 C64 1.368 1_665 S
C63 C62 1.373 . S
C63 C67 1.397 . S
C64 N60 1.453 . S
C64 C62 1.368 1_445 S
C64 C65 1.373 . S
C65 H59 0.930 . S
C65 C64 1.373 . S
C65 C66 1.371 1_455 S
C66 C65 1.371 1_655 S
C66 C67 1.383 1_545 S
C67 H58 0.931 . S
C67 C63 1.397 . S
C67 C66 1.383 1_565 S
H68 C73 0.929 . S
H69 C78 0.931 . S
H70 C76 0.930 . S
N71 N72 1.234 . S
N71 C75 1.453 . S
N72 N71 1.234 . S
C73 H68 0.929 . S
C73 C74 1.373 . S
C73 C75 1.368 . S
C74 C73 1.373 . S
C74 C78 1.397 . S
C75 N71 1.453 . S
C75 C73 1.368 . S
C75 C76 1.373 . S
C76 H70 0.930 . S
C76 C75 1.373 . S
C76 C77 1.371 . S
C77 C76 1.371 . S
C77 C78 1.383 . S
C78 H69 0.931 . S
C78 C74 1.397 . S
C78 C77 1.383 . S
H79 C84 0.929 . S
H80 C89 0.931 . S
H81 C87 0.930 . S
N82 N83 1.234 . S
N82 C86 1.453 . S
N83 N82 1.234 . S
C84 H79 0.929 . S
C84 C85 1.373 . S
C84 C86 1.368 . S
C85 C84 1.373 . S
C85 C89 1.397 . S
C86 N82 1.453 . S
C86 C84 1.368 . S
C86 C87 1.373 . S
C87 H81 0.930 . S
C87 C86 1.373 . S
C87 C88 1.371 . S
C88 C87 1.371 . S
C88 C89 1.383 . S
C89 H80 0.931 . S
C89 C85 1.397 . S
C89 C88 1.383 . S
C90 C91 1.391 . S
C90 C92 1.394 . S
C90 H106 0.931 . S
C91 C90 1.391 . S
C91 C95 1.376 . S
C92 C90 1.394 . S
C92 C93 1.369 . S
C92 C96 1.531 . S
C93 C92 1.369 . S
C93 C94 1.410 . S
C93 C101 1.503 . S
C94 C93 1.410 . S
C94 C95 1.392 . S
C94 C97 1.511 . S
C95 C91 1.376 . S
C95 C94 1.392 . S
C95 H107 0.929 . S
C96 C92 1.531 . S
C96 H108 0.960 . S
C96 H109 0.962 . S
C96 H110 0.960 . S
C97 C94 1.511 . S
C97 H111 0.961 . S
C97 H112 0.961 . S
C97 H113 0.961 . S
C98 C99 1.370 . S
C98 C100 1.363 . S
C98 H114 0.931 . S
C99 C98 1.370 . S
C99 C103 1.408 . S
C100 C98 1.363 . S
C100 C101 1.370 . S
C100 C104 1.524 1_554 S
C101 C93 1.503 . S
C101 C100 1.370 . S
C101 C102 1.403 . S
C102 C101 1.403 . S
C102 C103 1.404 . S
C102 C105 1.539 . S
C103 C99 1.408 . S
C103 C102 1.404 . S
C103 H115 0.930 . S
C104 C100 1.524 1_556 S
C104 H116 0.956 . S
C104 H117 0.961 . S
C104 H118 0.961 . S
C105 C102 1.539 . S
C105 H119 0.958 . S
C105 H120 0.961 . S
C105 H121 0.960 . S
H106 C90 0.931 . S
H107 C95 0.929 . S
H108 C96 0.960 . S
H109 C96 0.962 . S
H110 C96 0.960 . S
H111 C97 0.961 . S
H112 C97 0.961 . S
H113 C97 0.961 . S
H114 C98 0.931 . S
H115 C103 0.930 . S
H116 C104 0.956 . S
H117 C104 0.961 . S
H118 C104 0.961 . S
H119 C105 0.958 . S
H120 C105 0.961 . S
H121 C105 0.960 . S
C122 C123 1.391 1_554 S
C122 C124 1.394 1_554 S
C122 H138 0.931 . S
C123 C122 1.391 1_556 S
C123 C127 1.376 . S
C124 C122 1.394 1_556 S
C124 C125 1.369 . S
C124 C128 1.531 1_556 S
C125 C124 1.369 . S
C125 C126 1.410 . S
C125 C133 1.503 . S
C126 C125 1.410 . S
C126 C127 1.392 . S
C126 C129 1.511 . S
C127 C123 1.376 . S
C127 C126 1.392 . S
C127 H139 0.929 . S
C128 C124 1.531 1_554 S
C128 H140 0.960 . S
C128 H141 0.962 . S
C128 H142 0.960 . S
C129 C126 1.511 . S
C129 H143 0.961 . S
C129 H144 0.961 . S
C129 H145 0.961 . S
C130 C131 1.370 . S
C130 C132 1.363 . S
C130 H146 0.931 . S
C131 C130 1.370 . S
C131 C135 1.408 . S
C132 C130 1.363 . S
C132 C133 1.370 . S
C132 C136 1.524 . S
C133 C125 1.503 . S
C133 C132 1.370 . S
C133 C134 1.403 . S
C134 C133 1.403 . S
C134 C135 1.404 . S
C134 C137 1.539 . S
C135 C131 1.408 . S
C135 C134 1.404 . S
C135 H147 0.930 . S
C136 C132 1.524 . S
C136 H148 0.956 1_556 S
C136 H149 0.961 . S
C136 H150 0.961 1_556 S
C137 C134 1.539 . S
C137 H151 0.958 . S
C137 H152 0.961 . S
C137 H153 0.960 . S
H138 C122 0.931 . S
H139 C127 0.929 . S
H140 C128 0.960 . S
H141 C128 0.962 . S
H142 C128 0.960 . S
H143 C129 0.961 . S
H144 C129 0.961 . S
H145 C129 0.961 . S
H146 C130 0.931 . S
H147 C135 0.930 . S
H148 C136 0.956 1_554 S
H149 C136 0.961 . S
H150 C136 0.961 1_554 S
H151 C137 0.958 . S
H152 C137 0.961 . S
H153 C137 0.960 . S
C154 C155 1.391 . S
C154 C156 1.394 . S
C154 H170 0.931 . S
C155 C154 1.391 . S
C155 C159 1.376 . S
C156 C154 1.394 . S
C156 C157 1.369 . S
C156 C160 1.531 . S
C157 C156 1.369 . S
C157 C158 1.410 . S
C157 C165 1.503 . S
C158 C157 1.410 . S
C158 C159 1.392 . S
C158 C161 1.511 . S
C159 C155 1.376 . S
C159 C158 1.392 . S
C159 H171 0.929 . S
C160 C156 1.531 . S
C160 H172 0.960 . S
C160 H173 0.962 . S
C160 H174 0.960 1_554 S
C161 C158 1.511 . S
C161 H175 0.961 . S
C161 H176 0.961 . S
C161 H177 0.961 . S
C162 C163 1.370 . S
C162 C164 1.363 . S
C162 H178 0.931 . S
C163 C162 1.370 . S
C163 C167 1.408 . S
C164 C162 1.363 . S
C164 C165 1.370 . S
C164 C168 1.524 . S
C165 C157 1.503 . S
C165 C164 1.370 . S
C165 C166 1.403 . S
C166 C165 1.403 . S
C166 C167 1.404 . S
C166 C169 1.539 1_554 S
C167 C163 1.408 . S
C167 C166 1.404 . S
C167 H179 0.930 . S
C168 C164 1.524 . S
C168 H180 0.956 . S
C168 H181 0.961 . S
C168 H182 0.961 . S
C169 C166 1.539 1_556 S
C169 H183 0.958 . S
C169 H184 0.961 . S
C169 H185 0.960 . S
H170 C154 0.931 . S
H171 C159 0.929 . S
H172 C160 0.960 . S
H173 C160 0.962 . S
H174 C160 0.960 1_556 S
H175 C161 0.961 . S
H176 C161 0.961 . S
H177 C161 0.961 . S
H178 C162 0.931 . S
H179 C167 0.930 . S
H180 C168 0.956 . S
H181 C168 0.961 . S
H182 C168 0.961 . S
H183 C169 0.958 . S
H184 C169 0.961 . S
H185 C169 0.960 . S
C186 C187 1.391 . S
C186 C188 1.394 . S
C186 H202 0.931 . S
C187 C186 1.391 . S
C187 C191 1.376 . S
C188 C186 1.394 . S
C188 C189 1.369 . S
C188 C192 1.531 . S
C189 C188 1.369 . S
C189 C190 1.410 . S
C189 C197 1.503 . S
C190 C189 1.410 . S
C190 C191 1.392 . S
C190 C193 1.511 . S
C191 C187 1.376 . S
C191 C190 1.392 . S
C191 H203 0.912 1_556 S
C192 C188 1.531 . S
C192 H204 0.960 . S
C192 H205 0.962 . S
C192 H206 0.960 . S
C193 C190 1.511 . S
C193 H207 0.961 1_556 S
C193 H208 0.961 . S
C193 H209 0.961 . S
C194 C195 1.370 . S
C194 C196 1.363 . S
C194 H210 0.931 . S
C195 C194 1.370 . S
C195 C199 1.408 . S
C196 C194 1.363 . S
C196 C197 1.370 . S
C196 C200 1.524 . S
C197 C189 1.503 . S
C197 C196 1.370 . S
C197 C198 1.403 . S
C198 C197 1.403 . S
C198 C199 1.404 . S
C198 C201 1.539 . S
C199 C195 1.408 . S
C199 C198 1.404 . S
C199 H211 0.930 . S
C200 C196 1.524 . S
C200 H212 0.956 . S
C200 H213 0.961 1_556 S
C200 H214 0.961 1_556 S
C201 C198 1.539 . S
C201 H215 0.958 . S
C201 H216 0.961 . S
C201 H217 0.960 . S
H202 C186 0.931 . S
H203 C191 0.912 1_554 S
H204 C192 0.960 . S
H205 C192 0.962 . S
H206 C192 0.960 . S
H207 C193 0.961 1_554 S
H208 C193 0.961 . S
H209 C193 0.961 . S
H210 C194 0.931 . S
H211 C199 0.930 . S
H212 C200 0.956 . S
H213 C200 0.961 1_554 S
H214 C200 0.961 1_554 S
H215 C201 0.958 . S
H216 C201 0.961 . S
H217 C201 0.960 . S
C218 C219 1.391 . S
C218 C220 1.394 . S
C218 H234 0.931 . S
C219 C218 1.391 . S
C219 C223 1.376 . S
C220 C218 1.394 . S
C220 C221 1.369 . S
C220 C224 1.531 . S
C221 C220 1.369 . S
C221 C222 1.410 . S
C221 C229 1.503 . S
C222 C221 1.410 . S
C222 C223 1.392 . S
C222 C225 1.511 . S
C223 C219 1.376 . S
C223 C222 1.392 . S
C223 H235 0.929 . S
C224 C220 1.531 . S
C224 H236 0.960 . S
C224 H237 0.962 . S
C224 H238 0.960 . S
C225 C222 1.511 . S
C225 H239 0.961 . S
C225 H240 0.961 . S
C225 H241 0.961 . S
C226 C227 1.370 . S
C226 C228 1.363 . S
C226 H242 0.931 . S
C227 C226 1.370 . S
C227 C231 1.408 . S
C228 C226 1.363 . S
C228 C229 1.370 . S
C228 C232 1.524 . S
C229 C221 1.503 . S
C229 C228 1.370 . S
C229 C230 1.403 . S
C230 C229 1.403 . S
C230 C231 1.404 . S
C230 C233 1.539 . S
C231 C227 1.408 . S
C231 C230 1.404 . S
C231 H243 0.930 . S
C232 C228 1.524 . S
C232 H244 0.956 . S
C232 H245 0.961 . S
C232 H246 0.961 . S
C233 C230 1.539 . S
C233 H247 0.958 . S
C233 H248 0.961 . S
C233 H249 0.960 . S
H234 C218 0.931 . S
H235 C223 0.929 . S
H236 C224 0.960 . S
H237 C224 0.962 . S
H238 C224 0.960 . S
H239 C225 0.961 . S
H240 C225 0.961 . S
H241 C225 0.961 . S
H242 C226 0.931 . S
H243 C231 0.930 . S
H244 C232 0.956 . S
H245 C232 0.961 . S
H246 C232 0.961 . S
H247 C233 0.958 . S
H248 C233 0.961 . S
H249 C233 0.960 . S
C250 C251 1.391 . S
C250 C252 1.394 . S
C250 H266 0.931 . S
C251 C250 1.391 . S
C251 C255 1.376 . S
C252 C250 1.394 . S
C252 C253 1.369 . S
C252 C256 1.531 . S
C253 C252 1.369 . S
C253 C254 1.410 . S
C253 C261 1.503 . S
C254 C253 1.410 . S
C254 C255 1.392 . S
C254 C257 1.511 . S
C255 C251 1.376 . S
C255 C254 1.392 . S
C255 H267 0.929 . S
C256 C252 1.531 . S
C256 H268 0.960 . S
C256 H269 0.962 . S
C256 H270 0.960 . S
C257 C254 1.511 . S
C257 H271 0.961 . S
C257 H272 0.961 . S
C257 H273 0.961 . S
C258 C259 1.370 . S
C258 C260 1.363 . S
C258 H274 0.931 . S
C259 C258 1.370 . S
C259 C263 1.408 . S
C260 C258 1.363 . S
C260 C261 1.370 . S
C260 C264 1.524 . S
C261 C253 1.503 . S
C261 C260 1.370 . S
C261 C262 1.403 . S
C262 C261 1.403 . S
C262 C263 1.404 . S
C262 C265 1.539 . S
C263 C259 1.408 . S
C263 C262 1.404 . S
C263 H275 0.930 . S
C264 C260 1.524 . S
C264 H276 0.956 . S
C264 H277 0.961 . S
C264 H278 0.961 . S
C265 C262 1.539 . S
C265 H279 0.958 . S
C265 H280 0.961 . S
C265 H281 0.960 . S
H266 C250 0.931 . S
H267 C255 0.929 . S
H268 C256 0.960 . S
H269 C256 0.962 . S
H270 C256 0.960 . S
H271 C257 0.961 . S
H272 C257 0.961 . S
H273 C257 0.961 . S
H274 C258 0.931 . S
H275 C263 0.930 . S
H276 C264 0.956 . S
H277 C264 0.961 . S
H278 C264 0.961 . S
H279 C265 0.958 . S
H280 C265 0.961 . S
H281 C265 0.960 . S
C282 C283 1.391 . S
C282 C284 1.394 . S
C282 H298 0.931 . S
C283 C282 1.391 . S
C283 C287 1.376 . S
C284 C282 1.394 . S
C284 C285 1.369 . S
C284 C288 1.531 . S
C285 C284 1.369 . S
C285 C286 1.410 . S
C285 C293 1.503 . S
C286 C285 1.410 . S
C286 C287 1.392 . S
C286 C289 1.511 . S
C287 C283 1.376 . S
C287 C286 1.392 . S
C287 H299 0.929 . S
C288 C284 1.531 . S
C288 H300 0.960 . S
C288 H301 0.962 . S
C288 H302 0.960 . S
C289 C286 1.511 . S
C289 H303 0.961 . S
C289 H304 0.961 . S
C289 H305 0.961 . S
C290 C291 1.370 . S
C290 C292 1.363 . S
C290 H306 0.931 . S
C291 C290 1.370 . S
C291 C295 1.408 . S
C292 C290 1.363 . S
C292 C293 1.370 . S
C292 C296 1.524 . S
C293 C285 1.503 . S
C293 C292 1.370 . S
C293 C294 1.403 . S
C294 C293 1.403 . S
C294 C295 1.404 . S
C294 C297 1.539 . S
C295 C291 1.408 . S
C295 C294 1.404 . S
C295 H307 0.930 . S
C296 C292 1.524 . S
C296 H308 0.956 . S
C296 H309 0.961 . S
C296 H310 0.961 . S
C297 C294 1.539 . S
C297 H311 0.958 . S
C297 H312 0.961 . S
C297 H313 0.960 . S
H298 C282 0.931 . S
H299 C287 0.929 . S
H300 C288 0.960 . S
H301 C288 0.962 . S
H302 C288 0.960 . S
H303 C289 0.961 . S
H304 C289 0.961 . S
H305 C289 0.961 . S
H306 C290 0.931 . S
H307 C295 0.930 . S
H308 C296 0.956 . S
H309 C296 0.961 . S
H310 C296 0.961 . S
H311 C297 0.958 . S
H312 C297 0.961 . S
H313 C297 0.960 . S
C314 C315 1.391 . S
C314 C316 1.394 . S
C314 H330 0.931 . S
C315 C314 1.391 . S
C315 C319 1.376 . S
C316 C314 1.394 . S
C316 C317 1.369 . S
C316 C320 1.531 . S
C317 C316 1.369 . S
C317 C318 1.410 . S
C317 C325 1.503 . S
C318 C317 1.410 . S
C318 C319 1.392 . S
C318 C321 1.511 . S
C319 C315 1.376 . S
C319 C318 1.392 . S
C319 H331 0.929 . S
C320 C316 1.531 . S
C320 H332 0.960 . S
C320 H333 0.962 . S
C320 H334 0.960 . S
C321 C318 1.511 . S
C321 H335 0.961 . S
C321 H336 0.961 . S
C321 H337 0.961 . S
C322 C323 1.370 . S
C322 C324 1.363 . S
C322 H338 0.931 . S
C323 C322 1.370 . S
C323 C327 1.408 . S
C324 C322 1.363 . S
C324 C325 1.370 . S
C324 C328 1.524 . S
C325 C317 1.503 . S
C325 C324 1.370 . S
C325 C326 1.403 . S
C326 C325 1.403 . S
C326 C327 1.404 . S
C326 C329 1.539 . S
C327 C323 1.408 . S
C327 C326 1.404 . S
C327 H339 0.930 . S
C328 C324 1.524 . S
C328 H340 0.956 . S
C328 H341 0.961 . S
C328 H342 0.961 . S
C329 C326 1.539 . S
C329 H343 0.958 . S
C329 H344 0.961 . S
C329 H345 0.960 . S
H330 C314 0.931 . S
H331 C319 0.929 . S
H332 C320 0.960 . S
H333 C320 0.962 . S
H334 C320 0.960 . S
H335 C321 0.961 . S
H336 C321 0.961 . S
H337 C321 0.961 . S
H338 C322 0.931 . S
H339 C327 0.930 . S
H340 C328 0.956 . S
H341 C328 0.961 . S
H342 C328 0.961 . S
H343 C329 0.958 . S
H344 C329 0.961 . S
H345 C329 0.960 . S
C346 C347 1.391 1_665 S
C346 C348 1.394 . S
C346 H362 0.931 . S
C347 C346 1.391 1_445 S
C347 C351 1.376 . S
C348 C346 1.394 . S
C348 C349 1.369 1_655 S
C348 C352 1.531 . S
C349 C348 1.369 1_455 S
C349 C350 1.410 1_565 S
C349 C357 1.504 . S
C350 C349 1.410 1_545 S
C350 C351 1.392 . S
C350 C353 1.511 . S
C351 C347 1.376 . S
C351 C350 1.392 . S
C351 H363 0.929 . S
C352 C348 1.531 . S
C352 H364 0.960 . S
C352 H365 0.962 . S
C352 H366 0.960 . S
C353 C350 1.511 . S
C353 H367 0.961 . S
C353 H368 0.961 . S
C353 H369 0.961 . S
C354 C355 1.370 1_655 S
C354 C356 1.363 . S
C354 H370 0.931 . S
C355 C354 1.370 1_455 S
C355 C359 1.408 1_545 S
C356 C354 1.363 . S
C356 C357 1.357 1_645 S
C356 C360 1.524 . S
C357 C349 1.504 . S
C357 C356 1.357 1_465 S
C357 C358 1.415 . S
C358 C357 1.415 . S
C358 C359 1.404 . S
C358 C361 1.539 . S
C359 C355 1.408 1_565 S
C359 C358 1.404 . S
C359 H371 0.930 . S
C360 C356 1.524 . S
C360 H372 0.956 . S
C360 H373 0.961 . S
C360 H374 0.961 . S
C361 C358 1.539 . S
C361 H375 0.958 . S
C361 H376 0.961 . S
C361 H377 0.960 . S
H362 C346 0.931 . S
H363 C351 0.929 . S
H364 C352 0.960 . S
H365 C352 0.962 . S
H366 C352 0.960 . S
H367 C353 0.961 . S
H368 C353 0.961 . S
H369 C353 0.961 . S
H370 C354 0.931 . S
H371 C359 0.930 . S
H372 C360 0.956 . S
H373 C360 0.961 . S
H374 C360 0.961 . S
H375 C361 0.958 . S
H376 C361 0.961 . S
H377 C361 0.960 . S
C378 C379 1.391 1_465 S
C378 C380 1.394 . S
C378 H394 0.931 . S
C379 C378 1.391 1_645 S
C379 C383 1.376 . S
C380 C378 1.394 . S
C380 C381 1.369 1_455 S
C380 C384 1.531 . S
C381 C380 1.369 1_655 S
C381 C382 1.410 1_565 S
C381 C389 1.503 1_565 S
C382 C381 1.410 1_545 S
C382 C383 1.392 . S
C382 C385 1.511 . S
C383 C379 1.376 . S
C383 C382 1.392 . S
C383 H395 0.929 . S
C384 C380 1.531 . S
C384 H396 0.960 . S
C384 H397 0.962 . S
C384 H398 0.960 . S
C385 C382 1.511 . S
C385 H399 0.961 . S
C385 H400 0.961 . S
C385 H401 0.961 . S
C386 C387 1.369 1_455 S
C386 C388 1.363 . S
C386 H402 0.931 . S
C387 C386 1.369 1_655 S
C387 C391 1.410 1_545 S
C388 C386 1.363 . S
C388 C389 1.377 1_455 S
C388 C392 1.524 . S
C389 C381 1.503 1_545 S
C389 C388 1.377 1_655 S
C389 C390 1.396 1_545 S
C390 C389 1.396 1_565 S
C390 C391 1.404 . S
C390 C393 1.539 . S
C391 C387 1.410 1_565 S
C391 C390 1.404 . S
C391 H403 0.930 . S
C392 C388 1.524 . S
C392 H404 0.956 . S
C392 H405 0.961 . S
C392 H406 0.961 . S
C393 C390 1.539 . S
C393 H407 0.958 . S
C393 H408 0.961 . S
C393 H409 0.960 . S
H394 C378 0.931 . S
H395 C383 0.929 . S
H396 C384 0.960 . S
H397 C384 0.962 . S
H398 C384 0.960 . S
H399 C385 0.961 . S
H400 C385 0.961 . S
H401 C385 0.961 . S
H402 C386 0.931 . S
H403 C391 0.930 . S
H404 C392 0.956 . S
H405 C392 0.961 . S
H406 C392 0.961 . S
H407 C393 0.958 . S
H408 C393 0.961 . S
H409 C393 0.960 . S
C410 C411 1.391 . S
C410 C412 1.394 . S
C410 H426 0.931 . S
C411 C410 1.391 . S
C411 C415 1.376 . S
C412 C410 1.394 . S
C412 C413 1.369 . S
C412 C416 1.531 . S
C413 C412 1.369 . S
C413 C414 1.410 . S
C413 C421 1.503 . S
C414 C413 1.410 . S
C414 C415 1.392 . S
C414 C417 1.511 . S
C415 C411 1.376 . S
C415 C414 1.392 . S
C415 H427 0.929 . S
C416 C412 1.531 . S
C416 H428 0.960 . S
C416 H429 0.962 . S
C416 H430 0.960 . S
C417 C414 1.511 . S
C417 H431 0.961 . S
C417 H432 0.961 . S
C417 H433 0.961 . S
C418 C419 1.370 . S
C418 C420 1.363 . S
C418 H434 0.931 . S
C419 C418 1.370 . S
C419 C423 1.408 . S
C420 C418 1.363 . S
C420 C421 1.370 . S
C420 C424 1.524 . S
C421 C413 1.503 . S
C421 C420 1.370 . S
C421 C422 1.403 . S
C422 C421 1.403 . S
C422 C423 1.404 . S
C422 C425 1.539 . S
C423 C419 1.408 . S
C423 C422 1.404 . S
C423 H435 0.930 . S
C424 C420 1.524 . S
C424 H436 0.956 . S
C424 H437 0.961 . S
C424 H438 0.961 . S
C425 C422 1.539 . S
C425 H439 0.958 . S
C425 H440 0.961 . S
C425 H441 0.960 . S
H426 C410 0.931 . S
H427 C415 0.929 . S
H428 C416 0.960 . S
H429 C416 0.962 . S
H430 C416 0.960 . S
H431 C417 0.961 . S
H432 C417 0.961 . S
H433 C417 0.961 . S
H434 C418 0.931 . S
H435 C423 0.930 . S
H436 C424 0.956 . S
H437 C424 0.961 . S
H438 C424 0.961 . S
H439 C425 0.958 . S
H440 C425 0.961 . S
H441 C425 0.960 . S
C442 C443 1.391 . S
C442 C444 1.394 . S
C442 H458 0.931 . S
C443 C442 1.391 . S
C443 C447 1.376 . S
C444 C442 1.394 . S
C444 C445 1.369 . S
C444 C448 1.531 . S
C445 C444 1.369 . S
C445 C446 1.410 . S
C445 C453 1.503 . S
C446 C445 1.410 . S
C446 C447 1.392 . S
C446 C449 1.511 . S
C447 C443 1.376 . S
C447 C446 1.392 . S
C447 H459 0.929 . S
C448 C444 1.531 . S
C448 H460 0.960 . S
C448 H461 0.962 . S
C448 H462 0.960 . S
C449 C446 1.511 . S
C449 H463 0.961 . S
C449 H464 0.961 . S
C449 H465 0.961 . S
C450 C451 1.370 . S
C450 C452 1.363 . S
C450 H466 0.931 . S
C451 C450 1.370 . S
C451 C455 1.408 . S
C452 C450 1.363 . S
C452 C453 1.370 . S
C452 C456 1.524 . S
C453 C445 1.503 . S
C453 C452 1.370 . S
C453 C454 1.403 . S
C454 C453 1.403 . S
C454 C455 1.404 . S
C454 C457 1.539 . S
C455 C451 1.408 . S
C455 C454 1.404 . S
C455 H467 0.930 . S
C456 C452 1.524 . S
C456 H468 0.956 . S
C456 H469 0.961 . S
C456 H470 0.961 . S
C457 C454 1.539 . S
C457 H471 0.958 . S
C457 H472 0.961 . S
C457 H473 0.960 . S
H458 C442 0.931 . S
H459 C447 0.929 . S
H460 C448 0.960 . S
H461 C448 0.962 . S
H462 C448 0.960 . S
H463 C449 0.961 . S
H464 C449 0.961 . S
H465 C449 0.961 . S
H466 C450 0.931 . S
H467 C455 0.930 . S
H468 C456 0.956 . S
H469 C456 0.961 . S
H470 C456 0.961 . S
H471 C457 0.958 . S
H472 C457 0.961 . S
H473 C457 0.960 . S
C99 C85 1.509 . S
C91 C21 1.522 . S
C123 C19 1.407 . S
C131 N72 1.384 . S
C155 C18 1.374 . S
C163 N83 1.382 . S
C187 C20 1.512 . S
C195 C74 1.499 . S
C219 C44 1.494 . S
C227 C63 1.521 . S
C251 C42 1.410 . S
C259 N50 1.396 . S
C291 N61 1.365 . S
C283 C41 1.398 . S
C323 C52 1.499 . S
C315 C43 1.511 . S
C347 C16 1.523 . S
C355 C55 1.517 . S
C379 C17 1.484 . S
C387 C66 1.479 . S
C419 C77 1.525 . S
C411 C39 1.522 . S
C443 C40 1.487 . S
C451 C88 1.488 . S
