# Generated by pormake.
# Topology pyr, (3,6)-cn, num edge types: 1
# Building blocks:
#     Node 0, Type 0, BuildingBlock: CUQRIR_clean_linker_1, # of connection points: 3
#     Node 1, Type 0, BuildingBlock: CUQRIR_clean_linker_1, # of connection points: 3
#     Node 2, Type 0, BuildingBlock: CUQRIR_clean_linker_1, # of connection points: 3
#     Node 3, Type 0, BuildingBlock: CUQRIR_clean_linker_1, # of connection points: 3
#     Node 4, Type 0, BuildingBlock: CUQRIR_clean_linker_1, # of connection points: 3
#     Node 5, Type 0, BuildingBlock: CUQRIR_clean_linker_1, # of connection points: 3
#     Node 6, Type 0, BuildingBlock: CUQRIR_clean_linker_1, # of connection points: 3
#     Node 7, Type 0, BuildingBlock: CUQRIR_clean_linker_1, # of connection points: 3
#     Node 8, Type 1, BuildingBlock: JUFBIX_clean_sbu_0, # of connection points: 6
#     Node 9, Type 1, BuildingBlock: JUFBIX_clean_sbu_0, # of connection points: 6
#     Node 10, Type 1, BuildingBlock: JUFBIX_clean_sbu_0, # of connection points: 6
#     Node 11, Type 1, BuildingBlock: JUFBIX_clean_sbu_0, # of connection points: 6
#     Edge 12, Type (0, 1), BuildingBlock: CIFDUS_clean_linker_0, # of connection points: 2
#     Edge 13, Type (0, 1), BuildingBlock: CIFDUS_clean_linker_0, # of connection points: 2
#     Edge 14, Type (0, 1), BuildingBlock: CIFDUS_clean_linker_0, # of connection points: 2
#     Edge 15, Type (0, 1), BuildingBlock: CIFDUS_clean_linker_0, # of connection points: 2
#     Edge 16, Type (0, 1), BuildingBlock: CIFDUS_clean_linker_0, # of connection points: 2
#     Edge 17, Type (0, 1), BuildingBlock: CIFDUS_clean_linker_0, # of connection points: 2
#     Edge 18, Type (0, 1), BuildingBlock: CIFDUS_clean_linker_0, # of connection points: 2
#     Edge 19, Type (0, 1), BuildingBlock: CIFDUS_clean_linker_0, # of connection points: 2
#     Edge 20, Type (0, 1), BuildingBlock: CIFDUS_clean_linker_0, # of connection points: 2
#     Edge 21, Type (0, 1), BuildingBlock: CIFDUS_clean_linker_0, # of connection points: 2
#     Edge 22, Type (0, 1), BuildingBlock: CIFDUS_clean_linker_0, # of connection points: 2
#     Edge 23, Type (0, 1), BuildingBlock: CIFDUS_clean_linker_0, # of connection points: 2
#     Edge 24, Type (0, 1), BuildingBlock: CIFDUS_clean_linker_0, # of connection points: 2
#     Edge 25, Type (0, 1), BuildingBlock: CIFDUS_clean_linker_0, # of connection points: 2
#     Edge 26, Type (0, 1), BuildingBlock: CIFDUS_clean_linker_0, # of connection points: 2
#     Edge 27, Type (0, 1), BuildingBlock: CIFDUS_clean_linker_0, # of connection points: 2
#     Edge 28, Type (0, 1), BuildingBlock: CIFDUS_clean_linker_0, # of connection points: 2
#     Edge 29, Type (0, 1), BuildingBlock: CIFDUS_clean_linker_0, # of connection points: 2
#     Edge 30, Type (0, 1), BuildingBlock: CIFDUS_clean_linker_0, # of connection points: 2
#     Edge 31, Type (0, 1), BuildingBlock: CIFDUS_clean_linker_0, # of connection points: 2
#     Edge 32, Type (0, 1), BuildingBlock: CIFDUS_clean_linker_0, # of connection points: 2
#     Edge 33, Type (0, 1), BuildingBlock: CIFDUS_clean_linker_0, # of connection points: 2
#     Edge 34, Type (0, 1), BuildingBlock: CIFDUS_clean_linker_0, # of connection points: 2
#     Edge 35, Type (0, 1), BuildingBlock: CIFDUS_clean_linker_0, # of connection points: 2
# Relax obj value: 0.158
# Max RMSD: 0.226
# Mean RMSD: 0.153
data_MOF--net-pyr--node1-JUFBIX_clean_sbu_0--node2-CUQRIR_clean_linker_1--edge1-CIFDUS_clean_linker_0
_symmetry_space_group_name_H-M    P1
_symmetry_Int_Tables_number       1
_symmetry_cell_setting            triclinic
loop_
_symmetry_equiv_pos_as_xyz
'x, y, z'
_cell_length_a     29.597673
_cell_length_b     28.660718
_cell_length_c     28.883449
_cell_angle_alpha  77.939583
_cell_angle_beta   89.204587
_cell_angle_gamma 94.062816
loop_
_atom_site_label
_atom_site_type_symbol
_atom_site_fract_x
_atom_site_fract_y
_atom_site_fract_z
_atom_type_partial_charge
C0 C 0.23165 0.21743 0.2072 0.0
N1 N 0.26176 0.18391 0.22102 0.0
N2 N 0.24614 0.24831 0.16663 0.0
C3 C 0.18641 0.21739 0.2322 0.0
C4 C 0.28622 0.23178 0.15607 0.0
N5 N 0.29607 0.19265 0.18914 0.0
C6 C 0.31667 0.25507 0.11432 0.0
H7 H 0.16477 0.18523 0.22865 0.0
H8 H 0.16728 0.24859 0.21777 0.0
H9 H 0.19147 0.21545 0.27054 0.0
H10 H 0.31178 0.29383 0.10367 0.0
H11 H 0.30827 0.2381 0.08403 0.0
H12 H 0.35274 0.2502 0.12265 0.0
C13 C 0.3873 0.7555 0.7425 0.0
N14 N 0.38235 0.79255 0.76401 0.0
N15 N 0.42918 0.73945 0.74951 0.0
C16 C 0.35437 0.74035 0.70793 0.0
C17 C 0.44956 0.76821 0.77589 0.0
N18 N 0.42124 0.80052 0.78436 0.0
C19 C 0.49767 0.76629 0.79168 0.0
H20 H 0.33808 0.70442 0.72382 0.0
H21 H 0.37258 0.7378 0.6748 0.0
H22 H 0.32728 0.76516 0.69876 0.0
H23 H 0.51952 0.79374 0.76684 0.0
H24 H 0.51011 0.73054 0.79231 0.0
H25 H 0.50024 0.77467 0.82742 0.0
C26 C 0.667 0.39088 0.91866 0.0
N27 N 0.70128 0.3782 0.9483 0.0
N28 N 0.68028 0.42897 0.88398 0.0
C29 C 0.62193 0.36243 0.92015 0.0
C30 C 0.72397 0.43969 0.89377 0.0
N31 N 0.73689 0.40895 0.93303 0.0
C32 C 0.75361 0.48058 0.86513 0.0
H33 H 0.62183 0.3416 0.89178 0.0
H34 H 0.59412 0.38668 0.91352 0.0
H35 H 0.61511 0.33752 0.95487 0.0
H36 H 0.73301 0.50675 0.84252 0.0
H37 H 0.77701 0.46644 0.84199 0.0
H38 H 0.77428 0.49889 0.88877 0.0
C39 C 0.95952 0.63769 0.43027 0.0
N40 N 1.00216 0.6582 0.42084 0.0
N41 N 0.94099 0.65046 0.46826 0.0
C42 C 0.93402 0.60924 0.39933 0.0
C43 C 0.97404 0.67913 0.48208 0.0
N44 N 1.01175 0.68341 0.45377 0.0
C45 C 0.96726 0.70808 0.5192 0.0
H46 H 0.91962 0.63433 0.3696 0.0
H47 H 0.90579 0.58588 0.41952 0.0
H48 H 0.95695 0.5869 0.38424 0.0
H49 H 0.93502 0.69644 0.53976 0.0
H50 H 0.96694 0.74644 0.50182 0.0
H51 H 0.99577 0.70449 0.54389 0.0
C52 C 0.8708 0.8673 0.92382 0.0
N53 N 0.90644 0.86087 0.89628 0.0
N54 N 0.84757 0.90445 0.90215 0.0
C55 C 0.85677 0.83487 0.97065 0.0
C56 C 0.87026 0.92007 0.8598 0.0
N57 N 0.90596 0.89335 0.8558 0.0
C58 C 0.86006 0.96433 0.82446 0.0
H59 H 0.86664 0.79799 0.97197 0.0
H60 H 0.81962 0.83354 0.9771 0.0
H61 H 0.87404 0.8487 0.99944 0.0
H62 H 0.89149 0.98253 0.80566 0.0
H63 H 0.84348 0.98975 0.84213 0.0
H64 H 0.83667 0.9541 0.79796 0.0
C65 C 0.66851 0.15352 0.52965 0.0
N66 N 0.6763 0.11913 0.50537 0.0
N67 N 0.62789 0.17092 0.51882 0.0
C68 C 0.7 0.17018 0.5643 0.0
C69 C 0.61083 0.14567 0.4876 0.0
N70 N 0.64008 0.11385 0.47964 0.0
C71 C 0.56903 0.15776 0.45958 0.0
H72 H 0.722 0.14162 0.58018 0.0
H73 H 0.68026 0.18101 0.59276 0.0
H74 H 0.72169 0.20193 0.54579 0.0
H75 H 0.57008 0.19691 0.44525 0.0
H76 H 0.53873 0.14782 0.48359 0.0
H77 H 0.56514 0.13898 0.42987 0.0
C78 C 0.35345 0.63862 0.22042 0.0
N79 N 0.38678 0.66467 0.23798 0.0
N80 N 0.34047 0.66243 0.17774 0.0
C81 C 0.33035 0.59179 0.24643 0.0
C82 C 0.3663 0.70425 0.16992 0.0
N83 N 0.39435 0.70586 0.20633 0.0
C84 C 0.36551 0.74316 0.12597 0.0
H85 H 0.29444 0.58837 0.23624 0.0
H86 H 0.33151 0.58855 0.28534 0.0
H87 H 0.34759 0.56191 0.2367 0.0
H88 H 0.36267 0.77818 0.13604 0.0
H89 H 0.33737 0.73663 0.1027 0.0
H90 H 0.39794 0.74539 0.10563 0.0
C91 C 0.05834 0.36954 0.62582 0.0
N92 N 0.08615 0.35589 0.5944 0.0
N93 N 0.07339 0.41279 0.63379 0.0
C94 C 1.01912 0.33875 0.65205 0.0
C95 C 0.11153 0.42463 0.60611 0.0
N96 N 0.11962 0.38987 0.58235 0.0
C97 C 0.14584 0.46503 0.61004 0.0
H98 H 0.9954 0.36076 0.66658 0.0
H99 H 1.03218 0.31259 0.68182 0.0
H100 H 1.00092 0.31842 0.62832 0.0
H101 H 0.12955 0.49516 0.62024 0.0
H102 H 0.16484 0.47863 0.57599 0.0
H103 H 0.17037 0.45159 0.63749 0.0
Co104 Co 0.05051 0.01928 0.50703 0.0
C105 C 0.08207 0.93008 0.50099 0.0
Co106 Co 0.1133 0.00173 0.54451 0.0
C107 C 0.96121 0.05105 0.4927 0.0
C108 C 0.97883 0.01025 0.44184 0.0
N109 N 0.99525 0.02788 0.47864 0.0
N110 N 0.92428 0.04813 0.46655 0.0
C111 C 0.93487 0.02233 0.43461 0.0
H112 H 0.96291 0.06862 0.52244 0.0
H113 H 0.99736 0.98948 0.4219 0.0
C114 C 0.08194 0.092 0.5483 0.0
N115 N 0.16921 0.99676 0.57217 0.0
C116 C 0.18895 0.96112 0.6011 0.0
C117 C 0.20063 0.03429 0.56488 0.0
N118 N 0.23149 0.97537 0.61156 0.0
C119 C 0.23865 0.02137 0.58895 0.0
C120 C 0.12432 0.04723 0.44684 0.0
O121 O 0.0511 0.08129 0.5215 0.0
O122 O 0.11104 0.06219 0.5623 0.0
O123 O 0.14459 0.0318 0.4849 0.0
O124 O 0.08131 0.04584 0.44814 0.0
O125 O 0.11486 0.94044 0.52621 0.0
H126 H 0.1963 0.06916 0.54303 0.0
H127 H 0.17298 0.92539 0.61321 0.0
O128 O 0.05078 0.95846 0.49192 0.0
O129 O 1.01947 0.9915 0.56653 0.0
O130 O 0.08154 0.97155 0.60382 0.0
C131 C 0.03845 0.97232 0.60447 0.0
H132 H 0.91252 0.01322 0.40795 0.0
H133 H 0.26933 0.0441 0.58969 0.0
Co134 Co 0.5602 0.02665 0.0412 0.0
C135 C 0.54392 0.94465 0.11456 0.0
Co136 Co 0.59273 0.03069 0.10867 0.0
C137 C 0.51035 0.98259 0.97524 0.0
C138 C 0.51458 0.05883 0.95327 0.0
N139 N 0.52716 0.02296 0.98783 0.0
N140 N 0.48794 0.99176 0.9346 0.0
C141 C 0.49077 0.03961 0.9201 0.0
H142 H 0.51515 0.94682 0.9948 0.0
H143 H 0.52214 0.09653 0.95212 0.0
C144 C 0.61123 0.11192 1.03626 0.0
N145 N 0.62806 0.03524 0.16056 0.0
C146 C 0.61725 0.04171 0.2043 0.0
C147 C 0.6739 0.03927 0.15829 0.0
N148 N 0.65465 0.04978 0.2287 0.0
C149 C 0.69016 0.0478 0.19993 0.0
C150 C 0.64369 0.9928 1.0403 0.0
O151 O 0.58574 0.08925 1.01201 0.0
O152 O 0.61771 0.09297 0.07913 0.0
O153 O 0.64259 0.00231 0.08147 0.0
O154 O 0.60927 0.00037 1.01501 0.0
O155 O 0.56806 0.96824 0.13908 0.0
H156 H 0.69477 0.03913 0.12736 0.0
H157 H 0.58293 0.04361 0.21685 0.0
O158 O 0.53642 0.96354 0.07174 0.0
O159 O 0.51026 0.05328 0.06662 0.0
O160 O 0.54137 0.05885 0.13384 0.0
C161 C 0.50745 0.06487 0.10677 0.0
H162 H 0.47632 0.05907 0.88822 0.0
H163 H 0.72545 0.05435 0.2077 0.0
Co164 Co 0.55733 0.52077 0.54297 0.0
C165 C 0.4901 0.52684 0.47643 0.0
Co166 Co 0.4969 0.47232 0.56771 0.0
C167 C 0.65019 0.55577 0.52676 0.0
C168 C 0.60581 0.61217 0.50889 0.0
N169 N 0.60608 0.56449 0.5242 0.0
N170 N 0.67782 0.59617 0.51409 0.0
C171 C 0.64981 0.63178 0.50269 0.0
H172 H 0.66153 0.52025 0.53821 0.0
H173 H 0.57557 0.63153 0.50373 0.0
C174 C 0.56583 0.46868 0.63366 0.0
N175 N 0.4491 0.42678 0.58731 0.0
C176 C 0.40457 0.42828 0.578 0.0
C177 C 0.45326 0.3821 0.61251 0.0
N178 N 0.38089 0.38625 0.59653 0.0
C179 C 0.41152 0.35722 0.61832 0.0
C180 C 0.56382 0.4327 0.52301 0.0
O181 O 0.58635 0.49785 0.59972 0.0
O182 O 0.52531 0.45286 0.62849 0.0
O183 O 0.52571 0.42714 0.54435 0.0
O184 O 0.58533 0.47378 0.51499 0.0
O185 O 0.46979 0.49298 0.50696 0.0
H186 H 0.48489 0.36816 0.62513 0.0
H187 H 0.38984 0.45968 0.55834 0.0
O188 O 0.52859 0.54461 0.48554 0.0
O189 O 0.52889 0.56574 0.57279 0.0
O190 O 0.46776 0.51704 0.59198 0.0
C191 C 0.48962 0.55648 0.59269 0.0
H192 H 0.66004 0.66952 0.49182 0.0
H193 H 0.40442 0.32036 0.63661 0.0
Co194 Co 0.07072 0.53699 0.99399 0.0
C195 C 0.98207 0.49098 1.01037 0.0
Co196 Co 0.03735 0.5425 0.06141 0.0
C197 C 0.08621 0.49803 0.91166 0.0
C198 C 0.11263 0.57107 0.90196 0.0
N199 N 0.09344 0.53416 0.93475 0.0
N200 N 0.09901 0.51137 0.86556 0.0
C201 C 0.11581 0.55723 0.85925 0.0
H202 H 0.06882 0.46376 0.92744 0.0
H203 H 0.12103 0.60662 0.90799 0.0
C204 C 0.12466 0.58866 0.04468 0.0
N205 N 1.01549 0.54635 0.1213 0.0
C206 C 1.02106 0.58438 0.1423 0.0
C207 C 1.00132 0.50929 0.15669 0.0
N208 N 1.01218 0.57214 0.18942 0.0
C209 C 0.99954 0.52498 0.19862 0.0
C210 C 0.09254 0.46392 0.06602 0.0
O211 O 0.12486 0.57317 1.00649 0.0
O212 O 0.08991 0.57958 0.07203 0.0
O213 O 0.06672 0.48514 0.08933 0.0
O214 O 0.0979 0.47961 1.02162 0.0
O215 O 0.98316 0.50476 0.04965 0.0
H216 H 0.99565 0.47261 0.15284 0.0
H217 H 0.03472 0.61958 0.12407 0.0
O218 O 1.01674 0.50101 0.98258 0.0
O219 O 0.04353 0.59474 0.96614 0.0
O220 O 1.00999 0.60014 1.03285 0.0
C221 C 1.01826 0.61677 0.98886 0.0
H222 H 0.12793 0.57957 0.82579 0.0
H223 H 0.99103 0.50319 0.23342 0.0
H224 H 0.20023 0.10939 0.23562 0.0
H225 H 0.30534 0.17961 0.30294 0.0
H226 H 0.27464 0.13806 0.38107 0.0
H227 H 0.20962 0.09285 0.43012 0.0
H228 H 0.09697 0.03622 0.36036 0.0
H229 H 0.13723 0.0623 0.28391 0.0
C230 C 0.21728 0.11395 0.26755 0.0
C231 C 0.25566 0.14666 0.26339 0.0
C232 C 0.19646 0.09403 0.31214 0.0
C233 C 0.27689 0.15333 0.30497 0.0
C234 C 0.25842 0.1306 0.34973 0.0
C235 C 0.19413 0.08599 0.39816 0.0
C236 C 0.15008 0.06303 0.40093 0.0
C237 C 0.21692 0.10273 0.35377 0.0
C238 C 0.13043 0.05449 0.35917 0.0
C239 C 0.15363 0.06904 0.31544 0.0
H240 H 0.39661 0.81374 0.86919 0.0
H241 H 0.47374 0.8781 0.74196 0.0
H242 H 0.49784 0.94735 0.77581 0.0
H243 H 0.50059 0.98659 0.84416 0.0
H244 H 0.42972 0.91794 0.9743 0.0
H245 H 0.39899 0.85324 0.93744 0.0
C246 C 0.41836 0.84335 0.84916 0.0
C247 C 0.43345 0.84172 0.80351 0.0
C248 C 0.43307 0.88187 0.86952 0.0
C249 C 0.46195 0.87942 0.77729 0.0
C250 C 0.47562 0.91869 0.79661 0.0
C251 C 0.47782 0.95774 0.86388 0.0
C252 C 0.46692 0.95672 0.91145 0.0
C253 C 0.46187 0.91999 0.84296 0.0
C254 C 0.43824 0.91899 0.93749 0.0
C255 C 0.42085 0.88216 0.9165 0.0
H256 H 0.70302 0.41547 0.79814 0.0
H257 H 0.60348 0.47452 0.87432 0.0
H258 H 0.55624 0.48859 0.8042 0.0
H259 H 0.54287 0.48242 0.72101 0.0
H260 H 0.6447 0.42675 0.64406 0.0
H261 H 0.6912 0.41215 0.71436 0.0
C262 C 0.67139 0.43229 0.79876 0.0
C263 C 0.65666 0.44439 0.84082 0.0
C264 C 0.64445 0.43973 0.7585 0.0
C265 C 0.61535 0.46538 0.84195 0.0
C266 C 0.58829 0.47297 0.80209 0.0
C267 C 0.57485 0.46627 0.72017 0.0
C268 C 0.58998 0.4544 0.67807 0.0
C269 C 0.60217 0.45963 0.7603 0.0
C270 C 0.63215 0.43515 0.67656 0.0
C271 C 0.65888 0.42725 0.71655 0.0
H272 H 0.99293 0.70597 0.33215 0.0
H273 H 0.06667 0.59806 0.41844 0.0
H274 H 0.08053 0.56221 0.35014 0.0
H275 H 0.05682 0.55204 0.27073 0.0
H276 H 0.98187 0.65935 0.18443 0.0
H277 H 0.9827 0.70512 0.24744 0.0
C278 C 1.01432 0.67636 0.33503 0.0
C279 C 1.02903 0.65469 0.38004 0.0
C280 C 1.01997 0.6547 0.29604 0.0
C281 C 0.05581 0.61568 0.38394 0.0
C282 C 0.06265 0.59453 0.34513 0.0
C283 C 0.04136 0.58585 0.26565 0.0
C284 C 1.0184 0.60198 0.22363 0.0
C285 C 0.04245 0.61204 0.30185 0.0
C286 C 0.9993 0.64624 0.21673 0.0
C287 C 0.99983 0.67231 0.25272 0.0
H288 H 0.31404 0.1459 0.12061 0.0
H289 H 0.36594 0.17756 0.24963 0.0
H290 H 0.43575 0.13927 0.23782 0.0
H291 H 0.48486 0.10082 0.18687 0.0
H292 H 0.43097 0.07327 0.05606 0.0
H293 H 0.36059 0.10585 0.07212 0.0
C294 C 0.34038 0.14362 0.14653 0.0
C295 C 0.33417 0.16369 0.18649 0.0
C296 C 0.38092 0.12281 0.13864 0.0
C297 C 0.36899 0.16113 0.21939 0.0
C298 C 0.40935 0.13981 0.21215 0.0
C299 C 0.45767 0.10175 0.16202 0.0
C300 C 0.46414 0.0845 0.11999 0.0
C301 C 0.41619 0.12109 0.17137 0.0
C302 C 0.42793 0.08624 0.08852 0.0
C303 C 0.38717 0.10491 0.09766 0.0
H304 H 0.39832 0.87208 0.69985 0.0
H305 H 0.29512 0.78846 0.79358 0.0
H306 H 0.23715 0.83954 0.75472 0.0
H307 H 0.21611 0.90424 0.68884 0.0
H308 H 0.32131 0.98437 0.59383 0.0
H309 H 0.3786 0.93887 0.63833 0.0
C310 C 0.36334 0.86648 0.71268 0.0
C311 C 0.35061 0.82784 0.74974 0.0
C312 C 0.33071 0.89474 0.68928 0.0
C313 C 0.30521 0.81899 0.7655 0.0
C314 C 0.27228 0.84769 0.74293 0.0
C315 C 0.25157 0.91147 0.67806 0.0
C316 C 0.26451 0.94754 0.63821 0.0
C317 C 0.28454 0.8849 0.70383 0.0
C318 C 0.3106 0.95715 0.62472 0.0
C319 C 0.3434 0.93111 0.65003 0.0
H320 H 0.82224 0.40897 0.89929 0.0
H321 H 0.74471 0.42242 1.02208 0.0
H322 H 0.81419 0.44574 0.05972 0.0
H323 H 0.89682 0.47035 0.05394 0.0
H324 H 0.9732 0.45724 0.92938 0.0
H325 H 0.90512 0.42628 0.89652 0.0
C326 C 0.82085 0.41624 0.93461 0.0
C327 C 0.7785 0.41377 0.95802 0.0
C328 C 0.86091 0.43053 0.95551 0.0
C329 C 0.77702 0.42325 1.00379 0.0
C330 C 0.81673 0.4372 1.02501 0.0
C331 C 0.89869 0.46011 1.01994 0.0
C332 C 0.94044 0.46677 0.99423 0.0
C333 C 0.8589 0.44215 1.00074 0.0
C334 C 0.94184 0.45305 0.95013 0.0
C335 C 0.90274 0.43524 0.93107 0.0
H336 H 0.8885 0.57891 0.52108 0.0
H337 H 0.88792 0.72057 0.43493 0.0
H338 H 0.80502 0.71715 0.44248 0.0
H339 H 0.73335 0.67153 0.46925 0.0
H340 H 0.73373 0.53009 0.55813 0.0
H341 H 0.81598 0.5353 0.55339 0.0
C342 C 0.86986 0.60903 0.50481 0.0
C343 C 0.89338 0.64997 0.4778 0.0
C344 C 0.82243 0.6065 0.50914 0.0
C345 C 0.86976 0.68902 0.45618 0.0
C346 C 0.82264 0.68687 0.46028 0.0
C347 C 0.75112 0.64201 0.48827 0.0
C348 C 0.72677 0.60026 0.51345 0.0
C349 C 0.79859 0.64546 0.48609 0.0
C350 C 0.75104 0.56233 0.53743 0.0
C351 C 0.79832 0.56535 0.53513 0.0
H352 H 0.21389 0.32145 0.1993 0.0
H353 H 0.22536 0.26386 0.07388 0.0
H354 H 0.17991 0.32631 1.03056 0.0
H355 H 0.13338 0.39542 1.0297 0.0
H356 H 0.1148 0.44586 0.15887 0.0
H357 H 0.16468 0.38733 0.19972 0.0
C358 C 0.20612 0.32247 0.16255 0.0
C359 C 0.22268 0.28773 0.14 0.0
C360 C 0.17779 0.35676 0.1388 0.0
C361 C 0.21324 0.2902 0.09202 0.0
C362 C 0.18681 0.32563 0.06743 0.0
C363 C 0.14001 0.39336 0.06687 0.0
C364 C 0.12002 0.42508 0.09111 0.0
C365 C 0.16822 0.3587 0.09065 0.0
C366 C 0.12912 0.42174 0.13933 0.0
C367 C 0.15802 0.38844 0.16271 0.0
H368 H 0.70689 0.30122 0.91241 0.0
H369 H 0.69408 0.34805 0.04352 0.0
H370 H 0.66869 0.2662 0.0846 0.0
H371 H 0.63845 0.18448 0.07969 0.0
H372 H 0.63871 0.14344 0.94423 0.0
H373 H 0.67922 0.21985 0.90773 0.0
C374 C 0.70023 0.29274 0.95039 0.0
C375 C 0.70313 0.33009 0.97523 0.0
C376 C 0.6814 0.24706 0.9723 0.0
C377 C 0.6932 0.31959 1.02406 0.0
C378 C 0.67766 0.27305 0.04716 0.0
C379 C 0.64763 0.19229 0.04223 0.0
C380 C 0.63526 0.15858 1.01453 0.0
C381 C 0.66961 0.23706 1.02113 0.0
C382 C 0.64721 0.1691 0.96607 0.0
C383 C 0.67074 0.21258 0.94531 0.0
H384 H 1.01943 0.76852 0.39554 0.0
H385 H 0.08073 0.68132 0.51344 0.0
H386 H 0.11532 0.75286 0.53691 0.0
H387 H 0.11304 0.84037 0.53347 0.0
H388 H 0.04714 0.92572 0.41648 0.0
H389 H 1.02968 0.85578 0.38312 0.0
C390 C 0.04257 0.76542 0.42464 0.0
C391 C 0.04781 0.72004 0.4526 0.0
C392 C 0.05994 0.80674 0.43931 0.0
C393 C 0.0769 0.71609 0.49105 0.0
C394 C 0.09576 0.75707 0.50507 0.0
C395 C 0.09582 0.84366 0.50019 0.0
C396 C 0.08016 0.88797 0.47838 0.0
C397 C 0.08517 0.80268 0.48113 0.0
C398 C 0.05825 0.89177 0.43492 0.0
C399 C 0.04848 0.85178 0.41548 0.0
H400 H 0.39828 0.65162 0.7436 0.0
H401 H 0.50536 0.76103 0.69431 0.0
H402 H 0.53448 0.71377 0.6406 0.0
H403 H 0.5265 0.6429 0.60472 0.0
H404 H 0.41336 0.53829 0.64875 0.0
H405 H 0.38827 0.5831 0.70572 0.0
C406 C 0.42806 0.66477 0.72112 0.0
C407 C 0.45004 0.70908 0.72314 0.0
C408 C 0.4427 0.63894 0.68847 0.0
C409 C 0.48871 0.72622 0.69417 0.0
C410 C 0.50481 0.69966 0.6629 0.0
C411 C 0.49613 0.63022 0.62646 0.0
C412 C 0.47192 0.58739 0.62241 0.0
C413 C 0.48154 0.65632 0.65915 0.0
C414 C 0.43261 0.57132 0.65089 0.0
C415 C 0.41835 0.59665 0.68384 0.0
H416 H 0.88501 0.90053 0.76442 0.0
H417 H 0.99819 0.90196 0.85598 0.0
H418 H 0.0505 0.92332 0.78663 0.0
H419 H 0.06333 0.94808 0.69866 0.0
H420 H 0.94755 0.95061 0.60906 0.0
H421 H 0.89752 0.92231 0.67818 0.0
C422 C 0.92117 0.90541 0.76916 0.0
C423 C 0.93753 0.89985 0.81543 0.0
C424 C 0.95074 0.91916 0.72909 0.0
C425 C 0.98462 0.90552 0.82092 0.0
C426 C 1.0145 0.91827 0.78112 0.0
C427 C 1.02722 0.94202 0.69427 0.0
C428 C 1.00955 0.95186 0.6482 0.0
C429 C 0.99793 0.92615 0.73482 0.0
C430 C 0.96245 0.94385 0.64365 0.0
C431 C 0.93359 0.9275 0.68335 0.0
H432 H 0.6934 0.1418 0.40332 0.0
H433 H 0.58415 0.04026 0.46515 0.0
H434 H 0.57788 0.0106 0.39119 0.0
H435 H 0.6028 0.0164 0.30755 0.0
H436 H 0.71272 0.11901 0.24767 0.0
H437 H 0.7199 0.14563 0.3221 0.0
C438 C 0.66896 0.11254 0.40054 0.0
C439 C 0.63962 0.09258 0.43894 0.0
C440 C 0.66554 0.09641 0.35826 0.0
C441 C 0.60722 0.05543 0.43555 0.0
C442 C 0.60355 0.03888 0.39341 0.0
C443 C 0.62807 0.04463 0.31108 0.0
C444 C 0.65729 0.06563 0.27253 0.0
C445 C 0.63222 0.05959 0.35425 0.0
C446 C 0.69028 0.10196 0.27721 0.0
C447 C 0.69434 0.1173 0.31962 0.0
H448 H 0.42111 0.57933 0.26755 0.0
H449 H 0.40373 0.71321 0.3084 0.0
H450 H 0.43706 0.68351 0.38458 0.0
H451 H 0.46686 0.61696 0.44232 0.0
H452 H 0.47054 0.47858 0.40687 0.0
H453 H 0.44468 0.51122 0.32704 0.0
C454 C 0.42429 0.60192 0.29326 0.0
C455 C 0.41053 0.64899 0.28149 0.0
C456 C 0.43992 0.58306 0.33864 0.0
C457 C 0.4156 0.67785 0.31514 0.0
C458 C 0.43377 0.66033 0.3594 0.0
C459 C 0.46154 0.59402 0.41709 0.0
C460 C 0.47026 0.54546 0.43022 0.0
C461 C 0.44536 0.61274 0.37185 0.0
C462 C 0.46342 0.5159 0.39753 0.0
C463 C 0.44904 0.53467 0.35187 0.0
H464 H 0.08888 0.37319 0.72367 0.0
H465 H 0.03928 0.49699 0.63382 0.0
H466 H 0.04116 0.53915 0.69962 0.0
H467 H 0.06504 0.54314 0.78023 0.0
H468 H 0.11358 0.41884 0.87076 0.0
H469 H 0.10402 0.37387 0.80752 0.0
C470 C 0.0771 0.40878 0.7193 0.0
C471 C 0.06374 0.43222 0.6745 0.0
C472 C 0.07912 0.43276 0.75701 0.0
C473 C 0.04921 0.47854 0.66839 0.0
C474 C 0.05083 0.50264 0.70575 0.0
C475 C 0.07337 0.50618 0.78592 0.0
C476 C 0.09083 0.48438 0.82945 0.0
C477 C 0.06717 0.48063 0.74972 0.0
C478 C 0.10045 0.43618 0.83723 0.0
C479 C 0.09496 0.41061 0.80117 0.0
H480 H 0.83536 0.92691 0.9877 0.0
H481 H 0.76896 0.92129 0.85714 0.0
H482 H 0.69994 0.94809 0.88797 0.0
H483 H 0.65781 0.97188 0.95286 0.0
H484 H 0.72385 0.9748 0.08463 0.0
H485 H 0.79289 0.94947 0.05311 0.0
C486 C 0.80565 0.93132 0.96617 0.0
C487 C 0.80742 0.92217 0.92005 0.0
C488 C 0.76575 0.94591 0.98459 0.0
C489 C 0.76876 0.92868 0.89239 0.0
C490 C 0.72916 0.94364 0.91022 0.0
C491 C 0.68721 0.96683 0.97484 0.0
C492 C 0.68524 0.97534 1.02129 0.0
C493 C 0.72712 0.95217 0.9564 0.0
C494 C 0.724 0.96859 0.04891 0.0
C495 C 0.7637 0.95415 1.03082 0.0
H496 H 0.75881 0.16568 0.48974 0.0
H497 H 0.68798 0.02638 0.50745 0.0
H498 H 0.75916 0.99158 0.49388 0.0
H499 H 0.84212 0.00139 0.47794 0.0
H500 H 0.91312 0.13943 0.46885 0.0
H501 H 0.84148 0.17457 0.47934 0.0
C502 C 0.75922 0.1275 0.49212 0.0
C503 C 0.71858 0.09832 0.50057 0.0
C504 C 0.80021 0.10785 0.48566 0.0
C505 C 0.71912 0.04926 0.50126 0.0
C506 C 0.75968 0.0295 0.49353 0.0
C507 C 0.84148 0.03913 0.47814 0.0
C508 C 0.88219 0.06819 0.47228 0.0
C509 C 0.80045 0.0585 0.48569 0.0
C510 C 0.88179 0.11683 0.47328 0.0
C511 C 0.84102 0.13674 0.47924 0.0
H512 H 0.26232 0.7008 0.15285 0.0
H513 H 0.34453 0.58744 0.13591 0.0
H514 H 0.28696 0.55759 0.0865 0.0
H515 H 0.21052 0.56101 0.05273 0.0
H516 H 0.12641 0.67138 0.07521 0.0
H517 H 0.18739 0.70615 0.11661 0.0
C518 C 0.26752 0.66994 0.13773 0.0
C519 C 0.3073 0.6463 0.14745 0.0
C520 C 0.23408 0.65288 0.11003 0.0
C521 C 0.31393 0.60594 0.12856 0.0
C522 C 0.28116 0.58909 0.10033 0.0
C523 C 0.20626 0.59347 0.06553 0.0
C524 C 0.16459 0.61432 0.06023 0.0
C525 C 0.24083 0.61199 0.09118 0.0
C526 C 0.15861 0.65534 0.07834 0.0
C527 C 0.19326 0.67492 0.10237 0.0
H528 H 0.17376 0.33236 0.63465 0.0
H529 H 0.1665 0.43219 0.50204 0.0
H530 H 0.2495 0.43759 0.4922 0.0
H531 H 0.32398 0.42213 0.52791 0.0
H532 H 0.32931 0.3246 0.66319 0.0
H533 H 0.24732 0.3093 0.66542 0.0
C534 C 0.19046 0.35343 0.60264 0.0
C535 C 0.16463 0.38133 0.56876 0.0
C536 C 0.23781 0.35761 0.59848 0.0
C537 C 0.18614 0.40993 0.528 0.0
C538 C 0.23345 0.41352 0.5229 0.0
C539 C 0.30713 0.39743 0.5577 0.0
C540 C 0.33274 0.375 0.59558 0.0
C541 C 0.25969 0.38906 0.55899 0.0
C542 C 0.31054 0.34223 0.63352 0.0
C543 C 0.26358 0.33354 0.63492 0.0
H544 H 0.91869 0.7833 0.85949 0.0
H545 H 0.9637 0.85747 0.96731 0.0
H546 H 1.00216 0.7878 1.00693 0.0
H547 H 1.01693 0.70269 1.01499 0.0
H548 H 0.97619 0.62943 0.90475 0.0
H549 H 0.94187 0.7009 0.86228 0.0
C550 C 0.93829 0.7845 0.8907 0.0
C551 C 0.93874 0.82542 0.91042 0.0
C552 C 0.95997 0.74387 0.91358 0.0
C553 C 0.96348 0.82642 0.95141 0.0
C554 C 0.9849 0.78639 0.97435 0.0
C555 C 1.00051 0.70254 0.98167 0.0
C556 C 0.99824 0.66065 0.96346 0.0
C557 C 0.98221 0.74434 0.95662 0.0
C558 C 0.9779 0.66118 0.91967 0.0
C559 C 0.95842 0.70209 0.89529 0.0
H560 H 0.47262 0.72717 0.15741 0.0
H561 H 0.38349 0.77705 0.25195 0.0
H562 H 0.42719 0.85473 0.23751 0.0
H563 H 0.48431 0.9123 0.18874 0.0
H564 H 0.56356 0.86612 0.08285 0.0
H565 H 0.53052 0.78389 0.10983 0.0
C566 C 0.46421 0.75461 0.17617 0.0
C567 C 0.42666 0.74554 0.20792 0.0
C568 C 0.48706 0.80048 0.16424 0.0
C569 C 0.41405 0.78217 0.22989 0.0
C570 C 0.43836 0.827 0.2206 0.0
C571 C 0.49476 0.88389 0.17231 0.0
C572 C 0.52647 0.89482 0.13423 0.0
C573 C 0.47404 0.83711 0.18665 0.0
C574 C 0.53923 0.85822 0.11234 0.0
C575 C 0.52038 0.81129 0.12777 0.0
H576 H 0.10707 0.27087 0.64428 0.0
H577 H 0.05755 0.34169 0.51073 0.0
H578 H 0.04921 0.26528 0.48458 0.0
H579 H 0.05674 0.17802 0.50017 0.0
H580 H 0.11292 0.10889 0.63158 0.0
H581 H 0.11814 0.18446 0.65838 0.0
C582 C 0.09472 0.26918 0.60947 0.0
C583 C 0.0828 0.31115 0.57924 0.0
C584 C 0.09118 0.22547 0.59452 0.0
C585 C 0.06685 0.30935 0.53418 0.0
C586 C 0.06206 0.26582 0.51943 0.0
C587 C 0.06989 0.17961 0.53472 0.0
C588 C 0.08411 0.13798 0.56401 0.0
C589 C 0.0741 0.22357 0.54933 0.0
C590 C 0.10178 0.14054 0.60841 0.0
C591 C 0.10476 0.1837 0.62379 0.0
H592 H 0.67165 0.25791 0.49278 0.0
H593 H 0.54897 0.18209 0.55918 0.0
H594 H 0.51722 0.25793 0.56248 0.0
H595 H 0.52395 0.34381 0.54527 0.0
H596 H 0.64755 0.42283 0.4832 0.0
H597 H 0.67967 0.34701 0.47828 0.0
C598 C 0.63844 0.2584 0.5089 0.0
C599 C 0.6125 0.21503 0.52637 0.0
C600 C 0.62061 0.30216 0.51041 0.0
C601 C 0.56916 0.21537 0.54605 0.0
C602 C 0.55112 0.25851 0.54756 0.0
C603 C 0.55799 0.34503 0.53042 0.0
C604 C 0.58331 0.38912 0.51438 0.0
C605 C 0.5764 0.30191 0.52941 0.0
C606 C 0.62726 0.38942 0.49538 0.0
C607 C 0.64566 0.34613 0.49299 0.0
loop_
_geom_bond_atom_site_label_1
_geom_bond_atom_site_label_2
_geom_bond_distance
_geom_bond_site_symmetry_2
_ccdc_geom_bond_type
C0 N1 1.317 . S
C0 N2 1.348 . S
C0 C3 1.485 . S
N1 C0 1.317 . S
N1 N5 1.370 . S
N2 C0 1.348 . S
N2 C4 1.346 . S
C3 C0 1.485 . S
C3 H7 0.960 . S
C3 H8 0.961 . S
C3 H9 0.960 . S
C4 N2 1.346 . S
C4 N5 1.307 . S
C4 C6 1.486 . S
N5 N1 1.370 . S
N5 C4 1.307 . S
C6 C4 1.486 . S
C6 H10 0.960 . S
C6 H11 0.960 . S
C6 H12 0.959 . S
H7 C3 0.960 . S
H8 C3 0.961 . S
H9 C3 0.960 . S
H10 C6 0.960 . S
H11 C6 0.960 . S
H12 C6 0.959 . S
C13 N14 1.317 . S
C13 N15 1.348 . S
C13 C16 1.485 . S
N14 C13 1.317 . S
N14 N18 1.370 . S
N15 C13 1.348 . S
N15 C17 1.346 . S
C16 C13 1.485 . S
C16 H20 0.960 . S
C16 H21 0.961 . S
C16 H22 0.960 . S
C17 N15 1.346 . S
C17 N18 1.307 . S
C17 C19 1.486 . S
N18 N14 1.370 . S
N18 C17 1.307 . S
C19 C17 1.486 . S
C19 H23 0.960 . S
C19 H24 0.960 . S
C19 H25 0.959 . S
H20 C16 0.960 . S
H21 C16 0.961 . S
H22 C16 0.960 . S
H23 C19 0.960 . S
H24 C19 0.960 . S
H25 C19 0.959 . S
C26 N27 1.317 . S
C26 N28 1.348 . S
C26 C29 1.485 . S
N27 C26 1.317 . S
N27 N31 1.370 . S
N28 C26 1.348 . S
N28 C30 1.346 . S
C29 C26 1.485 . S
C29 H33 0.960 . S
C29 H34 0.961 . S
C29 H35 0.960 . S
C30 N28 1.346 . S
C30 N31 1.307 . S
C30 C32 1.486 . S
N31 N27 1.370 . S
N31 C30 1.307 . S
C32 C30 1.486 . S
C32 H36 0.960 . S
C32 H37 0.960 . S
C32 H38 0.959 . S
H33 C29 0.960 . S
H34 C29 0.961 . S
H35 C29 0.960 . S
H36 C32 0.960 . S
H37 C32 0.960 . S
H38 C32 0.959 . S
C39 N40 1.317 . S
C39 N41 1.348 . S
C39 C42 1.485 . S
N40 C39 1.317 . S
N40 N44 1.370 . S
N41 C39 1.348 . S
N41 C43 1.346 . S
C42 C39 1.485 . S
C42 H46 0.960 . S
C42 H47 0.961 . S
C42 H48 0.960 . S
C43 N41 1.346 . S
C43 N44 1.307 . S
C43 C45 1.486 . S
N44 N40 1.370 . S
N44 C43 1.307 . S
C45 C43 1.486 . S
C45 H49 0.960 . S
C45 H50 0.960 . S
C45 H51 0.959 . S
H46 C42 0.960 . S
H47 C42 0.961 . S
H48 C42 0.960 . S
H49 C45 0.960 . S
H50 C45 0.960 . S
H51 C45 0.959 . S
C52 N53 1.317 . S
C52 N54 1.348 . S
C52 C55 1.485 . S
N53 C52 1.317 . S
N53 N57 1.370 . S
N54 C52 1.348 . S
N54 C56 1.346 . S
C55 C52 1.485 . S
C55 H59 0.960 . S
C55 H60 0.961 . S
C55 H61 0.960 . S
C56 N54 1.346 . S
C56 N57 1.307 . S
C56 C58 1.486 . S
N57 N53 1.370 . S
N57 C56 1.307 . S
C58 C56 1.486 . S
C58 H62 0.960 1_565 S
C58 H63 0.960 . S
C58 H64 0.959 . S
H59 C55 0.960 . S
H60 C55 0.961 . S
H61 C55 0.960 . S
H62 C58 0.960 1_545 S
H63 C58 0.960 . S
H64 C58 0.959 . S
C65 N66 1.317 . S
C65 N67 1.348 . S
C65 C68 1.485 . S
N66 C65 1.317 . S
N66 N70 1.370 . S
N67 C65 1.348 . S
N67 C69 1.346 . S
C68 C65 1.485 . S
C68 H72 0.960 . S
C68 H73 0.961 . S
C68 H74 0.960 . S
C69 N67 1.346 . S
C69 N70 1.307 . S
C69 C71 1.486 . S
N70 N66 1.370 . S
N70 C69 1.307 . S
C71 C69 1.486 . S
C71 H75 0.960 . S
C71 H76 0.960 . S
C71 H77 0.959 . S
H72 C68 0.960 . S
H73 C68 0.961 . S
H74 C68 0.960 . S
H75 C71 0.960 . S
H76 C71 0.960 . S
H77 C71 0.959 . S
C78 N79 1.317 . S
C78 N80 1.348 . S
C78 C81 1.485 . S
N79 C78 1.317 . S
N79 N83 1.370 . S
N80 C78 1.348 . S
N80 C82 1.346 . S
C81 C78 1.485 . S
C81 H85 0.960 . S
C81 H86 0.961 . S
C81 H87 0.960 . S
C82 N80 1.346 . S
C82 N83 1.307 . S
C82 C84 1.486 . S
N83 N79 1.370 . S
N83 C82 1.307 . S
C84 C82 1.486 . S
C84 H88 0.960 . S
C84 H89 0.960 . S
C84 H90 0.959 . S
H85 C81 0.960 . S
H86 C81 0.961 . S
H87 C81 0.960 . S
H88 C84 0.960 . S
H89 C84 0.960 . S
H90 C84 0.959 . S
C91 N92 1.317 . S
C91 N93 1.348 . S
C91 C94 1.485 . S
N92 C91 1.317 . S
N92 N96 1.370 . S
N93 C91 1.348 . S
N93 C95 1.346 . S
C94 C91 1.485 . S
C94 H98 0.960 . S
C94 H99 0.961 . S
C94 H100 0.960 . S
C95 N93 1.346 . S
C95 N96 1.307 . S
C95 C97 1.486 . S
N96 N92 1.370 . S
N96 C95 1.307 . S
C97 C95 1.486 . S
C97 H101 0.960 . S
C97 H102 0.960 . S
C97 H103 0.959 . S
H98 C94 0.960 . S
H99 C94 0.961 . S
H100 C94 0.960 . S
H101 C97 0.960 . S
H102 C97 0.960 . S
H103 C97 0.959 . S
Co104 N109 2.057 1_455 S
Co104 O121 2.021 . S
Co104 O124 2.062 . S
Co104 O128 2.117 1_545 S
Co104 O129 2.020 . S
C105 O125 1.259 . S
C105 O128 1.258 . S
Co106 N115 2.057 . S
Co106 O122 2.117 1_565 S
Co106 O123 2.020 1_565 S
Co106 O125 2.021 . S
Co106 O130 2.062 . S
C107 N109 1.316 . S
C107 N110 1.347 . S
C107 H112 0.931 . S
C108 N109 1.378 . S
C108 C111 1.352 . S
C108 H113 0.925 1_545 S
N109 Co104 2.057 1_655 S
N109 C107 1.316 . S
N109 C108 1.378 . S
N110 C107 1.347 . S
N110 C111 1.373 . S
C111 C108 1.352 . S
C111 N110 1.373 . S
C111 H132 0.931 . S
H112 C107 0.931 . S
H113 C108 0.925 1_565 S
C114 O121 1.259 . S
C114 O122 1.258 . S
N115 Co106 2.057 . S
N115 C116 1.316 . S
N115 C117 1.375 1_565 S
C116 N115 1.316 . S
C116 N118 1.347 . S
C116 H127 0.931 . S
C117 N115 1.375 1_545 S
C117 C119 1.350 . S
C117 H126 0.930 . S
N118 C116 1.347 . S
N118 C119 1.373 1_565 S
C119 C117 1.350 . S
C119 N118 1.373 1_545 S
C119 H133 0.931 . S
C120 O123 1.256 . S
C120 O124 1.255 . S
O121 Co104 2.021 . S
O121 C114 1.259 . S
O122 Co106 2.117 1_545 S
O122 C114 1.258 . S
O123 Co106 2.020 1_545 S
O123 C120 1.256 . S
O124 Co104 2.062 . S
O124 C120 1.255 . S
O125 C105 1.259 . S
O125 Co106 2.021 . S
H126 C117 0.930 . S
H127 C116 0.931 . S
O128 Co104 2.117 1_565 S
O128 C105 1.258 . S
O129 Co104 2.020 . S
O129 C131 1.259 1_545 S
O130 Co106 2.062 . S
O130 C131 1.255 . S
C131 O129 1.259 1_565 S
C131 O130 1.255 . S
H132 C111 0.931 . S
H133 C119 0.931 . S
Co134 N139 2.057 1_545 S
Co134 O151 2.021 . S
Co134 O154 2.062 1_545 S
Co134 O158 2.117 1_546 S
Co134 O159 2.020 1_556 S
C135 O155 1.259 . S
C135 O158 1.258 . S
Co136 N145 2.057 . S
Co136 O152 2.117 . S
Co136 O153 2.020 . S
Co136 O155 2.021 1_545 S
Co136 O160 2.062 . S
C137 N139 1.316 . S
C137 N140 1.347 . S
C137 H142 0.931 1_565 S
C138 N139 1.375 . S
C138 C141 1.350 . S
C138 H143 0.930 . S
N139 Co134 2.057 1_565 S
N139 C137 1.316 . S
N139 C138 1.375 . S
N140 C137 1.347 . S
N140 C141 1.373 . S
C141 C138 1.350 . S
C141 N140 1.373 . S
C141 H162 0.931 . S
H142 C137 0.931 1_545 S
H143 C138 0.930 . S
C144 O151 1.259 . S
C144 O152 1.258 1_556 S
N145 Co136 2.057 . S
N145 C146 1.316 . S
N145 C147 1.375 . S
C146 N145 1.316 . S
C146 N148 1.347 . S
C146 H157 0.931 . S
C147 N145 1.375 . S
C147 C149 1.350 . S
C147 H156 0.930 . S
N148 C146 1.347 . S
N148 C149 1.373 . S
C149 C147 1.350 . S
C149 N148 1.373 . S
C149 H163 0.931 . S
C150 O153 1.256 1_565 S
C150 O154 1.255 1_554 S
O151 Co134 2.021 . S
O151 C144 1.259 . S
O152 Co136 2.117 . S
O152 C144 1.258 1_554 S
O153 Co136 2.020 . S
O153 C150 1.256 1_545 S
O154 Co134 2.062 1_565 S
O154 C150 1.255 1_556 S
O155 C135 1.259 . S
O155 Co136 2.021 1_565 S
H156 C147 0.930 . S
H157 C146 0.931 . S
O158 Co134 2.117 1_564 S
O158 C135 1.258 . S
O159 Co134 2.020 1_554 S
O159 C161 1.256 . S
O160 Co136 2.062 . S
O160 C161 1.255 . S
C161 O159 1.256 . S
C161 O160 1.255 . S
H162 C141 0.931 . S
H163 C149 0.931 . S
Co164 N169 2.057 . S
Co164 O181 2.021 . S
Co164 O184 2.062 . S
Co164 O188 2.117 . S
Co164 O189 2.020 . S
C165 O185 1.259 . S
C165 O188 1.258 . S
Co166 N175 2.057 . S
Co166 O182 2.117 . S
Co166 O183 2.020 . S
Co166 O185 2.021 . S
Co166 O190 2.062 . S
C167 N169 1.316 . S
C167 N170 1.347 . S
C167 H172 0.931 . S
C168 N169 1.375 . S
C168 C171 1.350 . S
C168 H173 0.930 . S
N169 Co164 2.057 . S
N169 C167 1.316 . S
N169 C168 1.375 . S
N170 C167 1.347 . S
N170 C171 1.373 . S
C171 C168 1.350 . S
C171 N170 1.373 . S
C171 H192 0.931 . S
H172 C167 0.931 . S
H173 C168 0.930 . S
C174 O181 1.259 . S
C174 O182 1.258 . S
N175 Co166 2.057 . S
N175 C176 1.316 . S
N175 C177 1.375 . S
C176 N175 1.316 . S
C176 N178 1.347 . S
C176 H187 0.931 . S
C177 N175 1.375 . S
C177 C179 1.350 . S
C177 H186 0.930 . S
N178 C176 1.347 . S
N178 C179 1.373 . S
C179 C177 1.350 . S
C179 N178 1.373 . S
C179 H193 0.931 . S
C180 O183 1.256 . S
C180 O184 1.255 . S
O181 Co164 2.021 . S
O181 C174 1.259 . S
O182 Co166 2.117 . S
O182 C174 1.258 . S
O183 Co166 2.020 . S
O183 C180 1.256 . S
O184 Co164 2.062 . S
O184 C180 1.255 . S
O185 C165 1.259 . S
O185 Co166 2.021 . S
H186 C177 0.930 . S
H187 C176 0.931 . S
O188 Co164 2.117 . S
O188 C165 1.258 . S
O189 Co164 2.020 . S
O189 C191 1.256 . S
O190 Co166 2.062 . S
O190 C191 1.255 . S
C191 O189 1.256 . S
C191 O190 1.255 . S
H192 C171 0.931 . S
H193 C179 0.931 . S
Co194 N199 2.057 . S
Co194 O211 2.021 . S
Co194 O214 2.062 . S
Co194 O218 2.117 1_455 S
Co194 O219 2.020 . S
C195 O215 1.259 1_556 S
C195 O218 1.258 . S
Co196 N205 2.057 . S
Co196 O212 2.117 1_655 S
Co196 O213 2.020 1_655 S
Co196 O215 2.021 . S
Co196 O220 2.062 . S
C197 N199 1.316 . S
C197 N200 1.347 . S
C197 H202 0.931 . S
C198 N199 1.375 1_655 S
C198 C201 1.350 1_655 S
C198 H203 0.930 . S
N199 Co194 2.057 . S
N199 C197 1.316 . S
N199 C198 1.375 1_455 S
N200 C197 1.347 . S
N200 C201 1.373 . S
C201 C198 1.350 1_455 S
C201 N200 1.373 . S
C201 H222 0.931 1_455 S
H202 C197 0.931 . S
H203 C198 0.930 . S
C204 O211 1.259 1_554 S
C204 O212 1.258 . S
N205 Co196 2.057 . S
N205 C206 1.316 . S
N205 C207 1.375 1_655 S
C206 N205 1.316 . S
C206 N208 1.347 . S
C206 H217 0.931 . S
C207 N205 1.375 1_455 S
C207 C209 1.350 . S
C207 H216 0.930 . S
N208 C206 1.347 . S
N208 C209 1.373 1_655 S
C209 C207 1.350 . S
C209 N208 1.373 1_455 S
C209 H223 0.931 . S
C210 O213 1.256 . S
C210 O214 1.255 1_554 S
O211 Co194 2.021 . S
O211 C204 1.259 1_556 S
O212 Co196 2.117 1_455 S
O212 C204 1.258 . S
O213 Co196 2.020 1_455 S
O213 C210 1.256 . S
O214 Co194 2.062 . S
O214 C210 1.255 1_556 S
O215 C195 1.259 1_554 S
O215 Co196 2.021 . S
H216 C207 0.930 . S
H217 C206 0.931 . S
O218 Co194 2.117 1_655 S
O218 C195 1.258 . S
O219 Co194 2.020 . S
O219 C221 1.256 1_455 S
O220 Co196 2.062 . S
O220 C221 1.255 1_554 S
C221 O219 1.256 1_655 S
C221 O220 1.255 1_556 S
H222 C201 0.931 1_655 S
H223 C209 0.931 . S
H224 C230 0.930 . S
H225 C233 0.930 . S
H226 C234 0.930 . S
H227 C235 0.930 . S
H228 C238 0.930 . S
H229 C239 0.930 . S
C230 H224 0.930 . S
C230 C231 1.355 . S
C230 C232 1.415 . S
C231 C230 1.355 . S
C231 C233 1.419 . S
C232 C230 1.415 . S
C232 C237 1.425 . S
C232 C239 1.409 . S
C233 H225 0.930 . S
C233 C231 1.419 . S
C233 C234 1.362 . S
C234 H226 0.930 . S
C234 C233 1.362 . S
C234 C237 1.409 . S
C235 H227 0.930 . S
C235 C236 1.355 . S
C235 C237 1.415 . S
C236 C235 1.355 . S
C236 C238 1.419 . S
C237 C232 1.425 . S
C237 C234 1.409 . S
C237 C235 1.415 . S
C238 H228 0.930 . S
C238 C236 1.419 . S
C238 C239 1.362 . S
C239 H229 0.930 . S
C239 C232 1.409 . S
C239 C238 1.362 . S
H240 C246 0.930 . S
H241 C249 0.930 . S
H242 C250 0.930 . S
H243 C251 0.930 . S
H244 C254 0.930 . S
H245 C255 0.930 . S
C246 H240 0.930 . S
C246 C247 1.355 . S
C246 C248 1.415 . S
C247 C246 1.355 . S
C247 C249 1.419 . S
C248 C246 1.415 . S
C248 C253 1.425 . S
C248 C255 1.409 . S
C249 H241 0.930 . S
C249 C247 1.419 . S
C249 C250 1.362 . S
C250 H242 0.930 . S
C250 C249 1.362 . S
C250 C253 1.409 . S
C251 H243 0.930 . S
C251 C252 1.355 . S
C251 C253 1.415 . S
C252 C251 1.355 . S
C252 C254 1.419 . S
C253 C248 1.425 . S
C253 C250 1.409 . S
C253 C251 1.415 . S
C254 H244 0.930 . S
C254 C252 1.419 . S
C254 C255 1.362 . S
C255 H245 0.930 . S
C255 C248 1.409 . S
C255 C254 1.362 . S
H256 C262 0.930 . S
H257 C265 0.930 . S
H258 C266 0.930 . S
H259 C267 0.930 . S
H260 C270 0.930 . S
H261 C271 0.930 . S
C262 H256 0.930 . S
C262 C263 1.355 . S
C262 C264 1.415 . S
C263 C262 1.355 . S
C263 C265 1.419 . S
C264 C262 1.415 . S
C264 C269 1.425 . S
C264 C271 1.409 . S
C265 H257 0.930 . S
C265 C263 1.419 . S
C265 C266 1.362 . S
C266 H258 0.930 . S
C266 C265 1.362 . S
C266 C269 1.409 . S
C267 H259 0.930 . S
C267 C268 1.355 . S
C267 C269 1.415 . S
C268 C267 1.355 . S
C268 C270 1.419 . S
C269 C264 1.425 . S
C269 C266 1.409 . S
C269 C267 1.415 . S
C270 H260 0.930 . S
C270 C268 1.419 . S
C270 C271 1.362 . S
C271 H261 0.930 . S
C271 C264 1.409 . S
C271 C270 1.362 . S
H272 C278 0.930 . S
H273 C281 0.930 1_455 S
H274 C282 0.930 . S
H275 C283 0.930 1_455 S
H276 C286 0.930 . S
H277 C287 0.930 . S
C278 H272 0.930 . S
C278 C279 1.355 . S
C278 C280 1.415 . S
C279 C278 1.355 . S
C279 C281 1.419 . S
C280 C278 1.415 . S
C280 C285 1.425 . S
C280 C287 1.409 . S
C281 H273 0.930 1_655 S
C281 C279 1.419 . S
C281 C282 1.362 1_655 S
C282 H274 0.930 . S
C282 C281 1.362 1_455 S
C282 C285 1.409 1_455 S
C283 H275 0.930 1_655 S
C283 C284 1.355 . S
C283 C285 1.415 . S
C284 C283 1.355 . S
C284 C286 1.419 . S
C285 C280 1.425 . S
C285 C282 1.409 1_655 S
C285 C283 1.415 . S
C286 H276 0.930 . S
C286 C284 1.419 . S
C286 C287 1.362 . S
C287 H277 0.930 . S
C287 C280 1.409 . S
C287 C286 1.362 . S
H288 C294 0.930 . S
H289 C297 0.930 . S
H290 C298 0.930 . S
H291 C299 0.930 . S
H292 C302 0.930 . S
H293 C303 0.930 . S
C294 H288 0.930 . S
C294 C295 1.355 . S
C294 C296 1.415 . S
C295 C294 1.355 . S
C295 C297 1.419 . S
C296 C294 1.415 . S
C296 C301 1.425 . S
C296 C303 1.409 . S
C297 H289 0.930 . S
C297 C295 1.419 . S
C297 C298 1.362 . S
C298 H290 0.930 . S
C298 C297 1.362 . S
C298 C301 1.409 . S
C299 H291 0.930 . S
C299 C300 1.355 . S
C299 C301 1.415 . S
C300 C299 1.355 . S
C300 C302 1.419 . S
C301 C296 1.425 . S
C301 C298 1.409 . S
C301 C299 1.415 . S
C302 H292 0.930 . S
C302 C300 1.419 . S
C302 C303 1.362 . S
C303 H293 0.930 . S
C303 C296 1.409 . S
C303 C302 1.362 . S
H304 C310 0.930 . S
H305 C313 0.930 . S
H306 C314 0.930 . S
H307 C315 0.930 . S
H308 C318 0.930 1_545 S
H309 C319 0.942 . S
C310 H304 0.930 . S
C310 C311 1.355 . S
C310 C312 1.415 . S
C311 C310 1.355 . S
C311 C313 1.419 . S
C312 C310 1.415 . S
C312 C317 1.425 . S
C312 C319 1.409 . S
C313 H305 0.930 . S
C313 C311 1.419 . S
C313 C314 1.362 . S
C314 H306 0.930 . S
C314 C313 1.362 . S
C314 C317 1.409 . S
C315 H307 0.930 . S
C315 C316 1.355 . S
C315 C317 1.415 . S
C316 C315 1.355 . S
C316 C318 1.419 . S
C317 C312 1.425 . S
C317 C314 1.409 . S
C317 C315 1.415 . S
C318 H308 0.930 1_565 S
C318 C316 1.419 . S
C318 C319 1.362 . S
C319 H309 0.942 . S
C319 C312 1.409 . S
C319 C318 1.362 . S
H320 C326 0.930 . S
H321 C329 0.930 . S
H322 C330 0.930 . S
H323 C331 0.930 . S
H324 C334 0.930 . S
H325 C335 0.930 . S
C326 H320 0.930 . S
C326 C327 1.355 . S
C326 C328 1.415 . S
C327 C326 1.355 . S
C327 C329 1.419 . S
C328 C326 1.415 . S
C328 C333 1.425 . S
C328 C335 1.409 . S
C329 H321 0.930 . S
C329 C327 1.419 . S
C329 C330 1.362 . S
C330 H322 0.930 . S
C330 C329 1.362 . S
C330 C333 1.409 . S
C331 H323 0.930 . S
C331 C332 1.355 . S
C331 C333 1.415 . S
C332 C331 1.355 . S
C332 C334 1.419 . S
C333 C328 1.425 . S
C333 C330 1.409 . S
C333 C331 1.415 . S
C334 H324 0.930 . S
C334 C332 1.419 . S
C334 C335 1.362 . S
C335 H325 0.930 . S
C335 C328 1.409 . S
C335 C334 1.362 . S
H336 C342 0.930 . S
H337 C345 0.930 . S
H338 C346 0.930 . S
H339 C347 0.930 . S
H340 C350 0.930 . S
H341 C351 0.930 . S
C342 H336 0.930 . S
C342 C343 1.355 . S
C342 C344 1.415 . S
C343 C342 1.355 . S
C343 C345 1.419 . S
C344 C342 1.415 . S
C344 C349 1.425 . S
C344 C351 1.409 . S
C345 H337 0.930 . S
C345 C343 1.419 . S
C345 C346 1.362 . S
C346 H338 0.930 . S
C346 C345 1.362 . S
C346 C349 1.409 . S
C347 H339 0.930 . S
C347 C348 1.355 . S
C347 C349 1.415 . S
C348 C347 1.355 . S
C348 C350 1.419 . S
C349 C344 1.425 . S
C349 C346 1.409 . S
C349 C347 1.415 . S
C350 H340 0.930 . S
C350 C348 1.419 . S
C350 C351 1.362 . S
C351 H341 0.930 . S
C351 C344 1.409 . S
C351 C350 1.362 . S
H352 C358 0.930 . S
H353 C361 0.930 . S
H354 C362 0.930 . S
H355 C363 0.930 . S
H356 C366 0.930 . S
H357 C367 0.930 . S
C358 H352 0.930 . S
C358 C359 1.355 . S
C358 C360 1.415 . S
C359 C358 1.355 . S
C359 C361 1.419 . S
C360 C358 1.415 . S
C360 C365 1.425 . S
C360 C367 1.409 . S
C361 H353 0.930 . S
C361 C359 1.419 . S
C361 C362 1.362 . S
C362 H354 0.930 . S
C362 C361 1.362 . S
C362 C365 1.409 . S
C363 H355 0.930 . S
C363 C364 1.355 . S
C363 C365 1.415 . S
C364 C363 1.355 . S
C364 C366 1.419 . S
C365 C360 1.425 . S
C365 C362 1.409 . S
C365 C363 1.415 . S
C366 H356 0.930 . S
C366 C364 1.419 . S
C366 C367 1.362 . S
C367 H357 0.930 . S
C367 C360 1.409 . S
C367 C366 1.362 . S
H368 C374 0.930 . S
H369 C377 0.930 . S
H370 C378 0.930 1_554 S
H371 C379 0.930 1_554 S
H372 C382 0.930 . S
H373 C383 0.930 . S
C374 H368 0.930 . S
C374 C375 1.355 . S
C374 C376 1.415 . S
C375 C374 1.355 . S
C375 C377 1.419 . S
C376 C374 1.415 . S
C376 C381 1.425 . S
C376 C383 1.409 . S
C377 H369 0.930 . S
C377 C375 1.419 . S
C377 C378 1.362 . S
C378 H370 0.930 1_556 S
C378 C377 1.362 . S
C378 C381 1.409 . S
C379 H371 0.930 1_556 S
C379 C380 1.355 . S
C379 C381 1.415 . S
C380 C379 1.355 . S
C380 C382 1.419 . S
C381 C376 1.425 . S
C381 C378 1.409 . S
C381 C379 1.415 . S
C382 H372 0.930 . S
C382 C380 1.419 . S
C382 C383 1.362 . S
C383 H373 0.930 . S
C383 C376 1.409 . S
C383 C382 1.362 . S
H384 C390 0.930 . S
H385 C393 0.930 . S
H386 C394 0.930 . S
H387 C395 0.930 . S
H388 C398 0.930 . S
H389 C399 0.930 . S
C390 H384 0.930 . S
C390 C391 1.355 . S
C390 C392 1.415 . S
C391 C390 1.355 . S
C391 C393 1.419 1_655 S
C392 C390 1.415 . S
C392 C397 1.425 1_655 S
C392 C399 1.409 . S
C393 H385 0.930 . S
C393 C391 1.419 1_455 S
C393 C394 1.362 . S
C394 H386 0.930 . S
C394 C393 1.362 . S
C394 C397 1.409 . S
C395 H387 0.930 . S
C395 C396 1.355 . S
C395 C397 1.415 . S
C396 C395 1.355 . S
C396 C398 1.419 1_455 S
C397 C392 1.425 1_455 S
C397 C394 1.409 . S
C397 C395 1.415 . S
C398 H388 0.930 . S
C398 C396 1.419 1_655 S
C398 C399 1.362 . S
C399 H389 0.930 . S
C399 C392 1.409 . S
C399 C398 1.362 . S
H400 C406 0.930 . S
H401 C409 0.930 . S
H402 C410 0.930 . S
H403 C411 0.930 . S
H404 C414 0.930 . S
H405 C415 0.930 . S
C406 H400 0.930 . S
C406 C407 1.355 . S
C406 C408 1.415 . S
C407 C406 1.355 . S
C407 C409 1.419 . S
C408 C406 1.415 . S
C408 C413 1.425 . S
C408 C415 1.409 . S
C409 H401 0.930 . S
C409 C407 1.419 . S
C409 C410 1.362 . S
C410 H402 0.930 . S
C410 C409 1.362 . S
C410 C413 1.409 . S
C411 H403 0.930 . S
C411 C412 1.355 . S
C411 C413 1.415 . S
C412 C411 1.355 . S
C412 C414 1.419 . S
C413 C408 1.425 . S
C413 C410 1.409 . S
C413 C411 1.415 . S
C414 H404 0.930 . S
C414 C412 1.419 . S
C414 C415 1.362 . S
C415 H405 0.930 . S
C415 C408 1.409 . S
C415 C414 1.362 . S
H416 C422 0.930 . S
H417 C425 0.930 1_455 S
H418 C426 0.930 . S
H419 C427 0.930 . S
H420 C430 0.930 . S
H421 C431 0.930 . S
C422 H416 0.930 . S
C422 C423 1.355 . S
C422 C424 1.415 . S
C423 C422 1.355 . S
C423 C425 1.419 . S
C424 C422 1.415 . S
C424 C429 1.425 . S
C424 C431 1.409 . S
C425 H417 0.930 1_655 S
C425 C423 1.419 . S
C425 C426 1.362 1_655 S
C426 H418 0.930 . S
C426 C425 1.362 1_455 S
C426 C429 1.409 1_455 S
C427 H419 0.930 . S
C427 C428 1.355 . S
C427 C429 1.415 1_455 S
C428 C427 1.355 . S
C428 C430 1.419 1_455 S
C429 C424 1.425 . S
C429 C426 1.409 1_655 S
C429 C427 1.415 1_655 S
C430 H420 0.930 . S
C430 C428 1.419 1_655 S
C430 C431 1.362 . S
C431 H421 0.930 . S
C431 C424 1.409 . S
C431 C430 1.362 . S
H432 C438 0.930 . S
H433 C441 0.930 . S
H434 C442 0.930 . S
H435 C443 0.930 . S
H436 C446 0.930 . S
H437 C447 0.930 . S
C438 H432 0.930 . S
C438 C439 1.355 . S
C438 C440 1.415 . S
C439 C438 1.355 . S
C439 C441 1.419 . S
C440 C438 1.415 . S
C440 C445 1.425 . S
C440 C447 1.409 . S
C441 H433 0.930 . S
C441 C439 1.419 . S
C441 C442 1.362 . S
C442 H434 0.930 . S
C442 C441 1.362 . S
C442 C445 1.409 . S
C443 H435 0.930 . S
C443 C444 1.355 . S
C443 C445 1.415 . S
C444 C443 1.355 . S
C444 C446 1.419 . S
C445 C440 1.425 . S
C445 C442 1.409 . S
C445 C443 1.415 . S
C446 H436 0.930 . S
C446 C444 1.419 . S
C446 C447 1.362 . S
C447 H437 0.930 . S
C447 C440 1.409 . S
C447 C446 1.362 . S
H448 C454 0.930 . S
H449 C457 0.930 . S
H450 C458 0.930 . S
H451 C459 0.930 . S
H452 C462 0.930 . S
H453 C463 0.930 . S
C454 H448 0.930 . S
C454 C455 1.355 . S
C454 C456 1.415 . S
C455 C454 1.355 . S
C455 C457 1.419 . S
C456 C454 1.415 . S
C456 C461 1.425 . S
C456 C463 1.409 . S
C457 H449 0.930 . S
C457 C455 1.419 . S
C457 C458 1.362 . S
C458 H450 0.930 . S
C458 C457 1.362 . S
C458 C461 1.409 . S
C459 H451 0.930 . S
C459 C460 1.355 . S
C459 C461 1.415 . S
C460 C459 1.355 . S
C460 C462 1.419 . S
C461 C456 1.425 . S
C461 C458 1.409 . S
C461 C459 1.415 . S
C462 H452 0.930 . S
C462 C460 1.419 . S
C462 C463 1.362 . S
C463 H453 0.930 . S
C463 C456 1.409 . S
C463 C462 1.362 . S
H464 C470 0.930 . S
H465 C473 0.930 . S
H466 C474 0.930 . S
H467 C475 0.930 . S
H468 C478 0.930 . S
H469 C479 0.930 . S
C470 H464 0.930 . S
C470 C471 1.355 . S
C470 C472 1.415 . S
C471 C470 1.355 . S
C471 C473 1.419 . S
C472 C470 1.415 . S
C472 C477 1.425 . S
C472 C479 1.409 . S
C473 H465 0.930 . S
C473 C471 1.419 . S
C473 C474 1.362 . S
C474 H466 0.930 . S
C474 C473 1.362 . S
C474 C477 1.409 . S
C475 H467 0.930 . S
C475 C476 1.355 . S
C475 C477 1.415 . S
C476 C475 1.355 . S
C476 C478 1.419 . S
C477 C472 1.425 . S
C477 C474 1.409 . S
C477 C475 1.415 . S
C478 H468 0.930 . S
C478 C476 1.419 . S
C478 C479 1.362 . S
C479 H469 0.930 . S
C479 C472 1.409 . S
C479 C478 1.362 . S
H480 C486 0.930 1_545 S
H481 C489 0.930 . S
H482 C490 0.930 . S
H483 C491 0.930 . S
H484 C494 0.930 . S
H485 C495 0.930 . S
C486 H480 0.930 1_565 S
C486 C487 1.355 . S
C486 C488 1.415 . S
C487 C486 1.355 . S
C487 C489 1.419 . S
C488 C486 1.415 . S
C488 C493 1.425 . S
C488 C495 1.409 1_565 S
C489 H481 0.930 . S
C489 C487 1.419 . S
C489 C490 1.362 . S
C490 H482 0.930 . S
C490 C489 1.362 . S
C490 C493 1.409 . S
C491 H483 0.930 . S
C491 C492 1.355 . S
C491 C493 1.415 . S
C492 C491 1.355 . S
C492 C494 1.419 1_565 S
C493 C488 1.425 . S
C493 C490 1.409 . S
C493 C491 1.415 . S
C494 H484 0.930 . S
C494 C492 1.419 1_545 S
C494 C495 1.362 . S
C495 H485 0.930 . S
C495 C488 1.409 1_545 S
C495 C494 1.362 . S
H496 C502 0.930 . S
H497 C505 0.930 . S
H498 C506 0.930 . S
H499 C507 0.930 . S
H500 C510 0.930 . S
H501 C511 0.930 . S
C502 H496 0.930 . S
C502 C503 1.355 . S
C502 C504 1.415 . S
C503 C502 1.355 . S
C503 C505 1.419 . S
C504 C502 1.415 . S
C504 C509 1.425 . S
C504 C511 1.409 . S
C505 H497 0.930 . S
C505 C503 1.419 . S
C505 C506 1.362 . S
C506 H498 0.930 . S
C506 C505 1.362 . S
C506 C509 1.409 . S
C507 H499 0.930 . S
C507 C508 1.355 . S
C507 C509 1.415 . S
C508 C507 1.355 . S
C508 C510 1.419 . S
C509 C504 1.425 . S
C509 C506 1.409 . S
C509 C507 1.415 . S
C510 H500 0.930 . S
C510 C508 1.419 . S
C510 C511 1.362 . S
C511 H501 0.930 . S
C511 C504 1.409 . S
C511 C510 1.362 . S
H512 C518 0.930 . S
H513 C521 0.930 . S
H514 C522 0.930 . S
H515 C523 0.930 . S
H516 C526 0.930 . S
H517 C527 0.930 . S
C518 H512 0.930 . S
C518 C519 1.355 . S
C518 C520 1.415 . S
C519 C518 1.355 . S
C519 C521 1.419 . S
C520 C518 1.415 . S
C520 C525 1.425 . S
C520 C527 1.409 . S
C521 H513 0.930 . S
C521 C519 1.419 . S
C521 C522 1.362 . S
C522 H514 0.930 . S
C522 C521 1.362 . S
C522 C525 1.409 . S
C523 H515 0.930 . S
C523 C524 1.355 . S
C523 C525 1.415 . S
C524 C523 1.355 . S
C524 C526 1.419 . S
C525 C520 1.425 . S
C525 C522 1.409 . S
C525 C523 1.415 . S
C526 H516 0.930 . S
C526 C524 1.419 . S
C526 C527 1.362 . S
C527 H517 0.930 . S
C527 C520 1.409 . S
C527 C526 1.362 . S
H528 C534 0.930 . S
H529 C537 0.930 . S
H530 C538 0.930 . S
H531 C539 0.930 . S
H532 C542 0.930 . S
H533 C543 0.930 . S
C534 H528 0.930 . S
C534 C535 1.355 . S
C534 C536 1.415 . S
C535 C534 1.355 . S
C535 C537 1.419 . S
C536 C534 1.415 . S
C536 C541 1.425 . S
C536 C543 1.409 . S
C537 H529 0.930 . S
C537 C535 1.419 . S
C537 C538 1.362 . S
C538 H530 0.930 . S
C538 C537 1.362 . S
C538 C541 1.409 . S
C539 H531 0.930 . S
C539 C540 1.355 . S
C539 C541 1.415 . S
C540 C539 1.355 . S
C540 C542 1.419 . S
C541 C536 1.425 . S
C541 C538 1.409 . S
C541 C539 1.415 . S
C542 H532 0.930 . S
C542 C540 1.419 . S
C542 C543 1.362 . S
C543 H533 0.930 . S
C543 C536 1.409 . S
C543 C542 1.362 . S
H544 C550 0.930 . S
H545 C553 0.930 . S
H546 C554 0.930 1_455 S
H547 C555 0.930 1_455 S
H548 C558 0.930 . S
H549 C559 0.930 1_554 S
C550 H544 0.930 . S
C550 C551 1.355 . S
C550 C552 1.415 . S
C551 C550 1.355 . S
C551 C553 1.419 . S
C552 C550 1.415 . S
C552 C557 1.425 . S
C552 C559 1.409 . S
C553 H545 0.930 . S
C553 C551 1.419 . S
C553 C554 1.362 . S
C554 H546 0.930 1_655 S
C554 C553 1.362 . S
C554 C557 1.409 . S
C555 H547 0.930 1_655 S
C555 C556 1.355 . S
C555 C557 1.415 . S
C556 C555 1.355 . S
C556 C558 1.419 1_556 S
C557 C552 1.425 . S
C557 C554 1.409 . S
C557 C555 1.415 . S
C558 H548 0.930 . S
C558 C556 1.419 1_554 S
C558 C559 1.362 1_554 S
C559 H549 0.930 1_556 S
C559 C552 1.409 . S
C559 C558 1.362 1_556 S
H560 C566 0.930 . S
H561 C569 0.930 . S
H562 C570 0.930 . S
H563 C571 0.930 . S
H564 C574 0.930 . S
H565 C575 0.930 . S
C566 H560 0.930 . S
C566 C567 1.355 . S
C566 C568 1.415 . S
C567 C566 1.355 . S
C567 C569 1.419 . S
C568 C566 1.415 . S
C568 C573 1.425 . S
C568 C575 1.409 . S
C569 H561 0.930 . S
C569 C567 1.419 . S
C569 C570 1.362 . S
C570 H562 0.930 . S
C570 C569 1.362 . S
C570 C573 1.409 . S
C571 H563 0.930 . S
C571 C572 1.355 . S
C571 C573 1.415 . S
C572 C571 1.355 . S
C572 C574 1.419 . S
C573 C568 1.425 . S
C573 C570 1.409 . S
C573 C571 1.415 . S
C574 H564 0.930 . S
C574 C572 1.419 . S
C574 C575 1.362 . S
C575 H565 0.930 . S
C575 C568 1.409 . S
C575 C574 1.362 . S
H576 C582 0.930 . S
H577 C585 0.930 . S
H578 C586 0.930 . S
H579 C587 0.930 . S
H580 C590 0.930 . S
H581 C591 0.930 . S
C582 H576 0.930 . S
C582 C583 1.355 . S
C582 C584 1.415 . S
C583 C582 1.355 . S
C583 C585 1.419 . S
C584 C582 1.415 . S
C584 C589 1.425 . S
C584 C591 1.409 . S
C585 H577 0.930 . S
C585 C583 1.419 . S
C585 C586 1.362 . S
C586 H578 0.930 . S
C586 C585 1.362 . S
C586 C589 1.409 . S
C587 H579 0.930 . S
C587 C588 1.355 . S
C587 C589 1.415 . S
C588 C587 1.355 . S
C588 C590 1.419 . S
C589 C584 1.425 . S
C589 C586 1.409 . S
C589 C587 1.415 . S
C590 H580 0.930 . S
C590 C588 1.419 . S
C590 C591 1.362 . S
C591 H581 0.930 . S
C591 C584 1.409 . S
C591 C590 1.362 . S
H592 C598 0.930 . S
H593 C601 0.930 . S
H594 C602 0.930 . S
H595 C603 0.930 . S
H596 C606 0.930 . S
H597 C607 0.930 . S
C598 H592 0.930 . S
C598 C599 1.355 . S
C598 C600 1.415 . S
C599 C598 1.355 . S
C599 C601 1.419 . S
C600 C598 1.415 . S
C600 C605 1.425 . S
C600 C607 1.409 . S
C601 H593 0.930 . S
C601 C599 1.419 . S
C601 C602 1.362 . S
C602 H594 0.930 . S
C602 C601 1.362 . S
C602 C605 1.409 . S
C603 H595 0.930 . S
C603 C604 1.355 . S
C603 C605 1.415 . S
C604 C603 1.355 . S
C604 C606 1.419 . S
C605 C600 1.425 . S
C605 C602 1.409 . S
C605 C603 1.415 . S
C606 H596 0.930 . S
C606 C604 1.419 . S
C606 C607 1.362 . S
C607 H597 0.930 . S
C607 C600 1.409 . S
C607 C606 1.362 . S
C231 N1 2.038 . S
C236 C120 2.106 . S
C247 N18 1.369 . S
C252 N140 1.306 . S
C268 C174 1.560 . S
C263 N28 1.569 . S
C279 N40 1.389 . S
C284 N208 1.385 . S
C300 C161 2.563 . S
C295 N5 2.519 . S
C316 N118 1.114 . S
C311 N14 1.155 . S
C332 C195 1.958 . S
C327 N31 1.930 . S
C348 N170 0.788 . S
C343 N41 0.725 . S
C359 N2 1.712 . S
C364 C210 1.711 . S
C380 C144 1.740 . S
C375 N27 1.707 . S
C391 N44 1.514 . S
C396 C105 1.543 . S
C407 N15 1.230 . S
C412 C191 1.234 . S
C428 C131 2.371 . S
C423 N57 2.378 . S
C439 N70 0.981 . S
C444 N148 1.002 . S
C455 N79 1.761 . S
C460 C165 1.846 . S
C471 N93 1.160 . S
C476 N200 1.132 . S
C487 N54 2.203 . S
C492 C150 2.207 1_556 S
C508 N110 1.510 . S
C503 N66 1.534 . S
C524 C204 1.526 . S
C519 N80 1.525 . S
C540 N178 0.959 . S
C535 N96 1.019 . S
C551 N53 1.755 . S
C556 C221 1.763 . S
C572 C135 1.641 . S
C567 N83 1.630 . S
C588 C114 1.520 . S
C583 N92 1.533 . S
C599 N67 1.234 . S
C604 C180 1.226 . S
