# Generated by pormake.
# Topology sit, (3,6)-cn, num edge types: 1
# Building blocks:
#     Node 0, Type 0, BuildingBlock: CUQRIR_clean_linker_1, # of connection points: 3
#     Node 1, Type 0, BuildingBlock: CUQRIR_clean_linker_1, # of connection points: 3
#     Node 2, Type 0, BuildingBlock: CUQRIR_clean_linker_1, # of connection points: 3
#     Node 3, Type 0, BuildingBlock: CUQRIR_clean_linker_1, # of connection points: 3
#     Node 4, Type 1, BuildingBlock: MIDCAF_clean_sbu_0, # of connection points: 6
#     Node 5, Type 1, BuildingBlock: MIDCAF_clean_sbu_0, # of connection points: 6
#     Edge 6, Type (0, 1), BuildingBlock: FUNLAD_clean_linker_1, # of connection points: 2
#     Edge 7, Type (0, 1), BuildingBlock: FUNLAD_clean_linker_1, # of connection points: 2
#     Edge 8, Type (0, 1), BuildingBlock: FUNLAD_clean_linker_1, # of connection points: 2
#     Edge 9, Type (0, 1), BuildingBlock: FUNLAD_clean_linker_1, # of connection points: 2
#     Edge 10, Type (0, 1), BuildingBlock: FUNLAD_clean_linker_1, # of connection points: 2
#     Edge 11, Type (0, 1), BuildingBlock: FUNLAD_clean_linker_1, # of connection points: 2
#     Edge 12, Type (0, 1), BuildingBlock: FUNLAD_clean_linker_1, # of connection points: 2
#     Edge 13, Type (0, 1), BuildingBlock: FUNLAD_clean_linker_1, # of connection points: 2
#     Edge 14, Type (0, 1), BuildingBlock: FUNLAD_clean_linker_1, # of connection points: 2
#     Edge 15, Type (0, 1), BuildingBlock: FUNLAD_clean_linker_1, # of connection points: 2
#     Edge 16, Type (0, 1), BuildingBlock: FUNLAD_clean_linker_1, # of connection points: 2
#     Edge 17, Type (0, 1), BuildingBlock: FUNLAD_clean_linker_1, # of connection points: 2
# Relax obj value: 0.072
# Max RMSD: 0.180
# Mean RMSD: 0.120
data_MOF--net-sit--node1-MIDCAF_clean_sbu_0--node2-CUQRIR_clean_linker_1--edge1-FUNLAD_clean_linker_1
_symmetry_space_group_name_H-M    P1
_symmetry_Int_Tables_number       1
_symmetry_cell_setting            triclinic
loop_
_symmetry_equiv_pos_as_xyz
'x, y, z'
_cell_length_a     20.144643
_cell_length_b     32.376444
_cell_length_c     36.182183
_cell_angle_alpha  89.953358
_cell_angle_beta   89.541608
_cell_angle_gamma 84.091304
loop_
_atom_site_label
_atom_site_type_symbol
_atom_site_fract_x
_atom_site_fract_y
_atom_site_fract_z
_atom_type_partial_charge
C0 C 0.06761 0.2816 0.05217 0.0
N1 N 0.08155 0.31519 0.03226 0.0
N2 N 0.12431 0.25655 0.05942 0.0
C3 C -0.00201 0.27092 0.06048 0.0
C4 C 0.17293 0.27602 0.0429 0.0
N5 N 0.1473 0.31173 0.02661 0.0
C6 C 0.246 0.26063 0.04354 0.0
H7 H 0.9815 0.28457 0.08756 0.0
H8 H -0.00371 0.23685 0.06173 0.0
H9 H 0.96228 0.28375 0.03919 0.0
H10 H 0.25847 0.24157 0.01849 0.0
H11 H 0.25832 0.24113 0.06827 0.0
H12 H 0.27716 0.28698 0.04338 0.0
C13 C 0.98493 0.74357 0.07061 0.0
N14 N 0.00335 0.71028 0.04894 0.0
N15 N 0.03806 0.76438 0.0783 0.0
C16 C 0.91517 0.75597 0.08448 0.0
C17 C 0.09014 0.74173 0.06146 0.0
N18 N 0.06874 0.70903 0.04315 0.0
C19 C 0.16224 0.74812 0.06754 0.0
H20 H 0.87744 0.74514 0.06567 0.0
H21 H 0.90614 0.79019 0.08763 0.0
H22 H 0.90908 0.74166 0.112 0.0
H23 H 0.169 0.76217 0.09502 0.0
H24 H 0.17842 0.76941 0.04599 0.0
H25 H 0.19481 0.71844 0.0659 0.0
C26 C 0.54538 0.77568 0.54439 0.0
N27 N 0.56454 0.80885 0.52568 0.0
N28 N 0.5985 0.7473 0.55076 0.0
C29 C 0.47384 0.76897 0.55251 0.0
C30 C 0.65038 0.76428 0.53494 0.0
N31 N 0.63013 0.80174 0.51998 0.0
C32 C 0.72152 0.74474 0.53509 0.0
H33 H 0.45888 0.78349 0.57948 0.0
H34 H 0.46725 0.73545 0.5538 0.0
H35 H 0.44012 0.78356 0.53103 0.0
H36 H 0.73131 0.72664 0.50924 0.0
H37 H 0.73094 0.72344 0.55892 0.0
H38 H 0.75689 0.7688 0.53613 0.0
C39 C 0.45916 0.26126 0.56065 0.0
N40 N 0.48947 0.22797 0.54228 0.0
N41 N 0.50282 0.28953 0.56727 0.0
C42 C 0.38703 0.26616 0.57236 0.0
C43 C 0.56055 0.27256 0.55132 0.0
N44 N 0.55258 0.23491 0.53673 0.0
C45 C 0.62354 0.2937 0.54801 0.0
H46 H 0.35737 0.28381 0.55076 0.0
H47 H 0.38032 0.28374 0.59866 0.0
H48 H 0.36779 0.2355 0.57581 0.0
H49 H 0.65434 0.28663 0.57294 0.0
H50 H 0.61161 0.32776 0.54582 0.0
H51 H 0.65393 0.28276 0.52362 0.0
Zn52 Zn 0.02536 0.11193 0.35064 0.0
Zn53 Zn 0.08217 0.95163 0.35487 0.0
Zn54 Zn 0.06384 0.03212 0.35265 0.0
C55 C 0.07841 0.97253 0.28033 0.0
C56 C 0.96519 0.9688 0.39141 0.0
O57 O 0.145 0.06051 0.38074 0.0
O58 O 0.1019 0.12629 0.38091 0.0
C59 C 0.04398 0.08829 0.2779 0.0
O60 O 0.06834 1.00929 0.29433 0.0
O61 O 0.08764 0.94134 0.30131 0.0
O62 O 0.00191 0.93708 0.3808 0.0
O63 O 0.98147 1.00541 0.38371 0.0
O64 O 0.02626 0.12014 0.29693 0.0
O65 O 0.05918 0.05281 0.29362 0.0
O66 O 0.96867 0.0488 0.38467 0.0
O67 O 0.93777 0.11548 0.37505 0.0
C68 C 0.92697 0.08144 0.38967 0.0
O69 O 0.16206 0.01662 0.37997 0.0
O70 O 0.16555 0.9482 0.38307 0.0
C71 C 0.14803 0.09877 0.38976 0.0
C72 C 0.19155 0.98117 0.38994 0.0
Zn73 Zn 0.56634 0.60929 0.84878 0.0
Zn74 Zn 0.58501 0.4497 0.85272 0.0
Zn75 Zn 0.57576 0.53035 0.84984 0.0
C76 C 0.58183 0.47021 0.77825 0.0
C77 C 0.46988 0.47607 0.89095 0.0
O78 O 0.66918 0.5512 0.87287 0.0
O79 O 0.66126 0.6175 0.85712 0.0
C80 C 0.54102 0.58634 0.77764 0.0
O81 O 0.57066 0.50702 0.79201 0.0
O82 O 0.59423 0.43917 0.79905 0.0
O83 O 0.49931 0.44295 0.87778 0.0
O84 O 0.49229 0.51121 0.88415 0.0
O85 O 0.53098 0.6177 0.79829 0.0
O86 O 0.56218 0.55063 0.79131 0.0
O87 O 0.48742 0.55494 0.88377 0.0
O88 O 0.50249 0.62126 0.89015 0.0
C89 C 0.46978 0.59115 0.89767 0.0
O90 O 0.67305 0.5078 0.87546 0.0
O91 O 0.66624 0.44055 0.88271 0.0
C92 C 0.69425 0.58625 0.87112 0.0
C93 C 0.69759 0.47191 0.88731 0.0
H94 H 0.17143 0.19347 0.06882 0.0
C95 C 0.1327 0.21703 0.07828 0.0
H96 H 0.06319 0.23439 0.12072 0.0
H97 H 0.03223 0.04845 0.16834 0.0
H98 H 0.95564 0.04977 0.11645 0.0
H99 H 0.95053 0.10668 0.07074 0.0
H100 H 0.02211 0.16245 0.07646 0.0
C101 C 0.09875 0.2102 0.10935 0.0
C102 C 0.11206 0.17133 0.13122 0.0
C103 C 0.07076 0.1388 0.12709 0.0
C104 C 0.07325 0.10618 0.15355 0.0
C105 C 0.03113 0.07422 0.14917 0.0
C106 C 0.9874 0.07455 0.1195 0.0
C107 C 0.98456 0.10659 0.09375 0.0
C108 C 0.02561 0.13848 0.09739 0.0
H109 H 0.01093 0.11715 0.22601 0.0
C110 C 0.04776 0.09394 0.23773 0.0
H111 H 0.14356 0.0622 0.23063 0.0
H112 H 0.20612 0.2249 0.1432 0.0
H113 H 0.28696 0.2211 0.19282 0.0
H114 H 0.29132 0.1645 0.23873 0.0
H115 H 0.21506 0.11137 0.23529 0.0
C116 C 0.10327 0.08219 0.2181 0.0
C117 C 0.1164 0.10648 0.18423 0.0
C118 C 0.16327 0.13626 0.18583 0.0
C119 C 0.16075 0.16893 0.15939 0.0
C120 C 0.20594 0.19943 0.16256 0.0
C121 C 0.2526 0.1976 0.19088 0.0
C122 C 0.25505 0.16573 0.21673 0.0
C123 C 0.21087 0.13545 0.21447 0.0
H124 H 0.01011 0.79921 0.12856 0.0
C125 C 0.03896 0.79919 0.10303 0.0
H126 H 0.09997 0.83251 0.06901 0.0
H127 H 0.96159 0.95281 0.20828 0.0
H128 H 0.85607 0.94815 0.17739 0.0
H129 H 0.85098 0.90729 0.12011 0.0
H130 H 0.95148 0.8703 0.09368 0.0
C131 C 0.07239 0.83198 0.09487 0.0
C132 C 0.07702 0.86593 0.12235 0.0
C133 C 0.01849 0.88893 0.13642 0.0
C134 C 0.02174 0.91348 0.16884 0.0
C135 C 0.96205 0.93416 0.18351 0.0
C136 C 0.9012 0.93181 0.16599 0.0
C137 C 0.8983 0.90874 0.13376 0.0
C138 C 0.95613 0.88745 0.11903 0.0
H139 H 0.06785 0.99209 0.22132 0.0
C140 C 0.07731 0.96575 0.23982 0.0
H141 H 0.09685 0.90065 0.24485 0.0
H142 H 0.20081 0.83472 0.09695 0.0
H143 H 0.30721 0.84496 0.12453 0.0
H144 H 0.31262 0.88832 0.18027 0.0
H145 H 0.21113 0.92174 0.20878 0.0
C146 C 0.08581 0.92679 0.22625 0.0
C147 C 0.0838 0.91567 0.18648 0.0
C148 C 0.14317 0.89753 0.16935 0.0
C149 C 0.13995 0.8727 0.13714 0.0
C150 C 0.20016 0.85378 0.12147 0.0
C151 C 0.26166 0.85952 0.13698 0.0
C152 C 0.26471 0.88391 0.16838 0.0
C153 C 0.20628 0.90271 0.18455 0.0
H154 H 0.63687 0.68237 0.55954 0.0
C155 C 0.60131 0.70763 0.56927 0.0
H156 H 0.53482 0.72827 0.61226 0.0
H157 H 0.48025 0.55305 0.67344 0.0
H158 H 0.3875 0.56233 0.63045 0.0
H159 H 0.38167 0.61817 0.5837 0.0
H160 H 0.4686 0.6649 0.57951 0.0
C161 C 0.56801 0.70279 0.601 0.0
C162 C 0.57837 0.66408 0.6234 0.0
C163 C 0.52775 0.63682 0.62512 0.0
C164 C 0.53086 0.60476 0.65213 0.0
C165 C 0.47945 0.57817 0.65363 0.0
C166 C 0.4263 0.58308 0.62907 0.0
C167 C 0.42304 0.61452 0.60274 0.0
C168 C 0.47301 0.64122 0.6007 0.0
H169 H 0.49742 0.61948 0.72979 0.0
C170 C 0.53252 0.59325 0.73779 0.0
H171 H 0.61669 0.55354 0.72111 0.0
H172 H 0.68786 0.70795 0.62494 0.0
H173 H 0.7837 0.69515 0.66483 0.0
H174 H 0.79029 0.63828 0.71049 0.0
H175 H 0.70085 0.59404 0.71657 0.0
C176 C 0.57744 0.57717 0.71279 0.0
C177 C 0.58429 0.60025 0.67749 0.0
C178 C 0.6387 0.62437 0.67295 0.0
C179 C 0.63533 0.65679 0.64623 0.0
C180 C 0.68826 0.68234 0.64412 0.0
C181 C 0.74356 0.67544 0.667 0.0
C182 C 0.74723 0.64347 0.69274 0.0
C183 C 0.69542 0.61831 0.69597 0.0
H184 H 0.43995 0.34602 0.58322 0.0
C185 C 0.48886 0.32881 0.58619 0.0
H186 H 0.57975 0.32441 0.61504 0.0
H187 H 0.59238 0.50565 0.66705 0.0
H188 H 0.66204 0.50715 0.61197 0.0
H189 H 0.66508 0.45093 0.5657 0.0
H190 H 0.59844 0.39314 0.57432 0.0
C191 C 0.53196 0.34223 0.61052 0.0
C192 C 0.51697 0.38065 0.63307 0.0
C193 C 0.55486 0.41469 0.62723 0.0
C194 C 0.55287 0.44725 0.6537 0.0
C195 C 0.59246 0.48026 0.64772 0.0
C196 C 0.63242 0.48147 0.61623 0.0
C197 C 0.63413 0.44981 0.5902 0.0
C198 C 0.59599 0.4167 0.59554 0.0
H199 H 0.61714 0.43853 0.72763 0.0
C200 C 0.57965 0.46219 0.73837 0.0
H201 H 0.48334 0.49256 0.73022 0.0
H202 H 0.43343 0.32187 0.65174 0.0
H203 H 0.35806 0.32375 0.70422 0.0
H204 H 0.35099 0.38201 0.74844 0.0
H205 H 0.41988 0.43856 0.74049 0.0
C206 C 0.52445 0.47228 0.71845 0.0
C207 C 0.51248 0.44601 0.68577 0.0
C208 C 0.46897 0.41446 0.68955 0.0
C209 C 0.47206 0.38127 0.66357 0.0
C210 C 0.43197 0.34845 0.66983 0.0
C211 C 0.38862 0.34901 0.70005 0.0
C212 C 0.38471 0.38176 0.72498 0.0
C213 C 0.4246 0.41404 0.72008 0.0
H214 H 0.227 0.32507 0.98885 0.0
C215 C 0.18549 0.33902 0.00557 0.0
H216 H 0.13881 0.39563 0.02706 0.0
H217 H 0.44777 0.42931 0.98034 0.0
H218 H 0.47122 0.40385 0.04257 0.0
H219 H 0.38196 0.37968 0.08167 0.0
H220 H 0.26858 0.38081 0.0587 0.0
C221 C 0.17719 0.38054 0.00905 0.0
C222 C 0.22512 0.40577 0.99019 0.0
C223 C 0.29038 0.40611 0.00439 0.0
C224 C 0.34162 0.4203 0.98197 0.0
C225 C 0.40697 0.41895 0.9963 0.0
C226 C 0.42104 0.40447 0.03196 0.0
C227 C 0.37078 0.39083 0.05397 0.0
C228 C 0.30611 0.39148 0.04046 0.0
H229 H 0.39468 0.50029 0.93269 0.0
C230 C 0.41185 0.47377 0.91572 0.0
H231 H 0.39873 0.41171 0.90211 0.0
H232 H 0.10259 0.41896 0.95865 0.0
H233 H 0.07766 0.44612 0.89711 0.0
H234 H 0.16659 0.47061 0.85793 0.0
H235 H 0.28118 0.46632 0.8796 0.0
C236 C 0.38236 0.43863 0.919 0.0
C237 C 0.32711 0.43429 0.94555 0.0
C238 C 0.26049 0.43823 0.93293 0.0
C239 C 0.20921 0.42428 0.95548 0.0
C240 C 0.14326 0.42799 0.94209 0.0
C241 C 0.12835 0.44419 0.90711 0.0
C242 C 0.17848 0.4578 0.885 0.0
C243 C 0.24395 0.45501 0.89766 0.0
H244 H 0.92031 0.67183 0.05102 0.0
C245 C 0.95984 0.68206 0.03373 0.0
H246 H 0.00049 0.68366 0.98004 0.0
H247 H 0.88659 0.52994 0.90942 0.0
H248 H 0.00501 0.50712 0.91022 0.0
H249 H 0.08347 0.54719 0.94364 0.0
H250 H 0.04366 0.61071 0.97598 0.0
C251 C 0.96246 0.67227 0.99761 0.0
C252 C 0.91431 0.64634 0.98014 0.0
C253 C 0.93839 0.60881 0.96202 0.0
C254 C 0.89327 0.58513 0.9433 0.0
C255 C 0.91875 0.54868 0.92435 0.0
C256 C 0.98666 0.53525 0.92465 0.0
C257 C 0.03073 0.55784 0.94346 0.0
C258 C 0.0072 0.59428 0.9619 0.0
H259 H 0.78473 0.61771 0.87679 0.0
C260 C 0.75878 0.5925 0.88786 0.0
H261 H 0.74817 0.55425 0.93437 0.0
H262 H 0.85169 0.72067 0.00531 0.0
H263 H 0.73282 0.74104 0.0073 0.0
H264 H 0.65368 0.69535 0.98187 0.0
H265 H 0.69358 0.62957 0.95341 0.0
C266 C 0.77701 0.57663 0.92096 0.0
C267 C 0.82408 0.59828 0.94369 0.0
C268 C 0.79968 0.63492 0.96295 0.0
C269 C 0.84496 0.65993 0.97978 0.0
C270 C 0.81952 0.69888 0.9947 0.0
C271 C 0.75125 0.7113 0.99548 0.0
C272 C 0.70675 0.6857 0.98101 0.0
C273 C 0.73038 0.64805 0.9647 0.0
H274 H 0.98778 0.35537 0.03332 0.0
C275 C 0.03221 0.34583 0.01695 0.0
H276 H 0.0752 0.34484 0.96391 0.0
H277 H 0.80664 0.37505 0.87691 0.0
H278 H 0.85709 0.30962 0.85206 0.0
H279 H 0.96121 0.27526 0.87821 0.0
H280 H 0.01576 0.30618 0.92887 0.0
C281 C 0.03379 0.35722 0.98131 0.0
C282 C 0.9746 0.38034 0.9634 0.0
C283 C 0.9433 0.36146 0.93375 0.0
C284 C 0.88229 0.38061 0.91935 0.0
C285 C 0.85225 0.36134 0.8895 0.0
C286 C 0.8808 0.32386 0.87484 0.0
C287 C 0.93947 0.30459 0.8895 0.0
C288 C 0.97045 0.3229 0.91862 0.0
H289 H 0.80006 0.48785 0.89823 0.0
C290 C 0.76415 0.46604 0.90445 0.0
H291 H 0.74537 0.41012 0.93038 0.0
H292 H 0.02932 0.4299 0.01375 0.0
H293 H 0.97954 0.4961 0.03751 0.0
H294 H 0.86907 0.5263 0.01607 0.0
H295 H 0.80881 0.49105 0.96995 0.0
C296 C 0.78172 0.43204 0.92494 0.0
C297 C 0.85178 0.418 0.93509 0.0
C298 C 0.88503 0.4383 0.96304 0.0
C299 C 0.94736 0.4199 0.97663 0.0
C300 C 0.98092 0.4417 0.0034 0.0
C301 C 0.95297 0.47981 0.01717 0.0
C302 C 0.89083 0.49683 0.00506 0.0
C303 C 0.85684 0.47634 0.97846 0.0
H304 H 0.09689 0.64364 0.02986 0.0
C305 C 0.10893 0.67521 0.02531 0.0
H306 H 0.16596 0.71393 0.9945 0.0
H307 H 0.38248 0.54959 0.98392 0.0
H308 H 0.38798 0.55146 0.051 0.0
H309 H 0.30763 0.59837 0.08705 0.0
H310 H 0.22086 0.64292 0.05648 0.0
C311 C 0.15787 0.68222 0.00157 0.0
C312 C 0.19848 0.6481 0.9817 0.0
C313 C 0.24904 0.62254 0.00031 0.0
C314 C 0.29668 0.59644 0.97955 0.0
C315 C 0.34631 0.57074 -0.00149 0.0
C316 C 0.34977 0.57139 0.03692 0.0
C317 C 0.30444 0.59774 0.05721 0.0
C318 C 0.25474 0.6232 0.03927 0.0
H319 H 0.4128 0.62432 0.94221 0.0
C320 C 0.41177 0.59903 0.92252 0.0
H321 H 0.35093 0.55862 0.89658 0.0
H322 H 0.09894 0.68568 0.9388 0.0
H323 H 0.08875 0.67923 0.87223 0.0
H324 H 0.17286 0.63506 0.83614 0.0
H325 H 0.26728 0.59685 0.86637 0.0
C326 C 0.3551 0.58105 0.91852 0.0
C327 C 0.29482 0.59698 0.9404 0.0
C328 C 0.23944 0.61834 0.92226 0.0
C329 C 0.19129 0.6441 0.94299 0.0
C330 C 0.13716 0.66598 0.92424 0.0
C331 C 0.13068 0.66247 0.8861 0.0
C332 C 0.17803 0.63757 0.86579 0.0
C333 C 0.23209 0.61587 0.88348 0.0
H334 H 0.71261 0.81224 0.4832 0.0
C335 C 0.6732 0.82751 0.50062 0.0
H336 H 0.63544 0.88466 0.52505 0.0
H337 H 0.95342 0.89511 0.47465 0.0
H338 H 0.97733 0.85495 0.53053 0.0
H339 H 0.88605 0.83203 0.56882 0.0
H340 H 0.77025 0.84918 0.55139 0.0
C341 C 0.67236 0.86848 0.50678 0.0
C342 C 0.72517 0.89142 0.48962 0.0
C343 C 0.79235 0.88218 0.50067 0.0
C344 C 0.84476 0.89562 0.47872 0.0
C345 C 0.91157 0.88531 0.49011 0.0
C346 C 0.926 0.86246 0.52222 0.0
C347 C 0.87463 0.84953 0.54377 0.0
C348 C 0.80848 0.85929 0.53331 0.0
H349 H 0.87638 0.99056 0.42548 0.0
C350 C 0.90471 0.96355 0.41358 0.0
H351 H 0.9144 0.89824 0.40918 0.0
H352 H 0.60208 0.92309 0.46659 0.0
H353 H 0.57656 0.96541 0.41201 0.0
H354 H 0.66717 0.98568 0.37163 0.0
H355 H 0.78296 0.96484 0.38609 0.0
C356 C 0.88527 0.92572 0.42011 0.0
C357 C 0.82983 0.91865 0.44595 0.0
C358 C 0.76238 0.93118 0.43677 0.0
C359 C 0.71 0.91818 0.4592 0.0
C360 C 0.64318 0.93123 0.44982 0.0
C361 C 0.62809 0.95567 0.41872 0.0
C362 C 0.67909 0.96724 0.3961 0.0
C363 C 0.74551 0.95517 0.40483 0.0
H364 H 0.47765 0.1622 0.53363 0.0
C365 C 0.45851 0.19379 0.52677 0.0
H366 H 0.39482 0.23203 0.49264 0.0
H367 H 0.35614 0.10609 0.3667 0.0
H368 H 0.44409 0.1423 0.33913 0.0
H369 H 0.5056 0.18926 0.37648 0.0
H370 H 0.47937 0.20047 0.44161 0.0
C371 C 0.4104 0.20047 0.5015 0.0
C372 C 0.3834 0.16583 0.48141 0.0
C373 C 0.39992 0.1592 0.44357 0.0
C374 C 0.36491 0.13183 0.42211 0.0
C375 C 0.38131 0.1265 0.38421 0.0
C376 C 0.43173 0.14703 0.36809 0.0
C377 C 0.4663 0.17353 0.38911 0.0
C378 C 0.4506 0.17982 0.42639 0.0
H379 H 0.18863 0.14002 0.42957 0.0
C380 C 0.20111 0.11191 0.41342 0.0
H381 H 0.27935 0.06777 0.39631 0.0
H382 H 0.34698 0.16609 0.55464 0.0
H383 H 0.2678 0.12413 0.58326 0.0
H384 H 0.21006 0.07498 0.54621 0.0
H385 H 0.23084 0.06796 0.48008 0.0
C386 C 0.26358 0.09321 0.41479 0.0
C387 C 0.31317 0.11152 0.43856 0.0
C388 C 0.30264 0.11414 0.47732 0.0
C389 C 0.33721 0.14171 0.49877 0.0
C390 C 0.32303 0.14522 0.53708 0.0
C391 C 0.27759 0.1213 0.55386 0.0
C392 C 0.24496 0.0937 0.533 0.0
C393 C 0.257 0.09013 0.49512 0.0
H394 H 0.47484 0.85262 0.52812 0.0
C395 C 0.51958 0.84303 0.51203 0.0
H396 H 0.56635 0.84678 0.46019 0.0
H397 H 0.30192 0.89455 0.37257 0.0
H398 H 0.35082 0.83243 0.34116 0.0
H399 H 0.45384 0.79352 0.36431 0.0
H400 H 0.50864 0.81644 0.41857 0.0
C401 C 0.5249 0.85849 0.4778 0.0
C402 C 0.46861 0.88549 0.46092 0.0
C403 C 0.43767 0.87148 0.4288 0.0
C404 C 0.37752 0.89329 0.41587 0.0
C405 C 0.34706 0.87861 0.38395 0.0
C406 C 0.37472 0.84312 0.36555 0.0
C407 C 0.43277 0.82129 0.37854 0.0
C408 C 0.46391 0.835 0.40981 0.0
H409 H 0.29366 0.9988 0.40035 0.0
C410 C 0.25799 0.97717 0.40739 0.0
H411 H 0.2414 0.92115 0.4338 0.0
H412 H 0.52334 0.92647 0.51757 0.0
H413 H 0.47692 0.9909 0.54629 0.0
H414 H 0.37055 0.02723 0.5248 0.0
H415 H 0.31018 0.99941 0.47413 0.0
C416 C 0.27715 0.94325 0.42765 0.0
C417 C 0.34802 0.92865 0.43519 0.0
C418 C 0.38219 0.94508 0.46487 0.0
C419 C 0.44295 0.92363 0.47767 0.0
C420 C 0.47643 0.94096 0.50721 0.0
C421 C 0.45044 0.97803 0.52383 0.0
C422 C 0.39054 0.99851 0.51171 0.0
C423 C 0.35638 0.98224 0.48268 0.0
H424 H 0.62691 0.2259 0.49253 0.0
C425 C 0.60008 0.21039 0.51373 0.0
H426 H 0.59211 0.1534 0.5413 0.0
H427 H 0.72153 0.07252 0.38929 0.0
H428 H 0.60634 0.05759 0.38162 0.0
H429 H 0.51969 0.08228 0.42729 0.0
H430 H 0.54712 0.12287 0.48056 0.0
C431 C 0.61587 0.16964 0.51944 0.0
C432 C 0.66956 0.14688 0.49687 0.0
C433 C 0.65306 0.12232 0.46663 0.0
C434 C 0.70314 0.10789 0.44045 0.0
C435 C 0.68513 0.08441 0.40983 0.0
C436 C 0.61943 0.07547 0.40524 0.0
C437 C 0.57056 0.08943 0.43094 0.0
C438 C 0.58686 0.11273 0.4613 0.0
H439 H 0.87294 0.05846 0.43778 0.0
C440 C 0.86973 0.08066 0.41527 0.0
H441 H 0.81455 0.13294 0.39163 0.0
H442 H 0.71902 0.18619 0.55585 0.0
H443 H 0.83396 0.2004 0.56442 0.0
H444 H 0.92064 0.1774 0.51819 0.0
H445 H 0.89324 0.13987 0.46347 0.0
C446 C 0.81843 0.1106 0.41414 0.0
C447 C 0.7695 0.1178 0.44493 0.0
C448 C 0.78691 0.13964 0.47684 0.0
C449 C 0.73685 0.15376 0.50306 0.0
C450 C 0.75512 0.17551 0.53474 0.0
C451 C 0.82087 0.18372 0.54006 0.0
C452 C 0.86967 0.17071 0.51407 0.0
C453 C 0.85319 0.14905 0.48275 0.0
loop_
_geom_bond_atom_site_label_1
_geom_bond_atom_site_label_2
_geom_bond_distance
_geom_bond_site_symmetry_2
_ccdc_geom_bond_type
C0 N1 1.317 . S
C0 N2 1.348 . S
C0 C3 1.485 . S
N1 C0 1.317 . S
N1 N5 1.370 . S
N2 C0 1.348 . S
N2 C4 1.346 . S
C3 C0 1.485 . S
C3 H7 0.960 . S
C3 H8 0.961 . S
C3 H9 0.964 . S
C4 N2 1.346 . S
C4 N5 1.307 . S
C4 C6 1.486 . S
N5 N1 1.370 . S
N5 C4 1.307 . S
C6 C4 1.486 . S
C6 H10 0.960 . S
C6 H11 0.960 . S
C6 H12 0.959 . S
H7 C3 0.960 . S
H8 C3 0.961 . S
H9 C3 0.964 . S
H10 C6 0.960 . S
H11 C6 0.960 . S
H12 C6 0.959 . S
C13 N14 1.317 . S
C13 N15 1.347 . S
C13 C16 1.485 . S
N14 C13 1.317 . S
N14 N18 1.370 1_655 S
N15 C13 1.347 . S
N15 C17 1.347 1_655 S
C16 C13 1.485 . S
C16 H20 0.960 . S
C16 H21 0.961 . S
C16 H22 0.960 . S
C17 N15 1.347 1_455 S
C17 N18 1.307 . S
C17 C19 1.486 . S
N18 N14 1.370 1_455 S
N18 C17 1.307 . S
C19 C17 1.486 . S
C19 H23 0.960 . S
C19 H24 0.960 . S
C19 H25 0.959 . S
H20 C16 0.960 . S
H21 C16 0.961 . S
H22 C16 0.960 . S
H23 C19 0.960 . S
H24 C19 0.960 . S
H25 C19 0.959 . S
C26 N27 1.317 . S
C26 N28 1.348 . S
C26 C29 1.485 . S
N27 C26 1.317 . S
N27 N31 1.370 . S
N28 C26 1.348 . S
N28 C30 1.346 . S
C29 C26 1.485 . S
C29 H33 0.960 . S
C29 H34 0.961 . S
C29 H35 0.960 . S
C30 N28 1.346 . S
C30 N31 1.307 . S
C30 C32 1.486 . S
N31 N27 1.370 . S
N31 C30 1.307 . S
C32 C30 1.486 . S
C32 H36 0.960 . S
C32 H37 0.960 . S
C32 H38 0.959 . S
H33 C29 0.960 . S
H34 C29 0.961 . S
H35 C29 0.960 . S
H36 C32 0.960 . S
H37 C32 0.960 . S
H38 C32 0.959 . S
C39 N40 1.317 . S
C39 N41 1.348 . S
C39 C42 1.485 . S
N40 C39 1.317 . S
N40 N44 1.370 . S
N41 C39 1.348 . S
N41 C43 1.346 . S
C42 C39 1.485 . S
C42 H46 0.960 . S
C42 H47 0.961 . S
C42 H48 0.960 . S
C43 N41 1.346 . S
C43 N44 1.307 . S
C43 C45 1.486 . S
N44 N40 1.370 . S
N44 C43 1.307 . S
C45 C43 1.486 . S
C45 H49 0.960 . S
C45 H50 0.960 . S
C45 H51 0.959 . S
H46 C42 0.960 . S
H47 C42 0.961 . S
H48 C42 0.960 . S
H49 C45 0.960 . S
H50 C45 0.960 . S
H51 C45 0.959 . S
Zn52 O58 1.920 . S
Zn52 O64 1.898 . S
Zn52 O67 1.905 1_455 S
Zn53 O61 1.905 . S
Zn53 O62 1.898 . S
Zn53 O70 1.920 . S
Zn54 O57 2.080 . S
Zn54 O60 2.114 1_545 S
Zn54 O63 2.120 1_545 S
Zn54 O65 2.120 . S
Zn54 O66 2.114 1_455 S
Zn54 O69 2.080 1_545 S
C55 O60 1.166 . S
C55 O61 1.182 . S
C56 O62 1.167 . S
C56 O63 1.299 . S
O57 Zn54 2.080 . S
O57 C71 1.305 . S
O58 Zn52 1.920 . S
O58 C71 1.234 . S
C59 O64 1.167 . S
C59 O65 1.299 . S
O60 Zn54 2.114 1_565 S
O60 C55 1.166 . S
O61 Zn53 1.905 . S
O61 C55 1.182 . S
O62 Zn53 1.898 . S
O62 C56 1.167 . S
O63 Zn54 2.120 1_565 S
O63 C56 1.299 . S
O64 Zn52 1.898 . S
O64 C59 1.167 . S
O65 Zn54 2.120 . S
O65 C59 1.299 . S
O66 Zn54 2.114 1_655 S
O66 C68 1.166 . S
O67 Zn52 1.905 1_655 S
O67 C68 1.182 . S
C68 O66 1.166 . S
C68 O67 1.182 . S
O69 Zn54 2.080 1_565 S
O69 C72 1.305 . S
O70 Zn53 1.920 . S
O70 C72 1.234 . S
C71 O57 1.305 . S
C71 O58 1.234 . S
C72 O69 1.305 . S
C72 O70 1.234 . S
Zn73 O79 1.920 . S
Zn73 O85 1.898 . S
Zn73 O88 1.905 . S
Zn74 O82 1.905 . S
Zn74 O83 1.898 . S
Zn74 O91 1.920 . S
Zn75 O78 2.080 . S
Zn75 O81 2.114 . S
Zn75 O84 2.120 . S
Zn75 O86 2.120 . S
Zn75 O87 2.114 . S
Zn75 O90 2.080 . S
C76 O81 1.166 . S
C76 O82 1.182 . S
C77 O83 1.167 . S
C77 O84 1.299 . S
O78 Zn75 2.080 . S
O78 C92 1.305 . S
O79 Zn73 1.920 . S
O79 C92 1.234 . S
C80 O85 1.167 . S
C80 O86 1.299 . S
O81 Zn75 2.114 . S
O81 C76 1.166 . S
O82 Zn74 1.905 . S
O82 C76 1.182 . S
O83 Zn74 1.898 . S
O83 C77 1.167 . S
O84 Zn75 2.120 . S
O84 C77 1.299 . S
O85 Zn73 1.898 . S
O85 C80 1.167 . S
O86 Zn75 2.120 . S
O86 C80 1.299 . S
O87 Zn75 2.114 . S
O87 C89 1.166 . S
O88 Zn73 1.905 . S
O88 C89 1.182 . S
C89 O87 1.166 . S
C89 O88 1.182 . S
O90 Zn75 2.080 . S
O90 C93 1.305 . S
O91 Zn74 1.920 . S
O91 C93 1.234 . S
C92 O78 1.305 . S
C92 O79 1.234 . S
C93 O90 1.305 . S
C93 O91 1.234 . S
H94 C95 0.951 . S
C95 H94 0.951 . S
C95 C101 1.265 . S
H96 C101 0.950 . S
H97 C105 0.949 . S
H98 C106 0.950 . S
H99 C107 0.951 . S
H100 C108 0.951 . S
C101 C95 1.265 . S
C101 H96 0.950 . S
C101 C102 1.478 . S
C102 C101 1.478 . S
C102 C103 1.397 . S
C102 C119 1.394 . S
C103 C102 1.397 . S
C103 C104 1.438 . S
C103 C108 1.429 . S
C104 C103 1.438 . S
C104 C105 1.428 . S
C104 C117 1.394 . S
C105 H97 0.949 . S
C105 C104 1.428 . S
C105 C106 1.345 1_455 S
C106 H98 0.950 . S
C106 C105 1.345 1_655 S
C106 C107 1.424 . S
C107 H99 0.951 . S
C107 C106 1.424 . S
C107 C108 1.347 1_655 S
C108 H100 0.951 . S
C108 C103 1.429 . S
C108 C107 1.347 1_455 S
H109 C110 0.951 . S
C110 H109 0.951 . S
C110 C116 1.265 . S
H111 C116 0.950 . S
H112 C120 0.949 . S
H113 C121 0.950 . S
H114 C122 0.951 . S
H115 C123 0.951 . S
C116 C110 1.265 . S
C116 H111 0.950 . S
C116 C117 1.478 . S
C117 C104 1.394 . S
C117 C116 1.478 . S
C117 C118 1.397 . S
C118 C117 1.397 . S
C118 C119 1.438 . S
C118 C123 1.429 . S
C119 C102 1.394 . S
C119 C118 1.438 . S
C119 C120 1.428 . S
C120 H112 0.949 . S
C120 C119 1.428 . S
C120 C121 1.345 . S
C121 H113 0.950 . S
C121 C120 1.345 . S
C121 C122 1.424 . S
C122 H114 0.951 . S
C122 C121 1.424 . S
C122 C123 1.347 . S
C123 H115 0.951 . S
C123 C118 1.429 . S
C123 C122 1.347 . S
H124 C125 0.951 . S
C125 H124 0.951 . S
C125 C131 1.265 1_655 S
H126 C131 0.950 . S
H127 C135 0.949 . S
H128 C136 0.950 1_545 S
H129 C137 0.951 . S
H130 C138 0.951 . S
C131 C125 1.265 1_455 S
C131 H126 0.950 . S
C131 C132 1.478 . S
C132 C131 1.478 . S
C132 C133 1.394 1_455 S
C132 C149 1.394 . S
C133 C132 1.394 1_655 S
C133 C134 1.438 . S
C133 C138 1.432 . S
C134 C133 1.438 . S
C134 C135 1.428 . S
C134 C147 1.394 1_655 S
C135 H127 0.949 . S
C135 C134 1.428 . S
C135 C136 1.345 . S
C136 H128 0.950 1_565 S
C136 C135 1.345 . S
C136 C137 1.424 . S
C137 H129 0.951 . S
C137 C136 1.424 . S
C137 C138 1.347 . S
C138 H130 0.951 . S
C138 C133 1.432 . S
C138 C137 1.347 . S
H139 C140 0.951 . S
C140 H139 0.951 . S
C140 C146 1.265 . S
H141 C146 0.950 1_655 S
H142 C150 0.949 . S
H143 C151 0.950 . S
H144 C152 0.951 . S
H145 C153 0.951 . S
C146 C140 1.265 . S
C146 H141 0.950 1_455 S
C146 C147 1.478 . S
C147 C134 1.394 1_455 S
C147 C146 1.478 . S
C147 C148 1.397 . S
C148 C147 1.397 . S
C148 C149 1.438 . S
C148 C153 1.429 . S
C149 C132 1.394 . S
C149 C148 1.438 . S
C149 C150 1.428 . S
C150 H142 0.949 . S
C150 C149 1.428 . S
C150 C151 1.345 . S
C151 H143 0.950 . S
C151 C150 1.345 . S
C151 C152 1.424 . S
C152 H144 0.951 . S
C152 C151 1.424 . S
C152 C153 1.347 . S
C153 H145 0.951 . S
C153 C148 1.429 . S
C153 C152 1.347 . S
H154 C155 0.951 . S
C155 H154 0.951 . S
C155 C161 1.265 . S
H156 C161 0.950 . S
H157 C165 0.949 . S
H158 C166 0.950 . S
H159 C167 0.951 . S
H160 C168 0.951 . S
C161 C155 1.265 . S
C161 H156 0.950 . S
C161 C162 1.478 . S
C162 C161 1.478 . S
C162 C163 1.397 . S
C162 C179 1.394 . S
C163 C162 1.397 . S
C163 C164 1.438 . S
C163 C168 1.429 . S
C164 C163 1.438 . S
C164 C165 1.428 . S
C164 C177 1.394 . S
C165 H157 0.949 . S
C165 C164 1.428 . S
C165 C166 1.345 . S
C166 H158 0.950 . S
C166 C165 1.345 . S
C166 C167 1.424 . S
C167 H159 0.951 . S
C167 C166 1.424 . S
C167 C168 1.347 . S
C168 H160 0.951 . S
C168 C163 1.429 . S
C168 C167 1.347 . S
H169 C170 0.951 . S
C170 H169 0.951 . S
C170 C176 1.265 . S
H171 C176 0.950 . S
H172 C180 0.949 . S
H173 C181 0.950 . S
H174 C182 0.951 . S
H175 C183 0.951 . S
C176 C170 1.265 . S
C176 H171 0.950 . S
C176 C177 1.478 . S
C177 C164 1.394 . S
C177 C176 1.478 . S
C177 C178 1.397 . S
C178 C177 1.397 . S
C178 C179 1.438 . S
C178 C183 1.429 . S
C179 C162 1.394 . S
C179 C178 1.438 . S
C179 C180 1.428 . S
C180 H172 0.949 . S
C180 C179 1.428 . S
C180 C181 1.345 . S
C181 H173 0.950 . S
C181 C180 1.345 . S
C181 C182 1.424 . S
C182 H174 0.951 . S
C182 C181 1.424 . S
C182 C183 1.347 . S
C183 H175 0.951 . S
C183 C178 1.429 . S
C183 C182 1.347 . S
H184 C185 0.951 . S
C185 H184 0.951 . S
C185 C191 1.265 . S
H186 C191 0.950 . S
H187 C195 0.949 . S
H188 C196 0.950 . S
H189 C197 0.951 . S
H190 C198 0.951 . S
C191 C185 1.265 . S
C191 H186 0.950 . S
C191 C192 1.478 . S
C192 C191 1.478 . S
C192 C193 1.397 . S
C192 C209 1.394 . S
C193 C192 1.397 . S
C193 C194 1.438 . S
C193 C198 1.429 . S
C194 C193 1.438 . S
C194 C195 1.428 . S
C194 C207 1.394 . S
C195 H187 0.949 . S
C195 C194 1.428 . S
C195 C196 1.345 . S
C196 H188 0.950 . S
C196 C195 1.345 . S
C196 C197 1.424 . S
C197 H189 0.951 . S
C197 C196 1.424 . S
C197 C198 1.347 . S
C198 H190 0.951 . S
C198 C193 1.429 . S
C198 C197 1.347 . S
H199 C200 0.951 . S
C200 H199 0.951 . S
C200 C206 1.265 . S
H201 C206 0.950 . S
H202 C210 0.949 . S
H203 C211 0.950 . S
H204 C212 0.951 . S
H205 C213 0.951 . S
C206 C200 1.265 . S
C206 H201 0.950 . S
C206 C207 1.478 . S
C207 C194 1.394 . S
C207 C206 1.478 . S
C207 C208 1.397 . S
C208 C207 1.397 . S
C208 C209 1.438 . S
C208 C213 1.429 . S
C209 C192 1.394 . S
C209 C208 1.438 . S
C209 C210 1.428 . S
C210 H202 0.949 . S
C210 C209 1.428 . S
C210 C211 1.345 . S
C211 H203 0.950 . S
C211 C210 1.345 . S
C211 C212 1.424 . S
C212 H204 0.951 . S
C212 C211 1.424 . S
C212 C213 1.347 . S
C213 H205 0.951 . S
C213 C208 1.429 . S
C213 C212 1.347 . S
H214 C215 0.953 . S
C215 H214 0.953 . S
C215 C221 1.258 1_554 S
H216 C221 0.950 . S
H217 C225 0.945 1_556 S
H218 C226 0.950 . S
H219 C227 0.951 . S
H220 C228 0.951 . S
C221 C215 1.258 1_556 S
C221 H216 0.950 . S
C221 C222 1.478 . S
C222 C221 1.478 . S
C222 C223 1.397 . S
C222 C239 1.394 . S
C223 C222 1.397 . S
C223 C224 1.438 . S
C223 C228 1.429 1_556 S
C224 C223 1.438 . S
C224 C225 1.421 1_556 S
C224 C237 1.394 . S
C225 H217 0.945 1_554 S
C225 C224 1.421 1_554 S
C225 C226 1.355 . S
C226 H218 0.950 . S
C226 C225 1.355 . S
C226 C227 1.424 . S
C227 H219 0.951 . S
C227 C226 1.424 . S
C227 C228 1.347 . S
C228 H220 0.951 . S
C228 C223 1.429 1_554 S
C228 C227 1.347 . S
H229 C230 0.951 . S
C230 H229 0.951 . S
C230 C236 1.265 . S
H231 C236 0.950 . S
H232 C240 0.949 . S
H233 C241 0.950 . S
H234 C242 0.951 . S
H235 C243 0.951 . S
C236 C230 1.265 . S
C236 H231 0.950 . S
C236 C237 1.478 . S
C237 C224 1.394 . S
C237 C236 1.478 . S
C237 C238 1.397 . S
C238 C237 1.397 . S
C238 C239 1.438 . S
C238 C243 1.429 . S
C239 C222 1.394 . S
C239 C238 1.438 . S
C239 C240 1.428 . S
C240 H232 0.949 . S
C240 C239 1.428 . S
C240 C241 1.345 . S
C241 H233 0.950 . S
C241 C240 1.345 . S
C241 C242 1.424 . S
C242 H234 0.951 . S
C242 C241 1.424 . S
C242 C243 1.347 . S
C243 H235 0.951 . S
C243 C238 1.429 . S
C243 C242 1.347 . S
H244 C245 0.951 . S
C245 H244 0.951 . S
C245 C251 1.265 1_554 S
H246 C251 0.950 . S
H247 C255 0.949 . S
H248 C256 0.950 . S
H249 C257 0.951 . S
H250 C258 0.951 . S
C251 C245 1.265 1_556 S
C251 H246 0.950 . S
C251 C252 1.478 . S
C252 C251 1.478 . S
C252 C253 1.397 . S
C252 C269 1.394 . S
C253 C252 1.397 . S
C253 C254 1.438 . S
C253 C258 1.429 1_556 S
C254 C253 1.438 . S
C254 C255 1.428 . S
C254 C267 1.394 . S
C255 H247 0.949 . S
C255 C254 1.428 . S
C255 C256 1.345 1_556 S
C256 H248 0.950 . S
C256 C255 1.345 1_554 S
C256 C257 1.424 . S
C257 H249 0.951 . S
C257 C256 1.424 . S
C257 C258 1.347 . S
C258 H250 0.951 . S
C258 C253 1.429 1_554 S
C258 C257 1.347 . S
H259 C260 0.951 . S
C260 H259 0.951 . S
C260 C266 1.265 . S
H261 C266 0.950 . S
H262 C270 0.949 . S
H263 C271 0.950 . S
H264 C272 0.951 . S
H265 C273 0.951 . S
C266 C260 1.265 . S
C266 H261 0.950 . S
C266 C267 1.478 . S
C267 C254 1.394 . S
C267 C266 1.478 . S
C267 C268 1.397 . S
C268 C267 1.397 . S
C268 C269 1.438 . S
C268 C273 1.429 . S
C269 C252 1.394 . S
C269 C268 1.438 . S
C269 C270 1.428 . S
C270 H262 0.949 . S
C270 C269 1.428 . S
C270 C271 1.345 . S
C271 H263 0.950 . S
C271 C270 1.345 . S
C271 C272 1.424 . S
C272 H264 0.951 . S
C272 C271 1.424 . S
C272 C273 1.347 . S
C273 H265 0.951 . S
C273 C268 1.429 . S
C273 C272 1.347 . S
H274 C275 0.951 1_554 S
C275 H274 0.951 1_556 S
C275 C281 1.265 . S
H276 C281 0.950 . S
H277 C285 0.949 . S
H278 C286 0.950 . S
H279 C287 0.951 . S
H280 C288 0.951 1_455 S
C281 C275 1.265 . S
C281 H276 0.950 . S
C281 C282 1.478 1_455 S
C282 C281 1.478 1_655 S
C282 C283 1.397 . S
C282 C299 1.394 . S
C283 C282 1.397 . S
C283 C284 1.438 . S
C283 C288 1.429 . S
C284 C283 1.438 . S
C284 C285 1.428 . S
C284 C297 1.394 . S
C285 H277 0.949 . S
C285 C284 1.428 . S
C285 C286 1.345 . S
C286 H278 0.950 . S
C286 C285 1.345 . S
C286 C287 1.424 . S
C287 H279 0.951 . S
C287 C286 1.424 . S
C287 C288 1.347 . S
C288 H280 0.951 1_655 S
C288 C283 1.429 . S
C288 C287 1.347 . S
H289 C290 0.951 . S
C290 H289 0.951 . S
C290 C296 1.265 . S
H291 C296 0.950 . S
H292 C300 0.949 1_455 S
H293 C301 0.950 . S
H294 C302 0.951 . S
H295 C303 0.951 . S
C296 C290 1.265 . S
C296 H291 0.950 . S
C296 C297 1.478 . S
C297 C284 1.394 . S
C297 C296 1.478 . S
C297 C298 1.397 . S
C298 C297 1.397 . S
C298 C299 1.438 . S
C298 C303 1.429 . S
C299 C282 1.394 . S
C299 C298 1.438 . S
C299 C300 1.428 1_556 S
C300 H292 0.949 1_655 S
C300 C299 1.428 1_554 S
C300 C301 1.345 . S
C301 H293 0.950 . S
C301 C300 1.345 . S
C301 C302 1.424 . S
C302 H294 0.951 . S
C302 C301 1.424 . S
C302 C303 1.347 1_554 S
C303 H295 0.951 . S
C303 C298 1.429 . S
C303 C302 1.347 1_556 S
H304 C305 0.951 . S
C305 H304 0.951 . S
C305 C311 1.265 . S
H306 C311 0.950 . S
H307 C315 0.949 . S
H308 C316 0.950 . S
H309 C317 0.951 . S
H310 C318 0.951 . S
C311 C305 1.265 . S
C311 H306 0.950 . S
C311 C312 1.478 . S
C312 C311 1.478 . S
C312 C313 1.397 . S
C312 C329 1.394 . S
C313 C312 1.397 . S
C313 C314 1.438 . S
C313 C318 1.429 1_556 S
C314 C313 1.438 . S
C314 C315 1.428 . S
C314 C327 1.394 . S
C315 H307 0.949 . S
C315 C314 1.428 . S
C315 C316 1.345 1_556 S
C316 H308 0.950 . S
C316 C315 1.345 1_554 S
C316 C317 1.424 . S
C317 H309 0.951 . S
C317 C316 1.424 . S
C317 C318 1.347 . S
C318 H310 0.951 . S
C318 C313 1.429 1_554 S
C318 C317 1.347 . S
H319 C320 0.951 . S
C320 H319 0.951 . S
C320 C326 1.265 . S
H321 C326 0.950 . S
H322 C330 0.949 . S
H323 C331 0.950 . S
H324 C332 0.951 . S
H325 C333 0.951 . S
C326 C320 1.265 . S
C326 H321 0.950 . S
C326 C327 1.478 . S
C327 C314 1.394 . S
C327 C326 1.478 . S
C327 C328 1.397 . S
C328 C327 1.397 . S
C328 C329 1.438 . S
C328 C333 1.429 . S
C329 C312 1.394 . S
C329 C328 1.438 . S
C329 C330 1.428 . S
C330 H322 0.949 . S
C330 C329 1.428 . S
C330 C331 1.345 . S
C331 H323 0.950 . S
C331 C330 1.345 . S
C331 C332 1.424 . S
C332 H324 0.951 . S
C332 C331 1.424 . S
C332 C333 1.347 . S
C333 H325 0.951 . S
C333 C328 1.429 . S
C333 C332 1.347 . S
H334 C335 0.951 . S
C335 H334 0.951 . S
C335 C341 1.265 . S
H336 C341 0.950 . S
H337 C345 0.949 1_455 S
H338 C346 0.950 . S
H339 C347 0.951 . S
H340 C348 0.951 . S
C341 C335 1.265 . S
C341 H336 0.950 . S
C341 C342 1.478 . S
C342 C341 1.478 . S
C342 C343 1.397 . S
C342 C359 1.394 . S
C343 C342 1.397 . S
C343 C344 1.438 . S
C343 C348 1.429 . S
C344 C343 1.438 . S
C344 C345 1.428 . S
C344 C357 1.394 . S
C345 H337 0.949 1_655 S
C345 C344 1.428 . S
C345 C346 1.345 1_655 S
C346 H338 0.950 . S
C346 C345 1.345 1_455 S
C346 C347 1.424 1_455 S
C347 H339 0.951 . S
C347 C346 1.424 1_655 S
C347 C348 1.347 . S
C348 H340 0.951 . S
C348 C343 1.429 . S
C348 C347 1.347 . S
H349 C350 0.951 . S
C350 H349 0.951 . S
C350 C356 1.265 . S
H351 C356 0.950 . S
H352 C360 0.949 . S
H353 C361 0.950 . S
H354 C362 0.951 . S
H355 C363 0.951 . S
C356 C350 1.265 . S
C356 H351 0.950 . S
C356 C357 1.478 . S
C357 C344 1.394 . S
C357 C356 1.478 . S
C357 C358 1.397 . S
C358 C357 1.397 . S
C358 C359 1.438 . S
C358 C363 1.429 . S
C359 C342 1.394 . S
C359 C358 1.438 . S
C359 C360 1.428 . S
C360 H352 0.949 . S
C360 C359 1.428 . S
C360 C361 1.345 . S
C361 H353 0.950 . S
C361 C360 1.345 . S
C361 C362 1.424 . S
C362 H354 0.951 . S
C362 C361 1.424 . S
C362 C363 1.347 . S
C363 H355 0.951 . S
C363 C358 1.429 . S
C363 C362 1.347 . S
H364 C365 0.951 . S
C365 H364 0.951 . S
C365 C371 1.265 . S
H366 C371 0.950 . S
H367 C375 0.949 . S
H368 C376 0.950 . S
H369 C377 0.951 . S
H370 C378 0.951 . S
C371 C365 1.265 . S
C371 H366 0.950 . S
C371 C372 1.478 . S
C372 C371 1.478 . S
C372 C373 1.397 . S
C372 C389 1.394 . S
C373 C372 1.397 . S
C373 C374 1.438 . S
C373 C378 1.429 . S
C374 C373 1.438 . S
C374 C375 1.428 . S
C374 C387 1.394 . S
C375 H367 0.949 . S
C375 C374 1.428 . S
C375 C376 1.345 . S
C376 H368 0.950 . S
C376 C375 1.345 . S
C376 C377 1.424 . S
C377 H369 0.951 . S
C377 C376 1.424 . S
C377 C378 1.347 . S
C378 H370 0.951 . S
C378 C373 1.429 . S
C378 C377 1.347 . S
H379 C380 0.951 . S
C380 H379 0.951 . S
C380 C386 1.265 . S
H381 C386 0.950 . S
H382 C390 0.949 . S
H383 C391 0.950 . S
H384 C392 0.951 . S
H385 C393 0.951 . S
C386 C380 1.265 . S
C386 H381 0.950 . S
C386 C387 1.478 . S
C387 C374 1.394 . S
C387 C386 1.478 . S
C387 C388 1.397 . S
C388 C387 1.397 . S
C388 C389 1.438 . S
C388 C393 1.429 . S
C389 C372 1.394 . S
C389 C388 1.438 . S
C389 C390 1.428 . S
C390 H382 0.949 . S
C390 C389 1.428 . S
C390 C391 1.345 . S
C391 H383 0.950 . S
C391 C390 1.345 . S
C391 C392 1.424 . S
C392 H384 0.951 . S
C392 C391 1.424 . S
C392 C393 1.347 . S
C393 H385 0.951 . S
C393 C388 1.429 . S
C393 C392 1.347 . S
H394 C395 0.951 . S
C395 H394 0.951 . S
C395 C401 1.265 . S
H396 C401 0.950 . S
H397 C405 0.949 . S
H398 C406 0.950 . S
H399 C407 0.951 . S
H400 C408 0.951 . S
C401 C395 1.265 . S
C401 H396 0.950 . S
C401 C402 1.478 . S
C402 C401 1.478 . S
C402 C403 1.397 . S
C402 C419 1.394 . S
C403 C402 1.397 . S
C403 C404 1.438 . S
C403 C408 1.429 . S
C404 C403 1.438 . S
C404 C405 1.428 . S
C404 C417 1.394 . S
C405 H397 0.949 . S
C405 C404 1.428 . S
C405 C406 1.345 . S
C406 H398 0.950 . S
C406 C405 1.345 . S
C406 C407 1.424 . S
C407 H399 0.951 . S
C407 C406 1.424 . S
C407 C408 1.347 . S
C408 H400 0.951 . S
C408 C403 1.429 . S
C408 C407 1.347 . S
H409 C410 0.951 . S
C410 H409 0.951 . S
C410 C416 1.265 . S
H411 C416 0.950 . S
H412 C420 0.949 . S
H413 C421 0.950 . S
H414 C422 0.951 . S
H415 C423 0.951 . S
C416 C410 1.265 . S
C416 H411 0.950 . S
C416 C417 1.478 . S
C417 C404 1.394 . S
C417 C416 1.478 . S
C417 C418 1.397 . S
C418 C417 1.397 . S
C418 C419 1.438 . S
C418 C423 1.429 . S
C419 C402 1.394 . S
C419 C418 1.438 . S
C419 C420 1.428 . S
C420 H412 0.949 . S
C420 C419 1.428 . S
C420 C421 1.345 . S
C421 H413 0.950 . S
C421 C420 1.345 . S
C421 C422 1.424 . S
C422 H414 0.951 . S
C422 C421 1.424 . S
C422 C423 1.347 . S
C423 H415 0.951 . S
C423 C418 1.429 . S
C423 C422 1.347 . S
H424 C425 0.951 . S
C425 H424 0.951 . S
C425 C431 1.265 . S
H426 C431 0.950 . S
H427 C435 0.949 . S
H428 C436 0.950 . S
H429 C437 0.951 . S
H430 C438 0.951 . S
C431 C425 1.265 . S
C431 H426 0.950 . S
C431 C432 1.478 . S
C432 C431 1.478 . S
C432 C433 1.397 . S
C432 C449 1.394 . S
C433 C432 1.397 . S
C433 C434 1.438 . S
C433 C438 1.429 . S
C434 C433 1.438 . S
C434 C435 1.428 . S
C434 C447 1.394 . S
C435 H427 0.949 . S
C435 C434 1.428 . S
C435 C436 1.345 . S
C436 H428 0.950 . S
C436 C435 1.345 . S
C436 C437 1.424 . S
C437 H429 0.951 . S
C437 C436 1.424 . S
C437 C438 1.347 . S
C438 H430 0.951 . S
C438 C433 1.429 . S
C438 C437 1.347 . S
H439 C440 0.951 . S
C440 H439 0.951 . S
C440 C446 1.265 . S
H441 C446 0.950 . S
H442 C450 0.949 . S
H443 C451 0.950 . S
H444 C452 0.951 . S
H445 C453 0.951 . S
C446 C440 1.265 . S
C446 H441 0.950 . S
C446 C447 1.478 . S
C447 C434 1.394 . S
C447 C446 1.478 . S
C447 C448 1.397 . S
C448 C447 1.397 . S
C448 C449 1.438 . S
C448 C453 1.429 . S
C449 C432 1.394 . S
C449 C448 1.438 . S
C449 C450 1.428 . S
C450 H442 0.949 . S
C450 C449 1.428 . S
C450 C451 1.345 . S
C451 H443 0.950 . S
C451 C450 1.345 . S
C451 C452 1.424 . S
C452 H444 0.951 . S
C452 C451 1.424 . S
C452 C453 1.347 . S
C453 H445 0.951 . S
C453 C448 1.429 . S
C453 C452 1.347 . S
C110 C59 1.330 . S
C95 N2 1.519 . S
C140 C55 1.426 . S
C125 N15 1.494 . S
C170 C80 1.355 . S
C155 N28 1.517 . S
C185 N41 1.510 . S
C200 C76 1.371 . S
C215 N5 1.264 . S
C230 C77 1.187 . S
C260 C92 1.169 . S
C245 N14 1.253 . S
C275 N1 1.722 1_556 S
C290 C93 1.629 . S
C320 C89 1.543 . S
C305 N18 1.753 1_556 S
C350 C56 1.182 1_655 S
C335 N31 1.285 . S
C365 N40 1.262 . S
C380 C71 1.070 . S
C410 C72 1.628 . S
C395 N27 1.722 . S
C440 C68 1.663 . S
C425 N44 1.732 . S
