# Generated by pormake.
# Topology bpr, (3,3)-cn, num edge types: 1
# Building blocks:
#     Node 0, Type 0, BuildingBlock: WUSLED_clean_sbu_0, # of connection points: 3
#     Node 1, Type 0, BuildingBlock: WUSLED_clean_sbu_0, # of connection points: 3
#     Node 2, Type 0, BuildingBlock: WUSLED_clean_sbu_0, # of connection points: 3
#     Node 3, Type 0, BuildingBlock: WUSLED_clean_sbu_0, # of connection points: 3
#     Node 4, Type 0, BuildingBlock: WUSLED_clean_sbu_0, # of connection points: 3
#     Node 5, Type 0, BuildingBlock: WUSLED_clean_sbu_0, # of connection points: 3
#     Node 6, Type 0, BuildingBlock: WUSLED_clean_sbu_0, # of connection points: 3
#     Node 7, Type 0, BuildingBlock: WUSLED_clean_sbu_0, # of connection points: 3
#     Node 8, Type 0, BuildingBlock: WUSLED_clean_sbu_0, # of connection points: 3
#     Node 9, Type 0, BuildingBlock: WUSLED_clean_sbu_0, # of connection points: 3
#     Node 10, Type 0, BuildingBlock: WUSLED_clean_sbu_0, # of connection points: 3
#     Node 11, Type 0, BuildingBlock: WUSLED_clean_sbu_0, # of connection points: 3
#     Node 12, Type 0, BuildingBlock: WUSLED_clean_sbu_0, # of connection points: 3
#     Node 13, Type 0, BuildingBlock: WUSLED_clean_sbu_0, # of connection points: 3
#     Node 14, Type 0, BuildingBlock: WUSLED_clean_sbu_0, # of connection points: 3
#     Node 15, Type 0, BuildingBlock: WUSLED_clean_sbu_0, # of connection points: 3
#     Node 16, Type 0, BuildingBlock: WUSLED_clean_sbu_0, # of connection points: 3
#     Node 17, Type 0, BuildingBlock: WUSLED_clean_sbu_0, # of connection points: 3
#     Node 18, Type 0, BuildingBlock: WUSLED_clean_sbu_0, # of connection points: 3
#     Node 19, Type 0, BuildingBlock: WUSLED_clean_sbu_0, # of connection points: 3
#     Node 20, Type 0, BuildingBlock: WUSLED_clean_sbu_0, # of connection points: 3
#     Node 21, Type 0, BuildingBlock: WUSLED_clean_sbu_0, # of connection points: 3
#     Node 22, Type 0, BuildingBlock: WUSLED_clean_sbu_0, # of connection points: 3
#     Node 23, Type 0, BuildingBlock: WUSLED_clean_sbu_0, # of connection points: 3
#     Node 24, Type 0, BuildingBlock: WUSLED_clean_sbu_0, # of connection points: 3
#     Node 25, Type 0, BuildingBlock: WUSLED_clean_sbu_0, # of connection points: 3
#     Node 26, Type 0, BuildingBlock: WUSLED_clean_sbu_0, # of connection points: 3
#     Node 27, Type 0, BuildingBlock: WUSLED_clean_sbu_0, # of connection points: 3
#     Node 28, Type 0, BuildingBlock: WUSLED_clean_sbu_0, # of connection points: 3
#     Node 29, Type 0, BuildingBlock: WUSLED_clean_sbu_0, # of connection points: 3
#     Node 30, Type 0, BuildingBlock: WUSLED_clean_sbu_0, # of connection points: 3
#     Node 31, Type 0, BuildingBlock: WUSLED_clean_sbu_0, # of connection points: 3
#     Node 32, Type 0, BuildingBlock: WUSLED_clean_sbu_0, # of connection points: 3
#     Node 33, Type 0, BuildingBlock: WUSLED_clean_sbu_0, # of connection points: 3
#     Node 34, Type 0, BuildingBlock: WUSLED_clean_sbu_0, # of connection points: 3
#     Node 35, Type 0, BuildingBlock: WUSLED_clean_sbu_0, # of connection points: 3
#     Node 36, Type 0, BuildingBlock: WUSLED_clean_sbu_0, # of connection points: 3
#     Node 37, Type 0, BuildingBlock: WUSLED_clean_sbu_0, # of connection points: 3
#     Node 38, Type 0, BuildingBlock: WUSLED_clean_sbu_0, # of connection points: 3
#     Node 39, Type 0, BuildingBlock: WUSLED_clean_sbu_0, # of connection points: 3
#     Node 40, Type 0, BuildingBlock: WUSLED_clean_sbu_0, # of connection points: 3
#     Node 41, Type 0, BuildingBlock: WUSLED_clean_sbu_0, # of connection points: 3
#     Node 42, Type 0, BuildingBlock: WUSLED_clean_sbu_0, # of connection points: 3
#     Node 43, Type 0, BuildingBlock: WUSLED_clean_sbu_0, # of connection points: 3
#     Node 44, Type 0, BuildingBlock: WUSLED_clean_sbu_0, # of connection points: 3
#     Node 45, Type 0, BuildingBlock: WUSLED_clean_sbu_0, # of connection points: 3
#     Node 46, Type 0, BuildingBlock: WUSLED_clean_sbu_0, # of connection points: 3
#     Node 47, Type 0, BuildingBlock: WUSLED_clean_sbu_0, # of connection points: 3
#     Node 48, Type 1, BuildingBlock: BETDAH_clean_linker_0, # of connection points: 3
#     Node 49, Type 1, BuildingBlock: BETDAH_clean_linker_0, # of connection points: 3
#     Node 50, Type 1, BuildingBlock: BETDAH_clean_linker_0, # of connection points: 3
#     Node 51, Type 1, BuildingBlock: BETDAH_clean_linker_0, # of connection points: 3
#     Node 52, Type 1, BuildingBlock: BETDAH_clean_linker_0, # of connection points: 3
#     Node 53, Type 1, BuildingBlock: BETDAH_clean_linker_0, # of connection points: 3
#     Node 54, Type 1, BuildingBlock: BETDAH_clean_linker_0, # of connection points: 3
#     Node 55, Type 1, BuildingBlock: BETDAH_clean_linker_0, # of connection points: 3
#     Node 56, Type 1, BuildingBlock: BETDAH_clean_linker_0, # of connection points: 3
#     Node 57, Type 1, BuildingBlock: BETDAH_clean_linker_0, # of connection points: 3
#     Node 58, Type 1, BuildingBlock: BETDAH_clean_linker_0, # of connection points: 3
#     Node 59, Type 1, BuildingBlock: BETDAH_clean_linker_0, # of connection points: 3
#     Node 60, Type 1, BuildingBlock: BETDAH_clean_linker_0, # of connection points: 3
#     Node 61, Type 1, BuildingBlock: BETDAH_clean_linker_0, # of connection points: 3
#     Node 62, Type 1, BuildingBlock: BETDAH_clean_linker_0, # of connection points: 3
#     Node 63, Type 1, BuildingBlock: BETDAH_clean_linker_0, # of connection points: 3
#     Node 64, Type 1, BuildingBlock: BETDAH_clean_linker_0, # of connection points: 3
#     Node 65, Type 1, BuildingBlock: BETDAH_clean_linker_0, # of connection points: 3
#     Node 66, Type 1, BuildingBlock: BETDAH_clean_linker_0, # of connection points: 3
#     Node 67, Type 1, BuildingBlock: BETDAH_clean_linker_0, # of connection points: 3
#     Node 68, Type 1, BuildingBlock: BETDAH_clean_linker_0, # of connection points: 3
#     Node 69, Type 1, BuildingBlock: BETDAH_clean_linker_0, # of connection points: 3
#     Node 70, Type 1, BuildingBlock: BETDAH_clean_linker_0, # of connection points: 3
#     Node 71, Type 1, BuildingBlock: BETDAH_clean_linker_0, # of connection points: 3
#     Node 72, Type 1, BuildingBlock: BETDAH_clean_linker_0, # of connection points: 3
#     Node 73, Type 1, BuildingBlock: BETDAH_clean_linker_0, # of connection points: 3
#     Node 74, Type 1, BuildingBlock: BETDAH_clean_linker_0, # of connection points: 3
#     Node 75, Type 1, BuildingBlock: BETDAH_clean_linker_0, # of connection points: 3
#     Node 76, Type 1, BuildingBlock: BETDAH_clean_linker_0, # of connection points: 3
#     Node 77, Type 1, BuildingBlock: BETDAH_clean_linker_0, # of connection points: 3
#     Node 78, Type 1, BuildingBlock: BETDAH_clean_linker_0, # of connection points: 3
#     Node 79, Type 1, BuildingBlock: BETDAH_clean_linker_0, # of connection points: 3
#     Node 80, Type 1, BuildingBlock: BETDAH_clean_linker_0, # of connection points: 3
#     Node 81, Type 1, BuildingBlock: BETDAH_clean_linker_0, # of connection points: 3
#     Node 82, Type 1, BuildingBlock: BETDAH_clean_linker_0, # of connection points: 3
#     Node 83, Type 1, BuildingBlock: BETDAH_clean_linker_0, # of connection points: 3
#     Node 84, Type 1, BuildingBlock: BETDAH_clean_linker_0, # of connection points: 3
#     Node 85, Type 1, BuildingBlock: BETDAH_clean_linker_0, # of connection points: 3
#     Node 86, Type 1, BuildingBlock: BETDAH_clean_linker_0, # of connection points: 3
#     Node 87, Type 1, BuildingBlock: BETDAH_clean_linker_0, # of connection points: 3
#     Node 88, Type 1, BuildingBlock: BETDAH_clean_linker_0, # of connection points: 3
#     Node 89, Type 1, BuildingBlock: BETDAH_clean_linker_0, # of connection points: 3
#     Node 90, Type 1, BuildingBlock: BETDAH_clean_linker_0, # of connection points: 3
#     Node 91, Type 1, BuildingBlock: BETDAH_clean_linker_0, # of connection points: 3
#     Node 92, Type 1, BuildingBlock: BETDAH_clean_linker_0, # of connection points: 3
#     Node 93, Type 1, BuildingBlock: BETDAH_clean_linker_0, # of connection points: 3
#     Node 94, Type 1, BuildingBlock: BETDAH_clean_linker_0, # of connection points: 3
#     Node 95, Type 1, BuildingBlock: BETDAH_clean_linker_0, # of connection points: 3
#     Edge 96, Type (0, 1), BuildingBlock: OJICUG_clean_linker_0, # of connection points: 2
#     Edge 97, Type (0, 1), BuildingBlock: OJICUG_clean_linker_0, # of connection points: 2
#     Edge 98, Type (0, 1), BuildingBlock: OJICUG_clean_linker_0, # of connection points: 2
#     Edge 99, Type (0, 1), BuildingBlock: OJICUG_clean_linker_0, # of connection points: 2
#     Edge 100, Type (0, 1), BuildingBlock: OJICUG_clean_linker_0, # of connection points: 2
#     Edge 101, Type (0, 1), BuildingBlock: OJICUG_clean_linker_0, # of connection points: 2
#     Edge 102, Type (0, 1), BuildingBlock: OJICUG_clean_linker_0, # of connection points: 2
#     Edge 103, Type (0, 1), BuildingBlock: OJICUG_clean_linker_0, # of connection points: 2
#     Edge 104, Type (0, 1), BuildingBlock: OJICUG_clean_linker_0, # of connection points: 2
#     Edge 105, Type (0, 1), BuildingBlock: OJICUG_clean_linker_0, # of connection points: 2
#     Edge 106, Type (0, 1), BuildingBlock: OJICUG_clean_linker_0, # of connection points: 2
#     Edge 107, Type (0, 1), BuildingBlock: OJICUG_clean_linker_0, # of connection points: 2
#     Edge 108, Type (0, 1), BuildingBlock: OJICUG_clean_linker_0, # of connection points: 2
#     Edge 109, Type (0, 1), BuildingBlock: OJICUG_clean_linker_0, # of connection points: 2
#     Edge 110, Type (0, 1), BuildingBlock: OJICUG_clean_linker_0, # of connection points: 2
#     Edge 111, Type (0, 1), BuildingBlock: OJICUG_clean_linker_0, # of connection points: 2
#     Edge 112, Type (0, 1), BuildingBlock: OJICUG_clean_linker_0, # of connection points: 2
#     Edge 113, Type (0, 1), BuildingBlock: OJICUG_clean_linker_0, # of connection points: 2
#     Edge 114, Type (0, 1), BuildingBlock: OJICUG_clean_linker_0, # of connection points: 2
#     Edge 115, Type (0, 1), BuildingBlock: OJICUG_clean_linker_0, # of connection points: 2
#     Edge 116, Type (0, 1), BuildingBlock: OJICUG_clean_linker_0, # of connection points: 2
#     Edge 117, Type (0, 1), BuildingBlock: OJICUG_clean_linker_0, # of connection points: 2
#     Edge 118, Type (0, 1), BuildingBlock: OJICUG_clean_linker_0, # of connection points: 2
#     Edge 119, Type (0, 1), BuildingBlock: OJICUG_clean_linker_0, # of connection points: 2
#     Edge 120, Type (0, 1), BuildingBlock: OJICUG_clean_linker_0, # of connection points: 2
#     Edge 121, Type (0, 1), BuildingBlock: OJICUG_clean_linker_0, # of connection points: 2
#     Edge 122, Type (0, 1), BuildingBlock: OJICUG_clean_linker_0, # of connection points: 2
#     Edge 123, Type (0, 1), BuildingBlock: OJICUG_clean_linker_0, # of connection points: 2
#     Edge 124, Type (0, 1), BuildingBlock: OJICUG_clean_linker_0, # of connection points: 2
#     Edge 125, Type (0, 1), BuildingBlock: OJICUG_clean_linker_0, # of connection points: 2
#     Edge 126, Type (0, 1), BuildingBlock: OJICUG_clean_linker_0, # of connection points: 2
#     Edge 127, Type (0, 1), BuildingBlock: OJICUG_clean_linker_0, # of connection points: 2
#     Edge 128, Type (0, 1), BuildingBlock: OJICUG_clean_linker_0, # of connection points: 2
#     Edge 129, Type (0, 1), BuildingBlock: OJICUG_clean_linker_0, # of connection points: 2
#     Edge 130, Type (0, 1), BuildingBlock: OJICUG_clean_linker_0, # of connection points: 2
#     Edge 131, Type (0, 1), BuildingBlock: OJICUG_clean_linker_0, # of connection points: 2
#     Edge 132, Type (0, 1), BuildingBlock: OJICUG_clean_linker_0, # of connection points: 2
#     Edge 133, Type (0, 1), BuildingBlock: OJICUG_clean_linker_0, # of connection points: 2
#     Edge 134, Type (0, 1), BuildingBlock: OJICUG_clean_linker_0, # of connection points: 2
#     Edge 135, Type (0, 1), BuildingBlock: OJICUG_clean_linker_0, # of connection points: 2
#     Edge 136, Type (0, 1), BuildingBlock: OJICUG_clean_linker_0, # of connection points: 2
#     Edge 137, Type (0, 1), BuildingBlock: OJICUG_clean_linker_0, # of connection points: 2
#     Edge 138, Type (0, 1), BuildingBlock: OJICUG_clean_linker_0, # of connection points: 2
#     Edge 139, Type (0, 1), BuildingBlock: OJICUG_clean_linker_0, # of connection points: 2
#     Edge 140, Type (0, 1), BuildingBlock: OJICUG_clean_linker_0, # of connection points: 2
#     Edge 141, Type (0, 1), BuildingBlock: OJICUG_clean_linker_0, # of connection points: 2
#     Edge 142, Type (0, 1), BuildingBlock: OJICUG_clean_linker_0, # of connection points: 2
#     Edge 143, Type (0, 1), BuildingBlock: OJICUG_clean_linker_0, # of connection points: 2
#     Edge 144, Type (0, 1), BuildingBlock: OJICUG_clean_linker_0, # of connection points: 2
#     Edge 145, Type (0, 1), BuildingBlock: OJICUG_clean_linker_0, # of connection points: 2
#     Edge 146, Type (0, 1), BuildingBlock: OJICUG_clean_linker_0, # of connection points: 2
#     Edge 147, Type (0, 1), BuildingBlock: OJICUG_clean_linker_0, # of connection points: 2
#     Edge 148, Type (0, 1), BuildingBlock: OJICUG_clean_linker_0, # of connection points: 2
#     Edge 149, Type (0, 1), BuildingBlock: OJICUG_clean_linker_0, # of connection points: 2
#     Edge 150, Type (0, 1), BuildingBlock: OJICUG_clean_linker_0, # of connection points: 2
#     Edge 151, Type (0, 1), BuildingBlock: OJICUG_clean_linker_0, # of connection points: 2
#     Edge 152, Type (0, 1), BuildingBlock: OJICUG_clean_linker_0, # of connection points: 2
#     Edge 153, Type (0, 1), BuildingBlock: OJICUG_clean_linker_0, # of connection points: 2
#     Edge 154, Type (0, 1), BuildingBlock: OJICUG_clean_linker_0, # of connection points: 2
#     Edge 155, Type (0, 1), BuildingBlock: OJICUG_clean_linker_0, # of connection points: 2
#     Edge 156, Type (0, 1), BuildingBlock: OJICUG_clean_linker_0, # of connection points: 2
#     Edge 157, Type (0, 1), BuildingBlock: OJICUG_clean_linker_0, # of connection points: 2
#     Edge 158, Type (0, 1), BuildingBlock: OJICUG_clean_linker_0, # of connection points: 2
#     Edge 159, Type (0, 1), BuildingBlock: OJICUG_clean_linker_0, # of connection points: 2
#     Edge 160, Type (0, 1), BuildingBlock: OJICUG_clean_linker_0, # of connection points: 2
#     Edge 161, Type (0, 1), BuildingBlock: OJICUG_clean_linker_0, # of connection points: 2
#     Edge 162, Type (0, 1), BuildingBlock: OJICUG_clean_linker_0, # of connection points: 2
#     Edge 163, Type (0, 1), BuildingBlock: OJICUG_clean_linker_0, # of connection points: 2
#     Edge 164, Type (0, 1), BuildingBlock: OJICUG_clean_linker_0, # of connection points: 2
#     Edge 165, Type (0, 1), BuildingBlock: OJICUG_clean_linker_0, # of connection points: 2
#     Edge 166, Type (0, 1), BuildingBlock: OJICUG_clean_linker_0, # of connection points: 2
#     Edge 167, Type (0, 1), BuildingBlock: OJICUG_clean_linker_0, # of connection points: 2
#     Edge 168, Type (0, 1), BuildingBlock: OJICUG_clean_linker_0, # of connection points: 2
#     Edge 169, Type (0, 1), BuildingBlock: OJICUG_clean_linker_0, # of connection points: 2
#     Edge 170, Type (0, 1), BuildingBlock: OJICUG_clean_linker_0, # of connection points: 2
#     Edge 171, Type (0, 1), BuildingBlock: OJICUG_clean_linker_0, # of connection points: 2
#     Edge 172, Type (0, 1), BuildingBlock: OJICUG_clean_linker_0, # of connection points: 2
#     Edge 173, Type (0, 1), BuildingBlock: OJICUG_clean_linker_0, # of connection points: 2
#     Edge 174, Type (0, 1), BuildingBlock: OJICUG_clean_linker_0, # of connection points: 2
#     Edge 175, Type (0, 1), BuildingBlock: OJICUG_clean_linker_0, # of connection points: 2
#     Edge 176, Type (0, 1), BuildingBlock: OJICUG_clean_linker_0, # of connection points: 2
#     Edge 177, Type (0, 1), BuildingBlock: OJICUG_clean_linker_0, # of connection points: 2
#     Edge 178, Type (0, 1), BuildingBlock: OJICUG_clean_linker_0, # of connection points: 2
#     Edge 179, Type (0, 1), BuildingBlock: OJICUG_clean_linker_0, # of connection points: 2
#     Edge 180, Type (0, 1), BuildingBlock: OJICUG_clean_linker_0, # of connection points: 2
#     Edge 181, Type (0, 1), BuildingBlock: OJICUG_clean_linker_0, # of connection points: 2
#     Edge 182, Type (0, 1), BuildingBlock: OJICUG_clean_linker_0, # of connection points: 2
#     Edge 183, Type (0, 1), BuildingBlock: OJICUG_clean_linker_0, # of connection points: 2
#     Edge 184, Type (0, 1), BuildingBlock: OJICUG_clean_linker_0, # of connection points: 2
#     Edge 185, Type (0, 1), BuildingBlock: OJICUG_clean_linker_0, # of connection points: 2
#     Edge 186, Type (0, 1), BuildingBlock: OJICUG_clean_linker_0, # of connection points: 2
#     Edge 187, Type (0, 1), BuildingBlock: OJICUG_clean_linker_0, # of connection points: 2
#     Edge 188, Type (0, 1), BuildingBlock: OJICUG_clean_linker_0, # of connection points: 2
#     Edge 189, Type (0, 1), BuildingBlock: OJICUG_clean_linker_0, # of connection points: 2
#     Edge 190, Type (0, 1), BuildingBlock: OJICUG_clean_linker_0, # of connection points: 2
#     Edge 191, Type (0, 1), BuildingBlock: OJICUG_clean_linker_0, # of connection points: 2
#     Edge 192, Type (0, 1), BuildingBlock: OJICUG_clean_linker_0, # of connection points: 2
#     Edge 193, Type (0, 1), BuildingBlock: OJICUG_clean_linker_0, # of connection points: 2
#     Edge 194, Type (0, 1), BuildingBlock: OJICUG_clean_linker_0, # of connection points: 2
#     Edge 195, Type (0, 1), BuildingBlock: OJICUG_clean_linker_0, # of connection points: 2
#     Edge 196, Type (0, 1), BuildingBlock: OJICUG_clean_linker_0, # of connection points: 2
#     Edge 197, Type (0, 1), BuildingBlock: OJICUG_clean_linker_0, # of connection points: 2
#     Edge 198, Type (0, 1), BuildingBlock: OJICUG_clean_linker_0, # of connection points: 2
#     Edge 199, Type (0, 1), BuildingBlock: OJICUG_clean_linker_0, # of connection points: 2
#     Edge 200, Type (0, 1), BuildingBlock: OJICUG_clean_linker_0, # of connection points: 2
#     Edge 201, Type (0, 1), BuildingBlock: OJICUG_clean_linker_0, # of connection points: 2
#     Edge 202, Type (0, 1), BuildingBlock: OJICUG_clean_linker_0, # of connection points: 2
#     Edge 203, Type (0, 1), BuildingBlock: OJICUG_clean_linker_0, # of connection points: 2
#     Edge 204, Type (0, 1), BuildingBlock: OJICUG_clean_linker_0, # of connection points: 2
#     Edge 205, Type (0, 1), BuildingBlock: OJICUG_clean_linker_0, # of connection points: 2
#     Edge 206, Type (0, 1), BuildingBlock: OJICUG_clean_linker_0, # of connection points: 2
#     Edge 207, Type (0, 1), BuildingBlock: OJICUG_clean_linker_0, # of connection points: 2
#     Edge 208, Type (0, 1), BuildingBlock: OJICUG_clean_linker_0, # of connection points: 2
#     Edge 209, Type (0, 1), BuildingBlock: OJICUG_clean_linker_0, # of connection points: 2
#     Edge 210, Type (0, 1), BuildingBlock: OJICUG_clean_linker_0, # of connection points: 2
#     Edge 211, Type (0, 1), BuildingBlock: OJICUG_clean_linker_0, # of connection points: 2
#     Edge 212, Type (0, 1), BuildingBlock: OJICUG_clean_linker_0, # of connection points: 2
#     Edge 213, Type (0, 1), BuildingBlock: OJICUG_clean_linker_0, # of connection points: 2
#     Edge 214, Type (0, 1), BuildingBlock: OJICUG_clean_linker_0, # of connection points: 2
#     Edge 215, Type (0, 1), BuildingBlock: OJICUG_clean_linker_0, # of connection points: 2
#     Edge 216, Type (0, 1), BuildingBlock: OJICUG_clean_linker_0, # of connection points: 2
#     Edge 217, Type (0, 1), BuildingBlock: OJICUG_clean_linker_0, # of connection points: 2
#     Edge 218, Type (0, 1), BuildingBlock: OJICUG_clean_linker_0, # of connection points: 2
#     Edge 219, Type (0, 1), BuildingBlock: OJICUG_clean_linker_0, # of connection points: 2
#     Edge 220, Type (0, 1), BuildingBlock: OJICUG_clean_linker_0, # of connection points: 2
#     Edge 221, Type (0, 1), BuildingBlock: OJICUG_clean_linker_0, # of connection points: 2
#     Edge 222, Type (0, 1), BuildingBlock: OJICUG_clean_linker_0, # of connection points: 2
#     Edge 223, Type (0, 1), BuildingBlock: OJICUG_clean_linker_0, # of connection points: 2
#     Edge 224, Type (0, 1), BuildingBlock: OJICUG_clean_linker_0, # of connection points: 2
#     Edge 225, Type (0, 1), BuildingBlock: OJICUG_clean_linker_0, # of connection points: 2
#     Edge 226, Type (0, 1), BuildingBlock: OJICUG_clean_linker_0, # of connection points: 2
#     Edge 227, Type (0, 1), BuildingBlock: OJICUG_clean_linker_0, # of connection points: 2
#     Edge 228, Type (0, 1), BuildingBlock: OJICUG_clean_linker_0, # of connection points: 2
#     Edge 229, Type (0, 1), BuildingBlock: OJICUG_clean_linker_0, # of connection points: 2
#     Edge 230, Type (0, 1), BuildingBlock: OJICUG_clean_linker_0, # of connection points: 2
#     Edge 231, Type (0, 1), BuildingBlock: OJICUG_clean_linker_0, # of connection points: 2
#     Edge 232, Type (0, 1), BuildingBlock: OJICUG_clean_linker_0, # of connection points: 2
#     Edge 233, Type (0, 1), BuildingBlock: OJICUG_clean_linker_0, # of connection points: 2
#     Edge 234, Type (0, 1), BuildingBlock: OJICUG_clean_linker_0, # of connection points: 2
#     Edge 235, Type (0, 1), BuildingBlock: OJICUG_clean_linker_0, # of connection points: 2
#     Edge 236, Type (0, 1), BuildingBlock: OJICUG_clean_linker_0, # of connection points: 2
#     Edge 237, Type (0, 1), BuildingBlock: OJICUG_clean_linker_0, # of connection points: 2
#     Edge 238, Type (0, 1), BuildingBlock: OJICUG_clean_linker_0, # of connection points: 2
#     Edge 239, Type (0, 1), BuildingBlock: OJICUG_clean_linker_0, # of connection points: 2
# Relax obj value: 0.036
# Max RMSD: 0.114
# Mean RMSD: 0.053
data_MOF--net-bpr--node1-WUSLED_clean_sbu_0--node2-BETDAH_clean_linker_0--edge1-OJICUG_clean_linker_0
_symmetry_space_group_name_H-M    P1
_symmetry_Int_Tables_number       1
_symmetry_cell_setting            triclinic
loop_
_symmetry_equiv_pos_as_xyz
'x, y, z'
_cell_length_a     83.123406
_cell_length_b     75.314646
_cell_length_c     81.656991
_cell_angle_alpha  91.539124
_cell_angle_beta   87.827812
_cell_angle_gamma 112.95822
loop_
_atom_site_label
_atom_site_type_symbol
_atom_site_fract_x
_atom_site_fract_y
_atom_site_fract_z
_atom_type_partial_charge
C0 C 0.02629 0.39919 0.32378 0.0
C1 C 0.02891 0.41098 0.33786 0.0
C2 C 0.99746 0.40243 0.3411 0.0
C3 C 0.0146 0.41265 0.34642 0.0
C4 C 0.99503 0.39088 0.32684 0.0
C5 C 0.0093 0.38929 0.31828 0.0
U6 U 0.07433 0.40487 0.31879 0.0
O7 O 0.08487 0.38385 0.30945 0.0
O8 O 0.0914 0.41114 0.29656 0.0
C9 C 0.0928 0.39435 0.29671 0.0
C10 C 0.04094 0.3966 0.3148 0.0
C11 C 0.09113 0.38405 0.28091 0.0
C12 C 0.07446 0.35973 0.26109 0.0
C13 C 0.0751 0.37036 0.27561 0.0
C14 C 0.10572 0.3768 0.25695 0.0
C15 C 0.08986 0.36258 0.25179 0.0
C16 C 0.10633 0.38737 0.27135 0.0
C17 C 0.10869 0.42952 0.34994 0.0
C18 C 0.13799 0.43024 0.34512 0.0
C19 C 0.13161 0.44634 0.36906 0.0
C20 C 0.11426 0.44049 0.3643 0.0
C21 C 0.14371 0.4413 0.35952 0.0
C22 C 0.12066 0.42443 0.34038 0.0
C23 C 0.09049 0.42348 0.34487 0.0
O24 O 0.05343 0.41235 0.30917 0.0
O25 O 0.04686 0.38471 0.32142 0.0
O26 O 0.08149 0.40474 0.34445 0.0
O27 O 0.08837 0.43221 0.3319 0.0
H28 H 0.04197 0.4187 0.3423 0.0
H29 H 0.01692 0.42152 0.35743 0.0
H30 H 0.98205 0.38305 0.32226 0.0
H31 H 1.00704 0.38018 0.30741 0.0
H32 H 0.06205 0.34889 0.25741 0.0
H33 H 0.0632 0.36763 0.28285 0.0
H34 H 0.11775 0.37966 0.24989 0.0
H35 H 0.1188 0.39794 0.27521 0.0
H36 H 0.14698 0.42634 0.33735 0.0
H37 H 0.13551 0.45467 0.38029 0.0
H38 H 0.10518 0.44452 0.37184 0.0
H39 H 0.11661 0.41603 0.32919 0.0
C40 C 0.82926 0.6881 0.53913 0.0
C41 C 0.83347 0.69005 0.55575 0.0
C42 C 0.8286 0.65599 0.55664 0.0
C43 C 0.83313 0.67412 0.56444 0.0
C44 C 0.82451 0.65423 0.53994 0.0
C45 C 0.82484 0.67014 0.53128 0.0
U46 U 0.83579 0.74091 0.53701 0.0
O47 O 0.84839 0.76225 0.51772 0.0
O48 O 0.82073 0.75466 0.52459 0.0
C49 C 0.83373 0.76398 0.51436 0.0
C50 C 0.82931 0.70461 0.5299 0.0
C51 C 0.82952 0.76261 0.49685 0.0
C52 C 0.81316 0.74501 0.47339 0.0
C53 C 0.81741 0.7456 0.48991 0.0
C54 C 0.83341 0.77823 0.4705 0.0
C55 C 0.821 0.76139 0.4635 0.0
C56 C 0.83757 0.77882 0.48699 0.0
C57 C 0.8491 0.772 0.57641 0.0
C58 C 0.86458 0.80676 0.57911 0.0
C59 C 0.84787 0.78831 0.60225 0.0
C60 C 0.84316 0.7714 0.59277 0.0
C61 C 0.85872 0.80618 0.59556 0.0
C62 C 0.85975 0.78984 0.56959 0.0
C63 C 0.84441 0.75378 0.56697 0.0
O64 O 0.81706 0.71087 0.53433 0.0
O65 O 0.84473 0.71858 0.52755 0.0
O66 O 0.85578 0.75312 0.55557 0.0
O67 O 0.82813 0.74572 0.56236 0.0
H68 H 0.83696 0.70387 0.56199 0.0
H69 H 0.83647 0.67602 0.57723 0.0
H70 H 0.82065 0.64043 0.53361 0.0
H71 H 0.82149 0.66838 0.51848 0.0
H72 H 0.80344 0.73186 0.46849 0.0
H73 H 0.81108 0.73286 0.49729 0.0
H74 H 0.83997 0.791 0.46323 0.0
H75 H 0.84703 0.79204 0.49208 0.0
H76 H 0.87274 0.82034 0.57354 0.0
H77 H 0.84325 0.78735 0.61491 0.0
H78 H 0.83498 0.75779 0.59828 0.0
H79 H 0.86442 0.7907 0.55695 0.0
C80 C 0.48892 0.65349 0.76969 0.0
C81 C 0.4711 0.6502 0.76929 0.0
C82 C 0.4744 0.65983 0.74058 0.0
C83 C 0.46392 0.65335 0.75491 0.0
C84 C 0.49222 0.66284 0.74105 0.0
C85 C 0.49938 0.65972 0.75544 0.0
U86 U 0.48394 0.63885 0.81444 0.0
O87 O 0.49561 0.62252 0.82841 0.0
O88 O 0.50006 0.65226 0.83581 0.0
C89 C 0.50348 0.63697 0.83851 0.0
C90 C 0.49673 0.65084 0.78494 0.0
C91 C 0.52159 0.64026 0.84289 0.0
C92 C 0.55019 0.63947 0.83648 0.0
C93 C 0.53385 0.63838 0.83141 0.0
C94 C 0.54243 0.64491 0.86447 0.0
C95 C 0.5546 0.64236 0.85317 0.0
C96 C 0.52617 0.64387 0.85938 0.0
C97 C 0.43628 0.62128 0.83233 0.0
C98 C 0.42663 0.61258 0.86055 0.0
C99 C 0.40547 0.61049 0.84022 0.0
C100 C 0.4189 0.61688 0.82826 0.0
C101 C 0.40913 0.60836 0.85656 0.0
C102 C 0.44009 0.61899 0.84853 0.0
C103 C 0.45004 0.62856 0.81943 0.0
O104 O 0.49663 0.66255 0.79713 0.0
O105 O 0.49211 0.6329 0.78959 0.0
O106 O 0.45716 0.61663 0.81402 0.0
O107 O 0.46147 0.64632 0.82135 0.0
H108 H 0.46277 0.64533 0.78016 0.0
H109 H 0.45013 0.65064 0.75502 0.0
H110 H 0.5008 0.66811 0.7304 0.0
H111 H 0.51316 0.66239 0.75549 0.0
H112 H 0.55928 0.63778 0.82734 0.0
H113 H 0.53066 0.63563 0.8186 0.0
H114 H 0.54511 0.64689 0.87741 0.0
H115 H 0.51689 0.64527 0.86848 0.0
H116 H 0.42992 0.61091 0.87296 0.0
H117 H 0.39227 0.60772 0.8367 0.0
H118 H 0.41572 0.61862 0.81582 0.0
H119 H 0.45345 0.62228 0.85189 0.0
C120 C 0.68303 0.32389 0.02729 0.0
C121 C 0.67734 0.31805 0.04339 0.0
C122 C 0.68311 0.35131 0.05162 0.0
C123 C 0.67735 0.33163 0.05545 0.0
C124 C 0.68828 0.35693 0.0353 0.0
C125 C 0.68825 0.34334 0.02327 0.0
U126 U 0.6807 0.2738 0.01537 0.0
O127 O 0.67107 0.25613 0.99317 0.0
O128 O 0.69847 0.26493 0.99976 0.0
C129 C 0.68661 0.25661 0.98876 0.0
C130 C 0.68456 0.31009 0.01486 0.0
C131 C 0.69227 0.26201 0.97168 0.0
C132 C 0.70078 0.28536 0.94973 0.0
C133 C 0.6952 0.28046 0.966 0.0
C134 C 0.70058 0.25343 0.94472 0.0
C135 C 0.70353 0.27188 0.93887 0.0
C136 C 0.69501 0.24856 0.96096 0.0
C137 C 0.66765 0.23571 0.0494 0.0
C138 C 0.67187 0.20547 0.04894 0.0
C139 C 0.65325 0.21154 0.06999 0.0
C140 C 0.6566 0.22951 0.06326 0.0
C141 C 0.66097 0.19933 0.06305 0.0
C142 C 0.67519 0.22353 0.04216 0.0
C143 C 0.67125 0.25505 0.04306 0.0
O144 O 0.69757 0.30464 0.01682 0.0
O145 O 0.66991 0.2957 0.01118 0.0
O146 O 0.66 0.25618 0.03268 0.0
O147 O 0.6876 0.26549 0.03886 0.0
H148 H 0.67325 0.30305 0.04671 0.0
H149 H 0.67309 0.32676 0.06783 0.0
H150 H 0.69306 0.37196 0.03192 0.0
H151 H 0.69275 0.34811 0.01091 0.0
H152 H 0.70269 0.29961 0.9456 0.0
H153 H 0.69314 0.29104 0.97414 0.0
H154 H 0.70278 0.24278 0.93679 0.0
H155 H 0.6929 0.23428 0.96518 0.0
H156 H 0.67805 0.19646 0.0433 0.0
H157 H 0.64443 0.20714 0.08058 0.0
H158 H 0.65057 0.23865 0.06894 0.0
H159 H 0.68373 0.22805 0.03139 0.0
C160 C 0.13717 0.75806 0.17536 0.0
C161 C 0.12931 0.74246 0.1646 0.0
C162 C 0.10394 0.75094 0.16278 0.0
C163 C 0.11286 0.73889 0.15844 0.0
C164 C 0.11243 0.76726 0.17277 0.0
C165 C 0.12886 0.77074 0.17904 0.0
U166 U 0.1776 0.74667 0.17779 0.0
O167 O 0.20388 0.76371 0.18695 0.0
O168 O 0.18772 0.73592 0.19804 0.0
C169 C 0.20242 0.75123 0.19843 0.0
C170 C 0.15322 0.76017 0.18375 0.0
C171 C 0.20809 0.759 0.21485 0.0
C172 C 0.20211 0.76929 0.24206 0.0
C173 C 0.19753 0.76492 0.22564 0.0
C174 C 0.22809 0.76259 0.23672 0.0
C175 C 0.21715 0.76754 0.24783 0.0
C176 C 0.22361 0.75841 0.22036 0.0
C177 C 0.1865 0.71547 0.14362 0.0
C178 C 0.19864 0.69089 0.14514 0.0
C179 C 0.19793 0.70508 0.11905 0.0
C180 C 0.19034 0.71682 0.12674 0.0
C181 C 0.20179 0.69164 0.12808 0.0
C182 C 0.19114 0.70278 0.15287 0.0
C183 C 0.1766 0.72638 0.15098 0.0
O184 O 0.15294 0.74421 0.19013 0.0
O185 O 0.16808 0.77011 0.176 0.0
O186 O 0.18485 0.74524 0.15166 0.0
O187 O 0.16724 0.71913 0.16432 0.0
H188 H 0.13555 0.73253 0.16155 0.0
H189 H 0.10678 0.72603 0.151 0.0
H190 H 0.10615 0.77704 0.17622 0.0
H191 H 0.1348 0.78296 0.18721 0.0
H192 H 0.19343 0.773 0.25042 0.0
H193 H 0.18545 0.76536 0.22156 0.0
H194 H 0.23983 0.76131 0.24083 0.0
H195 H 0.2319 0.75387 0.21218 0.0
H196 H 0.20155 0.68078 0.15244 0.0
H197 H 0.19989 0.70583 0.10586 0.0
H198 H 0.18687 0.72648 0.11938 0.0
H199 H 0.18847 0.7016 0.16597 0.0
C200 C 0.62651 0.66865 0.5323 0.0
C201 C 0.6187 0.65729 0.51862 0.0
C202 C 0.64614 0.65433 0.51071 0.0
C203 C 0.62839 0.6501 0.50797 0.0
C204 C 0.65372 0.66518 0.52475 0.0
C205 C 0.64398 0.67227 0.53544 0.0
U206 U 0.59095 0.68805 0.53581 0.0
O207 O 0.57363 0.69028 0.55611 0.0
O208 O 0.59191 0.71652 0.54405 0.0
C209 C 0.57992 0.70923 0.55568 0.0
C210 C 0.61721 0.67852 0.54219 0.0
C211 C 0.5829 0.71967 0.5715 0.0
C212 C 0.59322 0.72514 0.59941 0.0
C213 C 0.59169 0.71547 0.58424 0.0
C214 C 0.57751 0.74343 0.58902 0.0
C215 C 0.58588 0.73903 0.60204 0.0
C216 C 0.57605 0.73385 0.57396 0.0
C217 C 0.56246 0.68217 0.49904 0.0
C218 C 0.54972 0.70502 0.49233 0.0
C219 C 0.54179 0.67491 0.47712 0.0
C220 C 0.55269 0.66961 0.48682 0.0
C221 C 0.54067 0.69302 0.47934 0.0
C222 C 0.5604 0.69959 0.50213 0.0
C223 C 0.57582 0.67786 0.50751 0.0
O224 O 0.61923 0.69548 0.53662 0.0
O225 O 0.60093 0.66799 0.54666 0.0
O226 O 0.57047 0.66712 0.52062 0.0
O227 O 0.59067 0.69268 0.50947 0.0
H228 H 0.6053 0.65457 0.51583 0.0
H229 H 0.62222 0.64202 0.49718 0.0
H230 H 0.6673 0.66854 0.52728 0.0
H231 H 0.65027 0.68112 0.54587 0.0
H232 H 0.59968 0.72138 0.60921 0.0
H233 H 0.59709 0.70455 0.58254 0.0
H234 H 0.57201 0.75428 0.5905 0.0
H235 H 0.56929 0.73734 0.56424 0.0
H236 H 0.54946 0.71916 0.49438 0.0
H237 H 0.53474 0.66509 0.46751 0.0
H238 H 0.55397 0.656 0.48437 0.0
H239 H 0.56774 0.70946 0.51161 0.0
C240 C 0.39582 0.26392 0.65279 0.0
C241 C 0.40346 0.26643 0.63697 0.0
C242 C 0.42836 0.26062 0.64665 0.0
C243 C 0.41952 0.26482 0.63392 0.0
C244 C 0.42037 0.25747 0.66246 0.0
C245 C 0.40427 0.25918 0.66552 0.0
U246 U 0.35692 0.26797 0.67888 0.0
O247 O 0.35133 0.24655 0.69848 0.0
O248 O 0.36836 0.27681 0.70308 0.0
C249 C 0.3596 0.25975 0.70945 0.0
C250 C 0.37956 0.26731 0.65561 0.0
C251 C 0.3499 0.25939 0.72515 0.0
C252 C 0.33663 0.24286 0.75045 0.0
C253 C 0.34516 0.24327 0.73526 0.0
C254 C 0.33729 0.27472 0.74571 0.0
C255 C 0.33272 0.25865 0.75595 0.0
C256 C 0.34571 0.27506 0.73044 0.0
C257 C 0.32546 0.28488 0.65689 0.0
C258 C 0.31334 0.30607 0.64494 0.0
C259 C 0.32501 0.28729 0.62732 0.0
C260 C 0.32905 0.27934 0.64109 0.0
C261 C 0.31749 0.30109 0.6291 0.0
C262 C 0.31722 0.29795 0.65872 0.0
C263 C 0.33123 0.27825 0.67155 0.0
O264 O 0.36524 0.25228 0.65933 0.0
O265 O 0.38099 0.28285 0.66417 0.0
O266 O 0.32982 0.26023 0.67135 0.0
O267 O 0.34614 0.2903 0.67732 0.0
H268 H 0.39713 0.27003 0.62695 0.0
H269 H 0.4251 0.26706 0.62157 0.0
H270 H 0.42685 0.25436 0.6726 0.0
H271 H 0.39861 0.25721 0.67785 0.0
H272 H 0.33352 0.23035 0.75809 0.0
H273 H 0.34826 0.23104 0.7315 0.0
H274 H 0.33432 0.28703 0.74948 0.0
H275 H 0.34907 0.28766 0.72287 0.0
H276 H 0.30742 0.31653 0.64668 0.0
H277 H 0.32857 0.28333 0.61529 0.0
H278 H 0.33547 0.26934 0.63939 0.0
H279 H 0.31427 0.30233 0.67083 0.0
C280 C 0.93324 0.27859 0.04324 0.0
C281 C 0.94315 0.26746 0.03979 0.0
C282 C 0.93742 0.25482 0.06765 0.0
C283 C 0.94523 0.25568 0.05189 0.0
C284 C 0.92778 0.26633 0.07104 0.0
C285 C 0.92573 0.27805 0.05897 0.0
U286 U 0.94027 0.30242 1.00059 0.0
O287 O 0.92055 0.30411 0.98426 0.0
O288 O 0.94019 0.33074 0.99436 0.0
C289 C 0.92618 0.32298 0.98553 0.0
C290 C 0.92989 0.29027 0.0306 0.0
C291 C 0.91273 0.33118 0.98758 0.0
C292 C 0.8833 0.32829 0.99551 0.0
C293 C 0.89674 0.32145 0.99598 0.0
C294 C 0.902 0.3551 0.97895 0.0
C295 C 0.88561 0.34495 0.98662 0.0
C296 C 0.91538 0.34828 0.97944 0.0
C297 C 0.97196 0.29835 0.96753 0.0
C298 C 0.97538 0.31509 0.94173 0.0
C299 C 0.9872 0.29058 0.94421 0.0
C300 C 0.98113 0.28774 0.96055 0.0
C301 C 0.98422 0.30413 0.93449 0.0
C302 C 0.96926 0.31218 0.95806 0.0
C303 C 0.96437 0.29412 0.98431 0.0
O304 O 0.94257 0.30699 0.02734 0.0
O305 O 0.92219 0.28088 0.01741 0.0
O306 O 0.94782 0.28236 0.98515 0.0
O307 O 0.96801 0.30906 0.99432 0.0
H308 H 0.94909 0.26771 0.02771 0.0
H309 H 0.9529 0.2472 0.04887 0.0
H310 H 0.92133 0.26585 0.08289 0.0
H311 H 0.91796 0.28647 0.06185 0.0
H312 H 0.87094 0.32024 1.00174 0.0
H313 H 0.89442 0.30824 1.0024 0.0
H314 H 0.90425 0.36777 0.97177 0.0
H315 H 0.92758 0.35594 0.9728 0.0
H316 H 0.97296 0.32574 0.9347 0.0
H317 H 0.99364 0.2816 0.93902 0.0
H318 H 0.98321 0.27689 0.96762 0.0
H319 H 0.96214 0.32048 0.96321 0.0
C320 C 0.22013 0.0439 0.40131 0.0
C321 C 0.22369 0.05697 0.3884 0.0
C322 C 0.19948 0.06583 0.39762 0.0
C323 C 0.21344 0.06775 0.38653 0.0
C324 C 0.19604 0.05278 0.4106 0.0
C325 C 0.20625 0.04192 0.4124 0.0
U326 U 0.26264 0.03719 0.39287 0.0
O327 O 0.27938 0.02905 0.40875 0.0
O328 O 0.26844 0.01148 0.38684 0.0
C329 C 0.27803 0.01379 0.39978 0.0
C330 C 0.23104 0.03266 0.40348 0.0
C331 C 0.27702 0.99626 0.40833 0.0
C332 C 0.27365 0.9778 0.43319 0.0
C333 C 0.27154 0.99278 0.42484 0.0
C334 C 0.28611 0.96918 0.40851 0.0
C335 C 0.28141 0.9661 0.42524 0.0
C336 C 0.28392 0.98404 0.40019 0.0
C337 C 0.29764 0.07549 0.36655 0.0
C338 C 0.32861 0.08155 0.36587 0.0
C339 C 0.31751 0.09827 0.34724 0.0
C340 C 0.30061 0.08848 0.35373 0.0
C341 C 0.3318 0.09532 0.35351 0.0
C342 C 0.31166 0.07171 0.37232 0.0
C343 C 0.28011 0.06703 0.37442 0.0
O344 O 0.2341 0.02402 0.39021 0.0
O345 O 0.24505 0.04129 0.41215 0.0
O346 O 0.27968 0.06781 0.39052 0.0
O347 O 0.26952 0.05037 0.36844 0.0
H348 H 0.23447 0.0589 0.37979 0.0
H349 H 0.21665 0.07785 0.37655 0.0
H350 H 0.18532 0.05079 0.41929 0.0
H351 H 0.20331 0.03197 0.42248 0.0
H352 H 0.26957 0.97568 0.44599 0.0
H353 H 0.26618 1.00199 0.43144 0.0
H354 H 0.29233 0.96075 0.40197 0.0
H355 H 0.28844 0.98657 0.38751 0.0
H356 H 0.33929 0.07906 0.37113 0.0
H357 H 0.31945 0.10854 0.33757 0.0
H358 H 0.28991 0.09148 0.34905 0.0
H359 H 0.30961 0.06166 0.3822 0.0
C360 C 0.2941 0.0774 0.66083 0.0
C361 C 0.27687 0.07383 0.66619 0.0
C362 C 0.26716 0.04088 0.65549 0.0
C363 C 0.26354 0.0557 0.66361 0.0
C364 C 0.28448 0.04463 0.65015 0.0
C365 C 0.29779 0.06268 0.65284 0.0
U366 U 0.31128 0.1324 0.66331 0.0
O367 O 0.33135 0.15272 0.67918 0.0
O368 O 0.33484 0.15438 0.65239 0.0
C369 C 0.34184 0.16073 0.66664 0.0
C370 C 0.30832 0.09643 0.66308 0.0
C371 C 0.36001 0.1627 0.66765 0.0
C372 C 0.38247 0.15041 0.66096 0.0
C373 C 0.36482 0.1473 0.66315 0.0
C374 C 0.39058 0.18394 0.66903 0.0
C375 C 0.39548 0.16893 0.66333 0.0
C376 C 0.37295 0.18084 0.67111 0.0
C377 C 0.28313 0.16008 0.65727 0.0
C378 C 0.29685 0.19506 0.65841 0.0
C379 C 0.26655 0.17919 0.65091 0.0
C380 C 0.26754 0.16121 0.65258 0.0
C381 C 0.28117 0.19632 0.6539 0.0
C382 C 0.29782 0.1771 0.66005 0.0
C383 C 0.28433 0.14126 0.6587 0.0
O384 O 0.31284 0.10729 0.65001 0.0
O385 O 0.30742 0.10597 0.67659 0.0
O386 O 0.28844 0.1375 0.67324 0.0
O387 O 0.29321 0.13707 0.64664 0.0
H388 H 0.27371 0.08504 0.67232 0.0
H389 H 0.25042 0.05328 0.66805 0.0
H390 H 0.28773 0.03373 0.64358 0.0
H391 H 0.31098 0.06523 0.64851 0.0
H392 H 0.38591 0.13857 0.65669 0.0
H393 H 0.35494 0.13317 0.66045 0.0
H394 H 0.40031 0.19841 0.67076 0.0
H395 H 0.36941 0.19288 0.67453 0.0
H396 H 0.30837 0.20797 0.66067 0.0
H397 H 0.25421 0.17966 0.64768 0.0
H398 H 0.25612 0.1482 0.6503 0.0
H399 H 0.31005 0.17646 0.66349 0.0
C400 C 0.26096 0.01939 0.89511 0.0
C401 C 0.24572 0.01632 0.88657 0.0
C402 C 0.2444 0.04595 0.89826 0.0
C403 C 0.23759 0.02948 0.88805 0.0
C404 C 0.25986 0.0491 0.90657 0.0
C405 C 0.26804 0.03597 0.90499 0.0
U406 U 0.25525 0.96735 0.89008 0.0
O407 O 0.26995 0.95302 0.87585 0.0
O408 O 0.26637 0.94935 0.90253 0.0
C409 C 0.27316 0.9452 0.88888 0.0
C410 C 0.26893 0.0049 0.89444 0.0
C411 C 0.29058 0.94441 0.88958 0.0
C412 C 0.32055 0.95625 0.89874 0.0
C413 C 0.3045 0.95831 0.89789 0.0
C414 C 0.30884 0.92647 0.88304 0.0
C415 C 0.32291 0.94027 0.89131 0.0
C416 C 0.29292 0.92855 0.88218 0.0
C417 C 0.20792 0.9316 0.88252 0.0
C418 C 0.19053 0.89823 0.88987 0.0
C419 C 0.18465 0.91128 0.86506 0.0
C420 C 0.19807 0.929 0.86844 0.0
C421 C 0.18064 0.8957 0.87575 0.0
C422 C 0.20411 0.91602 0.8932 0.0
C423 C 0.22139 0.95094 0.886 0.0
O424 O 0.26442 0.99272 0.90665 0.0
O425 O 0.26881 0.99647 0.8801 0.0
O426 O 0.23276 0.95873 0.87399 0.0
O427 O 0.22847 0.95393 0.90048 0.0
H428 H 0.23991 1.00358 0.87892 0.0
H429 H 0.22588 0.02664 0.88127 0.0
H430 H 0.26537 0.06138 0.91476 0.0
H431 H 0.2797 0.03855 0.9118 0.0
H432 H 0.33115 0.96727 0.90507 0.0
H433 H 0.30295 0.97065 0.90373 0.0
H434 H 0.30999 0.91381 0.87742 0.0
H435 H 0.28229 0.91756 0.87584 0.0
H436 H 0.18778 0.88648 0.8983 0.0
H437 H 0.17707 0.90996 0.85426 0.0
H438 H 0.2006 0.94083 0.86012 0.0
H439 H 0.21147 0.9176 0.9042 0.0
C440 C 0.17301 0.85413 0.13842 0.0
C441 C 0.16658 0.8368 0.14714 0.0
C442 C 0.13702 0.83046 0.13865 0.0
C443 C 0.14869 0.82508 0.14732 0.0
C444 C 0.14356 0.84801 0.13018 0.0
C445 C 0.16137 0.85972 0.13008 0.0
U446 U 0.22053 0.86125 0.14364 0.0
O447 O 0.24349 0.87507 0.12732 0.0
O448 O 0.24303 0.88642 0.15231 0.0
C449 C 0.2514 0.88878 0.13804 0.0
C450 C 0.19182 0.86617 0.13733 0.0
C451 C 0.25888 0.90864 0.13182 0.0
C452 C 0.25755 0.93441 0.11524 0.0
C453 C 0.24981 0.91552 0.12116 0.0
C454 C 0.28335 0.93967 0.13071 0.0
C455 C 0.27441 0.94673 0.12001 0.0
C456 C 0.27566 0.92085 0.13653 0.0
C457 C 0.23063 0.81968 0.15999 0.0
C458 C 0.25998 0.82271 0.16619 0.0
C459 C 0.2365 0.79111 0.16475 0.0
C460 C 0.2248 0.79962 0.16124 0.0
C461 C 0.25427 0.80252 0.1671 0.0
C462 C 0.24827 0.83121 0.16261 0.0
C463 C 0.21829 0.82818 0.15534 0.0
O464 O 0.19976 0.87122 0.15136 0.0
O465 O 0.20075 0.86056 0.12621 0.0
O466 O 0.21813 0.83132 0.13961 0.0
O467 O 0.21788 0.84253 0.16465 0.0
H468 H 0.17542 0.8322 0.15357 0.0
H469 H 0.14407 0.81157 0.15383 0.0
H470 H 0.13488 0.85268 0.12356 0.0
H471 H 0.16611 0.87304 0.12329 0.0
H472 H 0.25027 0.93944 0.10712 0.0
H473 H 0.2368 0.90631 0.1174 0.0
H474 H 0.29645 0.94862 0.13442 0.0
H475 H 0.2829 0.91577 0.14468 0.0
H476 H 0.27362 0.83192 0.16764 0.0
H477 H 0.23165 0.77555 0.16542 0.0
H478 H 0.21124 0.79049 0.15923 0.0
H479 H 0.25303 0.84675 0.16157 0.0
C480 C 0.32812 0.1866 0.019 0.0
C481 C 0.33331 0.18739 0.03524 0.0
C482 C 0.32681 0.15284 0.03434 0.0
C483 C 0.33266 0.17065 0.04286 0.0
C484 C 0.32176 0.15227 0.018 0.0
C485 C 0.32241 0.16898 0.01043 0.0
U486 U 0.33552 0.24005 0.01933 0.0
O487 O 0.34705 0.26201 1.00038 0.0
O488 O 0.31977 0.25432 0.00869 0.0
C489 C 0.33229 0.26408 0.9982 0.0
C490 C 0.32821 0.20388 0.0109 0.0
C491 C 0.32709 0.26371 0.98107 0.0
C492 C 0.32493 0.25143 0.953 0.0
C493 C 0.3293 0.2508 0.96934 0.0
C494 C 0.31568 0.2775 0.96007 0.0
C495 C 0.31824 0.26495 0.94811 0.0
C496 C 0.32009 0.27689 0.97633 0.0
C497 C 0.35091 0.27001 0.05899 0.0
C498 C 0.36558 0.30487 0.06187 0.0
C499 C 0.35142 0.28564 0.08553 0.0
C500 C 0.34641 0.26894 0.07575 0.0
C501 C 0.36116 0.30385 0.07876 0.0
C502 C 0.36047 0.28813 0.05208 0.0
C503 C 0.34576 0.25201 0.04916 0.0
O504 O 0.31638 0.21025 0.01648 0.0
O505 O 0.34367 0.21773 0.00837 0.0
O506 O 0.35652 0.25167 0.03704 0.0
O507 O 0.32923 0.24406 0.04529 0.0
H508 H 0.33777 0.20091 0.04205 0.0
H509 H 0.33679 0.17167 0.05539 0.0
H510 H 0.31689 0.13879 0.01115 0.0
H511 H 0.31827 0.16809 0.9979 0.0
H512 H 0.32718 0.24163 0.94413 0.0
H513 H 0.33462 0.24043 0.97275 0.0
H514 H 0.31023 0.28782 0.95687 0.0
H515 H 0.31816 0.28688 0.98522 0.0
H516 H 0.3732 0.31858 0.05624 0.0
H517 H 0.34745 0.28427 0.09837 0.0
H518 H 0.33898 0.25511 0.08132 0.0
H519 H 0.36408 0.28933 0.03914 0.0
C520 C 0.90177 0.75464 0.19044 0.0
C521 C 0.90614 0.7617 0.17444 0.0
C522 C 0.93217 0.75403 0.1739 0.0
C523 C 0.92117 0.76137 0.16625 0.0
C524 C 0.92727 0.7463 0.18971 0.0
C525 C 0.91225 0.74662 0.19786 0.0
U526 U 0.86249 0.76933 0.19412 0.0
O527 O 0.83721 0.75608 0.2075 0.0
O528 O 0.85502 0.78559 0.21366 0.0
C529 C 0.84017 0.77121 0.21717 0.0
C530 C 0.88705 0.75664 0.19991 0.0
C531 C 0.8358 0.76739 0.23472 0.0
C532 C 0.83993 0.75557 0.261 0.0
C533 C 0.84435 0.75875 0.24427 0.0
C534 C 0.81845 0.76967 0.25873 0.0
C535 C 0.82694 0.76103 0.26845 0.0
C536 C 0.82284 0.77279 0.24206 0.0
C537 C 0.84955 0.78956 0.15606 0.0
C538 C 0.83959 0.81553 0.15187 0.0
C539 C 0.83379 0.78985 0.13166 0.0
C540 C 0.84207 0.78105 0.14126 0.0
C541 C 0.83285 0.80749 0.13661 0.0
C542 C 0.84784 0.80664 0.16153 0.0
C543 C 0.86029 0.78125 0.1647 0.0
O544 O 0.88863 0.77447 0.20291 0.0
O545 O 0.87127 0.74528 0.19547 0.0
O546 O 0.85244 0.76314 0.1691 0.0
O547 O 0.87083 0.79225 0.1758 0.0
H548 H 0.89816 0.76788 0.16846 0.0
H549 H 0.92432 0.76717 0.15401 0.0
H550 H 0.93545 0.74076 0.19615 0.0
H551 H 0.90913 0.74112 0.21021 0.0
H552 H 0.84689 0.74909 0.26814 0.0
H553 H 0.85445 0.75456 0.23882 0.0
H554 H 0.80824 0.77382 0.26397 0.0
H555 H 0.81608 0.77946 0.23486 0.0
H556 H 0.83896 0.82899 0.15612 0.0
H557 H 0.82904 0.78335 0.11989 0.0
H558 H 0.84326 0.76793 0.13675 0.0
H559 H 0.85336 0.81349 0.17297 0.0
C560 C 0.18394 0.82068 0.53101 0.0
C561 C 0.17764 0.81482 0.54699 0.0
C562 C 0.18415 0.8482 0.55528 0.0
C563 C 0.17771 0.82845 0.55901 0.0
C564 C 0.18999 0.85387 0.53909 0.0
C565 C 0.18989 0.84022 0.52709 0.0
U566 U 0.1815 0.77047 0.51988 0.0
O567 O 0.17105 0.7519 0.49833 0.0
O568 O 0.19875 0.76107 0.50401 0.0
C569 C 0.18645 0.75225 0.49351 0.0
C570 C 0.18527 0.80669 0.51866 0.0
C571 C 0.19135 0.75685 0.47617 0.0
C572 C 0.1987 0.77903 0.45338 0.0
C573 C 0.19414 0.77504 0.46997 0.0
C574 C 0.19785 0.74672 0.44911 0.0
C575 C 0.20053 0.76486 0.44272 0.0
C576 C 0.1933 0.74277 0.46566 0.0
C577 C 0.16925 0.73388 0.55527 0.0
C578 C 0.17382 0.70393 0.55662 0.0
C579 C 0.1546 0.71076 0.57656 0.0
C580 C 0.15791 0.72827 0.56899 0.0
C581 C 0.16267 0.69843 0.57063 0.0
C582 C 0.1771 0.72154 0.549 0.0
C583 C 0.17287 0.75288 0.54816 0.0
O584 O 0.19838 0.80136 0.52047 0.0
O585 O 0.17056 0.79217 0.5154 0.0
O586 O 0.16131 0.75365 0.53796 0.0
O587 O 0.18912 0.76296 0.54338 0.0
H588 H 0.173 0.79975 0.55024 0.0
H589 H 0.17293 0.82355 0.57127 0.0
H590 H 0.1953 0.86895 0.53582 0.0
H591 H 0.19488 0.845 0.51484 0.0
H592 H 0.20046 0.79307 0.44885 0.0
H593 H 0.19268 0.78609 0.47794 0.0
H594 H 0.1994 0.73558 0.44133 0.0
H595 H 0.19129 0.72868 0.47027 0.0
H596 H 0.18025 0.6948 0.55173 0.0
H597 H 0.14559 0.70682 0.58704 0.0
H598 H 0.15164 0.73754 0.57394 0.0
H599 H 0.18587 0.7256 0.53835 0.0
C600 C 0.98517 0.61901 0.73385 0.0
C601 C 0.96852 0.61969 0.73498 0.0
C602 C 0.97242 0.62879 0.76392 0.0
C603 C 0.96222 0.62457 0.74985 0.0
C604 C 0.98905 0.6279 0.7627 0.0
C605 C 0.99535 0.62307 0.74781 0.0
U606 U 0.97772 0.60362 0.68945 0.0
O607 O 0.99422 0.61335 0.66713 0.0
O608 O 0.98494 0.58303 0.67428 0.0
C609 C 0.99471 0.59635 0.664 0.0
C610 C 0.99193 0.61416 0.71814 0.0
C611 C 0.01201 0.5962 0.65934 0.0
C612 C 0.04305 0.60547 0.66383 0.0
C613 C 0.02662 0.60502 0.66913 0.0
C614 C 0.03034 0.58804 0.63908 0.0
C615 C 0.04517 0.5971 0.64865 0.0
C616 C 0.01399 0.5876 0.64439 0.0
C617 C 0.93102 0.59571 0.6755 0.0
C618 C 0.91508 0.57782 0.652 0.0
C619 C 0.90315 0.59684 0.66904 0.0
C620 C 0.91776 0.60251 0.67885 0.0
C621 C 0.90147 0.58422 0.6556 0.0
C622 C 0.92974 0.58353 0.66187 0.0
C623 C 0.94531 0.60067 0.6871 0.0
O624 O 0.98441 0.59604 0.7134 0.0
O625 O 0.994 0.62634 0.70624 0.0
O626 O 0.95894 0.61679 0.68446 0.0
O627 O 0.94948 0.58646 0.6917 0.0
H628 H 0.96042 0.61651 0.72433 0.0
H629 H 0.9493 0.62491 0.75036 0.0
H630 H 0.99738 0.63134 0.77319 0.0
H631 H 1.00824 0.62264 0.74717 0.0
H632 H 0.05409 0.61239 0.67162 0.0
H633 H 0.02536 0.61172 0.68075 0.0
H634 H 0.03143 0.58173 0.62723 0.0
H635 H 1.00289 0.58081 0.63661 0.0
H636 H 0.91432 0.56828 0.64164 0.0
H637 H 0.89287 0.60183 0.67238 0.0
H638 H 0.91848 0.61185 0.68937 0.0
H639 H 0.93989 0.57816 0.65906 0.0
C640 C 0.23 0.34408 0.46769 0.0
C641 C 0.22229 0.33868 0.45237 0.0
C642 C 0.22989 0.37248 0.44579 0.0
C643 C 0.22224 0.35276 0.44151 0.0
C644 C 0.23743 0.37771 0.46126 0.0
C645 C 0.23748 0.36365 0.47208 0.0
U646 U 0.21994 0.29176 0.47845 0.0
O647 O 0.23601 0.27916 0.49091 0.0
O648 O 0.21057 0.27635 0.50165 0.0
C649 C 0.22504 0.27359 0.50357 0.0
C650 C 0.23058 0.32952 0.47907 0.0
C651 C 0.23274 0.27882 0.51988 0.0
C652 C 0.24605 0.30258 0.54131 0.0
C653 C 0.2398 0.29807 0.52538 0.0
C654 C 0.23863 0.2687 0.54626 0.0
C655 C 0.24532 0.28791 0.55206 0.0
C656 C 0.23241 0.26423 0.53035 0.0
C657 C 0.19539 0.25291 0.44582 0.0
C658 C 0.19398 0.22024 0.44146 0.0
C659 C 0.17341 0.23035 0.42828 0.0
C660 C 0.18112 0.24859 0.43562 0.0
C661 C 0.17983 0.21596 0.43094 0.0
C662 C 0.20168 0.23853 0.44884 0.0
C663 C 0.20383 0.27274 0.45241 0.0
O664 O 0.2154 0.31794 0.48528 0.0
O665 O 0.24065 0.32045 0.47427 0.0
O666 O 0.2209 0.27962 0.4538 0.0
O667 O 0.19571 0.27739 0.46487 0.0
H668 H 0.21642 0.3236 0.44879 0.0
H669 H 0.21619 0.34819 0.42978 0.0
H670 H 0.24371 0.39274 0.46487 0.0
H671 H 0.24354 0.36807 0.48383 0.0
H672 H 0.25133 0.31755 0.54524 0.0
H673 H 0.24022 0.30956 0.51745 0.0
H674 H 0.23762 0.257 0.55419 0.0
H675 H 0.22697 0.24928 0.52633 0.0
H676 H 0.19941 0.20962 0.44368 0.0
H677 H 0.16238 0.22753 0.42051 0.0
H678 H 0.17605 0.25948 0.43315 0.0
H679 H 0.2127 0.24152 0.45667 0.0
C680 C 0.49896 0.37577 0.20861 0.0
C681 C 0.502 0.3813 0.19214 0.0
C682 C 0.4717 0.37774 0.19007 0.0
C683 C 0.4885 0.38225 0.18294 0.0
C684 C 0.46871 0.37197 0.20656 0.0
C685 C 0.48223 0.371 0.21573 0.0
U686 U 0.54695 0.38579 0.21266 0.0
O687 O 0.56473 0.39787 0.23314 0.0
O688 O 0.56029 0.36894 0.22325 0.0
C689 C 0.56785 0.38216 0.23446 0.0
C690 C 0.51326 0.37535 0.21846 0.0
C691 C 0.56827 0.37543 0.25119 0.0
C692 C 0.56012 0.34984 0.27125 0.0
C693 C 0.55736 0.3568 0.25632 0.0
C694 C 0.58409 0.38032 0.27646 0.0
C695 C 0.57381 0.36136 0.28129 0.0
C696 C 0.58135 0.38724 0.26156 0.0
C697 C 0.57875 0.40685 0.17729 0.0
C698 C 0.60871 0.40953 0.17904 0.0
C699 C 0.60006 0.42249 0.15565 0.0
C700 C 0.58301 0.41641 0.16229 0.0
C701 C 0.61312 0.41909 0.16394 0.0
C702 C 0.59171 0.40351 0.18567 0.0
C703 C 0.56082 0.40025 0.18417 0.0
O704 O 0.52033 0.36331 0.21318 0.0
O705 O 0.5249 0.39237 0.22264 0.0
O706 O 0.55847 0.41077 0.19641 0.0
O707 O 0.55332 0.38163 0.18685 0.0
H708 H 0.51487 0.38502 0.18643 0.0
H709 H 0.49124 0.38654 0.17025 0.0
H710 H 0.45605 0.3687 0.21253 0.0
H711 H 0.47968 0.36678 0.22845 0.0
H712 H 0.55181 0.33527 0.27474 0.0
H713 H 0.54712 0.34739 0.24858 0.0
H714 H 0.59487 0.38952 0.28376 0.0
H715 H 0.59 0.40159 0.2578 0.0
H716 H 0.61835 0.40644 0.18566 0.0
H717 H 0.60304 0.43007 0.14413 0.0
H718 H 0.57316 0.41917 0.15571 0.0
H719 H 0.58863 0.39613 0.19729 0.0
C720 C 0.34565 0.69767 0.99156 0.0
C721 C 0.35522 0.70054 0.97663 0.0
C722 C 0.34171 0.66609 0.97022 0.0
C723 C 0.35331 0.6849 0.9661 0.0
C724 C 0.33189 0.66342 0.98506 0.0
C725 C 0.33389 0.67905 0.99562 0.0
U726 U 0.35777 0.75129 1.00111 0.0
O727 O 0.34633 0.76578 0.01892 0.0
O728 O 0.3737 0.76938 0.02092 0.0
C729 C 0.36056 0.77288 0.02754 0.0
C730 C 0.34809 0.71378 1.00319 0.0
C731 C 0.35807 0.77078 0.04545 0.0
C732 C 0.34359 0.75251 0.06967 0.0
C733 C 0.34671 0.75348 0.05264 0.0
C734 C 0.3636 0.78586 0.07246 0.0
C735 C 0.35174 0.76884 0.07974 0.0
C736 C 0.3667 0.78681 0.0555 0.0
C737 C 0.37133 0.78736 0.96538 0.0
C738 C 0.36598 0.8154 0.95695 0.0
C739 C 0.39409 0.8137 0.95099 0.0
C740 C 0.38831 0.79575 0.9585 0.0
C741 C 0.38299 0.82373 0.95004 0.0
C742 C 0.3602 0.79741 0.96456 0.0
C743 C 0.36522 0.7677 0.97227 0.0
O744 O 0.3643 0.72613 1.00488 0.0
O745 O 0.33691 0.72214 1.00231 0.0
O746 O 0.3493 0.76048 0.97878 0.0
O747 O 0.3766 0.76388 0.98074 0.0
H748 H 0.36435 0.71482 0.97322 0.0
H749 H 0.36125 0.68753 0.95491 0.0
H750 H 0.32261 0.64925 0.98854 0.0
H751 H 0.32631 0.67656 0.00704 0.0
H752 H 0.33429 0.73923 0.07485 0.0
H753 H 0.33996 0.74091 0.04508 0.0
H754 H 0.37033 0.79859 0.07986 0.0
H755 H 0.3756 0.80024 0.05019 0.0
H756 H 0.35713 0.82278 0.95648 0.0
H757 H 0.40714 0.81948 0.9455 0.0
H758 H 0.39708 0.78824 0.95866 0.0
H759 H 0.34697 0.79132 0.96961 0.0
C760 C 0.88226 0.25811 0.87277 0.0
C761 C 0.88833 0.26048 0.88881 0.0
C762 C 0.91144 0.2494 0.88031 0.0
C763 C 0.90272 0.25612 0.89257 0.0
C764 C 0.90474 0.24643 0.86441 0.0
C765 C 0.89039 0.25073 0.86064 0.0
U766 U 0.85115 0.26611 0.8426 0.0
O767 O 0.84567 0.24202 0.82488 0.0
O768 O 0.86682 0.26997 0.81968 0.0
C769 C 0.85724 0.25271 0.81402 0.0
C770 C 0.86823 0.26451 0.8687 0.0
C771 C 0.85092 0.2522 0.79732 0.0
C772 C 0.85235 0.24437 0.76838 0.0
C773 C 0.85754 0.24412 0.78444 0.0
C774 C 0.83368 0.26068 0.77787 0.0
C775 C 0.84051 0.25286 0.76481 0.0
C776 C 0.83884 0.26034 0.79397 0.0
C777 C 0.82205 0.29251 0.85757 0.0
C778 C 0.81117 0.31733 0.86531 0.0
C779 C 0.81769 0.29917 0.88628 0.0
C780 C 0.8227 0.28869 0.87419 0.0
C781 C 0.81207 0.31378 0.882 0.0
C782 C 0.81606 0.30671 0.85321 0.0
C783 C 0.82845 0.28259 0.84472 0.0
O784 O 0.8532 0.25094 0.86469 0.0
O785 O 0.87307 0.27954 0.85911 0.0
O786 O 0.82412 0.26399 0.84662 0.0
O787 O 0.84488 0.29171 0.84006 0.0
H788 H 0.88216 0.26608 0.89839 0.0
H789 H 0.90703 0.25821 0.90507 0.0
H790 H 0.91095 0.24142 0.85465 0.0
H791 H 0.88594 0.24879 0.84816 0.0
H792 H 0.85765 0.23789 0.75874 0.0
H793 H 0.8669 0.23781 0.78674 0.0
H794 H 0.8247 0.26752 0.77562 0.0
H795 H 0.83362 0.26672 0.80377 0.0
H796 H 0.80686 0.32843 0.86163 0.0
H797 H 0.81886 0.29631 0.89902 0.0
H798 H 0.82745 0.27793 0.87783 0.0
H799 H 0.81551 0.30987 0.84042 0.0
C800 C 0.40272 0.29061 0.48871 0.0
C801 C 0.4101 0.30421 0.50124 0.0
C802 C 0.38325 0.3101 0.50444 0.0
C803 C 0.40049 0.31395 0.50897 0.0
C804 C 0.37603 0.29663 0.49175 0.0
C805 C 0.38568 0.28703 0.48395 0.0
U806 U 0.4351 0.26573 0.48972 0.0
O807 O 0.43286 0.23744 0.47993 0.0
O808 O 0.45409 0.26367 0.47089 0.0
C809 C 0.44591 0.24487 0.46927 0.0
C810 C 0.41223 0.27953 0.48079 0.0
C811 C 0.44301 0.23707 0.45232 0.0
C812 C 0.42378 0.21835 0.43087 0.0
C813 C 0.42612 0.22727 0.44637 0.0
C814 C 0.45514 0.2295 0.42674 0.0
C815 C 0.43825 0.2191 0.42093 0.0
C816 C 0.45747 0.23831 0.44227 0.0
C817 C 0.45757 0.26693 0.53071 0.0
C818 C 0.46693 0.24301 0.54202 0.0
C819 C 0.47358 0.27373 0.55595 0.0
C820 C 0.46555 0.27954 0.54363 0.0
C821 C 0.47376 0.25512 0.55564 0.0
C822 C 0.45885 0.24885 0.52965 0.0
C823 C 0.44636 0.27211 0.51981 0.0
O824 O 0.42921 0.28871 0.47851 0.0
O825 O 0.4078 0.26192 0.48616 0.0
O826 O 0.43171 0.258 0.51569 0.0
O827 O 0.45416 0.28373 0.50765 0.0
H828 H 0.42318 0.30711 0.50522 0.0
H829 H 0.40636 0.32406 0.51883 0.0
H830 H 0.36287 0.29345 0.48786 0.0
H831 H 0.37974 0.2766 0.47431 0.0
H832 H 0.41057 0.21032 0.42694 0.0
H833 H 0.41471 0.22607 0.45385 0.0
H834 H 0.46661 0.2307 0.41935 0.0
H835 H 0.47062 0.24581 0.44658 0.0
H836 H 0.46675 0.22855 0.54147 0.0
H837 H 0.4789 0.28346 0.56619 0.0
H838 H 0.46477 0.29356 0.54466 0.0
H839 H 0.45283 0.23889 0.51974 0.0
C840 C 0.64458 0.77486 0.33602 0.0
C841 C 0.62831 0.75934 0.33458 0.0
C842 C 0.61316 0.77858 0.347 0.0
C843 C 0.61286 0.76117 0.34 0.0
C844 C 0.6295 0.7939 0.34897 0.0
C845 C 0.645 0.79208 0.34348 0.0
U846 U 0.68383 0.75904 0.33401 0.0
O847 O 0.69364 0.74639 0.31346 0.0
O848 O 0.71058 0.77442 0.32373 0.0
C849 C 0.70853 0.7614 0.31207 0.0
C850 C 0.6607 0.77384 0.32826 0.0
C851 C 0.71407 0.76855 0.29525 0.0
C852 C 0.70723 0.77069 0.26683 0.0
C853 C 0.70179 0.76654 0.28323 0.0
C854 C 0.73736 0.7801 0.27437 0.0
C855 C 0.72505 0.77706 0.26214 0.0
C856 C 0.7319 0.77581 0.29075 0.0
C857 C 0.68972 0.72902 0.36935 0.0
C858 C 0.69943 0.70236 0.36928 0.0
C859 C 0.69754 0.71872 0.39476 0.0
C860 C 0.69201 0.73113 0.38631 0.0
C861 C 0.70091 0.70384 0.38644 0.0
C862 C 0.69393 0.71486 0.36081 0.0
C863 C 0.68126 0.74036 0.36133 0.0
O864 O 0.6756 0.78364 0.33535 0.0
O865 O 0.65956 0.75684 0.32271 0.0
O866 O 0.67232 0.7325 0.34824 0.0
O867 O 0.69036 0.759 0.35999 0.0
H868 H 0.62739 0.74591 0.32875 0.0
H869 H 0.60059 0.74914 0.33798 0.0
H870 H 0.63032 0.80745 0.35449 0.0
H871 H 0.65728 0.80437 0.34468 0.0
H872 H 0.69744 0.76843 0.25774 0.0
H873 H 0.68795 0.76108 0.2864 0.0
H874 H 0.75115 0.78482 0.27117 0.0
H875 H 0.74158 0.77742 0.29981 0.0
H876 H 0.70213 0.69126 0.36245 0.0
H877 H 0.69825 0.72019 0.40796 0.0
H878 H 0.68879 0.74189 0.39316 0.0
H879 H 0.69239 0.713 0.34769 0.0
C880 C 0.10192 0.71281 0.9608 0.0
C881 C 0.09137 0.72341 0.96301 0.0
C882 C 0.09817 0.73495 0.93498 0.0
C883 C 0.08952 0.73439 0.95024 0.0
C884 C 0.10885 0.72438 0.93288 0.0
C885 C 0.11069 0.71339 0.9457 0.0
U886 U 0.08993 0.69465 1.00402 0.0
O887 O 0.0855 0.66657 0.01489 0.0
O888 O 0.10617 0.69301 0.02404 0.0
C889 C 0.09881 0.67409 0.0246 0.0
C890 C 0.10387 0.70134 0.97429 0.0
C891 C 0.1109 0.66411 0.02497 0.0
C892 C 0.13824 0.66132 0.01667 0.0
C893 C 0.12596 0.66955 0.01473 0.0
C894 C 0.12011 0.64147 0.0385 0.0
C895 C 0.13564 0.64748 0.02883 0.0
C896 C 0.10789 0.64973 0.03658 0.0
C897 C 0.05801 0.71157 0.02851 0.0
C898 C 0.05571 0.71216 0.05824 0.0
C899 C 0.03742 0.72308 0.04229 0.0
C900 C 0.04482 0.71875 0.02785 0.0
C901 C 0.04314 0.72039 0.05768 0.0
C902 C 0.06306 0.70777 0.04378 0.0
C903 C 0.06755 0.71003 0.01334 0.0
O904 O 0.11149 0.71144 0.98722 0.0
O905 O 0.08987 0.68597 0.97805 0.0
O906 O 0.06278 0.69282 0.00648 0.0
O907 O 0.08459 0.71932 0.01367 0.0
H908 H 0.08457 0.7232 0.97464 0.0
H909 H 0.08141 0.74256 0.95237 0.0
H910 H 0.11552 0.72431 0.92125 0.0
H911 H 0.1189 0.70529 0.94381 0.0
H912 H 0.14998 0.66613 0.00892 0.0
H913 H 0.12846 0.68057 1.0056 0.0
H914 H 0.11776 0.63109 0.04815 0.0
H915 H 0.09636 0.64537 0.04461 0.0
H916 H 0.06064 0.71011 0.06982 0.0
H917 H 0.02762 0.72914 0.04141 0.0
H918 H 0.04074 0.72172 0.01614 0.0
H919 H 0.07325 0.70226 0.04453 0.0
C920 C 0.80099 0.9649 0.62827 0.0
C921 C 0.79616 0.9454 0.6238 0.0
C922 C 0.82432 0.94628 0.63207 0.0
C923 C 0.80772 0.93627 0.62555 0.0
C924 C 0.82917 0.96588 0.63648 0.0
C925 C 0.81761 0.97509 0.63458 0.0
U926 U 0.7545 0.95973 0.63336 0.0
O927 O 0.74208 0.97874 0.64391 0.0
O928 O 0.73717 0.96806 0.61853 0.0
C929 C 0.73452 0.97913 0.63014 0.0
C930 C 0.78829 0.97412 0.62743 0.0
C931 C 0.73533 0.99803 0.62488 0.0
C932 C 0.74819 0.0267 0.60817 0.0
C933 C 0.74904 0.01008 0.61474 0.0
C934 C 0.72033 0.01976 0.62237 0.0
C935 C 0.7336 0.03151 0.61159 0.0
C936 C 0.72121 1.00322 0.62892 0.0
C937 C 0.72303 0.90937 0.64733 0.0
C938 C 0.69133 0.89725 0.64703 0.0
C939 C 0.70547 0.88037 0.66214 0.0
C940 C 0.7218 0.89396 0.65722 0.0
C941 C 0.69005 0.88194 0.65721 0.0
C942 C 0.70772 0.91093 0.64218 0.0
C943 C 0.74042 0.92367 0.64274 0.0
O944 O 0.77681 0.96751 0.61581 0.0
O945 O 0.78125 0.97637 0.64162 0.0
O946 O 0.74696 0.93828 0.65299 0.0
O947 O 0.7429 0.92878 0.62729 0.0
H948 H 0.78333 0.93711 0.61909 0.0
H949 H 0.8036 0.92131 0.62173 0.0
H950 H 0.84174 0.974 0.64175 0.0
H951 H 0.82151 0.99006 0.63832 0.0
H952 H 0.75877 0.03555 0.60012 0.0
H953 H 0.76009 0.00633 0.6115 0.0
H954 H 0.7088 0.02278 0.62514 0.0
H955 H 0.71047 0.99404 0.63667 0.0
H956 H 0.67968 0.89895 0.64322 0.0
H957 H 0.70489 0.86866 0.66987 0.0
H958 H 0.7335 0.89252 0.66126 0.0
H959 H 0.70844 0.92281 0.63459 0.0
C960 C 0.64716 0.85304 0.40026 0.0
C961 C 0.64404 0.83746 0.41078 0.0
C962 C 0.61277 0.82564 0.40627 0.0
C963 C 0.62703 0.824 0.41382 0.0
C964 C 0.6159 0.8412 0.39572 0.0
C965 C 0.63292 0.85481 0.39282 0.0
U966 U 0.69459 0.8634 0.38902 0.0
O967 O 0.71423 0.8851 0.37318 0.0
O968 O 0.71908 0.88376 0.3993 0.0
C969 C 0.72486 0.89262 0.38531 0.0
C970 C 0.66515 0.86717 0.3967 0.0
C971 C 0.73379 0.91383 0.38608 0.0
C972 C 0.73824 0.945 0.39862 0.0
C973 C 0.72816 0.9252 0.39687 0.0
C974 C 0.75936 0.94236 0.37849 0.0
C975 C 0.75414 0.95377 0.38965 0.0
C976 C 0.7493 0.92262 0.37676 0.0
C977 C 0.70796 0.82051 0.38264 0.0
C978 C 0.72113 0.80292 0.36495 0.0
C979 C 0.73312 0.81481 0.3915 0.0
C980 C 0.72044 0.82244 0.39443 0.0
C981 C 0.73374 0.8051 0.37669 0.0
C982 C 0.70835 0.81054 0.36791 0.0
C983 C 0.69443 0.82856 0.38571 0.0
O984 O 0.67686 0.86835 0.40753 0.0
O985 O 0.67096 0.86732 0.38147 0.0
O986 O 0.69151 0.83786 0.37352 0.0
O987 O 0.69481 0.83723 0.39997 0.0
H988 H 0.65476 0.83554 0.41656 0.0
H989 H 0.62509 0.81202 0.42179 0.0
H990 H 0.60517 0.84291 0.38978 0.0
H991 H 0.63498 0.86665 0.38466 0.0
H992 H 0.73366 0.95341 0.40713 0.0
H993 H 0.71622 0.91872 0.40419 0.0
H994 H 0.77157 0.94851 0.37151 0.0
H995 H 0.75395 0.91406 0.36846 0.0
H996 H 0.72129 0.79554 0.35342 0.0
H997 H 0.74235 0.81635 0.40098 0.0
H998 H 0.72048 0.82983 0.40599 0.0
H999 H 0.6988 0.80871 0.35867 0.0
C1000 C 0.77371 0.97978 0.08266 0.0
C1001 C 0.79093 0.98312 0.08668 0.0
C1002 C 0.78661 0.95018 0.07848 0.0
C1003 C 0.7973 0.96849 0.08464 0.0
C1004 C 0.76925 0.94685 0.07471 0.0
C1005 C 0.76288 0.96152 0.07677 0.0
U1006 U 0.78268 0.03211 0.09228 0.0
O1007 O 0.77519 0.05336 0.07987 0.0
O1008 O 0.76761 0.04648 0.10571 0.0
C1009 C 0.7667 0.05624 0.09291 0.0
C1010 C 0.76726 0.99548 0.08412 0.0
C1011 C 0.74974 0.05771 0.09036 0.0
C1012 C 0.71795 0.04491 0.09266 0.0
C1013 C 0.73371 0.04224 0.09331 0.0
C1014 C 0.73399 0.07834 0.08554 0.0
C1015 C 0.7179 0.06312 0.08908 0.0
C1016 C 0.7497 0.07565 0.08619 0.0
C1017 C 0.83002 0.06314 0.10511 0.0
C1018 C 0.85074 0.09575 0.09934 0.0
C1019 C 0.85314 0.08015 0.12413 0.0
C1020 C 0.83858 0.06375 0.11976 0.0
C1021 C 0.85956 0.09622 0.11382 0.0
C1022 C 0.83612 0.07943 0.09503 0.0
C1023 C 0.81573 0.04497 0.10006 0.0
O1024 O 0.76653 1.00212 0.09907 0.0
O1025 O 0.77409 0.00926 0.07333 0.0
O1026 O 0.81052 0.04385 0.08492 0.0
O1027 O 0.80276 0.03734 0.11076 0.0
H1028 H 0.7995 0.99714 0.09126 0.0
H1029 H 0.81064 0.97156 0.08789 0.0
H1030 H 0.76069 0.93307 0.06972 0.0
H1031 H 0.74958 0.95868 0.07353 0.0
H1032 H 0.70581 0.03276 0.09517 0.0
H1033 H 0.7334 0.02824 0.09651 0.0
H1034 H 0.73455 0.09259 0.0829 0.0
H1035 H 0.76192 0.08782 0.08395 0.0
H1036 H 0.8552 0.10803 0.09127 0.0
H1037 H 0.8597 0.08002 0.13531 0.0
H1038 H 0.83422 0.05133 0.12767 0.0
H1039 H 0.82982 0.07948 0.08368 0.0
C1040 C 0.816 0.11224 0.85408 0.0
C1041 C 0.80586 0.111 0.86852 0.0
C1042 C 0.79199 0.07604 0.86543 0.0
C1043 C 0.79407 0.0931 0.87417 0.0
C1044 C 0.80195 0.07731 0.85086 0.0
C1045 C 0.81389 0.09522 0.8453 0.0
U1046 U 0.82663 0.16402 0.84154 0.0
O1047 O 0.84852 0.1912 0.84709 0.0
O1048 O 0.8434 0.18159 0.82146 0.0
C1049 C 0.85361 0.19457 0.83163 0.0
C1050 C 0.82872 0.13106 0.84801 0.0
C1051 C 0.87261 0.20191 0.82816 0.0
C1052 C 0.90184 0.20544 0.83536 0.0
C1053 C 0.88364 0.19564 0.83682 0.0
C1054 C 0.89813 0.2271 0.81586 0.0
C1055 C 0.90928 0.22182 0.82537 0.0
C1056 C 0.88001 0.21724 0.81727 0.0
C1057 C 0.7895 0.182 0.84399 0.0
C1058 C 0.79381 0.21484 0.83735 0.0
C1059 C 0.76518 0.19218 0.84626 0.0
C1060 C 0.77185 0.17792 0.84769 0.0
C1061 C 0.77607 0.21085 0.84113 0.0
C1062 C 0.80048 0.20053 0.83881 0.0
C1063 C 0.79621 0.16679 0.8457 0.0
O1064 O 0.82615 0.13571 0.8332 0.0
O1065 O 0.83296 0.14564 0.85848 0.0
O1066 O 0.80718 0.16951 0.85759 0.0
O1067 O 0.80119 0.16064 0.83198 0.0
H1068 H 0.80701 0.12385 0.87551 0.0
H1069 H 0.78644 0.09264 0.88532 0.0
H1070 H 0.80076 0.06442 0.84393 0.0
H1071 H 0.82153 0.09577 0.83413 0.0
H1072 H 0.90996 0.20099 0.84295 0.0
H1073 H 0.87821 0.18382 0.84531 0.0
H1074 H 0.90338 0.23943 0.80787 0.0
H1075 H 0.8717 0.22224 0.81046 0.0
H1076 H 0.80258 0.22905 0.83343 0.0
H1077 H 0.7514 0.18846 0.84895 0.0
H1078 H 0.76319 0.16365 0.85164 0.0
H1079 H 0.81419 0.20392 0.83593 0.0
C1080 C 0.73272 0.85473 0.98784 0.0
C1081 C 0.7259 0.84962 0.97214 0.0
C1082 C 0.73129 0.88323 0.96672 0.0
C1083 C 0.72521 0.86373 0.96167 0.0
C1084 C 0.7379 0.88816 0.98258 0.0
C1085 C 0.7386 0.87405 0.99301 0.0
U1086 U 0.72469 0.80256 0.9971 0.0
O1087 O 0.74168 0.7904 0.00863 0.0
O1088 O 0.71606 0.78611 0.01986 0.0
C1089 C 0.73086 0.78387 0.02127 0.0
C1090 C 0.73405 0.84015 0.99878 0.0
C1091 C 0.73863 0.78809 0.03765 0.0
C1092 C 0.74545 0.80713 0.06293 0.0
C1093 C 0.73938 0.80439 0.04688 0.0
C1094 C 0.75066 0.77769 0.06051 0.0
C1095 C 0.75088 0.79362 0.07007 0.0
C1096 C 0.74459 0.77497 0.04449 0.0
C1097 C 0.7008 0.76467 0.96344 0.0
C1098 C 0.69984 0.73229 0.95829 0.0
C1099 C 0.67954 0.74269 0.94496 0.0
C1100 C 0.68688 0.76065 0.95286 0.0
C1101 C 0.686 0.72829 0.94743 0.0
C1102 C 0.70716 0.7503 0.96623 0.0
C1103 C 0.70876 0.78421 0.97073 0.0
O1104 O 0.71916 0.82787 1.00497 0.0
O1105 O 0.74459 0.83186 0.9935 0.0
O1106 O 0.72585 0.79158 0.97202 0.0
O1107 O 0.70048 0.78788 0.98356 0.0
H1108 H 0.72124 0.83474 0.96795 0.0
H1109 H 0.71989 0.85938 0.94963 0.0
H1110 H 0.74297 0.90303 0.98681 0.0
H1111 H 0.74396 0.87827 1.00507 0.0
H1112 H 0.74528 0.81947 0.06993 0.0
H1113 H 0.73488 0.81473 0.04182 0.0
H1114 H 0.75501 0.76718 0.06545 0.0
H1115 H 0.74421 0.76236 0.03756 0.0
H1116 H 0.70531 0.72168 0.96038 0.0
H1117 H 0.66874 0.74009 0.93695 0.0
H1118 H 0.68176 0.77153 0.95055 0.0
H1119 H 0.71792 0.75309 0.97433 0.0
C1120 C 0.13558 0.27448 0.81278 0.0
C1121 C 0.12518 0.26369 0.82583 0.0
C1122 C 0.10607 0.28141 0.82465 0.0
C1123 C 0.11054 0.26713 0.83172 0.0
C1124 C 0.11689 0.29247 0.81187 0.0
C1125 C 0.13146 0.28903 0.80604 0.0
U1126 U 0.16963 0.25083 0.811 0.0
O1127 O 0.17777 0.23727 0.78993 0.0
O1128 O 0.19687 0.26332 0.8013 0.0
C1129 C 0.19361 0.25083 0.78905 0.0
C1130 C 0.15022 0.27035 0.80532 0.0
C1131 C 0.20039 0.25863 0.77257 0.0
C1132 C 0.19696 0.25857 0.74305 0.0
C1133 C 0.18973 0.25327 0.75882 0.0
C1134 C 0.22545 0.27559 0.75447 0.0
C1135 C 0.21497 0.26941 0.74065 0.0
C1136 C 0.21824 0.27017 0.77024 0.0
C1137 C 0.17243 0.21815 0.84555 0.0
C1138 C 0.17818 0.18875 0.84566 0.0
C1139 C 0.18361 0.20933 0.86981 0.0
C1140 C 0.17812 0.22201 0.8617 0.0
C1141 C 0.18346 0.19236 0.86201 0.0
C1142 C 0.17277 0.20154 0.83749 0.0
C1143 C 0.16509 0.23091 0.83794 0.0
O1144 O 0.16523 0.27788 0.81269 0.0
O1145 O 0.14647 0.25254 0.80016 0.0
O1146 O 0.15583 0.22422 0.8248 0.0
O1147 O 0.1754 0.24928 0.83696 0.0
H1148 H 0.1282 0.25242 0.83125 0.0
H1149 H 0.10265 0.2585 0.8417 0.0
H1150 H 0.11378 0.30335 0.80591 0.0
H1151 H 0.13929 0.29747 0.79592 0.0
H1152 H 0.18851 0.25376 0.73267 0.0
H1153 H 0.17591 0.24444 0.76014 0.0
H1154 H 0.23939 0.28379 0.75304 0.0
H1155 H 0.22677 0.2744 0.7806 0.0
H1156 H 0.17801 0.1759 0.83925 0.0
H1157 H 0.18728 0.21244 0.88248 0.0
H1158 H 0.17787 0.23461 0.86824 0.0
H1159 H 0.16852 0.19817 0.825 0.0
C1160 C 0.84746 0.19578 0.48059 0.0
C1161 C 0.86061 0.19799 0.46852 0.0
C1162 C 0.84521 0.16474 0.45916 0.0
C1163 C 0.85951 0.18262 0.45796 0.0
C1164 C 0.83196 0.16277 0.4711 0.0
C1165 C 0.83313 0.17809 0.48171 0.0
U1166 U 0.85736 0.24894 0.49116 0.0
O1167 O 0.84341 0.26183 0.5079 0.0
O1168 O 0.87061 0.26643 0.51243 0.0
C1169 C 0.8565 0.26876 0.51794 0.0
C1170 C 0.84851 0.21149 0.4923 0.0
C1171 C 0.85208 0.26483 0.53549 0.0
C1172 C 0.83703 0.24313 0.55772 0.0
C1173 C 0.84102 0.24645 0.54096 0.0
C1174 C 0.85522 0.27649 0.56373 0.0
C1175 C 0.8441 0.25812 0.56934 0.0
C1176 C 0.85914 0.27978 0.54699 0.0
C1177 C 0.87393 0.28621 0.45616 0.0
C1178 C 0.86958 0.31509 0.44853 0.0
C1179 C 0.89655 0.31153 0.44071 0.0
C1180 C 0.8905 0.29364 0.44835 0.0
C1181 C 0.88615 0.32245 0.4406 0.0
C1182 C 0.86353 0.29716 0.45627 0.0
C1183 C 0.8675 0.26653 0.46297 0.0
O1184 O 0.86427 0.22414 0.49545 0.0
O1185 O 0.83712 0.2194 0.49047 0.0
O1186 O 0.85104 0.25879 0.46804 0.0
O1187 O 0.87814 0.26295 0.47265 0.0
H1188 H 0.8718 0.21153 0.46734 0.0
H1189 H 0.87004 0.18465 0.44904 0.0
H1190 H 0.82057 0.14942 0.4722 0.0
H1191 H 0.8228 0.17609 0.49085 0.0
H1192 H 0.8283 0.22886 0.56155 0.0
H1193 H 0.83545 0.23468 0.53227 0.0
H1194 H 0.86116 0.28828 0.57229 0.0
H1195 H 0.86779 0.29404 0.54302 0.0
H1196 H 0.86129 0.32319 0.44875 0.0
H1197 H 0.90924 0.31655 0.43447 0.0
H1198 H 0.89867 0.2854 0.44786 0.0
H1199 H 0.85065 0.2918 0.46213 0.0
C1200 C 0.52592 0.90062 0.83803 0.0
C1201 C 0.52811 0.91272 0.85186 0.0
C1202 C 0.49655 0.90387 0.85431 0.0
C1203 C 0.51353 0.91438 0.85992 0.0
C1204 C 0.49456 0.89198 0.8403 0.0
C1205 C 0.50909 0.89039 0.83227 0.0
U1206 U 0.57413 0.90614 0.83368 0.0
O1207 O 0.58459 0.88525 0.82379 0.0
O1208 O 0.59143 0.91301 0.81161 0.0
C1209 C 0.59237 0.89598 0.81112 0.0
C1210 C 0.54083 0.89819 0.8294 0.0
C1211 C 0.59017 0.88625 0.79492 0.0
C1212 C 0.57592 0.85875 0.7768 0.0
C1213 C 0.57661 0.86826 0.79192 0.0
C1214 C 0.60196 0.88534 0.76737 0.0
C1215 C 0.5887 0.86712 0.7644 0.0
C1216 C 0.60269 0.89475 0.78246 0.0
C1217 C 0.60812 0.93065 0.86552 0.0
C1218 C 0.63756 0.93135 0.86201 0.0
C1219 C 0.63083 0.94975 0.88406 0.0
C1220 C 0.6135 0.9431 0.87909 0.0
C1221 C 0.64311 0.94404 0.87553 0.0
C1222 C 0.62024 0.92477 0.85703 0.0
C1223 C 0.59001 0.92427 0.86005 0.0
O1224 O 0.55345 0.91402 0.82409 0.0
O1225 O 0.54656 0.88614 0.83602 0.0
O1226 O 0.58125 0.9055 0.85928 0.0
O1227 O 0.58798 0.93323 0.84719 0.0
H1228 H 0.54103 0.92071 0.8565 0.0
H1229 H 0.5155 0.92353 0.87074 0.0
H1230 H 0.48174 0.88392 0.8355 0.0
H1231 H 0.50716 0.88105 0.82156 0.0
H1232 H 0.56546 0.84481 0.77484 0.0
H1233 H 0.56673 0.86138 0.80132 0.0
H1234 H 0.61219 0.89209 0.75823 0.0
H1235 H 0.61333 0.90854 0.78453 0.0
H1236 H 0.6467 0.92687 0.85503 0.0
H1237 H 0.6346 0.95932 0.89462 0.0
H1238 H 0.60433 0.94779 0.8858 0.0
H1239 H 0.61633 0.91525 0.84643 0.0
C1240 C 0.98418 0.14388 0.25678 0.0
C1241 C 0.96839 0.14657 0.25647 0.0
C1242 C 0.97295 0.15373 0.22719 0.0
C1243 C 0.96284 0.15146 0.24184 0.0
C1244 C 0.98851 0.15045 0.22755 0.0
C1245 C 0.99406 0.14563 0.24217 0.0
U1246 U 0.97732 0.12681 0.30131 0.0
O1247 O 0.98856 0.10961 0.31471 0.0
O1248 O 0.99325 0.13914 0.323 0.0
C1249 C 0.99661 0.12369 0.32509 0.0
C1250 C 0.99083 0.13987 0.27223 0.0
C1251 C 0.01474 0.12676 0.32932 0.0
C1252 C 0.04172 0.12154 0.32442 0.0
C1253 C 0.02549 0.12046 0.31907 0.0
C1254 C 0.03697 0.13574 0.35011 0.0
C1255 C 0.04756 0.12887 0.34015 0.0
C1256 C 0.02079 0.13468 0.34476 0.0
C1257 C 0.92979 0.10991 0.31935 0.0
C1258 C 0.91931 0.0962 0.34625 0.0
C1259 C 0.90009 0.10398 0.32885 0.0
C1260 C 0.91341 0.11041 0.3168 0.0
C1261 C 0.90283 0.09684 0.34379 0.0
C1262 C 0.93268 0.10269 0.33413 0.0
C1263 C 0.94351 0.11718 0.30637 0.0
O1264 O 0.99069 0.15112 0.28478 0.0
O1265 O 0.98551 0.12162 0.27621 0.0
O1266 O 0.95033 0.10512 0.30059 0.0
O1267 O 0.95518 0.13478 0.30851 0.0
H1268 H 0.96052 0.14524 0.2676 0.0
H1269 H 0.95089 0.15403 0.24215 0.0
H1270 H 0.9965 0.15167 0.21652 0.0
H1271 H 1.00622 0.14351 0.24209 0.0
H1272 H 0.04939 0.11594 0.31644 0.0
H1273 H 0.02116 0.11422 0.30712 0.0
H1274 H 0.04108 0.14177 0.36217 0.0
H1275 H 0.01275 0.13959 0.35292 0.0
H1276 H 0.92188 0.09065 0.35752 0.0
H1277 H 0.88777 0.1051 0.32659 0.0
H1278 H 0.91094 0.116 0.30548 0.0
H1279 H 0.94526 0.10216 0.33631 0.0
C1280 C 0.63583 0.24031 0.65183 0.0
C1281 C 0.62793 0.23495 0.63664 0.0
C1282 C 0.60241 0.24063 0.64701 0.0
C1283 C 0.61141 0.23506 0.63424 0.0
C1284 C 0.61089 0.24702 0.66199 0.0
C1285 C 0.6274 0.24677 0.6644 0.0
U1286 U 0.67565 0.24477 0.67709 0.0
O1287 O 0.68408 0.27323 0.68942 0.0
O1288 O 0.66536 0.24754 0.70174 0.0
C1289 C 0.67554 0.26589 0.70313 0.0
C1290 C 0.6518 0.23703 0.65475 0.0
C1291 C 0.68581 0.27093 0.71806 0.0
C1292 C 0.69114 0.28637 0.74491 0.0
C1293 C 0.68279 0.28315 0.72992 0.0
C1294 C 0.70604 0.26563 0.73612 0.0
C1295 C 0.7026 0.27734 0.74835 0.0
C1296 C 0.69772 0.26247 0.72112 0.0
C1297 C 0.70117 0.21528 0.66192 0.0
C1298 C 0.71802 0.19731 0.65095 0.0
C1299 C 0.68958 0.1915 0.64024 0.0
C1300 C 0.68793 0.20549 0.65094 0.0
C1301 C 0.70454 0.1871 0.64023 0.0
C1302 C 0.71628 0.21125 0.6618 0.0
C1303 C 0.69877 0.22901 0.6739 0.0
O1304 O 0.6667 0.25212 0.65405 0.0
O1305 O 0.65063 0.22563 0.66703 0.0
O1306 O 0.70153 0.24618 0.66825 0.0
O1307 O 0.68444 0.22184 0.68309 0.0
H1308 H 0.63421 0.22979 0.62683 0.0
H1309 H 0.60536 0.22973 0.62263 0.0
H1310 H 0.60466 0.2519 0.672 0.0
H1311 H 0.63335 0.25107 0.67621 0.0
H1312 H 0.68842 0.29573 0.75392 0.0
H1313 H 0.67366 0.28982 0.72774 0.0
H1314 H 0.71462 0.25828 0.73837 0.0
H1315 H 0.70015 0.25292 0.71209 0.0
H1316 H 0.72971 0.19425 0.65115 0.0
H1317 H 0.67915 0.1842 0.63187 0.0
H1318 H 0.67621 0.20851 0.65079 0.0
H1319 H 0.72663 0.2187 0.67022 0.0
C1320 C 0.11526 0.16822 0.01033 0.0
C1321 C 0.11634 0.17303 0.99371 0.0
C1322 C 0.13519 0.15567 0.98763 0.0
C1323 C 0.12631 0.16695 0.98252 0.0
C1324 C 0.13355 0.15018 1.00414 0.0
C1325 C 0.12373 0.15654 0.01545 0.0
U1326 U 0.07919 0.18589 0.01839 0.0
O1327 O 0.06131 0.18433 0.03954 0.0
O1328 O 0.07916 0.21244 0.03002 0.0
C1329 C 0.06742 0.2032 0.04135 0.0
C1330 C 0.10562 0.17581 0.02222 0.0
C1331 C 0.07047 0.21115 0.0582 0.0
C1332 C 0.08885 0.23386 0.07822 0.0
C1333 C 0.087 0.22415 0.06309 0.0
C1334 C 0.05786 0.21706 0.08409 0.0
C1335 C 0.07422 0.23072 0.08875 0.0
C1336 C 0.05602 0.20743 0.06897 0.0
C1337 C 0.05187 0.18542 0.98184 0.0
C1338 C 0.03396 0.20434 0.98205 0.0
C1339 C 0.03846 0.18882 0.95691 0.0
C1340 C 0.04856 0.18109 0.96523 0.0
C1341 C 0.03154 0.2011 0.96509 0.0
C1342 C 0.04409 0.19659 0.99036 0.0
C1343 C 0.06509 0.18024 0.98951 0.0
O1344 O 0.10744 0.19365 0.01961 0.0
O1345 O 0.08935 0.16426 0.02567 0.0
O1346 O 0.05947 0.16748 1.00125 0.0
O1347 O 0.07948 0.19502 0.99308 0.0
H1348 H 0.10971 0.18178 0.9894 0.0
H1349 H 0.12712 0.17113 0.96982 0.0
H1350 H 0.14027 0.14148 0.00838 0.0
H1351 H 0.12296 0.15257 0.02819 0.0
H1352 H 0.10167 0.24409 0.08154 0.0
H1353 H 0.0984 0.2273 0.05501 0.0
H1354 H 0.04627 0.21443 0.09178 0.0
H1355 H 0.04312 0.19763 0.0654 0.0
H1356 H 0.02867 0.21355 0.98874 0.0
H1357 H 0.03713 0.18622 0.94383 0.0
H1358 H 0.05455 0.17256 0.95847 0.0
H1359 H 0.04655 0.20006 1.00323 0.0
C1360 C 0.43157 0.78141 0.55742 0.0
C1361 C 0.44178 0.77062 0.55394 0.0
C1362 C 0.43563 0.75725 0.58153 0.0
C1363 C 0.44381 0.75866 0.56588 0.0
C1364 C 0.42572 0.76845 0.58498 0.0
C1365 C 0.42373 0.78038 0.57305 0.0
U1366 U 0.43785 0.8037 0.51435 0.0
O1367 O 0.41789 0.8051 0.49816 0.0
O1368 O 0.43818 0.83191 0.5072 0.0
C1369 C 0.42392 0.82404 0.49873 0.0
C1370 C 0.42814 0.79305 0.5448 0.0
C1371 C 0.41086 0.83281 0.50052 0.0
C1372 C 0.38205 0.8315 0.50913 0.0
C1373 C 0.39519 0.8242 0.5097 0.0
C1374 C 0.40043 0.85654 0.4908 0.0
C1375 C 0.38433 0.84749 0.49932 0.0
C1376 C 0.41351 0.84928 0.49142 0.0
C1377 C 0.46826 0.79652 0.48102 0.0
C1378 C 0.46407 0.79412 0.45157 0.0
C1379 C 0.49331 0.80504 0.4619 0.0
C1380 C 0.48638 0.80303 0.478 0.0
C1381 C 0.48223 0.80047 0.44842 0.0
C1382 C 0.4572 0.79231 0.46761 0.0
C1383 C 0.46104 0.79383 0.49809 0.0
O1384 O 0.44107 0.80936 0.54092 0.0
O1385 O 0.41978 0.78339 0.53198 0.0
O1386 O 0.44447 0.78232 0.49992 0.0
O1387 O 0.46536 0.80949 0.50731 0.0
H1388 H 0.44796 0.77124 0.54192 0.0
H1389 H 0.4517 0.75043 0.56283 0.0
H1390 H 0.419 0.76756 0.59674 0.0
H1391 H 0.41571 0.78851 0.57595 0.0
H1392 H 0.36994 0.8243 0.51602 0.0
H1393 H 0.39288 0.8115 0.51687 0.0
H1394 H 0.40264 0.86864 0.4829 0.0
H1395 H 0.42546 0.85608 0.48417 0.0
H1396 H 0.45501 0.79001 0.44163 0.0
H1397 H 0.50734 0.81016 0.46003 0.0
H1398 H 0.49519 0.80645 0.48813 0.0
H1399 H 0.44316 0.78732 0.46949 0.0
C1400 C 0.72529 0.55472 0.9127 0.0
C1401 C 0.73057 0.5729 0.92057 0.0
C1402 C 0.70507 0.5775 0.91079 0.0
C1403 C 0.72055 0.5841 0.91966 0.0
C1404 C 0.69974 0.55926 0.90306 0.0
C1405 C 0.70968 0.548 0.90407 0.0
U1406 U 0.76754 0.54736 0.90272 0.0
O1407 O 0.78301 0.5356 0.91693 0.0
O1408 O 0.77254 0.52216 0.8933 0.0
C1409 C 0.78164 0.52191 0.90606 0.0
C1410 C 0.7359 0.54273 0.9132 0.0
C1411 C 0.7801 0.50296 0.9121 0.0
C1412 C 0.77407 0.47941 0.93377 0.0
C1413 C 0.77264 0.49592 0.92752 0.0
C1414 C 0.7899 0.47647 0.90906 0.0
C1415 C 0.78313 0.46973 0.92478 0.0
C1416 C 0.78837 0.49283 0.90282 0.0
C1417 C 0.80438 0.58797 0.88028 0.0
C1418 C 0.83517 0.59319 0.87988 0.0
C1419 C 0.8248 0.61049 0.86113 0.0
C1420 C 0.80778 0.6011 0.8675 0.0
C1421 C 0.83879 0.607 0.8675 0.0
C1422 C 0.81811 0.58373 0.88619 0.0
C1423 C 0.78661 0.57946 0.88766 0.0
O1424 O 0.73912 0.53594 0.89899 0.0
O1425 O 0.74954 0.54903 0.92263 0.0
O1426 O 0.78564 0.57776 0.90369 0.0
O1427 O 0.77559 0.56424 0.88005 0.0
H1428 H 0.74253 0.5786 0.92732 0.0
H1429 H 0.72514 0.59813 0.92564 0.0
H1430 H 0.68777 0.5536 0.89631 0.0
H1431 H 0.7052 0.53401 0.898 0.0
H1432 H 0.76842 0.4745 0.9458 0.0
H1433 H 0.76621 0.5035 0.93494 0.0
H1434 H 0.79721 0.46973 0.90182 0.0
H1435 H 0.79441 0.49812 0.89097 0.0
H1436 H 0.84561 0.59029 0.88521 0.0
H1437 H 0.82706 0.6208 0.85144 0.0
H1438 H 0.79733 0.60442 0.86268 0.0
H1439 H 0.81573 0.57351 0.89599 0.0
C1440 C 0.79603 0.57548 0.16597 0.0
C1441 C 0.77882 0.57157 0.1716 0.0
C1442 C 0.76883 0.53985 0.15835 0.0
C1443 C 0.76537 0.55388 0.16789 0.0
C1444 C 0.78614 0.5439 0.15279 0.0
C1445 C 0.79958 0.56151 0.15661 0.0
U1446 U 0.8125 0.62989 0.17216 0.0
O1447 O 0.83234 0.64922 0.18876 0.0
O1448 O 0.83575 0.65323 0.16215 0.0
C1449 C 0.84278 0.65839 0.17655 0.0
C1450 C 0.81028 0.59426 0.16919 0.0
C1451 C 0.86101 0.66032 0.17714 0.0
C1452 C 0.88339 0.64803 0.16994 0.0
C1453 C 0.86576 0.64506 0.17198 0.0
C1454 C 0.89167 0.68116 0.17927 0.0
C1455 C 0.89652 0.66628 0.17309 0.0
C1456 C 0.87403 0.6782 0.18122 0.0
C1457 C 0.7809 0.65493 0.16922 0.0
C1458 C 0.79043 0.68961 0.17293 0.0
C1459 C 0.7611 0.67062 0.16406 0.0
C1460 C 0.76456 0.65392 0.16449 0.0
C1461 C 0.77395 0.68866 0.16837 0.0
C1462 C 0.79389 0.67287 0.17333 0.0
C1463 C 0.78441 0.63729 0.16928 0.0
O1464 O 0.81462 0.60631 0.1569 0.0
O1465 O 0.80943 0.60251 0.18342 0.0
O1466 O 0.78923 0.63307 0.18333 0.0
O1467 O 0.79385 0.63523 0.15668 0.0
H1468 H 0.77575 0.58221 0.17877 0.0
H1469 H 0.75227 0.5512 0.17255 0.0
H1470 H 0.78928 0.53364 0.14517 0.0
H1471 H 0.81275 0.56434 0.15204 0.0
H1472 H 0.88676 0.63628 0.16529 0.0
H1473 H 0.85583 0.63113 0.16882 0.0
H1474 H 0.90148 0.69544 0.18162 0.0
H1475 H 0.87058 0.69014 0.18517 0.0
H1476 H 0.80054 0.70321 0.17653 0.0
H1477 H 0.74836 0.66941 0.16027 0.0
H1478 H 0.75447 0.6402 0.1611 0.0
H1479 H 0.80665 0.6739 0.17691 0.0
C1480 C 0.76547 0.52076 0.40385 0.0
C1481 C 0.74733 0.51494 0.4026 0.0
C1482 C 0.74947 0.54748 0.40964 0.0
C1483 C 0.73942 0.52812 0.40546 0.0
C1484 C 0.76772 0.55329 0.41069 0.0
C1485 C 0.77563 0.54005 0.4078 0.0
U1486 U 0.75945 0.4693 0.39537 0.0
O1487 O 0.77309 0.45581 0.37873 0.0
O1488 O 0.77137 0.45052 0.40521 0.0
C1489 C 0.77721 0.44723 0.39073 0.0
C1490 C 0.77359 0.50658 0.40124 0.0
C1491 C 0.79469 0.44642 0.38979 0.0
C1492 C 0.8249 0.4569 0.39801 0.0
C1493 C 0.80891 0.45923 0.3985 0.0
C1494 C 0.81256 0.42907 0.38007 0.0
C1495 C 0.82691 0.44173 0.3888 0.0
C1496 C 0.7967 0.43143 0.38055 0.0
C1497 C 0.71178 0.43397 0.39014 0.0
C1498 C 0.70139 0.40398 0.37438 0.0
C1499 C 0.68144 0.41168 0.39283 0.0
C1500 C 0.69502 0.42891 0.3973 0.0
C1501 C 0.68437 0.39924 0.38103 0.0
C1502 C 0.715 0.42117 0.37894 0.0
C1503 C 0.72528 0.45318 0.39365 0.0
O1504 O 0.77003 0.49364 0.41279 0.0
O1505 O 0.77219 0.49902 0.3864 0.0
O1506 O 0.73571 0.46171 0.38123 0.0
O1507 O 0.73347 0.45512 0.40744 0.0
H1508 H 0.73924 0.50008 0.39962 0.0
H1509 H 0.72534 0.52298 0.40482 0.0
H1510 H 0.77589 0.56809 0.41373 0.0
H1511 H 0.78966 0.54484 0.40878 0.0
H1512 H 0.83571 0.46706 0.40473 0.0
H1513 H 0.80762 0.47088 0.40576 0.0
H1514 H 0.81344 0.41704 0.37309 0.0
H1515 H 0.78583 0.42126 0.37389 0.0
H1516 H 0.70409 0.39458 0.3654 0.0
H1517 H 0.66847 0.40855 0.39806 0.0
H1518 H 0.69229 0.43861 0.40596 0.0
H1519 H 0.7279 0.42472 0.37336 0.0
C1520 C 0.67017 0.32288 0.64927 0.0
C1521 C 0.65856 0.30384 0.65208 0.0
C1522 C 0.63426 0.31135 0.6433 0.0
C1523 C 0.64079 0.29814 0.64912 0.0
C1524 C 0.64595 0.33053 0.6407 0.0
C1525 C 0.66377 0.33626 0.64368 0.0
U1526 U 0.71733 0.36008 0.65011 0.0
O1527 O 0.71577 0.38071 0.63236 0.0
O1528 O 0.71403 0.38651 0.65872 0.0
C1529 C 0.71595 0.39339 0.64382 0.0
C1530 C 0.68896 0.32827 0.65156 0.0
C1531 C 0.72942 0.41306 0.64168 0.0
C1532 C 0.73947 0.44758 0.64695 0.0
C1533 C 0.72683 0.42886 0.64892 0.0
C1534 C 0.75751 0.43493 0.63048 0.0
C1535 C 0.75494 0.45089 0.63758 0.0
C1536 C 0.74497 0.41624 0.63258 0.0
C1537 C 0.75604 0.34543 0.65756 0.0
C1538 C 0.7822 0.33885 0.65978 0.0
C1539 C 0.75369 0.31316 0.66399 0.0
C1540 C 0.74574 0.32609 0.66111 0.0
C1541 C 0.77204 0.3194 0.66328 0.0
C1542 C 0.77427 0.3517 0.65695 0.0
C1543 C 0.74825 0.3594 0.65434 0.0
O1544 O 0.69553 0.33914 0.66448 0.0
O1545 O 0.69891 0.33389 0.63826 0.0
O1546 O 0.74139 0.35795 0.63989 0.0
O1547 O 0.73863 0.3625 0.66634 0.0
H1548 H 0.66329 0.29327 0.65628 0.0
H1549 H 0.63222 0.28324 0.65089 0.0
H1550 H 0.64132 0.34109 0.63631 0.0
H1551 H 0.67258 0.35104 0.64144 0.0
H1552 H 0.73713 0.45943 0.65286 0.0
H1553 H 0.71502 0.42673 0.65612 0.0
H1554 H 0.76908 0.43686 0.62298 0.0
H1555 H 0.7474 0.40429 0.62697 0.0
H1556 H 0.79634 0.34422 0.65942 0.0
H1557 H 0.7455 0.29826 0.66655 0.0
H1558 H 0.73161 0.32101 0.66158 0.0
H1559 H 0.78241 0.3666 0.65428 0.0
C1560 C 0.47802 0.11319 0.21893 0.0
C1561 C 0.46599 0.12213 0.21988 0.0
C1562 C 0.46576 0.12174 0.2498 0.0
C1563 C 0.45997 0.12641 0.23515 0.0
C1564 C 0.47741 0.11224 0.24871 0.0
C1565 C 0.48349 0.10808 0.23345 0.0
U1566 U 0.47283 0.10186 0.17324 0.0
O1567 O 0.49109 0.11254 0.15217 0.0
O1568 O 0.48003 0.08162 0.15757 0.0
C1569 C 0.49092 0.09541 0.1483 0.0
C1570 C 0.48496 0.10911 0.20297 0.0
C1571 C 0.50806 0.09454 0.14427 0.0
C1572 C 0.5386 0.10226 0.15 0.0
C1573 C 0.52216 0.10215 0.15481 0.0
C1574 C 0.52687 0.0868 0.12427 0.0
C1575 C 0.54122 0.09476 0.13457 0.0
C1576 C 0.5105 0.08669 0.12908 0.0
C1577 C 0.42897 0.09737 0.1555 0.0
C1578 C 0.41834 0.08409 0.12871 0.0
C1579 C 0.40112 0.09647 0.14663 0.0
C1580 C 0.414 0.10136 0.15836 0.0
C1581 C 0.40295 0.08745 0.13176 0.0
C1582 C 0.43125 0.08901 0.14049 0.0
C1583 C 0.44139 0.101 0.16877 0.0
O1584 O 0.47697 0.09154 0.19711 0.0
O1585 O 0.48846 0.12246 0.19179 0.0
O1586 O 0.45562 0.11684 0.16771 0.0
O1587 O 0.44435 0.086 0.1734 0.0
H1588 H 0.46144 0.12605 0.20882 0.0
H1589 H 0.45116 0.13388 0.23545 0.0
H1590 H 0.4819 0.10803 0.25966 0.0
H1591 H 0.49259 0.10096 0.233 0.0
H1592 H 0.54927 0.1083 0.15835 0.0
H1593 H 0.52053 0.10825 0.16661 0.0
H1594 H 0.52837 0.08119 0.11221 0.0
H1595 H 0.4998 0.08084 0.12073 0.0
H1596 H 0.42027 0.07736 0.11733 0.0
H1597 H 0.38937 0.099 0.14956 0.0
H1598 H 0.41201 0.10776 0.16991 0.0
H1599 H 0.44279 0.08588 0.13807 0.0
C1600 C 1.00045 0.87915 0.71346 0.0
C1601 C 1.00409 0.88548 0.69722 0.0
C1602 C 0.97466 0.88481 0.69524 0.0
C1603 C 0.99131 0.88825 0.68819 0.0
C1604 C 0.97104 0.87821 0.71148 0.0
C1605 C 0.98384 0.87541 0.7205 0.0
U1606 U 0.04745 0.88505 0.71728 0.0
O1607 O 0.06544 0.89516 0.7378 0.0
O1608 O 0.05912 0.86614 0.72723 0.0
C1609 C 0.06725 0.87864 0.73874 0.0
C1610 C 0.01408 0.87689 0.72315 0.0
C1611 C 0.06683 0.87115 0.75535 0.0
C1612 C 0.05649 0.84522 0.77519 0.0
C1613 C 0.05491 0.85278 0.76011 0.0
C1614 C 0.08143 0.87456 0.78116 0.0
C1615 C 0.06997 0.85591 0.78577 0.0
C1616 C 0.07987 0.88205 0.76613 0.0
C1617 C 0.07948 0.90646 0.68171 0.0
C1618 C 0.10882 0.90673 0.68121 0.0
C1619 C 0.10057 0.92369 0.66042 0.0
C1620 C 0.08382 0.91788 0.66768 0.0
C1621 C 0.11324 0.91811 0.66706 0.0
C1622 C 0.09209 0.901 0.6885 0.0
C1623 C 0.0618 0.90031 0.68914 0.0
O1624 O 0.02014 0.86418 0.71733 0.0
O1625 O 0.02648 0.89313 0.72788 0.0
O1626 O 0.06019 0.9106 0.70187 0.0
O1627 O 0.05364 0.88164 0.69128 0.0
H1628 H 0.01687 0.88842 0.69158 0.0
H1629 H 0.9945 0.89311 0.67567 0.0
H1630 H 0.95847 0.87568 0.71739 0.0
H1631 H 0.98084 0.87059 0.73305 0.0
H1632 H 0.04733 0.8309 0.77845 0.0
H1633 H 0.0447 0.84405 0.75202 0.0
H1634 H 0.09214 0.8831 0.78883 0.0
H1635 H 0.0893 0.89617 0.76267 0.0
H1636 H 0.11835 0.90245 0.68677 0.0
H1637 H 0.10352 0.93232 0.64946 0.0
H1638 H 0.07424 0.92223 0.6623 0.0
H1639 H 0.08899 0.89231 0.69943 0.0
C1640 C 0.391 0.74707 0.36597 0.0
C1641 C 0.40603 0.76301 0.37053 0.0
C1642 C 0.41764 0.74193 0.38363 0.0
C1643 C 0.41912 0.76048 0.37934 0.0
C1644 C 0.40221 0.72611 0.37982 0.0
C1645 C 0.38903 0.72868 0.3712 0.0
U1646 U 0.35301 0.76199 0.35588 0.0
O1647 O 0.34999 0.77844 0.33521 0.0
O1648 O 0.33098 0.74889 0.33929 0.0
C1649 C 0.33595 0.76423 0.33002 0.0
C1650 C 0.37827 0.74918 0.35456 0.0
C1651 C 0.33498 0.76105 0.31214 0.0
C1652 C 0.34474 0.75127 0.28628 0.0
C1653 C 0.34527 0.75281 0.30345 0.0
C1654 C 0.32345 0.7659 0.28645 0.0
C1655 C 0.33396 0.75802 0.27753 0.0
C1656 C 0.32396 0.76737 0.30354 0.0
C1657 C 0.33349 0.78423 0.39001 0.0
C1658 C 0.32114 0.80842 0.38716 0.0
C1659 C 0.31869 0.79276 0.41319 0.0
C1660 C 0.32739 0.78166 0.40633 0.0
C1661 C 0.31596 0.80674 0.40385 0.0
C1662 C 0.32979 0.7972 0.38027 0.0
C1663 C 0.34513 0.77475 0.38399 0.0
O1664 O 0.3617 0.73782 0.35685 0.0
O1665 O 0.38054 0.76686 0.35071 0.0
O1666 O 0.33758 0.75665 0.37917 0.0
O1667 O 0.3582 0.78514 0.37428 0.0
H1668 H 0.40809 0.77742 0.36674 0.0
H1669 H 0.4309 0.77298 0.38187 0.0
H1670 H 0.40052 0.71164 0.3831 0.0
H1671 H 0.37754 0.71614 0.36812 0.0
H1672 H 0.35282 0.74485 0.27987 0.0
H1673 H 0.35384 0.74782 0.30989 0.0
H1674 H 0.31518 0.77149 0.28022 0.0
H1675 H 0.31596 0.77385 0.31006 0.0
H1676 H 0.31912 0.81893 0.3796 0.0
H1677 H 0.31516 0.79123 0.42613 0.0
H1678 H 0.33012 0.77174 0.41404 0.0
H1679 H 0.33425 0.79928 0.36756 0.0
C1680 C 0.90149 0.7912 1.00037 0.0
C1681 C 0.89627 0.78772 0.01694 0.0
C1682 C 0.87971 0.80813 0.0156 0.0
C1683 C 0.88542 0.79601 0.02443 0.0
C1684 C 0.88536 0.81204 0.99914 0.0
C1685 C 0.89609 0.80355 0.99157 0.0
U1686 U 0.93517 0.76907 1.003 0.0
O1687 O 0.93529 0.74159 0.99331 0.0
O1688 O 0.95637 0.76889 0.98606 0.0
C1689 C 0.94938 0.75004 0.98406 0.0
C1690 C 0.91226 0.78171 0.99225 0.0
C1691 C 0.94854 0.74256 0.96714 0.0
C1692 C 0.94165 0.74241 0.93845 0.0
C1693 C 0.94277 0.75038 0.9543 0.0
C1694 C 0.95208 0.71883 0.9482 0.0
C1695 C 0.94618 0.72643 0.93522 0.0
C1696 C 0.95327 0.72684 0.96395 0.0
C1697 C 0.95366 0.76899 0.04542 0.0
C1698 C 0.96459 0.74573 0.05532 0.0
C1699 C 0.9679 0.77427 0.07156 0.0
C1700 C 0.95982 0.78037 0.05946 0.0
C1701 C 0.96986 0.75657 0.06989 0.0
C1702 C 0.95656 0.7519 0.04317 0.0
C1703 C 0.94304 0.7744 0.03406 0.0
O1704 O 0.9292 0.79193 0.99152 0.0
O1705 O 0.90828 0.76374 0.99649 0.0
O1706 O 0.92921 0.76011 0.0286 0.0
O1707 O 0.95162 0.78687 0.02269 0.0
H1708 H 0.90045 0.77844 0.02406 0.0
H1709 H 0.88157 0.79299 0.03721 0.0
H1710 H 0.88116 0.8213 0.99202 0.0
H1711 H 0.90003 0.80647 0.97879 0.0
H1712 H 0.93722 0.74877 0.92875 0.0
H1713 H 0.93902 0.76251 0.95654 0.0
H1714 H 0.95534 0.70633 0.94632 0.0
H1715 H 0.95765 0.72055 0.97374 0.0
H1716 H 0.96579 0.73198 0.05367 0.0
H1717 H 0.97209 0.78313 0.08249 0.0
H1718 H 0.95782 0.79366 0.06136 0.0
H1719 H 0.95197 0.74294 0.03235 0.0
C1720 C 0.6128 0.21819 0.45125 0.0
C1721 C 0.60139 0.22781 0.45298 0.0
C1722 C 0.60817 0.23903 0.42492 0.0
C1723 C 0.5991 0.23813 0.43997 0.0
C1724 C 0.61975 0.2295 0.42327 0.0
C1725 C 0.62203 0.21913 0.43636 0.0
U1726 U 0.6006 0.20281 0.49465 0.0
O1727 O 0.59552 0.17547 0.50722 0.0
O1728 O 0.61613 0.2024 0.51566 0.0
C1729 C 0.60864 0.18356 0.51707 0.0
C1730 C 0.61504 0.20745 0.46514 0.0
C1731 C 0.62052 0.17344 0.5188 0.0
C1732 C 0.64908 0.17182 0.5148 0.0
C1733 C 0.63725 0.18018 0.51124 0.0
C1734 C 0.62725 0.14916 0.53273 0.0
C1735 C 0.64435 0.15651 0.5259 0.0
C1736 C 0.61549 0.15759 0.52924 0.0
C1737 C 0.56816 0.22219 0.51545 0.0
C1738 C 0.56195 0.22148 0.54476 0.0
C1739 C 0.54914 0.2373 0.52694 0.0
C1740 C 0.55735 0.23229 0.51337 0.0
C1741 C 0.5516 0.23228 0.54284 0.0
C1742 C 0.57017 0.2165 0.53118 0.0
C1743 C 0.57837 0.21926 0.50132 0.0
O1744 O 0.62261 0.21827 0.47777 0.0
O1745 O 0.60109 0.19223 0.46932 0.0
O1746 O 0.5736 0.20154 0.49555 0.0
O1747 O 0.59539 0.22825 0.50233 0.0
H1748 H 0.59424 0.22734 0.46445 0.0
H1749 H 0.59031 0.24555 0.44175 0.0
H1750 H 0.62681 0.22978 0.4118 0.0
H1751 H 0.63092 0.21179 0.43485 0.0
H1752 H 0.66208 0.17767 0.50921 0.0
H1753 H 0.64138 0.1923 0.50301 0.0
H1754 H 0.62324 0.13755 0.54147 0.0
H1755 H 0.60265 0.15218 0.5352 0.0
H1756 H 0.56438 0.21764 0.55683 0.0
H1757 H 0.54115 0.24545 0.52502 0.0
H1758 H 0.55569 0.23681 0.50129 0.0
H1759 H 0.57858 0.20881 0.53301 0.0
C1760 C 0.29875 0.45757 0.12494 0.0
C1761 C 0.29484 0.44158 0.13512 0.0
C1762 C 0.3223 0.43902 0.12685 0.0
C1763 C 0.30653 0.43248 0.13614 0.0
C1764 C 0.32618 0.45501 0.11663 0.0
C1765 C 0.3145 0.46424 0.11572 0.0
U1766 U 0.25185 0.45142 0.12701 0.0
O1767 O 0.23841 0.46936 0.13767 0.0
O1768 O 0.23578 0.46101 0.11159 0.0
C1769 C 0.23226 0.4712 0.12348 0.0
C1770 C 0.28594 0.46647 0.1233 0.0
C1771 C 0.23331 0.49065 0.11935 0.0
C1772 C 0.23917 0.51632 0.09967 0.0
C1773 C 0.24094 0.49948 0.10447 0.0
C1774 C 0.223 0.51641 0.12493 0.0
C1775 C 0.22974 0.52471 0.10963 0.0
C1776 C 0.22472 0.49955 0.12969 0.0
C1777 C 0.21948 0.40031 0.13742 0.0
C1778 C 0.18798 0.39059 0.13792 0.0
C1779 C 0.20053 0.36852 0.14696 0.0
C1780 C 0.21728 0.38227 0.1435 0.0
C1781 C 0.1857 0.37259 0.14436 0.0
C1782 C 0.20476 0.40438 0.13451 0.0
C1783 C 0.23722 0.4147 0.13437 0.0
O1784 O 0.27547 0.4599 0.11093 0.0
O1785 O 0.27771 0.46806 0.13699 0.0
O1786 O 0.24294 0.42855 0.14545 0.0
O1787 O 0.24086 0.42095 0.11927 0.0
H1788 H 0.28262 0.43597 0.14214 0.0
H1789 H 0.30304 0.42004 0.14393 0.0
H1790 H 0.33827 0.46044 0.10941 0.0
H1791 H 0.31768 0.47645 0.1077 0.0
H1792 H 0.2444 0.52215 0.08775 0.0
H1793 H 0.24765 0.49297 0.09622 0.0
H1794 H 0.21594 0.52264 0.13305 0.0
H1795 H 0.21871 0.49302 0.14121 0.0
H1796 H 0.17682 0.39426 0.136 0.0
H1797 H 0.1992 0.35474 0.15178 0.0
H1798 H 0.22853 0.37889 0.14574 0.0
H1799 H 0.20627 0.41829 0.12983 0.0
C1800 C 0.21501 0.43268 0.8928 0.0
C1801 C 0.23224 0.4338 0.89095 0.0
C1802 C 0.24368 0.46797 0.89861 0.0
C1803 C 0.2464 0.45121 0.89384 0.0
C1804 C 0.22634 0.4668 0.90022 0.0
C1805 C 0.21216 0.44932 0.89735 0.0
U1806 U 0.19924 0.38032 0.88019 0.0
O1807 O 0.1796 0.35391 0.89094 0.0
O1808 O 0.17718 0.36125 0.86553 0.0
C1809 C 0.17041 0.34908 0.87758 0.0
C1810 C 0.20013 0.4141 0.89027 0.0
C1811 C 0.15117 0.34073 0.87971 0.0
C1812 C 0.12389 0.33944 0.89275 0.0
C1813 C 0.14207 0.3489 0.8902 0.0
C1814 C 0.12381 0.31377 0.87424 0.0
C1815 C 0.11451 0.32159 0.88493 0.0
C1816 C 0.14185 0.32325 0.87165 0.0
C1817 C 0.23666 0.36392 0.86701 0.0
C1818 C 0.23604 0.33135 0.86624 0.0
C1819 C 0.26165 0.35793 0.85598 0.0
C1820 C 0.25343 0.37063 0.85966 0.0
C1821 C 0.25324 0.33822 0.85961 0.0
C1822 C 0.22782 0.34413 0.86995 0.0
C1823 C 0.22941 0.37811 0.87257 0.0
O1824 O 0.19754 0.4081 0.87495 0.0
O1825 O 0.19922 0.40036 0.90031 0.0
O1826 O 0.22256 0.37595 0.88752 0.0
O1827 O 0.22025 0.38275 0.86197 0.0
H1828 H 0.23473 0.4211 0.88748 0.0
H1829 H 0.25948 0.45138 0.89273 0.0
H1830 H 0.2237 0.4794 0.90366 0.0
H1831 H 0.19897 0.44878 0.89879 0.0
H1832 H 0.11722 0.3461 0.90089 0.0
H1833 H 0.14902 0.36239 0.89657 0.0
H1834 H 0.11731 0.29995 0.8682 0.0
H1835 H 0.14864 0.31661 0.86359 0.0
H1836 H 0.22927 0.31629 0.8693 0.0
H1837 H 0.27479 0.36362 0.85068 0.0
H1838 H 0.26042 0.38585 0.85724 0.0
H1839 H 0.21483 0.33867 0.87561 0.0
C1840 C 0.2784 0.4802 0.58322 0.0
C1841 C 0.29602 0.4837 0.58563 0.0
C1842 C 0.29135 0.451 0.57621 0.0
C1843 C 0.30243 0.46927 0.58217 0.0
C1844 C 0.27363 0.44755 0.57401 0.0
C1845 C 0.26725 0.462 0.57747 0.0
U1846 U 0.2857 0.53133 0.59723 0.0
O1847 O 0.27722 0.55296 0.58677 0.0
O1848 O 0.26949 0.5432 0.61203 0.0
C1849 C 0.26823 0.55396 0.60012 0.0
C1850 C 0.27167 0.49553 0.58631 0.0
C1851 C 0.25103 0.55522 0.59811 0.0
C1852 C 0.22005 0.54517 0.60541 0.0
C1853 C 0.23552 0.54181 0.6052 0.0
C1854 C 0.23507 0.57495 0.59086 0.0
C1855 C 0.2197 0.56202 0.59858 0.0
C1856 C 0.25053 0.5716 0.59068 0.0
C1857 C 0.33221 0.56321 0.61168 0.0
C1858 C 0.35238 0.59649 0.60769 0.0
C1859 C 0.3541 0.57967 0.63198 0.0
C1860 C 0.34012 0.56322 0.62661 0.0
C1861 C 0.3606 0.59638 0.62242 0.0
C1862 C 0.33835 0.58013 0.60239 0.0
C1863 C 0.31866 0.54506 0.60547 0.0
O1864 O 0.2706 0.50043 0.60177 0.0
O1865 O 0.27831 0.5105 0.57665 0.0
O1866 O 0.31362 0.54509 0.5904 0.0
O1867 O 0.30566 0.53575 0.6157 0.0
H1868 H 0.30488 0.49769 0.59 0.0
H1869 H 0.31618 0.47263 0.58379 0.0
H1870 H 0.26463 0.43364 0.56966 0.0
H1871 H 0.2536 0.45899 0.57555 0.0
H1872 H 0.2084 0.53468 0.61118 0.0
H1873 H 0.23545 0.52903 0.61103 0.0
H1874 H 0.2354 0.58813 0.58558 0.0
H1875 H 0.26233 0.58228 0.58528 0.0
H1876 H 0.3569 0.60925 0.60018 0.0
H1877 H 0.36019 0.5791 0.64334 0.0
H1878 H 0.33574 0.55033 0.63395 0.0
H1879 H 0.33257 0.58067 0.59084 0.0
C1880 C 0.3777 0.70053 0.33466 0.0
C1881 C 0.38609 0.71788 0.32629 0.0
C1882 C 0.41423 0.72067 0.33625 0.0
C1883 C 0.40417 0.72784 0.32704 0.0
C1884 C 0.40594 0.70246 0.34354 0.0
C1885 C 0.38779 0.69249 0.3428 0.0
U1886 U 0.33086 0.66131 0.34246 0.0
O1887 O 0.33128 0.63479 0.3309 0.0
O1888 O 0.33544 0.63981 0.35728 0.0
C1889 C 0.33269 0.62749 0.34496 0.0
C1890 C 0.35854 0.69298 0.33677 0.0
C1891 C 0.31975 0.60788 0.34828 0.0
C1892 C 0.31316 0.57515 0.35705 0.0
C1893 C 0.32531 0.59377 0.35368 0.0
C1894 C 0.28966 0.5845 0.34962 0.0
C1895 C 0.29516 0.57023 0.35505 0.0
C1896 C 0.30184 0.60316 0.34632 0.0
C1897 C 0.29485 0.68081 0.34673 0.0
C1898 C 0.29034 0.70668 0.33294 0.0
C1899 C 0.28119 0.7001 0.3614 0.0
C1900 C 0.28724 0.68518 0.3611 0.0
C1901 C 0.28242 0.71087 0.34726 0.0
C1902 C 0.29653 0.69187 0.33269 0.0
C1903 C 0.30071 0.6646 0.34662 0.0
O1904 O 0.35221 0.68704 0.35153 0.0
O1905 O 0.34919 0.68199 0.32498 0.0
O1906 O 0.30621 0.65998 0.33245 0.0
O1907 O 0.3105 0.66451 0.35886 0.0
H1908 H 0.37853 0.72432 0.31995 0.0
H1909 H 0.41015 0.74162 0.321 0.0
H1910 H 0.41324 0.69651 0.35076 0.0
H1911 H 0.38155 0.67912 0.3494 0.0
H1912 H 0.31788 0.56469 0.36149 0.0
H1913 H 0.33907 0.59719 0.35538 0.0
H1914 H 0.27596 0.58123 0.34776 0.0
H1915 H 0.29727 0.6139 0.34221 0.0
H1916 H 0.29131 0.71444 0.32173 0.0
H1917 H 0.27544 0.70309 0.37272 0.0
H1918 H 0.28587 0.67694 0.37211 0.0
H1919 H 0.30238 0.68895 0.3214 0.0
H1920 H 0.12267 0.34423 0.18981 0.0
H1921 H 0.10594 0.30586 0.14837 0.0
H1922 H 0.06956 0.30298 0.18831 0.0
C1923 C 0.11252 0.33241 0.18368 0.0
C1924 C 0.09577 0.32431 0.19101 0.0
C1925 C 0.11626 0.32592 0.16833 0.0
C1926 C 0.10302 0.31093 0.1602 0.0
C1927 C 0.08613 0.30248 0.16748 0.0
C1928 C 0.08255 0.30947 0.18273 0.0
N1929 N 0.0725 0.28685 0.15995 0.0
C1930 C 0.07483 0.27671 0.14619 0.0
H1931 H 0.78396 0.77607 0.4021 0.0
H1932 H 0.78769 0.76338 0.3508 0.0
H1933 H 0.81646 0.74619 0.3855 0.0
C1934 C 0.78945 0.77002 0.39227 0.0
C1935 C 0.80093 0.7612 0.39591 0.0
C1936 C 0.78462 0.77085 0.3761 0.0
C1937 C 0.79136 0.76269 0.36329 0.0
C1938 C 0.80293 0.75378 0.36673 0.0
C1939 C 0.80742 0.75289 0.38301 0.0
N1940 N 0.81036 0.74551 0.35427 0.0
C1941 C 0.81106 0.74918 0.33758 0.0
H1942 H 0.41268 0.6789 0.61696 0.0
H1943 H 0.42617 0.66078 0.66219 0.0
H1944 H 0.45263 0.71947 0.64638 0.0
C1945 C 0.42075 0.68209 0.62763 0.0
C1946 C 0.43314 0.70088 0.63003 0.0
C1947 C 0.41815 0.66748 0.63904 0.0
C1948 C 0.42808 0.67191 0.65333 0.0
C1949 C 0.44059 0.69076 0.65597 0.0
C1950 C 0.44293 0.70506 0.64433 0.0
N1951 N 0.45114 0.69616 0.67005 0.0
C1952 C 0.45174 0.68414 0.68251 0.0
H1953 H 0.74138 0.25916 0.8062 0.0
H1954 H 0.7431 0.27427 0.85754 0.0
H1955 H 0.71899 0.29892 0.82429 0.0
C1956 C 0.73879 0.26751 0.8162 0.0
C1957 C 0.72966 0.27931 0.81321 0.0
C1958 C 0.74376 0.26559 0.83214 0.0
C1959 C 0.7393 0.27555 0.84522 0.0
C1960 C 0.73032 0.28753 0.84236 0.0
C1961 C 0.72583 0.28956 0.82637 0.0
N1962 N 0.72557 0.29775 0.85524 0.0
C1963 C 0.72327 0.29219 0.87155 0.0
H1964 H 0.2507 0.75794 0.31282 0.0
H1965 H 0.23926 0.76673 0.36335 0.0
H1966 H 0.21455 0.78472 0.32543 0.0
C1967 C 0.24391 0.76339 0.32194 0.0
C1968 C 0.23217 0.77132 0.31693 0.0
C1969 C 0.24639 0.76149 0.33859 0.0
C1970 C 0.23743 0.76829 0.35048 0.0
C1971 C 0.22625 0.77713 0.34569 0.0
C1972 C 0.22372 0.77861 0.32896 0.0
N1973 N 0.217 0.78429 0.35731 0.0
C1974 C 0.21549 0.78044 0.37399 0.0
H1975 H 0.62428 0.85452 0.70183 0.0
H1976 H 0.61604 0.80874 0.6665 0.0
H1977 H 0.57731 0.80309 0.70484 0.0
C1978 C 0.61611 0.84042 0.69705 0.0
C1979 C 0.59996 0.82994 0.70485 0.0
C1980 C 0.62204 0.83284 0.68334 0.0
C1981 C 0.61143 0.81463 0.67706 0.0
C1982 C 0.59527 0.80379 0.68489 0.0
C1983 C 0.58974 0.81145 0.69885 0.0
N1984 N 0.58441 0.78503 0.67931 0.0
C1985 C 0.58664 0.77693 0.66431 0.0
H1986 H 0.29088 0.29266 0.88697 0.0
H1987 H 0.28921 0.27705 0.83579 0.0
H1988 H 0.30997 0.24968 0.87013 0.0
C1989 C 0.29367 0.2843 0.87708 0.0
C1990 C 0.30116 0.2711 0.88058 0.0
C1991 C 0.28922 0.28645 0.86104 0.0
C1992 C 0.29257 0.2754 0.84819 0.0
C1993 C 0.30018 0.26217 0.85151 0.0
C1994 C 0.3041 0.25988 0.8677 0.0
N1995 N 0.30381 0.25059 0.83906 0.0
C1996 C 0.30664 0.25498 0.82246 0.0
H1997 H 0.9139 0.17769 0.10476 0.0
H1998 H 0.92723 0.16044 0.15046 0.0
H1999 H 0.95471 0.21839 0.13331 0.0
C2000 C 0.92211 0.18098 0.11534 0.0
C2001 C 0.93488 0.19966 0.1173 0.0
C2002 C 0.91923 0.1667 0.12714 0.0
C2003 C 0.92936 0.17131 0.14129 0.0
C2004 C 0.94222 0.19003 0.14351 0.0
C2005 C 0.94477 0.20405 0.13155 0.0
N2006 N 0.95273 0.19558 0.15761 0.0
C2007 C 0.95391 0.18345 0.16972 0.0
H2008 H 0.17358 0.13447 0.40679 0.0
H2009 H 0.13201 0.14491 0.38435 0.0
H2010 H 0.14084 0.09348 0.37221 0.0
C2011 C 0.16254 0.12982 0.39879 0.0
C2012 C 0.15829 0.11239 0.38995 0.0
C2013 C 0.15325 0.14174 0.39685 0.0
C2014 C 0.1393 0.13592 0.3859 0.0
C2015 C 0.13482 0.11844 0.377 0.0
C2016 C 0.14442 0.10694 0.37905 0.0
N2017 N 0.12096 0.11184 0.36572 0.0
C2018 C 0.10886 0.12 0.36293 0.0
H2019 H 0.19226 0.96944 0.65276 0.0
H2020 H 0.17915 0.91754 0.62334 0.0
H2021 H 0.23192 0.95961 0.62315 0.0
C2022 C 0.19602 0.96058 0.644 0.0
C2023 C 0.21354 0.96673 0.63855 0.0
C2024 C 0.18351 0.94274 0.63873 0.0
C2025 C 0.1887 0.93119 0.62761 0.0
C2026 C 0.20622 0.93736 0.622 0.0
C2027 C 0.21847 0.95494 0.62763 0.0
N2028 N 0.21224 0.92641 0.61079 0.0
C2029 C 0.20183 0.90993 0.6023 0.0
H2030 H 0.43185 0.88119 0.90354 0.0
H2031 H 0.39174 0.90354 0.91144 0.0
H2032 H 0.43446 0.93085 0.87711 0.0
C2033 C 0.42644 0.89172 0.90084 0.0
C2034 C 0.43496 0.90591 0.88917 0.0
C2035 C 0.41096 0.8908 0.90904 0.0
C2036 C 0.40369 0.90419 0.90522 0.0
C2037 C 0.41236 0.91885 0.89381 0.0
C2038 C 0.42801 0.91971 0.88604 0.0
N2039 N 0.40605 0.93327 0.89 0.0
C2040 C 0.38898 0.93198 0.89262 0.0
H2041 H 0.3343 0.02736 0.10978 0.0
H2042 H 0.33969 0.07683 0.08147 0.0
H2043 H 0.29189 0.02617 0.08066 0.0
C2044 C 0.32895 0.03432 0.10132 0.0
C2045 C 0.31188 0.02441 0.09591 0.0
C2046 C 0.33913 0.05318 0.09618 0.0
C2047 C 0.33197 0.06228 0.08544 0.0
C2048 C 0.31493 0.05243 0.07972 0.0
C2049 C 0.30508 0.03354 0.08491 0.0
N2050 N 0.3071 0.06095 0.06886 0.0
C2051 C 0.31438 0.07997 0.06362 0.0
H2052 H 0.06736 0.76704 0.11199 0.0
H2053 H 0.01381 0.75459 0.12597 0.0
H2054 H 0.05496 0.79188 0.15629 0.0
C2055 C 0.05782 0.76877 0.12063 0.0
C2056 C 0.06345 0.78111 0.13424 0.0
C2057 C 0.04001 0.75899 0.11771 0.0
C2058 C 0.02751 0.76137 0.12863 0.0
C2059 C 0.03292 0.77273 0.14293 0.0
C2060 C 0.05087 0.78253 0.14561 0.0
N2061 N 0.0209 0.77508 0.15478 0.0
C2062 C 1.00275 0.76758 0.15378 0.0
H2063 H 0.3263 0.84401 0.45822 0.0
H2064 H 0.30209 0.88184 0.44362 0.0
H2065 H 0.33227 0.89434 0.48747 0.0
C2066 C 0.32317 0.85653 0.4608 0.0
C2067 C 0.33038 0.86836 0.47434 0.0
C2068 C 0.31303 0.86125 0.44974 0.0
C2069 C 0.30973 0.87807 0.45231 0.0
C2070 C 0.31644 0.8899 0.4662 0.0
C2071 C 0.32682 0.88501 0.47702 0.0
N2072 N 0.31328 0.90689 0.46972 0.0
C2073 C 0.30507 0.91523 0.45963 0.0
H2074 H 0.45429 0.20735 0.61627 0.0
H2075 H 0.51016 0.22472 0.61419 0.0
H2076 H 0.47939 0.1888 0.65319 0.0
C2077 C 0.46615 0.20715 0.62123 0.0
C2078 C 0.46501 0.19693 0.63555 0.0
C2079 C 0.48236 0.21749 0.61345 0.0
C2080 C 0.49764 0.21704 0.62006 0.0
C2081 C 0.49655 0.20668 0.63447 0.0
C2082 C 0.48022 0.19675 0.6421 0.0
N2083 N 0.51129 0.20525 0.64162 0.0
C2084 C 0.52875 0.21746 0.6393 0.0
H2085 H 0.17331 0.15541 0.92065 0.0
H2086 H 0.20188 0.12261 0.90064 0.0
H2087 H 0.18127 0.11341 0.95033 0.0
C2088 C 0.17871 0.1446 0.92225 0.0
C2089 C 0.17615 0.13508 0.93724 0.0
C2090 C 0.188 0.14033 0.90911 0.0
C2091 C 0.19468 0.12592 0.91077 0.0
C2092 C 0.1921 0.1161 0.92576 0.0
C2093 C 0.1829 0.1208 0.9388 0.0
N2094 N 0.19864 0.10162 0.92862 0.0
C2095 C 0.20765 0.09416 0.91758 0.0
H2096 H 0.82811 0.34356 0.94465 0.0
H2097 H 0.80259 0.38152 0.93383 0.0
H2098 H 0.83247 0.39053 0.97759 0.0
C2099 C 0.8246 0.35559 0.94824 0.0
C2100 C 0.83145 0.36619 0.96248 0.0
C2101 C 0.81421 0.36093 0.9379 0.0
C2102 C 0.81047 0.37726 0.94189 0.0
C2103 C 0.81686 0.38781 0.95645 0.0
C2104 C 0.82737 0.38222 0.96656 0.0
N2105 N 0.81314 0.40407 0.96151 0.0
C2106 C 0.80497 0.41336 0.95239 0.0
H2107 H 0.95584 0.70616 0.12873 0.0
H2108 H 0.99468 0.71888 0.12703 0.0
H2109 H 0.98092 0.68592 0.16447 0.0
C2110 C 0.96775 0.70586 0.13347 0.0
C2111 C 0.96685 0.69486 0.14719 0.0
C2112 C 0.98493 0.71735 0.12558 0.0
C2113 C 1.00172 0.71606 0.13288 0.0
C2114 C 0.99894 0.70465 0.14683 0.0
C2115 C 0.98212 0.69446 0.15367 0.0
N2116 N 0.0133 0.70309 0.1546 0.0
C2117 C 0.03059 0.71594 0.15253 0.0
H2118 H 0.69013 0.66318 0.4468 0.0
H2119 H 0.70851 0.62571 0.41803 0.0
H2120 H 0.68297 0.60762 0.46512 0.0
C2121 C 0.69229 0.6499 0.44554 0.0
C2122 C 0.6859 0.63607 0.45786 0.0
C2123 C 0.70031 0.6463 0.43109 0.0
C2124 C 0.70253 0.62871 0.42921 0.0
C2125 C 0.69648 0.61484 0.44169 0.0
C2126 C 0.68791 0.61849 0.45572 0.0
N2127 N 0.69778 0.59659 0.44036 0.0
C2128 C 0.71013 0.59221 0.43099 0.0
H2129 H 0.93433 0.37921 0.39226 0.0
H2130 H 0.89533 0.4026 0.403 0.0
H2131 H 0.9367 0.42977 0.36739 0.0
C2132 C 0.92902 0.39001 0.3902 0.0
C2133 C 0.93727 0.40438 0.37859 0.0
C2134 C 0.91401 0.38929 0.39917 0.0
C2135 C 0.90691 0.40306 0.39617 0.0
C2136 C 0.91527 0.41785 0.38479 0.0
C2137 C 0.93048 0.4185 0.37626 0.0
N2138 N 0.90912 0.43259 0.38177 0.0
C2139 C 0.89231 0.4317 0.38537 0.0
H2140 H 0.68068 0.64788 0.92117 0.0
H2141 H 0.63825 0.65793 0.90006 0.0
H2142 H 0.6463 0.60607 0.88807 0.0
C2143 C 0.66933 0.64302 0.91355 0.0
C2144 C 0.66473 0.6254 0.90493 0.0
C2145 C 0.65989 0.65487 0.91198 0.0
C2146 C 0.64561 0.64897 0.90138 0.0
C2147 C 0.64079 0.63132 0.89271 0.0
C2148 C 0.65034 0.61975 0.89463 0.0
N2149 N 0.62651 0.62436 0.88191 0.0
C2150 C 0.61499 0.63295 0.87811 0.0
H2151 H 0.90587 0.6695 0.88092 0.0
H2152 H 0.92107 0.64533 0.8377 0.0
H2153 H 0.95975 0.6913 0.86449 0.0
C2154 C 0.91595 0.66958 0.87206 0.0
C2155 C 0.93332 0.68224 0.87434 0.0
C2156 C 0.9114 0.65634 0.8589 0.0
C2157 C 0.92452 0.65562 0.8478 0.0
C2158 C 0.94204 0.6684 0.84982 0.0
C2159 C 0.94626 0.68153 0.86307 0.0
N2160 N 0.95592 0.66861 0.83899 0.0
C2161 C 0.95439 0.65756 0.82474 0.0
H2162 H 0.25656 0.25422 0.68273 0.0
H2163 H 0.27239 0.27684 0.6343 0.0
H2164 H 0.24609 0.30277 0.66764 0.0
C2165 C 0.25759 0.2648 0.67356 0.0
C2166 C 0.25025 0.2784 0.677 0.0
C2167 C 0.26575 0.26426 0.65832 0.0
C2168 C 0.2663 0.27736 0.64617 0.0
C2169 C 0.25935 0.29144 0.64958 0.0
C2170 C 0.25169 0.29214 0.66513 0.0
N2171 N 0.25977 0.30502 0.63765 0.0
C2172 C 0.25954 0.30152 0.6208 0.0
H2173 H 0.62071 0.36026 0.33844 0.0
H2174 H 0.62076 0.31565 0.3702 0.0
H2175 H 0.57948 0.30379 0.33614 0.0
C2176 C 0.61463 0.34558 0.34277 0.0
C2177 C 0.59906 0.33288 0.33582 0.0
C2178 C 0.62256 0.33949 0.35514 0.0
C2179 C 0.61464 0.32043 0.36074 0.0
C2180 C 0.59913 0.30749 0.35373 0.0
C2181 C 0.5915 0.31381 0.34135 0.0
N2182 N 0.59088 0.28795 0.3586 0.0
C2183 C 0.59597 0.27997 0.37158 0.0
H2184 H 0.30924 0.77664 0.14123 0.0
H2185 H 0.31122 0.76785 0.19283 0.0
H2186 H 0.34765 0.75738 0.15884 0.0
C2187 C 0.31515 0.77253 0.1513 0.0
C2188 C 0.32934 0.76722 0.14807 0.0
C2189 C 0.30844 0.77267 0.16732 0.0
C2190 C 0.3163 0.76767 0.18044 0.0
C2191 C 0.33041 0.76192 0.17734 0.0
C2192 C 0.3367 0.7616 0.16115 0.0
N2193 N 0.33862 0.75622 0.19 0.0
C2194 C 0.33546 0.75742 0.20679 0.0
H2195 H 0.80767 0.27501 0.70308 0.0
H2196 H 0.81293 0.26322 0.6517 0.0
H2197 H 0.83676 0.24096 0.68719 0.0
C2198 C 0.81233 0.26799 0.69335 0.0
C2199 C 0.82253 0.25763 0.69724 0.0
C2200 C 0.80887 0.2702 0.67694 0.0
C2201 C 0.81567 0.26177 0.66434 0.0
C2202 C 0.82578 0.25126 0.66804 0.0
C2203 C 0.82903 0.24918 0.68444 0.0
N2204 N 0.83295 0.24262 0.65565 0.0
C2205 C 0.83315 0.24587 0.63891 0.0
H2206 H 0.39785 0.16004 0.36717 0.0
H2207 H 0.41406 0.13602 0.32431 0.0
H2208 H 0.45201 0.18189 0.35184 0.0
C2209 C 0.40808 0.16008 0.3585 0.0
C2210 C 0.42538 0.17271 0.36109 0.0
C2211 C 0.40386 0.14679 0.34534 0.0
C2212 C 0.41723 0.14627 0.33444 0.0
C2213 C 0.43466 0.15917 0.33672 0.0
C2214 C 0.43857 0.17212 0.3501 0.0
N2215 N 0.44879 0.15967 0.3261 0.0
C2216 C 0.44779 0.14901 0.3117 0.0
H2217 H 0.75018 0.74918 0.2001 0.0
H2218 H 0.76841 0.77045 0.15164 0.0
H2219 H 0.75287 0.80504 0.18668 0.0
C2220 C 0.753 0.76029 0.19098 0.0
C2221 C 0.75045 0.77718 0.19517 0.0
C2222 C 0.75963 0.75778 0.17541 0.0
C2223 C 0.76346 0.77237 0.16374 0.0
C2224 C 0.76091 0.78943 0.16773 0.0
C2225 C 0.75481 0.79192 0.18359 0.0
N2226 N 0.76434 0.80432 0.15611 0.0
C2227 C 0.76409 0.80137 0.13918 0.0
H2228 H 0.11518 0.85266 0.8414 0.0
H2229 H 0.11418 0.81051 0.87634 0.0
H2230 H 0.07086 0.79871 0.84455 0.0
C2231 C 0.10852 0.83867 0.84699 0.0
C2232 C 0.09198 0.82653 0.8416 0.0
C2233 C 0.11667 0.83297 0.85938 0.0
C2234 C 0.10794 0.81492 0.86674 0.0
C2235 C 0.09138 0.80245 0.86127 0.0
C2236 C 0.08361 0.80831 0.84866 0.0
N2237 N 0.08216 0.78385 0.86794 0.0
C2238 C 0.08736 0.77644 0.88124 0.0
H2239 H 0.85461 0.88153 0.62477 0.0
H2240 H 0.90137 0.87828 0.64291 0.0
H2241 H 0.88948 0.92811 0.65378 0.0
C2242 C 0.86633 0.88766 0.63186 0.0
C2243 C 0.8706 0.90592 0.63923 0.0
C2244 C 0.87742 0.87765 0.63294 0.0
C2245 C 0.89283 0.88597 0.64189 0.0
C2246 C 0.89712 0.90418 0.64949 0.0
C2247 C 0.88609 0.91409 0.64791 0.0
N2248 N 0.9124 0.91319 0.65875 0.0
C2249 C 0.92347 0.90451 0.66349 0.0
H2250 H 0.86307 0.11175 0.40396 0.0
H2251 H 0.82916 0.0554 0.38629 0.0
H2252 H 0.81106 0.08416 0.42435 0.0
C2253 C 0.85073 0.09938 0.4045 0.0
C2254 C 0.83763 0.09965 0.41573 0.0
C2255 C 0.84795 0.0835 0.39379 0.0
C2256 C 0.83161 0.06766 0.39449 0.0
C2257 C 0.81833 0.06797 0.40561 0.0
C2258 C 0.82148 0.08393 0.41605 0.0
N2259 N 0.80125 0.05321 0.40626 0.0
C2260 C 0.79627 0.03422 0.40078 0.0
H2261 H 0.61517 0.13278 0.10137 0.0
H2262 H 0.65405 0.11155 0.08437 0.0
H2263 H 0.60766 0.074 0.1103 0.0
C2264 C 0.61984 0.12119 0.1006 0.0
C2265 C 0.60946 0.10313 0.10715 0.0
C2266 C 0.63584 0.12433 0.09235 0.0
C2267 C 0.64176 0.10921 0.0908 0.0
C2268 C 0.63159 0.09101 0.09743 0.0
C2269 C 0.61543 0.08806 0.10532 0.0
N2270 N 0.63677 0.0751 0.09602 0.0
C2271 C 0.65381 0.07619 0.09345 0.0
H2272 H 0.72221 1.00075 0.87845 0.0
H2273 H 0.71499 0.95132 0.90789 0.0
H2274 H 0.76558 0.99744 0.90329 0.0
C2275 C 0.72742 0.99307 0.88633 0.0
C2276 C 0.74518 1.00138 0.89018 0.0
C2277 C 0.71633 0.97503 0.89271 0.0
C2278 C 0.72337 0.96513 0.90284 0.0
C2279 C 0.74119 0.9733 0.90666 0.0
C2280 C 0.75187 0.99132 0.90034 0.0
N2281 N 0.74906 0.96408 0.9168 0.0
C2282 C 0.74067 0.94665 0.92483 0.0
H2283 H 0.96678 0.2781 0.86473 0.0
H2284 H 0.02321 0.30541 0.8617 0.0
H2285 H 0.9946 0.27002 0.82194 0.0
C2286 C 0.97914 0.28127 0.85816 0.0
C2287 C 0.97893 0.27265 0.84272 0.0
C2288 C 0.99497 0.29297 0.86545 0.0
C2289 C 0.01084 0.29611 0.85667 0.0
C2290 C 0.01065 0.28789 0.84091 0.0
C2291 C 0.9947 0.27617 0.83411 0.0
N2292 N 0.02599 0.29294 0.83082 0.0
C2293 C 0.04129 0.29105 0.83506 0.0
H2294 H 0.69056 0.15341 0.57793 0.0
H2295 H 0.71584 0.11688 0.59321 0.0
H2296 H 0.6937 0.10912 0.54524 0.0
C2297 C 0.69499 0.14184 0.57518 0.0
C2298 C 0.69124 0.13213 0.56008 0.0
C2299 C 0.70373 0.13637 0.58712 0.0
C2300 C 0.70912 0.12109 0.5839 0.0
C2301 C 0.7056 0.11127 0.56865 0.0
C2302 C 0.69659 0.11681 0.55688 0.0
N2303 N 0.7108 0.09576 0.56466 0.0
C2304 C 0.71728 0.08654 0.57565 0.0
H2305 H 0.55123 0.75264 0.43679 0.0
H2306 H 0.49832 0.7216 0.42214 0.0
H2307 H 0.53192 0.77051 0.39469 0.0
C2308 C 0.5407 0.75146 0.42883 0.0
C2309 C 0.5437 0.76451 0.41599 0.0
C2310 C 0.52451 0.73597 0.43103 0.0
C2311 C 0.51074 0.7337 0.42063 0.0
C2312 C 0.51355 0.74644 0.40757 0.0
C2313 C 0.53008 0.76122 0.40506 0.0
N2314 N 0.50069 0.74383 0.39578 0.0
C2315 C 0.48304 0.73952 0.39922 0.0
H2316 H 0.83702 0.82393 0.07311 0.0
H2317 H 0.81406 0.86536 0.08325 0.0
H2318 H 0.83491 0.86097 0.03482 0.0
C2319 C 0.833 0.83502 0.06876 0.0
C2320 C 0.83694 0.84122 0.05252 0.0
C2321 C 0.82473 0.84353 0.07982 0.0
C2322 C 0.82028 0.85865 0.07465 0.0
C2323 C 0.82386 0.86486 0.05825 0.0
C2324 C 0.83217 0.8561 0.04737 0.0
N2325 N 0.81937 0.87975 0.05205 0.0
C2326 C 0.8129 0.89161 0.06109 0.0
H2327 H 0.19182 0.65249 0.07192 0.0
H2328 H 0.21382 0.61476 0.09133 0.0
H2329 H 0.18505 0.59943 0.04666 0.0
C2330 C 0.19458 0.63956 0.07066 0.0
C2331 C 0.18746 0.62665 0.05772 0.0
C2332 C 0.20402 0.6354 0.08279 0.0
C2333 C 0.20672 0.6181 0.08184 0.0
C2334 C 0.20019 0.60525 0.0685 0.0
C2335 C 0.19047 0.60957 0.05663 0.0
N2336 N 0.20285 0.58778 0.06655 0.0
C2337 C 0.2099 0.5798 0.07807 0.0
H2338 H 0.04848 0.26521 0.92226 0.0
H2339 H 0.99437 0.23589 0.91033 0.0
H2340 H 0.03028 0.27624 0.87661 0.0
C2341 C 0.03782 0.26322 0.9142 0.0
C2342 C 0.04141 0.27319 0.89937 0.0
C2343 C 0.02103 0.24947 0.91813 0.0
C2344 C 1.00734 0.24643 0.9074 0.0
C2345 C 0.01067 0.25629 0.89247 0.0
C2346 C 0.02779 0.26904 0.8883 0.0
N2347 N 0.99732 0.25303 0.88102 0.0
C2348 C 0.97968 0.24809 0.88512 0.0
H2349 H 0.33614 0.32106 0.56046 0.0
H2350 H 0.31791 0.36565 0.57471 0.0
H2351 H 0.34753 0.36984 0.52946 0.0
C2352 C 0.33463 0.33435 0.55778 0.0
C2353 C 0.34258 0.34426 0.54348 0.0
C2354 C 0.3258 0.3419 0.56919 0.0
C2355 C 0.32461 0.35966 0.56596 0.0
C2356 C 0.33233 0.36969 0.55148 0.0
C2357 C 0.34144 0.362 0.54048 0.0
N2358 N 0.33162 0.38769 0.54758 0.0
C2359 C 0.32201 0.3968 0.55603 0.0
H2360 H 0.11788 0.63411 0.61253 0.0
H2361 H 0.15668 0.61261 0.59585 0.0
H2362 H 0.11148 0.5763 0.62402 0.0
C2363 C 0.12272 0.62265 0.61218 0.0
C2364 C 0.11275 0.605 0.61962 0.0
C2365 C 0.13848 0.62552 0.60358 0.0
C2366 C 0.14458 0.61049 0.60255 0.0
C2367 C 0.13484 0.59271 0.61006 0.0
C2368 C 0.11891 0.59004 0.61833 0.0
N2369 N 0.14021 0.57691 0.60924 0.0
C2370 C 0.15712 0.57792 0.60583 0.0
H2371 H 0.35603 0.37782 0.11096 0.0
H2372 H 0.39853 0.36955 0.13381 0.0
H2373 H 0.38285 0.41512 0.15046 0.0
C2374 C 0.36636 0.38224 0.11975 0.0
C2375 C 0.36825 0.39783 0.1304 0.0
C2376 C 0.37714 0.37179 0.12086 0.0
C2377 C 0.39004 0.3773 0.13287 0.0
C2378 C 0.39202 0.39295 0.14358 0.0
C2379 C 0.38112 0.40301 0.14223 0.0
N2380 N 0.40468 0.39914 0.15595 0.0
C2381 C 0.41682 0.39128 0.15914 0.0
H2382 H 0.69338 0.47038 0.15224 0.0
H2383 H 0.6792 0.42068 0.11995 0.0
H2384 H 0.73215 0.46225 0.12013 0.0
C2385 C 0.6969 0.46191 0.14292 0.0
C2386 C 0.7143 0.46828 0.13707 0.0
C2387 C 0.6841 0.44468 0.13693 0.0
C2388 C 0.68887 0.43402 0.12459 0.0
C2389 C 0.70627 0.44043 0.11856 0.0
C2390 C 0.7188 0.45739 0.12492 0.0
N2391 N 0.71188 0.43035 0.10617 0.0
C2392 C 0.70134 0.41365 0.09803 0.0
H2393 H 0.82587 0.52821 0.63816 0.0
H2394 H 0.83872 0.57846 0.6082 0.0
H2395 H 0.78845 0.53211 0.60498 0.0
C2396 C 0.82239 0.53593 0.62884 0.0
C2397 C 0.80563 0.52782 0.62226 0.0
C2398 C 0.83453 0.55417 0.62381 0.0
C2399 C 0.82952 0.56451 0.61227 0.0
C2400 C 0.81277 0.55651 0.60564 0.0
C2401 C 0.80112 0.53824 0.61054 0.0
N2402 N 0.80707 0.56604 0.59378 0.0
C2403 C 0.81574 0.58505 0.5889 0.0
H2404 H 0.56892 0.27489 0.6008 0.0
H2405 H 0.51374 0.25789 0.6102 0.0
H2406 H 0.54999 0.28497 0.64839 0.0
C2407 C 0.55819 0.27438 0.60902 0.0
C2408 C 0.56165 0.2816 0.62506 0.0
C2409 C 0.54101 0.26546 0.6037 0.0
C2410 C 0.52698 0.26444 0.61438 0.0
C2411 C 0.53023 0.27139 0.63065 0.0
C2412 C 0.54754 0.2797 0.63587 0.0
N2413 N 0.51667 0.26974 0.64242 0.0
C2414 C 0.49917 0.26546 0.63931 0.0
H2415 H 0.36027 0.61951 0.91276 0.0
H2416 H 0.34129 0.55857 0.90172 0.0
H2417 H 0.31767 0.57939 0.94126 0.0
C2418 C 0.35112 0.60488 0.91505 0.0
C2419 C 0.33865 0.60146 0.92795 0.0
C2420 C 0.35238 0.58958 0.90552 0.0
C2421 C 0.34027 0.57063 0.90857 0.0
C2422 C 0.32765 0.56702 0.92137 0.0
C2423 C 0.32709 0.5824 0.9311 0.0
N2424 N 0.31751 0.54791 0.9264 0.0
C2425 C 0.30368 0.53484 0.91769 0.0
H2426 H 0.22312 0.49546 0.36416 0.0
H2427 H 0.21561 0.44189 0.38739 0.0
H2428 H 0.26712 0.48604 0.38195 0.0
C2429 C 0.22834 0.48642 0.37036 0.0
C2430 C 0.24645 0.49313 0.37255 0.0
C2431 C 0.21705 0.46786 0.37551 0.0
C2432 C 0.22413 0.45611 0.38323 0.0
C2433 C 0.24225 0.46273 0.3855 0.0
C2434 C 0.25321 0.48105 0.38002 0.0
N2435 N 0.25014 0.45145 0.39298 0.0
C2436 C 0.24147 0.43475 0.40192 0.0
H2437 H 0.47113 0.77545 0.3793 0.0
H2438 H 0.52754 0.79777 0.37901 0.0
H2439 H 0.49924 0.76364 0.3384 0.0
C2440 C 0.48352 0.77718 0.37339 0.0
C2441 C 0.48336 0.76803 0.35824 0.0
C2442 C 0.49925 0.78773 0.38129 0.0
C2443 C 0.51523 0.78935 0.3734 0.0
C2444 C 0.51517 0.78084 0.35773 0.0
C2445 C 0.49923 0.7701 0.35043 0.0
N2446 N 0.53063 0.7844 0.34802 0.0
C2447 C 0.54647 0.78477 0.35332 0.0
C2448 C 0.16545 0.34964 0.16471 0.0
C2449 C 0.16802 0.35868 0.14944 0.0
H2450 H 0.14699 0.33197 0.18251 0.0
C2451 C 0.15349 0.35518 0.13966 0.0
H2452 H 0.17633 0.35215 0.1726 0.0
C2453 C 0.13665 0.34351 0.14535 0.0
C2454 C 0.13407 0.33536 0.16098 0.0
H2455 H 0.15512 0.36179 0.12777 0.0
H2456 H 0.12558 0.34163 0.13789 0.0
C2457 C 0.14866 0.33816 0.17043 0.0
C2458 C 0.74345 0.77855 0.36722 0.0
C2459 C 0.74747 0.79719 0.37386 0.0
H2460 H 0.75232 0.75554 0.36254 0.0
C2461 C 0.76456 0.80783 0.37904 0.0
H2462 H 0.7304 0.76995 0.36317 0.0
C2463 C 0.77693 0.79957 0.37877 0.0
C2464 C 0.77261 0.78056 0.37312 0.0
H2465 H 0.76821 0.82238 0.38385 0.0
H2466 H 0.78972 0.80777 0.3836 0.0
C2467 C 0.75597 0.7703 0.36683 0.0
C2468 C 0.38936 0.62304 0.61566 0.0
C2469 C 0.37622 0.61349 0.62738 0.0
H2470 H 0.41313 0.64713 0.61031 0.0
C2471 C 0.37797 0.62074 0.64359 0.0
H2472 H 0.38865 0.61756 0.60319 0.0
C2473 C 0.39209 0.6378 0.6477 0.0
C2474 C 0.40472 0.64786 0.6357 0.0
H2475 H 0.36806 0.61367 0.6529 0.0
H2476 H 0.39268 0.64359 0.66005 0.0
C2477 C 0.40343 0.63994 0.61977 0.0
C2478 C 0.75612 0.22718 0.85085 0.0
C2479 C 0.76875 0.22587 0.83945 0.0
H2480 H 0.73825 0.24051 0.85744 0.0
C2481 C 0.77381 0.23853 0.82613 0.0
H2482 H 0.75213 0.2179 0.86141 0.0
C2483 C 0.76601 0.25171 0.82398 0.0
C2484 C 0.75297 0.25257 0.83509 0.0
H2485 H 0.78343 0.23788 0.81706 0.0
H2486 H 0.7701 0.26113 0.8135 0.0
C2487 C 0.74831 0.24034 0.84869 0.0
C2488 C 0.2585 0.72229 0.35542 0.0
C2489 C 0.27451 0.72556 0.34706 0.0
H2490 H 0.23717 0.73131 0.35944 0.0
C2491 C 0.2822 0.74225 0.33755 0.0
H2492 H 0.25205 0.70951 0.36271 0.0
C2493 C 0.27353 0.75462 0.33556 0.0
C2494 C 0.25708 0.7507 0.34319 0.0
H2495 H 0.29469 0.74551 0.33124 0.0
H2496 H 0.27941 0.76691 0.3276 0.0
C2497 C 0.24992 0.73478 0.35357 0.0
C2498 C 0.67037 0.86359 0.68016 0.0
C2499 C 0.67278 0.86828 0.66347 0.0
H2500 H 0.65245 0.84857 0.69941 0.0
C2501 C 0.65852 0.86029 0.65307 0.0
H2502 H 0.68104 0.86964 0.68851 0.0
C2503 C 0.64209 0.84811 0.65934 0.0
C2504 C 0.63964 0.84399 0.67614 0.0
H2505 H 0.66006 0.86354 0.64012 0.0
H2506 H 0.6312 0.84243 0.65119 0.0
C2507 C 0.65398 0.85163 0.68643 0.0
C2508 C 0.25516 0.30637 0.85186 0.0
C2509 C 0.26303 0.32537 0.858 0.0
H2510 H 0.25754 0.27918 0.84763 0.0
C2511 C 0.28019 0.33181 0.86363 0.0
H2512 H 0.242 0.30104 0.84736 0.0
C2513 C 0.28897 0.31937 0.8638 0.0
C2514 C 0.28091 0.30024 0.8582 0.0
H2515 H 0.28657 0.34626 0.86862 0.0
H2516 H 0.30191 0.32452 0.86882 0.0
C2517 C 0.26408 0.29394 0.85185 0.0
C2518 C 0.88836 0.12193 0.10552 0.0
C2519 C 0.87564 0.11326 0.11784 0.0
H2520 H 0.91233 0.14516 0.09895 0.0
C2521 C 0.87827 0.12127 0.13378 0.0
H2522 H 0.88696 0.11585 0.09322 0.0
C2523 C 0.89288 0.13816 0.13708 0.0
C2524 C 0.90515 0.14732 0.12452 0.0
H2525 H 0.86869 0.1149 0.14353 0.0
H2526 H 0.89415 0.14452 0.14927 0.0
C2527 C 0.90294 0.13869 0.10883 0.0
C2528 C 0.17009 0.17976 0.43057 0.0
C2529 C 0.17208 0.19678 0.42248 0.0
H2530 H 0.16225 0.14911 0.429 0.0
C2531 C 0.1669 0.19535 0.4061 0.0
H2532 H 0.1736 0.18022 0.44326 0.0
C2533 C 0.16027 0.17746 0.39795 0.0
C2534 C 0.15873 0.16054 0.40592 0.0
H2535 H 0.16844 0.20814 0.39938 0.0
H2536 H 0.15693 0.17698 0.3852 0.0
C2537 C 0.16351 0.1619 0.4224 0.0
C2538 C 0.13987 0.9432 0.65377 0.0
C2539 C 0.13103 0.92423 0.65932 0.0
H2540 H 0.16324 0.96383 0.64277 0.0
C2541 C 0.13938 0.91122 0.65755 0.0
H2542 H 0.13387 0.95362 0.65507 0.0
C2543 C 0.15625 0.91709 0.65054 0.0
C2544 C 0.16519 0.93615 0.64525 0.0
H2545 H 0.13285 0.89645 0.66154 0.0
H2546 H 0.16244 0.90683 0.64962 0.0
C2547 C 0.15676 0.94909 0.64685 0.0
C2548 C 0.37838 0.84641 0.93025 0.0
C2549 C 0.38914 0.84244 0.94129 0.0
H2550 H 0.37684 0.86501 0.91138 0.0
C2551 C 0.40638 0.85589 0.943 0.0
H2552 H 0.36505 0.83631 0.9286 0.0
C2553 C 0.41307 0.87219 0.93317 0.0
C2554 C 0.4027 0.87551 0.92139 0.0
H2555 H 0.4149 0.85354 0.95165 0.0
H2556 H 0.42662 0.8819 0.93437 0.0
C2557 C 0.3851 0.86283 0.9204 0.0
C2558 C 0.38343 0.0617 0.11304 0.0
C2559 C 0.38815 0.0801 0.12031 0.0
H2560 H 0.36447 0.03898 0.09942 0.0
C2561 C 0.37761 0.09052 0.1178 0.0
H2562 H 0.39113 0.05319 0.11476 0.0
C2563 C 0.36214 0.08223 0.10913 0.0
C2564 C 0.35689 0.06334 0.10282 0.0
H2565 H 0.38101 0.10486 0.12299 0.0
H2566 H 0.35387 0.09023 0.10814 0.0
C2567 C 0.36802 0.05345 0.10438 0.0
C2568 C 0.03692 0.74654 0.07295 0.0
C2569 C 0.03777 0.72822 0.07295 0.0
H2570 H 0.03659 0.77059 0.08745 0.0
C2571 C 0.03573 0.71875 0.08798 0.0
H2572 H 0.0386 0.75437 0.06167 0.0
C2573 C 0.03454 0.72812 0.10273 0.0
C2574 C 0.03521 0.74701 0.1027 0.0
H2575 H 0.036 0.70452 0.08842 0.0
H2576 H 0.03427 0.72111 0.11418 0.0
C2577 C 0.03573 0.75587 0.08771 0.0
C2578 C 0.29795 0.81569 0.4254 0.0
C2579 C 0.31026 0.82119 0.41226 0.0
H2580 H 0.28875 0.82468 0.4477 0.0
C2581 C 0.31955 0.84099 0.40935 0.0
H2582 H 0.29032 0.80059 0.42778 0.0
C2583 C 0.31834 0.8548 0.4206 0.0
C2584 C 0.30784 0.849 0.43489 0.0
H2585 H 0.32918 0.84578 0.39939 0.0
H2586 H 0.32716 0.86973 0.41913 0.0
C2587 C 0.29682 0.82949 0.43667 0.0
C2588 C 0.47123 0.25016 0.5858 0.0
C2589 C 0.47839 0.24743 0.57056 0.0
H2590 H 0.46667 0.24261 0.61098 0.0
C2591 C 0.48836 0.23597 0.56975 0.0
H2592 H 0.46321 0.25856 0.58686 0.0
C2593 C 0.49062 0.227 0.58388 0.0
C2594 C 0.4827 0.22911 0.59891 0.0
H2595 H 0.49403 0.23359 0.55816 0.0
H2596 H 0.49774 0.21764 0.58287 0.0
C2597 C 0.47324 0.24102 0.5997 0.0
C2598 C 0.20081 0.18404 0.88294 0.0
C2599 C 0.18745 0.17794 0.87146 0.0
H2600 H 0.21174 0.17647 0.90372 0.0
C2601 C 0.17661 0.15818 0.87053 0.0
H2602 H 0.20955 0.19907 0.88384 0.0
C2603 C 0.17808 0.1452 0.88179 0.0
C2604 C 0.19052 0.15171 0.89406 0.0
H2605 H 0.1661 0.15299 0.86195 0.0
H2606 H 0.1686 0.13044 0.88175 0.0
C2607 C 0.20227 0.17107 0.89416 0.0
C2608 C 0.79977 0.31791 0.9097 0.0
C2609 C 0.80858 0.32613 0.89503 0.0
H2610 H 0.7942 0.3228 0.93484 0.0
C2611 C 0.81591 0.34637 0.89376 0.0
H2612 H 0.79369 0.30239 0.91096 0.0
C2613 C 0.81599 0.35807 0.90743 0.0
C2614 C 0.80872 0.34969 0.92251 0.0
H2615 H 0.82283 0.35315 0.88264 0.0
H2616 H 0.8231 0.37353 0.90659 0.0
C2617 C 0.79986 0.32957 0.92331 0.0
C2618 C 0.96887 0.74992 0.09984 0.0
C2619 C 0.97551 0.74848 0.08398 0.0
H2620 H 0.96679 0.74167 0.12493 0.0
C2621 C 0.98637 0.73812 0.08171 0.0
H2622 H 0.96031 0.75756 0.10205 0.0
C2623 C 0.98995 0.72888 0.09494 0.0
C2624 C 0.98259 0.72967 0.11054 0.0
H2625 H 0.99184 0.7369 0.06969 0.0
H2626 H 0.99786 0.72047 0.09292 0.0
C2627 C 0.97239 0.74066 0.11293 0.0
C2628 C 0.69597 0.66926 0.39191 0.0
C2629 C 0.70426 0.68901 0.39594 0.0
H2630 H 0.68852 0.6401 0.39988 0.0
C2631 C 0.71401 0.69424 0.41027 0.0
H2632 H 0.68825 0.66464 0.38105 0.0
C2633 C 0.71406 0.68016 0.42106 0.0
C2634 C 0.70452 0.6605 0.4177 0.0
H2635 H 0.72089 0.70928 0.41359 0.0
H2636 H 0.72068 0.68467 0.43255 0.0
C2637 C 0.69614 0.65514 0.40268 0.0
C2638 C 0.91017 0.35373 0.43242 0.0
C2639 C 0.89253 0.34107 0.4317 0.0
H2640 H 0.93063 0.37904 0.42295 0.0
C2641 C 0.88148 0.34571 0.42149 0.0
H2642 H 0.91895 0.35085 0.44042 0.0
C2643 C 0.88819 0.36202 0.41151 0.0
C2644 C 0.90608 0.37393 0.41153 0.0
H2645 H 0.86784 0.33622 0.42059 0.0
H2646 H 0.87961 0.36473 0.40316 0.0
C2647 C 0.91685 0.36992 0.42246 0.0
C2648 C 0.67347 0.7083 0.92213 0.0
C2649 C 0.67852 0.70934 0.93854 0.0
H2650 H 0.66364 0.6904 0.90092 0.0
C2651 C 0.67653 0.69212 0.94629 0.0
H2652 H 0.67502 0.72125 0.91565 0.0
C2653 C 0.67008 0.67447 0.93779 0.0
C2654 C 0.66538 0.6735 0.92131 0.0
H2655 H 0.67991 0.69224 0.95898 0.0
H2656 H 0.66881 0.66152 0.94414 0.0
C2657 C 0.66693 0.6906 0.91365 0.0
C2658 C 0.86233 0.63899 0.86043 0.0
C2659 C 0.85719 0.61902 0.86243 0.0
H2660 H 0.88357 0.66635 0.85742 0.0
C2661 C 0.87002 0.61114 0.86094 0.0
H2662 H 0.85291 0.64564 0.86168 0.0
C2663 C 0.8877 0.62313 0.85845 0.0
C2664 C 0.89282 0.64318 0.85754 0.0
H2665 H 0.86647 0.59579 0.86222 0.0
H2666 H 0.89743 0.61686 0.85824 0.0
C2667 C 0.87992 0.65091 0.85804 0.0
C2668 C 0.27016 0.21931 0.64109 0.0
C2669 C 0.27967 0.21532 0.65336 0.0
H2670 H 0.25857 0.23833 0.63287 0.0
C2671 C 0.28665 0.22905 0.6659 0.0
H2672 H 0.26488 0.20915 0.63111 0.0
C2673 C 0.28312 0.24571 0.66682 0.0
C2674 C 0.27263 0.24904 0.65519 0.0
H2675 H 0.29399 0.22642 0.67557 0.0
H2676 H 0.28792 0.25559 0.67708 0.0
C2677 C 0.26673 0.23609 0.64196 0.0
C2678 C 0.66779 0.379 0.35768 0.0
C2679 C 0.66943 0.38238 0.37466 0.0
H2680 H 0.65173 0.36271 0.33825 0.0
C2681 C 0.65607 0.37048 0.38528 0.0
H2682 H 0.67775 0.388 0.34916 0.0
C2683 C 0.64112 0.35595 0.379 0.0
C2684 C 0.63917 0.35323 0.36198 0.0
H2685 H 0.65704 0.37265 0.39843 0.0
H2686 H 0.63079 0.34738 0.38741 0.0
C2687 C 0.65281 0.36464 0.35142 0.0
C2688 C 0.26569 0.777 0.15963 0.0
C2689 C 0.26702 0.79333 0.16914 0.0
H2690 H 0.27761 0.7575 0.15193 0.0
C2691 C 0.28119 0.80138 0.17968 0.0
H2692 H 0.2551 0.77051 0.15126 0.0
C2693 C 0.29418 0.79385 0.18002 0.0
C2694 C 0.29326 0.77825 0.16975 0.0
H2695 H 0.28247 0.81379 0.18734 0.0
H2696 H 0.30537 0.80084 0.18763 0.0
C2697 C 0.27863 0.76957 0.15994 0.0
C2698 C 0.77493 0.29259 0.67907 0.0
C2699 C 0.78072 0.30589 0.66623 0.0
H2700 H 0.77919 0.2708 0.69247 0.0
C2701 C 0.79536 0.30675 0.65654 0.0
H2702 H 0.76376 0.29164 0.68681 0.0
C2703 C 0.80427 0.29497 0.65986 0.0
C2704 C 0.79877 0.282 0.67295 0.0
H2705 H 0.80001 0.31664 0.64642 0.0
H2706 H 0.81575 0.29638 0.6524 0.0
C2707 C 0.78389 0.2808 0.68242 0.0
C2708 C 0.35465 0.12786 0.34676 0.0
C2709 C 0.35005 0.10793 0.34848 0.0
H2710 H 0.37533 0.1557 0.34411 0.0
C2711 C 0.36329 0.10065 0.34683 0.0
H2712 H 0.34489 0.13404 0.34813 0.0
C2713 C 0.38083 0.11318 0.34448 0.0
C2714 C 0.38541 0.13318 0.34388 0.0
H2715 H 0.36016 0.08536 0.34791 0.0
H2716 H 0.39087 0.10735 0.34414 0.0
C2717 C 0.37211 0.14032 0.34452 0.0
C2718 C 0.78233 0.72413 0.16345 0.0
C2719 C 0.7699 0.70625 0.16879 0.0
H2720 H 0.78875 0.75448 0.16117 0.0
C2721 C 0.75365 0.70535 0.17514 0.0
H2722 H 0.79489 0.72526 0.15832 0.0
C2723 C 0.7501 0.72197 0.1766 0.0
C2724 C 0.76271 0.73993 0.17179 0.0
H2725 H 0.74383 0.69189 0.17951 0.0
H2726 H 0.73757 0.72083 0.18185 0.0
C2727 C 0.77874 0.74081 0.16488 0.0
C2728 C 0.15321 0.86785 0.88465 0.0
C2729 C 0.16568 0.87729 0.87229 0.0
H2730 H 0.12777 0.84615 0.89024 0.0
C2731 C 0.16286 0.87006 0.85615 0.0
H2732 H 0.155 0.87312 0.8972 0.0
C2733 C 0.14735 0.85477 0.85221 0.0
C2734 C 0.13433 0.84629 0.86432 0.0
H2735 H 0.17238 0.87671 0.84641 0.0
H2736 H 0.14521 0.85009 0.83953 0.0
C2737 C 0.13764 0.85243 0.8807 0.0
C2738 C 0.85124 0.82768 0.61583 0.0
C2739 C 0.86375 0.82415 0.60569 0.0
H2740 H 0.8458 0.84722 0.6325 0.0
C2741 C 0.88102 0.83799 0.60519 0.0
H2742 H 0.83781 0.81737 0.61643 0.0
C2743 C 0.88561 0.85509 0.61444 0.0
C2744 C 0.87298 0.8588 0.62425 0.0
H2745 H 0.891 0.83559 0.59763 0.0
H2746 H 0.89893 0.86564 0.61355 0.0
C2747 C 0.85579 0.84483 0.62496 0.0
C2748 C 0.87103 0.08186 0.35297 0.0
C2749 C 0.88878 0.09105 0.35692 0.0
H2750 H 0.84429 0.07227 0.36139 0.0
C2751 C 0.89289 0.09584 0.37344 0.0
H2752 H 0.86734 0.07761 0.34044 0.0
C2753 C 0.87964 0.09248 0.38549 0.0
C2754 C 0.8619 0.0843 0.38139 0.0
H2755 H 0.90635 0.10299 0.37699 0.0
H2756 H 0.88332 0.09678 0.39802 0.0
C2757 C 0.85777 0.07855 0.36504 0.0
C2758 C 0.65413 0.16358 0.06075 0.0
C2759 C 0.65729 0.18023 0.07054 0.0
H2760 H 0.64505 0.13265 0.0601 0.0
C2761 C 0.65569 0.1783 0.08769 0.0
H2762 H 0.65516 0.16451 0.04752 0.0
C2763 C 0.64981 0.16014 0.0948 0.0
C2764 C 0.64563 0.14346 0.08498 0.0
H2765 H 0.65846 0.19082 0.09564 0.0
H2766 H 0.64783 0.15903 0.10799 0.0
C2767 C 0.64838 0.14534 0.06793 0.0
C2768 C 0.6703 0.97126 0.88488 0.0
C2769 C 0.66173 0.95172 0.88042 0.0
H2770 H 0.69405 0.99381 0.89239 0.0
C2771 C 0.67119 0.93976 0.88041 0.0
H2772 H 0.6635 0.98093 0.88488 0.0
C2773 C 0.6888 0.9472 0.88464 0.0
C2774 C 0.69741 0.96681 0.88885 0.0
H2775 H 0.66495 0.92461 0.87719 0.0
H2776 H 0.69577 0.93767 0.88429 0.0
C2777 C 0.68789 0.97869 0.88902 0.0
C2778 C 0.97749 0.30724 0.90515 0.0
C2779 C 0.989 0.30551 0.91661 0.0
H2780 H 0.97059 0.30531 0.88005 0.0
C2781 C 1.00428 0.30337 0.91069 0.0
H2782 H 0.96565 0.30905 0.90915 0.0
C2783 C 1.00711 0.30122 0.89387 0.0
C2784 C 0.99451 0.30051 0.88258 0.0
H2785 H 0.01379 0.30271 0.9191 0.0
H2786 H 0.01874 0.29909 0.88989 0.0
C2787 C 0.98023 0.30481 0.88838 0.0
C2788 C 0.72102 0.17582 0.61874 0.0
C2789 C 0.70594 0.17212 0.62876 0.0
H2790 H 0.73219 0.16691 0.5975 0.0
C2791 C 0.69144 0.15469 0.62661 0.0
H2792 H 0.73234 0.18918 0.62009 0.0
C2793 C 0.69146 0.14197 0.61388 0.0
C2794 C 0.706 0.14639 0.60312 0.0
H2795 H 0.67974 0.15134 0.63429 0.0
H2796 H 0.67968 0.12931 0.61173 0.0
C2797 C 0.72099 0.16308 0.60591 0.0
C2798 C 0.52457 0.71382 0.47164 0.0
C2799 C 0.53212 0.70054 0.46704 0.0
H2800 H 0.51601 0.73556 0.4636 0.0
C2801 C 0.53369 0.69657 0.45023 0.0
H2802 H 0.52278 0.71696 0.48444 0.0
C2803 C 0.5293 0.70683 0.4384 0.0
C2804 C 0.52333 0.72128 0.44309 0.0
H2805 H 0.53962 0.68669 0.4461 0.0
H2806 H 0.53196 0.7046 0.42558 0.0
C2807 C 0.52041 0.72428 0.45975 0.0
C2808 C 0.83682 0.83818 0.12242 0.0
C2809 C 0.82696 0.81839 0.12487 0.0
H2810 H 0.84338 0.862 0.10607 0.0
C2811 C 0.81332 0.80858 0.11417 0.0
H2812 H 0.84748 0.84619 0.13033 0.0
C2813 C 0.81107 0.81769 0.10025 0.0
C2814 C 0.82221 0.83683 0.09692 0.0
H2815 H 0.80522 0.79346 0.11589 0.0
H2816 H 0.80164 0.80927 0.09135 0.0
C2817 C 0.83444 0.84733 0.10854 0.0
C2818 C 0.21837 0.68236 0.10543 0.0
C2819 C 0.20702 0.67708 0.11927 0.0
H2820 H 0.22674 0.6728 0.08297 0.0
C2821 C 0.1984 0.65737 0.12291 0.0
H2822 H 0.22546 0.69741 0.10247 0.0
C2823 C 0.1994 0.64328 0.11185 0.0
C2824 C 0.20901 0.64872 0.09704 0.0
H2825 H 0.18952 0.6528 0.13344 0.0
H2826 H 0.19116 0.62829 0.11403 0.0
C2827 C 0.21931 0.66829 0.09438 0.0
C2828 C 0.02966 0.23251 0.95854 0.0
C2829 C 0.02433 0.2126 0.9554 0.0
H2830 H 0.03233 0.25986 0.94926 0.0
C2831 C 0.01451 0.20463 0.94143 0.0
H2832 H 0.03728 0.2392 0.96913 0.0
C2833 C 0.01181 0.21657 0.92995 0.0
C2834 C 0.01888 0.23668 0.93226 0.0
H2835 H 0.00991 0.1893 0.93882 0.0
H2836 H 1.00553 0.21019 0.91864 0.0
C2837 C 0.02694 0.24441 0.94709 0.0
C2838 C 0.3223 0.33181 0.61458 0.0
C2839 C 0.31574 0.31152 0.61449 0.0
H2840 H 0.33057 0.35742 0.6002 0.0
C2841 C 0.30957 0.30149 0.59979 0.0
H2842 H 0.32721 0.33995 0.62572 0.0
C2843 C 0.31133 0.3115 0.58522 0.0
C2844 C 0.31948 0.33176 0.58501 0.0
H2845 H 0.30413 0.28587 0.59941 0.0
H2846 H 0.30725 0.30334 0.57392 0.0
C2847 C 0.32418 0.34184 0.59996 0.0
C2848 C 0.15739 0.6791 0.5963 0.0
C2849 C 0.15913 0.67992 0.5791 0.0
H2850 H 0.14971 0.66121 0.61749 0.0
C2851 C 0.1563 0.66273 0.57018 0.0
H2852 H 0.15992 0.69207 0.6036 0.0
C2853 C 0.15075 0.64502 0.57825 0.0
C2854 C 0.14787 0.64421 0.59533 0.0
H2855 H 0.15746 0.66281 0.55693 0.0
H2856 H 0.1477 0.63187 0.57106 0.0
C2857 C 0.15173 0.66146 0.60429 0.0
C2858 C 0.36602 0.3388 0.08321 0.0
C2859 C 0.36637 0.32164 0.08925 0.0
H2860 H 0.36952 0.36808 0.08822 0.0
C2861 C 0.37127 0.3215 0.10555 0.0
H2862 H 0.36219 0.33947 0.07079 0.0
C2863 C 0.37519 0.33786 0.11568 0.0
C2864 C 0.37437 0.35484 0.10976 0.0
H2865 H 0.37199 0.30867 0.11057 0.0
H2866 H 0.37837 0.33699 0.12829 0.0
C2867 C 0.37002 0.35517 0.0933 0.0
C2868 C 0.6344 0.42389 0.14002 0.0
C2869 C 0.63127 0.42555 0.15694 0.0
H2870 H 0.65344 0.42869 0.12042 0.0
C2871 C 0.64566 0.43337 0.16718 0.0
H2872 H 0.62362 0.41772 0.1318 0.0
C2873 C 0.66272 0.43938 0.16069 0.0
C2874 C 0.66586 0.43783 0.14377 0.0
H2875 H 0.64378 0.43507 0.18023 0.0
H2876 H 0.67346 0.44515 0.16899 0.0
C2877 C 0.65149 0.42994 0.13352 0.0
C2878 C 0.87748 0.55751 0.64117 0.0
C2879 C 0.88512 0.57699 0.64609 0.0
H2880 H 0.85578 0.53516 0.6301 0.0
C2881 C 0.87642 0.58916 0.64275 0.0
H2882 H 0.88368 0.54766 0.64365 0.0
C2883 C 0.86023 0.5819 0.63522 0.0
C2884 C 0.85233 0.56229 0.6308 0.0
H2885 H 0.88203 0.6043 0.64616 0.0
H2886 H 0.85368 0.59157 0.63331 0.0
C2887 C 0.86132 0.55027 0.6336 0.0
C2888 C 0.53861 0.22818 0.57146 0.0
C2889 C 0.54481 0.23966 0.5575 0.0
H2890 H 0.53236 0.22739 0.59705 0.0
C2891 C 0.54642 0.25898 0.55836 0.0
H2892 H 0.537 0.21319 0.57117 0.0
C2893 C 0.54336 0.26702 0.57322 0.0
C2894 C 0.53846 0.25585 0.58742 0.0
H2895 H 0.55133 0.26831 0.54789 0.0
H2896 H 0.54607 0.2823 0.5739 0.0
C2897 C 0.53561 0.23624 0.58627 0.0
C2898 C 0.39758 0.61141 0.88498 0.0
C2899 C 0.39481 0.60253 0.8694 0.0
H2900 H 0.3866 0.6141 0.90855 0.0
C2901 C 0.37803 0.58869 0.86601 0.0
H2902 H 0.41023 0.62224 0.88803 0.0
C2903 C 0.36433 0.5842 0.87775 0.0
C2904 C 0.36703 0.5935 0.89316 0.0
H2905 H 0.37546 0.58135 0.85422 0.0
H2906 H 0.35152 0.57379 0.87462 0.0
C2907 C 0.38391 0.60694 0.89669 0.0
C2908 C 0.17128 0.46657 0.37051 0.0
C2909 C 0.16228 0.44779 0.36436 0.0
H2910 H 0.19545 0.48753 0.37904 0.0
C2911 C 0.17129 0.43541 0.36253 0.0
H2912 H 0.16481 0.47655 0.37196 0.0
C2913 C 0.18891 0.44177 0.36648 0.0
C2914 C 0.198 0.46068 0.37231 0.0
H2915 H 0.16472 0.42078 0.35801 0.0
H2916 H 0.19554 0.43199 0.36456 0.0
C2917 C 0.18891 0.47294 0.37442 0.0
C2918 C 0.48092 0.80589 0.41824 0.0
C2919 C 0.48923 0.80123 0.43117 0.0
H2920 H 0.47793 0.80591 0.39235 0.0
C2921 C 0.50337 0.79584 0.42726 0.0
H2922 H 0.47049 0.81091 0.42067 0.0
C2923 C 0.50794 0.79348 0.41088 0.0
C2924 C 0.49818 0.79581 0.39806 0.0
H2925 H 0.5103 0.79233 0.43679 0.0
H2926 H 0.51838 0.78869 0.40837 0.0
C2927 C 0.4853 0.80317 0.40193 0.0
C2928 C 0.0857 0.26239 0.10419 0.0
C2929 C 0.07566 0.24238 0.10407 0.0
H2930 H 0.09323 0.28908 0.11784 0.0
C2931 C 0.06613 0.23386 0.11839 0.0
H2932 H 0.09301 0.26947 0.09333 0.0
C2933 C 0.06622 0.24513 0.13231 0.0
C2934 C 0.07585 0.26508 0.13217 0.0
H2935 H 0.05843 0.21849 0.11879 0.0
H2936 H 0.05851 0.23829 0.14309 0.0
C2937 C 0.08576 0.27365 0.11814 0.0
C2938 C 0.82106 0.74065 0.29368 0.0
C2939 C 0.82223 0.75778 0.28626 0.0
H2940 H 0.81636 0.72451 0.31588 0.0
C2941 C 0.81892 0.77179 0.29603 0.0
H2942 H 0.82327 0.72945 0.28652 0.0
C2943 C 0.81483 0.76884 0.31282 0.0
C2944 C 0.8139 0.75182 0.32009 0.0
H2945 H 0.81988 0.78523 0.29079 0.0
H2946 H 0.81268 0.77997 0.32015 0.0
C2947 C 0.81694 0.73772 0.31043 0.0
C2948 C 0.43556 0.72499 0.5891 0.0
C2949 C 0.43662 0.74347 0.59394 0.0
H2950 H 0.43397 0.69731 0.59656 0.0
C2951 C 0.43768 0.74823 0.61078 0.0
H2952 H 0.43457 0.72069 0.57629 0.0
C2953 C 0.43712 0.73468 0.62247 0.0
C2954 C 0.43543 0.71599 0.61763 0.0
H2955 H 0.43875 0.7624 0.61497 0.0
H2956 H 0.43742 0.73866 0.63533 0.0
C2957 C 0.435 0.71147 0.60077 0.0
C2958 C 0.72723 0.28036 0.76681 0.0
C2959 C 0.71007 0.27912 0.76491 0.0
H2960 H 0.74699 0.28169 0.7835 0.0
C2961 C 0.69971 0.27869 0.77904 0.0
H2962 H 0.73565 0.28098 0.75621 0.0
C2963 C 0.70621 0.27915 0.79464 0.0
C2964 C 0.72324 0.28002 0.79655 0.0
H2965 H 0.68633 0.27735 0.77808 0.0
H2966 H 0.69766 0.27819 0.80522 0.0
C2967 C 0.73373 0.28078 0.78245 0.0
C2968 C 0.1966 0.75458 0.41306 0.0
C2969 C 0.20489 0.7688 0.42495 0.0
H2970 H 0.19362 0.74726 0.38744 0.0
C2971 C 0.2172 0.7868 0.4197 0.0
H2972 H 0.18689 0.74068 0.41663 0.0
C2973 C 0.22096 0.79051 0.40296 0.0
C2974 C 0.2125 0.77631 0.39125 0.0
H2975 H 0.22399 0.79799 0.42851 0.0
H2976 H 0.23034 0.80453 0.39918 0.0
C2977 C 0.20038 0.75833 0.39636 0.0
C2978 C 0.59357 0.86682 0.73388 0.0
C2979 C 0.58892 0.8567 0.74868 0.0
H2980 H 0.60038 0.86618 0.7084 0.0
C2981 C 0.58595 0.83697 0.74851 0.0
H2982 H 0.59558 0.88191 0.7335 0.0
C2983 C 0.58862 0.8279 0.73404 0.0
C2984 C 0.59436 0.83842 0.71952 0.0
H2985 H 0.58246 0.82877 0.75971 0.0
H2986 H 0.58711 0.81297 0.73444 0.0
C2987 C 0.59628 0.85781 0.71949 0.0
C2988 C 0.31809 0.28446 0.92364 0.0
C2989 C 0.31425 0.26633 0.93063 0.0
H2990 H 0.31726 0.30015 0.90246 0.0
C2991 C 0.3065 0.2497 0.92081 0.0
H2992 H 0.32442 0.29761 0.93067 0.0
C2993 C 0.30244 0.25118 0.90452 0.0
C2994 C 0.30601 0.26933 0.89768 0.0
H2995 H 0.3032 0.2355 0.92581 0.0
H2996 H 0.29614 0.2381 0.8974 0.0
C2997 C 0.31401 0.28593 0.90742 0.0
C2998 C 0.9501 0.15425 0.20758 0.0
C2999 C 0.96778 0.16034 0.21181 0.0
H3000 H 0.93175 0.15668 0.19071 0.0
C3001 C 0.98061 0.17341 0.2014 0.0
H3002 H 0.93985 0.14407 0.21516 0.0
C3003 C 0.97594 0.18036 0.18739 0.0
C3004 C 0.95835 0.17449 0.18341 0.0
H3005 H 0.99431 0.17877 0.20431 0.0
H3006 H 0.98611 0.19075 0.17986 0.0
C3007 C 0.94544 0.1613 0.19352 0.0
C3008 C 0.06495 0.12342 0.36285 0.0
C3009 C 0.06412 0.12846 0.34648 0.0
H3010 H 0.07995 0.11694 0.38094 0.0
C3011 C 0.07899 0.13225 0.3361 0.0
H3012 H 0.05374 0.12011 0.37117 0.0
C3013 C 0.094 0.13043 0.34178 0.0
C3014 C 0.0945 0.12485 0.35795 0.0
H3015 H 0.07897 0.13639 0.32351 0.0
H3016 H 0.10503 0.13282 0.33337 0.0
C3017 C 0.07996 0.12158 0.36849 0.0
C3018 C 0.19218 0.86114 0.58385 0.0
C3019 C 0.18607 0.863 0.56839 0.0
H3020 H 0.20184 0.87479 0.60689 0.0
C3021 C 0.18325 0.87983 0.56519 0.0
H3022 H 0.19473 0.84853 0.58669 0.0
C3023 C 0.18739 0.89486 0.5768 0.0
C3024 C 0.19428 0.89322 0.59181 0.0
H3025 H 0.17833 0.88164 0.55353 0.0
H3026 H 0.18591 0.90805 0.57377 0.0
C3027 C 0.19628 0.87615 0.59543 0.0
C3028 C 0.46592 0.88771 0.86571 0.0
C3029 C 0.48086 0.9047 0.86321 0.0
H3030 H 0.43981 0.87484 0.8756 0.0
C3031 C 0.48057 0.92228 0.86919 0.0
H3032 H 0.46574 0.87389 0.86143 0.0
C3033 C 0.46563 0.92281 0.87744 0.0
C3034 C 0.45076 0.90575 0.88002 0.0
H3035 H 0.49181 0.93564 0.86735 0.0
H3036 H 0.46582 0.93652 0.88201 0.0
C3037 C 0.4511 0.88823 0.87399 0.0
C3038 C 0.3295 0.12063 0.03387 0.0
C3039 C 0.32533 0.13477 0.04254 0.0
H3040 H 0.3294 0.09205 0.03397 0.0
C3041 C 0.31885 0.13104 0.05882 0.0
H3042 H 0.33476 0.1231 0.02142 0.0
C3043 C 0.31597 0.11332 0.06599 0.0
C3044 C 0.31959 0.0991 0.05707 0.0
H3045 H 0.31531 0.14147 0.0658 0.0
H3046 H 0.31035 0.1105 0.07832 0.0
C3047 C 0.32661 0.10294 0.04107 0.0
C3048 C 0.95632 0.74181 0.16854 0.0
C3049 C 0.94938 0.75588 0.16616 0.0
H3050 H 0.97886 0.73445 0.16625 0.0
C3051 C 0.9598 0.77268 0.15759 0.0
H3052 H 0.94862 0.72859 0.17482 0.0
C3053 C 0.97697 0.77585 0.15252 0.0
C3054 C 0.98409 0.76231 0.15584 0.0
H3055 H 0.95509 0.78397 0.15565 0.0
H3056 H 0.98499 0.78938 0.14677 0.0
C3057 C 0.97354 0.74504 0.16349 0.0
C3058 C 0.35257 0.83951 0.49432 0.0
C3059 C 0.36953 0.8535 0.49642 0.0
H3060 H 0.32674 0.83333 0.48617 0.0
C3061 C 0.37254 0.87298 0.49378 0.0
H3062 H 0.34969 0.82437 0.49613 0.0
C3063 C 0.35934 0.87809 0.48784 0.0
C3064 C 0.34285 0.86385 0.48443 0.0
H3065 H 0.38533 0.88422 0.4956 0.0
H3066 H 0.36245 0.89302 0.48487 0.0
C3067 C 0.3394 0.84463 0.48845 0.0
C3068 C 0.57186 0.23172 0.65871 0.0
C3069 C 0.58371 0.2378 0.64524 0.0
H3070 H 0.54512 0.22086 0.6672 0.0
C3071 C 0.5771 0.23924 0.62987 0.0
H3072 H 0.5762 0.23004 0.67069 0.0
C3073 C 0.55907 0.23347 0.62787 0.0
C3074 C 0.54741 0.22664 0.64126 0.0
H3075 H 0.58577 0.24429 0.61926 0.0
H3076 H 0.55429 0.23373 0.61581 0.0
C3077 C 0.55396 0.22631 0.65673 0.0
C3078 C 0.15868 0.16453 0.96575 0.0
C3079 C 0.14652 0.15031 0.97571 0.0
H3080 H 0.17794 0.17103 0.94633 0.0
C3081 C 0.14487 0.1311 0.97369 0.0
H3082 H 0.16044 0.17951 0.96724 0.0
C3083 C 0.15472 0.12611 0.96145 0.0
C3084 C 0.16653 0.1403 0.95111 0.0
H3085 H 0.13554 0.11986 0.9812 0.0
H3086 H 0.15265 0.11108 0.95975 0.0
C3087 C 0.16864 0.15962 0.9537 0.0
C3088 C 0.28196 0.97111 0.09737 0.0
C3089 C 0.28285 0.96685 0.11391 0.0
H3090 H 0.29056 0.99257 0.07864 0.0
C3091 C 0.29251 0.9819 0.12456 0.0
H3092 H 0.27473 0.95983 0.08881 0.0
C3093 C 0.30153 1.00057 0.11876 0.0
C3094 C 0.30119 0.00473 0.10212 0.0
H3095 H 0.29316 0.97924 0.13744 0.0
H3096 H 0.30886 0.01177 0.12734 0.0
C3097 C 0.29104 0.98986 0.09154 0.0
C3098 C 0.78788 0.43844 0.92241 0.0
C3099 C 0.78686 0.45378 0.93215 0.0
H3100 H 0.79448 0.41345 0.92121 0.0
C3101 C 0.79084 0.45458 0.94884 0.0
H3102 H 0.78469 0.43713 0.90959 0.0
C3103 C 0.79622 0.4409 0.95543 0.0
C3104 C 0.79779 0.42613 0.94554 0.0
H3105 H 0.79053 0.46624 0.95672 0.0
H3106 H 0.79966 0.44222 0.9682 0.0
C3107 C 0.79336 0.42478 0.92904 0.0
C3108 C 0.92886 0.68218 0.17761 0.0
C3109 C 0.91494 0.67061 0.16786 0.0
H3110 H 0.95652 0.69855 0.17875 0.0
C3111 C 0.91866 0.665 0.15209 0.0
H3112 H 0.92637 0.68665 0.18984 0.0
C3113 C 0.93578 0.67192 0.14576 0.0
C3114 C 0.94955 0.6844 0.15514 0.0
H3115 H 0.90822 0.65627 0.14421 0.0
H3116 H 0.93818 0.66828 0.13323 0.0
C3117 C 0.94608 0.68887 0.17134 0.0
C3118 C 0.74618 0.57416 0.427 0.0
C3119 C 0.74075 0.56114 0.41367 0.0
H3120 H 0.74064 0.59446 0.44284 0.0
C3121 C 0.72614 0.56036 0.40499 0.0
H3122 H 0.7572 0.57503 0.43411 0.0
C3123 C 0.71669 0.57152 0.41005 0.0
C3124 C 0.72173 0.58377 0.42378 0.0
H3125 H 0.72173 0.55075 0.39453 0.0
H3126 H 0.70503 0.56997 0.40363 0.0
C3127 C 0.73671 0.58531 0.43203 0.0
C3128 C 0.10847 0.80841 0.15181 0.0
C3129 C 0.11822 0.81756 0.13778 0.0
H3130 H 0.08345 0.78974 0.16179 0.0
C3131 C 0.10986 0.81443 0.12273 0.0
H3132 H 0.11455 0.81067 0.16361 0.0
C3133 C 0.09219 0.80258 0.1217 0.0
C3134 C 0.08235 0.79347 0.13569 0.0
H3135 H 0.11702 0.82109 0.11166 0.0
H3136 H 0.08616 0.80079 0.10991 0.0
C3137 C 0.09067 0.79656 0.1508 0.0
C3138 C 0.25614 0.00473 0.65306 0.0
C3139 C 0.25297 0.02172 0.65224 0.0
H3140 H 0.24615 0.97409 0.64954 0.0
C3141 C 0.23632 0.02027 0.64773 0.0
H3142 H 0.26866 0.00521 0.65684 0.0
C3143 C 0.22334 1.00236 0.64374 0.0
C3144 C 0.22677 0.98553 0.64404 0.0
H3145 H 0.23345 0.03304 0.64677 0.0
H3146 H 0.21081 1.00176 0.63988 0.0
C3147 C 0.24323 0.98688 0.64894 0.0
C3148 C 0.85391 0.44179 0.40221 0.0
C3149 C 0.84378 0.43894 0.38818 0.0
H3150 H 0.87732 0.44145 0.41237 0.0
C3151 C 0.84978 0.43307 0.37346 0.0
H3152 H 0.84964 0.44609 0.41379 0.0
C3153 C 0.86542 0.43018 0.37278 0.0
C3154 C 0.87544 0.4331 0.38675 0.0
H3155 H 0.84254 0.43104 0.36233 0.0
H3156 H 0.86985 0.426 0.36122 0.0
C3157 C 0.86963 0.43892 0.40149 0.0
C3158 C 0.68768 0.59124 0.89431 0.0
C3159 C 0.69466 0.58969 0.90938 0.0
H3160 H 0.67328 0.60391 0.88097 0.0
C3161 C 0.69171 0.59998 0.923 0.0
H3162 H 0.68992 0.58378 0.8835 0.0
C3163 C 0.68198 0.61143 0.92161 0.0
C3164 C 0.67502 0.61305 0.90651 0.0
H3165 H 0.69671 0.59895 0.93485 0.0
H3166 H 0.67971 0.61881 0.93246 0.0
C3167 C 0.67807 0.60279 0.89288 0.0
C3168 C 0.95583 0.70907 0.91252 0.0
C3169 C 0.944 0.71702 0.91868 0.0
H3170 H 0.96172 0.69179 0.89389 0.0
C3171 C 0.92947 0.71484 0.90933 0.0
H3172 H 0.96736 0.71077 0.91921 0.0
C3173 C 0.92644 0.70428 0.89461 0.0
C3174 C 0.93778 0.69548 0.88889 0.0
H3175 H 0.92001 0.72063 0.91367 0.0
H3176 H 0.91497 0.70267 0.88788 0.0
C3177 C 0.95273 0.69839 0.89785 0.0
C3178 C 0.23604 0.29052 0.71922 0.0
C3179 C 0.22304 0.27263 0.72381 0.0
H3180 H 0.25468 0.30655 0.70057 0.0
C3181 C 0.21841 0.25722 0.71246 0.0
H3182 H 0.23983 0.30268 0.72768 0.0
C3183 C 0.22694 0.25941 0.69713 0.0
C3184 C 0.2402 0.2771 0.69267 0.0
H3185 H 0.20863 0.2432 0.71564 0.0
H3186 H 0.22338 0.24711 0.68883 0.0
C3187 C 0.24445 0.29279 0.70371 0.0
C3188 C 0.61926 0.26139 0.4009 0.0
C3189 C 0.60523 0.24964 0.411 0.0
H3190 H 0.62727 0.28054 0.38036 0.0
C3191 C 0.58824 0.24822 0.40784 0.0
H3192 H 0.63251 0.26293 0.4031 0.0
C3193 C 0.58535 0.25835 0.39497 0.0
C3194 C 0.59935 0.27006 0.38504 0.0
H3195 H 0.57712 0.23908 0.41519 0.0
H3196 H 0.57213 0.25693 0.39273 0.0
C3197 C 0.61632 0.27156 0.388 0.0
C3198 C 0.3499 0.7617 0.25015 0.0
C3199 C 0.33413 0.75757 0.2592 0.0
H3200 H 0.36254 0.765 0.22636 0.0
C3201 C 0.31869 0.75361 0.25056 0.0
H3202 H 0.36209 0.76514 0.2563 0.0
C3203 C 0.31905 0.75376 0.23337 0.0
C3204 C 0.33484 0.75791 0.22453 0.0
H3205 H 0.30627 0.75016 0.25708 0.0
H3206 H 0.307 0.75052 0.22701 0.0
C3207 C 0.35022 0.76184 0.23301 0.0
C3208 C 0.83947 0.2373 0.59417 0.0
C3209 C 0.84028 0.25457 0.58726 0.0
H3210 H 0.83652 0.22109 0.61611 0.0
C3211 C 0.83792 0.26863 0.59771 0.0
H3212 H 0.84145 0.22626 0.58659 0.0
C3213 C 0.8352 0.26565 0.61463 0.0
C3214 C 0.83473 0.24855 0.62138 0.0
H3215 H 0.83821 0.28198 0.59283 0.0
H3216 H 0.83368 0.27678 0.62245 0.0
C3217 C 0.83674 0.23434 0.61107 0.0
C3218 C 0.44347 0.12723 0.26918 0.0
C3219 C 0.46042 0.12756 0.26612 0.0
H3220 H 0.42602 0.13371 0.28625 0.0
C3221 C 0.47258 0.13421 0.27869 0.0
H3222 H 0.43369 0.12203 0.25989 0.0
C3223 C 0.46807 0.1406 0.29372 0.0
C3224 C 0.45134 0.14056 0.29657 0.0
H3225 H 0.48583 0.13508 0.27678 0.0
H3226 H 0.47786 0.14605 0.30301 0.0
C3227 C 0.43899 0.13373 0.28428 0.0
C3228 C 0.75017 0.77917 0.09774 0.0
C3229 C 0.75577 0.79552 0.08767 0.0
H3230 H 0.74853 0.76829 0.12209 0.0
C3231 C 0.76531 0.8137 0.09478 0.0
H3232 H 0.74263 0.76497 0.0928 0.0
C3233 C 0.7686 0.81551 0.11159 0.0
C3234 C 0.76246 0.79922 0.12158 0.0
H3235 H 0.77009 0.82656 0.08739 0.0
H3236 H 0.77561 0.82971 0.11683 0.0
C3237 C 0.75347 0.78102 0.11453 0.0
C3238 C 0.07877 0.85884 0.81516 0.0
C3239 C 0.07304 0.84736 0.80099 0.0
H3240 H 0.08901 0.86114 0.83914 0.0
C3241 C 0.07184 0.82818 0.80104 0.0
H3242 H 0.07949 0.87351 0.81569 0.0
C3243 C 0.07718 0.82105 0.81457 0.0
C3244 C 0.08391 0.83297 0.82827 0.0
H3245 H 0.06764 0.81899 0.7903 0.0
H3246 H 0.07689 0.80654 0.81395 0.0
C3247 C 0.08419 0.85175 0.8286 0.0
C3248 C 0.96651 0.90543 0.67618 0.0
C3249 C 0.96141 0.88891 0.68597 0.0
H3250 H 0.95826 0.92318 0.66127 0.0
C3251 C 0.94352 0.87685 0.68728 0.0
H3252 H 0.98009 0.91521 0.67508 0.0
C3253 C 0.93104 0.88153 0.67937 0.0
C3254 C 0.93626 0.89826 0.67001 0.0
H3255 H 0.93915 0.8639 0.69454 0.0
H3256 H 0.91732 0.87233 0.6809 0.0
C3257 C 0.95404 0.91005 0.6683 0.0
C3258 C 0.84962 0.15109 0.43152 0.0
C3259 C 0.84404 0.14818 0.44809 0.0
H3260 H 0.85194 0.13811 0.40831 0.0
C3261 C 0.83704 0.1292 0.45399 0.0
H3262 H 0.85488 0.16545 0.42646 0.0
C3263 C 0.83522 0.11356 0.44355 0.0
C3264 C 0.84049 0.11646 0.42695 0.0
H3265 H 0.83299 0.12637 0.46675 0.0
H3266 H 0.8297 0.09914 0.44849 0.0
C3267 C 0.84792 0.13542 0.42108 0.0
C3268 C 0.56096 0.08121 0.11918 0.0
C3269 C 0.55894 0.09606 0.12879 0.0
H3270 H 0.57831 0.07175 0.1048 0.0
C3271 C 0.57391 0.11267 0.13208 0.0
H3272 H 0.5498 0.06807 0.11658 0.0
C3273 C 0.59031 0.11465 0.12549 0.0
C3274 C 0.59223 0.10012 0.11539 0.0
H3275 H 0.57291 0.1245 0.13929 0.0
H3276 H 0.60149 0.12776 0.12815 0.0
C3277 C 0.57738 0.0832 0.11257 0.0
C3278 C 0.73658 0.89809 0.93871 0.0
C3279 C 0.73152 0.89852 0.95533 0.0
H3280 H 0.7433 0.9132 0.9159 0.0
C3281 C 0.72774 0.91428 0.96117 0.0
H3282 H 0.7398 0.88634 0.93382 0.0
C3283 C 0.72976 0.92962 0.95085 0.0
C3284 C 0.73549 0.92943 0.93452 0.0
H3285 H 0.72358 0.91498 0.97381 0.0
H3286 H 0.72747 0.94195 0.95581 0.0
C3287 C 0.73859 0.91345 0.92842 0.0
C3288 C 0.08924 0.30265 0.83011 0.0
C3289 C 0.0897 0.28412 0.82972 0.0
H3290 H 0.07338 0.31933 0.83253 0.0
C3291 C 0.07403 0.26811 0.83293 0.0
H3292 H 0.10106 0.31534 0.82798 0.0
C3293 C 0.05822 0.27048 0.8356 0.0
C3294 C 0.05782 0.2889 0.83537 0.0
H3295 H 0.07379 0.25362 0.83253 0.0
H3296 H 0.04622 0.25785 0.83723 0.0
C3297 C 0.07345 0.30499 0.83292 0.0
C3298 C 0.65333 0.12993 0.53474 0.0
C3299 C 0.65761 0.14961 0.53181 0.0
H3300 H 0.66088 0.10887 0.54575 0.0
C3301 C 0.67414 0.16304 0.53628 0.0
H3302 H 0.64076 0.11922 0.5313 0.0
C3303 C 0.68558 0.15711 0.54451 0.0
C3304 C 0.68084 0.13762 0.54834 0.0
H3305 H 0.67782 0.17831 0.53435 0.0
H3306 H 0.69782 0.16791 0.54859 0.0
C3307 C 0.66489 0.12397 0.54286 0.0
C3308 C 0.44361 0.75192 0.40206 0.0
C3309 C 0.43288 0.73902 0.39039 0.0
H3310 H 0.46792 0.76164 0.41458 0.0
C3311 C 0.43787 0.72436 0.38388 0.0
H3312 H 0.44009 0.76324 0.40747 0.0
C3313 C 0.45384 0.72364 0.38782 0.0
C3314 C 0.46497 0.73727 0.39863 0.0
H3315 H 0.43002 0.71423 0.37485 0.0
H3316 H 0.45795 0.71313 0.38164 0.0
C3317 C 0.45947 0.75094 0.40624 0.0
C3318 C 0.87097 0.8361 0.02227 0.0
C3319 C 0.8678 0.81643 0.02367 0.0
H3320 H 0.86383 0.85944 0.03039 0.0
C3321 C 0.85349 0.80475 0.03342 0.0
H3322 H 0.88194 0.84547 0.01488 0.0
C3323 C 0.84301 0.81266 0.04212 0.0
C3324 C 0.84667 0.83251 0.04144 0.0
H3325 H 0.85048 0.78947 0.03447 0.0
H3326 H 0.8322 0.80322 0.04963 0.0
C3327 C 0.86055 0.84407 0.03111 0.0
C3328 C 0.76839 0.043 0.86116 0.0
C3329 C 0.77974 0.05698 0.87172 0.0
H3330 H 0.74845 0.01453 0.85873 0.0
C3331 C 0.7794 0.05261 0.88839 0.0
H3332 H 0.76825 0.04598 0.84828 0.0
C3333 C 0.76815 0.03464 0.89434 0.0
C3334 C 0.75682 0.02064 0.8838 0.0
H3335 H 0.78806 0.063 0.89682 0.0
H3336 H 0.76825 0.03171 0.90724 0.0
C3337 C 0.75696 0.02507 0.86716 0.0
C3338 C 0.23776 0.55539 0.09361 0.0
C3339 C 0.22558 0.54085 0.1034 0.0
H3340 H 0.24229 0.57949 0.07795 0.0
C3341 C 0.20874 0.54088 0.10606 0.0
H3342 H 0.2509 0.55598 0.09146 0.0
C3343 C 0.20396 0.55447 0.09848 0.0
C3344 C 0.2159 0.5683 0.08816 0.0
H3345 H 0.1989 0.52978 0.11329 0.0
H3346 H 0.19066 0.55358 0.1001 0.0
C3347 C 0.23293 0.56897 0.08601 0.0
C3348 C 0.0845 0.29903 0.87603 0.0
C3349 C 0.09531 0.31066 0.8883 0.0
H3350 H 0.05932 0.27805 0.86988 0.0
C3351 C 0.08778 0.3108 0.90401 0.0
H3352 H 0.08968 0.29864 0.86377 0.0
C3353 C 0.07018 0.29918 0.90743 0.0
C3354 C 0.05962 0.28702 0.89528 0.0
H3355 H 0.09559 0.31933 0.91389 0.0
H3356 H 0.06493 0.29949 0.91973 0.0
C3357 C 0.06696 0.28737 0.87947 0.0
C3358 C 0.29262 0.42405 0.55779 0.0
C3359 C 0.29836 0.43587 0.57181 0.0
H3360 H 0.29563 0.40226 0.54193 0.0
C3361 C 0.31128 0.43353 0.5812 0.0
H3362 H 0.28293 0.42558 0.55009 0.0
C3363 C 0.31857 0.42014 0.57644 0.0
C3364 C 0.31302 0.40878 0.56226 0.0
H3365 H 0.31589 0.44215 0.59217 0.0
H3366 H 0.32881 0.41901 0.58362 0.0
C3367 C 0.2999 0.41069 0.55307 0.0
C3368 C 0.9326 0.25504 0.82836 0.0
C3369 C 0.92803 0.23498 0.82691 0.0
H3370 H 0.95217 0.28253 0.83491 0.0
C3371 C 0.94107 0.22775 0.82903 0.0
H3372 H 0.92289 0.26116 0.8271 0.0
C3373 C 0.958 0.24018 0.83326 0.0
C3374 C 0.96205 0.25995 0.83578 0.0
H3375 H 0.93806 0.21243 0.82792 0.0
H3376 H 0.96766 0.23421 0.83542 0.0
C3377 C 0.94932 0.26732 0.833 0.0
C3378 C 0.76778 0.98251 0.40832 0.0
C3379 C 0.76559 0.97451 0.39238 0.0
H3380 H 0.77958 0.00779 0.42335 0.0
C3381 C 0.77462 0.98642 0.37921 0.0
H3382 H 0.76132 0.97375 0.41878 0.0
C3383 C 0.78525 0.00592 0.38191 0.0
C3384 C 0.78713 0.01375 0.39782 0.0
H3385 H 0.77314 0.9808 0.36676 0.0
H3386 H 0.79166 0.01494 0.37155 0.0
C3387 C 0.77843 1.00192 0.41098 0.0
C3388 C 0.19366 0.56267 0.61505 0.0
C3389 C 0.20369 0.56657 0.60031 0.0
H3390 H 0.17116 0.56352 0.62829 0.0
C3391 C 0.19845 0.57514 0.5875 0.0
H3392 H 0.19742 0.55644 0.6253 0.0
C3393 C 0.18341 0.57935 0.58933 0.0
C3394 C 0.17346 0.57522 0.60403 0.0
H3395 H 0.20576 0.57825 0.57594 0.0
H3396 H 0.17944 0.58556 0.5792 0.0
C3397 C 0.17873 0.56693 0.61687 0.0
C3398 C 0.34205 0.42439 0.11338 0.0
C3399 C 0.33444 0.42891 0.12772 0.0
H3400 H 0.35862 0.41094 0.10296 0.0
C3401 C 0.33813 0.42323 0.14291 0.0
H3402 H 0.33932 0.42841 0.10148 0.0
C3403 C 0.34912 0.41322 0.14376 0.0
C3404 C 0.3566 0.40853 0.12942 0.0
H3405 H 0.33257 0.42662 0.15419 0.0
H3406 H 0.35158 0.40892 0.15565 0.0
C3407 C 0.35294 0.41421 0.11421 0.0
C3408 C 0.6015 0.7554 0.62763 0.0
C3409 C 0.58628 0.74855 0.61834 0.0
H3410 H 0.61361 0.77014 0.64966 0.0
C3411 C 0.57132 0.75113 0.6246 0.0
H3412 H 0.61326 0.75375 0.6231 0.0
C3413 C 0.57159 0.76051 0.63964 0.0
C3414 C 0.5868 0.76749 0.64873 0.0
H3415 H 0.5593 0.74575 0.61793 0.0
H3416 H 0.55987 0.76227 0.64418 0.0
C3417 C 0.60176 0.76486 0.64272 0.0
C3418 C 0.3111 0.24165 0.77854 0.0
C3419 C 0.32452 0.25852 0.77256 0.0
H3420 H 0.29473 0.22751 0.79916 0.0
C3421 C 0.33071 0.27488 0.78296 0.0
H3422 H 0.30586 0.22888 0.77082 0.0
C3423 C 0.32423 0.27408 0.79916 0.0
C3424 C 0.31134 0.25698 0.80516 0.0
H3425 H 0.34113 0.28805 0.77883 0.0
H3426 H 0.32975 0.28657 0.80715 0.0
C3427 C 0.3046 0.2409 0.79469 0.0
C3428 C 0.93999 0.24666 0.09703 0.0
C3429 C 0.93852 0.24136 0.0803 0.0
H3430 H 0.94 0.23779 0.12178 0.0
C3431 C 0.93712 0.22265 0.07585 0.0
H3432 H 0.94135 0.26102 0.10093 0.0
C3433 C 0.93654 0.20942 0.0878 0.0
C3434 C 0.93733 0.21447 0.10457 0.0
H3435 H 0.93583 0.21795 0.06314 0.0
H3436 H 0.93519 0.19506 0.0839 0.0
C3437 C 0.93942 0.2334 0.10901 0.0
C3438 C 0.22339 0.75368 0.27294 0.0
C3439 C 0.22061 0.76881 0.26558 0.0
H3440 H 0.22852 0.74228 0.2948 0.0
C3441 C 0.22112 0.78472 0.27524 0.0
H3442 H 0.22268 0.74104 0.26585 0.0
C3443 C 0.22488 0.78569 0.29193 0.0
C3444 C 0.22796 0.77062 0.29926 0.0
H3445 H 0.21897 0.79655 0.26981 0.0
H3446 H 0.22566 0.79835 0.29901 0.0
C3447 C 0.22686 0.75449 0.28955 0.0
C3448 C 0.72174 0.29532 0.91742 0.0
C3449 C 0.70924 0.27693 0.92149 0.0
H3450 H 0.73615 0.31449 0.89817 0.0
C3451 C 0.70205 0.26344 0.90877 0.0
H3452 H 0.72771 0.30596 0.92689 0.0
C3453 C 0.70704 0.26832 0.89241 0.0
C3454 C 0.71929 0.28672 0.88848 0.0
H3455 H 0.69224 0.24926 0.91141 0.0
H3456 H 0.70106 0.25783 0.88281 0.0
C3457 C 0.72671 0.30016 0.90103 0.0
C3458 C 0.07715 0.34689 0.22495 0.0
C3459 C 0.0898 0.35065 0.23697 0.0
H3460 H 0.06909 0.33549 0.20083 0.0
C3461 C 0.10318 0.34376 0.23439 0.0
H3462 H 0.06669 0.35202 0.2266 0.0
C3463 C 0.10453 0.3344 0.21976 0.0
C3464 C 0.09252 0.33162 0.20734 0.0
H3465 H 0.11286 0.34597 0.24358 0.0
H3466 H 0.11528 0.32975 0.21799 0.0
C3467 C 0.0785 0.33742 0.21023 0.0
C3468 C 0.81437 0.77749 0.43956 0.0
C3469 C 0.81599 0.7612 0.44611 0.0
H3470 H 0.80879 0.79041 0.4187 0.0
C3471 C 0.81273 0.74485 0.43592 0.0
H3472 H 0.81652 0.79025 0.44705 0.0
C3473 C 0.80797 0.74483 0.41963 0.0
C3474 C 0.80633 0.76114 0.41313 0.0
H3475 H 0.81399 0.73211 0.44049 0.0
H3476 H 0.80535 0.73194 0.41219 0.0
C3477 C 0.80968 0.77748 0.42331 0.0
C3478 C 0.47256 0.66022 0.70971 0.0
C3479 C 0.46703 0.66416 0.72543 0.0
H3480 H 0.47178 0.66327 0.68366 0.0
C3481 C 0.45501 0.67319 0.72653 0.0
H3482 H 0.48159 0.65305 0.70832 0.0
C3483 C 0.44928 0.67879 0.71237 0.0
C3484 C 0.45532 0.6754 0.69681 0.0
H3485 H 0.4506 0.67671 0.73835 0.0
H3486 H 0.44063 0.68645 0.71362 0.0
C3487 C 0.4668 0.66584 0.69556 0.0
C3488 C 0.58025 0.65276 0.8723 0.0
C3489 C 0.57117 0.64138 0.85896 0.0
H3490 H 0.60143 0.65914 0.88892 0.0
C3491 C 0.57752 0.62809 0.85175 0.0
H3492 H 0.57595 0.66333 0.87808 0.0
C3493 C 0.59214 0.62592 0.85788 0.0
C3494 C 0.60083 0.63692 0.87136 0.0
H3495 H 0.57082 0.61878 0.84171 0.0
H3496 H 0.59641 0.61522 0.85228 0.0
C3497 C 0.59492 0.65051 0.87847 0.0
C3498 C 0.69198 0.36476 0.0799 0.0
C3499 C 0.6851 0.36614 0.06471 0.0
H3500 H 0.7024 0.37897 0.10255 0.0
C3501 C 0.68165 0.38263 0.06167 0.0
H3502 H 0.69502 0.35243 0.0826 0.0
C3503 C 0.68595 0.39782 0.07313 0.0
C3504 C 0.69364 0.3967 0.08783 0.0
H3505 H 0.67613 0.38406 0.05022 0.0
H3506 H 0.68399 0.41076 0.07019 0.0
C3507 C 0.69624 0.37994 0.09133 0.0
C3508 C 0.98215 0.42072 0.35717 0.0
C3509 C 0.98207 0.40322 0.3506 0.0
H3510 H 0.96805 0.43488 0.3711 0.0
C3511 C 0.96711 0.38627 0.35318 0.0
H3512 H 0.99342 0.43405 0.3553 0.0
C3513 C 0.95263 0.38676 0.36213 0.0
C3514 C 0.95268 0.40421 0.36875 0.0
H3515 H 0.96665 0.37252 0.34845 0.0
H3516 H 0.94131 0.37342 0.3638 0.0
C3517 C 0.96757 0.42123 0.36608 0.0
C3518 C 0.81969 0.6354 0.5818 0.0
C3519 C 0.82741 0.63875 0.56593 0.0
H3520 H 0.81004 0.61547 0.60165 0.0
C3521 C 0.83296 0.62487 0.55862 0.0
H3522 H 0.8151 0.64565 0.58772 0.0
C3523 C 0.83005 0.60765 0.56663 0.0
C3524 C 0.82165 0.60408 0.58209 0.0
H3525 H 0.83919 0.62712 0.54653 0.0
H3526 H 0.83374 0.59683 0.56046 0.0
C3527 C 0.81678 0.61815 0.58978 0.0
C3528 C 0.45871 0.27509 0.63387 0.0
C3529 C 0.44625 0.26068 0.6436 0.0
H3530 H 0.48535 0.28781 0.62485 0.0
C3531 C 0.4513 0.24693 0.65081 0.0
H3532 H 0.45538 0.28603 0.62826 0.0
C3533 C 0.46849 0.24797 0.64874 0.0
C3534 C 0.48092 0.26275 0.63947 0.0
H3535 H 0.44202 0.23551 0.65818 0.0
H3536 H 0.47219 0.23754 0.65477 0.0
C3537 C 0.47589 0.27617 0.63192 0.0
C3538 C 0.85407 0.33647 0.98037 0.0
C3539 C 0.87065 0.35064 0.98373 0.0
H3540 H 0.82854 0.33031 0.97145 0.0
C3541 C 0.8732 0.37018 0.98242 0.0
H3542 H 0.85158 0.32129 0.98114 0.0
C3543 C 0.85999 0.37535 0.97663 0.0
C3544 C 0.84393 0.36109 0.97204 0.0
H3545 H 0.88569 0.3815 0.98521 0.0
H3546 H 0.86277 0.39047 0.97477 0.0
C3547 C 0.84088 0.34164 0.97464 0.0
C3548 C 0.07884 0.73496 0.14376 0.0
C3549 C 0.08525 0.74518 0.15842 0.0
H3550 H 0.05622 0.71732 0.13045 0.0
C3551 C 0.07321 0.74783 0.16984 0.0
H3552 H 0.08768 0.73296 0.1345 0.0
C3553 C 0.05526 0.73935 0.16721 0.0
C3554 C 0.04897 0.72795 0.15323 0.0
H3555 H 0.07749 0.7554 0.18134 0.0
H3556 H 0.04625 0.74075 0.17661 0.0
C3557 C 0.06083 0.72621 0.14129 0.0
C3558 C 0.67357 0.66223 0.49338 0.0
C3559 C 0.65698 0.64878 0.49829 0.0
H3560 H 0.69571 0.66869 0.47689 0.0
C3561 C 0.65049 0.63056 0.4905 0.0
H3562 H 0.67888 0.67646 0.49899 0.0
C3563 C 0.66018 0.62611 0.4778 0.0
C3564 C 0.67646 0.63986 0.4725 0.0
H3565 H 0.63782 0.61984 0.49407 0.0
H3566 H 0.65463 0.61217 0.47171 0.0
C3567 C 0.68315 0.65785 0.48062 0.0
C3568 C 0.78609 0.47477 0.63371 0.0
C3569 C 0.76808 0.47088 0.63478 0.0
H3570 H 0.81197 0.49555 0.62875 0.0
C3571 C 0.76268 0.48616 0.63255 0.0
H3572 H 0.7908 0.46349 0.63565 0.0
C3573 C 0.77488 0.50467 0.62897 0.0
C3574 C 0.79283 0.50841 0.62734 0.0
H3575 H 0.74896 0.48376 0.63311 0.0
H3576 H 0.77019 0.51603 0.62734 0.0
C3577 C 0.79829 0.49327 0.62999 0.0
C3578 C 0.28531 0.93444 0.42719 0.0
C3579 C 0.28593 0.95188 0.43455 0.0
H3580 H 0.29093 0.90901 0.42941 0.0
C3581 C 0.29217 0.9563 0.45057 0.0
H3582 H 0.2804 0.93038 0.41497 0.0
C3583 C 0.29801 0.94397 0.45878 0.0
C3584 C 0.2978 0.92697 0.45121 0.0
H3585 H 0.29317 0.96966 0.45659 0.0
H3586 H 0.3031 0.94798 0.47096 0.0
C3587 C 0.29123 0.92212 0.43544 0.0
C3588 C 0.41696 0.16723 0.64187 0.0
C3589 C 0.41373 0.17336 0.6576 0.0
H3590 H 0.43592 0.17 0.62255 0.0
C3591 C 0.42788 0.18561 0.66675 0.0
H3592 H 0.4063 0.158 0.63444 0.0
C3593 C 0.44485 0.19235 0.65995 0.0
C3594 C 0.44783 0.18716 0.64383 0.0
H3595 H 0.42572 0.19051 0.67892 0.0
H3596 H 0.45548 0.20246 0.66691 0.0
C3597 C 0.43386 0.17417 0.63501 0.0
C3598 C 0.24398 0.07909 0.90353 0.0
C3599 C 0.23486 0.05908 0.90104 0.0
H3600 H 0.24235 0.1061 0.91055 0.0
C3601 C 0.21645 0.05151 0.90226 0.0
H3602 H 0.25811 0.08553 0.90246 0.0
C3603 C 0.20751 0.06339 0.90659 0.0
C3604 C 0.21672 0.08308 0.90976 0.0
H3605 H 0.20892 0.0362 0.9007 0.0
H3606 H 0.19341 0.05697 0.90825 0.0
C3607 C 0.23498 0.09095 0.90793 0.0
C3608 C 0.61064 0.31047 0.62464 0.0
C3609 C 0.61548 0.30482 0.6393 0.0
H3610 H 0.58987 0.30767 0.60874 0.0
C3611 C 0.60232 0.29222 0.64971 0.0
H3612 H 0.62045 0.31999 0.61628 0.0
C3613 C 0.58476 0.28519 0.64539 0.0
C3614 C 0.58002 0.29038 0.63047 0.0
H3615 H 0.60561 0.28768 0.66114 0.0
H3616 H 0.57497 0.27516 0.65346 0.0
C3617 C 0.59314 0.30328 0.62025 0.0
C3618 C 0.75736 0.50406 0.15287 0.0
C3619 C 0.75446 0.52127 0.15382 0.0
H3620 H 0.74692 0.47388 0.14697 0.0
C3621 C 0.7379 0.52066 0.14991 0.0
H3622 H 0.76979 0.50386 0.15613 0.0
C3623 C 0.72472 0.50338 0.14486 0.0
C3624 C 0.72785 0.48636 0.14346 0.0
H3625 H 0.73524 0.53364 0.15028 0.0
H3626 H 0.71225 0.50346 0.14154 0.0
C3627 C 0.74424 0.48685 0.14768 0.0
C3628 C 0.34981 0.94252 0.90625 0.0
C3629 C 0.33991 0.93787 0.89196 0.0
H3630 H 0.3732 0.944 0.91774 0.0
C3631 C 0.3463 0.93064 0.87821 0.0
H3632 H 0.34524 0.94791 0.91711 0.0
C3633 C 0.36211 0.92819 0.87871 0.0
C3634 C 0.3719 0.9329 0.89292 0.0
H3635 H 0.33926 0.92722 0.8669 0.0
H3636 H 0.36685 0.92294 0.86784 0.0
C3637 C 0.36569 0.94007 0.90671 0.0
C3638 C 0.18355 0.08045 0.38009 0.0
C3639 C 0.18865 0.07748 0.39569 0.0
H3640 H 0.17008 0.0937 0.36604 0.0
C3641 C 0.18345 0.08589 0.4094 0.0
H3642 H 0.18716 0.07405 0.36927 0.0
C3643 C 0.17358 0.0971 0.40755 0.0
C3644 C 0.16853 0.10012 0.39194 0.0
H3645 H 0.18725 0.08407 0.42158 0.0
H3646 H 0.1698 0.10333 0.41839 0.0
C3647 C 0.17358 0.09155 0.37825 0.0
C3648 C 0.42198 0.20703 0.39478 0.0
C3649 C 0.43572 0.20838 0.40494 0.0
H3650 H 0.40812 0.19502 0.37291 0.0
C3651 C 0.44663 0.19873 0.4 0.0
H3652 H 0.41351 0.21454 0.39799 0.0
C3653 C 0.44362 0.18768 0.38552 0.0
C3654 C 0.42956 0.18587 0.37567 0.0
H3655 H 0.45718 0.19915 0.40759 0.0
H3656 H 0.45193 0.17995 0.38237 0.0
C3657 C 0.41892 0.19589 0.38036 0.0
C3658 C 0.72137 0.76385 0.23342 0.0
C3659 C 0.7306 0.77863 0.24448 0.0
H3660 H 0.72042 0.75195 0.20919 0.0
C3661 C 0.74575 0.79392 0.23875 0.0
H3662 H 0.70979 0.75174 0.23744 0.0
C3663 C 0.75179 0.79409 0.22244 0.0
C3664 C 0.74293 0.77881 0.21167 0.0
H3665 H 0.75311 0.80556 0.24696 0.0
H3666 H 0.76377 0.80569 0.21845 0.0
C3667 C 0.7275 0.7639 0.21725 0.0
C3668 C 0.10974 0.75686 0.9107 0.0
C3669 C 0.09566 0.74615 0.92125 0.0
H3670 H 0.11812 0.77517 0.88963 0.0
C3671 C 0.07902 0.74605 0.9185 0.0
H3672 H 0.12275 0.75741 0.91256 0.0
C3673 C 0.07648 0.75629 0.90551 0.0
C3674 C 0.0905 0.76682 0.89504 0.0
H3675 H 0.06784 0.73773 0.92618 0.0
H3676 H 0.06348 0.75577 0.90353 0.0
C3677 C 0.10716 0.76713 0.89768 0.0
C3678 C 0.81864 0.25159 0.74362 0.0
C3679 C 0.83573 0.25397 0.74751 0.0
H3680 H 0.80102 0.25065 0.72478 0.0
C3681 C 0.84836 0.25758 0.73468 0.0
H3682 H 0.80851 0.24855 0.75311 0.0
C3683 C 0.84403 0.25865 0.71846 0.0
C3684 C 0.82696 0.25624 0.71457 0.0
H3685 H 0.86174 0.25992 0.73719 0.0
H3686 H 0.85418 0.26173 0.70897 0.0
C3687 C 0.81433 0.25275 0.72736 0.0
C3688 C 0.34477 0.75263 0.10733 0.0
C3689 C 0.34707 0.76862 0.09756 0.0
H3690 H 0.33755 0.73972 0.13107 0.0
C3691 C 0.34433 0.78439 0.10482 0.0
H3692 H 0.34691 0.74032 0.10214 0.0
C3693 C 0.33906 0.78405 0.12128 0.0
C3694 C 0.33639 0.76795 0.13097 0.0
H3695 H 0.34578 0.79684 0.09765 0.0
H3696 H 0.33686 0.79636 0.1264 0.0
C3697 C 0.33958 0.75235 0.12391 0.0
C3698 C 0.95731 0.64739 0.77979 0.0
C3699 C 0.96602 0.63465 0.77966 0.0
H3700 H 0.94665 0.66461 0.7944 0.0
C3701 C 0.96928 0.62826 0.79476 0.0
H3702 H 0.95475 0.65278 0.76843 0.0
C3703 C 0.96458 0.63503 0.80957 0.0
C3704 C 0.95649 0.64824 0.80958 0.0
H3705 H 0.97571 0.61825 0.79515 0.0
H3706 H 0.9678 0.63043 0.82102 0.0
C3707 C 0.95265 0.65418 0.79463 0.0
C3708 C 0.25885 0.28231 0.5777 0.0
C3709 C 0.25045 0.29243 0.56952 0.0
H3710 H 0.2684 0.27732 0.60057 0.0
C3711 C 0.24606 0.30624 0.57846 0.0
H3712 H 0.26264 0.27177 0.57119 0.0
C3713 C 0.2495 0.30945 0.59515 0.0
C3714 C 0.2574 0.29897 0.60329 0.0
H3715 H 0.23937 0.31411 0.57272 0.0
H3716 H 0.24559 0.31984 0.60181 0.0
C3717 C 0.26226 0.28554 0.59447 0.0
C3718 C 0.57849 0.33464 0.29548 0.0
C3719 C 0.5784 0.35328 0.29603 0.0
H3720 H 0.58526 0.31369 0.30748 0.0
C3721 C 0.58407 0.36465 0.31025 0.0
H3722 H 0.57446 0.32559 0.28463 0.0
C3723 C 0.59033 0.35784 0.32333 0.0
C3724 C 0.59105 0.33949 0.32252 0.0
H3725 H 0.58391 0.37895 0.31119 0.0
H3726 H 0.59478 0.36703 0.33405 0.0
C3727 C 0.58473 0.32782 0.30857 0.0
C3728 C 0.46142 0.39582 0.17027 0.0
C3729 C 0.4576 0.37994 0.18062 0.0
H3730 H 0.45125 0.41167 0.15517 0.0
C3731 C 0.44009 0.36683 0.1825 0.0
H3732 H 0.47467 0.40636 0.16871 0.0
C3733 C 0.4267 0.36997 0.17473 0.0
C3734 C 0.43062 0.38617 0.16491 0.0
H3735 H 0.4367 0.35432 0.19019 0.0
H3736 H 0.41327 0.36009 0.17683 0.0
C3737 C 0.44804 0.3989 0.16252 0.0
C3738 C 0.34107 0.65096 0.94215 0.0
C3739 C 0.34018 0.64929 0.95932 0.0
H3740 H 0.34106 0.63719 0.91882 0.0
C3741 C 0.3382 0.63149 0.96602 0.0
H3742 H 0.34229 0.6643 0.93652 0.0
C3743 C 0.33733 0.6159 0.95585 0.0
C3744 C 0.33852 0.61771 0.93872 0.0
H3745 H 0.33778 0.62971 0.97916 0.0
H3746 H 0.33625 0.60259 0.96145 0.0
C3747 C 0.34031 0.6354 0.93199 0.0
C3748 C 0.0777 0.61546 0.64467 0.0
C3749 C 0.06278 0.59845 0.6424 0.0
H3750 H 0.10507 0.63072 0.63961 0.0
C3751 C 0.06471 0.58314 0.63341 0.0
H3752 H 0.07678 0.62763 0.65139 0.0
C3753 C 0.08096 0.58501 0.62643 0.0
C3754 C 0.09575 0.60226 0.62825 0.0
H3755 H 0.05359 0.5697 0.6316 0.0
H3756 H 0.08178 0.57314 0.61917 0.0
C3757 C 0.09394 0.61732 0.63772 0.0
C3758 C 0.22854 0.40447 0.43951 0.0
C3759 C 0.2307 0.38763 0.434 0.0
H3760 H 0.23007 0.43268 0.43341 0.0
C3761 C 0.23471 0.38592 0.41726 0.0
H3762 H 0.22521 0.40617 0.45224 0.0
C3763 C 0.23729 0.40103 0.40651 0.0
C3764 C 0.2358 0.41803 0.41226 0.0
H3765 H 0.23667 0.37329 0.41261 0.0
H3766 H 0.24116 0.39974 0.39386 0.0
C3767 C 0.23112 0.41956 0.42873 0.0
C3768 C 0.58152 0.76551 0.35684 0.0
C3769 C 0.59642 0.78106 0.35097 0.0
H3770 H 0.55386 0.75457 0.36219 0.0
C3771 C 0.59473 0.79848 0.34753 0.0
H3772 H 0.58232 0.75199 0.3599 0.0
C3773 C 0.57847 0.79999 0.34916 0.0
C3774 C 0.5636 0.78417 0.35431 0.0
H3775 H 0.60577 0.81069 0.34278 0.0
H3776 H 0.5774 0.81329 0.34578 0.0
C3777 C 0.56524 0.76699 0.3583 0.0
C3778 C 0.14572 0.62176 0.03764 0.0
C3779 C 0.14974 0.64085 0.03278 0.0
H3780 H 0.15469 0.60217 0.04915 0.0
C3781 C 0.16712 0.65424 0.03366 0.0
H3782 H 0.13252 0.61102 0.03688 0.0
C3783 C 0.17982 0.64911 0.04053 0.0
C3784 C 0.17544 0.63049 0.04666 0.0
H3785 H 0.1707 0.66908 0.03011 0.0
H3786 H 0.19285 0.66006 0.04195 0.0
C3787 C 0.15847 0.61661 0.04449 0.0
C3788 C 0.93287 0.23337 0.87432 0.0
C3789 C 0.92802 0.24666 0.88363 0.0
H3790 H 0.9532 0.22343 0.86753 0.0
C3791 C 0.93984 0.25831 0.89529 0.0
H3792 H 0.92407 0.22361 0.86566 0.0
C3793 C 0.95628 0.25746 0.89682 0.0
C3794 C 0.96145 0.2454 0.8865 0.0
H3795 H 0.93689 0.26885 0.90268 0.0
H3796 H 0.96531 0.26696 0.90548 0.0
C3797 C 0.94948 0.23295 0.87559 0.0
C3798 C 0.35516 0.30826 0.51832 0.0
C3799 C 0.37254 0.31937 0.51343 0.0
H3800 H 0.3321 0.30746 0.53148 0.0
C3801 C 0.37966 0.33911 0.51766 0.0
H3802 H 0.3493 0.293 0.51539 0.0
C3803 C 0.36972 0.34744 0.52684 0.0
C3804 C 0.35254 0.33614 0.53216 0.0
H3805 H 0.39296 0.34809 0.51396 0.0
H3806 H 0.37568 0.36256 0.53025 0.0
C3807 C 0.34533 0.31652 0.52762 0.0
C3808 C 0.26596 0.54743 0.3665 0.0
C3809 C 0.28223 0.55037 0.3588 0.0
H3810 H 0.24196 0.52713 0.3769 0.0
C3811 C 0.28622 0.53418 0.35501 0.0
H3812 H 0.26249 0.55954 0.36978 0.0
C3813 C 0.27449 0.51564 0.3592 0.0
C3814 C 0.25841 0.51276 0.3672 0.0
H3815 H 0.29843 0.5358 0.34877 0.0
H3816 H 0.27803 0.50352 0.35614 0.0
C3817 C 0.25417 0.52884 0.3706 0.0
C3818 C 0.72329 0.05894 0.61088 0.0
C3819 C 0.73138 0.04758 0.60293 0.0
H3820 H 0.71251 0.08043 0.60835 0.0
C3821 C 0.73598 0.05061 0.58616 0.0
H3822 H 0.71977 0.0572 0.62381 0.0
C3823 C 0.73194 0.064 0.57744 0.0
C3824 C 0.72328 0.07464 0.58529 0.0
H3825 H 0.74195 0.04199 0.57954 0.0
H3826 H 0.73505 0.06552 0.56441 0.0
C3827 C 0.71923 0.07232 0.6021 0.0
C3828 C 0.58391 0.80301 0.39568 0.0
C3829 C 0.5948 0.81077 0.40897 0.0
H3830 H 0.55972 0.78243 0.38741 0.0
C3831 C 0.58857 0.80382 0.42474 0.0
H3832 H 0.58838 0.80797 0.38337 0.0
C3833 C 0.57192 0.78923 0.42709 0.0
C3834 C 0.56115 0.78092 0.41369 0.0
H3835 H 0.59654 0.80975 0.43529 0.0
H3836 H 0.56755 0.7846 0.43949 0.0
C3837 C 0.5674 0.78829 0.39801 0.0
C3838 C 0.78342 0.91531 0.0781 0.0
C3839 C 0.79376 0.93495 0.07532 0.0
H3840 H 0.78153 0.886 0.07592 0.0
C3841 C 0.8109 0.93991 0.06886 0.0
H3842 H 0.77026 0.91093 0.08323 0.0
C3843 C 0.81733 0.92566 0.06491 0.0
C3844 C 0.80683 0.90615 0.06733 0.0
H3845 H 0.81917 0.95478 0.06627 0.0
H3846 H 0.83035 0.92987 0.05944 0.0
C3847 C 0.7899 0.90103 0.0741 0.0
C3848 C 0.43723 0.7528 0.34365 0.0
C3849 C 0.4327 0.73314 0.33989 0.0
H3850 H 0.45668 0.77911 0.35258 0.0
C3851 C 0.44555 0.72542 0.34094 0.0
H3852 H 0.4277 0.75926 0.34306 0.0
C3853 C 0.46234 0.73698 0.34619 0.0
C3854 C 0.46645 0.75635 0.35075 0.0
H3855 H 0.44254 0.71038 0.33802 0.0
H3856 H 0.47185 0.73058 0.3474 0.0
C3857 C 0.45382 0.7642 0.34919 0.0
C3858 C 0.27483 0.49171 0.89351 0.0
C3859 C 0.25885 0.48629 0.90252 0.0
H3860 H 0.30168 0.5116 0.89122 0.0
C3861 C 0.25774 0.49809 0.91583 0.0
H3862 H 0.27615 0.48318 0.88305 0.0
C3863 C 0.27231 0.51444 0.92031 0.0
C3864 C 0.28827 0.51939 0.91158 0.0
H3865 H 0.24581 0.49431 0.92323 0.0
H3866 H 0.27123 0.52288 0.93094 0.0
C3867 C 0.28942 0.50807 0.89804 0.0
C3868 C 0.69822 0.07878 0.07874 0.0
C3869 C 0.70129 0.06652 0.08989 0.0
H3870 H 0.68064 0.09156 0.07113 0.0
C3871 C 0.68853 0.05794 0.10226 0.0
H3872 H 0.70765 0.08552 0.06897 0.0
C3873 C 0.67318 0.06144 0.10344 0.0
C3874 C 0.6702 0.0736 0.09232 0.0
H3875 H 0.6905 0.04872 0.11125 0.0
H3876 H 0.66357 0.05456 0.11306 0.0
C3877 C 0.68278 0.08225 0.07993 0.0
C3878 C 0.85451 0.94571 0.63163 0.0
C3879 C 0.83635 0.93618 0.63437 0.0
H3880 H 0.87954 0.94362 0.63097 0.0
C3881 C 0.82969 0.91672 0.63911 0.0
H3882 H 0.86012 0.96059 0.62777 0.0
C3883 C 0.8408 0.90697 0.64069 0.0
C3884 C 0.85888 0.91646 0.6378 0.0
H3885 H 0.81586 0.909 0.64173 0.0
H3886 H 0.83525 0.892 0.64435 0.0
C3887 C 0.86565 0.93598 0.63341 0.0
loop_
_geom_bond_atom_site_label_1
_geom_bond_atom_site_label_2
_geom_bond_distance
_geom_bond_site_symmetry_2
_ccdc_geom_bond_type
C0 C1 1.264 . S
C0 C5 1.479 . S
C0 C10 1.465 . S
C1 C0 1.264 . S
C1 C3 1.339 . S
C1 H28 0.931 . S
C2 C3 1.395 1_655 S
C2 C4 1.320 . S
C3 C1 1.339 . S
C3 C2 1.395 1_455 S
C3 H29 0.929 . S
C4 C2 1.320 . S
C4 C5 1.405 1_655 S
C4 H30 0.930 . S
C5 C0 1.479 . S
C5 C4 1.405 1_455 S
C5 H31 0.931 . S
U6 O7 2.454 . S
U6 O8 2.458 . S
U6 C9 2.984 . S
U6 C10 2.847 . S
U6 C23 2.882 . S
U6 O24 2.441 . S
U6 O25 2.420 . S
U6 O26 2.455 . S
U6 O27 2.449 . S
O7 U6 2.454 . S
O7 C9 1.353 . S
O8 U6 2.458 . S
O8 C9 1.286 . S
C9 U6 2.984 . S
C9 O7 1.353 . S
C9 O8 1.286 . S
C9 C11 1.363 . S
C10 C0 1.465 . S
C10 U6 2.847 . S
C10 O24 1.249 . S
C10 O25 1.202 . S
C11 C9 1.363 . S
C11 C13 1.408 . S
C11 C16 1.342 . S
C12 C13 1.310 . S
C12 C15 1.461 . S
C12 H32 0.932 . S
C13 C11 1.408 . S
C13 C12 1.310 . S
C13 H33 0.930 . S
C14 C15 1.474 . S
C14 C16 1.285 . S
C14 H34 0.929 . S
C15 C12 1.461 . S
C15 C14 1.474 . S
C16 C11 1.342 . S
C16 C14 1.285 . S
C16 H35 0.930 . S
C17 C20 1.424 . S
C17 C22 1.245 . S
C17 C23 1.428 . S
C18 C21 1.260 . S
C18 C22 1.477 . S
C18 H36 0.932 . S
C19 C20 1.384 . S
C19 C21 1.479 . S
C19 H37 0.929 . S
C20 C17 1.424 . S
C20 C19 1.384 . S
C20 H38 0.928 . S
C21 C18 1.260 . S
C21 C19 1.479 . S
C22 C17 1.245 . S
C22 C18 1.477 . S
C22 H39 0.932 . S
C23 U6 2.882 . S
C23 C17 1.428 . S
C23 O26 1.301 . S
C23 O27 1.282 . S
O24 U6 2.441 . S
O24 C10 1.249 . S
O25 U6 2.420 . S
O25 C10 1.202 . S
O26 U6 2.455 . S
O26 C23 1.301 . S
O27 U6 2.449 . S
O27 C23 1.282 . S
H28 C1 0.931 . S
H29 C3 0.929 . S
H30 C4 0.930 . S
H31 C5 0.931 . S
H32 C12 0.932 . S
H33 C13 0.930 . S
H34 C14 0.929 . S
H35 C16 0.930 . S
H36 C18 0.932 . S
H37 C19 0.929 . S
H38 C20 0.928 . S
H39 C22 0.932 . S
C40 C41 1.264 . S
C40 C45 1.479 . S
C40 C50 1.465 . S
C41 C40 1.264 . S
C41 C43 1.339 . S
C41 H68 0.931 . S
C42 C43 1.395 . S
C42 C44 1.320 . S
C43 C41 1.339 . S
C43 C42 1.395 . S
C43 H69 0.929 . S
C44 C42 1.320 . S
C44 C45 1.405 . S
C44 H70 0.930 . S
C45 C40 1.479 . S
C45 C44 1.405 . S
C45 H71 0.931 . S
U46 O47 2.454 . S
U46 O48 2.458 . S
U46 C49 2.984 . S
U46 C50 2.847 . S
U46 C63 2.882 . S
U46 O64 2.441 . S
U46 O65 2.420 . S
U46 O66 2.455 . S
U46 O67 2.449 . S
O47 U46 2.454 . S
O47 C49 1.353 . S
O48 U46 2.458 . S
O48 C49 1.286 . S
C49 U46 2.984 . S
C49 O47 1.353 . S
C49 O48 1.286 . S
C49 C51 1.363 . S
C50 C40 1.465 . S
C50 U46 2.847 . S
C50 O64 1.249 . S
C50 O65 1.202 . S
C51 C49 1.363 . S
C51 C53 1.408 . S
C51 C56 1.342 . S
C52 C53 1.310 . S
C52 C55 1.461 . S
C52 H72 0.932 . S
C53 C51 1.408 . S
C53 C52 1.310 . S
C53 H73 0.930 . S
C54 C55 1.474 . S
C54 C56 1.285 . S
C54 H74 0.929 . S
C55 C52 1.461 . S
C55 C54 1.474 . S
C56 C51 1.342 . S
C56 C54 1.285 . S
C56 H75 0.930 . S
C57 C60 1.424 . S
C57 C62 1.245 . S
C57 C63 1.428 . S
C58 C61 1.260 . S
C58 C62 1.477 . S
C58 H76 0.932 . S
C59 C60 1.384 . S
C59 C61 1.479 . S
C59 H77 0.929 . S
C60 C57 1.424 . S
C60 C59 1.384 . S
C60 H78 0.928 . S
C61 C58 1.260 . S
C61 C59 1.479 . S
C62 C57 1.245 . S
C62 C58 1.477 . S
C62 H79 0.932 . S
C63 U46 2.882 . S
C63 C57 1.428 . S
C63 O66 1.301 . S
C63 O67 1.282 . S
O64 U46 2.441 . S
O64 C50 1.249 . S
O65 U46 2.420 . S
O65 C50 1.202 . S
O66 U46 2.455 . S
O66 C63 1.301 . S
O67 U46 2.449 . S
O67 C63 1.282 . S
H68 C41 0.931 . S
H69 C43 0.929 . S
H70 C44 0.930 . S
H71 C45 0.931 . S
H72 C52 0.932 . S
H73 C53 0.930 . S
H74 C54 0.929 . S
H75 C56 0.930 . S
H76 C58 0.932 . S
H77 C59 0.929 . S
H78 C60 0.928 . S
H79 C62 0.932 . S
C80 C81 1.264 . S
C80 C85 1.479 . S
C80 C90 1.465 . S
C81 C80 1.264 . S
C81 C83 1.339 . S
C81 H108 0.931 . S
C82 C83 1.395 . S
C82 C84 1.320 . S
C83 C81 1.339 . S
C83 C82 1.395 . S
C83 H109 0.929 . S
C84 C82 1.320 . S
C84 C85 1.405 . S
C84 H110 0.930 . S
C85 C80 1.479 . S
C85 C84 1.405 . S
C85 H111 0.931 . S
U86 O87 2.454 . S
U86 O88 2.458 . S
U86 C89 2.984 . S
U86 C90 2.847 . S
U86 C103 2.882 . S
U86 O104 2.441 . S
U86 O105 2.420 . S
U86 O106 2.455 . S
U86 O107 2.449 . S
O87 U86 2.454 . S
O87 C89 1.353 . S
O88 U86 2.458 . S
O88 C89 1.286 . S
C89 U86 2.984 . S
C89 O87 1.353 . S
C89 O88 1.286 . S
C89 C91 1.363 . S
C90 C80 1.465 . S
C90 U86 2.847 . S
C90 O104 1.249 . S
C90 O105 1.202 . S
C91 C89 1.363 . S
C91 C93 1.408 . S
C91 C96 1.342 . S
C92 C93 1.310 . S
C92 C95 1.461 . S
C92 H112 0.932 . S
C93 C91 1.408 . S
C93 C92 1.310 . S
C93 H113 0.930 . S
C94 C95 1.474 . S
C94 C96 1.285 . S
C94 H114 0.929 . S
C95 C92 1.461 . S
C95 C94 1.474 . S
C96 C91 1.342 . S
C96 C94 1.285 . S
C96 H115 0.930 . S
C97 C100 1.424 . S
C97 C102 1.245 . S
C97 C103 1.428 . S
C98 C101 1.260 . S
C98 C102 1.477 . S
C98 H116 0.932 . S
C99 C100 1.384 . S
C99 C101 1.479 . S
C99 H117 0.929 . S
C100 C97 1.424 . S
C100 C99 1.384 . S
C100 H118 0.928 . S
C101 C98 1.260 . S
C101 C99 1.479 . S
C102 C97 1.245 . S
C102 C98 1.477 . S
C102 H119 0.932 . S
C103 U86 2.882 . S
C103 C97 1.428 . S
C103 O106 1.301 . S
C103 O107 1.282 . S
O104 U86 2.441 . S
O104 C90 1.249 . S
O105 U86 2.420 . S
O105 C90 1.202 . S
O106 U86 2.455 . S
O106 C103 1.301 . S
O107 U86 2.449 . S
O107 C103 1.282 . S
H108 C81 0.931 . S
H109 C83 0.929 . S
H110 C84 0.930 . S
H111 C85 0.931 . S
H112 C92 0.932 . S
H113 C93 0.930 . S
H114 C94 0.929 . S
H115 C96 0.930 . S
H116 C98 0.932 . S
H117 C99 0.929 . S
H118 C100 0.928 . S
H119 C102 0.932 . S
C120 C121 1.264 . S
C120 C125 1.479 . S
C120 C130 1.465 . S
C121 C120 1.264 . S
C121 C123 1.339 . S
C121 H148 0.931 . S
C122 C123 1.395 . S
C122 C124 1.320 . S
C123 C121 1.339 . S
C123 C122 1.395 . S
C123 H149 0.929 . S
C124 C122 1.320 . S
C124 C125 1.405 . S
C124 H150 0.930 . S
C125 C120 1.479 . S
C125 C124 1.405 . S
C125 H151 0.931 . S
U126 O127 2.454 . S
U126 O128 2.458 . S
U126 C129 2.984 . S
U126 C130 2.847 1_556 S
U126 C143 2.882 1_556 S
U126 O144 2.439 1_556 S
U126 O145 2.420 1_556 S
U126 O146 2.455 . S
U126 O147 2.449 1_556 S
O127 U126 2.454 . S
O127 C129 1.353 . S
O128 U126 2.458 . S
O128 C129 1.286 . S
C129 U126 2.984 . S
C129 O127 1.353 . S
C129 O128 1.286 . S
C129 C131 1.363 . S
C130 C120 1.465 . S
C130 U126 2.847 1_554 S
C130 O144 1.263 . S
C130 O145 1.202 . S
C131 C129 1.363 . S
C131 C133 1.408 . S
C131 C136 1.342 . S
C132 C133 1.310 . S
C132 C135 1.461 . S
C132 H152 0.932 . S
C133 C131 1.408 . S
C133 C132 1.310 . S
C133 H153 0.930 . S
C134 C135 1.474 . S
C134 C136 1.285 . S
C134 H154 0.929 . S
C135 C132 1.461 . S
C135 C134 1.474 . S
C136 C131 1.342 . S
C136 C134 1.285 . S
C136 H155 0.930 . S
C137 C140 1.424 . S
C137 C142 1.245 . S
C137 C143 1.428 . S
C138 C141 1.260 . S
C138 C142 1.477 . S
C138 H156 0.932 . S
C139 C140 1.384 . S
C139 C141 1.479 . S
C139 H157 0.929 . S
C140 C137 1.424 . S
C140 C139 1.384 . S
C140 H158 0.928 . S
C141 C138 1.260 . S
C141 C139 1.479 . S
C142 C137 1.245 . S
C142 C138 1.477 . S
C142 H159 0.932 . S
C143 U126 2.882 1_554 S
C143 C137 1.428 . S
C143 O146 1.301 1_554 S
C143 O147 1.282 . S
O144 U126 2.439 1_554 S
O144 C130 1.263 . S
O145 U126 2.420 1_554 S
O145 C130 1.202 . S
O146 U126 2.455 . S
O146 C143 1.301 1_556 S
O147 U126 2.449 1_554 S
O147 C143 1.282 . S
H148 C121 0.931 . S
H149 C123 0.929 . S
H150 C124 0.930 . S
H151 C125 0.931 . S
H152 C132 0.932 . S
H153 C133 0.930 . S
H154 C134 0.929 . S
H155 C136 0.930 . S
H156 C138 0.932 . S
H157 C139 0.929 . S
H158 C140 0.928 . S
H159 C142 0.932 . S
C160 C161 1.264 . S
C160 C165 1.479 . S
C160 C170 1.465 . S
C161 C160 1.264 . S
C161 C163 1.339 . S
C161 H188 0.931 . S
C162 C163 1.395 . S
C162 C164 1.320 . S
C163 C161 1.339 . S
C163 C162 1.395 . S
C163 H189 0.929 . S
C164 C162 1.320 . S
C164 C165 1.405 . S
C164 H190 0.930 . S
C165 C160 1.479 . S
C165 C164 1.405 . S
C165 H191 0.931 . S
U166 O167 2.454 . S
U166 O168 2.458 . S
U166 C169 2.984 . S
U166 C170 2.847 . S
U166 C183 2.882 . S
U166 O184 2.441 . S
U166 O185 2.420 . S
U166 O186 2.455 . S
U166 O187 2.449 . S
O167 U166 2.454 . S
O167 C169 1.353 . S
O168 U166 2.458 . S
O168 C169 1.286 . S
C169 U166 2.984 . S
C169 O167 1.353 . S
C169 O168 1.286 . S
C169 C171 1.363 . S
C170 C160 1.465 . S
C170 U166 2.847 . S
C170 O184 1.249 . S
C170 O185 1.202 . S
C171 C169 1.363 . S
C171 C173 1.408 . S
C171 C176 1.342 . S
C172 C173 1.310 . S
C172 C175 1.461 . S
C172 H192 0.932 . S
C173 C171 1.408 . S
C173 C172 1.310 . S
C173 H193 0.930 . S
C174 C175 1.474 . S
C174 C176 1.285 . S
C174 H194 0.929 . S
C175 C172 1.461 . S
C175 C174 1.474 . S
C176 C171 1.342 . S
C176 C174 1.285 . S
C176 H195 0.930 . S
C177 C180 1.424 . S
C177 C182 1.245 . S
C177 C183 1.428 . S
C178 C181 1.260 . S
C178 C182 1.477 . S
C178 H196 0.932 . S
C179 C180 1.384 . S
C179 C181 1.479 . S
C179 H197 0.929 . S
C180 C177 1.424 . S
C180 C179 1.384 . S
C180 H198 0.928 . S
C181 C178 1.260 . S
C181 C179 1.479 . S
C182 C177 1.245 . S
C182 C178 1.477 . S
C182 H199 0.932 . S
C183 U166 2.882 . S
C183 C177 1.428 . S
C183 O186 1.301 . S
C183 O187 1.282 . S
O184 U166 2.441 . S
O184 C170 1.249 . S
O185 U166 2.420 . S
O185 C170 1.202 . S
O186 U166 2.455 . S
O186 C183 1.301 . S
O187 U166 2.449 . S
O187 C183 1.282 . S
H188 C161 0.931 . S
H189 C163 0.929 . S
H190 C164 0.930 . S
H191 C165 0.931 . S
H192 C172 0.932 . S
H193 C173 0.930 . S
H194 C174 0.929 . S
H195 C176 0.930 . S
H196 C178 0.932 . S
H197 C179 0.929 . S
H198 C180 0.928 . S
H199 C182 0.932 . S
C200 C201 1.264 . S
C200 C205 1.479 . S
C200 C210 1.465 . S
C201 C200 1.264 . S
C201 C203 1.339 . S
C201 H228 0.931 . S
C202 C203 1.395 . S
C202 C204 1.320 . S
C203 C201 1.339 . S
C203 C202 1.395 . S
C203 H229 0.929 . S
C204 C202 1.320 . S
C204 C205 1.405 . S
C204 H230 0.930 . S
C205 C200 1.479 . S
C205 C204 1.405 . S
C205 H231 0.931 . S
U206 O207 2.454 . S
U206 O208 2.458 . S
U206 C209 2.984 . S
U206 C210 2.847 . S
U206 C223 2.882 . S
U206 O224 2.441 . S
U206 O225 2.420 . S
U206 O226 2.455 . S
U206 O227 2.449 . S
O207 U206 2.454 . S
O207 C209 1.353 . S
O208 U206 2.458 . S
O208 C209 1.286 . S
C209 U206 2.984 . S
C209 O207 1.353 . S
C209 O208 1.286 . S
C209 C211 1.363 . S
C210 C200 1.465 . S
C210 U206 2.847 . S
C210 O224 1.249 . S
C210 O225 1.202 . S
C211 C209 1.363 . S
C211 C213 1.408 . S
C211 C216 1.342 . S
C212 C213 1.310 . S
C212 C215 1.461 . S
C212 H232 0.932 . S
C213 C211 1.408 . S
C213 C212 1.310 . S
C213 H233 0.930 . S
C214 C215 1.474 . S
C214 C216 1.285 . S
C214 H234 0.929 . S
C215 C212 1.461 . S
C215 C214 1.474 . S
C216 C211 1.342 . S
C216 C214 1.285 . S
C216 H235 0.930 . S
C217 C220 1.424 . S
C217 C222 1.245 . S
C217 C223 1.428 . S
C218 C221 1.260 . S
C218 C222 1.477 . S
C218 H236 0.932 . S
C219 C220 1.384 . S
C219 C221 1.479 . S
C219 H237 0.929 . S
C220 C217 1.424 . S
C220 C219 1.384 . S
C220 H238 0.928 . S
C221 C218 1.260 . S
C221 C219 1.479 . S
C222 C217 1.245 . S
C222 C218 1.477 . S
C222 H239 0.932 . S
C223 U206 2.882 . S
C223 C217 1.428 . S
C223 O226 1.301 . S
C223 O227 1.282 . S
O224 U206 2.441 . S
O224 C210 1.249 . S
O225 U206 2.420 . S
O225 C210 1.202 . S
O226 U206 2.455 . S
O226 C223 1.301 . S
O227 U206 2.449 . S
O227 C223 1.282 . S
H228 C201 0.931 . S
H229 C203 0.929 . S
H230 C204 0.930 . S
H231 C205 0.931 . S
H232 C212 0.932 . S
H233 C213 0.930 . S
H234 C214 0.929 . S
H235 C216 0.930 . S
H236 C218 0.932 . S
H237 C219 0.929 . S
H238 C220 0.928 . S
H239 C222 0.932 . S
C240 C241 1.264 . S
C240 C245 1.479 . S
C240 C250 1.465 . S
C241 C240 1.264 . S
C241 C243 1.339 . S
C241 H268 0.931 . S
C242 C243 1.395 . S
C242 C244 1.320 . S
C243 C241 1.339 . S
C243 C242 1.395 . S
C243 H269 0.929 . S
C244 C242 1.320 . S
C244 C245 1.405 . S
C244 H270 0.930 . S
C245 C240 1.479 . S
C245 C244 1.405 . S
C245 H271 0.931 . S
U246 O247 2.454 . S
U246 O248 2.458 . S
U246 C249 2.984 . S
U246 C250 2.847 . S
U246 C263 2.882 . S
U246 O264 2.441 . S
U246 O265 2.420 . S
U246 O266 2.455 . S
U246 O267 2.449 . S
O247 U246 2.454 . S
O247 C249 1.353 . S
O248 U246 2.458 . S
O248 C249 1.286 . S
C249 U246 2.984 . S
C249 O247 1.353 . S
C249 O248 1.286 . S
C249 C251 1.363 . S
C250 C240 1.465 . S
C250 U246 2.847 . S
C250 O264 1.249 . S
C250 O265 1.202 . S
C251 C249 1.363 . S
C251 C253 1.408 . S
C251 C256 1.342 . S
C252 C253 1.310 . S
C252 C255 1.461 . S
C252 H272 0.932 . S
C253 C251 1.408 . S
C253 C252 1.310 . S
C253 H273 0.930 . S
C254 C255 1.474 . S
C254 C256 1.285 . S
C254 H274 0.929 . S
C255 C252 1.461 . S
C255 C254 1.474 . S
C256 C251 1.342 . S
C256 C254 1.285 . S
C256 H275 0.930 . S
C257 C260 1.424 . S
C257 C262 1.245 . S
C257 C263 1.428 . S
C258 C261 1.260 . S
C258 C262 1.477 . S
C258 H276 0.932 . S
C259 C260 1.384 . S
C259 C261 1.479 . S
C259 H277 0.929 . S
C260 C257 1.424 . S
C260 C259 1.384 . S
C260 H278 0.928 . S
C261 C258 1.260 . S
C261 C259 1.479 . S
C262 C257 1.245 . S
C262 C258 1.477 . S
C262 H279 0.932 . S
C263 U246 2.882 . S
C263 C257 1.428 . S
C263 O266 1.301 . S
C263 O267 1.282 . S
O264 U246 2.441 . S
O264 C250 1.249 . S
O265 U246 2.420 . S
O265 C250 1.202 . S
O266 U246 2.455 . S
O266 C263 1.301 . S
O267 U246 2.449 . S
O267 C263 1.282 . S
H268 C241 0.931 . S
H269 C243 0.929 . S
H270 C244 0.930 . S
H271 C245 0.931 . S
H272 C252 0.932 . S
H273 C253 0.930 . S
H274 C254 0.929 . S
H275 C256 0.930 . S
H276 C258 0.932 . S
H277 C259 0.929 . S
H278 C260 0.928 . S
H279 C262 0.932 . S
C280 C281 1.264 . S
C280 C285 1.479 . S
C280 C290 1.465 . S
C281 C280 1.264 . S
C281 C283 1.339 . S
C281 H308 0.931 . S
C282 C283 1.395 . S
C282 C284 1.320 . S
C283 C281 1.339 . S
C283 C282 1.395 . S
C283 H309 0.929 . S
C284 C282 1.320 . S
C284 C285 1.405 . S
C284 H310 0.930 . S
C285 C280 1.479 . S
C285 C284 1.405 . S
C285 H311 0.931 . S
U286 O287 2.454 1_556 S
U286 O288 2.458 . S
U286 C289 2.984 . S
U286 C290 2.847 1_556 S
U286 C303 2.882 . S
U286 O304 2.441 1_556 S
U286 O305 2.420 1_556 S
U286 O306 2.455 . S
U286 O307 2.449 . S
O287 U286 2.454 1_554 S
O287 C289 1.353 1_554 S
O288 U286 2.458 . S
O288 C289 1.286 . S
C289 U286 2.984 . S
C289 O287 1.353 1_556 S
C289 O288 1.286 . S
C289 C291 1.363 . S
C290 C280 1.465 . S
C290 U286 2.847 1_554 S
C290 O304 1.249 . S
C290 O305 1.202 . S
C291 C289 1.363 . S
C291 C293 1.408 1_556 S
C291 C296 1.342 . S
C292 C293 1.310 . S
C292 C295 1.461 1_554 S
C292 H312 0.932 . S
C293 C291 1.408 1_554 S
C293 C292 1.310 . S
C293 H313 0.930 . S
C294 C295 1.474 . S
C294 C296 1.285 . S
C294 H314 0.929 . S
C295 C292 1.461 1_556 S
C295 C294 1.474 . S
C296 C291 1.342 . S
C296 C294 1.285 . S
C296 H315 0.930 . S
C297 C300 1.424 . S
C297 C302 1.245 . S
C297 C303 1.428 . S
C298 C301 1.260 . S
C298 C302 1.477 . S
C298 H316 0.932 . S
C299 C300 1.384 . S
C299 C301 1.479 . S
C299 H317 0.929 . S
C300 C297 1.424 . S
C300 C299 1.384 . S
C300 H318 0.928 . S
C301 C298 1.260 . S
C301 C299 1.479 . S
C302 C297 1.245 . S
C302 C298 1.477 . S
C302 H319 0.932 . S
C303 U286 2.882 . S
C303 C297 1.428 . S
C303 O306 1.301 . S
C303 O307 1.282 . S
O304 U286 2.441 1_554 S
O304 C290 1.249 . S
O305 U286 2.420 1_554 S
O305 C290 1.202 . S
O306 U286 2.455 . S
O306 C303 1.301 . S
O307 U286 2.449 . S
O307 C303 1.282 . S
H308 C281 0.931 . S
H309 C283 0.929 . S
H310 C284 0.930 . S
H311 C285 0.931 . S
H312 C292 0.932 . S
H313 C293 0.930 . S
H314 C294 0.929 . S
H315 C296 0.930 . S
H316 C298 0.932 . S
H317 C299 0.929 . S
H318 C300 0.928 . S
H319 C302 0.932 . S
C320 C321 1.264 . S
C320 C325 1.479 . S
C320 C330 1.465 . S
C321 C320 1.264 . S
C321 C323 1.339 . S
C321 H348 0.931 . S
C322 C323 1.395 . S
C322 C324 1.320 . S
C323 C321 1.339 . S
C323 C322 1.395 . S
C323 H349 0.929 . S
C324 C322 1.320 . S
C324 C325 1.405 . S
C324 H350 0.930 . S
C325 C320 1.479 . S
C325 C324 1.405 . S
C325 H351 0.931 . S
U326 O327 2.454 . S
U326 O328 2.458 . S
U326 C329 2.984 . S
U326 C330 2.847 . S
U326 C343 2.882 . S
U326 O344 2.441 . S
U326 O345 2.420 . S
U326 O346 2.455 . S
U326 O347 2.449 . S
O327 U326 2.454 . S
O327 C329 1.353 . S
O328 U326 2.458 . S
O328 C329 1.286 . S
C329 U326 2.984 . S
C329 O327 1.353 . S
C329 O328 1.286 . S
C329 C331 1.363 1_545 S
C330 C320 1.465 . S
C330 U326 2.847 . S
C330 O344 1.249 . S
C330 O345 1.202 . S
C331 C329 1.363 1_565 S
C331 C333 1.408 . S
C331 C336 1.342 . S
C332 C333 1.310 . S
C332 C335 1.461 . S
C332 H352 0.932 . S
C333 C331 1.408 . S
C333 C332 1.310 . S
C333 H353 0.930 . S
C334 C335 1.474 . S
C334 C336 1.285 . S
C334 H354 0.929 . S
C335 C332 1.461 . S
C335 C334 1.474 . S
C336 C331 1.342 . S
C336 C334 1.285 . S
C336 H355 0.930 . S
C337 C340 1.424 . S
C337 C342 1.245 . S
C337 C343 1.428 . S
C338 C341 1.260 . S
C338 C342 1.477 . S
C338 H356 0.932 . S
C339 C340 1.384 . S
C339 C341 1.479 . S
C339 H357 0.929 . S
C340 C337 1.424 . S
C340 C339 1.384 . S
C340 H358 0.928 . S
C341 C338 1.260 . S
C341 C339 1.479 . S
C342 C337 1.245 . S
C342 C338 1.477 . S
C342 H359 0.932 . S
C343 U326 2.882 . S
C343 C337 1.428 . S
C343 O346 1.301 . S
C343 O347 1.282 . S
O344 U326 2.441 . S
O344 C330 1.249 . S
O345 U326 2.420 . S
O345 C330 1.202 . S
O346 U326 2.455 . S
O346 C343 1.301 . S
O347 U326 2.449 . S
O347 C343 1.282 . S
H348 C321 0.931 . S
H349 C323 0.929 . S
H350 C324 0.930 . S
H351 C325 0.931 . S
H352 C332 0.932 . S
H353 C333 0.930 . S
H354 C334 0.929 . S
H355 C336 0.930 . S
H356 C338 0.932 . S
H357 C339 0.929 . S
H358 C340 0.928 . S
H359 C342 0.932 . S
C360 C361 1.264 . S
C360 C365 1.479 . S
C360 C370 1.465 . S
C361 C360 1.264 . S
C361 C363 1.339 . S
C361 H388 0.931 . S
C362 C363 1.395 . S
C362 C364 1.320 . S
C363 C361 1.339 . S
C363 C362 1.395 . S
C363 H389 0.929 . S
C364 C362 1.320 . S
C364 C365 1.405 . S
C364 H390 0.930 . S
C365 C360 1.479 . S
C365 C364 1.405 . S
C365 H391 0.931 . S
U366 O367 2.454 . S
U366 O368 2.458 . S
U366 C369 2.984 . S
U366 C370 2.847 . S
U366 C383 2.882 . S
U366 O384 2.441 . S
U366 O385 2.420 . S
U366 O386 2.455 . S
U366 O387 2.449 . S
O367 U366 2.454 . S
O367 C369 1.353 . S
O368 U366 2.458 . S
O368 C369 1.286 . S
C369 U366 2.984 . S
C369 O367 1.353 . S
C369 O368 1.286 . S
C369 C371 1.363 . S
C370 C360 1.465 . S
C370 U366 2.847 . S
C370 O384 1.249 . S
C370 O385 1.202 . S
C371 C369 1.363 . S
C371 C373 1.408 . S
C371 C376 1.342 . S
C372 C373 1.310 . S
C372 C375 1.461 . S
C372 H392 0.932 . S
C373 C371 1.408 . S
C373 C372 1.310 . S
C373 H393 0.930 . S
C374 C375 1.474 . S
C374 C376 1.285 . S
C374 H394 0.929 . S
C375 C372 1.461 . S
C375 C374 1.474 . S
C376 C371 1.342 . S
C376 C374 1.285 . S
C376 H395 0.930 . S
C377 C380 1.424 . S
C377 C382 1.245 . S
C377 C383 1.428 . S
C378 C381 1.260 . S
C378 C382 1.477 . S
C378 H396 0.932 . S
C379 C380 1.384 . S
C379 C381 1.479 . S
C379 H397 0.929 . S
C380 C377 1.424 . S
C380 C379 1.384 . S
C380 H398 0.928 . S
C381 C378 1.260 . S
C381 C379 1.479 . S
C382 C377 1.245 . S
C382 C378 1.477 . S
C382 H399 0.932 . S
C383 U366 2.882 . S
C383 C377 1.428 . S
C383 O386 1.301 . S
C383 O387 1.282 . S
O384 U366 2.441 . S
O384 C370 1.249 . S
O385 U366 2.420 . S
O385 C370 1.202 . S
O386 U366 2.455 . S
O386 C383 1.301 . S
O387 U366 2.449 . S
O387 C383 1.282 . S
H388 C361 0.931 . S
H389 C363 0.929 . S
H390 C364 0.930 . S
H391 C365 0.931 . S
H392 C372 0.932 . S
H393 C373 0.930 . S
H394 C374 0.929 . S
H395 C376 0.930 . S
H396 C378 0.932 . S
H397 C379 0.929 . S
H398 C380 0.928 . S
H399 C382 0.932 . S
C400 C401 1.264 . S
C400 C405 1.479 . S
C400 C410 1.465 1_545 S
C401 C400 1.264 . S
C401 C403 1.339 . S
C401 H428 0.931 . S
C402 C403 1.395 . S
C402 C404 1.320 . S
C403 C401 1.339 . S
C403 C402 1.395 . S
C403 H429 0.929 . S
C404 C402 1.320 . S
C404 C405 1.405 . S
C404 H430 0.930 . S
C405 C400 1.479 . S
C405 C404 1.405 . S
C405 H431 0.931 . S
U406 O407 2.454 . S
U406 O408 2.458 . S
U406 C409 2.984 . S
U406 C410 2.847 . S
U406 C423 2.882 . S
U406 O424 2.441 . S
U406 O425 2.420 . S
U406 O426 2.455 . S
U406 O427 2.449 . S
O407 U406 2.454 . S
O407 C409 1.353 . S
O408 U406 2.458 . S
O408 C409 1.286 . S
C409 U406 2.984 . S
C409 O407 1.353 . S
C409 O408 1.286 . S
C409 C411 1.363 . S
C410 C400 1.465 1_565 S
C410 U406 2.847 . S
C410 O424 1.249 . S
C410 O425 1.202 . S
C411 C409 1.363 . S
C411 C413 1.408 . S
C411 C416 1.342 . S
C412 C413 1.310 . S
C412 C415 1.461 . S
C412 H432 0.932 . S
C413 C411 1.408 . S
C413 C412 1.310 . S
C413 H433 0.930 . S
C414 C415 1.474 . S
C414 C416 1.285 . S
C414 H434 0.929 . S
C415 C412 1.461 . S
C415 C414 1.474 . S
C416 C411 1.342 . S
C416 C414 1.285 . S
C416 H435 0.930 . S
C417 C420 1.424 . S
C417 C422 1.245 . S
C417 C423 1.428 . S
C418 C421 1.260 . S
C418 C422 1.477 . S
C418 H436 0.932 . S
C419 C420 1.384 . S
C419 C421 1.479 . S
C419 H437 0.929 . S
C420 C417 1.424 . S
C420 C419 1.384 . S
C420 H438 0.928 . S
C421 C418 1.260 . S
C421 C419 1.479 . S
C422 C417 1.245 . S
C422 C418 1.477 . S
C422 H439 0.932 . S
C423 U406 2.882 . S
C423 C417 1.428 . S
C423 O426 1.301 . S
C423 O427 1.282 . S
O424 U406 2.441 . S
O424 C410 1.249 . S
O425 U406 2.420 . S
O425 C410 1.202 . S
O426 U406 2.455 . S
O426 C423 1.301 . S
O427 U406 2.449 . S
O427 C423 1.282 . S
H428 C401 0.931 . S
H429 C403 0.929 . S
H430 C404 0.930 . S
H431 C405 0.931 . S
H432 C412 0.932 . S
H433 C413 0.930 . S
H434 C414 0.929 . S
H435 C416 0.930 . S
H436 C418 0.932 . S
H437 C419 0.929 . S
H438 C420 0.928 . S
H439 C422 0.932 . S
C440 C441 1.264 . S
C440 C445 1.479 . S
C440 C450 1.465 . S
C441 C440 1.264 . S
C441 C443 1.339 . S
C441 H468 0.931 . S
C442 C443 1.395 . S
C442 C444 1.320 . S
C443 C441 1.339 . S
C443 C442 1.395 . S
C443 H469 0.929 . S
C444 C442 1.320 . S
C444 C445 1.405 . S
C444 H470 0.930 . S
C445 C440 1.479 . S
C445 C444 1.405 . S
C445 H471 0.931 . S
U446 O447 2.454 . S
U446 O448 2.458 . S
U446 C449 2.984 . S
U446 C450 2.847 . S
U446 C463 2.882 . S
U446 O464 2.441 . S
U446 O465 2.420 . S
U446 O466 2.455 . S
U446 O467 2.449 . S
O447 U446 2.454 . S
O447 C449 1.353 . S
O448 U446 2.458 . S
O448 C449 1.286 . S
C449 U446 2.984 . S
C449 O447 1.353 . S
C449 O448 1.286 . S
C449 C451 1.363 . S
C450 C440 1.465 . S
C450 U446 2.847 . S
C450 O464 1.249 . S
C450 O465 1.202 . S
C451 C449 1.363 . S
C451 C453 1.408 . S
C451 C456 1.342 . S
C452 C453 1.310 . S
C452 C455 1.461 . S
C452 H472 0.932 . S
C453 C451 1.408 . S
C453 C452 1.310 . S
C453 H473 0.930 . S
C454 C455 1.474 . S
C454 C456 1.285 . S
C454 H474 0.929 . S
C455 C452 1.461 . S
C455 C454 1.474 . S
C456 C451 1.342 . S
C456 C454 1.285 . S
C456 H475 0.930 . S
C457 C460 1.424 . S
C457 C462 1.245 . S
C457 C463 1.428 . S
C458 C461 1.260 . S
C458 C462 1.477 . S
C458 H476 0.932 . S
C459 C460 1.384 . S
C459 C461 1.479 . S
C459 H477 0.929 . S
C460 C457 1.424 . S
C460 C459 1.384 . S
C460 H478 0.928 . S
C461 C458 1.260 . S
C461 C459 1.479 . S
C462 C457 1.245 . S
C462 C458 1.477 . S
C462 H479 0.932 . S
C463 U446 2.882 . S
C463 C457 1.428 . S
C463 O466 1.301 . S
C463 O467 1.282 . S
O464 U446 2.441 . S
O464 C450 1.249 . S
O465 U446 2.420 . S
O465 C450 1.202 . S
O466 U446 2.455 . S
O466 C463 1.301 . S
O467 U446 2.449 . S
O467 C463 1.282 . S
H468 C441 0.931 . S
H469 C443 0.929 . S
H470 C444 0.930 . S
H471 C445 0.931 . S
H472 C452 0.932 . S
H473 C453 0.930 . S
H474 C454 0.929 . S
H475 C456 0.930 . S
H476 C458 0.932 . S
H477 C459 0.929 . S
H478 C460 0.928 . S
H479 C462 0.932 . S
C480 C481 1.264 . S
C480 C485 1.479 . S
C480 C490 1.465 . S
C481 C480 1.264 . S
C481 C483 1.339 . S
C481 H508 0.931 . S
C482 C483 1.395 . S
C482 C484 1.320 . S
C483 C481 1.339 . S
C483 C482 1.395 . S
C483 H509 0.929 . S
C484 C482 1.320 . S
C484 C485 1.405 . S
C484 H510 0.930 . S
C485 C480 1.479 . S
C485 C484 1.405 . S
C485 H511 0.931 . S
U486 O487 2.454 1_554 S
U486 O488 2.458 1_554 S
U486 C489 2.984 1_554 S
U486 C490 2.847 . S
U486 C503 2.882 . S
U486 O504 2.441 . S
U486 O505 2.420 . S
U486 O506 2.455 . S
U486 O507 2.449 . S
O487 U486 2.454 1_556 S
O487 C489 1.353 . S
O488 U486 2.458 1_556 S
O488 C489 1.286 . S
C489 U486 2.984 1_556 S
C489 O487 1.353 . S
C489 O488 1.286 . S
C489 C491 1.363 . S
C490 C480 1.465 . S
C490 U486 2.847 . S
C490 O504 1.249 . S
C490 O505 1.202 . S
C491 C489 1.363 . S
C491 C493 1.408 . S
C491 C496 1.342 . S
C492 C493 1.310 . S
C492 C495 1.461 . S
C492 H512 0.932 . S
C493 C491 1.408 . S
C493 C492 1.310 . S
C493 H513 0.930 . S
C494 C495 1.474 . S
C494 C496 1.285 . S
C494 H514 0.929 . S
C495 C492 1.461 . S
C495 C494 1.474 . S
C496 C491 1.342 . S
C496 C494 1.285 . S
C496 H515 0.930 . S
C497 C500 1.424 . S
C497 C502 1.245 . S
C497 C503 1.428 . S
C498 C501 1.260 . S
C498 C502 1.477 . S
C498 H516 0.932 . S
C499 C500 1.384 . S
C499 C501 1.479 . S
C499 H517 0.929 . S
C500 C497 1.424 . S
C500 C499 1.384 . S
C500 H518 0.928 . S
C501 C498 1.260 . S
C501 C499 1.479 . S
C502 C497 1.245 . S
C502 C498 1.477 . S
C502 H519 0.932 . S
C503 U486 2.882 . S
C503 C497 1.428 . S
C503 O506 1.301 . S
C503 O507 1.282 . S
O504 U486 2.441 . S
O504 C490 1.249 . S
O505 U486 2.420 . S
O505 C490 1.202 . S
O506 U486 2.455 . S
O506 C503 1.301 . S
O507 U486 2.449 . S
O507 C503 1.282 . S
H508 C481 0.931 . S
H509 C483 0.929 . S
H510 C484 0.930 . S
H511 C485 0.931 . S
H512 C492 0.932 . S
H513 C493 0.930 . S
H514 C494 0.929 . S
H515 C496 0.930 . S
H516 C498 0.932 . S
H517 C499 0.929 . S
H518 C500 0.928 . S
H519 C502 0.932 . S
C520 C521 1.264 . S
C520 C525 1.479 . S
C520 C530 1.465 . S
C521 C520 1.264 . S
C521 C523 1.339 . S
C521 H548 0.931 . S
C522 C523 1.395 . S
C522 C524 1.320 . S
C523 C521 1.339 . S
C523 C522 1.395 . S
C523 H549 0.929 . S
C524 C522 1.320 . S
C524 C525 1.405 . S
C524 H550 0.930 . S
C525 C520 1.479 . S
C525 C524 1.405 . S
C525 H551 0.931 . S
U526 O527 2.454 . S
U526 O528 2.458 . S
U526 C529 2.984 . S
U526 C530 2.847 . S
U526 C543 2.882 . S
U526 O544 2.441 . S
U526 O545 2.420 . S
U526 O546 2.455 . S
U526 O547 2.449 . S
O527 U526 2.454 . S
O527 C529 1.353 . S
O528 U526 2.458 . S
O528 C529 1.286 . S
C529 U526 2.984 . S
C529 O527 1.353 . S
C529 O528 1.286 . S
C529 C531 1.363 . S
C530 C520 1.465 . S
C530 U526 2.847 . S
C530 O544 1.249 . S
C530 O545 1.202 . S
C531 C529 1.363 . S
C531 C533 1.408 . S
C531 C536 1.342 . S
C532 C533 1.310 . S
C532 C535 1.461 . S
C532 H552 0.932 . S
C533 C531 1.408 . S
C533 C532 1.310 . S
C533 H553 0.930 . S
C534 C535 1.474 . S
C534 C536 1.285 . S
C534 H554 0.929 . S
C535 C532 1.461 . S
C535 C534 1.474 . S
C536 C531 1.342 . S
C536 C534 1.285 . S
C536 H555 0.930 . S
C537 C540 1.424 . S
C537 C542 1.245 . S
C537 C543 1.428 . S
C538 C541 1.260 . S
C538 C542 1.477 . S
C538 H556 0.932 . S
C539 C540 1.384 . S
C539 C541 1.479 . S
C539 H557 0.929 . S
C540 C537 1.424 . S
C540 C539 1.384 . S
C540 H558 0.928 . S
C541 C538 1.260 . S
C541 C539 1.479 . S
C542 C537 1.245 . S
C542 C538 1.477 . S
C542 H559 0.932 . S
C543 U526 2.882 . S
C543 C537 1.428 . S
C543 O546 1.301 . S
C543 O547 1.282 . S
O544 U526 2.441 . S
O544 C530 1.249 . S
O545 U526 2.420 . S
O545 C530 1.202 . S
O546 U526 2.455 . S
O546 C543 1.301 . S
O547 U526 2.449 . S
O547 C543 1.282 . S
H548 C521 0.931 . S
H549 C523 0.929 . S
H550 C524 0.930 . S
H551 C525 0.931 . S
H552 C532 0.932 . S
H553 C533 0.930 . S
H554 C534 0.929 . S
H555 C536 0.930 . S
H556 C538 0.932 . S
H557 C539 0.929 . S
H558 C540 0.928 . S
H559 C542 0.932 . S
C560 C561 1.264 . S
C560 C565 1.479 . S
C560 C570 1.465 . S
C561 C560 1.264 . S
C561 C563 1.339 . S
C561 H588 0.931 . S
C562 C563 1.395 . S
C562 C564 1.320 . S
C563 C561 1.339 . S
C563 C562 1.395 . S
C563 H589 0.929 . S
C564 C562 1.320 . S
C564 C565 1.405 . S
C564 H590 0.930 . S
C565 C560 1.479 . S
C565 C564 1.405 . S
C565 H591 0.931 . S
U566 O567 2.454 . S
U566 O568 2.458 . S
U566 C569 2.984 . S
U566 C570 2.847 . S
U566 C583 2.882 . S
U566 O584 2.441 . S
U566 O585 2.420 . S
U566 O586 2.455 . S
U566 O587 2.449 . S
O567 U566 2.454 . S
O567 C569 1.353 . S
O568 U566 2.458 . S
O568 C569 1.286 . S
C569 U566 2.984 . S
C569 O567 1.353 . S
C569 O568 1.286 . S
C569 C571 1.363 . S
C570 C560 1.465 . S
C570 U566 2.847 . S
C570 O584 1.249 . S
C570 O585 1.202 . S
C571 C569 1.363 . S
C571 C573 1.408 . S
C571 C576 1.342 . S
C572 C573 1.310 . S
C572 C575 1.461 . S
C572 H592 0.932 . S
C573 C571 1.408 . S
C573 C572 1.310 . S
C573 H593 0.930 . S
C574 C575 1.474 . S
C574 C576 1.285 . S
C574 H594 0.929 . S
C575 C572 1.461 . S
C575 C574 1.474 . S
C576 C571 1.342 . S
C576 C574 1.285 . S
C576 H595 0.930 . S
C577 C580 1.424 . S
C577 C582 1.245 . S
C577 C583 1.428 . S
C578 C581 1.260 . S
C578 C582 1.477 . S
C578 H596 0.932 . S
C579 C580 1.384 . S
C579 C581 1.479 . S
C579 H597 0.929 . S
C580 C577 1.424 . S
C580 C579 1.384 . S
C580 H598 0.928 . S
C581 C578 1.260 . S
C581 C579 1.479 . S
C582 C577 1.245 . S
C582 C578 1.477 . S
C582 H599 0.932 . S
C583 U566 2.882 . S
C583 C577 1.428 . S
C583 O586 1.301 . S
C583 O587 1.282 . S
O584 U566 2.441 . S
O584 C570 1.249 . S
O585 U566 2.420 . S
O585 C570 1.202 . S
O586 U566 2.455 . S
O586 C583 1.301 . S
O587 U566 2.449 . S
O587 C583 1.282 . S
H588 C561 0.931 . S
H589 C563 0.929 . S
H590 C564 0.930 . S
H591 C565 0.931 . S
H592 C572 0.932 . S
H593 C573 0.930 . S
H594 C574 0.929 . S
H595 C576 0.930 . S
H596 C578 0.932 . S
H597 C579 0.929 . S
H598 C580 0.928 . S
H599 C582 0.932 . S
C600 C601 1.264 . S
C600 C605 1.479 . S
C600 C610 1.465 . S
C601 C600 1.264 . S
C601 C603 1.339 . S
C601 H628 0.931 . S
C602 C603 1.395 . S
C602 C604 1.320 . S
C603 C601 1.339 . S
C603 C602 1.395 . S
C603 H629 0.929 . S
C604 C602 1.320 . S
C604 C605 1.405 . S
C604 H630 0.930 . S
C605 C600 1.479 . S
C605 C604 1.405 . S
C605 H631 0.931 . S
U606 O607 2.454 . S
U606 O608 2.458 . S
U606 C609 2.984 . S
U606 C610 2.847 . S
U606 C623 2.882 . S
U606 O624 2.441 . S
U606 O625 2.420 . S
U606 O626 2.455 . S
U606 O627 2.449 . S
O607 U606 2.454 . S
O607 C609 1.353 . S
O608 U606 2.458 . S
O608 C609 1.286 . S
C609 U606 2.984 . S
C609 O607 1.353 . S
C609 O608 1.286 . S
C609 C611 1.363 1_655 S
C610 C600 1.465 . S
C610 U606 2.847 . S
C610 O624 1.249 . S
C610 O625 1.202 . S
C611 C609 1.363 1_455 S
C611 C613 1.408 . S
C611 C616 1.342 . S
C612 C613 1.310 . S
C612 C615 1.461 . S
C612 H632 0.932 . S
C613 C611 1.408 . S
C613 C612 1.310 . S
C613 H633 0.930 . S
C614 C615 1.474 . S
C614 C616 1.285 . S
C614 H634 0.929 . S
C615 C612 1.461 . S
C615 C614 1.474 . S
C616 C611 1.342 . S
C616 C614 1.285 . S
C616 H635 0.958 . S
C617 C620 1.424 . S
C617 C622 1.245 . S
C617 C623 1.428 . S
C618 C621 1.260 . S
C618 C622 1.477 . S
C618 H636 0.932 . S
C619 C620 1.384 . S
C619 C621 1.479 . S
C619 H637 0.929 . S
C620 C617 1.424 . S
C620 C619 1.384 . S
C620 H638 0.928 . S
C621 C618 1.260 . S
C621 C619 1.479 . S
C622 C617 1.245 . S
C622 C618 1.477 . S
C622 H639 0.932 . S
C623 U606 2.882 . S
C623 C617 1.428 . S
C623 O626 1.301 . S
C623 O627 1.282 . S
O624 U606 2.441 . S
O624 C610 1.249 . S
O625 U606 2.420 . S
O625 C610 1.202 . S
O626 U606 2.455 . S
O626 C623 1.301 . S
O627 U606 2.449 . S
O627 C623 1.282 . S
H628 C601 0.931 . S
H629 C603 0.929 . S
H630 C604 0.930 . S
H631 C605 0.931 . S
H632 C612 0.932 . S
H633 C613 0.930 . S
H634 C614 0.929 . S
H635 C616 0.958 . S
H636 C618 0.932 . S
H637 C619 0.929 . S
H638 C620 0.928 . S
H639 C622 0.932 . S
C640 C641 1.264 . S
C640 C645 1.479 . S
C640 C650 1.465 . S
C641 C640 1.264 . S
C641 C643 1.339 . S
C641 H668 0.931 . S
C642 C643 1.395 . S
C642 C644 1.320 . S
C643 C641 1.339 . S
C643 C642 1.395 . S
C643 H669 0.929 . S
C644 C642 1.320 . S
C644 C645 1.405 . S
C644 H670 0.930 . S
C645 C640 1.479 . S
C645 C644 1.405 . S
C645 H671 0.931 . S
U646 O647 2.454 . S
U646 O648 2.458 . S
U646 C649 2.984 . S
U646 C650 2.847 . S
U646 C663 2.882 . S
U646 O664 2.441 . S
U646 O665 2.420 . S
U646 O666 2.455 . S
U646 O667 2.449 . S
O647 U646 2.454 . S
O647 C649 1.353 . S
O648 U646 2.458 . S
O648 C649 1.286 . S
C649 U646 2.984 . S
C649 O647 1.353 . S
C649 O648 1.286 . S
C649 C651 1.363 . S
C650 C640 1.465 . S
C650 U646 2.847 . S
C650 O664 1.249 . S
C650 O665 1.202 . S
C651 C649 1.363 . S
C651 C653 1.408 . S
C651 C656 1.342 . S
C652 C653 1.310 . S
C652 C655 1.461 . S
C652 H672 0.932 . S
C653 C651 1.408 . S
C653 C652 1.310 . S
C653 H673 0.930 . S
C654 C655 1.474 . S
C654 C656 1.285 . S
C654 H674 0.929 . S
C655 C652 1.461 . S
C655 C654 1.474 . S
C656 C651 1.342 . S
C656 C654 1.285 . S
C656 H675 0.930 . S
C657 C660 1.424 . S
C657 C662 1.245 . S
C657 C663 1.428 . S
C658 C661 1.260 . S
C658 C662 1.477 . S
C658 H676 0.932 . S
C659 C660 1.384 . S
C659 C661 1.479 . S
C659 H677 0.929 . S
C660 C657 1.424 . S
C660 C659 1.384 . S
C660 H678 0.928 . S
C661 C658 1.260 . S
C661 C659 1.479 . S
C662 C657 1.245 . S
C662 C658 1.477 . S
C662 H679 0.932 . S
C663 U646 2.882 . S
C663 C657 1.428 . S
C663 O666 1.301 . S
C663 O667 1.282 . S
O664 U646 2.441 . S
O664 C650 1.249 . S
O665 U646 2.420 . S
O665 C650 1.202 . S
O666 U646 2.455 . S
O666 C663 1.301 . S
O667 U646 2.449 . S
O667 C663 1.282 . S
H668 C641 0.931 . S
H669 C643 0.929 . S
H670 C644 0.930 . S
H671 C645 0.931 . S
H672 C652 0.932 . S
H673 C653 0.930 . S
H674 C654 0.929 . S
H675 C656 0.930 . S
H676 C658 0.932 . S
H677 C659 0.929 . S
H678 C660 0.928 . S
H679 C662 0.932 . S
C680 C681 1.264 . S
C680 C685 1.479 . S
C680 C690 1.465 . S
C681 C680 1.264 . S
C681 C683 1.339 . S
C681 H708 0.931 . S
C682 C683 1.395 . S
C682 C684 1.320 . S
C683 C681 1.339 . S
C683 C682 1.395 . S
C683 H709 0.929 . S
C684 C682 1.320 . S
C684 C685 1.405 . S
C684 H710 0.930 . S
C685 C680 1.479 . S
C685 C684 1.405 . S
C685 H711 0.931 . S
U686 O687 2.454 . S
U686 O688 2.458 . S
U686 C689 2.984 . S
U686 C690 2.847 . S
U686 C703 2.882 . S
U686 O704 2.441 . S
U686 O705 2.420 . S
U686 O706 2.455 . S
U686 O707 2.449 . S
O687 U686 2.454 . S
O687 C689 1.353 . S
O688 U686 2.458 . S
O688 C689 1.286 . S
C689 U686 2.984 . S
C689 O687 1.353 . S
C689 O688 1.286 . S
C689 C691 1.363 . S
C690 C680 1.465 . S
C690 U686 2.847 . S
C690 O704 1.249 . S
C690 O705 1.202 . S
C691 C689 1.363 . S
C691 C693 1.408 . S
C691 C696 1.342 . S
C692 C693 1.310 . S
C692 C695 1.461 . S
C692 H712 0.932 . S
C693 C691 1.408 . S
C693 C692 1.310 . S
C693 H713 0.930 . S
C694 C695 1.474 . S
C694 C696 1.285 . S
C694 H714 0.929 . S
C695 C692 1.461 . S
C695 C694 1.474 . S
C696 C691 1.342 . S
C696 C694 1.285 . S
C696 H715 0.930 . S
C697 C700 1.424 . S
C697 C702 1.245 . S
C697 C703 1.428 . S
C698 C701 1.260 . S
C698 C702 1.477 . S
C698 H716 0.932 . S
C699 C700 1.384 . S
C699 C701 1.479 . S
C699 H717 0.929 . S
C700 C697 1.424 . S
C700 C699 1.384 . S
C700 H718 0.928 . S
C701 C698 1.260 . S
C701 C699 1.479 . S
C702 C697 1.245 . S
C702 C698 1.477 . S
C702 H719 0.932 . S
C703 U686 2.882 . S
C703 C697 1.428 . S
C703 O706 1.301 . S
C703 O707 1.282 . S
O704 U686 2.441 . S
O704 C690 1.249 . S
O705 U686 2.420 . S
O705 C690 1.202 . S
O706 U686 2.455 . S
O706 C703 1.301 . S
O707 U686 2.449 . S
O707 C703 1.282 . S
H708 C681 0.931 . S
H709 C683 0.929 . S
H710 C684 0.930 . S
H711 C685 0.931 . S
H712 C692 0.932 . S
H713 C693 0.930 . S
H714 C694 0.929 . S
H715 C696 0.930 . S
H716 C698 0.932 . S
H717 C699 0.929 . S
H718 C700 0.928 . S
H719 C702 0.932 . S
C720 C721 1.264 . S
C720 C725 1.479 . S
C720 C730 1.465 . S
C721 C720 1.264 . S
C721 C723 1.339 . S
C721 H748 0.931 . S
C722 C723 1.395 . S
C722 C724 1.320 . S
C723 C721 1.339 . S
C723 C722 1.395 . S
C723 H749 0.929 . S
C724 C722 1.320 . S
C724 C725 1.405 . S
C724 H750 0.930 . S
C725 C720 1.479 . S
C725 C724 1.405 . S
C725 H751 0.931 . S
U726 O727 2.438 1_556 S
U726 O728 2.443 1_556 S
U726 C729 2.967 1_556 S
U726 C730 2.855 . S
U726 C743 2.892 . S
U726 O744 2.441 . S
U726 O745 2.434 . S
U726 O746 2.457 . S
U726 O747 2.464 . S
O727 U726 2.438 1_554 S
O727 C729 1.353 . S
O728 U726 2.443 1_554 S
O728 C729 1.286 . S
C729 U726 2.967 1_554 S
C729 O727 1.353 . S
C729 O728 1.286 . S
C729 C731 1.363 . S
C730 C720 1.465 . S
C730 U726 2.855 . S
C730 O744 1.249 . S
C730 O745 1.202 . S
C731 C729 1.363 . S
C731 C733 1.408 . S
C731 C736 1.342 . S
C732 C733 1.310 . S
C732 C735 1.461 . S
C732 H752 0.932 . S
C733 C731 1.408 . S
C733 C732 1.310 . S
C733 H753 0.930 . S
C734 C735 1.474 . S
C734 C736 1.285 . S
C734 H754 0.929 . S
C735 C732 1.461 . S
C735 C734 1.474 . S
C736 C731 1.342 . S
C736 C734 1.285 . S
C736 H755 0.930 . S
C737 C740 1.424 . S
C737 C742 1.245 . S
C737 C743 1.428 . S
C738 C741 1.260 . S
C738 C742 1.477 . S
C738 H756 0.932 . S
C739 C740 1.384 . S
C739 C741 1.479 . S
C739 H757 0.929 . S
C740 C737 1.424 . S
C740 C739 1.384 . S
C740 H758 0.928 . S
C741 C738 1.260 . S
C741 C739 1.479 . S
C742 C737 1.245 . S
C742 C738 1.477 . S
C742 H759 0.932 . S
C743 U726 2.892 . S
C743 C737 1.428 . S
C743 O746 1.301 . S
C743 O747 1.282 . S
O744 U726 2.441 . S
O744 C730 1.249 . S
O745 U726 2.434 . S
O745 C730 1.202 . S
O746 U726 2.457 . S
O746 C743 1.301 . S
O747 U726 2.464 . S
O747 C743 1.282 . S
H748 C721 0.931 . S
H749 C723 0.929 . S
H750 C724 0.930 . S
H751 C725 0.931 . S
H752 C732 0.932 . S
H753 C733 0.930 . S
H754 C734 0.929 . S
H755 C736 0.930 . S
H756 C738 0.932 . S
H757 C739 0.929 . S
H758 C740 0.928 . S
H759 C742 0.932 . S
C760 C761 1.264 . S
C760 C765 1.479 . S
C760 C770 1.465 . S
C761 C760 1.264 . S
C761 C763 1.339 . S
C761 H788 0.931 . S
C762 C763 1.395 . S
C762 C764 1.320 . S
C763 C761 1.339 . S
C763 C762 1.395 . S
C763 H789 0.929 . S
C764 C762 1.320 . S
C764 C765 1.405 . S
C764 H790 0.930 . S
C765 C760 1.479 . S
C765 C764 1.405 . S
C765 H791 0.931 . S
U766 O767 2.454 . S
U766 O768 2.458 . S
U766 C769 2.984 . S
U766 C770 2.847 . S
U766 C783 2.882 . S
U766 O784 2.441 . S
U766 O785 2.420 . S
U766 O786 2.455 . S
U766 O787 2.449 . S
O767 U766 2.454 . S
O767 C769 1.353 . S
O768 U766 2.458 . S
O768 C769 1.286 . S
C769 U766 2.984 . S
C769 O767 1.353 . S
C769 O768 1.286 . S
C769 C771 1.363 . S
C770 C760 1.465 . S
C770 U766 2.847 . S
C770 O784 1.249 . S
C770 O785 1.202 . S
C771 C769 1.363 . S
C771 C773 1.408 . S
C771 C776 1.342 . S
C772 C773 1.310 . S
C772 C775 1.461 . S
C772 H792 0.932 . S
C773 C771 1.408 . S
C773 C772 1.310 . S
C773 H793 0.930 . S
C774 C775 1.474 . S
C774 C776 1.285 . S
C774 H794 0.929 . S
C775 C772 1.461 . S
C775 C774 1.474 . S
C776 C771 1.342 . S
C776 C774 1.285 . S
C776 H795 0.930 . S
C777 C780 1.424 . S
C777 C782 1.245 . S
C777 C783 1.428 . S
C778 C781 1.260 . S
C778 C782 1.477 . S
C778 H796 0.932 . S
C779 C780 1.384 . S
C779 C781 1.479 . S
C779 H797 0.929 . S
C780 C777 1.424 . S
C780 C779 1.384 . S
C780 H798 0.928 . S
C781 C778 1.260 . S
C781 C779 1.479 . S
C782 C777 1.245 . S
C782 C778 1.477 . S
C782 H799 0.932 . S
C783 U766 2.882 . S
C783 C777 1.428 . S
C783 O786 1.301 . S
C783 O787 1.282 . S
O784 U766 2.441 . S
O784 C770 1.249 . S
O785 U766 2.420 . S
O785 C770 1.202 . S
O786 U766 2.455 . S
O786 C783 1.301 . S
O787 U766 2.449 . S
O787 C783 1.282 . S
H788 C761 0.931 . S
H789 C763 0.929 . S
H790 C764 0.930 . S
H791 C765 0.931 . S
H792 C772 0.932 . S
H793 C773 0.930 . S
H794 C774 0.929 . S
H795 C776 0.930 . S
H796 C778 0.932 . S
H797 C779 0.929 . S
H798 C780 0.928 . S
H799 C782 0.932 . S
C800 C801 1.264 . S
C800 C805 1.479 . S
C800 C810 1.465 . S
C801 C800 1.264 . S
C801 C803 1.339 . S
C801 H828 0.931 . S
C802 C803 1.395 . S
C802 C804 1.320 . S
C803 C801 1.339 . S
C803 C802 1.395 . S
C803 H829 0.929 . S
C804 C802 1.320 . S
C804 C805 1.405 . S
C804 H830 0.930 . S
C805 C800 1.479 . S
C805 C804 1.405 . S
C805 H831 0.931 . S
U806 O807 2.454 . S
U806 O808 2.458 . S
U806 C809 2.984 . S
U806 C810 2.847 . S
U806 C823 2.882 . S
U806 O824 2.441 . S
U806 O825 2.420 . S
U806 O826 2.455 . S
U806 O827 2.449 . S
O807 U806 2.454 . S
O807 C809 1.353 . S
O808 U806 2.458 . S
O808 C809 1.286 . S
C809 U806 2.984 . S
C809 O807 1.353 . S
C809 O808 1.286 . S
C809 C811 1.363 . S
C810 C800 1.465 . S
C810 U806 2.847 . S
C810 O824 1.249 . S
C810 O825 1.202 . S
C811 C809 1.363 . S
C811 C813 1.408 . S
C811 C816 1.342 . S
C812 C813 1.310 . S
C812 C815 1.461 . S
C812 H832 0.932 . S
C813 C811 1.408 . S
C813 C812 1.310 . S
C813 H833 0.930 . S
C814 C815 1.474 . S
C814 C816 1.285 . S
C814 H834 0.929 . S
C815 C812 1.461 . S
C815 C814 1.474 . S
C816 C811 1.342 . S
C816 C814 1.285 . S
C816 H835 0.930 . S
C817 C820 1.424 . S
C817 C822 1.245 . S
C817 C823 1.428 . S
C818 C821 1.260 . S
C818 C822 1.477 . S
C818 H836 0.932 . S
C819 C820 1.384 . S
C819 C821 1.479 . S
C819 H837 0.929 . S
C820 C817 1.424 . S
C820 C819 1.384 . S
C820 H838 0.928 . S
C821 C818 1.260 . S
C821 C819 1.479 . S
C822 C817 1.245 . S
C822 C818 1.477 . S
C822 H839 0.932 . S
C823 U806 2.882 . S
C823 C817 1.428 . S
C823 O826 1.301 . S
C823 O827 1.282 . S
O824 U806 2.441 . S
O824 C810 1.249 . S
O825 U806 2.420 . S
O825 C810 1.202 . S
O826 U806 2.455 . S
O826 C823 1.301 . S
O827 U806 2.449 . S
O827 C823 1.282 . S
H828 C801 0.931 . S
H829 C803 0.929 . S
H830 C804 0.930 . S
H831 C805 0.931 . S
H832 C812 0.932 . S
H833 C813 0.930 . S
H834 C814 0.929 . S
H835 C816 0.930 . S
H836 C818 0.932 . S
H837 C819 0.929 . S
H838 C820 0.928 . S
H839 C822 0.932 . S
C840 C841 1.264 . S
C840 C845 1.479 . S
C840 C850 1.465 . S
C841 C840 1.264 . S
C841 C843 1.339 . S
C841 H868 0.931 . S
C842 C843 1.395 . S
C842 C844 1.320 . S
C843 C841 1.339 . S
C843 C842 1.395 . S
C843 H869 0.929 . S
C844 C842 1.320 . S
C844 C845 1.405 . S
C844 H870 0.930 . S
C845 C840 1.479 . S
C845 C844 1.405 . S
C845 H871 0.931 . S
U846 O847 2.454 . S
U846 O848 2.458 . S
U846 C849 2.984 . S
U846 C850 2.847 . S
U846 C863 2.882 . S
U846 O864 2.441 . S
U846 O865 2.420 . S
U846 O866 2.455 . S
U846 O867 2.449 . S
O847 U846 2.454 . S
O847 C849 1.353 . S
O848 U846 2.458 . S
O848 C849 1.286 . S
C849 U846 2.984 . S
C849 O847 1.353 . S
C849 O848 1.286 . S
C849 C851 1.363 . S
C850 C840 1.465 . S
C850 U846 2.847 . S
C850 O864 1.249 . S
C850 O865 1.202 . S
C851 C849 1.363 . S
C851 C853 1.408 . S
C851 C856 1.342 . S
C852 C853 1.310 . S
C852 C855 1.461 . S
C852 H872 0.932 . S
C853 C851 1.408 . S
C853 C852 1.310 . S
C853 H873 0.930 . S
C854 C855 1.474 . S
C854 C856 1.285 . S
C854 H874 0.929 . S
C855 C852 1.461 . S
C855 C854 1.474 . S
C856 C851 1.342 . S
C856 C854 1.285 . S
C856 H875 0.930 . S
C857 C860 1.424 . S
C857 C862 1.245 . S
C857 C863 1.428 . S
C858 C861 1.260 . S
C858 C862 1.477 . S
C858 H876 0.932 . S
C859 C860 1.384 . S
C859 C861 1.479 . S
C859 H877 0.929 . S
C860 C857 1.424 . S
C860 C859 1.384 . S
C860 H878 0.928 . S
C861 C858 1.260 . S
C861 C859 1.479 . S
C862 C857 1.245 . S
C862 C858 1.477 . S
C862 H879 0.932 . S
C863 U846 2.882 . S
C863 C857 1.428 . S
C863 O866 1.301 . S
C863 O867 1.282 . S
O864 U846 2.441 . S
O864 C850 1.249 . S
O865 U846 2.420 . S
O865 C850 1.202 . S
O866 U846 2.455 . S
O866 C863 1.301 . S
O867 U846 2.449 . S
O867 C863 1.282 . S
H868 C841 0.931 . S
H869 C843 0.929 . S
H870 C844 0.930 . S
H871 C845 0.931 . S
H872 C852 0.932 . S
H873 C853 0.930 . S
H874 C854 0.929 . S
H875 C856 0.930 . S
H876 C858 0.932 . S
H877 C859 0.929 . S
H878 C860 0.928 . S
H879 C862 0.932 . S
C880 C881 1.264 . S
C880 C885 1.479 . S
C880 C890 1.465 . S
C881 C880 1.264 . S
C881 C883 1.339 . S
C881 H908 0.931 . S
C882 C883 1.395 . S
C882 C884 1.320 . S
C883 C881 1.339 . S
C883 C882 1.395 . S
C883 H909 0.929 . S
C884 C882 1.320 . S
C884 C885 1.405 . S
C884 H910 0.930 . S
C885 C880 1.479 . S
C885 C884 1.405 . S
C885 H911 0.931 . S
U886 O887 2.454 . S
U886 O888 2.458 1_556 S
U886 C889 2.984 1_556 S
U886 C890 2.847 . S
U886 C903 2.882 1_556 S
U886 O904 2.441 . S
U886 O905 2.420 . S
U886 O906 2.455 1_556 S
U886 O907 2.449 1_556 S
O887 U886 2.454 . S
O887 C889 1.353 1_556 S
O888 U886 2.458 1_554 S
O888 C889 1.286 . S
C889 U886 2.984 1_554 S
C889 O887 1.353 1_554 S
C889 O888 1.286 . S
C889 C891 1.363 . S
C890 C880 1.465 . S
C890 U886 2.847 . S
C890 O904 1.249 . S
C890 O905 1.202 . S
C891 C889 1.363 . S
C891 C893 1.408 1_554 S
C891 C896 1.342 . S
C892 C893 1.310 . S
C892 C895 1.461 1_556 S
C892 H912 0.932 . S
C893 C891 1.408 1_556 S
C893 C892 1.310 . S
C893 H913 0.930 . S
C894 C895 1.474 . S
C894 C896 1.285 . S
C894 H914 0.929 . S
C895 C892 1.461 1_554 S
C895 C894 1.474 . S
C896 C891 1.342 . S
C896 C894 1.285 . S
C896 H915 0.930 . S
C897 C900 1.424 . S
C897 C902 1.245 . S
C897 C903 1.428 . S
C898 C901 1.260 . S
C898 C902 1.477 . S
C898 H916 0.932 . S
C899 C900 1.384 . S
C899 C901 1.479 . S
C899 H917 0.929 . S
C900 C897 1.424 . S
C900 C899 1.384 . S
C900 H918 0.928 . S
C901 C898 1.260 . S
C901 C899 1.479 . S
C902 C897 1.245 . S
C902 C898 1.477 . S
C902 H919 0.932 . S
C903 U886 2.882 1_554 S
C903 C897 1.428 . S
C903 O906 1.301 . S
C903 O907 1.282 . S
O904 U886 2.441 . S
O904 C890 1.249 . S
O905 U886 2.420 . S
O905 C890 1.202 . S
O906 U886 2.455 1_554 S
O906 C903 1.301 . S
O907 U886 2.449 1_554 S
O907 C903 1.282 . S
H908 C881 0.931 . S
H909 C883 0.929 . S
H910 C884 0.930 . S
H911 C885 0.931 . S
H912 C892 0.932 . S
H913 C893 0.930 . S
H914 C894 0.929 . S
H915 C896 0.930 . S
H916 C898 0.932 . S
H917 C899 0.929 . S
H918 C900 0.928 . S
H919 C902 0.932 . S
C920 C921 1.264 . S
C920 C925 1.479 . S
C920 C930 1.465 . S
C921 C920 1.264 . S
C921 C923 1.339 . S
C921 H948 0.931 . S
C922 C923 1.395 . S
C922 C924 1.320 . S
C923 C921 1.339 . S
C923 C922 1.395 . S
C923 H949 0.929 . S
C924 C922 1.320 . S
C924 C925 1.405 . S
C924 H950 0.930 . S
C925 C920 1.479 . S
C925 C924 1.405 . S
C925 H951 0.931 . S
U926 O927 2.454 . S
U926 O928 2.458 . S
U926 C929 2.984 . S
U926 C930 2.847 . S
U926 C943 2.882 . S
U926 O944 2.441 . S
U926 O945 2.420 . S
U926 O946 2.455 . S
U926 O947 2.449 . S
O927 U926 2.454 . S
O927 C929 1.353 . S
O928 U926 2.458 . S
O928 C929 1.286 . S
C929 U926 2.984 . S
C929 O927 1.353 . S
C929 O928 1.286 . S
C929 C931 1.363 1_565 S
C930 C920 1.465 . S
C930 U926 2.847 . S
C930 O944 1.249 . S
C930 O945 1.202 . S
C931 C929 1.363 1_545 S
C931 C933 1.408 . S
C931 C936 1.342 . S
C932 C933 1.310 . S
C932 C935 1.461 . S
C932 H952 0.932 . S
C933 C931 1.408 . S
C933 C932 1.310 . S
C933 H953 0.930 . S
C934 C935 1.474 . S
C934 C936 1.285 . S
C934 H954 0.929 . S
C935 C932 1.461 . S
C935 C934 1.474 . S
C936 C931 1.342 . S
C936 C934 1.285 . S
C936 H955 0.900 1_545 S
C937 C940 1.424 . S
C937 C942 1.245 . S
C937 C943 1.428 . S
C938 C941 1.260 . S
C938 C942 1.477 . S
C938 H956 0.932 . S
C939 C940 1.384 . S
C939 C941 1.479 . S
C939 H957 0.929 . S
C940 C937 1.424 . S
C940 C939 1.384 . S
C940 H958 0.928 . S
C941 C938 1.260 . S
C941 C939 1.479 . S
C942 C937 1.245 . S
C942 C938 1.477 . S
C942 H959 0.932 . S
C943 U926 2.882 . S
C943 C937 1.428 . S
C943 O946 1.301 . S
C943 O947 1.282 . S
O944 U926 2.441 . S
O944 C930 1.249 . S
O945 U926 2.420 . S
O945 C930 1.202 . S
O946 U926 2.455 . S
O946 C943 1.301 . S
O947 U926 2.449 . S
O947 C943 1.282 . S
H948 C921 0.931 . S
H949 C923 0.929 . S
H950 C924 0.930 . S
H951 C925 0.931 . S
H952 C932 0.932 . S
H953 C933 0.930 . S
H954 C934 0.929 . S
H955 C936 0.900 1_565 S
H956 C938 0.932 . S
H957 C939 0.929 . S
H958 C940 0.928 . S
H959 C942 0.932 . S
C960 C961 1.264 . S
C960 C965 1.479 . S
C960 C970 1.465 . S
C961 C960 1.264 . S
C961 C963 1.339 . S
C961 H988 0.931 . S
C962 C963 1.395 . S
C962 C964 1.320 . S
C963 C961 1.339 . S
C963 C962 1.395 . S
C963 H989 0.929 . S
C964 C962 1.320 . S
C964 C965 1.405 . S
C964 H990 0.930 . S
C965 C960 1.479 . S
C965 C964 1.405 . S
C965 H991 0.931 . S
U966 O967 2.454 . S
U966 O968 2.458 . S
U966 C969 2.984 . S
U966 C970 2.847 . S
U966 C983 2.882 . S
U966 O984 2.441 . S
U966 O985 2.420 . S
U966 O986 2.455 . S
U966 O987 2.449 . S
O967 U966 2.454 . S
O967 C969 1.353 . S
O968 U966 2.458 . S
O968 C969 1.286 . S
C969 U966 2.984 . S
C969 O967 1.353 . S
C969 O968 1.286 . S
C969 C971 1.363 . S
C970 C960 1.465 . S
C970 U966 2.847 . S
C970 O984 1.249 . S
C970 O985 1.202 . S
C971 C969 1.363 . S
C971 C973 1.408 . S
C971 C976 1.342 . S
C972 C973 1.310 . S
C972 C975 1.461 . S
C972 H992 0.932 . S
C973 C971 1.408 . S
C973 C972 1.310 . S
C973 H993 0.930 . S
C974 C975 1.474 . S
C974 C976 1.285 . S
C974 H994 0.929 . S
C975 C972 1.461 . S
C975 C974 1.474 . S
C976 C971 1.342 . S
C976 C974 1.285 . S
C976 H995 0.930 . S
C977 C980 1.424 . S
C977 C982 1.245 . S
C977 C983 1.428 . S
C978 C981 1.260 . S
C978 C982 1.477 . S
C978 H996 0.932 . S
C979 C980 1.384 . S
C979 C981 1.479 . S
C979 H997 0.929 . S
C980 C977 1.424 . S
C980 C979 1.384 . S
C980 H998 0.928 . S
C981 C978 1.260 . S
C981 C979 1.479 . S
C982 C977 1.245 . S
C982 C978 1.477 . S
C982 H999 0.932 . S
C983 U966 2.882 . S
C983 C977 1.428 . S
C983 O986 1.301 . S
C983 O987 1.282 . S
O984 U966 2.441 . S
O984 C970 1.249 . S
O985 U966 2.420 . S
O985 C970 1.202 . S
O986 U966 2.455 . S
O986 C983 1.301 . S
O987 U966 2.449 . S
O987 C983 1.282 . S
H988 C961 0.931 . S
H989 C963 0.929 . S
H990 C964 0.930 . S
H991 C965 0.931 . S
H992 C972 0.932 . S
H993 C973 0.930 . S
H994 C974 0.929 . S
H995 C976 0.930 . S
H996 C978 0.932 . S
H997 C979 0.929 . S
H998 C980 0.928 . S
H999 C982 0.932 . S
C1000 C1001 1.264 . S
C1000 C1005 1.479 . S
C1000 C1010 1.492 . S
C1001 C1000 1.264 . S
C1001 C1003 1.339 . S
C1001 H1028 0.931 . S
C1002 C1003 1.395 . S
C1002 C1004 1.320 . S
C1003 C1001 1.339 . S
C1003 C1002 1.395 . S
C1003 H1029 0.929 . S
C1004 C1002 1.320 . S
C1004 C1005 1.405 . S
C1004 H1030 0.930 . S
C1005 C1000 1.479 . S
C1005 C1004 1.405 . S
C1005 H1031 0.931 . S
U1006 O1007 2.454 . S
U1006 O1008 2.458 . S
U1006 C1009 2.984 . S
U1006 C1010 2.820 1_545 S
U1006 C1023 2.882 . S
U1006 O1024 2.441 . S
U1006 O1025 2.420 . S
U1006 O1026 2.455 . S
U1006 O1027 2.449 . S
O1007 U1006 2.454 . S
O1007 C1009 1.353 . S
O1008 U1006 2.458 . S
O1008 C1009 1.286 . S
C1009 U1006 2.984 . S
C1009 O1007 1.353 . S
C1009 O1008 1.286 . S
C1009 C1011 1.363 . S
C1010 C1000 1.492 . S
C1010 U1006 2.820 1_565 S
C1010 O1024 1.234 1_565 S
C1010 O1025 1.189 1_565 S
C1011 C1009 1.363 . S
C1011 C1013 1.408 . S
C1011 C1016 1.342 . S
C1012 C1013 1.310 . S
C1012 C1015 1.461 . S
C1012 H1032 0.932 . S
C1013 C1011 1.408 . S
C1013 C1012 1.310 . S
C1013 H1033 0.930 . S
C1014 C1015 1.474 . S
C1014 C1016 1.285 . S
C1014 H1034 0.929 . S
C1015 C1012 1.461 . S
C1015 C1014 1.474 . S
C1016 C1011 1.342 . S
C1016 C1014 1.285 . S
C1016 H1035 0.930 . S
C1017 C1020 1.424 . S
C1017 C1022 1.245 . S
C1017 C1023 1.428 . S
C1018 C1021 1.260 . S
C1018 C1022 1.477 . S
C1018 H1036 0.932 . S
C1019 C1020 1.384 . S
C1019 C1021 1.479 . S
C1019 H1037 0.929 . S
C1020 C1017 1.424 . S
C1020 C1019 1.384 . S
C1020 H1038 0.928 . S
C1021 C1018 1.260 . S
C1021 C1019 1.479 . S
C1022 C1017 1.245 . S
C1022 C1018 1.477 . S
C1022 H1039 0.932 . S
C1023 U1006 2.882 . S
C1023 C1017 1.428 . S
C1023 O1026 1.301 . S
C1023 O1027 1.282 . S
O1024 U1006 2.441 . S
O1024 C1010 1.234 1_545 S
O1025 U1006 2.420 . S
O1025 C1010 1.189 1_545 S
O1026 U1006 2.455 . S
O1026 C1023 1.301 . S
O1027 U1006 2.449 . S
O1027 C1023 1.282 . S
H1028 C1001 0.931 . S
H1029 C1003 0.929 . S
H1030 C1004 0.930 . S
H1031 C1005 0.931 . S
H1032 C1012 0.932 . S
H1033 C1013 0.930 . S
H1034 C1014 0.929 . S
H1035 C1016 0.930 . S
H1036 C1018 0.932 . S
H1037 C1019 0.929 . S
H1038 C1020 0.928 . S
H1039 C1022 0.932 . S
C1040 C1041 1.264 . S
C1040 C1045 1.479 . S
C1040 C1050 1.465 . S
C1041 C1040 1.264 . S
C1041 C1043 1.339 . S
C1041 H1068 0.931 . S
C1042 C1043 1.395 . S
C1042 C1044 1.320 . S
C1043 C1041 1.339 . S
C1043 C1042 1.395 . S
C1043 H1069 0.929 . S
C1044 C1042 1.320 . S
C1044 C1045 1.405 . S
C1044 H1070 0.930 . S
C1045 C1040 1.479 . S
C1045 C1044 1.405 . S
C1045 H1071 0.931 . S
U1046 O1047 2.454 . S
U1046 O1048 2.458 . S
U1046 C1049 2.984 . S
U1046 C1050 2.847 . S
U1046 C1063 2.882 . S
U1046 O1064 2.441 . S
U1046 O1065 2.420 . S
U1046 O1066 2.455 . S
U1046 O1067 2.449 . S
O1047 U1046 2.454 . S
O1047 C1049 1.353 . S
O1048 U1046 2.458 . S
O1048 C1049 1.286 . S
C1049 U1046 2.984 . S
C1049 O1047 1.353 . S
C1049 O1048 1.286 . S
C1049 C1051 1.363 . S
C1050 C1040 1.465 . S
C1050 U1046 2.847 . S
C1050 O1064 1.249 . S
C1050 O1065 1.202 . S
C1051 C1049 1.363 . S
C1051 C1053 1.408 . S
C1051 C1056 1.342 . S
C1052 C1053 1.310 . S
C1052 C1055 1.461 . S
C1052 H1072 0.932 . S
C1053 C1051 1.408 . S
C1053 C1052 1.310 . S
C1053 H1073 0.930 . S
C1054 C1055 1.474 . S
C1054 C1056 1.285 . S
C1054 H1074 0.929 . S
C1055 C1052 1.461 . S
C1055 C1054 1.474 . S
C1056 C1051 1.342 . S
C1056 C1054 1.285 . S
C1056 H1075 0.930 . S
C1057 C1060 1.424 . S
C1057 C1062 1.245 . S
C1057 C1063 1.428 . S
C1058 C1061 1.260 . S
C1058 C1062 1.477 . S
C1058 H1076 0.932 . S
C1059 C1060 1.384 . S
C1059 C1061 1.479 . S
C1059 H1077 0.929 . S
C1060 C1057 1.424 . S
C1060 C1059 1.384 . S
C1060 H1078 0.928 . S
C1061 C1058 1.260 . S
C1061 C1059 1.479 . S
C1062 C1057 1.245 . S
C1062 C1058 1.477 . S
C1062 H1079 0.932 . S
C1063 U1046 2.882 . S
C1063 C1057 1.428 . S
C1063 O1066 1.301 . S
C1063 O1067 1.282 . S
O1064 U1046 2.441 . S
O1064 C1050 1.249 . S
O1065 U1046 2.420 . S
O1065 C1050 1.202 . S
O1066 U1046 2.455 . S
O1066 C1063 1.301 . S
O1067 U1046 2.449 . S
O1067 C1063 1.282 . S
H1068 C1041 0.931 . S
H1069 C1043 0.929 . S
H1070 C1044 0.930 . S
H1071 C1045 0.931 . S
H1072 C1052 0.932 . S
H1073 C1053 0.930 . S
H1074 C1054 0.929 . S
H1075 C1056 0.930 . S
H1076 C1058 0.932 . S
H1077 C1059 0.929 . S
H1078 C1060 0.928 . S
H1079 C1062 0.932 . S
C1080 C1081 1.264 . S
C1080 C1085 1.479 . S
C1080 C1090 1.465 . S
C1081 C1080 1.264 . S
C1081 C1083 1.339 . S
C1081 H1108 0.931 . S
C1082 C1083 1.395 . S
C1082 C1084 1.320 . S
C1083 C1081 1.339 . S
C1083 C1082 1.395 . S
C1083 H1109 0.929 . S
C1084 C1082 1.320 . S
C1084 C1085 1.405 . S
C1084 H1110 0.930 . S
C1085 C1080 1.479 . S
C1085 C1084 1.405 . S
C1085 H1111 0.931 . S
U1086 O1087 2.454 1_556 S
U1086 O1088 2.458 1_556 S
U1086 C1089 2.984 1_556 S
U1086 C1090 2.847 . S
U1086 C1103 2.882 . S
U1086 O1104 2.441 . S
U1086 O1105 2.420 . S
U1086 O1106 2.455 . S
U1086 O1107 2.449 . S
O1087 U1086 2.454 1_554 S
O1087 C1089 1.353 . S
O1088 U1086 2.458 1_554 S
O1088 C1089 1.286 . S
C1089 U1086 2.984 1_554 S
C1089 O1087 1.353 . S
C1089 O1088 1.286 . S
C1089 C1091 1.363 . S
C1090 C1080 1.465 . S
C1090 U1086 2.847 . S
C1090 O1104 1.249 . S
C1090 O1105 1.202 . S
C1091 C1089 1.363 . S
C1091 C1093 1.408 . S
C1091 C1096 1.342 . S
C1092 C1093 1.310 . S
C1092 C1095 1.461 . S
C1092 H1112 0.932 . S
C1093 C1091 1.408 . S
C1093 C1092 1.310 . S
C1093 H1113 0.930 . S
C1094 C1095 1.474 . S
C1094 C1096 1.285 . S
C1094 H1114 0.929 . S
C1095 C1092 1.461 . S
C1095 C1094 1.474 . S
C1096 C1091 1.342 . S
C1096 C1094 1.285 . S
C1096 H1115 0.930 . S
C1097 C1100 1.424 . S
C1097 C1102 1.245 . S
C1097 C1103 1.428 . S
C1098 C1101 1.260 . S
C1098 C1102 1.477 . S
C1098 H1116 0.932 . S
C1099 C1100 1.384 . S
C1099 C1101 1.479 . S
C1099 H1117 0.929 . S
C1100 C1097 1.424 . S
C1100 C1099 1.384 . S
C1100 H1118 0.928 . S
C1101 C1098 1.260 . S
C1101 C1099 1.479 . S
C1102 C1097 1.245 . S
C1102 C1098 1.477 . S
C1102 H1119 0.932 . S
C1103 U1086 2.882 . S
C1103 C1097 1.428 . S
C1103 O1106 1.301 . S
C1103 O1107 1.282 . S
O1104 U1086 2.441 . S
O1104 C1090 1.249 . S
O1105 U1086 2.420 . S
O1105 C1090 1.202 . S
O1106 U1086 2.455 . S
O1106 C1103 1.301 . S
O1107 U1086 2.449 . S
O1107 C1103 1.282 . S
H1108 C1081 0.931 . S
H1109 C1083 0.929 . S
H1110 C1084 0.930 . S
H1111 C1085 0.931 . S
H1112 C1092 0.932 . S
H1113 C1093 0.930 . S
H1114 C1094 0.929 . S
H1115 C1096 0.930 . S
H1116 C1098 0.932 . S
H1117 C1099 0.929 . S
H1118 C1100 0.928 . S
H1119 C1102 0.932 . S
C1120 C1121 1.264 . S
C1120 C1125 1.479 . S
C1120 C1130 1.465 . S
C1121 C1120 1.264 . S
C1121 C1123 1.339 . S
C1121 H1148 0.931 . S
C1122 C1123 1.395 . S
C1122 C1124 1.320 . S
C1123 C1121 1.339 . S
C1123 C1122 1.395 . S
C1123 H1149 0.929 . S
C1124 C1122 1.320 . S
C1124 C1125 1.405 . S
C1124 H1150 0.930 . S
C1125 C1120 1.479 . S
C1125 C1124 1.405 . S
C1125 H1151 0.931 . S
U1126 O1127 2.454 . S
U1126 O1128 2.458 . S
U1126 C1129 2.984 . S
U1126 C1130 2.847 . S
U1126 C1143 2.882 . S
U1126 O1144 2.441 . S
U1126 O1145 2.420 . S
U1126 O1146 2.455 . S
U1126 O1147 2.449 . S
O1127 U1126 2.454 . S
O1127 C1129 1.353 . S
O1128 U1126 2.458 . S
O1128 C1129 1.286 . S
C1129 U1126 2.984 . S
C1129 O1127 1.353 . S
C1129 O1128 1.286 . S
C1129 C1131 1.363 . S
C1130 C1120 1.465 . S
C1130 U1126 2.847 . S
C1130 O1144 1.249 . S
C1130 O1145 1.202 . S
C1131 C1129 1.363 . S
C1131 C1133 1.408 . S
C1131 C1136 1.342 . S
C1132 C1133 1.310 . S
C1132 C1135 1.461 . S
C1132 H1152 0.932 . S
C1133 C1131 1.408 . S
C1133 C1132 1.310 . S
C1133 H1153 0.930 . S
C1134 C1135 1.474 . S
C1134 C1136 1.285 . S
C1134 H1154 0.929 . S
C1135 C1132 1.461 . S
C1135 C1134 1.474 . S
C1136 C1131 1.342 . S
C1136 C1134 1.285 . S
C1136 H1155 0.930 . S
C1137 C1140 1.424 . S
C1137 C1142 1.245 . S
C1137 C1143 1.428 . S
C1138 C1141 1.260 . S
C1138 C1142 1.477 . S
C1138 H1156 0.932 . S
C1139 C1140 1.384 . S
C1139 C1141 1.479 . S
C1139 H1157 0.929 . S
C1140 C1137 1.424 . S
C1140 C1139 1.384 . S
C1140 H1158 0.928 . S
C1141 C1138 1.260 . S
C1141 C1139 1.479 . S
C1142 C1137 1.245 . S
C1142 C1138 1.477 . S
C1142 H1159 0.932 . S
C1143 U1126 2.882 . S
C1143 C1137 1.428 . S
C1143 O1146 1.301 . S
C1143 O1147 1.282 . S
O1144 U1126 2.441 . S
O1144 C1130 1.249 . S
O1145 U1126 2.420 . S
O1145 C1130 1.202 . S
O1146 U1126 2.455 . S
O1146 C1143 1.301 . S
O1147 U1126 2.449 . S
O1147 C1143 1.282 . S
H1148 C1121 0.931 . S
H1149 C1123 0.929 . S
H1150 C1124 0.930 . S
H1151 C1125 0.931 . S
H1152 C1132 0.932 . S
H1153 C1133 0.930 . S
H1154 C1134 0.929 . S
H1155 C1136 0.930 . S
H1156 C1138 0.932 . S
H1157 C1139 0.929 . S
H1158 C1140 0.928 . S
H1159 C1142 0.932 . S
C1160 C1161 1.264 . S
C1160 C1165 1.479 . S
C1160 C1170 1.465 . S
C1161 C1160 1.264 . S
C1161 C1163 1.339 . S
C1161 H1188 0.931 . S
C1162 C1163 1.395 . S
C1162 C1164 1.320 . S
C1163 C1161 1.339 . S
C1163 C1162 1.395 . S
C1163 H1189 0.929 . S
C1164 C1162 1.320 . S
C1164 C1165 1.405 . S
C1164 H1190 0.930 . S
C1165 C1160 1.479 . S
C1165 C1164 1.405 . S
C1165 H1191 0.931 . S
U1166 O1167 2.454 . S
U1166 O1168 2.458 . S
U1166 C1169 2.984 . S
U1166 C1170 2.847 . S
U1166 C1183 2.882 . S
U1166 O1184 2.441 . S
U1166 O1185 2.420 . S
U1166 O1186 2.455 . S
U1166 O1187 2.449 . S
O1167 U1166 2.454 . S
O1167 C1169 1.353 . S
O1168 U1166 2.458 . S
O1168 C1169 1.286 . S
C1169 U1166 2.984 . S
C1169 O1167 1.353 . S
C1169 O1168 1.286 . S
C1169 C1171 1.363 . S
C1170 C1160 1.465 . S
C1170 U1166 2.847 . S
C1170 O1184 1.249 . S
C1170 O1185 1.202 . S
C1171 C1169 1.363 . S
C1171 C1173 1.408 . S
C1171 C1176 1.342 . S
C1172 C1173 1.310 . S
C1172 C1175 1.461 . S
C1172 H1192 0.932 . S
C1173 C1171 1.408 . S
C1173 C1172 1.310 . S
C1173 H1193 0.930 . S
C1174 C1175 1.474 . S
C1174 C1176 1.285 . S
C1174 H1194 0.929 . S
C1175 C1172 1.461 . S
C1175 C1174 1.474 . S
C1176 C1171 1.342 . S
C1176 C1174 1.285 . S
C1176 H1195 0.930 . S
C1177 C1180 1.424 . S
C1177 C1182 1.245 . S
C1177 C1183 1.428 . S
C1178 C1181 1.260 . S
C1178 C1182 1.477 . S
C1178 H1196 0.932 . S
C1179 C1180 1.384 . S
C1179 C1181 1.479 . S
C1179 H1197 0.929 . S
C1180 C1177 1.424 . S
C1180 C1179 1.384 . S
C1180 H1198 0.928 . S
C1181 C1178 1.260 . S
C1181 C1179 1.479 . S
C1182 C1177 1.245 . S
C1182 C1178 1.477 . S
C1182 H1199 0.932 . S
C1183 U1166 2.882 . S
C1183 C1177 1.428 . S
C1183 O1186 1.301 . S
C1183 O1187 1.282 . S
O1184 U1166 2.441 . S
O1184 C1170 1.249 . S
O1185 U1166 2.420 . S
O1185 C1170 1.202 . S
O1186 U1166 2.455 . S
O1186 C1183 1.301 . S
O1187 U1166 2.449 . S
O1187 C1183 1.282 . S
H1188 C1161 0.931 . S
H1189 C1163 0.929 . S
H1190 C1164 0.930 . S
H1191 C1165 0.931 . S
H1192 C1172 0.932 . S
H1193 C1173 0.930 . S
H1194 C1174 0.929 . S
H1195 C1176 0.930 . S
H1196 C1178 0.932 . S
H1197 C1179 0.929 . S
H1198 C1180 0.928 . S
H1199 C1182 0.932 . S
C1200 C1201 1.264 . S
C1200 C1205 1.479 . S
C1200 C1210 1.465 . S
C1201 C1200 1.264 . S
C1201 C1203 1.339 . S
C1201 H1228 0.931 . S
C1202 C1203 1.395 . S
C1202 C1204 1.320 . S
C1203 C1201 1.339 . S
C1203 C1202 1.395 . S
C1203 H1229 0.929 . S
C1204 C1202 1.320 . S
C1204 C1205 1.405 . S
C1204 H1230 0.930 . S
C1205 C1200 1.479 . S
C1205 C1204 1.405 . S
C1205 H1231 0.931 . S
U1206 O1207 2.454 . S
U1206 O1208 2.458 . S
U1206 C1209 2.984 . S
U1206 C1210 2.847 . S
U1206 C1223 2.882 . S
U1206 O1224 2.441 . S
U1206 O1225 2.420 . S
U1206 O1226 2.455 . S
U1206 O1227 2.449 . S
O1207 U1206 2.454 . S
O1207 C1209 1.353 . S
O1208 U1206 2.458 . S
O1208 C1209 1.286 . S
C1209 U1206 2.984 . S
C1209 O1207 1.353 . S
C1209 O1208 1.286 . S
C1209 C1211 1.363 . S
C1210 C1200 1.465 . S
C1210 U1206 2.847 . S
C1210 O1224 1.249 . S
C1210 O1225 1.202 . S
C1211 C1209 1.363 . S
C1211 C1213 1.408 . S
C1211 C1216 1.342 . S
C1212 C1213 1.310 . S
C1212 C1215 1.461 . S
C1212 H1232 0.932 . S
C1213 C1211 1.408 . S
C1213 C1212 1.310 . S
C1213 H1233 0.930 . S
C1214 C1215 1.474 . S
C1214 C1216 1.285 . S
C1214 H1234 0.929 . S
C1215 C1212 1.461 . S
C1215 C1214 1.474 . S
C1216 C1211 1.342 . S
C1216 C1214 1.285 . S
C1216 H1235 0.930 . S
C1217 C1220 1.424 . S
C1217 C1222 1.245 . S
C1217 C1223 1.428 . S
C1218 C1221 1.260 . S
C1218 C1222 1.477 . S
C1218 H1236 0.932 . S
C1219 C1220 1.384 . S
C1219 C1221 1.479 . S
C1219 H1237 0.929 . S
C1220 C1217 1.424 . S
C1220 C1219 1.384 . S
C1220 H1238 0.928 . S
C1221 C1218 1.260 . S
C1221 C1219 1.479 . S
C1222 C1217 1.245 . S
C1222 C1218 1.477 . S
C1222 H1239 0.932 . S
C1223 U1206 2.882 . S
C1223 C1217 1.428 . S
C1223 O1226 1.301 . S
C1223 O1227 1.282 . S
O1224 U1206 2.441 . S
O1224 C1210 1.249 . S
O1225 U1206 2.420 . S
O1225 C1210 1.202 . S
O1226 U1206 2.455 . S
O1226 C1223 1.301 . S
O1227 U1206 2.449 . S
O1227 C1223 1.282 . S
H1228 C1201 0.931 . S
H1229 C1203 0.929 . S
H1230 C1204 0.930 . S
H1231 C1205 0.931 . S
H1232 C1212 0.932 . S
H1233 C1213 0.930 . S
H1234 C1214 0.929 . S
H1235 C1216 0.930 . S
H1236 C1218 0.932 . S
H1237 C1219 0.929 . S
H1238 C1220 0.928 . S
H1239 C1222 0.932 . S
C1240 C1241 1.264 . S
C1240 C1245 1.479 . S
C1240 C1250 1.465 . S
C1241 C1240 1.264 . S
C1241 C1243 1.339 . S
C1241 H1268 0.931 . S
C1242 C1243 1.395 . S
C1242 C1244 1.320 . S
C1243 C1241 1.339 . S
C1243 C1242 1.395 . S
C1243 H1269 0.929 . S
C1244 C1242 1.320 . S
C1244 C1245 1.405 . S
C1244 H1270 0.930 . S
C1245 C1240 1.479 . S
C1245 C1244 1.405 . S
C1245 H1271 0.931 . S
U1246 O1247 2.454 . S
U1246 O1248 2.458 . S
U1246 C1249 2.984 . S
U1246 C1250 2.847 . S
U1246 C1263 2.882 . S
U1246 O1264 2.441 . S
U1246 O1265 2.420 . S
U1246 O1266 2.455 . S
U1246 O1267 2.449 . S
O1247 U1246 2.454 . S
O1247 C1249 1.353 . S
O1248 U1246 2.458 . S
O1248 C1249 1.286 . S
C1249 U1246 2.984 . S
C1249 O1247 1.353 . S
C1249 O1248 1.286 . S
C1249 C1251 1.363 1_655 S
C1250 C1240 1.465 . S
C1250 U1246 2.847 . S
C1250 O1264 1.249 . S
C1250 O1265 1.202 . S
C1251 C1249 1.363 1_455 S
C1251 C1253 1.408 . S
C1251 C1256 1.342 . S
C1252 C1253 1.310 . S
C1252 C1255 1.461 . S
C1252 H1272 0.932 . S
C1253 C1251 1.408 . S
C1253 C1252 1.310 . S
C1253 H1273 0.930 . S
C1254 C1255 1.474 . S
C1254 C1256 1.285 . S
C1254 H1274 0.929 . S
C1255 C1252 1.461 . S
C1255 C1254 1.474 . S
C1256 C1251 1.342 . S
C1256 C1254 1.285 . S
C1256 H1275 0.930 . S
C1257 C1260 1.424 . S
C1257 C1262 1.245 . S
C1257 C1263 1.428 . S
C1258 C1261 1.260 . S
C1258 C1262 1.477 . S
C1258 H1276 0.932 . S
C1259 C1260 1.384 . S
C1259 C1261 1.479 . S
C1259 H1277 0.929 . S
C1260 C1257 1.424 . S
C1260 C1259 1.384 . S
C1260 H1278 0.928 . S
C1261 C1258 1.260 . S
C1261 C1259 1.479 . S
C1262 C1257 1.245 . S
C1262 C1258 1.477 . S
C1262 H1279 0.932 . S
C1263 U1246 2.882 . S
C1263 C1257 1.428 . S
C1263 O1266 1.301 . S
C1263 O1267 1.282 . S
O1264 U1246 2.441 . S
O1264 C1250 1.249 . S
O1265 U1246 2.420 . S
O1265 C1250 1.202 . S
O1266 U1246 2.455 . S
O1266 C1263 1.301 . S
O1267 U1246 2.449 . S
O1267 C1263 1.282 . S
H1268 C1241 0.931 . S
H1269 C1243 0.929 . S
H1270 C1244 0.930 . S
H1271 C1245 0.931 . S
H1272 C1252 0.932 . S
H1273 C1253 0.930 . S
H1274 C1254 0.929 . S
H1275 C1256 0.930 . S
H1276 C1258 0.932 . S
H1277 C1259 0.929 . S
H1278 C1260 0.928 . S
H1279 C1262 0.932 . S
C1280 C1281 1.264 . S
C1280 C1285 1.479 . S
C1280 C1290 1.465 . S
C1281 C1280 1.264 . S
C1281 C1283 1.339 . S
C1281 H1308 0.931 . S
C1282 C1283 1.395 . S
C1282 C1284 1.320 . S
C1283 C1281 1.339 . S
C1283 C1282 1.395 . S
C1283 H1309 0.929 . S
C1284 C1282 1.320 . S
C1284 C1285 1.405 . S
C1284 H1310 0.930 . S
C1285 C1280 1.479 . S
C1285 C1284 1.405 . S
C1285 H1311 0.931 . S
U1286 O1287 2.454 . S
U1286 O1288 2.458 . S
U1286 C1289 2.984 . S
U1286 C1290 2.847 . S
U1286 C1303 2.882 . S
U1286 O1304 2.441 . S
U1286 O1305 2.420 . S
U1286 O1306 2.455 . S
U1286 O1307 2.449 . S
O1287 U1286 2.454 . S
O1287 C1289 1.353 . S
O1288 U1286 2.458 . S
O1288 C1289 1.286 . S
C1289 U1286 2.984 . S
C1289 O1287 1.353 . S
C1289 O1288 1.286 . S
C1289 C1291 1.363 . S
C1290 C1280 1.465 . S
C1290 U1286 2.847 . S
C1290 O1304 1.249 . S
C1290 O1305 1.202 . S
C1291 C1289 1.363 . S
C1291 C1293 1.408 . S
C1291 C1296 1.342 . S
C1292 C1293 1.310 . S
C1292 C1295 1.461 . S
C1292 H1312 0.932 . S
C1293 C1291 1.408 . S
C1293 C1292 1.310 . S
C1293 H1313 0.930 . S
C1294 C1295 1.474 . S
C1294 C1296 1.285 . S
C1294 H1314 0.929 . S
C1295 C1292 1.461 . S
C1295 C1294 1.474 . S
C1296 C1291 1.342 . S
C1296 C1294 1.285 . S
C1296 H1315 0.930 . S
C1297 C1300 1.424 . S
C1297 C1302 1.245 . S
C1297 C1303 1.428 . S
C1298 C1301 1.260 . S
C1298 C1302 1.477 . S
C1298 H1316 0.932 . S
C1299 C1300 1.384 . S
C1299 C1301 1.479 . S
C1299 H1317 0.929 . S
C1300 C1297 1.424 . S
C1300 C1299 1.384 . S
C1300 H1318 0.928 . S
C1301 C1298 1.260 . S
C1301 C1299 1.479 . S
C1302 C1297 1.245 . S
C1302 C1298 1.477 . S
C1302 H1319 0.932 . S
C1303 U1286 2.882 . S
C1303 C1297 1.428 . S
C1303 O1306 1.301 . S
C1303 O1307 1.282 . S
O1304 U1286 2.441 . S
O1304 C1290 1.249 . S
O1305 U1286 2.420 . S
O1305 C1290 1.202 . S
O1306 U1286 2.455 . S
O1306 C1303 1.301 . S
O1307 U1286 2.449 . S
O1307 C1303 1.282 . S
H1308 C1281 0.931 . S
H1309 C1283 0.929 . S
H1310 C1284 0.930 . S
H1311 C1285 0.931 . S
H1312 C1292 0.932 . S
H1313 C1293 0.930 . S
H1314 C1294 0.929 . S
H1315 C1296 0.930 . S
H1316 C1298 0.932 . S
H1317 C1299 0.929 . S
H1318 C1300 0.928 . S
H1319 C1302 0.932 . S
C1320 C1321 1.264 . S
C1320 C1325 1.479 . S
C1320 C1330 1.465 . S
C1321 C1320 1.264 . S
C1321 C1323 1.339 . S
C1321 H1348 0.931 . S
C1322 C1323 1.395 . S
C1322 C1324 1.320 . S
C1323 C1321 1.339 . S
C1323 C1322 1.395 . S
C1323 H1349 0.929 . S
C1324 C1322 1.320 . S
C1324 C1325 1.405 . S
C1324 H1350 0.930 . S
C1325 C1320 1.479 . S
C1325 C1324 1.405 . S
C1325 H1351 0.931 1_556 S
U1326 O1327 2.454 . S
U1326 O1328 2.458 . S
U1326 C1329 2.984 . S
U1326 C1330 2.847 1_554 S
U1326 C1343 2.882 1_554 S
U1326 O1344 2.441 . S
U1326 O1345 2.420 1_554 S
U1326 O1346 2.455 1_554 S
U1326 O1347 2.449 1_554 S
O1327 U1326 2.454 . S
O1327 C1329 1.353 . S
O1328 U1326 2.458 . S
O1328 C1329 1.286 . S
C1329 U1326 2.984 . S
C1329 O1327 1.353 . S
C1329 O1328 1.286 . S
C1329 C1331 1.363 . S
C1330 C1320 1.465 . S
C1330 U1326 2.847 1_556 S
C1330 O1344 1.249 1_556 S
C1330 O1345 1.202 . S
C1331 C1329 1.363 . S
C1331 C1333 1.408 . S
C1331 C1336 1.342 . S
C1332 C1333 1.310 . S
C1332 C1335 1.461 . S
C1332 H1352 0.932 . S
C1333 C1331 1.408 . S
C1333 C1332 1.310 . S
C1333 H1353 0.930 . S
C1334 C1335 1.474 . S
C1334 C1336 1.285 . S
C1334 H1354 0.929 . S
C1335 C1332 1.461 . S
C1335 C1334 1.474 . S
C1336 C1331 1.342 . S
C1336 C1334 1.285 . S
C1336 H1355 0.930 . S
C1337 C1340 1.424 . S
C1337 C1342 1.245 1_455 S
C1337 C1343 1.428 . S
C1338 C1341 1.260 . S
C1338 C1342 1.477 . S
C1338 H1356 0.932 . S
C1339 C1340 1.384 . S
C1339 C1341 1.479 1_455 S
C1339 H1357 0.929 . S
C1340 C1337 1.424 . S
C1340 C1339 1.384 . S
C1340 H1358 0.928 . S
C1341 C1338 1.260 . S
C1341 C1339 1.479 1_655 S
C1342 C1337 1.245 1_655 S
C1342 C1338 1.477 . S
C1342 H1359 0.932 . S
C1343 U1326 2.882 1_556 S
C1343 C1337 1.428 . S
C1343 O1346 1.301 . S
C1343 O1347 1.282 . S
O1344 U1326 2.441 . S
O1344 C1330 1.249 1_554 S
O1345 U1326 2.420 1_556 S
O1345 C1330 1.202 . S
O1346 U1326 2.455 1_556 S
O1346 C1343 1.301 . S
O1347 U1326 2.449 1_556 S
O1347 C1343 1.282 . S
H1348 C1321 0.931 . S
H1349 C1323 0.929 . S
H1350 C1324 0.930 . S
H1351 C1325 0.931 1_554 S
H1352 C1332 0.932 . S
H1353 C1333 0.930 . S
H1354 C1334 0.929 . S
H1355 C1336 0.930 . S
H1356 C1338 0.932 . S
H1357 C1339 0.929 . S
H1358 C1340 0.928 . S
H1359 C1342 0.932 . S
C1360 C1361 1.264 . S
C1360 C1365 1.479 . S
C1360 C1370 1.465 . S
C1361 C1360 1.264 . S
C1361 C1363 1.339 . S
C1361 H1388 0.931 . S
C1362 C1363 1.395 . S
C1362 C1364 1.320 . S
C1363 C1361 1.339 . S
C1363 C1362 1.395 . S
C1363 H1389 0.929 . S
C1364 C1362 1.320 . S
C1364 C1365 1.405 . S
C1364 H1390 0.930 . S
C1365 C1360 1.479 . S
C1365 C1364 1.405 . S
C1365 H1391 0.931 . S
U1366 O1367 2.454 . S
U1366 O1368 2.458 . S
U1366 C1369 2.984 . S
U1366 C1370 2.847 . S
U1366 C1383 2.882 . S
U1366 O1384 2.441 . S
U1366 O1385 2.420 . S
U1366 O1386 2.455 . S
U1366 O1387 2.449 . S
O1367 U1366 2.454 . S
O1367 C1369 1.353 . S
O1368 U1366 2.458 . S
O1368 C1369 1.286 . S
C1369 U1366 2.984 . S
C1369 O1367 1.353 . S
C1369 O1368 1.286 . S
C1369 C1371 1.363 . S
C1370 C1360 1.465 . S
C1370 U1366 2.847 . S
C1370 O1384 1.249 . S
C1370 O1385 1.202 . S
C1371 C1369 1.363 . S
C1371 C1373 1.408 . S
C1371 C1376 1.342 . S
C1372 C1373 1.310 . S
C1372 C1375 1.461 . S
C1372 H1392 0.932 . S
C1373 C1371 1.408 . S
C1373 C1372 1.310 . S
C1373 H1393 0.930 . S
C1374 C1375 1.474 . S
C1374 C1376 1.285 . S
C1374 H1394 0.929 . S
C1375 C1372 1.461 . S
C1375 C1374 1.474 . S
C1376 C1371 1.342 . S
C1376 C1374 1.285 . S
C1376 H1395 0.930 . S
C1377 C1380 1.424 . S
C1377 C1382 1.245 . S
C1377 C1383 1.428 . S
C1378 C1381 1.260 . S
C1378 C1382 1.477 . S
C1378 H1396 0.932 . S
C1379 C1380 1.384 . S
C1379 C1381 1.479 . S
C1379 H1397 0.929 . S
C1380 C1377 1.424 . S
C1380 C1379 1.384 . S
C1380 H1398 0.928 . S
C1381 C1378 1.260 . S
C1381 C1379 1.479 . S
C1382 C1377 1.245 . S
C1382 C1378 1.477 . S
C1382 H1399 0.932 . S
C1383 U1366 2.882 . S
C1383 C1377 1.428 . S
C1383 O1386 1.301 . S
C1383 O1387 1.282 . S
O1384 U1366 2.441 . S
O1384 C1370 1.249 . S
O1385 U1366 2.420 . S
O1385 C1370 1.202 . S
O1386 U1366 2.455 . S
O1386 C1383 1.301 . S
O1387 U1366 2.449 . S
O1387 C1383 1.282 . S
H1388 C1361 0.931 . S
H1389 C1363 0.929 . S
H1390 C1364 0.930 . S
H1391 C1365 0.931 . S
H1392 C1372 0.932 . S
H1393 C1373 0.930 . S
H1394 C1374 0.929 . S
H1395 C1376 0.930 . S
H1396 C1378 0.932 . S
H1397 C1379 0.929 . S
H1398 C1380 0.928 . S
H1399 C1382 0.932 . S
C1400 C1401 1.264 . S
C1400 C1405 1.479 . S
C1400 C1410 1.465 . S
C1401 C1400 1.264 . S
C1401 C1403 1.339 . S
C1401 H1428 0.931 . S
C1402 C1403 1.395 . S
C1402 C1404 1.320 . S
C1403 C1401 1.339 . S
C1403 C1402 1.395 . S
C1403 H1429 0.929 . S
C1404 C1402 1.320 . S
C1404 C1405 1.405 . S
C1404 H1430 0.930 . S
C1405 C1400 1.479 . S
C1405 C1404 1.405 . S
C1405 H1431 0.931 . S
U1406 O1407 2.454 . S
U1406 O1408 2.458 . S
U1406 C1409 2.984 . S
U1406 C1410 2.847 . S
U1406 C1423 2.882 . S
U1406 O1424 2.441 . S
U1406 O1425 2.420 . S
U1406 O1426 2.455 . S
U1406 O1427 2.449 . S
O1407 U1406 2.454 . S
O1407 C1409 1.353 . S
O1408 U1406 2.458 . S
O1408 C1409 1.286 . S
C1409 U1406 2.984 . S
C1409 O1407 1.353 . S
C1409 O1408 1.286 . S
C1409 C1411 1.363 . S
C1410 C1400 1.465 . S
C1410 U1406 2.847 . S
C1410 O1424 1.249 . S
C1410 O1425 1.202 . S
C1411 C1409 1.363 . S
C1411 C1413 1.408 . S
C1411 C1416 1.342 . S
C1412 C1413 1.310 . S
C1412 C1415 1.461 . S
C1412 H1432 0.932 . S
C1413 C1411 1.408 . S
C1413 C1412 1.310 . S
C1413 H1433 0.930 . S
C1414 C1415 1.474 . S
C1414 C1416 1.285 . S
C1414 H1434 0.929 . S
C1415 C1412 1.461 . S
C1415 C1414 1.474 . S
C1416 C1411 1.342 . S
C1416 C1414 1.285 . S
C1416 H1435 0.930 . S
C1417 C1420 1.424 . S
C1417 C1422 1.245 . S
C1417 C1423 1.428 . S
C1418 C1421 1.260 . S
C1418 C1422 1.477 . S
C1418 H1436 0.932 . S
C1419 C1420 1.384 . S
C1419 C1421 1.479 . S
C1419 H1437 0.929 . S
C1420 C1417 1.424 . S
C1420 C1419 1.384 . S
C1420 H1438 0.928 . S
C1421 C1418 1.260 . S
C1421 C1419 1.479 . S
C1422 C1417 1.245 . S
C1422 C1418 1.477 . S
C1422 H1439 0.932 . S
C1423 U1406 2.882 . S
C1423 C1417 1.428 . S
C1423 O1426 1.301 . S
C1423 O1427 1.282 . S
O1424 U1406 2.441 . S
O1424 C1410 1.249 . S
O1425 U1406 2.420 . S
O1425 C1410 1.202 . S
O1426 U1406 2.455 . S
O1426 C1423 1.301 . S
O1427 U1406 2.449 . S
O1427 C1423 1.282 . S
H1428 C1401 0.931 . S
H1429 C1403 0.929 . S
H1430 C1404 0.930 . S
H1431 C1405 0.931 . S
H1432 C1412 0.932 . S
H1433 C1413 0.930 . S
H1434 C1414 0.929 . S
H1435 C1416 0.930 . S
H1436 C1418 0.932 . S
H1437 C1419 0.929 . S
H1438 C1420 0.928 . S
H1439 C1422 0.932 . S
C1440 C1441 1.264 . S
C1440 C1445 1.479 . S
C1440 C1450 1.465 . S
C1441 C1440 1.264 . S
C1441 C1443 1.339 . S
C1441 H1468 0.931 . S
C1442 C1443 1.395 . S
C1442 C1444 1.320 . S
C1443 C1441 1.339 . S
C1443 C1442 1.395 . S
C1443 H1469 0.929 . S
C1444 C1442 1.320 . S
C1444 C1445 1.405 . S
C1444 H1470 0.930 . S
C1445 C1440 1.479 . S
C1445 C1444 1.405 . S
C1445 H1471 0.931 . S
U1446 O1447 2.454 . S
U1446 O1448 2.458 . S
U1446 C1449 2.984 . S
U1446 C1450 2.847 . S
U1446 C1463 2.882 . S
U1446 O1464 2.441 . S
U1446 O1465 2.420 . S
U1446 O1466 2.455 . S
U1446 O1467 2.449 . S
O1447 U1446 2.454 . S
O1447 C1449 1.353 . S
O1448 U1446 2.458 . S
O1448 C1449 1.286 . S
C1449 U1446 2.984 . S
C1449 O1447 1.353 . S
C1449 O1448 1.286 . S
C1449 C1451 1.363 . S
C1450 C1440 1.465 . S
C1450 U1446 2.847 . S
C1450 O1464 1.249 . S
C1450 O1465 1.202 . S
C1451 C1449 1.363 . S
C1451 C1453 1.408 . S
C1451 C1456 1.342 . S
C1452 C1453 1.310 . S
C1452 C1455 1.461 . S
C1452 H1472 0.932 . S
C1453 C1451 1.408 . S
C1453 C1452 1.310 . S
C1453 H1473 0.930 . S
C1454 C1455 1.474 . S
C1454 C1456 1.285 . S
C1454 H1474 0.929 . S
C1455 C1452 1.461 . S
C1455 C1454 1.474 . S
C1456 C1451 1.342 . S
C1456 C1454 1.285 . S
C1456 H1475 0.930 . S
C1457 C1460 1.424 . S
C1457 C1462 1.245 . S
C1457 C1463 1.428 . S
C1458 C1461 1.260 . S
C1458 C1462 1.477 . S
C1458 H1476 0.932 . S
C1459 C1460 1.384 . S
C1459 C1461 1.479 . S
C1459 H1477 0.929 . S
C1460 C1457 1.424 . S
C1460 C1459 1.384 . S
C1460 H1478 0.928 . S
C1461 C1458 1.260 . S
C1461 C1459 1.479 . S
C1462 C1457 1.245 . S
C1462 C1458 1.477 . S
C1462 H1479 0.932 . S
C1463 U1446 2.882 . S
C1463 C1457 1.428 . S
C1463 O1466 1.301 . S
C1463 O1467 1.282 . S
O1464 U1446 2.441 . S
O1464 C1450 1.249 . S
O1465 U1446 2.420 . S
O1465 C1450 1.202 . S
O1466 U1446 2.455 . S
O1466 C1463 1.301 . S
O1467 U1446 2.449 . S
O1467 C1463 1.282 . S
H1468 C1441 0.931 . S
H1469 C1443 0.929 . S
H1470 C1444 0.930 . S
H1471 C1445 0.931 . S
H1472 C1452 0.932 . S
H1473 C1453 0.930 . S
H1474 C1454 0.929 . S
H1475 C1456 0.930 . S
H1476 C1458 0.932 . S
H1477 C1459 0.929 . S
H1478 C1460 0.928 . S
H1479 C1462 0.932 . S
C1480 C1481 1.264 . S
C1480 C1485 1.479 . S
C1480 C1490 1.465 . S
C1481 C1480 1.264 . S
C1481 C1483 1.339 . S
C1481 H1508 0.931 . S
C1482 C1483 1.395 . S
C1482 C1484 1.320 . S
C1483 C1481 1.339 . S
C1483 C1482 1.395 . S
C1483 H1509 0.929 . S
C1484 C1482 1.320 . S
C1484 C1485 1.405 . S
C1484 H1510 0.930 . S
C1485 C1480 1.479 . S
C1485 C1484 1.405 . S
C1485 H1511 0.931 . S
U1486 O1487 2.454 . S
U1486 O1488 2.458 . S
U1486 C1489 2.984 . S
U1486 C1490 2.847 . S
U1486 C1503 2.882 . S
U1486 O1504 2.441 . S
U1486 O1505 2.420 . S
U1486 O1506 2.455 . S
U1486 O1507 2.449 . S
O1487 U1486 2.454 . S
O1487 C1489 1.353 . S
O1488 U1486 2.458 . S
O1488 C1489 1.286 . S
C1489 U1486 2.984 . S
C1489 O1487 1.353 . S
C1489 O1488 1.286 . S
C1489 C1491 1.363 . S
C1490 C1480 1.465 . S
C1490 U1486 2.847 . S
C1490 O1504 1.249 . S
C1490 O1505 1.202 . S
C1491 C1489 1.363 . S
C1491 C1493 1.408 . S
C1491 C1496 1.342 . S
C1492 C1493 1.310 . S
C1492 C1495 1.461 . S
C1492 H1512 0.932 . S
C1493 C1491 1.408 . S
C1493 C1492 1.310 . S
C1493 H1513 0.930 . S
C1494 C1495 1.474 . S
C1494 C1496 1.285 . S
C1494 H1514 0.929 . S
C1495 C1492 1.461 . S
C1495 C1494 1.474 . S
C1496 C1491 1.342 . S
C1496 C1494 1.285 . S
C1496 H1515 0.930 . S
C1497 C1500 1.424 . S
C1497 C1502 1.245 . S
C1497 C1503 1.428 . S
C1498 C1501 1.260 . S
C1498 C1502 1.477 . S
C1498 H1516 0.932 . S
C1499 C1500 1.384 . S
C1499 C1501 1.479 . S
C1499 H1517 0.929 . S
C1500 C1497 1.424 . S
C1500 C1499 1.384 . S
C1500 H1518 0.928 . S
C1501 C1498 1.260 . S
C1501 C1499 1.479 . S
C1502 C1497 1.245 . S
C1502 C1498 1.477 . S
C1502 H1519 0.932 . S
C1503 U1486 2.882 . S
C1503 C1497 1.428 . S
C1503 O1506 1.301 . S
C1503 O1507 1.282 . S
O1504 U1486 2.441 . S
O1504 C1490 1.249 . S
O1505 U1486 2.420 . S
O1505 C1490 1.202 . S
O1506 U1486 2.455 . S
O1506 C1503 1.301 . S
O1507 U1486 2.449 . S
O1507 C1503 1.282 . S
H1508 C1481 0.931 . S
H1509 C1483 0.929 . S
H1510 C1484 0.930 . S
H1511 C1485 0.931 . S
H1512 C1492 0.932 . S
H1513 C1493 0.930 . S
H1514 C1494 0.929 . S
H1515 C1496 0.930 . S
H1516 C1498 0.932 . S
H1517 C1499 0.929 . S
H1518 C1500 0.928 . S
H1519 C1502 0.932 . S
C1520 C1521 1.264 . S
C1520 C1525 1.479 . S
C1520 C1530 1.465 . S
C1521 C1520 1.264 . S
C1521 C1523 1.339 . S
C1521 H1548 0.931 . S
C1522 C1523 1.395 . S
C1522 C1524 1.320 . S
C1523 C1521 1.339 . S
C1523 C1522 1.395 . S
C1523 H1549 0.929 . S
C1524 C1522 1.320 . S
C1524 C1525 1.405 . S
C1524 H1550 0.930 . S
C1525 C1520 1.479 . S
C1525 C1524 1.405 . S
C1525 H1551 0.931 . S
U1526 O1527 2.454 . S
U1526 O1528 2.458 . S
U1526 C1529 2.984 . S
U1526 C1530 2.847 . S
U1526 C1543 2.882 . S
U1526 O1544 2.441 . S
U1526 O1545 2.420 . S
U1526 O1546 2.455 . S
U1526 O1547 2.449 . S
O1527 U1526 2.454 . S
O1527 C1529 1.353 . S
O1528 U1526 2.458 . S
O1528 C1529 1.286 . S
C1529 U1526 2.984 . S
C1529 O1527 1.353 . S
C1529 O1528 1.286 . S
C1529 C1531 1.363 . S
C1530 C1520 1.465 . S
C1530 U1526 2.847 . S
C1530 O1544 1.249 . S
C1530 O1545 1.202 . S
C1531 C1529 1.363 . S
C1531 C1533 1.408 . S
C1531 C1536 1.342 . S
C1532 C1533 1.310 . S
C1532 C1535 1.461 . S
C1532 H1552 0.932 . S
C1533 C1531 1.408 . S
C1533 C1532 1.310 . S
C1533 H1553 0.930 . S
C1534 C1535 1.474 . S
C1534 C1536 1.285 . S
C1534 H1554 0.929 . S
C1535 C1532 1.461 . S
C1535 C1534 1.474 . S
C1536 C1531 1.342 . S
C1536 C1534 1.285 . S
C1536 H1555 0.930 . S
C1537 C1540 1.424 . S
C1537 C1542 1.245 . S
C1537 C1543 1.428 . S
C1538 C1541 1.260 . S
C1538 C1542 1.477 . S
C1538 H1556 0.932 . S
C1539 C1540 1.384 . S
C1539 C1541 1.479 . S
C1539 H1557 0.929 . S
C1540 C1537 1.424 . S
C1540 C1539 1.384 . S
C1540 H1558 0.928 . S
C1541 C1538 1.260 . S
C1541 C1539 1.479 . S
C1542 C1537 1.245 . S
C1542 C1538 1.477 . S
C1542 H1559 0.932 . S
C1543 U1526 2.882 . S
C1543 C1537 1.428 . S
C1543 O1546 1.301 . S
C1543 O1547 1.282 . S
O1544 U1526 2.441 . S
O1544 C1530 1.249 . S
O1545 U1526 2.420 . S
O1545 C1530 1.202 . S
O1546 U1526 2.455 . S
O1546 C1543 1.301 . S
O1547 U1526 2.449 . S
O1547 C1543 1.282 . S
H1548 C1521 0.931 . S
H1549 C1523 0.929 . S
H1550 C1524 0.930 . S
H1551 C1525 0.931 . S
H1552 C1532 0.932 . S
H1553 C1533 0.930 . S
H1554 C1534 0.929 . S
H1555 C1536 0.930 . S
H1556 C1538 0.932 . S
H1557 C1539 0.929 . S
H1558 C1540 0.928 . S
H1559 C1542 0.932 . S
C1560 C1561 1.264 . S
C1560 C1565 1.479 . S
C1560 C1570 1.465 . S
C1561 C1560 1.264 . S
C1561 C1563 1.339 . S
C1561 H1588 0.931 . S
C1562 C1563 1.395 . S
C1562 C1564 1.320 . S
C1563 C1561 1.339 . S
C1563 C1562 1.395 . S
C1563 H1589 0.929 . S
C1564 C1562 1.320 . S
C1564 C1565 1.405 . S
C1564 H1590 0.930 . S
C1565 C1560 1.479 . S
C1565 C1564 1.405 . S
C1565 H1591 0.931 . S
U1566 O1567 2.454 . S
U1566 O1568 2.458 . S
U1566 C1569 2.984 . S
U1566 C1570 2.847 . S
U1566 C1583 2.882 . S
U1566 O1584 2.441 . S
U1566 O1585 2.420 . S
U1566 O1586 2.455 . S
U1566 O1587 2.449 . S
O1567 U1566 2.454 . S
O1567 C1569 1.353 . S
O1568 U1566 2.458 . S
O1568 C1569 1.286 . S
C1569 U1566 2.984 . S
C1569 O1567 1.353 . S
C1569 O1568 1.286 . S
C1569 C1571 1.363 . S
C1570 C1560 1.465 . S
C1570 U1566 2.847 . S
C1570 O1584 1.249 . S
C1570 O1585 1.202 . S
C1571 C1569 1.363 . S
C1571 C1573 1.408 . S
C1571 C1576 1.342 . S
C1572 C1573 1.310 . S
C1572 C1575 1.461 . S
C1572 H1592 0.932 . S
C1573 C1571 1.408 . S
C1573 C1572 1.310 . S
C1573 H1593 0.930 . S
C1574 C1575 1.474 . S
C1574 C1576 1.285 . S
C1574 H1594 0.929 . S
C1575 C1572 1.461 . S
C1575 C1574 1.474 . S
C1576 C1571 1.342 . S
C1576 C1574 1.285 . S
C1576 H1595 0.930 . S
C1577 C1580 1.424 . S
C1577 C1582 1.245 . S
C1577 C1583 1.428 . S
C1578 C1581 1.260 . S
C1578 C1582 1.477 . S
C1578 H1596 0.932 . S
C1579 C1580 1.384 . S
C1579 C1581 1.479 . S
C1579 H1597 0.929 . S
C1580 C1577 1.424 . S
C1580 C1579 1.384 . S
C1580 H1598 0.928 . S
C1581 C1578 1.260 . S
C1581 C1579 1.479 . S
C1582 C1577 1.245 . S
C1582 C1578 1.477 . S
C1582 H1599 0.932 . S
C1583 U1566 2.882 . S
C1583 C1577 1.428 . S
C1583 O1586 1.301 . S
C1583 O1587 1.282 . S
O1584 U1566 2.441 . S
O1584 C1570 1.249 . S
O1585 U1566 2.420 . S
O1585 C1570 1.202 . S
O1586 U1566 2.455 . S
O1586 C1583 1.301 . S
O1587 U1566 2.449 . S
O1587 C1583 1.282 . S
H1588 C1561 0.931 . S
H1589 C1563 0.929 . S
H1590 C1564 0.930 . S
H1591 C1565 0.931 . S
H1592 C1572 0.932 . S
H1593 C1573 0.930 . S
H1594 C1574 0.929 . S
H1595 C1576 0.930 . S
H1596 C1578 0.932 . S
H1597 C1579 0.929 . S
H1598 C1580 0.928 . S
H1599 C1582 0.932 . S
C1600 C1601 1.264 . S
C1600 C1605 1.479 1_455 S
C1600 C1610 1.465 . S
C1601 C1600 1.264 . S
C1601 C1603 1.339 1_455 S
C1601 H1628 0.931 . S
C1602 C1603 1.395 . S
C1602 C1604 1.320 . S
C1603 C1601 1.339 1_655 S
C1603 C1602 1.395 . S
C1603 H1629 0.929 . S
C1604 C1602 1.320 . S
C1604 C1605 1.405 . S
C1604 H1630 0.930 . S
C1605 C1600 1.479 1_655 S
C1605 C1604 1.405 . S
C1605 H1631 0.931 . S
U1606 O1607 2.454 . S
U1606 O1608 2.458 . S
U1606 C1609 2.984 . S
U1606 C1610 2.847 . S
U1606 C1623 2.882 . S
U1606 O1624 2.441 . S
U1606 O1625 2.420 . S
U1606 O1626 2.455 . S
U1606 O1627 2.449 . S
O1607 U1606 2.454 . S
O1607 C1609 1.353 . S
O1608 U1606 2.458 . S
O1608 C1609 1.286 . S
C1609 U1606 2.984 . S
C1609 O1607 1.353 . S
C1609 O1608 1.286 . S
C1609 C1611 1.363 . S
C1610 C1600 1.465 . S
C1610 U1606 2.847 . S
C1610 O1624 1.249 . S
C1610 O1625 1.202 . S
C1611 C1609 1.363 . S
C1611 C1613 1.408 . S
C1611 C1616 1.342 . S
C1612 C1613 1.310 . S
C1612 C1615 1.461 . S
C1612 H1632 0.932 . S
C1613 C1611 1.408 . S
C1613 C1612 1.310 . S
C1613 H1633 0.930 . S
C1614 C1615 1.474 . S
C1614 C1616 1.285 . S
C1614 H1634 0.929 . S
C1615 C1612 1.461 . S
C1615 C1614 1.474 . S
C1616 C1611 1.342 . S
C1616 C1614 1.285 . S
C1616 H1635 0.930 . S
C1617 C1620 1.424 . S
C1617 C1622 1.245 . S
C1617 C1623 1.428 . S
C1618 C1621 1.260 . S
C1618 C1622 1.477 . S
C1618 H1636 0.932 . S
C1619 C1620 1.384 . S
C1619 C1621 1.479 . S
C1619 H1637 0.929 . S
C1620 C1617 1.424 . S
C1620 C1619 1.384 . S
C1620 H1638 0.928 . S
C1621 C1618 1.260 . S
C1621 C1619 1.479 . S
C1622 C1617 1.245 . S
C1622 C1618 1.477 . S
C1622 H1639 0.932 . S
C1623 U1606 2.882 . S
C1623 C1617 1.428 . S
C1623 O1626 1.301 . S
C1623 O1627 1.282 . S
O1624 U1606 2.441 . S
O1624 C1610 1.249 . S
O1625 U1606 2.420 . S
O1625 C1610 1.202 . S
O1626 U1606 2.455 . S
O1626 C1623 1.301 . S
O1627 U1606 2.449 . S
O1627 C1623 1.282 . S
H1628 C1601 0.931 . S
H1629 C1603 0.929 . S
H1630 C1604 0.930 . S
H1631 C1605 0.931 . S
H1632 C1612 0.932 . S
H1633 C1613 0.930 . S
H1634 C1614 0.929 . S
H1635 C1616 0.930 . S
H1636 C1618 0.932 . S
H1637 C1619 0.929 . S
H1638 C1620 0.928 . S
H1639 C1622 0.932 . S
C1640 C1641 1.264 . S
C1640 C1645 1.479 . S
C1640 C1650 1.465 . S
C1641 C1640 1.264 . S
C1641 C1643 1.339 . S
C1641 H1668 0.931 . S
C1642 C1643 1.395 . S
C1642 C1644 1.320 . S
C1643 C1641 1.339 . S
C1643 C1642 1.395 . S
C1643 H1669 0.929 . S
C1644 C1642 1.320 . S
C1644 C1645 1.405 . S
C1644 H1670 0.930 . S
C1645 C1640 1.479 . S
C1645 C1644 1.405 . S
C1645 H1671 0.931 . S
U1646 O1647 2.454 . S
U1646 O1648 2.458 . S
U1646 C1649 2.984 . S
U1646 C1650 2.847 . S
U1646 C1663 2.882 . S
U1646 O1664 2.441 . S
U1646 O1665 2.420 . S
U1646 O1666 2.455 . S
U1646 O1667 2.449 . S
O1647 U1646 2.454 . S
O1647 C1649 1.353 . S
O1648 U1646 2.458 . S
O1648 C1649 1.286 . S
C1649 U1646 2.984 . S
C1649 O1647 1.353 . S
C1649 O1648 1.286 . S
C1649 C1651 1.363 . S
C1650 C1640 1.465 . S
C1650 U1646 2.847 . S
C1650 O1664 1.249 . S
C1650 O1665 1.202 . S
C1651 C1649 1.363 . S
C1651 C1653 1.408 . S
C1651 C1656 1.342 . S
C1652 C1653 1.310 . S
C1652 C1655 1.461 . S
C1652 H1672 0.932 . S
C1653 C1651 1.408 . S
C1653 C1652 1.310 . S
C1653 H1673 0.930 . S
C1654 C1655 1.474 . S
C1654 C1656 1.285 . S
C1654 H1674 0.929 . S
C1655 C1652 1.461 . S
C1655 C1654 1.474 . S
C1656 C1651 1.342 . S
C1656 C1654 1.285 . S
C1656 H1675 0.930 . S
C1657 C1660 1.424 . S
C1657 C1662 1.245 . S
C1657 C1663 1.428 . S
C1658 C1661 1.260 . S
C1658 C1662 1.477 . S
C1658 H1676 0.932 . S
C1659 C1660 1.384 . S
C1659 C1661 1.479 . S
C1659 H1677 0.929 . S
C1660 C1657 1.424 . S
C1660 C1659 1.384 . S
C1660 H1678 0.928 . S
C1661 C1658 1.260 . S
C1661 C1659 1.479 . S
C1662 C1657 1.245 . S
C1662 C1658 1.477 . S
C1662 H1679 0.932 . S
C1663 U1646 2.882 . S
C1663 C1657 1.428 . S
C1663 O1666 1.301 . S
C1663 O1667 1.282 . S
O1664 U1646 2.441 . S
O1664 C1650 1.249 . S
O1665 U1646 2.420 . S
O1665 C1650 1.202 . S
O1666 U1646 2.455 . S
O1666 C1663 1.301 . S
O1667 U1646 2.449 . S
O1667 C1663 1.282 . S
H1668 C1641 0.931 . S
H1669 C1643 0.929 . S
H1670 C1644 0.930 . S
H1671 C1645 0.931 . S
H1672 C1652 0.932 . S
H1673 C1653 0.930 . S
H1674 C1654 0.929 . S
H1675 C1656 0.930 . S
H1676 C1658 0.932 . S
H1677 C1659 0.929 . S
H1678 C1660 0.928 . S
H1679 C1662 0.932 . S
C1680 C1681 1.264 . S
C1680 C1685 1.479 1_554 S
C1680 C1690 1.465 . S
C1681 C1680 1.264 . S
C1681 C1683 1.339 . S
C1681 H1708 0.931 . S
C1682 C1683 1.395 . S
C1682 C1684 1.320 . S
C1683 C1681 1.339 . S
C1683 C1682 1.395 . S
C1683 H1709 0.929 . S
C1684 C1682 1.320 . S
C1684 C1685 1.405 1_554 S
C1684 H1710 0.930 1_554 S
C1685 C1680 1.479 1_556 S
C1685 C1684 1.405 1_556 S
C1685 H1711 0.931 . S
U1686 O1687 2.461 1_554 S
U1686 O1688 2.463 1_554 S
U1686 C1689 2.991 1_554 S
U1686 C1690 2.846 . S
U1686 C1703 2.877 . S
U1686 O1704 2.443 1_554 S
U1686 O1705 2.416 . S
U1686 O1706 2.452 . S
U1686 O1707 2.442 . S
O1687 U1686 2.461 1_556 S
O1687 C1689 1.353 . S
O1688 U1686 2.463 1_556 S
O1688 C1689 1.286 . S
C1689 U1686 2.991 1_556 S
C1689 O1687 1.353 . S
C1689 O1688 1.286 . S
C1689 C1691 1.363 . S
C1690 C1680 1.465 . S
C1690 U1686 2.846 . S
C1690 O1704 1.249 1_554 S
C1690 O1705 1.202 . S
C1691 C1689 1.363 . S
C1691 C1693 1.408 . S
C1691 C1696 1.342 . S
C1692 C1693 1.310 . S
C1692 C1695 1.461 . S
C1692 H1712 0.932 . S
C1693 C1691 1.408 . S
C1693 C1692 1.310 . S
C1693 H1713 0.930 . S
C1694 C1695 1.474 . S
C1694 C1696 1.285 . S
C1694 H1714 0.929 . S
C1695 C1692 1.461 . S
C1695 C1694 1.474 . S
C1696 C1691 1.342 . S
C1696 C1694 1.285 . S
C1696 H1715 0.930 . S
C1697 C1700 1.424 . S
C1697 C1702 1.245 . S
C1697 C1703 1.428 . S
C1698 C1701 1.260 . S
C1698 C1702 1.477 . S
C1698 H1716 0.932 . S
C1699 C1700 1.384 . S
C1699 C1701 1.479 . S
C1699 H1717 0.929 . S
C1700 C1697 1.424 . S
C1700 C1699 1.384 . S
C1700 H1718 0.928 . S
C1701 C1698 1.260 . S
C1701 C1699 1.479 . S
C1702 C1697 1.245 . S
C1702 C1698 1.477 . S
C1702 H1719 0.932 . S
C1703 U1686 2.877 . S
C1703 C1697 1.428 . S
C1703 O1706 1.301 . S
C1703 O1707 1.282 . S
O1704 U1686 2.443 1_556 S
O1704 C1690 1.249 1_556 S
O1705 U1686 2.416 . S
O1705 C1690 1.202 . S
O1706 U1686 2.452 . S
O1706 C1703 1.301 . S
O1707 U1686 2.442 . S
O1707 C1703 1.282 . S
H1708 C1681 0.931 . S
H1709 C1683 0.929 . S
H1710 C1684 0.930 1_556 S
H1711 C1685 0.931 . S
H1712 C1692 0.932 . S
H1713 C1693 0.930 . S
H1714 C1694 0.929 . S
H1715 C1696 0.930 . S
H1716 C1698 0.932 . S
H1717 C1699 0.929 . S
H1718 C1700 0.928 . S
H1719 C1702 0.932 . S
C1720 C1721 1.264 . S
C1720 C1725 1.479 . S
C1720 C1730 1.465 . S
C1721 C1720 1.264 . S
C1721 C1723 1.339 . S
C1721 H1748 0.931 . S
C1722 C1723 1.395 . S
C1722 C1724 1.320 . S
C1723 C1721 1.339 . S
C1723 C1722 1.395 . S
C1723 H1749 0.929 . S
C1724 C1722 1.320 . S
C1724 C1725 1.405 . S
C1724 H1750 0.930 . S
C1725 C1720 1.479 . S
C1725 C1724 1.405 . S
C1725 H1751 0.931 . S
U1726 O1727 2.454 . S
U1726 O1728 2.458 . S
U1726 C1729 2.984 . S
U1726 C1730 2.847 . S
U1726 C1743 2.882 . S
U1726 O1744 2.441 . S
U1726 O1745 2.420 . S
U1726 O1746 2.455 . S
U1726 O1747 2.449 . S
O1727 U1726 2.454 . S
O1727 C1729 1.353 . S
O1728 U1726 2.458 . S
O1728 C1729 1.286 . S
C1729 U1726 2.984 . S
C1729 O1727 1.353 . S
C1729 O1728 1.286 . S
C1729 C1731 1.363 . S
C1730 C1720 1.465 . S
C1730 U1726 2.847 . S
C1730 O1744 1.249 . S
C1730 O1745 1.202 . S
C1731 C1729 1.363 . S
C1731 C1733 1.408 . S
C1731 C1736 1.342 . S
C1732 C1733 1.310 . S
C1732 C1735 1.461 . S
C1732 H1752 0.932 . S
C1733 C1731 1.408 . S
C1733 C1732 1.310 . S
C1733 H1753 0.930 . S
C1734 C1735 1.474 . S
C1734 C1736 1.285 . S
C1734 H1754 0.929 . S
C1735 C1732 1.461 . S
C1735 C1734 1.474 . S
C1736 C1731 1.342 . S
C1736 C1734 1.285 . S
C1736 H1755 0.930 . S
C1737 C1740 1.424 . S
C1737 C1742 1.245 . S
C1737 C1743 1.428 . S
C1738 C1741 1.260 . S
C1738 C1742 1.477 . S
C1738 H1756 0.932 . S
C1739 C1740 1.384 . S
C1739 C1741 1.479 . S
C1739 H1757 0.929 . S
C1740 C1737 1.424 . S
C1740 C1739 1.384 . S
C1740 H1758 0.928 . S
C1741 C1738 1.260 . S
C1741 C1739 1.479 . S
C1742 C1737 1.245 . S
C1742 C1738 1.477 . S
C1742 H1759 0.932 . S
C1743 U1726 2.882 . S
C1743 C1737 1.428 . S
C1743 O1746 1.301 . S
C1743 O1747 1.282 . S
O1744 U1726 2.441 . S
O1744 C1730 1.249 . S
O1745 U1726 2.420 . S
O1745 C1730 1.202 . S
O1746 U1726 2.455 . S
O1746 C1743 1.301 . S
O1747 U1726 2.449 . S
O1747 C1743 1.282 . S
H1748 C1721 0.931 . S
H1749 C1723 0.929 . S
H1750 C1724 0.930 . S
H1751 C1725 0.931 . S
H1752 C1732 0.932 . S
H1753 C1733 0.930 . S
H1754 C1734 0.929 . S
H1755 C1736 0.930 . S
H1756 C1738 0.932 . S
H1757 C1739 0.929 . S
H1758 C1740 0.928 . S
H1759 C1742 0.932 . S
C1760 C1761 1.264 . S
C1760 C1765 1.479 . S
C1760 C1770 1.465 . S
C1761 C1760 1.264 . S
C1761 C1763 1.339 . S
C1761 H1788 0.931 . S
C1762 C1763 1.395 . S
C1762 C1764 1.320 . S
C1763 C1761 1.339 . S
C1763 C1762 1.395 . S
C1763 H1789 0.929 . S
C1764 C1762 1.320 . S
C1764 C1765 1.405 . S
C1764 H1790 0.930 . S
C1765 C1760 1.479 . S
C1765 C1764 1.405 . S
C1765 H1791 0.931 . S
U1766 O1767 2.454 . S
U1766 O1768 2.458 . S
U1766 C1769 2.984 . S
U1766 C1770 2.847 . S
U1766 C1783 2.882 . S
U1766 O1784 2.441 . S
U1766 O1785 2.420 . S
U1766 O1786 2.455 . S
U1766 O1787 2.449 . S
O1767 U1766 2.454 . S
O1767 C1769 1.353 . S
O1768 U1766 2.458 . S
O1768 C1769 1.286 . S
C1769 U1766 2.984 . S
C1769 O1767 1.353 . S
C1769 O1768 1.286 . S
C1769 C1771 1.363 . S
C1770 C1760 1.465 . S
C1770 U1766 2.847 . S
C1770 O1784 1.249 . S
C1770 O1785 1.202 . S
C1771 C1769 1.363 . S
C1771 C1773 1.408 . S
C1771 C1776 1.342 . S
C1772 C1773 1.310 . S
C1772 C1775 1.461 . S
C1772 H1792 0.932 . S
C1773 C1771 1.408 . S
C1773 C1772 1.310 . S
C1773 H1793 0.930 . S
C1774 C1775 1.474 . S
C1774 C1776 1.285 . S
C1774 H1794 0.929 . S
C1775 C1772 1.461 . S
C1775 C1774 1.474 . S
C1776 C1771 1.342 . S
C1776 C1774 1.285 . S
C1776 H1795 0.930 . S
C1777 C1780 1.424 . S
C1777 C1782 1.245 . S
C1777 C1783 1.428 . S
C1778 C1781 1.260 . S
C1778 C1782 1.477 . S
C1778 H1796 0.932 . S
C1779 C1780 1.384 . S
C1779 C1781 1.479 . S
C1779 H1797 0.929 . S
C1780 C1777 1.424 . S
C1780 C1779 1.384 . S
C1780 H1798 0.928 . S
C1781 C1778 1.260 . S
C1781 C1779 1.479 . S
C1782 C1777 1.245 . S
C1782 C1778 1.477 . S
C1782 H1799 0.932 . S
C1783 U1766 2.882 . S
C1783 C1777 1.428 . S
C1783 O1786 1.301 . S
C1783 O1787 1.282 . S
O1784 U1766 2.441 . S
O1784 C1770 1.249 . S
O1785 U1766 2.420 . S
O1785 C1770 1.202 . S
O1786 U1766 2.455 . S
O1786 C1783 1.301 . S
O1787 U1766 2.449 . S
O1787 C1783 1.282 . S
H1788 C1761 0.931 . S
H1789 C1763 0.929 . S
H1790 C1764 0.930 . S
H1791 C1765 0.931 . S
H1792 C1772 0.932 . S
H1793 C1773 0.930 . S
H1794 C1774 0.929 . S
H1795 C1776 0.930 . S
H1796 C1778 0.932 . S
H1797 C1779 0.929 . S
H1798 C1780 0.928 . S
H1799 C1782 0.932 . S
C1800 C1801 1.264 . S
C1800 C1805 1.479 . S
C1800 C1810 1.465 . S
C1801 C1800 1.264 . S
C1801 C1803 1.339 . S
C1801 H1828 0.931 . S
C1802 C1803 1.395 . S
C1802 C1804 1.320 . S
C1803 C1801 1.339 . S
C1803 C1802 1.395 . S
C1803 H1829 0.929 . S
C1804 C1802 1.320 . S
C1804 C1805 1.405 . S
C1804 H1830 0.930 . S
C1805 C1800 1.479 . S
C1805 C1804 1.405 . S
C1805 H1831 0.931 . S
U1806 O1807 2.454 . S
U1806 O1808 2.458 . S
U1806 C1809 2.984 . S
U1806 C1810 2.847 . S
U1806 C1823 2.882 . S
U1806 O1824 2.441 . S
U1806 O1825 2.420 . S
U1806 O1826 2.455 . S
U1806 O1827 2.449 . S
O1807 U1806 2.454 . S
O1807 C1809 1.353 . S
O1808 U1806 2.458 . S
O1808 C1809 1.286 . S
C1809 U1806 2.984 . S
C1809 O1807 1.353 . S
C1809 O1808 1.286 . S
C1809 C1811 1.363 . S
C1810 C1800 1.465 . S
C1810 U1806 2.847 . S
C1810 O1824 1.249 . S
C1810 O1825 1.202 . S
C1811 C1809 1.363 . S
C1811 C1813 1.408 . S
C1811 C1816 1.342 . S
C1812 C1813 1.310 . S
C1812 C1815 1.461 . S
C1812 H1832 0.932 . S
C1813 C1811 1.408 . S
C1813 C1812 1.310 . S
C1813 H1833 0.930 . S
C1814 C1815 1.474 . S
C1814 C1816 1.285 . S
C1814 H1834 0.929 . S
C1815 C1812 1.461 . S
C1815 C1814 1.474 . S
C1816 C1811 1.342 . S
C1816 C1814 1.285 . S
C1816 H1835 0.930 . S
C1817 C1820 1.424 . S
C1817 C1822 1.245 . S
C1817 C1823 1.428 . S
C1818 C1821 1.260 . S
C1818 C1822 1.477 . S
C1818 H1836 0.932 . S
C1819 C1820 1.384 . S
C1819 C1821 1.479 . S
C1819 H1837 0.929 . S
C1820 C1817 1.424 . S
C1820 C1819 1.384 . S
C1820 H1838 0.928 . S
C1821 C1818 1.260 . S
C1821 C1819 1.479 . S
C1822 C1817 1.245 . S
C1822 C1818 1.477 . S
C1822 H1839 0.932 . S
C1823 U1806 2.882 . S
C1823 C1817 1.428 . S
C1823 O1826 1.301 . S
C1823 O1827 1.282 . S
O1824 U1806 2.441 . S
O1824 C1810 1.249 . S
O1825 U1806 2.420 . S
O1825 C1810 1.202 . S
O1826 U1806 2.455 . S
O1826 C1823 1.301 . S
O1827 U1806 2.449 . S
O1827 C1823 1.282 . S
H1828 C1801 0.931 . S
H1829 C1803 0.929 . S
H1830 C1804 0.930 . S
H1831 C1805 0.931 . S
H1832 C1812 0.932 . S
H1833 C1813 0.930 . S
H1834 C1814 0.929 . S
H1835 C1816 0.930 . S
H1836 C1818 0.932 . S
H1837 C1819 0.929 . S
H1838 C1820 0.928 . S
H1839 C1822 0.932 . S
C1840 C1841 1.264 . S
C1840 C1845 1.479 . S
C1840 C1850 1.465 . S
C1841 C1840 1.264 . S
C1841 C1843 1.339 . S
C1841 H1868 0.931 . S
C1842 C1843 1.395 . S
C1842 C1844 1.320 . S
C1843 C1841 1.339 . S
C1843 C1842 1.395 . S
C1843 H1869 0.929 . S
C1844 C1842 1.320 . S
C1844 C1845 1.405 . S
C1844 H1870 0.930 . S
C1845 C1840 1.479 . S
C1845 C1844 1.405 . S
C1845 H1871 0.931 . S
U1846 O1847 2.454 . S
U1846 O1848 2.458 . S
U1846 C1849 2.984 . S
U1846 C1850 2.847 . S
U1846 C1863 2.882 . S
U1846 O1864 2.441 . S
U1846 O1865 2.420 . S
U1846 O1866 2.455 . S
U1846 O1867 2.449 . S
O1847 U1846 2.454 . S
O1847 C1849 1.353 . S
O1848 U1846 2.458 . S
O1848 C1849 1.286 . S
C1849 U1846 2.984 . S
C1849 O1847 1.353 . S
C1849 O1848 1.286 . S
C1849 C1851 1.363 . S
C1850 C1840 1.465 . S
C1850 U1846 2.847 . S
C1850 O1864 1.249 . S
C1850 O1865 1.202 . S
C1851 C1849 1.363 . S
C1851 C1853 1.408 . S
C1851 C1856 1.342 . S
C1852 C1853 1.310 . S
C1852 C1855 1.461 . S
C1852 H1872 0.932 . S
C1853 C1851 1.408 . S
C1853 C1852 1.310 . S
C1853 H1873 0.930 . S
C1854 C1855 1.474 . S
C1854 C1856 1.285 . S
C1854 H1874 0.929 . S
C1855 C1852 1.461 . S
C1855 C1854 1.474 . S
C1856 C1851 1.342 . S
C1856 C1854 1.285 . S
C1856 H1875 0.930 . S
C1857 C1860 1.424 . S
C1857 C1862 1.245 . S
C1857 C1863 1.428 . S
C1858 C1861 1.260 . S
C1858 C1862 1.477 . S
C1858 H1876 0.932 . S
C1859 C1860 1.384 . S
C1859 C1861 1.479 . S
C1859 H1877 0.929 . S
C1860 C1857 1.424 . S
C1860 C1859 1.384 . S
C1860 H1878 0.928 . S
C1861 C1858 1.260 . S
C1861 C1859 1.479 . S
C1862 C1857 1.245 . S
C1862 C1858 1.477 . S
C1862 H1879 0.932 . S
C1863 U1846 2.882 . S
C1863 C1857 1.428 . S
C1863 O1866 1.301 . S
C1863 O1867 1.282 . S
O1864 U1846 2.441 . S
O1864 C1850 1.249 . S
O1865 U1846 2.420 . S
O1865 C1850 1.202 . S
O1866 U1846 2.455 . S
O1866 C1863 1.301 . S
O1867 U1846 2.449 . S
O1867 C1863 1.282 . S
H1868 C1841 0.931 . S
H1869 C1843 0.929 . S
H1870 C1844 0.930 . S
H1871 C1845 0.931 . S
H1872 C1852 0.932 . S
H1873 C1853 0.930 . S
H1874 C1854 0.929 . S
H1875 C1856 0.930 . S
H1876 C1858 0.932 . S
H1877 C1859 0.929 . S
H1878 C1860 0.928 . S
H1879 C1862 0.932 . S
C1880 C1881 1.264 . S
C1880 C1885 1.479 . S
C1880 C1890 1.465 . S
C1881 C1880 1.264 . S
C1881 C1883 1.339 . S
C1881 H1908 0.931 . S
C1882 C1883 1.395 . S
C1882 C1884 1.320 . S
C1883 C1881 1.339 . S
C1883 C1882 1.395 . S
C1883 H1909 0.929 . S
C1884 C1882 1.320 . S
C1884 C1885 1.405 . S
C1884 H1910 0.930 . S
C1885 C1880 1.479 . S
C1885 C1884 1.405 . S
C1885 H1911 0.931 . S
U1886 O1887 2.454 . S
U1886 O1888 2.458 . S
U1886 C1889 2.984 . S
U1886 C1890 2.847 . S
U1886 C1903 2.882 . S
U1886 O1904 2.441 . S
U1886 O1905 2.420 . S
U1886 O1906 2.455 . S
U1886 O1907 2.449 . S
O1887 U1886 2.454 . S
O1887 C1889 1.353 . S
O1888 U1886 2.458 . S
O1888 C1889 1.286 . S
C1889 U1886 2.984 . S
C1889 O1887 1.353 . S
C1889 O1888 1.286 . S
C1889 C1891 1.363 . S
C1890 C1880 1.465 . S
C1890 U1886 2.847 . S
C1890 O1904 1.249 . S
C1890 O1905 1.202 . S
C1891 C1889 1.363 . S
C1891 C1893 1.408 . S
C1891 C1896 1.342 . S
C1892 C1893 1.310 . S
C1892 C1895 1.461 . S
C1892 H1912 0.932 . S
C1893 C1891 1.408 . S
C1893 C1892 1.310 . S
C1893 H1913 0.930 . S
C1894 C1895 1.474 . S
C1894 C1896 1.285 . S
C1894 H1914 0.929 . S
C1895 C1892 1.461 . S
C1895 C1894 1.474 . S
C1896 C1891 1.342 . S
C1896 C1894 1.285 . S
C1896 H1915 0.930 . S
C1897 C1900 1.424 . S
C1897 C1902 1.245 . S
C1897 C1903 1.428 . S
C1898 C1901 1.260 . S
C1898 C1902 1.477 . S
C1898 H1916 0.932 . S
C1899 C1900 1.384 . S
C1899 C1901 1.479 . S
C1899 H1917 0.929 . S
C1900 C1897 1.424 . S
C1900 C1899 1.384 . S
C1900 H1918 0.928 . S
C1901 C1898 1.260 . S
C1901 C1899 1.479 . S
C1902 C1897 1.245 . S
C1902 C1898 1.477 . S
C1902 H1919 0.932 . S
C1903 U1886 2.882 . S
C1903 C1897 1.428 . S
C1903 O1906 1.301 . S
C1903 O1907 1.282 . S
O1904 U1886 2.441 . S
O1904 C1890 1.249 . S
O1905 U1886 2.420 . S
O1905 C1890 1.202 . S
O1906 U1886 2.455 . S
O1906 C1903 1.301 . S
O1907 U1886 2.449 . S
O1907 C1903 1.282 . S
H1908 C1881 0.931 . S
H1909 C1883 0.929 . S
H1910 C1884 0.930 . S
H1911 C1885 0.931 . S
H1912 C1892 0.932 . S
H1913 C1893 0.930 . S
H1914 C1894 0.929 . S
H1915 C1896 0.930 . S
H1916 C1898 0.932 . S
H1917 C1899 0.929 . S
H1918 C1900 0.928 . S
H1919 C1902 0.932 . S
H1920 C1923 0.929 . S
H1921 C1926 0.929 . S
H1922 C1928 0.930 . S
C1923 H1920 0.929 . S
C1923 C1924 1.398 . S
C1923 C1925 1.396 . S
C1924 C1923 1.398 . S
C1924 C1928 1.407 . S
C1925 C1923 1.396 . S
C1925 C1926 1.394 . S
C1926 H1921 0.929 . S
C1926 C1925 1.394 . S
C1926 C1927 1.382 . S
C1927 C1926 1.382 . S
C1927 C1928 1.392 . S
C1927 N1929 1.420 . S
C1928 H1922 0.930 . S
C1928 C1924 1.407 . S
C1928 C1927 1.392 . S
N1929 C1927 1.420 . S
N1929 C1930 1.244 . S
C1930 N1929 1.244 . S
H1931 C1934 0.929 . S
H1932 C1937 0.929 . S
H1933 C1939 0.930 . S
C1934 H1931 0.929 . S
C1934 C1935 1.398 . S
C1934 C1936 1.396 . S
C1935 C1934 1.398 . S
C1935 C1939 1.407 . S
C1936 C1934 1.396 . S
C1936 C1937 1.394 . S
C1937 H1932 0.929 . S
C1937 C1936 1.394 . S
C1937 C1938 1.382 . S
C1938 C1937 1.382 . S
C1938 C1939 1.392 . S
C1938 N1940 1.420 . S
C1939 H1933 0.930 . S
C1939 C1935 1.407 . S
C1939 C1938 1.392 . S
N1940 C1938 1.420 . S
N1940 C1941 1.244 . S
C1941 N1940 1.244 . S
H1942 C1945 0.929 . S
H1943 C1948 0.929 . S
H1944 C1950 0.930 . S
C1945 H1942 0.929 . S
C1945 C1946 1.398 . S
C1945 C1947 1.396 . S
C1946 C1945 1.398 . S
C1946 C1950 1.407 . S
C1947 C1945 1.396 . S
C1947 C1948 1.394 . S
C1948 H1943 0.929 . S
C1948 C1947 1.394 . S
C1948 C1949 1.382 . S
C1949 C1948 1.382 . S
C1949 C1950 1.392 . S
C1949 N1951 1.420 . S
C1950 H1944 0.930 . S
C1950 C1946 1.407 . S
C1950 C1949 1.392 . S
N1951 C1949 1.420 . S
N1951 C1952 1.244 . S
C1952 N1951 1.244 . S
H1953 C1956 0.929 . S
H1954 C1959 0.929 . S
H1955 C1961 0.930 . S
C1956 H1953 0.929 . S
C1956 C1957 1.398 . S
C1956 C1958 1.396 . S
C1957 C1956 1.398 . S
C1957 C1961 1.407 . S
C1958 C1956 1.396 . S
C1958 C1959 1.394 . S
C1959 H1954 0.929 . S
C1959 C1958 1.394 . S
C1959 C1960 1.382 . S
C1960 C1959 1.382 . S
C1960 C1961 1.392 . S
C1960 N1962 1.420 . S
C1961 H1955 0.930 . S
C1961 C1957 1.407 . S
C1961 C1960 1.392 . S
N1962 C1960 1.420 . S
N1962 C1963 1.244 . S
C1963 N1962 1.244 . S
H1964 C1967 0.929 . S
H1965 C1970 0.929 . S
H1966 C1972 0.930 . S
C1967 H1964 0.929 . S
C1967 C1968 1.398 . S
C1967 C1969 1.396 . S
C1968 C1967 1.398 . S
C1968 C1972 1.407 . S
C1969 C1967 1.396 . S
C1969 C1970 1.394 . S
C1970 H1965 0.929 . S
C1970 C1969 1.394 . S
C1970 C1971 1.382 . S
C1971 C1970 1.382 . S
C1971 C1972 1.392 . S
C1971 N1973 1.420 . S
C1972 H1966 0.930 . S
C1972 C1968 1.407 . S
C1972 C1971 1.392 . S
N1973 C1971 1.420 . S
N1973 C1974 1.244 . S
C1974 N1973 1.244 . S
H1975 C1978 0.929 . S
H1976 C1981 0.929 . S
H1977 C1983 0.930 . S
C1978 H1975 0.929 . S
C1978 C1979 1.398 . S
C1978 C1980 1.396 . S
C1979 C1978 1.398 . S
C1979 C1983 1.407 . S
C1980 C1978 1.396 . S
C1980 C1981 1.394 . S
C1981 H1976 0.929 . S
C1981 C1980 1.394 . S
C1981 C1982 1.382 . S
C1982 C1981 1.382 . S
C1982 C1983 1.392 . S
C1982 N1984 1.420 . S
C1983 H1977 0.930 . S
C1983 C1979 1.407 . S
C1983 C1982 1.392 . S
N1984 C1982 1.420 . S
N1984 C1985 1.244 . S
C1985 N1984 1.244 . S
H1986 C1989 0.929 . S
H1987 C1992 0.929 . S
H1988 C1994 0.930 . S
C1989 H1986 0.929 . S
C1989 C1990 1.398 . S
C1989 C1991 1.396 . S
C1990 C1989 1.398 . S
C1990 C1994 1.407 . S
C1991 C1989 1.396 . S
C1991 C1992 1.394 . S
C1992 H1987 0.929 . S
C1992 C1991 1.394 . S
C1992 C1993 1.382 . S
C1993 C1992 1.382 . S
C1993 C1994 1.392 . S
C1993 N1995 1.420 . S
C1994 H1988 0.930 . S
C1994 C1990 1.407 . S
C1994 C1993 1.392 . S
N1995 C1993 1.420 . S
N1995 C1996 1.244 . S
C1996 N1995 1.244 . S
H1997 C2000 0.929 . S
H1998 C2003 0.929 . S
H1999 C2005 0.930 . S
C2000 H1997 0.929 . S
C2000 C2001 1.398 . S
C2000 C2002 1.396 . S
C2001 C2000 1.398 . S
C2001 C2005 1.407 . S
C2002 C2000 1.396 . S
C2002 C2003 1.394 . S
C2003 H1998 0.929 . S
C2003 C2002 1.394 . S
C2003 C2004 1.382 . S
C2004 C2003 1.382 . S
C2004 C2005 1.392 . S
C2004 N2006 1.420 . S
C2005 H1999 0.930 . S
C2005 C2001 1.407 . S
C2005 C2004 1.392 . S
N2006 C2004 1.420 . S
N2006 C2007 1.244 . S
C2007 N2006 1.244 . S
H2008 C2011 0.929 . S
H2009 C2014 0.929 . S
H2010 C2016 0.930 . S
C2011 H2008 0.929 . S
C2011 C2012 1.398 . S
C2011 C2013 1.396 . S
C2012 C2011 1.398 . S
C2012 C2016 1.407 . S
C2013 C2011 1.396 . S
C2013 C2014 1.394 . S
C2014 H2009 0.929 . S
C2014 C2013 1.394 . S
C2014 C2015 1.382 . S
C2015 C2014 1.382 . S
C2015 C2016 1.392 . S
C2015 N2017 1.420 . S
C2016 H2010 0.930 . S
C2016 C2012 1.407 . S
C2016 C2015 1.392 . S
N2017 C2015 1.420 . S
N2017 C2018 1.244 . S
C2018 N2017 1.244 . S
H2019 C2022 0.929 . S
H2020 C2025 0.929 . S
H2021 C2027 0.930 . S
C2022 H2019 0.929 . S
C2022 C2023 1.398 . S
C2022 C2024 1.396 . S
C2023 C2022 1.398 . S
C2023 C2027 1.407 . S
C2024 C2022 1.396 . S
C2024 C2025 1.394 . S
C2025 H2020 0.929 . S
C2025 C2024 1.394 . S
C2025 C2026 1.382 . S
C2026 C2025 1.382 . S
C2026 C2027 1.392 . S
C2026 N2028 1.420 . S
C2027 H2021 0.930 . S
C2027 C2023 1.407 . S
C2027 C2026 1.392 . S
N2028 C2026 1.420 . S
N2028 C2029 1.244 . S
C2029 N2028 1.244 . S
H2030 C2033 0.929 . S
H2031 C2036 0.929 . S
H2032 C2038 0.930 . S
C2033 H2030 0.929 . S
C2033 C2034 1.398 . S
C2033 C2035 1.396 . S
C2034 C2033 1.398 . S
C2034 C2038 1.407 . S
C2035 C2033 1.396 . S
C2035 C2036 1.394 . S
C2036 H2031 0.929 . S
C2036 C2035 1.394 . S
C2036 C2037 1.382 . S
C2037 C2036 1.382 . S
C2037 C2038 1.392 . S
C2037 N2039 1.420 . S
C2038 H2032 0.930 . S
C2038 C2034 1.407 . S
C2038 C2037 1.392 . S
N2039 C2037 1.420 . S
N2039 C2040 1.244 . S
C2040 N2039 1.244 . S
H2041 C2044 0.929 . S
H2042 C2047 0.929 . S
H2043 C2049 0.930 . S
C2044 H2041 0.929 . S
C2044 C2045 1.398 . S
C2044 C2046 1.396 . S
C2045 C2044 1.398 . S
C2045 C2049 1.407 . S
C2046 C2044 1.396 . S
C2046 C2047 1.394 . S
C2047 H2042 0.929 . S
C2047 C2046 1.394 . S
C2047 C2048 1.382 . S
C2048 C2047 1.382 . S
C2048 C2049 1.392 . S
C2048 N2050 1.420 . S
C2049 H2043 0.930 . S
C2049 C2045 1.407 . S
C2049 C2048 1.392 . S
N2050 C2048 1.420 . S
N2050 C2051 1.244 . S
C2051 N2050 1.244 . S
H2052 C2055 0.929 . S
H2053 C2058 0.929 . S
H2054 C2060 0.930 . S
C2055 H2052 0.929 . S
C2055 C2056 1.398 . S
C2055 C2057 1.396 . S
C2056 C2055 1.398 . S
C2056 C2060 1.407 . S
C2057 C2055 1.396 . S
C2057 C2058 1.394 . S
C2058 H2053 0.929 . S
C2058 C2057 1.394 . S
C2058 C2059 1.382 . S
C2059 C2058 1.382 . S
C2059 C2060 1.392 . S
C2059 N2061 1.455 . S
C2060 H2054 0.930 . S
C2060 C2056 1.407 . S
C2060 C2059 1.392 . S
N2061 C2059 1.455 . S
N2061 C2062 1.208 1_455 S
C2062 N2061 1.208 1_655 S
H2063 C2066 0.929 . S
H2064 C2069 0.929 . S
H2065 C2071 0.930 . S
C2066 H2063 0.929 . S
C2066 C2067 1.398 . S
C2066 C2068 1.396 . S
C2067 C2066 1.398 . S
C2067 C2071 1.407 . S
C2068 C2066 1.396 . S
C2068 C2069 1.394 . S
C2069 H2064 0.929 . S
C2069 C2068 1.394 . S
C2069 C2070 1.382 . S
C2070 C2069 1.382 . S
C2070 C2071 1.392 . S
C2070 N2072 1.420 . S
C2071 H2065 0.930 . S
C2071 C2067 1.407 . S
C2071 C2070 1.392 . S
N2072 C2070 1.420 . S
N2072 C2073 1.244 . S
C2073 N2072 1.244 . S
H2074 C2077 0.929 . S
H2075 C2080 0.929 . S
H2076 C2082 0.930 . S
C2077 H2074 0.929 . S
C2077 C2078 1.398 . S
C2077 C2079 1.396 . S
C2078 C2077 1.398 . S
C2078 C2082 1.407 . S
C2079 C2077 1.396 . S
C2079 C2080 1.394 . S
C2080 H2075 0.929 . S
C2080 C2079 1.394 . S
C2080 C2081 1.382 . S
C2081 C2080 1.382 . S
C2081 C2082 1.392 . S
C2081 N2083 1.420 . S
C2082 H2076 0.930 . S
C2082 C2078 1.407 . S
C2082 C2081 1.392 . S
N2083 C2081 1.420 . S
N2083 C2084 1.244 . S
C2084 N2083 1.244 . S
H2085 C2088 0.929 . S
H2086 C2091 0.929 . S
H2087 C2093 0.930 . S
C2088 H2085 0.929 . S
C2088 C2089 1.398 . S
C2088 C2090 1.396 . S
C2089 C2088 1.398 . S
C2089 C2093 1.407 . S
C2090 C2088 1.396 . S
C2090 C2091 1.394 . S
C2091 H2086 0.929 . S
C2091 C2090 1.394 . S
C2091 C2092 1.382 . S
C2092 C2091 1.382 . S
C2092 C2093 1.392 . S
C2092 N2094 1.420 . S
C2093 H2087 0.930 . S
C2093 C2089 1.407 . S
C2093 C2092 1.392 . S
N2094 C2092 1.420 . S
N2094 C2095 1.244 . S
C2095 N2094 1.244 . S
H2096 C2099 0.929 . S
H2097 C2102 0.929 . S
H2098 C2104 0.930 . S
C2099 H2096 0.929 . S
C2099 C2100 1.398 . S
C2099 C2101 1.396 . S
C2100 C2099 1.398 . S
C2100 C2104 1.407 . S
C2101 C2099 1.396 . S
C2101 C2102 1.394 . S
C2102 H2097 0.929 . S
C2102 C2101 1.394 . S
C2102 C2103 1.382 . S
C2103 C2102 1.382 . S
C2103 C2104 1.392 . S
C2103 N2105 1.420 . S
C2104 H2098 0.930 . S
C2104 C2100 1.407 . S
C2104 C2103 1.392 . S
N2105 C2103 1.420 . S
N2105 C2106 1.244 . S
C2106 N2105 1.244 . S
H2107 C2110 0.929 . S
H2108 C2113 0.929 . S
H2109 C2115 0.930 . S
C2110 H2107 0.929 . S
C2110 C2111 1.398 . S
C2110 C2112 1.396 . S
C2111 C2110 1.398 . S
C2111 C2115 1.407 . S
C2112 C2110 1.396 . S
C2112 C2113 1.394 1_655 S
C2113 H2108 0.929 . S
C2113 C2112 1.394 1_455 S
C2113 C2114 1.382 . S
C2114 C2113 1.382 . S
C2114 C2115 1.392 1_455 S
C2114 N2116 1.420 . S
C2115 H2109 0.930 . S
C2115 C2111 1.407 . S
C2115 C2114 1.392 1_655 S
N2116 C2114 1.420 . S
N2116 C2117 1.244 . S
C2117 N2116 1.244 . S
H2118 C2121 0.929 . S
H2119 C2124 0.929 . S
H2120 C2126 0.930 . S
C2121 H2118 0.929 . S
C2121 C2122 1.398 . S
C2121 C2123 1.396 . S
C2122 C2121 1.398 . S
C2122 C2126 1.407 . S
C2123 C2121 1.396 . S
C2123 C2124 1.394 . S
C2124 H2119 0.929 . S
C2124 C2123 1.394 . S
C2124 C2125 1.382 . S
C2125 C2124 1.382 . S
C2125 C2126 1.392 . S
C2125 N2127 1.420 . S
C2126 H2120 0.930 . S
C2126 C2122 1.407 . S
C2126 C2125 1.392 . S
N2127 C2125 1.420 . S
N2127 C2128 1.244 . S
C2128 N2127 1.244 . S
H2129 C2132 0.929 . S
H2130 C2135 0.929 . S
H2131 C2137 0.930 . S
C2132 H2129 0.929 . S
C2132 C2133 1.398 . S
C2132 C2134 1.396 . S
C2133 C2132 1.398 . S
C2133 C2137 1.407 . S
C2134 C2132 1.396 . S
C2134 C2135 1.394 . S
C2135 H2130 0.929 . S
C2135 C2134 1.394 . S
C2135 C2136 1.382 . S
C2136 C2135 1.382 . S
C2136 C2137 1.392 . S
C2136 N2138 1.420 . S
C2137 H2131 0.930 . S
C2137 C2133 1.407 . S
C2137 C2136 1.392 . S
N2138 C2136 1.420 . S
N2138 C2139 1.244 . S
C2139 N2138 1.244 . S
H2140 C2143 0.929 . S
H2141 C2146 0.929 . S
H2142 C2148 0.930 . S
C2143 H2140 0.929 . S
C2143 C2144 1.398 . S
C2143 C2145 1.396 . S
C2144 C2143 1.398 . S
C2144 C2148 1.407 . S
C2145 C2143 1.396 . S
C2145 C2146 1.394 . S
C2146 H2141 0.929 . S
C2146 C2145 1.394 . S
C2146 C2147 1.382 . S
C2147 C2146 1.382 . S
C2147 C2148 1.392 . S
C2147 N2149 1.420 . S
C2148 H2142 0.930 . S
C2148 C2144 1.407 . S
C2148 C2147 1.392 . S
N2149 C2147 1.420 . S
N2149 C2150 1.244 . S
C2150 N2149 1.244 . S
H2151 C2154 0.929 . S
H2152 C2157 0.929 . S
H2153 C2159 0.930 . S
C2154 H2151 0.929 . S
C2154 C2155 1.398 . S
C2154 C2156 1.396 . S
C2155 C2154 1.398 . S
C2155 C2159 1.407 . S
C2156 C2154 1.396 . S
C2156 C2157 1.394 . S
C2157 H2152 0.929 . S
C2157 C2156 1.394 . S
C2157 C2158 1.382 . S
C2158 C2157 1.382 . S
C2158 C2159 1.392 . S
C2158 N2160 1.420 . S
C2159 H2153 0.930 . S
C2159 C2155 1.407 . S
C2159 C2158 1.392 . S
N2160 C2158 1.420 . S
N2160 C2161 1.244 . S
C2161 N2160 1.244 . S
H2162 C2165 0.929 . S
H2163 C2168 0.929 . S
H2164 C2170 0.930 . S
C2165 H2162 0.929 . S
C2165 C2166 1.398 . S
C2165 C2167 1.396 . S
C2166 C2165 1.398 . S
C2166 C2170 1.407 . S
C2167 C2165 1.396 . S
C2167 C2168 1.394 . S
C2168 H2163 0.929 . S
C2168 C2167 1.394 . S
C2168 C2169 1.382 . S
C2169 C2168 1.382 . S
C2169 C2170 1.392 . S
C2169 N2171 1.420 . S
C2170 H2164 0.930 . S
C2170 C2166 1.407 . S
C2170 C2169 1.392 . S
N2171 C2169 1.420 . S
N2171 C2172 1.244 . S
C2172 N2171 1.244 . S
H2173 C2176 0.929 . S
H2174 C2179 0.929 . S
H2175 C2181 0.930 . S
C2176 H2173 0.929 . S
C2176 C2177 1.398 . S
C2176 C2178 1.396 . S
C2177 C2176 1.398 . S
C2177 C2181 1.407 . S
C2178 C2176 1.396 . S
C2178 C2179 1.394 . S
C2179 H2174 0.929 . S
C2179 C2178 1.394 . S
C2179 C2180 1.382 . S
C2180 C2179 1.382 . S
C2180 C2181 1.392 . S
C2180 N2182 1.420 . S
C2181 H2175 0.930 . S
C2181 C2177 1.407 . S
C2181 C2180 1.392 . S
N2182 C2180 1.420 . S
N2182 C2183 1.244 . S
C2183 N2182 1.244 . S
H2184 C2187 0.929 . S
H2185 C2190 0.929 . S
H2186 C2192 0.930 . S
C2187 H2184 0.929 . S
C2187 C2188 1.398 . S
C2187 C2189 1.396 . S
C2188 C2187 1.398 . S
C2188 C2192 1.407 . S
C2189 C2187 1.396 . S
C2189 C2190 1.394 . S
C2190 H2185 0.929 . S
C2190 C2189 1.394 . S
C2190 C2191 1.382 . S
C2191 C2190 1.382 . S
C2191 C2192 1.392 . S
C2191 N2193 1.420 . S
C2192 H2186 0.930 . S
C2192 C2188 1.407 . S
C2192 C2191 1.392 . S
N2193 C2191 1.420 . S
N2193 C2194 1.244 . S
C2194 N2193 1.244 . S
H2195 C2198 0.929 . S
H2196 C2201 0.929 . S
H2197 C2203 0.930 . S
C2198 H2195 0.929 . S
C2198 C2199 1.398 . S
C2198 C2200 1.396 . S
C2199 C2198 1.398 . S
C2199 C2203 1.407 . S
C2200 C2198 1.396 . S
C2200 C2201 1.394 . S
C2201 H2196 0.929 . S
C2201 C2200 1.394 . S
C2201 C2202 1.382 . S
C2202 C2201 1.382 . S
C2202 C2203 1.392 . S
C2202 N2204 1.420 . S
C2203 H2197 0.930 . S
C2203 C2199 1.407 . S
C2203 C2202 1.392 . S
N2204 C2202 1.420 . S
N2204 C2205 1.244 . S
C2205 N2204 1.244 . S
H2206 C2209 0.929 . S
H2207 C2212 0.929 . S
H2208 C2214 0.930 . S
C2209 H2206 0.929 . S
C2209 C2210 1.398 . S
C2209 C2211 1.396 . S
C2210 C2209 1.398 . S
C2210 C2214 1.407 . S
C2211 C2209 1.396 . S
C2211 C2212 1.394 . S
C2212 H2207 0.929 . S
C2212 C2211 1.394 . S
C2212 C2213 1.382 . S
C2213 C2212 1.382 . S
C2213 C2214 1.392 . S
C2213 N2215 1.420 . S
C2214 H2208 0.930 . S
C2214 C2210 1.407 . S
C2214 C2213 1.392 . S
N2215 C2213 1.420 . S
N2215 C2216 1.244 . S
C2216 N2215 1.244 . S
H2217 C2220 0.929 . S
H2218 C2223 0.929 . S
H2219 C2225 0.930 . S
C2220 H2217 0.929 . S
C2220 C2221 1.398 . S
C2220 C2222 1.396 . S
C2221 C2220 1.398 . S
C2221 C2225 1.407 . S
C2222 C2220 1.396 . S
C2222 C2223 1.394 . S
C2223 H2218 0.929 . S
C2223 C2222 1.394 . S
C2223 C2224 1.382 . S
C2224 C2223 1.382 . S
C2224 C2225 1.392 . S
C2224 N2226 1.420 . S
C2225 H2219 0.930 . S
C2225 C2221 1.407 . S
C2225 C2224 1.392 . S
N2226 C2224 1.420 . S
N2226 C2227 1.244 . S
C2227 N2226 1.244 . S
H2228 C2231 0.929 . S
H2229 C2234 0.929 . S
H2230 C2236 0.930 . S
C2231 H2228 0.929 . S
C2231 C2232 1.398 . S
C2231 C2233 1.396 . S
C2232 C2231 1.398 . S
C2232 C2236 1.407 . S
C2233 C2231 1.396 . S
C2233 C2234 1.394 . S
C2234 H2229 0.929 . S
C2234 C2233 1.394 . S
C2234 C2235 1.382 . S
C2235 C2234 1.382 . S
C2235 C2236 1.392 . S
C2235 N2237 1.420 . S
C2236 H2230 0.930 . S
C2236 C2232 1.407 . S
C2236 C2235 1.392 . S
N2237 C2235 1.420 . S
N2237 C2238 1.244 . S
C2238 N2237 1.244 . S
H2239 C2242 0.929 . S
H2240 C2245 0.929 . S
H2241 C2247 0.930 . S
C2242 H2239 0.929 . S
C2242 C2243 1.398 . S
C2242 C2244 1.396 . S
C2243 C2242 1.398 . S
C2243 C2247 1.407 . S
C2244 C2242 1.396 . S
C2244 C2245 1.394 . S
C2245 H2240 0.929 . S
C2245 C2244 1.394 . S
C2245 C2246 1.382 . S
C2246 C2245 1.382 . S
C2246 C2247 1.392 . S
C2246 N2248 1.420 . S
C2247 H2241 0.930 . S
C2247 C2243 1.407 . S
C2247 C2246 1.392 . S
N2248 C2246 1.420 . S
N2248 C2249 1.244 . S
C2249 N2248 1.244 . S
H2250 C2253 0.929 . S
H2251 C2256 0.929 . S
H2252 C2258 0.930 . S
C2253 H2250 0.929 . S
C2253 C2254 1.398 . S
C2253 C2255 1.396 . S
C2254 C2253 1.398 . S
C2254 C2258 1.407 . S
C2255 C2253 1.396 . S
C2255 C2256 1.394 . S
C2256 H2251 0.929 . S
C2256 C2255 1.394 . S
C2256 C2257 1.382 . S
C2257 C2256 1.382 . S
C2257 C2258 1.392 . S
C2257 N2259 1.420 . S
C2258 H2252 0.930 . S
C2258 C2254 1.407 . S
C2258 C2257 1.392 . S
N2259 C2257 1.420 . S
N2259 C2260 1.244 . S
C2260 N2259 1.244 . S
H2261 C2264 0.929 . S
H2262 C2267 0.929 . S
H2263 C2269 0.930 . S
C2264 H2261 0.929 . S
C2264 C2265 1.398 . S
C2264 C2266 1.396 . S
C2265 C2264 1.398 . S
C2265 C2269 1.407 . S
C2266 C2264 1.396 . S
C2266 C2267 1.394 . S
C2267 H2262 0.929 . S
C2267 C2266 1.394 . S
C2267 C2268 1.382 . S
C2268 C2267 1.382 . S
C2268 C2269 1.392 . S
C2268 N2270 1.420 . S
C2269 H2263 0.930 . S
C2269 C2265 1.407 . S
C2269 C2268 1.392 . S
N2270 C2268 1.420 . S
N2270 C2271 1.244 . S
C2271 N2270 1.244 . S
H2272 C2275 0.929 1_545 S
H2273 C2278 0.929 . S
H2274 C2280 0.930 . S
C2275 H2272 0.929 1_565 S
C2275 C2276 1.398 1_565 S
C2275 C2277 1.396 . S
C2276 C2275 1.398 1_545 S
C2276 C2280 1.407 1_545 S
C2277 C2275 1.396 . S
C2277 C2278 1.394 . S
C2278 H2273 0.929 . S
C2278 C2277 1.394 . S
C2278 C2279 1.382 . S
C2279 C2278 1.382 . S
C2279 C2280 1.392 . S
C2279 N2281 1.420 . S
C2280 H2274 0.930 . S
C2280 C2276 1.407 1_565 S
C2280 C2279 1.392 . S
N2281 C2279 1.420 . S
N2281 C2282 1.244 . S
C2282 N2281 1.244 . S
H2283 C2286 0.929 . S
H2284 C2289 0.929 . S
H2285 C2291 0.930 . S
C2286 H2283 0.929 . S
C2286 C2287 1.398 . S
C2286 C2288 1.396 . S
C2287 C2286 1.398 . S
C2287 C2291 1.407 . S
C2288 C2286 1.396 . S
C2288 C2289 1.394 1_655 S
C2289 H2284 0.929 . S
C2289 C2288 1.394 1_455 S
C2289 C2290 1.382 . S
C2290 C2289 1.382 . S
C2290 C2291 1.392 1_455 S
C2290 N2292 1.420 . S
C2291 H2285 0.930 . S
C2291 C2287 1.407 . S
C2291 C2290 1.392 1_655 S
N2292 C2290 1.420 . S
N2292 C2293 1.244 . S
C2293 N2292 1.244 . S
H2294 C2297 0.929 . S
H2295 C2300 0.929 . S
H2296 C2302 0.930 . S
C2297 H2294 0.929 . S
C2297 C2298 1.398 . S
C2297 C2299 1.396 . S
C2298 C2297 1.398 . S
C2298 C2302 1.407 . S
C2299 C2297 1.396 . S
C2299 C2300 1.394 . S
C2300 H2295 0.929 . S
C2300 C2299 1.394 . S
C2300 C2301 1.382 . S
C2301 C2300 1.382 . S
C2301 C2302 1.392 . S
C2301 N2303 1.420 . S
C2302 H2296 0.930 . S
C2302 C2298 1.407 . S
C2302 C2301 1.392 . S
N2303 C2301 1.420 . S
N2303 C2304 1.244 . S
C2304 N2303 1.244 . S
H2305 C2308 0.929 . S
H2306 C2311 0.929 . S
H2307 C2313 0.930 . S
C2308 H2305 0.929 . S
C2308 C2309 1.398 . S
C2308 C2310 1.396 . S
C2309 C2308 1.398 . S
C2309 C2313 1.407 . S
C2310 C2308 1.396 . S
C2310 C2311 1.394 . S
C2311 H2306 0.929 . S
C2311 C2310 1.394 . S
C2311 C2312 1.382 . S
C2312 C2311 1.382 . S
C2312 C2313 1.392 . S
C2312 N2314 1.420 . S
C2313 H2307 0.930 . S
C2313 C2309 1.407 . S
C2313 C2312 1.392 . S
N2314 C2312 1.420 . S
N2314 C2315 1.244 . S
C2315 N2314 1.244 . S
H2316 C2319 0.929 . S
H2317 C2322 0.929 . S
H2318 C2324 0.930 . S
C2319 H2316 0.929 . S
C2319 C2320 1.398 . S
C2319 C2321 1.396 . S
C2320 C2319 1.398 . S
C2320 C2324 1.407 . S
C2321 C2319 1.396 . S
C2321 C2322 1.394 . S
C2322 H2317 0.929 . S
C2322 C2321 1.394 . S
C2322 C2323 1.382 . S
C2323 C2322 1.382 . S
C2323 C2324 1.392 . S
C2323 N2325 1.420 . S
C2324 H2318 0.930 . S
C2324 C2320 1.407 . S
C2324 C2323 1.392 . S
N2325 C2323 1.420 . S
N2325 C2326 1.244 . S
C2326 N2325 1.244 . S
H2327 C2330 0.929 . S
H2328 C2333 0.929 . S
H2329 C2335 0.930 . S
C2330 H2327 0.929 . S
C2330 C2331 1.398 . S
C2330 C2332 1.396 . S
C2331 C2330 1.398 . S
C2331 C2335 1.407 . S
C2332 C2330 1.396 . S
C2332 C2333 1.394 . S
C2333 H2328 0.929 . S
C2333 C2332 1.394 . S
C2333 C2334 1.382 . S
C2334 C2333 1.382 . S
C2334 C2335 1.392 . S
C2334 N2336 1.420 . S
C2335 H2329 0.930 . S
C2335 C2331 1.407 . S
C2335 C2334 1.392 . S
N2336 C2334 1.420 . S
N2336 C2337 1.244 . S
C2337 N2336 1.244 . S
H2338 C2341 0.929 . S
H2339 C2344 0.929 . S
H2340 C2346 0.930 . S
C2341 H2338 0.929 . S
C2341 C2342 1.398 . S
C2341 C2343 1.396 . S
C2342 C2341 1.398 . S
C2342 C2346 1.407 . S
C2343 C2341 1.396 . S
C2343 C2344 1.394 1_455 S
C2344 H2339 0.929 . S
C2344 C2343 1.394 1_655 S
C2344 C2345 1.382 . S
C2345 C2344 1.382 . S
C2345 C2346 1.392 1_655 S
C2345 N2347 1.420 . S
C2346 H2340 0.930 . S
C2346 C2342 1.407 . S
C2346 C2345 1.392 1_455 S
N2347 C2345 1.420 . S
N2347 C2348 1.244 . S
C2348 N2347 1.244 . S
H2349 C2352 0.929 . S
H2350 C2355 0.929 . S
H2351 C2357 0.930 . S
C2352 H2349 0.929 . S
C2352 C2353 1.398 . S
C2352 C2354 1.396 . S
C2353 C2352 1.398 . S
C2353 C2357 1.407 . S
C2354 C2352 1.396 . S
C2354 C2355 1.394 . S
C2355 H2350 0.929 . S
C2355 C2354 1.394 . S
C2355 C2356 1.382 . S
C2356 C2355 1.382 . S
C2356 C2357 1.392 . S
C2356 N2358 1.420 . S
C2357 H2351 0.930 . S
C2357 C2353 1.407 . S
C2357 C2356 1.392 . S
N2358 C2356 1.420 . S
N2358 C2359 1.244 . S
C2359 N2358 1.244 . S
H2360 C2363 0.929 . S
H2361 C2366 0.929 . S
H2362 C2368 0.930 . S
C2363 H2360 0.929 . S
C2363 C2364 1.398 . S
C2363 C2365 1.396 . S
C2364 C2363 1.398 . S
C2364 C2368 1.407 . S
C2365 C2363 1.396 . S
C2365 C2366 1.394 . S
C2366 H2361 0.929 . S
C2366 C2365 1.394 . S
C2366 C2367 1.382 . S
C2367 C2366 1.382 . S
C2367 C2368 1.392 . S
C2367 N2369 1.420 . S
C2368 H2362 0.930 . S
C2368 C2364 1.407 . S
C2368 C2367 1.392 . S
N2369 C2367 1.420 . S
N2369 C2370 1.244 . S
C2370 N2369 1.244 . S
H2371 C2374 0.929 . S
H2372 C2377 0.929 . S
H2373 C2379 0.930 . S
C2374 H2371 0.929 . S
C2374 C2375 1.398 . S
C2374 C2376 1.396 . S
C2375 C2374 1.398 . S
C2375 C2379 1.407 . S
C2376 C2374 1.396 . S
C2376 C2377 1.394 . S
C2377 H2372 0.929 . S
C2377 C2376 1.394 . S
C2377 C2378 1.382 . S
C2378 C2377 1.382 . S
C2378 C2379 1.392 . S
C2378 N2380 1.420 . S
C2379 H2373 0.930 . S
C2379 C2375 1.407 . S
C2379 C2378 1.392 . S
N2380 C2378 1.420 . S
N2380 C2381 1.244 . S
C2381 N2380 1.244 . S
H2382 C2385 0.929 . S
H2383 C2388 0.929 . S
H2384 C2390 0.930 . S
C2385 H2382 0.929 . S
C2385 C2386 1.398 . S
C2385 C2387 1.396 . S
C2386 C2385 1.398 . S
C2386 C2390 1.407 . S
C2387 C2385 1.396 . S
C2387 C2388 1.394 . S
C2388 H2383 0.929 . S
C2388 C2387 1.394 . S
C2388 C2389 1.382 . S
C2389 C2388 1.382 . S
C2389 C2390 1.392 . S
C2389 N2391 1.420 . S
C2390 H2384 0.930 . S
C2390 C2386 1.407 . S
C2390 C2389 1.392 . S
N2391 C2389 1.420 . S
N2391 C2392 1.244 . S
C2392 N2391 1.244 . S
H2393 C2396 0.929 . S
H2394 C2399 0.929 . S
H2395 C2401 0.930 . S
C2396 H2393 0.929 . S
C2396 C2397 1.398 . S
C2396 C2398 1.396 . S
C2397 C2396 1.398 . S
C2397 C2401 1.407 . S
C2398 C2396 1.396 . S
C2398 C2399 1.394 . S
C2399 H2394 0.929 . S
C2399 C2398 1.394 . S
C2399 C2400 1.382 . S
C2400 C2399 1.382 . S
C2400 C2401 1.392 . S
C2400 N2402 1.420 . S
C2401 H2395 0.930 . S
C2401 C2397 1.407 . S
C2401 C2400 1.392 . S
N2402 C2400 1.420 . S
N2402 C2403 1.244 . S
C2403 N2402 1.244 . S
H2404 C2407 0.929 . S
H2405 C2410 0.929 . S
H2406 C2412 0.930 . S
C2407 H2404 0.929 . S
C2407 C2408 1.398 . S
C2407 C2409 1.396 . S
C2408 C2407 1.398 . S
C2408 C2412 1.407 . S
C2409 C2407 1.396 . S
C2409 C2410 1.394 . S
C2410 H2405 0.929 . S
C2410 C2409 1.394 . S
C2410 C2411 1.382 . S
C2411 C2410 1.382 . S
C2411 C2412 1.392 . S
C2411 N2413 1.420 . S
C2412 H2406 0.930 . S
C2412 C2408 1.407 . S
C2412 C2411 1.392 . S
N2413 C2411 1.420 . S
N2413 C2414 1.244 . S
C2414 N2413 1.244 . S
H2415 C2418 0.929 . S
H2416 C2421 0.929 . S
H2417 C2423 0.930 . S
C2418 H2415 0.929 . S
C2418 C2419 1.398 . S
C2418 C2420 1.396 . S
C2419 C2418 1.398 . S
C2419 C2423 1.407 . S
C2420 C2418 1.396 . S
C2420 C2421 1.394 . S
C2421 H2416 0.929 . S
C2421 C2420 1.394 . S
C2421 C2422 1.382 . S
C2422 C2421 1.382 . S
C2422 C2423 1.392 . S
C2422 N2424 1.420 . S
C2423 H2417 0.930 . S
C2423 C2419 1.407 . S
C2423 C2422 1.392 . S
N2424 C2422 1.420 . S
N2424 C2425 1.244 . S
C2425 N2424 1.244 . S
H2426 C2429 0.929 . S
H2427 C2432 0.929 . S
H2428 C2434 0.930 . S
C2429 H2426 0.929 . S
C2429 C2430 1.398 . S
C2429 C2431 1.396 . S
C2430 C2429 1.398 . S
C2430 C2434 1.407 . S
C2431 C2429 1.396 . S
C2431 C2432 1.394 . S
C2432 H2427 0.929 . S
C2432 C2431 1.394 . S
C2432 C2433 1.382 . S
C2433 C2432 1.382 . S
C2433 C2434 1.392 . S
C2433 N2435 1.420 . S
C2434 H2428 0.930 . S
C2434 C2430 1.407 . S
C2434 C2433 1.392 . S
N2435 C2433 1.420 . S
N2435 C2436 1.244 . S
C2436 N2435 1.244 . S
H2437 C2440 0.929 . S
H2438 C2443 0.929 . S
H2439 C2445 0.930 . S
C2440 H2437 0.929 . S
C2440 C2441 1.398 . S
C2440 C2442 1.396 . S
C2441 C2440 1.398 . S
C2441 C2445 1.407 . S
C2442 C2440 1.396 . S
C2442 C2443 1.394 . S
C2443 H2438 0.929 . S
C2443 C2442 1.394 . S
C2443 C2444 1.382 . S
C2444 C2443 1.382 . S
C2444 C2445 1.392 . S
C2444 N2446 1.420 . S
C2445 H2439 0.930 . S
C2445 C2441 1.407 . S
C2445 C2444 1.392 . S
N2446 C2444 1.420 . S
N2446 C2447 1.244 . S
C2447 N2446 1.244 . S
C2448 C2449 1.387 . S
C2448 H2452 0.950 . S
C2448 C2457 1.390 . S
C2449 C2448 1.387 . S
C2449 C2451 1.387 . S
H2450 C2457 0.950 . S
C2451 C2449 1.387 . S
C2451 C2453 1.390 . S
C2451 H2455 0.950 . S
H2452 C2448 0.950 . S
C2453 C2451 1.390 . S
C2453 C2454 1.387 . S
C2453 H2456 0.950 . S
C2454 C2453 1.387 . S
C2454 C2457 1.387 . S
H2455 C2451 0.950 . S
H2456 C2453 0.950 . S
C2457 C2448 1.390 . S
C2457 H2450 0.950 . S
C2457 C2454 1.387 . S
C2458 C2459 1.387 . S
C2458 H2462 0.950 . S
C2458 C2467 1.390 . S
C2459 C2458 1.387 . S
C2459 C2461 1.387 . S
H2460 C2467 0.950 . S
C2461 C2459 1.387 . S
C2461 C2463 1.390 . S
C2461 H2465 0.950 . S
H2462 C2458 0.950 . S
C2463 C2461 1.390 . S
C2463 C2464 1.387 . S
C2463 H2466 0.950 . S
C2464 C2463 1.387 . S
C2464 C2467 1.387 . S
H2465 C2461 0.950 . S
H2466 C2463 0.950 . S
C2467 C2458 1.390 . S
C2467 H2460 0.950 . S
C2467 C2464 1.387 . S
C2468 C2469 1.387 . S
C2468 H2472 0.950 . S
C2468 C2477 1.390 . S
C2469 C2468 1.387 . S
C2469 C2471 1.387 . S
H2470 C2477 0.950 . S
C2471 C2469 1.387 . S
C2471 C2473 1.390 . S
C2471 H2475 0.950 . S
H2472 C2468 0.950 . S
C2473 C2471 1.390 . S
C2473 C2474 1.387 . S
C2473 H2476 0.950 . S
C2474 C2473 1.387 . S
C2474 C2477 1.387 . S
H2475 C2471 0.950 . S
H2476 C2473 0.950 . S
C2477 C2468 1.390 . S
C2477 H2470 0.950 . S
C2477 C2474 1.387 . S
C2478 C2479 1.387 . S
C2478 H2482 0.950 . S
C2478 C2487 1.390 . S
C2479 C2478 1.387 . S
C2479 C2481 1.387 . S
H2480 C2487 0.950 . S
C2481 C2479 1.387 . S
C2481 C2483 1.390 . S
C2481 H2485 0.950 . S
H2482 C2478 0.950 . S
C2483 C2481 1.390 . S
C2483 C2484 1.387 . S
C2483 H2486 0.950 . S
C2484 C2483 1.387 . S
C2484 C2487 1.387 . S
H2485 C2481 0.950 . S
H2486 C2483 0.950 . S
C2487 C2478 1.390 . S
C2487 H2480 0.950 . S
C2487 C2484 1.387 . S
C2488 C2489 1.387 . S
C2488 H2492 0.950 . S
C2488 C2497 1.390 . S
C2489 C2488 1.387 . S
C2489 C2491 1.387 . S
H2490 C2497 0.950 . S
C2491 C2489 1.387 . S
C2491 C2493 1.390 . S
C2491 H2495 0.950 . S
H2492 C2488 0.950 . S
C2493 C2491 1.390 . S
C2493 C2494 1.387 . S
C2493 H2496 0.950 . S
C2494 C2493 1.387 . S
C2494 C2497 1.387 . S
H2495 C2491 0.950 . S
H2496 C2493 0.950 . S
C2497 C2488 1.390 . S
C2497 H2490 0.950 . S
C2497 C2494 1.387 . S
C2498 C2499 1.387 . S
C2498 H2502 0.950 . S
C2498 C2507 1.390 . S
C2499 C2498 1.387 . S
C2499 C2501 1.387 . S
H2500 C2507 0.950 . S
C2501 C2499 1.387 . S
C2501 C2503 1.390 . S
C2501 H2505 0.950 . S
H2502 C2498 0.950 . S
C2503 C2501 1.390 . S
C2503 C2504 1.387 . S
C2503 H2506 0.950 . S
C2504 C2503 1.387 . S
C2504 C2507 1.387 . S
H2505 C2501 0.950 . S
H2506 C2503 0.950 . S
C2507 C2498 1.390 . S
C2507 H2500 0.950 . S
C2507 C2504 1.387 . S
C2508 C2509 1.387 . S
C2508 H2512 0.950 . S
C2508 C2517 1.390 . S
C2509 C2508 1.387 . S
C2509 C2511 1.387 . S
H2510 C2517 0.950 . S
C2511 C2509 1.387 . S
C2511 C2513 1.390 . S
C2511 H2515 0.950 . S
H2512 C2508 0.950 . S
C2513 C2511 1.390 . S
C2513 C2514 1.387 . S
C2513 H2516 0.950 . S
C2514 C2513 1.387 . S
C2514 C2517 1.387 . S
H2515 C2511 0.950 . S
H2516 C2513 0.950 . S
C2517 C2508 1.390 . S
C2517 H2510 0.950 . S
C2517 C2514 1.387 . S
C2518 C2519 1.387 . S
C2518 H2522 0.950 . S
C2518 C2527 1.390 . S
C2519 C2518 1.387 . S
C2519 C2521 1.387 . S
H2520 C2527 0.950 . S
C2521 C2519 1.387 . S
C2521 C2523 1.390 . S
C2521 H2525 0.950 . S
H2522 C2518 0.950 . S
C2523 C2521 1.390 . S
C2523 C2524 1.387 . S
C2523 H2526 0.950 . S
C2524 C2523 1.387 . S
C2524 C2527 1.387 . S
H2525 C2521 0.950 . S
H2526 C2523 0.950 . S
C2527 C2518 1.390 . S
C2527 H2520 0.950 . S
C2527 C2524 1.387 . S
C2528 C2529 1.387 . S
C2528 H2532 0.950 . S
C2528 C2537 1.390 . S
C2529 C2528 1.387 . S
C2529 C2531 1.387 . S
H2530 C2537 0.950 . S
C2531 C2529 1.387 . S
C2531 C2533 1.390 . S
C2531 H2535 0.950 . S
H2532 C2528 0.950 . S
C2533 C2531 1.390 . S
C2533 C2534 1.387 . S
C2533 H2536 0.950 . S
C2534 C2533 1.387 . S
C2534 C2537 1.387 . S
H2535 C2531 0.950 . S
H2536 C2533 0.950 . S
C2537 C2528 1.390 . S
C2537 H2530 0.950 . S
C2537 C2534 1.387 . S
C2538 C2539 1.387 . S
C2538 H2542 0.950 . S
C2538 C2547 1.390 . S
C2539 C2538 1.387 . S
C2539 C2541 1.387 . S
H2540 C2547 0.950 . S
C2541 C2539 1.387 . S
C2541 C2543 1.390 . S
C2541 H2545 0.950 . S
H2542 C2538 0.950 . S
C2543 C2541 1.390 . S
C2543 C2544 1.387 . S
C2543 H2546 0.950 . S
C2544 C2543 1.387 . S
C2544 C2547 1.387 . S
H2545 C2541 0.950 . S
H2546 C2543 0.950 . S
C2547 C2538 1.390 . S
C2547 H2540 0.950 . S
C2547 C2544 1.387 . S
C2548 C2549 1.387 . S
C2548 H2552 0.950 . S
C2548 C2557 1.390 . S
C2549 C2548 1.387 . S
C2549 C2551 1.387 . S
H2550 C2557 0.950 . S
C2551 C2549 1.387 . S
C2551 C2553 1.390 . S
C2551 H2555 0.950 . S
H2552 C2548 0.950 . S
C2553 C2551 1.390 . S
C2553 C2554 1.387 . S
C2553 H2556 0.950 . S
C2554 C2553 1.387 . S
C2554 C2557 1.387 . S
H2555 C2551 0.950 . S
H2556 C2553 0.950 . S
C2557 C2548 1.390 . S
C2557 H2550 0.950 . S
C2557 C2554 1.387 . S
C2558 C2559 1.387 . S
C2558 H2562 0.950 . S
C2558 C2567 1.390 . S
C2559 C2558 1.387 . S
C2559 C2561 1.387 . S
H2560 C2567 0.950 . S
C2561 C2559 1.387 . S
C2561 C2563 1.390 . S
C2561 H2565 0.950 . S
H2562 C2558 0.950 . S
C2563 C2561 1.390 . S
C2563 C2564 1.387 . S
C2563 H2566 0.950 . S
C2564 C2563 1.387 . S
C2564 C2567 1.387 . S
H2565 C2561 0.950 . S
H2566 C2563 0.950 . S
C2567 C2558 1.390 . S
C2567 H2560 0.950 . S
C2567 C2564 1.387 . S
C2568 C2569 1.387 . S
C2568 H2572 0.950 . S
C2568 C2577 1.390 . S
C2569 C2568 1.387 . S
C2569 C2571 1.387 . S
H2570 C2577 0.950 . S
C2571 C2569 1.387 . S
C2571 C2573 1.390 . S
C2571 H2575 0.950 1_455 S
H2572 C2568 0.950 . S
C2573 C2571 1.390 . S
C2573 C2574 1.387 . S
C2573 H2576 0.950 1_455 S
C2574 C2573 1.387 . S
C2574 C2577 1.387 . S
H2575 C2571 0.950 1_655 S
H2576 C2573 0.950 1_655 S
C2577 C2568 1.390 . S
C2577 H2570 0.950 . S
C2577 C2574 1.387 . S
C2578 C2579 1.387 . S
C2578 H2582 0.950 . S
C2578 C2587 1.390 . S
C2579 C2578 1.387 . S
C2579 C2581 1.387 . S
H2580 C2587 0.950 . S
C2581 C2579 1.387 . S
C2581 C2583 1.390 . S
C2581 H2585 0.950 . S
H2582 C2578 0.950 . S
C2583 C2581 1.390 . S
C2583 C2584 1.387 . S
C2583 H2586 0.950 . S
C2584 C2583 1.387 . S
C2584 C2587 1.387 . S
H2585 C2581 0.950 . S
H2586 C2583 0.950 . S
C2587 C2578 1.390 . S
C2587 H2580 0.950 . S
C2587 C2584 1.387 . S
C2588 C2589 1.387 . S
C2588 H2592 0.950 . S
C2588 C2597 1.390 . S
C2589 C2588 1.387 . S
C2589 C2591 1.387 . S
H2590 C2597 0.950 . S
C2591 C2589 1.387 . S
C2591 C2593 1.390 . S
C2591 H2595 0.950 . S
H2592 C2588 0.950 . S
C2593 C2591 1.390 . S
C2593 C2594 1.387 . S
C2593 H2596 0.950 . S
C2594 C2593 1.387 . S
C2594 C2597 1.387 . S
H2595 C2591 0.950 . S
H2596 C2593 0.950 . S
C2597 C2588 1.390 . S
C2597 H2590 0.950 . S
C2597 C2594 1.387 . S
C2598 C2599 1.387 . S
C2598 H2602 0.950 . S
C2598 C2607 1.390 . S
C2599 C2598 1.387 . S
C2599 C2601 1.387 . S
H2600 C2607 0.950 . S
C2601 C2599 1.387 . S
C2601 C2603 1.390 . S
C2601 H2605 0.950 . S
H2602 C2598 0.950 . S
C2603 C2601 1.390 . S
C2603 C2604 1.387 . S
C2603 H2606 0.950 . S
C2604 C2603 1.387 . S
C2604 C2607 1.387 . S
H2605 C2601 0.950 . S
H2606 C2603 0.950 . S
C2607 C2598 1.390 . S
C2607 H2600 0.950 . S
C2607 C2604 1.387 . S
C2608 C2609 1.387 . S
C2608 H2612 0.950 . S
C2608 C2617 1.390 . S
C2609 C2608 1.387 . S
C2609 C2611 1.387 . S
H2610 C2617 0.950 . S
C2611 C2609 1.387 . S
C2611 C2613 1.390 . S
C2611 H2615 0.950 . S
H2612 C2608 0.950 . S
C2613 C2611 1.390 . S
C2613 C2614 1.387 . S
C2613 H2616 0.950 . S
C2614 C2613 1.387 . S
C2614 C2617 1.387 . S
H2615 C2611 0.950 . S
H2616 C2613 0.950 . S
C2617 C2608 1.390 . S
C2617 H2610 0.950 . S
C2617 C2614 1.387 . S
C2618 C2619 1.387 . S
C2618 H2622 0.950 . S
C2618 C2627 1.390 . S
C2619 C2618 1.387 . S
C2619 C2621 1.387 1_655 S
H2620 C2627 0.950 . S
C2621 C2619 1.387 1_455 S
C2621 C2623 1.390 . S
C2621 H2625 0.950 . S
H2622 C2618 0.950 . S
C2623 C2621 1.390 . S
C2623 C2624 1.387 1_455 S
C2623 H2626 0.950 . S
C2624 C2623 1.387 1_655 S
C2624 C2627 1.387 . S
H2625 C2621 0.950 . S
H2626 C2623 0.950 . S
C2627 C2618 1.390 . S
C2627 H2620 0.950 . S
C2627 C2624 1.387 . S
C2628 C2629 1.387 . S
C2628 H2632 0.950 . S
C2628 C2637 1.390 . S
C2629 C2628 1.387 . S
C2629 C2631 1.387 . S
H2630 C2637 0.950 . S
C2631 C2629 1.387 . S
C2631 C2633 1.390 . S
C2631 H2635 0.950 . S
H2632 C2628 0.950 . S
C2633 C2631 1.390 . S
C2633 C2634 1.387 . S
C2633 H2636 0.950 . S
C2634 C2633 1.387 . S
C2634 C2637 1.387 . S
H2635 C2631 0.950 . S
H2636 C2633 0.950 . S
C2637 C2628 1.390 . S
C2637 H2630 0.950 . S
C2637 C2634 1.387 . S
C2638 C2639 1.387 . S
C2638 H2642 0.950 . S
C2638 C2647 1.390 . S
C2639 C2638 1.387 . S
C2639 C2641 1.387 . S
H2640 C2647 0.950 . S
C2641 C2639 1.387 . S
C2641 C2643 1.390 . S
C2641 H2645 0.950 . S
H2642 C2638 0.950 . S
C2643 C2641 1.390 . S
C2643 C2644 1.387 . S
C2643 H2646 0.950 . S
C2644 C2643 1.387 . S
C2644 C2647 1.387 . S
H2645 C2641 0.950 . S
H2646 C2643 0.950 . S
C2647 C2638 1.390 . S
C2647 H2640 0.950 . S
C2647 C2644 1.387 . S
C2648 C2649 1.387 . S
C2648 H2652 0.950 . S
C2648 C2657 1.390 . S
C2649 C2648 1.387 . S
C2649 C2651 1.387 . S
H2650 C2657 0.950 . S
C2651 C2649 1.387 . S
C2651 C2653 1.390 . S
C2651 H2655 0.950 . S
H2652 C2648 0.950 . S
C2653 C2651 1.390 . S
C2653 C2654 1.387 . S
C2653 H2656 0.950 . S
C2654 C2653 1.387 . S
C2654 C2657 1.387 . S
H2655 C2651 0.950 . S
H2656 C2653 0.950 . S
C2657 C2648 1.390 . S
C2657 H2650 0.950 . S
C2657 C2654 1.387 . S
C2658 C2659 1.387 . S
C2658 H2662 0.950 . S
C2658 C2667 1.390 . S
C2659 C2658 1.387 . S
C2659 C2661 1.387 . S
H2660 C2667 0.950 . S
C2661 C2659 1.387 . S
C2661 C2663 1.390 . S
C2661 H2665 0.950 . S
H2662 C2658 0.950 . S
C2663 C2661 1.390 . S
C2663 C2664 1.387 . S
C2663 H2666 0.950 . S
C2664 C2663 1.387 . S
C2664 C2667 1.387 . S
H2665 C2661 0.950 . S
H2666 C2663 0.950 . S
C2667 C2658 1.390 . S
C2667 H2660 0.950 . S
C2667 C2664 1.387 . S
C2668 C2669 1.387 . S
C2668 H2672 0.950 . S
C2668 C2677 1.390 . S
C2669 C2668 1.387 . S
C2669 C2671 1.387 . S
H2670 C2677 0.950 . S
C2671 C2669 1.387 . S
C2671 C2673 1.390 . S
C2671 H2675 0.950 . S
H2672 C2668 0.950 . S
C2673 C2671 1.390 . S
C2673 C2674 1.387 . S
C2673 H2676 0.950 . S
C2674 C2673 1.387 . S
C2674 C2677 1.387 . S
H2675 C2671 0.950 . S
H2676 C2673 0.950 . S
C2677 C2668 1.390 . S
C2677 H2670 0.950 . S
C2677 C2674 1.387 . S
C2678 C2679 1.387 . S
C2678 H2682 0.950 . S
C2678 C2687 1.390 . S
C2679 C2678 1.387 . S
C2679 C2681 1.387 . S
H2680 C2687 0.950 . S
C2681 C2679 1.387 . S
C2681 C2683 1.390 . S
C2681 H2685 0.950 . S
H2682 C2678 0.950 . S
C2683 C2681 1.390 . S
C2683 C2684 1.387 . S
C2683 H2686 0.950 . S
C2684 C2683 1.387 . S
C2684 C2687 1.387 . S
H2685 C2681 0.950 . S
H2686 C2683 0.950 . S
C2687 C2678 1.390 . S
C2687 H2680 0.950 . S
C2687 C2684 1.387 . S
C2688 C2689 1.387 . S
C2688 H2692 0.950 . S
C2688 C2697 1.390 . S
C2689 C2688 1.387 . S
C2689 C2691 1.387 . S
H2690 C2697 0.950 . S
C2691 C2689 1.387 . S
C2691 C2693 1.390 . S
C2691 H2695 0.950 . S
H2692 C2688 0.950 . S
C2693 C2691 1.390 . S
C2693 C2694 1.387 . S
C2693 H2696 0.950 . S
C2694 C2693 1.387 . S
C2694 C2697 1.387 . S
H2695 C2691 0.950 . S
H2696 C2693 0.950 . S
C2697 C2688 1.390 . S
C2697 H2690 0.950 . S
C2697 C2694 1.387 . S
C2698 C2699 1.387 . S
C2698 H2702 0.950 . S
C2698 C2707 1.390 . S
C2699 C2698 1.387 . S
C2699 C2701 1.387 . S
H2700 C2707 0.950 . S
C2701 C2699 1.387 . S
C2701 C2703 1.390 . S
C2701 H2705 0.950 . S
H2702 C2698 0.950 . S
C2703 C2701 1.390 . S
C2703 C2704 1.387 . S
C2703 H2706 0.950 . S
C2704 C2703 1.387 . S
C2704 C2707 1.387 . S
H2705 C2701 0.950 . S
H2706 C2703 0.950 . S
C2707 C2698 1.390 . S
C2707 H2700 0.950 . S
C2707 C2704 1.387 . S
C2708 C2709 1.387 . S
C2708 H2712 0.950 . S
C2708 C2717 1.390 . S
C2709 C2708 1.387 . S
C2709 C2711 1.387 . S
H2710 C2717 0.950 . S
C2711 C2709 1.387 . S
C2711 C2713 1.390 . S
C2711 H2715 0.950 . S
H2712 C2708 0.950 . S
C2713 C2711 1.390 . S
C2713 C2714 1.387 . S
C2713 H2716 0.950 . S
C2714 C2713 1.387 . S
C2714 C2717 1.387 . S
H2715 C2711 0.950 . S
H2716 C2713 0.950 . S
C2717 C2708 1.390 . S
C2717 H2710 0.950 . S
C2717 C2714 1.387 . S
C2718 C2719 1.387 . S
C2718 H2722 0.950 . S
C2718 C2727 1.390 . S
C2719 C2718 1.387 . S
C2719 C2721 1.387 . S
H2720 C2727 0.950 . S
C2721 C2719 1.387 . S
C2721 C2723 1.390 . S
C2721 H2725 0.950 . S
H2722 C2718 0.950 . S
C2723 C2721 1.390 . S
C2723 C2724 1.387 . S
C2723 H2726 0.950 . S
C2724 C2723 1.387 . S
C2724 C2727 1.387 . S
H2725 C2721 0.950 . S
H2726 C2723 0.950 . S
C2727 C2718 1.390 . S
C2727 H2720 0.950 . S
C2727 C2724 1.387 . S
C2728 C2729 1.387 . S
C2728 H2732 0.950 . S
C2728 C2737 1.390 . S
C2729 C2728 1.387 . S
C2729 C2731 1.387 . S
H2730 C2737 0.950 . S
C2731 C2729 1.387 . S
C2731 C2733 1.390 . S
C2731 H2735 0.950 . S
H2732 C2728 0.950 . S
C2733 C2731 1.390 . S
C2733 C2734 1.387 . S
C2733 H2736 0.950 . S
C2734 C2733 1.387 . S
C2734 C2737 1.387 . S
H2735 C2731 0.950 . S
H2736 C2733 0.950 . S
C2737 C2728 1.390 . S
C2737 H2730 0.950 . S
C2737 C2734 1.387 . S
C2738 C2739 1.387 . S
C2738 H2742 0.950 . S
C2738 C2747 1.390 . S
C2739 C2738 1.387 . S
C2739 C2741 1.387 . S
H2740 C2747 0.950 . S
C2741 C2739 1.387 . S
C2741 C2743 1.390 . S
C2741 H2745 0.950 . S
H2742 C2738 0.950 . S
C2743 C2741 1.390 . S
C2743 C2744 1.387 . S
C2743 H2746 0.950 . S
C2744 C2743 1.387 . S
C2744 C2747 1.387 . S
H2745 C2741 0.950 . S
H2746 C2743 0.950 . S
C2747 C2738 1.390 . S
C2747 H2740 0.950 . S
C2747 C2744 1.387 . S
C2748 C2749 1.387 . S
C2748 H2752 0.950 . S
C2748 C2757 1.390 . S
C2749 C2748 1.387 . S
C2749 C2751 1.387 . S
H2750 C2757 0.950 . S
C2751 C2749 1.387 . S
C2751 C2753 1.390 . S
C2751 H2755 0.950 . S
H2752 C2748 0.950 . S
C2753 C2751 1.390 . S
C2753 C2754 1.387 . S
C2753 H2756 0.950 . S
C2754 C2753 1.387 . S
C2754 C2757 1.387 . S
H2755 C2751 0.950 . S
H2756 C2753 0.950 . S
C2757 C2748 1.390 . S
C2757 H2750 0.950 . S
C2757 C2754 1.387 . S
C2758 C2759 1.387 . S
C2758 H2762 0.950 . S
C2758 C2767 1.390 . S
C2759 C2758 1.387 . S
C2759 C2761 1.387 . S
H2760 C2767 0.950 . S
C2761 C2759 1.387 . S
C2761 C2763 1.390 . S
C2761 H2765 0.950 . S
H2762 C2758 0.950 . S
C2763 C2761 1.390 . S
C2763 C2764 1.387 . S
C2763 H2766 0.950 . S
C2764 C2763 1.387 . S
C2764 C2767 1.387 . S
H2765 C2761 0.950 . S
H2766 C2763 0.950 . S
C2767 C2758 1.390 . S
C2767 H2760 0.950 . S
C2767 C2764 1.387 . S
C2768 C2769 1.387 . S
C2768 H2772 0.950 . S
C2768 C2777 1.390 . S
C2769 C2768 1.387 . S
C2769 C2771 1.387 . S
H2770 C2777 0.950 1_545 S
C2771 C2769 1.387 . S
C2771 C2773 1.390 . S
C2771 H2775 0.950 . S
H2772 C2768 0.950 . S
C2773 C2771 1.390 . S
C2773 C2774 1.387 . S
C2773 H2776 0.950 . S
C2774 C2773 1.387 . S
C2774 C2777 1.387 . S
H2775 C2771 0.950 . S
H2776 C2773 0.950 . S
C2777 C2768 1.390 . S
C2777 H2770 0.950 1_565 S
C2777 C2774 1.387 . S
C2778 C2779 1.387 . S
C2778 H2782 0.950 . S
C2778 C2787 1.390 . S
C2779 C2778 1.387 . S
C2779 C2781 1.387 1_655 S
H2780 C2787 0.950 . S
C2781 C2779 1.387 1_455 S
C2781 C2783 1.390 . S
C2781 H2785 0.950 . S
H2782 C2778 0.950 . S
C2783 C2781 1.390 . S
C2783 C2784 1.387 1_455 S
C2783 H2786 0.950 . S
C2784 C2783 1.387 1_655 S
C2784 C2787 1.387 . S
H2785 C2781 0.950 . S
H2786 C2783 0.950 . S
C2787 C2778 1.390 . S
C2787 H2780 0.950 . S
C2787 C2784 1.387 . S
C2788 C2789 1.387 . S
C2788 H2792 0.950 . S
C2788 C2797 1.390 . S
C2789 C2788 1.387 . S
C2789 C2791 1.387 . S
H2790 C2797 0.950 . S
C2791 C2789 1.387 . S
C2791 C2793 1.390 . S
C2791 H2795 0.950 . S
H2792 C2788 0.950 . S
C2793 C2791 1.390 . S
C2793 C2794 1.387 . S
C2793 H2796 0.950 . S
C2794 C2793 1.387 . S
C2794 C2797 1.387 . S
H2795 C2791 0.950 . S
H2796 C2793 0.950 . S
C2797 C2788 1.390 . S
C2797 H2790 0.950 . S
C2797 C2794 1.387 . S
C2798 C2799 1.387 . S
C2798 H2802 0.950 . S
C2798 C2807 1.390 . S
C2799 C2798 1.387 . S
C2799 C2801 1.387 . S
H2800 C2807 0.950 . S
C2801 C2799 1.387 . S
C2801 C2803 1.390 . S
C2801 H2805 0.950 . S
H2802 C2798 0.950 . S
C2803 C2801 1.390 . S
C2803 C2804 1.387 . S
C2803 H2806 0.950 . S
C2804 C2803 1.387 . S
C2804 C2807 1.387 . S
H2805 C2801 0.950 . S
H2806 C2803 0.950 . S
C2807 C2798 1.390 . S
C2807 H2800 0.950 . S
C2807 C2804 1.387 . S
C2808 C2809 1.387 . S
C2808 H2812 0.950 . S
C2808 C2817 1.390 . S
C2809 C2808 1.387 . S
C2809 C2811 1.387 . S
H2810 C2817 0.950 . S
C2811 C2809 1.387 . S
C2811 C2813 1.390 . S
C2811 H2815 0.950 . S
H2812 C2808 0.950 . S
C2813 C2811 1.390 . S
C2813 C2814 1.387 . S
C2813 H2816 0.950 . S
C2814 C2813 1.387 . S
C2814 C2817 1.387 . S
H2815 C2811 0.950 . S
H2816 C2813 0.950 . S
C2817 C2808 1.390 . S
C2817 H2810 0.950 . S
C2817 C2814 1.387 . S
C2818 C2819 1.387 . S
C2818 H2822 0.950 . S
C2818 C2827 1.390 . S
C2819 C2818 1.387 . S
C2819 C2821 1.387 . S
H2820 C2827 0.950 . S
C2821 C2819 1.387 . S
C2821 C2823 1.390 . S
C2821 H2825 0.950 . S
H2822 C2818 0.950 . S
C2823 C2821 1.390 . S
C2823 C2824 1.387 . S
C2823 H2826 0.950 . S
C2824 C2823 1.387 . S
C2824 C2827 1.387 . S
H2825 C2821 0.950 . S
H2826 C2823 0.950 . S
C2827 C2818 1.390 . S
C2827 H2820 0.950 . S
C2827 C2824 1.387 . S
C2828 C2829 1.387 1_455 S
C2828 H2832 0.950 . S
C2828 C2837 1.390 . S
C2829 C2828 1.387 1_655 S
C2829 C2831 1.387 . S
H2830 C2837 0.950 . S
C2831 C2829 1.387 . S
C2831 C2833 1.390 . S
C2831 H2835 0.950 . S
H2832 C2828 0.950 . S
C2833 C2831 1.390 . S
C2833 C2834 1.387 1_655 S
C2833 H2836 0.950 . S
C2834 C2833 1.387 1_455 S
C2834 C2837 1.387 . S
H2835 C2831 0.950 . S
H2836 C2833 0.950 . S
C2837 C2828 1.390 . S
C2837 H2830 0.950 . S
C2837 C2834 1.387 . S
C2838 C2839 1.387 . S
C2838 H2842 0.950 . S
C2838 C2847 1.390 . S
C2839 C2838 1.387 . S
C2839 C2841 1.387 . S
H2840 C2847 0.950 . S
C2841 C2839 1.387 . S
C2841 C2843 1.390 . S
C2841 H2845 0.950 . S
H2842 C2838 0.950 . S
C2843 C2841 1.390 . S
C2843 C2844 1.387 . S
C2843 H2846 0.950 . S
C2844 C2843 1.387 . S
C2844 C2847 1.387 . S
H2845 C2841 0.950 . S
H2846 C2843 0.950 . S
C2847 C2838 1.390 . S
C2847 H2840 0.950 . S
C2847 C2844 1.387 . S
C2848 C2849 1.387 . S
C2848 H2852 0.950 . S
C2848 C2857 1.390 . S
C2849 C2848 1.387 . S
C2849 C2851 1.387 . S
H2850 C2857 0.950 . S
C2851 C2849 1.387 . S
C2851 C2853 1.390 . S
C2851 H2855 0.950 . S
H2852 C2848 0.950 . S
C2853 C2851 1.390 . S
C2853 C2854 1.387 . S
C2853 H2856 0.950 . S
C2854 C2853 1.387 . S
C2854 C2857 1.387 . S
H2855 C2851 0.950 . S
H2856 C2853 0.950 . S
C2857 C2848 1.390 . S
C2857 H2850 0.950 . S
C2857 C2854 1.387 . S
C2858 C2859 1.387 . S
C2858 H2862 0.950 . S
C2858 C2867 1.390 . S
C2859 C2858 1.387 . S
C2859 C2861 1.387 . S
H2860 C2867 0.950 . S
C2861 C2859 1.387 . S
C2861 C2863 1.390 . S
C2861 H2865 0.950 . S
H2862 C2858 0.950 . S
C2863 C2861 1.390 . S
C2863 C2864 1.387 . S
C2863 H2866 0.950 . S
C2864 C2863 1.387 . S
C2864 C2867 1.387 . S
H2865 C2861 0.950 . S
H2866 C2863 0.950 . S
C2867 C2858 1.390 . S
C2867 H2860 0.950 . S
C2867 C2864 1.387 . S
C2868 C2869 1.387 . S
C2868 H2872 0.950 . S
C2868 C2877 1.390 . S
C2869 C2868 1.387 . S
C2869 C2871 1.387 . S
H2870 C2877 0.950 . S
C2871 C2869 1.387 . S
C2871 C2873 1.390 . S
C2871 H2875 0.950 . S
H2872 C2868 0.950 . S
C2873 C2871 1.390 . S
C2873 C2874 1.387 . S
C2873 H2876 0.950 . S
C2874 C2873 1.387 . S
C2874 C2877 1.387 . S
H2875 C2871 0.950 . S
H2876 C2873 0.950 . S
C2877 C2868 1.390 . S
C2877 H2870 0.950 . S
C2877 C2874 1.387 . S
C2878 C2879 1.387 . S
C2878 H2882 0.950 . S
C2878 C2887 1.390 . S
C2879 C2878 1.387 . S
C2879 C2881 1.387 . S
H2880 C2887 0.950 . S
C2881 C2879 1.387 . S
C2881 C2883 1.390 . S
C2881 H2885 0.950 . S
H2882 C2878 0.950 . S
C2883 C2881 1.390 . S
C2883 C2884 1.387 . S
C2883 H2886 0.950 . S
C2884 C2883 1.387 . S
C2884 C2887 1.387 . S
H2885 C2881 0.950 . S
H2886 C2883 0.950 . S
C2887 C2878 1.390 . S
C2887 H2880 0.950 . S
C2887 C2884 1.387 . S
C2888 C2889 1.387 . S
C2888 H2892 0.950 . S
C2888 C2897 1.390 . S
C2889 C2888 1.387 . S
C2889 C2891 1.387 . S
H2890 C2897 0.950 . S
C2891 C2889 1.387 . S
C2891 C2893 1.390 . S
C2891 H2895 0.950 . S
H2892 C2888 0.950 . S
C2893 C2891 1.390 . S
C2893 C2894 1.387 . S
C2893 H2896 0.950 . S
C2894 C2893 1.387 . S
C2894 C2897 1.387 . S
H2895 C2891 0.950 . S
H2896 C2893 0.950 . S
C2897 C2888 1.390 . S
C2897 H2890 0.950 . S
C2897 C2894 1.387 . S
C2898 C2899 1.387 . S
C2898 H2902 0.950 . S
C2898 C2907 1.390 . S
C2899 C2898 1.387 . S
C2899 C2901 1.387 . S
H2900 C2907 0.950 . S
C2901 C2899 1.387 . S
C2901 C2903 1.390 . S
C2901 H2905 0.950 . S
H2902 C2898 0.950 . S
C2903 C2901 1.390 . S
C2903 C2904 1.387 . S
C2903 H2906 0.950 . S
C2904 C2903 1.387 . S
C2904 C2907 1.387 . S
H2905 C2901 0.950 . S
H2906 C2903 0.950 . S
C2907 C2898 1.390 . S
C2907 H2900 0.950 . S
C2907 C2904 1.387 . S
C2908 C2909 1.387 . S
C2908 H2912 0.950 . S
C2908 C2917 1.390 . S
C2909 C2908 1.387 . S
C2909 C2911 1.387 . S
H2910 C2917 0.950 . S
C2911 C2909 1.387 . S
C2911 C2913 1.390 . S
C2911 H2915 0.950 . S
H2912 C2908 0.950 . S
C2913 C2911 1.390 . S
C2913 C2914 1.387 . S
C2913 H2916 0.950 . S
C2914 C2913 1.387 . S
C2914 C2917 1.387 . S
H2915 C2911 0.950 . S
H2916 C2913 0.950 . S
C2917 C2908 1.390 . S
C2917 H2910 0.950 . S
C2917 C2914 1.387 . S
C2918 C2919 1.387 . S
C2918 H2922 0.950 . S
C2918 C2927 1.390 . S
C2919 C2918 1.387 . S
C2919 C2921 1.387 . S
H2920 C2927 0.950 . S
C2921 C2919 1.387 . S
C2921 C2923 1.390 . S
C2921 H2925 0.950 . S
H2922 C2918 0.950 . S
C2923 C2921 1.390 . S
C2923 C2924 1.387 . S
C2923 H2926 0.950 . S
C2924 C2923 1.387 . S
C2924 C2927 1.387 . S
H2925 C2921 0.950 . S
H2926 C2923 0.950 . S
C2927 C2918 1.390 . S
C2927 H2920 0.950 . S
C2927 C2924 1.387 . S
C2928 C2929 1.387 . S
C2928 H2932 0.950 . S
C2928 C2937 1.390 . S
C2929 C2928 1.387 . S
C2929 C2931 1.387 . S
H2930 C2937 0.950 . S
C2931 C2929 1.387 . S
C2931 C2933 1.390 . S
C2931 H2935 0.950 . S
H2932 C2928 0.950 . S
C2933 C2931 1.390 . S
C2933 C2934 1.387 . S
C2933 H2936 0.950 . S
C2934 C2933 1.387 . S
C2934 C2937 1.387 . S
H2935 C2931 0.950 . S
H2936 C2933 0.950 . S
C2937 C2928 1.390 . S
C2937 H2930 0.950 . S
C2937 C2934 1.387 . S
C2938 C2939 1.387 . S
C2938 H2942 0.950 . S
C2938 C2947 1.390 . S
C2939 C2938 1.387 . S
C2939 C2941 1.387 . S
H2940 C2947 0.950 . S
C2941 C2939 1.387 . S
C2941 C2943 1.390 . S
C2941 H2945 0.950 . S
H2942 C2938 0.950 . S
C2943 C2941 1.390 . S
C2943 C2944 1.387 . S
C2943 H2946 0.950 . S
C2944 C2943 1.387 . S
C2944 C2947 1.387 . S
H2945 C2941 0.950 . S
H2946 C2943 0.950 . S
C2947 C2938 1.390 . S
C2947 H2940 0.950 . S
C2947 C2944 1.387 . S
C2948 C2949 1.387 . S
C2948 H2952 0.950 . S
C2948 C2957 1.390 . S
C2949 C2948 1.387 . S
C2949 C2951 1.387 . S
H2950 C2957 0.950 . S
C2951 C2949 1.387 . S
C2951 C2953 1.390 . S
C2951 H2955 0.950 . S
H2952 C2948 0.950 . S
C2953 C2951 1.390 . S
C2953 C2954 1.387 . S
C2953 H2956 0.950 . S
C2954 C2953 1.387 . S
C2954 C2957 1.387 . S
H2955 C2951 0.950 . S
H2956 C2953 0.950 . S
C2957 C2948 1.390 . S
C2957 H2950 0.950 . S
C2957 C2954 1.387 . S
C2958 C2959 1.387 . S
C2958 H2962 0.950 . S
C2958 C2967 1.390 . S
C2959 C2958 1.387 . S
C2959 C2961 1.387 . S
H2960 C2967 0.950 . S
C2961 C2959 1.387 . S
C2961 C2963 1.390 . S
C2961 H2965 0.950 . S
H2962 C2958 0.950 . S
C2963 C2961 1.390 . S
C2963 C2964 1.387 . S
C2963 H2966 0.950 . S
C2964 C2963 1.387 . S
C2964 C2967 1.387 . S
H2965 C2961 0.950 . S
H2966 C2963 0.950 . S
C2967 C2958 1.390 . S
C2967 H2960 0.950 . S
C2967 C2964 1.387 . S
C2968 C2969 1.387 . S
C2968 H2972 0.950 . S
C2968 C2977 1.390 . S
C2969 C2968 1.387 . S
C2969 C2971 1.387 . S
H2970 C2977 0.950 . S
C2971 C2969 1.387 . S
C2971 C2973 1.390 . S
C2971 H2975 0.950 . S
H2972 C2968 0.950 . S
C2973 C2971 1.390 . S
C2973 C2974 1.387 . S
C2973 H2976 0.950 . S
C2974 C2973 1.387 . S
C2974 C2977 1.387 . S
H2975 C2971 0.950 . S
H2976 C2973 0.950 . S
C2977 C2968 1.390 . S
C2977 H2970 0.950 . S
C2977 C2974 1.387 . S
C2978 C2979 1.387 . S
C2978 H2982 0.950 . S
C2978 C2987 1.390 . S
C2979 C2978 1.387 . S
C2979 C2981 1.387 . S
H2980 C2987 0.950 . S
C2981 C2979 1.387 . S
C2981 C2983 1.390 . S
C2981 H2985 0.950 . S
H2982 C2978 0.950 . S
C2983 C2981 1.390 . S
C2983 C2984 1.387 . S
C2983 H2986 0.950 . S
C2984 C2983 1.387 . S
C2984 C2987 1.387 . S
H2985 C2981 0.950 . S
H2986 C2983 0.950 . S
C2987 C2978 1.390 . S
C2987 H2980 0.950 . S
C2987 C2984 1.387 . S
C2988 C2989 1.387 . S
C2988 H2992 0.950 . S
C2988 C2997 1.390 . S
C2989 C2988 1.387 . S
C2989 C2991 1.387 . S
H2990 C2997 0.950 . S
C2991 C2989 1.387 . S
C2991 C2993 1.390 . S
C2991 H2995 0.950 . S
H2992 C2988 0.950 . S
C2993 C2991 1.390 . S
C2993 C2994 1.387 . S
C2993 H2996 0.950 . S
C2994 C2993 1.387 . S
C2994 C2997 1.387 . S
H2995 C2991 0.950 . S
H2996 C2993 0.950 . S
C2997 C2988 1.390 . S
C2997 H2990 0.950 . S
C2997 C2994 1.387 . S
C2998 C2999 1.387 . S
C2998 H3002 0.950 . S
C2998 C3007 1.390 . S
C2999 C2998 1.387 . S
C2999 C3001 1.387 . S
H3000 C3007 0.950 . S
C3001 C2999 1.387 . S
C3001 C3003 1.390 . S
C3001 H3005 0.950 . S
H3002 C2998 0.950 . S
C3003 C3001 1.390 . S
C3003 C3004 1.387 . S
C3003 H3006 0.950 . S
C3004 C3003 1.387 . S
C3004 C3007 1.387 . S
H3005 C3001 0.950 . S
H3006 C3003 0.950 . S
C3007 C2998 1.390 . S
C3007 H3000 0.950 . S
C3007 C3004 1.387 . S
C3008 C3009 1.387 . S
C3008 H3012 0.950 . S
C3008 C3017 1.390 . S
C3009 C3008 1.387 . S
C3009 C3011 1.387 . S
H3010 C3017 0.950 . S
C3011 C3009 1.387 . S
C3011 C3013 1.390 . S
C3011 H3015 0.950 . S
H3012 C3008 0.950 . S
C3013 C3011 1.390 . S
C3013 C3014 1.387 . S
C3013 H3016 0.950 . S
C3014 C3013 1.387 . S
C3014 C3017 1.387 . S
H3015 C3011 0.950 . S
H3016 C3013 0.950 . S
C3017 C3008 1.390 . S
C3017 H3010 0.950 . S
C3017 C3014 1.387 . S
C3018 C3019 1.387 . S
C3018 H3022 0.950 . S
C3018 C3027 1.390 . S
C3019 C3018 1.387 . S
C3019 C3021 1.387 . S
H3020 C3027 0.950 . S
C3021 C3019 1.387 . S
C3021 C3023 1.390 . S
C3021 H3025 0.950 . S
H3022 C3018 0.950 . S
C3023 C3021 1.390 . S
C3023 C3024 1.387 . S
C3023 H3026 0.950 . S
C3024 C3023 1.387 . S
C3024 C3027 1.387 . S
H3025 C3021 0.950 . S
H3026 C3023 0.950 . S
C3027 C3018 1.390 . S
C3027 H3020 0.950 . S
C3027 C3024 1.387 . S
C3028 C3029 1.387 . S
C3028 H3032 0.950 . S
C3028 C3037 1.390 . S
C3029 C3028 1.387 . S
C3029 C3031 1.387 . S
H3030 C3037 0.950 . S
C3031 C3029 1.387 . S
C3031 C3033 1.390 . S
C3031 H3035 0.950 . S
H3032 C3028 0.950 . S
C3033 C3031 1.390 . S
C3033 C3034 1.387 . S
C3033 H3036 0.950 . S
C3034 C3033 1.387 . S
C3034 C3037 1.387 . S
H3035 C3031 0.950 . S
H3036 C3033 0.950 . S
C3037 C3028 1.390 . S
C3037 H3030 0.950 . S
C3037 C3034 1.387 . S
C3038 C3039 1.387 . S
C3038 H3042 0.950 . S
C3038 C3047 1.390 . S
C3039 C3038 1.387 . S
C3039 C3041 1.387 . S
H3040 C3047 0.950 . S
C3041 C3039 1.387 . S
C3041 C3043 1.390 . S
C3041 H3045 0.950 . S
H3042 C3038 0.950 . S
C3043 C3041 1.390 . S
C3043 C3044 1.387 . S
C3043 H3046 0.950 . S
C3044 C3043 1.387 . S
C3044 C3047 1.387 . S
H3045 C3041 0.950 . S
H3046 C3043 0.950 . S
C3047 C3038 1.390 . S
C3047 H3040 0.950 . S
C3047 C3044 1.387 . S
C3048 C3049 1.387 . S
C3048 H3052 0.950 . S
C3048 C3057 1.390 . S
C3049 C3048 1.387 . S
C3049 C3051 1.387 . S
H3050 C3057 0.950 . S
C3051 C3049 1.387 . S
C3051 C3053 1.390 . S
C3051 H3055 0.950 . S
H3052 C3048 0.950 . S
C3053 C3051 1.390 . S
C3053 C3054 1.387 . S
C3053 H3056 0.950 . S
C3054 C3053 1.387 . S
C3054 C3057 1.387 . S
H3055 C3051 0.950 . S
H3056 C3053 0.950 . S
C3057 C3048 1.390 . S
C3057 H3050 0.950 . S
C3057 C3054 1.387 . S
C3058 C3059 1.387 . S
C3058 H3062 0.950 . S
C3058 C3067 1.390 . S
C3059 C3058 1.387 . S
C3059 C3061 1.387 . S
H3060 C3067 0.950 . S
C3061 C3059 1.387 . S
C3061 C3063 1.390 . S
C3061 H3065 0.950 . S
H3062 C3058 0.950 . S
C3063 C3061 1.390 . S
C3063 C3064 1.387 . S
C3063 H3066 0.950 . S
C3064 C3063 1.387 . S
C3064 C3067 1.387 . S
H3065 C3061 0.950 . S
H3066 C3063 0.950 . S
C3067 C3058 1.390 . S
C3067 H3060 0.950 . S
C3067 C3064 1.387 . S
C3068 C3069 1.387 . S
C3068 H3072 0.950 . S
C3068 C3077 1.390 . S
C3069 C3068 1.387 . S
C3069 C3071 1.387 . S
H3070 C3077 0.950 . S
C3071 C3069 1.387 . S
C3071 C3073 1.390 . S
C3071 H3075 0.950 . S
H3072 C3068 0.950 . S
C3073 C3071 1.390 . S
C3073 C3074 1.387 . S
C3073 H3076 0.950 . S
C3074 C3073 1.387 . S
C3074 C3077 1.387 . S
H3075 C3071 0.950 . S
H3076 C3073 0.950 . S
C3077 C3068 1.390 . S
C3077 H3070 0.950 . S
C3077 C3074 1.387 . S
C3078 C3079 1.387 . S
C3078 H3082 0.950 . S
C3078 C3087 1.390 . S
C3079 C3078 1.387 . S
C3079 C3081 1.387 . S
H3080 C3087 0.950 . S
C3081 C3079 1.387 . S
C3081 C3083 1.390 . S
C3081 H3085 0.950 . S
H3082 C3078 0.950 . S
C3083 C3081 1.390 . S
C3083 C3084 1.387 . S
C3083 H3086 0.950 . S
C3084 C3083 1.387 . S
C3084 C3087 1.387 . S
H3085 C3081 0.950 . S
H3086 C3083 0.950 . S
C3087 C3078 1.390 . S
C3087 H3080 0.950 . S
C3087 C3084 1.387 . S
C3088 C3089 1.387 . S
C3088 H3092 0.950 . S
C3088 C3097 1.390 . S
C3089 C3088 1.387 . S
C3089 C3091 1.387 . S
H3090 C3097 0.950 . S
C3091 C3089 1.387 . S
C3091 C3093 1.390 1_565 S
C3091 H3095 0.950 . S
H3092 C3088 0.950 . S
C3093 C3091 1.390 1_545 S
C3093 C3094 1.392 . S
C3093 H3096 0.950 . S
C3094 C3093 1.392 . S
C3094 C3097 1.370 1_545 S
H3095 C3091 0.950 . S
H3096 C3093 0.950 . S
C3097 C3088 1.390 . S
C3097 H3090 0.950 . S
C3097 C3094 1.370 1_565 S
C3098 C3099 1.387 . S
C3098 H3102 0.950 . S
C3098 C3107 1.390 . S
C3099 C3098 1.387 . S
C3099 C3101 1.387 . S
H3100 C3107 0.950 . S
C3101 C3099 1.387 . S
C3101 C3103 1.390 . S
C3101 H3105 0.950 . S
H3102 C3098 0.950 . S
C3103 C3101 1.390 . S
C3103 C3104 1.387 . S
C3103 H3106 0.950 . S
C3104 C3103 1.387 . S
C3104 C3107 1.387 . S
H3105 C3101 0.950 . S
H3106 C3103 0.950 . S
C3107 C3098 1.390 . S
C3107 H3100 0.950 . S
C3107 C3104 1.387 . S
C3108 C3109 1.387 . S
C3108 H3112 0.950 . S
C3108 C3117 1.390 . S
C3109 C3108 1.387 . S
C3109 C3111 1.387 . S
H3110 C3117 0.950 . S
C3111 C3109 1.387 . S
C3111 C3113 1.390 . S
C3111 H3115 0.950 . S
H3112 C3108 0.950 . S
C3113 C3111 1.390 . S
C3113 C3114 1.387 . S
C3113 H3116 0.950 . S
C3114 C3113 1.387 . S
C3114 C3117 1.387 . S
H3115 C3111 0.950 . S
H3116 C3113 0.950 . S
C3117 C3108 1.390 . S
C3117 H3110 0.950 . S
C3117 C3114 1.387 . S
C3118 C3119 1.387 . S
C3118 H3122 0.950 . S
C3118 C3127 1.390 . S
C3119 C3118 1.387 . S
C3119 C3121 1.387 . S
H3120 C3127 0.950 . S
C3121 C3119 1.387 . S
C3121 C3123 1.390 . S
C3121 H3125 0.950 . S
H3122 C3118 0.950 . S
C3123 C3121 1.390 . S
C3123 C3124 1.387 . S
C3123 H3126 0.950 . S
C3124 C3123 1.387 . S
C3124 C3127 1.387 . S
H3125 C3121 0.950 . S
H3126 C3123 0.950 . S
C3127 C3118 1.390 . S
C3127 H3120 0.950 . S
C3127 C3124 1.387 . S
C3128 C3129 1.387 . S
C3128 H3132 0.950 . S
C3128 C3137 1.390 . S
C3129 C3128 1.387 . S
C3129 C3131 1.387 . S
H3130 C3137 0.950 . S
C3131 C3129 1.387 . S
C3131 C3133 1.390 . S
C3131 H3135 0.950 . S
H3132 C3128 0.950 . S
C3133 C3131 1.390 . S
C3133 C3134 1.387 . S
C3133 H3136 0.950 . S
C3134 C3133 1.387 . S
C3134 C3137 1.387 . S
H3135 C3131 0.950 . S
H3136 C3133 0.950 . S
C3137 C3128 1.390 . S
C3137 H3130 0.950 . S
C3137 C3134 1.387 . S
C3138 C3139 1.387 1_565 S
C3138 H3142 0.950 . S
C3138 C3147 1.390 . S
C3139 C3138 1.387 1_545 S
C3139 C3141 1.387 . S
H3140 C3147 0.950 . S
C3141 C3139 1.387 . S
C3141 C3143 1.390 . S
C3141 H3145 0.950 . S
H3142 C3138 0.950 . S
C3143 C3141 1.390 . S
C3143 C3144 1.387 1_545 S
C3143 H3146 0.950 . S
C3144 C3143 1.387 1_565 S
C3144 C3147 1.387 . S
H3145 C3141 0.950 . S
H3146 C3143 0.950 . S
C3147 C3138 1.390 . S
C3147 H3140 0.950 . S
C3147 C3144 1.387 . S
C3148 C3149 1.387 . S
C3148 H3152 0.950 . S
C3148 C3157 1.390 . S
C3149 C3148 1.387 . S
C3149 C3151 1.387 . S
H3150 C3157 0.950 . S
C3151 C3149 1.387 . S
C3151 C3153 1.390 . S
C3151 H3155 0.950 . S
H3152 C3148 0.950 . S
C3153 C3151 1.390 . S
C3153 C3154 1.387 . S
C3153 H3156 0.950 . S
C3154 C3153 1.387 . S
C3154 C3157 1.387 . S
H3155 C3151 0.950 . S
H3156 C3153 0.950 . S
C3157 C3148 1.390 . S
C3157 H3150 0.950 . S
C3157 C3154 1.387 . S
C3158 C3159 1.387 . S
C3158 H3162 0.950 . S
C3158 C3167 1.390 . S
C3159 C3158 1.387 . S
C3159 C3161 1.387 . S
H3160 C3167 0.950 . S
C3161 C3159 1.387 . S
C3161 C3163 1.390 . S
C3161 H3165 0.950 . S
H3162 C3158 0.950 . S
C3163 C3161 1.390 . S
C3163 C3164 1.387 . S
C3163 H3166 0.950 . S
C3164 C3163 1.387 . S
C3164 C3167 1.387 . S
H3165 C3161 0.950 . S
H3166 C3163 0.950 . S
C3167 C3158 1.390 . S
C3167 H3160 0.950 . S
C3167 C3164 1.387 . S
C3168 C3169 1.387 . S
C3168 H3172 0.950 . S
C3168 C3177 1.390 . S
C3169 C3168 1.387 . S
C3169 C3171 1.387 . S
H3170 C3177 0.950 . S
C3171 C3169 1.387 . S
C3171 C3173 1.390 . S
C3171 H3175 0.950 . S
H3172 C3168 0.950 . S
C3173 C3171 1.390 . S
C3173 C3174 1.387 . S
C3173 H3176 0.950 . S
C3174 C3173 1.387 . S
C3174 C3177 1.387 . S
H3175 C3171 0.950 . S
H3176 C3173 0.950 . S
C3177 C3168 1.390 . S
C3177 H3170 0.950 . S
C3177 C3174 1.387 . S
C3178 C3179 1.387 . S
C3178 H3182 0.950 . S
C3178 C3187 1.390 . S
C3179 C3178 1.387 . S
C3179 C3181 1.387 . S
H3180 C3187 0.950 . S
C3181 C3179 1.387 . S
C3181 C3183 1.390 . S
C3181 H3185 0.950 . S
H3182 C3178 0.950 . S
C3183 C3181 1.390 . S
C3183 C3184 1.387 . S
C3183 H3186 0.950 . S
C3184 C3183 1.387 . S
C3184 C3187 1.387 . S
H3185 C3181 0.950 . S
H3186 C3183 0.950 . S
C3187 C3178 1.390 . S
C3187 H3180 0.950 . S
C3187 C3184 1.387 . S
C3188 C3189 1.387 . S
C3188 H3192 0.950 . S
C3188 C3197 1.390 . S
C3189 C3188 1.387 . S
C3189 C3191 1.387 . S
H3190 C3197 0.950 . S
C3191 C3189 1.387 . S
C3191 C3193 1.390 . S
C3191 H3195 0.950 . S
H3192 C3188 0.950 . S
C3193 C3191 1.390 . S
C3193 C3194 1.387 . S
C3193 H3196 0.950 . S
C3194 C3193 1.387 . S
C3194 C3197 1.387 . S
H3195 C3191 0.950 . S
H3196 C3193 0.950 . S
C3197 C3188 1.390 . S
C3197 H3190 0.950 . S
C3197 C3194 1.387 . S
C3198 C3199 1.387 . S
C3198 H3202 0.950 . S
C3198 C3207 1.390 . S
C3199 C3198 1.387 . S
C3199 C3201 1.387 . S
H3200 C3207 0.950 . S
C3201 C3199 1.387 . S
C3201 C3203 1.390 . S
C3201 H3205 0.950 . S
H3202 C3198 0.950 . S
C3203 C3201 1.390 . S
C3203 C3204 1.387 . S
C3203 H3206 0.950 . S
C3204 C3203 1.387 . S
C3204 C3207 1.387 . S
H3205 C3201 0.950 . S
H3206 C3203 0.950 . S
C3207 C3198 1.390 . S
C3207 H3200 0.950 . S
C3207 C3204 1.387 . S
C3208 C3209 1.387 . S
C3208 H3212 0.950 . S
C3208 C3217 1.390 . S
C3209 C3208 1.387 . S
C3209 C3211 1.387 . S
H3210 C3217 0.950 . S
C3211 C3209 1.387 . S
C3211 C3213 1.390 . S
C3211 H3215 0.950 . S
H3212 C3208 0.950 . S
C3213 C3211 1.390 . S
C3213 C3214 1.387 . S
C3213 H3216 0.950 . S
C3214 C3213 1.387 . S
C3214 C3217 1.387 . S
H3215 C3211 0.950 . S
H3216 C3213 0.950 . S
C3217 C3208 1.390 . S
C3217 H3210 0.950 . S
C3217 C3214 1.387 . S
C3218 C3219 1.387 . S
C3218 H3222 0.950 . S
C3218 C3227 1.390 . S
C3219 C3218 1.387 . S
C3219 C3221 1.387 . S
H3220 C3227 0.950 . S
C3221 C3219 1.387 . S
C3221 C3223 1.390 . S
C3221 H3225 0.950 . S
H3222 C3218 0.950 . S
C3223 C3221 1.390 . S
C3223 C3224 1.387 . S
C3223 H3226 0.950 . S
C3224 C3223 1.387 . S
C3224 C3227 1.387 . S
H3225 C3221 0.950 . S
H3226 C3223 0.950 . S
C3227 C3218 1.390 . S
C3227 H3220 0.950 . S
C3227 C3224 1.387 . S
C3228 C3229 1.387 . S
C3228 H3232 0.950 . S
C3228 C3237 1.390 . S
C3229 C3228 1.387 . S
C3229 C3231 1.387 . S
H3230 C3237 0.950 . S
C3231 C3229 1.387 . S
C3231 C3233 1.390 . S
C3231 H3235 0.950 . S
H3232 C3228 0.950 . S
C3233 C3231 1.390 . S
C3233 C3234 1.387 . S
C3233 H3236 0.950 . S
C3234 C3233 1.387 . S
C3234 C3237 1.387 . S
H3235 C3231 0.950 . S
H3236 C3233 0.950 . S
C3237 C3228 1.390 . S
C3237 H3230 0.950 . S
C3237 C3234 1.387 . S
C3238 C3239 1.387 . S
C3238 H3242 0.950 . S
C3238 C3247 1.390 . S
C3239 C3238 1.387 . S
C3239 C3241 1.387 . S
H3240 C3247 0.950 . S
C3241 C3239 1.387 . S
C3241 C3243 1.390 . S
C3241 H3245 0.950 . S
H3242 C3238 0.950 . S
C3243 C3241 1.390 . S
C3243 C3244 1.387 . S
C3243 H3246 0.950 . S
C3244 C3243 1.387 . S
C3244 C3247 1.387 . S
H3245 C3241 0.950 . S
H3246 C3243 0.950 . S
C3247 C3238 1.390 . S
C3247 H3240 0.950 . S
C3247 C3244 1.387 . S
C3248 C3249 1.387 . S
C3248 H3252 0.950 . S
C3248 C3257 1.390 . S
C3249 C3248 1.387 . S
C3249 C3251 1.387 . S
H3250 C3257 0.950 . S
C3251 C3249 1.387 . S
C3251 C3253 1.390 . S
C3251 H3255 0.950 . S
H3252 C3248 0.950 . S
C3253 C3251 1.390 . S
C3253 C3254 1.387 . S
C3253 H3256 0.950 . S
C3254 C3253 1.387 . S
C3254 C3257 1.387 . S
H3255 C3251 0.950 . S
H3256 C3253 0.950 . S
C3257 C3248 1.390 . S
C3257 H3250 0.950 . S
C3257 C3254 1.387 . S
C3258 C3259 1.387 . S
C3258 H3262 0.950 . S
C3258 C3267 1.390 . S
C3259 C3258 1.387 . S
C3259 C3261 1.387 . S
H3260 C3267 0.950 . S
C3261 C3259 1.387 . S
C3261 C3263 1.390 . S
C3261 H3265 0.950 . S
H3262 C3258 0.950 . S
C3263 C3261 1.390 . S
C3263 C3264 1.387 . S
C3263 H3266 0.950 . S
C3264 C3263 1.387 . S
C3264 C3267 1.387 . S
H3265 C3261 0.950 . S
H3266 C3263 0.950 . S
C3267 C3258 1.390 . S
C3267 H3260 0.950 . S
C3267 C3264 1.387 . S
C3268 C3269 1.387 . S
C3268 H3272 0.950 . S
C3268 C3277 1.390 . S
C3269 C3268 1.387 . S
C3269 C3271 1.387 . S
H3270 C3277 0.950 . S
C3271 C3269 1.387 . S
C3271 C3273 1.390 . S
C3271 H3275 0.950 . S
H3272 C3268 0.950 . S
C3273 C3271 1.390 . S
C3273 C3274 1.387 . S
C3273 H3276 0.950 . S
C3274 C3273 1.387 . S
C3274 C3277 1.387 . S
H3275 C3271 0.950 . S
H3276 C3273 0.950 . S
C3277 C3268 1.390 . S
C3277 H3270 0.950 . S
C3277 C3274 1.387 . S
C3278 C3279 1.387 . S
C3278 H3282 0.950 . S
C3278 C3287 1.390 . S
C3279 C3278 1.387 . S
C3279 C3281 1.387 . S
H3280 C3287 0.950 . S
C3281 C3279 1.387 . S
C3281 C3283 1.390 . S
C3281 H3285 0.950 . S
H3282 C3278 0.950 . S
C3283 C3281 1.390 . S
C3283 C3284 1.387 . S
C3283 H3286 0.950 . S
C3284 C3283 1.387 . S
C3284 C3287 1.387 . S
H3285 C3281 0.950 . S
H3286 C3283 0.950 . S
C3287 C3278 1.390 . S
C3287 H3280 0.950 . S
C3287 C3284 1.387 . S
C3288 C3289 1.387 . S
C3288 H3292 0.950 . S
C3288 C3297 1.390 . S
C3289 C3288 1.387 . S
C3289 C3291 1.387 . S
H3290 C3297 0.950 . S
C3291 C3289 1.387 . S
C3291 C3293 1.390 . S
C3291 H3295 0.950 . S
H3292 C3288 0.950 . S
C3293 C3291 1.390 . S
C3293 C3294 1.387 . S
C3293 H3296 0.950 . S
C3294 C3293 1.387 . S
C3294 C3297 1.387 . S
H3295 C3291 0.950 . S
H3296 C3293 0.950 . S
C3297 C3288 1.390 . S
C3297 H3290 0.950 . S
C3297 C3294 1.387 . S
C3298 C3299 1.387 . S
C3298 H3302 0.950 . S
C3298 C3307 1.390 . S
C3299 C3298 1.387 . S
C3299 C3301 1.387 . S
H3300 C3307 0.950 . S
C3301 C3299 1.387 . S
C3301 C3303 1.390 . S
C3301 H3305 0.950 . S
H3302 C3298 0.950 . S
C3303 C3301 1.390 . S
C3303 C3304 1.387 . S
C3303 H3306 0.950 . S
C3304 C3303 1.387 . S
C3304 C3307 1.387 . S
H3305 C3301 0.950 . S
H3306 C3303 0.950 . S
C3307 C3298 1.390 . S
C3307 H3300 0.950 . S
C3307 C3304 1.387 . S
C3308 C3309 1.387 . S
C3308 H3312 0.950 . S
C3308 C3317 1.390 . S
C3309 C3308 1.387 . S
C3309 C3311 1.387 . S
H3310 C3317 0.950 . S
C3311 C3309 1.387 . S
C3311 C3313 1.390 . S
C3311 H3315 0.950 . S
H3312 C3308 0.950 . S
C3313 C3311 1.390 . S
C3313 C3314 1.387 . S
C3313 H3316 0.950 . S
C3314 C3313 1.387 . S
C3314 C3317 1.387 . S
H3315 C3311 0.950 . S
H3316 C3313 0.950 . S
C3317 C3308 1.390 . S
C3317 H3310 0.950 . S
C3317 C3314 1.387 . S
C3318 C3319 1.387 . S
C3318 H3322 0.950 . S
C3318 C3327 1.390 . S
C3319 C3318 1.387 . S
C3319 C3321 1.387 . S
H3320 C3327 0.950 . S
C3321 C3319 1.387 . S
C3321 C3323 1.390 . S
C3321 H3325 0.950 . S
H3322 C3318 0.950 . S
C3323 C3321 1.390 . S
C3323 C3324 1.387 . S
C3323 H3326 0.950 . S
C3324 C3323 1.387 . S
C3324 C3327 1.387 . S
H3325 C3321 0.950 . S
H3326 C3323 0.950 . S
C3327 C3318 1.390 . S
C3327 H3320 0.950 . S
C3327 C3324 1.387 . S
C3328 C3329 1.387 . S
C3328 H3332 0.950 . S
C3328 C3337 1.390 . S
C3329 C3328 1.387 . S
C3329 C3331 1.387 . S
H3330 C3337 0.895 1_565 S
C3331 C3329 1.387 . S
C3331 C3333 1.390 . S
C3331 H3335 0.950 . S
H3332 C3328 0.950 . S
C3333 C3331 1.390 . S
C3333 C3334 1.387 . S
C3333 H3336 0.950 . S
C3334 C3333 1.387 . S
C3334 C3337 1.387 . S
H3335 C3331 0.950 . S
H3336 C3333 0.950 . S
C3337 C3328 1.390 . S
C3337 H3330 0.895 1_545 S
C3337 C3334 1.387 . S
C3338 C3339 1.387 . S
C3338 H3342 0.950 . S
C3338 C3347 1.390 . S
C3339 C3338 1.387 . S
C3339 C3341 1.387 . S
H3340 C3347 0.950 . S
C3341 C3339 1.387 . S
C3341 C3343 1.390 . S
C3341 H3345 0.950 . S
H3342 C3338 0.950 . S
C3343 C3341 1.390 . S
C3343 C3344 1.387 . S
C3343 H3346 0.950 . S
C3344 C3343 1.387 . S
C3344 C3347 1.387 . S
H3345 C3341 0.950 . S
H3346 C3343 0.950 . S
C3347 C3338 1.390 . S
C3347 H3340 0.950 . S
C3347 C3344 1.387 . S
C3348 C3349 1.387 . S
C3348 H3352 0.950 . S
C3348 C3357 1.390 . S
C3349 C3348 1.387 . S
C3349 C3351 1.387 . S
H3350 C3357 0.950 . S
C3351 C3349 1.387 . S
C3351 C3353 1.390 . S
C3351 H3355 0.950 . S
H3352 C3348 0.950 . S
C3353 C3351 1.390 . S
C3353 C3354 1.387 . S
C3353 H3356 0.950 . S
C3354 C3353 1.387 . S
C3354 C3357 1.387 . S
H3355 C3351 0.950 . S
H3356 C3353 0.950 . S
C3357 C3348 1.390 . S
C3357 H3350 0.950 . S
C3357 C3354 1.387 . S
C3358 C3359 1.387 . S
C3358 H3362 0.950 . S
C3358 C3367 1.390 . S
C3359 C3358 1.387 . S
C3359 C3361 1.387 . S
H3360 C3367 0.950 . S
C3361 C3359 1.387 . S
C3361 C3363 1.390 . S
C3361 H3365 0.950 . S
H3362 C3358 0.950 . S
C3363 C3361 1.390 . S
C3363 C3364 1.387 . S
C3363 H3366 0.950 . S
C3364 C3363 1.387 . S
C3364 C3367 1.387 . S
H3365 C3361 0.950 . S
H3366 C3363 0.950 . S
C3367 C3358 1.390 . S
C3367 H3360 0.950 . S
C3367 C3364 1.387 . S
C3368 C3369 1.387 . S
C3368 H3372 0.950 . S
C3368 C3377 1.390 . S
C3369 C3368 1.387 . S
C3369 C3371 1.387 . S
H3370 C3377 0.950 . S
C3371 C3369 1.387 . S
C3371 C3373 1.390 . S
C3371 H3375 0.950 . S
H3372 C3368 0.950 . S
C3373 C3371 1.390 . S
C3373 C3374 1.387 . S
C3373 H3376 0.950 . S
C3374 C3373 1.387 . S
C3374 C3377 1.387 . S
H3375 C3371 0.950 . S
H3376 C3373 0.950 . S
C3377 C3368 1.390 . S
C3377 H3370 0.950 . S
C3377 C3374 1.387 . S
C3378 C3379 1.387 . S
C3378 H3382 0.950 . S
C3378 C3387 1.390 1_565 S
C3379 C3378 1.387 . S
C3379 C3381 1.387 . S
H3380 C3387 0.950 . S
C3381 C3379 1.387 . S
C3381 C3383 1.402 . S
C3381 H3385 0.950 . S
H3382 C3378 0.950 . S
C3383 C3381 1.402 . S
C3383 C3384 1.375 1_565 S
C3383 H3386 0.950 1_565 S
C3384 C3383 1.375 1_545 S
C3384 C3387 1.387 . S
H3385 C3381 0.950 . S
H3386 C3383 0.950 1_545 S
C3387 C3378 1.390 1_545 S
C3387 H3380 0.950 . S
C3387 C3384 1.387 . S
C3388 C3389 1.387 . S
C3388 H3392 0.950 . S
C3388 C3397 1.390 . S
C3389 C3388 1.387 . S
C3389 C3391 1.387 . S
H3390 C3397 0.950 . S
C3391 C3389 1.387 . S
C3391 C3393 1.390 . S
C3391 H3395 0.950 . S
H3392 C3388 0.950 . S
C3393 C3391 1.390 . S
C3393 C3394 1.387 . S
C3393 H3396 0.950 . S
C3394 C3393 1.387 . S
C3394 C3397 1.387 . S
H3395 C3391 0.950 . S
H3396 C3393 0.950 . S
C3397 C3388 1.390 . S
C3397 H3390 0.950 . S
C3397 C3394 1.387 . S
C3398 C3399 1.387 . S
C3398 H3402 0.950 . S
C3398 C3407 1.390 . S
C3399 C3398 1.387 . S
C3399 C3401 1.387 . S
H3400 C3407 0.950 . S
C3401 C3399 1.387 . S
C3401 C3403 1.390 . S
C3401 H3405 0.950 . S
H3402 C3398 0.950 . S
C3403 C3401 1.390 . S
C3403 C3404 1.387 . S
C3403 H3406 0.950 . S
C3404 C3403 1.387 . S
C3404 C3407 1.387 . S
H3405 C3401 0.950 . S
H3406 C3403 0.950 . S
C3407 C3398 1.390 . S
C3407 H3400 0.950 . S
C3407 C3404 1.387 . S
C3408 C3409 1.387 . S
C3408 H3412 0.950 . S
C3408 C3417 1.390 . S
C3409 C3408 1.387 . S
C3409 C3411 1.387 . S
H3410 C3417 0.950 . S
C3411 C3409 1.387 . S
C3411 C3413 1.390 . S
C3411 H3415 0.950 . S
H3412 C3408 0.950 . S
C3413 C3411 1.390 . S
C3413 C3414 1.387 . S
C3413 H3416 0.950 . S
C3414 C3413 1.387 . S
C3414 C3417 1.387 . S
H3415 C3411 0.950 . S
H3416 C3413 0.950 . S
C3417 C3408 1.390 . S
C3417 H3410 0.950 . S
C3417 C3414 1.387 . S
C3418 C3419 1.387 . S
C3418 H3422 0.950 . S
C3418 C3427 1.390 . S
C3419 C3418 1.387 . S
C3419 C3421 1.387 . S
H3420 C3427 0.950 . S
C3421 C3419 1.387 . S
C3421 C3423 1.390 . S
C3421 H3425 0.950 . S
H3422 C3418 0.950 . S
C3423 C3421 1.390 . S
C3423 C3424 1.387 . S
C3423 H3426 0.950 . S
C3424 C3423 1.387 . S
C3424 C3427 1.387 . S
H3425 C3421 0.950 . S
H3426 C3423 0.950 . S
C3427 C3418 1.390 . S
C3427 H3420 0.950 . S
C3427 C3424 1.387 . S
C3428 C3429 1.387 . S
C3428 H3432 0.950 . S
C3428 C3437 1.390 . S
C3429 C3428 1.387 . S
C3429 C3431 1.387 . S
H3430 C3437 0.950 . S
C3431 C3429 1.387 . S
C3431 C3433 1.390 . S
C3431 H3435 0.950 . S
H3432 C3428 0.950 . S
C3433 C3431 1.390 . S
C3433 C3434 1.387 . S
C3433 H3436 0.950 . S
C3434 C3433 1.387 . S
C3434 C3437 1.387 . S
H3435 C3431 0.950 . S
H3436 C3433 0.950 . S
C3437 C3428 1.390 . S
C3437 H3430 0.950 . S
C3437 C3434 1.387 . S
C3438 C3439 1.387 . S
C3438 H3442 0.950 . S
C3438 C3447 1.390 . S
C3439 C3438 1.387 . S
C3439 C3441 1.387 . S
H3440 C3447 0.950 . S
C3441 C3439 1.387 . S
C3441 C3443 1.390 . S
C3441 H3445 0.950 . S
H3442 C3438 0.950 . S
C3443 C3441 1.390 . S
C3443 C3444 1.387 . S
C3443 H3446 0.950 . S
C3444 C3443 1.387 . S
C3444 C3447 1.387 . S
H3445 C3441 0.950 . S
H3446 C3443 0.950 . S
C3447 C3438 1.390 . S
C3447 H3440 0.950 . S
C3447 C3444 1.387 . S
C3448 C3449 1.387 . S
C3448 H3452 0.950 . S
C3448 C3457 1.390 . S
C3449 C3448 1.387 . S
C3449 C3451 1.387 . S
H3450 C3457 0.950 . S
C3451 C3449 1.387 . S
C3451 C3453 1.390 . S
C3451 H3455 0.950 . S
H3452 C3448 0.950 . S
C3453 C3451 1.390 . S
C3453 C3454 1.387 . S
C3453 H3456 0.950 . S
C3454 C3453 1.387 . S
C3454 C3457 1.387 . S
H3455 C3451 0.950 . S
H3456 C3453 0.950 . S
C3457 C3448 1.390 . S
C3457 H3450 0.950 . S
C3457 C3454 1.387 . S
C3458 C3459 1.387 . S
C3458 H3462 0.950 . S
C3458 C3467 1.390 . S
C3459 C3458 1.387 . S
C3459 C3461 1.387 . S
H3460 C3467 0.950 . S
C3461 C3459 1.387 . S
C3461 C3463 1.390 . S
C3461 H3465 0.950 . S
H3462 C3458 0.950 . S
C3463 C3461 1.390 . S
C3463 C3464 1.387 . S
C3463 H3466 0.950 . S
C3464 C3463 1.387 . S
C3464 C3467 1.387 . S
H3465 C3461 0.950 . S
H3466 C3463 0.950 . S
C3467 C3458 1.390 . S
C3467 H3460 0.950 . S
C3467 C3464 1.387 . S
C3468 C3469 1.387 . S
C3468 H3472 0.950 . S
C3468 C3477 1.390 . S
C3469 C3468 1.387 . S
C3469 C3471 1.387 . S
H3470 C3477 0.950 . S
C3471 C3469 1.387 . S
C3471 C3473 1.390 . S
C3471 H3475 0.950 . S
H3472 C3468 0.950 . S
C3473 C3471 1.390 . S
C3473 C3474 1.387 . S
C3473 H3476 0.950 . S
C3474 C3473 1.387 . S
C3474 C3477 1.387 . S
H3475 C3471 0.950 . S
H3476 C3473 0.950 . S
C3477 C3468 1.390 . S
C3477 H3470 0.950 . S
C3477 C3474 1.387 . S
C3478 C3479 1.387 . S
C3478 H3482 0.950 . S
C3478 C3487 1.390 . S
C3479 C3478 1.387 . S
C3479 C3481 1.387 . S
H3480 C3487 0.950 . S
C3481 C3479 1.387 . S
C3481 C3483 1.390 . S
C3481 H3485 0.950 . S
H3482 C3478 0.950 . S
C3483 C3481 1.390 . S
C3483 C3484 1.387 . S
C3483 H3486 0.950 . S
C3484 C3483 1.387 . S
C3484 C3487 1.387 . S
H3485 C3481 0.950 . S
H3486 C3483 0.950 . S
C3487 C3478 1.390 . S
C3487 H3480 0.950 . S
C3487 C3484 1.387 . S
C3488 C3489 1.387 . S
C3488 H3492 0.950 . S
C3488 C3497 1.390 . S
C3489 C3488 1.387 . S
C3489 C3491 1.387 . S
H3490 C3497 0.950 . S
C3491 C3489 1.387 . S
C3491 C3493 1.390 . S
C3491 H3495 0.950 . S
H3492 C3488 0.950 . S
C3493 C3491 1.390 . S
C3493 C3494 1.387 . S
C3493 H3496 0.950 . S
C3494 C3493 1.387 . S
C3494 C3497 1.387 . S
H3495 C3491 0.950 . S
H3496 C3493 0.950 . S
C3497 C3488 1.390 . S
C3497 H3490 0.950 . S
C3497 C3494 1.387 . S
C3498 C3499 1.387 . S
C3498 H3502 0.950 . S
C3498 C3507 1.390 . S
C3499 C3498 1.387 . S
C3499 C3501 1.387 . S
H3500 C3507 0.950 . S
C3501 C3499 1.387 . S
C3501 C3503 1.390 . S
C3501 H3505 0.950 . S
H3502 C3498 0.950 . S
C3503 C3501 1.390 . S
C3503 C3504 1.387 . S
C3503 H3506 0.950 . S
C3504 C3503 1.387 . S
C3504 C3507 1.387 . S
H3505 C3501 0.950 . S
H3506 C3503 0.950 . S
C3507 C3498 1.390 . S
C3507 H3500 0.950 . S
C3507 C3504 1.387 . S
C3508 C3509 1.387 . S
C3508 H3512 0.950 . S
C3508 C3517 1.390 . S
C3509 C3508 1.387 . S
C3509 C3511 1.387 . S
H3510 C3517 0.950 . S
C3511 C3509 1.387 . S
C3511 C3513 1.390 . S
C3511 H3515 0.950 . S
H3512 C3508 0.950 . S
C3513 C3511 1.390 . S
C3513 C3514 1.387 . S
C3513 H3516 0.950 . S
C3514 C3513 1.387 . S
C3514 C3517 1.387 . S
H3515 C3511 0.950 . S
H3516 C3513 0.950 . S
C3517 C3508 1.390 . S
C3517 H3510 0.950 . S
C3517 C3514 1.387 . S
C3518 C3519 1.387 . S
C3518 H3522 0.950 . S
C3518 C3527 1.390 . S
C3519 C3518 1.387 . S
C3519 C3521 1.387 . S
H3520 C3527 0.950 . S
C3521 C3519 1.387 . S
C3521 C3523 1.390 . S
C3521 H3525 0.950 . S
H3522 C3518 0.950 . S
C3523 C3521 1.390 . S
C3523 C3524 1.387 . S
C3523 H3526 0.950 . S
C3524 C3523 1.387 . S
C3524 C3527 1.387 . S
H3525 C3521 0.950 . S
H3526 C3523 0.950 . S
C3527 C3518 1.390 . S
C3527 H3520 0.950 . S
C3527 C3524 1.387 . S
C3528 C3529 1.387 . S
C3528 H3532 0.950 . S
C3528 C3537 1.390 . S
C3529 C3528 1.387 . S
C3529 C3531 1.387 . S
H3530 C3537 0.950 . S
C3531 C3529 1.387 . S
C3531 C3533 1.390 . S
C3531 H3535 0.950 . S
H3532 C3528 0.950 . S
C3533 C3531 1.390 . S
C3533 C3534 1.387 . S
C3533 H3536 0.950 . S
C3534 C3533 1.387 . S
C3534 C3537 1.387 . S
H3535 C3531 0.950 . S
H3536 C3533 0.950 . S
C3537 C3528 1.390 . S
C3537 H3530 0.950 . S
C3537 C3534 1.387 . S
C3538 C3539 1.387 . S
C3538 H3542 0.950 . S
C3538 C3547 1.390 . S
C3539 C3538 1.387 . S
C3539 C3541 1.387 . S
H3540 C3547 0.950 . S
C3541 C3539 1.387 . S
C3541 C3543 1.390 . S
C3541 H3545 0.950 . S
H3542 C3538 0.950 . S
C3543 C3541 1.390 . S
C3543 C3544 1.387 . S
C3543 H3546 0.950 . S
C3544 C3543 1.387 . S
C3544 C3547 1.387 . S
H3545 C3541 0.950 . S
H3546 C3543 0.950 . S
C3547 C3538 1.390 . S
C3547 H3540 0.950 . S
C3547 C3544 1.387 . S
C3548 C3549 1.387 . S
C3548 H3552 0.950 . S
C3548 C3557 1.390 . S
C3549 C3548 1.387 . S
C3549 C3551 1.387 . S
H3550 C3557 0.950 . S
C3551 C3549 1.387 . S
C3551 C3553 1.390 . S
C3551 H3555 0.950 . S
H3552 C3548 0.950 . S
C3553 C3551 1.390 . S
C3553 C3554 1.387 . S
C3553 H3556 0.950 . S
C3554 C3553 1.387 . S
C3554 C3557 1.387 . S
H3555 C3551 0.950 . S
H3556 C3553 0.950 . S
C3557 C3548 1.390 . S
C3557 H3550 0.950 . S
C3557 C3554 1.387 . S
C3558 C3559 1.387 . S
C3558 H3562 0.950 . S
C3558 C3567 1.390 . S
C3559 C3558 1.387 . S
C3559 C3561 1.387 . S
H3560 C3567 0.950 . S
C3561 C3559 1.387 . S
C3561 C3563 1.390 . S
C3561 H3565 0.950 . S
H3562 C3558 0.950 . S
C3563 C3561 1.390 . S
C3563 C3564 1.387 . S
C3563 H3566 0.950 . S
C3564 C3563 1.387 . S
C3564 C3567 1.387 . S
H3565 C3561 0.950 . S
H3566 C3563 0.950 . S
C3567 C3558 1.390 . S
C3567 H3560 0.950 . S
C3567 C3564 1.387 . S
C3568 C3569 1.387 . S
C3568 H3572 0.950 . S
C3568 C3577 1.390 . S
C3569 C3568 1.387 . S
C3569 C3571 1.387 . S
H3570 C3577 0.950 . S
C3571 C3569 1.387 . S
C3571 C3573 1.390 . S
C3571 H3575 0.950 . S
H3572 C3568 0.950 . S
C3573 C3571 1.390 . S
C3573 C3574 1.387 . S
C3573 H3576 0.950 . S
C3574 C3573 1.387 . S
C3574 C3577 1.387 . S
H3575 C3571 0.950 . S
H3576 C3573 0.950 . S
C3577 C3568 1.390 . S
C3577 H3570 0.950 . S
C3577 C3574 1.387 . S
C3578 C3579 1.387 . S
C3578 H3582 0.950 . S
C3578 C3587 1.390 . S
C3579 C3578 1.387 . S
C3579 C3581 1.387 . S
H3580 C3587 0.950 . S
C3581 C3579 1.387 . S
C3581 C3583 1.390 . S
C3581 H3585 0.950 . S
H3582 C3578 0.950 . S
C3583 C3581 1.390 . S
C3583 C3584 1.387 . S
C3583 H3586 0.950 . S
C3584 C3583 1.387 . S
C3584 C3587 1.387 . S
H3585 C3581 0.950 . S
H3586 C3583 0.950 . S
C3587 C3578 1.390 . S
C3587 H3580 0.950 . S
C3587 C3584 1.387 . S
C3588 C3589 1.387 . S
C3588 H3592 0.950 . S
C3588 C3597 1.390 . S
C3589 C3588 1.387 . S
C3589 C3591 1.387 . S
H3590 C3597 0.950 . S
C3591 C3589 1.387 . S
C3591 C3593 1.390 . S
C3591 H3595 0.950 . S
H3592 C3588 0.950 . S
C3593 C3591 1.390 . S
C3593 C3594 1.387 . S
C3593 H3596 0.950 . S
C3594 C3593 1.387 . S
C3594 C3597 1.387 . S
H3595 C3591 0.950 . S
H3596 C3593 0.950 . S
C3597 C3588 1.390 . S
C3597 H3590 0.950 . S
C3597 C3594 1.387 . S
C3598 C3599 1.387 . S
C3598 H3602 0.950 . S
C3598 C3607 1.390 . S
C3599 C3598 1.387 . S
C3599 C3601 1.387 . S
H3600 C3607 0.950 . S
C3601 C3599 1.387 . S
C3601 C3603 1.390 . S
C3601 H3605 0.950 . S
H3602 C3598 0.950 . S
C3603 C3601 1.390 . S
C3603 C3604 1.387 . S
C3603 H3606 0.950 . S
C3604 C3603 1.387 . S
C3604 C3607 1.387 . S
H3605 C3601 0.950 . S
H3606 C3603 0.950 . S
C3607 C3598 1.390 . S
C3607 H3600 0.950 . S
C3607 C3604 1.387 . S
C3608 C3609 1.387 . S
C3608 H3612 0.950 . S
C3608 C3617 1.390 . S
C3609 C3608 1.387 . S
C3609 C3611 1.387 . S
H3610 C3617 0.950 . S
C3611 C3609 1.387 . S
C3611 C3613 1.390 . S
C3611 H3615 0.950 . S
H3612 C3608 0.950 . S
C3613 C3611 1.390 . S
C3613 C3614 1.387 . S
C3613 H3616 0.950 . S
C3614 C3613 1.387 . S
C3614 C3617 1.387 . S
H3615 C3611 0.950 . S
H3616 C3613 0.950 . S
C3617 C3608 1.390 . S
C3617 H3610 0.950 . S
C3617 C3614 1.387 . S
C3618 C3619 1.387 . S
C3618 H3622 0.950 . S
C3618 C3627 1.390 . S
C3619 C3618 1.387 . S
C3619 C3621 1.387 . S
H3620 C3627 0.950 . S
C3621 C3619 1.387 . S
C3621 C3623 1.390 . S
C3621 H3625 0.950 . S
H3622 C3618 0.950 . S
C3623 C3621 1.390 . S
C3623 C3624 1.387 . S
C3623 H3626 0.950 . S
C3624 C3623 1.387 . S
C3624 C3627 1.387 . S
H3625 C3621 0.950 . S
H3626 C3623 0.950 . S
C3627 C3618 1.390 . S
C3627 H3620 0.950 . S
C3627 C3624 1.387 . S
C3628 C3629 1.387 . S
C3628 H3632 0.950 . S
C3628 C3637 1.390 . S
C3629 C3628 1.387 . S
C3629 C3631 1.387 . S
H3630 C3637 0.950 . S
C3631 C3629 1.387 . S
C3631 C3633 1.390 . S
C3631 H3635 0.950 . S
H3632 C3628 0.950 . S
C3633 C3631 1.390 . S
C3633 C3634 1.387 . S
C3633 H3636 0.950 . S
C3634 C3633 1.387 . S
C3634 C3637 1.387 . S
H3635 C3631 0.950 . S
H3636 C3633 0.950 . S
C3637 C3628 1.390 . S
C3637 H3630 0.950 . S
C3637 C3634 1.387 . S
C3638 C3639 1.387 . S
C3638 H3642 0.950 . S
C3638 C3647 1.390 . S
C3639 C3638 1.387 . S
C3639 C3641 1.387 . S
H3640 C3647 0.950 . S
C3641 C3639 1.387 . S
C3641 C3643 1.390 . S
C3641 H3645 0.950 . S
H3642 C3638 0.950 . S
C3643 C3641 1.390 . S
C3643 C3644 1.387 . S
C3643 H3646 0.950 . S
C3644 C3643 1.387 . S
C3644 C3647 1.387 . S
H3645 C3641 0.950 . S
H3646 C3643 0.950 . S
C3647 C3638 1.390 . S
C3647 H3640 0.950 . S
C3647 C3644 1.387 . S
C3648 C3649 1.387 . S
C3648 H3652 0.950 . S
C3648 C3657 1.390 . S
C3649 C3648 1.387 . S
C3649 C3651 1.387 . S
H3650 C3657 0.950 . S
C3651 C3649 1.387 . S
C3651 C3653 1.390 . S
C3651 H3655 0.950 . S
H3652 C3648 0.950 . S
C3653 C3651 1.390 . S
C3653 C3654 1.387 . S
C3653 H3656 0.950 . S
C3654 C3653 1.387 . S
C3654 C3657 1.387 . S
H3655 C3651 0.950 . S
H3656 C3653 0.950 . S
C3657 C3648 1.390 . S
C3657 H3650 0.950 . S
C3657 C3654 1.387 . S
C3658 C3659 1.387 . S
C3658 H3662 0.950 . S
C3658 C3667 1.390 . S
C3659 C3658 1.387 . S
C3659 C3661 1.387 . S
H3660 C3667 0.950 . S
C3661 C3659 1.387 . S
C3661 C3663 1.390 . S
C3661 H3665 0.950 . S
H3662 C3658 0.950 . S
C3663 C3661 1.390 . S
C3663 C3664 1.387 . S
C3663 H3666 0.950 . S
C3664 C3663 1.387 . S
C3664 C3667 1.387 . S
H3665 C3661 0.950 . S
H3666 C3663 0.950 . S
C3667 C3658 1.390 . S
C3667 H3660 0.950 . S
C3667 C3664 1.387 . S
C3668 C3669 1.387 . S
C3668 H3672 0.950 . S
C3668 C3677 1.390 . S
C3669 C3668 1.387 . S
C3669 C3671 1.387 . S
H3670 C3677 0.950 . S
C3671 C3669 1.387 . S
C3671 C3673 1.390 . S
C3671 H3675 0.950 . S
H3672 C3668 0.950 . S
C3673 C3671 1.390 . S
C3673 C3674 1.387 . S
C3673 H3676 0.950 . S
C3674 C3673 1.387 . S
C3674 C3677 1.387 . S
H3675 C3671 0.950 . S
H3676 C3673 0.950 . S
C3677 C3668 1.390 . S
C3677 H3670 0.950 . S
C3677 C3674 1.387 . S
C3678 C3679 1.387 . S
C3678 H3682 0.950 . S
C3678 C3687 1.390 . S
C3679 C3678 1.387 . S
C3679 C3681 1.387 . S
H3680 C3687 0.950 . S
C3681 C3679 1.387 . S
C3681 C3683 1.390 . S
C3681 H3685 0.950 . S
H3682 C3678 0.950 . S
C3683 C3681 1.390 . S
C3683 C3684 1.387 . S
C3683 H3686 0.950 . S
C3684 C3683 1.387 . S
C3684 C3687 1.387 . S
H3685 C3681 0.950 . S
H3686 C3683 0.950 . S
C3687 C3678 1.390 . S
C3687 H3680 0.950 . S
C3687 C3684 1.387 . S
C3688 C3689 1.387 . S
C3688 H3692 0.950 . S
C3688 C3697 1.390 . S
C3689 C3688 1.387 . S
C3689 C3691 1.387 . S
H3690 C3697 0.950 . S
C3691 C3689 1.387 . S
C3691 C3693 1.390 . S
C3691 H3695 0.950 . S
H3692 C3688 0.950 . S
C3693 C3691 1.390 . S
C3693 C3694 1.387 . S
C3693 H3696 0.950 . S
C3694 C3693 1.387 . S
C3694 C3697 1.387 . S
H3695 C3691 0.950 . S
H3696 C3693 0.950 . S
C3697 C3688 1.390 . S
C3697 H3690 0.950 . S
C3697 C3694 1.387 . S
C3698 C3699 1.387 . S
C3698 H3702 0.950 . S
C3698 C3707 1.390 . S
C3699 C3698 1.387 . S
C3699 C3701 1.387 . S
H3700 C3707 0.950 . S
C3701 C3699 1.387 . S
C3701 C3703 1.390 . S
C3701 H3705 0.950 . S
H3702 C3698 0.950 . S
C3703 C3701 1.390 . S
C3703 C3704 1.387 . S
C3703 H3706 0.950 . S
C3704 C3703 1.387 . S
C3704 C3707 1.387 . S
H3705 C3701 0.950 . S
H3706 C3703 0.950 . S
C3707 C3698 1.390 . S
C3707 H3700 0.950 . S
C3707 C3704 1.387 . S
C3708 C3709 1.387 . S
C3708 H3712 0.950 . S
C3708 C3717 1.390 . S
C3709 C3708 1.387 . S
C3709 C3711 1.387 . S
H3710 C3717 0.950 . S
C3711 C3709 1.387 . S
C3711 C3713 1.390 . S
C3711 H3715 0.950 . S
H3712 C3708 0.950 . S
C3713 C3711 1.390 . S
C3713 C3714 1.387 . S
C3713 H3716 0.950 . S
C3714 C3713 1.387 . S
C3714 C3717 1.387 . S
H3715 C3711 0.950 . S
H3716 C3713 0.950 . S
C3717 C3708 1.390 . S
C3717 H3710 0.950 . S
C3717 C3714 1.387 . S
C3718 C3719 1.387 . S
C3718 H3722 0.950 . S
C3718 C3727 1.390 . S
C3719 C3718 1.387 . S
C3719 C3721 1.387 . S
H3720 C3727 0.950 . S
C3721 C3719 1.387 . S
C3721 C3723 1.390 . S
C3721 H3725 0.950 . S
H3722 C3718 0.950 . S
C3723 C3721 1.390 . S
C3723 C3724 1.387 . S
C3723 H3726 0.950 . S
C3724 C3723 1.387 . S
C3724 C3727 1.387 . S
H3725 C3721 0.950 . S
H3726 C3723 0.950 . S
C3727 C3718 1.390 . S
C3727 H3720 0.950 . S
C3727 C3724 1.387 . S
C3728 C3729 1.387 . S
C3728 H3732 0.950 . S
C3728 C3737 1.390 . S
C3729 C3728 1.387 . S
C3729 C3731 1.387 . S
H3730 C3737 0.950 . S
C3731 C3729 1.387 . S
C3731 C3733 1.390 . S
C3731 H3735 0.950 . S
H3732 C3728 0.950 . S
C3733 C3731 1.390 . S
C3733 C3734 1.387 . S
C3733 H3736 0.950 . S
C3734 C3733 1.387 . S
C3734 C3737 1.387 . S
H3735 C3731 0.950 . S
H3736 C3733 0.950 . S
C3737 C3728 1.390 . S
C3737 H3730 0.950 . S
C3737 C3734 1.387 . S
C3738 C3739 1.387 . S
C3738 H3742 0.950 . S
C3738 C3747 1.390 . S
C3739 C3738 1.387 . S
C3739 C3741 1.387 . S
H3740 C3747 0.950 . S
C3741 C3739 1.387 . S
C3741 C3743 1.390 . S
C3741 H3745 0.950 . S
H3742 C3738 0.950 . S
C3743 C3741 1.390 . S
C3743 C3744 1.387 . S
C3743 H3746 0.950 . S
C3744 C3743 1.387 . S
C3744 C3747 1.387 . S
H3745 C3741 0.950 . S
H3746 C3743 0.950 . S
C3747 C3738 1.390 . S
C3747 H3740 0.950 . S
C3747 C3744 1.387 . S
C3748 C3749 1.387 . S
C3748 H3752 0.950 . S
C3748 C3757 1.390 . S
C3749 C3748 1.387 . S
C3749 C3751 1.387 . S
H3750 C3757 0.950 . S
C3751 C3749 1.387 . S
C3751 C3753 1.390 . S
C3751 H3755 0.950 . S
H3752 C3748 0.950 . S
C3753 C3751 1.390 . S
C3753 C3754 1.387 . S
C3753 H3756 0.950 . S
C3754 C3753 1.387 . S
C3754 C3757 1.387 . S
H3755 C3751 0.950 . S
H3756 C3753 0.950 . S
C3757 C3748 1.390 . S
C3757 H3750 0.950 . S
C3757 C3754 1.387 . S
C3758 C3759 1.387 . S
C3758 H3762 0.950 . S
C3758 C3767 1.390 . S
C3759 C3758 1.387 . S
C3759 C3761 1.387 . S
H3760 C3767 0.950 . S
C3761 C3759 1.387 . S
C3761 C3763 1.390 . S
C3761 H3765 0.950 . S
H3762 C3758 0.950 . S
C3763 C3761 1.390 . S
C3763 C3764 1.387 . S
C3763 H3766 0.950 . S
C3764 C3763 1.387 . S
C3764 C3767 1.387 . S
H3765 C3761 0.950 . S
H3766 C3763 0.950 . S
C3767 C3758 1.390 . S
C3767 H3760 0.950 . S
C3767 C3764 1.387 . S
C3768 C3769 1.387 . S
C3768 H3772 0.950 . S
C3768 C3777 1.390 . S
C3769 C3768 1.387 . S
C3769 C3771 1.387 . S
H3770 C3777 0.950 . S
C3771 C3769 1.387 . S
C3771 C3773 1.390 . S
C3771 H3775 0.950 . S
H3772 C3768 0.950 . S
C3773 C3771 1.390 . S
C3773 C3774 1.387 . S
C3773 H3776 0.950 . S
C3774 C3773 1.387 . S
C3774 C3777 1.387 . S
H3775 C3771 0.950 . S
H3776 C3773 0.950 . S
C3777 C3768 1.390 . S
C3777 H3770 0.950 . S
C3777 C3774 1.387 . S
C3778 C3779 1.387 . S
C3778 H3782 0.950 . S
C3778 C3787 1.390 . S
C3779 C3778 1.387 . S
C3779 C3781 1.387 . S
H3780 C3787 0.950 . S
C3781 C3779 1.387 . S
C3781 C3783 1.390 . S
C3781 H3785 0.950 . S
H3782 C3778 0.950 . S
C3783 C3781 1.390 . S
C3783 C3784 1.387 . S
C3783 H3786 0.950 . S
C3784 C3783 1.387 . S
C3784 C3787 1.387 . S
H3785 C3781 0.950 . S
H3786 C3783 0.950 . S
C3787 C3778 1.390 . S
C3787 H3780 0.950 . S
C3787 C3784 1.387 . S
C3788 C3789 1.387 . S
C3788 H3792 0.950 . S
C3788 C3797 1.390 . S
C3789 C3788 1.387 . S
C3789 C3791 1.387 . S
H3790 C3797 0.950 . S
C3791 C3789 1.387 . S
C3791 C3793 1.390 . S
C3791 H3795 0.950 . S
H3792 C3788 0.950 . S
C3793 C3791 1.390 . S
C3793 C3794 1.387 . S
C3793 H3796 0.950 . S
C3794 C3793 1.387 . S
C3794 C3797 1.387 . S
H3795 C3791 0.950 . S
H3796 C3793 0.950 . S
C3797 C3788 1.390 . S
C3797 H3790 0.950 . S
C3797 C3794 1.387 . S
C3798 C3799 1.387 . S
C3798 H3802 0.950 . S
C3798 C3807 1.390 . S
C3799 C3798 1.387 . S
C3799 C3801 1.387 . S
H3800 C3807 0.950 . S
C3801 C3799 1.387 . S
C3801 C3803 1.390 . S
C3801 H3805 0.950 . S
H3802 C3798 0.950 . S
C3803 C3801 1.390 . S
C3803 C3804 1.387 . S
C3803 H3806 0.950 . S
C3804 C3803 1.387 . S
C3804 C3807 1.387 . S
H3805 C3801 0.950 . S
H3806 C3803 0.950 . S
C3807 C3798 1.390 . S
C3807 H3800 0.950 . S
C3807 C3804 1.387 . S
C3808 C3809 1.387 . S
C3808 H3812 0.950 . S
C3808 C3817 1.390 . S
C3809 C3808 1.387 . S
C3809 C3811 1.387 . S
H3810 C3817 0.950 . S
C3811 C3809 1.387 . S
C3811 C3813 1.390 . S
C3811 H3815 0.950 . S
H3812 C3808 0.950 . S
C3813 C3811 1.390 . S
C3813 C3814 1.387 . S
C3813 H3816 0.950 . S
C3814 C3813 1.387 . S
C3814 C3817 1.387 . S
H3815 C3811 0.950 . S
H3816 C3813 0.950 . S
C3817 C3808 1.390 . S
C3817 H3810 0.950 . S
C3817 C3814 1.387 . S
C3818 C3819 1.387 . S
C3818 H3822 0.950 . S
C3818 C3827 1.390 . S
C3819 C3818 1.387 . S
C3819 C3821 1.387 . S
H3820 C3827 0.950 . S
C3821 C3819 1.387 . S
C3821 C3823 1.390 . S
C3821 H3825 0.950 . S
H3822 C3818 0.950 . S
C3823 C3821 1.390 . S
C3823 C3824 1.387 . S
C3823 H3826 0.950 . S
C3824 C3823 1.387 . S
C3824 C3827 1.387 . S
H3825 C3821 0.950 . S
H3826 C3823 0.950 . S
C3827 C3818 1.390 . S
C3827 H3820 0.950 . S
C3827 C3824 1.387 . S
C3828 C3829 1.387 . S
C3828 H3832 0.950 . S
C3828 C3837 1.390 . S
C3829 C3828 1.387 . S
C3829 C3831 1.387 . S
H3830 C3837 0.950 . S
C3831 C3829 1.387 . S
C3831 C3833 1.390 . S
C3831 H3835 0.950 . S
H3832 C3828 0.950 . S
C3833 C3831 1.390 . S
C3833 C3834 1.387 . S
C3833 H3836 0.950 . S
C3834 C3833 1.387 . S
C3834 C3837 1.387 . S
H3835 C3831 0.950 . S
H3836 C3833 0.950 . S
C3837 C3828 1.390 . S
C3837 H3830 0.950 . S
C3837 C3834 1.387 . S
C3838 C3839 1.387 . S
C3838 H3842 0.950 . S
C3838 C3847 1.390 . S
C3839 C3838 1.387 . S
C3839 C3841 1.387 . S
H3840 C3847 0.950 . S
C3841 C3839 1.387 . S
C3841 C3843 1.390 . S
C3841 H3845 0.950 . S
H3842 C3838 0.950 . S
C3843 C3841 1.390 . S
C3843 C3844 1.387 . S
C3843 H3846 0.950 . S
C3844 C3843 1.387 . S
C3844 C3847 1.387 . S
H3845 C3841 0.950 . S
H3846 C3843 0.950 . S
C3847 C3838 1.390 . S
C3847 H3840 0.950 . S
C3847 C3844 1.387 . S
C3848 C3849 1.387 . S
C3848 H3852 0.950 . S
C3848 C3857 1.390 . S
C3849 C3848 1.387 . S
C3849 C3851 1.387 . S
H3850 C3857 0.950 . S
C3851 C3849 1.387 . S
C3851 C3853 1.390 . S
C3851 H3855 0.950 . S
H3852 C3848 0.950 . S
C3853 C3851 1.390 . S
C3853 C3854 1.387 . S
C3853 H3856 0.950 . S
C3854 C3853 1.387 . S
C3854 C3857 1.387 . S
H3855 C3851 0.950 . S
H3856 C3853 0.950 . S
C3857 C3848 1.390 . S
C3857 H3850 0.950 . S
C3857 C3854 1.387 . S
C3858 C3859 1.387 . S
C3858 H3862 0.950 . S
C3858 C3867 1.390 . S
C3859 C3858 1.387 . S
C3859 C3861 1.387 . S
H3860 C3867 0.950 . S
C3861 C3859 1.387 . S
C3861 C3863 1.390 . S
C3861 H3865 0.950 . S
H3862 C3858 0.950 . S
C3863 C3861 1.390 . S
C3863 C3864 1.387 . S
C3863 H3866 0.950 . S
C3864 C3863 1.387 . S
C3864 C3867 1.387 . S
H3865 C3861 0.950 . S
H3866 C3863 0.950 . S
C3867 C3858 1.390 . S
C3867 H3860 0.950 . S
C3867 C3864 1.387 . S
C3868 C3869 1.387 . S
C3868 H3872 0.950 . S
C3868 C3877 1.390 . S
C3869 C3868 1.387 . S
C3869 C3871 1.387 . S
H3870 C3877 0.950 . S
C3871 C3869 1.387 . S
C3871 C3873 1.390 . S
C3871 H3875 0.950 . S
H3872 C3868 0.950 . S
C3873 C3871 1.390 . S
C3873 C3874 1.387 . S
C3873 H3876 0.950 . S
C3874 C3873 1.387 . S
C3874 C3877 1.387 . S
H3875 C3871 0.950 . S
H3876 C3873 0.950 . S
C3877 C3868 1.390 . S
C3877 H3870 0.950 . S
C3877 C3874 1.387 . S
C3878 C3879 1.387 . S
C3878 H3882 0.950 . S
C3878 C3887 1.390 . S
C3879 C3878 1.387 . S
C3879 C3881 1.387 . S
H3880 C3887 0.950 . S
C3881 C3879 1.387 . S
C3881 C3883 1.390 . S
C3881 H3885 0.950 . S
H3882 C3878 0.950 . S
C3883 C3881 1.390 . S
C3883 C3884 1.387 . S
C3883 H3886 0.950 . S
C3884 C3883 1.387 . S
C3884 C3887 1.387 . S
H3885 C3881 0.950 . S
H3886 C3883 0.950 . S
C3887 C3878 1.390 . S
C3887 H3880 0.950 . S
C3887 C3884 1.387 . S
C2449 C1781 1.500 . S
C2454 C1925 1.458 . S
C2459 C981 1.291 . S
C2464 C1936 1.291 . S
C2474 C1947 1.542 . S
C2469 C1861 1.569 . S
C2479 C1061 1.807 . S
C2484 C1958 1.919 . S
C2489 C1901 1.891 . S
C2494 C1969 1.817 . S
C2499 C941 1.579 . S
C2504 C1980 1.537 . S
C2509 C1821 1.275 . S
C2514 C1991 1.261 . S
C2519 C1021 1.572 . S
C2524 C2002 1.539 . S
C2529 C661 1.838 . S
C2534 C2013 1.778 . S
C2539 C1621 1.754 . S
C2544 C2024 1.726 . S
C2549 C741 1.686 . S
C2554 C2035 1.746 . S
C2559 C1581 1.650 . S
C2564 C2046 1.676 . S
C2569 C901 1.937 . S
C2574 C2057 2.015 . S
C2584 C2068 1.790 . S
C2579 C1661 1.692 . S
C2594 C2079 2.029 . S
C2589 C821 1.838 . S
C2599 C1141 1.533 . S
C2604 C2090 1.589 . S
C2614 C2101 1.591 . S
C2609 C781 1.541 . S
C2624 C2112 1.787 . S
C2619 C1701 1.621 . S
C2629 C861 1.657 . S
C2634 C2123 1.736 . S
C2639 C1181 1.879 . S
C2644 C2134 1.989 . S
C2654 C2145 1.779 . S
C2649 C1101 1.834 . S
C2659 C1421 1.497 . S
C2664 C2156 1.465 . S
C2674 C2167 1.821 . S
C2669 C381 1.871 . S
C2684 C2178 1.587 . S
C2679 C1501 1.632 . S
C2694 C2189 1.434 . S
C2689 C461 1.386 . S
C2704 C2200 1.695 . S
C2699 C1541 1.606 . S
C2709 C341 1.467 . S
C2714 C2211 1.449 . S
C2724 C2222 1.902 . S
C2719 C1461 1.952 . S
C2729 C421 1.609 . S
C2734 C2233 1.556 . S
C2744 C2244 1.779 . S
C2739 C61 1.749 . S
C2754 C2255 1.529 . S
C2749 C1261 1.553 . S
C2759 C141 1.829 . S
C2764 C2266 1.783 . S
C2774 C2277 1.694 . S
C2769 C1221 1.676 . S
C2784 C2288 1.910 . S
C2779 C301 1.732 . S
C2789 C1301 1.634 . S
C2794 C2299 1.625 . S
C2804 C2310 2.075 . S
C2799 C221 1.969 . S
C2814 C2321 1.449 . S
C2809 C541 1.516 . S
C2819 C181 1.606 . S
C2824 C2332 1.597 . S
C2834 C2343 2.024 . S
C2829 C1341 1.917 . S
C2839 C261 1.738 . S
C2844 C2354 1.704 . S
C2854 C2365 1.829 . S
C2849 C581 1.864 . S
C2859 C501 1.722 . S
C2864 C2376 1.744 . S
C2869 C701 1.704 . S
C2874 C2387 1.674 . S
C2884 C2398 1.712 . S
C2879 C621 1.682 . S
C2889 C1741 2.040 . S
C2894 C2409 2.111 . S
C2899 C101 1.505 . S
C2904 C2420 1.505 . S
C2914 C2431 1.777 . S
C2909 C21 1.732 . S
C2924 C2442 2.013 . S
C2919 C1381 1.821 . S
C2929 C1335 1.911 . S
C2934 C1930 1.998 . S
C2939 C535 1.476 . S
C2944 C1941 1.471 . S
C2949 C1362 1.890 . S
C2954 C1946 2.049 . S
C2964 C1957 1.730 . S
C2959 C1295 1.684 . S
C2969 C575 1.735 . S
C2974 C1974 1.745 . S
C2979 C1215 1.691 . S
C2984 C1979 1.672 . S
C2994 C1990 1.558 . S
C2989 C495 1.568 . S
C2999 C1242 1.530 . S
C3004 C2007 1.514 . S
C3009 C1255 1.675 . S
C3014 C2018 1.643 . S
C3024 C2029 1.625 . S
C3019 C562 1.686 . S
C3029 C1202 1.740 . S
C3034 C2034 1.804 . S
C3044 C2051 1.556 . S
C3039 C482 1.526 . S
C3049 C522 1.569 . S
C3054 C2062 1.540 . S
C3059 C1375 2.050 . S
C3064 C2067 2.121 . S
C3074 C2084 1.760 . S
C3069 C1282 1.786 . S
C3084 C2089 2.269 . S
C3079 C1322 2.235 . S
C3089 C455 1.621 . S
C3094 C2045 1.640 . S
C3099 C1415 1.815 . S
C3104 C2106 1.798 . S
C3109 C1455 1.857 . S
C3114 C2111 1.999 . S
C3124 C2128 1.826 . S
C3119 C1482 1.932 . S
C3134 C2056 1.555 . S
C3129 C442 1.541 . S
C3139 C362 2.061 . S
C3144 C2023 2.046 . S
C3149 C1495 1.722 . S
C3154 C2139 1.752 . S
C3164 C2144 1.600 . S
C3159 C1402 1.621 . S
C3174 C2155 1.721 . S
C3169 C1695 1.687 . S
C3179 C1135 1.547 . S
C3184 C2166 1.576 . S
C3194 C2183 1.932 . S
C3189 C1722 1.914 . S
C3204 C2194 1.757 . S
C3199 C1655 1.702 . S
C3209 C1175 1.842 . S
C3214 C2205 1.921 . S
C3219 C1562 1.634 . S
C3224 C2216 1.658 . S
C3229 C1095 1.634 . S
C3234 C2227 1.613 . S
C3244 C2232 1.905 . S
C3239 C1615 1.940 . S
C3254 C2249 2.035 . S
C3249 C1602 2.020 . S
C3259 C1162 1.743 . S
C3264 C2254 1.821 . S
C3274 C2265 1.633 . S
C3269 C1575 1.599 . S
C3279 C1082 1.740 . S
C3284 C2282 1.725 . S
C3294 C2293 1.635 . S
C3289 C1122 1.585 . S
C3299 C1735 2.121 . S
C3304 C2298 2.174 . S
C3314 C2315 1.706 . S
C3309 C1642 1.598 . S
C3319 C1682 1.810 . S
C3324 C2320 1.869 . S
C3329 C1042 2.067 . S
C3334 C2276 2.158 . S
C3339 C1775 1.861 . S
C3344 C2337 1.796 . S
C3349 C1815 1.377 . S
C3354 C2342 1.364 . S
C3364 C2359 1.700 . S
C3359 C1842 1.720 . S
C3369 C1055 1.849 . S
C3374 C2287 1.968 . S
C3379 C975 1.491 . S
C3384 C2260 1.525 . S
C3394 C2370 1.592 . S
C3389 C1855 1.613 . S
C3399 C1762 1.567 . S
C3404 C2375 1.573 . S
C3414 C1985 1.996 . S
C3409 C215 1.892 . S
C3424 C1996 1.628 . S
C3419 C255 1.603 . S
C3434 C2001 1.996 . S
C3429 C282 1.871 . S
C3444 C1968 1.639 . S
C3439 C175 1.607 . S
C3454 C1963 1.679 . S
C3449 C135 1.679 . S
C3459 C15 1.788 . S
C3464 C1924 1.756 . S
C3469 C55 1.596 . S
C3474 C1935 1.572 . S
C3479 C82 1.512 . S
C3484 C1952 1.521 . S
C3489 C95 1.645 . S
C3494 C2150 1.610 . S
C3499 C122 1.677 . S
C3504 C2392 1.602 . S
C3509 C2 1.786 . S
C3514 C2133 1.879 . S
C3519 C42 1.519 . S
C3524 C2403 1.567 . S
C3529 C242 1.663 . S
C3534 C2414 1.643 . S
C3544 C2100 2.096 . S
C3539 C295 2.042 . S
C3549 C162 1.687 . S
C3554 C2117 1.643 . S
C3559 C202 2.346 . S
C3564 C2122 2.390 . S
C3574 C2397 2.102 . S
C3569 C1535 2.042 . S
C3579 C335 1.860 . S
C3584 C2073 1.829 . S
C3589 C375 1.957 . S
C3594 C2078 2.086 . S
C3599 C402 1.863 . S
C3604 C2095 1.766 . S
C3614 C2408 2.034 . S
C3609 C1522 1.863 . S
C3624 C2386 2.091 . S
C3619 C1442 2.121 . S
C3634 C2040 1.690 . S
C3629 C415 1.666 . S
C3639 C322 1.630 . S
C3644 C2012 1.623 . S
C3649 C815 1.726 . S
C3654 C2210 1.808 . S
C3659 C855 1.643 . S
C3664 C2221 1.688 . S
C3669 C882 1.972 . S
C3674 C2238 2.002 . S
C3679 C775 1.589 . S
C3684 C2199 1.619 . S
C3694 C2188 1.891 . S
C3689 C735 1.842 . S
C3704 C2161 1.681 . S
C3699 C602 1.673 . S
C3714 C2172 1.572 . S
C3709 C655 1.604 . S
C3719 C695 1.921 . S
C3724 C2177 1.905 . S
C3734 C2381 2.025 . S
C3729 C682 2.006 . S
C3739 C722 1.509 . S
C3744 C2419 1.553 . S
C3749 C615 1.703 . S
C3754 C2364 1.729 . S
C3764 C2436 1.641 . S
C3759 C642 1.648 . S
C3769 C842 1.591 . S
C3774 C2447 1.668 . S
C3784 C2331 2.248 . S
C3779 C895 2.190 . S
C3789 C762 1.530 . S
C3794 C2348 1.597 . S
C3799 C802 1.939 . S
C3804 C2353 2.045 . S
C3809 C1895 2.058 . S
C3814 C2430 2.069 . S
C3824 C2304 1.853 . S
C3819 C935 1.923 . S
C3829 C962 1.467 . S
C3834 C2309 1.474 . S
C3839 C1002 1.748 . S
C3844 C2326 1.736 . S
C3849 C1882 2.001 . S
C3854 C2441 2.031 . S
C3859 C1802 1.373 . S
C3864 C2425 1.387 . S
C3874 C2271 1.612 . S
C3869 C1015 1.625 . S
C3884 C2243 1.654 . S
C3879 C922 1.645 . S
