# Generated by pormake.
# Topology anh, (6,3)-cn, num edge types: 1
# Building blocks:
#     Node 0, Type 0, BuildingBlock: PAMTUU_clean_sbu_0, # of connection points: 6
#     Node 1, Type 0, BuildingBlock: PAMTUU_clean_sbu_0, # of connection points: 6
#     Node 2, Type 0, BuildingBlock: PAMTUU_clean_sbu_0, # of connection points: 6
#     Node 3, Type 1, BuildingBlock: CUQRIR_clean_linker_1, # of connection points: 3
#     Node 4, Type 1, BuildingBlock: CUQRIR_clean_linker_1, # of connection points: 3
#     Node 5, Type 1, BuildingBlock: CUQRIR_clean_linker_1, # of connection points: 3
#     Node 6, Type 1, BuildingBlock: CUQRIR_clean_linker_1, # of connection points: 3
#     Node 7, Type 1, BuildingBlock: CUQRIR_clean_linker_1, # of connection points: 3
#     Node 8, Type 1, BuildingBlock: CUQRIR_clean_linker_1, # of connection points: 3
#     Edge 9, Type (0, 1), BuildingBlock: ZUJKAS_clean_linker_0, # of connection points: 2
#     Edge 10, Type (0, 1), BuildingBlock: ZUJKAS_clean_linker_0, # of connection points: 2
#     Edge 11, Type (0, 1), BuildingBlock: ZUJKAS_clean_linker_0, # of connection points: 2
#     Edge 12, Type (0, 1), BuildingBlock: ZUJKAS_clean_linker_0, # of connection points: 2
#     Edge 13, Type (0, 1), BuildingBlock: ZUJKAS_clean_linker_0, # of connection points: 2
#     Edge 14, Type (0, 1), BuildingBlock: ZUJKAS_clean_linker_0, # of connection points: 2
#     Edge 15, Type (0, 1), BuildingBlock: ZUJKAS_clean_linker_0, # of connection points: 2
#     Edge 16, Type (0, 1), BuildingBlock: ZUJKAS_clean_linker_0, # of connection points: 2
#     Edge 17, Type (0, 1), BuildingBlock: ZUJKAS_clean_linker_0, # of connection points: 2
#     Edge 18, Type (0, 1), BuildingBlock: ZUJKAS_clean_linker_0, # of connection points: 2
#     Edge 19, Type (0, 1), BuildingBlock: ZUJKAS_clean_linker_0, # of connection points: 2
#     Edge 20, Type (0, 1), BuildingBlock: ZUJKAS_clean_linker_0, # of connection points: 2
#     Edge 21, Type (0, 1), BuildingBlock: ZUJKAS_clean_linker_0, # of connection points: 2
#     Edge 22, Type (0, 1), BuildingBlock: ZUJKAS_clean_linker_0, # of connection points: 2
#     Edge 23, Type (0, 1), BuildingBlock: ZUJKAS_clean_linker_0, # of connection points: 2
#     Edge 24, Type (0, 1), BuildingBlock: ZUJKAS_clean_linker_0, # of connection points: 2
#     Edge 25, Type (0, 1), BuildingBlock: ZUJKAS_clean_linker_0, # of connection points: 2
#     Edge 26, Type (0, 1), BuildingBlock: ZUJKAS_clean_linker_0, # of connection points: 2
# Relax obj value: 0.238
# Max RMSD: 0.212
# Mean RMSD: 0.163
data_MOF--net-anh--node1-PAMTUU_clean_sbu_0--node2-CUQRIR_clean_linker_1--edge1-ZUJKAS_clean_linker_0
_symmetry_space_group_name_H-M    P1
_symmetry_Int_Tables_number       1
_symmetry_cell_setting            triclinic
loop_
_symmetry_equiv_pos_as_xyz
'x, y, z'
_cell_length_a     37.732254
_cell_length_b     37.758503
_cell_length_c     61.971498
_cell_angle_alpha  89.731449
_cell_angle_beta   90.326115
_cell_angle_gamma 119.97503
loop_
_atom_site_label
_atom_site_type_symbol
_atom_site_fract_x
_atom_site_fract_y
_atom_site_fract_z
_atom_type_partial_charge
Tb0 Tb 0.11662 0.60485 0.15691 0.0
Tb1 Tb 0.16218 0.55912 0.17559 0.0
C2 C 0.15571 0.57023 0.12599 0.0
C3 C 1.03411 0.62012 0.13638 0.0
C4 C 0.95269 0.57907 0.12182 0.0
C5 C 0.98103 0.61726 0.11304 0.0
C6 C 1.02157 0.63755 0.12023 0.0
C7 C 1.00547 0.58303 0.14594 0.0
C8 C 0.96503 0.56263 0.1387 0.0
C9 C 1.07776 0.63645 0.1403 0.0
O10 O 1.06728 0.53862 0.15646 0.0
O11 O 0.09646 0.51193 0.17888 0.0
O12 O 0.15711 0.5937 0.20216 0.0
O13 O 0.09901 0.59179 0.19046 0.0
O14 O 0.20758 0.54281 0.17306 0.0
O15 O 0.16414 0.52035 0.19934 0.0
O16 O 0.21361 0.62346 0.17263 0.0
O17 O 0.17823 0.65742 0.16575 0.0
O18 O 0.15372 0.60264 0.13103 0.0
O19 O 0.15177 0.54395 0.14104 0.0
C20 C 1.06382 0.50784 0.16857 0.0
O21 O 0.08999 0.64201 0.16038 0.0
O22 O 0.0929 0.61779 0.12938 0.0
C23 C 0.12419 0.59588 0.20608 0.0
C24 C 0.23037 0.53229 0.20708 0.0
C25 C 0.29501 0.54109 0.23368 0.0
C26 C 0.25472 0.50963 0.23755 0.0
C27 C 0.22275 0.50514 0.22426 0.0
C28 C 0.26984 0.56595 0.20441 0.0
C29 C 0.30191 0.57026 0.21757 0.0
C30 C 0.1974 0.52325 0.19145 0.0
C31 C 0.21326 0.65827 0.17009 0.0
H32 H 0.97235 0.63051 0.09994 0.0
H33 H 1.04354 0.66582 0.11245 0.0
H34 H 1.01478 0.56896 0.15831 0.0
H35 H 0.94364 0.53356 0.14598 0.0
H36 H 0.24833 0.48702 0.25001 0.0
H37 H 0.19235 0.47929 0.22678 0.0
H38 H 0.27643 0.58777 0.19148 0.0
H39 H 0.33256 0.59467 0.21397 0.0
Tb40 Tb 0.60975 1.04434 0.49164 0.0
Tb41 Tb 0.70485 0.09419 0.5033 0.0
C42 C 0.67374 0.08003 0.45578 0.0
C43 C 0.49615 1.0023 0.48642 0.0
C44 C 0.41978 0.99509 0.49556 0.0
C45 C 0.42293 0.96028 0.49112 0.0
C46 C 0.46069 0.9639 0.48661 0.0
C47 C 0.49356 1.03734 0.49104 0.0
C48 C 0.45548 1.03376 0.49546 0.0
C49 C 0.53505 1.00423 0.48143 0.0
O50 O 0.62338 0.99558 0.50227 0.0
O51 O 0.69323 1.0302 0.49951 0.0
O52 O 0.67345 0.06697 0.53364 0.0
O53 O 0.61214 0.06174 0.52479 0.0
O54 O 0.76501 0.11533 0.49254 0.0
O55 O 0.75328 0.1288 0.52463 0.0
O56 O 0.687 0.14166 0.50769 0.0
O57 O 0.6229 0.10955 0.49234 0.0
O58 O 0.6432 1.04587 0.46291 0.0
O59 O 0.69682 0.10822 0.46977 0.0
C60 C 0.65838 0.99522 0.50223 0.0
O61 O 0.56225 1.03589 0.47063 0.0
O62 O 0.5514 0.99408 0.49709 0.0
C63 C 0.63762 0.06188 0.5392 0.0
C64 C 0.80782 0.18206 0.50544 0.0
C65 C 0.85531 0.26503 0.49332 0.0
C66 C 0.8686 0.2371 0.48857 0.0
C67 C 0.845 0.19593 0.49459 0.0
C68 C 0.79501 0.21013 0.51055 0.0
C69 C 0.81843 0.25106 0.50456 0.0
C70 C 0.78066 0.13804 0.50963 0.0
C71 C 0.65428 0.14294 0.50089 0.0
H72 H 0.39597 0.93015 0.49057 0.0
H73 H 0.46215 0.93657 0.48307 0.0
H74 H 0.52078 0.0673 0.49112 0.0
H75 H 0.45394 0.06108 0.49882 0.0
H76 H 0.89704 0.24699 0.48007 0.0
H77 H 0.85532 0.17475 0.49036 0.0
H78 H 0.76631 0.2003 0.51872 0.0
H79 H 0.80685 0.27147 0.50814 0.0
Tb80 Tb 0.62371 0.53912 0.8309 0.0
Tb81 Tb 0.67118 0.6365 0.83671 0.0
C82 C 0.64966 0.59707 0.79092 0.0
C83 C 0.55208 0.42512 0.83241 0.0
C84 C 0.48393 0.35051 0.84505 0.0
C85 C 0.51905 0.35174 0.83656 0.0
C86 C 0.5527 0.38863 0.83037 0.0
C87 C 0.51747 0.42457 0.84106 0.0
C88 C 0.48341 0.38734 0.84725 0.0
C89 C 0.58826 0.4629 0.82535 0.0
O90 O 0.68714 0.55409 0.83992 0.0
O91 O 0.7223 0.623 0.83336 0.0
O92 O 0.66872 0.61055 0.86862 0.0
O93 O 0.61115 0.54876 0.86351 0.0
O94 O 0.71183 0.69465 0.82393 0.0
O95 O 0.68636 0.68784 0.85579 0.0
O96 O 0.60611 0.62106 0.83995 0.0
O97 O 0.57172 0.55191 0.83294 0.0
O98 O 0.65007 0.56565 0.79964 0.0
O99 O 0.64872 0.62455 0.80336 0.0
C100 C 0.72247 0.5886 0.83766 0.0
O101 O 0.58234 0.48765 0.81305 0.0
O102 O 0.61617 0.48229 0.84004 0.0
C103 C 0.63712 0.57748 0.87634 0.0
C104 C 0.69325 0.74278 0.83466 0.0
C105 C 0.66736 0.79837 0.82276 0.0
C106 C 0.70866 0.80917 0.82069 0.0
C107 C 0.72152 0.78156 0.82667 0.0
C108 C 0.65197 0.7319 0.83659 0.0
C109 C 0.6392 0.75946 0.83078 0.0
C110 C 0.70643 0.7132 0.84019 0.0
C111 C 0.5712 0.58609 0.83752 0.0
H112 H 0.52019 0.32396 0.83405 0.0
H113 H 0.57917 0.38857 0.8237 0.0
H114 H 0.5167 0.45271 0.84285 0.0
H115 H 0.45677 0.38732 0.85367 0.0
H116 H 0.731 0.83902 0.81461 0.0
H117 H 0.75345 0.79036 0.82494 0.0
H118 H 0.62945 0.70197 0.84247 0.0
H119 H 0.60706 0.75 0.83219 0.0
C120 C 0.63907 0.08575 0.19309 0.0
N121 N 0.66923 0.1138 0.2068 0.0
N122 N 0.60792 0.05291 0.20403 0.0
C123 C 0.63845 0.09161 0.1692 0.0
C124 C 0.62103 0.06201 0.22481 0.0
N125 N 0.65686 0.09811 0.22655 0.0
C126 C 0.59953 1.03442 0.24378 0.0
H127 H 0.65357 0.12461 0.16509 0.0
H128 H 0.60658 0.07579 0.16297 0.0
H129 H 0.65533 0.07827 0.16122 0.0
H130 H 0.58167 1.00194 0.23878 0.0
H131 H 0.57849 1.04357 0.25104 0.0
H132 H 0.62157 1.03705 0.25645 0.0
C133 C 0.65529 0.56939 0.52627 0.0
N134 N 0.65613 0.59821 0.54049 0.0
N135 N 0.65554 0.53697 0.5367 0.0
C136 C 0.65726 0.57401 0.50221 0.0
C137 C 0.6562 0.54716 0.55772 0.0
N138 N 0.65695 0.58342 0.56008 0.0
C139 C 0.65438 0.52041 0.57634 0.0
H140 H 0.62581 0.56191 0.49578 0.0
H141 H 0.6704 0.55638 0.49488 0.0
H142 H 0.67588 0.60669 0.49759 0.0
H143 H 0.68602 0.5298 0.5816 0.0
H144 H 0.63887 0.48775 0.57158 0.0
H145 H 0.63788 0.52367 0.59026 0.0
C146 C 0.14772 0.58644 0.8623 0.0
N147 N 0.17537 0.5844 0.87647 0.0
N148 N 0.11424 0.58413 0.87268 0.0
C149 C 0.15352 0.59168 0.83836 0.0
C150 C 0.12291 0.58111 0.89363 0.0
N151 N 0.15897 0.58133 0.89601 0.0
C152 C 0.09573 0.57809 0.91214 0.0
H153 H 0.18649 0.61005 0.83433 0.0
H154 H 0.13704 0.60669 0.83159 0.0
H155 H 0.14073 0.56113 0.83078 0.0
H156 H 1.07737 0.59276 0.90806 0.0
H157 H 0.11382 0.5926 0.92693 0.0
H158 H 1.07445 0.54533 0.91573 0.0
C159 C 1.02626 0.70838 0.44579 0.0
N160 N 1.02071 0.68184 0.42976 0.0
N161 N 1.05003 0.74757 0.43907 0.0
C162 C 1.01283 0.69599 0.46874 0.0
C163 C 1.05881 0.74372 0.41833 0.0
N164 N 1.04129 0.70387 0.41275 0.0
C165 C 0.08828 0.77885 0.4044 0.0
H166 H 0.97988 0.67261 0.46915 0.0
H167 H 1.01791 0.7225 0.47868 0.0
H168 H 1.03012 0.68206 0.47581 0.0
H169 H 0.11998 0.78934 0.41001 0.0
H170 H 0.08267 0.80488 0.40583 0.0
H171 H 0.0855 0.76997 0.38717 0.0
C172 C 0.42779 1.00809 0.77617 0.0
N173 N 0.45126 1.0019 0.76193 0.0
N174 N 0.41246 1.03026 0.76693 0.0
C175 C 0.42386 0.99694 0.79973 0.0
C176 C 0.42779 1.03749 0.74664 0.0
N177 N 0.45148 1.02049 0.74366 0.0
C178 C 0.41944 0.06108 0.72971 0.0
H179 H 0.39407 0.96865 0.80232 0.0
H180 H 0.42433 1.02147 0.80972 0.0
H181 H 0.44869 0.99139 0.80523 0.0
H182 H 0.44454 0.09338 0.72983 0.0
H183 H 0.39016 0.06032 0.73294 0.0
H184 H 0.4183 1.04835 0.71344 0.0
C185 C 0.54164 0.44128 0.12588 0.0
N186 N 0.55077 0.44532 0.10463 0.0
N187 N 0.51518 0.45458 0.13024 0.0
C188 C 0.56312 0.43007 0.1428 0.0
C189 C 0.50862 0.46705 0.11086 0.0
N190 N 0.5305 0.46169 0.09529 0.0
C191 C 0.48376 0.48775 0.10767 0.0
H192 H 0.54711 0.42338 0.15853 0.0
H193 H 0.59485 0.45585 0.14483 0.0
H194 H 0.56489 0.40294 0.13759 0.0
H195 H 0.5024 0.52028 0.11253 0.0
H196 H 0.45619 0.47331 0.11804 0.0
H197 H 0.47427 0.48622 0.09057 0.0
H198 H 0.30082 0.47283 0.23915 0.0
H199 H 0.36312 0.47029 0.24042 0.0
H200 H 0.43277 0.60102 0.24958 0.0
H201 H 0.36942 0.60384 0.24784 0.0
H202 H 0.45245 0.58419 0.21408 0.0
H203 H 0.45723 0.47419 0.2694 0.0
H204 H 0.40635 0.44891 0.25875 0.0
H205 H 0.42415 0.49506 0.27447 0.0
C206 C 0.32897 0.5009 0.24264 0.0
C207 C 0.3302 0.53871 0.24282 0.0
C208 C 0.36501 0.49936 0.24356 0.0
C209 C 0.40305 0.53551 0.24496 0.0
C210 C 0.40385 0.5727 0.24834 0.0
H211 H 0.57106 0.51406 0.15544 0.0
H212 H 0.55806 0.53941 0.18932 0.0
C213 C 0.36764 0.57433 0.2472 0.0
C214 C 0.4395 0.53509 0.23637 0.0
H215 H 0.4726 0.46666 0.22997 0.0
C216 C 0.45842 0.55972 0.21821 0.0
C217 C 0.44814 0.5037 0.24175 0.0
C218 C 0.43308 0.47941 0.26235 0.0
C219 C 0.48013 0.54971 0.20357 0.0
C220 C 0.48318 0.51442 0.20734 0.0
C221 C 0.46925 0.49315 0.2269 0.0
C222 C 0.49329 0.49535 0.18951 0.0
C223 C 0.49564 0.57416 0.18297 0.0
C224 C 0.46129 0.4618 0.1788 0.0
C225 C 0.46866 0.44759 0.15956 0.0
C226 C 0.5081 0.46664 0.15092 0.0
C227 C 0.54046 0.49906 0.16207 0.0
C228 C 0.53312 0.51337 0.18132 0.0
H229 H 0.48968 0.60014 0.18226 0.0
H230 H 0.5291 0.58653 0.18163 0.0
H231 H 0.48079 0.55412 0.16881 0.0
H232 H 0.43026 0.44787 0.18482 0.0
H233 H 0.44355 0.42255 0.15106 0.0
H234 H 0.86989 0.3336 0.51539 0.0
H235 H 0.90118 0.40356 0.50175 0.0
H236 H 0.92584 0.36474 0.4411 0.0
H237 H 0.893 0.29419 0.45431 0.0
H238 H 0.9782 0.45626 0.48677 0.0
H239 H 0.86187 0.42065 0.42252 0.0
H240 H 0.85501 0.38507 0.44383 0.0
H241 H 0.88745 0.39138 0.4213 0.0
C242 C 0.8818 0.33986 0.49911 0.0
C243 C 0.87849 0.3082 0.48585 0.0
C244 C 0.8999 0.37992 0.49139 0.0
C245 C 0.91512 0.38919 0.47028 0.0
C246 C 0.91351 0.35806 0.45729 0.0
H247 H 1.06398 0.64305 0.42735 0.0
H248 H 1.03928 0.57058 0.435 0.0
C249 C 0.89522 0.31786 0.46497 0.0
C250 C 0.93202 0.43143 0.46195 0.0
H251 H 0.91688 0.48864 0.42408 0.0
C252 C 0.96496 0.46337 0.47299 0.0
C253 C 0.91424 0.44058 0.44416 0.0
C254 C 0.87746 0.40773 0.43234 0.0
C255 C 0.98047 0.50429 0.46686 0.0
C256 C 0.96313 0.51342 0.44887 0.0
C257 C 0.93034 0.48147 0.43773 0.0
C258 C 0.97732 0.5561 0.44207 0.0
C259 C 1.01431 0.53742 0.4802 0.0
C260 C 0.95024 0.57147 0.4425 0.0
C261 C 0.9642 0.61255 0.43771 0.0
C262 C 1.00532 0.63875 0.43241 0.0
C263 C 1.03204 0.6231 0.43121 0.0
C264 C 1.01808 0.58198 0.43583 0.0
H265 H 1.01697 0.52601 0.49634 0.0
H266 H 1.04388 0.54865 0.47175 0.0
H267 H 1.00917 0.56368 0.48245 0.0
H268 H 0.91861 0.55195 0.44715 0.0
H269 H 0.94323 0.62422 0.43859 0.0
H270 H 0.686 0.84435 0.78592 0.0
H271 H 0.65745 0.887 0.77392 0.0
H272 H 0.58701 0.85815 0.83248 0.0
H273 H 0.61587 0.81621 0.84471 0.0
H274 H 0.5732 0.85792 0.76747 0.0
H275 H 0.63958 0.98313 0.82758 0.0
H276 H 0.66035 0.94991 0.82274 0.0
H277 H 0.61599 0.93306 0.8395 0.0
C278 C 0.66508 0.84783 0.7964 0.0
C279 C 0.65308 0.82695 0.81623 0.0
C280 C 0.64867 0.87198 0.78949 0.0
C281 C 0.6205 0.87601 0.80243 0.0
C282 C 0.60923 0.85596 0.82243 0.0
H283 H 0.42652 0.92459 0.77389 0.0
H284 H 0.47044 0.89522 0.7821 0.0
C285 C 0.62542 0.83172 0.82929 0.0
C286 C 0.60037 0.89858 0.79448 0.0
H287 H 0.58139 0.97514 0.80768 0.0
C288 C 0.57537 0.88389 0.77608 0.0
C289 C 0.60364 0.93266 0.80563 0.0
C290 C 0.63165 0.95092 0.82484 0.0
C291 C 0.55209 0.90135 0.76906 0.0
C292 C 0.55358 0.93392 0.78095 0.0
C293 C 0.57997 0.94979 0.79877 0.0
C294 C 0.5271 0.9512 0.77552 0.0
C295 C 0.52588 0.88466 0.7491 0.0
C296 C 0.54454 0.99243 0.76955 0.0
C297 C 0.51953 1.00903 0.765 0.0
C298 C 0.47687 0.98467 0.76648 0.0
C299 C 0.45941 0.94358 0.77261 0.0
C300 C 0.48439 0.92691 0.77712 0.0
H301 H 0.53621 0.86753 0.73882 0.0
H302 H 0.49381 0.86335 0.75395 0.0
H303 H 0.52629 0.90964 0.73937 0.0
H304 H 0.57744 1.0117 0.76842 0.0
H305 H 0.53339 1.04097 0.76056 0.0
H306 H 0.90121 0.60774 0.11144 0.0
H307 H 0.83094 0.56848 0.09804 0.0
H308 H 0.83957 0.45878 0.09822 0.0
H309 H 0.90996 0.49789 0.11175 0.0
H310 H 0.79561 0.51682 0.06074 0.0
H311 H 0.74343 0.43225 0.13883 0.0
H312 H 0.79302 0.47744 0.13611 0.0
H313 H 0.78362 0.42997 0.1246 0.0
C314 C 0.88829 0.57536 0.1084 0.0
C315 C 0.91077 0.55573 0.1129 0.0
C316 C 0.84826 0.55301 0.1007 0.0
C317 C 0.83013 0.51076 0.09732 0.0
C318 C 0.85295 0.49129 0.10101 0.0
H319 H 0.56332 0.38196 0.0978 0.0
H320 H 0.62909 0.38697 0.08842 0.0
C321 C 0.89296 0.51359 0.10884 0.0
C322 C 0.78631 0.48715 0.09166 0.0
H323 H 0.69336 0.42704 0.11486 0.0
C324 C 0.77312 0.49638 0.07231 0.0
C325 C 0.75717 0.46003 0.10666 0.0
C326 C 0.76975 0.44932 0.12778 0.0
C327 C 0.73146 0.48165 0.06833 0.0
C328 C 0.70267 0.45782 0.0843 0.0
C329 C 0.71558 0.4454 0.10266 0.0
C330 C 0.6613 0.45284 0.08476 0.0
C331 C 0.71887 0.49344 0.04759 0.0
C332 C 0.65767 0.48804 0.08552 0.0
C333 C 0.62066 0.48512 0.09105 0.0
C334 C 0.58668 0.44703 0.09587 0.0
C335 C 0.58945 0.41152 0.09405 0.0
C336 C 0.62671 0.4144 0.0886 0.0
H337 H 0.7395 0.49612 0.03419 0.0
H338 H 0.68687 0.47087 0.04304 0.0
H339 H 0.7213 0.52377 0.0496 0.0
H340 H 0.68417 0.51812 0.08336 0.0
H341 H 0.61909 0.51282 0.09281 0.0
H342 H 0.38886 1.04105 0.47823 0.0
H343 H 0.31677 1.02255 0.47681 0.0
H344 H 0.28588 0.91811 0.51757 0.0
H345 H 0.35758 0.9377 0.51997 0.0
H346 H 0.26616 0.95735 0.4571 0.0
H347 H 0.20132 0.94219 0.5377 0.0
H348 H 0.25585 0.97136 0.53317 0.0
H349 H 0.23077 0.91699 0.53827 0.0
C350 C 0.36687 1.01525 0.48768 0.0
C351 C 0.37871 0.99036 0.49889 0.0
C352 C 0.32562 1.00461 0.48681 0.0
C353 C 0.29567 0.96898 0.49714 0.0
C354 C 0.30816 0.94626 0.50985 0.0
H355 H 0.10276 0.75407 0.46997 0.0
H356 H 0.15468 0.81727 0.48702 0.0
C357 C 0.34925 0.95707 0.5109 0.0
C358 C 0.25181 0.95034 0.49103 0.0
H359 H 0.15661 0.88724 0.51145 0.0
C360 C 0.24197 0.94343 0.46898 0.0
C361 C 0.22 0.93232 0.50643 0.0
C362 C 0.22768 0.9416 0.53018 0.0
C363 C 0.20229 0.91521 0.46208 0.0
C364 C 0.17164 0.89358 0.47766 0.0
C365 C 0.18034 0.90358 0.49956 0.0
C366 C 0.13401 0.85542 0.47172 0.0
C367 C 0.19444 0.9057 0.4383 0.0
C368 C 0.10416 0.85577 0.45823 0.0
C369 C 1.07426 0.81948 0.44863 0.0
C370 C 1.07409 0.78271 0.45239 0.0
C371 C 0.10209 0.78204 0.46712 0.0
C372 C 0.13169 0.81809 0.4768 0.0
H373 H 0.22236 0.92367 0.42842 0.0
H374 H 0.18284 0.87267 0.43547 0.0
H375 H 0.17068 0.9127 0.43259 0.0
H376 H 0.10549 0.88434 0.45417 0.0
H377 H 1.05272 0.82039 0.43734 0.0
H378 H 0.40337 0.32418 0.83537 0.0
H379 H 0.34875 0.25295 0.83276 0.0
H380 H 0.42961 0.21473 0.86056 0.0
H381 H 0.48206 0.28519 0.865 0.0
H382 H 0.35442 0.21053 0.80571 0.0
H383 H 0.3302 0.11779 0.87692 0.0
H384 H 0.35251 0.17249 0.87945 0.0
H385 H 0.38453 0.14959 0.87659 0.0
C386 C 0.40856 0.30058 0.84203 0.0
C387 C 0.44745 0.31013 0.84973 0.0
C388 C 0.37732 0.25971 0.84043 0.0
C389 C 0.38478 0.22785 0.84614 0.0
C390 C 0.42208 0.23801 0.85631 0.0
H391 H 0.44455 0.11124 0.76879 0.0
H392 H 0.41759 0.14883 0.78791 0.0
C393 C 0.45274 0.27867 0.85842 0.0
C394 C 0.36013 0.18636 0.83647 0.0
H395 H 0.3515 0.09261 0.84286 0.0
C396 C 0.35193 0.18422 0.81419 0.0
C397 C 0.35454 0.15067 0.84718 0.0
C398 C 0.35549 0.14788 0.87142 0.0
C399 C 0.34622 0.15065 0.80201 0.0
C400 C 0.35006 0.11923 0.81224 0.0
C401 C 0.35052 0.11771 0.83485 0.0
C402 C 0.36374 0.09482 0.79986 0.0
C403 C 0.34034 0.15114 0.77794 0.0
C404 C 0.34317 0.05191 0.80079 0.0
C405 C 0.35875 1.03034 0.78969 0.0
C406 C 0.39511 0.05155 0.77779 0.0
C407 C 0.4158 0.09433 0.77727 0.0
C408 C 0.40034 0.11571 0.78818 0.0
H409 H 0.32151 0.1654 0.77399 0.0
H410 H 0.37057 0.16983 0.77013 0.0
H411 H 0.32538 0.11982 0.77106 0.0
H412 H 0.31532 1.03529 0.81006 0.0
H413 H 0.34271 0.99727 0.79044 0.0
H414 H 0.71821 0.97391 0.49245 0.0
H415 H 0.71699 0.90874 0.49754 0.0
H416 H 0.59846 0.8578 0.52718 0.0
H417 H 0.59856 0.92172 0.52062 0.0
H418 H 0.72071 0.86333 0.52396 0.0
H419 H 0.56426 0.75976 0.49537 0.0
H420 H 0.58726 0.81429 0.49274 0.0
H421 H 0.5628 0.78893 0.51765 0.0
C422 C 0.69147 0.94874 0.49981 0.0
C423 C 0.65824 0.95423 0.50572 0.0
C424 C 0.69078 0.91073 0.50288 0.0
C425 C 0.65704 0.87577 0.51234 0.0
C426 C 0.62445 0.88196 0.51887 0.0
H427 H 0.6148 0.61682 0.50905 0.0
H428 H 0.61713 0.68188 0.50186 0.0
C429 C 0.62473 0.91959 0.51532 0.0
C430 C 0.65674 0.83427 0.51581 0.0
H431 H 0.59549 0.72857 0.51528 0.0
C432 C 0.69302 0.83412 0.52184 0.0
C433 C 0.62163 0.79444 0.51282 0.0
C434 C 0.58197 0.78927 0.50405 0.0
C435 C 0.69514 0.79746 0.5251 0.0
C436 C 0.65941 0.75767 0.52351 0.0
C437 C 0.62328 0.75779 0.51712 0.0
C438 C 0.65885 0.71626 0.52783 0.0
C439 C 0.73683 0.80251 0.52924 0.0
C440 C 0.68094 0.71095 0.54499 0.0
C441 C 0.68079 0.67346 0.54867 0.0
C442 C 0.65729 0.63792 0.53597 0.0
C443 C 0.63428 0.6427 0.51914 0.0
C444 C 0.63518 0.68061 0.51516 0.0
H445 H 0.76136 0.83146 0.52213 0.0
H446 H 0.74244 0.804 0.54689 0.0
H447 H 0.73949 0.77686 0.52236 0.0
H448 H 0.6984 0.73584 0.55602 0.0
H449 H 0.69982 0.67281 0.56157 0.0
H450 H 0.80384 0.65234 0.83252 0.0
H451 H 0.8683 0.65147 0.83655 0.0
H452 H 0.80043 0.5241 0.85385 0.0
H453 H 0.73623 0.52464 0.84921 0.0
H454 H 0.91162 0.64248 0.86618 0.0
H455 H 0.87185 0.51076 0.8134 0.0
H456 H 0.8399 0.53355 0.81511 0.0
H457 H 0.83605 0.49683 0.83506 0.0
C458 C 0.80229 0.62386 0.83701 0.0
C459 C 0.76347 0.58846 0.84024 0.0
C460 C 0.83984 0.62338 0.83942 0.0
C461 C 0.84097 0.58744 0.84507 0.0
C462 C 0.80211 0.5523 0.8487 0.0
H463 H 1.03481 0.52193 0.87517 0.0
H464 H 0.97154 0.52388 0.8682 0.0
C465 C 0.76463 0.55273 0.84622 0.0
C466 C 0.8821 0.58704 0.84761 0.0
H467 H 0.93104 0.53258 0.8354 0.0
C468 C 0.91552 0.6184 0.85919 0.0
C469 C 0.88919 0.55615 0.83877 0.0
C470 C 0.85755 0.52268 0.82471 0.0
C471 C 0.95361 0.61913 0.86259 0.0
C472 C 0.96048 0.588 0.85394 0.0
C473 C 0.92716 0.55675 0.8423 0.0
C474 C 1.00094 0.58665 0.85716 0.0
C475 C 0.98576 0.65294 0.87627 0.0
C476 C 1.04047 0.62054 0.85288 0.0
C477 C 1.07727 0.61918 0.85668 0.0
C478 C 1.07664 0.58371 0.86476 0.0
C479 C 1.03724 0.54963 0.86854 0.0
C480 C 1.00055 0.55091 0.86464 0.0
H481 H 0.97226 0.66671 0.88689 0.0
H482 H 1.0023 0.64167 0.88652 0.0
H483 H 1.00825 0.67746 0.86559 0.0
H484 H 1.04315 0.64856 0.84663 0.0
H485 H 0.10645 0.64651 0.85393 0.0
H486 H 0.28718 0.67596 0.19004 0.0
H487 H 0.3508 0.74146 0.19436 0.0
H488 H 0.29793 0.80134 0.15813 0.0
H489 H 0.23354 0.73645 0.1552 0.0
H490 H 0.41026 0.79403 0.17524 0.0
H491 H 0.34273 0.88714 0.19981 0.0
H492 H 0.31195 0.83261 0.19698 0.0
H493 H 0.32398 0.86572 0.17372 0.0
C494 C 0.28866 0.70308 0.18315 0.0
C495 C 0.25377 0.69974 0.17244 0.0
C496 C 0.32583 0.74128 0.18558 0.0
C497 C 0.33079 0.77862 0.17724 0.0
C498 C 0.29616 0.77484 0.1659 0.0
H499 H 0.531 1.02552 0.22029 0.0
H500 H 0.46819 0.96098 0.2138 0.0
C501 C 0.25868 0.73681 0.16391 0.0
C502 C 0.37177 0.82032 0.18002 0.0
H503 H 0.41248 0.92387 0.18958 0.0
C504 C 0.41019 0.82215 0.17853 0.0
C505 C 0.37402 0.8585 0.18478 0.0
C506 C 0.33601 0.86091 0.18916 0.0
C507 C 0.44884 0.85908 0.18138 0.0
C508 C 0.4511 0.89763 0.185 0.0
C509 C 0.41265 0.89571 0.18658 0.0
C510 C 0.49186 0.93933 0.18842 0.0
C511 C 0.48682 0.8554 0.1814 0.0
C512 C 0.52837 0.95202 0.17632 0.0
C513 C 0.56568 0.98948 0.18061 0.0
C514 C 0.56839 1.01697 0.19688 0.0
C515 C 0.53136 1.00554 0.20795 0.0
C516 C 0.49458 0.96795 0.20402 0.0
H517 H 0.47975 0.82393 0.18568 0.0
H518 H 0.50022 0.86213 0.16499 0.0
H519 H 0.50995 0.87692 0.19304 0.0
H520 H 0.52844 0.93297 0.16339 0.0
H521 H 0.59276 0.99638 0.17147 0.0
H522 H 0.59471 0.16345 0.48785 0.0
H523 H 0.59483 0.22846 0.49176 0.0
H524 H 0.71112 0.28068 0.52432 0.0
H525 H 0.7115 0.21664 0.52 0.0
H526 H 0.59198 0.27508 0.52193 0.0
H527 H 0.74336 0.37432 0.486 0.0
H528 H 0.71927 0.31942 0.48505 0.0
H529 H 0.74722 0.34703 0.50876 0.0
C530 C 0.62064 0.18876 0.49571 0.0
C531 C 0.65336 0.18356 0.50327 0.0
C532 C 0.62067 0.22658 0.49804 0.0
C533 C 0.65353 0.26163 0.50793 0.0
C534 C 0.68572 0.25597 0.51586 0.0
H535 H 0.71365 0.51544 0.5451 0.0
H536 H 0.7117 0.45064 0.53767 0.0
C537 C 0.68574 0.21837 0.5135 0.0
C538 C 0.65383 0.3031 0.51037 0.0
H539 H 0.71441 0.40831 0.50509 0.0
C540 C 0.61889 0.30398 0.518 0.0
C541 C 0.68834 0.34226 0.50544 0.0
C542 C 0.72649 0.34582 0.49565 0.0
C543 C 0.61792 0.34117 0.52138 0.0
C544 C 0.65263 0.38033 0.51671 0.0
C545 C 0.68742 0.3794 0.50893 0.0
C546 C 0.65411 0.42209 0.52034 0.0
C547 C 0.57966 0.33786 0.53083 0.0
C548 C 0.62336 0.43055 0.51276 0.0
C549 C 0.62472 0.46857 0.51694 0.0
C550 C 0.65704 0.50041 0.52881 0.0
C551 C 0.6883 0.49246 0.53576 0.0
C552 C 0.68704 0.45471 0.53152 0.0
H553 H 0.56114 0.30837 0.53945 0.0
H554 H 0.58708 0.36319 0.54228 0.0
H555 H 0.56052 0.33938 0.51761 0.0
H556 H 0.59783 0.40757 0.50355 0.0
H557 H 0.59964 0.47252 0.51142 0.0
H558 H 0.4945 0.52224 0.85082 0.0
H559 H 0.43053 0.52254 0.85744 0.0
H560 H 0.48793 0.64774 0.83597 0.0
H561 H 0.55242 0.64827 0.83122 0.0
H562 H 0.37312 0.52375 0.84137 0.0
H563 H 0.43883 0.67188 0.88255 0.0
H564 H 0.46003 0.67937 0.85609 0.0
H565 H 0.46983 0.64974 0.8758 0.0
C566 C 0.49381 0.55013 0.84768 0.0
C567 C 0.52998 0.58537 0.8406 0.0
C568 C 0.45649 0.55035 0.85148 0.0
C569 C 0.45264 0.58561 0.8481 0.0
C570 C 0.48861 0.62028 0.84013 0.0
H571 H 0.25003 0.62371 0.89822 0.0
H572 H 0.31191 0.62048 0.89215 0.0
C573 C 0.5262 0.62043 0.83697 0.0
C574 C 0.41153 0.58554 0.85235 0.0
H575 H 0.37049 0.64435 0.87014 0.0
C576 C 0.37315 0.55035 0.84787 0.0
C577 C 0.409 0.61915 0.86135 0.0
C578 C 0.44657 0.65692 0.86946 0.0
C579 C 0.33439 0.54788 0.8517 0.0
C580 C 0.33197 0.58242 0.85935 0.0
C581 C 0.37037 0.61747 0.86401 0.0
C582 C 0.29101 0.58279 0.86343 0.0
C583 C 0.29644 0.50691 0.84835 0.0
C584 C 0.25597 0.56312 0.84976 0.0
C585 C 0.21874 0.56326 0.85403 0.0
C586 C 0.21441 0.5844 0.8718 0.0
C587 C 0.2499 0.60537 0.88493 0.0
C588 C 0.28664 0.60426 0.88104 0.0
H589 H 0.30308 0.48151 0.85023 0.0
H590 H 0.27209 0.50183 0.85999 0.0
H591 H 0.28489 0.5053 0.83168 0.0
H592 H 0.25708 0.54765 0.83539 0.0
H593 H 0.19309 0.54627 0.84328 0.0
H594 H 1.04464 0.43932 0.194 0.0
H595 H 0.97953 0.37601 0.19934 0.0
H596 H 0.9214 0.41825 0.15432 0.0
H597 H 0.98645 0.48238 0.14952 0.0
H598 H 0.92959 0.31204 0.17952 0.0
H599 H 0.83361 0.38062 0.19648 0.0
H600 H 0.85664 0.39516 0.17036 0.0
H601 H 0.88839 0.41134 0.19423 0.0
C602 C 1.01814 0.43562 0.1852 0.0
C603 C 1.02218 0.46743 0.17128 0.0
C604 C 0.98015 0.3986 0.18829 0.0
C605 C 0.94345 0.39081 0.17777 0.0
C606 C 0.94762 0.42238 0.16353 0.0
H607 H 0.70036 0.18942 0.22643 0.0
H608 H 0.76466 0.25284 0.21957 0.0
C609 C 0.9857 0.45963 0.1605 0.0
C610 C 0.9021 0.34995 0.18149 0.0
H611 H 0.79835 0.30881 0.19117 0.0
C612 C 0.90112 0.31189 0.18206 0.0
C613 C 0.86358 0.34762 0.18532 0.0
C614 C 0.86051 0.38583 0.18681 0.0
C615 C 0.86458 0.27339 0.18589 0.0
C616 C 0.8258 0.27091 0.18892 0.0
C617 C 0.82684 0.30901 0.18865 0.0
C618 C 0.78471 0.23003 0.19308 0.0
C619 C 0.86868 0.23575 0.18746 0.0
C620 C 0.77172 0.19399 0.18064 0.0
C621 C 0.73441 0.15668 0.18488 0.0
C622 C 0.70746 0.15313 0.2017 0.0
C623 C 0.71985 0.18938 0.21375 0.0
C624 C 0.75716 0.22658 0.20956 0.0
H625 H 0.90035 0.2436 0.19189 0.0
H626 H 0.84742 0.21388 0.19961 0.0
H627 H 0.86161 0.22041 0.17151 0.0
H628 H 0.79032 0.1945 0.1673 0.0
H629 H 0.727 0.13026 0.17505 0.0
H630 H 0.09928 0.55652 0.09529 0.0
H631 H 0.1053 0.55307 0.0562 0.0
H632 H 0.22574 0.5682 0.0646 0.0
H633 H 0.21841 0.56922 0.10398 0.0
H634 H 0.15202 0.60785 0.03044 0.0
H635 H 0.18623 0.4827 0.01985 0.0
H636 H 0.16965 0.49222 0.04531 0.0
H637 H 0.22248 0.52195 0.03733 0.0
C638 C 0.12654 0.55789 0.08879 0.0
C639 C 0.15802 0.56233 0.10269 0.0
C640 C 0.13018 0.55626 0.06636 0.0
C641 C 0.16586 0.55994 0.05706 0.0
C642 C 0.19732 0.564 0.07107 0.0
H643 H 0.21076 0.64269 0.92196 0.0
H644 H 0.21884 0.63789 0.96095 0.0
C645 C 0.19324 0.56473 0.09366 0.0
C646 C 0.17073 0.56262 0.03285 0.0
H647 H 0.19605 0.52465 0.98901 0.0
C648 C 0.16151 0.58941 0.02149 0.0
C649 C 0.18271 0.53847 0.02077 0.0
C650 C 0.19041 0.50692 0.03141 0.0
C651 C 0.16352 0.59255 -0.00119 0.0
C652 C 0.17716 0.56973 0.98678 0.0
C653 C 0.18634 0.54282 -0.00194 0.0
C654 C 0.18 0.57209 0.96252 0.0
C655 C 0.14924 0.61921 0.98802 0.0
C656 C 0.1588 0.5366 0.94985 0.0
C657 C 0.15601 0.53935 0.9273 0.0
C658 C 0.17438 0.57756 0.91686 0.0
C659 C 0.19764 0.61277 0.92939 0.0
C660 C 0.20126 0.61002 0.95182 0.0
H661 H 0.12832 0.62402 -0.00142 0.0
H662 H 0.17609 0.64966 0.98455 0.0
H663 H 0.13302 0.6056 0.97262 0.0
H664 H 0.14214 0.50687 0.95749 0.0
H665 H 0.13666 0.51187 0.91819 0.0
H666 H 0.72309 0.15225 0.43405 0.0
H667 H 0.72822 0.16402 0.39487 0.0
H668 H 0.64433 1.03578 0.38438 0.0
H669 H 0.63815 1.02411 0.42329 0.0
H670 H 0.7526 0.13688 0.36085 0.0
H671 H 0.58804 0.08437 0.35081 0.0
H672 H 0.61194 0.09308 0.37701 0.0
H673 H 0.59606 1.04577 0.36296 0.0
C674 C 0.7058 0.12653 0.4234 0.0
C675 C 0.67982 0.08728 0.43196 0.0
C676 C 0.70878 0.13331 0.40093 0.0
C677 C 0.6859 0.10102 0.38647 0.0
C678 C 0.66136 0.06156 0.39503 0.0
H679 H 0.71333 0.0866 0.2473 0.0
H680 H 0.72547 0.09272 0.28641 0.0
C681 C 0.65807 0.05485 0.4174 0.0
C682 C 0.687 0.10837 0.36253 0.0
H683 H 0.62516 0.09131 0.31861 0.0
C684 C 0.72473 0.1272 0.35164 0.0
C685 C 0.65088 0.09663 0.35034 0.0
C686 C 0.60952 0.07926 0.36091 0.0
C687 C 0.72715 0.1334 0.32904 0.0
C688 C 0.69077 0.11962 0.31673 0.0
C689 C 0.65322 0.10175 0.32776 0.0
C690 C 0.69022 0.12265 0.29248 0.0
C691 C 0.76882 0.15531 0.31871 0.0
C692 C 0.66703 0.13794 0.28241 0.0
C693 C 0.65988 0.13398 0.26008 0.0
C694 C 0.67625 0.11534 0.24707 0.0
C695 C 0.70175 0.10258 0.2568 0.0
C696 C 0.70844 0.1059 0.27927 0.0
H697 H 0.79269 0.17571 0.33041 0.0
H698 H 0.77699 0.13243 0.31311 0.0
H699 H 0.76934 0.17386 0.30463 0.0
H700 H 0.65246 0.15093 0.29202 0.0
H701 H 0.639 0.14276 0.2531 0.0
H702 H 0.65642 0.54797 0.76064 0.0
H703 H 0.65718 0.55394 0.72137 0.0
H704 H 0.64367 0.66036 0.72677 0.0
H705 H 0.64385 0.65512 0.76623 0.0
H706 H 0.60106 0.54905 0.69342 0.0
H707 H 0.73831 0.70283 0.68558 0.0
H708 H 0.72466 0.67467 0.71064 0.0
H709 H 0.69906 0.70183 0.70223 0.0
C710 C 0.65385 0.57287 0.75356 0.0
C711 C 0.6503 0.60119 0.7668 0.0
C712 C 0.6542 0.5762 0.73097 0.0
C713 C 0.6511 0.60796 0.72083 0.0
C714 C 0.64714 0.63611 0.734 0.0
H715 H 0.59507 0.58626 0.58049 0.0
H716 H 0.59191 0.59703 0.61949 0.0
C717 C 0.64696 0.6329 0.75666 0.0
C718 C 0.65113 0.61068 0.69658 0.0
H719 H 0.70123 0.67274 0.65349 0.0
C720 C 0.6229 0.57623 0.68474 0.0
C721 C 0.67982 0.64589 0.68501 0.0
C722 C 0.71245 0.68329 0.69646 0.0
C723 C 0.62273 0.5758 0.66196 0.0
C724 C 0.65099 0.61121 0.65038 0.0
C725 C 0.67909 0.64577 0.6622 0.0
C726 C 0.65418 0.61157 0.62618 0.0
C727 C 0.5933 0.53666 0.65054 0.0
C728 C 0.69088 0.61893 0.61652 0.0
C729 C 0.69279 0.6136 0.59425 0.0
C730 C 0.65823 0.60114 0.58097 0.0
C731 C 0.62233 0.59661 0.59028 0.0
C732 C 0.62038 0.60202 0.61264 0.0
H733 H 0.58078 0.50988 0.66159 0.0
H734 H 0.56722 0.53931 0.64411 0.0
H735 H 0.60838 0.53073 0.63681 0.0
H736 H 0.7175 0.62644 0.6264 0.0
H737 H 0.72053 0.61646 0.58753 0.0
H738 H 0.6851 0.08438 0.57606 0.0
H739 H 0.66094 0.07817 0.61346 0.0
H740 H 0.53608 1.01751 0.59063 0.0
H741 H 0.55974 1.02442 0.55365 0.0
H742 H 0.55341 0.08149 0.6167 0.0
H743 H 0.60406 0.98029 0.65459 0.0
H744 H 0.64325 1.02518 0.64131 0.0
H745 H 0.60242 0.98588 0.6257 0.0
C746 C 0.65253 0.06929 0.57914 0.0
C747 C 0.62434 0.05529 0.56195 0.0
C748 C 0.63876 0.06559 0.60047 0.0
C749 C 0.59668 1.04723 0.60481 0.0
C750 C 0.56867 1.03195 0.58766 0.0
H751 H 0.44826 0.96037 0.71911 0.0
H752 H 0.48806 0.96872 0.68621 0.0
C753 C 0.5823 1.03603 0.5665 0.0
C754 C 0.58109 1.04622 0.62684 0.0
H755 H 0.57103 1.00514 0.6772 0.0
C756 C 0.55746 0.06499 0.62997 0.0
C757 C 0.58616 1.02437 0.64403 0.0
C758 C 0.61005 1.00245 0.64131 0.0
C759 C 0.53787 0.06171 0.64961 0.0
C760 C 0.54311 1.04013 0.6669 0.0
C761 C 0.56733 1.02189 0.66394 0.0
C762 C 0.52213 1.03487 0.68779 0.0
C763 C 0.51038 0.08001 0.6513 0.0
C764 C 0.5289 0.06913 0.69981 0.0
C765 C 0.50582 0.0643 0.71825 0.0
C766 C 0.47612 1.02516 0.7251 0.0
C767 C 0.47079 0.99076 0.71381 0.0
C768 C 0.49358 0.99557 0.69519 0.0
H769 H 0.50132 0.08583 0.63516 0.0
H770 H 0.48218 0.0596 0.66049 0.0
H771 H 0.52692 0.10968 0.65989 0.0
H772 H 0.5515 0.09964 0.69471 0.0
H773 H 0.511 0.09105 0.72718 0.0
H774 H 0.56946 0.51802 0.89645 0.0
H775 H 0.55572 0.50831 0.93495 0.0
H776 H 0.673 0.61427 0.94841 0.0
H777 H 0.68732 0.62451 0.9095 0.0
H778 H 0.65207 0.53985 0.97336 0.0
H779 H 0.53025 0.58122 0.97503 0.0
H780 H 0.52381 0.54576 0.95406 0.0
H781 H 0.56717 0.59669 0.95347 0.0
C782 C 0.59249 0.53944 0.90749 0.0
C783 C 0.62956 0.57212 0.89986 0.0
C784 C 0.58438 0.53392 0.92952 0.0
C785 C 0.61307 0.56089 0.94445 0.0
C786 C 0.65037 0.59334 0.93705 0.0
H787 H 0.55517 0.53926 0.08264 0.0
H788 H 0.57715 0.56767 0.04626 0.0
C789 C 0.65847 0.59912 0.91487 0.0
C790 C 0.60397 0.55378 0.96775 0.0
H791 H 0.533 0.5426 0.00516 0.0
C792 C 0.62649 0.54107 0.98045 0.0
C793 C 0.5708 0.55577 0.97695 0.0
C794 C 0.5468 0.57097 0.96425 0.0
C795 C 0.61524 0.52817 0.00186 0.0
C796 C 0.58042 0.52766 0.01057 0.0
C797 C 0.55932 0.54252 -0.00172 0.0
C798 C 0.56454 0.51023 0.03213 0.0
C799 C 0.64021 0.5145 0.01489 0.0
C800 C 0.54896 0.46838 0.03594 0.0
C801 C 0.53571 0.45209 0.05652 0.0
C802 C 0.53771 0.47733 0.07356 0.0
C803 C 0.55218 0.519 0.06958 0.0
C804 C 0.56522 0.5353 0.04894 0.0
H805 H 0.67121 0.52622 0.00798 0.0
H806 H 0.64339 0.52489 0.03189 0.0
H807 H 0.62448 0.48059 0.01494 0.0
H808 H 0.54771 0.44848 0.02306 0.0
H809 H 0.52503 0.42 0.05938 0.0
H810 H 0.17486 0.61925 0.24138 0.0
H811 H 0.16 0.63307 0.27786 0.0
H812 H 1.03866 0.60275 0.25748 0.0
H813 H 1.05316 0.58915 0.22101 0.0
H814 H 0.13055 0.69303 0.28697 0.0
H815 H 1.02545 0.53369 0.31454 0.0
H816 H 1.06266 0.54562 0.29344 0.0
H817 H 1.01688 0.54744 0.28795 0.0
C818 C 0.14493 0.61528 0.24469 0.0
C819 C 0.11522 0.60319 0.22829 0.0
C820 C 0.13653 0.62317 0.26551 0.0
C821 C 0.09813 0.61849 0.27032 0.0
C822 C 1.0683 0.60604 0.25409 0.0
H823 H 0.98566 0.65682 0.38299 0.0
H824 H 0.99953 0.63447 0.34831 0.0
C825 C 1.07676 0.59852 0.23324 0.0
C826 C 0.08985 0.62872 0.29201 0.0
H827 H 1.03293 0.58703 0.3374 0.0
C828 C 0.10945 0.66992 0.2981 0.0
C829 C 1.06192 0.59842 0.30625 0.0
C830 C 1.04057 0.55371 0.30039 0.0
C831 C 0.10132 0.68182 0.31802 0.0
C832 C 1.07374 0.65148 0.33248 0.0
C833 C 1.05415 0.61019 0.32634 0.0
C834 C 1.06475 0.66222 0.35395 0.0
C835 C 0.12141 0.72687 0.32307 0.0
C836 C 0.0965 0.68392 0.36884 0.0
C837 C 0.08859 0.6969 0.38834 0.0
C838 C 1.04875 0.6879 0.39338 0.0
C839 C 1.01659 0.66427 0.37914 0.0
C840 C 1.02454 0.65158 0.35947 0.0
H841 H 0.13177 0.74584 0.30819 0.0
H842 H 0.10023 0.73406 0.33187 0.0
H843 H 0.14871 0.73578 0.33339 0.0
H844 H 0.12752 0.69137 0.36522 0.0
H845 H 0.11354 0.7144 0.39945 0.0
loop_
_geom_bond_atom_site_label_1
_geom_bond_atom_site_label_2
_geom_bond_distance
_geom_bond_site_symmetry_2
_ccdc_geom_bond_type
Tb0 C9 2.764 . S
Tb0 O10 2.325 . S
Tb0 O13 2.303 . S
Tb0 O17 2.322 1_655 S
Tb0 O18 2.349 . S
Tb0 O21 2.415 . S
Tb0 O22 2.399 . S
Tb1 O11 2.322 1_455 S
Tb1 O12 2.349 . S
Tb1 O14 2.415 . S
Tb1 O15 2.399 . S
Tb1 O16 2.325 . S
Tb1 O19 2.303 . S
Tb1 C30 2.764 . S
C2 O18 1.261 1_455 S
C2 O19 1.257 . S
C3 C6 1.358 . S
C3 C7 1.332 . S
C3 C9 1.504 . S
C4 C5 1.373 . S
C4 C8 1.308 . S
C5 C4 1.373 . S
C5 C6 1.429 . S
C5 H32 0.932 . S
C6 C3 1.358 . S
C6 C5 1.429 . S
C6 H33 0.930 . S
C7 C3 1.332 . S
C7 C8 1.394 . S
C7 H34 0.932 . S
C8 C4 1.308 . S
C8 C7 1.394 . S
C8 H35 0.929 . S
C9 Tb0 2.764 . S
C9 C3 1.504 . S
C9 O21 1.239 . S
C9 O22 1.263 . S
O10 Tb0 2.325 . S
O10 C20 1.236 . S
O11 Tb1 2.322 1_655 S
O11 C20 1.257 . S
O12 Tb1 2.349 . S
O12 C23 1.274 . S
O13 Tb0 2.303 . S
O13 C23 1.250 1_655 S
O14 Tb1 2.415 . S
O14 C30 1.239 . S
O15 Tb1 2.399 . S
O15 C30 1.263 . S
O16 Tb1 2.325 . S
O16 C31 1.236 . S
O17 Tb0 2.322 1_455 S
O17 C31 1.257 . S
O18 Tb0 2.349 . S
O18 C2 1.261 1_655 S
O19 Tb1 2.303 . S
O19 C2 1.257 . S
C20 O10 1.236 . S
C20 O11 1.257 . S
O21 Tb0 2.415 . S
O21 C9 1.239 . S
O22 Tb0 2.399 . S
O22 C9 1.263 . S
C23 O12 1.274 . S
C23 O13 1.250 1_455 S
C24 C27 1.358 . S
C24 C28 1.332 . S
C24 C30 1.504 . S
C25 C26 1.373 . S
C25 C29 1.308 . S
C26 C25 1.373 . S
C26 C27 1.429 . S
C26 H36 0.932 . S
C27 C24 1.358 . S
C27 C26 1.429 . S
C27 H37 0.930 . S
C28 C24 1.332 . S
C28 C29 1.394 . S
C28 H38 0.932 . S
C29 C25 1.308 . S
C29 C28 1.394 . S
C29 H39 0.929 . S
C30 Tb1 2.764 . S
C30 O14 1.239 . S
C30 O15 1.263 . S
C30 C24 1.504 . S
C31 O16 1.236 . S
C31 O17 1.257 . S
H32 C5 0.932 . S
H33 C6 0.930 . S
H34 C7 0.932 . S
H35 C8 0.929 . S
H36 C26 0.932 . S
H37 C27 0.930 . S
H38 C28 0.932 . S
H39 C29 0.929 . S
Tb40 C49 2.764 1_545 S
Tb40 O50 2.325 1_545 S
Tb40 O53 2.303 . S
Tb40 O57 2.322 . S
Tb40 O58 2.349 . S
Tb40 O61 2.415 1_545 S
Tb40 O62 2.399 1_545 S
Tb41 O51 2.322 1_545 S
Tb41 O52 2.349 . S
Tb41 O54 2.415 . S
Tb41 O55 2.399 . S
Tb41 O56 2.325 . S
Tb41 O59 2.303 . S
Tb41 C70 2.764 . S
C42 O58 1.261 . S
C42 O59 1.257 . S
C43 C46 1.358 . S
C43 C47 1.332 . S
C43 C49 1.504 . S
C44 C45 1.373 . S
C44 C48 1.308 . S
C45 C44 1.373 . S
C45 C46 1.429 . S
C45 H72 0.932 . S
C46 C43 1.358 . S
C46 C45 1.429 . S
C46 H73 0.930 . S
C47 C43 1.332 . S
C47 C48 1.394 . S
C47 H74 0.932 . S
C48 C44 1.308 . S
C48 C47 1.394 . S
C48 H75 0.929 . S
C49 Tb40 2.764 1_565 S
C49 C43 1.504 . S
C49 O61 1.239 . S
C49 O62 1.263 . S
O50 Tb40 2.325 1_565 S
O50 C60 1.236 . S
O51 Tb41 2.322 1_565 S
O51 C60 1.257 . S
O52 Tb41 2.349 . S
O52 C63 1.261 . S
O53 Tb40 2.303 . S
O53 C63 1.257 . S
O54 Tb41 2.415 . S
O54 C70 1.239 . S
O55 Tb41 2.399 . S
O55 C70 1.263 . S
O56 Tb41 2.325 . S
O56 C71 1.236 . S
O57 Tb40 2.322 . S
O57 C71 1.257 . S
O58 Tb40 2.349 . S
O58 C42 1.261 . S
O59 Tb41 2.303 . S
O59 C42 1.257 . S
C60 O50 1.236 . S
C60 O51 1.257 . S
O61 Tb40 2.415 1_565 S
O61 C49 1.239 . S
O62 Tb40 2.399 1_565 S
O62 C49 1.263 . S
C63 O52 1.261 . S
C63 O53 1.257 . S
C64 C67 1.358 . S
C64 C68 1.332 . S
C64 C70 1.504 . S
C65 C66 1.373 . S
C65 C69 1.308 . S
C66 C65 1.373 . S
C66 C67 1.429 . S
C66 H76 0.932 . S
C67 C64 1.358 . S
C67 C66 1.429 . S
C67 H77 0.930 . S
C68 C64 1.332 . S
C68 C69 1.394 . S
C68 H78 0.932 . S
C69 C65 1.308 . S
C69 C68 1.394 . S
C69 H79 0.929 . S
C70 Tb41 2.764 . S
C70 O54 1.239 . S
C70 O55 1.263 . S
C70 C64 1.504 . S
C71 O56 1.236 . S
C71 O57 1.257 . S
H72 C45 0.932 . S
H73 C46 0.930 . S
H74 C47 0.932 . S
H75 C48 0.929 . S
H76 C66 0.932 . S
H77 C67 0.930 . S
H78 C68 0.932 . S
H79 C69 0.929 . S
Tb80 C89 2.764 . S
Tb80 O90 2.325 . S
Tb80 O93 2.303 . S
Tb80 O97 2.322 . S
Tb80 O98 2.349 . S
Tb80 O101 2.415 . S
Tb80 O102 2.399 . S
Tb81 O91 2.322 . S
Tb81 O92 2.349 . S
Tb81 O94 2.415 . S
Tb81 O95 2.399 . S
Tb81 O96 2.325 . S
Tb81 O99 2.303 . S
Tb81 C110 2.764 . S
C82 O98 1.261 . S
C82 O99 1.257 . S
C83 C86 1.358 . S
C83 C87 1.332 . S
C83 C89 1.504 . S
C84 C85 1.373 . S
C84 C88 1.308 . S
C85 C84 1.373 . S
C85 C86 1.429 . S
C85 H112 0.932 . S
C86 C83 1.358 . S
C86 C85 1.429 . S
C86 H113 0.930 . S
C87 C83 1.332 . S
C87 C88 1.394 . S
C87 H114 0.932 . S
C88 C84 1.308 . S
C88 C87 1.394 . S
C88 H115 0.929 . S
C89 Tb80 2.764 . S
C89 C83 1.504 . S
C89 O101 1.239 . S
C89 O102 1.263 . S
O90 Tb80 2.325 . S
O90 C100 1.236 . S
O91 Tb81 2.322 . S
O91 C100 1.257 . S
O92 Tb81 2.349 . S
O92 C103 1.261 . S
O93 Tb80 2.303 . S
O93 C103 1.257 . S
O94 Tb81 2.415 . S
O94 C110 1.239 . S
O95 Tb81 2.399 . S
O95 C110 1.263 . S
O96 Tb81 2.325 . S
O96 C111 1.236 . S
O97 Tb80 2.322 . S
O97 C111 1.257 . S
O98 Tb80 2.349 . S
O98 C82 1.261 . S
O99 Tb81 2.303 . S
O99 C82 1.257 . S
C100 O90 1.236 . S
C100 O91 1.257 . S
O101 Tb80 2.415 . S
O101 C89 1.239 . S
O102 Tb80 2.399 . S
O102 C89 1.263 . S
C103 O92 1.261 . S
C103 O93 1.257 . S
C104 C107 1.358 . S
C104 C108 1.332 . S
C104 C110 1.504 . S
C105 C106 1.373 . S
C105 C109 1.308 . S
C106 C105 1.373 . S
C106 C107 1.429 . S
C106 H116 0.932 . S
C107 C104 1.358 . S
C107 C106 1.429 . S
C107 H117 0.930 . S
C108 C104 1.332 . S
C108 C109 1.394 . S
C108 H118 0.932 . S
C109 C105 1.308 . S
C109 C108 1.394 . S
C109 H119 0.929 . S
C110 Tb81 2.764 . S
C110 O94 1.239 . S
C110 O95 1.263 . S
C110 C104 1.504 . S
C111 O96 1.236 . S
C111 O97 1.257 . S
H112 C85 0.932 . S
H113 C86 0.930 . S
H114 C87 0.932 . S
H115 C88 0.929 . S
H116 C106 0.932 . S
H117 C107 0.930 . S
H118 C108 0.932 . S
H119 C109 0.929 . S
C120 N121 1.317 1_565 S
C120 N122 1.348 . S
C120 C123 1.485 1_565 S
N121 C120 1.317 1_545 S
N121 N125 1.370 . S
N122 C120 1.348 . S
N122 C124 1.346 . S
C123 C120 1.485 1_545 S
C123 H127 0.960 . S
C123 H128 0.961 1_545 S
C123 H129 0.960 . S
C124 N122 1.346 . S
C124 N125 1.307 1_565 S
C124 C126 1.486 . S
N125 N121 1.370 . S
N125 C124 1.307 1_545 S
C126 C124 1.486 . S
C126 H130 0.960 . S
C126 H131 0.960 . S
C126 H132 0.959 . S
H127 C123 0.960 . S
H128 C123 0.961 1_565 S
H129 C123 0.960 . S
H130 C126 0.960 . S
H131 C126 0.960 . S
H132 C126 0.959 . S
C133 N134 1.317 . S
C133 N135 1.348 . S
C133 C136 1.485 . S
N134 C133 1.317 . S
N134 N138 1.370 . S
N135 C133 1.348 . S
N135 C137 1.346 . S
C136 C133 1.485 . S
C136 H140 0.960 . S
C136 H141 0.961 . S
C136 H142 0.960 . S
C137 N135 1.346 . S
C137 N138 1.307 . S
C137 C139 1.486 . S
N138 N134 1.370 . S
N138 C137 1.307 . S
C139 C137 1.486 . S
C139 H143 0.960 . S
C139 H144 0.960 . S
C139 H145 0.959 . S
H140 C136 0.960 . S
H141 C136 0.961 . S
H142 C136 0.960 . S
H143 C139 0.960 . S
H144 C139 0.960 . S
H145 C139 0.959 . S
C146 N147 1.317 . S
C146 N148 1.348 . S
C146 C149 1.485 . S
N147 C146 1.317 . S
N147 N151 1.370 . S
N148 C146 1.348 . S
N148 C150 1.346 . S
C149 C146 1.485 . S
C149 H153 0.960 . S
C149 H154 0.961 . S
C149 H155 0.960 . S
C150 N148 1.346 . S
C150 N151 1.307 . S
C150 C152 1.486 1_455 S
N151 N147 1.370 . S
N151 C150 1.307 . S
C152 C150 1.486 1_655 S
C152 H156 0.960 . S
C152 H157 0.960 . S
C152 H158 0.959 . S
H153 C149 0.960 . S
H154 C149 0.961 . S
H155 C149 0.960 . S
H156 C152 0.960 . S
H157 C152 0.960 . S
H158 C152 0.959 . S
C159 N160 1.317 1_455 S
C159 N161 1.348 . S
C159 C162 1.485 . S
N160 C159 1.317 1_655 S
N160 N164 1.370 1_655 S
N161 C159 1.348 . S
N161 C163 1.346 . S
C162 C159 1.485 . S
C162 H166 0.960 . S
C162 H167 0.961 . S
C162 H168 0.960 1_455 S
C163 N161 1.346 . S
C163 N164 1.307 . S
C163 C165 1.486 . S
N164 N160 1.370 1_455 S
N164 C163 1.307 . S
C165 C163 1.486 . S
C165 H169 0.960 . S
C165 H170 0.960 . S
C165 H171 0.959 . S
H166 C162 0.960 . S
H167 C162 0.961 . S
H168 C162 0.960 1_655 S
H169 C165 0.960 . S
H170 C165 0.960 . S
H171 C165 0.959 . S
C172 N173 1.317 . S
C172 N174 1.348 . S
C172 C175 1.485 . S
N173 C172 1.317 . S
N173 N177 1.370 . S
N174 C172 1.348 . S
N174 C176 1.346 . S
C175 C172 1.485 . S
C175 H179 0.960 . S
C175 H180 0.961 . S
C175 H181 0.960 . S
C176 N174 1.346 . S
C176 N177 1.307 . S
C176 C178 1.486 . S
N177 N173 1.370 . S
N177 C176 1.307 . S
C178 C176 1.486 . S
C178 H182 0.960 . S
C178 H183 0.960 . S
C178 H184 0.959 . S
H179 C175 0.960 . S
H180 C175 0.961 . S
H181 C175 0.960 . S
H182 C178 0.960 . S
H183 C178 0.960 . S
H184 C178 0.959 . S
C185 N186 1.317 . S
C185 N187 1.348 . S
C185 C188 1.485 . S
N186 C185 1.317 . S
N186 N190 1.370 . S
N187 C185 1.348 . S
N187 C189 1.346 . S
C188 C185 1.485 . S
C188 H192 0.960 . S
C188 H193 0.961 . S
C188 H194 0.960 . S
C189 N187 1.346 . S
C189 N190 1.307 . S
C189 C191 1.486 . S
N190 N186 1.370 . S
N190 C189 1.307 . S
C191 C189 1.486 . S
C191 H195 0.960 . S
C191 H196 0.960 . S
C191 H197 0.959 . S
H192 C188 0.960 . S
H193 C188 0.961 . S
H194 C188 0.960 . S
H195 C191 0.960 . S
H196 C191 0.960 . S
H197 C191 0.959 . S
H198 C206 0.929 . S
H199 C208 0.930 . S
H200 C210 0.930 . S
H201 C213 0.929 . S
H202 C216 0.930 . S
H203 C218 0.960 . S
H204 C218 0.960 . S
H205 C218 0.960 . S
C206 H198 0.929 . S
C206 C207 1.377 . S
C206 C208 1.384 . S
C207 C206 1.377 . S
C207 C213 1.390 . S
C208 H199 0.930 . S
C208 C206 1.384 . S
C208 C209 1.372 . S
C209 C208 1.372 . S
C209 C210 1.400 . S
C209 C214 1.490 . S
C210 H200 0.930 . S
C210 C209 1.400 . S
C210 C213 1.386 . S
H211 C227 0.930 . S
H212 C228 0.931 . S
C213 H201 0.929 . S
C213 C207 1.390 . S
C213 C210 1.386 . S
C214 C209 1.490 . S
C214 C216 1.395 . S
C214 C217 1.403 . S
H215 C221 0.930 . S
C216 H202 0.930 . S
C216 C214 1.395 . S
C216 C219 1.403 . S
C217 C214 1.403 . S
C217 C218 1.524 . S
C217 C221 1.400 . S
C218 H203 0.960 . S
C218 H204 0.960 . S
C218 H205 0.960 . S
C218 C217 1.524 . S
C219 C216 1.403 . S
C219 C220 1.392 . S
C219 C223 1.495 . S
C220 C219 1.392 . S
C220 C221 1.385 . S
C220 C222 1.478 . S
C221 H215 0.930 . S
C221 C217 1.400 . S
C221 C220 1.385 . S
C222 C220 1.478 . S
C222 C224 1.381 . S
C222 C228 1.383 . S
C223 C219 1.495 . S
C223 H229 0.959 . S
C223 H230 0.961 . S
C223 H231 0.960 . S
C224 C222 1.381 . S
C224 C225 1.394 . S
C224 H232 0.930 . S
C225 C224 1.394 . S
C225 C226 1.383 . S
C225 H233 0.929 . S
C226 C225 1.383 . S
C226 C227 1.377 . S
C227 H211 0.930 . S
C227 C226 1.377 . S
C227 C228 1.379 . S
C228 H212 0.931 . S
C228 C222 1.383 . S
C228 C227 1.379 . S
H229 C223 0.959 . S
H230 C223 0.961 . S
H231 C223 0.960 . S
H232 C224 0.930 . S
H233 C225 0.929 . S
H234 C242 0.929 . S
H235 C244 0.930 . S
H236 C246 0.930 . S
H237 C249 0.929 . S
H238 C252 0.930 . S
H239 C254 0.960 . S
H240 C254 0.960 . S
H241 C254 0.960 . S
C242 H234 0.929 . S
C242 C243 1.377 . S
C242 C244 1.384 . S
C243 C242 1.377 . S
C243 C249 1.390 . S
C244 H235 0.930 . S
C244 C242 1.384 . S
C244 C245 1.372 . S
C245 C244 1.372 . S
C245 C246 1.400 . S
C245 C250 1.490 . S
C246 H236 0.930 . S
C246 C245 1.400 . S
C246 C249 1.386 . S
H247 C263 0.930 1_455 S
H248 C264 0.931 . S
C249 H237 0.929 . S
C249 C243 1.390 . S
C249 C246 1.386 . S
C250 C245 1.490 . S
C250 C252 1.395 . S
C250 C253 1.403 . S
H251 C257 0.930 . S
C252 H238 0.930 . S
C252 C250 1.395 . S
C252 C255 1.403 . S
C253 C250 1.403 . S
C253 C254 1.524 . S
C253 C257 1.400 . S
C254 H239 0.960 . S
C254 H240 0.960 . S
C254 H241 0.960 . S
C254 C253 1.524 . S
C255 C252 1.403 . S
C255 C256 1.392 . S
C255 C259 1.495 . S
C256 C255 1.392 . S
C256 C257 1.385 . S
C256 C258 1.478 . S
C257 H251 0.930 . S
C257 C253 1.400 . S
C257 C256 1.385 . S
C258 C256 1.478 . S
C258 C260 1.381 . S
C258 C264 1.383 . S
C259 C255 1.495 . S
C259 H265 0.959 . S
C259 H266 0.961 . S
C259 H267 0.960 . S
C260 C258 1.381 . S
C260 C261 1.394 . S
C260 H268 0.930 . S
C261 C260 1.394 . S
C261 C262 1.383 . S
C261 H269 0.929 . S
C262 C261 1.383 . S
C262 C263 1.377 . S
C263 H247 0.930 1_655 S
C263 C262 1.377 . S
C263 C264 1.379 . S
C264 H248 0.931 . S
C264 C258 1.383 . S
C264 C263 1.379 . S
H265 C259 0.959 . S
H266 C259 0.961 . S
H267 C259 0.960 . S
H268 C260 0.930 . S
H269 C261 0.929 . S
H270 C278 0.929 . S
H271 C280 0.930 . S
H272 C282 0.930 . S
H273 C285 0.929 . S
H274 C288 0.930 . S
H275 C290 0.960 . S
H276 C290 0.960 . S
H277 C290 0.960 . S
C278 H270 0.929 . S
C278 C279 1.377 . S
C278 C280 1.384 . S
C279 C278 1.377 . S
C279 C285 1.390 . S
C280 H271 0.930 . S
C280 C278 1.384 . S
C280 C281 1.372 . S
C281 C280 1.372 . S
C281 C282 1.400 . S
C281 C286 1.490 . S
C282 H272 0.930 . S
C282 C281 1.400 . S
C282 C285 1.386 . S
H283 C299 0.930 . S
H284 C300 0.931 . S
C285 H273 0.929 . S
C285 C279 1.390 . S
C285 C282 1.386 . S
C286 C281 1.490 . S
C286 C288 1.395 . S
C286 C289 1.403 . S
H287 C293 0.930 . S
C288 H274 0.930 . S
C288 C286 1.395 . S
C288 C291 1.403 . S
C289 C286 1.403 . S
C289 C290 1.524 . S
C289 C293 1.400 . S
C290 H275 0.960 . S
C290 H276 0.960 . S
C290 H277 0.960 . S
C290 C289 1.524 . S
C291 C288 1.403 . S
C291 C292 1.392 . S
C291 C295 1.495 . S
C292 C291 1.392 . S
C292 C293 1.385 . S
C292 C294 1.478 . S
C293 H287 0.930 . S
C293 C289 1.400 . S
C293 C292 1.385 . S
C294 C292 1.478 . S
C294 C296 1.372 1_565 S
C294 C300 1.383 . S
C295 C291 1.495 . S
C295 H301 0.959 . S
C295 H302 0.961 . S
C295 H303 0.960 . S
C296 C294 1.372 1_545 S
C296 C297 1.406 . S
C296 H304 0.928 . S
C297 C296 1.406 . S
C297 C298 1.383 . S
C297 H305 0.929 . S
C298 C297 1.383 . S
C298 C299 1.377 1_545 S
C299 H283 0.930 . S
C299 C298 1.377 1_565 S
C299 C300 1.379 . S
C300 H284 0.931 . S
C300 C294 1.383 . S
C300 C299 1.379 . S
H301 C295 0.959 . S
H302 C295 0.961 . S
H303 C295 0.960 . S
H304 C296 0.928 . S
H305 C297 0.929 . S
H306 C314 0.929 . S
H307 C316 0.930 . S
H308 C318 0.930 . S
H309 C321 0.929 . S
H310 C324 0.930 . S
H311 C326 0.960 . S
H312 C326 0.960 . S
H313 C326 0.960 . S
C314 H306 0.929 . S
C314 C315 1.377 . S
C314 C316 1.384 . S
C315 C314 1.377 . S
C315 C321 1.390 . S
C316 H307 0.930 . S
C316 C314 1.384 . S
C316 C317 1.372 . S
C317 C316 1.372 . S
C317 C318 1.400 . S
C317 C322 1.490 . S
C318 H308 0.930 . S
C318 C317 1.400 . S
C318 C321 1.386 . S
H319 C335 0.930 . S
H320 C336 0.931 . S
C321 H309 0.929 . S
C321 C315 1.390 . S
C321 C318 1.386 . S
C322 C317 1.490 . S
C322 C324 1.395 . S
C322 C325 1.403 . S
H323 C329 0.930 . S
C324 H310 0.930 . S
C324 C322 1.395 . S
C324 C327 1.403 . S
C325 C322 1.403 . S
C325 C326 1.524 . S
C325 C329 1.400 . S
C326 H311 0.960 . S
C326 H312 0.960 . S
C326 H313 0.960 . S
C326 C325 1.524 . S
C327 C324 1.403 . S
C327 C328 1.392 . S
C327 C331 1.495 . S
C328 C327 1.392 . S
C328 C329 1.385 . S
C328 C330 1.478 . S
C329 H323 0.930 . S
C329 C325 1.400 . S
C329 C328 1.385 . S
C330 C328 1.478 . S
C330 C332 1.381 . S
C330 C336 1.383 . S
C331 C327 1.495 . S
C331 H337 0.959 . S
C331 H338 0.961 . S
C331 H339 0.960 . S
C332 C330 1.381 . S
C332 C333 1.394 . S
C332 H340 0.930 . S
C333 C332 1.394 . S
C333 C334 1.383 . S
C333 H341 0.929 . S
C334 C333 1.383 . S
C334 C335 1.377 . S
C335 H319 0.930 . S
C335 C334 1.377 . S
C335 C336 1.379 . S
C336 H320 0.931 . S
C336 C330 1.383 . S
C336 C335 1.379 . S
H337 C331 0.959 . S
H338 C331 0.961 . S
H339 C331 0.960 . S
H340 C332 0.930 . S
H341 C333 0.929 . S
H342 C350 0.929 . S
H343 C352 0.930 . S
H344 C354 0.930 . S
H345 C357 0.929 . S
H346 C360 0.930 . S
H347 C362 0.960 . S
H348 C362 0.960 . S
H349 C362 0.960 . S
C350 H342 0.929 . S
C350 C351 1.377 . S
C350 C352 1.384 . S
C351 C350 1.377 . S
C351 C357 1.390 . S
C352 H343 0.930 . S
C352 C350 1.384 . S
C352 C353 1.372 . S
C353 C352 1.372 . S
C353 C354 1.400 . S
C353 C358 1.490 . S
C354 H344 0.930 . S
C354 C353 1.400 . S
C354 C357 1.386 . S
H355 C371 0.930 . S
H356 C372 0.931 . S
C357 H345 0.929 . S
C357 C351 1.390 . S
C357 C354 1.386 . S
C358 C353 1.490 . S
C358 C360 1.395 . S
C358 C361 1.403 . S
H359 C365 0.930 . S
C360 H346 0.930 . S
C360 C358 1.395 . S
C360 C363 1.403 . S
C361 C358 1.403 . S
C361 C362 1.524 . S
C361 C365 1.400 . S
C362 H347 0.960 . S
C362 H348 0.960 . S
C362 H349 0.960 . S
C362 C361 1.524 . S
C363 C360 1.403 . S
C363 C364 1.392 . S
C363 C367 1.495 . S
C364 C363 1.392 . S
C364 C365 1.385 . S
C364 C366 1.478 . S
C365 H359 0.930 . S
C365 C361 1.400 . S
C365 C364 1.385 . S
C366 C364 1.478 . S
C366 C368 1.381 . S
C366 C372 1.383 . S
C367 C363 1.495 . S
C367 H373 0.959 . S
C367 H374 0.961 . S
C367 H375 0.960 . S
C368 C366 1.381 . S
C368 C369 1.394 . S
C368 H376 0.930 . S
C369 C368 1.394 . S
C369 C370 1.383 . S
C369 H377 0.929 . S
C370 C369 1.383 . S
C370 C371 1.377 . S
C371 H355 0.930 . S
C371 C370 1.377 . S
C371 C372 1.379 . S
C372 H356 0.931 . S
C372 C366 1.383 . S
C372 C371 1.379 . S
H373 C367 0.959 . S
H374 C367 0.961 . S
H375 C367 0.960 . S
H376 C368 0.930 . S
H377 C369 0.929 . S
H378 C386 0.929 . S
H379 C388 0.930 . S
H380 C390 0.930 . S
H381 C393 0.929 . S
H382 C396 0.930 . S
H383 C398 0.960 . S
H384 C398 0.960 . S
H385 C398 0.960 . S
C386 H378 0.929 . S
C386 C387 1.377 . S
C386 C388 1.384 . S
C387 C386 1.377 . S
C387 C393 1.390 . S
C388 H379 0.930 . S
C388 C386 1.384 . S
C388 C389 1.372 . S
C389 C388 1.372 . S
C389 C390 1.400 . S
C389 C394 1.490 . S
C390 H380 0.930 . S
C390 C389 1.400 . S
C390 C393 1.386 . S
H391 C407 0.930 . S
H392 C408 0.931 . S
C393 H381 0.929 . S
C393 C387 1.390 . S
C393 C390 1.386 . S
C394 C389 1.490 . S
C394 C396 1.395 . S
C394 C397 1.403 . S
H395 C401 0.930 . S
C396 H382 0.930 . S
C396 C394 1.395 . S
C396 C399 1.403 . S
C397 C394 1.403 . S
C397 C398 1.524 . S
C397 C401 1.400 . S
C398 H383 0.960 . S
C398 H384 0.960 . S
C398 H385 0.960 . S
C398 C397 1.524 . S
C399 C396 1.403 . S
C399 C400 1.392 . S
C399 C403 1.495 . S
C400 C399 1.392 . S
C400 C401 1.385 . S
C400 C402 1.478 . S
C401 H395 0.930 . S
C401 C397 1.400 . S
C401 C400 1.385 . S
C402 C400 1.478 . S
C402 C404 1.381 . S
C402 C408 1.383 . S
C403 C399 1.495 . S
C403 H409 0.959 . S
C403 H410 0.961 . S
C403 H411 0.960 . S
C404 C402 1.381 . S
C404 C405 1.394 . S
C404 H412 0.930 . S
C405 C404 1.394 . S
C405 C406 1.383 . S
C405 H413 0.929 . S
C406 C405 1.383 . S
C406 C407 1.377 . S
C407 H391 0.930 . S
C407 C406 1.377 . S
C407 C408 1.379 . S
C408 H392 0.931 . S
C408 C402 1.383 . S
C408 C407 1.379 . S
H409 C403 0.959 . S
H410 C403 0.961 . S
H411 C403 0.960 . S
H412 C404 0.930 . S
H413 C405 0.929 . S
H414 C422 0.929 . S
H415 C424 0.930 . S
H416 C426 0.930 . S
H417 C429 0.929 . S
H418 C432 0.930 . S
H419 C434 0.960 . S
H420 C434 0.960 . S
H421 C434 0.960 . S
C422 H414 0.929 . S
C422 C423 1.377 . S
C422 C424 1.384 . S
C423 C422 1.377 . S
C423 C429 1.390 . S
C424 H415 0.930 . S
C424 C422 1.384 . S
C424 C425 1.372 . S
C425 C424 1.372 . S
C425 C426 1.400 . S
C425 C430 1.490 . S
C426 H416 0.930 . S
C426 C425 1.400 . S
C426 C429 1.386 . S
H427 C443 0.930 . S
H428 C444 0.931 . S
C429 H417 0.929 . S
C429 C423 1.390 . S
C429 C426 1.386 . S
C430 C425 1.490 . S
C430 C432 1.395 . S
C430 C433 1.403 . S
H431 C437 0.930 . S
C432 H418 0.930 . S
C432 C430 1.395 . S
C432 C435 1.403 . S
C433 C430 1.403 . S
C433 C434 1.524 . S
C433 C437 1.400 . S
C434 H419 0.960 . S
C434 H420 0.960 . S
C434 H421 0.960 . S
C434 C433 1.524 . S
C435 C432 1.403 . S
C435 C436 1.392 . S
C435 C439 1.495 . S
C436 C435 1.392 . S
C436 C437 1.385 . S
C436 C438 1.478 . S
C437 H431 0.930 . S
C437 C433 1.400 . S
C437 C436 1.385 . S
C438 C436 1.478 . S
C438 C440 1.381 . S
C438 C444 1.383 . S
C439 C435 1.495 . S
C439 H445 0.959 . S
C439 H446 0.961 . S
C439 H447 0.960 . S
C440 C438 1.381 . S
C440 C441 1.394 . S
C440 H448 0.930 . S
C441 C440 1.394 . S
C441 C442 1.383 . S
C441 H449 0.929 . S
C442 C441 1.383 . S
C442 C443 1.377 . S
C443 H427 0.930 . S
C443 C442 1.377 . S
C443 C444 1.379 . S
C444 H428 0.931 . S
C444 C438 1.383 . S
C444 C443 1.379 . S
H445 C439 0.959 . S
H446 C439 0.961 . S
H447 C439 0.960 . S
H448 C440 0.930 . S
H449 C441 0.929 . S
H450 C458 0.929 . S
H451 C460 0.930 . S
H452 C462 0.930 . S
H453 C465 0.929 . S
H454 C468 0.930 . S
H455 C470 0.960 . S
H456 C470 0.960 . S
H457 C470 0.960 . S
C458 H450 0.929 . S
C458 C459 1.377 . S
C458 C460 1.384 . S
C459 C458 1.377 . S
C459 C465 1.390 . S
C460 H451 0.930 . S
C460 C458 1.384 . S
C460 C461 1.372 . S
C461 C460 1.372 . S
C461 C462 1.400 . S
C461 C466 1.490 . S
C462 H452 0.930 . S
C462 C461 1.400 . S
C462 C465 1.386 . S
H463 C479 0.930 . S
H464 C480 0.931 . S
C465 H453 0.929 . S
C465 C459 1.390 . S
C465 C462 1.386 . S
C466 C461 1.490 . S
C466 C468 1.395 . S
C466 C469 1.403 . S
H467 C473 0.930 . S
C468 H454 0.930 . S
C468 C466 1.395 . S
C468 C471 1.403 . S
C469 C466 1.403 . S
C469 C470 1.524 . S
C469 C473 1.400 . S
C470 H455 0.960 . S
C470 H456 0.960 . S
C470 H457 0.960 . S
C470 C469 1.524 . S
C471 C468 1.403 . S
C471 C472 1.392 . S
C471 C475 1.495 . S
C472 C471 1.392 . S
C472 C473 1.385 . S
C472 C474 1.478 . S
C473 H467 0.930 . S
C473 C469 1.400 . S
C473 C472 1.385 . S
C474 C472 1.478 . S
C474 C476 1.381 . S
C474 C480 1.383 . S
C475 C471 1.495 . S
C475 H481 0.959 . S
C475 H482 0.961 . S
C475 H483 0.960 . S
C476 C474 1.381 . S
C476 C477 1.394 . S
C476 H484 0.930 . S
C477 C476 1.394 . S
C477 C478 1.383 . S
C477 H485 0.929 . S
C478 C477 1.383 . S
C478 C479 1.377 . S
C479 H463 0.930 . S
C479 C478 1.377 . S
C479 C480 1.379 . S
C480 H464 0.931 . S
C480 C474 1.383 . S
C480 C479 1.379 . S
H481 C475 0.959 . S
H482 C475 0.961 . S
H483 C475 0.960 . S
H484 C476 0.930 . S
H485 C477 0.929 . S
H486 C494 0.929 . S
H487 C496 0.930 . S
H488 C498 0.930 . S
H489 C501 0.929 . S
H490 C504 0.930 . S
H491 C506 0.960 . S
H492 C506 0.960 . S
H493 C506 0.960 . S
C494 H486 0.929 . S
C494 C495 1.377 . S
C494 C496 1.384 . S
C495 C494 1.377 . S
C495 C501 1.390 . S
C496 H487 0.930 . S
C496 C494 1.384 . S
C496 C497 1.372 . S
C497 C496 1.372 . S
C497 C498 1.400 . S
C497 C502 1.490 . S
C498 H488 0.930 . S
C498 C497 1.400 . S
C498 C501 1.386 . S
H499 C515 0.930 . S
H500 C516 0.931 . S
C501 H489 0.929 . S
C501 C495 1.390 . S
C501 C498 1.386 . S
C502 C497 1.490 . S
C502 C504 1.395 . S
C502 C505 1.403 . S
H503 C509 0.930 . S
C504 H490 0.930 . S
C504 C502 1.395 . S
C504 C507 1.403 . S
C505 C502 1.403 . S
C505 C506 1.524 . S
C505 C509 1.400 . S
C506 H491 0.960 . S
C506 H492 0.960 . S
C506 H493 0.960 . S
C506 C505 1.524 . S
C507 C504 1.403 . S
C507 C508 1.392 . S
C507 C511 1.495 . S
C508 C507 1.392 . S
C508 C509 1.385 . S
C508 C510 1.478 . S
C509 H503 0.930 . S
C509 C505 1.400 . S
C509 C508 1.385 . S
C510 C508 1.478 . S
C510 C512 1.381 . S
C510 C516 1.383 . S
C511 C507 1.495 . S
C511 H517 0.959 . S
C511 H518 0.961 . S
C511 H519 0.960 . S
C512 C510 1.381 . S
C512 C513 1.394 . S
C512 H520 0.930 . S
C513 C512 1.394 . S
C513 C514 1.383 . S
C513 H521 0.929 . S
C514 C513 1.383 . S
C514 C515 1.377 . S
C515 H499 0.930 . S
C515 C514 1.377 . S
C515 C516 1.379 . S
C516 H500 0.931 . S
C516 C510 1.383 . S
C516 C515 1.379 . S
H517 C511 0.959 . S
H518 C511 0.961 . S
H519 C511 0.960 . S
H520 C512 0.930 . S
H521 C513 0.929 . S
H522 C530 0.929 . S
H523 C532 0.930 . S
H524 C534 0.930 . S
H525 C537 0.929 . S
H526 C540 0.930 . S
H527 C542 0.960 . S
H528 C542 0.960 . S
H529 C542 0.960 . S
C530 H522 0.929 . S
C530 C531 1.377 . S
C530 C532 1.384 . S
C531 C530 1.377 . S
C531 C537 1.390 . S
C532 H523 0.930 . S
C532 C530 1.384 . S
C532 C533 1.372 . S
C533 C532 1.372 . S
C533 C534 1.400 . S
C533 C538 1.490 . S
C534 H524 0.930 . S
C534 C533 1.400 . S
C534 C537 1.386 . S
H535 C551 0.930 . S
H536 C552 0.931 . S
C537 H525 0.929 . S
C537 C531 1.390 . S
C537 C534 1.386 . S
C538 C533 1.490 . S
C538 C540 1.395 . S
C538 C541 1.403 . S
H539 C545 0.930 . S
C540 H526 0.930 . S
C540 C538 1.395 . S
C540 C543 1.403 . S
C541 C538 1.403 . S
C541 C542 1.524 . S
C541 C545 1.400 . S
C542 H527 0.960 . S
C542 H528 0.960 . S
C542 H529 0.960 . S
C542 C541 1.524 . S
C543 C540 1.403 . S
C543 C544 1.392 . S
C543 C547 1.495 . S
C544 C543 1.392 . S
C544 C545 1.385 . S
C544 C546 1.478 . S
C545 H539 0.930 . S
C545 C541 1.400 . S
C545 C544 1.385 . S
C546 C544 1.478 . S
C546 C548 1.381 . S
C546 C552 1.383 . S
C547 C543 1.495 . S
C547 H553 0.959 . S
C547 H554 0.961 . S
C547 H555 0.960 . S
C548 C546 1.381 . S
C548 C549 1.394 . S
C548 H556 0.930 . S
C549 C548 1.394 . S
C549 C550 1.383 . S
C549 H557 0.929 . S
C550 C549 1.383 . S
C550 C551 1.377 . S
C551 H535 0.930 . S
C551 C550 1.377 . S
C551 C552 1.379 . S
C552 H536 0.931 . S
C552 C546 1.383 . S
C552 C551 1.379 . S
H553 C547 0.959 . S
H554 C547 0.961 . S
H555 C547 0.960 . S
H556 C548 0.930 . S
H557 C549 0.929 . S
H558 C566 0.929 . S
H559 C568 0.930 . S
H560 C570 0.930 . S
H561 C573 0.929 . S
H562 C576 0.930 . S
H563 C578 0.960 . S
H564 C578 0.960 . S
H565 C578 0.960 . S
C566 H558 0.929 . S
C566 C567 1.377 . S
C566 C568 1.384 . S
C567 C566 1.377 . S
C567 C573 1.390 . S
C568 H559 0.930 . S
C568 C566 1.384 . S
C568 C569 1.372 . S
C569 C568 1.372 . S
C569 C570 1.400 . S
C569 C574 1.490 . S
C570 H560 0.930 . S
C570 C569 1.400 . S
C570 C573 1.386 . S
H571 C587 0.930 . S
H572 C588 0.931 . S
C573 H561 0.929 . S
C573 C567 1.390 . S
C573 C570 1.386 . S
C574 C569 1.490 . S
C574 C576 1.395 . S
C574 C577 1.403 . S
H575 C581 0.930 . S
C576 H562 0.930 . S
C576 C574 1.395 . S
C576 C579 1.403 . S
C577 C574 1.403 . S
C577 C578 1.524 . S
C577 C581 1.400 . S
C578 H563 0.960 . S
C578 H564 0.960 . S
C578 H565 0.960 . S
C578 C577 1.524 . S
C579 C576 1.403 . S
C579 C580 1.392 . S
C579 C583 1.495 . S
C580 C579 1.392 . S
C580 C581 1.385 . S
C580 C582 1.478 . S
C581 H575 0.930 . S
C581 C577 1.400 . S
C581 C580 1.385 . S
C582 C580 1.478 . S
C582 C584 1.381 . S
C582 C588 1.383 . S
C583 C579 1.495 . S
C583 H589 0.959 . S
C583 H590 0.961 . S
C583 H591 0.960 . S
C584 C582 1.381 . S
C584 C585 1.394 . S
C584 H592 0.930 . S
C585 C584 1.394 . S
C585 C586 1.383 . S
C585 H593 0.929 . S
C586 C585 1.383 . S
C586 C587 1.377 . S
C587 H571 0.930 . S
C587 C586 1.377 . S
C587 C588 1.379 . S
C588 H572 0.931 . S
C588 C582 1.383 . S
C588 C587 1.379 . S
H589 C583 0.959 . S
H590 C583 0.961 . S
H591 C583 0.960 . S
H592 C584 0.930 . S
H593 C585 0.929 . S
H594 C602 0.929 . S
H595 C604 0.930 . S
H596 C606 0.930 . S
H597 C609 0.929 . S
H598 C612 0.930 . S
H599 C614 0.960 . S
H600 C614 0.960 . S
H601 C614 0.960 . S
C602 H594 0.929 . S
C602 C603 1.377 . S
C602 C604 1.384 . S
C603 C602 1.377 . S
C603 C609 1.390 . S
C604 H595 0.930 . S
C604 C602 1.384 . S
C604 C605 1.372 . S
C605 C604 1.372 . S
C605 C606 1.400 . S
C605 C610 1.490 . S
C606 H596 0.930 . S
C606 C605 1.400 . S
C606 C609 1.386 . S
H607 C623 0.930 . S
H608 C624 0.931 . S
C609 H597 0.929 . S
C609 C603 1.390 . S
C609 C606 1.386 . S
C610 C605 1.490 . S
C610 C612 1.395 . S
C610 C613 1.403 . S
H611 C617 0.930 . S
C612 H598 0.930 . S
C612 C610 1.395 . S
C612 C615 1.403 . S
C613 C610 1.403 . S
C613 C614 1.524 . S
C613 C617 1.400 . S
C614 H599 0.960 . S
C614 H600 0.960 . S
C614 H601 0.960 . S
C614 C613 1.524 . S
C615 C612 1.403 . S
C615 C616 1.392 . S
C615 C619 1.495 . S
C616 C615 1.392 . S
C616 C617 1.385 . S
C616 C618 1.478 . S
C617 H611 0.930 . S
C617 C613 1.400 . S
C617 C616 1.385 . S
C618 C616 1.478 . S
C618 C620 1.381 . S
C618 C624 1.383 . S
C619 C615 1.495 . S
C619 H625 0.959 . S
C619 H626 0.961 . S
C619 H627 0.960 . S
C620 C618 1.381 . S
C620 C621 1.394 . S
C620 H628 0.930 . S
C621 C620 1.394 . S
C621 C622 1.383 . S
C621 H629 0.929 . S
C622 C621 1.383 . S
C622 C623 1.377 . S
C623 H607 0.930 . S
C623 C622 1.377 . S
C623 C624 1.379 . S
C624 H608 0.931 . S
C624 C618 1.383 . S
C624 C623 1.379 . S
H625 C619 0.959 . S
H626 C619 0.961 . S
H627 C619 0.960 . S
H628 C620 0.930 . S
H629 C621 0.929 . S
H630 C638 0.929 . S
H631 C640 0.930 . S
H632 C642 0.930 . S
H633 C645 0.929 . S
H634 C648 0.930 . S
H635 C650 0.960 . S
H636 C650 0.960 . S
H637 C650 0.960 . S
C638 H630 0.929 . S
C638 C639 1.377 1_655 S
C638 C640 1.384 . S
C639 C638 1.377 1_455 S
C639 C645 1.390 . S
C640 H631 0.930 . S
C640 C638 1.384 . S
C640 C641 1.372 1_655 S
C641 C640 1.372 1_455 S
C641 C642 1.400 . S
C641 C646 1.490 . S
C642 H632 0.930 . S
C642 C641 1.400 . S
C642 C645 1.386 . S
H643 C659 0.930 . S
H644 C660 0.931 . S
C645 H633 0.929 . S
C645 C639 1.390 . S
C645 C642 1.386 . S
C646 C641 1.490 . S
C646 C648 1.395 . S
C646 C649 1.403 . S
H647 C653 0.930 . S
C648 H634 0.930 . S
C648 C646 1.395 . S
C648 C651 1.403 . S
C649 C646 1.403 . S
C649 C650 1.524 . S
C649 C653 1.400 1_554 S
C650 H635 0.960 . S
C650 H636 0.960 . S
C650 H637 0.960 . S
C650 C649 1.524 . S
C651 C648 1.403 . S
C651 C652 1.392 1_554 S
C651 C655 1.495 1_554 S
C652 C651 1.392 1_556 S
C652 C653 1.385 . S
C652 C654 1.478 . S
C653 H647 0.930 . S
C653 C649 1.400 1_556 S
C653 C652 1.385 . S
C654 C652 1.478 . S
C654 C656 1.381 . S
C654 C660 1.383 . S
C655 C651 1.495 1_556 S
C655 H661 0.959 1_456 S
C655 H662 0.961 . S
C655 H663 0.960 1_455 S
C656 C654 1.381 . S
C656 C657 1.394 . S
C656 H664 0.930 1_455 S
C657 C656 1.394 . S
C657 C658 1.383 . S
C657 H665 0.929 1_455 S
C658 C657 1.383 . S
C658 C659 1.377 . S
C659 H643 0.930 . S
C659 C658 1.377 . S
C659 C660 1.379 . S
C660 H644 0.931 . S
C660 C654 1.383 . S
C660 C659 1.379 . S
H661 C655 0.959 1_654 S
H662 C655 0.961 . S
H663 C655 0.960 1_655 S
H664 C656 0.930 1_655 S
H665 C657 0.929 1_655 S
H666 C674 0.929 . S
H667 C676 0.930 . S
H668 C678 0.930 1_565 S
H669 C681 0.929 1_565 S
H670 C684 0.930 . S
H671 C686 0.960 . S
H672 C686 0.960 . S
H673 C686 0.960 . S
C674 H666 0.929 . S
C674 C675 1.377 . S
C674 C676 1.384 . S
C675 C674 1.377 . S
C675 C681 1.390 . S
C676 H667 0.930 . S
C676 C674 1.384 . S
C676 C677 1.372 . S
C677 C676 1.372 . S
C677 C678 1.400 . S
C677 C682 1.490 . S
C678 H668 0.930 1_545 S
C678 C677 1.400 . S
C678 C681 1.386 . S
H679 C695 0.930 . S
H680 C696 0.931 . S
C681 H669 0.929 1_545 S
C681 C675 1.390 . S
C681 C678 1.386 . S
C682 C677 1.490 . S
C682 C684 1.395 . S
C682 C685 1.403 . S
H683 C689 0.930 . S
C684 H670 0.930 . S
C684 C682 1.395 . S
C684 C687 1.403 . S
C685 C682 1.403 . S
C685 C686 1.524 . S
C685 C689 1.400 . S
C686 H671 0.960 . S
C686 H672 0.960 . S
C686 H673 0.960 . S
C686 C685 1.524 . S
C687 C684 1.403 . S
C687 C688 1.392 . S
C687 C691 1.495 . S
C688 C687 1.392 . S
C688 C689 1.385 . S
C688 C690 1.478 . S
C689 H683 0.930 . S
C689 C685 1.400 . S
C689 C688 1.385 . S
C690 C688 1.478 . S
C690 C692 1.381 . S
C690 C696 1.383 1_545 S
C691 C687 1.495 . S
C691 H697 0.959 . S
C691 H698 0.961 1_545 S
C691 H699 0.960 . S
C692 C690 1.381 . S
C692 C693 1.394 . S
C692 H700 0.930 . S
C693 C692 1.394 . S
C693 C694 1.383 . S
C693 H701 0.929 . S
C694 C693 1.383 . S
C694 C695 1.377 1_545 S
C695 H679 0.930 . S
C695 C694 1.377 1_565 S
C695 C696 1.379 . S
C696 H680 0.931 . S
C696 C690 1.383 1_565 S
C696 C695 1.379 . S
H697 C691 0.959 . S
H698 C691 0.961 1_565 S
H699 C691 0.960 . S
H700 C692 0.930 . S
H701 C693 0.929 . S
H702 C710 0.929 . S
H703 C712 0.930 . S
H704 C714 0.930 . S
H705 C717 0.929 . S
H706 C720 0.930 . S
H707 C722 0.960 . S
H708 C722 0.960 . S
H709 C722 0.960 . S
C710 H702 0.929 . S
C710 C711 1.377 . S
C710 C712 1.384 . S
C711 C710 1.377 . S
C711 C717 1.390 . S
C712 H703 0.930 . S
C712 C710 1.384 . S
C712 C713 1.372 . S
C713 C712 1.372 . S
C713 C714 1.400 . S
C713 C718 1.490 . S
C714 H704 0.930 . S
C714 C713 1.400 . S
C714 C717 1.386 . S
H715 C731 0.930 . S
H716 C732 0.931 . S
C717 H705 0.929 . S
C717 C711 1.390 . S
C717 C714 1.386 . S
C718 C713 1.490 . S
C718 C720 1.395 . S
C718 C721 1.403 . S
H719 C725 0.930 . S
C720 H706 0.930 . S
C720 C718 1.395 . S
C720 C723 1.403 . S
C721 C718 1.403 . S
C721 C722 1.524 . S
C721 C725 1.400 . S
C722 H707 0.960 . S
C722 H708 0.960 . S
C722 H709 0.960 . S
C722 C721 1.524 . S
C723 C720 1.403 . S
C723 C724 1.392 . S
C723 C727 1.495 . S
C724 C723 1.392 . S
C724 C725 1.385 . S
C724 C726 1.478 . S
C725 H719 0.930 . S
C725 C721 1.400 . S
C725 C724 1.385 . S
C726 C724 1.478 . S
C726 C728 1.381 . S
C726 C732 1.383 . S
C727 C723 1.495 . S
C727 H733 0.959 . S
C727 H734 0.961 . S
C727 H735 0.960 . S
C728 C726 1.381 . S
C728 C729 1.394 . S
C728 H736 0.930 . S
C729 C728 1.394 . S
C729 C730 1.383 . S
C729 H737 0.929 . S
C730 C729 1.383 . S
C730 C731 1.377 . S
C731 H715 0.930 . S
C731 C730 1.377 . S
C731 C732 1.379 . S
C732 H716 0.931 . S
C732 C726 1.383 . S
C732 C731 1.379 . S
H733 C727 0.959 . S
H734 C727 0.961 . S
H735 C727 0.960 . S
H736 C728 0.930 . S
H737 C729 0.929 . S
H738 C746 0.929 . S
H739 C748 0.930 . S
H740 C750 0.930 . S
H741 C753 0.929 . S
H742 C756 0.930 . S
H743 C758 0.960 . S
H744 C758 0.960 . S
H745 C758 0.960 . S
C746 H738 0.929 . S
C746 C747 1.377 . S
C746 C748 1.384 . S
C747 C746 1.377 . S
C747 C753 1.390 . S
C748 H739 0.930 . S
C748 C746 1.384 . S
C748 C749 1.372 . S
C749 C748 1.372 . S
C749 C750 1.400 . S
C749 C754 1.490 . S
C750 H740 0.930 . S
C750 C749 1.400 . S
C750 C753 1.386 . S
H751 C767 0.930 . S
H752 C768 0.931 . S
C753 H741 0.929 . S
C753 C747 1.390 . S
C753 C750 1.386 . S
C754 C749 1.490 . S
C754 C756 1.395 . S
C754 C757 1.404 . S
H755 C761 0.930 1_565 S
C756 H742 0.930 . S
C756 C754 1.395 . S
C756 C759 1.403 . S
C757 C754 1.404 . S
C757 C758 1.521 1_545 S
C757 C761 1.401 . S
C758 H743 0.960 . S
C758 H744 0.960 . S
C758 H745 0.960 . S
C758 C757 1.521 1_565 S
C759 C756 1.403 . S
C759 C760 1.392 . S
C759 C763 1.495 . S
C760 C759 1.392 . S
C760 C761 1.385 . S
C760 C762 1.478 . S
C761 H755 0.930 1_545 S
C761 C757 1.401 . S
C761 C760 1.385 . S
C762 C760 1.478 . S
C762 C764 1.381 . S
C762 C768 1.383 . S
C763 C759 1.495 . S
C763 H769 0.959 . S
C763 H770 0.961 . S
C763 H771 0.960 . S
C764 C762 1.381 . S
C764 C765 1.394 . S
C764 H772 0.930 . S
C765 C764 1.394 . S
C765 C766 1.383 . S
C765 H773 0.929 . S
C766 C765 1.383 . S
C766 C767 1.377 . S
C767 H751 0.930 . S
C767 C766 1.377 . S
C767 C768 1.379 . S
C768 H752 0.931 . S
C768 C762 1.383 . S
C768 C767 1.379 . S
H769 C763 0.959 . S
H770 C763 0.961 . S
H771 C763 0.960 . S
H772 C764 0.930 . S
H773 C765 0.929 . S
H774 C782 0.929 . S
H775 C784 0.930 . S
H776 C786 0.930 . S
H777 C789 0.929 . S
H778 C792 0.930 . S
H779 C794 0.960 . S
H780 C794 0.960 . S
H781 C794 0.960 . S
C782 H774 0.929 . S
C782 C783 1.377 . S
C782 C784 1.384 . S
C783 C782 1.377 . S
C783 C789 1.390 . S
C784 H775 0.930 . S
C784 C782 1.384 . S
C784 C785 1.372 . S
C785 C784 1.372 . S
C785 C786 1.400 . S
C785 C790 1.490 . S
C786 H776 0.930 . S
C786 C785 1.400 . S
C786 C789 1.386 . S
H787 C803 0.930 . S
H788 C804 0.931 . S
C789 H777 0.929 . S
C789 C783 1.390 . S
C789 C786 1.386 . S
C790 C785 1.490 . S
C790 C792 1.395 . S
C790 C793 1.403 . S
H791 C797 0.930 1_554 S
C792 H778 0.930 . S
C792 C790 1.395 . S
C792 C795 1.403 1_556 S
C793 C790 1.403 . S
C793 C794 1.524 . S
C793 C797 1.400 . S
C794 H779 0.960 . S
C794 H780 0.960 . S
C794 H781 0.960 . S
C794 C793 1.524 . S
C795 C792 1.403 1_554 S
C795 C796 1.392 . S
C795 C799 1.495 . S
C796 C795 1.392 . S
C796 C797 1.385 1_554 S
C796 C798 1.478 . S
C797 H791 0.930 1_556 S
C797 C793 1.400 . S
C797 C796 1.385 1_556 S
C798 C796 1.478 . S
C798 C800 1.381 . S
C798 C804 1.383 . S
C799 C795 1.495 . S
C799 H805 0.959 . S
C799 H806 0.961 . S
C799 H807 0.960 . S
C800 C798 1.381 . S
C800 C801 1.394 . S
C800 H808 0.930 . S
C801 C800 1.394 . S
C801 C802 1.383 . S
C801 H809 0.929 . S
C802 C801 1.383 . S
C802 C803 1.377 . S
C803 H787 0.930 . S
C803 C802 1.377 . S
C803 C804 1.379 . S
C804 H788 0.931 . S
C804 C798 1.383 . S
C804 C803 1.379 . S
H805 C799 0.959 . S
H806 C799 0.961 . S
H807 C799 0.960 . S
H808 C800 0.930 . S
H809 C801 0.929 . S
H810 C818 0.929 . S
H811 C820 0.930 . S
H812 C822 0.930 . S
H813 C825 0.929 . S
H814 C828 0.930 . S
H815 C830 0.960 . S
H816 C830 0.960 . S
H817 C830 0.960 . S
C818 H810 0.929 . S
C818 C819 1.377 1_455 S
C818 C820 1.384 . S
C819 C818 1.377 1_655 S
C819 C825 1.390 . S
C820 H811 0.930 . S
C820 C818 1.384 . S
C820 C821 1.372 1_455 S
C821 C820 1.372 1_655 S
C821 C822 1.400 . S
C821 C826 1.489 . S
C822 H812 0.930 . S
C822 C821 1.400 . S
C822 C825 1.386 . S
H823 C839 0.930 . S
H824 C840 0.931 . S
C825 H813 0.929 . S
C825 C819 1.390 . S
C825 C822 1.386 . S
C826 C821 1.489 . S
C826 C828 1.385 1_655 S
C826 C829 1.413 . S
H827 C833 0.930 . S
C828 H814 0.930 . S
C828 C826 1.385 1_455 S
C828 C831 1.403 . S
C829 C826 1.413 . S
C829 C830 1.524 . S
C829 C833 1.400 . S
C830 H815 0.960 . S
C830 H816 0.960 . S
C830 H817 0.960 . S
C830 C829 1.524 . S
C831 C828 1.403 . S
C831 C832 1.392 . S
C831 C835 1.495 . S
C832 C831 1.392 . S
C832 C833 1.385 1_455 S
C832 C834 1.478 . S
C833 H827 0.930 . S
C833 C829 1.400 . S
C833 C832 1.385 1_655 S
C834 C832 1.478 . S
C834 C836 1.381 . S
C834 C840 1.383 1_455 S
C835 C831 1.495 . S
C835 H841 0.959 . S
C835 H842 0.961 . S
C835 H843 0.960 . S
C836 C834 1.381 . S
C836 C837 1.394 . S
C836 H844 0.930 . S
C837 C836 1.394 . S
C837 C838 1.383 . S
C837 H845 0.929 . S
C838 C837 1.383 . S
C838 C839 1.377 1_455 S
C839 H823 0.930 . S
C839 C838 1.377 1_655 S
C839 C840 1.379 . S
C840 H824 0.931 . S
C840 C834 1.383 1_655 S
C840 C839 1.379 . S
H841 C835 0.959 . S
H842 C835 0.961 . S
H843 C835 0.960 . S
H844 C836 0.930 . S
H845 C837 0.929 . S
C207 C25 0.256 . S
C226 N187 0.246 . S
C243 C65 0.249 . S
C262 N160 0.205 . S
C279 C105 0.309 . S
C298 N173 0.262 . S
C315 C4 0.434 . S
C334 N186 0.457 . S
C370 N161 0.439 . S
C351 C44 0.420 . S
C406 N174 0.431 . S
C387 C84 0.394 . S
C423 C60 2.779 . S
C442 N134 2.767 . S
C459 C100 2.711 . S
C478 N148 2.648 1_655 S
C495 C31 3.088 . S
C514 N122 3.071 . S
C550 N135 3.072 . S
C531 C71 3.095 . S
C586 N147 3.216 . S
C567 C111 3.194 . S
C603 C20 2.783 . S
C622 N121 2.769 . S
C658 N151 1.754 . S
C639 C2 1.749 . S
C675 C42 1.710 . S
C694 N125 1.758 . S
C711 C82 1.714 . S
C730 N138 1.774 . S
C766 N177 1.253 . S
C747 C63 1.274 . S
C802 N190 1.283 . S
C783 C103 1.287 . S
C819 C23 1.279 1_655 S
C838 N164 1.270 . S
