# Generated by pormake.
# Topology pyr, (3,6)-cn, num edge types: 1
# Building blocks:
#     Node 0, Type 0, BuildingBlock: MIDCAF_clean_linker_0, # of connection points: 3
#     Node 1, Type 0, BuildingBlock: MIDCAF_clean_linker_0, # of connection points: 3
#     Node 2, Type 0, BuildingBlock: MIDCAF_clean_linker_0, # of connection points: 3
#     Node 3, Type 0, BuildingBlock: MIDCAF_clean_linker_0, # of connection points: 3
#     Node 4, Type 0, BuildingBlock: MIDCAF_clean_linker_0, # of connection points: 3
#     Node 5, Type 0, BuildingBlock: MIDCAF_clean_linker_0, # of connection points: 3
#     Node 6, Type 0, BuildingBlock: MIDCAF_clean_linker_0, # of connection points: 3
#     Node 7, Type 0, BuildingBlock: MIDCAF_clean_linker_0, # of connection points: 3
#     Node 8, Type 1, BuildingBlock: INOVEN_clean_sbu_0, # of connection points: 6
#     Node 9, Type 1, BuildingBlock: INOVEN_clean_sbu_0, # of connection points: 6
#     Node 10, Type 1, BuildingBlock: INOVEN_clean_sbu_0, # of connection points: 6
#     Node 11, Type 1, BuildingBlock: INOVEN_clean_sbu_0, # of connection points: 6
#     Edge 12, Type (0, 1), BuildingBlock: TEMPAE_clean_linker_10, # of connection points: 2
#     Edge 13, Type (0, 1), BuildingBlock: TEMPAE_clean_linker_10, # of connection points: 2
#     Edge 14, Type (0, 1), BuildingBlock: TEMPAE_clean_linker_10, # of connection points: 2
#     Edge 15, Type (0, 1), BuildingBlock: TEMPAE_clean_linker_10, # of connection points: 2
#     Edge 16, Type (0, 1), BuildingBlock: TEMPAE_clean_linker_10, # of connection points: 2
#     Edge 17, Type (0, 1), BuildingBlock: TEMPAE_clean_linker_10, # of connection points: 2
#     Edge 18, Type (0, 1), BuildingBlock: TEMPAE_clean_linker_10, # of connection points: 2
#     Edge 19, Type (0, 1), BuildingBlock: TEMPAE_clean_linker_10, # of connection points: 2
#     Edge 20, Type (0, 1), BuildingBlock: TEMPAE_clean_linker_10, # of connection points: 2
#     Edge 21, Type (0, 1), BuildingBlock: TEMPAE_clean_linker_10, # of connection points: 2
#     Edge 22, Type (0, 1), BuildingBlock: TEMPAE_clean_linker_10, # of connection points: 2
#     Edge 23, Type (0, 1), BuildingBlock: TEMPAE_clean_linker_10, # of connection points: 2
#     Edge 24, Type (0, 1), BuildingBlock: TEMPAE_clean_linker_10, # of connection points: 2
#     Edge 25, Type (0, 1), BuildingBlock: TEMPAE_clean_linker_10, # of connection points: 2
#     Edge 26, Type (0, 1), BuildingBlock: TEMPAE_clean_linker_10, # of connection points: 2
#     Edge 27, Type (0, 1), BuildingBlock: TEMPAE_clean_linker_10, # of connection points: 2
#     Edge 28, Type (0, 1), BuildingBlock: TEMPAE_clean_linker_10, # of connection points: 2
#     Edge 29, Type (0, 1), BuildingBlock: TEMPAE_clean_linker_10, # of connection points: 2
#     Edge 30, Type (0, 1), BuildingBlock: TEMPAE_clean_linker_10, # of connection points: 2
#     Edge 31, Type (0, 1), BuildingBlock: TEMPAE_clean_linker_10, # of connection points: 2
#     Edge 32, Type (0, 1), BuildingBlock: TEMPAE_clean_linker_10, # of connection points: 2
#     Edge 33, Type (0, 1), BuildingBlock: TEMPAE_clean_linker_10, # of connection points: 2
#     Edge 34, Type (0, 1), BuildingBlock: TEMPAE_clean_linker_10, # of connection points: 2
#     Edge 35, Type (0, 1), BuildingBlock: TEMPAE_clean_linker_10, # of connection points: 2
# Relax obj value: 0.093
# Max RMSD: 0.127
# Mean RMSD: 0.059
data_MOF--net-pyr--node1-INOVEN_clean_sbu_0--node2-MIDCAF_clean_linker_0--edge1-TEMPAE_clean_linker_10
_symmetry_space_group_name_H-M    P1
_symmetry_Int_Tables_number       1
_symmetry_cell_setting            triclinic
loop_
_symmetry_equiv_pos_as_xyz
'x, y, z'
_cell_length_a     46.505008
_cell_length_b     49.514669
_cell_length_c     44.854929
_cell_angle_alpha  90.97173
_cell_angle_beta   88.592472
_cell_angle_gamma 100.18246
loop_
_atom_site_label
_atom_site_type_symbol
_atom_site_fract_x
_atom_site_fract_y
_atom_site_fract_z
_atom_type_partial_charge
C0 C 0.2639 0.26615 0.30325 0.0
C1 C 0.26997 0.24383 0.31943 0.0
C2 C 0.29683 0.23504 0.31423 0.0
C3 C 0.31613 0.24689 0.29179 0.0
H4 H 0.37054 0.22027 0.23199 0.0
H5 H 0.40077 0.18941 0.21103 0.0
H6 H 0.42688 0.24509 0.13818 0.0
H7 H 0.39547 0.2758 0.15871 0.0
H8 H 0.33095 0.30594 0.14264 0.0
H9 H 0.30387 0.33435 0.1138 0.0
H10 H 0.28359 0.37627 0.19476 0.0
H11 H 0.31052 0.34816 0.22336 0.0
H12 H 0.27715 0.29443 0.26807 0.0
H13 H 0.24335 0.27335 0.30646 0.0
H14 H 0.30248 0.2183 0.32678 0.0
H15 H 0.336 0.23878 0.28747 0.0
N16 N 0.34664 0.26242 0.23608 0.0
N17 N 0.35291 0.28893 0.1927 0.0
N18 N 0.31999 0.29776 0.23063 0.0
C19 C 0.36007 0.26826 0.20911 0.0
C20 C 0.33306 0.30397 0.20362 0.0
C21 C 0.32659 0.27704 0.24701 0.0
C22 C 0.38038 0.25058 0.197 0.0
C23 C 0.38283 0.22619 0.2116 0.0
C24 C 0.40044 0.20847 0.19966 0.0
C25 C 0.41642 0.21471 0.17292 0.0
C26 C 0.41457 0.23943 0.15861 0.0
C27 C 0.39667 0.25712 0.17046 0.0
C28 C 0.32258 0.32464 0.18528 0.0
C29 C 0.32142 0.32177 0.15409 0.0
C30 C 0.30575 0.33788 0.13763 0.0
C31 C 0.29141 0.35737 0.15206 0.0
C32 C 0.29455 0.3616 0.18293 0.0
C33 C 0.30984 0.34534 0.19936 0.0
C34 C 0.30908 0.26795 0.27422 0.0
C35 C 0.28329 0.27817 0.28102 0.0
C36 C 0.19022 0.91183 0.65323 0.0
C37 C 0.19393 0.91367 0.62208 0.0
C38 C 0.20731 0.89402 0.60673 0.0
C39 C 0.21609 0.87264 0.62211 0.0
H40 H 0.25655 0.8026 0.61297 0.0
H41 H 0.27657 0.76491 0.58908 0.0
H42 H 0.2523 0.71522 0.66686 0.0
H43 H 0.23284 0.75295 0.69109 0.0
H44 H 0.26483 0.80155 0.74936 0.0
H45 H 0.28215 0.81392 0.79939 0.0
H46 H 0.22971 0.87777 0.80407 0.0
H47 H 0.21301 0.86598 0.75374 0.0
H48 H 0.19563 0.88973 0.69254 0.0
H49 H 0.17945 0.92623 0.66573 0.0
H50 H 0.21083 0.89503 0.58279 0.0
H51 H 0.22614 0.85773 0.60961 0.0
N52 N 0.22701 0.82537 0.65487 0.0
N53 N 0.2379 0.80678 0.70018 0.0
N54 N 0.22329 0.84965 0.69971 0.0
C55 C 0.23526 0.80461 0.67009 0.0
C56 C 0.23195 0.82927 0.71515 0.0
C57 C 0.22074 0.84787 0.66963 0.0
C58 C 0.24344 0.78077 0.65401 0.0
C59 C 0.25496 0.78345 0.62473 0.0
C60 C 0.26639 0.76196 0.61105 0.0
C61 C 0.26582 0.73729 0.62618 0.0
C62 C 0.25267 0.734 0.65468 0.0
C63 C 0.24181 0.75564 0.6686 0.0
C64 C 0.23798 0.83314 0.74732 0.0
C65 C 0.25652 0.81787 0.76126 0.0
C66 C 0.26637 0.82488 0.79003 0.0
C67 C 0.25768 0.84713 0.8055 0.0
C68 C 0.23733 0.86094 0.79244 0.0
C69 C 0.22769 0.85411 0.76362 0.0
C70 C 0.21195 0.87064 0.6532 0.0
C71 C 0.19926 0.89068 0.6686 0.0
C72 C 0.64639 0.26113 0.90961 0.0
C73 C 0.61862 0.24699 0.90152 0.0
C74 C 0.60325 0.2595 0.88042 0.0
C75 C 0.61532 0.28515 0.86788 0.0
H76 H 0.61141 0.34191 0.79328 0.0
H77 H 0.59239 0.36317 0.75091 0.0
H78 H 0.6517 0.43876 0.76911 0.0
H79 H 0.67121 0.41734 0.81055 0.0
H80 H 0.71311 0.42237 0.87244 0.0
H81 H 0.7574 0.44603 0.89701 0.0
H82 H 0.78099 0.36797 0.91658 0.0
H83 H 0.73641 0.34428 0.89302 0.0
H84 H 0.67967 0.29662 0.90454 0.0
H85 H 0.65889 0.25266 0.92601 0.0
H86 H 0.58194 0.24931 0.8733 0.0
H87 H 0.60275 0.29397 0.85183 0.0
N88 N 0.64377 0.33896 0.84135 0.0
N89 N 0.68077 0.37815 0.84431 0.0
N90 N 0.68118 0.34115 0.87616 0.0
C91 C 0.65602 0.36453 0.83119 0.0
C92 C 0.6936 0.36659 0.86667 0.0
C93 C 0.65622 0.32713 0.86404 0.0
C94 C 0.64309 0.37765 0.80565 0.0
C95 C 0.62041 0.36308 0.78831 0.0
C96 C 0.60933 0.37545 0.7639 0.0
C97 C 0.62041 0.40291 0.75596 0.0
C98 C 0.64281 0.41749 0.77366 0.0
C99 C 0.65396 0.40513 0.79786 0.0
C100 C 0.72103 0.38135 0.88072 0.0
C101 C 0.72773 0.41023 0.88196 0.0
C102 C 0.75305 0.42381 0.89615 0.0
C103 C 0.77277 0.4089 0.90875 0.0
C104 C 0.76635 0.38008 0.90703 0.0
C105 C 0.7407 0.36651 0.89358 0.0
C106 C 0.64306 0.29928 0.87622 0.0
C107 C 0.65831 0.28669 0.89729 0.0
C108 C 0.77007 0.64812 0.42601 0.0
C109 C 0.75022 0.6285 0.41038 0.0
C110 C 0.75673 0.62306 0.38028 0.0
C111 C 0.7826 0.63665 0.36632 0.0
H112 H 0.8414 0.63245 0.29303 0.0
H113 H 0.86255 0.61099 0.25043 0.0
H114 H 0.94594 0.66258 0.26554 0.0
H115 H 0.92469 0.68444 0.30816 0.0
H116 H 0.92611 0.73241 0.37428 0.0
H117 H 0.94603 0.77661 0.3972 0.0
H118 H 0.85878 0.79572 0.40431 0.0
H119 H 0.83922 0.75075 0.38402 0.0
H120 H 0.81014 0.67721 0.42471 0.0
H121 H 0.76566 0.65297 0.44913 0.0
H122 H 0.74195 0.60802 0.36763 0.0
H123 H 0.78697 0.63182 0.34319 0.0
N124 N 0.84229 0.66022 0.34336 0.0
N125 N 0.88089 0.69813 0.34216 0.0
N126 N 0.84272 0.69642 0.3779 0.0
C127 C 0.86792 0.67325 0.33068 0.0
C128 C 0.86816 0.71 0.36559 0.0
C129 C 0.82971 0.67146 0.3672 0.0
C130 C 0.88122 0.66032 0.30431 0.0
C131 C 0.86426 0.63935 0.28738 0.0
C132 C 0.87638 0.62708 0.26272 0.0
C133 C 0.90602 0.63498 0.25434 0.0
C134 C 0.9231 0.65581 0.27135 0.0
C135 C 0.91083 0.66847 0.29577 0.0
C136 C 0.88104 0.73787 0.37747 0.0
C137 C 0.9113 0.74615 0.38084 0.0
C138 C 0.92272 0.77182 0.39391 0.0
C139 C 0.90431 0.79045 0.40323 0.0
C140 C 0.87403 0.78218 0.39873 0.0
C141 C 0.86264 0.75627 0.38661 0.0
C142 C 0.80228 0.65657 0.38188 0.0
C143 C 0.79553 0.66215 0.4119 0.0
C144 C 0.63464 0.84036 0.85822 0.0
C145 C 0.62013 0.83451 0.88585 0.0
C146 C 0.62141 0.80928 0.89934 0.0
C147 C 0.63738 0.79072 0.88587 0.0
H148 H 0.70585 0.7438 0.9088 0.0
H149 H 0.73544 0.71684 0.9364 0.0
H150 H 0.74814 0.67038 0.85633 0.0
H151 H 0.71881 0.69722 0.82879 0.0
H152 H 0.74651 0.74894 0.7787 0.0
H153 H 0.77555 0.76792 0.73607 0.0
H154 H 0.71146 0.81857 0.71758 0.0
H155 H 0.68289 0.80038 0.76135 0.0
H156 H 0.66148 0.82727 0.82358 0.0
H157 H 0.6347 0.85974 0.84738 0.0
H158 H 0.61013 0.80384 0.92037 0.0
H159 H 0.6382 0.77165 0.89701 0.0
N160 N 0.67935 0.75825 0.86091 0.0
N161 N 0.70712 0.74661 0.81983 0.0
N162 N 0.68026 0.78204 0.81594 0.0
C163 C 0.69756 0.74228 0.84847 0.0
C164 C 0.69859 0.76639 0.80338 0.0
C165 C 0.67035 0.77803 0.84457 0.0
C166 C 0.71023 0.72278 0.86657 0.0
C167 C 0.71433 0.72737 0.8973 0.0
C168 C 0.73142 0.71209 0.91305 0.0
C169 C 0.74424 0.69168 0.89844 0.0
C170 C 0.7384 0.68585 0.86822 0.0
C171 C 0.72172 0.70134 0.85242 0.0
C172 C 0.71266 0.77357 0.77389 0.0
C173 C 0.73822 0.76373 0.76528 0.0
C174 C 0.75486 0.77452 0.74056 0.0
C175 C 0.74615 0.79515 0.72355 0.0
C176 C 0.71922 0.80322 0.73063 0.0
C177 C 0.70275 0.79268 0.75565 0.0
C178 C 0.65212 0.79681 0.85841 0.0
C179 C 0.65023 0.82171 0.84461 0.0
C180 C 0.81333 0.21763 0.25213 0.0
C181 C 0.79143 0.23043 0.24054 0.0
C182 C 0.7859 0.25489 0.25397 0.0
C183 C 0.80088 0.26555 0.2794 0.0
H184 H 0.82336 0.33644 0.33965 0.0
H185 H 0.79796 0.37005 0.36461 0.0
H186 H 0.80022 0.32861 0.44809 0.0
H187 H 0.82623 0.29531 0.4235 0.0
H188 H 0.88842 0.259 0.41624 0.0
H189 H 0.90677 0.2251 0.44625 0.0
H190 H 0.87259 0.16143 0.38318 0.0
H191 H 0.85459 0.19509 0.35294 0.0
H192 H 0.84411 0.21715 0.28659 0.0
H193 H 0.81793 0.19863 0.24244 0.0
H194 H 0.76937 0.26536 0.24529 0.0
H195 H 0.79529 0.28388 0.2898 0.0
N196 N 0.82814 0.28361 0.3353 0.0
N197 N 0.8508 0.27278 0.3786 0.0
N198 N 0.84821 0.2435 0.33676 0.0
C199 C 0.83661 0.28998 0.36372 0.0
C200 C 0.8569 0.24961 0.36514 0.0
C201 C 0.83396 0.26045 0.3216 0.0
C202 C 0.82654 0.31311 0.37956 0.0
C203 C 0.81915 0.33493 0.36348 0.0
C204 C 0.80481 0.35424 0.37774 0.0
C205 C 0.7972 0.35173 0.40815 0.0
C206 C 0.80602 0.3309 0.42461 0.0
C207 C 0.8209 0.31193 0.4105 0.0
C208 C 0.87 0.22974 0.38223 0.0
C209 C 0.88504 0.23782 0.40865 0.0
C210 C 0.8956 0.2185 0.42577 0.0
C211 C 0.89085 0.19074 0.41704 0.0
C212 C 0.87628 0.18273 0.39045 0.0
C213 C 0.86617 0.20205 0.37308 0.0
C214 C 0.82156 0.25182 0.29208 0.0
C215 C 0.8282 0.22818 0.27762 0.0
C216 C 0.26998 0.63033 0.18406 0.0
C217 C 0.26089 0.63997 0.15705 0.0
C218 C 0.2782 0.66346 0.14453 0.0
C219 C 0.30363 0.67686 0.15849 0.0
H220 H 0.35852 0.74987 0.15895 0.0
H221 H 0.38041 0.79381 0.13809 0.0
H222 H 0.45476 0.79696 0.1945 0.0
H223 H 0.43279 0.75239 0.21549 0.0
H224 H 0.43275 0.69339 0.25921 0.0
H225 H 0.45179 0.67074 0.30044 0.0
H226 H 0.36594 0.62264 0.3164 0.0
H227 H 0.34763 0.64416 0.27435 0.0
H228 H 0.30184 0.63544 0.21858 0.0
H229 H 0.25747 0.61221 0.19434 0.0
H230 H 0.27187 0.67181 0.12403 0.0
H231 H 0.31611 0.69488 0.14798 0.0
N232 N 0.35442 0.70613 0.18932 0.0
N233 N 0.39066 0.70818 0.22537 0.0
N234 N 0.35154 0.67069 0.22384 0.0
C235 C 0.37946 0.71974 0.20168 0.0
C236 C 0.37674 0.68361 0.23672 0.0
C237 C 0.34028 0.68166 0.19999 0.0
C238 C 0.39369 0.74715 0.18915 0.0
C239 C 0.37956 0.75972 0.1671 0.0
C240 C 0.39211 0.78527 0.15514 0.0
C241 C 0.41943 0.79938 0.16453 0.0
C242 C 0.43381 0.7868 0.18642 0.0
C243 C 0.42109 0.76119 0.19864 0.0
C244 C 0.38857 0.67067 0.26301 0.0
C245 C 0.41794 0.67796 0.27151 0.0
C246 C 0.42885 0.66493 0.29552 0.0
C247 C 0.41071 0.64439 0.31232 0.0
C248 C 0.38117 0.63762 0.304 0.0
C249 C 0.37044 0.65028 0.27976 0.0
C250 C 0.31287 0.66718 0.18541 0.0
C251 C 0.29562 0.64363 0.19793 0.0
C252 C 0.13868 0.27921 0.64335 0.0
C253 C 0.11499 0.26223 0.65758 0.0
C254 C 0.10391 0.27207 0.68448 0.0
C255 C 0.11641 0.29776 0.69684 0.0
H256 H 0.10139 0.36633 0.75682 0.0
H257 H 0.08146 0.38829 0.80015 0.0
H258 H 0.16606 0.43798 0.81446 0.0
H259 H 0.18592 0.41639 0.77116 0.0
H260 H 0.23738 0.41901 0.7184 0.0
H261 H 0.28289 0.4417 0.69412 0.0
H262 H 0.25955 0.39519 0.61345 0.0
H263 H 0.21441 0.3723 0.63763 0.0
H264 H 0.16942 0.31684 0.64379 0.0
H265 H 0.14758 0.27293 0.62234 0.0
H266 H 0.08589 0.25968 0.6964 0.0
H267 H 0.10745 0.30433 0.71769 0.0
N268 N 0.14371 0.35261 0.72091 0.0
N269 N 0.18312 0.3898 0.71989 0.0
N270 N 0.18007 0.35515 0.6832 0.0
C271 C 0.15769 0.37685 0.73304 0.0
C272 C 0.1944 0.37922 0.69485 0.0
C273 C 0.1549 0.34149 0.696 0.0
C274 C 0.14537 0.38947 0.76021 0.0
C275 C 0.11582 0.38186 0.76923 0.0
C276 C 0.10431 0.3946 0.79405 0.0
C277 C 0.12208 0.41499 0.811 0.0
C278 C 0.1517 0.42226 0.80223 0.0
C279 C 0.16307 0.4099 0.77717 0.0
C280 C 0.22205 0.39369 0.6801 0.0
C281 C 0.24188 0.41364 0.69546 0.0
C282 C 0.26809 0.42659 0.68157 0.0
C283 C 0.27494 0.42037 0.65175 0.0
C284 C 0.25493 0.40071 0.63632 0.0
C285 C 0.22905 0.38743 0.65032 0.0
C286 C 0.14042 0.31446 0.68273 0.0
C287 C 0.15117 0.30473 0.65568 0.0
Gd288 Gd 0.01869 0.03977 0.50028 0.0
Gd289 Gd 0.99753 1.01564 0.56083 0.0
C290 C 0.03138 0.07711 0.55984 0.0
C291 C 0.02791 0.06223 0.44887 0.0
C292 C 0.05214 0.08264 0.43686 0.0
C293 C 0.08127 0.08038 0.4421 0.0
C294 C 0.04625 0.10549 0.42166 0.0
C295 C 0.09838 0.12357 0.417 0.0
C296 C 0.06917 0.12581 0.41179 0.0
C297 C 0.10412 0.10053 0.43213 0.0
C298 C 0.06155 1.02576 0.53328 0.0
C299 C 0.98311 0.97679 0.50149 0.0
C300 C 0.98285 0.98549 0.60716 0.0
C301 C 0.95939 0.96204 0.61335 0.0
C302 C 0.93101 0.96164 0.60314 0.0
C303 C 0.96538 0.93966 0.62929 0.0
C304 C 0.91438 0.91742 0.62641 0.0
C305 C 0.94311 0.91748 0.63568 0.0
C306 C 0.9087 0.93966 0.60979 0.0
C307 C 0.96204 0.04556 0.53449 0.0
O308 O 0.02335 0.07684 0.5316 0.0
O309 O 0.02874 0.0539 0.57483 0.0
O310 O 0.03404 0.03799 0.4546 0.0
O311 O 1.01182 0.0714 0.46982 0.0
O312 O 0.06576 0.04557 0.51437 0.0
O313 O 0.03573 1.013 0.53171 0.0
O314 O 0.98013 0.97934 0.53083 0.0
O315 O 0.99634 0.99743 0.48485 0.0
O316 O 0.97469 1.00909 0.60337 0.0
O317 O 1.00298 0.98098 0.58789 0.0
O318 O 0.96599 0.0458 0.56295 0.0
O319 O 0.97587 0.02882 0.52201 0.0
H320 H 0.08648 0.06311 0.45407 0.0
H321 H 0.0239 0.10779 0.41778 0.0
H322 H 0.06401 0.14345 0.40048 0.0
H323 H 0.12635 0.09791 0.43605 0.0
H324 H 0.92593 0.97852 0.5904 0.0
H325 H 0.98725 0.93942 0.63695 0.0
H326 H 0.94837 0.90047 0.64805 0.0
H327 H 0.88683 0.94055 0.60262 0.0
Gd328 Gd 0.54807 0.02736 0.04903 0.0
Gd329 Gd 0.49344 1.01989 1.02084 0.0
C330 C 0.50428 0.06248 0.0763 0.0
C331 C 0.60252 0.03695 0.06367 0.0
C332 C 0.62299 0.05967 0.07683 0.0
C333 C 0.64992 0.05484 0.08667 0.0
C334 C 0.61546 0.08572 0.08092 0.0
C335 C 0.66131 0.10162 0.10601 0.0
C336 C 0.63455 0.10661 0.09535 0.0
C337 C 0.66895 0.07564 0.10112 0.0
C338 C 0.50869 0.9854 0.0739 0.0
C339 C 0.53747 0.98526 0.99314 0.0
C340 C 0.43878 1.00972 1.00719 0.0
C341 C 0.41844 0.98639 0.99505 0.0
C342 C 0.39011 0.98972 0.98822 0.0
C343 C 0.42745 0.96125 0.98888 0.0
C344 C 0.38031 0.94349 0.96715 0.0
C345 C 0.40851 0.93993 0.97499 0.0
C346 C 0.37115 0.96844 0.97441 0.0
C347 C 0.53264 0.06165 0.99559 0.0
O348 O 0.5323 0.06305 0.07104 0.0
O349 O 0.48488 0.0443 0.06236 0.0
O350 O 0.58139 1.02538 0.08138 0.0
O351 O 0.5937 0.04073 0.03688 0.0
O352 O 0.52589 1.00392 0.08883 0.0
O353 O 0.5129 0.99005 0.0464 0.0
O354 O 0.50944 0.98448 0.99857 0.0
O355 O 0.55684 1.00337 1.00722 0.0
O356 O 0.45957 1.02095 0.98889 0.0
O357 O 0.44805 1.00676 0.03398 0.0
O358 O 0.51513 0.0432 0.98089 0.0
O359 O 0.52868 0.05719 1.0232 0.0
H360 H 0.65603 0.03483 0.08362 0.0
H361 H 0.59463 0.08971 0.07349 0.0
H362 H 0.62798 0.12635 0.09901 0.0
H363 H 0.68958 0.07132 0.10872 0.0
H364 H 0.3829 1.00905 0.99282 0.0
H365 H 0.44931 0.95837 0.99417 0.0
H366 H 0.41608 0.92087 0.96987 0.0
H367 H 0.34977 0.972 0.96824 0.0
Gd368 Gd 0.52021 0.49681 0.51083 0.0
Gd369 Gd 0.50916 0.54674 0.5557 0.0
C370 C 0.54119 0.49799 0.58069 0.0
C371 C 0.54396 0.46683 0.47342 0.0
C372 C 0.5729 0.45957 0.46837 0.0
C373 C 0.57728 0.44208 0.44458 0.0
C374 C 0.59597 0.46936 0.48745 0.0
C375 C 0.62807 0.44454 0.45839 0.0
C376 C 0.62346 0.46224 0.48226 0.0
C377 C 0.60449 0.43441 0.43977 0.0
C378 C 0.46547 0.48694 0.53752 0.0
C379 C 0.48922 0.54632 0.48582 0.0
C380 C 0.48505 0.57648 0.59296 0.0
C381 C 0.4571 0.58613 0.59536 0.0
C382 C 0.45236 0.60396 0.61871 0.0
C383 C 0.43589 0.57915 0.57352 0.0
C384 C 0.40543 0.60844 0.59816 0.0
C385 C 0.41008 0.58995 0.57509 0.0
C386 C 0.42688 0.61517 0.62002 0.0
C387 C 0.56358 0.55701 0.52841 0.0
O388 O 0.54392 0.48868 0.55287 0.0
O389 O 0.52732 0.51877 0.58715 0.0
O390 O 0.53017 0.45725 0.49789 0.0
O391 O 0.5418 0.49237 0.46819 0.0
O392 O 0.47522 0.47008 0.51897 0.0
O393 O 0.4852 0.50782 0.53914 0.0
O394 O 0.48556 0.55505 0.51371 0.0
O395 O 0.50358 0.52587 0.47935 0.0
O396 O 0.50212 0.58667 0.57072 0.0
O397 O 0.48416 0.5501 0.59654 0.0
O398 O 0.55384 0.57372 0.54716 0.0
O399 O 0.54404 0.53594 0.52692 0.0
H400 H 0.55952 0.43403 0.42993 0.0
H401 H 0.59274 0.4825 0.50634 0.0
H402 H 0.64103 0.47071 0.49691 0.0
H403 H 0.60678 0.42008 0.42174 0.0
H404 H 0.46875 0.60983 0.63548 0.0
H405 H 0.43948 0.56572 0.55502 0.0
H406 H 0.39399 0.58405 0.55806 0.0
H407 H 0.42453 0.62985 0.63768 0.0
Gd408 Gd 0.01795 0.49929 0.0474 0.0
Gd409 Gd 0.01395 0.55176 1.01954 0.0
C410 C 0.0718 0.55146 0.05539 0.0
C411 C 0.03487 0.45476 0.06378 0.0
C412 C 0.0628 0.44677 0.07115 0.0
C413 C 0.06281 0.42246 0.08662 0.0
C414 C 0.0895 0.46305 0.06267 0.0
C415 C 0.1161 0.43082 0.08544 0.0
C416 C 0.11592 0.45524 0.06988 0.0
C417 C 0.08919 0.41449 0.09362 0.0
C418 C 0.98794 0.53114 0.08186 0.0
C419 C 0.95985 0.49968 1.01138 0.0
C420 C 0.99607 0.59589 1.00372 0.0
C421 C 0.96871 0.60293 0.99266 0.0
C422 C 0.95539 0.5906 0.96681 0.0
C423 C 0.95524 0.62192 1.00889 0.0
C424 C 0.91568 0.6164 0.97365 0.0
C425 C 0.92892 0.62849 0.99958 0.0
C426 C 0.92917 0.59743 0.95729 0.0
C427 C 0.04391 0.51976 0.9851 0.0
O428 O 0.0635 0.52444 0.05478 0.0
O429 O 0.05461 0.56753 0.04509 0.0
O430 O 0.02501 0.47165 0.08249 0.0
O431 O 0.03206 0.46102 0.03596 0.0
O432 O 0.98085 0.50465 0.07921 0.0
O433 O 1.01109 0.53937 0.06672 0.0
O434 O 0.96921 0.52647 1.0095 0.0
O435 O 0.97585 0.48369 1.02399 0.0
O436 O 1.01097 0.58207 0.98587 0.0
O437 O 0.99485 0.5874 0.03121 0.0
O438 O 0.05111 0.54628 0.98778 0.0
O439 O 0.02071 0.51164 1.00021 0.0
H440 H 0.04239 0.40955 0.09315 0.0
H441 H 0.08994 0.48174 0.0504 0.0
H442 H 0.13618 0.46847 0.06352 0.0
H443 H 0.08846 0.39532 0.10512 0.0
H444 H 0.9651 0.57564 0.95402 0.0
H445 H 0.96507 0.63164 0.02891 0.0
H446 H 0.91915 0.6434 1.01241 0.0
H447 H 0.91927 0.58768 0.93733 0.0
C448 C 0.22823 0.24133 0.35662 0.0
C449 C 0.24702 0.228 0.33907 0.0
C450 C 0.20413 0.22632 0.37203 0.0
C451 C 0.19885 0.19732 0.36998 0.0
C452 C 0.21848 0.18372 0.35348 0.0
C453 C 0.24221 0.19921 0.33812 0.0
C454 C 0.18367 0.2415 0.38948 0.0
C455 C 0.21372 0.15279 0.35095 0.0
C456 C 0.14769 0.1528 0.42371 0.0
C457 C 0.12297 0.14472 0.40617 0.0
C458 C 0.17224 0.17075 0.41266 0.0
C459 C 0.17194 0.18104 0.38347 0.0
C460 C 0.14658 0.17399 0.36617 0.0
C461 C 0.12243 0.15583 0.37769 0.0
C462 C 0.19888 0.17781 0.43176 0.0
C463 C 0.14538 0.18472 0.33499 0.0
H464 H 0.23202 0.26355 0.3578 0.0
H465 H 0.25625 0.18867 0.32426 0.0
H466 H 0.1621 0.23824 0.37868 0.0
H467 H 0.18005 0.23338 0.41242 0.0
H468 H 0.19211 0.26391 0.39087 0.0
H469 H 0.23215 0.14537 0.33909 0.0
H470 H 0.21094 0.14357 0.37343 0.0
H471 H 0.19339 0.14525 0.33865 0.0
H472 H 0.14803 0.14474 0.44599 0.0
H473 H 0.10354 0.14953 0.3639 0.0
H474 H 0.20629 0.20035 0.43283 0.0
H475 H 0.21706 0.16874 0.42161 0.0
H476 H 0.19472 0.17002 0.45483 0.0
H477 H 0.15186 0.20738 0.33494 0.0
H478 H 0.12326 0.17915 0.32546 0.0
H479 H 0.16112 0.17618 0.32019 0.0
C480 C 0.2816 0.88625 0.83707 0.0
C481 C 0.27227 0.85789 0.83343 0.0
C482 C 0.29783 0.897 0.86174 0.0
C483 C 0.30505 0.87897 0.88337 0.0
C484 C 0.29504 0.85037 0.88038 0.0
C485 C 0.27879 0.84013 0.85535 0.0
C486 C 0.30816 0.92766 0.86405 0.0
C487 C 0.30221 0.83059 0.90313 0.0
C488 C 0.37327 0.91065 0.92396 0.0
C489 C 0.36141 0.92252 0.94893 0.0
C490 C 0.35515 0.8946 0.90345 0.0
C491 C 0.32446 0.89036 0.90804 0.0
C492 C 0.31251 0.90056 0.93434 0.0
C493 C 0.33115 0.91658 0.95448 0.0
C494 C 0.36878 0.88404 0.87569 0.0
C495 C 0.27992 0.89622 0.94017 0.0
H496 H 0.2772 0.90008 0.81997 0.0
H497 H 0.27144 0.81821 0.85276 0.0
H498 H 0.30123 0.93557 0.88586 0.0
H499 H 0.33238 0.93231 0.8628 0.0
H500 H 0.29955 0.93892 0.84603 0.0
H501 H 0.29072 0.80927 0.89893 0.0
H502 H 0.32609 0.83069 0.90264 0.0
H503 H 0.29623 0.83708 0.92591 0.0
H504 H 0.39661 0.91531 0.9194 0.0
H505 H 0.32194 0.92534 0.97404 0.0
H506 H 0.3641 0.89592 0.85617 0.0
H507 H 0.35924 0.86221 0.87139 0.0
H508 H 0.39285 0.88594 0.87733 0.0
H509 H 0.26998 0.90923 0.92494 0.0
H510 H 0.27442 0.90165 0.9635 0.0
H511 H 0.26983 0.87457 0.93564 0.0
C512 C 0.62746 0.43609 0.71228 0.0
C513 C 0.60893 0.41635 0.72951 0.0
C514 C 0.61706 0.44929 0.68803 0.0
C515 C 0.58725 0.44269 0.68011 0.0
C516 C 0.56847 0.42257 0.69706 0.0
C517 C 0.5794 0.40983 0.72138 0.0
C518 C 0.63809 0.47051 0.67091 0.0
C519 C 0.5366 0.41461 0.68962 0.0
C520 C 0.55338 0.49461 0.63535 0.0
C521 C 0.55376 0.48421 0.60594 0.0
C522 C 0.56423 0.4815 0.6594 0.0
C523 C 0.57573 0.45703 0.65442 0.0
C524 C 0.57625 0.44644 0.62481 0.0
C525 C 0.56546 0.46009 0.6011 0.0
C526 C 0.56335 0.4939 0.6903 0.0
C527 C 0.58804 0.42043 0.61814 0.0
H528 H 0.65041 0.44116 0.71752 0.0
H529 H 0.5645 0.39502 0.73439 0.0
H530 H 0.63899 0.46427 0.64708 0.0
H531 H 0.63033 0.49046 0.67184 0.0
H532 H 0.66054 0.47354 0.67978 0.0
H533 H 0.52493 0.3981 0.7042 0.0
H534 H 0.52569 0.43275 0.69203 0.0
H535 H 0.53443 0.4075 0.66606 0.0
H536 H 0.54452 0.51315 0.6397 0.0
H537 H 0.5659 0.45158 0.57871 0.0
H538 H 0.58572 0.49847 0.6993 0.0
H539 H 0.54996 0.47902 0.70552 0.0
H540 H 0.55411 0.51312 0.69061 0.0
H541 H 0.61109 0.42291 0.62512 0.0
H542 H 0.58701 0.41473 0.59408 0.0
H543 H 0.57539 0.40326 0.63113 0.0
C544 C 0.90395 0.61657 0.20118 0.0
C545 C 0.91892 0.62134 0.22816 0.0
C546 C 0.91538 0.6032 0.17667 0.0
C547 C 0.9423 0.59372 0.17908 0.0
C548 C 0.95758 0.5986 0.20622 0.0
C549 C 0.94591 0.6125 0.23019 0.0
C550 C 0.89848 0.59909 0.14816 0.0
C551 C 0.98601 0.58853 0.21023 0.0
C552 C 0.9559 0.5343 0.1275 0.0
C553 C 0.97589 0.5475 0.1061 0.0
C554 C 0.94508 0.54899 0.15128 0.0
C555 C 0.95387 0.57787 0.15368 0.0
C556 C 0.9737 0.5914 0.13183 0.0
C557 C 0.98468 0.57608 0.1086 0.0
C558 C 0.92445 0.53345 0.17411 0.0
C559 C 0.98333 0.62212 0.13295 0.0
H560 H 0.88328 0.62354 0.19911 0.0
H561 H 0.9576 0.61579 0.25091 0.0
H562 H 0.91264 0.60772 0.12912 0.0
H563 H 0.89153 0.57684 0.14355 0.0
H564 H 0.87876 0.60891 0.14918 0.0
H565 H 0.9955 0.59422 0.23243 0.0
H566 H 0.98243 0.56586 0.20767 0.0
H567 H 1.00215 0.59714 0.19273 0.0
H568 H 0.94899 0.51225 0.12598 0.0
H569 H 1.00017 0.58653 0.09234 0.0
H570 H 0.90334 0.54095 0.17449 0.0
H571 H 0.93372 0.53713 0.19668 0.0
H572 H 0.92013 0.51099 0.16952 0.0
H573 H 0.96396 0.63239 0.13304 0.0
H574 H 0.99789 0.62975 0.11376 0.0
H575 H 0.99509 0.62824 0.15389 0.0
C576 C 0.44865 0.17931 0.17778 0.0
C577 C 0.4337 0.19473 0.15952 0.0
C578 C 0.4623 0.1583 0.16583 0.0
C579 C 0.46143 0.15284 0.13478 0.0
C580 C 0.44763 0.16915 0.11602 0.0
C581 C 0.43377 0.18975 0.12862 0.0
C582 C 0.4767 0.14129 0.18658 0.0
C583 C 0.44657 0.16418 0.08272 0.0
C584 C 0.51305 0.10985 0.09833 0.0
C585 C 0.49434 0.08463 0.0941 0.0
C586 C 0.50281 0.13218 0.11199 0.0
C587 C 0.47333 0.12902 0.12206 0.0
C588 C 0.45471 0.10325 0.11893 0.0
C589 C 0.46538 0.08144 0.10475 0.0
C590 C 0.52322 0.15941 0.11456 0.0
C591 C 0.42327 0.09892 0.12984 0.0
H592 H 0.4493 0.18336 0.2016 0.0
H593 H 0.42205 0.20127 0.11431 0.0
H594 H 0.4649 0.11975 0.18617 0.0
H595 H 0.49953 0.141 0.17902 0.0
H596 H 0.47687 0.1491 0.20995 0.0
H597 H 0.43723 0.18012 0.07099 0.0
H598 H 0.46884 0.1638 0.07344 0.0
H599 H 0.43303 0.14387 0.07788 0.0
H600 H 0.5354 0.11251 0.08988 0.0
H601 H 0.45089 0.06195 0.10163 0.0
H602 H 0.52361 0.16707 0.13795 0.0
H603 H 0.51521 0.1748 0.10075 0.0
H604 H 0.5459 0.15808 0.10712 0.0
H605 H 0.42209 0.10509 0.15367 0.0
H606 H 0.41222 0.07722 0.12738 0.0
H607 H 0.41103 0.11202 0.1171 0.0
C608 C 0.18269 0.96122 0.61799 0.0
C609 C 0.18179 0.93481 0.60571 0.0
C610 C 0.16703 0.97976 0.60538 0.0
C611 C 0.15041 0.97178 0.57971 0.0
C612 C 0.15136 0.94606 0.56582 0.0
C613 C 0.16687 0.9278 0.5791 0.0
C614 C 0.16661 1.00704 0.62078 0.0
C615 C 0.13422 0.93696 0.53815 0.0
C616 C 0.07834 0.99528 0.56984 0.0
C617 C 0.08516 1.01454 0.54721 0.0
C618 C 0.09976 0.98216 0.58151 0.0
C619 C 0.12872 0.98825 0.56991 0.0
C620 C 0.13607 1.00852 0.54779 0.0
C621 C 0.11414 1.02163 0.5368 0.0
C622 C 0.09107 0.96102 0.6055 0.0
C623 C 0.16668 1.01539 0.53477 0.0
H624 H 0.19477 0.96705 0.63814 0.0
H625 H 0.16585 0.90743 0.5695 0.0
H626 H 0.16941 1.02384 0.60435 0.0
H627 H 0.1451 1.00657 0.63223 0.0
H628 H 0.18395 1.01185 0.63762 0.0
H629 H 0.14048 0.91823 0.52782 0.0
H630 H 0.11055 0.93248 0.54402 0.0
H631 H 0.13756 0.95351 0.5214 0.0
H632 H 0.05611 0.99012 0.57811 0.0
H633 H 0.11945 0.03659 0.51924 0.0
H634 H 0.1057 0.96562 0.62479 0.0
H635 H 0.09342 0.94042 0.5967 0.0
H636 H 0.06814 0.96016 0.61353 0.0
H637 H 0.18292 1.01903 0.55275 0.0
H638 H 0.1696 0.03379 0.52042 0.0
H639 H 0.17149 0.99777 0.52111 0.0
C640 C 0.79832 0.44209 0.94715 0.0
C641 C 0.79991 0.4232 0.92373 0.0
C642 C 0.82361 0.45482 0.96221 0.0
C643 C 0.85147 0.44925 0.95316 0.0
C644 C 0.85319 0.4306 0.92905 0.0
C645 C 0.82747 0.41754 0.91501 0.0
C646 C 0.82042 0.47389 0.98822 0.0
C647 C 0.8823 0.42452 0.91793 0.0
C648 C 0.91988 0.50084 0.97458 0.0
C649 C 0.93146 0.48725 0.99749 0.0
C650 C 0.89407 0.48879 0.96001 0.0
C651 C 0.87876 0.46269 0.96893 0.0
C652 C 0.88994 0.44922 0.99261 0.0
C653 C 0.91625 0.46142 1.00624 0.0
C654 C 0.88361 0.50375 0.9345 0.0
C655 C 0.87409 0.42182 1.00358 0.0
H656 H 0.77711 0.4464 0.95421 0.0
H657 H 0.82893 0.40312 0.89682 0.0
H658 H 0.82951 0.46634 1.00849 0.0
H659 H 0.83308 0.49463 0.98368 0.0
H660 H 0.79728 0.4757 0.99294 0.0
H661 H 0.88015 0.41057 0.89814 0.0
H662 H 0.89706 0.44391 0.91194 0.0
H663 H 0.8929 0.4149 0.93584 0.0
H664 H 0.93148 0.52069 0.9674 0.0
H665 H 0.92482 0.45076 1.02398 0.0
H666 H 0.86097 0.50711 0.93913 0.0
H667 H 0.88318 0.49104 0.91384 0.0
H668 H 0.89775 0.52394 0.93037 0.0
H669 H 0.85108 0.42314 1.0096 0.0
H670 H 0.88455 0.41476 1.02332 0.0
H671 H 0.8736 0.40613 0.98558 0.0
C672 C 0.69537 0.61372 0.41273 0.0
C673 C 0.72273 0.61419 0.4255 0.0
C674 C 0.6692 0.60225 0.4279 0.0
C675 C 0.67024 0.59033 0.45633 0.0
C676 C 0.6979 0.58958 0.46862 0.0
C677 C 0.72369 0.60181 0.45332 0.0
C678 C 0.64033 0.60376 0.41396 0.0
C679 C 0.70024 0.57633 0.4983 0.0
C680 C 0.60699 0.59122 0.51213 0.0
C681 C 0.59079 0.56454 0.50971 0.0
C682 C 0.63243 0.59978 0.49468 0.0
C683 C 0.64259 0.58112 0.47442 0.0
C684 C 0.62634 0.55404 0.47182 0.0
C685 C 0.60057 0.54618 0.48935 0.0
C686 C 0.64835 0.62901 0.49785 0.0
C687 C 0.6364 0.53309 0.45111 0.0
H688 H 0.69439 0.62329 0.39131 0.0
H689 H 0.74472 0.60173 0.46318 0.0
H690 H 0.62669 0.583 0.41268 0.0
H691 H 0.6282 0.61673 0.42814 0.0
H692 H 0.64311 0.61247 0.3912 0.0
H693 H 0.7232 0.57514 0.50357 0.0
H694 H 0.69119 0.58823 0.51628 0.0
H695 H 0.68715 0.55528 0.49835 0.0
H696 H 0.59959 0.60572 0.52762 0.0
H697 H 0.58812 0.52571 0.48716 0.0
H698 H 0.6504 0.63915 0.47584 0.0
H699 H 0.67079 0.62921 0.50579 0.0
H700 H 0.63705 0.6413 0.51374 0.0
H701 H 0.64549 0.54243 0.42983 0.0
H702 H 0.61835 0.51586 0.44603 0.0
H703 H 0.65399 0.52456 0.46194 0.0
C704 C 0.269 0.39864 0.1415 0.0
C705 C 0.27033 0.37089 0.13608 0.0
C706 C 0.24596 0.41033 0.13072 0.0
C707 C 0.22361 0.3938 0.11436 0.0
C708 C 0.22573 0.36622 0.10739 0.0
C709 C 0.24912 0.35512 0.11826 0.0
C710 C 0.2447 0.43994 0.13825 0.0
C711 C 0.2023 0.34787 0.09011 0.0
C712 C 0.14704 0.41031 0.12072 0.0
C713 C 0.14414 0.42229 0.09309 0.0
C714 C 0.17287 0.40121 0.12794 0.0
C715 C 0.19661 0.40442 0.10716 0.0
C716 C 0.19415 0.41703 0.07949 0.0
C717 C 0.1679 0.42571 0.07271 0.0
C718 C 0.1746 0.38783 0.15771 0.0
C719 C 0.21907 0.42098 0.05688 0.0
H720 H 0.28551 0.41097 0.15503 0.0
H721 H 0.24981 0.33358 0.11429 0.0
H722 H 0.24012 0.45096 0.11806 0.0
H723 H 0.22661 0.44091 0.15461 0.0
H724 H 0.26537 0.45083 0.14796 0.0
H725 H 0.20861 0.32784 0.08402 0.0
H726 H 0.18181 0.34394 0.10379 0.0
H727 H 0.19751 0.35804 0.06943 0.0
H728 H 0.12907 0.40808 0.13685 0.0
H729 H 0.16579 0.43467 0.05118 0.0
H730 H 0.19315 0.39924 0.17044 0.0
H731 H 0.17871 0.36658 0.15423 0.0
H732 H 0.15425 0.38702 0.17142 0.0
H733 H 0.23922 0.43223 0.06721 0.0
H734 H 0.21425 0.43247 0.03709 0.0
H735 H 0.22371 0.40071 0.04929 0.0
C736 C 0.62403 0.20019 0.92094 0.0
C737 C 0.60604 0.21954 0.91524 0.0
C738 C 0.61289 0.17473 0.9344 0.0
C739 C 0.58286 0.16803 0.94269 0.0
C740 C 0.56454 0.18741 0.937 0.0
C741 C 0.57624 0.2127 0.92335 0.0
C742 C 0.63335 0.15485 0.93958 0.0
C743 C 0.53247 0.18145 0.94547 0.0
C744 C 0.54749 0.09214 0.95131 0.0
C745 C 0.5467 0.0886 0.98237 0.0
C746 C 0.55925 0.11762 0.93825 0.0
C747 C 0.57053 0.14055 0.95653 0.0
C748 C 0.57002 0.13703 0.98796 0.0
C749 C 0.55827 0.1112 1.00043 0.0
C750 C 0.55943 0.12002 0.90474 0.0
C751 C 0.58163 0.16067 1.0085 0.0
H752 H 0.64696 0.20478 0.91449 0.0
H753 H 0.56203 0.22738 0.91955 0.0
H754 H 0.63321 0.14985 0.96361 0.0
H755 H 0.62581 0.13537 0.92726 0.0
H756 H 0.65617 0.16312 0.93231 0.0
H757 H 0.52114 0.19865 0.94005 0.0
H758 H 0.52165 0.16268 0.93362 0.0
H759 H 0.52972 0.17745 0.96973 0.0
H760 H 0.5387 0.0749 0.93707 0.0
H761 H 0.55776 0.10883 1.02443 0.0
H762 H 0.58209 0.12695 0.89622 0.0
H763 H 0.54642 0.13568 0.8984 0.0
H764 H 0.55033 0.10028 0.89354 0.0
H765 H 0.60494 0.16855 1.00293 0.0
H766 H 0.57971 0.15475 0.03235 0.0
H767 H 0.5695 0.17777 1.00535 0.0
C768 C 0.89874 0.83134 0.43714 0.0
C769 C 0.91629 0.81808 0.41769 0.0
C770 C 0.90917 0.85731 0.4501 0.0
C771 C 0.93846 0.87038 0.44481 0.0
C772 C 0.95662 0.85702 0.42591 0.0
C773 C 0.94527 0.83151 0.41225 0.0
C774 C 0.88865 0.87086 0.46947 0.0
C775 C 0.98823 0.86961 0.42021 0.0
C776 C 0.9609 0.94821 0.45776 0.0
C777 C 0.97141 0.94972 0.48694 0.0
C778 C 0.94976 0.9227 0.44401 0.0
C779 C 0.95008 0.89784 0.45926 0.0
C780 C 0.96121 0.89931 0.48855 0.0
C781 C 0.97118 0.92511 0.50215 0.0
C782 C 0.9372 0.92239 0.41329 0.0
C783 C 0.96301 0.87358 0.50544 0.0
H784 H 0.87667 0.82142 0.44268 0.0
H785 H 0.95931 0.82233 0.39706 0.0
H786 H 0.89644 0.8729 0.4927 0.0
H787 H 0.88828 0.89186 0.4614 0.0
H788 H 0.86597 0.85909 0.46971 0.0
H789 H 1.00003 0.85603 0.40645 0.0
H790 H 0.98966 0.88941 0.40859 0.0
H791 H 0.99955 0.87406 0.44171 0.0
H792 H 0.96081 0.96706 0.44585 0.0
H793 H 0.97951 0.92598 0.52458 0.0
H794 H 0.91429 0.91123 0.41372 0.0
H795 H 0.94972 0.9113 0.39739 0.0
H796 H 0.93753 0.9434 0.4048 0.0
H797 H 0.9408 0.86154 0.5093 0.0
H798 H 0.97357 0.8781 0.52735 0.0
H799 H 0.97561 0.86043 0.49204 0.0
C800 C 0.31239 0.72409 0.60866 0.0
C801 C 0.28235 0.71649 0.61435 0.0
C802 C 0.3298 0.70421 0.60265 0.0
C803 C 0.31666 0.67614 0.60165 0.0
C804 C 0.28597 0.66855 0.60522 0.0
C805 C 0.26917 0.68885 0.61208 0.0
C806 C 0.36251 0.71316 0.59951 0.0
C807 C 0.27109 0.63893 0.60322 0.0
C808 C 0.36843 0.63046 0.57205 0.0
C809 C 0.37937 0.6221 0.59865 0.0
C810 C 0.34633 0.64646 0.57255 0.0
C811 C 0.33556 0.65493 0.60028 0.0
C812 C 0.34538 0.6454 0.62712 0.0
C813 C 0.36677 0.62873 0.62594 0.0
C814 C 0.33567 0.65547 0.54345 0.0
C815 C 0.33466 0.65421 0.65721 0.0
H816 H 0.32254 0.74548 0.61075 0.0
H817 H 0.24586 0.6831 0.61641 0.0
H818 H 0.37334 0.70514 0.6184 0.0
H819 H 0.37081 0.70458 0.57868 0.0
H820 H 0.36905 0.73585 0.59925 0.0
H821 H 0.24703 0.63696 0.60131 0.0
H822 H 0.27974 0.62851 0.58375 0.0
H823 H 0.27558 0.62801 0.62351 0.0
H824 H 0.378 0.62563 0.55079 0.0
H825 H 0.37436 0.62166 0.64657 0.0
H826 H 0.34516 0.67734 0.53966 0.0
H827 H 0.31154 0.65367 0.54412 0.0
H828 H 0.34205 0.6432 0.52422 0.0
H829 H 0.3413 0.67675 0.66006 0.0
H830 H 0.34353 0.644 0.67592 0.0
H831 H 0.31047 0.64951 0.65872 0.0
C832 C 0.78596 0.7972 0.68417 0.0
C833 C 0.76687 0.81051 0.70137 0.0
C834 C 0.80929 0.81226 0.6677 0.0
C835 C 0.81335 0.84126 0.66815 0.0
C836 C 0.79283 0.85469 0.68348 0.0
C837 C 0.77 0.8392 0.70006 0.0
C838 C 0.83068 0.7972 0.65155 0.0
C839 C 0.79615 0.8856 0.68414 0.0
C840 C 0.88889 0.8847 0.66453 0.0
C841 C 0.89 0.89525 0.63562 0.0
C842 C 0.86465 0.86596 0.67478 0.0
C843 C 0.84069 0.85781 0.65581 0.0
C844 C 0.84209 0.86743 0.62621 0.0
C845 C 0.86682 0.88593 0.6164 0.0
C846 C 0.86412 0.85593 0.70644 0.0
C847 C 0.81694 0.85923 0.60537 0.0
H848 H 0.78338 0.77502 0.68451 0.0
H849 H 0.7557 0.84982 0.71345 0.0
H850 H 0.83582 0.80547 0.62884 0.0
H851 H 0.85145 0.80026 0.66385 0.0
H852 H 0.82224 0.77481 0.64972 0.0
H853 H 0.77652 0.89264 0.69391 0.0
H854 H 0.81529 0.89444 0.69766 0.0
H855 H 0.80019 0.8939 0.6613 0.0
H856 H 0.90644 0.89198 0.67971 0.0
H857 H 0.86772 0.89354 0.59382 0.0
H858 H 0.85824 0.83322 0.70688 0.0
H859 H 0.84723 0.86431 0.71978 0.0
H860 H 0.8855 0.86222 0.71736 0.0
H861 H 0.80961 0.83666 0.60533 0.0
H862 H 0.82277 0.86591 0.58215 0.0
H863 H 0.79814 0.86867 0.61324 0.0
C864 C 0.74214 0.21387 0.21935 0.0
C865 C 0.77263 0.21671 0.21647 0.0
C866 C 0.72377 0.19757 0.19921 0.0
C867 C 0.7362 0.18384 0.1756 0.0
C868 C 0.76695 0.18789 0.17156 0.0
C869 C 0.78482 0.20422 0.19213 0.0
C870 C 0.69109 0.19369 0.20435 0.0
C871 C 0.78101 0.1738 0.14648 0.0
C872 C 0.6929 0.11573 0.14975 0.0
C873 C 0.68065 0.12291 0.12342 0.0
C874 C 0.71107 0.13539 0.16679 0.0
C875 C 0.71722 0.16296 0.15726 0.0
C876 C 0.70496 0.1704 0.13068 0.0
C877 C 0.6867 0.15027 0.11409 0.0
C878 C 0.7235 0.12665 0.19516 0.0
C879 C 0.71116 0.19958 0.1198 0.0
H880 H 0.73257 0.22321 0.2383 0.0
H881 H 0.80837 0.20665 0.18962 0.0
H882 H 0.68003 0.19673 0.18335 0.0
H883 H 0.6828 0.17237 0.21164 0.0
H884 H 0.68485 0.20804 0.22164 0.0
H885 H 0.8049 0.1815 0.1444 0.0
H886 H 0.7775 0.1514 0.15053 0.0
H887 H 0.7708 0.17678 0.12497 0.0
H888 H 0.68789 0.09471 0.15733 0.0
H889 H 0.67741 0.15584 0.09363 0.0
H890 H 0.71626 0.13826 0.21447 0.0
H891 H 0.74772 0.13144 0.194 0.0
H892 H 0.71668 0.10437 0.19935 0.0
H893 H 0.70372 0.21347 0.13685 0.0
H894 H 0.70017 0.20195 0.09853 0.0
H895 H 0.73505 0.20636 0.11645 0.0
C896 C 0.44573 0.6433 0.35542 0.0
C897 C 0.42232 0.63003 0.33811 0.0
C898 C 0.45671 0.63004 0.37933 0.0
C899 C 0.44386 0.60278 0.38698 0.0
C900 C 0.42012 0.58932 0.3699 0.0
C901 C 0.40998 0.60283 0.34573 0.0
C902 C 0.48227 0.64528 0.39641 0.0
C903 C 0.40534 0.56045 0.37713 0.0
C904 C 0.48742 0.55791 0.43104 0.0
C905 C 0.47715 0.56043 0.46056 0.0
C906 C 0.47711 0.57171 0.40719 0.0
C907 C 0.45541 0.58823 0.41249 0.0
C908 C 0.44469 0.5906 0.4422 0.0
C909 C 0.45582 0.577 0.46575 0.0
C910 C 0.48975 0.56879 0.37624 0.0
C911 C 0.42123 0.60741 0.44915 0.0
H912 H 0.45545 0.66433 0.35061 0.0
H913 H 0.39243 0.5917 0.33257 0.0
H914 H 0.47583 0.64744 0.42018 0.0
H915 H 0.50043 0.63343 0.39567 0.0
H916 H 0.49044 0.66604 0.38737 0.0
H917 H 0.38637 0.55314 0.36273 0.0
H918 H 0.42117 0.54622 0.3743 0.0
H919 H 0.39769 0.55941 0.40078 0.0
H920 H 0.50405 0.54547 0.42654 0.0
H921 H 0.44752 0.57918 0.48829 0.0
H922 H 0.49936 0.58932 0.36748 0.0
H923 H 0.4722 0.55962 0.36092 0.0
H924 H 0.50691 0.55576 0.37574 0.0
H925 H 0.42903 0.62907 0.4428 0.0
H926 H 0.41472 0.60688 0.47316 0.0
H927 H 0.40162 0.59966 0.43583 0.0
C928 C 0.08314 0.43826 0.83588 0.0
C929 C 0.10989 0.42889 0.83744 0.0
C930 C 0.07212 0.45237 0.86008 0.0
C931 C 0.08782 0.45693 0.887 0.0
C932 C 0.11451 0.44696 0.88893 0.0
C933 C 0.12529 0.43339 0.8642 0.0
C934 C 0.0439 0.46294 0.85657 0.0
C935 C 0.13182 0.45074 0.91718 0.0
C936 C 0.07561 0.51645 0.93919 0.0
C937 C 0.05568 0.50336 0.96071 0.0
C938 C 0.08601 0.5017 0.91521 0.0
C939 C 0.07684 0.47286 0.91269 0.0
C940 C 0.0571 0.45945 0.93469 0.0
C941 C 0.04657 0.47482 0.95814 0.0
C942 C 0.10659 0.51712 0.89226 0.0
C943 C 0.04704 0.42877 0.93345 0.0
H944 H 0.07113 0.43521 0.81534 0.0
H945 H 0.14578 0.42602 0.86592 0.0
H946 H 0.02786 0.45444 0.8742 0.0
H947 H 0.04789 0.4856 0.8593 0.0
H948 H 0.03408 0.45752 0.83446 0.0
H949 H 0.15135 0.44066 0.91576 0.0
H950 H 0.13912 0.47293 0.92187 0.0
H951 H 0.11784 0.44217 0.93637 0.0
H952 H 0.08277 0.53847 0.94077 0.0
H953 H 0.03114 0.46445 0.97451 0.0
H954 H 0.09699 0.51375 0.8698 0.0
H955 H 0.12749 0.50925 0.89146 0.0
H956 H 0.11135 0.53954 0.89703 0.0
H957 H 0.03495 0.42291 0.91265 0.0
H958 H 0.03264 0.42122 0.95278 0.0
H959 H 0.06622 0.41823 0.93298 0.0
C960 C 0.60617 0.85926 0.93192 0.0
C961 C 0.60478 0.8552 0.9009 0.0
C962 C 0.59345 0.87987 0.94615 0.0
C963 C 0.57942 0.8972 0.92893 0.0
C964 C 0.57742 0.89295 0.89773 0.0
C965 C 0.58987 0.87186 0.88414 0.0
C966 C 0.59568 0.88353 0.97956 0.0
C967 C 0.56282 0.91113 0.87858 0.0
C968 C 0.52863 0.93859 0.96943 0.0
C969 C 0.54738 0.96365 0.97445 0.0
C970 C 0.53862 0.91685 0.95431 0.0
C971 C 0.5679 0.92046 0.9435 0.0
C972 C 0.58659 0.94606 0.94757 0.0
C973 C 0.57617 0.96727 0.96325 0.0
C974 C 0.51817 0.88973 0.95085 0.0
C975 C 0.61778 0.95089 0.93588 0.0
H976 H 0.61794 0.84685 0.9451 0.0
H977 H 0.5881 0.86859 0.86027 0.0
H978 H 0.60932 0.90367 0.98491 0.0
H979 H 0.57371 0.88347 0.98982 0.0
H980 H 0.60547 0.86717 0.98996 0.0
H981 H 0.56243 0.90468 0.85473 0.0
H982 H 0.54004 0.91092 0.88663 0.0
H983 H 0.57454 0.93264 0.88031 0.0
H984 H 0.5064 0.93559 0.97828 0.0
H985 H 0.59069 0.98665 0.96696 0.0
H986 H 0.52672 0.87364 0.96308 0.0
H987 H 0.51693 0.88332 0.92704 0.0
H988 H 0.49574 0.89062 0.95946 0.0
H989 H 0.63031 0.93717 0.94732 0.0
H990 H 0.6289 0.97245 0.93931 0.0
H991 H 0.61839 0.94584 0.9117 0.0
C992 C 0.88026 0.14673 0.44462 0.0
C993 C 0.90033 0.16994 0.43592 0.0
C994 C 0.88891 0.12643 0.46198 0.0
C995 C 0.91845 0.12924 0.47032 0.0
C996 C 0.93879 0.15276 0.46173 0.0
C997 C 0.92939 0.17302 0.44484 0.0
C998 C 0.86653 0.10185 0.47114 0.0
C999 C 0.9706 0.15617 0.46978 0.0
C1000 C 0.9392 0.08748 0.53402 0.0
C1001 C 0.94886 0.06587 0.51851 0.0
C1002 C 0.9287 0.10806 0.51864 0.0
C1003 C 0.9283 0.10708 0.48708 0.0
C1004 C 0.93758 0.08499 0.4714 0.0
C1005 C 0.94734 0.06441 0.48738 0.0
C1006 C 0.91848 0.13107 0.5361 0.0
C1007 C 0.93791 0.08342 0.43774 0.0
H1008 H 0.85771 0.14456 0.43793 0.0
H1009 H 0.94488 0.19094 0.43792 0.0
H1010 H 0.87244 0.0829 0.46109 0.0
H1011 H 0.86629 0.09956 0.49572 0.0
H1012 H 0.84416 0.10349 0.46413 0.0
H1013 H 0.98348 0.1759 0.46185 0.0
H1014 H 0.97264 0.15524 0.49431 0.0
H1015 H 0.98033 0.13909 0.45982 0.0
H1016 H 0.94026 0.08853 0.55814 0.0
H1017 H 0.95449 0.04749 0.47541 0.0
H1018 H 0.89591 0.13267 0.52984 0.0
H1019 H 0.93267 0.15088 0.53059 0.0
H1020 H 0.91883 0.12808 0.56057 0.0
H1021 H 0.91566 0.08335 0.42935 0.0
H1022 H 0.94575 0.06482 0.429 0.0
H1023 H 0.95235 0.1018 0.42855 0.0
C1024 C 0.20785 0.61604 0.15856 0.0
C1025 C 0.23353 0.62581 0.14196 0.0
C1026 C 0.18186 0.60351 0.14456 0.0
C1027 C 0.18127 0.60031 0.11305 0.0
C1028 C 0.20723 0.60973 0.09622 0.0
C1029 C 0.23283 0.62238 0.11076 0.0
C1030 C 0.1548 0.59408 0.16352 0.0
C1031 C 0.20794 0.60656 0.0627 0.0
C1032 C 0.11999 0.54745 0.07865 0.0
C1033 C 0.10033 0.56395 0.06917 0.0
C1034 C 0.14636 0.55892 0.09264 0.0
C1035 C 0.15342 0.58769 0.09769 0.0
C1036 C 0.13371 0.60445 0.08809 0.0
C1037 C 0.10764 0.59246 0.07393 0.0
C1038 C 0.16664 0.54015 0.10215 0.0
C1039 C 0.14002 0.63513 0.09306 0.0
H1040 H 0.20785 0.61875 0.18258 0.0
H1041 H 0.25251 0.6294 0.09761 0.0
H1042 H 0.13719 0.60519 0.15714 0.0
H1043 H 0.1467 0.57189 0.15959 0.0
H1044 H 0.15882 0.59758 0.18771 0.0
H1045 H 0.22994 0.61423 0.05281 0.0
H1046 H 0.20129 0.58464 0.05631 0.0
H1047 H 0.19207 0.61795 0.05283 0.0
H1048 H 0.11478 0.52544 0.07524 0.0
H1049 H 0.09273 0.60554 0.06695 0.0
H1050 H 0.16947 0.54178 0.12664 0.0
H1051 H 0.18854 0.54648 0.09154 0.0
H1052 H 0.15839 0.51834 0.09615 0.0
H1053 H 0.14226 0.63987 0.11725 0.0
H1054 H 0.12259 0.64537 0.08438 0.0
H1055 H 0.16107 0.64402 0.08196 0.0
C1056 C 0.32982 0.43584 0.65109 0.0
C1057 C 0.30297 0.43386 0.63678 0.0
C1058 C 0.35649 0.44663 0.6364 0.0
C1059 C 0.35651 0.45618 0.60674 0.0
C1060 C 0.32936 0.45531 0.59268 0.0
C1061 C 0.30307 0.44396 0.60768 0.0
C1062 C 0.38478 0.44697 0.65229 0.0
C1063 C 0.32812 0.46586 0.56146 0.0
C1064 C 0.42646 0.49946 0.5732 0.0
C1065 C 0.43785 0.47995 0.55571 0.0
C1066 C 0.40013 0.49223 0.59002 0.0
C1067 C 0.38484 0.46468 0.58951 0.0
C1068 C 0.39657 0.44491 0.57208 0.0
C1069 C 0.42262 0.4528 0.55534 0.0
C1070 C 0.38842 0.51427 0.60767 0.0
C1071 C 0.38159 0.41525 0.57109 0.0
H1072 H 0.33007 0.42801 0.67349 0.0
H1073 H 0.28248 0.44294 0.59655 0.0
H1074 H 0.39777 0.4332 0.64039 0.0
H1075 H 0.39802 0.46794 0.65209 0.0
H1076 H 0.38113 0.4402 0.67578 0.0
H1077 H 0.30535 0.46587 0.55452 0.0
H1078 H 0.34067 0.48707 0.55992 0.0
H1079 H 0.3384 0.45289 0.54549 0.0
H1080 H 0.43791 0.52042 0.57345 0.0
H1081 H 0.43123 0.43746 0.54201 0.0
H1082 H 0.37948 0.50665 0.62972 0.0
H1083 H 0.37033 0.52052 0.59531 0.0
H1084 H 0.40548 0.53272 0.6112 0.0
H1085 H 0.37886 0.40693 0.594 0.0
H1086 H 0.39397 0.4022 0.55727 0.0
H1087 H 0.35945 0.41369 0.56184 0.0
C1088 C 0.7893 0.69477 0.92833 0.0
C1089 C 0.76612 0.67849 0.91349 0.0
C1090 C 0.81237 0.68331 0.93931 0.0
C1091 C 0.81209 0.6548 0.93568 0.0
C1092 C 0.78811 0.63805 0.92185 0.0
C1093 C 0.76551 0.65014 0.91068 0.0
C1094 C 0.83769 0.70193 0.95363 0.0
C1095 C 0.78679 0.6075 0.91804 0.0
C1096 C 0.88605 0.63225 0.93387 0.0
C1097 C 0.88826 0.62425 0.96341 0.0
C1098 C 0.86112 0.64176 0.92441 0.0
C1099 C 0.83768 0.64291 0.94492 0.0
C1100 C 0.8394 0.63395 0.97452 0.0
C1101 C 0.86479 0.62493 0.98349 0.0
C1102 C 0.86028 0.65145 0.89275 0.0
C1103 C 0.81468 0.63443 0.99687 0.0
H1104 H 0.79006 0.71675 0.93014 0.0
H1105 H 0.74752 0.6375 0.89934 0.0
H1106 H 0.84154 0.69436 0.97605 0.0
H1107 H 0.8579 0.70182 0.93998 0.0
H1108 H 0.83397 0.72343 0.95591 0.0
H1109 H 0.76555 0.59707 0.90913 0.0
H1110 H 0.80453 0.60352 0.90249 0.0
H1111 H 0.79028 0.59822 0.9397 0.0
H1112 H 0.90428 0.63195 0.9184 0.0
H1113 H 0.86637 0.61847 1.00627 0.0
H1114 H 0.85886 0.67359 0.89284 0.0
H1115 H 0.84056 0.64029 0.88161 0.0
H1116 H 0.8799 0.64842 0.87936 0.0
H1117 H 0.81185 0.65592 1.00132 0.0
H1118 H 0.81858 0.62499 1.01835 0.0
H1119 H 0.79387 0.62332 0.9877 0.0
C1120 C 0.46258 0.83381 0.14439 0.0
C1121 C 0.43254 0.82696 0.15144 0.0
C1122 C 0.47479 0.85925 0.13132 0.0
C1123 C 0.45676 0.87878 0.12522 0.0
C1124 C 0.4265 0.87208 0.13251 0.0
C1125 C 0.41484 0.84645 0.14533 0.0
C1126 C 0.50708 0.86516 0.12383 0.0
C1127 C 0.40633 0.89213 0.1269 0.0
C1128 C 0.49277 0.95465 0.11781 0.0
C1129 C 0.49429 0.95841 0.08679 0.0
C1130 C 0.48054 0.92911 0.13048 0.0
C1131 C 0.46959 0.90634 0.11183 0.0
C1132 C 0.47088 0.91009 0.08043 0.0
C1133 C 0.48303 0.93598 0.06836 0.0
C1134 C 0.47946 0.92648 0.16398 0.0
C1135 C 0.4597 0.88663 0.05949 0.0
H1136 H 0.47657 0.81902 0.14855 0.0
H1137 H 0.39172 0.84182 0.15097 0.0
H1138 H 0.51055 0.86939 0.09967 0.0
H1139 H 0.51761 0.8838 0.13611 0.0
H1140 H 0.51815 0.84785 0.1295 0.0
H1141 H 0.38333 0.88392 0.1336 0.0
H1142 H 0.41369 0.91151 0.13947 0.0
H1143 H 0.40707 0.89729 0.1029 0.0
H1144 H 0.50132 0.97177 0.13232 0.0
H1145 H 0.48409 0.93852 0.04437 0.0
H1146 H 0.49222 0.91071 0.17063 0.0
H1147 H 0.45659 0.91955 0.17186 0.0
H1148 H 0.48833 0.94612 0.17549 0.0
H1149 H 0.47162 0.86943 0.06292 0.0
H1150 H 0.46228 0.89271 0.03571 0.0
H1151 H 0.43624 0.87882 0.0644 0.0
C1152 C 0.12032 0.21823 0.62968 0.0
C1153 C 0.10223 0.2345 0.64435 0.0
C1154 C 0.10882 0.19265 0.6164 0.0
C1155 C 0.07831 0.18259 0.61776 0.0
C1156 C 0.05992 0.19866 0.63283 0.0
C1157 C 0.072 0.22426 0.64584 0.0
C1158 C 0.12942 0.17641 0.60072 0.0
C1159 C 0.02731 0.18891 0.63495 0.0
C1160 C 0.046 0.12884 0.55925 0.0
C1161 C 0.04321 0.10406 0.57484 0.0
C1162 C 0.0571 0.15435 0.57292 0.0
C1163 C 0.06574 0.15547 0.60311 0.0
C1164 C 0.06285 0.13056 0.61902 0.0
C1165 C 0.05171 0.10529 0.60478 0.0
C1166 C 0.05976 0.18018 0.5549 0.0
C1167 C 0.07165 0.13056 0.65118 0.0
H1168 H 0.14372 0.22537 0.62874 0.0
H1169 H 0.05759 0.23653 0.6567 0.0
H1170 H 0.1275 0.15593 0.61099 0.0
H1171 H 0.12342 0.17301 0.57699 0.0
H1172 H 0.15256 0.18691 0.60164 0.0
H1173 H 0.01599 0.20333 0.64801 0.0
H1174 H 0.01815 0.18649 0.61226 0.0
H1175 H 0.02246 0.16849 0.64557 0.0
H1176 H 0.03953 0.12837 0.53617 0.0
H1177 H 0.0497 0.08645 0.61721 0.0
H1178 H 0.08295 0.1905 0.55356 0.0
H1179 H 0.04721 0.19471 0.56604 0.0
H1180 H 0.05168 0.17601 0.53188 0.0
H1181 H 0.0952 0.13934 0.65308 0.0
H1182 H 0.06764 0.10963 0.6607 0.0
H1183 H 0.05932 0.14375 0.66483 0.0
C1184 C 0.78244 0.39677 0.42114 0.0
C1185 C 0.77635 0.36806 0.4213 0.0
C1186 C 0.76104 0.41212 0.43032 0.0
C1187 C 0.73275 0.39828 0.43868 0.0
C1188 C 0.72689 0.36925 0.43967 0.0
C1189 C 0.74893 0.35451 0.43131 0.0
C1190 C 0.76836 0.44305 0.43001 0.0
C1191 C 0.69685 0.35366 0.44777 0.0
C1192 C 0.67409 0.43126 0.47746 0.0
C1193 C 0.65689 0.43579 0.45333 0.0
C1194 C 0.7 0.42072 0.47291 0.0
C1195 C 0.70839 0.41371 0.44367 0.0
C1196 C 0.69178 0.41914 0.41916 0.0
C1197 C 0.6666 0.43058 0.42426 0.0
C1198 C 0.71768 0.41602 0.49951 0.0
C1199 C 0.69973 0.41156 0.38763 0.0
H1200 H 0.80374 0.40714 0.41338 0.0
H1201 H 0.74423 0.33226 0.43104 0.0
H1202 H 0.75717 0.45091 0.41131 0.0
H1203 H 0.76048 0.45182 0.45097 0.0
H1204 H 0.79223 0.45056 0.42731 0.0
H1205 H 0.69627 0.33115 0.4486 0.0
H1206 H 0.68945 0.36071 0.46978 0.0
H1207 H 0.68096 0.35773 0.43109 0.0
H1208 H 0.66687 0.43497 0.50006 0.0
H1209 H 0.65412 0.43483 0.40536 0.0
H1210 H 0.7413 0.42339 0.49497 0.0
H1211 H 0.71475 0.39373 0.50397 0.0
H1212 H 0.71097 0.42656 0.51991 0.0
H1213 H 0.72249 0.42129 0.38192 0.0
H1214 H 0.68498 0.41786 0.37098 0.0
H1215 H 0.69856 0.38901 0.38573 0.0
loop_
_geom_bond_atom_site_label_1
_geom_bond_atom_site_label_2
_geom_bond_distance
_geom_bond_site_symmetry_2
_ccdc_geom_bond_type
C0 C1 1.384 . S
C0 H13 0.947 . S
C0 C35 1.382 . S
C1 C0 1.384 . S
C1 C2 1.378 . S
C2 C1 1.378 . S
C2 C3 1.378 . S
C2 H14 0.952 . S
C3 C2 1.378 . S
C3 H15 0.950 . S
C3 C34 1.383 . S
H4 C23 0.947 . S
H5 C24 0.946 . S
H6 C26 0.953 . S
H7 C27 0.945 . S
H8 C29 0.952 . S
H9 C30 0.949 . S
H10 C32 0.950 . S
H11 C33 0.948 . S
H12 C35 0.951 . S
H13 C0 0.947 . S
H14 C2 0.952 . S
H15 C3 0.950 . S
N16 C19 1.382 . S
N16 C21 1.363 . S
N17 C19 1.371 . S
N17 C20 1.372 . S
N18 C20 1.361 . S
N18 C21 1.377 . S
C19 N16 1.382 . S
C19 N17 1.371 . S
C19 C22 1.480 . S
C20 N17 1.372 . S
C20 N18 1.361 . S
C20 C28 1.457 . S
C21 N16 1.363 . S
C21 N18 1.377 . S
C21 C34 1.479 . S
C22 C19 1.480 . S
C22 C23 1.383 . S
C22 C27 1.385 . S
C23 H4 0.947 . S
C23 C22 1.383 . S
C23 C24 1.388 . S
C24 H5 0.946 . S
C24 C23 1.388 . S
C24 C25 1.384 . S
C25 C24 1.384 . S
C25 C26 1.377 . S
C26 H6 0.953 . S
C26 C25 1.377 . S
C26 C27 1.369 . S
C27 H7 0.945 . S
C27 C22 1.385 . S
C27 C26 1.369 . S
C28 C20 1.457 . S
C28 C29 1.372 . S
C28 C33 1.364 . S
C29 H8 0.952 . S
C29 C28 1.372 . S
C29 C30 1.389 . S
C30 H9 0.949 . S
C30 C29 1.389 . S
C30 C31 1.387 . S
C31 C30 1.387 . S
C31 C32 1.372 . S
C32 H10 0.950 . S
C32 C31 1.372 . S
C32 C33 1.379 . S
C33 H11 0.948 . S
C33 C28 1.364 . S
C33 C32 1.379 . S
C34 C3 1.383 . S
C34 C21 1.479 . S
C34 C35 1.398 . S
C35 C0 1.382 . S
C35 H12 0.951 . S
C35 C34 1.398 . S
C36 C37 1.384 . S
C36 H49 0.947 . S
C36 C71 1.382 . S
C37 C36 1.384 . S
C37 C38 1.378 . S
C38 C37 1.378 . S
C38 C39 1.378 . S
C38 H50 0.952 . S
C39 C38 1.378 . S
C39 H51 0.950 . S
C39 C70 1.383 . S
H40 C59 0.947 . S
H41 C60 0.946 . S
H42 C62 0.953 . S
H43 C63 0.945 . S
H44 C65 0.952 . S
H45 C66 0.949 . S
H46 C68 0.950 . S
H47 C69 0.948 . S
H48 C71 0.951 . S
H49 C36 0.947 . S
H50 C38 0.952 . S
H51 C39 0.950 . S
N52 C55 1.382 . S
N52 C57 1.363 . S
N53 C55 1.371 . S
N53 C56 1.372 . S
N54 C56 1.361 . S
N54 C57 1.377 . S
C55 N52 1.382 . S
C55 N53 1.371 . S
C55 C58 1.480 . S
C56 N53 1.372 . S
C56 N54 1.361 . S
C56 C64 1.457 . S
C57 N52 1.363 . S
C57 N54 1.377 . S
C57 C70 1.479 . S
C58 C55 1.480 . S
C58 C59 1.383 . S
C58 C63 1.385 . S
C59 H40 0.947 . S
C59 C58 1.383 . S
C59 C60 1.388 . S
C60 H41 0.946 . S
C60 C59 1.388 . S
C60 C61 1.384 . S
C61 C60 1.384 . S
C61 C62 1.377 . S
C62 H42 0.953 . S
C62 C61 1.377 . S
C62 C63 1.369 . S
C63 H43 0.945 . S
C63 C58 1.385 . S
C63 C62 1.369 . S
C64 C56 1.457 . S
C64 C65 1.372 . S
C64 C69 1.364 . S
C65 H44 0.952 . S
C65 C64 1.372 . S
C65 C66 1.389 . S
C66 H45 0.949 . S
C66 C65 1.389 . S
C66 C67 1.387 . S
C67 C66 1.387 . S
C67 C68 1.372 . S
C68 H46 0.950 . S
C68 C67 1.372 . S
C68 C69 1.379 . S
C69 H47 0.948 . S
C69 C64 1.364 . S
C69 C68 1.379 . S
C70 C39 1.383 . S
C70 C57 1.479 . S
C70 C71 1.398 . S
C71 C36 1.382 . S
C71 H48 0.951 . S
C71 C70 1.398 . S
C72 C73 1.384 . S
C72 H85 0.947 . S
C72 C107 1.382 . S
C73 C72 1.384 . S
C73 C74 1.378 . S
C74 C73 1.378 . S
C74 C75 1.378 . S
C74 H86 0.952 . S
C75 C74 1.378 . S
C75 H87 0.950 . S
C75 C106 1.383 . S
H76 C95 0.947 . S
H77 C96 0.946 . S
H78 C98 0.953 . S
H79 C99 0.945 . S
H80 C101 0.952 . S
H81 C102 0.949 . S
H82 C104 0.950 . S
H83 C105 0.948 . S
H84 C107 0.951 . S
H85 C72 0.947 . S
H86 C74 0.952 . S
H87 C75 0.950 . S
N88 C91 1.382 . S
N88 C93 1.363 . S
N89 C91 1.371 . S
N89 C92 1.372 . S
N90 C92 1.361 . S
N90 C93 1.377 . S
C91 N88 1.382 . S
C91 N89 1.371 . S
C91 C94 1.480 . S
C92 N89 1.372 . S
C92 N90 1.361 . S
C92 C100 1.457 . S
C93 N88 1.363 . S
C93 N90 1.377 . S
C93 C106 1.479 . S
C94 C91 1.480 . S
C94 C95 1.383 . S
C94 C99 1.385 . S
C95 H76 0.947 . S
C95 C94 1.383 . S
C95 C96 1.388 . S
C96 H77 0.946 . S
C96 C95 1.388 . S
C96 C97 1.384 . S
C97 C96 1.384 . S
C97 C98 1.377 . S
C98 H78 0.953 . S
C98 C97 1.377 . S
C98 C99 1.369 . S
C99 H79 0.945 . S
C99 C94 1.385 . S
C99 C98 1.369 . S
C100 C92 1.457 . S
C100 C101 1.372 . S
C100 C105 1.364 . S
C101 H80 0.952 . S
C101 C100 1.372 . S
C101 C102 1.389 . S
C102 H81 0.949 . S
C102 C101 1.389 . S
C102 C103 1.387 . S
C103 C102 1.387 . S
C103 C104 1.372 . S
C104 H82 0.950 . S
C104 C103 1.372 . S
C104 C105 1.379 . S
C105 H83 0.948 . S
C105 C100 1.364 . S
C105 C104 1.379 . S
C106 C75 1.383 . S
C106 C93 1.479 . S
C106 C107 1.398 . S
C107 C72 1.382 . S
C107 H84 0.951 . S
C107 C106 1.398 . S
C108 C109 1.384 . S
C108 H121 0.947 . S
C108 C143 1.382 . S
C109 C108 1.384 . S
C109 C110 1.378 . S
C110 C109 1.378 . S
C110 C111 1.378 . S
C110 H122 0.952 . S
C111 C110 1.378 . S
C111 H123 0.950 . S
C111 C142 1.383 . S
H112 C131 0.947 . S
H113 C132 0.946 . S
H114 C134 0.953 . S
H115 C135 0.945 . S
H116 C137 0.952 . S
H117 C138 0.949 . S
H118 C140 0.950 . S
H119 C141 0.948 . S
H120 C143 0.951 . S
H121 C108 0.947 . S
H122 C110 0.952 . S
H123 C111 0.950 . S
N124 C127 1.382 . S
N124 C129 1.363 . S
N125 C127 1.371 . S
N125 C128 1.372 . S
N126 C128 1.361 . S
N126 C129 1.377 . S
C127 N124 1.382 . S
C127 N125 1.371 . S
C127 C130 1.480 . S
C128 N125 1.372 . S
C128 N126 1.361 . S
C128 C136 1.457 . S
C129 N124 1.363 . S
C129 N126 1.377 . S
C129 C142 1.479 . S
C130 C127 1.480 . S
C130 C131 1.383 . S
C130 C135 1.385 . S
C131 H112 0.947 . S
C131 C130 1.383 . S
C131 C132 1.388 . S
C132 H113 0.946 . S
C132 C131 1.388 . S
C132 C133 1.384 . S
C133 C132 1.384 . S
C133 C134 1.377 . S
C134 H114 0.953 . S
C134 C133 1.377 . S
C134 C135 1.369 . S
C135 H115 0.945 . S
C135 C130 1.385 . S
C135 C134 1.369 . S
C136 C128 1.457 . S
C136 C137 1.372 . S
C136 C141 1.364 . S
C137 H116 0.952 . S
C137 C136 1.372 . S
C137 C138 1.389 . S
C138 H117 0.949 . S
C138 C137 1.389 . S
C138 C139 1.387 . S
C139 C138 1.387 . S
C139 C140 1.372 . S
C140 H118 0.950 . S
C140 C139 1.372 . S
C140 C141 1.379 . S
C141 H119 0.948 . S
C141 C136 1.364 . S
C141 C140 1.379 . S
C142 C111 1.383 . S
C142 C129 1.479 . S
C142 C143 1.398 . S
C143 C108 1.382 . S
C143 H120 0.951 . S
C143 C142 1.398 . S
C144 C145 1.384 . S
C144 H157 0.947 . S
C144 C179 1.382 . S
C145 C144 1.384 . S
C145 C146 1.378 . S
C146 C145 1.378 . S
C146 C147 1.378 . S
C146 H158 0.952 . S
C147 C146 1.378 . S
C147 H159 0.950 . S
C147 C178 1.383 . S
H148 C167 0.947 . S
H149 C168 0.946 . S
H150 C170 0.953 . S
H151 C171 0.945 . S
H152 C173 0.952 . S
H153 C174 0.949 . S
H154 C176 0.950 . S
H155 C177 0.948 . S
H156 C179 0.951 . S
H157 C144 0.947 . S
H158 C146 0.952 . S
H159 C147 0.950 . S
N160 C163 1.382 . S
N160 C165 1.363 . S
N161 C163 1.371 . S
N161 C164 1.372 . S
N162 C164 1.361 . S
N162 C165 1.377 . S
C163 N160 1.382 . S
C163 N161 1.371 . S
C163 C166 1.480 . S
C164 N161 1.372 . S
C164 N162 1.361 . S
C164 C172 1.457 . S
C165 N160 1.363 . S
C165 N162 1.377 . S
C165 C178 1.479 . S
C166 C163 1.480 . S
C166 C167 1.383 . S
C166 C171 1.385 . S
C167 H148 0.947 . S
C167 C166 1.383 . S
C167 C168 1.388 . S
C168 H149 0.946 . S
C168 C167 1.388 . S
C168 C169 1.384 . S
C169 C168 1.384 . S
C169 C170 1.377 . S
C170 H150 0.953 . S
C170 C169 1.377 . S
C170 C171 1.369 . S
C171 H151 0.945 . S
C171 C166 1.385 . S
C171 C170 1.369 . S
C172 C164 1.457 . S
C172 C173 1.372 . S
C172 C177 1.364 . S
C173 H152 0.952 . S
C173 C172 1.372 . S
C173 C174 1.389 . S
C174 H153 0.949 . S
C174 C173 1.389 . S
C174 C175 1.387 . S
C175 C174 1.387 . S
C175 C176 1.372 . S
C176 H154 0.950 . S
C176 C175 1.372 . S
C176 C177 1.379 . S
C177 H155 0.948 . S
C177 C172 1.364 . S
C177 C176 1.379 . S
C178 C147 1.383 . S
C178 C165 1.479 . S
C178 C179 1.398 . S
C179 C144 1.382 . S
C179 H156 0.951 . S
C179 C178 1.398 . S
C180 C181 1.384 . S
C180 H193 0.947 . S
C180 C215 1.382 . S
C181 C180 1.384 . S
C181 C182 1.378 . S
C182 C181 1.378 . S
C182 C183 1.378 . S
C182 H194 0.952 . S
C183 C182 1.378 . S
C183 H195 0.950 . S
C183 C214 1.383 . S
H184 C203 0.947 . S
H185 C204 0.946 . S
H186 C206 0.953 . S
H187 C207 0.945 . S
H188 C209 0.952 . S
H189 C210 0.949 . S
H190 C212 0.950 . S
H191 C213 0.948 . S
H192 C215 0.951 . S
H193 C180 0.947 . S
H194 C182 0.952 . S
H195 C183 0.950 . S
N196 C199 1.382 . S
N196 C201 1.363 . S
N197 C199 1.371 . S
N197 C200 1.372 . S
N198 C200 1.361 . S
N198 C201 1.377 . S
C199 N196 1.382 . S
C199 N197 1.371 . S
C199 C202 1.480 . S
C200 N197 1.372 . S
C200 N198 1.361 . S
C200 C208 1.457 . S
C201 N196 1.363 . S
C201 N198 1.377 . S
C201 C214 1.479 . S
C202 C199 1.480 . S
C202 C203 1.383 . S
C202 C207 1.385 . S
C203 H184 0.947 . S
C203 C202 1.383 . S
C203 C204 1.388 . S
C204 H185 0.946 . S
C204 C203 1.388 . S
C204 C205 1.384 . S
C205 C204 1.384 . S
C205 C206 1.377 . S
C206 H186 0.953 . S
C206 C205 1.377 . S
C206 C207 1.369 . S
C207 H187 0.945 . S
C207 C202 1.385 . S
C207 C206 1.369 . S
C208 C200 1.457 . S
C208 C209 1.372 . S
C208 C213 1.364 . S
C209 H188 0.952 . S
C209 C208 1.372 . S
C209 C210 1.389 . S
C210 H189 0.949 . S
C210 C209 1.389 . S
C210 C211 1.387 . S
C211 C210 1.387 . S
C211 C212 1.372 . S
C212 H190 0.950 . S
C212 C211 1.372 . S
C212 C213 1.379 . S
C213 H191 0.948 . S
C213 C208 1.364 . S
C213 C212 1.379 . S
C214 C183 1.383 . S
C214 C201 1.479 . S
C214 C215 1.398 . S
C215 C180 1.382 . S
C215 H192 0.951 . S
C215 C214 1.398 . S
C216 C217 1.384 . S
C216 H229 0.947 . S
C216 C251 1.382 . S
C217 C216 1.384 . S
C217 C218 1.378 . S
C218 C217 1.378 . S
C218 C219 1.378 . S
C218 H230 0.952 . S
C219 C218 1.378 . S
C219 H231 0.950 . S
C219 C250 1.383 . S
H220 C239 0.947 . S
H221 C240 0.946 . S
H222 C242 0.953 . S
H223 C243 0.945 . S
H224 C245 0.952 . S
H225 C246 0.949 . S
H226 C248 0.950 . S
H227 C249 0.948 . S
H228 C251 0.951 . S
H229 C216 0.947 . S
H230 C218 0.952 . S
H231 C219 0.950 . S
N232 C235 1.382 . S
N232 C237 1.363 . S
N233 C235 1.371 . S
N233 C236 1.372 . S
N234 C236 1.361 . S
N234 C237 1.377 . S
C235 N232 1.382 . S
C235 N233 1.371 . S
C235 C238 1.480 . S
C236 N233 1.372 . S
C236 N234 1.361 . S
C236 C244 1.457 . S
C237 N232 1.363 . S
C237 N234 1.377 . S
C237 C250 1.479 . S
C238 C235 1.480 . S
C238 C239 1.383 . S
C238 C243 1.385 . S
C239 H220 0.947 . S
C239 C238 1.383 . S
C239 C240 1.388 . S
C240 H221 0.946 . S
C240 C239 1.388 . S
C240 C241 1.384 . S
C241 C240 1.384 . S
C241 C242 1.377 . S
C242 H222 0.953 . S
C242 C241 1.377 . S
C242 C243 1.369 . S
C243 H223 0.945 . S
C243 C238 1.385 . S
C243 C242 1.369 . S
C244 C236 1.457 . S
C244 C245 1.372 . S
C244 C249 1.364 . S
C245 H224 0.952 . S
C245 C244 1.372 . S
C245 C246 1.389 . S
C246 H225 0.949 . S
C246 C245 1.389 . S
C246 C247 1.387 . S
C247 C246 1.387 . S
C247 C248 1.372 . S
C248 H226 0.950 . S
C248 C247 1.372 . S
C248 C249 1.379 . S
C249 H227 0.948 . S
C249 C244 1.364 . S
C249 C248 1.379 . S
C250 C219 1.383 . S
C250 C237 1.479 . S
C250 C251 1.398 . S
C251 C216 1.382 . S
C251 H228 0.951 . S
C251 C250 1.398 . S
C252 C253 1.384 . S
C252 H265 0.947 . S
C252 C287 1.382 . S
C253 C252 1.384 . S
C253 C254 1.378 . S
C254 C253 1.378 . S
C254 C255 1.378 . S
C254 H266 0.952 . S
C255 C254 1.378 . S
C255 H267 0.950 . S
C255 C286 1.383 . S
H256 C275 0.947 . S
H257 C276 0.946 . S
H258 C278 0.953 . S
H259 C279 0.945 . S
H260 C281 0.952 . S
H261 C282 0.949 . S
H262 C284 0.950 . S
H263 C285 0.948 . S
H264 C287 0.951 . S
H265 C252 0.947 . S
H266 C254 0.952 . S
H267 C255 0.950 . S
N268 C271 1.382 . S
N268 C273 1.363 . S
N269 C271 1.371 . S
N269 C272 1.372 . S
N270 C272 1.361 . S
N270 C273 1.377 . S
C271 N268 1.382 . S
C271 N269 1.371 . S
C271 C274 1.480 . S
C272 N269 1.372 . S
C272 N270 1.361 . S
C272 C280 1.457 . S
C273 N268 1.363 . S
C273 N270 1.377 . S
C273 C286 1.479 . S
C274 C271 1.480 . S
C274 C275 1.383 . S
C274 C279 1.385 . S
C275 H256 0.947 . S
C275 C274 1.383 . S
C275 C276 1.388 . S
C276 H257 0.946 . S
C276 C275 1.388 . S
C276 C277 1.384 . S
C277 C276 1.384 . S
C277 C278 1.377 . S
C278 H258 0.953 . S
C278 C277 1.377 . S
C278 C279 1.369 . S
C279 H259 0.945 . S
C279 C274 1.385 . S
C279 C278 1.369 . S
C280 C272 1.457 . S
C280 C281 1.372 . S
C280 C285 1.364 . S
C281 H260 0.952 . S
C281 C280 1.372 . S
C281 C282 1.389 . S
C282 H261 0.949 . S
C282 C281 1.389 . S
C282 C283 1.387 . S
C283 C282 1.387 . S
C283 C284 1.372 . S
C284 H262 0.950 . S
C284 C283 1.372 . S
C284 C285 1.379 . S
C285 H263 0.948 . S
C285 C280 1.364 . S
C285 C284 1.379 . S
C286 C255 1.383 . S
C286 C273 1.479 . S
C286 C287 1.398 . S
C287 C252 1.382 . S
C287 H264 0.951 . S
C287 C286 1.398 . S
Gd288 C291 2.818 . S
Gd288 O308 2.377 . S
Gd288 O310 2.448 . S
Gd288 O311 2.506 . S
Gd288 O312 2.435 1_545 S
Gd288 O313 2.717 1_545 S
Gd288 O315 2.395 1_445 S
Gd288 O319 2.327 1_455 S
Gd289 C300 2.818 . S
Gd289 O309 2.395 1_665 S
Gd289 O313 2.327 1_655 S
Gd289 O314 2.377 . S
Gd289 O316 2.448 . S
Gd289 O317 2.506 . S
Gd289 O318 2.435 1_565 S
Gd289 O319 2.717 1_565 S
C290 O308 1.240 . S
C290 O309 1.240 . S
C291 Gd288 2.818 . S
C291 C292 1.510 . S
C291 O310 1.249 . S
C291 O311 1.252 . S
C292 C291 1.510 . S
C292 C293 1.404 . S
C292 C294 1.352 . S
C293 C292 1.404 . S
C293 C297 1.389 . S
C293 H320 0.930 . S
C294 C292 1.352 . S
C294 C296 1.374 . S
C294 H321 0.931 . S
C295 C296 1.359 . S
C295 C297 1.364 . S
C296 C294 1.374 . S
C296 C295 1.359 . S
C296 H322 0.931 . S
C297 C293 1.389 . S
C297 C295 1.364 . S
C297 H323 0.931 . S
C298 O312 1.256 . S
C298 O313 1.257 . S
C299 O314 1.240 . S
C299 O315 1.240 . S
C300 Gd289 2.818 . S
C300 C301 1.510 . S
C300 O316 1.249 . S
C300 O317 1.252 . S
C301 C300 1.510 . S
C301 C302 1.404 . S
C301 C303 1.352 . S
C302 C301 1.404 . S
C302 C306 1.389 . S
C302 H324 0.930 . S
C303 C301 1.352 . S
C303 C305 1.374 . S
C303 H325 0.931 . S
C304 C305 1.359 . S
C304 C306 1.364 . S
C305 C303 1.374 . S
C305 C304 1.359 . S
C305 H326 0.931 . S
C306 C302 1.389 . S
C306 C304 1.364 . S
C306 H327 0.931 . S
C307 O318 1.256 . S
C307 O319 1.257 . S
O308 Gd288 2.377 . S
O308 C290 1.240 . S
O309 Gd289 2.395 1_445 S
O309 C290 1.240 . S
O310 Gd288 2.448 . S
O310 C291 1.249 . S
O311 Gd288 2.506 . S
O311 C291 1.252 . S
O312 Gd288 2.435 1_565 S
O312 C298 1.256 . S
O313 Gd288 2.717 1_565 S
O313 Gd289 2.327 1_455 S
O313 C298 1.257 . S
O314 Gd289 2.377 . S
O314 C299 1.240 . S
O315 Gd288 2.395 1_665 S
O315 C299 1.240 . S
O316 Gd289 2.448 . S
O316 C300 1.249 . S
O317 Gd289 2.506 . S
O317 C300 1.252 . S
O318 Gd289 2.435 1_545 S
O318 C307 1.256 . S
O319 Gd288 2.327 1_655 S
O319 Gd289 2.717 1_545 S
O319 C307 1.257 . S
H320 C293 0.930 . S
H321 C294 0.931 . S
H322 C296 0.931 . S
H323 C297 0.931 . S
H324 C302 0.930 . S
H325 C303 0.931 . S
H326 C305 0.931 . S
H327 C306 0.931 . S
Gd328 C331 2.817 1_565 S
Gd328 O348 2.376 1_565 S
Gd328 O350 2.448 1_565 S
Gd328 O351 2.505 1_565 S
Gd328 O352 2.436 . S
Gd328 O353 2.718 . S
Gd328 O355 2.396 1_554 S
Gd328 O359 2.326 1_564 S
Gd329 C340 2.818 1_545 S
Gd329 O349 2.395 1_556 S
Gd329 O353 2.327 1_546 S
Gd329 O354 2.377 1_545 S
Gd329 O356 2.448 1_545 S
Gd329 O357 2.506 1_545 S
Gd329 O358 2.435 . S
Gd329 O359 2.717 . S
C330 O348 1.240 . S
C330 O349 1.240 . S
C331 Gd328 2.817 1_545 S
C331 C332 1.510 . S
C331 O350 1.249 . S
C331 O351 1.252 . S
C332 C331 1.510 . S
C332 C333 1.404 . S
C332 C334 1.352 . S
C333 C332 1.404 . S
C333 C337 1.389 . S
C333 H360 0.930 . S
C334 C332 1.352 . S
C334 C336 1.374 . S
C334 H361 0.931 . S
C335 C336 1.359 . S
C335 C337 1.364 . S
C336 C334 1.374 . S
C336 C335 1.359 . S
C336 H362 0.931 . S
C337 C333 1.389 . S
C337 C335 1.364 . S
C337 H363 0.931 . S
C338 O352 1.256 . S
C338 O353 1.257 . S
C339 O354 1.240 . S
C339 O355 1.240 . S
C340 Gd329 2.818 1_565 S
C340 C341 1.510 . S
C340 O356 1.249 . S
C340 O357 1.252 . S
C341 C340 1.510 . S
C341 C342 1.404 . S
C341 C343 1.352 . S
C342 C341 1.404 . S
C342 C346 1.389 . S
C342 H364 0.930 . S
C343 C341 1.352 . S
C343 C345 1.374 . S
C343 H365 0.931 . S
C344 C345 1.359 . S
C344 C346 1.364 . S
C345 C343 1.374 . S
C345 C344 1.359 . S
C345 H366 0.931 . S
C346 C342 1.389 . S
C346 C344 1.364 . S
C346 H367 0.931 . S
C347 O358 1.256 . S
C347 O359 1.257 . S
O348 Gd328 2.376 1_545 S
O348 C330 1.240 . S
O349 Gd329 2.395 1_554 S
O349 C330 1.240 . S
O350 Gd328 2.448 1_545 S
O350 C331 1.249 . S
O351 Gd328 2.505 1_545 S
O351 C331 1.252 . S
O352 Gd328 2.436 . S
O352 C338 1.256 . S
O353 Gd328 2.718 . S
O353 Gd329 2.327 1_564 S
O353 C338 1.257 . S
O354 Gd329 2.377 1_565 S
O354 C339 1.240 . S
O355 Gd328 2.396 1_556 S
O355 C339 1.240 . S
O356 Gd329 2.448 1_565 S
O356 C340 1.249 . S
O357 Gd329 2.506 1_565 S
O357 C340 1.252 . S
O358 Gd329 2.435 . S
O358 C347 1.256 . S
O359 Gd328 2.326 1_546 S
O359 Gd329 2.717 . S
O359 C347 1.257 . S
H360 C333 0.930 . S
H361 C334 0.931 . S
H362 C336 0.931 . S
H363 C337 0.931 . S
H364 C342 0.930 . S
H365 C343 0.931 . S
H366 C345 0.931 . S
H367 C346 0.931 . S
Gd368 C371 2.818 . S
Gd368 O388 2.377 . S
Gd368 O390 2.448 . S
Gd368 O391 2.506 . S
Gd368 O392 2.435 . S
Gd368 O393 2.717 . S
Gd368 O395 2.395 . S
Gd368 O399 2.327 . S
Gd369 C380 2.818 . S
Gd369 O389 2.395 . S
Gd369 O393 2.327 . S
Gd369 O394 2.377 . S
Gd369 O396 2.448 . S
Gd369 O397 2.506 . S
Gd369 O398 2.435 . S
Gd369 O399 2.717 . S
C370 O388 1.240 . S
C370 O389 1.240 . S
C371 Gd368 2.818 . S
C371 C372 1.510 . S
C371 O390 1.249 . S
C371 O391 1.252 . S
C372 C371 1.510 . S
C372 C373 1.404 . S
C372 C374 1.352 . S
C373 C372 1.404 . S
C373 C377 1.389 . S
C373 H400 0.930 . S
C374 C372 1.352 . S
C374 C376 1.374 . S
C374 H401 0.931 . S
C375 C376 1.359 . S
C375 C377 1.364 . S
C376 C374 1.374 . S
C376 C375 1.359 . S
C376 H402 0.931 . S
C377 C373 1.389 . S
C377 C375 1.364 . S
C377 H403 0.931 . S
C378 O392 1.256 . S
C378 O393 1.257 . S
C379 O394 1.240 . S
C379 O395 1.240 . S
C380 Gd369 2.818 . S
C380 C381 1.510 . S
C380 O396 1.249 . S
C380 O397 1.252 . S
C381 C380 1.510 . S
C381 C382 1.404 . S
C381 C383 1.352 . S
C382 C381 1.404 . S
C382 C386 1.389 . S
C382 H404 0.930 . S
C383 C381 1.352 . S
C383 C385 1.374 . S
C383 H405 0.931 . S
C384 C385 1.359 . S
C384 C386 1.364 . S
C385 C383 1.374 . S
C385 C384 1.359 . S
C385 H406 0.931 . S
C386 C382 1.389 . S
C386 C384 1.364 . S
C386 H407 0.931 . S
C387 O398 1.256 . S
C387 O399 1.257 . S
O388 Gd368 2.377 . S
O388 C370 1.240 . S
O389 Gd369 2.395 . S
O389 C370 1.240 . S
O390 Gd368 2.448 . S
O390 C371 1.249 . S
O391 Gd368 2.506 . S
O391 C371 1.252 . S
O392 Gd368 2.435 . S
O392 C378 1.256 . S
O393 Gd368 2.717 . S
O393 Gd369 2.327 . S
O393 C378 1.257 . S
O394 Gd369 2.377 . S
O394 C379 1.240 . S
O395 Gd368 2.395 . S
O395 C379 1.240 . S
O396 Gd369 2.448 . S
O396 C380 1.249 . S
O397 Gd369 2.506 . S
O397 C380 1.252 . S
O398 Gd369 2.435 . S
O398 C387 1.256 . S
O399 Gd368 2.327 . S
O399 Gd369 2.717 . S
O399 C387 1.257 . S
H400 C373 0.930 . S
H401 C374 0.931 . S
H402 C376 0.931 . S
H403 C377 0.931 . S
H404 C382 0.930 . S
H405 C383 0.931 . S
H406 C385 0.931 . S
H407 C386 0.931 . S
Gd408 C411 2.818 . S
Gd408 O428 2.377 . S
Gd408 O430 2.448 . S
Gd408 O431 2.506 . S
Gd408 O432 2.435 1_455 S
Gd408 O433 2.717 1_455 S
Gd408 O435 2.413 1_455 S
Gd408 O439 2.327 1_554 S
Gd409 C420 2.793 1_455 S
Gd409 O429 2.423 1_556 S
Gd409 O433 2.320 1_456 S
Gd409 O434 2.358 1_455 S
Gd409 O436 2.433 1_455 S
Gd409 O437 2.477 1_455 S
Gd409 O438 2.451 . S
Gd409 O439 2.733 . S
C410 O428 1.240 . S
C410 O429 1.240 . S
C411 Gd408 2.818 . S
C411 C412 1.510 . S
C411 O430 1.249 . S
C411 O431 1.252 . S
C412 C411 1.510 . S
C412 C413 1.404 . S
C412 C414 1.352 . S
C413 C412 1.404 . S
C413 C417 1.389 . S
C413 H440 0.930 . S
C414 C412 1.352 . S
C414 C416 1.374 . S
C414 H441 0.931 . S
C415 C416 1.359 . S
C415 C417 1.364 . S
C416 C414 1.374 . S
C416 C415 1.359 . S
C416 H442 0.931 . S
C417 C413 1.389 . S
C417 C415 1.364 . S
C417 H443 0.931 . S
C418 O432 1.256 . S
C418 O433 1.257 . S
C419 O434 1.240 . S
C419 O435 1.214 1_556 S
C420 Gd409 2.793 1_655 S
C420 C421 1.510 . S
C420 O436 1.249 . S
C420 O437 1.252 . S
C421 C420 1.510 . S
C421 C422 1.404 . S
C421 C423 1.352 . S
C422 C421 1.404 . S
C422 C426 1.389 . S
C422 H444 0.930 . S
C423 C421 1.352 . S
C423 C425 1.374 . S
C423 H445 0.931 . S
C424 C425 1.359 . S
C424 C426 1.364 . S
C425 C423 1.374 . S
C425 C424 1.359 . S
C425 H446 0.931 . S
C426 C422 1.389 . S
C426 C424 1.364 . S
C426 H447 0.931 . S
C427 O438 1.256 . S
C427 O439 1.257 . S
O428 Gd408 2.377 . S
O428 C410 1.240 . S
O429 Gd409 2.423 1_554 S
O429 C410 1.240 . S
O430 Gd408 2.448 . S
O430 C411 1.249 . S
O431 Gd408 2.506 . S
O431 C411 1.252 . S
O432 Gd408 2.435 1_655 S
O432 C418 1.256 . S
O433 Gd408 2.717 1_655 S
O433 Gd409 2.320 1_654 S
O433 C418 1.257 . S
O434 Gd409 2.358 1_655 S
O434 C419 1.240 . S
O435 Gd408 2.413 1_655 S
O435 C419 1.214 1_554 S
O436 Gd409 2.433 1_655 S
O436 C420 1.249 . S
O437 Gd409 2.477 1_655 S
O437 C420 1.252 . S
O438 Gd409 2.451 . S
O438 C427 1.256 . S
O439 Gd408 2.327 1_556 S
O439 Gd409 2.733 . S
O439 C427 1.257 . S
H440 C413 0.930 . S
H441 C414 0.931 . S
H442 C416 0.931 . S
H443 C417 0.931 . S
H444 C422 0.930 . S
H445 C423 0.931 . S
H446 C425 0.931 . S
H447 C426 0.931 . S
C448 C449 1.391 . S
C448 C450 1.394 . S
C448 H464 0.931 . S
C449 C448 1.391 . S
C449 C453 1.376 . S
C450 C448 1.394 . S
C450 C451 1.369 . S
C450 C454 1.531 . S
C451 C450 1.369 . S
C451 C452 1.410 . S
C451 C459 1.503 . S
C452 C451 1.410 . S
C452 C453 1.392 . S
C452 C455 1.511 . S
C453 C449 1.376 . S
C453 C452 1.392 . S
C453 H465 0.929 . S
C454 C450 1.531 . S
C454 H466 0.960 . S
C454 H467 0.962 . S
C454 H468 0.960 . S
C455 C452 1.511 . S
C455 H469 0.961 . S
C455 H470 0.961 . S
C455 H471 0.961 . S
C456 C457 1.370 . S
C456 C458 1.363 . S
C456 H472 0.931 . S
C457 C456 1.370 . S
C457 C461 1.408 . S
C458 C456 1.363 . S
C458 C459 1.370 . S
C458 C462 1.524 . S
C459 C451 1.503 . S
C459 C458 1.370 . S
C459 C460 1.403 . S
C460 C459 1.403 . S
C460 C461 1.404 . S
C460 C463 1.539 . S
C461 C457 1.408 . S
C461 C460 1.404 . S
C461 H473 0.930 . S
C462 C458 1.524 . S
C462 H474 0.956 . S
C462 H475 0.961 . S
C462 H476 0.961 . S
C463 C460 1.539 . S
C463 H477 0.958 . S
C463 H478 0.961 . S
C463 H479 0.960 . S
H464 C448 0.931 . S
H465 C453 0.929 . S
H466 C454 0.960 . S
H467 C454 0.962 . S
H468 C454 0.960 . S
H469 C455 0.961 . S
H470 C455 0.961 . S
H471 C455 0.961 . S
H472 C456 0.931 . S
H473 C461 0.930 . S
H474 C462 0.956 . S
H475 C462 0.961 . S
H476 C462 0.961 . S
H477 C463 0.958 . S
H478 C463 0.961 . S
H479 C463 0.960 . S
C480 C481 1.391 . S
C480 C482 1.394 . S
C480 H496 0.931 . S
C481 C480 1.391 . S
C481 C485 1.376 . S
C482 C480 1.394 . S
C482 C483 1.369 . S
C482 C486 1.531 . S
C483 C482 1.369 . S
C483 C484 1.410 . S
C483 C491 1.503 . S
C484 C483 1.410 . S
C484 C485 1.392 . S
C484 C487 1.511 . S
C485 C481 1.376 . S
C485 C484 1.392 . S
C485 H497 0.929 . S
C486 C482 1.531 . S
C486 H498 0.960 . S
C486 H499 0.962 . S
C486 H500 0.960 . S
C487 C484 1.511 . S
C487 H501 0.961 . S
C487 H502 0.961 . S
C487 H503 0.961 . S
C488 C489 1.370 . S
C488 C490 1.363 . S
C488 H504 0.931 . S
C489 C488 1.370 . S
C489 C493 1.408 . S
C490 C488 1.363 . S
C490 C491 1.370 . S
C490 C494 1.524 . S
C491 C483 1.503 . S
C491 C490 1.370 . S
C491 C492 1.403 . S
C492 C491 1.403 . S
C492 C493 1.404 . S
C492 C495 1.539 . S
C493 C489 1.408 . S
C493 C492 1.404 . S
C493 H505 0.930 . S
C494 C490 1.524 . S
C494 H506 0.956 . S
C494 H507 0.961 . S
C494 H508 0.961 . S
C495 C492 1.539 . S
C495 H509 0.958 . S
C495 H510 0.961 . S
C495 H511 0.960 . S
H496 C480 0.931 . S
H497 C485 0.929 . S
H498 C486 0.960 . S
H499 C486 0.962 . S
H500 C486 0.960 . S
H501 C487 0.961 . S
H502 C487 0.961 . S
H503 C487 0.961 . S
H504 C488 0.931 . S
H505 C493 0.930 . S
H506 C494 0.956 . S
H507 C494 0.961 . S
H508 C494 0.961 . S
H509 C495 0.958 . S
H510 C495 0.961 . S
H511 C495 0.960 . S
C512 C513 1.391 . S
C512 C514 1.394 . S
C512 H528 0.931 . S
C513 C512 1.391 . S
C513 C517 1.376 . S
C514 C512 1.394 . S
C514 C515 1.369 . S
C514 C518 1.531 . S
C515 C514 1.369 . S
C515 C516 1.410 . S
C515 C523 1.503 . S
C516 C515 1.410 . S
C516 C517 1.392 . S
C516 C519 1.511 . S
C517 C513 1.376 . S
C517 C516 1.392 . S
C517 H529 0.929 . S
C518 C514 1.531 . S
C518 H530 0.960 . S
C518 H531 0.962 . S
C518 H532 0.960 . S
C519 C516 1.511 . S
C519 H533 0.961 . S
C519 H534 0.961 . S
C519 H535 0.961 . S
C520 C521 1.370 . S
C520 C522 1.363 . S
C520 H536 0.931 . S
C521 C520 1.370 . S
C521 C525 1.408 . S
C522 C520 1.363 . S
C522 C523 1.370 . S
C522 C526 1.524 . S
C523 C515 1.503 . S
C523 C522 1.370 . S
C523 C524 1.403 . S
C524 C523 1.403 . S
C524 C525 1.404 . S
C524 C527 1.539 . S
C525 C521 1.408 . S
C525 C524 1.404 . S
C525 H537 0.930 . S
C526 C522 1.524 . S
C526 H538 0.956 . S
C526 H539 0.961 . S
C526 H540 0.961 . S
C527 C524 1.539 . S
C527 H541 0.958 . S
C527 H542 0.961 . S
C527 H543 0.960 . S
H528 C512 0.931 . S
H529 C517 0.929 . S
H530 C518 0.960 . S
H531 C518 0.962 . S
H532 C518 0.960 . S
H533 C519 0.961 . S
H534 C519 0.961 . S
H535 C519 0.961 . S
H536 C520 0.931 . S
H537 C525 0.930 . S
H538 C526 0.956 . S
H539 C526 0.961 . S
H540 C526 0.961 . S
H541 C527 0.958 . S
H542 C527 0.961 . S
H543 C527 0.960 . S
C544 C545 1.391 . S
C544 C546 1.394 . S
C544 H560 0.931 . S
C545 C544 1.391 . S
C545 C549 1.376 . S
C546 C544 1.394 . S
C546 C547 1.369 . S
C546 C550 1.531 . S
C547 C546 1.369 . S
C547 C548 1.410 . S
C547 C555 1.503 . S
C548 C547 1.410 . S
C548 C549 1.392 . S
C548 C551 1.511 . S
C549 C545 1.376 . S
C549 C548 1.392 . S
C549 H561 0.929 . S
C550 C546 1.531 . S
C550 H562 0.960 . S
C550 H563 0.962 . S
C550 H564 0.960 . S
C551 C548 1.511 . S
C551 H565 0.961 . S
C551 H566 0.961 . S
C551 H567 0.961 . S
C552 C553 1.370 . S
C552 C554 1.363 . S
C552 H568 0.931 . S
C553 C552 1.370 . S
C553 C557 1.408 . S
C554 C552 1.363 . S
C554 C555 1.370 . S
C554 C558 1.524 . S
C555 C547 1.503 . S
C555 C554 1.370 . S
C555 C556 1.403 . S
C556 C555 1.403 . S
C556 C557 1.404 . S
C556 C559 1.539 . S
C557 C553 1.408 . S
C557 C556 1.404 . S
C557 H569 0.930 . S
C558 C554 1.524 . S
C558 H570 0.956 . S
C558 H571 0.961 . S
C558 H572 0.961 . S
C559 C556 1.539 . S
C559 H573 0.958 . S
C559 H574 0.961 . S
C559 H575 0.960 . S
H560 C544 0.931 . S
H561 C549 0.929 . S
H562 C550 0.960 . S
H563 C550 0.962 . S
H564 C550 0.960 . S
H565 C551 0.961 . S
H566 C551 0.961 . S
H567 C551 0.961 . S
H568 C552 0.931 . S
H569 C557 0.930 . S
H570 C558 0.956 . S
H571 C558 0.961 . S
H572 C558 0.961 . S
H573 C559 0.958 . S
H574 C559 0.961 . S
H575 C559 0.960 . S
C576 C577 1.391 . S
C576 C578 1.394 . S
C576 H592 0.931 . S
C577 C576 1.391 . S
C577 C581 1.376 . S
C578 C576 1.394 . S
C578 C579 1.369 . S
C578 C582 1.531 . S
C579 C578 1.369 . S
C579 C580 1.410 . S
C579 C587 1.503 . S
C580 C579 1.410 . S
C580 C581 1.392 . S
C580 C583 1.511 . S
C581 C577 1.376 . S
C581 C580 1.392 . S
C581 H593 0.929 . S
C582 C578 1.531 . S
C582 H594 0.960 . S
C582 H595 0.962 . S
C582 H596 0.960 . S
C583 C580 1.511 . S
C583 H597 0.961 . S
C583 H598 0.961 . S
C583 H599 0.961 . S
C584 C585 1.370 . S
C584 C586 1.363 . S
C584 H600 0.931 . S
C585 C584 1.370 . S
C585 C589 1.408 . S
C586 C584 1.363 . S
C586 C587 1.370 . S
C586 C590 1.524 . S
C587 C579 1.503 . S
C587 C586 1.370 . S
C587 C588 1.403 . S
C588 C587 1.403 . S
C588 C589 1.404 . S
C588 C591 1.539 . S
C589 C585 1.408 . S
C589 C588 1.404 . S
C589 H601 0.930 . S
C590 C586 1.524 . S
C590 H602 0.956 . S
C590 H603 0.961 . S
C590 H604 0.961 . S
C591 C588 1.539 . S
C591 H605 0.958 . S
C591 H606 0.961 . S
C591 H607 0.960 . S
H592 C576 0.931 . S
H593 C581 0.929 . S
H594 C582 0.960 . S
H595 C582 0.962 . S
H596 C582 0.960 . S
H597 C583 0.961 . S
H598 C583 0.961 . S
H599 C583 0.961 . S
H600 C584 0.931 . S
H601 C589 0.930 . S
H602 C590 0.956 . S
H603 C590 0.961 . S
H604 C590 0.961 . S
H605 C591 0.958 . S
H606 C591 0.961 . S
H607 C591 0.960 . S
C608 C609 1.391 . S
C608 C610 1.394 . S
C608 H624 0.931 . S
C609 C608 1.391 . S
C609 C613 1.376 . S
C610 C608 1.394 . S
C610 C611 1.369 . S
C610 C614 1.531 . S
C611 C610 1.369 . S
C611 C612 1.410 . S
C611 C619 1.503 . S
C612 C611 1.410 . S
C612 C613 1.392 . S
C612 C615 1.511 . S
C613 C609 1.376 . S
C613 C612 1.392 . S
C613 H625 0.929 . S
C614 C610 1.531 . S
C614 H626 0.960 . S
C614 H627 0.962 . S
C614 H628 0.960 . S
C615 C612 1.511 . S
C615 H629 0.961 . S
C615 H630 0.961 . S
C615 H631 0.961 . S
C616 C617 1.370 . S
C616 C618 1.363 . S
C616 H632 0.931 . S
C617 C616 1.370 . S
C617 C621 1.408 . S
C618 C616 1.363 . S
C618 C619 1.370 . S
C618 C622 1.524 . S
C619 C611 1.503 . S
C619 C618 1.370 . S
C619 C620 1.403 . S
C620 C619 1.403 . S
C620 C621 1.404 . S
C620 C623 1.539 . S
C621 C617 1.408 . S
C621 C620 1.404 . S
C621 H633 0.930 . S
C622 C618 1.524 . S
C622 H634 0.956 . S
C622 H635 0.961 . S
C622 H636 0.961 . S
C623 C620 1.539 . S
C623 H637 0.958 . S
C623 H638 0.961 . S
C623 H639 0.960 . S
H624 C608 0.931 . S
H625 C613 0.929 . S
H626 C614 0.960 . S
H627 C614 0.962 . S
H628 C614 0.960 . S
H629 C615 0.961 . S
H630 C615 0.961 . S
H631 C615 0.961 . S
H632 C616 0.931 . S
H633 C621 0.930 . S
H634 C622 0.956 . S
H635 C622 0.961 . S
H636 C622 0.961 . S
H637 C623 0.958 . S
H638 C623 0.961 . S
H639 C623 0.960 . S
C640 C641 1.391 . S
C640 C642 1.394 . S
C640 H656 0.931 . S
C641 C640 1.391 . S
C641 C645 1.376 . S
C642 C640 1.394 . S
C642 C643 1.369 . S
C642 C646 1.531 . S
C643 C642 1.369 . S
C643 C644 1.410 . S
C643 C651 1.503 . S
C644 C643 1.410 . S
C644 C645 1.392 . S
C644 C647 1.511 . S
C645 C641 1.376 . S
C645 C644 1.392 . S
C645 H657 0.929 . S
C646 C642 1.531 . S
C646 H658 0.960 . S
C646 H659 0.962 . S
C646 H660 0.960 . S
C647 C644 1.511 . S
C647 H661 0.961 . S
C647 H662 0.961 . S
C647 H663 0.961 . S
C648 C649 1.370 . S
C648 C650 1.363 . S
C648 H664 0.931 . S
C649 C648 1.370 . S
C649 C653 1.408 . S
C650 C648 1.363 . S
C650 C651 1.370 . S
C650 C654 1.524 . S
C651 C643 1.503 . S
C651 C650 1.370 . S
C651 C652 1.403 . S
C652 C651 1.403 . S
C652 C653 1.404 . S
C652 C655 1.539 . S
C653 C649 1.408 . S
C653 C652 1.404 . S
C653 H665 0.930 1_556 S
C654 C650 1.524 . S
C654 H666 0.956 . S
C654 H667 0.961 . S
C654 H668 0.961 . S
C655 C652 1.539 . S
C655 H669 0.958 . S
C655 H670 0.961 1_556 S
C655 H671 0.960 . S
H656 C640 0.931 . S
H657 C645 0.929 . S
H658 C646 0.960 . S
H659 C646 0.962 . S
H660 C646 0.960 . S
H661 C647 0.961 . S
H662 C647 0.961 . S
H663 C647 0.961 . S
H664 C648 0.931 . S
H665 C653 0.930 1_554 S
H666 C654 0.956 . S
H667 C654 0.961 . S
H668 C654 0.961 . S
H669 C655 0.958 . S
H670 C655 0.961 1_554 S
H671 C655 0.960 . S
C672 C673 1.391 . S
C672 C674 1.394 . S
C672 H688 0.931 . S
C673 C672 1.391 . S
C673 C677 1.376 . S
C674 C672 1.394 . S
C674 C675 1.369 . S
C674 C678 1.531 . S
C675 C674 1.369 . S
C675 C676 1.410 . S
C675 C683 1.503 . S
C676 C675 1.410 . S
C676 C677 1.392 . S
C676 C679 1.511 . S
C677 C673 1.376 . S
C677 C676 1.392 . S
C677 H689 0.929 . S
C678 C674 1.531 . S
C678 H690 0.960 . S
C678 H691 0.962 . S
C678 H692 0.960 . S
C679 C676 1.511 . S
C679 H693 0.961 . S
C679 H694 0.961 . S
C679 H695 0.961 . S
C680 C681 1.370 . S
C680 C682 1.363 . S
C680 H696 0.931 . S
C681 C680 1.370 . S
C681 C685 1.408 . S
C682 C680 1.363 . S
C682 C683 1.370 . S
C682 C686 1.524 . S
C683 C675 1.503 . S
C683 C682 1.370 . S
C683 C684 1.403 . S
C684 C683 1.403 . S
C684 C685 1.404 . S
C684 C687 1.539 . S
C685 C681 1.408 . S
C685 C684 1.404 . S
C685 H697 0.930 . S
C686 C682 1.524 . S
C686 H698 0.956 . S
C686 H699 0.961 . S
C686 H700 0.961 . S
C687 C684 1.539 . S
C687 H701 0.958 . S
C687 H702 0.961 . S
C687 H703 0.960 . S
H688 C672 0.931 . S
H689 C677 0.929 . S
H690 C678 0.960 . S
H691 C678 0.962 . S
H692 C678 0.960 . S
H693 C679 0.961 . S
H694 C679 0.961 . S
H695 C679 0.961 . S
H696 C680 0.931 . S
H697 C685 0.930 . S
H698 C686 0.956 . S
H699 C686 0.961 . S
H700 C686 0.961 . S
H701 C687 0.958 . S
H702 C687 0.961 . S
H703 C687 0.960 . S
C704 C705 1.391 . S
C704 C706 1.394 . S
C704 H720 0.931 . S
C705 C704 1.391 . S
C705 C709 1.376 . S
C706 C704 1.394 . S
C706 C707 1.369 . S
C706 C710 1.531 . S
C707 C706 1.369 . S
C707 C708 1.410 . S
C707 C715 1.503 . S
C708 C707 1.410 . S
C708 C709 1.392 . S
C708 C711 1.511 . S
C709 C705 1.376 . S
C709 C708 1.392 . S
C709 H721 0.929 . S
C710 C706 1.531 . S
C710 H722 0.960 . S
C710 H723 0.962 . S
C710 H724 0.960 . S
C711 C708 1.511 . S
C711 H725 0.961 . S
C711 H726 0.961 . S
C711 H727 0.961 . S
C712 C713 1.370 . S
C712 C714 1.363 . S
C712 H728 0.931 . S
C713 C712 1.370 . S
C713 C717 1.408 . S
C714 C712 1.363 . S
C714 C715 1.370 . S
C714 C718 1.524 . S
C715 C707 1.503 . S
C715 C714 1.370 . S
C715 C716 1.403 . S
C716 C715 1.403 . S
C716 C717 1.404 . S
C716 C719 1.539 . S
C717 C713 1.408 . S
C717 C716 1.404 . S
C717 H729 0.930 . S
C718 C714 1.524 . S
C718 H730 0.956 . S
C718 H731 0.961 . S
C718 H732 0.961 . S
C719 C716 1.539 . S
C719 H733 0.958 . S
C719 H734 0.961 . S
C719 H735 0.960 . S
H720 C704 0.931 . S
H721 C709 0.929 . S
H722 C710 0.960 . S
H723 C710 0.962 . S
H724 C710 0.960 . S
H725 C711 0.961 . S
H726 C711 0.961 . S
H727 C711 0.961 . S
H728 C712 0.931 . S
H729 C717 0.930 . S
H730 C718 0.956 . S
H731 C718 0.961 . S
H732 C718 0.961 . S
H733 C719 0.958 . S
H734 C719 0.961 . S
H735 C719 0.960 . S
C736 C737 1.391 . S
C736 C738 1.394 . S
C736 H752 0.931 . S
C737 C736 1.391 . S
C737 C741 1.376 . S
C738 C736 1.394 . S
C738 C739 1.369 . S
C738 C742 1.531 . S
C739 C738 1.369 . S
C739 C740 1.410 . S
C739 C747 1.503 . S
C740 C739 1.410 . S
C740 C741 1.392 . S
C740 C743 1.511 . S
C741 C737 1.376 . S
C741 C740 1.392 . S
C741 H753 0.929 . S
C742 C738 1.531 . S
C742 H754 0.960 . S
C742 H755 0.962 . S
C742 H756 0.960 . S
C743 C740 1.511 . S
C743 H757 0.961 . S
C743 H758 0.961 . S
C743 H759 0.961 . S
C744 C745 1.370 . S
C744 C746 1.363 . S
C744 H760 0.931 . S
C745 C744 1.370 . S
C745 C749 1.408 . S
C746 C744 1.363 . S
C746 C747 1.370 . S
C746 C750 1.524 . S
C747 C739 1.503 . S
C747 C746 1.370 . S
C747 C748 1.403 . S
C748 C747 1.403 . S
C748 C749 1.404 . S
C748 C751 1.539 . S
C749 C745 1.408 . S
C749 C748 1.404 . S
C749 H761 0.930 . S
C750 C746 1.524 . S
C750 H762 0.956 . S
C750 H763 0.961 . S
C750 H764 0.961 . S
C751 C748 1.539 . S
C751 H765 0.958 . S
C751 H766 0.961 . S
C751 H767 0.960 . S
H752 C736 0.931 . S
H753 C741 0.929 . S
H754 C742 0.960 . S
H755 C742 0.962 . S
H756 C742 0.960 . S
H757 C743 0.961 . S
H758 C743 0.961 . S
H759 C743 0.961 . S
H760 C744 0.931 . S
H761 C749 0.930 . S
H762 C750 0.956 . S
H763 C750 0.961 . S
H764 C750 0.961 . S
H765 C751 0.958 . S
H766 C751 0.961 . S
H767 C751 0.960 . S
C768 C769 1.391 . S
C768 C770 1.394 . S
C768 H784 0.931 . S
C769 C768 1.391 . S
C769 C773 1.376 . S
C770 C768 1.394 . S
C770 C771 1.369 . S
C770 C774 1.531 . S
C771 C770 1.369 . S
C771 C772 1.410 . S
C771 C779 1.503 . S
C772 C771 1.410 . S
C772 C773 1.392 . S
C772 C775 1.511 . S
C773 C769 1.376 . S
C773 C772 1.392 . S
C773 H785 0.929 . S
C774 C770 1.531 . S
C774 H786 0.960 . S
C774 H787 0.962 . S
C774 H788 0.960 . S
C775 C772 1.511 . S
C775 H789 0.961 . S
C775 H790 0.961 . S
C775 H791 0.961 . S
C776 C777 1.370 . S
C776 C778 1.363 . S
C776 H792 0.931 . S
C777 C776 1.370 . S
C777 C781 1.408 . S
C778 C776 1.363 . S
C778 C779 1.370 . S
C778 C782 1.524 . S
C779 C771 1.503 . S
C779 C778 1.370 . S
C779 C780 1.403 . S
C780 C779 1.403 . S
C780 C781 1.404 . S
C780 C783 1.539 . S
C781 C777 1.408 . S
C781 C780 1.404 . S
C781 H793 0.930 . S
C782 C778 1.524 . S
C782 H794 0.956 . S
C782 H795 0.961 . S
C782 H796 0.961 . S
C783 C780 1.539 . S
C783 H797 0.958 . S
C783 H798 1.001 . S
C783 H799 0.960 . S
H784 C768 0.931 . S
H785 C773 0.929 . S
H786 C774 0.960 . S
H787 C774 0.962 . S
H788 C774 0.960 . S
H789 C775 0.961 . S
H790 C775 0.961 . S
H791 C775 0.961 . S
H792 C776 0.931 . S
H793 C781 0.930 . S
H794 C782 0.956 . S
H795 C782 0.961 . S
H796 C782 0.961 . S
H797 C783 0.958 . S
H798 C783 1.001 . S
H799 C783 0.960 . S
C800 C801 1.391 . S
C800 C802 1.394 . S
C800 H816 0.931 . S
C801 C800 1.391 . S
C801 C805 1.376 . S
C802 C800 1.394 . S
C802 C803 1.369 . S
C802 C806 1.531 . S
C803 C802 1.369 . S
C803 C804 1.410 . S
C803 C811 1.503 . S
C804 C803 1.410 . S
C804 C805 1.392 . S
C804 C807 1.511 . S
C805 C801 1.376 . S
C805 C804 1.392 . S
C805 H817 0.929 . S
C806 C802 1.531 . S
C806 H818 0.960 . S
C806 H819 0.962 . S
C806 H820 0.960 . S
C807 C804 1.511 . S
C807 H821 0.961 . S
C807 H822 0.961 . S
C807 H823 0.961 . S
C808 C809 1.370 . S
C808 C810 1.363 . S
C808 H824 0.931 . S
C809 C808 1.370 . S
C809 C813 1.408 . S
C810 C808 1.363 . S
C810 C811 1.370 . S
C810 C814 1.524 . S
C811 C803 1.503 . S
C811 C810 1.370 . S
C811 C812 1.403 . S
C812 C811 1.403 . S
C812 C813 1.404 . S
C812 C815 1.539 . S
C813 C809 1.408 . S
C813 C812 1.404 . S
C813 H825 0.930 . S
C814 C810 1.524 . S
C814 H826 0.956 . S
C814 H827 0.961 . S
C814 H828 0.961 . S
C815 C812 1.539 . S
C815 H829 0.958 . S
C815 H830 0.961 . S
C815 H831 0.960 . S
H816 C800 0.931 . S
H817 C805 0.929 . S
H818 C806 0.960 . S
H819 C806 0.962 . S
H820 C806 0.960 . S
H821 C807 0.961 . S
H822 C807 0.961 . S
H823 C807 0.961 . S
H824 C808 0.931 . S
H825 C813 0.930 . S
H826 C814 0.956 . S
H827 C814 0.961 . S
H828 C814 0.961 . S
H829 C815 0.958 . S
H830 C815 0.961 . S
H831 C815 0.960 . S
C832 C833 1.391 . S
C832 C834 1.394 . S
C832 H848 0.931 . S
C833 C832 1.391 . S
C833 C837 1.376 . S
C834 C832 1.394 . S
C834 C835 1.369 . S
C834 C838 1.531 . S
C835 C834 1.369 . S
C835 C836 1.410 . S
C835 C843 1.503 . S
C836 C835 1.410 . S
C836 C837 1.392 . S
C836 C839 1.511 . S
C837 C833 1.376 . S
C837 C836 1.392 . S
C837 H849 0.929 . S
C838 C834 1.531 . S
C838 H850 0.960 . S
C838 H851 0.962 . S
C838 H852 0.960 . S
C839 C836 1.511 . S
C839 H853 0.961 . S
C839 H854 0.961 . S
C839 H855 0.961 . S
C840 C841 1.370 . S
C840 C842 1.363 . S
C840 H856 0.931 . S
C841 C840 1.370 . S
C841 C845 1.408 . S
C842 C840 1.363 . S
C842 C843 1.370 . S
C842 C846 1.524 . S
C843 C835 1.503 . S
C843 C842 1.370 . S
C843 C844 1.403 . S
C844 C843 1.403 . S
C844 C845 1.404 . S
C844 C847 1.539 . S
C845 C841 1.408 . S
C845 C844 1.404 . S
C845 H857 0.930 . S
C846 C842 1.524 . S
C846 H858 0.956 . S
C846 H859 0.961 . S
C846 H860 0.961 . S
C847 C844 1.539 . S
C847 H861 0.958 . S
C847 H862 0.961 . S
C847 H863 0.960 . S
H848 C832 0.931 . S
H849 C837 0.929 . S
H850 C838 0.960 . S
H851 C838 0.962 . S
H852 C838 0.960 . S
H853 C839 0.961 . S
H854 C839 0.961 . S
H855 C839 0.961 . S
H856 C840 0.931 . S
H857 C845 0.930 . S
H858 C846 0.956 . S
H859 C846 0.961 . S
H860 C846 0.961 . S
H861 C847 0.958 . S
H862 C847 0.961 . S
H863 C847 0.960 . S
C864 C865 1.391 . S
C864 C866 1.394 . S
C864 H880 0.931 . S
C865 C864 1.391 . S
C865 C869 1.376 . S
C866 C864 1.394 . S
C866 C867 1.369 . S
C866 C870 1.531 . S
C867 C866 1.369 . S
C867 C868 1.410 . S
C867 C875 1.503 . S
C868 C867 1.410 . S
C868 C869 1.392 . S
C868 C871 1.511 . S
C869 C865 1.376 . S
C869 C868 1.392 . S
C869 H881 0.929 . S
C870 C866 1.531 . S
C870 H882 0.960 . S
C870 H883 0.962 . S
C870 H884 0.960 . S
C871 C868 1.511 . S
C871 H885 0.961 . S
C871 H886 0.961 . S
C871 H887 0.961 . S
C872 C873 1.370 . S
C872 C874 1.363 . S
C872 H888 0.931 . S
C873 C872 1.370 . S
C873 C877 1.408 . S
C874 C872 1.363 . S
C874 C875 1.370 . S
C874 C878 1.524 . S
C875 C867 1.503 . S
C875 C874 1.370 . S
C875 C876 1.403 . S
C876 C875 1.403 . S
C876 C877 1.404 . S
C876 C879 1.539 . S
C877 C873 1.408 . S
C877 C876 1.404 . S
C877 H889 0.930 . S
C878 C874 1.524 . S
C878 H890 0.956 . S
C878 H891 0.961 . S
C878 H892 0.961 . S
C879 C876 1.539 . S
C879 H893 0.958 . S
C879 H894 0.961 . S
C879 H895 0.960 . S
H880 C864 0.931 . S
H881 C869 0.929 . S
H882 C870 0.960 . S
H883 C870 0.962 . S
H884 C870 0.960 . S
H885 C871 0.961 . S
H886 C871 0.961 . S
H887 C871 0.961 . S
H888 C872 0.931 . S
H889 C877 0.930 . S
H890 C878 0.956 . S
H891 C878 0.961 . S
H892 C878 0.961 . S
H893 C879 0.958 . S
H894 C879 0.961 . S
H895 C879 0.960 . S
C896 C897 1.391 . S
C896 C898 1.394 . S
C896 H912 0.931 . S
C897 C896 1.391 . S
C897 C901 1.376 . S
C898 C896 1.394 . S
C898 C899 1.369 . S
C898 C902 1.531 . S
C899 C898 1.369 . S
C899 C900 1.410 . S
C899 C907 1.503 . S
C900 C899 1.410 . S
C900 C901 1.392 . S
C900 C903 1.511 . S
C901 C897 1.376 . S
C901 C900 1.392 . S
C901 H913 0.929 . S
C902 C898 1.531 . S
C902 H914 0.960 . S
C902 H915 0.962 . S
C902 H916 0.960 . S
C903 C900 1.511 . S
C903 H917 0.961 . S
C903 H918 0.961 . S
C903 H919 0.961 . S
C904 C905 1.370 . S
C904 C906 1.363 . S
C904 H920 0.931 . S
C905 C904 1.370 . S
C905 C909 1.408 . S
C906 C904 1.363 . S
C906 C907 1.370 . S
C906 C910 1.524 . S
C907 C899 1.503 . S
C907 C906 1.370 . S
C907 C908 1.403 . S
C908 C907 1.403 . S
C908 C909 1.404 . S
C908 C911 1.539 . S
C909 C905 1.408 . S
C909 C908 1.404 . S
C909 H921 0.930 . S
C910 C906 1.524 . S
C910 H922 0.956 . S
C910 H923 0.961 . S
C910 H924 0.961 . S
C911 C908 1.539 . S
C911 H925 0.958 . S
C911 H926 0.961 . S
C911 H927 0.960 . S
H912 C896 0.931 . S
H913 C901 0.929 . S
H914 C902 0.960 . S
H915 C902 0.962 . S
H916 C902 0.960 . S
H917 C903 0.961 . S
H918 C903 0.961 . S
H919 C903 0.961 . S
H920 C904 0.931 . S
H921 C909 0.930 . S
H922 C910 0.956 . S
H923 C910 0.961 . S
H924 C910 0.961 . S
H925 C911 0.958 . S
H926 C911 0.961 . S
H927 C911 0.960 . S
C928 C929 1.391 . S
C928 C930 1.394 . S
C928 H944 0.931 . S
C929 C928 1.391 . S
C929 C933 1.376 . S
C930 C928 1.394 . S
C930 C931 1.369 . S
C930 C934 1.531 . S
C931 C930 1.369 . S
C931 C932 1.410 . S
C931 C939 1.503 . S
C932 C931 1.410 . S
C932 C933 1.392 . S
C932 C935 1.511 . S
C933 C929 1.376 . S
C933 C932 1.392 . S
C933 H945 0.929 . S
C934 C930 1.531 . S
C934 H946 0.960 . S
C934 H947 0.962 . S
C934 H948 0.960 . S
C935 C932 1.511 . S
C935 H949 0.961 . S
C935 H950 0.961 . S
C935 H951 0.961 . S
C936 C937 1.370 . S
C936 C938 1.363 . S
C936 H952 0.931 . S
C937 C936 1.370 . S
C937 C941 1.408 . S
C938 C936 1.363 . S
C938 C939 1.370 . S
C938 C942 1.524 . S
C939 C931 1.503 . S
C939 C938 1.370 . S
C939 C940 1.403 . S
C940 C939 1.403 . S
C940 C941 1.404 . S
C940 C943 1.539 . S
C941 C937 1.408 . S
C941 C940 1.404 . S
C941 H953 0.930 . S
C942 C938 1.524 . S
C942 H954 0.956 . S
C942 H955 0.961 . S
C942 H956 0.961 . S
C943 C940 1.539 . S
C943 H957 0.958 . S
C943 H958 0.961 . S
C943 H959 0.960 . S
H944 C928 0.931 . S
H945 C933 0.929 . S
H946 C934 0.960 . S
H947 C934 0.962 . S
H948 C934 0.960 . S
H949 C935 0.961 . S
H950 C935 0.961 . S
H951 C935 0.961 . S
H952 C936 0.931 . S
H953 C941 0.930 . S
H954 C942 0.956 . S
H955 C942 0.961 . S
H956 C942 0.961 . S
H957 C943 0.958 . S
H958 C943 0.961 . S
H959 C943 0.960 . S
C960 C961 1.391 . S
C960 C962 1.394 . S
C960 H976 0.931 . S
C961 C960 1.391 . S
C961 C965 1.376 . S
C962 C960 1.394 . S
C962 C963 1.369 . S
C962 C966 1.531 . S
C963 C962 1.369 . S
C963 C964 1.410 . S
C963 C971 1.503 . S
C964 C963 1.410 . S
C964 C965 1.392 . S
C964 C967 1.511 . S
C965 C961 1.376 . S
C965 C964 1.392 . S
C965 H977 0.929 . S
C966 C962 1.531 . S
C966 H978 0.960 . S
C966 H979 0.962 . S
C966 H980 0.960 . S
C967 C964 1.511 . S
C967 H981 0.961 . S
C967 H982 0.961 . S
C967 H983 0.961 . S
C968 C969 1.370 . S
C968 C970 1.363 . S
C968 H984 0.931 . S
C969 C968 1.370 . S
C969 C973 1.408 . S
C970 C968 1.363 . S
C970 C971 1.370 . S
C970 C974 1.524 . S
C971 C963 1.503 . S
C971 C970 1.370 . S
C971 C972 1.403 . S
C972 C971 1.403 . S
C972 C973 1.404 . S
C972 C975 1.539 . S
C973 C969 1.408 . S
C973 C972 1.404 . S
C973 H985 0.930 . S
C974 C970 1.524 . S
C974 H986 0.956 . S
C974 H987 0.961 . S
C974 H988 0.961 . S
C975 C972 1.539 . S
C975 H989 0.958 . S
C975 H990 0.961 . S
C975 H991 0.960 . S
H976 C960 0.931 . S
H977 C965 0.929 . S
H978 C966 0.960 . S
H979 C966 0.962 . S
H980 C966 0.960 . S
H981 C967 0.961 . S
H982 C967 0.961 . S
H983 C967 0.961 . S
H984 C968 0.931 . S
H985 C973 0.930 . S
H986 C974 0.956 . S
H987 C974 0.961 . S
H988 C974 0.961 . S
H989 C975 0.958 . S
H990 C975 0.961 . S
H991 C975 0.960 . S
C992 C993 1.391 . S
C992 C994 1.394 . S
C992 H1008 0.931 . S
C993 C992 1.391 . S
C993 C997 1.376 . S
C994 C992 1.394 . S
C994 C995 1.369 . S
C994 C998 1.531 . S
C995 C994 1.369 . S
C995 C996 1.410 . S
C995 C1003 1.503 . S
C996 C995 1.410 . S
C996 C997 1.392 . S
C996 C999 1.511 . S
C997 C993 1.376 . S
C997 C996 1.392 . S
C997 H1009 0.929 . S
C998 C994 1.531 . S
C998 H1010 0.960 . S
C998 H1011 0.962 . S
C998 H1012 0.960 . S
C999 C996 1.511 . S
C999 H1013 0.961 . S
C999 H1014 0.961 . S
C999 H1015 0.961 . S
C1000 C1001 1.370 . S
C1000 C1002 1.363 . S
C1000 H1016 0.931 . S
C1001 C1000 1.370 . S
C1001 C1005 1.408 . S
C1002 C1000 1.363 . S
C1002 C1003 1.370 . S
C1002 C1006 1.524 . S
C1003 C995 1.503 . S
C1003 C1002 1.370 . S
C1003 C1004 1.403 . S
C1004 C1003 1.403 . S
C1004 C1005 1.404 . S
C1004 C1007 1.539 . S
C1005 C1001 1.408 . S
C1005 C1004 1.404 . S
C1005 H1017 0.930 . S
C1006 C1002 1.524 . S
C1006 H1018 0.956 . S
C1006 H1019 0.961 . S
C1006 H1020 0.961 . S
C1007 C1004 1.539 . S
C1007 H1021 0.958 . S
C1007 H1022 0.961 . S
C1007 H1023 0.960 . S
H1008 C992 0.931 . S
H1009 C997 0.929 . S
H1010 C998 0.960 . S
H1011 C998 0.962 . S
H1012 C998 0.960 . S
H1013 C999 0.961 . S
H1014 C999 0.961 . S
H1015 C999 0.961 . S
H1016 C1000 0.931 . S
H1017 C1005 0.930 . S
H1018 C1006 0.956 . S
H1019 C1006 0.961 . S
H1020 C1006 0.961 . S
H1021 C1007 0.958 . S
H1022 C1007 0.961 . S
H1023 C1007 0.960 . S
C1024 C1025 1.391 . S
C1024 C1026 1.394 . S
C1024 H1040 0.931 . S
C1025 C1024 1.391 . S
C1025 C1029 1.376 . S
C1026 C1024 1.394 . S
C1026 C1027 1.369 . S
C1026 C1030 1.531 . S
C1027 C1026 1.369 . S
C1027 C1028 1.410 . S
C1027 C1035 1.503 . S
C1028 C1027 1.410 . S
C1028 C1029 1.392 . S
C1028 C1031 1.511 . S
C1029 C1025 1.376 . S
C1029 C1028 1.392 . S
C1029 H1041 0.929 . S
C1030 C1026 1.531 . S
C1030 H1042 0.960 . S
C1030 H1043 0.962 . S
C1030 H1044 0.960 . S
C1031 C1028 1.511 . S
C1031 H1045 0.961 . S
C1031 H1046 0.961 . S
C1031 H1047 0.961 . S
C1032 C1033 1.370 . S
C1032 C1034 1.363 . S
C1032 H1048 0.931 . S
C1033 C1032 1.370 . S
C1033 C1037 1.408 . S
C1034 C1032 1.363 . S
C1034 C1035 1.370 . S
C1034 C1038 1.524 . S
C1035 C1027 1.503 . S
C1035 C1034 1.370 . S
C1035 C1036 1.403 . S
C1036 C1035 1.403 . S
C1036 C1037 1.404 . S
C1036 C1039 1.539 . S
C1037 C1033 1.408 . S
C1037 C1036 1.404 . S
C1037 H1049 0.930 . S
C1038 C1034 1.524 . S
C1038 H1050 0.956 . S
C1038 H1051 0.961 . S
C1038 H1052 0.961 . S
C1039 C1036 1.539 . S
C1039 H1053 0.958 . S
C1039 H1054 0.961 . S
C1039 H1055 0.960 . S
H1040 C1024 0.931 . S
H1041 C1029 0.929 . S
H1042 C1030 0.960 . S
H1043 C1030 0.962 . S
H1044 C1030 0.960 . S
H1045 C1031 0.961 . S
H1046 C1031 0.961 . S
H1047 C1031 0.961 . S
H1048 C1032 0.931 . S
H1049 C1037 0.930 . S
H1050 C1038 0.956 . S
H1051 C1038 0.961 . S
H1052 C1038 0.961 . S
H1053 C1039 0.958 . S
H1054 C1039 0.961 . S
H1055 C1039 0.960 . S
C1056 C1057 1.391 . S
C1056 C1058 1.394 . S
C1056 H1072 0.931 . S
C1057 C1056 1.391 . S
C1057 C1061 1.376 . S
C1058 C1056 1.394 . S
C1058 C1059 1.369 . S
C1058 C1062 1.531 . S
C1059 C1058 1.369 . S
C1059 C1060 1.410 . S
C1059 C1067 1.503 . S
C1060 C1059 1.410 . S
C1060 C1061 1.392 . S
C1060 C1063 1.511 . S
C1061 C1057 1.376 . S
C1061 C1060 1.392 . S
C1061 H1073 0.929 . S
C1062 C1058 1.531 . S
C1062 H1074 0.960 . S
C1062 H1075 0.962 . S
C1062 H1076 0.960 . S
C1063 C1060 1.511 . S
C1063 H1077 0.961 . S
C1063 H1078 0.961 . S
C1063 H1079 0.961 . S
C1064 C1065 1.370 . S
C1064 C1066 1.363 . S
C1064 H1080 0.931 . S
C1065 C1064 1.370 . S
C1065 C1069 1.408 . S
C1066 C1064 1.363 . S
C1066 C1067 1.370 . S
C1066 C1070 1.524 . S
C1067 C1059 1.503 . S
C1067 C1066 1.370 . S
C1067 C1068 1.403 . S
C1068 C1067 1.403 . S
C1068 C1069 1.404 . S
C1068 C1071 1.539 . S
C1069 C1065 1.408 . S
C1069 C1068 1.404 . S
C1069 H1081 0.930 . S
C1070 C1066 1.524 . S
C1070 H1082 0.956 . S
C1070 H1083 0.961 . S
C1070 H1084 0.961 . S
C1071 C1068 1.539 . S
C1071 H1085 0.958 . S
C1071 H1086 0.961 . S
C1071 H1087 0.960 . S
H1072 C1056 0.931 . S
H1073 C1061 0.929 . S
H1074 C1062 0.960 . S
H1075 C1062 0.962 . S
H1076 C1062 0.960 . S
H1077 C1063 0.961 . S
H1078 C1063 0.961 . S
H1079 C1063 0.961 . S
H1080 C1064 0.931 . S
H1081 C1069 0.930 . S
H1082 C1070 0.956 . S
H1083 C1070 0.961 . S
H1084 C1070 0.961 . S
H1085 C1071 0.958 . S
H1086 C1071 0.961 . S
H1087 C1071 0.960 . S
C1088 C1089 1.391 . S
C1088 C1090 1.394 . S
C1088 H1104 0.931 . S
C1089 C1088 1.391 . S
C1089 C1093 1.376 . S
C1090 C1088 1.394 . S
C1090 C1091 1.369 . S
C1090 C1094 1.531 . S
C1091 C1090 1.369 . S
C1091 C1092 1.410 . S
C1091 C1099 1.503 . S
C1092 C1091 1.410 . S
C1092 C1093 1.392 . S
C1092 C1095 1.511 . S
C1093 C1089 1.376 . S
C1093 C1092 1.392 . S
C1093 H1105 0.929 . S
C1094 C1090 1.531 . S
C1094 H1106 0.960 . S
C1094 H1107 0.962 . S
C1094 H1108 0.960 . S
C1095 C1092 1.511 . S
C1095 H1109 0.961 . S
C1095 H1110 0.961 . S
C1095 H1111 0.961 . S
C1096 C1097 1.370 . S
C1096 C1098 1.363 . S
C1096 H1112 0.931 . S
C1097 C1096 1.370 . S
C1097 C1101 1.408 . S
C1098 C1096 1.363 . S
C1098 C1099 1.370 . S
C1098 C1102 1.524 . S
C1099 C1091 1.503 . S
C1099 C1098 1.370 . S
C1099 C1100 1.403 . S
C1100 C1099 1.403 . S
C1100 C1101 1.404 . S
C1100 C1103 1.539 . S
C1101 C1097 1.408 . S
C1101 C1100 1.404 . S
C1101 H1113 0.930 . S
C1102 C1098 1.524 . S
C1102 H1114 0.956 . S
C1102 H1115 0.961 . S
C1102 H1116 0.961 . S
C1103 C1100 1.539 . S
C1103 H1117 0.958 . S
C1103 H1118 0.961 . S
C1103 H1119 0.960 . S
H1104 C1088 0.931 . S
H1105 C1093 0.929 . S
H1106 C1094 0.960 . S
H1107 C1094 0.962 . S
H1108 C1094 0.960 . S
H1109 C1095 0.961 . S
H1110 C1095 0.961 . S
H1111 C1095 0.961 . S
H1112 C1096 0.931 . S
H1113 C1101 0.930 . S
H1114 C1102 0.956 . S
H1115 C1102 0.961 . S
H1116 C1102 0.961 . S
H1117 C1103 0.958 . S
H1118 C1103 0.961 . S
H1119 C1103 0.960 . S
C1120 C1121 1.391 . S
C1120 C1122 1.394 . S
C1120 H1136 0.931 . S
C1121 C1120 1.391 . S
C1121 C1125 1.376 . S
C1122 C1120 1.394 . S
C1122 C1123 1.369 . S
C1122 C1126 1.531 . S
C1123 C1122 1.369 . S
C1123 C1124 1.410 . S
C1123 C1131 1.503 . S
C1124 C1123 1.410 . S
C1124 C1125 1.392 . S
C1124 C1127 1.511 . S
C1125 C1121 1.376 . S
C1125 C1124 1.392 . S
C1125 H1137 0.929 . S
C1126 C1122 1.531 . S
C1126 H1138 0.960 . S
C1126 H1139 0.962 . S
C1126 H1140 0.960 . S
C1127 C1124 1.511 . S
C1127 H1141 0.961 . S
C1127 H1142 0.961 . S
C1127 H1143 0.961 . S
C1128 C1129 1.370 . S
C1128 C1130 1.363 . S
C1128 H1144 0.931 . S
C1129 C1128 1.370 . S
C1129 C1133 1.408 . S
C1130 C1128 1.363 . S
C1130 C1131 1.370 . S
C1130 C1134 1.524 . S
C1131 C1123 1.503 . S
C1131 C1130 1.370 . S
C1131 C1132 1.403 . S
C1132 C1131 1.403 . S
C1132 C1133 1.404 . S
C1132 C1135 1.539 . S
C1133 C1129 1.408 . S
C1133 C1132 1.404 . S
C1133 H1145 0.930 . S
C1134 C1130 1.524 . S
C1134 H1146 0.956 . S
C1134 H1147 0.961 . S
C1134 H1148 0.961 . S
C1135 C1132 1.539 . S
C1135 H1149 0.958 . S
C1135 H1150 0.961 . S
C1135 H1151 0.960 . S
H1136 C1120 0.931 . S
H1137 C1125 0.929 . S
H1138 C1126 0.960 . S
H1139 C1126 0.962 . S
H1140 C1126 0.960 . S
H1141 C1127 0.961 . S
H1142 C1127 0.961 . S
H1143 C1127 0.961 . S
H1144 C1128 0.931 . S
H1145 C1133 0.930 . S
H1146 C1134 0.956 . S
H1147 C1134 0.961 . S
H1148 C1134 0.961 . S
H1149 C1135 0.958 . S
H1150 C1135 0.961 . S
H1151 C1135 0.960 . S
C1152 C1153 1.391 . S
C1152 C1154 1.394 . S
C1152 H1168 0.931 . S
C1153 C1152 1.391 . S
C1153 C1157 1.376 . S
C1154 C1152 1.394 . S
C1154 C1155 1.369 . S
C1154 C1158 1.531 . S
C1155 C1154 1.369 . S
C1155 C1156 1.410 . S
C1155 C1163 1.503 . S
C1156 C1155 1.410 . S
C1156 C1157 1.392 . S
C1156 C1159 1.511 . S
C1157 C1153 1.376 . S
C1157 C1156 1.392 . S
C1157 H1169 0.929 . S
C1158 C1154 1.531 . S
C1158 H1170 0.960 . S
C1158 H1171 0.962 . S
C1158 H1172 0.960 . S
C1159 C1156 1.511 . S
C1159 H1173 0.961 . S
C1159 H1174 0.961 . S
C1159 H1175 0.961 . S
C1160 C1161 1.370 . S
C1160 C1162 1.363 . S
C1160 H1176 0.931 . S
C1161 C1160 1.370 . S
C1161 C1165 1.408 . S
C1162 C1160 1.363 . S
C1162 C1163 1.370 . S
C1162 C1166 1.524 . S
C1163 C1155 1.503 . S
C1163 C1162 1.370 . S
C1163 C1164 1.403 . S
C1164 C1163 1.403 . S
C1164 C1165 1.404 . S
C1164 C1167 1.539 . S
C1165 C1161 1.408 . S
C1165 C1164 1.404 . S
C1165 H1177 0.930 . S
C1166 C1162 1.524 . S
C1166 H1178 0.956 . S
C1166 H1179 0.961 . S
C1166 H1180 0.961 . S
C1167 C1164 1.539 . S
C1167 H1181 0.958 . S
C1167 H1182 0.961 . S
C1167 H1183 0.960 . S
H1168 C1152 0.931 . S
H1169 C1157 0.929 . S
H1170 C1158 0.960 . S
H1171 C1158 0.962 . S
H1172 C1158 0.960 . S
H1173 C1159 0.961 . S
H1174 C1159 0.961 . S
H1175 C1159 0.961 . S
H1176 C1160 0.931 . S
H1177 C1165 0.930 . S
H1178 C1166 0.956 . S
H1179 C1166 0.961 . S
H1180 C1166 0.961 . S
H1181 C1167 0.958 . S
H1182 C1167 0.961 . S
H1183 C1167 0.960 . S
C1184 C1185 1.391 . S
C1184 C1186 1.394 . S
C1184 H1200 0.931 . S
C1185 C1184 1.391 . S
C1185 C1189 1.376 . S
C1186 C1184 1.394 . S
C1186 C1187 1.369 . S
C1186 C1190 1.531 . S
C1187 C1186 1.369 . S
C1187 C1188 1.410 . S
C1187 C1195 1.503 . S
C1188 C1187 1.410 . S
C1188 C1189 1.392 . S
C1188 C1191 1.511 . S
C1189 C1185 1.376 . S
C1189 C1188 1.392 . S
C1189 H1201 0.929 . S
C1190 C1186 1.531 . S
C1190 H1202 0.960 . S
C1190 H1203 0.962 . S
C1190 H1204 0.960 . S
C1191 C1188 1.511 . S
C1191 H1205 0.961 . S
C1191 H1206 0.961 . S
C1191 H1207 0.961 . S
C1192 C1193 1.370 . S
C1192 C1194 1.363 . S
C1192 H1208 0.931 . S
C1193 C1192 1.370 . S
C1193 C1197 1.408 . S
C1194 C1192 1.363 . S
C1194 C1195 1.370 . S
C1194 C1198 1.524 . S
C1195 C1187 1.503 . S
C1195 C1194 1.370 . S
C1195 C1196 1.403 . S
C1196 C1195 1.403 . S
C1196 C1197 1.404 . S
C1196 C1199 1.539 . S
C1197 C1193 1.408 . S
C1197 C1196 1.404 . S
C1197 H1209 0.930 . S
C1198 C1194 1.524 . S
C1198 H1210 0.956 . S
C1198 H1211 0.961 . S
C1198 H1212 0.961 . S
C1199 C1196 1.539 . S
C1199 H1213 0.958 . S
C1199 H1214 0.961 . S
C1199 H1215 0.960 . S
H1200 C1184 0.931 . S
H1201 C1189 0.929 . S
H1202 C1190 0.960 . S
H1203 C1190 0.962 . S
H1204 C1190 0.960 . S
H1205 C1191 0.961 . S
H1206 C1191 0.961 . S
H1207 C1191 0.961 . S
H1208 C1192 0.931 . S
H1209 C1197 0.930 . S
H1210 C1198 0.956 . S
H1211 C1198 0.961 . S
H1212 C1198 0.961 . S
H1213 C1199 0.958 . S
H1214 C1199 0.961 . S
H1215 C1199 0.960 . S
C449 C1 1.244 . S
C457 C295 1.309 . S
C481 C67 1.019 . S
C489 C344 0.984 . S
C521 C370 2.430 . S
C513 C97 2.443 . S
C545 C133 2.384 . S
C553 C418 2.334 . S
C585 C330 2.509 . S
C577 C25 2.413 . S
C617 C298 0.864 . S
C609 C37 0.922 . S
C649 C419 1.898 . S
C641 C103 1.921 . S
C681 C387 1.578 . S
C673 C109 1.589 . S
C705 C31 1.734 . S
C713 C415 1.770 . S
C745 C347 2.311 . S
C737 C73 2.370 . S
C769 C139 2.339 . S
C777 C299 2.343 . S
C801 C61 0.845 . S
C809 C384 0.885 . S
C841 C304 1.296 . S
C833 C175 1.261 . S
C865 C181 0.958 . S
C873 C335 0.979 . S
C897 C247 2.473 . S
C905 C379 2.456 . S
C929 C277 2.372 . S
C937 C427 2.325 . S
C961 C145 2.305 . S
C969 C339 2.498 . S
C1001 C307 0.904 . S
C993 C211 0.859 . S
C1033 C410 1.881 . S
C1025 C217 1.895 . S
C1065 C378 1.581 . S
C1057 C283 1.601 . S
C1089 C169 1.681 . S
C1097 C424 1.763 . S
C1129 C338 2.319 . S
C1121 C241 2.371 . S
C1161 C290 2.325 . S
C1153 C253 2.328 . S
C1185 C205 0.869 . S
C1193 C375 0.901 . S
