# Generated by pormake.
# Topology cml, (3,6)-cn, num edge types: 1
# Building blocks:
#     Node 0, Type 0, BuildingBlock: ESEHIV_clean_linker_0, # of connection points: 3
#     Node 1, Type 0, BuildingBlock: ESEHIV_clean_linker_0, # of connection points: 3
#     Node 2, Type 0, BuildingBlock: ESEHIV_clean_linker_0, # of connection points: 3
#     Node 3, Type 0, BuildingBlock: ESEHIV_clean_linker_0, # of connection points: 3
#     Node 4, Type 0, BuildingBlock: ESEHIV_clean_linker_0, # of connection points: 3
#     Node 5, Type 0, BuildingBlock: ESEHIV_clean_linker_0, # of connection points: 3
#     Node 6, Type 0, BuildingBlock: ESEHIV_clean_linker_0, # of connection points: 3
#     Node 7, Type 0, BuildingBlock: ESEHIV_clean_linker_0, # of connection points: 3
#     Node 8, Type 1, BuildingBlock: IZENUY_clean_sbu_0, # of connection points: 6
#     Node 9, Type 1, BuildingBlock: IZENUY_clean_sbu_0, # of connection points: 6
#     Node 10, Type 1, BuildingBlock: IZENUY_clean_sbu_0, # of connection points: 6
#     Node 11, Type 1, BuildingBlock: IZENUY_clean_sbu_0, # of connection points: 6
#     Edge 12, Type (0, 1), BuildingBlock: EYOCIG_clean_linker_4, # of connection points: 2
#     Edge 13, Type (0, 1), BuildingBlock: EYOCIG_clean_linker_4, # of connection points: 2
#     Edge 14, Type (0, 1), BuildingBlock: EYOCIG_clean_linker_4, # of connection points: 2
#     Edge 15, Type (0, 1), BuildingBlock: EYOCIG_clean_linker_4, # of connection points: 2
#     Edge 16, Type (0, 1), BuildingBlock: EYOCIG_clean_linker_4, # of connection points: 2
#     Edge 17, Type (0, 1), BuildingBlock: EYOCIG_clean_linker_4, # of connection points: 2
#     Edge 18, Type (0, 1), BuildingBlock: EYOCIG_clean_linker_4, # of connection points: 2
#     Edge 19, Type (0, 1), BuildingBlock: EYOCIG_clean_linker_4, # of connection points: 2
#     Edge 20, Type (0, 1), BuildingBlock: EYOCIG_clean_linker_4, # of connection points: 2
#     Edge 21, Type (0, 1), BuildingBlock: EYOCIG_clean_linker_4, # of connection points: 2
#     Edge 22, Type (0, 1), BuildingBlock: EYOCIG_clean_linker_4, # of connection points: 2
#     Edge 23, Type (0, 1), BuildingBlock: EYOCIG_clean_linker_4, # of connection points: 2
#     Edge 24, Type (0, 1), BuildingBlock: EYOCIG_clean_linker_4, # of connection points: 2
#     Edge 25, Type (0, 1), BuildingBlock: EYOCIG_clean_linker_4, # of connection points: 2
#     Edge 26, Type (0, 1), BuildingBlock: EYOCIG_clean_linker_4, # of connection points: 2
#     Edge 27, Type (0, 1), BuildingBlock: EYOCIG_clean_linker_4, # of connection points: 2
#     Edge 28, Type (0, 1), BuildingBlock: EYOCIG_clean_linker_4, # of connection points: 2
#     Edge 29, Type (0, 1), BuildingBlock: EYOCIG_clean_linker_4, # of connection points: 2
#     Edge 30, Type (0, 1), BuildingBlock: EYOCIG_clean_linker_4, # of connection points: 2
#     Edge 31, Type (0, 1), BuildingBlock: EYOCIG_clean_linker_4, # of connection points: 2
#     Edge 32, Type (0, 1), BuildingBlock: EYOCIG_clean_linker_4, # of connection points: 2
#     Edge 33, Type (0, 1), BuildingBlock: EYOCIG_clean_linker_4, # of connection points: 2
#     Edge 34, Type (0, 1), BuildingBlock: EYOCIG_clean_linker_4, # of connection points: 2
#     Edge 35, Type (0, 1), BuildingBlock: EYOCIG_clean_linker_4, # of connection points: 2
# Relax obj value: 0.055
# Max RMSD: 0.070
# Mean RMSD: 0.067
data_MOF--net-cml--node1-IZENUY_clean_sbu_0--node2-ESEHIV_clean_linker_0--edge1-EYOCIG_clean_linker_4
_symmetry_space_group_name_H-M    P1
_symmetry_Int_Tables_number       1
_symmetry_cell_setting            triclinic
loop_
_symmetry_equiv_pos_as_xyz
'x, y, z'
_cell_length_a     26.042597
_cell_length_b     29.932449
_cell_length_c     27.696484
_cell_angle_alpha  90.062214
_cell_angle_beta   89.940624
_cell_angle_gamma 90.22745
loop_
_atom_site_label
_atom_site_type_symbol
_atom_site_fract_x
_atom_site_fract_y
_atom_site_fract_z
_atom_type_partial_charge
H0 H 0.33882 0.4516 0.05883 0.0
H1 H 0.23689 0.42578 0.9399 0.0
H2 H 0.23723 0.33786 0.06303 0.0
C3 C 0.30795 0.43209 0.04288 0.0
C4 C 0.28928 0.39413 0.06677 0.0
C5 C 0.28894 0.44363 0.99733 0.0
C6 C 0.25052 0.41756 0.97581 0.0
C7 C 0.23179 0.37942 0.99943 0.0
C8 C 0.25073 0.36797 0.04524 0.0
H9 H 0.67411 0.56693 0.5586 0.0
H10 H 0.77427 0.59491 0.43877 0.0
H11 H 0.77309 0.68241 0.56244 0.0
C12 C 0.7044 0.58699 0.54246 0.0
C13 C 0.72242 0.62521 0.56637 0.0
C14 C 0.72319 0.57596 0.49662 0.0
C15 C 0.76082 0.60277 0.47487 0.0
C16 C 0.77892 0.64118 0.49851 0.0
C17 C 0.76013 0.65212 0.5446 0.0
H18 H 0.67469 0.45709 0.05734 0.0
H19 H 0.77496 0.34327 0.06211 0.0
H20 H 0.77251 0.42773 0.93626 0.0
C21 C 0.70495 0.4372 0.04116 0.0
C22 C 0.72265 0.44745 0.99471 0.0
C23 C 0.72382 0.39977 0.06559 0.0
C24 C 0.76142 0.37302 0.04384 0.0
C25 C 0.77902 0.38307 0.99714 0.0
C26 C 0.76004 0.42063 0.97286 0.0
H27 H 0.33811 0.56455 0.55628 0.0
H28 H 0.2374 0.59056 0.43667 0.0
H29 H 0.23626 0.67732 0.56095 0.0
C30 C 0.30732 0.58389 0.5403 0.0
C31 C 0.28834 0.62148 0.56445 0.0
C32 C 0.28879 0.57257 0.49445 0.0
C33 C 0.25055 0.59852 0.47285 0.0
C34 C 0.23153 0.63632 0.49678 0.0
C35 C 0.24995 0.64746 0.54292 0.0
H36 H 0.83833 0.95202 0.05846 0.0
H37 H 0.73808 0.92473 0.93867 0.0
H38 H 0.73793 0.83748 0.06235 0.0
C39 C 0.80783 0.9322 0.04235 0.0
C40 C 0.78934 0.89419 0.06626 0.0
C41 C 0.78925 0.94329 0.99652 0.0
C42 C 0.75136 0.91683 0.97479 0.0
C43 C 0.73276 0.8787 0.99847 0.0
C44 C 0.7513 0.86762 0.04454 0.0
H45 H 0.17336 0.06716 0.55826 0.0
H46 H 0.27454 0.09459 0.43903 0.0
H47 H 0.2742 0.18136 0.56329 0.0
C48 C 0.20407 0.08691 0.54239 0.0
C49 C 0.22261 0.12477 0.56665 0.0
C50 C 0.22292 0.07587 0.49656 0.0
C51 C 0.26106 0.10236 0.47516 0.0
C52 C 0.27961 0.1404 0.49915 0.0
C53 C 0.26085 0.15131 0.54522 0.0
H54 H 0.1743 0.95674 0.05723 0.0
H55 H 0.27447 0.84282 0.06193 0.0
H56 H 0.27274 0.92779 0.93648 0.0
C57 C 0.20461 0.93687 0.04112 0.0
C58 C 0.22261 0.9473 0.99479 0.0
C59 C 0.22331 0.89933 0.06552 0.0
C60 C 0.26102 0.87265 0.04376 0.0
C61 C 0.27884 0.88289 0.99717 0.0
C62 C 0.26006 0.92055 0.97299 0.0
H63 H 0.83772 0.06247 0.55514 0.0
H64 H 0.73663 0.09037 0.43631 0.0
H65 H 0.73789 0.17655 0.56105 0.0
C66 C 0.80715 0.08226 0.53946 0.0
C67 C 0.78899 0.12 0.56394 0.0
C68 C 0.78813 0.0714 0.49363 0.0
C69 C 0.75017 0.09796 0.47245 0.0
C70 C 0.73199 0.13589 0.49672 0.0
C71 C 0.75092 0.14658 0.54279 0.0
Fe72 Fe 0.00745 0.80213 0.30858 0.0
Fe73 Fe 0.0084 0.85027 0.40911 0.0
O74 O 0.00788 0.85305 0.34391 0.0
Fe75 Fe 0.00767 0.9068 0.31407 0.0
O76 O 0.95134 0.89381 0.27841 0.0
O77 O 0.96462 0.82288 0.26148 0.0
O78 O 0.95061 0.77994 0.33886 0.0
C79 C 0.94123 0.77888 0.38353 0.0
C80 C 0.07508 0.8555 0.25538 0.0
O81 O 0.9657 0.80232 0.41342 0.0
C82 C 0.07513 0.92361 0.3899 0.0
O83 O 0.04981 0.77088 0.34869 0.0
O84 O 0.06464 0.8149 0.41102 0.0
O85 O 0.05078 0.89051 0.26554 0.0
O86 O 0.0644 0.81824 0.27422 0.0
C87 C 0.94043 0.92042 0.39354 0.0
O88 O 0.05148 0.89766 0.41792 0.0
O89 O 0.06404 0.92684 0.34591 0.0
C90 C 0.07354 0.78006 0.38707 0.0
O91 O 0.95185 0.885 0.41533 0.0
O92 O 0.96436 0.93358 0.35672 0.0
C93 C 0.94068 0.8589 0.25525 0.0
Fe94 Fe 0.00383 0.16914 0.90989 0.0
Fe95 Fe 0.00417 0.11225 0.81381 0.0
O96 O 0.00375 0.16647 0.84409 0.0
Fe97 Fe 1.00334 0.21787 0.80859 0.0
O98 O 0.05218 0.24632 0.84422 0.0
O99 O 0.05407 0.21064 0.91374 0.0
O100 O 0.05364 0.12774 0.91784 0.0
C101 C 0.07178 0.09743 0.8917 0.0
C102 C 0.93676 0.23996 0.88577 0.0
O103 O 0.05517 0.08918 0.85018 0.0
C104 C 0.93679 0.16138 0.75453 0.0
O105 O 0.95324 0.12817 0.91771 0.0
O106 O 0.95491 0.08749 0.85146 0.0
O107 O 0.95204 0.24408 0.84291 0.0
O108 O 0.95455 0.21129 0.91411 0.0
C109 C 0.07144 0.16318 0.75509 0.0
O110 O 0.9534 0.12565 0.77199 0.0
O111 O 0.95417 0.19905 0.76645 0.0
C112 C 0.93699 0.09641 0.89236 0.0
O113 O 0.05342 0.12706 0.77065 0.0
O114 O 0.0549 0.20064 0.76838 0.0
C115 C 0.0695 0.24102 0.88617 0.0
Fe116 Fe 0.50824 0.30164 0.30864 0.0
Fe117 Fe 0.50833 0.3502 0.41016 0.0
O118 O 0.50811 0.35297 0.34438 0.0
Fe119 Fe 0.5077 0.40726 0.31437 0.0
O120 O 0.45851 0.3927 0.27107 0.0
O121 O 0.45743 0.31921 0.26796 0.0
O122 O 0.45858 0.27385 0.34394 0.0
C123 C 0.44144 0.27922 0.38603 0.0
C124 C 0.5756 0.35801 0.25541 0.0
O125 O 0.45749 0.30922 0.41387 0.0
C126 C 0.57556 0.42257 0.39264 0.0
O127 O 0.55872 0.2746 0.34303 0.0
O128 O 0.55692 0.30753 0.41415 0.0
O129 O 0.55856 0.39378 0.27256 0.0
O130 O 0.55822 0.32028 0.26718 0.0
C131 C 0.44062 0.4222 0.39262 0.0
O132 O 0.55968 0.39052 0.41773 0.0
O133 O 0.55689 0.432 0.3522 0.0
C134 C 0.57406 0.27853 0.38583 0.0
O135 O 0.45925 0.39217 0.41872 0.0
O136 O 0.45658 0.43013 0.35081 0.0
C137 C 0.44082 0.35666 0.25497 0.0
Fe138 Fe 0.50352 0.66955 0.90985 0.0
Fe139 Fe 0.50343 0.61235 0.81408 0.0
O140 O 0.50346 0.66666 0.84409 0.0
Fe141 Fe 0.50352 0.71792 0.80837 0.0
O142 O 0.55518 0.74452 0.84202 0.0
O143 O 0.55157 0.71301 0.9138 0.0
O144 O 0.55548 0.63017 0.9174 0.0
C145 C 0.57088 0.59776 0.89267 0.0
C146 C 0.43703 0.74027 0.88604 0.0
O147 O 0.55173 0.58771 0.85258 0.0
C148 C 0.43646 0.66244 0.7546 0.0
O149 O 0.45513 0.62666 0.91841 0.0
O150 O 0.45148 0.58946 0.84988 0.0
O151 O 0.45501 0.74611 0.84438 0.0
O152 O 0.45204 0.70969 0.91349 0.0
C153 C 0.57111 0.66199 0.75516 0.0
O154 O 0.45528 0.62665 0.76982 0.0
O155 O 0.45169 0.70015 0.76869 0.0
C156 C 0.43614 0.59677 0.89208 0.0
O157 O 0.5553 0.62609 0.77324 0.0
O158 O 0.55237 0.69933 0.76594 0.0
C159 C 0.56998 0.7411 0.88503 0.0
C160 C 0.16766 0.32636 0.95217 0.0
C161 C 0.19686 0.35003 0.97438 0.0
C162 C 0.1346 0.29794 0.92573 0.0
C163 C 0.10499 0.27312 0.90556 0.0
C164 C 0.84184 0.69518 0.45081 0.0
C165 C 0.8132 0.67118 0.47336 0.0
C166 C 0.87468 0.7234 0.42369 0.0
C167 C 0.90422 0.74773 0.40259 0.0
C168 C 0.84042 0.32739 0.95054 0.0
C169 C 0.81246 0.35251 0.97214 0.0
C170 C 0.87235 0.29745 0.925 0.0
C171 C 0.90155 0.2721 0.90526 0.0
C172 C 0.1683 0.69062 0.45068 0.0
C173 C 0.19711 0.666 0.47186 0.0
C174 C 0.136 0.72082 0.42606 0.0
C175 C 0.10731 0.74719 0.40735 0.0
C176 C 0.66946 0.82522 0.95085 0.0
C177 C 0.69827 0.84903 0.97331 0.0
C178 C 0.63635 0.79703 0.92423 0.0
C179 C 0.60638 0.77263 0.90396 0.0
C180 C 0.34297 0.19426 0.45206 0.0
C181 C 0.31412 0.17026 0.47426 0.0
C182 C 0.37585 0.22276 0.42557 0.0
C183 C 0.40564 0.24738 0.40538 0.0
C184 C 0.34039 0.82759 0.95033 0.0
C185 C 0.31236 0.85249 0.9721 0.0
C186 C 0.37251 0.79784 0.92482 0.0
C187 C 0.40192 0.77248 0.90545 0.0
C188 C 0.66949 0.19082 0.45072 0.0
C189 C 0.69796 0.16613 0.47215 0.0
C190 C 0.63751 0.2205 0.42508 0.0
C191 C 0.60874 0.24602 0.40521 0.0
C192 C 0.3352 0.50976 0.9513 0.0
C193 C 0.31293 0.47942 0.97086 0.0
C194 C 0.36705 0.54229 0.92968 0.0
C195 C 0.3986 0.5672 0.91257 0.0
C196 C 0.67742 0.50951 0.45059 0.0
C197 C 0.69951 0.54003 0.47006 0.0
C198 C 0.64539 0.47692 0.42928 0.0
C199 C 0.61351 0.45196 0.41276 0.0
C200 C 0.67468 0.51225 0.94869 0.0
C201 C 0.69793 0.48244 0.96787 0.0
C202 C 0.6416 0.54429 0.9283 0.0
C203 C 0.60934 0.56899 0.91247 0.0
C204 C 0.3365 0.50724 0.44899 0.0
C205 C 0.31329 0.53725 0.46791 0.0
C206 C 0.36966 0.47522 0.42866 0.0
C207 C 0.40208 0.45079 0.41258 0.0
C208 C 0.83574 1.00919 0.95047 0.0
C209 C 0.81335 0.97892 0.96998 0.0
C210 C 0.86777 0.04171 0.92917 0.0
C211 C 0.89938 0.06682 0.91256 0.0
C212 C 0.17655 0.01015 0.44974 0.0
C213 C 0.19886 0.04033 0.46966 0.0
C214 C 0.14446 0.978 0.4276 0.0
C215 C 0.1129 0.95335 0.40996 0.0
C216 C 0.17539 0.01229 0.94843 0.0
C217 C 0.19822 0.98241 0.9679 0.0
C218 C 0.14259 0.04427 0.9276 0.0
C219 C 0.11025 0.06869 0.91146 0.0
C220 C 0.83507 1.00578 0.44779 0.0
C221 C 0.81202 0.03596 0.46666 0.0
C222 C 0.86849 0.97351 0.42814 0.0
C223 C 0.90114 0.94867 0.41309 0.0
C224 C 0.33736 0.37178 0.14727 0.0
C225 C 0.31382 0.38009 0.11087 0.0
C226 C 0.37045 0.36374 0.18674 0.0
C227 C 0.40245 0.35891 0.21778 0.0
C228 C 0.67462 0.64691 0.64736 0.0
C229 C 0.69791 0.63882 0.61071 0.0
C230 C 0.64163 0.65484 0.68698 0.0
C231 C 0.60946 0.65954 0.71794 0.0
C232 C 0.67743 0.37726 0.1471 0.0
C233 C 0.69979 0.38613 0.11014 0.0
C234 C 0.64534 0.36748 0.18692 0.0
C235 C 0.61365 0.36116 0.21799 0.0
C236 C 0.33533 0.6445 0.64545 0.0
C237 C 0.3125 0.63561 0.60877 0.0
C238 C 0.36742 0.65371 0.68541 0.0
C239 C 0.39871 0.65959 0.71691 0.0
C240 C 0.83746 0.87254 0.14692 0.0
C241 C 0.81382 0.88042 0.11047 0.0
C242 C 0.8708 0.8653 0.18639 0.0
C243 C 0.90283 0.86141 0.21758 0.0
C244 C 0.17492 0.147 0.64754 0.0
C245 C 0.1981 0.13854 0.61092 0.0
C246 C 0.14207 0.15563 0.68711 0.0
C247 C 0.11 0.16094 0.71804 0.0
C248 C 0.17677 0.87628 0.14696 0.0
C249 C 0.19908 0.88552 0.11001 0.0
C250 C 0.14497 0.86572 0.1869 0.0
C251 C 0.11381 0.85851 0.21834 0.0
C252 C 0.83641 0.14267 0.64489 0.0
C253 C 0.81363 0.13371 0.60819 0.0
C254 C 0.86828 0.15221 0.68493 0.0
C255 C 0.89944 0.15827 0.71651 0.0
loop_
_geom_bond_atom_site_label_1
_geom_bond_atom_site_label_2
_geom_bond_distance
_geom_bond_site_symmetry_2
_ccdc_geom_bond_type
H0 C3 0.931 . S
H1 C6 0.928 . S
H2 C8 0.930 . S
C3 H0 0.931 . S
C3 C4 1.413 . S
C3 C5 1.360 1_554 S
C4 C3 1.413 . S
C4 C8 1.429 . S
C5 C3 1.360 1_556 S
C5 C6 1.372 . S
C6 H1 0.928 . S
C6 C5 1.372 . S
C6 C7 1.404 . S
C7 C6 1.404 . S
C7 C8 1.391 1_556 S
C8 H2 0.930 . S
C8 C4 1.429 . S
C8 C7 1.391 1_554 S
H9 C12 0.931 . S
H10 C15 0.928 . S
H11 C17 0.930 . S
C12 H9 0.931 . S
C12 C13 1.413 . S
C12 C14 1.360 . S
C13 C12 1.413 . S
C13 C17 1.429 . S
C14 C12 1.360 . S
C14 C15 1.372 . S
C15 H10 0.928 . S
C15 C14 1.372 . S
C15 C16 1.404 . S
C16 C15 1.404 . S
C16 C17 1.391 . S
C17 H11 0.930 . S
C17 C13 1.429 . S
C17 C16 1.391 . S
H18 C21 0.931 . S
H19 C24 0.928 . S
H20 C26 0.930 . S
C21 H18 0.931 . S
C21 C22 1.413 1_554 S
C21 C23 1.360 . S
C22 C21 1.413 1_556 S
C22 C26 1.429 . S
C23 C21 1.360 . S
C23 C24 1.372 . S
C24 H19 0.928 . S
C24 C23 1.372 . S
C24 C25 1.404 1_554 S
C25 C24 1.404 1_556 S
C25 C26 1.391 . S
C26 H20 0.930 . S
C26 C22 1.429 . S
C26 C25 1.391 . S
H27 C30 0.931 . S
H28 C33 0.928 . S
H29 C35 0.930 . S
C30 H27 0.931 . S
C30 C31 1.413 . S
C30 C32 1.360 . S
C31 C30 1.413 . S
C31 C35 1.429 . S
C32 C30 1.360 . S
C32 C33 1.372 . S
C33 H28 0.928 . S
C33 C32 1.372 . S
C33 C34 1.404 . S
C34 C33 1.404 . S
C34 C35 1.391 . S
C35 H29 0.930 . S
C35 C31 1.429 . S
C35 C34 1.391 . S
H36 C39 0.931 . S
H37 C42 0.928 . S
H38 C44 0.930 . S
C39 H36 0.931 . S
C39 C40 1.413 . S
C39 C41 1.360 1_554 S
C40 C39 1.413 . S
C40 C44 1.429 . S
C41 C39 1.360 1_556 S
C41 C42 1.372 . S
C42 H37 0.928 . S
C42 C41 1.372 . S
C42 C43 1.404 . S
C43 C42 1.404 . S
C43 C44 1.391 1_556 S
C44 H38 0.930 . S
C44 C40 1.429 . S
C44 C43 1.391 1_554 S
H45 C48 0.931 . S
H46 C51 0.928 . S
H47 C53 0.930 . S
C48 H45 0.931 . S
C48 C49 1.413 . S
C48 C50 1.360 . S
C49 C48 1.413 . S
C49 C53 1.429 . S
C50 C48 1.360 . S
C50 C51 1.372 . S
C51 H46 0.928 . S
C51 C50 1.372 . S
C51 C52 1.404 . S
C52 C51 1.404 . S
C52 C53 1.391 . S
C53 H47 0.930 . S
C53 C49 1.429 . S
C53 C52 1.391 . S
H54 C57 0.931 . S
H55 C60 0.928 . S
H56 C62 0.930 . S
C57 H54 0.931 . S
C57 C58 1.413 1_554 S
C57 C59 1.360 . S
C58 C57 1.413 1_556 S
C58 C62 1.429 . S
C59 C57 1.360 . S
C59 C60 1.372 . S
C60 H55 0.928 . S
C60 C59 1.372 . S
C60 C61 1.404 1_554 S
C61 C60 1.404 1_556 S
C61 C62 1.391 . S
C62 H56 0.930 . S
C62 C58 1.429 . S
C62 C61 1.391 . S
H63 C66 0.931 . S
H64 C69 0.928 . S
H65 C71 0.930 . S
C66 H63 0.931 . S
C66 C67 1.413 . S
C66 C68 1.360 . S
C67 C66 1.413 . S
C67 C71 1.429 . S
C68 C66 1.360 . S
C68 C69 1.372 . S
C69 H64 0.928 . S
C69 C68 1.372 . S
C69 C70 1.404 . S
C70 C69 1.404 . S
C70 C71 1.391 . S
C71 H65 0.930 . S
C71 C67 1.429 . S
C71 C70 1.391 . S
Fe72 O74 1.918 . S
Fe72 O77 1.997 1_455 S
Fe72 O78 2.002 1_455 S
Fe72 O83 1.976 . S
Fe72 O86 1.996 . S
Fe73 O74 1.918 . S
Fe73 O81 1.997 1_455 S
Fe73 O84 1.996 . S
Fe73 O88 1.976 . S
Fe73 O91 2.002 1_455 S
O74 Fe72 1.918 . S
O74 Fe73 1.918 . S
O74 Fe75 1.918 . S
Fe75 O74 1.918 . S
Fe75 O76 2.002 1_455 S
Fe75 O85 1.976 . S
Fe75 O89 1.996 . S
Fe75 O92 1.997 1_455 S
O76 Fe75 2.002 1_655 S
O76 C93 1.295 . S
O77 Fe72 1.997 1_655 S
O77 C93 1.235 . S
O78 Fe72 2.002 1_655 S
O78 C79 1.295 . S
C79 O78 1.295 . S
C79 O81 1.235 . S
C80 O85 1.287 . S
C80 O86 1.255 . S
O81 Fe73 1.997 1_655 S
O81 C79 1.235 . S
C82 O88 1.287 . S
C82 O89 1.255 . S
O83 Fe72 1.976 . S
O83 C90 1.287 . S
O84 Fe73 1.996 . S
O84 C90 1.255 . S
O85 Fe75 1.976 . S
O85 C80 1.287 . S
O86 Fe72 1.996 . S
O86 C80 1.255 . S
C87 O91 1.295 . S
C87 O92 1.235 . S
O88 Fe73 1.976 . S
O88 C82 1.287 . S
O89 Fe75 1.996 . S
O89 C82 1.255 . S
C90 O83 1.287 . S
C90 O84 1.255 . S
O91 Fe73 2.002 1_655 S
O91 C87 1.295 . S
O92 Fe75 1.997 1_655 S
O92 C87 1.235 . S
C93 O76 1.295 . S
C93 O77 1.235 . S
Fe94 O96 1.918 . S
Fe94 O99 1.997 1_655 S
Fe94 O100 2.002 1_655 S
Fe94 O105 1.976 . S
Fe94 O108 1.996 . S
Fe95 O96 1.918 . S
Fe95 O103 1.997 1_655 S
Fe95 O106 1.996 . S
Fe95 O110 1.976 . S
Fe95 O113 2.002 1_655 S
O96 Fe94 1.918 . S
O96 Fe95 1.918 . S
O96 Fe97 1.918 . S
Fe97 O96 1.918 . S
Fe97 O98 2.002 1_655 S
Fe97 O107 1.976 . S
Fe97 O111 1.996 . S
Fe97 O114 1.997 1_655 S
O98 Fe97 2.002 1_455 S
O98 C115 1.295 . S
O99 Fe94 1.997 1_455 S
O99 C115 1.235 . S
O100 Fe94 2.002 1_455 S
O100 C101 1.295 . S
C101 O100 1.295 . S
C101 O103 1.235 . S
C102 O107 1.287 . S
C102 O108 1.255 . S
O103 Fe95 1.997 1_455 S
O103 C101 1.235 . S
C104 O110 1.287 . S
C104 O111 1.255 . S
O105 Fe94 1.976 . S
O105 C112 1.287 . S
O106 Fe95 1.996 . S
O106 C112 1.255 . S
O107 Fe97 1.976 . S
O107 C102 1.287 . S
O108 Fe94 1.996 . S
O108 C102 1.255 . S
C109 O113 1.295 . S
C109 O114 1.235 . S
O110 Fe95 1.976 . S
O110 C104 1.287 . S
O111 Fe97 1.996 . S
O111 C104 1.255 . S
C112 O105 1.287 . S
C112 O106 1.255 . S
O113 Fe95 2.002 1_455 S
O113 C109 1.295 . S
O114 Fe97 1.997 1_455 S
O114 C109 1.235 . S
C115 O98 1.295 . S
C115 O99 1.235 . S
Fe116 O118 1.918 . S
Fe116 O121 1.997 . S
Fe116 O122 2.002 . S
Fe116 O127 1.976 . S
Fe116 O130 1.996 . S
Fe117 O118 1.918 . S
Fe117 O125 1.997 . S
Fe117 O128 1.996 . S
Fe117 O132 1.976 . S
Fe117 O135 2.002 . S
O118 Fe116 1.918 . S
O118 Fe117 1.918 . S
O118 Fe119 1.918 . S
Fe119 O118 1.918 . S
Fe119 O120 2.002 . S
Fe119 O129 1.976 . S
Fe119 O133 1.996 . S
Fe119 O136 1.997 . S
O120 Fe119 2.002 . S
O120 C137 1.295 . S
O121 Fe116 1.997 . S
O121 C137 1.235 . S
O122 Fe116 2.002 . S
O122 C123 1.295 . S
C123 O122 1.295 . S
C123 O125 1.235 . S
C124 O129 1.287 . S
C124 O130 1.255 . S
O125 Fe117 1.997 . S
O125 C123 1.235 . S
C126 O132 1.287 . S
C126 O133 1.255 . S
O127 Fe116 1.976 . S
O127 C134 1.287 . S
O128 Fe117 1.996 . S
O128 C134 1.255 . S
O129 Fe119 1.976 . S
O129 C124 1.287 . S
O130 Fe116 1.996 . S
O130 C124 1.255 . S
C131 O135 1.295 . S
C131 O136 1.235 . S
O132 Fe117 1.976 . S
O132 C126 1.287 . S
O133 Fe119 1.996 . S
O133 C126 1.255 . S
C134 O127 1.287 . S
C134 O128 1.255 . S
O135 Fe117 2.002 . S
O135 C131 1.295 . S
O136 Fe119 1.997 . S
O136 C131 1.235 . S
C137 O120 1.295 . S
C137 O121 1.235 . S
Fe138 O140 1.918 . S
Fe138 O143 1.997 . S
Fe138 O144 2.002 . S
Fe138 O149 1.976 . S
Fe138 O152 1.996 . S
Fe139 O140 1.918 . S
Fe139 O147 1.997 . S
Fe139 O150 1.996 . S
Fe139 O154 1.976 . S
Fe139 O157 2.002 . S
O140 Fe138 1.918 . S
O140 Fe139 1.918 . S
O140 Fe141 1.918 . S
Fe141 O140 1.918 . S
Fe141 O142 2.002 . S
Fe141 O151 1.976 . S
Fe141 O155 1.996 . S
Fe141 O158 1.997 . S
O142 Fe141 2.002 . S
O142 C159 1.295 . S
O143 Fe138 1.997 . S
O143 C159 1.235 . S
O144 Fe138 2.002 . S
O144 C145 1.295 . S
C145 O144 1.295 . S
C145 O147 1.235 . S
C146 O151 1.287 . S
C146 O152 1.255 . S
O147 Fe139 1.997 . S
O147 C145 1.235 . S
C148 O154 1.287 . S
C148 O155 1.255 . S
O149 Fe138 1.976 . S
O149 C156 1.287 . S
O150 Fe139 1.996 . S
O150 C156 1.255 . S
O151 Fe141 1.976 . S
O151 C146 1.287 . S
O152 Fe138 1.996 . S
O152 C146 1.255 . S
C153 O157 1.295 . S
C153 O158 1.235 . S
O154 Fe139 1.976 . S
O154 C148 1.287 . S
O155 Fe141 1.996 . S
O155 C148 1.255 . S
C156 O149 1.287 . S
C156 O150 1.255 . S
O157 Fe139 2.002 . S
O157 C153 1.295 . S
O158 Fe141 1.997 . S
O158 C153 1.235 . S
C159 O142 1.295 . S
C159 O143 1.235 . S
C160 C161 1.170 . S
C160 C162 1.380 . S
C161 C160 1.170 . S
C162 C160 1.380 . S
C162 C163 1.170 . S
C163 C162 1.170 . S
C164 C165 1.170 . S
C164 C166 1.380 . S
C165 C164 1.170 . S
C166 C164 1.380 . S
C166 C167 1.170 . S
C167 C166 1.170 . S
C168 C169 1.170 . S
C168 C170 1.380 . S
C169 C168 1.170 . S
C170 C168 1.380 . S
C170 C171 1.170 . S
C171 C170 1.170 . S
C172 C173 1.170 . S
C172 C174 1.380 . S
C173 C172 1.170 . S
C174 C172 1.380 . S
C174 C175 1.170 . S
C175 C174 1.170 . S
C176 C177 1.170 . S
C176 C178 1.380 . S
C177 C176 1.170 . S
C178 C176 1.380 . S
C178 C179 1.170 . S
C179 C178 1.170 . S
C180 C181 1.170 . S
C180 C182 1.380 . S
C181 C180 1.170 . S
C182 C180 1.380 . S
C182 C183 1.170 . S
C183 C182 1.170 . S
C184 C185 1.170 . S
C184 C186 1.380 . S
C185 C184 1.170 . S
C186 C184 1.380 . S
C186 C187 1.170 . S
C187 C186 1.170 . S
C188 C189 1.170 . S
C188 C190 1.380 . S
C189 C188 1.170 . S
C190 C188 1.380 . S
C190 C191 1.170 . S
C191 C190 1.170 . S
C192 C193 1.170 . S
C192 C194 1.380 . S
C193 C192 1.170 . S
C194 C192 1.380 . S
C194 C195 1.170 . S
C195 C194 1.170 . S
C196 C197 1.170 . S
C196 C198 1.380 . S
C197 C196 1.170 . S
C198 C196 1.380 . S
C198 C199 1.170 . S
C199 C198 1.170 . S
C200 C201 1.170 . S
C200 C202 1.380 . S
C201 C200 1.170 . S
C202 C200 1.380 . S
C202 C203 1.170 . S
C203 C202 1.170 . S
C204 C205 1.170 . S
C204 C206 1.380 . S
C205 C204 1.170 . S
C206 C204 1.380 . S
C206 C207 1.170 . S
C207 C206 1.170 . S
C208 C209 1.170 . S
C208 C210 1.380 1_565 S
C209 C208 1.170 . S
C210 C208 1.380 1_545 S
C210 C211 1.170 . S
C211 C210 1.170 . S
C212 C213 1.170 . S
C212 C214 1.380 1_545 S
C213 C212 1.170 . S
C214 C212 1.380 1_565 S
C214 C215 1.170 . S
C215 C214 1.170 . S
C216 C217 1.170 . S
C216 C218 1.380 1_565 S
C217 C216 1.170 . S
C218 C216 1.380 1_545 S
C218 C219 1.170 . S
C219 C218 1.170 . S
C220 C221 1.170 1_565 S
C220 C222 1.380 . S
C221 C220 1.170 1_545 S
C222 C220 1.380 . S
C222 C223 1.170 . S
C223 C222 1.170 . S
C224 C225 1.170 . S
C224 C226 1.380 . S
C225 C224 1.170 . S
C226 C224 1.380 . S
C226 C227 1.170 . S
C227 C226 1.170 . S
C228 C229 1.170 . S
C228 C230 1.380 . S
C229 C228 1.170 . S
C230 C228 1.380 . S
C230 C231 1.170 . S
C231 C230 1.170 . S
C232 C233 1.170 . S
C232 C234 1.380 . S
C233 C232 1.170 . S
C234 C232 1.380 . S
C234 C235 1.170 . S
C235 C234 1.170 . S
C236 C237 1.170 . S
C236 C238 1.380 . S
C237 C236 1.170 . S
C238 C236 1.380 . S
C238 C239 1.170 . S
C239 C238 1.170 . S
C240 C241 1.170 . S
C240 C242 1.380 . S
C241 C240 1.170 . S
C242 C240 1.380 . S
C242 C243 1.170 . S
C243 C242 1.170 . S
C244 C245 1.170 . S
C244 C246 1.380 . S
C245 C244 1.170 . S
C246 C244 1.380 . S
C246 C247 1.170 . S
C247 C246 1.170 . S
C248 C249 1.170 . S
C248 C250 1.380 . S
C249 C248 1.170 . S
C250 C248 1.380 . S
C250 C251 1.170 . S
C251 C250 1.170 . S
C252 C253 1.170 . S
C252 C254 1.380 . S
C253 C252 1.170 . S
C254 C252 1.380 . S
C254 C255 1.170 . S
C255 C254 1.170 . S
C161 C7 1.528 . S
C163 C115 1.496 . S
C167 C79 1.513 . S
C165 C16 1.524 . S
C171 C102 1.494 . S
C169 C25 1.498 . S
C175 C90 1.495 . S
C173 C34 1.511 . S
C179 C159 1.516 . S
C177 C43 1.513 . S
C183 C123 1.499 . S
C181 C52 1.529 . S
C185 C61 1.496 . S
C187 C146 1.500 . S
C191 C134 1.492 . S
C189 C70 1.509 . S
C193 C5 1.464 . S
C195 C156 1.478 . S
C199 C126 1.482 . S
C197 C14 1.474 . S
C201 C22 1.481 . S
C203 C145 1.473 . S
C205 C32 1.482 . S
C207 C131 1.476 . S
C211 C112 1.473 . S
C209 C41 1.463 . S
C213 C50 1.480 . S
C215 C82 1.478 . S
C219 C101 1.489 . S
C217 C58 1.489 . S
C223 C87 1.495 . S
C221 C68 1.499 . S
C227 C137 1.481 . S
C225 C4 1.481 . S
C231 C153 1.487 . S
C229 C13 1.486 . S
C233 C23 1.467 . S
C235 C124 1.466 . S
C239 C148 1.469 . S
C237 C31 1.457 . S
C243 C93 1.467 . S
C241 C40 1.481 . S
C245 C49 1.490 . S
C247 C109 1.489 . S
C249 C59 1.474 . S
C251 C80 1.476 . S
C253 C67 1.453 . S
C255 C104 1.462 . S
