# Generated by pormake.
# Topology scu, (8,4)-cn, num edge types: 1
# Building blocks:
#     Node 0, Type 0, BuildingBlock: TAGTUT_clean_sbu_3, # of connection points: 8
#     Node 1, Type 1, BuildingBlock: IZENUY_clean_linker_0, # of connection points: 4
#     Node 2, Type 1, BuildingBlock: IZENUY_clean_linker_0, # of connection points: 4
#     Edge 3, Type (0, 1), BuildingBlock: XUDNAN_clean_linker_2, # of connection points: 2
#     Edge 4, Type (0, 1), BuildingBlock: XUDNAN_clean_linker_2, # of connection points: 2
#     Edge 5, Type (0, 1), BuildingBlock: XUDNAN_clean_linker_2, # of connection points: 2
#     Edge 6, Type (0, 1), BuildingBlock: XUDNAN_clean_linker_2, # of connection points: 2
#     Edge 7, Type (0, 1), BuildingBlock: XUDNAN_clean_linker_2, # of connection points: 2
#     Edge 8, Type (0, 1), BuildingBlock: XUDNAN_clean_linker_2, # of connection points: 2
#     Edge 9, Type (0, 1), BuildingBlock: XUDNAN_clean_linker_2, # of connection points: 2
#     Edge 10, Type (0, 1), BuildingBlock: XUDNAN_clean_linker_2, # of connection points: 2
# Relax obj value: 0.053
# Max RMSD: 0.183
# Mean RMSD: 0.141
data_MOF--net-scu--node1-TAGTUT_clean_sbu_3--node2-IZENUY_clean_linker_0--edge1-XUDNAN_clean_linker_2
_symmetry_space_group_name_H-M    P1
_symmetry_Int_Tables_number       1
_symmetry_cell_setting            triclinic
loop_
_symmetry_equiv_pos_as_xyz
'x, y, z'
_cell_length_a     31.02834
_cell_length_b     26.810693
_cell_length_c     19.04011
_cell_angle_alpha  91.576794
_cell_angle_beta   90.095533
_cell_angle_gamma 89.819957
loop_
_atom_site_label
_atom_site_type_symbol
_atom_site_fract_x
_atom_site_fract_y
_atom_site_fract_z
_atom_type_partial_charge
C0 C 0.01765 0.90803 0.06569 0.0
C1 C 0.85725 0.98528 0.05836 0.0
C2 C 0.89943 0.04773 0.87034 0.0
Mg3 Mg 0.1061 0.95374 0.00112 0.0
Mg4 Mg 0.11847 0.07498 0.00043 0.0
O5 O 0.0856 0.02003 0.96696 0.0
Mg6 Mg 0.02346 0.01731 -0.00367 0.0
O7 O 0.96162 0.00945 0.02499 0.0
Mg8 Mg 0.94369 0.95202 0.96083 0.0
Mg9 Mg 0.92567 0.06567 0.022 0.0
C10 C 0.03543 0.12961 0.93759 0.0
O11 O 0.03087 0.07489 0.08915 0.0
O12 O 0.17069 0.97057 0.94172 0.0
O13 O 0.96701 0.11561 0.08369 0.0
O14 O 0.13756 0.98624 0.10025 0.0
O15 O 0.17577 0.05463 0.94326 0.0
O16 O 0.13865 0.06891 0.10903 0.0
O17 O 1.00981 0.96079 0.9061 0.0
O18 O 0.07243 0.91928 0.90494 0.0
C19 C 0.03376 0.92497 0.88284 0.0
C20 C 0.19074 0.01112 0.9273 0.0
O21 O 1.0129 0.08926 0.93426 0.0
O22 O 0.87905 0.95134 0.0248 0.0
O23 O 0.0732 0.13203 0.96578 0.0
O24 O 0.90907 0.00212 0.88087 0.0
O25 O 0.86946 0.03083 0.06442 0.0
O26 O 0.90848 0.08196 0.91574 0.0
O27 O 0.03975 0.94779 0.05737 0.0
O28 O 0.97988 0.90314 0.03884 0.0
C29 C 0.14696 0.02635 0.13414 0.0
C30 C 1.00565 0.11133 0.10753 0.0
H31 H 0.01982 0.43999 0.41436 0.0
H32 H 0.98032 0.45201 0.63091 0.0
H33 H 1.01394 0.30889 0.53823 0.0
H34 H 0.98539 0.59153 0.57676 0.0
H35 H 0.03309 0.58558 0.36455 0.0
H36 H 0.02712 0.7257 0.47813 0.0
N37 N 0.99818 0.50517 0.52156 0.0
N38 N 1.00853 0.52913 0.46894 0.0
C39 C 1.01256 0.42275 0.46374 0.0
C40 C 0.01766 0.37094 0.46965 0.0
C41 C 0.99958 0.45219 0.52259 0.0
C42 C 0.99038 0.42911 0.58607 0.0
C43 C 0.99508 0.37727 0.59243 0.0
C44 C 1.00901 0.34873 0.53385 0.0
C45 C 0.99823 0.61038 0.53187 0.0
C46 C 1.0039 0.66256 0.53525 0.0
C47 C 1.00957 0.58224 0.47081 0.0
C48 C 0.02479 0.6069 0.41183 0.0
C49 C 0.03088 0.65869 0.4147 0.0
C50 C 0.02102 0.68593 0.4764 0.0
H51 H 0.57794 0.98295 0.3897 0.0
H52 H 0.60486 0.03363 0.60213 0.0
H53 H 0.70892 0.00361 0.45875 0.0
H54 H 0.47806 0.0034 0.60142 0.0
H55 H 0.44648 1.00036 0.37999 0.0
H56 H 0.34618 0.9936 0.53441 0.0
N57 N 0.5413 0.00984 0.51502 0.0
N58 N 0.51236 0.00382 0.46986 0.0
C59 C 0.6008 0.99333 0.43055 0.0
C60 C 0.64529 0.99045 0.41644 0.0
C61 C 0.58599 0.00873 0.49785 0.0
C62 C 0.61613 0.02191 0.55039 0.0
C63 C 0.6606 0.01937 0.53669 0.0
C64 C 0.67465 0.00371 0.46986 0.0
C65 C 0.45451 0.00206 0.55936 0.0
C66 C 0.41062 0.99763 0.57596 0.0
C67 C 0.46785 0.00296 0.48836 0.0
C68 C 0.43654 1.00051 0.43452 0.0
C69 C 0.39259 0.99673 0.45134 0.0
C70 C 0.38022 0.99578 0.52173 0.0
H71 H 0.96926 0.20276 0.13394 0.0
H72 H 0.07628 0.10877 0.19531 0.0
H73 H 0.0981 0.17294 0.28407 0.0
H74 H 0.02404 0.32458 0.16321 0.0
H75 H 0.97544 0.35372 0.19628 0.0
H76 H 0.97227 0.30378 0.1311 0.0
H77 H 0.922 0.25452 0.21268 0.0
H78 H 0.92491 0.30422 0.27776 0.0
H79 H 0.93956 0.24161 0.30067 0.0
H80 H 0.10203 0.24186 0.3761 0.0
H81 H 0.08707 0.30864 0.46499 0.0
H82 H 0.97798 0.35793 0.34258 0.0
C83 C 0.99771 0.19582 0.16524 0.0
C84 C 0.02114 0.15066 0.15754 0.0
C85 C 0.0581 0.14322 0.19971 0.0
C86 C 0.07074 0.17952 0.25021 0.0
C87 C 0.04637 0.22325 0.25718 0.0
C88 C 1.01076 0.23159 0.21549 0.0
C89 C 0.98778 0.2795 0.2371 0.0
C90 C 0.99003 0.31766 0.17842 0.0
C91 C 0.94081 0.26932 0.25833 0.0
C92 C 1.01485 0.29586 0.29969 0.0
C93 C 0.04894 0.26335 0.30971 0.0
C94 C 0.07605 0.26809 0.3679 0.0
C95 C 0.06735 0.30605 0.41803 0.0
C96 C 0.03182 0.33867 0.40973 0.0
C97 C 1.00606 0.33435 0.34888 0.0
H98 H 0.8421 0.92826 0.17199 0.0
H99 H 0.77956 0.01942 0.01771 0.0
H100 H 0.71103 0.01478 0.08315 0.0
H101 H 0.74319 0.85154 0.22204 0.0
H102 H 0.75905 0.85346 0.3132 0.0
H103 H 0.79953 0.85257 0.24531 0.0
H104 H 0.83288 0.93325 0.29984 0.0
H105 H 0.79257 0.93453 0.36735 0.0
H106 H 0.79936 0.9878 0.31276 0.0
H107 H 0.65465 0.01484 0.17558 0.0
H108 H 0.61628 0.02205 0.28893 0.0
H109 H 0.7143 0.93021 0.38446 0.0
C110 C 0.81329 0.94501 0.15056 0.0
C111 C 0.81538 0.97302 0.08918 0.0
C112 C 0.77797 0.99688 0.064 0.0
C113 C 0.73898 0.99431 0.10073 0.0
C114 C 0.73805 0.96786 0.16271 0.0
C115 C 0.77419 0.9433 0.18731 0.0
C116 C 0.76666 0.92439 0.26053 0.0
C117 C 0.76712 0.86708 0.26022 0.0
C118 C 0.79981 0.94633 0.31317 0.0
C119 C 0.72178 0.94468 0.27473 0.0
C120 C 0.70536 0.96854 0.21709 0.0
C121 C 0.66661 0.99512 0.22049 0.0
C122 C 0.64488 0.9989 0.28507 0.0
C123 C 0.66225 0.97668 0.34549 0.0
C124 C 0.70019 0.94751 0.33908 0.0
H125 H 0.98118 0.81698 0.08602 0.0
H126 H 0.09228 0.90712 0.14363 0.0
H127 H 0.11569 0.84272 0.22584 0.0
H128 H 0.95577 0.78258 0.25073 0.0
H129 H 0.93855 0.72012 0.22745 0.0
H130 H 0.93554 0.76812 0.16372 0.0
H131 H 0.98215 0.71429 0.07768 0.0
H132 H 0.98535 0.66594 0.1415 0.0
H133 H 0.03397 0.69168 0.10584 0.0
H134 H 0.11964 0.77662 0.31565 0.0
H135 H 0.10332 0.71511 0.40628 0.0
H136 H 0.99056 0.66707 0.289 0.0
C137 C 1.01106 0.82272 0.11453 0.0
C138 C 0.03494 0.86719 0.10838 0.0
C139 C 0.07359 0.87332 0.14721 0.0
C140 C 0.08722 0.83678 0.19382 0.0
C141 C 0.06215 0.79402 0.20016 0.0
C142 C 0.02505 0.78668 0.16105 0.0
C143 C 1.00111 0.74056 0.18311 0.0
C144 C 0.95506 0.75366 0.20774 0.0
C145 C 1.00064 0.70075 0.12347 0.0
C146 C 0.02925 0.72451 0.24343 0.0
C147 C 0.0648 0.75525 0.25155 0.0
C148 C 0.09267 0.75145 0.30865 0.0
C149 C 0.08323 0.7165 0.35978 0.0
C150 C 0.04627 0.68592 0.35336 0.0
C151 C 0.0198 0.6889 0.29347 0.0
H152 H 0.21266 0.08809 0.18082 0.0
H153 H 0.14569 0.95065 0.22528 0.0
H154 H 0.20375 0.92732 0.30619 0.0
H155 H 0.31636 0.03907 0.1773 0.0
H156 H 0.34294 0.09089 0.22117 0.0
H157 H 0.29407 0.10106 0.17237 0.0
H158 H 0.25764 0.14162 0.28217 0.0
H159 H 0.30691 0.13318 0.33072 0.0
H160 H 0.25704 0.10848 0.36327 0.0
H161 H 0.27193 0.91314 0.36907 0.0
H162 H 0.34092 0.91696 0.43335 0.0
H163 H 0.36475 0.06436 0.35396 0.0
C164 C 0.20942 0.05416 0.20989 0.0
C165 C 0.17453 0.02122 0.19695 0.0
C166 C 0.17202 0.97646 0.23453 0.0
C167 C 0.20503 0.96267 0.28019 0.0
C168 C 0.24024 0.99428 0.2884 0.0
C169 C 0.24225 0.03979 0.25623 0.0
C170 C 0.28445 0.06605 0.27383 0.0
C171 C 0.31101 0.07477 0.20718 0.0
C172 C 0.276 0.11524 0.31497 0.0
C173 C 0.30596 0.02769 0.31975 0.0
C174 C 0.27986 0.98641 0.32651 0.0
C175 C 0.29248 0.94545 0.36493 0.0
C176 C 0.33189 0.94768 0.4005 0.0
C177 C 0.35816 0.99066 0.39794 0.0
C178 C 0.34558 0.03073 0.35562 0.0
H179 H 0.99589 0.91816 0.75194 0.0
H180 H 0.03085 0.83273 0.93338 0.0
H181 H 1.0132 0.75468 0.86866 0.0
H182 H 0.90759 0.82816 0.68364 0.0
H183 H 0.92277 0.8384 0.59386 0.0
H184 H 0.92807 0.88805 0.65912 0.0
H185 H 1.00867 0.89691 0.62667 0.0
H186 H 1.00384 0.84706 0.56221 0.0
H187 H 0.04367 0.84324 0.63089 0.0
H188 H 1.00861 0.68716 0.77928 0.0
H189 H 1.01345 0.6342 0.67245 0.0
H190 H 0.97562 0.76052 0.54758 0.0
C191 C 0.99789 0.88304 0.77854 0.0
C192 C 1.01428 0.8811 0.84751 0.0
C193 C 0.01803 0.83466 0.88052 0.0
C194 C 1.00793 0.79019 0.84431 0.0
C195 C 0.99375 0.79278 0.77516 0.0
C196 C 0.98793 0.83797 0.74273 0.0
C197 C 0.97737 0.82972 0.66547 0.0
C198 C 0.9312 0.84711 0.6496 0.0
C199 C 1.01036 0.85576 0.61861 0.0
C200 C 0.98126 0.7733 0.65887 0.0
C201 C 0.98994 0.75275 0.72303 0.0
C202 C 1.00034 0.70242 0.72898 0.0
C203 C 1.00283 0.67244 0.66765 0.0
C204 C 0.99482 0.6927 0.60086 0.0
C205 C 0.98238 0.74356 0.59733 0.0
H206 H 0.22116 0.94052 0.832 0.0
H207 H 0.25634 0.07718 0.9447 0.0
H208 H 0.32554 0.07855 0.88157 0.0
H209 H 0.33328 0.88692 0.81415 0.0
H210 H 0.32253 0.86349 0.72624 0.0
H211 H 0.2796 0.86741 0.78991 0.0
H212 H 0.23446 0.92104 0.70538 0.0
H213 H 0.27697 0.91686 0.6416 0.0
H214 H 0.25753 0.97716 0.67161 0.0
H215 H 0.38554 0.07252 0.79502 0.0
H216 H 0.42791 0.06283 0.68542 0.0
H217 H 0.35488 0.93025 0.6287 0.0
C218 C 0.24406 0.96981 0.84474 0.0
C219 C 0.23354 0.00856 0.89339 0.0
C220 C 0.26374 0.04714 0.9074 0.0
C221 C 0.30335 0.048 0.87233 0.0
C222 C 0.31245 0.00997 0.82334 0.0
C223 C 0.28364 0.97158 0.80939 0.0
C224 C 0.29857 0.9392 0.74769 0.0
C225 C 0.30913 0.8861 0.77092 0.0
C226 C 0.2649 0.93858 0.68808 0.0
C227 C 0.33906 0.96672 0.72727 0.0
C228 C 0.34717 0.00672 0.77258 0.0
C229 C 0.38017 0.04066 0.76001 0.0
C230 C 0.40428 0.03479 0.69793 0.0
C231 C 0.39474 0.99571 0.64914 0.0
C232 C 0.36308 0.96012 0.66577 0.0
H233 H 0.98483 0.13735 0.82035 0.0
H234 H 0.04953 0.22497 0.98341 0.0
H235 H 0.03223 0.30202 0.92144 0.0
H236 H 0.02623 0.19843 0.68432 0.0
H237 H 0.97934 0.19659 0.6283 0.0
H238 H 0.98667 0.14985 0.69303 0.0
H239 H 0.91227 0.17161 0.74653 0.0
H240 H 0.90433 0.2187 0.68192 0.0
H241 H 0.90034 0.23499 0.77418 0.0
H242 H 0.02164 0.36624 0.83265 0.0
H243 H 0.01919 0.41275 0.72309 0.0
H244 H 0.95969 0.28532 0.61646 0.0
C245 C 0.99377 0.17299 0.84417 0.0
C246 C 0.01836 0.17543 0.90657 0.0
C247 C 0.03073 0.22245 0.93544 0.0
C248 C 0.02075 0.26643 0.90092 0.0
C249 C 0.99821 0.2628 0.83769 0.0
C250 C 0.98449 0.21732 0.80975 0.0
C251 C 0.96643 0.22298 0.73638 0.0
C252 C 0.99117 0.19004 0.68238 0.0
C253 C 0.91795 0.21141 0.73469 0.0
C254 C 0.9747 0.27798 0.72592 0.0
C255 C 0.99203 0.30051 0.78563 0.0
C256 C 1.00694 0.34951 0.78615 0.0
C257 C 1.00528 0.37577 0.72355 0.0
C258 C 0.98913 0.35286 0.66102 0.0
C259 C 0.97225 0.30393 0.66331 0.0
H260 H 0.87507 0.9854 0.76083 0.0
H261 H 0.85368 0.13411 0.85026 0.0
H262 H 0.79077 0.14417 0.77244 0.0
H263 H 0.83958 0.01395 0.57869 0.0
H264 H 0.81531 0.95331 0.5667 0.0
H265 H 0.86187 0.96098 0.6226 0.0
H266 H 0.8197 0.92203 0.72444 0.0
H267 H 0.77259 0.91535 0.66983 0.0
H268 H 0.76927 0.94959 0.75246 0.0
H269 H 0.72347 0.13269 0.69754 0.0
H270 H 0.6644 0.10569 0.61725 0.0
H271 H 0.73097 0.96555 0.57623 0.0
C272 C 0.85804 0.02073 0.76265 0.0
C273 C 0.86939 0.05888 0.81198 0.0
C274 C 0.84588 0.10436 0.81282 0.0
C275 C 0.80983 0.11032 0.76907 0.0
C276 C 0.79805 0.07079 0.72403 0.0
C277 C 0.82217 0.02738 0.7192 0.0
C278 C 0.80179 0.98964 0.66877 0.0
C279 C 0.8314 0.97886 0.60543 0.0
C280 C 0.79015 0.94132 0.70615 0.0
C281 C 0.76178 0.01799 0.64756 0.0
C282 C 0.76004 0.06469 0.68002 0.0
C283 C 0.72488 0.09653 0.67096 0.0
C284 C 0.69127 0.08073 0.62603 0.0
C285 C 0.69327 0.0337 0.59055 0.0
C286 C 0.72884 1.00192 0.60225 0.0
loop_
_geom_bond_atom_site_label_1
_geom_bond_atom_site_label_2
_geom_bond_distance
_geom_bond_site_symmetry_2
_ccdc_geom_bond_type
C0 O27 1.308 1_655 S
C0 O28 1.213 . S
C1 O22 1.331 . S
C1 O25 1.244 1_565 S
C2 O24 1.264 1_545 S
C2 O26 1.273 . S
Mg3 O5 1.936 1_565 S
Mg3 O12 2.081 . S
Mg3 O14 2.023 1_556 S
Mg3 O18 2.031 . S
Mg3 O27 2.291 1_556 S
Mg4 O5 1.963 . S
Mg4 O15 1.942 . S
Mg4 O16 1.955 1_556 S
Mg4 O23 1.986 . S
O5 Mg3 1.936 1_545 S
O5 Mg4 1.963 . S
O5 Mg6 1.912 1_556 S
Mg6 O5 1.912 1_554 S
Mg6 O7 1.918 1_455 S
Mg6 O11 2.019 . S
Mg6 O17 2.108 1_444 S
Mg6 O21 2.006 1_454 S
Mg6 O27 2.119 1_545 S
O7 Mg6 1.918 1_655 S
O7 Mg8 1.936 1_545 S
O7 Mg9 1.963 . S
Mg8 O7 1.936 1_565 S
Mg8 O17 2.291 1_554 S
Mg8 O22 2.081 . S
Mg8 O24 2.023 1_554 S
Mg8 O28 2.031 . S
Mg9 O7 1.963 . S
Mg9 O13 1.986 . S
Mg9 O25 1.942 . S
Mg9 O26 1.955 1_554 S
C10 O21 1.191 1_455 S
C10 O23 1.307 . S
O11 Mg6 2.019 . S
O11 C30 1.191 1_455 S
O12 Mg3 2.081 . S
O12 C20 1.331 . S
O13 Mg9 1.986 . S
O13 C30 1.307 . S
O14 Mg3 2.023 1_554 S
O14 C29 1.264 1_565 S
O15 Mg4 1.942 . S
O15 C20 1.244 1_545 S
O16 Mg4 1.955 1_554 S
O16 C29 1.273 . S
O17 Mg6 2.108 1_666 S
O17 Mg8 2.291 1_556 S
O17 C19 1.312 1_655 S
O18 Mg3 2.031 . S
O18 C19 1.208 . S
C19 O17 1.312 1_455 S
C19 O18 1.208 . S
C20 O12 1.331 . S
C20 O15 1.244 1_565 S
O21 Mg6 2.006 1_656 S
O21 C10 1.191 1_655 S
O22 C1 1.331 . S
O22 Mg8 2.081 . S
O23 Mg4 1.986 . S
O23 C10 1.307 . S
O24 C2 1.264 1_565 S
O24 Mg8 2.023 1_556 S
O25 C1 1.244 1_545 S
O25 Mg9 1.942 . S
O26 C2 1.273 . S
O26 Mg9 1.955 1_556 S
O27 C0 1.308 1_455 S
O27 Mg3 2.291 1_554 S
O27 Mg6 2.119 1_565 S
O28 C0 1.213 . S
O28 Mg8 2.031 . S
C29 O14 1.264 1_545 S
C29 O16 1.273 . S
C30 O11 1.191 1_655 S
C30 O13 1.307 . S
H31 C39 0.940 . S
H32 C42 0.940 . S
H33 C44 0.940 1_655 S
H34 C45 0.940 . S
H35 C48 0.940 . S
H36 C50 0.940 1_655 S
N37 N38 1.190 . S
N37 C41 1.477 . S
N38 N37 1.190 . S
N38 C47 1.477 . S
C39 H31 0.940 . S
C39 C40 1.390 . S
C39 C41 1.322 . S
C40 C39 1.390 . S
C40 C44 1.370 . S
C41 N37 1.477 . S
C41 C39 1.322 . S
C41 C42 1.447 . S
C42 H32 0.940 . S
C42 C41 1.447 . S
C42 C43 1.373 . S
C43 C42 1.373 . S
C43 C44 1.417 . S
C44 H33 0.940 1_455 S
C44 C40 1.370 . S
C44 C43 1.417 . S
C45 H34 0.940 . S
C45 C46 1.390 . S
C45 C47 1.322 . S
C46 C45 1.390 . S
C46 C50 1.370 . S
C47 N38 1.477 . S
C47 C45 1.322 . S
C47 C48 1.447 . S
C48 H35 0.940 . S
C48 C47 1.447 . S
C48 C49 1.373 . S
C49 C48 1.373 . S
C49 C50 1.417 . S
C50 H36 0.940 1_455 S
C50 C46 1.370 . S
C50 C49 1.417 . S
H51 C59 0.940 . S
H52 C62 0.940 . S
H53 C64 0.937 1_565 S
H54 C65 0.940 . S
H55 C68 0.940 . S
H56 C70 0.936 1_565 S
N57 N58 1.190 . S
N57 C61 1.477 . S
N58 N57 1.190 . S
N58 C67 1.477 . S
C59 H51 0.940 . S
C59 C60 1.390 . S
C59 C61 1.322 . S
C60 C59 1.390 . S
C60 C64 1.371 . S
C61 N57 1.477 . S
C61 C59 1.322 . S
C61 C62 1.447 . S
C62 H52 0.940 . S
C62 C61 1.447 . S
C62 C63 1.373 . S
C63 C62 1.373 . S
C63 C64 1.420 . S
C64 H53 0.937 1_545 S
C64 C60 1.371 . S
C64 C63 1.420 . S
C65 H54 0.940 . S
C65 C66 1.390 . S
C65 C67 1.322 . S
C66 C65 1.390 . S
C66 C70 1.370 . S
C67 N58 1.477 . S
C67 C65 1.322 . S
C67 C68 1.447 . S
C68 H55 0.940 . S
C68 C67 1.447 . S
C68 C69 1.373 . S
C69 C68 1.373 . S
C69 C70 1.421 . S
C70 H56 0.936 1_545 S
C70 C66 1.370 . S
C70 C69 1.421 . S
H71 C83 0.930 . S
H72 C85 0.930 . S
H73 C86 0.930 . S
H74 C90 0.959 1_455 S
H75 C90 0.959 . S
H76 C90 0.961 . S
H77 C91 0.960 . S
H78 C91 0.961 . S
H79 C91 0.959 . S
H80 C94 0.929 . S
H81 C95 0.931 . S
H82 C97 0.930 . S
C83 H71 0.930 . S
C83 C84 1.399 1_655 S
C83 C88 1.399 . S
C84 C83 1.399 1_455 S
C84 C85 1.376 . S
C85 H72 0.930 . S
C85 C84 1.376 . S
C85 C86 1.388 . S
C86 H73 0.930 . S
C86 C85 1.388 . S
C86 C87 1.390 . S
C87 C86 1.390 . S
C87 C88 1.394 1_455 S
C87 C93 1.465 . S
C88 C83 1.399 . S
C88 C87 1.394 1_655 S
C88 C89 1.516 . S
C89 C88 1.516 . S
C89 C90 1.502 . S
C89 C91 1.561 . S
C89 C92 1.526 . S
C90 H74 0.959 1_655 S
C90 H75 0.959 . S
C90 H76 0.961 . S
C90 C89 1.502 . S
C91 H77 0.960 . S
C91 H78 0.961 . S
C91 H79 0.959 . S
C91 C89 1.561 . S
C92 C89 1.526 . S
C92 C93 1.396 1_655 S
C92 C97 1.390 . S
C93 C87 1.465 . S
C93 C92 1.396 1_455 S
C93 C94 1.399 . S
C94 H80 0.929 . S
C94 C93 1.399 . S
C94 C95 1.385 . S
C95 H81 0.931 . S
C95 C94 1.385 . S
C95 C96 1.389 . S
C96 C95 1.389 . S
C96 C97 1.387 1_455 S
C97 H82 0.930 . S
C97 C92 1.390 . S
C97 C96 1.387 1_655 S
H98 C110 0.930 . S
H99 C112 0.930 . S
H100 C113 0.930 . S
H101 C117 0.959 . S
H102 C117 0.959 . S
H103 C117 0.961 . S
H104 C118 0.960 . S
H105 C118 0.961 . S
H106 C118 0.959 . S
H107 C121 0.929 . S
H108 C122 0.931 . S
H109 C124 0.930 . S
C110 H98 0.930 . S
C110 C111 1.405 . S
C110 C115 1.399 . S
C111 C110 1.405 . S
C111 C112 1.369 1_565 S
C112 H99 0.930 . S
C112 C111 1.369 1_545 S
C112 C113 1.388 . S
C113 H100 0.930 . S
C113 C112 1.388 . S
C113 C114 1.390 . S
C114 C113 1.390 . S
C114 C115 1.394 1_545 S
C114 C120 1.465 . S
C115 C110 1.399 . S
C115 C114 1.394 1_565 S
C115 C116 1.516 . S
C116 C115 1.516 . S
C116 C117 1.502 . S
C116 C118 1.561 . S
C116 C119 1.526 . S
C117 H101 0.959 . S
C117 H102 0.959 . S
C117 H103 0.961 . S
C117 C116 1.502 . S
C118 H104 0.960 . S
C118 H105 0.961 . S
C118 H106 0.959 . S
C118 C116 1.561 . S
C119 C116 1.526 . S
C119 C120 1.396 1_565 S
C119 C124 1.390 . S
C120 C114 1.465 . S
C120 C119 1.396 1_545 S
C120 C121 1.399 . S
C121 H107 0.929 . S
C121 C120 1.399 . S
C121 C122 1.385 . S
C122 H108 0.931 . S
C122 C121 1.385 . S
C122 C123 1.389 . S
C123 C122 1.389 . S
C123 C124 1.387 1_545 S
C124 H109 0.930 . S
C124 C119 1.390 . S
C124 C123 1.387 1_565 S
H125 C137 0.930 . S
H126 C139 0.930 . S
H127 C140 0.930 . S
H128 C144 0.959 . S
H129 C144 0.959 1_655 S
H130 C144 0.961 . S
H131 C145 0.960 . S
H132 C145 0.961 . S
H133 C145 0.959 . S
H134 C148 0.929 . S
H135 C149 0.931 . S
H136 C151 0.930 . S
C137 H125 0.930 . S
C137 C138 1.399 1_655 S
C137 C142 1.399 . S
C138 C137 1.399 1_455 S
C138 C139 1.376 . S
C139 H126 0.930 . S
C139 C138 1.376 . S
C139 C140 1.388 . S
C140 H127 0.930 . S
C140 C139 1.388 . S
C140 C141 1.390 . S
C141 C140 1.390 . S
C141 C142 1.394 1_455 S
C141 C147 1.465 . S
C142 C137 1.399 . S
C142 C141 1.394 1_655 S
C142 C143 1.516 . S
C143 C142 1.516 . S
C143 C144 1.502 1_655 S
C143 C145 1.561 . S
C143 C146 1.532 . S
C144 H128 0.959 . S
C144 H129 0.959 1_455 S
C144 H130 0.961 . S
C144 C143 1.502 1_455 S
C145 H131 0.960 . S
C145 H132 0.961 . S
C145 H133 0.959 . S
C145 C143 1.561 . S
C146 C143 1.532 . S
C146 C147 1.389 1_655 S
C146 C151 1.390 . S
C147 C141 1.465 . S
C147 C146 1.389 1_455 S
C147 C148 1.399 . S
C148 H134 0.929 . S
C148 C147 1.399 . S
C148 C149 1.385 . S
C149 H135 0.931 . S
C149 C148 1.385 . S
C149 C150 1.389 . S
C150 C149 1.389 . S
C150 C151 1.387 1_455 S
C151 H136 0.930 . S
C151 C146 1.390 . S
C151 C150 1.387 1_655 S
H152 C164 0.930 . S
H153 C166 0.930 . S
H154 C167 0.930 . S
H155 C171 0.959 . S
H156 C171 0.959 . S
H157 C171 0.961 . S
H158 C172 0.960 . S
H159 C172 0.961 . S
H160 C172 0.959 . S
H161 C175 0.929 . S
H162 C176 0.931 . S
H163 C178 0.930 . S
C164 H152 0.930 . S
C164 C165 1.399 . S
C164 C169 1.399 . S
C165 C164 1.399 . S
C165 C166 1.376 1_545 S
C166 H153 0.930 . S
C166 C165 1.376 1_565 S
C166 C167 1.388 . S
C167 H154 0.930 . S
C167 C166 1.388 . S
C167 C168 1.390 . S
C168 C167 1.390 . S
C168 C169 1.394 1_565 S
C168 C174 1.465 . S
C169 C164 1.399 . S
C169 C168 1.394 1_545 S
C169 C170 1.516 . S
C170 C169 1.516 . S
C170 C171 1.502 . S
C170 C172 1.561 . S
C170 C173 1.526 . S
C171 H155 0.959 . S
C171 H156 0.959 . S
C171 H157 0.961 . S
C171 C170 1.502 . S
C172 H158 0.960 . S
C172 H159 0.961 . S
C172 H160 0.959 . S
C172 C170 1.561 . S
C173 C170 1.526 . S
C173 C174 1.396 1_545 S
C173 C178 1.390 . S
C174 C168 1.465 . S
C174 C173 1.396 1_565 S
C174 C175 1.399 . S
C175 H161 0.929 . S
C175 C174 1.399 . S
C175 C176 1.385 . S
C176 H162 0.931 . S
C176 C175 1.385 . S
C176 C177 1.389 1_565 S
C177 C176 1.389 1_545 S
C177 C178 1.387 . S
C178 H163 0.930 . S
C178 C173 1.390 . S
C178 C177 1.387 . S
H179 C191 0.930 . S
H180 C193 0.930 . S
H181 C194 0.930 . S
H182 C198 0.959 . S
H183 C198 0.959 . S
H184 C198 0.961 . S
H185 C199 0.960 . S
H186 C199 0.961 . S
H187 C199 0.959 . S
H188 C202 0.929 . S
H189 C203 0.931 . S
H190 C205 0.930 . S
C191 H179 0.930 . S
C191 C192 1.399 1_655 S
C191 C196 1.399 . S
C192 C191 1.399 1_455 S
C192 C193 1.376 . S
C193 H180 0.930 . S
C193 C192 1.376 . S
C193 C194 1.388 . S
C194 H181 0.930 . S
C194 C193 1.388 . S
C194 C195 1.390 . S
C195 C194 1.390 . S
C195 C196 1.394 1_455 S
C195 C201 1.465 . S
C196 C191 1.399 . S
C196 C195 1.394 1_655 S
C196 C197 1.516 . S
C197 C196 1.516 . S
C197 C198 1.502 . S
C197 C199 1.561 . S
C197 C200 1.526 . S
C198 H182 0.959 . S
C198 H183 0.959 . S
C198 H184 0.961 . S
C198 C197 1.502 . S
C199 H185 0.960 . S
C199 H186 0.961 . S
C199 H187 0.959 . S
C199 C197 1.561 . S
C200 C197 1.526 . S
C200 C201 1.396 1_655 S
C200 C205 1.390 . S
C201 C195 1.465 . S
C201 C200 1.396 1_455 S
C201 C202 1.399 . S
C202 H188 0.929 . S
C202 C201 1.399 . S
C202 C203 1.385 . S
C203 H189 0.931 . S
C203 C202 1.385 . S
C203 C204 1.389 . S
C204 C203 1.389 . S
C204 C205 1.387 1_455 S
C205 H190 0.930 . S
C205 C200 1.390 . S
C205 C204 1.387 1_655 S
H206 C218 0.930 . S
H207 C220 0.930 . S
H208 C221 0.930 . S
H209 C225 0.959 1_545 S
H210 C225 0.959 . S
H211 C225 0.961 . S
H212 C226 0.960 . S
H213 C226 0.961 . S
H214 C226 0.959 . S
H215 C229 0.929 . S
H216 C230 0.931 . S
H217 C232 0.930 . S
C218 H206 0.930 . S
C218 C219 1.399 . S
C218 C223 1.399 . S
C219 C218 1.399 . S
C219 C220 1.376 1_565 S
C220 H207 0.930 . S
C220 C219 1.376 1_545 S
C220 C221 1.388 . S
C221 H208 0.930 . S
C221 C220 1.388 . S
C221 C222 1.390 . S
C222 C221 1.390 . S
C222 C223 1.394 1_545 S
C222 C228 1.465 . S
C223 C218 1.399 . S
C223 C222 1.394 1_565 S
C223 C224 1.516 . S
C224 C223 1.516 . S
C224 C225 1.502 . S
C224 C226 1.561 . S
C224 C227 1.526 . S
C225 H209 0.959 1_565 S
C225 H210 0.959 . S
C225 H211 0.961 . S
C225 C224 1.502 . S
C226 H212 0.960 . S
C226 H213 0.961 . S
C226 H214 0.959 . S
C226 C224 1.561 . S
C227 C224 1.526 . S
C227 C228 1.396 1_565 S
C227 C232 1.390 . S
C228 C222 1.465 . S
C228 C227 1.396 1_545 S
C228 C229 1.399 . S
C229 H215 0.929 . S
C229 C228 1.399 . S
C229 C230 1.385 . S
C230 H216 0.931 . S
C230 C229 1.385 . S
C230 C231 1.393 . S
C231 C230 1.393 . S
C231 C232 1.383 1_545 S
C232 H217 0.930 . S
C232 C227 1.390 . S
C232 C231 1.383 1_565 S
H233 C245 0.930 . S
H234 C247 0.930 . S
H235 C248 0.930 . S
H236 C252 0.959 . S
H237 C252 0.959 . S
H238 C252 0.961 . S
H239 C253 0.960 . S
H240 C253 0.961 . S
H241 C253 0.959 . S
H242 C256 0.929 . S
H243 C257 0.931 . S
H244 C259 0.930 . S
C245 H233 0.930 . S
C245 C246 1.399 1_655 S
C245 C250 1.399 1_655 S
C246 C245 1.399 1_455 S
C246 C247 1.376 . S
C247 H234 0.930 . S
C247 C246 1.376 . S
C247 C248 1.388 . S
C248 H235 0.930 . S
C248 C247 1.388 . S
C248 C249 1.390 . S
C249 C248 1.390 . S
C249 C250 1.394 . S
C249 C255 1.465 . S
C250 C245 1.399 1_455 S
C250 C249 1.394 . S
C250 C251 1.516 1_455 S
C251 C250 1.516 1_655 S
C251 C252 1.502 . S
C251 C253 1.561 1_655 S
C251 C254 1.526 1_655 S
C252 H236 0.959 . S
C252 H237 0.959 . S
C252 H238 0.961 . S
C252 C251 1.502 . S
C253 H239 0.960 . S
C253 H240 0.961 . S
C253 H241 0.959 . S
C253 C251 1.561 1_455 S
C254 C251 1.526 1_455 S
C254 C255 1.396 . S
C254 C259 1.390 1_455 S
C255 C249 1.465 . S
C255 C254 1.396 . S
C255 C256 1.399 . S
C256 H242 0.929 . S
C256 C255 1.399 . S
C256 C257 1.385 . S
C257 H243 0.931 . S
C257 C256 1.385 . S
C257 C258 1.389 . S
C258 C257 1.389 . S
C258 C259 1.387 1_455 S
C259 H244 0.930 . S
C259 C254 1.390 1_655 S
C259 C258 1.387 1_655 S
H260 C272 0.930 . S
H261 C274 0.930 . S
H262 C275 0.930 . S
H263 C279 0.959 . S
H264 C279 0.959 . S
H265 C279 0.961 . S
H266 C280 0.960 . S
H267 C280 0.961 . S
H268 C280 0.959 . S
H269 C283 0.929 . S
H270 C284 0.931 . S
H271 C286 0.930 . S
C272 H260 0.930 . S
C272 C273 1.399 1_565 S
C272 C277 1.399 . S
C273 C272 1.399 1_545 S
C273 C274 1.376 . S
C274 H261 0.930 . S
C274 C273 1.376 . S
C274 C275 1.388 . S
C275 H262 0.930 . S
C275 C274 1.388 . S
C275 C276 1.390 . S
C276 C275 1.390 . S
C276 C277 1.394 1_545 S
C276 C282 1.465 . S
C277 C272 1.399 . S
C277 C276 1.394 1_565 S
C277 C278 1.516 . S
C278 C277 1.516 . S
C278 C279 1.502 . S
C278 C280 1.561 . S
C278 C281 1.526 . S
C279 H263 0.959 . S
C279 H264 0.959 . S
C279 H265 0.961 . S
C279 C278 1.502 . S
C280 H266 0.960 . S
C280 H267 0.961 . S
C280 H268 0.959 . S
C280 C278 1.561 . S
C281 C278 1.526 . S
C281 C282 1.396 1_565 S
C281 C286 1.390 . S
C282 C276 1.465 . S
C282 C281 1.396 1_545 S
C282 C283 1.399 . S
C283 H269 0.929 . S
C283 C282 1.399 . S
C283 C284 1.385 . S
C284 H270 0.931 . S
C284 C283 1.385 . S
C284 C285 1.389 . S
C285 C284 1.389 . S
C285 C286 1.387 1_545 S
C286 H271 0.930 . S
C286 C281 1.390 . S
C286 C285 1.387 1_565 S
C84 C30 1.500 1_455 S
C96 C40 1.416 . S
C111 C1 1.674 . S
C123 C60 1.599 . S
C138 C0 1.397 1_455 S
C150 C49 1.507 . S
C165 C29 1.685 . S
C177 C69 1.681 . S
C192 C19 1.434 . S
C204 C46 1.472 . S
C219 C20 1.687 . S
C231 C66 1.590 . S
C258 C43 1.447 . S
C246 C10 1.446 . S
C273 C2 1.653 . S
C285 C63 1.698 . S
