# Generated by pormake.
# Topology rtl, (3,6)-cn, num edge types: 1
# Building blocks:
#     Node 0, Type 0, BuildingBlock: INOVEN_clean_linker_0, # of connection points: 3
#     Node 1, Type 0, BuildingBlock: INOVEN_clean_linker_0, # of connection points: 3
#     Node 2, Type 0, BuildingBlock: INOVEN_clean_linker_0, # of connection points: 3
#     Node 3, Type 0, BuildingBlock: INOVEN_clean_linker_0, # of connection points: 3
#     Node 4, Type 1, BuildingBlock: CIFDUS_clean_sbu_1, # of connection points: 6
#     Node 5, Type 1, BuildingBlock: CIFDUS_clean_sbu_1, # of connection points: 6
#     Edge 6, Type (0, 1), BuildingBlock: FUNLAD_clean_linker_1, # of connection points: 2
#     Edge 7, Type (0, 1), BuildingBlock: FUNLAD_clean_linker_1, # of connection points: 2
#     Edge 8, Type (0, 1), BuildingBlock: FUNLAD_clean_linker_1, # of connection points: 2
#     Edge 9, Type (0, 1), BuildingBlock: FUNLAD_clean_linker_1, # of connection points: 2
#     Edge 10, Type (0, 1), BuildingBlock: FUNLAD_clean_linker_1, # of connection points: 2
#     Edge 11, Type (0, 1), BuildingBlock: FUNLAD_clean_linker_1, # of connection points: 2
#     Edge 12, Type (0, 1), BuildingBlock: FUNLAD_clean_linker_1, # of connection points: 2
#     Edge 13, Type (0, 1), BuildingBlock: FUNLAD_clean_linker_1, # of connection points: 2
#     Edge 14, Type (0, 1), BuildingBlock: FUNLAD_clean_linker_1, # of connection points: 2
#     Edge 15, Type (0, 1), BuildingBlock: FUNLAD_clean_linker_1, # of connection points: 2
#     Edge 16, Type (0, 1), BuildingBlock: FUNLAD_clean_linker_1, # of connection points: 2
#     Edge 17, Type (0, 1), BuildingBlock: FUNLAD_clean_linker_1, # of connection points: 2
# Relax obj value: 0.015
# Max RMSD: 0.113
# Mean RMSD: 0.083
data_MOF--net-rtl--node1-CIFDUS_clean_sbu_1--node2-INOVEN_clean_linker_0--edge1-FUNLAD_clean_linker_1
_symmetry_space_group_name_H-M    P1
_symmetry_Int_Tables_number       1
_symmetry_cell_setting            triclinic
loop_
_symmetry_equiv_pos_as_xyz
'x, y, z'
_cell_length_a     35.780114
_cell_length_b     36.485297
_cell_length_c     22.870316
_cell_angle_alpha  91.725655
_cell_angle_beta   98.798849
_cell_angle_gamma 89.873517
loop_
_atom_site_label
_atom_site_type_symbol
_atom_site_fract_x
_atom_site_fract_y
_atom_site_fract_z
_atom_type_partial_charge
H0 H 0.22093 0.81542 0.01711 0.0
H1 H 0.15766 0.89432 0.10472 0.0
H2 H 0.2405 0.82638 0.20695 0.0
N3 N 0.26201 0.79007 0.11216 0.0
N4 N 0.28925 0.78766 0.15312 0.0
C5 C 0.2139 0.82806 0.05754 0.0
C6 C 0.1862 0.85549 0.05445 0.0
C7 C 0.23363 0.81747 0.11209 0.0
C8 C 0.22527 0.83446 0.16465 0.0
C9 C 0.19684 0.86138 0.16285 0.0
C10 C 0.17769 0.87197 0.10729 0.0
H11 H 0.74176 0.7341 0.69203 0.0
H12 H 0.66259 0.6613 0.58515 0.0
H13 H 0.72878 0.73662 0.50232 0.0
N14 N 0.76594 0.76665 0.59873 0.0
N15 N 0.78217 0.78199 0.64526 0.0
C16 C 0.72838 0.72364 0.64921 0.0
C17 C 0.701 0.69547 0.64497 0.0
C18 C 0.73818 0.7386 0.59731 0.0
C19 C 0.72041 0.72538 0.54163 0.0
C20 C 0.69287 0.69759 0.53682 0.0
C21 C 0.68368 0.68291 0.58869 0.0
H22 H 0.81389 0.22838 0.91716 0.0
H23 H 0.89029 0.15915 0.02853 0.0
H24 H 0.82582 0.24125 0.10701 0.0
N25 N 0.78873 0.26611 0.00952 0.0
N26 N 0.77254 0.27991 0.96314 0.0
C27 C 0.82737 0.22085 0.9608 0.0
C28 C 0.85377 0.19187 0.96702 0.0
C29 C 0.81715 0.23864 0.01177 0.0
C30 C 0.83408 0.22783 0.06802 0.0
C31 C 0.86126 0.20001 0.07465 0.0
C32 C 0.87051 0.18183 0.0239 0.0
H33 H 0.31114 0.32814 0.37226 0.0
H34 H 0.3913 0.38854 0.49833 0.0
H35 H 0.31191 0.31576 0.55885 0.0
N36 N 0.27796 0.29326 0.44887 0.0
N37 N 0.26838 0.27197 0.48565 0.0
C38 C 0.32305 0.33546 0.41747 0.0
C39 C 0.35317 0.36069 0.42968 0.0
C40 C 0.30845 0.3186 0.46359 0.0
C41 C 0.3237 0.32774 0.52288 0.0
C42 C 0.35405 0.35257 0.53584 0.0
C43 C 0.36866 0.36856 0.48888 0.0
O44 O 1.00675 0.06542 0.49543 0.0
Mn45 Mn 0.02476 0.02933 0.56474 0.0
O46 O 0.95613 0.03979 0.43927 0.0
Mn47 Mn 0.96526 0.99372 0.46895 0.0
O48 O 0.04309 0.99382 0.6346 0.0
O49 O 0.07279 0.05927 0.58292 0.0
Mn50 Mn 0.0832 0.06801 0.65983 0.0
O51 O 0.99751 0.06293 0.62211 0.0
O52 O 0.08988 0.02304 0.69508 0.0
O53 O 0.05166 0.99613 0.50673 0.0
O54 O 1.00503 0.96852 0.44326 0.0
O55 O 0.12156 0.08983 0.62828 0.0
O56 O 0.04327 0.09575 0.67913 0.0
C57 C 0.94775 0.97814 0.5497 0.0
C58 C 0.9789 0.06652 0.45257 0.0
C59 C 0.06897 0.99497 0.68053 0.0
C60 C 0.1029 0.07793 0.57842 0.0
C61 C 1.00856 0.08823 0.66152 0.0
C62 C 0.03994 0.97401 0.46274 0.0
O63 O 0.9769 0.99871 0.54657 0.0
O64 O 0.92856 0.96859 0.49881 0.0
O65 O 0.54696 0.56712 0.10485 0.0
Mn66 Mn 0.52658 0.53088 0.03364 0.0
O67 O 0.58366 0.5345 0.17304 0.0
Mn68 Mn 0.56782 0.48916 0.14032 0.0
O69 O 0.50635 0.49484 0.96176 0.0
O70 O 0.48819 0.56968 1.00433 0.0
Mn71 Mn 0.48787 0.57362 0.92737 0.0
O72 O 0.5669 0.55338 0.98692 0.0
O73 O 0.4719 0.52877 0.89278 0.0
O74 O 0.48695 0.50818 0.08174 0.0
O75 O 0.52024 0.47435 0.15245 0.0
O76 O 0.45343 0.6073 0.94713 0.0
O77 O 0.53566 0.5888 0.91708 0.0
C78 C 0.59046 0.46723 0.06471 0.0
C79 C 0.57013 0.5649 0.15356 0.0
C80 C 0.4841 0.49791 0.91222 0.0
C81 C 0.46275 0.59524 1.00005 0.0
C82 C 0.56631 0.57629 0.94513 0.0
C83 C 0.48893 0.48603 0.125 0.0
O84 O 0.56506 0.4926 0.06299 0.0
O85 O 0.60194 0.45575 0.11745 0.0
H86 H 0.21925 0.24969 0.42734 0.0
C87 C 0.23726 0.24762 0.46996 0.0
H88 H 0.24734 0.22213 0.55159 0.0
H89 H 0.08807 0.16663 0.57925 0.0
H90 H 0.0949 0.21874 0.64726 0.0
H91 H 0.14655 0.26337 0.64758 0.0
H92 H 0.19204 0.25565 0.57995 0.0
C93 C 0.22959 0.22279 0.50858 0.0
C94 C 0.19476 0.19937 0.49908 0.0
C95 C 0.1673 0.20488 0.53707 0.0
C96 C 0.1368 0.17966 0.5355 0.0
C97 C 0.11121 0.18514 0.57665 0.0
C98 C 0.11485 0.21502 0.61645 0.0
C99 C 0.14396 0.24009 0.61674 0.0
C100 C 0.16997 0.2352 0.57776 0.0
H101 H 0.14494 0.07971 0.52108 0.0
C102 C 0.1159 0.08782 0.52307 0.0
H103 H 0.07575 0.12887 0.50326 0.0
H104 H 0.24188 0.18054 0.41932 0.0
H105 H 0.23341 0.13004 0.34712 0.0
H106 H 0.17848 0.08861 0.3402 0.0
H107 H 0.13164 0.09721 0.40603 0.0
C108 C 0.10434 0.12003 0.49967 0.0
C109 C 0.13319 0.14913 0.49475 0.0
C110 C 0.1593 0.14496 0.45415 0.0
C111 C 0.19045 0.16969 0.45692 0.0
C112 C 0.2172 0.16335 0.41816 0.0
C113 C 0.21274 0.13435 0.37661 0.0
C114 C 0.18182 0.11097 0.37276 0.0
C115 C 0.1553 0.11608 0.41095 0.0
H116 H 0.347 0.76855 0.16298 0.0
C117 C 0.31761 0.76043 0.1505 0.0
H118 H 0.27938 0.71834 0.11911 0.0
H119 H 0.37807 0.63348 0.95656 0.0
H120 H 0.32134 0.64813 0.88919 0.0
H121 H 0.272 0.68749 0.92218 0.0
H122 H 0.27875 0.71191 0.02245 0.0
C123 C 0.30899 0.72603 0.12987 0.0
C124 C 0.33816 0.7002 0.11189 0.0
C125 C 0.33378 0.68643 0.05245 0.0
C126 C 0.36282 0.6648 0.03271 0.0
C127 C 0.35742 0.65092 0.97342 0.0
C128 C 0.32488 0.65894 0.93431 0.0
C129 C 0.29708 0.681 0.95293 0.0
C130 C 0.30133 0.69472 0.01106 0.0
H131 H 0.43683 0.59191 0.08239 0.0
C132 C 0.44389 0.61009 0.04896 0.0
H133 H 0.43793 0.66168 0.0104 0.0
H134 H 0.35171 0.71366 0.23168 0.0
H135 H 0.40888 0.69878 0.29856 0.0
H136 H 0.46146 0.66602 0.26178 0.0
H137 H 0.45683 0.647 0.15816 0.0
C138 C 0.43011 0.64454 0.04477 0.0
C139 C 0.39688 0.65795 0.07144 0.0
C140 C 0.40034 0.66957 0.13162 0.0
C141 C 0.37058 0.68999 0.15224 0.0
C142 C 0.3741 0.69968 0.21319 0.0
C143 C 0.40661 0.69101 0.25209 0.0
C144 C 0.4362 0.67245 0.23142 0.0
C145 C 0.43324 0.66176 0.1719 0.0
H146 H 0.81675 0.81593 0.5984 0.0
C147 C 0.80957 0.80964 0.64158 0.0
H148 H 0.81816 0.82371 0.73271 0.0
H149 H 0.95919 0.89265 0.60305 0.0
H150 H 0.98056 0.82963 0.59831 0.0
H151 H 0.94472 0.77963 0.63462 0.0
H152 H 0.88691 0.7924 0.67526 0.0
C153 C 0.82616 0.82876 0.68972 0.0
C154 C 0.85324 0.85913 0.6836 0.0
C155 C 0.88781 0.85152 0.66251 0.0
C156 C 0.9089 0.8805 0.64273 0.0
C157 C 0.9422 0.87181 0.61894 0.0
C158 C 0.95484 0.83574 0.61618 0.0
C159 C 0.93465 0.80757 0.63657 0.0
C160 C 0.90147 0.81521 0.65946 0.0
H161 H 0.95934 0.96172 0.64412 0.0
C162 C 0.93839 0.962 0.60441 0.0
H163 H 0.88454 0.94514 0.56141 0.0
H164 H 0.79336 0.88404 0.73482 0.0
H165 H 0.77522 0.94771 0.74752 0.0
H166 H 0.81236 0.99782 0.71419 0.0
H167 H 0.86809 0.98447 0.66782 0.0
C168 C 0.90548 0.94342 0.60103 0.0
C169 C 0.89557 0.91709 0.64477 0.0
C170 C 0.8641 0.92504 0.67363 0.0
C171 C 0.84286 0.89609 0.69316 0.0
C172 C 0.81057 0.90497 0.71946 0.0
C173 C 0.79988 0.94137 0.72699 0.0
C174 C 0.82078 0.96961 0.70816 0.0
C175 C 0.85247 0.96167 0.6815 0.0
H176 H 0.73554 0.31212 0.01102 0.0
C177 C 0.74382 0.30638 0.96777 0.0
H178 H 0.73502 0.32011 0.87768 0.0
H179 H 0.58667 0.37194 0.01082 0.0
H180 H 0.57141 0.30678 1.00634 0.0
H181 H 0.61241 0.26174 0.96444 0.0
H182 H 0.66908 0.28148 0.92725 0.0
C183 C 0.72638 0.32435 0.92087 0.0
C184 C 0.69605 0.35154 0.92907 0.0
C185 C 0.66232 0.33974 0.94826 0.0
C186 C 0.63842 0.36571 0.97166 0.0
C187 C 0.60576 0.35313 0.99289 0.0
C188 C 0.59663 0.31594 0.99026 0.0
C189 C 0.61974 0.29058 0.96669 0.0
C190 C 0.65224 0.30219 0.94586 0.0
H191 H 0.59164 0.45684 0.9681 0.0
C192 C 0.60509 0.4508 0.0126 0.0
H193 H 0.64681 0.42097 0.06666 0.0
H194 H 0.75287 0.38394 0.88178 0.0
H195 H 0.76431 0.44952 0.8777 0.0
H196 H 0.72237 0.49443 0.91775 0.0
H197 H 0.66866 0.47403 0.96243 0.0
C198 C 0.63398 0.42678 0.02169 0.0
C199 C 0.64799 0.40341 0.97524 0.0
C200 C 0.67846 0.41561 0.94802 0.0
C201 C 0.70257 0.38963 0.92472 0.0
C202 C 0.73372 0.40255 0.89992 0.0
C203 C 0.74053 0.44005 0.89731 0.0
C204 C 0.71693 0.46536 0.91995 0.0
C205 C 0.68635 0.4534 0.94552 0.0
H206 H 0.21105 0.87825 0.2579 0.0
C207 C 0.18903 0.87909 0.2195 0.0
H208 H 0.13291 0.89556 0.18871 0.0
H209 H 0.12285 0.90275 0.47391 0.0
H210 H 0.1363 0.83742 0.4734 0.0
H211 H 0.1543 0.80604 0.38481 0.0
H212 H 0.1596 0.83967 0.29676 0.0
C213 C 0.15568 0.89479 0.22588 0.0
C214 C 0.14852 0.91355 0.28215 0.0
C215 C 0.14499 0.89318 0.33299 0.0
C216 C 0.13312 0.91095 0.38338 0.0
C217 C 0.13062 0.89025 0.43397 0.0
C218 C 0.13843 0.85285 0.43434 0.0
C219 C 0.14869 0.83521 0.38452 0.0
C220 C 0.15184 0.85494 0.33427 0.0
H221 H 0.05521 0.93185 0.40043 0.0
C222 C 0.0668 0.9543 0.43009 0.0
H223 H 0.11393 0.98926 0.45414 0.0
H224 H 0.15622 0.96142 0.19501 0.0
H225 H 0.14207 0.0265 0.19569 0.0
H226 H 0.11935 0.05668 0.28157 0.0
H227 H 0.1112 0.02218 0.36768 0.0
C228 C 0.10241 0.96529 0.42828 0.0
C229 C 0.12336 0.94867 0.38219 0.0
C230 C 0.12896 0.96943 0.33281 0.0
C231 C 0.14152 0.95186 0.28284 0.0
C232 C 0.14626 0.97323 0.23378 0.0
C233 C 0.13836 0.01064 0.23365 0.0
C234 C 0.12564 0.02765 0.28205 0.0
C235 C 0.12099 1.00746 0.33118 0.0
H236 H 0.6625 0.66194 0.68794 0.0
C237 C 0.68817 0.67846 0.69695 0.0
H238 H 0.73123 0.69693 0.76602 0.0
H239 H 0.6074 0.67631 0.93918 0.0
H240 H 0.61845 0.74215 0.94842 0.0
H241 H 0.66186 0.77189 0.89018 0.0
H242 H 0.69463 0.73601 0.82247 0.0
C243 C 0.7057 0.68079 0.75337 0.0
C244 C 0.68831 0.66217 0.80001 0.0
C245 C 0.67028 0.68333 0.84035 0.0
C246 C 0.64497 0.66622 0.87347 0.0
C247 C 0.6265 0.68812 0.91241 0.0
C248 C 0.63272 0.72583 0.91828 0.0
C249 C 0.65719 0.74258 0.88552 0.0
C250 C 0.67575 0.72172 0.84678 0.0
H251 H 0.62904 0.57854 0.95173 0.0
C252 C 0.60256 0.58896 0.92851 0.0
H253 H 0.57643 0.62449 0.86344 0.0
H254 H 0.72657 0.61304 0.73945 0.0
H255 H 0.71814 0.54678 0.73369 0.0
H256 H 0.67241 0.51712 0.78784 0.0
H257 H 0.63514 0.55324 0.84825 0.0
C258 C 0.60289 0.61311 0.8851 0.0
C259 C 0.63777 0.62801 0.8662 0.0
C260 C 0.65923 0.60625 0.83109 0.0
C261 C 0.68491 0.6234 0.79857 0.0
C262 C 0.70609 0.60128 0.76381 0.0
C263 C 0.70164 0.56331 0.76038 0.0
C264 C 0.67592 0.54661 0.79094 0.0
C265 C 0.65471 0.5677 0.82564 0.0
H266 H 0.85874 0.18825 0.16841 0.0
C267 C 0.8773 0.1882 0.13495 0.0
H268 H 0.93232 0.1778 0.11639 0.0
H269 H 0.93818 0.16586 0.41193 0.0
H270 H 0.92185 0.23058 0.41219 0.0
H271 H 0.90952 0.26381 0.31882 0.0
H272 H 0.91275 0.23246 0.22451 0.0
C273 C 0.91341 0.17715 0.14926 0.0
C274 C 0.92713 0.15957 0.2068 0.0
C275 C 0.92662 0.1787 0.26174 0.0
C276 C 0.93497 0.15985 0.31589 0.0
C277 C 0.93256 0.17907 0.36979 0.0
C278 C 0.9233 0.21618 0.37051 0.0
C279 C 0.91628 0.23488 0.31791 0.0
C280 C 0.91794 0.21652 0.26404 0.0
H281 H 0.9987 0.11693 0.41397 0.0
C282 C 0.97526 0.09783 0.41207 0.0
H283 H 0.92238 0.08017 0.3661 0.0
H284 H 0.93534 0.11544 0.11003 0.0
H285 H 0.9568 0.05251 0.11112 0.0
H286 H 0.97385 0.02091 0.20528 0.0
H287 H 0.96925 0.05216 0.29904 0.0
C288 C 0.94536 0.09986 0.36848 0.0
C289 C 0.94494 0.1223 0.31508 0.0
C290 C 0.94891 0.10418 0.26064 0.0
C291 C 0.93979 0.12268 0.20646 0.0
C292 C 0.94251 0.10316 0.15271 0.0
C293 C 0.95472 0.06688 0.15261 0.0
C294 C 0.96425 0.04907 0.20559 0.0
C295 C 0.96134 0.0673 0.25906 0.0
H296 H 0.34745 0.36929 0.62783 0.0
C297 C 0.36811 0.36457 0.5982 0.0
H298 H 0.42549 0.36688 0.58784 0.0
H299 H 0.47272 0.50372 0.75326 0.0
H300 H 0.48114 0.52504 0.65685 0.0
H301 H 0.46026 0.48731 0.56655 0.0
H302 H 0.43123 0.42807 0.57212 0.0
C303 C 0.40487 0.37237 0.61726 0.0
C304 C 0.41776 0.39445 0.67292 0.0
C305 C 0.4346 0.42932 0.6688 0.0
C306 C 0.44579 0.45154 0.72071 0.0
C307 C 0.46289 0.48605 0.71519 0.0
C308 C 0.46808 0.4986 0.66012 0.0
C309 C 0.45641 0.47732 0.60934 0.0
C310 C 0.43984 0.44317 0.6133 0.0
H311 H 0.4918 0.44082 0.87883 0.0
C312 C 0.47395 0.46497 0.87326 0.0
H313 H 0.42754 0.49066 0.82278 0.0
H314 H 0.39257 0.32687 0.69823 0.0
H315 H 0.38377 0.30593 0.795 0.0
H316 H 0.39954 0.34608 0.88408 0.0
H317 H 0.42487 0.40723 0.87717 0.0
C318 C 0.44496 0.46618 0.82801 0.0
C319 C 0.43959 0.43938 0.77678 0.0
C320 C 0.42411 0.40403 0.78135 0.0
C321 C 0.41373 0.38131 0.72949 0.0
C322 C 0.39964 0.34567 0.73574 0.0
C323 C 0.39469 0.33325 0.79107 0.0
C324 C 0.40365 0.35583 0.84127 0.0
C325 C 0.41818 0.39086 0.83673 0.0
H326 H 0.66053 0.65497 0.47985 0.0
C327 C 0.67388 0.68169 0.47907 0.0
H328 H 0.68354 0.72489 0.42306 0.0
H329 H 0.6691 0.61151 0.20224 0.0
H330 H 0.73468 0.63095 0.21037 0.0
H331 H 0.763 0.67264 0.29207 0.0
H332 H 0.726 0.69524 0.36608 0.0
C333 C 0.671 0.69818 0.42665 0.0
C334 C 0.65206 0.6788 0.37153 0.0
C335 C 0.67386 0.66651 0.32804 0.0
C336 C 0.65763 0.64218 0.28124 0.0
C337 C 0.68025 0.62966 0.23906 0.0
C338 C 0.71783 0.64071 0.24309 0.0
C339 C 0.73376 0.66422 0.28907 0.0
C340 C 0.71221 0.67698 0.33127 0.0
H341 H 0.56913 0.62484 0.17491 0.0
C342 C 0.58149 0.59879 0.18937 0.0
H343 H 0.61999 0.5717 0.25312 0.0
H344 H 0.60018 0.7044 0.43878 0.0
H345 H 0.53417 0.6862 0.42927 0.0
H346 H 0.50681 0.64173 0.35107 0.0
H347 H 0.54491 0.61581 0.28111 0.0
C348 C 0.60666 0.59752 0.23961 0.0
C349 C 0.61968 0.63019 0.27789 0.0
C350 C 0.59691 0.64505 0.3183 0.0
C351 C 0.61302 0.66979 0.36468 0.0
C352 C 0.5896 0.68466 0.40396 0.0
C353 C 0.55166 0.67462 0.39875 0.0
C354 C 0.53622 0.64966 0.35459 0.0
C355 C 0.55844 0.63494 0.31473 0.0
H356 H 0.86855 0.14063 0.92269 0.0
C357 C 0.86355 0.16974 0.91601 0.0
H358 H 0.86938 0.21349 0.85964 0.0
H359 H 0.98755 0.07922 0.79821 0.0
H360 H 0.01831 0.08861 0.89953 0.0
H361 H 0.99352 0.13381 0.9662 0.0
H362 H 0.93721 0.16873 0.93263 0.0
C363 C 0.87322 0.18438 0.86716 0.0
C364 C 0.89172 0.16141 0.82425 0.0
C365 C 0.9266 0.14343 0.84338 0.0
C366 C 0.94275 0.11969 0.80355 0.0
C367 C 0.97543 0.09934 0.82549 0.0
C368 C 0.99321 0.10421 0.88374 0.0
C369 C 0.97913 0.12947 0.92134 0.0
C370 C 0.94638 0.14903 0.9016 0.0
H371 H 0.99195 0.13467 0.71454 0.0
C372 C 0.98129 0.1095 0.69114 0.0
H373 H 0.93562 0.07184 0.67764 0.0
H374 H 0.82493 0.19108 0.77288 0.0
H375 H 0.79609 0.18371 0.66996 0.0
H376 H 0.82666 0.14603 0.59944 0.0
H377 H 0.88616 0.11509 0.63149 0.0
C378 C 0.94717 0.09713 0.69936 0.0
C379 C 0.92633 0.11676 0.74297 0.0
C380 C 0.89173 0.1348 0.7237 0.0
C381 C 0.87431 0.15696 0.76438 0.0
C382 C 0.83953 0.17426 0.74385 0.0
C383 C 0.82267 0.17023 0.68491 0.0
C384 C 0.83989 0.149 0.64518 0.0
C385 C 0.87403 0.13145 0.66409 0.0
H386 H 0.39786 0.39151 0.39528 0.0
C387 C 0.36998 0.37926 0.38258 0.0
H388 H 0.32484 0.37196 0.31124 0.0
H389 H 0.43517 0.50809 0.24323 0.0
H390 H 0.40879 0.54363 0.31843 0.0
H391 H 0.36445 0.5154 0.37668 0.0
H392 H 0.34661 0.45125 0.36057 0.0
C393 C 0.35273 0.38331 0.3265 0.0
C394 C 0.37255 0.40248 0.28314 0.0
C395 C 0.38141 0.44038 0.29124 0.0
C396 C 0.4062 0.45692 0.2565 0.0
C397 C 0.41609 0.49429 0.26771 0.0
C398 C 0.40112 0.51501 0.31073 0.0
C399 C 0.3762 0.4991 0.34361 0.0
C400 C 0.36636 0.46224 0.33417 0.0
H401 H 0.42666 0.48486 0.1255 0.0
C402 C 0.45364 0.47362 0.14523 0.0
H403 H 0.48181 0.43694 0.20696 0.0
H404 H 0.35636 0.33094 0.24976 0.0
H405 H 0.3795 0.29647 0.17017 0.0
H406 H 0.42149 0.32548 0.1088 0.0
H407 H 0.44066 0.38925 0.12671 0.0
C408 C 0.45499 0.44906 0.18849 0.0
C409 C 0.42138 0.43569 0.21282 0.0
C410 C 0.40952 0.39883 0.20092 0.0
C411 C 0.38505 0.38219 0.23602 0.0
C412 C 0.37471 0.34496 0.22424 0.0
C413 C 0.38779 0.32488 0.17871 0.0
C414 C 0.41148 0.3412 0.14419 0.0
C415 C 0.42237 0.37772 0.15504 0.0
H416 H 0.1876 0.8697 0.96144 0.0
C417 C 0.16946 0.86906 0.99545 0.0
H418 H 0.11499 0.8798 0.016 0.0
H419 H 0.07673 1.00924 0.8409 0.0
H420 H 0.07198 0.03805 0.93644 0.0
H421 H 0.08955 1.00435 0.02846 0.0
H422 H 0.11151 0.94169 0.02561 0.0
C423 C 0.13355 0.88099 0.98271 0.0
C424 C 0.11969 0.89995 0.92629 0.0
C425 C 0.10696 0.93677 0.9289 0.0
C426 C 0.09776 0.95657 0.87594 0.0
C427 C 0.08491 0.99321 0.87985 0.0
C428 C 0.08187 0.01005 0.93436 0.0
C429 C 0.09168 0.99105 0.98614 0.0
C430 C 0.10418 0.95493 0.98377 0.0
H431 H 0.05113 0.94299 0.71709 0.0
C432 C 0.07292 0.96403 0.7219 0.0
H433 H 0.12232 0.98557 0.77364 0.0
H434 H 0.13358 0.8275 0.90379 0.0
H435 H 0.13778 0.79872 0.8079 0.0
H436 H 0.12667 0.83446 0.71702 0.0
H437 H 0.11047 0.89903 0.72126 0.0
C438 C 0.10115 0.96392 0.76847 0.0
C439 C 0.10198 0.93997 0.82043 0.0
C440 C 0.11225 0.90252 0.81731 0.0
C441 C 0.12031 0.88227 0.87017 0.0
C442 C 0.12887 0.84451 0.86544 0.0
C443 C 0.13105 0.8276 0.81063 0.0
C444 C 0.12469 0.84771 0.75943 0.0
C445 C 0.1154 0.88475 0.76246 0.0
loop_
_geom_bond_atom_site_label_1
_geom_bond_atom_site_label_2
_geom_bond_distance
_geom_bond_site_symmetry_2
_ccdc_geom_bond_type
H0 C5 0.929 1_556 S
H1 C10 0.931 . S
H2 C8 0.930 . S
N3 N4 1.234 . S
N3 C7 1.453 . S
N4 N3 1.234 . S
C5 H0 0.929 1_554 S
C5 C6 1.373 . S
C5 C7 1.368 . S
C6 C5 1.373 . S
C6 C10 1.397 . S
C7 N3 1.453 . S
C7 C5 1.368 . S
C7 C8 1.373 . S
C8 H2 0.930 . S
C8 C7 1.373 . S
C8 C9 1.371 . S
C9 C8 1.371 . S
C9 C10 1.383 . S
C10 H1 0.931 . S
C10 C6 1.397 . S
C10 C9 1.383 . S
H11 C16 0.929 . S
H12 C21 0.931 . S
H13 C19 0.930 . S
N14 N15 1.234 . S
N14 C18 1.453 . S
N15 N14 1.234 . S
C16 H11 0.929 . S
C16 C17 1.373 . S
C16 C18 1.368 . S
C17 C16 1.373 . S
C17 C21 1.397 . S
C18 N14 1.453 . S
C18 C16 1.368 . S
C18 C19 1.373 . S
C19 H13 0.930 . S
C19 C18 1.373 . S
C19 C20 1.371 . S
C20 C19 1.371 . S
C20 C21 1.383 . S
C21 H12 0.931 . S
C21 C17 1.397 . S
C21 C20 1.383 . S
H22 C27 0.929 . S
H23 C32 0.931 . S
H24 C30 0.930 . S
N25 N26 1.234 1_556 S
N25 C29 1.453 . S
N26 N25 1.234 1_554 S
C27 H22 0.929 . S
C27 C28 1.373 . S
C27 C29 1.368 . S
C28 C27 1.373 . S
C28 C32 1.397 1_556 S
C29 N25 1.453 . S
C29 C27 1.368 . S
C29 C30 1.373 1_556 S
C30 H24 0.930 . S
C30 C29 1.373 1_554 S
C30 C31 1.371 . S
C31 C30 1.371 . S
C31 C32 1.383 . S
C32 H23 0.931 . S
C32 C28 1.397 1_554 S
C32 C31 1.383 . S
H33 C38 0.929 . S
H34 C43 0.931 . S
H35 C41 0.930 . S
N36 N37 1.234 . S
N36 C40 1.453 . S
N37 N36 1.234 . S
C38 H33 0.929 . S
C38 C39 1.373 . S
C38 C40 1.368 . S
C39 C38 1.373 . S
C39 C43 1.397 . S
C40 N36 1.453 . S
C40 C38 1.368 . S
C40 C41 1.373 . S
C41 H35 0.930 . S
C41 C40 1.373 . S
C41 C42 1.371 . S
C42 C41 1.371 . S
C42 C43 1.383 . S
C43 H34 0.931 . S
C43 C39 1.397 . S
C43 C42 1.383 . S
O44 Mn45 2.163 1_655 S
O44 C58 1.244 . S
Mn45 O44 2.163 1_455 S
Mn45 O48 2.160 1_545 S
Mn45 O49 2.221 . S
Mn45 O51 2.163 1_455 S
Mn45 O53 2.160 1_545 S
Mn45 O63 2.221 1_445 S
O46 Mn47 2.087 1_545 S
O46 C58 1.256 . S
Mn47 O46 2.087 1_565 S
Mn47 O54 2.089 1_655 S
Mn47 O63 2.290 . S
Mn47 O64 2.251 . S
O48 Mn45 2.160 1_565 S
O48 C59 1.239 . S
O49 Mn45 2.221 . S
O49 Mn50 2.290 . S
O49 C60 1.278 . S
Mn50 O49 2.290 . S
Mn50 O52 2.089 . S
Mn50 O55 2.251 . S
Mn50 O56 2.087 . S
O51 Mn45 2.163 1_655 S
O51 C61 1.244 . S
O52 Mn50 2.089 . S
O52 C59 1.256 1_545 S
O53 Mn45 2.160 1_565 S
O53 C62 1.239 . S
O54 Mn47 2.089 1_455 S
O54 C62 1.256 . S
O55 Mn50 2.251 . S
O55 C60 1.241 . S
O56 Mn50 2.087 . S
O56 C61 1.256 1_455 S
C57 O63 1.278 . S
C57 O64 1.241 . S
C58 O44 1.244 . S
C58 O46 1.256 . S
C59 O48 1.239 . S
C59 O52 1.256 1_565 S
C60 O49 1.278 . S
C60 O55 1.241 . S
C61 O51 1.244 . S
C61 O56 1.256 1_655 S
C62 O53 1.239 . S
C62 O54 1.256 . S
O63 Mn45 2.221 1_665 S
O63 Mn47 2.290 . S
O63 C57 1.278 . S
O64 Mn47 2.251 . S
O64 C57 1.241 . S
O65 Mn66 2.163 . S
O65 C79 1.244 . S
Mn66 O65 2.163 . S
Mn66 O69 2.160 1_554 S
Mn66 O70 2.221 . S
Mn66 O72 2.163 1_554 S
Mn66 O74 2.160 . S
Mn66 O84 2.221 . S
O67 Mn68 2.087 . S
O67 C79 1.256 . S
Mn68 O67 2.087 . S
Mn68 O75 2.089 . S
Mn68 O84 2.290 . S
Mn68 O85 2.251 . S
O69 Mn66 2.160 1_556 S
O69 C80 1.239 . S
O70 Mn66 2.221 . S
O70 Mn71 2.290 1_554 S
O70 C81 1.278 . S
Mn71 O70 2.290 1_556 S
Mn71 O73 2.089 . S
Mn71 O76 2.251 . S
Mn71 O77 2.087 . S
O72 Mn66 2.163 1_556 S
O72 C82 1.244 . S
O73 Mn71 2.089 . S
O73 C80 1.256 . S
O74 Mn66 2.160 . S
O74 C83 1.239 . S
O75 Mn68 2.089 . S
O75 C83 1.256 . S
O76 Mn71 2.251 . S
O76 C81 1.241 1_556 S
O77 Mn71 2.087 . S
O77 C82 1.256 . S
C78 O84 1.278 . S
C78 O85 1.241 . S
C79 O65 1.244 . S
C79 O67 1.256 . S
C80 O69 1.239 . S
C80 O73 1.256 . S
C81 O70 1.278 . S
C81 O76 1.241 1_554 S
C82 O72 1.244 . S
C82 O77 1.256 . S
C83 O74 1.239 . S
C83 O75 1.256 . S
O84 Mn66 2.221 . S
O84 Mn68 2.290 . S
O84 C78 1.278 . S
O85 Mn68 2.251 . S
O85 C78 1.241 . S
H86 C87 0.951 . S
C87 H86 0.951 . S
C87 C93 1.265 . S
H88 C93 0.950 . S
H89 C97 0.949 . S
H90 C98 0.950 . S
H91 C99 0.951 . S
H92 C100 0.951 . S
C93 C87 1.265 . S
C93 H88 0.950 . S
C93 C94 1.478 . S
C94 C93 1.478 . S
C94 C95 1.397 . S
C94 C111 1.394 . S
C95 C94 1.397 . S
C95 C96 1.438 . S
C95 C100 1.429 . S
C96 C95 1.438 . S
C96 C97 1.428 . S
C96 C109 1.394 . S
C97 H89 0.949 . S
C97 C96 1.428 . S
C97 C98 1.345 . S
C98 H90 0.950 . S
C98 C97 1.345 . S
C98 C99 1.424 . S
C99 H91 0.951 . S
C99 C98 1.424 . S
C99 C100 1.347 . S
C100 H92 0.951 . S
C100 C95 1.429 . S
C100 C99 1.347 . S
H101 C102 0.951 . S
C102 H101 0.951 . S
C102 C108 1.265 . S
H103 C108 0.950 . S
H104 C112 0.949 . S
H105 C113 0.950 . S
H106 C114 0.951 . S
H107 C115 0.951 . S
C108 C102 1.265 . S
C108 H103 0.950 . S
C108 C109 1.478 . S
C109 C96 1.394 . S
C109 C108 1.478 . S
C109 C110 1.397 . S
C110 C109 1.397 . S
C110 C111 1.438 . S
C110 C115 1.429 . S
C111 C94 1.394 . S
C111 C110 1.438 . S
C111 C112 1.428 . S
C112 H104 0.949 . S
C112 C111 1.428 . S
C112 C113 1.345 . S
C113 H105 0.950 . S
C113 C112 1.345 . S
C113 C114 1.424 . S
C114 H106 0.951 . S
C114 C113 1.424 . S
C114 C115 1.347 . S
C115 H107 0.951 . S
C115 C110 1.429 . S
C115 C114 1.347 . S
H116 C117 0.951 . S
C117 H116 0.951 . S
C117 C123 1.265 . S
H118 C123 0.950 . S
H119 C127 0.949 . S
H120 C128 0.950 . S
H121 C129 0.951 . S
H122 C130 0.951 . S
C123 C117 1.265 . S
C123 H118 0.950 . S
C123 C124 1.478 . S
C124 C123 1.478 . S
C124 C125 1.397 . S
C124 C141 1.394 . S
C125 C124 1.397 . S
C125 C126 1.438 . S
C125 C130 1.429 1_554 S
C126 C125 1.438 . S
C126 C127 1.428 1_554 S
C126 C139 1.394 . S
C127 H119 0.949 . S
C127 C126 1.428 1_556 S
C127 C128 1.345 . S
C128 H120 0.950 . S
C128 C127 1.345 . S
C128 C129 1.424 . S
C129 H121 0.951 . S
C129 C128 1.424 . S
C129 C130 1.347 . S
C130 H122 0.951 . S
C130 C125 1.429 1_556 S
C130 C129 1.347 . S
H131 C132 0.951 . S
C132 H131 0.951 . S
C132 C138 1.265 . S
H133 C138 0.950 . S
H134 C142 0.949 . S
H135 C143 0.950 . S
H136 C144 0.951 . S
H137 C145 0.951 . S
C138 C132 1.265 . S
C138 H133 0.950 . S
C138 C139 1.478 . S
C139 C126 1.394 . S
C139 C138 1.478 . S
C139 C140 1.397 . S
C140 C139 1.397 . S
C140 C141 1.438 . S
C140 C145 1.429 . S
C141 C124 1.394 . S
C141 C140 1.438 . S
C141 C142 1.428 . S
C142 H134 0.949 . S
C142 C141 1.428 . S
C142 C143 1.345 . S
C143 H135 0.950 . S
C143 C142 1.345 . S
C143 C144 1.424 . S
C144 H136 0.951 . S
C144 C143 1.424 . S
C144 C145 1.347 . S
C145 H137 0.951 . S
C145 C140 1.429 . S
C145 C144 1.347 . S
H146 C147 0.951 . S
C147 H146 0.951 . S
C147 C153 1.265 . S
H148 C153 0.950 . S
H149 C157 0.949 . S
H150 C158 0.950 . S
H151 C159 0.951 . S
H152 C160 0.951 . S
C153 C147 1.265 . S
C153 H148 0.950 . S
C153 C154 1.478 . S
C154 C153 1.478 . S
C154 C155 1.397 . S
C154 C171 1.394 . S
C155 C154 1.397 . S
C155 C156 1.438 . S
C155 C160 1.429 . S
C156 C155 1.438 . S
C156 C157 1.428 . S
C156 C169 1.394 . S
C157 H149 0.949 . S
C157 C156 1.428 . S
C157 C158 1.345 . S
C158 H150 0.950 . S
C158 C157 1.345 . S
C158 C159 1.424 . S
C159 H151 0.951 . S
C159 C158 1.424 . S
C159 C160 1.347 . S
C160 H152 0.951 . S
C160 C155 1.429 . S
C160 C159 1.347 . S
H161 C162 0.951 . S
C162 H161 0.951 . S
C162 C168 1.265 . S
H163 C168 0.950 . S
H164 C172 0.949 . S
H165 C173 0.950 . S
H166 C174 0.951 . S
H167 C175 0.951 . S
C168 C162 1.265 . S
C168 H163 0.950 . S
C168 C169 1.478 . S
C169 C156 1.394 . S
C169 C168 1.478 . S
C169 C170 1.397 . S
C170 C169 1.397 . S
C170 C171 1.438 . S
C170 C175 1.429 . S
C171 C154 1.394 . S
C171 C170 1.438 . S
C171 C172 1.428 . S
C172 H164 0.949 . S
C172 C171 1.428 . S
C172 C173 1.345 . S
C173 H165 0.950 . S
C173 C172 1.345 . S
C173 C174 1.424 . S
C174 H166 0.951 . S
C174 C173 1.424 . S
C174 C175 1.347 . S
C175 H167 0.951 . S
C175 C170 1.429 . S
C175 C174 1.347 . S
H176 C177 0.951 . S
C177 H176 0.951 . S
C177 C183 1.265 . S
H178 C183 0.950 . S
H179 C187 0.949 . S
H180 C188 0.950 . S
H181 C189 0.951 . S
H182 C190 0.951 . S
C183 C177 1.265 . S
C183 H178 0.950 . S
C183 C184 1.478 . S
C184 C183 1.478 . S
C184 C185 1.397 . S
C184 C201 1.394 1_554 S
C185 C184 1.397 . S
C185 C186 1.438 . S
C185 C190 1.429 . S
C186 C185 1.438 . S
C186 C187 1.428 . S
C186 C199 1.394 . S
C187 H179 0.949 . S
C187 C186 1.428 . S
C187 C188 1.345 . S
C188 H180 0.950 . S
C188 C187 1.345 . S
C188 C189 1.424 . S
C189 H181 0.951 . S
C189 C188 1.424 . S
C189 C190 1.347 . S
C190 H182 0.951 . S
C190 C185 1.429 . S
C190 C189 1.347 . S
H191 C192 0.951 . S
C192 H191 0.951 . S
C192 C198 1.265 . S
H193 C198 0.950 . S
H194 C202 0.949 . S
H195 C203 0.950 . S
H196 C204 0.951 . S
H197 C205 0.951 . S
C198 C192 1.265 . S
C198 H193 0.950 . S
C198 C199 1.478 . S
C199 C186 1.394 . S
C199 C198 1.478 . S
C199 C200 1.397 1_554 S
C200 C199 1.397 1_556 S
C200 C201 1.438 . S
C200 C205 1.429 . S
C201 C184 1.394 1_556 S
C201 C200 1.438 . S
C201 C202 1.428 . S
C202 H194 0.949 . S
C202 C201 1.428 . S
C202 C203 1.345 . S
C203 H195 0.950 . S
C203 C202 1.345 . S
C203 C204 1.424 . S
C204 H196 0.951 . S
C204 C203 1.424 . S
C204 C205 1.347 . S
C205 H197 0.951 . S
C205 C200 1.429 . S
C205 C204 1.347 . S
H206 C207 0.951 . S
C207 H206 0.951 . S
C207 C213 1.265 . S
H208 C213 0.950 . S
H209 C217 0.949 . S
H210 C218 0.950 . S
H211 C219 0.951 . S
H212 C220 0.951 . S
C213 C207 1.265 . S
C213 H208 0.950 . S
C213 C214 1.478 . S
C214 C213 1.478 . S
C214 C215 1.397 . S
C214 C231 1.394 . S
C215 C214 1.397 . S
C215 C216 1.438 . S
C215 C220 1.429 . S
C216 C215 1.438 . S
C216 C217 1.428 . S
C216 C229 1.394 . S
C217 H209 0.949 . S
C217 C216 1.428 . S
C217 C218 1.345 . S
C218 H210 0.950 . S
C218 C217 1.345 . S
C218 C219 1.424 . S
C219 H211 0.951 . S
C219 C218 1.424 . S
C219 C220 1.347 . S
C220 H212 0.951 . S
C220 C215 1.429 . S
C220 C219 1.347 . S
H221 C222 0.951 . S
C222 H221 0.951 . S
C222 C228 1.265 . S
H223 C228 0.950 . S
H224 C232 0.949 . S
H225 C233 0.950 1_545 S
H226 C234 0.951 . S
H227 C235 0.951 1_545 S
C228 C222 1.265 . S
C228 H223 0.950 . S
C228 C229 1.478 . S
C229 C216 1.394 . S
C229 C228 1.478 . S
C229 C230 1.397 . S
C230 C229 1.397 . S
C230 C231 1.438 . S
C230 C235 1.429 . S
C231 C214 1.394 . S
C231 C230 1.438 . S
C231 C232 1.428 . S
C232 H224 0.949 . S
C232 C231 1.428 . S
C232 C233 1.345 . S
C233 H225 0.950 1_565 S
C233 C232 1.345 . S
C233 C234 1.424 1_565 S
C234 H226 0.951 . S
C234 C233 1.424 1_545 S
C234 C235 1.347 1_545 S
C235 H227 0.951 1_565 S
C235 C230 1.429 . S
C235 C234 1.347 1_565 S
H236 C237 0.951 . S
C237 H236 0.951 . S
C237 C243 1.265 . S
H238 C243 0.950 . S
H239 C247 0.949 . S
H240 C248 0.950 . S
H241 C249 0.951 . S
H242 C250 0.951 . S
C243 C237 1.265 . S
C243 H238 0.950 . S
C243 C244 1.478 . S
C244 C243 1.478 . S
C244 C245 1.397 . S
C244 C261 1.394 . S
C245 C244 1.397 . S
C245 C246 1.438 . S
C245 C250 1.429 . S
C246 C245 1.438 . S
C246 C247 1.428 . S
C246 C259 1.394 . S
C247 H239 0.949 . S
C247 C246 1.428 . S
C247 C248 1.345 . S
C248 H240 0.950 . S
C248 C247 1.345 . S
C248 C249 1.424 . S
C249 H241 0.951 . S
C249 C248 1.424 . S
C249 C250 1.347 . S
C250 H242 0.951 . S
C250 C245 1.429 . S
C250 C249 1.347 . S
H251 C252 0.951 . S
C252 H251 0.951 . S
C252 C258 1.265 . S
H253 C258 0.950 . S
H254 C262 0.949 . S
H255 C263 0.950 . S
H256 C264 0.951 . S
H257 C265 0.951 . S
C258 C252 1.265 . S
C258 H253 0.950 . S
C258 C259 1.478 . S
C259 C246 1.394 . S
C259 C258 1.478 . S
C259 C260 1.397 . S
C260 C259 1.397 . S
C260 C261 1.438 . S
C260 C265 1.429 . S
C261 C244 1.394 . S
C261 C260 1.438 . S
C261 C262 1.428 . S
C262 H254 0.949 . S
C262 C261 1.428 . S
C262 C263 1.345 . S
C263 H255 0.950 . S
C263 C262 1.345 . S
C263 C264 1.424 . S
C264 H256 0.951 . S
C264 C263 1.424 . S
C264 C265 1.347 . S
C265 H257 0.951 . S
C265 C260 1.429 . S
C265 C264 1.347 . S
H266 C267 0.951 . S
C267 H266 0.951 . S
C267 C273 1.265 . S
H268 C273 0.950 . S
H269 C277 0.949 . S
H270 C278 0.950 . S
H271 C279 0.951 . S
H272 C280 0.951 . S
C273 C267 1.265 . S
C273 H268 0.950 . S
C273 C274 1.478 . S
C274 C273 1.478 . S
C274 C275 1.397 . S
C274 C291 1.394 . S
C275 C274 1.397 . S
C275 C276 1.438 . S
C275 C280 1.429 . S
C276 C275 1.438 . S
C276 C277 1.428 . S
C276 C289 1.394 . S
C277 H269 0.949 . S
C277 C276 1.428 . S
C277 C278 1.345 . S
C278 H270 0.950 . S
C278 C277 1.345 . S
C278 C279 1.424 . S
C279 H271 0.951 . S
C279 C278 1.424 . S
C279 C280 1.347 . S
C280 H272 0.951 . S
C280 C275 1.429 . S
C280 C279 1.347 . S
H281 C282 0.951 . S
C282 H281 0.951 . S
C282 C288 1.265 . S
H283 C288 0.950 . S
H284 C292 0.949 . S
H285 C293 0.950 . S
H286 C294 0.951 . S
H287 C295 0.951 . S
C288 C282 1.265 . S
C288 H283 0.950 . S
C288 C289 1.478 . S
C289 C276 1.394 . S
C289 C288 1.478 . S
C289 C290 1.397 . S
C290 C289 1.397 . S
C290 C291 1.438 . S
C290 C295 1.429 . S
C291 C274 1.394 . S
C291 C290 1.438 . S
C291 C292 1.428 . S
C292 H284 0.949 . S
C292 C291 1.428 . S
C292 C293 1.345 . S
C293 H285 0.950 . S
C293 C292 1.345 . S
C293 C294 1.424 . S
C294 H286 0.951 . S
C294 C293 1.424 . S
C294 C295 1.347 . S
C295 H287 0.951 . S
C295 C290 1.429 . S
C295 C294 1.347 . S
H296 C297 0.951 . S
C297 H296 0.951 . S
C297 C303 1.265 . S
H298 C303 0.950 . S
H299 C307 0.949 . S
H300 C308 0.950 . S
H301 C309 0.951 . S
H302 C310 0.951 . S
C303 C297 1.265 . S
C303 H298 0.950 . S
C303 C304 1.478 . S
C304 C303 1.478 . S
C304 C305 1.397 . S
C304 C321 1.394 . S
C305 C304 1.397 . S
C305 C306 1.438 . S
C305 C310 1.429 . S
C306 C305 1.438 . S
C306 C307 1.428 . S
C306 C319 1.394 . S
C307 H299 0.949 . S
C307 C306 1.428 . S
C307 C308 1.345 . S
C308 H300 0.950 . S
C308 C307 1.345 . S
C308 C309 1.424 . S
C309 H301 0.951 . S
C309 C308 1.424 . S
C309 C310 1.347 . S
C310 H302 0.951 . S
C310 C305 1.429 . S
C310 C309 1.347 . S
H311 C312 0.951 . S
C312 H311 0.951 . S
C312 C318 1.265 . S
H313 C318 0.950 . S
H314 C322 0.949 . S
H315 C323 0.950 . S
H316 C324 0.951 . S
H317 C325 0.951 . S
C318 C312 1.265 . S
C318 H313 0.950 . S
C318 C319 1.478 . S
C319 C306 1.394 . S
C319 C318 1.478 . S
C319 C320 1.397 . S
C320 C319 1.397 . S
C320 C321 1.438 . S
C320 C325 1.429 . S
C321 C304 1.394 . S
C321 C320 1.438 . S
C321 C322 1.428 . S
C322 H314 0.949 . S
C322 C321 1.428 . S
C322 C323 1.345 . S
C323 H315 0.950 . S
C323 C322 1.345 . S
C323 C324 1.424 . S
C324 H316 0.951 . S
C324 C323 1.424 . S
C324 C325 1.347 . S
C325 H317 0.951 . S
C325 C320 1.429 . S
C325 C324 1.347 . S
H326 C327 0.951 . S
C327 H326 0.951 . S
C327 C333 1.265 . S
H328 C333 0.950 . S
H329 C337 0.949 . S
H330 C338 0.950 . S
H331 C339 0.951 . S
H332 C340 0.951 . S
C333 C327 1.265 . S
C333 H328 0.950 . S
C333 C334 1.478 . S
C334 C333 1.478 . S
C334 C335 1.397 . S
C334 C351 1.394 . S
C335 C334 1.397 . S
C335 C336 1.438 . S
C335 C340 1.429 . S
C336 C335 1.438 . S
C336 C337 1.428 . S
C336 C349 1.394 . S
C337 H329 0.949 . S
C337 C336 1.428 . S
C337 C338 1.345 . S
C338 H330 0.950 . S
C338 C337 1.345 . S
C338 C339 1.424 . S
C339 H331 0.951 . S
C339 C338 1.424 . S
C339 C340 1.347 . S
C340 H332 0.951 . S
C340 C335 1.429 . S
C340 C339 1.347 . S
H341 C342 0.951 . S
C342 H341 0.951 . S
C342 C348 1.265 . S
H343 C348 0.950 . S
H344 C352 0.949 . S
H345 C353 0.950 . S
H346 C354 0.951 . S
H347 C355 0.951 . S
C348 C342 1.265 . S
C348 H343 0.950 . S
C348 C349 1.478 . S
C349 C336 1.394 . S
C349 C348 1.478 . S
C349 C350 1.397 . S
C350 C349 1.397 . S
C350 C351 1.438 . S
C350 C355 1.429 . S
C351 C334 1.394 . S
C351 C350 1.438 . S
C351 C352 1.428 . S
C352 H344 0.949 . S
C352 C351 1.428 . S
C352 C353 1.345 . S
C353 H345 0.950 . S
C353 C352 1.345 . S
C353 C354 1.424 . S
C354 H346 0.951 . S
C354 C353 1.424 . S
C354 C355 1.347 . S
C355 H347 0.951 . S
C355 C350 1.429 . S
C355 C354 1.347 . S
H356 C357 0.951 . S
C357 H356 0.951 . S
C357 C363 1.265 . S
H358 C363 0.950 . S
H359 C367 0.949 . S
H360 C368 0.953 . S
H361 C369 0.951 1_455 S
H362 C370 0.951 . S
C363 C357 1.265 . S
C363 H358 0.950 . S
C363 C364 1.478 . S
C364 C363 1.478 . S
C364 C365 1.397 . S
C364 C381 1.394 . S
C365 C364 1.397 . S
C365 C366 1.438 . S
C365 C370 1.429 . S
C366 C365 1.438 . S
C366 C367 1.428 . S
C366 C379 1.394 . S
C367 H359 0.949 . S
C367 C366 1.428 . S
C367 C368 1.343 1_655 S
C368 H360 0.953 . S
C368 C367 1.343 1_455 S
C368 C369 1.423 1_455 S
C369 H361 0.951 1_655 S
C369 C368 1.423 1_655 S
C369 C370 1.347 . S
C370 H362 0.951 . S
C370 C365 1.429 . S
C370 C369 1.347 . S
H371 C372 0.951 . S
C372 H371 0.951 . S
C372 C378 1.265 . S
H373 C378 0.950 . S
H374 C382 0.949 . S
H375 C383 0.950 . S
H376 C384 0.951 . S
H377 C385 0.951 . S
C378 C372 1.265 . S
C378 H373 0.950 . S
C378 C379 1.478 . S
C379 C366 1.394 . S
C379 C378 1.478 . S
C379 C380 1.397 . S
C380 C379 1.397 . S
C380 C381 1.438 . S
C380 C385 1.429 . S
C381 C364 1.394 . S
C381 C380 1.438 . S
C381 C382 1.428 . S
C382 H374 0.949 . S
C382 C381 1.428 . S
C382 C383 1.345 . S
C383 H375 0.950 . S
C383 C382 1.345 . S
C383 C384 1.424 . S
C384 H376 0.951 . S
C384 C383 1.424 . S
C384 C385 1.347 . S
C385 H377 0.951 . S
C385 C380 1.429 . S
C385 C384 1.347 . S
H386 C387 0.951 . S
C387 H386 0.951 . S
C387 C393 1.265 . S
H388 C393 0.950 . S
H389 C397 0.949 . S
H390 C398 0.950 . S
H391 C399 0.951 . S
H392 C400 0.951 . S
C393 C387 1.265 . S
C393 H388 0.950 . S
C393 C394 1.478 . S
C394 C393 1.478 . S
C394 C395 1.397 . S
C394 C411 1.394 . S
C395 C394 1.397 . S
C395 C396 1.438 . S
C395 C400 1.429 . S
C396 C395 1.438 . S
C396 C397 1.428 . S
C396 C409 1.394 . S
C397 H389 0.949 . S
C397 C396 1.428 . S
C397 C398 1.345 . S
C398 H390 0.950 . S
C398 C397 1.345 . S
C398 C399 1.424 . S
C399 H391 0.951 . S
C399 C398 1.424 . S
C399 C400 1.347 . S
C400 H392 0.951 . S
C400 C395 1.429 . S
C400 C399 1.347 . S
H401 C402 0.951 . S
C402 H401 0.951 . S
C402 C408 1.265 . S
H403 C408 0.950 . S
H404 C412 0.949 . S
H405 C413 0.950 . S
H406 C414 0.951 . S
H407 C415 0.951 . S
C408 C402 1.265 . S
C408 H403 0.950 . S
C408 C409 1.478 . S
C409 C396 1.394 . S
C409 C408 1.478 . S
C409 C410 1.397 . S
C410 C409 1.397 . S
C410 C411 1.438 . S
C410 C415 1.429 . S
C411 C394 1.394 . S
C411 C410 1.438 . S
C411 C412 1.428 . S
C412 H404 0.949 . S
C412 C411 1.428 . S
C412 C413 1.345 . S
C413 H405 0.950 . S
C413 C412 1.345 . S
C413 C414 1.424 . S
C414 H406 0.951 . S
C414 C413 1.424 . S
C414 C415 1.347 . S
C415 H407 0.951 . S
C415 C410 1.429 . S
C415 C414 1.347 . S
H416 C417 0.951 . S
C417 H416 0.951 . S
C417 C423 1.265 . S
H418 C423 0.950 . S
H419 C427 0.949 1_545 S
H420 C428 0.950 . S
H421 C429 0.951 . S
H422 C430 0.951 . S
C423 C417 1.265 . S
C423 H418 0.950 . S
C423 C424 1.478 . S
C424 C423 1.478 . S
C424 C425 1.397 . S
C424 C441 1.394 . S
C425 C424 1.397 . S
C425 C426 1.438 . S
C425 C430 1.429 . S
C426 C425 1.438 . S
C426 C427 1.428 . S
C426 C439 1.394 . S
C427 H419 0.949 1_565 S
C427 C426 1.428 . S
C427 C428 1.345 1_565 S
C428 H420 0.950 . S
C428 C427 1.345 1_545 S
C428 C429 1.424 . S
C429 H421 0.951 . S
C429 C428 1.424 . S
C429 C430 1.347 1_545 S
C430 H422 0.951 . S
C430 C425 1.429 . S
C430 C429 1.347 1_565 S
H431 C432 0.951 . S
C432 H431 0.951 . S
C432 C438 1.265 . S
H433 C438 0.950 . S
H434 C442 0.949 . S
H435 C443 0.950 . S
H436 C444 0.951 . S
H437 C445 0.951 . S
C438 C432 1.265 . S
C438 H433 0.950 . S
C438 C439 1.478 . S
C439 C426 1.394 . S
C439 C438 1.478 . S
C439 C440 1.397 . S
C440 C439 1.397 . S
C440 C441 1.438 . S
C440 C445 1.429 . S
C441 C424 1.394 . S
C441 C440 1.438 . S
C441 C442 1.428 . S
C442 H434 0.949 . S
C442 C441 1.428 . S
C442 C443 1.345 . S
C443 H435 0.950 . S
C443 C442 1.345 . S
C443 C444 1.424 . S
C444 H436 0.951 . S
C444 C443 1.424 . S
C444 C445 1.347 . S
C445 H437 0.951 . S
C445 C440 1.429 . S
C445 C444 1.347 . S
C102 C60 1.184 . S
C87 N37 1.437 . S
C117 N4 1.453 . S
C132 C81 1.258 . S
C147 N15 1.590 . S
C162 C57 1.397 . S
C177 N26 1.587 . S
C192 C78 1.387 . S
C222 C62 1.458 . S
C207 C9 1.522 . S
C252 C82 1.571 . S
C237 C17 1.584 . S
C267 C31 1.597 . S
C282 C58 1.561 . S
C297 C42 1.528 . S
C312 C80 1.423 . S
C342 C79 1.437 . S
C327 C20 1.475 . S
C372 C61 1.409 . S
C357 C28 1.513 . S
C402 C83 1.445 . S
C387 C39 1.431 . S
C417 C6 1.449 1_556 S
C432 C59 1.390 . S
