# Generated by pormake.
# Topology pth, (4,4)-cn, num edge types: 1
# Building blocks:
#     Node 0, Type 0, BuildingBlock: GALJAG_clean_sbu_0, # of connection points: 4
#     Node 1, Type 0, BuildingBlock: GALJAG_clean_sbu_0, # of connection points: 4
#     Node 2, Type 0, BuildingBlock: GALJAG_clean_sbu_0, # of connection points: 4
#     Node 3, Type 1, BuildingBlock: NAHDIM_clean_linker_0, # of connection points: 4
#     Node 4, Type 1, BuildingBlock: NAHDIM_clean_linker_0, # of connection points: 4
#     Node 5, Type 1, BuildingBlock: NAHDIM_clean_linker_0, # of connection points: 4
#     Edge 6, Type (0, 1), None
#     Edge 7, Type (0, 1), None
#     Edge 8, Type (0, 1), None
#     Edge 9, Type (0, 1), None
#     Edge 10, Type (0, 1), None
#     Edge 11, Type (0, 1), None
#     Edge 12, Type (0, 1), None
#     Edge 13, Type (0, 1), None
#     Edge 14, Type (0, 1), None
#     Edge 15, Type (0, 1), None
#     Edge 16, Type (0, 1), None
#     Edge 17, Type (0, 1), None
# Relax obj value: 0.025
# Max RMSD: 0.070
# Mean RMSD: 0.066
data_MOF--net-pth--node1-GALJAG_clean_sbu_0--node2-NAHDIM_clean_linker_0--edge1-none
_symmetry_space_group_name_H-M    P1
_symmetry_Int_Tables_number       1
_symmetry_cell_setting            triclinic
loop_
_symmetry_equiv_pos_as_xyz
'x, y, z'
_cell_length_a     19.496154
_cell_length_b     19.525553
_cell_length_c     47.863337
_cell_angle_alpha  89.610373
_cell_angle_beta   91.173141
_cell_angle_gamma 119.84788
loop_
_atom_site_label
_atom_site_type_symbol
_atom_site_fract_x
_atom_site_fract_y
_atom_site_fract_z
_atom_type_partial_charge
In0 In 0.01316 0.02742 0.0709 0.0
O1 O 0.05305 0.1329 0.10027 0.0
O2 O 0.93727 0.03418 0.10473 0.0
C3 C 0.88161 0.95205 0.039 0.0
C4 C 0.11296 0.10165 0.029 0.0
C5 C 0.06305 0.94685 0.10289 0.0
O6 O 0.92224 0.92062 0.04627 0.0
O7 O 0.90728 0.02151 0.04779 0.0
O8 O 0.99209 0.9177 0.09457 0.0
O9 O 0.10917 0.01624 0.09475 0.0
C10 C 0.98922 0.10118 0.11356 0.0
O11 O 0.08227 0.13419 0.04277 0.0
O12 O 0.09547 0.03332 0.03701 0.0
In13 In 0.07413 0.04563 0.41493 0.0
O14 O 0.15473 0.17901 0.41112 0.0
O15 O 0.04576 0.12457 0.38799 0.0
C16 C 0.19636 0.02059 0.40549 0.0
C17 C 0.02619 0.05983 0.46605 0.0
C18 C 0.96165 0.91683 0.38803 0.0
O19 O 0.17937 0.06221 0.38978 0.0
O20 O 0.15313 0.99288 0.42656 0.0
O21 O 0.98657 0.91317 0.41221 0.0
O22 O 0.99281 0.98505 0.37762 0.0
C23 C 0.10842 0.18743 0.39447 0.0
O24 O 0.98011 0.03477 0.4451 0.0
O25 O 0.09628 0.07621 0.46144 0.0
In26 In 0.03188 0.02189 0.72487 0.0
O27 O 0.01106 0.00744 0.77184 0.0
O28 O 0.99225 0.90711 0.74846 0.0
C29 C 0.07962 0.97316 0.68074 0.0
C30 C 0.88809 0.00478 0.71422 0.0
C31 C 0.16364 0.1639 0.73114 0.0
O32 O 0.08438 0.95273 0.70545 0.0
O33 O 0.05084 0.01828 0.6782 0.0
O34 O 0.10188 0.1556 0.71898 0.0
O35 O 0.15786 0.10144 0.74122 0.0
C36 C 0.99021 0.93503 0.77188 0.0
O37 O 0.94112 0.06343 0.72757 0.0
O38 O 0.90844 0.95685 0.70555 0.0
C39 C 0.83162 0.84663 0.36298 0.0
C40 C 0.90677 0.84491 0.37141 0.0
C41 C 0.96109 0.78744 0.34012 0.0
C42 C 0.03707 0.80851 0.33161 0.0
C43 C 0.05512 0.75102 0.32288 0.0
C44 C 0.99417 0.67109 0.3212 0.0
C45 C 0.91695 0.64952 0.32986 0.0
C46 C 0.90147 0.70806 0.33957 0.0
C47 C 0.13885 0.77603 0.3149 0.0
C48 C 0.85034 0.56507 0.32816 0.0
C49 C 0.17015 0.26709 0.35276 0.0
C50 C 0.13047 0.26424 0.38049 0.0
C51 C 0.0555 0.32847 0.36447 0.0
C52 C 0.98097 0.31227 0.35465 0.0
C53 C 0.97108 0.36914 0.33992 0.0
C54 C 0.03779 0.44394 0.33489 0.0
C55 C 0.11249 0.46263 0.34643 0.0
C56 C 0.1205 0.40485 0.36138 0.0
C57 C 0.89012 0.34809 0.3286 0.0
C58 C 0.1844 0.54253 0.34192 0.0
C59 C 0.03802 0.27396 0.15664 0.0
C60 C 0.96948 0.26658 0.16874 0.0
C61 C 0.97113 0.33056 0.18243 0.0
C62 C 0.04316 0.40289 0.18474 0.0
C63 C 0.11263 0.41017 0.17317 0.0
C64 C 0.10892 0.34558 0.15908 0.0
C65 C 0.8954 0.32104 0.19407 0.0
C66 C 0.19053 0.48627 0.17549 0.0
C67 C 0.09954 0.94546 0.1524 0.0
C68 C 0.08873 0.90623 0.12369 0.0
C69 C 0.03518 0.76894 0.13903 0.0
C70 C 0.96465 0.69853 0.14335 0.0
C71 C 0.96326 0.63821 0.15981 0.0
C72 C 0.03456 0.64891 0.17203 0.0
C73 C 0.10679 0.71838 0.16663 0.0
C74 C 0.10647 0.77769 0.15009 0.0
C75 C 0.88549 0.56417 0.16487 0.0
C76 C 0.18405 0.73065 0.17893 0.0
C77 C 0.00971 0.6111 0.30852 0.0
C78 C 0.01816 0.55828 0.32616 0.0
C79 C 0.03088 0.49936 0.31528 0.0
C80 C 0.03581 0.49279 0.28607 0.0
C81 C 0.04816 0.43383 0.27442 0.0
C82 C 0.05118 0.42683 0.24563 0.0
C83 C 0.04301 0.47912 0.22739 0.0
C84 C 0.04432 0.47169 0.19807 0.0
C85 C 0.04103 0.52753 0.18058 0.0
C86 C 0.03353 0.58939 0.19156 0.0
C87 C 0.02674 0.59488 0.22068 0.0
C88 C 0.01354 0.65326 0.23218 0.0
C89 C 0.00637 0.65773 0.26085 0.0
C90 C 0.01477 0.60569 0.27924 0.0
C91 C 0.02802 0.54639 0.26803 0.0
C92 C 0.03279 0.54024 0.23869 0.0
C93 C 0.966 0.0881 0.16448 0.0
C94 C 0.97563 0.13831 0.13851 0.0
O95 O 0.94608 0.84527 0.34765 0.0
O96 O 0.03134 0.82717 0.12467 0.0
O97 O 0.03855 0.2141 0.14246 0.0
O98 O 0.06207 0.26816 0.37598 0.0
H99 H 0.89038 0.79149 0.38438 0.0
H100 H 0.7913 0.79259 0.35084 0.0
H101 H 0.84584 0.89905 0.34985 0.0
H102 H 0.80034 0.84837 0.38188 0.0
H103 H 0.08243 0.87026 0.33208 0.0
H104 H 0.84234 0.69236 0.34581 0.0
H105 H 0.15721 0.73488 0.32387 0.0
H106 H 0.18137 0.83694 0.32211 0.0
H107 H 0.14224 0.77424 0.29183 0.0
H108 H 0.7925 0.55912 0.3336 0.0
H109 H 0.86308 0.52817 0.34274 0.0
H110 H 0.84561 0.54142 0.30673 0.0
H111 H 0.17217 0.31318 0.3945 0.0
H112 H 0.22205 0.2589 0.35655 0.0
H113 H 0.19174 0.32481 0.34227 0.0
H114 H 0.12771 0.21988 0.33835 0.0
H115 H 0.93087 0.25367 0.35766 0.0
H116 H 0.17793 0.41908 0.3699 0.0
H117 H 0.88922 0.3433 0.30548 0.0
H118 H 0.87651 0.39537 0.33376 0.0
H119 H 0.84303 0.29119 0.33704 0.0
H120 H 0.23778 0.54888 0.35309 0.0
H121 H 0.17283 0.58965 0.3492 0.0
H122 H 0.19673 0.55173 0.31924 0.0
H123 H 0.91954 0.13851 0.13416 0.0
H124 H 0.91412 0.21154 0.16751 0.0
H125 H 0.16157 0.35073 0.14984 0.0
H126 H 0.89984 0.3239 0.21723 0.0
H127 H 0.84291 0.26395 0.18788 0.0
H128 H 0.88586 0.36984 0.18678 0.0
H129 H 0.24072 0.47947 0.16839 0.0
H130 H 0.2022 0.50765 0.19747 0.0
H131 H 0.18766 0.53216 0.16252 0.0
H132 H 0.14572 0.91291 0.11664 0.0
H133 H 0.14396 0.00938 0.15134 0.0
H134 H 0.12097 0.91854 0.16829 0.0
H135 H 0.04256 0.93879 0.15945 0.0
H136 H 0.91014 0.69196 0.13442 0.0
H137 H 0.16187 0.83101 0.14631 0.0
H138 H 0.8727 0.55855 0.18753 0.0
H139 H 0.88934 0.51161 0.15852 0.0
H140 H 0.83555 0.56399 0.15321 0.0
H141 H 0.23566 0.7861 0.17156 0.0
H142 H 0.1923 0.68013 0.17335 0.0
H143 H 0.18262 0.73284 0.20208 0.0
H144 H 0.01423 0.5627 0.34859 0.0
H145 H 0.05512 0.39201 0.28741 0.0
H146 H 0.06036 0.38014 0.23782 0.0
H147 H 0.04341 0.52228 0.1581 0.0
H148 H 0.00754 0.69555 0.21914 0.0
H149 H 0.99479 0.70306 0.26838 0.0
H150 H 0.02028 0.08411 0.16846 0.0
H151 H 0.91474 0.02756 0.16166 0.0
H152 H 0.95533 0.1147 0.18313 0.0
C153 C 0.04663 0.91041 0.6336 0.0
C154 C 0.1104 0.94925 0.65651 0.0
C155 C 0.24282 0.02339 0.63651 0.0
C156 C 0.30752 0.0993 0.63358 0.0
C157 C 0.38041 0.11101 0.62433 0.0
C158 C 0.38843 0.04486 0.61782 0.0
C159 C 0.32284 0.96777 0.62029 0.0
C160 C 0.25045 0.9578 0.62934 0.0
C161 C 0.44886 0.19397 0.62153 0.0
C162 C 0.32921 0.89587 0.6133 0.0
C163 C 0.7635 0.96663 0.73876 0.0
C164 C 0.80507 0.98906 0.71064 0.0
C165 C 0.75043 0.05754 0.6829 0.0
C166 C 0.67859 0.98942 0.67572 0.0
C167 C 0.62607 0.9927 0.65607 0.0
C168 C 0.64426 0.066 0.64399 0.0
C169 C 0.71382 0.13556 0.65254 0.0
C170 C 0.76646 0.13018 0.67169 0.0
C171 C 0.55159 0.91734 0.64795 0.0
C172 C 0.7335 0.21519 0.64094 0.0
C173 C 0.89424 0.10797 0.49139 0.0
C174 C 0.82866 0.03116 0.48939 0.0
C175 C 0.75149 0.01773 0.49296 0.0
C176 C 0.73963 0.08241 0.49798 0.0
C177 C 0.80497 0.16011 0.49778 0.0
C178 C 0.88139 0.17173 0.49456 0.0
C179 C 0.68285 0.93425 0.49241 0.0
C180 C 0.79449 0.23077 0.50223 0.0
C181 C 0.23435 0.95023 0.37172 0.0
C182 C 0.25934 0.00113 0.39816 0.0
C183 C 0.3366 0.98356 0.43594 0.0
C184 C 0.34822 0.9254 0.44857 0.0
C185 C 0.41328 0.94531 0.46648 0.0
C186 C 0.46772 0.02575 0.47214 0.0
C187 C 0.45695 0.08519 0.4592 0.0
C188 C 0.39106 0.06355 0.44137 0.0
C189 C 0.42246 0.88027 0.48008 0.0
C190 C 0.51334 0.17141 0.46515 0.0
C191 C 0.46533 0.05608 0.60838 0.0
C192 C 0.52078 0.06299 0.62876 0.0
C193 C 0.59232 0.06848 0.62138 0.0
C194 C 0.61026 0.06913 0.59285 0.0
C195 C 0.68152 0.07424 0.58466 0.0
C196 C 0.69862 0.07491 0.55658 0.0
C197 C 0.64438 0.06867 0.53551 0.0
C198 C 0.66115 0.06879 0.50687 0.0
C199 C 0.6036 0.05692 0.48651 0.0
C200 C 0.53002 0.04663 0.49409 0.0
C201 C 0.51427 0.05115 0.52253 0.0
C202 C 0.44233 0.04464 0.53074 0.0
C203 C 0.42676 0.04772 0.55877 0.0
C204 C 0.4818 0.05582 0.57977 0.0
C205 C 0.55473 0.06275 0.57199 0.0
C206 C 0.57133 0.06131 0.54331 0.0
C207 C 0.06698 0.10677 0.51556 0.0
C208 C -0.00066 0.07211 0.49384 0.0
O209 O 0.1745 0.01645 0.64608 0.0
O210 O 0.27075 0.95958 0.41958 0.0
O211 O 0.97054 0.1239 0.49043 0.0
O212 O 0.80576 0.0558 0.70026 0.0
H213 H 0.12795 0.90635 0.6644 0.0
H214 H 0.06978 0.89144 0.61605 0.0
H215 H 0.02831 0.9524 0.6254 0.0
H216 H 0.99406 0.85744 0.64193 0.0
H217 H 0.30086 0.14955 0.63886 0.0
H218 H 0.20025 0.89873 0.63053 0.0
H219 H 0.49783 0.20242 0.63595 0.0
H220 H 0.43212 0.23926 0.62632 0.0
H221 H 0.4716 0.20342 0.59993 0.0
H222 H 0.27428 0.83988 0.618 0.0
H223 H 0.37925 0.8972 0.62525 0.0
H224 H 0.34163 0.89635 0.59075 0.0
H225 H 0.77455 0.93837 0.69592 0.0
H226 H 0.76269 0.91307 0.7472 0.0
H227 H 0.7014 0.95346 0.73612 0.0
H228 H 0.79418 0.01571 0.75409 0.0
H229 H 0.66296 0.9331 0.68507 0.0
H230 H 0.82114 0.18273 0.6777 0.0
H231 H 0.54566 0.91091 0.62486 0.0
H232 H 0.49946 0.91978 0.65557 0.0
H233 H 0.55042 0.86414 0.65691 0.0
H234 H 0.78251 0.26437 0.6529 0.0
H235 H 0.68068 0.22272 0.64123 0.0
H236 H 0.75151 0.21918 0.61888 0.0
H237 H 0.95401 0.01402 0.50202 0.0
H238 H 0.8369 0.98136 0.48534 0.0
H239 H 0.93202 0.23092 0.49538 0.0
H240 H 0.65305 0.92005 0.51288 0.0
H241 H 0.70159 0.89028 0.48796 0.0
H242 H 0.63875 0.92872 0.47623 0.0
H243 H 0.84878 0.28711 0.49727 0.0
H244 H 0.77994 0.23284 0.5244 0.0
H245 H 0.74458 0.22571 0.48906 0.0
H246 H 0.31441 0.0565 0.393 0.0
H247 H 0.22566 0.98204 0.35387 0.0
H248 H 0.17842 0.89388 0.3751 0.0
H249 H 0.28105 0.9362 0.36615 0.0
H250 H 0.30552 0.86392 0.44444 0.0
H251 H 0.38126 0.10921 0.43257 0.0
H252 H 0.41598 0.88181 0.50303 0.0
H253 H 0.48253 0.88962 0.47633 0.0
H254 H 0.37795 0.82085 0.47213 0.0
H255 H 0.50084 0.21068 0.4517 0.0
H256 H 0.57516 0.18524 0.46188 0.0
H257 H 0.50873 0.18438 0.48736 0.0
H258 H 0.50699 0.0615 0.65069 0.0
H259 H 0.72522 0.07812 0.59984 0.0
H260 H 0.75464 0.07936 0.55166 0.0
H261 H 0.6158 0.05474 0.46463 0.0
H262 H 0.39722 0.03741 0.51558 0.0
H263 H 0.37057 0.04278 0.56379 0.0
H264 H 0.11525 0.16527 0.5087 0.0
H265 H 0.0911 0.06633 0.51893 0.0
H266 H 0.04472 0.11453 0.5358 0.0
C267 C 0.00688 0.91519 0.82257 0.0
C268 C 0.95327 0.88313 0.7966 0.0
C269 C 0.81188 0.81691 0.80841 0.0
C270 C 0.74444 0.82467 0.80675 0.0
C271 C 0.67028 0.76289 0.81463 0.0
C272 C 0.66363 0.69148 0.8245 0.0
C273 C 0.73136 0.68249 0.82577 0.0
C274 C 0.80501 0.74559 0.81804 0.0
C275 C 0.5995 0.77474 0.81324 0.0
C276 C 0.72634 0.60698 0.83616 0.0
C277 C 0.25879 0.28436 0.70523 0.0
C278 C 0.23875 0.24182 0.73338 0.0
C279 C 0.28732 0.34125 0.7708 0.0
C280 C 0.34758 0.32954 0.78237 0.0
C281 C 0.40502 0.38536 0.80072 0.0
C282 C 0.40154 0.45366 0.80794 0.0
C283 C 0.34042 0.46514 0.79665 0.0
C284 C 0.28371 0.40833 0.77839 0.0
C285 C 0.46862 0.37069 0.81285 0.0
C286 C 0.33469 0.53703 0.80412 0.0
C287 C 0.22941 0.27454 0.98546 0.0
C288 C 0.29545 0.27331 0.97473 0.0
C289 C 0.3551 0.33941 0.96119 0.0
C290 C 0.34811 0.40773 0.9579 0.0
C291 C 0.28122 0.40882 0.96819 0.0
C292 C 0.22281 0.34213 0.98194 0.0
C293 C 0.42626 0.33658 0.95075 0.0
C294 C 0.27192 0.48068 0.96489 0.0
C295 C 0.83865 0.94921 0.99 0.0
C296 C 0.81258 0.91301 0.01912 0.0
C297 C 0.72157 0.77581 0.00493 0.0
C298 C 0.71836 0.70398 -0.00016 0.0
C299 C 0.65675 0.64503 0.9837 0.0
C300 C 0.59644 0.65832 0.97279 0.0
C301 C 0.59661 0.72891 0.97932 0.0
C302 C 0.65934 0.78717 -0.00468 0.0
C303 C 0.65766 0.56986 0.9774 0.0
C304 C 0.53199 0.74384 0.96851 0.0
C305 C 0.58794 0.62928 0.83618 0.0
C306 C 0.53045 0.57345 0.81803 0.0
C307 C 0.45988 0.5114 0.82824 0.0
C308 C 0.44644 0.50394 0.85733 0.0
C309 C 0.37728 0.4409 0.8684 0.0
C310 C 0.36584 0.43293 0.89712 0.0
C311 C 0.42275 0.48807 0.91584 0.0
C312 C 0.41319 0.47931 0.94509 0.0
C313 C 0.46975 0.5364 0.96308 0.0
C314 C 0.53711 0.60144 0.95267 0.0
C315 C 0.54915 0.61011 0.92356 0.0
C316 C 0.61774 0.67373 0.91252 0.0
C317 C 0.63016 0.68056 0.88393 0.0
C318 C 0.57445 0.62412 0.86522 0.0
C319 C 0.50397 0.56066 0.87584 0.0
C320 C 0.49165 0.55324 0.90508 0.0
C321 C 0.13286 0.0866 0.97883 0.0
C322 C 0.16568 0.14017 0.00468 0.0
O323 O 0.88194 0.88025 0.80114 0.0
O324 O 0.78658 0.83286 0.01853 0.0
O325 O 0.17102 0.21245 -0.00071 0.0
O326 O 0.23016 0.28836 0.75316 0.0
H327 H 0.94459 0.82391 0.79139 0.0
H328 H 0.979 0.8747 0.84043 0.0
H329 H 0.01664 0.97452 0.82827 0.0
H330 H 0.06493 0.91946 0.81877 0.0
H331 H 0.75038 0.88007 0.79954 0.0
H332 H 0.85676 0.73908 0.82024 0.0
H333 H 0.55219 0.7281 0.79994 0.0
H334 H 0.61427 0.83341 0.80465 0.0
H335 H 0.57545 0.76913 0.83449 0.0
H336 H 0.78152 0.60527 0.8324 0.0
H337 H 0.67601 0.55517 0.82574 0.0
H338 H 0.71548 0.60141 0.85895 0.0
H339 H 0.28708 0.22963 0.73899 0.0
H340 H 0.26391 0.24684 0.68897 0.0
H341 H 0.31629 0.34021 0.70704 0.0
H342 H 0.21254 0.29883 0.69857 0.0
H343 H 0.34918 0.27618 0.77793 0.0
H344 H 0.2364 0.41636 0.76971 0.0
H345 H 0.46388 0.36631 0.83595 0.0
H346 H 0.52784 0.4212 0.80804 0.0
H347 H 0.46452 0.31568 0.80463 0.0
H348 H 0.28491 0.53846 0.79294 0.0
H349 H 0.39072 0.59138 0.79898 0.0
H350 H 0.32632 0.53787 0.82697 0.0
H351 H 0.22427 0.14734 0.01069 0.0
H352 H 0.30152 0.22145 0.97691 0.0
H353 H 0.17162 0.34254 0.99016 0.0
H354 H 0.42829 0.34194 0.92764 0.0
H355 H 0.42523 0.28089 0.95653 0.0
H356 H 0.48144 0.3871 0.95941 0.0
H357 H 0.21321 0.46965 0.97177 0.0
H358 H 0.27973 0.49962 0.9427 0.0
H359 H 0.31857 0.53014 0.97745 0.0
H360 H 0.7654 0.92381 0.02685 0.0
H361 H 0.86191 0.01397 0.99077 0.0
H362 H 0.78807 0.92349 0.9749 0.0
H363 H 0.88555 0.9381 0.98216 0.0
H364 H 0.7661 0.69545 0.00771 0.0
H365 H 0.65998 0.84172 -0.00024 0.0
H366 H 0.66071 0.5637 0.95448 0.0
H367 H 0.602 0.51823 0.98454 0.0
H368 H 0.70852 0.56839 0.98768 0.0
H369 H 0.53628 0.79796 0.97771 0.0
H370 H 0.47311 0.69262 0.97322 0.0
H371 H 0.5358 0.75051 0.94545 0.0
H372 H 0.54109 0.57786 0.79576 0.0
H373 H 0.33159 0.39648 0.85501 0.0
H374 H 0.31189 0.38294 0.90451 0.0
H375 H 0.46226 0.5291 0.98552 0.0
H376 H 0.66309 0.7187 0.92585 0.0
H377 H 0.6843 0.73063 0.87673 0.0
H378 H 0.07236 0.07522 0.97339 0.0
H379 H 0.17125 0.11477 0.96064 0.0
H380 H 0.13055 0.02933 0.98274 0.0
loop_
_geom_bond_atom_site_label_1
_geom_bond_atom_site_label_2
_geom_bond_distance
_geom_bond_site_symmetry_2
_ccdc_geom_bond_type
In0 O1 2.294 1_455 S
In0 O2 2.326 . S
In0 O6 2.266 1_445 S
In0 O7 2.326 1_445 S
In0 O8 2.266 1_545 S
In0 O9 2.326 1_445 S
In0 O11 2.294 . S
In0 O12 2.326 . S
O1 In0 2.294 1_655 S
O1 C10 1.240 1_655 S
O2 In0 2.326 . S
O2 C10 1.252 . S
C3 O6 1.252 . S
C3 O7 1.260 . S
C4 O11 1.240 . S
C4 O12 1.252 . S
C5 O8 1.252 . S
C5 O9 1.260 1_455 S
O6 In0 2.266 1_665 S
O6 C3 1.252 . S
O7 In0 2.326 1_665 S
O7 C3 1.260 . S
O8 In0 2.266 1_565 S
O8 C5 1.252 . S
O9 In0 2.326 1_665 S
O9 C5 1.260 1_655 S
C10 O1 1.240 1_455 S
C10 O2 1.252 . S
O11 In0 2.294 . S
O11 C4 1.240 . S
O12 In0 2.326 . S
O12 C4 1.252 . S
In13 O14 2.294 . S
In13 O15 2.326 1_455 S
In13 O19 2.266 . S
In13 O20 2.326 1_545 S
In13 O21 2.266 1_445 S
In13 O22 2.326 . S
In13 O24 2.294 1_445 S
In13 O25 2.326 1_455 S
O14 In13 2.294 . S
O14 C23 1.240 . S
O15 In13 2.326 1_655 S
O15 C23 1.252 1_655 S
C16 O19 1.252 . S
C16 O20 1.260 1_545 S
C17 O24 1.240 1_545 S
C17 O25 1.252 . S
C18 O21 1.252 1_455 S
C18 O22 1.260 1_565 S
O19 In13 2.266 . S
O19 C16 1.252 . S
O20 In13 2.326 1_565 S
O20 C16 1.260 1_565 S
O21 In13 2.266 1_665 S
O21 C18 1.252 1_655 S
O22 In13 2.326 . S
O22 C18 1.260 1_545 S
C23 O14 1.240 . S
C23 O15 1.252 1_455 S
O24 In13 2.294 1_665 S
O24 C17 1.240 1_565 S
O25 In13 2.326 1_655 S
O25 C17 1.252 . S
In26 O27 2.294 1_445 S
In26 O28 2.326 1_445 S
In26 O32 2.266 1_545 S
In26 O33 2.326 . S
In26 O34 2.266 . S
In26 O35 2.326 . S
In26 O37 2.294 1_455 S
In26 O38 2.326 1_445 S
O27 In26 2.294 1_665 S
O27 C36 1.240 . S
O28 In26 2.326 1_665 S
O28 C36 1.252 . S
C29 O32 1.252 1_545 S
C29 O33 1.260 . S
C30 O37 1.240 . S
C30 O38 1.252 1_545 S
C31 O34 1.252 . S
C31 O35 1.260 . S
O32 In26 2.266 1_565 S
O32 C29 1.252 1_565 S
O33 In26 2.326 . S
O33 C29 1.260 . S
O34 In26 2.266 . S
O34 C31 1.252 . S
O35 In26 2.326 . S
O35 C31 1.260 . S
C36 O27 1.240 . S
C36 O28 1.252 . S
O37 In26 2.294 1_655 S
O37 C30 1.240 . S
O38 In26 2.326 1_665 S
O38 C30 1.252 1_565 S
C39 C40 1.560 . S
C39 H100 0.959 . S
C39 H101 0.959 . S
C39 H102 0.960 . S
C40 C39 1.560 . S
C40 O95 1.426 . S
C40 H99 0.980 1_655 S
C41 C42 1.407 1_655 S
C41 C46 1.418 . S
C41 O95 1.334 . S
C42 C41 1.407 1_455 S
C42 C43 1.360 . S
C42 H103 0.929 . S
C43 C42 1.360 . S
C43 C44 1.401 . S
C43 C47 1.527 . S
C44 C43 1.401 . S
C44 C45 1.405 1_455 S
C44 C77 1.587 . S
C45 C44 1.405 1_655 S
C45 C46 1.332 . S
C45 C48 1.496 . S
C46 C41 1.418 . S
C46 C45 1.332 . S
C46 H104 0.929 . S
C47 C43 1.527 . S
C47 H105 0.959 . S
C47 H106 0.961 . S
C47 H107 0.961 . S
C48 C45 1.496 . S
C48 H108 0.960 . S
C48 H109 0.960 . S
C48 H110 0.961 . S
C49 C50 1.517 . S
C49 H112 0.961 . S
C49 H113 0.960 . S
C49 H114 0.959 . S
C50 C49 1.517 . S
C50 O98 1.468 . S
C50 H111 0.980 . S
C51 C52 1.349 . S
C51 C56 1.367 . S
C51 O98 1.408 . S
C52 C51 1.349 . S
C52 C53 1.407 . S
C52 H115 0.930 . S
C53 C52 1.407 . S
C53 C54 1.449 . S
C53 C57 1.535 1_455 S
C54 C53 1.449 . S
C54 C55 1.384 . S
C54 C79 1.553 . S
C55 C54 1.384 . S
C55 C56 1.364 . S
C55 C58 1.450 . S
C56 C51 1.367 . S
C56 C55 1.364 . S
C56 H116 0.931 . S
C57 C53 1.535 1_655 S
C57 H117 0.959 . S
C57 H118 0.961 . S
C57 H119 0.959 . S
C58 C55 1.450 . S
C58 H120 0.960 . S
C58 H121 0.960 . S
C58 H122 0.960 . S
C59 C60 1.309 . S
C59 C64 1.304 . S
C59 O97 1.435 . S
C60 C59 1.309 . S
C60 C61 1.476 . S
C60 H124 0.930 1_455 S
C61 C60 1.476 . S
C61 C62 1.400 . S
C61 C65 1.567 1_455 S
C62 C61 1.400 . S
C62 C63 1.373 . S
C62 C84 1.432 . S
C63 C62 1.373 . S
C63 C64 1.339 . S
C63 C66 1.530 . S
C64 C59 1.304 . S
C64 C63 1.339 . S
C64 H125 0.930 . S
C65 C61 1.567 1_655 S
C65 H126 0.961 . S
C65 H127 0.960 . S
C65 H128 0.958 . S
C66 C63 1.530 . S
C66 H129 0.961 . S
C66 H130 0.960 . S
C66 H131 0.960 . S
C67 C68 1.530 1_655 S
C67 H133 0.961 . S
C67 H134 0.961 . S
C67 H135 0.959 . S
C68 C67 1.530 1_455 S
C68 O96 1.412 1_455 S
C68 H132 0.980 . S
C69 C70 1.288 . S
C69 C74 1.377 1_655 S
C69 O96 1.393 . S
C70 C69 1.288 . S
C70 C71 1.369 . S
C70 H136 0.932 . S
C71 C70 1.369 . S
C71 C72 1.398 1_655 S
C71 C75 1.527 . S
C72 C71 1.398 1_455 S
C72 C73 1.380 . S
C72 C86 1.497 . S
C73 C72 1.380 . S
C73 C74 1.383 . S
C73 C76 1.603 . S
C74 C69 1.377 1_455 S
C74 C73 1.383 . S
C74 H137 0.929 . S
C75 C71 1.527 . S
C75 H138 0.961 . S
C75 H139 0.959 . S
C75 H140 0.959 . S
C76 C73 1.603 . S
C76 H141 0.960 . S
C76 H142 0.962 . S
C76 H143 0.961 . S
C77 C44 1.587 . S
C77 C78 1.360 . S
C77 C90 1.412 . S
C78 C77 1.360 . S
C78 C79 1.365 . S
C78 H144 0.929 . S
C79 C54 1.553 . S
C79 C78 1.365 . S
C79 C80 1.404 . S
C80 C79 1.404 . S
C80 C81 1.395 . S
C80 C91 1.451 . S
C81 C80 1.395 . S
C81 C82 1.322 . S
C81 H145 0.930 . S
C82 C81 1.322 . S
C82 C83 1.459 . S
C82 H146 0.929 . S
C83 C82 1.459 . S
C83 C84 1.445 . S
C83 C92 1.395 . S
C84 C62 1.432 . S
C84 C83 1.445 . S
C84 C85 1.370 . S
C85 C84 1.370 . S
C85 C86 1.438 . S
C85 H147 0.930 . S
C86 C72 1.497 . S
C86 C85 1.438 . S
C86 C87 1.360 . S
C87 C86 1.360 . S
C87 C88 1.401 . S
C87 C92 1.446 . S
C88 C87 1.401 . S
C88 C89 1.347 . S
C88 H148 0.929 . S
C89 C88 1.347 . S
C89 C90 1.455 . S
C89 H149 0.930 . S
C90 C77 1.412 . S
C90 C89 1.455 . S
C90 C91 1.331 . S
C91 C80 1.451 . S
C91 C90 1.331 . S
C91 C92 1.497 . S
C92 C83 1.395 . S
C92 C87 1.446 . S
C92 C91 1.497 . S
C93 C94 1.582 . S
C93 H150 0.962 . S
C93 H151 0.959 . S
C93 H152 0.958 . S
C94 C93 1.582 . S
C94 O97 1.458 . S
C94 H123 0.980 . S
O95 C40 1.426 . S
O95 C41 1.334 . S
O96 C68 1.412 1_655 S
O96 C69 1.393 . S
O97 C59 1.435 . S
O97 C94 1.458 . S
O98 C50 1.468 . S
O98 C51 1.408 . S
H99 C40 0.980 1_455 S
H100 C39 0.959 . S
H101 C39 0.959 . S
H102 C39 0.960 . S
H103 C42 0.929 . S
H104 C46 0.929 . S
H105 C47 0.959 . S
H106 C47 0.961 . S
H107 C47 0.961 . S
H108 C48 0.960 . S
H109 C48 0.960 . S
H110 C48 0.961 . S
H111 C50 0.980 . S
H112 C49 0.961 . S
H113 C49 0.960 . S
H114 C49 0.959 . S
H115 C52 0.930 . S
H116 C56 0.931 . S
H117 C57 0.959 . S
H118 C57 0.961 . S
H119 C57 0.959 . S
H120 C58 0.960 . S
H121 C58 0.960 . S
H122 C58 0.960 . S
H123 C94 0.980 . S
H124 C60 0.930 1_655 S
H125 C64 0.930 . S
H126 C65 0.961 . S
H127 C65 0.960 . S
H128 C65 0.958 . S
H129 C66 0.961 . S
H130 C66 0.960 . S
H131 C66 0.960 . S
H132 C68 0.980 . S
H133 C67 0.961 . S
H134 C67 0.961 . S
H135 C67 0.959 . S
H136 C70 0.932 . S
H137 C74 0.929 . S
H138 C75 0.961 . S
H139 C75 0.959 . S
H140 C75 0.959 . S
H141 C76 0.960 . S
H142 C76 0.962 . S
H143 C76 0.961 . S
H144 C78 0.929 . S
H145 C81 0.930 . S
H146 C82 0.929 . S
H147 C85 0.930 . S
H148 C88 0.929 . S
H149 C89 0.930 . S
H150 C93 0.962 . S
H151 C93 0.959 . S
H152 C93 0.958 . S
C153 C154 1.560 1_565 S
C153 H214 0.959 . S
C153 H215 0.959 . S
C153 H216 0.960 . S
C154 C153 1.560 1_545 S
C154 O209 1.426 1_545 S
C154 H213 0.980 . S
C155 C156 1.407 1_565 S
C155 C160 1.418 . S
C155 O209 1.334 . S
C156 C155 1.407 1_545 S
C156 C157 1.360 . S
C156 H217 0.929 . S
C157 C156 1.360 . S
C157 C158 1.401 . S
C157 C161 1.527 . S
C158 C157 1.401 . S
C158 C159 1.405 1_545 S
C158 C191 1.587 . S
C159 C158 1.405 1_565 S
C159 C160 1.332 . S
C159 C162 1.496 . S
C160 C155 1.418 . S
C160 C159 1.332 . S
C160 H218 0.929 . S
C161 C157 1.527 . S
C161 H219 0.959 . S
C161 H220 0.961 . S
C161 H221 0.961 . S
C162 C159 1.496 . S
C162 H222 0.960 . S
C162 H223 0.960 . S
C162 H224 0.961 . S
C163 C164 1.517 . S
C163 H226 0.961 . S
C163 H227 0.960 . S
C163 H228 0.959 1_655 S
C164 C163 1.517 . S
C164 O212 1.468 . S
C164 H225 0.980 . S
C165 C166 1.349 . S
C165 C170 1.367 . S
C165 O212 1.408 . S
C166 C165 1.349 . S
C166 C167 1.407 . S
C166 H229 0.930 . S
C167 C166 1.407 . S
C167 C168 1.449 . S
C167 C171 1.535 1_545 S
C168 C167 1.449 . S
C168 C169 1.384 . S
C168 C193 1.553 . S
C169 C168 1.384 . S
C169 C170 1.364 . S
C169 C172 1.450 . S
C170 C165 1.367 . S
C170 C169 1.364 . S
C170 H230 0.931 . S
C171 C167 1.535 1_565 S
C171 H231 0.959 . S
C171 H232 0.961 . S
C171 H233 0.959 . S
C172 C169 1.450 . S
C172 H234 0.960 . S
C172 H235 0.960 . S
C172 H236 0.960 . S
C173 C174 1.309 . S
C173 C178 1.304 . S
C173 O211 1.435 . S
C174 C173 1.309 . S
C174 C175 1.476 . S
C174 H238 0.930 . S
C175 C174 1.476 . S
C175 C176 1.400 . S
C175 C179 1.567 1_545 S
C176 C175 1.400 . S
C176 C177 1.373 . S
C176 C198 1.432 . S
C177 C176 1.373 . S
C177 C178 1.339 . S
C177 C180 1.530 . S
C178 C173 1.304 . S
C178 C177 1.339 . S
C178 H239 0.930 . S
C179 C175 1.567 1_565 S
C179 H240 0.961 . S
C179 H241 0.960 . S
C179 H242 0.958 . S
C180 C177 1.530 . S
C180 H243 0.961 . S
C180 H244 0.960 . S
C180 H245 0.960 . S
C181 C182 1.530 1_565 S
C181 H247 0.961 1_565 S
C181 H248 0.961 . S
C181 H249 0.959 . S
C182 C181 1.530 1_545 S
C182 O210 1.412 1_545 S
C182 H246 0.980 . S
C183 C184 1.288 1_545 S
C183 C188 1.377 . S
C183 O210 1.393 1_545 S
C184 C183 1.288 1_565 S
C184 C185 1.369 . S
C184 H250 0.932 . S
C185 C184 1.369 . S
C185 C186 1.398 1_565 S
C185 C189 1.527 . S
C186 C185 1.398 1_545 S
C186 C187 1.380 . S
C186 C200 1.497 . S
C187 C186 1.380 . S
C187 C188 1.383 . S
C187 C190 1.603 . S
C188 C183 1.377 . S
C188 C187 1.383 . S
C188 H251 0.929 . S
C189 C185 1.527 . S
C189 H252 0.961 . S
C189 H253 0.959 . S
C189 H254 0.959 . S
C190 C187 1.603 . S
C190 H255 0.960 . S
C190 H256 0.962 . S
C190 H257 0.961 . S
C191 C158 1.587 . S
C191 C192 1.360 . S
C191 C204 1.412 . S
C192 C191 1.360 . S
C192 C193 1.365 . S
C192 H258 0.929 . S
C193 C168 1.553 . S
C193 C192 1.365 . S
C193 C194 1.404 . S
C194 C193 1.404 . S
C194 C195 1.395 . S
C194 C205 1.451 . S
C195 C194 1.395 . S
C195 C196 1.322 . S
C195 H259 0.930 . S
C196 C195 1.322 . S
C196 C197 1.459 . S
C196 H260 0.929 . S
C197 C196 1.459 . S
C197 C198 1.445 . S
C197 C206 1.395 . S
C198 C176 1.432 . S
C198 C197 1.445 . S
C198 C199 1.370 . S
C199 C198 1.370 . S
C199 C200 1.438 . S
C199 H261 0.930 . S
C200 C186 1.497 . S
C200 C199 1.438 . S
C200 C201 1.360 . S
C201 C200 1.360 . S
C201 C202 1.401 . S
C201 C206 1.446 . S
C202 C201 1.401 . S
C202 C203 1.347 . S
C202 H262 0.929 . S
C203 C202 1.347 . S
C203 C204 1.455 . S
C203 H263 0.930 . S
C204 C191 1.412 . S
C204 C203 1.455 . S
C204 C205 1.331 . S
C205 C194 1.451 . S
C205 C204 1.331 . S
C205 C206 1.497 . S
C206 C197 1.395 . S
C206 C201 1.446 . S
C206 C205 1.497 . S
C207 C208 1.582 . S
C207 H264 0.962 . S
C207 H265 0.959 1_655 S
C207 H266 0.958 . S
C208 C207 1.582 . S
C208 O211 1.458 . S
C208 H237 0.980 . S
O209 C154 1.426 1_565 S
O209 C155 1.334 . S
O210 C182 1.412 1_565 S
O210 C183 1.393 1_565 S
O211 C173 1.435 . S
O211 C208 1.458 . S
O212 C164 1.468 . S
O212 C165 1.408 . S
H213 C154 0.980 . S
H214 C153 0.959 . S
H215 C153 0.959 . S
H216 C153 0.960 . S
H217 C156 0.929 . S
H218 C160 0.929 . S
H219 C161 0.959 . S
H220 C161 0.961 . S
H221 C161 0.961 . S
H222 C162 0.960 . S
H223 C162 0.960 . S
H224 C162 0.961 . S
H225 C164 0.980 . S
H226 C163 0.961 . S
H227 C163 0.960 . S
H228 C163 0.959 1_455 S
H229 C166 0.930 . S
H230 C170 0.931 . S
H231 C171 0.959 . S
H232 C171 0.961 . S
H233 C171 0.959 . S
H234 C172 0.960 . S
H235 C172 0.960 . S
H236 C172 0.960 . S
H237 C208 0.980 . S
H238 C174 0.930 . S
H239 C178 0.930 . S
H240 C179 0.961 . S
H241 C179 0.960 . S
H242 C179 0.958 . S
H243 C180 0.961 . S
H244 C180 0.960 . S
H245 C180 0.960 . S
H246 C182 0.980 . S
H247 C181 0.961 1_545 S
H248 C181 0.961 . S
H249 C181 0.959 . S
H250 C184 0.932 . S
H251 C188 0.929 . S
H252 C189 0.961 . S
H253 C189 0.959 . S
H254 C189 0.959 . S
H255 C190 0.960 . S
H256 C190 0.962 . S
H257 C190 0.961 . S
H258 C192 0.929 . S
H259 C195 0.930 . S
H260 C196 0.929 . S
H261 C199 0.930 . S
H262 C202 0.929 . S
H263 C203 0.930 . S
H264 C207 0.962 . S
H265 C207 0.959 1_455 S
H266 C207 0.958 . S
C267 C268 1.560 . S
C267 H328 0.959 . S
C267 H329 0.959 . S
C267 H330 0.960 . S
C268 C267 1.560 . S
C268 O323 1.426 . S
C268 H327 0.980 . S
C269 C270 1.407 . S
C269 C274 1.418 . S
C269 O323 1.334 . S
C270 C269 1.407 . S
C270 C271 1.360 . S
C270 H331 0.929 . S
C271 C270 1.360 . S
C271 C272 1.401 . S
C271 C275 1.527 . S
C272 C271 1.401 . S
C272 C273 1.405 . S
C272 C305 1.587 . S
C273 C272 1.405 . S
C273 C274 1.332 . S
C273 C276 1.496 . S
C274 C269 1.418 . S
C274 C273 1.332 . S
C274 H332 0.929 . S
C275 C271 1.527 . S
C275 H333 0.959 . S
C275 H334 0.961 . S
C275 H335 0.961 . S
C276 C273 1.496 . S
C276 H336 0.960 . S
C276 H337 0.960 . S
C276 H338 0.961 . S
C277 C278 1.517 . S
C277 H340 0.961 . S
C277 H341 0.960 . S
C277 H342 0.959 . S
C278 C277 1.517 . S
C278 O326 1.468 . S
C278 H339 0.980 . S
C279 C280 1.349 . S
C279 C284 1.367 . S
C279 O326 1.408 . S
C280 C279 1.349 . S
C280 C281 1.407 . S
C280 H343 0.930 . S
C281 C280 1.407 . S
C281 C282 1.449 . S
C281 C285 1.535 . S
C282 C281 1.449 . S
C282 C283 1.384 . S
C282 C307 1.553 . S
C283 C282 1.384 . S
C283 C284 1.364 . S
C283 C286 1.450 . S
C284 C279 1.367 . S
C284 C283 1.364 . S
C284 H344 0.931 . S
C285 C281 1.535 . S
C285 H345 0.959 . S
C285 H346 0.961 . S
C285 H347 0.959 . S
C286 C283 1.450 . S
C286 H348 0.960 . S
C286 H349 0.960 . S
C286 H350 0.960 . S
C287 C288 1.300 1_554 S
C287 C292 1.299 1_554 S
C287 O325 1.449 . S
C288 C287 1.300 1_556 S
C288 C289 1.476 . S
C288 H352 0.930 . S
C289 C288 1.476 . S
C289 C290 1.400 . S
C289 C293 1.567 . S
C290 C289 1.400 . S
C290 C291 1.373 . S
C290 C312 1.432 . S
C291 C290 1.373 . S
C291 C292 1.339 . S
C291 C294 1.530 . S
C292 C287 1.299 1_556 S
C292 C291 1.339 . S
C292 H353 0.930 1_556 S
C293 C289 1.567 . S
C293 H354 0.961 . S
C293 H355 0.960 . S
C293 H356 0.958 . S
C294 C291 1.530 . S
C294 H357 0.961 . S
C294 H358 0.960 . S
C294 H359 0.960 . S
C295 C296 1.530 . S
C295 H361 0.961 . S
C295 H362 0.961 . S
C295 H363 0.959 . S
C296 C295 1.530 . S
C296 O324 1.412 . S
C296 H360 0.980 . S
C297 C298 1.289 . S
C297 C302 1.383 . S
C297 O324 1.393 . S
C298 C297 1.289 . S
C298 C299 1.367 1_554 S
C298 H364 0.933 . S
C299 C298 1.367 1_556 S
C299 C300 1.398 . S
C299 C303 1.527 . S
C300 C299 1.398 . S
C300 C301 1.380 . S
C300 C314 1.497 . S
C301 C300 1.380 . S
C301 C302 1.369 1_556 S
C301 C304 1.603 . S
C302 C297 1.383 . S
C302 C301 1.369 1_554 S
C302 H365 0.936 . S
C303 C299 1.527 . S
C303 H366 0.961 . S
C303 H367 0.959 . S
C303 H368 0.959 . S
C304 C301 1.603 . S
C304 H369 0.960 . S
C304 H370 0.962 . S
C304 H371 0.961 . S
C305 C272 1.587 . S
C305 C306 1.360 . S
C305 C318 1.412 . S
C306 C305 1.360 . S
C306 C307 1.365 . S
C306 H372 0.929 . S
C307 C282 1.553 . S
C307 C306 1.365 . S
C307 C308 1.404 . S
C308 C307 1.404 . S
C308 C309 1.395 . S
C308 C319 1.451 . S
C309 C308 1.395 . S
C309 C310 1.322 . S
C309 H373 0.930 . S
C310 C309 1.322 . S
C310 C311 1.459 . S
C310 H374 0.929 . S
C311 C310 1.459 . S
C311 C312 1.445 . S
C311 C320 1.395 . S
C312 C290 1.432 . S
C312 C311 1.445 . S
C312 C313 1.370 . S
C313 C312 1.370 . S
C313 C314 1.438 . S
C313 H375 0.930 . S
C314 C300 1.497 . S
C314 C313 1.438 . S
C314 C315 1.360 . S
C315 C314 1.360 . S
C315 C316 1.401 . S
C315 C320 1.446 . S
C316 C315 1.401 . S
C316 C317 1.347 . S
C316 H376 0.929 . S
C317 C316 1.347 . S
C317 C318 1.455 . S
C317 H377 0.930 . S
C318 C305 1.412 . S
C318 C317 1.455 . S
C318 C319 1.331 . S
C319 C308 1.451 . S
C319 C318 1.331 . S
C319 C320 1.497 . S
C320 C311 1.395 . S
C320 C315 1.446 . S
C320 C319 1.497 . S
C321 C322 1.582 . S
C321 H378 0.962 . S
C321 H379 0.959 . S
C321 H380 0.958 . S
C322 C321 1.582 . S
C322 O325 1.458 . S
C322 H351 0.980 . S
O323 C268 1.426 . S
O323 C269 1.334 . S
O324 C296 1.412 . S
O324 C297 1.393 . S
O325 C287 1.449 . S
O325 C322 1.458 . S
O326 C278 1.468 . S
O326 C279 1.408 . S
H327 C268 0.980 . S
H328 C267 0.959 . S
H329 C267 0.959 . S
H330 C267 0.960 . S
H331 C270 0.929 . S
H332 C274 0.929 . S
H333 C275 0.959 . S
H334 C275 0.961 . S
H335 C275 0.961 . S
H336 C276 0.960 . S
H337 C276 0.960 . S
H338 C276 0.961 . S
H339 C278 0.980 . S
H340 C277 0.961 . S
H341 C277 0.960 . S
H342 C277 0.959 . S
H343 C280 0.930 . S
H344 C284 0.931 . S
H345 C285 0.959 . S
H346 C285 0.961 . S
H347 C285 0.959 . S
H348 C286 0.960 . S
H349 C286 0.960 . S
H350 C286 0.960 . S
H351 C322 0.980 . S
H352 C288 0.930 . S
H353 C292 0.930 1_554 S
H354 C293 0.961 . S
H355 C293 0.960 . S
H356 C293 0.958 . S
H357 C294 0.961 . S
H358 C294 0.960 . S
H359 C294 0.960 . S
H360 C296 0.980 . S
H361 C295 0.961 . S
H362 C295 0.961 . S
H363 C295 0.959 . S
H364 C298 0.933 . S
H365 C302 0.936 . S
H366 C303 0.961 . S
H367 C303 0.959 . S
H368 C303 0.959 . S
H369 C304 0.960 . S
H370 C304 0.962 . S
H371 C304 0.961 . S
H372 C306 0.929 . S
H373 C309 0.930 . S
H374 C310 0.929 . S
H375 C313 0.930 . S
H376 C316 0.929 . S
H377 C317 0.930 . S
H378 C321 0.962 . S
H379 C321 0.959 . S
H380 C321 0.958 . S
C94 C10 1.057 . S
C17 C208 1.090 . S
C36 C268 1.526 . S
C5 C68 0.998 . S
C182 C16 1.004 . S
C31 C278 1.133 . S
C164 C30 1.182 . S
C3 C296 1.001 . S
C40 C18 1.579 1_655 S
C154 C29 1.524 . S
C322 C4 1.071 . S
C23 C50 1.063 . S
