# Generated by pormake.
# Topology bpr, (3,3)-cn, num edge types: 1
# Building blocks:
#     Node 0, Type 0, BuildingBlock: WUSLED_clean_sbu_0, # of connection points: 3
#     Node 1, Type 0, BuildingBlock: WUSLED_clean_sbu_0, # of connection points: 3
#     Node 2, Type 0, BuildingBlock: WUSLED_clean_sbu_0, # of connection points: 3
#     Node 3, Type 0, BuildingBlock: WUSLED_clean_sbu_0, # of connection points: 3
#     Node 4, Type 0, BuildingBlock: WUSLED_clean_sbu_0, # of connection points: 3
#     Node 5, Type 0, BuildingBlock: WUSLED_clean_sbu_0, # of connection points: 3
#     Node 6, Type 0, BuildingBlock: WUSLED_clean_sbu_0, # of connection points: 3
#     Node 7, Type 0, BuildingBlock: WUSLED_clean_sbu_0, # of connection points: 3
#     Node 8, Type 0, BuildingBlock: WUSLED_clean_sbu_0, # of connection points: 3
#     Node 9, Type 0, BuildingBlock: WUSLED_clean_sbu_0, # of connection points: 3
#     Node 10, Type 0, BuildingBlock: WUSLED_clean_sbu_0, # of connection points: 3
#     Node 11, Type 0, BuildingBlock: WUSLED_clean_sbu_0, # of connection points: 3
#     Node 12, Type 0, BuildingBlock: WUSLED_clean_sbu_0, # of connection points: 3
#     Node 13, Type 0, BuildingBlock: WUSLED_clean_sbu_0, # of connection points: 3
#     Node 14, Type 0, BuildingBlock: WUSLED_clean_sbu_0, # of connection points: 3
#     Node 15, Type 0, BuildingBlock: WUSLED_clean_sbu_0, # of connection points: 3
#     Node 16, Type 0, BuildingBlock: WUSLED_clean_sbu_0, # of connection points: 3
#     Node 17, Type 0, BuildingBlock: WUSLED_clean_sbu_0, # of connection points: 3
#     Node 18, Type 0, BuildingBlock: WUSLED_clean_sbu_0, # of connection points: 3
#     Node 19, Type 0, BuildingBlock: WUSLED_clean_sbu_0, # of connection points: 3
#     Node 20, Type 0, BuildingBlock: WUSLED_clean_sbu_0, # of connection points: 3
#     Node 21, Type 0, BuildingBlock: WUSLED_clean_sbu_0, # of connection points: 3
#     Node 22, Type 0, BuildingBlock: WUSLED_clean_sbu_0, # of connection points: 3
#     Node 23, Type 0, BuildingBlock: WUSLED_clean_sbu_0, # of connection points: 3
#     Node 24, Type 0, BuildingBlock: WUSLED_clean_sbu_0, # of connection points: 3
#     Node 25, Type 0, BuildingBlock: WUSLED_clean_sbu_0, # of connection points: 3
#     Node 26, Type 0, BuildingBlock: WUSLED_clean_sbu_0, # of connection points: 3
#     Node 27, Type 0, BuildingBlock: WUSLED_clean_sbu_0, # of connection points: 3
#     Node 28, Type 0, BuildingBlock: WUSLED_clean_sbu_0, # of connection points: 3
#     Node 29, Type 0, BuildingBlock: WUSLED_clean_sbu_0, # of connection points: 3
#     Node 30, Type 0, BuildingBlock: WUSLED_clean_sbu_0, # of connection points: 3
#     Node 31, Type 0, BuildingBlock: WUSLED_clean_sbu_0, # of connection points: 3
#     Node 32, Type 0, BuildingBlock: WUSLED_clean_sbu_0, # of connection points: 3
#     Node 33, Type 0, BuildingBlock: WUSLED_clean_sbu_0, # of connection points: 3
#     Node 34, Type 0, BuildingBlock: WUSLED_clean_sbu_0, # of connection points: 3
#     Node 35, Type 0, BuildingBlock: WUSLED_clean_sbu_0, # of connection points: 3
#     Node 36, Type 0, BuildingBlock: WUSLED_clean_sbu_0, # of connection points: 3
#     Node 37, Type 0, BuildingBlock: WUSLED_clean_sbu_0, # of connection points: 3
#     Node 38, Type 0, BuildingBlock: WUSLED_clean_sbu_0, # of connection points: 3
#     Node 39, Type 0, BuildingBlock: WUSLED_clean_sbu_0, # of connection points: 3
#     Node 40, Type 0, BuildingBlock: WUSLED_clean_sbu_0, # of connection points: 3
#     Node 41, Type 0, BuildingBlock: WUSLED_clean_sbu_0, # of connection points: 3
#     Node 42, Type 0, BuildingBlock: WUSLED_clean_sbu_0, # of connection points: 3
#     Node 43, Type 0, BuildingBlock: WUSLED_clean_sbu_0, # of connection points: 3
#     Node 44, Type 0, BuildingBlock: WUSLED_clean_sbu_0, # of connection points: 3
#     Node 45, Type 0, BuildingBlock: WUSLED_clean_sbu_0, # of connection points: 3
#     Node 46, Type 0, BuildingBlock: WUSLED_clean_sbu_0, # of connection points: 3
#     Node 47, Type 0, BuildingBlock: WUSLED_clean_sbu_0, # of connection points: 3
#     Node 48, Type 1, BuildingBlock: BETDIP_clean_linker_0, # of connection points: 3
#     Node 49, Type 1, BuildingBlock: BETDIP_clean_linker_0, # of connection points: 3
#     Node 50, Type 1, BuildingBlock: BETDIP_clean_linker_0, # of connection points: 3
#     Node 51, Type 1, BuildingBlock: BETDIP_clean_linker_0, # of connection points: 3
#     Node 52, Type 1, BuildingBlock: BETDIP_clean_linker_0, # of connection points: 3
#     Node 53, Type 1, BuildingBlock: BETDIP_clean_linker_0, # of connection points: 3
#     Node 54, Type 1, BuildingBlock: BETDIP_clean_linker_0, # of connection points: 3
#     Node 55, Type 1, BuildingBlock: BETDIP_clean_linker_0, # of connection points: 3
#     Node 56, Type 1, BuildingBlock: BETDIP_clean_linker_0, # of connection points: 3
#     Node 57, Type 1, BuildingBlock: BETDIP_clean_linker_0, # of connection points: 3
#     Node 58, Type 1, BuildingBlock: BETDIP_clean_linker_0, # of connection points: 3
#     Node 59, Type 1, BuildingBlock: BETDIP_clean_linker_0, # of connection points: 3
#     Node 60, Type 1, BuildingBlock: BETDIP_clean_linker_0, # of connection points: 3
#     Node 61, Type 1, BuildingBlock: BETDIP_clean_linker_0, # of connection points: 3
#     Node 62, Type 1, BuildingBlock: BETDIP_clean_linker_0, # of connection points: 3
#     Node 63, Type 1, BuildingBlock: BETDIP_clean_linker_0, # of connection points: 3
#     Node 64, Type 1, BuildingBlock: BETDIP_clean_linker_0, # of connection points: 3
#     Node 65, Type 1, BuildingBlock: BETDIP_clean_linker_0, # of connection points: 3
#     Node 66, Type 1, BuildingBlock: BETDIP_clean_linker_0, # of connection points: 3
#     Node 67, Type 1, BuildingBlock: BETDIP_clean_linker_0, # of connection points: 3
#     Node 68, Type 1, BuildingBlock: BETDIP_clean_linker_0, # of connection points: 3
#     Node 69, Type 1, BuildingBlock: BETDIP_clean_linker_0, # of connection points: 3
#     Node 70, Type 1, BuildingBlock: BETDIP_clean_linker_0, # of connection points: 3
#     Node 71, Type 1, BuildingBlock: BETDIP_clean_linker_0, # of connection points: 3
#     Node 72, Type 1, BuildingBlock: BETDIP_clean_linker_0, # of connection points: 3
#     Node 73, Type 1, BuildingBlock: BETDIP_clean_linker_0, # of connection points: 3
#     Node 74, Type 1, BuildingBlock: BETDIP_clean_linker_0, # of connection points: 3
#     Node 75, Type 1, BuildingBlock: BETDIP_clean_linker_0, # of connection points: 3
#     Node 76, Type 1, BuildingBlock: BETDIP_clean_linker_0, # of connection points: 3
#     Node 77, Type 1, BuildingBlock: BETDIP_clean_linker_0, # of connection points: 3
#     Node 78, Type 1, BuildingBlock: BETDIP_clean_linker_0, # of connection points: 3
#     Node 79, Type 1, BuildingBlock: BETDIP_clean_linker_0, # of connection points: 3
#     Node 80, Type 1, BuildingBlock: BETDIP_clean_linker_0, # of connection points: 3
#     Node 81, Type 1, BuildingBlock: BETDIP_clean_linker_0, # of connection points: 3
#     Node 82, Type 1, BuildingBlock: BETDIP_clean_linker_0, # of connection points: 3
#     Node 83, Type 1, BuildingBlock: BETDIP_clean_linker_0, # of connection points: 3
#     Node 84, Type 1, BuildingBlock: BETDIP_clean_linker_0, # of connection points: 3
#     Node 85, Type 1, BuildingBlock: BETDIP_clean_linker_0, # of connection points: 3
#     Node 86, Type 1, BuildingBlock: BETDIP_clean_linker_0, # of connection points: 3
#     Node 87, Type 1, BuildingBlock: BETDIP_clean_linker_0, # of connection points: 3
#     Node 88, Type 1, BuildingBlock: BETDIP_clean_linker_0, # of connection points: 3
#     Node 89, Type 1, BuildingBlock: BETDIP_clean_linker_0, # of connection points: 3
#     Node 90, Type 1, BuildingBlock: BETDIP_clean_linker_0, # of connection points: 3
#     Node 91, Type 1, BuildingBlock: BETDIP_clean_linker_0, # of connection points: 3
#     Node 92, Type 1, BuildingBlock: BETDIP_clean_linker_0, # of connection points: 3
#     Node 93, Type 1, BuildingBlock: BETDIP_clean_linker_0, # of connection points: 3
#     Node 94, Type 1, BuildingBlock: BETDIP_clean_linker_0, # of connection points: 3
#     Node 95, Type 1, BuildingBlock: BETDIP_clean_linker_0, # of connection points: 3
#     Edge 96, Type (0, 1), BuildingBlock: UVAHIK_clean_linker_0, # of connection points: 2
#     Edge 97, Type (0, 1), BuildingBlock: UVAHIK_clean_linker_0, # of connection points: 2
#     Edge 98, Type (0, 1), BuildingBlock: UVAHIK_clean_linker_0, # of connection points: 2
#     Edge 99, Type (0, 1), BuildingBlock: UVAHIK_clean_linker_0, # of connection points: 2
#     Edge 100, Type (0, 1), BuildingBlock: UVAHIK_clean_linker_0, # of connection points: 2
#     Edge 101, Type (0, 1), BuildingBlock: UVAHIK_clean_linker_0, # of connection points: 2
#     Edge 102, Type (0, 1), BuildingBlock: UVAHIK_clean_linker_0, # of connection points: 2
#     Edge 103, Type (0, 1), BuildingBlock: UVAHIK_clean_linker_0, # of connection points: 2
#     Edge 104, Type (0, 1), BuildingBlock: UVAHIK_clean_linker_0, # of connection points: 2
#     Edge 105, Type (0, 1), BuildingBlock: UVAHIK_clean_linker_0, # of connection points: 2
#     Edge 106, Type (0, 1), BuildingBlock: UVAHIK_clean_linker_0, # of connection points: 2
#     Edge 107, Type (0, 1), BuildingBlock: UVAHIK_clean_linker_0, # of connection points: 2
#     Edge 108, Type (0, 1), BuildingBlock: UVAHIK_clean_linker_0, # of connection points: 2
#     Edge 109, Type (0, 1), BuildingBlock: UVAHIK_clean_linker_0, # of connection points: 2
#     Edge 110, Type (0, 1), BuildingBlock: UVAHIK_clean_linker_0, # of connection points: 2
#     Edge 111, Type (0, 1), BuildingBlock: UVAHIK_clean_linker_0, # of connection points: 2
#     Edge 112, Type (0, 1), BuildingBlock: UVAHIK_clean_linker_0, # of connection points: 2
#     Edge 113, Type (0, 1), BuildingBlock: UVAHIK_clean_linker_0, # of connection points: 2
#     Edge 114, Type (0, 1), BuildingBlock: UVAHIK_clean_linker_0, # of connection points: 2
#     Edge 115, Type (0, 1), BuildingBlock: UVAHIK_clean_linker_0, # of connection points: 2
#     Edge 116, Type (0, 1), BuildingBlock: UVAHIK_clean_linker_0, # of connection points: 2
#     Edge 117, Type (0, 1), BuildingBlock: UVAHIK_clean_linker_0, # of connection points: 2
#     Edge 118, Type (0, 1), BuildingBlock: UVAHIK_clean_linker_0, # of connection points: 2
#     Edge 119, Type (0, 1), BuildingBlock: UVAHIK_clean_linker_0, # of connection points: 2
#     Edge 120, Type (0, 1), BuildingBlock: UVAHIK_clean_linker_0, # of connection points: 2
#     Edge 121, Type (0, 1), BuildingBlock: UVAHIK_clean_linker_0, # of connection points: 2
#     Edge 122, Type (0, 1), BuildingBlock: UVAHIK_clean_linker_0, # of connection points: 2
#     Edge 123, Type (0, 1), BuildingBlock: UVAHIK_clean_linker_0, # of connection points: 2
#     Edge 124, Type (0, 1), BuildingBlock: UVAHIK_clean_linker_0, # of connection points: 2
#     Edge 125, Type (0, 1), BuildingBlock: UVAHIK_clean_linker_0, # of connection points: 2
#     Edge 126, Type (0, 1), BuildingBlock: UVAHIK_clean_linker_0, # of connection points: 2
#     Edge 127, Type (0, 1), BuildingBlock: UVAHIK_clean_linker_0, # of connection points: 2
#     Edge 128, Type (0, 1), BuildingBlock: UVAHIK_clean_linker_0, # of connection points: 2
#     Edge 129, Type (0, 1), BuildingBlock: UVAHIK_clean_linker_0, # of connection points: 2
#     Edge 130, Type (0, 1), BuildingBlock: UVAHIK_clean_linker_0, # of connection points: 2
#     Edge 131, Type (0, 1), BuildingBlock: UVAHIK_clean_linker_0, # of connection points: 2
#     Edge 132, Type (0, 1), BuildingBlock: UVAHIK_clean_linker_0, # of connection points: 2
#     Edge 133, Type (0, 1), BuildingBlock: UVAHIK_clean_linker_0, # of connection points: 2
#     Edge 134, Type (0, 1), BuildingBlock: UVAHIK_clean_linker_0, # of connection points: 2
#     Edge 135, Type (0, 1), BuildingBlock: UVAHIK_clean_linker_0, # of connection points: 2
#     Edge 136, Type (0, 1), BuildingBlock: UVAHIK_clean_linker_0, # of connection points: 2
#     Edge 137, Type (0, 1), BuildingBlock: UVAHIK_clean_linker_0, # of connection points: 2
#     Edge 138, Type (0, 1), BuildingBlock: UVAHIK_clean_linker_0, # of connection points: 2
#     Edge 139, Type (0, 1), BuildingBlock: UVAHIK_clean_linker_0, # of connection points: 2
#     Edge 140, Type (0, 1), BuildingBlock: UVAHIK_clean_linker_0, # of connection points: 2
#     Edge 141, Type (0, 1), BuildingBlock: UVAHIK_clean_linker_0, # of connection points: 2
#     Edge 142, Type (0, 1), BuildingBlock: UVAHIK_clean_linker_0, # of connection points: 2
#     Edge 143, Type (0, 1), BuildingBlock: UVAHIK_clean_linker_0, # of connection points: 2
#     Edge 144, Type (0, 1), BuildingBlock: UVAHIK_clean_linker_0, # of connection points: 2
#     Edge 145, Type (0, 1), BuildingBlock: UVAHIK_clean_linker_0, # of connection points: 2
#     Edge 146, Type (0, 1), BuildingBlock: UVAHIK_clean_linker_0, # of connection points: 2
#     Edge 147, Type (0, 1), BuildingBlock: UVAHIK_clean_linker_0, # of connection points: 2
#     Edge 148, Type (0, 1), BuildingBlock: UVAHIK_clean_linker_0, # of connection points: 2
#     Edge 149, Type (0, 1), BuildingBlock: UVAHIK_clean_linker_0, # of connection points: 2
#     Edge 150, Type (0, 1), BuildingBlock: UVAHIK_clean_linker_0, # of connection points: 2
#     Edge 151, Type (0, 1), BuildingBlock: UVAHIK_clean_linker_0, # of connection points: 2
#     Edge 152, Type (0, 1), BuildingBlock: UVAHIK_clean_linker_0, # of connection points: 2
#     Edge 153, Type (0, 1), BuildingBlock: UVAHIK_clean_linker_0, # of connection points: 2
#     Edge 154, Type (0, 1), BuildingBlock: UVAHIK_clean_linker_0, # of connection points: 2
#     Edge 155, Type (0, 1), BuildingBlock: UVAHIK_clean_linker_0, # of connection points: 2
#     Edge 156, Type (0, 1), BuildingBlock: UVAHIK_clean_linker_0, # of connection points: 2
#     Edge 157, Type (0, 1), BuildingBlock: UVAHIK_clean_linker_0, # of connection points: 2
#     Edge 158, Type (0, 1), BuildingBlock: UVAHIK_clean_linker_0, # of connection points: 2
#     Edge 159, Type (0, 1), BuildingBlock: UVAHIK_clean_linker_0, # of connection points: 2
#     Edge 160, Type (0, 1), BuildingBlock: UVAHIK_clean_linker_0, # of connection points: 2
#     Edge 161, Type (0, 1), BuildingBlock: UVAHIK_clean_linker_0, # of connection points: 2
#     Edge 162, Type (0, 1), BuildingBlock: UVAHIK_clean_linker_0, # of connection points: 2
#     Edge 163, Type (0, 1), BuildingBlock: UVAHIK_clean_linker_0, # of connection points: 2
#     Edge 164, Type (0, 1), BuildingBlock: UVAHIK_clean_linker_0, # of connection points: 2
#     Edge 165, Type (0, 1), BuildingBlock: UVAHIK_clean_linker_0, # of connection points: 2
#     Edge 166, Type (0, 1), BuildingBlock: UVAHIK_clean_linker_0, # of connection points: 2
#     Edge 167, Type (0, 1), BuildingBlock: UVAHIK_clean_linker_0, # of connection points: 2
#     Edge 168, Type (0, 1), BuildingBlock: UVAHIK_clean_linker_0, # of connection points: 2
#     Edge 169, Type (0, 1), BuildingBlock: UVAHIK_clean_linker_0, # of connection points: 2
#     Edge 170, Type (0, 1), BuildingBlock: UVAHIK_clean_linker_0, # of connection points: 2
#     Edge 171, Type (0, 1), BuildingBlock: UVAHIK_clean_linker_0, # of connection points: 2
#     Edge 172, Type (0, 1), BuildingBlock: UVAHIK_clean_linker_0, # of connection points: 2
#     Edge 173, Type (0, 1), BuildingBlock: UVAHIK_clean_linker_0, # of connection points: 2
#     Edge 174, Type (0, 1), BuildingBlock: UVAHIK_clean_linker_0, # of connection points: 2
#     Edge 175, Type (0, 1), BuildingBlock: UVAHIK_clean_linker_0, # of connection points: 2
#     Edge 176, Type (0, 1), BuildingBlock: UVAHIK_clean_linker_0, # of connection points: 2
#     Edge 177, Type (0, 1), BuildingBlock: UVAHIK_clean_linker_0, # of connection points: 2
#     Edge 178, Type (0, 1), BuildingBlock: UVAHIK_clean_linker_0, # of connection points: 2
#     Edge 179, Type (0, 1), BuildingBlock: UVAHIK_clean_linker_0, # of connection points: 2
#     Edge 180, Type (0, 1), BuildingBlock: UVAHIK_clean_linker_0, # of connection points: 2
#     Edge 181, Type (0, 1), BuildingBlock: UVAHIK_clean_linker_0, # of connection points: 2
#     Edge 182, Type (0, 1), BuildingBlock: UVAHIK_clean_linker_0, # of connection points: 2
#     Edge 183, Type (0, 1), BuildingBlock: UVAHIK_clean_linker_0, # of connection points: 2
#     Edge 184, Type (0, 1), BuildingBlock: UVAHIK_clean_linker_0, # of connection points: 2
#     Edge 185, Type (0, 1), BuildingBlock: UVAHIK_clean_linker_0, # of connection points: 2
#     Edge 186, Type (0, 1), BuildingBlock: UVAHIK_clean_linker_0, # of connection points: 2
#     Edge 187, Type (0, 1), BuildingBlock: UVAHIK_clean_linker_0, # of connection points: 2
#     Edge 188, Type (0, 1), BuildingBlock: UVAHIK_clean_linker_0, # of connection points: 2
#     Edge 189, Type (0, 1), BuildingBlock: UVAHIK_clean_linker_0, # of connection points: 2
#     Edge 190, Type (0, 1), BuildingBlock: UVAHIK_clean_linker_0, # of connection points: 2
#     Edge 191, Type (0, 1), BuildingBlock: UVAHIK_clean_linker_0, # of connection points: 2
#     Edge 192, Type (0, 1), BuildingBlock: UVAHIK_clean_linker_0, # of connection points: 2
#     Edge 193, Type (0, 1), BuildingBlock: UVAHIK_clean_linker_0, # of connection points: 2
#     Edge 194, Type (0, 1), BuildingBlock: UVAHIK_clean_linker_0, # of connection points: 2
#     Edge 195, Type (0, 1), BuildingBlock: UVAHIK_clean_linker_0, # of connection points: 2
#     Edge 196, Type (0, 1), BuildingBlock: UVAHIK_clean_linker_0, # of connection points: 2
#     Edge 197, Type (0, 1), BuildingBlock: UVAHIK_clean_linker_0, # of connection points: 2
#     Edge 198, Type (0, 1), BuildingBlock: UVAHIK_clean_linker_0, # of connection points: 2
#     Edge 199, Type (0, 1), BuildingBlock: UVAHIK_clean_linker_0, # of connection points: 2
#     Edge 200, Type (0, 1), BuildingBlock: UVAHIK_clean_linker_0, # of connection points: 2
#     Edge 201, Type (0, 1), BuildingBlock: UVAHIK_clean_linker_0, # of connection points: 2
#     Edge 202, Type (0, 1), BuildingBlock: UVAHIK_clean_linker_0, # of connection points: 2
#     Edge 203, Type (0, 1), BuildingBlock: UVAHIK_clean_linker_0, # of connection points: 2
#     Edge 204, Type (0, 1), BuildingBlock: UVAHIK_clean_linker_0, # of connection points: 2
#     Edge 205, Type (0, 1), BuildingBlock: UVAHIK_clean_linker_0, # of connection points: 2
#     Edge 206, Type (0, 1), BuildingBlock: UVAHIK_clean_linker_0, # of connection points: 2
#     Edge 207, Type (0, 1), BuildingBlock: UVAHIK_clean_linker_0, # of connection points: 2
#     Edge 208, Type (0, 1), BuildingBlock: UVAHIK_clean_linker_0, # of connection points: 2
#     Edge 209, Type (0, 1), BuildingBlock: UVAHIK_clean_linker_0, # of connection points: 2
#     Edge 210, Type (0, 1), BuildingBlock: UVAHIK_clean_linker_0, # of connection points: 2
#     Edge 211, Type (0, 1), BuildingBlock: UVAHIK_clean_linker_0, # of connection points: 2
#     Edge 212, Type (0, 1), BuildingBlock: UVAHIK_clean_linker_0, # of connection points: 2
#     Edge 213, Type (0, 1), BuildingBlock: UVAHIK_clean_linker_0, # of connection points: 2
#     Edge 214, Type (0, 1), BuildingBlock: UVAHIK_clean_linker_0, # of connection points: 2
#     Edge 215, Type (0, 1), BuildingBlock: UVAHIK_clean_linker_0, # of connection points: 2
#     Edge 216, Type (0, 1), BuildingBlock: UVAHIK_clean_linker_0, # of connection points: 2
#     Edge 217, Type (0, 1), BuildingBlock: UVAHIK_clean_linker_0, # of connection points: 2
#     Edge 218, Type (0, 1), BuildingBlock: UVAHIK_clean_linker_0, # of connection points: 2
#     Edge 219, Type (0, 1), BuildingBlock: UVAHIK_clean_linker_0, # of connection points: 2
#     Edge 220, Type (0, 1), BuildingBlock: UVAHIK_clean_linker_0, # of connection points: 2
#     Edge 221, Type (0, 1), BuildingBlock: UVAHIK_clean_linker_0, # of connection points: 2
#     Edge 222, Type (0, 1), BuildingBlock: UVAHIK_clean_linker_0, # of connection points: 2
#     Edge 223, Type (0, 1), BuildingBlock: UVAHIK_clean_linker_0, # of connection points: 2
#     Edge 224, Type (0, 1), BuildingBlock: UVAHIK_clean_linker_0, # of connection points: 2
#     Edge 225, Type (0, 1), BuildingBlock: UVAHIK_clean_linker_0, # of connection points: 2
#     Edge 226, Type (0, 1), BuildingBlock: UVAHIK_clean_linker_0, # of connection points: 2
#     Edge 227, Type (0, 1), BuildingBlock: UVAHIK_clean_linker_0, # of connection points: 2
#     Edge 228, Type (0, 1), BuildingBlock: UVAHIK_clean_linker_0, # of connection points: 2
#     Edge 229, Type (0, 1), BuildingBlock: UVAHIK_clean_linker_0, # of connection points: 2
#     Edge 230, Type (0, 1), BuildingBlock: UVAHIK_clean_linker_0, # of connection points: 2
#     Edge 231, Type (0, 1), BuildingBlock: UVAHIK_clean_linker_0, # of connection points: 2
#     Edge 232, Type (0, 1), BuildingBlock: UVAHIK_clean_linker_0, # of connection points: 2
#     Edge 233, Type (0, 1), BuildingBlock: UVAHIK_clean_linker_0, # of connection points: 2
#     Edge 234, Type (0, 1), BuildingBlock: UVAHIK_clean_linker_0, # of connection points: 2
#     Edge 235, Type (0, 1), BuildingBlock: UVAHIK_clean_linker_0, # of connection points: 2
#     Edge 236, Type (0, 1), BuildingBlock: UVAHIK_clean_linker_0, # of connection points: 2
#     Edge 237, Type (0, 1), BuildingBlock: UVAHIK_clean_linker_0, # of connection points: 2
#     Edge 238, Type (0, 1), BuildingBlock: UVAHIK_clean_linker_0, # of connection points: 2
#     Edge 239, Type (0, 1), BuildingBlock: UVAHIK_clean_linker_0, # of connection points: 2
# Relax obj value: 0.045
# Max RMSD: 0.117
# Mean RMSD: 0.055
data_MOF--net-bpr--node1-WUSLED_clean_sbu_0--node2-BETDIP_clean_linker_0--edge1-UVAHIK_clean_linker_0
_symmetry_space_group_name_H-M    P1
_symmetry_Int_Tables_number       1
_symmetry_cell_setting            triclinic
loop_
_symmetry_equiv_pos_as_xyz
'x, y, z'
_cell_length_a     127.42622
_cell_length_b     131.6756
_cell_length_c     134.9893
_cell_angle_alpha  95.750532
_cell_angle_beta   93.393468
_cell_angle_gamma 97.570683
loop_
_atom_site_label
_atom_site_type_symbol
_atom_site_fract_x
_atom_site_fract_y
_atom_site_fract_z
_atom_type_partial_charge
C0 C 0.97204 0.37664 0.24923 0.0
C1 C 0.97084 0.37432 0.25905 0.0
C2 C 0.95643 0.38471 0.26043 0.0
C3 C 0.9631 0.37828 0.26458 0.0
C4 C 0.95752 0.38685 0.2505 0.0
C5 C 0.96529 0.38286 0.24495 0.0
U6 U 0.99712 0.3647 0.25007 0.0
O7 O 1.00343 0.35333 0.23977 0.0
O8 O 0.01248 0.36872 0.24388 0.0
C9 C 0.01178 0.35985 0.23829 0.0
C10 C 0.98073 0.37304 0.24377 0.0
C11 C 0.01423 0.36048 0.22785 0.0
C12 C 0.01265 0.3681 0.21226 0.0
C13 C 0.0096 0.36714 0.22196 0.0
C14 C 0.02473 0.35556 0.21419 0.0
C15 C 0.02034 0.3624 0.2083 0.0
C16 C 0.0217 0.35463 0.22387 0.0
C17 C 0.00686 0.358 0.27562 0.0
C18 C 0.02293 0.35024 0.27828 0.0
C19 C 0.01428 0.35721 0.29244 0.0
C20 C 0.00644 0.35995 0.28596 0.0
C21 C 0.02269 0.35245 0.28867 0.0
C22 C 0.01509 0.35304 0.27179 0.0
C23 C 0.99902 0.36173 0.26899 0.0
O24 O 0.9901 0.37838 0.24641 0.0
O25 O 0.98088 0.36302 0.24299 0.0
O26 O 0.9938 0.35486 0.26208 0.0
O27 O 1.00227 0.37055 0.26564 0.0
H28 H 0.976 0.36955 0.26249 0.0
H29 H 0.96237 0.37633 0.27214 0.0
H30 H 0.95257 0.39184 0.24712 0.0
H31 H 0.96617 0.38479 0.2374 0.0
H32 H 0.00904 0.37335 0.20788 0.0
H33 H 1.00378 0.37169 0.22491 0.0
H34 H 0.03076 0.35116 0.21144 0.0
H35 H 0.02537 0.34948 0.22834 0.0
H36 H 0.02937 0.34667 0.27516 0.0
H37 H 0.01382 0.3589 0.30041 0.0
H38 H 1.00014 0.36378 0.28903 0.0
H39 H 0.01557 0.35155 0.2638 0.0
C40 C 0.94083 0.81787 0.55071 0.0
C41 C 0.9468 0.81751 0.55974 0.0
C42 C 0.93802 0.80014 0.56103 0.0
C43 C 0.94545 0.80873 0.5648 0.0
C44 C 0.9323 0.8004 0.55183 0.0
C45 C 0.93372 0.80916 0.54672 0.0
U46 U 0.93826 0.84617 0.5524 0.0
O47 O 0.94746 0.85941 0.54676 0.0
O48 O 0.93046 0.85536 0.54219 0.0
C49 C 0.93934 0.86132 0.54111 0.0
C50 C 0.94131 0.82747 0.54583 0.0
C51 C 0.9414 0.86324 0.53082 0.0
C52 C 0.94917 0.85924 0.51512 0.0
C53 C 0.94709 0.85693 0.52479 0.0
C54 C 0.93973 0.87402 0.51743 0.0
C55 C 0.9456 0.86788 0.51137 0.0
C56 C 0.93768 0.87173 0.52705 0.0
C57 C 0.93081 0.85865 0.57727 0.0
C58 C 0.93252 0.87712 0.58207 0.0
C59 C 0.9205 0.86543 0.5903 0.0
C60 C 0.9234 0.85706 0.58441 0.0
C61 C 0.92501 0.87555 0.58919 0.0
C62 C 0.93535 0.86874 0.5761 0.0
C63 C 0.93342 0.84971 0.57093 0.0
O64 O 0.93215 0.8309 0.54448 0.0
O65 O 0.94913 0.83482 0.54909 0.0
O66 O 0.94325 0.85026 0.56833 0.0
O67 O 0.92633 0.84605 0.56354 0.0
H68 H 0.95236 0.82408 0.56304 0.0
H69 H 0.95016 0.80874 0.57175 0.0
H70 H 0.92643 0.79399 0.54874 0.0
H71 H 0.92899 0.80926 0.5398 0.0
H72 H 0.95375 0.85439 0.51067 0.0
H73 H 0.94999 0.85031 0.52759 0.0
H74 H 0.93666 0.8806 0.51471 0.0
H75 H 0.93322 0.87663 0.53158 0.0
H76 H 0.93605 0.88484 0.58099 0.0
H77 H 0.91478 0.86398 0.5958 0.0
H78 H 0.9198 0.84933 0.58539 0.0
H79 H 0.941 0.87014 0.57055 0.0
C80 C 0.48754 0.63404 0.7315 0.0
C81 C 0.48144 0.64216 0.73245 0.0
C82 C 0.47561 0.63887 0.71479 0.0
C83 C 0.47556 0.64458 0.72416 0.0
C84 C 0.48208 0.63101 0.71379 0.0
C85 C 0.48798 0.62859 0.72211 0.0
U86 U 0.48891 0.6341 0.75933 0.0
O87 O 0.48898 0.62145 0.76878 0.0
O88 O 0.50206 0.63431 0.7707 0.0
C89 C 0.49825 0.62529 0.77336 0.0
C90 C 0.49245 0.63056 0.74046 0.0
C91 C 0.50582 0.61791 0.77443 0.0
C92 C 0.51973 0.6085 0.76832 0.0
C93 C 0.51257 0.61554 0.76694 0.0
C94 C 0.51331 0.6061 0.78459 0.0
C95 C 0.52016 0.60369 0.77717 0.0
C96 C 0.50621 0.61313 0.78322 0.0
C97 C 0.47052 0.6492 0.77391 0.0
C98 C 0.47088 0.64946 0.79194 0.0
C99 C 0.45613 0.65514 0.78286 0.0
C100 C 0.46086 0.65317 0.77391 0.0
C101 C 0.46101 0.65316 0.79197 0.0
C102 C 0.47557 0.64745 0.78298 0.0
C103 C 0.47486 0.64616 0.7644 0.0
O104 O 0.49825 0.63781 0.74663 0.0
O105 O 0.48594 0.62431 0.74501 0.0
O106 O 0.47232 0.63637 0.76108 0.0
O107 O 0.48492 0.64961 0.76368 0.0
H108 H 0.48094 0.6464 0.73967 0.0
H109 H 0.47077 0.65077 0.72515 0.0
H110 H 0.4822 0.62639 0.70671 0.0
H111 H 0.49257 0.62223 0.72127 0.0
H112 H 0.52488 0.60677 0.76246 0.0
H113 H 0.51231 0.61914 0.76007 0.0
H114 H 0.51356 0.6027 0.79156 0.0
H115 H 0.50106 0.61489 0.78908 0.0
H116 H 0.47491 0.64797 0.79882 0.0
H117 H 0.44846 0.65784 0.78258 0.0
H118 H 0.45681 0.65446 0.76695 0.0
H119 H 0.48303 0.64433 0.7831 0.0
C120 C 0.61993 0.20686 0.05624 0.0
C121 C 0.62262 0.20746 0.06653 0.0
C122 C 0.61972 0.22543 0.06854 0.0
C123 C 0.62254 0.21666 0.07262 0.0
C124 C 0.61716 0.22482 0.05819 0.0
C125 C 0.61724 0.21559 0.05209 0.0
U126 U 0.62177 0.17854 0.05469 0.0
O127 O 0.61225 0.16517 0.04591 0.0
O128 O 0.62941 0.1683 0.04435 0.0
C129 C 0.62034 0.16271 0.04101 0.0
C130 C 0.6196 0.19703 0.04998 0.0
C131 C 0.61849 0.16084 0.03009 0.0
C132 C 0.61071 0.16485 0.01431 0.0
C133 C 0.61244 0.1669 0.0247 0.0
C134 C 0.62122 0.15081 0.01462 0.0
C135 C 0.61511 0.15678 0.00916 0.0
C136 C 0.62287 0.15281 0.02498 0.0
C137 C 0.62689 0.16752 0.07943 0.0
C138 C 0.62454 0.14924 0.08141 0.0
C139 C 0.6324 0.16171 0.09515 0.0
C140 C 0.63142 0.16969 0.08924 0.0
C141 C 0.62882 0.1514 0.09137 0.0
C142 C 0.62359 0.15725 0.07548 0.0
C143 C 0.62539 0.1761 0.07358 0.0
O144 O 0.62866 0.19328 0.04983 0.0
O145 O 0.6115 0.19008 0.05118 0.0
O146 O 0.61582 0.17584 0.06927 0.0
O147 O 0.63299 0.1787 0.06777 0.0
H148 H 0.62471 0.20078 0.06986 0.0
H149 H 0.6247 0.21691 0.08053 0.0
H150 H 0.61485 0.2314 0.05483 0.0
H151 H 0.6151 0.21522 0.04416 0.0
H152 H 0.60604 0.16963 0.01029 0.0
H153 H 0.60905 0.17319 0.02851 0.0
H154 H 0.6246 0.14446 0.01088 0.0
H155 H 0.62756 0.14806 0.02903 0.0
H156 H 0.62163 0.14141 0.0783 0.0
H157 H 0.63592 0.16363 0.10272 0.0
H158 H 0.63407 0.17758 0.09237 0.0
H159 H 0.6201 0.15545 0.06789 0.0
C160 C 0.99314 0.62821 0.24241 0.0
C161 C 0.99152 0.63241 0.23338 0.0
C162 C 0.97349 0.62328 0.23103 0.0
C163 C 0.98178 0.63003 0.22779 0.0
C164 C 0.9751 0.61924 0.24018 0.0
C165 C 0.98485 0.62168 0.24582 0.0
U166 U 0.0228 0.63428 0.24197 0.0
O167 O 0.03494 0.64406 0.25223 0.0
O168 O 0.0358 0.6275 0.24909 0.0
C169 C 0.03967 0.6362 0.25447 0.0
C170 C 1.00365 0.63002 0.24788 0.0
C171 C 0.04204 0.63542 0.26515 0.0
C172 C 0.03804 0.63794 0.28255 0.0
C173 C 0.03555 0.6389 0.27247 0.0
C174 C 0.0534 0.62992 0.27805 0.0
C175 C 0.04696 0.63338 0.28543 0.0
C176 C 0.05097 0.63095 0.26802 0.0
C177 C 0.03412 0.63778 0.21684 0.0
C178 C 0.05273 0.64377 0.21518 0.0
C179 C 0.0414 0.63581 0.20067 0.0
C180 C 0.03281 0.63452 0.20659 0.0
C181 C 0.05146 0.64044 0.2049 0.0
C182 C 0.04413 0.6424 0.22112 0.0
C183 C 0.02506 0.63597 0.22299 0.0
O184 O 0.00974 0.62293 0.24564 0.0
O185 O 0.00869 0.63946 0.24837 0.0
O186 O 0.02358 0.64374 0.22942 0.0
O187 O 0.02409 0.6271 0.22675 0.0
H188 H 0.99785 0.6374 0.23057 0.0
H189 H 0.98077 0.63342 0.22087 0.0
H190 H 0.96894 0.61393 0.24285 0.0
H191 H 0.986 0.61829 0.25272 0.0
H192 H 0.0329 0.64061 0.28807 0.0
H193 H 0.02856 0.6423 0.2704 0.0
H194 H 0.06041 0.62651 0.28006 0.0
H195 H 0.05607 0.62824 0.26249 0.0
H196 H 0.06041 0.64727 0.21866 0.0
H197 H 0.04016 0.63327 0.19275 0.0
H198 H 0.02513 0.6309 0.20318 0.0
H199 H 0.04531 0.64487 0.22906 0.0
C200 C 0.62552 0.7667 0.46312 0.0
C201 C 0.62416 0.76569 0.45266 0.0
C202 C 0.6306 0.74903 0.45178 0.0
C203 C 0.62659 0.75692 0.44706 0.0
C204 C 0.63195 0.75008 0.46228 0.0
C205 C 0.62942 0.75885 0.4679 0.0
U206 U 0.62355 0.79493 0.46408 0.0
O207 O 0.61172 0.80429 0.46993 0.0
O208 O 0.62848 0.80801 0.47555 0.0
C209 C 0.61871 0.81 0.47644 0.0
C210 C 0.62329 0.77614 0.46895 0.0
C211 C 0.61542 0.81164 0.48669 0.0
C212 C 0.61648 0.80862 0.50417 0.0
C213 C 0.61922 0.80636 0.49438 0.0
C214 C 0.60582 0.82119 0.4986 0.0
C215 C 0.60983 0.81614 0.5064 0.0
C216 C 0.60861 0.81897 0.48885 0.0
C217 C 0.63013 0.80752 0.44052 0.0
C218 C 0.62861 0.82549 0.43895 0.0
C219 C 0.63574 0.81518 0.42576 0.0
C220 C 0.63438 0.80668 0.4312 0.0
C221 C 0.63285 0.82468 0.42956 0.0
C222 C 0.62726 0.81697 0.4444 0.0
C223 C 0.62888 0.79853 0.44615 0.0
O224 O 0.63153 0.78332 0.47111 0.0
O225 O 0.61472 0.77977 0.46575 0.0
O226 O 0.61912 0.79524 0.44813 0.0
O227 O 0.63583 0.79886 0.45379 0.0
H228 H 0.62124 0.7717 0.4488 0.0
H229 H 0.62525 0.75632 0.43901 0.0
H230 H 0.63513 0.74422 0.46616 0.0
H231 H 0.63063 0.75955 0.47597 0.0
H232 H 0.61961 0.80453 0.51 0.0
H233 H 0.62443 0.8006 0.49285 0.0
H234 H 0.6008 0.82711 0.50008 0.0
H235 H 0.60561 0.82313 0.48301 0.0
H236 H 0.6262 0.83266 0.44204 0.0
H237 H 0.63918 0.81433 0.41862 0.0
H238 H 0.63669 0.79944 0.42814 0.0
H239 H 0.62398 0.81774 0.45161 0.0
C240 C 0.52089 0.41559 0.72534 0.0
C241 C 0.52022 0.41816 0.7155 0.0
C242 C 0.53885 0.42562 0.71729 0.0
C243 C 0.52911 0.42317 0.71152 0.0
C244 C 0.53942 0.42314 0.72719 0.0
C245 C 0.53051 0.41817 0.73118 0.0
U246 U 0.49341 0.40014 0.72155 0.0
O247 O 0.48671 0.38634 0.72818 0.0
O248 O 0.47952 0.40058 0.7304 0.0
C249 C 0.47972 0.39118 0.73282 0.0
C250 C 0.51173 0.40994 0.72943 0.0
C251 C 0.47944 0.39013 0.74353 0.0
C252 C 0.48701 0.39454 0.76059 0.0
C253 C 0.48762 0.39523 0.75037 0.0
C254 C 0.47014 0.38348 0.7572 0.0
C255 C 0.47821 0.38873 0.76414 0.0
C256 C 0.47076 0.38419 0.74698 0.0
C257 C 0.47943 0.39501 0.69554 0.0
C258 C 0.46178 0.38523 0.69267 0.0
C259 C 0.47003 0.39329 0.67917 0.0
C260 C 0.47903 0.39707 0.68556 0.0
C261 C 0.46127 0.3874 0.68267 0.0
C262 C 0.47079 0.38903 0.69907 0.0
C263 C 0.48871 0.39943 0.70229 0.0
O264 O 0.50298 0.41423 0.72905 0.0
O265 O 0.5101 0.39997 0.72664 0.0
O266 O 0.49397 0.39273 0.70628 0.0
O267 O 0.48714 0.40715 0.70874 0.0
H268 H 0.51285 0.41615 0.71086 0.0
H269 H 0.52845 0.42486 0.70383 0.0
H270 H 0.54678 0.42501 0.73185 0.0
H271 H 0.53115 0.41624 0.73878 0.0
H272 H 0.4934 0.39859 0.76573 0.0
H273 H 0.49441 0.39983 0.7478 0.0
H274 H 0.46319 0.37906 0.75968 0.0
H275 H 0.46437 0.38022 0.74179 0.0
H276 H 0.45513 0.38082 0.69563 0.0
H277 H 0.46993 0.39499 0.67148 0.0
H278 H 0.48565 0.40167 0.68273 0.0
H279 H 0.47095 0.38743 0.70679 0.0
C280 C 0.86307 0.20172 0.00379 0.0
C281 C 0.85834 0.1917 0.00495 0.0
C282 C 0.86808 0.19249 0.02116 0.0
C283 C 0.86076 0.18717 0.01357 0.0
C284 C 0.87263 0.20262 0.02005 0.0
C285 C 0.87014 0.20718 0.01144 0.0
U286 U 0.85883 0.19789 0.97574 0.0
O287 O 0.8487 0.20451 0.96504 0.0
O288 O 0.866 0.20656 0.96418 0.0
C289 C 0.85685 0.20898 0.96079 0.0
C290 C 0.86138 0.20617 0.99434 0.0
C291 C 0.85668 0.2198 0.95874 0.0
C292 C 0.84668 0.23353 0.95451 0.0
C293 C 0.84702 0.22386 0.95789 0.0
C294 C 0.86566 0.23541 0.95305 0.0
C295 C 0.85596 0.23929 0.95182 0.0
C296 C 0.86601 0.22577 0.95643 0.0
C297 C 0.85822 0.17094 0.96258 0.0
C298 C 0.86146 0.16773 0.94506 0.0
C299 C 0.85398 0.15368 0.95392 0.0
C300 C 0.8543 0.1605 0.96261 0.0
C301 C 0.85767 0.15722 0.94509 0.0
C302 C 0.86168 0.17455 0.95372 0.0
C303 C 0.85885 0.17798 0.97183 0.0
O304 O 0.86925 0.20594 0.98849 0.0
O305 O 0.85199 0.20342 0.98952 0.0
O306 O 0.8502 0.18208 0.97364 0.0
O307 O 0.86756 0.18464 0.97348 0.0
H308 H 0.85293 0.18728 0.99911 0.0
H309 H 0.85695 0.17944 0.01424 0.0
H310 H 0.8784 0.2069 0.02566 0.0
H311 H 0.87396 0.21488 0.01063 0.0
H312 H 0.83907 0.23626 0.95355 0.0
H313 H 0.83966 0.21942 0.95947 0.0
H314 H 0.87297 0.23972 0.95116 0.0
H315 H 0.87356 0.22284 0.95689 0.0
H316 H 0.86422 0.17069 0.93833 0.0
H317 H 0.85107 0.14561 0.95417 0.0
H318 H 0.85158 0.15759 0.96938 0.0
H319 H 0.86464 0.18262 0.95352 0.0
C320 C 0.25262 0.99237 0.35549 0.0
C321 C 0.25401 1.00149 0.35088 0.0
C322 C 0.23503 1.00228 0.35054 0.0
C323 C 0.2453 0.00638 0.3484 0.0
C324 C 0.23362 0.99295 0.35487 0.0
C325 C 0.24238 0.98805 0.35736 0.0
U326 U 0.28196 0.99612 0.36155 0.0
O327 O 0.29171 0.99267 0.37449 0.0
O328 O 0.29438 0.98621 0.35933 0.0
C329 C 0.2968 0.98642 0.36897 0.0
C330 C 0.26197 0.98798 0.3591 0.0
C331 C 0.29815 0.97652 0.37278 0.0
C332 C 0.29739 0.95787 0.37037 0.0
C333 C 0.29478 0.96701 0.36704 0.0
C334 C 0.30629 0.96755 0.38542 0.0
C335 C 0.3034 0.95806 0.3795 0.0
C336 C 0.30373 0.97667 0.38207 0.0
C337 C 0.29704 0.02202 0.35718 0.0
C338 C 0.31537 0.0274 0.36351 0.0
C339 C 0.30662 0.0379 0.35275 0.0
C340 C 0.29736 0.03081 0.35209 0.0
C341 C 0.31569 0.03633 0.35855 0.0
C342 C 0.30612 0.02029 0.3628 0.0
C343 C 0.28714 0.01484 0.35671 0.0
O344 O 0.26884 0.98634 0.35242 0.0
O345 O 0.26647 0.99255 0.36769 0.0
O346 O 0.28369 0.01289 0.3654 0.0
O347 O 0.28661 0.00656 0.35031 0.0
H348 H 0.26188 0.00498 0.34944 0.0
H349 H 0.24664 0.01347 0.34494 0.0
H350 H 0.22582 0.98965 0.35668 0.0
H351 H 0.24119 0.98106 0.361 0.0
H352 H 0.2951 0.95071 0.36559 0.0
H353 H 0.29045 0.96666 0.35984 0.0
H354 H 0.31076 0.96795 0.39257 0.0
H355 H 0.30639 0.98391 0.38663 0.0
H356 H 0.32227 0.02593 0.36793 0.0
H357 H 0.30658 0.04476 0.34894 0.0
H358 H 0.29041 0.03225 0.34772 0.0
H359 H 0.30601 0.01349 0.36672 0.0
C360 C 0.18704 0.97736 0.64154 0.0
C361 C 0.17639 0.97488 0.63787 0.0
C362 C 0.17608 0.95749 0.64263 0.0
C363 C 0.17097 0.96503 0.63837 0.0
C364 C 0.18679 0.96002 0.64627 0.0
C365 C 0.19222 0.96989 0.64573 0.0
U366 U 0.18614 0.00536 0.63817 0.0
O367 O 0.19513 0.0196 0.64598 0.0
O368 O 0.19594 0.01605 0.62981 0.0
C369 C 0.19966 0.02215 0.63791 0.0
C370 C 0.19267 0.98778 0.6412 0.0
C371 C 0.21125 0.02524 0.63888 0.0
C372 C 0.22872 0.02565 0.64737 0.0
C373 C 0.21776 0.02236 0.6466 0.0
C374 C 0.22678 0.03455 0.63264 0.0
C375 C 0.23334 0.03176 0.64037 0.0
C376 C 0.21586 0.03134 0.63193 0.0
C377 C 0.15946 0.01436 0.63295 0.0
C378 C 0.15781 0.03253 0.63293 0.0
C379 C 0.14302 0.01957 0.62654 0.0
C380 C 0.14904 0.01181 0.62869 0.0
C381 C 0.14733 0.03001 0.62866 0.0
C382 C 0.16385 0.02477 0.63502 0.0
C383 C 0.16577 0.00614 0.635 0.0
O384 O 0.19221 0.99123 0.6324 0.0
O385 O 0.19098 0.99463 0.6485 0.0
O386 O 0.17064 0.00711 0.64397 0.0
O387 O 0.17179 1.00347 0.62788 0.0
H388 H 0.17226 0.98058 0.63463 0.0
H389 H 0.16279 0.96332 0.63535 0.0
H390 H 0.19093 0.95445 0.64971 0.0
H391 H 0.20043 0.9717 0.64865 0.0
H392 H 0.23359 0.02333 0.65336 0.0
H393 H 0.21441 0.0176 0.65204 0.0
H394 H 0.23008 0.03938 0.62723 0.0
H395 H 0.21098 0.03368 0.62595 0.0
H396 H 0.1614 0.0405 0.63453 0.0
H397 H 0.13494 0.01739 0.62335 0.0
H398 H 0.14555 1.00381 0.62702 0.0
H399 H 0.17194 0.02687 0.63821 0.0
C400 C 0.21796 0.01551 0.88039 0.0
C401 C 0.20689 0.01474 0.87874 0.0
C402 C 0.20812 0.03341 0.87972 0.0
C403 C 0.20203 0.02361 0.87834 0.0
C404 C 0.21919 0.03417 0.8816 0.0
C405 C 0.22408 0.02527 0.88189 0.0
U406 U 0.21607 0.98759 0.88495 0.0
O407 O 0.22121 0.97425 0.87646 0.0
O408 O 0.2274 0.97876 0.89204 0.0
C409 C 0.22788 0.97269 0.88378 0.0
C410 C 0.22308 0.00614 0.88068 0.0
C411 C 0.23858 0.97116 0.881 0.0
C412 C 0.25422 0.97563 0.872 0.0
C413 C 0.24425 0.97762 0.87491 0.0
C414 C 0.253 0.96085 0.88142 0.0
C415 C 0.25869 0.96718 0.8752 0.0
C416 C 0.24306 0.96282 0.88429 0.0
C417 C 0.18971 0.97496 0.89313 0.0
C418 C 0.1847 0.95645 0.89257 0.0
C419 C 0.17411 0.96811 0.90107 0.0
C420 C 0.18098 0.97652 0.89865 0.0
C421 C 0.17583 0.95798 0.89799 0.0
C422 C 0.19161 0.96488 0.8902 0.0
C423 C 0.19662 0.98392 0.89038 0.0
O424 O 0.22462 1.00317 0.88959 0.0
O425 O 0.21924 0.99851 0.87386 0.0
O426 O 0.19897 0.98341 0.881 0.0
O427 O 0.2048 0.9875 0.89671 0.0
H428 H 0.202 0.00728 0.87772 0.0
H429 H 0.19347 0.02279 0.87704 0.0
H430 H 0.22407 0.04164 0.88264 0.0
H431 H 0.23262 0.026 0.88324 0.0
H432 H 0.25844 0.9807 0.86727 0.0
H433 H 0.24092 0.98413 0.87233 0.0
H434 H 0.25612 0.95418 0.88389 0.0
H435 H 0.23877 0.95773 0.88896 0.0
H436 H 0.1863 0.94874 0.89019 0.0
H437 H 0.16728 0.96955 0.90515 0.0
H438 H 0.17941 0.98426 0.90097 0.0
H439 H 0.19838 0.96353 0.886 0.0
C440 C 0.27885 0.0175 0.11997 0.0
C441 C 0.27583 0.00701 0.11664 0.0
C442 C 0.26048 0.00649 0.12659 0.0
C443 C 0.26672 1.0016 0.11984 0.0
C444 C 0.2634 0.01706 0.12977 0.0
C445 C 0.27251 0.02251 0.12648 0.0
U446 U 0.30764 0.01674 0.11629 0.0
O447 O 0.31794 0.02192 0.1047 0.0
O448 O 0.32205 0.02779 0.12048 0.0
C449 C 0.32436 0.02834 0.11116 0.0
C450 C 0.28901 0.02294 0.11735 0.0
C451 C 0.32761 0.03871 0.10819 0.0
C452 C 0.3297 0.0574 0.11145 0.0
C453 C 0.32527 0.04767 0.1137 0.0
C454 C 0.33838 0.04934 0.09787 0.0
C455 C 0.33654 0.05833 0.10367 0.0
C456 C 0.33399 0.03964 0.10014 0.0
C457 C 0.31809 0.99176 0.1213 0.0
C458 C 0.33595 0.98856 0.11793 0.0
C459 C 0.32491 0.97686 0.12703 0.0
C460 C 0.31672 0.98288 0.12623 0.0
C461 C 0.33461 0.97963 0.1229 0.0
C462 C 0.32776 0.99461 0.11717 0.0
C463 C 0.30946 0.99808 0.12073 0.0
O464 O 0.29645 0.025 0.12472 0.0
O465 O 0.29252 0.01932 0.10891 0.0
O466 O 0.30645 1.0001 0.11174 0.0
O467 O 0.31039 0.00614 0.12745 0.0
H468 H 0.28061 1.0029 0.11169 0.0
H469 H 0.26461 0.99353 0.11708 0.0
H470 H 0.25885 0.02105 0.13504 0.0
H471 H 0.27475 0.03057 0.12922 0.0
H472 H 0.32817 0.06416 0.1161 0.0
H473 H 0.32034 0.04716 0.11994 0.0
H474 H 0.34345 0.0498 0.09172 0.0
H475 H 0.33587 0.03283 0.09578 0.0
H476 H 0.34337 0.99094 0.11475 0.0
H477 H 0.32358 0.96995 0.13078 0.0
H478 H 0.30931 0.98059 0.12947 0.0
H479 H 0.32896 1.00151 0.1134 0.0
C480 C 0.42578 0.2952 0.03126 0.0
C481 C 0.43095 0.29574 0.04082 0.0
C482 C 0.42392 0.27781 0.04207 0.0
C483 C 0.43009 0.28712 0.04613 0.0
C484 C 0.41888 0.27727 0.03242 0.0
C485 C 0.41982 0.28588 0.02707 0.0
U486 U 0.42421 0.32366 0.03201 0.0
O487 O 0.43308 0.3361 0.02496 0.0
O488 O 0.41576 0.33258 0.02196 0.0
C489 C 0.42458 0.33805 0.01988 0.0
C490 C 0.42592 0.30447 0.02593 0.0
C491 C 0.42568 0.33952 0.0093 0.0
C492 C 0.43418 0.33678 0.99377 0.0
C493 C 0.43252 0.33434 1.00348 0.0
C494 C 0.42188 0.34929 0.99552 0.0
C495 C 0.42904 0.34445 0.98977 0.0
C496 C 0.42024 0.34686 0.00518 0.0
C497 C 0.42044 0.33822 0.05709 0.0
C498 C 0.41419 0.35492 0.05894 0.0
C499 C 0.42224 0.34838 0.07328 0.0
C500 C 0.42373 0.33948 0.06727 0.0
C501 C 0.41737 0.35616 0.06919 0.0
C502 C 0.41577 0.34605 0.05292 0.0
C503 C 0.42184 0.32868 0.05096 0.0
O504 O 0.41686 0.30821 0.02538 0.0
O505 O 0.43418 0.31163 0.02817 0.0
O506 O 0.43118 0.32857 0.04735 0.0
O507 O 0.4139 0.32485 0.04442 0.0
H508 H 0.43553 0.30286 0.04428 0.0
H509 H 0.43424 0.28779 0.05345 0.0
H510 H 0.41396 0.27029 0.0291 0.0
H511 H 0.41569 0.28533 0.01975 0.0
H512 H 0.43977 0.33295 0.98954 0.0
H513 H 0.43679 0.32862 0.00652 0.0
H514 H 0.41763 0.35508 0.99259 0.0
H515 H 0.4149 0.35091 0.00955 0.0
H516 H 0.41052 0.36083 0.05556 0.0
H517 H 0.42467 0.34906 0.08117 0.0
H518 H 0.42737 0.33352 0.07061 0.0
H519 H 0.41327 0.34527 0.04503 0.0
C520 C 0.03106 0.90769 0.23897 0.0
C521 C 0.03129 0.90493 0.22869 0.0
C522 C 0.04907 0.91438 0.22897 0.0
C523 C 0.04022 0.90823 0.22373 0.0
C524 C 0.04877 0.91722 0.23927 0.0
C525 C 0.03982 0.91387 0.24423 0.0
U526 U 1.00256 0.89521 0.23753 0.0
O527 O 0.99419 0.88416 0.24655 0.0
O528 O 0.98901 0.89933 0.24566 0.0
C529 C 0.98804 0.89078 0.25 0.0
C530 C 0.02162 0.90425 0.24412 0.0
C531 C 0.98716 0.89206 0.26091 0.0
C532 C 0.99181 0.88807 0.27771 0.0
C533 C 0.99306 0.8869 0.26745 0.0
C534 C 0.97884 0.89961 0.27508 0.0
C535 C 0.98471 0.89446 0.28163 0.0
C536 C 0.98002 0.89838 0.26484 0.0
C537 C 0.98831 0.8864 0.21199 0.0
C538 C 0.9704 0.87711 0.21019 0.0
C539 C 0.97828 0.88389 0.19588 0.0
C540 C 0.98757 0.88776 0.20183 0.0
C541 C 0.96955 0.87856 0.19999 0.0
C542 C 0.97969 0.88103 0.21614 0.0
C543 C 0.99791 0.89097 0.21824 0.0
O544 O 0.01357 0.90933 0.24262 0.0
O545 O 0.01884 0.89421 0.24334 0.0
O546 O 1.00224 0.88471 0.22374 0.0
O547 O 0.99732 0.9 0.22312 0.0
H548 H 0.02454 0.90024 0.22449 0.0
H549 H 0.04013 0.90606 0.21577 0.0
H550 H 0.05549 0.9219 0.2435 0.0
H551 H 0.03974 0.91609 0.25217 0.0
H552 H 0.99647 0.88405 0.28259 0.0
H553 H 0.99861 0.88195 0.26465 0.0
H554 H 0.97318 0.90445 0.27786 0.0
H555 H 0.97529 0.90234 0.25996 0.0
H556 H 0.9639 0.87294 0.21358 0.0
H557 H 0.97785 0.88529 0.18811 0.0
H558 H 0.99412 0.89197 0.19853 0.0
H559 H 0.98012 0.87995 0.224 0.0
C560 C 0.0947 0.70756 0.56775 0.0
C561 C 0.0903 0.70829 0.57705 0.0
C562 C 0.09647 0.72674 0.5796 0.0
C563 C 0.09111 0.71778 0.58287 0.0
C564 C 0.10079 0.72599 0.57023 0.0
C565 C 0.09989 0.71648 0.56436 0.0
U566 U 0.0958 0.67906 0.56711 0.0
O567 O 0.08663 0.66558 0.55818 0.0
O568 O 0.10396 0.6685 0.55759 0.0
C569 C 0.09503 0.66279 0.55403 0.0
C570 C 0.09443 0.69748 0.56185 0.0
C571 C 0.09388 0.66003 0.54316 0.0
C572 C 0.08734 0.66265 0.52646 0.0
C573 C 0.08869 0.66582 0.53673 0.0
C574 C 0.09656 0.64805 0.52899 0.0
C575 C 0.09116 0.65365 0.52249 0.0
C576 C 0.09788 0.6512 0.53921 0.0
C577 C 0.09954 0.66801 0.59185 0.0
C578 C 0.09635 0.6497 0.59362 0.0
C579 C 0.10706 0.66143 0.60644 0.0
C580 C 0.10561 0.66968 0.601 0.0
C581 C 0.10242 0.65133 0.60284 0.0
C582 C 0.09497 0.65796 0.58815 0.0
C583 C 0.09833 0.67678 0.58614 0.0
O584 O 0.1034 0.69357 0.56228 0.0
O585 O 0.08607 0.69067 0.56266 0.0
O586 O 0.08897 0.67663 0.58141 0.0
O587 O 0.10627 0.67948 0.58075 0.0
H588 H 0.08633 0.7015 0.57987 0.0
H589 H 0.08752 0.71808 0.58995 0.0
H590 H 0.10509 0.73269 0.56753 0.0
H591 H 0.10343 0.71606 0.55725 0.0
H592 H 0.08311 0.66711 0.52166 0.0
H593 H 0.08558 0.67269 0.53966 0.0
H594 H 0.0998 0.64121 0.52617 0.0
H595 H 0.10196 0.64667 0.54407 0.0
H596 H 0.09256 0.64206 0.59067 0.0
H597 H 0.11195 0.66295 0.6134 0.0
H598 H 0.10929 0.67738 0.60391 0.0
H599 H 0.09032 0.65649 0.58104 0.0
C600 C 0.99513 0.64185 0.78277 0.0
C601 C 0.98596 0.64663 0.78354 0.0
C602 C 0.98418 0.64159 0.8003 0.0
C603 C 0.98052 0.64651 0.79224 0.0
C604 C 0.99355 0.63707 0.79957 0.0
C605 C 0.99897 0.63719 0.79087 0.0
U606 U 0.9979 0.64848 0.75618 0.0
O607 O 0.01221 0.65162 0.74794 0.0
O608 O 0.99996 0.63858 0.74257 0.0
C609 C 0.00959 0.64321 0.74169 0.0
C610 C 1.00042 0.6412 0.77342 0.0
C611 C 0.01792 0.63646 0.74025 0.0
C612 C 0.02354 0.61944 0.73876 0.0
C613 C 0.01576 0.62577 0.74075 0.0
C614 C 0.03588 0.63437 0.73607 0.0
C615 C 0.03364 0.62366 0.73632 0.0
C616 C 0.02807 0.6407 0.73797 0.0
C617 C 0.97934 0.66506 0.7446 0.0
C618 C 0.97992 0.66795 0.72714 0.0
C619 C 0.96579 0.67351 0.73669 0.0
C620 C 0.97016 0.66982 0.74514 0.0
C621 C 0.97052 0.67247 0.72755 0.0
C622 C 0.98428 0.66425 0.73559 0.0
C623 C 0.98327 0.66035 0.75324 0.0
O624 O 0.99457 0.63607 0.76573 0.0
O625 O 0.00582 0.64983 0.7713 0.0
O626 O 0.993 0.66395 0.75686 0.0
O627 O 0.98129 0.65024 0.75238 0.0
H628 H 0.98288 0.65024 0.77732 0.0
H629 H 0.97328 0.64996 0.79252 0.0
H630 H 0.99667 0.63336 0.80569 0.0
H631 H 0.00606 0.63349 0.79039 0.0
H632 H 0.02163 0.61123 0.73909 0.0
H633 H 0.00804 0.62225 0.74253 0.0
H634 H 0.04356 0.63782 0.7341 0.0
H635 H 0.02991 0.6489 0.73749 0.0
H636 H 0.98369 0.66693 0.72019 0.0
H637 H 0.95862 0.67706 0.73728 0.0
H638 H 0.96625 0.67049 0.75204 0.0
H639 H 0.99134 0.66051 0.73504 0.0
C640 C 0.10278 0.22103 0.45714 0.0
C641 C 0.10545 0.21995 0.4472 0.0
C642 C 0.10601 0.2384 0.44648 0.0
C643 C 0.10704 0.22854 0.44191 0.0
C644 C 0.10346 0.23947 0.45651 0.0
C645 C 0.10183 0.23083 0.46179 0.0
U646 U 0.10347 0.1927 0.45726 0.0
O647 O 0.10843 0.18322 0.46872 0.0
O648 O 0.0921 0.18022 0.46179 0.0
C649 C 0.09891 0.17793 0.46865 0.0
C650 C 0.10095 0.21187 0.46254 0.0
C651 C 0.09478 0.17605 0.4784 0.0
C652 C 0.09667 0.17785 0.49658 0.0
C653 C 0.09998 0.18087 0.48747 0.0
C654 C 0.08267 0.16548 0.4877 0.0
C655 C 0.08813 0.16993 0.49678 0.0
C656 C 0.08599 0.16848 0.47863 0.0
C657 C 0.11298 0.17875 0.43406 0.0
C658 C 0.11138 0.16009 0.43115 0.0
C659 C 0.12101 0.17065 0.42004 0.0
C660 C 0.11889 0.17953 0.42568 0.0
C661 C 0.11723 0.16083 0.42267 0.0
C662 C 0.1093 0.16899 0.43682 0.0
C663 C 0.11064 0.18817 0.43977 0.0
O664 O 0.09317 0.20484 0.45853 0.0
O665 O 0.10956 0.20798 0.46516 0.0
O666 O 0.11688 0.19135 0.44788 0.0
O667 O 0.10055 0.18855 0.44107 0.0
H668 H 0.10629 0.21243 0.44351 0.0
H669 H 0.10916 0.22747 0.43426 0.0
H670 H 0.10254 0.24695 0.46022 0.0
H671 H 0.09977 0.23179 0.46947 0.0
H672 H 0.10109 0.1814 0.50343 0.0
H673 H 0.10681 0.18673 0.48754 0.0
H674 H 0.07595 0.15949 0.48759 0.0
H675 H 0.08186 0.16463 0.47174 0.0
H676 H 0.10846 0.15264 0.43342 0.0
H677 H 0.12542 0.17147 0.41348 0.0
H678 H 0.12177 0.18701 0.42346 0.0
H679 H 0.10477 0.16827 0.44333 0.0
C680 C 0.46989 0.38872 0.24973 0.0
C681 C 0.46754 0.38515 0.2396 0.0
C682 C 0.45401 0.39649 0.23845 0.0
C683 C 0.45966 0.38896 0.23403 0.0
C684 C 0.45647 0.40016 0.24859 0.0
C685 C 0.46434 0.39626 0.2542 0.0
U686 U 0.49432 0.37564 0.24953 0.0
O687 O 0.50938 0.37841 0.25884 0.0
O688 O 0.49941 0.36335 0.2578 0.0
C689 C 0.50797 0.36923 0.26199 0.0
C690 C 0.47836 0.38476 0.25547 0.0
C691 C 0.51002 0.3689 0.27276 0.0
C692 C 0.50731 0.3744 0.29004 0.0
C693 C 0.5049 0.37468 0.27981 0.0
C694 C 0.51979 0.36244 0.28619 0.0
C695 C 0.51482 0.36829 0.29334 0.0
C696 C 0.5174 0.36275 0.27601 0.0
C697 C 0.50451 0.36835 0.22425 0.0
C698 C 0.52077 0.3607 0.22292 0.0
C699 C 0.511 0.36426 0.208 0.0
C700 C 0.50343 0.36812 0.21385 0.0
C701 C 0.5198 0.36057 0.21247 0.0
C702 C 0.51318 0.36455 0.22877 0.0
C703 C 0.49675 0.37283 0.23033 0.0
O704 O 0.47805 0.37469 0.25429 0.0
O705 O 0.48794 0.38974 0.25503 0.0
O706 O 0.50049 0.38139 0.23598 0.0
O707 O 0.49067 0.36629 0.23499 0.0
H708 H 0.47186 0.37944 0.23597 0.0
H709 H 0.45809 0.38613 0.2262 0.0
H710 H 0.45224 0.40594 0.2522 0.0
H711 H 0.46612 0.39916 0.262 0.0
H712 H 0.50328 0.37893 0.29535 0.0
H713 H 0.49914 0.37945 0.27741 0.0
H714 H 0.52574 0.3578 0.28845 0.0
H715 H 0.52144 0.35826 0.27066 0.0
H716 H 0.52739 0.35781 0.22659 0.0
H717 H 0.5101 0.36441 0.19999 0.0
H718 H 0.4968 0.37107 0.21026 0.0
H719 H 0.51411 0.36467 0.23681 0.0
C720 C 0.36022 0.78347 0.96833 0.0
C721 C 0.35631 0.78251 0.9583 0.0
C722 C 0.36076 0.76508 0.95588 0.0
C723 C 0.35654 0.7734 0.95215 0.0
C724 C 0.36438 0.76595 0.96603 0.0
C725 C 0.36414 0.77511 0.97221 0.0
U726 U 0.35992 0.81182 0.96886 0.0
O727 O 0.35311 0.82308 0.97886 0.0
O728 O 0.37022 0.82514 0.97687 0.0
C729 C 0.36247 0.82829 0.98184 0.0
C730 C 0.36101 0.79347 0.9744 0.0
C731 C 0.36471 0.83049 0.99271 0.0
C732 C 0.37278 0.82664 0.00842 0.0
C733 C 0.37039 0.82417 0.99814 0.0
C734 C 0.36356 0.84158 0.00796 0.0
C735 C 0.36943 0.8354 0.01343 0.0
C736 C 0.36125 0.83915 0.99769 0.0
C737 C 0.35585 0.82163 0.94333 0.0
C738 C 0.35956 0.83959 0.94036 0.0
C739 C 0.35131 0.8268 0.92705 0.0
C740 C 0.35155 0.81914 0.93347 0.0
C741 C 0.35542 0.8371 0.93039 0.0
C742 C 0.35975 0.83191 0.9468 0.0
C743 C 0.3566 0.81334 0.94973 0.0
O744 O 0.36944 0.79994 0.97305 0.0
O745 O 0.35224 0.79773 0.97439 0.0
O746 O 0.34887 0.81171 0.95565 0.0
O747 O 0.36605 0.81319 0.95413 0.0
H748 H 0.35331 0.78892 0.95517 0.0
H749 H 0.35354 0.77292 0.94441 0.0
H750 H 0.36775 0.75971 0.9691 0.0
H751 H 0.36728 0.77577 0.97992 0.0
H752 H 0.37722 0.82169 0.01245 0.0
H753 H 0.37305 0.81739 0.99443 0.0
H754 H 0.36098 0.84844 0.01159 0.0
H755 H 0.35685 0.8441 0.99361 0.0
H756 H 0.36267 0.84747 0.94318 0.0
H757 H 0.34818 0.82461 0.91939 0.0
H758 H 0.34853 0.81122 0.93068 0.0
H759 H 0.36307 0.83397 0.95442 0.0
C760 C 0.9967 0.39004 0.77391 0.0
C761 C 0.99914 0.38507 0.78231 0.0
C762 C 0.01756 0.39297 0.78288 0.0
C763 C 0.00948 0.38649 0.78672 0.0
C764 C 0.01506 0.39803 0.77453 0.0
C765 C 0.0047 0.39654 0.77007 0.0
U766 U 0.96733 0.38238 0.77583 0.0
O767 O 0.95353 0.38925 0.7705 0.0
O768 O 0.9551 0.37326 0.76516 0.0
C769 C 0.94989 0.38111 0.76419 0.0
C770 C 0.9858 0.38861 0.76931 0.0
C771 C 0.9476 0.38321 0.75387 0.0
C772 C 0.95326 0.39032 0.73883 0.0
C773 C 0.95552 0.38829 0.74864 0.0
C774 C 0.93516 0.38208 0.73935 0.0
C775 C 0.94304 0.38725 0.73408 0.0
C776 C 0.93742 0.38009 0.74917 0.0
C777 C 0.9579 0.37412 0.80042 0.0
C778 C 0.93967 0.36682 0.80217 0.0
C779 C 0.95156 0.37269 0.81689 0.0
C780 C 0.95973 0.37555 0.81083 0.0
C781 C 0.94142 0.36833 0.81264 0.0
C782 C 0.94783 0.36973 0.79611 0.0
C783 C 0.96644 0.3776 0.79419 0.0
O784 O 0.98116 0.379 0.76777 0.0
O785 O 0.97965 0.39499 0.77318 0.0
O786 O 0.96656 0.38705 0.79185 0.0
O787 O 0.96801 0.371 0.78663 0.0
H788 H 0.99302 0.38012 0.78546 0.0
H789 H 0.01114 0.38262 0.79324 0.0
H790 H 0.02113 0.40303 0.77139 0.0
H791 H 1.00293 0.40047 0.76362 0.0
H792 H 0.95953 0.3942 0.73493 0.0
H793 H 0.96345 0.39068 0.75215 0.0
H794 H 0.92719 0.37972 0.73594 0.0
H795 H 0.93122 0.37616 0.75312 0.0
H796 H 0.932 0.36337 0.79864 0.0
H797 H 0.95315 0.37413 0.82492 0.0
H798 H 0.96744 0.379 0.81427 0.0
H799 H 0.94627 0.36862 0.78807 0.0
C800 C 0.34459 0.22599 0.52211 0.0
C801 C 0.33923 0.22507 0.53083 0.0
C802 C 0.34112 0.24373 0.53429 0.0
C803 C 0.33747 0.23385 0.53683 0.0
C804 C 0.34614 0.24463 0.52534 0.0
C805 C 0.34789 0.2358 0.51931 0.0
U806 U 0.34906 0.19856 0.52241 0.0
O807 O 0.34582 0.18489 0.51136 0.0
O808 O 0.36216 0.19039 0.51752 0.0
C809 C 0.35595 0.18397 0.51091 0.0
C810 C 0.34766 0.21676 0.51662 0.0
C811 C 0.35977 0.18283 0.50086 0.0
C812 C 0.36059 0.18774 0.48401 0.0
C813 C 0.3569 0.18903 0.49355 0.0
C814 C 0.37021 0.17419 0.48907 0.0
C815 C 0.36728 0.18029 0.48167 0.0
C816 C 0.36647 0.17544 0.49857 0.0
C817 C 0.34381 0.18721 0.54701 0.0
C818 C 0.34737 0.17014 0.55029 0.0
C819 C 0.34103 0.1814 0.56325 0.0
C820 C 0.34071 0.18896 0.55674 0.0
C821 C 0.34446 0.17195 0.56015 0.0
C822 C 0.34707 0.17774 0.54377 0.0
C823 C 0.34392 0.19551 0.54052 0.0
O824 O 0.35659 0.2141 0.52022 0.0
O825 O 0.34006 0.20891 0.51458 0.0
O826 O 0.33703 0.19379 0.53269 0.0
O827 O 0.35339 0.19967 0.53851 0.0
H828 H 0.33669 0.21755 0.53316 0.0
H829 H 0.33345 0.2329 0.5436 0.0
H830 H 0.34913 0.25213 0.52322 0.0
H831 H 0.35214 0.23665 0.51266 0.0
H832 H 0.35828 0.19261 0.47849 0.0
H833 H 0.3518 0.19485 0.49522 0.0
H834 H 0.37524 0.16829 0.48746 0.0
H835 H 0.36877 0.17061 0.50413 0.0
H836 H 0.35013 0.16297 0.54771 0.0
H837 H 0.33857 0.18297 0.57074 0.0
H838 H 0.33815 0.19623 0.55934 0.0
H839 H 0.34952 0.1763 0.53627 0.0
C840 C 0.47707 0.6256 0.26008 0.0
C841 C 0.47655 0.62877 0.27025 0.0
C842 C 0.45888 0.61902 0.26996 0.0
C843 C 0.46752 0.62557 0.27513 0.0
C844 C 0.45941 0.61596 0.25972 0.0
C845 C 0.46843 0.61923 0.25483 0.0
U846 U 0.50668 0.63377 0.26188 0.0
O847 O 0.51919 0.6287 0.25286 0.0
O848 O 0.51672 0.64496 0.25417 0.0
C849 C 0.52177 0.63783 0.24986 0.0
C850 C 0.48681 0.62848 0.25508 0.0
C851 C 0.52265 0.6379 0.23907 0.0
C852 C 0.51579 0.63243 0.22193 0.0
C853 C 0.51442 0.633 0.23217 0.0
C854 C 0.53345 0.64196 0.22541 0.0
C855 C 0.52539 0.63677 0.21844 0.0
C856 C 0.53209 0.6425 0.23563 0.0
C857 C 0.52148 0.63655 0.28756 0.0
C858 C 0.54051 0.64202 0.29 0.0
C859 C 0.5309 0.6353 0.30345 0.0
C860 C 0.52146 0.63395 0.29737 0.0
C861 C 0.54055 0.63927 0.29981 0.0
C862 C 0.53105 0.64063 0.2839 0.0
C863 C 0.51159 0.63449 0.28111 0.0
O864 O 0.49123 0.63813 0.25714 0.0
O865 O 0.49368 0.62188 0.25531 0.0
O866 O 0.51057 0.62596 0.27498 0.0
O867 O 0.50876 0.64237 0.27686 0.0
H868 H 0.48317 0.63365 0.27446 0.0
H869 H 0.46734 0.62822 0.28296 0.0
H870 H 0.45297 0.61082 0.25553 0.0
H871 H 0.46875 0.61663 0.24699 0.0
H872 H 0.50939 0.62848 0.21674 0.0
H873 H 0.50705 0.62944 0.23471 0.0
H874 H 0.54099 0.64527 0.223 0.0
H875 H 0.53852 0.64629 0.24088 0.0
H876 H 0.54782 0.64501 0.28696 0.0
H877 H 0.53065 0.63324 0.31101 0.0
H878 H 0.51414 0.63077 0.30029 0.0
H879 H 0.53121 0.64258 0.2763 0.0
C880 C 0.09018 0.78745 0.02667 0.0
C881 C 0.08498 0.79618 0.0281 0.0
C882 C 0.08422 0.79768 0.01026 0.0
C883 C 0.08197 0.8012 0.01999 0.0
C884 C 0.08907 0.78869 0.0088 0.0
C885 C 0.09205 0.78363 0.01696 0.0
U886 U 0.10124 0.79255 0.05311 0.0
O887 O 0.09947 0.78421 0.06634 0.0
O888 O 0.11532 0.78822 0.06103 0.0
C889 C 0.10966 0.78344 0.06743 0.0
C890 C 0.0947 0.78316 0.03538 0.0
C891 C 0.11243 0.77334 0.06954 0.0
C892 C 0.10902 0.75461 0.06787 0.0
C893 C 0.10668 0.76404 0.06497 0.0
C894 C 0.12306 0.76369 0.07963 0.0
C895 C 0.11711 0.75435 0.07538 0.0
C896 C 0.12073 0.77307 0.07674 0.0
C897 C 0.10228 0.82045 0.06457 0.0
C898 C 0.11077 0.82679 0.08101 0.0
C899 C 0.10242 0.8383 0.07112 0.0
C900 C 0.09953 0.83025 0.06351 0.0
C901 C 0.10813 0.83669 0.07994 0.0
C902 C 0.10786 0.81872 0.07338 0.0
C903 C 0.09953 0.81223 0.05631 0.0
O904 O 0.1047 0.7868 0.03794 0.0
O905 O 0.0888 0.78286 0.04306 0.0
O906 O 0.09191 0.8049 0.05776 0.0
O907 O 0.10764 0.80873 0.05224 0.0
H908 H 0.08354 0.79935 0.03554 0.0
H909 H 0.0781 0.808 0.02136 0.0
H910 H 0.09099 0.78583 1.00142 0.0
H911 H 0.09617 0.77697 0.01572 0.0
H912 H 0.10426 0.74755 0.06449 0.0
H913 H 0.10025 0.76409 0.05937 0.0
H914 H 0.12946 0.76375 0.0853 0.0
H915 H 0.12528 0.78016 0.08031 0.0
H916 H 0.11506 0.82527 0.08775 0.0
H917 H 0.10038 0.84586 0.07 0.0
H918 H 0.09525 0.83171 0.05673 0.0
H919 H 0.11003 0.81117 0.0743 0.0
C920 C 0.75543 0.0209 0.63389 0.0
C921 C 0.75861 0.01213 0.62873 0.0
C922 C 0.77528 0.01476 0.63904 0.0
C923 C 0.76846 0.00914 0.63124 0.0
C924 C 0.77204 0.02347 0.64425 0.0
C925 C 0.76222 0.02653 0.64166 0.0
U926 U 0.72604 0.01364 0.62658 0.0
O927 O 0.71212 0.02028 0.63172 0.0
O928 O 0.71531 0.01959 0.61587 0.0
C929 C 0.70932 0.02274 0.62283 0.0
C930 C 0.74495 0.02402 0.63145 0.0
C931 C 0.70651 0.03317 0.6225 0.0
C932 C 0.71022 0.05175 0.62666 0.0
C933 C 0.71342 0.04196 0.62662 0.0
C934 C 0.69329 0.04402 0.61827 0.0
C935 C 0.70004 0.05287 0.6226 0.0
C936 C 0.6965 0.03428 0.61823 0.0
C937 C 0.71461 0.98524 0.6235 0.0
C938 C 0.69606 0.97956 0.61808 0.0
C939 C 0.70708 0.9674 0.62394 0.0
C940 C 0.71574 0.97522 0.62557 0.0
C941 C 0.69712 0.96947 0.62021 0.0
C942 C 0.70473 0.98738 0.61974 0.0
C943 C 0.72367 0.99346 0.62564 0.0
O944 O 0.74103 0.02157 0.62215 0.0
O945 O 0.7379 0.02221 0.63801 0.0
O946 O 0.72344 0.99948 0.63397 0.0
O947 O 0.72641 0.99855 0.61809 0.0
H948 H 0.75345 0.00755 0.62279 0.0
H949 H 0.77067 1.00232 0.62718 0.0
H950 H 0.77715 0.02798 0.65025 0.0
H951 H 0.75989 0.03327 0.64577 0.0
H952 H 0.71558 0.0584 0.63011 0.0
H953 H 0.7212 0.04123 0.62994 0.0
H954 H 0.68549 0.04462 0.61493 0.0
H955 H 0.69108 0.02758 0.61497 0.0
H956 H 0.68855 0.9814 0.6151 0.0
H957 H 0.70814 0.95977 0.62581 0.0
H958 H 0.72329 0.97347 0.62855 0.0
H959 H 0.70372 0.99511 0.61813 0.0
C960 C 0.78613 1.00266 0.35988 0.0
C961 C 0.78378 0.99234 0.3557 0.0
C962 C 0.76508 0.99257 0.35833 0.0
C963 C 0.77333 0.98736 0.35488 0.0
C964 C 0.76747 1.00294 0.36241 0.0
C965 C 0.77791 0.00793 0.36315 0.0
U966 U 0.81572 1.00164 0.36396 0.0
O967 O 0.82938 0.01043 0.35793 0.0
O968 O 0.82789 0.01142 0.37412 0.0
C969 C 0.83312 0.01496 0.36679 0.0
C970 C 0.79713 0.00785 0.36131 0.0
C971 C 0.83596 0.02621 0.36754 0.0
C972 C 0.83203 0.04356 0.37207 0.0
C973 C 0.82888 0.0329 0.37088 0.0
C974 C 0.84921 0.04094 0.36627 0.0
C975 C 0.84229 0.0477 0.36989 0.0
C976 C 0.84608 0.0303 0.36514 0.0
C977 C 0.82632 0.97647 0.36585 0.0
C978 C 0.84517 0.97678 0.36997 0.0
C979 C 0.83357 0.96047 0.36712 0.0
C980 C 0.82489 0.9657 0.36532 0.0
C981 C 0.84381 0.96596 0.36949 0.0
C982 C 0.83651 0.98199 0.36815 0.0
C983 C 0.8172 0.982 0.36421 0.0
O984 O 0.80185 0.00755 0.37017 0.0
O985 O 0.8032 0.006 0.35396 0.0
O986 O 0.81699 0.9865 0.35595 0.0
O987 O 0.81508 0.98793 0.37205 0.0
H988 H 0.79005 0.98809 0.35323 0.0
H989 H 0.77174 0.97934 0.35181 0.0
H990 H 0.76126 0.00717 0.36505 0.0
H991 H 0.77959 0.01589 0.36642 0.0
H992 H 0.82653 0.04854 0.37493 0.0
H993 H 0.821 0.02987 0.37273 0.0
H994 H 0.85708 0.04386 0.36432 0.0
H995 H 0.85161 0.02524 0.36248 0.0
H996 H 0.85291 0.98125 0.37191 0.0
H997 H 0.83227 0.95213 0.36657 0.0
H998 H 0.81707 0.96134 0.36354 0.0
H999 H 0.83773 0.99033 0.36863 0.0
C1000 C 0.79216 0.96954 0.15634 0.0
C1001 C 0.80176 0.96935 0.1518 0.0
C1002 C 0.80082 0.95095 0.15314 0.0
C1003 C 0.80603 0.96014 0.15018 0.0
C1004 C 0.79116 0.95119 0.15765 0.0
C1005 C 0.78687 0.96042 0.15924 0.0
U1006 U 0.79576 0.99853 0.15732 0.0
O1007 O 0.78528 0.00921 0.15224 0.0
O1008 O 0.79079 0.01035 0.1681 0.0
C1009 C 0.78455 0.01358 0.16132 0.0
C1010 C 0.78781 0.97927 0.15824 0.0
C1011 C 0.77374 0.01466 0.16407 0.0
C1012 C 0.75492 0.00822 0.16338 0.0
C1013 C 0.76529 0.00669 0.16142 0.0
C1014 C 0.76142 0.02552 0.17103 0.0
C1015 C 0.75286 0.01771 0.16808 0.0
C1016 C 0.77176 0.02401 0.16902 0.0
C1017 C 0.82181 0.01258 0.15069 0.0
C1018 C 0.82454 0.03127 0.15183 0.0
C1019 C 0.83767 0.02154 0.14469 0.0
C1020 C 0.83149 0.01235 0.14633 0.0
C1021 C 0.83425 0.03111 0.14741 0.0
C1022 C 0.81836 0.02209 0.15343 0.0
C1023 C 0.81521 1.00291 0.15211 0.0
O1024 O 0.79236 0.98538 0.16604 0.0
O1025 O 0.78633 0.98414 0.15034 0.0
O1026 O 0.80696 1.00028 0.14563 0.0
O1027 O 0.81294 1.00184 0.16136 0.0
H1028 H 0.80596 0.97634 0.14953 0.0
H1029 H 0.8134 0.96021 0.14655 0.0
H1030 H 0.78701 0.94428 0.16013 0.0
H1031 H 0.77948 0.96046 0.16281 0.0
H1032 H 0.7485 1.00202 0.16113 0.0
H1033 H 0.76668 0.99938 0.15766 0.0
H1034 H 0.76008 0.03295 0.17457 0.0
H1035 H 0.7782 0.03024 0.17111 0.0
H1036 H 0.82163 0.0385 0.15389 0.0
H1037 H 0.84516 0.02117 0.14137 0.0
H1038 H 0.83424 0.00507 0.14415 0.0
H1039 H 0.81085 0.02238 0.15674 0.0
C1040 C 0.7054 0.96586 0.8854 0.0
C1041 C 0.69594 0.96446 0.89021 0.0
C1042 C 0.69651 0.94597 0.88913 0.0
C1043 C 0.69155 0.9546 0.89211 0.0
C1044 C 0.70609 0.94746 0.88445 0.0
C1045 C 0.7105 0.95733 0.88261 0.0
U1046 U 0.70183 0.99339 0.88175 0.0
O1047 O 0.71262 0.00792 0.8854 0.0
O1048 O 0.7068 1.00281 0.86984 0.0
C1049 C 0.71329 0.00949 0.87598 0.0
C1050 C 0.7097 0.97607 0.88279 0.0
C1051 C 0.7241 0.01175 0.87283 0.0
C1052 C 0.74181 0.00722 0.871 0.0
C1053 C 0.73151 0.00488 0.87395 0.0
C1054 C 0.73733 0.02325 0.86565 0.0
C1055 C 0.74485 0.01645 0.86684 0.0
C1056 C 0.72705 0.02091 0.86863 0.0
C1057 C 0.67536 1.00265 0.88647 0.0
C1058 C 0.67219 0.01987 0.88332 0.0
C1059 C 0.65861 0.00851 0.89019 0.0
C1060 C 0.66524 1.00085 0.88999 0.0
C1061 C 0.66201 0.01811 0.88686 0.0
C1062 C 0.67882 0.0122 0.88314 0.0
C1063 C 0.68225 0.99455 0.88629 0.0
O1064 O 0.70535 0.97864 0.8745 0.0
O1065 O 0.71093 0.98356 0.89015 0.0
O1066 O 0.6904 0.99625 0.89296 0.0
O1067 O 0.68471 0.99107 0.87738 0.0
H1068 H 0.69184 0.97096 0.89233 0.0
H1069 H 0.6841 0.9537 0.8956 0.0
H1070 H 0.71014 0.94098 0.88216 0.0
H1071 H 0.7178 0.95828 0.87886 0.0
H1072 H 0.74739 1.00179 0.87193 0.0
H1073 H 0.72932 0.99773 0.87713 0.0
H1074 H 0.73945 0.03048 0.86261 0.0
H1075 H 0.72142 0.0263 0.86772 0.0
H1076 H 0.67509 0.02722 0.88082 0.0
H1077 H 0.65078 0.00687 0.89285 0.0
H1078 H 0.66246 0.9935 0.89256 0.0
H1079 H 0.68665 0.01372 0.88043 0.0
C1080 C 0.59977 0.71098 0.95959 0.0
C1081 C 0.59764 0.71107 0.94928 0.0
C1082 C 0.60216 0.72973 0.951 0.0
C1083 C 0.59876 0.72036 0.94503 0.0
C1084 C 0.60448 0.7296 0.9613 0.0
C1085 C 0.60325 0.72029 0.96557 0.0
U1086 U 0.59934 0.68219 0.95656 0.0
O1087 O 0.60543 0.67151 0.96625 0.0
O1088 O 0.58841 0.66964 0.96152 0.0
C1089 C 0.59592 0.66654 0.96709 0.0
C1090 C 0.59851 0.70118 0.96406 0.0
C1091 C 0.59324 0.66435 0.97719 0.0
C1092 C 0.59558 0.66789 0.99529 0.0
C1093 C 0.59774 0.67069 0.98579 0.0
C1094 C 0.58414 0.65261 0.98766 0.0
C1095 C 0.58889 0.65872 0.99632 0.0
C1096 C 0.58632 0.65539 0.97821 0.0
C1097 C 0.60459 0.66948 0.93111 0.0
C1098 C 0.60163 0.65089 0.92695 0.0
C1099 C 0.61092 0.66179 0.9159 0.0
C1100 C 0.60979 0.67051 0.92235 0.0
C1101 C 0.60683 0.65189 0.91812 0.0
C1102 C 0.60056 0.65962 0.93342 0.0
C1103 C 0.60354 0.67871 0.93783 0.0
O1104 O 0.59004 0.69469 0.96063 0.0
O1105 O 0.60715 0.69677 0.96485 0.0
O1106 O 0.61095 0.68111 0.94519 0.0
O1107 O 0.59394 0.67942 0.94063 0.0
H1108 H 0.59508 0.70395 0.9445 0.0
H1109 H 0.59707 0.72021 0.93706 0.0
H1110 H 0.60707 0.73671 0.96607 0.0
H1111 H 0.605 0.72035 0.97353 0.0
H1112 H 0.59941 0.67274 1.0018 0.0
H1113 H 0.60308 0.67768 0.98518 0.0
H1114 H 0.57879 0.64561 0.98818 0.0
H1115 H 0.58273 0.65042 0.97167 0.0
H1116 H 0.5985 0.64336 0.92891 0.0
H1117 H 0.61486 0.66282 0.90911 0.0
H1118 H 0.61297 0.67807 0.92047 0.0
H1119 H 0.59659 0.65868 0.94022 0.0
C1120 C 0.97452 0.11059 0.75713 0.0
C1121 C 0.97495 0.10574 0.76592 0.0
C1122 C 0.95596 0.10572 0.76709 0.0
C1123 C 0.96575 0.10327 0.77082 0.0
C1124 C 0.95555 0.11054 0.75825 0.0
C1125 C 0.96476 0.11292 0.75331 0.0
U1126 U 1.00418 0.11879 0.75891 0.0
O1127 O 0.01667 0.11451 0.74944 0.0
O1128 O 0.01395 0.13068 0.75179 0.0
C1129 C 0.01908 0.12391 0.747 0.0
C1130 C 0.98426 0.11369 0.7522 0.0
C1131 C 0.01994 0.12476 0.73629 0.0
C1132 C 0.0135 0.11995 0.71894 0.0
C1133 C 0.0121 0.11964 0.72912 0.0
C1134 C 0.03041 0.13078 0.72305 0.0
C1135 C 0.02274 0.12542 0.71579 0.0
C1136 C 0.02901 0.13043 0.7332 0.0
C1137 C 0.01914 0.121 0.78447 0.0
C1138 C 0.03815 0.12659 0.78684 0.0
C1139 C 0.02829 0.12176 0.80086 0.0
C1140 C 0.01895 0.11964 0.79461 0.0
C1141 C 0.038 0.12528 0.79706 0.0
C1142 C 0.02878 0.12446 0.7806 0.0
C1143 C 0.00925 0.11875 0.77803 0.0
O1144 O 0.98862 0.12329 0.75469 0.0
O1145 O 0.9912 0.10712 0.75197 0.0
O1146 O 0.00853 0.1105 0.77156 0.0
O1147 O 0.00608 0.1267 0.77417 0.0
H1148 H 0.98244 0.104 0.76908 0.0
H1149 H 0.96634 0.0997 0.77768 0.0
H1150 H 0.94811 0.11246 0.75517 0.0
H1151 H 0.96428 0.11672 0.74656 0.0
H1152 H 0.0074 0.11583 0.71353 0.0
H1153 H 0.005 0.11526 0.73138 0.0
H1154 H 0.03767 0.13494 0.7209 0.0
H1155 H 0.03515 0.13441 0.73865 0.0
H1156 H 0.04546 0.12939 0.7837 0.0
H1157 H 0.02792 0.12051 0.80865 0.0
H1158 H 0.01157 0.11692 0.7977 0.0
H1159 H 0.02905 0.12555 0.77276 0.0
C1160 C 0.85943 0.29896 0.46357 0.0
C1161 C 0.85565 0.29757 0.45349 0.0
C1162 C 0.86036 0.2802 0.45182 0.0
C1163 C 0.85606 0.28827 0.44768 0.0
C1164 C 0.86388 0.28152 0.46202 0.0
C1165 C 0.86344 0.29086 0.46784 0.0
U1166 U 0.85948 0.32725 0.46299 0.0
O1167 O 0.85206 0.33886 0.47198 0.0
O1168 O 0.86937 0.34076 0.47116 0.0
C1169 C 0.86126 0.34418 0.47534 0.0
C1170 C 0.85997 0.30913 0.46929 0.0
C1171 C 0.86269 0.34705 0.48619 0.0
C1172 C 0.86951 0.34431 0.50277 0.0
C1173 C 0.86786 0.34114 0.49252 0.0
C1174 C 0.86057 0.35915 0.50047 0.0
C1175 C 0.86593 0.35338 0.50684 0.0
C1176 C 0.85899 0.35601 0.49024 0.0
C1177 C 0.85724 0.33624 0.43696 0.0
C1178 C 0.86126 0.35408 0.43364 0.0
C1179 C 0.85382 0.34096 0.42028 0.0
C1180 C 0.85356 0.3335 0.42695 0.0
C1181 C 0.85781 0.35132 0.42351 0.0
C1182 C 0.86097 0.34659 0.44032 0.0
C1183 C 0.85749 0.32816 0.44366 0.0
O1184 O 0.86859 0.31549 0.46823 0.0
O1185 O 0.85126 0.31345 0.4686 0.0
O1186 O 0.84932 0.3267 0.44911 0.0
O1187 O 0.86664 0.32812 0.44866 0.0
H1188 H 0.85259 0.30377 0.45003 0.0
H1189 H 0.85313 0.28745 0.43991 0.0
H1190 H 0.86732 0.27549 0.4654 0.0
H1191 H 0.86648 0.29185 0.47559 0.0
H1192 H 0.87357 0.33966 0.50751 0.0
H1193 H 0.8707 0.33414 0.48953 0.0
H1194 H 0.85784 0.36623 0.50335 0.0
H1195 H 0.85499 0.36066 0.48545 0.0
H1196 H 0.86446 0.36196 0.43636 0.0
H1197 H 0.85091 0.33861 0.41258 0.0
H1198 H 0.8506 0.32554 0.42425 0.0
H1199 H 0.86383 0.34884 0.44805 0.0
C1200 C 0.48554 0.8917 0.76537 0.0
C1201 C 0.48746 0.89577 0.77543 0.0
C1202 C 0.4687 0.89726 0.77656 0.0
C1203 C 0.47916 0.89859 0.78093 0.0
C1204 C 0.46681 0.89322 0.76645 0.0
C1205 C 0.47517 0.89048 0.76091 0.0
U1206 U 0.51089 0.87991 0.7651 0.0
O1207 O 0.51699 0.86899 0.7542 0.0
O1208 O 0.52604 0.8843 0.75866 0.0
C1209 C 0.52517 0.8757 0.75262 0.0
C1210 C 0.49424 0.88834 0.75968 0.0
C1211 C 0.52748 0.87677 0.7421 0.0
C1212 C 0.5259 0.87001 0.72452 0.0
C1213 C 0.52289 0.86938 0.73427 0.0
C1214 C 0.53807 0.88548 0.73021 0.0
C1215 C 0.53359 0.87802 0.72239 0.0
C1216 C 0.53509 0.88483 0.73994 0.0
C1217 C 0.52102 0.87184 0.79003 0.0
C1218 C 0.53696 0.86376 0.79213 0.0
C1219 C 0.52726 0.86827 0.80648 0.0
C1220 C 0.5199 0.87213 0.8003 0.0
C1221 C 0.53588 0.86403 0.80248 0.0
C1222 C 0.52958 0.86765 0.78596 0.0
C1223 C 0.51324 0.87608 0.78376 0.0
O1224 O 0.50367 0.89367 0.76215 0.0
O1225 O 0.49441 0.87833 0.75853 0.0
O1226 O 0.50781 0.86953 0.77671 0.0
O1227 O 0.51656 0.88505 0.78073 0.0
H1228 H 0.49539 0.89671 0.77908 0.0
H1229 H 0.48099 0.90184 0.78863 0.0
H1230 H 0.45885 0.89196 0.76287 0.0
H1231 H 0.4735 0.88727 0.75318 0.0
H1232 H 0.52225 0.86418 0.71865 0.0
H1233 H 0.5171 0.86299 0.73568 0.0
H1234 H 0.54415 0.89165 0.72887 0.0
H1235 H 0.53894 0.89054 0.74582 0.0
H1236 H 0.54345 0.86047 0.7888 0.0
H1237 H 0.52628 0.86877 0.81442 0.0
H1238 H 0.51336 0.8754 0.80357 0.0
H1239 H 0.53055 0.86739 0.77802 0.0
C1240 C 1.00065 0.14442 0.24 0.0
C1241 C 0.99446 0.15249 0.24037 0.0
C1242 C 0.98915 0.14838 0.22265 0.0
C1243 C 0.9888 0.15448 0.23176 0.0
C1244 C 0.99572 0.14057 0.22224 0.0
C1245 C 1.0014 0.13859 0.23087 0.0
U1246 U 1.00111 0.14551 0.2679 0.0
O1247 O 1.00122 0.1333 0.27786 0.0
O1248 O 0.01399 0.14645 0.27969 0.0
C1249 C 0.01035 0.13745 0.28252 0.0
C1250 C 0.00534 0.14141 0.24928 0.0
C1251 C 0.01814 0.13032 0.28382 0.0
C1252 C 0.03158 0.12038 0.27753 0.0
C1253 C 0.02433 0.12732 0.27607 0.0
C1254 C 0.02638 0.11937 0.29443 0.0
C1255 C 0.03264 0.11629 0.28673 0.0
C1256 C 0.01921 0.12631 0.29298 0.0
C1257 C 0.98164 0.16078 0.28101 0.0
C1258 C 0.98149 0.1629 0.29908 0.0
C1259 C 0.96639 0.16636 0.28881 0.0
C1260 C 0.97156 0.16389 0.28023 0.0
C1261 C 0.97124 0.16578 0.29835 0.0
C1262 C 0.98663 0.16037 0.29049 0.0
C1263 C 0.98653 0.15734 0.27191 0.0
O1264 O 0.01081 0.14895 0.25537 0.0
O1265 O 0.99879 0.13523 0.25386 0.0
O1266 O 0.98433 0.14742 0.26901 0.0
O1267 O 0.9966 0.16096 0.27145 0.0
H1268 H 0.99372 0.15702 0.24738 0.0
H1269 H 0.98393 0.16063 0.2323 0.0
H1270 H 0.99607 0.13566 0.21537 0.0
H1271 H 0.00606 0.13227 0.23048 0.0
H1272 H 0.03624 0.11811 0.27145 0.0
H1273 H 0.02354 0.13032 0.26892 0.0
H1274 H 0.02714 0.11652 0.30166 0.0
H1275 H 0.01448 0.12856 0.29903 0.0
H1276 H 0.98551 0.16249 0.3063 0.0
H1277 H 0.95845 0.16837 0.28794 0.0
H1278 H 0.96757 0.16415 0.27297 0.0
H1279 H 0.9944 0.15793 0.29123 0.0
C1280 C 0.48611 0.13304 0.73465 0.0
C1281 C 0.48499 0.13716 0.72552 0.0
C1282 C 0.46703 0.12795 0.7224 0.0
C1283 C 0.47553 0.13469 0.71948 0.0
C1284 C 0.46816 0.12396 0.73164 0.0
C1285 C 0.47763 0.12649 0.73771 0.0
U1286 U 0.5158 0.1403 0.73594 0.0
O1287 O 0.52696 0.15021 0.7471 0.0
O1288 O 0.52874 0.13391 0.74353 0.0
C1289 C 0.53194 0.14252 0.74934 0.0
C1290 C 0.49632 0.13506 0.74067 0.0
C1291 C 0.53346 0.14137 0.76001 0.0
C1292 C 0.52719 0.13459 0.77501 0.0
C1293 C 0.52533 0.1363 0.76503 0.0
C1294 C 0.54518 0.1433 0.77511 0.0
C1295 C 0.53718 0.13796 0.78012 0.0
C1296 C 0.54333 0.14497 0.76514 0.0
C1297 C 0.5284 0.14504 0.71151 0.0
C1298 C 0.54653 0.15301 0.71025 0.0
C1299 C 0.53689 0.14244 0.69601 0.0
C1300 C 0.52806 0.14071 0.70157 0.0
C1301 C 0.54623 0.14859 0.70029 0.0
C1302 C 0.5377 0.15119 0.71584 0.0
C1303 C 0.51911 0.14273 0.71727 0.0
O1304 O 0.50284 0.12833 0.73863 0.0
O1305 O 0.501 0.14466 0.74161 0.0
O1306 O 0.51701 0.15021 0.72375 0.0
O1307 O 0.51822 0.13372 0.72076 0.0
H1308 H 0.49148 0.14219 0.72298 0.0
H1309 H 0.47489 0.13805 0.71251 0.0
H1310 H 0.46184 0.11864 0.73406 0.0
H1311 H 0.4784 0.12316 0.74469 0.0
H1312 H 0.52083 0.13056 0.77869 0.0
H1313 H 0.51764 0.1335 0.76118 0.0
H1314 H 0.553 0.14589 0.7788 0.0
H1315 H 0.54969 0.14888 0.76135 0.0
H1316 H 0.55366 0.1577 0.71376 0.0
H1317 H 0.53638 0.13904 0.68832 0.0
H1318 H 0.52095 0.13592 0.69812 0.0
H1319 H 0.53817 0.15452 0.72356 0.0
C1320 C 0.11955 0.26163 0.95364 0.0
C1321 C 0.11759 0.25924 0.94327 0.0
C1322 C 0.12602 0.24372 0.94391 0.0
C1323 C 0.12072 0.25035 0.93847 0.0
C1324 C 0.12798 0.24617 0.95432 0.0
C1325 C 0.12476 0.25504 0.95913 0.0
U1326 U 0.11513 0.28927 0.95265 0.0
O1327 O 0.10246 0.29781 0.95803 0.0
O1328 O 0.11908 0.30304 0.96348 0.0
C1329 C 0.10907 0.30426 0.96428 0.0
C1330 C 0.11652 0.27115 0.95867 0.0
C1331 C 0.10578 0.306 0.9745 0.0
C1332 C 0.10663 0.30286 0.99195 0.0
C1333 C 0.10942 0.30061 0.98217 0.0
C1334 C 0.09626 0.31566 0.98638 0.0
C1335 C 0.10009 0.31049 0.99417 0.0
C1336 C 0.0991 0.31344 0.97665 0.0
C1337 C 0.12045 0.30124 0.92863 0.0
C1338 C 0.11743 0.31879 0.92673 0.0
C1339 C 0.12548 0.30902 0.91376 0.0
C1340 C 0.12479 0.30061 0.91934 0.0
C1341 C 0.12181 0.31822 0.91739 0.0
C1342 C 0.11677 0.31036 0.93231 0.0
C1343 C 0.12005 0.29243 0.93451 0.0
O1344 O 0.12423 0.27892 0.96041 0.0
O1345 O 0.10757 0.27383 0.9551 0.0
O1346 O 0.11052 0.28849 0.9366 0.0
O1347 O 0.1271 0.29354 0.94218 0.0
H1348 H 0.11365 0.26426 0.93886 0.0
H1349 H 0.11889 0.24865 0.9305 0.0
H1350 H 0.13217 0.24134 0.95873 0.0
H1351 H 0.12643 0.25682 0.96712 0.0
H1352 H 0.10961 0.29867 0.99777 0.0
H1353 H 0.11453 0.29477 0.98064 0.0
H1354 H 0.09133 0.32166 0.98786 0.0
H1355 H 0.09622 0.31768 0.97081 0.0
H1356 H 0.11443 0.32571 0.92968 0.0
H1357 H 0.12903 0.30838 0.90667 0.0
H1358 H 0.12774 0.29363 0.91643 0.0
H1359 H 0.11341 0.31097 0.9395 0.0
C1360 C 0.35302 0.70202 0.49877 0.0
C1361 C 0.34822 0.69203 0.49993 0.0
C1362 C 0.35779 0.69281 0.51621 0.0
C1363 C 0.35051 0.6875 0.50858 0.0
C1364 C 0.36242 0.70292 0.51511 0.0
C1365 C 0.36004 0.70747 0.50646 0.0
U1366 U 0.34855 0.69782 0.47079 0.0
O1367 O 0.33849 0.70435 0.45999 0.0
O1368 O 0.35579 0.70616 0.459 0.0
C1369 C 0.34666 0.7085 0.45554 0.0
C1370 C 0.35144 0.70642 0.48927 0.0
C1371 C 0.34664 0.71916 0.45307 0.0
C1372 C 0.33905 0.73522 0.4537 0.0
C1373 C 0.33965 0.7256 0.45714 0.0
C1374 C 0.35265 0.73221 0.44239 0.0
C1375 C 0.34539 0.73852 0.44613 0.0
C1376 C 0.35324 0.72263 0.44581 0.0
C1377 C 0.34711 0.67073 0.458 0.0
C1378 C 0.34327 0.66732 0.44006 0.0
C1379 C 0.34967 0.65427 0.44936 0.0
C1380 C 0.35005 0.66087 0.4582 0.0
C1381 C 0.34633 0.65744 0.44017 0.0
C1382 C 0.34369 0.67392 0.44889 0.0
C1383 C 0.34814 0.67782 0.46722 0.0
O1384 O 0.35923 0.70587 0.48337 0.0
O1385 O 0.34199 0.70386 0.48453 0.0
O1386 O 0.33968 0.68218 0.46922 0.0
O1387 O 0.35697 0.68433 0.4685 0.0
H1388 H 0.34284 0.68762 0.49405 0.0
H1389 H 0.34666 0.67979 0.50924 0.0
H1390 H 0.36815 0.70718 0.52077 0.0
H1391 H 0.36392 0.71515 0.50566 0.0
H1392 H 0.33334 0.73989 0.4567 0.0
H1393 H 0.33446 0.72311 0.46276 0.0
H1394 H 0.35779 0.7346 0.4367 0.0
H1395 H 0.35868 0.7178 0.44256 0.0
H1396 H 0.34052 0.66996 0.43314 0.0
H1397 H 0.35223 0.64679 0.44971 0.0
H1398 H 0.3528 0.65833 0.46517 0.0
H1399 H 0.34144 0.68154 0.44861 0.0
C1400 C 0.73817 0.48106 0.85185 0.0
C1401 C 0.73948 0.49117 0.84924 0.0
C1402 C 0.72034 0.49107 0.84803 0.0
C1403 C 0.73066 0.49611 0.84731 0.0
C1404 C 0.71904 0.48084 0.85045 0.0
C1405 C 0.72791 0.47589 0.85237 0.0
U1406 U 0.76754 0.4843 0.85766 0.0
O1407 O 0.77756 0.47853 0.86905 0.0
O1408 O 0.7799 0.47496 0.85315 0.0
C1409 C 0.78246 0.47331 0.86237 0.0
C1410 C 0.74755 0.47623 0.85447 0.0
C1411 C 0.78363 0.46255 0.86394 0.0
C1412 C 0.78096 0.44777 0.87346 0.0
C1413 C 0.77901 0.4577 0.87176 0.0
C1414 C 0.79199 0.44735 0.85946 0.0
C1415 C 0.78752 0.44251 0.86735 0.0
C1416 C 0.7901 0.45726 0.8578 0.0
C1417 C 0.78239 0.51131 0.85709 0.0
C1418 C 0.8009 0.51603 0.86307 0.0
C1419 C 0.79166 0.52812 0.85477 0.0
C1420 C 0.78244 0.52095 0.85353 0.0
C1421 C 0.80097 0.52577 0.85962 0.0
C1422 C 0.79169 0.50884 0.86179 0.0
C1423 C 0.77256 0.50399 0.85594 0.0
O1424 O 0.75439 0.47586 0.84755 0.0
O1425 O 0.75209 0.47944 0.86343 0.0
O1426 O 0.76943 0.50045 0.8642 0.0
O1427 O 0.77185 0.4968 0.84835 0.0
H1428 H 0.74735 0.4953 0.84881 0.0
H1429 H 0.73194 0.50392 0.8453 0.0
H1430 H 0.7112 0.47678 0.85114 0.0
H1431 H 0.72677 0.4681 0.85444 0.0
H1432 H 0.77735 0.44422 0.87956 0.0
H1433 H 0.774 0.46159 0.87664 0.0
H1434 H 0.79723 0.44359 0.85473 0.0
H1435 H 0.79387 0.46088 0.85181 0.0
H1436 H 0.80798 0.51395 0.86675 0.0
H1437 H 0.79142 0.5356 0.85213 0.0
H1438 H 0.77531 0.52296 0.84988 0.0
H1439 H 0.79179 0.50139 0.86452 0.0
C1440 C 0.6903 0.47606 0.14871 0.0
C1441 C 0.68042 0.47328 0.1433 0.0
C1442 C 0.67988 0.45564 0.14743 0.0
C1443 C 0.67529 0.46317 0.14262 0.0
C1444 C 0.68981 0.45848 0.15283 0.0
C1445 C 0.69497 0.46861 0.15345 0.0
U1446 U 0.68862 0.5044 0.14791 0.0
O1447 O 0.69692 0.51817 0.15712 0.0
O1448 O 0.69848 0.51629 0.14094 0.0
C1449 C 0.7018 0.52164 0.14955 0.0
C1450 C 0.69561 0.48675 0.14959 0.0
C1451 C 0.71337 0.52475 0.15109 0.0
C1452 C 0.73052 0.5245 0.15996 0.0
C1453 C 0.71953 0.52144 0.15882 0.0
C1454 C 0.72932 0.53411 0.14563 0.0
C1455 C 0.73553 0.5308 0.15332 0.0
C1456 C 0.71836 0.53114 0.14456 0.0
C1457 C 0.66168 0.51279 0.14239 0.0
C1458 C 0.65983 0.53086 0.14192 0.0
C1459 C 0.64464 0.51773 0.13739 0.0
C1460 C 0.65093 0.51009 0.13922 0.0
C1461 C 0.64901 0.52821 0.1387 0.0
C1462 C 0.66612 0.5232 0.14373 0.0
C1463 C 0.66825 0.50468 0.14406 0.0
O1464 O 0.69557 0.49114 0.14126 0.0
O1465 O 0.69327 0.49274 0.15729 0.0
O1466 O 0.67269 0.50509 0.15316 0.0
O1467 O 0.67476 0.50291 0.1371 0.0
H1468 H 0.67665 0.47895 0.13962 0.0
H1469 H 0.66775 0.46124 0.13827 0.0
H1470 H 0.6935 0.45293 0.15674 0.0
H1471 H 0.70257 0.47065 0.15771 0.0
H1472 H 0.73513 0.52181 0.16592 0.0
H1473 H 0.71588 0.51646 0.16394 0.0
H1474 H 0.73294 0.53909 0.14049 0.0
H1475 H 0.71376 0.53382 0.13858 0.0
H1476 H 0.66342 0.53885 0.14312 0.0
H1477 H 0.63638 0.51541 0.13478 0.0
H1478 H 0.64741 0.50207 0.13808 0.0
H1479 H 0.67443 0.5254 0.14617 0.0
C1480 C 0.71473 0.51876 0.37125 0.0
C1481 C 0.70526 0.51845 0.37606 0.0
C1482 C 0.70489 0.53665 0.37447 0.0
C1483 C 0.70039 0.52731 0.37767 0.0
C1484 C 0.71451 0.53697 0.36982 0.0
C1485 C 0.71938 0.52808 0.36821 0.0
U1486 U 0.71234 0.49 0.37098 0.0
O1487 O 0.71587 0.47797 0.3596 0.0
O1488 O 0.72374 0.47959 0.37471 0.0
C1489 C 0.72316 0.475 0.36554 0.0
C1490 C 0.71942 0.50926 0.36902 0.0
C1491 C 0.73335 0.47392 0.36126 0.0
C1492 C 0.75174 0.48043 0.35914 0.0
C1493 C 0.74196 0.48188 0.36285 0.0
C1494 C 0.7443 0.4632 0.35193 0.0
C1495 C 0.75304 0.47103 0.35371 0.0
C1496 C 0.73455 0.46464 0.35569 0.0
C1497 C 0.68714 0.47652 0.38061 0.0
C1498 C 0.68204 0.45796 0.37837 0.0
C1499 C 0.67219 0.46874 0.38887 0.0
C1500 C 0.67888 0.47748 0.38688 0.0
C1501 C 0.67364 0.45889 0.38458 0.0
C1502 C 0.68876 0.46671 0.37643 0.0
C1503 C 0.69389 0.48583 0.37841 0.0
O1504 O 0.72206 0.50468 0.37684 0.0
O1505 O 0.71429 0.50284 0.36171 0.0
O1506 O 0.69495 0.48671 0.3689 0.0
O1507 O 0.70286 0.48826 0.38397 0.0
H1508 H 0.70155 0.5113 0.37845 0.0
H1509 H 0.69308 0.52683 0.38141 0.0
H1510 H 0.71812 0.54402 0.36718 0.0
H1511 H 0.72667 0.52843 0.36443 0.0
H1512 H 0.7583 0.48664 0.36054 0.0
H1513 H 0.74116 0.48915 0.36706 0.0
H1514 H 0.74507 0.45584 0.34789 0.0
H1515 H 0.72799 0.45842 0.35439 0.0
H1516 H 0.68343 0.45046 0.37505 0.0
H1517 H 0.66573 0.46973 0.39358 0.0
H1518 H 0.67753 0.48501 0.39016 0.0
H1519 H 0.69517 0.46583 0.37162 0.0
C1520 C 0.77 0.54247 0.62321 0.0
C1521 C 0.76789 0.5319 0.61995 0.0
C1522 C 0.7513 0.53055 0.6281 0.0
C1523 C 0.75862 0.52603 0.62229 0.0
C1524 C 0.75334 0.5412 0.63123 0.0
C1525 C 0.76263 0.54711 0.62881 0.0
U1526 U 0.79875 0.54217 0.61957 0.0
O1527 O 0.80938 0.5488 0.60887 0.0
O1528 O 0.81324 0.55265 0.62503 0.0
C1529 C 0.8158 0.55433 0.61597 0.0
C1530 C 0.78021 0.54838 0.62137 0.0
C1531 C 0.81953 0.56507 0.61431 0.0
C1532 C 0.82255 0.58345 0.61984 0.0
C1533 C 0.81755 0.57351 0.62082 0.0
C1534 C 0.8311 0.57669 0.60553 0.0
C1535 C 0.82963 0.58509 0.61235 0.0
C1536 C 0.82612 0.56679 0.60652 0.0
C1537 C 0.80871 0.5163 0.62121 0.0
C1538 C 0.82667 0.51361 0.61769 0.0
C1539 C 0.81504 0.50024 0.62431 0.0
C1540 C 0.80698 0.50648 0.62443 0.0
C1541 C 0.82498 0.50373 0.62093 0.0
C1542 C 0.81861 0.51986 0.61786 0.0
C1543 C 0.80018 0.52277 0.62152 0.0
O1544 O 0.78751 0.54942 0.62884 0.0
O1545 O 0.78384 0.54585 0.61267 0.0
O1546 O 0.79735 0.52604 0.61301 0.0
O1547 O 0.80112 0.52997 0.62912 0.0
H1548 H 0.7735 0.52811 0.61569 0.0
H1549 H 0.75723 0.51791 0.61958 0.0
H1550 H 0.74792 0.54491 0.63578 0.0
H1551 H 0.76418 0.55524 0.63149 0.0
H1552 H 0.82129 0.58975 0.62524 0.0
H1553 H 0.81247 0.57238 0.62689 0.0
H1554 H 0.83636 0.57773 0.59959 0.0
H1555 H 0.82775 0.5604 0.60141 0.0
H1556 H 0.83427 0.51655 0.61514 0.0
H1557 H 0.81343 0.49263 0.62672 0.0
H1558 H 0.79938 0.50363 0.62705 0.0
H1559 H 0.82008 0.52747 0.6154 0.0
C1560 C 0.50553 0.13896 0.26834 0.0
C1561 C 0.49622 0.14355 0.2688 0.0
C1562 C 0.49524 0.14049 0.28624 0.0
C1563 C 0.49112 0.14433 0.27768 0.0
C1564 C 0.5047 0.13608 0.28576 0.0
C1565 C 0.50979 0.13532 0.27688 0.0
U1566 U 0.50615 0.14182 0.24068 0.0
O1567 O 0.51959 0.14569 0.23157 0.0
O1568 O 0.5093 0.13085 0.22824 0.0
C1569 C 0.51804 0.13659 0.22633 0.0
C1570 C 0.51059 0.13757 0.25891 0.0
C1571 C 0.52742 0.13125 0.22556 0.0
C1572 C 0.53929 0.12009 0.23207 0.0
C1573 C 0.53057 0.12546 0.23312 0.0
C1574 C 0.54188 0.12645 0.21603 0.0
C1575 C 0.54502 0.1205 0.22349 0.0
C1576 C 0.53315 0.13176 0.21706 0.0
C1577 C 0.48459 0.15397 0.22752 0.0
C1578 C 0.48456 0.15558 0.20976 0.0
C1579 C 0.46951 0.15957 0.21885 0.0
C1580 C 0.47458 0.15724 0.22765 0.0
C1581 C 0.4744 0.15866 0.20979 0.0
C1582 C 0.4896 0.15322 0.21855 0.0
C1583 C 0.48952 0.15091 0.23667 0.0
O1584 O 0.50508 0.13092 0.252 0.0
O1585 O 0.5147 0.14609 0.25547 0.0
O1586 O 0.49891 0.156 0.23976 0.0
O1587 O 0.48901 0.14091 0.23694 0.0
H1588 H 0.4928 0.14637 0.26223 0.0
H1589 H 0.48379 0.14765 0.27775 0.0
H1590 H 0.50815 0.13318 0.29226 0.0
H1591 H 0.51699 0.13176 0.27664 0.0
H1592 H 0.54157 0.11565 0.23798 0.0
H1593 H 0.52624 0.12502 0.23977 0.0
H1594 H 0.54603 0.12681 0.20927 0.0
H1595 H 0.5308 0.13618 0.21116 0.0
H1596 H 0.48847 0.15468 0.20288 0.0
H1597 H 0.46175 0.16204 0.21915 0.0
H1598 H 0.47061 0.15785 0.23452 0.0
H1599 H 0.49732 0.15063 0.21833 0.0
C1600 C 0.97357 0.90872 0.76378 0.0
C1601 C 0.97212 0.90693 0.75334 0.0
C1602 C 0.95931 0.9191 0.75317 0.0
C1603 C 0.96504 0.91204 0.74809 0.0
C1604 C 0.96088 0.92097 0.76364 0.0
C1605 C 0.96794 0.91579 0.7689 0.0
U1606 U 0.99616 0.89296 0.76321 0.0
O1607 O 0.99924 0.87946 0.77076 0.0
O1608 O 0.01067 0.89367 0.77304 0.0
C1609 C 0.00805 0.88431 0.77552 0.0
C1610 C 0.98111 0.90337 0.76925 0.0
C1611 C 0.0095 0.88302 0.78619 0.0
C1612 C 0.00881 0.88899 0.80374 0.0
C1613 C 0.00668 0.89017 0.79364 0.0
C1614 C 0.01633 0.87341 0.79896 0.0
C1615 C 0.01376 0.88064 0.80651 0.0
C1616 C 0.01422 0.8746 0.78892 0.0
C1617 C 0.00725 0.88607 0.73838 0.0
C1618 C 0.02294 0.87745 0.73766 0.0
C1619 C 0.01405 0.88133 0.7224 0.0
C1620 C 0.00656 0.88574 0.72796 0.0
C1621 C 0.02238 0.87721 0.72719 0.0
C1622 C 0.01543 0.88183 0.7432 0.0
C1623 C 0.99959 0.89105 0.74419 0.0
O1624 O 0.97973 0.89329 0.76723 0.0
O1625 O 0.99111 0.90749 0.76943 0.0
O1626 O 1.00375 0.89906 0.75043 0.0
O1627 O 0.99253 0.88476 0.74812 0.0
H1628 H 0.9765 0.90158 0.74924 0.0
H1629 H 0.96416 0.91056 0.74002 0.0
H1630 H 0.95654 0.92632 0.76776 0.0
H1631 H 0.96901 0.9173 0.77696 0.0
H1632 H 0.00664 0.89464 0.80937 0.0
H1633 H 1.00297 0.89671 0.79166 0.0
H1634 H 0.02029 0.86698 0.80081 0.0
H1635 H 0.01648 0.86903 0.78325 0.0
H1636 H 0.02919 0.87424 0.74156 0.0
H1637 H 0.01347 0.88138 0.71437 0.0
H1638 H 1.0003 0.88901 0.72413 0.0
H1639 H 0.01604 0.88199 0.75126 0.0
C1640 C 0.50828 0.88821 0.28524 0.0
C1641 C 0.5093 0.89306 0.29506 0.0
C1642 C 0.52852 0.89375 0.29546 0.0
C1643 C 0.51931 0.89586 0.30009 0.0
C1644 C 0.52745 0.88894 0.28559 0.0
C1645 C 0.51741 0.88621 0.28053 0.0
U1646 U 0.47901 0.8784 0.2858 0.0
O1647 O 0.46495 0.88289 0.27809 0.0
O1648 O 0.46839 0.86698 0.2755 0.0
C1649 C 0.46252 0.87387 0.27278 0.0
C1650 C 0.49775 0.88492 0.27999 0.0
C1651 C 0.46094 0.87427 0.26198 0.0
C1652 C 0.46767 0.87894 0.24637 0.0
C1653 C 0.46935 0.87814 0.25657 0.0
C1654 C 0.4492 0.87182 0.24687 0.0
C1655 C 0.45755 0.87587 0.24142 0.0
C1656 C 0.45088 0.87105 0.25708 0.0
C1657 C 0.46789 0.87364 0.31073 0.0
C1658 C 0.44909 0.86824 0.31195 0.0
C1659 C 0.46106 0.8715 0.3269 0.0
C1660 C 0.46958 0.87396 0.3211 0.0
C1661 C 0.4507 0.86868 0.3224 0.0
C1662 C 0.45762 0.8707 0.30616 0.0
C1663 C 0.47683 0.87666 0.30479 0.0
O1664 O 0.4941 0.87509 0.27992 0.0
O1665 O 0.49056 0.89101 0.28191 0.0
O1666 O 0.47651 0.88533 0.30082 0.0
O1667 O 0.47951 0.86926 0.29856 0.0
H1668 H 0.50234 0.89462 0.29888 0.0
H1669 H 0.51983 0.8997 0.30762 0.0
H1670 H 0.53433 0.88706 0.28184 0.0
H1671 H 0.51677 0.88241 0.27298 0.0
H1672 H 0.4743 0.88196 0.24236 0.0
H1673 H 0.47719 0.88063 0.26026 0.0
H1674 H 0.44128 0.86951 0.24331 0.0
H1675 H 0.4443 0.86807 0.26118 0.0
H1676 H 0.44123 0.86599 0.30824 0.0
H1677 H 0.46256 0.87205 0.33493 0.0
H1678 H 0.47747 0.87625 0.32474 0.0
H1679 H 0.4562 0.87041 0.29813 0.0
C1680 C 0.84729 0.72221 0.03417 0.0
C1681 C 0.84292 0.72333 0.04346 0.0
C1682 C 0.84659 0.742 0.044 0.0
C1683 C 0.84253 0.73314 0.04831 0.0
C1684 C 0.85074 0.74082 0.03459 0.0
C1685 C 0.85108 0.73099 0.02971 0.0
U1686 U 0.84872 0.69423 0.03682 0.0
O1687 O 0.84294 0.68001 0.02701 0.0
O1688 O 0.85998 0.68403 0.03136 0.0
C1689 C 0.85256 0.67774 0.02581 0.0
C1690 C 0.84868 0.71194 0.02955 0.0
C1691 C 0.85503 0.67502 0.01548 0.0
C1692 C 0.85549 0.67845 0.99815 0.0
C1693 C 0.85318 0.68133 0.00796 0.0
C1694 C 0.86167 0.66304 1.00337 0.0
C1695 C 0.85969 0.66922 0.99573 0.0
C1696 C 0.85934 0.66591 0.01314 0.0
C1697 C 0.84519 0.68478 0.0622 0.0
C1698 C 0.84867 0.66764 0.06528 0.0
C1699 C 0.84196 0.67862 0.07824 0.0
C1700 C 0.84186 0.68635 0.07187 0.0
C1701 C 0.84544 0.6692 0.07504 0.0
C1702 C 0.84853 0.67536 0.0589 0.0
C1703 C 0.84536 0.69306 0.05568 0.0
O1704 O 0.8574 0.70861 0.03279 0.0
O1705 O 0.84025 0.7049 0.02893 0.0
O1706 O 0.83766 0.6918 0.04856 0.0
O1707 O 0.85471 0.69617 0.05258 0.0
H1708 H 0.84008 0.71662 0.04708 0.0
H1709 H 0.83943 0.73378 0.05561 0.0
H1710 H 0.85384 0.7475 0.03104 0.0
H1711 H 0.85452 0.73025 0.02257 0.0
H1712 H 0.8538 0.68334 0.99243 0.0
H1713 H 0.84989 0.68843 0.00967 0.0
H1714 H 0.86509 0.656 1.00182 0.0
H1715 H 0.8609 0.661 0.01888 0.0
H1716 H 0.85127 0.66043 0.06256 0.0
H1717 H 0.83953 0.6801 0.08574 0.0
H1718 H 0.83927 0.69359 0.07452 0.0
H1719 H 0.85108 0.67402 0.05143 0.0
C1720 C 0.59629 0.29567 0.52259 0.0
C1721 C 0.59898 0.30623 0.52185 0.0
C1722 C 0.59264 0.30373 0.50432 0.0
C1723 C 0.59723 0.31021 0.5128 0.0
C1724 C 0.58963 0.29319 0.50515 0.0
C1725 C 0.59149 0.28918 0.51423 0.0
U1726 U 0.60381 0.30145 0.54991 0.0
O1727 O 0.599 0.29391 0.56308 0.0
O1728 O 0.61578 0.29612 0.55981 0.0
C1729 C 0.60869 0.29216 0.56554 0.0
C1730 C 0.59863 0.29159 0.53211 0.0
C1731 C 0.60979 0.28175 0.56806 0.0
C1732 C 0.60857 0.26325 0.56364 0.0
C1733 C 0.60726 0.27306 0.56099 0.0
C1734 C 0.61495 0.27079 0.58038 0.0
C1735 C 0.6124 0.26201 0.57339 0.0
C1736 C 0.61364 0.28055 0.57773 0.0
C1737 C 0.60709 0.33 0.55994 0.0
C1738 C 0.61441 0.33658 0.57672 0.0
C1739 C 0.60769 0.34811 0.56576 0.0
C1740 C 0.60503 0.3399 0.55828 0.0
C1741 C 0.61249 0.34658 0.57505 0.0
C1742 C 0.61173 0.32835 0.56922 0.0
C1743 C 0.60448 0.32156 0.55186 0.0
O1744 O 0.60851 0.29411 0.53583 0.0
O1745 O 0.59168 0.29279 0.5388 0.0
O1746 O 0.59581 0.31518 0.55268 0.0
O1747 O 0.61248 0.31687 0.54908 0.0
H1748 H 0.60258 0.3114 0.52827 0.0
H1749 H 0.59948 0.31839 0.51243 0.0
H1750 H 0.5861 0.28803 0.49871 0.0
H1751 H 0.58931 0.28102 0.51469 0.0
H1752 H 0.60645 0.25664 0.55811 0.0
H1753 H 0.6043 0.27388 0.55347 0.0
H1754 H 0.6181 0.27016 0.58789 0.0
H1755 H 0.6157 0.28719 0.58325 0.0
H1756 H 0.61818 0.33515 0.58376 0.0
H1757 H 0.60592 0.35567 0.56428 0.0
H1758 H 0.6014 0.34128 0.55116 0.0
H1759 H 0.61336 0.32073 0.57061 0.0
C1760 C 0.25309 0.50508 0.12257 0.0
C1761 C 0.25322 0.49448 0.12287 0.0
C1762 C 0.27243 0.49738 0.12631 0.0
C1763 C 0.26279 0.49067 0.12473 0.0
C1764 C 0.27224 0.50802 0.12599 0.0
C1765 C 0.26264 0.51183 0.12413 0.0
U1766 U 0.22344 0.49989 0.11678 0.0
O1767 O 0.21046 0.50743 0.12296 0.0
O1768 O 0.21266 0.50675 0.10689 0.0
C1769 C 0.20742 0.51027 0.11431 0.0
C1770 C 0.243 0.50908 0.1207 0.0
C1771 C 0.20517 0.52098 0.11444 0.0
C1772 C 0.20902 0.53851 0.11008 0.0
C1773 C 0.21178 0.52856 0.11025 0.0
C1774 C 0.1932 0.53343 0.11849 0.0
C1775 C 0.19963 0.54103 0.11412 0.0
C1776 C 0.19593 0.52353 0.11862 0.0
C1777 C 0.21002 0.47212 0.11381 0.0
C1778 C 0.19112 0.46785 0.1092 0.0
C1779 C 0.20135 0.4546 0.11397 0.0
C1780 C 0.2105 0.46185 0.11543 0.0
C1781 C 0.19153 0.45751 0.11085 0.0
C1782 C 0.20029 0.47509 0.11069 0.0
C1783 C 0.21965 0.47971 0.11561 0.0
O1784 O 0.23855 0.50674 0.11158 0.0
O1785 O 0.23624 0.50773 0.1276 0.0
O1786 O 0.22032 0.4857 0.12407 0.0
O1787 O 0.2223 0.48474 0.10799 0.0
H1788 H 0.24589 0.48916 0.12171 0.0
H1789 H 0.26261 0.48246 0.12506 0.0
H1790 H 0.27952 0.51339 0.12705 0.0
H1791 H 0.26268 0.52003 0.1239 0.0
H1792 H 0.21412 0.54415 0.10662 0.0
H1793 H 0.21898 0.52677 0.10699 0.0
H1794 H 0.18604 0.53514 0.12186 0.0
H1795 H 0.19075 0.5178 0.12192 0.0
H1796 H 0.18374 0.47032 0.10668 0.0
H1797 H 0.20192 0.44676 0.11545 0.0
H1798 H 0.21795 0.45946 0.1179 0.0
H1799 H 0.19979 0.48302 0.10943 0.0
C1800 C 0.30664 0.5197 0.85545 0.0
C1801 C 0.31716 0.52227 0.85308 0.0
C1802 C 0.31686 0.54017 0.85955 0.0
C1803 C 0.3222 0.53242 0.85505 0.0
C1804 C 0.30629 0.53754 0.86186 0.0
C1805 C 0.30123 0.52739 0.85982 0.0
U1806 U 0.30853 0.49114 0.85348 0.0
O1807 O 0.29901 0.47848 0.85968 0.0
O1808 O 0.29979 0.47816 0.84345 0.0
C1809 C 0.29525 0.47396 0.85082 0.0
C1810 C 0.30144 0.50896 0.85388 0.0
C1811 C 0.28364 0.47148 0.84948 0.0
C1812 C 0.26607 0.47623 0.85161 0.0
C1813 C 0.2771 0.4788 0.85258 0.0
C1814 C 0.26798 0.45912 0.84412 0.0
C1815 C 0.2614 0.46634 0.84744 0.0
C1816 C 0.27903 0.46167 0.84516 0.0
C1817 C 0.33591 0.48248 0.85689 0.0
C1818 C 0.34136 0.46797 0.86473 0.0
C1819 C 0.35128 0.47483 0.85154 0.0
C1820 C 0.34438 0.48217 0.85072 0.0
C1821 C 0.3499 0.46772 0.85862 0.0
C1822 C 0.3344 0.47524 0.86384 0.0
C1823 C 0.32898 0.49056 0.85616 0.0
O1824 O 0.30336 0.50362 0.84557 0.0
O1825 O 0.30201 0.50387 0.86173 0.0
O1826 O 0.32285 0.49194 0.86354 0.0
O1827 O 0.32416 0.49087 0.84733 0.0
H1828 H 0.32152 0.51642 0.84977 0.0
H1829 H 0.33029 0.53418 0.85302 0.0
H1830 H 0.30198 0.54327 0.86547 0.0
H1831 H 0.29313 0.52552 0.86179 0.0
H1832 H 0.26119 0.48199 0.85412 0.0
H1833 H 0.28054 0.48646 0.85584 0.0
H1834 H 0.26461 0.45142 0.84096 0.0
H1835 H 0.28397 0.45595 0.84271 0.0
H1836 H 0.34005 0.46251 0.87016 0.0
H1837 H 0.35785 0.47486 0.84679 0.0
H1838 H 0.34572 0.4877 0.84534 0.0
H1839 H 0.3279 0.47522 0.86866 0.0
C1840 C 0.2729 0.46715 0.64783 0.0
C1841 C 0.28104 0.4678 0.64128 0.0
C1842 C 0.28328 0.44992 0.64272 0.0
C1843 C 0.28614 0.45926 0.6387 0.0
C1844 C 0.27501 0.44927 0.6492 0.0
C1845 C 0.26987 0.45783 0.65174 0.0
U1846 U 0.27476 0.49598 0.65078 0.0
O1847 O 0.26338 0.50651 0.64739 0.0
O1848 O 0.27031 0.5069 0.66274 0.0
C1849 C 0.26337 0.51032 0.65677 0.0
C1850 C 0.26798 0.47634 0.65092 0.0
C1851 C 0.25286 0.51096 0.66052 0.0
C1852 C 0.23435 0.50396 0.66131 0.0
C1853 C 0.24451 0.5028 0.65836 0.0
C1854 C 0.24091 0.52126 0.66892 0.0
C1855 C 0.23241 0.51326 0.6665 0.0
C1856 C 0.25103 0.52012 0.66594 0.0
C1857 C 0.30007 0.51126 0.64292 0.0
C1858 C 0.3036 0.52652 0.63418 0.0
C1859 C 0.31612 0.52345 0.64739 0.0
C1860 C 0.30965 0.51435 0.64877 0.0
C1861 C 0.31321 0.52963 0.64004 0.0
C1862 C 0.2971 0.51745 0.63561 0.0
C1863 C 0.29348 0.50147 0.64435 0.0
O1864 O 0.27284 0.48215 0.65877 0.0
O1865 O 0.26533 0.48166 0.64365 0.0
O1866 O 0.28479 0.49881 0.63839 0.0
O1867 O 0.2921 0.49978 0.65365 0.0
H1868 H 0.28354 0.47496 0.63822 0.0
H1869 H 0.29234 0.46 0.63356 0.0
H1870 H 0.2727 0.44223 0.65252 0.0
H1871 H 0.26365 0.45723 0.65688 0.0
H1872 H 0.22799 0.49762 0.65943 0.0
H1873 H 0.2458 0.49564 0.65423 0.0
H1874 H 0.23966 0.52857 0.6728 0.0
H1875 H 0.25739 0.52649 0.66765 0.0
H1876 H 0.30119 0.53099 0.62836 0.0
H1877 H 0.32338 0.52567 0.65213 0.0
H1878 H 0.31215 0.50971 0.65442 0.0
H1879 H 0.2898 0.51528 0.63091 0.0
C1880 C 0.22338 0.49398 0.34601 0.0
C1881 C 0.22395 0.50417 0.34364 0.0
C1882 C 0.24262 0.50439 0.34063 0.0
C1883 C 0.23348 0.50932 0.34093 0.0
C1884 C 0.24192 0.49409 0.34278 0.0
C1885 C 0.23237 0.48894 0.34544 0.0
U1886 U 0.1966 0.49554 0.35629 0.0
O1887 O 0.18142 0.48526 0.35353 0.0
O1888 O 0.18928 0.48828 0.36866 0.0
C1889 C 0.18148 0.48292 0.36277 0.0
C1890 C 0.21366 0.48884 0.34968 0.0
C1891 C 0.17952 0.47189 0.36398 0.0
C1892 C 0.18318 0.45432 0.36021 0.0
C1893 C 0.18522 0.4648 0.35895 0.0
C1894 C 0.16987 0.45797 0.37166 0.0
C1895 C 0.17547 0.45079 0.36659 0.0
C1896 C 0.17188 0.46842 0.37036 0.0
C1897 C 0.18678 0.52161 0.36004 0.0
C1898 C 0.16883 0.52333 0.3644 0.0
C1899 C 0.18196 0.53851 0.365 0.0
C1900 C 0.18952 0.53231 0.3619 0.0
C1901 C 0.17152 0.53409 0.36625 0.0
C1902 C 0.17641 0.51713 0.36135 0.0
C1903 C 0.19482 0.51521 0.35682 0.0
O1904 O 0.21253 0.49131 0.35919 0.0
O1905 O 0.20489 0.48873 0.34398 0.0
O1906 O 0.19194 0.50855 0.34889 0.0
O1907 O 0.19981 0.51129 0.36401 0.0
H1908 H 0.21709 0.50822 0.34413 0.0
H1909 H 0.2338 0.51728 0.33945 0.0
H1910 H 0.2488 0.49006 0.34252 0.0
H1911 H 0.23206 0.48108 0.34727 0.0
H1912 H 0.18769 0.44899 0.35627 0.0
H1913 H 0.19123 0.46738 0.35405 0.0
H1914 H 0.16378 0.45549 0.37651 0.0
H1915 H 0.16742 0.4738 0.37431 0.0
H1916 H 0.16089 0.51969 0.3654 0.0
H1917 H 0.18425 0.54678 0.36626 0.0
H1918 H 0.1975 0.53588 0.36094 0.0
H1919 H 0.17419 0.50885 0.36003 0.0
H1920 H 0.07661 0.35648 0.09586 0.0
H1921 H 0.09247 0.38436 0.11261 0.0
H1922 H 0.10486 0.37253 0.08557 0.0
H1923 H 0.07554 0.38554 0.11702 0.0
C1924 C 0.07295 0.37766 0.11843 0.0
C1925 C 0.08298 0.3629 0.09672 0.0
C1926 C 0.09068 0.36359 0.0897 0.0
C1927 C 0.08346 0.37042 0.10492 0.0
C1928 C 0.09187 0.37863 0.10619 0.0
C1929 C 0.0996 0.37946 0.09921 0.0
C1930 C 0.09892 0.37193 0.09099 0.0
N1931 N 0.0756 0.36933 0.11195 0.0
H1932 H 0.95817 0.89791 0.38933 0.0
H1933 H 0.93283 0.91113 0.40325 0.0
H1934 H 0.93834 0.91527 0.37273 0.0
H1935 H 0.94654 0.91338 0.41655 0.0
C1936 C 0.948 0.9054 0.41593 0.0
C1937 C 0.95157 0.90232 0.3889 0.0
C1938 C 0.94906 0.90657 0.38007 0.0
C1939 C 0.94593 0.90416 0.39735 0.0
C1940 C 0.93735 0.90987 0.3968 0.0
C1941 C 0.93459 0.91395 0.38795 0.0
C1942 C 0.94053 0.9123 0.37966 0.0
N1943 N 0.94898 0.90021 0.40635 0.0
H1944 H 0.40278 0.64649 0.62399 0.0
H1945 H 0.37612 0.62442 0.61152 0.0
H1946 H 0.39133 0.62112 0.64003 0.0
H1947 H 0.3834 0.62887 0.59694 0.0
C1948 C 0.38473 0.63721 0.59861 0.0
C1949 C 0.39727 0.63958 0.62451 0.0
C1950 C 0.39794 0.63423 0.63296 0.0
C1951 C 0.38951 0.63604 0.61668 0.0
C1952 C 0.38227 0.62713 0.61742 0.0
C1953 C 0.38295 0.62166 0.62579 0.0
C1954 C 0.39078 0.6253 0.63353 0.0
N1955 N 0.38898 0.64169 0.60827 0.0
H1956 H 0.5849 0.12556 0.89993 0.0
H1957 H 0.59024 0.09892 0.88072 0.0
H1958 H 0.60583 0.10506 0.9102 0.0
H1959 H 0.57273 0.1002 0.87524 0.0
C1960 C 0.57377 0.1084 0.87444 0.0
C1961 C 0.58867 0.11868 0.8987 0.0
C1962 C 0.59561 0.11605 0.90621 0.0
C1963 C 0.58656 0.11247 0.88956 0.0
C1964 C 0.59163 0.10364 0.88784 0.0
C1965 C 0.59859 0.10091 0.89527 0.0
C1966 C 0.60048 0.10714 0.90443 0.0
N1967 N 0.57964 0.11546 0.88207 0.0
H1968 H 0.0783 0.62546 0.39384 0.0
H1969 H 0.09747 0.6045 0.40611 0.0
H1970 H 0.09478 0.60605 0.37446 0.0
H1971 H 0.08436 0.60458 0.41754 0.0
C1972 C 0.08449 0.61288 0.41893 0.0
C1973 C 0.08343 0.61956 0.39278 0.0
C1974 C 0.08608 0.61627 0.38314 0.0
C1975 C 0.08738 0.61527 0.40109 0.0
C1976 C 0.09419 0.60771 0.39973 0.0
C1977 C 0.09684 0.60431 0.39012 0.0
C1978 C 0.09275 0.60863 0.38189 0.0
N1979 N 0.08469 0.6189 0.41076 0.0
H1980 H 0.58693 0.86335 0.60794 0.0
H1981 H 0.60283 0.89154 0.62403 0.0
H1982 H 0.61487 0.87924 0.59698 0.0
H1983 H 0.5855 0.89304 0.62771 0.0
C1984 C 0.58316 0.88531 0.6297 0.0
C1985 C 0.59328 0.86978 0.60862 0.0
C1986 C 0.60094 0.87029 0.60154 0.0
C1987 C 0.59375 0.87754 0.6166 0.0
C1988 C 0.60212 0.88578 0.61763 0.0
C1989 C 0.60986 0.88641 0.61064 0.0
C1990 C 0.60915 0.87865 0.60259 0.0
N1991 N 0.58595 0.8767 0.62371 0.0
H1992 H 0.45025 0.38139 0.87104 0.0
H1993 H 0.42419 0.39432 0.88389 0.0
H1994 H 0.43353 0.40177 0.85511 0.0
H1995 H 0.43659 0.39543 0.89797 0.0
C1996 C 0.438 0.38743 0.89705 0.0
C1997 C 0.44397 0.38618 0.87055 0.0
C1998 C 0.44257 0.39141 0.86211 0.0
C1999 C 0.43765 0.38756 0.87861 0.0
C2000 C 0.42943 0.39368 0.8779 0.0
C2001 C 0.42776 0.39874 0.86938 0.0
C2002 C 0.43452 0.39769 0.86161 0.0
N2003 N 0.43971 0.38282 0.8874 0.0
H2004 H 0.9189 0.15005 0.12873 0.0
H2005 H 0.8927 0.12725 0.1167 0.0
H2006 H 0.90688 0.12604 0.14614 0.0
H2007 H 0.90039 0.13093 0.10194 0.0
C2008 C 0.90135 0.13929 0.10331 0.0
C2009 C 0.91339 0.14322 0.12951 0.0
C2010 C 0.91371 0.13857 0.13841 0.0
C2011 C 0.90594 0.13911 0.12158 0.0
C2012 C 0.89871 0.13029 0.12263 0.0
C2013 C 0.89893 0.12558 0.13152 0.0
C2014 C 0.90646 0.12979 0.13935 0.0
N2015 N 0.90555 0.14424 0.11282 0.0
H2016 H 0.12459 0.06255 0.3209 0.0
H2017 H 0.14029 0.07408 0.34974 0.0
H2018 H 0.11 0.08278 0.34115 0.0
H2019 H 0.1549 0.07354 0.33956 0.0
C2020 C 0.15263 0.06553 0.33654 0.0
C2021 C 0.12472 0.0671 0.32806 0.0
C2022 C 0.1162 0.07247 0.33033 0.0
C2023 C 0.1335 0.06774 0.33499 0.0
C2024 C 0.13366 0.07374 0.34426 0.0
C2025 C 0.12519 0.07915 0.34659 0.0
C2026 C 0.11646 0.0784 0.33959 0.0
N2027 N 0.142 0.06216 0.33262 0.0
H2028 H 0.1203 0.84959 0.64012 0.0
H2029 H 0.09662 0.83438 0.65708 0.0
H2030 H 0.10737 0.8667 0.66425 0.0
H2031 H 0.10614 0.82079 0.65308 0.0
C2032 C 0.10698 0.82156 0.64521 0.0
C2033 C 0.11511 0.8499 0.64618 0.0
C2034 C 0.11465 0.8593 0.65196 0.0
C2035 C 0.10884 0.84084 0.64811 0.0
C2036 C 0.10178 0.84124 0.65574 0.0
C2037 C 0.10123 0.85057 0.66159 0.0
C2038 C 0.10777 0.8595 0.65972 0.0
N2039 N 0.10949 0.83151 0.64204 0.0
H2040 H 0.3591 0.93019 0.83824 0.0
H2041 H 0.37448 0.90725 0.85182 0.0
H2042 H 0.34376 0.91318 0.86025 0.0
H2043 H 0.38921 0.91874 0.8493 0.0
C2044 C 0.38718 0.91966 0.84153 0.0
C2045 C 0.3591 0.9244 0.84342 0.0
C2046 C 0.35028 0.92217 0.84901 0.0
C2047 C 0.36796 0.91918 0.8445 0.0
C2048 C 0.36788 0.9116 0.85118 0.0
C2049 C 0.35915 0.90935 0.85683 0.0
C2050 C 0.35041 0.91467 0.85568 0.0
N2051 N 0.3767 0.92138 0.8386 0.0
H2052 H 0.39438 0.16476 0.09479 0.0
H2053 H 0.4196 0.182 0.11474 0.0
H2054 H 0.40866 0.15043 0.11842 0.0
H2055 H 0.41068 0.19545 0.11067 0.0
C2056 C 0.40933 0.19346 0.10265 0.0
C2057 C 0.40008 0.16519 0.10116 0.0
C2058 C 0.40083 0.15646 0.1062 0.0
C2059 C 0.40671 0.17448 0.10426 0.0
C2060 C 0.4142 0.17499 0.11247 0.0
C2061 C 0.41504 0.1663 0.11757 0.0
C2062 C 0.4083 0.1571 0.11437 0.0
N2063 N 0.40599 0.18303 0.09872 0.0
H2064 H 0.14653 0.94736 0.17419 0.0
H2065 H 0.15562 0.9292 0.1486 0.0
H2066 H 0.12471 0.92199 0.15928 0.0
H2067 H 0.17225 0.93374 0.15829 0.0
C2068 C 0.17171 0.94195 0.1592 0.0
C2069 C 0.14468 0.94102 0.16832 0.0
C2070 C 0.13467 0.93496 0.16744 0.0
C2071 C 0.15233 0.9389 0.16164 0.0
C2072 C 0.14988 0.93068 0.15399 0.0
C2073 C 0.13988 0.9246 0.15301 0.0
C2074 C 0.13235 0.92681 0.15978 0.0
N2075 N 0.16224 0.94539 0.16244 0.0
H2076 H 0.33878 0.85712 0.40119 0.0
H2077 H 0.36397 0.84211 0.3891 0.0
H2078 H 0.36134 0.87332 0.3838 0.0
H2079 H 0.35041 0.82804 0.38833 0.0
C2080 C 0.34807 0.8294 0.39591 0.0
C2081 C 0.34571 0.85731 0.39689 0.0
C2082 C 0.34954 0.86634 0.39275 0.0
C2083 C 0.35074 0.84849 0.39544 0.0
C2084 C 0.35981 0.84877 0.38995 0.0
C2085 C 0.36377 0.85775 0.38582 0.0
C2086 C 0.35856 0.86647 0.38725 0.0
N2087 N 0.34675 0.83953 0.39984 0.0
H2088 H 0.34721 0.08149 0.65438 0.0
H2089 H 0.36396 0.1053 0.6394 0.0
H2090 H 0.33224 0.09207 0.62863 0.0
H2091 H 0.37793 0.09644 0.64444 0.0
C2092 C 0.37616 0.09647 0.65223 0.0
C2093 C 0.34743 0.08647 0.64845 0.0
C2094 C 0.33866 0.08579 0.64147 0.0
C2095 C 0.35667 0.09329 0.64759 0.0
C2096 C 0.35696 0.09981 0.63995 0.0
C2097 C 0.34819 0.0994 0.63304 0.0
C2098 C 0.33912 0.0923 0.63381 0.0
N2099 N 0.36553 0.09364 0.65461 0.0
H2100 H 0.15256 0.14583 0.88859 0.0
H2101 H 0.13469 0.12791 0.86323 0.0
H2102 H 0.12657 0.15751 0.87378 0.0
H2103 H 0.1494 0.12094 0.86143 0.0
C2104 C 0.15286 0.12072 0.86893 0.0
C2105 C 0.14623 0.14496 0.88271 0.0
C2106 C 0.13972 0.15272 0.882 0.0
C2107 C 0.14478 0.13617 0.87574 0.0
C2108 C 0.13637 0.13494 0.86826 0.0
C2109 C 0.12974 0.14259 0.86749 0.0
C2110 C 0.13159 0.15152 0.87432 0.0
N2111 N 0.15166 0.12857 0.87665 0.0
H2112 H 0.83129 0.346 0.89249 0.0
H2113 H 0.86068 0.33668 0.88321 0.0
H2114 H 0.84909 0.36262 0.87166 0.0
H2115 H 0.85157 0.32087 0.88487 0.0
C2116 C 0.84834 0.32245 0.89205 0.0
C2117 C 0.83817 0.3471 0.88817 0.0
C2118 C 0.83932 0.35513 0.88204 0.0
C2119 C 0.84563 0.34017 0.88836 0.0
C2120 C 0.8546 0.34167 0.88276 0.0
C2121 C 0.85594 0.34979 0.87678 0.0
C2122 C 0.84822 0.35643 0.87641 0.0
N2123 N 0.84404 0.33179 0.89424 0.0
H2124 H 0.85088 0.57742 0.16783 0.0
H2125 H 0.86653 0.6019 0.15291 0.0
H2126 H 0.83463 0.58843 0.14304 0.0
H2127 H 0.88082 0.59274 0.15676 0.0
C2128 C 0.87951 0.59257 0.16463 0.0
C2129 C 0.85076 0.58257 0.16206 0.0
C2130 C 0.84169 0.58203 0.15549 0.0
C2131 C 0.85988 0.58947 0.16094 0.0
C2132 C 0.8597 0.59622 0.1535 0.0
C2133 C 0.85058 0.59597 0.14708 0.0
C2134 C 0.84166 0.58877 0.14806 0.0
N2135 N 0.86907 0.58968 0.1675 0.0
H2136 H 0.65091 0.6506 0.39417 0.0
H2137 H 0.63491 0.63346 0.36751 0.0
H2138 H 0.62808 0.66395 0.37663 0.0
H2139 H 0.63688 0.62008 0.37698 0.0
C2140 C 0.64515 0.62219 0.37971 0.0
C2141 C 0.64529 0.65008 0.38773 0.0
C2142 C 0.63983 0.65844 0.38609 0.0
C2143 C 0.64343 0.64099 0.38117 0.0
C2144 C 0.63615 0.64033 0.3728 0.0
C2145 C 0.6306 0.64859 0.37107 0.0
C2146 C 0.63255 0.65764 0.37772 0.0
N2147 N 0.64906 0.63266 0.38307 0.0
H2148 H 0.85687 0.43677 0.3251 0.0
H2149 H 0.87391 0.41666 0.3411 0.0
H2150 H 0.8459 0.42687 0.35259 0.0
H2151 H 0.88795 0.42778 0.33479 0.0
C2152 C 0.88464 0.42609 0.3271 0.0
C2153 C 0.85773 0.43241 0.33144 0.0
C2154 C 0.8505 0.43269 0.3389 0.0
C2155 C 0.86634 0.42686 0.33233 0.0
C2156 C 0.86741 0.42115 0.34051 0.0
C2157 C 0.86007 0.42109 0.34787 0.0
C2158 C 0.85171 0.42698 0.34704 0.0
N2159 N 0.87376 0.42689 0.32486 0.0
H2160 H 0.61138 0.55184 0.81595 0.0
H2161 H 0.62606 0.56423 0.84498 0.0
H2162 H 0.59647 0.57324 0.83467 0.0
H2163 H 0.64105 0.56263 0.83608 0.0
C2164 C 0.63871 0.55468 0.83289 0.0
C2165 C 0.61132 0.55669 0.82293 0.0
C2166 C 0.60287 0.56233 0.82459 0.0
C2167 C 0.6198 0.55743 0.83019 0.0
C2168 C 0.6197 0.56381 0.8392 0.0
C2169 C 0.61131 0.56953 0.84091 0.0
C2170 C 0.60288 0.56866 0.83358 0.0
N2171 N 0.62825 0.55159 0.82841 0.0
H2172 H 0.90116 0.63629 0.89829 0.0
H2173 H 0.89322 0.61039 0.87584 0.0
H2174 H 0.87304 0.61456 0.89981 0.0
H2175 H 0.91196 0.61205 0.8773 0.0
C2176 C 0.91344 0.62023 0.87647 0.0
C2177 C 0.89583 0.62944 0.89525 0.0
C2178 C 0.88685 0.62606 0.90026 0.0
C2179 C 0.89828 0.62373 0.88656 0.0
C2180 C 0.89148 0.61476 0.88263 0.0
C2181 C 0.88244 0.61135 0.88746 0.0
C2182 C 0.88017 0.61706 0.89621 0.0
N2183 N 0.90762 0.62713 0.88188 0.0
H2184 H 0.05994 0.1273 0.61181 0.0
H2185 H 0.08403 0.11138 0.59873 0.0
H2186 H 0.07411 0.10513 0.62762 0.0
H2187 H 0.07271 0.11244 0.58454 0.0
C2188 C 0.07213 0.12062 0.5858 0.0
C2189 C 0.06554 0.12181 0.61225 0.0
C2190 C 0.06625 0.11639 0.62066 0.0
C2191 C 0.07166 0.11979 0.60416 0.0
C2192 C 0.07895 0.11267 0.60476 0.0
C2193 C 0.07998 0.10745 0.61325 0.0
C2194 C 0.07351 0.10928 0.62111 0.0
N2195 N 0.07045 0.12503 0.59554 0.0
H2196 H 0.56504 0.35612 0.39413 0.0
H2197 H 0.59588 0.37038 0.40693 0.0
H2198 H 0.58163 0.38185 0.38151 0.0
H2199 H 0.59678 0.35447 0.41121 0.0
C2200 C 0.58892 0.35224 0.41365 0.0
C2201 C 0.57192 0.36191 0.39412 0.0
C2202 C 0.57226 0.36903 0.38701 0.0
C2203 C 0.58046 0.36221 0.40126 0.0
C2204 C 0.58933 0.36986 0.40135 0.0
C2205 C 0.58985 0.37689 0.39418 0.0
C2206 C 0.58127 0.37643 0.38707 0.0
N2207 N 0.57986 0.3549 0.40837 0.0
H2208 H 0.41335 0.87503 0.11792 0.0
H2209 H 0.41233 0.90441 0.13467 0.0
H2210 H 0.39315 0.8959 0.10712 0.0
H2211 H 0.42995 0.90199 0.13906 0.0
C2212 C 0.42804 0.89418 0.14099 0.0
C2213 C 0.41035 0.88238 0.11868 0.0
C2214 C 0.40286 0.88464 0.11145 0.0
C2215 C 0.41393 0.88952 0.12699 0.0
C2216 C 0.40983 0.89896 0.12814 0.0
C2217 C 0.40234 0.90132 0.12099 0.0
C2218 C 0.39896 0.89414 0.11265 0.0
N2219 N 0.42116 0.88681 0.13437 0.0
H2220 H 0.90114 0.39694 0.61207 0.0
H2221 H 0.89883 0.4258 0.6292 0.0
H2222 H 0.88291 0.4187 0.59993 0.0
H2223 H 0.9152 0.42301 0.63588 0.0
C2224 C 0.91336 0.4149 0.63691 0.0
C2225 C 0.89827 0.40435 0.61269 0.0
C2226 C 0.89173 0.40701 0.60488 0.0
C2227 C 0.90103 0.41114 0.6214 0.0
C2228 C 0.89703 0.42063 0.62239 0.0
C2229 C 0.8905 0.42341 0.61465 0.0
C2230 C 0.88797 0.4166 0.60591 0.0
N2231 N 0.90733 0.40798 0.62926 0.0
H2232 H 0.41519 0.14953 0.38606 0.0
H2233 H 0.40809 0.12058 0.36752 0.0
H2234 H 0.38688 0.12885 0.38958 0.0
H2235 H 0.42678 0.12244 0.36924 0.0
C2236 C 0.42819 0.13028 0.36724 0.0
C2237 C 0.41003 0.14232 0.3839 0.0
C2238 C 0.40067 0.14004 0.38872 0.0
C2239 C 0.41284 0.13529 0.37635 0.0
C2240 C 0.40609 0.12598 0.37347 0.0
C2241 C 0.39673 0.12359 0.37824 0.0
C2242 C 0.39408 0.13067 0.38584 0.0
N2243 N 0.42234 0.13783 0.37158 0.0
H2244 H 0.56395 0.62632 0.11491 0.0
H2245 H 0.58699 0.60759 0.10409 0.0
H2246 H 0.57559 0.6046 0.1331 0.0
H2247 H 0.57756 0.60862 0.08936 0.0
C2248 C 0.57682 0.61678 0.08993 0.0
C2249 C 0.56903 0.62048 0.11601 0.0
C2250 C 0.56893 0.6157 0.12486 0.0
C2251 C 0.57528 0.61738 0.10836 0.0
C2252 C 0.58193 0.60984 0.10984 0.0
C2253 C 0.58204 0.60513 0.11872 0.0
C2254 C 0.57546 0.60808 0.12615 0.0
N2255 N 0.57473 0.62192 0.09924 0.0
H2256 H 0.06074 0.86303 0.90719 0.0
H2257 H 0.09166 0.87476 0.9214 0.0
H2258 H 0.08156 0.88544 0.89386 0.0
H2259 H 0.08212 0.87214 0.93537 0.0
C2260 C 0.07812 0.8644 0.93298 0.0
C2261 C 0.06825 0.86797 0.90725 0.0
C2262 C 0.07017 0.87428 0.89955 0.0
C2263 C 0.07583 0.8683 0.91529 0.0
C2264 C 0.08559 0.87474 0.91543 0.0
C2265 C 0.08773 0.8809 0.90769 0.0
C2266 C 0.07996 0.88064 0.89982 0.0
N2267 N 0.07355 0.86194 0.92302 0.0
H2268 H 0.88833 0.96949 0.68431 0.0
H2269 H 0.88391 0.95929 0.65282 0.0
H2270 H 0.90781 0.9483 0.67098 0.0
H2271 H 0.87865 0.97493 0.65226 0.0
C2272 C 0.87385 0.9755 0.65863 0.0
C2273 C 0.89059 0.965 0.6778 0.0
C2274 C 0.89886 0.95898 0.67874 0.0
C2275 C 0.88537 0.96545 0.66843 0.0
C2276 C 0.88814 0.9594 0.66003 0.0
C2277 C 0.89631 0.95329 0.66088 0.0
C2278 C 0.90169 0.95322 0.67023 0.0
N2279 N 0.87717 0.97178 0.66768 0.0
H2280 H 0.87205 0.1627 0.38885 0.0
H2281 H 0.89638 0.18367 0.37787 0.0
H2282 H 0.89522 0.15105 0.37054 0.0
H2283 H 0.88422 0.19467 0.37984 0.0
C2284 C 0.88082 0.19279 0.38673 0.0
C2285 C 0.87891 0.16403 0.38454 0.0
C2286 C 0.88317 0.15565 0.37987 0.0
C2287 C 0.8835 0.17417 0.38375 0.0
C2288 C 0.89252 0.17592 0.37827 0.0
C2289 C 0.89686 0.16759 0.37356 0.0
C2290 C 0.89211 0.15751 0.3744 0.0
N2291 N 0.87911 0.18239 0.3889 0.0
H2292 H 0.6323 0.06234 0.18615 0.0
H2293 H 0.64559 0.07125 0.15921 0.0
H2294 H 0.61818 0.08379 0.16939 0.0
H2295 H 0.64845 0.05369 0.15834 0.0
C2296 C 0.65204 0.05403 0.16589 0.0
C2297 C 0.63212 0.06671 0.17977 0.0
C2298 C 0.62427 0.07311 0.17853 0.0
C2299 C 0.63956 0.06568 0.17261 0.0
C2300 C 0.6395 0.07156 0.16444 0.0
C2301 C 0.63191 0.07827 0.16332 0.0
C2302 C 0.62419 0.07878 0.17028 0.0
N2303 N 0.64729 0.05899 0.17396 0.0
H2304 H 0.63392 0.84223 0.89878 0.0
H2305 H 0.60607 0.8279 0.88046 0.0
H2306 H 0.62294 0.85641 0.8735 0.0
H2307 H 0.60185 0.8207 0.894 0.0
C2308 C 0.60925 0.81952 0.89783 0.0
C2309 C 0.62827 0.84223 0.89245 0.0
C2310 C 0.62959 0.85013 0.88619 0.0
C2311 C 0.6197 0.83428 0.8906 0.0
C2312 C 0.61246 0.8342 0.88227 0.0
C2313 C 0.61355 0.84216 0.87605 0.0
C2314 C 0.62217 0.85007 0.87807 0.0
N2315 N 0.61869 0.82643 0.89715 0.0
H2316 H 0.84934 0.06424 0.83411 0.0
H2317 H 0.86646 0.09257 0.849 0.0
H2318 H 0.84326 0.0746 0.86422 0.0
H2319 H 0.86528 0.09643 0.83215 0.0
C2320 C 0.86829 0.08955 0.829 0.0
C2321 C 0.85097 0.06982 0.84067 0.0
C2322 C 0.84546 0.06831 0.84924 0.0
C2323 C 0.85848 0.07859 0.84048 0.0
C2324 C 0.86053 0.08588 0.84898 0.0
C2325 C 0.85516 0.08439 0.85761 0.0
C2326 C 0.84769 0.07558 0.85769 0.0
N2327 N 0.86411 0.07979 0.83179 0.0
H2328 H 0.64637 0.16621 0.61013 0.0
H2329 H 0.63723 0.1517 0.63609 0.0
H2330 H 0.61954 0.17451 0.62547 0.0
H2331 H 0.65601 0.15232 0.63773 0.0
C2332 C 0.65662 0.14871 0.63022 0.0
C2333 C 0.64117 0.16537 0.61615 0.0
C2334 C 0.63273 0.17121 0.61697 0.0
C2335 C 0.64294 0.15841 0.62309 0.0
C2336 C 0.63607 0.1572 0.63081 0.0
C2337 C 0.62764 0.16302 0.63174 0.0
C2338 C 0.62605 0.17 0.62479 0.0
N2339 N 0.65139 0.15242 0.622 0.0
H2340 H 0.63744 0.92574 0.34658 0.0
H2341 H 0.65509 0.91492 0.37058 0.0
H2342 H 0.62338 0.90038 0.36141 0.0
H2343 H 0.66125 0.93284 0.3729 0.0
C2344 C 0.66315 0.93366 0.36525 0.0
C2345 C 0.63791 0.92042 0.35217 0.0
C2346 C 0.62914 0.91307 0.35334 0.0
C2347 C 0.6472 0.92127 0.35848 0.0
C2348 C 0.64787 0.91445 0.36581 0.0
C2349 C 0.63924 0.90696 0.36697 0.0
C2350 C 0.62994 0.90634 0.3607 0.0
N2351 N 0.65582 0.92894 0.35724 0.0
H2352 H 0.84497 0.85396 0.12202 0.0
H2353 H 0.8742 0.84247 0.12922 0.0
H2354 H 0.8661 0.86903 0.14673 0.0
H2355 H 0.87286 0.83863 0.11195 0.0
C2356 C 0.86456 0.83526 0.11082 0.0
C2357 C 0.85229 0.85452 0.12668 0.0
C2358 C 0.85461 0.86228 0.13475 0.0
C2359 C 0.85942 0.84753 0.1245 0.0
C2360 C 0.86886 0.84811 0.13062 0.0
C2361 C 0.8713 0.85579 0.13874 0.0
C2362 C 0.86412 0.86285 0.14072 0.0
N2363 N 0.85684 0.83987 0.11621 0.0
H2364 H 0.14909 0.65796 0.1124 0.0
H2365 H 0.13876 0.64051 0.13621 0.0
H2366 H 0.12494 0.6676 0.13079 0.0
H2367 H 0.15666 0.63856 0.13682 0.0
C2368 C 0.15726 0.63629 0.12893 0.0
C2369 C 0.14405 0.65684 0.1185 0.0
C2370 C 0.13699 0.6639 0.121 0.0
C2371 C 0.14496 0.64855 0.12412 0.0
C2372 C 0.13835 0.64704 0.13201 0.0
C2373 C 0.13119 0.65395 0.1345 0.0
C2374 C 0.13061 0.66236 0.129 0.0
N2375 N 0.15248 0.64176 0.12171 0.0
H2376 H 0.12708 0.41838 0.83327 0.0
H2377 H 0.14295 0.40862 0.85891 0.0
H2378 H 0.11164 0.39388 0.84837 0.0
H2379 H 0.14971 0.42649 0.86067 0.0
C2380 C 0.15199 0.42669 0.85305 0.0
C2381 C 0.12702 0.41346 0.83925 0.0
C2382 C 0.11819 0.40605 0.84003 0.0
C2383 C 0.13587 0.41457 0.84614 0.0
C2384 C 0.13602 0.408 0.85373 0.0
C2385 C 0.1273 0.40049 0.85456 0.0
C2386 C 0.1184 0.39965 0.84774 0.0
N2387 N 0.14474 0.42199 0.84499 0.0
H2388 H 0.33388 0.35712 0.6094 0.0
H2389 H 0.36344 0.34624 0.61669 0.0
H2390 H 0.35755 0.37572 0.63007 0.0
H2391 H 0.35208 0.33058 0.61429 0.0
C2392 C 0.34792 0.3317 0.6073 0.0
C2393 C 0.34157 0.35827 0.61355 0.0
C2394 C 0.34491 0.36744 0.61984 0.0
C2395 C 0.34807 0.35048 0.61259 0.0
C2396 C 0.35818 0.35202 0.61774 0.0
C2397 C 0.36171 0.36119 0.62392 0.0
C2398 C 0.35499 0.3688 0.625 0.0
N2399 N 0.34443 0.34135 0.60611 0.0
H2400 H 0.11526 0.56099 0.69309 0.0
H2401 H 0.1255 0.56589 0.6639 0.0
H2402 H 0.10022 0.5811 0.67536 0.0
H2403 H 0.12764 0.54832 0.6645 0.0
C2404 C 0.13208 0.54932 0.67174 0.0
C2405 C 0.11449 0.56455 0.68623 0.0
C2406 C 0.1068 0.57112 0.685 0.0
C2407 C 0.12099 0.56232 0.6785 0.0
C2408 C 0.12019 0.56721 0.66972 0.0
C2409 C 0.11271 0.57399 0.66853 0.0
C2410 C 0.10591 0.57573 0.67613 0.0
N2411 N 0.12853 0.55542 0.67982 0.0
H2412 H 0.3801 0.44311 0.1689 0.0
H2413 H 0.37965 0.43921 0.13678 0.0
H2414 H 0.39882 0.42209 0.15421 0.0
H2415 H 0.37562 0.45577 0.13884 0.0
C2416 C 0.36978 0.45496 0.14435 0.0
C2417 C 0.38287 0.43959 0.16211 0.0
C2418 C 0.38994 0.43231 0.16264 0.0
C2419 C 0.37919 0.44223 0.15283 0.0
C2420 C 0.38263 0.43746 0.144 0.0
C2421 C 0.38982 0.43028 0.14445 0.0
C2422 C 0.3934 0.42776 0.1538 0.0
N2423 N 0.37162 0.44926 0.15255 0.0
H2424 H 0.62909 0.34529 0.13404 0.0
H2425 H 0.60197 0.32843 0.14539 0.0
H2426 H 0.60965 0.36096 0.15381 0.0
H2427 H 0.61167 0.31522 0.14308 0.0
C2428 C 0.61504 0.31649 0.13603 0.0
C2429 C 0.62243 0.34515 0.13868 0.0
C2430 C 0.62011 0.35434 0.14378 0.0
C2431 C 0.61612 0.33573 0.13941 0.0
C2432 C 0.60722 0.33555 0.14514 0.0
C2433 C 0.60476 0.34466 0.15024 0.0
C2434 C 0.61132 0.35397 0.14961 0.0
N2435 N 0.61862 0.32668 0.13392 0.0
H2436 H 0.89566 0.68935 0.61271 0.0
H2437 H 0.92156 0.70406 0.63337 0.0
H2438 H 0.90732 0.67318 0.63624 0.0
H2439 H 0.91495 0.71861 0.62914 0.0
C2440 C 0.91343 0.71674 0.62112 0.0
C2441 C 0.90106 0.68916 0.61918 0.0
C2442 C 0.90069 0.6802 0.62405 0.0
C2443 C 0.90844 0.69786 0.62256 0.0
C2444 C 0.91557 0.69754 0.63089 0.0
C2445 C 0.91528 0.68862 0.63582 0.0
C2446 C 0.9078 0.68001 0.63234 0.0
N2447 N 0.90888 0.70661 0.61714 0.0
H2448 H 0.63666 0.46181 0.6651 0.0
H2449 H 0.64876 0.44323 0.64151 0.0
H2450 H 0.62032 0.43161 0.65468 0.0
H2451 H 0.66458 0.45123 0.65089 0.0
C2452 C 0.66282 0.4591 0.651 0.0
C2453 C 0.63599 0.45475 0.6601 0.0
C2454 C 0.62767 0.44677 0.66074 0.0
C2455 C 0.6438 0.45339 0.65338 0.0
C2456 C 0.64288 0.44422 0.64687 0.0
C2457 C 0.63442 0.43629 0.64725 0.0
C2458 C 0.62693 0.43762 0.65431 0.0
N2459 N 0.65254 0.46129 0.65329 0.0
H2460 H 0.36596 0.64999 0.88679 0.0
H2461 H 0.39223 0.6691 0.87647 0.0
H2462 H 0.38586 0.63691 0.86572 0.0
H2463 H 0.38213 0.68162 0.88022 0.0
C2464 C 0.37854 0.67954 0.88696 0.0
C2465 C 0.37265 0.65084 0.88219 0.0
C2466 C 0.37527 0.64225 0.87633 0.0
C2467 C 0.37857 0.66058 0.88217 0.0
C2468 C 0.38735 0.6617 0.87631 0.0
C2469 C 0.39009 0.65317 0.87041 0.0
C2470 C 0.38401 0.64347 0.87049 0.0
N2471 N 0.37563 0.669 0.8883 0.0
H2472 H 0.13145 0.34091 0.37927 0.0
H2473 H 0.10169 0.32586 0.36461 0.0
H2474 H 0.11624 0.35455 0.35573 0.0
H2475 H 0.12659 0.33169 0.39165 0.0
C2476 C 0.12181 0.3246 0.38831 0.0
C2477 C 0.12484 0.34069 0.37381 0.0
C2478 C 0.12485 0.34865 0.3676 0.0
C2479 C 0.11645 0.33243 0.37275 0.0
C2480 C 0.10818 0.33216 0.36535 0.0
C2481 C 0.10797 0.34019 0.35928 0.0
C2482 C 0.11638 0.34833 0.36041 0.0
N2483 N 0.11602 0.32427 0.37892 0.0
H2484 H 0.34497 0.57135 0.32456 0.0
H2485 H 0.36096 0.59745 0.34396 0.0
H2486 H 0.33227 0.58049 0.35236 0.0
H2487 H 0.37536 0.58983 0.33786 0.0
C2488 C 0.37286 0.58914 0.32995 0.0
C2489 C 0.34538 0.57654 0.33137 0.0
C2490 C 0.3377 0.57496 0.3383 0.0
C2491 C 0.35396 0.58447 0.3335 0.0
C2492 C 0.35446 0.59119 0.34237 0.0
C2493 C 0.34668 0.58983 0.34924 0.0
C2494 C 0.33837 0.58163 0.34715 0.0
N2495 N 0.36208 0.58547 0.32674 0.0
C2496 C 0.17203 0.45245 0.11248 0.0
C2497 C 0.18177 0.4498 0.10942 0.0
C2498 C 0.16289 0.44516 0.11127 0.0
C2499 C 0.15149 0.42014 0.09719 0.0
H2500 H 0.13207 0.41911 0.11824 0.0
C2501 C 0.11153 0.39335 0.09232 0.0
C2502 C 0.10847 0.38813 0.10049 0.0
C2503 C 0.12015 0.40121 0.0934 0.0
C2504 C 0.13745 0.41925 0.11232 0.0
H2505 H 0.18947 0.43743 0.10253 0.0
H2506 H 0.17362 0.42467 0.10066 0.0
H2507 H 0.14787 0.43198 0.12014 0.0
H2508 H 0.11203 0.38709 0.11623 0.0
H2509 H 0.12714 0.40077 0.11812 0.0
H2510 H 0.14126 0.40723 0.0895 0.0
C2511 C 0.17301 0.43241 0.10389 0.0
C2512 C 0.14644 0.42671 0.11335 0.0
C2513 C 0.18213 0.43971 0.10508 0.0
C2514 C 0.11412 0.39106 0.10982 0.0
C2515 C 0.12277 0.3989 0.1109 0.0
C2516 C 0.14252 0.41267 0.09616 0.0
C2517 C 0.16328 0.43504 0.10698 0.0
C2518 C 0.15359 0.42723 0.10581 0.0
C2519 C 0.12594 0.40403 0.10268 0.0
C2520 C 0.13539 0.41211 0.10372 0.0
H2521 H 0.17148 0.46012 0.11594 0.0
H2522 H 0.15551 0.44748 0.11364 0.0
H2523 H 0.15676 0.42039 0.09118 0.0
H2524 H 0.10722 0.39137 0.08507 0.0
H2525 H 0.12223 0.40513 0.08696 0.0
C2526 C 0.86294 0.96371 0.36795 0.0
C2527 C 0.85305 0.96046 0.37153 0.0
C2528 C 0.87168 0.9587 0.37002 0.0
C2529 C 0.88208 0.94176 0.38738 0.0
H2530 H 0.9013 0.93701 0.36672 0.0
C2531 C 0.91573 0.91633 0.39098 0.0
C2532 C 0.92544 0.91983 0.38719 0.0
C2533 C 0.9069 0.92144 0.38953 0.0
C2534 C 0.89608 0.93838 0.37261 0.0
H2535 H 0.84463 0.94938 0.38015 0.0
H2536 H 0.85985 0.94048 0.38357 0.0
H2537 H 0.88581 0.9454 0.3631 0.0
H2538 H 0.93364 0.93176 0.37936 0.0
H2539 H 0.91826 0.94066 0.37683 0.0
H2540 H 0.89237 0.93467 0.39687 0.0
C2541 C 0.86086 0.947 0.37926 0.0
C2542 C 0.88719 0.94319 0.37054 0.0
C2543 C 0.85211 0.95202 0.37719 0.0
C2544 C 0.92621 0.92875 0.3822 0.0
C2545 C 0.9174 0.93384 0.38074 0.0
C2546 C 0.89097 0.93692 0.38946 0.0
C2547 C 0.87076 0.95029 0.37571 0.0
C2548 C 0.88011 0.94499 0.3779 0.0
C2549 C 0.9076 0.93016 0.38425 0.0
C2550 C 0.8981 0.93523 0.3821 0.0
H2551 H 0.86391 0.97011 0.36348 0.0
H2552 H 0.87921 0.96151 0.36726 0.0
H2553 H 0.87686 0.94315 0.39327 0.0
H2554 H 0.91486 0.90943 0.39477 0.0
H2555 H 0.89944 0.91837 0.39226 0.0
C2556 C 0.31588 0.54807 0.63619 0.0
C2557 C 0.32022 0.53919 0.63842 0.0
C2558 C 0.32249 0.55702 0.63459 0.0
C2559 C 0.34969 0.57033 0.64018 0.0
H2560 H 0.34335 0.58535 0.61777 0.0
C2561 C 0.37955 0.60333 0.6295 0.0
C2562 C 0.37559 0.6121 0.62651 0.0
C2563 C 0.37266 0.59445 0.63065 0.0
C2564 C 0.34516 0.58132 0.62414 0.0
H2565 H 0.33493 0.53278 0.64054 0.0
H2566 H 0.34642 0.54844 0.63794 0.0
H2567 H 0.3315 0.5699 0.62053 0.0
H2568 H 0.36133 0.61842 0.62228 0.0
H2569 H 0.34922 0.60293 0.62444 0.0
H2570 H 0.36325 0.58176 0.6439 0.0
C2571 C 0.33791 0.54848 0.63751 0.0
C2572 C 0.33838 0.57247 0.6257 0.0
C2573 C 0.33131 0.53951 0.63903 0.0
C2574 C 0.3646 0.61174 0.62452 0.0
C2575 C 0.35767 0.60285 0.62574 0.0
C2576 C 0.35642 0.5792 0.63866 0.0
C2577 C 0.33357 0.55732 0.63527 0.0
C2578 C 0.34062 0.56684 0.6337 0.0
C2579 C 0.36162 0.59413 0.62891 0.0
C2580 C 0.3543 0.58478 0.63058 0.0
H2581 H 0.30739 0.54815 0.63581 0.0
H2582 H 0.31893 0.56376 0.633 0.0
H2583 H 0.35153 0.56625 0.6465 0.0
H2584 H 0.38801 0.60334 0.63092 0.0
H2585 H 0.376 0.5878 0.63287 0.0
C2586 C 0.64898 0.02812 0.89536 0.0
C2587 C 0.65497 0.02627 0.88711 0.0
C2588 C 0.6424 0.03582 0.89563 0.0
C2589 C 0.63818 0.0597 0.88469 0.0
H2590 H 0.61071 0.05509 0.89566 0.0
C2591 C 0.60884 0.08964 0.88453 0.0
C2592 C 0.60403 0.09166 0.89349 0.0
C2593 C 0.61452 0.08128 0.88314 0.0
C2594 C 0.61839 0.05651 0.89263 0.0
H2595 H 0.65859 0.03096 0.87261 0.0
H2596 H 0.64707 0.04438 0.87307 0.0
H2597 H 0.62172 0.04127 0.89442 0.0
H2598 H 0.60109 0.08629 0.90787 0.0
H2599 H 0.61109 0.07178 0.9055 0.0
H2600 H 0.63487 0.07497 0.88298 0.0
C2601 C 0.6476 0.03998 0.8794 0.0
C2602 C 0.62471 0.0486 0.89194 0.0
C2603 C 0.6542 0.03229 0.87913 0.0
C2604 C 0.60481 0.085 0.90093 0.0
C2605 C 0.61044 0.07662 0.89953 0.0
C2606 C 0.63185 0.06761 0.88538 0.0
C2607 C 0.64162 0.04184 0.88766 0.0
C2608 C 0.63472 0.05013 0.88804 0.0
C2609 C 0.61546 0.07473 0.89066 0.0
C2610 C 0.62192 0.06614 0.88944 0.0
H2611 H 0.64952 0.02373 0.9017 0.0
H2612 H 0.63806 0.03717 0.90219 0.0
H2613 H 0.6459 0.06119 0.88178 0.0
H2614 H 0.60844 0.09468 0.87869 0.0
H2615 H 0.6182 0.07996 0.87619 0.0
C2616 C 0.16602 0.54892 0.37695 0.0
C2617 C 0.16345 0.54071 0.36934 0.0
C2618 C 0.15849 0.55531 0.37968 0.0
C2619 C 0.13428 0.56428 0.36984 0.0
H2620 H 0.13082 0.57306 0.39761 0.0
C2621 C 0.1013 0.58812 0.38096 0.0
C2622 C 0.10392 0.59629 0.38859 0.0
C2623 C 0.10823 0.5809 0.37906 0.0
C2624 C 0.13176 0.57077 0.38981 0.0
H2625 H 0.15097 0.53275 0.35863 0.0
H2626 H 0.13782 0.54388 0.36343 0.0
H2627 H 0.14361 0.56131 0.39342 0.0
H2628 H 0.11579 0.60323 0.40032 0.0
H2629 H 0.12801 0.5907 0.39693 0.0
H2630 H 0.12262 0.57384 0.36618 0.0
C2631 C 0.14567 0.5454 0.36726 0.0
C2632 C 0.13908 0.56403 0.38742 0.0
C2633 C 0.15316 0.53897 0.36458 0.0
C2634 C 0.11353 0.59696 0.39445 0.0
C2635 C 0.12051 0.58976 0.39251 0.0
C2636 C 0.12702 0.57105 0.37222 0.0
C2637 C 0.14826 0.55367 0.37481 0.0
C2638 C 0.14041 0.56071 0.37741 0.0
C2639 C 0.118 0.58171 0.38471 0.0
C2640 C 0.12566 0.57438 0.38224 0.0
H2641 H 0.17385 0.55039 0.38083 0.0
H2642 H 0.16076 0.56167 0.38547 0.0
H2643 H 0.13525 0.562 0.36205 0.0
H2644 H 0.09386 0.58732 0.37643 0.0
H2645 H 0.10592 0.57468 0.37315 0.0
C2646 C 0.67773 0.96323 0.62126 0.0
C2647 C 0.68785 0.96118 0.61873 0.0
C2648 C 0.66909 0.95537 0.62014 0.0
C2649 C 0.65989 0.92918 0.60731 0.0
H2650 H 0.64005 0.92784 0.62801 0.0
C2651 C 0.62902 0.89345 0.60953 0.0
C2652 C 0.61868 0.89514 0.61168 0.0
C2653 C 0.63728 0.90166 0.61028 0.0
C2654 C 0.64546 0.92817 0.62211 0.0
H2655 H 0.69673 0.94926 0.61283 0.0
H2656 H 0.68175 0.93552 0.61112 0.0
H2657 H 0.65476 0.9419 0.62939 0.0
H2658 H 0.60895 0.90686 0.61628 0.0
H2659 H 0.62341 0.92118 0.61769 0.0
H2660 H 0.65065 0.91538 0.6001 0.0
C2661 C 0.68045 0.94323 0.61386 0.0
C2662 C 0.65388 0.93624 0.62289 0.0
C2663 C 0.68908 0.95109 0.61496 0.0
C2664 C 0.61684 0.90525 0.6147 0.0
C2665 C 0.62512 0.91347 0.61549 0.0
C2666 C 0.6515 0.9211 0.60655 0.0
C2667 C 0.67035 0.94526 0.61648 0.0
C2668 C 0.66123 0.93682 0.61552 0.0
C2669 C 0.63542 0.91176 0.61324 0.0
C2670 C 0.64421 0.92048 0.61397 0.0
H2671 H 0.6765 0.97089 0.62428 0.0
H2672 H 0.6614 0.95724 0.62211 0.0
H2673 H 0.66528 0.92949 0.60141 0.0
H2674 H 0.63077 0.88574 0.60736 0.0
H2675 H 0.64516 0.90007 0.60866 0.0
C2676 C 0.36161 0.45871 0.86931 0.0
C2677 C 0.35747 0.46021 0.85978 0.0
C2678 C 0.36892 0.45179 0.87043 0.0
C2679 C 0.38782 0.43795 0.85628 0.0
H2680 H 0.38727 0.42164 0.87868 0.0
C2681 C 0.41328 0.40521 0.85935 0.0
C2682 C 0.41907 0.40521 0.86856 0.0
C2683 C 0.4055 0.41164 0.85839 0.0
C2684 C 0.38755 0.4262 0.87243 0.0
H2685 H 0.35751 0.45549 0.84394 0.0
H2686 H 0.37006 0.44322 0.84586 0.0
H2687 H 0.37407 0.43328 0.87666 0.0
H2688 H 0.42102 0.41189 0.88403 0.0
H2689 H 0.40723 0.42298 0.88237 0.0
H2690 H 0.4012 0.43072 0.85198 0.0
C2691 C 0.3679 0.44757 0.85249 0.0
C2692 C 0.38002 0.4329 0.87128 0.0
C2693 C 0.36068 0.45457 0.85138 0.0
C2694 C 0.41665 0.4116 0.87685 0.0
C2695 C 0.40877 0.41798 0.87591 0.0
C2696 C 0.39527 0.43118 0.85738 0.0
C2697 C 0.37217 0.44614 0.86203 0.0
C2698 C 0.38007 0.43888 0.8632 0.0
C2699 C 0.40322 0.41815 0.86663 0.0
C2700 C 0.39523 0.42526 0.86547 0.0
H2701 H 0.35938 0.46305 0.87592 0.0
H2702 H 0.37216 0.45104 0.87787 0.0
H2703 H 0.38825 0.44257 0.85008 0.0
H2704 H 0.41476 0.40021 0.85285 0.0
H2705 H 0.40121 0.4115 0.85119 0.0
C2706 C 0.8421 0.04945 0.15288 0.0
C2707 C 0.84075 0.04088 0.14561 0.0
C2708 C 0.84816 0.05866 0.15117 0.0
C2709 C 0.8586 0.0732 0.13106 0.0
H2710 H 0.87816 0.08807 0.15233 0.0
C2711 C 0.88949 0.10802 0.12497 0.0
C2712 C 0.89144 0.11621 0.13265 0.0
C2713 C 0.88297 0.09892 0.12633 0.0
C2714 C 0.87264 0.08409 0.14635 0.0
H2715 H 0.84462 0.03528 0.13079 0.0
H2716 H 0.85533 0.05134 0.12786 0.0
H2717 H 0.86755 0.07199 0.15517 0.0
H2718 H 0.88771 0.12148 0.1476 0.0
H2719 H 0.87628 0.10568 0.14995 0.0
H2720 H 0.86369 0.08533 0.12224 0.0
C2721 C 0.85163 0.05095 0.13486 0.0
C2722 C 0.86656 0.07486 0.14798 0.0
C2723 C 0.8456 0.04172 0.13658 0.0
C2724 C 0.8865 0.11523 0.14161 0.0
C2725 C 0.87997 0.10617 0.14296 0.0
C2726 C 0.86466 0.08246 0.12944 0.0
C2727 C 0.85299 0.05952 0.14214 0.0
C2728 C 0.85947 0.06932 0.14036 0.0
C2729 C 0.87824 0.09785 0.13539 0.0
C2730 C 0.87174 0.08802 0.13707 0.0
H2731 H 0.83855 0.04902 0.15995 0.0
H2732 H 0.84898 0.06516 0.15689 0.0
H2733 H 0.8531 0.06917 0.12508 0.0
H2734 H 0.89327 0.10851 0.11802 0.0
H2735 H 0.8819 0.09263 0.12039 0.0
C2736 C 0.11096 0.14316 0.41389 0.0
C2737 C 0.11916 0.15142 0.41641 0.0
C2738 C 0.11257 0.1346 0.40746 0.0
C2739 C 0.12946 0.12719 0.38749 0.0
H2740 H 0.11659 0.09944 0.39068 0.0
C2741 C 0.13495 0.09272 0.35947 0.0
C2742 C 0.12562 0.08605 0.35606 0.0
C2743 C 0.13504 0.09996 0.36779 0.0
C2744 C 0.1202 0.10716 0.38967 0.0
H2745 H 0.13563 0.15695 0.4145 0.0
H2746 H 0.13847 0.14199 0.40332 0.0
H2747 H 0.11515 0.11353 0.40353 0.0
H2748 H 0.10925 0.08138 0.35902 0.0
H2749 H 0.10936 0.09411 0.37345 0.0
H2750 H 0.13435 0.12088 0.37357 0.0
C2751 C 0.13072 0.14222 0.40616 0.0
C2752 C 0.11936 0.11523 0.39702 0.0
C2753 C 0.1291 0.15079 0.41257 0.0
C2754 C 0.11652 0.0865 0.3614 0.0
C2755 C 0.11662 0.09372 0.36973 0.0
C2756 C 0.1303 0.11913 0.38016 0.0
C2757 C 0.12243 0.13409 0.40341 0.0
C2758 C 0.12388 0.12536 0.39596 0.0
C2759 C 0.12582 0.10068 0.37291 0.0
C2760 C 0.12558 0.10904 0.3811 0.0
H2761 H 0.10317 0.14346 0.41663 0.0
H2762 H 0.10596 0.12854 0.40538 0.0
H2763 H 0.13288 0.13492 0.38634 0.0
H2764 H 0.14207 0.09262 0.35548 0.0
H2765 H 0.1423 0.10513 0.37013 0.0
C2766 C 0.02787 0.86686 0.71218 0.0
C2767 C 0.03065 0.87301 0.72132 0.0
C2768 C 0.03571 0.86333 0.70645 0.0
C2769 C 0.06383 0.86987 0.70209 0.0
H2770 H 0.06066 0.8423 0.68813 0.0
C2771 C 0.09679 0.85662 0.67883 0.0
C2772 C 0.09357 0.8512 0.66941 0.0
C2773 C 0.08938 0.85823 0.68583 0.0
C2774 C 0.06162 0.85005 0.69192 0.0
H2775 H 0.04384 0.8802 0.73165 0.0
H2776 H 0.05751 0.87396 0.7217 0.0
H2777 H 0.04712 0.84715 0.69908 0.0
H2778 H 0.08014 0.84293 0.66005 0.0
H2779 H 0.06713 0.84584 0.67222 0.0
H2780 H 0.07816 0.8729 0.6948 0.0
C2781 C 0.04927 0.87191 0.71894 0.0
C2782 C 0.05387 0.85282 0.6982 0.0
C2783 C 0.04143 0.8754 0.72468 0.0
C2784 C 0.08285 0.84706 0.66728 0.0
C2785 C 0.0754 0.84872 0.67427 0.0
C2786 C 0.07154 0.86712 0.69579 0.0
C2787 C 0.04651 0.86592 0.70971 0.0
C2788 C 0.05488 0.86278 0.70332 0.0
C2789 C 0.07855 0.85451 0.68355 0.0
C2790 C 0.07052 0.85719 0.69059 0.0
H2791 H 0.01963 0.8648 0.70944 0.0
H2792 H 0.03334 0.85879 0.69934 0.0
H2793 H 0.06475 0.87765 0.70578 0.0
H2794 H 0.10504 0.85977 0.68072 0.0
H2795 H 0.09212 0.86251 0.69299 0.0
C2796 C 0.34697 0.84532 0.91655 0.0
C2797 C 0.35568 0.8451 0.92337 0.0
C2798 C 0.34743 0.85251 0.90959 0.0
C2799 C 0.36647 0.86882 0.89647 0.0
H2800 H 0.34225 0.88269 0.89034 0.0
C2801 C 0.36815 0.90142 0.87059 0.0
C2802 C 0.35916 0.90159 0.86409 0.0
C2803 C 0.3679 0.89453 0.87785 0.0
C2804 C 0.34904 0.87879 0.89187 0.0
H2805 H 0.37169 0.85229 0.92828 0.0
H2806 H 0.37244 0.86493 0.9162 0.0
H2807 H 0.3414 0.87091 0.90318 0.0
H2808 H 0.343 0.8944 0.85983 0.0
H2809 H 0.34259 0.88233 0.87241 0.0
H2810 H 0.37409 0.87664 0.88511 0.0
C2811 C 0.36529 0.85949 0.91619 0.0
C2812 C 0.34855 0.87206 0.89925 0.0
C2813 C 0.36481 0.85233 0.92318 0.0
C2814 C 0.35 0.89457 0.86484 0.0
C2815 C 0.34976 0.88768 0.87207 0.0
C2816 C 0.36695 0.87554 0.88907 0.0
C2817 C 0.35663 0.85961 0.90927 0.0
C2818 C 0.35725 0.86697 0.90161 0.0
C2819 C 0.35866 0.88765 0.87873 0.0
C2820 C 0.35822 0.88057 0.88666 0.0
H2821 H 0.33979 0.83991 0.91657 0.0
H2822 H 0.34065 0.85235 0.90431 0.0
H2823 H 0.37325 0.8649 0.89801 0.0
H2824 H 0.37528 0.90682 0.87027 0.0
H2825 H 0.37485 0.89479 0.88293 0.0
C2826 C 0.47409 0.16584 0.19319 0.0
C2827 C 0.46872 0.16049 0.20033 0.0
C2828 C 0.46878 0.16716 0.18413 0.0
C2829 C 0.44583 0.15549 0.16712 0.0
H2830 H 0.44943 0.1814 0.15552 0.0
C2831 C 0.42847 0.15844 0.12753 0.0
C2832 C 0.42276 0.16673 0.12634 0.0
C2833 C 0.43486 0.15825 0.13625 0.0
C2834 C 0.44833 0.17413 0.15869 0.0
H2835 H 0.45358 0.15237 0.20355 0.0
H2836 H 0.44432 0.15478 0.18782 0.0
H2837 H 0.45876 0.18005 0.17163 0.0
H2838 H 0.41965 0.18153 0.13321 0.0
H2839 H 0.43088 0.18121 0.14848 0.0
H2840 H 0.43532 0.14958 0.15432 0.0
C2841 C 0.45264 0.1579 0.1892 0.0
C2842 C 0.45373 0.17333 0.16786 0.0
C2843 C 0.45792 0.15662 0.19826 0.0
C2844 C 0.424 0.17506 0.13388 0.0
C2845 C 0.43043 0.17488 0.14262 0.0
C2846 C 0.4405 0.15627 0.15796 0.0
C2847 C 0.45803 0.1631 0.182 0.0
C2848 C 0.45248 0.16401 0.1722 0.0
C2849 C 0.43573 0.16635 0.14399 0.0
C2850 C 0.44166 0.16559 0.15364 0.0
H2851 H 0.48239 0.16899 0.1946 0.0
H2852 H 0.47316 0.17116 0.17871 0.0
H2853 H 0.44479 0.14817 0.17021 0.0
H2854 H 0.42786 0.152 0.12177 0.0
H2855 H 0.43903 0.15168 0.13698 0.0
C2856 C 0.12174 0.84677 0.09269 0.0
C2857 C 0.11149 0.84539 0.08785 0.0
C2858 C 0.12509 0.85527 0.09975 0.0
C2859 C 0.11934 0.88155 0.10734 0.0
H2860 H 0.13574 0.87894 0.13185 0.0
C2861 C 0.1272 0.91415 0.13975 0.0
C2862 C 0.13724 0.91588 0.145 0.0
C2863 C 0.12445 0.90566 0.13258 0.0
C2864 C 0.13129 0.87982 0.12498 0.0
H2865 H 0.0966 0.85166 0.08691 0.0
H2866 H 0.10243 0.86648 0.09921 0.0
H2867 H 0.13003 0.86372 0.11995 0.0
H2868 H 0.15234 0.91011 0.14675 0.0
H2869 H 0.1476 0.89534 0.13407 0.0
H2870 H 0.12056 0.89762 0.11235 0.0
C2871 C 0.10795 0.86109 0.09741 0.0
C2872 C 0.128 0.8711 0.11817 0.0
C2873 C 0.10461 0.85259 0.09037 0.0
C2874 C 0.14456 0.90902 0.14278 0.0
C2875 C 0.14181 0.9005 0.1356 0.0
C2876 C 0.12263 0.89026 0.11413 0.0
C2877 C 0.11827 0.86259 0.10211 0.0
C2878 C 0.12193 0.87186 0.1093 0.0
C2879 C 0.13169 0.89869 0.13047 0.0
C2880 C 0.12858 0.88949 0.12307 0.0
H2881 H 0.12728 0.84143 0.09083 0.0
H2882 H 0.13312 0.85626 0.10316 0.0
H2883 H 0.11485 0.88243 0.10049 0.0
H2884 H 0.12142 0.91935 0.14121 0.0
H2885 H 0.11656 0.90444 0.12884 0.0
C2886 C 0.43201 0.87041 0.3265 0.0
C2887 C 0.44159 0.86657 0.32863 0.0
C2888 C 0.42361 0.86888 0.33262 0.0
C2889 C 0.41295 0.85295 0.35178 0.0
H2890 H 0.39798 0.87619 0.3586 0.0
C2891 C 0.37438 0.8498 0.37274 0.0
C2892 C 0.37323 0.85805 0.37987 0.0
C2893 C 0.38293 0.85043 0.36668 0.0
C2894 C 0.40213 0.86964 0.35684 0.0
H2895 H 0.4497 0.85783 0.3387 0.0
H2896 H 0.43508 0.85531 0.34949 0.0
H2897 H 0.41238 0.87799 0.34757 0.0
H2898 H 0.38044 0.87321 0.38656 0.0
H2899 H 0.39535 0.8743 0.37604 0.0
H2900 H 0.40277 0.84467 0.36121 0.0
C2901 C 0.43406 0.85945 0.34304 0.0
C2902 C 0.4103 0.87064 0.3504 0.0
C2903 C 0.44248 0.86099 0.33692 0.0
C2904 C 0.38099 0.86681 0.38101 0.0
C2905 C 0.38952 0.86743 0.37497 0.0
C2906 C 0.40474 0.85195 0.35821 0.0
C2907 C 0.42457 0.86347 0.34102 0.0
C2908 C 0.41581 0.86231 0.34779 0.0
C2909 C 0.39052 0.85932 0.36764 0.0
C2910 C 0.39926 0.8603 0.36083 0.0
H2911 H 0.43109 0.87483 0.32023 0.0
H2912 H 0.41636 0.87197 0.33078 0.0
H2913 H 0.41699 0.84636 0.34985 0.0
H2914 H 0.36848 0.84299 0.37161 0.0
H2915 H 0.38342 0.84408 0.36105 0.0
C2916 C 0.34931 0.16722 0.57718 0.0
C2917 C 0.34521 0.16414 0.56728 0.0
C2918 C 0.34979 0.15999 0.58402 0.0
C2919 C 0.34948 0.13215 0.58597 0.0
H2920 H 0.34191 0.13956 0.61289 0.0
C2921 C 0.34425 0.10302 0.61538 0.0
C2922 C 0.34835 0.10655 0.6252 0.0
C2923 C 0.34404 0.10985 0.6081 0.0
C2924 C 0.34417 0.13742 0.60544 0.0
H2925 H 0.33847 0.15104 0.55678 0.0
H2926 H 0.33927 0.13837 0.56877 0.0
H2927 H 0.34112 0.15177 0.60056 0.0
H2928 H 0.35548 0.12002 0.63507 0.0
H2929 H 0.35526 0.1319 0.62234 0.0
H2930 H 0.35247 0.11776 0.59089 0.0
C2931 C 0.34222 0.14638 0.5712 0.0
C2932 C 0.34371 0.14441 0.59836 0.0
C2933 C 0.34175 0.15363 0.56433 0.0
C2934 C 0.35235 0.11704 0.62755 0.0
C2935 C 0.35212 0.12386 0.62029 0.0
C2936 C 0.34991 0.12513 0.59306 0.0
C2937 C 0.34617 0.1495 0.58114 0.0
C2938 C 0.34643 0.1419 0.58856 0.0
C2939 C 0.34789 0.12037 0.6105 0.0
C2940 C 0.34732 0.12772 0.60289 0.0
H2941 H 0.35223 0.17523 0.57963 0.0
H2942 H 0.35309 0.16262 0.59156 0.0
H2943 H 0.35174 0.13002 0.57852 0.0
H2944 H 0.34119 0.09496 0.61332 0.0
H2945 H 0.34067 0.10693 0.60065 0.0
C2946 C 0.05752 0.12471 0.80057 0.0
C2947 C 0.04791 0.12758 0.80375 0.0
C2948 C 0.06676 0.1267 0.80698 0.0
C2949 C 0.07873 0.1428 0.82999 0.0
H2950 H 0.09704 0.1216 0.83139 0.0
C2951 C 0.11083 0.14401 0.86212 0.0
C2952 C 0.12072 0.14116 0.85974 0.0
C2953 C 0.10232 0.14264 0.85489 0.0
C2954 C 0.09209 0.12765 0.831 0.0
H2955 H 0.04056 0.135 0.81609 0.0
H2956 H 0.05659 0.13826 0.82731 0.0
H2957 H 0.08153 0.11875 0.81945 0.0
H2958 H 0.12941 0.13473 0.84786 0.0
H2959 H 0.11449 0.13228 0.83523 0.0
H2960 H 0.08921 0.15164 0.84162 0.0
C2961 C 0.05702 0.13456 0.81984 0.0
C2962 C 0.0832 0.12602 0.82415 0.0
C2963 C 0.04779 0.13257 0.81344 0.0
C2964 C 0.12187 0.13689 0.84996 0.0
C2965 C 0.11333 0.13549 0.84273 0.0
C2966 C 0.0876 0.14441 0.83684 0.0
C2967 C 0.06661 0.13162 0.8167 0.0
C2968 C 0.07635 0.13354 0.82363 0.0
C2969 C 0.10346 0.13837 0.84511 0.0
C2970 C 0.09432 0.13682 0.8375 0.0
H2971 H 0.05786 0.12078 0.79319 0.0
H2972 H 0.07404 0.12442 0.8043 0.0
H2973 H 0.07374 0.14883 0.82966 0.0
H2974 H 0.10961 0.14713 0.86962 0.0
H2975 H 0.09477 0.14476 0.85701 0.0
C2976 C 0.93454 0.36139 0.82808 0.0
C2977 C 0.93263 0.36566 0.81912 0.0
C2978 C 0.92637 0.3593 0.83436 0.0
C2979 C 0.90013 0.36657 0.84003 0.0
H2980 H 0.89797 0.34238 0.85437 0.0
C2981 C 0.87084 0.36121 0.87051 0.0
C2982 C 0.86529 0.3513 0.87078 0.0
C2983 C 0.87932 0.36275 0.86449 0.0
C2984 C 0.89841 0.34914 0.85036 0.0
H2985 H 0.92055 0.37101 0.80971 0.0
H2986 H 0.90626 0.36706 0.82048 0.0
H2987 H 0.91193 0.34517 0.84293 0.0
H2988 H 0.86432 0.33522 0.86503 0.0
H2989 H 0.87905 0.3379 0.85438 0.0
H2990 H 0.88646 0.37041 0.84721 0.0
C2991 C 0.91412 0.36549 0.82275 0.0
C2992 C 0.90649 0.3508 0.84389 0.0
C2993 C 0.9223 0.36762 0.8165 0.0
C2994 C 0.86853 0.34293 0.86504 0.0
C2995 C 0.87698 0.34447 0.85895 0.0
C2996 C 0.89204 0.3649 0.84646 0.0
C2997 C 0.91607 0.3614 0.83181 0.0
C2998 C 0.90745 0.35954 0.83865 0.0
C2999 C 0.88241 0.35442 0.85853 0.0
C3000 C 0.89109 0.35617 0.85173 0.0
H3001 H 0.94237 0.35966 0.83027 0.0
H3002 H 0.92818 0.35623 0.84131 0.0
H3003 H 0.90071 0.37346 0.83623 0.0
H3004 H 0.86863 0.36779 0.87498 0.0
H3005 H 0.88347 0.37048 0.86452 0.0
C3006 C 0.83757 0.65883 0.08809 0.0
C3007 C 0.84588 0.66113 0.08192 0.0
C3008 C 0.83812 0.65142 0.09475 0.0
C3009 C 0.85724 0.63837 0.10848 0.0
H3010 H 0.83244 0.61894 0.11192 0.0
C3011 C 0.85885 0.60537 0.13355 0.0
C3012 C 0.85025 0.6033 0.13943 0.0
C3013 C 0.85842 0.61217 0.12626 0.0
C3014 C 0.83941 0.62438 0.11113 0.0
H3015 H 0.8613 0.65746 0.07793 0.0
H3016 H 0.8622 0.64444 0.08949 0.0
H3017 H 0.83142 0.63122 0.09964 0.0
H3018 H 0.83456 0.60695 0.14246 0.0
H3019 H 0.83384 0.61885 0.12983 0.0
H3020 H 0.8652 0.63163 0.12004 0.0
C3021 C 0.85529 0.64842 0.08921 0.0
C3022 C 0.83883 0.63141 0.10408 0.0
C3023 C 0.85472 0.6558 0.08252 0.0
C3024 C 0.84125 0.60825 0.13793 0.0
C3025 C 0.84083 0.61506 0.13067 0.0
C3026 C 0.85782 0.63137 0.11555 0.0
C3027 C 0.84702 0.64617 0.09542 0.0
C3028 C 0.84772 0.63851 0.10271 0.0
C3029 C 0.84939 0.61708 0.12472 0.0
C3030 C 0.84889 0.62433 0.117 0.0
H3031 H 0.83062 0.66274 0.08774 0.0
H3032 H 0.83166 0.64993 0.09949 0.0
H3033 H 0.8642 0.64384 0.10769 0.0
H3034 H 0.86585 0.60159 0.13446 0.0
H3035 H 0.8651 0.61346 0.12172 0.0
C3036 C 0.55274 0.63245 0.31199 0.0
C3037 C 0.55062 0.64034 0.30619 0.0
C3038 C 0.56212 0.63346 0.31812 0.0
C3039 C 0.58283 0.65288 0.33145 0.0
H3040 H 0.59811 0.6295 0.33359 0.0
C3041 C 0.62149 0.65585 0.35687 0.0
C3042 C 0.62241 0.64761 0.36259 0.0
C3043 C 0.61344 0.65506 0.34922 0.0
C3044 C 0.59389 0.63608 0.33314 0.0
H3045 H 0.5567 0.65546 0.30227 0.0
H3046 H 0.57315 0.6572 0.31297 0.0
H3047 H 0.58271 0.62796 0.32164 0.0
H3048 H 0.61557 0.63208 0.36474 0.0
H3049 H 0.60152 0.63072 0.35147 0.0
H3050 H 0.59386 0.66093 0.34308 0.0
C3051 C 0.56751 0.65026 0.31279 0.0
C3052 C 0.58507 0.6352 0.32628 0.0
C3053 C 0.55814 0.64923 0.3066 0.0
C3054 C 0.61519 0.63851 0.36038 0.0
C3055 C 0.60713 0.63773 0.35275 0.0
C3056 C 0.59163 0.65375 0.33833 0.0
C3057 C 0.56959 0.64239 0.31863 0.0
C3058 C 0.57937 0.64355 0.32545 0.0
C3059 C 0.6061 0.64602 0.34712 0.0
C3060 C 0.59719 0.64531 0.33934 0.0
H3061 H 0.54717 0.62546 0.31175 0.0
H3062 H 0.56343 0.6273 0.32261 0.0
H3063 H 0.57853 0.65941 0.33106 0.0
H3064 H 0.62702 0.66291 0.35831 0.0
H3065 H 0.61297 0.66153 0.34493 0.0
C3066 C 0.85617 0.36911 0.41884 0.0
C3067 C 0.85862 0.35913 0.41626 0.0
C3068 C 0.85694 0.3764 0.41196 0.0
C3069 C 0.86919 0.38215 0.38854 0.0
H3070 H 0.84701 0.39944 0.3859 0.0
C3071 C 0.86353 0.40461 0.35453 0.0
C3072 C 0.86091 0.41465 0.35625 0.0
C3073 C 0.86389 0.39839 0.36231 0.0
C3074 C 0.85334 0.39477 0.38663 0.0
H3075 H 0.86403 0.34906 0.40448 0.0
H3076 H 0.86509 0.36162 0.39243 0.0
H3077 H 0.84639 0.38755 0.39866 0.0
H3078 H 0.85691 0.42612 0.36757 0.0
H3079 H 0.85745 0.4152 0.38113 0.0
H3080 H 0.87604 0.38924 0.3764 0.0
C3081 C 0.86268 0.36389 0.3998 0.0
C3082 C 0.85299 0.38796 0.39395 0.0
C3083 C 0.86193 0.35662 0.40667 0.0
C3084 C 0.85879 0.41836 0.36596 0.0
C3085 C 0.85911 0.41212 0.37373 0.0
C3086 C 0.86952 0.38893 0.38121 0.0
C3087 C 0.86019 0.37386 0.40235 0.0
C3088 C 0.86085 0.38149 0.39493 0.0
C3089 C 0.8616 0.40204 0.37197 0.0
C3090 C 0.86155 0.39524 0.38011 0.0
H3091 H 0.85352 0.37127 0.42614 0.0
H3092 H 0.85505 0.38404 0.41419 0.0
H3093 H 0.87549 0.37743 0.38921 0.0
H3094 H 0.86503 0.40144 0.34712 0.0
H3095 H 0.86568 0.39061 0.36068 0.0
C3096 C 0.61753 0.64175 0.9068 0.0
C3097 C 0.60792 0.64267 0.91118 0.0
C3098 C 0.61844 0.63326 0.89998 0.0
C3099 C 0.60565 0.60675 0.89066 0.0
H3100 H 0.62059 0.61199 0.86709 0.0
C3101 C 0.60233 0.57768 0.85512 0.0
C3102 C 0.61157 0.57683 0.85009 0.0
C3103 C 0.60239 0.58513 0.86327 0.0
C3104 C 0.61652 0.61037 0.8737 0.0
H3105 H 0.59174 0.63537 0.91188 0.0
H3106 H 0.59328 0.62061 0.89987 0.0
H3107 H 0.61972 0.62611 0.87996 0.0
H3108 H 0.62818 0.58299 0.84979 0.0
H3109 H 0.62831 0.59591 0.86409 0.0
H3110 H 0.60229 0.59101 0.88424 0.0
C3111 C 0.60018 0.62635 0.90184 0.0
C3112 C 0.61603 0.61847 0.88109 0.0
C3113 C 0.59929 0.63482 0.90871 0.0
C3114 C 0.62095 0.5834 0.85356 0.0
C3115 C 0.621 0.59087 0.86168 0.0
C3116 C 0.60612 0.59865 0.88324 0.0
C3117 C 0.60974 0.62551 0.89733 0.0
C3118 C 0.61055 0.61678 0.88965 0.0
C3119 C 0.61168 0.59192 0.86654 0.0
C3120 C 0.61153 0.60038 0.87465 0.0
H3121 H 0.62437 0.64758 0.90868 0.0
H3122 H 0.62598 0.63277 0.89679 0.0
H3123 H 0.6015 0.60515 0.89723 0.0
H3124 H 0.595 0.57266 0.85268 0.0
H3125 H 0.59506 0.58579 0.86681 0.0
C3126 C 0.8138 0.53974 0.85386 0.0
C3127 C 0.81059 0.5336 0.86137 0.0
C3128 C 0.82253 0.54748 0.8557 0.0
C3129 C 0.84618 0.55676 0.8733 0.0
H3130 H 0.84329 0.58323 0.86395 0.0
C3131 C 0.87183 0.59454 0.89001 0.0
C3132 C 0.87538 0.60174 0.88351 0.0
C3133 C 0.86483 0.58569 0.88645 0.0
C3134 C 0.8443 0.57585 0.86648 0.0
H3135 H 0.81403 0.53072 0.87667 0.0
H3136 H 0.82918 0.54425 0.87992 0.0
H3137 H 0.82937 0.5687 0.8593 0.0
H3138 H 0.87452 0.60527 0.86817 0.0
H3139 H 0.86222 0.58975 0.86192 0.0
H3140 H 0.86098 0.56403 0.88073 0.0
C3141 C 0.8251 0.54298 0.87254 0.0
C3142 C 0.83632 0.5675 0.86381 0.0
C3143 C 0.8164 0.53523 0.87069 0.0
C3144 C 0.87194 0.59982 0.87334 0.0
C3145 C 0.86485 0.59099 0.86978 0.0
C3146 C 0.85413 0.56512 0.87601 0.0
C3147 C 0.82822 0.54926 0.8651 0.0
C3148 C 0.83709 0.5579 0.86731 0.0
C3149 C 0.86117 0.58387 0.87632 0.0
C3150 C 0.8532 0.57478 0.87275 0.0
H3151 H 0.80957 0.53857 0.84655 0.0
H3152 H 0.82482 0.55206 0.84975 0.0
H3153 H 0.84712 0.54942 0.87597 0.0
H3154 H 0.87445 0.59577 0.89788 0.0
H3155 H 0.86206 0.58041 0.8917 0.0
C3156 C 0.14095 0.04695 0.63339 0.0
C3157 C 0.14092 0.03826 0.62644 0.0
C3158 C 0.13481 0.05465 0.63137 0.0
C3159 C 0.1116 0.05933 0.6155 0.0
H3160 H 0.12226 0.08802 0.62404 0.0
C3161 C 0.08858 0.09257 0.60597 0.0
C3162 C 0.08774 0.10003 0.61398 0.0
C3163 C 0.09551 0.08526 0.6069 0.0
C3164 C 0.11916 0.08003 0.62165 0.0
H3165 H 0.1346 0.03092 0.61182 0.0
H3166 H 0.12398 0.04441 0.60823 0.0
H3167 H 0.13352 0.0748 0.62674 0.0
H3168 H 0.09375 0.10592 0.62911 0.0
H3169 H 0.10582 0.09316 0.63075 0.0
H3170 H 0.09723 0.0646 0.61042 0.0
C3171 C 0.12858 0.04519 0.61534 0.0
C3172 C 0.12559 0.07245 0.62322 0.0
C3173 C 0.13467 0.03746 0.61739 0.0
C3174 C 0.09415 0.10019 0.62285 0.0
C3175 C 0.10113 0.09295 0.62375 0.0
C3176 C 0.10518 0.06692 0.61388 0.0
C3177 C 0.12853 0.05386 0.62232 0.0
C3178 C 0.12186 0.06198 0.62026 0.0
C3179 C 0.10181 0.08534 0.61583 0.0
C3180 C 0.10886 0.07735 0.61703 0.0
H3181 H 0.14557 0.04771 0.64049 0.0
H3182 H 0.13483 0.06112 0.637 0.0
H3183 H 0.10839 0.05134 0.61325 0.0
H3184 H 0.08369 0.09223 0.59907 0.0
H3185 H 0.09593 0.07954 0.60064 0.0
C3186 C 0.66226 0.44217 0.3784 0.0
C3187 C 0.66621 0.44968 0.38634 0.0
C3188 C 0.65481 0.43379 0.37993 0.0
C3189 C 0.63455 0.42576 0.39711 0.0
H3190 H 0.63482 0.39873 0.38286 0.0
C3191 C 0.60403 0.39054 0.40276 0.0
C3192 C 0.59939 0.38464 0.39396 0.0
C3193 C 0.61282 0.39806 0.40244 0.0
C3194 C 0.63461 0.40625 0.38685 0.0
H3195 H 0.66572 0.45409 0.4022 0.0
H3196 H 0.65279 0.43942 0.4049 0.0
H3197 H 0.64915 0.41257 0.38126 0.0
H3198 H 0.60048 0.38178 0.37799 0.0
H3199 H 0.61574 0.39493 0.37741 0.0
H3200 H 0.61997 0.41943 0.40265 0.0
C3201 C 0.65529 0.44011 0.39744 0.0
C3202 C 0.64281 0.41418 0.38592 0.0
C3203 C 0.66271 0.44851 0.3959 0.0
C3204 C 0.60382 0.38628 0.38487 0.0
C3205 C 0.61263 0.39374 0.38456 0.0
C3206 C 0.62638 0.41781 0.39807 0.0
C3207 C 0.65116 0.4327 0.38945 0.0
C3208 C 0.64281 0.42408 0.39094 0.0
C3209 C 0.61718 0.39977 0.39332 0.0
C3210 C 0.62625 0.408 0.39285 0.0
H3211 H 0.66468 0.44292 0.37092 0.0
H3212 H 0.65168 0.42833 0.37357 0.0
H3213 H 0.63421 0.43331 0.40096 0.0
H3214 H 0.60075 0.38948 0.40987 0.0
H3215 H 0.6162 0.40254 0.40932 0.0
C3216 C 0.34896 0.97067 0.11539 0.0
C3217 C 0.34323 0.97311 0.12368 0.0
C3218 C 0.35663 0.96404 0.11598 0.0
C3219 C 0.3639 0.94324 0.13021 0.0
H3220 H 0.38983 0.94691 0.11653 0.0
C3221 C 0.39406 0.91441 0.1316 0.0
C3222 C 0.39764 0.91106 0.12234 0.0
C3223 C 0.38865 0.92298 0.13259 0.0
C3224 C 0.3826 0.94577 0.12036 0.0
H3225 H 0.34141 0.97091 0.13922 0.0
H3226 H 0.35483 0.95938 0.14027 0.0
H3227 H 0.37802 0.96011 0.11672 0.0
H3228 H 0.39885 0.91438 0.10701 0.0
H3229 H 0.38927 0.92924 0.1087 0.0
H3230 H 0.36836 0.92884 0.13371 0.0
C3231 C 0.35324 0.96242 0.13325 0.0
C3232 C 0.37583 0.95332 0.12046 0.0
C3233 C 0.34555 0.96902 0.13265 0.0
C3234 C 0.39607 0.91671 0.11421 0.0
C3235 C 0.39069 0.92529 0.11521 0.0
C3236 C 0.37067 0.93572 0.13013 0.0
C3237 C 0.35876 0.95973 0.12488 0.0
C3238 C 0.36634 0.95208 0.12529 0.0
C3239 C 0.38673 0.9284 0.12436 0.0
C3240 C 0.38003 0.93683 0.1251 0.0
H3241 H 0.34727 0.97362 0.10835 0.0
H3242 H 0.36063 0.96202 0.10935 0.0
H3243 H 0.35657 0.94195 0.13386 0.0
H3244 H 0.39509 0.91018 0.13799 0.0
H3245 H 0.38581 0.92527 0.13978 0.0
C3246 C 0.83529 0.49118 0.62863 0.0
C3247 C 0.83345 0.49699 0.62068 0.0
C3248 C 0.84286 0.48441 0.62818 0.0
C3249 C 0.85633 0.46908 0.61002 0.0
H3250 H 0.87435 0.46541 0.63319 0.0
C3251 C 0.88566 0.43938 0.60789 0.0
C3252 C 0.88591 0.43322 0.6158 0.0
C3253 C 0.88055 0.44816 0.60865 0.0
C3254 C 0.86932 0.4663 0.62667 0.0
H3255 H 0.83826 0.5004 0.60609 0.0
H3256 H 0.85156 0.48864 0.60534 0.0
H3257 H 0.86303 0.47901 0.63422 0.0
H3258 H 0.88118 0.43153 0.63078 0.0
H3259 H 0.87218 0.44679 0.63209 0.0
H3260 H 0.86238 0.45625 0.60254 0.0
C3261 C 0.84708 0.48927 0.61189 0.0
C3262 C 0.86285 0.4741 0.62726 0.0
C3263 C 0.83953 0.49607 0.61236 0.0
C3264 C 0.88123 0.43619 0.6246 0.0
C3265 C 0.87608 0.44495 0.62535 0.0
C3266 C 0.86277 0.46128 0.60944 0.0
C3267 C 0.84874 0.48327 0.61975 0.0
C3268 C 0.85619 0.4755 0.61897 0.0
C3269 C 0.87553 0.45094 0.61732 0.0
C3270 C 0.86926 0.45972 0.61779 0.0
H3271 H 0.83083 0.49181 0.63519 0.0
H3272 H 0.84388 0.47984 0.63431 0.0
H3273 H 0.85117 0.46986 0.60355 0.0
H3274 H 0.88935 0.43736 0.60108 0.0
H3275 H 0.88045 0.45271 0.60241 0.0
C3276 C 0.32898 0.04896 0.35147 0.0
C3277 C 0.3253 0.04418 0.35971 0.0
C3278 C 0.33769 0.05674 0.35269 0.0
C3279 C 0.3605 0.06849 0.37045 0.0
H3280 H 0.35839 0.09271 0.35671 0.0
C3281 C 0.38573 0.10779 0.38283 0.0
C3282 C 0.38973 0.11367 0.37541 0.0
C3283 C 0.37878 0.09866 0.38024 0.0
C3284 C 0.35918 0.08594 0.36049 0.0
H3285 H 0.32792 0.04378 0.37567 0.0
H3286 H 0.34303 0.0574 0.37783 0.0
H3287 H 0.34456 0.0779 0.35341 0.0
H3288 H 0.38972 0.11455 0.35946 0.0
H3289 H 0.37754 0.09855 0.35492 0.0
H3290 H 0.37498 0.07669 0.37775 0.0
C3291 C 0.33933 0.05501 0.37039 0.0
C3292 C 0.35126 0.07744 0.35859 0.0
C3293 C 0.33065 0.04721 0.36915 0.0
C3294 C 0.38679 0.11015 0.36533 0.0
C3295 C 0.37976 0.10104 0.36274 0.0
C3296 C 0.36839 0.07701 0.37239 0.0
C3297 C 0.34291 0.05994 0.36219 0.0
C3298 C 0.35174 0.06866 0.36365 0.0
C3299 C 0.37564 0.09524 0.37017 0.0
C3300 C 0.36774 0.08588 0.36753 0.0
H3301 H 0.32511 0.04669 0.34407 0.0
H3302 H 0.34034 0.06025 0.34619 0.0
H3303 H 0.36123 0.06178 0.37434 0.0
H3304 H 0.38795 0.11027 0.39065 0.0
H3305 H 0.37566 0.09442 0.38614 0.0
C3306 C 0.63184 0.53558 0.13952 0.0
C3307 C 0.64232 0.53632 0.13668 0.0
C3308 C 0.6255 0.54313 0.13752 0.0
C3309 C 0.62291 0.56384 0.12133 0.0
H3310 H 0.60425 0.57284 0.14109 0.0
C3311 C 0.59953 0.59833 0.11755 0.0
C3312 C 0.589 0.59712 0.1203 0.0
C3313 C 0.60616 0.59095 0.11939 0.0
C3314 C 0.60934 0.57033 0.13545 0.0
H3315 H 0.65434 0.54557 0.12945 0.0
H3316 H 0.64336 0.55886 0.12616 0.0
H3317 H 0.61566 0.56002 0.14473 0.0
H3318 H 0.57708 0.58704 0.12682 0.0
H3319 H 0.58863 0.57422 0.13005 0.0
H3320 H 0.61659 0.57421 0.11206 0.0
C3321 C 0.63999 0.55237 0.12983 0.0
C3322 C 0.61587 0.56298 0.13754 0.0
C3323 C 0.64634 0.54481 0.13183 0.0
C3324 C 0.58521 0.5883 0.12478 0.0
C3325 C 0.59182 0.58095 0.12664 0.0
C3326 C 0.61638 0.57122 0.11925 0.0
C3327 C 0.62949 0.55161 0.13265 0.0
C3328 C 0.6227 0.5596 0.13048 0.0
C3329 C 0.6024 0.58222 0.12403 0.0
C3330 C 0.60948 0.57451 0.12627 0.0
H3331 H 0.62853 0.5292 0.14337 0.0
H3332 H 0.61741 0.54224 0.1397 0.0
H3333 H 0.62797 0.56131 0.11567 0.0
H3334 H 0.60274 0.60509 0.1142 0.0
H3335 H 0.6143 0.5922 0.11739 0.0
C3336 C 0.16468 0.94093 0.89262 0.0
C3337 C 0.16816 0.94909 0.90011 0.0
C3338 C 0.15694 0.93289 0.89438 0.0
C3339 C 0.1351 0.92706 0.91061 0.0
H3340 H 0.13535 0.899 0.89884 0.0
C3341 C 0.10227 0.89398 0.91652 0.0
C3342 C 0.09801 0.8877 0.9078 0.0
C3343 C 0.1116 0.90088 0.91641 0.0
C3344 C 0.13515 0.90681 0.90214 0.0
H3345 H 0.16656 0.95499 0.91544 0.0
H3346 H 0.15312 0.9409 0.91856 0.0
H3347 H 0.15037 0.91213 0.89722 0.0
H3348 H 0.10041 0.88339 0.89226 0.0
H3349 H 0.11663 0.89546 0.89204 0.0
H3350 H 0.11983 0.92175 0.91545 0.0
C3351 C 0.15621 0.94082 0.91125 0.0
C3352 C 0.14375 0.91434 0.90121 0.0
C3353 C 0.16393 0.94889 0.90948 0.0
C3354 C 0.10344 0.88823 0.89906 0.0
C3355 C 0.11279 0.89506 0.89897 0.0
C3356 C 0.12653 0.91952 0.91159 0.0
C3357 C 0.15252 0.9328 0.90368 0.0
C3358 C 0.14376 0.9246 0.9053 0.0
C3359 C 0.1169 0.90156 0.9076 0.0
C3360 C 0.12639 0.90935 0.90725 0.0
H3361 H 0.16769 0.94093 0.88528 0.0
H3362 H 0.15417 0.92694 0.88832 0.0
H3363 H 0.13475 0.9349 0.91373 0.0
H3364 H 0.09823 0.89378 0.92335 0.0
H3365 H 0.11462 0.90573 0.9232 0.0
C3366 C 0.91108 0.88484 0.59693 0.0
C3367 C 0.92184 0.88439 0.59544 0.0
C3368 C 0.90808 0.89294 0.60312 0.0
C3369 C 0.91777 0.91923 0.61571 0.0
H3370 H 0.89542 0.91235 0.63319 0.0
C3371 C 0.90964 0.94601 0.65027 0.0
C3372 C 0.89899 0.94659 0.65215 0.0
C3373 C 0.91218 0.93908 0.64254 0.0
C3374 C 0.90158 0.91443 0.62826 0.0
H3375 H 0.93787 0.89212 0.59918 0.0
H3376 H 0.93267 0.90619 0.61016 0.0
H3377 H 0.90039 0.89897 0.62133 0.0
H3378 H 0.88265 0.94052 0.64728 0.0
H3379 H 0.8871 0.92843 0.63374 0.0
H3380 H 0.91911 0.93466 0.6229 0.0
C3381 C 0.92652 0.9004 0.60639 0.0
C3382 C 0.90443 0.90676 0.62144 0.0
C3383 C 0.92952 0.89232 0.60013 0.0
C3384 C 0.89093 0.94029 0.64596 0.0
C3385 C 0.89347 0.93331 0.63828 0.0
C3386 C 0.91497 0.92689 0.62259 0.0
C3387 C 0.91576 0.90076 0.60804 0.0
C3388 C 0.91258 0.90904 0.61509 0.0
C3389 C 0.90413 0.93254 0.63658 0.0
C3390 C 0.90686 0.92456 0.62896 0.0
H3391 H 0.90498 0.87892 0.59327 0.0
H3392 H 0.89971 0.89308 0.60403 0.0
H3393 H 0.92398 0.9213 0.61084 0.0
H3394 H 0.91601 0.95083 0.65488 0.0
H3395 H 0.92047 0.93861 0.64146 0.0
C3396 C 0.96594 0.1612 0.31514 0.0
C3397 C 0.96534 0.16756 0.30742 0.0
C3398 C 0.95974 0.16227 0.32327 0.0
C3399 C 0.94302 0.17958 0.33649 0.0
H3400 H 0.92934 0.15397 0.34462 0.0
C3401 C 0.9067 0.17659 0.36061 0.0
C3402 C 0.90619 0.16929 0.36754 0.0
C3403 C 0.91491 0.17732 0.35416 0.0
C3404 C 0.93322 0.1612 0.34256 0.0
H3405 H 0.9581 0.18037 0.30245 0.0
H3406 H 0.94705 0.18203 0.3165 0.0
H3407 H 0.94185 0.1535 0.33175 0.0
H3408 H 0.91427 0.15755 0.37365 0.0
H3409 H 0.92858 0.15884 0.36244 0.0
H3410 H 0.93412 0.18725 0.34721 0.0
C3411 C 0.9524 0.17628 0.31632 0.0
C3412 C 0.94041 0.16093 0.33517 0.0
C3413 C 0.95864 0.17524 0.30819 0.0
C3414 C 0.91433 0.1631 0.36824 0.0
C3415 C 0.92252 0.16383 0.36182 0.0
C3416 C 0.93577 0.17984 0.34388 0.0
C3417 C 0.95273 0.16968 0.32387 0.0
C3418 C 0.94539 0.17011 0.33202 0.0
C3419 C 0.92277 0.17077 0.35454 0.0
C3420 C 0.93078 0.17065 0.34698 0.0
H3421 H 0.97092 0.15515 0.31477 0.0
H3422 H 0.96032 0.15717 0.32904 0.0
H3423 H 0.9468 0.18679 0.3343 0.0
H3424 H 0.90051 0.18141 0.35986 0.0
H3425 H 0.91484 0.18268 0.34859 0.0
C3426 C 0.63199 0.13343 0.09443 0.0
C3427 C 0.62914 0.14304 0.09796 0.0
C3428 C 0.63217 0.1256 0.10071 0.0
C3429 C 0.62155 0.11751 0.12406 0.0
H3430 H 0.64492 0.10141 0.12487 0.0
C3431 C 0.6302 0.09531 0.15713 0.0
C3432 C 0.63216 0.08507 0.15515 0.0
C3433 C 0.6298 0.10163 0.14948 0.0
C3434 C 0.63828 0.10576 0.12463 0.0
H3435 H 0.62409 0.15186 0.11083 0.0
H3436 H 0.62467 0.13839 0.12179 0.0
H3437 H 0.64413 0.11386 0.11263 0.0
H3438 H 0.63561 0.07356 0.1436 0.0
H3439 H 0.63506 0.08477 0.13016 0.0
H3440 H 0.61583 0.10963 0.13619 0.0
C3441 C 0.62665 0.13683 0.11415 0.0
C3442 C 0.63781 0.11288 0.11762 0.0
C3443 C 0.62647 0.14462 0.1079 0.0
C3444 C 0.63411 0.08142 0.14537 0.0
C3445 C 0.63378 0.08781 0.13768 0.0
C3446 C 0.62205 0.11047 0.13107 0.0
C3447 C 0.62945 0.12721 0.11064 0.0
C3448 C 0.62955 0.11898 0.11741 0.0
C3449 C 0.63144 0.09793 0.13965 0.0
C3450 C 0.63052 0.10467 0.13157 0.0
H3451 H 0.63417 0.132 0.08683 0.0
H3452 H 0.63432 0.11826 0.09776 0.0
H3453 H 0.61493 0.12189 0.12394 0.0
H3454 H 0.62896 0.09847 0.16462 0.0
H3455 H 0.62823 0.10947 0.15126 0.0
C3456 C 0.55469 0.86206 0.80787 0.0
C3457 C 0.54376 0.86009 0.80915 0.0
C3458 C 0.56211 0.85892 0.81456 0.0
C3459 C 0.56519 0.85296 0.84046 0.0
H3460 H 0.59009 0.84141 0.832 0.0
C3461 C 0.5946 0.83989 0.86892 0.0
C3462 C 0.60547 0.84251 0.86769 0.0
C3463 C 0.58696 0.84097 0.86137 0.0
C3464 C 0.58322 0.84471 0.83449 0.0
H3465 H 0.53207 0.85281 0.81821 0.0
H3466 H 0.545 0.84743 0.82991 0.0
H3467 H 0.57699 0.84532 0.81949 0.0
H3468 H 0.61682 0.84789 0.85735 0.0
H3469 H 0.6035 0.85007 0.84433 0.0
H3470 H 0.57147 0.85261 0.85543 0.0
C3471 C 0.54784 0.85155 0.82382 0.0
C3472 C 0.57572 0.84694 0.82732 0.0
C3473 C 0.54043 0.85465 0.81712 0.0
C3474 C 0.60851 0.84594 0.85861 0.0
C3475 C 0.60087 0.84707 0.85108 0.0
C3476 C 0.5727 0.85079 0.84762 0.0
C3477 C 0.55876 0.85377 0.8227 0.0
C3478 C 0.56663 0.85111 0.83023 0.0
C3479 C 0.58999 0.84474 0.85243 0.0
C3480 C 0.58183 0.84667 0.84474 0.0
H3481 H 0.55754 0.86632 0.80188 0.0
H3482 H 0.57048 0.86083 0.81355 0.0
H3483 H 0.55837 0.85634 0.84296 0.0
H3484 H 0.59196 0.83731 0.87584 0.0
H3485 H 0.57866 0.83893 0.86261 0.0
C3486 C 0.84884 0.1426 0.9328 0.0
C3487 C 0.85773 0.14993 0.93598 0.0
C3488 C 0.84895 0.1357 0.92425 0.0
C3489 C 0.86332 0.13143 0.90133 0.0
H3490 H 0.84932 0.10342 0.90107 0.0
C3491 C 0.85663 0.10263 0.8655 0.0
C3492 C 0.85698 0.09216 0.86649 0.0
C3493 C 0.85732 0.1098 0.87396 0.0
C3494 C 0.8534 0.11117 0.90104 0.0
H3495 H 0.87376 0.15571 0.93281 0.0
H3496 H 0.87408 0.14354 0.91802 0.0
H3497 H 0.8494 0.11554 0.91587 0.0
H3498 H 0.85885 0.08105 0.87703 0.0
H3499 H 0.86037 0.09358 0.89179 0.0
H3500 H 0.86762 0.12694 0.88661 0.0
C3501 C 0.8669 0.14326 0.92196 0.0
C3502 C 0.85329 0.11819 0.90949 0.0
C3503 C 0.86674 0.15022 0.93045 0.0
C3504 C 0.85842 0.08907 0.87607 0.0
C3505 C 0.85923 0.09624 0.88452 0.0
C3506 C 0.86351 0.12438 0.8929 0.0
C3507 C 0.85801 0.13591 0.91874 0.0
C3508 C 0.8582 0.12843 0.90974 0.0
C3509 C 0.85847 0.10667 0.88359 0.0
C3510 C 0.85852 0.11416 0.89263 0.0
H3511 H 0.84174 0.14229 0.93686 0.0
H3512 H 0.84189 0.13028 0.9219 0.0
H3513 H 0.86709 0.13928 0.9012 0.0
H3514 H 0.85541 0.1052 0.85819 0.0
H3515 H 0.85657 0.11774 0.87295 0.0
C3516 C 0.55885 0.14204 0.68843 0.0
C3517 C 0.55561 0.15031 0.69435 0.0
C3518 C 0.56744 0.14368 0.68255 0.0
C3519 C 0.58216 0.16363 0.66979 0.0
H3520 H 0.60316 0.14484 0.6679 0.0
C3521 C 0.61755 0.17044 0.64545 0.0
C3522 C 0.6204 0.16176 0.63987 0.0
C3523 C 0.61036 0.16929 0.65281 0.0
C3524 C 0.5973 0.1501 0.66826 0.0
H3525 H 0.55889 0.16676 0.6988 0.0
H3526 H 0.57392 0.16963 0.68847 0.0
H3527 H 0.58927 0.14238 0.67947 0.0
H3528 H 0.61801 0.14507 0.63767 0.0
H3529 H 0.60531 0.14302 0.65039 0.0
H3530 H 0.58994 0.1712 0.6584 0.0
C3531 C 0.56978 0.16189 0.68839 0.0
C3532 C 0.58937 0.1487 0.67491 0.0
C3533 C 0.56124 0.16024 0.69435 0.0
C3534 C 0.61604 0.15189 0.64192 0.0
C3535 C 0.60878 0.15073 0.64924 0.0
C3536 C 0.59003 0.16498 0.66308 0.0
C3537 C 0.57293 0.15363 0.68238 0.0
C3538 C 0.58168 0.15541 0.6757 0.0
C3539 C 0.60578 0.15942 0.65472 0.0
C3540 C 0.59767 0.1582 0.66218 0.0
H3541 H 0.55472 0.13429 0.68835 0.0
H3542 H 0.56962 0.13718 0.67794 0.0
H3543 H 0.57625 0.16883 0.67013 0.0
H3544 H 0.6209 0.17813 0.64412 0.0
H3545 H 0.6084 0.17614 0.65702 0.0
C3546 C 0.638 0.84362 0.42842 0.0
C3547 C 0.63426 0.83369 0.4237 0.0
C3548 C 0.6394 0.85205 0.42287 0.0
C3549 C 0.64291 0.8587 0.39721 0.0
H3550 H 0.63334 0.88439 0.40692 0.0
C3551 C 0.64886 0.89461 0.37581 0.0
C3552 C 0.63989 0.89966 0.3746 0.0
C3553 C 0.64908 0.88717 0.38249 0.0
C3554 C 0.63605 0.87726 0.40411 0.0
H3555 H 0.62884 0.82487 0.40945 0.0
H3556 H 0.63132 0.83954 0.39978 0.0
H3557 H 0.63177 0.87001 0.41707 0.0
H3558 H 0.62432 0.9012 0.37976 0.0
H3559 H 0.62465 0.88814 0.39131 0.0
H3560 H 0.64691 0.86584 0.38412 0.0
C3561 C 0.63335 0.84079 0.40776 0.0
C3562 C 0.63524 0.86906 0.40996 0.0
C3563 C 0.63192 0.83239 0.4133 0.0
C3564 C 0.6313 0.89735 0.38044 0.0
C3565 C 0.63153 0.88995 0.38714 0.0
C3566 C 0.64375 0.86691 0.39137 0.0
C3567 C 0.63712 0.85072 0.41246 0.0
C3568 C 0.63853 0.85964 0.40652 0.0
C3569 C 0.64036 0.88467 0.38814 0.0
C3570 C 0.64021 0.87624 0.3947 0.0
H3571 H 0.64001 0.84487 0.4364 0.0
H3572 H 0.64243 0.85958 0.4267 0.0
H3573 H 0.64565 0.85159 0.3944 0.0
H3574 H 0.65558 0.89619 0.37137 0.0
H3575 H 0.65604 0.8833 0.38318 0.0
C3576 C 0.95974 0.87062 0.18375 0.0
C3577 C 0.95952 0.8748 0.19373 0.0
C3578 C 0.95032 0.86753 0.17775 0.0
C3579 C 0.92141 0.86033 0.1787 0.0
H3580 H 0.91993 0.869 0.15209 0.0
C3581 C 0.88172 0.85916 0.15542 0.0
C3582 C 0.88143 0.85663 0.14503 0.0
C3583 C 0.89132 0.86046 0.16127 0.0
C3584 C 0.92024 0.86636 0.15944 0.0
H3585 H 0.94915 0.87899 0.2052 0.0
H3586 H 0.93273 0.8735 0.19476 0.0
H3587 H 0.93657 0.87283 0.16246 0.0
H3588 H 0.89105 0.85336 0.13267 0.0
H3589 H 0.90774 0.85535 0.14291 0.0
H3590 H 0.90508 0.85389 0.1757 0.0
C3591 C 0.94021 0.87251 0.19162 0.0
C3592 C 0.92978 0.86857 0.16539 0.0
C3593 C 0.94963 0.87565 0.19761 0.0
C3594 C 0.89096 0.85522 0.14066 0.0
C3595 C 0.90056 0.85649 0.14652 0.0
C3596 C 0.91188 0.85807 0.17273 0.0
C3597 C 0.94045 0.86851 0.1816 0.0
C3598 C 0.93045 0.86567 0.17512 0.0
C3599 C 0.90087 0.85924 0.15688 0.0
C3600 C 0.91115 0.86114 0.16306 0.0
H3601 H 0.96721 0.86969 0.18057 0.0
H3602 H 0.95076 0.86433 0.1701 0.0
H3603 H 0.92172 0.85787 0.18612 0.0
H3604 H 0.87451 0.86017 0.15905 0.0
H3605 H 0.89126 0.86268 0.16921 0.0
C3606 C 0.0675 0.65107 0.19946 0.0
C3607 C 0.06059 0.64173 0.19857 0.0
C3608 C 0.07586 0.65239 0.19324 0.0
C3609 C 0.09251 0.63815 0.17697 0.0
H3610 H 0.09638 0.66323 0.16403 0.0
C3611 C 0.11847 0.64264 0.14355 0.0
C3612 C 0.12418 0.65237 0.14277 0.0
C3613 C 0.11136 0.64134 0.15098 0.0
C3614 C 0.09555 0.65625 0.1677 0.0
H3615 H 0.0572 0.62636 0.19069 0.0
H3616 H 0.07176 0.62868 0.1798 0.0
H3617 H 0.08289 0.66102 0.17597 0.0
H3618 H 0.1273 0.66825 0.1494 0.0
H3619 H 0.11506 0.66596 0.16247 0.0
H3620 H 0.10517 0.63337 0.16871 0.0
C3621 C 0.07073 0.63497 0.18531 0.0
C3622 C 0.08779 0.65498 0.17453 0.0
C3623 C 0.06233 0.63368 0.19147 0.0
C3624 C 0.12287 0.6607 0.14973 0.0
C3625 C 0.11584 0.65938 0.1572 0.0
C3626 C 0.10032 0.63944 0.17017 0.0
C3627 C 0.07753 0.64437 0.18607 0.0
C3628 C 0.08612 0.64588 0.17918 0.0
C3629 C 0.10987 0.64972 0.15784 0.0
C3630 C 0.10188 0.64848 0.16539 0.0
H3631 H 0.06632 0.65743 0.20482 0.0
H3632 H 0.08103 0.65969 0.19405 0.0
H3633 H 0.0915 0.6311 0.18053 0.0
H3634 H 0.11924 0.63611 0.13823 0.0
H3635 H 0.1068 0.63382 0.15116 0.0
C3636 C 0.1205 0.32571 0.90104 0.0
C3637 C 0.12263 0.32719 0.91146 0.0
C3638 C 0.12147 0.33409 0.89542 0.0
C3639 C 0.12181 0.36223 0.89728 0.0
H3640 H 0.13478 0.35958 0.87204 0.0
C3641 C 0.11866 0.39065 0.86761 0.0
C3642 C 0.1276 0.39321 0.86227 0.0
C3643 C 0.11864 0.3832 0.87429 0.0
C3644 C 0.13124 0.3605 0.87912 0.0
H3645 H 0.12748 0.33867 0.92414 0.0
H3646 H 0.1291 0.35332 0.91432 0.0
H3647 H 0.13363 0.34535 0.88233 0.0
H3648 H 0.14361 0.39012 0.8599 0.0
H3649 H 0.14364 0.3772 0.87167 0.0
H3650 H 0.11945 0.37741 0.89407 0.0
C3651 C 0.12659 0.34566 0.91052 0.0
C3652 C 0.13047 0.35229 0.88496 0.0
C3653 C 0.12564 0.33727 0.91614 0.0
C3654 C 0.13663 0.38837 0.86396 0.0
C3655 C 0.1366 0.38089 0.87061 0.0
C3656 C 0.12255 0.37044 0.89142 0.0
C3657 C 0.12456 0.34416 0.90009 0.0
C3658 C 0.12567 0.35303 0.89407 0.0
C3659 C 0.12756 0.37812 0.87575 0.0
C3660 C 0.12722 0.36964 0.88225 0.0
H3661 H 0.11798 0.31807 0.89721 0.0
H3662 H 0.11967 0.33269 0.88742 0.0
H3663 H 0.11801 0.36302 0.90423 0.0
H3664 H 0.11163 0.39433 0.86654 0.0
H3665 H 0.11152 0.38119 0.87807 0.0
C3666 C 0.446 0.37382 0.6761 0.0
C3667 C 0.45152 0.38379 0.676 0.0
C3668 C 0.43669 0.37056 0.66996 0.0
C3669 C 0.42151 0.37671 0.64753 0.0
H3670 H 0.39757 0.36151 0.65852 0.0
C3671 C 0.37886 0.3725 0.62948 0.0
C3672 C 0.37245 0.36293 0.62923 0.0
C3673 C 0.38884 0.37429 0.63469 0.0
C3674 C 0.40423 0.36562 0.65529 0.0
H3675 H 0.45149 0.39817 0.66946 0.0
H3676 H 0.43526 0.39252 0.65882 0.0
H3677 H 0.4144 0.36603 0.66857 0.0
H3678 H 0.3715 0.3477 0.6342 0.0
H3679 H 0.38901 0.35082 0.64329 0.0
H3680 H 0.41127 0.37647 0.63433 0.0
C3681 C 0.43823 0.38714 0.66348 0.0
C3682 C 0.41388 0.36821 0.66105 0.0
C3683 C 0.44754 0.39039 0.66959 0.0
C3684 C 0.37629 0.35513 0.63421 0.0
C3685 C 0.38626 0.35695 0.63948 0.0
C3686 C 0.41186 0.37415 0.6418 0.0
C3687 C 0.43267 0.3772 0.6636 0.0
C3688 C 0.4226 0.3739 0.65728 0.0
C3689 C 0.39263 0.36657 0.6398 0.0
C3690 C 0.40307 0.36869 0.64565 0.0
H3691 H 0.44894 0.36851 0.68086 0.0
H3692 H 0.43268 0.36281 0.67014 0.0
H3693 H 0.42813 0.38092 0.64432 0.0
H3694 H 0.37616 0.37862 0.62563 0.0
H3695 H 0.3935 0.38182 0.63488 0.0
C3696 C 0.1053 0.63288 0.6039 0.0
C3697 C 0.10392 0.64256 0.6087 0.0
C3698 C 0.10679 0.6247 0.60945 0.0
C3699 C 0.11571 0.61918 0.63449 0.0
H3700 H 0.09954 0.59212 0.62709 0.0
C3701 C 0.12178 0.58509 0.65667 0.0
C3702 C 0.11238 0.57988 0.65973 0.0
C3703 C 0.12137 0.59181 0.64931 0.0
C3704 C 0.10413 0.59963 0.62922 0.0
H3705 H 0.10277 0.6511 0.62312 0.0
H3706 H 0.10556 0.6369 0.63277 0.0
H3707 H 0.09752 0.606 0.61664 0.0
H3708 H 0.09526 0.5771 0.65707 0.0
H3709 H 0.09453 0.58883 0.64421 0.0
H3710 H 0.12214 0.61293 0.64717 0.0
C3711 C 0.1056 0.63569 0.62472 0.0
C3712 C 0.10303 0.60755 0.62321 0.0
C3713 C 0.10403 0.64383 0.61918 0.0
C3714 C 0.10261 0.58109 0.65491 0.0
C3715 C 0.10221 0.58774 0.6475 0.0
C3716 C 0.11688 0.61127 0.64043 0.0
C3717 C 0.10702 0.62605 0.61992 0.0
C3718 C 0.10868 0.61745 0.62588 0.0
C3719 C 0.11156 0.59338 0.64481 0.0
C3720 C 0.11099 0.60144 0.63794 0.0
H3721 H 0.10542 0.63166 0.59586 0.0
H3722 H 0.10794 0.61737 0.60557 0.0
H3723 H 0.12025 0.62671 0.63667 0.0
H3724 H 0.12941 0.58436 0.6603 0.0
H3725 H 0.12871 0.59597 0.64731 0.0
C3726 C 0.40545 0.36893 0.07498 0.0
C3727 C 0.41536 0.36537 0.07569 0.0
C3728 C 0.4033 0.37716 0.08158 0.0
C3729 C 0.41225 0.39057 0.10658 0.0
H3730 H 0.3944 0.41055 0.09882 0.0
C3731 C 0.40409 0.42359 0.13475 0.0
C3732 C 0.39339 0.42502 0.13525 0.0
C3733 C 0.40729 0.41751 0.12672 0.0
C3734 C 0.39936 0.405 0.1011 0.0
H3735 H 0.43098 0.36797 0.08353 0.0
H3736 H 0.42732 0.38243 0.09494 0.0
H3737 H 0.39918 0.39768 0.08616 0.0
H3738 H 0.37774 0.42159 0.12749 0.0
H3739 H 0.38334 0.41095 0.11341 0.0
H3740 H 0.41238 0.39779 0.12149 0.0
C3741 C 0.42109 0.3787 0.08946 0.0
C3742 C 0.40209 0.39761 0.09386 0.0
C3743 C 0.4232 0.37043 0.08292 0.0
C3744 C 0.38605 0.42069 0.12728 0.0
C3745 C 0.38926 0.41459 0.11922 0.0
C3746 C 0.40957 0.39796 0.11378 0.0
C3747 C 0.41105 0.38206 0.089 0.0
C3748 C 0.40852 0.39026 0.09653 0.0
C3749 C 0.39987 0.41271 0.11899 0.0
C3750 C 0.40306 0.40522 0.11115 0.0
H3751 H 0.39921 0.36511 0.06955 0.0
H3752 H 0.39544 0.37943 0.08108 0.0
H3753 H 0.41702 0.3849 0.10896 0.0
H3754 H 0.40996 0.42699 0.14069 0.0
H3755 H 0.41556 0.41639 0.12666 0.0
C3756 C 0.53893 0.35975 0.20936 0.0
C3757 C 0.52812 0.35695 0.20625 0.0
C3758 C 0.54676 0.35689 0.20326 0.0
C3759 C 0.55094 0.34991 0.17688 0.0
H3760 H 0.57741 0.34248 0.18772 0.0
C3761 C 0.59286 0.33704 0.1626 0.0
C3762 C 0.59527 0.34459 0.15611 0.0
C3763 C 0.58418 0.33734 0.16846 0.0
C3764 C 0.57001 0.34442 0.18455 0.0
H3765 H 0.51707 0.34859 0.19446 0.0
H3766 H 0.53076 0.34361 0.18379 0.0
H3767 H 0.56315 0.34488 0.19867 0.0
H3768 H 0.59026 0.35815 0.15042 0.0
H3769 H 0.57525 0.35875 0.16069 0.0
H3770 H 0.5578 0.34948 0.16278 0.0
C3771 C 0.53317 0.34815 0.19089 0.0
C3772 C 0.56189 0.3459 0.19085 0.0
C3773 C 0.52533 0.35102 0.197 0.0
C3774 C 0.58868 0.35229 0.15543 0.0
C3775 C 0.58 0.35257 0.16124 0.0
C3776 C 0.55907 0.34845 0.1706 0.0
C3777 C 0.54398 0.35117 0.19389 0.0
C3778 C 0.55232 0.34881 0.18711 0.0
C3779 C 0.57769 0.34515 0.16788 0.0
C3780 C 0.56875 0.34584 0.17439 0.0
H3781 H 0.54135 0.36444 0.21638 0.0
H3782 H 0.55501 0.35947 0.20574 0.0
H3783 H 0.54371 0.35223 0.17377 0.0
H3784 H 0.59782 0.33104 0.16331 0.0
H3785 H 0.58254 0.33146 0.17344 0.0
C3786 C 0.9543 0.67302 0.71629 0.0
C3787 C 0.96534 0.67551 0.71835 0.0
C3788 C 0.94943 0.67523 0.70737 0.0
C3789 C 0.95275 0.69106 0.68644 0.0
H3790 H 0.93219 0.66926 0.67239 0.0
C3791 C 0.92457 0.69636 0.65235 0.0
C3792 C 0.92266 0.68816 0.64467 0.0
C3793 C 0.93063 0.69542 0.66113 0.0
C3794 C 0.93797 0.6754 0.67617 0.0
H3795 H 0.97986 0.68257 0.71281 0.0
H3796 H 0.97133 0.68639 0.69715 0.0
H3797 H 0.94094 0.66658 0.68824 0.0
H3798 H 0.9262 0.67285 0.63988 0.0
H3799 H 0.93671 0.6712 0.65516 0.0
H3800 H 0.94977 0.69985 0.67427 0.0
C3801 C 0.96646 0.68275 0.70247 0.0
C3802 C 0.94289 0.67391 0.68531 0.0
C3803 C 0.97136 0.68048 0.71139 0.0
C3804 C 0.92733 0.67921 0.64575 0.0
C3805 C 0.93335 0.67827 0.6545 0.0
C3806 C 0.94776 0.69258 0.67728 0.0
C3807 C 0.95547 0.68001 0.70031 0.0
C3808 C 0.95032 0.68171 0.69057 0.0
C3809 C 0.93487 0.68626 0.66238 0.0
C3810 C 0.94033 0.68475 0.67205 0.0
H3811 H 0.94945 0.66909 0.72144 0.0
H3812 H 0.94093 0.67313 0.70597 0.0
H3813 H 0.95841 0.69723 0.69034 0.0
H3814 H 0.92103 0.70334 0.65176 0.0
H3815 H 0.93162 0.70169 0.66709 0.0
C3816 C 0.61392 0.35434 0.59297 0.0
C3817 C 0.61554 0.35541 0.58289 0.0
C3818 C 0.61661 0.36274 0.60028 0.0
C3819 C 0.63279 0.38853 0.60506 0.0
H3820 H 0.61335 0.39315 0.62556 0.0
C3821 C 0.63514 0.42711 0.63012 0.0
C3822 C 0.6333 0.42669 0.64024 0.0
C3823 C 0.6336 0.41814 0.62344 0.0
C3824 C 0.61893 0.39189 0.61996 0.0
H3825 H 0.62151 0.36612 0.57266 0.0
H3826 H 0.62594 0.38079 0.58534 0.0
H3827 H 0.60947 0.37797 0.61334 0.0
H3828 H 0.62876 0.41644 0.65135 0.0
H3829 H 0.626 0.40079 0.63967 0.0
H3830 H 0.64216 0.40256 0.61161 0.0
C3831 C 0.62269 0.37344 0.58762 0.0
C3832 C 0.61671 0.38319 0.61296 0.0
C3833 C 0.62002 0.36505 0.58033 0.0
C3834 C 0.63006 0.41706 0.64356 0.0
C3835 C 0.62849 0.40809 0.63688 0.0
C3836 C 0.63499 0.39726 0.61204 0.0
C3837 C 0.62099 0.3724 0.59769 0.0
C3838 C 0.62358 0.38143 0.60539 0.0
C3839 C 0.63016 0.40853 0.62672 0.0
C3840 C 0.62805 0.39907 0.61953 0.0
H3841 H 0.61041 0.34704 0.59519 0.0
H3842 H 0.61529 0.36164 0.60798 0.0
H3843 H 0.63834 0.38732 0.59943 0.0
H3844 H 0.6375 0.43442 0.62729 0.0
H3845 H 0.63482 0.41875 0.61563 0.0
C3846 C 0.44965 0.66254 0.80335 0.0
C3847 C 0.45549 0.65432 0.80133 0.0
C3848 C 0.44376 0.66312 0.81177 0.0
C3849 C 0.43075 0.64632 0.82895 0.0
H3850 H 0.42793 0.67204 0.8446 0.0
C3851 C 0.40605 0.64694 0.86314 0.0
C3852 C 0.39907 0.65435 0.8639 0.0
C3853 C 0.41393 0.64753 0.85638 0.0
C3854 C 0.4286 0.66481 0.84025 0.0
H3855 H 0.45988 0.64037 0.80673 0.0
H3856 H 0.44987 0.64152 0.8215 0.0
H3857 H 0.43998 0.67202 0.83116 0.0
H3858 H 0.39506 0.66835 0.85836 0.0
H3859 H 0.4088 0.66937 0.8465 0.0
H3860 H 0.41929 0.63912 0.83788 0.0
C3861 C 0.44971 0.64745 0.8165 0.0
C3862 C 0.43549 0.6648 0.83256 0.0
C3863 C 0.45557 0.64687 0.8081 0.0
C3864 C 0.40039 0.66258 0.85801 0.0
C3865 C 0.40826 0.66316 0.85122 0.0
C3866 C 0.42389 0.64633 0.83662 0.0
C3867 C 0.44359 0.65548 0.81835 0.0
C3868 C 0.43661 0.65555 0.82679 0.0
C3869 C 0.41499 0.65553 0.8502 0.0
C3870 C 0.42268 0.65557 0.84234 0.0
H3871 H 0.44952 0.66848 0.79836 0.0
H3872 H 0.43908 0.66937 0.81293 0.0
H3873 H 0.43125 0.63909 0.82452 0.0
H3874 H 0.40536 0.64061 0.86771 0.0
H3875 H 0.41913 0.64164 0.85592 0.0
C3876 C 0.03557 0.34092 0.29441 0.0
C3877 C 0.03145 0.35033 0.29558 0.0
C3878 C 0.04391 0.33907 0.30093 0.0
C3879 C 0.06599 0.35276 0.31792 0.0
H3880 H 0.0649 0.32741 0.33043 0.0
C3881 C 0.09435 0.34956 0.35152 0.0
C3882 C 0.09883 0.34042 0.352 0.0
C3883 C 0.08616 0.35012 0.34437 0.0
C3884 C 0.06539 0.33447 0.32689 0.0
H3885 H 0.03293 0.36522 0.30438 0.0
H3886 H 0.0474 0.362 0.31573 0.0
H3887 H 0.05063 0.32956 0.31817 0.0
H3888 H 0.09804 0.32458 0.34554 0.0
H3889 H 0.0837 0.32556 0.33288 0.0
H3890 H 0.08069 0.35772 0.32654 0.0
C3891 C 0.04421 0.35605 0.30979 0.0
C3892 C 0.05722 0.3357 0.31989 0.0
C3893 C 0.03585 0.35785 0.30336 0.0
C3894 C 0.09471 0.33172 0.34534 0.0
C3895 C 0.08651 0.33228 0.33812 0.0
C3896 C 0.07415 0.35152 0.32485 0.0
C3897 C 0.04836 0.34666 0.30864 0.0
C3898 C 0.05735 0.34494 0.31548 0.0
C3899 C 0.08225 0.34155 0.33746 0.0
C3900 C 0.07386 0.34245 0.32958 0.0
H3901 H 0.03229 0.33496 0.28851 0.0
H3902 H 0.04698 0.33179 0.29984 0.0
H3903 H 0.06642 0.35988 0.31449 0.0
H3904 H 0.09721 0.35633 0.3567 0.0
H3905 H 0.08288 0.35729 0.34427 0.0
C3906 C 0.3496 0.65459 0.42198 0.0
C3907 C 0.34626 0.65056 0.43072 0.0
C3908 C 0.34969 0.64813 0.41314 0.0
C3909 C 0.33846 0.62233 0.40064 0.0
H3910 H 0.36187 0.62688 0.38377 0.0
C3911 C 0.34466 0.59296 0.36764 0.0
C3912 C 0.34719 0.59688 0.35863 0.0
C3913 C 0.3447 0.59959 0.3764 0.0
C3914 C 0.35523 0.62558 0.38836 0.0
H3915 H 0.34026 0.63655 0.43693 0.0
H3916 H 0.34068 0.62524 0.42158 0.0
H3917 H 0.36155 0.63827 0.39913 0.0
H3918 H 0.35184 0.61086 0.3518 0.0
H3919 H 0.35201 0.62243 0.36715 0.0
H3920 H 0.3322 0.60957 0.38991 0.0
C3921 C 0.3431 0.63343 0.42153 0.0
C3922 C 0.35503 0.63211 0.39716 0.0
C3923 C 0.34299 0.6399 0.43038 0.0
C3924 C 0.34997 0.60758 0.35864 0.0
C3925 C 0.35005 0.61421 0.36742 0.0
C3926 C 0.33869 0.61577 0.39188 0.0
C3927 C 0.34647 0.63746 0.41281 0.0
C3928 C 0.34665 0.63056 0.40341 0.0
C3929 C 0.34732 0.61029 0.37638 0.0
C3930 C 0.34708 0.61731 0.38565 0.0
H3931 H 0.3523 0.66275 0.422 0.0
H3932 H 0.35221 0.65151 0.40653 0.0
H3933 H 0.33179 0.62101 0.40519 0.0
H3934 H 0.34269 0.58475 0.36795 0.0
H3935 H 0.34274 0.59632 0.38322 0.0
C3936 C 0.10573 0.3148 0.01239 0.0
C3937 C 0.09767 0.31344 0.00462 0.0
C3938 C 0.10373 0.31848 0.02207 0.0
C3939 C 0.08564 0.33381 0.03535 0.0
H3940 H 0.09956 0.32529 0.05885 0.0
C3941 C 0.08061 0.3526 0.075 0.0
C3942 C 0.09016 0.35576 0.0809 0.0
C3943 C 0.0804 0.34599 0.06618 0.0
C3944 C 0.09563 0.32776 0.05236 0.0
H3945 H 0.08105 0.31439 1.00101 0.0
H3946 H 0.07751 0.32073 0.01793 0.0
H3947 H 0.10118 0.31622 0.04245 0.0
H3948 H 0.10684 0.35405 0.08249 0.0
H3949 H 0.10651 0.34259 0.0671 0.0
H3950 H 0.08025 0.34546 0.04523 0.0
C3951 C 0.08545 0.31916 0.0165 0.0
C3952 C 0.09657 0.32258 0.04296 0.0
C3953 C 0.08746 0.31551 0.00681 0.0
C3954 C 0.09939 0.35184 0.07803 0.0
C3955 C 0.09917 0.34519 0.06927 0.0
C3956 C 0.08467 0.33896 0.04475 0.0
C3957 C 0.0936 0.32086 0.02422 0.0
C3958 C 0.09176 0.32567 0.03432 0.0
C3959 C 0.08972 0.34233 0.06314 0.0
C3960 C 0.08981 0.33612 0.05334 0.0
H3961 H 0.11371 0.31341 0.01092 0.0
H3962 H 0.11024 0.31985 0.02779 0.0
H3963 H 0.08195 0.3365 0.02886 0.0
H3964 H 0.07338 0.35554 0.07701 0.0
H3965 H 0.07297 0.34385 0.06166 0.0
C3966 C 0.98195 0.88706 0.29789 0.0
C3967 C 0.98321 0.89567 0.29248 0.0
C3968 C 0.97965 0.88816 0.30792 0.0
C3969 C 0.96771 0.90568 0.32554 0.0
H3970 H 0.97902 0.89036 0.34582 0.0
C3971 C 0.95856 0.91382 0.36617 0.0
C3972 C 0.95527 0.90526 0.3712 0.0
C3973 C 0.96323 0.91258 0.35713 0.0
C3974 C 0.97575 0.89463 0.34021 0.0
H3975 H 0.98369 0.91226 0.2935 0.0
H3976 H 0.97979 0.91421 0.31098 0.0
H3977 H 0.98493 0.88836 0.32887 0.0
H3978 H 0.95478 0.88874 0.37101 0.0
H3979 H 0.96291 0.88651 0.35506 0.0
H3980 H 0.95848 0.91189 0.33674 0.0
C3981 C 0.98031 0.90656 0.30742 0.0
C3982 C 0.97913 0.89349 0.33051 0.0
C3983 C 0.98255 0.90545 0.29741 0.0
C3984 C 0.95727 0.89547 0.36728 0.0
C3985 C 0.96192 0.8942 0.35817 0.0
C3986 C 0.96437 0.90683 0.33518 0.0
C3987 C 0.9786 0.89791 0.31274 0.0
C3988 C 0.97517 0.89905 0.32308 0.0
C3989 C 0.96468 0.90273 0.35287 0.0
C3990 C 0.96838 0.90138 0.34265 0.0
H3991 H 0.98235 0.87941 0.29426 0.0
H3992 H 0.9783 0.88133 0.31177 0.0
H3993 H 0.96429 0.90988 0.31995 0.0
H3994 H 0.95729 0.92149 0.36913 0.0
H3995 H 0.96551 0.91933 0.35337 0.0
C3996 C 0.36267 0.69309 0.53463 0.0
C3997 C 0.36086 0.68763 0.52505 0.0
C3998 C 0.36574 0.68819 0.54285 0.0
C3999 C 0.37733 0.66501 0.54928 0.0
H4000 H 0.36565 0.67072 0.5748 0.0
C4001 C 0.37996 0.63885 0.58077 0.0
C4002 C 0.38268 0.64362 0.59051 0.0
C4003 C 0.37783 0.64469 0.573 0.0
C4004 C 0.36907 0.66914 0.56775 0.0
H4005 H 0.36101 0.67272 0.51662 0.0
H4006 H 0.36594 0.66413 0.53093 0.0
H4007 H 0.36082 0.68003 0.56083 0.0
H4008 H 0.38523 0.65826 0.59983 0.0
H4009 H 0.38142 0.66851 0.58622 0.0
H4010 H 0.38538 0.65396 0.55615 0.0
C4011 C 0.36517 0.67225 0.53211 0.0
C4012 C 0.36632 0.67448 0.55974 0.0
C4013 C 0.36217 0.67715 0.5239 0.0
C4014 C 0.38319 0.65438 0.59237 0.0
C4015 C 0.38096 0.66023 0.5846 0.0
C4016 C 0.38001 0.65964 0.55725 0.0
C4017 C 0.36705 0.6777 0.54168 0.0
C4018 C 0.37033 0.67241 0.55037 0.0
C4019 C 0.37828 0.65544 0.57483 0.0
C4020 C 0.37583 0.66157 0.56654 0.0
H4021 H 0.36166 0.70115 0.53581 0.0
H4022 H 0.3672 0.69265 0.5501 0.0
H4023 H 0.38077 0.66338 0.54225 0.0
H4024 H 0.37946 0.63056 0.57916 0.0
H4025 H 0.37565 0.64077 0.56558 0.0
C4026 C 0.54551 0.14274 0.79761 0.0
C4027 C 0.53947 0.13545 0.79046 0.0
C4028 C 0.54832 0.14009 0.8071 0.0
C4029 C 0.55259 0.11749 0.81987 0.0
H4030 H 0.55224 0.13589 0.84411 0.0
C4031 C 0.56254 0.10476 0.85845 0.0
C4032 C 0.5689 0.11194 0.86542 0.0
C4033 C 0.55826 0.1078 0.84963 0.0
C4034 C 0.55248 0.1307 0.8374 0.0
H4035 H 0.53151 0.11973 0.78771 0.0
H4036 H 0.5363 0.11515 0.80428 0.0
H4037 H 0.54591 0.14094 0.82813 0.0
H4038 H 0.5757 0.128 0.86872 0.0
H4039 H 0.5684 0.13331 0.85323 0.0
H4040 H 0.55932 0.10733 0.82903 0.0
C4041 C 0.53894 0.12289 0.80253 0.0
C4042 C 0.54884 0.1336 0.82825 0.0
C4043 C 0.53609 0.12555 0.79308 0.0
C4044 C 0.57079 0.12229 0.86349 0.0
C4045 C 0.56655 0.12534 0.85464 0.0
C4046 C 0.55627 0.11462 0.82899 0.0
C4047 C 0.5452 0.13008 0.8096 0.0
C4048 C 0.54885 0.12701 0.81939 0.0
C4049 C 0.56032 0.1181 0.84755 0.0
C4050 C 0.55626 0.12118 0.83788 0.0
H4051 H 0.54815 0.15047 0.79585 0.0
H4052 H 0.55321 0.14579 0.81236 0.0
H4053 H 0.5529 0.11232 0.81316 0.0
H4054 H 0.56093 0.09674 0.85979 0.0
H4055 H 0.55335 0.10206 0.84443 0.0
C4056 C 0.09068 0.65691 0.50439 0.0
C4057 C 0.08948 0.64998 0.51165 0.0
C4058 C 0.08962 0.65329 0.49421 0.0
C4059 C 0.09178 0.63004 0.47737 0.0
H4060 H 0.07638 0.64298 0.45762 0.0
C4061 C 0.08322 0.61119 0.437 0.0
C4062 C 0.08426 0.61758 0.42931 0.0
C4063 C 0.08346 0.61542 0.44692 0.0
C4064 C 0.08081 0.63935 0.46303 0.0
H4065 H 0.08568 0.63385 0.51388 0.0
H4066 H 0.08395 0.62757 0.49621 0.0
H4067 H 0.07753 0.64998 0.47519 0.0
H4068 H 0.08624 0.63345 0.42592 0.0
H4069 H 0.08684 0.64089 0.44331 0.0
H4070 H 0.09519 0.6195 0.4653 0.0
C4071 C 0.0859 0.63578 0.49837 0.0
C4072 C 0.08146 0.64336 0.47309 0.0
C4073 C 0.08692 0.63939 0.5085 0.0
C4074 C 0.08539 0.62832 0.4317 0.0
C4075 C 0.08568 0.63258 0.44166 0.0
C4076 C 0.09118 0.62608 0.46734 0.0
C4077 C 0.08738 0.64267 0.49111 0.0
C4078 C 0.08687 0.63868 0.48038 0.0
C4079 C 0.08483 0.62617 0.4494 0.0
C4080 C 0.08561 0.63062 0.46005 0.0
H4081 H 0.09273 0.66511 0.50656 0.0
H4082 H 0.09087 0.65878 0.48879 0.0
H4083 H 0.09619 0.62639 0.48278 0.0
H4084 H 0.0823 0.60288 0.43533 0.0
H4085 H 0.08257 0.61025 0.45266 0.0
C4086 C 0.53935 0.88792 0.70821 0.0
C4087 C 0.53729 0.87844 0.71216 0.0
C4088 C 0.54356 0.88844 0.69892 0.0
C4089 C 0.54782 0.87276 0.67549 0.0
H4090 H 0.5705 0.89504 0.67359 0.0
C4091 C 0.57419 0.87435 0.64187 0.0
C4092 C 0.57705 0.88406 0.63859 0.0
C4093 C 0.56882 0.87347 0.65057 0.0
C4094 C 0.56409 0.88884 0.67393 0.0
H4095 H 0.53789 0.86203 0.70934 0.0
H4096 H 0.54523 0.86292 0.6931 0.0
H4097 H 0.56193 0.89389 0.68913 0.0
H4098 H 0.57636 0.90041 0.64165 0.0
H4099 H 0.56688 0.89889 0.65672 0.0
H4100 H 0.55005 0.86769 0.66026 0.0
C4101 C 0.54348 0.86995 0.69716 0.0
C4102 C 0.55916 0.88818 0.68286 0.0
C4103 C 0.53926 0.86944 0.70646 0.0
C4104 C 0.57429 0.89283 0.64405 0.0
C4105 C 0.56892 0.89197 0.65271 0.0
C4106 C 0.55275 0.87342 0.66654 0.0
C4107 C 0.54582 0.87948 0.69334 0.0
C4108 C 0.55095 0.88015 0.68375 0.0
C4109 C 0.56621 0.88229 0.65615 0.0
C4110 C 0.56093 0.88149 0.66564 0.0
H4111 H 0.53775 0.89498 0.71232 0.0
H4112 H 0.54507 0.89587 0.69611 0.0
H4113 H 0.54145 0.86653 0.6759 0.0
H4114 H 0.57624 0.86745 0.63782 0.0
H4115 H 0.56694 0.86592 0.65305 0.0
C4116 C 0.43282 0.35838 0.97862 0.0
C4117 C 0.43146 0.34783 0.97987 0.0
C4118 C 0.43491 0.36169 0.96936 0.0
C4119 C 0.43187 0.35321 0.94244 0.0
H4120 H 0.45092 0.37852 0.94124 0.0
C4121 C 0.43945 0.37135 0.90544 0.0
C4122 C 0.43873 0.38195 0.90604 0.0
C4123 C 0.43975 0.36635 0.91412 0.0
C4124 C 0.44557 0.37145 0.94145 0.0
H4125 H 0.43137 0.33247 0.97234 0.0
H4126 H 0.43514 0.3383 0.95608 0.0
H4127 H 0.44941 0.37119 0.95705 0.0
H4128 H 0.43782 0.39563 0.9161 0.0
H4129 H 0.43839 0.38698 0.93121 0.0
H4130 H 0.42792 0.35361 0.92683 0.0
C4131 C 0.43448 0.34399 0.96231 0.0
C4132 C 0.44469 0.36725 0.95051 0.0
C4133 C 0.43241 0.34066 0.97163 0.0
C4134 C 0.43842 0.38746 0.91544 0.0
C4135 C 0.43881 0.38251 0.92409 0.0
C4136 C 0.43279 0.3574 0.93334 0.0
C4137 C 0.43575 0.35455 0.96107 0.0
C4138 C 0.43762 0.35824 0.95118 0.0
C4139 C 0.43944 0.3719 0.92354 0.0
C4140 C 0.43944 0.36671 0.93282 0.0
H4141 H 0.4323 0.36412 0.98485 0.0
H4142 H 0.43569 0.36987 0.96866 0.0
H4143 H 0.42631 0.3463 0.94271 0.0
H4144 H 0.43966 0.3669 0.89827 0.0
H4145 H 0.44026 0.35817 0.91349 0.0
C4146 C 0.9855 0.14879 0.20414 0.0
C4147 C 0.98202 0.14959 0.21385 0.0
C4148 C 0.97845 0.14915 0.19587 0.0
C4149 C 0.95003 0.1436 0.18831 0.0
H4150 H 0.95699 0.1585 0.16567 0.0
C4151 C 0.91858 0.14413 0.1565 0.0
C4152 C 0.92173 0.14256 0.14674 0.0
C4153 C 0.92614 0.14646 0.16459 0.0
C4154 C 0.95496 0.15423 0.17191 0.0
H4155 H 0.96842 0.15152 0.22246 0.0
H4156 H 0.95623 0.15228 0.20809 0.0
H4157 H 0.97 0.15968 0.17999 0.0
H4158 H 0.93522 0.14263 0.13771 0.0
H4159 H 0.94851 0.14651 0.15189 0.0
H4160 H 0.93516 0.13792 0.18027 0.0
C4161 C 0.96438 0.15132 0.20686 0.0
C4162 C 0.9624 0.15492 0.1801 0.0
C4163 C 0.97141 0.15101 0.21511 0.0
C4164 C 0.9326 0.14387 0.14517 0.0
C4165 C 0.9402 0.1461 0.15329 0.0
C4166 C 0.94264 0.14287 0.18015 0.0
C4167 C 0.96776 0.15023 0.19714 0.0
C4168 C 0.95998 0.14964 0.1884 0.0
C4169 C 0.93704 0.14715 0.16312 0.0
C4170 C 0.94497 0.1482 0.17185 0.0
H4171 H 0.99364 0.14777 0.20294 0.0
H4172 H 0.98126 0.14824 0.18846 0.0
H4173 H 0.948 0.13926 0.1945 0.0
H4174 H 0.91024 0.14328 0.15789 0.0
H4175 H 0.92343 0.1475 0.17203 0.0
C4176 C 0.03758 0.10055 0.29384 0.0
C4177 C 0.04035 0.109 0.28848 0.0
C4178 C 0.04513 0.09436 0.29653 0.0
C4179 C 0.0719 0.08757 0.29214 0.0
H4180 H 0.07266 0.08372 0.32025 0.0
C4181 C 0.10881 0.0779 0.3145 0.0
C4182 C 0.10724 0.07264 0.32294 0.0
C4183 C 0.1001 0.08023 0.30878 0.0
C4184 C 0.07247 0.08447 0.31233 0.0
H4185 H 0.05313 0.11728 0.28132 0.0
H4186 H 0.06637 0.10644 0.28605 0.0
H4187 H 0.05844 0.09169 0.31293 0.0
H4188 H 0.09554 0.06499 0.33166 0.0
H4189 H 0.08029 0.06857 0.32142 0.0
H4190 H 0.08607 0.08043 0.29161 0.0
C4191 C 0.05831 0.10458 0.2881 0.0
C4192 C 0.0643 0.0891 0.30814 0.0
C4193 C 0.05073 0.11079 0.28541 0.0
C4194 C 0.09689 0.06907 0.32516 0.0
C4195 C 0.08819 0.07123 0.31936 0.0
C4196 C 0.08007 0.08284 0.29633 0.0
C4197 C 0.05565 0.09647 0.29393 0.0
C4198 C 0.06397 0.09081 0.29803 0.0
C4199 C 0.08967 0.07725 0.31137 0.0
C4200 C 0.08052 0.08133 0.30652 0.0
H4201 H 0.02959 0.09882 0.29612 0.0
H4202 H 0.0428 0.08804 0.30086 0.0
H4203 H 0.07181 0.08873 0.28431 0.0
H4204 H 0.11675 0.08083 0.31275 0.0
H4205 H 0.10158 0.08493 0.30274 0.0
C4206 C 0.09947 0.73706 0.59648 0.0
C4207 C 0.09771 0.73676 0.58606 0.0
C4208 C 0.10046 0.74639 0.6026 0.0
C4209 C 0.10721 0.77435 0.60276 0.0
H4210 H 0.09171 0.77552 0.62663 0.0
C4211 C 0.10606 0.81257 0.62777 0.0
C4212 C 0.10618 0.81212 0.63813 0.0
C4213 C 0.105 0.8035 0.62121 0.0
C4214 C 0.09622 0.77531 0.62007 0.0
H4215 H 0.09565 0.74614 0.57394 0.0
H4216 H 0.09759 0.76247 0.58465 0.0
H4217 H 0.09002 0.75949 0.61559 0.0
H4218 H 0.10547 0.80194 0.64977 0.0
H4219 H 0.10394 0.78614 0.63839 0.0
H4220 H 0.11359 0.7901 0.60733 0.0
C4221 C 0.09822 0.75544 0.58804 0.0
C4222 C 0.09521 0.76612 0.61373 0.0
C4223 C 0.09713 0.74608 0.58191 0.0
C4224 C 0.10535 0.80248 0.64181 0.0
C4225 C 0.10439 0.79343 0.63527 0.0
C4226 C 0.1083 0.78353 0.60916 0.0
C4227 C 0.09981 0.75567 0.59846 0.0
C4228 C 0.10073 0.76553 0.60503 0.0
C4229 C 0.10412 0.79381 0.62487 0.0
C4230 C 0.10285 0.78411 0.61793 0.0
H4231 H 0.10022 0.73009 0.59994 0.0
H4232 H 0.10186 0.74635 0.61059 0.0
H4233 H 0.11164 0.77408 0.59616 0.0
H4234 H 0.10662 0.8199 0.62471 0.0
H4235 H 0.10469 0.8041 0.61326 0.0
C4236 C 0.45985 0.89814 0.79273 0.0
C4237 C 0.45984 0.89994 0.78263 0.0
C4238 C 0.45181 0.90097 0.79857 0.0
C4239 C 0.4243 0.90623 0.7976 0.0
H4240 H 0.43256 0.92056 0.82398 0.0
C4241 C 0.39343 0.91986 0.82415 0.0
C4242 C 0.39531 0.91853 0.83427 0.0
C4243 C 0.40121 0.91837 0.81744 0.0
C4244 C 0.43009 0.91647 0.81668 0.0
H4245 H 0.45118 0.90604 0.77075 0.0
H4246 H 0.43697 0.91076 0.78097 0.0
H4247 H 0.44617 0.9162 0.81301 0.0
H4248 H 0.40669 0.91463 0.84531 0.0
H4249 H 0.42013 0.91183 0.83365 0.0
H4250 H 0.4082 0.90622 0.80137 0.0
C4251 C 0.44328 0.90717 0.78432 0.0
C4252 C 0.4379 0.914 0.81039 0.0
C4253 C 0.4514 0.90443 0.77847 0.0
C4254 C 0.40508 0.91577 0.83756 0.0
C4255 C 0.41281 0.91423 0.83087 0.0
C4256 C 0.41645 0.90862 0.80395 0.0
C4257 C 0.44347 0.90557 0.79446 0.0
C4258 C 0.4351 0.90873 0.80083 0.0
C4259 C 0.41099 0.91551 0.82071 0.0
C4260 C 0.41926 0.91363 0.81363 0.0
H4261 H 0.46604 0.89446 0.79614 0.0
H4262 H 0.45206 0.89945 0.80632 0.0
H4263 H 0.42191 0.90211 0.79029 0.0
H4264 H 0.38596 0.922 0.82141 0.0
H4265 H 0.39958 0.91953 0.8097 0.0
C4266 C 0.42199 0.25869 0.04344 0.0
C4267 C 0.4225 0.26884 0.04802 0.0
C4268 C 0.42058 0.25031 0.04908 0.0
C4269 C 0.42421 0.24346 0.07468 0.0
H4270 H 0.40347 0.21961 0.06552 0.0
C4271 C 0.41241 0.21209 0.1003 0.0
C4272 C 0.4105 0.20179 0.09606 0.0
C4273 C 0.41382 0.2201 0.09425 0.0
C4274 C 0.4094 0.22614 0.06813 0.0
H4275 H 0.42164 0.27806 0.06215 0.0
H4276 H 0.41942 0.2635 0.07196 0.0
H4277 H 0.40623 0.23381 0.05522 0.0
H4278 H 0.40861 0.19175 0.08214 0.0
H4279 H 0.41131 0.20571 0.07155 0.0
H4280 H 0.42753 0.23581 0.0875 0.0
C4281 C 0.42023 0.26203 0.06401 0.0
C4282 C 0.41096 0.23428 0.06223 0.0
C4283 C 0.42154 0.27039 0.05838 0.0
C4284 C 0.41 0.19963 0.08562 0.0
C4285 C 0.4115 0.20764 0.07956 0.0
C4286 C 0.42272 0.2353 0.08053 0.0
C4287 C 0.41973 0.25191 0.05943 0.0
C4288 C 0.41832 0.24307 0.06549 0.0
C4289 C 0.41347 0.21799 0.0838 0.0
C4290 C 0.41523 0.22656 0.07739 0.0
H4291 H 0.42284 0.2572 0.03551 0.0
H4292 H 0.42033 0.24259 0.04536 0.0
H4293 H 0.43006 0.25007 0.07732 0.0
H4294 H 0.4128 0.21396 0.10833 0.0
H4295 H 0.41511 0.22796 0.09778 0.0
C4296 C 0.06233 0.91082 0.21656 0.0
C4297 C 0.05856 0.91776 0.22363 0.0
C4298 C 0.07086 0.91405 0.21109 0.0
C4299 C 0.09361 0.93442 0.21026 0.0
H4300 H 0.09108 0.92399 0.1822 0.0
C4301 C 0.12885 0.93608 0.18485 0.0
C4302 C 0.12662 0.93671 0.17464 0.0
C4303 C 0.12065 0.93562 0.19132 0.0
C4304 C 0.09188 0.92713 0.18998 0.0
H4305 H 0.06094 0.93352 0.23065 0.0
H4306 H 0.07588 0.93921 0.22102 0.0
H4307 H 0.07666 0.91936 0.19253 0.0
H4308 H 0.11438 0.93823 0.16329 0.0
H4309 H 0.10013 0.93781 0.1746 0.0
H4310 H 0.10886 0.94228 0.20761 0.0
C4311 C 0.07227 0.93122 0.21979 0.0
C4312 C 0.08366 0.92432 0.19595 0.0
C4313 C 0.06372 0.92797 0.2253 0.0
C4314 C 0.11625 0.93765 0.17113 0.0
C4315 C 0.10809 0.93732 0.1776 0.0
C4316 C 0.10187 0.93726 0.20425 0.0
C4317 C 0.07583 0.92433 0.21251 0.0
C4318 C 0.08447 0.92781 0.20618 0.0
C4319 C 0.11011 0.93587 0.18768 0.0
C4320 C 0.10113 0.93357 0.19405 0.0
H4321 H 0.05867 0.90285 0.21525 0.0
H4322 H 0.07357 0.90847 0.20572 0.0
H4323 H 0.09448 0.93721 0.21813 0.0
H4324 H 0.13679 0.93527 0.18769 0.0
H4325 H 0.12248 0.93445 0.19902 0.0
C4326 C 0.34295 0.7573 0.44777 0.0
C4327 C 0.34413 0.74824 0.44173 0.0
C4328 C 0.34197 0.76644 0.4435 0.0
C4329 C 0.33551 0.77615 0.41929 0.0
H4330 H 0.35224 0.80165 0.43123 0.0
C4331 C 0.34633 0.81056 0.39713 0.0
C4332 C 0.34602 0.82053 0.40176 0.0
C4333 C 0.34481 0.80206 0.40254 0.0
C4334 C 0.34739 0.79463 0.42789 0.0
H4335 H 0.34484 0.74159 0.42646 0.0
H4336 H 0.34338 0.75746 0.41908 0.0
H4337 H 0.35187 0.78615 0.43983 0.0
H4338 H 0.34385 0.82947 0.4157 0.0
H4339 H 0.34123 0.81456 0.42521 0.0
H4340 H 0.33127 0.78454 0.40722 0.0
C4341 C 0.34313 0.75755 0.42709 0.0
C4342 C 0.34717 0.78575 0.43281 0.0
C4343 C 0.34412 0.74847 0.43134 0.0
C4344 C 0.3441 0.82186 0.41192 0.0
C4345 C 0.34266 0.81334 0.41738 0.0
C4346 C 0.33576 0.785 0.41435 0.0
C4347 C 0.34207 0.76666 0.4331 0.0
C4348 C 0.34141 0.77635 0.42846 0.0
C4349 C 0.34301 0.80335 0.41274 0.0
C4350 C 0.34188 0.79428 0.4185 0.0
H4351 H 0.34296 0.75738 0.4558 0.0
H4352 H 0.3411 0.77331 0.44833 0.0
H4353 H 0.3308 0.7691 0.41583 0.0
H4354 H 0.34785 0.80935 0.38931 0.0
H4355 H 0.34529 0.79449 0.39878 0.0
C4356 C 0.44714 0.12366 0.71947 0.0
C4357 C 0.45721 0.12486 0.71565 0.0
C4358 C 0.43796 0.12075 0.71305 0.0
C4359 C 0.428 0.12056 0.68684 0.0
H4360 H 0.40602 0.09922 0.69281 0.0
C4361 C 0.39535 0.10159 0.65714 0.0
C4362 C 0.38498 0.09941 0.66003 0.0
C4363 C 0.40382 0.10479 0.66428 0.0
C4364 C 0.41201 0.10529 0.6911 0.0
H4365 H 0.4655 0.12364 0.70208 0.0
H4366 H 0.44955 0.11872 0.69094 0.0
H4367 H 0.4214 0.1048 0.70471 0.0
H4368 H 0.37527 0.09879 0.67267 0.0
H4369 H 0.39008 0.10451 0.68521 0.0
H4370 H 0.41868 0.1211 0.67326 0.0
C4371 C 0.44873 0.12018 0.69888 0.0
C4372 C 0.42082 0.10847 0.69791 0.0
C4373 C 0.45788 0.12302 0.70528 0.0
C4374 C 0.38321 0.10038 0.67023 0.0
C4375 C 0.3917 0.10362 0.67741 0.0
C4376 C 0.41919 0.11741 0.68006 0.0
C4377 C 0.43866 0.11903 0.70268 0.0
C4378 C 0.42898 0.11604 0.69578 0.0
C4379 C 0.4021 0.10595 0.6745 0.0
C4380 C 0.41116 0.10964 0.68203 0.0
H4381 H 0.44632 0.12512 0.72741 0.0
H4382 H 0.4303 0.12001 0.71619 0.0
H4383 H 0.43405 0.12655 0.68507 0.0
H4384 H 0.39692 0.10086 0.64931 0.0
H4385 H 0.41174 0.10631 0.66178 0.0
C4386 C 0.12876 0.22505 0.94313 0.0
C4387 C 0.12945 0.23432 0.93871 0.0
C4388 C 0.13157 0.21614 0.93802 0.0
C4389 C 0.14554 0.20695 0.91596 0.0
H4390 H 0.12749 0.18116 0.91767 0.0
C4391 C 0.14157 0.17184 0.88613 0.0
C4392 C 0.14112 0.162 0.88938 0.0
C4393 C 0.14181 0.18055 0.89301 0.0
C4394 C 0.13271 0.18827 0.91723 0.0
H4395 H 0.13404 0.24153 0.92555 0.0
H4396 H 0.13845 0.22597 0.91651 0.0
H4397 H 0.12463 0.1966 0.9281 0.0
H4398 H 0.14081 0.15353 0.90233 0.0
H4399 H 0.14109 0.1688 0.9144 0.0
H4400 H 0.15327 0.19863 0.90474 0.0
C4401 C 0.13593 0.22558 0.924 0.0
C4402 C 0.13109 0.19714 0.92323 0.0
C4403 C 0.13322 0.2345 0.92913 0.0
C4404 C 0.14122 0.16104 0.89965 0.0
C4405 C 0.14131 0.16975 0.90653 0.0
C4406 C 0.14707 0.1981 0.90989 0.0
C4407 C 0.13507 0.21625 0.92833 0.0
C4408 C 0.13738 0.20664 0.92257 0.0
C4409 C 0.14146 0.17957 0.90326 0.0
C4410 C 0.14057 0.18871 0.91037 0.0
H4411 H 0.12582 0.22459 0.95046 0.0
H4412 H 0.13094 0.20915 0.94166 0.0
H4413 H 0.1507 0.21406 0.9154 0.0
H4414 H 0.14154 0.17278 0.87825 0.0
H4415 H 0.14184 0.18801 0.89026 0.0
C4416 C 0.35326 0.06937 0.10041 0.0
C4417 C 0.34242 0.06851 0.10213 0.0
C4418 C 0.35909 0.07896 0.09965 0.0
C4419 C 0.35719 0.10584 0.09518 0.0
H4420 H 0.38447 0.11121 0.11041 0.0
C4421 C 0.38266 0.14632 0.10258 0.0
C4422 C 0.39375 0.14664 0.10322 0.0
C4423 C 0.37603 0.13685 0.1013 0.0
C4424 C 0.37697 0.10981 0.10597 0.0
H4425 H 0.32913 0.07707 0.10406 0.0
H4426 H 0.3394 0.09393 0.1028 0.0
H4427 H 0.37355 0.09466 0.11038 0.0
H4428 H 0.4066 0.13743 0.10231 0.0
H4429 H 0.3951 0.12093 0.09978 0.0
H4430 H 0.36067 0.12105 0.09077 0.0
C4431 C 0.34334 0.08711 0.10201 0.0
C4432 C 0.37068 0.10031 0.10598 0.0
C4433 C 0.33749 0.07749 0.10282 0.0
C4434 C 0.39807 0.13737 0.10197 0.0
C4435 C 0.39148 0.12794 0.1006 0.0
C4436 C 0.36353 0.11537 0.09512 0.0
C4437 C 0.35425 0.08796 0.10058 0.0
C4438 C 0.36075 0.09818 0.10056 0.0
C4439 C 0.38039 0.12753 0.10058 0.0
C4440 C 0.37354 0.11744 0.10047 0.0
H4441 H 0.35735 0.06265 0.09996 0.0
H4442 H 0.36745 0.07934 0.09843 0.0
H4443 H 0.34959 0.10439 0.09089 0.0
H4444 H 0.37915 0.15338 0.10358 0.0
H4445 H 0.36754 0.13682 0.10137 0.0
C4446 C 0.7929 0.43017 0.87913 0.0
C4447 C 0.79012 0.4322 0.86936 0.0
C4448 C 0.79653 0.42087 0.88085 0.0
C4449 C 0.80995 0.40103 0.86788 0.0
H4450 H 0.80328 0.38552 0.89019 0.0
C4451 C 0.8269 0.36354 0.87168 0.0
C4452 C 0.83122 0.36214 0.88116 0.0
C4453 C 0.82044 0.37117 0.87054 0.0
C4454 C 0.80527 0.38982 0.88397 0.0
H4455 H 0.78824 0.4258 0.85382 0.0
H4456 H 0.79454 0.40961 0.85681 0.0
H4457 H 0.79452 0.40064 0.88766 0.0
H4458 H 0.83181 0.36721 0.89696 0.0
H4459 H 0.82063 0.38078 0.89498 0.0
H4460 H 0.82084 0.39048 0.86427 0.0
C4461 C 0.79415 0.41528 0.86312 0.0
C4462 C 0.80024 0.39846 0.88251 0.0
C4463 C 0.79054 0.42455 0.86141 0.0
C4464 C 0.82852 0.36814 0.88957 0.0
C4465 C 0.82212 0.37589 0.88843 0.0
C4466 C 0.81497 0.39246 0.86935 0.0
C4467 C 0.79744 0.41343 0.87283 0.0
C4468 C 0.80251 0.40413 0.87441 0.0
C4469 C 0.81826 0.37767 0.87885 0.0
C4470 C 0.81268 0.38671 0.87737 0.0
H4471 H 0.79274 0.43594 0.8854 0.0
H4472 H 0.79908 0.41971 0.8884 0.0
H4473 H 0.81208 0.40537 0.86172 0.0
H4474 H 0.82877 0.3589 0.86509 0.0
H4475 H 0.81738 0.37213 0.86309 0.0
C4476 C 0.753 0.53357 0.1458 0.0
C4477 C 0.74717 0.53399 0.15431 0.0
C4478 C 0.76378 0.5374 0.14649 0.0
C4479 C 0.78755 0.54597 0.16402 0.0
H4480 H 0.79604 0.56258 0.14293 0.0
C4481 C 0.8274 0.57372 0.16529 0.0
C4482 C 0.83213 0.57449 0.15621 0.0
C4483 C 0.81756 0.56762 0.16556 0.0
C4484 C 0.79386 0.55784 0.14881 0.0
H4485 H 0.74815 0.53839 0.17027 0.0
H4486 H 0.76704 0.54525 0.17147 0.0
H4487 H 0.77791 0.55409 0.14249 0.0
H4488 H 0.83078 0.56889 0.14048 0.0
H4489 H 0.81376 0.55817 0.14095 0.0
H4490 H 0.80359 0.54995 0.17039 0.0
C4491 C 0.76328 0.54184 0.16428 0.0
C4492 C 0.78345 0.55296 0.14855 0.0
C4493 C 0.75246 0.53794 0.1636 0.0
C4494 C 0.8272 0.56858 0.14754 0.0
C4495 C 0.81744 0.56247 0.14781 0.0
C4496 C 0.79803 0.5509 0.16428 0.0
C4497 C 0.769 0.54182 0.15568 0.0
C4498 C 0.78017 0.54692 0.15611 0.0
C4499 C 0.81234 0.56218 0.15675 0.0
C4500 C 0.8013 0.55683 0.15663 0.0
H4501 H 0.74917 0.53038 0.13858 0.0
H4502 H 0.76801 0.53704 0.13976 0.0
H4503 H 0.78528 0.54133 0.16993 0.0
H4504 H 0.83104 0.57823 0.17207 0.0
H4505 H 0.81381 0.56758 0.17255 0.0
C4506 C 0.68826 0.54491 0.37384 0.0
C4507 C 0.69933 0.5459 0.3757 0.0
C4508 C 0.68294 0.55352 0.37503 0.0
C4509 C 0.68687 0.58188 0.37604 0.0
H4510 H 0.65955 0.5791 0.38747 0.0
C4511 C 0.66282 0.61613 0.38318 0.0
C4512 C 0.65192 0.61394 0.38023 0.0
C4513 C 0.66906 0.60814 0.38334 0.0
C4514 C 0.66714 0.57999 0.38421 0.0
H4515 H 0.71352 0.55676 0.38028 0.0
H4516 H 0.70421 0.57184 0.38237 0.0
H4517 H 0.66966 0.56462 0.38644 0.0
H4518 H 0.63902 0.60179 0.37516 0.0
H4519 H 0.64987 0.58787 0.37544 0.0
H4520 H 0.68427 0.59726 0.37376 0.0
C4521 C 0.69966 0.56438 0.3799 0.0
C4522 C 0.67293 0.57168 0.3836 0.0
C4523 C 0.70499 0.55575 0.3787 0.0
C4524 C 0.64739 0.60367 0.37751 0.0
C4525 C 0.6536 0.5957 0.37773 0.0
C4526 C 0.68107 0.59022 0.37667 0.0
C4527 C 0.68856 0.56336 0.37812 0.0
C4528 C 0.68279 0.57246 0.37937 0.0
C4529 C 0.66451 0.59784 0.38062 0.0
C4530 C 0.67106 0.5893 0.38062 0.0
H4531 H 0.68368 0.53748 0.37132 0.0
H4532 H 0.67442 0.55247 0.37338 0.0
H4533 H 0.69439 0.58271 0.37266 0.0
H4534 H 0.66654 0.62398 0.38529 0.0
H4535 H 0.67744 0.61002 0.38567 0.0
C4536 C 0.25175 0.99029 0.13269 0.0
C4537 C 0.25121 1.00044 0.1305 0.0
C4538 C 0.24302 0.98442 0.13606 0.0
C4539 C 0.21822 0.986 0.14826 0.0
H4540 H 0.21075 0.95785 0.13598 0.0
C4541 C 0.18006 0.95975 0.15639 0.0
C4542 C 0.18081 0.94925 0.1568 0.0
C4543 C 0.18857 0.96635 0.15345 0.0
C4544 C 0.2128 0.96564 0.1396 0.0
H4545 H 0.24104 0.01242 0.13034 0.0
H4546 H 0.22579 1.00216 0.1364 0.0
H4547 H 0.22569 0.96874 0.13039 0.0
H4548 H 0.19105 0.93745 0.15475 0.0
H4549 H 0.206 0.94896 0.14989 0.0
H4550 H 0.20541 0.98284 0.15758 0.0
C4551 C 0.23303 0.99879 0.13548 0.0
C4552 C 0.22135 0.97189 0.13636 0.0
C4553 C 0.24177 0.00466 0.13202 0.0
C4554 C 0.19027 0.94552 0.15445 0.0
C4555 C 0.19879 0.9521 0.15158 0.0
C4556 C 0.20969 0.9797 0.15156 0.0
C4557 C 0.23354 0.98856 0.13742 0.0
C4558 C 0.2242 0.98211 0.1407 0.0
C4559 C 0.19801 0.96257 0.1509 0.0
C4560 C 0.20692 0.96941 0.14732 0.0
H4561 H 0.25897 0.98687 0.13187 0.0
H4562 H 0.24372 0.97663 0.13767 0.0
H4563 H 0.22029 0.99382 0.15178 0.0
H4564 H 0.17284 0.96283 0.15812 0.0
H4565 H 0.18765 0.97433 0.15292 0.0
C4566 C 0.15956 0.94605 0.64589 0.0
C4567 C 0.17018 0.9471 0.64341 0.0
C4568 C 0.15396 0.93634 0.64662 0.0
C4569 C 0.15387 0.9085 0.63906 0.0
H4570 H 0.13442 0.90558 0.65995 0.0
C4571 C 0.13194 0.86913 0.64798 0.0
C4572 C 0.12121 0.86898 0.64997 0.0
C4573 C 0.13824 0.87844 0.64684 0.0
C4574 C 0.13976 0.90629 0.65402 0.0
H4575 H 0.18321 0.93869 0.63969 0.0
H4576 H 0.1735 0.92173 0.64122 0.0
H4577 H 0.14494 0.9222 0.65888 0.0
H4578 H 0.10854 0.87839 0.65171 0.0
H4579 H 0.11952 0.89456 0.64982 0.0
H4580 H 0.14868 0.8925 0.63428 0.0
C4581 C 0.16946 0.92843 0.64247 0.0
C4582 C 0.14578 0.91582 0.65339 0.0
C4583 C 0.17507 0.93817 0.64171 0.0
C4584 C 0.11684 0.87826 0.65044 0.0
C4585 C 0.12313 0.88753 0.64935 0.0
C4586 C 0.14787 0.89892 0.63972 0.0
C4587 C 0.15884 0.9274 0.64495 0.0
C4588 C 0.15282 0.91709 0.64583 0.0
C4589 C 0.13393 0.88776 0.64769 0.0
C4590 C 0.14066 0.89776 0.64714 0.0
H4591 H 0.15557 0.95276 0.64738 0.0
H4592 H 0.14574 0.93584 0.64841 0.0
H4593 H 0.15914 0.90923 0.63308 0.0
H4594 H 0.13556 0.86212 0.64764 0.0
H4595 H 0.14655 0.87839 0.64561 0.0
C4596 C 0.76445 0.46401 0.34084 0.0
C4597 C 0.76358 0.46917 0.35032 0.0
C4598 C 0.77426 0.46154 0.33797 0.0
C4599 C 0.80338 0.46701 0.3449 0.0
H4600 H 0.80343 0.43939 0.33191 0.0
C4601 C 0.83956 0.44525 0.34678 0.0
C4602 C 0.84159 0.43886 0.33835 0.0
C4603 C 0.83057 0.45026 0.34674 0.0
C4604 C 0.80356 0.44719 0.33536 0.0
H4605 H 0.77235 0.47591 0.36419 0.0
H4606 H 0.7894 0.47152 0.35927 0.0
H4607 H 0.78661 0.44571 0.33467 0.0
H4608 H 0.83603 0.43295 0.32313 0.0
H4609 H 0.82018 0.4417 0.32306 0.0
H4610 H 0.82035 0.4683 0.34594 0.0
C4611 C 0.78257 0.46955 0.35394 0.0
C4612 C 0.7939 0.45083 0.33695 0.0
C4613 C 0.77278 0.47206 0.35678 0.0
C4614 C 0.83466 0.43787 0.32972 0.0
C4615 C 0.82557 0.44281 0.32971 0.0
C4616 C 0.81303 0.46335 0.34336 0.0
C4617 C 0.78342 0.46414 0.34455 0.0
C4618 C 0.79369 0.46071 0.34192 0.0
C4619 C 0.82336 0.44893 0.33828 0.0
C4620 C 0.81322 0.45332 0.33876 0.0
H4621 H 0.75752 0.46181 0.33564 0.0
H4622 H 0.77465 0.45753 0.33063 0.0
H4623 H 0.80352 0.47474 0.34857 0.0
H4624 H 0.84484 0.4462 0.35351 0.0
H4625 H 0.82905 0.45484 0.35349 0.0
C4626 C 0.71158 0.50698 0.85061 0.0
C4627 C 0.71105 0.49665 0.84657 0.0
C4628 C 0.70302 0.51238 0.84915 0.0
C4629 C 0.67905 0.51275 0.83262 0.0
H4630 H 0.67237 0.53198 0.85424 0.0
C4631 C 0.64398 0.5369 0.82991 0.0
C4632 C 0.64641 0.5473 0.83382 0.0
C4633 C 0.6513 0.53002 0.83133 0.0
C4634 C 0.67418 0.52669 0.84811 0.0
H4635 H 0.70104 0.48387 0.83785 0.0
H4636 H 0.68594 0.49331 0.83541 0.0
H4637 H 0.68599 0.52107 0.85717 0.0
H4638 H 0.65835 0.55872 0.84211 0.0
H4639 H 0.67111 0.54677 0.84457 0.0
H4640 H 0.66723 0.51848 0.82355 0.0
C4641 C 0.69307 0.49724 0.83963 0.0
C4642 C 0.68199 0.52043 0.84978 0.0
C4643 C 0.70167 0.4918 0.84111 0.0
C4644 C 0.65628 0.55073 0.83904 0.0
C4645 C 0.66355 0.54387 0.84051 0.0
C4646 C 0.67119 0.519 0.83095 0.0
C4647 C 0.69366 0.5076 0.84364 0.0
C4648 C 0.68467 0.51354 0.84202 0.0
C4649 C 0.66111 0.53342 0.83676 0.0
C4650 C 0.66882 0.52618 0.83863 0.0
H4651 H 0.71863 0.5109 0.85496 0.0
H4652 H 0.7038 0.52038 0.85223 0.0
H4653 H 0.68099 0.50757 0.82646 0.0
H4654 H 0.63641 0.53404 0.82585 0.0
H4655 H 0.64919 0.522 0.82838 0.0
C4656 C 0.85955 0.65548 0.98144 0.0
C4657 C 0.8619 0.66591 0.98529 0.0
C4658 C 0.8619 0.65221 0.97178 0.0
C4659 C 0.87896 0.65952 0.95175 0.0
H4660 H 0.86012 0.63738 0.93612 0.0
C4661 C 0.8858 0.64249 0.91131 0.0
C4662 C 0.88448 0.63165 0.90982 0.0
C4663 C 0.88299 0.6476 0.92018 0.0
C4664 C 0.86547 0.64356 0.94041 0.0
H4665 H 0.86846 0.68111 0.9819 0.0
H4666 H 0.87235 0.67542 0.96488 0.0
H4667 H 0.8549 0.64476 0.95204 0.0
H4668 H 0.87975 0.61773 0.91674 0.0
H4669 H 0.87468 0.6266 0.93201 0.0
H4670 H 0.88953 0.65823 0.94002 0.0
C4671 C 0.86883 0.66976 0.96943 0.0
C4672 C 0.8625 0.64777 0.94955 0.0
C4673 C 0.86649 0.67303 0.97914 0.0
C4674 C 0.88059 0.62607 0.9175 0.0
C4675 C 0.8777 0.63114 0.92627 0.0
C4676 C 0.8819 0.65534 0.94254 0.0
C4677 C 0.86659 0.65929 0.96565 0.0
C4678 C 0.86932 0.65563 0.95545 0.0
C4679 C 0.87875 0.64195 0.92766 0.0
C4680 C 0.87528 0.64716 0.93691 0.0
H4681 H 0.85588 0.6498 0.98591 0.0
H4682 H 0.86021 0.64407 0.96918 0.0
H4683 H 0.88444 0.66551 0.95614 0.0
H4684 H 0.88873 0.64702 0.90553 0.0
H4685 H 0.88387 0.65594 0.92108 0.0
C4686 C 0.02947 0.13384 0.70102 0.0
C4687 C 0.02476 0.12503 0.70503 0.0
C4688 C 0.03236 0.13319 0.69116 0.0
C4689 C 0.0401 0.11437 0.67209 0.0
H4690 H 0.03704 0.1352 0.65415 0.0
C4691 C 0.05366 0.10923 0.6325 0.0
C4692 C 0.05935 0.11785 0.629 0.0
C4693 C 0.04812 0.11033 0.64105 0.0
C4694 C 0.03803 0.12936 0.65911 0.0
H4695 H 0.01911 0.1087 0.7017 0.0
H4696 H 0.02402 0.10761 0.68449 0.0
H4697 H 0.02967 0.13674 0.67049 0.0
H4698 H 0.06336 0.13444 0.63141 0.0
H4699 H 0.05383 0.1364 0.64658 0.0
H4700 H 0.04868 0.10712 0.66095 0.0
C4701 C 0.02557 0.115 0.689 0.0
C4702 C 0.03379 0.13024 0.66845 0.0
C4703 C 0.02264 0.11565 0.69883 0.0
C4704 C 0.059 0.12768 0.63396 0.0
C4705 C 0.05352 0.12879 0.64262 0.0
C4706 C 0.04438 0.11353 0.66282 0.0
C4707 C 0.03065 0.12371 0.68511 0.0
C4708 C 0.03478 0.12273 0.67504 0.0
C4709 C 0.04822 0.12008 0.64641 0.0
C4710 C 0.04339 0.121 0.65618 0.0
H4711 H 0.0311 0.14121 0.70556 0.0
H4712 H 0.03631 0.14003 0.6884 0.0
H4713 H 0.04122 0.10858 0.67707 0.0
H4714 H 0.05368 0.10158 0.6287 0.0
H4715 H 0.0439 0.10349 0.64358 0.0
C4716 C 0.58175 0.30593 0.4887 0.0
C4717 C 0.59137 0.30803 0.49464 0.0
C4718 C 0.58051 0.31054 0.47986 0.0
C4719 C 0.5926 0.33268 0.46731 0.0
H4720 H 0.57711 0.31795 0.44343 0.0
C4721 C 0.59735 0.3462 0.4286 0.0
C4722 C 0.58807 0.34679 0.42269 0.0
C4723 C 0.59686 0.34142 0.43736 0.0
C4724 C 0.58136 0.32218 0.45008 0.0
H4725 H 0.6074 0.31614 0.49576 0.0
H4726 H 0.60539 0.32393 0.48031 0.0
H4727 H 0.57803 0.30951 0.45875 0.0
H4728 H 0.57096 0.34263 0.42115 0.0
H4729 H 0.57012 0.33404 0.43648 0.0
H4730 H 0.59621 0.3452 0.45856 0.0
C4731 C 0.59864 0.31905 0.48259 0.0
C4732 C 0.58187 0.31737 0.45887 0.0
C4733 C 0.59982 0.31454 0.49143 0.0
C4734 C 0.57825 0.34232 0.42559 0.0
C4735 C 0.57776 0.33738 0.43432 0.0
C4736 C 0.59218 0.33742 0.45854 0.0
C4737 C 0.58892 0.31726 0.47676 0.0
C4738 C 0.58767 0.32251 0.46755 0.0
C4739 C 0.58706 0.337 0.44034 0.0
C4740 C 0.5867 0.33217 0.4498 0.0
H4741 H 0.57509 0.30097 0.49103 0.0
H4742 H 0.5729 0.30903 0.47559 0.0
H4743 H 0.59686 0.337 0.47391 0.0
H4744 H 0.60502 0.34957 0.42651 0.0
H4745 H 0.60416 0.34114 0.4418 0.0
C4746 C 0.45997 0.8863 0.22695 0.0
C4747 C 0.45561 0.87721 0.2307 0.0
C4748 C 0.45777 0.88781 0.21699 0.0
C4749 C 0.44814 0.87424 0.19217 0.0
H4750 H 0.44086 0.90096 0.18687 0.0
C4751 C 0.42922 0.88194 0.15404 0.0
C4752 C 0.43232 0.89158 0.1507 0.0
C4753 C 0.43277 0.87993 0.16356 0.0
C4754 C 0.44303 0.8935 0.18818 0.0
H4755 H 0.44577 0.86244 0.22683 0.0
H4756 H 0.44181 0.86514 0.20944 0.0
H4757 H 0.44579 0.89792 0.2039 0.0
H4758 H 0.44175 0.90653 0.15448 0.0
H4759 H 0.44812 0.90298 0.17102 0.0
H4760 H 0.44532 0.86982 0.17643 0.0
C4761 C 0.44698 0.87107 0.21421 0.0
C4762 C 0.44585 0.89176 0.19796 0.0
C4763 C 0.44916 0.86958 0.22419 0.0
C4764 C 0.43922 0.89905 0.15691 0.0
C4765 C 0.4428 0.89704 0.16641 0.0
C4766 C 0.44534 0.87599 0.18237 0.0
C4767 C 0.45117 0.88025 0.21053 0.0
C4768 C 0.44841 0.88211 0.20007 0.0
C4769 C 0.43949 0.88751 0.16991 0.0
C4770 C 0.44273 0.88565 0.18027 0.0
H4771 H 0.46489 0.89237 0.23178 0.0
H4772 H 0.46121 0.89492 0.21435 0.0
H4773 H 0.45019 0.86676 0.19355 0.0
H4774 H 0.42386 0.87604 0.14942 0.0
H4775 H 0.42998 0.87255 0.16606 0.0
C4776 C 0.87807 0.35706 0.52249 0.0
C4777 C 0.86801 0.35707 0.51762 0.0
C4778 C 0.8803 0.36135 0.53242 0.0
C4779 C 0.87125 0.38042 0.55068 0.0
H4780 H 0.88905 0.36906 0.56983 0.0
C4781 C 0.87819 0.39836 0.59142 0.0
C4782 C 0.88869 0.39983 0.59566 0.0
C4783 C 0.87542 0.39225 0.58235 0.0
C4784 C 0.88413 0.37235 0.56454 0.0
H4785 H 0.85223 0.36106 0.5195 0.0
H4786 H 0.85606 0.36846 0.53683 0.0
H4787 H 0.88454 0.35986 0.55315 0.0
H4788 H 0.90446 0.39577 0.59386 0.0
H4789 H 0.89963 0.38509 0.57795 0.0
H4790 H 0.87089 0.39293 0.56196 0.0
C4791 C 0.86232 0.36536 0.53292 0.0
C4792 C 0.88155 0.36709 0.55499 0.0
C4793 C 0.86011 0.36111 0.523 0.0
C4794 C 0.89629 0.39474 0.5908 0.0
C4795 C 0.89352 0.38861 0.5817 0.0
C4796 C 0.87381 0.38565 0.5602 0.0
C4797 C 0.8725 0.36572 0.53769 0.0
C4798 C 0.87507 0.37107 0.54795 0.0
C4799 C 0.88309 0.38746 0.57729 0.0
C4800 C 0.88028 0.38169 0.56724 0.0
H4801 H 0.88436 0.35409 0.51852 0.0
H4802 H 0.88825 0.36159 0.53584 0.0
H4803 H 0.86644 0.38383 0.54538 0.0
H4804 H 0.8721 0.40201 0.59509 0.0
H4805 H 0.86727 0.39134 0.57927 0.0
C4806 C 0.4847 0.14937 0.29881 0.0
C4807 C 0.48947 0.14072 0.29549 0.0
C4808 C 0.47893 0.14937 0.30731 0.0
C4809 C 0.47451 0.13588 0.32988 0.0
H4810 H 0.4474 0.14622 0.32873 0.0
C4811 C 0.44214 0.12515 0.35643 0.0
C4812 C 0.43619 0.13278 0.36005 0.0
C4813 C 0.44939 0.12711 0.34927 0.0
C4814 C 0.45502 0.14345 0.32924 0.0
H4815 H 0.49185 0.12528 0.29849 0.0
H4816 H 0.48179 0.12526 0.31326 0.0
H4817 H 0.45872 0.14785 0.31487 0.0
H4818 H 0.43323 0.14851 0.35912 0.0
H4819 H 0.44594 0.15196 0.34656 0.0
H4820 H 0.4707 0.13127 0.34415 0.0
C4821 C 0.48267 0.13213 0.30941 0.0
C4822 C 0.46152 0.14438 0.32129 0.0
C4823 C 0.48844 0.13213 0.30094 0.0
C4824 C 0.43772 0.14248 0.35647 0.0
C4825 C 0.44495 0.14444 0.34924 0.0
C4826 C 0.46801 0.13492 0.3378 0.0
C4827 C 0.47779 0.14072 0.31268 0.0
C4828 C 0.47127 0.14046 0.32145 0.0
C4829 C 0.45082 0.13674 0.34553 0.0
C4830 C 0.45812 0.13855 0.3375 0.0
H4831 H 0.48547 0.15616 0.29485 0.0
H4832 H 0.47539 0.15616 0.30969 0.0
H4833 H 0.48207 0.13296 0.33033 0.0
H4834 H 0.44107 0.11759 0.35905 0.0
H4835 H 0.45367 0.12097 0.34646 0.0
C4836 C 0.58695 0.64479 0.00771 0.0
C4837 C 0.58714 0.65525 0.00632 0.0
C4838 C 0.58516 0.64138 0.017 0.0
C4839 C 0.58655 0.64993 0.04391 0.0
H4840 H 0.56857 0.62388 0.04461 0.0
C4841 C 0.57662 0.63259 0.08084 0.0
C4842 C 0.57727 0.62201 0.08074 0.0
C4843 C 0.57718 0.63729 0.07198 0.0
C4844 C 0.57366 0.63114 0.04454 0.0
H4845 H 0.58567 0.67036 0.01369 0.0
H4846 H 0.58258 0.66438 0.03 0.0
H4847 H 0.57075 0.63097 0.02876 0.0
H4848 H 0.57908 0.60807 0.07141 0.0
H4849 H 0.58009 0.61622 0.05601 0.0
H4850 H 0.58954 0.64999 0.05972 0.0
C4851 C 0.58387 0.65884 0.02386 0.0
C4852 C 0.57492 0.6352 0.03546 0.0
C4853 C 0.58565 0.66226 0.01453 0.0
C4854 C 0.57849 0.61623 0.07168 0.0
C4855 C 0.57901 0.62089 0.06285 0.0
C4856 C 0.58528 0.64586 0.05303 0.0
C4857 C 0.58353 0.64834 0.02518 0.0
C4858 C 0.58154 0.64454 0.035 0.0
C4859 C 0.57834 0.63147 0.06288 0.0
C4860 C 0.57898 0.63631 0.05341 0.0
H4861 H 0.58832 0.63922 1.00163 0.0
H4862 H 0.5852 0.63329 0.01781 0.0
H4863 H 0.59176 0.65711 0.0438 0.0
H4864 H 0.5757 0.63724 0.08773 0.0
H4865 H 0.57659 0.64544 0.07223 0.0
C4866 C 0.02131 0.88835 0.82364 0.0
C4867 C 0.01676 0.87966 0.81715 0.0
C4868 C 0.02517 0.88728 0.83334 0.0
C4869 C 0.03577 0.86821 0.84776 0.0
H4870 H 0.0339 0.88829 0.8704 0.0
C4871 C 0.05632 0.86514 0.88644 0.0
C4872 C 0.06201 0.87436 0.89123 0.0
C4873 C 0.04925 0.86527 0.87812 0.0
C4874 C 0.03453 0.88264 0.86414 0.0
H4875 H 0.01212 0.86311 0.81599 0.0
H4876 H 0.01889 0.86124 0.8329 0.0
H4877 H 0.02424 0.88955 0.85451 0.0
H4878 H 0.06431 0.891 0.89138 0.0
H4879 H 0.05222 0.89122 0.8768 0.0
H4880 H 0.04629 0.86146 0.85727 0.0
C4881 C 0.01964 0.86886 0.83042 0.0
C4882 C 0.02899 0.88336 0.85504 0.0
C4883 C 0.01577 0.86993 0.82073 0.0
C4884 C 0.06018 0.88374 0.88775 0.0
C4885 C 0.05313 0.88387 0.87946 0.0
C4886 C 0.04133 0.8675 0.85685 0.0
C4887 C 0.02458 0.87749 0.83678 0.0
C4888 C 0.02968 0.87625 0.8467 0.0
C4889 C 0.04769 0.87463 0.87445 0.0
C4890 C 0.04092 0.8748 0.86511 0.0
H4891 H 0.02231 0.89593 0.82109 0.0
H4892 H 0.02904 0.89407 0.838 0.0
H4893 H 0.03659 0.86268 0.84145 0.0
H4894 H 0.05757 0.85779 0.88892 0.0
H4895 H 0.04509 0.85802 0.8745 0.0
C4896 C 0.9516 0.93515 0.74971 0.0
C4897 C 0.95181 0.92451 0.74749 0.0
C4898 C 0.94496 0.9403 0.74394 0.0
C4899 C 0.92145 0.93595 0.72565 0.0
H4900 H 0.93405 0.96132 0.71622 0.0
C4901 C 0.89859 0.95585 0.69679 0.0
C4902 C 0.90438 0.95821 0.68858 0.0
C4903 C 0.90378 0.95347 0.70553 0.0
C4904 C 0.9304 0.95427 0.71883 0.0
H4905 H 0.94491 0.91088 0.73774 0.0
H4906 H 0.93345 0.91985 0.72763 0.0
H4907 H 0.94404 0.95333 0.72857 0.0
H4908 H 0.92015 0.96065 0.68331 0.0
H4909 H 0.92918 0.95649 0.69847 0.0
H4910 H 0.90801 0.93662 0.71558 0.0
C4911 C 0.93836 0.92422 0.73385 0.0
C4912 C 0.93608 0.94974 0.72597 0.0
C4913 C 0.94502 0.9191 0.73957 0.0
C4914 C 0.91549 0.95877 0.6895 0.0
C4915 C 0.92066 0.95646 0.69822 0.0
C4916 C 0.91575 0.9405 0.71854 0.0
C4917 C 0.93833 0.9349 0.73588 0.0
C4918 C 0.93178 0.94038 0.72927 0.0
C4919 C 0.91485 0.9535 0.70624 0.0
C4920 C 0.92026 0.94957 0.71485 0.0
H4921 H 0.95678 0.93954 0.75573 0.0
H4922 H 0.94506 0.94851 0.74574 0.0
H4923 H 0.91785 0.92882 0.72814 0.0
H4924 H 0.89002 0.95532 0.69627 0.0
H4925 H 0.89909 0.95133 0.71162 0.0
C4926 C 0.86509 0.27135 0.43573 0.0
C4927 C 0.86161 0.27067 0.44536 0.0
C4928 C 0.86631 0.26248 0.42958 0.0
C4929 C 0.87034 0.23536 0.43008 0.0
H4930 H 0.86199 0.2336 0.40179 0.0
C4931 C 0.87345 0.19926 0.40268 0.0
C4932 C 0.87764 0.20117 0.39355 0.0
C4933 C 0.87074 0.20736 0.40912 0.0
C4934 C 0.86443 0.23401 0.40966 0.0
H4935 H 0.8567 0.26012 0.45609 0.0
H4936 H 0.85886 0.24456 0.4453 0.0
H4937 H 0.85857 0.24838 0.41289 0.0
H4938 H 0.88226 0.21295 0.38395 0.0
H4939 H 0.87758 0.2271 0.39518 0.0
H4940 H 0.87629 0.22102 0.42681 0.0
C4941 C 0.86071 0.252 0.44256 0.0
C4942 C 0.86247 0.24247 0.41602 0.0
C4943 C 0.85947 0.2609 0.44873 0.0
C4944 C 0.879 0.21128 0.39093 0.0
C4945 C 0.87627 0.21936 0.39734 0.0
C4946 C 0.87228 0.22687 0.42371 0.0
C4947 C 0.86411 0.2527 0.43289 0.0
C4948 C 0.86554 0.24333 0.42629 0.0
C4949 C 0.87213 0.2175 0.40652 0.0
C4950 C 0.86948 0.22617 0.41341 0.0
H4951 H 0.86704 0.27876 0.43297 0.0
H4952 H 0.86917 0.26332 0.42226 0.0
H4953 H 0.87289 0.23584 0.43793 0.0
H4954 H 0.87231 0.19154 0.40491 0.0
H4955 H 0.86748 0.20566 0.4161 0.0
C4956 C 0.55328 0.10426 0.22434 0.0
C4957 C 0.55404 0.11453 0.22212 0.0
C4958 C 0.56141 0.09838 0.2222 0.0
C4959 C 0.58946 0.10022 0.21554 0.0
H4960 H 0.58028 0.07338 0.20082 0.0
C4961 C 0.61935 0.07738 0.19602 0.0
C4962 C 0.61624 0.07431 0.1859 0.0
C4963 C 0.61193 0.08041 0.20257 0.0
C4964 C 0.58298 0.08082 0.20499 0.0
H4965 H 0.56417 0.12684 0.21642 0.0
H4966 H 0.57824 0.11657 0.21255 0.0
H4967 H 0.56723 0.08298 0.20853 0.0
H4968 H 0.6029 0.07123 0.17482 0.0
H4969 H 0.58999 0.07649 0.18617 0.0
H4970 H 0.60512 0.09833 0.21149 0.0
C4971 C 0.57141 0.11305 0.216 0.0
C4972 C 0.57552 0.08629 0.20948 0.0
C4973 C 0.56328 0.11891 0.2181 0.0
C4974 C 0.60549 0.07363 0.18259 0.0
C4975 C 0.59809 0.07657 0.18912 0.0
C4976 C 0.59693 0.09474 0.21105 0.0
C4977 C 0.57049 0.10266 0.21786 0.0
C4978 C 0.57862 0.0962 0.21453 0.0
C4979 C 0.60127 0.08031 0.19911 0.0
C4980 C 0.59372 0.08513 0.20544 0.0
H4981 H 0.54623 0.10065 0.22739 0.0
H4982 H 0.5605 0.09042 0.2238 0.0
H4983 H 0.59213 0.10776 0.21951 0.0
H4984 H 0.62761 0.07801 0.19874 0.0
H4985 H 0.6146 0.08316 0.21026 0.0
C4986 C 0.61222 0.74698 0.94868 0.0
C4987 C 0.60316 0.73958 0.94643 0.0
C4988 C 0.61324 0.7561 0.9441 0.0
C4989 C 0.59762 0.77323 0.93139 0.0
H4990 H 0.6237 0.78195 0.91931 0.0
C4991 C 0.59976 0.80384 0.90382 0.0
C4992 C 0.60908 0.81085 0.90401 0.0
C4993 C 0.59935 0.79555 0.90954 0.0
C4994 C 0.61642 0.77973 0.92278 0.0
H4995 H 0.58798 0.73603 0.93782 0.0
H4996 H 0.58975 0.75195 0.92986 0.0
H4997 H 0.62242 0.76685 0.92852 0.0
H4998 H 0.62532 0.81474 0.91037 0.0
H4999 H 0.62456 0.80035 0.92054 0.0
H5000 H 0.5916 0.78608 0.92575 0.0
C5001 C 0.59606 0.7507 0.93514 0.0
C5002 C 0.61569 0.77106 0.92804 0.0
C5003 C 0.59509 0.74155 0.93963 0.0
C5004 C 0.61802 0.80944 0.91005 0.0
C5005 C 0.6176 0.80115 0.91584 0.0
C5006 C 0.59838 0.78193 0.92621 0.0
C5007 C 0.60517 0.75805 0.93728 0.0
C5008 C 0.60623 0.76764 0.93228 0.0
C5009 C 0.60825 0.7941 0.91565 0.0
C5010 C 0.60772 0.78521 0.9217 0.0
H5011 H 0.61859 0.74563 0.95385 0.0
H5012 H 0.62032 0.76166 0.94593 0.0
H5013 H 0.59029 0.77086 0.93472 0.0
H5014 H 0.59278 0.80473 0.89918 0.0
H5015 H 0.59208 0.79018 0.90903 0.0
C5016 C 0.93956 0.11111 0.77424 0.0
C5017 C 0.9463 0.10357 0.7726 0.0
C5018 C 0.93077 0.10932 0.77986 0.0
C5019 C 0.91247 0.08884 0.78894 0.0
H5020 H 0.90819 0.11035 0.80949 0.0
C5021 C 0.88189 0.08232 0.81861 0.0
C5022 C 0.87656 0.09061 0.82179 0.0
C5023 C 0.89012 0.08369 0.81223 0.0
C5024 C 0.90914 0.10431 0.80368 0.0
H5025 H 0.94895 0.08814 0.77535 0.0
H5026 H 0.93355 0.08499 0.78517 0.0
H5027 H 0.9229 0.11313 0.79892 0.0
H5028 H 0.8754 0.1067 0.82064 0.0
H5029 H 0.8895 0.10905 0.80929 0.0
H5030 H 0.89864 0.08005 0.79361 0.0
C5031 C 0.93508 0.09229 0.78209 0.0
C5032 C 0.91761 0.10591 0.79765 0.0
C5033 C 0.94394 0.09412 0.77655 0.0
C5034 C 0.87943 0.10021 0.81832 0.0
C5035 C 0.88757 0.10156 0.81189 0.0
C5036 C 0.90393 0.08727 0.79493 0.0
C5037 C 0.92847 0.09991 0.7839 0.0
C5038 C 0.91937 0.09819 0.79021 0.0
C5039 C 0.89312 0.09336 0.80885 0.0
C5040 C 0.90216 0.09499 0.80239 0.0
H5041 H 0.94122 0.1185 0.77137 0.0
H5042 H 0.92576 0.1153 0.78105 0.0
H5043 H 0.91358 0.08278 0.7832 0.0
H5044 H 0.87989 0.07484 0.82121 0.0
H5045 H 0.89429 0.07724 0.81016 0.0
C5046 C 0.6111 0.24903 0.58582 0.0
C5047 C 0.61377 0.25165 0.57636 0.0
C5048 C 0.61283 0.23953 0.58888 0.0
C5049 C 0.62871 0.21828 0.58393 0.0
H5050 H 0.60876 0.20447 0.60046 0.0
C5051 C 0.63906 0.18649 0.60812 0.0
C5052 C 0.63087 0.1788 0.60988 0.0
C5053 C 0.63689 0.19453 0.6026 0.0
C5054 C 0.61436 0.2081 0.59573 0.0
H5055 H 0.62025 0.24622 0.56262 0.0
H5056 H 0.62306 0.22949 0.56788 0.0
H5057 H 0.60472 0.21989 0.59345 0.0
H5058 H 0.61418 0.17302 0.60667 0.0
H5059 H 0.61042 0.18682 0.5968 0.0
H5060 H 0.6383 0.20638 0.58613 0.0
C5061 C 0.61976 0.23488 0.57299 0.0
C5062 C 0.6121 0.21706 0.59182 0.0
C5063 C 0.61804 0.24442 0.56993 0.0
C5064 C 0.62061 0.17895 0.60554 0.0
C5065 C 0.61846 0.1869 0.59994 0.0
C5066 C 0.63096 0.20927 0.58781 0.0
C5067 C 0.61723 0.23235 0.58253 0.0
C5068 C 0.61932 0.22237 0.586 0.0
C5069 C 0.6265 0.19497 0.59865 0.0
C5070 C 0.62387 0.20413 0.59387 0.0
H5071 H 0.60767 0.25435 0.59091 0.0
H5072 H 0.6109 0.23792 0.59632 0.0
H5073 H 0.63449 0.22221 0.57953 0.0
H5074 H 0.64703 0.18659 0.61144 0.0
H5075 H 0.64327 0.20064 0.60184 0.0
C5076 C 0.54817 0.89993 0.29623 0.0
C5077 C 0.53914 0.89628 0.30103 0.0
C5078 C 0.55815 0.90209 0.30147 0.0
C5079 C 0.57264 0.89628 0.32442 0.0
H5080 H 0.59266 0.91998 0.32003 0.0
C5081 C 0.60927 0.91047 0.35123 0.0
C5082 C 0.61906 0.91235 0.34699 0.0
C5083 C 0.59977 0.90893 0.34527 0.0
C5084 C 0.58717 0.91329 0.32126 0.0
H5085 H 0.5336 0.89202 0.31514 0.0
H5086 H 0.55083 0.89613 0.32432 0.0
H5087 H 0.57552 0.91641 0.31028 0.0
H5088 H 0.6265 0.9145 0.33317 0.0
H5089 H 0.60978 0.91197 0.32272 0.0
H5090 H 0.58418 0.89329 0.33551 0.0
C5091 C 0.55027 0.89715 0.31646 0.0
C5092 C 0.57737 0.91122 0.31567 0.0
C5093 C 0.54033 0.89494 0.31121 0.0
C5094 C 0.61909 0.91312 0.33667 0.0
C5095 C 0.60954 0.91165 0.33069 0.0
C5096 C 0.58236 0.8984 0.33004 0.0
C5097 C 0.55933 0.90067 0.31165 0.0
C5098 C 0.56994 0.90274 0.31726 0.0
C5099 C 0.5998 0.90934 0.33492 0.0
C5100 C 0.58969 0.90698 0.3286 0.0
H5101 H 0.54753 0.90117 0.28842 0.0
H5102 H 0.56497 0.90471 0.29751 0.0
H5103 H 0.56724 0.88954 0.32568 0.0
H5104 H 0.60894 0.91009 0.35919 0.0
H5105 H 0.59237 0.90738 0.34875 0.0
C5106 C 0.83854 0.75501 0.05498 0.0
C5107 C 0.84709 0.75236 0.04961 0.0
C5108 C 0.83934 0.76451 0.06083 0.0
C5109 C 0.85551 0.79044 0.06539 0.0
H5110 H 0.8448 0.79052 0.0917 0.0
C5111 C 0.86919 0.82286 0.09719 0.0
C5112 C 0.86149 0.82632 0.1032 0.0
C5113 C 0.86657 0.8143 0.09008 0.0
C5114 C 0.84771 0.79065 0.08432 0.0
H5115 H 0.86316 0.75763 0.04615 0.0
H5116 H 0.86462 0.77411 0.05639 0.0
H5117 H 0.84172 0.77475 0.0802 0.0
H5118 H 0.84498 0.82356 0.10653 0.0
H5119 H 0.84039 0.80852 0.09412 0.0
H5120 H 0.86176 0.80629 0.06967 0.0
C5121 C 0.8572 0.76896 0.05594 0.0
C5122 C 0.84592 0.78162 0.07771 0.0
C5123 C 0.85637 0.7595 0.05006 0.0
C5124 C 0.85108 0.82108 0.10198 0.0
C5125 C 0.84846 0.81244 0.09491 0.0
C5126 C 0.85735 0.79945 0.07203 0.0
C5127 C 0.84874 0.77155 0.06148 0.0
C5128 C 0.84993 0.78136 0.06821 0.0
C5129 C 0.85619 0.80896 0.0889 0.0
C5130 C 0.85358 0.79962 0.08161 0.0
H5131 H 0.83123 0.74972 0.05469 0.0
H5132 H 0.83261 0.76632 0.06486 0.0
H5133 H 0.85853 0.79058 0.05807 0.0
H5134 H 0.87728 0.82676 0.09802 0.0
H5135 H 0.87273 0.81172 0.08565 0.0
C5136 C 0.68676 0.93335 0.89934 0.0
C5137 C 0.69143 0.93543 0.89046 0.0
C5138 C 0.68147 0.92353 0.90032 0.0
C5139 C 0.67771 0.89627 0.8887 0.0
H5140 H 0.6507 0.89487 0.90064 0.0
C5141 C 0.64449 0.86184 0.88036 0.0
C5142 C 0.63849 0.8587 0.88819 0.0
C5143 C 0.6522 0.87053 0.88193 0.0
C5144 C 0.65831 0.8951 0.89744 0.0
H5145 H 0.69423 0.92883 0.87565 0.0
H5146 H 0.68492 0.9118 0.87727 0.0
H5147 H 0.66183 0.91144 0.90098 0.0
H5148 H 0.63604 0.86198 0.90386 0.0
H5149 H 0.64953 0.87727 0.90662 0.0
H5150 H 0.67394 0.87996 0.88481 0.0
C5151 C 0.68553 0.91765 0.8836 0.0
C5152 C 0.66471 0.90461 0.89764 0.0
C5153 C 0.69086 0.92743 0.88264 0.0
C5154 C 0.64059 0.86421 0.89772 0.0
C5155 C 0.64824 0.87299 0.89927 0.0
C5156 C 0.67127 0.88678 0.88844 0.0
C5157 C 0.68068 0.91559 0.89241 0.0
C5158 C 0.6744 0.90534 0.8931 0.0
C5159 C 0.65402 0.87631 0.89135 0.0
C5160 C 0.66142 0.88613 0.89264 0.0
H5161 H 0.68718 0.93932 0.90554 0.0
H5162 H 0.67797 0.92218 0.90727 0.0
H5163 H 0.68523 0.89651 0.88532 0.0
H5164 H 0.64307 0.85769 0.87296 0.0
H5165 H 0.65645 0.87294 0.87566 0.0
C5166 C 0.20398 0.56039 0.11565 0.0
C5167 C 0.19644 0.55148 0.11379 0.0
C5168 C 0.20081 0.5702 0.11591 0.0
C5169 C 0.178 0.58391 0.10917 0.0
H5170 H 0.19077 0.60421 0.13077 0.0
C5171 C 0.16414 0.62408 0.11606 0.0
C5172 C 0.16301 0.62752 0.12608 0.0
C5173 C 0.16927 0.61547 0.11365 0.0
C5174 C 0.18709 0.59862 0.12471 0.0
H5175 H 0.1797 0.54594 0.11025 0.0
H5176 H 0.17416 0.56294 0.11103 0.0
H5177 H 0.19757 0.58781 0.12806 0.0
H5178 H 0.1664 0.62477 0.14141 0.0
H5179 H 0.17516 0.60971 0.13725 0.0
H5180 H 0.16717 0.59453 0.10615 0.0
C5181 C 0.18255 0.5624 0.11219 0.0
C5182 C 0.19109 0.58926 0.12307 0.0
C5183 C 0.18571 0.55263 0.11189 0.0
C5184 C 0.16721 0.6223 0.13362 0.0
C5185 C 0.1723 0.61371 0.13123 0.0
C5186 C 0.17396 0.59326 0.11085 0.0
C5187 C 0.19003 0.57132 0.11432 0.0
C5188 C 0.18647 0.58169 0.1154 0.0
C5189 C 0.17336 0.61014 0.12121 0.0
C5190 C 0.17833 0.60066 0.11877 0.0
H5191 H 0.21231 0.5598 0.11718 0.0
H5192 H 0.20681 0.5769 0.11745 0.0
H5193 H 0.17435 0.57834 0.10309 0.0
H5194 H 0.161 0.62798 0.11008 0.0
H5195 H 0.17004 0.613 0.10586 0.0
C5196 C 0.24426 0.45786 0.83827 0.0
C5197 C 0.24971 0.46343 0.84689 0.0
C5198 C 0.2333 0.45478 0.83795 0.0
C5199 C 0.20918 0.45946 0.85107 0.0
H5200 H 0.19822 0.43189 0.83886 0.0
C5201 C 0.16896 0.4376 0.85936 0.0
C5202 C 0.16257 0.43198 0.85131 0.0
C5203 C 0.1792 0.44225 0.85799 0.0
C5204 C 0.20113 0.43966 0.84217 0.0
H5205 H 0.24798 0.47011 0.86194 0.0
H5206 H 0.22895 0.4646 0.86149 0.0
H5207 H 0.21688 0.4385 0.83799 0.0
H5208 H 0.1618 0.42685 0.83546 0.0
H5209 H 0.17978 0.4349 0.8331 0.0
H5210 H 0.19346 0.46044 0.85554 0.0
C5211 C 0.23305 0.46282 0.85486 0.0
C5212 C 0.21183 0.44347 0.84166 0.0
C5213 C 0.24397 0.46596 0.85514 0.0
C5214 C 0.16655 0.43117 0.84181 0.0
C5215 C 0.17684 0.43572 0.84046 0.0
C5216 C 0.1985 0.45561 0.85165 0.0
C5217 C 0.22757 0.45713 0.84628 0.0
C5218 C 0.21603 0.45337 0.84621 0.0
C5219 C 0.18329 0.44126 0.84856 0.0
C5220 C 0.1944 0.44563 0.84731 0.0
H5221 H 0.24846 0.45592 0.83175 0.0
H5222 H 0.22933 0.45057 0.83117 0.0
H5223 H 0.21208 0.4672 0.85448 0.0
H5224 H 0.16607 0.43831 0.86675 0.0
H5225 H 0.18402 0.44636 0.86439 0.0
C5226 C 0.3002 0.44266 0.63969 0.0
C5227 C 0.28914 0.44103 0.64034 0.0
C5228 C 0.30577 0.4344 0.63738 0.0
C5229 C 0.30237 0.40726 0.62611 0.0
H5230 H 0.33031 0.40776 0.63935 0.0
C5231 C 0.327 0.37302 0.62229 0.0
C5232 C 0.33791 0.37559 0.62121 0.0
C5233 C 0.32062 0.38074 0.62433 0.0
C5234 C 0.32256 0.40755 0.63552 0.0
H5235 H 0.27529 0.42936 0.63906 0.0
H5236 H 0.28508 0.41487 0.63528 0.0
H5237 H 0.31996 0.42157 0.64382 0.0
H5238 H 0.35053 0.38831 0.62088 0.0
H5239 H 0.33945 0.40173 0.62454 0.0
H5240 H 0.30502 0.39314 0.61788 0.0
C5241 C 0.2894 0.42259 0.63641 0.0
C5242 C 0.31662 0.41548 0.63808 0.0
C5243 C 0.28381 0.43088 0.6387 0.0
C5244 C 0.34221 0.38605 0.6219 0.0
C5245 C 0.33587 0.39375 0.62398 0.0
C5246 C 0.30831 0.39928 0.6236 0.0
C5247 C 0.30046 0.42426 0.63574 0.0
C5248 C 0.30651 0.41551 0.63332 0.0
C5249 C 0.32504 0.39118 0.62537 0.0
C5250 C 0.31852 0.39942 0.6282 0.0
H5251 H 0.3046 0.45035 0.64105 0.0
H5252 H 0.31425 0.436 0.63679 0.0
H5253 H 0.29466 0.4071 0.62222 0.0
H5254 H 0.32345 0.36503 0.6219 0.0
H5255 H 0.31231 0.37854 0.62542 0.0
C5256 C 0.75779 0.02373 0.85517 0.0
C5257 C 0.75588 0.01917 0.86399 0.0
C5258 C 0.76817 0.02696 0.85285 0.0
C5259 C 0.79466 0.03564 0.86516 0.0
H5260 H 0.80379 0.03336 0.83822 0.0
C5261 C 0.83626 0.05381 0.85749 0.0
C5262 C 0.8368 0.05964 0.84933 0.0
C5263 C 0.82719 0.04693 0.85856 0.0
C5264 C 0.80135 0.0341 0.84578 0.0
H5265 H 0.76338 0.01421 0.87717 0.0
H5266 H 0.78149 0.01976 0.87307 0.0
H5267 H 0.78624 0.02498 0.8415 0.0
H5268 H 0.82854 0.06246 0.83561 0.0
H5269 H 0.81257 0.05057 0.83753 0.0
H5270 H 0.80951 0.04502 0.86943 0.0
C5271 C 0.77495 0.0209 0.86799 0.0
C5272 C 0.7913 0.02929 0.84766 0.0
C5273 C 0.76458 0.01763 0.87029 0.0
C5274 C 0.82835 0.05799 0.84193 0.0
C5275 C 0.81921 0.05117 0.84304 0.0
C5276 C 0.80465 0.04047 0.86328 0.0
C5277 C 0.77686 0.02574 0.85932 0.0
C5278 C 0.78781 0.03011 0.85736 0.0
C5279 C 0.81838 0.04581 0.85154 0.0
C5280 C 0.8081 0.03986 0.85356 0.0
H5281 H 0.75126 0.0249 0.8501 0.0
H5282 H 0.76936 0.03073 0.84615 0.0
H5283 H 0.79215 0.03659 0.87268 0.0
H5284 H 0.84273 0.05486 0.86324 0.0
H5285 H 0.82694 0.04274 0.86506 0.0
C5286 C 0.83903 0.06611 0.36928 0.0
C5287 C 0.84589 0.05899 0.37158 0.0
C5288 C 0.84258 0.07671 0.37073 0.0
C5289 C 0.86708 0.09509 0.37247 0.0
H5290 H 0.85023 0.1147 0.38473 0.0
C5291 C 0.88468 0.13739 0.38259 0.0
C5292 C 0.87827 0.1449 0.38046 0.0
C5293 C 0.88032 0.12706 0.38217 0.0
C5294 C 0.85498 0.10934 0.38119 0.0
H5295 H 0.86173 0.0575 0.37758 0.0
H5296 H 0.86792 0.07592 0.37994 0.0
H5297 H 0.84328 0.09633 0.38247 0.0
H5298 H 0.86221 0.14756 0.3765 0.0
H5299 H 0.85456 0.12942 0.37559 0.0
H5300 H 0.8787 0.10799 0.37101 0.0
C5301 C 0.85986 0.0733 0.37689 0.0
C5302 C 0.851 0.09882 0.37991 0.0
C5303 C 0.85631 0.06274 0.3755 0.0
C5304 C 0.86732 0.14192 0.37825 0.0
C5305 C 0.86295 0.13154 0.37774 0.0
C5306 C 0.87102 0.10557 0.37369 0.0
C5307 C 0.85307 0.0804 0.37445 0.0
C5308 C 0.85706 0.09159 0.37561 0.0
C5309 C 0.86945 0.12396 0.3795 0.0
C5310 C 0.86508 0.11282 0.37815 0.0
H5311 H 0.83099 0.06349 0.36616 0.0
H5312 H 0.8372 0.08201 0.36871 0.0
H5313 H 0.87184 0.08973 0.36895 0.0
H5314 H 0.89313 0.13951 0.38447 0.0
H5315 H 0.88551 0.12147 0.38382 0.0
C5316 C 0.21294 0.51186 0.6616 0.0
C5317 C 0.22147 0.51493 0.66882 0.0
C5318 C 0.20284 0.51435 0.66334 0.0
C5319 C 0.18989 0.53346 0.67819 0.0
H5320 H 0.16414 0.51563 0.66769 0.0
C5321 C 0.14829 0.54594 0.68178 0.0
C5322 C 0.14165 0.54419 0.67291 0.0
C5323 C 0.15764 0.54145 0.68247 0.0
C5324 C 0.17127 0.5207 0.67064 0.0
H5325 H 0.22596 0.52256 0.68374 0.0
H5326 H 0.20828 0.52685 0.68683 0.0
H5327 H 0.18122 0.50921 0.6669 0.0
H5328 H 0.1394 0.53628 0.65794 0.0
H5329 H 0.15568 0.52845 0.65912 0.0
H5330 H 0.17994 0.54501 0.68177 0.0
C5331 C 0.20946 0.52269 0.67973 0.0
C5332 C 0.18105 0.51704 0.67018 0.0
C5333 C 0.21958 0.52022 0.67797 0.0
C5334 C 0.14438 0.53772 0.66486 0.0
C5335 C 0.15367 0.53319 0.66556 0.0
C5336 C 0.1801 0.53712 0.67868 0.0
C5337 C 0.20101 0.51995 0.67236 0.0
C5338 C 0.1905 0.52344 0.67377 0.0
C5339 C 0.16046 0.53509 0.67433 0.0
C5340 C 0.1707 0.53084 0.67474 0.0
H5341 H 0.21416 0.50791 0.65442 0.0
H5342 H 0.19657 0.51224 0.65744 0.0
H5343 H 0.19701 0.53866 0.6809 0.0
H5344 H 0.14638 0.5509 0.68811 0.0
H5345 H 0.16267 0.54299 0.68935 0.0
C5346 C 0.28457 0.48403 0.12306 0.0
C5347 C 0.28261 0.49329 0.12829 0.0
C5348 C 0.29408 0.4801 0.12497 0.0
C5349 C 0.31655 0.48154 0.14398 0.0
H5350 H 0.33029 0.46911 0.12189 0.0
C5351 C 0.35192 0.45865 0.14967 0.0
C5352 C 0.36005 0.45987 0.14311 0.0
C5353 C 0.3426 0.463 0.14807 0.0
C5354 C 0.32662 0.47263 0.12815 0.0
H5355 H 0.28913 0.50564 0.13972 0.0
H5356 H 0.30581 0.49892 0.14291 0.0
H5357 H 0.31396 0.47633 0.11863 0.0
H5358 H 0.36491 0.4667 0.1299 0.0
H5359 H 0.34875 0.47444 0.12717 0.0
H5360 H 0.32934 0.47801 0.15348 0.0
C5361 C 0.29993 0.49462 0.13739 0.0
C5362 C 0.31717 0.47666 0.12628 0.0
C5363 C 0.29042 0.49855 0.13547 0.0
C5364 C 0.35875 0.46563 0.13504 0.0
C5365 C 0.34946 0.46999 0.13345 0.0
C5366 C 0.32601 0.47751 0.14585 0.0
C5367 C 0.30188 0.48535 0.13216 0.0
C5368 C 0.312 0.48115 0.13417 0.0
C5369 C 0.34122 0.46866 0.13989 0.0
C5370 C 0.33117 0.473 0.13795 0.0
H5371 H 0.2788 0.47983 0.1174 0.0
H5372 H 0.29525 0.47289 0.12088 0.0
H5373 H 0.31273 0.48485 0.15025 0.0
H5374 H 0.35268 0.45421 0.15594 0.0
H5375 H 0.33638 0.46173 0.15312 0.0
C5376 C 0.59728 0.82112 0.51914 0.0
C5377 C 0.6075 0.81915 0.51687 0.0
C5378 C 0.59533 0.82486 0.52883 0.0
C5379 C 0.60676 0.82873 0.5552 0.0
H5380 H 0.59013 0.85138 0.55736 0.0
C5381 C 0.60961 0.85838 0.58999 0.0
C5382 C 0.60037 0.86228 0.59288 0.0
C5383 C 0.60936 0.85161 0.58131 0.0
C5384 C 0.59463 0.84494 0.55692 0.0
H5385 H 0.62363 0.81936 0.52305 0.0
H5386 H 0.62027 0.82594 0.53991 0.0
H5387 H 0.59175 0.84226 0.54105 0.0
H5388 H 0.58354 0.86187 0.5891 0.0
H5389 H 0.58308 0.84996 0.57389 0.0
H5390 H 0.60991 0.83166 0.57107 0.0
C5391 C 0.6137 0.82444 0.53426 0.0
C5392 C 0.59556 0.8397 0.54755 0.0
C5393 C 0.61564 0.82068 0.52458 0.0
C5394 C 0.59078 0.85896 0.58708 0.0
C5395 C 0.59054 0.85222 0.57834 0.0
C5396 C 0.60586 0.834 0.56457 0.0
C5397 C 0.60357 0.82674 0.53647 0.0
C5398 C 0.60179 0.83164 0.54655 0.0
C5399 C 0.59987 0.8486 0.57527 0.0
C5400 C 0.59993 0.84228 0.56551 0.0
H5401 H 0.5908 0.81987 0.51339 0.0
H5402 H 0.58739 0.82636 0.53031 0.0
H5403 H 0.61146 0.82244 0.55473 0.0
H5404 H 0.6171 0.86072 0.59437 0.0
H5405 H 0.61671 0.84905 0.57912 0.0
C5406 C 0.47964 0.39769 0.78156 0.0
C5407 C 0.47714 0.38856 0.77503 0.0
C5408 C 0.47777 0.39777 0.79166 0.0
C5409 C 0.47222 0.38123 0.8119 0.0
H5410 H 0.45769 0.40363 0.82232 0.0
C5411 C 0.44983 0.38107 0.84818 0.0
C5412 C 0.44948 0.39059 0.85374 0.0
C5413 C 0.45487 0.38064 0.83923 0.0
C5414 C 0.46193 0.39742 0.81964 0.0
H5415 H 0.47119 0.37226 0.77409 0.0
H5416 H 0.46779 0.37244 0.79172 0.0
H5417 H 0.46348 0.40325 0.80551 0.0
H5418 H 0.45473 0.407 0.85482 0.0
H5419 H 0.46384 0.40626 0.83945 0.0
H5420 H 0.47054 0.37535 0.82606 0.0
C5421 C 0.47124 0.37952 0.78903 0.0
C5422 C 0.46524 0.39719 0.80996 0.0
C5423 C 0.47308 0.37944 0.77891 0.0
C5424 C 0.45482 0.39958 0.85059 0.0
C5425 C 0.45995 0.39915 0.84174 0.0
C5426 C 0.46895 0.38148 0.82164 0.0
C5427 C 0.47337 0.38873 0.79547 0.0
C5428 C 0.47037 0.38908 0.80596 0.0
C5429 C 0.45972 0.38973 0.83576 0.0
C5430 C 0.46373 0.38957 0.82561 0.0
H5431 H 0.48269 0.40486 0.77881 0.0
H5432 H 0.47962 0.40496 0.79646 0.0
H5433 H 0.47623 0.37491 0.80904 0.0
H5434 H 0.44569 0.37405 0.85045 0.0
H5435 H 0.45448 0.37326 0.83479 0.0
C5436 C 0.8732 0.19284 0.03954 0.0
C5437 C 0.87125 0.18734 0.02998 0.0
C5438 C 0.87637 0.18797 0.04775 0.0
C5439 C 0.87591 0.16238 0.05659 0.0
H5440 H 0.89953 0.17546 0.0749 0.0
C5441 C 0.89515 0.14009 0.08563 0.0
C5442 C 0.89835 0.14526 0.09513 0.0
C5443 C 0.89188 0.14548 0.07786 0.0
C5444 C 0.89282 0.17175 0.06994 0.0
H5445 H 0.87135 0.1724 0.02157 0.0
H5446 H 0.87667 0.16391 0.03588 0.0
H5447 H 0.8935 0.18446 0.06113 0.0
H5448 H 0.90067 0.16015 0.10402 0.0
H5449 H 0.89478 0.16956 0.09051 0.0
H5450 H 0.87513 0.14971 0.06538 0.0
C5451 C 0.87562 0.17197 0.03704 0.0
C5452 C 0.88938 0.17691 0.06205 0.0
C5453 C 0.87254 0.17684 0.02884 0.0
C5454 C 0.89831 0.15596 0.09674 0.0
C5455 C 0.89497 0.16136 0.08898 0.0
C5456 C 0.87929 0.15725 0.0645 0.0
C5457 C 0.87758 0.17747 0.04658 0.0
C5458 C 0.88096 0.17223 0.05523 0.0
C5459 C 0.89165 0.15617 0.07946 0.0
C5460 C 0.88787 0.16182 0.07123 0.0
H5461 H 0.87216 0.20089 0.04072 0.0
H5462 H 0.87772 0.19238 0.05503 0.0
H5463 H 0.86928 0.15864 0.05155 0.0
H5464 H 0.89514 0.13184 0.0842 0.0
H5465 H 0.88959 0.14125 0.07059 0.0
C5466 C 0.05268 0.62289 0.29869 0.0
C5467 C 0.04964 0.63218 0.29605 0.0
C5468 C 0.05598 0.62192 0.30855 0.0
C5469 C 0.05616 0.63355 0.33474 0.0
H5470 H 0.08062 0.61922 0.33809 0.0
C5471 C 0.07085 0.62059 0.37247 0.0
C5472 C 0.08181 0.62055 0.37425 0.0
C5473 C 0.06675 0.62323 0.36336 0.0
C5474 C 0.07387 0.62336 0.33732 0.0
H5475 H 0.04735 0.64766 0.30172 0.0
H5476 H 0.05325 0.64602 0.319 0.0
H5477 H 0.0736 0.62124 0.32142 0.0
H5478 H 0.09715 0.62396 0.36832 0.0
H5479 H 0.09007 0.62881 0.35257 0.0
H5480 H 0.0566 0.63581 0.35072 0.0
C5481 C 0.05297 0.63944 0.31345 0.0
C5482 C 0.06973 0.62438 0.32773 0.0
C5483 C 0.04961 0.64039 0.30356 0.0
C5484 C 0.08865 0.62378 0.36705 0.0
C5485 C 0.08458 0.6265 0.35802 0.0
C5486 C 0.06033 0.63254 0.34437 0.0
C5487 C 0.05638 0.63025 0.31601 0.0
C5488 C 0.06078 0.6294 0.32631 0.0
C5489 C 0.07356 0.62594 0.35592 0.0
C5490 C 0.06923 0.62742 0.34577 0.0
H5491 H 0.05258 0.61636 0.2931 0.0
H5492 H 0.0583 0.61465 0.31031 0.0
H5493 H 0.04923 0.63742 0.33389 0.0
H5494 H 0.06541 0.61808 0.37789 0.0
H5495 H 0.05822 0.62266 0.36198 0.0
C5496 C 0.60309 0.15407 0.9934 0.0
C5497 C 0.61327 0.15447 0.99816 0.0
C5498 C 0.60126 0.15113 0.98312 0.0
C5499 C 0.61255 0.13638 0.96266 0.0
H5500 H 0.59334 0.14856 0.94549 0.0
C5501 C 0.60815 0.12466 0.92048 0.0
C5502 C 0.59775 0.12243 0.91602 0.0
C5503 C 0.6101 0.12966 0.93015 0.0
C5504 C 0.59867 0.14505 0.95022 0.0
H5505 H 0.62963 0.15265 0.9958 0.0
H5506 H 0.62649 0.14763 0.9779 0.0
H5507 H 0.59669 0.15533 0.96311 0.0
H5508 H 0.58129 0.12408 0.91802 0.0
H5509 H 0.5847 0.13283 0.935 0.0
H5510 H 0.6145 0.12607 0.94986 0.0
C5511 C 0.61985 0.14933 0.98212 0.0
C5512 C 0.60059 0.14892 0.9603 0.0
C5513 C 0.62166 0.15222 0.99238 0.0
C5514 C 0.58939 0.12575 0.92126 0.0
C5515 C 0.59135 0.13076 0.93097 0.0
C5516 C 0.61066 0.13255 0.95261 0.0
C5517 C 0.60959 0.14856 0.97739 0.0
C5518 C 0.60757 0.14463 0.96664 0.0
C5519 C 0.60171 0.13255 0.9356 0.0
C5520 C 0.60373 0.13684 0.94626 0.0
H5521 H 0.59646 0.15568 0.99767 0.0
H5522 H 0.59325 0.15052 0.97974 0.0
H5523 H 0.61778 0.13273 0.96736 0.0
H5524 H 0.61477 0.12238 0.91655 0.0
H5525 H 0.6182 0.13114 0.93342 0.0
C5526 C 0.02628 0.37382 0.19528 0.0
C5527 C 0.02416 0.36387 0.19828 0.0
C5528 C 0.03068 0.3753 0.18621 0.0
C5529 C 0.03543 0.36187 0.16174 0.0
H5530 H 0.05854 0.38428 0.16216 0.0
C5531 C 0.06321 0.36587 0.12945 0.0
C5532 C 0.06647 0.37586 0.12699 0.0
C5533 C 0.05743 0.36441 0.13782 0.0
C5534 C 0.052 0.37807 0.16186 0.0
H5535 H 0.02461 0.34765 0.19387 0.0
H5536 H 0.03243 0.35025 0.17809 0.0
H5537 H 0.04936 0.38179 0.17722 0.0
H5538 H 0.06613 0.39211 0.13118 0.0
H5539 H 0.05594 0.38958 0.1457 0.0
H5540 H 0.03814 0.35813 0.14638 0.0
C5541 C 0.03064 0.3569 0.18274 0.0
C5542 C 0.04674 0.37665 0.1705 0.0
C5543 C 0.02626 0.35542 0.19183 0.0
C5544 C 0.06374 0.38433 0.13295 0.0
C5545 C 0.05796 0.38288 0.14129 0.0
C5546 C 0.0407 0.36331 0.15308 0.0
C5547 C 0.03305 0.36688 0.17989 0.0
C5548 C 0.0384 0.36852 0.17057 0.0
C5549 C 0.05482 0.37291 0.14389 0.0
C5550 C 0.04906 0.37142 0.15304 0.0
H5551 H 0.02485 0.38051 0.2001 0.0
H5552 H 0.03231 0.38307 0.18417 0.0
H5553 H 0.02896 0.35561 0.16151 0.0
H5554 H 0.06523 0.35918 0.12502 0.0
H5555 H 0.05524 0.35663 0.13967 0.0
C5556 C 0.95066 0.881 0.49964 0.0
C5557 C 0.94798 0.87062 0.50124 0.0
C5558 C 0.95225 0.88375 0.49007 0.0
C5559 C 0.94529 0.87436 0.46353 0.0
H5560 H 0.9655 0.89805 0.45954 0.0
C5561 C 0.94992 0.88983 0.42495 0.0
C5562 C 0.94961 0.90048 0.42517 0.0
C5563 C 0.95096 0.88534 0.43387 0.0
C5564 C 0.95982 0.89141 0.46054 0.0
H5565 H 0.94515 0.85495 0.49401 0.0
H5566 H 0.94816 0.85973 0.47726 0.0
H5567 H 0.96537 0.89154 0.47582 0.0
H5568 H 0.9503 0.91479 0.43476 0.0
H5569 H 0.95226 0.90699 0.4503 0.0
H5570 H 0.9397 0.87434 0.44823 0.0
C5571 C 0.94887 0.86576 0.48343 0.0
C5572 C 0.95972 0.8877 0.46987 0.0
C5573 C 0.94725 0.86301 0.49304 0.0
C5574 C 0.95055 0.90656 0.4344 0.0
C5575 C 0.95173 0.90211 0.44328 0.0
C5576 C 0.94546 0.87803 0.45416 0.0
C5577 C 0.95127 0.87618 0.48182 0.0
C5578 C 0.95226 0.87929 0.47157 0.0
C5579 C 0.95187 0.89144 0.44312 0.0
C5580 C 0.95255 0.88676 0.45265 0.0
H5581 H 0.95146 0.88705 0.5058 0.0
H5582 H 0.95395 0.89185 0.48912 0.0
H5583 H 0.93937 0.86794 0.46458 0.0
H5584 H 0.94917 0.88495 0.41792 0.0
H5585 H 0.95108 0.8771 0.43354 0.0
C5586 C 0.47146 0.64021 0.69651 0.0
C5587 C 0.46825 0.64053 0.70632 0.0
C5588 C 0.46421 0.64104 0.68852 0.0
C5589 C 0.43564 0.636 0.68158 0.0
H5590 H 0.44205 0.6523 0.65976 0.0
C5591 C 0.40339 0.63864 0.6511 0.0
C5592 C 0.40622 0.63768 0.6412 0.0
C5593 C 0.41118 0.64044 0.65901 0.0
C5594 C 0.44017 0.64765 0.66575 0.0
H5595 H 0.45495 0.64209 0.71541 0.0
H5596 H 0.4424 0.64363 0.70153 0.0
H5597 H 0.45543 0.65257 0.67361 0.0
H5598 H 0.41938 0.63826 0.63175 0.0
H5599 H 0.43309 0.64118 0.6456 0.0
H5600 H 0.42056 0.63084 0.67373 0.0
C5601 C 0.45049 0.6427 0.70001 0.0
C5602 C 0.44783 0.64781 0.67368 0.0
C5603 C 0.45772 0.64193 0.70797 0.0
C5604 C 0.41701 0.63904 0.63933 0.0
C5605 C 0.42485 0.64072 0.64727 0.0
C5606 C 0.42805 0.63578 0.67366 0.0
C5607 C 0.4536 0.6421 0.69018 0.0
C5608 C 0.44561 0.64203 0.6817 0.0
C5609 C 0.42201 0.64116 0.65721 0.0
C5610 C 0.43017 0.64164 0.66567 0.0
H5611 H 0.47954 0.63923 0.695 0.0
H5612 H 0.46681 0.6405 0.68101 0.0
H5613 H 0.43377 0.63129 0.68753 0.0
H5614 H 0.39511 0.63775 0.65272 0.0
H5615 H 0.40871 0.64101 0.66656 0.0
C5616 C 0.53856 0.59877 0.77668 0.0
C5617 C 0.52793 0.59647 0.77896 0.0
C5618 C 0.54615 0.59268 0.77962 0.0
C5619 C 0.55112 0.57673 0.79945 0.0
H5620 H 0.57466 0.56963 0.78449 0.0
C5621 C 0.58384 0.55825 0.81844 0.0
C5622 C 0.59425 0.56231 0.81682 0.0
C5623 C 0.57533 0.56008 0.81217 0.0
C5624 C 0.56817 0.5716 0.78879 0.0
H5625 H 0.51679 0.58548 0.78534 0.0
H5626 H 0.53003 0.57493 0.79054 0.0
H5627 H 0.5605 0.57741 0.77637 0.0
H5628 H 0.60409 0.57109 0.80729 0.0
H5629 H 0.58924 0.57462 0.79649 0.0
H5630 H 0.55888 0.57148 0.81199 0.0
C5631 C 0.53253 0.58154 0.78664 0.0
C5632 C 0.56005 0.57603 0.78412 0.0
C5633 C 0.52496 0.5876 0.78369 0.0
C5634 C 0.5961 0.56778 0.80856 0.0
C5635 C 0.58758 0.56977 0.80238 0.0
C5636 C 0.55924 0.57242 0.80413 0.0
C5637 C 0.54325 0.58418 0.7849 0.0
C5638 C 0.55149 0.57872 0.78944 0.0
C5639 C 0.57705 0.56624 0.80432 0.0
C5640 C 0.56795 0.56988 0.79891 0.0
H5641 H 0.54112 0.60558 0.7731 0.0
H5642 H 0.55437 0.59494 0.77824 0.0
H5643 H 0.54474 0.5789 0.80382 0.0
H5644 H 0.58228 0.55403 0.82481 0.0
H5645 H 0.56737 0.557 0.81375 0.0
C5646 C 0.61495 0.23466 0.08447 0.0
C5647 C 0.61924 0.23509 0.07513 0.0
C5648 C 0.61454 0.24368 0.09074 0.0
C5649 C 0.62652 0.27093 0.09585 0.0
H5650 H 0.60156 0.27341 0.11052 0.0
C5651 C 0.62028 0.30857 0.11963 0.0
C5652 C 0.61598 0.30745 0.12887 0.0
C5653 C 0.62079 0.2999 0.11286 0.0
C5654 C 0.60864 0.2728 0.10656 0.0
H5655 H 0.6265 0.24535 0.0651 0.0
H5656 H 0.62562 0.26114 0.076 0.0
H5657 H 0.60212 0.25806 0.09901 0.0
H5658 H 0.609 0.29648 0.13836 0.0
H5659 H 0.60998 0.28134 0.12661 0.0
H5660 H 0.63304 0.28568 0.10345 0.0
C5661 C 0.62267 0.2538 0.0785 0.0
C5662 C 0.60896 0.264 0.09996 0.0
C5663 C 0.62307 0.24476 0.0722 0.0
C5664 C 0.61232 0.29754 0.13126 0.0
C5665 C 0.61281 0.28889 0.12451 0.0
C5666 C 0.6262 0.27975 0.10247 0.0
C5667 C 0.61839 0.25335 0.08784 0.0
C5668 C 0.61793 0.26291 0.09458 0.0
C5669 C 0.617 0.28997 0.1152 0.0
C5670 C 0.61728 0.28075 0.10796 0.0
H5671 H 0.61181 0.22735 0.08691 0.0
H5672 H 0.6113 0.24305 0.09793 0.0
H5673 H 0.63361 0.27028 0.09191 0.0
H5674 H 0.62315 0.31612 0.11756 0.0
H5675 H 0.62397 0.301 0.10572 0.0
C5676 C 0.95147 0.39312 0.27666 0.0
C5677 C 0.94863 0.38935 0.26661 0.0
C5678 C 0.94413 0.39717 0.28264 0.0
C5679 C 0.91895 0.40818 0.28201 0.0
H5680 H 0.91843 0.40071 0.30906 0.0
C5681 C 0.88764 0.41941 0.30946 0.0
C5682 C 0.89153 0.42251 0.31941 0.0
C5683 C 0.89425 0.41545 0.30253 0.0
C5684 C 0.91854 0.40296 0.30156 0.0
H5685 H 0.93584 0.38708 0.25493 0.0
H5686 H 0.92297 0.39419 0.26543 0.0
H5687 H 0.93055 0.39362 0.29787 0.0
H5688 H 0.90534 0.42417 0.32988 0.0
H5689 H 0.91688 0.4174 0.31784 0.0
H5690 H 0.90692 0.41757 0.28579 0.0
C5691 C 0.93093 0.39404 0.26864 0.0
C5692 C 0.92549 0.39889 0.29514 0.0
C5693 C 0.9383 0.38997 0.26263 0.0
C5694 C 0.90214 0.42179 0.32226 0.0
C5695 C 0.90872 0.41785 0.31538 0.0
C5696 C 0.91197 0.41227 0.28847 0.0
C5697 C 0.93374 0.39758 0.27875 0.0
C5698 C 0.9259 0.40156 0.28533 0.0
C5699 C 0.90483 0.41449 0.30547 0.0
C5700 C 0.9118 0.40981 0.29837 0.0
H5701 H 0.95943 0.39299 0.27991 0.0
H5702 H 0.94663 0.40004 0.29033 0.0
H5703 H 0.91912 0.41043 0.27452 0.0
H5704 H 0.87948 0.41987 0.30705 0.0
H5705 H 0.89101 0.41289 0.29497 0.0
C5706 C 0.93377 0.78104 0.56214 0.0
C5707 C 0.93592 0.79118 0.5669 0.0
C5708 C 0.93153 0.7727 0.56771 0.0
C5709 C 0.93501 0.76501 0.59307 0.0
H5710 H 0.91107 0.74399 0.58446 0.0
C5711 C 0.91922 0.7351 0.61884 0.0
C5712 C 0.91577 0.72498 0.61456 0.0
C5713 C 0.92173 0.74297 0.61281 0.0
C5714 C 0.91787 0.74971 0.58691 0.0
H5715 H 0.93719 0.80045 0.58127 0.0
H5716 H 0.93348 0.78593 0.59093 0.0
H5717 H 0.9156 0.75798 0.57424 0.0
H5718 H 0.91228 0.71508 0.6006 0.0
H5719 H 0.91685 0.72877 0.59005 0.0
H5720 H 0.93737 0.75676 0.60569 0.0
C5721 C 0.93365 0.78442 0.58291 0.0
C5722 C 0.92045 0.75773 0.58105 0.0
C5723 C 0.93582 0.79275 0.57736 0.0
C5724 C 0.91485 0.72284 0.60411 0.0
C5725 C 0.91743 0.73071 0.59807 0.0
C5726 C 0.93248 0.75697 0.59889 0.0
C5727 C 0.93146 0.77431 0.57815 0.0
C5728 C 0.92899 0.76552 0.58412 0.0
C5729 C 0.92094 0.74087 0.60234 0.0
C5730 C 0.92381 0.74926 0.59594 0.0
H5731 H 0.93391 0.77953 0.55412 0.0
H5732 H 0.92997 0.76498 0.56384 0.0
H5733 H 0.94173 0.77082 0.59555 0.0
H5734 H 0.91996 0.73695 0.62688 0.0
H5735 H 0.92422 0.75073 0.61636 0.0
C5736 C 0.55818 0.42658 0.71445 0.0
C5737 C 0.54847 0.43033 0.71286 0.0
C5738 C 0.56713 0.43058 0.70987 0.0
C5739 C 0.57484 0.44428 0.68828 0.0
H5740 H 0.60307 0.44549 0.70115 0.0
C5741 C 0.61299 0.45523 0.66815 0.0
C5742 C 0.61982 0.44769 0.66829 0.0
C5743 C 0.60472 0.45517 0.67454 0.0
C5744 C 0.59523 0.44524 0.69749 0.0
H5745 H 0.54061 0.44144 0.70547 0.0
H5746 H 0.5563 0.44853 0.69756 0.0
H5747 H 0.58759 0.44167 0.71064 0.0
H5748 H 0.62376 0.43452 0.67539 0.0
H5749 H 0.60949 0.43454 0.68669 0.0
H5750 H 0.58255 0.44773 0.6751 0.0
C5751 C 0.55695 0.44236 0.7022 0.0
C5752 C 0.58635 0.44299 0.70289 0.0
C5753 C 0.54796 0.43831 0.70674 0.0
C5754 C 0.61857 0.44041 0.67518 0.0
C5755 C 0.61045 0.44046 0.68167 0.0
C5756 C 0.58373 0.44663 0.68291 0.0
C5757 C 0.56663 0.43847 0.70363 0.0
C5758 C 0.57604 0.44219 0.69828 0.0
C5759 C 0.60331 0.4477 0.68128 0.0
C5760 C 0.594 0.44685 0.68739 0.0
H5761 H 0.5588 0.42032 0.71899 0.0
H5762 H 0.57437 0.42722 0.71099 0.0
H5763 H 0.56703 0.44362 0.68444 0.0
H5764 H 0.6138 0.46087 0.66283 0.0
H5765 H 0.59932 0.46084 0.67411 0.0
C5766 C 0.86113 0.25065 0.93862 0.0
C5767 C 0.85544 0.24892 0.94704 0.0
C5768 C 0.86043 0.25945 0.9338 0.0
C5769 C 0.8434 0.27959 0.93026 0.0
H5770 H 0.86835 0.29253 0.91888 0.0
C5771 C 0.84396 0.31573 0.90839 0.0
C5772 C 0.84878 0.31479 0.8993 0.0
C5773 C 0.8447 0.30837 0.91513 0.0
C5774 C 0.86131 0.28899 0.922 0.0
H5775 H 0.84463 0.25514 0.95706 0.0
H5776 H 0.84347 0.27064 0.94867 0.0
H5777 H 0.86994 0.27862 0.92923 0.0
H5778 H 0.85805 0.30551 0.89009 0.0
H5779 H 0.85942 0.29275 0.90183 0.0
H5780 H 0.83479 0.29002 0.92294 0.0
C5781 C 0.84838 0.26509 0.94574 0.0
C5782 C 0.86221 0.28099 0.92791 0.0
C5783 C 0.84905 0.25623 0.95055 0.0
C5784 C 0.85429 0.30641 0.89706 0.0
C5785 C 0.85513 0.29915 0.9038 0.0
C5786 C 0.84252 0.28767 0.92439 0.0
C5787 C 0.85406 0.2668 0.93729 0.0
C5788 C 0.85323 0.27602 0.93191 0.0
C5789 C 0.85039 0.30006 0.91293 0.0
C5790 C 0.85142 0.29228 0.92001 0.0
H5791 H 0.86593 0.24506 0.93557 0.0
H5792 H 0.86471 0.26036 0.92718 0.0
H5793 H 0.83631 0.27589 0.93317 0.0
H5794 H 0.83964 0.32211 0.9103 0.0
H5795 H 0.84099 0.30926 0.92212 0.0
C5796 C 0.96355 0.61842 0.21426 0.0
C5797 C 0.96339 0.62023 0.22469 0.0
C5798 C 0.95413 0.6156 0.20824 0.0
C5799 C 0.92635 0.60389 0.20837 0.0
H5800 H 0.9229 0.61679 0.18401 0.0
C5801 C 0.88749 0.59616 0.18236 0.0
C5802 C 0.8887 0.59535 0.17204 0.0
C5803 C 0.89632 0.59927 0.18918 0.0
C5804 C 0.92378 0.61302 0.19072 0.0
H5805 H 0.95312 0.62043 0.23696 0.0
H5806 H 0.93663 0.61536 0.22639 0.0
H5807 H 0.93879 0.62212 0.1952 0.0
H5808 H 0.90001 0.59693 0.16076 0.0
H5809 H 0.91542 0.60214 0.1726 0.0
H5810 H 0.91139 0.59466 0.2038 0.0
C5811 C 0.9441 0.61611 0.22292 0.0
C5812 C 0.93288 0.6161 0.19714 0.0
C5813 C 0.95355 0.619 0.22896 0.0
C5814 C 0.89887 0.59754 0.16868 0.0
C5815 C 0.90767 0.6006 0.17546 0.0
C5816 C 0.91725 0.60076 0.20191 0.0
C5817 C 0.9443 0.61444 0.21248 0.0
C5818 C 0.93433 0.61149 0.20598 0.0
C5819 C 0.90651 0.60162 0.1858 0.0
C5820 C 0.91592 0.60521 0.19294 0.0
H5821 H 0.97098 0.61904 0.21072 0.0
H5822 H 0.95455 0.61417 0.20024 0.0
H5823 H 0.92729 0.60014 0.21509 0.0
H5824 H 0.87973 0.59455 0.18516 0.0
H5825 H 0.89513 0.60005 0.19708 0.0
C5826 C 0.63781 0.74075 0.4365 0.0
C5827 C 0.6333 0.73978 0.44569 0.0
C5828 C 0.63971 0.73206 0.43044 0.0
C5829 C 0.64349 0.70488 0.4302 0.0
H5830 H 0.63261 0.70281 0.40253 0.0
C5831 C 0.6401 0.66709 0.40351 0.0
C5832 C 0.64123 0.66783 0.39332 0.0
C5833 C 0.64021 0.67598 0.41016 0.0
C5834 C 0.6359 0.70332 0.41017 0.0
H5835 H 0.62756 0.72882 0.4558 0.0
H5836 H 0.63111 0.71364 0.44526 0.0
H5837 H 0.63096 0.71808 0.4137 0.0
H5838 H 0.64394 0.67839 0.38214 0.0
H5839 H 0.64455 0.69392 0.39375 0.0
H5840 H 0.64856 0.69016 0.42665 0.0
C5841 C 0.63314 0.72118 0.44278 0.0
C5842 C 0.6349 0.71207 0.41659 0.0
C5843 C 0.63113 0.72989 0.44882 0.0
C5844 C 0.64293 0.67762 0.38996 0.0
C5845 C 0.6432 0.6865 0.39661 0.0
C5846 C 0.64463 0.69615 0.42373 0.0
C5847 C 0.63728 0.72217 0.43346 0.0
C5848 C 0.63864 0.71293 0.42667 0.0
C5849 C 0.64158 0.6858 0.40676 0.0
C5850 C 0.6408 0.69523 0.41363 0.0
H5851 H 0.63984 0.74826 0.43395 0.0
H5852 H 0.64307 0.73306 0.42336 0.0
H5853 H 0.64653 0.70539 0.43792 0.0
H5854 H 0.63867 0.65962 0.40627 0.0
H5855 H 0.63881 0.6751 0.41788 0.0
C5856 C 0.84709 0.59576 0.61084 0.0
C5857 C 0.83618 0.59527 0.61218 0.0
C5858 C 0.85352 0.60524 0.61129 0.0
C5859 C 0.85373 0.63287 0.60934 0.0
H5860 H 0.88018 0.63536 0.62571 0.0
C5861 C 0.88201 0.67153 0.6197 0.0
C5862 C 0.89294 0.67094 0.62064 0.0
C5863 C 0.87467 0.66252 0.61785 0.0
C5864 C 0.87292 0.63477 0.62098 0.0
H5865 H 0.82344 0.60439 0.61477 0.0
H5866 H 0.83477 0.62107 0.61556 0.0
H5867 H 0.86809 0.61932 0.62407 0.0
H5868 H 0.90483 0.66063 0.61971 0.0
H5869 H 0.89213 0.64498 0.61617 0.0
H5870 H 0.85866 0.64835 0.60617 0.0
C5871 C 0.83828 0.61405 0.61414 0.0
C5872 C 0.86596 0.62557 0.62008 0.0
C5873 C 0.83182 0.60452 0.61377 0.0
C5874 C 0.89643 0.66127 0.61916 0.0
C5875 C 0.88914 0.65231 0.6172 0.0
C5876 C 0.86076 0.64209 0.61018 0.0
C5877 C 0.84923 0.61449 0.61306 0.0
C5878 C 0.85634 0.62447 0.61419 0.0
C5879 C 0.87816 0.65279 0.61683 0.0
C5880 C 0.87049 0.64311 0.61594 0.0
H5881 H 0.85074 0.58879 0.60973 0.0
H5882 H 0.86192 0.60533 0.61032 0.0
H5883 H 0.84637 0.63221 0.60472 0.0
H5884 H 0.87913 0.67891 0.62087 0.0
H5885 H 0.86628 0.66318 0.61765 0.0
C5886 C 0.30087 0.93895 0.3809 0.0
C5887 C 0.30732 0.94858 0.38248 0.0
C5888 C 0.30491 0.92999 0.38314 0.0
C5889 C 0.33034 0.91983 0.38567 0.0
H5890 H 0.31449 0.89803 0.39821 0.0
C5891 C 0.34993 0.8854 0.39623 0.0
C5892 C 0.34403 0.87559 0.39379 0.0
C5893 C 0.34503 0.89425 0.39598 0.0
C5894 C 0.31898 0.90402 0.39463 0.0
H5895 H 0.32306 0.95632 0.38775 0.0
H5896 H 0.32999 0.94079 0.39181 0.0
H5897 H 0.30661 0.9136 0.3955 0.0
H5898 H 0.32831 0.86731 0.38956 0.0
H5899 H 0.31971 0.88281 0.38898 0.0
H5900 H 0.34263 0.9103 0.38463 0.0
C5901 C 0.32184 0.94013 0.38876 0.0
C5902 C 0.31447 0.91293 0.39308 0.0
C5903 C 0.31782 0.94906 0.38655 0.0
C5904 C 0.33303 0.87478 0.39154 0.0
C5905 C 0.32811 0.88366 0.39122 0.0
C5906 C 0.33483 0.91096 0.38719 0.0
C5907 C 0.3155 0.93048 0.38695 0.0
C5908 C 0.32014 0.92095 0.38862 0.0
C5909 C 0.33412 0.8935 0.39318 0.0
C5910 C 0.32924 0.90296 0.39174 0.0
H5911 H 0.29272 0.93833 0.37787 0.0
H5912 H 0.29984 0.92265 0.38161 0.0
H5913 H 0.33483 0.92576 0.38201 0.0
H5914 H 0.3584 0.88623 0.39815 0.0
H5915 H 0.34984 0.90169 0.39778 0.0
C5916 C 0.25059 0.03517 0.63252 0.0
C5917 C 0.24491 0.03541 0.64113 0.0
C5918 C 0.26124 0.03945 0.633 0.0
C5919 C 0.28508 0.04896 0.65018 0.0
H5920 H 0.29258 0.06567 0.62891 0.0
C5921 C 0.3242 0.07757 0.65116 0.0
C5922 C 0.32892 0.07842 0.64208 0.0
C5923 C 0.31441 0.07139 0.65143 0.0
C5924 C 0.29069 0.06092 0.63484 0.0
H5925 H 0.24606 0.04003 0.65707 0.0
H5926 H 0.26472 0.04761 0.65791 0.0
H5927 H 0.27472 0.05654 0.62868 0.0
H5928 H 0.32749 0.07295 0.62631 0.0
H5929 H 0.31053 0.06213 0.62678 0.0
H5930 H 0.30111 0.05351 0.65638 0.0
C5931 C 0.26094 0.044 0.6508 0.0
C5932 C 0.28043 0.05567 0.6347 0.0
C5933 C 0.25025 0.03967 0.65032 0.0
C5934 C 0.32393 0.0726 0.63338 0.0
C5935 C 0.31421 0.06642 0.63365 0.0
C5936 C 0.2954 0.05424 0.65032 0.0
C5937 C 0.26649 0.04413 0.6421 0.0
C5938 C 0.2775 0.04959 0.64234 0.0
C5939 C 0.30919 0.06594 0.64263 0.0
C5940 C 0.29832 0.06024 0.64261 0.0
H5941 H 0.24674 0.03176 0.62537 0.0
H5942 H 0.26535 0.0392 0.6262 0.0
H5943 H 0.28309 0.04429 0.65614 0.0
H5944 H 0.32784 0.08201 0.65797 0.0
H5945 H 0.31073 0.07123 0.65845 0.0
C5946 C 0.20533 0.05134 0.88626 0.0
C5947 C 0.20288 0.04276 0.87905 0.0
C5948 C 0.20005 0.05997 0.88576 0.0
C5949 C 0.17564 0.06789 0.87408 0.0
H5950 H 0.19048 0.09558 0.88105 0.0
C5951 C 0.15844 0.10382 0.86334 0.0
C5952 C 0.15885 0.11212 0.87079 0.0
C5953 C 0.16384 0.0955 0.86491 0.0
C5954 C 0.18622 0.08788 0.87918 0.0
H5955 H 0.19329 0.03663 0.86545 0.0
H5956 H 0.18428 0.05171 0.8644 0.0
H5957 H 0.19999 0.0808 0.8826 0.0
H5958 H 0.16537 0.11835 0.8857 0.0
H5959 H 0.17499 0.1038 0.8884 0.0
H5960 H 0.16196 0.075 0.8704 0.0
C5961 C 0.19002 0.0517 0.87065 0.0
C5962 C 0.19165 0.07941 0.88008 0.0
C5963 C 0.19521 0.04306 0.87121 0.0
C5964 C 0.16489 0.11203 0.87983 0.0
C5965 C 0.17042 0.10374 0.88136 0.0
C5966 C 0.17026 0.07635 0.87308 0.0
C5967 C 0.19227 0.06023 0.87797 0.0
C5968 C 0.18645 0.0693 0.87744 0.0
C5969 C 0.16988 0.09536 0.87393 0.0
C5970 C 0.17552 0.08643 0.87552 0.0
H5971 H 0.21116 0.05128 0.89243 0.0
H5972 H 0.20191 0.06634 0.89159 0.0
H5973 H 0.17129 0.06023 0.87222 0.0
H5974 H 0.15385 0.10373 0.8563 0.0
H5975 H 0.16338 0.08921 0.85901 0.0
C5976 C 0.74256 0.51405 0.63356 0.0
C5977 C 0.74177 0.52404 0.63103 0.0
C5978 C 0.7336 0.50764 0.63581 0.0
C5979 C 0.7067 0.50716 0.64413 0.0
H5980 H 0.70299 0.47901 0.63152 0.0
C5981 C 0.66952 0.47741 0.64821 0.0
C5982 C 0.67138 0.46725 0.64913 0.0
C5983 C 0.67775 0.48481 0.646 0.0
C5984 C 0.70396 0.4868 0.63521 0.0
H5985 H 0.73092 0.53521 0.62918 0.0
H5986 H 0.71523 0.52399 0.63328 0.0
H5987 H 0.718 0.49111 0.62784 0.0
H5988 H 0.68325 0.45691 0.6487 0.0
H5989 H 0.69762 0.4698 0.6451 0.0
H5990 H 0.69273 0.50276 0.65166 0.0
C5991 C 0.72284 0.52117 0.63347 0.0
C5992 C 0.71255 0.49375 0.63307 0.0
C5993 C 0.73182 0.52758 0.63114 0.0
C5994 C 0.6816 0.46468 0.64798 0.0
C5995 C 0.68981 0.47205 0.64583 0.0
C5996 C 0.6981 0.50017 0.64634 0.0
C5997 C 0.72362 0.51107 0.63567 0.0
C5998 C 0.7141 0.50396 0.6376 0.0
C5999 C 0.68797 0.48219 0.64469 0.0
C6000 C 0.69672 0.48986 0.64201 0.0
H6001 H 0.75013 0.51115 0.63383 0.0
H6002 H 0.7345 0.49998 0.63768 0.0
H6003 H 0.70773 0.51498 0.64777 0.0
H6004 H 0.66169 0.4796 0.64903 0.0
H6005 H 0.67603 0.49252 0.6451 0.0
C6006 C 0.66313 0.44323 0.14737 0.0
C6007 C 0.67421 0.44495 0.14694 0.0
C6008 C 0.65775 0.43323 0.14687 0.0
C6009 C 0.66033 0.40589 0.13921 0.0
H6010 H 0.63644 0.40093 0.15543 0.0
C6011 C 0.63792 0.36519 0.14352 0.0
C6012 C 0.62678 0.36438 0.14311 0.0
C6013 C 0.64412 0.37481 0.14365 0.0
C6014 C 0.64304 0.40221 0.1508 0.0
H6015 H 0.6883 0.43743 0.14558 0.0
H6016 H 0.67892 0.41997 0.14503 0.0
H6017 H 0.64658 0.41806 0.15665 0.0
H6018 H 0.61343 0.37298 0.1419 0.0
H6019 H 0.62424 0.38971 0.14228 0.0
H6020 H 0.65678 0.38992 0.13348 0.0
C6021 C 0.67438 0.42637 0.14559 0.0
C6022 C 0.64885 0.41204 0.15147 0.0
C6023 C 0.67978 0.4364 0.14604 0.0
C6024 C 0.62199 0.37335 0.14248 0.0
C6025 C 0.62817 0.38294 0.14268 0.0
C6026 C 0.65455 0.39601 0.1386 0.0
C6027 C 0.6633 0.42467 0.14601 0.0
C6028 C 0.65748 0.41405 0.14559 0.0
C6029 C 0.6393 0.3838 0.14343 0.0
C6030 C 0.64576 0.39412 0.1443 0.0
H6031 H 0.65859 0.44962 0.1482 0.0
H6032 H 0.64919 0.43223 0.14706 0.0
H6033 H 0.66685 0.40719 0.1345 0.0
H6034 H 0.64185 0.35844 0.14408 0.0
H6035 H 0.65269 0.37527 0.14427 0.0
C6036 C 0.27635 0.96127 0.87856 0.0
C6037 C 0.26906 0.96469 0.87186 0.0
C6038 C 0.28556 0.95781 0.87524 0.0
C6039 C 0.30353 0.95744 0.85474 0.0
H6040 H 0.30869 0.93148 0.86401 0.0
C6041 C 0.34222 0.93862 0.84995 0.0
C6042 C 0.34097 0.92781 0.84837 0.0
C6043 C 0.33338 0.94376 0.85141 0.0
C6044 C 0.30732 0.93869 0.86127 0.0
H6045 H 0.26599 0.9676 0.8565 0.0
H6046 H 0.28216 0.96158 0.8507 0.0
H6047 H 0.29379 0.93962 0.86974 0.0
H6048 H 0.3295 0.91395 0.84615 0.0
H6049 H 0.31411 0.92288 0.84855 0.0
H6050 H 0.31715 0.95641 0.84621 0.0
C6051 C 0.28073 0.96161 0.85853 0.0
C6052 C 0.29886 0.94342 0.86467 0.0
C6053 C 0.27148 0.96507 0.86186 0.0
C6054 C 0.33069 0.92229 0.8475 0.0
C6055 C 0.3219 0.9274 0.84892 0.0
C6056 C 0.3121 0.95271 0.85137 0.0
C6057 C 0.28773 0.9577 0.86514 0.0
C6058 C 0.29686 0.95286 0.86147 0.0
C6059 C 0.32318 0.93815 0.85129 0.0
C6060 C 0.31405 0.94325 0.85458 0.0
H6061 H 0.27485 0.9611 0.88636 0.0
H6062 H 0.29091 0.95505 0.88056 0.0
H6063 H 0.3022 0.96473 0.85217 0.0
H6064 H 0.35008 0.94305 0.85071 0.0
H6065 H 0.33462 0.95205 0.85324 0.0
C6066 C 0.22727 0.01882 0.35129 0.0
C6067 C 0.22597 0.00809 0.34878 0.0
C6068 C 0.21883 0.02438 0.34981 0.0
C6069 C 0.19319 0.02366 0.33555 0.0
H6070 H 0.18936 0.04537 0.35609 0.0
C6071 C 0.15803 0.04777 0.334 0.0
C6072 C 0.1606 0.05836 0.3371 0.0
C6073 C 0.16562 0.0411 0.3352 0.0
C6074 C 0.19037 0.0394 0.35024 0.0
H6075 H 0.21477 0.99478 0.34268 0.0
H6076 H 0.19991 0.00453 0.34015 0.0
H6077 H 0.20319 0.03462 0.35872 0.0
H6078 H 0.17306 0.07034 0.34363 0.0
H6079 H 0.18631 0.0588 0.34561 0.0
H6080 H 0.18039 0.02855 0.32703 0.0
C6081 C 0.20753 0.00862 0.34321 0.0
C6082 C 0.19829 0.03323 0.35175 0.0
C6083 C 0.216 1.00303 0.34474 0.0
C6084 C 0.17088 0.0622 0.34122 0.0
C6085 C 0.17844 0.05557 0.34242 0.0
C6086 C 0.18524 0.02986 0.33402 0.0
C6087 C 0.20884 0.01936 0.34579 0.0
C6088 C 0.19991 0.02539 0.34437 0.0
C6089 C 0.17587 0.04493 0.33955 0.0
C6090 C 0.18386 0.03791 0.3413 0.0
H6091 H 0.2348 0.02294 0.35454 0.0
H6092 H 0.22015 0.03265 0.35177 0.0
H6093 H 0.19428 0.01772 0.3297 0.0
H6094 H 0.15014 0.04459 0.33081 0.0
H6095 H 0.16338 0.03294 0.33296 0.0
C6096 C 0.38157 0.17708 0.47019 0.0
C6097 C 0.37102 0.17865 0.47149 0.0
C6098 C 0.3849 0.1748 0.46063 0.0
C6099 C 0.37436 0.163 0.43577 0.0
H6100 H 0.40198 0.1738 0.42769 0.0
C6101 C 0.38743 0.14957 0.39729 0.0
C6102 C 0.39782 0.14714 0.39704 0.0
C6103 C 0.38429 0.15511 0.40571 0.0
C6104 C 0.39427 0.17066 0.42986 0.0
H6105 H 0.35574 0.1793 0.46378 0.0
H6106 H 0.36158 0.17536 0.44708 0.0
H6107 H 0.39621 0.18036 0.44377 0.0
H6108 H 0.4132 0.14893 0.40522 0.0
H6109 H 0.4077 0.15844 0.42005 0.0
H6110 H 0.37249 0.15306 0.4221 0.0
C6111 C 0.36726 0.17584 0.45346 0.0
C6112 C 0.39096 0.17444 0.43905 0.0
C6113 C 0.36394 0.17819 0.46301 0.0
C6114 C 0.40516 0.15077 0.4052 0.0
C6115 C 0.402 0.15624 0.41368 0.0
C6116 C 0.37768 0.15919 0.42662 0.0
C6117 C 0.37773 0.17398 0.45218 0.0
C6118 C 0.38101 0.17058 0.44214 0.0
C6119 C 0.39144 0.15825 0.41414 0.0
C6120 C 0.38771 0.1629 0.42358 0.0
H6121 H 0.38724 0.17751 0.47657 0.0
H6122 H 0.393 0.17334 0.4599 0.0
H6123 H 0.36672 0.15974 0.438 0.0
H6124 H 0.38165 0.14698 0.39103 0.0
H6125 H 0.37618 0.15674 0.40569 0.0
C6126 C 0.53284 0.64331 0.20305 0.0
C6127 C 0.52733 0.63531 0.20767 0.0
C6128 C 0.53567 0.64155 0.19323 0.0
C6129 C 0.54169 0.62042 0.17573 0.0
H6130 H 0.54095 0.63988 0.15602 0.0
C6131 C 0.55551 0.61067 0.13683 0.0
C6132 C 0.562 0.61847 0.13284 0.0
C6133 C 0.54989 0.61298 0.14513 0.0
C6134 C 0.54128 0.6344 0.16147 0.0
H6135 H 0.52019 0.61929 0.20547 0.0
H6136 H 0.52501 0.61627 0.18833 0.0
H6137 H 0.53356 0.64351 0.17213 0.0
H6138 H 0.56739 0.63487 0.1341 0.0
H6139 H 0.55775 0.63895 0.14882 0.0
H6140 H 0.54966 0.61145 0.16533 0.0
C6141 C 0.52722 0.62388 0.19233 0.0
C6142 C 0.53703 0.63648 0.17068 0.0
C6143 C 0.52436 0.62564 0.20212 0.0
C6144 C 0.5624 0.62872 0.13703 0.0
C6145 C 0.55686 0.63105 0.14544 0.0
C6146 C 0.54598 0.61839 0.16659 0.0
C6147 C 0.53311 0.63174 0.18785 0.0
C6148 C 0.5372 0.6295 0.1779 0.0
C6149 C 0.55074 0.62315 0.14974 0.0
C6150 C 0.54584 0.62533 0.15933 0.0
H6151 H 0.53514 0.65088 0.20709 0.0
H6152 H 0.54024 0.64776 0.19001 0.0
H6153 H 0.54217 0.615 0.18121 0.0
H6154 H 0.55495 0.60271 0.13363 0.0
H6155 H 0.54504 0.60675 0.14806 0.0
C6156 C 0.07808 0.79901 0.99237 0.0
C6157 C 0.08214 0.80381 1.00185 0.0
C6158 C 0.0763 0.80492 0.98451 0.0
C6159 C 0.07303 0.83161 0.97953 0.0
H6160 H 0.08168 0.82333 0.95321 0.0
C6161 C 0.08064 0.86011 0.95039 0.0
C6162 C 0.07709 0.85686 0.9404 0.0
C6163 C 0.08003 0.85313 0.95754 0.0
C6164 C 0.07908 0.82567 0.96048 0.0
H6165 H 0.08783 0.81855 0.0104 0.0
H6166 H 0.08477 0.82878 0.99679 0.0
H6167 H 0.08284 0.81195 0.96635 0.0
H6168 H 0.0701 0.84375 0.93001 0.0
H6169 H 0.06907 0.83149 0.94254 0.0
H6170 H 0.06952 0.84544 0.97375 0.0
C6171 C 0.08269 0.82049 0.99545 0.0
C6172 C 0.07973 0.81915 0.96801 0.0
C6173 C 0.08445 0.81461 1.00327 0.0
C6174 C 0.07288 0.84648 0.93767 0.0
C6175 C 0.07234 0.83945 0.94483 0.0
C6176 C 0.07241 0.83813 0.97204 0.0
C6177 C 0.07857 0.81574 0.98598 0.0
C6178 C 0.07692 0.82214 0.97769 0.0
C6179 C 0.07591 0.84272 0.95484 0.0
C6180 C 0.07562 0.83533 0.96248 0.0
H6181 H 0.07616 0.79071 0.99105 0.0
H6182 H 0.07305 0.80103 0.97733 0.0
H6183 H 0.07056 0.83406 0.98683 0.0
H6184 H 0.08397 0.86806 0.95267 0.0
H6185 H 0.083 0.85586 0.96516 0.0
C6186 C 0.93446 0.3821 0.71676 0.0
C6187 C 0.94058 0.38954 0.72371 0.0
C6188 C 0.932 0.38432 0.70705 0.0
C6189 C 0.94013 0.40242 0.68865 0.0
H6190 H 0.91165 0.39334 0.67653 0.0
C6191 C 0.92348 0.4183 0.65351 0.0
C6192 C 0.91721 0.4113 0.64631 0.0
C6193 C 0.92682 0.41518 0.66264 0.0
C6194 C 0.91968 0.39582 0.67976 0.0
H6195 H 0.94886 0.40516 0.72594 0.0
H6196 H 0.9445 0.40907 0.70905 0.0
H6197 H 0.91652 0.3888 0.69309 0.0
H6198 H 0.90959 0.39549 0.64292 0.0
H6199 H 0.91544 0.39004 0.65887 0.0
H6200 H 0.94321 0.4096 0.67537 0.0
C6201 C 0.94176 0.40145 0.71103 0.0
C6202 C 0.92248 0.39321 0.68925 0.0
C6203 C 0.94425 0.39922 0.72072 0.0
C6204 C 0.91442 0.40107 0.64834 0.0
C6205 C 0.91772 0.39796 0.65749 0.0
C6206 C 0.93732 0.40507 0.67918 0.0
C6207 C 0.93558 0.39405 0.70408 0.0
C6208 C 0.93272 0.39653 0.69384 0.0
C6209 C 0.9239 0.405 0.66476 0.0
C6210 C 0.92704 0.40184 0.67465 0.0
H6211 H 0.93165 0.37452 0.7188 0.0
H6212 H 0.92737 0.37839 0.70185 0.0
H6213 H 0.94814 0.40496 0.69189 0.0
H6214 H 0.9257 0.42624 0.65213 0.0
H6215 H 0.93147 0.42082 0.66813 0.0
C6216 C 0.38268 0.83819 0.02829 0.0
C6217 C 0.37229 0.83832 0.02425 0.0
C6218 C 0.38559 0.84177 0.03831 0.0
C6219 C 0.37757 0.85922 0.05866 0.0
H6220 H 0.39754 0.84723 0.0752 0.0
C6221 C 0.38816 0.87535 0.09949 0.0
C6222 C 0.39903 0.87719 0.10259 0.0
C6223 C 0.3846 0.86933 0.09053 0.0
C6224 C 0.392 0.85068 0.07064 0.0
H6225 H 0.35664 0.84177 0.02766 0.0
H6226 H 0.36166 0.84789 0.04516 0.0
H6227 H 0.39173 0.83896 0.05837 0.0
H6228 H 0.41462 0.87378 0.09899 0.0
H6229 H 0.40839 0.86326 0.08325 0.0
H6230 H 0.37789 0.87098 0.07082 0.0
C6231 C 0.36765 0.84526 0.04054 0.0
C6232 C 0.38867 0.84596 0.06101 0.0
C6233 C 0.36476 0.84174 0.03052 0.0
C6234 C 0.4062 0.87245 0.0968 0.0
C6235 C 0.40262 0.86642 0.08779 0.0
C6236 C 0.38085 0.8639 0.06827 0.0
C6237 C 0.37815 0.84551 0.04451 0.0
C6238 C 0.38144 0.8502 0.0549 0.0
C6239 C 0.39181 0.86503 0.08444 0.0
C6240 C 0.38812 0.85972 0.07437 0.0
H6241 H 0.38868 0.83568 0.02361 0.0
H6242 H 0.39377 0.84195 0.04108 0.0
H6243 H 0.37218 0.86284 0.0541 0.0
H6244 H 0.38242 0.87874 0.10391 0.0
H6245 H 0.37619 0.86821 0.08827 0.0
C6246 C 0.97657 0.63141 0.81356 0.0
C6247 C 0.97797 0.64073 0.80924 0.0
C6248 C 0.97042 0.63039 0.82172 0.0
C6249 C 0.94886 0.64122 0.83425 0.0
H6250 H 0.95699 0.62509 0.85523 0.0
C6251 C 0.92334 0.63415 0.86775 0.0
C6252 C 0.92168 0.62387 0.8699 0.0
C6253 C 0.93089 0.63724 0.86113 0.0
C6254 C 0.9546 0.62959 0.84941 0.0
H6255 H 0.97415 0.65635 0.81023 0.0
H6256 H 0.96338 0.65455 0.82452 0.0
H6257 H 0.96903 0.62871 0.84225 0.0
H6258 H 0.92662 0.6088 0.86698 0.0
H6259 H 0.93978 0.61417 0.85547 0.0
H6260 H 0.93435 0.64197 0.84136 0.0
C6261 C 0.96696 0.64801 0.8215 0.0
C6262 C 0.96148 0.63165 0.84196 0.0
C6263 C 0.97313 0.64903 0.81333 0.0
C6264 C 0.92779 0.61679 0.86547 0.0
C6265 C 0.93536 0.61988 0.85892 0.0
C6266 C 0.94197 0.63918 0.84173 0.0
C6267 C 0.96551 0.63865 0.82577 0.0
C6268 C 0.95861 0.63731 0.83418 0.0
C6269 C 0.93696 0.63012 0.85662 0.0
C6270 C 0.94468 0.63317 0.84927 0.0
H6271 H 0.98001 0.6248 0.81048 0.0
H6272 H 0.9693 0.623 0.82468 0.0
H6273 H 0.94635 0.64552 0.82832 0.0
H6274 H 0.91873 0.63978 0.87105 0.0
H6275 H 0.932 0.6452 0.85954 0.0
C6276 C 0.08299 0.15514 0.50663 0.0
C6277 C 0.08534 0.16584 0.50631 0.0
C6278 C 0.08059 0.15114 0.51554 0.0
C6279 C 0.08395 0.15727 0.54291 0.0
H6280 H 0.06276 0.13314 0.5422 0.0
C6281 C 0.07292 0.13747 0.5783 0.0
C6282 C 0.07252 0.12669 0.57716 0.0
C6283 C 0.07365 0.143 0.56996 0.0
C6284 C 0.06872 0.13986 0.54252 0.0
H6285 H 0.08693 0.18072 0.51514 0.0
H6286 H 0.08268 0.17371 0.53077 0.0
H6287 H 0.06547 0.14153 0.52709 0.0
H6288 H 0.0725 0.11326 0.5665 0.0
H6289 H 0.0737 0.12287 0.55198 0.0
H6290 H 0.08724 0.15549 0.55836 0.0
C6291 C 0.0828 0.16842 0.5241 0.0
C6292 C 0.07029 0.14466 0.53386 0.0
C6293 C 0.08523 0.17244 0.51515 0.0
C6294 C 0.07275 0.12156 0.56757 0.0
C6295 C 0.07338 0.12706 0.55926 0.0
C6296 C 0.08233 0.15248 0.55161 0.0
C6297 C 0.08045 0.15771 0.5244 0.0
C6298 C 0.07809 0.15329 0.53388 0.0
C6299 C 0.07387 0.13784 0.56035 0.0
C6300 C 0.07486 0.14359 0.55145 0.0
H6301 H 0.08325 0.14982 0.50002 0.0
H6302 H 0.07908 0.14285 0.51553 0.0
H6303 H 0.09007 0.16385 0.54318 0.0
H6304 H 0.07279 0.14163 0.58562 0.0
H6305 H 0.07397 0.15131 0.57102 0.0
C6306 C 0.51951 0.37753 0.31056 0.0
C6307 C 0.51785 0.36828 0.30415 0.0
C6308 C 0.52344 0.37767 0.32048 0.0
C6309 C 0.52848 0.36099 0.34046 0.0
H6310 H 0.55144 0.38296 0.34932 0.0
C6311 C 0.55934 0.35939 0.37342 0.0
C6312 C 0.56345 0.36867 0.37922 0.0
C6313 C 0.55216 0.35936 0.36515 0.0
C6314 C 0.54492 0.37686 0.34707 0.0
H6315 H 0.51843 0.35183 0.30332 0.0
H6316 H 0.5255 0.35211 0.32052 0.0
H6317 H 0.54174 0.38297 0.3333 0.0
H6318 H 0.56267 0.38507 0.38141 0.0
H6319 H 0.55004 0.38503 0.36711 0.0
H6320 H 0.53187 0.35478 0.3542 0.0
C6321 C 0.52371 0.35925 0.31792 0.0
C6322 C 0.53934 0.37687 0.33786 0.0
C6323 C 0.51978 0.35911 0.30802 0.0
C6324 C 0.55976 0.37783 0.37696 0.0
C6325 C 0.55256 0.3778 0.36875 0.0
C6326 C 0.53407 0.36098 0.34971 0.0
C6327 C 0.52581 0.36857 0.32422 0.0
C6328 C 0.53112 0.36889 0.33438 0.0
C6329 C 0.54891 0.36863 0.36257 0.0
C6330 C 0.54243 0.36888 0.35308 0.0
H6331 H 0.51816 0.38474 0.30782 0.0
H6332 H 0.52482 0.38496 0.32517 0.0
H6333 H 0.52211 0.35478 0.33806 0.0
H6334 H 0.5621 0.35223 0.37496 0.0
H6335 H 0.54957 0.35217 0.36052 0.0
C6336 C 0.43849 0.39369 0.22575 0.0
C6337 C 0.44569 0.40051 0.23237 0.0
C6338 C 0.43129 0.39742 0.21933 0.0
C6339 C 0.41871 0.42037 0.21411 0.0
H6340 H 0.41635 0.40708 0.18696 0.0
C6341 C 0.39923 0.43648 0.17978 0.0
C6342 C 0.3938 0.42919 0.17229 0.0
C6343 C 0.40449 0.43326 0.18809 0.0
C6344 C 0.41676 0.41079 0.19454 0.0
H6345 H 0.45072 0.41659 0.23771 0.0
H6346 H 0.43814 0.42315 0.22638 0.0
H6347 H 0.42754 0.40098 0.1996 0.0
H6348 H 0.38885 0.41291 0.16793 0.0
H6349 H 0.39776 0.40728 0.18246 0.0
H6350 H 0.40797 0.43029 0.2089 0.0
C6351 C 0.43802 0.4149 0.22624 0.0
C6352 C 0.4232 0.40729 0.2018 0.0
C6353 C 0.44522 0.41115 0.23272 0.0
C6354 C 0.3931 0.41867 0.17355 0.0
C6355 C 0.39826 0.41546 0.18184 0.0
C6356 C 0.41223 0.4239 0.2068 0.0
C6357 C 0.43112 0.40807 0.21931 0.0
C6358 C 0.42421 0.41197 0.21169 0.0
C6359 C 0.40434 0.42268 0.18902 0.0
C6360 C 0.41112 0.41908 0.19694 0.0
H6361 H 0.43851 0.38544 0.22545 0.0
H6362 H 0.42592 0.39193 0.21426 0.0
H6363 H 0.41929 0.42412 0.22168 0.0
H6364 H 0.39991 0.44463 0.17894 0.0
H6365 H 0.40911 0.43901 0.19348 0.0
C6366 C 0.36542 0.75686 0.9395 0.0
C6367 C 0.36186 0.75578 0.94904 0.0
C6368 C 0.36651 0.74822 0.93299 0.0
C6369 C 0.36981 0.72078 0.93225 0.0
H6370 H 0.36187 0.72062 0.90404 0.0
C6371 C 0.37158 0.6856 0.90323 0.0
C6372 C 0.37598 0.68782 0.89426 0.0
C6373 C 0.36928 0.69356 0.91007 0.0
C6374 C 0.36419 0.72058 0.91189 0.0
H6375 H 0.35665 0.74476 0.95924 0.0
H6376 H 0.35854 0.72957 0.94781 0.0
H6377 H 0.35874 0.73504 0.91575 0.0
H6378 H 0.38147 0.7 0.88539 0.0
H6379 H 0.37747 0.71393 0.89732 0.0
H6380 H 0.3753 0.70632 0.92834 0.0
C6381 C 0.36057 0.73715 0.94542 0.0
C6382 C 0.36241 0.72884 0.9186 0.0
C6383 C 0.35949 0.74583 0.95196 0.0
C6384 C 0.37803 0.6981 0.89224 0.0
C6385 C 0.37569 0.70605 0.89904 0.0
C6386 C 0.37156 0.71249 0.92553 0.0
C6387 C 0.36407 0.73825 0.93584 0.0
C6388 C 0.36533 0.72912 0.92884 0.0
C6389 C 0.37129 0.70388 0.90803 0.0
C6390 C 0.3689 0.71237 0.91526 0.0
H6391 H 0.36753 0.76443 0.9371 0.0
H6392 H 0.36946 0.74936 0.92576 0.0
H6393 H 0.37225 0.72081 0.94008 0.0
H6394 H 0.36992 0.67773 0.905 0.0
H6395 H 0.36581 0.69165 0.91689 0.0
C6396 C 0.05228 0.61934 0.73727 0.0
C6397 C 0.04163 0.61685 0.73353 0.0
C6398 C 0.05986 0.61314 0.7342 0.0
C6399 C 0.06269 0.58751 0.72069 0.0
H6400 H 0.08983 0.60168 0.7147 0.0
C6401 C 0.0888 0.57208 0.69097 0.0
C6402 C 0.09986 0.57363 0.69301 0.0
C6403 C 0.08221 0.57593 0.69791 0.0
C6404 C 0.08237 0.59759 0.71651 0.0
H6405 H 0.03055 0.60592 0.72366 0.0
H6406 H 0.04374 0.59528 0.71811 0.0
H6407 H 0.07729 0.6114 0.72304 0.0
H6408 H 0.11273 0.58005 0.70395 0.0
H6409 H 0.10117 0.587 0.71609 0.0
H6410 H 0.06762 0.5738 0.71358 0.0
C6411 C 0.04625 0.60182 0.72364 0.0
C6412 C 0.07516 0.60315 0.72131 0.0
C6413 C 0.03868 0.60796 0.72678 0.0
C6414 C 0.10421 0.57871 0.70227 0.0
C6415 C 0.09762 0.58272 0.70916 0.0
C6416 C 0.06985 0.58198 0.71577 0.0
C6417 C 0.05697 0.60437 0.72724 0.0
C6418 C 0.06512 0.59823 0.72325 0.0
C6419 C 0.08658 0.58155 0.70694 0.0
C6420 C 0.07967 0.587 0.71345 0.0
H6421 H 0.05475 0.6261 0.74256 0.0
H6422 H 0.06799 0.61526 0.73726 0.0
H6423 H 0.05514 0.58341 0.72227 0.0
H6424 H 0.0853 0.56822 0.68385 0.0
H6425 H 0.07375 0.575 0.69595 0.0
C6426 C 0.1134 0.25685 0.44507 0.0
C6427 C 0.10757 0.24749 0.44074 0.0
C6428 C 0.11512 0.26527 0.43952 0.0
C6429 C 0.11508 0.27176 0.41341 0.0
H6430 H 0.11381 0.29949 0.42555 0.0
C6431 C 0.11441 0.30631 0.39029 0.0
C6432 C 0.12052 0.31568 0.39421 0.0
C6433 C 0.11311 0.29802 0.39603 0.0
C6434 C 0.11431 0.2918 0.42208 0.0
H6435 H 0.09868 0.23974 0.42729 0.0
H6436 H 0.10159 0.2544 0.41765 0.0
H6437 H 0.11089 0.28504 0.43551 0.0
H6438 H 0.13011 0.32371 0.40711 0.0
H6439 H 0.12787 0.30921 0.41715 0.0
H6440 H 0.11841 0.27852 0.39997 0.0
C6441 C 0.10505 0.25519 0.42526 0.0
C6442 C 0.11265 0.28352 0.42779 0.0
C6443 C 0.10337 0.24678 0.43079 0.0
C6444 C 0.12534 0.31657 0.40393 0.0
C6445 C 0.124 0.3083 0.40969 0.0
C6446 C 0.11672 0.28004 0.4077 0.0
C6447 C 0.11102 0.26452 0.42952 0.0
C6448 C 0.11296 0.27338 0.42352 0.0
C6449 C 0.11785 0.29893 0.40581 0.0
C6450 C 0.11632 0.29015 0.41195 0.0
H6451 H 0.11684 0.25761 0.45268 0.0
H6452 H 0.11985 0.27229 0.443 0.0
H6453 H 0.11559 0.26408 0.40992 0.0
H6454 H 0.11058 0.30537 0.38281 0.0
H6455 H 0.10822 0.29095 0.39286 0.0
C6456 C 0.43914 0.61419 0.27076 0.0
C6457 C 0.4495 0.61521 0.27532 0.0
C6458 C 0.43039 0.61063 0.27587 0.0
C6459 C 0.42319 0.59662 0.29764 0.0
H6460 H 0.39762 0.60958 0.29579 0.0
C6461 C 0.39175 0.59311 0.32636 0.0
C6462 C 0.38102 0.59126 0.32281 0.0
C6463 C 0.39966 0.5953 0.31986 0.0
C6464 C 0.40465 0.6058 0.29627 0.0
H6465 H 0.45873 0.61306 0.28879 0.0
H6466 H 0.44353 0.60722 0.29778 0.0
H6467 H 0.41231 0.61485 0.28576 0.0
H6468 H 0.3701 0.5903 0.3097 0.0
H6469 H 0.38401 0.59425 0.2983 0.0
H6470 H 0.41564 0.5878 0.30837 0.0
C6471 C 0.44214 0.60902 0.2902 0.0
C6472 C 0.41308 0.6088 0.29052 0.0
C6473 C 0.45088 0.61253 0.28509 0.0
C6474 C 0.37832 0.59166 0.31263 0.0
C6475 C 0.38626 0.59396 0.30612 0.0
C6476 C 0.41482 0.59369 0.30343 0.0
C6477 C 0.43178 0.608 0.28566 0.0
C6478 C 0.42251 0.60435 0.29124 0.0
C6479 C 0.39702 0.59578 0.30968 0.0
C6480 C 0.40552 0.59834 0.30292 0.0
H6481 H 0.43778 0.61627 0.26327 0.0
H6482 H 0.42253 0.60986 0.27211 0.0
H6483 H 0.43022 0.59285 0.29822 0.0
H6484 H 0.39402 0.59289 0.33419 0.0
H6485 H 0.40786 0.5968 0.32285 0.0
C6486 C 0.1207 0.74409 0.08953 0.0
C6487 C 0.11903 0.7445 0.0792 0.0
C6488 C 0.12254 0.73493 0.09327 0.0
C6489 C 0.13169 0.70994 0.08669 0.0
H6490 H 0.11821 0.70295 0.11059 0.0
C6491 C 0.13518 0.67197 0.10494 0.0
C6492 C 0.13619 0.67297 0.11543 0.0
C6493 C 0.13326 0.68039 0.09984 0.0
C6494 C 0.12212 0.70484 0.10397 0.0
H6495 H 0.118 0.7356 0.06469 0.0
H6496 H 0.12116 0.71948 0.07128 0.0
H6497 H 0.11415 0.71802 0.10287 0.0
H6498 H 0.13671 0.68371 0.12877 0.0
H6499 H 0.13347 0.69834 0.11994 0.0
H6500 H 0.13974 0.69674 0.0879 0.0
C6501 C 0.1211 0.72631 0.07645 0.0
C6502 C 0.11978 0.71347 0.09953 0.0
C6503 C 0.1192 0.7355 0.07269 0.0
C6504 C 0.13574 0.68265 0.12069 0.0
C6505 C 0.13385 0.69102 0.11563 0.0
C6506 C 0.13405 0.70127 0.09115 0.0
C6507 C 0.12275 0.72593 0.0868 0.0
C6508 C 0.12467 0.71624 0.09095 0.0
C6509 C 0.13233 0.68995 0.10516 0.0
C6510 C 0.12944 0.69874 0.09995 0.0
H6511 H 0.12048 0.75084 0.09477 0.0
H6512 H 0.1239 0.73495 0.10127 0.0
H6513 H 0.13563 0.71191 0.08011 0.0
H6514 H 0.13545 0.66459 0.10069 0.0
H6515 H 0.13211 0.67932 0.09177 0.0
C6516 C 0.03311 0.38596 0.7905 0.0
C6517 C 0.02852 0.39445 0.78765 0.0
C6518 C 0.04322 0.38734 0.79542 0.0
C6519 C 0.06784 0.40599 0.80114 0.0
H6520 H 0.07194 0.3896 0.82301 0.0
C6521 C 0.10453 0.41363 0.82994 0.0
C6522 C 0.10871 0.40492 0.83284 0.0
C6523 C 0.09514 0.4125 0.82377 0.0
C6524 C 0.07097 0.39415 0.81685 0.0
H6525 H 0.03098 0.41104 0.78759 0.0
H6526 H 0.04863 0.4135 0.79633 0.0
H6527 H 0.05481 0.38739 0.81354 0.0
H6528 H 0.10665 0.38821 0.83105 0.0
H6529 H 0.09026 0.38624 0.82037 0.0
H6530 H 0.08403 0.41287 0.80463 0.0
C6531 C 0.04447 0.40574 0.79462 0.0
C6532 C 0.06115 0.39287 0.8114 0.0
C6533 C 0.03436 0.40435 0.78963 0.0
C6534 C 0.10351 0.39507 0.82915 0.0
C6535 C 0.09413 0.39394 0.82302 0.0
C6536 C 0.07768 0.40731 0.80664 0.0
C6537 C 0.04897 0.39726 0.79767 0.0
C6538 C 0.05947 0.39873 0.80344 0.0
C6539 C 0.08974 0.40263 0.8204 0.0
C6540 C 0.07935 0.40135 0.81452 0.0
H6541 H 0.02887 0.37822 0.78891 0.0
H6542 H 0.04653 0.38061 0.79745 0.0
H6543 H 0.06686 0.41055 0.79499 0.0
H6544 H 0.10831 0.42133 0.83272 0.0
H6545 H 0.09191 0.41934 0.82192 0.0
C6546 C 0.34264 0.25285 0.5516 0.0
C6547 C 0.34032 0.25299 0.54131 0.0
C6548 C 0.34215 0.26153 0.55828 0.0
C6549 C 0.34315 0.28975 0.55979 0.0
H6550 H 0.33311 0.2863 0.58597 0.0
C6551 C 0.34128 0.32415 0.58984 0.0
C6552 C 0.34559 0.32293 0.5994 0.0
C6553 C 0.33951 0.31578 0.58239 0.0
C6554 C 0.33596 0.28738 0.5787 0.0
H6555 H 0.33559 0.26238 0.52998 0.0
H6556 H 0.33466 0.27761 0.54171 0.0
H6557 H 0.33188 0.27139 0.57351 0.0
H6558 H 0.35137 0.3121 0.60873 0.0
H6559 H 0.34824 0.29749 0.59578 0.0
H6560 H 0.34729 0.30577 0.56506 0.0
C6561 C 0.33697 0.27077 0.54457 0.0
C6562 C 0.33529 0.27884 0.57156 0.0
C6563 C 0.33749 0.26206 0.53786 0.0
C6564 C 0.34799 0.31322 0.60142 0.0
C6565 C 0.34615 0.30485 0.59403 0.0
C6566 C 0.34377 0.29832 0.56693 0.0
C6567 C 0.33931 0.2706 0.55487 0.0
C6568 C 0.33908 0.27987 0.56209 0.0
C6569 C 0.34194 0.30605 0.58442 0.0
C6570 C 0.34038 0.29718 0.57652 0.0
H6571 H 0.34508 0.24607 0.55449 0.0
H6572 H 0.34425 0.26119 0.56612 0.0
H6573 H 0.34624 0.29081 0.5526 0.0
H6574 H 0.33938 0.33156 0.58806 0.0
H6575 H 0.33621 0.31691 0.57507 0.0
C6576 C 0.17199 0.43221 0.35943 0.0
C6577 C 0.17304 0.43965 0.36778 0.0
C6578 C 0.1689 0.4218 0.36046 0.0
C6579 C 0.15433 0.40533 0.37704 0.0
H6580 H 0.16449 0.38326 0.36069 0.0
C6581 C 0.13649 0.36302 0.37823 0.0
C6582 C 0.13338 0.35762 0.36878 0.0
C6583 C 0.14328 0.37238 0.37911 0.0
C6584 C 0.16157 0.38934 0.36531 0.0
H6585 H 0.17221 0.44193 0.38383 0.0
H6586 H 0.16688 0.42377 0.38564 0.0
H6587 H 0.17274 0.40103 0.36034 0.0
H6588 H 0.1355 0.35736 0.35296 0.0
H6589 H 0.14725 0.37369 0.35447 0.0
H6590 H 0.14299 0.39371 0.38181 0.0
C6591 C 0.16823 0.426 0.37826 0.0
C6592 C 0.16628 0.39952 0.36509 0.0
C6593 C 0.17128 0.4364 0.37723 0.0
C6594 C 0.13769 0.36143 0.36032 0.0
C6595 C 0.1445 0.37074 0.36121 0.0
C6596 C 0.14964 0.39516 0.37727 0.0
C6597 C 0.16682 0.41858 0.36987 0.0
C6598 C 0.16258 0.40766 0.37081 0.0
C6599 C 0.14714 0.37648 0.37058 0.0
C6600 C 0.15306 0.38706 0.37126 0.0
H6601 H 0.17317 0.43447 0.35204 0.0
H6602 H 0.16774 0.41633 0.35381 0.0
H6603 H 0.15116 0.41141 0.38143 0.0
H6604 H 0.13326 0.36028 0.38487 0.0
H6605 H 0.14528 0.37656 0.38645 0.0
C6606 C 0.70295 0.07199 0.62127 0.0
C6607 C 0.69627 0.06312 0.62318 0.0
C6608 C 0.69928 0.08159 0.62183 0.0
C6609 C 0.67879 0.09548 0.63308 0.0
H6610 H 0.68482 0.11422 0.61309 0.0
C6611 C 0.66724 0.13633 0.63742 0.0
C6612 C 0.66243 0.1397 0.62895 0.0
C6613 C 0.67214 0.12743 0.63659 0.0
C6614 C 0.68304 0.10905 0.61871 0.0
H6615 H 0.68055 0.05744 0.62732 0.0
H6616 H 0.67413 0.07408 0.62816 0.0
H6617 H 0.69174 0.0977 0.61185 0.0
H6618 H 0.65918 0.13655 0.61291 0.0
H6619 H 0.66768 0.1209 0.61146 0.0
H6620 H 0.66993 0.10666 0.63984 0.0
C6621 C 0.68222 0.07365 0.62628 0.0
C6622 C 0.68709 0.09963 0.61805 0.0
C6623 C 0.68587 0.06409 0.62569 0.0
C6624 C 0.66284 0.13414 0.61957 0.0
C6625 C 0.66775 0.12521 0.61873 0.0
C6626 C 0.67479 0.10488 0.63375 0.0
C6627 C 0.68888 0.08253 0.62439 0.0
C6628 C 0.68494 0.09271 0.6252 0.0
C6629 C 0.67231 0.12166 0.62727 0.0
C6630 C 0.67682 0.11177 0.62657 0.0
H6631 H 0.71098 0.07149 0.61925 0.0
H6632 H 0.70463 0.0883 0.6204 0.0
H6633 H 0.67709 0.09038 0.63878 0.0
H6634 H 0.66707 0.14051 0.64473 0.0
H6635 H 0.67573 0.12502 0.64328 0.0
C6636 C 0.74818 0.98812 0.36646 0.0
C6637 C 0.75409 0.98712 0.35805 0.0
C6638 C 0.73795 0.98277 0.36638 0.0
C6639 C 0.72013 0.96033 0.35325 0.0
H6640 H 0.69879 0.9727 0.36775 0.0
C6641 C 0.67671 0.94047 0.35388 0.0
C6642 C 0.67299 0.94029 0.36347 0.0
C6643 C 0.68627 0.94655 0.35247 0.0
C6644 C 0.70468 0.96914 0.36369 0.0
H6645 H 0.75387 0.97989 0.34288 0.0
H6646 H 0.73589 0.97069 0.34264 0.0
H6647 H 0.71604 0.98276 0.36648 0.0
H6648 H 0.6762 0.9463 0.37903 0.0
H6649 H 0.6928 0.95703 0.37655 0.0
H6650 H 0.70866 0.94672 0.35043 0.0
C6651 C 0.73924 0.97544 0.34939 0.0
C6652 C 0.71459 0.97488 0.36299 0.0
C6653 C 0.74952 0.98072 0.34951 0.0
C6654 C 0.67889 0.94635 0.37156 0.0
C6655 C 0.68835 0.95251 0.37014 0.0
C6656 C 0.71017 0.95462 0.35386 0.0
C6657 C 0.73334 0.97636 0.35785 0.0
C6658 C 0.72252 0.97049 0.35792 0.0
C6659 C 0.69217 0.95263 0.36059 0.0
C6660 C 0.70241 0.95892 0.35923 0.0
H6661 H 0.75156 0.99285 0.37321 0.0
H6662 H 0.73377 0.98351 0.37311 0.0
H6663 H 0.72607 0.95664 0.34939 0.0
H6664 H 0.67234 0.93583 0.34751 0.0
H6665 H 0.68902 0.94653 0.34503 0.0
C6666 C 0.79911 0.93177 0.14847 0.0
C6667 C 0.80553 0.94121 0.1516 0.0
C6668 C 0.80361 0.92266 0.14693 0.0
C6669 C 0.82796 0.9113 0.15322 0.0
H6670 H 0.81797 0.89158 0.13024 0.0
C6671 C 0.84504 0.87308 0.14657 0.0
C6672 C 0.84737 0.87009 0.13675 0.0
C6673 C 0.83896 0.88104 0.14856 0.0
C6674 C 0.82088 0.89703 0.13667 0.0
H6675 H 0.82172 0.9484 0.15576 0.0
H6676 H 0.82957 0.93261 0.15284 0.0
H6677 H 0.80952 0.90706 0.13336 0.0
H6678 H 0.84501 0.87295 0.1213 0.0
H6679 H 0.83451 0.88693 0.12477 0.0
H6680 H 0.83956 0.90151 0.15634 0.0
C6681 C 0.82104 0.9322 0.15167 0.0
C6682 C 0.81595 0.90584 0.13852 0.0
C6683 C 0.81655 0.94129 0.15322 0.0
C6684 C 0.84324 0.87501 0.12893 0.0
C6685 C 0.83721 0.88302 0.13093 0.0
C6686 C 0.83289 0.90251 0.15135 0.0
C6687 C 0.81464 0.92277 0.14851 0.0
C6688 C 0.81951 0.91314 0.14677 0.0
C6689 C 0.83514 0.88624 0.14079 0.0
C6690 C 0.82947 0.8953 0.14301 0.0
H6691 H 0.79061 0.93144 0.14706 0.0
H6692 H 0.79843 0.91551 0.14458 0.0
H6693 H 0.8308 0.91667 0.15972 0.0
H6694 H 0.84799 0.86931 0.15273 0.0
H6695 H 0.83734 0.88317 0.15622 0.0
C6696 C 0.25373 0.517 0.33135 0.0
C6697 C 0.25299 0.51021 0.33876 0.0
C6698 C 0.26336 0.52309 0.3302 0.0
C6699 C 0.28764 0.53492 0.34492 0.0
H6700 H 0.29908 0.53944 0.31948 0.0
C6701 C 0.32808 0.55907 0.3438 0.0
C6702 C 0.32912 0.56612 0.33668 0.0
C6703 C 0.3193 0.55144 0.34313 0.0
C6704 C 0.29593 0.53834 0.32663 0.0
H6705 H 0.26182 0.50435 0.35066 0.0
H6706 H 0.27859 0.51492 0.34864 0.0
H6707 H 0.28262 0.52762 0.31996 0.0
H6708 H 0.32209 0.5706 0.32309 0.0
H6709 H 0.30646 0.55739 0.32202 0.0
H6710 H 0.30063 0.54577 0.35163 0.0
C6711 C 0.27173 0.51556 0.34373 0.0
C6712 C 0.28653 0.53155 0.3269 0.0
C6713 C 0.26214 0.50943 0.34482 0.0
C6714 C 0.32144 0.56518 0.32863 0.0
C6715 C 0.31253 0.55761 0.32803 0.0
C6716 C 0.29694 0.54174 0.34465 0.0
C6717 C 0.2724 0.52257 0.33652 0.0
C6718 C 0.28234 0.52973 0.33607 0.0
C6719 C 0.31123 0.5508 0.33542 0.0
C6720 C 0.30128 0.54349 0.33552 0.0
H6721 H 0.24684 0.5177 0.32651 0.0
H6722 H 0.26364 0.52846 0.32462 0.0
H6723 H 0.28448 0.53385 0.35207 0.0
H6724 H 0.33398 0.55961 0.35002 0.0
H6725 H 0.31874 0.54616 0.34879 0.0
C6726 C 0.31696 0.55939 0.86079 0.0
C6727 C 0.32238 0.5509 0.86197 0.0
C6728 C 0.32217 0.56945 0.86307 0.0
C6729 C 0.34627 0.58454 0.87689 0.0
H6730 H 0.34063 0.60525 0.85954 0.0
C6731 C 0.3736 0.62312 0.87665 0.0
C6732 C 0.36873 0.63202 0.87601 0.0
C6733 C 0.36748 0.61341 0.87574 0.0
C6734 C 0.34218 0.59958 0.86452 0.0
H6735 H 0.33752 0.54639 0.86667 0.0
H6736 H 0.34669 0.56388 0.87027 0.0
H6737 H 0.33086 0.58791 0.85625 0.0
H6738 H 0.35367 0.63779 0.87401 0.0
H6739 H 0.34296 0.62078 0.8724 0.0
H6740 H 0.35782 0.59618 0.88497 0.0
C6741 C 0.33836 0.56278 0.86774 0.0
C6742 C 0.33658 0.58964 0.86266 0.0
C6743 C 0.33313 0.55273 0.86552 0.0
C6744 C 0.35761 0.63105 0.87461 0.0
C6745 C 0.3515 0.62133 0.8736 0.0
C6746 C 0.35193 0.59445 0.8787 0.0
C6747 C 0.33295 0.57127 0.86655 0.0
C6748 C 0.3386 0.58197 0.86878 0.0
C6749 C 0.35639 0.61241 0.87408 0.0
C6750 C 0.35 0.60205 0.87249 0.0
H6751 H 0.3087 0.55827 0.85798 0.0
H6752 H 0.31772 0.5758 0.86217 0.0
H6753 H 0.34789 0.57889 0.88188 0.0
H6754 H 0.38215 0.62366 0.87779 0.0
H6755 H 0.37147 0.60666 0.87607 0.0
C6756 C 0.73393 0.01682 0.16149 0.0
C6757 C 0.7418 0.01972 0.16937 0.0
C6758 C 0.72374 0.01948 0.16232 0.0
C6759 C 0.70955 0.03845 0.17611 0.0
H6760 H 0.68464 0.0209 0.16326 0.0
C6761 C 0.66739 0.05027 0.17689 0.0
C6762 C 0.66162 0.04902 0.16754 0.0
C6763 C 0.67675 0.0459 0.17811 0.0
C6764 C 0.69153 0.02588 0.16687 0.0
H6765 H 0.74502 0.02726 0.18447 0.0
H6766 H 0.72716 0.03178 0.18599 0.0
H6767 H 0.70175 0.01448 0.16379 0.0
H6768 H 0.66095 0.04212 0.15224 0.0
H6769 H 0.67724 0.03441 0.15436 0.0
H6770 H 0.69931 0.04987 0.17911 0.0
C6771 C 0.72893 0.02765 0.17908 0.0
C6772 C 0.70134 0.02223 0.16716 0.0
C6773 C 0.73915 0.02505 0.17822 0.0
C6774 C 0.66525 0.04316 0.15952 0.0
C6775 C 0.67453 0.03871 0.16075 0.0
C6776 C 0.69972 0.04207 0.17588 0.0
C6777 C 0.72114 0.02504 0.17108 0.0
C6778 C 0.71052 0.02854 0.17161 0.0
C6779 C 0.68044 0.04011 0.17003 0.0
C6780 C 0.69065 0.0359 0.1711 0.0
H6781 H 0.73576 0.01285 0.15452 0.0
H6782 H 0.71801 0.01748 0.15594 0.0
H6783 H 0.71646 0.04358 0.17948 0.0
H6784 H 0.66479 0.05477 0.18321 0.0
H6785 H 0.68111 0.04705 0.18536 0.0
C6786 C 0.78908 0.011 0.65174 0.0
C6787 C 0.78571 0.01149 0.64171 0.0
C6788 C 0.79879 0.00766 0.6542 0.0
C6789 C 0.82481 0.00484 0.64463 0.0
H6790 H 0.82605 0.98414 0.66302 0.0
C6791 C 0.86072 0.98288 0.64815 0.0
C6792 C 0.86399 0.98023 0.65754 0.0
C6793 C 0.85137 0.98718 0.64679 0.0
C6794 C 0.82591 0.99005 0.658 0.0
H6795 H 0.78995 0.00905 0.62643 0.0
H6796 H 0.80691 1.00326 0.63072 0.0
H6797 H 0.8094 0.99088 0.65965 0.0
H6798 H 0.86009 0.98007 0.67295 0.0
H6799 H 0.84381 0.98781 0.67064 0.0
H6800 H 0.84128 1.00411 0.64299 0.0
C6801 C 0.80205 0.00545 0.63668 0.0
C6802 C 0.81634 0.99389 0.65605 0.0
C6803 C 0.7923 0.00868 0.63421 0.0
C6804 C 0.85775 0.98202 0.6656 0.0
C6805 C 0.84839 0.9864 0.66426 0.0
C6806 C 0.83438 1.00108 0.64663 0.0
C6807 C 0.80538 0.00486 0.6467 0.0
C6808 C 0.81566 1.00122 0.64924 0.0
C6809 C 0.84507 0.98903 0.65482 0.0
C6810 C 0.83503 0.99351 0.65323 0.0
H6811 H 0.78413 0.01304 0.65767 0.0
H6812 H 0.80118 0.00734 0.66199 0.0
H6813 H 0.82458 0.01061 0.63947 0.0
H6814 H 0.86537 0.98152 0.6418 0.0
H6815 H 0.84899 0.98889 0.63937 0.0
loop_
_geom_bond_atom_site_label_1
_geom_bond_atom_site_label_2
_geom_bond_distance
_geom_bond_site_symmetry_2
_ccdc_geom_bond_type
C0 C1 1.264 . S
C0 C5 1.479 . S
C0 C10 1.465 . S
C1 C0 1.264 . S
C1 C3 1.339 . S
C1 H28 0.931 . S
C2 C3 1.395 . S
C2 C4 1.320 . S
C3 C1 1.339 . S
C3 C2 1.395 . S
C3 H29 0.929 . S
C4 C2 1.320 . S
C4 C5 1.405 . S
C4 H30 0.930 . S
C5 C0 1.479 . S
C5 C4 1.405 . S
C5 H31 0.931 . S
U6 O7 2.454 . S
U6 O8 2.458 1_655 S
U6 C9 2.984 1_655 S
U6 C10 2.847 . S
U6 C23 2.882 1_655 S
U6 O24 2.441 . S
U6 O25 2.420 . S
U6 O26 2.455 1_655 S
U6 O27 2.431 1_655 S
O7 U6 2.454 . S
O7 C9 1.353 1_655 S
O8 U6 2.458 1_455 S
O8 C9 1.286 . S
C9 U6 2.984 1_455 S
C9 O7 1.353 1_455 S
C9 O8 1.286 . S
C9 C11 1.363 . S
C10 C0 1.465 . S
C10 U6 2.847 . S
C10 O24 1.249 . S
C10 O25 1.202 . S
C11 C9 1.363 . S
C11 C13 1.413 . S
C11 C16 1.342 . S
C12 C13 1.313 . S
C12 C15 1.461 . S
C12 H32 0.932 1_455 S
C13 C11 1.413 . S
C13 C12 1.313 . S
C13 H33 0.922 1_455 S
C14 C15 1.474 . S
C14 C16 1.285 . S
C14 H34 0.929 . S
C15 C12 1.461 . S
C15 C14 1.474 . S
C16 C11 1.342 . S
C16 C14 1.285 . S
C16 H35 0.930 . S
C17 C20 1.424 . S
C17 C22 1.245 . S
C17 C23 1.428 . S
C18 C21 1.260 . S
C18 C22 1.477 . S
C18 H36 0.932 . S
C19 C20 1.384 . S
C19 C21 1.479 . S
C19 H37 0.929 . S
C20 C17 1.424 . S
C20 C19 1.384 . S
C20 H38 0.928 . S
C21 C18 1.260 . S
C21 C19 1.479 . S
C22 C17 1.245 . S
C22 C18 1.477 . S
C22 H39 0.932 . S
C23 U6 2.882 1_455 S
C23 C17 1.428 . S
C23 O26 1.301 . S
C23 O27 1.368 . S
O24 U6 2.441 . S
O24 C10 1.249 . S
O25 U6 2.420 . S
O25 C10 1.202 . S
O26 U6 2.455 1_455 S
O26 C23 1.301 . S
O27 U6 2.431 1_455 S
O27 C23 1.368 . S
H28 C1 0.931 . S
H29 C3 0.929 . S
H30 C4 0.930 . S
H31 C5 0.931 . S
H32 C12 0.932 1_655 S
H33 C13 0.922 1_655 S
H34 C14 0.929 . S
H35 C16 0.930 . S
H36 C18 0.932 . S
H37 C19 0.929 . S
H38 C20 0.928 . S
H39 C22 0.932 . S
C40 C41 1.264 . S
C40 C45 1.479 . S
C40 C50 1.465 . S
C41 C40 1.264 . S
C41 C43 1.339 . S
C41 H68 0.931 . S
C42 C43 1.395 . S
C42 C44 1.320 . S
C43 C41 1.339 . S
C43 C42 1.395 . S
C43 H69 0.929 . S
C44 C42 1.320 . S
C44 C45 1.405 . S
C44 H70 0.930 . S
C45 C40 1.479 . S
C45 C44 1.405 . S
C45 H71 0.931 . S
U46 O47 2.454 . S
U46 O48 2.458 . S
U46 C49 2.984 . S
U46 C50 2.847 . S
U46 C63 2.882 . S
U46 O64 2.441 . S
U46 O65 2.420 . S
U46 O66 2.455 . S
U46 O67 2.449 . S
O47 U46 2.454 . S
O47 C49 1.353 . S
O48 U46 2.458 . S
O48 C49 1.286 . S
C49 U46 2.984 . S
C49 O47 1.353 . S
C49 O48 1.286 . S
C49 C51 1.363 . S
C50 C40 1.465 . S
C50 U46 2.847 . S
C50 O64 1.249 . S
C50 O65 1.202 . S
C51 C49 1.363 . S
C51 C53 1.408 . S
C51 C56 1.342 . S
C52 C53 1.310 . S
C52 C55 1.461 . S
C52 H72 0.932 . S
C53 C51 1.408 . S
C53 C52 1.310 . S
C53 H73 0.930 . S
C54 C55 1.474 . S
C54 C56 1.285 . S
C54 H74 0.929 . S
C55 C52 1.461 . S
C55 C54 1.474 . S
C56 C51 1.342 . S
C56 C54 1.285 . S
C56 H75 0.930 . S
C57 C60 1.424 . S
C57 C62 1.245 . S
C57 C63 1.428 . S
C58 C61 1.260 . S
C58 C62 1.477 . S
C58 H76 0.932 . S
C59 C60 1.384 . S
C59 C61 1.479 . S
C59 H77 0.929 . S
C60 C57 1.424 . S
C60 C59 1.384 . S
C60 H78 0.928 . S
C61 C58 1.260 . S
C61 C59 1.479 . S
C62 C57 1.245 . S
C62 C58 1.477 . S
C62 H79 0.932 . S
C63 U46 2.882 . S
C63 C57 1.428 . S
C63 O66 1.301 . S
C63 O67 1.282 . S
O64 U46 2.441 . S
O64 C50 1.249 . S
O65 U46 2.420 . S
O65 C50 1.202 . S
O66 U46 2.455 . S
O66 C63 1.301 . S
O67 U46 2.449 . S
O67 C63 1.282 . S
H68 C41 0.931 . S
H69 C43 0.929 . S
H70 C44 0.930 . S
H71 C45 0.931 . S
H72 C52 0.932 . S
H73 C53 0.930 . S
H74 C54 0.929 . S
H75 C56 0.930 . S
H76 C58 0.932 . S
H77 C59 0.929 . S
H78 C60 0.928 . S
H79 C62 0.932 . S
C80 C81 1.264 . S
C80 C85 1.479 . S
C80 C90 1.465 . S
C81 C80 1.264 . S
C81 C83 1.339 . S
C81 H108 0.931 . S
C82 C83 1.395 . S
C82 C84 1.320 . S
C83 C81 1.339 . S
C83 C82 1.395 . S
C83 H109 0.929 . S
C84 C82 1.320 . S
C84 C85 1.405 . S
C84 H110 0.930 . S
C85 C80 1.479 . S
C85 C84 1.405 . S
C85 H111 0.931 . S
U86 O87 2.454 . S
U86 O88 2.458 . S
U86 C89 2.984 . S
U86 C90 2.847 . S
U86 C103 2.882 . S
U86 O104 2.441 . S
U86 O105 2.420 . S
U86 O106 2.455 . S
U86 O107 2.449 . S
O87 U86 2.454 . S
O87 C89 1.353 . S
O88 U86 2.458 . S
O88 C89 1.286 . S
C89 U86 2.984 . S
C89 O87 1.353 . S
C89 O88 1.286 . S
C89 C91 1.363 . S
C90 C80 1.465 . S
C90 U86 2.847 . S
C90 O104 1.249 . S
C90 O105 1.202 . S
C91 C89 1.363 . S
C91 C93 1.408 . S
C91 C96 1.342 . S
C92 C93 1.310 . S
C92 C95 1.461 . S
C92 H112 0.932 . S
C93 C91 1.408 . S
C93 C92 1.310 . S
C93 H113 0.930 . S
C94 C95 1.474 . S
C94 C96 1.285 . S
C94 H114 0.929 . S
C95 C92 1.461 . S
C95 C94 1.474 . S
C96 C91 1.342 . S
C96 C94 1.285 . S
C96 H115 0.930 . S
C97 C100 1.424 . S
C97 C102 1.245 . S
C97 C103 1.428 . S
C98 C101 1.260 . S
C98 C102 1.477 . S
C98 H116 0.932 . S
C99 C100 1.384 . S
C99 C101 1.479 . S
C99 H117 0.929 . S
C100 C97 1.424 . S
C100 C99 1.384 . S
C100 H118 0.928 . S
C101 C98 1.260 . S
C101 C99 1.479 . S
C102 C97 1.245 . S
C102 C98 1.477 . S
C102 H119 0.932 . S
C103 U86 2.882 . S
C103 C97 1.428 . S
C103 O106 1.301 . S
C103 O107 1.282 . S
O104 U86 2.441 . S
O104 C90 1.249 . S
O105 U86 2.420 . S
O105 C90 1.202 . S
O106 U86 2.455 . S
O106 C103 1.301 . S
O107 U86 2.449 . S
O107 C103 1.282 . S
H108 C81 0.931 . S
H109 C83 0.929 . S
H110 C84 0.930 . S
H111 C85 0.931 . S
H112 C92 0.932 . S
H113 C93 0.930 . S
H114 C94 0.929 . S
H115 C96 0.930 . S
H116 C98 0.932 . S
H117 C99 0.929 . S
H118 C100 0.928 . S
H119 C102 0.932 . S
C120 C121 1.264 . S
C120 C125 1.479 . S
C120 C130 1.465 . S
C121 C120 1.264 . S
C121 C123 1.339 . S
C121 H148 0.931 . S
C122 C123 1.395 . S
C122 C124 1.320 . S
C123 C121 1.339 . S
C123 C122 1.395 . S
C123 H149 0.929 . S
C124 C122 1.320 . S
C124 C125 1.405 . S
C124 H150 0.930 . S
C125 C120 1.479 . S
C125 C124 1.405 . S
C125 H151 0.931 . S
U126 O127 2.454 . S
U126 O128 2.458 . S
U126 C129 2.984 . S
U126 C130 2.847 . S
U126 C143 2.882 . S
U126 O144 2.441 . S
U126 O145 2.420 . S
U126 O146 2.455 . S
U126 O147 2.449 . S
O127 U126 2.454 . S
O127 C129 1.353 . S
O128 U126 2.458 . S
O128 C129 1.286 . S
C129 U126 2.984 . S
C129 O127 1.353 . S
C129 O128 1.286 . S
C129 C131 1.363 . S
C130 C120 1.465 . S
C130 U126 2.847 . S
C130 O144 1.249 . S
C130 O145 1.202 . S
C131 C129 1.363 . S
C131 C133 1.408 . S
C131 C136 1.342 . S
C132 C133 1.310 . S
C132 C135 1.486 . S
C132 H152 0.939 1_554 S
C133 C131 1.408 . S
C133 C132 1.310 . S
C133 H153 0.930 . S
C134 C135 1.546 . S
C134 C136 1.285 . S
C134 H154 0.929 . S
C135 C132 1.486 . S
C135 C134 1.546 . S
C136 C131 1.342 . S
C136 C134 1.285 . S
C136 H155 0.930 . S
C137 C140 1.424 . S
C137 C142 1.245 . S
C137 C143 1.428 . S
C138 C141 1.260 . S
C138 C142 1.477 . S
C138 H156 0.932 . S
C139 C140 1.384 . S
C139 C141 1.479 . S
C139 H157 0.929 . S
C140 C137 1.424 . S
C140 C139 1.384 . S
C140 H158 0.928 . S
C141 C138 1.260 . S
C141 C139 1.479 . S
C142 C137 1.245 . S
C142 C138 1.477 . S
C142 H159 0.932 . S
C143 U126 2.882 . S
C143 C137 1.428 . S
C143 O146 1.301 . S
C143 O147 1.282 . S
O144 U126 2.441 . S
O144 C130 1.249 . S
O145 U126 2.420 . S
O145 C130 1.202 . S
O146 U126 2.455 . S
O146 C143 1.301 . S
O147 U126 2.449 . S
O147 C143 1.282 . S
H148 C121 0.931 . S
H149 C123 0.929 . S
H150 C124 0.930 . S
H151 C125 0.931 . S
H152 C132 0.939 1_556 S
H153 C133 0.930 . S
H154 C134 0.929 . S
H155 C136 0.930 . S
H156 C138 0.932 . S
H157 C139 0.929 . S
H158 C140 0.928 . S
H159 C142 0.932 . S
C160 C161 1.264 . S
C160 C165 1.479 . S
C160 C170 1.391 1_655 S
C161 C160 1.264 . S
C161 C163 1.339 . S
C161 H188 0.931 . S
C162 C163 1.395 . S
C162 C164 1.320 . S
C163 C161 1.339 . S
C163 C162 1.395 . S
C163 H189 0.929 . S
C164 C162 1.320 . S
C164 C165 1.405 . S
C164 H190 0.930 . S
C165 C160 1.479 . S
C165 C164 1.405 . S
C165 H191 0.931 . S
U166 O167 2.454 . S
U166 O168 2.458 . S
U166 C169 2.984 . S
U166 C170 2.931 . S
U166 C183 2.882 . S
U166 O184 2.441 . S
U166 O185 2.420 . S
U166 O186 2.455 . S
U166 O187 2.449 . S
O167 U166 2.454 . S
O167 C169 1.353 . S
O168 U166 2.458 . S
O168 C169 1.286 . S
C169 U166 2.984 . S
C169 O167 1.353 . S
C169 O168 1.286 . S
C169 C171 1.363 . S
C170 C160 1.391 1_455 S
C170 U166 2.931 . S
C170 O184 1.273 . S
C170 O185 1.267 . S
C171 C169 1.363 . S
C171 C173 1.408 . S
C171 C176 1.342 . S
C172 C173 1.310 . S
C172 C175 1.461 . S
C172 H192 0.932 . S
C173 C171 1.408 . S
C173 C172 1.310 . S
C173 H193 0.930 . S
C174 C175 1.474 . S
C174 C176 1.285 . S
C174 H194 0.929 . S
C175 C172 1.461 . S
C175 C174 1.474 . S
C176 C171 1.342 . S
C176 C174 1.285 . S
C176 H195 0.930 . S
C177 C180 1.424 . S
C177 C182 1.245 . S
C177 C183 1.428 . S
C178 C181 1.260 . S
C178 C182 1.477 . S
C178 H196 0.932 . S
C179 C180 1.384 . S
C179 C181 1.479 . S
C179 H197 0.929 . S
C180 C177 1.424 . S
C180 C179 1.384 . S
C180 H198 0.928 . S
C181 C178 1.260 . S
C181 C179 1.479 . S
C182 C177 1.245 . S
C182 C178 1.477 . S
C182 H199 0.932 . S
C183 U166 2.882 . S
C183 C177 1.428 . S
C183 O186 1.301 . S
C183 O187 1.282 . S
O184 U166 2.441 . S
O184 C170 1.273 . S
O185 U166 2.420 . S
O185 C170 1.267 . S
O186 U166 2.455 . S
O186 C183 1.301 . S
O187 U166 2.449 . S
O187 C183 1.282 . S
H188 C161 0.931 . S
H189 C163 0.929 . S
H190 C164 0.930 . S
H191 C165 0.931 . S
H192 C172 0.932 . S
H193 C173 0.930 . S
H194 C174 0.929 . S
H195 C176 0.930 . S
H196 C178 0.932 . S
H197 C179 0.929 . S
H198 C180 0.928 . S
H199 C182 0.932 . S
C200 C201 1.264 . S
C200 C205 1.479 . S
C200 C210 1.465 . S
C201 C200 1.264 . S
C201 C203 1.339 . S
C201 H228 0.931 . S
C202 C203 1.395 . S
C202 C204 1.320 . S
C203 C201 1.339 . S
C203 C202 1.395 . S
C203 H229 0.929 . S
C204 C202 1.320 . S
C204 C205 1.405 . S
C204 H230 0.930 . S
C205 C200 1.479 . S
C205 C204 1.405 . S
C205 H231 0.931 . S
U206 O207 2.454 . S
U206 O208 2.458 . S
U206 C209 2.984 . S
U206 C210 2.847 . S
U206 C223 2.882 . S
U206 O224 2.441 . S
U206 O225 2.420 . S
U206 O226 2.455 . S
U206 O227 2.449 . S
O207 U206 2.454 . S
O207 C209 1.353 . S
O208 U206 2.458 . S
O208 C209 1.286 . S
C209 U206 2.984 . S
C209 O207 1.353 . S
C209 O208 1.286 . S
C209 C211 1.363 . S
C210 C200 1.465 . S
C210 U206 2.847 . S
C210 O224 1.249 . S
C210 O225 1.202 . S
C211 C209 1.363 . S
C211 C213 1.408 . S
C211 C216 1.342 . S
C212 C213 1.310 . S
C212 C215 1.461 . S
C212 H232 0.932 . S
C213 C211 1.408 . S
C213 C212 1.310 . S
C213 H233 0.930 . S
C214 C215 1.474 . S
C214 C216 1.285 . S
C214 H234 0.929 . S
C215 C212 1.461 . S
C215 C214 1.474 . S
C216 C211 1.342 . S
C216 C214 1.285 . S
C216 H235 0.930 . S
C217 C220 1.424 . S
C217 C222 1.245 . S
C217 C223 1.428 . S
C218 C221 1.260 . S
C218 C222 1.477 . S
C218 H236 0.932 . S
C219 C220 1.384 . S
C219 C221 1.479 . S
C219 H237 0.929 . S
C220 C217 1.424 . S
C220 C219 1.384 . S
C220 H238 0.928 . S
C221 C218 1.260 . S
C221 C219 1.479 . S
C222 C217 1.245 . S
C222 C218 1.477 . S
C222 H239 0.932 . S
C223 U206 2.882 . S
C223 C217 1.428 . S
C223 O226 1.301 . S
C223 O227 1.282 . S
O224 U206 2.441 . S
O224 C210 1.249 . S
O225 U206 2.420 . S
O225 C210 1.202 . S
O226 U206 2.455 . S
O226 C223 1.301 . S
O227 U206 2.449 . S
O227 C223 1.282 . S
H228 C201 0.931 . S
H229 C203 0.929 . S
H230 C204 0.930 . S
H231 C205 0.931 . S
H232 C212 0.932 . S
H233 C213 0.930 . S
H234 C214 0.929 . S
H235 C216 0.930 . S
H236 C218 0.932 . S
H237 C219 0.929 . S
H238 C220 0.928 . S
H239 C222 0.932 . S
C240 C241 1.264 . S
C240 C245 1.479 . S
C240 C250 1.465 . S
C241 C240 1.264 . S
C241 C243 1.339 . S
C241 H268 0.931 . S
C242 C243 1.395 . S
C242 C244 1.320 . S
C243 C241 1.339 . S
C243 C242 1.395 . S
C243 H269 0.929 . S
C244 C242 1.320 . S
C244 C245 1.405 . S
C244 H270 0.930 . S
C245 C240 1.479 . S
C245 C244 1.405 . S
C245 H271 0.931 . S
U246 O247 2.454 . S
U246 O248 2.458 . S
U246 C249 2.984 . S
U246 C250 2.847 . S
U246 C263 2.882 . S
U246 O264 2.441 . S
U246 O265 2.420 . S
U246 O266 2.455 . S
U246 O267 2.449 . S
O247 U246 2.454 . S
O247 C249 1.353 . S
O248 U246 2.458 . S
O248 C249 1.286 . S
C249 U246 2.984 . S
C249 O247 1.353 . S
C249 O248 1.286 . S
C249 C251 1.363 . S
C250 C240 1.465 . S
C250 U246 2.847 . S
C250 O264 1.249 . S
C250 O265 1.202 . S
C251 C249 1.363 . S
C251 C253 1.408 . S
C251 C256 1.342 . S
C252 C253 1.310 . S
C252 C255 1.461 . S
C252 H272 0.932 . S
C253 C251 1.408 . S
C253 C252 1.310 . S
C253 H273 0.930 . S
C254 C255 1.474 . S
C254 C256 1.285 . S
C254 H274 0.929 . S
C255 C252 1.461 . S
C255 C254 1.474 . S
C256 C251 1.342 . S
C256 C254 1.285 . S
C256 H275 0.930 . S
C257 C260 1.424 . S
C257 C262 1.245 . S
C257 C263 1.428 . S
C258 C261 1.260 . S
C258 C262 1.477 . S
C258 H276 0.932 . S
C259 C260 1.384 . S
C259 C261 1.479 . S
C259 H277 0.929 . S
C260 C257 1.424 . S
C260 C259 1.384 . S
C260 H278 0.928 . S
C261 C258 1.260 . S
C261 C259 1.479 . S
C262 C257 1.245 . S
C262 C258 1.477 . S
C262 H279 0.932 . S
C263 U246 2.882 . S
C263 C257 1.428 . S
C263 O266 1.301 . S
C263 O267 1.282 . S
O264 U246 2.441 . S
O264 C250 1.249 . S
O265 U246 2.420 . S
O265 C250 1.202 . S
O266 U246 2.455 . S
O266 C263 1.301 . S
O267 U246 2.449 . S
O267 C263 1.282 . S
H268 C241 0.931 . S
H269 C243 0.929 . S
H270 C244 0.930 . S
H271 C245 0.931 . S
H272 C252 0.932 . S
H273 C253 0.930 . S
H274 C254 0.929 . S
H275 C256 0.930 . S
H276 C258 0.932 . S
H277 C259 0.929 . S
H278 C260 0.928 . S
H279 C262 0.932 . S
C280 C281 1.264 . S
C280 C285 1.479 1_556 S
C280 C290 1.465 . S
C281 C280 1.264 . S
C281 C283 1.339 1_556 S
C281 H308 0.931 . S
C282 C283 1.395 . S
C282 C284 1.320 . S
C283 C281 1.339 1_554 S
C283 C282 1.395 . S
C283 H309 0.929 . S
C284 C282 1.320 . S
C284 C285 1.405 . S
C284 H310 0.930 . S
C285 C280 1.479 1_554 S
C285 C284 1.405 . S
C285 H311 0.931 . S
U286 O287 2.454 . S
U286 O288 2.458 . S
U286 C289 2.984 . S
U286 C290 2.847 . S
U286 C303 2.882 . S
U286 O304 2.441 . S
U286 O305 2.420 . S
U286 O306 2.455 . S
U286 O307 2.449 . S
O287 U286 2.454 . S
O287 C289 1.353 . S
O288 U286 2.458 . S
O288 C289 1.286 . S
C289 U286 2.984 . S
C289 O287 1.353 . S
C289 O288 1.286 . S
C289 C291 1.363 . S
C290 C280 1.465 . S
C290 U286 2.847 . S
C290 O304 1.249 . S
C290 O305 1.202 . S
C291 C289 1.363 . S
C291 C293 1.408 . S
C291 C296 1.342 . S
C292 C293 1.310 . S
C292 C295 1.461 . S
C292 H312 0.932 . S
C293 C291 1.408 . S
C293 C292 1.310 . S
C293 H313 0.930 . S
C294 C295 1.474 . S
C294 C296 1.285 . S
C294 H314 0.929 . S
C295 C292 1.461 . S
C295 C294 1.474 . S
C296 C291 1.342 . S
C296 C294 1.285 . S
C296 H315 0.930 . S
C297 C300 1.424 . S
C297 C302 1.245 . S
C297 C303 1.428 . S
C298 C301 1.260 . S
C298 C302 1.477 . S
C298 H316 0.932 . S
C299 C300 1.384 . S
C299 C301 1.479 . S
C299 H317 0.929 . S
C300 C297 1.424 . S
C300 C299 1.384 . S
C300 H318 0.928 . S
C301 C298 1.260 . S
C301 C299 1.479 . S
C302 C297 1.245 . S
C302 C298 1.477 . S
C302 H319 0.932 . S
C303 U286 2.882 . S
C303 C297 1.428 . S
C303 O306 1.301 . S
C303 O307 1.282 . S
O304 U286 2.441 . S
O304 C290 1.249 . S
O305 U286 2.420 . S
O305 C290 1.202 . S
O306 U286 2.455 . S
O306 C303 1.301 . S
O307 U286 2.449 . S
O307 C303 1.282 . S
H308 C281 0.931 . S
H309 C283 0.929 . S
H310 C284 0.930 . S
H311 C285 0.931 . S
H312 C292 0.932 . S
H313 C293 0.930 . S
H314 C294 0.929 . S
H315 C296 0.930 . S
H316 C298 0.932 . S
H317 C299 0.929 . S
H318 C300 0.928 . S
H319 C302 0.932 . S
C320 C321 1.264 . S
C320 C325 1.479 1_545 S
C320 C330 1.465 . S
C321 C320 1.264 . S
C321 C323 1.339 . S
C321 H348 0.931 . S
C322 C323 1.395 . S
C322 C324 1.220 1_545 S
C323 C321 1.339 . S
C323 C322 1.395 . S
C323 H349 0.929 . S
C324 C322 1.220 1_565 S
C324 C325 1.445 . S
C324 H350 0.998 . S
C325 C320 1.479 1_565 S
C325 C324 1.445 . S
C325 H351 0.931 . S
U326 O327 2.450 1_545 S
U326 O328 2.455 1_545 S
U326 C329 2.981 1_545 S
U326 C330 2.848 . S
U326 C343 2.885 . S
U326 O344 2.440 1_545 S
U326 O345 2.423 . S
U326 O346 2.456 . S
U326 O347 2.453 . S
O327 U326 2.450 1_565 S
O327 C329 1.353 . S
O328 U326 2.455 1_565 S
O328 C329 1.286 . S
C329 U326 2.981 1_565 S
C329 O327 1.353 . S
C329 O328 1.286 . S
C329 C331 1.363 . S
C330 C320 1.465 . S
C330 U326 2.848 . S
C330 O344 1.249 1_545 S
C330 O345 1.202 . S
C331 C329 1.363 . S
C331 C333 1.408 . S
C331 C336 1.342 . S
C332 C333 1.310 . S
C332 C335 1.461 . S
C332 H352 0.932 . S
C333 C331 1.408 . S
C333 C332 1.310 . S
C333 H353 0.930 . S
C334 C335 1.474 . S
C334 C336 1.285 . S
C334 H354 0.929 . S
C335 C332 1.461 . S
C335 C334 1.474 . S
C336 C331 1.342 . S
C336 C334 1.285 . S
C336 H355 0.930 . S
C337 C340 1.424 . S
C337 C342 1.245 . S
C337 C343 1.428 . S
C338 C341 1.260 . S
C338 C342 1.477 . S
C338 H356 0.932 . S
C339 C340 1.384 . S
C339 C341 1.479 . S
C339 H357 0.929 . S
C340 C337 1.424 . S
C340 C339 1.384 . S
C340 H358 0.928 . S
C341 C338 1.260 . S
C341 C339 1.479 . S
C342 C337 1.245 . S
C342 C338 1.477 . S
C342 H359 0.932 . S
C343 U326 2.885 . S
C343 C337 1.428 . S
C343 O346 1.301 . S
C343 O347 1.282 . S
O344 U326 2.440 1_565 S
O344 C330 1.249 1_565 S
O345 U326 2.423 . S
O345 C330 1.202 . S
O346 U326 2.456 . S
O346 C343 1.301 . S
O347 U326 2.453 . S
O347 C343 1.282 . S
H348 C321 0.931 . S
H349 C323 0.929 . S
H350 C324 0.998 . S
H351 C325 0.931 . S
H352 C332 0.932 . S
H353 C333 0.930 . S
H354 C334 0.929 . S
H355 C336 0.930 . S
H356 C338 0.932 . S
H357 C339 0.929 . S
H358 C340 0.928 . S
H359 C342 0.932 . S
C360 C361 1.264 . S
C360 C365 1.479 . S
C360 C370 1.465 . S
C361 C360 1.264 . S
C361 C363 1.339 . S
C361 H388 0.931 . S
C362 C363 1.395 . S
C362 C364 1.320 . S
C363 C361 1.339 . S
C363 C362 1.395 . S
C363 H389 0.929 . S
C364 C362 1.320 . S
C364 C365 1.405 . S
C364 H390 0.930 . S
C365 C360 1.479 . S
C365 C364 1.405 . S
C365 H391 0.931 . S
U366 O367 2.454 . S
U366 O368 2.458 . S
U366 C369 2.984 . S
U366 C370 2.847 1_545 S
U366 C383 2.882 . S
U366 O384 2.441 1_545 S
U366 O385 2.420 1_545 S
U366 O386 2.455 . S
U366 O387 2.449 . S
O367 U366 2.454 . S
O367 C369 1.353 . S
O368 U366 2.458 . S
O368 C369 1.286 . S
C369 U366 2.984 . S
C369 O367 1.353 . S
C369 O368 1.286 . S
C369 C371 1.363 . S
C370 C360 1.465 . S
C370 U366 2.847 1_565 S
C370 O384 1.249 . S
C370 O385 1.202 . S
C371 C369 1.363 . S
C371 C373 1.408 . S
C371 C376 1.342 . S
C372 C373 1.310 . S
C372 C375 1.461 . S
C372 H392 0.932 . S
C373 C371 1.408 . S
C373 C372 1.310 . S
C373 H393 0.930 . S
C374 C375 1.474 . S
C374 C376 1.285 . S
C374 H394 0.929 . S
C375 C372 1.461 . S
C375 C374 1.474 . S
C376 C371 1.342 . S
C376 C374 1.285 . S
C376 H395 0.930 . S
C377 C380 1.424 . S
C377 C382 1.245 . S
C377 C383 1.428 . S
C378 C381 1.260 . S
C378 C382 1.477 . S
C378 H396 0.932 . S
C379 C380 1.384 . S
C379 C381 1.479 . S
C379 H397 0.929 . S
C380 C377 1.424 . S
C380 C379 1.384 . S
C380 H398 0.928 . S
C381 C378 1.260 . S
C381 C379 1.479 . S
C382 C377 1.245 . S
C382 C378 1.477 . S
C382 H399 0.932 . S
C383 U366 2.882 . S
C383 C377 1.428 . S
C383 O386 1.301 . S
C383 O387 1.282 . S
O384 U366 2.441 1_565 S
O384 C370 1.249 . S
O385 U366 2.420 1_565 S
O385 C370 1.202 . S
O386 U366 2.455 . S
O386 C383 1.301 . S
O387 U366 2.449 . S
O387 C383 1.282 . S
H388 C361 0.931 . S
H389 C363 0.929 . S
H390 C364 0.930 . S
H391 C365 0.931 . S
H392 C372 0.932 . S
H393 C373 0.930 . S
H394 C374 0.929 . S
H395 C376 0.930 . S
H396 C378 0.932 . S
H397 C379 0.929 . S
H398 C380 0.928 . S
H399 C382 0.932 . S
C400 C401 1.264 . S
C400 C405 1.479 . S
C400 C410 1.465 1_545 S
C401 C400 1.264 . S
C401 C403 1.339 . S
C401 H428 0.931 . S
C402 C403 1.395 . S
C402 C404 1.320 . S
C403 C401 1.339 . S
C403 C402 1.395 . S
C403 H429 0.929 . S
C404 C402 1.320 . S
C404 C405 1.405 . S
C404 H430 0.930 . S
C405 C400 1.479 . S
C405 C404 1.405 . S
C405 H431 0.931 . S
U406 O407 2.454 . S
U406 O408 2.458 . S
U406 C409 2.984 . S
U406 C410 2.847 . S
U406 C423 2.882 . S
U406 O424 2.441 . S
U406 O425 2.420 . S
U406 O426 2.455 . S
U406 O427 2.449 . S
O407 U406 2.454 . S
O407 C409 1.353 . S
O408 U406 2.458 . S
O408 C409 1.286 . S
C409 U406 2.984 . S
C409 O407 1.353 . S
C409 O408 1.286 . S
C409 C411 1.363 . S
C410 C400 1.465 1_565 S
C410 U406 2.847 . S
C410 O424 1.249 . S
C410 O425 1.202 . S
C411 C409 1.363 . S
C411 C413 1.408 . S
C411 C416 1.342 . S
C412 C413 1.310 . S
C412 C415 1.461 . S
C412 H432 0.932 . S
C413 C411 1.408 . S
C413 C412 1.310 . S
C413 H433 0.930 . S
C414 C415 1.474 . S
C414 C416 1.285 . S
C414 H434 0.929 . S
C415 C412 1.461 . S
C415 C414 1.474 . S
C416 C411 1.342 . S
C416 C414 1.285 . S
C416 H435 0.930 . S
C417 C420 1.424 . S
C417 C422 1.245 . S
C417 C423 1.428 . S
C418 C421 1.260 . S
C418 C422 1.477 . S
C418 H436 0.932 . S
C419 C420 1.384 . S
C419 C421 1.479 . S
C419 H437 0.929 . S
C420 C417 1.424 . S
C420 C419 1.384 . S
C420 H438 0.928 . S
C421 C418 1.260 . S
C421 C419 1.479 . S
C422 C417 1.245 . S
C422 C418 1.477 . S
C422 H439 0.932 . S
C423 U406 2.882 . S
C423 C417 1.428 . S
C423 O426 1.301 . S
C423 O427 1.282 . S
O424 U406 2.441 . S
O424 C410 1.249 . S
O425 U406 2.420 . S
O425 C410 1.202 . S
O426 U406 2.455 . S
O426 C423 1.301 . S
O427 U406 2.449 . S
O427 C423 1.282 . S
H428 C401 0.931 . S
H429 C403 0.929 . S
H430 C404 0.930 . S
H431 C405 0.931 . S
H432 C412 0.932 . S
H433 C413 0.930 . S
H434 C414 0.929 . S
H435 C416 0.930 . S
H436 C418 0.932 . S
H437 C419 0.929 . S
H438 C420 0.928 . S
H439 C422 0.932 . S
C440 C441 1.264 . S
C440 C445 1.479 . S
C440 C450 1.465 . S
C441 C440 1.264 . S
C441 C443 1.339 . S
C441 H468 0.931 . S
C442 C443 1.395 . S
C442 C444 1.320 . S
C443 C441 1.339 . S
C443 C442 1.395 . S
C443 H469 0.929 . S
C444 C442 1.320 . S
C444 C445 1.405 . S
C444 H470 0.968 . S
C445 C440 1.479 . S
C445 C444 1.405 . S
C445 H471 0.931 1_565 S
U446 O447 2.441 1_565 S
U446 O448 2.449 1_565 S
U446 C449 2.973 1_565 S
U446 C450 2.849 . S
U446 C463 2.892 . S
U446 O464 2.437 1_565 S
U446 O465 2.427 . S
U446 O466 2.460 . S
U446 O467 2.461 . S
O447 U446 2.441 1_545 S
O447 C449 1.353 . S
O448 U446 2.449 1_545 S
O448 C449 1.286 . S
C449 U446 2.973 1_545 S
C449 O447 1.353 . S
C449 O448 1.286 . S
C449 C451 1.363 . S
C450 C440 1.465 . S
C450 U446 2.849 . S
C450 O464 1.249 1_565 S
C450 O465 1.202 . S
C451 C449 1.363 . S
C451 C453 1.408 . S
C451 C456 1.342 . S
C452 C453 1.310 . S
C452 C455 1.461 . S
C452 H472 0.932 . S
C453 C451 1.408 . S
C453 C452 1.310 . S
C453 H473 0.930 . S
C454 C455 1.474 . S
C454 C456 1.285 . S
C454 H474 0.929 . S
C455 C452 1.461 . S
C455 C454 1.474 . S
C456 C451 1.342 . S
C456 C454 1.285 . S
C456 H475 0.930 . S
C457 C460 1.424 . S
C457 C462 1.245 . S
C457 C463 1.428 . S
C458 C461 1.260 . S
C458 C462 1.477 . S
C458 H476 0.932 . S
C459 C460 1.384 . S
C459 C461 1.479 . S
C459 H477 0.929 . S
C460 C457 1.424 . S
C460 C459 1.384 . S
C460 H478 0.928 . S
C461 C458 1.260 . S
C461 C459 1.479 . S
C462 C457 1.245 . S
C462 C458 1.477 . S
C462 H479 0.932 . S
C463 U446 2.892 . S
C463 C457 1.428 . S
C463 O466 1.301 . S
C463 O467 1.282 . S
O464 U446 2.437 1_545 S
O464 C450 1.249 1_545 S
O465 U446 2.427 . S
O465 C450 1.202 . S
O466 U446 2.460 . S
O466 C463 1.301 . S
O467 U446 2.461 . S
O467 C463 1.282 . S
H468 C441 0.931 . S
H469 C443 0.929 . S
H470 C444 0.968 . S
H471 C445 0.931 1_545 S
H472 C452 0.932 . S
H473 C453 0.930 . S
H474 C454 0.929 . S
H475 C456 0.930 . S
H476 C458 0.932 . S
H477 C459 0.929 . S
H478 C460 0.928 . S
H479 C462 0.932 . S
C480 C481 1.264 . S
C480 C485 1.479 . S
C480 C490 1.465 . S
C481 C480 1.264 . S
C481 C483 1.339 . S
C481 H508 0.931 . S
C482 C483 1.395 . S
C482 C484 1.320 . S
C483 C481 1.339 . S
C483 C482 1.395 . S
C483 H509 0.929 . S
C484 C482 1.320 . S
C484 C485 1.405 . S
C484 H510 0.930 . S
C485 C480 1.479 . S
C485 C484 1.405 . S
C485 H511 0.931 . S
U486 O487 2.454 . S
U486 O488 2.458 . S
U486 C489 2.984 . S
U486 C490 2.847 . S
U486 C503 2.882 . S
U486 O504 2.441 . S
U486 O505 2.420 . S
U486 O506 2.455 . S
U486 O507 2.449 . S
O487 U486 2.454 . S
O487 C489 1.353 . S
O488 U486 2.458 . S
O488 C489 1.286 . S
C489 U486 2.984 . S
C489 O487 1.353 . S
C489 O488 1.286 . S
C489 C491 1.363 . S
C490 C480 1.465 . S
C490 U486 2.847 . S
C490 O504 1.249 . S
C490 O505 1.202 . S
C491 C489 1.363 . S
C491 C493 1.471 . S
C491 C496 1.342 . S
C492 C493 1.218 1_556 S
C492 C495 1.461 . S
C492 H512 0.932 . S
C493 C491 1.471 . S
C493 C492 1.218 1_554 S
C493 H513 0.965 . S
C494 C495 1.474 . S
C494 C496 1.285 1_556 S
C494 H514 0.929 . S
C495 C492 1.461 . S
C495 C494 1.474 . S
C496 C491 1.342 . S
C496 C494 1.285 1_554 S
C496 H515 0.930 . S
C497 C500 1.424 . S
C497 C502 1.245 . S
C497 C503 1.428 . S
C498 C501 1.260 . S
C498 C502 1.477 . S
C498 H516 0.932 . S
C499 C500 1.384 . S
C499 C501 1.479 . S
C499 H517 0.929 . S
C500 C497 1.424 . S
C500 C499 1.384 . S
C500 H518 0.928 . S
C501 C498 1.260 . S
C501 C499 1.479 . S
C502 C497 1.245 . S
C502 C498 1.477 . S
C502 H519 0.932 . S
C503 U486 2.882 . S
C503 C497 1.428 . S
C503 O506 1.301 . S
C503 O507 1.282 . S
O504 U486 2.441 . S
O504 C490 1.249 . S
O505 U486 2.420 . S
O505 C490 1.202 . S
O506 U486 2.455 . S
O506 C503 1.301 . S
O507 U486 2.449 . S
O507 C503 1.282 . S
H508 C481 0.931 . S
H509 C483 0.929 . S
H510 C484 0.930 . S
H511 C485 0.931 . S
H512 C492 0.932 . S
H513 C493 0.965 . S
H514 C494 0.929 . S
H515 C496 0.930 . S
H516 C498 0.932 . S
H517 C499 0.929 . S
H518 C500 0.928 . S
H519 C502 0.932 . S
C520 C521 1.264 . S
C520 C525 1.479 . S
C520 C530 1.465 . S
C521 C520 1.264 . S
C521 C523 1.339 . S
C521 H548 0.931 . S
C522 C523 1.395 . S
C522 C524 1.320 . S
C523 C521 1.339 . S
C523 C522 1.395 . S
C523 H549 0.929 . S
C524 C522 1.320 . S
C524 C525 1.405 . S
C524 H550 0.930 . S
C525 C520 1.479 . S
C525 C524 1.405 . S
C525 H551 0.931 . S
U526 O527 2.454 . S
U526 O528 2.458 . S
U526 C529 2.984 . S
U526 C530 2.847 1_655 S
U526 C543 2.882 . S
U526 O544 2.441 1_655 S
U526 O545 2.420 1_655 S
U526 O546 2.455 . S
U526 O547 2.449 . S
O527 U526 2.454 . S
O527 C529 1.353 . S
O528 U526 2.458 . S
O528 C529 1.286 . S
C529 U526 2.984 . S
C529 O527 1.353 . S
C529 O528 1.286 . S
C529 C531 1.363 . S
C530 C520 1.465 . S
C530 U526 2.847 1_455 S
C530 O544 1.249 . S
C530 O545 1.202 . S
C531 C529 1.363 . S
C531 C533 1.408 . S
C531 C536 1.342 . S
C532 C533 1.310 . S
C532 C535 1.461 . S
C532 H552 0.932 . S
C533 C531 1.408 . S
C533 C532 1.310 . S
C533 H553 0.930 1_655 S
C534 C535 1.474 . S
C534 C536 1.285 . S
C534 H554 0.929 . S
C535 C532 1.461 . S
C535 C534 1.474 . S
C536 C531 1.342 . S
C536 C534 1.285 . S
C536 H555 0.930 . S
C537 C540 1.424 . S
C537 C542 1.245 . S
C537 C543 1.428 . S
C538 C541 1.260 . S
C538 C542 1.477 . S
C538 H556 0.932 . S
C539 C540 1.384 . S
C539 C541 1.479 . S
C539 H557 0.929 . S
C540 C537 1.424 . S
C540 C539 1.384 . S
C540 H558 0.928 . S
C541 C538 1.260 . S
C541 C539 1.479 . S
C542 C537 1.245 . S
C542 C538 1.477 . S
C542 H559 0.932 . S
C543 U526 2.882 . S
C543 C537 1.428 . S
C543 O546 1.301 . S
C543 O547 1.282 . S
O544 U526 2.441 1_455 S
O544 C530 1.249 . S
O545 U526 2.420 1_455 S
O545 C530 1.202 . S
O546 U526 2.455 . S
O546 C543 1.301 . S
O547 U526 2.449 . S
O547 C543 1.282 . S
H548 C521 0.931 . S
H549 C523 0.929 . S
H550 C524 0.930 . S
H551 C525 0.931 . S
H552 C532 0.932 . S
H553 C533 0.930 1_455 S
H554 C534 0.929 . S
H555 C536 0.930 . S
H556 C538 0.932 . S
H557 C539 0.929 . S
H558 C540 0.928 . S
H559 C542 0.932 . S
C560 C561 1.264 . S
C560 C565 1.479 . S
C560 C570 1.465 . S
C561 C560 1.264 . S
C561 C563 1.339 . S
C561 H588 0.931 . S
C562 C563 1.395 . S
C562 C564 1.320 . S
C563 C561 1.339 . S
C563 C562 1.395 . S
C563 H589 0.929 . S
C564 C562 1.320 . S
C564 C565 1.405 . S
C564 H590 0.930 . S
C565 C560 1.479 . S
C565 C564 1.405 . S
C565 H591 0.931 . S
U566 O567 2.454 . S
U566 O568 2.458 . S
U566 C569 2.984 . S
U566 C570 2.847 . S
U566 C583 2.882 . S
U566 O584 2.441 . S
U566 O585 2.420 . S
U566 O586 2.455 . S
U566 O587 2.449 . S
O567 U566 2.454 . S
O567 C569 1.353 . S
O568 U566 2.458 . S
O568 C569 1.286 . S
C569 U566 2.984 . S
C569 O567 1.353 . S
C569 O568 1.286 . S
C569 C571 1.363 . S
C570 C560 1.465 . S
C570 U566 2.847 . S
C570 O584 1.249 . S
C570 O585 1.202 . S
C571 C569 1.363 . S
C571 C573 1.408 . S
C571 C576 1.342 . S
C572 C573 1.310 . S
C572 C575 1.461 . S
C572 H592 0.932 . S
C573 C571 1.408 . S
C573 C572 1.310 . S
C573 H593 0.930 . S
C574 C575 1.474 . S
C574 C576 1.285 . S
C574 H594 0.929 . S
C575 C572 1.461 . S
C575 C574 1.474 . S
C576 C571 1.342 . S
C576 C574 1.285 . S
C576 H595 0.930 . S
C577 C580 1.424 . S
C577 C582 1.245 . S
C577 C583 1.428 . S
C578 C581 1.260 . S
C578 C582 1.477 . S
C578 H596 0.932 . S
C579 C580 1.384 . S
C579 C581 1.479 . S
C579 H597 0.929 . S
C580 C577 1.424 . S
C580 C579 1.384 . S
C580 H598 0.928 . S
C581 C578 1.260 . S
C581 C579 1.479 . S
C582 C577 1.245 . S
C582 C578 1.477 . S
C582 H599 0.932 . S
C583 U566 2.882 . S
C583 C577 1.428 . S
C583 O586 1.301 . S
C583 O587 1.282 . S
O584 U566 2.441 . S
O584 C570 1.249 . S
O585 U566 2.420 . S
O585 C570 1.202 . S
O586 U566 2.455 . S
O586 C583 1.301 . S
O587 U566 2.449 . S
O587 C583 1.282 . S
H588 C561 0.931 . S
H589 C563 0.929 . S
H590 C564 0.930 . S
H591 C565 0.931 . S
H592 C572 0.932 . S
H593 C573 0.930 . S
H594 C574 0.929 . S
H595 C576 0.930 . S
H596 C578 0.932 . S
H597 C579 0.929 . S
H598 C580 0.928 . S
H599 C582 0.932 . S
C600 C601 1.264 . S
C600 C605 1.479 . S
C600 C610 1.465 . S
C601 C600 1.264 . S
C601 C603 1.339 . S
C601 H628 0.931 . S
C602 C603 1.395 . S
C602 C604 1.320 . S
C603 C601 1.339 . S
C603 C602 1.395 . S
C603 H629 0.929 . S
C604 C602 1.320 . S
C604 C605 1.405 . S
C604 H630 0.930 . S
C605 C600 1.479 . S
C605 C604 1.405 . S
C605 H631 0.931 1_655 S
U606 O607 2.454 . S
U606 O608 2.458 . S
U606 C609 2.984 . S
U606 C610 2.847 1_455 S
U606 C623 2.882 1_455 S
U606 O624 2.441 . S
U606 O625 2.420 1_455 S
U606 O626 2.455 . S
U606 O627 2.449 1_455 S
O607 U606 2.454 . S
O607 C609 1.353 . S
O608 U606 2.458 . S
O608 C609 1.286 . S
C609 U606 2.984 . S
C609 O607 1.353 . S
C609 O608 1.286 . S
C609 C611 1.363 . S
C610 C600 1.465 . S
C610 U606 2.847 1_655 S
C610 O624 1.249 1_655 S
C610 O625 1.202 . S
C611 C609 1.363 . S
C611 C613 1.408 . S
C611 C616 1.342 . S
C612 C613 1.310 . S
C612 C615 1.461 . S
C612 H632 0.932 . S
C613 C611 1.408 . S
C613 C612 1.310 . S
C613 H633 0.930 . S
C614 C615 1.474 . S
C614 C616 1.285 . S
C614 H634 0.929 . S
C615 C612 1.461 . S
C615 C614 1.474 . S
C616 C611 1.342 . S
C616 C614 1.285 . S
C616 H635 0.930 . S
C617 C620 1.424 . S
C617 C622 1.245 . S
C617 C623 1.428 . S
C618 C621 1.260 . S
C618 C622 1.477 . S
C618 H636 0.932 . S
C619 C620 1.384 . S
C619 C621 1.479 . S
C619 H637 0.929 . S
C620 C617 1.424 . S
C620 C619 1.384 . S
C620 H638 0.928 . S
C621 C618 1.260 . S
C621 C619 1.479 . S
C622 C617 1.245 . S
C622 C618 1.477 . S
C622 H639 0.932 . S
C623 U606 2.882 1_655 S
C623 C617 1.428 . S
C623 O626 1.301 1_655 S
C623 O627 1.282 . S
O624 U606 2.441 . S
O624 C610 1.249 1_455 S
O625 U606 2.420 1_655 S
O625 C610 1.202 . S
O626 U606 2.455 . S
O626 C623 1.301 1_455 S
O627 U606 2.449 1_655 S
O627 C623 1.282 . S
H628 C601 0.931 . S
H629 C603 0.929 . S
H630 C604 0.930 . S
H631 C605 0.931 1_455 S
H632 C612 0.932 . S
H633 C613 0.930 . S
H634 C614 0.929 . S
H635 C616 0.930 . S
H636 C618 0.932 . S
H637 C619 0.929 . S
H638 C620 0.928 . S
H639 C622 0.932 . S
C640 C641 1.264 . S
C640 C645 1.479 . S
C640 C650 1.465 . S
C641 C640 1.264 . S
C641 C643 1.339 . S
C641 H668 0.931 . S
C642 C643 1.395 . S
C642 C644 1.320 . S
C643 C641 1.339 . S
C643 C642 1.395 . S
C643 H669 0.929 . S
C644 C642 1.320 . S
C644 C645 1.405 . S
C644 H670 0.930 . S
C645 C640 1.479 . S
C645 C644 1.405 . S
C645 H671 0.931 . S
U646 O647 2.454 . S
U646 O648 2.458 . S
U646 C649 2.984 . S
U646 C650 2.847 . S
U646 C663 2.882 . S
U646 O664 2.441 . S
U646 O665 2.420 . S
U646 O666 2.455 . S
U646 O667 2.449 . S
O647 U646 2.454 . S
O647 C649 1.353 . S
O648 U646 2.458 . S
O648 C649 1.286 . S
C649 U646 2.984 . S
C649 O647 1.353 . S
C649 O648 1.286 . S
C649 C651 1.363 . S
C650 C640 1.465 . S
C650 U646 2.847 . S
C650 O664 1.249 . S
C650 O665 1.202 . S
C651 C649 1.363 . S
C651 C653 1.408 . S
C651 C656 1.342 . S
C652 C653 1.310 . S
C652 C655 1.461 . S
C652 H672 0.932 . S
C653 C651 1.408 . S
C653 C652 1.310 . S
C653 H673 0.930 . S
C654 C655 1.474 . S
C654 C656 1.285 . S
C654 H674 0.929 . S
C655 C652 1.461 . S
C655 C654 1.474 . S
C656 C651 1.342 . S
C656 C654 1.285 . S
C656 H675 0.930 . S
C657 C660 1.424 . S
C657 C662 1.245 . S
C657 C663 1.428 . S
C658 C661 1.260 . S
C658 C662 1.477 . S
C658 H676 0.932 . S
C659 C660 1.384 . S
C659 C661 1.479 . S
C659 H677 0.929 . S
C660 C657 1.424 . S
C660 C659 1.384 . S
C660 H678 0.928 . S
C661 C658 1.260 . S
C661 C659 1.479 . S
C662 C657 1.245 . S
C662 C658 1.477 . S
C662 H679 0.932 . S
C663 U646 2.882 . S
C663 C657 1.428 . S
C663 O666 1.301 . S
C663 O667 1.282 . S
O664 U646 2.441 . S
O664 C650 1.249 . S
O665 U646 2.420 . S
O665 C650 1.202 . S
O666 U646 2.455 . S
O666 C663 1.301 . S
O667 U646 2.449 . S
O667 C663 1.282 . S
H668 C641 0.931 . S
H669 C643 0.929 . S
H670 C644 0.930 . S
H671 C645 0.931 . S
H672 C652 0.932 . S
H673 C653 0.930 . S
H674 C654 0.929 . S
H675 C656 0.930 . S
H676 C658 0.932 . S
H677 C659 0.929 . S
H678 C660 0.928 . S
H679 C662 0.932 . S
C680 C681 1.264 . S
C680 C685 1.479 . S
C680 C690 1.465 . S
C681 C680 1.264 . S
C681 C683 1.339 . S
C681 H708 0.931 . S
C682 C683 1.395 . S
C682 C684 1.320 . S
C683 C681 1.339 . S
C683 C682 1.395 . S
C683 H709 0.929 . S
C684 C682 1.320 . S
C684 C685 1.405 . S
C684 H710 0.930 . S
C685 C680 1.479 . S
C685 C684 1.405 . S
C685 H711 0.931 . S
U686 O687 2.454 . S
U686 O688 2.458 . S
U686 C689 2.984 . S
U686 C690 2.847 . S
U686 C703 2.882 . S
U686 O704 2.441 . S
U686 O705 2.420 . S
U686 O706 2.455 . S
U686 O707 2.449 . S
O687 U686 2.454 . S
O687 C689 1.353 . S
O688 U686 2.458 . S
O688 C689 1.286 . S
C689 U686 2.984 . S
C689 O687 1.353 . S
C689 O688 1.286 . S
C689 C691 1.363 . S
C690 C680 1.465 . S
C690 U686 2.847 . S
C690 O704 1.249 . S
C690 O705 1.202 . S
C691 C689 1.363 . S
C691 C693 1.408 . S
C691 C696 1.342 . S
C692 C693 1.310 . S
C692 C695 1.461 . S
C692 H712 0.932 . S
C693 C691 1.408 . S
C693 C692 1.310 . S
C693 H713 0.930 . S
C694 C695 1.474 . S
C694 C696 1.285 . S
C694 H714 0.929 . S
C695 C692 1.461 . S
C695 C694 1.474 . S
C696 C691 1.342 . S
C696 C694 1.285 . S
C696 H715 0.930 . S
C697 C700 1.424 . S
C697 C702 1.245 . S
C697 C703 1.428 . S
C698 C701 1.260 . S
C698 C702 1.477 . S
C698 H716 0.932 . S
C699 C700 1.384 . S
C699 C701 1.479 . S
C699 H717 0.929 . S
C700 C697 1.424 . S
C700 C699 1.384 . S
C700 H718 0.928 . S
C701 C698 1.260 . S
C701 C699 1.479 . S
C702 C697 1.245 . S
C702 C698 1.477 . S
C702 H719 0.932 . S
C703 U686 2.882 . S
C703 C697 1.428 . S
C703 O706 1.301 . S
C703 O707 1.282 . S
O704 U686 2.441 . S
O704 C690 1.249 . S
O705 U686 2.420 . S
O705 C690 1.202 . S
O706 U686 2.455 . S
O706 C703 1.301 . S
O707 U686 2.449 . S
O707 C703 1.282 . S
H708 C681 0.931 . S
H709 C683 0.929 . S
H710 C684 0.930 . S
H711 C685 0.931 . S
H712 C692 0.932 . S
H713 C693 0.930 . S
H714 C694 0.929 . S
H715 C696 0.930 . S
H716 C698 0.932 . S
H717 C699 0.929 . S
H718 C700 0.928 . S
H719 C702 0.932 . S
C720 C721 1.264 . S
C720 C725 1.479 . S
C720 C730 1.465 . S
C721 C720 1.264 . S
C721 C723 1.339 . S
C721 H748 0.931 . S
C722 C723 1.395 . S
C722 C724 1.320 . S
C723 C721 1.339 . S
C723 C722 1.395 . S
C723 H749 0.929 . S
C724 C722 1.320 . S
C724 C725 1.405 . S
C724 H750 0.930 . S
C725 C720 1.479 . S
C725 C724 1.405 . S
C725 H751 0.931 . S
U726 O727 2.454 . S
U726 O728 2.458 . S
U726 C729 2.984 . S
U726 C730 2.847 . S
U726 C743 2.882 . S
U726 O744 2.441 . S
U726 O745 2.420 . S
U726 O746 2.455 . S
U726 O747 2.449 . S
O727 U726 2.454 . S
O727 C729 1.353 . S
O728 U726 2.458 . S
O728 C729 1.286 . S
C729 U726 2.984 . S
C729 O727 1.353 . S
C729 O728 1.286 . S
C729 C731 1.363 . S
C730 C720 1.465 . S
C730 U726 2.847 . S
C730 O744 1.249 . S
C730 O745 1.202 . S
C731 C729 1.363 . S
C731 C733 1.408 1_556 S
C731 C736 1.342 . S
C732 C733 1.310 . S
C732 C735 1.461 . S
C732 H752 0.932 . S
C733 C731 1.408 1_554 S
C733 C732 1.310 . S
C733 H753 0.930 . S
C734 C735 1.474 . S
C734 C736 1.288 1_554 S
C734 H754 0.929 . S
C735 C732 1.461 . S
C735 C734 1.474 . S
C736 C731 1.342 . S
C736 C734 1.288 1_556 S
C736 H755 0.928 . S
C737 C740 1.424 . S
C737 C742 1.245 . S
C737 C743 1.428 . S
C738 C741 1.260 . S
C738 C742 1.477 . S
C738 H756 0.932 . S
C739 C740 1.384 . S
C739 C741 1.479 . S
C739 H757 0.929 . S
C740 C737 1.424 . S
C740 C739 1.384 . S
C740 H758 0.928 . S
C741 C738 1.260 . S
C741 C739 1.479 . S
C742 C737 1.245 . S
C742 C738 1.477 . S
C742 H759 0.932 . S
C743 U726 2.882 . S
C743 C737 1.428 . S
C743 O746 1.301 . S
C743 O747 1.282 . S
O744 U726 2.441 . S
O744 C730 1.249 . S
O745 U726 2.420 . S
O745 C730 1.202 . S
O746 U726 2.455 . S
O746 C743 1.301 . S
O747 U726 2.449 . S
O747 C743 1.282 . S
H748 C721 0.931 . S
H749 C723 0.929 . S
H750 C724 0.930 . S
H751 C725 0.931 . S
H752 C732 0.932 . S
H753 C733 0.930 . S
H754 C734 0.929 . S
H755 C736 0.928 . S
H756 C738 0.932 . S
H757 C739 0.929 . S
H758 C740 0.928 . S
H759 C742 0.932 . S
C760 C761 1.257 1_655 S
C760 C765 1.452 1_655 S
C760 C770 1.499 . S
C761 C760 1.257 1_455 S
C761 C763 1.339 . S
C761 H788 0.931 1_455 S
C762 C763 1.395 . S
C762 C764 1.320 . S
C763 C761 1.339 . S
C763 C762 1.395 . S
C763 H789 0.929 . S
C764 C762 1.320 . S
C764 C765 1.405 . S
C764 H790 0.930 . S
C765 C760 1.452 1_455 S
C765 C764 1.405 . S
C765 H791 0.931 . S
U766 O767 2.454 . S
U766 O768 2.458 . S
U766 C769 2.984 . S
U766 C770 2.847 . S
U766 C783 2.882 . S
U766 O784 2.441 . S
U766 O785 2.420 . S
U766 O786 2.455 . S
U766 O787 2.449 . S
O767 U766 2.454 . S
O767 C769 1.353 . S
O768 U766 2.458 . S
O768 C769 1.286 . S
C769 U766 2.984 . S
C769 O767 1.353 . S
C769 O768 1.286 . S
C769 C771 1.363 . S
C770 C760 1.499 . S
C770 U766 2.847 . S
C770 O784 1.249 . S
C770 O785 1.202 . S
C771 C769 1.363 . S
C771 C773 1.408 . S
C771 C776 1.342 . S
C772 C773 1.310 . S
C772 C775 1.461 . S
C772 H792 0.932 . S
C773 C771 1.408 . S
C773 C772 1.310 . S
C773 H793 0.930 . S
C774 C775 1.474 . S
C774 C776 1.285 . S
C774 H794 0.929 . S
C775 C772 1.461 . S
C775 C774 1.474 . S
C776 C771 1.342 . S
C776 C774 1.285 . S
C776 H795 0.930 . S
C777 C780 1.424 . S
C777 C782 1.245 . S
C777 C783 1.428 . S
C778 C781 1.260 . S
C778 C782 1.477 . S
C778 H796 0.932 . S
C779 C780 1.384 . S
C779 C781 1.479 . S
C779 H797 0.929 . S
C780 C777 1.424 . S
C780 C779 1.384 . S
C780 H798 0.928 . S
C781 C778 1.260 . S
C781 C779 1.479 . S
C782 C777 1.245 . S
C782 C778 1.477 . S
C782 H799 0.932 . S
C783 U766 2.882 . S
C783 C777 1.428 . S
C783 O786 1.301 . S
C783 O787 1.282 . S
O784 U766 2.441 . S
O784 C770 1.249 . S
O785 U766 2.420 . S
O785 C770 1.202 . S
O786 U766 2.455 . S
O786 C783 1.301 . S
O787 U766 2.449 . S
O787 C783 1.282 . S
H788 C761 0.931 1_655 S
H789 C763 0.929 . S
H790 C764 0.930 . S
H791 C765 0.931 . S
H792 C772 0.932 . S
H793 C773 0.930 . S
H794 C774 0.929 . S
H795 C776 0.930 . S
H796 C778 0.932 . S
H797 C779 0.929 . S
H798 C780 0.928 . S
H799 C782 0.932 . S
C800 C801 1.264 . S
C800 C805 1.479 . S
C800 C810 1.465 . S
C801 C800 1.264 . S
C801 C803 1.339 . S
C801 H828 0.931 . S
C802 C803 1.395 . S
C802 C804 1.320 . S
C803 C801 1.339 . S
C803 C802 1.395 . S
C803 H829 0.929 . S
C804 C802 1.320 . S
C804 C805 1.405 . S
C804 H830 0.930 . S
C805 C800 1.479 . S
C805 C804 1.405 . S
C805 H831 0.931 . S
U806 O807 2.454 . S
U806 O808 2.458 . S
U806 C809 2.984 . S
U806 C810 2.847 . S
U806 C823 2.882 . S
U806 O824 2.441 . S
U806 O825 2.420 . S
U806 O826 2.455 . S
U806 O827 2.449 . S
O807 U806 2.454 . S
O807 C809 1.353 . S
O808 U806 2.458 . S
O808 C809 1.286 . S
C809 U806 2.984 . S
C809 O807 1.353 . S
C809 O808 1.286 . S
C809 C811 1.363 . S
C810 C800 1.465 . S
C810 U806 2.847 . S
C810 O824 1.249 . S
C810 O825 1.202 . S
C811 C809 1.363 . S
C811 C813 1.408 . S
C811 C816 1.342 . S
C812 C813 1.310 . S
C812 C815 1.461 . S
C812 H832 0.932 . S
C813 C811 1.408 . S
C813 C812 1.310 . S
C813 H833 0.930 . S
C814 C815 1.474 . S
C814 C816 1.285 . S
C814 H834 0.929 . S
C815 C812 1.461 . S
C815 C814 1.474 . S
C816 C811 1.342 . S
C816 C814 1.285 . S
C816 H835 0.930 . S
C817 C820 1.424 . S
C817 C822 1.245 . S
C817 C823 1.428 . S
C818 C821 1.260 . S
C818 C822 1.477 . S
C818 H836 0.932 . S
C819 C820 1.384 . S
C819 C821 1.479 . S
C819 H837 0.929 . S
C820 C817 1.424 . S
C820 C819 1.384 . S
C820 H838 0.928 . S
C821 C818 1.260 . S
C821 C819 1.479 . S
C822 C817 1.245 . S
C822 C818 1.477 . S
C822 H839 0.932 . S
C823 U806 2.882 . S
C823 C817 1.428 . S
C823 O826 1.301 . S
C823 O827 1.282 . S
O824 U806 2.441 . S
O824 C810 1.249 . S
O825 U806 2.420 . S
O825 C810 1.202 . S
O826 U806 2.455 . S
O826 C823 1.301 . S
O827 U806 2.449 . S
O827 C823 1.282 . S
H828 C801 0.931 . S
H829 C803 0.929 . S
H830 C804 0.930 . S
H831 C805 0.931 . S
H832 C812 0.932 . S
H833 C813 0.930 . S
H834 C814 0.929 . S
H835 C816 0.930 . S
H836 C818 0.932 . S
H837 C819 0.929 . S
H838 C820 0.928 . S
H839 C822 0.932 . S
C840 C841 1.264 . S
C840 C845 1.479 . S
C840 C850 1.465 . S
C841 C840 1.264 . S
C841 C843 1.339 . S
C841 H868 0.931 . S
C842 C843 1.395 . S
C842 C844 1.320 . S
C843 C841 1.339 . S
C843 C842 1.395 . S
C843 H869 0.929 . S
C844 C842 1.320 . S
C844 C845 1.405 . S
C844 H870 0.930 . S
C845 C840 1.479 . S
C845 C844 1.405 . S
C845 H871 0.931 . S
U846 O847 2.454 . S
U846 O848 2.458 . S
U846 C849 2.984 . S
U846 C850 2.847 . S
U846 C863 2.882 . S
U846 O864 2.441 . S
U846 O865 2.420 . S
U846 O866 2.455 . S
U846 O867 2.449 . S
O847 U846 2.454 . S
O847 C849 1.353 . S
O848 U846 2.458 . S
O848 C849 1.286 . S
C849 U846 2.984 . S
C849 O847 1.353 . S
C849 O848 1.286 . S
C849 C851 1.363 . S
C850 C840 1.465 . S
C850 U846 2.847 . S
C850 O864 1.249 . S
C850 O865 1.202 . S
C851 C849 1.363 . S
C851 C853 1.408 . S
C851 C856 1.342 . S
C852 C853 1.310 . S
C852 C855 1.461 . S
C852 H872 0.932 . S
C853 C851 1.408 . S
C853 C852 1.310 . S
C853 H873 0.930 . S
C854 C855 1.474 . S
C854 C856 1.285 . S
C854 H874 0.929 . S
C855 C852 1.461 . S
C855 C854 1.474 . S
C856 C851 1.342 . S
C856 C854 1.285 . S
C856 H875 0.930 . S
C857 C860 1.424 . S
C857 C862 1.245 . S
C857 C863 1.428 . S
C858 C861 1.260 . S
C858 C862 1.477 . S
C858 H876 0.932 . S
C859 C860 1.384 . S
C859 C861 1.479 . S
C859 H877 0.929 . S
C860 C857 1.424 . S
C860 C859 1.384 . S
C860 H878 0.928 . S
C861 C858 1.260 . S
C861 C859 1.479 . S
C862 C857 1.245 . S
C862 C858 1.477 . S
C862 H879 0.932 . S
C863 U846 2.882 . S
C863 C857 1.428 . S
C863 O866 1.301 . S
C863 O867 1.282 . S
O864 U846 2.441 . S
O864 C850 1.249 . S
O865 U846 2.420 . S
O865 C850 1.202 . S
O866 U846 2.455 . S
O866 C863 1.301 . S
O867 U846 2.449 . S
O867 C863 1.282 . S
H868 C841 0.931 . S
H869 C843 0.929 . S
H870 C844 0.930 . S
H871 C845 0.931 . S
H872 C852 0.932 . S
H873 C853 0.930 . S
H874 C854 0.929 . S
H875 C856 0.930 . S
H876 C858 0.932 . S
H877 C859 0.929 . S
H878 C860 0.928 . S
H879 C862 0.932 . S
C880 C881 1.264 . S
C880 C885 1.479 . S
C880 C890 1.465 . S
C881 C880 1.264 . S
C881 C883 1.339 . S
C881 H908 0.931 . S
C882 C883 1.395 . S
C882 C884 1.320 . S
C883 C881 1.339 . S
C883 C882 1.395 . S
C883 H909 0.929 . S
C884 C882 1.320 . S
C884 C885 1.405 . S
C884 H910 0.930 . S
C885 C880 1.479 . S
C885 C884 1.405 . S
C885 H911 0.931 . S
U886 O887 2.454 . S
U886 O888 2.458 . S
U886 C889 2.984 . S
U886 C890 2.847 . S
U886 C903 2.882 . S
U886 O904 2.441 . S
U886 O905 2.420 . S
U886 O906 2.455 . S
U886 O907 2.449 . S
O887 U886 2.454 . S
O887 C889 1.353 . S
O888 U886 2.458 . S
O888 C889 1.286 . S
C889 U886 2.984 . S
C889 O887 1.353 . S
C889 O888 1.286 . S
C889 C891 1.363 . S
C890 C880 1.465 . S
C890 U886 2.847 . S
C890 O904 1.249 . S
C890 O905 1.202 . S
C891 C889 1.363 . S
C891 C893 1.408 . S
C891 C896 1.342 . S
C892 C893 1.310 . S
C892 C895 1.461 . S
C892 H912 0.932 . S
C893 C891 1.408 . S
C893 C892 1.310 . S
C893 H913 0.930 . S
C894 C895 1.474 . S
C894 C896 1.285 . S
C894 H914 0.929 . S
C895 C892 1.461 . S
C895 C894 1.474 . S
C896 C891 1.342 . S
C896 C894 1.285 . S
C896 H915 0.930 . S
C897 C900 1.424 . S
C897 C902 1.245 . S
C897 C903 1.428 . S
C898 C901 1.260 . S
C898 C902 1.477 . S
C898 H916 0.932 . S
C899 C900 1.384 . S
C899 C901 1.479 . S
C899 H917 0.929 . S
C900 C897 1.424 . S
C900 C899 1.384 . S
C900 H918 0.928 . S
C901 C898 1.260 . S
C901 C899 1.479 . S
C902 C897 1.245 . S
C902 C898 1.477 . S
C902 H919 0.932 . S
C903 U886 2.882 . S
C903 C897 1.428 . S
C903 O906 1.301 . S
C903 O907 1.282 . S
O904 U886 2.441 . S
O904 C890 1.249 . S
O905 U886 2.420 . S
O905 C890 1.202 . S
O906 U886 2.455 . S
O906 C903 1.301 . S
O907 U886 2.449 . S
O907 C903 1.282 . S
H908 C881 0.931 . S
H909 C883 0.929 . S
H910 C884 0.930 . S
H911 C885 0.931 . S
H912 C892 0.932 . S
H913 C893 0.930 . S
H914 C894 0.929 . S
H915 C896 0.930 . S
H916 C898 0.932 . S
H917 C899 0.929 . S
H918 C900 0.928 . S
H919 C902 0.932 . S
C920 C921 1.264 . S
C920 C925 1.479 1_565 S
C920 C930 1.481 . S
C921 C920 1.264 . S
C921 C923 1.339 . S
C921 H948 0.931 . S
C922 C923 1.395 . S
C922 C924 1.320 1_565 S
C923 C921 1.339 . S
C923 C922 1.395 . S
C923 H949 0.929 . S
C924 C922 1.320 1_545 S
C924 C925 1.405 . S
C924 H950 0.930 . S
C925 C920 1.479 1_545 S
C925 C924 1.405 . S
C925 H951 0.931 . S
U926 O927 2.454 . S
U926 O928 2.458 . S
U926 C929 2.984 . S
U926 C930 2.837 1_545 S
U926 C943 2.882 1_545 S
U926 O944 2.441 . S
U926 O945 2.420 1_545 S
U926 O946 2.455 1_545 S
U926 O947 2.449 1_545 S
O927 U926 2.454 . S
O927 C929 1.353 . S
O928 U926 2.458 . S
O928 C929 1.286 . S
C929 U926 2.984 . S
C929 O927 1.353 . S
C929 O928 1.286 . S
C929 C931 1.363 . S
C930 C920 1.481 . S
C930 U926 2.837 1_565 S
C930 O944 1.209 1_565 S
C930 O945 1.231 . S
C931 C929 1.363 . S
C931 C933 1.408 . S
C931 C936 1.342 . S
C932 C933 1.310 . S
C932 C935 1.461 . S
C932 H952 0.932 . S
C933 C931 1.408 . S
C933 C932 1.310 . S
C933 H953 0.930 . S
C934 C935 1.474 . S
C934 C936 1.285 . S
C934 H954 0.929 . S
C935 C932 1.461 . S
C935 C934 1.474 . S
C936 C931 1.342 . S
C936 C934 1.285 . S
C936 H955 0.930 . S
C937 C940 1.424 . S
C937 C942 1.245 . S
C937 C943 1.428 . S
C938 C941 1.260 . S
C938 C942 1.477 . S
C938 H956 0.932 . S
C939 C940 1.384 . S
C939 C941 1.479 . S
C939 H957 0.929 . S
C940 C937 1.424 . S
C940 C939 1.384 . S
C940 H958 0.928 . S
C941 C938 1.260 . S
C941 C939 1.479 . S
C942 C937 1.245 . S
C942 C938 1.477 . S
C942 H959 0.932 . S
C943 U926 2.882 1_565 S
C943 C937 1.428 . S
C943 O946 1.301 . S
C943 O947 1.282 . S
O944 U926 2.441 . S
O944 C930 1.209 1_545 S
O945 U926 2.420 1_565 S
O945 C930 1.231 . S
O946 U926 2.455 1_565 S
O946 C943 1.301 . S
O947 U926 2.449 1_565 S
O947 C943 1.282 . S
H948 C921 0.931 . S
H949 C923 0.929 . S
H950 C924 0.930 . S
H951 C925 0.931 . S
H952 C932 0.932 . S
H953 C933 0.930 . S
H954 C934 0.929 . S
H955 C936 0.930 . S
H956 C938 0.932 . S
H957 C939 0.929 . S
H958 C940 0.928 . S
H959 C942 0.932 . S
C960 C961 1.264 . S
C960 C965 1.479 . S
C960 C970 1.465 . S
C961 C960 1.264 . S
C961 C963 1.339 . S
C961 H988 0.931 . S
C962 C963 1.395 . S
C962 C964 1.320 . S
C963 C961 1.339 . S
C963 C962 1.395 . S
C963 H989 0.929 . S
C964 C962 1.320 . S
C964 C965 1.405 . S
C964 H990 0.930 . S
C965 C960 1.479 . S
C965 C964 1.405 . S
C965 H991 0.822 1_565 S
U966 O967 2.512 . S
U966 O968 2.501 . S
U966 C969 3.041 . S
U966 C970 2.834 1_545 S
U966 C983 2.840 1_545 S
U966 O984 2.454 . S
U966 O985 2.385 1_545 S
U966 O986 2.436 1_545 S
U966 O987 2.393 1_545 S
O967 U966 2.512 . S
O967 C969 1.353 . S
O968 U966 2.501 . S
O968 C969 1.286 . S
C969 U966 3.041 . S
C969 O967 1.353 . S
C969 O968 1.286 . S
C969 C971 1.363 . S
C970 C960 1.465 . S
C970 U966 2.834 1_565 S
C970 O984 1.249 1_565 S
C970 O985 1.202 . S
C971 C969 1.363 . S
C971 C973 1.408 . S
C971 C976 1.342 . S
C972 C973 1.310 . S
C972 C975 1.461 . S
C972 H992 0.932 . S
C973 C971 1.408 . S
C973 C972 1.310 . S
C973 H993 0.930 . S
C974 C975 1.474 . S
C974 C976 1.285 . S
C974 H994 0.929 . S
C975 C972 1.461 . S
C975 C974 1.474 . S
C976 C971 1.342 . S
C976 C974 1.285 . S
C976 H995 0.930 . S
C977 C980 1.424 . S
C977 C982 1.245 . S
C977 C983 1.428 . S
C978 C981 1.260 . S
C978 C982 1.477 . S
C978 H996 0.932 . S
C979 C980 1.384 . S
C979 C981 1.479 . S
C979 H997 0.929 . S
C980 C977 1.424 . S
C980 C979 1.384 . S
C980 H998 0.928 . S
C981 C978 1.260 . S
C981 C979 1.479 . S
C982 C977 1.245 . S
C982 C978 1.477 . S
C982 H999 0.932 . S
C983 U966 2.840 1_565 S
C983 C977 1.428 . S
C983 O986 1.301 . S
C983 O987 1.282 . S
O984 U966 2.454 . S
O984 C970 1.249 1_545 S
O985 U966 2.385 1_565 S
O985 C970 1.202 . S
O986 U966 2.436 1_565 S
O986 C983 1.301 . S
O987 U966 2.393 1_565 S
O987 C983 1.282 . S
H988 C961 0.931 . S
H989 C963 0.929 . S
H990 C964 0.930 . S
H991 C965 0.822 1_545 S
H992 C972 0.932 . S
H993 C973 0.930 . S
H994 C974 0.929 . S
H995 C976 0.930 . S
H996 C978 0.932 . S
H997 C979 0.929 . S
H998 C980 0.928 . S
H999 C982 0.932 . S
C1000 C1001 1.264 . S
C1000 C1005 1.479 . S
C1000 C1010 1.465 . S
C1001 C1000 1.264 . S
C1001 C1003 1.339 . S
C1001 H1028 0.931 . S
C1002 C1003 1.395 . S
C1002 C1004 1.320 . S
C1003 C1001 1.339 . S
C1003 C1002 1.395 . S
C1003 H1029 0.929 . S
C1004 C1002 1.320 . S
C1004 C1005 1.405 . S
C1004 H1030 0.930 . S
C1005 C1000 1.479 . S
C1005 C1004 1.405 . S
C1005 H1031 0.931 . S
U1006 O1007 2.454 . S
U1006 O1008 2.458 1_565 S
U1006 C1009 2.984 1_565 S
U1006 C1010 2.847 . S
U1006 C1023 2.882 1_565 S
U1006 O1024 2.441 . S
U1006 O1025 2.420 . S
U1006 O1026 2.455 1_565 S
U1006 O1027 2.449 1_565 S
O1007 U1006 2.454 . S
O1007 C1009 1.353 1_565 S
O1008 U1006 2.458 1_545 S
O1008 C1009 1.286 . S
C1009 U1006 2.984 1_545 S
C1009 O1007 1.353 1_545 S
C1009 O1008 1.286 . S
C1009 C1011 1.363 . S
C1010 C1000 1.465 . S
C1010 U1006 2.847 . S
C1010 O1024 1.249 . S
C1010 O1025 1.202 . S
C1011 C1009 1.363 . S
C1011 C1013 1.408 1_545 S
C1011 C1016 1.342 . S
C1012 C1013 1.310 . S
C1012 C1015 1.461 1_565 S
C1012 H1032 0.932 . S
C1013 C1011 1.408 1_565 S
C1013 C1012 1.310 . S
C1013 H1033 0.930 . S
C1014 C1015 1.474 . S
C1014 C1016 1.285 . S
C1014 H1034 0.929 . S
C1015 C1012 1.461 1_545 S
C1015 C1014 1.474 . S
C1016 C1011 1.342 . S
C1016 C1014 1.285 . S
C1016 H1035 0.930 . S
C1017 C1020 1.424 . S
C1017 C1022 1.245 . S
C1017 C1023 1.428 . S
C1018 C1021 1.260 . S
C1018 C1022 1.477 . S
C1018 H1036 0.932 . S
C1019 C1020 1.384 . S
C1019 C1021 1.479 . S
C1019 H1037 0.929 . S
C1020 C1017 1.424 . S
C1020 C1019 1.384 . S
C1020 H1038 0.928 . S
C1021 C1018 1.260 . S
C1021 C1019 1.479 . S
C1022 C1017 1.245 . S
C1022 C1018 1.477 . S
C1022 H1039 0.932 . S
C1023 U1006 2.882 1_545 S
C1023 C1017 1.428 . S
C1023 O1026 1.301 . S
C1023 O1027 1.282 . S
O1024 U1006 2.441 . S
O1024 C1010 1.249 . S
O1025 U1006 2.420 . S
O1025 C1010 1.202 . S
O1026 U1006 2.455 1_545 S
O1026 C1023 1.301 . S
O1027 U1006 2.449 1_545 S
O1027 C1023 1.282 . S
H1028 C1001 0.931 . S
H1029 C1003 0.929 . S
H1030 C1004 0.930 . S
H1031 C1005 0.931 . S
H1032 C1012 0.932 . S
H1033 C1013 0.930 . S
H1034 C1014 0.929 . S
H1035 C1016 0.930 . S
H1036 C1018 0.932 . S
H1037 C1019 0.929 . S
H1038 C1020 0.928 . S
H1039 C1022 0.932 . S
C1040 C1041 1.264 . S
C1040 C1045 1.479 . S
C1040 C1050 1.465 . S
C1041 C1040 1.264 . S
C1041 C1043 1.339 . S
C1041 H1068 0.931 . S
C1042 C1043 1.395 . S
C1042 C1044 1.320 . S
C1043 C1041 1.339 . S
C1043 C1042 1.395 . S
C1043 H1069 0.929 . S
C1044 C1042 1.320 . S
C1044 C1045 1.405 . S
C1044 H1070 0.930 . S
C1045 C1040 1.479 . S
C1045 C1044 1.405 . S
C1045 H1071 0.931 . S
U1046 O1047 2.449 1_545 S
U1046 O1048 2.475 . S
U1046 C1049 2.991 . S
U1046 C1050 2.822 1_545 S
U1046 C1063 2.902 . S
U1046 O1064 2.415 1_545 S
U1046 O1065 2.400 1_545 S
U1046 O1066 2.480 . S
U1046 O1067 2.458 . S
O1047 U1046 2.449 1_565 S
O1047 C1049 1.353 1_565 S
O1048 U1046 2.475 . S
O1048 C1049 1.286 . S
C1049 U1046 2.991 . S
C1049 O1047 1.353 1_545 S
C1049 O1048 1.286 . S
C1049 C1051 1.363 . S
C1050 C1040 1.465 . S
C1050 U1046 2.822 1_565 S
C1050 O1064 1.249 . S
C1050 O1065 1.202 . S
C1051 C1049 1.363 . S
C1051 C1053 1.408 . S
C1051 C1056 1.342 . S
C1052 C1053 1.310 . S
C1052 C1055 1.461 . S
C1052 H1072 0.932 . S
C1053 C1051 1.408 . S
C1053 C1052 1.310 . S
C1053 H1073 0.930 1_545 S
C1054 C1055 1.474 . S
C1054 C1056 1.285 . S
C1054 H1074 0.929 . S
C1055 C1052 1.461 . S
C1055 C1054 1.474 . S
C1056 C1051 1.342 . S
C1056 C1054 1.285 . S
C1056 H1075 0.930 . S
C1057 C1060 1.424 . S
C1057 C1062 1.245 . S
C1057 C1063 1.428 . S
C1058 C1061 1.260 . S
C1058 C1062 1.477 . S
C1058 H1076 0.932 . S
C1059 C1060 1.384 . S
C1059 C1061 1.479 . S
C1059 H1077 0.929 . S
C1060 C1057 1.424 . S
C1060 C1059 1.384 . S
C1060 H1078 0.928 . S
C1061 C1058 1.260 . S
C1061 C1059 1.479 . S
C1062 C1057 1.245 . S
C1062 C1058 1.477 . S
C1062 H1079 0.932 . S
C1063 U1046 2.902 . S
C1063 C1057 1.428 . S
C1063 O1066 1.301 . S
C1063 O1067 1.282 . S
O1064 U1046 2.415 1_565 S
O1064 C1050 1.249 . S
O1065 U1046 2.400 1_565 S
O1065 C1050 1.202 . S
O1066 U1046 2.480 . S
O1066 C1063 1.301 . S
O1067 U1046 2.458 . S
O1067 C1063 1.282 . S
H1068 C1041 0.931 . S
H1069 C1043 0.929 . S
H1070 C1044 0.930 . S
H1071 C1045 0.931 . S
H1072 C1052 0.932 . S
H1073 C1053 0.930 1_565 S
H1074 C1054 0.929 . S
H1075 C1056 0.930 . S
H1076 C1058 0.932 . S
H1077 C1059 0.929 . S
H1078 C1060 0.928 . S
H1079 C1062 0.932 . S
C1080 C1081 1.264 . S
C1080 C1085 1.479 . S
C1080 C1090 1.465 . S
C1081 C1080 1.264 . S
C1081 C1083 1.339 . S
C1081 H1108 0.931 . S
C1082 C1083 1.395 . S
C1082 C1084 1.320 . S
C1083 C1081 1.339 . S
C1083 C1082 1.395 . S
C1083 H1109 0.929 . S
C1084 C1082 1.320 . S
C1084 C1085 1.405 . S
C1084 H1110 0.930 . S
C1085 C1080 1.479 . S
C1085 C1084 1.405 . S
C1085 H1111 0.931 . S
U1086 O1087 2.454 . S
U1086 O1088 2.458 . S
U1086 C1089 2.984 . S
U1086 C1090 2.847 . S
U1086 C1103 2.882 . S
U1086 O1104 2.441 . S
U1086 O1105 2.420 . S
U1086 O1106 2.455 . S
U1086 O1107 2.449 . S
O1087 U1086 2.454 . S
O1087 C1089 1.353 . S
O1088 U1086 2.458 . S
O1088 C1089 1.286 . S
C1089 U1086 2.984 . S
C1089 O1087 1.353 . S
C1089 O1088 1.286 . S
C1089 C1091 1.363 . S
C1090 C1080 1.465 . S
C1090 U1086 2.847 . S
C1090 O1104 1.249 . S
C1090 O1105 1.202 . S
C1091 C1089 1.363 . S
C1091 C1093 1.408 . S
C1091 C1096 1.342 . S
C1092 C1093 1.310 . S
C1092 C1095 1.461 . S
C1092 H1112 0.932 . S
C1093 C1091 1.408 . S
C1093 C1092 1.310 . S
C1093 H1113 0.930 . S
C1094 C1095 1.474 . S
C1094 C1096 1.285 . S
C1094 H1114 0.929 . S
C1095 C1092 1.461 . S
C1095 C1094 1.474 . S
C1096 C1091 1.342 . S
C1096 C1094 1.285 . S
C1096 H1115 0.930 . S
C1097 C1100 1.424 . S
C1097 C1102 1.245 . S
C1097 C1103 1.428 . S
C1098 C1101 1.260 . S
C1098 C1102 1.477 . S
C1098 H1116 0.932 . S
C1099 C1100 1.384 . S
C1099 C1101 1.479 . S
C1099 H1117 0.929 . S
C1100 C1097 1.424 . S
C1100 C1099 1.384 . S
C1100 H1118 0.928 . S
C1101 C1098 1.260 . S
C1101 C1099 1.479 . S
C1102 C1097 1.245 . S
C1102 C1098 1.477 . S
C1102 H1119 0.932 . S
C1103 U1086 2.882 . S
C1103 C1097 1.428 . S
C1103 O1106 1.301 . S
C1103 O1107 1.282 . S
O1104 U1086 2.441 . S
O1104 C1090 1.249 . S
O1105 U1086 2.420 . S
O1105 C1090 1.202 . S
O1106 U1086 2.455 . S
O1106 C1103 1.301 . S
O1107 U1086 2.449 . S
O1107 C1103 1.282 . S
H1108 C1081 0.931 . S
H1109 C1083 0.929 . S
H1110 C1084 0.930 . S
H1111 C1085 0.931 . S
H1112 C1092 0.932 . S
H1113 C1093 0.930 . S
H1114 C1094 0.929 . S
H1115 C1096 0.930 . S
H1116 C1098 0.932 . S
H1117 C1099 0.929 . S
H1118 C1100 0.928 . S
H1119 C1102 0.932 . S
C1120 C1121 1.264 . S
C1120 C1125 1.479 . S
C1120 C1130 1.465 . S
C1121 C1120 1.264 . S
C1121 C1123 1.339 . S
C1121 H1148 0.931 . S
C1122 C1123 1.395 . S
C1122 C1124 1.320 . S
C1123 C1121 1.339 . S
C1123 C1122 1.395 . S
C1123 H1149 0.929 . S
C1124 C1122 1.320 . S
C1124 C1125 1.405 . S
C1124 H1150 0.930 . S
C1125 C1120 1.479 . S
C1125 C1124 1.405 . S
C1125 H1151 0.931 . S
U1126 O1127 2.454 . S
U1126 O1128 2.458 . S
U1126 C1129 2.984 . S
U1126 C1130 2.847 1_455 S
U1126 C1143 2.882 . S
U1126 O1144 2.441 1_455 S
U1126 O1145 2.420 1_455 S
U1126 O1146 2.455 . S
U1126 O1147 2.449 . S
O1127 U1126 2.454 . S
O1127 C1129 1.353 . S
O1128 U1126 2.458 . S
O1128 C1129 1.286 . S
C1129 U1126 2.984 . S
C1129 O1127 1.353 . S
C1129 O1128 1.286 . S
C1129 C1131 1.363 . S
C1130 C1120 1.465 . S
C1130 U1126 2.847 1_655 S
C1130 O1144 1.249 . S
C1130 O1145 1.202 . S
C1131 C1129 1.363 . S
C1131 C1133 1.408 . S
C1131 C1136 1.342 . S
C1132 C1133 1.310 . S
C1132 C1135 1.461 . S
C1132 H1152 1.002 . S
C1133 C1131 1.408 . S
C1133 C1132 1.310 . S
C1133 H1153 0.930 1_455 S
C1134 C1135 1.474 . S
C1134 C1136 1.285 . S
C1134 H1154 0.929 . S
C1135 C1132 1.461 . S
C1135 C1134 1.474 . S
C1136 C1131 1.342 . S
C1136 C1134 1.285 . S
C1136 H1155 0.930 . S
C1137 C1140 1.424 . S
C1137 C1142 1.245 . S
C1137 C1143 1.428 . S
C1138 C1141 1.260 . S
C1138 C1142 1.477 . S
C1138 H1156 0.932 . S
C1139 C1140 1.384 . S
C1139 C1141 1.479 . S
C1139 H1157 0.929 . S
C1140 C1137 1.424 . S
C1140 C1139 1.384 . S
C1140 H1158 0.928 . S
C1141 C1138 1.260 . S
C1141 C1139 1.479 . S
C1142 C1137 1.245 . S
C1142 C1138 1.477 . S
C1142 H1159 0.932 . S
C1143 U1126 2.882 . S
C1143 C1137 1.428 . S
C1143 O1146 1.301 . S
C1143 O1147 1.282 . S
O1144 U1126 2.441 1_655 S
O1144 C1130 1.249 . S
O1145 U1126 2.420 1_655 S
O1145 C1130 1.202 . S
O1146 U1126 2.455 . S
O1146 C1143 1.301 . S
O1147 U1126 2.449 . S
O1147 C1143 1.282 . S
H1148 C1121 0.931 . S
H1149 C1123 0.929 . S
H1150 C1124 0.930 . S
H1151 C1125 0.931 . S
H1152 C1132 1.002 . S
H1153 C1133 0.930 1_655 S
H1154 C1134 0.929 . S
H1155 C1136 0.930 . S
H1156 C1138 0.932 . S
H1157 C1139 0.929 . S
H1158 C1140 0.928 . S
H1159 C1142 0.932 . S
C1160 C1161 1.264 . S
C1160 C1165 1.479 . S
C1160 C1170 1.465 . S
C1161 C1160 1.264 . S
C1161 C1163 1.339 . S
C1161 H1188 0.931 . S
C1162 C1163 1.395 . S
C1162 C1164 1.320 . S
C1163 C1161 1.339 . S
C1163 C1162 1.395 . S
C1163 H1189 0.929 . S
C1164 C1162 1.320 . S
C1164 C1165 1.405 . S
C1164 H1190 0.930 . S
C1165 C1160 1.479 . S
C1165 C1164 1.405 . S
C1165 H1191 0.931 . S
U1166 O1167 2.454 . S
U1166 O1168 2.458 . S
U1166 C1169 2.984 . S
U1166 C1170 2.847 . S
U1166 C1183 2.882 . S
U1166 O1184 2.441 . S
U1166 O1185 2.420 . S
U1166 O1186 2.455 . S
U1166 O1187 2.449 . S
O1167 U1166 2.454 . S
O1167 C1169 1.353 . S
O1168 U1166 2.458 . S
O1168 C1169 1.286 . S
C1169 U1166 2.984 . S
C1169 O1167 1.353 . S
C1169 O1168 1.286 . S
C1169 C1171 1.363 . S
C1170 C1160 1.465 . S
C1170 U1166 2.847 . S
C1170 O1184 1.249 . S
C1170 O1185 1.202 . S
C1171 C1169 1.363 . S
C1171 C1173 1.408 . S
C1171 C1176 1.342 . S
C1172 C1173 1.310 . S
C1172 C1175 1.461 . S
C1172 H1192 0.932 . S
C1173 C1171 1.408 . S
C1173 C1172 1.310 . S
C1173 H1193 0.930 . S
C1174 C1175 1.474 . S
C1174 C1176 1.285 . S
C1174 H1194 0.929 . S
C1175 C1172 1.461 . S
C1175 C1174 1.474 . S
C1176 C1171 1.342 . S
C1176 C1174 1.285 . S
C1176 H1195 0.930 . S
C1177 C1180 1.424 . S
C1177 C1182 1.245 . S
C1177 C1183 1.428 . S
C1178 C1181 1.260 . S
C1178 C1182 1.477 . S
C1178 H1196 0.932 . S
C1179 C1180 1.384 . S
C1179 C1181 1.479 . S
C1179 H1197 0.929 . S
C1180 C1177 1.424 . S
C1180 C1179 1.384 . S
C1180 H1198 0.928 . S
C1181 C1178 1.260 . S
C1181 C1179 1.479 . S
C1182 C1177 1.245 . S
C1182 C1178 1.477 . S
C1182 H1199 0.932 . S
C1183 U1166 2.882 . S
C1183 C1177 1.428 . S
C1183 O1186 1.301 . S
C1183 O1187 1.282 . S
O1184 U1166 2.441 . S
O1184 C1170 1.249 . S
O1185 U1166 2.420 . S
O1185 C1170 1.202 . S
O1186 U1166 2.455 . S
O1186 C1183 1.301 . S
O1187 U1166 2.449 . S
O1187 C1183 1.282 . S
H1188 C1161 0.931 . S
H1189 C1163 0.929 . S
H1190 C1164 0.930 . S
H1191 C1165 0.931 . S
H1192 C1172 0.932 . S
H1193 C1173 0.930 . S
H1194 C1174 0.929 . S
H1195 C1176 0.930 . S
H1196 C1178 0.932 . S
H1197 C1179 0.929 . S
H1198 C1180 0.928 . S
H1199 C1182 0.932 . S
C1200 C1201 1.264 . S
C1200 C1205 1.479 . S
C1200 C1210 1.465 . S
C1201 C1200 1.264 . S
C1201 C1203 1.339 . S
C1201 H1228 0.931 . S
C1202 C1203 1.395 . S
C1202 C1204 1.320 . S
C1203 C1201 1.339 . S
C1203 C1202 1.395 . S
C1203 H1229 0.929 . S
C1204 C1202 1.320 . S
C1204 C1205 1.405 . S
C1204 H1230 0.930 . S
C1205 C1200 1.479 . S
C1205 C1204 1.405 . S
C1205 H1231 0.931 . S
U1206 O1207 2.454 . S
U1206 O1208 2.458 . S
U1206 C1209 2.984 . S
U1206 C1210 2.847 . S
U1206 C1223 2.882 . S
U1206 O1224 2.441 . S
U1206 O1225 2.420 . S
U1206 O1226 2.455 . S
U1206 O1227 2.449 . S
O1207 U1206 2.454 . S
O1207 C1209 1.353 . S
O1208 U1206 2.458 . S
O1208 C1209 1.286 . S
C1209 U1206 2.984 . S
C1209 O1207 1.353 . S
C1209 O1208 1.286 . S
C1209 C1211 1.363 . S
C1210 C1200 1.465 . S
C1210 U1206 2.847 . S
C1210 O1224 1.249 . S
C1210 O1225 1.202 . S
C1211 C1209 1.363 . S
C1211 C1213 1.408 . S
C1211 C1216 1.342 . S
C1212 C1213 1.310 . S
C1212 C1215 1.461 . S
C1212 H1232 0.932 . S
C1213 C1211 1.408 . S
C1213 C1212 1.310 . S
C1213 H1233 0.930 . S
C1214 C1215 1.474 . S
C1214 C1216 1.285 . S
C1214 H1234 0.929 . S
C1215 C1212 1.461 . S
C1215 C1214 1.474 . S
C1216 C1211 1.342 . S
C1216 C1214 1.285 . S
C1216 H1235 0.930 . S
C1217 C1220 1.424 . S
C1217 C1222 1.245 . S
C1217 C1223 1.428 . S
C1218 C1221 1.260 . S
C1218 C1222 1.477 . S
C1218 H1236 0.932 . S
C1219 C1220 1.384 . S
C1219 C1221 1.479 . S
C1219 H1237 0.929 . S
C1220 C1217 1.424 . S
C1220 C1219 1.384 . S
C1220 H1238 0.928 . S
C1221 C1218 1.260 . S
C1221 C1219 1.479 . S
C1222 C1217 1.245 . S
C1222 C1218 1.477 . S
C1222 H1239 0.932 . S
C1223 U1206 2.882 . S
C1223 C1217 1.428 . S
C1223 O1226 1.301 . S
C1223 O1227 1.282 . S
O1224 U1206 2.441 . S
O1224 C1210 1.249 . S
O1225 U1206 2.420 . S
O1225 C1210 1.202 . S
O1226 U1206 2.455 . S
O1226 C1223 1.301 . S
O1227 U1206 2.449 . S
O1227 C1223 1.282 . S
H1228 C1201 0.931 . S
H1229 C1203 0.929 . S
H1230 C1204 0.930 . S
H1231 C1205 0.931 . S
H1232 C1212 0.932 . S
H1233 C1213 0.930 . S
H1234 C1214 0.929 . S
H1235 C1216 0.930 . S
H1236 C1218 0.932 . S
H1237 C1219 0.929 . S
H1238 C1220 0.928 . S
H1239 C1222 0.932 . S
C1240 C1241 1.264 . S
C1240 C1245 1.479 . S
C1240 C1250 1.465 . S
C1241 C1240 1.264 . S
C1241 C1243 1.339 . S
C1241 H1268 0.931 . S
C1242 C1243 1.395 . S
C1242 C1244 1.320 . S
C1243 C1241 1.339 . S
C1243 C1242 1.395 . S
C1243 H1269 0.929 . S
C1244 C1242 1.320 . S
C1244 C1245 1.405 . S
C1244 H1270 0.930 . S
C1245 C1240 1.479 . S
C1245 C1244 1.405 . S
C1245 H1271 0.931 . S
U1246 O1247 2.454 1_655 S
U1246 O1248 2.458 1_655 S
U1246 C1249 2.984 1_655 S
U1246 C1250 2.847 . S
U1246 C1263 2.882 . S
U1246 O1264 2.441 . S
U1246 O1265 2.420 . S
U1246 O1266 2.455 . S
U1246 O1267 2.449 . S
O1247 U1246 2.454 1_455 S
O1247 C1249 1.353 . S
O1248 U1246 2.458 1_455 S
O1248 C1249 1.286 . S
C1249 U1246 2.984 1_455 S
C1249 O1247 1.353 . S
C1249 O1248 1.286 . S
C1249 C1251 1.363 . S
C1250 C1240 1.465 . S
C1250 U1246 2.847 . S
C1250 O1264 1.249 . S
C1250 O1265 1.202 . S
C1251 C1249 1.363 . S
C1251 C1253 1.408 . S
C1251 C1256 1.342 . S
C1252 C1253 1.310 . S
C1252 C1255 1.461 . S
C1252 H1272 0.932 . S
C1253 C1251 1.408 . S
C1253 C1252 1.310 . S
C1253 H1273 0.930 . S
C1254 C1255 1.474 . S
C1254 C1256 1.285 . S
C1254 H1274 0.929 . S
C1255 C1252 1.461 . S
C1255 C1254 1.474 . S
C1256 C1251 1.342 . S
C1256 C1254 1.285 . S
C1256 H1275 0.930 . S
C1257 C1260 1.424 . S
C1257 C1262 1.245 . S
C1257 C1263 1.428 . S
C1258 C1261 1.260 . S
C1258 C1262 1.477 . S
C1258 H1276 0.932 . S
C1259 C1260 1.384 . S
C1259 C1261 1.479 . S
C1259 H1277 0.929 . S
C1260 C1257 1.424 . S
C1260 C1259 1.384 . S
C1260 H1278 0.928 . S
C1261 C1258 1.260 . S
C1261 C1259 1.479 . S
C1262 C1257 1.245 . S
C1262 C1258 1.477 . S
C1262 H1279 0.932 . S
C1263 U1246 2.882 . S
C1263 C1257 1.428 . S
C1263 O1266 1.301 . S
C1263 O1267 1.282 . S
O1264 U1246 2.441 . S
O1264 C1250 1.249 . S
O1265 U1246 2.420 . S
O1265 C1250 1.202 . S
O1266 U1246 2.455 . S
O1266 C1263 1.301 . S
O1267 U1246 2.449 . S
O1267 C1263 1.282 . S
H1268 C1241 0.931 . S
H1269 C1243 0.929 . S
H1270 C1244 0.930 . S
H1271 C1245 0.931 . S
H1272 C1252 0.932 . S
H1273 C1253 0.930 . S
H1274 C1254 0.929 . S
H1275 C1256 0.930 . S
H1276 C1258 0.932 . S
H1277 C1259 0.929 . S
H1278 C1260 0.928 . S
H1279 C1262 0.932 . S
C1280 C1281 1.264 . S
C1280 C1285 1.479 . S
C1280 C1290 1.465 . S
C1281 C1280 1.264 . S
C1281 C1283 1.339 . S
C1281 H1308 0.931 . S
C1282 C1283 1.395 . S
C1282 C1284 1.320 . S
C1283 C1281 1.339 . S
C1283 C1282 1.395 . S
C1283 H1309 0.929 . S
C1284 C1282 1.320 . S
C1284 C1285 1.405 . S
C1284 H1310 0.930 . S
C1285 C1280 1.479 . S
C1285 C1284 1.405 . S
C1285 H1311 0.931 . S
U1286 O1287 2.454 . S
U1286 O1288 2.458 . S
U1286 C1289 2.984 . S
U1286 C1290 2.847 . S
U1286 C1303 2.882 . S
U1286 O1304 2.441 . S
U1286 O1305 2.420 . S
U1286 O1306 2.455 . S
U1286 O1307 2.449 . S
O1287 U1286 2.454 . S
O1287 C1289 1.353 . S
O1288 U1286 2.458 . S
O1288 C1289 1.286 . S
C1289 U1286 2.984 . S
C1289 O1287 1.353 . S
C1289 O1288 1.286 . S
C1289 C1291 1.363 . S
C1290 C1280 1.465 . S
C1290 U1286 2.847 . S
C1290 O1304 1.249 . S
C1290 O1305 1.202 . S
C1291 C1289 1.363 . S
C1291 C1293 1.408 . S
C1291 C1296 1.342 . S
C1292 C1293 1.310 . S
C1292 C1295 1.461 . S
C1292 H1312 0.932 . S
C1293 C1291 1.408 . S
C1293 C1292 1.310 . S
C1293 H1313 0.930 . S
C1294 C1295 1.474 . S
C1294 C1296 1.285 . S
C1294 H1314 0.929 . S
C1295 C1292 1.461 . S
C1295 C1294 1.474 . S
C1296 C1291 1.342 . S
C1296 C1294 1.285 . S
C1296 H1315 0.930 . S
C1297 C1300 1.424 . S
C1297 C1302 1.245 . S
C1297 C1303 1.428 . S
C1298 C1301 1.260 . S
C1298 C1302 1.477 . S
C1298 H1316 0.932 . S
C1299 C1300 1.384 . S
C1299 C1301 1.479 . S
C1299 H1317 0.929 . S
C1300 C1297 1.424 . S
C1300 C1299 1.384 . S
C1300 H1318 0.928 . S
C1301 C1298 1.260 . S
C1301 C1299 1.479 . S
C1302 C1297 1.245 . S
C1302 C1298 1.477 . S
C1302 H1319 0.932 . S
C1303 U1286 2.882 . S
C1303 C1297 1.428 . S
C1303 O1306 1.301 . S
C1303 O1307 1.282 . S
O1304 U1286 2.441 . S
O1304 C1290 1.249 . S
O1305 U1286 2.420 . S
O1305 C1290 1.202 . S
O1306 U1286 2.455 . S
O1306 C1303 1.301 . S
O1307 U1286 2.449 . S
O1307 C1303 1.282 . S
H1308 C1281 0.931 . S
H1309 C1283 0.929 . S
H1310 C1284 0.930 . S
H1311 C1285 0.931 . S
H1312 C1292 0.932 . S
H1313 C1293 0.930 . S
H1314 C1294 0.929 . S
H1315 C1296 0.930 . S
H1316 C1298 0.932 . S
H1317 C1299 0.929 . S
H1318 C1300 0.928 . S
H1319 C1302 0.932 . S
C1320 C1321 1.264 . S
C1320 C1325 1.479 . S
C1320 C1330 1.465 . S
C1321 C1320 1.264 . S
C1321 C1323 1.339 . S
C1321 H1348 0.931 . S
C1322 C1323 1.395 . S
C1322 C1324 1.320 . S
C1323 C1321 1.339 . S
C1323 C1322 1.395 . S
C1323 H1349 0.929 . S
C1324 C1322 1.320 . S
C1324 C1325 1.405 . S
C1324 H1350 0.930 . S
C1325 C1320 1.479 . S
C1325 C1324 1.405 . S
C1325 H1351 0.931 . S
U1326 O1327 2.454 . S
U1326 O1328 2.458 . S
U1326 C1329 2.984 . S
U1326 C1330 2.847 . S
U1326 C1343 2.882 . S
U1326 O1344 2.441 . S
U1326 O1345 2.420 . S
U1326 O1346 2.455 . S
U1326 O1347 2.449 . S
O1327 U1326 2.454 . S
O1327 C1329 1.353 . S
O1328 U1326 2.458 . S
O1328 C1329 1.286 . S
C1329 U1326 2.984 . S
C1329 O1327 1.353 . S
C1329 O1328 1.286 . S
C1329 C1331 1.363 . S
C1330 C1320 1.465 . S
C1330 U1326 2.847 . S
C1330 O1344 1.249 . S
C1330 O1345 1.202 . S
C1331 C1329 1.363 . S
C1331 C1333 1.408 . S
C1331 C1336 1.342 . S
C1332 C1333 1.310 . S
C1332 C1335 1.461 . S
C1332 H1352 0.932 . S
C1333 C1331 1.408 . S
C1333 C1332 1.310 . S
C1333 H1353 0.930 . S
C1334 C1335 1.474 . S
C1334 C1336 1.285 . S
C1334 H1354 0.929 . S
C1335 C1332 1.461 . S
C1335 C1334 1.474 . S
C1336 C1331 1.342 . S
C1336 C1334 1.285 . S
C1336 H1355 0.930 . S
C1337 C1340 1.424 . S
C1337 C1342 1.245 . S
C1337 C1343 1.428 . S
C1338 C1341 1.260 . S
C1338 C1342 1.477 . S
C1338 H1356 0.932 . S
C1339 C1340 1.384 . S
C1339 C1341 1.479 . S
C1339 H1357 0.929 . S
C1340 C1337 1.424 . S
C1340 C1339 1.384 . S
C1340 H1358 0.928 . S
C1341 C1338 1.260 . S
C1341 C1339 1.479 . S
C1342 C1337 1.245 . S
C1342 C1338 1.477 . S
C1342 H1359 0.932 . S
C1343 U1326 2.882 . S
C1343 C1337 1.428 . S
C1343 O1346 1.301 . S
C1343 O1347 1.282 . S
O1344 U1326 2.441 . S
O1344 C1330 1.249 . S
O1345 U1326 2.420 . S
O1345 C1330 1.202 . S
O1346 U1326 2.455 . S
O1346 C1343 1.301 . S
O1347 U1326 2.449 . S
O1347 C1343 1.282 . S
H1348 C1321 0.931 . S
H1349 C1323 0.929 . S
H1350 C1324 0.930 . S
H1351 C1325 0.931 . S
H1352 C1332 0.932 . S
H1353 C1333 0.930 . S
H1354 C1334 0.929 . S
H1355 C1336 0.930 . S
H1356 C1338 0.932 . S
H1357 C1339 0.929 . S
H1358 C1340 0.928 . S
H1359 C1342 0.932 . S
C1360 C1361 1.264 . S
C1360 C1365 1.479 . S
C1360 C1370 1.465 . S
C1361 C1360 1.264 . S
C1361 C1363 1.339 . S
C1361 H1388 0.931 . S
C1362 C1363 1.395 . S
C1362 C1364 1.320 . S
C1363 C1361 1.339 . S
C1363 C1362 1.395 . S
C1363 H1389 0.929 . S
C1364 C1362 1.320 . S
C1364 C1365 1.405 . S
C1364 H1390 0.930 . S
C1365 C1360 1.479 . S
C1365 C1364 1.405 . S
C1365 H1391 0.931 . S
U1366 O1367 2.454 . S
U1366 O1368 2.458 . S
U1366 C1369 2.984 . S
U1366 C1370 2.847 . S
U1366 C1383 2.882 . S
U1366 O1384 2.441 . S
U1366 O1385 2.420 . S
U1366 O1386 2.455 . S
U1366 O1387 2.449 . S
O1367 U1366 2.454 . S
O1367 C1369 1.353 . S
O1368 U1366 2.458 . S
O1368 C1369 1.286 . S
C1369 U1366 2.984 . S
C1369 O1367 1.353 . S
C1369 O1368 1.286 . S
C1369 C1371 1.363 . S
C1370 C1360 1.465 . S
C1370 U1366 2.847 . S
C1370 O1384 1.249 . S
C1370 O1385 1.202 . S
C1371 C1369 1.363 . S
C1371 C1373 1.408 . S
C1371 C1376 1.342 . S
C1372 C1373 1.310 . S
C1372 C1375 1.461 . S
C1372 H1392 0.932 . S
C1373 C1371 1.408 . S
C1373 C1372 1.310 . S
C1373 H1393 0.930 . S
C1374 C1375 1.474 . S
C1374 C1376 1.285 . S
C1374 H1394 0.929 . S
C1375 C1372 1.461 . S
C1375 C1374 1.474 . S
C1376 C1371 1.342 . S
C1376 C1374 1.285 . S
C1376 H1395 0.930 . S
C1377 C1380 1.424 . S
C1377 C1382 1.245 . S
C1377 C1383 1.428 . S
C1378 C1381 1.260 . S
C1378 C1382 1.477 . S
C1378 H1396 0.932 . S
C1379 C1380 1.384 . S
C1379 C1381 1.479 . S
C1379 H1397 0.929 . S
C1380 C1377 1.424 . S
C1380 C1379 1.384 . S
C1380 H1398 0.928 . S
C1381 C1378 1.260 . S
C1381 C1379 1.479 . S
C1382 C1377 1.245 . S
C1382 C1378 1.477 . S
C1382 H1399 0.932 . S
C1383 U1366 2.882 . S
C1383 C1377 1.428 . S
C1383 O1386 1.301 . S
C1383 O1387 1.282 . S
O1384 U1366 2.441 . S
O1384 C1370 1.249 . S
O1385 U1366 2.420 . S
O1385 C1370 1.202 . S
O1386 U1366 2.455 . S
O1386 C1383 1.301 . S
O1387 U1366 2.449 . S
O1387 C1383 1.282 . S
H1388 C1361 0.931 . S
H1389 C1363 0.929 . S
H1390 C1364 0.930 . S
H1391 C1365 0.931 . S
H1392 C1372 0.932 . S
H1393 C1373 0.930 . S
H1394 C1374 0.929 . S
H1395 C1376 0.930 . S
H1396 C1378 0.932 . S
H1397 C1379 0.929 . S
H1398 C1380 0.928 . S
H1399 C1382 0.932 . S
C1400 C1401 1.264 . S
C1400 C1405 1.479 . S
C1400 C1410 1.465 . S
C1401 C1400 1.264 . S
C1401 C1403 1.339 . S
C1401 H1428 0.931 . S
C1402 C1403 1.395 . S
C1402 C1404 1.320 . S
C1403 C1401 1.339 . S
C1403 C1402 1.395 . S
C1403 H1429 0.929 . S
C1404 C1402 1.320 . S
C1404 C1405 1.405 . S
C1404 H1430 0.930 . S
C1405 C1400 1.479 . S
C1405 C1404 1.405 . S
C1405 H1431 0.931 . S
U1406 O1407 2.454 . S
U1406 O1408 2.458 . S
U1406 C1409 2.984 . S
U1406 C1410 2.847 . S
U1406 C1423 2.882 . S
U1406 O1424 2.441 . S
U1406 O1425 2.420 . S
U1406 O1426 2.455 . S
U1406 O1427 2.449 . S
O1407 U1406 2.454 . S
O1407 C1409 1.353 . S
O1408 U1406 2.458 . S
O1408 C1409 1.286 . S
C1409 U1406 2.984 . S
C1409 O1407 1.353 . S
C1409 O1408 1.286 . S
C1409 C1411 1.363 . S
C1410 C1400 1.465 . S
C1410 U1406 2.847 . S
C1410 O1424 1.249 . S
C1410 O1425 1.202 . S
C1411 C1409 1.363 . S
C1411 C1413 1.408 . S
C1411 C1416 1.342 . S
C1412 C1413 1.310 . S
C1412 C1415 1.461 . S
C1412 H1432 0.932 . S
C1413 C1411 1.408 . S
C1413 C1412 1.310 . S
C1413 H1433 0.930 . S
C1414 C1415 1.474 . S
C1414 C1416 1.285 . S
C1414 H1434 0.929 . S
C1415 C1412 1.461 . S
C1415 C1414 1.474 . S
C1416 C1411 1.342 . S
C1416 C1414 1.285 . S
C1416 H1435 0.930 . S
C1417 C1420 1.424 . S
C1417 C1422 1.245 . S
C1417 C1423 1.428 . S
C1418 C1421 1.260 . S
C1418 C1422 1.477 . S
C1418 H1436 0.932 . S
C1419 C1420 1.384 . S
C1419 C1421 1.479 . S
C1419 H1437 0.929 . S
C1420 C1417 1.424 . S
C1420 C1419 1.384 . S
C1420 H1438 0.928 . S
C1421 C1418 1.260 . S
C1421 C1419 1.479 . S
C1422 C1417 1.245 . S
C1422 C1418 1.477 . S
C1422 H1439 0.932 . S
C1423 U1406 2.882 . S
C1423 C1417 1.428 . S
C1423 O1426 1.301 . S
C1423 O1427 1.282 . S
O1424 U1406 2.441 . S
O1424 C1410 1.249 . S
O1425 U1406 2.420 . S
O1425 C1410 1.202 . S
O1426 U1406 2.455 . S
O1426 C1423 1.301 . S
O1427 U1406 2.449 . S
O1427 C1423 1.282 . S
H1428 C1401 0.931 . S
H1429 C1403 0.929 . S
H1430 C1404 0.930 . S
H1431 C1405 0.931 . S
H1432 C1412 0.932 . S
H1433 C1413 0.930 . S
H1434 C1414 0.929 . S
H1435 C1416 0.930 . S
H1436 C1418 0.932 . S
H1437 C1419 0.929 . S
H1438 C1420 0.928 . S
H1439 C1422 0.932 . S
C1440 C1441 1.264 . S
C1440 C1445 1.479 . S
C1440 C1450 1.465 . S
C1441 C1440 1.264 . S
C1441 C1443 1.339 . S
C1441 H1468 0.931 . S
C1442 C1443 1.395 . S
C1442 C1444 1.320 . S
C1443 C1441 1.339 . S
C1443 C1442 1.395 . S
C1443 H1469 0.929 . S
C1444 C1442 1.320 . S
C1444 C1445 1.405 . S
C1444 H1470 0.930 . S
C1445 C1440 1.479 . S
C1445 C1444 1.405 . S
C1445 H1471 0.931 . S
U1446 O1447 2.454 . S
U1446 O1448 2.458 . S
U1446 C1449 2.984 . S
U1446 C1450 2.847 . S
U1446 C1463 2.882 . S
U1446 O1464 2.441 . S
U1446 O1465 2.420 . S
U1446 O1466 2.455 . S
U1446 O1467 2.449 . S
O1447 U1446 2.454 . S
O1447 C1449 1.353 . S
O1448 U1446 2.458 . S
O1448 C1449 1.286 . S
C1449 U1446 2.984 . S
C1449 O1447 1.353 . S
C1449 O1448 1.286 . S
C1449 C1451 1.363 . S
C1450 C1440 1.465 . S
C1450 U1446 2.847 . S
C1450 O1464 1.249 . S
C1450 O1465 1.202 . S
C1451 C1449 1.363 . S
C1451 C1453 1.408 . S
C1451 C1456 1.342 . S
C1452 C1453 1.310 . S
C1452 C1455 1.461 . S
C1452 H1472 0.932 . S
C1453 C1451 1.408 . S
C1453 C1452 1.310 . S
C1453 H1473 0.930 . S
C1454 C1455 1.474 . S
C1454 C1456 1.285 . S
C1454 H1474 0.929 . S
C1455 C1452 1.461 . S
C1455 C1454 1.474 . S
C1456 C1451 1.342 . S
C1456 C1454 1.285 . S
C1456 H1475 0.930 . S
C1457 C1460 1.424 . S
C1457 C1462 1.245 . S
C1457 C1463 1.428 . S
C1458 C1461 1.260 . S
C1458 C1462 1.477 . S
C1458 H1476 0.932 . S
C1459 C1460 1.384 . S
C1459 C1461 1.479 . S
C1459 H1477 0.929 . S
C1460 C1457 1.424 . S
C1460 C1459 1.384 . S
C1460 H1478 0.928 . S
C1461 C1458 1.260 . S
C1461 C1459 1.479 . S
C1462 C1457 1.245 . S
C1462 C1458 1.477 . S
C1462 H1479 0.932 . S
C1463 U1446 2.882 . S
C1463 C1457 1.428 . S
C1463 O1466 1.301 . S
C1463 O1467 1.282 . S
O1464 U1446 2.441 . S
O1464 C1450 1.249 . S
O1465 U1446 2.420 . S
O1465 C1450 1.202 . S
O1466 U1446 2.455 . S
O1466 C1463 1.301 . S
O1467 U1446 2.449 . S
O1467 C1463 1.282 . S
H1468 C1441 0.931 . S
H1469 C1443 0.929 . S
H1470 C1444 0.930 . S
H1471 C1445 0.931 . S
H1472 C1452 0.932 . S
H1473 C1453 0.930 . S
H1474 C1454 0.929 . S
H1475 C1456 0.930 . S
H1476 C1458 0.932 . S
H1477 C1459 0.929 . S
H1478 C1460 0.928 . S
H1479 C1462 0.932 . S
C1480 C1481 1.264 . S
C1480 C1485 1.479 . S
C1480 C1490 1.465 . S
C1481 C1480 1.264 . S
C1481 C1483 1.339 . S
C1481 H1508 0.931 . S
C1482 C1483 1.395 . S
C1482 C1484 1.320 . S
C1483 C1481 1.339 . S
C1483 C1482 1.395 . S
C1483 H1509 0.929 . S
C1484 C1482 1.320 . S
C1484 C1485 1.405 . S
C1484 H1510 0.930 . S
C1485 C1480 1.479 . S
C1485 C1484 1.405 . S
C1485 H1511 0.931 . S
U1486 O1487 2.454 . S
U1486 O1488 2.458 . S
U1486 C1489 2.984 . S
U1486 C1490 2.847 . S
U1486 C1503 2.882 . S
U1486 O1504 2.441 . S
U1486 O1505 2.420 . S
U1486 O1506 2.455 . S
U1486 O1507 2.449 . S
O1487 U1486 2.454 . S
O1487 C1489 1.353 . S
O1488 U1486 2.458 . S
O1488 C1489 1.286 . S
C1489 U1486 2.984 . S
C1489 O1487 1.353 . S
C1489 O1488 1.286 . S
C1489 C1491 1.363 . S
C1490 C1480 1.465 . S
C1490 U1486 2.847 . S
C1490 O1504 1.249 . S
C1490 O1505 1.202 . S
C1491 C1489 1.363 . S
C1491 C1493 1.408 . S
C1491 C1496 1.342 . S
C1492 C1493 1.310 . S
C1492 C1495 1.461 . S
C1492 H1512 0.932 . S
C1493 C1491 1.408 . S
C1493 C1492 1.310 . S
C1493 H1513 0.930 . S
C1494 C1495 1.474 . S
C1494 C1496 1.285 . S
C1494 H1514 0.929 . S
C1495 C1492 1.461 . S
C1495 C1494 1.474 . S
C1496 C1491 1.342 . S
C1496 C1494 1.285 . S
C1496 H1515 0.930 . S
C1497 C1500 1.424 . S
C1497 C1502 1.245 . S
C1497 C1503 1.428 . S
C1498 C1501 1.260 . S
C1498 C1502 1.477 . S
C1498 H1516 0.932 . S
C1499 C1500 1.384 . S
C1499 C1501 1.479 . S
C1499 H1517 0.929 . S
C1500 C1497 1.424 . S
C1500 C1499 1.384 . S
C1500 H1518 0.928 . S
C1501 C1498 1.260 . S
C1501 C1499 1.479 . S
C1502 C1497 1.245 . S
C1502 C1498 1.477 . S
C1502 H1519 0.932 . S
C1503 U1486 2.882 . S
C1503 C1497 1.428 . S
C1503 O1506 1.301 . S
C1503 O1507 1.282 . S
O1504 U1486 2.441 . S
O1504 C1490 1.249 . S
O1505 U1486 2.420 . S
O1505 C1490 1.202 . S
O1506 U1486 2.455 . S
O1506 C1503 1.301 . S
O1507 U1486 2.449 . S
O1507 C1503 1.282 . S
H1508 C1481 0.931 . S
H1509 C1483 0.929 . S
H1510 C1484 0.930 . S
H1511 C1485 0.931 . S
H1512 C1492 0.932 . S
H1513 C1493 0.930 . S
H1514 C1494 0.929 . S
H1515 C1496 0.930 . S
H1516 C1498 0.932 . S
H1517 C1499 0.929 . S
H1518 C1500 0.928 . S
H1519 C1502 0.932 . S
C1520 C1521 1.264 . S
C1520 C1525 1.479 . S
C1520 C1530 1.465 . S
C1521 C1520 1.264 . S
C1521 C1523 1.339 . S
C1521 H1548 0.931 . S
C1522 C1523 1.395 . S
C1522 C1524 1.320 . S
C1523 C1521 1.339 . S
C1523 C1522 1.395 . S
C1523 H1549 0.929 . S
C1524 C1522 1.320 . S
C1524 C1525 1.405 . S
C1524 H1550 0.930 . S
C1525 C1520 1.479 . S
C1525 C1524 1.405 . S
C1525 H1551 0.931 . S
U1526 O1527 2.454 . S
U1526 O1528 2.458 . S
U1526 C1529 2.984 . S
U1526 C1530 2.847 . S
U1526 C1543 2.882 . S
U1526 O1544 2.441 . S
U1526 O1545 2.420 . S
U1526 O1546 2.455 . S
U1526 O1547 2.449 . S
O1527 U1526 2.454 . S
O1527 C1529 1.353 . S
O1528 U1526 2.458 . S
O1528 C1529 1.286 . S
C1529 U1526 2.984 . S
C1529 O1527 1.353 . S
C1529 O1528 1.286 . S
C1529 C1531 1.363 . S
C1530 C1520 1.465 . S
C1530 U1526 2.847 . S
C1530 O1544 1.249 . S
C1530 O1545 1.202 . S
C1531 C1529 1.363 . S
C1531 C1533 1.408 . S
C1531 C1536 1.342 . S
C1532 C1533 1.310 . S
C1532 C1535 1.461 . S
C1532 H1552 0.932 . S
C1533 C1531 1.408 . S
C1533 C1532 1.310 . S
C1533 H1553 0.930 . S
C1534 C1535 1.474 . S
C1534 C1536 1.285 . S
C1534 H1554 0.929 . S
C1535 C1532 1.461 . S
C1535 C1534 1.474 . S
C1536 C1531 1.342 . S
C1536 C1534 1.285 . S
C1536 H1555 0.930 . S
C1537 C1540 1.424 . S
C1537 C1542 1.245 . S
C1537 C1543 1.428 . S
C1538 C1541 1.260 . S
C1538 C1542 1.477 . S
C1538 H1556 0.932 . S
C1539 C1540 1.384 . S
C1539 C1541 1.479 . S
C1539 H1557 0.929 . S
C1540 C1537 1.424 . S
C1540 C1539 1.384 . S
C1540 H1558 0.928 . S
C1541 C1538 1.260 . S
C1541 C1539 1.479 . S
C1542 C1537 1.245 . S
C1542 C1538 1.477 . S
C1542 H1559 0.932 . S
C1543 U1526 2.882 . S
C1543 C1537 1.428 . S
C1543 O1546 1.301 . S
C1543 O1547 1.282 . S
O1544 U1526 2.441 . S
O1544 C1530 1.249 . S
O1545 U1526 2.420 . S
O1545 C1530 1.202 . S
O1546 U1526 2.455 . S
O1546 C1543 1.301 . S
O1547 U1526 2.449 . S
O1547 C1543 1.282 . S
H1548 C1521 0.931 . S
H1549 C1523 0.929 . S
H1550 C1524 0.930 . S
H1551 C1525 0.931 . S
H1552 C1532 0.932 . S
H1553 C1533 0.930 . S
H1554 C1534 0.929 . S
H1555 C1536 0.930 . S
H1556 C1538 0.932 . S
H1557 C1539 0.929 . S
H1558 C1540 0.928 . S
H1559 C1542 0.932 . S
C1560 C1561 1.264 . S
C1560 C1565 1.479 . S
C1560 C1570 1.465 . S
C1561 C1560 1.264 . S
C1561 C1563 1.339 . S
C1561 H1588 0.931 . S
C1562 C1563 1.395 . S
C1562 C1564 1.320 . S
C1563 C1561 1.339 . S
C1563 C1562 1.395 . S
C1563 H1589 0.929 . S
C1564 C1562 1.320 . S
C1564 C1565 1.405 . S
C1564 H1590 0.930 . S
C1565 C1560 1.479 . S
C1565 C1564 1.405 . S
C1565 H1591 0.931 . S
U1566 O1567 2.454 . S
U1566 O1568 2.458 . S
U1566 C1569 2.984 . S
U1566 C1570 2.847 . S
U1566 C1583 2.882 . S
U1566 O1584 2.441 . S
U1566 O1585 2.420 . S
U1566 O1586 2.455 . S
U1566 O1587 2.449 . S
O1567 U1566 2.454 . S
O1567 C1569 1.353 . S
O1568 U1566 2.458 . S
O1568 C1569 1.286 . S
C1569 U1566 2.984 . S
C1569 O1567 1.353 . S
C1569 O1568 1.286 . S
C1569 C1571 1.363 . S
C1570 C1560 1.465 . S
C1570 U1566 2.847 . S
C1570 O1584 1.249 . S
C1570 O1585 1.202 . S
C1571 C1569 1.363 . S
C1571 C1573 1.408 . S
C1571 C1576 1.342 . S
C1572 C1573 1.310 . S
C1572 C1575 1.461 . S
C1572 H1592 0.932 . S
C1573 C1571 1.408 . S
C1573 C1572 1.310 . S
C1573 H1593 0.930 . S
C1574 C1575 1.474 . S
C1574 C1576 1.285 . S
C1574 H1594 0.929 . S
C1575 C1572 1.461 . S
C1575 C1574 1.474 . S
C1576 C1571 1.342 . S
C1576 C1574 1.285 . S
C1576 H1595 0.930 . S
C1577 C1580 1.424 . S
C1577 C1582 1.245 . S
C1577 C1583 1.428 . S
C1578 C1581 1.260 . S
C1578 C1582 1.477 . S
C1578 H1596 0.932 . S
C1579 C1580 1.384 . S
C1579 C1581 1.479 . S
C1579 H1597 0.929 . S
C1580 C1577 1.424 . S
C1580 C1579 1.384 . S
C1580 H1598 0.928 . S
C1581 C1578 1.260 . S
C1581 C1579 1.479 . S
C1582 C1577 1.245 . S
C1582 C1578 1.477 . S
C1582 H1599 0.932 . S
C1583 U1566 2.882 . S
C1583 C1577 1.428 . S
C1583 O1586 1.301 . S
C1583 O1587 1.282 . S
O1584 U1566 2.441 . S
O1584 C1570 1.249 . S
O1585 U1566 2.420 . S
O1585 C1570 1.202 . S
O1586 U1566 2.455 . S
O1586 C1583 1.301 . S
O1587 U1566 2.449 . S
O1587 C1583 1.282 . S
H1588 C1561 0.931 . S
H1589 C1563 0.929 . S
H1590 C1564 0.930 . S
H1591 C1565 0.931 . S
H1592 C1572 0.932 . S
H1593 C1573 0.930 . S
H1594 C1574 0.929 . S
H1595 C1576 0.930 . S
H1596 C1578 0.932 . S
H1597 C1579 0.929 . S
H1598 C1580 0.928 . S
H1599 C1582 0.932 . S
C1600 C1601 1.264 . S
C1600 C1605 1.479 . S
C1600 C1610 1.465 . S
C1601 C1600 1.264 . S
C1601 C1603 1.339 . S
C1601 H1628 0.931 . S
C1602 C1603 1.395 . S
C1602 C1604 1.320 . S
C1603 C1601 1.339 . S
C1603 C1602 1.395 . S
C1603 H1629 0.929 . S
C1604 C1602 1.320 . S
C1604 C1605 1.405 . S
C1604 H1630 0.930 . S
C1605 C1600 1.479 . S
C1605 C1604 1.405 . S
C1605 H1631 0.931 . S
U1606 O1607 2.454 1_455 S
U1606 O1608 2.458 . S
U1606 C1609 2.984 . S
U1606 C1610 2.847 1_455 S
U1606 C1623 2.882 . S
U1606 O1624 2.441 1_455 S
U1606 O1625 2.420 1_455 S
U1606 O1626 2.455 . S
U1606 O1627 2.449 . S
O1607 U1606 2.454 1_655 S
O1607 C1609 1.353 1_655 S
O1608 U1606 2.458 . S
O1608 C1609 1.286 . S
C1609 U1606 2.984 . S
C1609 O1607 1.353 1_455 S
C1609 O1608 1.286 . S
C1609 C1611 1.363 . S
C1610 C1600 1.465 . S
C1610 U1606 2.847 1_655 S
C1610 O1624 1.249 . S
C1610 O1625 1.202 . S
C1611 C1609 1.363 . S
C1611 C1613 1.469 . S
C1611 C1616 1.342 . S
C1612 C1613 1.322 . S
C1612 C1615 1.461 . S
C1612 H1632 0.932 1_455 S
C1613 C1611 1.469 . S
C1613 C1612 1.322 . S
C1613 H1633 0.864 1_455 S
C1614 C1615 1.474 . S
C1614 C1616 1.285 . S
C1614 H1634 0.929 . S
C1615 C1612 1.461 . S
C1615 C1614 1.474 . S
C1616 C1611 1.342 . S
C1616 C1614 1.285 . S
C1616 H1635 0.930 . S
C1617 C1620 1.424 . S
C1617 C1622 1.245 . S
C1617 C1623 1.428 . S
C1618 C1621 1.260 . S
C1618 C1622 1.477 . S
C1618 H1636 0.932 . S
C1619 C1620 1.384 . S
C1619 C1621 1.479 . S
C1619 H1637 0.929 . S
C1620 C1617 1.424 . S
C1620 C1619 1.384 . S
C1620 H1638 0.928 . S
C1621 C1618 1.260 . S
C1621 C1619 1.479 . S
C1622 C1617 1.245 . S
C1622 C1618 1.477 . S
C1622 H1639 0.932 . S
C1623 U1606 2.882 . S
C1623 C1617 1.428 . S
C1623 O1626 1.301 . S
C1623 O1627 1.282 . S
O1624 U1606 2.441 1_655 S
O1624 C1610 1.249 . S
O1625 U1606 2.420 1_655 S
O1625 C1610 1.202 . S
O1626 U1606 2.455 . S
O1626 C1623 1.301 . S
O1627 U1606 2.449 . S
O1627 C1623 1.282 . S
H1628 C1601 0.931 . S
H1629 C1603 0.929 . S
H1630 C1604 0.930 . S
H1631 C1605 0.931 . S
H1632 C1612 0.932 1_655 S
H1633 C1613 0.864 1_655 S
H1634 C1614 0.929 . S
H1635 C1616 0.930 . S
H1636 C1618 0.932 . S
H1637 C1619 0.929 . S
H1638 C1620 0.928 . S
H1639 C1622 0.932 . S
C1640 C1641 1.264 . S
C1640 C1645 1.479 . S
C1640 C1650 1.465 . S
C1641 C1640 1.264 . S
C1641 C1643 1.339 . S
C1641 H1668 0.931 . S
C1642 C1643 1.395 . S
C1642 C1644 1.320 . S
C1643 C1641 1.339 . S
C1643 C1642 1.395 . S
C1643 H1669 0.929 . S
C1644 C1642 1.320 . S
C1644 C1645 1.405 . S
C1644 H1670 0.930 . S
C1645 C1640 1.479 . S
C1645 C1644 1.405 . S
C1645 H1671 0.931 . S
U1646 O1647 2.454 . S
U1646 O1648 2.458 . S
U1646 C1649 2.984 . S
U1646 C1650 2.847 . S
U1646 C1663 2.882 . S
U1646 O1664 2.441 . S
U1646 O1665 2.420 . S
U1646 O1666 2.455 . S
U1646 O1667 2.449 . S
O1647 U1646 2.454 . S
O1647 C1649 1.353 . S
O1648 U1646 2.458 . S
O1648 C1649 1.286 . S
C1649 U1646 2.984 . S
C1649 O1647 1.353 . S
C1649 O1648 1.286 . S
C1649 C1651 1.363 . S
C1650 C1640 1.465 . S
C1650 U1646 2.847 . S
C1650 O1664 1.249 . S
C1650 O1665 1.202 . S
C1651 C1649 1.363 . S
C1651 C1653 1.408 . S
C1651 C1656 1.342 . S
C1652 C1653 1.310 . S
C1652 C1655 1.461 . S
C1652 H1672 0.932 . S
C1653 C1651 1.408 . S
C1653 C1652 1.310 . S
C1653 H1673 0.930 . S
C1654 C1655 1.474 . S
C1654 C1656 1.285 . S
C1654 H1674 0.929 . S
C1655 C1652 1.461 . S
C1655 C1654 1.474 . S
C1656 C1651 1.342 . S
C1656 C1654 1.285 . S
C1656 H1675 0.930 . S
C1657 C1660 1.424 . S
C1657 C1662 1.245 . S
C1657 C1663 1.428 . S
C1658 C1661 1.260 . S
C1658 C1662 1.477 . S
C1658 H1676 0.932 . S
C1659 C1660 1.384 . S
C1659 C1661 1.479 . S
C1659 H1677 0.929 . S
C1660 C1657 1.424 . S
C1660 C1659 1.384 . S
C1660 H1678 0.928 . S
C1661 C1658 1.260 . S
C1661 C1659 1.479 . S
C1662 C1657 1.245 . S
C1662 C1658 1.477 . S
C1662 H1679 0.932 . S
C1663 U1646 2.882 . S
C1663 C1657 1.428 . S
C1663 O1666 1.301 . S
C1663 O1667 1.282 . S
O1664 U1646 2.441 . S
O1664 C1650 1.249 . S
O1665 U1646 2.420 . S
O1665 C1650 1.202 . S
O1666 U1646 2.455 . S
O1666 C1663 1.301 . S
O1667 U1646 2.449 . S
O1667 C1663 1.282 . S
H1668 C1641 0.931 . S
H1669 C1643 0.929 . S
H1670 C1644 0.930 . S
H1671 C1645 0.931 . S
H1672 C1652 0.932 . S
H1673 C1653 0.930 . S
H1674 C1654 0.929 . S
H1675 C1656 0.930 . S
H1676 C1658 0.932 . S
H1677 C1659 0.929 . S
H1678 C1660 0.928 . S
H1679 C1662 0.932 . S
C1680 C1681 1.264 . S
C1680 C1685 1.479 . S
C1680 C1690 1.465 . S
C1681 C1680 1.264 . S
C1681 C1683 1.339 . S
C1681 H1708 0.931 . S
C1682 C1683 1.395 . S
C1682 C1684 1.320 . S
C1683 C1681 1.339 . S
C1683 C1682 1.395 . S
C1683 H1709 0.929 . S
C1684 C1682 1.320 . S
C1684 C1685 1.405 . S
C1684 H1710 0.930 . S
C1685 C1680 1.479 . S
C1685 C1684 1.405 . S
C1685 H1711 0.931 . S
U1686 O1687 2.454 . S
U1686 O1688 2.458 . S
U1686 C1689 2.984 . S
U1686 C1690 2.847 . S
U1686 C1703 2.882 . S
U1686 O1704 2.441 . S
U1686 O1705 2.420 . S
U1686 O1706 2.455 . S
U1686 O1707 2.449 . S
O1687 U1686 2.454 . S
O1687 C1689 1.353 . S
O1688 U1686 2.458 . S
O1688 C1689 1.286 . S
C1689 U1686 2.984 . S
C1689 O1687 1.353 . S
C1689 O1688 1.286 . S
C1689 C1691 1.363 1_554 S
C1690 C1680 1.465 . S
C1690 U1686 2.847 . S
C1690 O1704 1.249 . S
C1690 O1705 1.202 . S
C1691 C1689 1.363 1_556 S
C1691 C1693 1.408 . S
C1691 C1696 1.342 . S
C1692 C1693 1.310 . S
C1692 C1695 1.461 . S
C1692 H1712 0.932 . S
C1693 C1691 1.408 . S
C1693 C1692 1.310 . S
C1693 H1713 0.930 . S
C1694 C1695 1.474 . S
C1694 C1696 1.285 . S
C1694 H1714 0.929 . S
C1695 C1692 1.461 . S
C1695 C1694 1.474 . S
C1696 C1691 1.342 . S
C1696 C1694 1.285 . S
C1696 H1715 0.878 1_556 S
C1697 C1700 1.424 . S
C1697 C1702 1.245 . S
C1697 C1703 1.428 . S
C1698 C1701 1.260 . S
C1698 C1702 1.477 . S
C1698 H1716 0.932 . S
C1699 C1700 1.384 . S
C1699 C1701 1.479 . S
C1699 H1717 0.929 . S
C1700 C1697 1.424 . S
C1700 C1699 1.384 . S
C1700 H1718 0.928 . S
C1701 C1698 1.260 . S
C1701 C1699 1.479 . S
C1702 C1697 1.245 . S
C1702 C1698 1.477 . S
C1702 H1719 0.932 . S
C1703 U1686 2.882 . S
C1703 C1697 1.428 . S
C1703 O1706 1.301 . S
C1703 O1707 1.282 . S
O1704 U1686 2.441 . S
O1704 C1690 1.249 . S
O1705 U1686 2.420 . S
O1705 C1690 1.202 . S
O1706 U1686 2.455 . S
O1706 C1703 1.301 . S
O1707 U1686 2.449 . S
O1707 C1703 1.282 . S
H1708 C1681 0.931 . S
H1709 C1683 0.929 . S
H1710 C1684 0.930 . S
H1711 C1685 0.931 . S
H1712 C1692 0.932 . S
H1713 C1693 0.930 . S
H1714 C1694 0.929 . S
H1715 C1696 0.878 1_554 S
H1716 C1698 0.932 . S
H1717 C1699 0.929 . S
H1718 C1700 0.928 . S
H1719 C1702 0.932 . S
C1720 C1721 1.264 . S
C1720 C1725 1.479 . S
C1720 C1730 1.465 . S
C1721 C1720 1.264 . S
C1721 C1723 1.339 . S
C1721 H1748 0.931 . S
C1722 C1723 1.395 . S
C1722 C1724 1.320 . S
C1723 C1721 1.339 . S
C1723 C1722 1.395 . S
C1723 H1749 0.929 . S
C1724 C1722 1.320 . S
C1724 C1725 1.405 . S
C1724 H1750 0.930 . S
C1725 C1720 1.479 . S
C1725 C1724 1.405 . S
C1725 H1751 0.931 . S
U1726 O1727 2.454 . S
U1726 O1728 2.458 . S
U1726 C1729 2.984 . S
U1726 C1730 2.847 . S
U1726 C1743 2.882 . S
U1726 O1744 2.441 . S
U1726 O1745 2.420 . S
U1726 O1746 2.455 . S
U1726 O1747 2.449 . S
O1727 U1726 2.454 . S
O1727 C1729 1.353 . S
O1728 U1726 2.458 . S
O1728 C1729 1.286 . S
C1729 U1726 2.984 . S
C1729 O1727 1.353 . S
C1729 O1728 1.286 . S
C1729 C1731 1.363 . S
C1730 C1720 1.465 . S
C1730 U1726 2.847 . S
C1730 O1744 1.249 . S
C1730 O1745 1.202 . S
C1731 C1729 1.363 . S
C1731 C1733 1.408 . S
C1731 C1736 1.342 . S
C1732 C1733 1.310 . S
C1732 C1735 1.461 . S
C1732 H1752 0.932 . S
C1733 C1731 1.408 . S
C1733 C1732 1.310 . S
C1733 H1753 0.930 . S
C1734 C1735 1.474 . S
C1734 C1736 1.285 . S
C1734 H1754 0.929 . S
C1735 C1732 1.461 . S
C1735 C1734 1.474 . S
C1736 C1731 1.342 . S
C1736 C1734 1.285 . S
C1736 H1755 0.930 . S
C1737 C1740 1.424 . S
C1737 C1742 1.245 . S
C1737 C1743 1.428 . S
C1738 C1741 1.260 . S
C1738 C1742 1.477 . S
C1738 H1756 0.932 . S
C1739 C1740 1.384 . S
C1739 C1741 1.479 . S
C1739 H1757 0.929 . S
C1740 C1737 1.424 . S
C1740 C1739 1.384 . S
C1740 H1758 0.928 . S
C1741 C1738 1.260 . S
C1741 C1739 1.479 . S
C1742 C1737 1.245 . S
C1742 C1738 1.477 . S
C1742 H1759 0.932 . S
C1743 U1726 2.882 . S
C1743 C1737 1.428 . S
C1743 O1746 1.301 . S
C1743 O1747 1.282 . S
O1744 U1726 2.441 . S
O1744 C1730 1.249 . S
O1745 U1726 2.420 . S
O1745 C1730 1.202 . S
O1746 U1726 2.455 . S
O1746 C1743 1.301 . S
O1747 U1726 2.449 . S
O1747 C1743 1.282 . S
H1748 C1721 0.931 . S
H1749 C1723 0.929 . S
H1750 C1724 0.930 . S
H1751 C1725 0.931 . S
H1752 C1732 0.932 . S
H1753 C1733 0.930 . S
H1754 C1734 0.929 . S
H1755 C1736 0.930 . S
H1756 C1738 0.932 . S
H1757 C1739 0.929 . S
H1758 C1740 0.928 . S
H1759 C1742 0.932 . S
C1760 C1761 1.264 . S
C1760 C1765 1.479 . S
C1760 C1770 1.465 . S
C1761 C1760 1.264 . S
C1761 C1763 1.339 . S
C1761 H1788 0.931 . S
C1762 C1763 1.395 . S
C1762 C1764 1.320 . S
C1763 C1761 1.339 . S
C1763 C1762 1.395 . S
C1763 H1789 0.929 . S
C1764 C1762 1.320 . S
C1764 C1765 1.405 . S
C1764 H1790 0.930 . S
C1765 C1760 1.479 . S
C1765 C1764 1.405 . S
C1765 H1791 0.931 . S
U1766 O1767 2.454 . S
U1766 O1768 2.458 . S
U1766 C1769 2.984 . S
U1766 C1770 2.847 . S
U1766 C1783 2.882 . S
U1766 O1784 2.441 . S
U1766 O1785 2.420 . S
U1766 O1786 2.455 . S
U1766 O1787 2.449 . S
O1767 U1766 2.454 . S
O1767 C1769 1.353 . S
O1768 U1766 2.458 . S
O1768 C1769 1.286 . S
C1769 U1766 2.984 . S
C1769 O1767 1.353 . S
C1769 O1768 1.286 . S
C1769 C1771 1.363 . S
C1770 C1760 1.465 . S
C1770 U1766 2.847 . S
C1770 O1784 1.249 . S
C1770 O1785 1.202 . S
C1771 C1769 1.363 . S
C1771 C1773 1.408 . S
C1771 C1776 1.342 . S
C1772 C1773 1.310 . S
C1772 C1775 1.461 . S
C1772 H1792 0.932 . S
C1773 C1771 1.408 . S
C1773 C1772 1.310 . S
C1773 H1793 0.930 . S
C1774 C1775 1.474 . S
C1774 C1776 1.285 . S
C1774 H1794 0.929 . S
C1775 C1772 1.461 . S
C1775 C1774 1.474 . S
C1776 C1771 1.342 . S
C1776 C1774 1.285 . S
C1776 H1795 0.930 . S
C1777 C1780 1.424 . S
C1777 C1782 1.245 . S
C1777 C1783 1.428 . S
C1778 C1781 1.260 . S
C1778 C1782 1.477 . S
C1778 H1796 0.932 . S
C1779 C1780 1.384 . S
C1779 C1781 1.479 . S
C1779 H1797 0.929 . S
C1780 C1777 1.424 . S
C1780 C1779 1.384 . S
C1780 H1798 0.928 . S
C1781 C1778 1.260 . S
C1781 C1779 1.479 . S
C1782 C1777 1.245 . S
C1782 C1778 1.477 . S
C1782 H1799 0.932 . S
C1783 U1766 2.882 . S
C1783 C1777 1.428 . S
C1783 O1786 1.301 . S
C1783 O1787 1.282 . S
O1784 U1766 2.441 . S
O1784 C1770 1.249 . S
O1785 U1766 2.420 . S
O1785 C1770 1.202 . S
O1786 U1766 2.455 . S
O1786 C1783 1.301 . S
O1787 U1766 2.449 . S
O1787 C1783 1.282 . S
H1788 C1761 0.931 . S
H1789 C1763 0.929 . S
H1790 C1764 0.930 . S
H1791 C1765 0.931 . S
H1792 C1772 0.932 . S
H1793 C1773 0.930 . S
H1794 C1774 0.929 . S
H1795 C1776 0.930 . S
H1796 C1778 0.932 . S
H1797 C1779 0.929 . S
H1798 C1780 0.928 . S
H1799 C1782 0.932 . S
C1800 C1801 1.264 . S
C1800 C1805 1.479 . S
C1800 C1810 1.465 . S
C1801 C1800 1.264 . S
C1801 C1803 1.339 . S
C1801 H1828 0.931 . S
C1802 C1803 1.395 . S
C1802 C1804 1.320 . S
C1803 C1801 1.339 . S
C1803 C1802 1.395 . S
C1803 H1829 0.929 . S
C1804 C1802 1.320 . S
C1804 C1805 1.405 . S
C1804 H1830 0.930 . S
C1805 C1800 1.479 . S
C1805 C1804 1.405 . S
C1805 H1831 0.931 . S
U1806 O1807 2.454 . S
U1806 O1808 2.458 . S
U1806 C1809 2.984 . S
U1806 C1810 2.847 . S
U1806 C1823 2.882 . S
U1806 O1824 2.441 . S
U1806 O1825 2.420 . S
U1806 O1826 2.455 . S
U1806 O1827 2.449 . S
O1807 U1806 2.454 . S
O1807 C1809 1.353 . S
O1808 U1806 2.458 . S
O1808 C1809 1.286 . S
C1809 U1806 2.984 . S
C1809 O1807 1.353 . S
C1809 O1808 1.286 . S
C1809 C1811 1.363 . S
C1810 C1800 1.465 . S
C1810 U1806 2.847 . S
C1810 O1824 1.249 . S
C1810 O1825 1.202 . S
C1811 C1809 1.363 . S
C1811 C1813 1.408 . S
C1811 C1816 1.342 . S
C1812 C1813 1.310 . S
C1812 C1815 1.461 . S
C1812 H1832 0.932 . S
C1813 C1811 1.408 . S
C1813 C1812 1.310 . S
C1813 H1833 0.930 . S
C1814 C1815 1.474 . S
C1814 C1816 1.285 . S
C1814 H1834 0.929 . S
C1815 C1812 1.461 . S
C1815 C1814 1.474 . S
C1816 C1811 1.342 . S
C1816 C1814 1.285 . S
C1816 H1835 0.930 . S
C1817 C1820 1.424 . S
C1817 C1822 1.245 . S
C1817 C1823 1.428 . S
C1818 C1821 1.260 . S
C1818 C1822 1.477 . S
C1818 H1836 0.932 . S
C1819 C1820 1.384 . S
C1819 C1821 1.479 . S
C1819 H1837 0.929 . S
C1820 C1817 1.424 . S
C1820 C1819 1.384 . S
C1820 H1838 0.928 . S
C1821 C1818 1.260 . S
C1821 C1819 1.479 . S
C1822 C1817 1.245 . S
C1822 C1818 1.477 . S
C1822 H1839 0.932 . S
C1823 U1806 2.882 . S
C1823 C1817 1.428 . S
C1823 O1826 1.301 . S
C1823 O1827 1.282 . S
O1824 U1806 2.441 . S
O1824 C1810 1.249 . S
O1825 U1806 2.420 . S
O1825 C1810 1.202 . S
O1826 U1806 2.455 . S
O1826 C1823 1.301 . S
O1827 U1806 2.449 . S
O1827 C1823 1.282 . S
H1828 C1801 0.931 . S
H1829 C1803 0.929 . S
H1830 C1804 0.930 . S
H1831 C1805 0.931 . S
H1832 C1812 0.932 . S
H1833 C1813 0.930 . S
H1834 C1814 0.929 . S
H1835 C1816 0.930 . S
H1836 C1818 0.932 . S
H1837 C1819 0.929 . S
H1838 C1820 0.928 . S
H1839 C1822 0.932 . S
C1840 C1841 1.264 . S
C1840 C1845 1.479 . S
C1840 C1850 1.465 . S
C1841 C1840 1.264 . S
C1841 C1843 1.339 . S
C1841 H1868 0.931 . S
C1842 C1843 1.395 . S
C1842 C1844 1.320 . S
C1843 C1841 1.339 . S
C1843 C1842 1.395 . S
C1843 H1869 0.929 . S
C1844 C1842 1.320 . S
C1844 C1845 1.405 . S
C1844 H1870 0.930 . S
C1845 C1840 1.479 . S
C1845 C1844 1.405 . S
C1845 H1871 0.931 . S
U1846 O1847 2.454 . S
U1846 O1848 2.458 . S
U1846 C1849 2.984 . S
U1846 C1850 2.847 . S
U1846 C1863 2.882 . S
U1846 O1864 2.441 . S
U1846 O1865 2.420 . S
U1846 O1866 2.455 . S
U1846 O1867 2.449 . S
O1847 U1846 2.454 . S
O1847 C1849 1.353 . S
O1848 U1846 2.458 . S
O1848 C1849 1.286 . S
C1849 U1846 2.984 . S
C1849 O1847 1.353 . S
C1849 O1848 1.286 . S
C1849 C1851 1.363 . S
C1850 C1840 1.465 . S
C1850 U1846 2.847 . S
C1850 O1864 1.249 . S
C1850 O1865 1.202 . S
C1851 C1849 1.363 . S
C1851 C1853 1.408 . S
C1851 C1856 1.342 . S
C1852 C1853 1.310 . S
C1852 C1855 1.461 . S
C1852 H1872 0.932 . S
C1853 C1851 1.408 . S
C1853 C1852 1.310 . S
C1853 H1873 0.930 . S
C1854 C1855 1.474 . S
C1854 C1856 1.285 . S
C1854 H1874 0.929 . S
C1855 C1852 1.461 . S
C1855 C1854 1.474 . S
C1856 C1851 1.342 . S
C1856 C1854 1.285 . S
C1856 H1875 0.930 . S
C1857 C1860 1.424 . S
C1857 C1862 1.245 . S
C1857 C1863 1.428 . S
C1858 C1861 1.260 . S
C1858 C1862 1.477 . S
C1858 H1876 0.932 . S
C1859 C1860 1.384 . S
C1859 C1861 1.479 . S
C1859 H1877 0.929 . S
C1860 C1857 1.424 . S
C1860 C1859 1.384 . S
C1860 H1878 0.928 . S
C1861 C1858 1.260 . S
C1861 C1859 1.479 . S
C1862 C1857 1.245 . S
C1862 C1858 1.477 . S
C1862 H1879 0.932 . S
C1863 U1846 2.882 . S
C1863 C1857 1.428 . S
C1863 O1866 1.301 . S
C1863 O1867 1.282 . S
O1864 U1846 2.441 . S
O1864 C1850 1.249 . S
O1865 U1846 2.420 . S
O1865 C1850 1.202 . S
O1866 U1846 2.455 . S
O1866 C1863 1.301 . S
O1867 U1846 2.449 . S
O1867 C1863 1.282 . S
H1868 C1841 0.931 . S
H1869 C1843 0.929 . S
H1870 C1844 0.930 . S
H1871 C1845 0.931 . S
H1872 C1852 0.932 . S
H1873 C1853 0.930 . S
H1874 C1854 0.929 . S
H1875 C1856 0.930 . S
H1876 C1858 0.932 . S
H1877 C1859 0.929 . S
H1878 C1860 0.928 . S
H1879 C1862 0.932 . S
C1880 C1881 1.264 . S
C1880 C1885 1.479 . S
C1880 C1890 1.465 . S
C1881 C1880 1.264 . S
C1881 C1883 1.339 . S
C1881 H1908 0.931 . S
C1882 C1883 1.395 . S
C1882 C1884 1.320 . S
C1883 C1881 1.339 . S
C1883 C1882 1.395 . S
C1883 H1909 0.929 . S
C1884 C1882 1.320 . S
C1884 C1885 1.405 . S
C1884 H1910 0.930 . S
C1885 C1880 1.479 . S
C1885 C1884 1.405 . S
C1885 H1911 0.931 . S
U1886 O1887 2.454 . S
U1886 O1888 2.458 . S
U1886 C1889 2.984 . S
U1886 C1890 2.847 . S
U1886 C1903 2.882 . S
U1886 O1904 2.441 . S
U1886 O1905 2.420 . S
U1886 O1906 2.455 . S
U1886 O1907 2.449 . S
O1887 U1886 2.454 . S
O1887 C1889 1.353 . S
O1888 U1886 2.458 . S
O1888 C1889 1.286 . S
C1889 U1886 2.984 . S
C1889 O1887 1.353 . S
C1889 O1888 1.286 . S
C1889 C1891 1.363 . S
C1890 C1880 1.465 . S
C1890 U1886 2.847 . S
C1890 O1904 1.249 . S
C1890 O1905 1.202 . S
C1891 C1889 1.363 . S
C1891 C1893 1.408 . S
C1891 C1896 1.342 . S
C1892 C1893 1.310 . S
C1892 C1895 1.461 . S
C1892 H1912 0.932 . S
C1893 C1891 1.408 . S
C1893 C1892 1.310 . S
C1893 H1913 0.930 . S
C1894 C1895 1.474 . S
C1894 C1896 1.285 . S
C1894 H1914 0.929 . S
C1895 C1892 1.461 . S
C1895 C1894 1.474 . S
C1896 C1891 1.342 . S
C1896 C1894 1.285 . S
C1896 H1915 0.930 . S
C1897 C1900 1.424 . S
C1897 C1902 1.245 . S
C1897 C1903 1.428 . S
C1898 C1901 1.260 . S
C1898 C1902 1.477 . S
C1898 H1916 0.932 . S
C1899 C1900 1.384 . S
C1899 C1901 1.479 . S
C1899 H1917 0.929 . S
C1900 C1897 1.424 . S
C1900 C1899 1.384 . S
C1900 H1918 0.928 . S
C1901 C1898 1.260 . S
C1901 C1899 1.479 . S
C1902 C1897 1.245 . S
C1902 C1898 1.477 . S
C1902 H1919 0.932 . S
C1903 U1886 2.882 . S
C1903 C1897 1.428 . S
C1903 O1906 1.301 . S
C1903 O1907 1.282 . S
O1904 U1886 2.441 . S
O1904 C1890 1.249 . S
O1905 U1886 2.420 . S
O1905 C1890 1.202 . S
O1906 U1886 2.455 . S
O1906 C1903 1.301 . S
O1907 U1886 2.449 . S
O1907 C1903 1.282 . S
H1908 C1881 0.931 . S
H1909 C1883 0.929 . S
H1910 C1884 0.930 . S
H1911 C1885 0.931 . S
H1912 C1892 0.932 . S
H1913 C1893 0.930 . S
H1914 C1894 0.929 . S
H1915 C1896 0.930 . S
H1916 C1898 0.932 . S
H1917 C1899 0.929 . S
H1918 C1900 0.928 . S
H1919 C1902 0.932 . S
H1920 C1925 0.930 . S
H1921 C1928 0.930 . S
H1922 C1930 0.930 . S
H1923 C1924 1.016 . S
C1924 H1923 1.016 . S
C1924 N1931 1.286 . S
C1925 H1920 0.930 . S
C1925 C1926 1.397 . S
C1925 C1927 1.361 . S
C1926 C1925 1.397 . S
C1926 C1930 1.390 . S
C1927 C1925 1.361 . S
C1927 C1928 1.393 . S
C1927 N1931 1.413 . S
C1928 H1921 0.930 . S
C1928 C1927 1.393 . S
C1928 C1929 1.399 . S
C1929 C1928 1.399 . S
C1929 C1930 1.381 . S
C1930 H1922 0.930 . S
C1930 C1926 1.390 . S
C1930 C1929 1.381 . S
N1931 C1924 1.286 . S
N1931 C1927 1.413 . S
H1932 C1937 0.930 . S
H1933 C1940 0.930 . S
H1934 C1942 0.930 . S
H1935 C1936 1.016 . S
C1936 H1935 1.016 . S
C1936 N1943 1.286 . S
C1937 H1932 0.930 . S
C1937 C1938 1.397 . S
C1937 C1939 1.361 . S
C1938 C1937 1.397 . S
C1938 C1942 1.390 . S
C1939 C1937 1.361 . S
C1939 C1940 1.393 . S
C1939 N1943 1.413 . S
C1940 H1933 0.930 . S
C1940 C1939 1.393 . S
C1940 C1941 1.399 . S
C1941 C1940 1.399 . S
C1941 C1942 1.381 . S
C1942 H1934 0.930 . S
C1942 C1938 1.390 . S
C1942 C1941 1.381 . S
N1943 C1936 1.286 . S
N1943 C1939 1.413 . S
H1944 C1949 0.930 . S
H1945 C1952 0.930 . S
H1946 C1954 0.930 . S
H1947 C1948 1.016 . S
C1948 H1947 1.016 . S
C1948 N1955 1.286 . S
C1949 H1944 0.930 . S
C1949 C1950 1.397 . S
C1949 C1951 1.361 . S
C1950 C1949 1.397 . S
C1950 C1954 1.390 . S
C1951 C1949 1.361 . S
C1951 C1952 1.393 . S
C1951 N1955 1.413 . S
C1952 H1945 0.930 . S
C1952 C1951 1.393 . S
C1952 C1953 1.399 . S
C1953 C1952 1.399 . S
C1953 C1954 1.381 . S
C1954 H1946 0.930 . S
C1954 C1950 1.390 . S
C1954 C1953 1.381 . S
N1955 C1948 1.286 . S
N1955 C1951 1.413 . S
H1956 C1961 0.930 . S
H1957 C1964 0.930 . S
H1958 C1966 0.930 . S
H1959 C1960 1.016 . S
C1960 H1959 1.016 . S
C1960 N1967 1.286 . S
C1961 H1956 0.930 . S
C1961 C1962 1.397 . S
C1961 C1963 1.361 . S
C1962 C1961 1.397 . S
C1962 C1966 1.390 . S
C1963 C1961 1.361 . S
C1963 C1964 1.393 . S
C1963 N1967 1.413 . S
C1964 H1957 0.930 . S
C1964 C1963 1.393 . S
C1964 C1965 1.399 . S
C1965 C1964 1.399 . S
C1965 C1966 1.381 . S
C1966 H1958 0.930 . S
C1966 C1962 1.390 . S
C1966 C1965 1.381 . S
N1967 C1960 1.286 . S
N1967 C1963 1.413 . S
H1968 C1973 0.930 . S
H1969 C1976 0.930 . S
H1970 C1978 0.930 . S
H1971 C1972 1.016 . S
C1972 H1971 1.016 . S
C1972 N1979 1.286 . S
C1973 H1968 0.930 . S
C1973 C1974 1.397 . S
C1973 C1975 1.361 . S
C1974 C1973 1.397 . S
C1974 C1978 1.390 . S
C1975 C1973 1.361 . S
C1975 C1976 1.393 . S
C1975 N1979 1.413 . S
C1976 H1969 0.930 . S
C1976 C1975 1.393 . S
C1976 C1977 1.399 . S
C1977 C1976 1.399 . S
C1977 C1978 1.381 . S
C1978 H1970 0.930 . S
C1978 C1974 1.390 . S
C1978 C1977 1.381 . S
N1979 C1972 1.286 . S
N1979 C1975 1.413 . S
H1980 C1985 0.930 . S
H1981 C1988 0.930 . S
H1982 C1990 0.930 . S
H1983 C1984 1.016 . S
C1984 H1983 1.016 . S
C1984 N1991 1.286 . S
C1985 H1980 0.930 . S
C1985 C1986 1.397 . S
C1985 C1987 1.361 . S
C1986 C1985 1.397 . S
C1986 C1990 1.390 . S
C1987 C1985 1.361 . S
C1987 C1988 1.393 . S
C1987 N1991 1.413 . S
C1988 H1981 0.930 . S
C1988 C1987 1.393 . S
C1988 C1989 1.399 . S
C1989 C1988 1.399 . S
C1989 C1990 1.381 . S
C1990 H1982 0.930 . S
C1990 C1986 1.390 . S
C1990 C1989 1.381 . S
N1991 C1984 1.286 . S
N1991 C1987 1.413 . S
H1992 C1997 0.930 . S
H1993 C2000 0.930 . S
H1994 C2002 0.930 . S
H1995 C1996 1.016 . S
C1996 H1995 1.016 . S
C1996 N2003 1.286 . S
C1997 H1992 0.930 . S
C1997 C1998 1.397 . S
C1997 C1999 1.361 . S
C1998 C1997 1.397 . S
C1998 C2002 1.390 . S
C1999 C1997 1.361 . S
C1999 C2000 1.393 . S
C1999 N2003 1.413 . S
C2000 H1993 0.930 . S
C2000 C1999 1.393 . S
C2000 C2001 1.399 . S
C2001 C2000 1.399 . S
C2001 C2002 1.381 . S
C2002 H1994 0.930 . S
C2002 C1998 1.390 . S
C2002 C2001 1.381 . S
N2003 C1996 1.286 . S
N2003 C1999 1.413 . S
H2004 C2009 0.930 . S
H2005 C2012 0.930 . S
H2006 C2014 0.930 . S
H2007 C2008 1.016 . S
C2008 H2007 1.016 . S
C2008 N2015 1.286 . S
C2009 H2004 0.930 . S
C2009 C2010 1.397 . S
C2009 C2011 1.361 . S
C2010 C2009 1.397 . S
C2010 C2014 1.390 . S
C2011 C2009 1.361 . S
C2011 C2012 1.393 . S
C2011 N2015 1.413 . S
C2012 H2005 0.930 . S
C2012 C2011 1.393 . S
C2012 C2013 1.399 . S
C2013 C2012 1.399 . S
C2013 C2014 1.381 . S
C2014 H2006 0.930 . S
C2014 C2010 1.390 . S
C2014 C2013 1.381 . S
N2015 C2008 1.286 . S
N2015 C2011 1.413 . S
H2016 C2021 0.930 . S
H2017 C2024 0.930 . S
H2018 C2026 0.930 . S
H2019 C2020 1.016 . S
C2020 H2019 1.016 . S
C2020 N2027 1.286 . S
C2021 H2016 0.930 . S
C2021 C2022 1.397 . S
C2021 C2023 1.361 . S
C2022 C2021 1.397 . S
C2022 C2026 1.390 . S
C2023 C2021 1.361 . S
C2023 C2024 1.393 . S
C2023 N2027 1.413 . S
C2024 H2017 0.930 . S
C2024 C2023 1.393 . S
C2024 C2025 1.399 . S
C2025 C2024 1.399 . S
C2025 C2026 1.381 . S
C2026 H2018 0.930 . S
C2026 C2022 1.390 . S
C2026 C2025 1.381 . S
N2027 C2020 1.286 . S
N2027 C2023 1.413 . S
H2028 C2033 0.930 . S
H2029 C2036 0.930 . S
H2030 C2038 0.930 . S
H2031 C2032 1.016 . S
C2032 H2031 1.016 . S
C2032 N2039 1.286 . S
C2033 H2028 0.930 . S
C2033 C2034 1.397 . S
C2033 C2035 1.361 . S
C2034 C2033 1.397 . S
C2034 C2038 1.390 . S
C2035 C2033 1.361 . S
C2035 C2036 1.393 . S
C2035 N2039 1.413 . S
C2036 H2029 0.930 . S
C2036 C2035 1.393 . S
C2036 C2037 1.399 . S
C2037 C2036 1.399 . S
C2037 C2038 1.381 . S
C2038 H2030 0.930 . S
C2038 C2034 1.390 . S
C2038 C2037 1.381 . S
N2039 C2032 1.286 . S
N2039 C2035 1.413 . S
H2040 C2045 0.930 . S
H2041 C2048 0.930 . S
H2042 C2050 0.930 . S
H2043 C2044 1.016 . S
C2044 H2043 1.016 . S
C2044 N2051 1.286 . S
C2045 H2040 0.930 . S
C2045 C2046 1.397 . S
C2045 C2047 1.361 . S
C2046 C2045 1.397 . S
C2046 C2050 1.390 . S
C2047 C2045 1.361 . S
C2047 C2048 1.393 . S
C2047 N2051 1.413 . S
C2048 H2041 0.930 . S
C2048 C2047 1.393 . S
C2048 C2049 1.399 . S
C2049 C2048 1.399 . S
C2049 C2050 1.381 . S
C2050 H2042 0.930 . S
C2050 C2046 1.390 . S
C2050 C2049 1.381 . S
N2051 C2044 1.286 . S
N2051 C2047 1.413 . S
H2052 C2057 0.930 . S
H2053 C2060 0.930 . S
H2054 C2062 0.930 . S
H2055 C2056 1.016 . S
C2056 H2055 1.016 . S
C2056 N2063 1.286 . S
C2057 H2052 0.930 . S
C2057 C2058 1.397 . S
C2057 C2059 1.361 . S
C2058 C2057 1.397 . S
C2058 C2062 1.390 . S
C2059 C2057 1.361 . S
C2059 C2060 1.393 . S
C2059 N2063 1.413 . S
C2060 H2053 0.930 . S
C2060 C2059 1.393 . S
C2060 C2061 1.399 . S
C2061 C2060 1.399 . S
C2061 C2062 1.381 . S
C2062 H2054 0.930 . S
C2062 C2058 1.390 . S
C2062 C2061 1.381 . S
N2063 C2056 1.286 . S
N2063 C2059 1.413 . S
H2064 C2069 0.930 . S
H2065 C2072 0.930 . S
H2066 C2074 0.930 . S
H2067 C2068 1.016 . S
C2068 H2067 1.016 . S
C2068 N2075 1.286 . S
C2069 H2064 0.930 . S
C2069 C2070 1.397 . S
C2069 C2071 1.361 . S
C2070 C2069 1.397 . S
C2070 C2074 1.390 . S
C2071 C2069 1.361 . S
C2071 C2072 1.393 . S
C2071 N2075 1.413 . S
C2072 H2065 0.930 . S
C2072 C2071 1.393 . S
C2072 C2073 1.399 . S
C2073 C2072 1.399 . S
C2073 C2074 1.381 . S
C2074 H2066 0.930 . S
C2074 C2070 1.390 . S
C2074 C2073 1.381 . S
N2075 C2068 1.286 . S
N2075 C2071 1.413 . S
H2076 C2081 0.930 . S
H2077 C2084 0.930 . S
H2078 C2086 0.930 . S
H2079 C2080 1.016 . S
C2080 H2079 1.016 . S
C2080 N2087 1.286 . S
C2081 H2076 0.930 . S
C2081 C2082 1.397 . S
C2081 C2083 1.361 . S
C2082 C2081 1.397 . S
C2082 C2086 1.390 . S
C2083 C2081 1.361 . S
C2083 C2084 1.393 . S
C2083 N2087 1.413 . S
C2084 H2077 0.930 . S
C2084 C2083 1.393 . S
C2084 C2085 1.399 . S
C2085 C2084 1.399 . S
C2085 C2086 1.381 . S
C2086 H2078 0.930 . S
C2086 C2082 1.390 . S
C2086 C2085 1.381 . S
N2087 C2080 1.286 . S
N2087 C2083 1.413 . S
H2088 C2093 0.930 . S
H2089 C2096 0.930 . S
H2090 C2098 0.930 . S
H2091 C2092 1.016 . S
C2092 H2091 1.016 . S
C2092 N2099 1.286 . S
C2093 H2088 0.930 . S
C2093 C2094 1.397 . S
C2093 C2095 1.361 . S
C2094 C2093 1.397 . S
C2094 C2098 1.390 . S
C2095 C2093 1.361 . S
C2095 C2096 1.393 . S
C2095 N2099 1.413 . S
C2096 H2089 0.930 . S
C2096 C2095 1.393 . S
C2096 C2097 1.399 . S
C2097 C2096 1.399 . S
C2097 C2098 1.381 . S
C2098 H2090 0.930 . S
C2098 C2094 1.390 . S
C2098 C2097 1.381 . S
N2099 C2092 1.286 . S
N2099 C2095 1.413 . S
H2100 C2105 0.930 . S
H2101 C2108 0.930 . S
H2102 C2110 0.930 . S
H2103 C2104 1.016 . S
C2104 H2103 1.016 . S
C2104 N2111 1.286 . S
C2105 H2100 0.930 . S
C2105 C2106 1.397 . S
C2105 C2107 1.361 . S
C2106 C2105 1.397 . S
C2106 C2110 1.390 . S
C2107 C2105 1.361 . S
C2107 C2108 1.393 . S
C2107 N2111 1.413 . S
C2108 H2101 0.930 . S
C2108 C2107 1.393 . S
C2108 C2109 1.399 . S
C2109 C2108 1.399 . S
C2109 C2110 1.381 . S
C2110 H2102 0.930 . S
C2110 C2106 1.390 . S
C2110 C2109 1.381 . S
N2111 C2104 1.286 . S
N2111 C2107 1.413 . S
H2112 C2117 0.930 . S
H2113 C2120 0.930 . S
H2114 C2122 0.930 . S
H2115 C2116 1.016 . S
C2116 H2115 1.016 . S
C2116 N2123 1.286 . S
C2117 H2112 0.930 . S
C2117 C2118 1.397 . S
C2117 C2119 1.361 . S
C2118 C2117 1.397 . S
C2118 C2122 1.390 . S
C2119 C2117 1.361 . S
C2119 C2120 1.393 . S
C2119 N2123 1.413 . S
C2120 H2113 0.930 . S
C2120 C2119 1.393 . S
C2120 C2121 1.399 . S
C2121 C2120 1.399 . S
C2121 C2122 1.381 . S
C2122 H2114 0.930 . S
C2122 C2118 1.390 . S
C2122 C2121 1.381 . S
N2123 C2116 1.286 . S
N2123 C2119 1.413 . S
H2124 C2129 0.930 . S
H2125 C2132 0.930 . S
H2126 C2134 0.930 . S
H2127 C2128 1.016 . S
C2128 H2127 1.016 . S
C2128 N2135 1.286 . S
C2129 H2124 0.930 . S
C2129 C2130 1.397 . S
C2129 C2131 1.361 . S
C2130 C2129 1.397 . S
C2130 C2134 1.390 . S
C2131 C2129 1.361 . S
C2131 C2132 1.393 . S
C2131 N2135 1.413 . S
C2132 H2125 0.930 . S
C2132 C2131 1.393 . S
C2132 C2133 1.399 . S
C2133 C2132 1.399 . S
C2133 C2134 1.381 . S
C2134 H2126 0.930 . S
C2134 C2130 1.390 . S
C2134 C2133 1.381 . S
N2135 C2128 1.286 . S
N2135 C2131 1.413 . S
H2136 C2141 0.930 . S
H2137 C2144 0.930 . S
H2138 C2146 0.930 . S
H2139 C2140 1.016 . S
C2140 H2139 1.016 . S
C2140 N2147 1.286 . S
C2141 H2136 0.930 . S
C2141 C2142 1.397 . S
C2141 C2143 1.361 . S
C2142 C2141 1.397 . S
C2142 C2146 1.390 . S
C2143 C2141 1.361 . S
C2143 C2144 1.393 . S
C2143 N2147 1.413 . S
C2144 H2137 0.930 . S
C2144 C2143 1.393 . S
C2144 C2145 1.399 . S
C2145 C2144 1.399 . S
C2145 C2146 1.381 . S
C2146 H2138 0.930 . S
C2146 C2142 1.390 . S
C2146 C2145 1.381 . S
N2147 C2140 1.286 . S
N2147 C2143 1.413 . S
H2148 C2153 0.930 . S
H2149 C2156 0.930 . S
H2150 C2158 0.930 . S
H2151 C2152 1.016 . S
C2152 H2151 1.016 . S
C2152 N2159 1.286 . S
C2153 H2148 0.930 . S
C2153 C2154 1.397 . S
C2153 C2155 1.361 . S
C2154 C2153 1.397 . S
C2154 C2158 1.390 . S
C2155 C2153 1.361 . S
C2155 C2156 1.393 . S
C2155 N2159 1.413 . S
C2156 H2149 0.930 . S
C2156 C2155 1.393 . S
C2156 C2157 1.399 . S
C2157 C2156 1.399 . S
C2157 C2158 1.381 . S
C2158 H2150 0.930 . S
C2158 C2154 1.390 . S
C2158 C2157 1.381 . S
N2159 C2152 1.286 . S
N2159 C2155 1.413 . S
H2160 C2165 0.930 . S
H2161 C2168 0.930 . S
H2162 C2170 0.930 . S
H2163 C2164 1.016 . S
C2164 H2163 1.016 . S
C2164 N2171 1.286 . S
C2165 H2160 0.930 . S
C2165 C2166 1.397 . S
C2165 C2167 1.361 . S
C2166 C2165 1.397 . S
C2166 C2170 1.390 . S
C2167 C2165 1.361 . S
C2167 C2168 1.393 . S
C2167 N2171 1.413 . S
C2168 H2161 0.930 . S
C2168 C2167 1.393 . S
C2168 C2169 1.399 . S
C2169 C2168 1.399 . S
C2169 C2170 1.381 . S
C2170 H2162 0.930 . S
C2170 C2166 1.390 . S
C2170 C2169 1.381 . S
N2171 C2164 1.286 . S
N2171 C2167 1.413 . S
H2172 C2177 0.930 . S
H2173 C2180 0.930 . S
H2174 C2182 0.930 . S
H2175 C2176 1.016 . S
C2176 H2175 1.016 . S
C2176 N2183 1.286 . S
C2177 H2172 0.930 . S
C2177 C2178 1.397 . S
C2177 C2179 1.361 . S
C2178 C2177 1.397 . S
C2178 C2182 1.390 . S
C2179 C2177 1.361 . S
C2179 C2180 1.393 . S
C2179 N2183 1.413 . S
C2180 H2173 0.930 . S
C2180 C2179 1.393 . S
C2180 C2181 1.399 . S
C2181 C2180 1.399 . S
C2181 C2182 1.381 . S
C2182 H2174 0.930 . S
C2182 C2178 1.390 . S
C2182 C2181 1.381 . S
N2183 C2176 1.286 . S
N2183 C2179 1.413 . S
H2184 C2189 0.930 . S
H2185 C2192 0.930 . S
H2186 C2194 0.930 . S
H2187 C2188 1.016 . S
C2188 H2187 1.016 . S
C2188 N2195 1.286 . S
C2189 H2184 0.930 . S
C2189 C2190 1.397 . S
C2189 C2191 1.361 . S
C2190 C2189 1.397 . S
C2190 C2194 1.390 . S
C2191 C2189 1.361 . S
C2191 C2192 1.393 . S
C2191 N2195 1.413 . S
C2192 H2185 0.930 . S
C2192 C2191 1.393 . S
C2192 C2193 1.399 . S
C2193 C2192 1.399 . S
C2193 C2194 1.381 . S
C2194 H2186 0.930 . S
C2194 C2190 1.390 . S
C2194 C2193 1.381 . S
N2195 C2188 1.286 . S
N2195 C2191 1.413 . S
H2196 C2201 0.930 . S
H2197 C2204 0.930 . S
H2198 C2206 0.930 . S
H2199 C2200 1.016 . S
C2200 H2199 1.016 . S
C2200 N2207 1.286 . S
C2201 H2196 0.930 . S
C2201 C2202 1.397 . S
C2201 C2203 1.361 . S
C2202 C2201 1.397 . S
C2202 C2206 1.390 . S
C2203 C2201 1.361 . S
C2203 C2204 1.393 . S
C2203 N2207 1.413 . S
C2204 H2197 0.930 . S
C2204 C2203 1.393 . S
C2204 C2205 1.399 . S
C2205 C2204 1.399 . S
C2205 C2206 1.381 . S
C2206 H2198 0.930 . S
C2206 C2202 1.390 . S
C2206 C2205 1.381 . S
N2207 C2200 1.286 . S
N2207 C2203 1.413 . S
H2208 C2213 0.930 . S
H2209 C2216 0.930 . S
H2210 C2218 0.930 . S
H2211 C2212 1.016 . S
C2212 H2211 1.016 . S
C2212 N2219 1.286 . S
C2213 H2208 0.930 . S
C2213 C2214 1.397 . S
C2213 C2215 1.361 . S
C2214 C2213 1.397 . S
C2214 C2218 1.390 . S
C2215 C2213 1.361 . S
C2215 C2216 1.393 . S
C2215 N2219 1.413 . S
C2216 H2209 0.930 . S
C2216 C2215 1.393 . S
C2216 C2217 1.399 . S
C2217 C2216 1.399 . S
C2217 C2218 1.381 . S
C2218 H2210 0.930 . S
C2218 C2214 1.390 . S
C2218 C2217 1.381 . S
N2219 C2212 1.286 . S
N2219 C2215 1.413 . S
H2220 C2225 0.930 . S
H2221 C2228 0.930 . S
H2222 C2230 0.930 . S
H2223 C2224 1.016 . S
C2224 H2223 1.016 . S
C2224 N2231 1.286 . S
C2225 H2220 0.930 . S
C2225 C2226 1.397 . S
C2225 C2227 1.361 . S
C2226 C2225 1.397 . S
C2226 C2230 1.390 . S
C2227 C2225 1.361 . S
C2227 C2228 1.393 . S
C2227 N2231 1.413 . S
C2228 H2221 0.930 . S
C2228 C2227 1.393 . S
C2228 C2229 1.399 . S
C2229 C2228 1.399 . S
C2229 C2230 1.381 . S
C2230 H2222 0.930 . S
C2230 C2226 1.390 . S
C2230 C2229 1.381 . S
N2231 C2224 1.286 . S
N2231 C2227 1.413 . S
H2232 C2237 0.930 . S
H2233 C2240 0.930 . S
H2234 C2242 0.930 . S
H2235 C2236 1.016 . S
C2236 H2235 1.016 . S
C2236 N2243 1.286 . S
C2237 H2232 0.930 . S
C2237 C2238 1.397 . S
C2237 C2239 1.361 . S
C2238 C2237 1.397 . S
C2238 C2242 1.390 . S
C2239 C2237 1.361 . S
C2239 C2240 1.393 . S
C2239 N2243 1.413 . S
C2240 H2233 0.930 . S
C2240 C2239 1.393 . S
C2240 C2241 1.399 . S
C2241 C2240 1.399 . S
C2241 C2242 1.381 . S
C2242 H2234 0.930 . S
C2242 C2238 1.390 . S
C2242 C2241 1.381 . S
N2243 C2236 1.286 . S
N2243 C2239 1.413 . S
H2244 C2249 0.930 . S
H2245 C2252 0.930 . S
H2246 C2254 0.930 . S
H2247 C2248 1.016 . S
C2248 H2247 1.016 . S
C2248 N2255 1.286 . S
C2249 H2244 0.930 . S
C2249 C2250 1.397 . S
C2249 C2251 1.361 . S
C2250 C2249 1.397 . S
C2250 C2254 1.390 . S
C2251 C2249 1.361 . S
C2251 C2252 1.393 . S
C2251 N2255 1.413 . S
C2252 H2245 0.930 . S
C2252 C2251 1.393 . S
C2252 C2253 1.399 . S
C2253 C2252 1.399 . S
C2253 C2254 1.381 . S
C2254 H2246 0.930 . S
C2254 C2250 1.390 . S
C2254 C2253 1.381 . S
N2255 C2248 1.286 . S
N2255 C2251 1.413 . S
H2256 C2261 0.930 . S
H2257 C2264 0.930 . S
H2258 C2266 0.930 . S
H2259 C2260 1.016 . S
C2260 H2259 1.016 . S
C2260 N2267 1.286 . S
C2261 H2256 0.930 . S
C2261 C2262 1.397 . S
C2261 C2263 1.361 . S
C2262 C2261 1.397 . S
C2262 C2266 1.390 . S
C2263 C2261 1.361 . S
C2263 C2264 1.393 . S
C2263 N2267 1.413 . S
C2264 H2257 0.930 . S
C2264 C2263 1.393 . S
C2264 C2265 1.399 . S
C2265 C2264 1.399 . S
C2265 C2266 1.381 . S
C2266 H2258 0.930 . S
C2266 C2262 1.390 . S
C2266 C2265 1.381 . S
N2267 C2260 1.286 . S
N2267 C2263 1.413 . S
H2268 C2273 0.930 . S
H2269 C2276 0.930 . S
H2270 C2278 0.930 . S
H2271 C2272 1.016 . S
C2272 H2271 1.016 . S
C2272 N2279 1.286 . S
C2273 H2268 0.930 . S
C2273 C2274 1.397 . S
C2273 C2275 1.361 . S
C2274 C2273 1.397 . S
C2274 C2278 1.390 . S
C2275 C2273 1.361 . S
C2275 C2276 1.393 . S
C2275 N2279 1.413 . S
C2276 H2269 0.930 . S
C2276 C2275 1.393 . S
C2276 C2277 1.399 . S
C2277 C2276 1.399 . S
C2277 C2278 1.381 . S
C2278 H2270 0.930 . S
C2278 C2274 1.390 . S
C2278 C2277 1.381 . S
N2279 C2272 1.286 . S
N2279 C2275 1.413 . S
H2280 C2285 0.930 . S
H2281 C2288 0.930 . S
H2282 C2290 0.930 . S
H2283 C2284 1.016 . S
C2284 H2283 1.016 . S
C2284 N2291 1.286 . S
C2285 H2280 0.930 . S
C2285 C2286 1.397 . S
C2285 C2287 1.361 . S
C2286 C2285 1.397 . S
C2286 C2290 1.390 . S
C2287 C2285 1.361 . S
C2287 C2288 1.393 . S
C2287 N2291 1.413 . S
C2288 H2281 0.930 . S
C2288 C2287 1.393 . S
C2288 C2289 1.399 . S
C2289 C2288 1.399 . S
C2289 C2290 1.381 . S
C2290 H2282 0.930 . S
C2290 C2286 1.390 . S
C2290 C2289 1.381 . S
N2291 C2284 1.286 . S
N2291 C2287 1.413 . S
H2292 C2297 0.930 . S
H2293 C2300 0.930 . S
H2294 C2302 0.930 . S
H2295 C2296 1.016 . S
C2296 H2295 1.016 . S
C2296 N2303 1.286 . S
C2297 H2292 0.930 . S
C2297 C2298 1.397 . S
C2297 C2299 1.361 . S
C2298 C2297 1.397 . S
C2298 C2302 1.390 . S
C2299 C2297 1.361 . S
C2299 C2300 1.393 . S
C2299 N2303 1.413 . S
C2300 H2293 0.930 . S
C2300 C2299 1.393 . S
C2300 C2301 1.399 . S
C2301 C2300 1.399 . S
C2301 C2302 1.381 . S
C2302 H2294 0.930 . S
C2302 C2298 1.390 . S
C2302 C2301 1.381 . S
N2303 C2296 1.286 . S
N2303 C2299 1.413 . S
H2304 C2309 0.930 . S
H2305 C2312 0.930 . S
H2306 C2314 0.930 . S
H2307 C2308 1.016 . S
C2308 H2307 1.016 . S
C2308 N2315 1.286 . S
C2309 H2304 0.930 . S
C2309 C2310 1.397 . S
C2309 C2311 1.361 . S
C2310 C2309 1.397 . S
C2310 C2314 1.390 . S
C2311 C2309 1.361 . S
C2311 C2312 1.393 . S
C2311 N2315 1.413 . S
C2312 H2305 0.930 . S
C2312 C2311 1.393 . S
C2312 C2313 1.399 . S
C2313 C2312 1.399 . S
C2313 C2314 1.381 . S
C2314 H2306 0.930 . S
C2314 C2310 1.390 . S
C2314 C2313 1.381 . S
N2315 C2308 1.286 . S
N2315 C2311 1.413 . S
H2316 C2321 0.930 . S
H2317 C2324 0.930 . S
H2318 C2326 0.930 . S
H2319 C2320 1.016 . S
C2320 H2319 1.016 . S
C2320 N2327 1.286 . S
C2321 H2316 0.930 . S
C2321 C2322 1.397 . S
C2321 C2323 1.361 . S
C2322 C2321 1.397 . S
C2322 C2326 1.390 . S
C2323 C2321 1.361 . S
C2323 C2324 1.393 . S
C2323 N2327 1.413 . S
C2324 H2317 0.930 . S
C2324 C2323 1.393 . S
C2324 C2325 1.399 . S
C2325 C2324 1.399 . S
C2325 C2326 1.381 . S
C2326 H2318 0.930 . S
C2326 C2322 1.390 . S
C2326 C2325 1.381 . S
N2327 C2320 1.286 . S
N2327 C2323 1.413 . S
H2328 C2333 0.930 . S
H2329 C2336 0.930 . S
H2330 C2338 0.930 . S
H2331 C2332 1.016 . S
C2332 H2331 1.016 . S
C2332 N2339 1.286 . S
C2333 H2328 0.930 . S
C2333 C2334 1.397 . S
C2333 C2335 1.361 . S
C2334 C2333 1.397 . S
C2334 C2338 1.390 . S
C2335 C2333 1.361 . S
C2335 C2336 1.393 . S
C2335 N2339 1.413 . S
C2336 H2329 0.930 . S
C2336 C2335 1.393 . S
C2336 C2337 1.399 . S
C2337 C2336 1.399 . S
C2337 C2338 1.381 . S
C2338 H2330 0.930 . S
C2338 C2334 1.390 . S
C2338 C2337 1.381 . S
N2339 C2332 1.286 . S
N2339 C2335 1.413 . S
H2340 C2345 0.930 . S
H2341 C2348 0.930 . S
H2342 C2350 0.930 . S
H2343 C2344 1.016 . S
C2344 H2343 1.016 . S
C2344 N2351 1.286 . S
C2345 H2340 0.930 . S
C2345 C2346 1.397 . S
C2345 C2347 1.361 . S
C2346 C2345 1.397 . S
C2346 C2350 1.390 . S
C2347 C2345 1.361 . S
C2347 C2348 1.393 . S
C2347 N2351 1.413 . S
C2348 H2341 0.930 . S
C2348 C2347 1.393 . S
C2348 C2349 1.399 . S
C2349 C2348 1.399 . S
C2349 C2350 1.381 . S
C2350 H2342 0.930 . S
C2350 C2346 1.390 . S
C2350 C2349 1.381 . S
N2351 C2344 1.286 . S
N2351 C2347 1.413 . S
H2352 C2357 0.930 . S
H2353 C2360 0.930 . S
H2354 C2362 0.930 . S
H2355 C2356 1.016 . S
C2356 H2355 1.016 . S
C2356 N2363 1.286 . S
C2357 H2352 0.930 . S
C2357 C2358 1.397 . S
C2357 C2359 1.361 . S
C2358 C2357 1.397 . S
C2358 C2362 1.390 . S
C2359 C2357 1.361 . S
C2359 C2360 1.393 . S
C2359 N2363 1.413 . S
C2360 H2353 0.930 . S
C2360 C2359 1.393 . S
C2360 C2361 1.399 . S
C2361 C2360 1.399 . S
C2361 C2362 1.381 . S
C2362 H2354 0.930 . S
C2362 C2358 1.390 . S
C2362 C2361 1.381 . S
N2363 C2356 1.286 . S
N2363 C2359 1.413 . S
H2364 C2369 0.930 . S
H2365 C2372 0.930 . S
H2366 C2374 0.930 . S
H2367 C2368 1.016 . S
C2368 H2367 1.016 . S
C2368 N2375 1.286 . S
C2369 H2364 0.930 . S
C2369 C2370 1.397 . S
C2369 C2371 1.361 . S
C2370 C2369 1.397 . S
C2370 C2374 1.390 . S
C2371 C2369 1.361 . S
C2371 C2372 1.393 . S
C2371 N2375 1.413 . S
C2372 H2365 0.930 . S
C2372 C2371 1.393 . S
C2372 C2373 1.399 . S
C2373 C2372 1.399 . S
C2373 C2374 1.381 . S
C2374 H2366 0.930 . S
C2374 C2370 1.390 . S
C2374 C2373 1.381 . S
N2375 C2368 1.286 . S
N2375 C2371 1.413 . S
H2376 C2381 0.930 . S
H2377 C2384 0.930 . S
H2378 C2386 0.930 . S
H2379 C2380 1.016 . S
C2380 H2379 1.016 . S
C2380 N2387 1.286 . S
C2381 H2376 0.930 . S
C2381 C2382 1.397 . S
C2381 C2383 1.361 . S
C2382 C2381 1.397 . S
C2382 C2386 1.390 . S
C2383 C2381 1.361 . S
C2383 C2384 1.393 . S
C2383 N2387 1.413 . S
C2384 H2377 0.930 . S
C2384 C2383 1.393 . S
C2384 C2385 1.399 . S
C2385 C2384 1.399 . S
C2385 C2386 1.381 . S
C2386 H2378 0.930 . S
C2386 C2382 1.390 . S
C2386 C2385 1.381 . S
N2387 C2380 1.286 . S
N2387 C2383 1.413 . S
H2388 C2393 0.930 . S
H2389 C2396 0.930 . S
H2390 C2398 0.930 . S
H2391 C2392 1.016 . S
C2392 H2391 1.016 . S
C2392 N2399 1.286 . S
C2393 H2388 0.930 . S
C2393 C2394 1.397 . S
C2393 C2395 1.361 . S
C2394 C2393 1.397 . S
C2394 C2398 1.390 . S
C2395 C2393 1.361 . S
C2395 C2396 1.393 . S
C2395 N2399 1.413 . S
C2396 H2389 0.930 . S
C2396 C2395 1.393 . S
C2396 C2397 1.399 . S
C2397 C2396 1.399 . S
C2397 C2398 1.381 . S
C2398 H2390 0.930 . S
C2398 C2394 1.390 . S
C2398 C2397 1.381 . S
N2399 C2392 1.286 . S
N2399 C2395 1.413 . S
H2400 C2405 0.930 . S
H2401 C2408 0.930 . S
H2402 C2410 0.930 . S
H2403 C2404 1.016 . S
C2404 H2403 1.016 . S
C2404 N2411 1.286 . S
C2405 H2400 0.930 . S
C2405 C2406 1.397 . S
C2405 C2407 1.361 . S
C2406 C2405 1.397 . S
C2406 C2410 1.390 . S
C2407 C2405 1.361 . S
C2407 C2408 1.393 . S
C2407 N2411 1.413 . S
C2408 H2401 0.930 . S
C2408 C2407 1.393 . S
C2408 C2409 1.399 . S
C2409 C2408 1.399 . S
C2409 C2410 1.381 . S
C2410 H2402 0.930 . S
C2410 C2406 1.390 . S
C2410 C2409 1.381 . S
N2411 C2404 1.286 . S
N2411 C2407 1.413 . S
H2412 C2417 0.930 . S
H2413 C2420 0.930 . S
H2414 C2422 0.930 . S
H2415 C2416 1.016 . S
C2416 H2415 1.016 . S
C2416 N2423 1.286 . S
C2417 H2412 0.930 . S
C2417 C2418 1.397 . S
C2417 C2419 1.361 . S
C2418 C2417 1.397 . S
C2418 C2422 1.390 . S
C2419 C2417 1.361 . S
C2419 C2420 1.393 . S
C2419 N2423 1.413 . S
C2420 H2413 0.930 . S
C2420 C2419 1.393 . S
C2420 C2421 1.399 . S
C2421 C2420 1.399 . S
C2421 C2422 1.381 . S
C2422 H2414 0.930 . S
C2422 C2418 1.390 . S
C2422 C2421 1.381 . S
N2423 C2416 1.286 . S
N2423 C2419 1.413 . S
H2424 C2429 0.930 . S
H2425 C2432 0.930 . S
H2426 C2434 0.930 . S
H2427 C2428 1.016 . S
C2428 H2427 1.016 . S
C2428 N2435 1.286 . S
C2429 H2424 0.930 . S
C2429 C2430 1.397 . S
C2429 C2431 1.361 . S
C2430 C2429 1.397 . S
C2430 C2434 1.390 . S
C2431 C2429 1.361 . S
C2431 C2432 1.393 . S
C2431 N2435 1.413 . S
C2432 H2425 0.930 . S
C2432 C2431 1.393 . S
C2432 C2433 1.399 . S
C2433 C2432 1.399 . S
C2433 C2434 1.381 . S
C2434 H2426 0.930 . S
C2434 C2430 1.390 . S
C2434 C2433 1.381 . S
N2435 C2428 1.286 . S
N2435 C2431 1.413 . S
H2436 C2441 0.930 . S
H2437 C2444 0.930 . S
H2438 C2446 0.930 . S
H2439 C2440 1.016 . S
C2440 H2439 1.016 . S
C2440 N2447 1.286 . S
C2441 H2436 0.930 . S
C2441 C2442 1.397 . S
C2441 C2443 1.361 . S
C2442 C2441 1.397 . S
C2442 C2446 1.390 . S
C2443 C2441 1.361 . S
C2443 C2444 1.393 . S
C2443 N2447 1.413 . S
C2444 H2437 0.930 . S
C2444 C2443 1.393 . S
C2444 C2445 1.399 . S
C2445 C2444 1.399 . S
C2445 C2446 1.381 . S
C2446 H2438 0.930 . S
C2446 C2442 1.390 . S
C2446 C2445 1.381 . S
N2447 C2440 1.286 . S
N2447 C2443 1.413 . S
H2448 C2453 0.930 . S
H2449 C2456 0.930 . S
H2450 C2458 0.930 . S
H2451 C2452 1.016 . S
C2452 H2451 1.016 . S
C2452 N2459 1.286 . S
C2453 H2448 0.930 . S
C2453 C2454 1.397 . S
C2453 C2455 1.361 . S
C2454 C2453 1.397 . S
C2454 C2458 1.390 . S
C2455 C2453 1.361 . S
C2455 C2456 1.393 . S
C2455 N2459 1.413 . S
C2456 H2449 0.930 . S
C2456 C2455 1.393 . S
C2456 C2457 1.399 . S
C2457 C2456 1.399 . S
C2457 C2458 1.381 . S
C2458 H2450 0.930 . S
C2458 C2454 1.390 . S
C2458 C2457 1.381 . S
N2459 C2452 1.286 . S
N2459 C2455 1.413 . S
H2460 C2465 0.930 . S
H2461 C2468 0.930 . S
H2462 C2470 0.930 . S
H2463 C2464 1.016 . S
C2464 H2463 1.016 . S
C2464 N2471 1.286 . S
C2465 H2460 0.930 . S
C2465 C2466 1.397 . S
C2465 C2467 1.361 . S
C2466 C2465 1.397 . S
C2466 C2470 1.390 . S
C2467 C2465 1.361 . S
C2467 C2468 1.393 . S
C2467 N2471 1.413 . S
C2468 H2461 0.930 . S
C2468 C2467 1.393 . S
C2468 C2469 1.399 . S
C2469 C2468 1.399 . S
C2469 C2470 1.381 . S
C2470 H2462 0.930 . S
C2470 C2466 1.390 . S
C2470 C2469 1.381 . S
N2471 C2464 1.286 . S
N2471 C2467 1.413 . S
H2472 C2477 0.930 . S
H2473 C2480 0.930 . S
H2474 C2482 0.930 . S
H2475 C2476 1.016 . S
C2476 H2475 1.016 . S
C2476 N2483 1.286 . S
C2477 H2472 0.930 . S
C2477 C2478 1.397 . S
C2477 C2479 1.361 . S
C2478 C2477 1.397 . S
C2478 C2482 1.390 . S
C2479 C2477 1.361 . S
C2479 C2480 1.393 . S
C2479 N2483 1.413 . S
C2480 H2473 0.930 . S
C2480 C2479 1.393 . S
C2480 C2481 1.399 . S
C2481 C2480 1.399 . S
C2481 C2482 1.381 . S
C2482 H2474 0.930 . S
C2482 C2478 1.390 . S
C2482 C2481 1.381 . S
N2483 C2476 1.286 . S
N2483 C2479 1.413 . S
H2484 C2489 0.930 . S
H2485 C2492 0.930 . S
H2486 C2494 0.930 . S
H2487 C2488 1.016 . S
C2488 H2487 1.016 . S
C2488 N2495 1.286 . S
C2489 H2484 0.930 . S
C2489 C2490 1.397 . S
C2489 C2491 1.361 . S
C2490 C2489 1.397 . S
C2490 C2494 1.390 . S
C2491 C2489 1.361 . S
C2491 C2492 1.393 . S
C2491 N2495 1.413 . S
C2492 H2485 0.930 . S
C2492 C2491 1.393 . S
C2492 C2493 1.399 . S
C2493 C2492 1.399 . S
C2493 C2494 1.381 . S
C2494 H2486 0.930 . S
C2494 C2490 1.390 . S
C2494 C2493 1.381 . S
N2495 C2488 1.286 . S
N2495 C2491 1.413 . S
C2496 C2497 1.349 . S
C2496 C2498 1.327 . S
C2496 H2521 0.950 . S
C2497 C2496 1.349 . S
C2497 C2513 1.349 . S
C2498 C2496 1.327 . S
C2498 C2517 1.429 . S
C2498 H2522 0.950 . S
C2499 C2516 1.574 . S
C2499 C2518 1.368 . S
C2499 H2523 0.949 . S
H2500 C2504 0.949 . S
C2501 C2502 1.349 . S
C2501 C2503 1.327 . S
C2501 H2524 0.950 . S
C2502 C2501 1.349 . S
C2502 C2514 1.349 . S
C2503 C2501 1.327 . S
C2503 C2519 1.429 . S
C2503 H2525 0.950 . S
C2504 H2500 0.949 . S
C2504 C2512 1.574 . S
C2504 C2520 1.368 . S
H2505 C2513 0.950 . S
H2506 C2511 0.950 . S
H2507 C2512 0.949 . S
H2508 C2514 0.950 . S
H2509 C2515 0.950 . S
H2510 C2516 0.949 . S
C2511 H2506 0.950 . S
C2511 C2513 1.327 . S
C2511 C2517 1.429 . S
C2512 C2504 1.574 . S
C2512 H2507 0.949 . S
C2512 C2518 1.368 . S
C2513 C2497 1.349 . S
C2513 H2505 0.950 . S
C2513 C2511 1.327 . S
C2514 C2502 1.349 . S
C2514 H2508 0.950 . S
C2514 C2515 1.327 . S
C2515 H2509 0.950 . S
C2515 C2514 1.327 . S
C2515 C2519 1.429 . S
C2516 C2499 1.574 . S
C2516 H2510 0.949 . S
C2516 C2520 1.368 . S
C2517 C2498 1.429 . S
C2517 C2511 1.429 . S
C2517 C2518 1.523 . S
C2518 C2499 1.368 . S
C2518 C2512 1.368 . S
C2518 C2517 1.523 . S
C2519 C2503 1.429 . S
C2519 C2515 1.429 . S
C2519 C2520 1.523 . S
C2520 C2504 1.368 . S
C2520 C2516 1.368 . S
C2520 C2519 1.523 . S
H2521 C2496 0.950 . S
H2522 C2498 0.950 . S
H2523 C2499 0.949 . S
H2524 C2501 0.950 . S
H2525 C2503 0.950 . S
C2526 C2527 1.349 . S
C2526 C2528 1.327 . S
C2526 H2551 0.950 . S
C2527 C2526 1.349 . S
C2527 C2543 1.349 . S
C2528 C2526 1.327 . S
C2528 C2547 1.429 . S
C2528 H2552 0.950 . S
C2529 C2546 1.574 . S
C2529 C2548 1.368 . S
C2529 H2553 0.949 . S
H2530 C2534 0.949 . S
C2531 C2532 1.349 . S
C2531 C2533 1.327 . S
C2531 H2554 0.950 . S
C2532 C2531 1.349 . S
C2532 C2544 1.349 . S
C2533 C2531 1.327 . S
C2533 C2549 1.429 . S
C2533 H2555 0.950 . S
C2534 H2530 0.949 . S
C2534 C2542 1.574 . S
C2534 C2550 1.368 . S
H2535 C2543 0.950 . S
H2536 C2541 0.950 . S
H2537 C2542 0.949 . S
H2538 C2544 0.950 . S
H2539 C2545 0.950 . S
H2540 C2546 0.949 . S
C2541 H2536 0.950 . S
C2541 C2543 1.327 . S
C2541 C2547 1.429 . S
C2542 C2534 1.574 . S
C2542 H2537 0.949 . S
C2542 C2548 1.368 . S
C2543 C2527 1.349 . S
C2543 H2535 0.950 . S
C2543 C2541 1.327 . S
C2544 C2532 1.349 . S
C2544 H2538 0.950 . S
C2544 C2545 1.327 . S
C2545 H2539 0.950 . S
C2545 C2544 1.327 . S
C2545 C2549 1.429 . S
C2546 C2529 1.574 . S
C2546 H2540 0.949 . S
C2546 C2550 1.368 . S
C2547 C2528 1.429 . S
C2547 C2541 1.429 . S
C2547 C2548 1.523 . S
C2548 C2529 1.368 . S
C2548 C2542 1.368 . S
C2548 C2547 1.523 . S
C2549 C2533 1.429 . S
C2549 C2545 1.429 . S
C2549 C2550 1.523 . S
C2550 C2534 1.368 . S
C2550 C2546 1.368 . S
C2550 C2549 1.523 . S
H2551 C2526 0.950 . S
H2552 C2528 0.950 . S
H2553 C2529 0.949 . S
H2554 C2531 0.950 . S
H2555 C2533 0.950 . S
C2556 C2557 1.349 . S
C2556 C2558 1.327 . S
C2556 H2581 0.950 . S
C2557 C2556 1.349 . S
C2557 C2573 1.349 . S
C2558 C2556 1.327 . S
C2558 C2577 1.429 . S
C2558 H2582 0.950 . S
C2559 C2576 1.574 . S
C2559 C2578 1.368 . S
C2559 H2583 0.949 . S
H2560 C2564 0.949 . S
C2561 C2562 1.349 . S
C2561 C2563 1.327 . S
C2561 H2584 0.950 . S
C2562 C2561 1.349 . S
C2562 C2574 1.349 . S
C2563 C2561 1.327 . S
C2563 C2579 1.429 . S
C2563 H2585 0.950 . S
C2564 H2560 0.949 . S
C2564 C2572 1.574 . S
C2564 C2580 1.368 . S
H2565 C2573 0.950 . S
H2566 C2571 0.950 . S
H2567 C2572 0.949 . S
H2568 C2574 0.950 . S
H2569 C2575 0.950 . S
H2570 C2576 0.949 . S
C2571 H2566 0.950 . S
C2571 C2573 1.327 . S
C2571 C2577 1.429 . S
C2572 C2564 1.574 . S
C2572 H2567 0.949 . S
C2572 C2578 1.368 . S
C2573 C2557 1.349 . S
C2573 H2565 0.950 . S
C2573 C2571 1.327 . S
C2574 C2562 1.349 . S
C2574 H2568 0.950 . S
C2574 C2575 1.327 . S
C2575 H2569 0.950 . S
C2575 C2574 1.327 . S
C2575 C2579 1.429 . S
C2576 C2559 1.574 . S
C2576 H2570 0.949 . S
C2576 C2580 1.368 . S
C2577 C2558 1.429 . S
C2577 C2571 1.429 . S
C2577 C2578 1.523 . S
C2578 C2559 1.368 . S
C2578 C2572 1.368 . S
C2578 C2577 1.523 . S
C2579 C2563 1.429 . S
C2579 C2575 1.429 . S
C2579 C2580 1.523 . S
C2580 C2564 1.368 . S
C2580 C2576 1.368 . S
C2580 C2579 1.523 . S
H2581 C2556 0.950 . S
H2582 C2558 0.950 . S
H2583 C2559 0.949 . S
H2584 C2561 0.950 . S
H2585 C2563 0.950 . S
C2586 C2587 1.349 . S
C2586 C2588 1.327 . S
C2586 H2611 0.950 . S
C2587 C2586 1.349 . S
C2587 C2603 1.349 . S
C2588 C2586 1.327 . S
C2588 C2607 1.429 . S
C2588 H2612 0.950 . S
C2589 C2606 1.574 . S
C2589 C2608 1.368 . S
C2589 H2613 0.949 . S
H2590 C2594 0.949 . S
C2591 C2592 1.349 . S
C2591 C2593 1.327 . S
C2591 H2614 0.950 . S
C2592 C2591 1.349 . S
C2592 C2604 1.349 . S
C2593 C2591 1.327 . S
C2593 C2609 1.429 . S
C2593 H2615 0.950 . S
C2594 H2590 0.949 . S
C2594 C2602 1.574 . S
C2594 C2610 1.368 . S
H2595 C2603 0.950 . S
H2596 C2601 0.950 . S
H2597 C2602 0.949 . S
H2598 C2604 0.950 . S
H2599 C2605 0.950 . S
H2600 C2606 0.949 . S
C2601 H2596 0.950 . S
C2601 C2603 1.327 . S
C2601 C2607 1.429 . S
C2602 C2594 1.574 . S
C2602 H2597 0.949 . S
C2602 C2608 1.368 . S
C2603 C2587 1.349 . S
C2603 H2595 0.950 . S
C2603 C2601 1.327 . S
C2604 C2592 1.349 . S
C2604 H2598 0.950 . S
C2604 C2605 1.327 . S
C2605 H2599 0.950 . S
C2605 C2604 1.327 . S
C2605 C2609 1.429 . S
C2606 C2589 1.574 . S
C2606 H2600 0.949 . S
C2606 C2610 1.368 . S
C2607 C2588 1.429 . S
C2607 C2601 1.429 . S
C2607 C2608 1.523 . S
C2608 C2589 1.368 . S
C2608 C2602 1.368 . S
C2608 C2607 1.523 . S
C2609 C2593 1.429 . S
C2609 C2605 1.429 . S
C2609 C2610 1.523 . S
C2610 C2594 1.368 . S
C2610 C2606 1.368 . S
C2610 C2609 1.523 . S
H2611 C2586 0.950 . S
H2612 C2588 0.950 . S
H2613 C2589 0.949 . S
H2614 C2591 0.950 . S
H2615 C2593 0.950 . S
C2616 C2617 1.349 . S
C2616 C2618 1.327 . S
C2616 H2641 0.950 . S
C2617 C2616 1.349 . S
C2617 C2633 1.349 . S
C2618 C2616 1.327 . S
C2618 C2637 1.429 . S
C2618 H2642 0.950 . S
C2619 C2636 1.574 . S
C2619 C2638 1.368 . S
C2619 H2643 0.949 . S
H2620 C2624 0.949 . S
C2621 C2622 1.349 . S
C2621 C2623 1.327 . S
C2621 H2644 0.950 . S
C2622 C2621 1.349 . S
C2622 C2634 1.349 . S
C2623 C2621 1.327 . S
C2623 C2639 1.429 . S
C2623 H2645 0.950 . S
C2624 H2620 0.949 . S
C2624 C2632 1.574 . S
C2624 C2640 1.368 . S
H2625 C2633 0.950 . S
H2626 C2631 0.950 . S
H2627 C2632 0.949 . S
H2628 C2634 0.950 . S
H2629 C2635 0.950 . S
H2630 C2636 0.949 . S
C2631 H2626 0.950 . S
C2631 C2633 1.327 . S
C2631 C2637 1.429 . S
C2632 C2624 1.574 . S
C2632 H2627 0.949 . S
C2632 C2638 1.368 . S
C2633 C2617 1.349 . S
C2633 H2625 0.950 . S
C2633 C2631 1.327 . S
C2634 C2622 1.349 . S
C2634 H2628 0.950 . S
C2634 C2635 1.327 . S
C2635 H2629 0.950 . S
C2635 C2634 1.327 . S
C2635 C2639 1.429 . S
C2636 C2619 1.574 . S
C2636 H2630 0.949 . S
C2636 C2640 1.368 . S
C2637 C2618 1.429 . S
C2637 C2631 1.429 . S
C2637 C2638 1.523 . S
C2638 C2619 1.368 . S
C2638 C2632 1.368 . S
C2638 C2637 1.523 . S
C2639 C2623 1.429 . S
C2639 C2635 1.429 . S
C2639 C2640 1.523 . S
C2640 C2624 1.368 . S
C2640 C2636 1.368 . S
C2640 C2639 1.523 . S
H2641 C2616 0.950 . S
H2642 C2618 0.950 . S
H2643 C2619 0.949 . S
H2644 C2621 0.950 . S
H2645 C2623 0.950 . S
C2646 C2647 1.349 . S
C2646 C2648 1.327 . S
C2646 H2671 0.950 . S
C2647 C2646 1.349 . S
C2647 C2663 1.349 . S
C2648 C2646 1.327 . S
C2648 C2667 1.429 . S
C2648 H2672 0.950 . S
C2649 C2666 1.574 . S
C2649 C2668 1.368 . S
C2649 H2673 0.949 . S
H2650 C2654 0.949 . S
C2651 C2652 1.349 . S
C2651 C2653 1.327 . S
C2651 H2674 0.950 . S
C2652 C2651 1.349 . S
C2652 C2664 1.349 . S
C2653 C2651 1.327 . S
C2653 C2669 1.429 . S
C2653 H2675 0.950 . S
C2654 H2650 0.949 . S
C2654 C2662 1.574 . S
C2654 C2670 1.368 . S
H2655 C2663 0.950 . S
H2656 C2661 0.950 . S
H2657 C2662 0.949 . S
H2658 C2664 0.950 . S
H2659 C2665 0.950 . S
H2660 C2666 0.949 . S
C2661 H2656 0.950 . S
C2661 C2663 1.327 . S
C2661 C2667 1.429 . S
C2662 C2654 1.574 . S
C2662 H2657 0.949 . S
C2662 C2668 1.368 . S
C2663 C2647 1.349 . S
C2663 H2655 0.950 . S
C2663 C2661 1.327 . S
C2664 C2652 1.349 . S
C2664 H2658 0.950 . S
C2664 C2665 1.327 . S
C2665 H2659 0.950 . S
C2665 C2664 1.327 . S
C2665 C2669 1.429 . S
C2666 C2649 1.574 . S
C2666 H2660 0.949 . S
C2666 C2670 1.368 . S
C2667 C2648 1.429 . S
C2667 C2661 1.429 . S
C2667 C2668 1.523 . S
C2668 C2649 1.368 . S
C2668 C2662 1.368 . S
C2668 C2667 1.523 . S
C2669 C2653 1.429 . S
C2669 C2665 1.429 . S
C2669 C2670 1.523 . S
C2670 C2654 1.368 . S
C2670 C2666 1.368 . S
C2670 C2669 1.523 . S
H2671 C2646 0.950 . S
H2672 C2648 0.950 . S
H2673 C2649 0.949 . S
H2674 C2651 0.950 . S
H2675 C2653 0.950 . S
C2676 C2677 1.349 . S
C2676 C2678 1.327 . S
C2676 H2701 0.950 . S
C2677 C2676 1.349 . S
C2677 C2693 1.349 . S
C2678 C2676 1.327 . S
C2678 C2697 1.429 . S
C2678 H2702 0.950 . S
C2679 C2696 1.574 . S
C2679 C2698 1.368 . S
C2679 H2703 0.949 . S
H2680 C2684 0.949 . S
C2681 C2682 1.349 . S
C2681 C2683 1.327 . S
C2681 H2704 0.950 . S
C2682 C2681 1.349 . S
C2682 C2694 1.349 . S
C2683 C2681 1.327 . S
C2683 C2699 1.429 . S
C2683 H2705 0.950 . S
C2684 H2680 0.949 . S
C2684 C2692 1.574 . S
C2684 C2700 1.368 . S
H2685 C2693 0.950 . S
H2686 C2691 0.950 . S
H2687 C2692 0.949 . S
H2688 C2694 0.950 . S
H2689 C2695 0.950 . S
H2690 C2696 0.949 . S
C2691 H2686 0.950 . S
C2691 C2693 1.327 . S
C2691 C2697 1.429 . S
C2692 C2684 1.574 . S
C2692 H2687 0.949 . S
C2692 C2698 1.368 . S
C2693 C2677 1.349 . S
C2693 H2685 0.950 . S
C2693 C2691 1.327 . S
C2694 C2682 1.349 . S
C2694 H2688 0.950 . S
C2694 C2695 1.327 . S
C2695 H2689 0.950 . S
C2695 C2694 1.327 . S
C2695 C2699 1.429 . S
C2696 C2679 1.574 . S
C2696 H2690 0.949 . S
C2696 C2700 1.368 . S
C2697 C2678 1.429 . S
C2697 C2691 1.429 . S
C2697 C2698 1.523 . S
C2698 C2679 1.368 . S
C2698 C2692 1.368 . S
C2698 C2697 1.523 . S
C2699 C2683 1.429 . S
C2699 C2695 1.429 . S
C2699 C2700 1.523 . S
C2700 C2684 1.368 . S
C2700 C2696 1.368 . S
C2700 C2699 1.523 . S
H2701 C2676 0.950 . S
H2702 C2678 0.950 . S
H2703 C2679 0.949 . S
H2704 C2681 0.950 . S
H2705 C2683 0.950 . S
C2706 C2707 1.349 . S
C2706 C2708 1.327 . S
C2706 H2731 0.950 . S
C2707 C2706 1.349 . S
C2707 C2723 1.349 . S
C2708 C2706 1.327 . S
C2708 C2727 1.429 . S
C2708 H2732 0.950 . S
C2709 C2726 1.574 . S
C2709 C2728 1.368 . S
C2709 H2733 0.949 . S
H2710 C2714 0.949 . S
C2711 C2712 1.349 . S
C2711 C2713 1.327 . S
C2711 H2734 0.950 . S
C2712 C2711 1.349 . S
C2712 C2724 1.349 . S
C2713 C2711 1.327 . S
C2713 C2729 1.429 . S
C2713 H2735 0.950 . S
C2714 H2710 0.949 . S
C2714 C2722 1.574 . S
C2714 C2730 1.368 . S
H2715 C2723 0.950 . S
H2716 C2721 0.950 . S
H2717 C2722 0.949 . S
H2718 C2724 0.950 . S
H2719 C2725 0.950 . S
H2720 C2726 0.949 . S
C2721 H2716 0.950 . S
C2721 C2723 1.327 . S
C2721 C2727 1.429 . S
C2722 C2714 1.574 . S
C2722 H2717 0.949 . S
C2722 C2728 1.368 . S
C2723 C2707 1.349 . S
C2723 H2715 0.950 . S
C2723 C2721 1.327 . S
C2724 C2712 1.349 . S
C2724 H2718 0.950 . S
C2724 C2725 1.327 . S
C2725 H2719 0.950 . S
C2725 C2724 1.327 . S
C2725 C2729 1.429 . S
C2726 C2709 1.574 . S
C2726 H2720 0.949 . S
C2726 C2730 1.368 . S
C2727 C2708 1.429 . S
C2727 C2721 1.429 . S
C2727 C2728 1.523 . S
C2728 C2709 1.368 . S
C2728 C2722 1.368 . S
C2728 C2727 1.523 . S
C2729 C2713 1.429 . S
C2729 C2725 1.429 . S
C2729 C2730 1.523 . S
C2730 C2714 1.368 . S
C2730 C2726 1.368 . S
C2730 C2729 1.523 . S
H2731 C2706 0.950 . S
H2732 C2708 0.950 . S
H2733 C2709 0.949 . S
H2734 C2711 0.950 . S
H2735 C2713 0.950 . S
C2736 C2737 1.349 . S
C2736 C2738 1.327 . S
C2736 H2761 0.950 . S
C2737 C2736 1.349 . S
C2737 C2753 1.349 . S
C2738 C2736 1.327 . S
C2738 C2757 1.429 . S
C2738 H2762 0.950 . S
C2739 C2756 1.574 . S
C2739 C2758 1.368 . S
C2739 H2763 0.949 . S
H2740 C2744 0.949 . S
C2741 C2742 1.349 . S
C2741 C2743 1.327 . S
C2741 H2764 0.950 . S
C2742 C2741 1.349 . S
C2742 C2754 1.349 . S
C2743 C2741 1.327 . S
C2743 C2759 1.429 . S
C2743 H2765 0.950 . S
C2744 H2740 0.949 . S
C2744 C2752 1.574 . S
C2744 C2760 1.368 . S
H2745 C2753 0.950 . S
H2746 C2751 0.950 . S
H2747 C2752 0.949 . S
H2748 C2754 0.950 . S
H2749 C2755 0.950 . S
H2750 C2756 0.949 . S
C2751 H2746 0.950 . S
C2751 C2753 1.327 . S
C2751 C2757 1.429 . S
C2752 C2744 1.574 . S
C2752 H2747 0.949 . S
C2752 C2758 1.368 . S
C2753 C2737 1.349 . S
C2753 H2745 0.950 . S
C2753 C2751 1.327 . S
C2754 C2742 1.349 . S
C2754 H2748 0.950 . S
C2754 C2755 1.327 . S
C2755 H2749 0.950 . S
C2755 C2754 1.327 . S
C2755 C2759 1.429 . S
C2756 C2739 1.574 . S
C2756 H2750 0.949 . S
C2756 C2760 1.368 . S
C2757 C2738 1.429 . S
C2757 C2751 1.429 . S
C2757 C2758 1.523 . S
C2758 C2739 1.368 . S
C2758 C2752 1.368 . S
C2758 C2757 1.523 . S
C2759 C2743 1.429 . S
C2759 C2755 1.429 . S
C2759 C2760 1.523 . S
C2760 C2744 1.368 . S
C2760 C2756 1.368 . S
C2760 C2759 1.523 . S
H2761 C2736 0.950 . S
H2762 C2738 0.950 . S
H2763 C2739 0.949 . S
H2764 C2741 0.950 . S
H2765 C2743 0.950 . S
C2766 C2767 1.349 . S
C2766 C2768 1.327 . S
C2766 H2791 0.950 . S
C2767 C2766 1.349 . S
C2767 C2783 1.349 . S
C2768 C2766 1.327 . S
C2768 C2787 1.429 . S
C2768 H2792 0.950 . S
C2769 C2786 1.574 . S
C2769 C2788 1.368 . S
C2769 H2793 0.949 . S
H2770 C2774 0.949 . S
C2771 C2772 1.349 . S
C2771 C2773 1.327 . S
C2771 H2794 0.950 . S
C2772 C2771 1.349 . S
C2772 C2784 1.349 . S
C2773 C2771 1.327 . S
C2773 C2789 1.429 . S
C2773 H2795 0.950 . S
C2774 H2770 0.949 . S
C2774 C2782 1.574 . S
C2774 C2790 1.368 . S
H2775 C2783 0.950 . S
H2776 C2781 0.950 . S
H2777 C2782 0.949 . S
H2778 C2784 0.950 . S
H2779 C2785 0.950 . S
H2780 C2786 0.949 . S
C2781 H2776 0.950 . S
C2781 C2783 1.327 . S
C2781 C2787 1.429 . S
C2782 C2774 1.574 . S
C2782 H2777 0.949 . S
C2782 C2788 1.368 . S
C2783 C2767 1.349 . S
C2783 H2775 0.950 . S
C2783 C2781 1.327 . S
C2784 C2772 1.349 . S
C2784 H2778 0.950 . S
C2784 C2785 1.327 . S
C2785 H2779 0.950 . S
C2785 C2784 1.327 . S
C2785 C2789 1.429 . S
C2786 C2769 1.574 . S
C2786 H2780 0.949 . S
C2786 C2790 1.368 . S
C2787 C2768 1.429 . S
C2787 C2781 1.429 . S
C2787 C2788 1.523 . S
C2788 C2769 1.368 . S
C2788 C2782 1.368 . S
C2788 C2787 1.523 . S
C2789 C2773 1.429 . S
C2789 C2785 1.429 . S
C2789 C2790 1.523 . S
C2790 C2774 1.368 . S
C2790 C2786 1.368 . S
C2790 C2789 1.523 . S
H2791 C2766 0.950 . S
H2792 C2768 0.950 . S
H2793 C2769 0.949 . S
H2794 C2771 0.950 . S
H2795 C2773 0.950 . S
C2796 C2797 1.349 . S
C2796 C2798 1.327 . S
C2796 H2821 0.950 . S
C2797 C2796 1.349 . S
C2797 C2813 1.349 . S
C2798 C2796 1.327 . S
C2798 C2817 1.429 . S
C2798 H2822 0.950 . S
C2799 C2816 1.574 . S
C2799 C2818 1.368 . S
C2799 H2823 0.949 . S
H2800 C2804 0.949 . S
C2801 C2802 1.349 . S
C2801 C2803 1.327 . S
C2801 H2824 0.950 . S
C2802 C2801 1.349 . S
C2802 C2814 1.349 . S
C2803 C2801 1.327 . S
C2803 C2819 1.429 . S
C2803 H2825 0.950 . S
C2804 H2800 0.949 . S
C2804 C2812 1.574 . S
C2804 C2820 1.368 . S
H2805 C2813 0.950 . S
H2806 C2811 0.950 . S
H2807 C2812 0.949 . S
H2808 C2814 0.950 . S
H2809 C2815 0.950 . S
H2810 C2816 0.949 . S
C2811 H2806 0.950 . S
C2811 C2813 1.327 . S
C2811 C2817 1.429 . S
C2812 C2804 1.574 . S
C2812 H2807 0.949 . S
C2812 C2818 1.368 . S
C2813 C2797 1.349 . S
C2813 H2805 0.950 . S
C2813 C2811 1.327 . S
C2814 C2802 1.349 . S
C2814 H2808 0.950 . S
C2814 C2815 1.327 . S
C2815 H2809 0.950 . S
C2815 C2814 1.327 . S
C2815 C2819 1.429 . S
C2816 C2799 1.574 . S
C2816 H2810 0.949 . S
C2816 C2820 1.368 . S
C2817 C2798 1.429 . S
C2817 C2811 1.429 . S
C2817 C2818 1.523 . S
C2818 C2799 1.368 . S
C2818 C2812 1.368 . S
C2818 C2817 1.523 . S
C2819 C2803 1.429 . S
C2819 C2815 1.429 . S
C2819 C2820 1.523 . S
C2820 C2804 1.368 . S
C2820 C2816 1.368 . S
C2820 C2819 1.523 . S
H2821 C2796 0.950 . S
H2822 C2798 0.950 . S
H2823 C2799 0.949 . S
H2824 C2801 0.950 . S
H2825 C2803 0.950 . S
C2826 C2827 1.349 . S
C2826 C2828 1.327 . S
C2826 H2851 0.950 . S
C2827 C2826 1.349 . S
C2827 C2843 1.349 . S
C2828 C2826 1.327 . S
C2828 C2847 1.429 . S
C2828 H2852 0.950 . S
C2829 C2846 1.574 . S
C2829 C2848 1.368 . S
C2829 H2853 0.949 . S
H2830 C2834 0.949 . S
C2831 C2832 1.349 . S
C2831 C2833 1.327 . S
C2831 H2854 0.950 . S
C2832 C2831 1.349 . S
C2832 C2844 1.349 . S
C2833 C2831 1.327 . S
C2833 C2849 1.429 . S
C2833 H2855 0.950 . S
C2834 H2830 0.949 . S
C2834 C2842 1.574 . S
C2834 C2850 1.368 . S
H2835 C2843 0.950 . S
H2836 C2841 0.950 . S
H2837 C2842 0.949 . S
H2838 C2844 0.950 . S
H2839 C2845 0.950 . S
H2840 C2846 0.949 . S
C2841 H2836 0.950 . S
C2841 C2843 1.327 . S
C2841 C2847 1.429 . S
C2842 C2834 1.574 . S
C2842 H2837 0.949 . S
C2842 C2848 1.368 . S
C2843 C2827 1.349 . S
C2843 H2835 0.950 . S
C2843 C2841 1.327 . S
C2844 C2832 1.349 . S
C2844 H2838 0.950 . S
C2844 C2845 1.327 . S
C2845 H2839 0.950 . S
C2845 C2844 1.327 . S
C2845 C2849 1.429 . S
C2846 C2829 1.574 . S
C2846 H2840 0.949 . S
C2846 C2850 1.368 . S
C2847 C2828 1.429 . S
C2847 C2841 1.429 . S
C2847 C2848 1.523 . S
C2848 C2829 1.368 . S
C2848 C2842 1.368 . S
C2848 C2847 1.523 . S
C2849 C2833 1.429 . S
C2849 C2845 1.429 . S
C2849 C2850 1.523 . S
C2850 C2834 1.368 . S
C2850 C2846 1.368 . S
C2850 C2849 1.523 . S
H2851 C2826 0.950 . S
H2852 C2828 0.950 . S
H2853 C2829 0.949 . S
H2854 C2831 0.950 . S
H2855 C2833 0.950 . S
C2856 C2857 1.349 . S
C2856 C2858 1.327 . S
C2856 H2881 0.950 . S
C2857 C2856 1.349 . S
C2857 C2873 1.349 . S
C2858 C2856 1.327 . S
C2858 C2877 1.429 . S
C2858 H2882 0.950 . S
C2859 C2876 1.574 . S
C2859 C2878 1.368 . S
C2859 H2883 0.949 . S
H2860 C2864 0.949 . S
C2861 C2862 1.349 . S
C2861 C2863 1.327 . S
C2861 H2884 0.950 . S
C2862 C2861 1.349 . S
C2862 C2874 1.349 . S
C2863 C2861 1.327 . S
C2863 C2879 1.429 . S
C2863 H2885 0.950 . S
C2864 H2860 0.949 . S
C2864 C2872 1.574 . S
C2864 C2880 1.368 . S
H2865 C2873 0.950 . S
H2866 C2871 0.950 . S
H2867 C2872 0.949 . S
H2868 C2874 0.950 . S
H2869 C2875 0.950 . S
H2870 C2876 0.949 . S
C2871 H2866 0.950 . S
C2871 C2873 1.327 . S
C2871 C2877 1.429 . S
C2872 C2864 1.574 . S
C2872 H2867 0.949 . S
C2872 C2878 1.368 . S
C2873 C2857 1.349 . S
C2873 H2865 0.950 . S
C2873 C2871 1.327 . S
C2874 C2862 1.349 . S
C2874 H2868 0.950 . S
C2874 C2875 1.327 . S
C2875 H2869 0.950 . S
C2875 C2874 1.327 . S
C2875 C2879 1.429 . S
C2876 C2859 1.574 . S
C2876 H2870 0.949 . S
C2876 C2880 1.368 . S
C2877 C2858 1.429 . S
C2877 C2871 1.429 . S
C2877 C2878 1.523 . S
C2878 C2859 1.368 . S
C2878 C2872 1.368 . S
C2878 C2877 1.523 . S
C2879 C2863 1.429 . S
C2879 C2875 1.429 . S
C2879 C2880 1.523 . S
C2880 C2864 1.368 . S
C2880 C2876 1.368 . S
C2880 C2879 1.523 . S
H2881 C2856 0.950 . S
H2882 C2858 0.950 . S
H2883 C2859 0.949 . S
H2884 C2861 0.950 . S
H2885 C2863 0.950 . S
C2886 C2887 1.349 . S
C2886 C2888 1.327 . S
C2886 H2911 0.950 . S
C2887 C2886 1.349 . S
C2887 C2903 1.349 . S
C2888 C2886 1.327 . S
C2888 C2907 1.429 . S
C2888 H2912 0.950 . S
C2889 C2906 1.574 . S
C2889 C2908 1.368 . S
C2889 H2913 0.949 . S
H2890 C2894 0.949 . S
C2891 C2892 1.349 . S
C2891 C2893 1.327 . S
C2891 H2914 0.950 . S
C2892 C2891 1.349 . S
C2892 C2904 1.349 . S
C2893 C2891 1.327 . S
C2893 C2909 1.429 . S
C2893 H2915 0.950 . S
C2894 H2890 0.949 . S
C2894 C2902 1.574 . S
C2894 C2910 1.368 . S
H2895 C2903 0.950 . S
H2896 C2901 0.950 . S
H2897 C2902 0.949 . S
H2898 C2904 0.950 . S
H2899 C2905 0.950 . S
H2900 C2906 0.949 . S
C2901 H2896 0.950 . S
C2901 C2903 1.327 . S
C2901 C2907 1.429 . S
C2902 C2894 1.574 . S
C2902 H2897 0.949 . S
C2902 C2908 1.368 . S
C2903 C2887 1.349 . S
C2903 H2895 0.950 . S
C2903 C2901 1.327 . S
C2904 C2892 1.349 . S
C2904 H2898 0.950 . S
C2904 C2905 1.327 . S
C2905 H2899 0.950 . S
C2905 C2904 1.327 . S
C2905 C2909 1.429 . S
C2906 C2889 1.574 . S
C2906 H2900 0.949 . S
C2906 C2910 1.368 . S
C2907 C2888 1.429 . S
C2907 C2901 1.429 . S
C2907 C2908 1.523 . S
C2908 C2889 1.368 . S
C2908 C2902 1.368 . S
C2908 C2907 1.523 . S
C2909 C2893 1.429 . S
C2909 C2905 1.429 . S
C2909 C2910 1.523 . S
C2910 C2894 1.368 . S
C2910 C2906 1.368 . S
C2910 C2909 1.523 . S
H2911 C2886 0.950 . S
H2912 C2888 0.950 . S
H2913 C2889 0.949 . S
H2914 C2891 0.950 . S
H2915 C2893 0.950 . S
C2916 C2917 1.349 . S
C2916 C2918 1.327 . S
C2916 H2941 0.950 . S
C2917 C2916 1.349 . S
C2917 C2933 1.349 . S
C2918 C2916 1.327 . S
C2918 C2937 1.429 . S
C2918 H2942 0.950 . S
C2919 C2936 1.574 . S
C2919 C2938 1.368 . S
C2919 H2943 0.949 . S
H2920 C2924 0.949 . S
C2921 C2922 1.349 . S
C2921 C2923 1.327 . S
C2921 H2944 0.950 . S
C2922 C2921 1.349 . S
C2922 C2934 1.349 . S
C2923 C2921 1.327 . S
C2923 C2939 1.429 . S
C2923 H2945 0.950 . S
C2924 H2920 0.949 . S
C2924 C2932 1.574 . S
C2924 C2940 1.368 . S
H2925 C2933 0.950 . S
H2926 C2931 0.950 . S
H2927 C2932 0.949 . S
H2928 C2934 0.950 . S
H2929 C2935 0.950 . S
H2930 C2936 0.949 . S
C2931 H2926 0.950 . S
C2931 C2933 1.327 . S
C2931 C2937 1.429 . S
C2932 C2924 1.574 . S
C2932 H2927 0.949 . S
C2932 C2938 1.368 . S
C2933 C2917 1.349 . S
C2933 H2925 0.950 . S
C2933 C2931 1.327 . S
C2934 C2922 1.349 . S
C2934 H2928 0.950 . S
C2934 C2935 1.327 . S
C2935 H2929 0.950 . S
C2935 C2934 1.327 . S
C2935 C2939 1.429 . S
C2936 C2919 1.574 . S
C2936 H2930 0.949 . S
C2936 C2940 1.368 . S
C2937 C2918 1.429 . S
C2937 C2931 1.429 . S
C2937 C2938 1.523 . S
C2938 C2919 1.368 . S
C2938 C2932 1.368 . S
C2938 C2937 1.523 . S
C2939 C2923 1.429 . S
C2939 C2935 1.429 . S
C2939 C2940 1.523 . S
C2940 C2924 1.368 . S
C2940 C2936 1.368 . S
C2940 C2939 1.523 . S
H2941 C2916 0.950 . S
H2942 C2918 0.950 . S
H2943 C2919 0.949 . S
H2944 C2921 0.950 . S
H2945 C2923 0.950 . S
C2946 C2947 1.349 . S
C2946 C2948 1.327 . S
C2946 H2971 0.950 . S
C2947 C2946 1.349 . S
C2947 C2963 1.349 . S
C2948 C2946 1.327 . S
C2948 C2967 1.429 . S
C2948 H2972 0.950 . S
C2949 C2966 1.574 . S
C2949 C2968 1.368 . S
C2949 H2973 0.949 . S
H2950 C2954 0.949 . S
C2951 C2952 1.349 . S
C2951 C2953 1.327 . S
C2951 H2974 0.950 . S
C2952 C2951 1.349 . S
C2952 C2964 1.349 . S
C2953 C2951 1.327 . S
C2953 C2969 1.429 . S
C2953 H2975 0.950 . S
C2954 H2950 0.949 . S
C2954 C2962 1.574 . S
C2954 C2970 1.368 . S
H2955 C2963 0.950 . S
H2956 C2961 0.950 . S
H2957 C2962 0.949 . S
H2958 C2964 0.950 . S
H2959 C2965 0.950 . S
H2960 C2966 0.949 . S
C2961 H2956 0.950 . S
C2961 C2963 1.327 . S
C2961 C2967 1.429 . S
C2962 C2954 1.574 . S
C2962 H2957 0.949 . S
C2962 C2968 1.368 . S
C2963 C2947 1.349 . S
C2963 H2955 0.950 . S
C2963 C2961 1.327 . S
C2964 C2952 1.349 . S
C2964 H2958 0.950 . S
C2964 C2965 1.327 . S
C2965 H2959 0.950 . S
C2965 C2964 1.327 . S
C2965 C2969 1.429 . S
C2966 C2949 1.574 . S
C2966 H2960 0.949 . S
C2966 C2970 1.368 . S
C2967 C2948 1.429 . S
C2967 C2961 1.429 . S
C2967 C2968 1.523 . S
C2968 C2949 1.368 . S
C2968 C2962 1.368 . S
C2968 C2967 1.523 . S
C2969 C2953 1.429 . S
C2969 C2965 1.429 . S
C2969 C2970 1.523 . S
C2970 C2954 1.368 . S
C2970 C2966 1.368 . S
C2970 C2969 1.523 . S
H2971 C2946 0.950 . S
H2972 C2948 0.950 . S
H2973 C2949 0.949 . S
H2974 C2951 0.950 . S
H2975 C2953 0.950 . S
C2976 C2977 1.349 . S
C2976 C2978 1.327 . S
C2976 H3001 0.950 . S
C2977 C2976 1.349 . S
C2977 C2993 1.349 . S
C2978 C2976 1.327 . S
C2978 C2997 1.429 . S
C2978 H3002 0.950 . S
C2979 C2996 1.574 . S
C2979 C2998 1.368 . S
C2979 H3003 0.949 . S
H2980 C2984 0.949 . S
C2981 C2982 1.349 . S
C2981 C2983 1.327 . S
C2981 H3004 0.950 . S
C2982 C2981 1.349 . S
C2982 C2994 1.349 . S
C2983 C2981 1.327 . S
C2983 C2999 1.429 . S
C2983 H3005 0.950 . S
C2984 H2980 0.949 . S
C2984 C2992 1.574 . S
C2984 C3000 1.368 . S
H2985 C2993 0.950 . S
H2986 C2991 0.950 . S
H2987 C2992 0.949 . S
H2988 C2994 0.950 . S
H2989 C2995 0.950 . S
H2990 C2996 0.949 . S
C2991 H2986 0.950 . S
C2991 C2993 1.327 . S
C2991 C2997 1.429 . S
C2992 C2984 1.574 . S
C2992 H2987 0.949 . S
C2992 C2998 1.368 . S
C2993 C2977 1.349 . S
C2993 H2985 0.950 . S
C2993 C2991 1.327 . S
C2994 C2982 1.349 . S
C2994 H2988 0.950 . S
C2994 C2995 1.327 . S
C2995 H2989 0.950 . S
C2995 C2994 1.327 . S
C2995 C2999 1.429 . S
C2996 C2979 1.574 . S
C2996 H2990 0.949 . S
C2996 C3000 1.368 . S
C2997 C2978 1.429 . S
C2997 C2991 1.429 . S
C2997 C2998 1.523 . S
C2998 C2979 1.368 . S
C2998 C2992 1.368 . S
C2998 C2997 1.523 . S
C2999 C2983 1.429 . S
C2999 C2995 1.429 . S
C2999 C3000 1.523 . S
C3000 C2984 1.368 . S
C3000 C2996 1.368 . S
C3000 C2999 1.523 . S
H3001 C2976 0.950 . S
H3002 C2978 0.950 . S
H3003 C2979 0.949 . S
H3004 C2981 0.950 . S
H3005 C2983 0.950 . S
C3006 C3007 1.349 . S
C3006 C3008 1.327 . S
C3006 H3031 0.950 . S
C3007 C3006 1.349 . S
C3007 C3023 1.349 . S
C3008 C3006 1.327 . S
C3008 C3027 1.429 . S
C3008 H3032 0.950 . S
C3009 C3026 1.574 . S
C3009 C3028 1.368 . S
C3009 H3033 0.949 . S
H3010 C3014 0.949 . S
C3011 C3012 1.349 . S
C3011 C3013 1.327 . S
C3011 H3034 0.950 . S
C3012 C3011 1.349 . S
C3012 C3024 1.349 . S
C3013 C3011 1.327 . S
C3013 C3029 1.429 . S
C3013 H3035 0.950 . S
C3014 H3010 0.949 . S
C3014 C3022 1.574 . S
C3014 C3030 1.368 . S
H3015 C3023 0.950 . S
H3016 C3021 0.950 . S
H3017 C3022 0.949 . S
H3018 C3024 0.950 . S
H3019 C3025 0.950 . S
H3020 C3026 0.949 . S
C3021 H3016 0.950 . S
C3021 C3023 1.327 . S
C3021 C3027 1.429 . S
C3022 C3014 1.574 . S
C3022 H3017 0.949 . S
C3022 C3028 1.368 . S
C3023 C3007 1.349 . S
C3023 H3015 0.950 . S
C3023 C3021 1.327 . S
C3024 C3012 1.349 . S
C3024 H3018 0.950 . S
C3024 C3025 1.327 . S
C3025 H3019 0.950 . S
C3025 C3024 1.327 . S
C3025 C3029 1.429 . S
C3026 C3009 1.574 . S
C3026 H3020 0.949 . S
C3026 C3030 1.368 . S
C3027 C3008 1.429 . S
C3027 C3021 1.429 . S
C3027 C3028 1.523 . S
C3028 C3009 1.368 . S
C3028 C3022 1.368 . S
C3028 C3027 1.523 . S
C3029 C3013 1.429 . S
C3029 C3025 1.429 . S
C3029 C3030 1.523 . S
C3030 C3014 1.368 . S
C3030 C3026 1.368 . S
C3030 C3029 1.523 . S
H3031 C3006 0.950 . S
H3032 C3008 0.950 . S
H3033 C3009 0.949 . S
H3034 C3011 0.950 . S
H3035 C3013 0.950 . S
C3036 C3037 1.349 . S
C3036 C3038 1.327 . S
C3036 H3061 0.950 . S
C3037 C3036 1.349 . S
C3037 C3053 1.349 . S
C3038 C3036 1.327 . S
C3038 C3057 1.429 . S
C3038 H3062 0.950 . S
C3039 C3056 1.574 . S
C3039 C3058 1.368 . S
C3039 H3063 0.949 . S
H3040 C3044 0.949 . S
C3041 C3042 1.349 . S
C3041 C3043 1.327 . S
C3041 H3064 0.950 . S
C3042 C3041 1.349 . S
C3042 C3054 1.349 . S
C3043 C3041 1.327 . S
C3043 C3059 1.429 . S
C3043 H3065 0.950 . S
C3044 H3040 0.949 . S
C3044 C3052 1.574 . S
C3044 C3060 1.368 . S
H3045 C3053 0.950 . S
H3046 C3051 0.950 . S
H3047 C3052 0.949 . S
H3048 C3054 0.950 . S
H3049 C3055 0.950 . S
H3050 C3056 0.949 . S
C3051 H3046 0.950 . S
C3051 C3053 1.327 . S
C3051 C3057 1.429 . S
C3052 C3044 1.574 . S
C3052 H3047 0.949 . S
C3052 C3058 1.368 . S
C3053 C3037 1.349 . S
C3053 H3045 0.950 . S
C3053 C3051 1.327 . S
C3054 C3042 1.349 . S
C3054 H3048 0.950 . S
C3054 C3055 1.327 . S
C3055 H3049 0.950 . S
C3055 C3054 1.327 . S
C3055 C3059 1.429 . S
C3056 C3039 1.574 . S
C3056 H3050 0.949 . S
C3056 C3060 1.368 . S
C3057 C3038 1.429 . S
C3057 C3051 1.429 . S
C3057 C3058 1.523 . S
C3058 C3039 1.368 . S
C3058 C3052 1.368 . S
C3058 C3057 1.523 . S
C3059 C3043 1.429 . S
C3059 C3055 1.429 . S
C3059 C3060 1.523 . S
C3060 C3044 1.368 . S
C3060 C3056 1.368 . S
C3060 C3059 1.523 . S
H3061 C3036 0.950 . S
H3062 C3038 0.950 . S
H3063 C3039 0.949 . S
H3064 C3041 0.950 . S
H3065 C3043 0.950 . S
C3066 C3067 1.349 . S
C3066 C3068 1.327 . S
C3066 H3091 0.950 . S
C3067 C3066 1.349 . S
C3067 C3083 1.349 . S
C3068 C3066 1.327 . S
C3068 C3087 1.429 . S
C3068 H3092 0.950 . S
C3069 C3086 1.574 . S
C3069 C3088 1.368 . S
C3069 H3093 0.949 . S
H3070 C3074 0.949 . S
C3071 C3072 1.349 . S
C3071 C3073 1.327 . S
C3071 H3094 0.950 . S
C3072 C3071 1.349 . S
C3072 C3084 1.349 . S
C3073 C3071 1.327 . S
C3073 C3089 1.429 . S
C3073 H3095 0.950 . S
C3074 H3070 0.949 . S
C3074 C3082 1.574 . S
C3074 C3090 1.368 . S
H3075 C3083 0.950 . S
H3076 C3081 0.950 . S
H3077 C3082 0.949 . S
H3078 C3084 0.950 . S
H3079 C3085 0.950 . S
H3080 C3086 0.949 . S
C3081 H3076 0.950 . S
C3081 C3083 1.327 . S
C3081 C3087 1.429 . S
C3082 C3074 1.574 . S
C3082 H3077 0.949 . S
C3082 C3088 1.368 . S
C3083 C3067 1.349 . S
C3083 H3075 0.950 . S
C3083 C3081 1.327 . S
C3084 C3072 1.349 . S
C3084 H3078 0.950 . S
C3084 C3085 1.327 . S
C3085 H3079 0.950 . S
C3085 C3084 1.327 . S
C3085 C3089 1.429 . S
C3086 C3069 1.574 . S
C3086 H3080 0.949 . S
C3086 C3090 1.368 . S
C3087 C3068 1.429 . S
C3087 C3081 1.429 . S
C3087 C3088 1.523 . S
C3088 C3069 1.368 . S
C3088 C3082 1.368 . S
C3088 C3087 1.523 . S
C3089 C3073 1.429 . S
C3089 C3085 1.429 . S
C3089 C3090 1.523 . S
C3090 C3074 1.368 . S
C3090 C3086 1.368 . S
C3090 C3089 1.523 . S
H3091 C3066 0.950 . S
H3092 C3068 0.950 . S
H3093 C3069 0.949 . S
H3094 C3071 0.950 . S
H3095 C3073 0.950 . S
C3096 C3097 1.349 . S
C3096 C3098 1.327 . S
C3096 H3121 0.950 . S
C3097 C3096 1.349 . S
C3097 C3113 1.349 . S
C3098 C3096 1.327 . S
C3098 C3117 1.429 . S
C3098 H3122 0.950 . S
C3099 C3116 1.574 . S
C3099 C3118 1.368 . S
C3099 H3123 0.949 . S
H3100 C3104 0.949 . S
C3101 C3102 1.349 . S
C3101 C3103 1.327 . S
C3101 H3124 0.950 . S
C3102 C3101 1.349 . S
C3102 C3114 1.349 . S
C3103 C3101 1.327 . S
C3103 C3119 1.429 . S
C3103 H3125 0.950 . S
C3104 H3100 0.949 . S
C3104 C3112 1.574 . S
C3104 C3120 1.368 . S
H3105 C3113 0.950 . S
H3106 C3111 0.950 . S
H3107 C3112 0.949 . S
H3108 C3114 0.950 . S
H3109 C3115 0.950 . S
H3110 C3116 0.949 . S
C3111 H3106 0.950 . S
C3111 C3113 1.327 . S
C3111 C3117 1.429 . S
C3112 C3104 1.574 . S
C3112 H3107 0.949 . S
C3112 C3118 1.368 . S
C3113 C3097 1.349 . S
C3113 H3105 0.950 . S
C3113 C3111 1.327 . S
C3114 C3102 1.349 . S
C3114 H3108 0.950 . S
C3114 C3115 1.327 . S
C3115 H3109 0.950 . S
C3115 C3114 1.327 . S
C3115 C3119 1.429 . S
C3116 C3099 1.574 . S
C3116 H3110 0.949 . S
C3116 C3120 1.368 . S
C3117 C3098 1.429 . S
C3117 C3111 1.429 . S
C3117 C3118 1.523 . S
C3118 C3099 1.368 . S
C3118 C3112 1.368 . S
C3118 C3117 1.523 . S
C3119 C3103 1.429 . S
C3119 C3115 1.429 . S
C3119 C3120 1.523 . S
C3120 C3104 1.368 . S
C3120 C3116 1.368 . S
C3120 C3119 1.523 . S
H3121 C3096 0.950 . S
H3122 C3098 0.950 . S
H3123 C3099 0.949 . S
H3124 C3101 0.950 . S
H3125 C3103 0.950 . S
C3126 C3127 1.349 . S
C3126 C3128 1.327 . S
C3126 H3151 0.950 . S
C3127 C3126 1.349 . S
C3127 C3143 1.349 . S
C3128 C3126 1.327 . S
C3128 C3147 1.429 . S
C3128 H3152 0.950 . S
C3129 C3146 1.574 . S
C3129 C3148 1.368 . S
C3129 H3153 0.949 . S
H3130 C3134 0.949 . S
C3131 C3132 1.349 . S
C3131 C3133 1.327 . S
C3131 H3154 0.950 . S
C3132 C3131 1.349 . S
C3132 C3144 1.349 . S
C3133 C3131 1.327 . S
C3133 C3149 1.429 . S
C3133 H3155 0.950 . S
C3134 H3130 0.949 . S
C3134 C3142 1.574 . S
C3134 C3150 1.368 . S
H3135 C3143 0.950 . S
H3136 C3141 0.950 . S
H3137 C3142 0.949 . S
H3138 C3144 0.950 . S
H3139 C3145 0.950 . S
H3140 C3146 0.949 . S
C3141 H3136 0.950 . S
C3141 C3143 1.327 . S
C3141 C3147 1.429 . S
C3142 C3134 1.574 . S
C3142 H3137 0.949 . S
C3142 C3148 1.368 . S
C3143 C3127 1.349 . S
C3143 H3135 0.950 . S
C3143 C3141 1.327 . S
C3144 C3132 1.349 . S
C3144 H3138 0.950 . S
C3144 C3145 1.327 . S
C3145 H3139 0.950 . S
C3145 C3144 1.327 . S
C3145 C3149 1.429 . S
C3146 C3129 1.574 . S
C3146 H3140 0.949 . S
C3146 C3150 1.368 . S
C3147 C3128 1.429 . S
C3147 C3141 1.429 . S
C3147 C3148 1.523 . S
C3148 C3129 1.368 . S
C3148 C3142 1.368 . S
C3148 C3147 1.523 . S
C3149 C3133 1.429 . S
C3149 C3145 1.429 . S
C3149 C3150 1.523 . S
C3150 C3134 1.368 . S
C3150 C3146 1.368 . S
C3150 C3149 1.523 . S
H3151 C3126 0.950 . S
H3152 C3128 0.950 . S
H3153 C3129 0.949 . S
H3154 C3131 0.950 . S
H3155 C3133 0.950 . S
C3156 C3157 1.349 . S
C3156 C3158 1.327 . S
C3156 H3181 0.950 . S
C3157 C3156 1.349 . S
C3157 C3173 1.349 . S
C3158 C3156 1.327 . S
C3158 C3177 1.429 . S
C3158 H3182 0.950 . S
C3159 C3176 1.574 . S
C3159 C3178 1.368 . S
C3159 H3183 0.949 . S
H3160 C3164 0.949 . S
C3161 C3162 1.349 . S
C3161 C3163 1.327 . S
C3161 H3184 0.950 . S
C3162 C3161 1.349 . S
C3162 C3174 1.349 . S
C3163 C3161 1.327 . S
C3163 C3179 1.429 . S
C3163 H3185 0.950 . S
C3164 H3160 0.949 . S
C3164 C3172 1.574 . S
C3164 C3180 1.368 . S
H3165 C3173 0.950 . S
H3166 C3171 0.950 . S
H3167 C3172 0.949 . S
H3168 C3174 0.950 . S
H3169 C3175 0.950 . S
H3170 C3176 0.949 . S
C3171 H3166 0.950 . S
C3171 C3173 1.327 . S
C3171 C3177 1.429 . S
C3172 C3164 1.574 . S
C3172 H3167 0.949 . S
C3172 C3178 1.368 . S
C3173 C3157 1.349 . S
C3173 H3165 0.950 . S
C3173 C3171 1.327 . S
C3174 C3162 1.349 . S
C3174 H3168 0.950 . S
C3174 C3175 1.327 . S
C3175 H3169 0.950 . S
C3175 C3174 1.327 . S
C3175 C3179 1.429 . S
C3176 C3159 1.574 . S
C3176 H3170 0.949 . S
C3176 C3180 1.368 . S
C3177 C3158 1.429 . S
C3177 C3171 1.429 . S
C3177 C3178 1.523 . S
C3178 C3159 1.368 . S
C3178 C3172 1.368 . S
C3178 C3177 1.523 . S
C3179 C3163 1.429 . S
C3179 C3175 1.429 . S
C3179 C3180 1.523 . S
C3180 C3164 1.368 . S
C3180 C3176 1.368 . S
C3180 C3179 1.523 . S
H3181 C3156 0.950 . S
H3182 C3158 0.950 . S
H3183 C3159 0.949 . S
H3184 C3161 0.950 . S
H3185 C3163 0.950 . S
C3186 C3187 1.349 . S
C3186 C3188 1.327 . S
C3186 H3211 0.950 . S
C3187 C3186 1.349 . S
C3187 C3203 1.349 . S
C3188 C3186 1.327 . S
C3188 C3207 1.429 . S
C3188 H3212 0.950 . S
C3189 C3206 1.574 . S
C3189 C3208 1.368 . S
C3189 H3213 0.949 . S
H3190 C3194 0.949 . S
C3191 C3192 1.349 . S
C3191 C3193 1.327 . S
C3191 H3214 0.950 . S
C3192 C3191 1.349 . S
C3192 C3204 1.349 . S
C3193 C3191 1.327 . S
C3193 C3209 1.429 . S
C3193 H3215 0.950 . S
C3194 H3190 0.949 . S
C3194 C3202 1.574 . S
C3194 C3210 1.368 . S
H3195 C3203 0.950 . S
H3196 C3201 0.950 . S
H3197 C3202 0.949 . S
H3198 C3204 0.950 . S
H3199 C3205 0.950 . S
H3200 C3206 0.949 . S
C3201 H3196 0.950 . S
C3201 C3203 1.327 . S
C3201 C3207 1.429 . S
C3202 C3194 1.574 . S
C3202 H3197 0.949 . S
C3202 C3208 1.368 . S
C3203 C3187 1.349 . S
C3203 H3195 0.950 . S
C3203 C3201 1.327 . S
C3204 C3192 1.349 . S
C3204 H3198 0.950 . S
C3204 C3205 1.327 . S
C3205 H3199 0.950 . S
C3205 C3204 1.327 . S
C3205 C3209 1.429 . S
C3206 C3189 1.574 . S
C3206 H3200 0.949 . S
C3206 C3210 1.368 . S
C3207 C3188 1.429 . S
C3207 C3201 1.429 . S
C3207 C3208 1.523 . S
C3208 C3189 1.368 . S
C3208 C3202 1.368 . S
C3208 C3207 1.523 . S
C3209 C3193 1.429 . S
C3209 C3205 1.429 . S
C3209 C3210 1.523 . S
C3210 C3194 1.368 . S
C3210 C3206 1.368 . S
C3210 C3209 1.523 . S
H3211 C3186 0.950 . S
H3212 C3188 0.950 . S
H3213 C3189 0.949 . S
H3214 C3191 0.950 . S
H3215 C3193 0.950 . S
C3216 C3217 1.349 . S
C3216 C3218 1.327 . S
C3216 H3241 0.950 . S
C3217 C3216 1.349 . S
C3217 C3233 1.349 . S
C3218 C3216 1.327 . S
C3218 C3237 1.429 . S
C3218 H3242 0.950 . S
C3219 C3236 1.574 . S
C3219 C3238 1.368 . S
C3219 H3243 0.949 . S
H3220 C3224 0.949 . S
C3221 C3222 1.349 . S
C3221 C3223 1.327 . S
C3221 H3244 0.950 . S
C3222 C3221 1.349 . S
C3222 C3234 1.349 . S
C3223 C3221 1.327 . S
C3223 C3239 1.429 . S
C3223 H3245 0.950 . S
C3224 H3220 0.949 . S
C3224 C3232 1.574 . S
C3224 C3240 1.368 . S
H3225 C3233 0.950 . S
H3226 C3231 0.950 . S
H3227 C3232 0.949 . S
H3228 C3234 0.950 . S
H3229 C3235 0.950 . S
H3230 C3236 0.949 . S
C3231 H3226 0.950 . S
C3231 C3233 1.327 . S
C3231 C3237 1.429 . S
C3232 C3224 1.574 . S
C3232 H3227 0.949 . S
C3232 C3238 1.368 . S
C3233 C3217 1.349 . S
C3233 H3225 0.950 . S
C3233 C3231 1.327 . S
C3234 C3222 1.349 . S
C3234 H3228 0.950 . S
C3234 C3235 1.327 . S
C3235 H3229 0.950 . S
C3235 C3234 1.327 . S
C3235 C3239 1.429 . S
C3236 C3219 1.574 . S
C3236 H3230 0.949 . S
C3236 C3240 1.368 . S
C3237 C3218 1.429 . S
C3237 C3231 1.429 . S
C3237 C3238 1.523 . S
C3238 C3219 1.368 . S
C3238 C3232 1.368 . S
C3238 C3237 1.523 . S
C3239 C3223 1.429 . S
C3239 C3235 1.429 . S
C3239 C3240 1.523 . S
C3240 C3224 1.368 . S
C3240 C3236 1.368 . S
C3240 C3239 1.523 . S
H3241 C3216 0.950 . S
H3242 C3218 0.950 . S
H3243 C3219 0.949 . S
H3244 C3221 0.950 . S
H3245 C3223 0.950 . S
C3246 C3247 1.349 . S
C3246 C3248 1.327 . S
C3246 H3271 0.950 . S
C3247 C3246 1.349 . S
C3247 C3263 1.349 . S
C3248 C3246 1.327 . S
C3248 C3267 1.429 . S
C3248 H3272 0.950 . S
C3249 C3266 1.574 . S
C3249 C3268 1.368 . S
C3249 H3273 0.949 . S
H3250 C3254 0.949 . S
C3251 C3252 1.349 . S
C3251 C3253 1.327 . S
C3251 H3274 0.950 . S
C3252 C3251 1.349 . S
C3252 C3264 1.349 . S
C3253 C3251 1.327 . S
C3253 C3269 1.429 . S
C3253 H3275 0.950 . S
C3254 H3250 0.949 . S
C3254 C3262 1.574 . S
C3254 C3270 1.368 . S
H3255 C3263 0.950 . S
H3256 C3261 0.950 . S
H3257 C3262 0.949 . S
H3258 C3264 0.950 . S
H3259 C3265 0.950 . S
H3260 C3266 0.949 . S
C3261 H3256 0.950 . S
C3261 C3263 1.327 . S
C3261 C3267 1.429 . S
C3262 C3254 1.574 . S
C3262 H3257 0.949 . S
C3262 C3268 1.368 . S
C3263 C3247 1.349 . S
C3263 H3255 0.950 . S
C3263 C3261 1.327 . S
C3264 C3252 1.349 . S
C3264 H3258 0.950 . S
C3264 C3265 1.327 . S
C3265 H3259 0.950 . S
C3265 C3264 1.327 . S
C3265 C3269 1.429 . S
C3266 C3249 1.574 . S
C3266 H3260 0.949 . S
C3266 C3270 1.368 . S
C3267 C3248 1.429 . S
C3267 C3261 1.429 . S
C3267 C3268 1.523 . S
C3268 C3249 1.368 . S
C3268 C3262 1.368 . S
C3268 C3267 1.523 . S
C3269 C3253 1.429 . S
C3269 C3265 1.429 . S
C3269 C3270 1.523 . S
C3270 C3254 1.368 . S
C3270 C3266 1.368 . S
C3270 C3269 1.523 . S
H3271 C3246 0.950 . S
H3272 C3248 0.950 . S
H3273 C3249 0.949 . S
H3274 C3251 0.950 . S
H3275 C3253 0.950 . S
C3276 C3277 1.349 . S
C3276 C3278 1.327 . S
C3276 H3301 0.950 . S
C3277 C3276 1.349 . S
C3277 C3293 1.349 . S
C3278 C3276 1.327 . S
C3278 C3297 1.429 . S
C3278 H3302 0.950 . S
C3279 C3296 1.574 . S
C3279 C3298 1.368 . S
C3279 H3303 0.949 . S
H3280 C3284 0.949 . S
C3281 C3282 1.349 . S
C3281 C3283 1.327 . S
C3281 H3304 0.950 . S
C3282 C3281 1.349 . S
C3282 C3294 1.349 . S
C3283 C3281 1.327 . S
C3283 C3299 1.429 . S
C3283 H3305 0.950 . S
C3284 H3280 0.949 . S
C3284 C3292 1.574 . S
C3284 C3300 1.368 . S
H3285 C3293 0.950 . S
H3286 C3291 0.950 . S
H3287 C3292 0.949 . S
H3288 C3294 0.950 . S
H3289 C3295 0.950 . S
H3290 C3296 0.949 . S
C3291 H3286 0.950 . S
C3291 C3293 1.327 . S
C3291 C3297 1.429 . S
C3292 C3284 1.574 . S
C3292 H3287 0.949 . S
C3292 C3298 1.368 . S
C3293 C3277 1.349 . S
C3293 H3285 0.950 . S
C3293 C3291 1.327 . S
C3294 C3282 1.349 . S
C3294 H3288 0.950 . S
C3294 C3295 1.327 . S
C3295 H3289 0.950 . S
C3295 C3294 1.327 . S
C3295 C3299 1.429 . S
C3296 C3279 1.574 . S
C3296 H3290 0.949 . S
C3296 C3300 1.368 . S
C3297 C3278 1.429 . S
C3297 C3291 1.429 . S
C3297 C3298 1.523 . S
C3298 C3279 1.368 . S
C3298 C3292 1.368 . S
C3298 C3297 1.523 . S
C3299 C3283 1.429 . S
C3299 C3295 1.429 . S
C3299 C3300 1.523 . S
C3300 C3284 1.368 . S
C3300 C3296 1.368 . S
C3300 C3299 1.523 . S
H3301 C3276 0.950 . S
H3302 C3278 0.950 . S
H3303 C3279 0.949 . S
H3304 C3281 0.950 . S
H3305 C3283 0.950 . S
C3306 C3307 1.349 . S
C3306 C3308 1.327 . S
C3306 H3331 0.950 . S
C3307 C3306 1.349 . S
C3307 C3323 1.349 . S
C3308 C3306 1.327 . S
C3308 C3327 1.429 . S
C3308 H3332 0.950 . S
C3309 C3326 1.574 . S
C3309 C3328 1.368 . S
C3309 H3333 0.949 . S
H3310 C3314 0.949 . S
C3311 C3312 1.349 . S
C3311 C3313 1.327 . S
C3311 H3334 0.950 . S
C3312 C3311 1.349 . S
C3312 C3324 1.349 . S
C3313 C3311 1.327 . S
C3313 C3329 1.429 . S
C3313 H3335 0.950 . S
C3314 H3310 0.949 . S
C3314 C3322 1.574 . S
C3314 C3330 1.368 . S
H3315 C3323 0.950 . S
H3316 C3321 0.950 . S
H3317 C3322 0.949 . S
H3318 C3324 0.950 . S
H3319 C3325 0.950 . S
H3320 C3326 0.949 . S
C3321 H3316 0.950 . S
C3321 C3323 1.327 . S
C3321 C3327 1.429 . S
C3322 C3314 1.574 . S
C3322 H3317 0.949 . S
C3322 C3328 1.368 . S
C3323 C3307 1.349 . S
C3323 H3315 0.950 . S
C3323 C3321 1.327 . S
C3324 C3312 1.349 . S
C3324 H3318 0.950 . S
C3324 C3325 1.327 . S
C3325 H3319 0.950 . S
C3325 C3324 1.327 . S
C3325 C3329 1.429 . S
C3326 C3309 1.574 . S
C3326 H3320 0.949 . S
C3326 C3330 1.368 . S
C3327 C3308 1.429 . S
C3327 C3321 1.429 . S
C3327 C3328 1.523 . S
C3328 C3309 1.368 . S
C3328 C3322 1.368 . S
C3328 C3327 1.523 . S
C3329 C3313 1.429 . S
C3329 C3325 1.429 . S
C3329 C3330 1.523 . S
C3330 C3314 1.368 . S
C3330 C3326 1.368 . S
C3330 C3329 1.523 . S
H3331 C3306 0.950 . S
H3332 C3308 0.950 . S
H3333 C3309 0.949 . S
H3334 C3311 0.950 . S
H3335 C3313 0.950 . S
C3336 C3337 1.349 . S
C3336 C3338 1.327 . S
C3336 H3361 0.950 . S
C3337 C3336 1.349 . S
C3337 C3353 1.349 . S
C3338 C3336 1.327 . S
C3338 C3357 1.429 . S
C3338 H3362 0.950 . S
C3339 C3356 1.574 . S
C3339 C3358 1.368 . S
C3339 H3363 0.949 . S
H3340 C3344 0.949 . S
C3341 C3342 1.349 . S
C3341 C3343 1.327 . S
C3341 H3364 0.950 . S
C3342 C3341 1.349 . S
C3342 C3354 1.349 . S
C3343 C3341 1.327 . S
C3343 C3359 1.429 . S
C3343 H3365 0.950 . S
C3344 H3340 0.949 . S
C3344 C3352 1.574 . S
C3344 C3360 1.368 . S
H3345 C3353 0.950 . S
H3346 C3351 0.950 . S
H3347 C3352 0.949 . S
H3348 C3354 0.950 . S
H3349 C3355 0.950 . S
H3350 C3356 0.949 . S
C3351 H3346 0.950 . S
C3351 C3353 1.327 . S
C3351 C3357 1.429 . S
C3352 C3344 1.574 . S
C3352 H3347 0.949 . S
C3352 C3358 1.368 . S
C3353 C3337 1.349 . S
C3353 H3345 0.950 . S
C3353 C3351 1.327 . S
C3354 C3342 1.349 . S
C3354 H3348 0.950 . S
C3354 C3355 1.327 . S
C3355 H3349 0.950 . S
C3355 C3354 1.327 . S
C3355 C3359 1.429 . S
C3356 C3339 1.574 . S
C3356 H3350 0.949 . S
C3356 C3360 1.368 . S
C3357 C3338 1.429 . S
C3357 C3351 1.429 . S
C3357 C3358 1.523 . S
C3358 C3339 1.368 . S
C3358 C3352 1.368 . S
C3358 C3357 1.523 . S
C3359 C3343 1.429 . S
C3359 C3355 1.429 . S
C3359 C3360 1.523 . S
C3360 C3344 1.368 . S
C3360 C3356 1.368 . S
C3360 C3359 1.523 . S
H3361 C3336 0.950 . S
H3362 C3338 0.950 . S
H3363 C3339 0.949 . S
H3364 C3341 0.950 . S
H3365 C3343 0.950 . S
C3366 C3367 1.349 . S
C3366 C3368 1.327 . S
C3366 H3391 0.950 . S
C3367 C3366 1.349 . S
C3367 C3383 1.349 . S
C3368 C3366 1.327 . S
C3368 C3387 1.429 . S
C3368 H3392 0.950 . S
C3369 C3386 1.574 . S
C3369 C3388 1.368 . S
C3369 H3393 0.949 . S
H3370 C3374 0.949 . S
C3371 C3372 1.349 . S
C3371 C3373 1.327 . S
C3371 H3394 0.950 . S
C3372 C3371 1.349 . S
C3372 C3384 1.349 . S
C3373 C3371 1.327 . S
C3373 C3389 1.429 . S
C3373 H3395 0.950 . S
C3374 H3370 0.949 . S
C3374 C3382 1.574 . S
C3374 C3390 1.368 . S
H3375 C3383 0.950 . S
H3376 C3381 0.950 . S
H3377 C3382 0.949 . S
H3378 C3384 0.950 . S
H3379 C3385 0.950 . S
H3380 C3386 0.949 . S
C3381 H3376 0.950 . S
C3381 C3383 1.327 . S
C3381 C3387 1.429 . S
C3382 C3374 1.574 . S
C3382 H3377 0.949 . S
C3382 C3388 1.368 . S
C3383 C3367 1.349 . S
C3383 H3375 0.950 . S
C3383 C3381 1.327 . S
C3384 C3372 1.349 . S
C3384 H3378 0.950 . S
C3384 C3385 1.327 . S
C3385 H3379 0.950 . S
C3385 C3384 1.327 . S
C3385 C3389 1.429 . S
C3386 C3369 1.574 . S
C3386 H3380 0.949 . S
C3386 C3390 1.368 . S
C3387 C3368 1.429 . S
C3387 C3381 1.429 . S
C3387 C3388 1.523 . S
C3388 C3369 1.368 . S
C3388 C3382 1.368 . S
C3388 C3387 1.523 . S
C3389 C3373 1.429 . S
C3389 C3385 1.429 . S
C3389 C3390 1.523 . S
C3390 C3374 1.368 . S
C3390 C3386 1.368 . S
C3390 C3389 1.523 . S
H3391 C3366 0.950 . S
H3392 C3368 0.950 . S
H3393 C3369 0.949 . S
H3394 C3371 0.950 . S
H3395 C3373 0.950 . S
C3396 C3397 1.349 . S
C3396 C3398 1.327 . S
C3396 H3421 0.950 . S
C3397 C3396 1.349 . S
C3397 C3413 1.349 . S
C3398 C3396 1.327 . S
C3398 C3417 1.429 . S
C3398 H3422 0.950 . S
C3399 C3416 1.574 . S
C3399 C3418 1.368 . S
C3399 H3423 0.949 . S
H3400 C3404 0.949 . S
C3401 C3402 1.349 . S
C3401 C3403 1.327 . S
C3401 H3424 0.950 . S
C3402 C3401 1.349 . S
C3402 C3414 1.349 . S
C3403 C3401 1.327 . S
C3403 C3419 1.429 . S
C3403 H3425 0.950 . S
C3404 H3400 0.949 . S
C3404 C3412 1.574 . S
C3404 C3420 1.368 . S
H3405 C3413 0.950 . S
H3406 C3411 0.950 . S
H3407 C3412 0.949 . S
H3408 C3414 0.950 . S
H3409 C3415 0.950 . S
H3410 C3416 0.949 . S
C3411 H3406 0.950 . S
C3411 C3413 1.327 . S
C3411 C3417 1.429 . S
C3412 C3404 1.574 . S
C3412 H3407 0.949 . S
C3412 C3418 1.368 . S
C3413 C3397 1.349 . S
C3413 H3405 0.950 . S
C3413 C3411 1.327 . S
C3414 C3402 1.349 . S
C3414 H3408 0.950 . S
C3414 C3415 1.327 . S
C3415 H3409 0.950 . S
C3415 C3414 1.327 . S
C3415 C3419 1.429 . S
C3416 C3399 1.574 . S
C3416 H3410 0.949 . S
C3416 C3420 1.368 . S
C3417 C3398 1.429 . S
C3417 C3411 1.429 . S
C3417 C3418 1.523 . S
C3418 C3399 1.368 . S
C3418 C3412 1.368 . S
C3418 C3417 1.523 . S
C3419 C3403 1.429 . S
C3419 C3415 1.429 . S
C3419 C3420 1.523 . S
C3420 C3404 1.368 . S
C3420 C3416 1.368 . S
C3420 C3419 1.523 . S
H3421 C3396 0.950 . S
H3422 C3398 0.950 . S
H3423 C3399 0.949 . S
H3424 C3401 0.950 . S
H3425 C3403 0.950 . S
C3426 C3427 1.349 . S
C3426 C3428 1.327 . S
C3426 H3451 0.950 . S
C3427 C3426 1.349 . S
C3427 C3443 1.349 . S
C3428 C3426 1.327 . S
C3428 C3447 1.429 . S
C3428 H3452 0.950 . S
C3429 C3446 1.574 . S
C3429 C3448 1.368 . S
C3429 H3453 0.949 . S
H3430 C3434 0.949 . S
C3431 C3432 1.349 . S
C3431 C3433 1.327 . S
C3431 H3454 0.950 . S
C3432 C3431 1.349 . S
C3432 C3444 1.349 . S
C3433 C3431 1.327 . S
C3433 C3449 1.429 . S
C3433 H3455 0.950 . S
C3434 H3430 0.949 . S
C3434 C3442 1.574 . S
C3434 C3450 1.368 . S
H3435 C3443 0.950 . S
H3436 C3441 0.950 . S
H3437 C3442 0.949 . S
H3438 C3444 0.950 . S
H3439 C3445 0.950 . S
H3440 C3446 0.949 . S
C3441 H3436 0.950 . S
C3441 C3443 1.327 . S
C3441 C3447 1.429 . S
C3442 C3434 1.574 . S
C3442 H3437 0.949 . S
C3442 C3448 1.368 . S
C3443 C3427 1.349 . S
C3443 H3435 0.950 . S
C3443 C3441 1.327 . S
C3444 C3432 1.349 . S
C3444 H3438 0.950 . S
C3444 C3445 1.327 . S
C3445 H3439 0.950 . S
C3445 C3444 1.327 . S
C3445 C3449 1.429 . S
C3446 C3429 1.574 . S
C3446 H3440 0.949 . S
C3446 C3450 1.368 . S
C3447 C3428 1.429 . S
C3447 C3441 1.429 . S
C3447 C3448 1.523 . S
C3448 C3429 1.368 . S
C3448 C3442 1.368 . S
C3448 C3447 1.523 . S
C3449 C3433 1.429 . S
C3449 C3445 1.429 . S
C3449 C3450 1.523 . S
C3450 C3434 1.368 . S
C3450 C3446 1.368 . S
C3450 C3449 1.523 . S
H3451 C3426 0.950 . S
H3452 C3428 0.950 . S
H3453 C3429 0.949 . S
H3454 C3431 0.950 . S
H3455 C3433 0.950 . S
C3456 C3457 1.349 . S
C3456 C3458 1.327 . S
C3456 H3481 0.950 . S
C3457 C3456 1.349 . S
C3457 C3473 1.349 . S
C3458 C3456 1.327 . S
C3458 C3477 1.429 . S
C3458 H3482 0.950 . S
C3459 C3476 1.574 . S
C3459 C3478 1.368 . S
C3459 H3483 0.949 . S
H3460 C3464 0.949 . S
C3461 C3462 1.349 . S
C3461 C3463 1.327 . S
C3461 H3484 0.950 . S
C3462 C3461 1.349 . S
C3462 C3474 1.349 . S
C3463 C3461 1.327 . S
C3463 C3479 1.429 . S
C3463 H3485 0.950 . S
C3464 H3460 0.949 . S
C3464 C3472 1.574 . S
C3464 C3480 1.368 . S
H3465 C3473 0.950 . S
H3466 C3471 0.950 . S
H3467 C3472 0.949 . S
H3468 C3474 0.950 . S
H3469 C3475 0.950 . S
H3470 C3476 0.949 . S
C3471 H3466 0.950 . S
C3471 C3473 1.327 . S
C3471 C3477 1.429 . S
C3472 C3464 1.574 . S
C3472 H3467 0.949 . S
C3472 C3478 1.368 . S
C3473 C3457 1.349 . S
C3473 H3465 0.950 . S
C3473 C3471 1.327 . S
C3474 C3462 1.349 . S
C3474 H3468 0.950 . S
C3474 C3475 1.327 . S
C3475 H3469 0.950 . S
C3475 C3474 1.327 . S
C3475 C3479 1.429 . S
C3476 C3459 1.574 . S
C3476 H3470 0.949 . S
C3476 C3480 1.368 . S
C3477 C3458 1.429 . S
C3477 C3471 1.429 . S
C3477 C3478 1.523 . S
C3478 C3459 1.368 . S
C3478 C3472 1.368 . S
C3478 C3477 1.523 . S
C3479 C3463 1.429 . S
C3479 C3475 1.429 . S
C3479 C3480 1.523 . S
C3480 C3464 1.368 . S
C3480 C3476 1.368 . S
C3480 C3479 1.523 . S
H3481 C3456 0.950 . S
H3482 C3458 0.950 . S
H3483 C3459 0.949 . S
H3484 C3461 0.950 . S
H3485 C3463 0.950 . S
C3486 C3487 1.349 . S
C3486 C3488 1.327 . S
C3486 H3511 0.950 . S
C3487 C3486 1.349 . S
C3487 C3503 1.349 . S
C3488 C3486 1.327 . S
C3488 C3507 1.429 . S
C3488 H3512 0.950 . S
C3489 C3506 1.574 . S
C3489 C3508 1.368 . S
C3489 H3513 0.949 . S
H3490 C3494 0.949 . S
C3491 C3492 1.349 . S
C3491 C3493 1.327 . S
C3491 H3514 0.950 . S
C3492 C3491 1.349 . S
C3492 C3504 1.349 . S
C3493 C3491 1.327 . S
C3493 C3509 1.429 . S
C3493 H3515 0.950 . S
C3494 H3490 0.949 . S
C3494 C3502 1.574 . S
C3494 C3510 1.368 . S
H3495 C3503 0.950 . S
H3496 C3501 0.950 . S
H3497 C3502 0.949 . S
H3498 C3504 0.950 . S
H3499 C3505 0.950 . S
H3500 C3506 0.949 . S
C3501 H3496 0.950 . S
C3501 C3503 1.327 . S
C3501 C3507 1.429 . S
C3502 C3494 1.574 . S
C3502 H3497 0.949 . S
C3502 C3508 1.368 . S
C3503 C3487 1.349 . S
C3503 H3495 0.950 . S
C3503 C3501 1.327 . S
C3504 C3492 1.349 . S
C3504 H3498 0.950 . S
C3504 C3505 1.327 . S
C3505 H3499 0.950 . S
C3505 C3504 1.327 . S
C3505 C3509 1.429 . S
C3506 C3489 1.574 . S
C3506 H3500 0.949 . S
C3506 C3510 1.368 . S
C3507 C3488 1.429 . S
C3507 C3501 1.429 . S
C3507 C3508 1.523 . S
C3508 C3489 1.368 . S
C3508 C3502 1.368 . S
C3508 C3507 1.523 . S
C3509 C3493 1.429 . S
C3509 C3505 1.429 . S
C3509 C3510 1.523 . S
C3510 C3494 1.368 . S
C3510 C3506 1.368 . S
C3510 C3509 1.523 . S
H3511 C3486 0.950 . S
H3512 C3488 0.950 . S
H3513 C3489 0.949 . S
H3514 C3491 0.950 . S
H3515 C3493 0.950 . S
C3516 C3517 1.349 . S
C3516 C3518 1.327 . S
C3516 H3541 0.950 . S
C3517 C3516 1.349 . S
C3517 C3533 1.349 . S
C3518 C3516 1.327 . S
C3518 C3537 1.429 . S
C3518 H3542 0.950 . S
C3519 C3536 1.574 . S
C3519 C3538 1.368 . S
C3519 H3543 0.949 . S
H3520 C3524 0.949 . S
C3521 C3522 1.349 . S
C3521 C3523 1.327 . S
C3521 H3544 0.950 . S
C3522 C3521 1.349 . S
C3522 C3534 1.349 . S
C3523 C3521 1.327 . S
C3523 C3539 1.429 . S
C3523 H3545 0.950 . S
C3524 H3520 0.949 . S
C3524 C3532 1.574 . S
C3524 C3540 1.368 . S
H3525 C3533 0.950 . S
H3526 C3531 0.950 . S
H3527 C3532 0.949 . S
H3528 C3534 0.950 . S
H3529 C3535 0.950 . S
H3530 C3536 0.949 . S
C3531 H3526 0.950 . S
C3531 C3533 1.327 . S
C3531 C3537 1.429 . S
C3532 C3524 1.574 . S
C3532 H3527 0.949 . S
C3532 C3538 1.368 . S
C3533 C3517 1.349 . S
C3533 H3525 0.950 . S
C3533 C3531 1.327 . S
C3534 C3522 1.349 . S
C3534 H3528 0.950 . S
C3534 C3535 1.327 . S
C3535 H3529 0.950 . S
C3535 C3534 1.327 . S
C3535 C3539 1.429 . S
C3536 C3519 1.574 . S
C3536 H3530 0.949 . S
C3536 C3540 1.368 . S
C3537 C3518 1.429 . S
C3537 C3531 1.429 . S
C3537 C3538 1.523 . S
C3538 C3519 1.368 . S
C3538 C3532 1.368 . S
C3538 C3537 1.523 . S
C3539 C3523 1.429 . S
C3539 C3535 1.429 . S
C3539 C3540 1.523 . S
C3540 C3524 1.368 . S
C3540 C3536 1.368 . S
C3540 C3539 1.523 . S
H3541 C3516 0.950 . S
H3542 C3518 0.950 . S
H3543 C3519 0.949 . S
H3544 C3521 0.950 . S
H3545 C3523 0.950 . S
C3546 C3547 1.349 . S
C3546 C3548 1.327 . S
C3546 H3571 0.950 . S
C3547 C3546 1.349 . S
C3547 C3563 1.349 . S
C3548 C3546 1.327 . S
C3548 C3567 1.429 . S
C3548 H3572 0.950 . S
C3549 C3566 1.574 . S
C3549 C3568 1.368 . S
C3549 H3573 0.949 . S
H3550 C3554 0.949 . S
C3551 C3552 1.349 . S
C3551 C3553 1.327 . S
C3551 H3574 0.950 . S
C3552 C3551 1.349 . S
C3552 C3564 1.349 . S
C3553 C3551 1.327 . S
C3553 C3569 1.429 . S
C3553 H3575 0.950 . S
C3554 H3550 0.949 . S
C3554 C3562 1.574 . S
C3554 C3570 1.368 . S
H3555 C3563 0.950 . S
H3556 C3561 0.950 . S
H3557 C3562 0.949 . S
H3558 C3564 0.950 . S
H3559 C3565 0.950 . S
H3560 C3566 0.949 . S
C3561 H3556 0.950 . S
C3561 C3563 1.327 . S
C3561 C3567 1.429 . S
C3562 C3554 1.574 . S
C3562 H3557 0.949 . S
C3562 C3568 1.368 . S
C3563 C3547 1.349 . S
C3563 H3555 0.950 . S
C3563 C3561 1.327 . S
C3564 C3552 1.349 . S
C3564 H3558 0.950 . S
C3564 C3565 1.327 . S
C3565 H3559 0.950 . S
C3565 C3564 1.327 . S
C3565 C3569 1.429 . S
C3566 C3549 1.574 . S
C3566 H3560 0.949 . S
C3566 C3570 1.368 . S
C3567 C3548 1.429 . S
C3567 C3561 1.429 . S
C3567 C3568 1.523 . S
C3568 C3549 1.368 . S
C3568 C3562 1.368 . S
C3568 C3567 1.523 . S
C3569 C3553 1.429 . S
C3569 C3565 1.429 . S
C3569 C3570 1.523 . S
C3570 C3554 1.368 . S
C3570 C3566 1.368 . S
C3570 C3569 1.523 . S
H3571 C3546 0.950 . S
H3572 C3548 0.950 . S
H3573 C3549 0.949 . S
H3574 C3551 0.950 . S
H3575 C3553 0.950 . S
C3576 C3577 1.349 . S
C3576 C3578 1.327 . S
C3576 H3601 0.950 . S
C3577 C3576 1.349 . S
C3577 C3593 1.349 . S
C3578 C3576 1.327 . S
C3578 C3597 1.429 . S
C3578 H3602 0.950 . S
C3579 C3596 1.574 . S
C3579 C3598 1.368 . S
C3579 H3603 0.949 . S
H3580 C3584 0.949 . S
C3581 C3582 1.349 . S
C3581 C3583 1.327 . S
C3581 H3604 0.950 . S
C3582 C3581 1.349 . S
C3582 C3594 1.349 . S
C3583 C3581 1.327 . S
C3583 C3599 1.429 . S
C3583 H3605 0.950 . S
C3584 H3580 0.949 . S
C3584 C3592 1.574 . S
C3584 C3600 1.368 . S
H3585 C3593 0.950 . S
H3586 C3591 0.950 . S
H3587 C3592 0.949 . S
H3588 C3594 0.950 . S
H3589 C3595 0.950 . S
H3590 C3596 0.949 . S
C3591 H3586 0.950 . S
C3591 C3593 1.327 . S
C3591 C3597 1.429 . S
C3592 C3584 1.574 . S
C3592 H3587 0.949 . S
C3592 C3598 1.368 . S
C3593 C3577 1.349 . S
C3593 H3585 0.950 . S
C3593 C3591 1.327 . S
C3594 C3582 1.349 . S
C3594 H3588 0.950 . S
C3594 C3595 1.327 . S
C3595 H3589 0.950 . S
C3595 C3594 1.327 . S
C3595 C3599 1.429 . S
C3596 C3579 1.574 . S
C3596 H3590 0.949 . S
C3596 C3600 1.368 . S
C3597 C3578 1.429 . S
C3597 C3591 1.429 . S
C3597 C3598 1.523 . S
C3598 C3579 1.368 . S
C3598 C3592 1.368 . S
C3598 C3597 1.523 . S
C3599 C3583 1.429 . S
C3599 C3595 1.429 . S
C3599 C3600 1.523 . S
C3600 C3584 1.368 . S
C3600 C3596 1.368 . S
C3600 C3599 1.523 . S
H3601 C3576 0.950 . S
H3602 C3578 0.950 . S
H3603 C3579 0.949 . S
H3604 C3581 0.950 . S
H3605 C3583 0.950 . S
C3606 C3607 1.349 . S
C3606 C3608 1.327 . S
C3606 H3631 0.950 . S
C3607 C3606 1.349 . S
C3607 C3623 1.349 . S
C3608 C3606 1.327 . S
C3608 C3627 1.429 . S
C3608 H3632 0.950 . S
C3609 C3626 1.574 . S
C3609 C3628 1.368 . S
C3609 H3633 0.949 . S
H3610 C3614 0.949 . S
C3611 C3612 1.349 . S
C3611 C3613 1.327 . S
C3611 H3634 0.950 . S
C3612 C3611 1.349 . S
C3612 C3624 1.349 . S
C3613 C3611 1.327 . S
C3613 C3629 1.429 . S
C3613 H3635 0.950 . S
C3614 H3610 0.949 . S
C3614 C3622 1.574 . S
C3614 C3630 1.368 . S
H3615 C3623 0.950 . S
H3616 C3621 0.950 . S
H3617 C3622 0.949 . S
H3618 C3624 0.950 . S
H3619 C3625 0.950 . S
H3620 C3626 0.949 . S
C3621 H3616 0.950 . S
C3621 C3623 1.327 . S
C3621 C3627 1.429 . S
C3622 C3614 1.574 . S
C3622 H3617 0.949 . S
C3622 C3628 1.368 . S
C3623 C3607 1.349 . S
C3623 H3615 0.950 . S
C3623 C3621 1.327 . S
C3624 C3612 1.349 . S
C3624 H3618 0.950 . S
C3624 C3625 1.327 . S
C3625 H3619 0.950 . S
C3625 C3624 1.327 . S
C3625 C3629 1.429 . S
C3626 C3609 1.574 . S
C3626 H3620 0.949 . S
C3626 C3630 1.368 . S
C3627 C3608 1.429 . S
C3627 C3621 1.429 . S
C3627 C3628 1.523 . S
C3628 C3609 1.368 . S
C3628 C3622 1.368 . S
C3628 C3627 1.523 . S
C3629 C3613 1.429 . S
C3629 C3625 1.429 . S
C3629 C3630 1.523 . S
C3630 C3614 1.368 . S
C3630 C3626 1.368 . S
C3630 C3629 1.523 . S
H3631 C3606 0.950 . S
H3632 C3608 0.950 . S
H3633 C3609 0.949 . S
H3634 C3611 0.950 . S
H3635 C3613 0.950 . S
C3636 C3637 1.349 . S
C3636 C3638 1.327 . S
C3636 H3661 0.950 . S
C3637 C3636 1.349 . S
C3637 C3653 1.349 . S
C3638 C3636 1.327 . S
C3638 C3657 1.429 . S
C3638 H3662 0.950 . S
C3639 C3656 1.574 . S
C3639 C3658 1.368 . S
C3639 H3663 0.949 . S
H3640 C3644 0.949 . S
C3641 C3642 1.349 . S
C3641 C3643 1.327 . S
C3641 H3664 0.950 . S
C3642 C3641 1.349 . S
C3642 C3654 1.349 . S
C3643 C3641 1.327 . S
C3643 C3659 1.429 . S
C3643 H3665 0.950 . S
C3644 H3640 0.949 . S
C3644 C3652 1.574 . S
C3644 C3660 1.368 . S
H3645 C3653 0.950 . S
H3646 C3651 0.950 . S
H3647 C3652 0.949 . S
H3648 C3654 0.950 . S
H3649 C3655 0.950 . S
H3650 C3656 0.949 . S
C3651 H3646 0.950 . S
C3651 C3653 1.327 . S
C3651 C3657 1.429 . S
C3652 C3644 1.574 . S
C3652 H3647 0.949 . S
C3652 C3658 1.368 . S
C3653 C3637 1.349 . S
C3653 H3645 0.950 . S
C3653 C3651 1.327 . S
C3654 C3642 1.349 . S
C3654 H3648 0.950 . S
C3654 C3655 1.327 . S
C3655 H3649 0.950 . S
C3655 C3654 1.327 . S
C3655 C3659 1.429 . S
C3656 C3639 1.574 . S
C3656 H3650 0.949 . S
C3656 C3660 1.368 . S
C3657 C3638 1.429 . S
C3657 C3651 1.429 . S
C3657 C3658 1.523 . S
C3658 C3639 1.368 . S
C3658 C3652 1.368 . S
C3658 C3657 1.523 . S
C3659 C3643 1.429 . S
C3659 C3655 1.429 . S
C3659 C3660 1.523 . S
C3660 C3644 1.368 . S
C3660 C3656 1.368 . S
C3660 C3659 1.523 . S
H3661 C3636 0.950 . S
H3662 C3638 0.950 . S
H3663 C3639 0.949 . S
H3664 C3641 0.950 . S
H3665 C3643 0.950 . S
C3666 C3667 1.349 . S
C3666 C3668 1.327 . S
C3666 H3691 0.950 . S
C3667 C3666 1.349 . S
C3667 C3683 1.349 . S
C3668 C3666 1.327 . S
C3668 C3687 1.429 . S
C3668 H3692 0.950 . S
C3669 C3686 1.574 . S
C3669 C3688 1.368 . S
C3669 H3693 0.949 . S
H3670 C3674 0.949 . S
C3671 C3672 1.349 . S
C3671 C3673 1.327 . S
C3671 H3694 0.950 . S
C3672 C3671 1.349 . S
C3672 C3684 1.349 . S
C3673 C3671 1.327 . S
C3673 C3689 1.429 . S
C3673 H3695 0.950 . S
C3674 H3670 0.949 . S
C3674 C3682 1.574 . S
C3674 C3690 1.368 . S
H3675 C3683 0.950 . S
H3676 C3681 0.950 . S
H3677 C3682 0.949 . S
H3678 C3684 0.950 . S
H3679 C3685 0.950 . S
H3680 C3686 0.949 . S
C3681 H3676 0.950 . S
C3681 C3683 1.327 . S
C3681 C3687 1.429 . S
C3682 C3674 1.574 . S
C3682 H3677 0.949 . S
C3682 C3688 1.368 . S
C3683 C3667 1.349 . S
C3683 H3675 0.950 . S
C3683 C3681 1.327 . S
C3684 C3672 1.349 . S
C3684 H3678 0.950 . S
C3684 C3685 1.327 . S
C3685 H3679 0.950 . S
C3685 C3684 1.327 . S
C3685 C3689 1.429 . S
C3686 C3669 1.574 . S
C3686 H3680 0.949 . S
C3686 C3690 1.368 . S
C3687 C3668 1.429 . S
C3687 C3681 1.429 . S
C3687 C3688 1.523 . S
C3688 C3669 1.368 . S
C3688 C3682 1.368 . S
C3688 C3687 1.523 . S
C3689 C3673 1.429 . S
C3689 C3685 1.429 . S
C3689 C3690 1.523 . S
C3690 C3674 1.368 . S
C3690 C3686 1.368 . S
C3690 C3689 1.523 . S
H3691 C3666 0.950 . S
H3692 C3668 0.950 . S
H3693 C3669 0.949 . S
H3694 C3671 0.950 . S
H3695 C3673 0.950 . S
C3696 C3697 1.349 . S
C3696 C3698 1.327 . S
C3696 H3721 0.950 . S
C3697 C3696 1.349 . S
C3697 C3713 1.349 . S
C3698 C3696 1.327 . S
C3698 C3717 1.429 . S
C3698 H3722 0.950 . S
C3699 C3716 1.574 . S
C3699 C3718 1.368 . S
C3699 H3723 0.949 . S
H3700 C3704 0.949 . S
C3701 C3702 1.349 . S
C3701 C3703 1.327 . S
C3701 H3724 0.950 . S
C3702 C3701 1.349 . S
C3702 C3714 1.349 . S
C3703 C3701 1.327 . S
C3703 C3719 1.429 . S
C3703 H3725 0.950 . S
C3704 H3700 0.949 . S
C3704 C3712 1.574 . S
C3704 C3720 1.368 . S
H3705 C3713 0.950 . S
H3706 C3711 0.950 . S
H3707 C3712 0.949 . S
H3708 C3714 0.950 . S
H3709 C3715 0.950 . S
H3710 C3716 0.949 . S
C3711 H3706 0.950 . S
C3711 C3713 1.327 . S
C3711 C3717 1.429 . S
C3712 C3704 1.574 . S
C3712 H3707 0.949 . S
C3712 C3718 1.368 . S
C3713 C3697 1.349 . S
C3713 H3705 0.950 . S
C3713 C3711 1.327 . S
C3714 C3702 1.349 . S
C3714 H3708 0.950 . S
C3714 C3715 1.327 . S
C3715 H3709 0.950 . S
C3715 C3714 1.327 . S
C3715 C3719 1.429 . S
C3716 C3699 1.574 . S
C3716 H3710 0.949 . S
C3716 C3720 1.368 . S
C3717 C3698 1.429 . S
C3717 C3711 1.429 . S
C3717 C3718 1.523 . S
C3718 C3699 1.368 . S
C3718 C3712 1.368 . S
C3718 C3717 1.523 . S
C3719 C3703 1.429 . S
C3719 C3715 1.429 . S
C3719 C3720 1.523 . S
C3720 C3704 1.368 . S
C3720 C3716 1.368 . S
C3720 C3719 1.523 . S
H3721 C3696 0.950 . S
H3722 C3698 0.950 . S
H3723 C3699 0.949 . S
H3724 C3701 0.950 . S
H3725 C3703 0.950 . S
C3726 C3727 1.349 . S
C3726 C3728 1.327 . S
C3726 H3751 0.950 . S
C3727 C3726 1.349 . S
C3727 C3743 1.349 . S
C3728 C3726 1.327 . S
C3728 C3747 1.429 . S
C3728 H3752 0.950 . S
C3729 C3746 1.574 . S
C3729 C3748 1.368 . S
C3729 H3753 0.949 . S
H3730 C3734 0.949 . S
C3731 C3732 1.349 . S
C3731 C3733 1.327 . S
C3731 H3754 0.950 . S
C3732 C3731 1.349 . S
C3732 C3744 1.349 . S
C3733 C3731 1.327 . S
C3733 C3749 1.429 . S
C3733 H3755 0.950 . S
C3734 H3730 0.949 . S
C3734 C3742 1.574 . S
C3734 C3750 1.368 . S
H3735 C3743 0.950 . S
H3736 C3741 0.950 . S
H3737 C3742 0.949 . S
H3738 C3744 0.950 . S
H3739 C3745 0.950 . S
H3740 C3746 0.949 . S
C3741 H3736 0.950 . S
C3741 C3743 1.327 . S
C3741 C3747 1.429 . S
C3742 C3734 1.574 . S
C3742 H3737 0.949 . S
C3742 C3748 1.368 . S
C3743 C3727 1.349 . S
C3743 H3735 0.950 . S
C3743 C3741 1.327 . S
C3744 C3732 1.349 . S
C3744 H3738 0.950 . S
C3744 C3745 1.327 . S
C3745 H3739 0.950 . S
C3745 C3744 1.327 . S
C3745 C3749 1.429 . S
C3746 C3729 1.574 . S
C3746 H3740 0.949 . S
C3746 C3750 1.368 . S
C3747 C3728 1.429 . S
C3747 C3741 1.429 . S
C3747 C3748 1.523 . S
C3748 C3729 1.368 . S
C3748 C3742 1.368 . S
C3748 C3747 1.523 . S
C3749 C3733 1.429 . S
C3749 C3745 1.429 . S
C3749 C3750 1.523 . S
C3750 C3734 1.368 . S
C3750 C3746 1.368 . S
C3750 C3749 1.523 . S
H3751 C3726 0.950 . S
H3752 C3728 0.950 . S
H3753 C3729 0.949 . S
H3754 C3731 0.950 . S
H3755 C3733 0.950 . S
C3756 C3757 1.349 . S
C3756 C3758 1.327 . S
C3756 H3781 0.950 . S
C3757 C3756 1.349 . S
C3757 C3773 1.349 . S
C3758 C3756 1.327 . S
C3758 C3777 1.429 . S
C3758 H3782 0.950 . S
C3759 C3776 1.574 . S
C3759 C3778 1.368 . S
C3759 H3783 0.949 . S
H3760 C3764 0.949 . S
C3761 C3762 1.349 . S
C3761 C3763 1.327 . S
C3761 H3784 0.950 . S
C3762 C3761 1.349 . S
C3762 C3774 1.349 . S
C3763 C3761 1.327 . S
C3763 C3779 1.429 . S
C3763 H3785 0.950 . S
C3764 H3760 0.949 . S
C3764 C3772 1.574 . S
C3764 C3780 1.368 . S
H3765 C3773 0.950 . S
H3766 C3771 0.950 . S
H3767 C3772 0.949 . S
H3768 C3774 0.950 . S
H3769 C3775 0.950 . S
H3770 C3776 0.949 . S
C3771 H3766 0.950 . S
C3771 C3773 1.327 . S
C3771 C3777 1.429 . S
C3772 C3764 1.574 . S
C3772 H3767 0.949 . S
C3772 C3778 1.368 . S
C3773 C3757 1.349 . S
C3773 H3765 0.950 . S
C3773 C3771 1.327 . S
C3774 C3762 1.349 . S
C3774 H3768 0.950 . S
C3774 C3775 1.327 . S
C3775 H3769 0.950 . S
C3775 C3774 1.327 . S
C3775 C3779 1.429 . S
C3776 C3759 1.574 . S
C3776 H3770 0.949 . S
C3776 C3780 1.368 . S
C3777 C3758 1.429 . S
C3777 C3771 1.429 . S
C3777 C3778 1.523 . S
C3778 C3759 1.368 . S
C3778 C3772 1.368 . S
C3778 C3777 1.523 . S
C3779 C3763 1.429 . S
C3779 C3775 1.429 . S
C3779 C3780 1.523 . S
C3780 C3764 1.368 . S
C3780 C3776 1.368 . S
C3780 C3779 1.523 . S
H3781 C3756 0.950 . S
H3782 C3758 0.950 . S
H3783 C3759 0.949 . S
H3784 C3761 0.950 . S
H3785 C3763 0.950 . S
C3786 C3787 1.349 . S
C3786 C3788 1.327 . S
C3786 H3811 0.950 . S
C3787 C3786 1.349 . S
C3787 C3803 1.349 . S
C3788 C3786 1.327 . S
C3788 C3807 1.429 . S
C3788 H3812 0.950 . S
C3789 C3806 1.574 . S
C3789 C3808 1.368 . S
C3789 H3813 0.949 . S
H3790 C3794 0.949 . S
C3791 C3792 1.349 . S
C3791 C3793 1.327 . S
C3791 H3814 0.950 . S
C3792 C3791 1.349 . S
C3792 C3804 1.349 . S
C3793 C3791 1.327 . S
C3793 C3809 1.429 . S
C3793 H3815 0.950 . S
C3794 H3790 0.949 . S
C3794 C3802 1.574 . S
C3794 C3810 1.368 . S
H3795 C3803 0.950 . S
H3796 C3801 0.950 . S
H3797 C3802 0.949 . S
H3798 C3804 0.950 . S
H3799 C3805 0.950 . S
H3800 C3806 0.949 . S
C3801 H3796 0.950 . S
C3801 C3803 1.327 . S
C3801 C3807 1.429 . S
C3802 C3794 1.574 . S
C3802 H3797 0.949 . S
C3802 C3808 1.368 . S
C3803 C3787 1.349 . S
C3803 H3795 0.950 . S
C3803 C3801 1.327 . S
C3804 C3792 1.349 . S
C3804 H3798 0.950 . S
C3804 C3805 1.327 . S
C3805 H3799 0.950 . S
C3805 C3804 1.327 . S
C3805 C3809 1.429 . S
C3806 C3789 1.574 . S
C3806 H3800 0.949 . S
C3806 C3810 1.368 . S
C3807 C3788 1.429 . S
C3807 C3801 1.429 . S
C3807 C3808 1.523 . S
C3808 C3789 1.368 . S
C3808 C3802 1.368 . S
C3808 C3807 1.523 . S
C3809 C3793 1.429 . S
C3809 C3805 1.429 . S
C3809 C3810 1.523 . S
C3810 C3794 1.368 . S
C3810 C3806 1.368 . S
C3810 C3809 1.523 . S
H3811 C3786 0.950 . S
H3812 C3788 0.950 . S
H3813 C3789 0.949 . S
H3814 C3791 0.950 . S
H3815 C3793 0.950 . S
C3816 C3817 1.349 . S
C3816 C3818 1.327 . S
C3816 H3841 0.950 . S
C3817 C3816 1.349 . S
C3817 C3833 1.349 . S
C3818 C3816 1.327 . S
C3818 C3837 1.429 . S
C3818 H3842 0.950 . S
C3819 C3836 1.574 . S
C3819 C3838 1.368 . S
C3819 H3843 0.949 . S
H3820 C3824 0.949 . S
C3821 C3822 1.349 . S
C3821 C3823 1.327 . S
C3821 H3844 0.950 . S
C3822 C3821 1.349 . S
C3822 C3834 1.349 . S
C3823 C3821 1.327 . S
C3823 C3839 1.429 . S
C3823 H3845 0.950 . S
C3824 H3820 0.949 . S
C3824 C3832 1.574 . S
C3824 C3840 1.368 . S
H3825 C3833 0.950 . S
H3826 C3831 0.950 . S
H3827 C3832 0.949 . S
H3828 C3834 0.950 . S
H3829 C3835 0.950 . S
H3830 C3836 0.949 . S
C3831 H3826 0.950 . S
C3831 C3833 1.327 . S
C3831 C3837 1.429 . S
C3832 C3824 1.574 . S
C3832 H3827 0.949 . S
C3832 C3838 1.368 . S
C3833 C3817 1.349 . S
C3833 H3825 0.950 . S
C3833 C3831 1.327 . S
C3834 C3822 1.349 . S
C3834 H3828 0.950 . S
C3834 C3835 1.327 . S
C3835 H3829 0.950 . S
C3835 C3834 1.327 . S
C3835 C3839 1.429 . S
C3836 C3819 1.574 . S
C3836 H3830 0.949 . S
C3836 C3840 1.368 . S
C3837 C3818 1.429 . S
C3837 C3831 1.429 . S
C3837 C3838 1.523 . S
C3838 C3819 1.368 . S
C3838 C3832 1.368 . S
C3838 C3837 1.523 . S
C3839 C3823 1.429 . S
C3839 C3835 1.429 . S
C3839 C3840 1.523 . S
C3840 C3824 1.368 . S
C3840 C3836 1.368 . S
C3840 C3839 1.523 . S
H3841 C3816 0.950 . S
H3842 C3818 0.950 . S
H3843 C3819 0.949 . S
H3844 C3821 0.950 . S
H3845 C3823 0.950 . S
C3846 C3847 1.349 . S
C3846 C3848 1.327 . S
C3846 H3871 0.950 . S
C3847 C3846 1.349 . S
C3847 C3863 1.349 . S
C3848 C3846 1.327 . S
C3848 C3867 1.429 . S
C3848 H3872 0.950 . S
C3849 C3866 1.574 . S
C3849 C3868 1.368 . S
C3849 H3873 0.949 . S
H3850 C3854 0.949 . S
C3851 C3852 1.349 . S
C3851 C3853 1.327 . S
C3851 H3874 0.950 . S
C3852 C3851 1.349 . S
C3852 C3864 1.349 . S
C3853 C3851 1.327 . S
C3853 C3869 1.429 . S
C3853 H3875 0.950 . S
C3854 H3850 0.949 . S
C3854 C3862 1.574 . S
C3854 C3870 1.368 . S
H3855 C3863 0.950 . S
H3856 C3861 0.950 . S
H3857 C3862 0.949 . S
H3858 C3864 0.950 . S
H3859 C3865 0.950 . S
H3860 C3866 0.949 . S
C3861 H3856 0.950 . S
C3861 C3863 1.327 . S
C3861 C3867 1.429 . S
C3862 C3854 1.574 . S
C3862 H3857 0.949 . S
C3862 C3868 1.368 . S
C3863 C3847 1.349 . S
C3863 H3855 0.950 . S
C3863 C3861 1.327 . S
C3864 C3852 1.349 . S
C3864 H3858 0.950 . S
C3864 C3865 1.327 . S
C3865 H3859 0.950 . S
C3865 C3864 1.327 . S
C3865 C3869 1.429 . S
C3866 C3849 1.574 . S
C3866 H3860 0.949 . S
C3866 C3870 1.368 . S
C3867 C3848 1.429 . S
C3867 C3861 1.429 . S
C3867 C3868 1.523 . S
C3868 C3849 1.368 . S
C3868 C3862 1.368 . S
C3868 C3867 1.523 . S
C3869 C3853 1.429 . S
C3869 C3865 1.429 . S
C3869 C3870 1.523 . S
C3870 C3854 1.368 . S
C3870 C3866 1.368 . S
C3870 C3869 1.523 . S
H3871 C3846 0.950 . S
H3872 C3848 0.950 . S
H3873 C3849 0.949 . S
H3874 C3851 0.950 . S
H3875 C3853 0.950 . S
C3876 C3877 1.349 . S
C3876 C3878 1.327 . S
C3876 H3901 0.950 . S
C3877 C3876 1.349 . S
C3877 C3893 1.349 . S
C3878 C3876 1.327 . S
C3878 C3897 1.429 . S
C3878 H3902 0.950 . S
C3879 C3896 1.574 . S
C3879 C3898 1.368 . S
C3879 H3903 0.949 . S
H3880 C3884 0.949 . S
C3881 C3882 1.349 . S
C3881 C3883 1.327 . S
C3881 H3904 0.950 . S
C3882 C3881 1.349 . S
C3882 C3894 1.349 . S
C3883 C3881 1.327 . S
C3883 C3899 1.429 . S
C3883 H3905 0.950 . S
C3884 H3880 0.949 . S
C3884 C3892 1.574 . S
C3884 C3900 1.368 . S
H3885 C3893 0.950 . S
H3886 C3891 0.950 . S
H3887 C3892 0.949 . S
H3888 C3894 0.950 . S
H3889 C3895 0.950 . S
H3890 C3896 0.949 . S
C3891 H3886 0.950 . S
C3891 C3893 1.327 . S
C3891 C3897 1.429 . S
C3892 C3884 1.574 . S
C3892 H3887 0.949 . S
C3892 C3898 1.368 . S
C3893 C3877 1.349 . S
C3893 H3885 0.950 . S
C3893 C3891 1.327 . S
C3894 C3882 1.349 . S
C3894 H3888 0.950 . S
C3894 C3895 1.327 . S
C3895 H3889 0.950 . S
C3895 C3894 1.327 . S
C3895 C3899 1.429 . S
C3896 C3879 1.574 . S
C3896 H3890 0.949 . S
C3896 C3900 1.368 . S
C3897 C3878 1.429 . S
C3897 C3891 1.429 . S
C3897 C3898 1.523 . S
C3898 C3879 1.368 . S
C3898 C3892 1.368 . S
C3898 C3897 1.523 . S
C3899 C3883 1.429 . S
C3899 C3895 1.429 . S
C3899 C3900 1.523 . S
C3900 C3884 1.368 . S
C3900 C3896 1.368 . S
C3900 C3899 1.523 . S
H3901 C3876 0.950 . S
H3902 C3878 0.950 . S
H3903 C3879 0.949 . S
H3904 C3881 0.950 . S
H3905 C3883 0.950 . S
C3906 C3907 1.349 . S
C3906 C3908 1.327 . S
C3906 H3931 0.950 . S
C3907 C3906 1.349 . S
C3907 C3923 1.349 . S
C3908 C3906 1.327 . S
C3908 C3927 1.429 . S
C3908 H3932 0.950 . S
C3909 C3926 1.574 . S
C3909 C3928 1.368 . S
C3909 H3933 0.949 . S
H3910 C3914 0.949 . S
C3911 C3912 1.349 . S
C3911 C3913 1.327 . S
C3911 H3934 0.950 . S
C3912 C3911 1.349 . S
C3912 C3924 1.349 . S
C3913 C3911 1.327 . S
C3913 C3929 1.429 . S
C3913 H3935 0.950 . S
C3914 H3910 0.949 . S
C3914 C3922 1.574 . S
C3914 C3930 1.368 . S
H3915 C3923 0.950 . S
H3916 C3921 0.950 . S
H3917 C3922 0.949 . S
H3918 C3924 0.950 . S
H3919 C3925 0.950 . S
H3920 C3926 0.949 . S
C3921 H3916 0.950 . S
C3921 C3923 1.327 . S
C3921 C3927 1.429 . S
C3922 C3914 1.574 . S
C3922 H3917 0.949 . S
C3922 C3928 1.368 . S
C3923 C3907 1.349 . S
C3923 H3915 0.950 . S
C3923 C3921 1.327 . S
C3924 C3912 1.349 . S
C3924 H3918 0.950 . S
C3924 C3925 1.327 . S
C3925 H3919 0.950 . S
C3925 C3924 1.327 . S
C3925 C3929 1.429 . S
C3926 C3909 1.574 . S
C3926 H3920 0.949 . S
C3926 C3930 1.368 . S
C3927 C3908 1.429 . S
C3927 C3921 1.429 . S
C3927 C3928 1.523 . S
C3928 C3909 1.368 . S
C3928 C3922 1.368 . S
C3928 C3927 1.523 . S
C3929 C3913 1.429 . S
C3929 C3925 1.429 . S
C3929 C3930 1.523 . S
C3930 C3914 1.368 . S
C3930 C3926 1.368 . S
C3930 C3929 1.523 . S
H3931 C3906 0.950 . S
H3932 C3908 0.950 . S
H3933 C3909 0.949 . S
H3934 C3911 0.950 . S
H3935 C3913 0.950 . S
C3936 C3937 1.353 1_554 S
C3936 C3938 1.327 . S
C3936 H3961 0.950 . S
C3937 C3936 1.353 1_556 S
C3937 C3953 1.350 1_556 S
C3938 C3936 1.327 . S
C3938 C3957 1.429 . S
C3938 H3962 0.950 . S
C3939 C3956 1.574 . S
C3939 C3958 1.368 . S
C3939 H3963 0.949 . S
H3940 C3944 0.949 . S
C3941 C3942 1.349 . S
C3941 C3943 1.327 . S
C3941 H3964 0.950 . S
C3942 C3941 1.349 . S
C3942 C3954 1.349 . S
C3943 C3941 1.327 . S
C3943 C3959 1.429 . S
C3943 H3965 0.950 . S
C3944 H3940 0.949 . S
C3944 C3952 1.574 . S
C3944 C3960 1.368 . S
H3945 C3953 0.874 1_556 S
H3946 C3951 0.950 . S
H3947 C3952 0.949 . S
H3948 C3954 0.950 . S
H3949 C3955 0.950 . S
H3950 C3956 0.949 . S
C3951 H3946 0.950 . S
C3951 C3953 1.406 . S
C3951 C3957 1.429 . S
C3952 C3944 1.574 . S
C3952 H3947 0.949 . S
C3952 C3958 1.368 . S
C3953 C3937 1.350 1_554 S
C3953 H3945 0.874 1_554 S
C3953 C3951 1.406 . S
C3954 C3942 1.349 . S
C3954 H3948 0.950 . S
C3954 C3955 1.327 . S
C3955 H3949 0.950 . S
C3955 C3954 1.327 . S
C3955 C3959 1.429 . S
C3956 C3939 1.574 . S
C3956 H3950 0.949 . S
C3956 C3960 1.368 . S
C3957 C3938 1.429 . S
C3957 C3951 1.429 . S
C3957 C3958 1.523 . S
C3958 C3939 1.368 . S
C3958 C3952 1.368 . S
C3958 C3957 1.523 . S
C3959 C3943 1.429 . S
C3959 C3955 1.429 . S
C3959 C3960 1.523 . S
C3960 C3944 1.368 . S
C3960 C3956 1.368 . S
C3960 C3959 1.523 . S
H3961 C3936 0.950 . S
H3962 C3938 0.950 . S
H3963 C3939 0.949 . S
H3964 C3941 0.950 . S
H3965 C3943 0.950 . S
C3966 C3967 1.349 . S
C3966 C3968 1.327 . S
C3966 H3991 0.950 . S
C3967 C3966 1.349 . S
C3967 C3983 1.349 . S
C3968 C3966 1.327 . S
C3968 C3987 1.429 . S
C3968 H3992 0.950 . S
C3969 C3986 1.574 . S
C3969 C3988 1.368 . S
C3969 H3993 0.949 . S
H3970 C3974 0.949 . S
C3971 C3972 1.349 . S
C3971 C3973 1.327 . S
C3971 H3994 0.950 . S
C3972 C3971 1.349 . S
C3972 C3984 1.349 . S
C3973 C3971 1.327 . S
C3973 C3989 1.429 . S
C3973 H3995 0.950 . S
C3974 H3970 0.949 . S
C3974 C3982 1.574 . S
C3974 C3990 1.368 . S
H3975 C3983 0.950 . S
H3976 C3981 0.950 . S
H3977 C3982 0.949 . S
H3978 C3984 0.950 . S
H3979 C3985 0.950 . S
H3980 C3986 0.949 . S
C3981 H3976 0.950 . S
C3981 C3983 1.327 . S
C3981 C3987 1.429 . S
C3982 C3974 1.574 . S
C3982 H3977 0.949 . S
C3982 C3988 1.368 . S
C3983 C3967 1.349 . S
C3983 H3975 0.950 . S
C3983 C3981 1.327 . S
C3984 C3972 1.349 . S
C3984 H3978 0.950 . S
C3984 C3985 1.327 . S
C3985 H3979 0.950 . S
C3985 C3984 1.327 . S
C3985 C3989 1.429 . S
C3986 C3969 1.574 . S
C3986 H3980 0.949 . S
C3986 C3990 1.368 . S
C3987 C3968 1.429 . S
C3987 C3981 1.429 . S
C3987 C3988 1.523 . S
C3988 C3969 1.368 . S
C3988 C3982 1.368 . S
C3988 C3987 1.523 . S
C3989 C3973 1.429 . S
C3989 C3985 1.429 . S
C3989 C3990 1.523 . S
C3990 C3974 1.368 . S
C3990 C3986 1.368 . S
C3990 C3989 1.523 . S
H3991 C3966 0.950 . S
H3992 C3968 0.950 . S
H3993 C3969 0.949 . S
H3994 C3971 0.950 . S
H3995 C3973 0.950 . S
C3996 C3997 1.349 . S
C3996 C3998 1.327 . S
C3996 H4021 0.950 . S
C3997 C3996 1.349 . S
C3997 C4013 1.349 . S
C3998 C3996 1.327 . S
C3998 C4017 1.429 . S
C3998 H4022 0.950 . S
C3999 C4016 1.574 . S
C3999 C4018 1.368 . S
C3999 H4023 0.949 . S
H4000 C4004 0.949 . S
C4001 C4002 1.349 . S
C4001 C4003 1.327 . S
C4001 H4024 0.950 . S
C4002 C4001 1.349 . S
C4002 C4014 1.349 . S
C4003 C4001 1.327 . S
C4003 C4019 1.429 . S
C4003 H4025 0.950 . S
C4004 H4000 0.949 . S
C4004 C4012 1.574 . S
C4004 C4020 1.368 . S
H4005 C4013 0.950 . S
H4006 C4011 0.950 . S
H4007 C4012 0.949 . S
H4008 C4014 0.950 . S
H4009 C4015 0.950 . S
H4010 C4016 0.949 . S
C4011 H4006 0.950 . S
C4011 C4013 1.327 . S
C4011 C4017 1.429 . S
C4012 C4004 1.574 . S
C4012 H4007 0.949 . S
C4012 C4018 1.368 . S
C4013 C3997 1.349 . S
C4013 H4005 0.950 . S
C4013 C4011 1.327 . S
C4014 C4002 1.349 . S
C4014 H4008 0.950 . S
C4014 C4015 1.327 . S
C4015 H4009 0.950 . S
C4015 C4014 1.327 . S
C4015 C4019 1.429 . S
C4016 C3999 1.574 . S
C4016 H4010 0.949 . S
C4016 C4020 1.368 . S
C4017 C3998 1.429 . S
C4017 C4011 1.429 . S
C4017 C4018 1.523 . S
C4018 C3999 1.368 . S
C4018 C4012 1.368 . S
C4018 C4017 1.523 . S
C4019 C4003 1.429 . S
C4019 C4015 1.429 . S
C4019 C4020 1.523 . S
C4020 C4004 1.368 . S
C4020 C4016 1.368 . S
C4020 C4019 1.523 . S
H4021 C3996 0.950 . S
H4022 C3998 0.950 . S
H4023 C3999 0.949 . S
H4024 C4001 0.950 . S
H4025 C4003 0.950 . S
C4026 C4027 1.349 . S
C4026 C4028 1.327 . S
C4026 H4051 0.950 . S
C4027 C4026 1.349 . S
C4027 C4043 1.349 . S
C4028 C4026 1.327 . S
C4028 C4047 1.429 . S
C4028 H4052 0.950 . S
C4029 C4046 1.574 . S
C4029 C4048 1.368 . S
C4029 H4053 0.949 . S
H4030 C4034 0.949 . S
C4031 C4032 1.349 . S
C4031 C4033 1.327 . S
C4031 H4054 0.950 . S
C4032 C4031 1.349 . S
C4032 C4044 1.349 . S
C4033 C4031 1.327 . S
C4033 C4049 1.429 . S
C4033 H4055 0.950 . S
C4034 H4030 0.949 . S
C4034 C4042 1.574 . S
C4034 C4050 1.368 . S
H4035 C4043 0.950 . S
H4036 C4041 0.950 . S
H4037 C4042 0.949 . S
H4038 C4044 0.950 . S
H4039 C4045 0.950 . S
H4040 C4046 0.949 . S
C4041 H4036 0.950 . S
C4041 C4043 1.327 . S
C4041 C4047 1.429 . S
C4042 C4034 1.574 . S
C4042 H4037 0.949 . S
C4042 C4048 1.368 . S
C4043 C4027 1.349 . S
C4043 H4035 0.950 . S
C4043 C4041 1.327 . S
C4044 C4032 1.349 . S
C4044 H4038 0.950 . S
C4044 C4045 1.327 . S
C4045 H4039 0.950 . S
C4045 C4044 1.327 . S
C4045 C4049 1.429 . S
C4046 C4029 1.574 . S
C4046 H4040 0.949 . S
C4046 C4050 1.368 . S
C4047 C4028 1.429 . S
C4047 C4041 1.429 . S
C4047 C4048 1.523 . S
C4048 C4029 1.368 . S
C4048 C4042 1.368 . S
C4048 C4047 1.523 . S
C4049 C4033 1.429 . S
C4049 C4045 1.429 . S
C4049 C4050 1.523 . S
C4050 C4034 1.368 . S
C4050 C4046 1.368 . S
C4050 C4049 1.523 . S
H4051 C4026 0.950 . S
H4052 C4028 0.950 . S
H4053 C4029 0.949 . S
H4054 C4031 0.950 . S
H4055 C4033 0.950 . S
C4056 C4057 1.349 . S
C4056 C4058 1.327 . S
C4056 H4081 0.950 . S
C4057 C4056 1.349 . S
C4057 C4073 1.349 . S
C4058 C4056 1.327 . S
C4058 C4077 1.429 . S
C4058 H4082 0.950 . S
C4059 C4076 1.574 . S
C4059 C4078 1.368 . S
C4059 H4083 0.949 . S
H4060 C4064 0.949 . S
C4061 C4062 1.349 . S
C4061 C4063 1.327 . S
C4061 H4084 0.950 . S
C4062 C4061 1.349 . S
C4062 C4074 1.349 . S
C4063 C4061 1.327 . S
C4063 C4079 1.429 . S
C4063 H4085 0.950 . S
C4064 H4060 0.949 . S
C4064 C4072 1.574 . S
C4064 C4080 1.368 . S
H4065 C4073 0.950 . S
H4066 C4071 0.950 . S
H4067 C4072 0.949 . S
H4068 C4074 0.950 . S
H4069 C4075 0.950 . S
H4070 C4076 0.949 . S
C4071 H4066 0.950 . S
C4071 C4073 1.327 . S
C4071 C4077 1.429 . S
C4072 C4064 1.574 . S
C4072 H4067 0.949 . S
C4072 C4078 1.368 . S
C4073 C4057 1.349 . S
C4073 H4065 0.950 . S
C4073 C4071 1.327 . S
C4074 C4062 1.349 . S
C4074 H4068 0.950 . S
C4074 C4075 1.327 . S
C4075 H4069 0.950 . S
C4075 C4074 1.327 . S
C4075 C4079 1.429 . S
C4076 C4059 1.574 . S
C4076 H4070 0.949 . S
C4076 C4080 1.368 . S
C4077 C4058 1.429 . S
C4077 C4071 1.429 . S
C4077 C4078 1.523 . S
C4078 C4059 1.368 . S
C4078 C4072 1.368 . S
C4078 C4077 1.523 . S
C4079 C4063 1.429 . S
C4079 C4075 1.429 . S
C4079 C4080 1.523 . S
C4080 C4064 1.368 . S
C4080 C4076 1.368 . S
C4080 C4079 1.523 . S
H4081 C4056 0.950 . S
H4082 C4058 0.950 . S
H4083 C4059 0.949 . S
H4084 C4061 0.950 . S
H4085 C4063 0.950 . S
C4086 C4087 1.349 . S
C4086 C4088 1.327 . S
C4086 H4111 0.950 . S
C4087 C4086 1.349 . S
C4087 C4103 1.349 . S
C4088 C4086 1.327 . S
C4088 C4107 1.429 . S
C4088 H4112 0.950 . S
C4089 C4106 1.574 . S
C4089 C4108 1.368 . S
C4089 H4113 0.949 . S
H4090 C4094 0.949 . S
C4091 C4092 1.349 . S
C4091 C4093 1.327 . S
C4091 H4114 0.950 . S
C4092 C4091 1.349 . S
C4092 C4104 1.349 . S
C4093 C4091 1.327 . S
C4093 C4109 1.429 . S
C4093 H4115 0.950 . S
C4094 H4090 0.949 . S
C4094 C4102 1.574 . S
C4094 C4110 1.368 . S
H4095 C4103 0.950 . S
H4096 C4101 0.950 . S
H4097 C4102 0.949 . S
H4098 C4104 0.950 . S
H4099 C4105 0.950 . S
H4100 C4106 0.949 . S
C4101 H4096 0.950 . S
C4101 C4103 1.327 . S
C4101 C4107 1.429 . S
C4102 C4094 1.574 . S
C4102 H4097 0.949 . S
C4102 C4108 1.368 . S
C4103 C4087 1.349 . S
C4103 H4095 0.950 . S
C4103 C4101 1.327 . S
C4104 C4092 1.349 . S
C4104 H4098 0.950 . S
C4104 C4105 1.327 . S
C4105 H4099 0.950 . S
C4105 C4104 1.327 . S
C4105 C4109 1.429 . S
C4106 C4089 1.574 . S
C4106 H4100 0.949 . S
C4106 C4110 1.368 . S
C4107 C4088 1.429 . S
C4107 C4101 1.429 . S
C4107 C4108 1.523 . S
C4108 C4089 1.368 . S
C4108 C4102 1.368 . S
C4108 C4107 1.523 . S
C4109 C4093 1.429 . S
C4109 C4105 1.429 . S
C4109 C4110 1.523 . S
C4110 C4094 1.368 . S
C4110 C4106 1.368 . S
C4110 C4109 1.523 . S
H4111 C4086 0.950 . S
H4112 C4088 0.950 . S
H4113 C4089 0.949 . S
H4114 C4091 0.950 . S
H4115 C4093 0.950 . S
C4116 C4117 1.349 . S
C4116 C4118 1.327 . S
C4116 H4141 0.950 . S
C4117 C4116 1.349 . S
C4117 C4133 1.349 . S
C4118 C4116 1.327 . S
C4118 C4137 1.429 . S
C4118 H4142 0.950 . S
C4119 C4136 1.574 . S
C4119 C4138 1.368 . S
C4119 H4143 0.949 . S
H4120 C4124 0.949 . S
C4121 C4122 1.349 . S
C4121 C4123 1.327 . S
C4121 H4144 0.950 . S
C4122 C4121 1.349 . S
C4122 C4134 1.349 . S
C4123 C4121 1.327 . S
C4123 C4139 1.429 . S
C4123 H4145 0.950 . S
C4124 H4120 0.949 . S
C4124 C4132 1.574 . S
C4124 C4140 1.368 . S
H4125 C4133 0.950 . S
H4126 C4131 0.950 . S
H4127 C4132 0.949 . S
H4128 C4134 0.950 . S
H4129 C4135 0.950 . S
H4130 C4136 0.949 . S
C4131 H4126 0.950 . S
C4131 C4133 1.327 . S
C4131 C4137 1.429 . S
C4132 C4124 1.574 . S
C4132 H4127 0.949 . S
C4132 C4138 1.368 . S
C4133 C4117 1.349 . S
C4133 H4125 0.950 . S
C4133 C4131 1.327 . S
C4134 C4122 1.349 . S
C4134 H4128 0.950 . S
C4134 C4135 1.327 . S
C4135 H4129 0.950 . S
C4135 C4134 1.327 . S
C4135 C4139 1.429 . S
C4136 C4119 1.574 . S
C4136 H4130 0.949 . S
C4136 C4140 1.368 . S
C4137 C4118 1.429 . S
C4137 C4131 1.429 . S
C4137 C4138 1.523 . S
C4138 C4119 1.368 . S
C4138 C4132 1.368 . S
C4138 C4137 1.523 . S
C4139 C4123 1.429 . S
C4139 C4135 1.429 . S
C4139 C4140 1.523 . S
C4140 C4124 1.368 . S
C4140 C4136 1.368 . S
C4140 C4139 1.523 . S
H4141 C4116 0.950 . S
H4142 C4118 0.950 . S
H4143 C4119 0.949 . S
H4144 C4121 0.950 . S
H4145 C4123 0.950 . S
C4146 C4147 1.349 . S
C4146 C4148 1.327 . S
C4146 H4171 0.950 . S
C4147 C4146 1.349 . S
C4147 C4163 1.349 . S
C4148 C4146 1.327 . S
C4148 C4167 1.429 . S
C4148 H4172 0.950 . S
C4149 C4166 1.574 . S
C4149 C4168 1.368 . S
C4149 H4173 0.949 . S
H4150 C4154 0.949 . S
C4151 C4152 1.349 . S
C4151 C4153 1.327 . S
C4151 H4174 0.950 . S
C4152 C4151 1.349 . S
C4152 C4164 1.349 . S
C4153 C4151 1.327 . S
C4153 C4169 1.429 . S
C4153 H4175 0.950 . S
C4154 H4150 0.949 . S
C4154 C4162 1.574 . S
C4154 C4170 1.368 . S
H4155 C4163 0.950 . S
H4156 C4161 0.950 . S
H4157 C4162 0.949 . S
H4158 C4164 0.950 . S
H4159 C4165 0.950 . S
H4160 C4166 0.949 . S
C4161 H4156 0.950 . S
C4161 C4163 1.327 . S
C4161 C4167 1.429 . S
C4162 C4154 1.574 . S
C4162 H4157 0.949 . S
C4162 C4168 1.368 . S
C4163 C4147 1.349 . S
C4163 H4155 0.950 . S
C4163 C4161 1.327 . S
C4164 C4152 1.349 . S
C4164 H4158 0.950 . S
C4164 C4165 1.327 . S
C4165 H4159 0.950 . S
C4165 C4164 1.327 . S
C4165 C4169 1.429 . S
C4166 C4149 1.574 . S
C4166 H4160 0.949 . S
C4166 C4170 1.368 . S
C4167 C4148 1.429 . S
C4167 C4161 1.429 . S
C4167 C4168 1.523 . S
C4168 C4149 1.368 . S
C4168 C4162 1.368 . S
C4168 C4167 1.523 . S
C4169 C4153 1.429 . S
C4169 C4165 1.429 . S
C4169 C4170 1.523 . S
C4170 C4154 1.368 . S
C4170 C4166 1.368 . S
C4170 C4169 1.523 . S
H4171 C4146 0.950 . S
H4172 C4148 0.950 . S
H4173 C4149 0.949 . S
H4174 C4151 0.950 . S
H4175 C4153 0.950 . S
C4176 C4177 1.349 . S
C4176 C4178 1.327 . S
C4176 H4201 0.950 . S
C4177 C4176 1.349 . S
C4177 C4193 1.349 . S
C4178 C4176 1.327 . S
C4178 C4197 1.429 . S
C4178 H4202 0.950 . S
C4179 C4196 1.574 . S
C4179 C4198 1.368 . S
C4179 H4203 0.949 . S
H4180 C4184 0.949 . S
C4181 C4182 1.349 . S
C4181 C4183 1.327 . S
C4181 H4204 0.950 . S
C4182 C4181 1.349 . S
C4182 C4194 1.349 . S
C4183 C4181 1.327 . S
C4183 C4199 1.429 . S
C4183 H4205 0.950 . S
C4184 H4180 0.949 . S
C4184 C4192 1.574 . S
C4184 C4200 1.368 . S
H4185 C4193 0.950 . S
H4186 C4191 0.950 . S
H4187 C4192 0.949 . S
H4188 C4194 0.950 . S
H4189 C4195 0.950 . S
H4190 C4196 0.949 . S
C4191 H4186 0.950 . S
C4191 C4193 1.327 . S
C4191 C4197 1.429 . S
C4192 C4184 1.574 . S
C4192 H4187 0.949 . S
C4192 C4198 1.368 . S
C4193 C4177 1.349 . S
C4193 H4185 0.950 . S
C4193 C4191 1.327 . S
C4194 C4182 1.349 . S
C4194 H4188 0.950 . S
C4194 C4195 1.327 . S
C4195 H4189 0.950 . S
C4195 C4194 1.327 . S
C4195 C4199 1.429 . S
C4196 C4179 1.574 . S
C4196 H4190 0.949 . S
C4196 C4200 1.368 . S
C4197 C4178 1.429 . S
C4197 C4191 1.429 . S
C4197 C4198 1.523 . S
C4198 C4179 1.368 . S
C4198 C4192 1.368 . S
C4198 C4197 1.523 . S
C4199 C4183 1.429 . S
C4199 C4195 1.429 . S
C4199 C4200 1.523 . S
C4200 C4184 1.368 . S
C4200 C4196 1.368 . S
C4200 C4199 1.523 . S
H4201 C4176 0.950 . S
H4202 C4178 0.950 . S
H4203 C4179 0.949 . S
H4204 C4181 0.950 . S
H4205 C4183 0.950 . S
C4206 C4207 1.349 . S
C4206 C4208 1.327 . S
C4206 H4231 0.950 . S
C4207 C4206 1.349 . S
C4207 C4223 1.349 . S
C4208 C4206 1.327 . S
C4208 C4227 1.429 . S
C4208 H4232 0.950 . S
C4209 C4226 1.574 . S
C4209 C4228 1.368 . S
C4209 H4233 0.949 . S
H4210 C4214 0.949 . S
C4211 C4212 1.349 . S
C4211 C4213 1.327 . S
C4211 H4234 0.950 . S
C4212 C4211 1.349 . S
C4212 C4224 1.349 . S
C4213 C4211 1.327 . S
C4213 C4229 1.429 . S
C4213 H4235 0.950 . S
C4214 H4210 0.949 . S
C4214 C4222 1.574 . S
C4214 C4230 1.368 . S
H4215 C4223 0.950 . S
H4216 C4221 0.950 . S
H4217 C4222 0.949 . S
H4218 C4224 0.950 . S
H4219 C4225 0.950 . S
H4220 C4226 0.949 . S
C4221 H4216 0.950 . S
C4221 C4223 1.327 . S
C4221 C4227 1.429 . S
C4222 C4214 1.574 . S
C4222 H4217 0.949 . S
C4222 C4228 1.368 . S
C4223 C4207 1.349 . S
C4223 H4215 0.950 . S
C4223 C4221 1.327 . S
C4224 C4212 1.349 . S
C4224 H4218 0.950 . S
C4224 C4225 1.327 . S
C4225 H4219 0.950 . S
C4225 C4224 1.327 . S
C4225 C4229 1.429 . S
C4226 C4209 1.574 . S
C4226 H4220 0.949 . S
C4226 C4230 1.368 . S
C4227 C4208 1.429 . S
C4227 C4221 1.429 . S
C4227 C4228 1.523 . S
C4228 C4209 1.368 . S
C4228 C4222 1.368 . S
C4228 C4227 1.523 . S
C4229 C4213 1.429 . S
C4229 C4225 1.429 . S
C4229 C4230 1.523 . S
C4230 C4214 1.368 . S
C4230 C4226 1.368 . S
C4230 C4229 1.523 . S
H4231 C4206 0.950 . S
H4232 C4208 0.950 . S
H4233 C4209 0.949 . S
H4234 C4211 0.950 . S
H4235 C4213 0.950 . S
C4236 C4237 1.349 . S
C4236 C4238 1.327 . S
C4236 H4261 0.950 . S
C4237 C4236 1.349 . S
C4237 C4253 1.349 . S
C4238 C4236 1.327 . S
C4238 C4257 1.429 . S
C4238 H4262 0.950 . S
C4239 C4256 1.574 . S
C4239 C4258 1.368 . S
C4239 H4263 0.949 . S
H4240 C4244 0.949 . S
C4241 C4242 1.349 . S
C4241 C4243 1.327 . S
C4241 H4264 0.950 . S
C4242 C4241 1.349 . S
C4242 C4254 1.349 . S
C4243 C4241 1.327 . S
C4243 C4259 1.429 . S
C4243 H4265 0.950 . S
C4244 H4240 0.949 . S
C4244 C4252 1.574 . S
C4244 C4260 1.368 . S
H4245 C4253 0.950 . S
H4246 C4251 0.950 . S
H4247 C4252 0.949 . S
H4248 C4254 0.950 . S
H4249 C4255 0.950 . S
H4250 C4256 0.949 . S
C4251 H4246 0.950 . S
C4251 C4253 1.327 . S
C4251 C4257 1.429 . S
C4252 C4244 1.574 . S
C4252 H4247 0.949 . S
C4252 C4258 1.368 . S
C4253 C4237 1.349 . S
C4253 H4245 0.950 . S
C4253 C4251 1.327 . S
C4254 C4242 1.349 . S
C4254 H4248 0.950 . S
C4254 C4255 1.327 . S
C4255 H4249 0.950 . S
C4255 C4254 1.327 . S
C4255 C4259 1.429 . S
C4256 C4239 1.574 . S
C4256 H4250 0.949 . S
C4256 C4260 1.368 . S
C4257 C4238 1.429 . S
C4257 C4251 1.429 . S
C4257 C4258 1.523 . S
C4258 C4239 1.368 . S
C4258 C4252 1.368 . S
C4258 C4257 1.523 . S
C4259 C4243 1.429 . S
C4259 C4255 1.429 . S
C4259 C4260 1.523 . S
C4260 C4244 1.368 . S
C4260 C4256 1.368 . S
C4260 C4259 1.523 . S
H4261 C4236 0.950 . S
H4262 C4238 0.950 . S
H4263 C4239 0.949 . S
H4264 C4241 0.950 . S
H4265 C4243 0.950 . S
C4266 C4267 1.349 . S
C4266 C4268 1.327 . S
C4266 H4291 0.950 . S
C4267 C4266 1.349 . S
C4267 C4283 1.349 . S
C4268 C4266 1.327 . S
C4268 C4287 1.429 . S
C4268 H4292 0.950 . S
C4269 C4286 1.574 . S
C4269 C4288 1.368 . S
C4269 H4293 0.949 . S
H4270 C4274 0.949 . S
C4271 C4272 1.349 . S
C4271 C4273 1.327 . S
C4271 H4294 0.950 . S
C4272 C4271 1.349 . S
C4272 C4284 1.349 . S
C4273 C4271 1.327 . S
C4273 C4289 1.429 . S
C4273 H4295 0.950 . S
C4274 H4270 0.949 . S
C4274 C4282 1.574 . S
C4274 C4290 1.368 . S
H4275 C4283 0.950 . S
H4276 C4281 0.950 . S
H4277 C4282 0.949 . S
H4278 C4284 0.950 . S
H4279 C4285 0.950 . S
H4280 C4286 0.949 . S
C4281 H4276 0.950 . S
C4281 C4283 1.327 . S
C4281 C4287 1.429 . S
C4282 C4274 1.574 . S
C4282 H4277 0.949 . S
C4282 C4288 1.368 . S
C4283 C4267 1.349 . S
C4283 H4275 0.950 . S
C4283 C4281 1.327 . S
C4284 C4272 1.349 . S
C4284 H4278 0.950 . S
C4284 C4285 1.327 . S
C4285 H4279 0.950 . S
C4285 C4284 1.327 . S
C4285 C4289 1.429 . S
C4286 C4269 1.574 . S
C4286 H4280 0.949 . S
C4286 C4290 1.368 . S
C4287 C4268 1.429 . S
C4287 C4281 1.429 . S
C4287 C4288 1.523 . S
C4288 C4269 1.368 . S
C4288 C4282 1.368 . S
C4288 C4287 1.523 . S
C4289 C4273 1.429 . S
C4289 C4285 1.429 . S
C4289 C4290 1.523 . S
C4290 C4274 1.368 . S
C4290 C4286 1.368 . S
C4290 C4289 1.523 . S
H4291 C4266 0.950 . S
H4292 C4268 0.950 . S
H4293 C4269 0.949 . S
H4294 C4271 0.950 . S
H4295 C4273 0.950 . S
C4296 C4297 1.349 . S
C4296 C4298 1.327 . S
C4296 H4321 0.950 . S
C4297 C4296 1.349 . S
C4297 C4313 1.349 . S
C4298 C4296 1.327 . S
C4298 C4317 1.429 . S
C4298 H4322 0.950 . S
C4299 C4316 1.574 . S
C4299 C4318 1.368 . S
C4299 H4323 0.949 . S
H4300 C4304 0.949 . S
C4301 C4302 1.349 . S
C4301 C4303 1.327 . S
C4301 H4324 0.950 . S
C4302 C4301 1.349 . S
C4302 C4314 1.349 . S
C4303 C4301 1.327 . S
C4303 C4319 1.429 . S
C4303 H4325 0.950 . S
C4304 H4300 0.949 . S
C4304 C4312 1.574 . S
C4304 C4320 1.368 . S
H4305 C4313 0.950 . S
H4306 C4311 0.950 . S
H4307 C4312 0.949 . S
H4308 C4314 0.950 . S
H4309 C4315 0.950 . S
H4310 C4316 0.949 . S
C4311 H4306 0.950 . S
C4311 C4313 1.327 . S
C4311 C4317 1.429 . S
C4312 C4304 1.574 . S
C4312 H4307 0.949 . S
C4312 C4318 1.368 . S
C4313 C4297 1.349 . S
C4313 H4305 0.950 . S
C4313 C4311 1.327 . S
C4314 C4302 1.349 . S
C4314 H4308 0.950 . S
C4314 C4315 1.327 . S
C4315 H4309 0.950 . S
C4315 C4314 1.327 . S
C4315 C4319 1.429 . S
C4316 C4299 1.574 . S
C4316 H4310 0.949 . S
C4316 C4320 1.368 . S
C4317 C4298 1.429 . S
C4317 C4311 1.429 . S
C4317 C4318 1.523 . S
C4318 C4299 1.368 . S
C4318 C4312 1.368 . S
C4318 C4317 1.523 . S
C4319 C4303 1.429 . S
C4319 C4315 1.429 . S
C4319 C4320 1.523 . S
C4320 C4304 1.368 . S
C4320 C4316 1.368 . S
C4320 C4319 1.523 . S
H4321 C4296 0.950 . S
H4322 C4298 0.950 . S
H4323 C4299 0.949 . S
H4324 C4301 0.950 . S
H4325 C4303 0.950 . S
C4326 C4327 1.349 . S
C4326 C4328 1.327 . S
C4326 H4351 0.950 . S
C4327 C4326 1.349 . S
C4327 C4343 1.349 . S
C4328 C4326 1.327 . S
C4328 C4347 1.429 . S
C4328 H4352 0.950 . S
C4329 C4346 1.574 . S
C4329 C4348 1.368 . S
C4329 H4353 0.949 . S
H4330 C4334 0.949 . S
C4331 C4332 1.349 . S
C4331 C4333 1.327 . S
C4331 H4354 0.950 . S
C4332 C4331 1.349 . S
C4332 C4344 1.349 . S
C4333 C4331 1.327 . S
C4333 C4349 1.429 . S
C4333 H4355 0.950 . S
C4334 H4330 0.949 . S
C4334 C4342 1.574 . S
C4334 C4350 1.368 . S
H4335 C4343 0.950 . S
H4336 C4341 0.950 . S
H4337 C4342 0.949 . S
H4338 C4344 0.950 . S
H4339 C4345 0.950 . S
H4340 C4346 0.949 . S
C4341 H4336 0.950 . S
C4341 C4343 1.327 . S
C4341 C4347 1.429 . S
C4342 C4334 1.574 . S
C4342 H4337 0.949 . S
C4342 C4348 1.368 . S
C4343 C4327 1.349 . S
C4343 H4335 0.950 . S
C4343 C4341 1.327 . S
C4344 C4332 1.349 . S
C4344 H4338 0.950 . S
C4344 C4345 1.327 . S
C4345 H4339 0.950 . S
C4345 C4344 1.327 . S
C4345 C4349 1.429 . S
C4346 C4329 1.574 . S
C4346 H4340 0.949 . S
C4346 C4350 1.368 . S
C4347 C4328 1.429 . S
C4347 C4341 1.429 . S
C4347 C4348 1.523 . S
C4348 C4329 1.368 . S
C4348 C4342 1.368 . S
C4348 C4347 1.523 . S
C4349 C4333 1.429 . S
C4349 C4345 1.429 . S
C4349 C4350 1.523 . S
C4350 C4334 1.368 . S
C4350 C4346 1.368 . S
C4350 C4349 1.523 . S
H4351 C4326 0.950 . S
H4352 C4328 0.950 . S
H4353 C4329 0.949 . S
H4354 C4331 0.950 . S
H4355 C4333 0.950 . S
C4356 C4357 1.349 . S
C4356 C4358 1.327 . S
C4356 H4381 0.950 . S
C4357 C4356 1.349 . S
C4357 C4373 1.349 . S
C4358 C4356 1.327 . S
C4358 C4377 1.429 . S
C4358 H4382 0.950 . S
C4359 C4376 1.574 . S
C4359 C4378 1.368 . S
C4359 H4383 0.949 . S
H4360 C4364 0.949 . S
C4361 C4362 1.349 . S
C4361 C4363 1.327 . S
C4361 H4384 0.950 . S
C4362 C4361 1.349 . S
C4362 C4374 1.349 . S
C4363 C4361 1.327 . S
C4363 C4379 1.429 . S
C4363 H4385 0.950 . S
C4364 H4360 0.949 . S
C4364 C4372 1.574 . S
C4364 C4380 1.368 . S
H4365 C4373 0.950 . S
H4366 C4371 0.950 . S
H4367 C4372 0.949 . S
H4368 C4374 0.950 . S
H4369 C4375 0.950 . S
H4370 C4376 0.949 . S
C4371 H4366 0.950 . S
C4371 C4373 1.327 . S
C4371 C4377 1.429 . S
C4372 C4364 1.574 . S
C4372 H4367 0.949 . S
C4372 C4378 1.368 . S
C4373 C4357 1.349 . S
C4373 H4365 0.950 . S
C4373 C4371 1.327 . S
C4374 C4362 1.349 . S
C4374 H4368 0.950 . S
C4374 C4375 1.327 . S
C4375 H4369 0.950 . S
C4375 C4374 1.327 . S
C4375 C4379 1.429 . S
C4376 C4359 1.574 . S
C4376 H4370 0.949 . S
C4376 C4380 1.368 . S
C4377 C4358 1.429 . S
C4377 C4371 1.429 . S
C4377 C4378 1.523 . S
C4378 C4359 1.368 . S
C4378 C4372 1.368 . S
C4378 C4377 1.523 . S
C4379 C4363 1.429 . S
C4379 C4375 1.429 . S
C4379 C4380 1.523 . S
C4380 C4364 1.368 . S
C4380 C4376 1.368 . S
C4380 C4379 1.523 . S
H4381 C4356 0.950 . S
H4382 C4358 0.950 . S
H4383 C4359 0.949 . S
H4384 C4361 0.950 . S
H4385 C4363 0.950 . S
C4386 C4387 1.349 . S
C4386 C4388 1.327 . S
C4386 H4411 0.950 . S
C4387 C4386 1.349 . S
C4387 C4403 1.349 . S
C4388 C4386 1.327 . S
C4388 C4407 1.429 . S
C4388 H4412 0.950 . S
C4389 C4406 1.574 . S
C4389 C4408 1.368 . S
C4389 H4413 0.949 . S
H4390 C4394 0.949 . S
C4391 C4392 1.349 . S
C4391 C4393 1.327 . S
C4391 H4414 0.950 . S
C4392 C4391 1.349 . S
C4392 C4404 1.349 . S
C4393 C4391 1.327 . S
C4393 C4409 1.429 . S
C4393 H4415 0.950 . S
C4394 H4390 0.949 . S
C4394 C4402 1.574 . S
C4394 C4410 1.368 . S
H4395 C4403 0.950 . S
H4396 C4401 0.950 . S
H4397 C4402 0.949 . S
H4398 C4404 0.950 . S
H4399 C4405 0.950 . S
H4400 C4406 0.949 . S
C4401 H4396 0.950 . S
C4401 C4403 1.327 . S
C4401 C4407 1.429 . S
C4402 C4394 1.574 . S
C4402 H4397 0.949 . S
C4402 C4408 1.368 . S
C4403 C4387 1.349 . S
C4403 H4395 0.950 . S
C4403 C4401 1.327 . S
C4404 C4392 1.349 . S
C4404 H4398 0.950 . S
C4404 C4405 1.327 . S
C4405 H4399 0.950 . S
C4405 C4404 1.327 . S
C4405 C4409 1.429 . S
C4406 C4389 1.574 . S
C4406 H4400 0.949 . S
C4406 C4410 1.368 . S
C4407 C4388 1.429 . S
C4407 C4401 1.429 . S
C4407 C4408 1.523 . S
C4408 C4389 1.368 . S
C4408 C4402 1.368 . S
C4408 C4407 1.523 . S
C4409 C4393 1.429 . S
C4409 C4405 1.429 . S
C4409 C4410 1.523 . S
C4410 C4394 1.368 . S
C4410 C4406 1.368 . S
C4410 C4409 1.523 . S
H4411 C4386 0.950 . S
H4412 C4388 0.950 . S
H4413 C4389 0.949 . S
H4414 C4391 0.950 . S
H4415 C4393 0.950 . S
C4416 C4417 1.349 . S
C4416 C4418 1.327 . S
C4416 H4441 0.950 . S
C4417 C4416 1.349 . S
C4417 C4433 1.349 . S
C4418 C4416 1.327 . S
C4418 C4437 1.429 . S
C4418 H4442 0.950 . S
C4419 C4436 1.574 . S
C4419 C4438 1.368 . S
C4419 H4443 0.949 . S
H4420 C4424 0.949 . S
C4421 C4422 1.349 . S
C4421 C4423 1.327 . S
C4421 H4444 0.950 . S
C4422 C4421 1.349 . S
C4422 C4434 1.349 . S
C4423 C4421 1.327 . S
C4423 C4439 1.429 . S
C4423 H4445 0.950 . S
C4424 H4420 0.949 . S
C4424 C4432 1.574 . S
C4424 C4440 1.368 . S
H4425 C4433 0.950 . S
H4426 C4431 0.950 . S
H4427 C4432 0.949 . S
H4428 C4434 0.950 . S
H4429 C4435 0.950 . S
H4430 C4436 0.949 . S
C4431 H4426 0.950 . S
C4431 C4433 1.327 . S
C4431 C4437 1.429 . S
C4432 C4424 1.574 . S
C4432 H4427 0.949 . S
C4432 C4438 1.368 . S
C4433 C4417 1.349 . S
C4433 H4425 0.950 . S
C4433 C4431 1.327 . S
C4434 C4422 1.349 . S
C4434 H4428 0.950 . S
C4434 C4435 1.327 . S
C4435 H4429 0.950 . S
C4435 C4434 1.327 . S
C4435 C4439 1.429 . S
C4436 C4419 1.574 . S
C4436 H4430 0.949 . S
C4436 C4440 1.368 . S
C4437 C4418 1.429 . S
C4437 C4431 1.429 . S
C4437 C4438 1.523 . S
C4438 C4419 1.368 . S
C4438 C4432 1.368 . S
C4438 C4437 1.523 . S
C4439 C4423 1.429 . S
C4439 C4435 1.429 . S
C4439 C4440 1.523 . S
C4440 C4424 1.368 . S
C4440 C4436 1.368 . S
C4440 C4439 1.523 . S
H4441 C4416 0.950 . S
H4442 C4418 0.950 . S
H4443 C4419 0.949 . S
H4444 C4421 0.950 . S
H4445 C4423 0.950 . S
C4446 C4447 1.349 . S
C4446 C4448 1.327 . S
C4446 H4471 0.950 . S
C4447 C4446 1.349 . S
C4447 C4463 1.349 . S
C4448 C4446 1.327 . S
C4448 C4467 1.429 . S
C4448 H4472 0.950 . S
C4449 C4466 1.574 . S
C4449 C4468 1.368 . S
C4449 H4473 0.949 . S
H4450 C4454 0.949 . S
C4451 C4452 1.349 . S
C4451 C4453 1.327 . S
C4451 H4474 0.950 . S
C4452 C4451 1.349 . S
C4452 C4464 1.349 . S
C4453 C4451 1.327 . S
C4453 C4469 1.429 . S
C4453 H4475 0.950 . S
C4454 H4450 0.949 . S
C4454 C4462 1.574 . S
C4454 C4470 1.368 . S
H4455 C4463 0.950 . S
H4456 C4461 0.950 . S
H4457 C4462 0.949 . S
H4458 C4464 0.950 . S
H4459 C4465 0.950 . S
H4460 C4466 0.949 . S
C4461 H4456 0.950 . S
C4461 C4463 1.327 . S
C4461 C4467 1.429 . S
C4462 C4454 1.574 . S
C4462 H4457 0.949 . S
C4462 C4468 1.368 . S
C4463 C4447 1.349 . S
C4463 H4455 0.950 . S
C4463 C4461 1.327 . S
C4464 C4452 1.349 . S
C4464 H4458 0.950 . S
C4464 C4465 1.327 . S
C4465 H4459 0.950 . S
C4465 C4464 1.327 . S
C4465 C4469 1.429 . S
C4466 C4449 1.574 . S
C4466 H4460 0.949 . S
C4466 C4470 1.368 . S
C4467 C4448 1.429 . S
C4467 C4461 1.429 . S
C4467 C4468 1.523 . S
C4468 C4449 1.368 . S
C4468 C4462 1.368 . S
C4468 C4467 1.523 . S
C4469 C4453 1.429 . S
C4469 C4465 1.429 . S
C4469 C4470 1.523 . S
C4470 C4454 1.368 . S
C4470 C4466 1.368 . S
C4470 C4469 1.523 . S
H4471 C4446 0.950 . S
H4472 C4448 0.950 . S
H4473 C4449 0.949 . S
H4474 C4451 0.950 . S
H4475 C4453 0.950 . S
C4476 C4477 1.349 . S
C4476 C4478 1.327 . S
C4476 H4501 0.950 . S
C4477 C4476 1.349 . S
C4477 C4493 1.349 . S
C4478 C4476 1.327 . S
C4478 C4497 1.429 . S
C4478 H4502 0.950 . S
C4479 C4496 1.574 . S
C4479 C4498 1.368 . S
C4479 H4503 0.949 . S
H4480 C4484 0.949 . S
C4481 C4482 1.349 . S
C4481 C4483 1.327 . S
C4481 H4504 0.950 . S
C4482 C4481 1.349 . S
C4482 C4494 1.349 . S
C4483 C4481 1.327 . S
C4483 C4499 1.429 . S
C4483 H4505 0.950 . S
C4484 H4480 0.949 . S
C4484 C4492 1.574 . S
C4484 C4500 1.368 . S
H4485 C4493 0.950 . S
H4486 C4491 0.950 . S
H4487 C4492 0.949 . S
H4488 C4494 0.950 . S
H4489 C4495 0.950 . S
H4490 C4496 0.949 . S
C4491 H4486 0.950 . S
C4491 C4493 1.327 . S
C4491 C4497 1.429 . S
C4492 C4484 1.574 . S
C4492 H4487 0.949 . S
C4492 C4498 1.368 . S
C4493 C4477 1.349 . S
C4493 H4485 0.950 . S
C4493 C4491 1.327 . S
C4494 C4482 1.349 . S
C4494 H4488 0.950 . S
C4494 C4495 1.327 . S
C4495 H4489 0.950 . S
C4495 C4494 1.327 . S
C4495 C4499 1.429 . S
C4496 C4479 1.574 . S
C4496 H4490 0.949 . S
C4496 C4500 1.368 . S
C4497 C4478 1.429 . S
C4497 C4491 1.429 . S
C4497 C4498 1.523 . S
C4498 C4479 1.368 . S
C4498 C4492 1.368 . S
C4498 C4497 1.523 . S
C4499 C4483 1.429 . S
C4499 C4495 1.429 . S
C4499 C4500 1.523 . S
C4500 C4484 1.368 . S
C4500 C4496 1.368 . S
C4500 C4499 1.523 . S
H4501 C4476 0.950 . S
H4502 C4478 0.950 . S
H4503 C4479 0.949 . S
H4504 C4481 0.950 . S
H4505 C4483 0.950 . S
C4506 C4507 1.349 . S
C4506 C4508 1.327 . S
C4506 H4531 0.950 . S
C4507 C4506 1.349 . S
C4507 C4523 1.349 . S
C4508 C4506 1.327 . S
C4508 C4527 1.429 . S
C4508 H4532 0.950 . S
C4509 C4526 1.574 . S
C4509 C4528 1.368 . S
C4509 H4533 0.949 . S
H4510 C4514 0.949 . S
C4511 C4512 1.349 . S
C4511 C4513 1.327 . S
C4511 H4534 0.950 . S
C4512 C4511 1.349 . S
C4512 C4524 1.349 . S
C4513 C4511 1.327 . S
C4513 C4529 1.429 . S
C4513 H4535 0.950 . S
C4514 H4510 0.949 . S
C4514 C4522 1.574 . S
C4514 C4530 1.368 . S
H4515 C4523 0.950 . S
H4516 C4521 0.950 . S
H4517 C4522 0.949 . S
H4518 C4524 0.950 . S
H4519 C4525 0.950 . S
H4520 C4526 0.949 . S
C4521 H4516 0.950 . S
C4521 C4523 1.327 . S
C4521 C4527 1.429 . S
C4522 C4514 1.574 . S
C4522 H4517 0.949 . S
C4522 C4528 1.368 . S
C4523 C4507 1.349 . S
C4523 H4515 0.950 . S
C4523 C4521 1.327 . S
C4524 C4512 1.349 . S
C4524 H4518 0.950 . S
C4524 C4525 1.327 . S
C4525 H4519 0.950 . S
C4525 C4524 1.327 . S
C4525 C4529 1.429 . S
C4526 C4509 1.574 . S
C4526 H4520 0.949 . S
C4526 C4530 1.368 . S
C4527 C4508 1.429 . S
C4527 C4521 1.429 . S
C4527 C4528 1.523 . S
C4528 C4509 1.368 . S
C4528 C4522 1.368 . S
C4528 C4527 1.523 . S
C4529 C4513 1.429 . S
C4529 C4525 1.429 . S
C4529 C4530 1.523 . S
C4530 C4514 1.368 . S
C4530 C4526 1.368 . S
C4530 C4529 1.523 . S
H4531 C4506 0.950 . S
H4532 C4508 0.950 . S
H4533 C4509 0.949 . S
H4534 C4511 0.950 . S
H4535 C4513 0.950 . S
C4536 C4537 1.349 . S
C4536 C4538 1.327 . S
C4536 H4561 0.950 . S
C4537 C4536 1.349 . S
C4537 C4553 1.349 . S
C4538 C4536 1.327 . S
C4538 C4557 1.429 . S
C4538 H4562 0.950 . S
C4539 C4556 1.574 . S
C4539 C4558 1.368 . S
C4539 H4563 0.949 . S
H4540 C4544 0.949 . S
C4541 C4542 1.349 . S
C4541 C4543 1.327 . S
C4541 H4564 0.950 . S
C4542 C4541 1.349 . S
C4542 C4554 1.349 . S
C4543 C4541 1.327 . S
C4543 C4559 1.429 . S
C4543 H4565 0.950 . S
C4544 H4540 0.949 . S
C4544 C4552 1.574 . S
C4544 C4560 1.368 . S
H4545 C4553 0.950 . S
H4546 C4551 0.950 . S
H4547 C4552 0.949 . S
H4548 C4554 0.950 . S
H4549 C4555 0.950 . S
H4550 C4556 0.949 . S
C4551 H4546 0.950 . S
C4551 C4553 1.327 . S
C4551 C4557 1.429 . S
C4552 C4544 1.574 . S
C4552 H4547 0.949 . S
C4552 C4558 1.368 . S
C4553 C4537 1.349 . S
C4553 H4545 0.950 . S
C4553 C4551 1.327 . S
C4554 C4542 1.349 . S
C4554 H4548 0.950 . S
C4554 C4555 1.327 . S
C4555 H4549 0.950 . S
C4555 C4554 1.327 . S
C4555 C4559 1.429 . S
C4556 C4539 1.574 . S
C4556 H4550 0.949 . S
C4556 C4560 1.368 . S
C4557 C4538 1.429 . S
C4557 C4551 1.429 . S
C4557 C4558 1.523 . S
C4558 C4539 1.368 . S
C4558 C4552 1.368 . S
C4558 C4557 1.523 . S
C4559 C4543 1.429 . S
C4559 C4555 1.429 . S
C4559 C4560 1.523 . S
C4560 C4544 1.368 . S
C4560 C4556 1.368 . S
C4560 C4559 1.523 . S
H4561 C4536 0.950 . S
H4562 C4538 0.950 . S
H4563 C4539 0.949 . S
H4564 C4541 0.950 . S
H4565 C4543 0.950 . S
C4566 C4567 1.349 . S
C4566 C4568 1.327 . S
C4566 H4591 0.950 . S
C4567 C4566 1.349 . S
C4567 C4583 1.349 . S
C4568 C4566 1.327 . S
C4568 C4587 1.429 . S
C4568 H4592 0.950 . S
C4569 C4586 1.574 . S
C4569 C4588 1.368 . S
C4569 H4593 0.949 . S
H4570 C4574 0.949 . S
C4571 C4572 1.349 . S
C4571 C4573 1.327 . S
C4571 H4594 0.950 . S
C4572 C4571 1.349 . S
C4572 C4584 1.349 . S
C4573 C4571 1.327 . S
C4573 C4589 1.429 . S
C4573 H4595 0.950 . S
C4574 H4570 0.949 . S
C4574 C4582 1.574 . S
C4574 C4590 1.368 . S
H4575 C4583 0.950 . S
H4576 C4581 0.950 . S
H4577 C4582 0.949 . S
H4578 C4584 0.950 . S
H4579 C4585 0.950 . S
H4580 C4586 0.949 . S
C4581 H4576 0.950 . S
C4581 C4583 1.327 . S
C4581 C4587 1.429 . S
C4582 C4574 1.574 . S
C4582 H4577 0.949 . S
C4582 C4588 1.368 . S
C4583 C4567 1.349 . S
C4583 H4575 0.950 . S
C4583 C4581 1.327 . S
C4584 C4572 1.349 . S
C4584 H4578 0.950 . S
C4584 C4585 1.327 . S
C4585 H4579 0.950 . S
C4585 C4584 1.327 . S
C4585 C4589 1.429 . S
C4586 C4569 1.574 . S
C4586 H4580 0.949 . S
C4586 C4590 1.368 . S
C4587 C4568 1.429 . S
C4587 C4581 1.429 . S
C4587 C4588 1.523 . S
C4588 C4569 1.368 . S
C4588 C4582 1.368 . S
C4588 C4587 1.523 . S
C4589 C4573 1.429 . S
C4589 C4585 1.429 . S
C4589 C4590 1.523 . S
C4590 C4574 1.368 . S
C4590 C4586 1.368 . S
C4590 C4589 1.523 . S
H4591 C4566 0.950 . S
H4592 C4568 0.950 . S
H4593 C4569 0.949 . S
H4594 C4571 0.950 . S
H4595 C4573 0.950 . S
C4596 C4597 1.349 . S
C4596 C4598 1.327 . S
C4596 H4621 0.950 . S
C4597 C4596 1.349 . S
C4597 C4613 1.349 . S
C4598 C4596 1.327 . S
C4598 C4617 1.429 . S
C4598 H4622 0.950 . S
C4599 C4616 1.574 . S
C4599 C4618 1.368 . S
C4599 H4623 0.949 . S
H4600 C4604 0.949 . S
C4601 C4602 1.349 . S
C4601 C4603 1.327 . S
C4601 H4624 0.950 . S
C4602 C4601 1.349 . S
C4602 C4614 1.349 . S
C4603 C4601 1.327 . S
C4603 C4619 1.429 . S
C4603 H4625 0.950 . S
C4604 H4600 0.949 . S
C4604 C4612 1.574 . S
C4604 C4620 1.368 . S
H4605 C4613 0.950 . S
H4606 C4611 0.950 . S
H4607 C4612 0.949 . S
H4608 C4614 0.950 . S
H4609 C4615 0.950 . S
H4610 C4616 0.949 . S
C4611 H4606 0.950 . S
C4611 C4613 1.327 . S
C4611 C4617 1.429 . S
C4612 C4604 1.574 . S
C4612 H4607 0.949 . S
C4612 C4618 1.368 . S
C4613 C4597 1.349 . S
C4613 H4605 0.950 . S
C4613 C4611 1.327 . S
C4614 C4602 1.349 . S
C4614 H4608 0.950 . S
C4614 C4615 1.327 . S
C4615 H4609 0.950 . S
C4615 C4614 1.327 . S
C4615 C4619 1.429 . S
C4616 C4599 1.574 . S
C4616 H4610 0.949 . S
C4616 C4620 1.368 . S
C4617 C4598 1.429 . S
C4617 C4611 1.429 . S
C4617 C4618 1.523 . S
C4618 C4599 1.368 . S
C4618 C4612 1.368 . S
C4618 C4617 1.523 . S
C4619 C4603 1.429 . S
C4619 C4615 1.429 . S
C4619 C4620 1.523 . S
C4620 C4604 1.368 . S
C4620 C4616 1.368 . S
C4620 C4619 1.523 . S
H4621 C4596 0.950 . S
H4622 C4598 0.950 . S
H4623 C4599 0.949 . S
H4624 C4601 0.950 . S
H4625 C4603 0.950 . S
C4626 C4627 1.349 . S
C4626 C4628 1.327 . S
C4626 H4651 0.950 . S
C4627 C4626 1.349 . S
C4627 C4643 1.349 . S
C4628 C4626 1.327 . S
C4628 C4647 1.429 . S
C4628 H4652 0.950 . S
C4629 C4646 1.574 . S
C4629 C4648 1.368 . S
C4629 H4653 0.949 . S
H4630 C4634 0.949 . S
C4631 C4632 1.349 . S
C4631 C4633 1.327 . S
C4631 H4654 0.950 . S
C4632 C4631 1.349 . S
C4632 C4644 1.349 . S
C4633 C4631 1.327 . S
C4633 C4649 1.429 . S
C4633 H4655 0.950 . S
C4634 H4630 0.949 . S
C4634 C4642 1.574 . S
C4634 C4650 1.368 . S
H4635 C4643 0.950 . S
H4636 C4641 0.950 . S
H4637 C4642 0.949 . S
H4638 C4644 0.950 . S
H4639 C4645 0.950 . S
H4640 C4646 0.949 . S
C4641 H4636 0.950 . S
C4641 C4643 1.327 . S
C4641 C4647 1.429 . S
C4642 C4634 1.574 . S
C4642 H4637 0.949 . S
C4642 C4648 1.368 . S
C4643 C4627 1.349 . S
C4643 H4635 0.950 . S
C4643 C4641 1.327 . S
C4644 C4632 1.349 . S
C4644 H4638 0.950 . S
C4644 C4645 1.327 . S
C4645 H4639 0.950 . S
C4645 C4644 1.327 . S
C4645 C4649 1.429 . S
C4646 C4629 1.574 . S
C4646 H4640 0.949 . S
C4646 C4650 1.368 . S
C4647 C4628 1.429 . S
C4647 C4641 1.429 . S
C4647 C4648 1.523 . S
C4648 C4629 1.368 . S
C4648 C4642 1.368 . S
C4648 C4647 1.523 . S
C4649 C4633 1.429 . S
C4649 C4645 1.429 . S
C4649 C4650 1.523 . S
C4650 C4634 1.368 . S
C4650 C4646 1.368 . S
C4650 C4649 1.523 . S
H4651 C4626 0.950 . S
H4652 C4628 0.950 . S
H4653 C4629 0.949 . S
H4654 C4631 0.950 . S
H4655 C4633 0.950 . S
C4656 C4657 1.349 . S
C4656 C4658 1.327 . S
C4656 H4681 0.950 . S
C4657 C4656 1.349 . S
C4657 C4673 1.349 . S
C4658 C4656 1.327 . S
C4658 C4677 1.429 . S
C4658 H4682 0.950 . S
C4659 C4676 1.574 . S
C4659 C4678 1.368 . S
C4659 H4683 0.949 . S
H4660 C4664 0.949 . S
C4661 C4662 1.349 . S
C4661 C4663 1.327 . S
C4661 H4684 0.950 . S
C4662 C4661 1.349 . S
C4662 C4674 1.349 . S
C4663 C4661 1.327 . S
C4663 C4679 1.429 . S
C4663 H4685 0.950 . S
C4664 H4660 0.949 . S
C4664 C4672 1.574 . S
C4664 C4680 1.368 . S
H4665 C4673 0.950 . S
H4666 C4671 0.950 . S
H4667 C4672 0.949 . S
H4668 C4674 0.950 . S
H4669 C4675 0.950 . S
H4670 C4676 0.949 . S
C4671 H4666 0.950 . S
C4671 C4673 1.327 . S
C4671 C4677 1.429 . S
C4672 C4664 1.574 . S
C4672 H4667 0.949 . S
C4672 C4678 1.368 . S
C4673 C4657 1.349 . S
C4673 H4665 0.950 . S
C4673 C4671 1.327 . S
C4674 C4662 1.349 . S
C4674 H4668 0.950 . S
C4674 C4675 1.327 . S
C4675 H4669 0.950 . S
C4675 C4674 1.327 . S
C4675 C4679 1.429 . S
C4676 C4659 1.574 . S
C4676 H4670 0.949 . S
C4676 C4680 1.368 . S
C4677 C4658 1.429 . S
C4677 C4671 1.429 . S
C4677 C4678 1.523 . S
C4678 C4659 1.368 . S
C4678 C4672 1.368 . S
C4678 C4677 1.523 . S
C4679 C4663 1.429 . S
C4679 C4675 1.429 . S
C4679 C4680 1.523 . S
C4680 C4664 1.368 . S
C4680 C4676 1.368 . S
C4680 C4679 1.523 . S
H4681 C4656 0.950 . S
H4682 C4658 0.950 . S
H4683 C4659 0.949 . S
H4684 C4661 0.950 . S
H4685 C4663 0.950 . S
C4686 C4687 1.349 . S
C4686 C4688 1.327 . S
C4686 H4711 0.950 . S
C4687 C4686 1.349 . S
C4687 C4703 1.349 . S
C4688 C4686 1.327 . S
C4688 C4707 1.429 . S
C4688 H4712 0.950 . S
C4689 C4706 1.574 . S
C4689 C4708 1.368 . S
C4689 H4713 0.949 . S
H4690 C4694 0.949 . S
C4691 C4692 1.349 . S
C4691 C4693 1.327 . S
C4691 H4714 0.950 . S
C4692 C4691 1.349 . S
C4692 C4704 1.349 . S
C4693 C4691 1.327 . S
C4693 C4709 1.429 . S
C4693 H4715 0.950 . S
C4694 H4690 0.949 . S
C4694 C4702 1.574 . S
C4694 C4710 1.368 . S
H4695 C4703 0.950 . S
H4696 C4701 0.950 . S
H4697 C4702 0.949 . S
H4698 C4704 0.950 . S
H4699 C4705 0.950 . S
H4700 C4706 0.949 . S
C4701 H4696 0.950 . S
C4701 C4703 1.327 . S
C4701 C4707 1.429 . S
C4702 C4694 1.574 . S
C4702 H4697 0.949 . S
C4702 C4708 1.368 . S
C4703 C4687 1.349 . S
C4703 H4695 0.950 . S
C4703 C4701 1.327 . S
C4704 C4692 1.349 . S
C4704 H4698 0.950 . S
C4704 C4705 1.327 . S
C4705 H4699 0.950 . S
C4705 C4704 1.327 . S
C4705 C4709 1.429 . S
C4706 C4689 1.574 . S
C4706 H4700 0.949 . S
C4706 C4710 1.368 . S
C4707 C4688 1.429 . S
C4707 C4701 1.429 . S
C4707 C4708 1.523 . S
C4708 C4689 1.368 . S
C4708 C4702 1.368 . S
C4708 C4707 1.523 . S
C4709 C4693 1.429 . S
C4709 C4705 1.429 . S
C4709 C4710 1.523 . S
C4710 C4694 1.368 . S
C4710 C4706 1.368 . S
C4710 C4709 1.523 . S
H4711 C4686 0.950 . S
H4712 C4688 0.950 . S
H4713 C4689 0.949 . S
H4714 C4691 0.950 . S
H4715 C4693 0.950 . S
C4716 C4717 1.349 . S
C4716 C4718 1.327 . S
C4716 H4741 0.950 . S
C4717 C4716 1.349 . S
C4717 C4733 1.349 . S
C4718 C4716 1.327 . S
C4718 C4737 1.429 . S
C4718 H4742 0.950 . S
C4719 C4736 1.574 . S
C4719 C4738 1.368 . S
C4719 H4743 0.949 . S
H4720 C4724 0.949 . S
C4721 C4722 1.349 . S
C4721 C4723 1.327 . S
C4721 H4744 0.950 . S
C4722 C4721 1.349 . S
C4722 C4734 1.349 . S
C4723 C4721 1.327 . S
C4723 C4739 1.429 . S
C4723 H4745 0.950 . S
C4724 H4720 0.949 . S
C4724 C4732 1.574 . S
C4724 C4740 1.368 . S
H4725 C4733 0.950 . S
H4726 C4731 0.950 . S
H4727 C4732 0.949 . S
H4728 C4734 0.950 . S
H4729 C4735 0.950 . S
H4730 C4736 0.949 . S
C4731 H4726 0.950 . S
C4731 C4733 1.327 . S
C4731 C4737 1.429 . S
C4732 C4724 1.574 . S
C4732 H4727 0.949 . S
C4732 C4738 1.368 . S
C4733 C4717 1.349 . S
C4733 H4725 0.950 . S
C4733 C4731 1.327 . S
C4734 C4722 1.349 . S
C4734 H4728 0.950 . S
C4734 C4735 1.327 . S
C4735 H4729 0.950 . S
C4735 C4734 1.327 . S
C4735 C4739 1.429 . S
C4736 C4719 1.574 . S
C4736 H4730 0.949 . S
C4736 C4740 1.368 . S
C4737 C4718 1.429 . S
C4737 C4731 1.429 . S
C4737 C4738 1.523 . S
C4738 C4719 1.368 . S
C4738 C4732 1.368 . S
C4738 C4737 1.523 . S
C4739 C4723 1.429 . S
C4739 C4735 1.429 . S
C4739 C4740 1.523 . S
C4740 C4724 1.368 . S
C4740 C4736 1.368 . S
C4740 C4739 1.523 . S
H4741 C4716 0.950 . S
H4742 C4718 0.950 . S
H4743 C4719 0.949 . S
H4744 C4721 0.950 . S
H4745 C4723 0.950 . S
C4746 C4747 1.349 . S
C4746 C4748 1.327 . S
C4746 H4771 0.950 . S
C4747 C4746 1.349 . S
C4747 C4763 1.349 . S
C4748 C4746 1.327 . S
C4748 C4767 1.429 . S
C4748 H4772 0.950 . S
C4749 C4766 1.574 . S
C4749 C4768 1.368 . S
C4749 H4773 0.949 . S
H4750 C4754 0.949 . S
C4751 C4752 1.349 . S
C4751 C4753 1.327 . S
C4751 H4774 0.950 . S
C4752 C4751 1.349 . S
C4752 C4764 1.349 . S
C4753 C4751 1.327 . S
C4753 C4769 1.429 . S
C4753 H4775 0.950 . S
C4754 H4750 0.949 . S
C4754 C4762 1.574 . S
C4754 C4770 1.368 . S
H4755 C4763 0.950 . S
H4756 C4761 0.950 . S
H4757 C4762 0.949 . S
H4758 C4764 0.950 . S
H4759 C4765 0.950 . S
H4760 C4766 0.949 . S
C4761 H4756 0.950 . S
C4761 C4763 1.327 . S
C4761 C4767 1.429 . S
C4762 C4754 1.574 . S
C4762 H4757 0.949 . S
C4762 C4768 1.368 . S
C4763 C4747 1.349 . S
C4763 H4755 0.950 . S
C4763 C4761 1.327 . S
C4764 C4752 1.349 . S
C4764 H4758 0.950 . S
C4764 C4765 1.327 . S
C4765 H4759 0.950 . S
C4765 C4764 1.327 . S
C4765 C4769 1.429 . S
C4766 C4749 1.574 . S
C4766 H4760 0.949 . S
C4766 C4770 1.368 . S
C4767 C4748 1.429 . S
C4767 C4761 1.429 . S
C4767 C4768 1.523 . S
C4768 C4749 1.368 . S
C4768 C4762 1.368 . S
C4768 C4767 1.523 . S
C4769 C4753 1.429 . S
C4769 C4765 1.429 . S
C4769 C4770 1.523 . S
C4770 C4754 1.368 . S
C4770 C4766 1.368 . S
C4770 C4769 1.523 . S
H4771 C4746 0.950 . S
H4772 C4748 0.950 . S
H4773 C4749 0.949 . S
H4774 C4751 0.950 . S
H4775 C4753 0.950 . S
C4776 C4777 1.349 . S
C4776 C4778 1.327 . S
C4776 H4801 0.950 . S
C4777 C4776 1.349 . S
C4777 C4793 1.349 . S
C4778 C4776 1.327 . S
C4778 C4797 1.429 . S
C4778 H4802 0.950 . S
C4779 C4796 1.574 . S
C4779 C4798 1.368 . S
C4779 H4803 0.949 . S
H4780 C4784 0.949 . S
C4781 C4782 1.349 . S
C4781 C4783 1.327 . S
C4781 H4804 0.950 . S
C4782 C4781 1.349 . S
C4782 C4794 1.349 . S
C4783 C4781 1.327 . S
C4783 C4799 1.429 . S
C4783 H4805 0.950 . S
C4784 H4780 0.949 . S
C4784 C4792 1.574 . S
C4784 C4800 1.368 . S
H4785 C4793 0.950 . S
H4786 C4791 0.950 . S
H4787 C4792 0.949 . S
H4788 C4794 0.950 . S
H4789 C4795 0.950 . S
H4790 C4796 0.949 . S
C4791 H4786 0.950 . S
C4791 C4793 1.327 . S
C4791 C4797 1.429 . S
C4792 C4784 1.574 . S
C4792 H4787 0.949 . S
C4792 C4798 1.368 . S
C4793 C4777 1.349 . S
C4793 H4785 0.950 . S
C4793 C4791 1.327 . S
C4794 C4782 1.349 . S
C4794 H4788 0.950 . S
C4794 C4795 1.327 . S
C4795 H4789 0.950 . S
C4795 C4794 1.327 . S
C4795 C4799 1.429 . S
C4796 C4779 1.574 . S
C4796 H4790 0.949 . S
C4796 C4800 1.368 . S
C4797 C4778 1.429 . S
C4797 C4791 1.429 . S
C4797 C4798 1.523 . S
C4798 C4779 1.368 . S
C4798 C4792 1.368 . S
C4798 C4797 1.523 . S
C4799 C4783 1.429 . S
C4799 C4795 1.429 . S
C4799 C4800 1.523 . S
C4800 C4784 1.368 . S
C4800 C4796 1.368 . S
C4800 C4799 1.523 . S
H4801 C4776 0.950 . S
H4802 C4778 0.950 . S
H4803 C4779 0.949 . S
H4804 C4781 0.950 . S
H4805 C4783 0.950 . S
C4806 C4807 1.349 . S
C4806 C4808 1.327 . S
C4806 H4831 0.950 . S
C4807 C4806 1.349 . S
C4807 C4823 1.349 . S
C4808 C4806 1.327 . S
C4808 C4827 1.429 . S
C4808 H4832 0.950 . S
C4809 C4826 1.574 . S
C4809 C4828 1.368 . S
C4809 H4833 0.949 . S
H4810 C4814 0.949 . S
C4811 C4812 1.349 . S
C4811 C4813 1.327 . S
C4811 H4834 0.950 . S
C4812 C4811 1.349 . S
C4812 C4824 1.349 . S
C4813 C4811 1.327 . S
C4813 C4829 1.429 . S
C4813 H4835 0.950 . S
C4814 H4810 0.949 . S
C4814 C4822 1.574 . S
C4814 C4830 1.368 . S
H4815 C4823 0.950 . S
H4816 C4821 0.950 . S
H4817 C4822 0.949 . S
H4818 C4824 0.950 . S
H4819 C4825 0.950 . S
H4820 C4826 0.949 . S
C4821 H4816 0.950 . S
C4821 C4823 1.327 . S
C4821 C4827 1.429 . S
C4822 C4814 1.574 . S
C4822 H4817 0.949 . S
C4822 C4828 1.368 . S
C4823 C4807 1.349 . S
C4823 H4815 0.950 . S
C4823 C4821 1.327 . S
C4824 C4812 1.349 . S
C4824 H4818 0.950 . S
C4824 C4825 1.327 . S
C4825 H4819 0.950 . S
C4825 C4824 1.327 . S
C4825 C4829 1.429 . S
C4826 C4809 1.574 . S
C4826 H4820 0.949 . S
C4826 C4830 1.368 . S
C4827 C4808 1.429 . S
C4827 C4821 1.429 . S
C4827 C4828 1.523 . S
C4828 C4809 1.368 . S
C4828 C4822 1.368 . S
C4828 C4827 1.523 . S
C4829 C4813 1.429 . S
C4829 C4825 1.429 . S
C4829 C4830 1.523 . S
C4830 C4814 1.368 . S
C4830 C4826 1.368 . S
C4830 C4829 1.523 . S
H4831 C4806 0.950 . S
H4832 C4808 0.950 . S
H4833 C4809 0.949 . S
H4834 C4811 0.950 . S
H4835 C4813 0.950 . S
C4836 C4837 1.350 . S
C4836 C4838 1.327 . S
C4836 H4861 0.950 1_554 S
C4837 C4836 1.350 . S
C4837 C4853 1.354 . S
C4838 C4836 1.327 . S
C4838 C4857 1.429 . S
C4838 H4862 0.950 . S
C4839 C4856 1.574 . S
C4839 C4858 1.368 . S
C4839 H4863 0.949 . S
H4840 C4844 0.949 . S
C4841 C4842 1.349 . S
C4841 C4843 1.327 . S
C4841 H4864 0.950 . S
C4842 C4841 1.349 . S
C4842 C4854 1.349 . S
C4843 C4841 1.327 . S
C4843 C4859 1.429 . S
C4843 H4865 0.950 . S
C4844 H4840 0.949 . S
C4844 C4852 1.574 . S
C4844 C4860 1.368 . S
H4845 C4853 0.950 . S
H4846 C4851 0.950 . S
H4847 C4852 0.949 . S
H4848 C4854 0.950 . S
H4849 C4855 0.950 . S
H4850 C4856 0.949 . S
C4851 H4846 0.950 . S
C4851 C4853 1.327 . S
C4851 C4857 1.429 . S
C4852 C4844 1.574 . S
C4852 H4847 0.949 . S
C4852 C4858 1.368 . S
C4853 C4837 1.354 . S
C4853 H4845 0.950 . S
C4853 C4851 1.327 . S
C4854 C4842 1.349 . S
C4854 H4848 0.950 . S
C4854 C4855 1.327 . S
C4855 H4849 0.950 . S
C4855 C4854 1.327 . S
C4855 C4859 1.429 . S
C4856 C4839 1.574 . S
C4856 H4850 0.949 . S
C4856 C4860 1.368 . S
C4857 C4838 1.429 . S
C4857 C4851 1.429 . S
C4857 C4858 1.523 . S
C4858 C4839 1.368 . S
C4858 C4852 1.368 . S
C4858 C4857 1.523 . S
C4859 C4843 1.429 . S
C4859 C4855 1.429 . S
C4859 C4860 1.523 . S
C4860 C4844 1.368 . S
C4860 C4856 1.368 . S
C4860 C4859 1.523 . S
H4861 C4836 0.950 1_556 S
H4862 C4838 0.950 . S
H4863 C4839 0.949 . S
H4864 C4841 0.950 . S
H4865 C4843 0.950 . S
C4866 C4867 1.349 . S
C4866 C4868 1.327 . S
C4866 H4891 0.950 . S
C4867 C4866 1.349 . S
C4867 C4883 1.349 . S
C4868 C4866 1.327 . S
C4868 C4887 1.429 . S
C4868 H4892 0.950 . S
C4869 C4886 1.574 . S
C4869 C4888 1.368 . S
C4869 H4893 0.949 . S
H4870 C4874 0.949 . S
C4871 C4872 1.349 . S
C4871 C4873 1.327 . S
C4871 H4894 0.950 . S
C4872 C4871 1.349 . S
C4872 C4884 1.349 . S
C4873 C4871 1.327 . S
C4873 C4889 1.429 . S
C4873 H4895 0.950 . S
C4874 H4870 0.949 . S
C4874 C4882 1.574 . S
C4874 C4890 1.368 . S
H4875 C4883 0.950 . S
H4876 C4881 0.950 . S
H4877 C4882 0.949 . S
H4878 C4884 0.950 . S
H4879 C4885 0.950 . S
H4880 C4886 0.949 . S
C4881 H4876 0.950 . S
C4881 C4883 1.327 . S
C4881 C4887 1.429 . S
C4882 C4874 1.574 . S
C4882 H4877 0.949 . S
C4882 C4888 1.368 . S
C4883 C4867 1.349 . S
C4883 H4875 0.950 . S
C4883 C4881 1.327 . S
C4884 C4872 1.349 . S
C4884 H4878 0.950 . S
C4884 C4885 1.327 . S
C4885 H4879 0.950 . S
C4885 C4884 1.327 . S
C4885 C4889 1.429 . S
C4886 C4869 1.574 . S
C4886 H4880 0.949 . S
C4886 C4890 1.368 . S
C4887 C4868 1.429 . S
C4887 C4881 1.429 . S
C4887 C4888 1.523 . S
C4888 C4869 1.368 . S
C4888 C4882 1.368 . S
C4888 C4887 1.523 . S
C4889 C4873 1.429 . S
C4889 C4885 1.429 . S
C4889 C4890 1.523 . S
C4890 C4874 1.368 . S
C4890 C4886 1.368 . S
C4890 C4889 1.523 . S
H4891 C4866 0.950 . S
H4892 C4868 0.950 . S
H4893 C4869 0.949 . S
H4894 C4871 0.950 . S
H4895 C4873 0.950 . S
C4896 C4897 1.349 . S
C4896 C4898 1.327 . S
C4896 H4921 0.950 . S
C4897 C4896 1.349 . S
C4897 C4913 1.349 . S
C4898 C4896 1.327 . S
C4898 C4917 1.429 . S
C4898 H4922 0.950 . S
C4899 C4916 1.574 . S
C4899 C4918 1.368 . S
C4899 H4923 0.949 . S
H4900 C4904 0.949 . S
C4901 C4902 1.349 . S
C4901 C4903 1.327 . S
C4901 H4924 0.950 . S
C4902 C4901 1.349 . S
C4902 C4914 1.349 . S
C4903 C4901 1.327 . S
C4903 C4919 1.429 . S
C4903 H4925 0.950 . S
C4904 H4900 0.949 . S
C4904 C4912 1.574 . S
C4904 C4920 1.368 . S
H4905 C4913 0.950 . S
H4906 C4911 0.950 . S
H4907 C4912 0.949 . S
H4908 C4914 0.950 . S
H4909 C4915 0.950 . S
H4910 C4916 0.949 . S
C4911 H4906 0.950 . S
C4911 C4913 1.327 . S
C4911 C4917 1.429 . S
C4912 C4904 1.574 . S
C4912 H4907 0.949 . S
C4912 C4918 1.368 . S
C4913 C4897 1.349 . S
C4913 H4905 0.950 . S
C4913 C4911 1.327 . S
C4914 C4902 1.349 . S
C4914 H4908 0.950 . S
C4914 C4915 1.327 . S
C4915 H4909 0.950 . S
C4915 C4914 1.327 . S
C4915 C4919 1.429 . S
C4916 C4899 1.574 . S
C4916 H4910 0.949 . S
C4916 C4920 1.368 . S
C4917 C4898 1.429 . S
C4917 C4911 1.429 . S
C4917 C4918 1.523 . S
C4918 C4899 1.368 . S
C4918 C4912 1.368 . S
C4918 C4917 1.523 . S
C4919 C4903 1.429 . S
C4919 C4915 1.429 . S
C4919 C4920 1.523 . S
C4920 C4904 1.368 . S
C4920 C4916 1.368 . S
C4920 C4919 1.523 . S
H4921 C4896 0.950 . S
H4922 C4898 0.950 . S
H4923 C4899 0.949 . S
H4924 C4901 0.950 . S
H4925 C4903 0.950 . S
C4926 C4927 1.349 . S
C4926 C4928 1.327 . S
C4926 H4951 0.950 . S
C4927 C4926 1.349 . S
C4927 C4943 1.349 . S
C4928 C4926 1.327 . S
C4928 C4947 1.429 . S
C4928 H4952 0.950 . S
C4929 C4946 1.574 . S
C4929 C4948 1.368 . S
C4929 H4953 0.949 . S
H4930 C4934 0.949 . S
C4931 C4932 1.349 . S
C4931 C4933 1.327 . S
C4931 H4954 0.950 . S
C4932 C4931 1.349 . S
C4932 C4944 1.349 . S
C4933 C4931 1.327 . S
C4933 C4949 1.429 . S
C4933 H4955 0.950 . S
C4934 H4930 0.949 . S
C4934 C4942 1.574 . S
C4934 C4950 1.368 . S
H4935 C4943 0.950 . S
H4936 C4941 0.950 . S
H4937 C4942 0.949 . S
H4938 C4944 0.950 . S
H4939 C4945 0.950 . S
H4940 C4946 0.949 . S
C4941 H4936 0.950 . S
C4941 C4943 1.327 . S
C4941 C4947 1.429 . S
C4942 C4934 1.574 . S
C4942 H4937 0.949 . S
C4942 C4948 1.368 . S
C4943 C4927 1.349 . S
C4943 H4935 0.950 . S
C4943 C4941 1.327 . S
C4944 C4932 1.349 . S
C4944 H4938 0.950 . S
C4944 C4945 1.327 . S
C4945 H4939 0.950 . S
C4945 C4944 1.327 . S
C4945 C4949 1.429 . S
C4946 C4929 1.574 . S
C4946 H4940 0.949 . S
C4946 C4950 1.368 . S
C4947 C4928 1.429 . S
C4947 C4941 1.429 . S
C4947 C4948 1.523 . S
C4948 C4929 1.368 . S
C4948 C4942 1.368 . S
C4948 C4947 1.523 . S
C4949 C4933 1.429 . S
C4949 C4945 1.429 . S
C4949 C4950 1.523 . S
C4950 C4934 1.368 . S
C4950 C4946 1.368 . S
C4950 C4949 1.523 . S
H4951 C4926 0.950 . S
H4952 C4928 0.950 . S
H4953 C4929 0.949 . S
H4954 C4931 0.950 . S
H4955 C4933 0.950 . S
C4956 C4957 1.349 . S
C4956 C4958 1.327 . S
C4956 H4981 0.950 . S
C4957 C4956 1.349 . S
C4957 C4973 1.349 . S
C4958 C4956 1.327 . S
C4958 C4977 1.429 . S
C4958 H4982 0.950 . S
C4959 C4976 1.574 . S
C4959 C4978 1.368 . S
C4959 H4983 0.949 . S
H4960 C4964 0.949 . S
C4961 C4962 1.349 . S
C4961 C4963 1.327 . S
C4961 H4984 0.950 . S
C4962 C4961 1.349 . S
C4962 C4974 1.349 . S
C4963 C4961 1.327 . S
C4963 C4979 1.429 . S
C4963 H4985 0.950 . S
C4964 H4960 0.949 . S
C4964 C4972 1.574 . S
C4964 C4980 1.368 . S
H4965 C4973 0.950 . S
H4966 C4971 0.950 . S
H4967 C4972 0.949 . S
H4968 C4974 0.950 . S
H4969 C4975 0.950 . S
H4970 C4976 0.949 . S
C4971 H4966 0.950 . S
C4971 C4973 1.327 . S
C4971 C4977 1.429 . S
C4972 C4964 1.574 . S
C4972 H4967 0.949 . S
C4972 C4978 1.368 . S
C4973 C4957 1.349 . S
C4973 H4965 0.950 . S
C4973 C4971 1.327 . S
C4974 C4962 1.349 . S
C4974 H4968 0.950 . S
C4974 C4975 1.327 . S
C4975 H4969 0.950 . S
C4975 C4974 1.327 . S
C4975 C4979 1.429 . S
C4976 C4959 1.574 . S
C4976 H4970 0.949 . S
C4976 C4980 1.368 . S
C4977 C4958 1.429 . S
C4977 C4971 1.429 . S
C4977 C4978 1.523 . S
C4978 C4959 1.368 . S
C4978 C4972 1.368 . S
C4978 C4977 1.523 . S
C4979 C4963 1.429 . S
C4979 C4975 1.429 . S
C4979 C4980 1.523 . S
C4980 C4964 1.368 . S
C4980 C4976 1.368 . S
C4980 C4979 1.523 . S
H4981 C4956 0.950 . S
H4982 C4958 0.950 . S
H4983 C4959 0.949 . S
H4984 C4961 0.950 . S
H4985 C4963 0.950 . S
C4986 C4987 1.349 . S
C4986 C4988 1.327 . S
C4986 H5011 0.950 . S
C4987 C4986 1.349 . S
C4987 C5003 1.349 . S
C4988 C4986 1.327 . S
C4988 C5007 1.429 . S
C4988 H5012 0.950 . S
C4989 C5006 1.574 . S
C4989 C5008 1.368 . S
C4989 H5013 0.949 . S
H4990 C4994 0.949 . S
C4991 C4992 1.349 . S
C4991 C4993 1.327 . S
C4991 H5014 0.950 . S
C4992 C4991 1.349 . S
C4992 C5004 1.349 . S
C4993 C4991 1.327 . S
C4993 C5009 1.429 . S
C4993 H5015 0.950 . S
C4994 H4990 0.949 . S
C4994 C5002 1.574 . S
C4994 C5010 1.368 . S
H4995 C5003 0.950 . S
H4996 C5001 0.950 . S
H4997 C5002 0.949 . S
H4998 C5004 0.950 . S
H4999 C5005 0.950 . S
H5000 C5006 0.949 . S
C5001 H4996 0.950 . S
C5001 C5003 1.327 . S
C5001 C5007 1.429 . S
C5002 C4994 1.574 . S
C5002 H4997 0.949 . S
C5002 C5008 1.368 . S
C5003 C4987 1.349 . S
C5003 H4995 0.950 . S
C5003 C5001 1.327 . S
C5004 C4992 1.349 . S
C5004 H4998 0.950 . S
C5004 C5005 1.327 . S
C5005 H4999 0.950 . S
C5005 C5004 1.327 . S
C5005 C5009 1.429 . S
C5006 C4989 1.574 . S
C5006 H5000 0.949 . S
C5006 C5010 1.368 . S
C5007 C4988 1.429 . S
C5007 C5001 1.429 . S
C5007 C5008 1.523 . S
C5008 C4989 1.368 . S
C5008 C5002 1.368 . S
C5008 C5007 1.523 . S
C5009 C4993 1.429 . S
C5009 C5005 1.429 . S
C5009 C5010 1.523 . S
C5010 C4994 1.368 . S
C5010 C5006 1.368 . S
C5010 C5009 1.523 . S
H5011 C4986 0.950 . S
H5012 C4988 0.950 . S
H5013 C4989 0.949 . S
H5014 C4991 0.950 . S
H5015 C4993 0.950 . S
C5016 C5017 1.349 . S
C5016 C5018 1.327 . S
C5016 H5041 0.950 . S
C5017 C5016 1.349 . S
C5017 C5033 1.349 . S
C5018 C5016 1.327 . S
C5018 C5037 1.429 . S
C5018 H5042 0.950 . S
C5019 C5036 1.574 . S
C5019 C5038 1.368 . S
C5019 H5043 0.949 . S
H5020 C5024 0.949 . S
C5021 C5022 1.349 . S
C5021 C5023 1.327 . S
C5021 H5044 0.950 . S
C5022 C5021 1.349 . S
C5022 C5034 1.349 . S
C5023 C5021 1.327 . S
C5023 C5039 1.429 . S
C5023 H5045 0.950 . S
C5024 H5020 0.949 . S
C5024 C5032 1.574 . S
C5024 C5040 1.368 . S
H5025 C5033 0.950 . S
H5026 C5031 0.950 . S
H5027 C5032 0.949 . S
H5028 C5034 0.950 . S
H5029 C5035 0.950 . S
H5030 C5036 0.949 . S
C5031 H5026 0.950 . S
C5031 C5033 1.327 . S
C5031 C5037 1.429 . S
C5032 C5024 1.574 . S
C5032 H5027 0.949 . S
C5032 C5038 1.368 . S
C5033 C5017 1.349 . S
C5033 H5025 0.950 . S
C5033 C5031 1.327 . S
C5034 C5022 1.349 . S
C5034 H5028 0.950 . S
C5034 C5035 1.327 . S
C5035 H5029 0.950 . S
C5035 C5034 1.327 . S
C5035 C5039 1.429 . S
C5036 C5019 1.574 . S
C5036 H5030 0.949 . S
C5036 C5040 1.368 . S
C5037 C5018 1.429 . S
C5037 C5031 1.429 . S
C5037 C5038 1.523 . S
C5038 C5019 1.368 . S
C5038 C5032 1.368 . S
C5038 C5037 1.523 . S
C5039 C5023 1.429 . S
C5039 C5035 1.429 . S
C5039 C5040 1.523 . S
C5040 C5024 1.368 . S
C5040 C5036 1.368 . S
C5040 C5039 1.523 . S
H5041 C5016 0.950 . S
H5042 C5018 0.950 . S
H5043 C5019 0.949 . S
H5044 C5021 0.950 . S
H5045 C5023 0.950 . S
C5046 C5047 1.349 . S
C5046 C5048 1.327 . S
C5046 H5071 0.950 . S
C5047 C5046 1.349 . S
C5047 C5063 1.349 . S
C5048 C5046 1.327 . S
C5048 C5067 1.429 . S
C5048 H5072 0.950 . S
C5049 C5066 1.574 . S
C5049 C5068 1.368 . S
C5049 H5073 0.949 . S
H5050 C5054 0.949 . S
C5051 C5052 1.349 . S
C5051 C5053 1.327 . S
C5051 H5074 0.950 . S
C5052 C5051 1.349 . S
C5052 C5064 1.349 . S
C5053 C5051 1.327 . S
C5053 C5069 1.429 . S
C5053 H5075 0.950 . S
C5054 H5050 0.949 . S
C5054 C5062 1.574 . S
C5054 C5070 1.368 . S
H5055 C5063 0.950 . S
H5056 C5061 0.950 . S
H5057 C5062 0.949 . S
H5058 C5064 0.950 . S
H5059 C5065 0.950 . S
H5060 C5066 0.949 . S
C5061 H5056 0.950 . S
C5061 C5063 1.327 . S
C5061 C5067 1.429 . S
C5062 C5054 1.574 . S
C5062 H5057 0.949 . S
C5062 C5068 1.368 . S
C5063 C5047 1.349 . S
C5063 H5055 0.950 . S
C5063 C5061 1.327 . S
C5064 C5052 1.349 . S
C5064 H5058 0.950 . S
C5064 C5065 1.327 . S
C5065 H5059 0.950 . S
C5065 C5064 1.327 . S
C5065 C5069 1.429 . S
C5066 C5049 1.574 . S
C5066 H5060 0.949 . S
C5066 C5070 1.368 . S
C5067 C5048 1.429 . S
C5067 C5061 1.429 . S
C5067 C5068 1.523 . S
C5068 C5049 1.368 . S
C5068 C5062 1.368 . S
C5068 C5067 1.523 . S
C5069 C5053 1.429 . S
C5069 C5065 1.429 . S
C5069 C5070 1.523 . S
C5070 C5054 1.368 . S
C5070 C5066 1.368 . S
C5070 C5069 1.523 . S
H5071 C5046 0.950 . S
H5072 C5048 0.950 . S
H5073 C5049 0.949 . S
H5074 C5051 0.950 . S
H5075 C5053 0.950 . S
C5076 C5077 1.349 . S
C5076 C5078 1.327 . S
C5076 H5101 0.950 . S
C5077 C5076 1.349 . S
C5077 C5093 1.349 . S
C5078 C5076 1.327 . S
C5078 C5097 1.429 . S
C5078 H5102 0.950 . S
C5079 C5096 1.574 . S
C5079 C5098 1.368 . S
C5079 H5103 0.949 . S
H5080 C5084 0.949 . S
C5081 C5082 1.349 . S
C5081 C5083 1.327 . S
C5081 H5104 0.950 . S
C5082 C5081 1.349 . S
C5082 C5094 1.349 . S
C5083 C5081 1.327 . S
C5083 C5099 1.429 . S
C5083 H5105 0.950 . S
C5084 H5080 0.949 . S
C5084 C5092 1.574 . S
C5084 C5100 1.368 . S
H5085 C5093 0.950 . S
H5086 C5091 0.950 . S
H5087 C5092 0.949 . S
H5088 C5094 0.950 . S
H5089 C5095 0.950 . S
H5090 C5096 0.949 . S
C5091 H5086 0.950 . S
C5091 C5093 1.327 . S
C5091 C5097 1.429 . S
C5092 C5084 1.574 . S
C5092 H5087 0.949 . S
C5092 C5098 1.368 . S
C5093 C5077 1.349 . S
C5093 H5085 0.950 . S
C5093 C5091 1.327 . S
C5094 C5082 1.349 . S
C5094 H5088 0.950 . S
C5094 C5095 1.327 . S
C5095 H5089 0.950 . S
C5095 C5094 1.327 . S
C5095 C5099 1.429 . S
C5096 C5079 1.574 . S
C5096 H5090 0.949 . S
C5096 C5100 1.368 . S
C5097 C5078 1.429 . S
C5097 C5091 1.429 . S
C5097 C5098 1.523 . S
C5098 C5079 1.368 . S
C5098 C5092 1.368 . S
C5098 C5097 1.523 . S
C5099 C5083 1.429 . S
C5099 C5095 1.429 . S
C5099 C5100 1.523 . S
C5100 C5084 1.368 . S
C5100 C5096 1.368 . S
C5100 C5099 1.523 . S
H5101 C5076 0.950 . S
H5102 C5078 0.950 . S
H5103 C5079 0.949 . S
H5104 C5081 0.950 . S
H5105 C5083 0.950 . S
C5106 C5107 1.349 . S
C5106 C5108 1.327 . S
C5106 H5131 0.950 . S
C5107 C5106 1.349 . S
C5107 C5123 1.349 . S
C5108 C5106 1.327 . S
C5108 C5127 1.429 . S
C5108 H5132 0.950 . S
C5109 C5126 1.574 . S
C5109 C5128 1.368 . S
C5109 H5133 0.949 . S
H5110 C5114 0.949 . S
C5111 C5112 1.349 . S
C5111 C5113 1.327 . S
C5111 H5134 0.950 . S
C5112 C5111 1.349 . S
C5112 C5124 1.349 . S
C5113 C5111 1.327 . S
C5113 C5129 1.429 . S
C5113 H5135 0.950 . S
C5114 H5110 0.949 . S
C5114 C5122 1.574 . S
C5114 C5130 1.368 . S
H5115 C5123 0.950 . S
H5116 C5121 0.950 . S
H5117 C5122 0.949 . S
H5118 C5124 0.950 . S
H5119 C5125 0.950 . S
H5120 C5126 0.949 . S
C5121 H5116 0.950 . S
C5121 C5123 1.327 . S
C5121 C5127 1.429 . S
C5122 C5114 1.574 . S
C5122 H5117 0.949 . S
C5122 C5128 1.368 . S
C5123 C5107 1.349 . S
C5123 H5115 0.950 . S
C5123 C5121 1.327 . S
C5124 C5112 1.349 . S
C5124 H5118 0.950 . S
C5124 C5125 1.327 . S
C5125 H5119 0.950 . S
C5125 C5124 1.327 . S
C5125 C5129 1.429 . S
C5126 C5109 1.574 . S
C5126 H5120 0.949 . S
C5126 C5130 1.368 . S
C5127 C5108 1.429 . S
C5127 C5121 1.429 . S
C5127 C5128 1.523 . S
C5128 C5109 1.368 . S
C5128 C5122 1.368 . S
C5128 C5127 1.523 . S
C5129 C5113 1.429 . S
C5129 C5125 1.429 . S
C5129 C5130 1.523 . S
C5130 C5114 1.368 . S
C5130 C5126 1.368 . S
C5130 C5129 1.523 . S
H5131 C5106 0.950 . S
H5132 C5108 0.950 . S
H5133 C5109 0.949 . S
H5134 C5111 0.950 . S
H5135 C5113 0.950 . S
C5136 C5137 1.349 . S
C5136 C5138 1.327 . S
C5136 H5161 0.950 . S
C5137 C5136 1.349 . S
C5137 C5153 1.349 . S
C5138 C5136 1.327 . S
C5138 C5157 1.429 . S
C5138 H5162 0.950 . S
C5139 C5156 1.574 . S
C5139 C5158 1.368 . S
C5139 H5163 0.949 . S
H5140 C5144 0.949 . S
C5141 C5142 1.349 . S
C5141 C5143 1.327 . S
C5141 H5164 0.950 . S
C5142 C5141 1.349 . S
C5142 C5154 1.349 . S
C5143 C5141 1.327 . S
C5143 C5159 1.429 . S
C5143 H5165 0.950 . S
C5144 H5140 0.949 . S
C5144 C5152 1.574 . S
C5144 C5160 1.368 . S
H5145 C5153 0.950 . S
H5146 C5151 0.950 . S
H5147 C5152 0.949 . S
H5148 C5154 0.950 . S
H5149 C5155 0.950 . S
H5150 C5156 0.949 . S
C5151 H5146 0.950 . S
C5151 C5153 1.327 . S
C5151 C5157 1.429 . S
C5152 C5144 1.574 . S
C5152 H5147 0.949 . S
C5152 C5158 1.368 . S
C5153 C5137 1.349 . S
C5153 H5145 0.950 . S
C5153 C5151 1.327 . S
C5154 C5142 1.349 . S
C5154 H5148 0.950 . S
C5154 C5155 1.327 . S
C5155 H5149 0.950 . S
C5155 C5154 1.327 . S
C5155 C5159 1.429 . S
C5156 C5139 1.574 . S
C5156 H5150 0.949 . S
C5156 C5160 1.368 . S
C5157 C5138 1.429 . S
C5157 C5151 1.429 . S
C5157 C5158 1.523 . S
C5158 C5139 1.368 . S
C5158 C5152 1.368 . S
C5158 C5157 1.523 . S
C5159 C5143 1.429 . S
C5159 C5155 1.429 . S
C5159 C5160 1.523 . S
C5160 C5144 1.368 . S
C5160 C5156 1.368 . S
C5160 C5159 1.523 . S
H5161 C5136 0.950 . S
H5162 C5138 0.950 . S
H5163 C5139 0.949 . S
H5164 C5141 0.950 . S
H5165 C5143 0.950 . S
C5166 C5167 1.349 . S
C5166 C5168 1.327 . S
C5166 H5191 0.950 . S
C5167 C5166 1.349 . S
C5167 C5183 1.349 . S
C5168 C5166 1.327 . S
C5168 C5187 1.429 . S
C5168 H5192 0.950 . S
C5169 C5186 1.574 . S
C5169 C5188 1.368 . S
C5169 H5193 0.949 . S
H5170 C5174 0.949 . S
C5171 C5172 1.349 . S
C5171 C5173 1.327 . S
C5171 H5194 0.950 . S
C5172 C5171 1.349 . S
C5172 C5184 1.349 . S
C5173 C5171 1.327 . S
C5173 C5189 1.429 . S
C5173 H5195 0.950 . S
C5174 H5170 0.949 . S
C5174 C5182 1.574 . S
C5174 C5190 1.368 . S
H5175 C5183 0.950 . S
H5176 C5181 0.950 . S
H5177 C5182 0.949 . S
H5178 C5184 0.950 . S
H5179 C5185 0.950 . S
H5180 C5186 0.949 . S
C5181 H5176 0.950 . S
C5181 C5183 1.327 . S
C5181 C5187 1.429 . S
C5182 C5174 1.574 . S
C5182 H5177 0.949 . S
C5182 C5188 1.368 . S
C5183 C5167 1.349 . S
C5183 H5175 0.950 . S
C5183 C5181 1.327 . S
C5184 C5172 1.349 . S
C5184 H5178 0.950 . S
C5184 C5185 1.327 . S
C5185 H5179 0.950 . S
C5185 C5184 1.327 . S
C5185 C5189 1.429 . S
C5186 C5169 1.574 . S
C5186 H5180 0.949 . S
C5186 C5190 1.368 . S
C5187 C5168 1.429 . S
C5187 C5181 1.429 . S
C5187 C5188 1.523 . S
C5188 C5169 1.368 . S
C5188 C5182 1.368 . S
C5188 C5187 1.523 . S
C5189 C5173 1.429 . S
C5189 C5185 1.429 . S
C5189 C5190 1.523 . S
C5190 C5174 1.368 . S
C5190 C5186 1.368 . S
C5190 C5189 1.523 . S
H5191 C5166 0.950 . S
H5192 C5168 0.950 . S
H5193 C5169 0.949 . S
H5194 C5171 0.950 . S
H5195 C5173 0.950 . S
C5196 C5197 1.349 . S
C5196 C5198 1.327 . S
C5196 H5221 0.950 . S
C5197 C5196 1.349 . S
C5197 C5213 1.349 . S
C5198 C5196 1.327 . S
C5198 C5217 1.429 . S
C5198 H5222 0.950 . S
C5199 C5216 1.574 . S
C5199 C5218 1.368 . S
C5199 H5223 0.949 . S
H5200 C5204 0.949 . S
C5201 C5202 1.349 . S
C5201 C5203 1.327 . S
C5201 H5224 0.950 . S
C5202 C5201 1.349 . S
C5202 C5214 1.349 . S
C5203 C5201 1.327 . S
C5203 C5219 1.429 . S
C5203 H5225 0.950 . S
C5204 H5200 0.949 . S
C5204 C5212 1.574 . S
C5204 C5220 1.368 . S
H5205 C5213 0.950 . S
H5206 C5211 0.950 . S
H5207 C5212 0.949 . S
H5208 C5214 0.950 . S
H5209 C5215 0.950 . S
H5210 C5216 0.949 . S
C5211 H5206 0.950 . S
C5211 C5213 1.327 . S
C5211 C5217 1.429 . S
C5212 C5204 1.574 . S
C5212 H5207 0.949 . S
C5212 C5218 1.368 . S
C5213 C5197 1.349 . S
C5213 H5205 0.950 . S
C5213 C5211 1.327 . S
C5214 C5202 1.349 . S
C5214 H5208 0.950 . S
C5214 C5215 1.327 . S
C5215 H5209 0.950 . S
C5215 C5214 1.327 . S
C5215 C5219 1.429 . S
C5216 C5199 1.574 . S
C5216 H5210 0.949 . S
C5216 C5220 1.368 . S
C5217 C5198 1.429 . S
C5217 C5211 1.429 . S
C5217 C5218 1.523 . S
C5218 C5199 1.368 . S
C5218 C5212 1.368 . S
C5218 C5217 1.523 . S
C5219 C5203 1.429 . S
C5219 C5215 1.429 . S
C5219 C5220 1.523 . S
C5220 C5204 1.368 . S
C5220 C5216 1.368 . S
C5220 C5219 1.523 . S
H5221 C5196 0.950 . S
H5222 C5198 0.950 . S
H5223 C5199 0.949 . S
H5224 C5201 0.950 . S
H5225 C5203 0.950 . S
C5226 C5227 1.349 . S
C5226 C5228 1.327 . S
C5226 H5251 0.950 . S
C5227 C5226 1.349 . S
C5227 C5243 1.349 . S
C5228 C5226 1.327 . S
C5228 C5247 1.429 . S
C5228 H5252 0.950 . S
C5229 C5246 1.574 . S
C5229 C5248 1.368 . S
C5229 H5253 0.949 . S
H5230 C5234 0.949 . S
C5231 C5232 1.349 . S
C5231 C5233 1.327 . S
C5231 H5254 0.950 . S
C5232 C5231 1.349 . S
C5232 C5244 1.349 . S
C5233 C5231 1.327 . S
C5233 C5249 1.429 . S
C5233 H5255 0.950 . S
C5234 H5230 0.949 . S
C5234 C5242 1.574 . S
C5234 C5250 1.368 . S
H5235 C5243 0.950 . S
H5236 C5241 0.950 . S
H5237 C5242 0.949 . S
H5238 C5244 0.950 . S
H5239 C5245 0.950 . S
H5240 C5246 0.949 . S
C5241 H5236 0.950 . S
C5241 C5243 1.327 . S
C5241 C5247 1.429 . S
C5242 C5234 1.574 . S
C5242 H5237 0.949 . S
C5242 C5248 1.368 . S
C5243 C5227 1.349 . S
C5243 H5235 0.950 . S
C5243 C5241 1.327 . S
C5244 C5232 1.349 . S
C5244 H5238 0.950 . S
C5244 C5245 1.327 . S
C5245 H5239 0.950 . S
C5245 C5244 1.327 . S
C5245 C5249 1.429 . S
C5246 C5229 1.574 . S
C5246 H5240 0.949 . S
C5246 C5250 1.368 . S
C5247 C5228 1.429 . S
C5247 C5241 1.429 . S
C5247 C5248 1.523 . S
C5248 C5229 1.368 . S
C5248 C5242 1.368 . S
C5248 C5247 1.523 . S
C5249 C5233 1.429 . S
C5249 C5245 1.429 . S
C5249 C5250 1.523 . S
C5250 C5234 1.368 . S
C5250 C5246 1.368 . S
C5250 C5249 1.523 . S
H5251 C5226 0.950 . S
H5252 C5228 0.950 . S
H5253 C5229 0.949 . S
H5254 C5231 0.950 . S
H5255 C5233 0.950 . S
C5256 C5257 1.349 . S
C5256 C5258 1.327 . S
C5256 H5281 0.950 . S
C5257 C5256 1.349 . S
C5257 C5273 1.349 . S
C5258 C5256 1.327 . S
C5258 C5277 1.429 . S
C5258 H5282 0.950 . S
C5259 C5276 1.574 . S
C5259 C5278 1.368 . S
C5259 H5283 0.949 . S
H5260 C5264 0.949 . S
C5261 C5262 1.349 . S
C5261 C5263 1.327 . S
C5261 H5284 0.950 . S
C5262 C5261 1.349 . S
C5262 C5274 1.349 . S
C5263 C5261 1.327 . S
C5263 C5279 1.429 . S
C5263 H5285 0.950 . S
C5264 H5260 0.949 . S
C5264 C5272 1.574 . S
C5264 C5280 1.368 . S
H5265 C5273 0.950 . S
H5266 C5271 0.950 . S
H5267 C5272 0.949 . S
H5268 C5274 0.950 . S
H5269 C5275 0.950 . S
H5270 C5276 0.949 . S
C5271 H5266 0.950 . S
C5271 C5273 1.327 . S
C5271 C5277 1.429 . S
C5272 C5264 1.574 . S
C5272 H5267 0.949 . S
C5272 C5278 1.368 . S
C5273 C5257 1.349 . S
C5273 H5265 0.950 . S
C5273 C5271 1.327 . S
C5274 C5262 1.349 . S
C5274 H5268 0.950 . S
C5274 C5275 1.327 . S
C5275 H5269 0.950 . S
C5275 C5274 1.327 . S
C5275 C5279 1.429 . S
C5276 C5259 1.574 . S
C5276 H5270 0.949 . S
C5276 C5280 1.368 . S
C5277 C5258 1.429 . S
C5277 C5271 1.429 . S
C5277 C5278 1.523 . S
C5278 C5259 1.368 . S
C5278 C5272 1.368 . S
C5278 C5277 1.523 . S
C5279 C5263 1.429 . S
C5279 C5275 1.429 . S
C5279 C5280 1.523 . S
C5280 C5264 1.368 . S
C5280 C5276 1.368 . S
C5280 C5279 1.523 . S
H5281 C5256 0.950 . S
H5282 C5258 0.950 . S
H5283 C5259 0.949 . S
H5284 C5261 0.950 . S
H5285 C5263 0.950 . S
C5286 C5287 1.349 . S
C5286 C5288 1.327 . S
C5286 H5311 0.950 . S
C5287 C5286 1.349 . S
C5287 C5303 1.349 . S
C5288 C5286 1.327 . S
C5288 C5307 1.429 . S
C5288 H5312 0.950 . S
C5289 C5306 1.574 . S
C5289 C5308 1.368 . S
C5289 H5313 0.949 . S
H5290 C5294 0.949 . S
C5291 C5292 1.349 . S
C5291 C5293 1.327 . S
C5291 H5314 0.950 . S
C5292 C5291 1.349 . S
C5292 C5304 1.349 . S
C5293 C5291 1.327 . S
C5293 C5309 1.429 . S
C5293 H5315 0.950 . S
C5294 H5290 0.949 . S
C5294 C5302 1.574 . S
C5294 C5310 1.368 . S
H5295 C5303 0.950 . S
H5296 C5301 0.950 . S
H5297 C5302 0.949 . S
H5298 C5304 0.950 . S
H5299 C5305 0.950 . S
H5300 C5306 0.949 . S
C5301 H5296 0.950 . S
C5301 C5303 1.327 . S
C5301 C5307 1.429 . S
C5302 C5294 1.574 . S
C5302 H5297 0.949 . S
C5302 C5308 1.368 . S
C5303 C5287 1.349 . S
C5303 H5295 0.950 . S
C5303 C5301 1.327 . S
C5304 C5292 1.349 . S
C5304 H5298 0.950 . S
C5304 C5305 1.327 . S
C5305 H5299 0.950 . S
C5305 C5304 1.327 . S
C5305 C5309 1.429 . S
C5306 C5289 1.574 . S
C5306 H5300 0.949 . S
C5306 C5310 1.368 . S
C5307 C5288 1.429 . S
C5307 C5301 1.429 . S
C5307 C5308 1.523 . S
C5308 C5289 1.368 . S
C5308 C5302 1.368 . S
C5308 C5307 1.523 . S
C5309 C5293 1.429 . S
C5309 C5305 1.429 . S
C5309 C5310 1.523 . S
C5310 C5294 1.368 . S
C5310 C5306 1.368 . S
C5310 C5309 1.523 . S
H5311 C5286 0.950 . S
H5312 C5288 0.950 . S
H5313 C5289 0.949 . S
H5314 C5291 0.950 . S
H5315 C5293 0.950 . S
C5316 C5317 1.349 . S
C5316 C5318 1.327 . S
C5316 H5341 0.950 . S
C5317 C5316 1.349 . S
C5317 C5333 1.349 . S
C5318 C5316 1.327 . S
C5318 C5337 1.429 . S
C5318 H5342 0.950 . S
C5319 C5336 1.574 . S
C5319 C5338 1.368 . S
C5319 H5343 0.949 . S
H5320 C5324 0.949 . S
C5321 C5322 1.349 . S
C5321 C5323 1.327 . S
C5321 H5344 0.950 . S
C5322 C5321 1.349 . S
C5322 C5334 1.349 . S
C5323 C5321 1.327 . S
C5323 C5339 1.429 . S
C5323 H5345 0.950 . S
C5324 H5320 0.949 . S
C5324 C5332 1.574 . S
C5324 C5340 1.368 . S
H5325 C5333 0.950 . S
H5326 C5331 0.950 . S
H5327 C5332 0.949 . S
H5328 C5334 0.950 . S
H5329 C5335 0.950 . S
H5330 C5336 0.949 . S
C5331 H5326 0.950 . S
C5331 C5333 1.327 . S
C5331 C5337 1.429 . S
C5332 C5324 1.574 . S
C5332 H5327 0.949 . S
C5332 C5338 1.368 . S
C5333 C5317 1.349 . S
C5333 H5325 0.950 . S
C5333 C5331 1.327 . S
C5334 C5322 1.349 . S
C5334 H5328 0.950 . S
C5334 C5335 1.327 . S
C5335 H5329 0.950 . S
C5335 C5334 1.327 . S
C5335 C5339 1.429 . S
C5336 C5319 1.574 . S
C5336 H5330 0.949 . S
C5336 C5340 1.368 . S
C5337 C5318 1.429 . S
C5337 C5331 1.429 . S
C5337 C5338 1.523 . S
C5338 C5319 1.368 . S
C5338 C5332 1.368 . S
C5338 C5337 1.523 . S
C5339 C5323 1.429 . S
C5339 C5335 1.429 . S
C5339 C5340 1.523 . S
C5340 C5324 1.368 . S
C5340 C5336 1.368 . S
C5340 C5339 1.523 . S
H5341 C5316 0.950 . S
H5342 C5318 0.950 . S
H5343 C5319 0.949 . S
H5344 C5321 0.950 . S
H5345 C5323 0.950 . S
C5346 C5347 1.349 . S
C5346 C5348 1.327 . S
C5346 H5371 0.950 . S
C5347 C5346 1.349 . S
C5347 C5363 1.349 . S
C5348 C5346 1.327 . S
C5348 C5367 1.429 . S
C5348 H5372 0.950 . S
C5349 C5366 1.574 . S
C5349 C5368 1.368 . S
C5349 H5373 0.949 . S
H5350 C5354 0.949 . S
C5351 C5352 1.349 . S
C5351 C5353 1.327 . S
C5351 H5374 0.950 . S
C5352 C5351 1.349 . S
C5352 C5364 1.349 . S
C5353 C5351 1.327 . S
C5353 C5369 1.429 . S
C5353 H5375 0.950 . S
C5354 H5350 0.949 . S
C5354 C5362 1.574 . S
C5354 C5370 1.368 . S
H5355 C5363 0.950 . S
H5356 C5361 0.950 . S
H5357 C5362 0.949 . S
H5358 C5364 0.950 . S
H5359 C5365 0.950 . S
H5360 C5366 0.949 . S
C5361 H5356 0.950 . S
C5361 C5363 1.327 . S
C5361 C5367 1.429 . S
C5362 C5354 1.574 . S
C5362 H5357 0.949 . S
C5362 C5368 1.368 . S
C5363 C5347 1.349 . S
C5363 H5355 0.950 . S
C5363 C5361 1.327 . S
C5364 C5352 1.349 . S
C5364 H5358 0.950 . S
C5364 C5365 1.327 . S
C5365 H5359 0.950 . S
C5365 C5364 1.327 . S
C5365 C5369 1.429 . S
C5366 C5349 1.574 . S
C5366 H5360 0.949 . S
C5366 C5370 1.368 . S
C5367 C5348 1.429 . S
C5367 C5361 1.429 . S
C5367 C5368 1.523 . S
C5368 C5349 1.368 . S
C5368 C5362 1.368 . S
C5368 C5367 1.523 . S
C5369 C5353 1.429 . S
C5369 C5365 1.429 . S
C5369 C5370 1.523 . S
C5370 C5354 1.368 . S
C5370 C5366 1.368 . S
C5370 C5369 1.523 . S
H5371 C5346 0.950 . S
H5372 C5348 0.950 . S
H5373 C5349 0.949 . S
H5374 C5351 0.950 . S
H5375 C5353 0.950 . S
C5376 C5377 1.349 . S
C5376 C5378 1.327 . S
C5376 H5401 0.950 . S
C5377 C5376 1.349 . S
C5377 C5393 1.349 . S
C5378 C5376 1.327 . S
C5378 C5397 1.429 . S
C5378 H5402 0.950 . S
C5379 C5396 1.574 . S
C5379 C5398 1.368 . S
C5379 H5403 0.949 . S
H5380 C5384 0.949 . S
C5381 C5382 1.349 . S
C5381 C5383 1.327 . S
C5381 H5404 0.950 . S
C5382 C5381 1.349 . S
C5382 C5394 1.349 . S
C5383 C5381 1.327 . S
C5383 C5399 1.429 . S
C5383 H5405 0.950 . S
C5384 H5380 0.949 . S
C5384 C5392 1.574 . S
C5384 C5400 1.368 . S
H5385 C5393 0.950 . S
H5386 C5391 0.950 . S
H5387 C5392 0.949 . S
H5388 C5394 0.950 . S
H5389 C5395 0.950 . S
H5390 C5396 0.949 . S
C5391 H5386 0.950 . S
C5391 C5393 1.327 . S
C5391 C5397 1.429 . S
C5392 C5384 1.574 . S
C5392 H5387 0.949 . S
C5392 C5398 1.368 . S
C5393 C5377 1.349 . S
C5393 H5385 0.950 . S
C5393 C5391 1.327 . S
C5394 C5382 1.349 . S
C5394 H5388 0.950 . S
C5394 C5395 1.327 . S
C5395 H5389 0.950 . S
C5395 C5394 1.327 . S
C5395 C5399 1.429 . S
C5396 C5379 1.574 . S
C5396 H5390 0.949 . S
C5396 C5400 1.368 . S
C5397 C5378 1.429 . S
C5397 C5391 1.429 . S
C5397 C5398 1.523 . S
C5398 C5379 1.368 . S
C5398 C5392 1.368 . S
C5398 C5397 1.523 . S
C5399 C5383 1.429 . S
C5399 C5395 1.429 . S
C5399 C5400 1.523 . S
C5400 C5384 1.368 . S
C5400 C5396 1.368 . S
C5400 C5399 1.523 . S
H5401 C5376 0.950 . S
H5402 C5378 0.950 . S
H5403 C5379 0.949 . S
H5404 C5381 0.950 . S
H5405 C5383 0.950 . S
C5406 C5407 1.349 . S
C5406 C5408 1.327 . S
C5406 H5431 0.950 . S
C5407 C5406 1.349 . S
C5407 C5423 1.349 . S
C5408 C5406 1.327 . S
C5408 C5427 1.429 . S
C5408 H5432 0.950 . S
C5409 C5426 1.574 . S
C5409 C5428 1.368 . S
C5409 H5433 0.949 . S
H5410 C5414 0.949 . S
C5411 C5412 1.349 . S
C5411 C5413 1.327 . S
C5411 H5434 0.950 . S
C5412 C5411 1.349 . S
C5412 C5424 1.349 . S
C5413 C5411 1.327 . S
C5413 C5429 1.429 . S
C5413 H5435 0.950 . S
C5414 H5410 0.949 . S
C5414 C5422 1.574 . S
C5414 C5430 1.368 . S
H5415 C5423 0.950 . S
H5416 C5421 0.950 . S
H5417 C5422 0.949 . S
H5418 C5424 0.950 . S
H5419 C5425 0.950 . S
H5420 C5426 0.949 . S
C5421 H5416 0.950 . S
C5421 C5423 1.327 . S
C5421 C5427 1.429 . S
C5422 C5414 1.574 . S
C5422 H5417 0.949 . S
C5422 C5428 1.368 . S
C5423 C5407 1.349 . S
C5423 H5415 0.950 . S
C5423 C5421 1.327 . S
C5424 C5412 1.349 . S
C5424 H5418 0.950 . S
C5424 C5425 1.327 . S
C5425 H5419 0.950 . S
C5425 C5424 1.327 . S
C5425 C5429 1.429 . S
C5426 C5409 1.574 . S
C5426 H5420 0.949 . S
C5426 C5430 1.368 . S
C5427 C5408 1.429 . S
C5427 C5421 1.429 . S
C5427 C5428 1.523 . S
C5428 C5409 1.368 . S
C5428 C5422 1.368 . S
C5428 C5427 1.523 . S
C5429 C5413 1.429 . S
C5429 C5425 1.429 . S
C5429 C5430 1.523 . S
C5430 C5414 1.368 . S
C5430 C5426 1.368 . S
C5430 C5429 1.523 . S
H5431 C5406 0.950 . S
H5432 C5408 0.950 . S
H5433 C5409 0.949 . S
H5434 C5411 0.950 . S
H5435 C5413 0.950 . S
C5436 C5437 1.349 . S
C5436 C5438 1.327 . S
C5436 H5461 0.950 . S
C5437 C5436 1.349 . S
C5437 C5453 1.349 . S
C5438 C5436 1.327 . S
C5438 C5457 1.429 . S
C5438 H5462 0.950 . S
C5439 C5456 1.574 . S
C5439 C5458 1.368 . S
C5439 H5463 0.949 . S
H5440 C5444 0.949 . S
C5441 C5442 1.349 . S
C5441 C5443 1.327 . S
C5441 H5464 0.950 . S
C5442 C5441 1.349 . S
C5442 C5454 1.349 . S
C5443 C5441 1.327 . S
C5443 C5459 1.429 . S
C5443 H5465 0.950 . S
C5444 H5440 0.949 . S
C5444 C5452 1.574 . S
C5444 C5460 1.368 . S
H5445 C5453 0.950 . S
H5446 C5451 0.950 . S
H5447 C5452 0.949 . S
H5448 C5454 0.950 . S
H5449 C5455 0.950 . S
H5450 C5456 0.949 . S
C5451 H5446 0.950 . S
C5451 C5453 1.327 . S
C5451 C5457 1.429 . S
C5452 C5444 1.574 . S
C5452 H5447 0.949 . S
C5452 C5458 1.368 . S
C5453 C5437 1.349 . S
C5453 H5445 0.950 . S
C5453 C5451 1.327 . S
C5454 C5442 1.349 . S
C5454 H5448 0.950 . S
C5454 C5455 1.327 . S
C5455 H5449 0.950 . S
C5455 C5454 1.327 . S
C5455 C5459 1.429 . S
C5456 C5439 1.574 . S
C5456 H5450 0.949 . S
C5456 C5460 1.368 . S
C5457 C5438 1.429 . S
C5457 C5451 1.429 . S
C5457 C5458 1.523 . S
C5458 C5439 1.368 . S
C5458 C5452 1.368 . S
C5458 C5457 1.523 . S
C5459 C5443 1.429 . S
C5459 C5455 1.429 . S
C5459 C5460 1.523 . S
C5460 C5444 1.368 . S
C5460 C5456 1.368 . S
C5460 C5459 1.523 . S
H5461 C5436 0.950 . S
H5462 C5438 0.950 . S
H5463 C5439 0.949 . S
H5464 C5441 0.950 . S
H5465 C5443 0.950 . S
C5466 C5467 1.349 . S
C5466 C5468 1.327 . S
C5466 H5491 0.950 . S
C5467 C5466 1.349 . S
C5467 C5483 1.349 . S
C5468 C5466 1.327 . S
C5468 C5487 1.429 . S
C5468 H5492 0.950 . S
C5469 C5486 1.574 . S
C5469 C5488 1.368 . S
C5469 H5493 0.949 . S
H5470 C5474 0.949 . S
C5471 C5472 1.349 . S
C5471 C5473 1.327 . S
C5471 H5494 0.950 . S
C5472 C5471 1.349 . S
C5472 C5484 1.349 . S
C5473 C5471 1.327 . S
C5473 C5489 1.429 . S
C5473 H5495 0.950 . S
C5474 H5470 0.949 . S
C5474 C5482 1.574 . S
C5474 C5490 1.368 . S
H5475 C5483 0.950 . S
H5476 C5481 0.950 . S
H5477 C5482 0.949 . S
H5478 C5484 0.950 . S
H5479 C5485 0.950 . S
H5480 C5486 0.949 . S
C5481 H5476 0.950 . S
C5481 C5483 1.327 . S
C5481 C5487 1.429 . S
C5482 C5474 1.574 . S
C5482 H5477 0.949 . S
C5482 C5488 1.368 . S
C5483 C5467 1.349 . S
C5483 H5475 0.950 . S
C5483 C5481 1.327 . S
C5484 C5472 1.349 . S
C5484 H5478 0.950 . S
C5484 C5485 1.327 . S
C5485 H5479 0.950 . S
C5485 C5484 1.327 . S
C5485 C5489 1.429 . S
C5486 C5469 1.574 . S
C5486 H5480 0.949 . S
C5486 C5490 1.368 . S
C5487 C5468 1.429 . S
C5487 C5481 1.429 . S
C5487 C5488 1.523 . S
C5488 C5469 1.368 . S
C5488 C5482 1.368 . S
C5488 C5487 1.523 . S
C5489 C5473 1.429 . S
C5489 C5485 1.429 . S
C5489 C5490 1.523 . S
C5490 C5474 1.368 . S
C5490 C5486 1.368 . S
C5490 C5489 1.523 . S
H5491 C5466 0.950 . S
H5492 C5468 0.950 . S
H5493 C5469 0.949 . S
H5494 C5471 0.950 . S
H5495 C5473 0.950 . S
C5496 C5497 1.349 . S
C5496 C5498 1.327 . S
C5496 H5521 0.950 . S
C5497 C5496 1.349 . S
C5497 C5513 1.349 . S
C5498 C5496 1.327 . S
C5498 C5517 1.429 . S
C5498 H5522 0.950 . S
C5499 C5516 1.574 . S
C5499 C5518 1.368 . S
C5499 H5523 0.949 . S
H5500 C5504 0.949 . S
C5501 C5502 1.349 . S
C5501 C5503 1.327 . S
C5501 H5524 0.950 . S
C5502 C5501 1.349 . S
C5502 C5514 1.349 . S
C5503 C5501 1.327 . S
C5503 C5519 1.429 . S
C5503 H5525 0.950 . S
C5504 H5500 0.949 . S
C5504 C5512 1.574 . S
C5504 C5520 1.368 . S
H5505 C5513 0.950 . S
H5506 C5511 0.950 . S
H5507 C5512 0.949 . S
H5508 C5514 0.950 . S
H5509 C5515 0.950 . S
H5510 C5516 0.949 . S
C5511 H5506 0.950 . S
C5511 C5513 1.327 . S
C5511 C5517 1.429 . S
C5512 C5504 1.574 . S
C5512 H5507 0.949 . S
C5512 C5518 1.368 . S
C5513 C5497 1.349 . S
C5513 H5505 0.950 . S
C5513 C5511 1.327 . S
C5514 C5502 1.349 . S
C5514 H5508 0.950 . S
C5514 C5515 1.327 . S
C5515 H5509 0.950 . S
C5515 C5514 1.327 . S
C5515 C5519 1.429 . S
C5516 C5499 1.574 . S
C5516 H5510 0.949 . S
C5516 C5520 1.368 . S
C5517 C5498 1.429 . S
C5517 C5511 1.429 . S
C5517 C5518 1.523 . S
C5518 C5499 1.368 . S
C5518 C5512 1.368 . S
C5518 C5517 1.523 . S
C5519 C5503 1.429 . S
C5519 C5515 1.429 . S
C5519 C5520 1.523 . S
C5520 C5504 1.368 . S
C5520 C5516 1.368 . S
C5520 C5519 1.523 . S
H5521 C5496 0.950 . S
H5522 C5498 0.950 . S
H5523 C5499 0.949 . S
H5524 C5501 0.950 . S
H5525 C5503 0.950 . S
C5526 C5527 1.349 . S
C5526 C5528 1.327 . S
C5526 H5551 0.950 . S
C5527 C5526 1.349 . S
C5527 C5543 1.349 . S
C5528 C5526 1.327 . S
C5528 C5547 1.429 . S
C5528 H5552 0.950 . S
C5529 C5546 1.574 . S
C5529 C5548 1.368 . S
C5529 H5553 0.949 . S
H5530 C5534 0.949 . S
C5531 C5532 1.349 . S
C5531 C5533 1.327 . S
C5531 H5554 0.950 . S
C5532 C5531 1.349 . S
C5532 C5544 1.349 . S
C5533 C5531 1.327 . S
C5533 C5549 1.429 . S
C5533 H5555 0.950 . S
C5534 H5530 0.949 . S
C5534 C5542 1.574 . S
C5534 C5550 1.368 . S
H5535 C5543 0.950 . S
H5536 C5541 0.950 . S
H5537 C5542 0.949 . S
H5538 C5544 0.950 . S
H5539 C5545 0.950 . S
H5540 C5546 0.949 . S
C5541 H5536 0.950 . S
C5541 C5543 1.327 . S
C5541 C5547 1.429 . S
C5542 C5534 1.574 . S
C5542 H5537 0.949 . S
C5542 C5548 1.368 . S
C5543 C5527 1.349 . S
C5543 H5535 0.950 . S
C5543 C5541 1.327 . S
C5544 C5532 1.349 . S
C5544 H5538 0.950 . S
C5544 C5545 1.327 . S
C5545 H5539 0.950 . S
C5545 C5544 1.327 . S
C5545 C5549 1.429 . S
C5546 C5529 1.574 . S
C5546 H5540 0.949 . S
C5546 C5550 1.368 . S
C5547 C5528 1.429 . S
C5547 C5541 1.429 . S
C5547 C5548 1.523 . S
C5548 C5529 1.368 . S
C5548 C5542 1.368 . S
C5548 C5547 1.523 . S
C5549 C5533 1.429 . S
C5549 C5545 1.429 . S
C5549 C5550 1.523 . S
C5550 C5534 1.368 . S
C5550 C5546 1.368 . S
C5550 C5549 1.523 . S
H5551 C5526 0.950 . S
H5552 C5528 0.950 . S
H5553 C5529 0.949 . S
H5554 C5531 0.950 . S
H5555 C5533 0.950 . S
C5556 C5557 1.349 . S
C5556 C5558 1.327 . S
C5556 H5581 0.950 . S
C5557 C5556 1.349 . S
C5557 C5573 1.349 . S
C5558 C5556 1.327 . S
C5558 C5577 1.429 . S
C5558 H5582 0.950 . S
C5559 C5576 1.574 . S
C5559 C5578 1.368 . S
C5559 H5583 0.949 . S
H5560 C5564 0.949 . S
C5561 C5562 1.349 . S
C5561 C5563 1.327 . S
C5561 H5584 0.950 . S
C5562 C5561 1.349 . S
C5562 C5574 1.349 . S
C5563 C5561 1.327 . S
C5563 C5579 1.429 . S
C5563 H5585 0.950 . S
C5564 H5560 0.949 . S
C5564 C5572 1.574 . S
C5564 C5580 1.368 . S
H5565 C5573 0.950 . S
H5566 C5571 0.950 . S
H5567 C5572 0.949 . S
H5568 C5574 0.950 . S
H5569 C5575 0.950 . S
H5570 C5576 0.949 . S
C5571 H5566 0.950 . S
C5571 C5573 1.327 . S
C5571 C5577 1.429 . S
C5572 C5564 1.574 . S
C5572 H5567 0.949 . S
C5572 C5578 1.368 . S
C5573 C5557 1.349 . S
C5573 H5565 0.950 . S
C5573 C5571 1.327 . S
C5574 C5562 1.349 . S
C5574 H5568 0.950 . S
C5574 C5575 1.327 . S
C5575 H5569 0.950 . S
C5575 C5574 1.327 . S
C5575 C5579 1.429 . S
C5576 C5559 1.574 . S
C5576 H5570 0.949 . S
C5576 C5580 1.368 . S
C5577 C5558 1.429 . S
C5577 C5571 1.429 . S
C5577 C5578 1.523 . S
C5578 C5559 1.368 . S
C5578 C5572 1.368 . S
C5578 C5577 1.523 . S
C5579 C5563 1.429 . S
C5579 C5575 1.429 . S
C5579 C5580 1.523 . S
C5580 C5564 1.368 . S
C5580 C5576 1.368 . S
C5580 C5579 1.523 . S
H5581 C5556 0.950 . S
H5582 C5558 0.950 . S
H5583 C5559 0.949 . S
H5584 C5561 0.950 . S
H5585 C5563 0.950 . S
C5586 C5587 1.349 . S
C5586 C5588 1.327 . S
C5586 H5611 0.950 . S
C5587 C5586 1.349 . S
C5587 C5603 1.349 . S
C5588 C5586 1.327 . S
C5588 C5607 1.429 . S
C5588 H5612 0.950 . S
C5589 C5606 1.574 . S
C5589 C5608 1.368 . S
C5589 H5613 0.949 . S
H5590 C5594 0.949 . S
C5591 C5592 1.349 . S
C5591 C5593 1.327 . S
C5591 H5614 0.950 . S
C5592 C5591 1.349 . S
C5592 C5604 1.349 . S
C5593 C5591 1.327 . S
C5593 C5609 1.429 . S
C5593 H5615 0.950 . S
C5594 H5590 0.949 . S
C5594 C5602 1.574 . S
C5594 C5610 1.368 . S
H5595 C5603 0.950 . S
H5596 C5601 0.950 . S
H5597 C5602 0.949 . S
H5598 C5604 0.950 . S
H5599 C5605 0.950 . S
H5600 C5606 0.949 . S
C5601 H5596 0.950 . S
C5601 C5603 1.327 . S
C5601 C5607 1.429 . S
C5602 C5594 1.574 . S
C5602 H5597 0.949 . S
C5602 C5608 1.368 . S
C5603 C5587 1.349 . S
C5603 H5595 0.950 . S
C5603 C5601 1.327 . S
C5604 C5592 1.349 . S
C5604 H5598 0.950 . S
C5604 C5605 1.327 . S
C5605 H5599 0.950 . S
C5605 C5604 1.327 . S
C5605 C5609 1.429 . S
C5606 C5589 1.574 . S
C5606 H5600 0.949 . S
C5606 C5610 1.368 . S
C5607 C5588 1.429 . S
C5607 C5601 1.429 . S
C5607 C5608 1.523 . S
C5608 C5589 1.368 . S
C5608 C5602 1.368 . S
C5608 C5607 1.523 . S
C5609 C5593 1.429 . S
C5609 C5605 1.429 . S
C5609 C5610 1.523 . S
C5610 C5594 1.368 . S
C5610 C5606 1.368 . S
C5610 C5609 1.523 . S
H5611 C5586 0.950 . S
H5612 C5588 0.950 . S
H5613 C5589 0.949 . S
H5614 C5591 0.950 . S
H5615 C5593 0.950 . S
C5616 C5617 1.349 . S
C5616 C5618 1.327 . S
C5616 H5641 0.950 . S
C5617 C5616 1.349 . S
C5617 C5633 1.349 . S
C5618 C5616 1.327 . S
C5618 C5637 1.429 . S
C5618 H5642 0.950 . S
C5619 C5636 1.574 . S
C5619 C5638 1.368 . S
C5619 H5643 0.949 . S
H5620 C5624 0.949 . S
C5621 C5622 1.349 . S
C5621 C5623 1.327 . S
C5621 H5644 0.950 . S
C5622 C5621 1.349 . S
C5622 C5634 1.349 . S
C5623 C5621 1.327 . S
C5623 C5639 1.429 . S
C5623 H5645 0.950 . S
C5624 H5620 0.949 . S
C5624 C5632 1.574 . S
C5624 C5640 1.368 . S
H5625 C5633 0.950 . S
H5626 C5631 0.950 . S
H5627 C5632 0.949 . S
H5628 C5634 0.950 . S
H5629 C5635 0.950 . S
H5630 C5636 0.949 . S
C5631 H5626 0.950 . S
C5631 C5633 1.327 . S
C5631 C5637 1.429 . S
C5632 C5624 1.574 . S
C5632 H5627 0.949 . S
C5632 C5638 1.368 . S
C5633 C5617 1.349 . S
C5633 H5625 0.950 . S
C5633 C5631 1.327 . S
C5634 C5622 1.349 . S
C5634 H5628 0.950 . S
C5634 C5635 1.327 . S
C5635 H5629 0.950 . S
C5635 C5634 1.327 . S
C5635 C5639 1.429 . S
C5636 C5619 1.574 . S
C5636 H5630 0.949 . S
C5636 C5640 1.368 . S
C5637 C5618 1.429 . S
C5637 C5631 1.429 . S
C5637 C5638 1.523 . S
C5638 C5619 1.368 . S
C5638 C5632 1.368 . S
C5638 C5637 1.523 . S
C5639 C5623 1.429 . S
C5639 C5635 1.429 . S
C5639 C5640 1.523 . S
C5640 C5624 1.368 . S
C5640 C5636 1.368 . S
C5640 C5639 1.523 . S
H5641 C5616 0.950 . S
H5642 C5618 0.950 . S
H5643 C5619 0.949 . S
H5644 C5621 0.950 . S
H5645 C5623 0.950 . S
C5646 C5647 1.349 . S
C5646 C5648 1.327 . S
C5646 H5671 0.950 . S
C5647 C5646 1.349 . S
C5647 C5663 1.349 . S
C5648 C5646 1.327 . S
C5648 C5667 1.429 . S
C5648 H5672 0.950 . S
C5649 C5666 1.574 . S
C5649 C5668 1.368 . S
C5649 H5673 0.949 . S
H5650 C5654 0.949 . S
C5651 C5652 1.349 . S
C5651 C5653 1.327 . S
C5651 H5674 0.950 . S
C5652 C5651 1.349 . S
C5652 C5664 1.349 . S
C5653 C5651 1.327 . S
C5653 C5669 1.429 . S
C5653 H5675 0.950 . S
C5654 H5650 0.949 . S
C5654 C5662 1.574 . S
C5654 C5670 1.368 . S
H5655 C5663 0.950 . S
H5656 C5661 0.950 . S
H5657 C5662 0.949 . S
H5658 C5664 0.950 . S
H5659 C5665 0.950 . S
H5660 C5666 0.949 . S
C5661 H5656 0.950 . S
C5661 C5663 1.327 . S
C5661 C5667 1.429 . S
C5662 C5654 1.574 . S
C5662 H5657 0.949 . S
C5662 C5668 1.368 . S
C5663 C5647 1.349 . S
C5663 H5655 0.950 . S
C5663 C5661 1.327 . S
C5664 C5652 1.349 . S
C5664 H5658 0.950 . S
C5664 C5665 1.327 . S
C5665 H5659 0.950 . S
C5665 C5664 1.327 . S
C5665 C5669 1.429 . S
C5666 C5649 1.574 . S
C5666 H5660 0.949 . S
C5666 C5670 1.368 . S
C5667 C5648 1.429 . S
C5667 C5661 1.429 . S
C5667 C5668 1.523 . S
C5668 C5649 1.368 . S
C5668 C5662 1.368 . S
C5668 C5667 1.523 . S
C5669 C5653 1.429 . S
C5669 C5665 1.429 . S
C5669 C5670 1.523 . S
C5670 C5654 1.368 . S
C5670 C5666 1.368 . S
C5670 C5669 1.523 . S
H5671 C5646 0.950 . S
H5672 C5648 0.950 . S
H5673 C5649 0.949 . S
H5674 C5651 0.950 . S
H5675 C5653 0.950 . S
C5676 C5677 1.349 . S
C5676 C5678 1.327 . S
C5676 H5701 0.950 . S
C5677 C5676 1.349 . S
C5677 C5693 1.349 . S
C5678 C5676 1.327 . S
C5678 C5697 1.429 . S
C5678 H5702 0.950 . S
C5679 C5696 1.574 . S
C5679 C5698 1.368 . S
C5679 H5703 0.949 . S
H5680 C5684 0.949 . S
C5681 C5682 1.349 . S
C5681 C5683 1.327 . S
C5681 H5704 0.950 . S
C5682 C5681 1.349 . S
C5682 C5694 1.349 . S
C5683 C5681 1.327 . S
C5683 C5699 1.429 . S
C5683 H5705 0.950 . S
C5684 H5680 0.949 . S
C5684 C5692 1.574 . S
C5684 C5700 1.368 . S
H5685 C5693 0.950 . S
H5686 C5691 0.950 . S
H5687 C5692 0.949 . S
H5688 C5694 0.950 . S
H5689 C5695 0.950 . S
H5690 C5696 0.949 . S
C5691 H5686 0.950 . S
C5691 C5693 1.327 . S
C5691 C5697 1.429 . S
C5692 C5684 1.574 . S
C5692 H5687 0.949 . S
C5692 C5698 1.368 . S
C5693 C5677 1.349 . S
C5693 H5685 0.950 . S
C5693 C5691 1.327 . S
C5694 C5682 1.349 . S
C5694 H5688 0.950 . S
C5694 C5695 1.327 . S
C5695 H5689 0.950 . S
C5695 C5694 1.327 . S
C5695 C5699 1.429 . S
C5696 C5679 1.574 . S
C5696 H5690 0.949 . S
C5696 C5700 1.368 . S
C5697 C5678 1.429 . S
C5697 C5691 1.429 . S
C5697 C5698 1.523 . S
C5698 C5679 1.368 . S
C5698 C5692 1.368 . S
C5698 C5697 1.523 . S
C5699 C5683 1.429 . S
C5699 C5695 1.429 . S
C5699 C5700 1.523 . S
C5700 C5684 1.368 . S
C5700 C5696 1.368 . S
C5700 C5699 1.523 . S
H5701 C5676 0.950 . S
H5702 C5678 0.950 . S
H5703 C5679 0.949 . S
H5704 C5681 0.950 . S
H5705 C5683 0.950 . S
C5706 C5707 1.349 . S
C5706 C5708 1.327 . S
C5706 H5731 0.950 . S
C5707 C5706 1.349 . S
C5707 C5723 1.349 . S
C5708 C5706 1.327 . S
C5708 C5727 1.429 . S
C5708 H5732 0.950 . S
C5709 C5726 1.574 . S
C5709 C5728 1.368 . S
C5709 H5733 0.949 . S
H5710 C5714 0.949 . S
C5711 C5712 1.349 . S
C5711 C5713 1.327 . S
C5711 H5734 0.950 . S
C5712 C5711 1.349 . S
C5712 C5724 1.349 . S
C5713 C5711 1.327 . S
C5713 C5729 1.429 . S
C5713 H5735 0.950 . S
C5714 H5710 0.949 . S
C5714 C5722 1.574 . S
C5714 C5730 1.368 . S
H5715 C5723 0.950 . S
H5716 C5721 0.950 . S
H5717 C5722 0.949 . S
H5718 C5724 0.950 . S
H5719 C5725 0.950 . S
H5720 C5726 0.949 . S
C5721 H5716 0.950 . S
C5721 C5723 1.327 . S
C5721 C5727 1.429 . S
C5722 C5714 1.574 . S
C5722 H5717 0.949 . S
C5722 C5728 1.368 . S
C5723 C5707 1.349 . S
C5723 H5715 0.950 . S
C5723 C5721 1.327 . S
C5724 C5712 1.349 . S
C5724 H5718 0.950 . S
C5724 C5725 1.327 . S
C5725 H5719 0.950 . S
C5725 C5724 1.327 . S
C5725 C5729 1.429 . S
C5726 C5709 1.574 . S
C5726 H5720 0.949 . S
C5726 C5730 1.368 . S
C5727 C5708 1.429 . S
C5727 C5721 1.429 . S
C5727 C5728 1.523 . S
C5728 C5709 1.368 . S
C5728 C5722 1.368 . S
C5728 C5727 1.523 . S
C5729 C5713 1.429 . S
C5729 C5725 1.429 . S
C5729 C5730 1.523 . S
C5730 C5714 1.368 . S
C5730 C5726 1.368 . S
C5730 C5729 1.523 . S
H5731 C5706 0.950 . S
H5732 C5708 0.950 . S
H5733 C5709 0.949 . S
H5734 C5711 0.950 . S
H5735 C5713 0.950 . S
C5736 C5737 1.349 . S
C5736 C5738 1.327 . S
C5736 H5761 0.950 . S
C5737 C5736 1.349 . S
C5737 C5753 1.349 . S
C5738 C5736 1.327 . S
C5738 C5757 1.429 . S
C5738 H5762 0.950 . S
C5739 C5756 1.574 . S
C5739 C5758 1.368 . S
C5739 H5763 0.949 . S
H5740 C5744 0.949 . S
C5741 C5742 1.349 . S
C5741 C5743 1.327 . S
C5741 H5764 0.950 . S
C5742 C5741 1.349 . S
C5742 C5754 1.349 . S
C5743 C5741 1.327 . S
C5743 C5759 1.429 . S
C5743 H5765 0.950 . S
C5744 H5740 0.949 . S
C5744 C5752 1.574 . S
C5744 C5760 1.368 . S
H5745 C5753 0.950 . S
H5746 C5751 0.950 . S
H5747 C5752 0.949 . S
H5748 C5754 0.950 . S
H5749 C5755 0.950 . S
H5750 C5756 0.949 . S
C5751 H5746 0.950 . S
C5751 C5753 1.327 . S
C5751 C5757 1.429 . S
C5752 C5744 1.574 . S
C5752 H5747 0.949 . S
C5752 C5758 1.368 . S
C5753 C5737 1.349 . S
C5753 H5745 0.950 . S
C5753 C5751 1.327 . S
C5754 C5742 1.349 . S
C5754 H5748 0.950 . S
C5754 C5755 1.327 . S
C5755 H5749 0.950 . S
C5755 C5754 1.327 . S
C5755 C5759 1.429 . S
C5756 C5739 1.574 . S
C5756 H5750 0.949 . S
C5756 C5760 1.368 . S
C5757 C5738 1.429 . S
C5757 C5751 1.429 . S
C5757 C5758 1.523 . S
C5758 C5739 1.368 . S
C5758 C5752 1.368 . S
C5758 C5757 1.523 . S
C5759 C5743 1.429 . S
C5759 C5755 1.429 . S
C5759 C5760 1.523 . S
C5760 C5744 1.368 . S
C5760 C5756 1.368 . S
C5760 C5759 1.523 . S
H5761 C5736 0.950 . S
H5762 C5738 0.950 . S
H5763 C5739 0.949 . S
H5764 C5741 0.950 . S
H5765 C5743 0.950 . S
C5766 C5767 1.349 . S
C5766 C5768 1.327 . S
C5766 H5791 0.950 . S
C5767 C5766 1.349 . S
C5767 C5783 1.349 . S
C5768 C5766 1.327 . S
C5768 C5787 1.429 . S
C5768 H5792 0.950 . S
C5769 C5786 1.574 . S
C5769 C5788 1.368 . S
C5769 H5793 0.949 . S
H5770 C5774 0.949 . S
C5771 C5772 1.349 . S
C5771 C5773 1.327 . S
C5771 H5794 0.950 . S
C5772 C5771 1.349 . S
C5772 C5784 1.349 . S
C5773 C5771 1.327 . S
C5773 C5789 1.429 . S
C5773 H5795 0.950 . S
C5774 H5770 0.949 . S
C5774 C5782 1.574 . S
C5774 C5790 1.368 . S
H5775 C5783 0.950 . S
H5776 C5781 0.950 . S
H5777 C5782 0.949 . S
H5778 C5784 0.950 . S
H5779 C5785 0.950 . S
H5780 C5786 0.949 . S
C5781 H5776 0.950 . S
C5781 C5783 1.327 . S
C5781 C5787 1.429 . S
C5782 C5774 1.574 . S
C5782 H5777 0.949 . S
C5782 C5788 1.368 . S
C5783 C5767 1.349 . S
C5783 H5775 0.950 . S
C5783 C5781 1.327 . S
C5784 C5772 1.349 . S
C5784 H5778 0.950 . S
C5784 C5785 1.327 . S
C5785 H5779 0.950 . S
C5785 C5784 1.327 . S
C5785 C5789 1.429 . S
C5786 C5769 1.574 . S
C5786 H5780 0.949 . S
C5786 C5790 1.368 . S
C5787 C5768 1.429 . S
C5787 C5781 1.429 . S
C5787 C5788 1.523 . S
C5788 C5769 1.368 . S
C5788 C5782 1.368 . S
C5788 C5787 1.523 . S
C5789 C5773 1.429 . S
C5789 C5785 1.429 . S
C5789 C5790 1.523 . S
C5790 C5774 1.368 . S
C5790 C5786 1.368 . S
C5790 C5789 1.523 . S
H5791 C5766 0.950 . S
H5792 C5768 0.950 . S
H5793 C5769 0.949 . S
H5794 C5771 0.950 . S
H5795 C5773 0.950 . S
C5796 C5797 1.349 . S
C5796 C5798 1.327 . S
C5796 H5821 0.950 . S
C5797 C5796 1.349 . S
C5797 C5813 1.349 . S
C5798 C5796 1.327 . S
C5798 C5817 1.429 . S
C5798 H5822 0.950 . S
C5799 C5816 1.574 . S
C5799 C5818 1.368 . S
C5799 H5823 0.949 . S
H5800 C5804 0.949 . S
C5801 C5802 1.349 . S
C5801 C5803 1.327 . S
C5801 H5824 0.950 . S
C5802 C5801 1.349 . S
C5802 C5814 1.349 . S
C5803 C5801 1.327 . S
C5803 C5819 1.429 . S
C5803 H5825 0.950 . S
C5804 H5800 0.949 . S
C5804 C5812 1.574 . S
C5804 C5820 1.368 . S
H5805 C5813 0.950 . S
H5806 C5811 0.950 . S
H5807 C5812 0.949 . S
H5808 C5814 0.950 . S
H5809 C5815 0.950 . S
H5810 C5816 0.949 . S
C5811 H5806 0.950 . S
C5811 C5813 1.327 . S
C5811 C5817 1.429 . S
C5812 C5804 1.574 . S
C5812 H5807 0.949 . S
C5812 C5818 1.368 . S
C5813 C5797 1.349 . S
C5813 H5805 0.950 . S
C5813 C5811 1.327 . S
C5814 C5802 1.349 . S
C5814 H5808 0.950 . S
C5814 C5815 1.327 . S
C5815 H5809 0.950 . S
C5815 C5814 1.327 . S
C5815 C5819 1.429 . S
C5816 C5799 1.574 . S
C5816 H5810 0.949 . S
C5816 C5820 1.368 . S
C5817 C5798 1.429 . S
C5817 C5811 1.429 . S
C5817 C5818 1.523 . S
C5818 C5799 1.368 . S
C5818 C5812 1.368 . S
C5818 C5817 1.523 . S
C5819 C5803 1.429 . S
C5819 C5815 1.429 . S
C5819 C5820 1.523 . S
C5820 C5804 1.368 . S
C5820 C5816 1.368 . S
C5820 C5819 1.523 . S
H5821 C5796 0.950 . S
H5822 C5798 0.950 . S
H5823 C5799 0.949 . S
H5824 C5801 0.950 . S
H5825 C5803 0.950 . S
C5826 C5827 1.349 . S
C5826 C5828 1.327 . S
C5826 H5851 0.950 . S
C5827 C5826 1.349 . S
C5827 C5843 1.349 . S
C5828 C5826 1.327 . S
C5828 C5847 1.429 . S
C5828 H5852 0.950 . S
C5829 C5846 1.574 . S
C5829 C5848 1.368 . S
C5829 H5853 0.949 . S
H5830 C5834 0.949 . S
C5831 C5832 1.349 . S
C5831 C5833 1.327 . S
C5831 H5854 0.950 . S
C5832 C5831 1.349 . S
C5832 C5844 1.349 . S
C5833 C5831 1.327 . S
C5833 C5849 1.429 . S
C5833 H5855 0.950 . S
C5834 H5830 0.949 . S
C5834 C5842 1.574 . S
C5834 C5850 1.368 . S
H5835 C5843 0.950 . S
H5836 C5841 0.950 . S
H5837 C5842 0.949 . S
H5838 C5844 0.950 . S
H5839 C5845 0.950 . S
H5840 C5846 0.949 . S
C5841 H5836 0.950 . S
C5841 C5843 1.327 . S
C5841 C5847 1.429 . S
C5842 C5834 1.574 . S
C5842 H5837 0.949 . S
C5842 C5848 1.368 . S
C5843 C5827 1.349 . S
C5843 H5835 0.950 . S
C5843 C5841 1.327 . S
C5844 C5832 1.349 . S
C5844 H5838 0.950 . S
C5844 C5845 1.327 . S
C5845 H5839 0.950 . S
C5845 C5844 1.327 . S
C5845 C5849 1.429 . S
C5846 C5829 1.574 . S
C5846 H5840 0.949 . S
C5846 C5850 1.368 . S
C5847 C5828 1.429 . S
C5847 C5841 1.429 . S
C5847 C5848 1.523 . S
C5848 C5829 1.368 . S
C5848 C5842 1.368 . S
C5848 C5847 1.523 . S
C5849 C5833 1.429 . S
C5849 C5845 1.429 . S
C5849 C5850 1.523 . S
C5850 C5834 1.368 . S
C5850 C5846 1.368 . S
C5850 C5849 1.523 . S
H5851 C5826 0.950 . S
H5852 C5828 0.950 . S
H5853 C5829 0.949 . S
H5854 C5831 0.950 . S
H5855 C5833 0.950 . S
C5856 C5857 1.349 . S
C5856 C5858 1.327 . S
C5856 H5881 0.950 . S
C5857 C5856 1.349 . S
C5857 C5873 1.349 . S
C5858 C5856 1.327 . S
C5858 C5877 1.429 . S
C5858 H5882 0.950 . S
C5859 C5876 1.574 . S
C5859 C5878 1.368 . S
C5859 H5883 0.949 . S
H5860 C5864 0.949 . S
C5861 C5862 1.349 . S
C5861 C5863 1.327 . S
C5861 H5884 0.950 . S
C5862 C5861 1.349 . S
C5862 C5874 1.349 . S
C5863 C5861 1.327 . S
C5863 C5879 1.429 . S
C5863 H5885 0.950 . S
C5864 H5860 0.949 . S
C5864 C5872 1.574 . S
C5864 C5880 1.368 . S
H5865 C5873 0.950 . S
H5866 C5871 0.950 . S
H5867 C5872 0.949 . S
H5868 C5874 0.950 . S
H5869 C5875 0.950 . S
H5870 C5876 0.949 . S
C5871 H5866 0.950 . S
C5871 C5873 1.327 . S
C5871 C5877 1.429 . S
C5872 C5864 1.574 . S
C5872 H5867 0.949 . S
C5872 C5878 1.368 . S
C5873 C5857 1.349 . S
C5873 H5865 0.950 . S
C5873 C5871 1.327 . S
C5874 C5862 1.349 . S
C5874 H5868 0.950 . S
C5874 C5875 1.327 . S
C5875 H5869 0.950 . S
C5875 C5874 1.327 . S
C5875 C5879 1.429 . S
C5876 C5859 1.574 . S
C5876 H5870 0.949 . S
C5876 C5880 1.368 . S
C5877 C5858 1.429 . S
C5877 C5871 1.429 . S
C5877 C5878 1.523 . S
C5878 C5859 1.368 . S
C5878 C5872 1.368 . S
C5878 C5877 1.523 . S
C5879 C5863 1.429 . S
C5879 C5875 1.429 . S
C5879 C5880 1.523 . S
C5880 C5864 1.368 . S
C5880 C5876 1.368 . S
C5880 C5879 1.523 . S
H5881 C5856 0.950 . S
H5882 C5858 0.950 . S
H5883 C5859 0.949 . S
H5884 C5861 0.950 . S
H5885 C5863 0.950 . S
C5886 C5887 1.349 . S
C5886 C5888 1.327 . S
C5886 H5911 0.950 . S
C5887 C5886 1.349 . S
C5887 C5903 1.349 . S
C5888 C5886 1.327 . S
C5888 C5907 1.429 . S
C5888 H5912 0.950 . S
C5889 C5906 1.574 . S
C5889 C5908 1.368 . S
C5889 H5913 0.949 . S
H5890 C5894 0.949 . S
C5891 C5892 1.349 . S
C5891 C5893 1.327 . S
C5891 H5914 0.950 . S
C5892 C5891 1.349 . S
C5892 C5904 1.349 . S
C5893 C5891 1.327 . S
C5893 C5909 1.429 . S
C5893 H5915 0.950 . S
C5894 H5890 0.949 . S
C5894 C5902 1.574 . S
C5894 C5910 1.368 . S
H5895 C5903 0.950 . S
H5896 C5901 0.950 . S
H5897 C5902 0.949 . S
H5898 C5904 0.950 . S
H5899 C5905 0.950 . S
H5900 C5906 0.949 . S
C5901 H5896 0.950 . S
C5901 C5903 1.327 . S
C5901 C5907 1.429 . S
C5902 C5894 1.574 . S
C5902 H5897 0.949 . S
C5902 C5908 1.368 . S
C5903 C5887 1.349 . S
C5903 H5895 0.950 . S
C5903 C5901 1.327 . S
C5904 C5892 1.349 . S
C5904 H5898 0.950 . S
C5904 C5905 1.327 . S
C5905 H5899 0.950 . S
C5905 C5904 1.327 . S
C5905 C5909 1.429 . S
C5906 C5889 1.574 . S
C5906 H5900 0.949 . S
C5906 C5910 1.368 . S
C5907 C5888 1.429 . S
C5907 C5901 1.429 . S
C5907 C5908 1.523 . S
C5908 C5889 1.368 . S
C5908 C5902 1.368 . S
C5908 C5907 1.523 . S
C5909 C5893 1.429 . S
C5909 C5905 1.429 . S
C5909 C5910 1.523 . S
C5910 C5894 1.368 . S
C5910 C5906 1.368 . S
C5910 C5909 1.523 . S
H5911 C5886 0.950 . S
H5912 C5888 0.950 . S
H5913 C5889 0.949 . S
H5914 C5891 0.950 . S
H5915 C5893 0.950 . S
C5916 C5917 1.349 . S
C5916 C5918 1.327 . S
C5916 H5941 0.950 . S
C5917 C5916 1.349 . S
C5917 C5933 1.349 . S
C5918 C5916 1.327 . S
C5918 C5937 1.429 . S
C5918 H5942 0.950 . S
C5919 C5936 1.574 . S
C5919 C5938 1.368 . S
C5919 H5943 0.949 . S
H5920 C5924 0.949 . S
C5921 C5922 1.349 . S
C5921 C5923 1.327 . S
C5921 H5944 0.950 . S
C5922 C5921 1.349 . S
C5922 C5934 1.349 . S
C5923 C5921 1.327 . S
C5923 C5939 1.429 . S
C5923 H5945 0.950 . S
C5924 H5920 0.949 . S
C5924 C5932 1.574 . S
C5924 C5940 1.368 . S
H5925 C5933 0.950 . S
H5926 C5931 0.950 . S
H5927 C5932 0.949 . S
H5928 C5934 0.950 . S
H5929 C5935 0.950 . S
H5930 C5936 0.949 . S
C5931 H5926 0.950 . S
C5931 C5933 1.327 . S
C5931 C5937 1.429 . S
C5932 C5924 1.574 . S
C5932 H5927 0.949 . S
C5932 C5938 1.368 . S
C5933 C5917 1.349 . S
C5933 H5925 0.950 . S
C5933 C5931 1.327 . S
C5934 C5922 1.349 . S
C5934 H5928 0.950 . S
C5934 C5935 1.327 . S
C5935 H5929 0.950 . S
C5935 C5934 1.327 . S
C5935 C5939 1.429 . S
C5936 C5919 1.574 . S
C5936 H5930 0.949 . S
C5936 C5940 1.368 . S
C5937 C5918 1.429 . S
C5937 C5931 1.429 . S
C5937 C5938 1.523 . S
C5938 C5919 1.368 . S
C5938 C5932 1.368 . S
C5938 C5937 1.523 . S
C5939 C5923 1.429 . S
C5939 C5935 1.429 . S
C5939 C5940 1.523 . S
C5940 C5924 1.368 . S
C5940 C5936 1.368 . S
C5940 C5939 1.523 . S
H5941 C5916 0.950 . S
H5942 C5918 0.950 . S
H5943 C5919 0.949 . S
H5944 C5921 0.950 . S
H5945 C5923 0.950 . S
C5946 C5947 1.349 . S
C5946 C5948 1.327 . S
C5946 H5971 0.950 . S
C5947 C5946 1.349 . S
C5947 C5963 1.349 . S
C5948 C5946 1.327 . S
C5948 C5967 1.429 . S
C5948 H5972 0.950 . S
C5949 C5966 1.574 . S
C5949 C5968 1.368 . S
C5949 H5973 0.949 . S
H5950 C5954 0.949 . S
C5951 C5952 1.349 . S
C5951 C5953 1.327 . S
C5951 H5974 0.950 . S
C5952 C5951 1.349 . S
C5952 C5964 1.349 . S
C5953 C5951 1.327 . S
C5953 C5969 1.429 . S
C5953 H5975 0.950 . S
C5954 H5950 0.949 . S
C5954 C5962 1.574 . S
C5954 C5970 1.368 . S
H5955 C5963 0.950 . S
H5956 C5961 0.950 . S
H5957 C5962 0.949 . S
H5958 C5964 0.950 . S
H5959 C5965 0.950 . S
H5960 C5966 0.949 . S
C5961 H5956 0.950 . S
C5961 C5963 1.327 . S
C5961 C5967 1.429 . S
C5962 C5954 1.574 . S
C5962 H5957 0.949 . S
C5962 C5968 1.368 . S
C5963 C5947 1.349 . S
C5963 H5955 0.950 . S
C5963 C5961 1.327 . S
C5964 C5952 1.349 . S
C5964 H5958 0.950 . S
C5964 C5965 1.327 . S
C5965 H5959 0.950 . S
C5965 C5964 1.327 . S
C5965 C5969 1.429 . S
C5966 C5949 1.574 . S
C5966 H5960 0.949 . S
C5966 C5970 1.368 . S
C5967 C5948 1.429 . S
C5967 C5961 1.429 . S
C5967 C5968 1.523 . S
C5968 C5949 1.368 . S
C5968 C5962 1.368 . S
C5968 C5967 1.523 . S
C5969 C5953 1.429 . S
C5969 C5965 1.429 . S
C5969 C5970 1.523 . S
C5970 C5954 1.368 . S
C5970 C5966 1.368 . S
C5970 C5969 1.523 . S
H5971 C5946 0.950 . S
H5972 C5948 0.950 . S
H5973 C5949 0.949 . S
H5974 C5951 0.950 . S
H5975 C5953 0.950 . S
C5976 C5977 1.349 . S
C5976 C5978 1.327 . S
C5976 H6001 0.950 . S
C5977 C5976 1.349 . S
C5977 C5993 1.349 . S
C5978 C5976 1.327 . S
C5978 C5997 1.429 . S
C5978 H6002 0.950 . S
C5979 C5996 1.574 . S
C5979 C5998 1.368 . S
C5979 H6003 0.949 . S
H5980 C5984 0.949 . S
C5981 C5982 1.349 . S
C5981 C5983 1.327 . S
C5981 H6004 0.950 . S
C5982 C5981 1.349 . S
C5982 C5994 1.349 . S
C5983 C5981 1.327 . S
C5983 C5999 1.429 . S
C5983 H6005 0.950 . S
C5984 H5980 0.949 . S
C5984 C5992 1.574 . S
C5984 C6000 1.368 . S
H5985 C5993 0.950 . S
H5986 C5991 0.950 . S
H5987 C5992 0.949 . S
H5988 C5994 0.950 . S
H5989 C5995 0.950 . S
H5990 C5996 0.949 . S
C5991 H5986 0.950 . S
C5991 C5993 1.327 . S
C5991 C5997 1.429 . S
C5992 C5984 1.574 . S
C5992 H5987 0.949 . S
C5992 C5998 1.368 . S
C5993 C5977 1.349 . S
C5993 H5985 0.950 . S
C5993 C5991 1.327 . S
C5994 C5982 1.349 . S
C5994 H5988 0.950 . S
C5994 C5995 1.327 . S
C5995 H5989 0.950 . S
C5995 C5994 1.327 . S
C5995 C5999 1.429 . S
C5996 C5979 1.574 . S
C5996 H5990 0.949 . S
C5996 C6000 1.368 . S
C5997 C5978 1.429 . S
C5997 C5991 1.429 . S
C5997 C5998 1.523 . S
C5998 C5979 1.368 . S
C5998 C5992 1.368 . S
C5998 C5997 1.523 . S
C5999 C5983 1.429 . S
C5999 C5995 1.429 . S
C5999 C6000 1.523 . S
C6000 C5984 1.368 . S
C6000 C5996 1.368 . S
C6000 C5999 1.523 . S
H6001 C5976 0.950 . S
H6002 C5978 0.950 . S
H6003 C5979 0.949 . S
H6004 C5981 0.950 . S
H6005 C5983 0.950 . S
C6006 C6007 1.349 . S
C6006 C6008 1.327 . S
C6006 H6031 0.950 . S
C6007 C6006 1.349 . S
C6007 C6023 1.349 . S
C6008 C6006 1.327 . S
C6008 C6027 1.429 . S
C6008 H6032 0.950 . S
C6009 C6026 1.574 . S
C6009 C6028 1.368 . S
C6009 H6033 0.949 . S
H6010 C6014 0.949 . S
C6011 C6012 1.349 . S
C6011 C6013 1.327 . S
C6011 H6034 0.950 . S
C6012 C6011 1.349 . S
C6012 C6024 1.349 . S
C6013 C6011 1.327 . S
C6013 C6029 1.429 . S
C6013 H6035 0.950 . S
C6014 H6010 0.949 . S
C6014 C6022 1.574 . S
C6014 C6030 1.368 . S
H6015 C6023 0.950 . S
H6016 C6021 0.950 . S
H6017 C6022 0.949 . S
H6018 C6024 0.950 . S
H6019 C6025 0.950 . S
H6020 C6026 0.949 . S
C6021 H6016 0.950 . S
C6021 C6023 1.327 . S
C6021 C6027 1.429 . S
C6022 C6014 1.574 . S
C6022 H6017 0.949 . S
C6022 C6028 1.368 . S
C6023 C6007 1.349 . S
C6023 H6015 0.950 . S
C6023 C6021 1.327 . S
C6024 C6012 1.349 . S
C6024 H6018 0.950 . S
C6024 C6025 1.327 . S
C6025 H6019 0.950 . S
C6025 C6024 1.327 . S
C6025 C6029 1.429 . S
C6026 C6009 1.574 . S
C6026 H6020 0.949 . S
C6026 C6030 1.368 . S
C6027 C6008 1.429 . S
C6027 C6021 1.429 . S
C6027 C6028 1.523 . S
C6028 C6009 1.368 . S
C6028 C6022 1.368 . S
C6028 C6027 1.523 . S
C6029 C6013 1.429 . S
C6029 C6025 1.429 . S
C6029 C6030 1.523 . S
C6030 C6014 1.368 . S
C6030 C6026 1.368 . S
C6030 C6029 1.523 . S
H6031 C6006 0.950 . S
H6032 C6008 0.950 . S
H6033 C6009 0.949 . S
H6034 C6011 0.950 . S
H6035 C6013 0.950 . S
C6036 C6037 1.349 . S
C6036 C6038 1.327 . S
C6036 H6061 0.950 . S
C6037 C6036 1.349 . S
C6037 C6053 1.349 . S
C6038 C6036 1.327 . S
C6038 C6057 1.429 . S
C6038 H6062 0.950 . S
C6039 C6056 1.574 . S
C6039 C6058 1.368 . S
C6039 H6063 0.949 . S
H6040 C6044 0.949 . S
C6041 C6042 1.349 . S
C6041 C6043 1.327 . S
C6041 H6064 0.950 . S
C6042 C6041 1.349 . S
C6042 C6054 1.349 . S
C6043 C6041 1.327 . S
C6043 C6059 1.429 . S
C6043 H6065 0.950 . S
C6044 H6040 0.949 . S
C6044 C6052 1.574 . S
C6044 C6060 1.368 . S
H6045 C6053 0.950 . S
H6046 C6051 0.950 . S
H6047 C6052 0.949 . S
H6048 C6054 0.950 . S
H6049 C6055 0.950 . S
H6050 C6056 0.949 . S
C6051 H6046 0.950 . S
C6051 C6053 1.327 . S
C6051 C6057 1.429 . S
C6052 C6044 1.574 . S
C6052 H6047 0.949 . S
C6052 C6058 1.368 . S
C6053 C6037 1.349 . S
C6053 H6045 0.950 . S
C6053 C6051 1.327 . S
C6054 C6042 1.349 . S
C6054 H6048 0.950 . S
C6054 C6055 1.327 . S
C6055 H6049 0.950 . S
C6055 C6054 1.327 . S
C6055 C6059 1.429 . S
C6056 C6039 1.574 . S
C6056 H6050 0.949 . S
C6056 C6060 1.368 . S
C6057 C6038 1.429 . S
C6057 C6051 1.429 . S
C6057 C6058 1.523 . S
C6058 C6039 1.368 . S
C6058 C6052 1.368 . S
C6058 C6057 1.523 . S
C6059 C6043 1.429 . S
C6059 C6055 1.429 . S
C6059 C6060 1.523 . S
C6060 C6044 1.368 . S
C6060 C6056 1.368 . S
C6060 C6059 1.523 . S
H6061 C6036 0.950 . S
H6062 C6038 0.950 . S
H6063 C6039 0.949 . S
H6064 C6041 0.950 . S
H6065 C6043 0.950 . S
C6066 C6067 1.349 . S
C6066 C6068 1.327 . S
C6066 H6091 0.950 . S
C6067 C6066 1.349 . S
C6067 C6083 1.349 . S
C6068 C6066 1.327 . S
C6068 C6087 1.429 . S
C6068 H6092 0.950 . S
C6069 C6086 1.574 . S
C6069 C6088 1.368 . S
C6069 H6093 0.949 . S
H6070 C6074 0.949 . S
C6071 C6072 1.349 . S
C6071 C6073 1.327 . S
C6071 H6094 0.950 . S
C6072 C6071 1.349 . S
C6072 C6084 1.349 . S
C6073 C6071 1.327 . S
C6073 C6089 1.429 . S
C6073 H6095 0.950 . S
C6074 H6070 0.949 . S
C6074 C6082 1.574 . S
C6074 C6090 1.368 . S
H6075 C6083 0.950 1_565 S
H6076 C6081 0.950 . S
H6077 C6082 0.949 . S
H6078 C6084 0.950 . S
H6079 C6085 0.950 . S
H6080 C6086 0.949 . S
C6081 H6076 0.950 . S
C6081 C6083 1.327 . S
C6081 C6087 1.429 . S
C6082 C6074 1.574 . S
C6082 H6077 0.949 . S
C6082 C6088 1.368 . S
C6083 C6067 1.349 . S
C6083 H6075 0.950 1_545 S
C6083 C6081 1.327 . S
C6084 C6072 1.349 . S
C6084 H6078 0.950 . S
C6084 C6085 1.327 . S
C6085 H6079 0.950 . S
C6085 C6084 1.327 . S
C6085 C6089 1.429 . S
C6086 C6069 1.574 . S
C6086 H6080 0.949 . S
C6086 C6090 1.368 . S
C6087 C6068 1.429 . S
C6087 C6081 1.429 . S
C6087 C6088 1.523 . S
C6088 C6069 1.368 . S
C6088 C6082 1.368 . S
C6088 C6087 1.523 . S
C6089 C6073 1.429 . S
C6089 C6085 1.429 . S
C6089 C6090 1.523 . S
C6090 C6074 1.368 . S
C6090 C6086 1.368 . S
C6090 C6089 1.523 . S
H6091 C6066 0.950 . S
H6092 C6068 0.950 . S
H6093 C6069 0.949 . S
H6094 C6071 0.950 . S
H6095 C6073 0.950 . S
C6096 C6097 1.349 . S
C6096 C6098 1.327 . S
C6096 H6121 0.950 . S
C6097 C6096 1.349 . S
C6097 C6113 1.349 . S
C6098 C6096 1.327 . S
C6098 C6117 1.429 . S
C6098 H6122 0.950 . S
C6099 C6116 1.574 . S
C6099 C6118 1.368 . S
C6099 H6123 0.949 . S
H6100 C6104 0.949 . S
C6101 C6102 1.349 . S
C6101 C6103 1.327 . S
C6101 H6124 0.950 . S
C6102 C6101 1.349 . S
C6102 C6114 1.349 . S
C6103 C6101 1.327 . S
C6103 C6119 1.429 . S
C6103 H6125 0.950 . S
C6104 H6100 0.949 . S
C6104 C6112 1.574 . S
C6104 C6120 1.368 . S
H6105 C6113 0.950 . S
H6106 C6111 0.950 . S
H6107 C6112 0.949 . S
H6108 C6114 0.950 . S
H6109 C6115 0.950 . S
H6110 C6116 0.949 . S
C6111 H6106 0.950 . S
C6111 C6113 1.327 . S
C6111 C6117 1.429 . S
C6112 C6104 1.574 . S
C6112 H6107 0.949 . S
C6112 C6118 1.368 . S
C6113 C6097 1.349 . S
C6113 H6105 0.950 . S
C6113 C6111 1.327 . S
C6114 C6102 1.349 . S
C6114 H6108 0.950 . S
C6114 C6115 1.327 . S
C6115 H6109 0.950 . S
C6115 C6114 1.327 . S
C6115 C6119 1.429 . S
C6116 C6099 1.574 . S
C6116 H6110 0.949 . S
C6116 C6120 1.368 . S
C6117 C6098 1.429 . S
C6117 C6111 1.429 . S
C6117 C6118 1.523 . S
C6118 C6099 1.368 . S
C6118 C6112 1.368 . S
C6118 C6117 1.523 . S
C6119 C6103 1.429 . S
C6119 C6115 1.429 . S
C6119 C6120 1.523 . S
C6120 C6104 1.368 . S
C6120 C6116 1.368 . S
C6120 C6119 1.523 . S
H6121 C6096 0.950 . S
H6122 C6098 0.950 . S
H6123 C6099 0.949 . S
H6124 C6101 0.950 . S
H6125 C6103 0.950 . S
C6126 C6127 1.349 . S
C6126 C6128 1.327 . S
C6126 H6151 0.950 . S
C6127 C6126 1.349 . S
C6127 C6143 1.349 . S
C6128 C6126 1.327 . S
C6128 C6147 1.429 . S
C6128 H6152 0.950 . S
C6129 C6146 1.574 . S
C6129 C6148 1.368 . S
C6129 H6153 0.949 . S
H6130 C6134 0.949 . S
C6131 C6132 1.349 . S
C6131 C6133 1.327 . S
C6131 H6154 0.950 . S
C6132 C6131 1.349 . S
C6132 C6144 1.349 . S
C6133 C6131 1.327 . S
C6133 C6149 1.429 . S
C6133 H6155 0.950 . S
C6134 H6130 0.949 . S
C6134 C6142 1.574 . S
C6134 C6150 1.368 . S
H6135 C6143 0.950 . S
H6136 C6141 0.950 . S
H6137 C6142 0.949 . S
H6138 C6144 0.950 . S
H6139 C6145 0.950 . S
H6140 C6146 0.949 . S
C6141 H6136 0.950 . S
C6141 C6143 1.327 . S
C6141 C6147 1.429 . S
C6142 C6134 1.574 . S
C6142 H6137 0.949 . S
C6142 C6148 1.368 . S
C6143 C6127 1.349 . S
C6143 H6135 0.950 . S
C6143 C6141 1.327 . S
C6144 C6132 1.349 . S
C6144 H6138 0.950 . S
C6144 C6145 1.327 . S
C6145 H6139 0.950 . S
C6145 C6144 1.327 . S
C6145 C6149 1.429 . S
C6146 C6129 1.574 . S
C6146 H6140 0.949 . S
C6146 C6150 1.368 . S
C6147 C6128 1.429 . S
C6147 C6141 1.429 . S
C6147 C6148 1.523 . S
C6148 C6129 1.368 . S
C6148 C6142 1.368 . S
C6148 C6147 1.523 . S
C6149 C6133 1.429 . S
C6149 C6145 1.429 . S
C6149 C6150 1.523 . S
C6150 C6134 1.368 . S
C6150 C6146 1.368 . S
C6150 C6149 1.523 . S
H6151 C6126 0.950 . S
H6152 C6128 0.950 . S
H6153 C6129 0.949 . S
H6154 C6131 0.950 . S
H6155 C6133 0.950 . S
C6156 C6157 1.349 . S
C6156 C6158 1.327 1_554 S
C6156 H6181 0.950 . S
C6157 C6156 1.349 . S
C6157 C6173 1.349 . S
C6158 C6156 1.327 1_556 S
C6158 C6177 1.429 . S
C6158 H6182 0.950 . S
C6159 C6176 1.574 . S
C6159 C6178 1.368 . S
C6159 H6183 0.949 . S
H6160 C6164 0.949 . S
C6161 C6162 1.349 . S
C6161 C6163 1.327 . S
C6161 H6184 0.950 . S
C6162 C6161 1.349 . S
C6162 C6174 1.349 . S
C6163 C6161 1.327 . S
C6163 C6179 1.429 . S
C6163 H6185 0.950 . S
C6164 H6160 0.949 . S
C6164 C6172 1.574 . S
C6164 C6180 1.368 . S
H6165 C6173 0.950 . S
H6166 C6171 0.950 . S
H6167 C6172 0.949 . S
H6168 C6174 0.950 . S
H6169 C6175 0.950 . S
H6170 C6176 0.949 . S
C6171 H6166 0.950 . S
C6171 C6173 1.327 . S
C6171 C6177 1.429 1_554 S
C6172 C6164 1.574 . S
C6172 H6167 0.949 . S
C6172 C6178 1.368 . S
C6173 C6157 1.349 . S
C6173 H6165 0.950 . S
C6173 C6171 1.327 . S
C6174 C6162 1.349 . S
C6174 H6168 0.950 . S
C6174 C6175 1.327 . S
C6175 H6169 0.950 . S
C6175 C6174 1.327 . S
C6175 C6179 1.429 . S
C6176 C6159 1.574 . S
C6176 H6170 0.949 . S
C6176 C6180 1.368 . S
C6177 C6158 1.429 . S
C6177 C6171 1.429 1_556 S
C6177 C6178 1.523 . S
C6178 C6159 1.368 . S
C6178 C6172 1.368 . S
C6178 C6177 1.523 . S
C6179 C6163 1.429 . S
C6179 C6175 1.429 . S
C6179 C6180 1.523 . S
C6180 C6164 1.368 . S
C6180 C6176 1.368 . S
C6180 C6179 1.523 . S
H6181 C6156 0.950 . S
H6182 C6158 0.950 . S
H6183 C6159 0.949 . S
H6184 C6161 0.950 . S
H6185 C6163 0.950 . S
C6186 C6187 1.349 . S
C6186 C6188 1.327 . S
C6186 H6211 0.950 . S
C6187 C6186 1.349 . S
C6187 C6203 1.349 . S
C6188 C6186 1.327 . S
C6188 C6207 1.429 . S
C6188 H6212 0.950 . S
C6189 C6206 1.574 . S
C6189 C6208 1.368 . S
C6189 H6213 0.949 . S
H6190 C6194 0.949 . S
C6191 C6192 1.349 . S
C6191 C6193 1.327 . S
C6191 H6214 0.950 . S
C6192 C6191 1.349 . S
C6192 C6204 1.349 . S
C6193 C6191 1.327 . S
C6193 C6209 1.429 . S
C6193 H6215 0.950 . S
C6194 H6190 0.949 . S
C6194 C6202 1.574 . S
C6194 C6210 1.368 . S
H6195 C6203 0.950 . S
H6196 C6201 0.950 . S
H6197 C6202 0.949 . S
H6198 C6204 0.950 . S
H6199 C6205 0.950 . S
H6200 C6206 0.949 . S
C6201 H6196 0.950 . S
C6201 C6203 1.327 . S
C6201 C6207 1.429 . S
C6202 C6194 1.574 . S
C6202 H6197 0.949 . S
C6202 C6208 1.368 . S
C6203 C6187 1.349 . S
C6203 H6195 0.950 . S
C6203 C6201 1.327 . S
C6204 C6192 1.349 . S
C6204 H6198 0.950 . S
C6204 C6205 1.327 . S
C6205 H6199 0.950 . S
C6205 C6204 1.327 . S
C6205 C6209 1.429 . S
C6206 C6189 1.574 . S
C6206 H6200 0.949 . S
C6206 C6210 1.368 . S
C6207 C6188 1.429 . S
C6207 C6201 1.429 . S
C6207 C6208 1.523 . S
C6208 C6189 1.368 . S
C6208 C6202 1.368 . S
C6208 C6207 1.523 . S
C6209 C6193 1.429 . S
C6209 C6205 1.429 . S
C6209 C6210 1.523 . S
C6210 C6194 1.368 . S
C6210 C6206 1.368 . S
C6210 C6209 1.523 . S
H6211 C6186 0.950 . S
H6212 C6188 0.950 . S
H6213 C6189 0.949 . S
H6214 C6191 0.950 . S
H6215 C6193 0.950 . S
C6216 C6217 1.349 . S
C6216 C6218 1.327 . S
C6216 H6241 0.950 . S
C6217 C6216 1.349 . S
C6217 C6233 1.349 . S
C6218 C6216 1.327 . S
C6218 C6237 1.429 . S
C6218 H6242 0.950 . S
C6219 C6236 1.574 . S
C6219 C6238 1.368 . S
C6219 H6243 0.949 . S
H6220 C6224 0.949 . S
C6221 C6222 1.349 . S
C6221 C6223 1.327 . S
C6221 H6244 0.950 . S
C6222 C6221 1.349 . S
C6222 C6234 1.349 . S
C6223 C6221 1.327 . S
C6223 C6239 1.429 . S
C6223 H6245 0.950 . S
C6224 H6220 0.949 . S
C6224 C6232 1.574 . S
C6224 C6240 1.368 . S
H6225 C6233 0.950 . S
H6226 C6231 0.950 . S
H6227 C6232 0.949 . S
H6228 C6234 0.950 . S
H6229 C6235 0.950 . S
H6230 C6236 0.949 . S
C6231 H6226 0.950 . S
C6231 C6233 1.327 . S
C6231 C6237 1.429 . S
C6232 C6224 1.574 . S
C6232 H6227 0.949 . S
C6232 C6238 1.368 . S
C6233 C6217 1.349 . S
C6233 H6225 0.950 . S
C6233 C6231 1.327 . S
C6234 C6222 1.349 . S
C6234 H6228 0.950 . S
C6234 C6235 1.327 . S
C6235 H6229 0.950 . S
C6235 C6234 1.327 . S
C6235 C6239 1.429 . S
C6236 C6219 1.574 . S
C6236 H6230 0.949 . S
C6236 C6240 1.368 . S
C6237 C6218 1.429 . S
C6237 C6231 1.429 . S
C6237 C6238 1.523 . S
C6238 C6219 1.368 . S
C6238 C6232 1.368 . S
C6238 C6237 1.523 . S
C6239 C6223 1.429 . S
C6239 C6235 1.429 . S
C6239 C6240 1.523 . S
C6240 C6224 1.368 . S
C6240 C6236 1.368 . S
C6240 C6239 1.523 . S
H6241 C6216 0.950 . S
H6242 C6218 0.950 . S
H6243 C6219 0.949 . S
H6244 C6221 0.950 . S
H6245 C6223 0.950 . S
C6246 C6247 1.349 . S
C6246 C6248 1.327 . S
C6246 H6271 0.950 . S
C6247 C6246 1.349 . S
C6247 C6263 1.349 . S
C6248 C6246 1.327 . S
C6248 C6267 1.429 . S
C6248 H6272 0.950 . S
C6249 C6266 1.574 . S
C6249 C6268 1.368 . S
C6249 H6273 0.949 . S
H6250 C6254 0.949 . S
C6251 C6252 1.349 . S
C6251 C6253 1.327 . S
C6251 H6274 0.950 . S
C6252 C6251 1.349 . S
C6252 C6264 1.349 . S
C6253 C6251 1.327 . S
C6253 C6269 1.429 . S
C6253 H6275 0.950 . S
C6254 H6250 0.949 . S
C6254 C6262 1.574 . S
C6254 C6270 1.368 . S
H6255 C6263 0.950 . S
H6256 C6261 0.950 . S
H6257 C6262 0.949 . S
H6258 C6264 0.950 . S
H6259 C6265 0.950 . S
H6260 C6266 0.949 . S
C6261 H6256 0.950 . S
C6261 C6263 1.327 . S
C6261 C6267 1.429 . S
C6262 C6254 1.574 . S
C6262 H6257 0.949 . S
C6262 C6268 1.368 . S
C6263 C6247 1.349 . S
C6263 H6255 0.950 . S
C6263 C6261 1.327 . S
C6264 C6252 1.349 . S
C6264 H6258 0.950 . S
C6264 C6265 1.327 . S
C6265 H6259 0.950 . S
C6265 C6264 1.327 . S
C6265 C6269 1.429 . S
C6266 C6249 1.574 . S
C6266 H6260 0.949 . S
C6266 C6270 1.368 . S
C6267 C6248 1.429 . S
C6267 C6261 1.429 . S
C6267 C6268 1.523 . S
C6268 C6249 1.368 . S
C6268 C6262 1.368 . S
C6268 C6267 1.523 . S
C6269 C6253 1.429 . S
C6269 C6265 1.429 . S
C6269 C6270 1.523 . S
C6270 C6254 1.368 . S
C6270 C6266 1.368 . S
C6270 C6269 1.523 . S
H6271 C6246 0.950 . S
H6272 C6248 0.950 . S
H6273 C6249 0.949 . S
H6274 C6251 0.950 . S
H6275 C6253 0.950 . S
C6276 C6277 1.349 . S
C6276 C6278 1.327 . S
C6276 H6301 0.950 . S
C6277 C6276 1.349 . S
C6277 C6293 1.349 . S
C6278 C6276 1.327 . S
C6278 C6297 1.429 . S
C6278 H6302 0.950 . S
C6279 C6296 1.574 . S
C6279 C6298 1.368 . S
C6279 H6303 0.949 . S
H6280 C6284 0.949 . S
C6281 C6282 1.349 . S
C6281 C6283 1.327 . S
C6281 H6304 0.950 . S
C6282 C6281 1.349 . S
C6282 C6294 1.349 . S
C6283 C6281 1.327 . S
C6283 C6299 1.429 . S
C6283 H6305 0.950 . S
C6284 H6280 0.949 . S
C6284 C6292 1.574 . S
C6284 C6300 1.368 . S
H6285 C6293 0.950 . S
H6286 C6291 0.950 . S
H6287 C6292 0.949 . S
H6288 C6294 0.950 . S
H6289 C6295 0.950 . S
H6290 C6296 0.949 . S
C6291 H6286 0.950 . S
C6291 C6293 1.327 . S
C6291 C6297 1.429 . S
C6292 C6284 1.574 . S
C6292 H6287 0.949 . S
C6292 C6298 1.368 . S
C6293 C6277 1.349 . S
C6293 H6285 0.950 . S
C6293 C6291 1.327 . S
C6294 C6282 1.349 . S
C6294 H6288 0.950 . S
C6294 C6295 1.327 . S
C6295 H6289 0.950 . S
C6295 C6294 1.327 . S
C6295 C6299 1.429 . S
C6296 C6279 1.574 . S
C6296 H6290 0.949 . S
C6296 C6300 1.368 . S
C6297 C6278 1.429 . S
C6297 C6291 1.429 . S
C6297 C6298 1.523 . S
C6298 C6279 1.368 . S
C6298 C6292 1.368 . S
C6298 C6297 1.523 . S
C6299 C6283 1.429 . S
C6299 C6295 1.429 . S
C6299 C6300 1.523 . S
C6300 C6284 1.368 . S
C6300 C6296 1.368 . S
C6300 C6299 1.523 . S
H6301 C6276 0.950 . S
H6302 C6278 0.950 . S
H6303 C6279 0.949 . S
H6304 C6281 0.950 . S
H6305 C6283 0.950 . S
C6306 C6307 1.349 . S
C6306 C6308 1.327 . S
C6306 H6331 0.950 . S
C6307 C6306 1.349 . S
C6307 C6323 1.349 . S
C6308 C6306 1.327 . S
C6308 C6327 1.429 . S
C6308 H6332 0.950 . S
C6309 C6326 1.574 . S
C6309 C6328 1.368 . S
C6309 H6333 0.949 . S
H6310 C6314 0.949 . S
C6311 C6312 1.349 . S
C6311 C6313 1.327 . S
C6311 H6334 0.950 . S
C6312 C6311 1.349 . S
C6312 C6324 1.349 . S
C6313 C6311 1.327 . S
C6313 C6329 1.429 . S
C6313 H6335 0.950 . S
C6314 H6310 0.949 . S
C6314 C6322 1.574 . S
C6314 C6330 1.368 . S
H6315 C6323 0.950 . S
H6316 C6321 0.950 . S
H6317 C6322 0.949 . S
H6318 C6324 0.950 . S
H6319 C6325 0.950 . S
H6320 C6326 0.949 . S
C6321 H6316 0.950 . S
C6321 C6323 1.327 . S
C6321 C6327 1.429 . S
C6322 C6314 1.574 . S
C6322 H6317 0.949 . S
C6322 C6328 1.368 . S
C6323 C6307 1.349 . S
C6323 H6315 0.950 . S
C6323 C6321 1.327 . S
C6324 C6312 1.349 . S
C6324 H6318 0.950 . S
C6324 C6325 1.327 . S
C6325 H6319 0.950 . S
C6325 C6324 1.327 . S
C6325 C6329 1.429 . S
C6326 C6309 1.574 . S
C6326 H6320 0.949 . S
C6326 C6330 1.368 . S
C6327 C6308 1.429 . S
C6327 C6321 1.429 . S
C6327 C6328 1.523 . S
C6328 C6309 1.368 . S
C6328 C6322 1.368 . S
C6328 C6327 1.523 . S
C6329 C6313 1.429 . S
C6329 C6325 1.429 . S
C6329 C6330 1.523 . S
C6330 C6314 1.368 . S
C6330 C6326 1.368 . S
C6330 C6329 1.523 . S
H6331 C6306 0.950 . S
H6332 C6308 0.950 . S
H6333 C6309 0.949 . S
H6334 C6311 0.950 . S
H6335 C6313 0.950 . S
C6336 C6337 1.349 . S
C6336 C6338 1.327 . S
C6336 H6361 0.950 . S
C6337 C6336 1.349 . S
C6337 C6353 1.349 . S
C6338 C6336 1.327 . S
C6338 C6357 1.429 . S
C6338 H6362 0.950 . S
C6339 C6356 1.574 . S
C6339 C6358 1.368 . S
C6339 H6363 0.949 . S
H6340 C6344 0.949 . S
C6341 C6342 1.349 . S
C6341 C6343 1.327 . S
C6341 H6364 0.950 . S
C6342 C6341 1.349 . S
C6342 C6354 1.349 . S
C6343 C6341 1.327 . S
C6343 C6359 1.429 . S
C6343 H6365 0.950 . S
C6344 H6340 0.949 . S
C6344 C6352 1.574 . S
C6344 C6360 1.368 . S
H6345 C6353 0.950 . S
H6346 C6351 0.950 . S
H6347 C6352 0.949 . S
H6348 C6354 0.950 . S
H6349 C6355 0.950 . S
H6350 C6356 0.949 . S
C6351 H6346 0.950 . S
C6351 C6353 1.327 . S
C6351 C6357 1.429 . S
C6352 C6344 1.574 . S
C6352 H6347 0.949 . S
C6352 C6358 1.368 . S
C6353 C6337 1.349 . S
C6353 H6345 0.950 . S
C6353 C6351 1.327 . S
C6354 C6342 1.349 . S
C6354 H6348 0.950 . S
C6354 C6355 1.327 . S
C6355 H6349 0.950 . S
C6355 C6354 1.327 . S
C6355 C6359 1.429 . S
C6356 C6339 1.574 . S
C6356 H6350 0.949 . S
C6356 C6360 1.368 . S
C6357 C6338 1.429 . S
C6357 C6351 1.429 . S
C6357 C6358 1.523 . S
C6358 C6339 1.368 . S
C6358 C6352 1.368 . S
C6358 C6357 1.523 . S
C6359 C6343 1.429 . S
C6359 C6355 1.429 . S
C6359 C6360 1.523 . S
C6360 C6344 1.368 . S
C6360 C6356 1.368 . S
C6360 C6359 1.523 . S
H6361 C6336 0.950 . S
H6362 C6338 0.950 . S
H6363 C6339 0.949 . S
H6364 C6341 0.950 . S
H6365 C6343 0.950 . S
C6366 C6367 1.349 . S
C6366 C6368 1.327 . S
C6366 H6391 0.950 . S
C6367 C6366 1.349 . S
C6367 C6383 1.349 . S
C6368 C6366 1.327 . S
C6368 C6387 1.429 . S
C6368 H6392 0.950 . S
C6369 C6386 1.574 . S
C6369 C6388 1.368 . S
C6369 H6393 0.949 . S
H6370 C6374 0.949 . S
C6371 C6372 1.349 . S
C6371 C6373 1.327 . S
C6371 H6394 0.950 . S
C6372 C6371 1.349 . S
C6372 C6384 1.349 . S
C6373 C6371 1.327 . S
C6373 C6389 1.429 . S
C6373 H6395 0.950 . S
C6374 H6370 0.949 . S
C6374 C6382 1.574 . S
C6374 C6390 1.368 . S
H6375 C6383 0.950 . S
H6376 C6381 0.950 . S
H6377 C6382 0.949 . S
H6378 C6384 0.950 . S
H6379 C6385 0.950 . S
H6380 C6386 0.949 . S
C6381 H6376 0.950 . S
C6381 C6383 1.327 . S
C6381 C6387 1.429 . S
C6382 C6374 1.574 . S
C6382 H6377 0.949 . S
C6382 C6388 1.368 . S
C6383 C6367 1.349 . S
C6383 H6375 0.950 . S
C6383 C6381 1.327 . S
C6384 C6372 1.349 . S
C6384 H6378 0.950 . S
C6384 C6385 1.327 . S
C6385 H6379 0.950 . S
C6385 C6384 1.327 . S
C6385 C6389 1.429 . S
C6386 C6369 1.574 . S
C6386 H6380 0.949 . S
C6386 C6390 1.368 . S
C6387 C6368 1.429 . S
C6387 C6381 1.429 . S
C6387 C6388 1.523 . S
C6388 C6369 1.368 . S
C6388 C6382 1.368 . S
C6388 C6387 1.523 . S
C6389 C6373 1.429 . S
C6389 C6385 1.429 . S
C6389 C6390 1.523 . S
C6390 C6374 1.368 . S
C6390 C6386 1.368 . S
C6390 C6389 1.523 . S
H6391 C6366 0.950 . S
H6392 C6368 0.950 . S
H6393 C6369 0.949 . S
H6394 C6371 0.950 . S
H6395 C6373 0.950 . S
C6396 C6397 1.349 . S
C6396 C6398 1.327 . S
C6396 H6421 0.950 . S
C6397 C6396 1.349 . S
C6397 C6413 1.349 . S
C6398 C6396 1.327 . S
C6398 C6417 1.429 . S
C6398 H6422 0.950 . S
C6399 C6416 1.574 . S
C6399 C6418 1.368 . S
C6399 H6423 0.949 . S
H6400 C6404 0.949 . S
C6401 C6402 1.349 . S
C6401 C6403 1.327 . S
C6401 H6424 0.950 . S
C6402 C6401 1.349 . S
C6402 C6414 1.349 . S
C6403 C6401 1.327 . S
C6403 C6419 1.429 . S
C6403 H6425 0.950 . S
C6404 H6400 0.949 . S
C6404 C6412 1.574 . S
C6404 C6420 1.368 . S
H6405 C6413 0.950 . S
H6406 C6411 0.950 . S
H6407 C6412 0.949 . S
H6408 C6414 0.950 . S
H6409 C6415 0.950 . S
H6410 C6416 0.949 . S
C6411 H6406 0.950 . S
C6411 C6413 1.327 . S
C6411 C6417 1.429 . S
C6412 C6404 1.574 . S
C6412 H6407 0.949 . S
C6412 C6418 1.368 . S
C6413 C6397 1.349 . S
C6413 H6405 0.950 . S
C6413 C6411 1.327 . S
C6414 C6402 1.349 . S
C6414 H6408 0.950 . S
C6414 C6415 1.327 . S
C6415 H6409 0.950 . S
C6415 C6414 1.327 . S
C6415 C6419 1.429 . S
C6416 C6399 1.574 . S
C6416 H6410 0.949 . S
C6416 C6420 1.368 . S
C6417 C6398 1.429 . S
C6417 C6411 1.429 . S
C6417 C6418 1.523 . S
C6418 C6399 1.368 . S
C6418 C6412 1.368 . S
C6418 C6417 1.523 . S
C6419 C6403 1.429 . S
C6419 C6415 1.429 . S
C6419 C6420 1.523 . S
C6420 C6404 1.368 . S
C6420 C6416 1.368 . S
C6420 C6419 1.523 . S
H6421 C6396 0.950 . S
H6422 C6398 0.950 . S
H6423 C6399 0.949 . S
H6424 C6401 0.950 . S
H6425 C6403 0.950 . S
C6426 C6427 1.349 . S
C6426 C6428 1.327 . S
C6426 H6451 0.950 . S
C6427 C6426 1.349 . S
C6427 C6443 1.349 . S
C6428 C6426 1.327 . S
C6428 C6447 1.429 . S
C6428 H6452 0.950 . S
C6429 C6446 1.574 . S
C6429 C6448 1.368 . S
C6429 H6453 0.949 . S
H6430 C6434 0.949 . S
C6431 C6432 1.349 . S
C6431 C6433 1.327 . S
C6431 H6454 0.950 . S
C6432 C6431 1.349 . S
C6432 C6444 1.349 . S
C6433 C6431 1.327 . S
C6433 C6449 1.429 . S
C6433 H6455 0.950 . S
C6434 H6430 0.949 . S
C6434 C6442 1.574 . S
C6434 C6450 1.368 . S
H6435 C6443 0.950 . S
H6436 C6441 0.950 . S
H6437 C6442 0.949 . S
H6438 C6444 0.950 . S
H6439 C6445 0.950 . S
H6440 C6446 0.949 . S
C6441 H6436 0.950 . S
C6441 C6443 1.327 . S
C6441 C6447 1.429 . S
C6442 C6434 1.574 . S
C6442 H6437 0.949 . S
C6442 C6448 1.368 . S
C6443 C6427 1.349 . S
C6443 H6435 0.950 . S
C6443 C6441 1.327 . S
C6444 C6432 1.349 . S
C6444 H6438 0.950 . S
C6444 C6445 1.327 . S
C6445 H6439 0.950 . S
C6445 C6444 1.327 . S
C6445 C6449 1.429 . S
C6446 C6429 1.574 . S
C6446 H6440 0.949 . S
C6446 C6450 1.368 . S
C6447 C6428 1.429 . S
C6447 C6441 1.429 . S
C6447 C6448 1.523 . S
C6448 C6429 1.368 . S
C6448 C6442 1.368 . S
C6448 C6447 1.523 . S
C6449 C6433 1.429 . S
C6449 C6445 1.429 . S
C6449 C6450 1.523 . S
C6450 C6434 1.368 . S
C6450 C6446 1.368 . S
C6450 C6449 1.523 . S
H6451 C6426 0.950 . S
H6452 C6428 0.950 . S
H6453 C6429 0.949 . S
H6454 C6431 0.950 . S
H6455 C6433 0.950 . S
C6456 C6457 1.349 . S
C6456 C6458 1.327 . S
C6456 H6481 0.950 . S
C6457 C6456 1.349 . S
C6457 C6473 1.349 . S
C6458 C6456 1.327 . S
C6458 C6477 1.429 . S
C6458 H6482 0.950 . S
C6459 C6476 1.574 . S
C6459 C6478 1.368 . S
C6459 H6483 0.949 . S
H6460 C6464 0.949 . S
C6461 C6462 1.349 . S
C6461 C6463 1.327 . S
C6461 H6484 0.950 . S
C6462 C6461 1.349 . S
C6462 C6474 1.349 . S
C6463 C6461 1.327 . S
C6463 C6479 1.429 . S
C6463 H6485 0.950 . S
C6464 H6460 0.949 . S
C6464 C6472 1.574 . S
C6464 C6480 1.368 . S
H6465 C6473 0.950 . S
H6466 C6471 0.950 . S
H6467 C6472 0.949 . S
H6468 C6474 0.950 . S
H6469 C6475 0.950 . S
H6470 C6476 0.949 . S
C6471 H6466 0.950 . S
C6471 C6473 1.327 . S
C6471 C6477 1.429 . S
C6472 C6464 1.574 . S
C6472 H6467 0.949 . S
C6472 C6478 1.368 . S
C6473 C6457 1.349 . S
C6473 H6465 0.950 . S
C6473 C6471 1.327 . S
C6474 C6462 1.349 . S
C6474 H6468 0.950 . S
C6474 C6475 1.327 . S
C6475 H6469 0.950 . S
C6475 C6474 1.327 . S
C6475 C6479 1.429 . S
C6476 C6459 1.574 . S
C6476 H6470 0.949 . S
C6476 C6480 1.368 . S
C6477 C6458 1.429 . S
C6477 C6471 1.429 . S
C6477 C6478 1.523 . S
C6478 C6459 1.368 . S
C6478 C6472 1.368 . S
C6478 C6477 1.523 . S
C6479 C6463 1.429 . S
C6479 C6475 1.429 . S
C6479 C6480 1.523 . S
C6480 C6464 1.368 . S
C6480 C6476 1.368 . S
C6480 C6479 1.523 . S
H6481 C6456 0.950 . S
H6482 C6458 0.950 . S
H6483 C6459 0.949 . S
H6484 C6461 0.950 . S
H6485 C6463 0.950 . S
C6486 C6487 1.349 . S
C6486 C6488 1.327 . S
C6486 H6511 0.950 . S
C6487 C6486 1.349 . S
C6487 C6503 1.349 . S
C6488 C6486 1.327 . S
C6488 C6507 1.429 . S
C6488 H6512 0.950 . S
C6489 C6506 1.574 . S
C6489 C6508 1.368 . S
C6489 H6513 0.949 . S
H6490 C6494 0.949 . S
C6491 C6492 1.349 . S
C6491 C6493 1.327 . S
C6491 H6514 0.950 . S
C6492 C6491 1.349 . S
C6492 C6504 1.349 . S
C6493 C6491 1.327 . S
C6493 C6509 1.429 . S
C6493 H6515 0.950 . S
C6494 H6490 0.949 . S
C6494 C6502 1.574 . S
C6494 C6510 1.368 . S
H6495 C6503 0.950 . S
H6496 C6501 0.950 . S
H6497 C6502 0.949 . S
H6498 C6504 0.950 . S
H6499 C6505 0.950 . S
H6500 C6506 0.949 . S
C6501 H6496 0.950 . S
C6501 C6503 1.327 . S
C6501 C6507 1.429 . S
C6502 C6494 1.574 . S
C6502 H6497 0.949 . S
C6502 C6508 1.368 . S
C6503 C6487 1.349 . S
C6503 H6495 0.950 . S
C6503 C6501 1.327 . S
C6504 C6492 1.349 . S
C6504 H6498 0.950 . S
C6504 C6505 1.327 . S
C6505 H6499 0.950 . S
C6505 C6504 1.327 . S
C6505 C6509 1.429 . S
C6506 C6489 1.574 . S
C6506 H6500 0.949 . S
C6506 C6510 1.368 . S
C6507 C6488 1.429 . S
C6507 C6501 1.429 . S
C6507 C6508 1.523 . S
C6508 C6489 1.368 . S
C6508 C6502 1.368 . S
C6508 C6507 1.523 . S
C6509 C6493 1.429 . S
C6509 C6505 1.429 . S
C6509 C6510 1.523 . S
C6510 C6494 1.368 . S
C6510 C6506 1.368 . S
C6510 C6509 1.523 . S
H6511 C6486 0.950 . S
H6512 C6488 0.950 . S
H6513 C6489 0.949 . S
H6514 C6491 0.950 . S
H6515 C6493 0.950 . S
C6516 C6517 1.349 . S
C6516 C6518 1.327 . S
C6516 H6541 0.950 . S
C6517 C6516 1.349 . S
C6517 C6533 1.349 . S
C6518 C6516 1.327 . S
C6518 C6537 1.429 . S
C6518 H6542 0.950 . S
C6519 C6536 1.574 . S
C6519 C6538 1.368 . S
C6519 H6543 0.949 . S
H6520 C6524 0.949 . S
C6521 C6522 1.349 . S
C6521 C6523 1.327 . S
C6521 H6544 0.950 . S
C6522 C6521 1.349 . S
C6522 C6534 1.349 . S
C6523 C6521 1.327 . S
C6523 C6539 1.429 . S
C6523 H6545 0.950 . S
C6524 H6520 0.949 . S
C6524 C6532 1.574 . S
C6524 C6540 1.368 . S
H6525 C6533 0.950 . S
H6526 C6531 0.950 . S
H6527 C6532 0.949 . S
H6528 C6534 0.950 . S
H6529 C6535 0.950 . S
H6530 C6536 0.949 . S
C6531 H6526 0.950 . S
C6531 C6533 1.327 . S
C6531 C6537 1.429 . S
C6532 C6524 1.574 . S
C6532 H6527 0.949 . S
C6532 C6538 1.368 . S
C6533 C6517 1.349 . S
C6533 H6525 0.950 . S
C6533 C6531 1.327 . S
C6534 C6522 1.349 . S
C6534 H6528 0.950 . S
C6534 C6535 1.327 . S
C6535 H6529 0.950 . S
C6535 C6534 1.327 . S
C6535 C6539 1.429 . S
C6536 C6519 1.574 . S
C6536 H6530 0.949 . S
C6536 C6540 1.368 . S
C6537 C6518 1.429 . S
C6537 C6531 1.429 . S
C6537 C6538 1.523 . S
C6538 C6519 1.368 . S
C6538 C6532 1.368 . S
C6538 C6537 1.523 . S
C6539 C6523 1.429 . S
C6539 C6535 1.429 . S
C6539 C6540 1.523 . S
C6540 C6524 1.368 . S
C6540 C6536 1.368 . S
C6540 C6539 1.523 . S
H6541 C6516 0.950 . S
H6542 C6518 0.950 . S
H6543 C6519 0.949 . S
H6544 C6521 0.950 . S
H6545 C6523 0.950 . S
C6546 C6547 1.349 . S
C6546 C6548 1.327 . S
C6546 H6571 0.950 . S
C6547 C6546 1.349 . S
C6547 C6563 1.349 . S
C6548 C6546 1.327 . S
C6548 C6567 1.429 . S
C6548 H6572 0.950 . S
C6549 C6566 1.574 . S
C6549 C6568 1.368 . S
C6549 H6573 0.949 . S
H6550 C6554 0.949 . S
C6551 C6552 1.349 . S
C6551 C6553 1.327 . S
C6551 H6574 0.950 . S
C6552 C6551 1.349 . S
C6552 C6564 1.349 . S
C6553 C6551 1.327 . S
C6553 C6569 1.429 . S
C6553 H6575 0.950 . S
C6554 H6550 0.949 . S
C6554 C6562 1.574 . S
C6554 C6570 1.368 . S
H6555 C6563 0.950 . S
H6556 C6561 0.950 . S
H6557 C6562 0.949 . S
H6558 C6564 0.950 . S
H6559 C6565 0.950 . S
H6560 C6566 0.949 . S
C6561 H6556 0.950 . S
C6561 C6563 1.327 . S
C6561 C6567 1.429 . S
C6562 C6554 1.574 . S
C6562 H6557 0.949 . S
C6562 C6568 1.368 . S
C6563 C6547 1.349 . S
C6563 H6555 0.950 . S
C6563 C6561 1.327 . S
C6564 C6552 1.349 . S
C6564 H6558 0.950 . S
C6564 C6565 1.327 . S
C6565 H6559 0.950 . S
C6565 C6564 1.327 . S
C6565 C6569 1.429 . S
C6566 C6549 1.574 . S
C6566 H6560 0.949 . S
C6566 C6570 1.368 . S
C6567 C6548 1.429 . S
C6567 C6561 1.429 . S
C6567 C6568 1.523 . S
C6568 C6549 1.368 . S
C6568 C6562 1.368 . S
C6568 C6567 1.523 . S
C6569 C6553 1.429 . S
C6569 C6565 1.429 . S
C6569 C6570 1.523 . S
C6570 C6554 1.368 . S
C6570 C6566 1.368 . S
C6570 C6569 1.523 . S
H6571 C6546 0.950 . S
H6572 C6548 0.950 . S
H6573 C6549 0.949 . S
H6574 C6551 0.950 . S
H6575 C6553 0.950 . S
C6576 C6577 1.349 . S
C6576 C6578 1.327 . S
C6576 H6601 0.950 . S
C6577 C6576 1.349 . S
C6577 C6593 1.349 . S
C6578 C6576 1.327 . S
C6578 C6597 1.429 . S
C6578 H6602 0.950 . S
C6579 C6596 1.574 . S
C6579 C6598 1.368 . S
C6579 H6603 0.949 . S
H6580 C6584 0.949 . S
C6581 C6582 1.349 . S
C6581 C6583 1.327 . S
C6581 H6604 0.950 . S
C6582 C6581 1.349 . S
C6582 C6594 1.349 . S
C6583 C6581 1.327 . S
C6583 C6599 1.429 . S
C6583 H6605 0.950 . S
C6584 H6580 0.949 . S
C6584 C6592 1.574 . S
C6584 C6600 1.368 . S
H6585 C6593 0.950 . S
H6586 C6591 0.950 . S
H6587 C6592 0.949 . S
H6588 C6594 0.950 . S
H6589 C6595 0.950 . S
H6590 C6596 0.949 . S
C6591 H6586 0.950 . S
C6591 C6593 1.327 . S
C6591 C6597 1.429 . S
C6592 C6584 1.574 . S
C6592 H6587 0.949 . S
C6592 C6598 1.368 . S
C6593 C6577 1.349 . S
C6593 H6585 0.950 . S
C6593 C6591 1.327 . S
C6594 C6582 1.349 . S
C6594 H6588 0.950 . S
C6594 C6595 1.327 . S
C6595 H6589 0.950 . S
C6595 C6594 1.327 . S
C6595 C6599 1.429 . S
C6596 C6579 1.574 . S
C6596 H6590 0.949 . S
C6596 C6600 1.368 . S
C6597 C6578 1.429 . S
C6597 C6591 1.429 . S
C6597 C6598 1.523 . S
C6598 C6579 1.368 . S
C6598 C6592 1.368 . S
C6598 C6597 1.523 . S
C6599 C6583 1.429 . S
C6599 C6595 1.429 . S
C6599 C6600 1.523 . S
C6600 C6584 1.368 . S
C6600 C6596 1.368 . S
C6600 C6599 1.523 . S
H6601 C6576 0.950 . S
H6602 C6578 0.950 . S
H6603 C6579 0.949 . S
H6604 C6581 0.950 . S
H6605 C6583 0.950 . S
C6606 C6607 1.349 . S
C6606 C6608 1.327 . S
C6606 H6631 0.950 . S
C6607 C6606 1.349 . S
C6607 C6623 1.349 . S
C6608 C6606 1.327 . S
C6608 C6627 1.429 . S
C6608 H6632 0.950 . S
C6609 C6626 1.574 . S
C6609 C6628 1.368 . S
C6609 H6633 0.949 . S
H6610 C6614 0.949 . S
C6611 C6612 1.349 . S
C6611 C6613 1.327 . S
C6611 H6634 0.950 . S
C6612 C6611 1.349 . S
C6612 C6624 1.349 . S
C6613 C6611 1.327 . S
C6613 C6629 1.429 . S
C6613 H6635 0.950 . S
C6614 H6610 0.949 . S
C6614 C6622 1.574 . S
C6614 C6630 1.368 . S
H6615 C6623 0.950 . S
H6616 C6621 0.950 . S
H6617 C6622 0.949 . S
H6618 C6624 0.950 . S
H6619 C6625 0.950 . S
H6620 C6626 0.949 . S
C6621 H6616 0.950 . S
C6621 C6623 1.327 . S
C6621 C6627 1.429 . S
C6622 C6614 1.574 . S
C6622 H6617 0.949 . S
C6622 C6628 1.368 . S
C6623 C6607 1.349 . S
C6623 H6615 0.950 . S
C6623 C6621 1.327 . S
C6624 C6612 1.349 . S
C6624 H6618 0.950 . S
C6624 C6625 1.327 . S
C6625 H6619 0.950 . S
C6625 C6624 1.327 . S
C6625 C6629 1.429 . S
C6626 C6609 1.574 . S
C6626 H6620 0.949 . S
C6626 C6630 1.368 . S
C6627 C6608 1.429 . S
C6627 C6621 1.429 . S
C6627 C6628 1.523 . S
C6628 C6609 1.368 . S
C6628 C6622 1.368 . S
C6628 C6627 1.523 . S
C6629 C6613 1.429 . S
C6629 C6625 1.429 . S
C6629 C6630 1.523 . S
C6630 C6614 1.368 . S
C6630 C6626 1.368 . S
C6630 C6629 1.523 . S
H6631 C6606 0.950 . S
H6632 C6608 0.950 . S
H6633 C6609 0.949 . S
H6634 C6611 0.950 . S
H6635 C6613 0.950 . S
C6636 C6637 1.349 . S
C6636 C6638 1.327 . S
C6636 H6661 0.950 . S
C6637 C6636 1.349 . S
C6637 C6653 1.349 . S
C6638 C6636 1.327 . S
C6638 C6657 1.429 . S
C6638 H6662 0.950 . S
C6639 C6656 1.574 . S
C6639 C6658 1.368 . S
C6639 H6663 0.949 . S
H6640 C6644 0.949 . S
C6641 C6642 1.349 . S
C6641 C6643 1.327 . S
C6641 H6664 0.950 . S
C6642 C6641 1.349 . S
C6642 C6654 1.349 . S
C6643 C6641 1.327 . S
C6643 C6659 1.429 . S
C6643 H6665 0.950 . S
C6644 H6640 0.949 . S
C6644 C6652 1.574 . S
C6644 C6660 1.368 . S
H6645 C6653 0.950 . S
H6646 C6651 0.950 . S
H6647 C6652 0.949 . S
H6648 C6654 0.950 . S
H6649 C6655 0.950 . S
H6650 C6656 0.949 . S
C6651 H6646 0.950 . S
C6651 C6653 1.327 . S
C6651 C6657 1.429 . S
C6652 C6644 1.574 . S
C6652 H6647 0.949 . S
C6652 C6658 1.368 . S
C6653 C6637 1.349 . S
C6653 H6645 0.950 . S
C6653 C6651 1.327 . S
C6654 C6642 1.349 . S
C6654 H6648 0.950 . S
C6654 C6655 1.327 . S
C6655 H6649 0.950 . S
C6655 C6654 1.327 . S
C6655 C6659 1.429 . S
C6656 C6639 1.574 . S
C6656 H6650 0.949 . S
C6656 C6660 1.368 . S
C6657 C6638 1.429 . S
C6657 C6651 1.429 . S
C6657 C6658 1.523 . S
C6658 C6639 1.368 . S
C6658 C6652 1.368 . S
C6658 C6657 1.523 . S
C6659 C6643 1.429 . S
C6659 C6655 1.429 . S
C6659 C6660 1.523 . S
C6660 C6644 1.368 . S
C6660 C6656 1.368 . S
C6660 C6659 1.523 . S
H6661 C6636 0.950 . S
H6662 C6638 0.950 . S
H6663 C6639 0.949 . S
H6664 C6641 0.950 . S
H6665 C6643 0.950 . S
C6666 C6667 1.349 . S
C6666 C6668 1.327 . S
C6666 H6691 0.950 . S
C6667 C6666 1.349 . S
C6667 C6683 1.349 . S
C6668 C6666 1.327 . S
C6668 C6687 1.429 . S
C6668 H6692 0.950 . S
C6669 C6686 1.574 . S
C6669 C6688 1.368 . S
C6669 H6693 0.949 . S
H6670 C6674 0.949 . S
C6671 C6672 1.349 . S
C6671 C6673 1.327 . S
C6671 H6694 0.950 . S
C6672 C6671 1.349 . S
C6672 C6684 1.349 . S
C6673 C6671 1.327 . S
C6673 C6689 1.429 . S
C6673 H6695 0.950 . S
C6674 H6670 0.949 . S
C6674 C6682 1.574 . S
C6674 C6690 1.368 . S
H6675 C6683 0.950 . S
H6676 C6681 0.950 . S
H6677 C6682 0.949 . S
H6678 C6684 0.950 . S
H6679 C6685 0.950 . S
H6680 C6686 0.949 . S
C6681 H6676 0.950 . S
C6681 C6683 1.327 . S
C6681 C6687 1.429 . S
C6682 C6674 1.574 . S
C6682 H6677 0.949 . S
C6682 C6688 1.368 . S
C6683 C6667 1.349 . S
C6683 H6675 0.950 . S
C6683 C6681 1.327 . S
C6684 C6672 1.349 . S
C6684 H6678 0.950 . S
C6684 C6685 1.327 . S
C6685 H6679 0.950 . S
C6685 C6684 1.327 . S
C6685 C6689 1.429 . S
C6686 C6669 1.574 . S
C6686 H6680 0.949 . S
C6686 C6690 1.368 . S
C6687 C6668 1.429 . S
C6687 C6681 1.429 . S
C6687 C6688 1.523 . S
C6688 C6669 1.368 . S
C6688 C6682 1.368 . S
C6688 C6687 1.523 . S
C6689 C6673 1.429 . S
C6689 C6685 1.429 . S
C6689 C6690 1.523 . S
C6690 C6674 1.368 . S
C6690 C6686 1.368 . S
C6690 C6689 1.523 . S
H6691 C6666 0.950 . S
H6692 C6668 0.950 . S
H6693 C6669 0.949 . S
H6694 C6671 0.950 . S
H6695 C6673 0.950 . S
C6696 C6697 1.349 . S
C6696 C6698 1.327 . S
C6696 H6721 0.950 . S
C6697 C6696 1.349 . S
C6697 C6713 1.349 . S
C6698 C6696 1.327 . S
C6698 C6717 1.429 . S
C6698 H6722 0.950 . S
C6699 C6716 1.574 . S
C6699 C6718 1.368 . S
C6699 H6723 0.949 . S
H6700 C6704 0.949 . S
C6701 C6702 1.349 . S
C6701 C6703 1.327 . S
C6701 H6724 0.950 . S
C6702 C6701 1.349 . S
C6702 C6714 1.349 . S
C6703 C6701 1.327 . S
C6703 C6719 1.429 . S
C6703 H6725 0.950 . S
C6704 H6700 0.949 . S
C6704 C6712 1.574 . S
C6704 C6720 1.368 . S
H6705 C6713 0.950 . S
H6706 C6711 0.950 . S
H6707 C6712 0.949 . S
H6708 C6714 0.950 . S
H6709 C6715 0.950 . S
H6710 C6716 0.949 . S
C6711 H6706 0.950 . S
C6711 C6713 1.327 . S
C6711 C6717 1.429 . S
C6712 C6704 1.574 . S
C6712 H6707 0.949 . S
C6712 C6718 1.368 . S
C6713 C6697 1.349 . S
C6713 H6705 0.950 . S
C6713 C6711 1.327 . S
C6714 C6702 1.349 . S
C6714 H6708 0.950 . S
C6714 C6715 1.327 . S
C6715 H6709 0.950 . S
C6715 C6714 1.327 . S
C6715 C6719 1.429 . S
C6716 C6699 1.574 . S
C6716 H6710 0.949 . S
C6716 C6720 1.368 . S
C6717 C6698 1.429 . S
C6717 C6711 1.429 . S
C6717 C6718 1.523 . S
C6718 C6699 1.368 . S
C6718 C6712 1.368 . S
C6718 C6717 1.523 . S
C6719 C6703 1.429 . S
C6719 C6715 1.429 . S
C6719 C6720 1.523 . S
C6720 C6704 1.368 . S
C6720 C6716 1.368 . S
C6720 C6719 1.523 . S
H6721 C6696 0.950 . S
H6722 C6698 0.950 . S
H6723 C6699 0.949 . S
H6724 C6701 0.950 . S
H6725 C6703 0.950 . S
C6726 C6727 1.349 . S
C6726 C6728 1.327 . S
C6726 H6751 0.950 . S
C6727 C6726 1.349 . S
C6727 C6743 1.349 . S
C6728 C6726 1.327 . S
C6728 C6747 1.429 . S
C6728 H6752 0.950 . S
C6729 C6746 1.574 . S
C6729 C6748 1.368 . S
C6729 H6753 0.949 . S
H6730 C6734 0.949 . S
C6731 C6732 1.349 . S
C6731 C6733 1.327 . S
C6731 H6754 0.950 . S
C6732 C6731 1.349 . S
C6732 C6744 1.349 . S
C6733 C6731 1.327 . S
C6733 C6749 1.429 . S
C6733 H6755 0.950 . S
C6734 H6730 0.949 . S
C6734 C6742 1.574 . S
C6734 C6750 1.368 . S
H6735 C6743 0.950 . S
H6736 C6741 0.950 . S
H6737 C6742 0.949 . S
H6738 C6744 0.950 . S
H6739 C6745 0.950 . S
H6740 C6746 0.949 . S
C6741 H6736 0.950 . S
C6741 C6743 1.327 . S
C6741 C6747 1.429 . S
C6742 C6734 1.574 . S
C6742 H6737 0.949 . S
C6742 C6748 1.368 . S
C6743 C6727 1.349 . S
C6743 H6735 0.950 . S
C6743 C6741 1.327 . S
C6744 C6732 1.349 . S
C6744 H6738 0.950 . S
C6744 C6745 1.327 . S
C6745 H6739 0.950 . S
C6745 C6744 1.327 . S
C6745 C6749 1.429 . S
C6746 C6729 1.574 . S
C6746 H6740 0.949 . S
C6746 C6750 1.368 . S
C6747 C6728 1.429 . S
C6747 C6741 1.429 . S
C6747 C6748 1.523 . S
C6748 C6729 1.368 . S
C6748 C6742 1.368 . S
C6748 C6747 1.523 . S
C6749 C6733 1.429 . S
C6749 C6745 1.429 . S
C6749 C6750 1.523 . S
C6750 C6734 1.368 . S
C6750 C6746 1.368 . S
C6750 C6749 1.523 . S
H6751 C6726 0.950 . S
H6752 C6728 0.950 . S
H6753 C6729 0.949 . S
H6754 C6731 0.950 . S
H6755 C6733 0.950 . S
C6756 C6757 1.349 . S
C6756 C6758 1.327 . S
C6756 H6781 0.950 1_545 S
C6757 C6756 1.349 . S
C6757 C6773 1.349 . S
C6758 C6756 1.327 . S
C6758 C6777 1.429 . S
C6758 H6782 1.010 . S
C6759 C6776 1.574 . S
C6759 C6778 1.368 . S
C6759 H6783 0.949 . S
H6760 C6764 0.949 . S
C6761 C6762 1.349 . S
C6761 C6763 1.327 . S
C6761 H6784 0.950 . S
C6762 C6761 1.349 . S
C6762 C6774 1.349 . S
C6763 C6761 1.327 . S
C6763 C6779 1.429 . S
C6763 H6785 0.950 . S
C6764 H6760 0.949 . S
C6764 C6772 1.574 . S
C6764 C6780 1.368 . S
H6765 C6773 0.950 . S
H6766 C6771 0.950 . S
H6767 C6772 0.949 . S
H6768 C6774 0.950 . S
H6769 C6775 0.950 . S
H6770 C6776 0.949 . S
C6771 H6766 0.950 . S
C6771 C6773 1.327 . S
C6771 C6777 1.429 . S
C6772 C6764 1.574 . S
C6772 H6767 0.949 . S
C6772 C6778 1.368 . S
C6773 C6757 1.349 . S
C6773 H6765 0.950 . S
C6773 C6771 1.327 . S
C6774 C6762 1.349 . S
C6774 H6768 0.950 . S
C6774 C6775 1.327 . S
C6775 H6769 0.950 . S
C6775 C6774 1.327 . S
C6775 C6779 1.429 . S
C6776 C6759 1.574 . S
C6776 H6770 0.949 . S
C6776 C6780 1.368 . S
C6777 C6758 1.429 . S
C6777 C6771 1.429 . S
C6777 C6778 1.523 . S
C6778 C6759 1.368 . S
C6778 C6772 1.368 . S
C6778 C6777 1.523 . S
C6779 C6763 1.429 . S
C6779 C6775 1.429 . S
C6779 C6780 1.523 . S
C6780 C6764 1.368 . S
C6780 C6776 1.368 . S
C6780 C6779 1.523 . S
H6781 C6756 0.950 1_565 S
H6782 C6758 1.010 . S
H6783 C6759 0.949 . S
H6784 C6761 0.950 . S
H6785 C6763 0.950 . S
C6786 C6787 1.349 . S
C6786 C6788 1.327 . S
C6786 H6811 0.950 1_565 S
C6787 C6786 1.349 . S
C6787 C6803 1.349 . S
C6788 C6786 1.327 . S
C6788 C6807 1.429 . S
C6788 H6812 0.950 1_565 S
C6789 C6806 1.574 . S
C6789 C6808 1.368 . S
C6789 H6813 0.949 . S
H6790 C6794 0.949 . S
C6791 C6792 1.349 . S
C6791 C6793 1.327 . S
C6791 H6814 0.950 . S
C6792 C6791 1.349 . S
C6792 C6804 1.349 . S
C6793 C6791 1.327 . S
C6793 C6809 1.429 . S
C6793 H6815 0.950 . S
C6794 H6790 0.949 . S
C6794 C6802 1.574 . S
C6794 C6810 1.368 . S
H6795 C6803 0.950 . S
H6796 C6801 0.950 . S
H6797 C6802 0.945 1_545 S
H6798 C6804 0.950 . S
H6799 C6805 0.950 . S
H6800 C6806 0.949 . S
C6801 H6796 0.950 . S
C6801 C6803 1.327 . S
C6801 C6807 1.429 . S
C6802 C6794 1.574 . S
C6802 H6797 0.945 1_565 S
C6802 C6808 1.368 . S
C6803 C6787 1.349 . S
C6803 H6795 0.950 . S
C6803 C6801 1.327 . S
C6804 C6792 1.349 . S
C6804 H6798 0.950 . S
C6804 C6805 1.327 . S
C6805 H6799 0.950 . S
C6805 C6804 1.327 . S
C6805 C6809 1.429 . S
C6806 C6789 1.574 . S
C6806 H6800 0.949 . S
C6806 C6810 1.368 . S
C6807 C6788 1.429 . S
C6807 C6801 1.429 . S
C6807 C6808 1.523 . S
C6808 C6789 1.368 . S
C6808 C6802 1.368 . S
C6808 C6807 1.523 . S
C6809 C6793 1.429 . S
C6809 C6805 1.429 . S
C6809 C6810 1.523 . S
C6810 C6794 1.368 . S
C6810 C6806 1.368 . S
C6810 C6809 1.523 . S
H6811 C6786 0.950 1_545 S
H6812 C6788 0.950 1_545 S
H6813 C6789 0.949 . S
H6814 C6791 0.950 . S
H6815 C6793 0.950 . S
C2497 C1781 1.761 . S
C2502 C1929 1.811 . S
C2527 C981 1.696 . S
C2532 C1941 1.658 . S
C2562 C1953 1.652 . S
C2557 C1861 1.606 . S
C2587 C1061 1.681 . S
C2592 C1965 1.641 . S
C2617 C1901 1.645 . S
C2622 C1977 1.623 . S
C2647 C941 1.728 . S
C2652 C1989 1.770 . S
C2677 C1821 1.621 . S
C2682 C2001 1.656 . S
C2707 C1021 1.636 . S
C2712 C2013 1.677 . S
C2737 C661 1.216 . S
C2742 C2025 1.204 . S
C2767 C1621 1.482 . S
C2772 C2037 1.494 . S
C2797 C741 1.774 . S
C2802 C2049 1.759 . S
C2827 C1581 1.759 . S
C2832 C2061 1.758 . S
C2857 C901 1.628 . S
C2862 C2073 1.603 . S
C2892 C2085 1.820 . S
C2887 C1661 1.789 . S
C2922 C2097 1.921 . S
C2917 C821 1.947 . S
C2947 C1141 1.583 . S
C2952 C2109 1.600 . S
C2982 C2121 1.790 . S
C2977 C781 1.759 . S
C3012 C2133 1.869 . S
C3007 C1701 1.896 . S
C3037 C861 1.601 . S
C3042 C2145 1.643 . S
C3067 C1181 1.701 . S
C3072 C2157 1.676 . S
C3102 C2169 1.368 . S
C3097 C1101 1.371 . S
C3127 C1421 1.344 . S
C3132 C2181 1.357 . S
C3162 C2193 1.632 . S
C3157 C381 1.648 . S
C3192 C2205 1.669 . S
C3187 C1501 1.658 . S
C3222 C2217 1.255 . S
C3217 C461 1.277 . S
C3252 C2229 1.534 . S
C3247 C1541 1.565 . S
C3277 C341 1.091 . S
C3282 C2241 1.086 . S
C3312 C2253 1.719 . S
C3307 C1461 1.742 . S
C3337 C421 1.703 . S
C3342 C2265 1.737 . S
C3372 C2277 1.529 . S
C3367 C61 1.557 . S
C3402 C2289 1.848 . S
C3397 C1261 1.791 . S
C3427 C141 1.541 . S
C3432 C2301 1.541 . S
C3462 C2313 1.519 . S
C3457 C1221 1.523 . S
C3492 C2325 1.444 . S
C3487 C301 1.467 . S
C3517 C1301 1.875 . S
C3522 C2337 1.848 . S
C3552 C2349 1.418 . S
C3547 C221 1.441 . S
C3582 C2361 1.594 . S
C3577 C541 1.606 . S
C3607 C181 1.686 . S
C3612 C2373 1.661 . S
C3642 C2385 1.403 . S
C3637 C1341 1.427 . S
C3667 C261 1.654 . S
C3672 C2397 1.645 . S
C3702 C2409 1.486 . S
C3697 C581 1.528 . S
C3727 C501 1.562 . S
C3732 C2421 1.538 . S
C3757 C701 1.456 . S
C3762 C2433 1.479 . S
C3792 C2445 1.786 . S
C3787 C621 1.780 . S
C3817 C1741 1.726 . S
C3822 C2457 1.698 . S
C3847 C101 1.660 . S
C3852 C2469 1.711 . S
C3882 C2481 1.480 . S
C3877 C21 1.479 . S
C3912 C2493 1.737 . S
C3907 C1381 1.759 . S
C3937 C1335 1.459 . S
C3942 C1926 1.473 . S
C3967 C535 1.373 . S
C3972 C1938 1.362 . S
C3997 C1362 1.878 . S
C4002 C1948 1.818 . S
C4032 C1960 1.607 . S
C4027 C1295 1.600 . S
C4057 C575 1.257 . S
C4062 C1972 1.249 . S
C4087 C1215 1.313 . S
C4092 C1984 1.296 . S
C4122 C1996 1.511 . S
C4117 C495 1.519 . S
C4147 C1242 1.499 . S
C4152 C2010 1.536 . S
C4177 C1255 1.688 . S
C4182 C2022 1.649 . S
C4212 C2032 1.471 . S
C4207 C562 1.504 . S
C4237 C1202 1.414 . S
C4242 C2044 1.369 . S
C4272 C2056 1.563 . S
C4267 C482 1.610 . S
C4297 C522 1.182 . S
C4302 C2070 1.150 . S
C4327 C1375 1.706 . S
C4332 C2080 1.720 . S
C4362 C2092 1.745 . S
C4357 C1282 1.798 . S
C4392 C2106 1.653 . S
C4387 C1322 1.682 . S
C4417 C455 1.757 . S
C4422 C2058 1.770 . S
C4447 C1415 1.381 . S
C4452 C2118 1.386 . S
C4477 C1455 1.579 . S
C4482 C2130 1.567 . S
C4512 C2140 1.397 . S
C4507 C1482 1.427 . S
C4542 C2068 1.593 . S
C4537 C442 1.668 . S
C4567 C362 1.558 . S
C4572 C2034 1.534 . S
C4597 C1495 1.313 . S
C4602 C2154 1.272 . S
C4632 C2164 1.487 . S
C4627 C1402 1.529 . S
C4662 C2178 1.966 . S
C4657 C1695 1.974 . S
C4687 C1135 1.402 . S
C4692 C2190 1.406 . S
C4722 C2200 1.671 . S
C4717 C1722 1.684 . S
C4752 C2212 1.442 . S
C4747 C1655 1.469 . S
C4777 C1175 1.901 . S
C4782 C2226 1.883 . S
C4807 C1562 1.493 . S
C4812 C2236 1.462 . S
C4837 C1095 1.331 1_554 S
C4842 C2248 1.323 . S
C4872 C2262 1.578 . S
C4867 C1615 1.574 . S
C4902 C2274 1.588 . S
C4897 C1602 1.616 . S
C4927 C1162 1.799 . S
C4932 C2284 1.803 . S
C4962 C2298 1.619 . S
C4957 C1575 1.668 . S
C4987 C1082 1.462 . S
C4992 C2308 1.447 . S
C5022 C2320 1.560 . S
C5017 C1122 1.592 . S
C5047 C1735 1.903 . S
C5052 C2334 1.874 . S
C5082 C2346 1.311 . S
C5077 C1642 1.312 . S
C5107 C1682 1.904 . S
C5112 C2356 1.903 . S
C5137 C1042 1.590 . S
C5142 C2310 1.588 . S
C5167 C1775 1.635 . S
C5172 C2368 1.638 . S
C5197 C1815 1.390 . S
C5202 C2380 1.395 . S
C5232 C2394 1.593 . S
C5227 C1842 1.570 . S
C5257 C1055 1.475 . S
C5262 C2322 1.416 . S
C5287 C975 1.541 . S
C5292 C2286 1.530 . S
C5322 C2404 1.787 . S
C5317 C1855 1.786 . S
C5347 C1762 1.806 . S
C5352 C2416 1.792 . S
C5382 C1986 1.497 . S
C5377 C215 1.492 . S
C5412 C1998 1.318 . S
C5407 C255 1.334 . S
C5442 C2008 1.724 . S
C5437 C282 1.784 . S
C5472 C1974 1.429 . S
C5467 C175 1.422 . S
C5502 C1962 1.382 . S
C5497 C135 1.308 1_556 S
C5527 C15 1.336 . S
C5532 C1924 1.328 . S
C5557 C55 1.604 . S
C5562 C1936 1.608 . S
C5587 C82 1.535 . S
C5592 C1950 1.575 . S
C5617 C95 1.657 . S
C5622 C2166 1.629 . S
C5647 C122 1.394 . S
C5652 C2428 1.395 . S
C5677 C2 1.588 . S
C5682 C2152 1.528 . S
C5707 C42 1.708 . S
C5712 C2440 1.664 . S
C5737 C242 1.220 . S
C5742 C2454 1.192 . S
C5772 C2116 1.495 . S
C5767 C295 1.482 . S
C5797 C162 1.650 . S
C5802 C2128 1.600 . S
C5827 C202 1.648 . S
C5832 C2142 1.625 . S
C5862 C2442 1.568 . S
C5857 C1535 1.560 . S
C5887 C335 1.639 . S
C5892 C2082 1.646 . S
C5917 C375 1.638 . S
C5922 C2094 1.620 . S
C5947 C402 1.474 . S
C5952 C2104 1.469 . S
C5982 C2452 1.670 . S
C5977 C1522 1.728 . S
C6012 C2430 1.555 . S
C6007 C1442 1.581 . S
C6042 C2046 1.377 . S
C6037 C415 1.405 . S
C6067 C322 1.521 . S
C6072 C2020 1.467 . S
C6097 C815 1.979 . S
C6102 C2238 1.942 . S
C6127 C855 1.493 . S
C6132 C2250 1.515 . S
C6157 C882 1.775 . S
C6162 C2260 1.767 . S
C6187 C775 1.522 . S
C6192 C2224 1.507 . S
C6222 C2214 1.774 . S
C6217 C735 1.809 . S
C6252 C2176 1.435 . S
C6247 C602 1.444 . S
C6282 C2188 1.332 . S
C6277 C655 1.356 . S
C6307 C695 1.594 . S
C6312 C2202 1.602 . S
C6342 C2418 1.542 . S
C6337 C682 1.560 . S
C6367 C722 1.642 . S
C6372 C2464 1.646 . S
C6397 C615 1.709 . S
C6402 C2406 1.663 . S
C6432 C2476 1.360 . S
C6427 C642 1.380 . S
C6457 C842 1.660 . S
C6462 C2488 1.653 . S
C6492 C2370 1.954 . S
C6487 C895 1.977 . S
C6517 C762 1.275 . S
C6522 C2382 1.277 . S
C6547 C802 1.872 . S
C6552 C2392 1.870 . S
C6577 C1895 1.532 . S
C6582 C2478 1.498 . S
C6612 C2332 1.807 . S
C6607 C935 1.818 . S
C6637 C962 1.476 . S
C6642 C2344 1.457 . S
C6667 C1002 1.622 . S
C6672 C2358 1.665 . S
C6697 C1882 1.478 . S
C6702 C2490 1.463 . S
C6727 C1802 1.378 . S
C6732 C2466 1.395 . S
C6762 C2296 1.672 . S
C6757 C1015 1.664 . S
C6792 C2272 1.896 . S
C6787 C922 1.910 . S
