# Generated by pormake.
# Topology dag, (6,3)-cn, num edge types: 1
# Building blocks:
#     Node 0, Type 0, BuildingBlock: OJICUG_clean_sbu_0, # of connection points: 6
#     Node 1, Type 0, BuildingBlock: OJICUG_clean_sbu_0, # of connection points: 6
#     Node 2, Type 0, BuildingBlock: OJICUG_clean_sbu_0, # of connection points: 6
#     Node 3, Type 0, BuildingBlock: OJICUG_clean_sbu_0, # of connection points: 6
#     Node 4, Type 1, BuildingBlock: ESEHIV_clean_linker_0, # of connection points: 3
#     Node 5, Type 1, BuildingBlock: ESEHIV_clean_linker_0, # of connection points: 3
#     Node 6, Type 1, BuildingBlock: ESEHIV_clean_linker_0, # of connection points: 3
#     Node 7, Type 1, BuildingBlock: ESEHIV_clean_linker_0, # of connection points: 3
#     Node 8, Type 1, BuildingBlock: ESEHIV_clean_linker_0, # of connection points: 3
#     Node 9, Type 1, BuildingBlock: ESEHIV_clean_linker_0, # of connection points: 3
#     Node 10, Type 1, BuildingBlock: ESEHIV_clean_linker_0, # of connection points: 3
#     Node 11, Type 1, BuildingBlock: ESEHIV_clean_linker_0, # of connection points: 3
#     Edge 12, Type (0, 1), BuildingBlock: CIFDUS_clean_linker_0, # of connection points: 2
#     Edge 13, Type (0, 1), BuildingBlock: CIFDUS_clean_linker_0, # of connection points: 2
#     Edge 14, Type (0, 1), BuildingBlock: CIFDUS_clean_linker_0, # of connection points: 2
#     Edge 15, Type (0, 1), BuildingBlock: CIFDUS_clean_linker_0, # of connection points: 2
#     Edge 16, Type (0, 1), BuildingBlock: CIFDUS_clean_linker_0, # of connection points: 2
#     Edge 17, Type (0, 1), BuildingBlock: CIFDUS_clean_linker_0, # of connection points: 2
#     Edge 18, Type (0, 1), BuildingBlock: CIFDUS_clean_linker_0, # of connection points: 2
#     Edge 19, Type (0, 1), BuildingBlock: CIFDUS_clean_linker_0, # of connection points: 2
#     Edge 20, Type (0, 1), BuildingBlock: CIFDUS_clean_linker_0, # of connection points: 2
#     Edge 21, Type (0, 1), BuildingBlock: CIFDUS_clean_linker_0, # of connection points: 2
#     Edge 22, Type (0, 1), BuildingBlock: CIFDUS_clean_linker_0, # of connection points: 2
#     Edge 23, Type (0, 1), BuildingBlock: CIFDUS_clean_linker_0, # of connection points: 2
#     Edge 24, Type (0, 1), BuildingBlock: CIFDUS_clean_linker_0, # of connection points: 2
#     Edge 25, Type (0, 1), BuildingBlock: CIFDUS_clean_linker_0, # of connection points: 2
#     Edge 26, Type (0, 1), BuildingBlock: CIFDUS_clean_linker_0, # of connection points: 2
#     Edge 27, Type (0, 1), BuildingBlock: CIFDUS_clean_linker_0, # of connection points: 2
#     Edge 28, Type (0, 1), BuildingBlock: CIFDUS_clean_linker_0, # of connection points: 2
#     Edge 29, Type (0, 1), BuildingBlock: CIFDUS_clean_linker_0, # of connection points: 2
#     Edge 30, Type (0, 1), BuildingBlock: CIFDUS_clean_linker_0, # of connection points: 2
#     Edge 31, Type (0, 1), BuildingBlock: CIFDUS_clean_linker_0, # of connection points: 2
#     Edge 32, Type (0, 1), BuildingBlock: CIFDUS_clean_linker_0, # of connection points: 2
#     Edge 33, Type (0, 1), BuildingBlock: CIFDUS_clean_linker_0, # of connection points: 2
#     Edge 34, Type (0, 1), BuildingBlock: CIFDUS_clean_linker_0, # of connection points: 2
#     Edge 35, Type (0, 1), BuildingBlock: CIFDUS_clean_linker_0, # of connection points: 2
# Relax obj value: 0.253
# Max RMSD: 0.198
# Mean RMSD: 0.164
data_MOF--net-dag--node1-OJICUG_clean_sbu_0--node2-ESEHIV_clean_linker_0--edge1-CIFDUS_clean_linker_0
_symmetry_space_group_name_H-M    P1
_symmetry_Int_Tables_number       1
_symmetry_cell_setting            triclinic
loop_
_symmetry_equiv_pos_as_xyz
'x, y, z'
_cell_length_a     29.699752
_cell_length_b     31.03958
_cell_length_c     30.466717
_cell_angle_alpha  95.272139
_cell_angle_beta   90.045581
_cell_angle_gamma 89.96109
loop_
_atom_site_label
_atom_site_type_symbol
_atom_site_fract_x
_atom_site_fract_y
_atom_site_fract_z
_atom_type_partial_charge
Sc0 Sc 0.13178 0.87035 0.02035 0.0
Sc1 Sc 0.13692 0.76049 0.03908 0.0
Sc2 Sc 0.21902 0.83478 0.08485 0.0
O3 O 0.16274 0.82167 0.04804 0.0
C4 C 0.23521 0.89852 0.01203 0.0
C5 C 0.13035 0.79571 0.94325 0.0
C6 C 0.24243 0.74405 0.03137 0.0
C7 C 0.04681 0.81433 0.04564 0.0
C8 C 0.15298 0.91286 0.11639 0.0
C9 C 0.16641 0.76803 0.13997 0.0
O10 O 0.19345 0.90152 0.00423 0.0
O11 O 0.1262 0.76534 0.96858 0.0
O12 O 0.25374 0.77966 0.05257 0.0
O13 O 0.06459 0.84706 0.03055 0.0
O14 O 0.18902 0.89123 0.12014 0.0
O15 O 0.14424 0.74928 0.10796 0.0
O16 O 0.12701 0.90773 0.08307 0.0
O17 O 0.06929 0.78144 0.05442 0.0
O18 O 0.19389 0.79861 0.13574 0.0
O19 O 0.13538 0.83519 0.95731 0.0
O20 O 0.25102 0.87399 0.03927 0.0
O21 O 0.20185 0.7328 0.02375 0.0
Sc22 Sc 0.70634 0.67122 0.46829 0.0
Sc23 Sc 0.62224 0.73859 0.52115 0.0
Sc24 Sc 0.60549 0.62661 0.50281 0.0
O25 O 0.64469 0.67883 0.49725 0.0
C26 C 0.6438 0.60862 0.40548 0.0
C27 C 0.66666 0.75729 0.43124 0.0
C28 C 0.5299 0.69594 0.48689 0.0
C29 C 0.72721 0.74396 0.54502 0.0
C30 C 0.70267 0.58722 0.5201 0.0
C31 C 0.60023 0.67929 0.59759 0.0
O32 O 0.67944 0.63109 0.4123 0.0
O33 O 0.63458 0.76443 0.45867 0.0
O34 O 0.54502 0.65762 0.48319 0.0
O35 O 0.73944 0.71029 0.52106 0.0
O36 O 0.66014 0.588 0.52348 0.0
O37 O 0.60958 0.71637 0.58525 0.0
O38 O 0.72482 0.61455 0.50036 0.0
O39 O 0.68731 0.75854 0.54519 0.0
O40 O 0.5951 0.64548 0.5712 0.0
O41 O 0.6952 0.72692 0.43313 0.0
O42 O 0.61438 0.60411 0.43495 0.0
O43 O 0.55304 0.72824 0.50193 0.0
Sc44 Sc 0.86792 0.25108 0.01152 0.0
Sc45 Sc 0.79808 0.16795 0.95997 0.0
Sc46 Sc 0.88414 0.14287 0.03136 0.0
O47 O 0.85012 0.1874 0.00062 0.0
C48 C 0.9617 0.2036 0.99659 0.0
C49 C 0.83659 0.24607 0.91078 0.0
C50 C 0.86887 0.09334 0.93526 0.0
C51 C 0.76078 0.25015 0.02101 0.0
C52 C 0.88674 0.21996 0.10678 0.0
C53 C 0.78537 0.1064 0.03737 0.0
O54 O 0.93727 0.23694 0.99294 0.0
O55 O 0.81657 0.21009 0.91122 0.0
O56 O 0.88701 0.0985 0.97316 0.0
O57 O 0.79945 0.26639 0.03069 0.0
O58 O 0.88456 0.18022 0.09356 0.0
O59 O 0.77197 0.1218 0.00243 0.0
O60 O 0.88462 0.24954 0.08076 0.0
O61 O 0.75495 0.21641 0.9943 0.0
O62 O 0.82443 0.11317 0.05332 0.0
O63 O 0.85485 0.26537 0.94472 0.0
O64 O 0.94699 0.16936 0.01175 0.0
O65 O 0.83731 0.11756 0.92337 0.0
Sc66 Sc 0.38467 0.35583 0.51283 0.0
Sc67 Sc 0.2889 0.33045 0.57204 0.0
Sc68 Sc 0.35683 0.24679 0.51895 0.0
O69 O 0.34344 0.31089 0.53476 0.0
C70 C 0.38402 0.28808 0.42953 0.0
C71 C 0.28911 0.4012 0.5038 0.0
C72 C 0.25088 0.25426 0.50433 0.0
C73 C 0.36597 0.39366 0.61231 0.0
C74 C 0.45453 0.28278 0.53702 0.0
C75 C 0.31926 0.24669 0.61746 0.0
O76 O 0.38209 0.32697 0.44637 0.0
O77 O 0.26861 0.37976 0.53099 0.0
O78 O 0.28867 0.23605 0.49521 0.0
O79 O 0.39096 0.38848 0.57826 0.0
O80 O 0.42593 0.25297 0.54138 0.0
O81 O 0.30139 0.28387 0.61827 0.0
O82 O 0.44417 0.31965 0.52508 0.0
O83 O 0.32736 0.37625 0.61455 0.0
O84 O 0.33863 0.22845 0.58347 0.0
O85 O 0.33067 0.3967 0.49531 0.0
O86 O 0.37877 0.25578 0.45201 0.0
O87 O 0.24596 0.28713 0.53208 0.0
H88 H 0.98518 0.09885 0.25453 0.0
H89 H 0.09694 0.07933 0.33952 0.0
H90 H 0.01329 0.193 0.36291 0.0
C91 C 0.0045 0.10847 0.28404 0.0
C92 C 0.99409 0.14763 0.30852 0.0
C93 C 0.04165 0.08375 0.29477 0.0
C94 C 0.06772 0.09803 0.33163 0.0
C95 C 0.05805 0.13733 0.35674 0.0
C96 C 0.02097 0.16223 0.34474 0.0
H97 H 0.47853 0.58168 0.75736 0.0
H98 H 0.37234 0.5828 0.85264 0.0
H99 H 0.47645 0.68047 0.86432 0.0
C100 C 0.46415 0.59451 0.78855 0.0
C101 C 0.48203 0.63265 0.80969 0.0
C102 C 0.42533 0.57536 0.80433 0.0
C103 C 0.40373 0.59589 0.84176 0.0
C104 C 0.42131 0.63452 0.86347 0.0
C105 C 0.46174 0.65132 0.84807 0.0
H106 H 0.80228 0.90001 0.11251 0.0
H107 H 0.79593 0.79875 0.19983 0.0
H108 H 0.70912 0.90948 0.21998 0.0
C109 C 0.78634 0.88466 0.13895 0.0
C110 C 0.75094 0.90662 0.16199 0.0
C111 C 0.80424 0.84623 0.1529 0.0
C112 C 0.78392 0.829 0.18904 0.0
C113 C 0.75078 0.85221 0.21421 0.0
C114 C 0.73366 0.89066 0.20006 0.0
H115 H 0.68658 0.36849 0.59516 0.0
H116 H 0.7168 0.26463 0.67414 0.0
H117 H 0.80077 0.37853 0.68178 0.0
C118 C 0.70881 0.35365 0.61772 0.0
C119 C 0.74568 0.37723 0.63565 0.0
C120 C 0.69793 0.31315 0.63171 0.0
C121 C 0.72574 0.2955 0.6626 0.0
C122 C 0.76341 0.31843 0.6805 0.0
C123 C 0.7729 0.35974 0.66721 0.0
H124 H 0.49486 0.42109 0.26976 0.0
H125 H 0.61225 0.42542 0.1884 0.0
H126 H 0.53906 0.30613 0.1924 0.0
C127 C 0.51705 0.40581 0.24473 0.0
C128 C 0.51059 0.36186 0.23049 0.0
C129 C 0.55404 0.42891 0.23055 0.0
C130 C 0.58384 0.40783 0.20016 0.0
C131 C 0.57924 0.36354 0.18677 0.0
C132 C 0.54223 0.34054 0.2017 0.0
H133 H 0.2234 0.09443 0.94553 0.0
H134 H 0.20404 0.19485 0.85957 0.0
H135 H 0.31836 0.10907 0.84212 0.0
C136 C 0.23535 0.11255 0.91905 0.0
C137 C 0.274 0.09833 0.8958 0.0
C138 C 0.20893 0.14622 0.90532 0.0
C139 C 0.22468 0.16931 0.87099 0.0
C140 C 0.26495 0.15705 0.84863 0.0
C141 C 0.28887 0.12061 0.86055 0.0
H142 H 0.28089 0.62792 0.45804 0.0
H143 H 0.26763 0.70566 0.34966 0.0
H144 H 0.16525 0.61226 0.37314 0.0
C145 C 0.26053 0.63918 0.43177 0.0
C146 C 0.22001 0.61802 0.41993 0.0
C147 C 0.27821 0.67014 0.40604 0.0
C148 C 0.2533 0.68252 0.3703 0.0
C149 C 0.21171 0.66281 0.35903 0.0
C150 C 0.19563 0.62975 0.38339 0.0
H151 H -0.00059 0.89224 0.79527 0.0
H152 H 0.96568 0.7876 0.69942 0.0
H153 H 0.89107 0.90705 0.70415 0.0
C154 C 0.97953 0.88 0.76697 0.0
C155 C 0.94395 0.90496 0.7524 0.0
C156 C 0.98724 0.83772 0.7481 0.0
C157 C 0.96098 0.82099 0.71247 0.0
C158 C 0.92684 0.8462 0.69567 0.0
C159 C 0.91871 0.88828 0.71568 0.0
H160 H 0.06895 0.93068 0.14628 0.0
H161 H 0.20819 0.96539 0.1687 0.0
H162 H 0.18614 0.02008 0.22784 0.0
H163 H 0.12697 0.06054 0.26967 0.0
H164 H 0.98798 0.02217 0.25092 0.0
H165 H 0.01032 0.96631 0.19347 0.0
C166 C 0.09438 0.95031 0.16417 0.0
C167 C 0.13998 0.9447 0.15292 0.0
C168 C 0.08154 0.9809 0.19858 0.0
C169 C 0.17284 0.96945 0.17681 0.0
C170 C 0.16025 0.00065 0.21052 0.0
C171 C 0.10156 0.03932 0.25394 0.0
C172 C 0.05577 0.0459 0.26444 0.0
C173 C 0.11466 0.00689 0.22139 0.0
C174 C 0.02338 0.0184 0.24296 0.0
C175 C 0.03611 0.98636 0.21018 0.0
H176 H 0.55827 0.73221 0.66106 0.0
H177 H 0.63327 0.6132 0.63894 0.0
H178 H 0.61265 0.59332 0.71174 0.0
H179 H 0.55974 0.60197 0.77303 0.0
H180 H 0.47802 0.71692 0.79182 0.0
H181 H 0.51602 0.74714 0.73061 0.0
C182 C 0.57105 0.70265 0.67292 0.0
C183 C 0.59615 0.67364 0.64468 0.0
C184 C 0.55759 0.69059 0.71424 0.0
C185 C 0.61293 0.63545 0.66007 0.0
C186 C 0.60124 0.6241 0.70164 0.0
C187 C 0.55149 0.63426 0.76457 0.0
C188 C 0.51569 0.65677 0.78601 0.0
C189 C 0.5715 0.6502 0.72783 0.0
C190 C 0.50549 0.69888 0.77554 0.0
C191 C 0.52673 0.71592 0.7401 0.0
H192 H 0.77604 0.09641 0.12387 0.0
H193 H 0.73431 0.04319 0.99458 0.0
H194 H 0.71014 0.97665 0.02475 0.0
H195 H 0.71774 0.92873 0.08455 0.0
H196 H 0.76078 0.98185 0.21337 0.0
H197 H 0.76662 0.05374 0.18721 0.0
C198 C 0.7602 0.07074 0.10269 0.0
C199 C 0.75769 0.07405 0.05711 0.0
C200 C 0.74719 0.03246 0.12013 0.0
C201 C 0.73664 0.04112 0.02982 0.0
C202 C 0.72326 0.00294 0.04698 0.0
C203 C 0.72666 0.9565 0.10713 0.0
C204 C 0.73933 0.95033 0.1505 0.0
C205 C 0.73082 0.99743 0.09158 0.0
C206 C 0.75081 0.98616 0.17983 0.0
C207 C 0.75461 0.02709 0.16476 0.0
H208 H 0.49463 0.26006 0.61171 0.0
H209 H 0.52133 0.29083 0.47916 0.0
H210 H 0.60187 0.29581 0.49498 0.0
H211 H 0.66244 0.3028 0.54946 0.0
H212 H 0.63541 0.27829 0.68396 0.0
H213 H 0.5579 0.25839 0.66444 0.0
C214 C 0.51843 0.26649 0.58612 0.0
C215 C 0.50255 0.27513 0.54446 0.0
C216 C 0.56457 0.27096 0.596 0.0
C217 C 0.53322 0.28414 0.5115 0.0
C218 C 0.57913 0.2872 0.52057 0.0
C219 C 0.63972 0.29244 0.5743 0.0
C220 C 0.65444 0.29253 0.61809 0.0
C221 C 0.59489 0.28252 0.56319 0.0
C222 C 0.62496 0.27834 0.64989 0.0
C223 C 0.58046 0.26734 0.63886 0.0
H224 H 0.56559 0.59621 0.36135 0.0
H225 H 0.70674 0.56383 0.35488 0.0
H226 H 0.69189 0.50799 0.2945 0.0
H227 H 0.63714 0.46094 0.25377 0.0
H228 H 0.49594 0.49483 0.25823 0.0
H229 H 0.51257 0.55779 0.3096 0.0
C230 C 0.59318 0.57756 0.3459 0.0
C231 C 0.63703 0.58342 0.36272 0.0
C232 C 0.5843 0.54545 0.31161 0.0
C233 C 0.67273 0.55972 0.34232 0.0
C234 C 0.66416 0.5276 0.30813 0.0
C235 C 0.61001 0.48278 0.26451 0.0
C236 C 0.5651 0.47238 0.25281 0.0
C237 C 0.61981 0.51905 0.29384 0.0
C238 C 0.53063 0.50122 0.26767 0.0
C239 C 0.54011 0.53736 0.29693 0.0
H240 H 0.01085 0.13237 0.97432 0.0
H241 H 0.01769 0.27165 0.98051 0.0
H242 H 0.09546 0.26677 0.95287 0.0
H243 H 0.1619 0.22186 0.92755 0.0
H244 H 0.14972 0.08257 0.91898 0.0
H245 H 0.0738 0.08879 0.94757 0.0
C246 C 0.02926 0.16189 0.97007 0.0
C247 C 0.00862 0.20234 0.98003 0.0
C248 C 0.07321 0.15881 0.95392 0.0
C249 C 0.03287 0.24006 0.97325 0.0
C250 C 0.07731 0.23726 0.9575 0.0
C251 C 0.1425 0.19299 0.93191 0.0
C252 C 0.16214 0.15183 0.92225 0.0
C253 C 0.0979 0.19668 0.94775 0.0
C254 C 0.13629 0.11469 0.92762 0.0
C255 C 0.09257 0.11812 0.94357 0.0
H256 H 0.23907 0.46827 0.53962 0.0
H257 H 0.28504 0.40494 0.41597 0.0
H258 H 0.25527 0.46404 0.37674 0.0
H259 H 0.2294 0.53888 0.37965 0.0
H260 H 0.19458 0.60733 0.50426 0.0
H261 H 0.20521 0.54112 0.54127 0.0
C262 C 0.24135 0.46716 0.504 0.0
C263 C 0.26413 0.43281 0.48046 0.0
C264 C 0.2262 0.5023 0.48204 0.0
C265 C 0.26772 0.43147 0.43447 0.0
C266 C 0.25077 0.46517 0.41214 0.0
C267 C 0.22232 0.53861 0.41458 0.0
C268 C 0.2107 0.5773 0.43932 0.0
C269 C 0.23167 0.5015 0.43579 0.0
C270 C 0.20288 0.57744 0.48473 0.0
C271 C 0.20957 0.53982 0.50585 0.0
H272 H 0.06492 0.7463 0.90212 0.0
H273 H 0.17669 0.82949 0.87833 0.0
H274 H 0.14524 0.8431 0.80699 0.0
H275 H 0.0766 0.84692 0.76256 0.0
H276 H 0.96301 0.76672 0.78771 0.0
H277 H 0.00444 0.73573 0.8467 0.0
C278 C 0.08341 0.76558 0.88026 0.0
C279 C 0.12248 0.78754 0.89555 0.0
C280 C 0.06406 0.77477 0.84004 0.0
C281 C 0.14621 0.81265 0.86719 0.0
C282 C 0.128 0.82084 0.82663 0.0
C283 C 0.06182 0.82136 0.77986 0.0
C284 C 0.01693 0.80939 0.77153 0.0
C285 C 0.08544 0.80456 0.81431 0.0
C286 C 0.9977 0.7763 0.79381 0.0
C287 C 0.02122 0.75889 0.82778 0.0
H288 H 0.86797 0.08265 0.84441 0.0
H289 H 0.9043 0.01913 0.95976 0.0
H290 H 0.9307 0.9564 0.91355 0.0
H291 H 0.94223 0.91867 0.84145 0.0
H292 H 0.91102 0.98125 0.72437 0.0
H293 H 0.88319 0.04477 0.77016 0.0
C294 C 0.8816 0.055 0.85927 0.0
C295 C 0.88416 0.05572 0.90552 0.0
C296 C 0.8976 0.0188 0.83229 0.0
C297 C 0.90222 0.01973 0.92431 0.0
C298 C 0.91728 0.98367 0.89792 0.0
C299 C 0.93046 0.94649 0.82564 0.0
C300 C 0.92939 0.94516 0.77937 0.0
C301 C 0.91525 0.9829 0.85199 0.0
C302 C 0.9122 0.98118 0.75988 0.0
C303 C 0.89638 0.0176 0.78608 0.0
H304 H 0.35696 0.32937 0.35986 0.0
H305 H 0.45112 0.23413 0.39823 0.0
H306 H 0.49626 0.24235 0.33232 0.0
H307 H 0.51694 0.28877 0.27354 0.0
H308 H 0.42231 0.38425 0.23617 0.0
H309 H 0.36883 0.36312 0.29101 0.0
C310 C 0.38641 0.30922 0.35278 0.0
C311 C 0.40099 0.28151 0.38387 0.0
C312 C 0.4125 0.3147 0.31528 0.0
C313 C 0.43913 0.25548 0.37455 0.0
C314 C 0.46525 0.2606 0.33712 0.0
C315 C 0.48386 0.30359 0.27615 0.0
C316 C 0.47387 0.33857 0.25148 0.0
C317 C 0.45351 0.29182 0.30853 0.0
C318 C 0.43091 0.35762 0.25526 0.0
C319 C 0.40044 0.34576 0.28682 0.0
H320 H 0.2447 0.91022 0.92582 0.0
H321 H 0.29052 0.95692 0.05568 0.0
H322 H 0.31941 0.02277 0.02732 0.0
H323 H 0.31356 0.07321 0.96951 0.0
H324 H 0.2677 0.0262 0.8398 0.0
H325 H 0.25871 0.95362 0.86337 0.0
C326 C 0.26267 0.93413 0.94738 0.0
C327 C 0.2651 0.92937 0.99269 0.0
C328 C 0.27893 0.97188 0.93084 0.0
C329 C 0.28845 0.96015 0.02062 0.0
C330 C 0.3046 -0.00209 0.00447 0.0
C331 C 0.30404 0.04644 0.94592 0.0
C332 C 0.29082 0.05485 0.90323 0.0
C333 C 0.29766 0.00512 0.96016 0.0
C334 C 0.27824 0.02026 0.87277 0.0
C335 C 0.27231 0.97894 0.88649 0.0
H336 H 0.48892 0.67125 0.40975 0.0
H337 H 0.46528 0.73462 0.53945 0.0
H338 H 0.38408 0.73586 0.52491 0.0
H339 H 0.31944 0.7118 0.47751 0.0
H340 H 0.34406 0.65257 0.34622 0.0
H341 H 0.42531 0.65745 0.35858 0.0
C342 C 0.46588 0.68594 0.43441 0.0
C343 C 0.48248 0.70245 0.47563 0.0
C344 C 0.41958 0.68723 0.42548 0.0
C345 C 0.45284 0.72181 0.50743 0.0
C346 C 0.40654 0.72234 0.4992 0.0
C347 C 0.3428 0.70103 0.45141 0.0
C348 C 0.32618 0.6819 0.4111 0.0
C349 C 0.38945 0.70421 0.45869 0.0
C350 C 0.35638 0.66781 0.37735 0.0
C351 C 0.40273 0.67023 0.38453 0.0
H352 H 0.3173 0.4453 0.67187 0.0
H353 H 0.45273 0.40327 0.6395 0.0
H354 H 0.482 0.45085 0.70123 0.0
H355 H 0.46985 0.50778 0.76066 0.0
H356 H 0.33573 0.55737 0.787 0.0
H357 H 0.30505 0.50209 0.73306 0.0
C358 C 0.35315 0.44635 0.67867 0.0
C359 C 0.38288 0.42106 0.65106 0.0
C360 C 0.36993 0.47485 0.71343 0.0
C361 C 0.42927 0.42284 0.65999 0.0
C362 C 0.44599 0.44987 0.69538 0.0
C363 C 0.43385 0.50668 0.75465 0.0
C364 C 0.40538 0.53728 0.77767 0.0
C365 C 0.41673 0.47662 0.72171 0.0
C366 C 0.35865 0.53422 0.77028 0.0
C367 C 0.34105 0.50292 0.73888 0.0
H368 H 0.00555 0.7876 0.11711 0.0
H369 H 0.97996 0.84556 0.99632 0.0
H370 H 0.90021 0.85405 0.01573 0.0
H371 H 0.83951 0.84989 0.06956 0.0
H372 H 0.87006 0.80355 0.19605 0.0
H373 H 0.94484 0.78358 0.17087 0.0
C374 C 0.98226 0.80148 0.09482 0.0
C375 C 0.99828 0.81586 0.05541 0.0
C376 C 0.93708 0.80801 0.10708 0.0
C377 C 0.96817 0.83444 0.02698 0.0
C378 C 0.92267 0.83924 0.03804 0.0
C379 C 0.86237 0.83577 0.09197 0.0
C380 C 0.84815 0.82856 0.13487 0.0
C381 C 0.90697 0.82708 0.07855 0.0
C382 C 0.87861 0.8088 0.16247 0.0
C383 C 0.92213 0.79789 0.1484 0.0
H384 H 0.70216 0.56786 0.60436 0.0
H385 H 0.75442 0.52583 0.4757 0.0
H386 H 0.7791 0.45735 0.50218 0.0
H387 H 0.77466 0.40566 0.55921 0.0
H388 H 0.72434 0.44889 0.68831 0.0
H389 H 0.71079 0.5212 0.665 0.0
C390 C 0.72007 0.54406 0.58261 0.0
C391 C 0.72637 0.55131 0.53825 0.0
C392 C 0.73423 0.5051 0.59816 0.0
C393 C 0.74956 0.52068 0.51007 0.0
C394 C 0.76333 0.48152 0.52513 0.0
C395 C 0.7623 0.43151 0.5825 0.0
C396 C 0.75057 0.42244 0.62532 0.0
C397 C 0.75439 0.47281 0.5687 0.0
C398 C 0.73403 0.45563 0.65535 0.0
C399 C 0.72586 0.49672 0.64188 0.0
H400 H 0.84978 0.18634 0.17652 0.0
H401 H 0.95221 0.27474 0.14066 0.0
H402 H 0.99077 0.26866 0.21087 0.0
H403 H 0.00523 0.22247 0.27129 0.0
H404 H 0.90485 0.13042 0.30343 0.0
H405 H 0.85472 0.1545 0.24699 0.0
C406 C 0.8795 0.20568 0.18505 0.0
C407 C 0.89869 0.23033 0.15347 0.0
C408 C 0.90212 0.20079 0.22467 0.0
C409 C 0.93693 0.25554 0.1646 0.0
C410 C 0.95926 0.25161 0.20453 0.0
C411 C 0.97141 0.20946 0.26739 0.0
C412 C 0.95863 0.17461 0.29099 0.0
C413 C 0.94371 0.2221 0.23338 0.0
C414 C 0.91509 0.15738 0.28554 0.0
C415 C 0.88675 0.17074 0.25288 0.0
H416 H 0.15642 0.68602 0.16423 0.0
H417 H 0.16563 0.81991 0.2158 0.0
H418 H 0.17293 0.79865 0.29044 0.0
H419 H 0.18878 0.74239 0.33909 0.0
H420 H 0.18437 0.60825 0.28851 0.0
H421 H 0.16218 0.62889 0.21578 0.0
C422 C 0.15887 0.71038 0.19203 0.0
C423 C 0.16124 0.75434 0.18468 0.0
C424 C 0.16439 0.69785 0.23494 0.0
C425 C 0.16449 0.78579 0.22078 0.0
C426 C 0.16869 0.77371 0.26342 0.0
C427 C 0.18198 0.71774 0.31229 0.0
C428 C 0.18857 0.67407 0.31871 0.0
C429 C 0.17061 0.72989 0.27061 0.0
C430 C 0.17934 0.64216 0.28414 0.0
C431 C 0.16708 0.65398 0.24252 0.0
H432 H 0.81924 0.73951 0.54297 0.0
H433 H 0.70786 0.80037 0.61588 0.0
H434 H 0.75979 0.83836 0.66737 0.0
H435 H 0.83605 0.85245 0.6936 0.0
H436 H 0.94866 0.79425 0.62099 0.0
H437 H 0.89695 0.75677 0.56775 0.0
C438 C 0.80643 0.76109 0.57013 0.0
C439 C 0.75974 0.76696 0.5755 0.0
C440 C 0.83659 0.78329 0.59974 0.0
C441 C 0.74363 0.79532 0.61072 0.0
C442 C 0.77328 0.81708 0.64034 0.0
C443 C 0.84945 0.83239 0.66561 0.0
C444 C 0.89612 0.82638 0.66113 0.0
C445 C 0.81972 0.81122 0.63524 0.0
C446 C 0.91277 0.79921 0.62529 0.0
C447 C 0.88326 0.77784 0.59484 0.0
H448 H 0.76128 0.29939 0.09877 0.0
H449 H 0.67121 0.24184 -0.00118 0.0
H450 H 0.60629 0.26981 0.04219 0.0
H451 H 0.57526 0.31172 0.10895 0.0
H452 H 0.6672 0.36659 0.20856 0.0
H453 H 0.73115 0.33811 0.16515 0.0
C454 C 0.7275 0.29329 0.0861 0.0
C455 C 0.72119 0.26906 0.04532 0.0
C456 C 0.69057 0.30864 0.11146 0.0
C457 C 0.67705 0.26069 0.03001 0.0
C458 C 0.63991 0.27653 0.05487 0.0
C459 C 0.60932 0.31687 0.12116 0.0
C460 C 0.61662 0.34151 0.1616 0.0
C461 C 0.64625 0.30049 0.09579 0.0
C462 C 0.66086 0.34813 0.17722 0.0
C463 C 0.69744 0.33194 0.15243 0.0
H464 H 0.30011 0.28131 0.70024 0.0
H465 H 0.33133 0.16008 0.6254 0.0
H466 H 0.31995 0.12176 0.69118 0.0
H467 H 0.29584 0.12233 0.7686 0.0
H468 H 0.26571 0.24407 0.84295 0.0
H469 H 0.28168 0.28253 0.7784 0.0
C470 C 0.30459 0.24649 0.69823 0.0
C471 C 0.31604 0.22356 0.65778 0.0
C472 C 0.29792 0.22474 0.73601 0.0
C473 C 0.32241 0.17855 0.65607 0.0
C474 C 0.31578 0.15659 0.69364 0.0
C475 C 0.29362 0.15733 0.77094 0.0
C476 C 0.27927 0.18027 0.81049 0.0
C477 C 0.30286 0.1793 0.73363 0.0
C478 C 0.27601 0.2256 0.81272 0.0
C479 C 0.28526 0.24763 0.77588 0.0
H480 H 0.74485 0.78357 0.4008 0.0
H481 H 0.60169 0.79172 0.38021 0.0
H482 H 0.61474 0.82526 0.3112 0.0
H483 H 0.66811 0.84458 0.25295 0.0
H484 H 0.811 0.8338 0.27587 0.0
H485 H 0.79687 0.80856 0.3477 0.0
C486 C 0.71646 0.79318 0.38144 0.0
C487 C 0.67251 0.78482 0.39492 0.0
C488 C 0.72427 0.81124 0.34194 0.0
C489 C 0.63589 0.79801 0.37024 0.0
C490 C 0.64339 0.81673 0.3307 0.0
C491 C 0.69593 0.83698 0.27399 0.0
C492 C 0.74046 0.83978 0.25875 0.0
C493 C 0.68756 0.82227 0.31555 0.0
C494 C 0.77642 0.83053 0.28638 0.0
C495 C 0.76843 0.81645 0.32758 0.0
H496 H 0.83403 0.2076 0.82761 0.0
H497 H 0.83521 0.3328 0.90184 0.0
H498 H 0.81823 0.36754 0.83483 0.0
H499 H 0.79221 0.36081 0.75774 0.0
H500 H 0.7922 0.23537 0.68373 0.0
H501 H 0.81985 0.20221 0.74813 0.0
C502 C 0.83125 0.24256 0.82894 0.0
C503 C 0.83503 0.26758 0.86959 0.0
C504 C 0.82126 0.26218 0.79049 0.0
C505 C 0.83226 0.31286 0.87087 0.0
C506 C 0.82229 0.3327 0.83263 0.0
C507 C 0.79952 0.32644 0.7553 0.0
C508 C 0.7893 0.30044 0.71628 0.0
C509 C 0.81519 0.30751 0.79257 0.0
C510 C 0.79883 0.2559 0.71374 0.0
C511 C 0.81466 0.23692 0.7505 0.0
H512 H 0.21732 0.17277 0.49248 0.0
H513 H 0.19571 0.30317 0.45928 0.0
H514 H 0.13177 0.27927 0.41259 0.0
H515 H 0.08582 0.22049 0.37738 0.0
H516 H 0.10238 0.09095 0.41599 0.0
H517 H 0.16437 0.11532 0.46452 0.0
C518 C 0.19831 0.19577 0.47511 0.0
C519 C 0.21116 0.23939 0.47861 0.0
C520 C 0.16088 0.18201 0.44932 0.0
C521 C 0.18617 0.26933 0.45675 0.0
C522 C 0.14974 0.25571 0.43011 0.0
C523 C 0.10201 0.1977 0.39723 0.0
C524 C 0.08986 0.15374 0.3922 0.0
C525 C 0.13711 0.21203 0.42575 0.0
C526 C 0.11178 0.12478 0.41815 0.0
C527 C 0.1472 0.13867 0.44608 0.0
H528 H 0.31284 0.77156 0.98719 0.0
H529 H 0.2493 0.65603 0.02533 0.0
H530 H 0.30309 0.61116 0.98028 0.0
H531 H 0.36442 0.60551 0.92575 0.0
H532 H 0.41716 0.72293 0.87885 0.0
H533 H 0.37263 0.76601 0.93253 0.0
C534 C 0.31148 0.73654 0.98629 0.0
C535 C 0.27784 0.71692 0.00967 0.0
C536 C 0.34067 0.71126 0.95868 0.0
C537 C 0.27533 0.67161 0.00757 0.0
C538 C 0.30588 0.64607 0.98175 0.0
C539 C 0.36611 0.64047 0.92697 0.0
C540 C 0.39509 0.66042 0.89836 0.0
C541 C 0.33802 0.66561 0.95626 0.0
C542 C 0.39682 0.70603 0.90119 0.0
C543 C 0.37071 0.73105 0.9316 0.0
loop_
_geom_bond_atom_site_label_1
_geom_bond_atom_site_label_2
_geom_bond_distance
_geom_bond_site_symmetry_2
_ccdc_geom_bond_type
Sc0 O3 2.025 . S
Sc0 O10 2.105 . S
Sc0 O13 2.105 . S
Sc0 O16 2.105 . S
Sc0 O19 2.105 1_554 S
Sc1 O3 2.025 . S
Sc1 O11 2.105 1_554 S
Sc1 O15 2.105 . S
Sc1 O17 2.105 . S
Sc1 O21 2.114 . S
Sc2 O3 2.025 . S
Sc2 O12 2.105 . S
Sc2 O14 2.105 . S
Sc2 O18 2.105 . S
Sc2 O20 2.105 . S
O3 Sc0 2.025 . S
O3 Sc1 2.025 . S
O3 Sc2 2.025 . S
C4 O10 1.268 . S
C4 O20 1.268 . S
C5 O11 1.268 . S
C5 O19 1.268 . S
C6 O12 1.267 1_556 S
C6 O21 1.267 1_556 S
C7 O13 1.268 . S
C7 O17 1.268 . S
C8 O14 1.268 . S
C8 O16 1.268 . S
C9 O15 1.268 . S
C9 O18 1.268 . S
O10 Sc0 2.105 . S
O10 C4 1.268 . S
O11 Sc1 2.105 1_556 S
O11 C5 1.268 . S
O12 Sc2 2.105 . S
O12 C6 1.267 1_554 S
O13 Sc0 2.105 . S
O13 C7 1.268 . S
O14 Sc2 2.105 . S
O14 C8 1.268 . S
O15 Sc1 2.105 . S
O15 C9 1.268 . S
O16 Sc0 2.105 . S
O16 C8 1.268 . S
O17 Sc1 2.105 . S
O17 C7 1.268 . S
O18 Sc2 2.105 . S
O18 C9 1.268 . S
O19 Sc0 2.105 1_556 S
O19 C5 1.268 . S
O20 Sc2 2.105 . S
O20 C4 1.268 . S
O21 Sc1 2.114 . S
O21 C6 1.267 1_554 S
Sc22 O25 2.025 . S
Sc22 O32 2.105 . S
Sc22 O35 2.105 . S
Sc22 O38 2.105 . S
Sc22 O41 2.105 . S
Sc23 O25 2.025 . S
Sc23 O33 2.105 . S
Sc23 O37 2.105 . S
Sc23 O39 2.105 . S
Sc23 O43 2.105 . S
Sc24 O25 2.025 . S
Sc24 O34 2.105 . S
Sc24 O36 2.105 . S
Sc24 O40 2.105 . S
Sc24 O42 2.105 . S
O25 Sc22 2.025 . S
O25 Sc23 2.025 . S
O25 Sc24 2.025 . S
C26 O32 1.268 . S
C26 O42 1.268 . S
C27 O33 1.268 . S
C27 O41 1.268 . S
C28 O34 1.268 . S
C28 O43 1.268 . S
C29 O35 1.268 . S
C29 O39 1.268 . S
C30 O36 1.268 . S
C30 O38 1.268 . S
C31 O37 1.268 . S
C31 O40 1.268 . S
O32 Sc22 2.105 . S
O32 C26 1.268 . S
O33 Sc23 2.105 . S
O33 C27 1.268 . S
O34 Sc24 2.105 . S
O34 C28 1.268 . S
O35 Sc22 2.105 . S
O35 C29 1.268 . S
O36 Sc24 2.105 . S
O36 C30 1.268 . S
O37 Sc23 2.105 . S
O37 C31 1.268 . S
O38 Sc22 2.105 . S
O38 C30 1.268 . S
O39 Sc23 2.105 . S
O39 C29 1.268 . S
O40 Sc24 2.105 . S
O40 C31 1.268 . S
O41 Sc22 2.105 . S
O41 C27 1.268 . S
O42 Sc24 2.105 . S
O42 C26 1.268 . S
O43 Sc23 2.105 . S
O43 C28 1.268 . S
Sc44 O47 2.027 . S
Sc44 O54 2.105 1_554 S
Sc44 O57 2.105 . S
Sc44 O60 2.105 . S
Sc44 O63 2.105 1_554 S
Sc45 O47 2.022 1_556 S
Sc45 O55 2.105 . S
Sc45 O59 2.105 1_556 S
Sc45 O61 2.105 1_556 S
Sc45 O65 2.105 . S
Sc46 O47 2.027 . S
Sc46 O56 2.105 1_554 S
Sc46 O58 2.105 . S
Sc46 O62 2.105 . S
Sc46 O64 2.105 1_554 S
O47 Sc44 2.027 . S
O47 Sc45 2.022 1_554 S
O47 Sc46 2.027 . S
C48 O54 1.268 . S
C48 O64 1.268 . S
C49 O55 1.268 . S
C49 O63 1.268 . S
C50 O56 1.268 . S
C50 O65 1.268 . S
C51 O57 1.268 . S
C51 O61 1.268 . S
C52 O58 1.268 . S
C52 O60 1.268 . S
C53 O59 1.268 . S
C53 O62 1.268 . S
O54 Sc44 2.105 1_556 S
O54 C48 1.268 . S
O55 Sc45 2.105 . S
O55 C49 1.268 . S
O56 Sc46 2.105 1_556 S
O56 C50 1.268 . S
O57 Sc44 2.105 . S
O57 C51 1.268 . S
O58 Sc46 2.105 . S
O58 C52 1.268 . S
O59 Sc45 2.105 1_554 S
O59 C53 1.268 . S
O60 Sc44 2.105 . S
O60 C52 1.268 . S
O61 Sc45 2.105 1_554 S
O61 C51 1.268 . S
O62 Sc46 2.105 . S
O62 C53 1.268 . S
O63 Sc44 2.105 1_556 S
O63 C49 1.268 . S
O64 Sc46 2.105 1_556 S
O64 C48 1.268 . S
O65 Sc45 2.105 . S
O65 C50 1.268 . S
Sc66 O69 2.025 . S
Sc66 O76 2.105 . S
Sc66 O79 2.105 . S
Sc66 O82 2.105 . S
Sc66 O85 2.105 . S
Sc67 O69 2.025 . S
Sc67 O77 2.105 . S
Sc67 O81 2.105 . S
Sc67 O83 2.105 . S
Sc67 O87 2.105 . S
Sc68 O69 2.025 . S
Sc68 O78 2.105 . S
Sc68 O80 2.105 . S
Sc68 O84 2.105 . S
Sc68 O86 2.105 . S
O69 Sc66 2.025 . S
O69 Sc67 2.025 . S
O69 Sc68 2.025 . S
C70 O76 1.268 . S
C70 O86 1.268 . S
C71 O77 1.268 . S
C71 O85 1.268 . S
C72 O78 1.268 . S
C72 O87 1.268 . S
C73 O79 1.268 . S
C73 O83 1.268 . S
C74 O80 1.268 . S
C74 O82 1.268 . S
C75 O81 1.268 . S
C75 O84 1.268 . S
O76 Sc66 2.105 . S
O76 C70 1.268 . S
O77 Sc67 2.105 . S
O77 C71 1.268 . S
O78 Sc68 2.105 . S
O78 C72 1.268 . S
O79 Sc66 2.105 . S
O79 C73 1.268 . S
O80 Sc68 2.105 . S
O80 C74 1.268 . S
O81 Sc67 2.105 . S
O81 C75 1.268 . S
O82 Sc66 2.105 . S
O82 C74 1.268 . S
O83 Sc67 2.105 . S
O83 C73 1.268 . S
O84 Sc68 2.105 . S
O84 C75 1.268 . S
O85 Sc66 2.105 . S
O85 C71 1.268 . S
O86 Sc68 2.105 . S
O86 C70 1.268 . S
O87 Sc67 2.105 . S
O87 C72 1.268 . S
H88 C91 0.931 . S
H89 C94 0.928 . S
H90 C96 0.930 . S
C91 H88 0.931 . S
C91 C92 1.413 . S
C91 C93 1.360 . S
C92 C91 1.413 . S
C92 C96 1.429 . S
C93 C91 1.360 . S
C93 C94 1.372 . S
C94 H89 0.928 . S
C94 C93 1.372 . S
C94 C95 1.404 . S
C95 C94 1.404 . S
C95 C96 1.391 . S
C96 H90 0.930 . S
C96 C92 1.429 . S
C96 C95 1.391 . S
H97 C100 0.931 . S
H98 C103 0.928 . S
H99 C105 0.930 . S
C100 H97 0.931 . S
C100 C101 1.413 . S
C100 C102 1.360 . S
C101 C100 1.413 . S
C101 C105 1.429 . S
C102 C100 1.360 . S
C102 C103 1.372 . S
C103 H98 0.928 . S
C103 C102 1.372 . S
C103 C104 1.404 . S
C104 C103 1.404 . S
C104 C105 1.391 . S
C105 H99 0.930 . S
C105 C101 1.429 . S
C105 C104 1.391 . S
H106 C109 0.931 . S
H107 C112 0.928 . S
H108 C114 0.930 . S
C109 H106 0.931 . S
C109 C110 1.413 . S
C109 C111 1.360 . S
C110 C109 1.413 . S
C110 C114 1.429 . S
C111 C109 1.360 . S
C111 C112 1.372 . S
C112 H107 0.928 . S
C112 C111 1.372 . S
C112 C113 1.404 . S
C113 C112 1.404 . S
C113 C114 1.391 . S
C114 H108 0.930 . S
C114 C110 1.429 . S
C114 C113 1.391 . S
H115 C118 0.931 . S
H116 C121 0.928 . S
H117 C123 0.930 . S
C118 H115 0.931 . S
C118 C119 1.413 . S
C118 C120 1.360 . S
C119 C118 1.413 . S
C119 C123 1.429 . S
C120 C118 1.360 . S
C120 C121 1.372 . S
C121 H116 0.928 . S
C121 C120 1.372 . S
C121 C122 1.404 . S
C122 C121 1.404 . S
C122 C123 1.391 . S
C123 H117 0.930 . S
C123 C119 1.429 . S
C123 C122 1.391 . S
H124 C127 0.931 . S
H125 C130 0.928 . S
H126 C132 0.930 . S
C127 H124 0.931 . S
C127 C128 1.413 . S
C127 C129 1.360 . S
C128 C127 1.413 . S
C128 C132 1.429 . S
C129 C127 1.360 . S
C129 C130 1.372 . S
C130 H125 0.928 . S
C130 C129 1.372 . S
C130 C131 1.404 . S
C131 C130 1.404 . S
C131 C132 1.391 . S
C132 H126 0.930 . S
C132 C128 1.429 . S
C132 C131 1.391 . S
H133 C136 0.931 . S
H134 C139 0.928 . S
H135 C141 0.930 . S
C136 H133 0.931 . S
C136 C137 1.413 . S
C136 C138 1.360 . S
C137 C136 1.413 . S
C137 C141 1.429 . S
C138 C136 1.360 . S
C138 C139 1.372 . S
C139 H134 0.928 . S
C139 C138 1.372 . S
C139 C140 1.404 . S
C140 C139 1.404 . S
C140 C141 1.391 . S
C141 H135 0.930 . S
C141 C137 1.429 . S
C141 C140 1.391 . S
H142 C145 0.931 . S
H143 C148 0.928 . S
H144 C150 0.930 . S
C145 H142 0.931 . S
C145 C146 1.413 . S
C145 C147 1.360 . S
C146 C145 1.413 . S
C146 C150 1.429 . S
C147 C145 1.360 . S
C147 C148 1.372 . S
C148 H143 0.928 . S
C148 C147 1.372 . S
C148 C149 1.404 . S
C149 C148 1.404 . S
C149 C150 1.391 . S
C150 H144 0.930 . S
C150 C146 1.429 . S
C150 C149 1.391 . S
H151 C154 0.931 . S
H152 C157 0.928 . S
H153 C159 0.930 . S
C154 H151 0.931 . S
C154 C155 1.413 . S
C154 C156 1.360 . S
C155 C154 1.413 . S
C155 C159 1.429 . S
C156 C154 1.360 . S
C156 C157 1.372 . S
C157 H152 0.928 . S
C157 C156 1.372 . S
C157 C158 1.404 . S
C158 C157 1.404 . S
C158 C159 1.391 . S
C159 H153 0.930 . S
C159 C155 1.429 . S
C159 C158 1.391 . S
H160 C166 0.930 . S
H161 C169 0.930 . S
H162 C170 0.930 . S
H163 C171 0.930 . S
H164 C174 0.930 . S
H165 C175 0.930 1_565 S
C166 H160 0.930 . S
C166 C167 1.355 . S
C166 C168 1.415 . S
C167 C166 1.355 . S
C167 C169 1.419 . S
C168 C166 1.415 . S
C168 C173 1.425 . S
C168 C175 1.409 1_565 S
C169 H161 0.930 . S
C169 C167 1.419 . S
C169 C170 1.362 . S
C170 H162 0.930 . S
C170 C169 1.362 . S
C170 C173 1.409 . S
C171 H163 0.930 . S
C171 C172 1.355 . S
C171 C173 1.415 1_545 S
C172 C171 1.355 . S
C172 C174 1.419 . S
C173 C168 1.425 . S
C173 C170 1.409 . S
C173 C171 1.415 1_565 S
C174 H164 0.930 . S
C174 C172 1.419 . S
C174 C175 1.362 . S
C175 H165 0.930 1_545 S
C175 C168 1.409 1_545 S
C175 C174 1.362 . S
H176 C182 0.930 . S
H177 C185 0.930 . S
H178 C186 0.930 . S
H179 C187 0.930 . S
H180 C190 0.930 . S
H181 C191 0.930 . S
C182 H176 0.930 . S
C182 C183 1.355 . S
C182 C184 1.415 . S
C183 C182 1.355 . S
C183 C185 1.419 . S
C184 C182 1.415 . S
C184 C189 1.425 . S
C184 C191 1.409 . S
C185 H177 0.930 . S
C185 C183 1.419 . S
C185 C186 1.362 . S
C186 H178 0.930 . S
C186 C185 1.362 . S
C186 C189 1.409 . S
C187 H179 0.930 . S
C187 C188 1.355 . S
C187 C189 1.415 . S
C188 C187 1.355 . S
C188 C190 1.419 . S
C189 C184 1.425 . S
C189 C186 1.409 . S
C189 C187 1.415 . S
C190 H180 0.930 . S
C190 C188 1.419 . S
C190 C191 1.362 . S
C191 H181 0.930 . S
C191 C184 1.409 . S
C191 C190 1.362 . S
H192 C198 0.930 . S
H193 C201 0.930 . S
H194 C202 0.930 . S
H195 C203 0.930 . S
H196 C206 0.930 . S
H197 C207 0.930 . S
C198 H192 0.930 . S
C198 C199 1.355 . S
C198 C200 1.415 1_545 S
C199 C198 1.355 . S
C199 C201 1.419 . S
C200 C198 1.415 1_565 S
C200 C205 1.425 . S
C200 C207 1.409 . S
C201 H193 0.930 . S
C201 C199 1.419 . S
C201 C202 1.362 . S
C202 H194 0.930 . S
C202 C201 1.362 . S
C202 C205 1.409 1_545 S
C203 H195 0.930 . S
C203 C204 1.355 . S
C203 C205 1.415 . S
C204 C203 1.355 . S
C204 C206 1.419 . S
C205 C200 1.425 . S
C205 C202 1.409 1_565 S
C205 C203 1.415 . S
C206 H196 0.930 . S
C206 C204 1.419 . S
C206 C207 1.362 . S
C207 H197 0.930 . S
C207 C200 1.409 . S
C207 C206 1.362 . S
H208 C214 0.930 . S
H209 C217 0.930 . S
H210 C218 0.930 . S
H211 C219 0.930 . S
H212 C222 0.930 . S
H213 C223 0.930 . S
C214 H208 0.930 . S
C214 C215 1.355 . S
C214 C216 1.415 . S
C215 C214 1.355 . S
C215 C217 1.419 . S
C216 C214 1.415 . S
C216 C221 1.425 . S
C216 C223 1.409 . S
C217 H209 0.930 . S
C217 C215 1.419 . S
C217 C218 1.362 . S
C218 H210 0.930 . S
C218 C217 1.362 . S
C218 C221 1.409 . S
C219 H211 0.930 . S
C219 C220 1.355 . S
C219 C221 1.415 . S
C220 C219 1.355 . S
C220 C222 1.419 . S
C221 C216 1.425 . S
C221 C218 1.409 . S
C221 C219 1.415 . S
C222 H212 0.930 . S
C222 C220 1.419 . S
C222 C223 1.362 . S
C223 H213 0.930 . S
C223 C216 1.409 . S
C223 C222 1.362 . S
H224 C230 0.930 . S
H225 C233 0.930 . S
H226 C234 0.930 . S
H227 C235 0.930 . S
H228 C238 0.930 . S
H229 C239 0.930 . S
C230 H224 0.930 . S
C230 C231 1.355 . S
C230 C232 1.415 . S
C231 C230 1.355 . S
C231 C233 1.419 . S
C232 C230 1.415 . S
C232 C237 1.425 . S
C232 C239 1.409 . S
C233 H225 0.930 . S
C233 C231 1.419 . S
C233 C234 1.362 . S
C234 H226 0.930 . S
C234 C233 1.362 . S
C234 C237 1.409 . S
C235 H227 0.930 . S
C235 C236 1.355 . S
C235 C237 1.415 . S
C236 C235 1.355 . S
C236 C238 1.419 . S
C237 C232 1.425 . S
C237 C234 1.409 . S
C237 C235 1.415 . S
C238 H228 0.930 . S
C238 C236 1.419 . S
C238 C239 1.362 . S
C239 H229 0.930 . S
C239 C232 1.409 . S
C239 C238 1.362 . S
H240 C246 0.933 . S
H241 C249 0.930 . S
H242 C250 0.930 . S
H243 C251 0.930 . S
H244 C254 0.930 . S
H245 C255 0.930 . S
C246 H240 0.933 . S
C246 C247 1.355 1_455 S
C246 C248 1.415 . S
C247 C246 1.355 1_655 S
C247 C249 1.419 1_655 S
C248 C246 1.415 . S
C248 C253 1.425 . S
C248 C255 1.409 . S
C249 H241 0.930 . S
C249 C247 1.419 1_455 S
C249 C250 1.362 . S
C250 H242 0.930 . S
C250 C249 1.362 . S
C250 C253 1.409 . S
C251 H243 0.930 . S
C251 C252 1.355 . S
C251 C253 1.415 . S
C252 C251 1.355 . S
C252 C254 1.419 . S
C253 C248 1.425 . S
C253 C250 1.409 . S
C253 C251 1.415 . S
C254 H244 0.930 . S
C254 C252 1.419 . S
C254 C255 1.362 . S
C255 H245 0.930 . S
C255 C248 1.409 . S
C255 C254 1.362 . S
H256 C262 0.930 . S
H257 C265 0.930 . S
H258 C266 0.930 . S
H259 C267 0.930 . S
H260 C270 0.930 . S
H261 C271 0.930 . S
C262 H256 0.930 . S
C262 C263 1.355 . S
C262 C264 1.415 . S
C263 C262 1.355 . S
C263 C265 1.419 . S
C264 C262 1.415 . S
C264 C269 1.425 . S
C264 C271 1.409 . S
C265 H257 0.930 . S
C265 C263 1.419 . S
C265 C266 1.362 . S
C266 H258 0.930 . S
C266 C265 1.362 . S
C266 C269 1.409 . S
C267 H259 0.930 . S
C267 C268 1.355 . S
C267 C269 1.415 . S
C268 C267 1.355 . S
C268 C270 1.419 . S
C269 C264 1.425 . S
C269 C266 1.409 . S
C269 C267 1.415 . S
C270 H260 0.930 . S
C270 C268 1.419 . S
C270 C271 1.362 . S
C271 H261 0.930 . S
C271 C264 1.409 . S
C271 C270 1.362 . S
H272 C278 0.930 . S
H273 C281 0.930 . S
H274 C282 0.930 . S
H275 C283 0.930 . S
H276 C286 0.930 . S
H277 C287 0.930 . S
C278 H272 0.930 . S
C278 C279 1.355 . S
C278 C280 1.415 . S
C279 C278 1.355 . S
C279 C281 1.419 . S
C280 C278 1.415 . S
C280 C285 1.425 . S
C280 C287 1.409 . S
C281 H273 0.930 . S
C281 C279 1.419 . S
C281 C282 1.362 . S
C282 H274 0.930 . S
C282 C281 1.362 . S
C282 C285 1.409 . S
C283 H275 0.930 . S
C283 C284 1.355 . S
C283 C285 1.415 . S
C284 C283 1.355 . S
C284 C286 1.419 . S
C285 C280 1.425 . S
C285 C282 1.409 . S
C285 C283 1.415 . S
C286 H276 0.930 . S
C286 C284 1.419 . S
C286 C287 1.362 . S
C287 H277 0.930 . S
C287 C280 1.409 . S
C287 C286 1.362 . S
H288 C294 0.930 . S
H289 C297 0.930 . S
H290 C298 0.930 1_565 S
H291 C299 0.930 . S
H292 C302 0.930 . S
H293 C303 0.930 . S
C294 H288 0.930 . S
C294 C295 1.355 . S
C294 C296 1.415 . S
C295 C294 1.355 . S
C295 C297 1.419 . S
C296 C294 1.415 . S
C296 C301 1.425 . S
C296 C303 1.409 . S
C297 H289 0.930 . S
C297 C295 1.419 . S
C297 C298 1.362 . S
C298 H290 0.930 1_545 S
C298 C297 1.362 . S
C298 C301 1.409 . S
C299 H291 0.930 . S
C299 C300 1.355 . S
C299 C301 1.415 1_565 S
C300 C299 1.355 . S
C300 C302 1.419 . S
C301 C296 1.425 . S
C301 C298 1.409 . S
C301 C299 1.415 1_545 S
C302 H292 0.930 . S
C302 C300 1.419 . S
C302 C303 1.362 1_565 S
C303 H293 0.930 . S
C303 C296 1.409 . S
C303 C302 1.362 1_545 S
H304 C310 0.930 . S
H305 C313 0.930 . S
H306 C314 0.930 . S
H307 C315 0.930 . S
H308 C318 0.930 . S
H309 C319 0.930 . S
C310 H304 0.930 . S
C310 C311 1.355 . S
C310 C312 1.415 . S
C311 C310 1.355 . S
C311 C313 1.419 . S
C312 C310 1.415 . S
C312 C317 1.425 . S
C312 C319 1.409 . S
C313 H305 0.930 . S
C313 C311 1.419 . S
C313 C314 1.362 . S
C314 H306 0.930 . S
C314 C313 1.362 . S
C314 C317 1.409 . S
C315 H307 0.930 . S
C315 C316 1.355 . S
C315 C317 1.415 . S
C316 C315 1.355 . S
C316 C318 1.419 . S
C317 C312 1.425 . S
C317 C314 1.409 . S
C317 C315 1.415 . S
C318 H308 0.930 . S
C318 C316 1.419 . S
C318 C319 1.362 . S
C319 H309 0.930 . S
C319 C312 1.409 . S
C319 C318 1.362 . S
H320 C326 0.930 . S
H321 C329 0.930 . S
H322 C330 0.930 . S
H323 C331 0.930 . S
H324 C334 0.930 . S
H325 C335 0.930 1_565 S
C326 H320 0.930 . S
C326 C327 1.355 . S
C326 C328 1.415 . S
C327 C326 1.355 . S
C327 C329 1.419 1_556 S
C328 C326 1.415 . S
C328 C333 1.425 1_565 S
C328 C335 1.409 1_565 S
C329 H321 0.930 . S
C329 C327 1.419 1_554 S
C329 C330 1.362 1_565 S
C330 H322 0.930 . S
C330 C329 1.362 1_545 S
C330 C333 1.409 1_554 S
C331 H323 0.930 . S
C331 C332 1.355 . S
C331 C333 1.415 . S
C332 C331 1.355 . S
C332 C334 1.419 . S
C333 C328 1.425 1_545 S
C333 C330 1.409 1_556 S
C333 C331 1.415 . S
C334 H324 0.930 . S
C334 C332 1.419 . S
C334 C335 1.362 . S
C335 H325 0.930 1_545 S
C335 C328 1.409 1_545 S
C335 C334 1.362 . S
H336 C342 0.930 . S
H337 C345 0.930 . S
H338 C346 0.930 . S
H339 C347 0.930 . S
H340 C350 0.930 . S
H341 C351 0.930 . S
C342 H336 0.930 . S
C342 C343 1.355 . S
C342 C344 1.415 . S
C343 C342 1.355 . S
C343 C345 1.419 . S
C344 C342 1.415 . S
C344 C349 1.425 . S
C344 C351 1.409 . S
C345 H337 0.930 . S
C345 C343 1.419 . S
C345 C346 1.362 . S
C346 H338 0.930 . S
C346 C345 1.362 . S
C346 C349 1.409 . S
C347 H339 0.930 . S
C347 C348 1.355 . S
C347 C349 1.415 . S
C348 C347 1.355 . S
C348 C350 1.419 . S
C349 C344 1.425 . S
C349 C346 1.409 . S
C349 C347 1.415 . S
C350 H340 0.930 . S
C350 C348 1.419 . S
C350 C351 1.362 . S
C351 H341 0.930 . S
C351 C344 1.409 . S
C351 C350 1.362 . S
H352 C358 0.930 . S
H353 C361 0.930 . S
H354 C362 0.930 . S
H355 C363 0.930 . S
H356 C366 0.930 . S
H357 C367 0.930 . S
C358 H352 0.930 . S
C358 C359 1.355 . S
C358 C360 1.415 . S
C359 C358 1.355 . S
C359 C361 1.419 . S
C360 C358 1.415 . S
C360 C365 1.425 . S
C360 C367 1.409 . S
C361 H353 0.930 . S
C361 C359 1.419 . S
C361 C362 1.362 . S
C362 H354 0.930 . S
C362 C361 1.362 . S
C362 C365 1.409 . S
C363 H355 0.930 . S
C363 C364 1.355 . S
C363 C365 1.415 . S
C364 C363 1.355 . S
C364 C366 1.419 . S
C365 C360 1.425 . S
C365 C362 1.409 . S
C365 C363 1.415 . S
C366 H356 0.930 . S
C366 C364 1.419 . S
C366 C367 1.362 . S
C367 H357 0.930 . S
C367 C360 1.409 . S
C367 C366 1.362 . S
H368 C374 0.930 1_455 S
H369 C377 0.930 . S
H370 C378 0.930 . S
H371 C379 0.930 . S
H372 C382 0.930 . S
H373 C383 0.930 . S
C374 H368 0.930 1_655 S
C374 C375 1.355 1_655 S
C374 C376 1.415 . S
C375 C374 1.355 1_455 S
C375 C377 1.419 1_455 S
C376 C374 1.415 . S
C376 C381 1.425 . S
C376 C383 1.409 . S
C377 H369 0.930 . S
C377 C375 1.419 1_655 S
C377 C378 1.362 . S
C378 H370 0.930 . S
C378 C377 1.362 . S
C378 C381 1.409 . S
C379 H371 0.930 . S
C379 C380 1.355 . S
C379 C381 1.415 . S
C380 C379 1.355 . S
C380 C382 1.419 . S
C381 C376 1.425 . S
C381 C378 1.409 . S
C381 C379 1.415 . S
C382 H372 0.930 . S
C382 C380 1.419 . S
C382 C383 1.362 . S
C383 H373 0.930 . S
C383 C376 1.409 . S
C383 C382 1.362 . S
H384 C390 0.930 . S
H385 C393 0.930 . S
H386 C394 0.930 . S
H387 C395 0.930 . S
H388 C398 0.930 . S
H389 C399 0.930 . S
C390 H384 0.930 . S
C390 C391 1.355 . S
C390 C392 1.415 . S
C391 C390 1.355 . S
C391 C393 1.419 . S
C392 C390 1.415 . S
C392 C397 1.425 . S
C392 C399 1.409 . S
C393 H385 0.930 . S
C393 C391 1.419 . S
C393 C394 1.362 . S
C394 H386 0.930 . S
C394 C393 1.362 . S
C394 C397 1.409 . S
C395 H387 0.930 . S
C395 C396 1.355 . S
C395 C397 1.415 . S
C396 C395 1.355 . S
C396 C398 1.419 . S
C397 C392 1.425 . S
C397 C394 1.409 . S
C397 C395 1.415 . S
C398 H388 0.930 . S
C398 C396 1.419 . S
C398 C399 1.362 . S
C399 H389 0.930 . S
C399 C392 1.409 . S
C399 C398 1.362 . S
H400 C406 0.930 . S
H401 C409 0.930 . S
H402 C410 0.930 1_455 S
H403 C411 0.930 . S
H404 C414 0.930 . S
H405 C415 0.930 . S
C406 H400 0.930 . S
C406 C407 1.355 . S
C406 C408 1.415 . S
C407 C406 1.355 . S
C407 C409 1.419 . S
C408 C406 1.415 . S
C408 C413 1.425 . S
C408 C415 1.409 . S
C409 H401 0.930 . S
C409 C407 1.419 . S
C409 C410 1.362 . S
C410 H402 0.930 1_655 S
C410 C409 1.362 . S
C410 C413 1.409 . S
C411 H403 0.930 . S
C411 C412 1.355 1_455 S
C411 C413 1.415 1_455 S
C412 C411 1.355 1_655 S
C412 C414 1.419 . S
C413 C408 1.425 . S
C413 C410 1.409 . S
C413 C411 1.415 1_655 S
C414 H404 0.930 . S
C414 C412 1.419 . S
C414 C415 1.362 . S
C415 H405 0.930 . S
C415 C408 1.409 . S
C415 C414 1.362 . S
H416 C422 0.930 . S
H417 C425 0.930 . S
H418 C426 0.930 . S
H419 C427 0.930 . S
H420 C430 0.930 . S
H421 C431 0.930 . S
C422 H416 0.930 . S
C422 C423 1.355 . S
C422 C424 1.415 . S
C423 C422 1.355 . S
C423 C425 1.419 . S
C424 C422 1.415 . S
C424 C429 1.425 . S
C424 C431 1.409 . S
C425 H417 0.930 . S
C425 C423 1.419 . S
C425 C426 1.362 . S
C426 H418 0.930 . S
C426 C425 1.362 . S
C426 C429 1.409 . S
C427 H419 0.930 . S
C427 C428 1.355 . S
C427 C429 1.415 . S
C428 C427 1.355 . S
C428 C430 1.419 . S
C429 C424 1.425 . S
C429 C426 1.409 . S
C429 C427 1.415 . S
C430 H420 0.930 . S
C430 C428 1.419 . S
C430 C431 1.362 . S
C431 H421 0.930 . S
C431 C424 1.409 . S
C431 C430 1.362 . S
H432 C438 0.930 . S
H433 C441 0.930 . S
H434 C442 0.930 . S
H435 C443 0.930 . S
H436 C446 0.930 . S
H437 C447 0.930 . S
C438 H432 0.930 . S
C438 C439 1.355 . S
C438 C440 1.415 . S
C439 C438 1.355 . S
C439 C441 1.419 . S
C440 C438 1.415 . S
C440 C445 1.425 . S
C440 C447 1.409 . S
C441 H433 0.930 . S
C441 C439 1.419 . S
C441 C442 1.362 . S
C442 H434 0.930 . S
C442 C441 1.362 . S
C442 C445 1.409 . S
C443 H435 0.930 . S
C443 C444 1.355 . S
C443 C445 1.415 . S
C444 C443 1.355 . S
C444 C446 1.419 . S
C445 C440 1.425 . S
C445 C442 1.409 . S
C445 C443 1.415 . S
C446 H436 0.930 . S
C446 C444 1.419 . S
C446 C447 1.362 . S
C447 H437 0.930 . S
C447 C440 1.409 . S
C447 C446 1.362 . S
H448 C454 0.930 . S
H449 C457 0.930 . S
H450 C458 0.930 . S
H451 C459 0.930 . S
H452 C462 0.930 . S
H453 C463 0.930 . S
C454 H448 0.930 . S
C454 C455 1.355 . S
C454 C456 1.415 . S
C455 C454 1.355 . S
C455 C457 1.419 . S
C456 C454 1.415 . S
C456 C461 1.425 . S
C456 C463 1.409 . S
C457 H449 0.930 . S
C457 C455 1.419 . S
C457 C458 1.362 . S
C458 H450 0.930 . S
C458 C457 1.362 . S
C458 C461 1.409 . S
C459 H451 0.930 . S
C459 C460 1.355 . S
C459 C461 1.415 . S
C460 C459 1.355 . S
C460 C462 1.419 . S
C461 C456 1.425 . S
C461 C458 1.409 . S
C461 C459 1.415 . S
C462 H452 0.930 . S
C462 C460 1.419 . S
C462 C463 1.362 . S
C463 H453 0.930 . S
C463 C456 1.409 . S
C463 C462 1.362 . S
H464 C470 0.930 . S
H465 C473 0.930 . S
H466 C474 0.930 . S
H467 C475 0.930 . S
H468 C478 0.930 . S
H469 C479 0.930 . S
C470 H464 0.930 . S
C470 C471 1.355 . S
C470 C472 1.415 . S
C471 C470 1.355 . S
C471 C473 1.419 . S
C472 C470 1.415 . S
C472 C477 1.425 . S
C472 C479 1.409 . S
C473 H465 0.930 . S
C473 C471 1.419 . S
C473 C474 1.362 . S
C474 H466 0.930 . S
C474 C473 1.362 . S
C474 C477 1.409 . S
C475 H467 0.930 . S
C475 C476 1.355 . S
C475 C477 1.415 . S
C476 C475 1.355 . S
C476 C478 1.419 . S
C477 C472 1.425 . S
C477 C474 1.409 . S
C477 C475 1.415 . S
C478 H468 0.930 . S
C478 C476 1.419 . S
C478 C479 1.362 . S
C479 H469 0.930 . S
C479 C472 1.409 . S
C479 C478 1.362 . S
H480 C486 0.930 . S
H481 C489 0.930 . S
H482 C490 0.930 . S
H483 C491 0.930 . S
H484 C494 0.930 . S
H485 C495 0.930 . S
C486 H480 0.930 . S
C486 C487 1.355 . S
C486 C488 1.415 . S
C487 C486 1.355 . S
C487 C489 1.419 . S
C488 C486 1.415 . S
C488 C493 1.425 . S
C488 C495 1.409 . S
C489 H481 0.930 . S
C489 C487 1.419 . S
C489 C490 1.362 . S
C490 H482 0.930 . S
C490 C489 1.362 . S
C490 C493 1.409 . S
C491 H483 0.930 . S
C491 C492 1.355 . S
C491 C493 1.415 . S
C492 C491 1.355 . S
C492 C494 1.419 . S
C493 C488 1.425 . S
C493 C490 1.409 . S
C493 C491 1.415 . S
C494 H484 0.930 . S
C494 C492 1.419 . S
C494 C495 1.362 . S
C495 H485 0.930 . S
C495 C488 1.409 . S
C495 C494 1.362 . S
H496 C502 0.930 . S
H497 C505 0.930 . S
H498 C506 0.930 . S
H499 C507 0.930 . S
H500 C510 0.930 . S
H501 C511 0.930 . S
C502 H496 0.930 . S
C502 C503 1.355 . S
C502 C504 1.415 . S
C503 C502 1.355 . S
C503 C505 1.419 . S
C504 C502 1.415 . S
C504 C509 1.425 . S
C504 C511 1.409 . S
C505 H497 0.930 . S
C505 C503 1.419 . S
C505 C506 1.362 . S
C506 H498 0.930 . S
C506 C505 1.362 . S
C506 C509 1.409 . S
C507 H499 0.930 . S
C507 C508 1.355 . S
C507 C509 1.415 . S
C508 C507 1.355 . S
C508 C510 1.419 . S
C509 C504 1.425 . S
C509 C506 1.409 . S
C509 C507 1.415 . S
C510 H500 0.930 . S
C510 C508 1.419 . S
C510 C511 1.362 . S
C511 H501 0.930 . S
C511 C504 1.409 . S
C511 C510 1.362 . S
H512 C518 0.930 . S
H513 C521 0.930 . S
H514 C522 0.930 . S
H515 C523 0.930 . S
H516 C526 0.930 . S
H517 C527 0.930 . S
C518 H512 0.930 . S
C518 C519 1.355 . S
C518 C520 1.415 . S
C519 C518 1.355 . S
C519 C521 1.419 . S
C520 C518 1.415 . S
C520 C525 1.425 . S
C520 C527 1.409 . S
C521 H513 0.930 . S
C521 C519 1.419 . S
C521 C522 1.362 . S
C522 H514 0.930 . S
C522 C521 1.362 . S
C522 C525 1.409 . S
C523 H515 0.930 . S
C523 C524 1.355 . S
C523 C525 1.415 . S
C524 C523 1.355 . S
C524 C526 1.419 . S
C525 C520 1.425 . S
C525 C522 1.409 . S
C525 C523 1.415 . S
C526 H516 0.930 . S
C526 C524 1.419 . S
C526 C527 1.362 . S
C527 H517 0.930 . S
C527 C520 1.409 . S
C527 C526 1.362 . S
H528 C534 0.930 . S
H529 C537 0.930 . S
H530 C538 0.930 . S
H531 C539 0.930 . S
H532 C542 0.930 . S
H533 C543 0.930 . S
C534 H528 0.930 . S
C534 C535 1.355 . S
C534 C536 1.415 . S
C535 C534 1.355 . S
C535 C537 1.419 . S
C536 C534 1.415 . S
C536 C541 1.425 . S
C536 C543 1.409 . S
C537 H529 0.930 . S
C537 C535 1.419 . S
C537 C538 1.362 . S
C538 H530 0.930 . S
C538 C537 1.362 . S
C538 C541 1.409 . S
C539 H531 0.930 . S
C539 C540 1.355 . S
C539 C541 1.415 . S
C540 C539 1.355 . S
C540 C542 1.419 . S
C541 C536 1.425 . S
C541 C538 1.409 . S
C541 C539 1.415 . S
C542 H532 0.930 . S
C542 C540 1.419 . S
C542 C543 1.362 . S
C543 H533 0.930 . S
C543 C536 1.409 . S
C543 C542 1.362 . S
C167 C8 1.419 . S
C172 C93 1.407 . S
C183 C31 1.273 . S
C188 C101 1.297 . S
C199 C53 1.413 . S
C204 C110 1.378 . S
C220 C120 1.373 . S
C215 C74 1.332 . S
C236 C129 1.429 . S
C231 C26 1.383 . S
C247 C48 1.345 . S
C252 C138 1.366 . S
C263 C71 1.399 . S
C268 C146 1.445 . S
C279 C5 1.278 . S
C284 C156 1.302 1_455 S
C295 C50 1.380 . S
C300 C155 1.431 . S
C316 C128 1.300 . S
C311 C70 1.284 . S
C332 C137 1.400 . S
C327 C4 1.389 1_556 S
C343 C28 1.336 . S
C348 C147 1.380 . S
C364 C102 1.400 . S
C359 C73 1.400 . S
C375 C7 1.351 . S
C380 C111 1.373 . S
C396 C119 1.387 . S
C391 C30 1.393 . S
C412 C92 1.313 1_655 S
C407 C52 1.270 . S
C428 C149 1.367 . S
C423 C9 1.431 . S
C444 C158 1.348 . S
C439 C29 1.340 . S
C455 C51 1.308 . S
C460 C131 1.296 . S
C476 C140 1.391 . S
C471 C75 1.442 . S
C492 C113 1.366 . S
C487 C27 1.435 . S
C503 C49 1.427 . S
C508 C122 1.423 . S
C524 C95 1.346 . S
C519 C72 1.348 . S
C540 C104 1.328 . S
C535 C6 1.321 . S
