# Generated by pormake.
# Topology ptr, (4,4)-cn, num edge types: 1
# Building blocks:
#     Node 0, Type 0, BuildingBlock: QUQFOY_clean_sbu_3, # of connection points: 4
#     Node 1, Type 0, BuildingBlock: QUQFOY_clean_sbu_3, # of connection points: 4
#     Node 2, Type 0, BuildingBlock: QUQFOY_clean_sbu_3, # of connection points: 4
#     Node 3, Type 0, BuildingBlock: QUQFOY_clean_sbu_3, # of connection points: 4
#     Node 4, Type 0, BuildingBlock: QUQFOY_clean_sbu_3, # of connection points: 4
#     Node 5, Type 0, BuildingBlock: QUQFOY_clean_sbu_3, # of connection points: 4
#     Node 6, Type 0, BuildingBlock: QUQFOY_clean_sbu_3, # of connection points: 4
#     Node 7, Type 0, BuildingBlock: QUQFOY_clean_sbu_3, # of connection points: 4
#     Node 8, Type 0, BuildingBlock: QUQFOY_clean_sbu_3, # of connection points: 4
#     Node 9, Type 0, BuildingBlock: QUQFOY_clean_sbu_3, # of connection points: 4
#     Node 10, Type 0, BuildingBlock: QUQFOY_clean_sbu_3, # of connection points: 4
#     Node 11, Type 0, BuildingBlock: QUQFOY_clean_sbu_3, # of connection points: 4
#     Node 12, Type 0, BuildingBlock: QUQFOY_clean_sbu_3, # of connection points: 4
#     Node 13, Type 0, BuildingBlock: QUQFOY_clean_sbu_3, # of connection points: 4
#     Node 14, Type 0, BuildingBlock: QUQFOY_clean_sbu_3, # of connection points: 4
#     Node 15, Type 0, BuildingBlock: QUQFOY_clean_sbu_3, # of connection points: 4
#     Node 16, Type 0, BuildingBlock: QUQFOY_clean_sbu_3, # of connection points: 4
#     Node 17, Type 0, BuildingBlock: QUQFOY_clean_sbu_3, # of connection points: 4
#     Node 18, Type 1, BuildingBlock: MIFKUJ_clean_linker_1, # of connection points: 4
#     Node 19, Type 1, BuildingBlock: MIFKUJ_clean_linker_1, # of connection points: 4
#     Node 20, Type 1, BuildingBlock: MIFKUJ_clean_linker_1, # of connection points: 4
#     Node 21, Type 1, BuildingBlock: MIFKUJ_clean_linker_1, # of connection points: 4
#     Node 22, Type 1, BuildingBlock: MIFKUJ_clean_linker_1, # of connection points: 4
#     Node 23, Type 1, BuildingBlock: MIFKUJ_clean_linker_1, # of connection points: 4
#     Node 24, Type 1, BuildingBlock: MIFKUJ_clean_linker_1, # of connection points: 4
#     Node 25, Type 1, BuildingBlock: MIFKUJ_clean_linker_1, # of connection points: 4
#     Node 26, Type 1, BuildingBlock: MIFKUJ_clean_linker_1, # of connection points: 4
#     Node 27, Type 1, BuildingBlock: MIFKUJ_clean_linker_1, # of connection points: 4
#     Node 28, Type 1, BuildingBlock: MIFKUJ_clean_linker_1, # of connection points: 4
#     Node 29, Type 1, BuildingBlock: MIFKUJ_clean_linker_1, # of connection points: 4
#     Node 30, Type 1, BuildingBlock: MIFKUJ_clean_linker_1, # of connection points: 4
#     Node 31, Type 1, BuildingBlock: MIFKUJ_clean_linker_1, # of connection points: 4
#     Node 32, Type 1, BuildingBlock: MIFKUJ_clean_linker_1, # of connection points: 4
#     Node 33, Type 1, BuildingBlock: MIFKUJ_clean_linker_1, # of connection points: 4
#     Node 34, Type 1, BuildingBlock: MIFKUJ_clean_linker_1, # of connection points: 4
#     Node 35, Type 1, BuildingBlock: MIFKUJ_clean_linker_1, # of connection points: 4
#     Edge 36, Type (0, 1), BuildingBlock: AJUNOK_clean_linker_0, # of connection points: 2
#     Edge 37, Type (0, 1), BuildingBlock: AJUNOK_clean_linker_0, # of connection points: 2
#     Edge 38, Type (0, 1), BuildingBlock: AJUNOK_clean_linker_0, # of connection points: 2
#     Edge 39, Type (0, 1), BuildingBlock: AJUNOK_clean_linker_0, # of connection points: 2
#     Edge 40, Type (0, 1), BuildingBlock: AJUNOK_clean_linker_0, # of connection points: 2
#     Edge 41, Type (0, 1), BuildingBlock: AJUNOK_clean_linker_0, # of connection points: 2
#     Edge 42, Type (0, 1), BuildingBlock: AJUNOK_clean_linker_0, # of connection points: 2
#     Edge 43, Type (0, 1), BuildingBlock: AJUNOK_clean_linker_0, # of connection points: 2
#     Edge 44, Type (0, 1), BuildingBlock: AJUNOK_clean_linker_0, # of connection points: 2
#     Edge 45, Type (0, 1), BuildingBlock: AJUNOK_clean_linker_0, # of connection points: 2
#     Edge 46, Type (0, 1), BuildingBlock: AJUNOK_clean_linker_0, # of connection points: 2
#     Edge 47, Type (0, 1), BuildingBlock: AJUNOK_clean_linker_0, # of connection points: 2
#     Edge 48, Type (0, 1), BuildingBlock: AJUNOK_clean_linker_0, # of connection points: 2
#     Edge 49, Type (0, 1), BuildingBlock: AJUNOK_clean_linker_0, # of connection points: 2
#     Edge 50, Type (0, 1), BuildingBlock: AJUNOK_clean_linker_0, # of connection points: 2
#     Edge 51, Type (0, 1), BuildingBlock: AJUNOK_clean_linker_0, # of connection points: 2
#     Edge 52, Type (0, 1), BuildingBlock: AJUNOK_clean_linker_0, # of connection points: 2
#     Edge 53, Type (0, 1), BuildingBlock: AJUNOK_clean_linker_0, # of connection points: 2
#     Edge 54, Type (0, 1), BuildingBlock: AJUNOK_clean_linker_0, # of connection points: 2
#     Edge 55, Type (0, 1), BuildingBlock: AJUNOK_clean_linker_0, # of connection points: 2
#     Edge 56, Type (0, 1), BuildingBlock: AJUNOK_clean_linker_0, # of connection points: 2
#     Edge 57, Type (0, 1), BuildingBlock: AJUNOK_clean_linker_0, # of connection points: 2
#     Edge 58, Type (0, 1), BuildingBlock: AJUNOK_clean_linker_0, # of connection points: 2
#     Edge 59, Type (0, 1), BuildingBlock: AJUNOK_clean_linker_0, # of connection points: 2
#     Edge 60, Type (0, 1), BuildingBlock: AJUNOK_clean_linker_0, # of connection points: 2
#     Edge 61, Type (0, 1), BuildingBlock: AJUNOK_clean_linker_0, # of connection points: 2
#     Edge 62, Type (0, 1), BuildingBlock: AJUNOK_clean_linker_0, # of connection points: 2
#     Edge 63, Type (0, 1), BuildingBlock: AJUNOK_clean_linker_0, # of connection points: 2
#     Edge 64, Type (0, 1), BuildingBlock: AJUNOK_clean_linker_0, # of connection points: 2
#     Edge 65, Type (0, 1), BuildingBlock: AJUNOK_clean_linker_0, # of connection points: 2
#     Edge 66, Type (0, 1), BuildingBlock: AJUNOK_clean_linker_0, # of connection points: 2
#     Edge 67, Type (0, 1), BuildingBlock: AJUNOK_clean_linker_0, # of connection points: 2
#     Edge 68, Type (0, 1), BuildingBlock: AJUNOK_clean_linker_0, # of connection points: 2
#     Edge 69, Type (0, 1), BuildingBlock: AJUNOK_clean_linker_0, # of connection points: 2
#     Edge 70, Type (0, 1), BuildingBlock: AJUNOK_clean_linker_0, # of connection points: 2
#     Edge 71, Type (0, 1), BuildingBlock: AJUNOK_clean_linker_0, # of connection points: 2
#     Edge 72, Type (0, 1), BuildingBlock: AJUNOK_clean_linker_0, # of connection points: 2
#     Edge 73, Type (0, 1), BuildingBlock: AJUNOK_clean_linker_0, # of connection points: 2
#     Edge 74, Type (0, 1), BuildingBlock: AJUNOK_clean_linker_0, # of connection points: 2
#     Edge 75, Type (0, 1), BuildingBlock: AJUNOK_clean_linker_0, # of connection points: 2
#     Edge 76, Type (0, 1), BuildingBlock: AJUNOK_clean_linker_0, # of connection points: 2
#     Edge 77, Type (0, 1), BuildingBlock: AJUNOK_clean_linker_0, # of connection points: 2
#     Edge 78, Type (0, 1), BuildingBlock: AJUNOK_clean_linker_0, # of connection points: 2
#     Edge 79, Type (0, 1), BuildingBlock: AJUNOK_clean_linker_0, # of connection points: 2
#     Edge 80, Type (0, 1), BuildingBlock: AJUNOK_clean_linker_0, # of connection points: 2
#     Edge 81, Type (0, 1), BuildingBlock: AJUNOK_clean_linker_0, # of connection points: 2
#     Edge 82, Type (0, 1), BuildingBlock: AJUNOK_clean_linker_0, # of connection points: 2
#     Edge 83, Type (0, 1), BuildingBlock: AJUNOK_clean_linker_0, # of connection points: 2
#     Edge 84, Type (0, 1), BuildingBlock: AJUNOK_clean_linker_0, # of connection points: 2
#     Edge 85, Type (0, 1), BuildingBlock: AJUNOK_clean_linker_0, # of connection points: 2
#     Edge 86, Type (0, 1), BuildingBlock: AJUNOK_clean_linker_0, # of connection points: 2
#     Edge 87, Type (0, 1), BuildingBlock: AJUNOK_clean_linker_0, # of connection points: 2
#     Edge 88, Type (0, 1), BuildingBlock: AJUNOK_clean_linker_0, # of connection points: 2
#     Edge 89, Type (0, 1), BuildingBlock: AJUNOK_clean_linker_0, # of connection points: 2
#     Edge 90, Type (0, 1), BuildingBlock: AJUNOK_clean_linker_0, # of connection points: 2
#     Edge 91, Type (0, 1), BuildingBlock: AJUNOK_clean_linker_0, # of connection points: 2
#     Edge 92, Type (0, 1), BuildingBlock: AJUNOK_clean_linker_0, # of connection points: 2
#     Edge 93, Type (0, 1), BuildingBlock: AJUNOK_clean_linker_0, # of connection points: 2
#     Edge 94, Type (0, 1), BuildingBlock: AJUNOK_clean_linker_0, # of connection points: 2
#     Edge 95, Type (0, 1), BuildingBlock: AJUNOK_clean_linker_0, # of connection points: 2
#     Edge 96, Type (0, 1), BuildingBlock: AJUNOK_clean_linker_0, # of connection points: 2
#     Edge 97, Type (0, 1), BuildingBlock: AJUNOK_clean_linker_0, # of connection points: 2
#     Edge 98, Type (0, 1), BuildingBlock: AJUNOK_clean_linker_0, # of connection points: 2
#     Edge 99, Type (0, 1), BuildingBlock: AJUNOK_clean_linker_0, # of connection points: 2
#     Edge 100, Type (0, 1), BuildingBlock: AJUNOK_clean_linker_0, # of connection points: 2
#     Edge 101, Type (0, 1), BuildingBlock: AJUNOK_clean_linker_0, # of connection points: 2
#     Edge 102, Type (0, 1), BuildingBlock: AJUNOK_clean_linker_0, # of connection points: 2
#     Edge 103, Type (0, 1), BuildingBlock: AJUNOK_clean_linker_0, # of connection points: 2
#     Edge 104, Type (0, 1), BuildingBlock: AJUNOK_clean_linker_0, # of connection points: 2
#     Edge 105, Type (0, 1), BuildingBlock: AJUNOK_clean_linker_0, # of connection points: 2
#     Edge 106, Type (0, 1), BuildingBlock: AJUNOK_clean_linker_0, # of connection points: 2
#     Edge 107, Type (0, 1), BuildingBlock: AJUNOK_clean_linker_0, # of connection points: 2
# Relax obj value: 0.033
# Max RMSD: 0.123
# Mean RMSD: 0.057
data_MOF--net-ptr--node1-QUQFOY_clean_sbu_3--node2-MIFKUJ_clean_linker_1--edge1-AJUNOK_clean_linker_0
_symmetry_space_group_name_H-M    P1
_symmetry_Int_Tables_number       1
_symmetry_cell_setting            triclinic
loop_
_symmetry_equiv_pos_as_xyz
'x, y, z'
_cell_length_a     70.836475
_cell_length_b     71.260302
_cell_length_c     49.135731
_cell_angle_alpha  90.493478
_cell_angle_beta   89.441086
_cell_angle_gamma 120.54499
loop_
_atom_site_label
_atom_site_type_symbol
_atom_site_fract_x
_atom_site_fract_y
_atom_site_fract_z
_atom_type_partial_charge
C0 C 0.95706 0.31014 0.00162 0.0
O1 O 0.94513 0.31661 0.01285 0.0
Cd2 Cd 0.96003 0.35223 0.03274 0.0
O3 O 0.97785 0.32137 0.00336 0.0
Cd4 Cd 0.00662 0.35462 0.02646 0.0
C5 C 0.99625 0.38352 0.98105 0.0
O6 O 0.98593 0.35617 0.06595 0.0
O7 O 0.01747 0.38477 0.05812 0.0
O8 O 0.01836 0.33083 0.0449 0.0
C9 C 0.00055 0.37523 0.07315 0.0
O10 O 0.97885 0.37717 0.99511 0.0
C11 C 0.03845 0.34256 0.03846 0.0
O12 O 0.00961 0.37713 0.98691 0.0
O13 O 0.04388 0.36 0.02551 0.0
C14 C 0.64023 0.6901 0.02649 0.0
O15 O 0.62051 0.68165 0.01869 0.0
Cd16 Cd 0.60076 0.64585 -0.00112 0.0
O17 O 0.65121 0.68085 0.02139 0.0
Cd18 Cd 0.6472 0.64889 0.99631 0.0
C19 C 0.61242 0.61681 0.04533 0.0
O20 O 0.62139 0.64493 0.96083 0.0
O21 O 0.62682 0.61797 0.96602 0.0
O22 O 0.68037 0.67223 0.97085 0.0
C23 C 0.61777 0.62644 0.95273 0.0
O24 O 0.59885 0.62122 0.03451 0.0
C25 C 0.69089 0.6633 0.97891 0.0
O26 O 0.63198 0.6254 0.03625 0.0
O27 O 0.68112 0.64759 0.99554 0.0
C28 C 0.31364 0.9537 0.02506 0.0
O29 O 0.32184 0.94272 0.01573 0.0
Cd30 Cd 0.35845 0.95946 0.99855 0.0
O31 O 0.32396 0.97439 0.02332 0.0
Cd32 Cd 0.35813 0.00381 0.00277 0.0
C33 C 0.38652 0.99586 0.05098 0.0
O34 O 0.3603 0.98345 0.96378 0.0
O35 O 0.38922 0.0143 0.97233 0.0
O36 O 0.33424 0.01622 0.986 0.0
C37 C 0.37949 0.99793 0.9567 0.0
O38 O 0.38205 0.97879 0.03738 0.0
C39 C 0.34772 0.0363 0.99001 0.0
O40 O 0.37899 0.00789 0.04374 0.0
O41 O 0.36585 0.04132 0.00101 0.0
C42 C 0.94062 0.63406 0.99479 0.0
O43 O 0.92979 0.61481 0.00401 0.0
Cd44 Cd 0.94732 0.59677 0.02347 0.0
O45 O 0.96132 0.6451 0.99763 0.0
Cd46 Cd 0.99115 0.64214 0.0188 0.0
C47 C 0.9842 0.60452 0.9718 0.0
O48 O 0.97247 0.61882 0.05809 0.0
O49 O 0.00384 0.62291 0.04655 0.0
O50 O 0.00161 0.67527 0.04361 0.0
C51 C 0.98796 0.61534 0.06331 0.0
O52 O 0.96711 0.59217 0.98575 0.0
C53 C 0.02105 0.68604 0.03448 0.0
O54 O 0.99627 0.6246 0.97816 0.0
O55 O 0.02671 0.67662 0.01682 0.0
C56 C 0.31492 0.36631 0.03226 0.0
O57 O 0.32371 0.38578 0.02386 0.0
Cd58 Cd 0.35758 0.40395 -0.00069 0.0
O59 O 0.32373 0.35492 0.02688 0.0
Cd60 Cd 0.35562 0.35817 0.00146 0.0
C61 C 0.39046 0.39709 0.04509 0.0
O62 O 0.35437 0.3796 0.96372 0.0
O63 O 0.38308 0.37666 0.96582 0.0
O64 O 0.32951 0.32117 0.98682 0.0
C65 C 0.37226 0.38338 0.95292 0.0
O66 O 0.38519 0.40936 0.03268 0.0
C67 C 0.34256 0.31403 0.98911 0.0
O68 O 0.38129 0.3769 0.03906 0.0
O69 O 0.36164 0.32729 0.99795 0.0
C70 C 0.69331 0.04639 0.99063 0.0
O71 O 0.68421 0.05721 0.99722 0.0
Cd72 Cd 0.64894 0.04246 0.018 0.0
O73 O 0.68418 0.02616 0.9962 0.0
Cd74 Cd 0.65027 0.99756 0.01939 0.0
C75 C 0.62034 0.00249 0.96948 0.0
O76 O 0.64801 0.0207 0.055 0.0
O77 O 0.62036 0.98802 0.05164 0.0
O78 O 0.6749 0.98694 0.03938 0.0
C79 C 0.62945 0.00617 0.06399 0.0
O80 O 0.62533 0.02044 0.98116 0.0
C81 C 0.66187 0.96659 0.03678 0.0
O82 O 0.62736 0.99041 0.97842 0.0
O83 O 0.64381 0.96061 0.02487 0.0
C84 C 0.62217 0.64412 0.33012 0.0
O85 O 0.61069 0.65168 0.33982 0.0
Cd86 Cd 0.62606 0.6874 0.35913 0.0
O87 O 0.64295 0.65465 0.33248 0.0
Cd88 Cd 0.67156 0.68804 0.35603 0.0
C89 C 0.66495 0.71904 0.30997 0.0
O90 O 0.65015 0.69014 0.3941 0.0
O91 O 0.68148 0.71896 0.38657 0.0
O92 O 0.68206 0.6655 0.38031 0.0
C93 C 0.66439 0.70931 0.40134 0.0
O94 O 0.64705 0.71291 0.32283 0.0
C95 C 0.70186 0.67502 0.37239 0.0
O96 O 0.67738 0.71169 0.3165 0.0
O97 O 0.70787 0.69069 0.35577 0.0
C98 C 0.30202 0.01741 0.36338 0.0
O99 O 0.28185 0.00788 0.35724 0.0
Cd100 Cd 0.26304 0.97334 0.33425 0.0
O101 O 0.31359 0.00907 0.3567 0.0
Cd102 Cd 0.30897 0.97648 0.33223 0.0
C103 C 0.27351 0.9435 0.38013 0.0
O104 O 0.28393 0.97345 0.2956 0.0
O105 O 0.28829 0.94599 0.30162 0.0
O106 O 0.34478 0.00198 0.31292 0.0
C107 C 0.27994 0.95478 0.28767 0.0
O108 O 0.25994 0.94739 0.36835 0.0
C109 C 0.35281 0.98979 0.31613 0.0
O110 O 0.29354 0.95319 0.37259 0.0
O111 O 0.34052 0.97139 0.32718 0.0
C112 C 0.98112 0.28653 0.36369 0.0
O113 O 0.99094 0.27648 0.35666 0.0
Cd114 Cd 0.02411 0.29167 0.33031 0.0
O115 O 0.98876 0.30635 0.3571 0.0
Cd116 Cd 0.02092 0.3352 0.33273 0.0
C117 C 0.05753 0.33283 0.3742 0.0
O118 O 0.02 0.31205 0.29531 0.0
O119 O 0.04767 0.34473 0.296 0.0
O120 O 0.99629 0.34681 0.31641 0.0
C121 C 0.03746 0.32647 0.28395 0.0
O122 O 0.05319 0.31561 0.36113 0.0
C123 C 0.00894 0.36688 0.32164 0.0
O124 O 0.04683 0.34249 0.37007 0.0
O125 O 0.02697 0.37212 0.33312 0.0
C126 C 0.61154 0.96348 0.32395 0.0
O127 O 0.6016 0.94325 0.32926 0.0
Cd128 Cd 0.61688 0.92521 0.35395 0.0
O129 O 0.63117 0.97612 0.33173 0.0
Cd130 Cd 0.66029 0.97363 0.35594 0.0
C131 C 0.6593 0.93723 0.30957 0.0
O132 O 0.6365 0.94839 0.3913 0.0
O133 O 0.6706 0.95753 0.3922 0.0
O134 O 0.67083 0.01013 0.37224 0.0
C135 C 0.65166 0.9469 0.40271 0.0
O136 O 0.64141 0.92325 0.3209 0.0
C137 C 0.69125 0.01785 0.36881 0.0
O138 O 0.66917 0.9571 0.31724 0.0
O139 O 0.69716 0.00521 0.35855 0.0
C140 C 0.9867 0.7017 0.36625 0.0
O141 O 0.99613 0.72127 0.35807 0.0
Cd142 Cd 0.03051 0.73897 0.33464 0.0
O143 O 0.99505 0.68988 0.3611 0.0
Cd144 Cd 0.02707 0.69268 0.3365 0.0
C145 C 0.06141 0.7303 0.3815 0.0
O146 O 0.02792 0.7152 0.29861 0.0
O147 O 0.0562 0.71178 0.3031 0.0
O148 O 0.00133 0.65609 0.31984 0.0
C149 C 0.04623 0.71893 0.28924 0.0
O150 O 0.05707 0.74317 0.36887 0.0
C151 C 0.01426 0.64885 0.32275 0.0
O152 O 0.05173 0.71014 0.37521 0.0
O153 O 0.03283 0.66171 0.33319 0.0
C154 C 0.36002 0.38093 0.32116 0.0
O155 O 0.35018 0.39073 0.32908 0.0
Cd156 Cd 0.31534 0.37363 0.35129 0.0
O157 O 0.35223 0.36084 0.32654 0.0
Cd158 Cd 0.31976 0.33129 0.35083 0.0
C159 C 0.287 0.33344 0.30307 0.0
O160 O 0.31564 0.35208 0.38794 0.0
O161 O 0.28811 0.31987 0.38072 0.0
O162 O 0.3429 0.3217 0.37609 0.0
C163 C 0.29688 0.33688 0.39546 0.0
O164 O 0.2912 0.35106 0.31506 0.0
C165 C 0.33372 0.30208 0.36796 0.0
O166 O 0.29566 0.32253 0.31099 0.0
O167 O 0.31824 0.29602 0.35097 0.0
C168 C 0.29055 0.98092 0.65828 0.0
O169 O 0.28028 0.99102 0.66247 0.0
Cd170 Cd 0.29497 0.02557 0.68564 0.0
O171 O 0.31021 0.98896 0.66634 0.0
Cd172 Cd 0.33866 0.02178 0.6902 0.0
C173 C 0.33841 0.05656 0.64308 0.0
O174 O 0.31469 0.02471 0.72405 0.0
O175 O 0.34853 0.05082 0.72376 0.0
O176 O 0.34787 -0.00158 0.71536 0.0
C177 C 0.32956 0.04247 0.73432 0.0
O178 O 0.32044 0.05273 0.654 0.0
C179 C 0.36779 0.00767 0.70789 0.0
O180 O 0.34797 0.04633 0.65041 0.0
O181 O 0.37432 0.02343 0.69133 0.0
C182 C 0.9708 0.35327 0.69139 0.0
O183 O 0.95136 0.34461 0.68255 0.0
Cd184 Cd 0.93194 0.30844 0.66435 0.0
O185 O 0.98179 0.34373 0.68838 0.0
Cd186 Cd 0.9774 0.31076 0.66457 0.0
C187 C 0.94226 0.2803 0.7138 0.0
O188 O 0.95273 0.30657 0.62721 0.0
O189 O 0.95581 0.27871 0.63614 0.0
O190 O 0.01181 0.3348 0.64162 0.0
C191 C 0.94817 0.28744 0.6208 0.0
O192 O 0.92912 0.28453 0.70149 0.0
C193 C 0.0208 0.32372 0.64671 0.0
O194 O 0.96207 0.28869 0.70571 0.0
O195 O 0.00976 0.30669 0.66101 0.0
C196 C 0.64597 0.61525 0.69541 0.0
O197 O 0.65512 0.60446 0.68891 0.0
Cd198 Cd 0.69036 0.62063 0.66731 0.0
O199 O 0.65502 0.63533 0.68935 0.0
Cd200 Cd 0.68781 0.66373 0.66554 0.0
C201 C 0.72071 0.66188 0.71335 0.0
O202 O 0.68962 0.64104 0.62944 0.0
O203 O 0.71794 0.67322 0.63381 0.0
O204 O 0.66486 0.67377 0.64107 0.0
C205 C 0.70807 0.6556 0.62028 0.0
O206 O 0.71615 0.64389 0.70212 0.0
C207 C 0.67478 0.69355 0.64859 0.0
O208 O 0.71185 0.67247 0.70503 0.0
O209 O 0.69062 0.69953 0.665 0.0
C210 C 0.28206 0.29925 0.65719 0.0
O211 O 0.27221 0.27962 0.66524 0.0
Cd212 Cd 0.2914 0.26332 0.68507 0.0
O213 O 0.30246 0.31171 0.66135 0.0
Cd214 Cd 0.33271 0.31081 0.68444 0.0
C215 C 0.33241 0.27611 0.63748 0.0
O216 O 0.31275 0.28588 0.72187 0.0
O217 O 0.34561 0.29252 0.71422 0.0
O218 O 0.34052 0.34342 0.70908 0.0
C219 C 0.32856 0.28352 0.72911 0.0
O220 O 0.31542 0.26177 0.65011 0.0
C221 C 0.36016 0.355 0.70088 0.0
O222 O 0.34165 0.29617 0.64412 0.0
O223 O 0.36715 0.34619 0.6841 0.0
C224 C 0.65254 0.03185 0.69995 0.0
O225 O 0.661 0.05138 0.69185 0.0
Cd226 Cd 0.69522 0.07017 0.66807 0.0
O227 O 0.66186 0.02096 0.69462 0.0
Cd228 Cd 0.69429 0.0249 0.66989 0.0
C229 C 0.72768 0.06345 0.71468 0.0
O230 O 0.69298 0.04633 0.63223 0.0
O231 O 0.72202 0.04397 0.6347 0.0
O232 O 0.66846 0.98767 0.65603 0.0
C233 C 0.71109 0.05049 0.62169 0.0
O234 O 0.72235 0.07568 0.70226 0.0
C235 C 0.68191 0.98096 0.65769 0.0
O236 O 0.71901 0.0434 0.70817 0.0
O237 O 0.70114 0.99459 0.66572 0.0
C238 C 0.02415 0.71011 0.65309 0.0
O239 O 0.01412 0.7203 0.65827 0.0
Cd240 Cd 0.98003 0.70573 0.68281 0.0
O241 O 0.01609 0.69042 0.66055 0.0
Cd242 Cd 0.98269 0.66275 0.68458 0.0
C243 C 0.94732 0.66377 0.63982 0.0
O244 O 0.98174 0.68634 0.72102 0.0
O245 O 0.95371 0.65396 0.71763 0.0
O246 O 0.0064 0.65079 0.70419 0.0
C247 C 0.96348 0.67177 0.73067 0.0
O248 O 0.95117 0.68111 0.65218 0.0
C249 C 0.99276 0.6306 0.70136 0.0
O250 O 0.95816 0.65443 0.64509 0.0
O251 O 0.97493 0.6254 0.68939 0.0
H252 H 0.1426 0.32834 0.20193 0.0
H253 H 0.1162 0.33391 0.22726 0.0
H254 H 0.0637 0.28439 0.17869 0.0
H255 H 0.09037 0.27818 0.15381 0.0
H256 H 0.14719 0.29444 0.199 0.0
H257 H 0.13668 0.33965 0.13624 0.0
H258 H 0.11389 0.34936 0.10964 0.0
H259 H 0.0877 0.28876 0.06513 0.0
H260 H 0.11051 0.27899 0.09212 0.0
H261 H 0.18216 0.28381 0.09493 0.0
H262 H 0.21713 0.29874 0.07017 0.0
H263 H 0.24661 0.35288 0.12648 0.0
H264 H 0.21166 0.33841 0.15051 0.0
H265 H 0.15973 0.30633 0.09965 0.0
H266 H 0.19372 0.27901 0.16426 0.0
H267 H 0.22383 0.28555 0.19488 0.0
H268 H 0.21344 0.33154 0.24072 0.0
H269 H 0.18437 0.32575 0.20992 0.0
C270 C 0.11844 0.3027 0.17616 0.0
C271 C 0.1254 0.31851 0.19681 0.0
C272 C 0.11032 0.32188 0.21106 0.0
C273 C 0.08792 0.30958 0.20495 0.0
C274 C 0.08088 0.29391 0.18399 0.0
C275 C 0.09607 0.29045 0.16971 0.0
C276 C 0.13508 0.29962 0.16158 0.0
C277 C 0.14989 0.2968 0.1772 0.0
C278 C 0.13839 0.30255 0.13318 0.0
C279 C 0.12506 0.30851 0.1163 0.0
C280 C 0.12609 0.3285 0.12069 0.0
C281 C 0.11326 0.33412 0.1053 0.0
C282 C 0.09924 0.3199 0.08514 0.0
C283 C 0.09843 0.3 0.08052 0.0
C284 C 0.11141 0.29443 0.09585 0.0
C285 C 0.1944 0.30984 0.12474 0.0
C286 C 0.19626 0.29873 0.10212 0.0
C287 C 0.21619 0.30721 0.08807 0.0
C288 C 0.23439 0.32706 0.0963 0.0
C289 C 0.2327 0.33772 0.11952 0.0
C290 C 0.21283 0.3293 0.13347 0.0
C291 C 0.17279 0.30268 0.13744 0.0
C292 C 0.15671 0.30306 0.12127 0.0
C293 C 0.16931 0.2994 0.16585 0.0
C294 C 0.18672 0.30185 0.18475 0.0
C295 C 0.19797 0.29047 0.18093 0.0
C296 C 0.21501 0.29408 0.19852 0.0
C297 C 0.22096 0.30907 0.22014 0.0
C298 C 0.20936 0.32004 0.2241 0.0
C299 C 0.19255 0.31655 0.20663 0.0
H300 H 0.72891 0.89438 0.20124 0.0
H301 H 0.72087 0.91502 0.23491 0.0
H302 H 0.65795 0.89237 0.19753 0.0
H303 H 0.66564 0.87123 0.1647 0.0
H304 H 0.70484 0.85077 0.19918 0.0
H305 H 0.72003 0.90875 0.13622 0.0
H306 H 0.71104 0.93311 0.11218 0.0
H307 H 0.65817 0.87765 0.0712 0.0
H308 H 0.66564 0.85338 0.09712 0.0
H309 H 0.65586 0.80103 0.11657 0.0
H310 H 0.64362 0.7674 0.091 0.0
H311 H 0.70924 0.7777 0.09377 0.0
H312 H 0.72098 0.81076 0.12118 0.0
H313 H 0.69339 0.84389 0.09948 0.0
H314 H 0.6632 0.79089 0.16903 0.0
H315 H 0.65617 0.7626 0.20187 0.0
H316 H 0.72199 0.80168 0.23244 0.0
H317 H 0.72935 0.82985 0.19856 0.0
C318 C 0.698 0.88144 0.18024 0.0
C319 C 0.71361 0.8943 0.19993 0.0
C320 C 0.70908 0.90619 0.21902 0.0
C321 C 0.68881 0.90531 0.21873 0.0
C322 C 0.67369 0.89331 0.19818 0.0
C323 C 0.67817 0.88139 0.17924 0.0
C324 C 0.70085 0.86567 0.16338 0.0
C325 C 0.7031 0.84971 0.17721 0.0
C326 C 0.69748 0.86376 0.13483 0.0
C327 C 0.69336 0.87909 0.11896 0.0
C328 C 0.70625 0.90179 0.12244 0.0
C329 C 0.70126 0.91574 0.1084 0.0
C330 C 0.68355 0.90731 0.09018 0.0
C331 C 0.67138 0.88469 0.08579 0.0
C332 C 0.67598 0.87077 0.10029 0.0
C333 C 0.68924 0.8082 0.12082 0.0
C334 C 0.66753 0.79587 0.1119 0.0
C335 C 0.66061 0.77675 0.09714 0.0
C336 C 0.67542 0.7698 0.09033 0.0
C337 C 0.69729 0.78228 0.09922 0.0
C338 C 0.70409 0.80125 0.11465 0.0
C339 C 0.69613 0.82877 0.13558 0.0
C340 C 0.69604 0.84565 0.12129 0.0
C341 C 0.6999 0.83082 0.16388 0.0
C342 C 0.69697 0.81236 0.18087 0.0
C343 C 0.67647 0.79308 0.18194 0.0
C344 C 0.67234 0.77703 0.20103 0.0
C345 C 0.68846 0.7801 0.21987 0.0
C346 C 0.70932 0.79891 0.21806 0.0
C347 C 0.7135 0.81499 0.19879 0.0
H348 H 0.10235 0.83174 0.18494 0.0
H349 H 0.07997 0.80264 0.21734 0.0
H350 H 0.09855 0.76044 0.17664 0.0
H351 H 0.12184 0.78977 0.14556 0.0
H352 H 0.14553 0.85055 0.18216 0.0
H353 H 0.08815 0.81458 0.11373 0.0
H354 H 0.06067 0.78118 0.09092 0.0
H355 H 0.11162 0.76861 0.06462 0.0
H356 H 0.13905 0.80243 0.08647 0.0
H357 H 0.19414 0.85143 0.09406 0.0
H358 H 0.2292 0.87462 0.07156 0.0
H359 H 0.22194 0.93062 0.08581 0.0
H360 H 0.18728 0.90729 0.10994 0.0
H361 H 0.15232 0.84463 0.08234 0.0
H362 H 0.20672 0.87127 0.15034 0.0
H363 H 0.23586 0.89506 0.18148 0.0
H364 H 0.19463 0.91803 0.21499 0.0
H365 H 0.16579 0.89501 0.18252 0.0
C366 C 0.11362 0.81293 0.1626 0.0
C367 C 0.10133 0.81611 0.18277 0.0
C368 C 0.0885 0.79948 0.20116 0.0
C369 C 0.08784 0.77945 0.19969 0.0
C370 C 0.09911 0.77587 0.17853 0.0
C371 C 0.11212 0.79254 0.16043 0.0
C372 C 0.13018 0.83151 0.1462 0.0
C373 C 0.14659 0.84972 0.16017 0.0
C374 C 0.13203 0.82994 0.11768 0.0
C375 C 0.11557 0.81085 0.10196 0.0
C376 C 0.09337 0.80472 0.10278 0.0
C377 C 0.07771 0.78558 0.08993 0.0
C378 C 0.08396 0.77203 0.07648 0.0
C379 C 0.10631 0.77871 0.07476 0.0
C380 C 0.12199 0.79801 0.08726 0.0
C381 C 0.18825 0.87772 0.10363 0.0
C382 C 0.20011 0.86871 0.09228 0.0
C383 C 0.2201 0.88198 0.07937 0.0
C384 C 0.22844 0.90449 0.07704 0.0
C385 C 0.21623 0.91343 0.08789 0.0
C386 C 0.19636 0.90014 0.10138 0.0
C387 C 0.1677 0.8634 0.11842 0.0
C388 C 0.15064 0.84607 0.10412 0.0
C389 C 0.16565 0.86541 0.14679 0.0
C390 C 0.18416 0.88161 0.16368 0.0
C391 C 0.20416 0.88195 0.16366 0.0
C392 C 0.22069 0.89528 0.18184 0.0
C393 C 0.21736 0.9081 0.20097 0.0
C394 C 0.19765 0.90834 0.20042 0.0
C395 C 0.18115 0.89515 0.18198 0.0
H396 H 0.27881 0.17018 0.83138 0.0
H397 H 0.28429 0.1988 0.79956 0.0
H398 H 0.34633 0.24292 0.83732 0.0
H399 H 0.34121 0.21402 0.86837 0.0
H400 H 0.30498 0.15305 0.83324 0.0
H401 H 0.28548 0.19355 0.8954 0.0
H402 H 0.29276 0.22685 0.919 0.0
H403 H 0.34646 0.22804 0.96157 0.0
H404 H 0.34044 0.19602 0.93618 0.0
H405 H 0.34456 0.15081 0.9316 0.0
H406 H 0.35328 0.12721 0.95744 0.0
H407 H 0.2967 0.07066 0.92346 0.0
H408 H 0.28668 0.09442 0.90019 0.0
H409 H 0.31193 0.15728 0.93366 0.0
H410 H 0.34523 0.14327 0.84648 0.0
H411 H 0.34933 0.11899 0.81473 0.0
H412 H 0.28027 0.07163 0.82373 0.0
H413 H 0.27607 0.09704 0.85342 0.0
C414 C 0.30953 0.18999 0.85235 0.0
C415 C 0.29349 0.18609 0.83297 0.0
C416 C 0.29659 0.20245 0.8149 0.0
C417 C 0.31585 0.22297 0.81579 0.0
C418 C 0.33151 0.22712 0.83589 0.0
C419 C 0.32846 0.21072 0.85386 0.0
C420 C 0.3075 0.17184 0.86908 0.0
C421 C 0.30596 0.15378 0.85529 0.0
C422 C 0.3096 0.17315 0.89779 0.0
C423 C 0.31255 0.19233 0.91367 0.0
C424 C 0.29893 0.20107 0.90965 0.0
C425 C 0.30287 0.21991 0.92357 0.0
C426 C 0.32007 0.23 0.94243 0.0
C427 C 0.33319 0.22079 0.94705 0.0
C428 C 0.32958 0.20229 0.93272 0.0
C429 C 0.31532 0.12441 0.91317 0.0
C430 C 0.33391 0.13332 0.92987 0.0
C431 C 0.33908 0.11979 0.94433 0.0
C432 C 0.32611 0.09703 0.94183 0.0
C433 C 0.30716 0.08813 0.92568 0.0
C434 C 0.30166 0.10171 0.91182 0.0
C435 C 0.31036 0.13915 0.89769 0.0
C436 C 0.31038 0.15641 0.91168 0.0
C437 C 0.30788 0.13774 0.86911 0.0
C438 C 0.31043 0.12177 0.85252 0.0
C439 C 0.33103 0.1276 0.84161 0.0
C440 C 0.33333 0.11363 0.82356 0.0
C441 C 0.31509 0.09339 0.81631 0.0
C442 C 0.29456 0.08734 0.82807 0.0
C443 C 0.29217 0.10164 0.84548 0.0
H444 H 0.8384 0.10666 0.82491 0.0
H445 H 0.81016 0.08712 0.79024 0.0
H446 H 0.77091 0.11142 0.82636 0.0
H447 H 0.79925 0.13133 0.86034 0.0
H448 H 0.85943 0.15117 0.82751 0.0
H449 H 0.8132 0.09181 0.89014 0.0
H450 H 0.77804 0.06818 0.9131 0.0
H451 H 0.78118 0.1248 0.95046 0.0
H452 H 0.81518 0.14823 0.92635 0.0
H453 H 0.85891 0.19659 0.91765 0.0
H454 H 0.88092 0.22992 0.9436 0.0
H455 H 0.93843 0.22483 0.92876 0.0
H456 H 0.9163 0.19194 0.90123 0.0
H457 H 0.85288 0.15556 0.92747 0.0
H458 H 0.87806 0.21032 0.86226 0.0
H459 H 0.89786 0.23898 0.82891 0.0
H460 H 0.92301 0.20107 0.79135 0.0
H461 H 0.9039 0.17262 0.82578 0.0
C462 C 0.82086 0.12028 0.84539 0.0
C463 C 0.82348 0.10735 0.8257 0.0
C464 C 0.80738 0.09619 0.80598 0.0
C465 C 0.78857 0.09804 0.80552 0.0
C466 C 0.78541 0.10996 0.82614 0.0
C467 C 0.80148 0.12112 0.84576 0.0
C468 C 0.83951 0.13548 0.86279 0.0
C469 C 0.8584 0.1517 0.84953 0.0
C470 C 0.83744 0.1368 0.89134 0.0
C471 C 0.81691 0.12186 0.90641 0.0
C472 C 0.80625 0.0991 0.90322 0.0
C473 C 0.78631 0.0856 0.9166 0.0
C474 C 0.77689 0.09464 0.93367 0.0
C475 C 0.78789 0.11734 0.93727 0.0
C476 C 0.80753 0.13075 0.9237 0.0
C477 C 0.88601 0.19184 0.90756 0.0
C478 C 0.87629 0.2027 0.9199 0.0
C479 C 0.88889 0.22171 0.93484 0.0
C480 C 0.91146 0.23011 0.93828 0.0
C481 C 0.92119 0.2191 0.92602 0.0
C482 C 0.90858 0.20021 0.9105 0.0
C483 C 0.87204 0.17165 0.89195 0.0
C484 C 0.85435 0.15439 0.9056 0.0
C485 C 0.87418 0.17033 0.86349 0.0
C486 C 0.88976 0.1894 0.84691 0.0
C487 C 0.88863 0.20851 0.84774 0.0
C488 C 0.89966 0.22477 0.82835 0.0
C489 C 0.91162 0.22202 0.80732 0.0
C490 C 0.91391 0.20357 0.8074 0.0
C491 C 0.90298 0.18733 0.82701 0.0
H492 H 0.79228 0.6675 0.85759 0.0
H493 H 0.76326 0.66011 0.82552 0.0
H494 H 0.80513 0.72218 0.78704 0.0
H495 H 0.83402 0.72996 0.82003 0.0
H496 H 0.85253 0.70496 0.82129 0.0
H497 H 0.8054 0.66347 0.91569 0.0
H498 H 0.77217 0.65611 0.93992 0.0
H499 H 0.78385 0.7197 0.91754 0.0
H500 H 0.81671 0.72655 0.89208 0.0
H501 H 0.89312 0.716 0.92788 0.0
H502 H 0.91141 0.70117 0.95509 0.0
H503 H 0.88613 0.64536 0.90147 0.0
H504 H 0.86756 0.65992 0.87476 0.0
H505 H 0.84784 0.69426 0.92121 0.0
H506 H 0.9123 0.72073 0.86094 0.0
H507 H 0.93769 0.71418 0.83353 0.0
H508 H 0.88329 0.66662 0.78563 0.0
H509 H 0.85811 0.67269 0.81319 0.0
C510 C 0.81524 0.69948 0.84159 0.0
C511 C 0.79495 0.67999 0.84309 0.0
C512 C 0.77844 0.67564 0.82452 0.0
C513 C 0.78196 0.69056 0.80382 0.0
C514 C 0.80185 0.71054 0.80306 0.0
C515 C 0.81839 0.71494 0.82179 0.0
C516 C 0.83399 0.70189 0.85765 0.0
C517 C 0.85183 0.70321 0.84326 0.0
C518 C 0.83281 0.69904 0.88618 0.0
C519 C 0.81353 0.69559 0.90223 0.0
C520 C 0.80096 0.67595 0.91631 0.0
C521 C 0.78205 0.67184 0.93034 0.0
C522 C 0.7756 0.6875 0.93113 0.0
C523 C 0.78841 0.70732 0.9173 0.0
C524 C 0.80719 0.71129 0.90284 0.0
C525 C 0.87923 0.6892 0.89913 0.0
C526 C 0.89177 0.70071 0.92184 0.0
C527 C 0.90217 0.69225 0.93732 0.0
C528 C 0.89989 0.67202 0.93052 0.0
C529 C 0.88783 0.66082 0.90737 0.0
C530 C 0.87749 0.66928 0.8919 0.0
C531 C 0.86597 0.69663 0.88472 0.0
C532 C 0.8492 0.69715 0.89944 0.0
C533 C 0.86743 0.69985 0.85624 0.0
C534 C 0.88329 0.69715 0.83917 0.0
C535 C 0.90589 0.70886 0.84456 0.0
C536 C 0.92035 0.70518 0.82892 0.0
C537 C 0.91234 0.68963 0.80784 0.0
C538 C 0.88982 0.67834 0.80215 0.0
C539 C 0.87546 0.68201 0.81768 0.0
H540 H 0.7938 0.66738 0.48541 0.0
H541 H 0.76713 0.67124 0.513 0.0
H542 H 0.74452 0.60781 0.54788 0.0
H543 H 0.77057 0.60358 0.51924 0.0
H544 H 0.81429 0.63096 0.52562 0.0
H545 H 0.817 0.67388 0.42898 0.0
H546 H 0.79137 0.68164 0.40563 0.0
H547 H 0.73849 0.61656 0.4235 0.0
H548 H 0.76406 0.60919 0.44774 0.0
H549 H 0.85273 0.62152 0.4247 0.0
H550 H 0.88836 0.63587 0.4018 0.0
H551 H 0.91695 0.68981 0.45848 0.0
H552 H 0.88132 0.67592 0.48063 0.0
H553 H 0.83062 0.64408 0.42695 0.0
H554 H 0.8583 0.61301 0.49807 0.0
H555 H 0.88396 0.61613 0.53381 0.0
H556 H 0.88057 0.66996 0.56949 0.0
H557 H 0.85469 0.66633 0.53468 0.0
C558 C 0.78394 0.63503 0.49994 0.0
C559 C 0.78248 0.65391 0.4981 0.0
C560 C 0.76741 0.65621 0.5141 0.0
C561 C 0.75375 0.63982 0.5325 0.0
C562 C 0.75454 0.62052 0.53348 0.0
C563 C 0.76952 0.61815 0.5173 0.0
C564 C 0.8025 0.63437 0.48684 0.0
C565 C 0.8176 0.6332 0.50391 0.0
C566 C 0.80708 0.63801 0.45869 0.0
C567 C 0.79236 0.64105 0.44035 0.0
C568 C 0.79996 0.66115 0.42739 0.0
C569 C 0.7853 0.66557 0.41408 0.0
C570 C 0.76284 0.64989 0.41331 0.0
C571 C 0.7556 0.6292 0.42451 0.0
C572 C 0.7702 0.62488 0.43811 0.0
C573 C 0.86445 0.64753 0.45452 0.0
C574 C 0.86677 0.63627 0.43239 0.0
C575 C 0.88707 0.64442 0.4194 0.0
C576 C 0.90524 0.66405 0.42823 0.0
C577 C 0.90308 0.6748 0.45107 0.0
C578 C 0.88281 0.66671 0.46396 0.0
C579 C 0.84249 0.64068 0.46584 0.0
C580 C 0.82683 0.64066 0.44842 0.0
C581 C 0.83781 0.63693 0.49395 0.0
C582 C 0.85436 0.63923 0.51402 0.0
C583 C 0.86314 0.62543 0.51367 0.0
C584 C 0.87776 0.62724 0.53401 0.0
C585 C 0.88376 0.64288 0.55488 0.0
C586 C 0.87562 0.65721 0.55433 0.0
C587 C 0.86095 0.65526 0.53432 0.0
H588 H 0.39601 0.22449 0.53221 0.0
H589 H 0.39138 0.24771 0.56559 0.0
H590 H 0.33047 0.23246 0.52798 0.0
H591 H 0.33431 0.20837 0.49568 0.0
H592 H 0.37137 0.18325 0.53021 0.0
H593 H 0.39092 0.23805 0.45947 0.0
H594 H 0.38598 0.26421 0.43288 0.0
H595 H 0.32048 0.21318 0.41206 0.0
H596 H 0.32584 0.18709 0.43761 0.0
H597 H 0.32218 0.13583 0.43774 0.0
H598 H 0.31024 0.10217 0.41263 0.0
H599 H 0.36696 0.10043 0.44068 0.0
H600 H 0.37979 0.13524 0.46435 0.0
H601 H 0.35453 0.17363 0.43177 0.0
H602 H 0.33104 0.12007 0.50293 0.0
H603 H 0.32898 0.09406 0.53682 0.0
H604 H 0.39446 0.14039 0.56321 0.0
H605 H 0.39697 0.16618 0.52856 0.0
C606 C 0.36569 0.21483 0.51106 0.0
C607 C 0.38189 0.22649 0.53072 0.0
C608 C 0.37933 0.23981 0.54968 0.0
C609 C 0.36074 0.24196 0.54893 0.0
C610 C 0.34514 0.23132 0.52848 0.0
C611 C 0.34746 0.21768 0.50988 0.0
C612 C 0.36612 0.19739 0.49463 0.0
C613 C 0.36835 0.18145 0.50847 0.0
C614 C 0.36147 0.19464 0.46647 0.0
C615 C 0.35879 0.21063 0.4504 0.0
C616 C 0.37558 0.23252 0.44896 0.0
C617 C 0.37273 0.24742 0.4338 0.0
C618 C 0.35297 0.24069 0.41996 0.0
C619 C 0.33616 0.21877 0.42166 0.0
C620 C 0.33913 0.20386 0.43648 0.0
C621 C 0.35192 0.13817 0.45299 0.0
C622 C 0.33228 0.12843 0.43824 0.0
C623 C 0.32532 0.10902 0.42409 0.0
C624 C 0.33765 0.09862 0.42457 0.0
C625 C 0.35729 0.10824 0.43947 0.0
C626 C 0.36448 0.12798 0.45334 0.0
C627 C 0.35887 0.15901 0.46761 0.0
C628 C 0.35825 0.1757 0.45334 0.0
C629 C 0.36449 0.16214 0.49555 0.0
C630 C 0.36429 0.14503 0.51287 0.0
C631 C 0.34531 0.12436 0.51517 0.0
C632 C 0.3441 0.10953 0.53457 0.0
C633 C 0.36165 0.11528 0.55227 0.0
C634 C 0.38087 0.13559 0.54946 0.0
C635 C 0.38223 0.1503 0.5298 0.0
H636 H 0.76748 0.16382 0.51866 0.0
H637 H 0.74421 0.13423 0.54988 0.0
H638 H 0.76508 0.09314 0.511 0.0
H639 H 0.78895 0.12302 0.48054 0.0
H640 H 0.81185 0.18217 0.51742 0.0
H641 H 0.75235 0.14164 0.45445 0.0
H642 H 0.72707 0.10688 0.43261 0.0
H643 H 0.78133 0.10893 0.38898 0.0
H644 H 0.80667 0.14229 0.4128 0.0
H645 H 0.85502 0.18487 0.41936 0.0
H646 H 0.89077 0.20753 0.39824 0.0
H647 H 0.8947 0.26487 0.43434 0.0
H648 H 0.85813 0.24213 0.45455 0.0
H649 H 0.81694 0.18028 0.41688 0.0
H650 H 0.8722 0.20266 0.4846 0.0
H651 H 0.90202 0.22579 0.51554 0.0
H652 H 0.86215 0.24956 0.55134 0.0
H653 H 0.83266 0.22709 0.51943 0.0
C654 C 0.77971 0.14552 0.49707 0.0
C655 C 0.76671 0.1483 0.51656 0.0
C656 C 0.7533 0.13134 0.53421 0.0
C657 C 0.75269 0.11133 0.53264 0.0
C658 C 0.76523 0.10839 0.51258 0.0
C659 C 0.77871 0.12537 0.49505 0.0
C660 C 0.79611 0.16433 0.48094 0.0
C661 C 0.81266 0.18206 0.49535 0.0
C662 C 0.7975 0.16364 0.4522 0.0
C663 C 0.78156 0.1444 0.43594 0.0
C664 C 0.75884 0.1345 0.4404 0.0
C665 C 0.74436 0.11474 0.42765 0.0
C666 C 0.75227 0.1048 0.40966 0.0
C667 C 0.77479 0.11567 0.40356 0.0
C668 C 0.78928 0.13505 0.41683 0.0
C669 C 0.85394 0.21177 0.43876 0.0
C670 C 0.86332 0.20236 0.42238 0.0
C671 C 0.88391 0.21527 0.41066 0.0
C672 C 0.8957 0.23783 0.41533 0.0
C673 C 0.88597 0.24745 0.43068 0.0
C674 C 0.86517 0.2345 0.44227 0.0
C675 C 0.83324 0.19731 0.45353 0.0
C676 C 0.81572 0.18066 0.43888 0.0
C677 C 0.8316 0.19809 0.48219 0.0
C678 C 0.8503 0.21339 0.49944 0.0
C679 C 0.87005 0.21322 0.49866 0.0
C680 C 0.88696 0.22621 0.5166 0.0
C681 C 0.88427 0.23923 0.53609 0.0
C682 C 0.86469 0.23974 0.53646 0.0
C683 C 0.84783 0.22687 0.51834 0.0
H684 H 0.94361 0.50384 0.16673 0.0
H685 H 0.94739 0.53229 0.13576 0.0
H686 H 0.01043 0.57721 0.17068 0.0
H687 H 0.00693 0.54847 0.20095 0.0
H688 H 0.97233 0.48863 0.1653 0.0
H689 H 0.95255 0.52824 0.2302 0.0
H690 H 0.96206 0.56225 0.25383 0.0
H691 H 0.01451 0.56012 0.2951 0.0
H692 H 0.00647 0.52757 0.26956 0.0
H693 H 0.0121 0.46806 0.22475 0.0
H694 H 0.01962 0.44319 0.25013 0.0
H695 H 0.95808 0.41843 0.29316 0.0
H696 H 0.95045 0.44318 0.26735 0.0
H697 H 0.97709 0.48933 0.2659 0.0
H698 H 0.00418 0.48201 0.1589 0.0
H699 H 0.00986 0.45713 0.13054 0.0
H700 H 0.95925 0.40242 0.1752 0.0
H701 H 0.95274 0.42749 0.20284 0.0
C702 C 0.97493 0.52407 0.1862 0.0
C703 C 0.95812 0.5199 0.16793 0.0
C704 C 0.96025 0.53616 0.15036 0.0
C705 C 0.9793 0.55684 0.15064 0.0
C706 C 0.99573 0.56129 0.16975 0.0
C707 C 0.99364 0.54497 0.18723 0.0
C708 C 0.97382 0.50597 0.20207 0.0
C709 C 0.97315 0.48868 0.18735 0.0
C710 C 0.97551 0.50645 0.23081 0.0
C711 C 0.97913 0.52555 0.24744 0.0
C712 C 0.96631 0.53526 0.24403 0.0
C713 C 0.97159 0.55457 0.25782 0.0
C714 C 0.98945 0.56423 0.2758 0.0
C715 C 0.00123 0.55362 0.2806 0.0
C716 C 0.99634 0.53471 0.26632 0.0
C717 C 0.9806 0.4572 0.24399 0.0
C718 C 0.00018 0.45718 0.23953 0.0
C719 C 0.00457 0.4432 0.25424 0.0
C720 C 0.98953 0.42915 0.2738 0.0
C721 C 0.96992 0.42917 0.27822 0.0
C722 C 0.96557 0.44324 0.26355 0.0
C723 C 0.97635 0.47255 0.22902 0.0
C724 C 0.97583 0.48916 0.2439 0.0
C725 C 0.97522 0.47237 0.20031 0.0
C726 C 0.97812 0.45669 0.18318 0.0
C727 C 0.99415 0.46466 0.16255 0.0
C728 C -0.00237 0.45042 0.1466 0.0
C729 C 0.98538 0.42785 0.1511 0.0
C730 C 0.96905 0.41977 0.17144 0.0
C731 C 0.96542 0.43407 0.18733 0.0
H732 H 0.50309 0.44076 0.15293 0.0
H733 H 0.47444 0.42107 0.11872 0.0
H734 H 0.43622 0.44662 0.15463 0.0
H735 H 0.46492 0.46664 0.18813 0.0
H736 H 0.52507 0.48543 0.15554 0.0
H737 H 0.47835 0.42646 0.21904 0.0
H738 H 0.44311 0.40326 0.24231 0.0
H739 H 0.44626 0.46058 0.27726 0.0
H740 H 0.48046 0.48355 0.25318 0.0
H741 H 0.52432 0.53131 0.24418 0.0
H742 H 0.54583 0.56431 0.27088 0.0
H743 H 0.60341 0.55894 0.25862 0.0
H744 H 0.58176 0.52621 0.23037 0.0
H745 H 0.5181 0.49011 0.2554 0.0
H746 H 0.54419 0.54466 0.1895 0.0
H747 H 0.56556 0.57358 0.15706 0.0
H748 H 0.59062 0.53493 0.12133 0.0
H749 H 0.5699 0.50626 0.15493 0.0
C750 C 0.48607 0.45499 0.17331 0.0
C751 C 0.48831 0.44173 0.15376 0.0
C752 C 0.47197 0.43048 0.13431 0.0
C753 C 0.4533 0.43257 0.13395 0.0
C754 C 0.45058 0.44494 0.15435 0.0
C755 C 0.46687 0.45617 0.1737 0.0
C756 C 0.50483 0.47 0.19071 0.0
C757 C 0.52392 0.48601 0.17755 0.0
C758 C 0.50272 0.47141 0.21924 0.0
C759 C 0.48205 0.45679 0.23419 0.0
C760 C 0.47134 0.43399 0.23158 0.0
C761 C 0.45134 0.42077 0.24498 0.0
C762 C 0.44181 0.43018 0.26115 0.0
C763 C 0.45293 0.4529 0.26438 0.0
C764 C 0.47268 0.46604 0.25089 0.0
C765 C 0.55141 0.52622 0.23561 0.0
C766 C 0.54157 0.5372 0.24728 0.0
C767 C 0.55386 0.55595 0.26276 0.0
C768 C 0.57617 0.56385 0.26763 0.0
C769 C 0.5862 0.55313 0.25539 0.0
C770 C 0.57389 0.53445 0.23936 0.0
C771 C 0.53757 0.50597 0.22 0.0
C772 C 0.51969 0.48886 0.23357 0.0
C773 C 0.53983 0.50453 0.19159 0.0
C774 C 0.55582 0.52345 0.17516 0.0
C775 C 0.55506 0.54275 0.17562 0.0
C776 C 0.56704 0.55918 0.15676 0.0
C777 C 0.57976 0.55652 0.13669 0.0
C778 C 0.58127 0.5376 0.13687 0.0
C779 C 0.56936 0.52118 0.15595 0.0
H780 H 0.57559 0.05407 0.19217 0.0
H781 H 0.60147 0.04952 0.16351 0.0
H782 H 0.54763 0.99012 0.13044 0.0
H783 H 0.52226 0.9939 0.16076 0.0
H784 H 0.51626 0.0311 0.16062 0.0
H785 H 0.57267 0.04602 0.2389 0.0
H786 H 0.59361 0.03164 0.26091 0.0
H787 H 0.53468 0.9684 0.26648 0.0
H788 H 0.51443 0.98244 0.24261 0.0
H789 H 0.4722 0.9934 0.26314 0.0
H790 H 0.43963 0.98694 0.2881 0.0
H791 H 0.44112 0.04077 0.24623 0.0
H792 H 0.47502 0.04858 0.22332 0.0
H793 H 0.51087 0.02027 0.26051 0.0
H794 H 0.4558 0.99262 0.19468 0.0
H795 H 0.42691 0.98605 0.16251 0.0
H796 H 0.46865 0.04968 0.12765 0.0
H797 H 0.49741 0.05639 0.16028 0.0
C798 C 0.54711 0.02406 0.17902 0.0
C799 C 0.56951 0.0398 0.17926 0.0
C800 C 0.5842 0.03739 0.16243 0.0
C801 C 0.57661 0.01956 0.14443 0.0
C802 C 0.5541 0.00391 0.14425 0.0
C803 C 0.53954 0.00611 0.16143 0.0
C804 C 0.53115 0.02663 0.19593 0.0
C805 C 0.51537 0.02943 0.18261 0.0
C806 C 0.5293 0.02304 0.22428 0.0
C807 C 0.54222 0.01511 0.23837 0.0
C808 C 0.56448 0.02894 0.24419 0.0
C809 C 0.57632 0.02077 0.2571 0.0
C810 C 0.56592 -0.00127 0.26483 0.0
C811 C 0.54339 0.98521 0.25985 0.0
C812 C 0.53173 0.99327 0.24653 0.0
C813 C 0.47617 0.02146 0.24115 0.0
C814 C 0.46592 0.00424 0.25981 0.0
C815 C 0.44707 0.00035 0.27387 0.0
C816 C 0.43774 0.01335 0.26929 0.0
C817 C 0.44811 0.03074 0.25082 0.0
C818 C 0.46732 0.03498 0.23725 0.0
C819 C 0.4956 0.02466 0.22524 0.0
C820 C 0.51211 0.02301 0.23871 0.0
C821 C 0.49715 0.02757 0.19664 0.0
C822 C 0.47865 0.0251 0.18007 0.0
C823 C 0.45849 0.00543 0.18069 0.0
C824 C 0.44207 0.00163 0.1622 0.0
C825 C 0.44555 0.01739 0.14272 0.0
C826 C 0.46541 0.03741 0.14278 0.0
C827 C 0.48187 0.0412 0.16127 0.0
H828 H 0.46301 0.00364 0.82053 0.0
H829 H 0.43803 0.00996 0.84826 0.0
H830 H 0.41532 0.94848 0.88868 0.0
H831 H 0.43952 0.94159 0.85969 0.0
H832 H 0.48321 0.967 0.86229 0.0
H833 H 0.48318 0.00717 0.76402 0.0
H834 H 0.45704 0.01429 0.74091 0.0
H835 H 0.40439 0.95017 0.7632 0.0
H836 H 0.43051 0.94358 0.78738 0.0
H837 H 0.51775 0.95413 0.75977 0.0
H838 H 0.55277 0.96679 0.73611 0.0
H839 H 0.58397 0.02182 0.79098 0.0
H840 H 0.54886 0.00964 0.8138 0.0
H841 H 0.49621 0.97692 0.76273 0.0
H842 H 0.52795 0.94919 0.83035 0.0
H843 H 0.55746 0.95513 0.86177 0.0
H844 H 0.55062 0.00494 0.90342 0.0
H845 H 0.52172 -0.00067 0.87215 0.0
C846 C 0.45294 0.97198 0.83776 0.0
C847 C 0.45206 0.99109 0.83456 0.0
C848 C 0.43805 0.99488 0.85074 0.0
C849 C 0.4251 0.9799 0.87093 0.0
C850 C 0.42514 0.96028 0.87322 0.0
C851 C 0.439 0.95637 0.85678 0.0
C852 C 0.47045 0.96985 0.82398 0.0
C853 C 0.48582 0.96858 0.84043 0.0
C854 C 0.47398 0.97237 0.79555 0.0
C855 C 0.45873 0.97494 0.77765 0.0
C856 C 0.46605 0.99451 0.76352 0.0
C857 C 0.45109 -0.00143 0.75035 0.0
C858 C 0.42856 0.983 0.75078 0.0
C859 C 0.42153 0.96278 0.76329 0.0
C860 C 0.43644 0.95888 0.77683 0.0
C861 C 0.53079 0.98073 0.78881 0.0
C862 C 0.53222 0.96876 0.76689 0.0
C863 C 0.55222 0.9759 0.75355 0.0
C864 C 0.57109 0.99515 0.76193 0.0
C865 C 0.56967 0.00691 0.78416 0.0
C866 C 0.54968 -0.00017 0.79738 0.0
C867 C 0.50927 0.97447 0.80119 0.0
C868 C 0.49317 0.97424 0.78443 0.0
C869 C 0.5055 0.97146 0.82958 0.0
C870 C 0.52266 0.97388 0.84883 0.0
C871 C 0.53284 0.96137 0.84627 0.0
C872 C 0.54957 0.96468 0.86423 0.0
C873 C 0.55642 0.98066 0.88471 0.0
C874 C 0.54586 0.99274 0.88753 0.0
C875 C 0.52921 0.98941 0.8698 0.0
H876 H 0.0488 0.55308 0.87149 0.0
H877 H 0.04009 0.57452 0.90301 0.0
H878 H 0.98058 0.55531 0.85873 0.0
H879 H 0.98858 0.53294 0.82844 0.0
H880 H 0.02591 0.51072 0.86769 0.0
H881 H 0.04427 0.56868 0.80422 0.0
H882 H 0.03727 0.59393 0.77892 0.0
H883 H 0.98484 0.5396 0.7358 0.0
H884 H 0.9904 0.51446 0.76281 0.0
H885 H 0.97998 0.46049 0.78393 0.0
H886 H 0.96958 0.42796 0.7567 0.0
H887 H 0.03562 0.43982 0.76234 0.0
H888 H 0.04565 0.472 0.79111 0.0
H889 H 0.01758 0.50408 0.76752 0.0
H890 H 0.98788 0.44966 0.83694 0.0
H891 H 0.98265 0.4221 0.87007 0.0
H892 H 0.04706 0.46549 0.90246 0.0
H893 H 0.05267 0.49284 0.86832 0.0
C894 C 0.01944 0.54144 0.84745 0.0
C895 C 0.03401 0.55371 0.86838 0.0
C896 C 0.0291 0.56605 0.88626 0.0
C897 C 0.0095 0.56629 0.88355 0.0
C898 C 0.9956 0.55508 0.86162 0.0
C899 C 0.00034 0.54253 0.84402 0.0
C900 C 0.02271 0.52556 0.8313 0.0
C901 C 0.02478 0.50969 0.84566 0.0
C902 C 0.02053 0.52381 0.80257 0.0
C903 C 0.01765 0.53955 0.7859 0.0
C904 C 0.03103 0.56217 0.78964 0.0
C905 C 0.02719 0.57662 0.77491 0.0
C906 C 0.01017 0.56875 0.75574 0.0
C907 C -0.00244 0.5462 0.75107 0.0
C908 C 0.00103 0.53178 0.76622 0.0
C909 C 0.01357 0.46861 0.78935 0.0
C910 C 0.99218 0.45599 0.77945 0.0
C911 C 0.98635 0.43756 0.76362 0.0
C912 C 0.00197 0.43173 0.75661 0.0
C913 C 0.02329 0.44404 0.76725 0.0
C914 C 0.02904 0.46237 0.78362 0.0
C915 C 0.01954 0.48899 0.80413 0.0
C916 C 0.01952 0.50575 0.78944 0.0
C917 C 0.02264 0.49111 0.83257 0.0
C918 C 0.02083 0.47324 0.84977 0.0
C919 C 0.00125 0.453 0.85038 0.0
C920 C -0.00187 0.43736 0.86964 0.0
C921 C 0.01433 0.44182 0.88907 0.0
C922 C 0.03434 0.46164 0.88767 0.0
C923 C 0.03752 0.47726 0.86825 0.0
H924 H 0.43105 0.49761 0.852 0.0
H925 H 0.40618 0.46744 0.88156 0.0
H926 H 0.42671 0.42613 0.84258 0.0
H927 H 0.45231 0.45654 0.81416 0.0
H928 H 0.47464 0.5149 0.85452 0.0
H929 H 0.42115 0.48359 0.78016 0.0
H930 H 0.39499 0.45043 0.75572 0.0
H931 H 0.44757 0.43918 0.73325 0.0
H932 H 0.47369 0.4727 0.75674 0.0
H933 H 0.53911 0.53376 0.80527 0.0
H934 H 0.5746 0.55567 0.78268 0.0
H935 H 0.54596 0.58178 0.72864 0.0
H936 H 0.51055 0.5603 0.75192 0.0
H937 H 0.48704 0.51527 0.75496 0.0
H938 H 0.51212 0.52068 0.86569 0.0
H939 H 0.54194 0.54476 0.89584 0.0
H940 H 0.5523 0.60041 0.84937 0.0
H941 H 0.52164 0.5762 0.81965 0.0
C942 C 0.44332 0.47928 0.83059 0.0
C943 C 0.42981 0.4819 0.84941 0.0
C944 C 0.41548 0.46461 0.86612 0.0
C945 C 0.41442 0.4444 0.86421 0.0
C946 C 0.4272 0.44152 0.84445 0.0
C947 C 0.44164 0.45884 0.82796 0.0
C948 C 0.46128 0.49844 0.81649 0.0
C949 C 0.47714 0.51529 0.83266 0.0
C950 C 0.46469 0.4987 0.78805 0.0
C951 C 0.44929 0.48046 0.77041 0.0
C952 C 0.42704 0.47414 0.76956 0.0
C953 C 0.41212 0.45513 0.75582 0.0
C954 C 0.41918 0.44196 0.74312 0.0
C955 C 0.44165 0.449 0.74279 0.0
C956 C 0.45659 0.46814 0.75621 0.0
C957 C 0.52234 0.54576 0.78056 0.0
C958 C 0.54059 0.54458 0.78897 0.0
C959 C 0.56077 0.55692 0.77592 0.0
C960 C 0.563 0.5705 0.7541 0.0
C961 C 0.54475 0.57175 0.74576 0.0
C962 C 0.52454 0.55942 0.75889 0.0
C963 C 0.50066 0.53142 0.79314 0.0
C964 C 0.48413 0.51549 0.77665 0.0
C965 C 0.4971 0.53146 0.82151 0.0
C966 C 0.51467 0.54659 0.8403 0.0
C967 C 0.52059 0.53808 0.8621 0.0
C968 C 0.53785 0.55182 0.8791 0.0
C969 C 0.54973 0.57438 0.87454 0.0
C970 C 0.54348 0.58304 0.85318 0.0
C971 C 0.52607 0.56924 0.83617 0.0
H972 H 0.60579 0.84015 0.52177 0.0
H973 H 0.6066 0.86813 0.49237 0.0
H974 H 0.67715 0.8989 0.48606 0.0
H975 H 0.67619 0.87195 0.5173 0.0
H976 H 0.63613 0.81752 0.50209 0.0
H977 H 0.61966 0.8581 0.56977 0.0
H978 H 0.62852 0.8919 0.59302 0.0
H979 H 0.68753 0.89653 0.62449 0.0
H980 H 0.67974 0.86397 0.59879 0.0
H981 H 0.68026 0.81139 0.59426 0.0
H982 H 0.68626 0.78396 0.61558 0.0
H983 H 0.62077 0.73385 0.59311 0.0
H984 H 0.61529 0.76126 0.57073 0.0
H985 H 0.64943 0.82389 0.60158 0.0
H986 H 0.67572 0.79618 0.53436 0.0
H987 H 0.68034 0.77136 0.50419 0.0
H988 H 0.61628 0.74903 0.47038 0.0
H989 H 0.61139 0.77342 0.50135 0.0
C990 C 0.64095 0.85424 0.52184 0.0
C991 C 0.6214 0.8532 0.51435 0.0
C992 C 0.62191 0.86901 0.49723 0.0
C993 C 0.64191 0.88556 0.48634 0.0
C994 C 0.66147 0.88656 0.49422 0.0
C995 C 0.66098 0.87112 0.51196 0.0
C996 C 0.64049 0.8367 0.53807 0.0
C997 C 0.63839 0.81855 0.52398 0.0
C998 C 0.64487 0.83894 0.56631 0.0
C999 C 0.6493 0.85873 0.58185 0.0
C1000 C 0.63476 0.86664 0.58112 0.0
C1001 C 0.63957 0.88571 0.59509 0.0
C1002 C 0.65863 0.89683 0.61097 0.0
C1003 C 0.67281 0.88849 0.6123 0.0
C1004 C 0.66827 0.86975 0.59778 0.0
C1005 C 0.64744 0.78826 0.58071 0.0
C1006 C 0.66717 0.7945 0.59413 0.0
C1007 C 0.67055 0.77884 0.60632 0.0
C1008 C 0.65413 0.75671 0.60558 0.0
C1009 C 0.63397 0.75069 0.59328 0.0
C1010 C 0.63073 0.76631 0.58071 0.0
C1011 C 0.64473 0.80458 0.56566 0.0
C1012 C 0.64644 0.82251 0.57985 0.0
C1013 C 0.64116 0.8028 0.53726 0.0
C1014 C 0.64303 0.78639 0.52048 0.0
C1015 C 0.6624 0.78552 0.52102 0.0
C1016 C 0.66513 0.7715 0.50358 0.0
C1017 C 0.64862 0.75817 0.4851 0.0
C1018 C 0.6291 0.75881 0.4848 0.0
C1019 C 0.62635 0.77284 0.50232 0.0
H1020 H 0.17102 0.7703 0.49322 0.0
H1021 H 0.14287 0.75103 0.45831 0.0
H1022 H 0.10491 0.77746 0.49258 0.0
H1023 H 0.13305 0.79694 0.52691 0.0
H1024 H 0.19285 0.81525 0.49513 0.0
H1025 H 0.14648 0.75657 0.55784 0.0
H1026 H 0.11074 0.73292 0.57941 0.0
H1027 H 0.11277 0.78944 0.6154 0.0
H1028 H 0.14757 0.81295 0.59271 0.0
H1029 H 0.19104 0.85765 0.59268 0.0
H1030 H 0.21287 0.89195 0.61674 0.0
H1031 H 0.272 0.8973 0.5832 0.0
H1032 H 0.25004 0.86208 0.56019 0.0
H1033 H 0.18563 0.82035 0.59486 0.0
H1034 H 0.20908 0.87368 0.52711 0.0
H1035 H 0.22823 0.90157 0.49245 0.0
H1036 H 0.25742 0.86563 0.46012 0.0
H1037 H 0.23841 0.83769 0.49526 0.0
C1038 C 0.15404 0.78487 0.51286 0.0
C1039 C 0.15636 0.77148 0.4936 0.0
C1040 C 0.14031 0.76047 0.47375 0.0
C1041 C 0.12192 0.76299 0.47274 0.0
C1042 C 0.11905 0.77541 0.4929 0.0
C1043 C 0.13502 0.78636 0.51268 0.0
C1044 C 0.1727 0.79993 0.53032 0.0
C1045 C 0.19167 0.81599 0.51712 0.0
C1046 C 0.17047 0.80147 0.55878 0.0
C1047 C 0.14978 0.78659 0.57357 0.0
C1048 C 0.13921 0.76384 0.57038 0.0
C1049 C 0.1189 0.75033 0.58293 0.0
C1050 C 0.109 0.75935 0.59917 0.0
C1051 C 0.11989 0.78203 0.60283 0.0
C1052 C 0.13997 0.79548 0.59011 0.0
C1053 C 0.21884 0.85712 0.57464 0.0
C1054 C 0.20873 0.8659 0.59087 0.0
C1055 C 0.22121 0.88568 0.60439 0.0
C1056 C 0.24415 0.89732 0.6019 0.0
C1057 C 0.25437 0.88853 0.58585 0.0
C1058 C 0.24182 0.86852 0.57247 0.0
C1059 C 0.20494 0.83654 0.55934 0.0
C1060 C 0.18726 0.8192 0.57302 0.0
C1061 C 0.20723 0.83482 0.53092 0.0
C1062 C 0.2225 0.8537 0.51397 0.0
C1063 C 0.22025 0.87216 0.5133 0.0
C1064 C 0.23103 0.88799 0.49336 0.0
C1065 C 0.24408 0.88555 0.4736 0.0
C1066 C 0.2475 0.86785 0.47527 0.0
C1067 C 0.23665 0.85193 0.49525 0.0
H1068 H 0.13824 0.3202 0.48885 0.0
H1069 H 0.11331 0.31809 0.45349 0.0
H1070 H 0.12448 0.38137 0.47744 0.0
H1071 H 0.14928 0.38317 0.51367 0.0
H1072 H 0.18406 0.35703 0.48918 0.0
H1073 H 0.11697 0.31823 0.54338 0.0
H1074 H 0.08417 0.31282 0.56762 0.0
H1075 H 0.12387 0.37191 0.61349 0.0
H1076 H 0.15662 0.37742 0.58892 0.0
H1077 H 0.23465 0.37554 0.572 0.0
H1078 H 0.25686 0.36495 0.59858 0.0
H1079 H 0.20238 0.2986 0.60091 0.0
H1080 H 0.17999 0.30973 0.57621 0.0
H1081 H 0.17119 0.34607 0.58866 0.0
H1082 H 0.22942 0.3845 0.49696 0.0
H1083 H 0.2559 0.38117 0.46803 0.0
H1084 H 0.23003 0.31517 0.4959 0.0
H1085 H 0.20301 0.31827 0.52386 0.0
C1086 C 0.14568 0.3519 0.50361 0.0
C1087 C 0.13516 0.33353 0.4867 0.0
C1088 C 0.12107 0.33243 0.46641 0.0
C1089 C 0.11751 0.34985 0.46228 0.0
C1090 C 0.12717 0.36784 0.4801 0.0
C1091 C 0.14125 0.36887 0.50071 0.0
C1092 C 0.16257 0.35358 0.52247 0.0
C1093 C 0.18157 0.35522 0.51105 0.0
C1094 C 0.15911 0.35095 0.55085 0.0
C1095 C 0.13912 0.34844 0.56404 0.0
C1096 C 0.11854 0.33023 0.55828 0.0
C1097 C 0.09989 0.32703 0.57231 0.0
C1098 C 0.10154 0.34202 0.59227 0.0
C1099 C 0.12215 0.3603 0.59791 0.0
C1100 C 0.14081 0.36343 0.58397 0.0
C1101 C 0.20577 0.34338 0.57226 0.0
C1102 C 0.22753 0.3588 0.57859 0.0
C1103 C 0.24024 0.35263 0.59342 0.0
C1104 C 0.23154 0.3308 0.60143 0.0
C1105 C 0.20957 0.31555 0.59529 0.0
C1106 C 0.19676 0.32185 0.58112 0.0
C1107 C 0.19246 0.34916 0.55524 0.0
C1108 C 0.17424 0.34897 0.56698 0.0
C1109 C 0.19643 0.35276 0.52702 0.0
C1110 C 0.2145 0.35178 0.51294 0.0
C1111 C 0.22977 0.36947 0.49725 0.0
C1112 C 0.24499 0.3676 0.48089 0.0
C1113 C 0.24518 0.34798 0.47994 0.0
C1114 C 0.23029 0.3305 0.49631 0.0
C1115 C 0.21502 0.33235 0.51255 0.0
C1116 C 0.97544 0.38191 0.10252 0.0
C1117 C 0.99685 0.38707 0.09549 0.0
C1118 C 0.97177 0.39469 0.12133 0.0
C1119 C 0.98938 0.41294 0.13389 0.0
H1120 H 0.96144 0.3685 0.09256 0.0
H1121 H 0.95507 0.39077 0.12519 0.0
S1122 S 0.04836 0.43105 0.12581 0.0
N1123 N 0.03574 0.41021 0.10465 0.0
N1124 N 0.02884 0.43381 0.14049 0.0
C1125 C 0.01078 0.41739 0.12827 0.0
C1126 C 0.01451 0.40456 0.10895 0.0
C1127 C 0.58325 0.5924 0.07821 0.0
C1128 C 0.60502 0.60159 0.06881 0.0
C1129 C 0.57546 0.57805 0.1002 0.0
C1130 C 0.58904 0.57221 0.11385 0.0
H1131 H 0.57195 0.5962 0.06848 0.0
H1132 H 0.55848 0.57123 0.10632 0.0
S1133 S 0.64744 0.59182 0.09812 0.0
N1134 N 0.6402 0.60386 0.07534 0.0
N1135 N 0.62537 0.57685 0.11692 0.0
C1136 C 0.61083 0.58118 0.10487 0.0
C1137 C 0.61887 0.59591 0.08236 0.0
C1138 C 0.40857 0.98776 0.08312 0.0
C1139 C 0.40081 0.0016 0.07527 0.0
C1140 C 0.42259 0.99283 0.1053 0.0
C1141 C 0.42953 0.01197 0.12055 0.0
H1142 H 0.40401 0.97292 0.0719 0.0
H1143 H 0.42848 0.98189 0.11014 0.0
S1144 S 0.41318 0.05318 0.10991 0.0
N1145 N 0.40055 0.03501 0.08554 0.0
N1146 N 0.42701 0.04441 0.1273 0.0
C1147 C 0.42169 0.02582 0.11341 0.0
C1148 C 0.40728 0.02064 0.09081 0.0
C1149 C 0.38025 0.97491 0.91846 0.0
C1150 C 0.39093 0.99446 0.93354 0.0
C1151 C 0.39121 0.9705 0.89776 0.0
C1152 C 0.41318 0.98554 0.89124 0.0
H1153 H 0.36342 0.96267 0.92301 0.0
H1154 H 0.38251 0.95511 0.88695 0.0
S1155 S 0.44854 0.03924 0.92423 0.0
N1156 N 0.42468 0.02921 0.93998 0.0
N1157 N 0.44528 0.02073 0.90139 0.0
C1158 C 0.42393 0.00533 0.90574 0.0
C1159 C 0.4128 0.00984 0.9268 0.0
C1160 C 0.01963 0.40554 0.94132 0.0
C1161 C 0.00067 0.39836 0.95757 0.0
C1162 C 0.02402 0.41956 0.91916 0.0
C1163 C 0.00952 0.42675 0.91224 0.0
H1164 H 0.03122 0.40034 0.94574 0.0
H1165 H 0.03876 0.42467 0.90721 0.0
S1166 S 0.95826 0.41391 0.94872 0.0
N1167 N 0.96764 0.40033 0.96532 0.0
N1168 N 0.97608 0.42661 0.92396 0.0
C1169 C 0.99067 0.41993 0.92837 0.0
C1170 C 0.9862 0.40576 0.95092 0.0
C1171 C 0.58607 0.61971 0.92369 0.0
C1172 C 0.60182 0.61419 0.93095 0.0
C1173 C 0.56962 0.60715 0.90478 0.0
C1174 C 0.56842 0.58871 0.89241 0.0
H1175 H 0.58598 0.63339 0.93332 0.0
H1176 H 0.55733 0.61148 0.90051 0.0
S1177 S 0.60753 0.56919 0.90147 0.0
N1178 N 0.61634 0.59022 0.92237 0.0
N1179 N 0.58567 0.5669 0.88654 0.0
C1180 C 0.5847 0.58368 0.89847 0.0
C1181 C 0.60134 0.59635 0.9178 0.0
C1182 C 0.01077 0.60687 0.93563 0.0
C1183 C 0.99004 0.59506 0.94833 0.0
C1184 C 0.01693 0.59764 0.91446 0.0
C1185 C 0.00252 0.57637 0.90499 0.0
H1186 H 0.0225 0.62322 0.94239 0.0
H1187 H 0.0331 0.60719 0.90547 0.0
S1188 S 0.94643 0.53849 0.93104 0.0
N1189 N 0.95501 0.56088 0.94932 0.0
N1190 N 0.96681 0.54365 0.91007 0.0
C1191 C 0.98172 0.56449 0.91725 0.0
C1192 C 0.97544 0.57379 0.93875 0.0
C1193 C 0.40298 0.40361 0.91998 0.0
C1194 C 0.38167 0.39753 0.92875 0.0
C1195 C 0.41309 0.41823 0.89855 0.0
C1196 C 0.40229 0.42735 0.88494 0.0
H1197 H 0.41223 0.39746 0.93017 0.0
H1198 H 0.42981 0.423 0.89323 0.0
S1199 S 0.34558 0.41527 0.89806 0.0
N1200 N 0.34951 0.40073 0.92088 0.0
N1201 N 0.3686 0.42815 0.88031 0.0
C1202 C 0.38071 0.42087 0.89276 0.0
C1203 C 0.37036 0.40595 0.91468 0.0
C1204 C 0.58951 0.97446 0.94074 0.0
C1205 C 0.60625 0.99618 0.94511 0.0
C1206 C 0.57394 0.96916 0.92006 0.0
C1207 C 0.57479 0.98542 0.90313 0.0
H1208 H 0.58773 0.96172 0.95426 0.0
H1209 H 0.56055 0.95249 0.91821 0.0
S1210 S 0.61772 0.04391 0.90305 0.0
N1211 N 0.62433 0.03345 0.92855 0.0
N1212 N 0.59533 0.02343 0.88972 0.0
C1213 C 0.5924 0.00683 0.90605 0.0
C1214 C 0.60806 0.01223 0.92705 0.0
C1215 C 0.60204 0.99326 0.10176 0.0
C1216 C 0.61779 0.0106 0.08593 0.0
C1217 C 0.58943 0.99651 0.12127 0.0
C1218 C 0.59178 0.01717 0.12542 0.0
H1219 H 0.5993 0.97696 0.09891 0.0
H1220 H 0.57752 0.98262 0.13296 0.0
S1221 S 0.63055 0.0679 0.08865 0.0
N1222 N 0.63536 0.04923 0.07582 0.0
N1223 N 0.61102 0.05524 0.11169 0.0
C1224 C 0.60774 0.03475 0.10995 0.0
C1225 C 0.62087 0.03148 0.09038 0.0
C1226 C 0.96794 0.59178 0.10332 0.0
C1227 C 0.98674 0.60159 0.08654 0.0
C1228 C 0.96586 0.57773 0.12444 0.0
C1229 C 0.98255 0.5731 0.12971 0.0
H1230 H 0.95454 0.59465 0.09987 0.0
H1231 H 0.95099 0.57029 0.13662 0.0
S1232 S 0.0351 0.5946 0.09197 0.0
N1233 N 0.02254 0.60587 0.07703 0.0
N1234 N 0.01841 0.57929 0.11648 0.0
C1235 C 0.00156 0.58306 0.11344 0.0
C1236 C 0.0037 0.59733 0.09192 0.0
C1237 C 0.41214 0.393 0.08255 0.0
C1238 C 0.40705 0.40647 0.06719 0.0
C1239 C 0.42728 0.40149 0.10398 0.0
C1240 C 0.43769 0.42369 0.11098 0.0
H1241 H 0.40428 0.37573 0.07817 0.0
H1242 H 0.43059 0.39056 0.11544 0.0
S1243 S 0.4317 0.46633 0.07622 0.0
N1244 N 0.41484 0.44359 0.05994 0.0
N1245 N 0.44308 0.45924 0.10007 0.0
C1246 C 0.43317 0.43741 0.09554 0.0
C1247 C 0.41791 0.42889 0.0737 0.0
C1248 C 0.67572 0.74288 0.42917 0.0
C1249 C 0.66026 0.72087 0.42379 0.0
C1250 C 0.67193 0.75463 0.44929 0.0
C1251 C 0.6525 0.74489 0.46486 0.0
H1252 H 0.69081 0.75128 0.41749 0.0
H1253 H 0.68412 0.77166 0.45227 0.0
S1254 S 0.60741 0.68736 0.46039 0.0
N1255 N 0.62512 0.68951 0.43673 0.0
N1256 N 0.61814 0.71169 0.47468 0.0
C1257 C 0.63709 0.7228 0.46019 0.0
C1258 C 0.64095 0.71077 0.43968 0.0
C1259 C 0.28094 0.92623 0.41998 0.0
C1260 C 0.26581 0.92797 0.40328 0.0
C1261 C 0.27392 0.91231 0.44263 0.0
C1262 C 0.25158 0.89983 0.44944 0.0
H1263 H 0.29836 0.93589 0.41578 0.0
H1264 H 0.28604 0.91159 0.45515 0.0
S1265 S 0.20512 0.89649 0.4112 0.0
N1266 N 0.22716 0.91451 0.3944 0.0
N1267 N 0.21427 0.88867 0.43692 0.0
C1268 C 0.23627 0.90089 0.43261 0.0
C1269 C 0.2433 0.91488 0.40956 0.0
C1270 C 0.07149 0.34783 0.42078 0.0
C1271 C 0.0747 0.34084 0.39518 0.0
C1272 C 0.08603 0.35185 0.44231 0.0
C1273 C 0.10423 0.34912 0.43872 0.0
H1274 H 0.05704 0.34902 0.42461 0.0
H1275 H 0.08241 0.35602 0.46216 0.0
S1276 S 0.12201 0.33522 0.37417 0.0
N1277 N 0.0988 0.33408 0.36655 0.0
N1278 N 0.12633 0.34213 0.40665 0.0
C1279 C 0.10846 0.34382 0.41262 0.0
C1280 C 0.09362 0.33953 0.39094 0.0
C1281 C 0.06499 0.33844 0.24643 0.0
C1282 C 0.0476 0.32133 0.26083 0.0
C1283 C 0.07704 0.33434 0.22703 0.0
C1284 C 0.07228 0.31298 0.22144 0.0
H1285 H 0.06981 0.35521 0.25076 0.0
H1286 H 0.09074 0.34807 0.21707 0.0
S1287 S 0.02745 0.2623 0.25216 0.0
N1288 N 0.02521 0.28204 0.26678 0.0
N1289 N 0.0483 0.27442 0.23072 0.0
C1290 C 0.05421 0.29562 0.23458 0.0
C1291 C 0.04178 0.29978 0.25422 0.0
C1292 C 0.68937 0.74025 0.27044 0.0
C1293 C 0.67107 0.73491 0.28726 0.0
C1294 C 0.69511 0.75499 0.24875 0.0
C1295 C 0.68267 0.76479 0.24298 0.0
H1296 H 0.69928 0.7329 0.2739 0.0
H1297 H 0.70918 0.75851 0.23618 0.0
S1298 S 0.6345 0.75804 0.28189 0.0
N1299 N 0.64134 0.74186 0.29721 0.0
N1300 N 0.65225 0.76937 0.25669 0.0
C1301 C 0.6647 0.76 0.25989 0.0
C1302 C 0.65887 0.74513 0.28192 0.0
C1303 C 0.256 0.95319 0.24929 0.0
C1304 C 0.26451 0.94284 0.26514 0.0
C1305 C 0.24087 0.94196 0.22844 0.0
C1306 C 0.23376 0.91999 0.22262 0.0
H1307 H 0.26097 0.97008 0.25304 0.0
H1308 H 0.23476 0.95054 0.21672 0.0
S1309 S 0.25008 0.88502 0.2589 0.0
N1310 N 0.26418 0.90906 0.27382 0.0
N1311 N 0.23559 0.88803 0.23508 0.0
C1312 C 0.24203 0.90942 0.23837 0.0
C1313 C 0.25743 0.92082 0.2595 0.0
C1314 C 0.65518 0.9084 0.27693 0.0
C1315 C 0.66787 0.92997 0.28655 0.0
C1316 C 0.66213 0.90081 0.25498 0.0
C1317 C 0.68212 0.91438 0.24163 0.0
H1318 H 0.63958 0.89713 0.28631 0.0
H1319 H 0.65181 0.88402 0.24858 0.0
S1320 S 0.72169 0.97216 0.25837 0.0
N1321 N 0.70165 0.96487 0.2808 0.0
N1322 N 0.71465 0.95039 0.23931 0.0
C1323 C 0.69515 0.93593 0.25096 0.0
C1324 C 0.68803 0.94378 0.2734 0.0
C1325 C 0.04558 0.74204 0.25157 0.0
C1326 C 0.05669 0.73334 0.26549 0.0
C1327 C 0.05559 0.7567 0.23003 0.0
C1328 C 0.07701 0.76308 0.22152 0.0
H1329 H 0.0291 0.73774 0.25756 0.0
H1330 H 0.04653 0.76313 0.22001 0.0
S1331 S 0.11339 0.74541 0.25132 0.0
N1332 N 0.09039 0.73226 0.26902 0.0
N1333 N 0.10923 0.76002 0.2289 0.0
C1334 C 0.08825 0.7544 0.23506 0.0
C1335 C 0.07808 0.73948 0.25694 0.0
C1336 C 0.27078 0.3421 0.26403 0.0
C1337 C 0.27199 0.32624 0.27952 0.0
C1338 C 0.25501 0.33624 0.24382 0.0
C1339 C 0.2396 0.31427 0.23838 0.0
H1340 H 0.28182 0.35928 0.26798 0.0
H1341 H 0.25443 0.34909 0.23292 0.0
S1342 S 0.23655 0.26636 0.2719 0.0
N1343 N 0.25733 0.28754 0.28689 0.0
N1344 N 0.22721 0.27648 0.24905 0.0
C1345 C 0.24125 0.29815 0.25269 0.0
C1346 C 0.25756 0.30416 0.27325 0.0
C1347 C 0.26239 0.32401 0.42235 0.0
C1348 C 0.28464 0.33969 0.41825 0.0
C1349 C 0.24998 0.32662 0.44275 0.0
C1350 C 0.2593 0.34499 0.45997 0.0
H1351 H 0.25428 0.30975 0.40935 0.0
H1352 H 0.23275 0.31442 0.44455 0.0
S1353 S 0.31731 0.38984 0.4595 0.0
N1354 N 0.31583 0.37369 0.43426 0.0
N1355 N 0.29244 0.37841 0.47285 0.0
C1356 C 0.28167 0.3605 0.45669 0.0
C1357 C 0.29435 0.35788 0.43582 0.0
C1358 C 0.66201 0.93816 0.44698 0.0
C1359 C 0.6473 0.93168 0.4252 0.0
C1360 C 0.65954 0.92338 0.46728 0.0
C1361 C 0.64262 0.90138 0.46612 0.0
H1362 H 0.67566 0.95475 0.44821 0.0
H1363 H 0.67125 0.92918 0.48375 0.0
S1364 S 0.60039 0.87625 0.41214 0.0
N1365 N 0.61522 0.90214 0.40346 0.0
N1366 N 0.61121 0.8739 0.44059 0.0
C1367 C 0.62767 0.8948 0.4444 0.0
C1368 C 0.62988 0.91006 0.42416 0.0
C1369 C 0.08111 0.72474 0.42019 0.0
C1370 C 0.07749 0.73895 0.40416 0.0
C1371 C 0.09568 0.73255 0.44222 0.0
C1372 C 0.10698 0.75478 0.44914 0.0
H1373 H 0.07248 0.70742 0.41589 0.0
H1374 H 0.09786 0.7211 0.4542 0.0
S1375 S 0.10505 0.79911 0.41275 0.0
N1376 N 0.08772 0.77672 0.39617 0.0
N1377 N 0.11486 0.79109 0.4375 0.0
C1378 C 0.10397 0.76921 0.43304 0.0
C1379 C 0.0893 0.76138 0.41059 0.0
C1380 C 0.34007 0.06504 0.77659 0.0
C1381 C 0.32475 0.054 0.75588 0.0
C1382 C 0.33644 0.07709 0.7965 0.0
C1383 C 0.31762 0.07907 0.79606 0.0
H1384 H 0.35496 0.06431 0.77744 0.0
H1385 H 0.34861 0.08507 0.81225 0.0
S1386 S 0.27324 0.05426 0.74464 0.0
N1387 N 0.29024 0.04583 0.73571 0.0
N1388 N 0.28394 0.06952 0.77203 0.0
C1389 C 0.30221 0.0681 0.77524 0.0
C1390 C 0.30567 0.05535 0.75541 0.0
C1391 C 0.94858 0.26088 0.7521 0.0
C1392 C 0.93425 0.26548 0.73773 0.0
C1393 C 0.94126 0.24685 0.77464 0.0
C1394 C 0.91943 0.23707 0.78377 0.0
H1395 H 0.96558 0.26814 0.74593 0.0
H1396 H 0.95279 0.24376 0.78512 0.0
S1397 S 0.87493 0.24248 0.7527 0.0
N1398 N 0.8968 0.25824 0.73407 0.0
N1399 N 0.88329 0.23194 0.77612 0.0
C1400 C 0.9049 0.24128 0.76951 0.0
C1401 C 0.91224 0.25545 0.74659 0.0
C1402 C 0.74457 0.6571 0.74625 0.0
C1403 C 0.73624 0.67001 0.73658 0.0
C1404 C 0.7591 0.66389 0.76808 0.0
C1405 C 0.76605 0.68392 0.78123 0.0
H1406 H 0.73988 0.64152 0.73692 0.0
H1407 H 0.76521 0.65345 0.77447 0.0
S1408 S 0.74911 0.72385 0.76454 0.0
N1409 N 0.73601 0.70392 0.74228 0.0
N1410 N 0.76346 0.71659 0.78349 0.0
C1411 C 0.75798 0.69709 0.77194 0.0
C1412 C 0.74302 0.69014 0.74965 0.0
C1413 C 0.74035 0.66715 0.58963 0.0
C1414 C 0.7186 0.6516 0.59654 0.0
C1415 C 0.75128 0.66342 0.56832 0.0
C1416 C 0.74088 0.64402 0.55302 0.0
H1417 H 0.74926 0.68218 0.60112 0.0
H1418 H 0.76826 0.67556 0.56439 0.0
S1419 S 0.68344 0.59895 0.56102 0.0
N1420 N 0.68657 0.61656 0.58516 0.0
N1421 N 0.70722 0.60972 0.54487 0.0
C1422 C 0.71893 0.62863 0.55904 0.0
C1423 C 0.70775 0.63239 0.58082 0.0
C1424 C 0.35305 0.06764 0.59568 0.0
C1425 C 0.34762 0.07286 0.62115 0.0
C1426 C 0.35819 0.08169 0.57334 0.0
C1427 C 0.35855 0.10153 0.57613 0.0
H1428 H 0.35221 0.05216 0.59267 0.0
H1429 H 0.3614 0.07683 0.5537 0.0
S1430 S 0.34724 0.12334 0.63892 0.0
N1431 N 0.3439 0.09958 0.64807 0.0
N1432 N 0.35419 0.12616 0.60639 0.0
C1433 C 0.35416 0.10732 0.60174 0.0
C1434 C 0.34854 0.09292 0.62421 0.0
C1435 C 0.92382 0.28508 0.58266 0.0
C1436 C 0.93273 0.27509 0.59846 0.0
C1437 C 0.90839 0.27349 0.5623 0.0
C1438 C 0.90137 0.2515 0.55685 0.0
H1439 H 0.92859 0.30194 0.5862 0.0
H1440 H 0.90189 0.2818 0.55074 0.0
S1441 S 0.91933 0.21759 0.59251 0.0
N1442 N 0.93333 0.24178 0.60708 0.0
N1443 N 0.90415 0.22003 0.56913 0.0
C1444 C 0.91025 0.24134 0.57229 0.0
C1445 C 0.92597 0.25312 0.593 0.0
C1446 C 0.34062 0.24884 0.6175 0.0
C1447 C 0.34147 0.26892 0.61522 0.0
C1448 C 0.34781 0.24076 0.59625 0.0
C1449 C 0.35573 0.25229 0.5718 0.0
H1450 H 0.3342 0.23919 0.63582 0.0
H1451 H 0.34655 0.22506 0.59863 0.0
S1452 S 0.36137 0.30551 0.55535 0.0
N1453 N 0.35132 0.30035 0.58668 0.0
N1454 N 0.36421 0.28468 0.54629 0.0
C1455 C 0.35691 0.27244 0.56922 0.0
C1456 C 0.34998 0.28092 0.5911 0.0
C1457 C 0.74186 0.07102 0.58887 0.0
C1458 C 0.72045 0.06469 0.59755 0.0
C1459 C 0.75185 0.0856 0.56735 0.0
C1460 C 0.74083 0.09442 0.55361 0.0
H1461 H 0.75125 0.06507 0.59915 0.0
H1462 H 0.76862 0.09054 0.56202 0.0
S1463 S 0.68385 0.08163 0.5665 0.0
N1464 N 0.68802 0.06736 0.58946 0.0
N1465 N 0.70687 0.09469 0.54878 0.0
C1466 C 0.71918 0.08771 0.56138 0.0
C1467 C 0.70895 0.07283 0.58335 0.0
C1468 C 0.93408 0.65072 0.59245 0.0
C1469 C 0.92985 0.65471 0.61925 0.0
C1470 C 0.91864 0.64583 0.57174 0.0
C1471 C 0.8985 0.64462 0.57733 0.0
H1472 H 0.94983 0.65259 0.58719 0.0
H1473 H 0.92295 0.64408 0.55104 0.0
S1474 S 0.87829 0.64978 0.64537 0.0
N1475 N 0.90336 0.65469 0.65093 0.0
N1476 N 0.87408 0.64471 0.61245 0.0
C1477 C 0.89356 0.64693 0.60452 0.0
C1478 C 0.90932 0.65221 0.62537 0.0
C1479 C 0.95787 0.69786 0.75923 0.0
C1480 C 0.95233 0.67631 0.75317 0.0
C1481 C 0.94547 0.7022 0.77798 0.0
C1482 C 0.92721 0.68514 0.79129 0.0
H1483 H 0.97123 0.7114 0.74855 0.0
H1484 H 0.94958 0.71893 0.78112 0.0
S1485 S 0.90821 0.62623 0.78602 0.0
N1486 N 0.92894 0.63797 0.76435 0.0
N1487 N 0.90588 0.6462 0.79973 0.0
C1488 C 0.92243 0.66368 0.78673 0.0
C1489 C 0.93493 0.65925 0.76763 0.0
C1490 C 0.3068 0.259 0.76758 0.0
C1491 C 0.3263 0.26912 0.75207 0.0
C1492 C 0.30371 0.24443 0.78849 0.0
C1493 C 0.32002 0.23949 0.79479 0.0
H1494 H 0.29367 0.26212 0.76336 0.0
H1495 H 0.28837 0.23687 0.79974 0.0
S1496 S 0.37396 0.26136 0.76032 0.0
N1497 N 0.36224 0.27319 0.74471 0.0
N1498 N 0.35623 0.2456 0.78374 0.0
C1499 C 0.33968 0.24966 0.77972 0.0
C1500 C 0.34286 0.26451 0.75844 0.0
C1501 C 0.74885 0.05912 0.75253 0.0
C1502 C 0.74369 0.07264 0.73738 0.0
C1503 C 0.76348 0.06738 0.77448 0.0
C1504 C 0.7733 0.08939 0.78222 0.0
H1505 H 0.74145 0.04198 0.74756 0.0
H1506 H 0.76689 0.05643 0.7857 0.0
S1507 S 0.76683 0.13209 0.74842 0.0
N1508 N 0.7507 0.10959 0.73123 0.0
N1509 N 0.77804 0.12485 0.77232 0.0
C1510 C 0.76867 0.10316 0.76705 0.0
C1511 C 0.75392 0.09486 0.74469 0.0
C1512 C 0.04717 0.31593 0.05904 0.0
C1513 C 0.05464 0.33653 0.04729 0.0
C1514 C 0.0618 0.3104 0.07023 0.0
C1515 C 0.08447 0.32528 0.07031 0.0
H1516 H 0.0298 0.3041 0.06023 0.0
H1517 H 0.05523 0.29464 0.07984 0.0
S1518 S 0.11278 0.38053 0.04005 0.0
N1519 N 0.0865 0.37133 0.03485 0.0
N1520 N 0.11395 0.36085 0.05599 0.0
C1521 C 0.09229 0.34559 0.05773 0.0
C1522 C 0.0774 0.35121 0.04614 0.0
C1523 C 0.64507 0.72666 0.03611 0.0
C1524 C 0.65037 0.71067 0.04212 0.0
C1525 C 0.65382 0.74596 0.05128 0.0
C1526 C 0.66782 0.74982 0.07348 0.0
H1527 H 0.63415 0.72428 0.01945 0.0
H1528 H 0.64945 0.75792 0.04564 0.0
S1529 S 0.68586 0.71238 0.09824 0.0
N1530 N 0.67037 0.69971 0.07166 0.0
N1531 N 0.68605 0.73558 0.10107 0.0
C1532 C 0.67328 0.73391 0.07966 0.0
C1533 C 0.6647 0.71442 0.0638 0.0
C1534 C 0.27548 0.92237 0.02695 0.0
C1535 C 0.2918 0.94227 0.03788 0.0
C1536 C 0.25481 0.91072 0.03924 0.0
C1537 C 0.24986 0.91829 0.06328 0.0
H1538 H 0.27868 0.91578 0.00868 0.0
H1539 H 0.24267 0.89553 0.02993 0.0
S1540 S 0.28753 0.96924 0.10053 0.0
N1541 N 0.30191 0.96922 0.07389 0.0
N1542 N 0.26333 0.94679 0.0979 0.0
C1543 C 0.26609 0.93829 0.07435 0.0
C1544 C 0.28701 0.95038 0.06145 0.0
C1545 C 0.32135 0.04868 0.98016 0.0
C1546 C 0.34302 0.05297 0.98022 0.0
C1547 C 0.31613 0.06331 0.96842 0.0
C1548 C 0.33234 0.08254 0.95577 0.0
H1549 H 0.30829 0.03381 0.98908 0.0
H1550 H 0.29922 0.05939 0.96904 0.0
S1551 S 0.39145 0.1005 0.94925 0.0
N1552 N 0.38078 0.07756 0.96659 0.0
N1553 N 0.37092 0.10457 0.94325 0.0
C1554 C 0.35413 0.08699 0.95579 0.0
C1555 C 0.35948 0.07232 0.96832 0.0
C1556 C 0.92619 0.27217 0.99448 0.0
C1557 C 0.94662 0.2895 0.98605 0.0
C1558 C 0.91541 0.2528 0.9794 0.0
C1559 C 0.92439 0.25015 0.95495 0.0
H1560 H 0.91847 0.27357 0.01291 0.0
H1561 H 0.89975 0.23986 0.98687 0.0
S1562 S 0.97729 0.29114 0.92363 0.0
N1563 N 0.97559 0.30291 0.95189 0.0
N1564 N 0.95486 0.26685 0.92282 0.0
C1565 C 0.94494 0.26735 0.94641 0.0
C1566 C 0.95614 0.28695 0.96211 0.0
C1567 C 0.7197 0.68125 0.94314 0.0
C1568 C 0.71307 0.67033 0.96822 0.0
C1569 C 0.7401 0.68713 0.93162 0.0
C1570 C 0.75481 0.68256 0.94489 0.0
H1571 H 0.70878 0.68475 0.93187 0.0
H1572 H 0.7441 0.69475 0.91177 0.0
S1573 S 0.74635 0.65657 0.01257 0.0
N1574 N 0.72334 0.65644 0.00688 0.0
N1575 N 0.76209 0.66817 0.98567 0.0
C1576 C 0.74873 0.6724 0.97052 0.0
C1577 C 0.72779 0.66613 0.98208 0.0
C1578 C 0.94173 0.66518 0.96997 0.0
C1579 C 0.92945 0.64363 0.9797 0.0
C1580 C 0.932 0.67436 0.95444 0.0
C1581 C 0.90966 0.66232 0.94787 0.0
H1582 H 0.95911 0.67504 0.97407 0.0
H1583 H 0.94214 0.69086 0.94704 0.0
S1584 S 0.86973 0.60597 0.96973 0.0
N1585 N 0.89329 0.61093 0.98256 0.0
N1586 N 0.87514 0.62834 0.95342 0.0
C1587 C 0.89703 0.64101 0.95791 0.0
C1588 C 0.90687 0.63164 0.97383 0.0
C1589 C 0.35272 0.28791 0.96975 0.0
C1590 C 0.33642 0.29191 0.97965 0.0
C1591 C 0.34725 0.2678 0.95804 0.0
C1592 C 0.32528 0.25077 0.95616 0.0
H1593 H 0.36981 0.30066 0.9701 0.0
H1594 H 0.36036 0.26583 0.94972 0.0
S1595 S 0.27666 0.25222 0.98223 0.0
N1596 N 0.29754 0.27687 0.98853 0.0
N1597 N 0.28728 0.23872 0.96751 0.0
C1598 C 0.30887 0.2543 0.96704 0.0
C1599 C 0.31444 0.27493 0.97858 0.0
C1600 C 0.71976 0.07626 0.96039 0.0
C1601 C 0.71437 0.05748 0.97547 0.0
C1602 C 0.73968 0.08765 0.94636 0.0
C1603 C 0.75523 0.08094 0.94704 0.0
H1604 H 0.70847 0.08226 0.95932 0.0
H1605 H 0.74299 0.10198 0.93499 0.0
S1606 S 0.74921 0.03284 0.98363 0.0
N1607 N 0.72604 0.0324 0.98994 0.0
N1608 N 0.7639 0.05426 0.96405 0.0
C1609 C 0.74997 0.06198 0.96167 0.0
C1610 C 0.72947 0.05018 0.97579 0.0
C1611 C 0.68884 0.95601 0.05172 0.0
C1612 C 0.66694 0.95073 0.04887 0.0
C1613 C 0.69407 0.94182 0.06481 0.0
C1614 C 0.67762 0.92198 0.07597 0.0
H1615 H 0.70205 0.97122 0.04374 0.0
H1616 H 0.71116 0.94644 0.06613 0.0
S1617 S 0.6178 0.90163 0.07603 0.0
N1618 N 0.62873 0.92475 0.05906 0.0
N1619 N 0.63852 0.89857 0.08472 0.0
C1620 C 0.65564 0.91671 0.07357 0.0
C1621 C 0.65032 0.93095 0.05976 0.0
C1622 C 0.05502 0.7227 0.0296 0.0
C1623 C 0.0365 0.70815 0.04496 0.0
C1624 C 0.07006 0.74352 0.03964 0.0
C1625 C 0.06723 0.75044 0.06551 0.0
H1626 H 0.05788 0.71802 0.00965 0.0
H1627 H 0.08403 0.75426 0.02707 0.0
S1628 S 0.02236 0.71781 0.11466 0.0
N1629 N 0.01658 0.70184 0.08774 0.0
N1630 N 0.04514 0.74058 0.10686 0.0
C1631 C 0.04888 0.73594 0.08116 0.0
C1632 C 0.03347 0.71489 0.07083 0.0
C1633 C 0.28445 0.33494 0.0575 0.0
C1634 C 0.29429 0.35666 0.04842 0.0
C1635 C 0.26503 0.32541 0.07287 0.0
C1636 C 0.2548 0.33727 0.07989 0.0
H1637 H 0.29179 0.32516 0.05278 0.0
H1638 H 0.25809 0.30872 0.07958 0.0
S1639 S 0.27289 0.39411 0.06023 0.0
N1640 N 0.29166 0.38946 0.04707 0.0
N1641 N 0.25513 0.37137 0.07578 0.0
C1642 C 0.26421 0.35884 0.07076 0.0
C1643 C 0.28394 0.36857 0.05508 0.0
C1644 C 0.73629 0.67323 0.36817 0.0
C1645 C 0.71715 0.66834 0.38278 0.0
C1646 C 0.75085 0.66695 0.37789 0.0
C1647 C 0.74687 0.65569 0.40266 0.0
H1648 H 0.73996 0.6818 0.34898 0.0
H1649 H 0.76529 0.67087 0.36589 0.0
S1650 S 0.70025 0.64094 0.44998 0.0
N1651 N 0.69562 0.65254 0.42398 0.0
N1652 N 0.72321 0.64136 0.44249 0.0
C1653 C 0.72801 0.6511 0.41769 0.0
C1654 C 0.71311 0.65728 0.4077 0.0
C1655 C 0.29845 0.04229 0.39626 0.0
C1656 C 0.31186 0.03798 0.3792 0.0
C1657 C 0.30711 0.06161 0.41137 0.0
C1658 C 0.3295 0.07762 0.40976 0.0
H1659 H 0.28109 0.03055 0.39815 0.0
H1660 H 0.2961 0.06405 0.42439 0.0
S1661 S 0.37153 0.07455 0.36738 0.0
N1662 N 0.34869 0.05126 0.36151 0.0
N1663 N 0.36487 0.088 0.38925 0.0
C1664 C 0.34316 0.07349 0.39287 0.0
C1665 C 0.33436 0.05361 0.37773 0.0
C1666 C 0.9447 0.28168 0.37665 0.0
C1667 C 0.96012 0.27485 0.37874 0.0
C1668 C 0.92405 0.26996 0.38914 0.0
C1669 C 0.91819 0.2511 0.40425 0.0
H1670 H 0.94833 0.29579 0.36458 0.0
H1671 H 0.91237 0.2753 0.38624 0.0
S1672 S 0.95374 0.22824 0.41926 0.0
N1673 N 0.96881 0.2492 0.39919 0.0
N1674 N 0.93017 0.22745 0.42309 0.0
C1675 C 0.93382 0.24472 0.40761 0.0
C1676 C 0.95475 0.25652 0.39474 0.0
C1677 C 0.98322 0.37651 0.3001 0.0
C1678 C 0.00353 0.38337 0.31263 0.0
C1679 C 0.97852 0.39151 0.28845 0.0
C1680 C 0.99399 0.41391 0.28875 0.0
H1681 H 0.97103 0.35934 0.29857 0.0
H1682 H 0.96298 0.38546 0.27822 0.0
S1683 S 0.0486 0.44067 0.32134 0.0
N1684 N 0.03858 0.41439 0.32639 0.0
N1685 N 0.0296 0.44253 0.30441 0.0
C1686 C 0.01394 0.42114 0.30219 0.0
C1687 C 0.01873 0.40588 0.3142 0.0
C1688 C 0.62059 0.61986 0.29201 0.0
C1689 C 0.61121 0.62296 0.31573 0.0
C1690 C 0.60948 0.60045 0.27689 0.0
C1691 C 0.58876 0.58339 0.28522 0.0
H1692 H 0.63624 0.63282 0.28455 0.0
H1693 H 0.61683 0.5991 0.25809 0.0
S1694 S 0.55901 0.58223 0.34844 0.0
N1695 N 0.58114 0.60674 0.34828 0.0
N1696 N 0.56069 0.56995 0.32065 0.0
C1697 C 0.57988 0.58589 0.30982 0.0
C1698 C 0.59098 0.60575 0.32486 0.0
C1699 C 0.37928 0.98022 0.29609 0.0
C1700 C 0.37496 0.99622 0.30597 0.0
C1701 C 0.39962 0.98595 0.28445 0.0
C1702 C 0.4166 0.00788 0.28269 0.0
H1703 H 0.36662 0.96317 0.29654 0.0
H1704 H 0.40185 0.97305 0.27618 0.0
S1705 S 0.41421 0.05573 0.30869 0.0
N1706 N 0.38951 0.03475 0.31481 0.0
N1707 N 0.42816 0.04552 0.29407 0.0
C1708 C 0.41269 0.02399 0.29346 0.0
C1709 C 0.39179 0.01815 0.30485 0.0
C1710 C 0.60371 0.9932 0.31437 0.0
C1711 C 0.60033 0.97242 0.30817 0.0
C1712 C 0.59273 0.00173 0.30006 0.0
C1713 C 0.57828 0.98992 0.27874 0.0
H1714 H 0.61449 0.00271 0.33084 0.0
H1715 H 0.59524 0.01748 0.30614 0.0
S1716 S 0.56634 0.93604 0.2522 0.0
N1717 N 0.5829 0.94094 0.27812 0.0
N1718 N 0.56299 0.9573 0.25043 0.0
C1719 C 0.57553 0.96949 0.27165 0.0
C1720 C 0.58637 0.96066 0.28655 0.0
C1721 C 0.98633 0.61032 0.31122 0.0
C1722 C 0.00844 0.62699 0.31259 0.0
C1723 C 0.98034 0.58996 0.29976 0.0
C1724 C 0.9962 0.58564 0.28885 0.0
H1725 H 0.97356 0.61304 0.31901 0.0
H1726 H 0.96313 0.57753 0.29939 0.0
S1727 S 0.05622 0.6246 0.28552 0.0
N1728 N 0.04619 0.63816 0.30144 0.0
N1729 N 0.03494 0.60031 0.27885 0.0
C1730 C 0.01838 0.60232 0.28991 0.0
C1731 C 0.02449 0.62288 0.30204 0.0
C1732 C 0.39647 0.38691 0.30539 0.0
C1733 C 0.38033 0.39287 0.30475 0.0
C1734 C 0.41615 0.39866 0.29066 0.0
C1735 C 0.42023 0.41663 0.27464 0.0
H1736 H 0.39412 0.37343 0.3179 0.0
H1737 H 0.42848 0.39404 0.29243 0.0
S1738 S 0.38191 0.43675 0.26284 0.0
N1739 N 0.36894 0.41664 0.28474 0.0
N1740 N 0.40561 0.43831 0.25667 0.0
C1741 C 0.40378 0.42206 0.27281 0.0
C1742 C 0.38393 0.4103 0.28797 0.0
C1743 C 0.35076 0.29167 0.40459 0.0
C1744 C 0.33987 0.28679 0.37944 0.0
C1745 C 0.35534 0.27689 0.4172 0.0
C1746 C 0.34941 0.25671 0.40504 0.0
H1747 H 0.3552 0.30677 0.41512 0.0
H1748 H 0.36298 0.28107 0.43704 0.0
S1749 S 0.32304 0.23722 0.33765 0.0
N1750 N 0.32467 0.26102 0.34188 0.0
N1751 N 0.3339 0.23348 0.36517 0.0
C1752 C 0.33934 0.252 0.37933 0.0
C1753 C 0.33443 0.26697 0.36663 0.0
C1754 C 0.70176 0.05644 0.37858 0.0
C1755 C 0.70741 0.04017 0.3778 0.0
C1756 C 0.71647 0.07741 0.38842 0.0
C1757 C 0.73724 0.08276 0.39823 0.0
H1758 H 0.68586 0.05296 0.3715 0.0
H1759 H 0.71152 0.08951 0.38838 0.0
S1760 S 0.75907 0.04524 0.40269 0.0
N1761 N 0.73481 0.03049 0.38843 0.0
N1762 N 0.76207 0.06951 0.40802 0.0
C1763 C 0.74294 0.06648 0.39784 0.0
C1764 C 0.72812 0.04528 0.38736 0.0
C1765 C 0.95555 0.6708 0.39125 0.0
C1766 C 0.96591 0.69251 0.38201 0.0
C1767 C 0.93594 0.66168 0.40621 0.0
C1768 C 0.92605 0.67396 0.41267 0.0
H1769 H 0.96259 0.6607 0.38692 0.0
H1770 H 0.92856 0.64496 0.41298 0.0
S1771 S 0.94565 0.73103 0.39252 0.0
N1772 N 0.96421 0.72581 0.38001 0.0
N1773 N 0.92733 0.70849 0.40796 0.0
C1774 C 0.93603 0.69555 0.40347 0.0
C1775 C 0.95595 0.70486 0.38818 0.0
C1776 C 0.4018 0.00519 0.70417 0.0
C1777 C 0.38275 0.00073 0.71868 0.0
C1778 C 0.41631 -0.00096 0.71438 0.0
C1779 C 0.41244 0.98841 0.73962 0.0
H1780 H 0.40546 0.01337 0.68471 0.0
H1781 H 0.43068 0.00264 0.70241 0.0
S1782 S 0.36589 0.97476 0.78665 0.0
N1783 N 0.36124 0.9858 0.76006 0.0
N1784 N 0.38882 0.97497 0.77962 0.0
C1785 C 0.39359 0.98415 0.75448 0.0
C1786 C 0.37869 0.99014 0.74393 0.0
C1787 C 0.99383 0.37809 0.7289 0.0
C1788 C 0.98038 0.37423 0.70618 0.0
C1789 C 0.0013 0.39702 0.74477 0.0
C1790 C 0.99578 0.41283 0.73822 0.0
H1791 H -0.0021 0.36602 0.7351 0.0
H1792 H 0.01081 0.39891 0.76279 0.0
S1793 S 0.96406 0.41197 0.67801 0.0
N1794 N 0.96366 0.38862 0.67635 0.0
N1795 N 0.97837 0.42454 0.70541 0.0
C1796 C 0.98343 0.40969 0.71456 0.0
C1797 C 0.97555 0.3903 0.69874 0.0
C1798 C 0.61442 0.58195 0.71591 0.0
C1799 C 0.62473 0.60438 0.71028 0.0
C1800 C 0.59452 0.5712 0.73014 0.0
C1801 C 0.58409 0.58242 0.73925 0.0
H1802 H 0.62172 0.5725 0.70929 0.0
H1803 H 0.58711 0.55388 0.73379 0.0
S1804 S 0.60428 0.64129 0.7308 0.0
N1805 N 0.62298 0.63754 0.71552 0.0
N1806 N 0.58558 0.61717 0.74245 0.0
C1807 C 0.59412 0.60481 0.73392 0.0
C1808 C 0.61444 0.61583 0.71943 0.0
C1809 C 0.67383 0.72807 0.65244 0.0
C1810 C 0.66865 0.70901 0.63784 0.0
C1811 C 0.66871 0.74322 0.64213 0.0
C1812 C 0.65845 0.73997 0.61672 0.0
H1813 H 0.68183 0.73127 0.67201 0.0
H1814 H 0.67283 0.7576 0.65415 0.0
S1815 S 0.64303 0.69347 0.56956 0.0
N1816 N 0.65333 0.68802 0.5963 0.0
N1817 N 0.6444 0.71682 0.57657 0.0
C1818 C 0.65339 0.72106 0.60181 0.0
C1819 C 0.65833 0.70551 0.61246 0.0
C1820 C 0.26097 0.95404 0.62771 0.0
C1821 C 0.27956 0.95973 0.6436 0.0
C1822 C 0.24999 0.93407 0.61392 0.0
C1823 C 0.25701 0.91884 0.61559 0.0
H1824 H 0.25485 0.96514 0.62577 0.0
H1825 H 0.23583 0.93051 0.60183 0.0
S1826 S 0.30435 0.9254 0.65515 0.0
N1827 N 0.30444 0.94836 0.66037 0.0
N1828 N 0.28343 0.91059 0.63484 0.0
C1829 C 0.27561 0.9243 0.63129 0.0
C1830 C 0.28694 0.94477 0.64522 0.0
C1831 C 0.04896 0.31392 0.63383 0.0
C1832 C 0.04238 0.32952 0.63479 0.0
C1833 C 0.06822 0.31818 0.62025 0.0
C1834 C 0.08176 0.33829 0.60743 0.0
H1835 H 0.03886 0.29804 0.64297 0.0
H1836 H 0.07251 0.30559 0.61964 0.0
S1837 S 0.07256 0.38501 0.60492 0.0
N1838 N 0.05145 0.36623 0.62241 0.0
N1839 N 0.08767 0.37414 0.597 0.0
C1840 C 0.07576 0.35426 0.60885 0.0
C1841 C 0.05606 0.34989 0.62248 0.0
C1842 C 0.24802 0.30083 0.6507 0.0
C1843 C 0.26975 0.30781 0.64303 0.0
C1844 C 0.23603 0.30876 0.63759 0.0
C1845 C 0.24515 0.32364 0.6159 0.0
H1846 H 0.24031 0.28936 0.66722 0.0
H1847 H 0.21947 0.30318 0.64456 0.0
S1848 S 0.30106 0.34567 0.58683 0.0
N1849 N 0.29986 0.33001 0.61215 0.0
N1850 N 0.27701 0.34413 0.58652 0.0
C1851 C 0.26685 0.33054 0.60785 0.0
C1852 C 0.2792 0.3228 0.62162 0.0
C1853 C 0.69178 0.95546 0.63577 0.0
C1854 C 0.67592 0.95888 0.64845 0.0
C1855 C 0.68606 0.93528 0.62407 0.0
C1856 C 0.66433 0.91762 0.62504 0.0
H1857 H 0.70858 0.96872 0.63387 0.0
H1858 H 0.69869 0.93374 0.61347 0.0
S1859 S 0.61735 0.91754 0.65937 0.0
N1860 N 0.63799 0.94273 0.66317 0.0
N1861 N 0.62737 0.90442 0.64234 0.0
C1862 C 0.64853 0.9206 0.63887 0.0
C1863 C 0.6543 0.9413 0.65032 0.0
C1864 C 0.05094 0.74014 0.62307 0.0
C1865 C 0.04544 0.72145 0.6384 0.0
C1866 C 0.07126 0.75186 0.60993 0.0
C1867 C 0.08705 0.74551 0.61175 0.0
H1868 H 0.03947 0.74586 0.6212 0.0
H1869 H 0.07469 0.76614 0.59835 0.0
S1870 S 0.08101 0.69793 0.64961 0.0
N1871 N 0.05744 0.69698 0.65448 0.0
N1872 N 0.0959 0.71938 0.63019 0.0
C1873 C 0.08172 0.72669 0.62668 0.0
C1874 C 0.06088 0.71459 0.63992 0.0
C1875 C 0.01832 0.61845 0.71703 0.0
C1876 C 0.99677 0.61403 0.71347 0.0
C1877 C 0.02253 0.60362 0.73034 0.0
C1878 C 0.00533 0.58398 0.74099 0.0
H1879 H 0.03207 0.63351 0.70951 0.0
H1880 H 0.03938 0.6076 0.73232 0.0
S1881 S 0.94601 0.5657 0.73897 0.0
N1882 N 0.95807 0.58901 0.72236 0.0
N1883 N 0.96594 0.5616 0.74837 0.0
C1884 C 0.98369 0.57952 0.73778 0.0
C1885 C 0.97942 0.59442 0.72378 0.0
C1886 C 0.39301 0.39241 0.69641 0.0
C1887 C 0.37439 0.37742 0.71126 0.0
C1888 C 0.40709 0.41348 0.70645 0.0
C1889 C 0.40317 0.42024 0.73182 0.0
H1890 H 0.39676 0.38785 0.67689 0.0
H1891 H 0.42126 0.42452 0.69434 0.0
S1892 S 0.35742 0.38663 0.77947 0.0
N1893 N 0.35305 0.37059 0.75294 0.0
N1894 N 0.37985 0.40987 0.77212 0.0
C1895 C 0.38463 0.40535 0.74691 0.0
C1896 C 0.37017 0.38402 0.73656 0.0
C1897 C 0.62237 0.03452 0.72295 0.0
C1898 C 0.63175 0.02184 0.71581 0.0
C1899 C 0.60287 0.02575 0.73798 0.0
C1900 C 0.59189 0.00391 0.74644 0.0
H1901 H 0.6301 0.05144 0.71692 0.0
H1902 H 0.59618 0.0361 0.74272 0.0
S1903 S 0.60949 0.96369 0.73374 0.0
N1904 N 0.62847 0.98614 0.71871 0.0
N1905 N 0.59183 0.9698 0.7472 0.0
C1906 C 0.60098 0.99097 0.73958 0.0
C1907 C 0.62092 -0.0001 0.72426 0.0
loop_
_geom_bond_atom_site_label_1
_geom_bond_atom_site_label_2
_geom_bond_distance
_geom_bond_site_symmetry_2
_ccdc_geom_bond_type
C0 O1 1.303 1_556 S
C0 O3 1.160 . S
O1 C0 1.303 1_554 S
O1 Cd2 2.230 . S
Cd2 O1 2.230 . S
Cd2 O6 2.273 . S
Cd2 O10 2.277 1_554 S
O3 C0 1.160 . S
O3 Cd4 2.203 1_656 S
Cd4 O3 2.203 1_454 S
Cd4 O6 2.411 1_455 S
Cd4 O7 2.333 . S
Cd4 O8 2.352 . S
Cd4 O12 2.277 1_554 S
Cd4 O13 2.356 . S
C5 O10 1.209 1_455 S
C5 O12 1.226 . S
O6 Cd2 2.273 . S
O6 Cd4 2.411 1_655 S
O6 C9 1.324 . S
O7 Cd4 2.333 . S
O7 C9 1.205 1_455 S
O8 Cd4 2.352 . S
O8 C11 1.258 . S
C9 O6 1.324 . S
C9 O7 1.205 1_655 S
O10 Cd2 2.277 1_556 S
O10 C5 1.209 1_655 S
C11 O8 1.258 . S
C11 O13 1.282 . S
O12 Cd4 2.277 1_556 S
O12 C5 1.226 . S
O13 Cd4 2.356 . S
O13 C11 1.282 . S
C14 O15 1.306 . S
C14 O17 1.160 . S
O15 C14 1.306 . S
O15 Cd16 2.228 . S
Cd16 O15 2.228 . S
Cd16 O20 2.273 1_554 S
Cd16 O24 2.277 . S
O17 C14 1.160 . S
O17 Cd18 2.203 . S
Cd18 O17 2.203 . S
Cd18 O20 2.411 1_554 S
Cd18 O21 2.333 1_554 S
Cd18 O22 2.352 1_554 S
Cd18 O26 2.277 . S
Cd18 O27 2.358 . S
C19 O24 1.209 . S
C19 O26 1.226 . S
O20 Cd16 2.273 1_556 S
O20 Cd18 2.411 1_556 S
O20 C23 1.320 . S
O21 Cd18 2.333 1_556 S
O21 C23 1.214 . S
O22 Cd18 2.352 1_556 S
O22 C25 1.258 . S
C23 O20 1.320 . S
C23 O21 1.214 . S
O24 Cd16 2.277 . S
O24 C19 1.209 . S
C25 O22 1.258 . S
C25 O27 1.278 1_556 S
O26 Cd18 2.277 . S
O26 C19 1.226 . S
O27 Cd18 2.358 . S
O27 C25 1.278 1_554 S
C28 O29 1.306 . S
C28 O31 1.160 . S
O29 C28 1.306 . S
O29 Cd30 2.228 . S
Cd30 O29 2.228 . S
Cd30 O34 2.273 1_554 S
Cd30 O38 2.277 . S
O31 C28 1.160 . S
O31 Cd32 2.203 1_565 S
Cd32 O31 2.203 1_545 S
Cd32 O34 2.411 1_544 S
Cd32 O35 2.333 1_554 S
Cd32 O36 2.352 1_554 S
Cd32 O40 2.277 . S
Cd32 O41 2.356 . S
C33 O38 1.209 1_545 S
C33 O40 1.226 . S
O34 Cd30 2.273 1_556 S
O34 Cd32 2.411 1_566 S
O34 C37 1.302 1_565 S
O35 Cd32 2.333 1_556 S
O35 C37 1.260 . S
O36 Cd32 2.352 1_556 S
O36 C39 1.258 . S
C37 O34 1.302 1_545 S
C37 O35 1.260 . S
O38 Cd30 2.277 . S
O38 C33 1.209 1_565 S
C39 O36 1.258 . S
C39 O41 1.282 1_556 S
O40 Cd32 2.277 . S
O40 C33 1.226 . S
O41 Cd32 2.356 . S
O41 C39 1.282 1_554 S
C42 O43 1.306 . S
C42 O45 1.160 . S
O43 C42 1.306 . S
O43 Cd44 2.228 1_556 S
Cd44 O43 2.228 1_554 S
Cd44 O48 2.273 . S
Cd44 O52 2.277 1_554 S
O45 C42 1.160 . S
O45 Cd46 2.203 1_656 S
Cd46 O45 2.203 1_454 S
Cd46 O48 2.411 1_455 S
Cd46 O49 2.333 . S
Cd46 O50 2.352 . S
Cd46 O54 2.277 1_554 S
Cd46 O55 2.356 . S
C47 O52 1.209 1_455 S
C47 O54 1.226 . S
O48 Cd44 2.273 . S
O48 Cd46 2.411 1_655 S
O48 C51 1.320 . S
O49 Cd46 2.333 . S
O49 C51 1.214 1_455 S
O50 Cd46 2.352 . S
O50 C53 1.258 . S
C51 O48 1.320 . S
C51 O49 1.214 1_655 S
O52 Cd44 2.277 1_556 S
O52 C47 1.209 1_655 S
C53 O50 1.258 . S
C53 O55 1.282 . S
O54 Cd46 2.277 1_556 S
O54 C47 1.226 . S
O55 Cd46 2.356 . S
O55 C53 1.282 . S
C56 O57 1.306 . S
C56 O59 1.160 . S
O57 C56 1.306 . S
O57 Cd58 2.228 . S
Cd58 O57 2.228 . S
Cd58 O62 2.273 1_554 S
Cd58 O66 2.277 . S
O59 C56 1.160 . S
O59 Cd60 2.203 . S
Cd60 O59 2.203 . S
Cd60 O62 2.411 1_554 S
Cd60 O63 2.333 1_554 S
Cd60 O64 2.352 1_554 S
Cd60 O68 2.277 . S
Cd60 O69 2.356 1_554 S
C61 O66 1.209 . S
C61 O68 1.226 . S
O62 Cd58 2.273 1_556 S
O62 Cd60 2.411 1_556 S
O62 C65 1.320 . S
O63 Cd60 2.333 1_556 S
O63 C65 1.214 . S
O64 Cd60 2.352 1_556 S
O64 C67 1.258 . S
C65 O62 1.320 . S
C65 O63 1.214 . S
O66 Cd58 2.277 . S
O66 C61 1.209 . S
C67 O64 1.258 . S
C67 O69 1.282 . S
O68 Cd60 2.277 . S
O68 C61 1.226 . S
O69 Cd60 2.356 1_556 S
O69 C67 1.282 . S
C70 O71 1.312 . S
C70 O73 1.160 . S
O71 C70 1.312 . S
O71 Cd72 2.225 1_556 S
Cd72 O71 2.225 1_554 S
Cd72 O76 2.273 . S
Cd72 O80 2.277 1_554 S
O73 C70 1.160 . S
O73 Cd74 2.203 1_546 S
Cd74 O73 2.203 1_564 S
Cd74 O76 2.411 1_565 S
Cd74 O77 2.333 . S
Cd74 O78 2.352 . S
Cd74 O82 2.277 1_554 S
Cd74 O83 2.356 . S
C75 O80 1.209 1_565 S
C75 O82 1.226 . S
O76 Cd72 2.273 . S
O76 Cd74 2.411 1_545 S
O76 C79 1.320 . S
O77 Cd74 2.333 . S
O77 C79 1.214 1_565 S
O78 Cd74 2.352 . S
O78 C81 1.258 . S
C79 O76 1.320 . S
C79 O77 1.214 1_545 S
O80 Cd72 2.277 1_556 S
O80 C75 1.209 1_545 S
C81 O78 1.258 . S
C81 O83 1.282 . S
O82 Cd74 2.277 1_556 S
O82 C75 1.226 . S
O83 Cd74 2.356 . S
O83 C81 1.282 . S
C84 O85 1.306 . S
C84 O87 1.160 . S
O85 C84 1.306 . S
O85 Cd86 2.228 . S
Cd86 O85 2.228 . S
Cd86 O90 2.273 . S
Cd86 O94 2.277 . S
O87 C84 1.160 . S
O87 Cd88 2.203 . S
Cd88 O87 2.203 . S
Cd88 O90 2.411 . S
Cd88 O91 2.333 . S
Cd88 O92 2.352 . S
Cd88 O96 2.277 . S
Cd88 O97 2.356 . S
C89 O94 1.209 . S
C89 O96 1.226 . S
O90 Cd86 2.273 . S
O90 Cd88 2.411 . S
O90 C93 1.320 . S
O91 Cd88 2.333 . S
O91 C93 1.214 . S
O92 Cd88 2.352 . S
O92 C95 1.258 . S
C93 O90 1.320 . S
C93 O91 1.214 . S
O94 Cd86 2.277 . S
O94 C89 1.209 . S
C95 O92 1.258 . S
C95 O97 1.282 . S
O96 Cd88 2.277 . S
O96 C89 1.226 . S
O97 Cd88 2.356 . S
O97 C95 1.282 . S
C98 O99 1.306 . S
C98 O101 1.160 . S
O99 C98 1.306 . S
O99 Cd100 2.228 1_545 S
Cd100 O99 2.228 1_565 S
Cd100 O104 2.273 . S
Cd100 O108 2.277 . S
O101 C98 1.160 . S
O101 Cd102 2.203 1_545 S
Cd102 O101 2.203 1_565 S
Cd102 O104 2.411 . S
Cd102 O105 2.333 . S
Cd102 O106 2.352 1_565 S
Cd102 O110 2.277 . S
Cd102 O111 2.356 . S
C103 O108 1.209 . S
C103 O110 1.226 . S
O104 Cd100 2.273 . S
O104 Cd102 2.411 . S
O104 C107 1.320 . S
O105 Cd102 2.333 . S
O105 C107 1.214 . S
O106 Cd102 2.352 1_545 S
O106 C109 1.258 1_545 S
C107 O104 1.320 . S
C107 O105 1.214 . S
O108 Cd100 2.277 . S
O108 C103 1.209 . S
C109 O106 1.258 1_565 S
C109 O111 1.282 . S
O110 Cd102 2.277 . S
O110 C103 1.226 . S
O111 Cd102 2.356 . S
O111 C109 1.282 . S
C112 O113 1.306 . S
C112 O115 1.160 . S
O113 C112 1.306 . S
O113 Cd114 2.228 1_655 S
Cd114 O113 2.228 1_455 S
Cd114 O118 2.273 . S
Cd114 O122 2.277 . S
O115 C112 1.160 . S
O115 Cd116 2.203 1_655 S
Cd116 O115 2.203 1_455 S
Cd116 O118 2.411 . S
Cd116 O119 2.333 . S
Cd116 O120 2.352 . S
Cd116 O124 2.277 . S
Cd116 O125 2.356 . S
C117 O122 1.209 . S
C117 O124 1.226 . S
O118 Cd114 2.273 . S
O118 Cd116 2.411 . S
O118 C121 1.320 . S
O119 Cd116 2.333 . S
O119 C121 1.214 . S
O120 Cd116 2.352 . S
O120 C123 1.258 . S
C121 O118 1.320 . S
C121 O119 1.214 . S
O122 Cd114 2.277 . S
O122 C117 1.209 . S
C123 O120 1.258 . S
C123 O125 1.282 . S
O124 Cd116 2.277 . S
O124 C117 1.226 . S
O125 Cd116 2.356 . S
O125 C123 1.282 . S
C126 O127 1.306 . S
C126 O129 1.160 . S
O127 C126 1.306 . S
O127 Cd128 2.228 . S
Cd128 O127 2.228 . S
Cd128 O132 2.273 . S
Cd128 O136 2.277 . S
O129 C126 1.160 . S
O129 Cd130 2.203 . S
Cd130 O129 2.203 . S
Cd130 O132 2.411 . S
Cd130 O133 2.333 . S
Cd130 O134 2.352 1_565 S
Cd130 O138 2.277 . S
Cd130 O139 2.356 1_565 S
C131 O136 1.209 . S
C131 O138 1.226 . S
O132 Cd128 2.273 . S
O132 Cd130 2.411 . S
O132 C135 1.320 . S
O133 Cd130 2.333 . S
O133 C135 1.214 . S
O134 Cd130 2.352 1_545 S
O134 C137 1.258 . S
C135 O132 1.320 . S
C135 O133 1.214 . S
O136 Cd128 2.277 . S
O136 C131 1.209 . S
C137 O134 1.258 . S
C137 O139 1.282 . S
O138 Cd130 2.277 . S
O138 C131 1.226 . S
O139 Cd130 2.356 1_545 S
O139 C137 1.282 . S
C140 O141 1.306 . S
C140 O143 1.160 . S
O141 C140 1.306 . S
O141 Cd142 2.228 1_655 S
Cd142 O141 2.228 1_455 S
Cd142 O146 2.273 . S
Cd142 O150 2.277 . S
O143 C140 1.160 . S
O143 Cd144 2.203 1_655 S
Cd144 O143 2.203 1_455 S
Cd144 O146 2.411 . S
Cd144 O147 2.333 . S
Cd144 O148 2.352 . S
Cd144 O152 2.277 . S
Cd144 O153 2.356 . S
C145 O150 1.209 . S
C145 O152 1.226 . S
O146 Cd142 2.273 . S
O146 Cd144 2.411 . S
O146 C149 1.320 . S
O147 Cd144 2.333 . S
O147 C149 1.214 . S
O148 Cd144 2.352 . S
O148 C151 1.258 . S
C149 O146 1.320 . S
C149 O147 1.214 . S
O150 Cd142 2.277 . S
O150 C145 1.209 . S
C151 O148 1.258 . S
C151 O153 1.282 . S
O152 Cd144 2.277 . S
O152 C145 1.226 . S
O153 Cd144 2.356 . S
O153 C151 1.282 . S
C154 O155 1.306 . S
C154 O157 1.160 . S
O155 C154 1.306 . S
O155 Cd156 2.228 . S
Cd156 O155 2.228 . S
Cd156 O160 2.273 . S
Cd156 O164 2.277 . S
O157 C154 1.160 . S
O157 Cd158 2.203 . S
Cd158 O157 2.203 . S
Cd158 O160 2.411 . S
Cd158 O161 2.333 . S
Cd158 O162 2.352 . S
Cd158 O166 2.277 . S
Cd158 O167 2.356 . S
C159 O164 1.209 . S
C159 O166 1.226 . S
O160 Cd156 2.273 . S
O160 Cd158 2.411 . S
O160 C163 1.320 . S
O161 Cd158 2.333 . S
O161 C163 1.214 . S
O162 Cd158 2.352 . S
O162 C165 1.258 . S
C163 O160 1.320 . S
C163 O161 1.214 . S
O164 Cd156 2.277 . S
O164 C159 1.209 . S
C165 O162 1.258 . S
C165 O167 1.282 . S
O166 Cd158 2.277 . S
O166 C159 1.226 . S
O167 Cd158 2.356 . S
O167 C165 1.282 . S
C168 O169 1.306 . S
C168 O171 1.160 . S
O169 C168 1.306 . S
O169 Cd170 2.228 1_565 S
Cd170 O169 2.228 1_545 S
Cd170 O174 2.273 . S
Cd170 O178 2.277 . S
O171 C168 1.160 . S
O171 Cd172 2.203 1_565 S
Cd172 O171 2.203 1_545 S
Cd172 O174 2.411 . S
Cd172 O175 2.333 . S
Cd172 O176 2.363 . S
Cd172 O180 2.277 . S
Cd172 O181 2.356 . S
C173 O178 1.209 . S
C173 O180 1.226 . S
O174 Cd170 2.273 . S
O174 Cd172 2.411 . S
O174 C177 1.320 . S
O175 Cd172 2.333 . S
O175 C177 1.214 . S
O176 Cd172 2.363 . S
O176 C179 1.259 . S
C177 O174 1.320 . S
C177 O175 1.214 . S
O178 Cd170 2.277 . S
O178 C173 1.209 . S
C179 O176 1.259 . S
C179 O181 1.282 . S
O180 Cd172 2.277 . S
O180 C173 1.226 . S
O181 Cd172 2.356 . S
O181 C179 1.282 . S
C182 O183 1.306 . S
C182 O185 1.160 1_655 S
O183 C182 1.306 . S
O183 Cd184 2.228 . S
Cd184 O183 2.228 . S
Cd184 O188 2.273 . S
Cd184 O192 2.277 . S
O185 C182 1.160 1_455 S
O185 Cd186 2.203 1_455 S
Cd186 O185 2.203 1_655 S
Cd186 O188 2.411 . S
Cd186 O189 2.333 . S
Cd186 O190 2.352 1_655 S
Cd186 O194 2.277 . S
Cd186 O195 2.356 1_655 S
C187 O192 1.209 . S
C187 O194 1.226 . S
O188 Cd184 2.273 . S
O188 Cd186 2.411 . S
O188 C191 1.320 . S
O189 Cd186 2.333 . S
O189 C191 1.214 . S
O190 Cd186 2.352 1_455 S
O190 C193 1.258 . S
C191 O188 1.320 . S
C191 O189 1.214 . S
O192 Cd184 2.277 . S
O192 C187 1.209 . S
C193 O190 1.258 . S
C193 O195 1.282 . S
O194 Cd186 2.277 . S
O194 C187 1.226 . S
O195 Cd186 2.356 1_455 S
O195 C193 1.282 . S
C196 O197 1.306 . S
C196 O199 1.160 . S
O197 C196 1.306 . S
O197 Cd198 2.228 . S
Cd198 O197 2.228 . S
Cd198 O202 2.273 . S
Cd198 O206 2.277 . S
O199 C196 1.160 . S
O199 Cd200 2.203 . S
Cd200 O199 2.203 . S
Cd200 O202 2.411 . S
Cd200 O203 2.333 . S
Cd200 O204 2.352 . S
Cd200 O208 2.277 . S
Cd200 O209 2.356 . S
C201 O206 1.209 . S
C201 O208 1.226 . S
O202 Cd198 2.273 . S
O202 Cd200 2.411 . S
O202 C205 1.320 . S
O203 Cd200 2.333 . S
O203 C205 1.214 . S
O204 Cd200 2.352 . S
O204 C207 1.258 . S
C205 O202 1.320 . S
C205 O203 1.214 . S
O206 Cd198 2.277 . S
O206 C201 1.209 . S
C207 O204 1.258 . S
C207 O209 1.282 . S
O208 Cd200 2.277 . S
O208 C201 1.226 . S
O209 Cd200 2.356 . S
O209 C207 1.282 . S
C210 O211 1.306 . S
C210 O213 1.160 . S
O211 C210 1.306 . S
O211 Cd212 2.228 . S
Cd212 O211 2.228 . S
Cd212 O216 2.273 . S
Cd212 O220 2.277 . S
O213 C210 1.160 . S
O213 Cd214 2.203 . S
Cd214 O213 2.203 . S
Cd214 O216 2.411 . S
Cd214 O217 2.333 . S
Cd214 O218 2.352 . S
Cd214 O222 2.277 . S
Cd214 O223 2.356 . S
C215 O220 1.209 . S
C215 O222 1.226 . S
O216 Cd212 2.273 . S
O216 Cd214 2.411 . S
O216 C219 1.320 . S
O217 Cd214 2.333 . S
O217 C219 1.214 . S
O218 Cd214 2.352 . S
O218 C221 1.258 . S
C219 O216 1.320 . S
C219 O217 1.214 . S
O220 Cd212 2.277 . S
O220 C215 1.209 . S
C221 O218 1.258 . S
C221 O223 1.282 . S
O222 Cd214 2.277 . S
O222 C215 1.226 . S
O223 Cd214 2.356 . S
O223 C221 1.282 . S
C224 O225 1.306 . S
C224 O227 1.160 . S
O225 C224 1.306 . S
O225 Cd226 2.228 . S
Cd226 O225 2.228 . S
Cd226 O230 2.273 . S
Cd226 O234 2.277 . S
O227 C224 1.160 . S
O227 Cd228 2.203 . S
Cd228 O227 2.203 . S
Cd228 O230 2.411 . S
Cd228 O231 2.333 . S
Cd228 O232 2.352 1_545 S
Cd228 O236 2.277 . S
Cd228 O237 2.356 1_545 S
C229 O234 1.209 . S
C229 O236 1.226 . S
O230 Cd226 2.273 . S
O230 Cd228 2.411 . S
O230 C233 1.320 . S
O231 Cd228 2.333 . S
O231 C233 1.214 . S
O232 Cd228 2.352 1_565 S
O232 C235 1.258 . S
C233 O230 1.320 . S
C233 O231 1.214 . S
O234 Cd226 2.277 . S
O234 C229 1.209 . S
C235 O232 1.258 . S
C235 O237 1.282 . S
O236 Cd228 2.277 . S
O236 C229 1.226 . S
O237 Cd228 2.356 1_565 S
O237 C235 1.282 . S
C238 O239 1.306 . S
C238 O241 1.160 . S
O239 C238 1.306 . S
O239 Cd240 2.228 1_455 S
Cd240 O239 2.228 1_655 S
Cd240 O244 2.273 . S
Cd240 O248 2.277 . S
O241 C238 1.160 . S
O241 Cd242 2.203 1_455 S
Cd242 O241 2.203 1_655 S
Cd242 O244 2.411 . S
Cd242 O245 2.333 . S
Cd242 O246 2.352 1_655 S
Cd242 O250 2.277 . S
Cd242 O251 2.356 . S
C243 O248 1.209 . S
C243 O250 1.226 . S
O244 Cd240 2.273 . S
O244 Cd242 2.411 . S
O244 C247 1.320 . S
O245 Cd242 2.333 . S
O245 C247 1.214 . S
O246 Cd242 2.352 1_455 S
O246 C249 1.258 1_455 S
C247 O244 1.320 . S
C247 O245 1.214 . S
O248 Cd240 2.277 . S
O248 C243 1.209 . S
C249 O246 1.258 1_655 S
C249 O251 1.282 . S
O250 Cd242 2.277 . S
O250 C243 1.226 . S
O251 Cd242 2.356 . S
O251 C249 1.282 . S
H252 C271 0.949 . S
H253 C272 0.950 . S
H254 C274 0.950 . S
H255 C275 0.950 . S
H256 C277 0.950 . S
H257 C280 0.950 . S
H258 C281 0.950 . S
H259 C283 0.951 . S
H260 C284 0.949 . S
H261 C286 0.949 . S
H262 C287 0.950 . S
H263 C289 0.950 . S
H264 C290 0.950 . S
H265 C292 0.950 . S
H266 C295 0.950 . S
H267 C296 0.950 . S
H268 C298 0.951 . S
H269 C299 0.949 . S
C270 C271 1.376 . S
C270 C275 1.386 . S
C270 C276 1.483 . S
C271 H252 0.949 . S
C271 C270 1.376 . S
C271 C272 1.397 . S
C272 H253 0.950 . S
C272 C271 1.397 . S
C272 C273 1.391 . S
C273 C272 1.391 . S
C273 C274 1.405 . S
C274 H254 0.950 . S
C274 C273 1.405 . S
C274 C275 1.367 . S
C275 H255 0.950 . S
C275 C270 1.386 . S
C275 C274 1.367 . S
C276 C270 1.483 . S
C276 C277 1.382 . S
C276 C278 1.403 . S
C277 H256 0.950 . S
C277 C276 1.382 . S
C277 C293 1.411 . S
C278 C276 1.403 . S
C278 C279 1.489 . S
C278 C292 1.411 . S
C279 C278 1.489 . S
C279 C280 1.383 . S
C279 C284 1.382 . S
C280 H257 0.950 . S
C280 C279 1.383 . S
C280 C281 1.395 . S
C281 H258 0.950 . S
C281 C280 1.395 . S
C281 C282 1.288 . S
C282 C281 1.288 . S
C282 C283 1.392 . S
C283 H259 0.951 . S
C283 C282 1.392 . S
C283 C284 1.392 . S
C284 H260 0.949 . S
C284 C279 1.382 . S
C284 C283 1.392 . S
C285 C286 1.376 . S
C285 C290 1.386 . S
C285 C291 1.483 . S
C286 H261 0.949 . S
C286 C285 1.376 . S
C286 C287 1.397 . S
C287 H262 0.950 . S
C287 C286 1.397 . S
C287 C288 1.391 . S
C288 C287 1.391 . S
C288 C289 1.405 . S
C289 H263 0.950 . S
C289 C288 1.405 . S
C289 C290 1.367 . S
C290 H264 0.950 . S
C290 C285 1.386 . S
C290 C289 1.367 . S
C291 C285 1.483 . S
C291 C292 1.382 . S
C291 C293 1.403 . S
C292 H265 0.950 . S
C292 C278 1.411 . S
C292 C291 1.382 . S
C293 C277 1.411 . S
C293 C291 1.403 . S
C293 C294 1.489 . S
C294 C293 1.489 . S
C294 C295 1.383 . S
C294 C299 1.382 . S
C295 H266 0.950 . S
C295 C294 1.383 . S
C295 C296 1.395 . S
C296 H267 0.950 . S
C296 C295 1.395 . S
C296 C297 1.288 . S
C297 C296 1.288 . S
C297 C298 1.392 . S
C298 H268 0.951 . S
C298 C297 1.392 . S
C298 C299 1.392 . S
C299 H269 0.949 . S
C299 C294 1.382 . S
C299 C298 1.392 . S
H300 C319 0.949 . S
H301 C320 0.950 . S
H302 C322 0.950 . S
H303 C323 0.950 . S
H304 C325 0.950 . S
H305 C328 0.950 . S
H306 C329 0.950 . S
H307 C331 0.951 . S
H308 C332 0.949 . S
H309 C334 0.949 . S
H310 C335 0.950 . S
H311 C337 0.950 . S
H312 C338 0.950 . S
H313 C340 0.950 . S
H314 C343 0.950 . S
H315 C344 0.950 . S
H316 C346 0.951 . S
H317 C347 0.949 . S
C318 C319 1.376 . S
C318 C323 1.386 . S
C318 C324 1.483 . S
C319 H300 0.949 . S
C319 C318 1.376 . S
C319 C320 1.397 . S
C320 H301 0.950 . S
C320 C319 1.397 . S
C320 C321 1.391 . S
C321 C320 1.391 . S
C321 C322 1.405 . S
C322 H302 0.950 . S
C322 C321 1.405 . S
C322 C323 1.367 . S
C323 H303 0.950 . S
C323 C318 1.386 . S
C323 C322 1.367 . S
C324 C318 1.483 . S
C324 C325 1.382 . S
C324 C326 1.403 . S
C325 H304 0.950 . S
C325 C324 1.382 . S
C325 C341 1.411 . S
C326 C324 1.403 . S
C326 C327 1.489 . S
C326 C340 1.411 . S
C327 C326 1.489 . S
C327 C328 1.383 . S
C327 C332 1.382 . S
C328 H305 0.950 . S
C328 C327 1.383 . S
C328 C329 1.395 . S
C329 H306 0.950 . S
C329 C328 1.395 . S
C329 C330 1.288 . S
C330 C329 1.288 . S
C330 C331 1.392 . S
C331 H307 0.951 . S
C331 C330 1.392 . S
C331 C332 1.392 . S
C332 H308 0.949 . S
C332 C327 1.382 . S
C332 C331 1.392 . S
C333 C334 1.376 . S
C333 C338 1.386 . S
C333 C339 1.483 . S
C334 H309 0.949 . S
C334 C333 1.376 . S
C334 C335 1.397 . S
C335 H310 0.950 . S
C335 C334 1.397 . S
C335 C336 1.391 . S
C336 C335 1.391 . S
C336 C337 1.405 . S
C337 H311 0.950 . S
C337 C336 1.405 . S
C337 C338 1.367 . S
C338 H312 0.950 . S
C338 C333 1.386 . S
C338 C337 1.367 . S
C339 C333 1.483 . S
C339 C340 1.382 . S
C339 C341 1.403 . S
C340 H313 0.950 . S
C340 C326 1.411 . S
C340 C339 1.382 . S
C341 C325 1.411 . S
C341 C339 1.403 . S
C341 C342 1.489 . S
C342 C341 1.489 . S
C342 C343 1.383 . S
C342 C347 1.382 . S
C343 H314 0.950 . S
C343 C342 1.383 . S
C343 C344 1.395 . S
C344 H315 0.950 . S
C344 C343 1.395 . S
C344 C345 1.288 . S
C345 C344 1.288 . S
C345 C346 1.392 . S
C346 H316 0.951 . S
C346 C345 1.392 . S
C346 C347 1.392 . S
C347 H317 0.949 . S
C347 C342 1.382 . S
C347 C346 1.392 . S
H348 C367 0.949 . S
H349 C368 0.950 . S
H350 C370 0.950 . S
H351 C371 0.950 . S
H352 C373 0.950 . S
H353 C376 0.950 . S
H354 C377 0.950 . S
H355 C379 0.951 . S
H356 C380 0.949 . S
H357 C382 0.949 . S
H358 C383 0.950 . S
H359 C385 0.950 . S
H360 C386 0.950 . S
H361 C388 0.950 . S
H362 C391 0.950 . S
H363 C392 0.950 . S
H364 C394 0.951 . S
H365 C395 0.949 . S
C366 C367 1.376 . S
C366 C371 1.386 . S
C366 C372 1.483 . S
C367 H348 0.949 . S
C367 C366 1.376 . S
C367 C368 1.397 . S
C368 H349 0.950 . S
C368 C367 1.397 . S
C368 C369 1.391 . S
C369 C368 1.391 . S
C369 C370 1.405 . S
C370 H350 0.950 . S
C370 C369 1.405 . S
C370 C371 1.367 . S
C371 H351 0.950 . S
C371 C366 1.386 . S
C371 C370 1.367 . S
C372 C366 1.483 . S
C372 C373 1.382 . S
C372 C374 1.403 . S
C373 H352 0.950 . S
C373 C372 1.382 . S
C373 C389 1.411 . S
C374 C372 1.403 . S
C374 C375 1.489 . S
C374 C388 1.411 . S
C375 C374 1.489 . S
C375 C376 1.383 . S
C375 C380 1.382 . S
C376 H353 0.950 . S
C376 C375 1.383 . S
C376 C377 1.395 . S
C377 H354 0.950 . S
C377 C376 1.395 . S
C377 C378 1.288 . S
C378 C377 1.288 . S
C378 C379 1.392 . S
C379 H355 0.951 . S
C379 C378 1.392 . S
C379 C380 1.392 . S
C380 H356 0.949 . S
C380 C375 1.382 . S
C380 C379 1.392 . S
C381 C382 1.376 . S
C381 C386 1.386 . S
C381 C387 1.483 . S
C382 H357 0.949 . S
C382 C381 1.376 . S
C382 C383 1.397 . S
C383 H358 0.950 . S
C383 C382 1.397 . S
C383 C384 1.391 . S
C384 C383 1.391 . S
C384 C385 1.405 . S
C385 H359 0.950 . S
C385 C384 1.405 . S
C385 C386 1.367 . S
C386 H360 0.950 . S
C386 C381 1.386 . S
C386 C385 1.367 . S
C387 C381 1.483 . S
C387 C388 1.382 . S
C387 C389 1.403 . S
C388 H361 0.950 . S
C388 C374 1.411 . S
C388 C387 1.382 . S
C389 C373 1.411 . S
C389 C387 1.403 . S
C389 C390 1.489 . S
C390 C389 1.489 . S
C390 C391 1.383 . S
C390 C395 1.382 . S
C391 H362 0.950 . S
C391 C390 1.383 . S
C391 C392 1.395 . S
C392 H363 0.950 . S
C392 C391 1.395 . S
C392 C393 1.288 . S
C393 C392 1.288 . S
C393 C394 1.392 . S
C394 H364 0.951 . S
C394 C393 1.392 . S
C394 C395 1.392 . S
C395 H365 0.949 . S
C395 C390 1.382 . S
C395 C394 1.392 . S
H396 C415 0.949 . S
H397 C416 0.950 . S
H398 C418 0.950 . S
H399 C419 0.950 . S
H400 C421 0.950 . S
H401 C424 0.950 . S
H402 C425 0.950 . S
H403 C427 0.951 . S
H404 C428 0.949 . S
H405 C430 0.949 . S
H406 C431 0.950 . S
H407 C433 0.950 . S
H408 C434 0.950 . S
H409 C436 0.950 . S
H410 C439 0.950 . S
H411 C440 0.950 . S
H412 C442 0.951 . S
H413 C443 0.949 . S
C414 C415 1.376 . S
C414 C419 1.386 . S
C414 C420 1.483 . S
C415 H396 0.949 . S
C415 C414 1.376 . S
C415 C416 1.397 . S
C416 H397 0.950 . S
C416 C415 1.397 . S
C416 C417 1.391 . S
C417 C416 1.391 . S
C417 C418 1.405 . S
C418 H398 0.950 . S
C418 C417 1.405 . S
C418 C419 1.367 . S
C419 H399 0.950 . S
C419 C414 1.386 . S
C419 C418 1.367 . S
C420 C414 1.483 . S
C420 C421 1.382 . S
C420 C422 1.403 . S
C421 H400 0.950 . S
C421 C420 1.382 . S
C421 C437 1.411 . S
C422 C420 1.403 . S
C422 C423 1.489 . S
C422 C436 1.411 . S
C423 C422 1.489 . S
C423 C424 1.383 . S
C423 C428 1.382 . S
C424 H401 0.950 . S
C424 C423 1.383 . S
C424 C425 1.395 . S
C425 H402 0.950 . S
C425 C424 1.395 . S
C425 C426 1.288 . S
C426 C425 1.288 . S
C426 C427 1.392 . S
C427 H403 0.951 . S
C427 C426 1.392 . S
C427 C428 1.392 . S
C428 H404 0.949 . S
C428 C423 1.382 . S
C428 C427 1.392 . S
C429 C430 1.376 . S
C429 C434 1.386 . S
C429 C435 1.483 . S
C430 H405 0.949 . S
C430 C429 1.376 . S
C430 C431 1.397 . S
C431 H406 0.950 . S
C431 C430 1.397 . S
C431 C432 1.391 . S
C432 C431 1.391 . S
C432 C433 1.405 . S
C433 H407 0.950 . S
C433 C432 1.405 . S
C433 C434 1.367 . S
C434 H408 0.950 . S
C434 C429 1.386 . S
C434 C433 1.367 . S
C435 C429 1.483 . S
C435 C436 1.382 . S
C435 C437 1.403 . S
C436 H409 0.950 . S
C436 C422 1.411 . S
C436 C435 1.382 . S
C437 C421 1.411 . S
C437 C435 1.403 . S
C437 C438 1.489 . S
C438 C437 1.489 . S
C438 C439 1.383 . S
C438 C443 1.382 . S
C439 H410 0.950 . S
C439 C438 1.383 . S
C439 C440 1.395 . S
C440 H411 0.950 . S
C440 C439 1.395 . S
C440 C441 1.288 . S
C441 C440 1.288 . S
C441 C442 1.392 . S
C442 H412 0.951 . S
C442 C441 1.392 . S
C442 C443 1.392 . S
C443 H413 0.949 . S
C443 C438 1.382 . S
C443 C442 1.392 . S
H444 C463 0.949 . S
H445 C464 0.950 . S
H446 C466 0.950 . S
H447 C467 0.950 . S
H448 C469 0.950 . S
H449 C472 0.950 . S
H450 C473 0.950 . S
H451 C475 0.951 . S
H452 C476 0.949 . S
H453 C478 0.949 . S
H454 C479 0.950 . S
H455 C481 0.950 . S
H456 C482 0.950 . S
H457 C484 0.950 . S
H458 C487 0.950 . S
H459 C488 0.950 . S
H460 C490 0.951 . S
H461 C491 0.949 . S
C462 C463 1.376 . S
C462 C467 1.386 . S
C462 C468 1.483 . S
C463 H444 0.949 . S
C463 C462 1.376 . S
C463 C464 1.397 . S
C464 H445 0.950 . S
C464 C463 1.397 . S
C464 C465 1.391 . S
C465 C464 1.391 . S
C465 C466 1.405 . S
C466 H446 0.950 . S
C466 C465 1.405 . S
C466 C467 1.367 . S
C467 H447 0.950 . S
C467 C462 1.386 . S
C467 C466 1.367 . S
C468 C462 1.483 . S
C468 C469 1.382 . S
C468 C470 1.403 . S
C469 H448 0.950 . S
C469 C468 1.382 . S
C469 C485 1.411 . S
C470 C468 1.403 . S
C470 C471 1.489 . S
C470 C484 1.411 . S
C471 C470 1.489 . S
C471 C472 1.383 . S
C471 C476 1.382 . S
C472 H449 0.950 . S
C472 C471 1.383 . S
C472 C473 1.395 . S
C473 H450 0.950 . S
C473 C472 1.395 . S
C473 C474 1.288 . S
C474 C473 1.288 . S
C474 C475 1.392 . S
C475 H451 0.951 . S
C475 C474 1.392 . S
C475 C476 1.392 . S
C476 H452 0.949 . S
C476 C471 1.382 . S
C476 C475 1.392 . S
C477 C478 1.376 . S
C477 C482 1.386 . S
C477 C483 1.483 . S
C478 H453 0.949 . S
C478 C477 1.376 . S
C478 C479 1.397 . S
C479 H454 0.950 . S
C479 C478 1.397 . S
C479 C480 1.391 . S
C480 C479 1.391 . S
C480 C481 1.405 . S
C481 H455 0.950 . S
C481 C480 1.405 . S
C481 C482 1.367 . S
C482 H456 0.950 . S
C482 C477 1.386 . S
C482 C481 1.367 . S
C483 C477 1.483 . S
C483 C484 1.382 . S
C483 C485 1.403 . S
C484 H457 0.950 . S
C484 C470 1.411 . S
C484 C483 1.382 . S
C485 C469 1.411 . S
C485 C483 1.403 . S
C485 C486 1.489 . S
C486 C485 1.489 . S
C486 C487 1.383 . S
C486 C491 1.382 . S
C487 H458 0.950 . S
C487 C486 1.383 . S
C487 C488 1.395 . S
C488 H459 0.950 . S
C488 C487 1.395 . S
C488 C489 1.288 . S
C489 C488 1.288 . S
C489 C490 1.392 . S
C490 H460 0.951 . S
C490 C489 1.392 . S
C490 C491 1.392 . S
C491 H461 0.949 . S
C491 C486 1.382 . S
C491 C490 1.392 . S
H492 C511 0.949 . S
H493 C512 0.950 . S
H494 C514 0.950 . S
H495 C515 0.950 . S
H496 C517 0.950 . S
H497 C520 0.950 . S
H498 C521 0.950 . S
H499 C523 0.951 . S
H500 C524 0.949 . S
H501 C526 0.949 . S
H502 C527 0.950 . S
H503 C529 0.950 . S
H504 C530 0.950 . S
H505 C532 0.950 . S
H506 C535 0.950 . S
H507 C536 0.950 . S
H508 C538 0.951 . S
H509 C539 0.949 . S
C510 C511 1.376 . S
C510 C515 1.386 . S
C510 C516 1.483 . S
C511 H492 0.949 . S
C511 C510 1.376 . S
C511 C512 1.397 . S
C512 H493 0.950 . S
C512 C511 1.397 . S
C512 C513 1.391 . S
C513 C512 1.391 . S
C513 C514 1.405 . S
C514 H494 0.950 . S
C514 C513 1.405 . S
C514 C515 1.367 . S
C515 H495 0.950 . S
C515 C510 1.386 . S
C515 C514 1.367 . S
C516 C510 1.483 . S
C516 C517 1.382 . S
C516 C518 1.403 . S
C517 H496 0.950 . S
C517 C516 1.382 . S
C517 C533 1.411 . S
C518 C516 1.403 . S
C518 C519 1.489 . S
C518 C532 1.411 . S
C519 C518 1.489 . S
C519 C520 1.383 . S
C519 C524 1.382 . S
C520 H497 0.950 . S
C520 C519 1.383 . S
C520 C521 1.395 . S
C521 H498 0.950 . S
C521 C520 1.395 . S
C521 C522 1.288 . S
C522 C521 1.288 . S
C522 C523 1.392 . S
C523 H499 0.951 . S
C523 C522 1.392 . S
C523 C524 1.392 . S
C524 H500 0.949 . S
C524 C519 1.382 . S
C524 C523 1.392 . S
C525 C526 1.376 . S
C525 C530 1.386 . S
C525 C531 1.483 . S
C526 H501 0.949 . S
C526 C525 1.376 . S
C526 C527 1.397 . S
C527 H502 0.950 . S
C527 C526 1.397 . S
C527 C528 1.391 . S
C528 C527 1.391 . S
C528 C529 1.405 . S
C529 H503 0.950 . S
C529 C528 1.405 . S
C529 C530 1.367 . S
C530 H504 0.950 . S
C530 C525 1.386 . S
C530 C529 1.367 . S
C531 C525 1.483 . S
C531 C532 1.382 . S
C531 C533 1.403 . S
C532 H505 0.950 . S
C532 C518 1.411 . S
C532 C531 1.382 . S
C533 C517 1.411 . S
C533 C531 1.403 . S
C533 C534 1.489 . S
C534 C533 1.489 . S
C534 C535 1.383 . S
C534 C539 1.382 . S
C535 H506 0.950 . S
C535 C534 1.383 . S
C535 C536 1.395 . S
C536 H507 0.950 . S
C536 C535 1.395 . S
C536 C537 1.288 . S
C537 C536 1.288 . S
C537 C538 1.392 . S
C538 H508 0.951 . S
C538 C537 1.392 . S
C538 C539 1.392 . S
C539 H509 0.949 . S
C539 C534 1.382 . S
C539 C538 1.392 . S
H540 C559 0.949 . S
H541 C560 0.950 . S
H542 C562 0.950 . S
H543 C563 0.950 . S
H544 C565 0.950 . S
H545 C568 0.950 . S
H546 C569 0.950 . S
H547 C571 0.951 . S
H548 C572 0.949 . S
H549 C574 0.949 . S
H550 C575 0.950 . S
H551 C577 0.950 . S
H552 C578 0.950 . S
H553 C580 0.950 . S
H554 C583 0.950 . S
H555 C584 0.950 . S
H556 C586 0.951 . S
H557 C587 0.949 . S
C558 C559 1.376 . S
C558 C563 1.386 . S
C558 C564 1.483 . S
C559 H540 0.949 . S
C559 C558 1.376 . S
C559 C560 1.397 . S
C560 H541 0.950 . S
C560 C559 1.397 . S
C560 C561 1.391 . S
C561 C560 1.391 . S
C561 C562 1.405 . S
C562 H542 0.950 . S
C562 C561 1.405 . S
C562 C563 1.367 . S
C563 H543 0.950 . S
C563 C558 1.386 . S
C563 C562 1.367 . S
C564 C558 1.483 . S
C564 C565 1.382 . S
C564 C566 1.403 . S
C565 H544 0.950 . S
C565 C564 1.382 . S
C565 C581 1.411 . S
C566 C564 1.403 . S
C566 C567 1.489 . S
C566 C580 1.411 . S
C567 C566 1.489 . S
C567 C568 1.383 . S
C567 C572 1.382 . S
C568 H545 0.950 . S
C568 C567 1.383 . S
C568 C569 1.395 . S
C569 H546 0.950 . S
C569 C568 1.395 . S
C569 C570 1.288 . S
C570 C569 1.288 . S
C570 C571 1.392 . S
C571 H547 0.951 . S
C571 C570 1.392 . S
C571 C572 1.392 . S
C572 H548 0.949 . S
C572 C567 1.382 . S
C572 C571 1.392 . S
C573 C574 1.376 . S
C573 C578 1.386 . S
C573 C579 1.483 . S
C574 H549 0.949 . S
C574 C573 1.376 . S
C574 C575 1.397 . S
C575 H550 0.950 . S
C575 C574 1.397 . S
C575 C576 1.391 . S
C576 C575 1.391 . S
C576 C577 1.405 . S
C577 H551 0.950 . S
C577 C576 1.405 . S
C577 C578 1.367 . S
C578 H552 0.950 . S
C578 C573 1.386 . S
C578 C577 1.367 . S
C579 C573 1.483 . S
C579 C580 1.382 . S
C579 C581 1.403 . S
C580 H553 0.950 . S
C580 C566 1.411 . S
C580 C579 1.382 . S
C581 C565 1.411 . S
C581 C579 1.403 . S
C581 C582 1.489 . S
C582 C581 1.489 . S
C582 C583 1.383 . S
C582 C587 1.382 . S
C583 H554 0.950 . S
C583 C582 1.383 . S
C583 C584 1.395 . S
C584 H555 0.950 . S
C584 C583 1.395 . S
C584 C585 1.288 . S
C585 C584 1.288 . S
C585 C586 1.392 . S
C586 H556 0.951 . S
C586 C585 1.392 . S
C586 C587 1.392 . S
C587 H557 0.949 . S
C587 C582 1.382 . S
C587 C586 1.392 . S
H588 C607 0.949 . S
H589 C608 0.950 . S
H590 C610 0.950 . S
H591 C611 0.950 . S
H592 C613 0.950 . S
H593 C616 0.950 . S
H594 C617 0.950 . S
H595 C619 0.951 . S
H596 C620 0.949 . S
H597 C622 0.949 . S
H598 C623 0.950 . S
H599 C625 0.950 . S
H600 C626 0.950 . S
H601 C628 0.950 . S
H602 C631 0.950 . S
H603 C632 0.950 . S
H604 C634 0.951 . S
H605 C635 0.949 . S
C606 C607 1.376 . S
C606 C611 1.386 . S
C606 C612 1.483 . S
C607 H588 0.949 . S
C607 C606 1.376 . S
C607 C608 1.397 . S
C608 H589 0.950 . S
C608 C607 1.397 . S
C608 C609 1.391 . S
C609 C608 1.391 . S
C609 C610 1.405 . S
C610 H590 0.950 . S
C610 C609 1.405 . S
C610 C611 1.367 . S
C611 H591 0.950 . S
C611 C606 1.386 . S
C611 C610 1.367 . S
C612 C606 1.483 . S
C612 C613 1.382 . S
C612 C614 1.403 . S
C613 H592 0.950 . S
C613 C612 1.382 . S
C613 C629 1.411 . S
C614 C612 1.403 . S
C614 C615 1.489 . S
C614 C628 1.411 . S
C615 C614 1.489 . S
C615 C616 1.383 . S
C615 C620 1.382 . S
C616 H593 0.950 . S
C616 C615 1.383 . S
C616 C617 1.395 . S
C617 H594 0.950 . S
C617 C616 1.395 . S
C617 C618 1.288 . S
C618 C617 1.288 . S
C618 C619 1.392 . S
C619 H595 0.951 . S
C619 C618 1.392 . S
C619 C620 1.392 . S
C620 H596 0.949 . S
C620 C615 1.382 . S
C620 C619 1.392 . S
C621 C622 1.376 . S
C621 C626 1.386 . S
C621 C627 1.483 . S
C622 H597 0.949 . S
C622 C621 1.376 . S
C622 C623 1.397 . S
C623 H598 0.950 . S
C623 C622 1.397 . S
C623 C624 1.391 . S
C624 C623 1.391 . S
C624 C625 1.405 . S
C625 H599 0.950 . S
C625 C624 1.405 . S
C625 C626 1.367 . S
C626 H600 0.950 . S
C626 C621 1.386 . S
C626 C625 1.367 . S
C627 C621 1.483 . S
C627 C628 1.382 . S
C627 C629 1.403 . S
C628 H601 0.950 . S
C628 C614 1.411 . S
C628 C627 1.382 . S
C629 C613 1.411 . S
C629 C627 1.403 . S
C629 C630 1.489 . S
C630 C629 1.489 . S
C630 C631 1.383 . S
C630 C635 1.382 . S
C631 H602 0.950 . S
C631 C630 1.383 . S
C631 C632 1.395 . S
C632 H603 0.950 . S
C632 C631 1.395 . S
C632 C633 1.288 . S
C633 C632 1.288 . S
C633 C634 1.392 . S
C634 H604 0.951 . S
C634 C633 1.392 . S
C634 C635 1.392 . S
C635 H605 0.949 . S
C635 C630 1.382 . S
C635 C634 1.392 . S
H636 C655 0.949 . S
H637 C656 0.950 . S
H638 C658 0.950 . S
H639 C659 0.950 . S
H640 C661 0.950 . S
H641 C664 0.950 . S
H642 C665 0.950 . S
H643 C667 0.951 . S
H644 C668 0.949 . S
H645 C670 0.949 . S
H646 C671 0.950 . S
H647 C673 0.950 . S
H648 C674 0.950 . S
H649 C676 0.950 . S
H650 C679 0.950 . S
H651 C680 0.950 . S
H652 C682 0.951 . S
H653 C683 0.949 . S
C654 C655 1.376 . S
C654 C659 1.386 . S
C654 C660 1.483 . S
C655 H636 0.949 . S
C655 C654 1.376 . S
C655 C656 1.397 . S
C656 H637 0.950 . S
C656 C655 1.397 . S
C656 C657 1.391 . S
C657 C656 1.391 . S
C657 C658 1.405 . S
C658 H638 0.950 . S
C658 C657 1.405 . S
C658 C659 1.367 . S
C659 H639 0.950 . S
C659 C654 1.386 . S
C659 C658 1.367 . S
C660 C654 1.483 . S
C660 C661 1.382 . S
C660 C662 1.403 . S
C661 H640 0.950 . S
C661 C660 1.382 . S
C661 C677 1.411 . S
C662 C660 1.403 . S
C662 C663 1.489 . S
C662 C676 1.411 . S
C663 C662 1.489 . S
C663 C664 1.383 . S
C663 C668 1.382 . S
C664 H641 0.950 . S
C664 C663 1.383 . S
C664 C665 1.395 . S
C665 H642 0.950 . S
C665 C664 1.395 . S
C665 C666 1.288 . S
C666 C665 1.288 . S
C666 C667 1.392 . S
C667 H643 0.951 . S
C667 C666 1.392 . S
C667 C668 1.392 . S
C668 H644 0.949 . S
C668 C663 1.382 . S
C668 C667 1.392 . S
C669 C670 1.376 . S
C669 C674 1.386 . S
C669 C675 1.483 . S
C670 H645 0.949 . S
C670 C669 1.376 . S
C670 C671 1.397 . S
C671 H646 0.950 . S
C671 C670 1.397 . S
C671 C672 1.391 . S
C672 C671 1.391 . S
C672 C673 1.405 . S
C673 H647 0.950 . S
C673 C672 1.405 . S
C673 C674 1.367 . S
C674 H648 0.950 . S
C674 C669 1.386 . S
C674 C673 1.367 . S
C675 C669 1.483 . S
C675 C676 1.382 . S
C675 C677 1.403 . S
C676 H649 0.950 . S
C676 C662 1.411 . S
C676 C675 1.382 . S
C677 C661 1.411 . S
C677 C675 1.403 . S
C677 C678 1.489 . S
C678 C677 1.489 . S
C678 C679 1.383 . S
C678 C683 1.382 . S
C679 H650 0.950 . S
C679 C678 1.383 . S
C679 C680 1.395 . S
C680 H651 0.950 . S
C680 C679 1.395 . S
C680 C681 1.288 . S
C681 C680 1.288 . S
C681 C682 1.392 . S
C682 H652 0.951 . S
C682 C681 1.392 . S
C682 C683 1.392 . S
C683 H653 0.949 . S
C683 C678 1.382 . S
C683 C682 1.392 . S
H684 C703 0.949 . S
H685 C704 0.950 . S
H686 C706 0.950 . S
H687 C707 0.950 . S
H688 C709 0.950 . S
H689 C712 0.950 . S
H690 C713 0.950 . S
H691 C715 0.951 . S
H692 C716 0.949 . S
H693 C718 0.949 . S
H694 C719 0.950 . S
H695 C721 0.950 . S
H696 C722 0.950 . S
H697 C724 0.950 . S
H698 C727 0.950 . S
H699 C728 0.950 . S
H700 C730 0.951 . S
H701 C731 0.949 . S
C702 C703 1.376 . S
C702 C707 1.386 1_655 S
C702 C708 1.483 . S
C703 H684 0.949 . S
C703 C702 1.376 . S
C703 C704 1.397 . S
C704 H685 0.950 . S
C704 C703 1.397 . S
C704 C705 1.391 . S
C705 C704 1.391 . S
C705 C706 1.405 1_655 S
C706 H686 0.950 . S
C706 C705 1.405 1_455 S
C706 C707 1.367 . S
C707 H687 0.950 . S
C707 C702 1.386 1_455 S
C707 C706 1.367 . S
C708 C702 1.483 . S
C708 C709 1.382 . S
C708 C710 1.403 1_655 S
C709 H688 0.950 . S
C709 C708 1.382 . S
C709 C725 1.411 . S
C710 C708 1.403 1_455 S
C710 C711 1.489 . S
C710 C724 1.411 . S
C711 C710 1.489 . S
C711 C712 1.383 1_455 S
C711 C716 1.382 . S
C712 H689 0.950 . S
C712 C711 1.383 1_655 S
C712 C713 1.395 . S
C713 H690 0.950 . S
C713 C712 1.395 . S
C713 C714 1.288 1_655 S
C714 C713 1.288 1_455 S
C714 C715 1.392 . S
C715 H691 0.951 . S
C715 C714 1.392 . S
C715 C716 1.392 . S
C716 H692 0.949 . S
C716 C711 1.382 . S
C716 C715 1.392 . S
C717 C718 1.376 . S
C717 C722 1.386 1_455 S
C717 C723 1.483 . S
C718 H693 0.949 . S
C718 C717 1.376 . S
C718 C719 1.397 . S
C719 H694 0.950 . S
C719 C718 1.397 . S
C719 C720 1.391 . S
C720 C719 1.391 . S
C720 C721 1.405 1_455 S
C721 H695 0.950 . S
C721 C720 1.405 1_655 S
C721 C722 1.367 . S
C722 H696 0.950 . S
C722 C717 1.386 1_655 S
C722 C721 1.367 . S
C723 C717 1.483 . S
C723 C724 1.382 . S
C723 C725 1.403 1_455 S
C724 H697 0.950 . S
C724 C710 1.411 . S
C724 C723 1.382 . S
C725 C709 1.411 . S
C725 C723 1.403 1_655 S
C725 C726 1.489 . S
C726 C725 1.489 . S
C726 C727 1.383 1_655 S
C726 C731 1.382 . S
C727 H698 0.950 . S
C727 C726 1.383 1_455 S
C727 C728 1.395 . S
C728 H699 0.950 . S
C728 C727 1.395 . S
C728 C729 1.288 1_455 S
C729 C728 1.288 1_655 S
C729 C730 1.392 . S
C730 H700 0.951 . S
C730 C729 1.392 . S
C730 C731 1.392 . S
C731 H701 0.949 . S
C731 C726 1.382 . S
C731 C730 1.392 . S
H732 C751 0.949 . S
H733 C752 0.950 . S
H734 C754 0.950 . S
H735 C755 0.950 . S
H736 C757 0.950 . S
H737 C760 0.950 . S
H738 C761 0.950 . S
H739 C763 0.951 . S
H740 C764 0.949 . S
H741 C766 0.949 . S
H742 C767 0.950 . S
H743 C769 0.950 . S
H744 C770 0.950 . S
H745 C772 0.950 . S
H746 C775 0.950 . S
H747 C776 0.950 . S
H748 C778 0.951 . S
H749 C779 0.949 . S
C750 C751 1.376 . S
C750 C755 1.386 . S
C750 C756 1.483 . S
C751 H732 0.949 . S
C751 C750 1.376 . S
C751 C752 1.397 . S
C752 H733 0.950 . S
C752 C751 1.397 . S
C752 C753 1.391 . S
C753 C752 1.391 . S
C753 C754 1.405 . S
C754 H734 0.950 . S
C754 C753 1.405 . S
C754 C755 1.367 . S
C755 H735 0.950 . S
C755 C750 1.386 . S
C755 C754 1.367 . S
C756 C750 1.483 . S
C756 C757 1.382 . S
C756 C758 1.403 . S
C757 H736 0.950 . S
C757 C756 1.382 . S
C757 C773 1.411 . S
C758 C756 1.403 . S
C758 C759 1.489 . S
C758 C772 1.411 . S
C759 C758 1.489 . S
C759 C760 1.383 . S
C759 C764 1.382 . S
C760 H737 0.950 . S
C760 C759 1.383 . S
C760 C761 1.395 . S
C761 H738 0.950 . S
C761 C760 1.395 . S
C761 C762 1.288 . S
C762 C761 1.288 . S
C762 C763 1.392 . S
C763 H739 0.951 . S
C763 C762 1.392 . S
C763 C764 1.392 . S
C764 H740 0.949 . S
C764 C759 1.382 . S
C764 C763 1.392 . S
C765 C766 1.376 . S
C765 C770 1.386 . S
C765 C771 1.483 . S
C766 H741 0.949 . S
C766 C765 1.376 . S
C766 C767 1.397 . S
C767 H742 0.950 . S
C767 C766 1.397 . S
C767 C768 1.391 . S
C768 C767 1.391 . S
C768 C769 1.405 . S
C769 H743 0.950 . S
C769 C768 1.405 . S
C769 C770 1.367 . S
C770 H744 0.950 . S
C770 C765 1.386 . S
C770 C769 1.367 . S
C771 C765 1.483 . S
C771 C772 1.382 . S
C771 C773 1.403 . S
C772 H745 0.950 . S
C772 C758 1.411 . S
C772 C771 1.382 . S
C773 C757 1.411 . S
C773 C771 1.403 . S
C773 C774 1.489 . S
C774 C773 1.489 . S
C774 C775 1.383 . S
C774 C779 1.382 . S
C775 H746 0.950 . S
C775 C774 1.383 . S
C775 C776 1.395 . S
C776 H747 0.950 . S
C776 C775 1.395 . S
C776 C777 1.288 . S
C777 C776 1.288 . S
C777 C778 1.392 . S
C778 H748 0.951 . S
C778 C777 1.392 . S
C778 C779 1.392 . S
C779 H749 0.949 . S
C779 C774 1.382 . S
C779 C778 1.392 . S
H780 C799 0.949 . S
H781 C800 0.950 . S
H782 C802 0.950 . S
H783 C803 0.950 . S
H784 C805 0.950 . S
H785 C808 0.950 . S
H786 C809 0.950 . S
H787 C811 0.951 . S
H788 C812 0.949 . S
H789 C814 0.949 . S
H790 C815 0.950 . S
H791 C817 0.950 . S
H792 C818 0.950 . S
H793 C820 0.950 . S
H794 C823 0.950 . S
H795 C824 0.950 . S
H796 C826 0.951 . S
H797 C827 0.949 . S
C798 C799 1.376 . S
C798 C803 1.386 1_545 S
C798 C804 1.483 . S
C799 H780 0.949 . S
C799 C798 1.376 . S
C799 C800 1.397 . S
C800 H781 0.950 . S
C800 C799 1.397 . S
C800 C801 1.391 . S
C801 C800 1.391 . S
C801 C802 1.405 1_545 S
C802 H782 0.950 . S
C802 C801 1.405 1_565 S
C802 C803 1.367 . S
C803 H783 0.950 . S
C803 C798 1.386 1_565 S
C803 C802 1.367 . S
C804 C798 1.483 . S
C804 C805 1.382 . S
C804 C806 1.403 1_545 S
C805 H784 0.950 . S
C805 C804 1.382 . S
C805 C821 1.411 . S
C806 C804 1.403 1_565 S
C806 C807 1.489 . S
C806 C820 1.411 . S
C807 C806 1.489 . S
C807 C808 1.383 1_565 S
C807 C812 1.382 . S
C808 H785 0.950 . S
C808 C807 1.383 1_545 S
C808 C809 1.395 . S
C809 H786 0.950 . S
C809 C808 1.395 . S
C809 C810 1.288 1_545 S
C810 C809 1.288 1_565 S
C810 C811 1.392 . S
C811 H787 0.951 . S
C811 C810 1.392 . S
C811 C812 1.392 . S
C812 H788 0.949 . S
C812 C807 1.382 . S
C812 C811 1.392 . S
C813 C814 1.376 . S
C813 C818 1.386 1_565 S
C813 C819 1.483 . S
C814 H789 0.949 . S
C814 C813 1.376 . S
C814 C815 1.397 . S
C815 H790 0.950 . S
C815 C814 1.397 . S
C815 C816 1.391 . S
C816 C815 1.391 . S
C816 C817 1.405 1_565 S
C817 H791 0.950 . S
C817 C816 1.405 1_545 S
C817 C818 1.367 . S
C818 H792 0.950 . S
C818 C813 1.386 1_545 S
C818 C817 1.367 . S
C819 C813 1.483 . S
C819 C820 1.382 . S
C819 C821 1.403 1_565 S
C820 H793 0.950 . S
C820 C806 1.411 . S
C820 C819 1.382 . S
C821 C805 1.411 . S
C821 C819 1.403 1_545 S
C821 C822 1.489 . S
C822 C821 1.489 . S
C822 C823 1.383 1_545 S
C822 C827 1.382 . S
C823 H794 0.950 . S
C823 C822 1.383 1_565 S
C823 C824 1.395 . S
C824 H795 0.950 . S
C824 C823 1.395 . S
C824 C825 1.288 1_565 S
C825 C824 1.288 1_545 S
C825 C826 1.392 . S
C826 H796 0.951 . S
C826 C825 1.392 . S
C826 C827 1.392 . S
C827 H797 0.949 . S
C827 C822 1.382 . S
C827 C826 1.392 . S
H828 C847 0.949 . S
H829 C848 0.950 . S
H830 C850 0.950 . S
H831 C851 0.950 . S
H832 C853 0.950 . S
H833 C856 0.950 . S
H834 C857 0.950 . S
H835 C859 0.951 . S
H836 C860 0.949 . S
H837 C862 0.949 . S
H838 C863 0.950 . S
H839 C865 0.950 . S
H840 C866 0.950 . S
H841 C868 0.950 . S
H842 C871 0.950 . S
H843 C872 0.950 . S
H844 C874 0.951 . S
H845 C875 0.949 . S
C846 C847 1.391 . S
C846 C851 1.379 1_545 S
C846 C852 1.475 . S
C847 H828 0.949 . S
C847 C846 1.391 . S
C847 C848 1.397 . S
C848 H829 0.950 . S
C848 C847 1.397 . S
C848 C849 1.391 1_545 S
C849 C848 1.391 1_565 S
C849 C850 1.405 . S
C850 H830 0.950 . S
C850 C849 1.405 . S
C850 C851 1.367 . S
C851 H831 0.950 . S
C851 C846 1.379 1_565 S
C851 C850 1.367 . S
C852 C846 1.475 . S
C852 C853 1.382 . S
C852 C854 1.400 1_545 S
C853 H832 0.950 . S
C853 C852 1.382 . S
C853 C869 1.411 . S
C854 C852 1.400 1_565 S
C854 C855 1.483 . S
C854 C868 1.436 . S
C855 C854 1.483 . S
C855 C856 1.349 1_565 S
C855 C860 1.400 . S
C856 H833 0.950 . S
C856 C855 1.349 1_545 S
C856 C857 1.395 . S
C857 H834 0.950 . S
C857 C856 1.395 . S
C857 C858 1.288 . S
C858 C857 1.288 . S
C858 C859 1.392 1_545 S
C859 H835 0.951 . S
C859 C858 1.392 1_565 S
C859 C860 1.392 . S
C860 H836 0.949 . S
C860 C855 1.400 . S
C860 C859 1.392 . S
C861 C862 1.380 . S
C861 C866 1.384 1_565 S
C861 C867 1.503 . S
C862 H837 0.949 . S
C862 C861 1.380 . S
C862 C863 1.397 . S
C863 H838 0.950 . S
C863 C862 1.397 . S
C863 C864 1.391 1_565 S
C864 C863 1.391 1_545 S
C864 C865 1.405 . S
C865 H839 0.950 . S
C865 C864 1.405 . S
C865 C866 1.367 . S
C866 H840 0.950 . S
C866 C861 1.384 1_545 S
C866 C865 1.367 . S
C867 C861 1.503 . S
C867 C868 1.361 . S
C867 C869 1.400 1_565 S
C868 H841 0.950 . S
C868 C854 1.436 . S
C868 C867 1.361 . S
C869 C853 1.411 . S
C869 C867 1.400 1_545 S
C869 C870 1.511 . S
C870 C869 1.511 . S
C870 C871 1.336 1_545 S
C870 C875 1.407 . S
C871 H842 0.950 . S
C871 C870 1.336 1_565 S
C871 C872 1.395 . S
C872 H843 0.950 . S
C872 C871 1.395 . S
C872 C873 1.288 . S
C873 C872 1.288 . S
C873 C874 1.392 1_565 S
C874 H844 0.951 . S
C874 C873 1.392 1_545 S
C874 C875 1.392 . S
C875 H845 0.949 . S
C875 C870 1.407 . S
C875 C874 1.392 . S
H876 C895 0.949 . S
H877 C896 0.950 . S
H878 C898 0.950 . S
H879 C899 0.950 . S
H880 C901 0.950 . S
H881 C904 0.950 . S
H882 C905 0.950 . S
H883 C907 0.951 . S
H884 C908 0.949 . S
H885 C910 0.949 . S
H886 C911 0.950 . S
H887 C913 0.950 . S
H888 C914 0.950 . S
H889 C916 0.950 . S
H890 C919 0.950 . S
H891 C920 0.950 . S
H892 C922 0.951 . S
H893 C923 0.949 . S
C894 C895 1.376 . S
C894 C899 1.386 1_455 S
C894 C900 1.483 . S
C895 H876 0.949 . S
C895 C894 1.376 . S
C895 C896 1.397 . S
C896 H877 0.950 . S
C896 C895 1.397 . S
C896 C897 1.391 . S
C897 C896 1.391 . S
C897 C898 1.405 1_455 S
C898 H878 0.950 . S
C898 C897 1.405 1_655 S
C898 C899 1.367 . S
C899 H879 0.950 . S
C899 C894 1.386 1_655 S
C899 C898 1.367 . S
C900 C894 1.483 . S
C900 C901 1.382 . S
C900 C902 1.403 1_455 S
C901 H880 0.950 . S
C901 C900 1.382 . S
C901 C917 1.411 . S
C902 C900 1.403 1_655 S
C902 C903 1.489 . S
C902 C916 1.411 . S
C903 C902 1.489 . S
C903 C904 1.383 1_655 S
C903 C908 1.382 . S
C904 H881 0.950 . S
C904 C903 1.383 1_455 S
C904 C905 1.395 . S
C905 H882 0.950 . S
C905 C904 1.395 . S
C905 C906 1.288 1_455 S
C906 C905 1.288 1_655 S
C906 C907 1.392 . S
C907 H883 0.951 . S
C907 C906 1.392 . S
C907 C908 1.392 . S
C908 H884 0.949 . S
C908 C903 1.382 . S
C908 C907 1.392 . S
C909 C910 1.376 . S
C909 C914 1.386 1_655 S
C909 C915 1.483 . S
C910 H885 0.949 . S
C910 C909 1.376 . S
C910 C911 1.397 . S
C911 H886 0.950 . S
C911 C910 1.397 . S
C911 C912 1.391 . S
C912 C911 1.391 . S
C912 C913 1.405 1_655 S
C913 H887 0.950 . S
C913 C912 1.405 1_455 S
C913 C914 1.367 . S
C914 H888 0.950 . S
C914 C909 1.386 1_455 S
C914 C913 1.367 . S
C915 C909 1.483 . S
C915 C916 1.382 . S
C915 C917 1.403 1_655 S
C916 H889 0.950 . S
C916 C902 1.411 . S
C916 C915 1.382 . S
C917 C901 1.411 . S
C917 C915 1.403 1_455 S
C917 C918 1.489 . S
C918 C917 1.489 . S
C918 C919 1.383 1_455 S
C918 C923 1.382 . S
C919 H890 0.950 . S
C919 C918 1.383 1_655 S
C919 C920 1.395 . S
C920 H891 0.950 . S
C920 C919 1.395 . S
C920 C921 1.288 1_655 S
C921 C920 1.288 1_455 S
C921 C922 1.392 . S
C922 H892 0.951 . S
C922 C921 1.392 . S
C922 C923 1.392 . S
C923 H893 0.949 . S
C923 C918 1.382 . S
C923 C922 1.392 . S
H924 C943 0.949 . S
H925 C944 0.950 . S
H926 C946 0.950 . S
H927 C947 0.950 . S
H928 C949 0.950 . S
H929 C952 0.950 . S
H930 C953 0.950 . S
H931 C955 0.951 . S
H932 C956 0.949 . S
H933 C958 0.949 . S
H934 C959 0.950 . S
H935 C961 0.950 . S
H936 C962 0.950 . S
H937 C964 0.950 . S
H938 C967 0.950 . S
H939 C968 0.950 . S
H940 C970 0.951 . S
H941 C971 0.949 . S
C942 C943 1.376 . S
C942 C947 1.386 . S
C942 C948 1.483 . S
C943 H924 0.949 . S
C943 C942 1.376 . S
C943 C944 1.397 . S
C944 H925 0.950 . S
C944 C943 1.397 . S
C944 C945 1.391 . S
C945 C944 1.391 . S
C945 C946 1.405 . S
C946 H926 0.950 . S
C946 C945 1.405 . S
C946 C947 1.367 . S
C947 H927 0.950 . S
C947 C942 1.386 . S
C947 C946 1.367 . S
C948 C942 1.483 . S
C948 C949 1.382 . S
C948 C950 1.403 . S
C949 H928 0.950 . S
C949 C948 1.382 . S
C949 C965 1.411 . S
C950 C948 1.403 . S
C950 C951 1.489 . S
C950 C964 1.411 . S
C951 C950 1.489 . S
C951 C952 1.383 . S
C951 C956 1.382 . S
C952 H929 0.950 . S
C952 C951 1.383 . S
C952 C953 1.395 . S
C953 H930 0.950 . S
C953 C952 1.395 . S
C953 C954 1.288 . S
C954 C953 1.288 . S
C954 C955 1.392 . S
C955 H931 0.951 . S
C955 C954 1.392 . S
C955 C956 1.392 . S
C956 H932 0.949 . S
C956 C951 1.382 . S
C956 C955 1.392 . S
C957 C958 1.376 . S
C957 C962 1.386 . S
C957 C963 1.483 . S
C958 H933 0.949 . S
C958 C957 1.376 . S
C958 C959 1.397 . S
C959 H934 0.950 . S
C959 C958 1.397 . S
C959 C960 1.391 . S
C960 C959 1.391 . S
C960 C961 1.405 . S
C961 H935 0.950 . S
C961 C960 1.405 . S
C961 C962 1.367 . S
C962 H936 0.950 . S
C962 C957 1.386 . S
C962 C961 1.367 . S
C963 C957 1.483 . S
C963 C964 1.382 . S
C963 C965 1.403 . S
C964 H937 0.950 . S
C964 C950 1.411 . S
C964 C963 1.382 . S
C965 C949 1.411 . S
C965 C963 1.403 . S
C965 C966 1.489 . S
C966 C965 1.489 . S
C966 C967 1.383 . S
C966 C971 1.382 . S
C967 H938 0.950 . S
C967 C966 1.383 . S
C967 C968 1.395 . S
C968 H939 0.950 . S
C968 C967 1.395 . S
C968 C969 1.288 . S
C969 C968 1.288 . S
C969 C970 1.392 . S
C970 H940 0.951 . S
C970 C969 1.392 . S
C970 C971 1.392 . S
C971 H941 0.949 . S
C971 C966 1.382 . S
C971 C970 1.392 . S
H972 C991 0.949 . S
H973 C992 0.950 . S
H974 C994 0.950 . S
H975 C995 0.950 . S
H976 C997 0.950 . S
H977 C1000 0.950 . S
H978 C1001 0.950 . S
H979 C1003 0.951 . S
H980 C1004 0.949 . S
H981 C1006 0.949 . S
H982 C1007 0.950 . S
H983 C1009 0.950 . S
H984 C1010 0.950 . S
H985 C1012 0.950 . S
H986 C1015 0.950 . S
H987 C1016 0.950 . S
H988 C1018 0.951 . S
H989 C1019 0.949 . S
C990 C991 1.376 . S
C990 C995 1.386 . S
C990 C996 1.483 . S
C991 H972 0.949 . S
C991 C990 1.376 . S
C991 C992 1.397 . S
C992 H973 0.950 . S
C992 C991 1.397 . S
C992 C993 1.391 . S
C993 C992 1.391 . S
C993 C994 1.405 . S
C994 H974 0.950 . S
C994 C993 1.405 . S
C994 C995 1.367 . S
C995 H975 0.950 . S
C995 C990 1.386 . S
C995 C994 1.367 . S
C996 C990 1.483 . S
C996 C997 1.382 . S
C996 C998 1.403 . S
C997 H976 0.950 . S
C997 C996 1.382 . S
C997 C1013 1.411 . S
C998 C996 1.403 . S
C998 C999 1.489 . S
C998 C1012 1.411 . S
C999 C998 1.489 . S
C999 C1000 1.383 . S
C999 C1004 1.382 . S
C1000 H977 0.950 . S
C1000 C999 1.383 . S
C1000 C1001 1.395 . S
C1001 H978 0.950 . S
C1001 C1000 1.395 . S
C1001 C1002 1.288 . S
C1002 C1001 1.288 . S
C1002 C1003 1.392 . S
C1003 H979 0.951 . S
C1003 C1002 1.392 . S
C1003 C1004 1.392 . S
C1004 H980 0.949 . S
C1004 C999 1.382 . S
C1004 C1003 1.392 . S
C1005 C1006 1.376 . S
C1005 C1010 1.386 . S
C1005 C1011 1.483 . S
C1006 H981 0.949 . S
C1006 C1005 1.376 . S
C1006 C1007 1.397 . S
C1007 H982 0.950 . S
C1007 C1006 1.397 . S
C1007 C1008 1.391 . S
C1008 C1007 1.391 . S
C1008 C1009 1.405 . S
C1009 H983 0.950 . S
C1009 C1008 1.405 . S
C1009 C1010 1.367 . S
C1010 H984 0.950 . S
C1010 C1005 1.386 . S
C1010 C1009 1.367 . S
C1011 C1005 1.483 . S
C1011 C1012 1.382 . S
C1011 C1013 1.403 . S
C1012 H985 0.950 . S
C1012 C998 1.411 . S
C1012 C1011 1.382 . S
C1013 C997 1.411 . S
C1013 C1011 1.403 . S
C1013 C1014 1.489 . S
C1014 C1013 1.489 . S
C1014 C1015 1.383 . S
C1014 C1019 1.382 . S
C1015 H986 0.950 . S
C1015 C1014 1.383 . S
C1015 C1016 1.395 . S
C1016 H987 0.950 . S
C1016 C1015 1.395 . S
C1016 C1017 1.288 . S
C1017 C1016 1.288 . S
C1017 C1018 1.392 . S
C1018 H988 0.951 . S
C1018 C1017 1.392 . S
C1018 C1019 1.392 . S
C1019 H989 0.949 . S
C1019 C1014 1.382 . S
C1019 C1018 1.392 . S
H1020 C1039 0.949 . S
H1021 C1040 0.950 . S
H1022 C1042 0.950 . S
H1023 C1043 0.950 . S
H1024 C1045 0.950 . S
H1025 C1048 0.950 . S
H1026 C1049 0.950 . S
H1027 C1051 0.951 . S
H1028 C1052 0.949 . S
H1029 C1054 0.949 . S
H1030 C1055 0.950 . S
H1031 C1057 0.950 . S
H1032 C1058 0.950 . S
H1033 C1060 0.950 . S
H1034 C1063 0.950 . S
H1035 C1064 0.950 . S
H1036 C1066 0.951 . S
H1037 C1067 0.949 . S
C1038 C1039 1.376 . S
C1038 C1043 1.386 . S
C1038 C1044 1.483 . S
C1039 H1020 0.949 . S
C1039 C1038 1.376 . S
C1039 C1040 1.397 . S
C1040 H1021 0.950 . S
C1040 C1039 1.397 . S
C1040 C1041 1.391 . S
C1041 C1040 1.391 . S
C1041 C1042 1.405 . S
C1042 H1022 0.950 . S
C1042 C1041 1.405 . S
C1042 C1043 1.367 . S
C1043 H1023 0.950 . S
C1043 C1038 1.386 . S
C1043 C1042 1.367 . S
C1044 C1038 1.483 . S
C1044 C1045 1.382 . S
C1044 C1046 1.403 . S
C1045 H1024 0.950 . S
C1045 C1044 1.382 . S
C1045 C1061 1.411 . S
C1046 C1044 1.403 . S
C1046 C1047 1.489 . S
C1046 C1060 1.411 . S
C1047 C1046 1.489 . S
C1047 C1048 1.383 . S
C1047 C1052 1.382 . S
C1048 H1025 0.950 . S
C1048 C1047 1.383 . S
C1048 C1049 1.395 . S
C1049 H1026 0.950 . S
C1049 C1048 1.395 . S
C1049 C1050 1.288 . S
C1050 C1049 1.288 . S
C1050 C1051 1.392 . S
C1051 H1027 0.951 . S
C1051 C1050 1.392 . S
C1051 C1052 1.392 . S
C1052 H1028 0.949 . S
C1052 C1047 1.382 . S
C1052 C1051 1.392 . S
C1053 C1054 1.376 . S
C1053 C1058 1.386 . S
C1053 C1059 1.483 . S
C1054 H1029 0.949 . S
C1054 C1053 1.376 . S
C1054 C1055 1.397 . S
C1055 H1030 0.950 . S
C1055 C1054 1.397 . S
C1055 C1056 1.391 . S
C1056 C1055 1.391 . S
C1056 C1057 1.405 . S
C1057 H1031 0.950 . S
C1057 C1056 1.405 . S
C1057 C1058 1.367 . S
C1058 H1032 0.950 . S
C1058 C1053 1.386 . S
C1058 C1057 1.367 . S
C1059 C1053 1.483 . S
C1059 C1060 1.382 . S
C1059 C1061 1.403 . S
C1060 H1033 0.950 . S
C1060 C1046 1.411 . S
C1060 C1059 1.382 . S
C1061 C1045 1.411 . S
C1061 C1059 1.403 . S
C1061 C1062 1.489 . S
C1062 C1061 1.489 . S
C1062 C1063 1.383 . S
C1062 C1067 1.382 . S
C1063 H1034 0.950 . S
C1063 C1062 1.383 . S
C1063 C1064 1.395 . S
C1064 H1035 0.950 . S
C1064 C1063 1.395 . S
C1064 C1065 1.288 . S
C1065 C1064 1.288 . S
C1065 C1066 1.392 . S
C1066 H1036 0.951 . S
C1066 C1065 1.392 . S
C1066 C1067 1.392 . S
C1067 H1037 0.949 . S
C1067 C1062 1.382 . S
C1067 C1066 1.392 . S
H1068 C1087 0.949 . S
H1069 C1088 0.950 . S
H1070 C1090 0.950 . S
H1071 C1091 0.950 . S
H1072 C1093 0.950 . S
H1073 C1096 0.950 . S
H1074 C1097 0.950 . S
H1075 C1099 0.951 . S
H1076 C1100 0.949 . S
H1077 C1102 0.949 . S
H1078 C1103 0.950 . S
H1079 C1105 0.950 . S
H1080 C1106 0.950 . S
H1081 C1108 0.950 . S
H1082 C1111 0.950 . S
H1083 C1112 0.950 . S
H1084 C1114 0.951 . S
H1085 C1115 0.949 . S
C1086 C1087 1.376 . S
C1086 C1091 1.386 . S
C1086 C1092 1.483 . S
C1087 H1068 0.949 . S
C1087 C1086 1.376 . S
C1087 C1088 1.397 . S
C1088 H1069 0.950 . S
C1088 C1087 1.397 . S
C1088 C1089 1.391 . S
C1089 C1088 1.391 . S
C1089 C1090 1.405 . S
C1090 H1070 0.950 . S
C1090 C1089 1.405 . S
C1090 C1091 1.367 . S
C1091 H1071 0.950 . S
C1091 C1086 1.386 . S
C1091 C1090 1.367 . S
C1092 C1086 1.483 . S
C1092 C1093 1.382 . S
C1092 C1094 1.403 . S
C1093 H1072 0.950 . S
C1093 C1092 1.382 . S
C1093 C1109 1.411 . S
C1094 C1092 1.403 . S
C1094 C1095 1.489 . S
C1094 C1108 1.411 . S
C1095 C1094 1.489 . S
C1095 C1096 1.383 . S
C1095 C1100 1.382 . S
C1096 H1073 0.950 . S
C1096 C1095 1.383 . S
C1096 C1097 1.395 . S
C1097 H1074 0.950 . S
C1097 C1096 1.395 . S
C1097 C1098 1.288 . S
C1098 C1097 1.288 . S
C1098 C1099 1.392 . S
C1099 H1075 0.951 . S
C1099 C1098 1.392 . S
C1099 C1100 1.392 . S
C1100 H1076 0.949 . S
C1100 C1095 1.382 . S
C1100 C1099 1.392 . S
C1101 C1102 1.376 . S
C1101 C1106 1.386 . S
C1101 C1107 1.483 . S
C1102 H1077 0.949 . S
C1102 C1101 1.376 . S
C1102 C1103 1.397 . S
C1103 H1078 0.950 . S
C1103 C1102 1.397 . S
C1103 C1104 1.391 . S
C1104 C1103 1.391 . S
C1104 C1105 1.405 . S
C1105 H1079 0.950 . S
C1105 C1104 1.405 . S
C1105 C1106 1.367 . S
C1106 H1080 0.950 . S
C1106 C1101 1.386 . S
C1106 C1105 1.367 . S
C1107 C1101 1.483 . S
C1107 C1108 1.382 . S
C1107 C1109 1.403 . S
C1108 H1081 0.950 . S
C1108 C1094 1.411 . S
C1108 C1107 1.382 . S
C1109 C1093 1.411 . S
C1109 C1107 1.403 . S
C1109 C1110 1.489 . S
C1110 C1109 1.489 . S
C1110 C1111 1.383 . S
C1110 C1115 1.382 . S
C1111 H1082 0.950 . S
C1111 C1110 1.383 . S
C1111 C1112 1.395 . S
C1112 H1083 0.950 . S
C1112 C1111 1.395 . S
C1112 C1113 1.288 . S
C1113 C1112 1.288 . S
C1113 C1114 1.392 . S
C1114 H1084 0.951 . S
C1114 C1113 1.392 . S
C1114 C1115 1.392 . S
C1115 H1085 0.949 . S
C1115 C1110 1.382 . S
C1115 C1114 1.392 . S
C1116 C1117 1.369 . S
C1116 C1118 1.419 . S
C1116 H1120 0.930 . S
C1117 C1116 1.369 . S
C1117 C1126 1.429 1_655 S
C1118 C1116 1.419 . S
C1118 C1119 1.363 . S
C1118 H1121 0.929 . S
C1119 C1118 1.363 . S
C1119 C1125 1.428 1_655 S
H1120 C1116 0.930 . S
H1121 C1118 0.929 . S
S1122 N1123 1.613 . S
S1122 N1124 1.610 . S
N1123 S1122 1.613 . S
N1123 C1126 1.350 . S
N1124 S1122 1.610 . S
N1124 C1125 1.351 . S
C1125 C1119 1.428 1_455 S
C1125 N1124 1.351 . S
C1125 C1126 1.434 . S
C1126 C1117 1.429 1_455 S
C1126 N1123 1.350 . S
C1126 C1125 1.434 . S
C1127 C1128 1.369 . S
C1127 C1129 1.419 . S
C1127 H1131 0.930 . S
C1128 C1127 1.369 . S
C1128 C1137 1.429 . S
C1129 C1127 1.419 . S
C1129 C1130 1.363 . S
C1129 H1132 0.929 . S
C1130 C1129 1.363 . S
C1130 C1136 1.428 . S
H1131 C1127 0.930 . S
H1132 C1129 0.929 . S
S1133 N1134 1.613 . S
S1133 N1135 1.610 . S
N1134 S1133 1.613 . S
N1134 C1137 1.350 . S
N1135 S1133 1.610 . S
N1135 C1136 1.351 . S
C1136 C1130 1.428 . S
C1136 N1135 1.351 . S
C1136 C1137 1.434 . S
C1137 C1128 1.429 . S
C1137 N1134 1.350 . S
C1137 C1136 1.434 . S
C1138 C1139 1.369 . S
C1138 C1140 1.419 . S
C1138 H1142 0.930 . S
C1139 C1138 1.369 . S
C1139 C1148 1.429 1_545 S
C1140 C1138 1.419 . S
C1140 C1141 1.363 . S
C1140 H1143 0.929 . S
C1141 C1140 1.363 . S
C1141 C1147 1.428 1_545 S
H1142 C1138 0.930 . S
H1143 C1140 0.929 . S
S1144 N1145 1.613 . S
S1144 N1146 1.610 . S
N1145 S1144 1.613 . S
N1145 C1148 1.350 . S
N1146 S1144 1.610 . S
N1146 C1147 1.351 . S
C1147 C1141 1.428 1_565 S
C1147 N1146 1.351 . S
C1147 C1148 1.434 . S
C1148 C1139 1.429 1_565 S
C1148 N1145 1.350 . S
C1148 C1147 1.434 . S
C1149 C1150 1.369 . S
C1149 C1151 1.419 . S
C1149 H1153 0.930 . S
C1150 C1149 1.369 . S
C1150 C1159 1.429 1_565 S
C1151 C1149 1.419 . S
C1151 C1152 1.363 . S
C1151 H1154 0.929 . S
C1152 C1151 1.363 . S
C1152 C1158 1.428 1_565 S
H1153 C1149 0.930 . S
H1154 C1151 0.929 . S
S1155 N1156 1.613 . S
S1155 N1157 1.610 . S
N1156 S1155 1.613 . S
N1156 C1159 1.350 . S
N1157 S1155 1.610 . S
N1157 C1158 1.351 . S
C1158 C1152 1.428 1_545 S
C1158 N1157 1.351 . S
C1158 C1159 1.434 . S
C1159 C1150 1.429 1_545 S
C1159 N1156 1.350 . S
C1159 C1158 1.434 . S
C1160 C1161 1.369 . S
C1160 C1162 1.419 . S
C1160 H1164 0.930 . S
C1161 C1160 1.369 . S
C1161 C1170 1.429 1_455 S
C1162 C1160 1.419 . S
C1162 C1163 1.363 . S
C1162 H1165 0.929 . S
C1163 C1162 1.363 . S
C1163 C1169 1.428 1_455 S
H1164 C1160 0.930 . S
H1165 C1162 0.929 . S
S1166 N1167 1.613 . S
S1166 N1168 1.610 . S
N1167 S1166 1.613 . S
N1167 C1170 1.350 . S
N1168 S1166 1.610 . S
N1168 C1169 1.351 . S
C1169 C1163 1.428 1_655 S
C1169 N1168 1.351 . S
C1169 C1170 1.434 . S
C1170 C1161 1.429 1_655 S
C1170 N1167 1.350 . S
C1170 C1169 1.434 . S
C1171 C1172 1.369 . S
C1171 C1173 1.419 . S
C1171 H1175 0.930 . S
C1172 C1171 1.369 . S
C1172 C1181 1.429 . S
C1173 C1171 1.419 . S
C1173 C1174 1.363 . S
C1173 H1176 0.929 . S
C1174 C1173 1.363 . S
C1174 C1180 1.428 . S
H1175 C1171 0.930 . S
H1176 C1173 0.929 . S
S1177 N1178 1.613 . S
S1177 N1179 1.610 . S
N1178 S1177 1.613 . S
N1178 C1181 1.350 . S
N1179 S1177 1.610 . S
N1179 C1180 1.351 . S
C1180 C1174 1.428 . S
C1180 N1179 1.351 . S
C1180 C1181 1.434 . S
C1181 C1172 1.429 . S
C1181 N1178 1.350 . S
C1181 C1180 1.434 . S
C1182 C1183 1.369 . S
C1182 C1184 1.419 . S
C1182 H1186 0.930 . S
C1183 C1182 1.369 . S
C1183 C1192 1.429 1_455 S
C1184 C1182 1.419 . S
C1184 C1185 1.363 . S
C1184 H1187 0.929 . S
C1185 C1184 1.363 . S
C1185 C1191 1.428 1_455 S
H1186 C1182 0.930 . S
H1187 C1184 0.929 . S
S1188 N1189 1.613 . S
S1188 N1190 1.610 . S
N1189 S1188 1.613 . S
N1189 C1192 1.350 . S
N1190 S1188 1.610 . S
N1190 C1191 1.351 . S
C1191 C1185 1.428 1_655 S
C1191 N1190 1.351 . S
C1191 C1192 1.434 . S
C1192 C1183 1.429 1_655 S
C1192 N1189 1.350 . S
C1192 C1191 1.434 . S
C1193 C1194 1.369 . S
C1193 C1195 1.419 . S
C1193 H1197 0.930 . S
C1194 C1193 1.369 . S
C1194 C1203 1.429 . S
C1195 C1193 1.419 . S
C1195 C1196 1.363 . S
C1195 H1198 0.929 . S
C1196 C1195 1.363 . S
C1196 C1202 1.428 . S
H1197 C1193 0.930 . S
H1198 C1195 0.929 . S
S1199 N1200 1.613 . S
S1199 N1201 1.610 . S
N1200 S1199 1.613 . S
N1200 C1203 1.350 . S
N1201 S1199 1.610 . S
N1201 C1202 1.351 . S
C1202 C1196 1.428 . S
C1202 N1201 1.351 . S
C1202 C1203 1.434 . S
C1203 C1194 1.429 . S
C1203 N1200 1.350 . S
C1203 C1202 1.434 . S
C1204 C1205 1.369 . S
C1204 C1206 1.419 . S
C1204 H1208 0.930 . S
C1205 C1204 1.369 . S
C1205 C1214 1.429 1_565 S
C1206 C1204 1.419 . S
C1206 C1207 1.363 . S
C1206 H1209 0.929 . S
C1207 C1206 1.363 . S
C1207 C1213 1.428 1_565 S
H1208 C1204 0.930 . S
H1209 C1206 0.929 . S
S1210 N1211 1.613 . S
S1210 N1212 1.610 . S
N1211 S1210 1.613 . S
N1211 C1214 1.350 . S
N1212 S1210 1.610 . S
N1212 C1213 1.351 . S
C1213 C1207 1.428 1_545 S
C1213 N1212 1.351 . S
C1213 C1214 1.434 . S
C1214 C1205 1.429 1_545 S
C1214 N1211 1.350 . S
C1214 C1213 1.434 . S
C1215 C1216 1.369 1_565 S
C1215 C1217 1.419 . S
C1215 H1219 0.930 . S
C1216 C1215 1.369 1_545 S
C1216 C1225 1.429 . S
C1217 C1215 1.419 . S
C1217 C1218 1.363 1_565 S
C1217 H1220 0.929 . S
C1218 C1217 1.363 1_545 S
C1218 C1224 1.428 . S
H1219 C1215 0.930 . S
H1220 C1217 0.929 . S
S1221 N1222 1.613 . S
S1221 N1223 1.610 . S
N1222 S1221 1.613 . S
N1222 C1225 1.350 . S
N1223 S1221 1.610 . S
N1223 C1224 1.351 . S
C1224 C1218 1.428 . S
C1224 N1223 1.351 . S
C1224 C1225 1.434 . S
C1225 C1216 1.429 . S
C1225 N1222 1.350 . S
C1225 C1224 1.434 . S
C1226 C1227 1.369 1_455 S
C1226 C1228 1.419 . S
C1226 H1230 0.930 . S
C1227 C1226 1.369 1_655 S
C1227 C1236 1.429 . S
C1228 C1226 1.419 . S
C1228 C1229 1.363 1_455 S
C1228 H1231 0.929 . S
C1229 C1228 1.363 1_655 S
C1229 C1235 1.428 . S
H1230 C1226 0.930 . S
H1231 C1228 0.929 . S
S1232 N1233 1.613 . S
S1232 N1234 1.610 . S
N1233 S1232 1.613 . S
N1233 C1236 1.350 . S
N1234 S1232 1.610 . S
N1234 C1235 1.351 . S
C1235 C1229 1.428 . S
C1235 N1234 1.351 . S
C1235 C1236 1.434 . S
C1236 C1227 1.429 . S
C1236 N1233 1.350 . S
C1236 C1235 1.434 . S
C1237 C1238 1.369 . S
C1237 C1239 1.419 . S
C1237 H1241 0.930 . S
C1238 C1237 1.369 . S
C1238 C1247 1.429 . S
C1239 C1237 1.419 . S
C1239 C1240 1.363 . S
C1239 H1242 0.929 . S
C1240 C1239 1.363 . S
C1240 C1246 1.428 . S
H1241 C1237 0.930 . S
H1242 C1239 0.929 . S
S1243 N1244 1.613 . S
S1243 N1245 1.610 . S
N1244 S1243 1.613 . S
N1244 C1247 1.350 . S
N1245 S1243 1.610 . S
N1245 C1246 1.351 . S
C1246 C1240 1.428 . S
C1246 N1245 1.351 . S
C1246 C1247 1.434 . S
C1247 C1238 1.429 . S
C1247 N1244 1.350 . S
C1247 C1246 1.434 . S
C1248 C1249 1.369 . S
C1248 C1250 1.419 . S
C1248 H1252 0.930 . S
C1249 C1248 1.369 . S
C1249 C1258 1.429 . S
C1250 C1248 1.419 . S
C1250 C1251 1.363 . S
C1250 H1253 0.929 . S
C1251 C1250 1.363 . S
C1251 C1257 1.428 . S
H1252 C1248 0.930 . S
H1253 C1250 0.929 . S
S1254 N1255 1.613 . S
S1254 N1256 1.610 . S
N1255 S1254 1.613 . S
N1255 C1258 1.350 . S
N1256 S1254 1.610 . S
N1256 C1257 1.351 . S
C1257 C1251 1.428 . S
C1257 N1256 1.351 . S
C1257 C1258 1.434 . S
C1258 C1249 1.429 . S
C1258 N1255 1.350 . S
C1258 C1257 1.434 . S
C1259 C1260 1.369 . S
C1259 C1261 1.419 . S
C1259 H1263 0.930 . S
C1260 C1259 1.369 . S
C1260 C1269 1.429 . S
C1261 C1259 1.419 . S
C1261 C1262 1.363 . S
C1261 H1264 0.929 . S
C1262 C1261 1.363 . S
C1262 C1268 1.428 . S
H1263 C1259 0.930 . S
H1264 C1261 0.929 . S
S1265 N1266 1.613 . S
S1265 N1267 1.610 . S
N1266 S1265 1.613 . S
N1266 C1269 1.350 . S
N1267 S1265 1.610 . S
N1267 C1268 1.351 . S
C1268 C1262 1.428 . S
C1268 N1267 1.351 . S
C1268 C1269 1.434 . S
C1269 C1260 1.429 . S
C1269 N1266 1.350 . S
C1269 C1268 1.434 . S
C1270 C1271 1.369 . S
C1270 C1272 1.419 . S
C1270 H1274 0.930 . S
C1271 C1270 1.369 . S
C1271 C1280 1.429 . S
C1272 C1270 1.419 . S
C1272 C1273 1.363 . S
C1272 H1275 0.929 . S
C1273 C1272 1.363 . S
C1273 C1279 1.428 . S
H1274 C1270 0.930 . S
H1275 C1272 0.929 . S
S1276 N1277 1.613 . S
S1276 N1278 1.610 . S
N1277 S1276 1.613 . S
N1277 C1280 1.350 . S
N1278 S1276 1.610 . S
N1278 C1279 1.351 . S
C1279 C1273 1.428 . S
C1279 N1278 1.351 . S
C1279 C1280 1.434 . S
C1280 C1271 1.429 . S
C1280 N1277 1.350 . S
C1280 C1279 1.434 . S
C1281 C1282 1.369 . S
C1281 C1283 1.419 . S
C1281 H1285 0.930 . S
C1282 C1281 1.369 . S
C1282 C1291 1.429 . S
C1283 C1281 1.419 . S
C1283 C1284 1.363 . S
C1283 H1286 0.929 . S
C1284 C1283 1.363 . S
C1284 C1290 1.428 . S
H1285 C1281 0.930 . S
H1286 C1283 0.929 . S
S1287 N1288 1.613 . S
S1287 N1289 1.610 . S
N1288 S1287 1.613 . S
N1288 C1291 1.350 . S
N1289 S1287 1.610 . S
N1289 C1290 1.351 . S
C1290 C1284 1.428 . S
C1290 N1289 1.351 . S
C1290 C1291 1.434 . S
C1291 C1282 1.429 . S
C1291 N1288 1.350 . S
C1291 C1290 1.434 . S
C1292 C1293 1.369 . S
C1292 C1294 1.419 . S
C1292 H1296 0.930 . S
C1293 C1292 1.369 . S
C1293 C1302 1.429 . S
C1294 C1292 1.419 . S
C1294 C1295 1.363 . S
C1294 H1297 0.929 . S
C1295 C1294 1.363 . S
C1295 C1301 1.428 . S
H1296 C1292 0.930 . S
H1297 C1294 0.929 . S
S1298 N1299 1.613 . S
S1298 N1300 1.610 . S
N1299 S1298 1.613 . S
N1299 C1302 1.350 . S
N1300 S1298 1.610 . S
N1300 C1301 1.351 . S
C1301 C1295 1.428 . S
C1301 N1300 1.351 . S
C1301 C1302 1.434 . S
C1302 C1293 1.429 . S
C1302 N1299 1.350 . S
C1302 C1301 1.434 . S
C1303 C1304 1.369 . S
C1303 C1305 1.419 . S
C1303 H1307 0.930 . S
C1304 C1303 1.369 . S
C1304 C1313 1.429 . S
C1305 C1303 1.419 . S
C1305 C1306 1.363 . S
C1305 H1308 0.929 . S
C1306 C1305 1.363 . S
C1306 C1312 1.428 . S
H1307 C1303 0.930 . S
H1308 C1305 0.929 . S
S1309 N1310 1.613 . S
S1309 N1311 1.610 . S
N1310 S1309 1.613 . S
N1310 C1313 1.350 . S
N1311 S1309 1.610 . S
N1311 C1312 1.351 . S
C1312 C1306 1.428 . S
C1312 N1311 1.351 . S
C1312 C1313 1.434 . S
C1313 C1304 1.429 . S
C1313 N1310 1.350 . S
C1313 C1312 1.434 . S
C1314 C1315 1.369 . S
C1314 C1316 1.419 . S
C1314 H1318 0.930 . S
C1315 C1314 1.369 . S
C1315 C1324 1.429 . S
C1316 C1314 1.419 . S
C1316 C1317 1.363 . S
C1316 H1319 0.929 . S
C1317 C1316 1.363 . S
C1317 C1323 1.428 . S
H1318 C1314 0.930 . S
H1319 C1316 0.929 . S
S1320 N1321 1.613 . S
S1320 N1322 1.610 . S
N1321 S1320 1.613 . S
N1321 C1324 1.350 . S
N1322 S1320 1.610 . S
N1322 C1323 1.351 . S
C1323 C1317 1.428 . S
C1323 N1322 1.351 . S
C1323 C1324 1.434 . S
C1324 C1315 1.429 . S
C1324 N1321 1.350 . S
C1324 C1323 1.434 . S
C1325 C1326 1.369 . S
C1325 C1327 1.419 . S
C1325 H1329 0.930 . S
C1326 C1325 1.369 . S
C1326 C1335 1.429 . S
C1327 C1325 1.419 . S
C1327 C1328 1.363 . S
C1327 H1330 0.929 . S
C1328 C1327 1.363 . S
C1328 C1334 1.428 . S
H1329 C1325 0.930 . S
H1330 C1327 0.929 . S
S1331 N1332 1.613 . S
S1331 N1333 1.610 . S
N1332 S1331 1.613 . S
N1332 C1335 1.350 . S
N1333 S1331 1.610 . S
N1333 C1334 1.351 . S
C1334 C1328 1.428 . S
C1334 N1333 1.351 . S
C1334 C1335 1.434 . S
C1335 C1326 1.429 . S
C1335 N1332 1.350 . S
C1335 C1334 1.434 . S
C1336 C1337 1.369 . S
C1336 C1338 1.419 . S
C1336 H1340 0.930 . S
C1337 C1336 1.369 . S
C1337 C1346 1.429 . S
C1338 C1336 1.419 . S
C1338 C1339 1.363 . S
C1338 H1341 0.929 . S
C1339 C1338 1.363 . S
C1339 C1345 1.428 . S
H1340 C1336 0.930 . S
H1341 C1338 0.929 . S
S1342 N1343 1.613 . S
S1342 N1344 1.610 . S
N1343 S1342 1.613 . S
N1343 C1346 1.350 . S
N1344 S1342 1.610 . S
N1344 C1345 1.351 . S
C1345 C1339 1.428 . S
C1345 N1344 1.351 . S
C1345 C1346 1.434 . S
C1346 C1337 1.429 . S
C1346 N1343 1.350 . S
C1346 C1345 1.434 . S
C1347 C1348 1.369 . S
C1347 C1349 1.419 . S
C1347 H1351 0.930 . S
C1348 C1347 1.369 . S
C1348 C1357 1.429 . S
C1349 C1347 1.419 . S
C1349 C1350 1.363 . S
C1349 H1352 0.929 . S
C1350 C1349 1.363 . S
C1350 C1356 1.428 . S
H1351 C1347 0.930 . S
H1352 C1349 0.929 . S
S1353 N1354 1.613 . S
S1353 N1355 1.610 . S
N1354 S1353 1.613 . S
N1354 C1357 1.350 . S
N1355 S1353 1.610 . S
N1355 C1356 1.351 . S
C1356 C1350 1.428 . S
C1356 N1355 1.351 . S
C1356 C1357 1.434 . S
C1357 C1348 1.429 . S
C1357 N1354 1.350 . S
C1357 C1356 1.434 . S
C1358 C1359 1.369 . S
C1358 C1360 1.419 . S
C1358 H1362 0.930 . S
C1359 C1358 1.369 . S
C1359 C1368 1.429 . S
C1360 C1358 1.419 . S
C1360 C1361 1.363 . S
C1360 H1363 0.929 . S
C1361 C1360 1.363 . S
C1361 C1367 1.428 . S
H1362 C1358 0.930 . S
H1363 C1360 0.929 . S
S1364 N1365 1.613 . S
S1364 N1366 1.610 . S
N1365 S1364 1.613 . S
N1365 C1368 1.350 . S
N1366 S1364 1.610 . S
N1366 C1367 1.351 . S
C1367 C1361 1.428 . S
C1367 N1366 1.351 . S
C1367 C1368 1.434 . S
C1368 C1359 1.429 . S
C1368 N1365 1.350 . S
C1368 C1367 1.434 . S
C1369 C1370 1.369 . S
C1369 C1371 1.419 . S
C1369 H1373 0.930 . S
C1370 C1369 1.369 . S
C1370 C1379 1.429 . S
C1371 C1369 1.419 . S
C1371 C1372 1.363 . S
C1371 H1374 0.929 . S
C1372 C1371 1.363 . S
C1372 C1378 1.428 . S
H1373 C1369 0.930 . S
H1374 C1371 0.929 . S
S1375 N1376 1.613 . S
S1375 N1377 1.610 . S
N1376 S1375 1.613 . S
N1376 C1379 1.350 . S
N1377 S1375 1.610 . S
N1377 C1378 1.351 . S
C1378 C1372 1.428 . S
C1378 N1377 1.351 . S
C1378 C1379 1.434 . S
C1379 C1370 1.429 . S
C1379 N1376 1.350 . S
C1379 C1378 1.434 . S
C1380 C1381 1.369 . S
C1380 C1382 1.419 . S
C1380 H1384 0.930 . S
C1381 C1380 1.369 . S
C1381 C1390 1.429 . S
C1382 C1380 1.419 . S
C1382 C1383 1.363 . S
C1382 H1385 0.929 . S
C1383 C1382 1.363 . S
C1383 C1389 1.428 . S
H1384 C1380 0.930 . S
H1385 C1382 0.929 . S
S1386 N1387 1.613 . S
S1386 N1388 1.610 . S
N1387 S1386 1.613 . S
N1387 C1390 1.350 . S
N1388 S1386 1.610 . S
N1388 C1389 1.351 . S
C1389 C1383 1.428 . S
C1389 N1388 1.351 . S
C1389 C1390 1.434 . S
C1390 C1381 1.429 . S
C1390 N1387 1.350 . S
C1390 C1389 1.434 . S
C1391 C1392 1.369 . S
C1391 C1393 1.419 . S
C1391 H1395 0.930 . S
C1392 C1391 1.369 . S
C1392 C1401 1.429 . S
C1393 C1391 1.419 . S
C1393 C1394 1.363 . S
C1393 H1396 0.929 . S
C1394 C1393 1.363 . S
C1394 C1400 1.428 . S
H1395 C1391 0.930 . S
H1396 C1393 0.929 . S
S1397 N1398 1.613 . S
S1397 N1399 1.610 . S
N1398 S1397 1.613 . S
N1398 C1401 1.350 . S
N1399 S1397 1.610 . S
N1399 C1400 1.351 . S
C1400 C1394 1.428 . S
C1400 N1399 1.351 . S
C1400 C1401 1.434 . S
C1401 C1392 1.429 . S
C1401 N1398 1.350 . S
C1401 C1400 1.434 . S
C1402 C1403 1.369 . S
C1402 C1404 1.419 . S
C1402 H1406 0.930 . S
C1403 C1402 1.369 . S
C1403 C1412 1.429 . S
C1404 C1402 1.419 . S
C1404 C1405 1.363 . S
C1404 H1407 0.929 . S
C1405 C1404 1.363 . S
C1405 C1411 1.428 . S
H1406 C1402 0.930 . S
H1407 C1404 0.929 . S
S1408 N1409 1.613 . S
S1408 N1410 1.610 . S
N1409 S1408 1.613 . S
N1409 C1412 1.350 . S
N1410 S1408 1.610 . S
N1410 C1411 1.351 . S
C1411 C1405 1.428 . S
C1411 N1410 1.351 . S
C1411 C1412 1.434 . S
C1412 C1403 1.429 . S
C1412 N1409 1.350 . S
C1412 C1411 1.434 . S
C1413 C1414 1.369 . S
C1413 C1415 1.419 . S
C1413 H1417 0.930 . S
C1414 C1413 1.369 . S
C1414 C1423 1.429 . S
C1415 C1413 1.419 . S
C1415 C1416 1.363 . S
C1415 H1418 0.929 . S
C1416 C1415 1.363 . S
C1416 C1422 1.428 . S
H1417 C1413 0.930 . S
H1418 C1415 0.929 . S
S1419 N1420 1.613 . S
S1419 N1421 1.610 . S
N1420 S1419 1.613 . S
N1420 C1423 1.350 . S
N1421 S1419 1.610 . S
N1421 C1422 1.351 . S
C1422 C1416 1.428 . S
C1422 N1421 1.351 . S
C1422 C1423 1.434 . S
C1423 C1414 1.429 . S
C1423 N1420 1.350 . S
C1423 C1422 1.434 . S
C1424 C1425 1.369 . S
C1424 C1426 1.419 . S
C1424 H1428 0.930 . S
C1425 C1424 1.369 . S
C1425 C1434 1.429 . S
C1426 C1424 1.419 . S
C1426 C1427 1.363 . S
C1426 H1429 0.929 . S
C1427 C1426 1.363 . S
C1427 C1433 1.428 . S
H1428 C1424 0.930 . S
H1429 C1426 0.929 . S
S1430 N1431 1.613 . S
S1430 N1432 1.610 . S
N1431 S1430 1.613 . S
N1431 C1434 1.350 . S
N1432 S1430 1.610 . S
N1432 C1433 1.351 . S
C1433 C1427 1.428 . S
C1433 N1432 1.351 . S
C1433 C1434 1.434 . S
C1434 C1425 1.429 . S
C1434 N1431 1.350 . S
C1434 C1433 1.434 . S
C1435 C1436 1.369 . S
C1435 C1437 1.419 . S
C1435 H1439 0.930 . S
C1436 C1435 1.369 . S
C1436 C1445 1.429 . S
C1437 C1435 1.419 . S
C1437 C1438 1.363 . S
C1437 H1440 0.929 . S
C1438 C1437 1.363 . S
C1438 C1444 1.428 . S
H1439 C1435 0.930 . S
H1440 C1437 0.929 . S
S1441 N1442 1.613 . S
S1441 N1443 1.610 . S
N1442 S1441 1.613 . S
N1442 C1445 1.350 . S
N1443 S1441 1.610 . S
N1443 C1444 1.351 . S
C1444 C1438 1.428 . S
C1444 N1443 1.351 . S
C1444 C1445 1.434 . S
C1445 C1436 1.429 . S
C1445 N1442 1.350 . S
C1445 C1444 1.434 . S
C1446 C1447 1.369 . S
C1446 C1448 1.419 . S
C1446 H1450 0.930 . S
C1447 C1446 1.369 . S
C1447 C1456 1.429 . S
C1448 C1446 1.419 . S
C1448 C1449 1.363 . S
C1448 H1451 0.929 . S
C1449 C1448 1.363 . S
C1449 C1455 1.428 . S
H1450 C1446 0.930 . S
H1451 C1448 0.929 . S
S1452 N1453 1.613 . S
S1452 N1454 1.610 . S
N1453 S1452 1.613 . S
N1453 C1456 1.350 . S
N1454 S1452 1.610 . S
N1454 C1455 1.351 . S
C1455 C1449 1.428 . S
C1455 N1454 1.351 . S
C1455 C1456 1.434 . S
C1456 C1447 1.429 . S
C1456 N1453 1.350 . S
C1456 C1455 1.434 . S
C1457 C1458 1.369 . S
C1457 C1459 1.419 . S
C1457 H1461 0.930 . S
C1458 C1457 1.369 . S
C1458 C1467 1.429 . S
C1459 C1457 1.419 . S
C1459 C1460 1.363 . S
C1459 H1462 0.929 . S
C1460 C1459 1.363 . S
C1460 C1466 1.428 . S
H1461 C1457 0.930 . S
H1462 C1459 0.929 . S
S1463 N1464 1.613 . S
S1463 N1465 1.610 . S
N1464 S1463 1.613 . S
N1464 C1467 1.350 . S
N1465 S1463 1.610 . S
N1465 C1466 1.351 . S
C1466 C1460 1.428 . S
C1466 N1465 1.351 . S
C1466 C1467 1.434 . S
C1467 C1458 1.429 . S
C1467 N1464 1.350 . S
C1467 C1466 1.434 . S
C1468 C1469 1.369 . S
C1468 C1470 1.419 . S
C1468 H1472 0.930 . S
C1469 C1468 1.369 . S
C1469 C1478 1.429 . S
C1470 C1468 1.419 . S
C1470 C1471 1.363 . S
C1470 H1473 0.929 . S
C1471 C1470 1.363 . S
C1471 C1477 1.428 . S
H1472 C1468 0.930 . S
H1473 C1470 0.929 . S
S1474 N1475 1.613 . S
S1474 N1476 1.610 . S
N1475 S1474 1.613 . S
N1475 C1478 1.350 . S
N1476 S1474 1.610 . S
N1476 C1477 1.351 . S
C1477 C1471 1.428 . S
C1477 N1476 1.351 . S
C1477 C1478 1.434 . S
C1478 C1469 1.429 . S
C1478 N1475 1.350 . S
C1478 C1477 1.434 . S
C1479 C1480 1.369 . S
C1479 C1481 1.419 . S
C1479 H1483 0.930 . S
C1480 C1479 1.369 . S
C1480 C1489 1.429 . S
C1481 C1479 1.419 . S
C1481 C1482 1.363 . S
C1481 H1484 0.929 . S
C1482 C1481 1.363 . S
C1482 C1488 1.428 . S
H1483 C1479 0.930 . S
H1484 C1481 0.929 . S
S1485 N1486 1.613 . S
S1485 N1487 1.610 . S
N1486 S1485 1.613 . S
N1486 C1489 1.350 . S
N1487 S1485 1.610 . S
N1487 C1488 1.351 . S
C1488 C1482 1.428 . S
C1488 N1487 1.351 . S
C1488 C1489 1.434 . S
C1489 C1480 1.429 . S
C1489 N1486 1.350 . S
C1489 C1488 1.434 . S
C1490 C1491 1.369 . S
C1490 C1492 1.419 . S
C1490 H1494 0.930 . S
C1491 C1490 1.369 . S
C1491 C1500 1.429 . S
C1492 C1490 1.419 . S
C1492 C1493 1.363 . S
C1492 H1495 0.929 . S
C1493 C1492 1.363 . S
C1493 C1499 1.428 . S
H1494 C1490 0.930 . S
H1495 C1492 0.929 . S
S1496 N1497 1.613 . S
S1496 N1498 1.610 . S
N1497 S1496 1.613 . S
N1497 C1500 1.350 . S
N1498 S1496 1.610 . S
N1498 C1499 1.351 . S
C1499 C1493 1.428 . S
C1499 N1498 1.351 . S
C1499 C1500 1.434 . S
C1500 C1491 1.429 . S
C1500 N1497 1.350 . S
C1500 C1499 1.434 . S
C1501 C1502 1.369 . S
C1501 C1503 1.419 . S
C1501 H1505 0.930 . S
C1502 C1501 1.369 . S
C1502 C1511 1.429 . S
C1503 C1501 1.419 . S
C1503 C1504 1.363 . S
C1503 H1506 0.929 . S
C1504 C1503 1.363 . S
C1504 C1510 1.428 . S
H1505 C1501 0.930 . S
H1506 C1503 0.929 . S
S1507 N1508 1.613 . S
S1507 N1509 1.610 . S
N1508 S1507 1.613 . S
N1508 C1511 1.350 . S
N1509 S1507 1.610 . S
N1509 C1510 1.351 . S
C1510 C1504 1.428 . S
C1510 N1509 1.351 . S
C1510 C1511 1.434 . S
C1511 C1502 1.429 . S
C1511 N1508 1.350 . S
C1511 C1510 1.434 . S
C1512 C1513 1.369 . S
C1512 C1514 1.419 . S
C1512 H1516 0.930 . S
C1513 C1512 1.369 . S
C1513 C1522 1.429 . S
C1514 C1512 1.419 . S
C1514 C1515 1.363 . S
C1514 H1517 0.929 . S
C1515 C1514 1.363 . S
C1515 C1521 1.428 . S
H1516 C1512 0.930 . S
H1517 C1514 0.929 . S
S1518 N1519 1.613 . S
S1518 N1520 1.610 . S
N1519 S1518 1.613 . S
N1519 C1522 1.350 . S
N1520 S1518 1.610 . S
N1520 C1521 1.351 . S
C1521 C1515 1.428 . S
C1521 N1520 1.351 . S
C1521 C1522 1.434 . S
C1522 C1513 1.429 . S
C1522 N1519 1.350 . S
C1522 C1521 1.434 . S
C1523 C1524 1.369 . S
C1523 C1525 1.419 . S
C1523 H1527 0.930 . S
C1524 C1523 1.369 . S
C1524 C1533 1.429 . S
C1525 C1523 1.419 . S
C1525 C1526 1.363 . S
C1525 H1528 0.929 . S
C1526 C1525 1.363 . S
C1526 C1532 1.428 . S
H1527 C1523 0.930 . S
H1528 C1525 0.929 . S
S1529 N1530 1.613 . S
S1529 N1531 1.610 . S
N1530 S1529 1.613 . S
N1530 C1533 1.350 . S
N1531 S1529 1.610 . S
N1531 C1532 1.351 . S
C1532 C1526 1.428 . S
C1532 N1531 1.351 . S
C1532 C1533 1.434 . S
C1533 C1524 1.429 . S
C1533 N1530 1.350 . S
C1533 C1532 1.434 . S
C1534 C1535 1.369 . S
C1534 C1536 1.419 . S
C1534 H1538 0.930 . S
C1535 C1534 1.369 . S
C1535 C1544 1.429 . S
C1536 C1534 1.419 . S
C1536 C1537 1.363 . S
C1536 H1539 0.929 . S
C1537 C1536 1.363 . S
C1537 C1543 1.428 . S
H1538 C1534 0.930 . S
H1539 C1536 0.929 . S
S1540 N1541 1.613 . S
S1540 N1542 1.610 . S
N1541 S1540 1.613 . S
N1541 C1544 1.350 . S
N1542 S1540 1.610 . S
N1542 C1543 1.351 . S
C1543 C1537 1.428 . S
C1543 N1542 1.351 . S
C1543 C1544 1.434 . S
C1544 C1535 1.429 . S
C1544 N1541 1.350 . S
C1544 C1543 1.434 . S
C1545 C1546 1.369 . S
C1545 C1547 1.419 . S
C1545 H1549 0.930 . S
C1546 C1545 1.369 . S
C1546 C1555 1.429 . S
C1547 C1545 1.419 . S
C1547 C1548 1.363 . S
C1547 H1550 0.929 . S
C1548 C1547 1.363 . S
C1548 C1554 1.428 . S
H1549 C1545 0.930 . S
H1550 C1547 0.929 . S
S1551 N1552 1.613 . S
S1551 N1553 1.610 . S
N1552 S1551 1.613 . S
N1552 C1555 1.350 . S
N1553 S1551 1.610 . S
N1553 C1554 1.351 . S
C1554 C1548 1.428 . S
C1554 N1553 1.351 . S
C1554 C1555 1.434 . S
C1555 C1546 1.429 . S
C1555 N1552 1.350 . S
C1555 C1554 1.434 . S
C1556 C1557 1.369 . S
C1556 C1558 1.419 . S
C1556 H1560 0.930 1_556 S
C1557 C1556 1.369 . S
C1557 C1566 1.429 . S
C1558 C1556 1.419 . S
C1558 C1559 1.363 . S
C1558 H1561 0.929 . S
C1559 C1558 1.363 . S
C1559 C1565 1.428 . S
H1560 C1556 0.930 1_554 S
H1561 C1558 0.929 . S
S1562 N1563 1.613 . S
S1562 N1564 1.610 . S
N1563 S1562 1.613 . S
N1563 C1566 1.350 . S
N1564 S1562 1.610 . S
N1564 C1565 1.351 . S
C1565 C1559 1.428 . S
C1565 N1564 1.351 . S
C1565 C1566 1.434 . S
C1566 C1557 1.429 . S
C1566 N1563 1.350 . S
C1566 C1565 1.434 . S
C1567 C1568 1.369 . S
C1567 C1569 1.419 . S
C1567 H1571 0.930 . S
C1568 C1567 1.369 . S
C1568 C1577 1.429 . S
C1569 C1567 1.419 . S
C1569 C1570 1.363 . S
C1569 H1572 0.929 . S
C1570 C1569 1.363 . S
C1570 C1576 1.428 . S
H1571 C1567 0.930 . S
H1572 C1569 0.929 . S
S1573 N1574 1.613 . S
S1573 N1575 1.610 1_554 S
N1574 S1573 1.613 . S
N1574 C1577 1.350 1_554 S
N1575 S1573 1.610 1_556 S
N1575 C1576 1.351 . S
C1576 C1570 1.428 . S
C1576 N1575 1.351 . S
C1576 C1577 1.434 . S
C1577 C1568 1.429 . S
C1577 N1574 1.350 1_556 S
C1577 C1576 1.434 . S
C1578 C1579 1.369 . S
C1578 C1580 1.419 . S
C1578 H1582 0.930 . S
C1579 C1578 1.369 . S
C1579 C1588 1.429 . S
C1580 C1578 1.419 . S
C1580 C1581 1.363 . S
C1580 H1583 0.929 . S
C1581 C1580 1.363 . S
C1581 C1587 1.428 . S
H1582 C1578 0.930 . S
H1583 C1580 0.929 . S
S1584 N1585 1.613 . S
S1584 N1586 1.610 . S
N1585 S1584 1.613 . S
N1585 C1588 1.350 . S
N1586 S1584 1.610 . S
N1586 C1587 1.351 . S
C1587 C1581 1.428 . S
C1587 N1586 1.351 . S
C1587 C1588 1.434 . S
C1588 C1579 1.429 . S
C1588 N1585 1.350 . S
C1588 C1587 1.434 . S
C1589 C1590 1.369 . S
C1589 C1591 1.419 . S
C1589 H1593 0.930 . S
C1590 C1589 1.369 . S
C1590 C1599 1.429 . S
C1591 C1589 1.419 . S
C1591 C1592 1.363 . S
C1591 H1594 0.929 . S
C1592 C1591 1.363 . S
C1592 C1598 1.428 . S
H1593 C1589 0.930 . S
H1594 C1591 0.929 . S
S1595 N1596 1.613 . S
S1595 N1597 1.610 . S
N1596 S1595 1.613 . S
N1596 C1599 1.350 . S
N1597 S1595 1.610 . S
N1597 C1598 1.351 . S
C1598 C1592 1.428 . S
C1598 N1597 1.351 . S
C1598 C1599 1.434 . S
C1599 C1590 1.429 . S
C1599 N1596 1.350 . S
C1599 C1598 1.434 . S
C1600 C1601 1.369 . S
C1600 C1602 1.419 . S
C1600 H1604 0.930 . S
C1601 C1600 1.369 . S
C1601 C1610 1.429 . S
C1602 C1600 1.419 . S
C1602 C1603 1.363 . S
C1602 H1605 0.929 . S
C1603 C1602 1.363 . S
C1603 C1609 1.428 . S
H1604 C1600 0.930 . S
H1605 C1602 0.929 . S
S1606 N1607 1.613 . S
S1606 N1608 1.610 1_554 S
N1607 S1606 1.613 . S
N1607 C1610 1.350 1_554 S
N1608 S1606 1.610 1_556 S
N1608 C1609 1.351 . S
C1609 C1603 1.428 . S
C1609 N1608 1.351 . S
C1609 C1610 1.434 . S
C1610 C1601 1.429 . S
C1610 N1607 1.350 1_556 S
C1610 C1609 1.434 . S
C1611 C1612 1.369 . S
C1611 C1613 1.419 . S
C1611 H1615 0.930 . S
C1612 C1611 1.369 . S
C1612 C1621 1.429 . S
C1613 C1611 1.419 . S
C1613 C1614 1.363 . S
C1613 H1616 0.929 . S
C1614 C1613 1.363 . S
C1614 C1620 1.428 . S
H1615 C1611 0.930 . S
H1616 C1613 0.929 . S
S1617 N1618 1.613 . S
S1617 N1619 1.610 . S
N1618 S1617 1.613 . S
N1618 C1621 1.350 . S
N1619 S1617 1.610 . S
N1619 C1620 1.351 . S
C1620 C1614 1.428 . S
C1620 N1619 1.351 . S
C1620 C1621 1.434 . S
C1621 C1612 1.429 . S
C1621 N1618 1.350 . S
C1621 C1620 1.434 . S
C1622 C1623 1.369 . S
C1622 C1624 1.419 . S
C1622 H1626 0.930 . S
C1623 C1622 1.369 . S
C1623 C1632 1.429 . S
C1624 C1622 1.419 . S
C1624 C1625 1.363 . S
C1624 H1627 0.929 . S
C1625 C1624 1.363 . S
C1625 C1631 1.428 . S
H1626 C1622 0.930 . S
H1627 C1624 0.929 . S
S1628 N1629 1.613 . S
S1628 N1630 1.610 . S
N1629 S1628 1.613 . S
N1629 C1632 1.350 . S
N1630 S1628 1.610 . S
N1630 C1631 1.351 . S
C1631 C1625 1.428 . S
C1631 N1630 1.351 . S
C1631 C1632 1.434 . S
C1632 C1623 1.429 . S
C1632 N1629 1.350 . S
C1632 C1631 1.434 . S
C1633 C1634 1.369 . S
C1633 C1635 1.419 . S
C1633 H1637 0.930 . S
C1634 C1633 1.369 . S
C1634 C1643 1.429 . S
C1635 C1633 1.419 . S
C1635 C1636 1.363 . S
C1635 H1638 0.929 . S
C1636 C1635 1.363 . S
C1636 C1642 1.428 . S
H1637 C1633 0.930 . S
H1638 C1635 0.929 . S
S1639 N1640 1.613 . S
S1639 N1641 1.610 . S
N1640 S1639 1.613 . S
N1640 C1643 1.350 . S
N1641 S1639 1.610 . S
N1641 C1642 1.351 . S
C1642 C1636 1.428 . S
C1642 N1641 1.351 . S
C1642 C1643 1.434 . S
C1643 C1634 1.429 . S
C1643 N1640 1.350 . S
C1643 C1642 1.434 . S
C1644 C1645 1.369 . S
C1644 C1646 1.419 . S
C1644 H1648 0.930 . S
C1645 C1644 1.369 . S
C1645 C1654 1.429 . S
C1646 C1644 1.419 . S
C1646 C1647 1.363 . S
C1646 H1649 0.929 . S
C1647 C1646 1.363 . S
C1647 C1653 1.428 . S
H1648 C1644 0.930 . S
H1649 C1646 0.929 . S
S1650 N1651 1.613 . S
S1650 N1652 1.610 . S
N1651 S1650 1.613 . S
N1651 C1654 1.350 . S
N1652 S1650 1.610 . S
N1652 C1653 1.351 . S
C1653 C1647 1.428 . S
C1653 N1652 1.351 . S
C1653 C1654 1.434 . S
C1654 C1645 1.429 . S
C1654 N1651 1.350 . S
C1654 C1653 1.434 . S
C1655 C1656 1.369 . S
C1655 C1657 1.419 . S
C1655 H1659 0.930 . S
C1656 C1655 1.369 . S
C1656 C1665 1.429 . S
C1657 C1655 1.419 . S
C1657 C1658 1.363 . S
C1657 H1660 0.929 . S
C1658 C1657 1.363 . S
C1658 C1664 1.428 . S
H1659 C1655 0.930 . S
H1660 C1657 0.929 . S
S1661 N1662 1.613 . S
S1661 N1663 1.610 . S
N1662 S1661 1.613 . S
N1662 C1665 1.350 . S
N1663 S1661 1.610 . S
N1663 C1664 1.351 . S
C1664 C1658 1.428 . S
C1664 N1663 1.351 . S
C1664 C1665 1.434 . S
C1665 C1656 1.429 . S
C1665 N1662 1.350 . S
C1665 C1664 1.434 . S
C1666 C1667 1.369 . S
C1666 C1668 1.419 . S
C1666 H1670 0.930 . S
C1667 C1666 1.369 . S
C1667 C1676 1.429 . S
C1668 C1666 1.419 . S
C1668 C1669 1.363 . S
C1668 H1671 0.929 . S
C1669 C1668 1.363 . S
C1669 C1675 1.428 . S
H1670 C1666 0.930 . S
H1671 C1668 0.929 . S
S1672 N1673 1.613 . S
S1672 N1674 1.610 . S
N1673 S1672 1.613 . S
N1673 C1676 1.350 . S
N1674 S1672 1.610 . S
N1674 C1675 1.351 . S
C1675 C1669 1.428 . S
C1675 N1674 1.351 . S
C1675 C1676 1.434 . S
C1676 C1667 1.429 . S
C1676 N1673 1.350 . S
C1676 C1675 1.434 . S
C1677 C1678 1.369 1_655 S
C1677 C1679 1.419 . S
C1677 H1681 0.930 . S
C1678 C1677 1.369 1_455 S
C1678 C1687 1.429 . S
C1679 C1677 1.419 . S
C1679 C1680 1.363 1_655 S
C1679 H1682 0.929 . S
C1680 C1679 1.363 1_455 S
C1680 C1686 1.428 . S
H1681 C1677 0.930 . S
H1682 C1679 0.929 . S
S1683 N1684 1.613 . S
S1683 N1685 1.610 . S
N1684 S1683 1.613 . S
N1684 C1687 1.350 . S
N1685 S1683 1.610 . S
N1685 C1686 1.351 . S
C1686 C1680 1.428 . S
C1686 N1685 1.351 . S
C1686 C1687 1.434 . S
C1687 C1678 1.429 . S
C1687 N1684 1.350 . S
C1687 C1686 1.434 . S
C1688 C1689 1.369 . S
C1688 C1690 1.419 . S
C1688 H1692 0.930 . S
C1689 C1688 1.369 . S
C1689 C1698 1.429 . S
C1690 C1688 1.419 . S
C1690 C1691 1.363 . S
C1690 H1693 0.929 . S
C1691 C1690 1.363 . S
C1691 C1697 1.428 . S
H1692 C1688 0.930 . S
H1693 C1690 0.929 . S
S1694 N1695 1.613 . S
S1694 N1696 1.610 . S
N1695 S1694 1.613 . S
N1695 C1698 1.350 . S
N1696 S1694 1.610 . S
N1696 C1697 1.351 . S
C1697 C1691 1.428 . S
C1697 N1696 1.351 . S
C1697 C1698 1.434 . S
C1698 C1689 1.429 . S
C1698 N1695 1.350 . S
C1698 C1697 1.434 . S
C1699 C1700 1.369 . S
C1699 C1701 1.419 . S
C1699 H1703 0.930 . S
C1700 C1699 1.369 . S
C1700 C1709 1.429 1_565 S
C1701 C1699 1.419 . S
C1701 C1702 1.363 . S
C1701 H1704 0.929 . S
C1702 C1701 1.363 . S
C1702 C1708 1.428 1_565 S
H1703 C1699 0.930 . S
H1704 C1701 0.929 . S
S1705 N1706 1.613 . S
S1705 N1707 1.610 . S
N1706 S1705 1.613 . S
N1706 C1709 1.350 . S
N1707 S1705 1.610 . S
N1707 C1708 1.351 . S
C1708 C1702 1.428 1_545 S
C1708 N1707 1.351 . S
C1708 C1709 1.434 . S
C1709 C1700 1.429 1_545 S
C1709 N1706 1.350 . S
C1709 C1708 1.434 . S
C1710 C1711 1.369 1_545 S
C1710 C1712 1.419 . S
C1710 H1714 0.930 . S
C1711 C1710 1.369 1_565 S
C1711 C1720 1.429 . S
C1712 C1710 1.419 . S
C1712 C1713 1.363 1_545 S
C1712 H1715 0.929 . S
C1713 C1712 1.363 1_565 S
C1713 C1719 1.428 . S
H1714 C1710 0.930 . S
H1715 C1712 0.929 . S
S1716 N1717 1.613 . S
S1716 N1718 1.610 . S
N1717 S1716 1.613 . S
N1717 C1720 1.350 . S
N1718 S1716 1.610 . S
N1718 C1719 1.351 . S
C1719 C1713 1.428 . S
C1719 N1718 1.351 . S
C1719 C1720 1.434 . S
C1720 C1711 1.429 . S
C1720 N1717 1.350 . S
C1720 C1719 1.434 . S
C1721 C1722 1.369 1_655 S
C1721 C1723 1.419 . S
C1721 H1725 0.930 . S
C1722 C1721 1.369 1_455 S
C1722 C1731 1.429 . S
C1723 C1721 1.419 . S
C1723 C1724 1.363 1_655 S
C1723 H1726 0.929 . S
C1724 C1723 1.363 1_455 S
C1724 C1730 1.428 . S
H1725 C1721 0.930 . S
H1726 C1723 0.929 . S
S1727 N1728 1.613 . S
S1727 N1729 1.610 . S
N1728 S1727 1.613 . S
N1728 C1731 1.350 . S
N1729 S1727 1.610 . S
N1729 C1730 1.351 . S
C1730 C1724 1.428 . S
C1730 N1729 1.351 . S
C1730 C1731 1.434 . S
C1731 C1722 1.429 . S
C1731 N1728 1.350 . S
C1731 C1730 1.434 . S
C1732 C1733 1.369 . S
C1732 C1734 1.419 . S
C1732 H1736 0.930 . S
C1733 C1732 1.369 . S
C1733 C1742 1.429 . S
C1734 C1732 1.419 . S
C1734 C1735 1.363 . S
C1734 H1737 0.929 . S
C1735 C1734 1.363 . S
C1735 C1741 1.428 . S
H1736 C1732 0.930 . S
H1737 C1734 0.929 . S
S1738 N1739 1.613 . S
S1738 N1740 1.610 . S
N1739 S1738 1.613 . S
N1739 C1742 1.350 . S
N1740 S1738 1.610 . S
N1740 C1741 1.351 . S
C1741 C1735 1.428 . S
C1741 N1740 1.351 . S
C1741 C1742 1.434 . S
C1742 C1733 1.429 . S
C1742 N1739 1.350 . S
C1742 C1741 1.434 . S
C1743 C1744 1.369 . S
C1743 C1745 1.419 . S
C1743 H1747 0.930 . S
C1744 C1743 1.369 . S
C1744 C1753 1.429 . S
C1745 C1743 1.419 . S
C1745 C1746 1.363 . S
C1745 H1748 0.929 . S
C1746 C1745 1.363 . S
C1746 C1752 1.428 . S
H1747 C1743 0.930 . S
H1748 C1745 0.929 . S
S1749 N1750 1.613 . S
S1749 N1751 1.610 . S
N1750 S1749 1.613 . S
N1750 C1753 1.350 . S
N1751 S1749 1.610 . S
N1751 C1752 1.351 . S
C1752 C1746 1.428 . S
C1752 N1751 1.351 . S
C1752 C1753 1.434 . S
C1753 C1744 1.429 . S
C1753 N1750 1.350 . S
C1753 C1752 1.434 . S
C1754 C1755 1.369 . S
C1754 C1756 1.419 . S
C1754 H1758 0.930 . S
C1755 C1754 1.369 . S
C1755 C1764 1.429 . S
C1756 C1754 1.419 . S
C1756 C1757 1.363 . S
C1756 H1759 0.929 . S
C1757 C1756 1.363 . S
C1757 C1763 1.428 . S
H1758 C1754 0.930 . S
H1759 C1756 0.929 . S
S1760 N1761 1.613 . S
S1760 N1762 1.610 . S
N1761 S1760 1.613 . S
N1761 C1764 1.350 . S
N1762 S1760 1.610 . S
N1762 C1763 1.351 . S
C1763 C1757 1.428 . S
C1763 N1762 1.351 . S
C1763 C1764 1.434 . S
C1764 C1755 1.429 . S
C1764 N1761 1.350 . S
C1764 C1763 1.434 . S
C1765 C1766 1.369 . S
C1765 C1767 1.419 . S
C1765 H1769 0.930 . S
C1766 C1765 1.369 . S
C1766 C1775 1.429 . S
C1767 C1765 1.419 . S
C1767 C1768 1.363 . S
C1767 H1770 0.929 . S
C1768 C1767 1.363 . S
C1768 C1774 1.428 . S
H1769 C1765 0.930 . S
H1770 C1767 0.929 . S
S1771 N1772 1.613 . S
S1771 N1773 1.610 . S
N1772 S1771 1.613 . S
N1772 C1775 1.350 . S
N1773 S1771 1.610 . S
N1773 C1774 1.351 . S
C1774 C1768 1.428 . S
C1774 N1773 1.351 . S
C1774 C1775 1.434 . S
C1775 C1766 1.429 . S
C1775 N1772 1.350 . S
C1775 C1774 1.434 . S
C1776 C1777 1.369 . S
C1776 C1778 1.419 . S
C1776 H1780 0.930 . S
C1777 C1776 1.369 . S
C1777 C1786 1.429 1_545 S
C1778 C1776 1.419 . S
C1778 C1779 1.363 . S
C1778 H1781 0.929 . S
C1779 C1778 1.363 . S
C1779 C1785 1.428 1_545 S
H1780 C1776 0.930 . S
H1781 C1778 0.929 . S
S1782 N1783 1.613 . S
S1782 N1784 1.610 . S
N1783 S1782 1.613 . S
N1783 C1786 1.350 . S
N1784 S1782 1.610 . S
N1784 C1785 1.351 . S
C1785 C1779 1.428 1_565 S
C1785 N1784 1.351 . S
C1785 C1786 1.434 . S
C1786 C1777 1.429 1_565 S
C1786 N1783 1.350 . S
C1786 C1785 1.434 . S
C1787 C1788 1.369 1_455 S
C1787 C1789 1.419 . S
C1787 H1791 0.930 . S
C1788 C1787 1.369 1_655 S
C1788 C1797 1.429 . S
C1789 C1787 1.419 . S
C1789 C1790 1.363 1_455 S
C1789 H1792 0.929 . S
C1790 C1789 1.363 1_655 S
C1790 C1796 1.428 . S
H1791 C1787 0.930 . S
H1792 C1789 0.929 . S
S1793 N1794 1.613 . S
S1793 N1795 1.610 . S
N1794 S1793 1.613 . S
N1794 C1797 1.350 . S
N1795 S1793 1.610 . S
N1795 C1796 1.351 . S
C1796 C1790 1.428 . S
C1796 N1795 1.351 . S
C1796 C1797 1.434 . S
C1797 C1788 1.429 . S
C1797 N1794 1.350 . S
C1797 C1796 1.434 . S
C1798 C1799 1.369 . S
C1798 C1800 1.419 . S
C1798 H1802 0.930 . S
C1799 C1798 1.369 . S
C1799 C1808 1.429 . S
C1800 C1798 1.419 . S
C1800 C1801 1.363 . S
C1800 H1803 0.929 . S
C1801 C1800 1.363 . S
C1801 C1807 1.428 . S
H1802 C1798 0.930 . S
H1803 C1800 0.929 . S
S1804 N1805 1.613 . S
S1804 N1806 1.610 . S
N1805 S1804 1.613 . S
N1805 C1808 1.350 . S
N1806 S1804 1.610 . S
N1806 C1807 1.351 . S
C1807 C1801 1.428 . S
C1807 N1806 1.351 . S
C1807 C1808 1.434 . S
C1808 C1799 1.429 . S
C1808 N1805 1.350 . S
C1808 C1807 1.434 . S
C1809 C1810 1.369 . S
C1809 C1811 1.419 . S
C1809 H1813 0.930 . S
C1810 C1809 1.369 . S
C1810 C1819 1.429 . S
C1811 C1809 1.419 . S
C1811 C1812 1.363 . S
C1811 H1814 0.929 . S
C1812 C1811 1.363 . S
C1812 C1818 1.428 . S
H1813 C1809 0.930 . S
H1814 C1811 0.929 . S
S1815 N1816 1.613 . S
S1815 N1817 1.610 . S
N1816 S1815 1.613 . S
N1816 C1819 1.350 . S
N1817 S1815 1.610 . S
N1817 C1818 1.351 . S
C1818 C1812 1.428 . S
C1818 N1817 1.351 . S
C1818 C1819 1.434 . S
C1819 C1810 1.429 . S
C1819 N1816 1.350 . S
C1819 C1818 1.434 . S
C1820 C1821 1.369 . S
C1820 C1822 1.419 . S
C1820 H1824 0.930 . S
C1821 C1820 1.369 . S
C1821 C1830 1.429 . S
C1822 C1820 1.419 . S
C1822 C1823 1.363 . S
C1822 H1825 0.929 . S
C1823 C1822 1.363 . S
C1823 C1829 1.428 . S
H1824 C1820 0.930 . S
H1825 C1822 0.929 . S
S1826 N1827 1.613 . S
S1826 N1828 1.610 . S
N1827 S1826 1.613 . S
N1827 C1830 1.350 . S
N1828 S1826 1.610 . S
N1828 C1829 1.351 . S
C1829 C1823 1.428 . S
C1829 N1828 1.351 . S
C1829 C1830 1.434 . S
C1830 C1821 1.429 . S
C1830 N1827 1.350 . S
C1830 C1829 1.434 . S
C1831 C1832 1.369 . S
C1831 C1833 1.419 . S
C1831 H1835 0.930 . S
C1832 C1831 1.369 . S
C1832 C1841 1.429 . S
C1833 C1831 1.419 . S
C1833 C1834 1.363 . S
C1833 H1836 0.929 . S
C1834 C1833 1.363 . S
C1834 C1840 1.428 . S
H1835 C1831 0.930 . S
H1836 C1833 0.929 . S
S1837 N1838 1.613 . S
S1837 N1839 1.610 . S
N1838 S1837 1.613 . S
N1838 C1841 1.350 . S
N1839 S1837 1.610 . S
N1839 C1840 1.351 . S
C1840 C1834 1.428 . S
C1840 N1839 1.351 . S
C1840 C1841 1.434 . S
C1841 C1832 1.429 . S
C1841 N1838 1.350 . S
C1841 C1840 1.434 . S
C1842 C1843 1.369 . S
C1842 C1844 1.419 . S
C1842 H1846 0.930 . S
C1843 C1842 1.369 . S
C1843 C1852 1.429 . S
C1844 C1842 1.419 . S
C1844 C1845 1.363 . S
C1844 H1847 0.929 . S
C1845 C1844 1.363 . S
C1845 C1851 1.428 . S
H1846 C1842 0.930 . S
H1847 C1844 0.929 . S
S1848 N1849 1.613 . S
S1848 N1850 1.610 . S
N1849 S1848 1.613 . S
N1849 C1852 1.350 . S
N1850 S1848 1.610 . S
N1850 C1851 1.351 . S
C1851 C1845 1.428 . S
C1851 N1850 1.351 . S
C1851 C1852 1.434 . S
C1852 C1843 1.429 . S
C1852 N1849 1.350 . S
C1852 C1851 1.434 . S
C1853 C1854 1.369 . S
C1853 C1855 1.419 . S
C1853 H1857 0.930 . S
C1854 C1853 1.369 . S
C1854 C1863 1.429 . S
C1855 C1853 1.419 . S
C1855 C1856 1.363 . S
C1855 H1858 0.929 . S
C1856 C1855 1.363 . S
C1856 C1862 1.428 . S
H1857 C1853 0.930 . S
H1858 C1855 0.929 . S
S1859 N1860 1.613 . S
S1859 N1861 1.610 . S
N1860 S1859 1.613 . S
N1860 C1863 1.350 . S
N1861 S1859 1.610 . S
N1861 C1862 1.351 . S
C1862 C1856 1.428 . S
C1862 N1861 1.351 . S
C1862 C1863 1.434 . S
C1863 C1854 1.429 . S
C1863 N1860 1.350 . S
C1863 C1862 1.434 . S
C1864 C1865 1.369 . S
C1864 C1866 1.419 . S
C1864 H1868 0.930 . S
C1865 C1864 1.369 . S
C1865 C1874 1.429 . S
C1866 C1864 1.419 . S
C1866 C1867 1.363 . S
C1866 H1869 0.929 . S
C1867 C1866 1.363 . S
C1867 C1873 1.428 . S
H1868 C1864 0.930 . S
H1869 C1866 0.929 . S
S1870 N1871 1.613 . S
S1870 N1872 1.610 . S
N1871 S1870 1.613 . S
N1871 C1874 1.350 . S
N1872 S1870 1.610 . S
N1872 C1873 1.351 . S
C1873 C1867 1.428 . S
C1873 N1872 1.351 . S
C1873 C1874 1.434 . S
C1874 C1865 1.429 . S
C1874 N1871 1.350 . S
C1874 C1873 1.434 . S
C1875 C1876 1.369 1_455 S
C1875 C1877 1.419 . S
C1875 H1879 0.930 . S
C1876 C1875 1.369 1_655 S
C1876 C1885 1.429 . S
C1877 C1875 1.419 . S
C1877 C1878 1.363 1_455 S
C1877 H1880 0.929 . S
C1878 C1877 1.363 1_655 S
C1878 C1884 1.428 . S
H1879 C1875 0.930 . S
H1880 C1877 0.929 . S
S1881 N1882 1.613 . S
S1881 N1883 1.610 . S
N1882 S1881 1.613 . S
N1882 C1885 1.350 . S
N1883 S1881 1.610 . S
N1883 C1884 1.351 . S
C1884 C1878 1.428 . S
C1884 N1883 1.351 . S
C1884 C1885 1.434 . S
C1885 C1876 1.429 . S
C1885 N1882 1.350 . S
C1885 C1884 1.434 . S
C1886 C1887 1.369 . S
C1886 C1888 1.419 . S
C1886 H1890 0.930 . S
C1887 C1886 1.369 . S
C1887 C1896 1.429 . S
C1888 C1886 1.419 . S
C1888 C1889 1.363 . S
C1888 H1891 0.929 . S
C1889 C1888 1.363 . S
C1889 C1895 1.428 . S
H1890 C1886 0.930 . S
H1891 C1888 0.929 . S
S1892 N1893 1.613 . S
S1892 N1894 1.610 . S
N1893 S1892 1.613 . S
N1893 C1896 1.350 . S
N1894 S1892 1.610 . S
N1894 C1895 1.351 . S
C1895 C1889 1.428 . S
C1895 N1894 1.351 . S
C1895 C1896 1.434 . S
C1896 C1887 1.429 . S
C1896 N1893 1.350 . S
C1896 C1895 1.434 . S
C1897 C1898 1.369 . S
C1897 C1899 1.419 . S
C1897 H1901 0.930 . S
C1898 C1897 1.369 . S
C1898 C1907 1.429 . S
C1899 C1897 1.419 . S
C1899 C1900 1.363 . S
C1899 H1902 0.929 . S
C1900 C1899 1.363 . S
C1900 C1906 1.443 . S
H1901 C1897 0.930 . S
H1902 C1899 0.929 . S
S1903 N1904 1.613 . S
S1903 N1905 1.610 . S
N1904 S1903 1.613 . S
N1904 C1907 1.350 1_565 S
N1905 S1903 1.610 . S
N1905 C1906 1.343 1_565 S
C1906 C1900 1.443 . S
C1906 N1905 1.343 1_545 S
C1906 C1907 1.425 . S
C1907 C1898 1.429 . S
C1907 N1904 1.350 1_545 S
C1907 C1906 1.425 . S
C1117 C9 1.500 . S
C1119 C729 1.500 . S
C1128 C19 1.594 . S
C1130 C777 1.584 . S
C1141 C825 1.533 . S
C1139 C33 1.535 . S
C1150 C37 1.487 1_565 S
C1152 C849 1.519 . S
C1161 C5 1.490 . S
C1163 C921 1.490 . S
C1172 C23 1.640 . S
C1174 C969 1.624 . S
C1183 C47 1.504 . S
C1185 C897 1.511 . S
C1196 C945 1.633 . S
C1194 C65 1.651 . S
C1207 C873 1.494 . S
C1205 C75 1.504 . S
C1216 C79 1.465 . S
C1218 C801 1.469 . S
C1229 C705 1.539 . S
C1227 C51 1.528 . S
C1238 C61 1.620 . S
C1240 C753 1.605 . S
C1249 C93 1.716 . S
C1251 C1017 1.697 . S
C1260 C103 1.660 . S
C1262 C1065 1.642 . S
C1273 C1089 1.645 . S
C1271 C117 1.680 . S
C1282 C121 1.655 . S
C1284 C273 1.616 . S
C1293 C89 1.657 . S
C1295 C345 1.639 . S
C1304 C107 1.689 . S
C1306 C393 1.663 . S
C1315 C131 1.629 . S
C1317 C321 1.614 . S
C1326 C149 1.692 . S
C1328 C369 1.665 . S
C1339 C297 1.585 . S
C1337 C159 1.644 . S
C1350 C1113 1.615 . S
C1348 C163 1.687 . S
C1361 C993 1.686 . S
C1359 C135 1.714 . S
C1372 C1041 1.664 . S
C1370 C145 1.684 . S
C1381 C177 1.653 . S
C1383 C441 1.633 . S
C1392 C187 1.634 . S
C1394 C489 1.614 . S
C1403 C201 1.680 . S
C1405 C513 1.648 . S
C1414 C205 1.719 . S
C1416 C561 1.679 . S
C1427 C633 1.644 . S
C1425 C173 1.659 . S
C1438 C681 1.690 . S
C1436 C191 1.716 . S
C1449 C609 1.682 . S
C1447 C215 1.701 . S
C1460 C657 1.697 . S
C1458 C233 1.722 . S
C1469 C243 1.643 . S
C1471 C585 1.580 . S
C1482 C537 1.544 . S
C1480 C247 1.617 . S
C1491 C219 1.711 . S
C1493 C417 1.685 . S
C1504 C465 1.644 . S
C1502 C229 1.667 . S
C1515 C282 1.582 . S
C1513 C11 1.591 . S
C1524 C14 1.563 . S
C1526 C336 1.514 . S
C1537 C384 1.627 . S
C1535 C28 1.677 . S
C1548 C432 1.615 . S
C1546 C39 1.666 . S
C1559 C480 1.570 . S
C1557 C0 1.619 . S
C1570 C522 1.514 . S
C1568 C25 1.521 . S
C1579 C42 1.667 . S
C1581 C528 1.639 . S
C1590 C67 1.574 . S
C1592 C426 1.516 . S
C1601 C70 1.571 . S
C1603 C474 1.513 . S
C1612 C81 1.585 . S
C1614 C330 1.532 . S
C1625 C378 1.577 . S
C1623 C53 1.644 . S
C1634 C56 1.602 . S
C1636 C288 1.566 . S
C1647 C570 1.555 . S
C1645 C95 1.564 . S
C1656 C98 1.641 . S
C1658 C624 1.600 . S
C1667 C112 1.706 . S
C1669 C672 1.656 . S
C1680 C720 1.462 . S
C1678 C123 1.457 . S
C1689 C84 1.590 . S
C1691 C768 1.550 . S
C1700 C109 1.405 . S
C1702 C816 1.414 . S
C1711 C126 1.475 . S
C1713 C810 1.478 . S
C1722 C151 1.436 . S
C1724 C714 1.441 . S
C1735 C762 1.507 . S
C1733 C154 1.556 . S
C1744 C165 1.555 . S
C1746 C618 1.500 . S
C1755 C137 1.660 . S
C1757 C666 1.600 . S
C1768 C576 1.647 . S
C1766 C140 1.678 . S
C1779 C858 1.436 . S
C1777 C179 1.429 . S
C1788 C182 1.427 . S
C1790 C912 1.443 . S
C1799 C196 1.645 . S
C1801 C960 1.599 . S
C1812 C1008 1.585 . S
C1810 C207 1.636 . S
C1823 C1056 1.601 . S
C1821 C168 1.643 . S
C1832 C193 1.607 . S
C1834 C1098 1.600 . S
C1843 C210 1.646 . S
C1845 C1104 1.619 . S
C1854 C235 1.653 . S
C1856 C1002 1.599 . S
C1867 C1050 1.563 . S
C1865 C238 1.607 . S
C1878 C906 1.409 . S
C1876 C249 1.396 . S
C1889 C954 1.552 . S
C1887 C221 1.606 . S
C1898 C224 1.460 . S
C1900 C864 1.465 . S
