# Generated by pormake.
# Topology tsx, (6,3)-cn, num edge types: 1
# Building blocks:
#     Node 0, Type 0, BuildingBlock: JUFBIX_clean_sbu_0, # of connection points: 6
#     Node 1, Type 0, BuildingBlock: JUFBIX_clean_sbu_0, # of connection points: 6
#     Node 2, Type 1, BuildingBlock: INOVEN_clean_linker_0, # of connection points: 3
#     Node 3, Type 1, BuildingBlock: INOVEN_clean_linker_0, # of connection points: 3
#     Node 4, Type 1, BuildingBlock: INOVEN_clean_linker_0, # of connection points: 3
#     Node 5, Type 1, BuildingBlock: INOVEN_clean_linker_0, # of connection points: 3
#     Edge 6, Type (0, 1), BuildingBlock: FUNLAD_clean_linker_1, # of connection points: 2
#     Edge 7, Type (0, 1), BuildingBlock: FUNLAD_clean_linker_1, # of connection points: 2
#     Edge 8, Type (0, 1), BuildingBlock: FUNLAD_clean_linker_1, # of connection points: 2
#     Edge 9, Type (0, 1), BuildingBlock: FUNLAD_clean_linker_1, # of connection points: 2
#     Edge 10, Type (0, 1), BuildingBlock: FUNLAD_clean_linker_1, # of connection points: 2
#     Edge 11, Type (0, 1), BuildingBlock: FUNLAD_clean_linker_1, # of connection points: 2
#     Edge 12, Type (0, 1), BuildingBlock: FUNLAD_clean_linker_1, # of connection points: 2
#     Edge 13, Type (0, 1), BuildingBlock: FUNLAD_clean_linker_1, # of connection points: 2
#     Edge 14, Type (0, 1), BuildingBlock: FUNLAD_clean_linker_1, # of connection points: 2
#     Edge 15, Type (0, 1), BuildingBlock: FUNLAD_clean_linker_1, # of connection points: 2
#     Edge 16, Type (0, 1), BuildingBlock: FUNLAD_clean_linker_1, # of connection points: 2
#     Edge 17, Type (0, 1), BuildingBlock: FUNLAD_clean_linker_1, # of connection points: 2
# Relax obj value: 0.097
# Max RMSD: 0.121
# Mean RMSD: 0.109
data_MOF--net-tsx--node1-JUFBIX_clean_sbu_0--node2-INOVEN_clean_linker_0--edge1-FUNLAD_clean_linker_1
_symmetry_space_group_name_H-M    P1
_symmetry_Int_Tables_number       1
_symmetry_cell_setting            triclinic
loop_
_symmetry_equiv_pos_as_xyz
'x, y, z'
_cell_length_a     20.948934
_cell_length_b     24.720915
_cell_length_c     34.010049
_cell_angle_alpha  92.137235
_cell_angle_beta   98.169999
_cell_angle_gamma 99.498457
loop_
_atom_site_label
_atom_site_type_symbol
_atom_site_fract_x
_atom_site_fract_y
_atom_site_fract_z
_atom_type_partial_charge
Co0 Co 0.09254 0.99244 0.01319 0.0
C1 C 0.0333 0.99739 0.93508 0.0
Co2 Co 1.00918 0.03812 0.00664 0.0
C3 C 0.1726 0.91004 -0.00168 0.0
C4 C 0.22068 0.97232 0.04307 0.0
N5 N 0.16413 0.95624 0.01802 0.0
N6 N 0.23197 0.89658 0.0103 0.0
C7 C 0.26241 0.93588 0.03842 0.0
H8 H 0.1361 0.88686 0.97541 0.0
H9 H 0.23123 1.00872 0.06315 0.0
C10 C 0.06824 0.03469 0.08474 0.0
N11 N 0.93818 0.07479 0.00403 0.0
C12 C 0.92801 0.12121 0.98616 0.0
C13 C 0.88896 0.06364 0.02577 0.0
N14 N 0.87534 0.13978 -0.00337 0.0
C15 C 0.85025 0.10334 0.02123 0.0
C16 C 0.97457 0.92633 0.01629 0.0
O17 O 0.10507 1.00643 0.06958 0.0
O18 O 0.02327 0.05199 0.06238 0.0
O19 O 0.95359 0.97124 0.01155 0.0
O20 O 0.0354 0.92535 0.01796 0.0
O21 O 0.99571 0.02427 0.95087 0.0
H22 H 0.88311 0.03003 0.04514 0.0
H23 H 0.96034 0.14251 0.96742 0.0
O24 O 0.07895 0.9795 0.95691 0.0
O25 O 0.14874 0.05974 0.00833 0.0
O26 O 0.06581 0.10438 0.00168 0.0
C27 C 0.12664 0.10429 0.00328 0.0
H28 H 0.31179 0.9391 0.05394 0.0
H29 H 0.80759 0.10556 0.03542 0.0
Co30 Co 0.49169 0.48966 0.49415 0.0
C31 C 0.4241 0.52267 0.4239 0.0
Co32 Co 0.41919 0.54362 0.50221 0.0
C33 C 0.60833 0.43565 0.49615 0.0
C34 C 0.52419 0.39771 0.45524 0.0
N35 N 0.54571 0.44042 0.48238 0.0
N36 N 0.62565 0.39101 0.47901 0.0
C37 C 0.5728 0.36753 0.45307 0.0
H38 H 0.64041 0.46408 0.51826 0.0
H39 H 0.47595 0.38917 0.43771 0.0
C40 C 0.48772 0.51242 0.57244 0.0
N41 N 0.36164 0.5899 0.5129 0.0
C42 C 0.35003 0.63645 0.49579 0.0
C43 C 0.31966 0.58193 0.53961 0.0
N44 N 0.30201 0.65734 0.51046 0.0
C45 C 0.28294 0.62325 0.5382 0.0
C46 C 0.36501 0.43381 0.49874 0.0
O47 O 0.51615 0.48534 0.54977 0.0
O48 O 0.44501 0.53974 0.55748 0.0
O49 O 0.35135 0.48167 0.50244 0.0
O50 O 0.42285 0.4286 0.49437 0.0
O51 O 0.39401 0.5474 0.44677 0.0
H52 H 0.31567 0.54792 0.55874 0.0
H53 H 0.37554 0.65424 0.47254 0.0
O54 O 0.46702 0.49538 0.43871 0.0
O55 O 0.55999 0.55111 0.49461 0.0
O56 O 0.48813 0.60509 0.50209 0.0
C57 C 0.54647 0.59925 0.49865 0.0
H58 H 0.56988 0.33196 0.43293 0.0
H59 H 0.24561 0.62784 0.55642 0.0
H60 H 0.99529 1.00009 0.4716 0.0
H61 H 0.1391 0.98586 0.39487 0.0
H62 H 0.02852 0.11707 0.38321 0.0
N63 N 0.96186 0.09173 0.4446 0.0
N64 N 0.95913 0.14017 0.43661 0.0
C65 C 0.0225 0.01563 0.44847 0.0
C66 C 0.07201 0.98891 0.43736 0.0
C67 C 1.0087 0.06335 0.43048 0.0
C68 C 0.04087 0.08172 0.39853 0.0
C69 C 0.08743 0.0532 0.38549 0.0
C70 C 0.10417 1.00822 0.4058 0.0
H71 H 0.97847 0.926 0.51668 0.0
H72 H 0.96717 0.86243 0.63194 0.0
H73 H 0.08889 0.01732 0.62193 0.0
N74 N 0.06581 0.01699 0.54222 0.0
N75 N 0.09128 0.06406 0.55668 0.0
C76 C 0.99244 0.93025 0.54864 0.0
C77 C 0.9667 0.889 0.57244 0.0
C78 C 0.03693 0.97675 0.56631 0.0
C79 C 0.05462 0.98185 0.60794 0.0
C80 C 0.02874 0.94146 0.63178 0.0
C81 C 0.98607 0.89464 0.61375 0.0
H82 H 0.63731 0.52216 0.98997 0.0
H83 H 0.69311 0.46434 0.88104 0.0
H84 H 0.56844 0.58575 0.87869 0.0
N85 N 0.56635 0.59325 0.95791 0.0
N86 N 0.52162 0.61499 0.94032 0.0
C87 C 0.63573 0.5231 0.95807 0.0
C88 C 0.66765 0.48734 0.93806 0.0
C89 C 0.59932 0.55835 0.9369 0.0
C90 C 0.59589 0.55829 0.89521 0.0
C91 C 0.62953 0.52402 0.87507 0.0
C92 C 0.66636 0.48985 0.89676 0.0
H93 H 0.53055 0.47351 0.02455 0.0
H94 H 0.41764 0.44485 0.11985 0.0
H95 H 0.57084 0.58508 0.12872 0.0
N96 N 0.6091 0.56229 0.05803 0.0
N97 N 0.64174 0.60606 0.07431 0.0
C98 C 0.5185 0.48637 0.05303 0.0
C99 C 0.46701 0.45531 0.06873 0.0
C100 C 0.55555 0.53347 0.07417 0.0
C101 C 0.54121 0.54949 0.11167 0.0
C102 C 0.49041 0.51845 0.12809 0.0
C103 C 0.45361 0.47138 0.10636 0.0
H104 H 0.14983 0.19386 0.00033 0.0
C105 C 0.17108 0.15658 0.00243 0.0
H106 H 0.25875 0.12386 0.01263 0.0
H107 H 0.35881 0.38373 0.97396 0.0
H108 H 0.32984 0.34948 0.9048 0.0
H109 H 0.27744 0.25306 0.88706 0.0
H110 H 0.25348 0.19028 0.93853 0.0
C111 C 0.23632 0.16029 0.00862 0.0
C112 C 0.27787 0.21485 0.01874 0.0
C113 C 0.29292 0.25043 0.98845 0.0
C114 C 0.32423 0.30565 -0.00126 0.0
C115 C 0.33652 0.34102 0.96787 0.0
C116 C 0.31982 0.32194 0.92804 0.0
C117 C 0.2902 0.26767 0.91804 0.0
C118 C 0.27659 0.23215 0.94779 0.0
H119 H 0.4596 0.37883 0.03102 0.0
C120 C 0.43232 0.40282 0.04779 0.0
H121 H 0.34163 0.40662 0.06712 0.0
H122 H 0.26019 0.15512 0.0838 0.0
H123 H 0.29043 0.18841 0.15301 0.0
H124 H 0.34387 0.28427 0.17112 0.0
H125 H 0.36908 0.34715 0.12031 0.0
C126 C 0.36982 0.38277 0.05099 0.0
C127 C 0.34084 0.32459 0.03936 0.0
C128 C 0.32774 0.28824 0.06967 0.0
C129 C 0.29663 0.23313 0.0593 0.0
C130 C 0.28357 0.19759 0.09005 0.0
C131 C 0.30069 0.2161 0.12991 0.0
C132 C 0.331 0.27005 0.14011 0.0
C133 C 0.34484 0.3058 0.11055 0.0
H134 H 0.23126 0.82905 0.96684 0.0
C135 C 0.25787 0.85153 -0.00607 0.0
H136 H 0.34036 0.85717 0.03869 0.0
H137 H 0.39334 0.61728 0.00132 0.0
H138 H 0.34545 0.60397 0.06171 0.0
H139 H 0.29634 0.67691 0.09118 0.0
H140 H 0.29437 0.76352 0.0601 0.0
C141 C 0.31457 0.83733 0.01061 0.0
C142 C 0.34358 0.79319 0.9923 0.0
C143 C 0.34578 0.74323 0.01124 0.0
C144 C 0.37558 0.70163 -0.00526 0.0
C145 C 0.37386 0.65115 0.01329 0.0
C146 C 0.34589 0.64271 0.04783 0.0
C147 C 0.31816 0.68375 0.06439 0.0
C148 C 0.31759 0.73335 0.04632 0.0
H149 H 0.50996 0.66608 0.99142 0.0
C150 C 0.49016 0.65126 0.96089 0.0
H151 H 0.41914 0.65335 0.91127 0.0
H152 H 0.35184 0.88561 0.94981 0.0
H153 H 0.40109 0.89969 0.89001 0.0
H154 H 0.4531 0.82798 0.86148 0.0
H155 H 0.45634 0.74191 0.89268 0.0
C156 C 0.43685 0.66803 0.94205 0.0
C157 C 0.40499 0.71079 0.95988 0.0
C158 C 0.4027 0.76082 0.94093 0.0
C159 C 0.37227 0.80209 0.95721 0.0
C160 C 0.37282 0.85229 0.93834 0.0
C161 C 0.40135 0.86112 0.90405 0.0
C162 C 0.43064 0.82077 0.88801 0.0
C163 C 0.4318 0.77133 0.90618 0.0
H164 H 0.87689 0.88229 0.02146 0.0
C165 C 0.92735 0.87701 0.02102 0.0
H166 H 0.99386 0.82108 0.0271 0.0
H167 H 0.81049 0.68152 0.13507 0.0
H168 H 0.91159 0.70887 0.1809 0.0
H169 H 1.0053 0.76991 0.1607 0.0
H170 H 0.99869 0.80349 0.0944 0.0
C171 C 0.94348 0.82719 0.02612 0.0
C172 C 0.893 0.78157 0.03524 0.0
C173 C 0.89803 0.76193 0.07392 0.0
C174 C 0.84359 0.7276 0.08576 0.0
C175 C 0.84988 0.70855 0.12468 0.0
C176 C 0.90773 0.72377 0.15127 0.0
C177 C 0.96051 0.7581 0.1399 0.0
C178 C 0.956 0.77713 0.10174 0.0
H179 H 0.71272 0.61391 0.03322 0.0
C180 C 0.69588 0.63328 0.05816 0.0
H181 H 0.70897 0.70094 0.09916 0.0
H182 H 0.87369 0.80142 0.95638 0.0
H183 H 0.77233 0.77556 0.91021 0.0
H184 H 0.67399 0.72361 0.93225 0.0
H185 H 0.67664 0.69638 -0.00012 0.0
C186 C 0.72554 0.68312 0.07352 0.0
C187 C 0.7841 0.7135 0.05898 0.0
C188 C 0.78023 0.73094 0.0195 0.0
C189 C 0.83563 0.76352 0.00734 0.0
C190 C 0.83198 0.77846 0.9674 0.0
C191 C 0.77432 0.76365 0.94061 0.0
C192 C 0.71907 0.73422 0.95297 0.0
C193 C 0.72154 0.71828 0.99194 0.0
H194 H 0.86508 0.20688 0.95759 0.0
C195 C 0.85291 0.18966 0.98508 0.0
H196 H 0.80742 0.19947 0.03581 0.0
H197 H 0.82726 0.4417 0.95161 0.0
H198 H 0.94507 0.44831 0.96668 0.0
H199 H 0.99358 0.37225 -0.00334 0.0
H200 H 0.92456 0.28872 0.01102 0.0
C201 C 0.81869 0.21586 0.00796 0.0
C202 C 0.79054 0.2649 -0.00507 0.0
C203 C 0.83171 0.31438 0.98841 0.0
C204 C 0.80371 0.35913 0.97264 0.0
C205 C 0.84584 0.40696 0.96443 0.0
C206 C 0.9136 0.41129 0.9729 0.0
C207 C 0.94091 0.36841 0.98968 0.0
C208 C 0.90071 0.32048 -0.00252 0.0
H209 H 0.7191 0.45545 0.99184 0.0
C210 C 0.70068 0.44653 0.96034 0.0
H211 H 0.68135 0.38577 0.91268 0.0
H212 H 0.69733 0.17784 0.00747 0.0
H213 H 0.57984 0.1743 -0.00289 0.0
H214 H 0.53178 0.25354 0.97248 0.0
H215 H 0.60118 0.33677 0.9578 0.0
C216 C 0.70481 0.39761 0.94304 0.0
C217 C 0.73474 0.35498 0.96491 0.0
C218 C 0.69375 0.3071 0.9741 0.0
C219 C 0.72158 0.26187 0.98897 0.0
C220 C 0.67913 0.21389 -0.00327 0.0
C221 C 0.61145 0.2112 0.99082 0.0
C222 C 0.58438 0.25576 0.97688 0.0
C223 C 0.62477 0.3032 0.96846 0.0
H224 H 0.58319 0.68855 0.50441 0.0
C225 C 0.59787 0.64863 0.50119 0.0
H226 H 0.67723 0.60658 0.49824 0.0
H227 H 0.87842 0.80806 0.45661 0.0
H228 H 0.8583 0.75118 0.39485 0.0
H229 H 0.77119 0.66942 0.38416 0.0
H230 H 0.7039 0.64365 0.43523 0.0
C231 C 0.66178 0.64603 0.50224 0.0
C232 C 0.71324 0.69659 0.50842 0.0
C233 C 0.75173 0.71155 0.47811 0.0
C234 C 0.80158 0.75917 0.48405 0.0
C235 C 0.83975 0.77256 0.4535 0.0
C236 C 0.8287 0.74029 0.41793 0.0
C237 C 0.77967 0.69422 0.41192 0.0
C238 C 0.74146 0.67984 0.44152 0.0
H239 H 0.92014 0.80225 0.5724 0.0
C240 C 0.91904 0.83924 0.55611 0.0
H241 H 0.86353 0.87652 0.5113 0.0
H242 H 0.65537 0.67631 0.57525 0.0
H243 H 0.67175 0.73564 0.63532 0.0
H244 H 0.7502 0.82282 0.64278 0.0
H245 H 0.81362 0.85057 0.59045 0.0
C246 C 0.86781 0.83997 0.52755 0.0
C247 C 0.8128 0.79204 0.52019 0.0
C248 C 0.77297 0.77803 0.55008 0.0
C249 C 0.72481 0.72938 0.54477 0.0
C250 C 0.68995 0.71422 0.5766 0.0
C251 C 0.69934 0.74766 0.61152 0.0
C252 C 0.74368 0.79661 0.61578 0.0
C253 C 0.78017 0.81183 0.58556 0.0
H254 H 0.73252 0.4045 0.49382 0.0
C255 C 0.68881 0.37407 0.48419 0.0
H256 H 0.65059 0.29121 0.46563 0.0
H257 H 0.87738 0.24866 0.37486 0.0
H258 H 0.81084 0.28449 0.3212 0.0
H259 H 0.71942 0.33051 0.3343 0.0
H260 H 0.69406 0.34093 0.40126 0.0
C261 C 0.69422 0.32187 0.4745 0.0
C262 C 0.75719 0.30489 0.46874 0.0
C263 C 0.77241 0.30022 0.42959 0.0
C264 C 0.82553 0.2742 0.42214 0.0
C265 C 0.83824 0.2687 0.38247 0.0
C266 C 0.80027 0.28896 0.35128 0.0
C267 C 0.74876 0.3148 0.35864 0.0
C268 C 0.73466 0.32037 0.39723 0.0
H269 H 0.87265 0.14627 0.46397 0.0
C270 C 0.91218 0.16846 0.45026 0.0
H271 H 0.95507 0.24338 0.43061 0.0
H272 H 0.7436 0.31094 0.5473 0.0
H273 H 0.8135 0.2794 0.60192 0.0
H274 H 0.90832 0.23735 0.58954 0.0
H275 H 0.93343 0.22585 0.52252 0.0
C276 C 0.91591 0.22234 0.44513 0.0
C277 C 0.86346 0.25294 0.45393 0.0
C278 C 0.85077 0.26079 0.49348 0.0
C279 C 0.79705 0.2863 0.5008 0.0
C280 C 0.78409 0.29214 0.54028 0.0
C281 C 0.82387 0.27437 0.57184 0.0
C282 C 0.87722 0.25061 0.56486 0.0
C283 C 0.89085 0.24391 0.52622 0.0
H284 H 0.26735 0.39129 0.50814 0.0
C285 C 0.31536 0.38497 0.5023 0.0
H286 H 0.3782 0.32733 0.49711 0.0
H287 H 0.24294 0.15678 0.60551 0.0
H288 H 0.34604 0.19203 0.64741 0.0
H289 H 0.42149 0.27079 0.62829 0.0
H290 H 0.39438 0.31464 0.56712 0.0
C291 C 0.32954 0.33378 0.50146 0.0
C292 C 0.2835 0.28584 0.51226 0.0
C293 C 0.29969 0.26093 0.54836 0.0
C294 C 0.25544 0.21628 0.55977 0.0
C295 C 0.27373 0.19171 0.59575 0.0
C296 C 0.33303 0.21133 0.62004 0.0
C297 C 0.37554 0.2556 0.60926 0.0
C298 C 0.35936 0.28029 0.57394 0.0
H299 H 0.13827 0.09171 0.50599 0.0
C300 C 0.12519 0.10374 0.53447 0.0
H301 H 0.13307 0.16454 0.58004 0.0
H302 H 0.24225 0.31875 0.43857 0.0
H303 H 0.13892 0.28427 0.39647 0.0
H304 H 0.05897 0.2114 0.4179 0.0
H305 H 0.0817 0.17141 0.48164 0.0
C306 C 0.14567 0.15501 0.55093 0.0
C307 C 0.19435 0.19693 0.53541 0.0
C308 C 0.17895 0.22097 0.49871 0.0
C309 C 0.22417 0.2648 0.48686 0.0
C310 C 0.20885 0.28663 0.44948 0.0
C311 C 0.14987 0.26709 0.42497 0.0
C312 C 0.10482 0.22582 0.43708 0.0
C313 C 0.11871 0.20305 0.47357 0.0
H314 H 0.30586 0.73438 0.48101 0.0
C315 C 0.27739 0.70615 0.49833 0.0
H316 H 0.19013 0.68909 0.52353 0.0
H317 H 0.14634 0.93552 0.53554 0.0
H318 H 0.16057 0.9139 0.60497 0.0
H319 H 0.19073 0.82534 0.62451 0.0
H320 H 0.20738 0.75806 0.57493 0.0
C321 C 0.2195 0.71686 0.50652 0.0
C322 C 0.19499 0.7679 0.49423 0.0
C323 C 0.18456 0.80641 0.52368 0.0
C324 C 0.16654 0.85735 0.51245 0.0
C325 C 0.1587 0.89586 0.54246 0.0
C326 C 0.16698 0.88405 0.5824 0.0
C327 C 0.18408 0.83421 0.59341 0.0
C328 C 0.19332 0.79586 0.56458 0.0
H329 H 0.04722 0.91158 0.4674 0.0
C330 C 0.08661 0.9385 0.45667 0.0
H331 H 0.18682 0.95109 0.45005 0.0
H332 H 0.19608 0.6983 0.4296 0.0
H333 H 0.17799 0.71899 0.36022 0.0
H334 H 0.15113 0.8088 0.34104 0.0
H335 H 0.14143 0.87811 0.39115 0.0
C336 C 0.14638 0.92435 0.45987 0.0
C337 C 0.1583 0.86931 0.47184 0.0
C338 C 0.16527 0.82971 0.44225 0.0
C339 C 0.18256 0.77856 0.45337 0.0
C340 C 0.18593 0.73875 0.423 0.0
C341 C 0.17497 0.74987 0.38299 0.0
C342 C 0.15973 0.80038 0.37218 0.0
C343 C 0.15458 0.83989 0.40129 0.0
H344 H 0.04041 0.07004 0.13855 0.0
C345 C 0.07563 0.04754 0.12781 0.0
H346 H 0.15665 1.00791 0.1444 0.0
H347 H 0.12999 0.17124 0.30116 0.0
H348 H 0.17861 0.2454 0.26397 0.0
H349 H 0.2021 0.22691 0.19612 0.0
H350 H 0.17703 0.13416 0.16498 0.0
C351 C 0.12204 0.0319 0.15407 0.0
C352 C 0.12091 0.0418 0.19727 0.0
C353 C 0.13674 0.096 0.21518 0.0
C354 C 0.12376 0.10659 0.25437 0.0
C355 C 0.13904 0.16111 0.27143 0.0
C356 C 0.16696 0.20394 0.25044 0.0
C357 C 0.18014 0.19354 0.21221 0.0
C358 C 0.16527 0.14026 0.19462 0.0
H359 H 0.1627 0.05489 0.34598 0.0
C360 C 0.11471 0.06503 0.34834 0.0
H361 H 0.0263 0.07974 0.31571 0.0
H362 H 0.09254 0.93251 0.17311 0.0
H363 H 0.04777 0.85797 0.21103 0.0
H364 H 0.02405 0.87623 0.27881 0.0
H365 H 0.04467 0.96897 0.309 0.0
C366 C 0.07642 0.07398 0.31499 0.0
C367 C 0.09553 0.0629 0.27551 0.0
C368 C 0.08324 1.0082 0.25844 0.0
C369 C 0.09658 0.99762 0.21935 0.0
C370 C 0.08319 0.9428 0.20272 0.0
C371 C 0.05755 0.89962 0.22416 0.0
C372 C 0.04421 0.9099 0.26232 0.0
C373 C 0.05652 0.96343 0.27935 0.0
H374 H 0.98218 1.00156 0.87441 0.0
C375 C 0.02405 0.98823 0.89156 0.0
H376 H 0.10774 0.95134 0.88923 0.0
H377 H 0.99974 0.83275 0.71881 0.0
H378 H 1.00095 0.75508 0.76026 0.0
H379 H 0.0265 0.76916 0.83337 0.0
H380 H 0.05152 0.861 0.86547 0.0
C381 C 0.06631 0.96588 0.87259 0.0
C382 C 0.05537 0.95781 0.82847 0.0
C383 C 0.04078 0.90384 0.81027 0.0
C384 C 0.02507 0.89573 0.76819 0.0
C385 C 1.01117 0.84134 0.7507 0.0
C386 C 1.01182 0.79634 0.77413 0.0
C387 C 0.02626 0.80427 0.81529 0.0
C388 C 0.04057 0.85726 0.83332 0.0
H389 H 0.09526 0.97231 0.68746 0.0
C390 C 0.0472 0.9491 0.67553 0.0
H391 H 0.95605 0.91029 0.68943 0.0
H392 H 0.0928 0.06669 0.85338 0.0
H393 H 0.08752 0.14449 0.8124 0.0
H394 H 0.04923 0.13048 0.74015 0.0
H395 H 0.01777 0.0388 0.70838 0.0
C396 C 1.0049 0.93235 0.70064 0.0
C397 C 0.02351 0.9416 0.74447 0.0
C398 C 0.0384 0.9957 0.76271 0.0
C399 C 0.05652 1.00378 0.80466 0.0
C400 C 0.07552 0.05817 0.82189 0.0
C401 C 0.0732 0.10323 0.79868 0.0
C402 C 0.05195 0.09534 0.75799 0.0
C403 C 0.03456 0.04235 0.74007 0.0
H404 H 0.47761 0.53922 0.63298 0.0
C405 C 0.50359 0.5143 0.61595 0.0
H406 H 0.57524 0.4626 0.61961 0.0
H407 H 0.64871 0.61485 0.78925 0.0
H408 H 0.71067 0.67756 0.74966 0.0
H409 H 0.7062 0.65681 0.67768 0.0
H410 H 0.63901 0.57346 0.64477 0.0
C411 C 0.54853 0.48826 0.63537 0.0
C412 C 0.5616 0.49487 0.67946 0.0
C413 C 0.60251 0.54285 0.69841 0.0
C414 C 0.60626 0.5541 0.74003 0.0
C415 C 0.64531 0.60355 0.7579 0.0
C416 C 0.68087 0.64006 0.73547 0.0
C417 C 0.6782 0.62848 0.69492 0.0
C418 C 0.63939 0.58058 0.6764 0.0
H419 H 0.66823 0.51016 0.81904 0.0
C420 C 0.62695 0.522 0.83129 0.0
H421 H 0.52922 0.53485 0.81736 0.0
H422 H 0.48267 0.39747 0.65235 0.0
H423 H 0.42264 0.3332 0.69203 0.0
H424 H 0.4302 0.3518 0.76447 0.0
H425 H 0.49725 0.43488 0.7977 0.0
C426 C 0.57344 0.52793 0.80617 0.0
C427 C 0.57009 0.51663 0.76265 0.0
C428 C 0.53099 0.46764 0.74385 0.0
C429 C 0.52691 0.4567 0.70217 0.0
C430 C 0.48722 0.40774 0.68396 0.0
C431 C 0.45273 0.37047 0.70638 0.0
C432 C 0.45696 0.38096 0.74717 0.0
C433 C 0.49558 0.42887 0.76586 0.0
H434 H 0.36717 0.54182 0.3677 0.0
C435 C 0.41099 0.52683 0.38053 0.0
H436 H 0.49718 0.49869 0.37002 0.0
H437 H 0.41929 0.41118 0.19363 0.0
H438 H 0.42026 0.32648 0.22727 0.0
H439 H 0.42731 0.32626 0.30017 0.0
H440 H 0.43553 0.41099 0.34018 0.0
C441 C 0.45351 0.51392 0.35714 0.0
C442 C 0.44085 0.5145 0.3131 0.0
C443 C 0.43364 0.46431 0.29004 0.0
C444 C 0.42783 0.46427 0.24793 0.0
C445 C 0.423 0.41367 0.22572 0.0
C446 C 0.42328 0.36464 0.24459 0.0
C447 C 0.42758 0.36454 0.28569 0.0
C448 C 0.43255 0.41358 0.30829 0.0
H449 H 0.52519 0.5535 0.18969 0.0
C450 C 0.4826 0.53158 0.16995 0.0
H451 H 0.38367 0.49267 0.16649 0.0
H452 H 0.45814 0.61875 0.34842 0.0
H453 H 0.45531 0.70315 0.31474 0.0
H454 H 0.43812 0.70209 0.2414 0.0
H455 H 0.42473 0.61641 0.20133 0.0
C456 C 0.42755 0.51398 0.18521 0.0
C457 C 0.42858 0.51442 0.22895 0.0
C458 C 0.43354 0.5644 0.25183 0.0
C459 C 0.4409 0.56467 0.29407 0.0
C460 C 0.44986 0.61568 0.31627 0.0
C461 C 0.44879 0.66458 0.29728 0.0
C462 C 0.4393 0.66401 0.25599 0.0
C463 C 0.43189 0.61463 0.23337 0.0
loop_
_geom_bond_atom_site_label_1
_geom_bond_atom_site_label_2
_geom_bond_distance
_geom_bond_site_symmetry_2
_ccdc_geom_bond_type
Co0 N5 2.057 . S
Co0 O17 2.021 . S
Co0 O20 2.062 1_455 S
Co0 O24 2.117 1_554 S
Co0 O25 2.020 1_565 S
C1 O21 1.259 1_455 S
C1 O24 1.258 1_545 S
Co2 N11 2.057 . S
Co2 O18 2.117 . S
Co2 O19 2.020 1_545 S
Co2 O21 2.021 1_554 S
Co2 O26 2.062 1_655 S
C3 N5 1.316 . S
C3 N6 1.347 . S
C3 H8 0.931 . S
C4 N5 1.375 1_556 S
C4 C7 1.350 . S
C4 H9 0.930 . S
N5 Co0 2.057 . S
N5 C3 1.316 . S
N5 C4 1.375 1_554 S
N6 C3 1.347 . S
N6 C7 1.373 1_554 S
C7 C4 1.350 . S
C7 N6 1.373 1_556 S
C7 H28 0.931 . S
H8 C3 0.931 . S
H9 C4 0.930 . S
C10 O17 1.259 1_545 S
C10 O18 1.258 1_455 S
N11 Co2 2.057 . S
N11 C12 1.316 1_554 S
N11 C13 1.375 . S
C12 N11 1.316 1_556 S
C12 N14 1.347 1_556 S
C12 H23 0.931 . S
C13 N11 1.375 . S
C13 C15 1.350 . S
C13 H22 0.930 . S
N14 C12 1.347 1_554 S
N14 C15 1.373 . S
C15 C13 1.350 . S
C15 N14 1.373 . S
C15 H29 0.931 . S
C16 O19 1.256 . S
C16 O20 1.255 . S
O17 Co0 2.021 . S
O17 C10 1.259 1_565 S
O18 Co2 2.117 . S
O18 C10 1.258 1_655 S
O19 Co2 2.020 1_565 S
O19 C16 1.256 . S
O20 Co0 2.062 1_655 S
O20 C16 1.255 . S
O21 C1 1.259 1_655 S
O21 Co2 2.021 1_556 S
H22 C13 0.930 . S
H23 C12 0.931 . S
O24 Co0 2.117 1_556 S
O24 C1 1.258 1_565 S
O25 Co0 2.020 1_545 S
O25 C27 1.256 . S
O26 Co2 2.062 1_455 S
O26 C27 1.255 . S
C27 O25 1.256 . S
C27 O26 1.255 . S
H28 C7 0.931 . S
H29 C15 0.931 . S
Co30 N35 2.057 . S
Co30 O47 2.021 . S
Co30 O50 2.062 . S
Co30 O54 2.117 . S
Co30 O55 2.020 . S
C31 O51 1.259 . S
C31 O54 1.258 . S
Co32 N41 2.057 . S
Co32 O48 2.117 . S
Co32 O49 2.020 . S
Co32 O51 2.021 . S
Co32 O56 2.062 . S
C33 N35 1.316 . S
C33 N36 1.347 . S
C33 H38 0.931 . S
C34 N35 1.375 . S
C34 C37 1.350 . S
C34 H39 0.930 . S
N35 Co30 2.057 . S
N35 C33 1.316 . S
N35 C34 1.375 . S
N36 C33 1.347 . S
N36 C37 1.373 . S
C37 C34 1.350 . S
C37 N36 1.373 . S
C37 H58 0.931 . S
H38 C33 0.931 . S
H39 C34 0.930 . S
C40 O47 1.259 . S
C40 O48 1.258 . S
N41 Co32 2.057 . S
N41 C42 1.316 . S
N41 C43 1.375 . S
C42 N41 1.316 . S
C42 N44 1.347 . S
C42 H53 0.931 . S
C43 N41 1.375 . S
C43 C45 1.350 . S
C43 H52 0.930 . S
N44 C42 1.347 . S
N44 C45 1.373 . S
C45 C43 1.350 . S
C45 N44 1.373 . S
C45 H59 0.931 . S
C46 O49 1.256 . S
C46 O50 1.255 . S
O47 Co30 2.021 . S
O47 C40 1.259 . S
O48 Co32 2.117 . S
O48 C40 1.258 . S
O49 Co32 2.020 . S
O49 C46 1.256 . S
O50 Co30 2.062 . S
O50 C46 1.255 . S
O51 C31 1.259 . S
O51 Co32 2.021 . S
H52 C43 0.930 . S
H53 C42 0.931 . S
O54 Co30 2.117 . S
O54 C31 1.258 . S
O55 Co30 2.020 . S
O55 C57 1.256 . S
O56 Co32 2.062 . S
O56 C57 1.255 . S
C57 O55 1.256 . S
C57 O56 1.255 . S
H58 C37 0.931 . S
H59 C45 0.931 . S
H60 C65 0.929 . S
H61 C70 0.931 . S
H62 C68 0.930 1_655 S
N63 N64 1.234 . S
N63 C67 1.453 1_655 S
N64 N63 1.234 . S
C65 H60 0.929 . S
C65 C66 1.373 . S
C65 C67 1.368 1_565 S
C66 C65 1.373 . S
C66 C70 1.397 . S
C67 N63 1.453 1_455 S
C67 C65 1.368 1_545 S
C67 C68 1.373 . S
C68 H62 0.930 1_455 S
C68 C67 1.373 . S
C68 C69 1.371 1_545 S
C69 C68 1.371 1_565 S
C69 C70 1.383 . S
C70 H61 0.931 . S
C70 C66 1.397 . S
C70 C69 1.383 . S
H71 C76 0.929 . S
H72 C81 0.931 . S
H73 C79 0.930 . S
N74 N75 1.234 . S
N74 C78 1.453 . S
N75 N74 1.234 . S
C76 H71 0.929 . S
C76 C77 1.373 . S
C76 C78 1.368 1_665 S
C77 C76 1.373 . S
C77 C81 1.397 . S
C78 N74 1.453 . S
C78 C76 1.368 1_445 S
C78 C79 1.373 . S
C79 H73 0.930 . S
C79 C78 1.373 . S
C79 C80 1.371 1_455 S
C80 C79 1.371 1_655 S
C80 C81 1.383 1_545 S
C81 H72 0.931 . S
C81 C77 1.397 . S
C81 C80 1.383 1_565 S
H82 C87 0.929 1_554 S
H83 C92 0.931 . S
H84 C90 0.930 . S
N85 N86 1.234 . S
N85 C89 1.453 . S
N86 N85 1.234 . S
C87 H82 0.929 1_556 S
C87 C88 1.373 . S
C87 C89 1.368 . S
C88 C87 1.373 . S
C88 C92 1.397 . S
C89 N85 1.453 . S
C89 C87 1.368 . S
C89 C90 1.373 . S
C90 H84 0.930 . S
C90 C89 1.373 . S
C90 C91 1.371 . S
C91 C90 1.371 . S
C91 C92 1.383 . S
C92 H83 0.931 . S
C92 C88 1.397 . S
C92 C91 1.383 . S
H93 C98 0.929 . S
H94 C103 0.931 . S
H95 C101 0.930 . S
N96 N97 1.234 . S
N96 C100 1.453 . S
N97 N96 1.234 . S
C98 H93 0.929 . S
C98 C99 1.373 . S
C98 C100 1.368 . S
C99 C98 1.373 . S
C99 C103 1.397 . S
C100 N96 1.453 . S
C100 C98 1.368 . S
C100 C101 1.373 . S
C101 H95 0.930 . S
C101 C100 1.373 . S
C101 C102 1.371 . S
C102 C101 1.371 . S
C102 C103 1.383 . S
C103 H94 0.931 . S
C103 C99 1.397 . S
C103 C102 1.383 . S
H104 C105 0.951 . S
C105 H104 0.951 . S
C105 C111 1.265 . S
H106 C111 0.950 . S
H107 C115 0.949 . S
H108 C116 0.950 . S
H109 C117 0.951 . S
H110 C118 0.951 . S
C111 C105 1.265 . S
C111 H106 0.950 . S
C111 C112 1.478 . S
C112 C111 1.478 . S
C112 C113 1.397 1_554 S
C112 C129 1.394 . S
C113 C112 1.397 1_556 S
C113 C114 1.438 1_556 S
C113 C118 1.429 . S
C114 C113 1.438 1_554 S
C114 C115 1.416 1_554 S
C114 C127 1.406 . S
C115 H107 0.949 . S
C115 C114 1.416 1_556 S
C115 C116 1.345 . S
C116 H108 0.950 . S
C116 C115 1.345 . S
C116 C117 1.424 . S
C117 H109 0.951 . S
C117 C116 1.424 . S
C117 C118 1.347 . S
C118 H110 0.951 . S
C118 C113 1.429 . S
C118 C117 1.347 . S
H119 C120 0.951 . S
C120 H119 0.951 . S
C120 C126 1.265 . S
H121 C126 0.950 . S
H122 C130 0.949 . S
H123 C131 0.950 . S
H124 C132 0.951 . S
H125 C133 0.951 . S
C126 C120 1.265 . S
C126 H121 0.950 . S
C126 C127 1.478 . S
C127 C114 1.406 . S
C127 C126 1.478 . S
C127 C128 1.397 . S
C128 C127 1.397 . S
C128 C129 1.438 . S
C128 C133 1.429 . S
C129 C112 1.394 . S
C129 C128 1.438 . S
C129 C130 1.428 . S
C130 H122 0.949 . S
C130 C129 1.428 . S
C130 C131 1.345 . S
C131 H123 0.950 . S
C131 C130 1.345 . S
C131 C132 1.424 . S
C132 H124 0.951 . S
C132 C131 1.424 . S
C132 C133 1.347 . S
C133 H125 0.951 . S
C133 C128 1.429 . S
C133 C132 1.347 . S
H134 C135 0.951 . S
C135 H134 0.951 . S
C135 C141 1.265 . S
H136 C141 0.950 . S
H137 C145 0.949 . S
H138 C146 0.950 . S
H139 C147 0.951 . S
H140 C148 0.951 . S
C141 C135 1.265 . S
C141 H136 0.950 . S
C141 C142 1.478 . S
C142 C141 1.478 . S
C142 C143 1.397 . S
C142 C159 1.394 1_554 S
C143 C142 1.397 . S
C143 C144 1.438 . S
C143 C148 1.429 . S
C144 C143 1.438 . S
C144 C145 1.428 . S
C144 C157 1.394 1_554 S
C145 H137 0.949 . S
C145 C144 1.428 . S
C145 C146 1.345 . S
C146 H138 0.950 . S
C146 C145 1.345 . S
C146 C147 1.424 . S
C147 H139 0.951 . S
C147 C146 1.424 . S
C147 C148 1.347 . S
C148 H140 0.951 . S
C148 C143 1.429 . S
C148 C147 1.347 . S
H149 C150 0.951 1_554 S
C150 H149 0.951 1_556 S
C150 C156 1.265 . S
H151 C156 0.950 . S
H152 C160 0.949 . S
H153 C161 0.950 . S
H154 C162 0.951 . S
H155 C163 0.951 . S
C156 C150 1.265 . S
C156 H151 0.950 . S
C156 C157 1.478 . S
C157 C144 1.394 1_556 S
C157 C156 1.478 . S
C157 C158 1.397 . S
C158 C157 1.397 . S
C158 C159 1.438 . S
C158 C163 1.429 . S
C159 C142 1.394 1_556 S
C159 C158 1.438 . S
C159 C160 1.428 . S
C160 H152 0.949 . S
C160 C159 1.428 . S
C160 C161 1.345 . S
C161 H153 0.950 . S
C161 C160 1.345 . S
C161 C162 1.424 . S
C162 H154 0.951 . S
C162 C161 1.424 . S
C162 C163 1.347 . S
C163 H155 0.951 . S
C163 C158 1.429 . S
C163 C162 1.347 . S
H164 C165 0.953 . S
C165 H164 0.953 . S
C165 C171 1.265 . S
H166 C171 0.950 . S
H167 C175 0.949 . S
H168 C176 0.950 . S
H169 C177 0.951 . S
H170 C178 0.951 . S
C171 C165 1.265 . S
C171 H166 0.950 . S
C171 C172 1.478 . S
C172 C171 1.478 . S
C172 C173 1.397 . S
C172 C189 1.394 1_554 S
C173 C172 1.397 . S
C173 C174 1.438 . S
C173 C178 1.429 . S
C174 C173 1.438 . S
C174 C175 1.428 . S
C174 C187 1.394 . S
C175 H167 0.949 . S
C175 C174 1.428 . S
C175 C176 1.345 . S
C176 H168 0.950 . S
C176 C175 1.345 . S
C176 C177 1.424 . S
C177 H169 0.951 . S
C177 C176 1.424 . S
C177 C178 1.347 . S
C178 H170 0.951 . S
C178 C173 1.429 . S
C178 C177 1.347 . S
H179 C180 0.951 . S
C180 H179 0.951 . S
C180 C186 1.265 . S
H181 C186 0.950 . S
H182 C190 0.949 . S
H183 C191 0.950 . S
H184 C192 0.951 . S
H185 C193 0.951 . S
C186 C180 1.265 . S
C186 H181 0.950 . S
C186 C187 1.478 . S
C187 C174 1.394 . S
C187 C186 1.478 . S
C187 C188 1.397 1_554 S
C188 C187 1.397 1_556 S
C188 C189 1.438 . S
C188 C193 1.429 . S
C189 C172 1.394 1_556 S
C189 C188 1.438 . S
C189 C190 1.428 . S
C190 H182 0.949 . S
C190 C189 1.428 . S
C190 C191 1.345 . S
C191 H183 0.950 . S
C191 C190 1.345 . S
C191 C192 1.424 . S
C192 H184 0.951 . S
C192 C191 1.424 . S
C192 C193 1.347 . S
C193 H185 0.951 . S
C193 C188 1.429 . S
C193 C192 1.347 . S
H194 C195 0.951 . S
C195 H194 0.951 . S
C195 C201 1.265 . S
H196 C201 0.950 . S
H197 C205 0.949 . S
H198 C206 0.950 . S
H199 C207 0.951 . S
H200 C208 0.951 . S
C201 C195 1.265 . S
C201 H196 0.950 . S
C201 C202 1.478 . S
C202 C201 1.478 . S
C202 C203 1.397 . S
C202 C219 1.394 1_556 S
C203 C202 1.397 . S
C203 C204 1.438 . S
C203 C208 1.429 . S
C204 C203 1.438 . S
C204 C205 1.428 . S
C204 C217 1.394 . S
C205 H197 0.949 . S
C205 C204 1.428 . S
C205 C206 1.345 . S
C206 H198 0.950 . S
C206 C205 1.345 . S
C206 C207 1.424 . S
C207 H199 0.951 . S
C207 C206 1.424 . S
C207 C208 1.347 . S
C208 H200 0.951 . S
C208 C203 1.429 . S
C208 C207 1.347 . S
H209 C210 0.951 . S
C210 H209 0.951 . S
C210 C216 1.265 . S
H211 C216 0.950 . S
H212 C220 0.949 . S
H213 C221 0.950 . S
H214 C222 0.951 . S
H215 C223 0.951 . S
C216 C210 1.265 . S
C216 H211 0.950 . S
C216 C217 1.478 . S
C217 C204 1.394 . S
C217 C216 1.478 . S
C217 C218 1.397 1_556 S
C218 C217 1.397 1_554 S
C218 C219 1.438 . S
C218 C223 1.429 . S
C219 C202 1.394 1_554 S
C219 C218 1.438 . S
C219 C220 1.428 . S
C220 H212 0.949 . S
C220 C219 1.428 . S
C220 C221 1.345 . S
C221 H213 0.950 . S
C221 C220 1.345 . S
C221 C222 1.424 . S
C222 H214 0.951 . S
C222 C221 1.424 . S
C222 C223 1.347 . S
C223 H215 0.951 . S
C223 C218 1.429 . S
C223 C222 1.347 . S
H224 C225 0.951 . S
C225 H224 0.951 . S
C225 C231 1.265 . S
H226 C231 0.950 . S
H227 C235 0.949 . S
H228 C236 0.950 . S
H229 C237 0.951 . S
H230 C238 0.951 . S
C231 C225 1.265 . S
C231 H226 0.950 . S
C231 C232 1.478 . S
C232 C231 1.478 . S
C232 C233 1.397 . S
C232 C249 1.394 . S
C233 C232 1.397 . S
C233 C234 1.438 . S
C233 C238 1.429 . S
C234 C233 1.438 . S
C234 C235 1.428 . S
C234 C247 1.394 . S
C235 H227 0.949 . S
C235 C234 1.428 . S
C235 C236 1.345 . S
C236 H228 0.950 . S
C236 C235 1.345 . S
C236 C237 1.424 . S
C237 H229 0.951 . S
C237 C236 1.424 . S
C237 C238 1.347 . S
C238 H230 0.951 . S
C238 C233 1.429 . S
C238 C237 1.347 . S
H239 C240 0.951 . S
C240 H239 0.951 . S
C240 C246 1.265 . S
H241 C246 0.950 . S
H242 C250 0.949 . S
H243 C251 0.950 . S
H244 C252 0.951 . S
H245 C253 0.951 . S
C246 C240 1.265 . S
C246 H241 0.950 . S
C246 C247 1.478 . S
C247 C234 1.394 . S
C247 C246 1.478 . S
C247 C248 1.397 . S
C248 C247 1.397 . S
C248 C249 1.438 . S
C248 C253 1.429 . S
C249 C232 1.394 . S
C249 C248 1.438 . S
C249 C250 1.428 . S
C250 H242 0.949 . S
C250 C249 1.428 . S
C250 C251 1.345 . S
C251 H243 0.950 . S
C251 C250 1.345 . S
C251 C252 1.424 . S
C252 H244 0.951 . S
C252 C251 1.424 . S
C252 C253 1.347 . S
C253 H245 0.951 . S
C253 C248 1.429 . S
C253 C252 1.347 . S
H254 C255 0.951 . S
C255 H254 0.951 . S
C255 C261 1.265 . S
H256 C261 0.950 . S
H257 C265 0.949 . S
H258 C266 0.950 . S
H259 C267 0.951 . S
H260 C268 0.951 . S
C261 C255 1.265 . S
C261 H256 0.950 . S
C261 C262 1.478 . S
C262 C261 1.478 . S
C262 C263 1.397 . S
C262 C279 1.394 . S
C263 C262 1.397 . S
C263 C264 1.438 . S
C263 C268 1.429 . S
C264 C263 1.438 . S
C264 C265 1.428 . S
C264 C277 1.394 . S
C265 H257 0.949 . S
C265 C264 1.428 . S
C265 C266 1.345 . S
C266 H258 0.950 . S
C266 C265 1.345 . S
C266 C267 1.424 . S
C267 H259 0.951 . S
C267 C266 1.424 . S
C267 C268 1.347 . S
C268 H260 0.951 . S
C268 C263 1.429 . S
C268 C267 1.347 . S
H269 C270 0.951 . S
C270 H269 0.951 . S
C270 C276 1.265 . S
H271 C276 0.950 . S
H272 C280 0.949 . S
H273 C281 0.950 . S
H274 C282 0.951 . S
H275 C283 0.951 . S
C276 C270 1.265 . S
C276 H271 0.950 . S
C276 C277 1.478 . S
C277 C264 1.394 . S
C277 C276 1.478 . S
C277 C278 1.397 . S
C278 C277 1.397 . S
C278 C279 1.438 . S
C278 C283 1.429 . S
C279 C262 1.394 . S
C279 C278 1.438 . S
C279 C280 1.428 . S
C280 H272 0.949 . S
C280 C279 1.428 . S
C280 C281 1.345 . S
C281 H273 0.950 . S
C281 C280 1.345 . S
C281 C282 1.424 . S
C282 H274 0.951 . S
C282 C281 1.424 . S
C282 C283 1.347 . S
C283 H275 0.951 . S
C283 C278 1.429 . S
C283 C282 1.347 . S
H284 C285 0.951 . S
C285 H284 0.951 . S
C285 C291 1.265 . S
H286 C291 0.950 . S
H287 C295 0.949 . S
H288 C296 0.950 . S
H289 C297 0.951 . S
H290 C298 0.951 . S
C291 C285 1.265 . S
C291 H286 0.950 . S
C291 C292 1.478 . S
C292 C291 1.478 . S
C292 C293 1.397 . S
C292 C309 1.394 . S
C293 C292 1.397 . S
C293 C294 1.438 . S
C293 C298 1.429 . S
C294 C293 1.438 . S
C294 C295 1.428 . S
C294 C307 1.394 . S
C295 H287 0.949 . S
C295 C294 1.428 . S
C295 C296 1.345 . S
C296 H288 0.950 . S
C296 C295 1.345 . S
C296 C297 1.424 . S
C297 H289 0.951 . S
C297 C296 1.424 . S
C297 C298 1.347 . S
C298 H290 0.951 . S
C298 C293 1.429 . S
C298 C297 1.347 . S
H299 C300 0.951 . S
C300 H299 0.951 . S
C300 C306 1.265 . S
H301 C306 0.950 . S
H302 C310 0.949 . S
H303 C311 0.950 . S
H304 C312 0.951 . S
H305 C313 0.951 . S
C306 C300 1.265 . S
C306 H301 0.950 . S
C306 C307 1.478 . S
C307 C294 1.394 . S
C307 C306 1.478 . S
C307 C308 1.397 . S
C308 C307 1.397 . S
C308 C309 1.438 . S
C308 C313 1.429 . S
C309 C292 1.394 . S
C309 C308 1.438 . S
C309 C310 1.428 . S
C310 H302 0.949 . S
C310 C309 1.428 . S
C310 C311 1.345 . S
C311 H303 0.950 . S
C311 C310 1.345 . S
C311 C312 1.424 . S
C312 H304 0.951 . S
C312 C311 1.424 . S
C312 C313 1.347 . S
C313 H305 0.951 . S
C313 C308 1.429 . S
C313 C312 1.347 . S
H314 C315 0.951 . S
C315 H314 0.951 . S
C315 C321 1.265 . S
H316 C321 0.950 . S
H317 C325 0.949 . S
H318 C326 0.950 . S
H319 C327 0.951 . S
H320 C328 0.951 . S
C321 C315 1.265 . S
C321 H316 0.950 . S
C321 C322 1.478 . S
C322 C321 1.478 . S
C322 C323 1.397 . S
C322 C339 1.394 . S
C323 C322 1.397 . S
C323 C324 1.438 . S
C323 C328 1.429 . S
C324 C323 1.438 . S
C324 C325 1.428 . S
C324 C337 1.394 . S
C325 H317 0.949 . S
C325 C324 1.428 . S
C325 C326 1.345 . S
C326 H318 0.950 . S
C326 C325 1.345 . S
C326 C327 1.424 . S
C327 H319 0.951 . S
C327 C326 1.424 . S
C327 C328 1.347 . S
C328 H320 0.951 . S
C328 C323 1.429 . S
C328 C327 1.347 . S
H329 C330 0.951 . S
C330 H329 0.951 . S
C330 C336 1.265 . S
H331 C336 0.950 . S
H332 C340 0.949 . S
H333 C341 0.950 . S
H334 C342 0.951 . S
H335 C343 0.951 . S
C336 C330 1.265 . S
C336 H331 0.950 . S
C336 C337 1.478 . S
C337 C324 1.394 . S
C337 C336 1.478 . S
C337 C338 1.397 . S
C338 C337 1.397 . S
C338 C339 1.438 . S
C338 C343 1.429 . S
C339 C322 1.394 . S
C339 C338 1.438 . S
C339 C340 1.428 . S
C340 H332 0.949 . S
C340 C339 1.428 . S
C340 C341 1.345 . S
C341 H333 0.950 . S
C341 C340 1.345 . S
C341 C342 1.424 . S
C342 H334 0.951 . S
C342 C341 1.424 . S
C342 C343 1.347 . S
C343 H335 0.951 . S
C343 C338 1.429 . S
C343 C342 1.347 . S
H344 C345 0.951 1_665 S
C345 H344 0.951 1_445 S
C345 C351 1.265 . S
H346 C351 0.950 . S
H347 C355 0.949 . S
H348 C356 0.950 . S
H349 C357 0.951 . S
H350 C358 0.951 . S
C351 C345 1.265 . S
C351 H346 0.950 . S
C351 C352 1.478 . S
C352 C351 1.478 . S
C352 C353 1.397 . S
C352 C369 1.394 1_545 S
C353 C352 1.397 . S
C353 C354 1.438 . S
C353 C358 1.429 . S
C354 C353 1.438 . S
C354 C355 1.428 . S
C354 C367 1.394 1_545 S
C355 H347 0.949 . S
C355 C354 1.428 . S
C355 C356 1.345 . S
C356 H348 0.950 . S
C356 C355 1.345 . S
C356 C357 1.424 . S
C357 H349 0.951 . S
C357 C356 1.424 . S
C357 C358 1.347 . S
C358 H350 0.951 . S
C358 C353 1.429 . S
C358 C357 1.347 . S
H359 C360 0.951 1_545 S
C360 H359 0.951 1_565 S
C360 C366 1.265 . S
H361 C366 0.950 1_655 S
H362 C370 0.949 1_455 S
H363 C371 0.950 . S
H364 C372 0.951 . S
H365 C373 0.951 . S
C366 C360 1.265 . S
C366 H361 0.950 1_455 S
C366 C367 1.478 . S
C367 C354 1.394 1_565 S
C367 C366 1.478 . S
C367 C368 1.397 . S
C368 C367 1.397 . S
C368 C369 1.438 . S
C368 C373 1.429 1_455 S
C369 C352 1.394 1_565 S
C369 C368 1.438 . S
C369 C370 1.428 1_455 S
C370 H362 0.949 1_655 S
C370 C369 1.428 1_655 S
C370 C371 1.345 . S
C371 H363 0.950 . S
C371 C370 1.345 . S
C371 C372 1.424 . S
C372 H364 0.951 . S
C372 C371 1.424 . S
C372 C373 1.347 . S
C373 H365 0.951 . S
C373 C368 1.429 1_655 S
C373 C372 1.347 . S
H374 C375 0.951 . S
C375 H374 0.951 . S
C375 C381 1.265 1_655 S
H376 C381 0.954 . S
H377 C385 0.949 . S
H378 C386 0.950 . S
H379 C387 0.951 . S
H380 C388 0.951 . S
C381 C375 1.265 1_455 S
C381 H376 0.954 . S
C381 C382 1.478 . S
C382 C381 1.478 . S
C382 C383 1.397 1_545 S
C382 C399 1.394 1_455 S
C383 C382 1.397 1_565 S
C383 C384 1.438 . S
C383 C388 1.429 . S
C384 C383 1.438 . S
C384 C385 1.428 . S
C384 C397 1.394 1_465 S
C385 H377 0.949 . S
C385 C384 1.428 . S
C385 C386 1.345 . S
C386 H378 0.950 . S
C386 C385 1.345 . S
C386 C387 1.424 . S
C387 H379 0.951 . S
C387 C386 1.424 . S
C387 C388 1.347 . S
C388 H380 0.951 . S
C388 C383 1.429 . S
C388 C387 1.347 . S
H389 C390 0.951 . S
C390 H389 0.951 . S
C390 C396 1.265 1_455 S
H391 C396 0.950 . S
H392 C400 0.949 . S
H393 C401 0.950 . S
H394 C402 0.951 . S
H395 C403 0.951 . S
C396 C390 1.265 1_655 S
C396 H391 0.950 . S
C396 C397 1.478 . S
C397 C384 1.394 1_645 S
C397 C396 1.478 . S
C397 C398 1.397 . S
C398 C397 1.397 . S
C398 C399 1.438 . S
C398 C403 1.429 . S
C399 C382 1.394 1_655 S
C399 C398 1.438 . S
C399 C400 1.428 . S
C400 H392 0.949 . S
C400 C399 1.428 . S
C400 C401 1.345 . S
C401 H393 0.950 . S
C401 C400 1.345 . S
C401 C402 1.424 . S
C402 H394 0.951 . S
C402 C401 1.424 . S
C402 C403 1.347 . S
C403 H395 0.951 . S
C403 C398 1.429 . S
C403 C402 1.347 . S
H404 C405 0.951 . S
C405 H404 0.951 . S
C405 C411 1.265 . S
H406 C411 0.950 . S
H407 C415 0.949 . S
H408 C416 0.950 . S
H409 C417 0.951 . S
H410 C418 0.951 . S
C411 C405 1.265 . S
C411 H406 0.950 . S
C411 C412 1.478 . S
C412 C411 1.478 . S
C412 C413 1.397 . S
C412 C429 1.394 . S
C413 C412 1.397 . S
C413 C414 1.438 . S
C413 C418 1.429 . S
C414 C413 1.438 . S
C414 C415 1.428 . S
C414 C427 1.394 . S
C415 H407 0.949 . S
C415 C414 1.428 . S
C415 C416 1.345 . S
C416 H408 0.950 . S
C416 C415 1.345 . S
C416 C417 1.424 . S
C417 H409 0.951 . S
C417 C416 1.424 . S
C417 C418 1.347 . S
C418 H410 0.951 . S
C418 C413 1.429 . S
C418 C417 1.347 . S
H419 C420 0.951 . S
C420 H419 0.951 . S
C420 C426 1.265 . S
H421 C426 0.950 . S
H422 C430 0.949 . S
H423 C431 0.950 . S
H424 C432 0.951 . S
H425 C433 0.951 . S
C426 C420 1.265 . S
C426 H421 0.950 . S
C426 C427 1.478 . S
C427 C414 1.394 . S
C427 C426 1.478 . S
C427 C428 1.397 . S
C428 C427 1.397 . S
C428 C429 1.438 . S
C428 C433 1.429 . S
C429 C412 1.394 . S
C429 C428 1.438 . S
C429 C430 1.428 . S
C430 H422 0.949 . S
C430 C429 1.428 . S
C430 C431 1.345 . S
C431 H423 0.950 . S
C431 C430 1.345 . S
C431 C432 1.424 . S
C432 H424 0.951 . S
C432 C431 1.424 . S
C432 C433 1.347 . S
C433 H425 0.951 . S
C433 C428 1.429 . S
C433 C432 1.347 . S
H434 C435 0.951 . S
C435 H434 0.951 . S
C435 C441 1.265 . S
H436 C441 0.950 . S
H437 C445 0.949 . S
H438 C446 0.950 . S
H439 C447 0.951 . S
H440 C448 0.951 . S
C441 C435 1.265 . S
C441 H436 0.950 . S
C441 C442 1.478 . S
C442 C441 1.478 . S
C442 C443 1.397 . S
C442 C459 1.394 . S
C443 C442 1.397 . S
C443 C444 1.438 . S
C443 C448 1.429 . S
C444 C443 1.438 . S
C444 C445 1.428 . S
C444 C457 1.394 . S
C445 H437 0.949 . S
C445 C444 1.428 . S
C445 C446 1.345 . S
C446 H438 0.950 . S
C446 C445 1.345 . S
C446 C447 1.424 . S
C447 H439 0.951 . S
C447 C446 1.424 . S
C447 C448 1.347 . S
C448 H440 0.951 . S
C448 C443 1.429 . S
C448 C447 1.347 . S
H449 C450 0.951 . S
C450 H449 0.951 . S
C450 C456 1.265 . S
H451 C456 0.950 . S
H452 C460 0.949 . S
H453 C461 0.950 . S
H454 C462 0.951 . S
H455 C463 0.951 . S
C456 C450 1.265 . S
C456 H451 0.950 . S
C456 C457 1.478 . S
C457 C444 1.394 . S
C457 C456 1.478 . S
C457 C458 1.397 . S
C458 C457 1.397 . S
C458 C459 1.438 . S
C458 C463 1.429 . S
C459 C442 1.394 . S
C459 C458 1.438 . S
C459 C460 1.428 . S
C460 H452 0.949 . S
C460 C459 1.428 . S
C460 C461 1.345 . S
C461 H453 0.950 . S
C461 C460 1.345 . S
C461 C462 1.424 . S
C462 H454 0.951 . S
C462 C461 1.424 . S
C462 C463 1.347 . S
C463 H455 0.951 . S
C463 C458 1.429 . S
C463 C462 1.347 . S
C120 C99 1.434 . S
C105 C27 1.462 . S
C135 N6 1.350 . S
C150 N86 1.354 . S
C165 C16 1.406 . S
C180 N97 1.364 . S
C195 N14 1.407 1_556 S
C210 C88 1.433 . S
C225 C57 1.465 . S
C240 C77 1.415 . S
C255 N36 1.324 . S
C270 N64 1.349 . S
C300 N75 1.360 . S
C285 C46 1.407 . S
C330 C66 1.424 . S
C315 N44 1.444 . S
C345 C10 1.467 . S
C360 C69 1.453 . S
C375 C1 1.523 1_655 S
C390 C80 1.529 1_455 S
C420 C91 1.453 . S
C405 C40 1.467 . S
C435 C31 1.523 . S
C450 C102 1.529 . S
