# Generated by pormake.
# Topology ctn, (3,4)-cn, num edge types: 1
# Building blocks:
#     Node 0, Type 0, BuildingBlock: BELTOD_clean_linker_0, # of connection points: 3
#     Node 1, Type 0, BuildingBlock: BELTOD_clean_linker_0, # of connection points: 3
#     Node 2, Type 0, BuildingBlock: BELTOD_clean_linker_0, # of connection points: 3
#     Node 3, Type 0, BuildingBlock: BELTOD_clean_linker_0, # of connection points: 3
#     Node 4, Type 0, BuildingBlock: BELTOD_clean_linker_0, # of connection points: 3
#     Node 5, Type 0, BuildingBlock: BELTOD_clean_linker_0, # of connection points: 3
#     Node 6, Type 0, BuildingBlock: BELTOD_clean_linker_0, # of connection points: 3
#     Node 7, Type 0, BuildingBlock: BELTOD_clean_linker_0, # of connection points: 3
#     Node 8, Type 0, BuildingBlock: BELTOD_clean_linker_0, # of connection points: 3
#     Node 9, Type 0, BuildingBlock: BELTOD_clean_linker_0, # of connection points: 3
#     Node 10, Type 0, BuildingBlock: BELTOD_clean_linker_0, # of connection points: 3
#     Node 11, Type 0, BuildingBlock: BELTOD_clean_linker_0, # of connection points: 3
#     Node 12, Type 0, BuildingBlock: BELTOD_clean_linker_0, # of connection points: 3
#     Node 13, Type 0, BuildingBlock: BELTOD_clean_linker_0, # of connection points: 3
#     Node 14, Type 0, BuildingBlock: BELTOD_clean_linker_0, # of connection points: 3
#     Node 15, Type 0, BuildingBlock: BELTOD_clean_linker_0, # of connection points: 3
#     Node 16, Type 1, BuildingBlock: NAHDIM_clean_sbu_0, # of connection points: 4
#     Node 17, Type 1, BuildingBlock: NAHDIM_clean_sbu_0, # of connection points: 4
#     Node 18, Type 1, BuildingBlock: NAHDIM_clean_sbu_0, # of connection points: 4
#     Node 19, Type 1, BuildingBlock: NAHDIM_clean_sbu_0, # of connection points: 4
#     Node 20, Type 1, BuildingBlock: NAHDIM_clean_sbu_0, # of connection points: 4
#     Node 21, Type 1, BuildingBlock: NAHDIM_clean_sbu_0, # of connection points: 4
#     Node 22, Type 1, BuildingBlock: NAHDIM_clean_sbu_0, # of connection points: 4
#     Node 23, Type 1, BuildingBlock: NAHDIM_clean_sbu_0, # of connection points: 4
#     Node 24, Type 1, BuildingBlock: NAHDIM_clean_sbu_0, # of connection points: 4
#     Node 25, Type 1, BuildingBlock: NAHDIM_clean_sbu_0, # of connection points: 4
#     Node 26, Type 1, BuildingBlock: NAHDIM_clean_sbu_0, # of connection points: 4
#     Node 27, Type 1, BuildingBlock: NAHDIM_clean_sbu_0, # of connection points: 4
#     Edge 28, Type (0, 1), BuildingBlock: EZIPEK_clean_linker_0, # of connection points: 2
#     Edge 29, Type (0, 1), BuildingBlock: EZIPEK_clean_linker_0, # of connection points: 2
#     Edge 30, Type (0, 1), BuildingBlock: EZIPEK_clean_linker_0, # of connection points: 2
#     Edge 31, Type (0, 1), BuildingBlock: EZIPEK_clean_linker_0, # of connection points: 2
#     Edge 32, Type (0, 1), BuildingBlock: EZIPEK_clean_linker_0, # of connection points: 2
#     Edge 33, Type (0, 1), BuildingBlock: EZIPEK_clean_linker_0, # of connection points: 2
#     Edge 34, Type (0, 1), BuildingBlock: EZIPEK_clean_linker_0, # of connection points: 2
#     Edge 35, Type (0, 1), BuildingBlock: EZIPEK_clean_linker_0, # of connection points: 2
#     Edge 36, Type (0, 1), BuildingBlock: EZIPEK_clean_linker_0, # of connection points: 2
#     Edge 37, Type (0, 1), BuildingBlock: EZIPEK_clean_linker_0, # of connection points: 2
#     Edge 38, Type (0, 1), BuildingBlock: EZIPEK_clean_linker_0, # of connection points: 2
#     Edge 39, Type (0, 1), BuildingBlock: EZIPEK_clean_linker_0, # of connection points: 2
#     Edge 40, Type (0, 1), BuildingBlock: EZIPEK_clean_linker_0, # of connection points: 2
#     Edge 41, Type (0, 1), BuildingBlock: EZIPEK_clean_linker_0, # of connection points: 2
#     Edge 42, Type (0, 1), BuildingBlock: EZIPEK_clean_linker_0, # of connection points: 2
#     Edge 43, Type (0, 1), BuildingBlock: EZIPEK_clean_linker_0, # of connection points: 2
#     Edge 44, Type (0, 1), BuildingBlock: EZIPEK_clean_linker_0, # of connection points: 2
#     Edge 45, Type (0, 1), BuildingBlock: EZIPEK_clean_linker_0, # of connection points: 2
#     Edge 46, Type (0, 1), BuildingBlock: EZIPEK_clean_linker_0, # of connection points: 2
#     Edge 47, Type (0, 1), BuildingBlock: EZIPEK_clean_linker_0, # of connection points: 2
#     Edge 48, Type (0, 1), BuildingBlock: EZIPEK_clean_linker_0, # of connection points: 2
#     Edge 49, Type (0, 1), BuildingBlock: EZIPEK_clean_linker_0, # of connection points: 2
#     Edge 50, Type (0, 1), BuildingBlock: EZIPEK_clean_linker_0, # of connection points: 2
#     Edge 51, Type (0, 1), BuildingBlock: EZIPEK_clean_linker_0, # of connection points: 2
#     Edge 52, Type (0, 1), BuildingBlock: EZIPEK_clean_linker_0, # of connection points: 2
#     Edge 53, Type (0, 1), BuildingBlock: EZIPEK_clean_linker_0, # of connection points: 2
#     Edge 54, Type (0, 1), BuildingBlock: EZIPEK_clean_linker_0, # of connection points: 2
#     Edge 55, Type (0, 1), BuildingBlock: EZIPEK_clean_linker_0, # of connection points: 2
#     Edge 56, Type (0, 1), BuildingBlock: EZIPEK_clean_linker_0, # of connection points: 2
#     Edge 57, Type (0, 1), BuildingBlock: EZIPEK_clean_linker_0, # of connection points: 2
#     Edge 58, Type (0, 1), BuildingBlock: EZIPEK_clean_linker_0, # of connection points: 2
#     Edge 59, Type (0, 1), BuildingBlock: EZIPEK_clean_linker_0, # of connection points: 2
#     Edge 60, Type (0, 1), BuildingBlock: EZIPEK_clean_linker_0, # of connection points: 2
#     Edge 61, Type (0, 1), BuildingBlock: EZIPEK_clean_linker_0, # of connection points: 2
#     Edge 62, Type (0, 1), BuildingBlock: EZIPEK_clean_linker_0, # of connection points: 2
#     Edge 63, Type (0, 1), BuildingBlock: EZIPEK_clean_linker_0, # of connection points: 2
#     Edge 64, Type (0, 1), BuildingBlock: EZIPEK_clean_linker_0, # of connection points: 2
#     Edge 65, Type (0, 1), BuildingBlock: EZIPEK_clean_linker_0, # of connection points: 2
#     Edge 66, Type (0, 1), BuildingBlock: EZIPEK_clean_linker_0, # of connection points: 2
#     Edge 67, Type (0, 1), BuildingBlock: EZIPEK_clean_linker_0, # of connection points: 2
#     Edge 68, Type (0, 1), BuildingBlock: EZIPEK_clean_linker_0, # of connection points: 2
#     Edge 69, Type (0, 1), BuildingBlock: EZIPEK_clean_linker_0, # of connection points: 2
#     Edge 70, Type (0, 1), BuildingBlock: EZIPEK_clean_linker_0, # of connection points: 2
#     Edge 71, Type (0, 1), BuildingBlock: EZIPEK_clean_linker_0, # of connection points: 2
#     Edge 72, Type (0, 1), BuildingBlock: EZIPEK_clean_linker_0, # of connection points: 2
#     Edge 73, Type (0, 1), BuildingBlock: EZIPEK_clean_linker_0, # of connection points: 2
#     Edge 74, Type (0, 1), BuildingBlock: EZIPEK_clean_linker_0, # of connection points: 2
#     Edge 75, Type (0, 1), BuildingBlock: EZIPEK_clean_linker_0, # of connection points: 2
# Relax obj value: 0.003
# Max RMSD: 0.034
# Mean RMSD: 0.021
data_MOF--net-ctn--node1-NAHDIM_clean_sbu_0--node2-BELTOD_clean_linker_0--edge1-EZIPEK_clean_linker_0
_symmetry_space_group_name_H-M    P1
_symmetry_Int_Tables_number       1
_symmetry_cell_setting            triclinic
loop_
_symmetry_equiv_pos_as_xyz
'x, y, z'
_cell_length_a     47.159634
_cell_length_b     47.8169
_cell_length_c     46.810571
_cell_angle_alpha  90.560705
_cell_angle_beta   90.169275
_cell_angle_gamma 93.313532
loop_
_atom_site_label
_atom_site_type_symbol
_atom_site_fract_x
_atom_site_fract_y
_atom_site_fract_z
_atom_type_partial_charge
P0 P 0.07386 0.08147 0.07433 0.0
H1 H 0.07344 0.06742 0.13462 0.0
H2 H 0.03539 0.05144 0.16733 0.0
H3 H 0.97496 0.05075 0.09798 0.0
H4 H 0.01303 0.06665 0.06516 0.0
H5 H 0.13108 0.08083 0.05161 0.0
H6 H 0.16081 0.04273 0.03696 0.0
H7 H 0.09188 0.9823 0.05479 0.0
H8 H 0.06203 0.02039 0.06937 0.0
H9 H 0.0528 0.13717 0.07078 0.0
H10 H 0.0624 0.06683 0.01389 0.0
O11 O 0.09533 0.10387 0.09297 0.0
H12 H 0.03356 0.16375 0.03127 0.0
H13 H 0.04318 0.09353 0.97433 0.0
C14 C 0.04589 0.06878 0.09768 0.0
C15 C 0.05202 0.06384 0.12644 0.0
C16 C 0.03042 0.05466 0.14503 0.0
C17 C 0.00247 0.0501 0.13499 0.0
C18 C 0.99644 0.05427 0.10603 0.0
C19 C 0.0181 0.06344 0.08741 0.0
C20 C 0.09461 0.05336 0.06207 0.0
C21 C 0.12233 0.05941 0.0523 0.0
C22 C 0.13923 0.03776 0.0439 0.0
C23 C 0.12851 0.00982 0.04498 0.0
C24 C 0.10046 0.00379 0.05392 0.0
C25 C 0.08353 0.02549 0.06231 0.0
C26 C 0.05955 0.10032 0.04507 0.0
C27 C 0.05085 0.12751 0.04979 0.0
C28 C 0.03982 0.14261 0.02736 0.0
C29 C 0.03718 0.13059 -3e-05 0.0
C30 C 0.04524 0.10311 0.99535 0.0
C31 C 0.05628 0.08799 0.01785 0.0
P32 P 0.31135 0.67655 0.19323 0.0
H33 H 0.34064 0.71199 0.15139 0.0
H34 H 0.32481 0.74858 0.11956 0.0
H35 H 0.24073 0.73929 0.15545 0.0
H36 H 0.25646 0.70278 0.18734 0.0
H37 H 0.3589 0.65318 0.22263 0.0
H38 H 0.39236 0.67224 0.25912 0.0
H39 H 0.34776 0.7484 0.2627 0.0
H40 H 0.31428 0.72941 0.22599 0.0
H41 H 0.27766 0.62851 0.17063 0.0
H42 H 0.27852 0.68083 0.2463 0.0
O43 O 0.32975 0.65565 0.17242 0.0
H44 H 0.23601 0.60126 0.18874 0.0
H45 H 0.23659 0.65356 0.26435 0.0
C46 C 0.29964 0.70438 0.17135 0.0
C47 C 0.31882 0.71786 0.15246 0.0
C48 C 0.30985 0.73868 0.13438 0.0
C49 C 0.28159 0.74633 0.13509 0.0
C50 C 0.26257 0.73345 0.15456 0.0
C51 C 0.27157 0.71261 0.17268 0.0
C52 C 0.33455 0.69015 0.22124 0.0
C53 C 0.35626 0.67395 0.23127 0.0
C54 C 0.37524 0.68472 0.2521 0.0
C55 C 0.37249 0.71169 0.26339 0.0
C56 C 0.35015 0.72755 0.25412 0.0
C57 C 0.3312 0.71678 0.23316 0.0
C58 C 0.28154 0.65619 0.20747 0.0
C59 C 0.26906 0.63395 0.19124 0.0
C60 C 0.24528 0.61853 0.20146 0.0
C61 C 0.23349 0.62534 0.22792 0.0
C62 C 0.24563 0.64794 0.24398 0.0
C63 C 0.26955 0.66334 0.23376 0.0
P64 P 0.99144 0.49943 0.01305 0.0
H65 H 0.02903 0.47631 0.97051 0.0
H66 H 0.03098 0.42967 0.94868 0.0
H67 H 0.95812 0.40062 0.99787 0.0
H68 H 0.9562 0.44743 0.01994 0.0
H69 H 0.96591 0.54237 0.04742 0.0
H70 H 0.91989 0.56375 0.04489 0.0
H71 H 0.89489 0.50879 0.97458 0.0
H72 H 0.94099 0.48752 0.97682 0.0
H73 H 0.04685 0.51335 0.03921 0.0
H74 H 0.9645 0.47938 0.06586 0.0
O75 O 0.01276 0.52212 0.99517 0.0
H76 H 0.06416 0.51112 0.08858 0.0
H77 H 0.9819 0.47718 0.11536 0.0
C78 C 0.99218 0.46539 0.99649 0.0
C79 C 0.01334 0.46003 0.97652 0.0
C80 C 0.01452 0.43345 0.96412 0.0
C81 C 0.99465 0.41185 0.97166 0.0
C82 C 0.97357 0.41712 0.9918 0.0
C83 C 0.97246 0.44374 0.00429 0.0
C84 C 0.95655 0.51281 0.01285 0.0
C85 C 0.95036 0.53453 0.03179 0.0
C86 C 0.92422 0.54677 0.03034 0.0
C87 C 0.90406 0.53758 0.00975 0.0
C88 C 0.91016 0.51584 0.99081 0.0
C89 C 0.93638 0.50368 0.99219 0.0
C90 C 0.00427 0.49701 0.04907 0.0
C91 C 0.0325 0.50545 0.05566 0.0
C92 C 0.0424 0.50412 0.08373 0.0
C93 C 0.02422 0.4941 0.10547 0.0
C94 C 0.99615 0.48501 0.09878 0.0
C95 C 0.98627 0.48632 0.07066 0.0
P96 P 0.68572 0.82241 0.18155 0.0
H97 H 0.71328 0.87293 0.15752 0.0
H98 H 0.75245 0.90501 0.17424 0.0
H99 H 0.76256 0.85385 0.24852 0.0
H100 H 0.72328 0.82162 0.23178 0.0
H101 H 0.66822 0.79838 0.12619 0.0
H102 H 0.68598 0.76038 0.09699 0.0
H103 H 0.74927 0.74623 0.16109 0.0
H104 H 0.73141 0.7843 0.19053 0.0
H105 H 0.66866 0.84722 0.23565 0.0
H106 H 0.65459 0.76834 0.19076 0.0
O107 O 0.66459 0.841 0.1614 0.0
H108 H 0.63603 0.83044 0.27335 0.0
H109 H 0.62175 0.7518 0.22827 0.0
C110 C 0.715 0.8453 0.19376 0.0
C111 C 0.72383 0.86861 0.17744 0.0
C112 C 0.74617 0.88685 0.18689 0.0
C113 C 0.76011 0.88184 0.21268 0.0
C114 C 0.75185 0.85808 0.22865 0.0
C115 C 0.72947 0.83981 0.21915 0.0
C116 C 0.69889 0.7945 0.16025 0.0
C117 C 0.68597 0.78723 0.13399 0.0
C118 C 0.69596 0.7655 0.1174 0.0
C119 C 0.7189 0.75064 0.12694 0.0
C120 C 0.73154 0.75754 0.15345 0.0
C121 C 0.72147 0.7793 0.1701 0.0
C122 C 0.66464 0.80877 0.21078 0.0
C123 C 0.65905 0.82614 0.23418 0.0
C124 C 0.64039 0.81666 0.25559 0.0
C125 C 0.62668 0.78987 0.25356 0.0
C126 C 0.63236 0.77244 0.23025 0.0
C127 C 0.65116 0.78187 0.20893 0.0
P128 P 0.04827 0.93898 0.43469 0.0
H129 H 0.09343 0.93709 0.47677 0.0
H130 H 0.12853 0.97255 0.49546 0.0
H131 H 0.09184 0.03525 0.44363 0.0
H132 H 0.05668 0.99977 0.42478 0.0
H133 H 0.03661 0.87835 0.43671 0.0
H134 H 0.02034 0.84683 0.47518 0.0
H135 H 0.0133 0.91783 0.5317 0.0
H136 H 0.02971 0.94942 0.49328 0.0
H137 H 0.02915 0.93449 0.37526 0.0
H138 H 0.00218 0.97341 0.45339 0.0
O139 O 0.06707 0.92052 0.41186 0.0
H140 H 0.98813 0.95183 0.35021 0.0
H141 H 0.96088 0.99074 0.42813 0.0
C142 C 0.07211 0.96592 0.44986 0.0
C143 C 0.09263 0.95853 0.46973 0.0
C144 C 0.11265 0.97868 0.48034 0.0
C145 C 0.11254 0.00644 0.47102 0.0
C146 C 0.09199 0.01393 0.45119 0.0
C147 C 0.07195 0.99371 0.44054 0.0
C148 C 0.03488 0.91611 0.4624 0.0
C149 C 0.03156 0.88716 0.45735 0.0
C150 C 0.02221 0.86921 0.47918 0.0
C151 C 0.01585 0.88009 0.5062 0.0
C152 C 0.01825 0.90914 0.51097 0.0
C153 C 0.02763 0.92708 0.48912 0.0
C154 C 0.0187 0.95271 0.41618 0.0
C155 C 0.0145 0.94682 0.38703 0.0
C156 C 0.99111 0.95665 0.37272 0.0
C157 C 0.97161 0.97251 0.38738 0.0
C158 C 0.9758 0.97853 0.41654 0.0
C159 C 0.99927 0.96867 0.43088 0.0
P160 P 0.23398 0.74617 0.77275 0.0
H161 H 0.27972 0.77035 0.80831 0.0
H162 H 0.28056 0.79517 0.85451 0.0
H163 H 0.18921 0.78513 0.85864 0.0
H164 H 0.18831 0.76 0.81262 0.0
H165 H 0.26264 0.71141 0.73191 0.0
H166 H 0.2822 0.66507 0.73534 0.0
H167 H 0.25587 0.65973 0.82334 0.0
H168 H 0.23618 0.70613 0.81995 0.0
H169 H 0.19846 0.78736 0.74807 0.0
H170 H 0.19216 0.69847 0.76409 0.0
O171 O 0.25479 0.76558 0.75095 0.0
H172 H 0.15101 0.78384 0.726 0.0
H173 H 0.14489 0.69502 0.7418 0.0
C174 C 0.23398 0.76373 0.80689 0.0
C175 C 0.25988 0.77348 0.81915 0.0
C176 C 0.26037 0.78757 0.84543 0.0
C177 C 0.23494 0.79201 0.85979 0.0
C178 C 0.209 0.78192 0.84774 0.0
C179 C 0.20853 0.76768 0.82148 0.0
C180 C 0.24858 0.7124 0.77584 0.0
C181 C 0.26126 0.70039 0.75201 0.0
C182 C 0.27232 0.674 0.75391 0.0
C183 C 0.27065 0.65924 0.77965 0.0
C184 C 0.25752 0.67102 0.80341 0.0
C185 C 0.24641 0.69744 0.80147 0.0
C186 C 0.19896 0.74315 0.75729 0.0
C187 C 0.18691 0.76714 0.74679 0.0
C188 C 0.15992 0.76517 0.73431 0.0
C189 C 0.14469 0.73917 0.73223 0.0
C190 C 0.15649 0.71522 0.74319 0.0
C191 C 0.18346 0.71722 0.7558 0.0
P192 P 0.00222 0.50544 0.51096 0.0
H193 H 0.04965 0.4755 0.48802 0.0
H194 H 0.0723 0.47523 0.44099 0.0
H195 H 0.01394 0.53453 0.41063 0.0
H196 H 0.99118 0.5349 0.45791 0.0
H197 H 0.04318 0.53995 0.5445 0.0
H198 H 0.04282 0.58792 0.5636 0.0
H199 H 0.96086 0.59712 0.52484 0.0
H200 H 0.96131 0.54918 0.50542 0.0
H201 H 0.97185 0.46882 0.46858 0.0
H202 H 0.95527 0.50523 0.55118 0.0
O203 O 0.02091 0.48702 0.53368 0.0
H204 H 0.92474 0.44424 0.46902 0.0
H205 H 0.90809 0.48064 0.55148 0.0
C206 C 0.01893 0.50545 0.47648 0.0
C207 C 0.04174 0.48855 0.47137 0.0
C208 C 0.05465 0.48834 0.44457 0.0
C209 C 0.04483 0.50495 0.42252 0.0
C210 C 0.02184 0.5217 0.42751 0.0
C211 C 0.00894 0.52194 0.4544 0.0
C212 C 0.00198 0.54086 0.52416 0.0
C213 C 0.02511 0.55224 0.54013 0.0
C214 C 0.02496 0.57955 0.55095 0.0
C215 C 0.00173 0.59585 0.54576 0.0
C216 C 0.97887 0.58472 0.52915 0.0
C217 C 0.97911 0.55742 0.5182 0.0
C218 C 0.96681 0.48932 0.50962 0.0
C219 C 0.95797 0.47194 0.48656 0.0
C220 C 0.93115 0.45787 0.48679 0.0
C221 C 0.91302 0.46084 0.51019 0.0
C222 C 0.92179 0.47832 0.53317 0.0
C223 C 0.94861 0.49234 0.53295 0.0
P224 P 0.81794 0.82293 0.82569 0.0
H225 H 0.87241 0.8419 0.80095 0.0
H226 H 0.90143 0.82283 0.76284 0.0
H227 H 0.83608 0.75787 0.74612 0.0
H228 H 0.80705 0.77673 0.78459 0.0
H229 H 0.79654 0.87414 0.84936 0.0
H230 H 0.75856 0.9038 0.83453 0.0
H231 H 0.73992 0.84909 0.76232 0.0
H232 H 0.7779 0.81919 0.7772 0.0
H233 H 0.83869 0.76809 0.8388 0.0
H234 H 0.76604 0.81514 0.85989 0.0
O235 O 0.84023 0.8418 0.84705 0.0
H236 H 0.82124 0.73058 0.87068 0.0
H237 H 0.74898 0.7778 0.89217 0.0
C238 C 0.83778 0.81047 0.79582 0.0
C239 C 0.8642 0.82366 0.78905 0.0
C240 C 0.88072 0.81286 0.76731 0.0
C241 C 0.87085 0.78895 0.7519 0.0
C242 C 0.84395 0.77635 0.75789 0.0
C243 C 0.82748 0.78709 0.77976 0.0
C244 C 0.79048 0.84483 0.814 0.0
C245 C 0.78449 0.86858 0.83021 0.0
C246 C 0.76277 0.88541 0.82188 0.0
C247 C 0.74667 0.87862 0.79731 0.0
C248 C 0.7523 0.85463 0.78128 0.0
C249 C 0.77402 0.83771 0.7897 0.0
C250 C 0.80329 0.79409 0.84637 0.0
C251 C 0.81872 0.77012 0.84976 0.0
C252 C 0.80888 0.74878 0.86801 0.0
C253 C 0.78378 0.75145 0.88356 0.0
C254 C 0.76825 0.77534 0.88009 0.0
C255 C 0.77799 0.79657 0.86164 0.0
P256 P 0.32101 0.32393 0.32831 0.0
H257 H 0.38279 0.32434 0.32432 0.0
H258 H 0.4148 0.30744 0.28772 0.0
H259 H 0.3428 0.28058 0.23528 0.0
H260 H 0.31059 0.2973 0.27207 0.0
H261 H 0.31495 0.3843 0.32671 0.0
H262 H 0.27644 0.41267 0.31062 0.0
H263 H 0.22907 0.33802 0.28126 0.0
H264 H 0.26752 0.30939 0.29773 0.0
H265 H 0.34187 0.26905 0.34148 0.0
H266 H 0.26733 0.31459 0.35909 0.0
O267 O 0.34 0.34356 0.35197 0.0
H268 H 0.3231 0.23069 0.37175 0.0
H269 H 0.24834 0.27588 0.3886 0.0
C270 C 0.34431 0.31257 0.30067 0.0
C271 C 0.3738 0.31504 0.3049 0.0
C272 C 0.39207 0.30532 0.28412 0.0
C273 C 0.3811 0.29285 0.25889 0.0
C274 C 0.35158 0.29021 0.25466 0.0
C275 C 0.33327 0.29988 0.27555 0.0
C276 C 0.29392 0.34472 0.31372 0.0
C277 C 0.2964 0.37396 0.3167 0.0
C278 C 0.2745 0.39016 0.30753 0.0
C279 C 0.24998 0.37733 0.29499 0.0
C280 C 0.24788 0.34817 0.29097 0.0
C281 C 0.2698 0.33194 0.30028 0.0
C282 C 0.30561 0.29433 0.34731 0.0
C283 C 0.32121 0.27053 0.35121 0.0
C284 C 0.31059 0.2487 0.36849 0.0
C285 C 0.28427 0.25047 0.38205 0.0
C286 C 0.26852 0.2741 0.37793 0.0
C287 C 0.27932 0.29607 0.36098 0.0
P288 P 0.48342 0.99619 0.51668 0.0
H289 H 0.4993 0.98125 0.45857 0.0
H290 H 0.50086 0.93625 0.43325 0.0
H291 H 0.4697 0.89323 0.50841 0.0
H292 H 0.4682 0.93837 0.53392 0.0
H293 H 0.46141 0.04602 0.54208 0.0
H294 H 0.41524 0.0671 0.5388 0.0
H295 H 0.38285 0.99734 0.48693 0.0
H296 H 0.42896 0.97624 0.49006 0.0
H297 H 0.53996 0.00334 0.54188 0.0
H298 H 0.45474 0.9815 0.57056 0.0
O299 O 0.50506 0.01947 0.49992 0.0
H300 H 0.55732 0.00105 0.59123 0.0
H301 H 0.47225 0.97906 0.62002 0.0
C302 C 0.48425 0.96304 0.4983 0.0
C303 C 0.49294 0.96218 0.46971 0.0
C304 C 0.49374 0.93658 0.45523 0.0
C305 C 0.4856 0.91154 0.46909 0.0
C306 C 0.47622 0.9124 0.4975 0.0
C307 C 0.47548 0.93807 0.51202 0.0
C308 C 0.44856 0.00956 0.51644 0.0
C309 C 0.44427 0.03508 0.53032 0.0
C310 C 0.41803 0.04707 0.52849 0.0
C311 C 0.39578 0.03366 0.51271 0.0
C312 C 0.39982 0.00782 0.49932 0.0
C313 C 0.42612 0.99585 0.50112 0.0
C314 C 0.49602 0.99315 0.55274 0.0
C315 C 0.52502 0.99804 0.55877 0.0
C316 C 0.53493 0.99665 0.58682 0.0
C317 C 0.51599 0.99001 0.6091 0.0
C318 C 0.48709 0.98427 0.603 0.0
C319 C 0.47715 0.98576 0.5749 0.0
P320 P 0.17419 0.32916 0.67548 0.0
H321 H 0.20267 0.38081 0.65447 0.0
H322 H 0.24393 0.40973 0.67171 0.0
H323 H 0.25586 0.35121 0.73961 0.0
H324 H 0.21441 0.32213 0.72236 0.0
H325 H 0.14026 0.27902 0.65824 0.0
H326 H 0.15058 0.23836 0.6284 0.0
H327 H 0.23715 0.27101 0.61908 0.0
H328 H 0.22702 0.31158 0.64912 0.0
H329 H 0.13068 0.35957 0.70435 0.0
H330 H 0.16972 0.28075 0.71384 0.0
O331 O 0.15589 0.34827 0.65307 0.0
H332 H 0.09861 0.34755 0.74418 0.0
H333 H 0.13729 0.2686 0.75344 0.0
C334 C 0.20524 0.3496 0.68747 0.0
C335 C 0.21409 0.37413 0.67306 0.0
C336 C 0.23764 0.39059 0.6828 0.0
C337 C 0.2527 0.38263 0.70698 0.0
C338 C 0.24433 0.35768 0.72098 0.0
C339 C 0.22073 0.3412 0.7112 0.0
C340 C 0.18301 0.29801 0.65639 0.0
C341 C 0.16163 0.27716 0.6503 0.0
C342 C 0.16745 0.25403 0.6333 0.0
C343 C 0.19464 0.25171 0.62184 0.0
C344 C 0.21613 0.27241 0.62806 0.0
C345 C 0.21032 0.2955 0.6452 0.0
C346 C 0.15197 0.3207 0.7057 0.0
C347 C 0.13233 0.33971 0.71498 0.0
C348 C 0.11416 0.33295 0.7377 0.0
C349 C 0.11557 0.30716 0.75146 0.0
C350 C 0.13591 0.28854 0.74289 0.0
C351 C 0.15423 0.29541 0.72026 0.0
P352 P 0.80252 0.17861 0.69746 0.0
H353 H 0.81358 0.19115 0.63736 0.0
H354 H 0.7972 0.22712 0.60548 0.0
H355 H 0.75039 0.26235 0.67482 0.0
H356 H 0.7657 0.22534 0.70654 0.0
H357 H 0.83708 0.1497 0.73756 0.0
H358 H 0.86855 0.16578 0.77702 0.0
H359 H 0.84649 0.25082 0.76288 0.0
H360 H 0.81583 0.23501 0.72299 0.0
H361 H 0.77013 0.13003 0.67412 0.0
H362 H 0.76612 0.18475 0.74767 0.0
O363 O 0.82185 0.15702 0.67841 0.0
H364 H 0.72803 0.10262 0.69097 0.0
H365 H 0.7237 0.15732 0.76444 0.0
C366 C 0.7912 0.20583 0.67445 0.0
C367 C 0.79977 0.20651 0.64581 0.0
C368 C 0.7904 0.227 0.62757 0.0
C369 C 0.77265 0.24742 0.63781 0.0
C370 C 0.76407 0.24677 0.66652 0.0
C371 C 0.77293 0.22581 0.6846 0.0
C372 C 0.82424 0.19111 0.72717 0.0
C373 C 0.83899 0.17181 0.74296 0.0
C374 C 0.85681 0.18091 0.76549 0.0
C375 C 0.85978 0.20945 0.77279 0.0
C376 C 0.8444 0.2287 0.75753 0.0
C377 C 0.82685 0.21961 0.73475 0.0
C378 C 0.77156 0.15894 0.71004 0.0
C379 C 0.76027 0.13606 0.69394 0.0
C380 C 0.73623 0.12053 0.70344 0.0
C381 C 0.72303 0.12788 0.72902 0.0
C382 C 0.73382 0.15129 0.74476 0.0
C383 C 0.75798 0.1668 0.73526 0.0
P384 P 0.57544 0.57963 0.58029 0.0
H385 H 0.57313 0.56486 0.64046 0.0
H386 H 0.53413 0.54786 0.67155 0.0
H387 H 0.47657 0.54561 0.59972 0.0
H388 H 0.51562 0.56253 0.56849 0.0
H389 H 0.6341 0.57983 0.56143 0.0
H390 H 0.66427 0.54249 0.54577 0.0
H391 H 0.59338 0.48196 0.55363 0.0
H392 H 0.56308 0.51935 0.56919 0.0
H393 H 0.54178 0.62835 0.58181 0.0
H394 H 0.57831 0.57654 0.5172 0.0
O395 O 0.59636 0.60114 0.60052 0.0
H396 H 0.52389 0.65848 0.54446 0.0
H397 H 0.56053 0.60687 0.47988 0.0
C398 C 0.54705 0.56554 0.60239 0.0
C399 C 0.55215 0.56066 0.63137 0.0
C400 C 0.53001 0.5509 0.64905 0.0
C401 C 0.50257 0.54568 0.63786 0.0
C402 C 0.49764 0.54963 0.60864 0.0
C403 C 0.51985 0.55938 0.59094 0.0
C404 C 0.59657 0.55224 0.56699 0.0
C405 C 0.625 0.55856 0.5597 0.0
C406 C 0.64216 0.53735 0.55073 0.0
C407 C 0.63101 0.50956 0.54874 0.0
C408 C 0.60229 0.50332 0.55514 0.0
C409 C 0.58509 0.52462 0.56408 0.0
C410 C 0.5614 0.60032 0.55227 0.0
C411 C 0.54582 0.6234 0.55961 0.0
C412 C 0.53562 0.64054 0.5384 0.0
C413 C 0.54094 0.63482 0.50953 0.0
C414 C 0.55622 0.61149 0.50209 0.0
C415 C 0.56637 0.59428 0.52338 0.0
P416 P 0.55188 0.4382 0.93148 0.0
H417 H 0.60495 0.44161 0.9631 0.0
H418 H 0.63689 0.48112 0.97906 0.0
H419 H 0.5808 0.53893 0.94181 0.0
H420 H 0.54881 0.49951 0.9258 0.0
H421 H 0.53535 0.37876 0.93539 0.0
H422 H 0.52181 0.34849 0.97582 0.0
H423 H 0.53108 0.41964 0.03307 0.0
H424 H 0.54436 0.45002 0.99266 0.0
H425 H 0.53676 0.44095 0.87106 0.0
H426 H 0.49861 0.45958 0.95222 0.0
O427 O 0.57065 0.41935 0.90897 0.0
H428 H 0.49415 0.4553 0.8463 0.0
H429 H 0.4559 0.47409 0.92727 0.0
C430 C 0.5745 0.46763 0.94341 0.0
C431 C 0.59947 0.46278 0.95844 0.0
C432 C 0.61763 0.48523 0.96753 0.0
C433 C 0.61108 0.5128 0.96157 0.0
C434 C 0.58608 0.51772 0.94658 0.0
C435 C 0.56787 0.49523 0.9375 0.0
C436 C 0.5415 0.41643 0.96118 0.0
C437 C 0.53454 0.38784 0.95663 0.0
C438 C 0.52677 0.37063 0.97959 0.0
C439 C 0.52573 0.3819 0.0073 0.0
C440 C 0.532 0.41064 0.01179 0.0
C441 C 0.53967 0.42787 0.98879 0.0
C442 C 0.5206 0.4488 0.91346 0.0
C443 C 0.5192 0.44799 0.88355 0.0
C444 C 0.49498 0.45619 0.86942 0.0
C445 C 0.47198 0.46556 0.88504 0.0
C446 C 0.47347 0.46677 0.91497 0.0
C447 C 0.49773 0.45847 0.92912 0.0
P448 P 0.74171 0.25495 0.27139 0.0
H449 H 0.77863 0.24953 0.32093 0.0
H450 H 0.77907 0.2706 0.36897 0.0
H451 H 0.70516 0.31522 0.34762 0.0
H452 H 0.705 0.29473 0.29936 0.0
H453 H 0.77921 0.22436 0.2344 0.0
H454 H 0.79588 0.17672 0.23612 0.0
H455 H 0.74536 0.16005 0.31133 0.0
H456 H 0.72842 0.20776 0.30953 0.0
H457 H 0.72402 0.26854 0.21354 0.0
H458 H 0.68416 0.23944 0.29146 0.0
O459 O 0.76492 0.2748 0.25248 0.0
H460 H 0.67724 0.26998 0.19076 0.0
H461 H 0.6372 0.2416 0.26883 0.0
C462 C 0.74115 0.26972 0.30692 0.0
C463 C 0.76232 0.26359 0.32663 0.0
C464 C 0.76268 0.27566 0.35393 0.0
C465 C 0.74198 0.29416 0.36176 0.0
C466 C 0.72109 0.30073 0.34193 0.0
C467 C 0.72092 0.28885 0.31452 0.0
C468 C 0.75308 0.2197 0.2722 0.0
C469 C 0.77172 0.21052 0.25129 0.0
C470 C 0.78118 0.1834 0.25221 0.0
C471 C 0.772 0.16512 0.27399 0.0
C472 C 0.75277 0.17403 0.29451 0.0
C473 C 0.74319 0.20116 0.29349 0.0
C474 C 0.70743 0.25459 0.25439 0.0
C475 C 0.70523 0.26255 0.22577 0.0
C476 C 0.6786 0.26332 0.21276 0.0
C477 C 0.65383 0.25619 0.22824 0.0
C478 C 0.6561 0.24734 0.25663 0.0
C479 C 0.6828 0.24621 0.26951 0.0
P480 P 0.49828 0.00288 0.01343 0.0
H481 H 0.55267 0.98368 0.99361 0.0
H482 H 0.57512 0.98312 0.94644 0.0
H483 H 0.50288 0.02125 0.90996 0.0
H484 H 0.48016 0.02161 0.95725 0.0
H485 H 0.53525 0.03298 0.05499 0.0
H486 H 0.53677 0.08111 0.07374 0.0
H487 H 0.46642 0.09927 0.01924 0.0
H488 H 0.46496 0.05104 0.00026 0.0
H489 H 0.47113 0.95756 0.97895 0.0
H490 H 0.4471 0.01382 0.04617 0.0
O491 O 0.51619 0.9833 0.03574 0.0
H492 H 0.42366 0.9337 0.98046 0.0
H493 H 0.39953 0.99033 0.04718 0.0
C494 C 0.51465 0.00244 0.9788 0.0
C495 C 0.54155 0.99182 0.97551 0.0
C496 C 0.55438 0.99153 0.94867 0.0
C497 C 0.54056 0.00208 0.92488 0.0
C498 C 0.51377 0.013 0.92817 0.0
C499 C 0.50088 0.0132 0.95505 0.0
C500 C 0.49967 0.03837 0.02662 0.0
C501 C 0.52011 0.04724 0.04707 0.0
C502 C 0.52103 0.07465 0.05773 0.0
C503 C 0.50161 0.09356 0.04795 0.0
C504 C 0.48149 0.08487 0.02706 0.0
C505 C 0.48067 0.05745 0.0163 0.0
C506 C 0.46239 0.98796 0.01188 0.0
C507 C 0.45548 0.96522 0.99351 0.0
C508 C 0.42848 0.95158 0.99439 0.0
C509 C 0.40815 0.96043 0.01379 0.0
C510 C 0.41492 0.98342 0.03191 0.0
C511 C 0.442 0.99688 0.03119 0.0
C512 C 0.20574 0.9245 0.01514 0.0
O513 O 0.22035 0.92751 0.99141 0.0
O514 O 0.23112 0.85879 0.98419 0.0
Zn515 Zn 0.2412 0.87856 0.02173 0.0
O516 O 0.27786 0.9028 0.0183 0.0
C517 C 0.25528 0.82704 0.04959 0.0
O518 O 0.26389 0.82026 0.02394 0.0
O519 O 0.21041 0.90436 0.03169 0.0
C520 C 0.30227 0.89369 0.02272 0.0
O521 O 0.30451 0.86742 0.02978 0.0
C522 C 0.25018 0.85101 0.96719 0.0
O523 O 0.27708 0.85606 0.97363 0.0
O524 O 0.24442 0.85048 0.05365 0.0
C525 C 0.16876 0.45864 0.27045 0.0
O526 O 0.18042 0.48395 0.27442 0.0
O527 O 0.0947 0.49366 0.29218 0.0
Zn528 Zn 0.11968 0.48923 0.25781 0.0
O529 O 0.14643 0.52322 0.25347 0.0
C530 C 0.07254 0.49538 0.21914 0.0
O531 O 0.06138 0.50797 0.24111 0.0
O532 O 0.14278 0.45529 0.26319 0.0
C533 C 0.14001 0.54844 0.25704 0.0
O534 O 0.11415 0.55401 0.26469 0.0
C535 C 0.10639 0.49866 0.31632 0.0
O536 O 0.1342 0.50133 0.31817 0.0
O537 O 0.09662 0.48503 0.22164 0.0
C538 C 0.7987 0.59203 0.99594 0.0
O539 O 0.78931 0.59466 0.96972 0.0
O540 O 0.76117 0.64813 0.97316 0.0
Zn541 Zn 0.75084 0.62326 0.00642 0.0
O542 O 0.71904 0.59562 0.99482 0.0
C543 C 0.75756 0.66529 0.05023 0.0
O544 O 0.78403 0.66565 0.04154 0.0
O545 O 0.78538 0.60259 0.01658 0.0
C546 C 0.69308 0.60003 0.99907 0.0
O547 O 0.68616 0.62337 0.01157 0.0
C548 C 0.74787 0.66997 0.96849 0.0
O549 O 0.72626 0.67578 0.98468 0.0
O550 O 0.73926 0.64788 0.03912 0.0
C551 C 0.82168 0.05756 0.2706 0.0
O552 O 0.80771 0.03342 0.27491 0.0
O553 O 0.89247 0.01422 0.28886 0.0
Zn554 Zn 0.86846 0.0234 0.25504 0.0
O555 O 0.8407 0.9911 0.24525 0.0
C556 C 0.91691 0.01791 0.21857 0.0
O557 O 0.92224 0.99767 0.23621 0.0
O558 O 0.84751 0.05818 0.26287 0.0
C559 C 0.84704 0.96571 0.24712 0.0
O560 O 0.87246 0.95978 0.25587 0.0
C561 C 0.8828 0.00657 0.31301 0.0
O562 O 0.85529 0.00501 0.31754 0.0
O563 O 0.89469 0.03138 0.22189 0.0
C564 C 0.29168 0.08997 0.49696 0.0
O565 O 0.28043 0.09083 0.4713 0.0
O566 O 0.26059 0.15195 0.47543 0.0
Zn567 Zn 0.24804 0.12653 0.50747 0.0
O568 O 0.2149 0.10108 0.49475 0.0
C569 C 0.21405 0.16184 0.54193 0.0
O570 O 0.19462 0.15486 0.52259 0.0
O571 O 0.28099 0.10357 0.51731 0.0
C572 C 0.20117 0.08546 0.51233 0.0
O573 O 0.20823 0.08628 0.5395 0.0
C574 C 0.24309 0.16521 0.46088 0.0
O575 O 0.21573 0.16132 0.46559 0.0
O576 O 0.23817 0.15136 0.54065 0.0
C577 C 0.32222 0.55264 0.77598 0.0
O578 O 0.30998 0.52878 0.78444 0.0
O579 O 0.3904 0.50776 0.78884 0.0
Zn580 Zn 0.36642 0.5179 0.75532 0.0
O581 O 0.33765 0.4866 0.74505 0.0
C582 C 0.4152 0.51277 0.71923 0.0
O583 O 0.42072 0.49284 0.73717 0.0
O584 O 0.34629 0.55297 0.76384 0.0
C585 C 0.34361 0.46105 0.74393 0.0
O586 O 0.36946 0.45405 0.74997 0.0
C587 C 0.38109 0.49711 0.81196 0.0
O588 O 0.35365 0.4926 0.81581 0.0
O589 O 0.39267 0.52587 0.72216 0.0
C590 C 0.71062 0.42695 0.51753 0.0
O591 O 0.7266 0.4321 0.49503 0.0
O592 O 0.73971 0.36301 0.48376 0.0
Zn593 Zn 0.74686 0.38149 0.52251 0.0
O594 O 0.78279 0.40631 0.52007 0.0
C595 C 0.73939 0.32975 0.55576 0.0
O596 O 0.71944 0.32248 0.53703 0.0
O597 O 0.71476 0.40564 0.53268 0.0
C598 C 0.80599 0.39558 0.51368 0.0
O599 O 0.80624 0.36857 0.50856 0.0
C600 C 0.74945 0.33976 0.47642 0.0
O601 O 0.76412 0.32575 0.4947 0.0
O602 O 0.7526 0.35358 0.55388 0.0
C603 C 0.66496 0.96013 0.77275 0.0
O604 O 0.67485 0.98591 0.77789 0.0
O605 O 0.58983 0.99114 0.79442 0.0
Zn606 Zn 0.61442 0.98814 0.75954 0.0
O607 O 0.63953 0.02328 0.75498 0.0
C608 C 0.56617 0.99253 0.72191 0.0
O609 O 0.55509 0.00474 0.74415 0.0
O610 O 0.63946 0.95553 0.76426 0.0
C611 C 0.63174 0.04817 0.75734 0.0
O612 O 0.60531 0.0527 0.76382 0.0
C613 C 0.60158 0.99707 0.81834 0.0
O614 O 0.62928 0.0014 0.81984 0.0
O615 O 0.59071 0.98303 0.72382 0.0
C616 C 0.99706 0.20234 0.91167 0.0
O617 O 0.97718 0.1945 0.89308 0.0
O618 O 0.96674 0.24203 0.8561 0.0
Zn619 Zn 0.99897 0.2559 0.88193 0.0
O620 O 0.9894 0.29146 0.90223 0.0
C621 C 0.03036 0.282 0.83711 0.0
O622 O 0.00639 0.29432 0.8342 0.0
O623 O 0.00873 0.22694 0.91079 0.0
C624 C 0.00879 0.30475 0.91661 0.0
O625 O 0.03407 0.2947 0.91835 0.0
C626 C 0.94079 0.24643 0.8605 0.0
O627 O 0.93352 0.26017 0.88352 0.0
O628 O 0.03291 0.26427 0.85684 0.0
C629 C 0.5005 0.7126 0.42693 0.0
O630 O 0.47402 0.71963 0.42837 0.0
O631 O 0.47008 0.73987 0.35994 0.0
Zn632 Zn 0.50366 0.75461 0.38355 0.0
O633 O 0.49316 0.78713 0.40842 0.0
C634 C 0.54138 0.75251 0.33547 0.0
O635 O 0.52712 0.72852 0.33058 0.0
O636 O 0.51718 0.72439 0.40887 0.0
C637 C 0.49931 0.8122 0.40088 0.0
O638 O 0.51171 0.81715 0.37623 0.0
C639 C 0.45873 0.75598 0.34235 0.0
O640 O 0.4684 0.78219 0.34044 0.0
O641 O 0.53548 0.76721 0.35715 0.0
C642 C 0.9862 0.80158 0.59597 0.0
O643 O 0.96344 0.80342 0.61181 0.0
O644 O 0.96594 0.764 0.6579 0.0
Zn645 Zn 0.99725 0.75352 0.63132 0.0
O646 O 0.98901 0.71562 0.61322 0.0
C647 C 0.0361 0.73617 0.67452 0.0
O648 O 0.01444 0.71946 0.68212 0.0
O649 O 0.00301 0.78225 0.60043 0.0
C650 C 0.00748 0.70697 0.59606 0.0
O651 O 0.03018 0.72316 0.59038 0.0
C652 C 0.94939 0.74603 0.67018 0.0
O653 O 0.95192 0.71918 0.66536 0.0
O654 O 0.03373 0.75253 0.65354 0.0
C655 C 0.4979 0.30606 0.09975 0.0
O656 O 0.4816 0.31294 0.12108 0.0
O657 O 0.46877 0.26429 0.15505 0.0
Zn658 Zn 0.50122 0.25349 0.12987 0.0
O659 O 0.49199 0.21597 0.11135 0.0
C660 C 0.5448 0.26704 0.17316 0.0
O661 O 0.5279 0.28645 0.18133 0.0
O662 O 0.50828 0.28213 0.09908 0.0
C663 C 0.51188 0.20469 0.09803 0.0
O664 O 0.53695 0.21805 0.09641 0.0
C665 C 0.46538 0.25482 0.18014 0.0
O666 O 0.48282 0.23669 0.18993 0.0
O667 O 0.53761 0.25093 0.15232 0.0
C668 C 0.2418 0.83706 0.88742 0.0
C669 C 0.23568 0.80766 0.88736 0.0
C670 C 0.23251 0.80827 0.93964 0.0
C671 C 0.24242 0.83686 0.9398 0.0
N672 N 0.25761 0.87868 0.91439 0.0
N673 N 0.22784 0.76444 0.91306 0.0
C674 C 0.24731 0.85135 0.91381 0.0
C675 C 0.23146 0.79303 0.91337 0.0
N676 N 0.24159 0.85137 0.86227 0.0
N677 N 0.22409 0.79569 0.96455 0.0
H678 H 0.22685 0.75253 0.89426 0.0
H679 H 0.22799 0.75229 0.93138 0.0
H680 H 0.22495 0.80607 0.98423 0.0
H681 H 0.21396 0.77579 0.96547 0.0
H682 H 0.24303 0.87312 0.86105 0.0
H683 H 0.23749 0.84154 0.84257 0.0
H684 H 0.26505 0.88939 0.8964 0.0
H685 H 0.26011 0.8904 0.93325 0.0
C686 C 0.05379 0.48084 0.37592 0.0
C687 C 0.05876 0.50449 0.39414 0.0
C688 C 0.09122 0.52615 0.35887 0.0
C689 C 0.08896 0.50106 0.34238 0.0
N690 N 0.07141 0.45281 0.3372 0.0
N691 N 0.08461 0.54834 0.40496 0.0
C692 C 0.07097 0.47797 0.35129 0.0
C693 C 0.07806 0.52688 0.38613 0.0
N694 N 0.03234 0.46135 0.38193 0.0
N695 N 0.10518 0.54957 0.34808 0.0
H696 H 0.07518 0.5498 0.42501 0.0
H697 H 0.10093 0.56356 0.40165 0.0
H698 H 0.11475 0.54995 0.32801 0.0
H699 H 0.10503 0.56926 0.35777 0.0
H700 H 0.02573 0.44522 0.3679 0.0
H701 H 0.01938 0.46276 0.39986 0.0
H702 H 0.06117 0.43443 0.34463 0.0
H703 H 0.08407 0.44958 0.31938 0.0
C704 C 0.79049 0.7282 0.93065 0.0
C705 C 0.77476 0.73001 0.90491 0.0
C706 C 0.74076 0.69283 0.92122 0.0
C707 C 0.75768 0.68971 0.94599 0.0
N708 N 0.80132 0.70075 0.97199 0.0
N709 N 0.73776 0.71141 0.87329 0.0
C710 C 0.78344 0.70618 0.94994 0.0
C711 C 0.75061 0.7116 0.89952 0.0
N712 N 0.81132 0.74833 0.93731 0.0
N713 N 0.71527 0.67789 0.91848 0.0
H714 H 0.74447 0.72483 0.8569 0.0
H715 H 0.72196 0.69654 0.8669 0.0
H716 H 0.70816 0.66269 0.93304 0.0
H717 H 0.70041 0.68162 0.90268 0.0
H718 H 0.82127 0.74997 0.95719 0.0
H719 H 0.81696 0.76504 0.92393 0.0
H720 H 0.82184 0.70987 0.97391 0.0
H721 H 0.79668 0.68547 0.98725 0.0
C722 C 0.9472 0.01035 0.36174 0.0
C723 C 0.94669 0.98245 0.37184 0.0
C724 C 0.9028 0.97068 0.34505 0.0
C725 C 0.90291 0.99878 0.33551 0.0
N726 N 0.92104 0.04679 0.33982 0.0
N727 N 0.92124 0.9379 0.37867 0.0
C728 C 0.92386 0.01908 0.34545 0.0
C729 C 0.92352 0.96321 0.3653 0.0
N730 N 0.97048 0.02814 0.3667 0.0
N731 N 0.88402 0.95076 0.33356 0.0
H732 H 0.93618 0.93174 0.39349 0.0
H733 H 0.90339 0.92409 0.37705 0.0
H734 H 0.8685 0.95526 0.31866 0.0
H735 H 0.88515 0.92939 0.3371 0.0
H736 H 0.97359 0.0476 0.35706 0.0
H737 H 0.98775 0.02269 0.379 0.0
H738 H 0.93404 0.06291 0.34879 0.0
H739 H 0.90396 0.05389 0.32826 0.0
C740 C 0.19831 0.23345 0.57177 0.0
C741 C 0.2 0.2286 0.60155 0.0
C742 C 0.20893 0.17929 0.59234 0.0
C743 C 0.20932 0.18471 0.56258 0.0
N744 N 0.20992 0.21797 0.52406 0.0
N745 N 0.21062 0.19844 0.6406 0.0
C746 C 0.20547 0.21207 0.55229 0.0
C747 C 0.2064 0.20193 0.61198 0.0
N748 N 0.18915 0.25829 0.56208 0.0
N749 N 0.20991 0.15237 0.60173 0.0
H750 H 0.2084 0.21446 0.65559 0.0
H751 H 0.21833 0.18042 0.64932 0.0
H752 H 0.21176 0.13531 0.58793 0.0
H753 H 0.20668 0.14659 0.6229 0.0
H754 H 0.18425 0.2618 0.54075 0.0
H755 H 0.18423 0.27475 0.57563 0.0
H756 H 0.21071 0.2382 0.51594 0.0
H757 H 0.21544 0.20301 0.50905 0.0
C758 C 0.46776 0.5579 0.67555 0.0
C759 C 0.47879 0.5374 0.65726 0.0
C760 C 0.44498 0.5017 0.6767 0.0
C761 C 0.43636 0.52148 0.69727 0.0
N762 N 0.44324 0.56716 0.71964 0.0
N763 N 0.48063 0.48914 0.64235 0.0
C764 C 0.4486 0.54932 0.69753 0.0
C765 C 0.4681 0.50909 0.65829 0.0
N766 N 0.47523 0.58565 0.6716 0.0
N767 N 0.43046 0.47621 0.67414 0.0
H768 H 0.49734 0.49385 0.62834 0.0
H769 H 0.47592 0.46773 0.64459 0.0
H770 H 0.41318 0.47023 0.68701 0.0
H771 H 0.43383 0.46201 0.65766 0.0
H772 H 0.4655 0.60173 0.68225 0.0
H773 H 0.48931 0.59276 0.65575 0.0
H774 H 0.45404 0.58661 0.72253 0.0
H775 H 0.43002 0.56158 0.73671 0.0
C776 C 0.73464 0.27166 0.61104 0.0
C777 C 0.76369 0.26972 0.61835 0.0
C778 C 0.77696 0.30532 0.58289 0.0
C779 C 0.74776 0.30955 0.57781 0.0
N780 N 0.69902 0.30133 0.5929 0.0
N781 N 0.81168 0.29009 0.61657 0.0
C782 C 0.72661 0.29404 0.59358 0.0
C783 C 0.7846 0.2883 0.60598 0.0
N784 N 0.71482 0.2516 0.61977 0.0
N785 N 0.79742 0.316 0.56477 0.0
H786 H 0.81795 0.27845 0.63399 0.0
H787 H 0.82699 0.30527 0.61003 0.0
H788 H 0.79289 0.32682 0.54628 0.0
H789 H 0.81865 0.31121 0.56624 0.0
H790 H 0.69386 0.25056 0.61252 0.0
H791 H 0.71986 0.23447 0.63202 0.0
H792 H 0.68336 0.2923 0.60612 0.0
H793 H 0.69244 0.31849 0.5816 0.0
C794 C 0.53413 0.96491 0.65175 0.0
C795 C 0.52654 0.9902 0.63898 0.0
C796 C 0.54497 0.01709 0.6805 0.0
C797 C 0.55121 0.99167 0.69401 0.0
N798 N 0.54681 0.94121 0.69515 0.0
N799 N 0.51944 0.0396 0.64292 0.0
C800 C 0.54438 0.96549 0.68037 0.0
C801 C 0.53027 0.01606 0.65396 0.0
N802 N 0.5323 0.9405 0.63622 0.0
N803 N 0.5545 0.04225 0.69218 0.0
H804 H 0.50895 0.03974 0.62328 0.0
H805 H 0.51869 0.05838 0.65427 0.0
H806 H 0.5656 0.04407 0.71144 0.0
H807 H 0.5536 0.06125 0.68163 0.0
H808 H 0.5406 0.922 0.6431 0.0
H809 H 0.52416 0.93916 0.61547 0.0
H810 H 0.53946 0.9216 0.68745 0.0
H811 H 0.55387 0.94087 0.71628 0.0
C812 C 0.90505 0.23554 0.78816 0.0
C813 C 0.88006 0.21934 0.79559 0.0
C814 C 0.89566 0.21934 0.84564 0.0
C815 C 0.91921 0.23777 0.83856 0.0
N816 N 0.9423 0.26882 0.80433 0.0
N817 N 0.84883 0.20004 0.83204 0.0
C818 C 0.92279 0.24741 0.81015 0.0
C819 C 0.87454 0.21246 0.82456 0.0
N820 N 0.91242 0.23882 0.76012 0.0
N821 N 0.89407 0.20745 0.87207 0.0
H822 H 0.83278 0.19488 0.81721 0.0
H823 H 0.84251 0.19715 0.85316 0.0
H824 H 0.90931 0.21164 0.88796 0.0
H825 H 0.87902 0.19157 0.87739 0.0
H826 H 0.93195 0.24791 0.75368 0.0
H827 H 0.90027 0.23009 0.74327 0.0
H828 H 0.94394 0.27848 0.7845 0.0
H829 H 0.95466 0.27906 0.82015 0.0
C830 C 0.46677 0.87647 0.43258 0.0
C831 C 0.4874 0.88443 0.45369 0.0
C832 C 0.5126 0.84199 0.4436 0.0
C833 C 0.4939 0.83584 0.42029 0.0
N834 N 0.45415 0.84745 0.39111 0.0
N835 N 0.53151 0.87672 0.47779 0.0
C836 C 0.47118 0.85313 0.41439 0.0
C837 C 0.51061 0.86757 0.45902 0.0
N838 N 0.44266 0.89091 0.43043 0.0
N839 N 0.53228 0.82339 0.45096 0.0
H840 H 0.53072 0.8952 0.4897 0.0
H841 H 0.55063 0.86714 0.48014 0.0
H842 H 0.53518 0.80497 0.4395 0.0
H843 H 0.54434 0.82508 0.46963 0.0
H844 H 0.42544 0.8846 0.41749 0.0
H845 H 0.4388 0.9081 0.44346 0.0
H846 H 0.4394 0.86101 0.38358 0.0
H847 H 0.45582 0.82971 0.37821 0.0
C848 C 0.10045 0.30649 0.80282 0.0
C849 C 0.09461 0.29913 0.77388 0.0
C850 C 0.04846 0.27703 0.78739 0.0
C851 C 0.0531 0.28685 0.81581 0.0
N852 N 0.08178 0.31319 0.85053 0.0
N853 N 0.06246 0.27981 0.73765 0.0
C854 C 0.07874 0.30202 0.82361 0.0
C855 C 0.06846 0.28499 0.76589 0.0
N856 N 0.12686 0.31743 0.8104 0.0
N857 N 0.02537 0.25934 0.78119 0.0
H858 H 0.07697 0.28437 0.72133 0.0
H859 H 0.04252 0.27271 0.73012 0.0
H860 H 0.0103 0.25297 0.79642 0.0
H861 H 0.02231 0.24903 0.76164 0.0
H862 H 0.13352 0.3205 0.83147 0.0
H863 H 0.143 0.3216 0.79558 0.0
H864 H 0.09852 0.32709 0.85671 0.0
H865 H 0.06641 0.31014 0.86635 0.0
C866 C 0.50711 0.6463 0.47028 0.0
C867 C 0.53131 0.65405 0.48727 0.0
C868 C 0.53406 0.70076 0.46608 0.0
C869 C 0.51131 0.6923 0.44741 0.0
N870 N 0.4795 0.65554 0.42799 0.0
N871 N 0.57123 0.68641 0.49761 0.0
C872 C 0.49871 0.66463 0.44846 0.0
C873 C 0.54584 0.68062 0.48401 0.0
N874 N 0.49165 0.62184 0.47557 0.0
N875 N 0.54347 0.72833 0.4678 0.0
H876 H 0.58054 0.67218 0.51098 0.0
H877 H 0.58429 0.70425 0.49363 0.0
H878 H 0.53494 0.74398 0.45564 0.0
H879 H 0.55785 0.73618 0.48324 0.0
H880 H 0.47203 0.61656 0.46611 0.0
H881 H 0.49733 0.60774 0.49116 0.0
H882 H 0.47184 0.63476 0.42586 0.0
H883 H 0.4731 0.66823 0.41145 0.0
C884 C 0.88821 0.78461 0.70147 0.0
C885 C 0.8895 0.77639 0.73045 0.0
C886 C 0.93032 0.74854 0.72004 0.0
C887 C 0.92807 0.75548 0.69074 0.0
N888 N 0.90207 0.7758 0.65247 0.0
N889 N 0.90813 0.74696 0.7667 0.0
C890 C 0.90621 0.77234 0.68112 0.0
C891 C 0.90941 0.75717 0.73951 0.0
N892 N 0.87025 0.80464 0.69358 0.0
N893 N 0.95327 0.73504 0.72957 0.0
H894 H 0.89356 0.75332 0.78182 0.0
H895 H 0.91992 0.73054 0.77361 0.0
H896 H 0.9692 0.72852 0.7161 0.0
H897 H 0.95785 0.73235 0.75111 0.0
H898 H 0.87063 0.81395 0.67357 0.0
H899 H 0.8561 0.81338 0.70774 0.0
H900 H 0.88476 0.78544 0.64393 0.0
H901 H 0.91465 0.76686 0.63695 0.0
C902 C 0.98011 0.84735 0.53029 0.0
C903 C 0.00768 0.86085 0.52982 0.0
C904 C 0.01935 0.8386 0.57492 0.0
C905 C 0.99304 0.82262 0.57365 0.0
N906 N 0.95003 0.80854 0.54792 0.0
N907 N 0.05524 0.86624 0.54907 0.0
C908 C 0.97375 0.8262 0.55082 0.0
C909 C 0.0278 0.85564 0.55143 0.0
N910 N 0.95986 0.85516 0.51149 0.0
N911 N 0.03575 0.83837 0.59905 0.0
H912 H 0.0623 0.87894 0.53224 0.0
H913 H 0.07156 0.86051 0.56245 0.0
H914 H 0.02997 0.82672 0.61705 0.0
H915 H 0.05366 0.85182 0.60234 0.0
H916 H 0.93856 0.84825 0.51276 0.0
H917 H 0.96385 0.87047 0.49605 0.0
H918 H 0.93685 0.80818 0.53002 0.0
H919 H 0.94481 0.79248 0.56221 0.0
C920 C 0.1147 0.72931 0.68859 0.0
C921 C 0.11656 0.73701 0.71791 0.0
C922 C 0.06561 0.74469 0.71876 0.0
C923 C 0.0635 0.73553 0.68985 0.0
N924 N 0.08439 0.71378 0.64892 0.0
N925 N 0.09367 0.74758 0.76236 0.0
C926 C 0.08761 0.72634 0.6752 0.0
C927 C 0.09193 0.74333 0.73346 0.0
N928 N 0.13892 0.72557 0.67336 0.0
N929 N 0.04283 0.75582 0.73174 0.0
H930 H 0.11272 0.74724 0.77371 0.0
H931 H 0.07602 0.74925 0.77543 0.0
H932 H 0.02319 0.75715 0.72168 0.0
H933 H 0.04389 0.76572 0.75164 0.0
H934 H 0.13923 0.72318 0.65123 0.0
H935 H 0.15913 0.7269 0.68256 0.0
H936 H 0.10059 0.70397 0.63843 0.0
H937 H 0.06477 0.71085 0.63864 0.0
C938 C 0.99726 0.62769 0.58815 0.0
C939 C 0.00127 0.62444 0.55831 0.0
C940 C 0.00446 0.67544 0.55293 0.0
C941 C 0.00407 0.67859 0.58311 0.0
N942 N 0.00501 0.65753 0.6298 0.0
N943 N 0.01256 0.64489 0.51253 0.0
C944 C 0.00162 0.65468 0.60087 0.0
C945 C 0.00586 0.64824 0.5407 0.0
N946 N 0.98875 0.60504 0.60425 0.0
N947 N 0.0025 0.69835 0.53594 0.0
H948 H 0.01369 0.6253 0.50274 0.0
H949 H 0.01926 0.66146 0.49943 0.0
H950 H 0.00082 0.71855 0.54412 0.0
H951 H 0.99976 0.69702 0.51387 0.0
H952 H 0.9826 0.60665 0.62553 0.0
H953 H 0.98528 0.58492 0.59565 0.0
H954 H 0.00655 0.64059 0.64342 0.0
H955 H 0.00901 0.67683 0.64002 0.0
C956 C 0.77734 0.92174 0.24472 0.0
C957 C 0.78311 0.90195 0.22303 0.0
C958 C 0.83079 0.92422 0.21671 0.0
C959 C 0.82561 0.94295 0.23958 0.0
N960 N 0.79651 0.95583 0.27935 0.0
N961 N 0.81671 0.88071 0.19212 0.0
C962 C 0.79959 0.94065 0.25476 0.0
C963 C 0.81032 0.90206 0.21019 0.0
N964 N 0.75035 0.92311 0.25503 0.0
N965 N 0.85455 0.92843 0.20028 0.0
H966 H 0.80213 0.86423 0.18674 0.0
H967 H 0.83707 0.87799 0.18444 0.0
H968 H 0.86991 0.94461 0.20409 0.0
H969 H 0.85791 0.91742 0.18141 0.0
H970 H 0.74412 0.93917 0.26839 0.0
H971 H 0.73351 0.9094 0.2485 0.0
H972 H 0.77919 0.95292 0.29296 0.0
H973 H 0.81254 0.96954 0.28766 0.0
C974 C 0.77051 0.11499 0.25769 0.0
C975 C 0.78296 0.1367 0.27526 0.0
C976 C 0.81742 0.1047 0.29347 0.0
C977 C 0.80718 0.08411 0.27335 0.0
N978 N 0.77641 0.07066 0.2336 0.0
N979 N 0.81974 0.15359 0.30805 0.0
C980 C 0.78417 0.08938 0.25489 0.0
C981 C 0.80677 0.13191 0.29277 0.0
N982 N 0.74544 0.11881 0.24391 0.0
N983 N 0.83671 0.09794 0.31378 0.0
H984 H 0.81211 0.17364 0.30868 0.0
H985 H 0.83912 0.1523 0.31852 0.0
H986 H 0.84471 0.0781 0.31512 0.0
H987 H 0.84286 0.11107 0.33085 0.0
H988 H 0.73368 0.10279 0.23327 0.0
H989 H 0.73509 0.13749 0.24515 0.0
H990 H 0.76203 0.07479 0.21748 0.0
H991 H 0.78607 0.0518 0.2305 0.0
C992 C 0.35978 0.94558 0.99431 0.0
C993 C 0.38033 0.94448 0.01639 0.0
C994 C 0.34723 0.91465 0.04444 0.0
C995 C 0.32822 0.91262 0.02087 0.0
N996 N 0.31815 0.9231 0.97157 0.0
N997 N 0.39568 0.92404 0.06039 0.0
C998 C 0.33484 0.9274 0.99532 0.0
C999 C 0.37464 0.92794 0.04092 0.0
N1000 N 0.36379 0.96442 0.97271 0.0
N1001 N 0.33869 0.90491 0.07057 0.0
H1002 H 0.41623 0.93311 0.05849 0.0
H1003 H 0.39349 0.90973 0.07699 0.0
H1004 H 0.31827 0.89626 0.07433 0.0
H1005 H 0.3507 0.90827 0.08914 0.0
H1006 H 0.34821 0.96826 0.95767 0.0
H1007 H 0.38182 0.97805 0.97131 0.0
H1008 H 0.32374 0.93086 0.95152 0.0
H1009 H 0.29987 0.9098 0.9712 0.0
C1010 C 0.20571 0.40083 0.30806 0.0
C1011 C 0.22619 0.3947 0.2871 0.0
C1012 C 0.20394 0.42542 0.25308 0.0
C1013 C 0.18598 0.43429 0.2752 0.0
N1014 N 0.16945 0.43154 0.32379 0.0
N1015 N 0.24585 0.40106 0.24 0.0
C1016 C 0.18652 0.42205 0.30265 0.0
C1017 C 0.22541 0.40674 0.25955 0.0
N1018 N 0.2046 0.3862 0.33304 0.0
N1019 N 0.20015 0.4347 0.22586 0.0
H1020 H 0.26124 0.38668 0.24369 0.0
H1021 H 0.2486 0.41155 0.22075 0.0
H1022 H 0.18466 0.44852 0.22059 0.0
H1023 H 0.21064 0.4271 0.20813 0.0
H1024 H 0.18852 0.38759 0.34806 0.0
H1025 H 0.21871 0.37089 0.33788 0.0
H1026 H 0.17115 0.42609 0.34516 0.0
H1027 H 0.15428 0.44616 0.3202 0.0
C1028 C 0.1625 0.02716 0.46925 0.0
C1029 C 0.1349 0.02732 0.48117 0.0
C1030 C 0.15013 0.06724 0.51192 0.0
C1031 C 0.17834 0.06536 0.50187 0.0
N1032 N 0.21257 0.04025 0.47506 0.0
N1033 N 0.103 0.0446 0.51648 0.0
C1034 C 0.18487 0.04447 0.48156 0.0
C1035 C 0.12885 0.04657 0.50327 0.0
N1036 N 0.1672 0.01088 0.44575 0.0
N1037 N 0.14345 0.08939 0.52883 0.0
H1038 H 0.08673 0.03004 0.51037 0.0
H1039 H 0.09839 0.0559 0.53485 0.0
H1040 H 0.15841 0.10503 0.53549 0.0
H1041 H 0.12272 0.09358 0.53429 0.0
H1042 H 0.18606 0.01221 0.43419 0.0
H1043 H 0.15139 0.99771 0.43624 0.0
H1044 H 0.21878 0.0234 0.46278 0.0
H1045 H 0.22967 0.052 0.48415 0.0
C1046 C 0.6717 0.11171 0.72496 0.0
C1047 C 0.69814 0.11048 0.73927 0.0
C1048 C 0.67778 0.07363 0.77024 0.0
C1049 C 0.65297 0.07177 0.75297 0.0
N1050 N 0.62707 0.08724 0.71201 0.0
N1051 N 0.72759 0.08862 0.77384 0.0
C1052 C 0.6499 0.09057 0.73002 0.0
C1053 C 0.70148 0.09116 0.76166 0.0
N1054 N 0.66744 0.13322 0.70671 0.0
N1055 N 0.67839 0.05908 0.7952 0.0
H1056 H 0.74549 0.10121 0.76834 0.0
H1057 H 0.73201 0.07264 0.78784 0.0
H1058 H 0.66106 0.0466 0.80242 0.0
H1059 H 0.69482 0.06161 0.81008 0.0
H1060 H 0.64775 0.13685 0.6978 0.0
H1061 H 0.68305 0.149 0.70254 0.0
H1062 H 0.62538 0.0982 0.69303 0.0
H1063 H 0.61073 0.07192 0.7148 0.0
C1064 C 0.3448 0.03998 0.52555 0.0
C1065 C 0.36886 0.0477 0.50864 0.0
C1066 C 0.34307 0.08482 0.48634 0.0
C1067 C 0.31824 0.07554 0.50136 0.0
N1068 N 0.29391 0.04186 0.53206 0.0
N1069 N 0.38983 0.07415 0.46965 0.0
C1070 C 0.31866 0.05248 0.52019 0.0
C1071 C 0.36767 0.06916 0.48805 0.0
N1072 N 0.34716 0.0212 0.54714 0.0
N1073 N 0.34359 0.10935 0.4715 0.0
H1074 H 0.40841 0.06335 0.47043 0.0
H1075 H 0.38887 0.08728 0.4521 0.0
H1076 H 0.3262 0.1218 0.47017 0.0
H1077 H 0.36199 0.11876 0.46274 0.0
H1078 H 0.33136 0.017 0.56225 0.0
H1079 H 0.36584 0.01127 0.5513 0.0
H1080 H 0.29228 0.02327 0.54349 0.0
H1081 H 0.27436 0.0504 0.52853 0.0
C1082 C 0.66968 0.47824 0.56177 0.0
C1083 C 0.64997 0.48692 0.54119 0.0
C1084 C 0.66722 0.45303 0.50665 0.0
C1085 C 0.68914 0.44684 0.52606 0.0
N1086 N 0.71433 0.45721 0.5703 0.0
N1087 N 0.6319 0.48534 0.49294 0.0
C1088 C 0.69114 0.46029 0.55324 0.0
C1089 C 0.6492 0.47502 0.51331 0.0
N1090 N 0.66757 0.48677 0.58961 0.0
N1091 N 0.663 0.43724 0.48235 0.0
H1092 H 0.61814 0.50118 0.49713 0.0
H1093 H 0.63275 0.47974 0.47142 0.0
H1094 H 0.67547 0.42065 0.477 0.0
H1095 H 0.64559 0.43883 0.46884 0.0
H1096 H 0.67938 0.47871 0.60613 0.0
H1097 H 0.65215 0.5 0.59667 0.0
H1098 H 0.71839 0.46896 0.58887 0.0
H1099 H 0.73101 0.44492 0.56463 0.0
C1100 C 0.75664 0.33329 0.39569 0.0
C1101 C 0.74236 0.30673 0.39085 0.0
C1102 C 0.72928 0.30396 0.44144 0.0
C1103 C 0.74586 0.32918 0.44676 0.0
N1104 N 0.77827 0.36634 0.43007 0.0
N1105 N 0.717 0.26537 0.40881 0.0
C1106 C 0.76017 0.34361 0.42415 0.0
C1107 C 0.72916 0.29167 0.41366 0.0
N1108 N 0.76668 0.34871 0.37303 0.0
N1109 N 0.71289 0.29231 0.46277 0.0
H1110 H 0.71537 0.25619 0.38852 0.0
H1111 H 0.71009 0.25191 0.42502 0.0
H1112 H 0.71237 0.30085 0.48333 0.0
H1113 H 0.69802 0.2756 0.45963 0.0
H1114 H 0.77434 0.36952 0.37476 0.0
H1115 H 0.76549 0.34138 0.35197 0.0
H1116 H 0.79184 0.37582 0.41507 0.0
H1117 H 0.78146 0.3746 0.4506 0.0
C1118 C 0.55236 0.97649 0.8799 0.0
C1119 C 0.55437 0.00152 0.89647 0.0
C1120 C 0.58376 0.0247 0.85957 0.0
C1121 C 0.58431 0.99881 0.84455 0.0
N1122 N 0.57244 0.94907 0.84199 0.0
N1123 N 0.574 0.04869 0.90405 0.0
C1124 C 0.56932 0.97444 0.855 0.0
C1125 C 0.57056 0.02548 0.88681 0.0
N1126 N 0.53392 0.95484 0.8878 0.0
N1127 N 0.59507 0.04868 0.84733 0.0
H1128 H 0.56404 0.05031 0.92382 0.0
H1129 H 0.58821 0.06558 0.89974 0.0
H1130 H 0.60474 0.04892 0.82732 0.0
H1131 H 0.59273 0.06863 0.85578 0.0
H1132 H 0.52918 0.93724 0.87501 0.0
H1133 H 0.52149 0.95546 0.90617 0.0
H1134 H 0.56471 0.9301 0.85048 0.0
H1135 H 0.58482 0.94661 0.82381 0.0
C1136 C 0.25943 0.20363 0.39141 0.0
C1137 C 0.27396 0.22837 0.40213 0.0
C1138 C 0.26925 0.21119 0.45121 0.0
C1139 C 0.25369 0.1869 0.4406 0.0
N1140 N 0.23192 0.16033 0.40149 0.0
N1141 N 0.29122 0.25733 0.44164 0.0
C1142 C 0.24814 0.18325 0.41092 0.0
C1143 C 0.27853 0.23256 0.43189 0.0
N1144 N 0.25699 0.19949 0.36251 0.0
N1145 N 0.27522 0.21373 0.4798 0.0
H1146 H 0.29973 0.27285 0.42813 0.0
H1147 H 0.29222 0.2634 0.46302 0.0
H1148 H 0.26693 0.19981 0.49504 0.0
H1149 H 0.28936 0.22895 0.48861 0.0
H1150 H 0.24945 0.18079 0.35295 0.0
H1151 H 0.26401 0.21446 0.34768 0.0
H1152 H 0.22425 0.15777 0.38072 0.0
H1153 H 0.22484 0.14408 0.41486 0.0
C1154 C 0.44377 0.5027 0.86287 0.0
C1155 C 0.44639 0.47412 0.86967 0.0
C1156 C 0.4046 0.46058 0.84033 0.0
C1157 C 0.40161 0.48925 0.83402 0.0
N1158 N 0.41401 0.53795 0.84399 0.0
N1159 N 0.42647 0.42659 0.8702 0.0
C1160 C 0.41991 0.51044 0.84677 0.0
C1161 C 0.4258 0.45329 0.86013 0.0
N1162 N 0.46463 0.52227 0.87094 0.0
N1163 N 0.3883 0.44025 0.82621 0.0
H1164 H 0.44197 0.42049 0.88443 0.0
H1165 H 0.41041 0.41112 0.86645 0.0
H1166 H 0.37245 0.44465 0.81164 0.0
H1167 H 0.39181 0.41899 0.8273 0.0
H1168 H 0.46573 0.54284 0.86377 0.0
H1169 H 0.48202 0.51751 0.88344 0.0
H1170 H 0.42484 0.5543 0.85504 0.0
H1171 H 0.39648 0.54427 0.83258 0.0
C1172 C 0.74627 0.73647 0.08398 0.0
C1173 C 0.7302 0.72853 0.10843 0.0
C1174 C 0.73518 0.67897 0.09662 0.0
C1175 C 0.74849 0.68697 0.07056 0.0
N1176 N 0.76155 0.72332 0.03675 0.0
N1177 N 0.70598 0.69253 0.13645 0.0
C1178 C 0.75279 0.71573 0.06353 0.0
C1179 C 0.72375 0.69983 0.11439 0.0
N1180 N 0.75573 0.7638 0.08055 0.0
N1181 N 0.73431 0.65158 0.10486 0.0
H1182 H 0.6975 0.70723 0.15012 0.0
H1183 H 0.69791 0.67212 0.13989 0.0
H1184 H 0.74271 0.63578 0.09254 0.0
H1185 H 0.72757 0.6449 0.12496 0.0
H1186 H 0.77009 0.7703 0.06475 0.0
H1187 H 0.75133 0.77964 0.09508 0.0
H1188 H 0.7621 0.74386 0.02949 0.0
H1189 H 0.76552 0.70884 0.0207 0.0
C1190 C 0.96935 0.06249 0.17422 0.0
C1191 C 0.97938 0.042 0.15526 0.0
C1192 C 0.94557 0.00663 0.17529 0.0
C1193 C 0.93786 0.02636 0.19631 0.0
N1194 N 0.94621 0.07167 0.21911 0.0
N1195 N 0.97999 0.9938 0.13978 0.0
C1196 C 0.95065 0.05399 0.19662 0.0
C1197 C 0.96827 0.01382 0.1563 0.0
N1198 N 0.97728 0.09016 0.17047 0.0
N1199 N 0.93055 0.98139 0.17282 0.0
H1200 H 0.99639 0.99836 0.12536 0.0
H1201 H 0.97499 0.97243 0.14192 0.0
H1202 H 0.91355 0.97555 0.18611 0.0
H1203 H 0.93321 0.9673 0.15608 0.0
H1204 H 0.96823 0.10632 0.18167 0.0
H1205 H 0.99106 0.09721 0.15434 0.0
H1206 H 0.95744 0.0909 0.22199 0.0
H1207 H 0.93332 0.06612 0.23644 0.0
C1208 C 0.27952 0.79628 0.11993 0.0
C1209 C 0.27197 0.76754 0.11487 0.0
C1210 C 0.24776 0.77932 0.0706 0.0
C1211 C 0.25888 0.80742 0.07351 0.0
N1212 N 0.28806 0.84228 0.09961 0.0
N1213 N 0.25139 0.7309 0.08418 0.0
C1214 C 0.27523 0.81595 0.09798 0.0
C1215 C 0.25661 0.75882 0.08994 0.0
N1216 N 0.29047 0.80478 0.14587 0.0
N1217 N 0.22802 0.77243 0.04987 0.0
H1218 H 0.25719 0.71521 0.09799 0.0
H1219 H 0.24326 0.72322 0.06475 0.0
H1220 H 0.2204 0.78712 0.03588 0.0
H1221 H 0.21708 0.75292 0.0484 0.0
H1222 H 0.29358 0.82574 0.15197 0.0
H1223 H 0.29409 0.79085 0.16234 0.0
H1224 H 0.30303 0.84849 0.11516 0.0
H1225 H 0.28554 0.85745 0.08417 0.0
C1226 C 0.04218 0.46861 0.14798 0.0
C1227 C 0.03458 0.49399 0.13541 0.0
C1228 C 0.05229 0.52042 0.17751 0.0
C1229 C 0.05818 0.49486 0.19092 0.0
N1230 N 0.05349 0.44437 0.19145 0.0
N1231 N 0.02677 0.54321 0.14015 0.0
C1232 C 0.05161 0.46884 0.17687 0.0
C1233 C 0.03787 0.51965 0.15083 0.0
N1234 N 0.04129 0.44446 0.13204 0.0
N1235 N 0.06186 0.54547 0.18941 0.0
H1236 H 0.01615 0.54347 0.12058 0.0
H1237 H 0.02581 0.56179 0.15182 0.0
H1238 H 0.07299 0.5471 0.20866 0.0
H1239 H 0.06107 0.56453 0.17894 0.0
H1240 H 0.04963 0.426 0.13897 0.0
H1241 H 0.03416 0.4434 0.11092 0.0
H1242 H 0.04624 0.4249 0.18331 0.0
H1243 H 0.05984 0.44376 0.21278 0.0
C1244 C 0.38919 0.72195 0.31366 0.0
C1245 C 0.39405 0.72378 0.28383 0.0
C1246 C 0.44207 0.74442 0.29258 0.0
C1247 C 0.43644 0.74471 0.32235 0.0
N1248 N 0.40351 0.73768 0.36128 0.0
N1249 N 0.42296 0.74066 0.2445 0.0
C1250 C 0.40969 0.73447 0.33296 0.0
C1251 C 0.41986 0.73623 0.27318 0.0
N1252 N 0.36527 0.70769 0.3235 0.0
N1253 N 0.46903 0.75062 0.28291 0.0
H1254 H 0.40737 0.73446 0.22952 0.0
H1255 H 0.43996 0.7525 0.23576 0.0
H1256 H 0.48606 0.75606 0.29647 0.0
H1257 H 0.47515 0.74784 0.26177 0.0
H1258 H 0.36197 0.70284 0.34491 0.0
H1259 H 0.34947 0.69892 0.30996 0.0
H1260 H 0.38339 0.73342 0.36983 0.0
H1261 H 0.41799 0.74677 0.37602 0.0
C1262 C 0.98802 0.37972 0.92923 0.0
C1263 C 0.99614 0.38371 0.95824 0.0
C1264 C 0.00786 0.33454 0.96095 0.0
C1265 C 0.00322 0.33159 0.93107 0.0
N1266 N 0.99325 0.35277 0.88575 0.0
N1267 N 0.01737 0.36624 0.00098 0.0
C1268 C 0.99427 0.3545 0.91491 0.0
C1269 C 0.00697 0.36145 0.97397 0.0
N1270 N 0.97389 0.39987 0.91552 0.0
N1271 N 0.01212 0.31145 0.97707 0.0
H1272 H 0.01695 0.38561 0.01135 0.0
H1273 H 0.02849 0.35167 0.01223 0.0
H1274 H 0.01229 0.29128 0.96839 0.0
H1275 H 0.01271 0.31185 0.99931 0.0
H1276 H 0.96478 0.39692 0.89533 0.0
H1277 H 0.96895 0.41864 0.92536 0.0
H1278 H 0.98993 0.36984 0.87276 0.0
H1279 H 0.99835 0.33497 0.8743 0.0
C1280 C 0.61152 0.76008 0.29539 0.0
C1281 C 0.60513 0.78064 0.27506 0.0
C1282 C 0.55833 0.78512 0.29674 0.0
C1283 C 0.56366 0.7627 0.3153 0.0
N1284 N 0.59396 0.72686 0.33095 0.0
N1285 N 0.57103 0.80947 0.25306 0.0
C1286 C 0.58985 0.74953 0.31416 0.0
C1287 C 0.57817 0.79236 0.27488 0.0
N1288 N 0.63858 0.75141 0.29737 0.0
N1289 N 0.53442 0.79966 0.3001 0.0
H1290 H 0.58488 0.81517 0.2365 0.0
H1291 H 0.55062 0.81608 0.24991 0.0
H1292 H 0.51885 0.79448 0.31519 0.0
H1293 H 0.531 0.81819 0.28946 0.0
H1294 H 0.64546 0.73875 0.31365 0.0
H1295 H 0.65496 0.75872 0.28396 0.0
H1296 H 0.61113 0.71427 0.32872 0.0
H1297 H 0.57928 0.71952 0.34614 0.0
C1298 C 0.99706 0.15141 0.97382 0.0
C1299 C 0.02652 0.14725 0.97605 0.0
C1300 C 0.03561 0.17539 0.93323 0.0
C1301 C 0.00675 0.18233 0.93306 0.0
N1302 N 0.96054 0.17999 0.95525 0.0
N1303 N 0.07457 0.15793 0.96035 0.0
C1304 C 0.98751 0.171 0.95378 0.0
C1305 C 0.04602 0.1599 0.95637 0.0
N1306 N 0.9782 0.13626 0.99055 0.0
N1307 N 0.05282 0.18274 0.91074 0.0
H1308 H 0.08308 0.14648 0.97683 0.0
H1309 H 0.08991 0.16943 0.9487 0.0
H1310 H 0.04582 0.19363 0.8931 0.0
H1311 H 0.07318 0.17576 0.9082 0.0
H1312 H 0.95627 0.13613 0.98786 0.0
H1313 H 0.98451 0.12189 0.00559 0.0
H1314 H 0.94659 0.17489 0.97184 0.0
H1315 H 0.95278 0.1945 0.94117 0.0
C1316 C 0.40452 0.25383 0.23336 0.0
C1317 C 0.40083 0.28289 0.23686 0.0
C1318 C 0.43984 0.29378 0.20364 0.0
C1319 C 0.44234 0.26464 0.19862 0.0
N1320 N 0.42248 0.21725 0.20347 0.0
N1321 N 0.41032 0.3302 0.22072 0.0
C1322 C 0.42334 0.24472 0.21198 0.0
C1323 C 0.41703 0.30276 0.2205 0.0
N1324 N 0.39082 0.23499 0.25109 0.0
N1325 N 0.46009 0.31288 0.19379 0.0
H1326 H 0.39371 0.33754 0.23284 0.0
H1327 H 0.4194 0.34509 0.20688 0.0
H1328 H 0.47763 0.3074 0.18199 0.0
H1329 H 0.46098 0.33399 0.1996 0.0
H1330 H 0.39519 0.21389 0.25166 0.0
H1331 H 0.3767 0.2408 0.26688 0.0
H1332 H 0.40712 0.20234 0.21043 0.0
H1333 H 0.43525 0.2099 0.18721 0.0
C1334 C 0.54054 0.35289 0.04847 0.0
C1335 C 0.51847 0.36338 0.03173 0.0
C1336 C 0.48288 0.3354 0.05886 0.0
C1337 C 0.5048 0.32634 0.0768 0.0
N1338 N 0.55369 0.33043 0.09238 0.0
N1339 N 0.4686 0.36861 0.02348 0.0
C1340 C 0.53345 0.33617 0.07263 0.0
C1341 C 0.48959 0.35584 0.0377 0.0
N1342 N 0.56827 0.3583 0.04083 0.0
N1343 N 0.45591 0.32351 0.06115 0.0
H1344 H 0.47276 0.38334 0.00751 0.0
H1345 H 0.44723 0.36634 0.02901 0.0
H1346 H 0.45018 0.30832 0.07623 0.0
H1347 H 0.43973 0.32692 0.04664 0.0
H1348 H 0.58514 0.3486 0.05015 0.0
H1349 H 0.57434 0.37096 0.02362 0.0
H1350 H 0.57431 0.33947 0.09218 0.0
H1351 H 0.54926 0.31854 0.11057 0.0
C1352 C 0.61658 0.2858 0.20789 0.0
C1353 C 0.62551 0.25886 0.21485 0.0
C1354 C 0.57985 0.23772 0.19797 0.0
C1355 C 0.57244 0.26424 0.18779 0.0
N1356 N 0.58678 0.31248 0.17762 0.0
N1357 N 0.61778 0.20859 0.21192 0.0
C1358 C 0.59159 0.28806 0.1913 0.0
C1359 C 0.60774 0.23461 0.20861 0.0
N1360 N 0.63154 0.30929 0.21775 0.0
N1361 N 0.55997 0.21578 0.19866 0.0
H1362 H 0.63819 0.20542 0.21941 0.0
H1363 H 0.60683 0.19028 0.20479 0.0
H1364 H 0.53902 0.21736 0.192 0.0
H1365 H 0.56345 0.19684 0.20854 0.0
H1366 H 0.62432 0.32937 0.21577 0.0
H1367 H 0.64974 0.30856 0.23038 0.0
H1368 H 0.60159 0.3295 0.17713 0.0
H1369 H 0.56941 0.31478 0.1642 0.0
C1370 C 0.51329 0.1453 0.04365 0.0
C1371 C 0.50227 0.12239 0.06003 0.0
C1372 C 0.49809 0.15328 0.1017 0.0
C1373 C 0.50721 0.17656 0.08475 0.0
N1374 N 0.51739 0.19568 0.03813 0.0
N1375 N 0.47849 0.10533 0.1025 0.0
C1376 C 0.51306 0.17285 0.05527 0.0
C1377 C 0.49287 0.12664 0.08842 0.0
N1378 N 0.52492 0.14068 0.01743 0.0
N1379 N 0.49592 0.1562 0.13069 0.0
H1380 H 0.47423 0.08551 0.09341 0.0
H1381 H 0.46851 0.10803 0.12208 0.0
H1382 H 0.50026 0.17515 0.14148 0.0
H1383 H 0.49241 0.13931 0.14437 0.0
H1384 H 0.53616 0.15619 0.00595 0.0
H1385 H 0.52541 0.1208 0.00812 0.0
H1386 H 0.51889 0.19429 0.01597 0.0
H1387 H 0.51667 0.21622 0.04571 0.0
C1388 C 0.27295 0.41871 0.74189 0.0
C1389 C 0.27686 0.401 0.7179 0.0
C1390 C 0.3246 0.42279 0.71069 0.0
C1391 C 0.32133 0.43934 0.73569 0.0
N1392 N 0.29506 0.44887 0.77849 0.0
N1393 N 0.3079 0.38209 0.68275 0.0
C1394 C 0.29625 0.43608 0.7523 0.0
C1395 C 0.30321 0.40176 0.70333 0.0
N1396 N 0.24671 0.4197 0.75409 0.0
N1397 N 0.34737 0.42814 0.69315 0.0
H1398 H 0.2926 0.36649 0.67672 0.0
H1399 H 0.32765 0.3797 0.67345 0.0
H1400 H 0.36332 0.44361 0.6975 0.0
H1401 H 0.34926 0.41892 0.67305 0.0
H1402 H 0.24177 0.43455 0.76944 0.0
H1403 H 0.22915 0.40708 0.74732 0.0
H1404 H 0.27854 0.44497 0.79288 0.0
H1405 H 0.31189 0.46139 0.78704 0.0
C1406 C 0.26747 0.60775 0.76883 0.0
C1407 C 0.28259 0.63127 0.78138 0.0
C1408 C 0.32102 0.60166 0.79512 0.0
C1409 C 0.30763 0.57909 0.77932 0.0
N1410 N 0.26993 0.56153 0.74774 0.0
N1411 N 0.32496 0.65178 0.804 0.0
C1412 C 0.28118 0.58224 0.76546 0.0
C1413 C 0.30966 0.62854 0.794 0.0
N1414 N 0.23987 0.60975 0.76047 0.0
N1415 N 0.3441 0.59719 0.81186 0.0
H1416 H 0.31717 0.67176 0.804 0.0
H1417 H 0.34613 0.65164 0.81037 0.0
H1418 H 0.35271 0.57765 0.81353 0.0
H1419 H 0.35307 0.61206 0.82612 0.0
H1420 H 0.22675 0.59257 0.75398 0.0
H1421 H 0.22923 0.62821 0.76244 0.0
H1422 H 0.25243 0.56396 0.73457 0.0
H1423 H 0.27946 0.54268 0.7442 0.0
C1424 C 0.86206 0.45294 0.49487 0.0
C1425 C 0.88534 0.44451 0.51131 0.0
C1426 C 0.85533 0.4064 0.53193 0.0
C1427 C 0.83292 0.41303 0.51334 0.0
N1428 N 0.81609 0.43977 0.47391 0.0
N1429 N 0.9058 0.4107 0.54197 0.0
C1430 C 0.83651 0.43562 0.49399 0.0
C1431 C 0.88245 0.42051 0.52887 0.0
N1432 N 0.86416 0.4778 0.48065 0.0
N1433 N 0.8504 0.38744 0.55329 0.0
H1434 H 0.92607 0.4205 0.54036 0.0
H1435 H 0.90558 0.39154 0.55239 0.0
H1436 H 0.83064 0.37709 0.55669 0.0
H1437 H 0.86508 0.38395 0.56935 0.0
H1438 H 0.84696 0.48657 0.47087 0.0
H1439 H 0.88266 0.49088 0.48061 0.0
H1440 H 0.81886 0.45392 0.45725 0.0
H1441 H 0.7972 0.42737 0.47236 0.0
C1442 C 0.73032 0.91796 0.76752 0.0
C1443 C 0.72419 0.89715 0.78835 0.0
C1444 C 0.67813 0.91654 0.79795 0.0
C1445 C 0.68391 0.93684 0.77649 0.0
N1446 N 0.71213 0.95309 0.73646 0.0
N1447 N 0.6905 0.87273 0.81917 0.0
C1448 C 0.70902 0.93638 0.75993 0.0
C1449 C 0.69745 0.89518 0.80218 0.0
N1450 N 0.75684 0.92077 0.75578 0.0
N1451 N 0.65506 0.91858 0.81533 0.0
H1452 H 0.70434 0.8569 0.82294 0.0
H1453 H 0.67028 0.86852 0.82752 0.0
H1454 H 0.64043 0.93393 0.81302 0.0
H1455 H 0.65152 0.9064 0.83343 0.0
H1456 H 0.76368 0.93761 0.74312 0.0
H1457 H 0.77282 0.90726 0.76027 0.0
H1458 H 0.7286 0.95174 0.72184 0.0
H1459 H 0.69673 0.96656 0.73006 0.0
C1460 C 0.63113 0.54531 -0.00014 0.0
C1461 C 0.63079 0.53648 0.97084 0.0
C1462 C 0.66817 0.57244 0.95979 0.0
C1463 C 0.67077 0.57904 0.98934 0.0
N1464 N 0.65744 0.56951 0.03817 0.0
N1465 N 0.65101 0.53899 0.9236 0.0
C1466 C 0.65284 0.56501 0.00959 0.0
C1467 C 0.64982 0.54938 0.95086 0.0
N1468 N 0.61037 0.53519 0.01798 0.0
N1469 N 0.68253 0.58884 0.94019 0.0
H1470 H 0.63763 0.52236 0.91611 0.0
H1471 H 0.66666 0.54538 0.90903 0.0
H1472 H 0.69589 0.60615 0.94591 0.0
H1473 H 0.67922 0.58692 0.91824 0.0
H1474 H 0.60765 0.543 0.03857 0.0
H1475 H 0.59428 0.52053 0.01162 0.0
H1476 H 0.64721 0.55761 0.054 0.0
H1477 H 0.67322 0.58366 0.04618 0.0
C1478 C 0.21166 0.58822 0.25995 0.0
C1479 C 0.20834 0.60853 0.2385 0.0
C1480 C 0.15907 0.59101 0.23056 0.0
C1481 C 0.16213 0.57121 0.2526 0.0
N1482 N 0.18851 0.55576 0.29311 0.0
N1483 N 0.17755 0.63382 0.20822 0.0
C1484 C 0.18759 0.57133 0.26882 0.0
C1485 C 0.18153 0.61141 0.2254 0.0
N1486 N 0.23799 0.58418 0.27092 0.0
N1487 N 0.1355 0.58931 0.21342 0.0
H1488 H 0.19364 0.64912 0.20401 0.0
H1489 H 0.15777 0.63863 0.20033 0.0
H1490 H 0.11863 0.57458 0.21629 0.0
H1491 H 0.13361 0.60104 0.19496 0.0
H1492 H 0.24223 0.56748 0.28409 0.0
H1493 H 0.25615 0.59628 0.26519 0.0
H1494 H 0.20556 0.55701 0.30734 0.0
H1495 H 0.171 0.54368 0.30055 0.0
C1496 C 0.87649 0.57648 0.99045 0.0
C1497 C 0.8771 0.55183 0.00701 0.0
C1498 C 0.826 0.55314 0.01608 0.0
C1499 C 0.82578 0.57869 0.00092 0.0
N1500 N 0.85142 0.61768 0.97857 0.0
N1501 N 0.85405 0.5188 0.0392 0.0
C1502 C 0.85121 0.5912 0.98943 0.0
C1503 C 0.85231 0.54079 0.02095 0.0
N1504 N 0.89989 0.58543 0.97513 0.0
N1505 N 0.80096 0.54008 0.02471 0.0
H1506 H 0.87284 0.50884 0.04272 0.0
H1507 H 0.83751 0.51172 0.05245 0.0
H1508 H 0.7813 0.54853 0.02161 0.0
H1509 H 0.79935 0.51993 0.03299 0.0
H1510 H 0.89973 0.60128 0.96006 0.0
H1511 H 0.91906 0.5756 0.97585 0.0
H1512 H 0.86988 0.62914 0.97267 0.0
H1513 H 0.8334 0.62933 0.97787 0.0
C1514 C 0.16843 0.97981 0.0576 0.0
C1515 C 0.14723 0.98686 0.03781 0.0
C1516 C 0.16199 0.95029 0.0049 0.0
C1517 C 0.18517 0.94545 0.02328 0.0
N1518 N 0.2135 0.95912 0.06474 0.0
N1519 N 0.12579 0.98163 0.9911 0.0
C1520 C 0.18917 0.96105 0.04909 0.0
C1521 C 0.14449 0.97284 0.01102 0.0
N1522 N 0.16841 0.99065 0.08474 0.0
N1523 N 0.15607 0.9327 0.98218 0.0
H1524 H 0.11238 0.99783 0.99497 0.0
H1525 H 0.1251 0.97436 0.97005 0.0
H1526 H 0.16814 0.9157 0.97728 0.0
H1527 H 0.13777 0.93336 0.96976 0.0
H1528 H 0.18141 0.98391 0.10102 0.0
H1529 H 0.15362 0.00457 0.09175 0.0
H1530 H 0.21896 0.97228 0.082 0.0
H1531 H 0.22965 0.9462 0.05896 0.0
loop_
_geom_bond_atom_site_label_1
_geom_bond_atom_site_label_2
_geom_bond_distance
_geom_bond_site_symmetry_2
_ccdc_geom_bond_type
P0 O11 1.490 . S
P0 C14 1.812 . S
P0 C20 1.803 . S
P0 C26 1.819 . S
H1 C15 0.941 . S
H2 C16 0.939 . S
H3 C18 0.940 . S
H4 C19 0.940 . S
H5 C21 0.939 . S
H6 C22 0.942 . S
H7 C24 0.940 . S
H8 C25 0.939 . S
H9 C27 0.941 . S
H10 C31 0.939 . S
O11 P0 1.490 . S
H12 C28 0.939 . S
H13 C30 0.940 . S
C14 P0 1.812 . S
C14 C15 1.389 . S
C14 C19 1.391 . S
C15 H1 0.941 . S
C15 C14 1.389 . S
C15 C16 1.397 . S
C16 H2 0.939 . S
C16 C15 1.397 . S
C16 C17 1.378 1_455 S
C17 C16 1.378 1_655 S
C17 C18 1.378 . S
C18 H3 0.940 . S
C18 C17 1.378 . S
C18 C19 1.396 1_655 S
C19 H4 0.940 . S
C19 C14 1.391 . S
C19 C18 1.396 1_455 S
C20 P0 1.803 . S
C20 C21 1.378 . S
C20 C25 1.400 . S
C21 H5 0.939 . S
C21 C20 1.378 . S
C21 C22 1.361 . S
C22 H6 0.942 . S
C22 C21 1.361 . S
C22 C23 1.369 1_545 S
C23 C22 1.369 1_565 S
C23 C24 1.404 . S
C24 H7 0.940 . S
C24 C23 1.404 . S
C24 C25 1.389 1_565 S
C25 H8 0.939 . S
C25 C20 1.400 . S
C25 C24 1.389 1_545 S
C26 P0 1.819 . S
C26 C27 1.391 . S
C26 C31 1.391 . S
C27 H9 0.941 . S
C27 C26 1.391 . S
C27 C28 1.396 . S
C28 H12 0.939 . S
C28 C27 1.396 . S
C28 C29 1.360 1_554 S
C29 C28 1.360 1_556 S
C29 C30 1.391 . S
C30 H13 0.940 . S
C30 C29 1.391 . S
C30 C31 1.388 1_556 S
C31 H10 0.939 . S
C31 C26 1.391 . S
C31 C30 1.388 1_554 S
P32 O43 1.490 . S
P32 C46 1.812 . S
P32 C52 1.803 . S
P32 C58 1.819 . S
H33 C47 0.941 . S
H34 C48 0.939 . S
H35 C50 0.940 . S
H36 C51 0.940 . S
H37 C53 0.939 . S
H38 C54 0.942 . S
H39 C56 0.940 . S
H40 C57 0.939 . S
H41 C59 0.941 . S
H42 C63 0.939 . S
O43 P32 1.490 . S
H44 C60 0.939 . S
H45 C62 0.940 . S
C46 P32 1.812 . S
C46 C47 1.389 . S
C46 C51 1.391 . S
C47 H33 0.941 . S
C47 C46 1.389 . S
C47 C48 1.397 . S
C48 H34 0.939 . S
C48 C47 1.397 . S
C48 C49 1.378 . S
C49 C48 1.378 . S
C49 C50 1.378 . S
C50 H35 0.940 . S
C50 C49 1.378 . S
C50 C51 1.396 . S
C51 H36 0.940 . S
C51 C46 1.391 . S
C51 C50 1.396 . S
C52 P32 1.803 . S
C52 C53 1.378 . S
C52 C57 1.400 . S
C53 H37 0.939 . S
C53 C52 1.378 . S
C53 C54 1.361 . S
C54 H38 0.942 . S
C54 C53 1.361 . S
C54 C55 1.369 . S
C55 C54 1.369 . S
C55 C56 1.404 . S
C56 H39 0.940 . S
C56 C55 1.404 . S
C56 C57 1.389 . S
C57 H40 0.939 . S
C57 C52 1.400 . S
C57 C56 1.389 . S
C58 P32 1.819 . S
C58 C59 1.391 . S
C58 C63 1.391 . S
C59 H41 0.941 . S
C59 C58 1.391 . S
C59 C60 1.396 . S
C60 H44 0.939 . S
C60 C59 1.396 . S
C60 C61 1.397 . S
C61 C60 1.397 . S
C61 C62 1.385 . S
C62 H45 0.940 . S
C62 C61 1.385 . S
C62 C63 1.388 . S
C63 H42 0.939 . S
C63 C58 1.391 . S
C63 C62 1.388 . S
P64 O75 1.490 1_654 S
P64 C78 1.812 . S
P64 C84 1.803 . S
P64 C90 1.819 1_655 S
H65 C79 0.941 . S
H66 C80 0.939 . S
H67 C82 0.940 . S
H68 C83 0.940 . S
H69 C85 0.939 . S
H70 C86 0.942 . S
H71 C88 0.940 . S
H72 C89 0.939 . S
H73 C91 0.941 . S
H74 C95 0.939 . S
O75 P64 1.490 1_456 S
H76 C92 0.939 . S
H77 C94 0.940 . S
C78 P64 1.812 . S
C78 C79 1.389 1_554 S
C78 C83 1.391 . S
C79 H65 0.941 . S
C79 C78 1.389 1_556 S
C79 C80 1.397 . S
C80 H66 0.939 . S
C80 C79 1.397 . S
C80 C81 1.378 . S
C81 C80 1.378 . S
C81 C82 1.378 1_556 S
C82 H67 0.940 . S
C82 C81 1.378 1_554 S
C82 C83 1.396 . S
C83 H68 0.940 . S
C83 C78 1.391 . S
C83 C82 1.396 . S
C84 P64 1.803 . S
C84 C85 1.378 . S
C84 C89 1.400 . S
C85 H69 0.939 . S
C85 C84 1.378 . S
C85 C86 1.361 . S
C86 H70 0.942 . S
C86 C85 1.361 . S
C86 C87 1.369 . S
C87 C86 1.369 . S
C87 C88 1.404 . S
C88 H71 0.940 . S
C88 C87 1.404 . S
C88 C89 1.389 . S
C89 H72 0.939 . S
C89 C84 1.400 . S
C89 C88 1.389 . S
C90 P64 1.819 1_455 S
C90 C91 1.391 . S
C90 C95 1.391 1_455 S
C91 H73 0.941 . S
C91 C90 1.391 . S
C91 C92 1.396 . S
C92 H76 0.939 . S
C92 C91 1.396 . S
C92 C93 1.397 . S
C93 C92 1.397 . S
C93 C94 1.385 1_455 S
C94 H77 0.940 . S
C94 C93 1.385 1_655 S
C94 C95 1.388 . S
C95 H74 0.939 . S
C95 C90 1.391 1_655 S
C95 C94 1.388 . S
P96 O107 1.490 . S
P96 C110 1.812 . S
P96 C116 1.803 . S
P96 C122 1.819 . S
H97 C111 0.941 . S
H98 C112 0.939 . S
H99 C114 0.940 . S
H100 C115 0.940 . S
H101 C117 0.939 . S
H102 C118 0.942 . S
H103 C120 0.940 . S
H104 C121 0.939 . S
H105 C123 0.941 . S
H106 C127 0.939 . S
O107 P96 1.490 . S
H108 C124 0.939 . S
H109 C126 0.940 . S
C110 P96 1.812 . S
C110 C111 1.389 . S
C110 C115 1.391 . S
C111 H97 0.941 . S
C111 C110 1.389 . S
C111 C112 1.397 . S
C112 H98 0.939 . S
C112 C111 1.397 . S
C112 C113 1.378 . S
C113 C112 1.378 . S
C113 C114 1.378 . S
C114 H99 0.940 . S
C114 C113 1.378 . S
C114 C115 1.396 . S
C115 H100 0.940 . S
C115 C110 1.391 . S
C115 C114 1.396 . S
C116 P96 1.803 . S
C116 C117 1.378 . S
C116 C121 1.400 . S
C117 H101 0.939 . S
C117 C116 1.378 . S
C117 C118 1.361 . S
C118 H102 0.942 . S
C118 C117 1.361 . S
C118 C119 1.369 . S
C119 C118 1.369 . S
C119 C120 1.404 . S
C120 H103 0.940 . S
C120 C119 1.404 . S
C120 C121 1.389 . S
C121 H104 0.939 . S
C121 C116 1.400 . S
C121 C120 1.389 . S
C122 P96 1.819 . S
C122 C123 1.391 . S
C122 C127 1.391 . S
C123 H105 0.941 . S
C123 C122 1.391 . S
C123 C124 1.396 . S
C124 H108 0.939 . S
C124 C123 1.396 . S
C124 C125 1.397 . S
C125 C124 1.397 . S
C125 C126 1.385 . S
C126 H109 0.940 . S
C126 C125 1.385 . S
C126 C127 1.388 . S
C127 H106 0.939 . S
C127 C122 1.391 . S
C127 C126 1.388 . S
P128 O139 1.490 . S
P128 C142 1.812 . S
P128 C148 1.803 . S
P128 C154 1.819 . S
H129 C143 0.941 . S
H130 C144 0.939 . S
H131 C146 0.940 . S
H132 C147 0.940 . S
H133 C149 0.939 . S
H134 C150 0.942 . S
H135 C152 0.940 . S
H136 C153 0.939 . S
H137 C155 0.941 . S
H138 C159 0.936 1_655 S
O139 P128 1.490 . S
H140 C156 0.939 . S
H141 C158 0.940 . S
C142 P128 1.812 . S
C142 C143 1.389 . S
C142 C147 1.391 1_565 S
C143 H129 0.941 . S
C143 C142 1.389 . S
C143 C144 1.397 1_565 S
C144 H130 0.939 . S
C144 C143 1.397 1_545 S
C144 C145 1.378 . S
C145 C144 1.378 . S
C145 C146 1.378 . S
C146 H131 0.940 . S
C146 C145 1.378 . S
C146 C147 1.396 . S
C147 H132 0.940 . S
C147 C142 1.391 1_545 S
C147 C146 1.396 . S
C148 P128 1.803 . S
C148 C149 1.378 . S
C148 C153 1.400 . S
C149 H133 0.939 . S
C149 C148 1.378 . S
C149 C150 1.361 . S
C150 H134 0.942 . S
C150 C149 1.361 . S
C150 C151 1.369 . S
C151 C150 1.369 . S
C151 C152 1.404 . S
C152 H135 0.940 . S
C152 C151 1.404 . S
C152 C153 1.389 . S
C153 H136 0.939 . S
C153 C148 1.400 . S
C153 C152 1.389 . S
C154 P128 1.819 . S
C154 C155 1.391 . S
C154 C159 1.391 . S
C155 H137 0.941 . S
C155 C154 1.391 . S
C155 C156 1.396 . S
C156 H140 0.939 . S
C156 C155 1.396 . S
C156 C157 1.397 1_455 S
C157 C156 1.397 1_655 S
C157 C158 1.385 . S
C158 H141 0.940 . S
C158 C157 1.385 . S
C158 C159 1.388 1_655 S
C159 H138 0.936 1_455 S
C159 C154 1.391 . S
C159 C158 1.388 1_455 S
P160 O171 1.490 . S
P160 C174 1.812 . S
P160 C180 1.803 . S
P160 C186 1.819 . S
H161 C175 0.941 . S
H162 C176 0.939 . S
H163 C178 0.940 . S
H164 C179 0.940 . S
H165 C181 0.939 . S
H166 C182 0.942 . S
H167 C184 0.940 . S
H168 C185 0.939 . S
H169 C187 0.941 . S
H170 C191 0.939 . S
O171 P160 1.490 . S
H172 C188 0.939 . S
H173 C190 0.940 . S
C174 P160 1.812 . S
C174 C175 1.389 . S
C174 C179 1.391 . S
C175 H161 0.941 . S
C175 C174 1.389 . S
C175 C176 1.397 . S
C176 H162 0.939 . S
C176 C175 1.397 . S
C176 C177 1.378 . S
C177 C176 1.378 . S
C177 C178 1.378 . S
C178 H163 0.940 . S
C178 C177 1.378 . S
C178 C179 1.396 . S
C179 H164 0.940 . S
C179 C174 1.391 . S
C179 C178 1.396 . S
C180 P160 1.803 . S
C180 C181 1.378 . S
C180 C185 1.400 . S
C181 H165 0.939 . S
C181 C180 1.378 . S
C181 C182 1.361 . S
C182 H166 0.942 . S
C182 C181 1.361 . S
C182 C183 1.369 . S
C183 C182 1.369 . S
C183 C184 1.404 . S
C184 H167 0.940 . S
C184 C183 1.404 . S
C184 C185 1.389 . S
C185 H168 0.939 . S
C185 C180 1.400 . S
C185 C184 1.389 . S
C186 P160 1.819 . S
C186 C187 1.391 . S
C186 C191 1.391 . S
C187 H169 0.941 . S
C187 C186 1.391 . S
C187 C188 1.396 . S
C188 H172 0.939 . S
C188 C187 1.396 . S
C188 C189 1.397 . S
C189 C188 1.397 . S
C189 C190 1.385 . S
C190 H173 0.940 . S
C190 C189 1.385 . S
C190 C191 1.388 . S
C191 H170 0.939 . S
C191 C186 1.391 . S
C191 C190 1.388 . S
P192 O203 1.490 1_655 S
P192 C206 1.801 1_655 S
P192 C212 1.803 . S
P192 C218 1.819 . S
H193 C207 0.941 . S
H194 C208 0.939 . S
H195 C210 0.940 . S
H196 C211 0.940 . S
H197 C213 0.939 . S
H198 C214 0.942 . S
H199 C216 0.940 . S
H200 C217 0.939 . S
H201 C219 0.941 . S
H202 C223 0.939 . S
O203 P192 1.490 1_455 S
H204 C220 0.939 . S
H205 C222 0.940 . S
C206 P192 1.801 1_455 S
C206 C207 1.422 . S
C206 C211 1.371 1_455 S
C207 H193 0.941 . S
C207 C206 1.422 . S
C207 C208 1.397 . S
C208 H194 0.939 . S
C208 C207 1.397 . S
C208 C209 1.378 . S
C209 C208 1.378 . S
C209 C210 1.378 1_455 S
C210 H195 0.940 . S
C210 C209 1.378 1_655 S
C210 C211 1.396 . S
C211 H196 0.940 . S
C211 C206 1.371 1_655 S
C211 C210 1.396 . S
C212 P192 1.803 . S
C212 C213 1.378 . S
C212 C217 1.400 . S
C213 H197 0.939 . S
C213 C212 1.378 . S
C213 C214 1.361 . S
C214 H198 0.942 . S
C214 C213 1.361 . S
C214 C215 1.369 . S
C215 C214 1.369 . S
C215 C216 1.404 . S
C216 H199 0.940 . S
C216 C215 1.404 . S
C216 C217 1.389 . S
C217 H200 0.939 . S
C217 C212 1.400 . S
C217 C216 1.389 . S
C218 P192 1.819 . S
C218 C219 1.391 . S
C218 C223 1.391 . S
C219 H201 0.941 . S
C219 C218 1.391 . S
C219 C220 1.396 . S
C220 H204 0.939 . S
C220 C219 1.396 . S
C220 C221 1.397 . S
C221 C220 1.397 . S
C221 C222 1.385 . S
C222 H205 0.940 . S
C222 C221 1.385 . S
C222 C223 1.388 . S
C223 H202 0.939 . S
C223 C218 1.391 . S
C223 C222 1.388 . S
P224 O235 1.490 . S
P224 C238 1.812 . S
P224 C244 1.803 . S
P224 C250 1.819 . S
H225 C239 0.941 . S
H226 C240 0.939 . S
H227 C242 0.940 . S
H228 C243 0.940 . S
H229 C245 0.939 . S
H230 C246 0.942 . S
H231 C248 0.940 . S
H232 C249 0.939 . S
H233 C251 0.941 . S
H234 C255 0.939 . S
O235 P224 1.490 . S
H236 C252 0.939 . S
H237 C254 0.940 . S
C238 P224 1.812 . S
C238 C239 1.389 . S
C238 C243 1.391 . S
C239 H225 0.941 . S
C239 C238 1.389 . S
C239 C240 1.397 . S
C240 H226 0.939 . S
C240 C239 1.397 . S
C240 C241 1.378 . S
C241 C240 1.378 . S
C241 C242 1.378 . S
C242 H227 0.940 . S
C242 C241 1.378 . S
C242 C243 1.396 . S
C243 H228 0.940 . S
C243 C238 1.391 . S
C243 C242 1.396 . S
C244 P224 1.803 . S
C244 C245 1.378 . S
C244 C249 1.400 . S
C245 H229 0.939 . S
C245 C244 1.378 . S
C245 C246 1.361 . S
C246 H230 0.942 . S
C246 C245 1.361 . S
C246 C247 1.369 . S
C247 C246 1.369 . S
C247 C248 1.404 . S
C248 H231 0.940 . S
C248 C247 1.404 . S
C248 C249 1.389 . S
C249 H232 0.939 . S
C249 C244 1.400 . S
C249 C248 1.389 . S
C250 P224 1.819 . S
C250 C251 1.391 . S
C250 C255 1.391 . S
C251 H233 0.941 . S
C251 C250 1.391 . S
C251 C252 1.396 . S
C252 H236 0.939 . S
C252 C251 1.396 . S
C252 C253 1.397 . S
C253 C252 1.397 . S
C253 C254 1.385 . S
C254 H237 0.940 . S
C254 C253 1.385 . S
C254 C255 1.388 . S
C255 H234 0.939 . S
C255 C250 1.391 . S
C255 C254 1.388 . S
P256 O267 1.490 . S
P256 C270 1.812 . S
P256 C276 1.803 . S
P256 C282 1.819 . S
H257 C271 0.941 . S
H258 C272 0.939 . S
H259 C274 0.940 . S
H260 C275 0.940 . S
H261 C277 0.939 . S
H262 C278 0.942 . S
H263 C280 0.940 . S
H264 C281 0.939 . S
H265 C283 0.941 . S
H266 C287 0.939 . S
O267 P256 1.490 . S
H268 C284 0.939 . S
H269 C286 0.940 . S
C270 P256 1.812 . S
C270 C271 1.389 . S
C270 C275 1.391 . S
C271 H257 0.941 . S
C271 C270 1.389 . S
C271 C272 1.397 . S
C272 H258 0.939 . S
C272 C271 1.397 . S
C272 C273 1.378 . S
C273 C272 1.378 . S
C273 C274 1.378 . S
C274 H259 0.940 . S
C274 C273 1.378 . S
C274 C275 1.396 . S
C275 H260 0.940 . S
C275 C270 1.391 . S
C275 C274 1.396 . S
C276 P256 1.803 . S
C276 C277 1.378 . S
C276 C281 1.400 . S
C277 H261 0.939 . S
C277 C276 1.378 . S
C277 C278 1.361 . S
C278 H262 0.942 . S
C278 C277 1.361 . S
C278 C279 1.369 . S
C279 C278 1.369 . S
C279 C280 1.404 . S
C280 H263 0.940 . S
C280 C279 1.404 . S
C280 C281 1.389 . S
C281 H264 0.939 . S
C281 C276 1.400 . S
C281 C280 1.389 . S
C282 P256 1.819 . S
C282 C283 1.391 . S
C282 C287 1.391 . S
C283 H265 0.941 . S
C283 C282 1.391 . S
C283 C284 1.396 . S
C284 H268 0.939 . S
C284 C283 1.396 . S
C284 C285 1.397 . S
C285 C284 1.397 . S
C285 C286 1.385 . S
C286 H269 0.940 . S
C286 C285 1.385 . S
C286 C287 1.388 . S
C287 H266 0.939 . S
C287 C282 1.391 . S
C287 C286 1.388 . S
P288 O299 1.490 1_565 S
P288 C302 1.812 . S
P288 C308 1.803 1_565 S
P288 C314 1.819 . S
H289 C303 0.941 . S
H290 C304 0.939 . S
H291 C306 0.940 . S
H292 C307 0.940 . S
H293 C309 0.939 . S
H294 C310 0.942 . S
H295 C312 0.940 . S
H296 C313 0.939 . S
H297 C315 0.941 . S
H298 C319 0.952 . S
O299 P288 1.490 1_545 S
H300 C316 0.939 . S
H301 C318 0.940 . S
C302 P288 1.812 . S
C302 C303 1.389 . S
C302 C307 1.391 . S
C303 H289 0.941 . S
C303 C302 1.389 . S
C303 C304 1.397 . S
C304 H290 0.939 . S
C304 C303 1.397 . S
C304 C305 1.378 . S
C305 C304 1.378 . S
C305 C306 1.378 . S
C306 H291 0.940 . S
C306 C305 1.378 . S
C306 C307 1.396 . S
C307 H292 0.940 . S
C307 C302 1.391 . S
C307 C306 1.396 . S
C308 P288 1.803 1_545 S
C308 C309 1.378 . S
C308 C313 1.400 1_545 S
C309 H293 0.939 . S
C309 C308 1.378 . S
C309 C310 1.361 . S
C310 H294 0.942 . S
C310 C309 1.361 . S
C310 C311 1.369 . S
C311 C310 1.369 . S
C311 C312 1.404 1_545 S
C312 H295 0.940 . S
C312 C311 1.404 1_565 S
C312 C313 1.389 . S
C313 H296 0.939 . S
C313 C308 1.400 1_565 S
C313 C312 1.389 . S
C314 P288 1.819 . S
C314 C315 1.391 . S
C314 C319 1.391 . S
C315 H297 0.941 . S
C315 C314 1.391 . S
C315 C316 1.396 . S
C316 H300 0.939 . S
C316 C315 1.396 . S
C316 C317 1.397 . S
C317 C316 1.397 . S
C317 C318 1.385 . S
C318 H301 0.940 . S
C318 C317 1.385 . S
C318 C319 1.388 . S
C319 H298 0.952 . S
C319 C314 1.391 . S
C319 C318 1.388 . S
P320 O331 1.490 . S
P320 C334 1.812 . S
P320 C340 1.803 . S
P320 C346 1.819 . S
H321 C335 0.941 . S
H322 C336 0.939 . S
H323 C338 0.940 . S
H324 C339 0.940 . S
H325 C341 0.939 . S
H326 C342 0.942 . S
H327 C344 0.940 . S
H328 C345 0.939 . S
H329 C347 0.941 . S
H330 C351 0.939 . S
O331 P320 1.490 . S
H332 C348 0.939 . S
H333 C350 0.940 . S
C334 P320 1.812 . S
C334 C335 1.389 . S
C334 C339 1.391 . S
C335 H321 0.941 . S
C335 C334 1.389 . S
C335 C336 1.397 . S
C336 H322 0.939 . S
C336 C335 1.397 . S
C336 C337 1.378 . S
C337 C336 1.378 . S
C337 C338 1.378 . S
C338 H323 0.940 . S
C338 C337 1.378 . S
C338 C339 1.396 . S
C339 H324 0.940 . S
C339 C334 1.391 . S
C339 C338 1.396 . S
C340 P320 1.803 . S
C340 C341 1.378 . S
C340 C345 1.400 . S
C341 H325 0.939 . S
C341 C340 1.378 . S
C341 C342 1.361 . S
C342 H326 0.942 . S
C342 C341 1.361 . S
C342 C343 1.369 . S
C343 C342 1.369 . S
C343 C344 1.404 . S
C344 H327 0.940 . S
C344 C343 1.404 . S
C344 C345 1.389 . S
C345 H328 0.939 . S
C345 C340 1.400 . S
C345 C344 1.389 . S
C346 P320 1.819 . S
C346 C347 1.391 . S
C346 C351 1.391 . S
C347 H329 0.941 . S
C347 C346 1.391 . S
C347 C348 1.396 . S
C348 H332 0.939 . S
C348 C347 1.396 . S
C348 C349 1.397 . S
C349 C348 1.397 . S
C349 C350 1.385 . S
C350 H333 0.940 . S
C350 C349 1.385 . S
C350 C351 1.388 . S
C351 H330 0.939 . S
C351 C346 1.391 . S
C351 C350 1.388 . S
P352 O363 1.490 . S
P352 C366 1.812 . S
P352 C372 1.803 . S
P352 C378 1.819 . S
H353 C367 0.941 . S
H354 C368 0.939 . S
H355 C370 0.940 . S
H356 C371 0.940 . S
H357 C373 0.939 . S
H358 C374 0.942 . S
H359 C376 0.940 . S
H360 C377 0.939 . S
H361 C379 0.941 . S
H362 C383 0.939 . S
O363 P352 1.490 . S
H364 C380 0.939 . S
H365 C382 0.940 . S
C366 P352 1.812 . S
C366 C367 1.389 . S
C366 C371 1.391 . S
C367 H353 0.941 . S
C367 C366 1.389 . S
C367 C368 1.397 . S
C368 H354 0.939 . S
C368 C367 1.397 . S
C368 C369 1.378 . S
C369 C368 1.378 . S
C369 C370 1.378 . S
C370 H355 0.940 . S
C370 C369 1.378 . S
C370 C371 1.396 . S
C371 H356 0.940 . S
C371 C366 1.391 . S
C371 C370 1.396 . S
C372 P352 1.803 . S
C372 C373 1.378 . S
C372 C377 1.400 . S
C373 H357 0.939 . S
C373 C372 1.378 . S
C373 C374 1.361 . S
C374 H358 0.942 . S
C374 C373 1.361 . S
C374 C375 1.369 . S
C375 C374 1.369 . S
C375 C376 1.404 . S
C376 H359 0.940 . S
C376 C375 1.404 . S
C376 C377 1.389 . S
C377 H360 0.939 . S
C377 C372 1.400 . S
C377 C376 1.389 . S
C378 P352 1.819 . S
C378 C379 1.391 . S
C378 C383 1.391 . S
C379 H361 0.941 . S
C379 C378 1.391 . S
C379 C380 1.396 . S
C380 H364 0.939 . S
C380 C379 1.396 . S
C380 C381 1.397 . S
C381 C380 1.397 . S
C381 C382 1.385 . S
C382 H365 0.940 . S
C382 C381 1.385 . S
C382 C383 1.388 . S
C383 H362 0.939 . S
C383 C378 1.391 . S
C383 C382 1.388 . S
P384 O395 1.490 . S
P384 C398 1.812 . S
P384 C404 1.803 . S
P384 C410 1.819 . S
H385 C399 0.941 . S
H386 C400 0.939 . S
H387 C402 0.940 . S
H388 C403 0.940 . S
H389 C405 0.939 . S
H390 C406 0.942 . S
H391 C408 0.940 . S
H392 C409 0.939 . S
H393 C411 0.941 . S
H394 C415 0.939 . S
O395 P384 1.490 . S
H396 C412 0.939 . S
H397 C414 0.940 . S
C398 P384 1.812 . S
C398 C399 1.389 . S
C398 C403 1.391 . S
C399 H385 0.941 . S
C399 C398 1.389 . S
C399 C400 1.397 . S
C400 H386 0.939 . S
C400 C399 1.397 . S
C400 C401 1.378 . S
C401 C400 1.378 . S
C401 C402 1.378 . S
C402 H387 0.940 . S
C402 C401 1.378 . S
C402 C403 1.396 . S
C403 H388 0.940 . S
C403 C398 1.391 . S
C403 C402 1.396 . S
C404 P384 1.803 . S
C404 C405 1.378 . S
C404 C409 1.400 . S
C405 H389 0.939 . S
C405 C404 1.378 . S
C405 C406 1.361 . S
C406 H390 0.942 . S
C406 C405 1.361 . S
C406 C407 1.369 . S
C407 C406 1.369 . S
C407 C408 1.404 . S
C408 H391 0.940 . S
C408 C407 1.404 . S
C408 C409 1.389 . S
C409 H392 0.939 . S
C409 C404 1.400 . S
C409 C408 1.389 . S
C410 P384 1.819 . S
C410 C411 1.391 . S
C410 C415 1.391 . S
C411 H393 0.941 . S
C411 C410 1.391 . S
C411 C412 1.396 . S
C412 H396 0.939 . S
C412 C411 1.396 . S
C412 C413 1.397 . S
C413 C412 1.397 . S
C413 C414 1.385 . S
C414 H397 0.940 . S
C414 C413 1.385 . S
C414 C415 1.388 . S
C415 H394 0.939 . S
C415 C410 1.391 . S
C415 C414 1.388 . S
P416 O427 1.490 . S
P416 C430 1.812 . S
P416 C436 1.803 . S
P416 C442 1.819 . S
H417 C431 0.941 . S
H418 C432 0.939 . S
H419 C434 0.940 . S
H420 C435 0.940 . S
H421 C437 0.939 . S
H422 C438 0.942 . S
H423 C440 0.940 . S
H424 C441 0.939 1_554 S
H425 C443 0.941 . S
H426 C447 0.939 . S
O427 P416 1.490 . S
H428 C444 0.939 . S
H429 C446 0.940 . S
C430 P416 1.812 . S
C430 C431 1.389 . S
C430 C435 1.391 . S
C431 H417 0.941 . S
C431 C430 1.389 . S
C431 C432 1.397 . S
C432 H418 0.939 . S
C432 C431 1.397 . S
C432 C433 1.378 . S
C433 C432 1.378 . S
C433 C434 1.378 . S
C434 H419 0.940 . S
C434 C433 1.378 . S
C434 C435 1.396 . S
C435 H420 0.940 . S
C435 C430 1.391 . S
C435 C434 1.396 . S
C436 P416 1.803 . S
C436 C437 1.378 . S
C436 C441 1.402 . S
C437 H421 0.939 . S
C437 C436 1.378 . S
C437 C438 1.361 . S
C438 H422 0.942 . S
C438 C437 1.361 . S
C438 C439 1.369 1_556 S
C439 C438 1.369 1_554 S
C439 C440 1.404 . S
C440 H423 0.940 . S
C440 C439 1.404 . S
C440 C441 1.387 1_554 S
C441 H424 0.939 1_556 S
C441 C436 1.402 . S
C441 C440 1.387 1_556 S
C442 P416 1.819 . S
C442 C443 1.391 . S
C442 C447 1.391 . S
C443 H425 0.941 . S
C443 C442 1.391 . S
C443 C444 1.396 . S
C444 H428 0.939 . S
C444 C443 1.396 . S
C444 C445 1.397 . S
C445 C444 1.397 . S
C445 C446 1.385 . S
C446 H429 0.940 . S
C446 C445 1.385 . S
C446 C447 1.388 . S
C447 H426 0.939 . S
C447 C442 1.391 . S
C447 C446 1.388 . S
P448 O459 1.490 . S
P448 C462 1.812 . S
P448 C468 1.803 . S
P448 C474 1.819 . S
H449 C463 0.941 . S
H450 C464 0.939 . S
H451 C466 0.940 . S
H452 C467 0.940 . S
H453 C469 0.939 . S
H454 C470 0.942 . S
H455 C472 0.940 . S
H456 C473 0.939 . S
H457 C475 0.941 . S
H458 C479 0.939 . S
O459 P448 1.490 . S
H460 C476 0.939 . S
H461 C478 0.940 . S
C462 P448 1.812 . S
C462 C463 1.389 . S
C462 C467 1.391 . S
C463 H449 0.941 . S
C463 C462 1.389 . S
C463 C464 1.397 . S
C464 H450 0.939 . S
C464 C463 1.397 . S
C464 C465 1.378 . S
C465 C464 1.378 . S
C465 C466 1.378 . S
C466 H451 0.940 . S
C466 C465 1.378 . S
C466 C467 1.396 . S
C467 H452 0.940 . S
C467 C462 1.391 . S
C467 C466 1.396 . S
C468 P448 1.803 . S
C468 C469 1.378 . S
C468 C473 1.400 . S
C469 H453 0.939 . S
C469 C468 1.378 . S
C469 C470 1.361 . S
C470 H454 0.942 . S
C470 C469 1.361 . S
C470 C471 1.369 . S
C471 C470 1.369 . S
C471 C472 1.404 . S
C472 H455 0.940 . S
C472 C471 1.404 . S
C472 C473 1.389 . S
C473 H456 0.939 . S
C473 C468 1.400 . S
C473 C472 1.389 . S
C474 P448 1.819 . S
C474 C475 1.391 . S
C474 C479 1.391 . S
C475 H457 0.941 . S
C475 C474 1.391 . S
C475 C476 1.396 . S
C476 H460 0.939 . S
C476 C475 1.396 . S
C476 C477 1.397 . S
C477 C476 1.397 . S
C477 C478 1.385 . S
C478 H461 0.940 . S
C478 C477 1.385 . S
C478 C479 1.388 . S
C479 H458 0.939 . S
C479 C474 1.391 . S
C479 C478 1.388 . S
P480 O491 1.490 1_556 S
P480 C494 1.812 . S
P480 C500 1.803 1_556 S
P480 C506 1.819 . S
H481 C495 0.941 . S
H482 C496 0.939 . S
H483 C498 0.940 . S
H484 C499 0.940 . S
H485 C501 0.939 . S
H486 C502 0.942 . S
H487 C504 0.940 1_556 S
H488 C505 0.939 . S
H489 C507 0.941 . S
H490 C511 0.939 1_554 S
O491 P480 1.490 1_554 S
H492 C508 0.939 . S
H493 C510 0.940 . S
C494 P480 1.812 . S
C494 C495 1.389 . S
C494 C499 1.391 . S
C495 H481 0.941 . S
C495 C494 1.389 . S
C495 C496 1.397 . S
C496 H482 0.939 . S
C496 C495 1.397 . S
C496 C497 1.378 . S
C497 C496 1.378 . S
C497 C498 1.378 . S
C498 H483 0.940 . S
C498 C497 1.378 . S
C498 C499 1.396 . S
C499 H484 0.940 . S
C499 C494 1.391 . S
C499 C498 1.396 . S
C500 P480 1.803 1_554 S
C500 C501 1.378 . S
C500 C505 1.400 1_554 S
C501 H485 0.939 . S
C501 C500 1.378 . S
C501 C502 1.361 . S
C502 H486 0.942 . S
C502 C501 1.361 . S
C502 C503 1.369 . S
C503 C502 1.369 . S
C503 C504 1.404 . S
C504 H487 0.940 1_554 S
C504 C503 1.404 . S
C504 C505 1.389 1_554 S
C505 H488 0.939 . S
C505 C500 1.400 1_556 S
C505 C504 1.389 1_556 S
C506 P480 1.819 . S
C506 C507 1.391 1_545 S
C506 C511 1.391 . S
C507 H489 0.941 . S
C507 C506 1.391 1_565 S
C507 C508 1.396 . S
C508 H492 0.939 . S
C508 C507 1.396 . S
C508 C509 1.397 . S
C509 C508 1.397 . S
C509 C510 1.385 1_565 S
C510 H493 0.940 . S
C510 C509 1.385 1_545 S
C510 C511 1.388 . S
C511 H490 0.939 1_556 S
C511 C506 1.391 . S
C511 C510 1.388 . S
C512 O513 1.160 1_554 S
C512 O519 1.185 . S
O513 C512 1.160 1_556 S
O514 Zn515 1.899 1_556 S
O514 C522 1.284 . S
Zn515 O514 1.899 1_554 S
Zn515 O516 2.032 . S
Zn515 O519 2.086 . S
Zn515 O524 1.977 . S
O516 Zn515 2.032 . S
O516 C520 1.278 . S
C517 O518 1.203 . S
C517 O524 1.267 . S
O518 C517 1.203 . S
O519 C512 1.185 . S
O519 Zn515 2.086 . S
C520 O516 1.278 . S
C520 O521 1.211 . S
O521 C520 1.211 . S
C522 O514 1.284 . S
C522 O523 1.273 . S
O523 C522 1.273 . S
O524 Zn515 1.977 . S
O524 C517 1.267 . S
C525 O526 1.160 . S
C525 O532 1.185 . S
O526 C525 1.160 . S
O527 Zn528 1.899 . S
O527 C535 1.284 . S
Zn528 O527 1.899 . S
Zn528 O529 2.032 . S
Zn528 O532 2.086 . S
Zn528 O537 1.977 . S
O529 Zn528 2.032 . S
O529 C533 1.278 . S
C530 O531 1.203 . S
C530 O537 1.267 . S
O531 C530 1.203 . S
O532 C525 1.185 . S
O532 Zn528 2.086 . S
C533 O529 1.278 . S
C533 O534 1.211 . S
O534 C533 1.211 . S
C535 O527 1.284 . S
C535 O536 1.273 . S
O536 C535 1.273 . S
O537 Zn528 1.977 . S
O537 C530 1.267 . S
C538 O539 1.160 1_554 S
C538 O545 1.185 . S
O539 C538 1.160 1_556 S
O540 Zn541 1.899 1_556 S
O540 C548 1.284 . S
Zn541 O540 1.899 1_554 S
Zn541 O542 2.032 1_554 S
Zn541 O545 2.086 . S
Zn541 O550 1.977 . S
O542 Zn541 2.032 1_556 S
O542 C546 1.278 . S
C543 O544 1.203 . S
C543 O550 1.267 . S
O544 C543 1.203 . S
O545 C538 1.185 . S
O545 Zn541 2.086 . S
C546 O542 1.278 . S
C546 O547 1.211 1_556 S
O547 C546 1.211 1_554 S
C548 O540 1.284 . S
C548 O549 1.273 . S
O549 C548 1.273 . S
O550 Zn541 1.977 . S
O550 C543 1.267 . S
C551 O552 1.160 . S
C551 O558 1.185 . S
O552 C551 1.160 . S
O553 Zn554 1.899 . S
O553 C561 1.284 . S
Zn554 O553 1.899 . S
Zn554 O555 2.032 1_545 S
Zn554 O558 2.086 . S
Zn554 O563 1.977 . S
O555 Zn554 2.032 1_565 S
O555 C559 1.278 . S
C556 O557 1.203 . S
C556 O563 1.267 . S
O557 C556 1.203 . S
O558 C551 1.185 . S
O558 Zn554 2.086 . S
C559 O555 1.278 . S
C559 O560 1.211 . S
O560 C559 1.211 . S
C561 O553 1.284 . S
C561 O562 1.273 1_545 S
O562 C561 1.273 1_565 S
O563 Zn554 1.977 . S
O563 C556 1.267 . S
C564 O565 1.160 . S
C564 O571 1.185 . S
O565 C564 1.160 . S
O566 Zn567 1.899 . S
O566 C574 1.284 . S
Zn567 O566 1.899 . S
Zn567 O568 2.032 . S
Zn567 O571 2.086 . S
Zn567 O576 1.977 . S
O568 Zn567 2.032 . S
O568 C572 1.278 . S
C569 O570 1.203 . S
C569 O576 1.267 . S
O570 C569 1.203 . S
O571 C564 1.185 . S
O571 Zn567 2.086 . S
C572 O568 1.278 . S
C572 O573 1.211 . S
O573 C572 1.211 . S
C574 O566 1.284 . S
C574 O575 1.273 . S
O575 C574 1.273 . S
O576 Zn567 1.977 . S
O576 C569 1.267 . S
C577 O578 1.160 . S
C577 O584 1.185 . S
O578 C577 1.160 . S
O579 Zn580 1.899 . S
O579 C587 1.284 . S
Zn580 O579 1.899 . S
Zn580 O581 2.032 . S
Zn580 O584 2.086 . S
Zn580 O589 1.977 . S
O581 Zn580 2.032 . S
O581 C585 1.278 . S
C582 O583 1.203 . S
C582 O589 1.267 . S
O583 C582 1.203 . S
O584 C577 1.185 . S
O584 Zn580 2.086 . S
C585 O581 1.278 . S
C585 O586 1.211 . S
O586 C585 1.211 . S
C587 O579 1.284 . S
C587 O588 1.273 . S
O588 C587 1.273 . S
O589 Zn580 1.977 . S
O589 C582 1.267 . S
C590 O591 1.160 . S
C590 O597 1.185 . S
O591 C590 1.160 . S
O592 Zn593 1.899 . S
O592 C600 1.284 . S
Zn593 O592 1.899 . S
Zn593 O594 2.032 . S
Zn593 O597 2.086 . S
Zn593 O602 1.977 . S
O594 Zn593 2.032 . S
O594 C598 1.278 . S
C595 O596 1.203 . S
C595 O602 1.267 . S
O596 C595 1.203 . S
O597 C590 1.185 . S
O597 Zn593 2.086 . S
C598 O594 1.278 . S
C598 O599 1.211 . S
O599 C598 1.211 . S
C600 O592 1.284 . S
C600 O601 1.273 . S
O601 C600 1.273 . S
O602 Zn593 1.977 . S
O602 C595 1.267 . S
C603 O604 1.160 . S
C603 O610 1.185 . S
O604 C603 1.160 . S
O605 Zn606 1.899 . S
O605 C613 1.284 1_565 S
Zn606 O605 1.899 . S
Zn606 O607 2.032 1_565 S
Zn606 O610 2.086 . S
Zn606 O615 1.977 . S
O607 Zn606 2.032 1_545 S
O607 C611 1.278 . S
C608 O609 1.203 1_565 S
C608 O615 1.267 . S
O609 C608 1.203 1_545 S
O610 C603 1.185 . S
O610 Zn606 2.086 . S
C611 O607 1.278 . S
C611 O612 1.211 . S
O612 C611 1.211 . S
C613 O605 1.284 1_545 S
C613 O614 1.273 . S
O614 C613 1.273 . S
O615 Zn606 1.977 . S
O615 C608 1.267 . S
C616 O617 1.160 1_455 S
C616 O623 1.185 . S
O617 C616 1.160 1_655 S
O618 Zn619 1.899 1_655 S
O618 C626 1.284 . S
Zn619 O618 1.899 1_455 S
Zn619 O620 2.030 1_455 S
Zn619 O623 2.086 . S
Zn619 O628 1.977 . S
O620 Zn619 2.030 1_655 S
O620 C624 1.277 1_655 S
C621 O622 1.203 . S
C621 O628 1.267 . S
O622 C621 1.203 . S
O623 C616 1.185 . S
O623 Zn619 2.086 . S
C624 O620 1.277 1_455 S
C624 O625 1.211 . S
O625 C624 1.211 . S
C626 O618 1.284 . S
C626 O627 1.273 . S
O627 C626 1.273 . S
O628 Zn619 1.977 . S
O628 C621 1.267 . S
C629 O630 1.160 . S
C629 O636 1.185 . S
O630 C629 1.160 . S
O631 Zn632 1.899 . S
O631 C639 1.284 . S
Zn632 O631 1.899 . S
Zn632 O633 2.032 . S
Zn632 O636 2.086 . S
Zn632 O641 1.977 . S
O633 Zn632 2.032 . S
O633 C637 1.278 . S
C634 O635 1.203 . S
C634 O641 1.267 . S
O635 C634 1.203 . S
O636 C629 1.185 . S
O636 Zn632 2.086 . S
C637 O633 1.278 . S
C637 O638 1.211 . S
O638 C637 1.211 . S
C639 O631 1.284 . S
C639 O640 1.273 . S
O640 C639 1.273 . S
O641 Zn632 1.977 . S
O641 C634 1.267 . S
C642 O643 1.160 1_455 S
C642 O649 1.185 . S
O643 C642 1.160 1_655 S
O644 Zn645 1.899 1_655 S
O644 C652 1.284 . S
Zn645 O644 1.899 1_455 S
Zn645 O646 2.032 1_455 S
Zn645 O649 2.086 . S
Zn645 O654 1.977 . S
O646 Zn645 2.032 1_655 S
O646 C650 1.278 . S
C647 O648 1.203 . S
C647 O654 1.267 . S
O648 C647 1.203 . S
O649 C642 1.185 . S
O649 Zn645 2.086 . S
C650 O646 1.278 . S
C650 O651 1.211 1_655 S
O651 C650 1.211 1_455 S
C652 O644 1.284 . S
C652 O653 1.273 . S
O653 C652 1.273 . S
O654 Zn645 1.977 . S
O654 C647 1.267 . S
C655 O656 1.160 . S
C655 O662 1.185 . S
O656 C655 1.160 . S
O657 Zn658 1.899 . S
O657 C665 1.284 . S
Zn658 O657 1.899 . S
Zn658 O659 2.032 . S
Zn658 O662 2.086 . S
Zn658 O667 1.977 . S
O659 Zn658 2.032 . S
O659 C663 1.278 . S
C660 O661 1.203 . S
C660 O667 1.267 . S
O661 C660 1.203 . S
O662 C655 1.185 . S
O662 Zn658 2.086 . S
C663 O659 1.278 . S
C663 O664 1.211 . S
O664 C663 1.211 . S
C665 O657 1.284 . S
C665 O666 1.273 . S
O666 C665 1.273 . S
O667 Zn658 1.977 . S
O667 C660 1.267 . S
C668 C669 1.363 . S
C668 C674 1.379 . S
C668 N676 1.356 . S
C669 C668 1.363 . S
C669 C675 1.363 . S
C670 C671 1.363 . S
C670 C675 1.379 . S
C670 N677 1.356 . S
C671 C670 1.363 . S
C671 C674 1.363 . S
N672 C674 1.356 . S
N672 H684 0.984 . S
N672 H685 0.985 . S
N673 C675 1.356 . S
N673 H678 0.984 . S
N673 H679 0.985 . S
C674 C668 1.379 . S
C674 C671 1.363 . S
C674 N672 1.356 . S
C675 C669 1.363 . S
C675 C670 1.379 . S
C675 N673 1.356 . S
N676 C668 1.356 . S
N676 H682 0.984 . S
N676 H683 0.984 . S
N677 C670 1.356 . S
N677 H680 0.984 . S
N677 H681 0.985 . S
H678 N673 0.984 . S
H679 N673 0.985 . S
H680 N677 0.984 . S
H681 N677 0.985 . S
H682 N676 0.984 . S
H683 N676 0.984 . S
H684 N672 0.984 . S
H685 N672 0.985 . S
C686 C687 1.363 . S
C686 C692 1.379 . S
C686 N694 1.356 . S
C687 C686 1.363 . S
C687 C693 1.363 . S
C688 C689 1.363 . S
C688 C693 1.379 . S
C688 N695 1.356 . S
C689 C688 1.363 . S
C689 C692 1.363 . S
N690 C692 1.356 . S
N690 H702 0.984 . S
N690 H703 0.985 . S
N691 C693 1.356 . S
N691 H696 0.984 . S
N691 H697 0.985 . S
C692 C686 1.379 . S
C692 C689 1.363 . S
C692 N690 1.356 . S
C693 C687 1.363 . S
C693 C688 1.379 . S
C693 N691 1.356 . S
N694 C686 1.356 . S
N694 H700 0.984 . S
N694 H701 0.984 . S
N695 C688 1.356 . S
N695 H698 0.984 . S
N695 H699 0.985 . S
H696 N691 0.984 . S
H697 N691 0.985 . S
H698 N695 0.984 . S
H699 N695 0.985 . S
H700 N694 0.984 . S
H701 N694 0.984 . S
H702 N690 0.984 . S
H703 N690 0.985 . S
C704 C705 1.363 . S
C704 C710 1.379 . S
C704 N712 1.356 . S
C705 C704 1.363 . S
C705 C711 1.363 . S
C706 C707 1.363 . S
C706 C711 1.379 . S
C706 N713 1.356 . S
C707 C706 1.363 . S
C707 C710 1.363 . S
N708 C710 1.356 . S
N708 H720 0.984 . S
N708 H721 0.985 . S
N709 C711 1.356 . S
N709 H714 0.984 . S
N709 H715 0.985 . S
C710 C704 1.379 . S
C710 C707 1.363 . S
C710 N708 1.356 . S
C711 C705 1.363 . S
C711 C706 1.379 . S
C711 N709 1.356 . S
N712 C704 1.356 . S
N712 H718 0.984 . S
N712 H719 0.984 . S
N713 C706 1.356 . S
N713 H716 0.984 . S
N713 H717 0.985 . S
H714 N709 0.984 . S
H715 N709 0.985 . S
H716 N713 0.984 . S
H717 N713 0.985 . S
H718 N712 0.984 . S
H719 N712 0.984 . S
H720 N708 0.984 . S
H721 N708 0.985 . S
C722 C723 1.363 1_545 S
C722 C728 1.379 . S
C722 N730 1.356 . S
C723 C722 1.363 1_565 S
C723 C729 1.363 . S
C724 C725 1.358 1_565 S
C724 C729 1.379 . S
C724 N731 1.356 . S
C725 C724 1.358 1_545 S
C725 C728 1.367 . S
N726 C728 1.356 . S
N726 H738 0.984 . S
N726 H739 0.985 . S
N727 C729 1.356 . S
N727 H732 0.984 . S
N727 H733 0.985 . S
C728 C722 1.379 . S
C728 C725 1.367 . S
C728 N726 1.356 . S
C729 C723 1.363 . S
C729 C724 1.379 . S
C729 N727 1.356 . S
N730 C722 1.356 . S
N730 H736 0.984 . S
N730 H737 0.984 . S
N731 C724 1.356 . S
N731 H734 0.984 . S
N731 H735 0.985 . S
H732 N727 0.984 . S
H733 N727 0.985 . S
H734 N731 0.984 . S
H735 N731 0.985 . S
H736 N730 0.984 . S
H737 N730 0.984 . S
H738 N726 0.984 . S
H739 N726 0.985 . S
C740 C741 1.363 . S
C740 C746 1.379 . S
C740 N748 1.356 . S
C741 C740 1.363 . S
C741 C747 1.363 . S
C742 C743 1.363 . S
C742 C747 1.379 . S
C742 N749 1.356 . S
C743 C742 1.363 . S
C743 C746 1.363 . S
N744 C746 1.356 . S
N744 H756 0.984 . S
N744 H757 0.985 . S
N745 C747 1.356 . S
N745 H750 0.984 . S
N745 H751 0.985 . S
C746 C740 1.379 . S
C746 C743 1.363 . S
C746 N744 1.356 . S
C747 C741 1.363 . S
C747 C742 1.379 . S
C747 N745 1.356 . S
N748 C740 1.356 . S
N748 H754 0.984 . S
N748 H755 0.984 . S
N749 C742 1.356 . S
N749 H752 0.984 . S
N749 H753 0.985 . S
H750 N745 0.984 . S
H751 N745 0.985 . S
H752 N749 0.984 . S
H753 N749 0.985 . S
H754 N748 0.984 . S
H755 N748 0.984 . S
H756 N744 0.984 . S
H757 N744 0.985 . S
C758 C759 1.363 . S
C758 C764 1.379 . S
C758 N766 1.356 . S
C759 C758 1.363 . S
C759 C765 1.363 . S
C760 C761 1.363 . S
C760 C765 1.379 . S
C760 N767 1.356 . S
C761 C760 1.363 . S
C761 C764 1.363 . S
N762 C764 1.356 . S
N762 H774 0.984 . S
N762 H775 0.985 . S
N763 C765 1.356 . S
N763 H768 0.984 . S
N763 H769 0.985 . S
C764 C758 1.379 . S
C764 C761 1.363 . S
C764 N762 1.356 . S
C765 C759 1.363 . S
C765 C760 1.379 . S
C765 N763 1.356 . S
N766 C758 1.356 . S
N766 H772 0.984 . S
N766 H773 0.984 . S
N767 C760 1.356 . S
N767 H770 0.984 . S
N767 H771 0.985 . S
H768 N763 0.984 . S
H769 N763 0.985 . S
H770 N767 0.984 . S
H771 N767 0.985 . S
H772 N766 0.984 . S
H773 N766 0.984 . S
H774 N762 0.984 . S
H775 N762 0.985 . S
C776 C777 1.363 . S
C776 C782 1.379 . S
C776 N784 1.356 . S
C777 C776 1.363 . S
C777 C783 1.363 . S
C778 C779 1.363 . S
C778 C783 1.379 . S
C778 N785 1.356 . S
C779 C778 1.363 . S
C779 C782 1.363 . S
N780 C782 1.356 . S
N780 H792 0.984 . S
N780 H793 0.985 . S
N781 C783 1.356 . S
N781 H786 0.984 . S
N781 H787 0.985 . S
C782 C776 1.379 . S
C782 C779 1.363 . S
C782 N780 1.356 . S
C783 C777 1.363 . S
C783 C778 1.379 . S
C783 N781 1.356 . S
N784 C776 1.356 . S
N784 H790 0.984 . S
N784 H791 0.984 . S
N785 C778 1.356 . S
N785 H788 0.984 . S
N785 H789 0.985 . S
H786 N781 0.984 . S
H787 N781 0.985 . S
H788 N785 0.984 . S
H789 N785 0.985 . S
H790 N784 0.984 . S
H791 N784 0.984 . S
H792 N780 0.984 . S
H793 N780 0.985 . S
C794 C795 1.363 . S
C794 C800 1.379 . S
C794 N802 1.356 . S
C795 C794 1.363 . S
C795 C801 1.363 1_565 S
C796 C797 1.363 1_545 S
C796 C801 1.379 . S
C796 N803 1.356 . S
C797 C796 1.363 1_565 S
C797 C800 1.363 . S
N798 C800 1.356 . S
N798 H810 0.984 . S
N798 H811 0.985 . S
N799 C801 1.356 . S
N799 H804 0.984 . S
N799 H805 0.985 . S
C800 C794 1.379 . S
C800 C797 1.363 . S
C800 N798 1.356 . S
C801 C795 1.363 1_545 S
C801 C796 1.379 . S
C801 N799 1.356 . S
N802 C794 1.356 . S
N802 H808 0.984 . S
N802 H809 0.984 . S
N803 C796 1.356 . S
N803 H806 0.984 . S
N803 H807 0.985 . S
H804 N799 0.984 . S
H805 N799 0.985 . S
H806 N803 0.984 . S
H807 N803 0.985 . S
H808 N802 0.984 . S
H809 N802 0.984 . S
H810 N798 0.984 . S
H811 N798 0.985 . S
C812 C813 1.363 . S
C812 C818 1.379 . S
C812 N820 1.356 . S
C813 C812 1.363 . S
C813 C819 1.363 . S
C814 C815 1.363 . S
C814 C819 1.379 . S
C814 N821 1.356 . S
C815 C814 1.363 . S
C815 C818 1.363 . S
N816 C818 1.356 . S
N816 H828 0.984 . S
N816 H829 0.985 . S
N817 C819 1.356 . S
N817 H822 0.984 . S
N817 H823 0.985 . S
C818 C812 1.379 . S
C818 C815 1.363 . S
C818 N816 1.356 . S
C819 C813 1.363 . S
C819 C814 1.379 . S
C819 N817 1.356 . S
N820 C812 1.356 . S
N820 H826 0.984 . S
N820 H827 0.984 . S
N821 C814 1.356 . S
N821 H824 0.984 . S
N821 H825 0.985 . S
H822 N817 0.984 . S
H823 N817 0.985 . S
H824 N821 0.984 . S
H825 N821 0.985 . S
H826 N820 0.984 . S
H827 N820 0.984 . S
H828 N816 0.984 . S
H829 N816 0.985 . S
C830 C831 1.363 . S
C830 C836 1.379 . S
C830 N838 1.356 . S
C831 C830 1.363 . S
C831 C837 1.363 . S
C832 C833 1.363 . S
C832 C837 1.379 . S
C832 N839 1.356 . S
C833 C832 1.363 . S
C833 C836 1.363 . S
N834 C836 1.356 . S
N834 H846 0.984 . S
N834 H847 0.985 . S
N835 C837 1.356 . S
N835 H840 0.984 . S
N835 H841 0.985 . S
C836 C830 1.379 . S
C836 C833 1.363 . S
C836 N834 1.356 . S
C837 C831 1.363 . S
C837 C832 1.379 . S
C837 N835 1.356 . S
N838 C830 1.356 . S
N838 H844 0.984 . S
N838 H845 0.984 . S
N839 C832 1.356 . S
N839 H842 0.984 . S
N839 H843 0.985 . S
H840 N835 0.984 . S
H841 N835 0.985 . S
H842 N839 0.984 . S
H843 N839 0.985 . S
H844 N838 0.984 . S
H845 N838 0.984 . S
H846 N834 0.984 . S
H847 N834 0.985 . S
C848 C849 1.363 . S
C848 C854 1.379 . S
C848 N856 1.356 . S
C849 C848 1.363 . S
C849 C855 1.363 . S
C850 C851 1.363 . S
C850 C855 1.379 . S
C850 N857 1.356 . S
C851 C850 1.363 . S
C851 C854 1.363 . S
N852 C854 1.356 . S
N852 H864 0.984 . S
N852 H865 0.985 . S
N853 C855 1.356 . S
N853 H858 0.984 . S
N853 H859 0.985 . S
C854 C848 1.379 . S
C854 C851 1.363 . S
C854 N852 1.356 . S
C855 C849 1.363 . S
C855 C850 1.379 . S
C855 N853 1.356 . S
N856 C848 1.356 . S
N856 H862 0.984 . S
N856 H863 0.984 . S
N857 C850 1.356 . S
N857 H860 0.984 . S
N857 H861 0.985 . S
H858 N853 0.984 . S
H859 N853 0.985 . S
H860 N857 0.984 . S
H861 N857 0.985 . S
H862 N856 0.984 . S
H863 N856 0.984 . S
H864 N852 0.984 . S
H865 N852 0.985 . S
C866 C867 1.363 . S
C866 C872 1.379 . S
C866 N874 1.356 . S
C867 C866 1.363 . S
C867 C873 1.363 . S
C868 C869 1.363 . S
C868 C873 1.379 . S
C868 N875 1.356 . S
C869 C868 1.363 . S
C869 C872 1.363 . S
N870 C872 1.356 . S
N870 H882 0.984 . S
N870 H883 0.985 . S
N871 C873 1.356 . S
N871 H876 0.984 . S
N871 H877 0.985 . S
C872 C866 1.379 . S
C872 C869 1.363 . S
C872 N870 1.356 . S
C873 C867 1.363 . S
C873 C868 1.379 . S
C873 N871 1.356 . S
N874 C866 1.356 . S
N874 H880 0.984 . S
N874 H881 0.984 . S
N875 C868 1.356 . S
N875 H878 0.984 . S
N875 H879 0.985 . S
H876 N871 0.984 . S
H877 N871 0.985 . S
H878 N875 0.984 . S
H879 N875 0.985 . S
H880 N874 0.984 . S
H881 N874 0.984 . S
H882 N870 0.984 . S
H883 N870 0.985 . S
C884 C885 1.363 . S
C884 C890 1.379 . S
C884 N892 1.356 . S
C885 C884 1.363 . S
C885 C891 1.363 . S
C886 C887 1.363 . S
C886 C891 1.379 . S
C886 N893 1.356 . S
C887 C886 1.363 . S
C887 C890 1.363 . S
N888 C890 1.356 . S
N888 H900 0.984 . S
N888 H901 0.985 . S
N889 C891 1.356 . S
N889 H894 0.984 . S
N889 H895 0.985 . S
C890 C884 1.379 . S
C890 C887 1.363 . S
C890 N888 1.356 . S
C891 C885 1.363 . S
C891 C886 1.379 . S
C891 N889 1.356 . S
N892 C884 1.356 . S
N892 H898 0.984 . S
N892 H899 0.984 . S
N893 C886 1.356 . S
N893 H896 0.984 . S
N893 H897 0.985 . S
H894 N889 0.984 . S
H895 N889 0.985 . S
H896 N893 0.984 . S
H897 N893 0.985 . S
H898 N892 0.984 . S
H899 N892 0.984 . S
H900 N888 0.984 . S
H901 N888 0.985 . S
C902 C903 1.347 1_655 S
C902 C908 1.380 . S
C902 N910 1.368 . S
C903 C902 1.347 1_455 S
C903 C909 1.363 . S
C904 C905 1.363 . S
C904 C909 1.379 . S
C904 N911 1.356 . S
C905 C904 1.363 . S
C905 C908 1.363 1_455 S
N906 C908 1.356 . S
N906 H918 0.984 . S
N906 H919 0.985 . S
N907 C909 1.356 . S
N907 H912 0.984 . S
N907 H913 0.985 . S
C908 C902 1.380 . S
C908 C905 1.363 1_655 S
C908 N906 1.356 . S
C909 C903 1.363 . S
C909 C904 1.379 . S
C909 N907 1.356 . S
N910 C902 1.368 . S
N910 H916 0.984 . S
N910 H917 0.984 . S
N911 C904 1.356 . S
N911 H914 0.984 . S
N911 H915 0.985 . S
H912 N907 0.984 . S
H913 N907 0.985 . S
H914 N911 0.984 . S
H915 N911 0.985 . S
H916 N910 0.984 . S
H917 N910 0.984 . S
H918 N906 0.984 . S
H919 N906 0.985 . S
C920 C921 1.363 . S
C920 C926 1.379 . S
C920 N928 1.356 . S
C921 C920 1.363 . S
C921 C927 1.363 . S
C922 C923 1.363 . S
C922 C927 1.379 . S
C922 N929 1.356 . S
C923 C922 1.363 . S
C923 C926 1.363 . S
N924 C926 1.356 . S
N924 H936 0.984 . S
N924 H937 0.985 . S
N925 C927 1.356 . S
N925 H930 0.984 . S
N925 H931 0.985 . S
C926 C920 1.379 . S
C926 C923 1.363 . S
C926 N924 1.356 . S
C927 C921 1.363 . S
C927 C922 1.379 . S
C927 N925 1.356 . S
N928 C920 1.356 . S
N928 H934 0.984 . S
N928 H935 0.984 . S
N929 C922 1.356 . S
N929 H932 0.984 . S
N929 H933 0.985 . S
H930 N925 0.984 . S
H931 N925 0.985 . S
H932 N929 0.984 . S
H933 N929 0.985 . S
H934 N928 0.984 . S
H935 N928 0.984 . S
H936 N924 0.984 . S
H937 N924 0.985 . S
C938 C939 1.363 . S
C938 C944 1.379 . S
C938 N946 1.356 . S
C939 C938 1.363 . S
C939 C945 1.363 . S
C940 C941 1.363 . S
C940 C945 1.379 . S
C940 N947 1.356 . S
C941 C940 1.363 . S
C941 C944 1.363 . S
N942 C944 1.356 . S
N942 H954 0.984 . S
N942 H955 0.985 . S
N943 C945 1.356 . S
N943 H948 0.984 . S
N943 H949 0.985 . S
C944 C938 1.379 . S
C944 C941 1.363 . S
C944 N942 1.356 . S
C945 C939 1.363 . S
C945 C940 1.379 . S
C945 N943 1.356 . S
N946 C938 1.356 . S
N946 H952 0.984 . S
N946 H953 0.984 . S
N947 C940 1.356 . S
N947 H950 0.984 . S
N947 H951 0.985 . S
H948 N943 0.984 . S
H949 N943 0.985 . S
H950 N947 0.984 . S
H951 N947 0.985 . S
H952 N946 0.984 . S
H953 N946 0.984 . S
H954 N942 0.984 . S
H955 N942 0.985 . S
C956 C957 1.363 . S
C956 C962 1.379 . S
C956 N964 1.356 . S
C957 C956 1.363 . S
C957 C963 1.363 . S
C958 C959 1.363 . S
C958 C963 1.379 . S
C958 N965 1.356 . S
C959 C958 1.363 . S
C959 C962 1.363 . S
N960 C962 1.356 . S
N960 H972 0.984 . S
N960 H973 0.985 . S
N961 C963 1.356 . S
N961 H966 0.984 . S
N961 H967 0.985 . S
C962 C956 1.379 . S
C962 C959 1.363 . S
C962 N960 1.356 . S
C963 C957 1.363 . S
C963 C958 1.379 . S
C963 N961 1.356 . S
N964 C956 1.356 . S
N964 H970 0.984 . S
N964 H971 0.984 . S
N965 C958 1.356 . S
N965 H968 0.984 . S
N965 H969 0.985 . S
H966 N961 0.984 . S
H967 N961 0.985 . S
H968 N965 0.984 . S
H969 N965 0.985 . S
H970 N964 0.984 . S
H971 N964 0.984 . S
H972 N960 0.984 . S
H973 N960 0.985 . S
C974 C975 1.363 . S
C974 C980 1.379 . S
C974 N982 1.356 . S
C975 C974 1.363 . S
C975 C981 1.363 . S
C976 C977 1.363 . S
C976 C981 1.379 . S
C976 N983 1.356 . S
C977 C976 1.363 . S
C977 C980 1.363 . S
N978 C980 1.356 . S
N978 H990 0.984 . S
N978 H991 0.985 . S
N979 C981 1.356 . S
N979 H984 0.984 . S
N979 H985 0.985 . S
C980 C974 1.379 . S
C980 C977 1.363 . S
C980 N978 1.356 . S
C981 C975 1.363 . S
C981 C976 1.379 . S
C981 N979 1.356 . S
N982 C974 1.356 . S
N982 H988 0.984 . S
N982 H989 0.984 . S
N983 C976 1.356 . S
N983 H986 0.984 . S
N983 H987 0.985 . S
H984 N979 0.984 . S
H985 N979 0.985 . S
H986 N983 0.984 . S
H987 N983 0.985 . S
H988 N982 0.984 . S
H989 N982 0.984 . S
H990 N978 0.984 . S
H991 N978 0.985 . S
C992 C993 1.363 . S
C992 C998 1.379 . S
C992 N1000 1.356 . S
C993 C992 1.363 . S
C993 C999 1.363 1_556 S
C994 C995 1.346 1_554 S
C994 C999 1.379 . S
C994 N1001 1.356 . S
C995 C994 1.346 1_556 S
C995 C998 1.385 . S
N996 C998 1.356 . S
N996 H1008 0.984 . S
N996 H1009 0.985 . S
N997 C999 1.356 . S
N997 H1002 0.984 . S
N997 H1003 0.985 . S
C998 C992 1.379 . S
C998 C995 1.385 . S
C998 N996 1.356 . S
C999 C993 1.363 1_554 S
C999 C994 1.379 . S
C999 N997 1.356 . S
N1000 C992 1.356 . S
N1000 H1006 0.984 . S
N1000 H1007 0.984 . S
N1001 C994 1.356 . S
N1001 H1004 0.984 . S
N1001 H1005 0.985 . S
H1002 N997 0.984 . S
H1003 N997 0.985 . S
H1004 N1001 0.984 . S
H1005 N1001 0.985 . S
H1006 N1000 0.984 . S
H1007 N1000 0.984 . S
H1008 N996 0.984 . S
H1009 N996 0.985 . S
C1010 C1011 1.363 . S
C1010 C1016 1.379 . S
C1010 N1018 1.356 . S
C1011 C1010 1.363 . S
C1011 C1017 1.363 . S
C1012 C1013 1.363 . S
C1012 C1017 1.379 . S
C1012 N1019 1.356 . S
C1013 C1012 1.363 . S
C1013 C1016 1.363 . S
N1014 C1016 1.356 . S
N1014 H1026 0.984 . S
N1014 H1027 0.985 . S
N1015 C1017 1.356 . S
N1015 H1020 0.984 . S
N1015 H1021 0.985 . S
C1016 C1010 1.379 . S
C1016 C1013 1.363 . S
C1016 N1014 1.356 . S
C1017 C1011 1.363 . S
C1017 C1012 1.379 . S
C1017 N1015 1.356 . S
N1018 C1010 1.356 . S
N1018 H1024 0.984 . S
N1018 H1025 0.984 . S
N1019 C1012 1.356 . S
N1019 H1022 0.984 . S
N1019 H1023 0.985 . S
H1020 N1015 0.984 . S
H1021 N1015 0.985 . S
H1022 N1019 0.984 . S
H1023 N1019 0.985 . S
H1024 N1018 0.984 . S
H1025 N1018 0.984 . S
H1026 N1014 0.984 . S
H1027 N1014 0.985 . S
C1028 C1029 1.363 . S
C1028 C1034 1.379 . S
C1028 N1036 1.356 . S
C1029 C1028 1.363 . S
C1029 C1035 1.363 . S
C1030 C1031 1.363 . S
C1030 C1035 1.379 . S
C1030 N1037 1.356 . S
C1031 C1030 1.363 . S
C1031 C1034 1.363 . S
N1032 C1034 1.356 . S
N1032 H1044 0.984 . S
N1032 H1045 0.985 . S
N1033 C1035 1.356 . S
N1033 H1038 0.984 . S
N1033 H1039 0.985 . S
C1034 C1028 1.379 . S
C1034 C1031 1.363 . S
C1034 N1032 1.356 . S
C1035 C1029 1.363 . S
C1035 C1030 1.379 . S
C1035 N1033 1.356 . S
N1036 C1028 1.356 . S
N1036 H1042 0.984 . S
N1036 H1043 0.984 . S
N1037 C1030 1.356 . S
N1037 H1040 0.984 . S
N1037 H1041 0.985 . S
H1038 N1033 0.984 . S
H1039 N1033 0.985 . S
H1040 N1037 0.984 . S
H1041 N1037 0.985 . S
H1042 N1036 0.984 . S
H1043 N1036 0.984 . S
H1044 N1032 0.984 . S
H1045 N1032 0.985 . S
C1046 C1047 1.363 . S
C1046 C1052 1.379 . S
C1046 N1054 1.356 . S
C1047 C1046 1.363 . S
C1047 C1053 1.363 . S
C1048 C1049 1.363 . S
C1048 C1053 1.379 . S
C1048 N1055 1.356 . S
C1049 C1048 1.363 . S
C1049 C1052 1.363 . S
N1050 C1052 1.356 . S
N1050 H1062 0.984 . S
N1050 H1063 0.985 . S
N1051 C1053 1.356 . S
N1051 H1056 0.984 . S
N1051 H1057 0.985 . S
C1052 C1046 1.379 . S
C1052 C1049 1.363 . S
C1052 N1050 1.356 . S
C1053 C1047 1.363 . S
C1053 C1048 1.379 . S
C1053 N1051 1.356 . S
N1054 C1046 1.356 . S
N1054 H1060 0.984 . S
N1054 H1061 0.984 . S
N1055 C1048 1.356 . S
N1055 H1058 0.984 . S
N1055 H1059 0.985 . S
H1056 N1051 0.984 . S
H1057 N1051 0.985 . S
H1058 N1055 0.984 . S
H1059 N1055 0.985 . S
H1060 N1054 0.984 . S
H1061 N1054 0.984 . S
H1062 N1050 0.984 . S
H1063 N1050 0.985 . S
C1064 C1065 1.363 . S
C1064 C1070 1.379 . S
C1064 N1072 1.356 . S
C1065 C1064 1.363 . S
C1065 C1071 1.363 . S
C1066 C1067 1.363 . S
C1066 C1071 1.379 . S
C1066 N1073 1.356 . S
C1067 C1066 1.363 . S
C1067 C1070 1.363 . S
N1068 C1070 1.356 . S
N1068 H1080 0.984 . S
N1068 H1081 0.985 . S
N1069 C1071 1.356 . S
N1069 H1074 0.984 . S
N1069 H1075 0.985 . S
C1070 C1064 1.379 . S
C1070 C1067 1.363 . S
C1070 N1068 1.356 . S
C1071 C1065 1.363 . S
C1071 C1066 1.379 . S
C1071 N1069 1.356 . S
N1072 C1064 1.356 . S
N1072 H1078 0.984 . S
N1072 H1079 0.984 . S
N1073 C1066 1.356 . S
N1073 H1076 0.984 . S
N1073 H1077 0.985 . S
H1074 N1069 0.984 . S
H1075 N1069 0.985 . S
H1076 N1073 0.984 . S
H1077 N1073 0.985 . S
H1078 N1072 0.984 . S
H1079 N1072 0.984 . S
H1080 N1068 0.984 . S
H1081 N1068 0.985 . S
C1082 C1083 1.363 . S
C1082 C1088 1.379 . S
C1082 N1090 1.356 . S
C1083 C1082 1.363 . S
C1083 C1089 1.363 . S
C1084 C1085 1.363 . S
C1084 C1089 1.379 . S
C1084 N1091 1.356 . S
C1085 C1084 1.363 . S
C1085 C1088 1.363 . S
N1086 C1088 1.356 . S
N1086 H1098 0.984 . S
N1086 H1099 0.985 . S
N1087 C1089 1.356 . S
N1087 H1092 0.984 . S
N1087 H1093 0.985 . S
C1088 C1082 1.379 . S
C1088 C1085 1.363 . S
C1088 N1086 1.356 . S
C1089 C1083 1.363 . S
C1089 C1084 1.379 . S
C1089 N1087 1.356 . S
N1090 C1082 1.356 . S
N1090 H1096 0.984 . S
N1090 H1097 0.984 . S
N1091 C1084 1.356 . S
N1091 H1094 0.984 . S
N1091 H1095 0.985 . S
H1092 N1087 0.984 . S
H1093 N1087 0.985 . S
H1094 N1091 0.984 . S
H1095 N1091 0.985 . S
H1096 N1090 0.984 . S
H1097 N1090 0.984 . S
H1098 N1086 0.984 . S
H1099 N1086 0.985 . S
C1100 C1101 1.363 . S
C1100 C1106 1.379 . S
C1100 N1108 1.356 . S
C1101 C1100 1.363 . S
C1101 C1107 1.363 . S
C1102 C1103 1.363 . S
C1102 C1107 1.379 . S
C1102 N1109 1.356 . S
C1103 C1102 1.363 . S
C1103 C1106 1.363 . S
N1104 C1106 1.356 . S
N1104 H1116 0.984 . S
N1104 H1117 0.985 . S
N1105 C1107 1.356 . S
N1105 H1110 0.984 . S
N1105 H1111 0.985 . S
C1106 C1100 1.379 . S
C1106 C1103 1.363 . S
C1106 N1104 1.356 . S
C1107 C1101 1.363 . S
C1107 C1102 1.379 . S
C1107 N1105 1.356 . S
N1108 C1100 1.356 . S
N1108 H1114 0.984 . S
N1108 H1115 0.984 . S
N1109 C1102 1.356 . S
N1109 H1112 0.984 . S
N1109 H1113 0.985 . S
H1110 N1105 0.984 . S
H1111 N1105 0.985 . S
H1112 N1109 0.984 . S
H1113 N1109 0.985 . S
H1114 N1108 0.984 . S
H1115 N1108 0.984 . S
H1116 N1104 0.984 . S
H1117 N1104 0.985 . S
C1118 C1119 1.365 1_565 S
C1118 C1124 1.378 . S
C1118 N1126 1.355 . S
C1119 C1118 1.365 1_545 S
C1119 C1125 1.363 . S
C1120 C1121 1.363 . S
C1120 C1125 1.379 . S
C1120 N1127 1.356 . S
C1121 C1120 1.363 . S
C1121 C1124 1.363 1_545 S
N1122 C1124 1.356 . S
N1122 H1134 0.984 . S
N1122 H1135 0.985 . S
N1123 C1125 1.356 . S
N1123 H1128 0.984 . S
N1123 H1129 0.985 . S
C1124 C1118 1.378 . S
C1124 C1121 1.363 1_565 S
C1124 N1122 1.356 . S
C1125 C1119 1.363 . S
C1125 C1120 1.379 . S
C1125 N1123 1.356 . S
N1126 C1118 1.355 . S
N1126 H1132 0.984 . S
N1126 H1133 0.984 . S
N1127 C1120 1.356 . S
N1127 H1130 0.984 . S
N1127 H1131 0.985 . S
H1128 N1123 0.984 . S
H1129 N1123 0.985 . S
H1130 N1127 0.984 . S
H1131 N1127 0.985 . S
H1132 N1126 0.984 . S
H1133 N1126 0.984 . S
H1134 N1122 0.984 . S
H1135 N1122 0.985 . S
C1136 C1137 1.363 . S
C1136 C1142 1.379 . S
C1136 N1144 1.356 . S
C1137 C1136 1.363 . S
C1137 C1143 1.363 . S
C1138 C1139 1.363 . S
C1138 C1143 1.379 . S
C1138 N1145 1.356 . S
C1139 C1138 1.363 . S
C1139 C1142 1.363 . S
N1140 C1142 1.356 . S
N1140 H1152 0.984 . S
N1140 H1153 0.985 . S
N1141 C1143 1.356 . S
N1141 H1146 0.984 . S
N1141 H1147 0.985 . S
C1142 C1136 1.379 . S
C1142 C1139 1.363 . S
C1142 N1140 1.356 . S
C1143 C1137 1.363 . S
C1143 C1138 1.379 . S
C1143 N1141 1.356 . S
N1144 C1136 1.356 . S
N1144 H1150 0.984 . S
N1144 H1151 0.984 . S
N1145 C1138 1.356 . S
N1145 H1148 0.984 . S
N1145 H1149 0.985 . S
H1146 N1141 0.984 . S
H1147 N1141 0.985 . S
H1148 N1145 0.984 . S
H1149 N1145 0.985 . S
H1150 N1144 0.984 . S
H1151 N1144 0.984 . S
H1152 N1140 0.984 . S
H1153 N1140 0.985 . S
C1154 C1155 1.363 . S
C1154 C1160 1.379 . S
C1154 N1162 1.356 . S
C1155 C1154 1.363 . S
C1155 C1161 1.363 . S
C1156 C1157 1.363 . S
C1156 C1161 1.379 . S
C1156 N1163 1.356 . S
C1157 C1156 1.363 . S
C1157 C1160 1.363 . S
N1158 C1160 1.356 . S
N1158 H1170 0.984 . S
N1158 H1171 0.985 . S
N1159 C1161 1.356 . S
N1159 H1164 0.984 . S
N1159 H1165 0.985 . S
C1160 C1154 1.379 . S
C1160 C1157 1.363 . S
C1160 N1158 1.356 . S
C1161 C1155 1.363 . S
C1161 C1156 1.379 . S
C1161 N1159 1.356 . S
N1162 C1154 1.356 . S
N1162 H1168 0.984 . S
N1162 H1169 0.984 . S
N1163 C1156 1.356 . S
N1163 H1166 0.984 . S
N1163 H1167 0.985 . S
H1164 N1159 0.984 . S
H1165 N1159 0.985 . S
H1166 N1163 0.984 . S
H1167 N1163 0.985 . S
H1168 N1162 0.984 . S
H1169 N1162 0.984 . S
H1170 N1158 0.984 . S
H1171 N1158 0.985 . S
C1172 C1173 1.363 . S
C1172 C1178 1.379 . S
C1172 N1180 1.356 . S
C1173 C1172 1.363 . S
C1173 C1179 1.363 . S
C1174 C1175 1.363 . S
C1174 C1179 1.379 . S
C1174 N1181 1.356 . S
C1175 C1174 1.363 . S
C1175 C1178 1.363 . S
N1176 C1178 1.356 . S
N1176 H1188 0.984 . S
N1176 H1189 0.985 . S
N1177 C1179 1.356 . S
N1177 H1182 0.984 . S
N1177 H1183 0.985 . S
C1178 C1172 1.379 . S
C1178 C1175 1.363 . S
C1178 N1176 1.356 . S
C1179 C1173 1.363 . S
C1179 C1174 1.379 . S
C1179 N1177 1.356 . S
N1180 C1172 1.356 . S
N1180 H1186 0.984 . S
N1180 H1187 0.984 . S
N1181 C1174 1.356 . S
N1181 H1184 0.984 . S
N1181 H1185 0.985 . S
H1182 N1177 0.984 . S
H1183 N1177 0.985 . S
H1184 N1181 0.984 . S
H1185 N1181 0.985 . S
H1186 N1180 0.984 . S
H1187 N1180 0.984 . S
H1188 N1176 0.984 . S
H1189 N1176 0.985 . S
C1190 C1191 1.363 . S
C1190 C1196 1.379 . S
C1190 N1198 1.356 . S
C1191 C1190 1.363 . S
C1191 C1197 1.363 . S
C1192 C1193 1.363 . S
C1192 C1197 1.379 . S
C1192 N1199 1.356 1_545 S
C1193 C1192 1.363 . S
C1193 C1196 1.363 . S
N1194 C1196 1.356 . S
N1194 H1206 0.984 . S
N1194 H1207 0.985 . S
N1195 C1197 1.356 1_565 S
N1195 H1200 0.984 1_565 S
N1195 H1201 0.985 . S
C1196 C1190 1.379 . S
C1196 C1193 1.363 . S
C1196 N1194 1.356 . S
C1197 C1191 1.363 . S
C1197 C1192 1.379 . S
C1197 N1195 1.356 1_545 S
N1198 C1190 1.356 . S
N1198 H1204 0.984 . S
N1198 H1205 0.984 . S
N1199 C1192 1.356 1_565 S
N1199 H1202 0.984 . S
N1199 H1203 0.985 . S
H1200 N1195 0.984 1_545 S
H1201 N1195 0.985 . S
H1202 N1199 0.984 . S
H1203 N1199 0.985 . S
H1204 N1198 0.984 . S
H1205 N1198 0.984 . S
H1206 N1194 0.984 . S
H1207 N1194 0.985 . S
C1208 C1209 1.363 . S
C1208 C1214 1.379 . S
C1208 N1216 1.356 . S
C1209 C1208 1.363 . S
C1209 C1215 1.363 . S
C1210 C1211 1.363 . S
C1210 C1215 1.379 . S
C1210 N1217 1.356 . S
C1211 C1210 1.363 . S
C1211 C1214 1.363 . S
N1212 C1214 1.356 . S
N1212 H1224 0.984 . S
N1212 H1225 0.985 . S
N1213 C1215 1.356 . S
N1213 H1218 0.984 . S
N1213 H1219 0.985 . S
C1214 C1208 1.379 . S
C1214 C1211 1.363 . S
C1214 N1212 1.356 . S
C1215 C1209 1.363 . S
C1215 C1210 1.379 . S
C1215 N1213 1.356 . S
N1216 C1208 1.356 . S
N1216 H1222 0.984 . S
N1216 H1223 0.984 . S
N1217 C1210 1.356 . S
N1217 H1220 0.984 . S
N1217 H1221 0.985 . S
H1218 N1213 0.984 . S
H1219 N1213 0.985 . S
H1220 N1217 0.984 . S
H1221 N1217 0.985 . S
H1222 N1216 0.984 . S
H1223 N1216 0.984 . S
H1224 N1212 0.984 . S
H1225 N1212 0.985 . S
C1226 C1227 1.363 . S
C1226 C1232 1.379 . S
C1226 N1234 1.356 . S
C1227 C1226 1.363 . S
C1227 C1233 1.363 . S
C1228 C1229 1.363 . S
C1228 C1233 1.379 . S
C1228 N1235 1.356 . S
C1229 C1228 1.363 . S
C1229 C1232 1.363 . S
N1230 C1232 1.356 . S
N1230 H1242 0.984 . S
N1230 H1243 0.985 . S
N1231 C1233 1.356 . S
N1231 H1236 0.984 . S
N1231 H1237 0.985 . S
C1232 C1226 1.379 . S
C1232 C1229 1.363 . S
C1232 N1230 1.356 . S
C1233 C1227 1.363 . S
C1233 C1228 1.379 . S
C1233 N1231 1.356 . S
N1234 C1226 1.356 . S
N1234 H1240 0.984 . S
N1234 H1241 0.984 . S
N1235 C1228 1.356 . S
N1235 H1238 0.984 . S
N1235 H1239 0.985 . S
H1236 N1231 0.984 . S
H1237 N1231 0.985 . S
H1238 N1235 0.984 . S
H1239 N1235 0.985 . S
H1240 N1234 0.984 . S
H1241 N1234 0.984 . S
H1242 N1230 0.984 . S
H1243 N1230 0.985 . S
C1244 C1245 1.363 . S
C1244 C1250 1.379 . S
C1244 N1252 1.356 . S
C1245 C1244 1.363 . S
C1245 C1251 1.363 . S
C1246 C1247 1.363 . S
C1246 C1251 1.379 . S
C1246 N1253 1.356 . S
C1247 C1246 1.363 . S
C1247 C1250 1.363 . S
N1248 C1250 1.356 . S
N1248 H1260 0.984 . S
N1248 H1261 0.985 . S
N1249 C1251 1.356 . S
N1249 H1254 0.984 . S
N1249 H1255 0.985 . S
C1250 C1244 1.379 . S
C1250 C1247 1.363 . S
C1250 N1248 1.356 . S
C1251 C1245 1.363 . S
C1251 C1246 1.379 . S
C1251 N1249 1.356 . S
N1252 C1244 1.356 . S
N1252 H1258 0.984 . S
N1252 H1259 0.984 . S
N1253 C1246 1.356 . S
N1253 H1256 0.984 . S
N1253 H1257 0.985 . S
H1254 N1249 0.984 . S
H1255 N1249 0.985 . S
H1256 N1253 0.984 . S
H1257 N1253 0.985 . S
H1258 N1252 0.984 . S
H1259 N1252 0.984 . S
H1260 N1248 0.984 . S
H1261 N1248 0.985 . S
C1262 C1263 1.363 . S
C1262 C1268 1.379 . S
C1262 N1270 1.356 . S
C1263 C1262 1.363 . S
C1263 C1269 1.363 . S
C1264 C1265 1.363 1_455 S
C1264 C1269 1.379 1_455 S
C1264 N1271 1.356 . S
C1265 C1264 1.363 1_655 S
C1265 C1268 1.363 . S
N1266 C1268 1.356 . S
N1266 H1278 0.984 . S
N1266 H1279 0.985 . S
N1267 C1269 1.356 1_454 S
N1267 H1272 0.984 1_455 S
N1267 H1273 0.985 . S
C1268 C1262 1.379 . S
C1268 C1265 1.363 . S
C1268 N1266 1.356 . S
C1269 C1263 1.363 . S
C1269 C1264 1.379 1_655 S
C1269 N1267 1.356 1_656 S
N1270 C1262 1.356 . S
N1270 H1276 0.984 . S
N1270 H1277 0.984 . S
N1271 C1264 1.356 . S
N1271 H1274 0.984 . S
N1271 H1275 0.985 . S
H1272 N1267 0.984 1_655 S
H1273 N1267 0.985 . S
H1274 N1271 0.984 . S
H1275 N1271 0.985 . S
H1276 N1270 0.984 . S
H1277 N1270 0.984 . S
H1278 N1266 0.984 . S
H1279 N1266 0.985 . S
C1280 C1281 1.363 . S
C1280 C1286 1.379 . S
C1280 N1288 1.356 . S
C1281 C1280 1.363 . S
C1281 C1287 1.363 . S
C1282 C1283 1.363 . S
C1282 C1287 1.379 . S
C1282 N1289 1.356 . S
C1283 C1282 1.363 . S
C1283 C1286 1.363 . S
N1284 C1286 1.356 . S
N1284 H1296 0.984 . S
N1284 H1297 0.985 . S
N1285 C1287 1.356 . S
N1285 H1290 0.984 . S
N1285 H1291 0.985 . S
C1286 C1280 1.379 . S
C1286 C1283 1.363 . S
C1286 N1284 1.356 . S
C1287 C1281 1.363 . S
C1287 C1282 1.379 . S
C1287 N1285 1.356 . S
N1288 C1280 1.356 . S
N1288 H1294 0.984 . S
N1288 H1295 0.984 . S
N1289 C1282 1.356 . S
N1289 H1292 0.984 . S
N1289 H1293 0.985 . S
H1290 N1285 0.984 . S
H1291 N1285 0.985 . S
H1292 N1289 0.984 . S
H1293 N1289 0.985 . S
H1294 N1288 0.984 . S
H1295 N1288 0.984 . S
H1296 N1284 0.984 . S
H1297 N1284 0.985 . S
C1298 C1299 1.363 . S
C1298 C1304 1.379 . S
C1298 N1306 1.356 1_456 S
C1299 C1298 1.363 . S
C1299 C1305 1.363 . S
C1300 C1301 1.363 . S
C1300 C1305 1.379 . S
C1300 N1307 1.356 . S
C1301 C1300 1.363 . S
C1301 C1304 1.363 . S
N1302 C1304 1.356 1_655 S
N1302 H1314 0.984 . S
N1302 H1315 0.985 . S
N1303 C1305 1.356 . S
N1303 H1308 0.984 . S
N1303 H1309 0.985 . S
C1304 C1298 1.379 . S
C1304 C1301 1.363 . S
C1304 N1302 1.356 1_455 S
C1305 C1299 1.363 . S
C1305 C1300 1.379 . S
C1305 N1303 1.356 . S
N1306 C1298 1.356 1_654 S
N1306 H1312 0.984 . S
N1306 H1313 0.984 1_655 S
N1307 C1300 1.356 . S
N1307 H1310 0.984 . S
N1307 H1311 0.985 . S
H1308 N1303 0.984 . S
H1309 N1303 0.985 . S
H1310 N1307 0.984 . S
H1311 N1307 0.985 . S
H1312 N1306 0.984 . S
H1313 N1306 0.984 1_455 S
H1314 N1302 0.984 . S
H1315 N1302 0.985 . S
C1316 C1317 1.363 . S
C1316 C1322 1.379 . S
C1316 N1324 1.356 . S
C1317 C1316 1.363 . S
C1317 C1323 1.363 . S
C1318 C1319 1.363 . S
C1318 C1323 1.379 . S
C1318 N1325 1.356 . S
C1319 C1318 1.363 . S
C1319 C1322 1.363 . S
N1320 C1322 1.356 . S
N1320 H1332 0.984 . S
N1320 H1333 0.985 . S
N1321 C1323 1.356 . S
N1321 H1326 0.984 . S
N1321 H1327 0.985 . S
C1322 C1316 1.379 . S
C1322 C1319 1.363 . S
C1322 N1320 1.356 . S
C1323 C1317 1.363 . S
C1323 C1318 1.379 . S
C1323 N1321 1.356 . S
N1324 C1316 1.356 . S
N1324 H1330 0.984 . S
N1324 H1331 0.984 . S
N1325 C1318 1.356 . S
N1325 H1328 0.984 . S
N1325 H1329 0.985 . S
H1326 N1321 0.984 . S
H1327 N1321 0.985 . S
H1328 N1325 0.984 . S
H1329 N1325 0.985 . S
H1330 N1324 0.984 . S
H1331 N1324 0.984 . S
H1332 N1320 0.984 . S
H1333 N1320 0.985 . S
C1334 C1335 1.363 . S
C1334 C1340 1.379 . S
C1334 N1342 1.356 . S
C1335 C1334 1.363 . S
C1335 C1341 1.363 . S
C1336 C1337 1.363 . S
C1336 C1341 1.379 . S
C1336 N1343 1.356 . S
C1337 C1336 1.363 . S
C1337 C1340 1.363 . S
N1338 C1340 1.356 . S
N1338 H1350 0.984 . S
N1338 H1351 0.985 . S
N1339 C1341 1.356 . S
N1339 H1344 0.984 . S
N1339 H1345 0.985 1_554 S
C1340 C1334 1.379 . S
C1340 C1337 1.363 . S
C1340 N1338 1.356 . S
C1341 C1335 1.363 . S
C1341 C1336 1.379 . S
C1341 N1339 1.356 . S
N1342 C1334 1.356 . S
N1342 H1348 0.984 . S
N1342 H1349 0.984 . S
N1343 C1336 1.356 . S
N1343 H1346 0.984 . S
N1343 H1347 0.985 . S
H1344 N1339 0.984 . S
H1345 N1339 0.985 1_556 S
H1346 N1343 0.984 . S
H1347 N1343 0.985 . S
H1348 N1342 0.984 . S
H1349 N1342 0.984 . S
H1350 N1338 0.984 . S
H1351 N1338 0.985 . S
C1352 C1353 1.363 . S
C1352 C1358 1.379 . S
C1352 N1360 1.356 . S
C1353 C1352 1.363 . S
C1353 C1359 1.363 . S
C1354 C1355 1.363 . S
C1354 C1359 1.379 . S
C1354 N1361 1.356 . S
C1355 C1354 1.363 . S
C1355 C1358 1.363 . S
N1356 C1358 1.356 . S
N1356 H1368 0.984 . S
N1356 H1369 0.985 . S
N1357 C1359 1.356 . S
N1357 H1362 0.984 . S
N1357 H1363 0.985 . S
C1358 C1352 1.379 . S
C1358 C1355 1.363 . S
C1358 N1356 1.356 . S
C1359 C1353 1.363 . S
C1359 C1354 1.379 . S
C1359 N1357 1.356 . S
N1360 C1352 1.356 . S
N1360 H1366 0.984 . S
N1360 H1367 0.984 . S
N1361 C1354 1.356 . S
N1361 H1364 0.984 . S
N1361 H1365 0.985 . S
H1362 N1357 0.984 . S
H1363 N1357 0.985 . S
H1364 N1361 0.984 . S
H1365 N1361 0.985 . S
H1366 N1360 0.984 . S
H1367 N1360 0.984 . S
H1368 N1356 0.984 . S
H1369 N1356 0.985 . S
C1370 C1371 1.363 . S
C1370 C1376 1.379 . S
C1370 N1378 1.356 . S
C1371 C1370 1.363 . S
C1371 C1377 1.363 . S
C1372 C1373 1.363 . S
C1372 C1377 1.379 . S
C1372 N1379 1.356 . S
C1373 C1372 1.363 . S
C1373 C1376 1.363 . S
N1374 C1376 1.356 . S
N1374 H1386 0.984 . S
N1374 H1387 0.985 . S
N1375 C1377 1.356 . S
N1375 H1380 0.984 . S
N1375 H1381 0.985 . S
C1376 C1370 1.379 . S
C1376 C1373 1.363 . S
C1376 N1374 1.356 . S
C1377 C1371 1.363 . S
C1377 C1372 1.379 . S
C1377 N1375 1.356 . S
N1378 C1370 1.356 . S
N1378 H1384 0.984 . S
N1378 H1385 0.984 . S
N1379 C1372 1.356 . S
N1379 H1382 0.984 . S
N1379 H1383 0.985 . S
H1380 N1375 0.984 . S
H1381 N1375 0.985 . S
H1382 N1379 0.984 . S
H1383 N1379 0.985 . S
H1384 N1378 0.984 . S
H1385 N1378 0.984 . S
H1386 N1374 0.984 . S
H1387 N1374 0.985 . S
C1388 C1389 1.363 . S
C1388 C1394 1.379 . S
C1388 N1396 1.356 . S
C1389 C1388 1.363 . S
C1389 C1395 1.363 . S
C1390 C1391 1.363 . S
C1390 C1395 1.379 . S
C1390 N1397 1.356 . S
C1391 C1390 1.363 . S
C1391 C1394 1.363 . S
N1392 C1394 1.356 . S
N1392 H1404 0.984 . S
N1392 H1405 0.985 . S
N1393 C1395 1.356 . S
N1393 H1398 0.984 . S
N1393 H1399 0.985 . S
C1394 C1388 1.379 . S
C1394 C1391 1.363 . S
C1394 N1392 1.356 . S
C1395 C1389 1.363 . S
C1395 C1390 1.379 . S
C1395 N1393 1.356 . S
N1396 C1388 1.356 . S
N1396 H1402 0.984 . S
N1396 H1403 0.984 . S
N1397 C1390 1.356 . S
N1397 H1400 0.984 . S
N1397 H1401 0.985 . S
H1398 N1393 0.984 . S
H1399 N1393 0.985 . S
H1400 N1397 0.984 . S
H1401 N1397 0.985 . S
H1402 N1396 0.984 . S
H1403 N1396 0.984 . S
H1404 N1392 0.984 . S
H1405 N1392 0.985 . S
C1406 C1407 1.363 . S
C1406 C1412 1.379 . S
C1406 N1414 1.356 . S
C1407 C1406 1.363 . S
C1407 C1413 1.363 . S
C1408 C1409 1.363 . S
C1408 C1413 1.379 . S
C1408 N1415 1.356 . S
C1409 C1408 1.363 . S
C1409 C1412 1.363 . S
N1410 C1412 1.356 . S
N1410 H1422 0.984 . S
N1410 H1423 0.985 . S
N1411 C1413 1.356 . S
N1411 H1416 0.984 . S
N1411 H1417 0.985 . S
C1412 C1406 1.379 . S
C1412 C1409 1.363 . S
C1412 N1410 1.356 . S
C1413 C1407 1.363 . S
C1413 C1408 1.379 . S
C1413 N1411 1.356 . S
N1414 C1406 1.356 . S
N1414 H1420 0.984 . S
N1414 H1421 0.984 . S
N1415 C1408 1.356 . S
N1415 H1418 0.984 . S
N1415 H1419 0.985 . S
H1416 N1411 0.984 . S
H1417 N1411 0.985 . S
H1418 N1415 0.984 . S
H1419 N1415 0.985 . S
H1420 N1414 0.984 . S
H1421 N1414 0.984 . S
H1422 N1410 0.984 . S
H1423 N1410 0.985 . S
C1424 C1425 1.363 . S
C1424 C1430 1.379 . S
C1424 N1432 1.356 . S
C1425 C1424 1.363 . S
C1425 C1431 1.363 . S
C1426 C1427 1.363 . S
C1426 C1431 1.379 . S
C1426 N1433 1.356 . S
C1427 C1426 1.363 . S
C1427 C1430 1.363 . S
N1428 C1430 1.356 . S
N1428 H1440 0.984 . S
N1428 H1441 0.985 . S
N1429 C1431 1.356 . S
N1429 H1434 0.984 . S
N1429 H1435 0.985 . S
C1430 C1424 1.379 . S
C1430 C1427 1.363 . S
C1430 N1428 1.356 . S
C1431 C1425 1.363 . S
C1431 C1426 1.379 . S
C1431 N1429 1.356 . S
N1432 C1424 1.356 . S
N1432 H1438 0.984 . S
N1432 H1439 0.984 . S
N1433 C1426 1.356 . S
N1433 H1436 0.984 . S
N1433 H1437 0.985 . S
H1434 N1429 0.984 . S
H1435 N1429 0.985 . S
H1436 N1433 0.984 . S
H1437 N1433 0.985 . S
H1438 N1432 0.984 . S
H1439 N1432 0.984 . S
H1440 N1428 0.984 . S
H1441 N1428 0.985 . S
C1442 C1443 1.363 . S
C1442 C1448 1.379 . S
C1442 N1450 1.356 . S
C1443 C1442 1.363 . S
C1443 C1449 1.363 . S
C1444 C1445 1.363 . S
C1444 C1449 1.379 . S
C1444 N1451 1.356 . S
C1445 C1444 1.363 . S
C1445 C1448 1.363 . S
N1446 C1448 1.356 . S
N1446 H1458 0.984 . S
N1446 H1459 0.985 . S
N1447 C1449 1.356 . S
N1447 H1452 0.984 . S
N1447 H1453 0.985 . S
C1448 C1442 1.379 . S
C1448 C1445 1.363 . S
C1448 N1446 1.356 . S
C1449 C1443 1.363 . S
C1449 C1444 1.379 . S
C1449 N1447 1.356 . S
N1450 C1442 1.356 . S
N1450 H1456 0.984 . S
N1450 H1457 0.984 . S
N1451 C1444 1.356 . S
N1451 H1454 0.984 . S
N1451 H1455 0.985 . S
H1452 N1447 0.984 . S
H1453 N1447 0.985 . S
H1454 N1451 0.984 . S
H1455 N1451 0.985 . S
H1456 N1450 0.984 . S
H1457 N1450 0.984 . S
H1458 N1446 0.984 . S
H1459 N1446 0.985 . S
C1460 C1461 1.363 1_554 S
C1460 C1466 1.379 . S
C1460 N1468 1.356 . S
C1461 C1460 1.363 1_556 S
C1461 C1467 1.363 . S
C1462 C1463 1.363 . S
C1462 C1467 1.379 . S
C1462 N1469 1.356 . S
C1463 C1462 1.363 . S
C1463 C1466 1.363 1_556 S
N1464 C1466 1.356 . S
N1464 H1476 0.984 . S
N1464 H1477 0.985 . S
N1465 C1467 1.356 . S
N1465 H1470 0.984 . S
N1465 H1471 0.985 . S
C1466 C1460 1.379 . S
C1466 C1463 1.363 1_554 S
C1466 N1464 1.356 . S
C1467 C1461 1.363 . S
C1467 C1462 1.379 . S
C1467 N1465 1.356 . S
N1468 C1460 1.356 . S
N1468 H1474 0.984 . S
N1468 H1475 0.984 . S
N1469 C1462 1.356 . S
N1469 H1472 0.984 . S
N1469 H1473 0.985 . S
H1470 N1465 0.984 . S
H1471 N1465 0.985 . S
H1472 N1469 0.984 . S
H1473 N1469 0.985 . S
H1474 N1468 0.984 . S
H1475 N1468 0.984 . S
H1476 N1464 0.984 . S
H1477 N1464 0.985 . S
C1478 C1479 1.363 . S
C1478 C1484 1.379 . S
C1478 N1486 1.356 . S
C1479 C1478 1.363 . S
C1479 C1485 1.363 . S
C1480 C1481 1.363 . S
C1480 C1485 1.379 . S
C1480 N1487 1.356 . S
C1481 C1480 1.363 . S
C1481 C1484 1.363 . S
N1482 C1484 1.356 . S
N1482 H1494 0.984 . S
N1482 H1495 0.985 . S
N1483 C1485 1.356 . S
N1483 H1488 0.984 . S
N1483 H1489 0.985 . S
C1484 C1478 1.379 . S
C1484 C1481 1.363 . S
C1484 N1482 1.356 . S
C1485 C1479 1.363 . S
C1485 C1480 1.379 . S
C1485 N1483 1.356 . S
N1486 C1478 1.356 . S
N1486 H1492 0.984 . S
N1486 H1493 0.984 . S
N1487 C1480 1.356 . S
N1487 H1490 0.984 . S
N1487 H1491 0.985 . S
H1488 N1483 0.984 . S
H1489 N1483 0.985 . S
H1490 N1487 0.984 . S
H1491 N1487 0.985 . S
H1492 N1486 0.984 . S
H1493 N1486 0.984 . S
H1494 N1482 0.984 . S
H1495 N1482 0.985 . S
C1496 C1497 1.363 . S
C1496 C1502 1.379 1_554 S
C1496 N1504 1.356 1_554 S
C1497 C1496 1.363 . S
C1497 C1503 1.363 . S
C1498 C1499 1.363 . S
C1498 C1503 1.379 . S
C1498 N1505 1.356 . S
C1499 C1498 1.363 . S
C1499 C1502 1.363 1_554 S
N1500 C1502 1.356 . S
N1500 H1512 0.984 . S
N1500 H1513 0.985 . S
N1501 C1503 1.356 . S
N1501 H1506 0.984 . S
N1501 H1507 0.985 . S
C1502 C1496 1.379 1_556 S
C1502 C1499 1.363 1_556 S
C1502 N1500 1.356 . S
C1503 C1497 1.363 . S
C1503 C1498 1.379 . S
C1503 N1501 1.356 . S
N1504 C1496 1.356 1_556 S
N1504 H1510 0.984 . S
N1504 H1511 0.984 . S
N1505 C1498 1.356 . S
N1505 H1508 0.984 . S
N1505 H1509 0.985 . S
H1506 N1501 0.984 . S
H1507 N1501 0.985 . S
H1508 N1505 0.984 . S
H1509 N1505 0.985 . S
H1510 N1504 0.984 . S
H1511 N1504 0.984 . S
H1512 N1500 0.984 . S
H1513 N1500 0.985 . S
C1514 C1515 1.363 . S
C1514 C1520 1.379 . S
C1514 N1522 1.356 . S
C1515 C1514 1.363 . S
C1515 C1521 1.363 . S
C1516 C1517 1.363 . S
C1516 C1521 1.379 . S
C1516 N1523 1.356 1_554 S
C1517 C1516 1.363 . S
C1517 C1520 1.363 . S
N1518 C1520 1.356 . S
N1518 H1530 0.984 . S
N1518 H1531 0.985 . S
N1519 C1521 1.356 1_556 S
N1519 H1524 0.983 1_556 S
N1519 H1525 0.985 . S
C1520 C1514 1.379 . S
C1520 C1517 1.363 . S
C1520 N1518 1.356 . S
C1521 C1515 1.363 . S
C1521 C1516 1.379 . S
C1521 N1519 1.356 1_554 S
N1522 C1514 1.356 . S
N1522 H1528 0.984 . S
N1522 H1529 0.984 . S
N1523 C1516 1.356 1_556 S
N1523 H1526 0.984 . S
N1523 H1527 0.985 . S
H1524 N1519 0.983 1_554 S
H1525 N1519 0.985 . S
H1526 N1523 0.984 . S
H1527 N1523 0.985 . S
H1528 N1522 0.984 . S
H1529 N1522 0.984 . S
H1530 N1518 0.984 . S
H1531 N1518 0.985 . S
C671 C522 1.413 . S
C669 C177 1.379 . S
C689 C535 1.597 . S
C687 C209 1.590 . S
C705 C253 1.403 . S
C707 C548 1.424 . S
C725 C561 1.525 . S
C723 C157 1.498 . S
C743 C569 1.475 . S
C741 C343 1.490 . S
C761 C582 1.420 . S
C759 C401 1.406 . S
C777 C369 1.514 . S
C779 C595 1.511 . S
C797 C608 1.503 . S
C795 C317 1.495 . S
C813 C375 1.444 . S
C815 C626 1.456 . S
C833 C637 1.532 . S
C831 C305 1.552 . S
C849 C349 1.474 . S
C851 C621 1.464 . S
C869 C629 1.461 . S
C867 C413 1.454 . S
C885 C241 1.463 . S
C887 C652 1.478 . S
C903 C151 1.456 . S
C905 C642 1.457 . S
C921 C189 1.471 . S
C923 C647 1.486 . S
C939 C215 1.537 . S
C941 C650 1.521 . S
C957 C113 1.444 . S
C959 C559 1.429 . S
C975 C471 1.397 . S
C977 C551 1.420 . S
C995 C520 1.530 1_556 S
C993 C509 1.539 . S
C1013 C525 1.496 . S
C1011 C279 1.484 . S
C1029 C145 1.470 . S
C1031 C572 1.472 . S
C1049 C611 1.540 . S
C1047 C381 1.538 . S
C1067 C564 1.491 . S
C1065 C311 1.505 . S
C1085 C590 1.443 . S
C1083 C407 1.441 . S
C1103 C600 1.413 . S
C1101 C465 1.379 . S
C1119 C497 1.590 . S
C1121 C613 1.597 . S
C1137 C285 1.403 . S
C1139 C574 1.424 . S
C1157 C587 1.524 . S
C1155 C445 1.498 . S
C1173 C119 1.490 . S
C1175 C543 1.475 . S
C1193 C556 1.420 . S
C1191 C17 1.406 . S
C1211 C517 1.511 . S
C1209 C49 1.514 . S
C1229 C530 1.504 . S
C1227 C93 1.496 . S
C1245 C55 1.444 . S
C1247 C639 1.456 . S
C1263 C81 1.552 . S
C1265 C624 1.532 1_655 S
C1281 C125 1.474 . S
C1283 C634 1.464 . S
C1299 C29 1.481 . S
C1301 C616 1.461 . S
C1319 C665 1.478 . S
C1317 C273 1.463 . S
C1337 C655 1.457 . S
C1335 C439 1.457 . S
C1355 C660 1.486 . S
C1353 C477 1.471 . S
C1371 C503 1.537 . S
C1373 C663 1.521 . S
C1389 C337 1.444 . S
C1391 C585 1.429 . S
C1409 C577 1.420 . S
C1407 C183 1.397 . S
C1427 C598 1.536 . S
C1425 C221 1.539 . S
C1445 C603 1.496 . S
C1443 C247 1.486 . S
C1461 C433 1.470 . S
C1463 C546 1.472 . S
C1481 C533 1.540 . S
C1479 C61 1.540 . S
C1497 C87 1.505 . S
C1499 C538 1.491 . S
C1517 C512 1.443 . S
C1515 C23 1.441 . S
