# Generated by pormake.
# Topology tsx, (6,3)-cn, num edge types: 1
# Building blocks:
#     Node 0, Type 0, BuildingBlock: FUNLAD_clean_sbu_0, # of connection points: 6
#     Node 1, Type 0, BuildingBlock: FUNLAD_clean_sbu_0, # of connection points: 6
#     Node 2, Type 1, BuildingBlock: BETDIP_clean_linker_0, # of connection points: 3
#     Node 3, Type 1, BuildingBlock: BETDIP_clean_linker_0, # of connection points: 3
#     Node 4, Type 1, BuildingBlock: BETDIP_clean_linker_0, # of connection points: 3
#     Node 5, Type 1, BuildingBlock: BETDIP_clean_linker_0, # of connection points: 3
#     Edge 6, Type (0, 1), BuildingBlock: FUNLAD_clean_linker_1, # of connection points: 2
#     Edge 7, Type (0, 1), BuildingBlock: FUNLAD_clean_linker_1, # of connection points: 2
#     Edge 8, Type (0, 1), BuildingBlock: FUNLAD_clean_linker_1, # of connection points: 2
#     Edge 9, Type (0, 1), BuildingBlock: FUNLAD_clean_linker_1, # of connection points: 2
#     Edge 10, Type (0, 1), BuildingBlock: FUNLAD_clean_linker_1, # of connection points: 2
#     Edge 11, Type (0, 1), BuildingBlock: FUNLAD_clean_linker_1, # of connection points: 2
#     Edge 12, Type (0, 1), BuildingBlock: FUNLAD_clean_linker_1, # of connection points: 2
#     Edge 13, Type (0, 1), BuildingBlock: FUNLAD_clean_linker_1, # of connection points: 2
#     Edge 14, Type (0, 1), BuildingBlock: FUNLAD_clean_linker_1, # of connection points: 2
#     Edge 15, Type (0, 1), BuildingBlock: FUNLAD_clean_linker_1, # of connection points: 2
#     Edge 16, Type (0, 1), BuildingBlock: FUNLAD_clean_linker_1, # of connection points: 2
#     Edge 17, Type (0, 1), BuildingBlock: FUNLAD_clean_linker_1, # of connection points: 2
# Relax obj value: 0.112
# Max RMSD: 0.116
# Mean RMSD: 0.112
data_MOF--net-tsx--node1-FUNLAD_clean_sbu_0--node2-BETDIP_clean_linker_0--edge1-FUNLAD_clean_linker_1
_symmetry_space_group_name_H-M    P1
_symmetry_Int_Tables_number       1
_symmetry_cell_setting            triclinic
loop_
_symmetry_equiv_pos_as_xyz
'x, y, z'
_cell_length_a     20.239778
_cell_length_b     22.297579
_cell_length_c     40.878646
_cell_angle_alpha  91.120516
_cell_angle_beta   102.50143
_cell_angle_gamma 89.487316
loop_
_atom_site_label
_atom_site_type_symbol
_atom_site_fract_x
_atom_site_fract_y
_atom_site_fract_z
_atom_type_partial_charge
C0 C 0.92034 0.90204 0.99397 0.0
N1 N 0.05783 0.98628 0.07292 0.0
C2 C 0.0055 0.98721 0.08895 0.0
C3 C 0.01766 0.9869 0.12383 0.0
C4 C 0.08459 0.98611 0.14267 0.0
C5 C 0.13767 0.9842 0.1255 0.0
C6 C 0.12316 0.98463 0.09042 0.0
Zn7 Zn 0.03369 0.9876 0.0216 0.0
C8 C 0.11085 0.89891 0.98914 0.0
N9 N 0.97456 0.99111 0.91504 0.0
C10 C 0.90775 0.99255 0.89983 0.0
C11 C 0.02348 0.99258 0.89693 0.0
C12 C 0.00594 0.9964 0.86211 0.0
C13 C 0.93725 0.99912 0.8458 0.0
C14 C 0.88796 0.99625 0.86506 0.0
Zn15 Zn 0.00161 0.98874 0.96593 0.0
O16 O 0.95814 0.92079 0.0212 0.0
C17 C 0.92426 0.07773 0.99683 0.0
O18 O 0.92738 0.92307 0.96634 0.0
H19 H 0.07625 0.99089 0.90953 0.0
H20 H 0.95391 0.98793 0.07462 0.0
H21 H 0.86966 0.99123 0.91471 0.0
O22 O 0.96116 0.05828 0.0238 0.0
O23 O 0.93059 0.05563 0.96891 0.0
H24 H 0.164 0.98366 0.07717 0.0
O25 O 0.07578 0.05551 0.96602 0.0
O26 O 0.10866 0.0542 0.02089 0.0
O27 O 0.07333 0.92127 0.96326 0.0
O28 O 0.1059 0.91773 0.01815 0.0
C29 C 0.11409 0.07512 0.99283 0.0
H30 H 0.97474 0.98607 0.13563 0.0
H31 H 0.18991 0.98281 0.13912 0.0
H32 H 0.04595 0.99631 0.84834 0.0
H33 H 0.83456 0.99753 0.85335 0.0
C34 C 0.41778 0.44442 0.50048 0.0
N35 N 0.54883 0.52164 0.58288 0.0
C36 C 0.49283 0.52552 0.59617 0.0
C37 C 0.49889 0.52657 0.63077 0.0
C38 C 0.56313 0.52423 0.65211 0.0
C39 C 0.62035 0.5198 0.63779 0.0
C40 C 0.6119 0.51861 0.60288 0.0
Zn41 Zn 0.53428 0.52173 0.53181 0.0
C42 C 0.60949 0.42541 0.50372 0.0
N43 N 0.4951 0.52401 0.42547 0.0
C44 C 0.43012 0.52942 0.40794 0.0
C45 C 0.54767 0.52005 0.4097 0.0
C46 C 0.5358 0.52186 0.37482 0.0
C47 C 0.46908 0.52786 0.35615 0.0
C48 C 0.41595 0.53102 0.37308 0.0
Zn49 Zn 0.51269 0.52291 0.47621 0.0
O50 O 0.45523 0.45991 0.52837 0.0
C51 C 0.4364 0.61915 0.5019 0.0
O52 O 0.42885 0.46532 0.47355 0.0
H53 H 0.59884 0.51525 0.42419 0.0
H54 H 0.44311 0.52791 0.57988 0.0
H55 H 0.38911 0.53261 0.421 0.0
O56 O 0.4633 0.59643 0.53005 0.0
O57 O 0.44985 0.59706 0.47537 0.0
H58 H 0.6557 0.5152 0.59177 0.0
O59 O 0.5966 0.58195 0.47978 0.0
O60 O 0.61314 0.58264 0.53475 0.0
O61 O 0.57546 0.44755 0.47691 0.0
O62 O 0.60482 0.44818 0.53199 0.0
C63 C 0.62907 0.6007 0.50828 0.0
H64 H 0.45355 0.52952 0.64077 0.0
H65 H 0.67096 0.51631 0.65308 0.0
H66 H 0.57828 0.51734 0.3628 0.0
H67 H 0.36389 0.53507 0.35947 0.0
H68 H 0.07467 0.01501 0.49232 0.0
H69 H 0.00793 0.09584 0.39617 0.0
H70 H 0.15234 0.95093 0.40835 0.0
H71 H 0.02357 0.18132 0.43732 0.0
C72 C 0.98989 0.1626 0.45181 0.0
C73 C 0.0753 0.01679 0.46598 0.0
C74 C 0.11614 0.97628 0.45251 0.0
C75 C 0.03679 0.06036 0.44595 0.0
C76 C 0.03863 0.0629 0.41185 0.0
C77 C 0.07845 0.02236 0.39767 0.0
C78 C 0.11807 0.9798 0.41837 0.0
N79 N 0.99596 0.10098 0.46029 0.0
H80 H 0.96601 0.00482 0.50487 0.0
H81 H 0.0178 0.10622 0.59726 0.0
H82 H 0.87511 0.96183 0.58704 0.0
H83 H 0.00852 0.18239 0.54738 0.0
C84 C 0.04893 0.1563 0.54023 0.0
C85 C 0.96005 0.01341 0.53023 0.0
C86 C 0.91669 0.97756 0.54377 0.0
C87 C 0.99615 0.05994 0.54938 0.0
C88 C 0.98846 0.0711 0.58222 0.0
C89 C 0.94435 0.03637 0.59596 0.0
C90 C 0.9085 0.98964 0.57655 0.0
N91 N 0.04277 0.09333 0.53599 0.0
H92 H 0.58776 0.46188 0.99283 0.0
H93 H 0.53041 0.56852 0.90426 0.0
H94 H 0.71971 0.47368 0.92391 0.0
H95 H 0.43472 0.58396 0.9194 0.0
C96 C 0.44199 0.57543 0.94598 0.0
C97 C 0.59847 0.47939 0.96999 0.0
C98 C 0.65949 0.46443 0.96091 0.0
C99 C 0.55179 0.5178 0.95014 0.0
C100 C 0.56537 0.53878 0.91996 0.0
C101 C 0.62514 0.5215 0.90993 0.0
C102 C 0.67319 0.48663 0.93131 0.0
N103 N 0.49354 0.5358 0.96212 0.0
H104 H 0.46125 0.45402 0.01429 0.0
H105 H 0.53064 0.58115 0.0943 0.0
H106 H 0.38496 0.4479 0.10459 0.0
H107 H 0.51203 0.63935 0.03751 0.0
C108 C 0.55138 0.60968 0.03202 0.0
C109 C 0.45936 0.47135 0.03897 0.0
C110 C 0.41649 0.44554 0.05778 0.0
C111 C 0.49924 0.52124 0.05189 0.0
C112 C 0.49776 0.54422 0.08387 0.0
C113 C 0.45648 0.51851 0.10303 0.0
C114 C 0.41556 0.46961 0.08965 0.0
N115 N 0.54332 0.54668 0.03338 0.0
H116 H 0.16189 0.14142 0.96609 0.0
C117 C 0.16187 0.12384 0.99071 0.0
H118 H 0.20447 0.13123 0.04258 0.0
H119 H 0.46568 0.27197 0.02751 0.0
H120 H 0.51357 0.17244 0.03866 0.0
H121 H 0.43981 0.08486 0.03851 0.0
H122 H 0.31759 0.0964 0.02748 0.0
C123 C 0.20236 0.14897 0.01781 0.0
C124 C 0.2462 0.20111 0.0148 0.0
C125 C 0.31743 0.19355 0.02068 0.0
C126 C 0.35995 0.24399 0.02036 0.0
C127 C 0.43098 0.23524 0.0272 0.0
C128 C 0.45916 0.17831 0.03363 0.0
C129 C 0.41763 0.12901 0.03356 0.0
C130 C 0.34758 0.13626 0.02724 0.0
H131 H 0.33422 0.38322 0.06069 0.0
C132 C 0.37167 0.39336 0.04608 0.0
H133 H 0.41423 0.36137 0.00595 0.0
H134 H 0.11162 0.23232 0.00314 0.0
H135 H 0.0639 0.33095 0.9891 0.0
H136 H 0.13728 0.41656 0.98424 0.0
H137 H 0.25932 0.40429 0.99441 0.0
C138 C 0.3756 0.35598 0.02035 0.0
C139 C 0.33113 0.30195 0.01413 0.0
C140 C 0.25968 0.30882 0.00598 0.0
C141 C 0.21721 0.25874 0.00715 0.0
C142 C 0.14631 0.26812 0.0014 0.0
C143 C 0.11814 0.32462 0.9934 0.0
C144 C 0.15948 0.3729 0.99083 0.0
C145 C 0.22943 0.36535 -0.00302 0.0
H146 H 0.16502 0.84337 0.95864 0.0
C147 C 0.16031 0.85258 0.98428 0.0
H148 H 0.19417 0.82774 0.03495 0.0
H149 H 0.27719 0.57623 0.97292 0.0
H150 H 0.18503 0.54443 -0.00223 0.0
H151 H 0.1207 0.61812 0.02446 0.0
H152 H 0.14832 0.72425 0.02646 0.0
C153 C 0.19906 0.82151 0.00916 0.0
C154 C 0.2474 0.77593 0.00079 0.0
C155 C 0.23204 0.71407 0.00075 0.0
C156 C 0.26958 0.67153 0.9856 0.0
C157 C 0.25114 0.61032 0.98454 0.0
C158 C 0.19815 0.59149 -0.00138 0.0
C159 C 0.16189 0.633 0.01363 0.0
C160 C 0.17816 0.6937 0.01458 0.0
H161 H 0.41072 0.59852 0.99166 0.0
C162 C 0.40254 0.60625 0.96492 0.0
H163 H 0.34968 0.65927 0.92393 0.0
H164 H 0.29864 0.88929 0.00339 0.0
H165 H 0.39577 0.92061 0.98201 0.0
H166 H 0.46109 0.84707 0.95578 0.0
H167 H 0.42969 0.74191 0.95071 0.0
C168 C 0.35559 0.64953 0.95037 0.0
C169 C 0.3229 0.69119 0.97098 0.0
C170 C 0.34221 0.75233 0.9739 0.0
C171 C 0.30457 0.79471 0.98893 0.0
C172 C 0.32494 0.85551 0.99162 0.0
C173 C 0.38078 0.87396 0.97966 0.0
C174 C 0.41756 0.83256 0.9649 0.0
C175 C 0.39879 0.7724 0.962 0.0
H176 H 0.8237 0.85757 0.97236 0.0
C177 C 0.86552 0.85909 0.99411 0.0
H178 H 0.90686 0.8249 0.04185 0.0
H179 H 0.63426 0.75071 0.0789 0.0
H180 H 0.68114 0.82205 0.123 0.0
H181 H 0.78387 0.87922 0.12101 0.0
H182 H 0.84084 0.86474 0.07521 0.0
C183 C 0.86501 0.82331 0.02012 0.0
C184 C 0.80454 0.78642 0.02167 0.0
C185 C 0.77098 0.79646 0.04839 0.0
C186 C 0.71043 0.76497 0.04897 0.0
C187 C 0.67925 0.77457 0.07656 0.0
C188 C 0.7058 0.81525 0.10221 0.0
C189 C 0.7637 0.84732 0.10112 0.0
C190 C 0.79605 0.83833 0.07463 0.0
H191 H 0.65098 0.60407 0.02181 0.0
C192 C 0.60961 0.63377 0.02459 0.0
H193 H 0.57415 0.72488 0.0252 0.0
H194 H 0.86366 0.746 0.97099 0.0
H195 H 0.81394 0.67839 0.92523 0.0
H196 H 0.7015 0.63437 0.92219 0.0
H197 H 0.63929 0.65534 0.96556 0.0
C198 C 0.61614 0.69591 0.02234 0.0
C199 C 0.6822 0.72483 0.02232 0.0
C200 C 0.71605 0.71426 0.99575 0.0
C201 C 0.77865 0.74329 0.99616 0.0
C202 C 0.81408 0.72815 0.97081 0.0
C203 C 0.78644 0.68893 0.94459 0.0
C204 C 0.7233 0.66378 0.943 0.0
C205 C 0.68831 0.676 0.96821 0.0
H206 H 0.84274 0.13719 0.97255 0.0
C207 C 0.87651 0.12782 0.99649 0.0
H208 H 0.91147 0.15903 0.04652 0.0
H209 H 0.7732 0.37397 0.93979 0.0
H210 H 0.87537 0.36316 0.91875 0.0
H211 H 0.96434 0.29119 0.94389 0.0
H212 H 0.94995 0.22834 0.98965 0.0
C213 C 0.87831 0.16653 0.02224 0.0
C214 C 0.83743 0.22278 0.01643 0.0
C215 C 0.85002 0.26387 0.99246 0.0
C216 C 0.80156 0.30898 0.9801 0.0
C217 C 0.81083 0.34286 0.95244 0.0
C218 C 0.86899 0.33637 0.93965 0.0
C219 C 0.91887 0.29566 0.95366 0.0
C220 C 0.90972 0.25959 0.97971 0.0
H221 H 0.75998 0.43694 0.98972 0.0
C222 C 0.70797 0.42241 0.98078 0.0
H223 H 0.64059 0.34961 0.97192 0.0
H224 H 0.80232 0.15541 0.06495 0.0
H225 H 0.70408 0.17056 0.08951 0.0
H226 H 0.62446 0.2541 0.07166 0.0
H227 H 0.64207 0.32271 0.02902 0.0
C228 C 0.69234 0.36417 0.98176 0.0
C229 C 0.74422 0.31749 0.99464 0.0
C230 C 0.73448 0.27912 0.0205 0.0
C231 C 0.78086 0.23139 0.03118 0.0
C232 C 0.76865 0.19242 0.0561 0.0
C233 C 0.71263 0.20072 0.07042 0.0
C234 C 0.66779 0.24777 0.06037 0.0
C235 C 0.6784 0.28673 0.03578 0.0
H236 H 0.7087 0.65873 0.53667 0.0
C237 C 0.68094 0.64725 0.51146 0.0
H238 H 0.66075 0.67202 0.46042 0.0
H239 H 0.76161 0.91399 0.55611 0.0
H240 H 0.64882 0.91044 0.56728 0.0
H241 H 0.57043 0.82888 0.54363 0.0
H242 H 0.60408 0.75071 0.50829 0.0
C243 C 0.68819 0.68157 0.48588 0.0
C244 C 0.72903 0.73714 0.49315 0.0
C245 C 0.70698 0.78424 0.51212 0.0
C246 C 0.75177 0.83152 0.5254 0.0
C247 C 0.7296 0.87684 0.54541 0.0
C248 C 0.66488 0.8755 0.55192 0.0
C249 C 0.62071 0.82962 0.53856 0.0
C250 C 0.64097 0.78469 0.51863 0.0
H251 H 0.86029 0.93469 0.49663 0.0
C252 C 0.87916 0.92821 0.52332 0.0
H253 H 0.88684 0.86883 0.56363 0.0
H254 H 0.78193 0.65898 0.45326 0.0
H255 H 0.89318 0.66496 0.43989 0.0
H256 H 0.97072 0.74791 0.46242 0.0
H257 H 0.9379 0.8252 0.49869 0.0
C258 C 0.86688 0.87658 0.53717 0.0
C259 C 0.81765 0.83244 0.51886 0.0
C260 C 0.83749 0.7884 0.49741 0.0
C261 C 0.79284 0.74059 0.48443 0.0
C262 C 0.81416 0.69616 0.46375 0.0
C263 C 0.87772 0.69915 0.45589 0.0
C264 C 0.92142 0.74587 0.4686 0.0
C265 C 0.90196 0.78996 0.48931 0.0
H266 H 0.63467 0.34237 0.47971 0.0
C267 C 0.65266 0.37308 0.50068 0.0
H268 H 0.73647 0.39894 0.53859 0.0
H269 H 0.89143 0.14956 0.53853 0.0
H270 H 0.87245 0.15455 0.59499 0.0
H271 H 0.80253 0.23506 0.61234 0.0
H272 H 0.75144 0.31154 0.57326 0.0
C273 C 0.71679 0.36786 0.51805 0.0
C274 C 0.763 0.32129 0.5082 0.0
C275 C 0.79239 0.27672 0.53121 0.0
C276 C 0.83287 0.23008 0.52113 0.0
C277 C 0.86123 0.18632 0.54479 0.0
C278 C 0.85037 0.18844 0.5773 0.0
C279 C 0.8109 0.23377 0.58706 0.0
C280 C 0.78193 0.2774 0.56437 0.0
H281 H 0.9496 0.24914 0.45835 0.0
C282 C 0.94517 0.2018 0.46324 0.0
H283 H 0.88811 0.13624 0.48366 0.0
H284 H 0.72809 0.40637 0.45955 0.0
H285 H 0.73714 0.39627 0.40159 0.0
H286 H 0.78827 0.30567 0.38152 0.0
H287 H 0.83379 0.22644 0.4198 0.0
C288 C 0.89297 0.18338 0.47845 0.0
C289 C 0.84405 0.22799 0.48797 0.0
C290 C 0.81111 0.27067 0.46446 0.0
C291 C 0.77471 0.31945 0.47513 0.0
C292 C 0.75094 0.36573 0.45217 0.0
C293 C 0.75652 0.36087 0.41887 0.0
C294 C 0.78576 0.31014 0.40764 0.0
C295 C 0.81264 0.26539 0.43002 0.0
H296 H 0.31894 0.40468 0.47741 0.0
C297 C 0.35997 0.40467 0.49953 0.0
H298 H 0.39753 0.37057 0.54775 0.0
H299 H 0.12352 0.31178 0.58583 0.0
H300 H 0.17109 0.38701 0.62746 0.0
H301 H 0.27403 0.44207 0.62337 0.0
H302 H 0.33059 0.42136 0.57796 0.0
C303 C 0.35638 0.37031 0.52569 0.0
C304 C 0.29375 0.33735 0.52731 0.0
C305 C 0.2601 0.35147 0.55354 0.0
C306 C 0.1994 0.32132 0.55521 0.0
C307 C 0.16858 0.33445 0.58258 0.0
C308 C 0.19553 0.37746 0.60684 0.0
C309 C 0.25355 0.40834 0.60459 0.0
C310 C 0.28565 0.39575 0.57835 0.0
H311 H 0.14747 0.15759 0.52927 0.0
C312 C 0.10522 0.18473 0.53361 0.0
H313 H 0.06481 0.27378 0.53617 0.0
H314 H 0.35183 0.29129 0.47736 0.0
H315 H 0.30045 0.22122 0.43327 0.0
H316 H 0.18673 0.18024 0.43133 0.0
H317 H 0.12544 0.20762 0.47413 0.0
C318 C 0.10788 0.24718 0.53233 0.0
C319 C 0.17111 0.27868 0.52993 0.0
C320 C 0.20392 0.26583 0.50316 0.0
C321 C 0.2669 0.2931 0.50274 0.0
C322 C 0.30187 0.27488 0.47768 0.0
C323 C 0.27324 0.23425 0.45237 0.0
C324 C 0.20946 0.21095 0.45138 0.0
C325 C 0.17499 0.22656 0.47634 0.0
H326 H 0.37314 0.68818 0.47326 0.0
C327 C 0.39062 0.67143 0.49851 0.0
H328 H 0.38379 0.68313 0.54922 0.0
H329 H 0.28851 0.9334 0.46061 0.0
H330 H 0.40861 0.94558 0.46343 0.0
H331 H 0.4911 0.8706 0.49124 0.0
H332 H 0.45386 0.78268 0.51651 0.0
C333 C 0.36964 0.69952 0.5238 0.0
C334 C 0.32319 0.75219 0.516 0.0
C335 C 0.34597 0.80473 0.50288 0.0
C336 C 0.29851 0.84849 0.48736 0.0
C337 C 0.3224 0.89902 0.47301 0.0
C338 C 0.39123 0.9066 0.47446 0.0
C339 C 0.4377 0.86434 0.49013 0.0
C340 C 0.41565 0.81398 0.50429 0.0
H341 H 0.17715 0.94574 0.50129 0.0
C342 C 0.15962 0.93317 0.47502 0.0
H343 H 0.15879 0.86454 0.43846 0.0
H344 H 0.26434 0.66198 0.54368 0.0
H345 H 0.1447 0.65255 0.54367 0.0
H346 H 0.06256 0.72937 0.51759 0.0
H347 H 0.0993 0.81595 0.49098 0.0
C348 C 0.17836 0.87976 0.46409 0.0
C349 C 0.22851 0.84032 0.48571 0.0
C350 C 0.20644 0.79079 0.50165 0.0
C351 C 0.25393 0.74669 0.51693 0.0
C352 C 0.23031 0.69674 0.53181 0.0
C353 C 0.16189 0.69088 0.532 0.0
C354 C 0.11558 0.73413 0.51726 0.0
C355 C 0.13726 0.7835 0.50209 0.0
H356 H 0.14832 0.96557 0.1926 0.0
C357 C 0.10016 0.98471 0.17993 0.0
H358 H 0.00973 0.02681 0.18675 0.0
H359 H 0.00099 0.90696 0.32324 0.0
H360 H 0.91564 0.84895 0.28516 0.0
H361 H 0.90056 0.85815 0.22395 0.0
H362 H 0.97061 0.92558 0.20044 0.0
C363 C 0.0576 0.00634 0.1985 0.0
C364 C 0.07068 0.99847 0.23541 0.0
C365 C 0.02979 0.95837 0.24876 0.0
C366 C 0.03904 0.95251 0.28404 0.0
C367 C 0.99674 0.91273 0.29665 0.0
C368 C 0.94741 0.8792 0.27507 0.0
C369 C 0.93886 0.88443 0.24061 0.0
C370 C 0.97937 0.92344 0.22746 0.0
H371 H 0.05848 0.06769 0.34871 0.0
C372 C 0.0781 0.02666 0.36132 0.0
H373 H 0.11186 0.93825 0.35371 0.0
H374 H 0.15564 0.0814 0.21817 0.0
H375 H 0.2436 0.13694 0.25619 0.0
H376 H 0.26338 0.12307 0.31727 0.0
H377 H 0.1947 0.05418 0.34075 0.0
C378 C 0.09689 0.98159 0.34284 0.0
C379 C 0.08919 0.98679 0.30594 0.0
C380 C 0.13123 0.02587 0.29259 0.0
C381 C 0.12133 0.03235 0.25727 0.0
C382 C 0.16214 0.07351 0.2447 0.0
C383 C 0.21266 0.10586 0.26626 0.0
C384 C 0.22369 0.09817 0.30066 0.0
C385 C 0.18365 0.0587 0.31381 0.0
H386 H 0.86451 0.98789 0.79719 0.0
C387 C 0.91533 0.00278 0.80888 0.0
H388 H 0.00381 0.04374 0.80019 0.0
H389 H 0.88351 0.9166 0.65204 0.0
H390 H 0.90313 0.82165 0.6805 0.0
H391 H 0.93811 0.81852 0.74212 0.0
H392 H 0.95307 0.91009 0.77558 0.0
C393 C 0.95495 0.02405 0.78936 0.0
C394 C 0.93177 0.0252 0.75237 0.0
C395 C 0.92397 0.97086 0.73327 0.0
C396 C 0.90538 0.97265 0.69774 0.0
C397 C 0.89794 0.9179 0.67912 0.0
C398 C 0.90909 0.86302 0.69513 0.0
C399 C 0.92865 0.86126 0.72981 0.0
C400 C 0.93651 0.91434 0.74876 0.0
H401 H 0.98608 0.06565 0.64816 0.0
C402 C 0.94175 0.04619 0.63159 0.0
H403 H 0.84355 0.01124 0.62901 0.0
H404 H 0.93817 0.13715 0.78169 0.0
H405 H 0.91724 0.23197 0.75293 0.0
H406 H 0.88557 0.23466 0.69116 0.0
H407 H 0.87475 0.14244 0.65783 0.0
C408 C 0.88928 0.02984 0.64463 0.0
C409 C 0.89695 0.0286 0.68149 0.0
C410 C 0.90222 0.08272 0.70054 0.0
C411 C 0.91997 0.08105 0.73607 0.0
C412 C 0.92521 0.13582 0.75458 0.0
C413 C 0.91313 0.19054 0.73839 0.0
C414 C 0.89536 0.19207 0.70362 0.0
C415 C 0.88974 0.1389 0.68478 0.0
H416 H 0.521 0.51518 0.69725 0.0
C417 C 0.56731 0.52444 0.68884 0.0
H418 H 0.67007 0.54992 0.7053 0.0
H419 H 0.6188 0.64986 0.84451 0.0
H420 H 0.64726 0.74094 0.81908 0.0
H421 H 0.66405 0.73941 0.76105 0.0
H422 H 0.65276 0.64683 0.72811 0.0
C423 C 0.62362 0.53655 0.71222 0.0
C424 C 0.62164 0.53625 0.74843 0.0
C425 C 0.6293 0.59065 0.76741 0.0
C426 C 0.61948 0.59163 0.80085 0.0
C427 C 0.62608 0.64666 0.81908 0.0
C428 C 0.64226 0.69924 0.80476 0.0
C429 C 0.65171 0.69838 0.77208 0.0
C430 C 0.64514 0.64491 0.75346 0.0
H431 H 0.68959 0.53672 0.87346 0.0
C432 C 0.63753 0.5361 0.87653 0.0
H433 H 0.53496 0.53319 0.85091 0.0
H434 H 0.61639 0.4225 0.72133 0.0
H435 H 0.5903 0.33127 0.74722 0.0
H436 H 0.56868 0.3337 0.80436 0.0
H437 H 0.57371 0.42727 0.83605 0.0
C438 C 0.58725 0.53918 0.84914 0.0
C439 C 0.60201 0.53825 0.81511 0.0
C440 C 0.59739 0.48338 0.7967 0.0
C441 C 0.60829 0.48218 0.76351 0.0
C442 C 0.60616 0.42633 0.74619 0.0
C443 C 0.59182 0.37352 0.76087 0.0
C444 C 0.57977 0.37487 0.79305 0.0
C445 C 0.58265 0.42896 0.81092 0.0
H446 H 0.40221 0.51399 0.30629 0.0
C447 C 0.45271 0.528 0.31913 0.0
H448 H 0.54564 0.5634 0.31237 0.0
H449 H 0.42138 0.41823 0.16902 0.0
H450 H 0.44675 0.32811 0.20165 0.0
H451 H 0.48825 0.33431 0.26298 0.0
H452 H 0.50411 0.43064 0.29198 0.0
C453 C 0.49653 0.54495 0.30075 0.0
C454 C 0.47721 0.54132 0.26368 0.0
C455 C 0.46929 0.4845 0.24716 0.0
C456 C 0.44672 0.48097 0.21182 0.0
C457 C 0.43866 0.42366 0.19586 0.0
C458 C 0.45312 0.37147 0.21428 0.0
C459 C 0.47636 0.37496 0.2488 0.0
C460 C 0.48472 0.43064 0.26516 0.0
H461 H 0.51136 0.5586 0.15091 0.0
C462 C 0.46342 0.53878 0.13832 0.0
H463 H 0.36717 0.51063 0.14453 0.0
H464 H 0.48888 0.65705 0.28782 0.0
H465 H 0.46554 0.74739 0.25494 0.0
H466 H 0.42706 0.74114 0.19342 0.0
H467 H 0.41159 0.64445 0.1644 0.0
C468 C 0.41604 0.52955 0.15609 0.0
C469 C 0.43415 0.53426 0.1931 0.0
C470 C 0.44282 0.59104 0.20954 0.0
C471 C 0.46465 0.59459 0.24496 0.0
C472 C 0.47253 0.65181 0.26091 0.0
C473 C 0.45926 0.70399 0.24235 0.0
C474 C 0.43763 0.70047 0.20771 0.0
C475 C 0.42926 0.64476 0.19135 0.0
loop_
_geom_bond_atom_site_label_1
_geom_bond_atom_site_label_2
_geom_bond_distance
_geom_bond_site_symmetry_2
_ccdc_geom_bond_type
C0 O16 1.251 . S
C0 O18 1.254 1_554 S
N1 C2 1.333 1_445 S
N1 C6 1.307 . S
N1 Zn7 2.020 . S
C2 N1 1.333 1_665 S
C2 C3 1.379 . S
C2 H20 0.952 . S
C3 C2 1.379 . S
C3 C4 1.390 1_665 S
C3 H30 0.949 . S
C4 C3 1.390 1_445 S
C4 C5 1.357 . S
C5 C4 1.357 . S
C5 C6 1.370 . S
C5 H31 0.950 . S
C6 N1 1.307 . S
C6 C5 1.370 . S
C6 H24 0.948 . S
Zn7 N1 2.020 . S
Zn7 O16 2.039 1_445 S
Zn7 O22 2.034 1_455 S
Zn7 O26 2.025 . S
Zn7 O28 2.024 1_545 S
C8 O27 1.246 1_554 S
C8 O28 1.249 . S
N9 C10 1.302 1_445 S
N9 C11 1.339 . S
N9 Zn15 2.019 . S
C10 N9 1.302 1_665 S
C10 C14 1.370 . S
C10 H21 0.948 . S
C11 N9 1.339 . S
C11 C12 1.379 . S
C11 H19 0.952 . S
C12 C11 1.379 . S
C12 C13 1.390 1_455 S
C12 H32 0.949 . S
C13 C12 1.390 1_655 S
C13 C14 1.357 1_545 S
C14 C10 1.370 . S
C14 C13 1.357 1_565 S
C14 H33 0.950 . S
Zn15 N9 2.019 . S
Zn15 O18 2.025 1_445 S
Zn15 O23 2.024 1_455 S
Zn15 O25 2.039 . S
Zn15 O27 2.034 1_545 S
O16 C0 1.251 . S
O16 Zn7 2.039 1_665 S
C17 O22 1.246 . S
C17 O23 1.249 1_554 S
O18 C0 1.254 1_556 S
O18 Zn15 2.025 1_665 S
H19 C11 0.952 . S
H20 C2 0.952 . S
H21 C10 0.948 . S
O22 Zn7 2.034 1_655 S
O22 C17 1.246 . S
O23 Zn15 2.024 1_655 S
O23 C17 1.249 1_556 S
H24 C6 0.948 . S
O25 Zn15 2.039 . S
O25 C29 1.251 1_556 S
O26 Zn7 2.025 . S
O26 C29 1.254 . S
O27 C8 1.246 1_556 S
O27 Zn15 2.034 1_565 S
O28 Zn7 2.024 1_565 S
O28 C8 1.249 . S
C29 O25 1.251 1_554 S
C29 O26 1.254 . S
H30 C3 0.949 . S
H31 C5 0.950 . S
H32 C12 0.949 . S
H33 C14 0.950 . S
C34 O50 1.251 . S
C34 O52 1.254 . S
N35 C36 1.333 . S
N35 C40 1.307 . S
N35 Zn41 2.020 . S
C36 N35 1.333 . S
C36 C37 1.379 . S
C36 H54 0.952 . S
C37 C36 1.379 . S
C37 C38 1.390 . S
C37 H64 0.949 . S
C38 C37 1.390 . S
C38 C39 1.357 . S
C39 C38 1.357 . S
C39 C40 1.370 . S
C39 H65 0.950 . S
C40 N35 1.307 . S
C40 C39 1.370 . S
C40 H58 0.948 . S
Zn41 N35 2.020 . S
Zn41 O50 2.039 . S
Zn41 O56 2.034 . S
Zn41 O60 2.025 . S
Zn41 O62 2.024 . S
C42 O61 1.246 . S
C42 O62 1.249 . S
N43 C44 1.307 . S
N43 C45 1.333 . S
N43 Zn49 2.020 . S
C44 N43 1.307 . S
C44 C48 1.370 . S
C44 H55 0.948 . S
C45 N43 1.333 . S
C45 C46 1.379 . S
C45 H53 0.952 . S
C46 C45 1.379 . S
C46 C47 1.390 . S
C46 H66 0.949 . S
C47 C46 1.390 . S
C47 C48 1.357 . S
C48 C44 1.370 . S
C48 C47 1.357 . S
C48 H67 0.950 . S
Zn49 N43 2.020 . S
Zn49 O52 2.025 . S
Zn49 O57 2.024 . S
Zn49 O59 2.039 . S
Zn49 O61 2.034 . S
O50 C34 1.251 . S
O50 Zn41 2.039 . S
C51 O56 1.246 . S
C51 O57 1.249 . S
O52 C34 1.254 . S
O52 Zn49 2.025 . S
H53 C45 0.952 . S
H54 C36 0.952 . S
H55 C44 0.948 . S
O56 Zn41 2.034 . S
O56 C51 1.246 . S
O57 Zn49 2.024 . S
O57 C51 1.249 . S
H58 C40 0.948 . S
O59 Zn49 2.039 . S
O59 C63 1.251 . S
O60 Zn41 2.025 . S
O60 C63 1.254 . S
O61 C42 1.246 . S
O61 Zn49 2.034 . S
O62 Zn41 2.024 . S
O62 C42 1.249 . S
C63 O59 1.251 . S
C63 O60 1.254 . S
H64 C37 0.949 . S
H65 C39 0.950 . S
H66 C46 0.949 . S
H67 C48 0.950 . S
H68 C73 0.930 . S
H69 C76 0.930 1_655 S
H70 C78 0.930 . S
H71 C72 1.016 . S
C72 H71 1.016 . S
C72 N79 1.286 . S
C73 H68 0.930 . S
C73 C74 1.397 . S
C73 C75 1.361 1_565 S
C74 C73 1.397 . S
C74 C78 1.390 . S
C75 C73 1.361 1_545 S
C75 C76 1.393 . S
C75 N79 1.413 1_455 S
C76 H69 0.930 1_455 S
C76 C75 1.393 . S
C76 C77 1.399 . S
C77 C76 1.399 . S
C77 C78 1.381 1_545 S
C78 H70 0.930 . S
C78 C74 1.390 . S
C78 C77 1.381 1_565 S
N79 C72 1.286 . S
N79 C75 1.413 1_655 S
H80 C85 0.930 . S
H81 C88 0.930 . S
H82 C90 0.930 . S
H83 C84 1.016 . S
C84 H83 1.016 . S
C84 N91 1.286 . S
C85 H80 0.930 . S
C85 C86 1.397 . S
C85 C87 1.361 1_665 S
C86 C85 1.397 . S
C86 C90 1.390 . S
C87 C85 1.361 1_445 S
C87 C88 1.393 . S
C87 N91 1.413 . S
C88 H81 0.930 . S
C88 C87 1.393 . S
C88 C89 1.399 1_455 S
C89 C88 1.399 1_655 S
C89 C90 1.381 1_545 S
C90 H82 0.930 . S
C90 C86 1.390 . S
C90 C89 1.381 1_565 S
N91 C84 1.286 . S
N91 C87 1.413 . S
H92 C97 0.930 1_554 S
H93 C100 0.930 . S
H94 C102 0.930 . S
H95 C96 1.016 . S
C96 H95 1.016 . S
C96 N103 1.286 . S
C97 H92 0.930 1_556 S
C97 C98 1.397 . S
C97 C99 1.361 . S
C98 C97 1.397 . S
C98 C102 1.390 . S
C99 C97 1.361 . S
C99 C100 1.393 . S
C99 N103 1.413 . S
C100 H93 0.930 . S
C100 C99 1.393 . S
C100 C101 1.399 . S
C101 C100 1.399 . S
C101 C102 1.381 . S
C102 H94 0.930 . S
C102 C98 1.390 . S
C102 C101 1.381 . S
N103 C96 1.286 . S
N103 C99 1.413 . S
H104 C109 0.935 . S
H105 C112 0.930 . S
H106 C114 0.930 . S
H107 C108 1.016 . S
C108 H107 1.016 . S
C108 N115 1.286 . S
C109 H104 0.935 . S
C109 C110 1.397 . S
C109 C111 1.361 . S
C110 C109 1.397 . S
C110 C114 1.390 . S
C111 C109 1.361 . S
C111 C112 1.393 . S
C111 N115 1.413 . S
C112 H105 0.930 . S
C112 C111 1.393 . S
C112 C113 1.399 . S
C113 C112 1.399 . S
C113 C114 1.381 . S
C114 H106 0.930 . S
C114 C110 1.390 . S
C114 C113 1.381 . S
N115 C108 1.286 . S
N115 C111 1.413 . S
H116 C117 0.951 1_556 S
C117 H116 0.951 1_554 S
C117 C123 1.265 . S
H118 C123 0.950 . S
H119 C127 0.949 . S
H120 C128 0.950 . S
H121 C129 0.951 . S
H122 C130 0.951 . S
C123 C117 1.265 . S
C123 H118 0.950 . S
C123 C124 1.478 . S
C124 C123 1.478 . S
C124 C125 1.397 . S
C124 C141 1.394 . S
C125 C124 1.397 . S
C125 C126 1.438 . S
C125 C130 1.429 1_554 S
C126 C125 1.438 . S
C126 C127 1.428 1_554 S
C126 C139 1.394 . S
C127 H119 0.949 . S
C127 C126 1.428 1_556 S
C127 C128 1.345 . S
C128 H120 0.950 . S
C128 C127 1.345 . S
C128 C129 1.424 . S
C129 H121 0.951 . S
C129 C128 1.424 . S
C129 C130 1.347 . S
C130 H122 0.951 . S
C130 C125 1.429 1_556 S
C130 C129 1.347 . S
H131 C132 0.951 . S
C132 H131 0.951 . S
C132 C138 1.265 . S
H133 C138 0.950 . S
H134 C142 0.949 . S
H135 C143 0.950 . S
H136 C144 0.951 . S
H137 C145 0.951 . S
C138 C132 1.265 . S
C138 H133 0.950 . S
C138 C139 1.478 . S
C139 C126 1.394 . S
C139 C138 1.478 . S
C139 C140 1.397 . S
C140 C139 1.397 . S
C140 C141 1.438 . S
C140 C145 1.429 . S
C141 C124 1.394 . S
C141 C140 1.438 . S
C141 C142 1.428 . S
C142 H134 0.949 . S
C142 C141 1.428 . S
C142 C143 1.345 . S
C143 H135 0.950 . S
C143 C142 1.345 . S
C143 C144 1.424 . S
C144 H136 0.951 . S
C144 C143 1.424 . S
C144 C145 1.347 . S
C145 H137 0.951 . S
C145 C140 1.429 . S
C145 C144 1.347 . S
H146 C147 0.951 1_556 S
C147 H146 0.951 1_554 S
C147 C153 1.265 . S
H148 C153 0.950 . S
H149 C157 0.949 . S
H150 C158 0.950 . S
H151 C159 0.951 . S
H152 C160 0.951 . S
C153 C147 1.265 . S
C153 H148 0.950 . S
C153 C154 1.478 . S
C154 C153 1.478 . S
C154 C155 1.397 . S
C154 C171 1.394 1_554 S
C155 C154 1.397 . S
C155 C156 1.438 . S
C155 C160 1.429 . S
C156 C155 1.438 . S
C156 C157 1.428 . S
C156 C169 1.394 1_554 S
C157 H149 0.949 . S
C157 C156 1.428 . S
C157 C158 1.345 . S
C158 H150 0.950 . S
C158 C157 1.345 . S
C158 C159 1.424 . S
C159 H151 0.951 . S
C159 C158 1.424 . S
C159 C160 1.347 . S
C160 H152 0.951 . S
C160 C155 1.429 . S
C160 C159 1.347 . S
H161 C162 0.951 . S
C162 H161 0.951 . S
C162 C168 1.265 1_554 S
H163 C168 0.950 . S
H164 C172 0.949 . S
H165 C173 0.950 . S
H166 C174 0.951 . S
H167 C175 0.951 . S
C168 C162 1.265 1_556 S
C168 H163 0.950 . S
C168 C169 1.478 . S
C169 C156 1.394 1_556 S
C169 C168 1.478 . S
C169 C170 1.397 . S
C170 C169 1.397 . S
C170 C171 1.438 . S
C170 C175 1.429 . S
C171 C154 1.394 1_556 S
C171 C170 1.438 . S
C171 C172 1.428 . S
C172 H164 0.949 . S
C172 C171 1.428 . S
C172 C173 1.345 . S
C173 H165 0.950 . S
C173 C172 1.345 . S
C173 C174 1.424 . S
C174 H166 0.951 . S
C174 C173 1.424 . S
C174 C175 1.347 . S
C175 H167 0.951 . S
C175 C170 1.429 . S
C175 C174 1.347 . S
H176 C177 0.951 1_556 S
C177 H176 0.951 1_554 S
C177 C183 1.265 . S
H178 C183 0.950 . S
H179 C187 0.949 . S
H180 C188 0.950 . S
H181 C189 0.951 . S
H182 C190 0.951 . S
C183 C177 1.265 . S
C183 H178 0.950 . S
C183 C184 1.478 . S
C184 C183 1.478 . S
C184 C185 1.397 . S
C184 C201 1.394 1_554 S
C185 C184 1.397 . S
C185 C186 1.438 . S
C185 C190 1.429 . S
C186 C185 1.438 . S
C186 C187 1.428 . S
C186 C199 1.394 . S
C187 H179 0.949 . S
C187 C186 1.428 . S
C187 C188 1.345 . S
C188 H180 0.950 . S
C188 C187 1.345 . S
C188 C189 1.424 . S
C189 H181 0.951 . S
C189 C188 1.424 . S
C189 C190 1.347 . S
C190 H182 0.951 . S
C190 C185 1.429 . S
C190 C189 1.347 . S
H191 C192 0.951 . S
C192 H191 0.951 . S
C192 C198 1.265 . S
H193 C198 0.950 . S
H194 C202 0.949 . S
H195 C203 0.950 . S
H196 C204 0.951 . S
H197 C205 0.951 . S
C198 C192 1.265 . S
C198 H193 0.950 . S
C198 C199 1.478 . S
C199 C186 1.394 . S
C199 C198 1.478 . S
C199 C200 1.397 1_554 S
C200 C199 1.397 1_556 S
C200 C201 1.438 . S
C200 C205 1.429 . S
C201 C184 1.394 1_556 S
C201 C200 1.438 . S
C201 C202 1.428 . S
C202 H194 0.949 . S
C202 C201 1.428 . S
C202 C203 1.345 . S
C203 H195 0.950 . S
C203 C202 1.345 . S
C203 C204 1.424 . S
C204 H196 0.951 . S
C204 C203 1.424 . S
C204 C205 1.347 . S
C205 H197 0.951 . S
C205 C200 1.429 . S
C205 C204 1.347 . S
H206 C207 0.950 . S
C207 H206 0.950 . S
C207 C213 1.265 . S
H208 C213 0.950 . S
H209 C217 0.949 . S
H210 C218 0.950 . S
H211 C219 0.951 . S
H212 C220 0.951 . S
C213 C207 1.265 . S
C213 H208 0.950 . S
C213 C214 1.478 . S
C214 C213 1.478 . S
C214 C215 1.397 . S
C214 C231 1.394 1_556 S
C215 C214 1.397 . S
C215 C216 1.438 . S
C215 C220 1.429 . S
C216 C215 1.438 . S
C216 C217 1.428 . S
C216 C229 1.394 . S
C217 H209 0.949 . S
C217 C216 1.428 . S
C217 C218 1.345 . S
C218 H210 0.950 . S
C218 C217 1.345 . S
C218 C219 1.424 . S
C219 H211 0.951 . S
C219 C218 1.424 . S
C219 C220 1.347 . S
C220 H212 0.951 . S
C220 C215 1.429 . S
C220 C219 1.347 . S
H221 C222 0.951 . S
C222 H221 0.951 . S
C222 C228 1.265 . S
H223 C228 0.950 . S
H224 C232 0.949 . S
H225 C233 0.950 . S
H226 C234 0.951 . S
H227 C235 0.951 . S
C228 C222 1.265 . S
C228 H223 0.950 . S
C228 C229 1.478 . S
C229 C216 1.394 . S
C229 C228 1.478 . S
C229 C230 1.397 1_556 S
C230 C229 1.397 1_554 S
C230 C231 1.438 . S
C230 C235 1.429 . S
C231 C214 1.394 1_554 S
C231 C230 1.438 . S
C231 C232 1.428 . S
C232 H224 0.949 . S
C232 C231 1.428 . S
C232 C233 1.345 . S
C233 H225 0.950 . S
C233 C232 1.345 . S
C233 C234 1.424 . S
C234 H226 0.951 . S
C234 C233 1.424 . S
C234 C235 1.347 . S
C235 H227 0.951 . S
C235 C230 1.429 . S
C235 C234 1.347 . S
H236 C237 0.951 . S
C237 H236 0.951 . S
C237 C243 1.265 . S
H238 C243 0.950 . S
H239 C247 0.949 . S
H240 C248 0.950 . S
H241 C249 0.951 . S
H242 C250 0.951 . S
C243 C237 1.265 . S
C243 H238 0.950 . S
C243 C244 1.478 . S
C244 C243 1.478 . S
C244 C245 1.397 . S
C244 C261 1.394 . S
C245 C244 1.397 . S
C245 C246 1.438 . S
C245 C250 1.429 . S
C246 C245 1.438 . S
C246 C247 1.428 . S
C246 C259 1.394 . S
C247 H239 0.949 . S
C247 C246 1.428 . S
C247 C248 1.345 . S
C248 H240 0.950 . S
C248 C247 1.345 . S
C248 C249 1.424 . S
C249 H241 0.951 . S
C249 C248 1.424 . S
C249 C250 1.347 . S
C250 H242 0.951 . S
C250 C245 1.429 . S
C250 C249 1.347 . S
H251 C252 0.951 . S
C252 H251 0.951 . S
C252 C258 1.265 . S
H253 C258 0.950 . S
H254 C262 0.949 . S
H255 C263 0.950 . S
H256 C264 0.951 . S
H257 C265 0.951 . S
C258 C252 1.265 . S
C258 H253 0.950 . S
C258 C259 1.478 . S
C259 C246 1.394 . S
C259 C258 1.478 . S
C259 C260 1.397 . S
C260 C259 1.397 . S
C260 C261 1.438 . S
C260 C265 1.429 . S
C261 C244 1.394 . S
C261 C260 1.438 . S
C261 C262 1.428 . S
C262 H254 0.949 . S
C262 C261 1.428 . S
C262 C263 1.345 . S
C263 H255 0.950 . S
C263 C262 1.345 . S
C263 C264 1.424 . S
C264 H256 0.951 . S
C264 C263 1.424 . S
C264 C265 1.347 . S
C265 H257 0.951 . S
C265 C260 1.429 . S
C265 C264 1.347 . S
H266 C267 0.951 . S
C267 H266 0.951 . S
C267 C273 1.265 . S
H268 C273 0.950 . S
H269 C277 0.949 . S
H270 C278 0.950 . S
H271 C279 0.951 . S
H272 C280 0.951 . S
C273 C267 1.265 . S
C273 H268 0.950 . S
C273 C274 1.478 . S
C274 C273 1.478 . S
C274 C275 1.397 . S
C274 C291 1.394 . S
C275 C274 1.397 . S
C275 C276 1.438 . S
C275 C280 1.429 . S
C276 C275 1.438 . S
C276 C277 1.428 . S
C276 C289 1.394 . S
C277 H269 0.949 . S
C277 C276 1.428 . S
C277 C278 1.345 . S
C278 H270 0.950 . S
C278 C277 1.345 . S
C278 C279 1.424 . S
C279 H271 0.951 . S
C279 C278 1.424 . S
C279 C280 1.347 . S
C280 H272 0.951 . S
C280 C275 1.429 . S
C280 C279 1.347 . S
H281 C282 0.951 . S
C282 H281 0.951 . S
C282 C288 1.265 . S
H283 C288 0.950 . S
H284 C292 0.949 . S
H285 C293 0.950 . S
H286 C294 0.951 . S
H287 C295 0.951 . S
C288 C282 1.265 . S
C288 H283 0.950 . S
C288 C289 1.478 . S
C289 C276 1.394 . S
C289 C288 1.478 . S
C289 C290 1.397 . S
C290 C289 1.397 . S
C290 C291 1.438 . S
C290 C295 1.429 . S
C291 C274 1.394 . S
C291 C290 1.438 . S
C291 C292 1.428 . S
C292 H284 0.949 . S
C292 C291 1.428 . S
C292 C293 1.345 . S
C293 H285 0.950 . S
C293 C292 1.345 . S
C293 C294 1.424 . S
C294 H286 0.951 . S
C294 C293 1.424 . S
C294 C295 1.347 . S
C295 H287 0.951 . S
C295 C290 1.429 . S
C295 C294 1.347 . S
H296 C297 0.951 . S
C297 H296 0.951 . S
C297 C303 1.265 . S
H298 C303 0.950 . S
H299 C307 0.949 . S
H300 C308 0.950 . S
H301 C309 0.951 . S
H302 C310 0.951 . S
C303 C297 1.265 . S
C303 H298 0.950 . S
C303 C304 1.478 . S
C304 C303 1.478 . S
C304 C305 1.397 . S
C304 C321 1.394 . S
C305 C304 1.397 . S
C305 C306 1.438 . S
C305 C310 1.429 . S
C306 C305 1.438 . S
C306 C307 1.428 . S
C306 C319 1.394 . S
C307 H299 0.949 . S
C307 C306 1.428 . S
C307 C308 1.345 . S
C308 H300 0.950 . S
C308 C307 1.345 . S
C308 C309 1.424 . S
C309 H301 0.951 . S
C309 C308 1.424 . S
C309 C310 1.347 . S
C310 H302 0.951 . S
C310 C305 1.429 . S
C310 C309 1.347 . S
H311 C312 0.951 . S
C312 H311 0.951 . S
C312 C318 1.265 . S
H313 C318 0.950 . S
H314 C322 0.949 . S
H315 C323 0.950 . S
H316 C324 0.951 . S
H317 C325 0.951 . S
C318 C312 1.265 . S
C318 H313 0.950 . S
C318 C319 1.478 . S
C319 C306 1.394 . S
C319 C318 1.478 . S
C319 C320 1.397 . S
C320 C319 1.397 . S
C320 C321 1.438 . S
C320 C325 1.429 . S
C321 C304 1.394 . S
C321 C320 1.438 . S
C321 C322 1.428 . S
C322 H314 0.949 . S
C322 C321 1.428 . S
C322 C323 1.345 . S
C323 H315 0.950 . S
C323 C322 1.345 . S
C323 C324 1.424 . S
C324 H316 0.951 . S
C324 C323 1.424 . S
C324 C325 1.347 . S
C325 H317 0.951 . S
C325 C320 1.429 . S
C325 C324 1.347 . S
H326 C327 0.951 . S
C327 H326 0.951 . S
C327 C333 1.265 . S
H328 C333 0.950 . S
H329 C337 0.949 . S
H330 C338 0.950 . S
H331 C339 0.951 . S
H332 C340 0.951 . S
C333 C327 1.265 . S
C333 H328 0.950 . S
C333 C334 1.478 . S
C334 C333 1.478 . S
C334 C335 1.397 . S
C334 C351 1.394 . S
C335 C334 1.397 . S
C335 C336 1.438 . S
C335 C340 1.429 . S
C336 C335 1.438 . S
C336 C337 1.428 . S
C336 C349 1.394 . S
C337 H329 0.949 . S
C337 C336 1.428 . S
C337 C338 1.345 . S
C338 H330 0.950 . S
C338 C337 1.345 . S
C338 C339 1.424 . S
C339 H331 0.951 . S
C339 C338 1.424 . S
C339 C340 1.347 . S
C340 H332 0.951 . S
C340 C335 1.429 . S
C340 C339 1.347 . S
H341 C342 0.951 . S
C342 H341 0.951 . S
C342 C348 1.265 . S
H343 C348 0.950 . S
H344 C352 0.949 . S
H345 C353 0.950 . S
H346 C354 0.951 . S
H347 C355 0.951 . S
C348 C342 1.265 . S
C348 H343 0.950 . S
C348 C349 1.478 . S
C349 C336 1.394 . S
C349 C348 1.478 . S
C349 C350 1.397 . S
C350 C349 1.397 . S
C350 C351 1.438 . S
C350 C355 1.429 . S
C351 C334 1.394 . S
C351 C350 1.438 . S
C351 C352 1.428 . S
C352 H344 0.949 . S
C352 C351 1.428 . S
C352 C353 1.345 . S
C353 H345 0.950 . S
C353 C352 1.345 . S
C353 C354 1.424 . S
C354 H346 0.951 . S
C354 C353 1.424 . S
C354 C355 1.347 . S
C355 H347 0.951 . S
C355 C350 1.429 . S
C355 C354 1.347 . S
H356 C357 0.951 1_565 S
C357 H356 0.951 1_545 S
C357 C363 1.265 . S
H358 C363 0.950 1_655 S
H359 C367 0.949 . S
H360 C368 0.950 . S
H361 C369 0.951 . S
H362 C370 0.951 . S
C363 C357 1.265 . S
C363 H358 0.950 1_455 S
C363 C364 1.478 . S
C364 C363 1.478 . S
C364 C365 1.397 1_445 S
C364 C381 1.394 . S
C365 C364 1.397 1_665 S
C365 C366 1.438 . S
C365 C370 1.429 . S
C366 C365 1.438 . S
C366 C367 1.428 . S
C366 C379 1.394 1_665 S
C367 H359 0.949 . S
C367 C366 1.428 . S
C367 C368 1.345 . S
C368 H360 0.950 . S
C368 C367 1.345 . S
C368 C369 1.424 . S
C369 H361 0.951 . S
C369 C368 1.424 . S
C369 C370 1.347 . S
C370 H362 0.951 . S
C370 C365 1.429 . S
C370 C369 1.347 . S
H371 C372 0.951 . S
C372 H371 0.951 . S
C372 C378 1.265 1_545 S
H373 C378 0.950 . S
H374 C382 0.949 . S
H375 C383 0.950 . S
H376 C384 0.951 . S
H377 C385 0.951 . S
C378 C372 1.265 1_565 S
C378 H373 0.950 . S
C378 C379 1.478 1_565 S
C379 C366 1.394 1_445 S
C379 C378 1.478 1_545 S
C379 C380 1.397 . S
C380 C379 1.397 . S
C380 C381 1.438 . S
C380 C385 1.429 . S
C381 C364 1.394 . S
C381 C380 1.438 . S
C381 C382 1.428 . S
C382 H374 0.949 . S
C382 C381 1.428 . S
C382 C383 1.345 . S
C383 H375 0.950 . S
C383 C382 1.345 . S
C383 C384 1.424 . S
C384 H376 0.951 . S
C384 C383 1.424 . S
C384 C385 1.347 . S
C385 H377 0.951 . S
C385 C380 1.429 . S
C385 C384 1.347 . S
H386 C387 0.951 . S
C387 H386 0.951 . S
C387 C393 1.265 1_655 S
H388 C393 0.950 . S
H389 C397 0.949 . S
H390 C398 0.950 . S
H391 C399 0.951 . S
H392 C400 0.951 . S
C393 C387 1.265 1_455 S
C393 H388 0.950 . S
C393 C394 1.478 . S
C394 C393 1.478 . S
C394 C395 1.397 1_545 S
C394 C411 1.394 1_455 S
C395 C394 1.397 1_565 S
C395 C396 1.438 . S
C395 C400 1.429 . S
C396 C395 1.438 . S
C396 C397 1.428 . S
C396 C409 1.394 1_465 S
C397 H389 0.949 . S
C397 C396 1.428 . S
C397 C398 1.345 . S
C398 H390 0.950 . S
C398 C397 1.345 . S
C398 C399 1.424 . S
C399 H391 0.951 . S
C399 C398 1.424 . S
C399 C400 1.347 . S
C400 H392 0.951 . S
C400 C395 1.429 . S
C400 C399 1.347 . S
H401 C402 0.951 . S
C402 H401 0.951 . S
C402 C408 1.265 1_455 S
H403 C408 0.950 . S
H404 C412 0.949 . S
H405 C413 0.950 . S
H406 C414 0.951 . S
H407 C415 0.951 . S
C408 C402 1.265 1_655 S
C408 H403 0.950 . S
C408 C409 1.478 . S
C409 C396 1.394 1_645 S
C409 C408 1.478 . S
C409 C410 1.397 . S
C410 C409 1.397 . S
C410 C411 1.438 . S
C410 C415 1.429 . S
C411 C394 1.394 1_655 S
C411 C410 1.438 . S
C411 C412 1.428 . S
C412 H404 0.949 . S
C412 C411 1.428 . S
C412 C413 1.345 . S
C413 H405 0.950 . S
C413 C412 1.345 . S
C413 C414 1.424 . S
C414 H406 0.951 . S
C414 C413 1.424 . S
C414 C415 1.347 . S
C415 H407 0.951 . S
C415 C410 1.429 . S
C415 C414 1.347 . S
H416 C417 0.951 . S
C417 H416 0.951 . S
C417 C423 1.265 . S
H418 C423 0.950 . S
H419 C427 0.949 . S
H420 C428 0.950 . S
H421 C429 0.951 . S
H422 C430 0.951 . S
C423 C417 1.265 . S
C423 H418 0.950 . S
C423 C424 1.478 . S
C424 C423 1.478 . S
C424 C425 1.397 . S
C424 C441 1.394 . S
C425 C424 1.397 . S
C425 C426 1.438 . S
C425 C430 1.429 . S
C426 C425 1.438 . S
C426 C427 1.428 . S
C426 C439 1.394 . S
C427 H419 0.949 . S
C427 C426 1.428 . S
C427 C428 1.345 . S
C428 H420 0.950 . S
C428 C427 1.345 . S
C428 C429 1.424 . S
C429 H421 0.951 . S
C429 C428 1.424 . S
C429 C430 1.347 . S
C430 H422 0.951 . S
C430 C425 1.429 . S
C430 C429 1.347 . S
H431 C432 0.951 . S
C432 H431 0.951 . S
C432 C438 1.265 . S
H433 C438 0.950 . S
H434 C442 0.949 . S
H435 C443 0.950 . S
H436 C444 0.951 . S
H437 C445 0.951 . S
C438 C432 1.265 . S
C438 H433 0.950 . S
C438 C439 1.478 . S
C439 C426 1.394 . S
C439 C438 1.478 . S
C439 C440 1.397 . S
C440 C439 1.397 . S
C440 C441 1.438 . S
C440 C445 1.429 . S
C441 C424 1.394 . S
C441 C440 1.438 . S
C441 C442 1.428 . S
C442 H434 0.949 . S
C442 C441 1.428 . S
C442 C443 1.345 . S
C443 H435 0.950 . S
C443 C442 1.345 . S
C443 C444 1.424 . S
C444 H436 0.951 . S
C444 C443 1.424 . S
C444 C445 1.347 . S
C445 H437 0.951 . S
C445 C440 1.429 . S
C445 C444 1.347 . S
H446 C447 0.951 . S
C447 H446 0.951 . S
C447 C453 1.265 . S
H448 C453 0.950 . S
H449 C457 0.949 . S
H450 C458 0.950 . S
H451 C459 0.951 . S
H452 C460 0.951 . S
C453 C447 1.265 . S
C453 H448 0.950 . S
C453 C454 1.478 . S
C454 C453 1.478 . S
C454 C455 1.397 . S
C454 C471 1.394 . S
C455 C454 1.397 . S
C455 C456 1.438 . S
C455 C460 1.429 . S
C456 C455 1.438 . S
C456 C457 1.428 . S
C456 C469 1.394 . S
C457 H449 0.949 . S
C457 C456 1.428 . S
C457 C458 1.345 . S
C458 H450 0.950 . S
C458 C457 1.345 . S
C458 C459 1.424 . S
C459 H451 0.951 . S
C459 C458 1.424 . S
C459 C460 1.347 . S
C460 H452 0.951 . S
C460 C455 1.429 . S
C460 C459 1.347 . S
H461 C462 0.951 . S
C462 H461 0.951 . S
C462 C468 1.265 . S
H463 C468 0.950 . S
H464 C472 0.949 . S
H465 C473 0.950 . S
H466 C474 0.951 . S
H467 C475 0.951 . S
C468 C462 1.265 . S
C468 H463 0.950 . S
C468 C469 1.478 . S
C469 C456 1.394 . S
C469 C468 1.478 . S
C469 C470 1.397 . S
C470 C469 1.397 . S
C470 C471 1.438 . S
C470 C475 1.429 . S
C471 C454 1.394 . S
C471 C470 1.438 . S
C471 C472 1.428 . S
C472 H464 0.949 . S
C472 C471 1.428 . S
C472 C473 1.345 . S
C473 H465 0.950 . S
C473 C472 1.345 . S
C473 C474 1.424 . S
C474 H466 0.951 . S
C474 C473 1.424 . S
C474 C475 1.347 . S
C475 H467 0.951 . S
C475 C470 1.429 . S
C475 C474 1.347 . S
C132 C110 1.414 . S
C117 C29 1.476 . S
C147 C8 1.390 . S
C162 C96 1.372 1_554 S
C177 C0 1.386 . S
C192 C108 1.345 . S
C207 C17 1.474 1_556 S
C222 C98 1.458 . S
C237 C63 1.480 . S
C252 C86 1.458 . S
C267 C42 1.398 . S
C282 C72 1.345 . S
C312 C84 1.333 . S
C297 C34 1.388 . S
C342 C74 1.462 . S
C327 C51 1.472 . S
C357 C4 1.517 . S
C372 C77 1.520 . S
C387 C13 1.505 . S
C402 C89 1.504 1_455 S
C432 C101 1.502 . S
C417 C38 1.510 . S
C447 C47 1.505 . S
C462 C113 1.504 . S
