# Generated by pormake.
# Topology ssc, (4,4)-cn, num edge types: 1
# Building blocks:
#     Node 0, Type 0, BuildingBlock: CEKHIL_clean_sbu_0, # of connection points: 4
#     Node 1, Type 0, BuildingBlock: CEKHIL_clean_sbu_0, # of connection points: 4
#     Node 2, Type 0, BuildingBlock: CEKHIL_clean_sbu_0, # of connection points: 4
#     Node 3, Type 0, BuildingBlock: CEKHIL_clean_sbu_0, # of connection points: 4
#     Node 4, Type 0, BuildingBlock: CEKHIL_clean_sbu_0, # of connection points: 4
#     Node 5, Type 0, BuildingBlock: CEKHIL_clean_sbu_0, # of connection points: 4
#     Node 6, Type 0, BuildingBlock: CEKHIL_clean_sbu_0, # of connection points: 4
#     Node 7, Type 0, BuildingBlock: CEKHIL_clean_sbu_0, # of connection points: 4
#     Node 8, Type 0, BuildingBlock: CEKHIL_clean_sbu_0, # of connection points: 4
#     Node 9, Type 0, BuildingBlock: CEKHIL_clean_sbu_0, # of connection points: 4
#     Node 10, Type 0, BuildingBlock: CEKHIL_clean_sbu_0, # of connection points: 4
#     Node 11, Type 0, BuildingBlock: CEKHIL_clean_sbu_0, # of connection points: 4
#     Node 12, Type 1, BuildingBlock: KUFVIS_clean_linker_0, # of connection points: 4
#     Node 13, Type 1, BuildingBlock: KUFVIS_clean_linker_0, # of connection points: 4
#     Node 14, Type 1, BuildingBlock: KUFVIS_clean_linker_0, # of connection points: 4
#     Node 15, Type 1, BuildingBlock: KUFVIS_clean_linker_0, # of connection points: 4
#     Node 16, Type 1, BuildingBlock: KUFVIS_clean_linker_0, # of connection points: 4
#     Node 17, Type 1, BuildingBlock: KUFVIS_clean_linker_0, # of connection points: 4
#     Node 18, Type 1, BuildingBlock: KUFVIS_clean_linker_0, # of connection points: 4
#     Node 19, Type 1, BuildingBlock: KUFVIS_clean_linker_0, # of connection points: 4
#     Node 20, Type 1, BuildingBlock: KUFVIS_clean_linker_0, # of connection points: 4
#     Node 21, Type 1, BuildingBlock: KUFVIS_clean_linker_0, # of connection points: 4
#     Node 22, Type 1, BuildingBlock: KUFVIS_clean_linker_0, # of connection points: 4
#     Node 23, Type 1, BuildingBlock: KUFVIS_clean_linker_0, # of connection points: 4
#     Edge 24, Type (0, 1), BuildingBlock: ZUJKAS_clean_linker_0, # of connection points: 2
#     Edge 25, Type (0, 1), BuildingBlock: ZUJKAS_clean_linker_0, # of connection points: 2
#     Edge 26, Type (0, 1), BuildingBlock: ZUJKAS_clean_linker_0, # of connection points: 2
#     Edge 27, Type (0, 1), BuildingBlock: ZUJKAS_clean_linker_0, # of connection points: 2
#     Edge 28, Type (0, 1), BuildingBlock: ZUJKAS_clean_linker_0, # of connection points: 2
#     Edge 29, Type (0, 1), BuildingBlock: ZUJKAS_clean_linker_0, # of connection points: 2
#     Edge 30, Type (0, 1), BuildingBlock: ZUJKAS_clean_linker_0, # of connection points: 2
#     Edge 31, Type (0, 1), BuildingBlock: ZUJKAS_clean_linker_0, # of connection points: 2
#     Edge 32, Type (0, 1), BuildingBlock: ZUJKAS_clean_linker_0, # of connection points: 2
#     Edge 33, Type (0, 1), BuildingBlock: ZUJKAS_clean_linker_0, # of connection points: 2
#     Edge 34, Type (0, 1), BuildingBlock: ZUJKAS_clean_linker_0, # of connection points: 2
#     Edge 35, Type (0, 1), BuildingBlock: ZUJKAS_clean_linker_0, # of connection points: 2
#     Edge 36, Type (0, 1), BuildingBlock: ZUJKAS_clean_linker_0, # of connection points: 2
#     Edge 37, Type (0, 1), BuildingBlock: ZUJKAS_clean_linker_0, # of connection points: 2
#     Edge 38, Type (0, 1), BuildingBlock: ZUJKAS_clean_linker_0, # of connection points: 2
#     Edge 39, Type (0, 1), BuildingBlock: ZUJKAS_clean_linker_0, # of connection points: 2
#     Edge 40, Type (0, 1), BuildingBlock: ZUJKAS_clean_linker_0, # of connection points: 2
#     Edge 41, Type (0, 1), BuildingBlock: ZUJKAS_clean_linker_0, # of connection points: 2
#     Edge 42, Type (0, 1), BuildingBlock: ZUJKAS_clean_linker_0, # of connection points: 2
#     Edge 43, Type (0, 1), BuildingBlock: ZUJKAS_clean_linker_0, # of connection points: 2
#     Edge 44, Type (0, 1), BuildingBlock: ZUJKAS_clean_linker_0, # of connection points: 2
#     Edge 45, Type (0, 1), BuildingBlock: ZUJKAS_clean_linker_0, # of connection points: 2
#     Edge 46, Type (0, 1), BuildingBlock: ZUJKAS_clean_linker_0, # of connection points: 2
#     Edge 47, Type (0, 1), BuildingBlock: ZUJKAS_clean_linker_0, # of connection points: 2
#     Edge 48, Type (0, 1), BuildingBlock: ZUJKAS_clean_linker_0, # of connection points: 2
#     Edge 49, Type (0, 1), BuildingBlock: ZUJKAS_clean_linker_0, # of connection points: 2
#     Edge 50, Type (0, 1), BuildingBlock: ZUJKAS_clean_linker_0, # of connection points: 2
#     Edge 51, Type (0, 1), BuildingBlock: ZUJKAS_clean_linker_0, # of connection points: 2
#     Edge 52, Type (0, 1), BuildingBlock: ZUJKAS_clean_linker_0, # of connection points: 2
#     Edge 53, Type (0, 1), BuildingBlock: ZUJKAS_clean_linker_0, # of connection points: 2
#     Edge 54, Type (0, 1), BuildingBlock: ZUJKAS_clean_linker_0, # of connection points: 2
#     Edge 55, Type (0, 1), BuildingBlock: ZUJKAS_clean_linker_0, # of connection points: 2
#     Edge 56, Type (0, 1), BuildingBlock: ZUJKAS_clean_linker_0, # of connection points: 2
#     Edge 57, Type (0, 1), BuildingBlock: ZUJKAS_clean_linker_0, # of connection points: 2
#     Edge 58, Type (0, 1), BuildingBlock: ZUJKAS_clean_linker_0, # of connection points: 2
#     Edge 59, Type (0, 1), BuildingBlock: ZUJKAS_clean_linker_0, # of connection points: 2
#     Edge 60, Type (0, 1), BuildingBlock: ZUJKAS_clean_linker_0, # of connection points: 2
#     Edge 61, Type (0, 1), BuildingBlock: ZUJKAS_clean_linker_0, # of connection points: 2
#     Edge 62, Type (0, 1), BuildingBlock: ZUJKAS_clean_linker_0, # of connection points: 2
#     Edge 63, Type (0, 1), BuildingBlock: ZUJKAS_clean_linker_0, # of connection points: 2
#     Edge 64, Type (0, 1), BuildingBlock: ZUJKAS_clean_linker_0, # of connection points: 2
#     Edge 65, Type (0, 1), BuildingBlock: ZUJKAS_clean_linker_0, # of connection points: 2
#     Edge 66, Type (0, 1), BuildingBlock: ZUJKAS_clean_linker_0, # of connection points: 2
#     Edge 67, Type (0, 1), BuildingBlock: ZUJKAS_clean_linker_0, # of connection points: 2
#     Edge 68, Type (0, 1), BuildingBlock: ZUJKAS_clean_linker_0, # of connection points: 2
#     Edge 69, Type (0, 1), BuildingBlock: ZUJKAS_clean_linker_0, # of connection points: 2
#     Edge 70, Type (0, 1), BuildingBlock: ZUJKAS_clean_linker_0, # of connection points: 2
#     Edge 71, Type (0, 1), BuildingBlock: ZUJKAS_clean_linker_0, # of connection points: 2
# Relax obj value: 0.121
# Max RMSD: 0.309
# Mean RMSD: 0.273
data_MOF--net-ssc--node1-CEKHIL_clean_sbu_0--node2-KUFVIS_clean_linker_0--edge1-ZUJKAS_clean_linker_0
_symmetry_space_group_name_H-M    P1
_symmetry_Int_Tables_number       1
_symmetry_cell_setting            triclinic
loop_
_symmetry_equiv_pos_as_xyz
'x, y, z'
_cell_length_a     39.735522
_cell_length_b     39.797504
_cell_length_c     39.680437
_cell_angle_alpha  91.203263
_cell_angle_beta   89.765846
_cell_angle_gamma 92.920969
loop_
_atom_site_label
_atom_site_type_symbol
_atom_site_fract_x
_atom_site_fract_y
_atom_site_fract_z
_atom_type_partial_charge
Co0 Co 0.02682 0.27939 0.13781 0.0
O1 O 0.05746 0.28751 0.10091 0.0
O2 O 0.01179 0.31579 0.11118 0.0
C3 C 0.06677 0.27588 0.17767 0.0
O4 O 0.99 0.27987 0.17386 0.0
Co5 Co 0.02549 0.21295 0.17721 0.0
O6 O 0.99611 0.23714 0.209 0.0
C7 C 0.99752 0.21302 0.10855 0.0
C8 C 0.0382 0.31135 0.09248 0.0
C9 C 0.98215 0.26395 0.20092 0.0
O10 O 0.99989 0.24543 0.10908 0.0
O11 O 0.00874 0.19533 0.13221 0.0
O12 O 0.05734 0.30507 0.16831 0.0
O13 O 0.05384 0.25025 0.16092 0.0
Co14 Co 0.02988 0.76672 0.41499 0.0
O15 O 0.06032 0.7551 0.4501 0.0
O16 O 0.01293 0.72629 0.43674 0.0
C17 C 0.06992 0.77757 0.37573 0.0
O18 O 0.99271 0.76877 0.3799 0.0
Co19 Co 0.0311 0.83694 0.38284 0.0
O20 O 0.00124 0.81448 0.34829 0.0
C21 C 0.00417 0.82792 0.45179 0.0
C22 C 0.03966 0.72939 0.45554 0.0
C23 C 0.98582 0.78636 0.35422 0.0
O24 O 0.00516 0.79574 0.44816 0.0
O25 O 0.01552 0.84855 0.42962 0.0
O26 O 0.0588 0.74678 0.38083 0.0
O27 O 0.05824 0.8002 0.39568 0.0
Co28 Co 0.53067 0.7629 0.62272 0.0
O29 O 0.55894 0.77415 0.58467 0.0
O30 O 0.51009 0.79636 0.59629 0.0
C31 C 0.57225 0.76536 0.66142 0.0
O32 O 0.49493 0.75949 0.65966 0.0
Co33 Co 0.53895 0.69858 0.66399 0.0
O34 O 0.50676 0.71907 0.69572 0.0
C35 C 0.50717 0.69314 0.59686 0.0
C36 C 0.53641 0.79521 0.57684 0.0
C37 C 0.48927 0.74341 0.68706 0.0
O38 O 0.50699 0.72545 0.59564 0.0
O39 O 0.52094 0.67773 0.62078 0.0
O40 O 0.55879 0.79269 0.65188 0.0
O41 O 0.5621 0.73809 0.64551 0.0
Co42 Co 0.51777 0.25012 0.92087 0.0
O43 O 0.54993 0.23931 0.95487 0.0
O44 O 0.50262 0.20958 0.94321 0.0
C45 C 0.55629 0.26145 0.8802 0.0
O46 O 0.47901 0.25033 0.88753 0.0
Co47 Co 0.515 0.31848 0.88597 0.0
O48 O 0.48716 0.29278 0.85179 0.0
C49 C 0.49217 0.31146 0.95694 0.0
C50 C 0.5301 0.21304 0.96077 0.0
C51 C 0.47216 0.26516 0.86015 0.0
O52 O 0.49387 0.27921 0.95474 0.0
O53 O 0.50148 0.33115 0.93314 0.0
O54 O 0.54587 0.23052 0.88573 0.0
O55 O 0.54445 0.28406 0.90003 0.0
Co56 Co 0.11459 0.99462 0.26853 0.0
O57 O 0.14703 0.96825 0.24524 0.0
O58 O 0.14544 0.97692 0.3005 0.0
C59 C 0.0689 0.9725 0.24127 0.0
O60 O 0.08407 0.01846 0.30188 0.0
Co61 Co 0.07083 0.04436 0.23074 0.0
O62 O 0.04323 0.04149 0.27243 0.0
C63 C 0.14276 0.0622 0.24326 0.0
C64 C 0.15959 0.96271 0.27465 0.0
C65 C 0.05546 0.03217 0.30016 0.0
O66 O 0.1447 0.03666 0.26255 0.0
O67 O 0.11627 0.06811 0.22658 0.0
O68 O 0.08133 0.95668 0.26634 0.0
O69 O 0.08609 0.99903 0.23187 0.0
Co70 Co 0.2654 0.9098 0.55097 0.0
O71 O 0.25425 0.94692 0.58024 0.0
O72 O 0.22524 0.9296 0.53504 0.0
C73 C 0.27569 0.87351 0.59215 0.0
O74 O 0.26687 0.87201 0.51556 0.0
Co75 Co 0.33558 0.87935 0.54999 0.0
O76 O 0.31362 0.84333 0.52121 0.0
C77 C 0.32699 0.94561 0.52008 0.0
C78 C 0.22859 0.9504 0.56063 0.0
C79 C 0.285 0.84708 0.50782 0.0
O80 O 0.29476 0.94134 0.52294 0.0
O81 O 0.34757 0.92495 0.53156 0.0
O82 O 0.24495 0.8778 0.58259 0.0
O83 O 0.29867 0.89292 0.5785 0.0
Co84 Co 0.40423 0.06413 0.79849 0.0
O85 O 0.37453 0.094 0.77716 0.0
O86 O 0.37523 0.08389 0.83183 0.0
C87 C 0.4519 0.08253 0.7721 0.0
O88 O 0.43151 0.03669 0.83034 0.0
Co89 Co 0.44365 0.01105 0.75787 0.0
O90 O 0.4686 0.00707 0.80073 0.0
C91 C 0.36994 0.00218 0.76615 0.0
C92 C 0.36243 0.09982 0.80708 0.0
C93 C 0.45701 0.01805 0.82864 0.0
O94 O 0.3705 0.02505 0.78972 0.0
O95 O 0.3958 0.99546 0.74837 0.0
O96 O 0.44099 0.09903 0.79826 0.0
O97 O 0.43247 0.05768 0.7615 0.0
Co98 Co 0.296 0.11923 0.02048 0.0
O99 O 0.31068 0.08551 0.05062 0.0
O100 O 0.33658 0.10015 0.00325 0.0
C101 C 0.28504 0.15804 0.06101 0.0
O102 O 0.29089 0.15382 0.98375 0.0
Co103 Co 0.22403 0.14648 0.02261 0.0
O104 O 0.24217 0.17962 0.98981 0.0
C105 C 0.23449 0.07724 0.99789 0.0
C106 C 0.33564 0.08163 0.02984 0.0
C107 C 0.27061 0.17644 0.97545 0.0
O108 O 0.26657 0.08377 0.99565 0.0
O109 O 0.21428 0.09789 0.01101 0.0
O110 O 0.31576 0.15515 0.05018 0.0
O111 O 0.26304 0.13635 0.04878 0.0
Co112 Co 0.76157 0.4163 0.02127 0.0
O113 O 0.74999 0.45298 0.05084 0.0
O114 O 0.72759 0.44184 0.00053 0.0
C115 C 0.76046 0.37643 0.0609 0.0
O116 O 0.76511 0.38063 0.98406 0.0
Co117 Co 0.82676 0.37753 0.03009 0.0
O118 O 0.80579 0.34569 0.99612 0.0
C119 C 0.83079 0.44713 0.00581 0.0
C120 C 0.72883 0.4607 0.02768 0.0
C121 C 0.78106 0.35381 0.97816 0.0
O122 O 0.79875 0.44566 0.00068 0.0
O123 O 0.8461 0.42388 0.02031 0.0
O124 O 0.73254 0.3849 0.04712 0.0
O125 O 0.78716 0.39394 0.05228 0.0
Co126 Co 0.90597 0.53279 0.28488 0.0
O127 O 0.87157 0.5577 0.26373 0.0
O128 O 0.87513 0.54928 0.31849 0.0
C129 C 0.95018 0.55679 0.25668 0.0
O130 O 0.93778 0.51069 0.31687 0.0
Co131 Co 0.95241 0.48513 0.24514 0.0
O132 O 0.97769 0.48423 0.28798 0.0
C133 C 0.88135 0.46354 0.2583 0.0
C134 C 0.85967 0.56291 0.29386 0.0
C135 C 0.9651 0.49468 0.31562 0.0
O136 O 0.87774 0.48927 0.27817 0.0
O137 O 0.90816 0.45912 0.24113 0.0
O138 O 0.93769 0.57215 0.28278 0.0
O139 O 0.93417 0.52925 0.24724 0.0
Co140 Co 0.78088 0.6216 0.53262 0.0
O141 O 0.79617 0.58563 0.55938 0.0
O142 O 0.81941 0.60229 0.51132 0.0
C143 C 0.77436 0.65779 0.5764 0.0
O144 O 0.7743 0.65809 0.49839 0.0
Co145 Co 0.71078 0.65147 0.54149 0.0
O146 O 0.72787 0.68613 0.50956 0.0
C147 C 0.71696 0.58311 0.5124 0.0
C148 C 0.81947 0.58216 0.53667 0.0
C149 C 0.75478 0.68211 0.49268 0.0
O150 O 0.74885 0.58885 0.50789 0.0
O151 O 0.69839 0.60352 0.52832 0.0
O152 O 0.80395 0.65495 0.56273 0.0
O153 O 0.75061 0.63789 0.56443 0.0
Co154 Co 0.61433 0.48768 0.78051 0.0
O155 O 0.64609 0.45719 0.76186 0.0
O156 O 0.64358 0.47291 0.81559 0.0
C157 C 0.56765 0.46478 0.75513 0.0
O158 O 0.58437 0.51657 0.80974 0.0
Co159 Co 0.57448 0.53448 0.73506 0.0
O160 O 0.54742 0.54107 0.77656 0.0
C161 C 0.64649 0.55065 0.74814 0.0
C162 C 0.65779 0.45508 0.79224 0.0
C163 C 0.55791 0.53339 0.80559 0.0
O164 O 0.64658 0.5275 0.77048 0.0
O165 O 0.62099 0.55541 0.72958 0.0
O166 O 0.57918 0.4514 0.78211 0.0
O167 O 0.58655 0.48876 0.74266 0.0
H168 H 0.93244 0.35481 0.70121 0.0
H169 H 0.98335 0.28594 0.76299 0.0
H170 H 0.016 0.30313 0.66056 0.0
H171 H 0.01569 0.23908 0.67019 0.0
H172 H 0.10705 0.21181 0.7175 0.0
H173 H 0.05128 0.29182 0.7606 0.0
C174 C 0.95204 0.33716 0.70434 0.0
C175 C 0.97362 0.33065 0.67725 0.0
C176 C 0.95533 0.32152 0.73543 0.0
C177 C 0.98067 0.29843 0.73921 0.0
C178 C 0.0026 0.29156 0.71212 0.0
C179 C 0.99899 0.30797 0.68134 0.0
C180 C 0.02982 0.26774 0.71548 0.0
C181 C 0.03382 0.24248 0.69048 0.0
C182 C 0.06182 0.22244 0.69095 0.0
C183 C 0.08545 0.22742 0.71682 0.0
C184 C 0.08183 0.25218 0.74193 0.0
C185 C 0.05369 0.27209 0.74163 0.0
H186 H 0.94682 0.6658 0.78892 0.0
H187 H 0.0302 0.72606 0.82941 0.0
H188 H 0.97869 0.75788 0.74092 0.0
H189 H 0.05045 0.76628 0.7344 0.0
H190 H 0.09067 0.85525 0.786 0.0
H191 H 0.01824 0.79 0.83591 0.0
C192 C 0.96465 0.68723 0.78685 0.0
C193 C 0.96035 0.71053 0.76142 0.0
C194 C 0.98957 0.69261 0.81147 0.0
C195 C 0.01104 0.72157 0.81023 0.0
C196 C 0.00773 0.74488 0.78441 0.0
C197 C 0.98219 0.73937 0.76009 0.0
C198 C 0.02985 0.77585 0.7842 0.0
C199 C 0.05033 0.78344 0.75597 0.0
C200 C 0.07217 0.81226 0.75669 0.0
C201 C 0.0727 0.83373 0.78502 0.0
C202 C 0.05389 0.82563 0.81375 0.0
C203 C 0.03245 0.79662 0.81341 0.0
H204 H 0.44245 0.84945 0.20524 0.0
H205 H 0.48285 0.76654 0.25623 0.0
H206 H 0.52819 0.80171 0.16338 0.0
H207 H 0.51845 0.73709 0.15987 0.0
H208 H 0.58997 0.67777 0.20877 0.0
H209 H 0.55116 0.76331 0.26122 0.0
C210 C 0.46141 0.83085 0.2068 0.0
C211 C 0.48548 0.82836 0.18111 0.0
C212 C 0.46035 0.80882 0.23381 0.0
C213 C 0.48441 0.78438 0.23594 0.0
C214 C 0.50928 0.78184 0.21068 0.0
C215 C 0.50978 0.80412 0.18341 0.0
C216 C 0.53219 0.75355 0.21059 0.0
C217 C 0.53363 0.7324 0.18176 0.0
C218 C 0.55379 0.70458 0.18144 0.0
C219 C 0.57318 0.69844 0.20977 0.0
C220 C 0.57256 0.71926 0.23869 0.0
C221 C 0.55185 0.74695 0.23907 0.0
H222 H 0.42468 0.18505 0.29726 0.0
H223 H 0.51173 0.23647 0.34125 0.0
H224 H 0.48169 0.25861 0.23983 0.0
H225 H 0.55109 0.25645 0.24324 0.0
H226 H 0.59889 0.34677 0.28591 0.0
H227 H 0.51181 0.30148 0.33427 0.0
C228 C 0.4463 0.20268 0.29491 0.0
C229 C 0.45131 0.2203 0.26502 0.0
C230 C 0.46774 0.20853 0.32241 0.0
C231 C 0.4952 0.23177 0.31981 0.0
C232 C 0.5006 0.24978 0.28989 0.0
C233 C 0.47845 0.24402 0.26249 0.0
C234 C 0.52773 0.27646 0.28834 0.0
C235 C 0.55176 0.27657 0.26211 0.0
C236 C 0.57728 0.30223 0.26101 0.0
C237 C 0.57833 0.32773 0.28591 0.0
C238 C 0.55511 0.32752 0.31244 0.0
C239 C 0.52988 0.30173 0.3137 0.0
H240 H 0.72181 0.94192 0.35872 0.0
H241 H 0.76682 0.97682 0.26633 0.0
H242 H 0.6736 0.01621 0.3018 0.0
H243 H 0.67193 0.99791 0.2336 0.0
H244 H 0.71051 0.08295 0.17813 0.0
H245 H 0.76408 0.05173 0.26496 0.0
C246 C 0.72214 0.95897 0.33773 0.0
C247 C 0.6952 0.97987 0.33369 0.0
C248 C 0.74795 0.95745 0.31361 0.0
C249 C 0.74727 0.97811 0.28538 0.0
C250 C 0.72062 0.99967 0.2813 0.0
C251 C 0.69447 0.00011 0.30527 0.0
C252 C 0.71921 0.02118 0.25158 0.0
C253 C 0.69155 0.01734 0.22946 0.0
C254 C 0.68861 0.03953 0.20285 0.0
C255 C 0.71343 0.06515 0.19817 0.0
C256 C 0.74059 0.06976 0.22036 0.0
C257 C 0.74365 0.04763 0.24708 0.0
H258 H 0.13951 0.30976 0.48324 0.0
H259 H 0.17152 0.34223 0.58254 0.0
H260 H 0.22556 0.26727 0.52709 0.0
H261 H 0.22271 0.24737 0.58764 0.0
H262 H 0.28864 0.29699 0.66022 0.0
H263 H 0.23354 0.35612 0.59231 0.0
C264 C 0.15588 0.30752 0.50481 0.0
C265 C 0.18223 0.28562 0.5024 0.0
C266 C 0.15181 0.3282 0.53342 0.0
C267 C 0.17448 0.32637 0.5603 0.0
C268 C 0.2008 0.30388 0.5586 0.0
C269 C 0.20474 0.28376 0.52928 0.0
C270 C 0.22465 0.30202 0.58709 0.0
C271 C 0.23346 0.27047 0.59898 0.0
C272 C 0.25656 0.26889 0.62534 0.0
C273 C 0.27025 0.29863 0.64025 0.0
C274 C 0.26219 0.33018 0.62873 0.0
C275 C 0.23935 0.33181 0.60195 0.0
H276 H 0.79007 0.11426 0.83803 0.0
H277 H 0.74592 0.04839 0.76128 0.0
H278 H 0.83818 0.02363 0.81017 0.0
H279 H 0.84467 0.01366 0.74505 0.0
H280 H 0.80211 0.91738 0.71228 0.0
H281 H 0.74375 0.98122 0.77571 0.0
C282 C 0.79072 0.09132 0.82281 0.0
C283 C 0.81729 0.07004 0.82673 0.0
C284 C 0.76491 0.08368 0.79954 0.0
C285 C 0.76553 0.0541 0.77973 0.0
C286 C 0.79206 0.03224 0.78356 0.0
C287 C 0.81772 0.04033 0.8072 0.0
C288 C 0.79385 0.00122 0.7626 0.0
C289 C 0.82375 0.99507 0.74468 0.0
C290 C 0.82687 0.96467 0.72682 0.0
C291 C 0.79984 0.94087 0.72634 0.0
C292 C 0.76979 0.94676 0.74343 0.0
C293 C 0.76671 0.97694 0.76178 0.0
H294 H 0.3653 0.727 0.95395 0.0
H295 H 0.32078 0.6933 0.0468 0.0
H296 H 0.27806 0.77414 0.99301 0.0
H297 H 0.28124 0.79029 0.05968 0.0
H298 H 0.20562 0.74241 0.12258 0.0
H299 H 0.25484 0.68391 0.04695 0.0
C300 C 0.34676 0.72971 0.97384 0.0
C301 C 0.32231 0.75358 0.97062 0.0
C302 C 0.34651 0.70789 0.00108 0.0
C303 C 0.32117 0.71008 0.02561 0.0
C304 C 0.29672 0.73434 0.02319 0.0
C305 C 0.29725 0.75594 0.99546 0.0
C306 C 0.27067 0.73693 0.04974 0.0
C307 C 0.26603 0.76804 0.06643 0.0
C308 C 0.24223 0.77004 0.09245 0.0
C309 C 0.22357 0.741 0.10194 0.0
C310 C 0.22805 0.71001 0.08593 0.0
C311 C 0.25139 0.70795 0.05951 0.0
H312 H 0.64445 0.81709 0.96534 0.0
H313 H 0.67342 0.84868 0.06559 0.0
H314 H 0.72404 0.76839 0.0149 0.0
H315 H 0.71711 0.75377 0.08246 0.0
H316 H 0.78788 0.80925 0.14667 0.0
H317 H 0.73899 0.86014 0.06792 0.0
C318 C 0.65949 0.81383 0.98771 0.0
C319 C 0.68378 0.78954 0.98737 0.0
C320 C 0.6557 0.83529 0.01571 0.0
C321 C 0.67577 0.83158 0.04416 0.0
C322 C 0.70039 0.8073 0.0442 0.0
C323 C 0.70428 0.78619 0.01566 0.0
C324 C 0.72453 0.80712 0.07244 0.0
C325 C 0.7303 0.7773 0.08973 0.0
C326 C 0.75307 0.77834 0.11674 0.0
C327 C 0.76981 0.8088 0.12617 0.0
C328 C 0.76492 0.83824 0.1088 0.0
C329 C 0.74237 0.83739 0.08181 0.0
H330 H 0.27813 0.57832 0.36582 0.0
H331 H 0.24193 0.5494 0.26698 0.0
H332 H 0.32652 0.50116 0.30956 0.0
H333 H 0.33938 0.5136 0.24655 0.0
H334 H 0.29618 0.43844 0.1787 0.0
H335 H 0.23535 0.47863 0.25827 0.0
C336 C 0.27906 0.56186 0.3437 0.0
C337 C 0.30436 0.53881 0.34104 0.0
C338 C 0.2568 0.56616 0.31709 0.0
C339 C 0.25883 0.54587 0.28784 0.0
C340 C 0.28367 0.52183 0.28523 0.0
C341 C 0.30677 0.51892 0.3117 0.0
C342 C 0.28638 0.50021 0.25466 0.0
C343 C 0.31757 0.49848 0.23777 0.0
C344 C 0.3207 0.47667 0.20994 0.0
C345 C 0.29287 0.45655 0.19915 0.0
C346 C 0.26211 0.45671 0.2165 0.0
C347 C 0.25876 0.47896 0.24412 0.0
H348 H 0.859 0.22566 0.45269 0.0
H349 H 0.8207 0.18468 0.545 0.0
H350 H 0.78477 0.27826 0.50899 0.0
H351 H 0.78663 0.28659 0.57098 0.0
H352 H 0.71735 0.23542 0.63792 0.0
H353 H 0.76123 0.17988 0.55699 0.0
C354 C 0.84275 0.22759 0.47463 0.0
C355 C 0.82274 0.25541 0.47854 0.0
C356 C 0.84185 0.20193 0.49818 0.0
C357 C 0.82098 0.20439 0.52654 0.0
C358 C 0.80002 0.23177 0.53074 0.0
C359 C 0.80097 0.25726 0.50642 0.0
C360 C 0.77681 0.23312 0.56017 0.0
C361 C 0.77281 0.2637 0.57827 0.0
C362 C 0.75121 0.26434 0.60626 0.0
C363 C 0.73421 0.2347 0.61638 0.0
C364 C 0.73817 0.20424 0.59933 0.0
C365 C 0.75894 0.20346 0.57076 0.0
H366 H 0.21924 0.41816 0.82994 0.0
H367 H 0.2695 0.47867 0.7548 0.0
H368 H 0.17127 0.50379 0.7919 0.0
H369 H 0.16952 0.50918 0.72836 0.0
H370 H 0.21468 0.60093 0.69037 0.0
H371 H 0.26901 0.54438 0.76134 0.0
C372 C 0.21913 0.43918 0.81295 0.0
C373 C 0.19175 0.45995 0.81317 0.0
C374 C 0.24712 0.44577 0.79216 0.0
C375 C 0.24786 0.47359 0.77097 0.0
C376 C 0.22013 0.49439 0.77033 0.0
C377 C 0.19238 0.48756 0.79179 0.0
C378 C 0.21955 0.52317 0.74726 0.0
C379 C 0.19067 0.52747 0.72752 0.0
C380 C 0.18873 0.5557 0.70728 0.0
C381 C 0.21616 0.57908 0.70611 0.0
C382 C 0.24531 0.57509 0.72506 0.0
C383 C 0.24689 0.54717 0.74595 0.0
H384 H 0.00291 0.36315 0.06814 0.0
H385 H 0.0183 0.39908 0.02031 0.0
H386 H 0.10744 0.34355 0.00338 0.0
H387 H 0.09255 0.30793 0.05097 0.0
H388 H 0.11792 0.41564 0.00599 0.0
H389 H 0.01525 0.37111 0.91807 0.0
H390 H 0.00394 0.38457 0.96004 0.0
H391 H 0.02655 0.34704 0.95404 0.0
C392 C 0.02571 0.35856 0.0541 0.0
C393 C 0.04651 0.33268 0.06326 0.0
C394 C 0.03437 0.37901 0.02676 0.0
C395 C 0.06387 0.37378 0.00826 0.0
C396 C 0.08455 0.34796 0.01738 0.0
H397 H 0.15867 0.39975 0.82491 0.0
H398 H 0.12093 0.38605 0.87189 0.0
C399 C 0.07596 0.32758 0.04455 0.0
C400 C 0.07411 0.39522 0.9796 0.0
H401 H 0.05825 0.4072 0.89635 0.0
C402 C 0.10459 0.41444 0.98215 0.0
C403 C 0.05652 0.39347 0.94868 0.0
C404 C 0.0238 0.37287 0.9447 0.0
C405 C 0.11912 0.43031 0.95402 0.0
C406 C 0.10236 0.42725 0.92261 0.0
C407 C 0.07087 0.40964 0.92053 0.0
C408 C 0.11971 0.43731 0.89101 0.0
C409 C 0.15342 0.44815 0.95763 0.0
C410 C 0.13036 0.47091 0.88534 0.0
C411 C 0.15221 0.47879 0.85854 0.0
C412 C 0.1636 0.45312 0.83712 0.0
C413 C 0.15071 0.41994 0.84137 0.0
C414 C 0.12898 0.41212 0.86806 0.0
H415 H 0.16497 0.44397 0.98255 0.0
H416 H 0.17076 0.43947 0.93762 0.0
H417 H 0.15102 0.47562 0.95491 0.0
H418 H 0.12307 0.49077 0.90253 0.0
H419 H 0.16177 0.50457 0.85584 0.0
H420 H 0.96908 0.81194 0.29348 0.0
H421 H 0.92265 0.79337 0.25651 0.0
H422 H 0.89331 0.71456 0.32519 0.0
H423 H 0.94028 0.73265 0.36238 0.0
H424 H 0.89031 0.69403 0.25511 0.0
H425 H 0.82446 0.81081 0.28093 0.0
H426 H 0.86692 0.81944 0.26697 0.0
H427 H 0.85919 0.79857 0.30628 0.0
C428 C 0.9529 0.79059 0.30082 0.0
C429 C 0.9583 0.77404 0.33115 0.0
C430 C 0.92632 0.78 0.27961 0.0
C431 C 0.90427 0.75289 0.28834 0.0
C432 C 0.91003 0.73559 0.31804 0.0
H433 H 0.72243 0.75581 0.17342 0.0
H434 H 0.75498 0.73593 0.22023 0.0
C435 C 0.93682 0.74607 0.33929 0.0
C436 C 0.87452 0.74395 0.26688 0.0
H437 H 0.80721 0.7793 0.23156 0.0
C438 C 0.87177 0.7124 0.25025 0.0
C439 C 0.84988 0.76755 0.26126 0.0
C440 C 0.85002 0.80086 0.2801 0.0
C441 C 0.84617 0.70482 0.22641 0.0
C442 C 0.82317 0.72958 0.21886 0.0
C443 C 0.82489 0.76027 0.23707 0.0
C444 C 0.79922 0.72636 0.19016 0.0
C445 C 0.84406 0.67057 0.2094 0.0
C446 C 0.81196 0.72455 0.15715 0.0
C447 C 0.79302 0.7355 0.13024 0.0
C448 C 0.76139 0.74876 0.13618 0.0
C449 C 0.74655 0.74527 0.16813 0.0
C450 C 0.76542 0.73427 0.19504 0.0
H451 H 0.85502 0.65141 0.22548 0.0
H452 H 0.81757 0.66244 0.20343 0.0
H453 H 0.85863 0.6716 0.18549 0.0
H454 H 0.83801 0.71898 0.15267 0.0
H455 H 0.80518 0.73849 0.10591 0.0
H456 H 0.48086 0.71487 0.53786 0.0
H457 H 0.45009 0.68109 0.49482 0.0
H458 H 0.46286 0.59158 0.55182 0.0
H459 H 0.4942 0.6249 0.59469 0.0
H460 H 0.4733 0.58146 0.48333 0.0
H461 H 0.35367 0.64381 0.50806 0.0
H462 H 0.38819 0.67267 0.49782 0.0
H463 H 0.38944 0.64898 0.53588 0.0
C464 C 0.47722 0.68799 0.54126 0.0
C465 C 0.48976 0.67268 0.56993 0.0
C466 C 0.45954 0.66875 0.51667 0.0
C467 C 0.45371 0.63395 0.52048 0.0
C468 C 0.46699 0.61843 0.5485 0.0
H469 H 0.29423 0.528 0.40771 0.0
H470 H 0.33349 0.54398 0.45334 0.0
C471 C 0.48484 0.63758 0.57301 0.0
C472 C 0.43301 0.61386 0.49568 0.0
H473 H 0.3552 0.60789 0.45966 0.0
C474 C 0.44739 0.58702 0.47824 0.0
C475 C 0.39906 0.62079 0.48962 0.0
C476 C 0.38153 0.6479 0.50906 0.0
C477 C 0.4289 0.56749 0.45413 0.0
C478 C 0.39542 0.57544 0.44703 0.0
C479 C 0.3809 0.60179 0.46508 0.0
C480 C 0.37501 0.55801 0.42014 0.0
C481 C 0.4453 0.53846 0.43676 0.0
C482 C 0.38582 0.55906 0.3864 0.0
C483 C 0.36355 0.54937 0.36036 0.0
C484 C 0.33008 0.53905 0.36776 0.0
C485 C 0.32002 0.53572 0.40151 0.0
C486 C 0.34236 0.54498 0.4275 0.0
H487 H 0.46597 0.5291 0.45223 0.0
H488 H 0.4267 0.51728 0.43135 0.0
H489 H 0.45638 0.54703 0.41251 0.0
H490 H 0.4106 0.5697 0.38004 0.0
H491 H 0.37163 0.55267 0.33447 0.0
H492 H 0.60164 0.31468 0.87942 0.0
H493 H 0.64168 0.33023 0.83468 0.0
H494 H 0.60248 0.24627 0.77357 0.0
H495 H 0.56361 0.22961 0.81913 0.0
H496 H 0.66932 0.24912 0.7753 0.0
H497 H 0.62822 0.37708 0.74763 0.0
H498 H 0.63883 0.37043 0.7908 0.0
H499 H 0.603 0.34768 0.77242 0.0
C500 C 0.60149 0.29968 0.85631 0.0
C501 C 0.57964 0.27092 0.85264 0.0
C502 C 0.62413 0.30882 0.83064 0.0
C503 C 0.6246 0.28994 0.80042 0.0
C504 C 0.60241 0.26139 0.79659 0.0
H505 H 0.69819 0.30416 0.60435 0.0
H506 H 0.67129 0.32117 0.65685 0.0
C507 C 0.5803 0.25179 0.8226 0.0
C508 C 0.64957 0.29832 0.77353 0.0
H509 H 0.67565 0.35867 0.71766 0.0
C510 C 0.67076 0.27312 0.76282 0.0
C511 C 0.65164 0.32984 0.75745 0.0
C512 C 0.62906 0.35777 0.7674 0.0
C513 C 0.69293 0.2778 0.73564 0.0
C514 C 0.6948 0.30913 0.71913 0.0
C515 C 0.6744 0.33486 0.73051 0.0
C516 C 0.71488 0.31367 0.68777 0.0
C517 C 0.71303 0.24844 0.72412 0.0
C518 C 0.74949 0.30791 0.6872 0.0
C519 C 0.76495 0.29834 0.65701 0.0
C520 C 0.74585 0.29448 0.62737 0.0
C521 C 0.71344 0.30702 0.62691 0.0
C522 C 0.69786 0.31629 0.6571 0.0
H523 H 0.70282 0.2243 0.73454 0.0
H524 H 0.71308 0.24586 0.69628 0.0
H525 H 0.73946 0.25257 0.73277 0.0
H526 H 0.76342 0.30653 0.71047 0.0
H527 H 0.78996 0.28874 0.65802 0.0
H528 H 0.00093 0.67337 0.47312 0.0
H529 H 0.01382 0.63183 0.51547 0.0
H530 H 0.10674 0.68798 0.53893 0.0
H531 H 0.09429 0.72927 0.49673 0.0
H532 H 0.11256 0.61714 0.52657 0.0
H533 H 0.01232 0.64499 0.62021 0.0
H534 H 0.00016 0.63697 0.57701 0.0
H535 H 0.02519 0.67434 0.58794 0.0
C536 C 0.02404 0.67691 0.48743 0.0
C537 C 0.0466 0.70463 0.48161 0.0
C538 C 0.03126 0.65323 0.51167 0.0
C539 C 0.06111 0.65699 0.53045 0.0
C540 C 0.08356 0.68465 0.52469 0.0
H541 H 0.15391 0.61249 0.70646 0.0
H542 H 0.11467 0.62844 0.66327 0.0
C543 C 0.07637 0.70827 0.5006 0.0
C544 C 0.06991 0.63202 0.55572 0.0
H545 H 0.05282 0.60749 0.63619 0.0
C546 C 0.09919 0.61441 0.55033 0.0
C547 C 0.05223 0.62857 0.58654 0.0
C548 C 0.02078 0.64725 0.5936 0.0
C549 C 0.11263 0.59518 0.57575 0.0
C550 C 0.09592 0.59305 0.6073 0.0
C551 C 0.06541 0.60896 0.61192 0.0
C552 C 0.11295 0.58005 0.63721 0.0
C553 C 0.14596 0.5795 0.56942 0.0
C554 C 0.12354 0.54689 0.6381 0.0
C555 C 0.14635 0.53778 0.66278 0.0
C556 C 0.15858 0.56172 0.68685 0.0
C557 C 0.14522 0.59374 0.68785 0.0
C558 C 0.12266 0.60281 0.66327 0.0
H559 H 0.15783 0.58774 0.54537 0.0
H560 H 0.16381 0.58607 0.59028 0.0
H561 H 0.14198 0.55171 0.56814 0.0
H562 H 0.11578 0.52872 0.6186 0.0
H563 H 0.1562 0.5129 0.66157 0.0
H564 H 0.59953 0.81921 0.69731 0.0
H565 H 0.63363 0.81822 0.74838 0.0
H566 H 0.63086 0.70974 0.7424 0.0
H567 H 0.5975 0.71061 0.69088 0.0
H568 H 0.61028 0.79239 0.80413 0.0
H569 H 0.72716 0.73084 0.77022 0.0
H570 H 0.69761 0.74286 0.73892 0.0
H571 H 0.69123 0.70344 0.75987 0.0
C572 C 0.60661 0.79517 0.7066 0.0
C573 C 0.59544 0.76498 0.6904 0.0
C574 C 0.62619 0.79463 0.73572 0.0
C575 C 0.635 0.76392 0.74918 0.0
C576 C 0.62503 0.73377 0.73219 0.0
H577 H 0.64588 0.73711 0.96072 0.0
H578 H 0.64081 0.72397 0.90032 0.0
C579 C 0.60559 0.73431 0.70294 0.0
C580 C 0.64997 0.7633 0.78335 0.0
H581 H 0.71225 0.73089 0.83027 0.0
C582 C 0.63283 0.77928 0.80964 0.0
C583 C 0.67946 0.74625 0.79065 0.0
C584 C 0.70007 0.73018 0.76331 0.0
C585 C 0.64372 0.77807 0.84302 0.0
C586 C 0.67208 0.75957 0.85063 0.0
C587 C 0.69005 0.74438 0.82439 0.0
C588 C 0.6831 0.75706 0.88601 0.0
C589 C 0.6246 0.7966 0.87 0.0
C590 C 0.71014 0.77795 0.89796 0.0
C591 C 0.71333 0.78505 0.93252 0.0
C592 C 0.68945 0.77139 0.95528 0.0
C593 C 0.66484 0.74748 0.94362 0.0
C594 C 0.66187 0.7401 0.90915 0.0
H595 H 0.60804 0.81526 0.85916 0.0
H596 H 0.60851 0.77825 0.88431 0.0
H597 H 0.64221 0.80994 0.88804 0.0
H598 H 0.72659 0.79142 0.88045 0.0
H599 H 0.73212 0.80402 0.94099 0.0
H600 H 0.4753 0.37645 0.96675 0.0
H601 H 0.4578 0.40386 0.01869 0.0
H602 H 0.46402 0.31071 0.07137 0.0
H603 H 0.48124 0.28255 0.01886 0.0
H604 H 0.40664 0.34193 0.08615 0.0
H605 H 0.51406 0.4347 0.0989 0.0
H606 H 0.49555 0.43642 0.0579 0.0
H607 H 0.5149 0.39868 0.07051 0.0
C608 C 0.47314 0.36163 0.98931 0.0
C609 C 0.47992 0.32725 0.98859 0.0
C610 C 0.46344 0.37753 0.01915 0.0
C611 C 0.46063 0.35964 0.04917 0.0
C612 C 0.46657 0.32512 0.04856 0.0
H613 H 0.37019 0.44018 0.23474 0.0
H614 H 0.41235 0.41179 0.20052 0.0
C615 C 0.47622 0.30903 0.01851 0.0
C616 C 0.44928 0.37695 0.08036 0.0
H617 H 0.46211 0.44974 0.12688 0.0
C618 C 0.41922 0.36503 0.09563 0.0
C619 C 0.46586 0.40699 0.09292 0.0
C620 C 0.49958 0.41971 0.0794 0.0
C621 C 0.40402 0.38364 0.12142 0.0
C622 C 0.41936 0.41487 0.13216 0.0
C623 C 0.45037 0.42589 0.11835 0.0
C624 C 0.40128 0.43773 0.15485 0.0
C625 C 0.37064 0.37082 0.13576 0.0
C626 C 0.38258 0.46288 0.14078 0.0
C627 C 0.3586 0.479 0.1602 0.0
C628 C 0.35339 0.47046 0.19401 0.0
C629 C 0.37441 0.44767 0.20891 0.0
C630 C 0.39821 0.43127 0.18936 0.0
H631 H 0.36131 0.34676 0.12356 0.0
H632 H 0.37331 0.36677 0.16319 0.0
H633 H 0.35145 0.38982 0.13257 0.0
H634 H 0.38455 0.46799 0.11411 0.0
H635 H 0.34213 0.49595 0.14811 0.0
H636 H 0.93968 0.31569 0.19052 0.0
H637 H 0.89481 0.3346 0.22829 0.0
H638 H 0.91977 0.25983 0.29988 0.0
H639 H 0.96383 0.24067 0.26273 0.0
H640 H 0.84873 0.26216 0.28187 0.0
H641 H 0.90638 0.38718 0.32135 0.0
H642 H 0.90534 0.37369 0.27768 0.0
H643 H 0.93319 0.35477 0.30624 0.0
C644 C 0.93565 0.30339 0.21439 0.0
C645 C 0.95543 0.27659 0.22352 0.0
C646 C 0.91006 0.3143 0.23592 0.0
C647 C 0.90409 0.29868 0.26691 0.0
C648 C 0.92391 0.27218 0.27602 0.0
H649 H 0.87848 0.29007 0.45645 0.0
H650 H 0.8859 0.31415 0.40103 0.0
C651 C 0.94918 0.26125 0.25467 0.0
C652 C 0.87723 0.30873 0.29056 0.0
H653 H 0.86752 0.36089 0.35874 0.0
C654 C 0.85169 0.28442 0.298 0.0
C655 C 0.88115 0.33796 0.31124 0.0
C656 C 0.90788 0.36509 0.30391 0.0
C657 C 0.83311 0.28609 0.32806 0.0
C658 C 0.84016 0.31322 0.35118 0.0
C659 C 0.86234 0.33996 0.34127 0.0
C660 C 0.83296 0.30938 0.38782 0.0
C661 C 0.8092 0.25667 0.33635 0.0
C662 C 0.80039 0.30118 0.40026 0.0
C663 C 0.79622 0.28667 0.43207 0.0
C664 C 0.82453 0.28097 0.45188 0.0
C665 C 0.85633 0.29381 0.44141 0.0
C666 C 0.86052 0.30773 0.40967 0.0
H667 H 0.80875 0.23661 0.31642 0.0
H668 H 0.81649 0.2454 0.36045 0.0
H669 H 0.78325 0.2654 0.33906 0.0
H670 H 0.77856 0.30336 0.38438 0.0
H671 H 0.77139 0.27717 0.43972 0.0
H672 H 0.07793 0.03476 0.36579 0.0
H673 H 0.04553 0.04936 0.41648 0.0
H674 H 0.95696 0.05806 0.35546 0.0
H675 H 0.98876 0.04364 0.30519 0.0
H676 H 0.0139 0.11034 0.42548 0.0
H677 H 0.92012 0.00403 0.43531 0.0
H678 H 0.95902 0.00093 0.41192 0.0
H679 H 0.92302 0.01864 0.3929 0.0
C680 C 0.05142 0.03928 0.36333 0.0
C681 C 0.03598 0.03829 0.33142 0.0
C682 C 0.03297 0.04755 0.39229 0.0
C683 C 0.9987 0.0542 0.38981 0.0
C684 C 0.98315 0.05226 0.35812 0.0
H685 H 0.84132 0.16212 0.44216 0.0
H686 H 0.88145 0.12008 0.42646 0.0
C687 C 0.00153 0.0444 0.32929 0.0
C688 C 0.97962 0.06709 0.4191 0.0
H689 H 0.90179 0.05874 0.45546 0.0
C690 C 0.98988 0.09862 0.43305 0.0
C691 C 0.94848 0.05157 0.42912 0.0
C692 C 0.9372 0.01673 0.41676 0.0
C693 C 0.96815 0.11671 0.45377 0.0
C694 C 0.93556 0.10257 0.46096 0.0
C695 C 0.92669 0.06964 0.44974 0.0
C696 C 0.90853 0.12381 0.47373 0.0
C697 C 0.97898 0.15203 0.46516 0.0
C698 C 0.90967 0.13898 0.50604 0.0
C699 C 0.88658 0.16314 0.51509 0.0
C700 C 0.86232 0.17241 0.49182 0.0
C701 C 0.86 0.15559 0.4604 0.0
C702 C 0.88282 0.1315 0.45149 0.0
H703 H 0.00409 0.16025 0.45498 0.0
H704 H 0.96028 0.17001 0.45707 0.0
H705 H 0.98027 0.15331 0.49309 0.0
H706 H 0.92912 0.13308 0.52369 0.0
H707 H 0.8888 0.17583 0.53946 0.0
H708 H 0.33626 0.86509 0.62237 0.0
H709 H 0.35047 0.82076 0.6609 0.0
H710 H 0.24912 0.77705 0.65216 0.0
H711 H 0.23438 0.82228 0.61531 0.0
H712 H 0.26924 0.77626 0.71492 0.0
H713 H 0.37227 0.72773 0.63474 0.0
H714 H 0.377 0.7708 0.64886 0.0
H715 H 0.34421 0.75816 0.61954 0.0
C716 C 0.31705 0.84597 0.62872 0.0
C717 C 0.28426 0.84694 0.61562 0.0
C718 C 0.32531 0.82047 0.65053 0.0
C719 C 0.30116 0.79499 0.65887 0.0
C720 C 0.26828 0.79635 0.64611 0.0
H721 H 0.27623 0.59884 0.66899 0.0
H722 H 0.30282 0.65463 0.66318 0.0
C723 C 0.25985 0.82215 0.62491 0.0
C724 C 0.30944 0.76634 0.68031 0.0
H725 H 0.3533 0.69478 0.67929 0.0
C726 C 0.28793 0.75856 0.70748 0.0
C727 C 0.33454 0.74379 0.67117 0.0
C728 C 0.35826 0.75027 0.64192 0.0
C729 C 0.28756 0.72701 0.72267 0.0
C730 C 0.31064 0.70309 0.71138 0.0
C731 C 0.33535 0.71289 0.68758 0.0
C732 C 0.30403 0.66638 0.71681 0.0
C733 C 0.26004 0.71866 0.74796 0.0
C734 C 0.29823 0.65297 0.74898 0.0
C735 C 0.28211 0.62098 0.75226 0.0
C736 C 0.2725 0.60188 0.72338 0.0
C737 C 0.28296 0.61332 0.69162 0.0
C738 C 0.29829 0.64531 0.68834 0.0
H739 H 0.24196 0.73894 0.75072 0.0
H740 H 0.24566 0.69509 0.74034 0.0
H741 H 0.27139 0.71506 0.77301 0.0
H742 H 0.30369 0.6681 0.77141 0.0
H743 H 0.27452 0.61259 0.77708 0.0
H744 H 0.51888 0.99252 0.83555 0.0
H745 H 0.54493 0.97367 0.88688 0.0
H746 H 0.45853 0.00195 0.94489 0.0
H747 H 0.43209 0.0214 0.89339 0.0
H748 H 0.55575 0.01345 0.95512 0.0
H749 H 0.47413 0.89517 0.95566 0.0
H750 H 0.47822 0.92027 0.91845 0.0
H751 H 0.45521 0.93543 0.9541 0.0
C752 C 0.50538 0.99499 0.85917 0.0
C753 C 0.47327 0.00826 0.86028 0.0
C754 C 0.52043 0.98439 0.88852 0.0
C755 C 0.50364 0.98652 0.91957 0.0
C756 C 0.47186 0.00027 0.92111 0.0
H757 H 0.60182 0.85087 0.05574 0.0
H758 H 0.56142 0.89464 0.04546 0.0
C759 C 0.45685 0.0113 0.89167 0.0
C760 C 0.51911 0.97198 0.94939 0.0
H761 H 0.52412 0.89612 0.98687 0.0
C762 C 0.54832 0.98818 0.96294 0.0
C763 C 0.50902 0.93931 0.95998 0.0
C764 C 0.47746 0.92128 0.94643 0.0
C765 C 0.5695 0.9712 0.98426 0.0
C766 C 0.5616 0.93699 0.99133 0.0
C767 C 0.53037 0.92221 0.98107 0.0
C768 C 0.58799 0.91439 0.00181 0.0
C769 C 0.60126 0.98932 0.99721 0.0
C770 C 0.61617 0.91108 0.98079 0.0
C771 C 0.63869 0.88613 0.98632 0.0
C772 C 0.63358 0.86388 0.01302 0.0
C773 C 0.60624 0.86791 0.03507 0.0
C774 C 0.58329 0.89283 0.02925 0.0
H775 H 0.59726 0.01647 0.00181 0.0
H776 H 0.60998 0.97828 0.02092 0.0
H777 H 0.62144 0.98747 0.97793 0.0
H778 H 0.61988 0.92673 0.95893 0.0
H779 H 0.65964 0.88352 0.96905 0.0
H780 H 0.32217 0.21442 0.08285 0.0
H781 H 0.30254 0.26068 0.11836 0.0
H782 H 0.20493 0.20887 0.12716 0.0
H783 H 0.22393 0.16344 0.0908 0.0
H784 H 0.19686 0.27188 0.11406 0.0
H785 H 0.28775 0.26731 0.21802 0.0
H786 H 0.30983 0.27095 0.17863 0.0
H787 H 0.28265 0.23425 0.18643 0.0
C788 C 0.29664 0.21286 0.09257 0.0
C789 C 0.27461 0.18538 0.08396 0.0
C790 C 0.28548 0.23914 0.11309 0.0
C791 C 0.25233 0.23806 0.12588 0.0
C792 C 0.23055 0.21034 0.11764 0.0
H793 H 0.23542 0.41002 0.25951 0.0
H794 H 0.21743 0.3525 0.24247 0.0
C795 C 0.24151 0.18438 0.09682 0.0
C796 C 0.23987 0.26668 0.14625 0.0
H797 H 0.26246 0.32081 0.21074 0.0
C798 C 0.21085 0.28225 0.13561 0.0
C799 C 0.25705 0.27951 0.17525 0.0
C800 C 0.28581 0.26186 0.19049 0.0
C801 C 0.20041 0.31189 0.15145 0.0
C802 C 0.22016 0.32696 0.17779 0.0
C803 C 0.24741 0.30976 0.19022 0.0
C804 C 0.21708 0.36256 0.18906 0.0
C805 C 0.16872 0.32701 0.13931 0.0
C806 C 0.21985 0.38801 0.16504 0.0
C807 C 0.22933 0.42099 0.17485 0.0
C808 C 0.23697 0.4289 0.20872 0.0
C809 C 0.22958 0.40464 0.23324 0.0
C810 C 0.21966 0.37163 0.22345 0.0
H811 H 0.14962 0.30691 0.13176 0.0
H812 H 0.15757 0.34337 0.15896 0.0
H813 H 0.17463 0.34218 0.1167 0.0
H814 H 0.21857 0.38186 0.13836 0.0
H815 H 0.23486 0.43929 0.15549 0.0
H816 H 0.03769 0.00384 0.19081 0.0
H817 H 0.98227 0.98956 0.16672 0.0
H818 H 0.96899 0.90663 0.23458 0.0
H819 H 0.0248 0.92064 0.25879 0.0
H820 H 0.95481 0.89012 0.16685 0.0
H821 H 0.88917 0.0036 0.20916 0.0
H822 H 0.92836 0.01215 0.18747 0.0
H823 H 0.9283 0.99182 0.22747 0.0
C824 C 0.02295 0.98263 0.20076 0.0
C825 C 0.03551 0.96336 0.22675 0.0
C826 C 0.99119 0.9747 0.18711 0.0
C827 C 0.97137 0.94747 0.19931 0.0
C828 C 0.98389 0.92797 0.22508 0.0
H829 H 0.77074 0.86998 0.16984 0.0
H830 H 0.82002 0.90425 0.18919 0.0
C831 C 0.01573 0.93592 0.23881 0.0
C832 C 0.93831 0.93826 0.1839 0.0
H833 H 0.85971 0.96637 0.17061 0.0
C834 C 0.93403 0.90679 0.1676 0.0
C835 C 0.9113 0.96011 0.18514 0.0
C836 C 0.91427 0.99371 0.20349 0.0
C837 C 0.90337 0.89644 0.15245 0.0
C838 C 0.87651 0.91848 0.15315 0.0
C839 C 0.88066 0.94994 0.16957 0.0
C840 C 0.84308 0.90737 0.1398 0.0
C841 C 0.89962 0.86159 0.13666 0.0
C842 C 0.83878 0.89995 0.1053 0.0
C843 C 0.81056 0.88048 0.09418 0.0
C844 C 0.78655 0.86832 0.11756 0.0
C845 C 0.789 0.87917 0.15142 0.0
C846 C 0.81712 0.89865 0.16248 0.0
H847 H 0.92073 0.84576 0.14342 0.0
H848 H 0.87558 0.84864 0.14466 0.0
H849 H 0.89917 0.86357 0.10881 0.0
H850 H 0.85856 0.90676 0.08746 0.0
H851 H 0.80928 0.87217 0.06802 0.0
H852 H 0.22182 0.84036 0.47949 0.0
H853 H 0.19987 0.7954 0.44111 0.0
H854 H 0.29683 0.75148 0.44044 0.0
H855 H 0.31882 0.7957 0.47894 0.0
H856 H 0.22019 0.77202 0.37614 0.0
H857 H 0.23205 0.67521 0.4727 0.0
H858 H 0.23447 0.71968 0.48291 0.0
H859 H 0.27087 0.69941 0.46674 0.0
C860 C 0.23853 0.82121 0.47106 0.0
C861 C 0.272 0.82142 0.48275 0.0
C862 C 0.22592 0.79559 0.44907 0.0
C863 C 0.24654 0.76978 0.43849 0.0
C864 C 0.28028 0.77077 0.44892 0.0
H865 H 0.26853 0.62662 0.28873 0.0
H866 H 0.25247 0.67953 0.31464 0.0
C867 C 0.29283 0.79616 0.47092 0.0
C868 C 0.23299 0.74092 0.41754 0.0
H869 H 0.22893 0.65528 0.41527 0.0
C870 C 0.22147 0.74644 0.3848 0.0
C871 C 0.23357 0.70764 0.42917 0.0
C872 C 0.24305 0.7001 0.46494 0.0
C873 C 0.21302 0.7193 0.36256 0.0
C874 C 0.21694 0.68597 0.37316 0.0
C875 C 0.22603 0.68069 0.40676 0.0
C876 C 0.21654 0.65642 0.34947 0.0
C877 C 0.2004 0.72678 0.32792 0.0
C878 C 0.20026 0.62576 0.35877 0.0
C879 C 0.20985 0.59541 0.34416 0.0
C880 C 0.23542 0.59534 0.31967 0.0
C881 C 0.24824 0.62612 0.30708 0.0
C882 C 0.23905 0.65647 0.32203 0.0
H883 H 0.18461 0.74903 0.32904 0.0
H884 H 0.22223 0.73294 0.31123 0.0
H885 H 0.18532 0.70515 0.31667 0.0
H886 H 0.18277 0.62501 0.37979 0.0
H887 H 0.20005 0.57195 0.35463 0.0
H888 H 0.49585 0.1371 0.78338 0.0
H889 H 0.54943 0.14991 0.75394 0.0
H890 H 0.53586 0.05766 0.69553 0.0
H891 H 0.48269 0.04478 0.72447 0.0
H892 H 0.60385 0.07241 0.72251 0.0
H893 H 0.55107 0.17702 0.65204 0.0
H894 H 0.54621 0.17874 0.69713 0.0
H895 H 0.52468 0.14561 0.67306 0.0
C896 C 0.50448 0.11948 0.76445 0.0
C897 C 0.48501 0.09004 0.75613 0.0
C898 C 0.53497 0.12683 0.74765 0.0
C899 C 0.5464 0.10476 0.72247 0.0
C900 C 0.52748 0.07495 0.7149 0.0
H901 H 0.68805 0.1672 0.56723 0.0
H902 H 0.64277 0.13437 0.59563 0.0
C903 C 0.49701 0.06773 0.73142 0.0
C904 C 0.57713 0.11331 0.70261 0.0
H905 H 0.60859 0.16766 0.64374 0.0
C906 C 0.605 0.0932 0.70524 0.0
C907 C 0.57818 0.14002 0.6797 0.0
C908 C 0.54841 0.16152 0.67496 0.0
C909 C 0.63429 0.09961 0.68594 0.0
C910 C 0.63562 0.12687 0.66356 0.0
C911 C 0.60747 0.14657 0.66065 0.0
C912 C 0.66655 0.13741 0.64469 0.0
C913 C 0.66339 0.07705 0.68955 0.0
C914 C 0.69574 0.14821 0.6624 0.0
C915 C 0.72171 0.1664 0.64609 0.0
C916 C 0.71871 0.17446 0.61193 0.0
C917 C 0.69113 0.16083 0.59341 0.0
C918 C 0.66514 0.14244 0.60974 0.0
H919 H 0.65472 0.05177 0.69845 0.0
H920 H 0.67712 0.07404 0.66534 0.0
H921 H 0.68127 0.08836 0.70853 0.0
H922 H 0.69722 0.1453 0.68943 0.0
H923 H 0.74258 0.17712 0.66095 0.0
H924 H 0.33476 0.19496 0.95397 0.0
H925 H 0.35125 0.2419 0.91703 0.0
H926 H 0.24644 0.25923 0.90035 0.0
H927 H 0.22989 0.21315 0.93724 0.0
H928 H 0.33837 0.26188 0.85061 0.0
H929 H 0.28259 0.3474 0.94391 0.0
H930 H 0.2902 0.30421 0.95305 0.0
H931 H 0.2524 0.31455 0.9314 0.0
C932 C 0.31527 0.20853 0.94201 0.0
C933 C 0.281 0.2009 0.9492 0.0
C934 C 0.32475 0.23532 0.92093 0.0
C935 C 0.30008 0.25469 0.90678 0.0
C936 C 0.26594 0.24523 0.91176 0.0
H937 H 0.25221 0.38426 0.76267 0.0
H938 H 0.28167 0.33867 0.78784 0.0
C939 C 0.25649 0.21884 0.93289 0.0
C940 C 0.30917 0.28628 0.88887 0.0
H941 H 0.28755 0.36794 0.8872 0.0
C942 C 0.32765 0.28524 0.85862 0.0
C943 C 0.29681 0.31723 0.90032 0.0
C944 C 0.27976 0.32103 0.93417 0.0
C945 C 0.33076 0.31354 0.8378 0.0
C946 C 0.31483 0.3432 0.84755 0.0
C947 C 0.29938 0.34507 0.87935 0.0
C948 C 0.30917 0.37087 0.82401 0.0
C949 C 0.35048 0.31154 0.80538 0.0
C950 C 0.31654 0.40444 0.83432 0.0
C951 C 0.29972 0.43054 0.8198 0.0
C952 C 0.27534 0.42332 0.79485 0.0
C953 C 0.27131 0.39042 0.78152 0.0
C954 C 0.28819 0.36432 0.79597 0.0
H955 H 0.36988 0.29248 0.80671 0.0
H956 H 0.33309 0.30422 0.78439 0.0
H957 H 0.36305 0.33628 0.79946 0.0
H958 H 0.33248 0.41006 0.85601 0.0
H959 H 0.30277 0.45565 0.83081 0.0
H960 H 0.34592 0.04863 0.08798 0.0
H961 H 0.38843 0.00818 0.09914 0.0
H962 H 0.4271 0.01887 0.99806 0.0
H963 H 0.38452 0.05985 0.98664 0.0
H964 H 0.41469 0.9508 0.01834 0.0
H965 H 0.4919 0.02422 0.11149 0.0
H966 H 0.44798 0.02562 0.12191 0.0
H967 H 0.46343 0.04346 0.08313 0.0
C968 C 0.36355 0.04258 0.06813 0.0
C969 C 0.36185 0.05745 0.03644 0.0
C970 C 0.38803 0.01965 0.07463 0.0
C971 C 0.41127 0.01095 0.0496 0.0
C972 C 0.40962 0.02554 0.0178 0.0
H973 H 0.53526 0.86814 0.15094 0.0
H974 H 0.52732 0.91076 0.10791 0.0
C975 C 0.38528 0.04889 0.01136 0.0
C976 C 0.43549 0.98484 0.05667 0.0
H977 H 0.48919 0.96306 0.11833 0.0
C978 C 0.43174 0.95365 0.03961 0.0
C979 C 0.45866 0.98882 0.08357 0.0
C980 C 0.46604 0.0225 0.10081 0.0
C981 C 0.4474 0.92534 0.05147 0.0
C982 C 0.46674 0.92833 0.0814 0.0
C983 C 0.47383 0.96044 0.0958 0.0
C984 C 0.47393 0.89854 0.10168 0.0
C985 C 0.44159 0.8921 0.03295 0.0
C986 C 0.44685 0.87714 0.112 0.0
C987 C 0.45137 0.85295 0.13618 0.0
C988 C 0.48298 0.84989 0.1512 0.0
C989 C 0.51065 0.86995 0.13969 0.0
C990 C 0.5061 0.8943 0.11521 0.0
H991 H 0.43724 0.89586 0.00572 0.0
H992 H 0.46328 0.87589 0.03594 0.0
H993 H 0.41863 0.87876 0.04305 0.0
H994 H 0.42158 0.88046 0.10296 0.0
H995 H 0.42965 0.83763 0.14435 0.0
H996 H 0.89287 0.46957 0.02818 0.0
H997 H 0.92821 0.51661 0.0072 0.0
H998 H 0.85144 0.53735 0.93499 0.0
H999 H 0.8154 0.4911 0.95674 0.0
H1000 H 0.95529 0.52364 0.94789 0.0
H1001 H 0.8741 0.63022 0.97036 0.0
H1002 H 0.86516 0.58964 0.98877 0.0
H1003 H 0.85182 0.59762 0.94642 0.0
C1004 C 0.88334 0.4844 0.00807 0.0
C1005 C 0.85133 0.47663 0.99408 0.0
C1006 C 0.90357 0.51131 0.99616 0.0
C1007 C 0.89232 0.53089 0.9699 0.0
C1008 C 0.86028 0.52328 0.95598 0.0
H1009 H 0.98803 0.62427 0.8085 0.0
H1010 H 0.97237 0.58641 0.85398 0.0
C1011 C 0.83979 0.49665 0.96823 0.0
C1012 C 0.91504 0.55749 0.95522 0.0
H1013 H 0.91643 0.63765 0.92651 0.0
C1014 C 0.94704 0.5488 0.94382 0.0
C1015 C 0.90484 0.59063 0.95073 0.0
C1016 C 0.87225 0.60265 0.9651 0.0
C1017 C 0.968 0.57156 0.92587 0.0
C1018 C 0.95624 0.60346 0.91831 0.0
C1019 C 0.92536 0.61302 0.93189 0.0
C1020 C 0.97297 0.62546 0.89289 0.0
C1021 C 0.00221 0.56084 0.91461 0.0
C1022 C 0.97918 0.66003 0.8996 0.0
C1023 C 0.98774 0.68185 0.87337 0.0
C1024 C 0.98994 0.66938 0.84009 0.0
C1025 C 0.98638 0.6345 0.83394 0.0
C1026 C 0.97773 0.61279 0.86003 0.0
H1027 H 0.01271 0.54349 0.93297 0.0
H1028 H 0.99971 0.54702 0.89009 0.0
H1029 H 0.02031 0.58277 0.91157 0.0
H1030 H 0.97549 0.67036 0.92474 0.0
H1031 H 0.99004 0.70867 0.87874 0.0
H1032 H 0.8194 0.58941 0.24684 0.0
H1033 H 0.77224 0.62527 0.25622 0.0
H1034 H 0.78743 0.62198 0.36368 0.0
H1035 H 0.83427 0.58492 0.35442 0.0
H1036 H 0.72249 0.61627 0.35115 0.0
H1037 H 0.77417 0.72323 0.27975 0.0
H1038 H 0.77564 0.68608 0.2534 0.0
H1039 H 0.79977 0.68936 0.29187 0.0
C1040 C 0.81278 0.59627 0.27249 0.0
C1041 C 0.83065 0.58432 0.29985 0.0
C1042 C 0.78597 0.61713 0.27786 0.0
C1043 C 0.7767 0.62713 0.31067 0.0
C1044 C 0.79422 0.61489 0.33814 0.0
H1045 H 0.61774 0.76274 0.27182 0.0
H1046 H 0.66654 0.74663 0.30425 0.0
C1047 C 0.82097 0.59369 0.33278 0.0
C1048 C 0.74784 0.64924 0.31568 0.0
H1049 H 0.71259 0.71563 0.27925 0.0
C1050 C 0.72056 0.63851 0.33608 0.0
C1051 C 0.7457 0.67941 0.29782 0.0
C1052 C 0.77566 0.69543 0.27991 0.0
C1053 C 0.69007 0.65504 0.3359 0.0
C1054 C 0.68617 0.68178 0.31337 0.0
C1055 C 0.71471 0.69458 0.29588 0.0
C1056 C 0.65243 0.69324 0.30337 0.0
C1057 C 0.66231 0.64312 0.35946 0.0
C1058 C 0.62696 0.66917 0.29385 0.0
C1059 C 0.59868 0.67853 0.27634 0.0
C1060 C 0.59562 0.71205 0.26679 0.0
C1061 C 0.61936 0.73673 0.27888 0.0
C1062 C 0.64749 0.7274 0.29713 0.0
H1063 H 0.67298 0.63651 0.38416 0.0
H1064 H 0.64351 0.66247 0.3638 0.0
H1065 H 0.64944 0.61991 0.34877 0.0
H1066 H 0.6301 0.64261 0.29725 0.0
H1067 H 0.58064 0.65898 0.26758 0.0
H1068 H 0.65909 0.55161 0.5345 0.0
H1069 H 0.62808 0.50335 0.50877 0.0
H1070 H 0.70486 0.4967 0.43204 0.0
H1071 H 0.7367 0.54459 0.4584 0.0
H1072 H 0.60114 0.50171 0.4479 0.0
H1073 H 0.68972 0.39926 0.45621 0.0
H1074 H 0.69568 0.43838 0.47981 0.0
H1075 H 0.70841 0.43572 0.43628 0.0
C1076 C 0.66964 0.53962 0.51238 0.0
C1077 C 0.70023 0.552 0.49829 0.0
C1078 C 0.65189 0.51199 0.49776 0.0
C1079 C 0.66423 0.49624 0.46866 0.0
C1080 C 0.69523 0.50798 0.45495 0.0
H1081 H 0.5626 0.39532 0.30667 0.0
H1082 H 0.58402 0.43566 0.34961 0.0
C1083 C 0.7133 0.53546 0.46988 0.0
C1084 C 0.64312 0.46963 0.45112 0.0
H1085 H 0.64407 0.39034 0.41695 0.0
C1086 C 0.61039 0.47717 0.44156 0.0
C1087 C 0.65494 0.43746 0.44333 0.0
C1088 C 0.68898 0.42707 0.45476 0.0
C1089 C 0.5897 0.45395 0.42314 0.0
C1090 C 0.60235 0.42265 0.41346 0.0
C1091 C 0.63448 0.41448 0.42428 0.0
C1092 C 0.58416 0.39937 0.3895 0.0
C1093 C 0.55464 0.46331 0.41391 0.0
C1094 C 0.57663 0.3657 0.39784 0.0
C1095 C 0.56435 0.34258 0.37325 0.0
C1096 C 0.55993 0.35283 0.33998 0.0
C1097 C 0.56572 0.3869 0.33221 0.0
C1098 C 0.57781 0.40995 0.35674 0.0
H1099 H 0.54495 0.48219 0.43205 0.0
H1100 H 0.55527 0.47464 0.38858 0.0
H1101 H 0.53682 0.44089 0.41317 0.0
H1102 H 0.58158 0.35705 0.42296 0.0
H1103 H 0.5605 0.31634 0.37969 0.0
H1104 H 0.19616 0.93469 0.22431 0.0
H1105 H 0.24487 0.9003 0.2294 0.0
H1106 H 0.23746 0.90695 0.33776 0.0
H1107 H 0.18819 0.94138 0.33287 0.0
H1108 H 0.30376 0.92345 0.26067 0.0
H1109 H 0.25111 0.8055 0.31667 0.0
H1110 H 0.22492 0.83775 0.3016 0.0
H1111 H 0.24473 0.84261 0.34205 0.0
C1112 C 0.2047 0.92874 0.24927 0.0
C1113 C 0.18854 0.94107 0.27819 0.0
C1114 C 0.2325 0.90897 0.25213 0.0
C1115 C 0.24468 0.90092 0.28394 0.0
C1116 C 0.22818 0.91249 0.31297 0.0
H1117 H 0.4541 0.84892 0.28952 0.0
H1118 H 0.40038 0.86759 0.31196 0.0
C1119 C 0.20027 0.93243 0.31012 0.0
C1120 C 0.27658 0.88332 0.28619 0.0
H1121 H 0.31118 0.8107 0.31036 0.0
C1122 C 0.30543 0.89889 0.27175 0.0
C1123 C 0.27856 0.85122 0.30053 0.0
C1124 C 0.24813 0.83308 0.31583 0.0
C1125 C 0.33609 0.88309 0.2705 0.0
C1126 C 0.33832 0.85104 0.28497 0.0
C1127 C 0.30954 0.83548 0.29983 0.0
C1128 C 0.36963 0.83247 0.2814 0.0
C1129 C 0.36547 0.90032 0.25233 0.0
C1130 C 0.37007 0.80463 0.25914 0.0
C1131 C 0.40073 0.79353 0.24692 0.0
C1132 C 0.43122 0.81014 0.25683 0.0
C1133 C 0.43089 0.83543 0.28198 0.0
C1134 C 0.40022 0.84627 0.29452 0.0
H1135 H 0.35752 0.92141 0.2368 0.0
H1136 H 0.38402 0.91075 0.2711 0.0
H1137 H 0.3783 0.88221 0.23563 0.0
H1138 H 0.34678 0.79366 0.24866 0.0
H1139 H 0.40044 0.7744 0.22706 0.0
H1140 H 0.17233 0.96339 0.52429 0.0
H1141 H 0.13178 0.00658 0.53634 0.0
H1142 H 0.18929 0.03969 0.62391 0.0
H1143 H 0.22955 0.99654 0.61235 0.0
H1144 H 0.11906 0.03011 0.63544 0.0
H1145 H 0.14779 0.10915 0.52368 0.0
H1146 H 0.13704 0.06516 0.51621 0.0
H1147 H 0.17566 0.0777 0.53728 0.0
C1148 C 0.17635 0.97995 0.54606 0.0
C1149 C 0.20421 0.97663 0.56734 0.0
C1150 C 0.15323 0.00467 0.55281 0.0
C1151 C 0.15771 0.0265 0.58084 0.0
C1152 C 0.1854 0.02309 0.60213 0.0
H1153 H 0.11886 0.21488 0.6545 0.0
H1154 H 0.13369 0.16565 0.62114 0.0
C1155 C 0.20844 0.99846 0.59544 0.0
C1156 C 0.13375 0.05295 0.58866 0.0
H1157 H 0.11081 0.13026 0.56422 0.0
C1158 C 0.11668 0.05178 0.61965 0.0
C1159 C 0.1307 0.08102 0.56783 0.0
C1160 C 0.14884 0.08367 0.53444 0.0
C1161 C 0.0984 0.0789 0.63147 0.0
C1162 C 0.09668 0.10777 0.6114 0.0
C1163 C 0.112 0.10802 0.57942 0.0
C1164 C 0.08467 0.13978 0.62568 0.0
C1165 C 0.08322 0.07736 0.66639 0.0
C1166 C 0.05163 0.14238 0.63794 0.0
C1167 C 0.04314 0.17059 0.65735 0.0
C1168 C 0.06762 0.19645 0.66457 0.0
C1169 C 0.09969 0.19503 0.64972 0.0
C1170 C 0.10812 0.16698 0.6305 0.0
H1171 H 0.09109 0.0552 0.68039 0.0
H1172 H 0.09061 0.10047 0.68129 0.0
H1173 H 0.05533 0.07565 0.66444 0.0
H1174 H 0.03296 0.12193 0.63393 0.0
H1175 H 0.01822 0.17119 0.66844 0.0
H1176 H 0.88207 0.40365 0.22318 0.0
H1177 H 0.83545 0.36236 0.21372 0.0
H1178 H 0.77041 0.4231 0.27399 0.0
H1179 H 0.81708 0.4646 0.28409 0.0
H1180 H 0.76572 0.35303 0.28761 0.0
H1181 H 0.75506 0.37858 0.1509 0.0
H1182 H 0.79573 0.36727 0.16548 0.0
H1183 H 0.779 0.40622 0.17945 0.0
C1184 C 0.8579 0.40836 0.23456 0.0
C1185 C 0.85329 0.43774 0.25422 0.0
C1186 C 0.83127 0.38468 0.22897 0.0
C1187 C 0.79944 0.38999 0.24266 0.0
C1188 C 0.79487 0.41869 0.26306 0.0
H1189 H 0.5989 0.35041 0.21752 0.0
H1190 H 0.65807 0.36195 0.20371 0.0
C1191 C 0.82154 0.44239 0.2688 0.0
C1192 C 0.77056 0.366 0.2355 0.0
H1193 H 0.71509 0.3398 0.1737 0.0
C1194 C 0.75486 0.3496 0.26266 0.0
C1195 C 0.75672 0.36165 0.20281 0.0
C1196 C 0.77226 0.37946 0.17292 0.0
C1197 C 0.72442 0.3306 0.25851 0.0
C1198 C 0.70978 0.32715 0.22595 0.0
C1199 C 0.72662 0.34198 0.19842 0.0
C1200 C 0.67429 0.3144 0.22168 0.0
C1201 C 0.70699 0.31677 0.28956 0.0
C1202 C 0.66328 0.28244 0.23294 0.0
C1203 C 0.6293 0.27593 0.24114 0.0
C1204 C 0.60622 0.3012 0.2376 0.0
C1205 C 0.61635 0.33066 0.22065 0.0
C1206 C 0.65025 0.3373 0.21289 0.0
H1207 H 0.7194 0.32617 0.31322 0.0
H1208 H 0.68028 0.3237 0.29037 0.0
H1209 H 0.70748 0.28892 0.28898 0.0
H1210 H 0.68137 0.26401 0.23889 0.0
H1211 H 0.62204 0.25297 0.2541 0.0
H1212 H 0.70632 0.5518 0.78293 0.0
H1213 H 0.75615 0.58949 0.77463 0.0
H1214 H 0.70572 0.63853 0.69476 0.0
H1215 H 0.65595 0.60107 0.70259 0.0
H1216 H 0.77143 0.62191 0.67801 0.0
H1217 H 0.76686 0.69013 0.8007 0.0
H1218 H 0.76702 0.64541 0.80552 0.0
H1219 H 0.73201 0.66337 0.78515 0.0
C1220 C 0.70573 0.57065 0.76368 0.0
C1221 C 0.67699 0.57335 0.74355 0.0
C1222 C 0.73417 0.59231 0.75908 0.0
C1223 C 0.73441 0.61712 0.73438 0.0
C1224 C 0.70597 0.61972 0.71408 0.0
H1225 H 0.91105 0.75467 0.75165 0.0
H1226 H 0.8531 0.73912 0.73421 0.0
C1227 C 0.67752 0.59819 0.71868 0.0
C1228 C 0.76479 0.63963 0.72918 0.0
H1229 H 0.81995 0.69367 0.77115 0.0
C1230 C 0.78187 0.63802 0.69816 0.0
C1231 C 0.77785 0.66132 0.75513 0.0
C1232 C 0.75978 0.66547 0.78836 0.0
C1233 C 0.8131 0.6555 0.69341 0.0
C1234 C 0.82751 0.67505 0.72037 0.0
C1235 C 0.80906 0.67867 0.75042 0.0
C1236 C 0.86335 0.68773 0.72032 0.0
C1237 C 0.83085 0.65208 0.65994 0.0
C1238 C 0.88875 0.66467 0.71647 0.0
C1239 C 0.92184 0.67372 0.72575 0.0
C1240 C 0.93005 0.70574 0.73986 0.0
C1241 C 0.90548 0.72992 0.74055 0.0
C1242 C 0.87229 0.72094 0.73088 0.0
H1243 H 0.81287 0.64471 0.63947 0.0
H1244 H 0.84483 0.67593 0.65335 0.0
H1245 H 0.84906 0.63195 0.66125 0.0
H1246 H 0.88259 0.63867 0.70942 0.0
H1247 H 0.94032 0.6546 0.72508 0.0
H1248 H 0.49699 0.84611 0.55809 0.0
H1249 H 0.50786 0.88591 0.51244 0.0
H1250 H 0.59819 0.83574 0.48575 0.0
H1251 H 0.58747 0.79592 0.53089 0.0
H1252 H 0.56405 0.92987 0.50544 0.0
H1253 H 0.55183 0.84366 0.39489 0.0
H1254 H 0.53534 0.83258 0.43591 0.0
H1255 H 0.57912 0.82766 0.42596 0.0
C1256 C 0.51891 0.84331 0.54217 0.0
C1257 C 0.54136 0.81784 0.548 0.0
C1258 C 0.52507 0.86608 0.51617 0.0
C1259 C 0.55351 0.86342 0.4954 0.0
C1260 C 0.57567 0.83776 0.50099 0.0
H1261 H 0.69814 0.98111 0.40219 0.0
H1262 H 0.65407 0.96096 0.44064 0.0
C1263 C 0.56962 0.81514 0.52695 0.0
C1264 C 0.5618 0.88861 0.46932 0.0
H1265 H 0.58816 0.89391 0.38777 0.0
C1266 C 0.56855 0.92227 0.47947 0.0
C1267 C 0.5668 0.87893 0.43528 0.0
C1268 C 0.55752 0.84379 0.42229 0.0
C1269 C 0.58319 0.94576 0.45713 0.0
C1270 C 0.59177 0.93502 0.42412 0.0
C1271 C 0.58201 0.90218 0.41318 0.0
C1272 C 0.6153 0.95509 0.40241 0.0
C1273 C 0.59039 0.98146 0.46953 0.0
C1274 C 0.60816 0.95927 0.36813 0.0
C1275 C 0.63362 0.9704 0.34594 0.0
C1276 C 0.66661 0.97725 0.35772 0.0
C1277 C 0.67294 0.97581 0.39245 0.0
C1278 C 0.6476 0.96464 0.41453 0.0
H1279 H 0.571 0.98901 0.48807 0.0
H1280 H 0.6151 0.98324 0.48257 0.0
H1281 H 0.59119 0.99945 0.44849 0.0
H1282 H 0.58347 0.95186 0.35819 0.0
H1283 H 0.62811 0.97105 0.31925 0.0
H1284 H 0.41899 0.22218 0.87721 0.0
H1285 H 0.37523 0.19691 0.83968 0.0
H1286 H 0.42267 0.24667 0.75515 0.0
H1287 H 0.46589 0.27267 0.79241 0.0
H1288 H 0.33426 0.24018 0.7954 0.0
H1289 H 0.40221 0.14253 0.72594 0.0
H1290 H 0.41418 0.1579 0.76766 0.0
H1291 H 0.42593 0.182 0.73131 0.0
C1292 C 0.42022 0.22751 0.85056 0.0
C1293 C 0.44583 0.24951 0.83773 0.0
C1294 C 0.39535 0.21287 0.8292 0.0
C1295 C 0.3963 0.21928 0.7946 0.0
C1296 C 0.42202 0.24085 0.78171 0.0
H1297 H 0.31814 0.24528 0.61572 0.0
H1298 H 0.34716 0.21602 0.65913 0.0
C1299 C 0.44643 0.256 0.80307 0.0
C1300 C 0.36857 0.20701 0.77209 0.0
H1301 H 0.35451 0.16437 0.69765 0.0
C1302 C 0.33823 0.22318 0.77435 0.0
C1303 C 0.37383 0.18425 0.74508 0.0
C1304 C 0.4057 0.16537 0.74239 0.0
C1305 C 0.31466 0.22069 0.74814 0.0
C1306 C 0.32076 0.19951 0.71971 0.0
C1307 C 0.34966 0.18048 0.71932 0.0
C1308 C 0.30195 0.20296 0.68774 0.0
C1309 C 0.28545 0.24359 0.74983 0.0
C1310 C 0.2665 0.20184 0.68704 0.0
C1311 C 0.24988 0.21955 0.66247 0.0
C1312 C 0.26866 0.23706 0.63781 0.0
C1313 C 0.30323 0.23201 0.63464 0.0
C1314 C 0.31986 0.21533 0.65965 0.0
H1315 H 0.28766 0.26193 0.77127 0.0
H1316 H 0.28386 0.25805 0.72631 0.0
H1317 H 0.26155 0.22837 0.7531 0.0
H1318 H 0.25203 0.19102 0.70767 0.0
H1319 H 0.22314 0.22302 0.66528 0.0
H1320 H 0.97417 0.24046 0.0508 0.0
H1321 H 0.94842 0.21075 0.00206 0.0
H1322 H 0.95922 0.11586 0.05027 0.0
H1323 H 0.98471 0.14515 0.09924 0.0
H1324 H 0.97693 0.15881 0.96041 0.0
H1325 H 0.85826 0.11505 0.02444 0.0
H1326 H 0.88585 0.14852 0.04161 0.0
H1327 H 0.89676 0.10549 0.04497 0.0
C1328 C 0.97094 0.21329 0.05119 0.0
C1329 C 0.98138 0.19526 0.0791 0.0
C1330 C 0.95633 0.19636 0.02325 0.0
C1331 C 0.95167 0.16118 0.02277 0.0
C1332 C 0.96219 0.14306 0.0504 0.0
H1333 H 0.84333 0.03051 0.87483 0.0
H1334 H 0.88124 0.04893 0.92111 0.0
C1335 C 0.97685 0.15991 0.07832 0.0
C1336 C 0.93594 0.14348 0.99322 0.0
H1337 H 0.86536 0.0975 0.96796 0.0
C1338 C 0.9526 0.14527 0.96202 0.0
C1339 C 0.90436 0.12561 0.99557 0.0
C1340 C 0.88503 0.12364 0.02834 0.0
C1341 C 0.93831 0.12994 0.9329 0.0
C1342 C 0.90624 0.11296 0.93503 0.0
C1343 C 0.89003 0.11039 0.96644 0.0
C1344 C 0.88757 0.1004 0.90469 0.0
C1345 C 0.95766 0.1321 0.90017 0.0
C1346 C 0.87906 0.12308 0.87991 0.0
C1347 C 0.85766 0.11262 0.85355 0.0
C1348 C 0.84404 0.07934 0.85162 0.0
C1349 C 0.85369 0.05622 0.87559 0.0
C1350 C 0.87516 0.06675 0.90208 0.0
H1351 H 0.98522 0.13549 0.90467 0.0
H1352 H 0.95273 0.1092 0.88412 0.0
H1353 H 0.94978 0.15419 0.88614 0.0
H1354 H 0.88775 0.14929 0.88175 0.0
H1355 H 0.85082 0.13091 0.83526 0.0
H1356 H 0.10935 0.83518 0.3706 0.0
H1357 H 0.14845 0.85085 0.32511 0.0
H1358 H 0.12171 0.75718 0.27277 0.0
H1359 H 0.08391 0.74068 0.31907 0.0
H1360 H 0.18732 0.76988 0.27237 0.0
H1361 H 0.1269 0.8862 0.23439 0.0
H1362 H 0.1379 0.88415 0.27808 0.0
H1363 H 0.10594 0.85529 0.26094 0.0
C1364 C 0.11178 0.81799 0.3493 0.0
C1365 C 0.09346 0.78679 0.34819 0.0
C1366 C 0.13389 0.82714 0.32318 0.0
C1367 C 0.13734 0.80566 0.29505 0.0
C1368 C 0.11925 0.77432 0.29412 0.0
H1369 H 0.18614 0.80553 0.09684 0.0
H1370 H 0.16711 0.82844 0.15045 0.0
C1371 C 0.09768 0.76487 0.32055 0.0
C1372 C 0.16053 0.81492 0.26692 0.0
H1373 H 0.17431 0.8707 0.20342 0.0
C1374 C 0.18492 0.79223 0.25769 0.0
C1375 C 0.15717 0.8441 0.24764 0.0
C1376 C 0.13044 0.86877 0.25546 0.0
C1377 C 0.20495 0.79678 0.2289 0.0
C1378 C 0.20114 0.82557 0.209 0.0
C1379 C 0.17773 0.84913 0.21906 0.0
C1380 C 0.21584 0.82744 0.17458 0.0
C1381 C 0.22789 0.76909 0.21878 0.0
C1382 C 0.25038 0.82341 0.16897 0.0
C1383 C 0.26118 0.80961 0.13826 0.0
C1384 C 0.23757 0.80083 0.11293 0.0
C1385 C 0.2047 0.81191 0.11618 0.0
C1386 C 0.19377 0.82485 0.14701 0.0
H1387 H 0.25453 0.77814 0.22234 0.0
H1388 H 0.2235 0.74624 0.23414 0.0
H1389 H 0.22414 0.76164 0.19187 0.0
H1390 H 0.2681 0.82661 0.18959 0.0
H1391 H 0.28673 0.80147 0.13624 0.0
H1392 H 0.49911 0.15099 0.97019 0.0
H1393 H 0.51608 0.10739 0.00835 0.0
H1394 H 0.59775 0.17373 0.0449 0.0
H1395 H 0.58155 0.217 0.0062 0.0
H1396 H 0.61757 0.11048 0.02781 0.0
H1397 H 0.50358 0.10155 0.10994 0.0
H1398 H 0.49708 0.09693 0.06525 0.0
H1399 H 0.5124 0.13673 0.08272 0.0
C1400 C 0.52051 0.15638 0.98659 0.0
C1401 C 0.539 0.18747 0.98525 0.0
C1402 C 0.53005 0.13147 0.0085 0.0
C1403 C 0.55792 0.13744 0.02976 0.0
C1404 C 0.57613 0.16861 0.0287 0.0
H1405 H 0.63904 0.08274 0.20805 0.0
H1406 H 0.60026 0.09616 0.16337 0.0
C1407 C 0.56682 0.19335 0.00663 0.0
C1408 C 0.56931 0.11113 0.05242 0.0
H1409 H 0.54883 0.06916 0.12445 0.0
C1410 C 0.60243 0.10101 0.0487 0.0
C1411 C 0.54928 0.09862 0.0794 0.0
C1412 C 0.51366 0.10905 0.08489 0.0
C1413 C 0.61701 0.08074 0.07253 0.0
C1414 C 0.59752 0.06943 0.10047 0.0
C1415 C 0.5636 0.07764 0.10292 0.0
C1416 C 0.61371 0.05504 0.13018 0.0
C1417 C 0.65391 0.0739 0.06885 0.0
C1418 C 0.63254 0.02611 0.12736 0.0
C1419 C 0.65503 0.0186 0.15294 0.0
C1420 C 0.65823 0.03955 0.18174 0.0
C1421 C 0.63667 0.06613 0.18609 0.0
C1422 C 0.61457 0.07381 0.16053 0.0
H1423 H 0.66644 0.08906 0.04875 0.0
H1424 H 0.66749 0.07956 0.09288 0.0
H1425 H 0.6565 0.04694 0.06223 0.0
H1426 H 0.6317 0.01086 0.10443 0.0
H1427 H 0.67169 0.99815 0.14906 0.0
H1428 H 0.1045 0.32512 0.21097 0.0
H1429 H 0.13842 0.31938 0.26166 0.0
H1430 H 0.1135 0.21257 0.26078 0.0
H1431 H 0.08029 0.21803 0.20964 0.0
H1432 H 0.11057 0.299 0.31969 0.0
H1433 H 0.21269 0.21481 0.28538 0.0
H1434 H 0.18838 0.23533 0.2542 0.0
H1435 H 0.1717 0.19756 0.27363 0.0
C1436 C 0.10665 0.30035 0.22133 0.0
C1437 C 0.0894 0.27209 0.20664 0.0
C1438 C 0.1262 0.29706 0.25016 0.0
C1439 C 0.12878 0.26549 0.26489 0.0
C1440 C 0.11255 0.23705 0.2495 0.0
H1441 H 0.14227 0.23497 0.47537 0.0
H1442 H 0.13574 0.22314 0.4149 0.0
C1443 C 0.09323 0.24028 0.22047 0.0
C1444 C 0.14418 0.26321 0.29872 0.0
H1445 H 0.20157 0.22239 0.3448 0.0
C1446 C 0.13076 0.28255 0.32499 0.0
C1447 C 0.17048 0.24164 0.30568 0.0
C1448 C 0.18689 0.22139 0.27816 0.0
C1449 C 0.1423 0.28047 0.3581 0.0
C1450 C 0.16768 0.25808 0.36534 0.0
C1451 C 0.18182 0.23919 0.33911 0.0
C1452 C 0.17909 0.2547 0.40047 0.0
C1453 C 0.12694 0.30201 0.38532 0.0
C1454 C 0.20698 0.27448 0.41232 0.0
C1455 C 0.21092 0.28098 0.44694 0.0
C1456 C 0.18691 0.26784 0.46984 0.0
C1457 C 0.16132 0.24495 0.45815 0.0
C1458 C 0.15754 0.23828 0.42364 0.0
H1459 H 0.11128 0.32158 0.37475 0.0
H1460 H 0.11069 0.28584 0.40182 0.0
H1461 H 0.14692 0.3146 0.40129 0.0
H1462 H 0.22364 0.28762 0.39475 0.0
H1463 H 0.23046 0.29917 0.45539 0.0
H1464 H 0.98933 0.7957 0.51092 0.0
H1465 H 0.96681 0.82014 0.5629 0.0
H1466 H 0.96361 0.91648 0.51555 0.0
H1467 H 0.98677 0.89262 0.46389 0.0
H1468 H 0.98919 0.92219 0.57956 0.0
H1469 H 0.86975 0.84327 0.57776 0.0
H1470 H 0.90702 0.81964 0.57722 0.0
H1471 H 0.89797 0.8455 0.54208 0.0
C1472 C 0.98367 0.82204 0.5115 0.0
C1473 C 0.98965 0.84212 0.48313 0.0
C1474 C 0.97076 0.83596 0.54122 0.0
C1475 C 0.96312 0.87003 0.54293 0.0
C1476 C 0.96932 0.89014 0.51477 0.0
H1477 H 0.85668 0.00074 0.67611 0.0
H1478 H 0.89643 0.97944 0.63426 0.0
C1479 C 0.98247 0.87638 0.4852 0.0
C1480 C 0.94828 0.88484 0.57381 0.0
H1481 H 0.87935 0.87903 0.62526 0.0
C1482 C 0.9652 0.91274 0.58964 0.0
C1483 C 0.91692 0.87254 0.58679 0.0
C1484 C 0.89665 0.84381 0.56995 0.0
C1485 C 0.9516 0.9286 0.6182 0.0
C1486 C 0.92026 0.91631 0.63102 0.0
C1487 C 0.90356 0.88821 0.61545 0.0
C1488 C 0.90321 0.93268 0.65974 0.0
C1489 C 0.97084 0.9582 0.63455 0.0
C1490 C 0.89481 0.91396 0.68837 0.0
C1491 C 0.87221 0.92604 0.71211 0.0
C1492 C 0.85752 0.95699 0.70752 0.0
C1493 C 0.86803 0.97702 0.68035 0.0
C1494 C 0.89067 0.96484 0.65647 0.0
H1495 H 0.99777 0.95949 0.62681 0.0
H1496 H 0.95953 0.98179 0.62691 0.0
H1497 H 0.96934 0.9569 0.66245 0.0
H1498 H 0.90415 0.88908 0.69129 0.0
H1499 H 0.86441 0.91018 0.7329 0.0
H1500 H 0.4385 0.78587 0.67352 0.0
H1501 H 0.39112 0.79983 0.71033 0.0
H1502 H 0.42878 0.73656 0.78709 0.0
H1503 H 0.47533 0.72199 0.75062 0.0
H1504 H 0.35957 0.72649 0.77554 0.0
H1505 H 0.39659 0.86264 0.79405 0.0
H1506 H 0.39015 0.84593 0.75193 0.0
H1507 H 0.42549 0.83367 0.77596 0.0
C1508 C 0.43669 0.77501 0.6983 0.0
C1509 C 0.46083 0.75284 0.70913 0.0
C1510 C 0.40963 0.78309 0.71929 0.0
C1511 C 0.40653 0.76939 0.75152 0.0
C1512 C 0.43056 0.74729 0.76223 0.0
H1513 H 0.37434 0.79197 0.9453 0.0
H1514 H 0.38256 0.80513 0.88614 0.0
C1515 C 0.4573 0.73906 0.74133 0.0
C1516 C 0.37903 0.77783 0.77514 0.0
H1517 H 0.35889 0.83827 0.83302 0.0
C1518 C 0.35861 0.75113 0.78766 0.0
C1519 C 0.37755 0.81016 0.79041 0.0
C1520 C 0.39859 0.83987 0.77762 0.0
C1521 C 0.3402 0.75468 0.81765 0.0
C1522 C 0.34113 0.78635 0.83481 0.0
C1523 C 0.35827 0.81406 0.81992 0.0
C1524 C 0.33184 0.78893 0.87109 0.0
C1525 C 0.32324 0.72353 0.83253 0.0
C1526 C 0.29977 0.77812 0.88297 0.0
C1527 C 0.29518 0.7701 0.917 0.0
C1528 C 0.3225 0.77339 0.93942 0.0
C1529 C 0.35301 0.78887 0.92838 0.0
C1530 C 0.35767 0.79647 0.89451 0.0
H1531 H 0.32904 0.70027 0.81819 0.0
H1532 H 0.3314 0.72061 0.85899 0.0
H1533 H 0.29553 0.72573 0.83243 0.0
H1534 H 0.27918 0.77305 0.86551 0.0
H1535 H 0.27137 0.75832 0.92494 0.0
H1536 H 0.56286 0.51248 0.871 0.0
H1537 H 0.52789 0.52843 0.91934 0.0
H1538 H 0.47456 0.5946 0.85617 0.0
H1539 H 0.50855 0.5785 0.80799 0.0
H1540 H 0.51887 0.58882 0.95065 0.0
H1541 H 0.39769 0.53985 0.89807 0.0
H1542 H 0.4376 0.52853 0.88036 0.0
H1543 H 0.41885 0.56679 0.86826 0.0
C1544 C 0.54365 0.53043 0.86745 0.0
C1545 C 0.53832 0.54398 0.83551 0.0
C1546 C 0.52366 0.53941 0.89507 0.0
C1547 C 0.498 0.56198 0.89114 0.0
C1548 C 0.49343 0.57627 0.85956 0.0
H1549 H 0.41399 0.71638 0.99056 0.0
H1550 H 0.4522 0.67293 0.97513 0.0
C1551 C 0.51313 0.56721 0.83204 0.0
C1552 C 0.47647 0.57201 0.91988 0.0
H1553 H 0.39473 0.58737 0.93768 0.0
C1554 C 0.49165 0.58781 0.94832 0.0
C1555 C 0.44091 0.56953 0.91763 0.0
C1556 C 0.42286 0.54986 0.88959 0.0
C1557 C 0.47232 0.60437 0.97265 0.0
C1558 C 0.43713 0.60591 0.96779 0.0
C1559 C 0.42174 0.58692 0.94131 0.0
C1560 C 0.41678 0.63118 0.98561 0.0
C1561 C 0.49003 0.62094 0.00264 0.0
C1562 C 0.38405 0.62253 0.9973 0.0
C1563 C 0.36171 0.64764 0.00537 0.0
C1564 C 0.37181 0.68174 0.00179 0.0
C1565 C 0.40545 0.69027 0.99322 0.0
C1566 C 0.42756 0.66531 0.98487 0.0
H1567 H 0.51147 0.60608 0.01046 0.0
H1568 H 0.50063 0.64617 0.99558 0.0
H1569 H 0.47268 0.6238 0.0244 0.0
H1570 H 0.37505 0.5964 0.99799 0.0
H1571 H 0.33588 0.64034 0.01178 0.0
H1572 H 0.81708 0.35108 0.08642 0.0
H1573 H 0.82131 0.30125 0.12062 0.0
H1574 H 0.71303 0.28646 0.12083 0.0
H1575 H 0.70857 0.33608 0.08578 0.0
H1576 H 0.79588 0.2828 0.18332 0.0
H1577 H 0.74456 0.19814 0.08082 0.0
H1578 H 0.75713 0.24165 0.07401 0.0
H1579 H 0.71717 0.23068 0.09338 0.0
C1580 C 0.79411 0.33724 0.09367 0.0
C1581 C 0.76247 0.34715 0.08293 0.0
C1582 C 0.7966 0.30889 0.11342 0.0
C1583 C 0.76755 0.2899 0.12281 0.0
C1584 C 0.73581 0.30043 0.11323 0.0
H1585 H 0.73731 0.1268 0.25799 0.0
H1586 H 0.75252 0.18314 0.2377 0.0
C1587 C 0.73329 0.32876 0.09327 0.0
C1588 C 0.77076 0.25805 0.1409 0.0
H1589 H 0.75365 0.1735 0.13338 0.0
C1590 C 0.78682 0.25881 0.17242 0.0
C1591 C 0.75954 0.2268 0.12628 0.0
C1592 C 0.74393 0.22408 0.09163 0.0
C1593 C 0.79139 0.22906 0.19 0.0
C1594 C 0.77903 0.19792 0.17588 0.0
C1595 C 0.76338 0.1973 0.14417 0.0
C1596 C 0.77971 0.16561 0.19387 0.0
C1597 C 0.80981 0.23132 0.22316 0.0
C1598 C 0.79142 0.13701 0.17703 0.0
C1599 C 0.78243 0.10483 0.18848 0.0
C1600 C 0.76201 0.10084 0.21716 0.0
C1601 C 0.75372 0.12938 0.23622 0.0
C1602 C 0.76235 0.16161 0.22454 0.0
H1603 H 0.82796 0.2535 0.22404 0.0
H1604 H 0.79133 0.23442 0.2439 0.0
H1605 H 0.82369 0.20833 0.22768 0.0
H1606 H 0.80485 0.13948 0.15332 0.0
H1607 H 0.78855 0.08314 0.17311 0.0
H1608 H 0.01492 0.45108 0.32415 0.0
H1609 H 0.04193 0.4365 0.37629 0.0
H1610 H 0.98181 0.50612 0.43184 0.0
H1611 H 0.95373 0.52034 0.37943 0.0
H1612 H 0.07953 0.47473 0.41938 0.0
H1613 H 0.96581 0.42049 0.48424 0.0
H1614 H 0.9649 0.43353 0.44116 0.0
H1615 H 0.96482 0.46445 0.47484 0.0
C1616 C 0.00736 0.46343 0.34735 0.0
C1617 C 0.98205 0.48685 0.34754 0.0
C1618 C 0.0229 0.45507 0.37722 0.0
C1619 C 0.01378 0.47003 0.40806 0.0
C1620 C 0.98889 0.49386 0.40844 0.0
H1621 H 0.15795 0.39527 0.55146 0.0
H1622 H 0.12056 0.43873 0.53378 0.0
C1623 C 0.97299 0.50204 0.37843 0.0
C1624 C 0.03076 0.45999 0.4393 0.0
H1625 H 0.01775 0.41524 0.51111 0.0
C1626 C 0.06609 0.46217 0.43979 0.0
C1627 C 0.01304 0.44389 0.46597 0.0
C1628 C 0.97506 0.44018 0.46658 0.0
C1629 C 0.08431 0.44592 0.46426 0.0
C1630 C 0.06662 0.42821 0.49007 0.0
C1631 C 0.03127 0.4288 0.49139 0.0
C1632 C 0.08359 0.40352 0.51094 0.0
C1633 C 0.12211 0.44535 0.46016 0.0
C1634 C 0.07332 0.36936 0.50749 0.0
C1635 C 0.094 0.34461 0.51853 0.0
C1636 C 0.12562 0.35351 0.53276 0.0
C1637 C 0.13391 0.38764 0.5402 0.0
C1638 C 0.11277 0.41251 0.52967 0.0
H1639 H 0.13092 0.45566 0.43566 0.0
H1640 H 0.13458 0.46086 0.48051 0.0
H1641 H 0.13055 0.41926 0.46178 0.0
H1642 H 0.05069 0.36165 0.49363 0.0
H1643 H 0.08654 0.31846 0.5133 0.0
H1644 H 0.72326 0.65377 0.62187 0.0
H1645 H 0.70914 0.69536 0.66519 0.0
H1646 H 0.79489 0.7588 0.63522 0.0
H1647 H 0.80995 0.7165 0.59273 0.0
H1648 H 0.78748 0.75833 0.70243 0.0
H1649 H 0.6632 0.77958 0.64443 0.0
H1650 H 0.66943 0.73757 0.65774 0.0
H1651 H 0.69414 0.75479 0.62356 0.0
C1652 C 0.73911 0.67662 0.62456 0.0
C1653 C 0.76734 0.68233 0.60354 0.0
C1654 C 0.73092 0.70037 0.64925 0.0
C1655 C 0.75032 0.73062 0.65279 0.0
C1656 C 0.77935 0.73572 0.63272 0.0
H1657 H 0.73167 0.92838 0.68958 0.0
H1658 H 0.71574 0.86993 0.67611 0.0
C1659 C 0.78791 0.71167 0.60839 0.0
C1660 C 0.74014 0.75765 0.67645 0.0
H1661 H 0.68025 0.81515 0.68936 0.0
C1662 C 0.76383 0.77054 0.70002 0.0
C1663 C 0.70901 0.77319 0.67343 0.0
C1664 C 0.68252 0.76082 0.6483 0.0
C1665 C 0.75864 0.80018 0.71866 0.0
C1666 C 0.72812 0.81675 0.71453 0.0
C1667 C 0.70333 0.80227 0.69285 0.0
C1668 C 0.72482 0.85214 0.72637 0.0
C1669 C 0.7873 0.81486 0.74014 0.0
C1670 C 0.73146 0.8623 0.75995 0.0
C1671 C 0.74117 0.89595 0.76753 0.0
C1672 C 0.74318 0.91962 0.74175 0.0
C1673 C 0.73023 0.91051 0.70984 0.0
C1674 C 0.72138 0.87691 0.7021 0.0
H1675 H 0.81092 0.80152 0.73606 0.0
H1676 H 0.7926 0.84184 0.73456 0.0
H1677 H 0.78041 0.81277 0.76715 0.0
H1678 H 0.73277 0.84379 0.77944 0.0
H1679 H 0.75108 0.90245 0.79234 0.0
H1680 H 0.5184 0.42249 0.78198 0.0
H1681 H 0.46102 0.41067 0.76051 0.0
H1682 H 0.48173 0.47782 0.6783 0.0
H1683 H 0.53891 0.48971 0.6994 0.0
H1684 H 0.40827 0.46125 0.74384 0.0
H1685 H 0.45129 0.38299 0.63548 0.0
H1686 H 0.47682 0.39128 0.67256 0.0
H1687 H 0.47263 0.42353 0.64215 0.0
C1688 C 0.51072 0.43466 0.7593 0.0
C1689 C 0.53323 0.45682 0.74224 0.0
C1690 C 0.47793 0.42808 0.74723 0.0
C1691 C 0.46728 0.44337 0.71783 0.0
C1692 C 0.48957 0.46571 0.70096 0.0
H1693 H 0.29526 0.38062 0.59417 0.0
H1694 H 0.34101 0.41819 0.61621 0.0
C1695 C 0.52224 0.47238 0.71303 0.0
C1696 C 0.43335 0.43486 0.70389 0.0
H1697 H 0.39347 0.39093 0.63979 0.0
C1698 C 0.40488 0.44604 0.72099 0.0
C1699 C 0.42918 0.41537 0.67392 0.0
C1700 C 0.45899 0.40233 0.65493 0.0
C1701 C 0.37215 0.43788 0.70899 0.0
C1702 C 0.36789 0.41735 0.67955 0.0
C1703 C 0.39657 0.40695 0.66213 0.0
C1704 C 0.33445 0.40308 0.66805 0.0
C1705 C 0.34262 0.4514 0.728 0.0
C1706 C 0.31411 0.38372 0.6901 0.0
C1707 C 0.28751 0.36288 0.67763 0.0
C1708 C 0.28127 0.3603 0.64275 0.0
C1709 C 0.29936 0.38216 0.62114 0.0
C1710 C 0.32575 0.40341 0.63372 0.0
H1711 H 0.34956 0.47614 0.74024 0.0
H1712 H 0.32066 0.45433 0.7113 0.0
H1713 H 0.33504 0.43375 0.74826 0.0
H1714 H 0.32047 0.38239 0.71653 0.0
H1715 H 0.27376 0.3465 0.69492 0.0
H1716 H 0.79839 0.28933 0.96579 0.0
H1717 H 0.78108 0.25209 0.9189 0.0
H1718 H 0.72258 0.32979 0.87781 0.0
H1719 H 0.73937 0.36741 0.92538 0.0
H1720 H 0.68851 0.26437 0.87865 0.0
H1721 H 0.8151 0.25979 0.82201 0.0
H1722 H 0.81595 0.24809 0.8653 0.0
H1723 H 0.80569 0.29014 0.85485 0.0
C1724 C 0.78197 0.2987 0.9468 0.0
C1725 C 0.77044 0.33145 0.94933 0.0
C1726 C 0.77215 0.27737 0.91992 0.0
C1727 C 0.75097 0.28836 0.89463 0.0
C1728 C 0.73904 0.3209 0.89705 0.0
H1729 H 0.75957 0.12864 0.74957 0.0
H1730 H 0.74192 0.18573 0.76064 0.0
C1731 C 0.74869 0.34231 0.92422 0.0
C1732 C 0.74136 0.2651 0.86623 0.0
H1733 H 0.77686 0.21165 0.81006 0.0
C1734 C 0.7076 0.2533 0.86294 0.0
C1735 C 0.76613 0.25113 0.84535 0.0
C1736 C 0.80268 0.26327 0.84687 0.0
C1737 C 0.69863 0.22544 0.84183 0.0
C1738 C 0.72404 0.20941 0.82333 0.0
C1739 C 0.75712 0.2237 0.82404 0.0
C1740 C 0.71937 0.17455 0.80917 0.0
C1741 C 0.66238 0.21242 0.84097 0.0
C1742 C 0.70973 0.14849 0.83111 0.0
C1743 C 0.71929 0.11575 0.82442 0.0
C1744 C 0.73915 0.10877 0.79607 0.0
C1745 C 0.74401 0.13339 0.77148 0.0
C1746 C 0.73409 0.16616 0.77797 0.0
H1747 H 0.64529 0.23314 0.84585 0.0
H1748 H 0.65591 0.19992 0.81639 0.0
H1749 H 0.65786 0.19399 0.86127 0.0
H1750 H 0.69914 0.154 0.85565 0.0
H1751 H 0.71562 0.09721 0.8439 0.0
H1752 H 0.982 0.52548 0.20501 0.0
H1753 H 0.03275 0.54496 0.17502 0.0
H1754 H 0.04037 0.63397 0.23895 0.0
H1755 H 0.98913 0.61465 0.2692 0.0
H1756 H 0.0456 0.64647 0.1694 0.0
H1757 H 0.13129 0.54792 0.20671 0.0
H1758 H 0.09155 0.53198 0.18994 0.0
H1759 H 0.09265 0.55562 0.22904 0.0
C1760 C 0.99456 0.5491 0.21295 0.0
C1761 C 0.9816 0.56853 0.23956 0.0
C1762 C 0.02372 0.56006 0.19587 0.0
C1763 C 0.04059 0.59061 0.20508 0.0
C1764 C 0.02779 0.61015 0.23165 0.0
H1765 H 0.23036 0.68266 0.14756 0.0
H1766 H 0.1854 0.64805 0.17398 0.0
C1767 C 0.99858 0.59911 0.24889 0.0
C1768 C 0.07052 0.60294 0.1857 0.0
H1769 H 0.15067 0.58429 0.16318 0.0
C1770 C 0.06858 0.63291 0.16804 0.0
C1771 C 0.10048 0.58519 0.1841 0.0
C1772 C 0.10438 0.55354 0.20368 0.0
C1773 C 0.09578 0.64566 0.14871 0.0
C1774 C 0.12553 0.62758 0.14652 0.0
C1775 C 0.12758 0.59769 0.16437 0.0
C1776 C 0.15575 0.64134 0.12851 0.0
C1777 C 0.09281 0.6789 0.13159 0.0
C1778 C 0.15493 0.64723 0.09372 0.0
C1779 C 0.18077 0.66687 0.07853 0.0
C1780 C 0.20766 0.68064 0.09801 0.0
C1781 C 0.20995 0.672 0.13204 0.0
C1782 C 0.18424 0.6524 0.14716 0.0
H1783 H 0.07098 0.69266 0.1412 0.0
H1784 H 0.11607 0.69522 0.13529 0.0
H1785 H 0.08933 0.67433 0.10411 0.0
H1786 H 0.13332 0.63847 0.07884 0.0
H1787 H 0.17834 0.67359 0.05236 0.0
H1788 H 0.72146 0.73729 0.47432 0.0
H1789 H 0.73581 0.77613 0.42931 0.0
H1790 H 0.82218 0.71965 0.40286 0.0
H1791 H 0.80827 0.68056 0.44842 0.0
H1792 H 0.83732 0.78831 0.40563 0.0
H1793 H 0.72409 0.76146 0.32829 0.0
H1794 H 0.71232 0.76877 0.37135 0.0
H1795 H 0.73691 0.73327 0.36043 0.0
C1796 C 0.74344 0.73287 0.45893 0.0
C1797 C 0.7636 0.70565 0.46504 0.0
C1798 C 0.75148 0.75503 0.43298 0.0
C1799 C 0.77967 0.7504 0.41226 0.0
C1800 C 0.80014 0.7235 0.41836 0.0
H1801 H 0.76094 0.90742 0.26818 0.0
H1802 H 0.78222 0.85293 0.28237 0.0
C1803 C 0.79212 0.70122 0.44444 0.0
C1804 C 0.78803 0.77493 0.38545 0.0
H1805 H 0.74941 0.81804 0.32473 0.0
C1806 C 0.81847 0.79441 0.38734 0.0
C1807 C 0.76427 0.78203 0.36053 0.0
C1808 C 0.73276 0.75995 0.35475 0.0
C1809 C 0.8239 0.82314 0.36761 0.0
C1810 C 0.79786 0.83302 0.34625 0.0
C1811 C 0.76924 0.81119 0.34157 0.0
C1812 C 0.79656 0.86784 0.33339 0.0
C1813 C 0.85711 0.84303 0.37061 0.0
C1814 C 0.7995 0.89515 0.35641 0.0
C1815 C 0.78769 0.92634 0.34813 0.0
C1816 C 0.77226 0.93072 0.31686 0.0
C1817 C 0.77294 0.90477 0.29238 0.0
C1818 C 0.78493 0.87349 0.30062 0.0
H1819 H 0.87805 0.82585 0.37348 0.0
H1820 H 0.86231 0.85887 0.34829 0.0
H1821 H 0.85679 0.85945 0.39355 0.0
H1822 H 0.80759 0.8916 0.38205 0.0
H1823 H 0.78737 0.94597 0.36746 0.0
H1824 H 0.86937 0.56635 0.49176 0.0
H1825 H 0.91138 0.52358 0.49803 0.0
H1826 H 0.86884 0.49789 0.59483 0.0
H1827 H 0.82715 0.54022 0.58892 0.0
H1828 H 0.94393 0.51098 0.59001 0.0
H1829 H 0.88929 0.4173 0.4964 0.0
H1830 H 0.89582 0.46101 0.48583 0.0
H1831 H 0.86334 0.44867 0.5152 0.0
C1832 C 0.86902 0.55152 0.51435 0.0
C1833 C 0.8449 0.55656 0.53984 0.0
C1834 C 0.89296 0.52714 0.51782 0.0
C1835 C 0.89304 0.50762 0.54683 0.0
C1836 C 0.86914 0.51279 0.57226 0.0
H1837 H 0.91563 0.33902 0.64313 0.0
H1838 H 0.90648 0.38055 0.60046 0.0
C1839 C 0.84527 0.53693 0.5688 0.0
C1840 C 0.91761 0.48148 0.55157 0.0
H1841 H 0.926 0.39762 0.53696 0.0
C1842 C 0.94098 0.48637 0.57778 0.0
C1843 C 0.91367 0.44968 0.53525 0.0
C1844 C 0.88923 0.44354 0.50655 0.0
C1845 C 0.95795 0.45938 0.5906 0.0
C1846 C 0.95156 0.4267 0.57638 0.0
C1847 C 0.9308 0.42263 0.54785 0.0
C1848 C 0.95922 0.39633 0.5954 0.0
C1849 C 0.97976 0.46557 0.62142 0.0
C1850 C 0.99214 0.38988 0.60533 0.0
C1851 C 0.99736 0.36641 0.63041 0.0
C1852 C 0.96971 0.34894 0.64543 0.0
C1853 C 0.9373 0.35275 0.63257 0.0
C1854 C 0.93209 0.3763 0.60792 0.0
H1855 H 0.97903 0.49185 0.6313 0.0
H1856 H 0.9715 0.44831 0.64182 0.0
H1857 H 0.00629 0.46074 0.61497 0.0
H1858 H 0.01353 0.40442 0.5953 0.0
H1859 H 0.02267 0.36373 0.63966 0.0
H1860 H 0.29547 0.00328 0.50544 0.0
H1861 H 0.32026 0.05375 0.47887 0.0
H1862 H 0.41539 0.00676 0.46947 0.0
H1863 H 0.39121 0.9567 0.49667 0.0
H1864 H 0.42327 0.07182 0.49248 0.0
H1865 H 0.34079 0.06336 0.37955 0.0
H1866 H 0.31838 0.06505 0.41885 0.0
H1867 H 0.34286 0.02939 0.40873 0.0
C1868 C 0.32161 0.00362 0.49753 0.0
C1869 C 0.3413 0.97587 0.50302 0.0
C1870 C 0.33572 0.03246 0.48231 0.0
C1871 C 0.36955 0.03382 0.47181 0.0
C1872 C 0.38924 0.00624 0.4774 0.0
H1873 H 0.50245 0.15985 0.35202 0.0
H1874 H 0.48005 0.12059 0.39453 0.0
C1875 C 0.37531 0.9776 0.49287 0.0
C1876 C 0.38464 0.06378 0.45477 0.0
H1877 H 0.37836 0.11095 0.38453 0.0
C1878 C 0.41342 0.08047 0.46891 0.0
C1879 C 0.37178 0.07493 0.42399 0.0
C1880 C 0.34196 0.05711 0.40668 0.0
C1881 C 0.42971 0.10805 0.45305 0.0
C1882 C 0.41697 0.11896 0.4222 0.0
C1883 C 0.38792 0.10261 0.40836 0.0
C1884 C 0.43387 0.14631 0.40271 0.0
C1885 C 0.46028 0.12537 0.46942 0.0
C1886 C 0.41575 0.17415 0.39396 0.0
C1887 C 0.42843 0.19632 0.36973 0.0
C1888 C 0.45943 0.19101 0.35393 0.0
C1889 C 0.47875 0.16464 0.36438 0.0
C1890 C 0.46596 0.14228 0.3886 0.0
H1891 H 0.46154 0.11989 0.49672 0.0
H1892 H 0.48333 0.11624 0.45715 0.0
H1893 H 0.46029 0.15304 0.46637 0.0
H1894 H 0.39091 0.1776 0.40444 0.0
H1895 H 0.41305 0.2164 0.36172 0.0
H1896 H 0.34364 0.13095 0.86604 0.0
H1897 H 0.29652 0.16814 0.87447 0.0
H1898 H 0.27189 0.15719 0.769 0.0
H1899 H 0.31903 0.12086 0.76022 0.0
H1900 H 0.27957 0.23252 0.82993 0.0
H1901 H 0.1866 0.1237 0.83233 0.0
H1902 H 0.23016 0.12071 0.84438 0.0
H1903 H 0.21892 0.12116 0.80061 0.0
C1904 C 0.32823 0.13668 0.84466 0.0
C1905 C 0.3349 0.12296 0.81246 0.0
C1906 C 0.30154 0.15802 0.8495 0.0
C1907 C 0.28089 0.16531 0.82233 0.0
C1908 C 0.28769 0.15185 0.79023 0.0
H1909 H 0.14558 0.27541 0.73055 0.0
H1910 H 0.19441 0.26207 0.76346 0.0
C1911 C 0.31459 0.1311 0.78526 0.0
C1912 C 0.25083 0.18527 0.82707 0.0
H1913 H 0.16573 0.17665 0.81806 0.0
C1914 C 0.25454 0.22051 0.82819 0.0
C1915 C 0.21827 0.16945 0.82569 0.0
C1916 C 0.21303 0.13165 0.82598 0.0
C1917 C 0.22649 0.24033 0.82465 0.0
C1918 C 0.19421 0.2243 0.81951 0.0
C1919 C 0.19037 0.18913 0.82182 0.0
C1920 C 0.1655 0.2421 0.80564 0.0
C1921 C 0.2318 0.27813 0.82506 0.0
C1922 C 0.13272 0.23641 0.81862 0.0
C1923 C 0.10459 0.24372 0.79941 0.0
C1924 C 0.109 0.25686 0.76708 0.0
C1925 C 0.14166 0.26581 0.7557 0.0
C1926 C 0.16966 0.25833 0.77469 0.0
H1927 H 0.2535 0.28644 0.84118 0.0
H1928 H 0.23755 0.28675 0.79918 0.0
H1929 H 0.20902 0.29055 0.8343 0.0
H1930 H 0.12885 0.22366 0.84229 0.0
H1931 H 0.07963 0.23609 0.80837 0.0
H1932 H 0.16886 0.05482 0.00273 0.0
H1933 H 0.14214 0.00366 0.9794 0.0
H1934 H 0.2377 0.97375 0.94012 0.0
H1935 H 0.26514 0.02602 0.96317 0.0
H1936 H 0.18871 0.96863 0.89312 0.0
H1937 H 0.14035 0.90737 0.0081 0.0
H1938 H 0.12823 0.9501 0.00753 0.0
H1939 H 0.17226 0.94137 0.00939 0.0
C1940 C 0.18455 0.03742 0.98943 0.0
C1941 C 0.21929 0.04476 0.98475 0.0
C1942 C 0.16914 0.00781 0.97644 0.0
C1943 C 0.18799 0.98444 0.95873 0.0
C1944 C 0.22277 0.9913 0.95415 0.0
H1945 H 0.08513 0.80373 0.86909 0.0
H1946 H 0.11855 0.83984 0.90868 0.0
C1947 C 0.23838 0.02118 0.96724 0.0
C1948 C 0.17017 0.9549 0.94229 0.0
H1949 H 0.10881 0.89345 0.95657 0.0
C1950 C 0.17179 0.95174 0.90708 0.0
C1951 C 0.14841 0.93248 0.9605 0.0
C1952 C 0.14751 0.93278 0.99851 0.0
C1953 C 0.15056 0.92838 0.88943 0.0
C1954 C 0.12653 0.90826 0.90747 0.0
C1955 C 0.12657 0.90963 0.94279 0.0
C1956 C 0.10092 0.88633 0.88965 0.0
C1957 C 0.15363 0.92588 0.85152 0.0
C1958 C 0.07819 0.90052 0.86774 0.0
C1959 C 0.05909 0.88002 0.84532 0.0
C1960 C 0.06215 0.84505 0.84489 0.0
C1961 C 0.08199 0.83062 0.86941 0.0
C1962 C 0.10135 0.85121 0.89171 0.0
H1963 H 0.17884 0.93548 0.84271 0.0
H1964 H 0.14929 0.89948 0.84228 0.0
H1965 H 0.13444 0.94132 0.83994 0.0
H1966 H 0.07705 0.9276 0.8663 0.0
H1967 H 0.04423 0.89163 0.82636 0.0
H1968 H 0.69625 0.4217 0.74706 0.0
H1969 H 0.74485 0.38902 0.75816 0.0
H1970 H 0.73218 0.40594 0.86512 0.0
H1971 H 0.68381 0.44012 0.85395 0.0
H1972 H 0.7961 0.41626 0.84892 0.0
H1973 H 0.75513 0.29568 0.78796 0.0
H1974 H 0.74484 0.33021 0.7625 0.0
H1975 H 0.72584 0.32581 0.80349 0.0
C1976 C 0.70353 0.4183 0.773 0.0
C1977 C 0.68621 0.43365 0.79959 0.0
C1978 C 0.73114 0.39912 0.77939 0.0
C1979 C 0.7418 0.39414 0.81258 0.0
C1980 C 0.7243 0.40911 0.83933 0.0
H1981 H 0.9178 0.27754 0.77484 0.0
H1982 H 0.86806 0.29073 0.80849 0.0
C1983 C 0.69671 0.42868 0.83289 0.0
C1984 C 0.77309 0.37602 0.81836 0.0
H1985 H 0.81507 0.31116 0.78393 0.0
C1986 C 0.80005 0.39269 0.83563 0.0
C1987 C 0.77817 0.3444 0.80281 0.0
C1988 C 0.74929 0.32268 0.78866 0.0
C1989 C 0.83268 0.38059 0.83401 0.0
C1990 C 0.83878 0.35216 0.81314 0.0
C1991 C 0.81104 0.33351 0.79921 0.0
C1992 C 0.87324 0.34453 0.80097 0.0
C1993 C 0.86034 0.39916 0.85384 0.0
C1994 C 0.89387 0.37033 0.78689 0.0
C1995 C 0.92261 0.36289 0.76849 0.0
C1996 C 0.93101 0.32936 0.76275 0.0
C1997 C 0.91201 0.30362 0.7789 0.0
C1998 C 0.88336 0.31117 0.79789 0.0
H1999 H 0.85063 0.40773 0.87871 0.0
H2000 H 0.88204 0.38327 0.85805 0.0
H2001 H 0.86915 0.42198 0.8401 0.0
H2002 H 0.88653 0.39615 0.78785 0.0
H2003 H 0.93696 0.38331 0.75662 0.0
H2004 H 0.67993 0.48081 0.98514 0.0
H2005 H 0.64241 0.5273 0.99417 0.0
H2006 H 0.69001 0.55081 0.08987 0.0
H2007 H 0.72761 0.50486 0.08097 0.0
H2008 H 0.59652 0.53585 0.04613 0.0
H2009 H 0.69102 0.64237 0.04548 0.0
H2010 H 0.69984 0.60109 0.02891 0.0
H2011 H 0.70328 0.61038 0.07344 0.0
C2012 C 0.68258 0.49613 0.00795 0.0
C2013 C 0.70682 0.48929 0.03231 0.0
C2014 C 0.66114 0.52263 0.01304 0.0
C2015 C 0.66387 0.54287 0.04237 0.0
C2016 C 0.68804 0.53603 0.06665 0.0
H2017 H 0.54734 0.63646 0.17975 0.0
H2018 H 0.5663 0.59908 0.13512 0.0
C2019 C 0.70937 0.50959 0.06164 0.0
C2020 C 0.64037 0.56998 0.04905 0.0
H2021 H 0.63998 0.65122 0.07763 0.0
C2022 C 0.60582 0.56135 0.05222 0.0
C2023 C 0.65228 0.60346 0.056 0.0
C2024 C 0.6886 0.61496 0.0504 0.0
C2025 C 0.58348 0.5845 0.06545 0.0
C2026 C 0.59622 0.61679 0.07625 0.0
C2027 C 0.63012 0.62637 0.0698 0.0
C2028 C 0.57706 0.63864 0.09933 0.0
C2029 C 0.54677 0.57354 0.069 0.0
C2030 C 0.57613 0.67343 0.09408 0.0
C2031 C 0.56567 0.69501 0.11998 0.0
C2032 C 0.5563 0.68204 0.15149 0.0
C2033 C 0.55462 0.64705 0.15569 0.0
C2034 C 0.5651 0.62561 0.12998 0.0
H2035 H 0.5385 0.55704 0.04734 0.0
H2036 H 0.54324 0.55861 0.09217 0.0
H2037 H 0.5304 0.59531 0.0706 0.0
H2038 H 0.58544 0.68408 0.07072 0.0
H2039 H 0.56736 0.72193 0.11622 0.0
H2040 H 0.31837 0.98468 0.8096 0.0
H2041 H 0.26827 0.94797 0.79716 0.0
H2042 H 0.29945 0.93982 0.69312 0.0
H2043 H 0.3501 0.97488 0.70576 0.0
H2044 H 0.21676 0.95309 0.75835 0.0
H2045 H 0.28409 0.84283 0.71277 0.0
H2046 H 0.30529 0.87848 0.73361 0.0
H2047 H 0.29578 0.87975 0.68937 0.0
C2048 C 0.31447 0.97497 0.78413 0.0
C2049 C 0.33833 0.98224 0.75878 0.0
C2050 C 0.28591 0.95397 0.77702 0.0
C2051 C 0.28052 0.9403 0.74436 0.0
C2052 C 0.30363 0.94888 0.71876 0.0
H2053 H 0.07741 0.85772 0.70626 0.0
H2054 H 0.1311 0.88728 0.69242 0.0
C2055 C 0.33244 0.96921 0.72598 0.0
C2056 C 0.25039 0.91773 0.73687 0.0
H2057 H 0.22512 0.84128 0.70208 0.0
C2058 C 0.21859 0.92863 0.74608 0.0
C2059 C 0.25282 0.88549 0.72144 0.0
C2060 C 0.28636 0.87074 0.71407 0.0
C2061 C 0.18921 0.90825 0.74059 0.0
C2062 C 0.1914 0.8767 0.72351 0.0
C2063 C 0.22325 0.86583 0.71415 0.0
C2064 C 0.16141 0.85307 0.7194 0.0
C2065 C 0.15646 0.92011 0.75495 0.0
C2066 C 0.16121 0.8215 0.73459 0.0
C2067 C 0.1307 0.8037 0.74081 0.0
C2068 C 0.10012 0.81768 0.73264 0.0
C2069 C 0.1007 0.84639 0.71265 0.0
C2070 C 0.13134 0.86371 0.70553 0.0
H2071 H 0.16072 0.9406 0.77414 0.0
H2072 H 0.14122 0.9301 0.73443 0.0
H2073 H 0.14165 0.89913 0.76691 0.0
H2074 H 0.18411 0.81237 0.745 0.0
H2075 H 0.13083 0.78176 0.75653 0.0
H2076 H 0.14745 0.12052 0.20756 0.0
H2077 H 0.19733 0.15786 0.19887 0.0
H2078 H 0.25561 0.09493 0.26083 0.0
H2079 H 0.20593 0.0573 0.26985 0.0
H2080 H 0.25973 0.1697 0.27439 0.0
H2081 H 0.28265 0.13198 0.14045 0.0
H2082 H 0.24041 0.13917 0.15472 0.0
H2083 H 0.26134 0.10349 0.16932 0.0
C2084 C 0.17084 0.1145 0.21941 0.0
C2085 C 0.17267 0.08568 0.2393 0.0
C2086 C 0.19931 0.13587 0.21425 0.0
C2087 C 0.23011 0.12878 0.22878 0.0
C2088 C 0.23198 0.10058 0.24921 0.0
H2089 H 0.4344 0.16362 0.22882 0.0
H2090 H 0.37734 0.14855 0.20935 0.0
C2091 C 0.20355 0.07916 0.25439 0.0
C2092 C 0.26054 0.15088 0.2233 0.0
H2093 H 0.32411 0.1675 0.16696 0.0
C2094 C 0.27358 0.16985 0.25077 0.0
C2095 C 0.27828 0.1508 0.19235 0.0
C2096 C 0.26521 0.13029 0.16237 0.0
C2097 C 0.30497 0.1874 0.24879 0.0
C2098 C 0.32353 0.18631 0.21821 0.0
C2099 C 0.30968 0.16856 0.19018 0.0
C2100 C 0.35932 0.19853 0.21716 0.0
C2101 C 0.31896 0.20499 0.28022 0.0
C2102 C 0.36883 0.23228 0.22493 0.0
C2103 C 0.40158 0.24093 0.23598 0.0
C2104 C 0.42493 0.21588 0.23911 0.0
C2105 C 0.41676 0.18331 0.22642 0.0
C2106 C 0.3841 0.17469 0.21546 0.0
H2107 H 0.30354 0.19899 0.30294 0.0
H2108 H 0.34515 0.1978 0.28489 0.0
H2109 H 0.31943 0.23262 0.27688 0.0
H2110 H 0.35017 0.25115 0.22595 0.0
H2111 H 0.4073 0.26614 0.2459 0.0
loop_
_geom_bond_atom_site_label_1
_geom_bond_atom_site_label_2
_geom_bond_distance
_geom_bond_site_symmetry_2
_ccdc_geom_bond_type
Co0 O1 2.216 . S
Co0 O2 2.091 . S
Co0 O4 2.004 1_455 S
Co0 O10 2.021 1_455 S
Co0 O12 2.137 . S
Co0 O13 2.244 . S
O1 Co0 2.216 . S
O1 C8 1.247 . S
O2 Co0 2.091 . S
O2 C8 1.261 . S
C3 O12 1.247 . S
C3 O13 1.272 . S
O4 Co0 2.004 1_655 S
O4 C9 1.259 . S
Co5 O6 2.061 1_455 S
Co5 O11 2.048 1_455 S
Co5 O13 2.135 . S
O6 Co5 2.061 1_655 S
O6 C9 1.235 . S
C7 O10 1.238 . S
C7 O11 1.253 . S
C8 O1 1.247 . S
C8 O2 1.261 . S
C9 O4 1.259 . S
C9 O6 1.235 . S
O10 Co0 2.021 1_655 S
O10 C7 1.238 . S
O11 Co5 2.048 1_655 S
O11 C7 1.253 . S
O12 Co0 2.137 . S
O12 C3 1.247 . S
O13 Co0 2.244 . S
O13 C3 1.272 . S
O13 Co5 2.135 . S
Co14 O15 2.216 . S
Co14 O16 2.093 . S
Co14 O18 2.004 1_455 S
Co14 O24 2.021 1_455 S
Co14 O26 2.137 . S
Co14 O27 2.244 . S
O15 Co14 2.216 . S
O15 C22 1.247 . S
O16 Co14 2.093 . S
O16 C22 1.288 . S
C17 O26 1.247 . S
C17 O27 1.272 . S
O18 Co14 2.004 1_655 S
O18 C23 1.259 . S
Co19 O20 2.061 1_455 S
Co19 O25 2.052 1_455 S
Co19 O27 2.135 . S
O20 Co19 2.061 1_655 S
O20 C23 1.235 . S
C21 O24 1.238 . S
C21 O25 1.241 . S
C22 O15 1.247 . S
C22 O16 1.288 . S
C23 O18 1.259 . S
C23 O20 1.235 . S
O24 Co14 2.021 1_655 S
O24 C21 1.238 . S
O25 Co19 2.052 1_655 S
O25 C21 1.241 . S
O26 Co14 2.137 . S
O26 C17 1.247 . S
O27 Co14 2.244 . S
O27 C17 1.272 . S
O27 Co19 2.135 . S
Co28 O29 2.216 . S
Co28 O30 2.091 . S
Co28 O32 2.004 . S
Co28 O38 2.021 . S
Co28 O40 2.137 . S
Co28 O41 2.244 . S
O29 Co28 2.216 . S
O29 C36 1.247 . S
O30 Co28 2.091 . S
O30 C36 1.261 . S
C31 O40 1.247 . S
C31 O41 1.272 . S
O32 Co28 2.004 . S
O32 C37 1.259 . S
Co33 O34 2.061 . S
Co33 O39 2.052 . S
Co33 O41 2.135 . S
O34 Co33 2.061 . S
O34 C37 1.235 . S
C35 O38 1.238 . S
C35 O39 1.241 . S
C36 O29 1.247 . S
C36 O30 1.261 . S
C37 O32 1.259 . S
C37 O34 1.235 . S
O38 Co28 2.021 . S
O38 C35 1.238 . S
O39 Co33 2.052 . S
O39 C35 1.241 . S
O40 Co28 2.137 . S
O40 C31 1.247 . S
O41 Co28 2.244 . S
O41 C31 1.272 . S
O41 Co33 2.135 . S
Co42 O43 2.216 . S
Co42 O44 2.091 . S
Co42 O46 2.004 . S
Co42 O52 2.021 . S
Co42 O54 2.137 . S
Co42 O55 2.244 . S
O43 Co42 2.216 . S
O43 C50 1.247 . S
O44 Co42 2.091 . S
O44 C50 1.261 . S
C45 O54 1.247 . S
C45 O55 1.272 . S
O46 Co42 2.004 . S
O46 C51 1.259 . S
Co47 O48 2.061 . S
Co47 O53 2.052 . S
Co47 O55 2.135 . S
O48 Co47 2.061 . S
O48 C51 1.235 . S
C49 O52 1.238 . S
C49 O53 1.241 . S
C50 O43 1.247 . S
C50 O44 1.261 . S
C51 O46 1.259 . S
C51 O48 1.235 . S
O52 Co42 2.021 . S
O52 C49 1.238 . S
O53 Co47 2.052 . S
O53 C49 1.241 . S
O54 Co42 2.137 . S
O54 C45 1.247 . S
O55 Co42 2.244 . S
O55 C45 1.272 . S
O55 Co47 2.135 . S
Co56 O57 2.216 . S
Co56 O58 2.091 . S
Co56 O60 2.004 1_565 S
Co56 O66 2.021 1_565 S
Co56 O68 2.137 . S
Co56 O69 2.244 1_565 S
O57 Co56 2.216 . S
O57 C64 1.247 . S
O58 Co56 2.091 . S
O58 C64 1.261 . S
C59 O68 1.247 . S
C59 O69 1.272 1_565 S
O60 Co56 2.004 1_545 S
O60 C65 1.259 . S
Co61 O62 2.061 . S
Co61 O67 2.052 . S
Co61 O69 2.135 . S
O62 Co61 2.061 . S
O62 C65 1.235 . S
C63 O66 1.238 . S
C63 O67 1.241 . S
C64 O57 1.247 . S
C64 O58 1.261 . S
C65 O60 1.259 . S
C65 O62 1.235 . S
O66 Co56 2.021 1_545 S
O66 C63 1.238 . S
O67 Co61 2.052 . S
O67 C63 1.241 . S
O68 Co56 2.137 . S
O68 C59 1.247 . S
O69 Co56 2.244 1_545 S
O69 C59 1.272 1_545 S
O69 Co61 2.135 . S
Co70 O71 2.216 . S
Co70 O72 2.091 . S
Co70 O74 2.004 . S
Co70 O80 2.021 . S
Co70 O82 2.137 . S
Co70 O83 2.244 . S
O71 Co70 2.216 . S
O71 C78 1.247 . S
O72 Co70 2.091 . S
O72 C78 1.261 . S
C73 O82 1.247 . S
C73 O83 1.272 . S
O74 Co70 2.004 . S
O74 C79 1.259 . S
Co75 O76 2.061 . S
Co75 O81 2.052 . S
Co75 O83 2.135 . S
O76 Co75 2.061 . S
O76 C79 1.235 . S
C77 O80 1.238 . S
C77 O81 1.241 . S
C78 O71 1.247 . S
C78 O72 1.261 . S
C79 O74 1.259 . S
C79 O76 1.235 . S
O80 Co70 2.021 . S
O80 C77 1.238 . S
O81 Co75 2.052 . S
O81 C77 1.241 . S
O82 Co70 2.137 . S
O82 C73 1.247 . S
O83 Co70 2.244 . S
O83 C73 1.272 . S
O83 Co75 2.135 . S
Co84 O85 2.216 . S
Co84 O86 2.091 . S
Co84 O88 2.004 . S
Co84 O94 2.021 . S
Co84 O96 2.137 . S
Co84 O97 2.244 . S
O85 Co84 2.216 . S
O85 C92 1.247 . S
O86 Co84 2.091 . S
O86 C92 1.261 . S
C87 O96 1.247 . S
C87 O97 1.272 . S
O88 Co84 2.004 . S
O88 C93 1.259 . S
Co89 O90 2.061 . S
Co89 O95 2.052 . S
Co89 O97 2.135 1_565 S
O90 Co89 2.061 . S
O90 C93 1.235 1_565 S
C91 O94 1.238 1_565 S
C91 O95 1.241 . S
C92 O85 1.247 . S
C92 O86 1.261 . S
C93 O88 1.259 . S
C93 O90 1.235 1_545 S
O94 Co84 2.021 . S
O94 C91 1.238 1_545 S
O95 Co89 2.052 . S
O95 C91 1.241 . S
O96 Co84 2.137 . S
O96 C87 1.247 . S
O97 Co84 2.244 . S
O97 C87 1.272 . S
O97 Co89 2.135 1_545 S
Co98 O99 2.216 . S
Co98 O100 2.091 1_554 S
Co98 O102 2.004 1_554 S
Co98 O108 2.021 1_554 S
Co98 O110 2.137 . S
Co98 O111 2.244 . S
O99 Co98 2.216 . S
O99 C106 1.247 . S
O100 Co98 2.091 1_556 S
O100 C106 1.261 1_556 S
C101 O110 1.247 . S
C101 O111 1.272 . S
O102 Co98 2.004 1_556 S
O102 C107 1.259 . S
Co103 O104 2.050 1_554 S
Co103 O109 2.050 1_554 S
Co103 O111 2.144 . S
O104 Co103 2.050 1_556 S
O104 C107 1.235 . S
C105 O108 1.238 . S
C105 O109 1.241 . S
C106 O99 1.247 . S
C106 O100 1.261 1_554 S
C107 O102 1.259 . S
C107 O104 1.235 . S
O108 Co98 2.021 1_556 S
O108 C105 1.238 . S
O109 Co103 2.050 1_556 S
O109 C105 1.241 . S
O110 Co98 2.137 . S
O110 C101 1.247 . S
O111 Co98 2.244 . S
O111 C101 1.272 . S
O111 Co103 2.144 . S
Co112 O113 2.216 . S
Co112 O114 2.091 . S
Co112 O116 2.004 1_554 S
Co112 O122 2.021 1_554 S
Co112 O124 2.137 . S
Co112 O125 2.244 . S
O113 Co112 2.216 . S
O113 C120 1.247 . S
O114 Co112 2.091 . S
O114 C120 1.261 . S
C115 O124 1.247 . S
C115 O125 1.272 . S
O116 Co112 2.004 1_556 S
O116 C121 1.259 . S
Co117 O118 2.061 1_554 S
Co117 O123 2.052 . S
Co117 O125 2.135 . S
O118 Co117 2.061 1_556 S
O118 C121 1.235 . S
C119 O122 1.238 . S
C119 O123 1.241 1_556 S
C120 O113 1.247 . S
C120 O114 1.261 . S
C121 O116 1.259 . S
C121 O118 1.235 . S
O122 Co112 2.021 1_556 S
O122 C119 1.238 . S
O123 Co117 2.052 . S
O123 C119 1.241 1_554 S
O124 Co112 2.137 . S
O124 C115 1.247 . S
O125 Co112 2.244 . S
O125 C115 1.272 . S
O125 Co117 2.135 . S
Co126 O127 2.216 . S
Co126 O128 2.091 . S
Co126 O130 2.004 . S
Co126 O136 2.021 . S
Co126 O138 2.137 . S
Co126 O139 2.244 . S
O127 Co126 2.216 . S
O127 C134 1.247 . S
O128 Co126 2.091 . S
O128 C134 1.261 . S
C129 O138 1.247 . S
C129 O139 1.272 . S
O130 Co126 2.004 . S
O130 C135 1.259 . S
Co131 O132 2.061 . S
Co131 O137 2.052 . S
Co131 O139 2.135 . S
O132 Co131 2.061 . S
O132 C135 1.235 . S
C133 O136 1.238 . S
C133 O137 1.241 . S
C134 O127 1.247 . S
C134 O128 1.261 . S
C135 O130 1.259 . S
C135 O132 1.235 . S
O136 Co126 2.021 . S
O136 C133 1.238 . S
O137 Co131 2.052 . S
O137 C133 1.241 . S
O138 Co126 2.137 . S
O138 C129 1.247 . S
O139 Co126 2.244 . S
O139 C129 1.272 . S
O139 Co131 2.135 . S
Co140 O141 2.216 . S
Co140 O142 2.091 . S
Co140 O144 2.004 . S
Co140 O150 2.021 . S
Co140 O152 2.137 . S
Co140 O153 2.244 . S
O141 Co140 2.216 . S
O141 C148 1.247 . S
O142 Co140 2.091 . S
O142 C148 1.261 . S
C143 O152 1.247 . S
C143 O153 1.272 . S
O144 Co140 2.004 . S
O144 C149 1.259 . S
Co145 O146 2.061 . S
Co145 O151 2.052 . S
Co145 O153 2.135 . S
O146 Co145 2.061 . S
O146 C149 1.235 . S
C147 O150 1.238 . S
C147 O151 1.241 . S
C148 O141 1.247 . S
C148 O142 1.261 . S
C149 O144 1.259 . S
C149 O146 1.235 . S
O150 Co140 2.021 . S
O150 C147 1.238 . S
O151 Co145 2.052 . S
O151 C147 1.241 . S
O152 Co140 2.137 . S
O152 C143 1.247 . S
O153 Co140 2.244 . S
O153 C143 1.272 . S
O153 Co145 2.135 . S
Co154 O155 2.216 . S
Co154 O156 2.091 . S
Co154 O158 2.004 . S
Co154 O164 2.021 . S
Co154 O166 2.137 . S
Co154 O167 2.244 . S
O155 Co154 2.216 . S
O155 C162 1.247 . S
O156 Co154 2.091 . S
O156 C162 1.261 . S
C157 O166 1.247 . S
C157 O167 1.272 . S
O158 Co154 2.004 . S
O158 C163 1.259 . S
Co159 O160 2.061 . S
Co159 O165 2.052 . S
Co159 O167 2.135 . S
O160 Co159 2.061 . S
O160 C163 1.235 . S
C161 O164 1.238 . S
C161 O165 1.241 . S
C162 O155 1.247 . S
C162 O156 1.261 . S
C163 O158 1.259 . S
C163 O160 1.235 . S
O164 Co154 2.021 . S
O164 C161 1.238 . S
O165 Co159 2.052 . S
O165 C161 1.241 . S
O166 Co154 2.137 . S
O166 C157 1.247 . S
O167 Co154 2.244 . S
O167 C157 1.272 . S
O167 Co159 2.135 . S
H168 C174 0.930 . S
H169 C177 0.931 . S
H170 C179 0.931 . S
H171 C181 0.930 . S
H172 C183 0.930 . S
H173 C185 0.931 . S
C174 H168 0.930 . S
C174 C175 1.380 . S
C174 C176 1.394 . S
C175 C174 1.380 . S
C175 C179 1.382 . S
C176 C174 1.394 . S
C176 C177 1.400 . S
C177 H169 0.931 . S
C177 C176 1.400 . S
C177 C178 1.375 . S
C178 C177 1.375 . S
C178 C179 1.415 . S
C178 C180 1.501 1_655 S
C179 H170 0.931 . S
C179 C175 1.382 . S
C179 C178 1.415 . S
C180 C178 1.501 1_455 S
C180 C181 1.384 . S
C180 C185 1.408 . S
C181 H171 0.930 . S
C181 C180 1.384 . S
C181 C182 1.389 . S
C182 C181 1.389 . S
C182 C183 1.405 . S
C183 H172 0.930 . S
C183 C182 1.405 . S
C183 C184 1.364 . S
C184 C183 1.364 . S
C184 C185 1.400 . S
C185 H173 0.931 . S
C185 C180 1.408 . S
C185 C184 1.400 . S
H186 C192 0.930 . S
H187 C195 0.931 1_455 S
H188 C197 0.931 . S
H189 C199 0.930 . S
H190 C201 0.930 . S
H191 C203 0.931 . S
C192 H186 0.930 . S
C192 C193 1.380 . S
C192 C194 1.394 . S
C193 C192 1.380 . S
C193 C197 1.382 . S
C194 C192 1.394 . S
C194 C195 1.400 . S
C195 H187 0.931 1_655 S
C195 C194 1.400 . S
C195 C196 1.375 1_655 S
C196 C195 1.375 1_455 S
C196 C197 1.415 1_455 S
C196 C198 1.501 . S
C197 H188 0.931 . S
C197 C193 1.382 . S
C197 C196 1.415 1_655 S
C198 C196 1.501 . S
C198 C199 1.384 . S
C198 C203 1.408 . S
C199 H189 0.930 . S
C199 C198 1.384 . S
C199 C200 1.389 . S
C200 C199 1.389 . S
C200 C201 1.405 . S
C201 H190 0.930 . S
C201 C200 1.405 . S
C201 C202 1.364 . S
C202 C201 1.364 . S
C202 C203 1.400 . S
C203 H191 0.931 . S
C203 C198 1.408 . S
C203 C202 1.400 . S
H204 C210 0.930 . S
H205 C213 0.931 . S
H206 C215 0.931 . S
H207 C217 0.930 . S
H208 C219 0.930 . S
H209 C221 0.931 . S
C210 H204 0.930 . S
C210 C211 1.380 . S
C210 C212 1.394 . S
C211 C210 1.380 . S
C211 C215 1.382 . S
C212 C210 1.394 . S
C212 C213 1.400 . S
C213 H205 0.931 . S
C213 C212 1.400 . S
C213 C214 1.375 . S
C214 C213 1.375 . S
C214 C215 1.415 . S
C214 C216 1.501 . S
C215 H206 0.931 . S
C215 C211 1.382 . S
C215 C214 1.415 . S
C216 C214 1.501 . S
C216 C217 1.384 . S
C216 C221 1.408 . S
C217 H207 0.930 . S
C217 C216 1.384 . S
C217 C218 1.389 . S
C218 C217 1.389 . S
C218 C219 1.405 . S
C219 H208 0.930 . S
C219 C218 1.405 . S
C219 C220 1.364 . S
C220 C219 1.364 . S
C220 C221 1.400 . S
C221 H209 0.931 . S
C221 C216 1.408 . S
C221 C220 1.400 . S
H222 C228 0.930 . S
H223 C231 0.931 . S
H224 C233 0.931 . S
H225 C235 0.930 . S
H226 C237 0.930 . S
H227 C239 0.931 . S
C228 H222 0.930 . S
C228 C229 1.380 . S
C228 C230 1.394 . S
C229 C228 1.380 . S
C229 C233 1.382 . S
C230 C228 1.394 . S
C230 C231 1.400 . S
C231 H223 0.931 . S
C231 C230 1.400 . S
C231 C232 1.375 . S
C232 C231 1.375 . S
C232 C233 1.415 . S
C232 C234 1.501 . S
C233 H224 0.931 . S
C233 C229 1.382 . S
C233 C232 1.415 . S
C234 C232 1.501 . S
C234 C235 1.384 . S
C234 C239 1.408 . S
C235 H225 0.930 . S
C235 C234 1.384 . S
C235 C236 1.389 . S
C236 C235 1.389 . S
C236 C237 1.405 . S
C237 H226 0.930 . S
C237 C236 1.405 . S
C237 C238 1.364 . S
C238 C237 1.364 . S
C238 C239 1.400 . S
C239 H227 0.931 . S
C239 C234 1.408 . S
C239 C238 1.400 . S
H240 C246 0.930 . S
H241 C249 0.929 1_545 S
H242 C251 0.931 . S
H243 C253 0.930 . S
H244 C255 0.930 . S
H245 C257 0.931 . S
C246 H240 0.930 . S
C246 C247 1.380 . S
C246 C248 1.394 . S
C247 C246 1.380 . S
C247 C251 1.382 1_565 S
C248 C246 1.394 . S
C248 C249 1.406 . S
C249 H241 0.929 1_565 S
C249 C248 1.406 . S
C249 C250 1.371 1_565 S
C250 C249 1.371 1_545 S
C250 C251 1.415 . S
C250 C252 1.501 . S
C251 H242 0.931 . S
C251 C247 1.382 1_545 S
C251 C250 1.415 . S
C252 C250 1.501 . S
C252 C253 1.384 . S
C252 C257 1.408 . S
C253 H243 0.930 . S
C253 C252 1.384 . S
C253 C254 1.389 . S
C254 C253 1.389 . S
C254 C255 1.405 . S
C255 H244 0.930 . S
C255 C254 1.405 . S
C255 C256 1.364 . S
C256 C255 1.364 . S
C256 C257 1.400 . S
C257 H245 0.931 . S
C257 C252 1.408 . S
C257 C256 1.400 . S
H258 C264 0.930 . S
H259 C267 0.931 . S
H260 C269 0.931 . S
H261 C271 0.930 . S
H262 C273 0.930 . S
H263 C275 0.931 . S
C264 H258 0.930 . S
C264 C265 1.380 . S
C264 C266 1.394 . S
C265 C264 1.380 . S
C265 C269 1.382 . S
C266 C264 1.394 . S
C266 C267 1.400 . S
C267 H259 0.931 . S
C267 C266 1.400 . S
C267 C268 1.375 . S
C268 C267 1.375 . S
C268 C269 1.415 . S
C268 C270 1.501 . S
C269 H260 0.931 . S
C269 C265 1.382 . S
C269 C268 1.415 . S
C270 C268 1.501 . S
C270 C271 1.384 . S
C270 C275 1.408 . S
C271 H261 0.930 . S
C271 C270 1.384 . S
C271 C272 1.389 . S
C272 C271 1.389 . S
C272 C273 1.405 . S
C273 H262 0.930 . S
C273 C272 1.405 . S
C273 C274 1.364 . S
C274 C273 1.364 . S
C274 C275 1.400 . S
C275 H263 0.931 . S
C275 C270 1.408 . S
C275 C274 1.400 . S
H276 C282 0.930 . S
H277 C285 0.931 . S
H278 C287 0.931 . S
H279 C289 0.930 . S
H280 C291 0.930 . S
H281 C293 0.931 . S
C282 H276 0.930 . S
C282 C283 1.380 . S
C282 C284 1.394 . S
C283 C282 1.380 . S
C283 C287 1.382 . S
C284 C282 1.394 . S
C284 C285 1.400 . S
C285 H277 0.931 . S
C285 C284 1.400 . S
C285 C286 1.375 . S
C286 C285 1.375 . S
C286 C287 1.415 . S
C286 C288 1.501 1_545 S
C287 H278 0.931 . S
C287 C283 1.382 . S
C287 C286 1.415 . S
C288 C286 1.501 1_565 S
C288 C289 1.384 . S
C288 C293 1.408 . S
C289 H279 0.930 . S
C289 C288 1.384 . S
C289 C290 1.389 . S
C290 C289 1.389 . S
C290 C291 1.405 . S
C291 H280 0.930 . S
C291 C290 1.405 . S
C291 C292 1.364 . S
C292 C291 1.364 . S
C292 C293 1.400 . S
C293 H281 0.931 . S
C293 C288 1.408 . S
C293 C292 1.400 . S
H294 C300 0.930 . S
H295 C303 0.931 . S
H296 C305 0.931 . S
H297 C307 0.930 . S
H298 C309 0.930 . S
H299 C311 0.931 . S
C300 H294 0.930 . S
C300 C301 1.380 . S
C300 C302 1.394 . S
C301 C300 1.380 . S
C301 C305 1.382 1_556 S
C302 C300 1.394 . S
C302 C303 1.400 1_556 S
C303 H295 0.931 . S
C303 C302 1.400 1_554 S
C303 C304 1.375 . S
C304 C303 1.375 . S
C304 C305 1.415 . S
C304 C306 1.501 . S
C305 H296 0.931 . S
C305 C301 1.382 1_554 S
C305 C304 1.415 . S
C306 C304 1.501 . S
C306 C307 1.384 . S
C306 C311 1.408 . S
C307 H297 0.930 . S
C307 C306 1.384 . S
C307 C308 1.389 . S
C308 C307 1.389 . S
C308 C309 1.405 . S
C309 H298 0.930 . S
C309 C308 1.405 . S
C309 C310 1.364 . S
C310 C309 1.364 . S
C310 C311 1.400 . S
C311 H299 0.931 . S
C311 C306 1.408 . S
C311 C310 1.400 . S
H312 C318 0.930 . S
H313 C321 0.931 . S
H314 C323 0.931 1_554 S
H315 C325 0.930 . S
H316 C327 0.930 . S
H317 C329 0.931 . S
C318 H312 0.930 . S
C318 C319 1.380 . S
C318 C320 1.394 . S
C319 C318 1.380 . S
C319 C323 1.382 . S
C320 C318 1.394 . S
C320 C321 1.400 1_556 S
C321 H313 0.931 . S
C321 C320 1.400 1_554 S
C321 C322 1.375 . S
C322 C321 1.375 . S
C322 C323 1.415 1_554 S
C322 C324 1.501 . S
C323 H314 0.931 1_556 S
C323 C319 1.382 . S
C323 C322 1.415 1_556 S
C324 C322 1.501 . S
C324 C325 1.384 . S
C324 C329 1.408 . S
C325 H315 0.930 . S
C325 C324 1.384 . S
C325 C326 1.389 . S
C326 C325 1.389 . S
C326 C327 1.405 . S
C327 H316 0.930 . S
C327 C326 1.405 . S
C327 C328 1.364 . S
C328 C327 1.364 . S
C328 C329 1.400 . S
C329 H317 0.931 . S
C329 C324 1.408 . S
C329 C328 1.400 . S
H330 C336 0.930 . S
H331 C339 0.931 . S
H332 C341 0.931 . S
H333 C343 0.930 . S
H334 C345 0.930 . S
H335 C347 0.931 . S
C336 H330 0.930 . S
C336 C337 1.380 . S
C336 C338 1.394 . S
C337 C336 1.380 . S
C337 C341 1.382 . S
C338 C336 1.394 . S
C338 C339 1.400 . S
C339 H331 0.931 . S
C339 C338 1.400 . S
C339 C340 1.375 . S
C340 C339 1.375 . S
C340 C341 1.415 . S
C340 C342 1.501 . S
C341 H332 0.931 . S
C341 C337 1.382 . S
C341 C340 1.415 . S
C342 C340 1.501 . S
C342 C343 1.384 . S
C342 C347 1.408 . S
C343 H333 0.930 . S
C343 C342 1.384 . S
C343 C344 1.389 . S
C344 C343 1.389 . S
C344 C345 1.405 . S
C345 H334 0.930 . S
C345 C344 1.405 . S
C345 C346 1.364 . S
C346 C345 1.364 . S
C346 C347 1.400 . S
C347 H335 0.931 . S
C347 C342 1.408 . S
C347 C346 1.400 . S
H348 C354 0.930 . S
H349 C357 0.931 . S
H350 C359 0.931 . S
H351 C361 0.930 . S
H352 C363 0.930 . S
H353 C365 0.931 . S
C354 H348 0.930 . S
C354 C355 1.380 . S
C354 C356 1.394 . S
C355 C354 1.380 . S
C355 C359 1.382 . S
C356 C354 1.394 . S
C356 C357 1.400 . S
C357 H349 0.931 . S
C357 C356 1.400 . S
C357 C358 1.375 . S
C358 C357 1.375 . S
C358 C359 1.415 . S
C358 C360 1.501 . S
C359 H350 0.931 . S
C359 C355 1.382 . S
C359 C358 1.415 . S
C360 C358 1.501 . S
C360 C361 1.384 . S
C360 C365 1.408 . S
C361 H351 0.930 . S
C361 C360 1.384 . S
C361 C362 1.389 . S
C362 C361 1.389 . S
C362 C363 1.405 . S
C363 H352 0.930 . S
C363 C362 1.405 . S
C363 C364 1.364 . S
C364 C363 1.364 . S
C364 C365 1.400 . S
C365 H353 0.931 . S
C365 C360 1.408 . S
C365 C364 1.400 . S
H366 C372 0.930 . S
H367 C375 0.931 . S
H368 C377 0.931 . S
H369 C379 0.930 . S
H370 C381 0.930 . S
H371 C383 0.931 . S
C372 H366 0.930 . S
C372 C373 1.380 . S
C372 C374 1.394 . S
C373 C372 1.380 . S
C373 C377 1.382 . S
C374 C372 1.394 . S
C374 C375 1.400 . S
C375 H367 0.931 . S
C375 C374 1.400 . S
C375 C376 1.375 . S
C376 C375 1.375 . S
C376 C377 1.415 . S
C376 C378 1.501 . S
C377 H368 0.931 . S
C377 C373 1.382 . S
C377 C376 1.415 . S
C378 C376 1.501 . S
C378 C379 1.384 . S
C378 C383 1.408 . S
C379 H369 0.930 . S
C379 C378 1.384 . S
C379 C380 1.389 . S
C380 C379 1.389 . S
C380 C381 1.405 . S
C381 H370 0.930 . S
C381 C380 1.405 . S
C381 C382 1.364 . S
C382 C381 1.364 . S
C382 C383 1.400 . S
C383 H371 0.931 . S
C383 C378 1.408 . S
C383 C382 1.400 . S
H384 C392 0.929 . S
H385 C394 0.930 . S
H386 C396 0.930 1_556 S
H387 C399 0.929 . S
H388 C402 0.930 1_554 S
H389 C404 0.960 . S
H390 C404 0.960 . S
H391 C404 0.960 . S
C392 H384 0.929 . S
C392 C393 1.377 . S
C392 C394 1.384 . S
C393 C392 1.377 . S
C393 C399 1.390 . S
C394 H385 0.930 . S
C394 C392 1.384 . S
C394 C395 1.372 . S
C395 C394 1.372 . S
C395 C396 1.400 . S
C395 C400 1.490 1_554 S
C396 H386 0.930 1_554 S
C396 C395 1.400 . S
C396 C399 1.386 . S
H397 C413 0.930 . S
H398 C414 0.931 . S
C399 H387 0.929 . S
C399 C393 1.390 . S
C399 C396 1.386 . S
C400 C395 1.490 1_556 S
C400 C402 1.395 . S
C400 C403 1.403 . S
H401 C407 0.930 . S
C402 H388 0.930 1_556 S
C402 C400 1.395 . S
C402 C405 1.403 . S
C403 C400 1.403 . S
C403 C404 1.524 . S
C403 C407 1.400 . S
C404 H389 0.960 . S
C404 H390 0.960 . S
C404 H391 0.960 . S
C404 C403 1.524 . S
C405 C402 1.403 . S
C405 C406 1.392 . S
C405 C409 1.495 . S
C406 C405 1.392 . S
C406 C407 1.385 . S
C406 C408 1.478 . S
C407 H401 0.930 . S
C407 C403 1.400 . S
C407 C406 1.385 . S
C408 C406 1.478 . S
C408 C410 1.381 . S
C408 C414 1.383 . S
C409 C405 1.495 . S
C409 H415 0.959 . S
C409 H416 0.961 . S
C409 H417 0.960 . S
C410 C408 1.381 . S
C410 C411 1.394 . S
C410 H418 0.930 . S
C411 C410 1.394 . S
C411 C412 1.383 . S
C411 H419 0.929 . S
C412 C411 1.383 . S
C412 C413 1.377 . S
C413 H397 0.930 . S
C413 C412 1.377 . S
C413 C414 1.379 . S
C414 H398 0.931 . S
C414 C408 1.383 . S
C414 C413 1.379 . S
H415 C409 0.959 . S
H416 C409 0.961 . S
H417 C409 0.960 . S
H418 C410 0.930 . S
H419 C411 0.929 . S
H420 C428 0.929 . S
H421 C430 0.930 . S
H422 C432 0.930 . S
H423 C435 0.929 . S
H424 C438 0.930 . S
H425 C440 0.960 . S
H426 C440 0.960 . S
H427 C440 0.960 . S
C428 H420 0.929 . S
C428 C429 1.377 . S
C428 C430 1.384 . S
C429 C428 1.377 . S
C429 C435 1.390 . S
C430 H421 0.930 . S
C430 C428 1.384 . S
C430 C431 1.372 . S
C431 C430 1.372 . S
C431 C432 1.400 . S
C431 C436 1.490 . S
C432 H422 0.930 . S
C432 C431 1.400 . S
C432 C435 1.386 . S
H433 C449 0.930 . S
H434 C450 0.931 . S
C435 H423 0.929 . S
C435 C429 1.390 . S
C435 C432 1.386 . S
C436 C431 1.490 . S
C436 C438 1.395 . S
C436 C439 1.403 . S
H437 C443 0.930 . S
C438 H424 0.930 . S
C438 C436 1.395 . S
C438 C441 1.403 . S
C439 C436 1.403 . S
C439 C440 1.524 . S
C439 C443 1.400 . S
C440 H425 0.960 . S
C440 H426 0.960 . S
C440 H427 0.960 . S
C440 C439 1.524 . S
C441 C438 1.403 . S
C441 C442 1.392 . S
C441 C445 1.495 . S
C442 C441 1.392 . S
C442 C443 1.385 . S
C442 C444 1.478 . S
C443 H437 0.930 . S
C443 C439 1.400 . S
C443 C442 1.385 . S
C444 C442 1.478 . S
C444 C446 1.381 . S
C444 C450 1.383 . S
C445 C441 1.495 . S
C445 H451 0.959 . S
C445 H452 0.961 . S
C445 H453 0.960 . S
C446 C444 1.381 . S
C446 C447 1.394 . S
C446 H454 0.930 . S
C447 C446 1.394 . S
C447 C448 1.383 . S
C447 H455 0.929 . S
C448 C447 1.383 . S
C448 C449 1.377 . S
C449 H433 0.930 . S
C449 C448 1.377 . S
C449 C450 1.379 . S
C450 H434 0.931 . S
C450 C444 1.383 . S
C450 C449 1.379 . S
H451 C445 0.959 . S
H452 C445 0.961 . S
H453 C445 0.960 . S
H454 C446 0.930 . S
H455 C447 0.929 . S
H456 C464 0.929 . S
H457 C466 0.930 . S
H458 C468 0.930 . S
H459 C471 0.929 . S
H460 C474 0.930 . S
H461 C476 0.960 . S
H462 C476 0.960 . S
H463 C476 0.960 . S
C464 H456 0.929 . S
C464 C465 1.377 . S
C464 C466 1.384 . S
C465 C464 1.377 . S
C465 C471 1.390 . S
C466 H457 0.930 . S
C466 C464 1.384 . S
C466 C467 1.372 . S
C467 C466 1.372 . S
C467 C468 1.400 . S
C467 C472 1.490 . S
C468 H458 0.930 . S
C468 C467 1.400 . S
C468 C471 1.386 . S
H469 C485 0.930 . S
H470 C486 0.931 . S
C471 H459 0.929 . S
C471 C465 1.390 . S
C471 C468 1.386 . S
C472 C467 1.490 . S
C472 C474 1.395 . S
C472 C475 1.403 . S
H473 C479 0.930 . S
C474 H460 0.930 . S
C474 C472 1.395 . S
C474 C477 1.403 . S
C475 C472 1.403 . S
C475 C476 1.524 . S
C475 C479 1.400 . S
C476 H461 0.960 . S
C476 H462 0.960 . S
C476 H463 0.960 . S
C476 C475 1.524 . S
C477 C474 1.403 . S
C477 C478 1.392 . S
C477 C481 1.495 . S
C478 C477 1.392 . S
C478 C479 1.385 . S
C478 C480 1.478 . S
C479 H473 0.930 . S
C479 C475 1.400 . S
C479 C478 1.385 . S
C480 C478 1.478 . S
C480 C482 1.381 . S
C480 C486 1.383 . S
C481 C477 1.495 . S
C481 H487 0.959 . S
C481 H488 0.961 . S
C481 H489 0.960 . S
C482 C480 1.381 . S
C482 C483 1.394 . S
C482 H490 0.930 . S
C483 C482 1.394 . S
C483 C484 1.383 . S
C483 H491 0.929 . S
C484 C483 1.383 . S
C484 C485 1.377 . S
C485 H469 0.930 . S
C485 C484 1.377 . S
C485 C486 1.379 . S
C486 H470 0.931 . S
C486 C480 1.383 . S
C486 C485 1.379 . S
H487 C481 0.959 . S
H488 C481 0.961 . S
H489 C481 0.960 . S
H490 C482 0.930 . S
H491 C483 0.929 . S
H492 C500 0.929 . S
H493 C502 0.930 . S
H494 C504 0.930 . S
H495 C507 0.929 . S
H496 C510 0.930 . S
H497 C512 0.960 . S
H498 C512 0.960 . S
H499 C512 0.960 . S
C500 H492 0.929 . S
C500 C501 1.377 . S
C500 C502 1.384 . S
C501 C500 1.377 . S
C501 C507 1.390 . S
C502 H493 0.930 . S
C502 C500 1.384 . S
C502 C503 1.372 . S
C503 C502 1.372 . S
C503 C504 1.400 . S
C503 C508 1.490 . S
C504 H494 0.930 . S
C504 C503 1.400 . S
C504 C507 1.386 . S
H505 C521 0.930 . S
H506 C522 0.931 . S
C507 H495 0.929 . S
C507 C501 1.390 . S
C507 C504 1.386 . S
C508 C503 1.490 . S
C508 C510 1.395 . S
C508 C511 1.403 . S
H509 C515 0.930 . S
C510 H496 0.930 . S
C510 C508 1.395 . S
C510 C513 1.403 . S
C511 C508 1.403 . S
C511 C512 1.524 . S
C511 C515 1.400 . S
C512 H497 0.960 . S
C512 H498 0.960 . S
C512 H499 0.960 . S
C512 C511 1.524 . S
C513 C510 1.403 . S
C513 C514 1.392 . S
C513 C517 1.495 . S
C514 C513 1.392 . S
C514 C515 1.385 . S
C514 C516 1.478 . S
C515 H509 0.930 . S
C515 C511 1.400 . S
C515 C514 1.385 . S
C516 C514 1.478 . S
C516 C518 1.381 . S
C516 C522 1.383 . S
C517 C513 1.495 . S
C517 H523 0.959 . S
C517 H524 0.961 . S
C517 H525 0.960 . S
C518 C516 1.381 . S
C518 C519 1.394 . S
C518 H526 0.930 . S
C519 C518 1.394 . S
C519 C520 1.383 . S
C519 H527 0.929 . S
C520 C519 1.383 . S
C520 C521 1.377 . S
C521 H505 0.930 . S
C521 C520 1.377 . S
C521 C522 1.379 . S
C522 H506 0.931 . S
C522 C516 1.383 . S
C522 C521 1.379 . S
H523 C517 0.959 . S
H524 C517 0.961 . S
H525 C517 0.960 . S
H526 C518 0.930 . S
H527 C519 0.929 . S
H528 C536 0.929 . S
H529 C538 0.930 . S
H530 C540 0.930 . S
H531 C543 0.929 . S
H532 C546 0.930 . S
H533 C548 0.960 . S
H534 C548 0.960 . S
H535 C548 0.960 . S
C536 H528 0.929 . S
C536 C537 1.377 . S
C536 C538 1.384 . S
C537 C536 1.377 . S
C537 C543 1.390 . S
C538 H529 0.930 . S
C538 C536 1.384 . S
C538 C539 1.372 . S
C539 C538 1.372 . S
C539 C540 1.400 . S
C539 C544 1.490 . S
C540 H530 0.930 . S
C540 C539 1.400 . S
C540 C543 1.386 . S
H541 C557 0.930 . S
H542 C558 0.931 . S
C543 H531 0.929 . S
C543 C537 1.390 . S
C543 C540 1.386 . S
C544 C539 1.490 . S
C544 C546 1.395 . S
C544 C547 1.403 . S
H545 C551 0.930 . S
C546 H532 0.930 . S
C546 C544 1.395 . S
C546 C549 1.403 . S
C547 C544 1.403 . S
C547 C548 1.524 . S
C547 C551 1.400 . S
C548 H533 0.960 . S
C548 H534 0.960 . S
C548 H535 0.960 . S
C548 C547 1.524 . S
C549 C546 1.403 . S
C549 C550 1.392 . S
C549 C553 1.495 . S
C550 C549 1.392 . S
C550 C551 1.385 . S
C550 C552 1.478 . S
C551 H545 0.930 . S
C551 C547 1.400 . S
C551 C550 1.385 . S
C552 C550 1.478 . S
C552 C554 1.381 . S
C552 C558 1.383 . S
C553 C549 1.495 . S
C553 H559 0.959 . S
C553 H560 0.961 . S
C553 H561 0.960 . S
C554 C552 1.381 . S
C554 C555 1.394 . S
C554 H562 0.930 . S
C555 C554 1.394 . S
C555 C556 1.383 . S
C555 H563 0.929 . S
C556 C555 1.383 . S
C556 C557 1.377 . S
C557 H541 0.930 . S
C557 C556 1.377 . S
C557 C558 1.379 . S
C558 H542 0.931 . S
C558 C552 1.383 . S
C558 C557 1.379 . S
H559 C553 0.959 . S
H560 C553 0.961 . S
H561 C553 0.960 . S
H562 C554 0.930 . S
H563 C555 0.929 . S
H564 C572 0.929 . S
H565 C574 0.930 . S
H566 C576 0.930 . S
H567 C579 0.929 . S
H568 C582 0.930 . S
H569 C584 0.960 . S
H570 C584 0.960 . S
H571 C584 0.960 . S
C572 H564 0.929 . S
C572 C573 1.377 . S
C572 C574 1.384 . S
C573 C572 1.377 . S
C573 C579 1.390 . S
C574 H565 0.930 . S
C574 C572 1.384 . S
C574 C575 1.372 . S
C575 C574 1.372 . S
C575 C576 1.400 . S
C575 C580 1.490 . S
C576 H566 0.930 . S
C576 C575 1.400 . S
C576 C579 1.386 . S
H577 C593 0.930 . S
H578 C594 0.931 . S
C579 H567 0.929 . S
C579 C573 1.390 . S
C579 C576 1.386 . S
C580 C575 1.490 . S
C580 C582 1.395 . S
C580 C583 1.403 . S
H581 C587 0.930 . S
C582 H568 0.930 . S
C582 C580 1.395 . S
C582 C585 1.403 . S
C583 C580 1.403 . S
C583 C584 1.524 . S
C583 C587 1.400 . S
C584 H569 0.960 . S
C584 H570 0.960 . S
C584 H571 0.960 . S
C584 C583 1.524 . S
C585 C582 1.403 . S
C585 C586 1.392 . S
C585 C589 1.495 . S
C586 C585 1.392 . S
C586 C587 1.385 . S
C586 C588 1.478 . S
C587 H581 0.930 . S
C587 C583 1.400 . S
C587 C586 1.385 . S
C588 C586 1.478 . S
C588 C590 1.381 . S
C588 C594 1.383 . S
C589 C585 1.495 . S
C589 H595 0.959 . S
C589 H596 0.961 . S
C589 H597 0.960 . S
C590 C588 1.381 . S
C590 C591 1.394 . S
C590 H598 0.930 . S
C591 C590 1.394 . S
C591 C592 1.383 . S
C591 H599 0.929 . S
C592 C591 1.383 . S
C592 C593 1.377 . S
C593 H577 0.930 . S
C593 C592 1.377 . S
C593 C594 1.379 . S
C594 H578 0.931 . S
C594 C588 1.383 . S
C594 C593 1.379 . S
H595 C589 0.959 . S
H596 C589 0.961 . S
H597 C589 0.960 . S
H598 C590 0.930 . S
H599 C591 0.929 . S
H600 C608 0.929 . S
H601 C610 0.928 1_556 S
H602 C612 0.930 . S
H603 C615 0.929 . S
H604 C618 0.930 . S
H605 C620 0.960 . S
H606 C620 0.960 . S
H607 C620 0.960 . S
C608 H600 0.929 . S
C608 C609 1.377 . S
C608 C610 1.384 1_556 S
C609 C608 1.377 . S
C609 C615 1.390 1_556 S
C610 H601 0.928 1_554 S
C610 C608 1.384 1_554 S
C610 C611 1.372 . S
C611 C610 1.372 . S
C611 C612 1.400 . S
C611 C616 1.490 . S
C612 H602 0.930 . S
C612 C611 1.400 . S
C612 C615 1.386 . S
H613 C629 0.930 . S
H614 C630 0.931 . S
C615 H603 0.929 . S
C615 C609 1.390 1_554 S
C615 C612 1.386 . S
C616 C611 1.490 . S
C616 C618 1.395 . S
C616 C619 1.403 . S
H617 C623 0.930 . S
C618 H604 0.930 . S
C618 C616 1.395 . S
C618 C621 1.403 . S
C619 C616 1.403 . S
C619 C620 1.524 . S
C619 C623 1.400 . S
C620 H605 0.960 . S
C620 H606 0.960 . S
C620 H607 0.960 . S
C620 C619 1.524 . S
C621 C618 1.403 . S
C621 C622 1.392 . S
C621 C625 1.495 . S
C622 C621 1.392 . S
C622 C623 1.385 . S
C622 C624 1.478 . S
C623 H617 0.930 . S
C623 C619 1.400 . S
C623 C622 1.385 . S
C624 C622 1.478 . S
C624 C626 1.381 . S
C624 C630 1.383 . S
C625 C621 1.495 . S
C625 H631 0.959 . S
C625 H632 0.961 . S
C625 H633 0.960 . S
C626 C624 1.381 . S
C626 C627 1.394 . S
C626 H634 0.930 . S
C627 C626 1.394 . S
C627 C628 1.383 . S
C627 H635 0.929 . S
C628 C627 1.383 . S
C628 C629 1.377 . S
C629 H613 0.930 . S
C629 C628 1.377 . S
C629 C630 1.379 . S
C630 H614 0.931 . S
C630 C624 1.383 . S
C630 C629 1.379 . S
H631 C625 0.959 . S
H632 C625 0.961 . S
H633 C625 0.960 . S
H634 C626 0.930 . S
H635 C627 0.929 . S
H636 C644 0.929 . S
H637 C646 0.930 . S
H638 C648 0.930 . S
H639 C651 0.929 . S
H640 C654 0.930 . S
H641 C656 0.960 . S
H642 C656 0.960 . S
H643 C656 0.960 . S
C644 H636 0.929 . S
C644 C645 1.377 . S
C644 C646 1.384 . S
C645 C644 1.377 . S
C645 C651 1.390 . S
C646 H637 0.930 . S
C646 C644 1.384 . S
C646 C647 1.372 . S
C647 C646 1.372 . S
C647 C648 1.400 . S
C647 C652 1.490 . S
C648 H638 0.930 . S
C648 C647 1.400 . S
C648 C651 1.386 . S
H649 C665 0.930 . S
H650 C666 0.931 . S
C651 H639 0.929 . S
C651 C645 1.390 . S
C651 C648 1.386 . S
C652 C647 1.490 . S
C652 C654 1.395 . S
C652 C655 1.403 . S
H653 C659 0.930 . S
C654 H640 0.930 . S
C654 C652 1.395 . S
C654 C657 1.403 . S
C655 C652 1.403 . S
C655 C656 1.524 . S
C655 C659 1.400 . S
C656 H641 0.960 . S
C656 H642 0.960 . S
C656 H643 0.960 . S
C656 C655 1.524 . S
C657 C654 1.403 . S
C657 C658 1.392 . S
C657 C661 1.495 . S
C658 C657 1.392 . S
C658 C659 1.385 . S
C658 C660 1.478 . S
C659 H653 0.930 . S
C659 C655 1.400 . S
C659 C658 1.385 . S
C660 C658 1.478 . S
C660 C662 1.381 . S
C660 C666 1.383 . S
C661 C657 1.495 . S
C661 H667 0.959 . S
C661 H668 0.961 . S
C661 H669 0.960 . S
C662 C660 1.381 . S
C662 C663 1.394 . S
C662 H670 0.930 . S
C663 C662 1.394 . S
C663 C664 1.383 . S
C663 H671 0.929 . S
C664 C663 1.383 . S
C664 C665 1.377 . S
C665 H649 0.930 . S
C665 C664 1.377 . S
C665 C666 1.379 . S
C666 H650 0.931 . S
C666 C660 1.383 . S
C666 C665 1.379 . S
H667 C661 0.959 . S
H668 C661 0.961 . S
H669 C661 0.960 . S
H670 C662 0.930 . S
H671 C663 0.929 . S
H672 C680 0.929 . S
H673 C682 0.930 . S
H674 C684 0.930 1_655 S
H675 C687 0.929 . S
H676 C690 0.930 . S
H677 C692 0.960 . S
H678 C692 0.960 . S
H679 C692 0.960 . S
C680 H672 0.929 . S
C680 C681 1.377 . S
C680 C682 1.384 . S
C681 C680 1.377 . S
C681 C687 1.390 . S
C682 H673 0.930 . S
C682 C680 1.384 . S
C682 C683 1.372 . S
C683 C682 1.372 . S
C683 C684 1.400 . S
C683 C688 1.490 1_455 S
C684 H674 0.930 1_455 S
C684 C683 1.400 . S
C684 C687 1.386 . S
H685 C701 0.930 . S
H686 C702 0.931 . S
C687 H675 0.929 . S
C687 C681 1.390 . S
C687 C684 1.386 . S
C688 C683 1.490 1_655 S
C688 C690 1.395 . S
C688 C691 1.403 . S
H689 C695 0.930 . S
C690 H676 0.930 . S
C690 C688 1.395 . S
C690 C693 1.403 . S
C691 C688 1.403 . S
C691 C692 1.524 . S
C691 C695 1.400 . S
C692 H677 0.960 . S
C692 H678 0.960 . S
C692 H679 0.960 . S
C692 C691 1.524 . S
C693 C690 1.403 . S
C693 C694 1.392 . S
C693 C697 1.495 . S
C694 C693 1.392 . S
C694 C695 1.385 . S
C694 C696 1.478 . S
C695 H689 0.930 . S
C695 C691 1.400 . S
C695 C694 1.385 . S
C696 C694 1.478 . S
C696 C698 1.381 . S
C696 C702 1.383 . S
C697 C693 1.495 . S
C697 H703 0.959 . S
C697 H704 0.961 . S
C697 H705 0.960 . S
C698 C696 1.381 . S
C698 C699 1.394 . S
C698 H706 0.930 . S
C699 C698 1.394 . S
C699 C700 1.383 . S
C699 H707 0.929 . S
C700 C699 1.383 . S
C700 C701 1.377 . S
C701 H685 0.930 . S
C701 C700 1.377 . S
C701 C702 1.379 . S
C702 H686 0.931 . S
C702 C696 1.383 . S
C702 C701 1.379 . S
H703 C697 0.959 . S
H704 C697 0.961 . S
H705 C697 0.960 . S
H706 C698 0.930 . S
H707 C699 0.929 . S
H708 C716 0.929 . S
H709 C718 0.930 . S
H710 C720 0.930 . S
H711 C723 0.929 . S
H712 C726 0.930 . S
H713 C728 0.960 . S
H714 C728 0.960 . S
H715 C728 0.960 . S
C716 H708 0.929 . S
C716 C717 1.377 . S
C716 C718 1.384 . S
C717 C716 1.377 . S
C717 C723 1.390 . S
C718 H709 0.930 . S
C718 C716 1.384 . S
C718 C719 1.372 . S
C719 C718 1.372 . S
C719 C720 1.400 . S
C719 C724 1.490 . S
C720 H710 0.930 . S
C720 C719 1.400 . S
C720 C723 1.386 . S
H721 C737 0.930 . S
H722 C738 0.931 . S
C723 H711 0.929 . S
C723 C717 1.390 . S
C723 C720 1.386 . S
C724 C719 1.490 . S
C724 C726 1.395 . S
C724 C727 1.403 . S
H725 C731 0.930 . S
C726 H712 0.930 . S
C726 C724 1.395 . S
C726 C729 1.403 . S
C727 C724 1.403 . S
C727 C728 1.524 . S
C727 C731 1.400 . S
C728 H713 0.960 . S
C728 H714 0.960 . S
C728 H715 0.960 . S
C728 C727 1.524 . S
C729 C726 1.403 . S
C729 C730 1.392 . S
C729 C733 1.495 . S
C730 C729 1.392 . S
C730 C731 1.385 . S
C730 C732 1.478 . S
C731 H725 0.930 . S
C731 C727 1.400 . S
C731 C730 1.385 . S
C732 C730 1.478 . S
C732 C734 1.381 . S
C732 C738 1.383 . S
C733 C729 1.495 . S
C733 H739 0.959 . S
C733 H740 0.961 . S
C733 H741 0.960 . S
C734 C732 1.381 . S
C734 C735 1.394 . S
C734 H742 0.930 . S
C735 C734 1.394 . S
C735 C736 1.383 . S
C735 H743 0.929 . S
C736 C735 1.383 . S
C736 C737 1.377 . S
C737 H721 0.930 . S
C737 C736 1.377 . S
C737 C738 1.379 . S
C738 H722 0.931 . S
C738 C732 1.383 . S
C738 C737 1.379 . S
H739 C733 0.959 . S
H740 C733 0.961 . S
H741 C733 0.960 . S
H742 C734 0.930 . S
H743 C735 0.929 . S
H744 C752 0.929 . S
H745 C754 0.930 . S
H746 C756 0.931 . S
H747 C759 0.929 . S
H748 C762 0.930 . S
H749 C764 0.960 . S
H750 C764 0.960 . S
H751 C764 0.960 . S
C752 H744 0.929 . S
C752 C753 1.377 1_565 S
C752 C754 1.384 . S
C753 C752 1.377 1_545 S
C753 C759 1.390 . S
C754 H745 0.930 . S
C754 C752 1.384 . S
C754 C755 1.372 . S
C755 C754 1.372 . S
C755 C756 1.400 . S
C755 C760 1.490 . S
C756 H746 0.931 . S
C756 C755 1.400 . S
C756 C759 1.386 1_565 S
H757 C773 0.930 1_554 S
H758 C774 0.931 . S
C759 H747 0.929 . S
C759 C753 1.390 . S
C759 C756 1.386 1_545 S
C760 C755 1.490 . S
C760 C762 1.395 . S
C760 C763 1.403 . S
H761 C767 0.930 . S
C762 H748 0.930 . S
C762 C760 1.395 . S
C762 C765 1.403 . S
C763 C760 1.403 . S
C763 C764 1.524 . S
C763 C767 1.400 . S
C764 H749 0.960 . S
C764 H750 0.960 . S
C764 H751 0.960 . S
C764 C763 1.524 . S
C765 C762 1.403 . S
C765 C766 1.392 . S
C765 C769 1.495 . S
C766 C765 1.392 . S
C766 C767 1.385 . S
C766 C768 1.478 . S
C767 H761 0.930 . S
C767 C763 1.400 . S
C767 C766 1.385 . S
C768 C766 1.478 . S
C768 C770 1.381 . S
C768 C774 1.383 . S
C769 C765 1.495 . S
C769 H775 0.959 . S
C769 H776 0.961 . S
C769 H777 0.960 . S
C770 C768 1.381 . S
C770 C771 1.394 . S
C770 H778 0.930 . S
C771 C770 1.394 . S
C771 C772 1.383 . S
C771 H779 0.929 . S
C772 C771 1.383 . S
C772 C773 1.377 . S
C773 H757 0.930 1_556 S
C773 C772 1.377 . S
C773 C774 1.379 . S
C774 H758 0.931 . S
C774 C768 1.383 . S
C774 C773 1.379 . S
H775 C769 0.959 . S
H776 C769 0.961 . S
H777 C769 0.960 . S
H778 C770 0.930 . S
H779 C771 0.929 . S
H780 C788 0.929 . S
H781 C790 0.930 . S
H782 C792 0.930 . S
H783 C795 0.929 . S
H784 C798 0.930 . S
H785 C800 0.960 . S
H786 C800 0.960 . S
H787 C800 0.960 . S
C788 H780 0.929 . S
C788 C789 1.377 . S
C788 C790 1.384 . S
C789 C788 1.377 . S
C789 C795 1.390 . S
C790 H781 0.930 . S
C790 C788 1.384 . S
C790 C791 1.372 . S
C791 C790 1.372 . S
C791 C792 1.400 . S
C791 C796 1.490 . S
C792 H782 0.930 . S
C792 C791 1.400 . S
C792 C795 1.386 . S
H793 C809 0.930 . S
H794 C810 0.931 . S
C795 H783 0.929 . S
C795 C789 1.390 . S
C795 C792 1.386 . S
C796 C791 1.490 . S
C796 C798 1.395 . S
C796 C799 1.403 . S
H797 C803 0.930 . S
C798 H784 0.930 . S
C798 C796 1.395 . S
C798 C801 1.403 . S
C799 C796 1.403 . S
C799 C800 1.524 . S
C799 C803 1.400 . S
C800 H785 0.960 . S
C800 H786 0.960 . S
C800 H787 0.960 . S
C800 C799 1.524 . S
C801 C798 1.403 . S
C801 C802 1.392 . S
C801 C805 1.495 . S
C802 C801 1.392 . S
C802 C803 1.385 . S
C802 C804 1.478 . S
C803 H797 0.930 . S
C803 C799 1.400 . S
C803 C802 1.385 . S
C804 C802 1.478 . S
C804 C806 1.381 . S
C804 C810 1.383 . S
C805 C801 1.495 . S
C805 H811 0.959 . S
C805 H812 0.961 . S
C805 H813 0.960 . S
C806 C804 1.381 . S
C806 C807 1.394 . S
C806 H814 0.930 . S
C807 C806 1.394 . S
C807 C808 1.383 . S
C807 H815 0.929 . S
C808 C807 1.383 . S
C808 C809 1.377 . S
C809 H793 0.930 . S
C809 C808 1.377 . S
C809 C810 1.379 . S
C810 H794 0.931 . S
C810 C804 1.383 . S
C810 C809 1.379 . S
H811 C805 0.959 . S
H812 C805 0.961 . S
H813 C805 0.960 . S
H814 C806 0.930 . S
H815 C807 0.929 . S
H816 C824 0.929 . S
H817 C826 0.930 . S
H818 C828 0.930 1_655 S
H819 C831 0.929 . S
H820 C834 0.930 1_455 S
H821 C836 0.960 . S
H822 C836 0.960 . S
H823 C836 0.960 . S
C824 H816 0.929 . S
C824 C825 1.377 . S
C824 C826 1.384 . S
C825 C824 1.377 . S
C825 C831 1.390 . S
C826 H817 0.930 . S
C826 C824 1.384 . S
C826 C827 1.372 . S
C827 C826 1.372 . S
C827 C828 1.400 . S
C827 C832 1.490 1_455 S
C828 H818 0.930 1_455 S
C828 C827 1.400 . S
C828 C831 1.386 . S
H829 C845 0.930 . S
H830 C846 0.931 . S
C831 H819 0.929 . S
C831 C825 1.390 . S
C831 C828 1.386 . S
C832 C827 1.490 1_655 S
C832 C834 1.395 . S
C832 C835 1.403 . S
H833 C839 0.930 . S
C834 H820 0.930 1_655 S
C834 C832 1.395 . S
C834 C837 1.403 . S
C835 C832 1.403 . S
C835 C836 1.524 . S
C835 C839 1.400 . S
C836 H821 0.960 . S
C836 H822 0.960 . S
C836 H823 0.960 . S
C836 C835 1.524 . S
C837 C834 1.403 . S
C837 C838 1.392 . S
C837 C841 1.495 . S
C838 C837 1.392 . S
C838 C839 1.385 . S
C838 C840 1.478 . S
C839 H833 0.930 . S
C839 C835 1.400 . S
C839 C838 1.385 . S
C840 C838 1.478 . S
C840 C842 1.381 . S
C840 C846 1.383 . S
C841 C837 1.495 . S
C841 H847 0.959 . S
C841 H848 0.961 . S
C841 H849 0.960 . S
C842 C840 1.381 . S
C842 C843 1.394 . S
C842 H850 0.930 . S
C843 C842 1.394 . S
C843 C844 1.383 . S
C843 H851 0.929 . S
C844 C843 1.383 . S
C844 C845 1.377 . S
C845 H829 0.930 . S
C845 C844 1.377 . S
C845 C846 1.379 . S
C846 H830 0.931 . S
C846 C840 1.383 . S
C846 C845 1.379 . S
H847 C841 0.959 . S
H848 C841 0.961 . S
H849 C841 0.960 . S
H850 C842 0.930 . S
H851 C843 0.929 . S
H852 C860 0.929 . S
H853 C862 0.930 . S
H854 C864 0.930 . S
H855 C867 0.929 . S
H856 C870 0.930 . S
H857 C872 0.960 . S
H858 C872 0.960 . S
H859 C872 0.960 . S
C860 H852 0.929 . S
C860 C861 1.377 . S
C860 C862 1.384 . S
C861 C860 1.377 . S
C861 C867 1.390 . S
C862 H853 0.930 . S
C862 C860 1.384 . S
C862 C863 1.372 . S
C863 C862 1.372 . S
C863 C864 1.400 . S
C863 C868 1.490 . S
C864 H854 0.930 . S
C864 C863 1.400 . S
C864 C867 1.386 . S
H865 C881 0.930 . S
H866 C882 0.931 . S
C867 H855 0.929 . S
C867 C861 1.390 . S
C867 C864 1.386 . S
C868 C863 1.490 . S
C868 C870 1.395 . S
C868 C871 1.403 . S
H869 C875 0.930 . S
C870 H856 0.930 . S
C870 C868 1.395 . S
C870 C873 1.403 . S
C871 C868 1.403 . S
C871 C872 1.524 . S
C871 C875 1.400 . S
C872 H857 0.960 . S
C872 H858 0.960 . S
C872 H859 0.960 . S
C872 C871 1.524 . S
C873 C870 1.403 . S
C873 C874 1.392 . S
C873 C877 1.495 . S
C874 C873 1.392 . S
C874 C875 1.385 . S
C874 C876 1.478 . S
C875 H869 0.930 . S
C875 C871 1.400 . S
C875 C874 1.385 . S
C876 C874 1.478 . S
C876 C878 1.381 . S
C876 C882 1.383 . S
C877 C873 1.495 . S
C877 H883 0.959 . S
C877 H884 0.961 . S
C877 H885 0.960 . S
C878 C876 1.381 . S
C878 C879 1.394 . S
C878 H886 0.930 . S
C879 C878 1.394 . S
C879 C880 1.383 . S
C879 H887 0.929 . S
C880 C879 1.383 . S
C880 C881 1.377 . S
C881 H865 0.930 . S
C881 C880 1.377 . S
C881 C882 1.379 . S
C882 H866 0.931 . S
C882 C876 1.383 . S
C882 C881 1.379 . S
H883 C877 0.959 . S
H884 C877 0.961 . S
H885 C877 0.960 . S
H886 C878 0.930 . S
H887 C879 0.929 . S
H888 C896 0.929 . S
H889 C898 0.930 . S
H890 C900 0.930 . S
H891 C903 0.929 . S
H892 C906 0.930 . S
H893 C908 0.960 . S
H894 C908 0.960 . S
H895 C908 0.960 . S
C896 H888 0.929 . S
C896 C897 1.377 . S
C896 C898 1.384 . S
C897 C896 1.377 . S
C897 C903 1.390 . S
C898 H889 0.930 . S
C898 C896 1.384 . S
C898 C899 1.372 . S
C899 C898 1.372 . S
C899 C900 1.400 . S
C899 C904 1.490 . S
C900 H890 0.930 . S
C900 C899 1.400 . S
C900 C903 1.386 . S
H901 C917 0.930 . S
H902 C918 0.931 . S
C903 H891 0.929 . S
C903 C897 1.390 . S
C903 C900 1.386 . S
C904 C899 1.490 . S
C904 C906 1.395 . S
C904 C907 1.403 . S
H905 C911 0.930 . S
C906 H892 0.930 . S
C906 C904 1.395 . S
C906 C909 1.403 . S
C907 C904 1.403 . S
C907 C908 1.524 . S
C907 C911 1.400 . S
C908 H893 0.960 . S
C908 H894 0.960 . S
C908 H895 0.960 . S
C908 C907 1.524 . S
C909 C906 1.403 . S
C909 C910 1.392 . S
C909 C913 1.495 . S
C910 C909 1.392 . S
C910 C911 1.385 . S
C910 C912 1.478 . S
C911 H905 0.930 . S
C911 C907 1.400 . S
C911 C910 1.385 . S
C912 C910 1.478 . S
C912 C914 1.381 . S
C912 C918 1.383 . S
C913 C909 1.495 . S
C913 H919 0.959 . S
C913 H920 0.961 . S
C913 H921 0.960 . S
C914 C912 1.381 . S
C914 C915 1.394 . S
C914 H922 0.930 . S
C915 C914 1.394 . S
C915 C916 1.383 . S
C915 H923 0.929 . S
C916 C915 1.383 . S
C916 C917 1.377 . S
C917 H901 0.930 . S
C917 C916 1.377 . S
C917 C918 1.379 . S
C918 H902 0.931 . S
C918 C912 1.383 . S
C918 C917 1.379 . S
H919 C913 0.959 . S
H920 C913 0.961 . S
H921 C913 0.960 . S
H922 C914 0.930 . S
H923 C915 0.929 . S
H924 C932 0.929 . S
H925 C934 0.930 . S
H926 C936 0.930 . S
H927 C939 0.929 . S
H928 C942 0.930 . S
H929 C944 0.960 . S
H930 C944 0.960 . S
H931 C944 0.960 . S
C932 H924 0.929 . S
C932 C933 1.377 . S
C932 C934 1.384 . S
C933 C932 1.377 . S
C933 C939 1.390 . S
C934 H925 0.930 . S
C934 C932 1.384 . S
C934 C935 1.372 . S
C935 C934 1.372 . S
C935 C936 1.400 . S
C935 C940 1.490 . S
C936 H926 0.930 . S
C936 C935 1.400 . S
C936 C939 1.386 . S
H937 C953 0.930 . S
H938 C954 0.931 . S
C939 H927 0.929 . S
C939 C933 1.390 . S
C939 C936 1.386 . S
C940 C935 1.490 . S
C940 C942 1.395 . S
C940 C943 1.403 . S
H941 C947 0.930 . S
C942 H928 0.930 . S
C942 C940 1.395 . S
C942 C945 1.403 . S
C943 C940 1.403 . S
C943 C944 1.524 . S
C943 C947 1.400 . S
C944 H929 0.960 . S
C944 H930 0.960 . S
C944 H931 0.960 . S
C944 C943 1.524 . S
C945 C942 1.403 . S
C945 C946 1.392 . S
C945 C949 1.495 . S
C946 C945 1.392 . S
C946 C947 1.385 . S
C946 C948 1.478 . S
C947 H941 0.930 . S
C947 C943 1.400 . S
C947 C946 1.385 . S
C948 C946 1.478 . S
C948 C950 1.381 . S
C948 C954 1.383 . S
C949 C945 1.495 . S
C949 H955 0.959 . S
C949 H956 0.961 . S
C949 H957 0.960 . S
C950 C948 1.381 . S
C950 C951 1.394 . S
C950 H958 0.930 . S
C951 C950 1.394 . S
C951 C952 1.383 . S
C951 H959 0.929 . S
C952 C951 1.383 . S
C952 C953 1.377 . S
C953 H937 0.930 . S
C953 C952 1.377 . S
C953 C954 1.379 . S
C954 H938 0.931 . S
C954 C948 1.383 . S
C954 C953 1.379 . S
H955 C949 0.959 . S
H956 C949 0.961 . S
H957 C949 0.960 . S
H958 C950 0.930 . S
H959 C951 0.929 . S
H960 C968 0.929 . S
H961 C970 0.930 . S
H962 C972 0.931 1_565 S
H963 C975 0.929 1_556 S
H964 C978 0.930 . S
H965 C980 0.960 . S
H966 C980 0.960 1_545 S
H967 C980 0.958 1_545 S
C968 H960 0.929 . S
C968 C969 1.377 . S
C968 C970 1.384 . S
C969 C968 1.377 . S
C969 C975 1.390 . S
C970 H961 0.930 . S
C970 C968 1.384 . S
C970 C971 1.372 . S
C971 C970 1.372 . S
C971 C972 1.400 . S
C971 C976 1.490 1_545 S
C972 H962 0.931 1_545 S
C972 C971 1.400 . S
C972 C975 1.386 . S
H973 C989 0.930 . S
H974 C990 0.931 . S
C975 H963 0.929 1_554 S
C975 C969 1.390 . S
C975 C972 1.386 . S
C976 C971 1.490 1_565 S
C976 C978 1.395 . S
C976 C979 1.403 . S
H977 C983 0.930 . S
C978 H964 0.930 . S
C978 C976 1.395 . S
C978 C981 1.403 . S
C979 C976 1.403 . S
C979 C980 1.524 . S
C979 C983 1.400 . S
C980 H965 0.960 . S
C980 H966 0.960 1_565 S
C980 H967 0.958 1_565 S
C980 C979 1.524 . S
C981 C978 1.403 . S
C981 C982 1.392 . S
C981 C985 1.495 . S
C982 C981 1.392 . S
C982 C983 1.385 . S
C982 C984 1.478 . S
C983 H977 0.930 . S
C983 C979 1.400 . S
C983 C982 1.385 . S
C984 C982 1.478 . S
C984 C986 1.381 . S
C984 C990 1.383 . S
C985 C981 1.495 . S
C985 H991 0.959 . S
C985 H992 0.961 . S
C985 H993 0.960 . S
C986 C984 1.381 . S
C986 C987 1.394 . S
C986 H994 0.930 . S
C987 C986 1.394 . S
C987 C988 1.383 . S
C987 H995 0.929 . S
C988 C987 1.383 . S
C988 C989 1.377 . S
C989 H973 0.930 . S
C989 C988 1.377 . S
C989 C990 1.379 . S
C990 H974 0.931 . S
C990 C984 1.383 . S
C990 C989 1.379 . S
H991 C985 0.959 . S
H992 C985 0.961 . S
H993 C985 0.960 . S
H994 C986 0.930 . S
H995 C987 0.929 . S
H996 C1004 0.929 . S
H997 C1006 0.930 1_554 S
H998 C1008 0.930 . S
H999 C1011 0.929 . S
H1000 C1014 0.930 . S
H1001 C1016 0.960 . S
H1002 C1016 0.960 . S
H1003 C1016 0.960 . S
C1004 H996 0.929 . S
C1004 C1005 1.377 1_554 S
C1004 C1006 1.384 1_554 S
C1005 C1004 1.377 1_556 S
C1005 C1011 1.390 . S
C1006 H997 0.930 1_556 S
C1006 C1004 1.384 1_556 S
C1006 C1007 1.372 . S
C1007 C1006 1.372 . S
C1007 C1008 1.400 . S
C1007 C1012 1.490 . S
C1008 H998 0.930 . S
C1008 C1007 1.400 . S
C1008 C1011 1.386 . S
H1009 C1025 0.930 . S
H1010 C1026 0.931 . S
C1011 H999 0.929 . S
C1011 C1005 1.390 . S
C1011 C1008 1.386 . S
C1012 C1007 1.490 . S
C1012 C1014 1.395 . S
C1012 C1015 1.403 . S
H1013 C1019 0.930 . S
C1014 H1000 0.930 . S
C1014 C1012 1.395 . S
C1014 C1017 1.403 . S
C1015 C1012 1.403 . S
C1015 C1016 1.524 . S
C1015 C1019 1.400 . S
C1016 H1001 0.960 . S
C1016 H1002 0.960 . S
C1016 H1003 0.960 . S
C1016 C1015 1.524 . S
C1017 C1014 1.403 . S
C1017 C1018 1.392 . S
C1017 C1021 1.495 . S
C1018 C1017 1.392 . S
C1018 C1019 1.385 . S
C1018 C1020 1.478 . S
C1019 H1013 0.930 . S
C1019 C1015 1.400 . S
C1019 C1018 1.385 . S
C1020 C1018 1.478 . S
C1020 C1022 1.381 . S
C1020 C1026 1.383 . S
C1021 C1017 1.495 . S
C1021 H1027 0.959 . S
C1021 H1028 0.961 . S
C1021 H1029 0.960 . S
C1022 C1020 1.381 . S
C1022 C1023 1.394 . S
C1022 H1030 0.930 . S
C1023 C1022 1.394 . S
C1023 C1024 1.383 . S
C1023 H1031 0.929 . S
C1024 C1023 1.383 . S
C1024 C1025 1.377 . S
C1025 H1009 0.930 . S
C1025 C1024 1.377 . S
C1025 C1026 1.379 . S
C1026 H1010 0.931 . S
C1026 C1020 1.383 . S
C1026 C1025 1.379 . S
H1027 C1021 0.959 . S
H1028 C1021 0.961 . S
H1029 C1021 0.960 . S
H1030 C1022 0.930 . S
H1031 C1023 0.929 . S
H1032 C1040 0.929 . S
H1033 C1042 0.930 . S
H1034 C1044 0.930 . S
H1035 C1047 0.929 . S
H1036 C1050 0.930 . S
H1037 C1052 0.960 . S
H1038 C1052 0.960 . S
H1039 C1052 0.960 . S
C1040 H1032 0.929 . S
C1040 C1041 1.377 . S
C1040 C1042 1.384 . S
C1041 C1040 1.377 . S
C1041 C1047 1.390 . S
C1042 H1033 0.930 . S
C1042 C1040 1.384 . S
C1042 C1043 1.372 . S
C1043 C1042 1.372 . S
C1043 C1044 1.400 . S
C1043 C1048 1.490 . S
C1044 H1034 0.930 . S
C1044 C1043 1.400 . S
C1044 C1047 1.386 . S
H1045 C1061 0.930 . S
H1046 C1062 0.931 . S
C1047 H1035 0.929 . S
C1047 C1041 1.390 . S
C1047 C1044 1.386 . S
C1048 C1043 1.490 . S
C1048 C1050 1.395 . S
C1048 C1051 1.403 . S
H1049 C1055 0.930 . S
C1050 H1036 0.930 . S
C1050 C1048 1.395 . S
C1050 C1053 1.403 . S
C1051 C1048 1.403 . S
C1051 C1052 1.524 . S
C1051 C1055 1.400 . S
C1052 H1037 0.960 . S
C1052 H1038 0.960 . S
C1052 H1039 0.960 . S
C1052 C1051 1.524 . S
C1053 C1050 1.403 . S
C1053 C1054 1.392 . S
C1053 C1057 1.495 . S
C1054 C1053 1.392 . S
C1054 C1055 1.385 . S
C1054 C1056 1.478 . S
C1055 H1049 0.930 . S
C1055 C1051 1.400 . S
C1055 C1054 1.385 . S
C1056 C1054 1.478 . S
C1056 C1058 1.381 . S
C1056 C1062 1.383 . S
C1057 C1053 1.495 . S
C1057 H1063 0.959 . S
C1057 H1064 0.961 . S
C1057 H1065 0.960 . S
C1058 C1056 1.381 . S
C1058 C1059 1.394 . S
C1058 H1066 0.930 . S
C1059 C1058 1.394 . S
C1059 C1060 1.383 . S
C1059 H1067 0.929 . S
C1060 C1059 1.383 . S
C1060 C1061 1.377 . S
C1061 H1045 0.930 . S
C1061 C1060 1.377 . S
C1061 C1062 1.379 . S
C1062 H1046 0.931 . S
C1062 C1056 1.383 . S
C1062 C1061 1.379 . S
H1063 C1057 0.959 . S
H1064 C1057 0.961 . S
H1065 C1057 0.960 . S
H1066 C1058 0.930 . S
H1067 C1059 0.929 . S
H1068 C1076 0.929 . S
H1069 C1078 0.930 . S
H1070 C1080 0.930 . S
H1071 C1083 0.929 . S
H1072 C1086 0.930 . S
H1073 C1088 0.960 . S
H1074 C1088 0.960 . S
H1075 C1088 0.960 . S
C1076 H1068 0.929 . S
C1076 C1077 1.377 . S
C1076 C1078 1.384 . S
C1077 C1076 1.377 . S
C1077 C1083 1.390 . S
C1078 H1069 0.930 . S
C1078 C1076 1.384 . S
C1078 C1079 1.372 . S
C1079 C1078 1.372 . S
C1079 C1080 1.400 . S
C1079 C1084 1.490 . S
C1080 H1070 0.930 . S
C1080 C1079 1.400 . S
C1080 C1083 1.386 . S
H1081 C1097 0.930 . S
H1082 C1098 0.931 . S
C1083 H1071 0.929 . S
C1083 C1077 1.390 . S
C1083 C1080 1.386 . S
C1084 C1079 1.490 . S
C1084 C1086 1.395 . S
C1084 C1087 1.403 . S
H1085 C1091 0.930 . S
C1086 H1072 0.930 . S
C1086 C1084 1.395 . S
C1086 C1089 1.403 . S
C1087 C1084 1.403 . S
C1087 C1088 1.524 . S
C1087 C1091 1.400 . S
C1088 H1073 0.960 . S
C1088 H1074 0.960 . S
C1088 H1075 0.960 . S
C1088 C1087 1.524 . S
C1089 C1086 1.403 . S
C1089 C1090 1.392 . S
C1089 C1093 1.495 . S
C1090 C1089 1.392 . S
C1090 C1091 1.385 . S
C1090 C1092 1.478 . S
C1091 H1085 0.930 . S
C1091 C1087 1.400 . S
C1091 C1090 1.385 . S
C1092 C1090 1.478 . S
C1092 C1094 1.381 . S
C1092 C1098 1.383 . S
C1093 C1089 1.495 . S
C1093 H1099 0.959 . S
C1093 H1100 0.961 . S
C1093 H1101 0.960 . S
C1094 C1092 1.381 . S
C1094 C1095 1.394 . S
C1094 H1102 0.930 . S
C1095 C1094 1.394 . S
C1095 C1096 1.383 . S
C1095 H1103 0.929 . S
C1096 C1095 1.383 . S
C1096 C1097 1.377 . S
C1097 H1081 0.930 . S
C1097 C1096 1.377 . S
C1097 C1098 1.379 . S
C1098 H1082 0.931 . S
C1098 C1092 1.383 . S
C1098 C1097 1.379 . S
H1099 C1093 0.959 . S
H1100 C1093 0.961 . S
H1101 C1093 0.960 . S
H1102 C1094 0.930 . S
H1103 C1095 0.929 . S
H1104 C1112 0.929 . S
H1105 C1114 0.930 . S
H1106 C1116 0.930 . S
H1107 C1119 0.929 . S
H1108 C1122 0.930 . S
H1109 C1124 0.960 . S
H1110 C1124 0.960 . S
H1111 C1124 0.960 . S
C1112 H1104 0.929 . S
C1112 C1113 1.377 . S
C1112 C1114 1.384 . S
C1113 C1112 1.377 . S
C1113 C1119 1.390 . S
C1114 H1105 0.930 . S
C1114 C1112 1.384 . S
C1114 C1115 1.372 . S
C1115 C1114 1.372 . S
C1115 C1116 1.400 . S
C1115 C1120 1.490 . S
C1116 H1106 0.930 . S
C1116 C1115 1.400 . S
C1116 C1119 1.386 . S
H1117 C1133 0.930 . S
H1118 C1134 0.931 . S
C1119 H1107 0.929 . S
C1119 C1113 1.390 . S
C1119 C1116 1.386 . S
C1120 C1115 1.490 . S
C1120 C1122 1.395 . S
C1120 C1123 1.403 . S
H1121 C1127 0.930 . S
C1122 H1108 0.930 . S
C1122 C1120 1.395 . S
C1122 C1125 1.403 . S
C1123 C1120 1.403 . S
C1123 C1124 1.524 . S
C1123 C1127 1.400 . S
C1124 H1109 0.960 . S
C1124 H1110 0.960 . S
C1124 H1111 0.960 . S
C1124 C1123 1.524 . S
C1125 C1122 1.403 . S
C1125 C1126 1.392 . S
C1125 C1129 1.495 . S
C1126 C1125 1.392 . S
C1126 C1127 1.385 . S
C1126 C1128 1.478 . S
C1127 H1121 0.930 . S
C1127 C1123 1.400 . S
C1127 C1126 1.385 . S
C1128 C1126 1.478 . S
C1128 C1130 1.381 . S
C1128 C1134 1.383 . S
C1129 C1125 1.495 . S
C1129 H1135 0.959 . S
C1129 H1136 0.961 . S
C1129 H1137 0.960 . S
C1130 C1128 1.381 . S
C1130 C1131 1.394 . S
C1130 H1138 0.930 . S
C1131 C1130 1.394 . S
C1131 C1132 1.383 . S
C1131 H1139 0.929 . S
C1132 C1131 1.383 . S
C1132 C1133 1.377 . S
C1133 H1117 0.930 . S
C1133 C1132 1.377 . S
C1133 C1134 1.379 . S
C1134 H1118 0.931 . S
C1134 C1128 1.383 . S
C1134 C1133 1.379 . S
H1135 C1129 0.959 . S
H1136 C1129 0.961 . S
H1137 C1129 0.960 . S
H1138 C1130 0.930 . S
H1139 C1131 0.929 . S
H1140 C1148 0.929 . S
H1141 C1150 0.930 . S
H1142 C1152 0.930 . S
H1143 C1155 0.929 . S
H1144 C1158 0.930 . S
H1145 C1160 0.960 . S
H1146 C1160 0.960 . S
H1147 C1160 0.960 . S
C1148 H1140 0.929 . S
C1148 C1149 1.377 . S
C1148 C1150 1.384 1_565 S
C1149 C1148 1.377 . S
C1149 C1155 1.390 . S
C1150 H1141 0.930 . S
C1150 C1148 1.384 1_545 S
C1150 C1151 1.372 . S
C1151 C1150 1.372 . S
C1151 C1152 1.400 . S
C1151 C1156 1.490 . S
C1152 H1142 0.930 . S
C1152 C1151 1.400 . S
C1152 C1155 1.386 1_545 S
H1153 C1169 0.930 . S
H1154 C1170 0.931 . S
C1155 H1143 0.929 . S
C1155 C1149 1.390 . S
C1155 C1152 1.386 1_565 S
C1156 C1151 1.490 . S
C1156 C1158 1.395 . S
C1156 C1159 1.403 . S
H1157 C1163 0.930 . S
C1158 H1144 0.930 . S
C1158 C1156 1.395 . S
C1158 C1161 1.403 . S
C1159 C1156 1.403 . S
C1159 C1160 1.524 . S
C1159 C1163 1.400 . S
C1160 H1145 0.960 . S
C1160 H1146 0.960 . S
C1160 H1147 0.960 . S
C1160 C1159 1.524 . S
C1161 C1158 1.403 . S
C1161 C1162 1.392 . S
C1161 C1165 1.495 . S
C1162 C1161 1.392 . S
C1162 C1163 1.385 . S
C1162 C1164 1.478 . S
C1163 H1157 0.930 . S
C1163 C1159 1.400 . S
C1163 C1162 1.385 . S
C1164 C1162 1.478 . S
C1164 C1166 1.381 . S
C1164 C1170 1.383 . S
C1165 C1161 1.495 . S
C1165 H1171 0.959 . S
C1165 H1172 0.961 . S
C1165 H1173 0.960 . S
C1166 C1164 1.381 . S
C1166 C1167 1.394 . S
C1166 H1174 0.930 . S
C1167 C1166 1.394 . S
C1167 C1168 1.383 . S
C1167 H1175 0.929 . S
C1168 C1167 1.383 . S
C1168 C1169 1.377 . S
C1169 H1153 0.930 . S
C1169 C1168 1.377 . S
C1169 C1170 1.379 . S
C1170 H1154 0.931 . S
C1170 C1164 1.383 . S
C1170 C1169 1.379 . S
H1171 C1165 0.959 . S
H1172 C1165 0.961 . S
H1173 C1165 0.960 . S
H1174 C1166 0.930 . S
H1175 C1167 0.929 . S
H1176 C1184 0.929 . S
H1177 C1186 0.930 . S
H1178 C1188 0.930 . S
H1179 C1191 0.929 . S
H1180 C1194 0.930 . S
H1181 C1196 0.960 . S
H1182 C1196 0.960 . S
H1183 C1196 0.960 . S
C1184 H1176 0.929 . S
C1184 C1185 1.377 . S
C1184 C1186 1.384 . S
C1185 C1184 1.377 . S
C1185 C1191 1.390 . S
C1186 H1177 0.930 . S
C1186 C1184 1.384 . S
C1186 C1187 1.372 . S
C1187 C1186 1.372 . S
C1187 C1188 1.400 . S
C1187 C1192 1.490 . S
C1188 H1178 0.930 . S
C1188 C1187 1.400 . S
C1188 C1191 1.386 . S
H1189 C1205 0.930 . S
H1190 C1206 0.931 . S
C1191 H1179 0.929 . S
C1191 C1185 1.390 . S
C1191 C1188 1.386 . S
C1192 C1187 1.490 . S
C1192 C1194 1.395 . S
C1192 C1195 1.403 . S
H1193 C1199 0.930 . S
C1194 H1180 0.930 . S
C1194 C1192 1.395 . S
C1194 C1197 1.403 . S
C1195 C1192 1.403 . S
C1195 C1196 1.524 . S
C1195 C1199 1.400 . S
C1196 H1181 0.960 . S
C1196 H1182 0.960 . S
C1196 H1183 0.960 . S
C1196 C1195 1.524 . S
C1197 C1194 1.403 . S
C1197 C1198 1.392 . S
C1197 C1201 1.495 . S
C1198 C1197 1.392 . S
C1198 C1199 1.385 . S
C1198 C1200 1.478 . S
C1199 H1193 0.930 . S
C1199 C1195 1.400 . S
C1199 C1198 1.385 . S
C1200 C1198 1.478 . S
C1200 C1202 1.381 . S
C1200 C1206 1.383 . S
C1201 C1197 1.495 . S
C1201 H1207 0.959 . S
C1201 H1208 0.961 . S
C1201 H1209 0.960 . S
C1202 C1200 1.381 . S
C1202 C1203 1.394 . S
C1202 H1210 0.930 . S
C1203 C1202 1.394 . S
C1203 C1204 1.383 . S
C1203 H1211 0.929 . S
C1204 C1203 1.383 . S
C1204 C1205 1.377 . S
C1205 H1189 0.930 . S
C1205 C1204 1.377 . S
C1205 C1206 1.379 . S
C1206 H1190 0.931 . S
C1206 C1200 1.383 . S
C1206 C1205 1.379 . S
H1207 C1201 0.959 . S
H1208 C1201 0.961 . S
H1209 C1201 0.960 . S
H1210 C1202 0.930 . S
H1211 C1203 0.929 . S
H1212 C1220 0.929 . S
H1213 C1222 0.930 . S
H1214 C1224 0.930 . S
H1215 C1227 0.929 . S
H1216 C1230 0.930 . S
H1217 C1232 0.960 . S
H1218 C1232 0.960 . S
H1219 C1232 0.960 . S
C1220 H1212 0.929 . S
C1220 C1221 1.377 . S
C1220 C1222 1.384 . S
C1221 C1220 1.377 . S
C1221 C1227 1.390 . S
C1222 H1213 0.930 . S
C1222 C1220 1.384 . S
C1222 C1223 1.372 . S
C1223 C1222 1.372 . S
C1223 C1224 1.400 . S
C1223 C1228 1.490 . S
C1224 H1214 0.930 . S
C1224 C1223 1.400 . S
C1224 C1227 1.386 . S
H1225 C1241 0.930 . S
H1226 C1242 0.931 . S
C1227 H1215 0.929 . S
C1227 C1221 1.390 . S
C1227 C1224 1.386 . S
C1228 C1223 1.490 . S
C1228 C1230 1.395 . S
C1228 C1231 1.403 . S
H1229 C1235 0.930 . S
C1230 H1216 0.930 . S
C1230 C1228 1.395 . S
C1230 C1233 1.403 . S
C1231 C1228 1.403 . S
C1231 C1232 1.524 . S
C1231 C1235 1.400 . S
C1232 H1217 0.960 . S
C1232 H1218 0.960 . S
C1232 H1219 0.960 . S
C1232 C1231 1.524 . S
C1233 C1230 1.403 . S
C1233 C1234 1.392 . S
C1233 C1237 1.495 . S
C1234 C1233 1.392 . S
C1234 C1235 1.385 . S
C1234 C1236 1.478 . S
C1235 H1229 0.930 . S
C1235 C1231 1.400 . S
C1235 C1234 1.385 . S
C1236 C1234 1.478 . S
C1236 C1238 1.381 . S
C1236 C1242 1.383 . S
C1237 C1233 1.495 . S
C1237 H1243 0.959 . S
C1237 H1244 0.961 . S
C1237 H1245 0.960 . S
C1238 C1236 1.381 . S
C1238 C1239 1.394 . S
C1238 H1246 0.930 . S
C1239 C1238 1.394 . S
C1239 C1240 1.383 . S
C1239 H1247 0.929 . S
C1240 C1239 1.383 . S
C1240 C1241 1.377 . S
C1241 H1225 0.930 . S
C1241 C1240 1.377 . S
C1241 C1242 1.379 . S
C1242 H1226 0.931 . S
C1242 C1236 1.383 . S
C1242 C1241 1.379 . S
H1243 C1237 0.959 . S
H1244 C1237 0.961 . S
H1245 C1237 0.960 . S
H1246 C1238 0.930 . S
H1247 C1239 0.929 . S
H1248 C1256 0.929 . S
H1249 C1258 0.930 . S
H1250 C1260 0.930 . S
H1251 C1263 0.929 . S
H1252 C1266 0.930 . S
H1253 C1268 0.960 . S
H1254 C1268 0.960 . S
H1255 C1268 0.960 . S
C1256 H1248 0.929 . S
C1256 C1257 1.377 . S
C1256 C1258 1.384 . S
C1257 C1256 1.377 . S
C1257 C1263 1.390 . S
C1258 H1249 0.930 . S
C1258 C1256 1.384 . S
C1258 C1259 1.372 . S
C1259 C1258 1.372 . S
C1259 C1260 1.400 . S
C1259 C1264 1.490 . S
C1260 H1250 0.930 . S
C1260 C1259 1.400 . S
C1260 C1263 1.386 . S
H1261 C1277 0.930 . S
H1262 C1278 0.931 . S
C1263 H1251 0.929 . S
C1263 C1257 1.390 . S
C1263 C1260 1.386 . S
C1264 C1259 1.490 . S
C1264 C1266 1.395 . S
C1264 C1267 1.403 . S
H1265 C1271 0.930 . S
C1266 H1252 0.930 . S
C1266 C1264 1.395 . S
C1266 C1269 1.403 . S
C1267 C1264 1.403 . S
C1267 C1268 1.524 . S
C1267 C1271 1.400 . S
C1268 H1253 0.960 . S
C1268 H1254 0.960 . S
C1268 H1255 0.960 . S
C1268 C1267 1.524 . S
C1269 C1266 1.403 . S
C1269 C1270 1.392 . S
C1269 C1273 1.495 . S
C1270 C1269 1.392 . S
C1270 C1271 1.385 . S
C1270 C1272 1.478 . S
C1271 H1265 0.930 . S
C1271 C1267 1.400 . S
C1271 C1270 1.385 . S
C1272 C1270 1.478 . S
C1272 C1274 1.381 . S
C1272 C1278 1.383 . S
C1273 C1269 1.495 . S
C1273 H1279 0.959 . S
C1273 H1280 0.961 . S
C1273 H1281 0.960 . S
C1274 C1272 1.381 . S
C1274 C1275 1.394 . S
C1274 H1282 0.930 . S
C1275 C1274 1.394 . S
C1275 C1276 1.383 . S
C1275 H1283 0.929 . S
C1276 C1275 1.383 . S
C1276 C1277 1.377 . S
C1277 H1261 0.930 . S
C1277 C1276 1.377 . S
C1277 C1278 1.379 . S
C1278 H1262 0.931 . S
C1278 C1272 1.383 . S
C1278 C1277 1.379 . S
H1279 C1273 0.959 . S
H1280 C1273 0.961 . S
H1281 C1273 0.960 . S
H1282 C1274 0.930 . S
H1283 C1275 0.929 . S
H1284 C1292 0.929 . S
H1285 C1294 0.930 . S
H1286 C1296 0.930 . S
H1287 C1299 0.929 . S
H1288 C1302 0.930 . S
H1289 C1304 0.960 . S
H1290 C1304 0.960 . S
H1291 C1304 0.960 . S
C1292 H1284 0.929 . S
C1292 C1293 1.377 . S
C1292 C1294 1.384 . S
C1293 C1292 1.377 . S
C1293 C1299 1.390 . S
C1294 H1285 0.930 . S
C1294 C1292 1.384 . S
C1294 C1295 1.372 . S
C1295 C1294 1.372 . S
C1295 C1296 1.400 . S
C1295 C1300 1.490 . S
C1296 H1286 0.930 . S
C1296 C1295 1.400 . S
C1296 C1299 1.386 . S
H1297 C1313 0.930 . S
H1298 C1314 0.931 . S
C1299 H1287 0.929 . S
C1299 C1293 1.390 . S
C1299 C1296 1.386 . S
C1300 C1295 1.490 . S
C1300 C1302 1.395 . S
C1300 C1303 1.403 . S
H1301 C1307 0.930 . S
C1302 H1288 0.930 . S
C1302 C1300 1.395 . S
C1302 C1305 1.403 . S
C1303 C1300 1.403 . S
C1303 C1304 1.524 . S
C1303 C1307 1.400 . S
C1304 H1289 0.960 . S
C1304 H1290 0.960 . S
C1304 H1291 0.960 . S
C1304 C1303 1.524 . S
C1305 C1302 1.403 . S
C1305 C1306 1.392 . S
C1305 C1309 1.495 . S
C1306 C1305 1.392 . S
C1306 C1307 1.385 . S
C1306 C1308 1.478 . S
C1307 H1301 0.930 . S
C1307 C1303 1.400 . S
C1307 C1306 1.385 . S
C1308 C1306 1.478 . S
C1308 C1310 1.381 . S
C1308 C1314 1.383 . S
C1309 C1305 1.495 . S
C1309 H1315 0.959 . S
C1309 H1316 0.961 . S
C1309 H1317 0.960 . S
C1310 C1308 1.381 . S
C1310 C1311 1.394 . S
C1310 H1318 0.930 . S
C1311 C1310 1.394 . S
C1311 C1312 1.383 . S
C1311 H1319 0.929 . S
C1312 C1311 1.383 . S
C1312 C1313 1.377 . S
C1313 H1297 0.930 . S
C1313 C1312 1.377 . S
C1313 C1314 1.379 . S
C1314 H1298 0.931 . S
C1314 C1308 1.383 . S
C1314 C1313 1.379 . S
H1315 C1309 0.959 . S
H1316 C1309 0.961 . S
H1317 C1309 0.960 . S
H1318 C1310 0.930 . S
H1319 C1311 0.929 . S
H1320 C1328 0.929 . S
H1321 C1330 0.930 . S
H1322 C1332 0.930 . S
H1323 C1335 0.929 . S
H1324 C1338 0.930 . S
H1325 C1340 0.960 . S
H1326 C1340 0.960 . S
H1327 C1340 0.960 . S
C1328 H1320 0.929 . S
C1328 C1329 1.377 . S
C1328 C1330 1.384 . S
C1329 C1328 1.377 . S
C1329 C1335 1.390 . S
C1330 H1321 0.930 . S
C1330 C1328 1.384 . S
C1330 C1331 1.372 . S
C1331 C1330 1.372 . S
C1331 C1332 1.400 . S
C1331 C1336 1.490 1_554 S
C1332 H1322 0.930 . S
C1332 C1331 1.400 . S
C1332 C1335 1.386 . S
H1333 C1349 0.930 . S
H1334 C1350 0.931 . S
C1335 H1323 0.929 . S
C1335 C1329 1.390 . S
C1335 C1332 1.386 . S
C1336 C1331 1.490 1_556 S
C1336 C1338 1.395 . S
C1336 C1339 1.403 . S
H1337 C1343 0.930 . S
C1338 H1324 0.930 . S
C1338 C1336 1.395 . S
C1338 C1341 1.403 . S
C1339 C1336 1.403 . S
C1339 C1340 1.524 1_556 S
C1339 C1343 1.400 . S
C1340 H1325 0.960 . S
C1340 H1326 0.960 . S
C1340 H1327 0.960 . S
C1340 C1339 1.524 1_554 S
C1341 C1338 1.403 . S
C1341 C1342 1.392 . S
C1341 C1345 1.495 . S
C1342 C1341 1.392 . S
C1342 C1343 1.385 . S
C1342 C1344 1.478 . S
C1343 H1337 0.930 . S
C1343 C1339 1.400 . S
C1343 C1342 1.385 . S
C1344 C1342 1.478 . S
C1344 C1346 1.381 . S
C1344 C1350 1.383 . S
C1345 C1341 1.495 . S
C1345 H1351 0.959 . S
C1345 H1352 0.961 . S
C1345 H1353 0.960 . S
C1346 C1344 1.381 . S
C1346 C1347 1.394 . S
C1346 H1354 0.930 . S
C1347 C1346 1.394 . S
C1347 C1348 1.383 . S
C1347 H1355 0.929 . S
C1348 C1347 1.383 . S
C1348 C1349 1.377 . S
C1349 H1333 0.930 . S
C1349 C1348 1.377 . S
C1349 C1350 1.379 . S
C1350 H1334 0.931 . S
C1350 C1344 1.383 . S
C1350 C1349 1.379 . S
H1351 C1345 0.959 . S
H1352 C1345 0.961 . S
H1353 C1345 0.960 . S
H1354 C1346 0.930 . S
H1355 C1347 0.929 . S
H1356 C1364 0.929 . S
H1357 C1366 0.930 . S
H1358 C1368 0.930 . S
H1359 C1371 0.929 . S
H1360 C1374 0.930 . S
H1361 C1376 0.960 . S
H1362 C1376 0.960 . S
H1363 C1376 0.960 . S
C1364 H1356 0.929 . S
C1364 C1365 1.377 . S
C1364 C1366 1.384 . S
C1365 C1364 1.377 . S
C1365 C1371 1.390 . S
C1366 H1357 0.930 . S
C1366 C1364 1.384 . S
C1366 C1367 1.372 . S
C1367 C1366 1.372 . S
C1367 C1368 1.400 . S
C1367 C1372 1.490 . S
C1368 H1358 0.930 . S
C1368 C1367 1.400 . S
C1368 C1371 1.386 . S
H1369 C1385 0.930 . S
H1370 C1386 0.931 . S
C1371 H1359 0.929 . S
C1371 C1365 1.390 . S
C1371 C1368 1.386 . S
C1372 C1367 1.490 . S
C1372 C1374 1.395 . S
C1372 C1375 1.403 . S
H1373 C1379 0.930 . S
C1374 H1360 0.930 . S
C1374 C1372 1.395 . S
C1374 C1377 1.403 . S
C1375 C1372 1.403 . S
C1375 C1376 1.524 . S
C1375 C1379 1.400 . S
C1376 H1361 0.960 . S
C1376 H1362 0.960 . S
C1376 H1363 0.960 . S
C1376 C1375 1.524 . S
C1377 C1374 1.403 . S
C1377 C1378 1.392 . S
C1377 C1381 1.495 . S
C1378 C1377 1.392 . S
C1378 C1379 1.385 . S
C1378 C1380 1.478 . S
C1379 H1373 0.930 . S
C1379 C1375 1.400 . S
C1379 C1378 1.385 . S
C1380 C1378 1.478 . S
C1380 C1382 1.381 . S
C1380 C1386 1.383 . S
C1381 C1377 1.495 . S
C1381 H1387 0.959 . S
C1381 H1388 0.961 . S
C1381 H1389 0.960 . S
C1382 C1380 1.381 . S
C1382 C1383 1.394 . S
C1382 H1390 0.930 . S
C1383 C1382 1.394 . S
C1383 C1384 1.383 . S
C1383 H1391 0.929 . S
C1384 C1383 1.383 . S
C1384 C1385 1.377 . S
C1385 H1369 0.930 . S
C1385 C1384 1.377 . S
C1385 C1386 1.379 . S
C1386 H1370 0.931 . S
C1386 C1380 1.383 . S
C1386 C1385 1.379 . S
H1387 C1381 0.959 . S
H1388 C1381 0.961 . S
H1389 C1381 0.960 . S
H1390 C1382 0.930 . S
H1391 C1383 0.929 . S
H1392 C1400 0.929 . S
H1393 C1402 0.930 . S
H1394 C1404 0.930 . S
H1395 C1407 0.929 . S
H1396 C1410 0.930 . S
H1397 C1412 0.960 . S
H1398 C1412 0.960 . S
H1399 C1412 0.960 . S
C1400 H1392 0.929 . S
C1400 C1401 1.377 . S
C1400 C1402 1.384 1_556 S
C1401 C1400 1.377 . S
C1401 C1407 1.390 1_556 S
C1402 H1393 0.930 . S
C1402 C1400 1.384 1_554 S
C1402 C1403 1.372 . S
C1403 C1402 1.372 . S
C1403 C1404 1.400 . S
C1403 C1408 1.490 . S
C1404 H1394 0.930 . S
C1404 C1403 1.400 . S
C1404 C1407 1.386 . S
H1405 C1421 0.930 . S
H1406 C1422 0.931 . S
C1407 H1395 0.929 . S
C1407 C1401 1.390 1_554 S
C1407 C1404 1.386 . S
C1408 C1403 1.490 . S
C1408 C1410 1.395 . S
C1408 C1411 1.403 . S
H1409 C1415 0.930 . S
C1410 H1396 0.930 . S
C1410 C1408 1.395 . S
C1410 C1413 1.403 . S
C1411 C1408 1.403 . S
C1411 C1412 1.524 . S
C1411 C1415 1.400 . S
C1412 H1397 0.960 . S
C1412 H1398 0.960 . S
C1412 H1399 0.960 . S
C1412 C1411 1.524 . S
C1413 C1410 1.403 . S
C1413 C1414 1.392 . S
C1413 C1417 1.495 . S
C1414 C1413 1.392 . S
C1414 C1415 1.385 . S
C1414 C1416 1.478 . S
C1415 H1409 0.930 . S
C1415 C1411 1.400 . S
C1415 C1414 1.385 . S
C1416 C1414 1.478 . S
C1416 C1418 1.381 . S
C1416 C1422 1.383 . S
C1417 C1413 1.495 . S
C1417 H1423 0.959 . S
C1417 H1424 0.961 . S
C1417 H1425 0.960 . S
C1418 C1416 1.381 . S
C1418 C1419 1.394 . S
C1418 H1426 0.930 . S
C1419 C1418 1.394 . S
C1419 C1420 1.383 . S
C1419 H1427 0.929 . S
C1420 C1419 1.383 . S
C1420 C1421 1.377 . S
C1421 H1405 0.930 . S
C1421 C1420 1.377 . S
C1421 C1422 1.379 . S
C1422 H1406 0.931 . S
C1422 C1416 1.383 . S
C1422 C1421 1.379 . S
H1423 C1417 0.959 . S
H1424 C1417 0.961 . S
H1425 C1417 0.960 . S
H1426 C1418 0.930 . S
H1427 C1419 0.929 . S
H1428 C1436 0.929 . S
H1429 C1438 0.930 . S
H1430 C1440 0.930 . S
H1431 C1443 0.929 . S
H1432 C1446 0.930 . S
H1433 C1448 0.960 . S
H1434 C1448 0.960 . S
H1435 C1448 0.960 . S
C1436 H1428 0.929 . S
C1436 C1437 1.377 . S
C1436 C1438 1.384 . S
C1437 C1436 1.377 . S
C1437 C1443 1.390 . S
C1438 H1429 0.930 . S
C1438 C1436 1.384 . S
C1438 C1439 1.372 . S
C1439 C1438 1.372 . S
C1439 C1440 1.400 . S
C1439 C1444 1.490 . S
C1440 H1430 0.930 . S
C1440 C1439 1.400 . S
C1440 C1443 1.386 . S
H1441 C1457 0.930 . S
H1442 C1458 0.931 . S
C1443 H1431 0.929 . S
C1443 C1437 1.390 . S
C1443 C1440 1.386 . S
C1444 C1439 1.490 . S
C1444 C1446 1.395 . S
C1444 C1447 1.403 . S
H1445 C1451 0.930 . S
C1446 H1432 0.930 . S
C1446 C1444 1.395 . S
C1446 C1449 1.403 . S
C1447 C1444 1.403 . S
C1447 C1448 1.524 . S
C1447 C1451 1.400 . S
C1448 H1433 0.960 . S
C1448 H1434 0.960 . S
C1448 H1435 0.960 . S
C1448 C1447 1.524 . S
C1449 C1446 1.403 . S
C1449 C1450 1.392 . S
C1449 C1453 1.495 . S
C1450 C1449 1.392 . S
C1450 C1451 1.385 . S
C1450 C1452 1.478 . S
C1451 H1445 0.930 . S
C1451 C1447 1.400 . S
C1451 C1450 1.385 . S
C1452 C1450 1.478 . S
C1452 C1454 1.381 . S
C1452 C1458 1.383 . S
C1453 C1449 1.495 . S
C1453 H1459 0.959 . S
C1453 H1460 0.961 . S
C1453 H1461 0.960 . S
C1454 C1452 1.381 . S
C1454 C1455 1.394 . S
C1454 H1462 0.930 . S
C1455 C1454 1.394 . S
C1455 C1456 1.383 . S
C1455 H1463 0.929 . S
C1456 C1455 1.383 . S
C1456 C1457 1.377 . S
C1457 H1441 0.930 . S
C1457 C1456 1.377 . S
C1457 C1458 1.379 . S
C1458 H1442 0.931 . S
C1458 C1452 1.383 . S
C1458 C1457 1.379 . S
H1459 C1453 0.959 . S
H1460 C1453 0.961 . S
H1461 C1453 0.960 . S
H1462 C1454 0.930 . S
H1463 C1455 0.929 . S
H1464 C1472 0.929 1_455 S
H1465 C1474 0.930 . S
H1466 C1476 0.930 . S
H1467 C1479 0.929 . S
H1468 C1482 0.930 . S
H1469 C1484 0.960 . S
H1470 C1484 0.960 . S
H1471 C1484 0.960 . S
C1472 H1464 0.929 1_655 S
C1472 C1473 1.377 . S
C1472 C1474 1.384 . S
C1473 C1472 1.377 . S
C1473 C1479 1.390 . S
C1474 H1465 0.930 . S
C1474 C1472 1.384 . S
C1474 C1475 1.372 . S
C1475 C1474 1.372 . S
C1475 C1476 1.400 . S
C1475 C1480 1.490 . S
C1476 H1466 0.930 . S
C1476 C1475 1.400 . S
C1476 C1479 1.386 . S
H1477 C1493 0.930 . S
H1478 C1494 0.931 . S
C1479 H1467 0.929 . S
C1479 C1473 1.390 . S
C1479 C1476 1.386 . S
C1480 C1475 1.490 . S
C1480 C1482 1.395 . S
C1480 C1483 1.403 . S
H1481 C1487 0.930 . S
C1482 H1468 0.930 . S
C1482 C1480 1.395 . S
C1482 C1485 1.403 . S
C1483 C1480 1.403 . S
C1483 C1484 1.524 . S
C1483 C1487 1.400 . S
C1484 H1469 0.960 . S
C1484 H1470 0.960 . S
C1484 H1471 0.960 . S
C1484 C1483 1.524 . S
C1485 C1482 1.403 . S
C1485 C1486 1.392 . S
C1485 C1489 1.495 . S
C1486 C1485 1.392 . S
C1486 C1487 1.385 . S
C1486 C1488 1.478 . S
C1487 H1481 0.930 . S
C1487 C1483 1.400 . S
C1487 C1486 1.385 . S
C1488 C1486 1.478 . S
C1488 C1490 1.381 . S
C1488 C1494 1.383 . S
C1489 C1485 1.495 . S
C1489 H1495 0.959 . S
C1489 H1496 0.961 . S
C1489 H1497 0.960 . S
C1490 C1488 1.381 . S
C1490 C1491 1.394 . S
C1490 H1498 0.930 . S
C1491 C1490 1.394 . S
C1491 C1492 1.383 . S
C1491 H1499 0.929 . S
C1492 C1491 1.383 . S
C1492 C1493 1.377 . S
C1493 H1477 0.930 . S
C1493 C1492 1.377 . S
C1493 C1494 1.379 . S
C1494 H1478 0.931 . S
C1494 C1488 1.383 . S
C1494 C1493 1.379 . S
H1495 C1489 0.959 . S
H1496 C1489 0.961 . S
H1497 C1489 0.960 . S
H1498 C1490 0.930 . S
H1499 C1491 0.929 . S
H1500 C1508 0.929 . S
H1501 C1510 0.930 . S
H1502 C1512 0.930 . S
H1503 C1515 0.929 . S
H1504 C1518 0.930 . S
H1505 C1520 0.960 . S
H1506 C1520 0.960 . S
H1507 C1520 0.960 . S
C1508 H1500 0.929 . S
C1508 C1509 1.377 . S
C1508 C1510 1.384 . S
C1509 C1508 1.377 . S
C1509 C1515 1.390 . S
C1510 H1501 0.930 . S
C1510 C1508 1.384 . S
C1510 C1511 1.372 . S
C1511 C1510 1.372 . S
C1511 C1512 1.400 . S
C1511 C1516 1.490 . S
C1512 H1502 0.930 . S
C1512 C1511 1.400 . S
C1512 C1515 1.386 . S
H1513 C1529 0.930 . S
H1514 C1530 0.931 . S
C1515 H1503 0.929 . S
C1515 C1509 1.390 . S
C1515 C1512 1.386 . S
C1516 C1511 1.490 . S
C1516 C1518 1.395 . S
C1516 C1519 1.403 . S
H1517 C1523 0.930 . S
C1518 H1504 0.930 . S
C1518 C1516 1.395 . S
C1518 C1521 1.403 . S
C1519 C1516 1.403 . S
C1519 C1520 1.524 . S
C1519 C1523 1.400 . S
C1520 H1505 0.960 . S
C1520 H1506 0.960 . S
C1520 H1507 0.960 . S
C1520 C1519 1.524 . S
C1521 C1518 1.403 . S
C1521 C1522 1.392 . S
C1521 C1525 1.495 . S
C1522 C1521 1.392 . S
C1522 C1523 1.385 . S
C1522 C1524 1.478 . S
C1523 H1517 0.930 . S
C1523 C1519 1.400 . S
C1523 C1522 1.385 . S
C1524 C1522 1.478 . S
C1524 C1526 1.381 . S
C1524 C1530 1.383 . S
C1525 C1521 1.495 . S
C1525 H1531 0.959 . S
C1525 H1532 0.961 . S
C1525 H1533 0.960 . S
C1526 C1524 1.381 . S
C1526 C1527 1.394 . S
C1526 H1534 0.930 . S
C1527 C1526 1.394 . S
C1527 C1528 1.383 . S
C1527 H1535 0.929 . S
C1528 C1527 1.383 . S
C1528 C1529 1.377 . S
C1529 H1513 0.930 . S
C1529 C1528 1.377 . S
C1529 C1530 1.379 . S
C1530 H1514 0.931 . S
C1530 C1524 1.383 . S
C1530 C1529 1.379 . S
H1531 C1525 0.959 . S
H1532 C1525 0.961 . S
H1533 C1525 0.960 . S
H1534 C1526 0.930 . S
H1535 C1527 0.929 . S
H1536 C1544 0.929 . S
H1537 C1546 0.930 . S
H1538 C1548 0.930 . S
H1539 C1551 0.929 . S
H1540 C1554 0.930 . S
H1541 C1556 0.960 . S
H1542 C1556 0.960 . S
H1543 C1556 0.960 . S
C1544 H1536 0.929 . S
C1544 C1545 1.377 . S
C1544 C1546 1.384 . S
C1545 C1544 1.377 . S
C1545 C1551 1.390 . S
C1546 H1537 0.930 . S
C1546 C1544 1.384 . S
C1546 C1547 1.372 . S
C1547 C1546 1.372 . S
C1547 C1548 1.400 . S
C1547 C1552 1.490 . S
C1548 H1538 0.930 . S
C1548 C1547 1.400 . S
C1548 C1551 1.386 . S
H1549 C1565 0.930 . S
H1550 C1566 0.931 . S
C1551 H1539 0.929 . S
C1551 C1545 1.390 . S
C1551 C1548 1.386 . S
C1552 C1547 1.490 . S
C1552 C1554 1.395 . S
C1552 C1555 1.403 . S
H1553 C1559 0.930 . S
C1554 H1540 0.930 . S
C1554 C1552 1.395 . S
C1554 C1557 1.403 . S
C1555 C1552 1.403 . S
C1555 C1556 1.524 . S
C1555 C1559 1.400 . S
C1556 H1541 0.960 . S
C1556 H1542 0.960 . S
C1556 H1543 0.960 . S
C1556 C1555 1.524 . S
C1557 C1554 1.403 . S
C1557 C1558 1.392 . S
C1557 C1561 1.495 . S
C1558 C1557 1.392 . S
C1558 C1559 1.385 . S
C1558 C1560 1.478 . S
C1559 H1553 0.930 . S
C1559 C1555 1.400 . S
C1559 C1558 1.385 . S
C1560 C1558 1.478 . S
C1560 C1562 1.381 . S
C1560 C1566 1.383 . S
C1561 C1557 1.495 . S
C1561 H1567 0.959 . S
C1561 H1568 0.961 1_556 S
C1561 H1569 0.960 . S
C1562 C1560 1.381 . S
C1562 C1563 1.394 . S
C1562 H1570 0.930 . S
C1563 C1562 1.394 . S
C1563 C1564 1.383 . S
C1563 H1571 0.929 . S
C1564 C1563 1.383 . S
C1564 C1565 1.377 . S
C1565 H1549 0.930 . S
C1565 C1564 1.377 . S
C1565 C1566 1.379 . S
C1566 H1550 0.931 . S
C1566 C1560 1.383 . S
C1566 C1565 1.379 . S
H1567 C1561 0.959 . S
H1568 C1561 0.961 1_554 S
H1569 C1561 0.960 . S
H1570 C1562 0.930 . S
H1571 C1563 0.929 . S
H1572 C1580 0.929 . S
H1573 C1582 0.930 . S
H1574 C1584 0.930 . S
H1575 C1587 0.929 . S
H1576 C1590 0.930 . S
H1577 C1592 0.960 . S
H1578 C1592 0.960 . S
H1579 C1592 0.960 . S
C1580 H1572 0.929 . S
C1580 C1581 1.377 . S
C1580 C1582 1.384 . S
C1581 C1580 1.377 . S
C1581 C1587 1.390 . S
C1582 H1573 0.930 . S
C1582 C1580 1.384 . S
C1582 C1583 1.372 . S
C1583 C1582 1.372 . S
C1583 C1584 1.400 . S
C1583 C1588 1.490 . S
C1584 H1574 0.930 . S
C1584 C1583 1.400 . S
C1584 C1587 1.386 . S
H1585 C1601 0.930 . S
H1586 C1602 0.931 . S
C1587 H1575 0.929 . S
C1587 C1581 1.390 . S
C1587 C1584 1.386 . S
C1588 C1583 1.490 . S
C1588 C1590 1.395 . S
C1588 C1591 1.403 . S
H1589 C1595 0.930 . S
C1590 H1576 0.930 . S
C1590 C1588 1.395 . S
C1590 C1593 1.403 . S
C1591 C1588 1.403 . S
C1591 C1592 1.524 . S
C1591 C1595 1.400 . S
C1592 H1577 0.960 . S
C1592 H1578 0.960 . S
C1592 H1579 0.960 . S
C1592 C1591 1.524 . S
C1593 C1590 1.403 . S
C1593 C1594 1.392 . S
C1593 C1597 1.495 . S
C1594 C1593 1.392 . S
C1594 C1595 1.385 . S
C1594 C1596 1.478 . S
C1595 H1589 0.930 . S
C1595 C1591 1.400 . S
C1595 C1594 1.385 . S
C1596 C1594 1.478 . S
C1596 C1598 1.381 . S
C1596 C1602 1.383 . S
C1597 C1593 1.495 . S
C1597 H1603 0.959 . S
C1597 H1604 0.961 . S
C1597 H1605 0.960 . S
C1598 C1596 1.381 . S
C1598 C1599 1.394 . S
C1598 H1606 0.930 . S
C1599 C1598 1.394 . S
C1599 C1600 1.383 . S
C1599 H1607 0.929 . S
C1600 C1599 1.383 . S
C1600 C1601 1.377 . S
C1601 H1585 0.930 . S
C1601 C1600 1.377 . S
C1601 C1602 1.379 . S
C1602 H1586 0.931 . S
C1602 C1596 1.383 . S
C1602 C1601 1.379 . S
H1603 C1597 0.959 . S
H1604 C1597 0.961 . S
H1605 C1597 0.960 . S
H1606 C1598 0.930 . S
H1607 C1599 0.929 . S
H1608 C1616 0.929 . S
H1609 C1618 0.930 . S
H1610 C1620 0.930 . S
H1611 C1623 0.929 . S
H1612 C1626 0.930 . S
H1613 C1628 0.960 . S
H1614 C1628 0.960 . S
H1615 C1628 0.960 . S
C1616 H1608 0.929 . S
C1616 C1617 1.377 . S
C1616 C1618 1.384 . S
C1617 C1616 1.377 . S
C1617 C1623 1.390 . S
C1618 H1609 0.930 . S
C1618 C1616 1.384 . S
C1618 C1619 1.372 1_655 S
C1619 C1618 1.372 1_455 S
C1619 C1620 1.400 . S
C1619 C1624 1.490 . S
C1620 H1610 0.930 . S
C1620 C1619 1.400 . S
C1620 C1623 1.386 1_455 S
H1621 C1637 0.930 . S
H1622 C1638 0.931 . S
C1623 H1611 0.929 . S
C1623 C1617 1.390 . S
C1623 C1620 1.386 1_655 S
C1624 C1619 1.490 . S
C1624 C1626 1.395 . S
C1624 C1627 1.403 . S
H1625 C1631 0.930 . S
C1626 H1612 0.930 . S
C1626 C1624 1.395 . S
C1626 C1629 1.403 . S
C1627 C1624 1.403 . S
C1627 C1628 1.524 . S
C1627 C1631 1.400 . S
C1628 H1613 0.960 . S
C1628 H1614 0.960 . S
C1628 H1615 0.960 . S
C1628 C1627 1.524 . S
C1629 C1626 1.403 . S
C1629 C1630 1.392 . S
C1629 C1633 1.495 . S
C1630 C1629 1.392 . S
C1630 C1631 1.385 . S
C1630 C1632 1.478 . S
C1631 H1625 0.930 . S
C1631 C1627 1.400 . S
C1631 C1630 1.385 . S
C1632 C1630 1.478 . S
C1632 C1634 1.381 . S
C1632 C1638 1.383 . S
C1633 C1629 1.495 . S
C1633 H1639 0.959 . S
C1633 H1640 0.961 . S
C1633 H1641 0.960 . S
C1634 C1632 1.381 . S
C1634 C1635 1.394 . S
C1634 H1642 0.930 . S
C1635 C1634 1.394 . S
C1635 C1636 1.383 . S
C1635 H1643 0.929 . S
C1636 C1635 1.383 . S
C1636 C1637 1.377 . S
C1637 H1621 0.930 . S
C1637 C1636 1.377 . S
C1637 C1638 1.379 . S
C1638 H1622 0.931 . S
C1638 C1632 1.383 . S
C1638 C1637 1.379 . S
H1639 C1633 0.959 . S
H1640 C1633 0.961 . S
H1641 C1633 0.960 . S
H1642 C1634 0.930 . S
H1643 C1635 0.929 . S
H1644 C1652 0.929 . S
H1645 C1654 0.930 . S
H1646 C1656 0.930 . S
H1647 C1659 0.929 . S
H1648 C1662 0.930 . S
H1649 C1664 0.960 . S
H1650 C1664 0.960 . S
H1651 C1664 0.960 . S
C1652 H1644 0.929 . S
C1652 C1653 1.377 . S
C1652 C1654 1.384 . S
C1653 C1652 1.377 . S
C1653 C1659 1.390 . S
C1654 H1645 0.930 . S
C1654 C1652 1.384 . S
C1654 C1655 1.372 . S
C1655 C1654 1.372 . S
C1655 C1656 1.400 . S
C1655 C1660 1.490 . S
C1656 H1646 0.930 . S
C1656 C1655 1.400 . S
C1656 C1659 1.386 . S
H1657 C1673 0.930 . S
H1658 C1674 0.931 . S
C1659 H1647 0.929 . S
C1659 C1653 1.390 . S
C1659 C1656 1.386 . S
C1660 C1655 1.490 . S
C1660 C1662 1.395 . S
C1660 C1663 1.403 . S
H1661 C1667 0.930 . S
C1662 H1648 0.930 . S
C1662 C1660 1.395 . S
C1662 C1665 1.403 . S
C1663 C1660 1.403 . S
C1663 C1664 1.524 . S
C1663 C1667 1.400 . S
C1664 H1649 0.960 . S
C1664 H1650 0.960 . S
C1664 H1651 0.960 . S
C1664 C1663 1.524 . S
C1665 C1662 1.403 . S
C1665 C1666 1.392 . S
C1665 C1669 1.495 . S
C1666 C1665 1.392 . S
C1666 C1667 1.385 . S
C1666 C1668 1.478 . S
C1667 H1661 0.930 . S
C1667 C1663 1.400 . S
C1667 C1666 1.385 . S
C1668 C1666 1.478 . S
C1668 C1670 1.381 . S
C1668 C1674 1.383 . S
C1669 C1665 1.495 . S
C1669 H1675 0.959 . S
C1669 H1676 0.961 . S
C1669 H1677 0.960 . S
C1670 C1668 1.381 . S
C1670 C1671 1.394 . S
C1670 H1678 0.930 . S
C1671 C1670 1.394 . S
C1671 C1672 1.383 . S
C1671 H1679 0.929 . S
C1672 C1671 1.383 . S
C1672 C1673 1.377 . S
C1673 H1657 0.930 . S
C1673 C1672 1.377 . S
C1673 C1674 1.379 . S
C1674 H1658 0.931 . S
C1674 C1668 1.383 . S
C1674 C1673 1.379 . S
H1675 C1669 0.959 . S
H1676 C1669 0.961 . S
H1677 C1669 0.960 . S
H1678 C1670 0.930 . S
H1679 C1671 0.929 . S
H1680 C1688 0.929 . S
H1681 C1690 0.930 . S
H1682 C1692 0.930 . S
H1683 C1695 0.929 . S
H1684 C1698 0.930 . S
H1685 C1700 0.960 . S
H1686 C1700 0.960 . S
H1687 C1700 0.960 . S
C1688 H1680 0.929 . S
C1688 C1689 1.377 . S
C1688 C1690 1.384 . S
C1689 C1688 1.377 . S
C1689 C1695 1.390 . S
C1690 H1681 0.930 . S
C1690 C1688 1.384 . S
C1690 C1691 1.372 . S
C1691 C1690 1.372 . S
C1691 C1692 1.400 . S
C1691 C1696 1.490 . S
C1692 H1682 0.930 . S
C1692 C1691 1.400 . S
C1692 C1695 1.386 . S
H1693 C1709 0.930 . S
H1694 C1710 0.931 . S
C1695 H1683 0.929 . S
C1695 C1689 1.390 . S
C1695 C1692 1.386 . S
C1696 C1691 1.490 . S
C1696 C1698 1.395 . S
C1696 C1699 1.403 . S
H1697 C1703 0.930 . S
C1698 H1684 0.930 . S
C1698 C1696 1.395 . S
C1698 C1701 1.403 . S
C1699 C1696 1.403 . S
C1699 C1700 1.524 . S
C1699 C1703 1.400 . S
C1700 H1685 0.960 . S
C1700 H1686 0.960 . S
C1700 H1687 0.960 . S
C1700 C1699 1.524 . S
C1701 C1698 1.403 . S
C1701 C1702 1.392 . S
C1701 C1705 1.495 . S
C1702 C1701 1.392 . S
C1702 C1703 1.385 . S
C1702 C1704 1.478 . S
C1703 H1697 0.930 . S
C1703 C1699 1.400 . S
C1703 C1702 1.385 . S
C1704 C1702 1.478 . S
C1704 C1706 1.381 . S
C1704 C1710 1.383 . S
C1705 C1701 1.495 . S
C1705 H1711 0.959 . S
C1705 H1712 0.961 . S
C1705 H1713 0.960 . S
C1706 C1704 1.381 . S
C1706 C1707 1.394 . S
C1706 H1714 0.930 . S
C1707 C1706 1.394 . S
C1707 C1708 1.383 . S
C1707 H1715 0.929 . S
C1708 C1707 1.383 . S
C1708 C1709 1.377 . S
C1709 H1693 0.930 . S
C1709 C1708 1.377 . S
C1709 C1710 1.379 . S
C1710 H1694 0.931 . S
C1710 C1704 1.383 . S
C1710 C1709 1.379 . S
H1711 C1705 0.959 . S
H1712 C1705 0.961 . S
H1713 C1705 0.960 . S
H1714 C1706 0.930 . S
H1715 C1707 0.929 . S
H1716 C1724 0.929 . S
H1717 C1726 0.930 . S
H1718 C1728 0.930 . S
H1719 C1731 0.929 . S
H1720 C1734 0.930 . S
H1721 C1736 0.960 . S
H1722 C1736 0.960 . S
H1723 C1736 0.960 . S
C1724 H1716 0.929 . S
C1724 C1725 1.377 . S
C1724 C1726 1.384 . S
C1725 C1724 1.377 . S
C1725 C1731 1.390 . S
C1726 H1717 0.930 . S
C1726 C1724 1.384 . S
C1726 C1727 1.372 . S
C1727 C1726 1.372 . S
C1727 C1728 1.400 . S
C1727 C1732 1.490 . S
C1728 H1718 0.930 . S
C1728 C1727 1.400 . S
C1728 C1731 1.386 . S
H1729 C1745 0.930 . S
H1730 C1746 0.931 . S
C1731 H1719 0.929 . S
C1731 C1725 1.390 . S
C1731 C1728 1.386 . S
C1732 C1727 1.490 . S
C1732 C1734 1.395 . S
C1732 C1735 1.403 . S
H1733 C1739 0.930 . S
C1734 H1720 0.930 . S
C1734 C1732 1.395 . S
C1734 C1737 1.403 . S
C1735 C1732 1.403 . S
C1735 C1736 1.524 . S
C1735 C1739 1.400 . S
C1736 H1721 0.960 . S
C1736 H1722 0.960 . S
C1736 H1723 0.960 . S
C1736 C1735 1.524 . S
C1737 C1734 1.403 . S
C1737 C1738 1.392 . S
C1737 C1741 1.495 . S
C1738 C1737 1.392 . S
C1738 C1739 1.385 . S
C1738 C1740 1.478 . S
C1739 H1733 0.930 . S
C1739 C1735 1.400 . S
C1739 C1738 1.385 . S
C1740 C1738 1.478 . S
C1740 C1742 1.381 . S
C1740 C1746 1.383 . S
C1741 C1737 1.495 . S
C1741 H1747 0.959 . S
C1741 H1748 0.961 . S
C1741 H1749 0.960 . S
C1742 C1740 1.381 . S
C1742 C1743 1.394 . S
C1742 H1750 0.930 . S
C1743 C1742 1.394 . S
C1743 C1744 1.383 . S
C1743 H1751 0.929 . S
C1744 C1743 1.383 . S
C1744 C1745 1.377 . S
C1745 H1729 0.930 . S
C1745 C1744 1.377 . S
C1745 C1746 1.379 . S
C1746 H1730 0.931 . S
C1746 C1740 1.383 . S
C1746 C1745 1.379 . S
H1747 C1741 0.959 . S
H1748 C1741 0.961 . S
H1749 C1741 0.960 . S
H1750 C1742 0.930 . S
H1751 C1743 0.929 . S
H1752 C1760 0.929 . S
H1753 C1762 0.930 1_455 S
H1754 C1764 0.930 . S
H1755 C1767 0.929 . S
H1756 C1770 0.930 . S
H1757 C1772 0.960 . S
H1758 C1772 0.960 . S
H1759 C1772 0.960 . S
C1760 H1752 0.929 . S
C1760 C1761 1.377 . S
C1760 C1762 1.384 . S
C1761 C1760 1.377 . S
C1761 C1767 1.390 . S
C1762 H1753 0.930 1_655 S
C1762 C1760 1.384 . S
C1762 C1763 1.372 1_655 S
C1763 C1762 1.372 1_455 S
C1763 C1764 1.400 . S
C1763 C1768 1.490 . S
C1764 H1754 0.930 . S
C1764 C1763 1.400 . S
C1764 C1767 1.386 1_455 S
H1765 C1781 0.930 . S
H1766 C1782 0.931 . S
C1767 H1755 0.929 . S
C1767 C1761 1.390 . S
C1767 C1764 1.386 1_655 S
C1768 C1763 1.490 . S
C1768 C1770 1.395 . S
C1768 C1771 1.403 . S
H1769 C1775 0.930 . S
C1770 H1756 0.930 . S
C1770 C1768 1.395 . S
C1770 C1773 1.403 . S
C1771 C1768 1.403 . S
C1771 C1772 1.524 . S
C1771 C1775 1.400 . S
C1772 H1757 0.960 . S
C1772 H1758 0.960 . S
C1772 H1759 0.960 . S
C1772 C1771 1.524 . S
C1773 C1770 1.403 . S
C1773 C1774 1.392 . S
C1773 C1777 1.495 . S
C1774 C1773 1.392 . S
C1774 C1775 1.385 . S
C1774 C1776 1.478 . S
C1775 H1769 0.930 . S
C1775 C1771 1.400 . S
C1775 C1774 1.385 . S
C1776 C1774 1.478 . S
C1776 C1778 1.381 . S
C1776 C1782 1.383 . S
C1777 C1773 1.495 . S
C1777 H1783 0.959 . S
C1777 H1784 0.961 . S
C1777 H1785 0.960 . S
C1778 C1776 1.381 . S
C1778 C1779 1.394 . S
C1778 H1786 0.930 . S
C1779 C1778 1.394 . S
C1779 C1780 1.383 . S
C1779 H1787 0.929 . S
C1780 C1779 1.383 . S
C1780 C1781 1.377 . S
C1781 H1765 0.930 . S
C1781 C1780 1.377 . S
C1781 C1782 1.379 . S
C1782 H1766 0.931 . S
C1782 C1776 1.383 . S
C1782 C1781 1.379 . S
H1783 C1777 0.959 . S
H1784 C1777 0.961 . S
H1785 C1777 0.960 . S
H1786 C1778 0.930 . S
H1787 C1779 0.929 . S
H1788 C1796 0.929 . S
H1789 C1798 0.930 . S
H1790 C1800 0.930 . S
H1791 C1803 0.929 . S
H1792 C1806 0.930 . S
H1793 C1808 0.960 . S
H1794 C1808 0.960 . S
H1795 C1808 0.960 . S
C1796 H1788 0.929 . S
C1796 C1797 1.377 . S
C1796 C1798 1.384 . S
C1797 C1796 1.377 . S
C1797 C1803 1.390 . S
C1798 H1789 0.930 . S
C1798 C1796 1.384 . S
C1798 C1799 1.372 . S
C1799 C1798 1.372 . S
C1799 C1800 1.400 . S
C1799 C1804 1.490 . S
C1800 H1790 0.930 . S
C1800 C1799 1.400 . S
C1800 C1803 1.386 . S
H1801 C1817 0.930 . S
H1802 C1818 0.931 . S
C1803 H1791 0.929 . S
C1803 C1797 1.390 . S
C1803 C1800 1.386 . S
C1804 C1799 1.490 . S
C1804 C1806 1.395 . S
C1804 C1807 1.403 . S
H1805 C1811 0.930 . S
C1806 H1792 0.930 . S
C1806 C1804 1.395 . S
C1806 C1809 1.403 . S
C1807 C1804 1.403 . S
C1807 C1808 1.524 . S
C1807 C1811 1.400 . S
C1808 H1793 0.960 . S
C1808 H1794 0.960 . S
C1808 H1795 0.960 . S
C1808 C1807 1.524 . S
C1809 C1806 1.403 . S
C1809 C1810 1.392 . S
C1809 C1813 1.495 . S
C1810 C1809 1.392 . S
C1810 C1811 1.385 . S
C1810 C1812 1.478 . S
C1811 H1805 0.930 . S
C1811 C1807 1.400 . S
C1811 C1810 1.385 . S
C1812 C1810 1.478 . S
C1812 C1814 1.381 . S
C1812 C1818 1.383 . S
C1813 C1809 1.495 . S
C1813 H1819 0.959 . S
C1813 H1820 0.961 . S
C1813 H1821 0.960 . S
C1814 C1812 1.381 . S
C1814 C1815 1.394 . S
C1814 H1822 0.930 . S
C1815 C1814 1.394 . S
C1815 C1816 1.383 . S
C1815 H1823 0.929 . S
C1816 C1815 1.383 . S
C1816 C1817 1.377 . S
C1817 H1801 0.930 . S
C1817 C1816 1.377 . S
C1817 C1818 1.379 . S
C1818 H1802 0.931 . S
C1818 C1812 1.383 . S
C1818 C1817 1.379 . S
H1819 C1813 0.959 . S
H1820 C1813 0.961 . S
H1821 C1813 0.960 . S
H1822 C1814 0.930 . S
H1823 C1815 0.929 . S
H1824 C1832 0.929 . S
H1825 C1834 0.930 . S
H1826 C1836 0.930 . S
H1827 C1839 0.929 . S
H1828 C1842 0.930 . S
H1829 C1844 0.960 . S
H1830 C1844 0.960 . S
H1831 C1844 0.960 . S
C1832 H1824 0.929 . S
C1832 C1833 1.377 . S
C1832 C1834 1.384 . S
C1833 C1832 1.377 . S
C1833 C1839 1.390 . S
C1834 H1825 0.930 . S
C1834 C1832 1.384 . S
C1834 C1835 1.372 . S
C1835 C1834 1.372 . S
C1835 C1836 1.400 . S
C1835 C1840 1.490 . S
C1836 H1826 0.930 . S
C1836 C1835 1.400 . S
C1836 C1839 1.386 . S
H1837 C1853 0.930 . S
H1838 C1854 0.931 . S
C1839 H1827 0.929 . S
C1839 C1833 1.390 . S
C1839 C1836 1.386 . S
C1840 C1835 1.490 . S
C1840 C1842 1.395 . S
C1840 C1843 1.403 . S
H1841 C1847 0.930 . S
C1842 H1828 0.930 . S
C1842 C1840 1.395 . S
C1842 C1845 1.403 . S
C1843 C1840 1.403 . S
C1843 C1844 1.524 . S
C1843 C1847 1.400 . S
C1844 H1829 0.960 . S
C1844 H1830 0.960 . S
C1844 H1831 0.960 . S
C1844 C1843 1.524 . S
C1845 C1842 1.403 . S
C1845 C1846 1.392 . S
C1845 C1849 1.495 . S
C1846 C1845 1.392 . S
C1846 C1847 1.385 . S
C1846 C1848 1.478 . S
C1847 H1841 0.930 . S
C1847 C1843 1.400 . S
C1847 C1846 1.385 . S
C1848 C1846 1.478 . S
C1848 C1850 1.381 . S
C1848 C1854 1.383 . S
C1849 C1845 1.495 . S
C1849 H1855 0.959 . S
C1849 H1856 0.961 . S
C1849 H1857 0.960 . S
C1850 C1848 1.381 . S
C1850 C1851 1.394 . S
C1850 H1858 0.930 . S
C1851 C1850 1.394 . S
C1851 C1852 1.383 . S
C1851 H1859 0.929 . S
C1852 C1851 1.383 . S
C1852 C1853 1.377 . S
C1853 H1837 0.930 . S
C1853 C1852 1.377 . S
C1853 C1854 1.379 . S
C1854 H1838 0.931 . S
C1854 C1848 1.383 . S
C1854 C1853 1.379 . S
H1855 C1849 0.959 . S
H1856 C1849 0.961 . S
H1857 C1849 0.960 . S
H1858 C1850 0.930 . S
H1859 C1851 0.929 . S
H1860 C1868 0.929 . S
H1861 C1870 0.930 . S
H1862 C1872 0.930 . S
H1863 C1875 0.929 . S
H1864 C1878 0.930 . S
H1865 C1880 0.960 . S
H1866 C1880 0.960 . S
H1867 C1880 0.960 . S
C1868 H1860 0.929 . S
C1868 C1869 1.377 . S
C1868 C1870 1.384 1_565 S
C1869 C1868 1.377 . S
C1869 C1875 1.390 . S
C1870 H1861 0.930 . S
C1870 C1868 1.384 1_545 S
C1870 C1871 1.372 . S
C1871 C1870 1.372 . S
C1871 C1872 1.400 1_545 S
C1871 C1876 1.490 . S
C1872 H1862 0.930 . S
C1872 C1871 1.400 1_565 S
C1872 C1875 1.386 . S
H1873 C1889 0.930 . S
H1874 C1890 0.931 . S
C1875 H1863 0.929 . S
C1875 C1869 1.390 . S
C1875 C1872 1.386 . S
C1876 C1871 1.490 . S
C1876 C1878 1.395 . S
C1876 C1879 1.403 . S
H1877 C1883 0.930 . S
C1878 H1864 0.930 . S
C1878 C1876 1.395 . S
C1878 C1881 1.403 . S
C1879 C1876 1.403 . S
C1879 C1880 1.524 . S
C1879 C1883 1.400 . S
C1880 H1865 0.960 . S
C1880 H1866 0.960 . S
C1880 H1867 0.960 . S
C1880 C1879 1.524 . S
C1881 C1878 1.403 . S
C1881 C1882 1.392 . S
C1881 C1885 1.495 . S
C1882 C1881 1.392 . S
C1882 C1883 1.385 . S
C1882 C1884 1.478 . S
C1883 H1877 0.930 . S
C1883 C1879 1.400 . S
C1883 C1882 1.385 . S
C1884 C1882 1.478 . S
C1884 C1886 1.381 . S
C1884 C1890 1.383 . S
C1885 C1881 1.495 . S
C1885 H1891 0.959 . S
C1885 H1892 0.961 . S
C1885 H1893 0.960 . S
C1886 C1884 1.381 . S
C1886 C1887 1.394 . S
C1886 H1894 0.930 . S
C1887 C1886 1.394 . S
C1887 C1888 1.383 . S
C1887 H1895 0.929 . S
C1888 C1887 1.383 . S
C1888 C1889 1.377 . S
C1889 H1873 0.930 . S
C1889 C1888 1.377 . S
C1889 C1890 1.379 . S
C1890 H1874 0.931 . S
C1890 C1884 1.383 . S
C1890 C1889 1.379 . S
H1891 C1885 0.959 . S
H1892 C1885 0.961 . S
H1893 C1885 0.960 . S
H1894 C1886 0.930 . S
H1895 C1887 0.929 . S
H1896 C1904 0.929 . S
H1897 C1906 0.930 . S
H1898 C1908 0.930 . S
H1899 C1911 0.929 . S
H1900 C1914 0.930 . S
H1901 C1916 0.960 . S
H1902 C1916 0.960 . S
H1903 C1916 0.960 . S
C1904 H1896 0.929 . S
C1904 C1905 1.377 . S
C1904 C1906 1.384 . S
C1905 C1904 1.377 . S
C1905 C1911 1.390 . S
C1906 H1897 0.930 . S
C1906 C1904 1.384 . S
C1906 C1907 1.372 . S
C1907 C1906 1.372 . S
C1907 C1908 1.400 . S
C1907 C1912 1.490 . S
C1908 H1898 0.930 . S
C1908 C1907 1.400 . S
C1908 C1911 1.386 . S
H1909 C1925 0.930 . S
H1910 C1926 0.931 . S
C1911 H1899 0.929 . S
C1911 C1905 1.390 . S
C1911 C1908 1.386 . S
C1912 C1907 1.490 . S
C1912 C1914 1.395 . S
C1912 C1915 1.403 . S
H1913 C1919 0.930 . S
C1914 H1900 0.930 . S
C1914 C1912 1.395 . S
C1914 C1917 1.403 . S
C1915 C1912 1.403 . S
C1915 C1916 1.524 . S
C1915 C1919 1.400 . S
C1916 H1901 0.960 . S
C1916 H1902 0.960 . S
C1916 H1903 0.960 . S
C1916 C1915 1.524 . S
C1917 C1914 1.403 . S
C1917 C1918 1.392 . S
C1917 C1921 1.495 . S
C1918 C1917 1.392 . S
C1918 C1919 1.385 . S
C1918 C1920 1.478 . S
C1919 H1913 0.930 . S
C1919 C1915 1.400 . S
C1919 C1918 1.385 . S
C1920 C1918 1.478 . S
C1920 C1922 1.381 . S
C1920 C1926 1.383 . S
C1921 C1917 1.495 . S
C1921 H1927 0.959 . S
C1921 H1928 0.961 . S
C1921 H1929 0.960 . S
C1922 C1920 1.381 . S
C1922 C1923 1.394 . S
C1922 H1930 0.930 . S
C1923 C1922 1.394 . S
C1923 C1924 1.383 . S
C1923 H1931 0.929 . S
C1924 C1923 1.383 . S
C1924 C1925 1.377 . S
C1925 H1909 0.930 . S
C1925 C1924 1.377 . S
C1925 C1926 1.379 . S
C1926 H1910 0.931 . S
C1926 C1920 1.383 . S
C1926 C1925 1.379 . S
H1927 C1921 0.959 . S
H1928 C1921 0.961 . S
H1929 C1921 0.960 . S
H1930 C1922 0.930 . S
H1931 C1923 0.929 . S
H1932 C1940 0.929 . S
H1933 C1942 0.930 . S
H1934 C1944 0.930 . S
H1935 C1947 0.929 . S
H1936 C1950 0.930 1_545 S
H1937 C1952 0.960 . S
H1938 C1952 0.960 . S
H1939 C1952 0.960 . S
C1940 H1932 0.929 . S
C1940 C1941 1.377 . S
C1940 C1942 1.384 . S
C1941 C1940 1.377 . S
C1941 C1947 1.390 . S
C1942 H1933 0.930 . S
C1942 C1940 1.384 . S
C1942 C1943 1.372 . S
C1943 C1942 1.372 . S
C1943 C1944 1.400 . S
C1943 C1948 1.490 1_545 S
C1944 H1934 0.930 . S
C1944 C1943 1.400 . S
C1944 C1947 1.386 . S
H1945 C1961 0.930 . S
H1946 C1962 0.931 . S
C1947 H1935 0.929 . S
C1947 C1941 1.390 . S
C1947 C1944 1.386 . S
C1948 C1943 1.490 1_565 S
C1948 C1950 1.395 . S
C1948 C1951 1.403 . S
H1949 C1955 0.930 . S
C1950 H1936 0.930 1_565 S
C1950 C1948 1.395 . S
C1950 C1953 1.403 . S
C1951 C1948 1.403 . S
C1951 C1952 1.524 . S
C1951 C1955 1.400 . S
C1952 H1937 0.960 . S
C1952 H1938 0.960 . S
C1952 H1939 0.960 . S
C1952 C1951 1.524 . S
C1953 C1950 1.403 . S
C1953 C1954 1.392 . S
C1953 C1957 1.495 . S
C1954 C1953 1.392 . S
C1954 C1955 1.385 . S
C1954 C1956 1.478 . S
C1955 H1949 0.930 . S
C1955 C1951 1.400 . S
C1955 C1954 1.385 . S
C1956 C1954 1.478 . S
C1956 C1958 1.381 . S
C1956 C1962 1.383 . S
C1957 C1953 1.495 . S
C1957 H1963 0.959 . S
C1957 H1964 0.961 . S
C1957 H1965 0.960 . S
C1958 C1956 1.381 . S
C1958 C1959 1.394 . S
C1958 H1966 0.930 . S
C1959 C1958 1.394 . S
C1959 C1960 1.383 . S
C1959 H1967 0.929 . S
C1960 C1959 1.383 . S
C1960 C1961 1.377 . S
C1961 H1945 0.930 . S
C1961 C1960 1.377 . S
C1961 C1962 1.379 . S
C1962 H1946 0.931 . S
C1962 C1956 1.383 . S
C1962 C1961 1.379 . S
H1963 C1957 0.959 . S
H1964 C1957 0.961 . S
H1965 C1957 0.960 . S
H1966 C1958 0.930 . S
H1967 C1959 0.929 . S
H1968 C1976 0.929 . S
H1969 C1978 0.930 . S
H1970 C1980 0.930 . S
H1971 C1983 0.929 . S
H1972 C1986 0.930 . S
H1973 C1988 0.960 . S
H1974 C1988 0.960 . S
H1975 C1988 0.960 . S
C1976 H1968 0.929 . S
C1976 C1977 1.377 . S
C1976 C1978 1.384 . S
C1977 C1976 1.377 . S
C1977 C1983 1.390 . S
C1978 H1969 0.930 . S
C1978 C1976 1.384 . S
C1978 C1979 1.372 . S
C1979 C1978 1.372 . S
C1979 C1980 1.400 . S
C1979 C1984 1.490 . S
C1980 H1970 0.930 . S
C1980 C1979 1.400 . S
C1980 C1983 1.386 . S
H1981 C1997 0.930 . S
H1982 C1998 0.931 . S
C1983 H1971 0.929 . S
C1983 C1977 1.390 . S
C1983 C1980 1.386 . S
C1984 C1979 1.490 . S
C1984 C1986 1.395 . S
C1984 C1987 1.403 . S
H1985 C1991 0.930 . S
C1986 H1972 0.930 . S
C1986 C1984 1.395 . S
C1986 C1989 1.403 . S
C1987 C1984 1.403 . S
C1987 C1988 1.524 . S
C1987 C1991 1.400 . S
C1988 H1973 0.960 . S
C1988 H1974 0.960 . S
C1988 H1975 0.960 . S
C1988 C1987 1.524 . S
C1989 C1986 1.403 . S
C1989 C1990 1.392 . S
C1989 C1993 1.495 . S
C1990 C1989 1.392 . S
C1990 C1991 1.385 . S
C1990 C1992 1.478 . S
C1991 H1985 0.930 . S
C1991 C1987 1.400 . S
C1991 C1990 1.385 . S
C1992 C1990 1.478 . S
C1992 C1994 1.381 . S
C1992 C1998 1.383 . S
C1993 C1989 1.495 . S
C1993 H1999 0.959 . S
C1993 H2000 0.961 . S
C1993 H2001 0.960 . S
C1994 C1992 1.381 . S
C1994 C1995 1.394 . S
C1994 H2002 0.930 . S
C1995 C1994 1.394 . S
C1995 C1996 1.383 . S
C1995 H2003 0.929 . S
C1996 C1995 1.383 . S
C1996 C1997 1.377 . S
C1997 H1981 0.930 . S
C1997 C1996 1.377 . S
C1997 C1998 1.379 . S
C1998 H1982 0.931 . S
C1998 C1992 1.383 . S
C1998 C1997 1.379 . S
H1999 C1993 0.959 . S
H2000 C1993 0.961 . S
H2001 C1993 0.960 . S
H2002 C1994 0.930 . S
H2003 C1995 0.929 . S
H2004 C2012 0.929 . S
H2005 C2014 0.930 . S
H2006 C2016 0.930 . S
H2007 C2019 0.929 . S
H2008 C2022 0.930 . S
H2009 C2024 0.960 . S
H2010 C2024 0.960 . S
H2011 C2024 0.960 . S
C2012 H2004 0.929 . S
C2012 C2013 1.377 . S
C2012 C2014 1.384 . S
C2013 C2012 1.377 . S
C2013 C2019 1.390 . S
C2014 H2005 0.930 . S
C2014 C2012 1.384 . S
C2014 C2015 1.372 . S
C2015 C2014 1.372 . S
C2015 C2016 1.400 . S
C2015 C2020 1.490 . S
C2016 H2006 0.930 . S
C2016 C2015 1.400 . S
C2016 C2019 1.386 . S
H2017 C2033 0.930 . S
H2018 C2034 0.931 . S
C2019 H2007 0.929 . S
C2019 C2013 1.390 . S
C2019 C2016 1.386 . S
C2020 C2015 1.490 . S
C2020 C2022 1.395 . S
C2020 C2023 1.403 . S
H2021 C2027 0.930 . S
C2022 H2008 0.930 . S
C2022 C2020 1.395 . S
C2022 C2025 1.403 . S
C2023 C2020 1.403 . S
C2023 C2024 1.524 . S
C2023 C2027 1.400 . S
C2024 H2009 0.960 . S
C2024 H2010 0.960 . S
C2024 H2011 0.960 . S
C2024 C2023 1.524 . S
C2025 C2022 1.403 . S
C2025 C2026 1.392 . S
C2025 C2029 1.495 . S
C2026 C2025 1.392 . S
C2026 C2027 1.385 . S
C2026 C2028 1.478 . S
C2027 H2021 0.930 . S
C2027 C2023 1.400 . S
C2027 C2026 1.385 . S
C2028 C2026 1.478 . S
C2028 C2030 1.381 . S
C2028 C2034 1.383 . S
C2029 C2025 1.495 . S
C2029 H2035 0.959 . S
C2029 H2036 0.961 . S
C2029 H2037 0.960 . S
C2030 C2028 1.381 . S
C2030 C2031 1.394 . S
C2030 H2038 0.930 . S
C2031 C2030 1.394 . S
C2031 C2032 1.383 . S
C2031 H2039 0.929 . S
C2032 C2031 1.383 . S
C2032 C2033 1.377 . S
C2033 H2017 0.930 . S
C2033 C2032 1.377 . S
C2033 C2034 1.379 . S
C2034 H2018 0.931 . S
C2034 C2028 1.383 . S
C2034 C2033 1.379 . S
H2035 C2029 0.959 . S
H2036 C2029 0.961 . S
H2037 C2029 0.960 . S
H2038 C2030 0.930 . S
H2039 C2031 0.929 . S
H2040 C2048 0.929 . S
H2041 C2050 0.930 . S
H2042 C2052 0.930 . S
H2043 C2055 0.929 . S
H2044 C2058 0.930 . S
H2045 C2060 0.960 . S
H2046 C2060 0.960 . S
H2047 C2060 0.960 . S
C2048 H2040 0.929 . S
C2048 C2049 1.377 . S
C2048 C2050 1.384 . S
C2049 C2048 1.377 . S
C2049 C2055 1.390 . S
C2050 H2041 0.930 . S
C2050 C2048 1.384 . S
C2050 C2051 1.372 . S
C2051 C2050 1.372 . S
C2051 C2052 1.400 . S
C2051 C2056 1.490 . S
C2052 H2042 0.930 . S
C2052 C2051 1.400 . S
C2052 C2055 1.386 . S
H2053 C2069 0.930 . S
H2054 C2070 0.931 . S
C2055 H2043 0.929 . S
C2055 C2049 1.390 . S
C2055 C2052 1.386 . S
C2056 C2051 1.490 . S
C2056 C2058 1.395 . S
C2056 C2059 1.403 . S
H2057 C2063 0.930 . S
C2058 H2044 0.930 . S
C2058 C2056 1.395 . S
C2058 C2061 1.403 . S
C2059 C2056 1.403 . S
C2059 C2060 1.524 . S
C2059 C2063 1.400 . S
C2060 H2045 0.960 . S
C2060 H2046 0.960 . S
C2060 H2047 0.960 . S
C2060 C2059 1.524 . S
C2061 C2058 1.403 . S
C2061 C2062 1.392 . S
C2061 C2065 1.495 . S
C2062 C2061 1.392 . S
C2062 C2063 1.385 . S
C2062 C2064 1.478 . S
C2063 H2057 0.930 . S
C2063 C2059 1.400 . S
C2063 C2062 1.385 . S
C2064 C2062 1.478 . S
C2064 C2066 1.381 . S
C2064 C2070 1.383 . S
C2065 C2061 1.495 . S
C2065 H2071 0.959 . S
C2065 H2072 0.961 . S
C2065 H2073 0.960 . S
C2066 C2064 1.381 . S
C2066 C2067 1.394 . S
C2066 H2074 0.930 . S
C2067 C2066 1.394 . S
C2067 C2068 1.383 . S
C2067 H2075 0.929 . S
C2068 C2067 1.383 . S
C2068 C2069 1.377 . S
C2069 H2053 0.930 . S
C2069 C2068 1.377 . S
C2069 C2070 1.379 . S
C2070 H2054 0.931 . S
C2070 C2064 1.383 . S
C2070 C2069 1.379 . S
H2071 C2065 0.959 . S
H2072 C2065 0.961 . S
H2073 C2065 0.960 . S
H2074 C2066 0.930 . S
H2075 C2067 0.929 . S
H2076 C2084 0.929 . S
H2077 C2086 0.930 . S
H2078 C2088 0.930 . S
H2079 C2091 0.929 . S
H2080 C2094 0.930 . S
H2081 C2096 0.960 . S
H2082 C2096 0.960 . S
H2083 C2096 0.960 . S
C2084 H2076 0.929 . S
C2084 C2085 1.377 . S
C2084 C2086 1.384 . S
C2085 C2084 1.377 . S
C2085 C2091 1.390 . S
C2086 H2077 0.930 . S
C2086 C2084 1.384 . S
C2086 C2087 1.372 . S
C2087 C2086 1.372 . S
C2087 C2088 1.400 . S
C2087 C2092 1.490 . S
C2088 H2078 0.930 . S
C2088 C2087 1.400 . S
C2088 C2091 1.386 . S
H2089 C2105 0.930 . S
H2090 C2106 0.931 . S
C2091 H2079 0.929 . S
C2091 C2085 1.390 . S
C2091 C2088 1.386 . S
C2092 C2087 1.490 . S
C2092 C2094 1.395 . S
C2092 C2095 1.403 . S
H2093 C2099 0.930 . S
C2094 H2080 0.930 . S
C2094 C2092 1.395 . S
C2094 C2097 1.403 . S
C2095 C2092 1.403 . S
C2095 C2096 1.524 . S
C2095 C2099 1.400 . S
C2096 H2081 0.960 . S
C2096 H2082 0.960 . S
C2096 H2083 0.960 . S
C2096 C2095 1.524 . S
C2097 C2094 1.403 . S
C2097 C2098 1.392 . S
C2097 C2101 1.495 . S
C2098 C2097 1.392 . S
C2098 C2099 1.385 . S
C2098 C2100 1.478 . S
C2099 H2093 0.930 . S
C2099 C2095 1.400 . S
C2099 C2098 1.385 . S
C2100 C2098 1.478 . S
C2100 C2102 1.381 . S
C2100 C2106 1.383 . S
C2101 C2097 1.495 . S
C2101 H2107 0.959 . S
C2101 H2108 0.961 . S
C2101 H2109 0.960 . S
C2102 C2100 1.381 . S
C2102 C2103 1.394 . S
C2102 H2110 0.930 . S
C2103 C2102 1.394 . S
C2103 C2104 1.383 . S
C2103 H2111 0.929 . S
C2104 C2103 1.383 . S
C2104 C2105 1.377 . S
C2105 H2089 0.930 . S
C2105 C2104 1.377 . S
C2105 C2106 1.379 . S
C2106 H2090 0.931 . S
C2106 C2100 1.383 . S
C2106 C2105 1.379 . S
H2107 C2101 0.959 . S
H2108 C2101 0.961 . S
H2109 C2101 0.960 . S
H2110 C2102 0.930 . S
H2111 C2103 0.929 . S
C412 C373 1.145 . S
C393 C8 1.235 . S
C429 C23 0.994 . S
C448 C326 0.988 . S
C465 C35 1.249 . S
C484 C337 1.215 . S
C520 C362 0.843 . S
C501 C45 0.969 . S
C537 C22 1.227 . S
C556 C380 1.132 . S
C592 C319 0.811 . S
C573 C31 0.932 . S
C628 C344 1.105 . S
C609 C49 1.236 . S
C664 C355 0.883 . S
C645 C9 0.960 . S
C681 C65 1.218 . S
C700 C356 1.177 . S
C736 C382 0.877 . S
C717 C73 0.982 . S
C772 C320 1.257 . S
C753 C93 1.233 . S
C808 C346 0.871 . S
C789 C101 0.934 . S
C825 C59 1.204 . S
C844 C328 1.123 . S
C861 C79 0.965 . S
C880 C338 0.961 . S
C897 C87 1.192 . S
C916 C364 1.162 . S
C952 C374 1.030 . S
C933 C107 1.047 . S
C988 C211 1.250 . S
C969 C106 1.308 . S
C1024 C194 1.143 . S
C1005 C119 1.207 . S
C1060 C220 0.965 . S
C1041 C134 1.013 . S
C1096 C238 1.124 . S
C1077 C147 1.185 . S
C1113 C64 0.997 . S
C1132 C212 0.907 . S
C1149 C78 1.265 . S
C1168 C182 1.189 . S
C1185 C133 0.992 . S
C1204 C236 0.834 . S
C1221 C161 0.973 . S
C1240 C193 0.893 . S
C1276 C247 1.203 . S
C1257 C36 1.231 . S
C1312 C272 0.907 . S
C1293 C51 1.003 . S
C1329 C7 1.248 . S
C1348 C283 1.225 . S
C1365 C17 0.974 . S
C1384 C308 0.803 . S
C1420 C254 1.118 . S
C1401 C50 1.230 . S
C1456 C265 0.832 . S
C1437 C3 0.930 . S
C1473 C21 1.237 . S
C1492 C290 1.177 . S
C1528 C301 0.837 . S
C1509 C37 0.967 . S
C1545 C163 1.207 . S
C1564 C302 1.221 . S
C1581 C115 0.974 . S
C1600 C256 0.961 . S
C1636 C266 1.223 . S
C1617 C135 1.240 . S
C1653 C143 0.935 . S
C1672 C292 0.831 . S
C1708 C274 1.160 . S
C1689 C157 1.201 . S
C1725 C121 0.965 . S
C1744 C284 0.970 . S
C1780 C310 1.125 . S
C1761 C129 1.194 . S
C1816 C248 1.061 . S
C1797 C149 1.043 . S
C1852 C175 1.218 . S
C1833 C148 1.310 . S
C1888 C230 1.174 . S
C1869 C77 1.206 . S
C1905 C92 1.009 . S
C1924 C184 0.971 . S
C1960 C202 1.091 . S
C1941 C105 1.184 . S
C1996 C176 0.963 . S
C1977 C162 0.992 . S
C2013 C120 1.264 . S
C2032 C218 1.212 . S
C2049 C91 0.995 . S
C2068 C200 0.853 . S
C2085 C63 0.968 . S
C2104 C229 0.837 . S
