# Generated by pormake.
# Topology apo, (3,6)-cn, num edge types: 1
# Building blocks:
#     Node 0, Type 0, BuildingBlock: BETDAH_clean_linker_0, # of connection points: 3
#     Node 1, Type 0, BuildingBlock: BETDAH_clean_linker_0, # of connection points: 3
#     Node 2, Type 0, BuildingBlock: BETDAH_clean_linker_0, # of connection points: 3
#     Node 3, Type 0, BuildingBlock: BETDAH_clean_linker_0, # of connection points: 3
#     Node 4, Type 0, BuildingBlock: BETDAH_clean_linker_0, # of connection points: 3
#     Node 5, Type 0, BuildingBlock: BETDAH_clean_linker_0, # of connection points: 3
#     Node 6, Type 0, BuildingBlock: BETDAH_clean_linker_0, # of connection points: 3
#     Node 7, Type 0, BuildingBlock: BETDAH_clean_linker_0, # of connection points: 3
#     Node 8, Type 1, BuildingBlock: KUMJIN_clean_sbu_1, # of connection points: 6
#     Node 9, Type 1, BuildingBlock: KUMJIN_clean_sbu_1, # of connection points: 6
#     Node 10, Type 1, BuildingBlock: KUMJIN_clean_sbu_1, # of connection points: 6
#     Node 11, Type 1, BuildingBlock: KUMJIN_clean_sbu_1, # of connection points: 6
#     Edge 12, Type (0, 1), BuildingBlock: ZUJKAS_clean_linker_0, # of connection points: 2
#     Edge 13, Type (0, 1), BuildingBlock: ZUJKAS_clean_linker_0, # of connection points: 2
#     Edge 14, Type (0, 1), BuildingBlock: ZUJKAS_clean_linker_0, # of connection points: 2
#     Edge 15, Type (0, 1), BuildingBlock: ZUJKAS_clean_linker_0, # of connection points: 2
#     Edge 16, Type (0, 1), BuildingBlock: ZUJKAS_clean_linker_0, # of connection points: 2
#     Edge 17, Type (0, 1), BuildingBlock: ZUJKAS_clean_linker_0, # of connection points: 2
#     Edge 18, Type (0, 1), BuildingBlock: ZUJKAS_clean_linker_0, # of connection points: 2
#     Edge 19, Type (0, 1), BuildingBlock: ZUJKAS_clean_linker_0, # of connection points: 2
#     Edge 20, Type (0, 1), BuildingBlock: ZUJKAS_clean_linker_0, # of connection points: 2
#     Edge 21, Type (0, 1), BuildingBlock: ZUJKAS_clean_linker_0, # of connection points: 2
#     Edge 22, Type (0, 1), BuildingBlock: ZUJKAS_clean_linker_0, # of connection points: 2
#     Edge 23, Type (0, 1), BuildingBlock: ZUJKAS_clean_linker_0, # of connection points: 2
#     Edge 24, Type (0, 1), BuildingBlock: ZUJKAS_clean_linker_0, # of connection points: 2
#     Edge 25, Type (0, 1), BuildingBlock: ZUJKAS_clean_linker_0, # of connection points: 2
#     Edge 26, Type (0, 1), BuildingBlock: ZUJKAS_clean_linker_0, # of connection points: 2
#     Edge 27, Type (0, 1), BuildingBlock: ZUJKAS_clean_linker_0, # of connection points: 2
#     Edge 28, Type (0, 1), BuildingBlock: ZUJKAS_clean_linker_0, # of connection points: 2
#     Edge 29, Type (0, 1), BuildingBlock: ZUJKAS_clean_linker_0, # of connection points: 2
#     Edge 30, Type (0, 1), BuildingBlock: ZUJKAS_clean_linker_0, # of connection points: 2
#     Edge 31, Type (0, 1), BuildingBlock: ZUJKAS_clean_linker_0, # of connection points: 2
#     Edge 32, Type (0, 1), BuildingBlock: ZUJKAS_clean_linker_0, # of connection points: 2
#     Edge 33, Type (0, 1), BuildingBlock: ZUJKAS_clean_linker_0, # of connection points: 2
#     Edge 34, Type (0, 1), BuildingBlock: ZUJKAS_clean_linker_0, # of connection points: 2
#     Edge 35, Type (0, 1), BuildingBlock: ZUJKAS_clean_linker_0, # of connection points: 2
# Relax obj value: 0.037
# Max RMSD: 0.207
# Mean RMSD: 0.149
data_MOF--net-apo--node1-KUMJIN_clean_sbu_1--node2-BETDAH_clean_linker_0--edge1-ZUJKAS_clean_linker_0
_symmetry_space_group_name_H-M    P1
_symmetry_Int_Tables_number       1
_symmetry_cell_setting            triclinic
loop_
_symmetry_equiv_pos_as_xyz
'x, y, z'
_cell_length_a     35.243463
_cell_length_b     55.46937
_cell_length_c     65.164968
_cell_angle_alpha  89.613456
_cell_angle_beta   90.020747
_cell_angle_gamma 90.180457
loop_
_atom_site_label
_atom_site_type_symbol
_atom_site_fract_x
_atom_site_fract_y
_atom_site_fract_z
_atom_type_partial_charge
H0 H 0.33277 0.40425 0.42485 0.0
H1 H 0.25818 0.36976 0.38143 0.0
H2 H 0.25857 0.34724 0.44471 0.0
C3 C 0.31175 0.39057 0.42131 0.0
C4 C 0.29814 0.37565 0.43707 0.0
C5 C 0.29773 0.38867 0.4012 0.0
C6 C 0.26953 0.37127 0.39682 0.0
C7 C 0.25548 0.35628 0.41268 0.0
C8 C 0.26959 0.35883 0.43264 0.0
N9 N 0.225 0.33983 0.40985 0.0
C10 C 0.2187 0.32533 0.39284 0.0
H11 H 0.18402 0.09827 0.92815 0.0
H12 H 0.25628 0.13153 0.88235 0.0
H13 H 0.25702 0.15707 0.94433 0.0
C14 C 0.20563 0.11127 0.92387 0.0
C15 C 0.21889 0.12739 0.93876 0.0
C16 C 0.21922 0.11204 0.90349 0.0
C17 C 0.24526 0.13051 0.89783 0.0
C18 C 0.25836 0.14693 0.91274 0.0
C19 C 0.24557 0.14486 0.93296 0.0
N20 N 0.28632 0.16494 0.90898 0.0
C21 C 0.29763 0.17538 0.89049 0.0
H22 H 0.82057 0.09554 0.58337 0.0
H23 H 0.77883 0.14213 0.63092 0.0
H24 H 0.78031 0.16654 0.56831 0.0
C25 C 0.80712 0.11223 0.58792 0.0
C26 C 0.80075 0.13032 0.57319 0.0
C27 C 0.79936 0.11624 0.60876 0.0
C28 C 0.78388 0.13854 0.61483 0.0
C29 C 0.77682 0.15657 0.60001 0.0
C30 C 0.78532 0.1523 0.57945 0.0
N31 N 0.76555 0.18025 0.60517 0.0
C32 C 0.74022 0.18658 0.62048 0.0
H33 H 0.68826 0.40996 0.08263 0.0
H34 H 0.75061 0.36922 0.12818 0.0
H35 H 0.74861 0.34644 0.06512 0.0
C36 C 0.70642 0.39494 0.08678 0.0
C37 C 0.71676 0.3784 0.07173 0.0
C38 C 0.71811 0.39176 0.10725 0.0
C39 C 0.74107 0.37171 0.11251 0.0
C40 C 0.75268 0.35557 0.09703 0.0
C41 C 0.74004 0.35902 0.07691 0.0
N42 N 0.7784 0.33626 0.10026 0.0
C43 C 0.78888 0.32533 0.11864 0.0
H44 H 0.67889 0.60327 0.58141 0.0
H45 H 0.75471 0.63499 0.6258 0.0
H46 H 0.75665 0.65899 0.56279 0.0
C47 C 0.70079 0.61627 0.58526 0.0
C48 C 0.7156 0.63131 0.56987 0.0
C49 C 0.71479 0.61734 0.60543 0.0
C50 C 0.74339 0.6343 0.61036 0.0
C51 C 0.75824 0.64966 0.59495 0.0
C52 C 0.7446 0.64766 0.57476 0.0
N53 N 0.78957 0.66542 0.59839 0.0
C54 C 0.79568 0.68018 0.61536 0.0
H55 H 0.80619 0.91637 0.08099 0.0
H56 H 0.77098 0.84263 0.07334 0.0
H57 H 0.77121 0.87373 0.13316 0.0
C58 C 0.79456 0.89984 0.08733 0.0
C59 C 0.78911 0.89783 0.10867 0.0
C60 C 0.78806 0.88013 0.07427 0.0
C61 C 0.7739 0.85852 0.0828 0.0
C62 C 0.76712 0.85636 0.10394 0.0
C63 C 0.77458 0.87604 0.11674 0.0
N64 N 0.7638 0.833 0.1127 0.0
C65 C 0.72995 0.82187 0.11842 0.0
H66 H 0.18244 0.90554 0.42488 0.0
H67 H 0.25215 0.86937 0.38052 0.0
H68 H 0.2476 0.84333 0.44264 0.0
C69 C 0.20131 0.89085 0.42109 0.0
C70 C 0.21225 0.87431 0.43637 0.0
C71 C 0.21502 0.88911 0.40091 0.0
C72 C 0.24045 0.87042 0.39585 0.0
C73 C 0.25269 0.85425 0.41126 0.0
C74 C 0.23819 0.85621 0.43117 0.0
N75 N 0.28295 0.83777 0.40843 0.0
C76 C 0.29074 0.82397 0.39121 0.0
H77 H 0.30126 0.59094 0.92706 0.0
H78 H 0.27242 0.66574 0.93276 0.0
H79 H 0.28052 0.63433 0.87316 0.0
C80 C 0.2932 0.60787 0.91992 0.0
C81 C 0.29181 0.60982 0.89846 0.0
C82 C 0.28757 0.62802 0.93241 0.0
C83 C 0.27546 0.64976 0.92342 0.0
C84 C 0.27127 0.65166 0.90205 0.0
C85 C 0.28009 0.63184 0.88966 0.0
N86 N 0.2686 0.67475 0.89283 0.0
C87 C 0.23469 0.68642 0.88842 0.0
Eu88 Eu 0.05217 0.10559 0.23438 0.0
C89 C 0.88508 0.0894 0.26078 0.0
N90 N 0.90644 0.10994 0.26028 0.0
C91 C 0.85371 0.13197 0.24638 0.0
C92 C 0.84734 0.08938 0.25352 0.0
C93 C 0.89065 0.13128 0.25412 0.0
C94 C 0.83208 0.11089 0.24587 0.0
C95 C 0.87766 0.0476 0.27174 0.0
C96 C 0.89994 0.06866 0.26992 0.0
C97 C 0.84058 0.04741 0.2639 0.0
C98 C 0.82546 0.06822 0.25484 0.0
Eu99 Eu 0.96702 0.10662 0.27578 0.0
N100 N 0.93581 0.06927 0.27761 0.0
C101 C 0.89298 0.02752 0.2819 0.0
C102 C 0.9501 0.0503 0.28857 0.0
C103 C 0.92923 0.02896 0.2905 0.0
H104 H 0.90564 0.14811 0.25587 0.0
H105 H 0.94089 0.01375 0.29883 0.0
H106 H 0.11322 0.06382 0.25226 0.0
H107 H 0.07362 0.20158 0.21857 0.0
H108 H 0.97766 0.05169 0.29572 0.0
H109 H 0.87671 0.01103 0.2836 0.0
H110 H 0.03833 0.16326 0.21891 0.0
H111 H 0.84159 0.1489 0.24132 0.0
H112 H 0.82305 0.03139 0.26516 0.0
H113 H 0.79645 0.06794 0.24933 0.0
H114 H 0.17869 0.06217 0.26541 0.0
H115 H 0.80317 0.11161 0.24025 0.0
H116 H 0.13944 0.20305 0.23166 0.0
N117 N 0.11388 0.10185 0.24772 0.0
C118 C 0.13511 0.12237 0.24754 0.0
C119 C 0.16667 0.07924 0.26063 0.0
C120 C 0.17307 0.12209 0.25441 0.0
C121 C 0.12932 0.08032 0.2535 0.0
C122 C 0.1886 0.10023 0.26119 0.0
N123 N 0.08229 0.14357 0.2336 0.0
C124 C 0.06627 0.16382 0.22549 0.0
C125 C 0.14054 0.16519 0.23991 0.0
C126 C 0.11893 0.14375 0.24032 0.0
C127 C 0.12374 0.18624 0.23227 0.0
C128 C 0.08653 0.18551 0.22493 0.0
H129 H 0.21766 0.0993 0.26657 0.0
H130 H 0.22368 0.14358 0.25927 0.0
H131 H 0.19526 0.18125 0.24661 0.0
O132 O 0.0724 0.11414 0.20335 0.0
O133 O 0.06183 0.12262 0.26588 0.0
O134 O 0.00424 0.13972 0.27319 0.0
O135 O 0.0761 0.07707 0.21525 0.0
O136 O 0.99982 0.12632 0.22427 0.0
O137 O 0.97103 0.13927 0.25432 0.0
O138 O 0.97521 0.10775 0.3098 0.0
O139 O 0.97211 0.07516 0.25371 0.0
O140 O 0.99348 0.09361 0.22462 0.0
O141 O 0.92182 0.11764 0.29556 0.0
O142 O 0.02223 0.08859 0.28528 0.0
O143 O 0.04518 0.07247 0.25497 0.0
C144 C 0.0413 0.13931 0.27477 0.0
C145 C 0.0996 0.08423 0.18048 0.0
C146 C 0.10854 0.08825 0.1434 0.0
C147 C 0.13241 0.06802 0.14394 0.0
C148 C 0.12349 0.06406 0.18052 0.0
C149 C 0.13996 0.05614 0.16236 0.0
C150 C 0.09255 0.09666 0.16184 0.0
C151 C 0.97619 0.1403 0.23428 0.0
C152 C 0.08244 0.09195 0.19999 0.0
C153 C 0.19446 0.14348 0.25409 0.0
C154 C 0.17826 0.16494 0.24687 0.0
C155 C 0.97319 0.07689 0.23368 0.0
C156 C 0.92619 0.1271 0.33081 0.0
C157 C 0.91508 0.12792 0.36772 0.0
C158 C 0.88878 0.14658 0.36483 0.0
C159 C 0.90019 0.14615 0.32839 0.0
C160 C 0.93355 0.11793 0.35065 0.0
C161 C 0.88146 0.15564 0.3453 0.0
C162 C 0.04249 0.07259 0.2752 0.0
C163 C 0.94002 0.11417 0.31259 0.0
H164 H 0.14558 0.06152 0.13001 0.0
H165 H 0.12971 0.05448 0.19466 0.0
H166 H 0.15861 0.04068 0.16256 0.0
H167 H 0.07422 0.11231 0.16158 0.0
H168 H 0.87357 0.15402 0.37777 0.0
H169 H 0.89324 0.1532 0.31331 0.0
H170 H 0.95273 0.10287 0.35274 0.0
H171 H 0.86081 0.16986 0.34324 0.0
Eu172 Eu 0.46785 0.40093 0.7334 0.0
C173 C 0.63731 0.41721 0.76142 0.0
N174 N 0.61703 0.39634 0.76084 0.0
C175 C 0.67095 0.37525 0.74771 0.0
C176 C 0.67545 0.41787 0.75488 0.0
C177 C 0.63329 0.37545 0.75438 0.0
C178 C 0.69213 0.39656 0.74791 0.0
C179 C 0.64027 0.45992 0.76923 0.0
C180 C 0.61978 0.43806 0.76846 0.0
C181 C 0.67826 0.46059 0.76273 0.0
C182 C 0.69578 0.43964 0.75557 0.0
Eu183 Eu 0.55469 0.39826 0.77374 0.0
N184 N 0.5828 0.43697 0.77455 0.0
C185 C 0.62211 0.48044 0.77674 0.0
C186 C 0.56558 0.45667 0.78269 0.0
C187 C 0.58471 0.47875 0.78364 0.0
H188 H 0.61763 0.35878 0.755 0.0
H189 H 0.57077 0.49437 0.79 0.0
H190 H 0.40424 0.44028 0.75175 0.0
H191 H 0.4495 0.30646 0.71204 0.0
H192 H 0.5376 0.45539 0.78905 0.0
H193 H 0.63693 0.49754 0.77764 0.0
H194 H 0.48381 0.34474 0.7157 0.0
H195 H 0.68375 0.3586 0.74265 0.0
H196 H 0.69441 0.47723 0.76326 0.0
H197 H 0.72513 0.44046 0.75067 0.0
H198 H 0.33769 0.44052 0.76336 0.0
H199 H 0.72139 0.39632 0.74282 0.0
H200 H 0.38214 0.3036 0.72242 0.0
N201 N 0.40423 0.40316 0.74441 0.0
C202 C 0.38322 0.38274 0.74232 0.0
C203 C 0.35022 0.42408 0.75767 0.0
C204 C 0.34474 0.38215 0.74827 0.0
C205 C 0.38817 0.42382 0.75148 0.0
C206 C 0.32844 0.40311 0.75618 0.0
N207 N 0.43803 0.36299 0.72976 0.0
C208 C 0.45526 0.34355 0.7212 0.0
C209 C 0.37926 0.34076 0.73223 0.0
C210 C 0.40042 0.36223 0.73448 0.0
C211 C 0.39739 0.32042 0.72437 0.0
C212 C 0.43547 0.3219 0.71866 0.0
H213 H 0.29899 0.40336 0.76095 0.0
H214 H 0.29421 0.35996 0.7507 0.0
H215 H 0.32436 0.32377 0.7366 0.0
O216 O 0.47288 0.39744 0.69951 0.0
O217 O 0.45599 0.37984 0.76308 0.0
O218 O 0.51435 0.36648 0.7746 0.0
O219 O 0.43174 0.42194 0.71349 0.0
O220 O 0.52226 0.38166 0.72433 0.0
O221 O 0.5468 0.36527 0.7541 0.0
O222 O 0.55705 0.4038 0.80754 0.0
O223 O 0.56494 0.41645 0.74254 0.0
O224 O 0.50706 0.43314 0.73577 0.0
O225 O 0.59229 0.37683 0.79243 0.0
O226 O 0.50011 0.41647 0.78392 0.0
O227 O 0.4739 0.43292 0.75454 0.0
C228 C 0.47708 0.36605 0.77504 0.0
C229 C 0.43337 0.42268 0.67669 0.0
C230 C 0.41975 0.41788 0.64031 0.0
C231 C 0.40679 0.44175 0.63947 0.0
C232 C 0.42018 0.44653 0.67549 0.0
C233 C 0.40709 0.45598 0.65696 0.0
C234 C 0.43341 0.4083 0.65894 0.0
C235 C 0.54211 0.36511 0.73409 0.0
C236 C 0.44595 0.41321 0.69671 0.0
C237 C 0.32377 0.36075 0.74617 0.0
C238 C 0.34094 0.34015 0.73812 0.0
C239 C 0.54383 0.43244 0.73294 0.0
C240 C 0.60006 0.3791 0.82908 0.0
C241 C 0.60733 0.38063 0.86627 0.0
C242 C 0.63326 0.36154 0.86531 0.0
C243 C 0.62635 0.36005 0.82861 0.0
C244 C 0.59069 0.38961 0.84811 0.0
C245 C 0.64276 0.35139 0.84659 0.0
C246 C 0.47829 0.43235 0.77459 0.0
C247 C 0.5826 0.38696 0.80954 0.0
H248 H 0.39593 0.44926 0.62525 0.0
H249 H 0.41992 0.45792 0.68893 0.0
H250 H 0.39682 0.47433 0.65621 0.0
H251 H 0.44298 0.38975 0.65971 0.0
H252 H 0.64646 0.35459 0.87915 0.0
H253 H 0.63424 0.35163 0.8143 0.0
H254 H 0.57066 0.40437 0.84881 0.0
H255 H 0.6629 0.33673 0.84602 0.0
Eu256 Eu 0.04459 0.90076 0.73534 0.0
C257 C 0.87787 0.88444 0.76467 0.0
N258 N 0.89899 0.90501 0.76429 0.0
C259 C 0.84601 0.92731 0.75121 0.0
C260 C 0.83996 0.88451 0.75772 0.0
C261 C 0.88335 0.92644 0.75838 0.0
C262 C 0.82429 0.90623 0.75073 0.0
C263 C 0.8726 0.84174 0.77288 0.0
C264 C 0.89409 0.86322 0.77222 0.0
C265 C 0.835 0.84176 0.76574 0.0
C266 C 0.81874 0.86306 0.7582 0.0
Eu267 Eu 0.96082 0.90152 0.7776 0.0
N268 N 0.93065 0.86361 0.77906 0.0
C269 C 0.88939 0.82091 0.78096 0.0
C270 C 0.94658 0.84363 0.7877 0.0
C271 C 0.92642 0.82192 0.78854 0.0
H272 H 0.89922 0.94303 0.75954 0.0
H273 H 0.93927 0.80605 0.7953 0.0
H274 H 0.10529 0.85746 0.75326 0.0
H275 H 0.07574 0.99319 0.71312 0.0
H276 H 0.97433 0.8445 0.7945 0.0
H277 H 0.87376 0.80408 0.78178 0.0
H278 H 0.03706 0.95589 0.71591 0.0
H279 H 0.83385 0.94429 0.74631 0.0
H280 H 0.8181 0.82541 0.76615 0.0
H281 H 0.78958 0.86279 0.75292 0.0
H282 H 0.16868 0.85537 0.76862 0.0
H283 H 0.79526 0.90701 0.74529 0.0
H284 H 0.13951 0.99473 0.72902 0.0
N285 N 0.10553 0.89582 0.75023 0.0
C286 C 0.12744 0.91611 0.75064 0.0
C287 C 0.15718 0.87264 0.76396 0.0
C288 C 0.16485 0.91544 0.75837 0.0
C289 C 0.12065 0.87404 0.75571 0.0
C290 C 0.1792 0.89347 0.76557 0.0
N291 N 0.07781 0.93745 0.73408 0.0
C292 C 0.06461 0.95675 0.72315 0.0
C293 C 0.13666 0.95807 0.74061 0.0
C294 C 0.11354 0.93732 0.74193 0.0
C295 C 0.12254 0.97848 0.73041 0.0
C296 C 0.08653 0.97772 0.72143 0.0
H297 H 0.20779 0.89222 0.7716 0.0
H298 H 0.21603 0.93619 0.76388 0.0
H299 H 0.19137 0.97346 0.7483 0.0
O300 O 0.03354 0.90338 0.70219 0.0
O301 O 0.04039 0.93226 0.75764 0.0
O302 O 0.01969 0.914 0.78697 0.0
O303 O 0.08743 0.89026 0.71319 0.0
O304 O 0.98837 0.91794 0.72705 0.0
O305 O 0.96691 0.93485 0.75722 0.0
O306 O 0.94135 0.89309 0.80895 0.0
O307 O 0.95033 0.88378 0.74627 0.0
O308 O 0.00749 0.86721 0.73668 0.0
O309 O 0.93728 0.92996 0.7968 0.0
O310 O 0.01376 0.88094 0.78667 0.0
O311 O 0.04066 0.86758 0.75622 0.0
C312 C 0.03907 0.93108 0.77774 0.0
C313 C 0.07071 0.87967 0.67952 0.0
C314 C 0.09 0.87427 0.64397 0.0
C315 C 0.08799 0.8492 0.6468 0.0
C316 C 0.06846 0.85459 0.68207 0.0
C317 C 0.07697 0.83945 0.6657 0.0
C318 C 0.08092 0.88953 0.66034 0.0
C319 C 0.9699 0.9347 0.73705 0.0
C320 C 0.06711 0.89569 0.69719 0.0
C321 C 0.18732 0.9364 0.75792 0.0
C322 C 0.17331 0.95763 0.74902 0.0
C323 C 0.97017 0.86701 0.73692 0.0
C324 C 0.91424 0.92342 0.83175 0.0
C325 C 0.90099 0.91842 0.86844 0.0
C326 C 0.88279 0.9409 0.8683 0.0
C327 C 0.8957 0.94578 0.83215 0.0
C328 C 0.9164 0.90947 0.85001 0.0
C329 C 0.88 0.95436 0.85027 0.0
C330 C 0.0356 0.86623 0.77626 0.0
C331 C 0.93124 0.91529 0.81223 0.0
H332 H 0.09516 0.83716 0.63437 0.0
H333 H 0.06111 0.84677 0.69683 0.0
H334 H 0.07574 0.82009 0.66775 0.0
H335 H 0.0834 0.90891 0.65842 0.0
H336 H 0.8703 0.94795 0.88221 0.0
H337 H 0.89322 0.9567 0.81837 0.0
H338 H 0.93047 0.89212 0.85 0.0
H339 H 0.86564 0.97158 0.85037 0.0
Eu340 Eu 0.45845 0.60436 0.23154 0.0
C341 C 0.62668 0.62324 0.25735 0.0
N342 N 0.60687 0.60214 0.25809 0.0
C343 C 0.6608 0.5806 0.24552 0.0
C344 C 0.66465 0.62371 0.25055 0.0
C345 C 0.62342 0.58091 0.25264 0.0
C346 C 0.68152 0.60208 0.24446 0.0
C347 C 0.62926 0.66644 0.26331 0.0
C348 C 0.60899 0.64448 0.26353 0.0
C349 C 0.66711 0.66688 0.2566 0.0
C350 C 0.6847 0.64562 0.25019 0.0
Eu351 Eu 0.54511 0.60486 0.27157 0.0
N352 N 0.57211 0.64368 0.2698 0.0
C353 C 0.61107 0.68728 0.27016 0.0
C354 C 0.55485 0.6637 0.27733 0.0
C355 C 0.57381 0.68586 0.27734 0.0
H356 H 0.60826 0.56408 0.25427 0.0
H357 H 0.5599 0.70174 0.28323 0.0
H358 H 0.39361 0.64517 0.24653 0.0
H359 H 0.44298 0.50802 0.21743 0.0
H360 H 0.52699 0.66261 0.28392 0.0
H361 H 0.62577 0.70446 0.27036 0.0
H362 H 0.47634 0.54696 0.21823 0.0
H363 H 0.67381 0.56375 0.24114 0.0
H364 H 0.68311 0.6836 0.25639 0.0
H365 H 0.71396 0.64628 0.24511 0.0
H366 H 0.3271 0.64577 0.25814 0.0
H367 H 0.71063 0.60173 0.23913 0.0
H368 H 0.37616 0.50531 0.22882 0.0
N369 N 0.39524 0.6072 0.24298 0.0
C370 C 0.37516 0.58622 0.24299 0.0
C371 C 0.34036 0.62888 0.25413 0.0
C372 C 0.33662 0.58584 0.24881 0.0
C373 C 0.37832 0.62844 0.24798 0.0
C374 C 0.31943 0.60747 0.25463 0.0
N375 N 0.43065 0.5657 0.23196 0.0
C376 C 0.44813 0.54581 0.22434 0.0
C377 C 0.37261 0.54316 0.23647 0.0
C378 C 0.39317 0.56499 0.23711 0.0
C379 C 0.39107 0.52238 0.2297 0.0
C380 C 0.42887 0.52379 0.2234 0.0
H381 H 0.2899 0.6079 0.25922 0.0
H382 H 0.28672 0.56341 0.25288 0.0
H383 H 0.31806 0.52615 0.24188 0.0
O384 O 0.46518 0.59903 0.19826 0.0
O385 O 0.44908 0.58542 0.26237 0.0
O386 O 0.50734 0.57196 0.2739 0.0
O387 O 0.41612 0.61759 0.21005 0.0
O388 O 0.51406 0.58567 0.22306 0.0
O389 O 0.53909 0.57046 0.25326 0.0
O390 O 0.54345 0.61263 0.30472 0.0
O391 O 0.55235 0.62252 0.23989 0.0
O392 O 0.49411 0.63829 0.23136 0.0
O393 O 0.58807 0.59053 0.29225 0.0
O394 O 0.48974 0.62306 0.28079 0.0
O395 O 0.46209 0.63797 0.25112 0.0
C396 C 0.47003 0.57144 0.27418 0.0
C397 C 0.4311 0.62498 0.17536 0.0
C398 C 0.4132 0.62932 0.13938 0.0
C399 C 0.41582 0.65445 0.14128 0.0
C400 C 0.43396 0.65014 0.17692 0.0
C401 C 0.42637 0.66477 0.1599 0.0
C402 C 0.42112 0.61455 0.15644 0.0
C403 C 0.53504 0.56996 0.23319 0.0
C404 C 0.43323 0.60965 0.1938 0.0
C405 C 0.31636 0.56402 0.2485 0.0
C406 C 0.33424 0.54278 0.24227 0.0
C407 C 0.53128 0.6387 0.23049 0.0
C408 C 0.57686 0.58655 0.32805 0.0
C409 C 0.59188 0.58561 0.36476 0.0
C410 C 0.59303 0.56035 0.36403 0.0
C411 C 0.57763 0.56124 0.32782 0.0
C412 C 0.58357 0.59872 0.34671 0.0
C413 C 0.58569 0.54828 0.34572 0.0
C414 C 0.46739 0.63845 0.27116 0.0
C415 C 0.57418 0.60041 0.30865 0.0
H416 H 0.40926 0.66609 0.12834 0.0
H417 H 0.44098 0.65848 0.19143 0.0
H418 H 0.42792 0.68418 0.16125 0.0
H419 H 0.41799 0.59516 0.15523 0.0
H420 H 0.59993 0.54996 0.37766 0.0
H421 H 0.57306 0.5515 0.31367 0.0
H422 H 0.58381 0.61826 0.34701 0.0
H423 H 0.58694 0.5288 0.34533 0.0
H424 H 0.22302 0.93767 0.40416 0.0
H425 H 0.19508 0.96893 0.38218 0.0
H426 H 0.15048 0.91406 0.3422 0.0
H427 H 0.17856 0.88263 0.36426 0.0
H428 H 0.20467 0.97913 0.33958 0.0
H429 H 0.05612 0.95438 0.35908 0.0
H430 H 0.09627 0.94476 0.37425 0.0
H431 H 0.08515 0.92975 0.35066 0.0
C432 C 0.20772 0.93232 0.3905 0.0
C433 C 0.20307 0.90776 0.38581 0.0
C434 C 0.19168 0.95017 0.37801 0.0
C435 C 0.17021 0.94383 0.36073 0.0
C436 C 0.16652 0.91933 0.35563 0.0
H437 H 0.05322 0.02526 0.26551 0.0
H438 H 0.08473 0.99417 0.28647 0.0
C439 C 0.18293 0.90142 0.36805 0.0
C440 C 0.15143 0.96289 0.34822 0.0
H441 H 0.06461 0.98366 0.33282 0.0
C442 C 0.17407 0.98012 0.3381 0.0
C443 C 0.11144 0.96443 0.34661 0.0
C444 C 0.08568 0.94752 0.35836 0.0
C445 C 0.15779 0.99841 0.32594 0.0
C446 C 0.11791 0.99952 0.32389 0.0
C447 C 0.09522 0.98253 0.33422 0.0
C448 C 0.09926 0.01835 0.31119 0.0
C449 C 0.18322 0.01634 0.31514 0.0
C450 C 0.09682 0.04213 0.31824 0.0
C451 C 0.07838 0.05975 0.30648 0.0
C452 C 0.06257 0.05396 0.28732 0.0
C453 C 0.06546 0.03021 0.28015 0.0
C454 C 0.0833 0.01248 0.29211 0.0
H455 H 0.21362 0.01122 0.31612 0.0
H456 H 0.17507 0.01798 0.29872 0.0
H457 H 0.17971 0.03434 0.32222 0.0
H458 H 0.10889 0.047 0.33294 0.0
H459 H 0.07674 0.07797 0.31229 0.0
H460 H 0.27044 0.59577 0.85949 0.0
H461 H 0.30103 0.56552 0.83782 0.0
H462 H 0.37938 0.54876 0.88657 0.0
H463 H 0.35111 0.57961 0.90781 0.0
H464 H 0.39065 0.56536 0.83076 0.0
H465 H 0.32654 0.48254 0.8651 0.0
H466 H 0.30306 0.51146 0.8659 0.0
H467 H 0.34309 0.50572 0.88218 0.0
C468 C 0.29423 0.58574 0.86562 0.0
C469 C 0.30782 0.59014 0.88558 0.0
C470 C 0.31147 0.56837 0.85325 0.0
C471 C 0.34212 0.55487 0.86076 0.0
C472 C 0.3554 0.55885 0.88066 0.0
H473 H 0.47652 0.43591 0.81645 0.0
H474 H 0.44607 0.467 0.83695 0.0
C475 C 0.33873 0.57639 0.89287 0.0
C476 C 0.36174 0.53735 0.84759 0.0
H477 H 0.37474 0.47714 0.84055 0.0
C478 C 0.38705 0.54605 0.8327 0.0
C479 C 0.35748 0.51229 0.85063 0.0
C480 C 0.33097 0.50227 0.86674 0.0
C481 C 0.40876 0.53021 0.82081 0.0
C482 C 0.40389 0.505 0.82346 0.0
C483 C 0.37843 0.49641 0.83844 0.0
C484 C 0.42458 0.48713 0.81086 0.0
C485 C 0.43758 0.54075 0.80613 0.0
C486 C 0.42311 0.48821 0.78936 0.0
C487 C 0.44154 0.47089 0.77759 0.0
C488 C 0.46025 0.45141 0.78706 0.0
C489 C 0.46187 0.45043 0.80861 0.0
C490 C 0.44439 0.46818 0.82038 0.0
H491 H 0.44664 0.55909 0.81089 0.0
H492 H 0.46313 0.52918 0.80502 0.0
H493 H 0.42463 0.5424 0.79066 0.0
H494 H 0.40731 0.50229 0.78161 0.0
H495 H 0.44076 0.47272 0.76105 0.0
H496 H 0.64569 0.61721 0.62393 0.0
H497 H 0.61808 0.58549 0.64582 0.0
H498 H 0.72163 0.54464 0.64098 0.0
H499 H 0.74959 0.57682 0.61974 0.0
H500 H 0.60337 0.53913 0.637 0.0
H501 H 0.70533 0.54161 0.70179 0.0
H502 H 0.70346 0.56505 0.68249 0.0
H503 H 0.72737 0.53712 0.67732 0.0
C504 C 0.66279 0.60172 0.62806 0.0
C505 C 0.70008 0.59972 0.62071 0.0
C506 C 0.64694 0.5835 0.64039 0.0
C507 C 0.66792 0.56276 0.64545 0.0
C508 C 0.70519 0.56072 0.63792 0.0
H509 H 0.61611 0.43285 0.71724 0.0
H510 H 0.64528 0.46349 0.69501 0.0
C511 C 0.72121 0.5791 0.62579 0.0
C512 C 0.65023 0.54301 0.65795 0.0
H513 H 0.66113 0.50943 0.70176 0.0
C514 C 0.61595 0.53271 0.65121 0.0
C515 C 0.66664 0.53443 0.67645 0.0
C516 C 0.70253 0.54525 0.68507 0.0
C517 C 0.59795 0.514 0.66226 0.0
C518 C 0.61421 0.50558 0.68087 0.0
C519 C 0.64861 0.51577 0.68751 0.0
C520 C 0.59588 0.48657 0.69392 0.0
C521 C 0.56216 0.50308 0.65356 0.0
C522 C 0.5585 0.48934 0.70101 0.0
C523 C 0.54164 0.47172 0.71355 0.0
C524 C 0.562 0.4511 0.71967 0.0
C525 C 0.59964 0.44852 0.71288 0.0
C526 C 0.61634 0.46604 0.70012 0.0
H527 H 0.56013 0.50606 0.63671 0.0
H528 H 0.56069 0.4834 0.6567 0.0
H529 H 0.53717 0.51175 0.66072 0.0
H530 H 0.54241 0.50532 0.69709 0.0
H531 H 0.51274 0.47446 0.71866 0.0
H532 H 0.78631 0.94717 0.1031 0.0
H533 H 0.8177 0.97814 0.12366 0.0
H534 H 0.85542 0.92361 0.1664 0.0
H535 H 0.82624 0.89248 0.14544 0.0
H536 H 0.80891 0.99253 0.16298 0.0
H537 H 0.95425 0.95672 0.15299 0.0
H538 H 0.91466 0.94666 0.13767 0.0
H539 H 0.92193 0.9346 0.16308 0.0
C540 C 0.80145 0.94171 0.11682 0.0
C541 C 0.80376 0.91718 0.12248 0.0
C542 C 0.81925 0.95949 0.12861 0.0
C543 C 0.83972 0.95317 0.14633 0.0
C544 C 0.84069 0.92889 0.15251 0.0
H545 H 0.95077 0.03122 0.24444 0.0
H546 H 0.9178 1.00167 0.22293 0.0
C547 C 0.82324 0.9111 0.14066 0.0
C548 C 0.85987 0.97189 0.15848 0.0
H549 H 0.94642 0.98675 0.17865 0.0
C550 C 0.83902 0.99134 0.16628 0.0
C551 C 0.8993 0.9705 0.16263 0.0
C552 C 0.92395 0.95114 0.15348 0.0
C553 C 0.85628 0.00895 0.1786 0.0
C554 C 0.8953 0.00707 0.18324 0.0
C555 C 0.91634 0.98792 0.17524 0.0
C556 C 0.91482 0.02503 0.19628 0.0
C557 C 0.83271 0.02931 0.18692 0.0
C558 C 0.92413 0.04785 0.18834 0.0
C559 C 0.94305 0.0647 0.20054 0.0
C560 C 0.95272 0.05908 0.22096 0.0
C561 C 0.94322 0.0362 0.22888 0.0
C562 C 0.92461 0.01926 0.21659 0.0
H563 H 0.80196 0.02676 0.18385 0.0
H564 H 0.83709 0.03095 0.20374 0.0
H565 H 0.84195 0.04653 0.1797 0.0
H566 H 0.91692 0.05256 0.17266 0.0
H567 H 0.9499 0.0822 0.19403 0.0
H568 H 0.78262 0.06818 0.60927 0.0
H569 H 0.8097 0.03703 0.63173 0.0
H570 H 0.87408 0.09153 0.66352 0.0
H571 H 0.84606 0.12272 0.64155 0.0
H572 H 0.88277 0.0239 0.63625 0.0
H573 H 0.82858 0.05575 0.71109 0.0
H574 H 0.81068 0.06706 0.68696 0.0
H575 H 0.85452 0.07849 0.6973 0.0
C576 C 0.8019 0.07349 0.62139 0.0
C577 C 0.81168 0.09788 0.62399 0.0
C578 C 0.81755 0.0557 0.6341 0.0
C579 C 0.84348 0.06194 0.64957 0.0
C580 C 0.85326 0.08632 0.65215 0.0
H581 H 0.97845 0.98332 0.73922 0.0
H582 H 0.94896 0.01382 0.71685 0.0
C583 C 0.83721 0.10415 0.63962 0.0
C584 C 0.8613 0.04289 0.66251 0.0
H585 H 0.87619 0.0256 0.71225 0.0
C586 C 0.88114 0.02417 0.65287 0.0
C587 C 0.85923 0.04324 0.68419 0.0
C588 C 0.83679 0.06208 0.6955 0.0
C589 C 0.89971 0.00616 0.66433 0.0
C590 C 0.89785 0.00666 0.68604 0.0
C591 C 0.87783 0.02529 0.69563 0.0
C592 C 0.91626 0.98808 0.69922 0.0
C593 C 0.92199 0.9872 0.65304 0.0
C594 C 0.90739 0.96353 0.69695 0.0
C595 C 0.92475 0.94619 0.70943 0.0
C596 C 0.95027 0.95317 0.72482 0.0
C597 C 0.95841 0.97767 0.72757 0.0
C598 C 0.94174 0.995 0.71475 0.0
H599 H 0.92947 0.9932 0.63724 0.0
H600 H 0.94851 0.98258 0.66137 0.0
H601 H 0.9045 0.97061 0.65173 0.0
H602 H 0.8869 0.95775 0.68561 0.0
H603 H 0.91796 0.92731 0.70721 0.0
H604 H 0.67658 0.38355 0.14208 0.0
H605 H 0.64626 0.4139 0.16391 0.0
H606 H 0.69997 0.47053 0.1286 0.0
H607 H 0.72907 0.4403 0.10644 0.0
H608 H 0.67255 0.44898 0.18841 0.0
H609 H 0.59172 0.49167 0.12496 0.0
H610 H 0.61631 0.46344 0.12193 0.0
H611 H 0.64193 0.49154 0.12062 0.0
C612 C 0.68231 0.40247 0.13925 0.0
C613 C 0.70518 0.4096 0.12263 0.0
C614 C 0.66478 0.41983 0.1516 0.0
C615 C 0.66992 0.4446 0.1476 0.0
C616 C 0.69444 0.45163 0.13163 0.0
H617 H 0.58246 0.57726 0.20086 0.0
H618 H 0.61601 0.54672 0.18074 0.0
C619 C 0.71151 0.43434 0.11915 0.0
C620 C 0.64981 0.46303 0.16014 0.0
H621 H 0.59066 0.51172 0.15699 0.0
C622 C 0.65448 0.46261 0.18154 0.0
C623 C 0.62624 0.48093 0.15122 0.0
C624 C 0.61841 0.48184 0.12845 0.0
C625 C 0.63705 0.47981 0.19419 0.0
C626 C 0.61346 0.49771 0.1853 0.0
C627 C 0.60874 0.4981 0.16388 0.0
C628 C 0.59357 0.51625 0.19787 0.0
C629 C 0.6451 0.47897 0.21692 0.0
C630 C 0.56956 0.50946 0.21419 0.0
C631 C 0.55137 0.52695 0.22606 0.0
C632 C 0.55561 0.55153 0.22133 0.0
C633 C 0.57875 0.55837 0.20474 0.0
C634 C 0.59782 0.54093 0.19324 0.0
H635 H 0.67177 0.4691 0.22035 0.0
H636 H 0.64738 0.4974 0.22337 0.0
H637 H 0.62162 0.46934 0.22485 0.0
H638 H 0.56453 0.49061 0.21764 0.0
H639 H 0.53305 0.52126 0.23854 0.0
H640 H 0.25781 0.41779 0.37469 0.0
H641 H 0.28374 0.44966 0.35215 0.0
H642 H 0.39711 0.43064 0.37101 0.0
H643 H 0.37162 0.39875 0.39303 0.0
H644 H 0.33172 0.48984 0.3643 0.0
H645 H 0.40309 0.43054 0.3081 0.0
H646 H 0.36618 0.41981 0.32511 0.0
H647 H 0.41387 0.42358 0.33441 0.0
C648 C 0.28827 0.42008 0.37357 0.0
C649 C 0.31273 0.40563 0.38542 0.0
C650 C 0.30301 0.43843 0.36092 0.0
C651 C 0.34238 0.44235 0.35978 0.0
C652 C 0.36672 0.4277 0.3714 0.0
H653 H 0.50227 0.53695 0.29895 0.0
H654 H 0.46986 0.50714 0.32055 0.0
C655 C 0.3521 0.4095 0.38399 0.0
C656 C 0.35855 0.4619 0.34678 0.0
H657 H 0.42044 0.47195 0.30733 0.0
C658 C 0.35076 0.486 0.35167 0.0
C659 C 0.38362 0.4568 0.33045 0.0
C660 C 0.39199 0.43128 0.32404 0.0
C661 C 0.36833 0.50515 0.34101 0.0
C662 C 0.39382 0.49998 0.32483 0.0
C663 C 0.4011 0.47589 0.31981 0.0
C664 C 0.41326 0.51918 0.31278 0.0
C665 C 0.36056 0.53068 0.34761 0.0
C666 C 0.39226 0.53592 0.30129 0.0
C667 C 0.41071 0.55317 0.28913 0.0
C668 C 0.45057 0.55368 0.28775 0.0
C669 C 0.47155 0.53699 0.29944 0.0
C670 C 0.45307 0.51992 0.31181 0.0
H671 H 0.34803 0.53135 0.36324 0.0
H672 H 0.387 0.54163 0.34742 0.0
H673 H 0.34012 0.53908 0.33678 0.0
H674 H 0.36154 0.53545 0.30145 0.0
H675 H 0.39357 0.56604 0.28082 0.0
H676 H 0.20416 0.11656 0.86188 0.0
H677 H 0.17641 0.08608 0.83908 0.0
H678 H 0.17498 0.03467 0.88889 0.0
H679 H 0.20422 0.06424 0.9114 0.0
H680 H 0.20383 0.03101 0.8329 0.0
H681 H 0.05971 0.04583 0.86527 0.0
H682 H 0.09623 0.06876 0.86582 0.0
H683 H 0.09865 0.04351 0.8831 0.0
C684 C 0.19865 0.09866 0.86791 0.0
C685 C 0.20583 0.09319 0.8887 0.0
C686 C 0.18256 0.0813 0.85487 0.0
C687 C 0.17311 0.05825 0.8624 0.0
C688 C 0.1816 0.05243 0.88283 0.0
H689 H 0.05076 0.93169 0.81945 0.0
H690 H 0.08372 0.96254 0.83961 0.0
C691 C 0.19805 0.06955 0.89574 0.0
C692 C 0.15313 0.04035 0.84934 0.0
H693 H 0.06677 0.01334 0.84237 0.0
C694 C 0.17381 0.02728 0.8348 0.0
C695 C 0.11408 0.03532 0.85205 0.0
C696 C 0.09059 0.04912 0.86731 0.0
C697 C 0.15647 0.00905 0.82306 0.0
C698 C 0.11735 0.00402 0.82576 0.0
C699 C 0.09673 0.01717 0.8403 0.0
C700 C 0.09724 0.98531 0.81352 0.0
C701 C 0.18033 0.99483 0.80825 0.0
C702 C 0.09297 0.98811 0.79224 0.0
C703 C 0.07354 0.97076 0.78077 0.0
C704 C 0.05858 0.94989 0.79018 0.0
C705 C 0.06231 0.94733 0.8116 0.0
C706 C 0.08122 0.96494 0.82315 0.0
H707 H 0.21116 0.99719 0.8112 0.0
H708 H 0.17327 0.97532 0.80921 0.0
H709 H 0.17434 1.00104 0.79235 0.0
H710 H 0.10417 0.00395 0.78451 0.0
H711 H 0.06977 0.97393 0.76456 0.0
H712 H 0.20354 0.16479 0.96487 0.0
H713 H 0.18097 0.16255 1.00024 0.0
H714 H 0.17787 0.08496 0.99671 0.0
H715 H 0.20265 0.08693 0.96178 0.0
H716 H 0.1152 0.14515 0.01501 0.0
H717 H 0.23398 0.09382 0.04959 0.0
H718 H 0.23705 0.10713 0.0243 0.0
H719 H 0.2134 0.0786 0.02809 0.0
C720 C 0.19879 0.14719 0.9717 0.0
C721 C 0.20501 0.12603 0.96038 0.0
C722 C 0.18554 0.14598 0.9919 0.0
C723 C 0.1781 0.1236 1.00125 0.0
C724 C 0.1841 0.10244 0.99 0.0
H725 H 0.07655 0.06844 0.10971 0.0
H726 H 0.08643 0.08178 0.07425 0.0
C727 C 0.19772 0.10362 0.96987 0.0
C728 C 0.16286 0.12244 0.0225 0.0
H729 H 0.17751 0.09669 0.06956 0.0
C730 C 0.12904 0.13475 0.027 0.0
C731 C 0.18106 0.10903 0.03821 0.0
C732 C 0.21858 0.09661 0.03488 0.0
C733 C 0.11237 0.13332 0.04659 0.0
C734 C 0.12994 0.11924 0.06194 0.0
C735 C 0.16407 0.1074 0.05762 0.0
C736 C 0.11316 0.11546 0.0825 0.0
C737 C 0.07579 0.14636 0.05076 0.0
C738 C 0.12313 0.13063 0.09882 0.0
C739 C 0.11736 0.12305 0.11917 0.0
C740 C 0.10196 0.10013 0.12329 0.0
C741 C 0.08844 0.08619 0.10689 0.0
C742 C 0.09407 0.09378 0.08665 0.0
H743 H 0.06579 0.15682 0.0372 0.0
H744 H 0.05351 0.13314 0.05523 0.0
H745 H 0.07976 0.15885 0.06383 0.0
H746 H 0.13816 0.14736 0.09586 0.0
H747 H 0.12825 0.13402 0.13155 0.0
H748 H 0.37257 0.38015 0.44809 0.0
H749 H 0.39892 0.38281 0.48274 0.0
H750 H 0.28607 0.37877 0.50814 0.0
H751 H 0.25948 0.376 0.47351 0.0
H752 H 0.38614 0.41636 0.51304 0.0
H753 H 0.34093 0.32534 0.53916 0.0
H754 H 0.34026 0.33436 0.51249 0.0
H755 H 0.30298 0.34369 0.52949 0.0
C756 C 0.35335 0.37991 0.46106 0.0
C757 C 0.31396 0.37764 0.4581 0.0
C758 C 0.36846 0.38134 0.48083 0.0
C759 C 0.34452 0.38045 0.498 0.0
C760 C 0.30512 0.37878 0.4951 0.0
H761 H 0.35679 0.39518 0.62722 0.0
H762 H 0.34345 0.38301 0.59199 0.0
C763 C 0.28997 0.37723 0.47533 0.0
C764 C 0.36079 0.38169 0.51893 0.0
H765 H 0.36502 0.35166 0.56473 0.0
C766 C 0.38189 0.40215 0.52434 0.0
C767 C 0.35523 0.36306 0.53354 0.0
C768 C 0.33391 0.34026 0.52837 0.0
C769 C 0.39611 0.40505 0.5443 0.0
C770 C 0.39003 0.38655 0.55909 0.0
C771 C 0.36986 0.36576 0.55342 0.0
C772 C 0.40061 0.38956 0.58101 0.0
C773 C 0.41579 0.42846 0.54949 0.0
C774 C 0.43775 0.3958 0.58692 0.0
C775 C 0.44525 0.40295 0.60709 0.0
C776 C 0.41594 0.40327 0.62165 0.0
C777 C 0.37984 0.39477 0.61624 0.0
C778 C 0.37222 0.38797 0.59608 0.0
H779 H 0.40965 0.44283 0.53802 0.0
H780 H 0.40705 0.43498 0.56484 0.0
H781 H 0.44693 0.42557 0.54963 0.0
H782 H 0.46041 0.39641 0.57572 0.0
H783 H 0.4732 0.40973 0.61096 0.0
H784 H 0.6632 0.35082 0.05357 0.0
H785 H 0.63827 0.35481 0.01848 0.0
H786 H 0.71366 0.41497 0.00752 0.0
H787 H 0.73822 0.41116 0.04275 0.0
H788 H 0.60365 0.39809 1.00078 0.0
H789 H 0.73171 0.36706 0.95889 0.0
H790 H 0.72325 0.35999 0.9856 0.0
H791 H 0.74013 0.38938 0.97828 0.0
C792 C 0.67433 0.36485 0.04358 0.0
C793 C 0.7023 0.3808 0.05065 0.0
C794 C 0.66015 0.36712 0.02365 0.0
C795 C 0.67427 0.38511 0.01046 0.0
C796 C 0.70261 0.40089 0.01747 0.0
H797 H 0.64001 0.42002 0.88305 0.0
H798 H 0.65036 0.42524 0.91995 0.0
C799 C 0.71644 0.39881 0.03751 0.0
C800 C 0.65866 0.38779 0.98953 0.0
H801 H 0.68215 0.38362 0.93895 0.0
C802 C 0.62072 0.39495 0.98721 0.0
C803 C 0.68101 0.38344 0.97197 0.0
C804 C 0.72121 0.37434 0.97368 0.0
C805 C 0.60472 0.39841 0.96766 0.0
C806 C 0.6273 0.3945 0.95011 0.0
C807 C 0.66514 0.38709 0.95248 0.0
C808 C 0.61214 0.39649 0.92897 0.0
C809 C 0.56406 0.40649 0.96591 0.0
C810 C 0.58549 0.37959 0.92197 0.0
C811 C 0.57934 0.37677 0.90093 0.0
C812 C 0.59983 0.39078 0.88669 0.0
C813 C 0.62332 0.4094 0.89378 0.0
C814 C 0.62955 0.41219 0.91482 0.0
H815 H 0.55323 0.41376 0.98062 0.0
H816 H 0.56107 0.4205 0.95377 0.0
H817 H 0.54606 0.39087 0.96158 0.0
H818 H 0.57222 0.36704 0.93258 0.0
H819 H 0.56176 0.36195 0.89575 0.0
H820 H 0.79414 0.09008 0.54918 0.0
H821 H 0.81964 0.08431 0.51456 0.0
H822 H 0.8603 0.15771 0.51385 0.0
H823 H 0.83636 0.1634 0.54856 0.0
H824 H 0.80465 0.11164 0.47747 0.0
H825 H 0.95567 0.11725 0.50158 0.0
H826 H 0.91753 0.11217 0.51963 0.0
H827 H 0.92616 0.14185 0.50944 0.0
C828 C 0.80869 0.10494 0.54167 0.0
C829 C 0.81341 0.12714 0.55167 0.0
C830 C 0.82303 0.10165 0.5219 0.0
C831 C 0.84246 0.12044 0.51191 0.0
C832 C 0.84603 0.14285 0.52152 0.0
H833 H 0.94719 0.15251 0.39863 0.0
H834 H 0.9337 0.14614 0.43494 0.0
C835 C 0.83186 0.14614 0.54126 0.0
C836 C 0.8593 0.11665 0.49146 0.0
H837 H 0.94361 0.11655 0.46578 0.0
C838 C 0.83504 0.11239 0.47486 0.0
C839 C 0.8989 0.11793 0.48825 0.0
C840 C 0.9262 0.12237 0.50568 0.0
C841 C 0.84924 0.11029 0.45485 0.0
C842 C 0.88902 0.11145 0.45156 0.0
C843 C 0.91326 0.11522 0.46834 0.0
C844 C 0.90547 0.1118 0.43061 0.0
C845 C 0.82123 0.10824 0.43739 0.0
C846 C 0.89702 0.09366 0.41632 0.0
C847 C 0.9045 0.09744 0.39543 0.0
C848 C 0.92119 0.11917 0.38884 0.0
C849 C 0.93426 0.13566 0.40346 0.0
C850 C 0.92636 0.13206 0.42419 0.0
H851 H 0.79218 0.11363 0.44208 0.0
H852 H 0.82994 0.11969 0.42416 0.0
H853 H 0.81987 0.08923 0.43225 0.0
H854 H 0.88211 0.07747 0.42108 0.0
H855 H 0.89412 0.08451 0.38437 0.0
H856 H 0.75442 0.85946 0.04042 0.0
H857 H 0.77804 0.85924 0.00505 0.0
H858 H 0.87283 0.90365 0.023 0.0
H859 H 0.851 0.90281 0.05834 0.0
H860 H 0.79038 0.89624 0.97823 0.0
H861 H 0.92687 0.8503 0.99354 0.0
H862 H 0.88876 0.85086 0.01203 0.0
H863 H 0.92006 0.87637 0.00922 0.0
C864 C 0.78053 0.86896 0.0369 0.0
C865 C 0.80067 0.88114 0.05238 0.0
C866 C 0.79391 0.8689 0.01664 0.0
C867 C 0.82774 0.88094 0.01144 0.0
C868 C 0.84727 0.89365 0.0267 0.0
H869 H 0.93805 0.93127 0.90316 0.0
H870 H 0.92337 0.91734 0.93803 0.0
C871 C 0.83419 0.89354 0.04692 0.0
C872 C 0.84213 0.88098 0.98997 0.0
H873 H 0.921 0.87011 0.96086 0.0
C874 C 0.8187 0.89014 0.97438 0.0
C875 C 0.87919 0.8731 0.98494 0.0
C876 C 0.90505 0.86188 1.00078 0.0
C877 C 0.83175 0.89251 0.9541 0.0
C878 C 0.86907 0.88516 0.94916 0.0
C879 C 0.89234 0.87558 0.96464 0.0
C880 C 0.88489 0.88921 0.92829 0.0
C881 C 0.80609 0.90385 0.93822 0.0
C882 C 0.86997 0.87701 0.91124 0.0
C883 C 0.87865 0.88482 0.89126 0.0
C884 C 0.90229 0.90495 0.88815 0.0
C885 C 0.91993 0.91562 0.90519 0.0
C886 C 0.91145 0.90774 0.9251 0.0
H887 H 0.78035 0.9119 0.94519 0.0
H888 H 0.82152 0.91811 0.92953 0.0
H889 H 0.7969 0.8899 0.92714 0.0
H890 H 0.84967 0.86252 0.91341 0.0
H891 H 0.8644 0.87648 0.87839 0.0
H892 H 0.74414 0.60449 0.53868 0.0
H893 H 0.71905 0.60081 0.50359 0.0
H894 H 0.62897 0.65018 0.51845 0.0
H895 H 0.6542 0.65387 0.5535 0.0
H896 H 0.64482 0.58511 0.49171 0.0
H897 H 0.67412 0.67885 0.46504 0.0
H898 H 0.6975 0.66573 0.4871 0.0
H899 H 0.64922 0.67568 0.48899 0.0
C900 C 0.71916 0.61464 0.53432 0.0
C901 C 0.70114 0.62958 0.5486 0.0
C902 C 0.7048 0.61252 0.51435 0.0
C903 C 0.67239 0.62546 0.50828 0.0
C904 C 0.65436 0.64036 0.52263 0.0
H905 H 0.54365 0.60412 0.39343 0.0
H906 H 0.56001 0.61635 0.42868 0.0
C907 C 0.66864 0.6424 0.54263 0.0
C908 C 0.65701 0.6228 0.48711 0.0
H909 H 0.64258 0.65311 0.44183 0.0
C910 C 0.64414 0.60002 0.48086 0.0
C911 C 0.656 0.64229 0.47295 0.0
C912 C 0.67015 0.66702 0.4787 0.0
C913 C 0.6307 0.59617 0.46082 0.0
C914 C 0.63041 0.61549 0.44658 0.0
C915 C 0.64267 0.63837 0.45284 0.0
C916 C 0.62044 0.61148 0.42471 0.0
C917 C 0.61753 0.57133 0.45474 0.0
C918 C 0.64902 0.60527 0.41075 0.0
C919 C 0.63974 0.5983 0.39076 0.0
C920 C 0.60173 0.59763 0.38431 0.0
C921 C 0.57319 0.6049 0.39798 0.0
C922 C 0.58249 0.61175 0.41808 0.0
H923 H 0.61886 0.55825 0.46771 0.0
H924 H 0.58786 0.57221 0.44906 0.0
H925 H 0.63541 0.56458 0.442 0.0
H926 H 0.67841 0.60481 0.41561 0.0
H927 H 0.66212 0.59244 0.38057 0.0
H928 H 0.25149 0.64465 0.96702 0.0
H929 H 0.27387 0.64127 1.00276 0.0
H930 H 0.37527 0.60565 0.98195 0.0
H931 H 0.35368 0.6093 0.94657 0.0
H932 H 0.29438 0.59554 0.02362 0.0
H933 H 0.41496 0.6603 0.01918 0.0
H934 H 0.37632 0.66067 1.00096 0.0
H935 H 0.41268 0.63817 0.99922 0.0
C936 C 0.27863 0.63628 0.97014 0.0
C937 C 0.30054 0.62693 0.95407 0.0
C938 C 0.29132 0.6343 0.99048 0.0
C939 C 0.32631 0.62332 0.99491 0.0
C940 C 0.34839 0.61437 0.97884 0.0
H941 H 0.45561 0.61035 0.10852 0.0
H942 H 0.43453 0.60331 0.0731 0.0
C943 C 0.33576 0.61625 0.95865 0.0
C944 C 0.33949 0.62036 0.01632 0.0
H945 H 0.40929 0.63728 0.04953 0.0
C946 C 0.3194 0.60472 0.02938 0.0
C947 C 0.37269 0.63187 0.02354 0.0
C948 C 0.39538 0.64884 0.01008 0.0
C949 C 0.3316 0.60029 0.04958 0.0
C950 C 0.36404 0.61252 0.05712 0.0
C951 C 0.38449 0.62782 0.04383 0.0
C952 C 0.37551 0.61158 0.07909 0.0
C953 C 0.30994 0.58216 0.06238 0.0
C954 C 0.34929 0.61775 0.09441 0.0
C955 C 0.36127 0.62145 0.11457 0.0
C956 C 0.39971 0.61927 0.11977 0.0
C957 C 0.42572 0.61178 0.10484 0.0
C958 C 0.41369 0.60793 0.08463 0.0
H959 H 0.29705 0.568 0.05258 0.0
H960 H 0.32841 0.57332 0.07398 0.0
H961 H 0.28645 0.59144 0.07041 0.0
H962 H 0.31995 0.62132 0.09055 0.0
H963 H 0.3409 0.62754 0.12584 0.0
H964 H 0.2491 0.86373 0.4727 0.0
H965 H 0.22521 0.86788 0.50751 0.0
H966 H 0.12007 0.8964 0.48396 0.0
H967 H 0.14211 0.89022 0.44904 0.0
H968 H 0.20565 0.90822 0.52703 0.0
H969 H 0.07983 0.84786 0.52375 0.0
H970 H 0.11585 0.84801 0.5041 0.0
H971 H 0.08 0.87104 0.50446 0.0
C972 C 0.22045 0.87024 0.47476 0.0
C973 C 0.19762 0.87654 0.4578 0.0
C974 C 0.20701 0.87289 0.49478 0.0
C975 C 0.17066 0.88219 0.49839 0.0
C976 C 0.14787 0.88866 0.4816 0.0
H977 H 0.04904 0.89802 0.61462 0.0
H978 H 0.06873 0.90587 0.57898 0.0
C979 C 0.16093 0.88553 0.46156 0.0
C980 C 0.15735 0.88596 0.51974 0.0
H981 H 0.08747 0.87085 0.55374 0.0
C982 C 0.17977 0.90006 0.53287 0.0
C983 C 0.12332 0.87559 0.52729 0.0
C984 C 0.09851 0.85961 0.51424 0.0
C985 C 0.16936 0.90387 0.55338 0.0
C986 C 0.13595 0.8929 0.56111 0.0
C987 C 0.11296 0.8794 0.54781 0.0
C988 C 0.12614 0.89291 0.58329 0.0
C989 C 0.19432 0.91971 0.56645 0.0
C990 C 0.15205 0.88366 0.59768 0.0
C991 C 0.14085 0.87926 0.6179 0.0
C992 C 0.10351 0.88393 0.6241 0.0
C993 C 0.0781 0.89451 0.61015 0.0
C994 C 0.0893 0.89888 0.58983 0.0
H995 H 0.20895 0.93362 0.55696 0.0
H996 H 0.17783 0.92887 0.57862 0.0
H997 H 0.21654 0.90847 0.57382 0.0
H998 H 0.18028 0.87836 0.593 0.0
H999 H 0.16078 0.87099 0.62845 0.0
H1000 H 0.22449 0.27764 0.39896 0.0
H1001 H 0.19452 0.24561 0.37871 0.0
H1002 H 0.15122 0.29905 0.33647 0.0
H1003 H 0.18147 0.33109 0.35672 0.0
H1004 H 0.11653 0.24014 0.37003 0.0
H1005 H 0.20112 0.24962 0.2985 0.0
H1006 H 0.21632 0.2622 0.32264 0.0
H1007 H 0.18056 0.27715 0.3076 0.0
C1008 C 0.20929 0.28242 0.38507 0.0
C1009 C 0.20582 0.30666 0.37906 0.0
C1010 C 0.19191 0.26418 0.37364 0.0
C1011 C 0.1709 0.26988 0.35596 0.0
C1012 C 0.16785 0.29417 0.34983 0.0
H1013 H 0.02715 0.18726 0.27391 0.0
H1014 H 0.05746 0.21877 0.29462 0.0
C1015 C 0.18519 0.31244 0.36133 0.0
C1016 C 0.15146 0.25047 0.34427 0.0
H1017 H 0.14784 0.22359 0.29725 0.0
C1018 C 0.12349 0.23645 0.35415 0.0
C1019 C 0.16058 0.24562 0.32356 0.0
C1020 C 0.1915 0.25926 0.31244 0.0
C1021 C 0.10411 0.21799 0.34372 0.0
C1022 C 0.11315 0.21336 0.32301 0.0
C1023 C 0.14102 0.22729 0.31315 0.0
C1024 C 0.09397 0.19415 0.31118 0.0
C1025 C 0.07376 0.20369 0.35471 0.0
C1026 C 0.10498 0.16997 0.31346 0.0
C1027 C 0.08841 0.15206 0.30129 0.0
C1028 C 0.06006 0.15809 0.28703 0.0
C1029 C 0.04881 0.18224 0.28493 0.0
C1030 C 0.06599 0.20018 0.29674 0.0
H1031 H 0.06744 0.21104 0.37016 0.0
H1032 H 0.04725 0.20359 0.34549 0.0
H1033 H 0.08314 0.1847 0.35648 0.0
H1034 H 0.12666 0.16503 0.32448 0.0
H1035 H 0.09722 0.13349 0.30326 0.0
H1036 H 0.27221 0.1955 0.85454 0.0
H1037 H 0.30441 0.22764 0.83471 0.0
H1038 H 0.39773 0.22598 0.87756 0.0
H1039 H 0.3663 0.19366 0.8968 0.0
H1040 H 0.32466 0.2728 0.84838 0.0
H1041 H 0.45463 0.22452 0.82418 0.0
H1042 H 0.41334 0.20889 0.83393 0.0
H1043 H 0.44597 0.22323 0.85128 0.0
C1044 C 0.30007 0.20161 0.85927 0.0
C1045 C 0.31737 0.19181 0.87681 0.0
C1046 C 0.31832 0.22005 0.84809 0.0
C1047 C 0.35396 0.22894 0.85438 0.0
C1048 C 0.37097 0.21899 0.87196 0.0
H1049 H 0.50685 0.34194 0.8082 0.0
H1050 H 0.47676 0.31021 0.82895 0.0
C1051 C 0.35295 0.20054 0.88297 0.0
C1052 C 0.37245 0.2495 0.84339 0.0
H1053 H 0.45412 0.26684 0.81905 0.0
C1054 C 0.35285 0.27143 0.84182 0.0
C1055 C 0.4096 0.24794 0.83522 0.0
C1056 C 0.43203 0.22483 0.83606 0.0
C1057 C 0.36935 0.29183 0.83244 0.0
C1058 C 0.40614 0.2901 0.82377 0.0
C1059 C 0.42594 0.26825 0.82561 0.0
C1060 C 0.42392 0.31033 0.81196 0.0
C1061 C 0.34746 0.31518 0.83248 0.0
C1062 C 0.40441 0.32119 0.79557 0.0
C1063 C 0.42103 0.33989 0.78426 0.0
C1064 C 0.45841 0.34737 0.78814 0.0
C1065 C 0.47817 0.3364 0.80449 0.0
C1066 C 0.461 0.31821 0.81637 0.0
H1067 H 0.32691 0.31574 0.84539 0.0
H1068 H 0.36671 0.33099 0.83366 0.0
H1069 H 0.33099 0.31675 0.81802 0.0
H1070 H 0.37632 0.31506 0.79132 0.0
H1071 H 0.40453 0.34817 0.77234 0.0
H1072 H 0.67872 0.20993 0.60714 0.0
H1073 H 0.64074 0.23896 0.6265 0.0
H1074 H 0.70515 0.22235 0.6811 0.0
H1075 H 0.74372 0.19362 0.66154 0.0
H1076 H 0.59568 0.23665 0.66167 0.0
H1077 H 0.72217 0.29485 0.67317 0.0
H1078 H 0.72136 0.27034 0.65511 0.0
H1079 H 0.72857 0.26439 0.68199 0.0
C1080 C 0.68405 0.21212 0.62341 0.0
C1081 C 0.71369 0.19957 0.63302 0.0
C1082 C 0.66251 0.22873 0.63441 0.0
C1083 C 0.67056 0.23309 0.65514 0.0
C1084 C 0.69895 0.21953 0.66501 0.0
H1085 H 0.577 0.3243 0.74859 0.0
H1086 H 0.60679 0.29239 0.72859 0.0
C1087 C 0.72063 0.20298 0.65396 0.0
C1088 C 0.65078 0.25275 0.66607 0.0
H1089 H 0.66647 0.30564 0.69133 0.0
C1090 C 0.61112 0.25175 0.66812 0.0
C1091 C 0.67091 0.27274 0.67405 0.0
C1092 C 0.71304 0.27587 0.67082 0.0
C1093 C 0.5913 0.26982 0.67863 0.0
C1094 C 0.61172 0.28917 0.68728 0.0
C1095 C 0.65113 0.2905 0.68486 0.0
C1096 C 0.59272 0.30817 0.69915 0.0
C1097 C 0.54876 0.26813 0.68071 0.0
C1098 C 0.57527 0.32759 0.68911 0.0
C1099 C 0.55896 0.34616 0.70046 0.0
C1100 C 0.55961 0.34548 0.72206 0.0
C1101 C 0.57657 0.32566 0.73201 0.0
C1102 C 0.59334 0.3073 0.72063 0.0
H1103 H 0.5372 0.25124 0.67406 0.0
H1104 H 0.54065 0.269 0.69716 0.0
H1105 H 0.53545 0.28374 0.6728 0.0
H1106 H 0.57464 0.32849 0.6725 0.0
H1107 H 0.54587 0.36103 0.69229 0.0
H1108 H 0.77189 0.27844 0.12126 0.0
H1109 H 0.80581 0.24755 0.14111 0.0
H1110 H 0.87815 0.30252 0.16676 0.0
H1111 H 0.84403 0.3335 0.14684 0.0
H1112 H 0.88567 0.23737 0.13915 0.0
H1113 H 0.83955 0.26413 0.21734 0.0
H1114 H 0.81512 0.27399 0.19442 0.0
H1115 H 0.85933 0.28775 0.20159 0.0
C1116 C 0.79439 0.28393 0.13158 0.0
C1117 C 0.8048 0.30828 0.13307 0.0
C1118 C 0.814 0.26629 0.1427 0.0
C1119 C 0.84427 0.27275 0.15554 0.0
C1120 C 0.85446 0.2972 0.1572 0.0
H1121 H 0.98444 0.18846 0.23929 0.0
H1122 H 0.95531 0.2207 0.21875 0.0
C1123 C 0.83488 0.31487 0.14597 0.0
C1124 C 0.86542 0.25378 0.16691 0.0
H1125 H 0.88403 0.23272 0.21518 0.0
C1126 C 0.88539 0.23631 0.15578 0.0
C1127 C 0.86515 0.25253 0.18857 0.0
C1128 C 0.84344 0.27046 0.20126 0.0
C1129 C 0.90538 0.21773 0.16578 0.0
C1130 C 0.90448 0.21622 0.18749 0.0
C1131 C 0.88474 0.23384 0.19856 0.0
C1132 C 0.92349 0.19652 0.19917 0.0
C1133 C 0.92796 0.2003 0.15299 0.0
C1134 C 0.91525 0.17219 0.19511 0.0
C1135 C 0.93269 0.15384 0.20648 0.0
C1136 C 0.95752 0.15957 0.22255 0.0
C1137 C 0.96509 0.18377 0.22701 0.0
C1138 C 0.94855 0.20211 0.21527 0.0
H1139 H 0.93503 0.20806 0.13769 0.0
H1140 H 0.95474 0.19509 0.16081 0.0
H1141 H 0.91086 0.18376 0.15044 0.0
H1142 H 0.89501 0.16736 0.18333 0.0
H1143 H 0.92625 0.13519 0.20301 0.0
H1144 H 0.78901 0.72805 0.60962 0.0
H1145 H 0.81783 0.76024 0.63016 0.0
H1146 H 0.86143 0.70701 0.67249 0.0
H1147 H 0.83307 0.67477 0.65166 0.0
H1148 H 0.8086 0.77421 0.6701 0.0
H1149 H 0.9569 0.74464 0.65799 0.0
H1150 H 0.91779 0.73334 0.64294 0.0
H1151 H 0.92665 0.72142 0.66822 0.0
C1152 C 0.80429 0.7233 0.62349 0.0
C1153 C 0.80846 0.699 0.62924 0.0
C1154 C 0.82093 0.74169 0.63517 0.0
C1155 C 0.84245 0.73616 0.65275 0.0
C1156 C 0.84571 0.71181 0.65878 0.0
H1157 H 0.97133 0.81842 0.74275 0.0
H1158 H 0.93912 0.78741 0.72229 0.0
C1159 C 0.82909 0.69339 0.64705 0.0
C1160 C 0.86131 0.75585 0.66471 0.0
H1161 H 0.94741 0.77537 0.68255 0.0
C1162 C 0.83898 0.77449 0.67276 0.0
C1163 C 0.90105 0.75649 0.66806 0.0
C1164 C 0.92712 0.73806 0.65869 0.0
C1165 C 0.85495 0.79316 0.6846 0.0
C1166 C 0.89462 0.79354 0.68829 0.0
C1167 C 0.91702 0.77508 0.67996 0.0
C1168 C 0.91344 0.81264 0.70096 0.0
C1169 C 0.82891 0.81189 0.69355 0.0
C1170 C 0.91 0.83726 0.69589 0.0
C1171 C 0.92768 0.85498 0.70789 0.0
C1172 C 0.9501 0.84842 0.72483 0.0
C1173 C 0.9542 0.82388 0.72973 0.0
C1174 C 0.93586 0.80619 0.71801 0.0
H1175 H 0.79894 0.80563 0.69386 0.0
H1176 H 0.83761 0.81663 0.70941 0.0
H1177 H 0.83018 0.82847 0.68395 0.0
H1178 H 0.89405 0.84281 0.68248 0.0
H1179 H 0.92465 0.87379 0.70364 0.0
H1180 H 0.72502 0.77538 0.10838 0.0
H1181 H 0.68589 0.74435 0.12507 0.0
H1182 H 0.63322 0.79881 0.16233 0.0
H1183 H 0.67267 0.82996 0.14559 0.0
H1184 H 0.6908 0.73629 0.16809 0.0
H1185 H 0.54272 0.75547 0.14386 0.0
H1186 H 0.58347 0.76603 0.12953 0.0
H1187 H 0.56967 0.78096 0.1527 0.0
C1188 C 0.70429 0.78077 0.11973 0.0
C1189 C 0.70147 0.80496 0.12563 0.0
C1190 C 0.68208 0.76305 0.12931 0.0
C1191 C 0.65643 0.76923 0.14487 0.0
C1192 C 0.65236 0.79365 0.15014 0.0
H1193 H 0.51682 0.68679 0.23051 0.0
H1194 H 0.54827 0.71827 0.20996 0.0
C1195 C 0.67486 0.81142 0.14061 0.0
C1196 C 0.63741 0.74989 0.15705 0.0
H1197 H 0.55098 0.72645 0.17024 0.0
C1198 C 0.66022 0.73405 0.16851 0.0
C1199 C 0.59755 0.74709 0.15765 0.0
C1200 C 0.57178 0.76313 0.14518 0.0
C1201 C 0.64434 0.71584 0.18093 0.0
C1202 C 0.60438 0.71287 0.18148 0.0
C1203 C 0.58156 0.72867 0.16989 0.0
C1204 C 0.5857 0.69369 0.19412 0.0
C1205 C 0.67064 0.70055 0.19384 0.0
C1206 C 0.59607 0.66935 0.19211 0.0
C1207 C 0.57895 0.65153 0.20431 0.0
C1208 C 0.55004 0.65758 0.21811 0.0
C1209 C 0.53892 0.68174 0.21982 0.0
C1210 C 0.55684 0.69967 0.20807 0.0
H1211 H 0.6983 0.70971 0.19643 0.0
H1212 H 0.65787 0.69617 0.20899 0.0
H1213 H 0.67651 0.68345 0.18571 0.0
H1214 H 0.61722 0.66404 0.181 0.0
H1215 H 0.58762 0.63292 0.20258 0.0
H1216 H 0.3322 0.78689 0.4041 0.0
H1217 H 0.36131 0.75524 0.38339 0.0
H1218 H 0.31312 0.78697 0.32869 0.0
H1219 H 0.28425 0.81902 0.34956 0.0
H1220 H 0.32835 0.72132 0.35784 0.0
H1221 H 0.42604 0.78142 0.31433 0.0
H1222 H 0.402 0.79086 0.33736 0.0
H1223 H 0.37699 0.79009 0.31332 0.0
C1224 C 0.32783 0.78705 0.38763 0.0
C1225 C 0.30621 0.80528 0.37832 0.0
C1226 C 0.34442 0.76898 0.37584 0.0
C1227 C 0.33987 0.76887 0.35445 0.0
C1228 C 0.31763 0.78695 0.34513 0.0
H1229 H 0.42879 0.67847 0.25744 0.0
H1230 H 0.39643 0.70879 0.27797 0.0
C1231 C 0.30097 0.80513 0.357 0.0
C1232 C 0.35842 0.74976 0.34209 0.0
H1233 H 0.42372 0.74065 0.30422 0.0
C1234 C 0.34918 0.72552 0.34609 0.0
C1235 C 0.38592 0.75522 0.32694 0.0
C1236 C 0.39869 0.78077 0.3228 0.0
C1237 C 0.36587 0.70667 0.33496 0.0
C1238 C 0.39317 0.71216 0.31964 0.0
C1239 C 0.40262 0.7364 0.31581 0.0
C1240 C 0.41213 0.69315 0.30728 0.0
C1241 C 0.35334 0.68113 0.33945 0.0
C1242 C 0.43224 0.67434 0.31683 0.0
C1243 C 0.44983 0.65654 0.3051 0.0
C1244 C 0.44839 0.65737 0.28351 0.0
C1245 C 0.42943 0.67672 0.27399 0.0
C1246 C 0.41125 0.69427 0.28574 0.0
H1247 H 0.32516 0.68056 0.34707 0.0
H1248 H 0.35182 0.67033 0.32518 0.0
H1249 H 0.37407 0.6725 0.34998 0.0
H1250 H 0.43464 0.67349 0.33338 0.0
H1251 H 0.46475 0.64219 0.31301 0.0
H1252 H 0.16887 0.67612 0.86823 0.0
H1253 H 0.1274 0.70579 0.851 0.0
H1254 H 0.19573 0.7636 0.87523 0.0
H1255 H 0.23684 0.73417 0.89237 0.0
H1256 H 0.0869 0.75257 0.86582 0.0
H1257 H 0.20492 0.76492 0.81005 0.0
H1258 H 0.20106 0.7387 0.8265 0.0
H1259 H 0.21784 0.76678 0.8367 0.0
C1260 C 0.17422 0.6952 0.87028 0.0
C1261 C 0.20577 0.70305 0.88159 0.0
C1262 C 0.15063 0.71208 0.86047 0.0
C1263 C 0.15874 0.73685 0.86175 0.0
C1264 C 0.18904 0.74458 0.87405 0.0
H1265 H 0.08591 0.87075 0.80728 0.0
H1266 H 0.11362 0.83829 0.8283 0.0
C1267 C 0.2124 0.7278 0.88385 0.0
C1268 C 0.13879 0.75453 0.84846 0.0
H1269 H 0.1536 0.79214 0.80748 0.0
C1270 C 0.10126 0.76108 0.85295 0.0
C1271 C 0.15765 0.76555 0.83166 0.0
C1272 C 0.1975 0.75857 0.82575 0.0
C1273 C 0.08253 0.77892 0.84131 0.0
C1274 C 0.10182 0.79021 0.82482 0.0
C1275 C 0.13902 0.7834 0.82018 0.0
C1276 C 0.08433 0.80962 0.8124 0.0
C1277 C 0.04262 0.78609 0.84685 0.0
C1278 C 0.0595 0.80407 0.79625 0.0
C1279 C 0.04464 0.8225 0.78388 0.0
C1280 C 0.05382 0.84665 0.78786 0.0
C1281 C 0.07854 0.85218 0.80404 0.0
C1282 C 0.09412 0.83375 0.81606 0.0
H1283 H 0.03236 0.77675 0.86094 0.0
H1284 H 0.04124 0.80587 0.84925 0.0
H1285 H 0.02323 0.7817 0.83396 0.0
H1286 H 0.05183 0.78552 0.79318 0.0
H1287 H 0.02514 0.81798 0.77163 0.0
loop_
_geom_bond_atom_site_label_1
_geom_bond_atom_site_label_2
_geom_bond_distance
_geom_bond_site_symmetry_2
_ccdc_geom_bond_type
H0 C3 0.929 . S
H1 C6 0.929 . S
H2 C8 0.930 . S
C3 H0 0.929 . S
C3 C4 1.398 . S
C3 C5 1.396 . S
C4 C3 1.398 . S
C4 C8 1.407 . S
C5 C3 1.396 . S
C5 C6 1.394 . S
C6 H1 0.929 . S
C6 C5 1.394 . S
C6 C7 1.382 . S
C7 C6 1.382 . S
C7 C8 1.392 . S
C7 N9 1.420 . S
C8 H2 0.930 . S
C8 C4 1.407 . S
C8 C7 1.392 . S
N9 C7 1.420 . S
N9 C10 1.244 . S
C10 N9 1.244 . S
H11 C14 0.929 . S
H12 C17 0.929 . S
H13 C19 0.930 . S
C14 H11 0.929 . S
C14 C15 1.398 . S
C14 C16 1.396 . S
C15 C14 1.398 . S
C15 C19 1.407 . S
C16 C14 1.396 . S
C16 C17 1.394 . S
C17 H12 0.929 . S
C17 C16 1.394 . S
C17 C18 1.382 . S
C18 C17 1.382 . S
C18 C19 1.392 . S
C18 N20 1.420 . S
C19 H13 0.930 . S
C19 C15 1.407 . S
C19 C18 1.392 . S
N20 C18 1.420 . S
N20 C21 1.244 . S
C21 N20 1.244 . S
H22 C25 0.929 . S
H23 C28 0.929 . S
H24 C30 0.930 . S
C25 H22 0.929 . S
C25 C26 1.398 . S
C25 C27 1.396 . S
C26 C25 1.398 . S
C26 C30 1.407 . S
C27 C25 1.396 . S
C27 C28 1.394 . S
C28 H23 0.929 . S
C28 C27 1.394 . S
C28 C29 1.382 . S
C29 C28 1.382 . S
C29 C30 1.392 . S
C29 N31 1.420 . S
C30 H24 0.930 . S
C30 C26 1.407 . S
C30 C29 1.392 . S
N31 C29 1.420 . S
N31 C32 1.244 . S
C32 N31 1.244 . S
H33 C36 0.929 . S
H34 C39 0.929 . S
H35 C41 0.930 . S
C36 H33 0.929 . S
C36 C37 1.398 . S
C36 C38 1.396 . S
C37 C36 1.398 . S
C37 C41 1.407 . S
C38 C36 1.396 . S
C38 C39 1.394 . S
C39 H34 0.929 . S
C39 C38 1.394 . S
C39 C40 1.382 . S
C40 C39 1.382 . S
C40 C41 1.392 . S
C40 N42 1.420 . S
C41 H35 0.930 . S
C41 C37 1.407 . S
C41 C40 1.392 . S
N42 C40 1.420 . S
N42 C43 1.244 . S
C43 N42 1.244 . S
H44 C47 0.929 . S
H45 C50 0.929 . S
H46 C52 0.930 . S
C47 H44 0.929 . S
C47 C48 1.398 . S
C47 C49 1.396 . S
C48 C47 1.398 . S
C48 C52 1.407 . S
C49 C47 1.396 . S
C49 C50 1.394 . S
C50 H45 0.929 . S
C50 C49 1.394 . S
C50 C51 1.382 . S
C51 C50 1.382 . S
C51 C52 1.392 . S
C51 N53 1.420 . S
C52 H46 0.930 . S
C52 C48 1.407 . S
C52 C51 1.392 . S
N53 C51 1.420 . S
N53 C54 1.244 . S
C54 N53 1.244 . S
H55 C58 0.929 . S
H56 C61 0.929 . S
H57 C63 0.930 . S
C58 H55 0.929 . S
C58 C59 1.398 . S
C58 C60 1.396 . S
C59 C58 1.398 . S
C59 C63 1.407 . S
C60 C58 1.396 . S
C60 C61 1.394 . S
C61 H56 0.929 . S
C61 C60 1.394 . S
C61 C62 1.382 . S
C62 C61 1.382 . S
C62 C63 1.392 . S
C62 N64 1.420 . S
C63 H57 0.930 . S
C63 C59 1.407 . S
C63 C62 1.392 . S
N64 C62 1.420 . S
N64 C65 1.244 . S
C65 N64 1.244 . S
H66 C69 0.929 . S
H67 C72 0.929 . S
H68 C74 0.930 . S
C69 H66 0.929 . S
C69 C70 1.398 . S
C69 C71 1.396 . S
C70 C69 1.398 . S
C70 C74 1.407 . S
C71 C69 1.396 . S
C71 C72 1.394 . S
C72 H67 0.929 . S
C72 C71 1.394 . S
C72 C73 1.382 . S
C73 C72 1.382 . S
C73 C74 1.392 . S
C73 N75 1.420 . S
C74 H68 0.930 . S
C74 C70 1.407 . S
C74 C73 1.392 . S
N75 C73 1.420 . S
N75 C76 1.244 . S
C76 N75 1.244 . S
H77 C80 0.929 . S
H78 C83 0.929 . S
H79 C85 0.930 . S
C80 H77 0.929 . S
C80 C81 1.398 . S
C80 C82 1.396 . S
C81 C80 1.398 . S
C81 C85 1.407 . S
C82 C80 1.396 . S
C82 C83 1.394 . S
C83 H78 0.929 . S
C83 C82 1.394 . S
C83 C84 1.382 . S
C84 C83 1.382 . S
C84 C85 1.392 . S
C84 N86 1.420 . S
C85 H79 0.930 . S
C85 C81 1.407 . S
C85 C84 1.392 . S
N86 C84 1.420 . S
N86 C87 1.244 . S
C87 N86 1.244 . S
Eu88 N117 2.600 . S
Eu88 N123 2.562 . S
Eu88 O132 2.462 . S
Eu88 O133 2.373 . S
Eu88 O135 2.432 . S
Eu88 O136 2.291 . S
Eu88 O140 2.335 . S
Eu88 O143 2.372 . S
Eu88 C152 2.787 . S
C89 N90 1.365 . S
C89 C92 1.405 . S
C89 C96 1.448 . S
N90 C89 1.365 . S
N90 C93 1.319 . S
N90 Eu99 2.600 . S
C91 C93 1.397 . S
C91 C94 1.367 . S
C91 H111 0.931 . S
C92 C89 1.405 . S
C92 C94 1.403 . S
C92 C98 1.439 . S
C93 N90 1.319 . S
C93 C91 1.397 . S
C93 H104 0.930 . S
C94 C91 1.367 . S
C94 C92 1.403 . S
C94 H115 0.929 . S
C95 C96 1.430 . S
C95 C97 1.387 . S
C95 C101 1.404 . S
C96 C89 1.448 . S
C96 C95 1.430 . S
C96 N100 1.351 . S
C97 C95 1.387 . S
C97 C98 1.374 . S
C97 H112 0.931 . S
C98 C92 1.439 . S
C98 C97 1.374 . S
C98 H113 0.931 . S
Eu99 N90 2.600 . S
Eu99 N100 2.562 . S
Eu99 O134 2.335 1_655 S
Eu99 O137 2.372 . S
Eu99 O138 2.462 . S
Eu99 O139 2.373 . S
Eu99 O141 2.432 . S
Eu99 O142 2.291 1_655 S
Eu99 C163 2.787 . S
N100 C96 1.351 . S
N100 Eu99 2.562 . S
N100 C102 1.325 . S
C101 C95 1.404 . S
C101 C103 1.366 . S
C101 H109 0.930 . S
C102 N100 1.325 . S
C102 C103 1.416 . S
C102 H108 0.929 . S
C103 C101 1.366 . S
C103 C102 1.416 . S
C103 H105 0.930 . S
H104 C93 0.930 . S
H105 C103 0.930 . S
H106 C121 0.930 . S
H107 C128 0.930 . S
H108 C102 0.929 . S
H109 C101 0.930 . S
H110 C124 0.929 . S
H111 C91 0.931 . S
H112 C97 0.931 . S
H113 C98 0.931 . S
H114 C119 0.931 . S
H115 C94 0.929 . S
H116 C127 0.930 . S
N117 Eu88 2.600 . S
N117 C118 1.365 . S
N117 C121 1.319 . S
C118 N117 1.365 . S
C118 C120 1.405 . S
C118 C126 1.448 . S
C119 H114 0.931 . S
C119 C121 1.397 . S
C119 C122 1.367 . S
C120 C118 1.405 . S
C120 C122 1.403 . S
C120 C153 1.439 . S
C121 H106 0.930 . S
C121 N117 1.319 . S
C121 C119 1.397 . S
C122 C119 1.367 . S
C122 C120 1.403 . S
C122 H129 0.929 . S
N123 Eu88 2.562 . S
N123 C124 1.325 . S
N123 C126 1.351 . S
C124 H110 0.929 . S
C124 N123 1.325 . S
C124 C128 1.416 . S
C125 C126 1.430 . S
C125 C127 1.404 . S
C125 C154 1.387 . S
C126 C118 1.448 . S
C126 N123 1.351 . S
C126 C125 1.430 . S
C127 H116 0.930 . S
C127 C125 1.404 . S
C127 C128 1.366 . S
C128 H107 0.930 . S
C128 C124 1.416 . S
C128 C127 1.366 . S
H129 C122 0.929 . S
H130 C153 0.931 . S
H131 C154 0.931 . S
O132 Eu88 2.462 . S
O132 C152 1.252 . S
O133 Eu88 2.373 . S
O133 C144 1.249 . S
O134 Eu99 2.335 1_455 S
O134 C144 1.264 . S
O135 Eu88 2.432 . S
O135 C152 1.268 . S
O136 Eu88 2.291 . S
O136 C151 1.255 1_455 S
O137 Eu99 2.372 . S
O137 C151 1.257 . S
O138 Eu99 2.462 . S
O138 C163 1.252 . S
O139 Eu99 2.373 . S
O139 C155 1.249 . S
O140 Eu88 2.335 . S
O140 C155 1.264 1_455 S
O141 Eu99 2.432 . S
O141 C163 1.268 . S
O142 Eu99 2.291 1_455 S
O142 C162 1.255 . S
O143 Eu88 2.372 . S
O143 C162 1.257 . S
C144 O133 1.249 . S
C144 O134 1.264 . S
C145 C148 1.382 . S
C145 C150 1.390 . S
C145 C152 1.506 . S
C146 C147 1.398 . S
C146 C150 1.392 . S
C147 C146 1.398 . S
C147 C149 1.372 . S
C147 H164 0.931 . S
C148 C145 1.382 . S
C148 C149 1.390 . S
C148 H165 0.931 . S
C149 C147 1.372 . S
C149 C148 1.390 . S
C149 H166 0.929 . S
C150 C145 1.390 . S
C150 C146 1.392 . S
C150 H167 0.930 . S
C151 O136 1.255 1_655 S
C151 O137 1.257 . S
C152 Eu88 2.787 . S
C152 O132 1.252 . S
C152 O135 1.268 . S
C152 C145 1.506 . S
C153 C120 1.439 . S
C153 H130 0.931 . S
C153 C154 1.374 . S
C154 C125 1.387 . S
C154 H131 0.931 . S
C154 C153 1.374 . S
C155 O139 1.249 . S
C155 O140 1.264 1_655 S
C156 C159 1.382 . S
C156 C160 1.390 . S
C156 C163 1.506 . S
C157 C158 1.398 . S
C157 C160 1.392 . S
C158 C157 1.398 . S
C158 C161 1.372 . S
C158 H168 0.931 . S
C159 C156 1.382 . S
C159 C161 1.390 . S
C159 H169 0.931 . S
C160 C156 1.390 . S
C160 C157 1.392 . S
C160 H170 0.930 . S
C161 C158 1.372 . S
C161 C159 1.390 . S
C161 H171 0.929 . S
C162 O142 1.255 . S
C162 O143 1.257 . S
C163 Eu99 2.787 . S
C163 O138 1.252 . S
C163 O141 1.268 . S
C163 C156 1.506 . S
H164 C147 0.931 . S
H165 C148 0.931 . S
H166 C149 0.929 . S
H167 C150 0.930 . S
H168 C158 0.931 . S
H169 C159 0.931 . S
H170 C160 0.930 . S
H171 C161 0.929 . S
Eu172 N201 2.600 . S
Eu172 N207 2.562 . S
Eu172 O216 2.462 . S
Eu172 O217 2.373 . S
Eu172 O219 2.432 . S
Eu172 O220 2.291 . S
Eu172 O224 2.335 . S
Eu172 O227 2.372 . S
Eu172 C236 2.787 . S
C173 N174 1.365 . S
C173 C176 1.405 . S
C173 C180 1.448 . S
N174 C173 1.365 . S
N174 C177 1.319 . S
N174 Eu183 2.600 . S
C175 C177 1.397 . S
C175 C178 1.367 . S
C175 H195 0.931 . S
C176 C173 1.405 . S
C176 C178 1.403 . S
C176 C182 1.439 . S
C177 N174 1.319 . S
C177 C175 1.397 . S
C177 H188 0.930 . S
C178 C175 1.367 . S
C178 C176 1.403 . S
C178 H199 0.929 . S
C179 C180 1.430 . S
C179 C181 1.387 . S
C179 C185 1.404 . S
C180 C173 1.448 . S
C180 C179 1.430 . S
C180 N184 1.351 . S
C181 C179 1.387 . S
C181 C182 1.374 . S
C181 H196 0.931 . S
C182 C176 1.439 . S
C182 C181 1.374 . S
C182 H197 0.931 . S
Eu183 N174 2.600 . S
Eu183 N184 2.562 . S
Eu183 O218 2.335 . S
Eu183 O221 2.372 . S
Eu183 O222 2.462 . S
Eu183 O223 2.373 . S
Eu183 O225 2.432 . S
Eu183 O226 2.291 . S
Eu183 C247 2.787 . S
N184 C180 1.351 . S
N184 Eu183 2.562 . S
N184 C186 1.325 . S
C185 C179 1.404 . S
C185 C187 1.366 . S
C185 H193 0.930 . S
C186 N184 1.325 . S
C186 C187 1.416 . S
C186 H192 0.929 . S
C187 C185 1.366 . S
C187 C186 1.416 . S
C187 H189 0.930 . S
H188 C177 0.930 . S
H189 C187 0.930 . S
H190 C205 0.930 . S
H191 C212 0.930 . S
H192 C186 0.929 . S
H193 C185 0.930 . S
H194 C208 0.929 . S
H195 C175 0.931 . S
H196 C181 0.931 . S
H197 C182 0.931 . S
H198 C203 0.931 . S
H199 C178 0.929 . S
H200 C211 0.930 . S
N201 Eu172 2.600 . S
N201 C202 1.365 . S
N201 C205 1.319 . S
C202 N201 1.365 . S
C202 C204 1.405 . S
C202 C210 1.448 . S
C203 H198 0.931 . S
C203 C205 1.397 . S
C203 C206 1.367 . S
C204 C202 1.405 . S
C204 C206 1.403 . S
C204 C237 1.439 . S
C205 H190 0.930 . S
C205 N201 1.319 . S
C205 C203 1.397 . S
C206 C203 1.367 . S
C206 C204 1.403 . S
C206 H213 0.929 . S
N207 Eu172 2.562 . S
N207 C208 1.325 . S
N207 C210 1.351 . S
C208 H194 0.929 . S
C208 N207 1.325 . S
C208 C212 1.416 . S
C209 C210 1.430 . S
C209 C211 1.404 . S
C209 C238 1.387 . S
C210 C202 1.448 . S
C210 N207 1.351 . S
C210 C209 1.430 . S
C211 H200 0.930 . S
C211 C209 1.404 . S
C211 C212 1.366 . S
C212 H191 0.930 . S
C212 C208 1.416 . S
C212 C211 1.366 . S
H213 C206 0.929 . S
H214 C237 0.931 . S
H215 C238 0.931 . S
O216 Eu172 2.462 . S
O216 C236 1.252 . S
O217 Eu172 2.373 . S
O217 C228 1.249 . S
O218 Eu183 2.335 . S
O218 C228 1.264 . S
O219 Eu172 2.432 . S
O219 C236 1.268 . S
O220 Eu172 2.291 . S
O220 C235 1.255 . S
O221 Eu183 2.372 . S
O221 C235 1.257 . S
O222 Eu183 2.462 . S
O222 C247 1.252 . S
O223 Eu183 2.373 . S
O223 C239 1.249 . S
O224 Eu172 2.335 . S
O224 C239 1.264 . S
O225 Eu183 2.432 . S
O225 C247 1.268 . S
O226 Eu183 2.291 . S
O226 C246 1.255 . S
O227 Eu172 2.372 . S
O227 C246 1.257 . S
C228 O217 1.249 . S
C228 O218 1.264 . S
C229 C232 1.382 . S
C229 C234 1.390 . S
C229 C236 1.506 . S
C230 C231 1.398 . S
C230 C234 1.392 . S
C231 C230 1.398 . S
C231 C233 1.372 . S
C231 H248 0.931 . S
C232 C229 1.382 . S
C232 C233 1.390 . S
C232 H249 0.931 . S
C233 C231 1.372 . S
C233 C232 1.390 . S
C233 H250 0.929 . S
C234 C229 1.390 . S
C234 C230 1.392 . S
C234 H251 0.930 . S
C235 O220 1.255 . S
C235 O221 1.257 . S
C236 Eu172 2.787 . S
C236 O216 1.252 . S
C236 O219 1.268 . S
C236 C229 1.506 . S
C237 C204 1.439 . S
C237 H214 0.931 . S
C237 C238 1.374 . S
C238 C209 1.387 . S
C238 H215 0.931 . S
C238 C237 1.374 . S
C239 O223 1.249 . S
C239 O224 1.264 . S
C240 C243 1.382 . S
C240 C244 1.390 . S
C240 C247 1.506 . S
C241 C242 1.398 . S
C241 C244 1.392 . S
C242 C241 1.398 . S
C242 C245 1.372 . S
C242 H252 0.931 . S
C243 C240 1.382 . S
C243 C245 1.390 . S
C243 H253 0.931 . S
C244 C240 1.390 . S
C244 C241 1.392 . S
C244 H254 0.930 . S
C245 C242 1.372 . S
C245 C243 1.390 . S
C245 H255 0.929 . S
C246 O226 1.255 . S
C246 O227 1.257 . S
C247 Eu183 2.787 . S
C247 O222 1.252 . S
C247 O225 1.268 . S
C247 C240 1.506 . S
H248 C231 0.931 . S
H249 C232 0.931 . S
H250 C233 0.929 . S
H251 C234 0.930 . S
H252 C242 0.931 . S
H253 C243 0.931 . S
H254 C244 0.930 . S
H255 C245 0.929 . S
Eu256 N285 2.600 . S
Eu256 N291 2.562 . S
Eu256 O300 2.462 . S
Eu256 O301 2.373 . S
Eu256 O303 2.432 . S
Eu256 O304 2.291 . S
Eu256 O308 2.335 . S
Eu256 O311 2.372 . S
Eu256 C320 2.787 . S
C257 N258 1.365 . S
C257 C260 1.405 . S
C257 C264 1.448 . S
N258 C257 1.365 . S
N258 C261 1.319 . S
N258 Eu267 2.600 . S
C259 C261 1.397 . S
C259 C262 1.367 . S
C259 H279 0.931 . S
C260 C257 1.405 . S
C260 C262 1.403 . S
C260 C266 1.439 . S
C261 N258 1.319 . S
C261 C259 1.397 . S
C261 H272 0.930 . S
C262 C259 1.367 . S
C262 C260 1.403 . S
C262 H283 0.929 . S
C263 C264 1.430 . S
C263 C265 1.387 . S
C263 C269 1.404 . S
C264 C257 1.448 . S
C264 C263 1.430 . S
C264 N268 1.351 . S
C265 C263 1.387 . S
C265 C266 1.374 . S
C265 H280 0.931 . S
C266 C260 1.439 . S
C266 C265 1.374 . S
C266 H281 0.931 . S
Eu267 N258 2.600 . S
Eu267 N268 2.562 . S
Eu267 O302 2.335 1_655 S
Eu267 O305 2.372 . S
Eu267 O306 2.462 . S
Eu267 O307 2.373 . S
Eu267 O309 2.432 . S
Eu267 O310 2.291 1_655 S
Eu267 C331 2.787 . S
N268 C264 1.351 . S
N268 Eu267 2.562 . S
N268 C270 1.325 . S
C269 C263 1.404 . S
C269 C271 1.366 . S
C269 H277 0.930 . S
C270 N268 1.325 . S
C270 C271 1.416 . S
C270 H276 0.929 . S
C271 C269 1.366 . S
C271 C270 1.416 . S
C271 H273 0.930 . S
H272 C261 0.930 . S
H273 C271 0.930 . S
H274 C289 0.930 . S
H275 C296 0.930 . S
H276 C270 0.929 . S
H277 C269 0.930 . S
H278 C292 0.929 . S
H279 C259 0.931 . S
H280 C265 0.931 . S
H281 C266 0.931 . S
H282 C287 0.931 . S
H283 C262 0.929 . S
H284 C295 0.930 . S
N285 Eu256 2.600 . S
N285 C286 1.365 . S
N285 C289 1.319 . S
C286 N285 1.365 . S
C286 C288 1.405 . S
C286 C294 1.448 . S
C287 H282 0.931 . S
C287 C289 1.397 . S
C287 C290 1.367 . S
C288 C286 1.405 . S
C288 C290 1.403 . S
C288 C321 1.439 . S
C289 H274 0.930 . S
C289 N285 1.319 . S
C289 C287 1.397 . S
C290 C287 1.367 . S
C290 C288 1.403 . S
C290 H297 0.929 . S
N291 Eu256 2.562 . S
N291 C292 1.325 . S
N291 C294 1.351 . S
C292 H278 0.929 . S
C292 N291 1.325 . S
C292 C296 1.416 . S
C293 C294 1.430 . S
C293 C295 1.404 . S
C293 C322 1.387 . S
C294 C286 1.448 . S
C294 N291 1.351 . S
C294 C293 1.430 . S
C295 H284 0.930 . S
C295 C293 1.404 . S
C295 C296 1.366 . S
C296 H275 0.930 . S
C296 C292 1.416 . S
C296 C295 1.366 . S
H297 C290 0.929 . S
H298 C321 0.931 . S
H299 C322 0.931 . S
O300 Eu256 2.462 . S
O300 C320 1.252 . S
O301 Eu256 2.373 . S
O301 C312 1.249 . S
O302 Eu267 2.335 1_455 S
O302 C312 1.264 . S
O303 Eu256 2.432 . S
O303 C320 1.268 . S
O304 Eu256 2.291 . S
O304 C319 1.255 1_455 S
O305 Eu267 2.372 . S
O305 C319 1.257 . S
O306 Eu267 2.462 . S
O306 C331 1.252 . S
O307 Eu267 2.373 . S
O307 C323 1.249 . S
O308 Eu256 2.335 . S
O308 C323 1.264 1_455 S
O309 Eu267 2.432 . S
O309 C331 1.268 . S
O310 Eu267 2.291 1_455 S
O310 C330 1.255 . S
O311 Eu256 2.372 . S
O311 C330 1.257 . S
C312 O301 1.249 . S
C312 O302 1.264 . S
C313 C316 1.382 . S
C313 C318 1.390 . S
C313 C320 1.506 . S
C314 C315 1.398 . S
C314 C318 1.392 . S
C315 C314 1.398 . S
C315 C317 1.372 . S
C315 H332 0.931 . S
C316 C313 1.382 . S
C316 C317 1.390 . S
C316 H333 0.931 . S
C317 C315 1.372 . S
C317 C316 1.390 . S
C317 H334 0.929 . S
C318 C313 1.390 . S
C318 C314 1.392 . S
C318 H335 0.930 . S
C319 O304 1.255 1_655 S
C319 O305 1.257 . S
C320 Eu256 2.787 . S
C320 O300 1.252 . S
C320 O303 1.268 . S
C320 C313 1.506 . S
C321 C288 1.439 . S
C321 H298 0.931 . S
C321 C322 1.374 . S
C322 C293 1.387 . S
C322 H299 0.931 . S
C322 C321 1.374 . S
C323 O307 1.249 . S
C323 O308 1.264 1_655 S
C324 C327 1.382 . S
C324 C328 1.390 . S
C324 C331 1.506 . S
C325 C326 1.398 . S
C325 C328 1.392 . S
C326 C325 1.398 . S
C326 C329 1.372 . S
C326 H336 0.931 . S
C327 C324 1.382 . S
C327 C329 1.390 . S
C327 H337 0.931 . S
C328 C324 1.390 . S
C328 C325 1.392 . S
C328 H338 0.930 . S
C329 C326 1.372 . S
C329 C327 1.390 . S
C329 H339 0.929 . S
C330 O310 1.255 . S
C330 O311 1.257 . S
C331 Eu267 2.787 . S
C331 O306 1.252 . S
C331 O309 1.268 . S
C331 C324 1.506 . S
H332 C315 0.931 . S
H333 C316 0.931 . S
H334 C317 0.929 . S
H335 C318 0.930 . S
H336 C326 0.931 . S
H337 C327 0.931 . S
H338 C328 0.930 . S
H339 C329 0.929 . S
Eu340 N369 2.600 . S
Eu340 N375 2.562 . S
Eu340 O384 2.462 . S
Eu340 O385 2.373 . S
Eu340 O387 2.432 . S
Eu340 O388 2.291 . S
Eu340 O392 2.335 . S
Eu340 O395 2.372 . S
Eu340 C404 2.787 . S
C341 N342 1.365 . S
C341 C344 1.405 . S
C341 C348 1.448 . S
N342 C341 1.365 . S
N342 C345 1.319 . S
N342 Eu351 2.600 . S
C343 C345 1.397 . S
C343 C346 1.367 . S
C343 H363 0.931 . S
C344 C341 1.405 . S
C344 C346 1.403 . S
C344 C350 1.439 . S
C345 N342 1.319 . S
C345 C343 1.397 . S
C345 H356 0.930 . S
C346 C343 1.367 . S
C346 C344 1.403 . S
C346 H367 0.929 . S
C347 C348 1.430 . S
C347 C349 1.387 . S
C347 C353 1.404 . S
C348 C341 1.448 . S
C348 C347 1.430 . S
C348 N352 1.351 . S
C349 C347 1.387 . S
C349 C350 1.374 . S
C349 H364 0.931 . S
C350 C344 1.439 . S
C350 C349 1.374 . S
C350 H365 0.931 . S
Eu351 N342 2.600 . S
Eu351 N352 2.562 . S
Eu351 O386 2.335 . S
Eu351 O389 2.372 . S
Eu351 O390 2.462 . S
Eu351 O391 2.373 . S
Eu351 O393 2.432 . S
Eu351 O394 2.291 . S
Eu351 C415 2.787 . S
N352 C348 1.351 . S
N352 Eu351 2.562 . S
N352 C354 1.325 . S
C353 C347 1.404 . S
C353 C355 1.366 . S
C353 H361 0.930 . S
C354 N352 1.325 . S
C354 C355 1.416 . S
C354 H360 0.929 . S
C355 C353 1.366 . S
C355 C354 1.416 . S
C355 H357 0.930 . S
H356 C345 0.930 . S
H357 C355 0.930 . S
H358 C373 0.930 . S
H359 C380 0.930 . S
H360 C354 0.929 . S
H361 C353 0.930 . S
H362 C376 0.929 . S
H363 C343 0.931 . S
H364 C349 0.931 . S
H365 C350 0.931 . S
H366 C371 0.931 . S
H367 C346 0.929 . S
H368 C379 0.930 . S
N369 Eu340 2.600 . S
N369 C370 1.365 . S
N369 C373 1.319 . S
C370 N369 1.365 . S
C370 C372 1.405 . S
C370 C378 1.448 . S
C371 H366 0.931 . S
C371 C373 1.397 . S
C371 C374 1.367 . S
C372 C370 1.405 . S
C372 C374 1.403 . S
C372 C405 1.439 . S
C373 H358 0.930 . S
C373 N369 1.319 . S
C373 C371 1.397 . S
C374 C371 1.367 . S
C374 C372 1.403 . S
C374 H381 0.929 . S
N375 Eu340 2.562 . S
N375 C376 1.325 . S
N375 C378 1.351 . S
C376 H362 0.929 . S
C376 N375 1.325 . S
C376 C380 1.416 . S
C377 C378 1.430 . S
C377 C379 1.404 . S
C377 C406 1.387 . S
C378 C370 1.448 . S
C378 N375 1.351 . S
C378 C377 1.430 . S
C379 H368 0.930 . S
C379 C377 1.404 . S
C379 C380 1.366 . S
C380 H359 0.930 . S
C380 C376 1.416 . S
C380 C379 1.366 . S
H381 C374 0.929 . S
H382 C405 0.931 . S
H383 C406 0.931 . S
O384 Eu340 2.462 . S
O384 C404 1.252 . S
O385 Eu340 2.373 . S
O385 C396 1.249 . S
O386 Eu351 2.335 . S
O386 C396 1.264 . S
O387 Eu340 2.432 . S
O387 C404 1.268 . S
O388 Eu340 2.291 . S
O388 C403 1.255 . S
O389 Eu351 2.372 . S
O389 C403 1.257 . S
O390 Eu351 2.462 . S
O390 C415 1.252 . S
O391 Eu351 2.373 . S
O391 C407 1.249 . S
O392 Eu340 2.335 . S
O392 C407 1.264 . S
O393 Eu351 2.432 . S
O393 C415 1.268 . S
O394 Eu351 2.291 . S
O394 C414 1.255 . S
O395 Eu340 2.372 . S
O395 C414 1.257 . S
C396 O385 1.249 . S
C396 O386 1.264 . S
C397 C400 1.382 . S
C397 C402 1.390 . S
C397 C404 1.506 . S
C398 C399 1.398 . S
C398 C402 1.392 . S
C399 C398 1.398 . S
C399 C401 1.372 . S
C399 H416 0.931 . S
C400 C397 1.382 . S
C400 C401 1.390 . S
C400 H417 0.931 . S
C401 C399 1.372 . S
C401 C400 1.390 . S
C401 H418 0.929 . S
C402 C397 1.390 . S
C402 C398 1.392 . S
C402 H419 0.930 . S
C403 O388 1.255 . S
C403 O389 1.257 . S
C404 Eu340 2.787 . S
C404 O384 1.252 . S
C404 O387 1.268 . S
C404 C397 1.506 . S
C405 C372 1.439 . S
C405 H382 0.931 . S
C405 C406 1.374 . S
C406 C377 1.387 . S
C406 H383 0.931 . S
C406 C405 1.374 . S
C407 O391 1.249 . S
C407 O392 1.264 . S
C408 C411 1.382 . S
C408 C412 1.390 . S
C408 C415 1.506 . S
C409 C410 1.398 . S
C409 C412 1.392 . S
C410 C409 1.398 . S
C410 C413 1.372 . S
C410 H420 0.931 . S
C411 C408 1.382 . S
C411 C413 1.390 . S
C411 H421 0.931 . S
C412 C408 1.390 . S
C412 C409 1.392 . S
C412 H422 0.930 . S
C413 C410 1.372 . S
C413 C411 1.390 . S
C413 H423 0.929 . S
C414 O394 1.255 . S
C414 O395 1.257 . S
C415 Eu351 2.787 . S
C415 O390 1.252 . S
C415 O393 1.268 . S
C415 C408 1.506 . S
H416 C399 0.931 . S
H417 C400 0.931 . S
H418 C401 0.929 . S
H419 C402 0.930 . S
H420 C410 0.931 . S
H421 C411 0.931 . S
H422 C412 0.930 . S
H423 C413 0.929 . S
H424 C432 0.929 . S
H425 C434 0.930 . S
H426 C436 0.930 . S
H427 C439 0.929 . S
H428 C442 0.930 . S
H429 C444 0.960 . S
H430 C444 0.960 . S
H431 C444 0.960 . S
C432 H424 0.929 . S
C432 C433 1.377 . S
C432 C434 1.384 . S
C433 C432 1.377 . S
C433 C439 1.390 . S
C434 H425 0.930 . S
C434 C432 1.384 . S
C434 C435 1.372 . S
C435 C434 1.372 . S
C435 C436 1.400 . S
C435 C440 1.490 . S
C436 H426 0.930 . S
C436 C435 1.400 . S
C436 C439 1.386 . S
H437 C453 0.930 . S
H438 C454 0.931 1_565 S
C439 H427 0.929 . S
C439 C433 1.390 . S
C439 C436 1.386 . S
C440 C435 1.490 . S
C440 C442 1.395 . S
C440 C443 1.403 . S
H441 C447 0.930 . S
C442 H428 0.930 . S
C442 C440 1.395 . S
C442 C445 1.403 . S
C443 C440 1.403 . S
C443 C444 1.524 . S
C443 C447 1.400 . S
C444 H429 0.960 . S
C444 H430 0.960 . S
C444 H431 0.960 . S
C444 C443 1.524 . S
C445 C442 1.403 . S
C445 C446 1.392 . S
C445 C449 1.495 1_565 S
C446 C445 1.392 . S
C446 C447 1.385 . S
C446 C448 1.478 1_565 S
C447 H441 0.930 . S
C447 C443 1.400 . S
C447 C446 1.385 . S
C448 C446 1.478 1_545 S
C448 C450 1.381 . S
C448 C454 1.383 . S
C449 C445 1.495 1_545 S
C449 H455 0.959 . S
C449 H456 0.961 . S
C449 H457 0.960 . S
C450 C448 1.381 . S
C450 C451 1.394 . S
C450 H458 0.930 . S
C451 C450 1.394 . S
C451 C452 1.383 . S
C451 H459 0.929 . S
C452 C451 1.383 . S
C452 C453 1.377 . S
C453 H437 0.930 . S
C453 C452 1.377 . S
C453 C454 1.379 . S
C454 H438 0.931 1_545 S
C454 C448 1.383 . S
C454 C453 1.379 . S
H455 C449 0.959 . S
H456 C449 0.961 . S
H457 C449 0.960 . S
H458 C450 0.930 . S
H459 C451 0.929 . S
H460 C468 0.929 . S
H461 C470 0.930 . S
H462 C472 0.930 . S
H463 C475 0.929 . S
H464 C478 0.930 . S
H465 C480 0.960 . S
H466 C480 0.960 . S
H467 C480 0.960 . S
C468 H460 0.929 . S
C468 C469 1.377 . S
C468 C470 1.384 . S
C469 C468 1.377 . S
C469 C475 1.390 . S
C470 H461 0.930 . S
C470 C468 1.384 . S
C470 C471 1.372 . S
C471 C470 1.372 . S
C471 C472 1.400 . S
C471 C476 1.490 . S
C472 H462 0.930 . S
C472 C471 1.400 . S
C472 C475 1.386 . S
H473 C489 0.930 . S
H474 C490 0.931 . S
C475 H463 0.929 . S
C475 C469 1.390 . S
C475 C472 1.386 . S
C476 C471 1.490 . S
C476 C478 1.395 . S
C476 C479 1.403 . S
H477 C483 0.930 . S
C478 H464 0.930 . S
C478 C476 1.395 . S
C478 C481 1.403 . S
C479 C476 1.403 . S
C479 C480 1.524 . S
C479 C483 1.400 . S
C480 H465 0.960 . S
C480 H466 0.960 . S
C480 H467 0.960 . S
C480 C479 1.524 . S
C481 C478 1.403 . S
C481 C482 1.392 . S
C481 C485 1.495 . S
C482 C481 1.392 . S
C482 C483 1.385 . S
C482 C484 1.478 . S
C483 H477 0.930 . S
C483 C479 1.400 . S
C483 C482 1.385 . S
C484 C482 1.478 . S
C484 C486 1.381 . S
C484 C490 1.383 . S
C485 C481 1.495 . S
C485 H491 0.959 . S
C485 H492 0.961 . S
C485 H493 0.960 . S
C486 C484 1.381 . S
C486 C487 1.394 . S
C486 H494 0.930 . S
C487 C486 1.394 . S
C487 C488 1.383 . S
C487 H495 0.929 . S
C488 C487 1.383 . S
C488 C489 1.377 . S
C489 H473 0.930 . S
C489 C488 1.377 . S
C489 C490 1.379 . S
C490 H474 0.931 . S
C490 C484 1.383 . S
C490 C489 1.379 . S
H491 C485 0.959 . S
H492 C485 0.961 . S
H493 C485 0.960 . S
H494 C486 0.930 . S
H495 C487 0.929 . S
H496 C504 0.929 . S
H497 C506 0.930 . S
H498 C508 0.930 . S
H499 C511 0.929 . S
H500 C514 0.930 . S
H501 C516 0.960 . S
H502 C516 0.960 . S
H503 C516 0.960 . S
C504 H496 0.929 . S
C504 C505 1.377 . S
C504 C506 1.384 . S
C505 C504 1.377 . S
C505 C511 1.390 . S
C506 H497 0.930 . S
C506 C504 1.384 . S
C506 C507 1.372 . S
C507 C506 1.372 . S
C507 C508 1.400 . S
C507 C512 1.490 . S
C508 H498 0.930 . S
C508 C507 1.400 . S
C508 C511 1.386 . S
H509 C525 0.930 . S
H510 C526 0.931 . S
C511 H499 0.929 . S
C511 C505 1.390 . S
C511 C508 1.386 . S
C512 C507 1.490 . S
C512 C514 1.395 . S
C512 C515 1.403 . S
H513 C519 0.930 . S
C514 H500 0.930 . S
C514 C512 1.395 . S
C514 C517 1.403 . S
C515 C512 1.403 . S
C515 C516 1.524 . S
C515 C519 1.400 . S
C516 H501 0.960 . S
C516 H502 0.960 . S
C516 H503 0.960 . S
C516 C515 1.524 . S
C517 C514 1.403 . S
C517 C518 1.392 . S
C517 C521 1.495 . S
C518 C517 1.392 . S
C518 C519 1.385 . S
C518 C520 1.478 . S
C519 H513 0.930 . S
C519 C515 1.400 . S
C519 C518 1.385 . S
C520 C518 1.478 . S
C520 C522 1.381 . S
C520 C526 1.383 . S
C521 C517 1.495 . S
C521 H527 0.959 . S
C521 H528 0.961 . S
C521 H529 0.960 . S
C522 C520 1.381 . S
C522 C523 1.394 . S
C522 H530 0.930 . S
C523 C522 1.394 . S
C523 C524 1.383 . S
C523 H531 0.929 . S
C524 C523 1.383 . S
C524 C525 1.377 . S
C525 H509 0.930 . S
C525 C524 1.377 . S
C525 C526 1.379 . S
C526 H510 0.931 . S
C526 C520 1.383 . S
C526 C525 1.379 . S
H527 C521 0.959 . S
H528 C521 0.961 . S
H529 C521 0.960 . S
H530 C522 0.930 . S
H531 C523 0.929 . S
H532 C540 0.929 . S
H533 C542 0.930 . S
H534 C544 0.930 . S
H535 C547 0.929 . S
H536 C550 0.930 . S
H537 C552 0.960 . S
H538 C552 0.960 . S
H539 C552 0.960 . S
C540 H532 0.929 . S
C540 C541 1.377 . S
C540 C542 1.384 . S
C541 C540 1.377 . S
C541 C547 1.390 . S
C542 H533 0.930 . S
C542 C540 1.384 . S
C542 C543 1.372 . S
C543 C542 1.372 . S
C543 C544 1.400 . S
C543 C548 1.490 . S
C544 H534 0.930 . S
C544 C543 1.400 . S
C544 C547 1.386 . S
H545 C561 0.930 . S
H546 C562 0.931 1_565 S
C547 H535 0.929 . S
C547 C541 1.390 . S
C547 C544 1.386 . S
C548 C543 1.490 . S
C548 C550 1.395 . S
C548 C551 1.403 . S
H549 C555 0.930 . S
C550 H536 0.930 . S
C550 C548 1.395 . S
C550 C553 1.403 1_565 S
C551 C548 1.403 . S
C551 C552 1.524 . S
C551 C555 1.400 . S
C552 H537 0.960 . S
C552 H538 0.960 . S
C552 H539 0.960 . S
C552 C551 1.524 . S
C553 C550 1.403 1_545 S
C553 C554 1.392 . S
C553 C557 1.495 . S
C554 C553 1.392 . S
C554 C555 1.385 1_545 S
C554 C556 1.478 . S
C555 H549 0.930 . S
C555 C551 1.400 . S
C555 C554 1.385 1_565 S
C556 C554 1.478 . S
C556 C558 1.381 . S
C556 C562 1.383 . S
C557 C553 1.495 . S
C557 H563 0.959 . S
C557 H564 0.961 . S
C557 H565 0.960 . S
C558 C556 1.381 . S
C558 C559 1.394 . S
C558 H566 0.930 . S
C559 C558 1.394 . S
C559 C560 1.383 . S
C559 H567 0.929 . S
C560 C559 1.383 . S
C560 C561 1.377 . S
C561 H545 0.930 . S
C561 C560 1.377 . S
C561 C562 1.379 . S
C562 H546 0.931 1_545 S
C562 C556 1.383 . S
C562 C561 1.379 . S
H563 C557 0.959 . S
H564 C557 0.961 . S
H565 C557 0.960 . S
H566 C558 0.930 . S
H567 C559 0.929 . S
H568 C576 0.929 . S
H569 C578 0.930 . S
H570 C580 0.930 . S
H571 C583 0.929 . S
H572 C586 0.930 . S
H573 C588 0.960 . S
H574 C588 0.960 . S
H575 C588 0.960 . S
C576 H568 0.929 . S
C576 C577 1.377 . S
C576 C578 1.384 . S
C577 C576 1.377 . S
C577 C583 1.390 . S
C578 H569 0.930 . S
C578 C576 1.384 . S
C578 C579 1.372 . S
C579 C578 1.372 . S
C579 C580 1.400 . S
C579 C584 1.490 . S
C580 H570 0.930 . S
C580 C579 1.400 . S
C580 C583 1.386 . S
H581 C597 0.930 . S
H582 C598 0.931 1_545 S
C583 H571 0.929 . S
C583 C577 1.390 . S
C583 C580 1.386 . S
C584 C579 1.490 . S
C584 C586 1.395 . S
C584 C587 1.403 . S
H585 C591 0.930 . S
C586 H572 0.930 . S
C586 C584 1.395 . S
C586 C589 1.403 . S
C587 C584 1.403 . S
C587 C588 1.524 . S
C587 C591 1.400 . S
C588 H573 0.960 . S
C588 H574 0.960 . S
C588 H575 0.960 . S
C588 C587 1.524 . S
C589 C586 1.403 . S
C589 C590 1.392 . S
C589 C593 1.495 1_545 S
C590 C589 1.392 . S
C590 C591 1.385 . S
C590 C592 1.478 1_545 S
C591 H585 0.930 . S
C591 C587 1.400 . S
C591 C590 1.385 . S
C592 C590 1.478 1_565 S
C592 C594 1.381 . S
C592 C598 1.383 . S
C593 C589 1.495 1_565 S
C593 H599 0.959 . S
C593 H600 0.961 . S
C593 H601 0.960 . S
C594 C592 1.381 . S
C594 C595 1.394 . S
C594 H602 0.930 . S
C595 C594 1.394 . S
C595 C596 1.383 . S
C595 H603 0.929 . S
C596 C595 1.383 . S
C596 C597 1.377 . S
C597 H581 0.930 . S
C597 C596 1.377 . S
C597 C598 1.379 . S
C598 H582 0.931 1_565 S
C598 C592 1.383 . S
C598 C597 1.379 . S
H599 C593 0.959 . S
H600 C593 0.961 . S
H601 C593 0.960 . S
H602 C594 0.930 . S
H603 C595 0.929 . S
H604 C612 0.929 . S
H605 C614 0.930 . S
H606 C616 0.930 . S
H607 C619 0.929 . S
H608 C622 0.930 . S
H609 C624 0.960 . S
H610 C624 0.960 . S
H611 C624 0.960 . S
C612 H604 0.929 . S
C612 C613 1.377 . S
C612 C614 1.384 . S
C613 C612 1.377 . S
C613 C619 1.390 . S
C614 H605 0.930 . S
C614 C612 1.384 . S
C614 C615 1.372 . S
C615 C614 1.372 . S
C615 C616 1.400 . S
C615 C620 1.490 . S
C616 H606 0.930 . S
C616 C615 1.400 . S
C616 C619 1.386 . S
H617 C633 0.930 . S
H618 C634 0.931 . S
C619 H607 0.929 . S
C619 C613 1.390 . S
C619 C616 1.386 . S
C620 C615 1.490 . S
C620 C622 1.395 . S
C620 C623 1.403 . S
H621 C627 0.930 . S
C622 H608 0.930 . S
C622 C620 1.395 . S
C622 C625 1.403 . S
C623 C620 1.403 . S
C623 C624 1.524 . S
C623 C627 1.400 . S
C624 H609 0.960 . S
C624 H610 0.960 . S
C624 H611 0.960 . S
C624 C623 1.524 . S
C625 C622 1.403 . S
C625 C626 1.392 . S
C625 C629 1.495 . S
C626 C625 1.392 . S
C626 C627 1.385 . S
C626 C628 1.478 . S
C627 H621 0.930 . S
C627 C623 1.400 . S
C627 C626 1.385 . S
C628 C626 1.478 . S
C628 C630 1.381 . S
C628 C634 1.383 . S
C629 C625 1.495 . S
C629 H635 0.959 . S
C629 H636 0.961 . S
C629 H637 0.960 . S
C630 C628 1.381 . S
C630 C631 1.394 . S
C630 H638 0.930 . S
C631 C630 1.394 . S
C631 C632 1.383 . S
C631 H639 0.929 . S
C632 C631 1.383 . S
C632 C633 1.377 . S
C633 H617 0.930 . S
C633 C632 1.377 . S
C633 C634 1.379 . S
C634 H618 0.931 . S
C634 C628 1.383 . S
C634 C633 1.379 . S
H635 C629 0.959 . S
H636 C629 0.961 . S
H637 C629 0.960 . S
H638 C630 0.930 . S
H639 C631 0.929 . S
H640 C648 0.929 . S
H641 C650 0.930 . S
H642 C652 0.930 . S
H643 C655 0.929 . S
H644 C658 0.930 . S
H645 C660 0.960 . S
H646 C660 0.960 . S
H647 C660 0.960 . S
C648 H640 0.929 . S
C648 C649 1.377 . S
C648 C650 1.384 . S
C649 C648 1.377 . S
C649 C655 1.390 . S
C650 H641 0.930 . S
C650 C648 1.384 . S
C650 C651 1.372 . S
C651 C650 1.372 . S
C651 C652 1.400 . S
C651 C656 1.490 . S
C652 H642 0.930 . S
C652 C651 1.400 . S
C652 C655 1.386 . S
H653 C669 0.930 . S
H654 C670 0.931 . S
C655 H643 0.929 . S
C655 C649 1.390 . S
C655 C652 1.386 . S
C656 C651 1.490 . S
C656 C658 1.395 . S
C656 C659 1.403 . S
H657 C663 0.930 . S
C658 H644 0.930 . S
C658 C656 1.395 . S
C658 C661 1.403 . S
C659 C656 1.403 . S
C659 C660 1.524 . S
C659 C663 1.400 . S
C660 H645 0.960 . S
C660 H646 0.960 . S
C660 H647 0.960 . S
C660 C659 1.524 . S
C661 C658 1.403 . S
C661 C662 1.392 . S
C661 C665 1.495 . S
C662 C661 1.392 . S
C662 C663 1.385 . S
C662 C664 1.478 . S
C663 H657 0.930 . S
C663 C659 1.400 . S
C663 C662 1.385 . S
C664 C662 1.478 . S
C664 C666 1.381 . S
C664 C670 1.383 . S
C665 C661 1.495 . S
C665 H671 0.959 . S
C665 H672 0.961 . S
C665 H673 0.960 . S
C666 C664 1.381 . S
C666 C667 1.394 . S
C666 H674 0.930 . S
C667 C666 1.394 . S
C667 C668 1.383 . S
C667 H675 0.929 . S
C668 C667 1.383 . S
C668 C669 1.377 . S
C669 H653 0.930 . S
C669 C668 1.377 . S
C669 C670 1.379 . S
C670 H654 0.931 . S
C670 C664 1.383 . S
C670 C669 1.379 . S
H671 C665 0.959 . S
H672 C665 0.961 . S
H673 C665 0.960 . S
H674 C666 0.930 . S
H675 C667 0.929 . S
H676 C684 0.929 . S
H677 C686 0.930 . S
H678 C688 0.930 . S
H679 C691 0.929 . S
H680 C694 0.930 . S
H681 C696 0.960 . S
H682 C696 0.960 . S
H683 C696 0.960 . S
C684 H676 0.929 . S
C684 C685 1.377 . S
C684 C686 1.384 . S
C685 C684 1.377 . S
C685 C691 1.390 . S
C686 H677 0.930 . S
C686 C684 1.384 . S
C686 C687 1.372 . S
C687 C686 1.372 . S
C687 C688 1.400 . S
C687 C692 1.490 . S
C688 H678 0.930 . S
C688 C687 1.400 . S
C688 C691 1.386 . S
H689 C705 0.930 . S
H690 C706 0.931 . S
C691 H679 0.929 . S
C691 C685 1.390 . S
C691 C688 1.386 . S
C692 C687 1.490 . S
C692 C694 1.395 . S
C692 C695 1.403 . S
H693 C699 0.930 . S
C694 H680 0.930 . S
C694 C692 1.395 . S
C694 C697 1.403 . S
C695 C692 1.403 . S
C695 C696 1.524 . S
C695 C699 1.400 . S
C696 H681 0.960 . S
C696 H682 0.960 . S
C696 H683 0.960 . S
C696 C695 1.524 . S
C697 C694 1.403 . S
C697 C698 1.392 . S
C697 C701 1.495 1_545 S
C698 C697 1.392 . S
C698 C699 1.385 . S
C698 C700 1.478 1_545 S
C699 H693 0.930 . S
C699 C695 1.400 . S
C699 C698 1.385 . S
C700 C698 1.478 1_565 S
C700 C702 1.381 . S
C700 C706 1.383 . S
C701 C697 1.495 1_565 S
C701 H707 0.973 . S
C701 H708 0.961 . S
C701 H709 0.960 . S
C702 C700 1.381 . S
C702 C703 1.394 . S
C702 H710 0.944 . S
C703 C702 1.394 . S
C703 C704 1.383 . S
C703 H711 0.929 . S
C704 C703 1.383 . S
C704 C705 1.377 . S
C705 H689 0.930 . S
C705 C704 1.377 . S
C705 C706 1.379 . S
C706 H690 0.931 . S
C706 C700 1.383 . S
C706 C705 1.379 . S
H707 C701 0.973 . S
H708 C701 0.961 . S
H709 C701 0.960 . S
H710 C702 0.944 . S
H711 C703 0.929 . S
H712 C720 0.929 . S
H713 C722 0.930 . S
H714 C724 0.930 . S
H715 C727 0.929 . S
H716 C730 0.930 . S
H717 C732 0.960 . S
H718 C732 0.960 . S
H719 C732 0.960 . S
C720 H712 0.929 . S
C720 C721 1.377 . S
C720 C722 1.384 . S
C721 C720 1.377 . S
C721 C727 1.390 . S
C722 H713 0.930 . S
C722 C720 1.384 . S
C722 C723 1.372 . S
C723 C722 1.372 . S
C723 C724 1.400 . S
C723 C728 1.490 1_556 S
C724 H714 0.930 . S
C724 C723 1.400 . S
C724 C727 1.386 . S
H725 C741 0.930 . S
H726 C742 0.931 . S
C727 H715 0.929 . S
C727 C721 1.390 . S
C727 C724 1.386 . S
C728 C723 1.490 1_554 S
C728 C730 1.395 . S
C728 C731 1.403 . S
H729 C735 0.930 . S
C730 H716 0.930 . S
C730 C728 1.395 . S
C730 C733 1.403 . S
C731 C728 1.403 . S
C731 C732 1.524 . S
C731 C735 1.400 . S
C732 H717 0.960 . S
C732 H718 0.960 . S
C732 H719 0.960 . S
C732 C731 1.524 . S
C733 C730 1.403 . S
C733 C734 1.392 . S
C733 C737 1.495 . S
C734 C733 1.392 . S
C734 C735 1.385 . S
C734 C736 1.478 . S
C735 H729 0.930 . S
C735 C731 1.400 . S
C735 C734 1.385 . S
C736 C734 1.478 . S
C736 C738 1.381 . S
C736 C742 1.383 . S
C737 C733 1.495 . S
C737 H743 0.959 . S
C737 H744 0.961 . S
C737 H745 0.960 . S
C738 C736 1.381 . S
C738 C739 1.394 . S
C738 H746 0.930 . S
C739 C738 1.394 . S
C739 C740 1.383 . S
C739 H747 0.929 . S
C740 C739 1.383 . S
C740 C741 1.377 . S
C741 H725 0.930 . S
C741 C740 1.377 . S
C741 C742 1.379 . S
C742 H726 0.931 . S
C742 C736 1.383 . S
C742 C741 1.379 . S
H743 C737 0.959 . S
H744 C737 0.961 . S
H745 C737 0.960 . S
H746 C738 0.930 . S
H747 C739 0.929 . S
H748 C756 0.929 . S
H749 C758 0.930 . S
H750 C760 0.930 . S
H751 C763 0.929 . S
H752 C766 0.930 . S
H753 C768 0.960 . S
H754 C768 0.960 . S
H755 C768 0.960 . S
C756 H748 0.929 . S
C756 C757 1.377 . S
C756 C758 1.384 . S
C757 C756 1.377 . S
C757 C763 1.390 . S
C758 H749 0.930 . S
C758 C756 1.384 . S
C758 C759 1.372 . S
C759 C758 1.372 . S
C759 C760 1.400 . S
C759 C764 1.490 . S
C760 H750 0.930 . S
C760 C759 1.400 . S
C760 C763 1.386 . S
H761 C777 0.930 . S
H762 C778 0.931 . S
C763 H751 0.929 . S
C763 C757 1.390 . S
C763 C760 1.386 . S
C764 C759 1.490 . S
C764 C766 1.395 . S
C764 C767 1.403 . S
H765 C771 0.930 . S
C766 H752 0.930 . S
C766 C764 1.395 . S
C766 C769 1.403 . S
C767 C764 1.403 . S
C767 C768 1.524 . S
C767 C771 1.400 . S
C768 H753 0.960 . S
C768 H754 0.960 . S
C768 H755 0.960 . S
C768 C767 1.524 . S
C769 C766 1.403 . S
C769 C770 1.392 . S
C769 C773 1.495 . S
C770 C769 1.392 . S
C770 C771 1.385 . S
C770 C772 1.478 . S
C771 H765 0.930 . S
C771 C767 1.400 . S
C771 C770 1.385 . S
C772 C770 1.478 . S
C772 C774 1.381 . S
C772 C778 1.383 . S
C773 C769 1.495 . S
C773 H779 0.959 . S
C773 H780 0.961 . S
C773 H781 0.960 . S
C774 C772 1.381 . S
C774 C775 1.394 . S
C774 H782 0.930 . S
C775 C774 1.394 . S
C775 C776 1.383 . S
C775 H783 0.929 . S
C776 C775 1.383 . S
C776 C777 1.377 . S
C777 H761 0.930 . S
C777 C776 1.377 . S
C777 C778 1.379 . S
C778 H762 0.931 . S
C778 C772 1.383 . S
C778 C777 1.379 . S
H779 C773 0.959 . S
H780 C773 0.961 . S
H781 C773 0.960 . S
H782 C774 0.930 . S
H783 C775 0.929 . S
H784 C792 0.929 . S
H785 C794 0.930 . S
H786 C796 0.930 . S
H787 C799 0.929 . S
H788 C802 0.930 . S
H789 C804 0.960 . S
H790 C804 0.960 . S
H791 C804 0.960 . S
C792 H784 0.929 . S
C792 C793 1.377 . S
C792 C794 1.384 . S
C793 C792 1.377 . S
C793 C799 1.390 . S
C794 H785 0.930 . S
C794 C792 1.384 . S
C794 C795 1.372 . S
C795 C794 1.372 . S
C795 C796 1.400 . S
C795 C800 1.490 1_554 S
C796 H786 0.930 . S
C796 C795 1.400 . S
C796 C799 1.386 . S
H797 C813 0.930 . S
H798 C814 0.931 . S
C799 H787 0.929 . S
C799 C793 1.390 . S
C799 C796 1.386 . S
C800 C795 1.490 1_556 S
C800 C802 1.395 . S
C800 C803 1.403 . S
H801 C807 0.930 . S
C802 H788 0.930 . S
C802 C800 1.395 . S
C802 C805 1.403 . S
C803 C800 1.403 . S
C803 C804 1.524 . S
C803 C807 1.400 . S
C804 H789 0.960 . S
C804 H790 0.960 . S
C804 H791 0.960 . S
C804 C803 1.524 . S
C805 C802 1.403 . S
C805 C806 1.392 . S
C805 C809 1.495 . S
C806 C805 1.392 . S
C806 C807 1.385 . S
C806 C808 1.478 . S
C807 H801 0.930 . S
C807 C803 1.400 . S
C807 C806 1.385 . S
C808 C806 1.478 . S
C808 C810 1.381 . S
C808 C814 1.383 . S
C809 C805 1.495 . S
C809 H815 0.959 . S
C809 H816 0.961 . S
C809 H817 0.960 . S
C810 C808 1.381 . S
C810 C811 1.394 . S
C810 H818 0.930 . S
C811 C810 1.394 . S
C811 C812 1.383 . S
C811 H819 0.929 . S
C812 C811 1.383 . S
C812 C813 1.377 . S
C813 H797 0.930 . S
C813 C812 1.377 . S
C813 C814 1.379 . S
C814 H798 0.931 . S
C814 C808 1.383 . S
C814 C813 1.379 . S
H815 C809 0.959 . S
H816 C809 0.961 . S
H817 C809 0.960 . S
H818 C810 0.930 . S
H819 C811 0.929 . S
H820 C828 0.929 . S
H821 C830 0.930 . S
H822 C832 0.930 . S
H823 C835 0.929 . S
H824 C838 0.930 . S
H825 C840 0.960 . S
H826 C840 0.960 . S
H827 C840 0.960 . S
C828 H820 0.929 . S
C828 C829 1.377 . S
C828 C830 1.384 . S
C829 C828 1.377 . S
C829 C835 1.390 . S
C830 H821 0.930 . S
C830 C828 1.384 . S
C830 C831 1.372 . S
C831 C830 1.372 . S
C831 C832 1.400 . S
C831 C836 1.490 . S
C832 H822 0.930 . S
C832 C831 1.400 . S
C832 C835 1.386 . S
H833 C849 0.930 . S
H834 C850 0.931 . S
C835 H823 0.929 . S
C835 C829 1.390 . S
C835 C832 1.386 . S
C836 C831 1.490 . S
C836 C838 1.395 . S
C836 C839 1.403 . S
H837 C843 0.930 . S
C838 H824 0.930 . S
C838 C836 1.395 . S
C838 C841 1.403 . S
C839 C836 1.403 . S
C839 C840 1.524 . S
C839 C843 1.400 . S
C840 H825 0.960 . S
C840 H826 0.960 . S
C840 H827 0.960 . S
C840 C839 1.524 . S
C841 C838 1.403 . S
C841 C842 1.392 . S
C841 C845 1.495 . S
C842 C841 1.392 . S
C842 C843 1.385 . S
C842 C844 1.478 . S
C843 H837 0.930 . S
C843 C839 1.400 . S
C843 C842 1.385 . S
C844 C842 1.478 . S
C844 C846 1.381 . S
C844 C850 1.383 . S
C845 C841 1.495 . S
C845 H851 0.959 . S
C845 H852 0.961 . S
C845 H853 0.960 . S
C846 C844 1.381 . S
C846 C847 1.394 . S
C846 H854 0.930 . S
C847 C846 1.394 . S
C847 C848 1.383 . S
C847 H855 0.929 . S
C848 C847 1.383 . S
C848 C849 1.377 . S
C849 H833 0.930 . S
C849 C848 1.377 . S
C849 C850 1.379 . S
C850 H834 0.931 . S
C850 C844 1.383 . S
C850 C849 1.379 . S
H851 C845 0.959 . S
H852 C845 0.961 . S
H853 C845 0.960 . S
H854 C846 0.930 . S
H855 C847 0.929 . S
H856 C864 0.929 . S
H857 C866 0.927 1_556 S
H858 C868 0.930 . S
H859 C871 0.929 . S
H860 C874 0.930 . S
H861 C876 0.960 . S
H862 C876 0.960 1_554 S
H863 C876 0.960 1_554 S
C864 H856 0.929 . S
C864 C865 1.377 . S
C864 C866 1.384 . S
C865 C864 1.377 . S
C865 C871 1.390 . S
C866 H857 0.927 1_554 S
C866 C864 1.384 . S
C866 C867 1.372 . S
C867 C866 1.372 . S
C867 C868 1.400 . S
C867 C872 1.490 1_554 S
C868 H858 0.930 . S
C868 C867 1.400 . S
C868 C871 1.386 . S
H869 C885 0.930 . S
H870 C886 0.931 . S
C871 H859 0.929 . S
C871 C865 1.390 . S
C871 C868 1.386 . S
C872 C867 1.490 1_556 S
C872 C874 1.395 . S
C872 C875 1.403 . S
H873 C879 0.930 . S
C874 H860 0.930 . S
C874 C872 1.395 . S
C874 C877 1.403 . S
C875 C872 1.403 . S
C875 C876 1.524 . S
C875 C879 1.400 . S
C876 H861 0.960 . S
C876 H862 0.960 1_556 S
C876 H863 0.960 1_556 S
C876 C875 1.524 . S
C877 C874 1.403 . S
C877 C878 1.392 . S
C877 C881 1.495 . S
C878 C877 1.392 . S
C878 C879 1.385 . S
C878 C880 1.478 . S
C879 H873 0.930 . S
C879 C875 1.400 . S
C879 C878 1.385 . S
C880 C878 1.478 . S
C880 C882 1.381 . S
C880 C886 1.383 . S
C881 C877 1.495 . S
C881 H887 0.959 . S
C881 H888 0.961 . S
C881 H889 0.960 . S
C882 C880 1.381 . S
C882 C883 1.394 . S
C882 H890 0.930 . S
C883 C882 1.394 . S
C883 C884 1.383 . S
C883 H891 0.929 . S
C884 C883 1.383 . S
C884 C885 1.377 . S
C885 H869 0.930 . S
C885 C884 1.377 . S
C885 C886 1.379 . S
C886 H870 0.931 . S
C886 C880 1.383 . S
C886 C885 1.379 . S
H887 C881 0.959 . S
H888 C881 0.961 . S
H889 C881 0.960 . S
H890 C882 0.930 . S
H891 C883 0.929 . S
H892 C900 0.929 . S
H893 C902 0.930 . S
H894 C904 0.930 . S
H895 C907 0.929 . S
H896 C910 0.930 . S
H897 C912 0.960 . S
H898 C912 0.960 . S
H899 C912 0.960 . S
C900 H892 0.929 . S
C900 C901 1.377 . S
C900 C902 1.384 . S
C901 C900 1.377 . S
C901 C907 1.390 . S
C902 H893 0.930 . S
C902 C900 1.384 . S
C902 C903 1.372 . S
C903 C902 1.372 . S
C903 C904 1.400 . S
C903 C908 1.490 . S
C904 H894 0.930 . S
C904 C903 1.400 . S
C904 C907 1.386 . S
H905 C921 0.930 . S
H906 C922 0.931 . S
C907 H895 0.929 . S
C907 C901 1.390 . S
C907 C904 1.386 . S
C908 C903 1.490 . S
C908 C910 1.395 . S
C908 C911 1.403 . S
H909 C915 0.930 . S
C910 H896 0.930 . S
C910 C908 1.395 . S
C910 C913 1.403 . S
C911 C908 1.403 . S
C911 C912 1.524 . S
C911 C915 1.400 . S
C912 H897 0.960 . S
C912 H898 0.960 . S
C912 H899 0.960 . S
C912 C911 1.524 . S
C913 C910 1.403 . S
C913 C914 1.392 . S
C913 C917 1.495 . S
C914 C913 1.392 . S
C914 C915 1.385 . S
C914 C916 1.478 . S
C915 H909 0.930 . S
C915 C911 1.400 . S
C915 C914 1.385 . S
C916 C914 1.478 . S
C916 C918 1.381 . S
C916 C922 1.383 . S
C917 C913 1.495 . S
C917 H923 0.959 . S
C917 H924 0.961 . S
C917 H925 0.960 . S
C918 C916 1.381 . S
C918 C919 1.394 . S
C918 H926 0.930 . S
C919 C918 1.394 . S
C919 C920 1.383 . S
C919 H927 0.929 . S
C920 C919 1.383 . S
C920 C921 1.377 . S
C921 H905 0.930 . S
C921 C920 1.377 . S
C921 C922 1.379 . S
C922 H906 0.931 . S
C922 C916 1.383 . S
C922 C921 1.379 . S
H923 C917 0.959 . S
H924 C917 0.961 . S
H925 C917 0.960 . S
H926 C918 0.930 . S
H927 C919 0.929 . S
H928 C936 0.929 . S
H929 C938 0.930 . S
H930 C940 0.930 . S
H931 C943 0.929 . S
H932 C946 0.930 . S
H933 C948 0.960 . S
H934 C948 0.960 1_556 S
H935 C948 0.960 1_556 S
C936 H928 0.929 . S
C936 C937 1.377 . S
C936 C938 1.384 . S
C937 C936 1.377 . S
C937 C943 1.390 . S
C938 H929 0.930 . S
C938 C936 1.384 . S
C938 C939 1.372 . S
C939 C938 1.372 . S
C939 C940 1.400 . S
C939 C944 1.490 1_556 S
C940 H930 0.930 . S
C940 C939 1.400 . S
C940 C943 1.386 . S
H941 C957 0.930 . S
H942 C958 0.931 . S
C943 H931 0.929 . S
C943 C937 1.390 . S
C943 C940 1.386 . S
C944 C939 1.490 1_554 S
C944 C946 1.395 . S
C944 C947 1.403 . S
H945 C951 0.930 . S
C946 H932 0.930 . S
C946 C944 1.395 . S
C946 C949 1.403 . S
C947 C944 1.403 . S
C947 C948 1.524 . S
C947 C951 1.400 . S
C948 H933 0.960 . S
C948 H934 0.960 1_554 S
C948 H935 0.960 1_554 S
C948 C947 1.524 . S
C949 C946 1.403 . S
C949 C950 1.392 . S
C949 C953 1.495 . S
C950 C949 1.392 . S
C950 C951 1.385 . S
C950 C952 1.478 . S
C951 H945 0.930 . S
C951 C947 1.400 . S
C951 C950 1.385 . S
C952 C950 1.478 . S
C952 C954 1.381 . S
C952 C958 1.383 . S
C953 C949 1.495 . S
C953 H959 0.959 . S
C953 H960 0.961 . S
C953 H961 0.960 . S
C954 C952 1.381 . S
C954 C955 1.394 . S
C954 H962 0.930 . S
C955 C954 1.394 . S
C955 C956 1.383 . S
C955 H963 0.929 . S
C956 C955 1.383 . S
C956 C957 1.377 . S
C957 H941 0.930 . S
C957 C956 1.377 . S
C957 C958 1.379 . S
C958 H942 0.931 . S
C958 C952 1.383 . S
C958 C957 1.379 . S
H959 C953 0.959 . S
H960 C953 0.961 . S
H961 C953 0.960 . S
H962 C954 0.930 . S
H963 C955 0.929 . S
H964 C972 0.929 . S
H965 C974 0.930 . S
H966 C976 0.930 . S
H967 C979 0.929 . S
H968 C982 0.930 . S
H969 C984 0.960 . S
H970 C984 0.960 . S
H971 C984 0.960 . S
C972 H964 0.929 . S
C972 C973 1.377 . S
C972 C974 1.384 . S
C973 C972 1.377 . S
C973 C979 1.390 . S
C974 H965 0.930 . S
C974 C972 1.384 . S
C974 C975 1.372 . S
C975 C974 1.372 . S
C975 C976 1.400 . S
C975 C980 1.490 . S
C976 H966 0.930 . S
C976 C975 1.400 . S
C976 C979 1.386 . S
H977 C993 0.930 . S
H978 C994 0.931 . S
C979 H967 0.929 . S
C979 C973 1.390 . S
C979 C976 1.386 . S
C980 C975 1.490 . S
C980 C982 1.395 . S
C980 C983 1.403 . S
H981 C987 0.930 . S
C982 H968 0.930 . S
C982 C980 1.395 . S
C982 C985 1.403 . S
C983 C980 1.403 . S
C983 C984 1.524 . S
C983 C987 1.400 . S
C984 H969 0.960 . S
C984 H970 0.960 . S
C984 H971 0.960 . S
C984 C983 1.524 . S
C985 C982 1.403 . S
C985 C986 1.392 . S
C985 C989 1.495 . S
C986 C985 1.392 . S
C986 C987 1.385 . S
C986 C988 1.478 . S
C987 H981 0.930 . S
C987 C983 1.400 . S
C987 C986 1.385 . S
C988 C986 1.478 . S
C988 C990 1.381 . S
C988 C994 1.383 . S
C989 C985 1.495 . S
C989 H995 0.959 . S
C989 H996 0.961 . S
C989 H997 0.960 . S
C990 C988 1.381 . S
C990 C991 1.394 . S
C990 H998 0.930 . S
C991 C990 1.394 . S
C991 C992 1.383 . S
C991 H999 0.929 . S
C992 C991 1.383 . S
C992 C993 1.377 . S
C993 H977 0.930 . S
C993 C992 1.377 . S
C993 C994 1.379 . S
C994 H978 0.931 . S
C994 C988 1.383 . S
C994 C993 1.379 . S
H995 C989 0.959 . S
H996 C989 0.961 . S
H997 C989 0.960 . S
H998 C990 0.930 . S
H999 C991 0.929 . S
H1000 C1008 0.929 . S
H1001 C1010 0.930 . S
H1002 C1012 0.930 . S
H1003 C1015 0.929 . S
H1004 C1018 0.930 . S
H1005 C1020 0.960 . S
H1006 C1020 0.960 . S
H1007 C1020 0.960 . S
C1008 H1000 0.929 . S
C1008 C1009 1.377 . S
C1008 C1010 1.384 . S
C1009 C1008 1.377 . S
C1009 C1015 1.390 . S
C1010 H1001 0.930 . S
C1010 C1008 1.384 . S
C1010 C1011 1.372 . S
C1011 C1010 1.372 . S
C1011 C1012 1.400 . S
C1011 C1016 1.490 . S
C1012 H1002 0.930 . S
C1012 C1011 1.400 . S
C1012 C1015 1.386 . S
H1013 C1029 0.930 . S
H1014 C1030 0.931 . S
C1015 H1003 0.929 . S
C1015 C1009 1.390 . S
C1015 C1012 1.386 . S
C1016 C1011 1.490 . S
C1016 C1018 1.395 . S
C1016 C1019 1.403 . S
H1017 C1023 0.930 . S
C1018 H1004 0.930 . S
C1018 C1016 1.395 . S
C1018 C1021 1.403 . S
C1019 C1016 1.403 . S
C1019 C1020 1.524 . S
C1019 C1023 1.400 . S
C1020 H1005 0.960 . S
C1020 H1006 0.960 . S
C1020 H1007 0.960 . S
C1020 C1019 1.524 . S
C1021 C1018 1.403 . S
C1021 C1022 1.392 . S
C1021 C1025 1.495 . S
C1022 C1021 1.392 . S
C1022 C1023 1.385 . S
C1022 C1024 1.478 . S
C1023 H1017 0.930 . S
C1023 C1019 1.400 . S
C1023 C1022 1.385 . S
C1024 C1022 1.478 . S
C1024 C1026 1.381 . S
C1024 C1030 1.383 . S
C1025 C1021 1.495 . S
C1025 H1031 0.959 . S
C1025 H1032 0.961 . S
C1025 H1033 0.960 . S
C1026 C1024 1.381 . S
C1026 C1027 1.394 . S
C1026 H1034 0.930 . S
C1027 C1026 1.394 . S
C1027 C1028 1.383 . S
C1027 H1035 0.929 . S
C1028 C1027 1.383 . S
C1028 C1029 1.377 . S
C1029 H1013 0.930 . S
C1029 C1028 1.377 . S
C1029 C1030 1.379 . S
C1030 H1014 0.931 . S
C1030 C1024 1.383 . S
C1030 C1029 1.379 . S
H1031 C1025 0.959 . S
H1032 C1025 0.961 . S
H1033 C1025 0.960 . S
H1034 C1026 0.930 . S
H1035 C1027 0.929 . S
H1036 C1044 0.929 . S
H1037 C1046 0.930 . S
H1038 C1048 0.930 . S
H1039 C1051 0.929 . S
H1040 C1054 0.930 . S
H1041 C1056 0.960 . S
H1042 C1056 0.960 . S
H1043 C1056 0.960 . S
C1044 H1036 0.929 . S
C1044 C1045 1.377 . S
C1044 C1046 1.384 . S
C1045 C1044 1.377 . S
C1045 C1051 1.390 . S
C1046 H1037 0.930 . S
C1046 C1044 1.384 . S
C1046 C1047 1.372 . S
C1047 C1046 1.372 . S
C1047 C1048 1.400 . S
C1047 C1052 1.490 . S
C1048 H1038 0.930 . S
C1048 C1047 1.400 . S
C1048 C1051 1.386 . S
H1049 C1065 0.930 . S
H1050 C1066 0.931 . S
C1051 H1039 0.929 . S
C1051 C1045 1.390 . S
C1051 C1048 1.386 . S
C1052 C1047 1.490 . S
C1052 C1054 1.395 . S
C1052 C1055 1.403 . S
H1053 C1059 0.930 . S
C1054 H1040 0.930 . S
C1054 C1052 1.395 . S
C1054 C1057 1.403 . S
C1055 C1052 1.403 . S
C1055 C1056 1.524 . S
C1055 C1059 1.400 . S
C1056 H1041 0.960 . S
C1056 H1042 0.960 . S
C1056 H1043 0.960 . S
C1056 C1055 1.524 . S
C1057 C1054 1.403 . S
C1057 C1058 1.392 . S
C1057 C1061 1.495 . S
C1058 C1057 1.392 . S
C1058 C1059 1.385 . S
C1058 C1060 1.478 . S
C1059 H1053 0.930 . S
C1059 C1055 1.400 . S
C1059 C1058 1.385 . S
C1060 C1058 1.478 . S
C1060 C1062 1.381 . S
C1060 C1066 1.383 . S
C1061 C1057 1.495 . S
C1061 H1067 0.959 . S
C1061 H1068 0.961 . S
C1061 H1069 0.960 . S
C1062 C1060 1.381 . S
C1062 C1063 1.394 . S
C1062 H1070 0.930 . S
C1063 C1062 1.394 . S
C1063 C1064 1.383 . S
C1063 H1071 0.929 . S
C1064 C1063 1.383 . S
C1064 C1065 1.377 . S
C1065 H1049 0.930 . S
C1065 C1064 1.377 . S
C1065 C1066 1.379 . S
C1066 H1050 0.931 . S
C1066 C1060 1.383 . S
C1066 C1065 1.379 . S
H1067 C1061 0.959 . S
H1068 C1061 0.961 . S
H1069 C1061 0.960 . S
H1070 C1062 0.930 . S
H1071 C1063 0.929 . S
H1072 C1080 0.929 . S
H1073 C1082 0.930 . S
H1074 C1084 0.930 . S
H1075 C1087 0.929 . S
H1076 C1090 0.930 . S
H1077 C1092 0.960 . S
H1078 C1092 0.960 . S
H1079 C1092 0.960 . S
C1080 H1072 0.929 . S
C1080 C1081 1.377 . S
C1080 C1082 1.384 . S
C1081 C1080 1.377 . S
C1081 C1087 1.390 . S
C1082 H1073 0.930 . S
C1082 C1080 1.384 . S
C1082 C1083 1.372 . S
C1083 C1082 1.372 . S
C1083 C1084 1.400 . S
C1083 C1088 1.490 . S
C1084 H1074 0.930 . S
C1084 C1083 1.400 . S
C1084 C1087 1.386 . S
H1085 C1101 0.930 . S
H1086 C1102 0.931 . S
C1087 H1075 0.929 . S
C1087 C1081 1.390 . S
C1087 C1084 1.386 . S
C1088 C1083 1.490 . S
C1088 C1090 1.395 . S
C1088 C1091 1.403 . S
H1089 C1095 0.930 . S
C1090 H1076 0.930 . S
C1090 C1088 1.395 . S
C1090 C1093 1.403 . S
C1091 C1088 1.403 . S
C1091 C1092 1.524 . S
C1091 C1095 1.400 . S
C1092 H1077 0.960 . S
C1092 H1078 0.960 . S
C1092 H1079 0.960 . S
C1092 C1091 1.524 . S
C1093 C1090 1.403 . S
C1093 C1094 1.392 . S
C1093 C1097 1.495 . S
C1094 C1093 1.392 . S
C1094 C1095 1.385 . S
C1094 C1096 1.478 . S
C1095 H1089 0.930 . S
C1095 C1091 1.400 . S
C1095 C1094 1.385 . S
C1096 C1094 1.478 . S
C1096 C1098 1.381 . S
C1096 C1102 1.383 . S
C1097 C1093 1.495 . S
C1097 H1103 0.959 . S
C1097 H1104 0.961 . S
C1097 H1105 0.960 . S
C1098 C1096 1.381 . S
C1098 C1099 1.394 . S
C1098 H1106 0.930 . S
C1099 C1098 1.394 . S
C1099 C1100 1.383 . S
C1099 H1107 0.929 . S
C1100 C1099 1.383 . S
C1100 C1101 1.377 . S
C1101 H1085 0.930 . S
C1101 C1100 1.377 . S
C1101 C1102 1.379 . S
C1102 H1086 0.931 . S
C1102 C1096 1.383 . S
C1102 C1101 1.379 . S
H1103 C1097 0.959 . S
H1104 C1097 0.961 . S
H1105 C1097 0.960 . S
H1106 C1098 0.930 . S
H1107 C1099 0.929 . S
H1108 C1116 0.929 . S
H1109 C1118 0.930 . S
H1110 C1120 0.930 . S
H1111 C1123 0.929 . S
H1112 C1126 0.930 . S
H1113 C1128 0.960 . S
H1114 C1128 0.960 . S
H1115 C1128 0.960 . S
C1116 H1108 0.929 . S
C1116 C1117 1.377 . S
C1116 C1118 1.384 . S
C1117 C1116 1.377 . S
C1117 C1123 1.390 . S
C1118 H1109 0.930 . S
C1118 C1116 1.384 . S
C1118 C1119 1.372 . S
C1119 C1118 1.372 . S
C1119 C1120 1.400 . S
C1119 C1124 1.490 . S
C1120 H1110 0.930 . S
C1120 C1119 1.400 . S
C1120 C1123 1.386 . S
H1121 C1137 0.930 . S
H1122 C1138 0.931 . S
C1123 H1111 0.929 . S
C1123 C1117 1.390 . S
C1123 C1120 1.386 . S
C1124 C1119 1.490 . S
C1124 C1126 1.395 . S
C1124 C1127 1.403 . S
H1125 C1131 0.930 . S
C1126 H1112 0.930 . S
C1126 C1124 1.395 . S
C1126 C1129 1.403 . S
C1127 C1124 1.403 . S
C1127 C1128 1.524 . S
C1127 C1131 1.400 . S
C1128 H1113 0.960 . S
C1128 H1114 0.960 . S
C1128 H1115 0.960 . S
C1128 C1127 1.524 . S
C1129 C1126 1.403 . S
C1129 C1130 1.392 . S
C1129 C1133 1.495 . S
C1130 C1129 1.392 . S
C1130 C1131 1.385 . S
C1130 C1132 1.478 . S
C1131 H1125 0.930 . S
C1131 C1127 1.400 . S
C1131 C1130 1.385 . S
C1132 C1130 1.478 . S
C1132 C1134 1.381 . S
C1132 C1138 1.383 . S
C1133 C1129 1.495 . S
C1133 H1139 0.959 . S
C1133 H1140 0.961 . S
C1133 H1141 0.960 . S
C1134 C1132 1.381 . S
C1134 C1135 1.394 . S
C1134 H1142 0.930 . S
C1135 C1134 1.394 . S
C1135 C1136 1.383 . S
C1135 H1143 0.929 . S
C1136 C1135 1.383 . S
C1136 C1137 1.377 . S
C1137 H1121 0.930 . S
C1137 C1136 1.377 . S
C1137 C1138 1.379 . S
C1138 H1122 0.931 . S
C1138 C1132 1.383 . S
C1138 C1137 1.379 . S
H1139 C1133 0.959 . S
H1140 C1133 0.961 . S
H1141 C1133 0.960 . S
H1142 C1134 0.930 . S
H1143 C1135 0.929 . S
H1144 C1152 0.929 . S
H1145 C1154 0.930 . S
H1146 C1156 0.930 . S
H1147 C1159 0.929 . S
H1148 C1162 0.930 . S
H1149 C1164 0.960 . S
H1150 C1164 0.960 . S
H1151 C1164 0.960 . S
C1152 H1144 0.929 . S
C1152 C1153 1.377 . S
C1152 C1154 1.384 . S
C1153 C1152 1.377 . S
C1153 C1159 1.390 . S
C1154 H1145 0.930 . S
C1154 C1152 1.384 . S
C1154 C1155 1.372 . S
C1155 C1154 1.372 . S
C1155 C1156 1.400 . S
C1155 C1160 1.490 . S
C1156 H1146 0.930 . S
C1156 C1155 1.400 . S
C1156 C1159 1.386 . S
H1157 C1173 0.930 . S
H1158 C1174 0.931 . S
C1159 H1147 0.929 . S
C1159 C1153 1.390 . S
C1159 C1156 1.386 . S
C1160 C1155 1.490 . S
C1160 C1162 1.395 . S
C1160 C1163 1.403 . S
H1161 C1167 0.930 . S
C1162 H1148 0.930 . S
C1162 C1160 1.395 . S
C1162 C1165 1.403 . S
C1163 C1160 1.403 . S
C1163 C1164 1.524 . S
C1163 C1167 1.400 . S
C1164 H1149 0.960 . S
C1164 H1150 0.960 . S
C1164 H1151 0.960 . S
C1164 C1163 1.524 . S
C1165 C1162 1.403 . S
C1165 C1166 1.392 . S
C1165 C1169 1.495 . S
C1166 C1165 1.392 . S
C1166 C1167 1.385 . S
C1166 C1168 1.478 . S
C1167 H1161 0.930 . S
C1167 C1163 1.400 . S
C1167 C1166 1.385 . S
C1168 C1166 1.478 . S
C1168 C1170 1.381 . S
C1168 C1174 1.383 . S
C1169 C1165 1.495 . S
C1169 H1175 0.959 . S
C1169 H1176 0.961 . S
C1169 H1177 0.960 . S
C1170 C1168 1.381 . S
C1170 C1171 1.394 . S
C1170 H1178 0.930 . S
C1171 C1170 1.394 . S
C1171 C1172 1.383 . S
C1171 H1179 0.929 . S
C1172 C1171 1.383 . S
C1172 C1173 1.377 . S
C1173 H1157 0.930 . S
C1173 C1172 1.377 . S
C1173 C1174 1.379 . S
C1174 H1158 0.931 . S
C1174 C1168 1.383 . S
C1174 C1173 1.379 . S
H1175 C1169 0.959 . S
H1176 C1169 0.961 . S
H1177 C1169 0.960 . S
H1178 C1170 0.930 . S
H1179 C1171 0.929 . S
H1180 C1188 0.929 . S
H1181 C1190 0.930 . S
H1182 C1192 0.930 . S
H1183 C1195 0.929 . S
H1184 C1198 0.930 . S
H1185 C1200 0.960 . S
H1186 C1200 0.960 . S
H1187 C1200 0.960 . S
C1188 H1180 0.929 . S
C1188 C1189 1.377 . S
C1188 C1190 1.384 . S
C1189 C1188 1.377 . S
C1189 C1195 1.390 . S
C1190 H1181 0.930 . S
C1190 C1188 1.384 . S
C1190 C1191 1.372 . S
C1191 C1190 1.372 . S
C1191 C1192 1.400 . S
C1191 C1196 1.490 . S
C1192 H1182 0.930 . S
C1192 C1191 1.400 . S
C1192 C1195 1.386 . S
H1193 C1209 0.930 . S
H1194 C1210 0.931 . S
C1195 H1183 0.929 . S
C1195 C1189 1.390 . S
C1195 C1192 1.386 . S
C1196 C1191 1.490 . S
C1196 C1198 1.395 . S
C1196 C1199 1.403 . S
H1197 C1203 0.930 . S
C1198 H1184 0.930 . S
C1198 C1196 1.395 . S
C1198 C1201 1.403 . S
C1199 C1196 1.403 . S
C1199 C1200 1.524 . S
C1199 C1203 1.400 . S
C1200 H1185 0.960 . S
C1200 H1186 0.960 . S
C1200 H1187 0.960 . S
C1200 C1199 1.524 . S
C1201 C1198 1.403 . S
C1201 C1202 1.392 . S
C1201 C1205 1.495 . S
C1202 C1201 1.392 . S
C1202 C1203 1.385 . S
C1202 C1204 1.478 . S
C1203 H1197 0.930 . S
C1203 C1199 1.400 . S
C1203 C1202 1.385 . S
C1204 C1202 1.478 . S
C1204 C1206 1.381 . S
C1204 C1210 1.383 . S
C1205 C1201 1.495 . S
C1205 H1211 0.959 . S
C1205 H1212 0.961 . S
C1205 H1213 0.960 . S
C1206 C1204 1.381 . S
C1206 C1207 1.394 . S
C1206 H1214 0.930 . S
C1207 C1206 1.394 . S
C1207 C1208 1.383 . S
C1207 H1215 0.929 . S
C1208 C1207 1.383 . S
C1208 C1209 1.377 . S
C1209 H1193 0.930 . S
C1209 C1208 1.377 . S
C1209 C1210 1.379 . S
C1210 H1194 0.931 . S
C1210 C1204 1.383 . S
C1210 C1209 1.379 . S
H1211 C1205 0.959 . S
H1212 C1205 0.961 . S
H1213 C1205 0.960 . S
H1214 C1206 0.930 . S
H1215 C1207 0.929 . S
H1216 C1224 0.929 . S
H1217 C1226 0.930 . S
H1218 C1228 0.930 . S
H1219 C1231 0.929 . S
H1220 C1234 0.930 . S
H1221 C1236 0.960 . S
H1222 C1236 0.960 . S
H1223 C1236 0.960 . S
C1224 H1216 0.929 . S
C1224 C1225 1.377 . S
C1224 C1226 1.384 . S
C1225 C1224 1.377 . S
C1225 C1231 1.390 . S
C1226 H1217 0.930 . S
C1226 C1224 1.384 . S
C1226 C1227 1.372 . S
C1227 C1226 1.372 . S
C1227 C1228 1.400 . S
C1227 C1232 1.490 . S
C1228 H1218 0.930 . S
C1228 C1227 1.400 . S
C1228 C1231 1.386 . S
H1229 C1245 0.930 . S
H1230 C1246 0.931 . S
C1231 H1219 0.929 . S
C1231 C1225 1.390 . S
C1231 C1228 1.386 . S
C1232 C1227 1.490 . S
C1232 C1234 1.395 . S
C1232 C1235 1.403 . S
H1233 C1239 0.930 . S
C1234 H1220 0.930 . S
C1234 C1232 1.395 . S
C1234 C1237 1.403 . S
C1235 C1232 1.403 . S
C1235 C1236 1.524 . S
C1235 C1239 1.400 . S
C1236 H1221 0.960 . S
C1236 H1222 0.960 . S
C1236 H1223 0.960 . S
C1236 C1235 1.524 . S
C1237 C1234 1.403 . S
C1237 C1238 1.392 . S
C1237 C1241 1.495 . S
C1238 C1237 1.392 . S
C1238 C1239 1.385 . S
C1238 C1240 1.478 . S
C1239 H1233 0.930 . S
C1239 C1235 1.400 . S
C1239 C1238 1.385 . S
C1240 C1238 1.478 . S
C1240 C1242 1.381 . S
C1240 C1246 1.383 . S
C1241 C1237 1.495 . S
C1241 H1247 0.959 . S
C1241 H1248 0.961 . S
C1241 H1249 0.960 . S
C1242 C1240 1.381 . S
C1242 C1243 1.394 . S
C1242 H1250 0.930 . S
C1243 C1242 1.394 . S
C1243 C1244 1.383 . S
C1243 H1251 0.929 . S
C1244 C1243 1.383 . S
C1244 C1245 1.377 . S
C1245 H1229 0.930 . S
C1245 C1244 1.377 . S
C1245 C1246 1.379 . S
C1246 H1230 0.931 . S
C1246 C1240 1.383 . S
C1246 C1245 1.379 . S
H1247 C1241 0.959 . S
H1248 C1241 0.961 . S
H1249 C1241 0.960 . S
H1250 C1242 0.930 . S
H1251 C1243 0.929 . S
H1252 C1260 0.929 . S
H1253 C1262 0.930 . S
H1254 C1264 0.930 . S
H1255 C1267 0.929 . S
H1256 C1270 0.930 . S
H1257 C1272 0.960 . S
H1258 C1272 0.960 . S
H1259 C1272 0.960 . S
C1260 H1252 0.929 . S
C1260 C1261 1.377 . S
C1260 C1262 1.384 . S
C1261 C1260 1.377 . S
C1261 C1267 1.390 . S
C1262 H1253 0.930 . S
C1262 C1260 1.384 . S
C1262 C1263 1.372 . S
C1263 C1262 1.372 . S
C1263 C1264 1.400 . S
C1263 C1268 1.490 . S
C1264 H1254 0.930 . S
C1264 C1263 1.400 . S
C1264 C1267 1.386 . S
H1265 C1281 0.930 . S
H1266 C1282 0.931 . S
C1267 H1255 0.929 . S
C1267 C1261 1.390 . S
C1267 C1264 1.386 . S
C1268 C1263 1.490 . S
C1268 C1270 1.395 . S
C1268 C1271 1.403 . S
H1269 C1275 0.930 . S
C1270 H1256 0.930 . S
C1270 C1268 1.395 . S
C1270 C1273 1.403 . S
C1271 C1268 1.403 . S
C1271 C1272 1.524 . S
C1271 C1275 1.400 . S
C1272 H1257 0.960 . S
C1272 H1258 0.960 . S
C1272 H1259 0.960 . S
C1272 C1271 1.524 . S
C1273 C1270 1.403 . S
C1273 C1274 1.392 . S
C1273 C1277 1.495 . S
C1274 C1273 1.392 . S
C1274 C1275 1.385 . S
C1274 C1276 1.478 . S
C1275 H1269 0.930 . S
C1275 C1271 1.400 . S
C1275 C1274 1.385 . S
C1276 C1274 1.478 . S
C1276 C1278 1.381 . S
C1276 C1282 1.383 . S
C1277 C1273 1.495 . S
C1277 H1283 0.959 . S
C1277 H1284 0.961 . S
C1277 H1285 0.960 . S
C1278 C1276 1.381 . S
C1278 C1279 1.394 . S
C1278 H1286 0.930 . S
C1279 C1278 1.394 . S
C1279 C1280 1.383 . S
C1279 H1287 0.929 . S
C1280 C1279 1.383 . S
C1280 C1281 1.377 . S
C1281 H1265 0.930 . S
C1281 C1280 1.377 . S
C1281 C1282 1.379 . S
C1282 H1266 0.931 . S
C1282 C1276 1.383 . S
C1282 C1281 1.379 . S
H1283 C1277 0.959 . S
H1284 C1277 0.961 . S
H1285 C1277 0.960 . S
H1286 C1278 0.930 . S
H1287 C1279 0.929 . S
C433 C71 1.679 . S
C452 C162 1.653 . S
C488 C246 1.621 . S
C469 C81 1.649 . S
C524 C239 1.668 . S
C505 C49 1.672 . S
C541 C59 1.640 . S
C560 C155 1.630 . S
C596 C319 1.675 . S
C577 C27 1.680 . S
C632 C403 1.689 . S
C613 C38 1.721 . S
C649 C5 1.670 . S
C668 C396 1.660 . S
C685 C16 1.714 . S
C704 C312 1.710 . S
C740 C146 1.459 . S
C721 C15 1.576 . S
C776 C230 1.424 . S
C757 C4 1.586 . S
C812 C241 1.431 . S
C793 C37 1.585 . S
C848 C157 1.364 . S
C829 C26 1.596 . S
C884 C325 1.442 . S
C865 C60 1.631 . S
C901 C48 1.665 . S
C920 C409 1.489 . S
C956 C398 1.435 . S
C937 C82 1.642 . S
C973 C70 1.675 . S
C992 C314 1.447 . S
C1028 C144 1.508 . S
C1009 C10 1.502 . S
C1064 C228 1.559 . S
C1045 C21 1.560 . S
C1081 C32 1.500 . S
C1100 C235 1.479 . S
C1136 C151 1.554 . S
C1117 C43 1.556 . S
C1172 C323 1.614 . S
C1153 C54 1.611 . S
C1189 C65 1.563 . S
C1208 C407 1.553 . S
C1225 C76 1.609 . S
C1244 C414 1.603 . S
C1261 C87 1.558 . S
C1280 C330 1.542 . S
