# Generated by pormake.
# Topology pto, (3,4)-cn, num edge types: 1
# Building blocks:
#     Node 0, Type 0, BuildingBlock: BETDIP_clean_linker_0, # of connection points: 3
#     Node 1, Type 0, BuildingBlock: BETDIP_clean_linker_0, # of connection points: 3
#     Node 2, Type 0, BuildingBlock: BETDIP_clean_linker_0, # of connection points: 3
#     Node 3, Type 0, BuildingBlock: BETDIP_clean_linker_0, # of connection points: 3
#     Node 4, Type 0, BuildingBlock: BETDIP_clean_linker_0, # of connection points: 3
#     Node 5, Type 0, BuildingBlock: BETDIP_clean_linker_0, # of connection points: 3
#     Node 6, Type 0, BuildingBlock: BETDIP_clean_linker_0, # of connection points: 3
#     Node 7, Type 0, BuildingBlock: BETDIP_clean_linker_0, # of connection points: 3
#     Node 8, Type 1, BuildingBlock: KOZSID_clean_sbu_0, # of connection points: 4
#     Node 9, Type 1, BuildingBlock: KOZSID_clean_sbu_0, # of connection points: 4
#     Node 10, Type 1, BuildingBlock: KOZSID_clean_sbu_0, # of connection points: 4
#     Node 11, Type 1, BuildingBlock: KOZSID_clean_sbu_0, # of connection points: 4
#     Node 12, Type 1, BuildingBlock: KOZSID_clean_sbu_0, # of connection points: 4
#     Node 13, Type 1, BuildingBlock: KOZSID_clean_sbu_0, # of connection points: 4
#     Edge 14, Type (0, 1), BuildingBlock: XUDNAN_clean_linker_2, # of connection points: 2
#     Edge 15, Type (0, 1), BuildingBlock: XUDNAN_clean_linker_2, # of connection points: 2
#     Edge 16, Type (0, 1), BuildingBlock: XUDNAN_clean_linker_2, # of connection points: 2
#     Edge 17, Type (0, 1), BuildingBlock: XUDNAN_clean_linker_2, # of connection points: 2
#     Edge 18, Type (0, 1), BuildingBlock: XUDNAN_clean_linker_2, # of connection points: 2
#     Edge 19, Type (0, 1), BuildingBlock: XUDNAN_clean_linker_2, # of connection points: 2
#     Edge 20, Type (0, 1), BuildingBlock: XUDNAN_clean_linker_2, # of connection points: 2
#     Edge 21, Type (0, 1), BuildingBlock: XUDNAN_clean_linker_2, # of connection points: 2
#     Edge 22, Type (0, 1), BuildingBlock: XUDNAN_clean_linker_2, # of connection points: 2
#     Edge 23, Type (0, 1), BuildingBlock: XUDNAN_clean_linker_2, # of connection points: 2
#     Edge 24, Type (0, 1), BuildingBlock: XUDNAN_clean_linker_2, # of connection points: 2
#     Edge 25, Type (0, 1), BuildingBlock: XUDNAN_clean_linker_2, # of connection points: 2
#     Edge 26, Type (0, 1), BuildingBlock: XUDNAN_clean_linker_2, # of connection points: 2
#     Edge 27, Type (0, 1), BuildingBlock: XUDNAN_clean_linker_2, # of connection points: 2
#     Edge 28, Type (0, 1), BuildingBlock: XUDNAN_clean_linker_2, # of connection points: 2
#     Edge 29, Type (0, 1), BuildingBlock: XUDNAN_clean_linker_2, # of connection points: 2
#     Edge 30, Type (0, 1), BuildingBlock: XUDNAN_clean_linker_2, # of connection points: 2
#     Edge 31, Type (0, 1), BuildingBlock: XUDNAN_clean_linker_2, # of connection points: 2
#     Edge 32, Type (0, 1), BuildingBlock: XUDNAN_clean_linker_2, # of connection points: 2
#     Edge 33, Type (0, 1), BuildingBlock: XUDNAN_clean_linker_2, # of connection points: 2
#     Edge 34, Type (0, 1), BuildingBlock: XUDNAN_clean_linker_2, # of connection points: 2
#     Edge 35, Type (0, 1), BuildingBlock: XUDNAN_clean_linker_2, # of connection points: 2
#     Edge 36, Type (0, 1), BuildingBlock: XUDNAN_clean_linker_2, # of connection points: 2
#     Edge 37, Type (0, 1), BuildingBlock: XUDNAN_clean_linker_2, # of connection points: 2
# Relax obj value: 0.011
# Max RMSD: 0.132
# Mean RMSD: 0.060
data_MOF--net-pto--node1-KOZSID_clean_sbu_0--node2-BETDIP_clean_linker_0--edge1-XUDNAN_clean_linker_2
_symmetry_space_group_name_H-M    P1
_symmetry_Int_Tables_number       1
_symmetry_cell_setting            triclinic
loop_
_symmetry_equiv_pos_as_xyz
'x, y, z'
_cell_length_a     36.756075
_cell_length_b     51.165118
_cell_length_c     44.916623
_cell_angle_alpha  95.703306
_cell_angle_beta   102.93749
_cell_angle_gamma 107.47095
loop_
_atom_site_label
_atom_site_type_symbol
_atom_site_fract_x
_atom_site_fract_y
_atom_site_fract_z
_atom_type_partial_charge
H0 H 0.18071 0.30967 0.33187 0.0
H1 H 0.26109 0.27507 0.29988 0.0
H2 H 0.25454 0.35367 0.2782 0.0
H3 H 0.19585 0.23623 0.28866 0.0
C4 C 0.19786 0.23863 0.31337 0.0
C5 C 0.2038 0.31149 0.32006 0.0
C6 C 0.2155 0.33432 0.3051 0.0
C7 C 0.21971 0.28987 0.31772 0.0
C8 C 0.24892 0.29182 0.30173 0.0
C9 C 0.26162 0.31473 0.28737 0.0
C10 C 0.24482 0.33589 0.28924 0.0
N11 N 0.20494 0.26556 0.33014 0.0
H12 H 0.19814 0.77924 0.66518 0.0
H13 H 0.29003 0.84964 0.72645 0.0
H14 H 0.27197 0.76733 0.74774 0.0
H15 H 0.25592 0.8742 0.7016 0.0
C16 C 0.243 0.86283 0.67795 0.0
C17 C 0.22223 0.78774 0.68616 0.0
C18 C 0.23254 0.76997 0.70583 0.0
C19 C 0.24282 0.81647 0.69324 0.0
C20 C 0.27398 0.82753 0.72066 0.0
C21 C 0.28455 0.81 0.74079 0.0
C22 C 0.26395 0.7812 0.73277 0.0
N23 N 0.23205 0.83329 0.67175 0.0
H24 H 0.84709 0.8 0.31224 0.0
H25 H 0.88423 0.83286 0.41019 0.0
H26 H 0.82676 0.87453 0.34619 0.0
H27 H 0.93554 0.8178 0.40632 0.0
C28 C 0.92046 0.79744 0.39163 0.0
C29 C 0.84899 0.81535 0.33151 0.0
C30 C 0.83396 0.8371 0.32591 0.0
C31 C 0.86862 0.81431 0.36173 0.0
C32 C 0.87093 0.8343 0.38661 0.0
C33 C 0.8558 0.85609 0.38133 0.0
C34 C 0.83757 0.85741 0.35079 0.0
N35 N 0.88682 0.79357 0.3665 0.0
H36 H 0.71465 0.24897 0.83352 0.0
H37 H 0.72751 0.33526 0.85016 0.0
H38 H 0.80306 0.30726 0.80267 0.0
H39 H 0.72367 0.31709 0.90238 0.0
C40 C 0.69463 0.30247 0.88989 0.0
C41 C 0.72959 0.27019 0.83139 0.0
C42 C 0.75943 0.27581 0.8159 0.0
C43 C 0.71932 0.29184 0.84463 0.0
C44 C 0.73795 0.31925 0.84135 0.0
C45 C 0.76857 0.32565 0.82628 0.0
C46 C 0.77906 0.30342 0.81365 0.0
N47 N 0.69001 0.28582 0.86116 0.0
H48 H 0.76133 0.80951 0.82708 0.0
H49 H 0.81781 0.84443 0.7589 0.0
H50 H 0.77742 0.89452 0.81825 0.0
H51 H 0.82935 0.80361 0.75079 0.0
C52 C 0.81903 0.79056 0.76685 0.0
C53 C 0.77112 0.82679 0.81533 0.0
C54 C 0.76706 0.85231 0.82501 0.0
C55 C 0.78973 0.82365 0.79185 0.0
C56 C 0.80326 0.84636 0.77702 0.0
C57 C 0.79885 0.87214 0.78644 0.0
C58 C 0.7808 0.87482 0.81056 0.0
N59 N 0.7959 0.79775 0.78568 0.0
H60 H 0.70848 0.25784 0.38027 0.0
H61 H 0.81253 0.3202 0.44096 0.0
H62 H 0.75519 0.33813 0.35529 0.0
H63 H 0.78599 0.29764 0.4776 0.0
C64 C 0.7784 0.27606 0.46678 0.0
C65 C 0.73003 0.2786 0.38529 0.0
C66 C 0.72765 0.2969 0.36402 0.0
C67 C 0.75988 0.28696 0.41338 0.0
C68 C 0.78853 0.31368 0.41988 0.0
C69 C 0.7872 0.33177 0.39852 0.0
C70 C 0.7567 0.32343 0.37093 0.0
N71 N 0.76101 0.26784 0.43422 0.0
H72 H 0.12417 0.32006 0.7101 0.0
H73 H 0.2259 0.30222 0.76005 0.0
H74 H 0.17756 0.35464 0.80751 0.0
H75 H 0.23749 0.30658 0.70998 0.0
C76 C 0.20971 0.2901 0.69831 0.0
C77 C 0.14646 0.32243 0.73149 0.0
C78 C 0.14709 0.33893 0.75883 0.0
C79 C 0.17502 0.3093 0.73163 0.0
C80 C 0.20402 0.31254 0.75941 0.0
C81 C 0.20476 0.32865 0.78672 0.0
C82 C 0.17614 0.34158 0.78644 0.0
N83 N 0.17426 0.2926 0.70401 0.0
H84 H 0.28165 0.85842 0.25478 0.0
H85 H 0.2806 0.77395 0.24901 0.0
H86 H 0.21898 0.80445 0.30779 0.0
H87 H 0.34922 0.80082 0.25594 0.0
C88 C 0.34343 0.81083 0.23597 0.0
C89 C 0.2717 0.83813 0.26122 0.0
C90 C 0.24809 0.83374 0.28217 0.0
C91 C 0.28483 0.81694 0.25027 0.0
C92 C 0.27196 0.79066 0.25871 0.0
C93 C 0.24807 0.78577 0.27937 0.0
C94 C 0.23656 0.8076 0.29121 0.0
N95 N 0.31248 0.82255 0.23207 0.0
C96 C 0.13176 0.60191 0.37026 0.0
C97 C 0.16665 0.61732 0.39255 0.0
C98 C 0.16453 0.6073 0.41934 0.0
C99 C 0.1285 0.58664 0.41202 0.0
N100 N 0.10768 0.58243 0.38203 0.0
Co101 Co 0.05201 0.55674 0.36265 0.0
N102 N 0.04776 0.54352 0.40276 0.0
C103 C 0.07674 0.55078 0.42967 0.0
C104 C 0.06659 0.53659 0.45248 0.0
C105 C 0.02898 0.51891 0.43932 0.0
C106 C 0.01806 0.52362 0.40917 0.0
N107 N 0.99577 0.53217 0.3436 0.0
C108 C 0.96996 0.51493 0.35622 0.0
C109 C 0.93286 0.50293 0.33526 0.0
C110 C 0.93567 0.51229 0.30819 0.0
C111 C 0.97397 0.52968 0.31422 0.0
N112 N 0.05682 0.56901 0.32223 0.0
C113 C 0.02961 0.55932 0.29438 0.0
C114 C 0.04141 0.57157 0.27078 0.0
C115 C 0.07817 0.59044 0.28443 0.0
C116 C 0.08653 0.58874 0.31574 0.0
N117 N 0.07137 0.52572 0.35144 0.0
C118 C 0.09938 0.48226 0.33444 0.0
C119 C 0.06576 0.48535 0.31547 0.0
C120 C 0.05244 0.50698 0.32429 0.0
C121 C 0.11826 0.50097 0.36247 0.0
C122 C 0.10389 0.52236 0.37045 0.0
N123 N 0.0328 0.58778 0.3737 0.0
C124 C 0.99941 0.62025 0.35774 0.0
C125 C 0.01137 0.63512 0.38806 0.0
C126 C 0.03306 0.62517 0.41128 0.0
C127 C 0.04348 0.60172 0.40365 0.0
C128 C 0.00999 0.59674 0.35121 0.0
H129 H 0.06068 0.59552 0.42229 0.0
H130 H 1.00003 0.58654 0.32759 0.0
H131 H 0.02678 0.50807 0.30862 0.0
H132 H 0.1198 0.53602 0.39199 0.0
C133 C 0.11311 0.57116 0.43288 0.0
C134 C 0.12206 0.60731 0.33863 0.0
C135 C 0.97967 0.50821 0.38726 0.0
C136 C 0.99134 0.54187 0.2921 0.0
H137 H 0.19085 0.63446 0.39003 0.0
H138 H 0.18625 0.61465 0.44168 0.0
H139 H 0.08461 0.53858 0.47577 0.0
H140 H 0.01194 0.50398 0.45066 0.0
H141 H 0.90666 0.48841 0.3389 0.0
H142 H 0.91282 0.5065 0.28646 0.0
H143 H 0.02455 0.56815 0.24682 0.0
H144 H 0.09625 0.60452 0.27287 0.0
H145 H 0.04955 0.47108 0.2938 0.0
H146 H 0.14458 0.49956 0.3779 0.0
H147 H 0.98292 0.62708 0.33875 0.0
H148 H 0.04231 0.63548 0.4353 0.0
C149 C 0.05425 0.5997 0.75547 0.0
C150 C 0.08612 0.62004 0.77671 0.0
C151 C 0.07689 0.62119 0.80457 0.0
C152 C 0.0401 0.60161 0.79892 0.0
N153 N 0.02578 0.58792 0.76932 0.0
Co154 Co 0.97314 0.55888 0.75143 0.0
N155 N 0.96716 0.55258 0.79322 0.0
C156 C 0.988 0.56986 0.82033 0.0
C157 C 0.9798 0.55876 0.84559 0.0
C158 C 0.95194 0.53302 0.83362 0.0
C159 C 0.94395 0.53002 0.80147 0.0
N160 N 0.92055 0.52987 0.73373 0.0
C161 C 0.90017 0.50973 0.74693 0.0
C162 C 0.86387 0.49401 0.72652 0.0
C163 C 0.86184 0.50467 0.69958 0.0
C164 C 0.89676 0.52631 0.70507 0.0
N165 N 0.97873 0.56527 0.70957 0.0
C166 C 0.94906 0.55755 0.68323 0.0
C167 C 0.96147 0.56536 0.65784 0.0
C168 C 1.00135 0.57921 0.66896 0.0
C169 C 0.01101 0.57917 0.70067 0.0
N170 N 0.99815 0.53017 0.7499 0.0
C171 C 0.02465 0.48435 0.75205 0.0
C172 C 0.99923 0.4866 0.72485 0.0
C173 C 0.98616 0.50966 0.7243 0.0
C174 C 0.0384 0.50626 0.77741 0.0
C175 C 0.0252 0.52907 0.77573 0.0
N176 N 0.94785 0.58751 0.75325 0.0
C177 C 0.94734 0.6339 0.74831 0.0
C178 C 0.91376 0.62939 0.75963 0.0
C179 C 0.89701 0.60304 0.76668 0.0
C180 C 0.91458 0.5826 0.76359 0.0
C181 C 0.96372 0.61271 0.74513 0.0
H182 H 0.90144 0.56288 0.77 0.0
H183 H 0.98972 0.617 0.73666 0.0
H184 H 0.96514 0.51033 0.70362 0.0
H185 H 0.03565 0.54528 0.7959 0.0
C186 C 0.02076 0.5929 0.82146 0.0
C187 C 0.04999 0.59498 0.72188 0.0
C188 C 0.91316 0.50635 0.77929 0.0
C189 C 0.91119 0.54023 0.68264 0.0
H190 H 0.11284 0.63324 0.77239 0.0
H191 H 0.09518 0.63435 0.82645 0.0
H192 H 0.99426 0.56748 0.86987 0.0
H193 H 0.93976 0.51816 0.8473 0.0
H194 H 0.84116 0.47675 0.73067 0.0
H195 H 0.83841 0.49683 0.67819 0.0
H196 H 0.94384 0.56107 0.63401 0.0
H197 H 0.02092 0.58878 0.65541 0.0
H198 H 0.98807 0.47009 0.70473 0.0
H199 H 0.05863 0.50549 0.79868 0.0
H200 H 0.96167 0.65389 0.74274 0.0
H201 H 0.87052 0.59815 0.77476 0.0
C202 C 0.24657 0.02046 0.54253 0.0
C203 C 0.28406 0.02154 0.55874 0.0
C204 C 0.31048 0.04285 0.55074 0.0
C205 C 0.28781 0.05351 0.53014 0.0
N206 N 0.24839 0.04045 0.52465 0.0
Co207 Co 0.20482 0.0488 0.49554 0.0
N208 N 0.24388 0.07771 0.48078 0.0
C209 C 0.28379 0.08485 0.48959 0.0
C210 C 0.30276 0.10486 0.47495 0.0
C211 C 0.27325 0.11083 0.45551 0.0
C212 C 0.23782 0.09412 0.45955 0.0
N213 N 0.16128 0.0577 0.46721 0.0
C214 C 0.16308 0.07648 0.44784 0.0
C215 C 0.12569 0.07673 0.43319 0.0
C216 C 0.09929 0.05732 0.44354 0.0
C217 C 0.12196 0.04649 0.46394 0.0
N218 N 0.16582 0.01923 0.5095 0.0
C219 C 0.1259 0.01165 0.50027 0.0
C220 C 0.10687 0.99001 0.51293 0.0
C221 C 0.13637 0.98299 0.53098 0.0
C222 C 0.17182 1.00081 0.52817 0.0
N223 N 0.20587 0.07762 0.52933 0.0
C224 C 0.20841 0.11988 0.57616 0.0
C225 C 0.1727 0.09908 0.56034 0.0
C226 C 0.17213 0.07824 0.53728 0.0
C227 C 0.24263 0.11912 0.56803 0.0
C228 C 0.24073 0.09807 0.54496 0.0
N229 N 0.20387 0.02016 0.46178 0.0
C230 C 0.16808 0.98367 0.41691 0.0
C231 C 0.20318 0.97958 0.41418 0.0
C232 C 0.23852 0.99611 0.43552 0.0
C233 C 0.23826 0.01628 0.45871 0.0
C234 C 0.16902 0.00372 0.44097 0.0
H235 H 0.26633 0.02849 0.47384 0.0
H236 H 0.14124 0.00551 0.44236 0.0
H237 H 0.14406 0.06291 0.52624 0.0
H238 H 0.268 0.099 0.54013 0.0
C239 C 0.30263 0.07341 0.51281 0.0
C240 C 0.21029 0.99903 0.5433 0.0
C241 C 0.19927 0.0945 0.44255 0.0
C242 C 0.10715 0.02502 0.47938 0.0
H243 H 0.2917 0.00781 0.574 0.0
H244 H 0.34245 0.04903 0.55802 0.0
H245 H 0.33432 0.11419 0.47825 0.0
H246 H 0.27735 0.12584 0.44015 0.0
H247 H 0.11826 0.0896 0.4167 0.0
H248 H 0.06737 0.05165 0.43685 0.0
H249 H 0.0753 0.98026 0.50917 0.0
H250 H 0.13228 0.96644 0.54444 0.0
H251 H 0.14538 0.09864 0.56595 0.0
H252 H 0.27098 0.13502 0.57911 0.0
H253 H 0.13998 0.97113 0.4009 0.0
H254 H 0.26645 0.99381 0.43402 0.0
C255 C 0.51593 0.85856 0.07701 0.0
C256 C 0.51508 0.88181 0.09533 0.0
C257 C 0.54683 0.90369 0.09432 0.0
C258 C 0.56528 0.89271 0.07555 0.0
N259 N 0.54685 0.86532 0.06411 0.0
Co260 Co 0.56524 0.8415 0.03709 0.0
N261 N 0.60346 0.87459 0.02804 0.0
C262 C 0.61554 0.90092 0.04355 0.0
C263 C 0.64059 0.91961 0.03115 0.0
C264 C 0.64491 0.90409 0.00641 0.0
C265 C 0.62254 0.8766 0.00536 0.0
N266 N 0.58373 0.81774 0.01024 0.0
C267 C 0.60542 0.82453 0.98967 0.0
C268 C 0.61273 0.80147 0.97659 0.0
C269 C 0.59492 0.77957 0.98937 0.0
C270 C 0.57795 0.7904 0.00956 0.0
N271 N 0.52703 0.80835 0.04608 0.0
C272 C 0.52631 0.78181 0.04027 0.0
C273 C 0.49631 0.76316 0.04842 0.0
C274 C 0.4773 0.77893 0.06074 0.0
C275 C 0.49714 0.80647 0.0597 0.0
N276 N 0.5247 0.84216 0.00085 0.0
C277 C 0.47377 0.8441 0.94515 0.0
C278 C 0.4768 0.81868 0.95226 0.0
C279 C 0.50251 0.81818 0.98012 0.0
C280 C 0.49546 0.86838 0.96707 0.0
C281 C 0.52038 0.86691 0.99486 0.0
N282 N 0.6063 0.84095 0.07314 0.0
C283 C 0.62701 0.83704 0.12683 0.0
C284 C 0.66595 0.84195 0.12496 0.0
C285 C 0.67424 0.84587 0.09647 0.0
C286 C 0.64409 0.84519 0.07092 0.0
C287 C 0.59776 0.83672 0.10074 0.0
H288 H 0.65159 0.84837 0.04941 0.0
H289 H 0.56838 0.83342 0.10312 0.0
H290 H 0.50531 0.79845 0.98438 0.0
H291 H 0.53702 0.88599 0.01106 0.0
C292 C 0.59755 0.90794 0.0659 0.0
C293 C 0.4907 0.83009 0.07651 0.0
C294 C 0.62265 0.85285 0.98414 0.0
C295 C 0.55158 0.77487 0.02435 0.0
H296 H 0.49449 0.88276 0.1089 0.0
H297 H 0.55532 0.92508 0.10579 0.0
H298 H 0.65288 0.94201 0.03837 0.0
H299 H 0.66263 0.91215 0.99101 0.0
H300 H 0.62958 0.80054 0.95985 0.0
H301 H 0.59351 0.75814 0.98388 0.0
H302 H 0.48893 0.74077 0.04553 0.0
H303 H 0.45266 0.77121 0.0706 0.0
H304 H 0.46064 0.79943 0.93588 0.0
H305 H 0.49348 0.8884 0.96265 0.0
H306 H 0.61934 0.83419 0.14848 0.0
H307 H 0.70385 0.84941 0.09389 0.0
C308 C 0.8622 0.03814 0.65563 0.0
C309 C 0.89993 0.0386 0.67044 0.0
C310 C 0.92599 0.06001 0.66227 0.0
C311 C 0.90288 0.07118 0.64272 0.0
N312 N 0.86359 0.05825 0.63797 0.0
Co313 Co 0.81994 0.06596 0.60851 0.0
N314 N 0.85801 0.09966 0.59972 0.0
C315 C 0.8977 0.10974 0.61189 0.0
C316 C 0.91572 0.13433 0.60333 0.0
C317 C 0.88557 0.14073 0.58523 0.0
C318 C 0.85085 0.11954 0.58379 0.0
N319 N 0.77664 0.07269 0.57756 0.0
C320 C 0.77745 0.09439 0.56236 0.0
C321 C 0.74042 0.09095 0.54316 0.0
C322 C 0.71536 0.06634 0.54658 0.0
C323 C 0.73833 0.05618 0.56761 0.0
N324 N 0.78148 0.03353 0.61909 0.0
C325 C 0.74171 0.0241 0.60739 0.0
C326 C 0.72256 0.0029 0.62054 0.0
C327 C 0.75183 0.99859 0.64207 0.0
C328 C 0.78743 0.01721 0.64047 0.0
N329 N 0.8134 0.09065 0.64223 0.0
C330 C 0.80526 0.12781 0.68863 0.0
C331 C 0.77256 0.11168 0.66446 0.0
C332 C 0.77713 0.09301 0.64185 0.0
C333 C 0.84195 0.12483 0.68952 0.0
C334 C 0.84545 0.10646 0.66606 0.0
N335 N 0.82679 0.04106 0.57466 0.0
C336 C 0.80422 0.99678 0.53964 0.0
C337 C 0.84088 0.00255 0.53301 0.0
C338 C 0.86936 0.02859 0.54597 0.0
C339 C 0.86173 0.04737 0.56636 0.0
C340 C 0.79777 0.01623 0.5602 0.0
H341 H 0.88505 0.06662 0.57537 0.0
H342 H 0.76928 0.01033 0.56441 0.0
H343 H 0.75102 0.0808 0.62416 0.0
H344 H 0.87445 0.10561 0.66743 0.0
C345 C 0.91705 0.09526 0.6308 0.0
C346 C 0.82609 0.01842 0.65937 0.0
C347 C 0.81175 0.11947 0.56747 0.0
C348 C 0.72357 0.03455 0.58286 0.0
H349 H 0.90787 0.02499 0.68576 0.0
H350 H 0.95798 0.06693 0.67008 0.0
H351 H 0.94696 0.14632 0.60976 0.0
H352 H 0.88869 0.15904 0.57452 0.0
H353 H 0.73186 0.10524 0.52917 0.0
H354 H 0.68366 0.05782 0.53653 0.0
H355 H 0.69108 0.99178 0.61499 0.0
H356 H 0.7473 0.98331 0.65707 0.0
H357 H 0.74353 0.11326 0.66323 0.0
H358 H 0.86801 0.1371 0.70788 0.0
H359 H 0.78099 0.97696 0.52991 0.0
H360 H 0.89777 0.03444 0.54069 0.0
C361 C 0.43356 0.34026 0.12275 0.0
C362 C 0.44163 0.3667 0.13914 0.0
C363 C 0.47187 0.38406 0.13024 0.0
C364 C 0.48047 0.36725 0.10906 0.0
N365 N 0.45698 0.3403 0.10335 0.0
Co366 Co 0.46099 0.30829 0.07611 0.0
N367 N 0.5088 0.33309 0.06597 0.0
C368 C 0.5264 0.36088 0.07611 0.0
C369 C 0.55658 0.3727 0.0634 0.0
C370 C 0.55818 0.35133 0.04366 0.0
C371 C 0.52899 0.32742 0.04571 0.0
N372 N 0.46524 0.2762 0.04927 0.0
C373 C 0.49075 0.27567 0.03178 0.0
C374 C 0.48411 0.24876 0.01726 0.0
C375 C 0.45249 0.23183 0.02501 0.0
C376 C 0.44189 0.24921 0.04401 0.0
N377 N 0.41299 0.28358 0.08595 0.0
C378 C 0.39392 0.25611 0.07468 0.0
C379 C 0.36278 0.24468 0.08667 0.0
C380 C 0.36239 0.26598 0.10731 0.0
C381 C 0.3935 0.2892 0.10669 0.0
N382 N 0.42652 0.31582 0.03935 0.0
C383 C 0.38251 0.32595 0.9844 0.0
C384 C 0.37435 0.29914 0.99126 0.0
C385 C 0.39669 0.29455 0.01856 0.0
C386 C 0.41195 0.34775 0.00597 0.0
C387 C 0.43307 0.34232 0.03321 0.0
N388 N 0.49536 0.30076 0.11281 0.0
C389 C 0.5086 0.26934 0.14735 0.0
C390 C 0.54001 0.29093 0.16766 0.0
C391 C 0.54947 0.31736 0.15962 0.0
C392 C 0.52688 0.32179 0.13235 0.0
C393 C 0.48707 0.27462 0.12017 0.0
H394 H 0.53502 0.34252 0.12788 0.0
H395 H 0.46348 0.25727 0.10572 0.0
H396 H 0.38979 0.27353 0.02194 0.0
H397 H 0.45499 0.35988 0.04865 0.0
C398 C 0.51224 0.37566 0.09602 0.0
C399 C 0.4053 0.31548 0.12788 0.0
C400 C 0.52028 0.30012 0.02693 0.0
C401 C 0.40889 0.24104 0.05578 0.0
H402 H 0.42787 0.37262 0.15644 0.0
H403 H 0.48685 0.40609 0.13906 0.0
H404 H 0.57438 0.39447 0.06721 0.0
H405 H 0.57798 0.3535 0.02884 0.0
H406 H 0.49995 0.24211 0.00206 0.0
H407 H 0.43834 0.2096 0.01716 0.0
H408 H 0.34386 0.22314 0.0821 0.0
H409 H 0.34247 0.26441 0.12204 0.0
H410 H 0.3518 0.28159 0.9751 0.0
H411 H 0.41883 0.36896 0.00176 0.0
H412 H 0.5006 0.2484 0.15237 0.0
H413 H 0.57347 0.33478 0.17474 0.0
H414 H 0.1973 0.36191 0.35287 0.0
H415 H 0.18816 0.35466 0.25414 0.0
H416 H 0.15743 0.39131 0.25122 0.0
H417 H 0.10365 0.37417 0.34879 0.0
H418 H 0.12263 0.39893 0.38467 0.0
H419 H 0.14321 0.37156 0.37909 0.0
H420 H 0.21313 0.40836 0.39113 0.0
H421 H 0.19273 0.43584 0.39657 0.0
H422 H 0.22146 0.436 0.36887 0.0
H423 H 0.12948 0.42919 0.25873 0.0
H424 H 0.10459 0.46599 0.27619 0.0
H425 H 0.13016 0.44885 0.37001 0.0
C426 C 0.18845 0.36789 0.33063 0.0
C427 C 0.19544 0.3556 0.30378 0.0
C428 C 0.1837 0.36411 0.27511 0.0
C429 C 0.16604 0.38481 0.27316 0.0
C430 C 0.16013 0.39681 0.30006 0.0
C431 C 0.1708 0.38869 0.32826 0.0
C432 C 0.16153 0.40542 0.35365 0.0
C433 C 0.13093 0.38638 0.36735 0.0
C434 C 0.19948 0.42241 0.37905 0.0
C435 C 0.14419 0.42422 0.33526 0.0
C436 C 0.14365 0.41879 0.3044 0.0
C437 C 0.12943 0.43351 0.28279 0.0
C438 C 0.11513 0.45429 0.29292 0.0
C439 C 0.11505 0.46021 0.32441 0.0
C440 C 0.13 0.44496 0.34583 0.0
H441 H 0.15249 0.74615 0.69394 0.0
H442 H 0.26082 0.72624 0.70552 0.0
H443 H 0.2232 0.67669 0.70294 0.0
H444 H 0.11489 0.70485 0.7429 0.0
H445 H 0.06373 0.69404 0.721 0.0
H446 H 0.09767 0.72665 0.718 0.0
H447 H 0.07956 0.71135 0.65826 0.0
H448 H 0.04541 0.67861 0.66113 0.0
H449 H 0.08405 0.67906 0.64235 0.0
H450 H 0.17568 0.63097 0.70673 0.0
H451 H 0.12201 0.59308 0.71712 0.0
H452 H 0.04505 0.64283 0.70326 0.0
C453 C 0.16797 0.73114 0.69477 0.0
C454 C 0.2094 0.73985 0.69954 0.0
C455 C 0.229 0.71986 0.70169 0.0
C456 C 0.20786 0.6917 0.70011 0.0
C457 C 0.16712 0.68386 0.6963 0.0
C458 C 0.14733 0.703 0.6935 0.0
C459 C 0.10439 0.68994 0.69316 0.0
C460 C 0.09463 0.70475 0.72039 0.0
C461 C 0.07672 0.68973 0.66186 0.0
C462 C 0.10343 0.66076 0.69727 0.0
C463 C 0.13971 0.65748 0.69855 0.0
C464 C 0.14688 0.63305 0.70499 0.0
C465 C 0.11638 0.61166 0.71079 0.0
C466 C 0.07946 0.61499 0.71012 0.0
C467 C 0.07275 0.63961 0.70282 0.0
H468 H 0.89255 0.74258 0.36138 0.0
H469 H 0.98947 0.80302 0.4327 0.0
H470 H 0.02223 0.76766 0.44106 0.0
H471 H 0.89079 0.68286 0.39964 0.0
H472 H 0.8795 0.65901 0.36387 0.0
H473 H 0.86317 0.68888 0.36397 0.0
H474 H 0.89879 0.70456 0.32185 0.0
H475 H 0.91525 0.67477 0.32165 0.0
H476 H 0.95081 0.70932 0.32878 0.0
H477 H 0.04595 0.7267 0.4399 0.0
H478 H 0.05873 0.68252 0.43002 0.0
H479 H 0.94469 0.64769 0.36135 0.0
C480 C 0.92058 0.74831 0.3788 0.0
C481 C 0.93867 0.77553 0.39638 0.0
C482 C 0.97526 0.78224 0.41902 0.0
C483 C 0.99404 0.76233 0.42394 0.0
C484 C 0.97563 0.73571 0.40617 0.0
C485 C 0.93964 0.72859 0.38417 0.0
C486 C 0.92652 0.69855 0.36804 0.0
C487 C 0.88769 0.68131 0.37426 0.0
C488 C 0.92263 0.69671 0.33301 0.0
C489 C 0.961 0.69009 0.38412 0.0
C490 C 0.98895 0.71183 0.40603 0.0
C491 C 0.02403 0.70937 0.42308 0.0
C492 C 0.03086 0.68405 0.41746 0.0
C493 C 0.00266 0.66136 0.39506 0.0
C494 C 0.9671 0.66455 0.37845 0.0
H495 H 0.81005 0.3458 0.78345 0.0
H496 H 0.77677 0.3741 0.86496 0.0
H497 H 0.80591 0.42226 0.85924 0.0
H498 H 0.90719 0.3996 0.80702 0.0
H499 H 0.90843 0.40301 0.76768 0.0
H500 H 0.88148 0.37009 0.77599 0.0
H501 H 0.81815 0.36958 0.73612 0.0
H502 H 0.84478 0.40263 0.7279 0.0
H503 H 0.80024 0.39857 0.74015 0.0
H504 H 0.83322 0.46741 0.84207 0.0
H505 H 0.87003 0.50721 0.82162 0.0
H506 H 0.89894 0.45094 0.75944 0.0
C507 C 0.80912 0.36181 0.80058 0.0
C508 C 0.78928 0.35531 0.82404 0.0
C509 C 0.78941 0.37771 0.8456 0.0
C510 C 0.80649 0.40546 0.84289 0.0
C511 C 0.82494 0.41084 0.81927 0.0
C512 C 0.82758 0.38975 0.79912 0.0
C513 C 0.8521 0.40148 0.77744 0.0
C514 C 0.88952 0.39305 0.78234 0.0
C515 C 0.82732 0.39252 0.74339 0.0
C516 C 0.8623 0.43244 0.78842 0.0
C517 C 0.84545 0.43728 0.81207 0.0
C518 C 0.84784 0.46399 0.82438 0.0
C519 C 0.86907 0.48645 0.81284 0.0
C520 C 0.88921 0.48219 0.79035 0.0
C521 C 0.88501 0.45476 0.77751 0.0
H522 H 0.21116 0.23548 0.376 0.0
H523 H 0.17595 0.18566 0.28387 0.0
H524 H 0.17157 0.1433 0.30683 0.0
H525 H 0.27247 0.19871 0.41232 0.0
H526 H 0.25898 0.20113 0.44842 0.0
H527 H 0.2576 0.22754 0.42491 0.0
H528 H 0.18406 0.219 0.42363 0.0
H529 H 0.18531 0.19267 0.44729 0.0
H530 H 0.14874 0.18431 0.41042 0.0
H531 H 0.1724 0.1066 0.33935 0.0
H532 H 0.17827 0.07763 0.3801 0.0
H533 H 0.21389 0.15083 0.45125 0.0
C534 C 0.2021 0.2156 0.36071 0.0
C535 C 0.19358 0.2137 0.32813 0.0
C536 C 0.18238 0.18743 0.30888 0.0
C537 C 0.17984 0.1633 0.32168 0.0
C538 C 0.18876 0.16581 0.35385 0.0
C539 C 0.19963 0.19123 0.37317 0.0
C540 C 0.20866 0.18811 0.40702 0.0
C541 C 0.252 0.20487 0.42417 0.0
C542 C 0.17997 0.19652 0.42303 0.0
C543 C 0.20128 0.15703 0.40362 0.0
C544 C 0.18972 0.14458 0.37272 0.0
C545 C 0.18137 0.11608 0.36363 0.0
C546 C 0.1848 0.09983 0.38678 0.0
C547 C 0.19657 0.11219 0.41847 0.0
C548 C 0.20494 0.14109 0.42703 0.0
H549 H 0.28725 0.79263 0.79706 0.0
H550 H 0.35517 0.85311 0.75162 0.0
H551 H 0.40909 0.8706 0.80016 0.0
H552 H 0.31899 0.83451 0.87379 0.0
H553 H 0.32153 0.80563 0.89313 0.0
H554 H 0.28686 0.79967 0.85572 0.0
H555 H 0.31639 0.76425 0.834 0.0
H556 H 0.35109 0.77006 0.87131 0.0
H557 H 0.36874 0.7749 0.83723 0.0
H558 H 0.45682 0.88027 0.85341 0.0
H559 H 0.49549 0.87983 0.90597 0.0
H560 H 0.39778 0.81095 0.91493 0.0
C561 C 0.31346 0.80946 0.79709 0.0
C562 C 0.31673 0.82146 0.77031 0.0
C563 C 0.35146 0.84383 0.77184 0.0
C564 C 0.38241 0.85382 0.7993 0.0
C565 C 0.37832 0.84116 0.82501 0.0
C566 C 0.34476 0.81937 0.82405 0.0
C567 C 0.34845 0.80828 0.85421 0.0
C568 C 0.31709 0.81227 0.87015 0.0
C569 C 0.34604 0.77755 0.84885 0.0
C570 C 0.38958 0.82702 0.87225 0.0
C571 C 0.40614 0.8461 0.85519 0.0
C572 C 0.44407 0.86548 0.867 0.0
C573 C 0.46572 0.86516 0.89689 0.0
C574 C 0.44957 0.84538 0.91447 0.0
C575 C 0.41091 0.82621 0.90194 0.0
H576 H 0.80136 0.88058 0.39141 0.0
H577 H 0.92121 0.88157 0.43025 0.0
H578 H 0.92977 0.91849 0.47351 0.0
H579 H 0.8227 0.95451 0.40953 0.0
H580 H 0.77652 0.95164 0.41872 0.0
H581 H 0.77932 0.92469 0.3912 0.0
H582 H 0.75259 0.88787 0.42366 0.0
H583 H 0.74976 0.91472 0.45131 0.0
H584 H 0.77773 0.8925 0.46417 0.0
H585 H 0.92589 0.95559 0.51194 0.0
H586 H 0.90968 0.99049 0.54357 0.0
H587 H 0.79292 0.96647 0.4792 0.0
C588 C 0.82946 0.88864 0.40895 0.0
C589 C 0.86055 0.87806 0.40753 0.0
C590 C 0.89674 0.889 0.43112 0.0
C591 C 0.90198 0.91009 0.45568 0.0
C592 C 0.87078 0.92005 0.45633 0.0
C593 C 0.83522 0.90971 0.43364 0.0
C594 C 0.80659 0.92428 0.43974 0.0
C595 C 0.79566 0.9397 0.41322 0.0
C596 C 0.76948 0.90361 0.44504 0.0
C597 C 0.83172 0.94449 0.46935 0.0
C598 C 0.86862 0.94166 0.47848 0.0
C599 C 0.89714 0.95808 0.50499 0.0
C600 C 0.88773 0.97798 0.52267 0.0
C601 C 0.85013 0.98137 0.51376 0.0
C602 C 0.82179 0.96426 0.48675 0.0
H603 H 0.70094 0.31482 0.95138 0.0
H604 H 0.61485 0.28082 0.86193 0.0
H605 H 0.56051 0.27598 0.88735 0.0
H606 H 0.64521 0.26886 0.99437 0.0
H607 H 0.66069 0.29523 0.02864 0.0
H608 H 0.6925 0.29614 0.00325 0.0
H609 H 0.695 0.34653 0.99751 0.0
H610 H 0.66303 0.34571 0.02274 0.0
H611 H 0.6494 0.35361 0.98444 0.0
H612 H 0.51599 0.27817 0.92238 0.0
H613 H 0.48441 0.28304 0.96498 0.0
H614 H 0.59938 0.31087 0.03192 0.0
C615 C 0.6706 0.30625 0.93724 0.0
C616 C 0.66189 0.29823 0.90479 0.0
C617 C 0.62199 0.28694 0.88689 0.0
C618 C 0.59102 0.28422 0.9011 0.0
C619 C 0.60058 0.29242 0.93323 0.0
C620 C 0.63941 0.3028 0.95113 0.0
C621 C 0.64175 0.3095 0.98525 0.0
C622 C 0.66118 0.29134 0.00397 0.0
C623 C 0.66359 0.34069 0.99823 0.0
C624 C 0.59821 0.30165 0.98374 0.0
C625 C 0.57493 0.29216 0.9535 0.0
C626 C 0.53388 0.28519 0.94617 0.0
C627 C 0.51623 0.28801 0.97041 0.0
C628 C 0.53957 0.2973 0.00154 0.0
C629 C 0.58098 0.30381 0.00825 0.0
H630 H 0.25432 0.91839 0.68364 0.0
H631 H 0.21303 0.84254 0.61516 0.0
H632 H 0.20008 0.86918 0.57339 0.0
H633 H 0.183 0.94861 0.64649 0.0
H634 H 0.21749 0.98369 0.65665 0.0
H635 H 0.22355 0.95864 0.68114 0.0
H636 H 0.29506 0.96779 0.6762 0.0
H637 H 0.28918 0.99282 0.65165 0.0
H638 H 0.30335 0.96393 0.63817 0.0
H639 H 0.19244 0.90428 0.53893 0.0
H640 H 0.18985 0.94535 0.51456 0.0
H641 H 0.23476 0.99805 0.60536 0.0
C642 C 0.2425 0.90743 0.65983 0.0
C643 C 0.23464 0.87844 0.65264 0.0
C644 C 0.21919 0.86474 0.62125 0.0
C645 C 0.21178 0.8797 0.59735 0.0
C646 C 0.21987 0.9083 0.60522 0.0
C647 C 0.23479 0.92203 0.63571 0.0
C648 C 0.2408 0.95286 0.63795 0.0
C649 C 0.21464 0.96144 0.65666 0.0
C650 C 0.28471 0.97038 0.65181 0.0
C651 C 0.22704 0.95436 0.60396 0.0
C652 C 0.21516 0.92844 0.58544 0.0
C653 C 0.20161 0.92465 0.55321 0.0
C654 C 0.20023 0.94798 0.53958 0.0
C655 C 0.21229 0.97463 0.55818 0.0
C656 C 0.22562 0.97782 0.59074 0.0
H657 H 0.76345 0.80421 0.2858 0.0
H658 H 0.86536 0.87729 0.29513 0.0
H659 H 0.83506 0.88486 0.24307 0.0
H660 H 0.74256 0.78058 0.20172 0.0
H661 H 0.68968 0.76998 0.19578 0.0
H662 H 0.72104 0.76879 0.23237 0.0
H663 H 0.69093 0.79991 0.2611 0.0
H664 H 0.65966 0.80132 0.22463 0.0
H665 H 0.69222 0.83312 0.25029 0.0
H666 H 0.79268 0.88571 0.19151 0.0
H667 H 0.73992 0.88089 0.14426 0.0
H668 H 0.66416 0.808 0.16882 0.0
C669 C 0.77952 0.82143 0.27646 0.0
C670 C 0.81682 0.84002 0.29397 0.0
C671 C 0.83686 0.86278 0.28169 0.0
C672 C 0.81992 0.86719 0.25224 0.0
C673 C 0.78281 0.84872 0.23559 0.0
C674 C 0.76274 0.82634 0.24722 0.0
C675 C 0.72213 0.81077 0.22543 0.0
C676 C 0.71867 0.78075 0.21309 0.0
C677 C 0.68931 0.81133 0.24132 0.0
C678 C 0.72236 0.82809 0.19996 0.0
C679 C 0.75783 0.84968 0.20613 0.0
C680 C 0.76488 0.86876 0.18629 0.0
C681 C 0.73481 0.86579 0.15946 0.0
C682 C 0.69801 0.84403 0.15281 0.0
C683 C 0.6919 0.82492 0.17337 0.0
H684 H 0.75377 0.25918 0.75492 0.0
H685 H 0.78869 0.24024 0.84675 0.0
H686 H 0.80543 0.20054 0.82429 0.0
H687 H 0.70675 0.18809 0.71624 0.0
H688 H 0.72201 0.19393 0.68133 0.0
H689 H 0.71504 0.22174 0.7048 0.0
H690 H 0.78669 0.25317 0.70929 0.0
H691 H 0.79382 0.22549 0.68573 0.0
H692 H 0.82735 0.24094 0.72362 0.0
H693 H 0.81934 0.16358 0.79183 0.0
H694 H 0.82542 0.12989 0.7512 0.0
H695 H 0.7769 0.1709 0.68019 0.0
C696 C 0.76532 0.24676 0.7702 0.0
C697 C 0.77043 0.25271 0.8025 0.0
C698 C 0.78484 0.23588 0.82193 0.0
C699 C 0.79442 0.21341 0.80939 0.0
C700 C 0.78884 0.20791 0.77737 0.0
C701 C 0.7743 0.22394 0.75799 0.0
C702 C 0.76935 0.2128 0.72426 0.0
C703 C 0.72569 0.20359 0.70556 0.0
C704 C 0.79589 0.23439 0.70989 0.0
C705 C 0.78348 0.18807 0.72771 0.0
C706 C 0.79501 0.18579 0.75855 0.0
C707 C 0.81016 0.16503 0.76759 0.0
C708 C 0.81357 0.14607 0.74446 0.0
C709 C 0.8013 0.1478 0.71276 0.0
C710 C 0.78597 0.169 0.70432 0.0
H711 H 0.25809 0.32884 0.22978 0.0
H712 H 0.33025 0.30227 0.30295 0.0
H713 H 0.37658 0.30145 0.27082 0.0
H714 H 0.26786 0.28681 0.16693 0.0
H715 H 0.26989 0.31229 0.14182 0.0
H716 H 0.24377 0.31236 0.17125 0.0
H717 H 0.28644 0.3639 0.19397 0.0
H718 H 0.31262 0.36403 0.16449 0.0
H719 H 0.33964 0.37362 0.20493 0.0
H720 H 0.41333 0.30153 0.22975 0.0
H721 H 0.43765 0.30254 0.18244 0.0
H722 H 0.34186 0.32938 0.13658 0.0
C723 C 0.28405 0.32336 0.2393 0.0
C724 C 0.2907 0.31573 0.26892 0.0
C725 C 0.32449 0.30803 0.28023 0.0
C726 C 0.35105 0.30765 0.26224 0.0
C727 C 0.34339 0.31505 0.23302 0.0
C728 C 0.31077 0.32283 0.22165 0.0
C729 C 0.30842 0.3288 0.18906 0.0
C730 C 0.27022 0.30887 0.16591 0.0
C731 C 0.312 0.35941 0.18807 0.0
C732 C 0.34458 0.32287 0.18369 0.0
C733 C 0.36449 0.3151 0.20939 0.0
C734 C 0.39818 0.30781 0.20961 0.0
C735 C 0.41175 0.30842 0.1828 0.0
C736 C 0.39159 0.31622 0.15638 0.0
C737 C 0.35777 0.32362 0.15681 0.0
H738 H 0.8551 0.76599 0.73048 0.0
H739 H 0.80791 0.75764 0.81079 0.0
H740 H 0.8271 0.71608 0.8172 0.0
H741 H 0.82325 0.6918 0.70041 0.0
H742 H 0.86685 0.69383 0.68743 0.0
H743 H 0.84965 0.72327 0.68893 0.0
H744 H 0.91842 0.75438 0.72406 0.0
H745 H 0.93578 0.725 0.72274 0.0
H746 H 0.93896 0.74425 0.75963 0.0
H747 H 0.85291 0.67652 0.8164 0.0
H748 H 0.88136 0.63975 0.80703 0.0
H749 H 0.9091 0.6712 0.72549 0.0
C750 C 0.84878 0.75532 0.74933 0.0
C751 C 0.82995 0.7651 0.77006 0.0
C752 C 0.82212 0.75059 0.79447 0.0
C753 C 0.833 0.72693 0.7984 0.0
C754 C 0.85152 0.71784 0.77766 0.0
C755 C 0.85918 0.73138 0.75347 0.0
C756 C 0.87909 0.71685 0.73436 0.0
C757 C 0.85315 0.70578 0.70079 0.0
C758 C 0.92052 0.73628 0.73526 0.0
C759 C 0.88153 0.69318 0.75175 0.0
C760 C 0.86558 0.69431 0.77671 0.0
C761 C 0.86505 0.67518 0.79669 0.0
C762 C 0.88104 0.65416 0.79096 0.0
C763 C 0.89706 0.65211 0.76521 0.0
C764 C 0.89732 0.6721 0.74545 0.0
H765 H 0.83902 0.35101 0.36464 0.0
H766 H 0.80274 0.37493 0.44559 0.0
H767 H 0.84942 0.42301 0.45265 0.0
H768 H 0.9439 0.39314 0.3957 0.0
H769 H 0.94898 0.40133 0.35841 0.0
H770 H 0.91369 0.3689 0.36066 0.0
H771 H 0.85778 0.38087 0.32424 0.0
H772 H 0.89281 0.41342 0.3221 0.0
H773 H 0.84944 0.41312 0.33464 0.0
H774 H 0.89522 0.46942 0.44725 0.0
H775 H 0.94226 0.50937 0.4335 0.0
H776 H 0.9526 0.45377 0.359 0.0
C777 C 0.84139 0.36638 0.38405 0.0
C778 C 0.81755 0.35957 0.40463 0.0
C779 C 0.82112 0.37995 0.42978 0.0
C780 C 0.84736 0.40722 0.43384 0.0
C781 C 0.87013 0.41344 0.41282 0.0
C782 C 0.86791 0.39345 0.38876 0.0
C783 C 0.8956 0.40538 0.36943 0.0
C784 C 0.92743 0.39135 0.37117 0.0
C785 C 0.87252 0.40306 0.33561 0.0
C786 C 0.91325 0.43535 0.38599 0.0
C787 C 0.89796 0.43969 0.41079 0.0
C788 C 0.90801 0.46615 0.42831 0.0
C789 C 0.93465 0.48865 0.4204 0.0
C790 C 0.95141 0.48439 0.39565 0.0
C791 C 0.94052 0.45741 0.37831 0.0
H792 H 0.12804 0.37203 0.71751 0.0
H793 H 0.10455 0.34248 0.8008 0.0
H794 H 0.0658 0.3739 0.80537 0.0
H795 H 0.14358 0.44166 0.74338 0.0
H796 H 0.1201 0.44877 0.7068 0.0
H797 H 0.14154 0.42143 0.70743 0.0
H798 H 0.07452 0.38588 0.67449 0.0
H799 H 0.05289 0.4132 0.67349 0.0
H800 H 0.03059 0.38213 0.68758 0.0
H801 H 0.03656 0.41194 0.80454 0.0
H802 H 0.0162 0.4532 0.79717 0.0
H803 H 0.05717 0.4581 0.7139 0.0
C804 C 0.11367 0.37157 0.73612 0.0
C805 C 0.11911 0.35473 0.75874 0.0
C806 C 0.10079 0.35526 0.78328 0.0
C807 C 0.07863 0.37296 0.78599 0.0
C808 C 0.07482 0.38992 0.76388 0.0
C809 C 0.09145 0.38921 0.73922 0.0
C810 C 0.08517 0.41103 0.71995 0.0
C811 C 0.12497 0.43195 0.71938 0.0
C812 C 0.05924 0.39723 0.68692 0.0
C813 C 0.06344 0.4246 0.73815 0.0
C814 C 0.05757 0.41193 0.76329 0.0
C815 C 0.04047 0.42179 0.78471 0.0
C816 C 0.02925 0.44531 0.78046 0.0
C817 C 0.03508 0.45871 0.75498 0.0
C818 C 0.0519 0.44797 0.73333 0.0
H819 H 0.17643 0.75697 0.28917 0.0
H820 H 0.29302 0.75194 0.29198 0.0
H821 H 0.27302 0.70551 0.30633 0.0
H822 H 0.16523 0.72418 0.35591 0.0
H823 H 0.11293 0.70619 0.33976 0.0
H824 H 0.13614 0.7389 0.32907 0.0
H825 H 0.10969 0.71569 0.27098 0.0
H826 H 0.08659 0.68288 0.28152 0.0
H827 H 0.12097 0.68524 0.25808 0.0
H828 H 0.24014 0.65917 0.3194 0.0
H829 H 0.19718 0.61707 0.33295 0.0
H830 H 0.10352 0.65313 0.3243 0.0
C831 C 0.19793 0.74627 0.2931 0.0
C832 C 0.23621 0.75811 0.28908 0.0
C833 C 0.26323 0.74315 0.29419 0.0
C834 C 0.25226 0.71681 0.30257 0.0
C835 C 0.21425 0.7057 0.30604 0.0
C836 C 0.18758 0.72002 0.30171 0.0
C837 C 0.14872 0.7035 0.30733 0.0
C838 C 0.14027 0.71913 0.33464 0.0
C839 C 0.11448 0.69641 0.27771 0.0
C840 C 0.15774 0.67768 0.31544 0.0
C841 C 0.19565 0.6793 0.3144 0.0
C842 C 0.21052 0.65775 0.32053 0.0
C843 C 0.18608 0.63401 0.32818 0.0
C844 C 0.14752 0.63225 0.32994 0.0
C845 C 0.1331 0.65424 0.32327 0.0
H846 H 0.78706 0.87508 0.72421 0.0
H847 H 0.84267 0.92505 0.81638 0.0
H848 H 0.85855 0.96758 0.79355 0.0
H849 H 0.85725 0.91815 0.68533 0.0
H850 H 0.81869 0.91347 0.65044 0.0
H851 H 0.81505 0.8866 0.67381 0.0
H852 H 0.74652 0.88828 0.67779 0.0
H853 H 0.75018 0.91539 0.65482 0.0
H854 H 0.74206 0.92089 0.69272 0.0
H855 H 0.86137 0.00491 0.76172 0.0
H856 H 0.8561 0.03471 0.72189 0.0
H857 H 0.80221 0.96117 0.64988 0.0
C858 C 0.80353 0.89491 0.73946 0.0
C859 C 0.81346 0.8968 0.77207 0.0
C860 C 0.83442 0.92318 0.79135 0.0
C861 C 0.84368 0.94744 0.77861 0.0
C862 C 0.83224 0.94502 0.74649 0.0
C863 C 0.81319 0.91944 0.72707 0.0
C864 C 0.80273 0.92294 0.69338 0.0
C865 C 0.82475 0.90949 0.67463 0.0
C866 C 0.7577 0.91118 0.67884 0.0
C867 C 0.81801 0.95443 0.69707 0.0
C868 C 0.8349 0.96673 0.72793 0.0
C869 C 0.84887 0.99555 0.73743 0.0
C870 C 0.84569 0.01229 0.71475 0.0
C871 C 0.82894 1.00016 0.68301 0.0
C872 C 0.81524 0.97088 0.67407 0.0
H873 H 0.72967 0.31056 0.30642 0.0
H874 H 0.64953 0.26625 0.3566 0.0
H875 H 0.59342 0.25699 0.31042 0.0
H876 H 0.66706 0.34541 0.27101 0.0
H877 H 0.68098 0.34402 0.23503 0.0
H878 H 0.71545 0.34419 0.27057 0.0
H879 H 0.72219 0.29843 0.24604 0.0
H880 H 0.68784 0.29817 0.21032 0.0
H881 H 0.67843 0.26844 0.22947 0.0
H882 H 0.54534 0.25529 0.25987 0.0
H883 H 0.50915 0.26188 0.2093 0.0
H884 H 0.62041 0.30944 0.19346 0.0
C885 C 0.7004 0.29882 0.30781 0.0
C886 C 0.69424 0.28908 0.3353 0.0
C887 C 0.65533 0.2735 0.33574 0.0
C888 C 0.62316 0.26829 0.30965 0.0
C889 C 0.63027 0.27883 0.28329 0.0
C890 C 0.66795 0.29376 0.2822 0.0
C891 C 0.66743 0.30436 0.25185 0.0
C892 C 0.68369 0.33639 0.25747 0.0
C893 C 0.69033 0.29158 0.23333 0.0
C894 C 0.62346 0.29343 0.2362 0.0
C895 C 0.60256 0.27847 0.25454 0.0
C896 C 0.56144 0.26677 0.24521 0.0
C897 C 0.54116 0.27053 0.21642 0.0
C898 C 0.56199 0.2861 0.19744 0.0
C899 C 0.60369 0.29756 0.20753 0.0
H900 H 0.15665 0.24946 0.64949 0.0
H901 H 0.26912 0.27056 0.71858 0.0
H902 H 0.27692 0.2266 0.69804 0.0
H903 H 0.12498 0.17303 0.64555 0.0
H904 H 0.10477 0.16559 0.60399 0.0
H905 H 0.10508 0.197 0.62631 0.0
H906 H 0.14312 0.22647 0.5923 0.0
H907 H 0.14279 0.19519 0.56987 0.0
H908 H 0.18904 0.22261 0.58825 0.0
H909 H 0.27448 0.18211 0.66948 0.0
H910 H 0.26537 0.14127 0.63115 0.0
H911 H 0.15688 0.14966 0.5772 0.0
C912 C 0.18246 0.24443 0.66051 0.0
C913 C 0.21213 0.26306 0.68585 0.0
C914 C 0.24607 0.25637 0.69925 0.0
C915 C 0.25064 0.23143 0.68787 0.0
C916 C 0.22121 0.21354 0.66272 0.0
C917 C 0.18796 0.21975 0.64889 0.0
C918 C 0.16294 0.19805 0.62021 0.0
C919 C 0.12201 0.1825 0.62427 0.0
C920 C 0.15928 0.21138 0.59093 0.0
C921 C 0.18772 0.17905 0.61994 0.0
C922 C 0.22076 0.18819 0.64506 0.0
C923 C 0.24876 0.17473 0.64966 0.0
C924 C 0.24344 0.15165 0.62761 0.0
C925 C 0.21068 0.1424 0.60093 0.0
C926 C 0.18202 0.15602 0.59746 0.0
H927 H 0.33734 0.82962 0.1795 0.0
H928 H 0.40889 0.79633 0.24563 0.0
H929 H 0.45378 0.79779 0.21202 0.0
H930 H 0.34568 0.79152 0.11082 0.0
H931 H 0.34859 0.8195 0.08907 0.0
H932 H 0.32224 0.81679 0.11859 0.0
H933 H 0.36568 0.8671 0.146 0.0
H934 H 0.39207 0.86997 0.11649 0.0
H935 H 0.41882 0.87625 0.15682 0.0
H936 H 0.49083 0.80264 0.17231 0.0
H937 H 0.51832 0.81022 0.12742 0.0
H938 H 0.42295 0.83923 0.0851 0.0
C939 C 0.36262 0.82284 0.18691 0.0
C940 C 0.3699 0.81298 0.21525 0.0
C941 C 0.40297 0.80402 0.22405 0.0
C942 C 0.42861 0.80476 0.20514 0.0
C943 C 0.42067 0.81441 0.17733 0.0
C944 C 0.38856 0.82328 0.16808 0.0
C945 C 0.38681 0.8322 0.13665 0.0
C946 C 0.34855 0.81391 0.11235 0.0
C947 C 0.3911 0.86323 0.13915 0.0
C948 C 0.42288 0.82688 0.12982 0.0
C949 C 0.44192 0.81672 0.15377 0.0
C950 C 0.47615 0.81049 0.15333 0.0
C951 C 0.4915 0.81481 0.12775 0.0
C952 C 0.47251 0.82505 0.10281 0.0
C953 C 0.43773 0.83116 0.10383 0.0
H954 H 0.77085 0.22095 0.44923 0.0
H955 H 0.79827 0.28498 0.5296 0.0
H956 H 0.8083 0.2516 0.56421 0.0
H957 H 0.7186 0.16284 0.48062 0.0
H958 H 0.73844 0.13884 0.46328 0.0
H959 H 0.73205 0.16744 0.4448 0.0
H960 H 0.80619 0.18398 0.44542 0.0
H961 H 0.81278 0.15543 0.46387 0.0
H962 H 0.84339 0.19067 0.48169 0.0
H963 H 0.81565 0.21143 0.59003 0.0
H964 H 0.82165 0.16732 0.60525 0.0
H965 H 0.79194 0.13 0.5083 0.0
C966 C 0.77867 0.22787 0.4741 0.0
C967 C 0.78353 0.25548 0.48685 0.0
C968 C 0.79428 0.26385 0.51947 0.0
C969 C 0.79999 0.24506 0.53927 0.0
C970 C 0.79507 0.218 0.52603 0.0
C971 C 0.78482 0.20942 0.49421 0.0
C972 C 0.78256 0.1794 0.48601 0.0
C973 C 0.7404 0.16105 0.46759 0.0
C974 C 0.81305 0.17726 0.4682 0.0
C975 C 0.79323 0.1725 0.51815 0.0
C976 C 0.80008 0.19501 0.54092 0.0
C977 C 0.81033 0.19366 0.57242 0.0
C978 C 0.81368 0.16865 0.58085 0.0
C979 C 0.80692 0.14546 0.55789 0.0
C980 C 0.7968 0.14746 0.5262 0.0
H981 H 0.19819 0.31133 0.84161 0.0
H982 H 0.2832 0.3548 0.79502 0.0
H983 H 0.33785 0.36079 0.84165 0.0
H984 H 0.24866 0.35119 0.91978 0.0
H985 H 0.23659 0.32117 0.93821 0.0
H986 H 0.20403 0.32211 0.9021 0.0
H987 H 0.20899 0.27577 0.87738 0.0
H988 H 0.2416 0.27471 0.91338 0.0
H989 H 0.25702 0.2732 0.87806 0.0
H990 H 0.38292 0.36167 0.89283 0.0
H991 H 0.41631 0.3547 0.94416 0.0
H992 H 0.3025 0.30821 0.95666 0.0
C993 C 0.22833 0.32239 0.84154 0.0
C994 C 0.2368 0.33293 0.8151 0.0
C995 C 0.27644 0.34679 0.8153 0.0
C996 C 0.30751 0.3503 0.84161 0.0
C997 C 0.29835 0.33953 0.86734 0.0
C998 C 0.25979 0.32565 0.86747 0.0
C999 C 0.25833 0.31465 0.89746 0.0
C1000 C 0.23555 0.32809 0.91545 0.0
C1001 C 0.24043 0.28269 0.89118 0.0
C1002 C 0.30206 0.32442 0.91408 0.0
C1003 C 0.32455 0.33904 0.89644 0.0
C1004 C 0.36565 0.35028 0.90688 0.0
C1005 C 0.38432 0.34632 0.93606 0.0
C1006 C 0.36195 0.33096 0.95428 0.0
C1007 C 0.32028 0.31992 0.94309 0.0
H1008 H 0.26242 0.85374 0.34372 0.0
H1009 H 0.20966 0.86575 0.25194 0.0
H1010 H 0.19002 0.90354 0.27558 0.0
H1011 H 0.19126 0.86661 0.38135 0.0
H1012 H 0.22773 0.88508 0.41717 0.0
H1013 H 0.23635 0.85858 0.3929 0.0
H1014 H 0.30266 0.89405 0.39086 0.0
H1015 H 0.29432 0.92061 0.41521 0.0
H1016 H 0.30291 0.92639 0.37806 0.0
H1017 H 0.17453 0.93917 0.30988 0.0
H1018 H 0.17035 0.97276 0.3517 0.0
H1019 H 0.23677 0.93884 0.42062 0.0
C1020 C 0.24654 0.86428 0.32866 0.0
C1021 C 0.23713 0.85679 0.29606 0.0
C1022 C 0.21702 0.87128 0.27698 0.0
C1023 C 0.20565 0.89262 0.29021 0.0
C1024 C 0.21516 0.8994 0.32252 0.0
C1025 C 0.23563 0.88588 0.34146 0.0
C1026 C 0.2438 0.89783 0.37543 0.0
C1027 C 0.22357 0.8757 0.39272 0.0
C1028 C 0.28858 0.91048 0.39078 0.0
C1029 C 0.22462 0.92016 0.37274 0.0
C1030 C 0.20781 0.92055 0.34207 0.0
C1031 C 0.18777 0.93912 0.33395 0.0
C1032 C 0.18536 0.958 0.35778 0.0
C1033 C 0.20338 0.95839 0.38925 0.0
C1034 C 0.22303 0.9391 0.3967 0.0
H1035 H 0.68994 0.83539 0.82775 0.0
H1036 H 0.81051 0.87791 0.88319 0.0
H1037 H 0.78651 0.88373 0.92992 0.0
H1038 H 0.6458 0.8788 0.8667 0.0
H1039 H 0.6014 0.85038 0.86419 0.0
H1040 H 0.62799 0.84958 0.83511 0.0
H1041 H 0.63337 0.80188 0.846 0.0
H1042 H 0.6068 0.80255 0.87508 0.0
H1043 H 0.65487 0.79851 0.88505 0.0
H1044 H 0.75011 0.88213 0.97075 0.0
H1045 H 0.7029 0.87619 0.00308 0.0
H1046 H 0.60511 0.83785 0.92091 0.0
C1047 C 0.71105 0.84599 0.84979 0.0
C1048 C 0.75196 0.85622 0.85225 0.0
C1049 C 0.77905 0.87004 0.88118 0.0
C1050 C 0.76569 0.87339 0.9077 0.0
C1051 C 0.72514 0.86305 0.90468 0.0
C1052 C 0.69812 0.84987 0.87645 0.0
C1053 C 0.65614 0.8409 0.87967 0.0
C1054 C 0.63138 0.85581 0.86027 0.0
C1055 C 0.63666 0.80907 0.87093 0.0
C1056 C 0.66386 0.85086 0.91414 0.0
C1057 C 0.70391 0.8634 0.92811 0.0
C1058 C 0.71863 0.87289 0.96001 0.0
C1059 C 0.69169 0.86958 0.97814 0.0
C1060 C 0.6505 0.85744 0.96423 0.0
C1061 C 0.63645 0.84787 0.93186 0.0
loop_
_geom_bond_atom_site_label_1
_geom_bond_atom_site_label_2
_geom_bond_distance
_geom_bond_site_symmetry_2
_ccdc_geom_bond_type
H0 C5 0.930 . S
H1 C8 0.930 . S
H2 C10 0.930 . S
H3 C4 1.016 . S
C4 H3 1.016 . S
C4 N11 1.286 . S
C5 H0 0.930 . S
C5 C6 1.397 . S
C5 C7 1.361 . S
C6 C5 1.397 . S
C6 C10 1.390 . S
C7 C5 1.361 . S
C7 C8 1.393 . S
C7 N11 1.413 . S
C8 H1 0.930 . S
C8 C7 1.393 . S
C8 C9 1.399 . S
C9 C8 1.399 . S
C9 C10 1.381 . S
C10 H2 0.930 . S
C10 C6 1.390 . S
C10 C9 1.381 . S
N11 C4 1.286 . S
N11 C7 1.413 . S
H12 C17 0.930 . S
H13 C20 0.930 . S
H14 C22 0.930 . S
H15 C16 1.016 . S
C16 H15 1.016 . S
C16 N23 1.286 . S
C17 H12 0.930 . S
C17 C18 1.397 . S
C17 C19 1.361 . S
C18 C17 1.397 . S
C18 C22 1.390 . S
C19 C17 1.361 . S
C19 C20 1.393 . S
C19 N23 1.413 . S
C20 H13 0.930 . S
C20 C19 1.393 . S
C20 C21 1.399 . S
C21 C20 1.399 . S
C21 C22 1.381 . S
C22 H14 0.930 . S
C22 C18 1.390 . S
C22 C21 1.381 . S
N23 C16 1.286 . S
N23 C19 1.413 . S
H24 C29 0.930 . S
H25 C32 0.930 . S
H26 C34 0.930 . S
H27 C28 1.016 . S
C28 H27 1.016 . S
C28 N35 1.286 . S
C29 H24 0.930 . S
C29 C30 1.397 . S
C29 C31 1.361 . S
C30 C29 1.397 . S
C30 C34 1.390 . S
C31 C29 1.361 . S
C31 C32 1.393 . S
C31 N35 1.413 . S
C32 H25 0.930 . S
C32 C31 1.393 . S
C32 C33 1.399 . S
C33 C32 1.399 . S
C33 C34 1.381 . S
C34 H26 0.930 . S
C34 C30 1.390 . S
C34 C33 1.381 . S
N35 C28 1.286 . S
N35 C31 1.413 . S
H36 C41 0.930 . S
H37 C44 0.930 . S
H38 C46 0.930 . S
H39 C40 1.016 . S
C40 H39 1.016 . S
C40 N47 1.286 . S
C41 H36 0.930 . S
C41 C42 1.397 . S
C41 C43 1.361 . S
C42 C41 1.397 . S
C42 C46 1.390 . S
C43 C41 1.361 . S
C43 C44 1.393 . S
C43 N47 1.413 . S
C44 H37 0.930 . S
C44 C43 1.393 . S
C44 C45 1.399 . S
C45 C44 1.399 . S
C45 C46 1.381 . S
C46 H38 0.930 . S
C46 C42 1.390 . S
C46 C45 1.381 . S
N47 C40 1.286 . S
N47 C43 1.413 . S
H48 C53 0.930 . S
H49 C56 0.930 . S
H50 C58 0.930 . S
H51 C52 1.016 . S
C52 H51 1.016 . S
C52 N59 1.286 . S
C53 H48 0.930 . S
C53 C54 1.397 . S
C53 C55 1.361 . S
C54 C53 1.397 . S
C54 C58 1.390 . S
C55 C53 1.361 . S
C55 C56 1.393 . S
C55 N59 1.413 . S
C56 H49 0.930 . S
C56 C55 1.393 . S
C56 C57 1.399 . S
C57 C56 1.399 . S
C57 C58 1.381 . S
C58 H50 0.930 . S
C58 C54 1.390 . S
C58 C57 1.381 . S
N59 C52 1.286 . S
N59 C55 1.413 . S
H60 C65 0.930 . S
H61 C68 0.930 . S
H62 C70 0.930 . S
H63 C64 1.016 . S
C64 H63 1.016 . S
C64 N71 1.286 . S
C65 H60 0.930 . S
C65 C66 1.397 . S
C65 C67 1.361 . S
C66 C65 1.397 . S
C66 C70 1.390 . S
C67 C65 1.361 . S
C67 C68 1.393 . S
C67 N71 1.413 . S
C68 H61 0.930 . S
C68 C67 1.393 . S
C68 C69 1.399 . S
C69 C68 1.399 . S
C69 C70 1.381 . S
C70 H62 0.930 . S
C70 C66 1.390 . S
C70 C69 1.381 . S
N71 C64 1.286 . S
N71 C67 1.413 . S
H72 C77 0.930 . S
H73 C80 0.930 . S
H74 C82 0.930 . S
H75 C76 1.016 . S
C76 H75 1.016 . S
C76 N83 1.286 . S
C77 H72 0.930 . S
C77 C78 1.397 . S
C77 C79 1.361 . S
C78 C77 1.397 . S
C78 C82 1.390 . S
C79 C77 1.361 . S
C79 C80 1.393 . S
C79 N83 1.413 . S
C80 H73 0.930 . S
C80 C79 1.393 . S
C80 C81 1.399 . S
C81 C80 1.399 . S
C81 C82 1.381 . S
C82 H74 0.930 . S
C82 C78 1.390 . S
C82 C81 1.381 . S
N83 C76 1.286 . S
N83 C79 1.413 . S
H84 C89 0.930 . S
H85 C92 0.930 . S
H86 C94 0.930 . S
H87 C88 1.016 . S
C88 H87 1.016 . S
C88 N95 1.286 . S
C89 H84 0.930 . S
C89 C90 1.397 . S
C89 C91 1.361 . S
C90 C89 1.397 . S
C90 C94 1.390 . S
C91 C89 1.361 . S
C91 C92 1.393 . S
C91 N95 1.413 . S
C92 H85 0.930 . S
C92 C91 1.393 . S
C92 C93 1.399 . S
C93 C92 1.399 . S
C93 C94 1.381 . S
C94 H86 0.930 . S
C94 C90 1.390 . S
C94 C93 1.381 . S
N95 C88 1.286 . S
N95 C91 1.413 . S
C96 C97 1.443 . S
C96 N100 1.376 . S
C96 C134 1.389 . S
C97 C96 1.443 . S
C97 C98 1.340 . S
C97 H137 0.951 . S
C98 C97 1.340 . S
C98 C99 1.439 . S
C98 H138 0.950 . S
C99 C98 1.439 . S
C99 N100 1.374 . S
C99 C133 1.395 . S
N100 C96 1.376 . S
N100 C99 1.374 . S
N100 Co101 2.008 . S
Co101 N100 2.008 . S
Co101 N102 1.995 . S
Co101 N107 2.008 . S
Co101 N112 1.995 . S
Co101 N117 2.282 . S
Co101 N123 2.282 . S
N102 Co101 1.995 . S
N102 C103 1.376 . S
N102 C106 1.383 . S
C103 N102 1.376 . S
C103 C104 1.446 . S
C103 C133 1.391 . S
C104 C103 1.446 . S
C104 C105 1.339 . S
C104 H139 0.949 . S
C105 C104 1.339 . S
C105 C106 1.439 . S
C105 H140 0.950 . S
C106 N102 1.383 . S
C106 C105 1.439 . S
C106 C135 1.392 . S
N107 Co101 2.008 . S
N107 C108 1.376 . S
N107 C111 1.374 . S
C108 N107 1.376 . S
C108 C109 1.443 1_455 S
C108 C135 1.389 . S
C109 C108 1.443 1_655 S
C109 C110 1.340 1_655 S
C109 H141 0.951 . S
C110 C109 1.340 1_455 S
C110 C111 1.439 . S
C110 H142 0.950 1_455 S
C111 N107 1.374 . S
C111 C110 1.439 . S
C111 C136 1.395 . S
N112 Co101 1.995 . S
N112 C113 1.376 . S
N112 C116 1.383 . S
C113 N112 1.376 . S
C113 C114 1.446 . S
C113 C136 1.391 . S
C114 C113 1.446 . S
C114 C115 1.339 . S
C114 H143 0.949 . S
C115 C114 1.339 . S
C115 C116 1.439 . S
C115 H144 0.950 . S
C116 N112 1.383 . S
C116 C115 1.439 . S
C116 C134 1.392 . S
N117 Co101 2.282 . S
N117 C120 1.332 . S
N117 C122 1.332 . S
C118 C119 1.386 . S
C118 C121 1.388 . S
C119 C118 1.386 . S
C119 C120 1.382 . S
C119 H145 0.950 . S
C120 N117 1.332 . S
C120 C119 1.382 . S
C120 H131 0.952 . S
C121 C118 1.388 . S
C121 C122 1.382 . S
C121 H146 0.950 . S
C122 N117 1.332 . S
C122 C121 1.382 . S
C122 H132 0.948 . S
N123 Co101 2.282 . S
N123 C127 1.332 . S
N123 C128 1.332 . S
C124 C125 1.388 . S
C124 C128 1.382 . S
C124 H147 0.950 . S
C125 C124 1.388 . S
C125 C126 1.386 . S
C126 C125 1.386 . S
C126 C127 1.382 . S
C126 H148 0.950 . S
C127 N123 1.332 . S
C127 C126 1.382 . S
C127 H129 0.952 . S
C128 N123 1.332 . S
C128 C124 1.382 . S
C128 H130 0.948 . S
H129 C127 0.952 . S
H130 C128 0.948 . S
H131 C120 0.952 . S
H132 C122 0.948 . S
C133 C99 1.395 . S
C133 C103 1.391 . S
C134 C96 1.389 . S
C134 C116 1.392 . S
C135 C106 1.392 . S
C135 C108 1.389 . S
C136 C111 1.395 . S
C136 C113 1.391 . S
H137 C97 0.951 . S
H138 C98 0.950 . S
H139 C104 0.949 . S
H140 C105 0.950 . S
H141 C109 0.951 . S
H142 C110 0.950 1_655 S
H143 C114 0.949 . S
H144 C115 0.950 . S
H145 C119 0.950 . S
H146 C121 0.950 . S
H147 C124 0.950 . S
H148 C126 0.950 . S
C149 C150 1.443 . S
C149 N153 1.376 . S
C149 C187 1.389 . S
C150 C149 1.443 . S
C150 C151 1.340 . S
C150 H190 0.951 . S
C151 C150 1.340 . S
C151 C152 1.439 . S
C151 H191 0.950 . S
C152 C151 1.439 . S
C152 N153 1.374 . S
C152 C186 1.395 . S
N153 C149 1.376 . S
N153 C152 1.374 . S
N153 Co154 2.010 . S
Co154 N153 2.010 . S
Co154 N155 1.994 1_455 S
Co154 N160 2.007 1_455 S
Co154 N165 1.995 . S
Co154 N170 2.285 . S
Co154 N176 2.280 1_455 S
N155 Co154 1.994 1_655 S
N155 C156 1.376 1_655 S
N155 C159 1.383 . S
C156 N155 1.376 1_455 S
C156 C157 1.446 . S
C156 C186 1.391 . S
C157 C156 1.446 . S
C157 C158 1.339 1_455 S
C157 H192 0.949 . S
C158 C157 1.339 1_655 S
C158 C159 1.439 . S
C158 H193 0.950 . S
C159 N155 1.383 . S
C159 C158 1.439 . S
C159 C188 1.392 . S
N160 Co154 2.007 1_655 S
N160 C161 1.376 . S
N160 C164 1.374 . S
C161 N160 1.376 . S
C161 C162 1.443 . S
C161 C188 1.389 . S
C162 C161 1.443 . S
C162 C163 1.340 . S
C162 H194 0.951 . S
C163 C162 1.340 . S
C163 C164 1.439 . S
C163 H195 0.950 . S
C164 N160 1.374 . S
C164 C163 1.439 . S
C164 C189 1.395 . S
N165 Co154 1.995 . S
N165 C166 1.376 1_455 S
N165 C169 1.383 . S
C166 N165 1.376 1_655 S
C166 C167 1.457 . S
C166 C189 1.391 . S
C167 C166 1.457 . S
C167 C168 1.324 1_655 S
C167 H196 0.953 . S
C168 C167 1.324 1_455 S
C168 C169 1.439 . S
C168 H197 0.950 . S
C169 N165 1.383 . S
C169 C168 1.439 . S
C169 C187 1.392 . S
N170 Co154 2.285 . S
N170 C173 1.332 . S
N170 C175 1.332 . S
C171 C172 1.386 . S
C171 C174 1.388 . S
C172 C171 1.386 . S
C172 C173 1.382 . S
C172 H198 0.950 . S
C173 N170 1.332 . S
C173 C172 1.382 . S
C173 H184 0.952 . S
C174 C171 1.388 . S
C174 C175 1.382 . S
C174 H199 0.950 . S
C175 N170 1.332 . S
C175 C174 1.382 . S
C175 H185 0.948 . S
N176 Co154 2.280 1_655 S
N176 C180 1.332 . S
N176 C181 1.332 . S
C177 C178 1.388 . S
C177 C181 1.382 . S
C177 H200 0.950 . S
C178 C177 1.388 . S
C178 C179 1.386 . S
C179 C178 1.386 . S
C179 C180 1.382 . S
C179 H201 0.950 . S
C180 N176 1.332 . S
C180 C179 1.382 . S
C180 H182 0.952 . S
C181 N176 1.332 . S
C181 C177 1.382 . S
C181 H183 0.948 . S
H182 C180 0.952 . S
H183 C181 0.948 . S
H184 C173 0.952 . S
H185 C175 0.948 . S
C186 C152 1.395 . S
C186 C156 1.391 . S
C187 C149 1.389 . S
C187 C169 1.392 . S
C188 C159 1.392 . S
C188 C161 1.389 . S
C189 C164 1.395 . S
C189 C166 1.391 . S
H190 C150 0.951 . S
H191 C151 0.950 . S
H192 C157 0.949 . S
H193 C158 0.950 . S
H194 C162 0.951 . S
H195 C163 0.950 . S
H196 C167 0.953 . S
H197 C168 0.950 . S
H198 C172 0.950 . S
H199 C174 0.950 . S
H200 C177 0.950 . S
H201 C179 0.950 . S
C202 C203 1.443 . S
C202 N206 1.376 . S
C202 C240 1.389 . S
C203 C202 1.443 . S
C203 C204 1.340 . S
C203 H243 0.951 . S
C204 C203 1.340 . S
C204 C205 1.439 1_565 S
C204 H244 0.950 . S
C205 C204 1.439 1_545 S
C205 N206 1.374 1_545 S
C205 C239 1.395 . S
N206 C202 1.376 . S
N206 C205 1.374 1_565 S
N206 Co207 2.008 1_565 S
Co207 N206 2.008 1_545 S
Co207 N208 1.995 . S
Co207 N213 2.008 . S
Co207 N218 1.995 1_545 S
Co207 N223 2.282 . S
Co207 N229 2.282 1_545 S
N208 Co207 1.995 . S
N208 C209 1.376 . S
N208 C212 1.383 . S
C209 N208 1.376 . S
C209 C210 1.446 . S
C209 C239 1.391 . S
C210 C209 1.446 . S
C210 C211 1.339 . S
C210 H245 0.949 . S
C211 C210 1.339 . S
C211 C212 1.439 . S
C211 H246 0.950 . S
C212 N208 1.383 . S
C212 C211 1.439 . S
C212 C241 1.392 . S
N213 Co207 2.008 . S
N213 C214 1.376 . S
N213 C217 1.374 1_545 S
C214 N213 1.376 . S
C214 C215 1.443 . S
C214 C241 1.389 . S
C215 C214 1.443 . S
C215 C216 1.340 . S
C215 H247 0.951 . S
C216 C215 1.340 . S
C216 C217 1.439 1_545 S
C216 H248 0.950 . S
C217 N213 1.374 1_565 S
C217 C216 1.439 1_565 S
C217 C242 1.395 . S
N218 Co207 1.995 1_565 S
N218 C219 1.376 . S
N218 C222 1.383 . S
C219 N218 1.376 . S
C219 C220 1.446 . S
C219 C242 1.391 . S
C220 C219 1.446 . S
C220 C221 1.339 . S
C220 H249 0.949 . S
C221 C220 1.339 . S
C221 C222 1.439 . S
C221 H250 0.950 . S
C222 N218 1.383 . S
C222 C221 1.439 . S
C222 C240 1.392 . S
N223 Co207 2.282 . S
N223 C226 1.332 . S
N223 C228 1.332 . S
C224 C225 1.386 . S
C224 C227 1.388 . S
C225 C224 1.386 . S
C225 C226 1.382 . S
C225 H251 0.950 . S
C226 N223 1.332 . S
C226 C225 1.382 . S
C226 H237 0.952 . S
C227 C224 1.388 . S
C227 C228 1.382 . S
C227 H252 0.950 . S
C228 N223 1.332 . S
C228 C227 1.382 . S
C228 H238 0.948 . S
N229 Co207 2.282 1_565 S
N229 C233 1.332 . S
N229 C234 1.332 . S
C230 C231 1.388 . S
C230 C234 1.382 . S
C230 H253 0.950 . S
C231 C230 1.388 . S
C231 C232 1.386 . S
C232 C231 1.386 . S
C232 C233 1.382 . S
C232 H254 0.950 . S
C233 N229 1.332 . S
C233 C232 1.382 . S
C233 H235 0.952 . S
C234 N229 1.332 . S
C234 C230 1.382 . S
C234 H236 0.948 . S
H235 C233 0.952 . S
H236 C234 0.948 . S
H237 C226 0.952 . S
H238 C228 0.948 . S
C239 C205 1.395 . S
C239 C209 1.391 . S
C240 C202 1.389 . S
C240 C222 1.392 . S
C241 C212 1.392 . S
C241 C214 1.389 . S
C242 C217 1.395 . S
C242 C219 1.391 . S
H243 C203 0.951 . S
H244 C204 0.950 . S
H245 C210 0.949 . S
H246 C211 0.950 . S
H247 C215 0.951 . S
H248 C216 0.950 . S
H249 C220 0.949 . S
H250 C221 0.950 . S
H251 C225 0.950 . S
H252 C227 0.950 . S
H253 C230 0.950 . S
H254 C232 0.950 . S
C255 C256 1.443 . S
C255 N259 1.376 . S
C255 C293 1.389 . S
C256 C255 1.443 . S
C256 C257 1.340 . S
C256 H296 0.951 . S
C257 C256 1.340 . S
C257 C258 1.439 . S
C257 H297 0.950 . S
C258 C257 1.439 . S
C258 N259 1.374 . S
C258 C292 1.395 . S
N259 C255 1.376 . S
N259 C258 1.374 . S
N259 Co260 2.008 . S
Co260 N259 2.008 . S
Co260 N261 1.995 . S
Co260 N266 2.008 1_554 S
Co260 N271 1.995 . S
Co260 N276 2.282 1_554 S
Co260 N282 2.282 . S
N261 Co260 1.995 . S
N261 C262 1.376 . S
N261 C265 1.383 1_554 S
C262 N261 1.376 . S
C262 C263 1.446 . S
C262 C292 1.391 . S
C263 C262 1.446 . S
C263 C264 1.339 1_554 S
C263 H298 0.949 . S
C264 C263 1.339 1_556 S
C264 C265 1.439 . S
C264 H299 0.950 . S
C265 N261 1.383 1_556 S
C265 C264 1.439 . S
C265 C294 1.392 . S
N266 Co260 2.008 1_556 S
N266 C267 1.376 . S
N266 C270 1.374 . S
C267 N266 1.376 . S
C267 C268 1.443 . S
C267 C294 1.389 . S
C268 C267 1.443 . S
C268 C269 1.340 . S
C268 H300 0.951 . S
C269 C268 1.340 . S
C269 C270 1.439 . S
C269 H301 0.950 . S
C270 N266 1.374 . S
C270 C269 1.439 . S
C270 C295 1.395 1_556 S
N271 Co260 1.995 . S
N271 C272 1.376 . S
N271 C275 1.383 . S
C272 N271 1.376 . S
C272 C273 1.446 . S
C272 C295 1.391 . S
C273 C272 1.446 . S
C273 C274 1.339 . S
C273 H302 0.949 . S
C274 C273 1.339 . S
C274 C275 1.439 . S
C274 H303 0.950 . S
C275 N271 1.383 . S
C275 C274 1.439 . S
C275 C293 1.392 . S
N276 Co260 2.282 1_556 S
N276 C279 1.332 . S
N276 C281 1.332 . S
C277 C278 1.386 . S
C277 C280 1.388 . S
C278 C277 1.386 . S
C278 C279 1.382 . S
C278 H304 0.950 . S
C279 N276 1.332 . S
C279 C278 1.382 . S
C279 H290 0.952 . S
C280 C277 1.388 . S
C280 C281 1.382 . S
C280 H305 0.950 . S
C281 N276 1.332 . S
C281 C280 1.382 . S
C281 H291 0.948 . S
N282 Co260 2.282 . S
N282 C286 1.332 . S
N282 C287 1.332 . S
C283 C284 1.388 . S
C283 C287 1.382 . S
C283 H306 0.950 . S
C284 C283 1.388 . S
C284 C285 1.386 . S
C285 C284 1.386 . S
C285 C286 1.382 . S
C285 H307 0.950 . S
C286 N282 1.332 . S
C286 C285 1.382 . S
C286 H288 0.952 . S
C287 N282 1.332 . S
C287 C283 1.382 . S
C287 H289 0.948 . S
H288 C286 0.952 . S
H289 C287 0.948 . S
H290 C279 0.952 . S
H291 C281 0.948 . S
C292 C258 1.395 . S
C292 C262 1.391 . S
C293 C255 1.389 . S
C293 C275 1.392 . S
C294 C265 1.392 . S
C294 C267 1.389 . S
C295 C270 1.395 1_554 S
C295 C272 1.391 . S
H296 C256 0.951 . S
H297 C257 0.950 . S
H298 C263 0.949 . S
H299 C264 0.950 . S
H300 C268 0.951 . S
H301 C269 0.950 . S
H302 C273 0.949 . S
H303 C274 0.950 . S
H304 C278 0.950 . S
H305 C280 0.950 . S
H306 C283 0.950 . S
H307 C285 0.950 . S
C308 C309 1.443 . S
C308 N312 1.376 . S
C308 C346 1.389 . S
C309 C308 1.443 . S
C309 C310 1.340 . S
C309 H349 0.951 . S
C310 C309 1.340 . S
C310 C311 1.439 . S
C310 H350 0.950 . S
C311 C310 1.439 . S
C311 N312 1.374 . S
C311 C345 1.395 . S
N312 C308 1.376 . S
N312 C311 1.374 . S
N312 Co313 2.008 . S
Co313 N312 2.008 . S
Co313 N314 1.995 . S
Co313 N319 2.008 . S
Co313 N324 1.995 . S
Co313 N329 2.282 . S
Co313 N335 2.282 . S
N314 Co313 1.995 . S
N314 C315 1.376 . S
N314 C318 1.383 . S
C315 N314 1.376 . S
C315 C316 1.446 . S
C315 C345 1.391 . S
C316 C315 1.446 . S
C316 C317 1.339 . S
C316 H351 0.949 . S
C317 C316 1.339 . S
C317 C318 1.439 . S
C317 H352 0.950 . S
C318 N314 1.383 . S
C318 C317 1.439 . S
C318 C347 1.392 . S
N319 Co313 2.008 . S
N319 C320 1.376 . S
N319 C323 1.374 . S
C320 N319 1.376 . S
C320 C321 1.443 . S
C320 C347 1.389 . S
C321 C320 1.443 . S
C321 C322 1.340 . S
C321 H353 0.951 . S
C322 C321 1.340 . S
C322 C323 1.439 . S
C322 H354 0.950 . S
C323 N319 1.374 . S
C323 C322 1.439 . S
C323 C348 1.395 . S
N324 Co313 1.995 . S
N324 C325 1.376 . S
N324 C328 1.383 . S
C325 N324 1.376 . S
C325 C326 1.446 1_545 S
C325 C348 1.391 . S
C326 C325 1.446 1_565 S
C326 C327 1.339 . S
C326 H355 0.949 . S
C327 C326 1.339 . S
C327 C328 1.439 1_565 S
C327 H356 0.950 . S
C328 N324 1.383 . S
C328 C327 1.439 1_545 S
C328 C346 1.392 . S
N329 Co313 2.282 . S
N329 C332 1.332 . S
N329 C334 1.332 . S
C330 C331 1.386 . S
C330 C333 1.388 . S
C331 C330 1.386 . S
C331 C332 1.382 . S
C331 H357 0.950 . S
C332 N329 1.332 . S
C332 C331 1.382 . S
C332 H343 0.952 . S
C333 C330 1.388 . S
C333 C334 1.382 . S
C333 H358 0.950 . S
C334 N329 1.332 . S
C334 C333 1.382 . S
C334 H344 0.948 . S
N335 Co313 2.282 . S
N335 C339 1.332 . S
N335 C340 1.332 . S
C336 C337 1.388 . S
C336 C340 1.382 1_565 S
C336 H359 0.950 . S
C337 C336 1.388 . S
C337 C338 1.386 1_565 S
C338 C337 1.386 1_545 S
C338 C339 1.382 . S
C338 H360 0.950 . S
C339 N335 1.332 . S
C339 C338 1.382 . S
C339 H341 0.952 . S
C340 N335 1.332 . S
C340 C336 1.382 1_545 S
C340 H342 0.948 . S
H341 C339 0.952 . S
H342 C340 0.948 . S
H343 C332 0.952 . S
H344 C334 0.948 . S
C345 C311 1.395 . S
C345 C315 1.391 . S
C346 C308 1.389 . S
C346 C328 1.392 . S
C347 C318 1.392 . S
C347 C320 1.389 . S
C348 C323 1.395 . S
C348 C325 1.391 . S
H349 C309 0.951 . S
H350 C310 0.950 . S
H351 C316 0.949 . S
H352 C317 0.950 . S
H353 C321 0.951 . S
H354 C322 0.950 . S
H355 C326 0.949 . S
H356 C327 0.950 . S
H357 C331 0.950 . S
H358 C333 0.950 . S
H359 C336 0.950 . S
H360 C338 0.950 . S
C361 C362 1.443 . S
C361 N365 1.376 . S
C361 C399 1.389 . S
C362 C361 1.443 . S
C362 C363 1.340 . S
C362 H402 0.951 . S
C363 C362 1.340 . S
C363 C364 1.439 . S
C363 H403 0.950 . S
C364 C363 1.439 . S
C364 N365 1.374 . S
C364 C398 1.395 . S
N365 C361 1.376 . S
N365 C364 1.374 . S
N365 Co366 2.008 . S
Co366 N365 2.008 . S
Co366 N367 1.995 . S
Co366 N372 2.008 . S
Co366 N377 1.995 . S
Co366 N382 2.282 . S
Co366 N388 2.282 . S
N367 Co366 1.995 . S
N367 C368 1.376 . S
N367 C371 1.383 . S
C368 N367 1.376 . S
C368 C369 1.446 . S
C368 C398 1.391 . S
C369 C368 1.446 . S
C369 C370 1.339 . S
C369 H404 0.949 . S
C370 C369 1.339 . S
C370 C371 1.439 . S
C370 H405 0.950 . S
C371 N367 1.383 . S
C371 C370 1.439 . S
C371 C400 1.392 . S
N372 Co366 2.008 . S
N372 C373 1.376 . S
N372 C376 1.374 . S
C373 N372 1.376 . S
C373 C374 1.443 . S
C373 C400 1.389 . S
C374 C373 1.443 . S
C374 C375 1.340 . S
C374 H406 0.951 . S
C375 C374 1.340 . S
C375 C376 1.439 . S
C375 H407 0.950 . S
C376 N372 1.374 . S
C376 C375 1.439 . S
C376 C401 1.395 . S
N377 Co366 1.995 . S
N377 C378 1.376 . S
N377 C381 1.383 . S
C378 N377 1.376 . S
C378 C379 1.446 . S
C378 C401 1.391 . S
C379 C378 1.446 . S
C379 C380 1.339 . S
C379 H408 0.949 . S
C380 C379 1.339 . S
C380 C381 1.439 . S
C380 H409 0.950 . S
C381 N377 1.383 . S
C381 C380 1.439 . S
C381 C399 1.392 . S
N382 Co366 2.282 . S
N382 C385 1.332 . S
N382 C387 1.332 . S
C383 C384 1.386 1_556 S
C383 C386 1.388 1_556 S
C384 C383 1.386 1_554 S
C384 C385 1.382 . S
C384 H410 0.950 . S
C385 N382 1.332 . S
C385 C384 1.382 . S
C385 H396 0.952 . S
C386 C383 1.388 1_554 S
C386 C387 1.382 . S
C386 H411 0.950 . S
C387 N382 1.332 . S
C387 C386 1.382 . S
C387 H397 0.948 . S
N388 Co366 2.282 . S
N388 C392 1.332 . S
N388 C393 1.332 . S
C389 C390 1.388 . S
C389 C393 1.382 . S
C389 H412 0.950 . S
C390 C389 1.388 . S
C390 C391 1.386 . S
C391 C390 1.386 . S
C391 C392 1.382 . S
C391 H413 0.950 . S
C392 N388 1.332 . S
C392 C391 1.382 . S
C392 H394 0.952 . S
C393 N388 1.332 . S
C393 C389 1.382 . S
C393 H395 0.948 . S
H394 C392 0.952 . S
H395 C393 0.948 . S
H396 C385 0.952 . S
H397 C387 0.948 . S
C398 C364 1.395 . S
C398 C368 1.391 . S
C399 C361 1.389 . S
C399 C381 1.392 . S
C400 C371 1.392 . S
C400 C373 1.389 . S
C401 C376 1.395 . S
C401 C378 1.391 . S
H402 C362 0.951 . S
H403 C363 0.950 . S
H404 C369 0.949 . S
H405 C370 0.950 . S
H406 C374 0.951 . S
H407 C375 0.950 . S
H408 C379 0.949 . S
H409 C380 0.950 . S
H410 C384 0.950 . S
H411 C386 0.950 . S
H412 C389 0.950 . S
H413 C391 0.950 . S
H414 C426 0.930 . S
H415 C428 0.930 . S
H416 C429 0.930 . S
H417 C433 0.959 . S
H418 C433 0.959 . S
H419 C433 0.961 . S
H420 C434 0.960 . S
H421 C434 0.961 . S
H422 C434 0.959 . S
H423 C437 0.929 . S
H424 C438 0.931 . S
H425 C440 0.930 . S
C426 H414 0.930 . S
C426 C427 1.399 . S
C426 C431 1.399 . S
C427 C426 1.399 . S
C427 C428 1.376 . S
C428 H415 0.930 . S
C428 C427 1.376 . S
C428 C429 1.388 . S
C429 H416 0.930 . S
C429 C428 1.388 . S
C429 C430 1.390 . S
C430 C429 1.390 . S
C430 C431 1.394 . S
C430 C436 1.465 . S
C431 C426 1.399 . S
C431 C430 1.394 . S
C431 C432 1.516 . S
C432 C431 1.516 . S
C432 C433 1.502 . S
C432 C434 1.561 . S
C432 C435 1.526 . S
C433 H417 0.959 . S
C433 H418 0.959 . S
C433 H419 0.961 . S
C433 C432 1.502 . S
C434 H420 0.960 . S
C434 H421 0.961 . S
C434 H422 0.959 . S
C434 C432 1.561 . S
C435 C432 1.526 . S
C435 C436 1.396 . S
C435 C440 1.390 . S
C436 C430 1.465 . S
C436 C435 1.396 . S
C436 C437 1.399 . S
C437 H423 0.929 . S
C437 C436 1.399 . S
C437 C438 1.385 . S
C438 H424 0.931 . S
C438 C437 1.385 . S
C438 C439 1.389 . S
C439 C438 1.389 . S
C439 C440 1.387 . S
C440 H425 0.930 . S
C440 C435 1.390 . S
C440 C439 1.387 . S
H441 C453 0.930 . S
H442 C455 0.930 . S
H443 C456 0.930 . S
H444 C460 0.959 . S
H445 C460 0.959 . S
H446 C460 0.961 . S
H447 C461 0.960 . S
H448 C461 0.961 . S
H449 C461 0.959 . S
H450 C464 0.929 . S
H451 C465 0.931 . S
H452 C467 0.930 . S
C453 H441 0.930 . S
C453 C454 1.399 . S
C453 C458 1.399 . S
C454 C453 1.399 . S
C454 C455 1.376 . S
C455 H442 0.930 . S
C455 C454 1.376 . S
C455 C456 1.388 . S
C456 H443 0.930 . S
C456 C455 1.388 . S
C456 C457 1.390 . S
C457 C456 1.390 . S
C457 C458 1.394 . S
C457 C463 1.465 . S
C458 C453 1.399 . S
C458 C457 1.394 . S
C458 C459 1.516 . S
C459 C458 1.516 . S
C459 C460 1.502 . S
C459 C461 1.561 . S
C459 C462 1.526 . S
C460 H444 0.959 . S
C460 H445 0.959 . S
C460 H446 0.961 . S
C460 C459 1.502 . S
C461 H447 0.960 . S
C461 H448 0.961 . S
C461 H449 0.959 . S
C461 C459 1.561 . S
C462 C459 1.526 . S
C462 C463 1.396 . S
C462 C467 1.390 . S
C463 C457 1.465 . S
C463 C462 1.396 . S
C463 C464 1.399 . S
C464 H450 0.929 . S
C464 C463 1.399 . S
C464 C465 1.385 . S
C465 H451 0.931 . S
C465 C464 1.385 . S
C465 C466 1.389 . S
C466 C465 1.389 . S
C466 C467 1.387 . S
C467 H452 0.930 . S
C467 C462 1.390 . S
C467 C466 1.387 . S
H468 C480 0.930 . S
H469 C482 0.930 . S
H470 C483 0.930 1_455 S
H471 C487 0.959 . S
H472 C487 0.959 . S
H473 C487 0.961 . S
H474 C488 0.960 . S
H475 C488 0.961 . S
H476 C488 0.959 . S
H477 C491 0.929 . S
H478 C492 0.931 . S
H479 C494 0.930 . S
C480 H468 0.930 . S
C480 C481 1.399 . S
C480 C485 1.399 . S
C481 C480 1.399 . S
C481 C482 1.376 . S
C482 H469 0.930 . S
C482 C481 1.376 . S
C482 C483 1.388 . S
C483 H470 0.930 1_655 S
C483 C482 1.388 . S
C483 C484 1.390 . S
C484 C483 1.390 . S
C484 C485 1.394 . S
C484 C490 1.460 1_655 S
C485 C480 1.399 . S
C485 C484 1.394 . S
C485 C486 1.516 . S
C486 C485 1.516 . S
C486 C487 1.502 . S
C486 C488 1.561 . S
C486 C489 1.526 . S
C487 H471 0.959 . S
C487 H472 0.959 . S
C487 H473 0.961 . S
C487 C486 1.502 . S
C488 H474 0.960 . S
C488 H475 0.961 . S
C488 H476 0.959 . S
C488 C486 1.561 . S
C489 C486 1.526 . S
C489 C490 1.395 1_655 S
C489 C494 1.390 . S
C490 C484 1.460 1_455 S
C490 C489 1.395 1_455 S
C490 C491 1.404 . S
C491 H477 0.929 . S
C491 C490 1.404 . S
C491 C492 1.385 . S
C492 H478 0.931 . S
C492 C491 1.385 . S
C492 C493 1.389 . S
C493 C492 1.389 . S
C493 C494 1.387 1_455 S
C494 H479 0.930 . S
C494 C489 1.390 . S
C494 C493 1.387 1_655 S
H495 C507 0.930 . S
H496 C509 0.930 . S
H497 C510 0.930 . S
H498 C514 0.959 . S
H499 C514 0.959 . S
H500 C514 0.961 . S
H501 C515 0.960 . S
H502 C515 0.961 . S
H503 C515 0.959 . S
H504 C518 0.929 . S
H505 C519 0.931 . S
H506 C521 0.930 . S
C507 H495 0.930 . S
C507 C508 1.399 . S
C507 C512 1.399 . S
C508 C507 1.399 . S
C508 C509 1.376 . S
C509 H496 0.930 . S
C509 C508 1.376 . S
C509 C510 1.388 . S
C510 H497 0.930 . S
C510 C509 1.388 . S
C510 C511 1.390 . S
C511 C510 1.390 . S
C511 C512 1.394 . S
C511 C517 1.465 . S
C512 C507 1.399 . S
C512 C511 1.394 . S
C512 C513 1.516 . S
C513 C512 1.516 . S
C513 C514 1.502 . S
C513 C515 1.561 . S
C513 C516 1.526 . S
C514 H498 0.959 . S
C514 H499 0.959 . S
C514 H500 0.961 . S
C514 C513 1.502 . S
C515 H501 0.960 . S
C515 H502 0.961 . S
C515 H503 0.959 . S
C515 C513 1.561 . S
C516 C513 1.526 . S
C516 C517 1.396 . S
C516 C521 1.390 . S
C517 C511 1.465 . S
C517 C516 1.396 . S
C517 C518 1.399 . S
C518 H504 0.929 . S
C518 C517 1.399 . S
C518 C519 1.385 . S
C519 H505 0.931 . S
C519 C518 1.385 . S
C519 C520 1.389 . S
C520 C519 1.389 . S
C520 C521 1.387 . S
C521 H506 0.930 . S
C521 C516 1.390 . S
C521 C520 1.387 . S
H522 C534 0.930 . S
H523 C536 0.930 . S
H524 C537 0.930 . S
H525 C541 0.959 . S
H526 C541 0.959 . S
H527 C541 0.961 . S
H528 C542 0.960 . S
H529 C542 0.961 . S
H530 C542 0.959 . S
H531 C545 0.929 . S
H532 C546 0.931 . S
H533 C548 0.930 . S
C534 H522 0.930 . S
C534 C535 1.399 . S
C534 C539 1.399 . S
C535 C534 1.399 . S
C535 C536 1.376 . S
C536 H523 0.930 . S
C536 C535 1.376 . S
C536 C537 1.388 . S
C537 H524 0.930 . S
C537 C536 1.388 . S
C537 C538 1.390 . S
C538 C537 1.390 . S
C538 C539 1.394 . S
C538 C544 1.465 . S
C539 C534 1.399 . S
C539 C538 1.394 . S
C539 C540 1.516 . S
C540 C539 1.516 . S
C540 C541 1.502 . S
C540 C542 1.561 . S
C540 C543 1.526 . S
C541 H525 0.959 . S
C541 H526 0.959 . S
C541 H527 0.961 . S
C541 C540 1.502 . S
C542 H528 0.960 . S
C542 H529 0.961 . S
C542 H530 0.959 . S
C542 C540 1.561 . S
C543 C540 1.526 . S
C543 C544 1.396 . S
C543 C548 1.390 . S
C544 C538 1.465 . S
C544 C543 1.396 . S
C544 C545 1.399 . S
C545 H531 0.929 . S
C545 C544 1.399 . S
C545 C546 1.385 . S
C546 H532 0.931 . S
C546 C545 1.385 . S
C546 C547 1.389 . S
C547 C546 1.389 . S
C547 C548 1.387 . S
C548 H533 0.930 . S
C548 C543 1.390 . S
C548 C547 1.387 . S
H549 C561 0.930 . S
H550 C563 0.930 . S
H551 C564 0.930 . S
H552 C568 0.959 . S
H553 C568 0.959 . S
H554 C568 0.961 . S
H555 C569 0.960 . S
H556 C569 0.961 . S
H557 C569 0.959 . S
H558 C572 0.929 . S
H559 C573 0.931 . S
H560 C575 0.930 . S
C561 H549 0.930 . S
C561 C562 1.399 . S
C561 C566 1.399 . S
C562 C561 1.399 . S
C562 C563 1.376 . S
C563 H550 0.930 . S
C563 C562 1.376 . S
C563 C564 1.388 . S
C564 H551 0.930 . S
C564 C563 1.388 . S
C564 C565 1.390 . S
C565 C564 1.390 . S
C565 C566 1.394 . S
C565 C571 1.465 . S
C566 C561 1.399 . S
C566 C565 1.394 . S
C566 C567 1.516 . S
C567 C566 1.516 . S
C567 C568 1.502 . S
C567 C569 1.561 . S
C567 C570 1.526 . S
C568 H552 0.959 . S
C568 H553 0.959 . S
C568 H554 0.961 . S
C568 C567 1.502 . S
C569 H555 0.960 . S
C569 H556 0.961 . S
C569 H557 0.959 . S
C569 C567 1.561 . S
C570 C567 1.526 . S
C570 C571 1.396 . S
C570 C575 1.390 . S
C571 C565 1.465 . S
C571 C570 1.396 . S
C571 C572 1.399 . S
C572 H558 0.929 . S
C572 C571 1.399 . S
C572 C573 1.385 . S
C573 H559 0.931 . S
C573 C572 1.385 . S
C573 C574 1.389 . S
C574 C573 1.389 . S
C574 C575 1.387 . S
C575 H560 0.930 . S
C575 C570 1.390 . S
C575 C574 1.387 . S
H576 C588 0.930 . S
H577 C590 0.930 . S
H578 C591 0.930 . S
H579 C595 0.959 . S
H580 C595 0.959 . S
H581 C595 0.961 . S
H582 C596 0.960 . S
H583 C596 0.961 . S
H584 C596 0.959 . S
H585 C599 0.929 . S
H586 C600 0.931 . S
H587 C602 0.930 . S
C588 H576 0.930 . S
C588 C589 1.399 . S
C588 C593 1.399 . S
C589 C588 1.399 . S
C589 C590 1.376 . S
C590 H577 0.930 . S
C590 C589 1.376 . S
C590 C591 1.388 . S
C591 H578 0.930 . S
C591 C590 1.388 . S
C591 C592 1.390 . S
C592 C591 1.390 . S
C592 C593 1.394 . S
C592 C598 1.465 . S
C593 C588 1.399 . S
C593 C592 1.394 . S
C593 C594 1.516 . S
C594 C593 1.516 . S
C594 C595 1.502 . S
C594 C596 1.561 . S
C594 C597 1.526 . S
C595 H579 0.959 . S
C595 H580 0.959 . S
C595 H581 0.961 . S
C595 C594 1.502 . S
C596 H582 0.960 . S
C596 H583 0.961 . S
C596 H584 0.959 . S
C596 C594 1.561 . S
C597 C594 1.526 . S
C597 C598 1.396 . S
C597 C602 1.390 . S
C598 C592 1.465 . S
C598 C597 1.396 . S
C598 C599 1.399 . S
C599 H585 0.929 . S
C599 C598 1.399 . S
C599 C600 1.385 . S
C600 H586 0.931 . S
C600 C599 1.385 . S
C600 C601 1.389 . S
C601 C600 1.389 . S
C601 C602 1.387 . S
C602 H587 0.930 . S
C602 C597 1.390 . S
C602 C601 1.387 . S
H603 C615 0.930 . S
H604 C617 0.930 . S
H605 C618 0.930 . S
H606 C622 0.959 . S
H607 C622 0.959 . S
H608 C622 0.961 . S
H609 C623 0.960 . S
H610 C623 0.961 . S
H611 C623 0.959 . S
H612 C626 0.929 . S
H613 C627 0.931 . S
H614 C629 0.930 . S
C615 H603 0.930 . S
C615 C616 1.399 . S
C615 C620 1.399 . S
C616 C615 1.399 . S
C616 C617 1.376 . S
C617 H604 0.930 . S
C617 C616 1.376 . S
C617 C618 1.388 . S
C618 H605 0.930 . S
C618 C617 1.388 . S
C618 C619 1.390 . S
C619 C618 1.390 . S
C619 C620 1.394 . S
C619 C625 1.465 . S
C620 C615 1.399 . S
C620 C619 1.394 . S
C620 C621 1.516 . S
C621 C620 1.516 . S
C621 C622 1.502 1_556 S
C621 C623 1.561 1_556 S
C621 C624 1.526 . S
C622 H606 0.959 . S
C622 H607 0.959 . S
C622 H608 0.961 . S
C622 C621 1.502 1_554 S
C623 H609 0.960 . S
C623 H610 0.961 . S
C623 H611 0.959 . S
C623 C621 1.561 1_554 S
C624 C621 1.526 . S
C624 C625 1.396 . S
C624 C629 1.390 1_556 S
C625 C619 1.465 . S
C625 C624 1.396 . S
C625 C626 1.399 . S
C626 H612 0.929 . S
C626 C625 1.399 . S
C626 C627 1.385 . S
C627 H613 0.931 . S
C627 C626 1.385 . S
C627 C628 1.389 1_556 S
C628 C627 1.389 1_554 S
C628 C629 1.387 . S
C629 H614 0.930 . S
C629 C624 1.390 1_554 S
C629 C628 1.387 . S
H630 C642 0.930 . S
H631 C644 0.930 . S
H632 C645 0.930 . S
H633 C649 0.959 . S
H634 C649 0.959 . S
H635 C649 0.961 . S
H636 C650 0.960 . S
H637 C650 0.961 . S
H638 C650 0.959 . S
H639 C653 0.929 . S
H640 C654 0.931 . S
H641 C656 0.930 . S
C642 H630 0.930 . S
C642 C643 1.399 . S
C642 C647 1.399 . S
C643 C642 1.399 . S
C643 C644 1.376 . S
C644 H631 0.930 . S
C644 C643 1.376 . S
C644 C645 1.388 . S
C645 H632 0.930 . S
C645 C644 1.388 . S
C645 C646 1.390 . S
C646 C645 1.390 . S
C646 C647 1.394 . S
C646 C652 1.465 . S
C647 C642 1.399 . S
C647 C646 1.394 . S
C647 C648 1.516 . S
C648 C647 1.516 . S
C648 C649 1.502 . S
C648 C650 1.561 . S
C648 C651 1.526 . S
C649 H633 0.959 . S
C649 H634 0.959 . S
C649 H635 0.961 . S
C649 C648 1.502 . S
C650 H636 0.960 . S
C650 H637 0.961 . S
C650 H638 0.959 . S
C650 C648 1.561 . S
C651 C648 1.526 . S
C651 C652 1.396 . S
C651 C656 1.390 . S
C652 C646 1.465 . S
C652 C651 1.396 . S
C652 C653 1.399 . S
C653 H639 0.929 . S
C653 C652 1.399 . S
C653 C654 1.385 . S
C654 H640 0.931 . S
C654 C653 1.385 . S
C654 C655 1.389 . S
C655 C654 1.389 . S
C655 C656 1.387 . S
C656 H641 0.930 . S
C656 C651 1.390 . S
C656 C655 1.387 . S
H657 C669 0.930 . S
H658 C671 0.930 . S
H659 C672 0.930 . S
H660 C676 0.959 . S
H661 C676 0.959 . S
H662 C676 0.961 . S
H663 C677 0.960 . S
H664 C677 0.961 . S
H665 C677 0.959 . S
H666 C680 0.929 . S
H667 C681 0.931 . S
H668 C683 0.930 . S
C669 H657 0.930 . S
C669 C670 1.399 . S
C669 C674 1.399 . S
C670 C669 1.399 . S
C670 C671 1.376 . S
C671 H658 0.930 . S
C671 C670 1.376 . S
C671 C672 1.388 . S
C672 H659 0.930 . S
C672 C671 1.388 . S
C672 C673 1.390 . S
C673 C672 1.390 . S
C673 C674 1.394 . S
C673 C679 1.465 . S
C674 C669 1.399 . S
C674 C673 1.394 . S
C674 C675 1.516 . S
C675 C674 1.516 . S
C675 C676 1.502 . S
C675 C677 1.561 . S
C675 C678 1.526 . S
C676 H660 0.959 . S
C676 H661 0.959 . S
C676 H662 0.961 . S
C676 C675 1.502 . S
C677 H663 0.960 . S
C677 H664 0.961 . S
C677 H665 0.959 . S
C677 C675 1.561 . S
C678 C675 1.526 . S
C678 C679 1.396 . S
C678 C683 1.390 . S
C679 C673 1.465 . S
C679 C678 1.396 . S
C679 C680 1.399 . S
C680 H666 0.929 . S
C680 C679 1.399 . S
C680 C681 1.385 . S
C681 H667 0.931 . S
C681 C680 1.385 . S
C681 C682 1.389 . S
C682 C681 1.389 . S
C682 C683 1.387 . S
C683 H668 0.930 . S
C683 C678 1.390 . S
C683 C682 1.387 . S
H684 C696 0.930 . S
H685 C698 0.930 . S
H686 C699 0.930 . S
H687 C703 0.959 . S
H688 C703 0.959 . S
H689 C703 0.961 . S
H690 C704 0.960 . S
H691 C704 0.961 . S
H692 C704 0.959 . S
H693 C707 0.929 . S
H694 C708 0.931 . S
H695 C710 0.930 . S
C696 H684 0.930 . S
C696 C697 1.399 . S
C696 C701 1.399 . S
C697 C696 1.399 . S
C697 C698 1.376 . S
C698 H685 0.930 . S
C698 C697 1.376 . S
C698 C699 1.388 . S
C699 H686 0.930 . S
C699 C698 1.388 . S
C699 C700 1.390 . S
C700 C699 1.390 . S
C700 C701 1.394 . S
C700 C706 1.465 . S
C701 C696 1.399 . S
C701 C700 1.394 . S
C701 C702 1.516 . S
C702 C701 1.516 . S
C702 C703 1.502 . S
C702 C704 1.561 . S
C702 C705 1.526 . S
C703 H687 0.959 . S
C703 H688 0.959 . S
C703 H689 0.961 . S
C703 C702 1.502 . S
C704 H690 0.960 . S
C704 H691 0.961 . S
C704 H692 0.959 . S
C704 C702 1.561 . S
C705 C702 1.526 . S
C705 C706 1.396 . S
C705 C710 1.390 . S
C706 C700 1.465 . S
C706 C705 1.396 . S
C706 C707 1.399 . S
C707 H693 0.929 . S
C707 C706 1.399 . S
C707 C708 1.385 . S
C708 H694 0.931 . S
C708 C707 1.385 . S
C708 C709 1.389 . S
C709 C708 1.389 . S
C709 C710 1.387 . S
C710 H695 0.930 . S
C710 C705 1.390 . S
C710 C709 1.387 . S
H711 C723 0.930 . S
H712 C725 0.930 . S
H713 C726 0.930 . S
H714 C730 0.959 . S
H715 C730 0.959 . S
H716 C730 0.961 . S
H717 C731 0.960 . S
H718 C731 0.961 . S
H719 C731 0.959 . S
H720 C734 0.929 . S
H721 C735 0.931 . S
H722 C737 0.930 . S
C723 H711 0.930 . S
C723 C724 1.399 . S
C723 C728 1.399 . S
C724 C723 1.399 . S
C724 C725 1.376 . S
C725 H712 0.930 . S
C725 C724 1.376 . S
C725 C726 1.388 . S
C726 H713 0.930 . S
C726 C725 1.388 . S
C726 C727 1.390 . S
C727 C726 1.390 . S
C727 C728 1.394 . S
C727 C733 1.465 . S
C728 C723 1.399 . S
C728 C727 1.394 . S
C728 C729 1.516 . S
C729 C728 1.516 . S
C729 C730 1.502 . S
C729 C731 1.561 . S
C729 C732 1.526 . S
C730 H714 0.959 . S
C730 H715 0.959 . S
C730 H716 0.961 . S
C730 C729 1.502 . S
C731 H717 0.960 . S
C731 H718 0.961 . S
C731 H719 0.959 . S
C731 C729 1.561 . S
C732 C729 1.526 . S
C732 C733 1.396 . S
C732 C737 1.390 . S
C733 C727 1.465 . S
C733 C732 1.396 . S
C733 C734 1.399 . S
C734 H720 0.929 . S
C734 C733 1.399 . S
C734 C735 1.385 . S
C735 H721 0.931 . S
C735 C734 1.385 . S
C735 C736 1.389 . S
C736 C735 1.389 . S
C736 C737 1.387 . S
C737 H722 0.930 . S
C737 C732 1.390 . S
C737 C736 1.387 . S
H738 C750 0.930 . S
H739 C752 0.930 . S
H740 C753 0.930 . S
H741 C757 0.959 . S
H742 C757 0.959 . S
H743 C757 0.961 . S
H744 C758 0.960 . S
H745 C758 0.961 . S
H746 C758 0.959 . S
H747 C761 0.929 . S
H748 C762 0.931 . S
H749 C764 0.930 . S
C750 H738 0.930 . S
C750 C751 1.399 . S
C750 C755 1.399 . S
C751 C750 1.399 . S
C751 C752 1.376 . S
C752 H739 0.930 . S
C752 C751 1.376 . S
C752 C753 1.388 . S
C753 H740 0.930 . S
C753 C752 1.388 . S
C753 C754 1.390 . S
C754 C753 1.390 . S
C754 C755 1.394 . S
C754 C760 1.465 . S
C755 C750 1.399 . S
C755 C754 1.394 . S
C755 C756 1.516 . S
C756 C755 1.516 . S
C756 C757 1.502 . S
C756 C758 1.561 . S
C756 C759 1.526 . S
C757 H741 0.959 . S
C757 H742 0.959 . S
C757 H743 0.961 . S
C757 C756 1.502 . S
C758 H744 0.960 . S
C758 H745 0.961 . S
C758 H746 0.959 . S
C758 C756 1.561 . S
C759 C756 1.526 . S
C759 C760 1.396 . S
C759 C764 1.390 . S
C760 C754 1.465 . S
C760 C759 1.396 . S
C760 C761 1.399 . S
C761 H747 0.929 . S
C761 C760 1.399 . S
C761 C762 1.385 . S
C762 H748 0.931 . S
C762 C761 1.385 . S
C762 C763 1.389 . S
C763 C762 1.389 . S
C763 C764 1.387 . S
C764 H749 0.930 . S
C764 C759 1.390 . S
C764 C763 1.387 . S
H765 C777 0.930 . S
H766 C779 0.930 . S
H767 C780 0.930 . S
H768 C784 0.959 . S
H769 C784 0.959 . S
H770 C784 0.961 . S
H771 C785 0.960 . S
H772 C785 0.961 . S
H773 C785 0.959 . S
H774 C788 0.929 . S
H775 C789 0.931 . S
H776 C791 0.930 . S
C777 H765 0.930 . S
C777 C778 1.399 . S
C777 C782 1.399 . S
C778 C777 1.399 . S
C778 C779 1.376 . S
C779 H766 0.930 . S
C779 C778 1.376 . S
C779 C780 1.388 . S
C780 H767 0.930 . S
C780 C779 1.388 . S
C780 C781 1.390 . S
C781 C780 1.390 . S
C781 C782 1.394 . S
C781 C787 1.465 . S
C782 C777 1.399 . S
C782 C781 1.394 . S
C782 C783 1.516 . S
C783 C782 1.516 . S
C783 C784 1.502 . S
C783 C785 1.561 . S
C783 C786 1.526 . S
C784 H768 0.959 . S
C784 H769 0.959 . S
C784 H770 0.961 . S
C784 C783 1.502 . S
C785 H771 0.960 . S
C785 H772 0.961 . S
C785 H773 0.959 . S
C785 C783 1.561 . S
C786 C783 1.526 . S
C786 C787 1.396 . S
C786 C791 1.390 . S
C787 C781 1.465 . S
C787 C786 1.396 . S
C787 C788 1.399 . S
C788 H774 0.929 . S
C788 C787 1.399 . S
C788 C789 1.385 . S
C789 H775 0.931 . S
C789 C788 1.385 . S
C789 C790 1.389 . S
C790 C789 1.389 . S
C790 C791 1.387 . S
C791 H776 0.930 . S
C791 C786 1.390 . S
C791 C790 1.387 . S
H792 C804 0.930 . S
H793 C806 0.930 . S
H794 C807 0.930 . S
H795 C811 0.959 . S
H796 C811 0.959 . S
H797 C811 0.961 . S
H798 C812 0.960 . S
H799 C812 0.961 . S
H800 C812 0.959 . S
H801 C815 0.929 . S
H802 C816 0.931 . S
H803 C818 0.930 . S
C804 H792 0.930 . S
C804 C805 1.399 . S
C804 C809 1.399 . S
C805 C804 1.399 . S
C805 C806 1.376 . S
C806 H793 0.930 . S
C806 C805 1.376 . S
C806 C807 1.388 . S
C807 H794 0.930 . S
C807 C806 1.388 . S
C807 C808 1.390 . S
C808 C807 1.390 . S
C808 C809 1.394 . S
C808 C814 1.465 . S
C809 C804 1.399 . S
C809 C808 1.394 . S
C809 C810 1.516 . S
C810 C809 1.516 . S
C810 C811 1.502 . S
C810 C812 1.561 . S
C810 C813 1.526 . S
C811 H795 0.959 . S
C811 H796 0.959 . S
C811 H797 0.961 . S
C811 C810 1.502 . S
C812 H798 0.960 . S
C812 H799 0.961 . S
C812 H800 0.959 . S
C812 C810 1.561 . S
C813 C810 1.526 . S
C813 C814 1.396 . S
C813 C818 1.390 . S
C814 C808 1.465 . S
C814 C813 1.396 . S
C814 C815 1.399 . S
C815 H801 0.929 . S
C815 C814 1.399 . S
C815 C816 1.385 . S
C816 H802 0.931 . S
C816 C815 1.385 . S
C816 C817 1.389 . S
C817 C816 1.389 . S
C817 C818 1.387 . S
C818 H803 0.930 . S
C818 C813 1.390 . S
C818 C817 1.387 . S
H819 C831 0.930 . S
H820 C833 0.930 . S
H821 C834 0.930 . S
H822 C838 0.959 . S
H823 C838 0.959 . S
H824 C838 0.961 . S
H825 C839 0.960 . S
H826 C839 0.961 . S
H827 C839 0.959 . S
H828 C842 0.929 . S
H829 C843 0.931 . S
H830 C845 0.930 . S
C831 H819 0.930 . S
C831 C832 1.399 . S
C831 C836 1.399 . S
C832 C831 1.399 . S
C832 C833 1.376 . S
C833 H820 0.930 . S
C833 C832 1.376 . S
C833 C834 1.388 . S
C834 H821 0.930 . S
C834 C833 1.388 . S
C834 C835 1.390 . S
C835 C834 1.390 . S
C835 C836 1.394 . S
C835 C841 1.465 . S
C836 C831 1.399 . S
C836 C835 1.394 . S
C836 C837 1.516 . S
C837 C836 1.516 . S
C837 C838 1.502 . S
C837 C839 1.561 . S
C837 C840 1.526 . S
C838 H822 0.959 . S
C838 H823 0.959 . S
C838 H824 0.961 . S
C838 C837 1.502 . S
C839 H825 0.960 . S
C839 H826 0.961 . S
C839 H827 0.959 . S
C839 C837 1.561 . S
C840 C837 1.526 . S
C840 C841 1.396 . S
C840 C845 1.390 . S
C841 C835 1.465 . S
C841 C840 1.396 . S
C841 C842 1.399 . S
C842 H828 0.929 . S
C842 C841 1.399 . S
C842 C843 1.385 . S
C843 H829 0.931 . S
C843 C842 1.385 . S
C843 C844 1.389 . S
C844 C843 1.389 . S
C844 C845 1.387 . S
C845 H830 0.930 . S
C845 C840 1.390 . S
C845 C844 1.387 . S
H846 C858 0.930 . S
H847 C860 0.930 . S
H848 C861 0.930 . S
H849 C865 0.959 . S
H850 C865 0.959 . S
H851 C865 0.961 . S
H852 C866 0.960 . S
H853 C866 0.961 . S
H854 C866 0.959 . S
H855 C869 0.929 . S
H856 C870 0.931 1_545 S
H857 C872 0.930 . S
C858 H846 0.930 . S
C858 C859 1.399 . S
C858 C863 1.399 . S
C859 C858 1.399 . S
C859 C860 1.376 . S
C860 H847 0.930 . S
C860 C859 1.376 . S
C860 C861 1.388 . S
C861 H848 0.930 . S
C861 C860 1.388 . S
C861 C862 1.390 . S
C862 C861 1.390 . S
C862 C863 1.394 . S
C862 C868 1.465 . S
C863 C858 1.399 . S
C863 C862 1.394 . S
C863 C864 1.516 . S
C864 C863 1.516 . S
C864 C865 1.502 . S
C864 C866 1.561 . S
C864 C867 1.526 . S
C865 H849 0.959 . S
C865 H850 0.959 . S
C865 H851 0.961 . S
C865 C864 1.502 . S
C866 H852 0.960 . S
C866 H853 0.961 . S
C866 H854 0.959 . S
C866 C864 1.561 . S
C867 C864 1.526 . S
C867 C868 1.396 . S
C867 C872 1.390 . S
C868 C862 1.465 . S
C868 C867 1.396 . S
C868 C869 1.399 . S
C869 H855 0.929 . S
C869 C868 1.399 . S
C869 C870 1.385 . S
C870 H856 0.931 1_565 S
C870 C869 1.385 . S
C870 C871 1.389 . S
C871 C870 1.389 . S
C871 C872 1.387 . S
C872 H857 0.930 . S
C872 C867 1.390 . S
C872 C871 1.387 . S
H873 C885 0.930 . S
H874 C887 0.930 . S
H875 C888 0.930 . S
H876 C892 0.959 . S
H877 C892 0.959 . S
H878 C892 0.961 . S
H879 C893 0.960 . S
H880 C893 0.961 . S
H881 C893 0.959 . S
H882 C896 0.929 . S
H883 C897 0.931 . S
H884 C899 0.930 . S
C885 H873 0.930 . S
C885 C886 1.399 . S
C885 C890 1.399 . S
C886 C885 1.399 . S
C886 C887 1.376 . S
C887 H874 0.930 . S
C887 C886 1.376 . S
C887 C888 1.388 . S
C888 H875 0.930 . S
C888 C887 1.388 . S
C888 C889 1.390 . S
C889 C888 1.390 . S
C889 C890 1.394 . S
C889 C895 1.465 . S
C890 C885 1.399 . S
C890 C889 1.394 . S
C890 C891 1.516 . S
C891 C890 1.516 . S
C891 C892 1.502 . S
C891 C893 1.561 . S
C891 C894 1.526 . S
C892 H876 0.959 . S
C892 H877 0.959 . S
C892 H878 0.961 . S
C892 C891 1.502 . S
C893 H879 0.960 . S
C893 H880 0.961 . S
C893 H881 0.959 . S
C893 C891 1.561 . S
C894 C891 1.526 . S
C894 C895 1.396 . S
C894 C899 1.390 . S
C895 C889 1.465 . S
C895 C894 1.396 . S
C895 C896 1.399 . S
C896 H882 0.929 . S
C896 C895 1.399 . S
C896 C897 1.385 . S
C897 H883 0.931 . S
C897 C896 1.385 . S
C897 C898 1.389 . S
C898 C897 1.389 . S
C898 C899 1.387 . S
C899 H884 0.930 . S
C899 C894 1.390 . S
C899 C898 1.387 . S
H900 C912 0.930 . S
H901 C914 0.930 . S
H902 C915 0.930 . S
H903 C919 0.959 . S
H904 C919 0.959 . S
H905 C919 0.961 . S
H906 C920 0.960 . S
H907 C920 0.961 . S
H908 C920 0.959 . S
H909 C923 0.929 . S
H910 C924 0.931 . S
H911 C926 0.930 . S
C912 H900 0.930 . S
C912 C913 1.399 . S
C912 C917 1.399 . S
C913 C912 1.399 . S
C913 C914 1.376 . S
C914 H901 0.930 . S
C914 C913 1.376 . S
C914 C915 1.388 . S
C915 H902 0.930 . S
C915 C914 1.388 . S
C915 C916 1.390 . S
C916 C915 1.390 . S
C916 C917 1.394 . S
C916 C922 1.465 . S
C917 C912 1.399 . S
C917 C916 1.394 . S
C917 C918 1.516 . S
C918 C917 1.516 . S
C918 C919 1.502 . S
C918 C920 1.561 . S
C918 C921 1.526 . S
C919 H903 0.959 . S
C919 H904 0.959 . S
C919 H905 0.961 . S
C919 C918 1.502 . S
C920 H906 0.960 . S
C920 H907 0.961 . S
C920 H908 0.959 . S
C920 C918 1.561 . S
C921 C918 1.526 . S
C921 C922 1.396 . S
C921 C926 1.390 . S
C922 C916 1.465 . S
C922 C921 1.396 . S
C922 C923 1.399 . S
C923 H909 0.929 . S
C923 C922 1.399 . S
C923 C924 1.385 . S
C924 H910 0.931 . S
C924 C923 1.385 . S
C924 C925 1.389 . S
C925 C924 1.389 . S
C925 C926 1.387 . S
C926 H911 0.930 . S
C926 C921 1.390 . S
C926 C925 1.387 . S
H927 C939 0.930 . S
H928 C941 0.930 . S
H929 C942 0.930 . S
H930 C946 0.959 . S
H931 C946 0.959 . S
H932 C946 0.961 . S
H933 C947 0.960 . S
H934 C947 0.961 . S
H935 C947 0.959 . S
H936 C950 0.929 . S
H937 C951 0.931 . S
H938 C953 0.930 . S
C939 H927 0.930 . S
C939 C940 1.399 . S
C939 C944 1.399 . S
C940 C939 1.399 . S
C940 C941 1.376 . S
C941 H928 0.930 . S
C941 C940 1.376 . S
C941 C942 1.388 . S
C942 H929 0.930 . S
C942 C941 1.388 . S
C942 C943 1.390 . S
C943 C942 1.390 . S
C943 C944 1.394 . S
C943 C949 1.465 . S
C944 C939 1.399 . S
C944 C943 1.394 . S
C944 C945 1.516 . S
C945 C944 1.516 . S
C945 C946 1.502 . S
C945 C947 1.561 . S
C945 C948 1.526 . S
C946 H930 0.959 . S
C946 H931 0.959 . S
C946 H932 0.961 . S
C946 C945 1.502 . S
C947 H933 0.960 . S
C947 H934 0.961 . S
C947 H935 0.959 . S
C947 C945 1.561 . S
C948 C945 1.526 . S
C948 C949 1.396 . S
C948 C953 1.390 . S
C949 C943 1.465 . S
C949 C948 1.396 . S
C949 C950 1.399 . S
C950 H936 0.929 . S
C950 C949 1.399 . S
C950 C951 1.385 . S
C951 H937 0.931 . S
C951 C950 1.385 . S
C951 C952 1.389 . S
C952 C951 1.389 . S
C952 C953 1.387 . S
C953 H938 0.930 . S
C953 C948 1.390 . S
C953 C952 1.387 . S
H954 C966 0.930 . S
H955 C968 0.930 . S
H956 C969 0.930 . S
H957 C973 0.959 . S
H958 C973 0.959 . S
H959 C973 0.961 . S
H960 C974 0.960 . S
H961 C974 0.961 . S
H962 C974 0.959 . S
H963 C977 0.929 . S
H964 C978 0.931 . S
H965 C980 0.930 . S
C966 H954 0.930 . S
C966 C967 1.399 . S
C966 C971 1.399 . S
C967 C966 1.399 . S
C967 C968 1.376 . S
C968 H955 0.930 . S
C968 C967 1.376 . S
C968 C969 1.388 . S
C969 H956 0.930 . S
C969 C968 1.388 . S
C969 C970 1.390 . S
C970 C969 1.390 . S
C970 C971 1.394 . S
C970 C976 1.465 . S
C971 C966 1.399 . S
C971 C970 1.394 . S
C971 C972 1.516 . S
C972 C971 1.516 . S
C972 C973 1.502 . S
C972 C974 1.561 . S
C972 C975 1.526 . S
C973 H957 0.959 . S
C973 H958 0.959 . S
C973 H959 0.961 . S
C973 C972 1.502 . S
C974 H960 0.960 . S
C974 H961 0.961 . S
C974 H962 0.959 . S
C974 C972 1.561 . S
C975 C972 1.526 . S
C975 C976 1.396 . S
C975 C980 1.390 . S
C976 C970 1.465 . S
C976 C975 1.396 . S
C976 C977 1.399 . S
C977 H963 0.929 . S
C977 C976 1.399 . S
C977 C978 1.385 . S
C978 H964 0.931 . S
C978 C977 1.385 . S
C978 C979 1.389 . S
C979 C978 1.389 . S
C979 C980 1.387 . S
C980 H965 0.930 . S
C980 C975 1.390 . S
C980 C979 1.387 . S
H981 C993 0.930 . S
H982 C995 0.930 . S
H983 C996 0.930 . S
H984 C1000 0.959 . S
H985 C1000 0.959 . S
H986 C1000 0.961 . S
H987 C1001 0.960 . S
H988 C1001 0.961 . S
H989 C1001 0.959 . S
H990 C1004 0.929 . S
H991 C1005 0.931 . S
H992 C1007 0.930 . S
C993 H981 0.930 . S
C993 C994 1.399 . S
C993 C998 1.399 . S
C994 C993 1.399 . S
C994 C995 1.376 . S
C995 H982 0.930 . S
C995 C994 1.376 . S
C995 C996 1.388 . S
C996 H983 0.930 . S
C996 C995 1.388 . S
C996 C997 1.390 . S
C997 C996 1.390 . S
C997 C998 1.394 . S
C997 C1003 1.465 . S
C998 C993 1.399 . S
C998 C997 1.394 . S
C998 C999 1.516 . S
C999 C998 1.516 . S
C999 C1000 1.502 . S
C999 C1001 1.561 . S
C999 C1002 1.526 . S
C1000 H984 0.959 . S
C1000 H985 0.959 . S
C1000 H986 0.961 . S
C1000 C999 1.502 . S
C1001 H987 0.960 . S
C1001 H988 0.961 . S
C1001 H989 0.959 . S
C1001 C999 1.561 . S
C1002 C999 1.526 . S
C1002 C1003 1.396 . S
C1002 C1007 1.390 . S
C1003 C997 1.465 . S
C1003 C1002 1.396 . S
C1003 C1004 1.399 . S
C1004 H990 0.929 . S
C1004 C1003 1.399 . S
C1004 C1005 1.385 . S
C1005 H991 0.931 . S
C1005 C1004 1.385 . S
C1005 C1006 1.389 . S
C1006 C1005 1.389 . S
C1006 C1007 1.387 . S
C1007 H992 0.930 . S
C1007 C1002 1.390 . S
C1007 C1006 1.387 . S
H1008 C1020 0.930 . S
H1009 C1022 0.930 . S
H1010 C1023 0.930 . S
H1011 C1027 0.959 . S
H1012 C1027 0.959 . S
H1013 C1027 0.961 . S
H1014 C1028 0.960 . S
H1015 C1028 0.961 . S
H1016 C1028 0.959 . S
H1017 C1031 0.929 . S
H1018 C1032 0.931 . S
H1019 C1034 0.930 . S
C1020 H1008 0.930 . S
C1020 C1021 1.399 . S
C1020 C1025 1.399 . S
C1021 C1020 1.399 . S
C1021 C1022 1.376 . S
C1022 H1009 0.930 . S
C1022 C1021 1.376 . S
C1022 C1023 1.388 . S
C1023 H1010 0.930 . S
C1023 C1022 1.388 . S
C1023 C1024 1.390 . S
C1024 C1023 1.390 . S
C1024 C1025 1.394 . S
C1024 C1030 1.465 . S
C1025 C1020 1.399 . S
C1025 C1024 1.394 . S
C1025 C1026 1.516 . S
C1026 C1025 1.516 . S
C1026 C1027 1.502 . S
C1026 C1028 1.561 . S
C1026 C1029 1.526 . S
C1027 H1011 0.959 . S
C1027 H1012 0.959 . S
C1027 H1013 0.961 . S
C1027 C1026 1.502 . S
C1028 H1014 0.960 . S
C1028 H1015 0.961 . S
C1028 H1016 0.959 . S
C1028 C1026 1.561 . S
C1029 C1026 1.526 . S
C1029 C1030 1.396 . S
C1029 C1034 1.390 . S
C1030 C1024 1.465 . S
C1030 C1029 1.396 . S
C1030 C1031 1.399 . S
C1031 H1017 0.929 . S
C1031 C1030 1.399 . S
C1031 C1032 1.385 . S
C1032 H1018 0.931 . S
C1032 C1031 1.385 . S
C1032 C1033 1.389 . S
C1033 C1032 1.389 . S
C1033 C1034 1.387 . S
C1034 H1019 0.930 . S
C1034 C1029 1.390 . S
C1034 C1033 1.387 . S
H1035 C1047 0.930 . S
H1036 C1049 0.930 . S
H1037 C1050 0.930 . S
H1038 C1054 0.959 . S
H1039 C1054 0.959 . S
H1040 C1054 0.961 . S
H1041 C1055 0.960 . S
H1042 C1055 0.961 . S
H1043 C1055 0.959 . S
H1044 C1058 0.929 . S
H1045 C1059 0.931 . S
H1046 C1061 0.930 . S
C1047 H1035 0.930 . S
C1047 C1048 1.399 . S
C1047 C1052 1.399 . S
C1048 C1047 1.399 . S
C1048 C1049 1.376 . S
C1049 H1036 0.930 . S
C1049 C1048 1.376 . S
C1049 C1050 1.388 . S
C1050 H1037 0.930 . S
C1050 C1049 1.388 . S
C1050 C1051 1.390 . S
C1051 C1050 1.390 . S
C1051 C1052 1.394 . S
C1051 C1057 1.465 . S
C1052 C1047 1.399 . S
C1052 C1051 1.394 . S
C1052 C1053 1.516 . S
C1053 C1052 1.516 . S
C1053 C1054 1.502 . S
C1053 C1055 1.561 . S
C1053 C1056 1.526 . S
C1054 H1038 0.959 . S
C1054 H1039 0.959 . S
C1054 H1040 0.961 . S
C1054 C1053 1.502 . S
C1055 H1041 0.960 . S
C1055 H1042 0.961 . S
C1055 H1043 0.959 . S
C1055 C1053 1.561 . S
C1056 C1053 1.526 . S
C1056 C1057 1.396 . S
C1056 C1061 1.390 . S
C1057 C1051 1.465 . S
C1057 C1056 1.396 . S
C1057 C1058 1.399 . S
C1058 H1044 0.929 . S
C1058 C1057 1.399 . S
C1058 C1059 1.385 . S
C1059 H1045 0.931 . S
C1059 C1058 1.385 . S
C1059 C1060 1.389 . S
C1060 C1059 1.389 . S
C1060 C1061 1.387 . S
C1061 H1046 0.930 . S
C1061 C1056 1.390 . S
C1061 C1060 1.387 . S
C439 C118 1.598 . S
C427 C6 1.604 . S
C466 C187 1.421 . S
C454 C18 1.433 . S
C493 C125 1.612 . S
C481 C28 1.593 . S
C520 C188 1.529 . S
C508 C45 1.536 . S
C547 C241 1.482 . S
C535 C4 1.474 . S
C574 C277 1.723 . S
C562 C21 1.726 . S
C589 C33 1.670 . S
C601 C337 1.669 . S
C628 C400 1.702 . S
C616 C40 1.665 . S
C655 C240 1.590 . S
C643 C16 1.615 . S
C670 C30 1.703 . S
C682 C284 1.715 . S
C709 C330 1.615 . S
C697 C42 1.614 . S
C736 C399 1.644 . S
C724 C9 1.656 . S
C751 C52 1.563 . S
C763 C178 1.560 . S
C790 C135 1.690 1_655 S
C778 C69 1.684 . S
C805 C78 1.414 . S
C817 C171 1.422 . S
C832 C93 1.448 . S
C844 C134 1.501 . S
C871 C346 1.679 1_565 S
C859 C57 1.661 . S
C898 C390 1.696 . S
C886 C66 1.681 . S
C925 C224 1.457 . S
C913 C76 1.473 . S
C940 C88 1.554 . S
C952 C293 1.508 . S
C979 C347 1.633 . S
C967 C64 1.611 . S
C1006 C383 1.628 . S
C994 C81 1.637 . S
C1033 C231 1.470 . S
C1021 C90 1.453 . S
C1048 C54 1.671 . S
C1060 C294 1.670 . S
