# Generated by pormake.
# Topology tsx, (6,3)-cn, num edge types: 1
# Building blocks:
#     Node 0, Type 0, BuildingBlock: MIDCAF_clean_sbu_0, # of connection points: 6
#     Node 1, Type 0, BuildingBlock: MIDCAF_clean_sbu_0, # of connection points: 6
#     Node 2, Type 1, BuildingBlock: CUQRIR_clean_linker_1, # of connection points: 3
#     Node 3, Type 1, BuildingBlock: CUQRIR_clean_linker_1, # of connection points: 3
#     Node 4, Type 1, BuildingBlock: CUQRIR_clean_linker_1, # of connection points: 3
#     Node 5, Type 1, BuildingBlock: CUQRIR_clean_linker_1, # of connection points: 3
#     Edge 6, Type (0, 1), BuildingBlock: KIFKEQ_clean_linker_1, # of connection points: 2
#     Edge 7, Type (0, 1), BuildingBlock: KIFKEQ_clean_linker_1, # of connection points: 2
#     Edge 8, Type (0, 1), BuildingBlock: KIFKEQ_clean_linker_1, # of connection points: 2
#     Edge 9, Type (0, 1), BuildingBlock: KIFKEQ_clean_linker_1, # of connection points: 2
#     Edge 10, Type (0, 1), BuildingBlock: KIFKEQ_clean_linker_1, # of connection points: 2
#     Edge 11, Type (0, 1), BuildingBlock: KIFKEQ_clean_linker_1, # of connection points: 2
#     Edge 12, Type (0, 1), BuildingBlock: KIFKEQ_clean_linker_1, # of connection points: 2
#     Edge 13, Type (0, 1), BuildingBlock: KIFKEQ_clean_linker_1, # of connection points: 2
#     Edge 14, Type (0, 1), BuildingBlock: KIFKEQ_clean_linker_1, # of connection points: 2
#     Edge 15, Type (0, 1), BuildingBlock: KIFKEQ_clean_linker_1, # of connection points: 2
#     Edge 16, Type (0, 1), BuildingBlock: KIFKEQ_clean_linker_1, # of connection points: 2
#     Edge 17, Type (0, 1), BuildingBlock: KIFKEQ_clean_linker_1, # of connection points: 2
# Relax obj value: 0.118
# Max RMSD: 0.170
# Mean RMSD: 0.151
data_MOF--net-tsx--node1-MIDCAF_clean_sbu_0--node2-CUQRIR_clean_linker_1--edge1-KIFKEQ_clean_linker_1
_symmetry_space_group_name_H-M    P1
_symmetry_Int_Tables_number       1
_symmetry_cell_setting            triclinic
loop_
_symmetry_equiv_pos_as_xyz
'x, y, z'
_cell_length_a     18.309496
_cell_length_b     19.55808
_cell_length_c     33.863804
_cell_angle_alpha  79.165439
_cell_angle_beta   97.823849
_cell_angle_gamma 91.132689
loop_
_atom_site_label
_atom_site_type_symbol
_atom_site_fract_x
_atom_site_fract_y
_atom_site_fract_z
_atom_type_partial_charge
Zn0 Zn 0.9755 0.98961 0.95962 0.0
Zn1 Zn 0.20819 0.99455 0.06301 0.0
Zn2 Zn 0.08648 -0.00179 0.01196 0.0
C3 C 0.16754 0.135 0.03625 0.0
C4 C 0.24318 0.92492 0.00533 0.0
O5 O 0.99994 0.93555 0.04335 0.0
O6 O 0.90664 0.94021 0.99413 0.0
C7 C 0.9959 0.13127 0.96072 0.0
O8 O 0.11382 0.10812 0.0157 0.0
O9 O 0.21645 0.09662 0.05938 0.0
O10 O 0.27445 0.9452 0.03661 0.0
O11 O 0.17526 0.94169 0.99187 0.0
O12 O 0.95875 0.09039 0.94125 0.0
O13 O 0.04709 0.10707 0.98975 0.0
O14 O 0.11761 0.95882 0.9584 0.0
O15 O 1.01292 0.94137 0.92081 0.0
C16 C 0.08234 0.94032 0.9264 0.0
O17 O 0.06192 0.9419 0.07205 0.0
O18 O 0.16957 0.94016 0.11085 0.0
C19 C 0.93293 0.92032 0.0308 0.0
C20 C 0.10202 0.92489 0.10686 0.0
Zn21 Zn 0.71331 0.51707 0.54905 0.0
Zn22 Zn 0.46337 0.47984 0.46245 0.0
Zn23 Zn 0.58188 0.50743 0.50921 0.0
C24 C 0.57267 0.44373 0.42477 0.0
C25 C 0.47054 0.6262 0.46056 0.0
O26 O 0.57277 0.45704 0.57238 0.0
O27 O 0.68509 0.47354 0.6024 0.0
C28 C 0.73767 0.43491 0.49703 0.0
O29 O 0.60786 0.46515 0.45585 0.0
O30 O 0.50333 0.44007 0.42058 0.0
O31 O 0.43262 0.57886 0.44705 0.0
O32 O 0.53065 0.61095 0.48509 0.0
O33 O 0.7755 0.46049 0.52461 0.0
O34 O 0.66844 0.45026 0.48733 0.0
O35 O 0.60173 0.62132 0.50641 0.0
O36 O 0.71812 0.61949 0.5351 0.0
C37 C 0.6611 0.65329 0.51751 0.0
O38 O 0.50884 0.43997 0.54812 0.0
O39 O 0.41518 0.41753 0.50375 0.0
C40 C 0.62047 0.45071 0.60457 0.0
C41 C 0.44698 0.40961 0.53977 0.0
C42 C 0.04818 0.00838 0.43208 0.0
N43 N 0.06893 0.9679 0.40712 0.0
N44 N 0.98031 0.03581 0.41787 0.0
C45 C 0.09625 0.0256 0.4686 0.0
C46 C 0.96091 0.01153 0.38317 0.0
N47 N 1.01491 0.97067 0.37626 0.0
C48 C 0.8904 0.03107 0.35509 0.0
H49 H 0.08035 0.99217 0.49633 0.0
H50 H 0.08854 0.08058 0.47107 0.0
H51 H 0.15541 0.01665 0.46726 0.0
H52 H 0.89684 0.08307 0.33612 0.0
H53 H 0.84435 0.03458 0.37279 0.0
H54 H 0.8763 0.99256 0.33505 0.0
C55 C 1.0191 0.06391 0.58068 0.0
N56 N 0.07148 0.06784 0.61272 0.0
N57 N 0.97363 0.00954 0.58994 0.0
C58 C 1.0134 0.11125 0.53998 0.0
C59 C 1.00051 0.9799 0.62841 0.0
N60 N 0.06041 0.01477 0.64217 0.0
C61 C 0.96695 0.91776 0.65279 0.0
H62 H 0.97791 0.15652 0.54009 0.0
H63 H 0.98773 0.0837 0.51598 0.0
H64 H 0.06843 0.13055 0.53299 0.0
H65 H 0.99827 0.87035 0.65166 0.0
H66 H 0.9086 0.91055 0.64053 0.0
H67 H 0.97003 0.92334 0.68498 0.0
C68 C 0.58149 0.51891 0.93794 0.0
N69 N 0.60611 0.47872 0.91395 0.0
N70 N 0.5168 0.54986 0.92015 0.0
C71 C 0.61814 0.52575 0.97951 0.0
C72 C 0.50264 0.5273 0.88454 0.0
N73 N 0.55645 0.48331 0.88091 0.0
C74 C 0.4408 0.55437 0.85151 0.0
H75 H 0.57621 0.5337 0.99895 0.0
H76 H 0.65482 0.57176 0.97687 0.0
H77 H 0.65145 0.4788 0.99417 0.0
H78 H 0.41976 0.60532 0.8551 0.0
H79 H 0.39483 0.51656 0.85289 0.0
H80 H 0.45918 0.56018 0.82116 0.0
C81 C 0.51891 0.55946 0.08409 0.0
N82 N 0.57405 0.56293 0.11464 0.0
N83 N 0.47917 0.50094 0.09287 0.0
C84 C 0.50266 0.61391 0.04638 0.0
C85 C 0.51208 0.46888 0.12978 0.0
N86 N 0.5705 0.50625 0.14293 0.0
C87 C 0.48441 0.40314 0.15394 0.0
H88 H 0.47201 0.65754 0.05339 0.0
H89 H 0.46836 0.59223 0.02222 0.0
H90 H 0.55462 0.63494 0.03554 0.0
H91 H 0.4283 0.38933 0.14117 0.0
H92 H 0.48395 0.40885 0.1859 0.0
H93 H 0.52211 0.35951 0.15384 0.0
H94 H 0.16907 0.20741 0.09634 0.0
H95 H 0.19237 0.23015 0.96964 0.0
H96 H 0.2264 0.31998 0.09842 0.0
H97 H 0.25102 0.34382 0.97144 0.0
H98 H 0.47876 0.43168 0.03167 0.0
H99 H 0.37655 0.36228 0.00613 0.0
H100 H 0.23449 0.44624 0.07754 0.0
H101 H 0.33795 0.51454 0.10323 0.0
C102 C 0.18348 0.23833 0.06844 0.0
C103 C 0.17622 0.21064 0.03285 0.0
C104 C 0.21643 0.30297 0.06953 0.0
C105 C 0.24411 0.34075 0.03516 0.0
C106 C 0.23075 0.31571 0.99847 0.0
C107 C 0.19655 0.25114 0.99728 0.0
C108 C 0.42475 0.43698 0.04046 0.0
C109 C 0.41559 0.47739 0.06947 0.0
C110 C 0.36608 0.39762 0.02583 0.0
C111 C 0.2975 0.39789 0.0403 0.0
C112 C 0.2868 0.4442 0.06622 0.0
C113 C 0.34553 0.48354 0.08074 0.0
H114 H 0.39133 0.90283 0.01584 0.0
H115 H 0.18681 0.83355 0.9568 0.0
H116 H 0.45725 0.81179 0.99556 0.0
H117 H 0.2535 0.74695 0.93273 0.0
H118 H 0.37858 0.54535 0.93861 0.0
H119 H 0.31159 0.63954 0.95671 0.0
H120 H 0.50241 0.77208 0.94351 0.0
H121 H 0.56931 0.676 0.92778 0.0
C122 C 0.36062 0.86955 0.99737 0.0
C123 C 0.28378 0.87668 0.98717 0.0
C124 C 0.39864 0.81747 0.98541 0.0
C125 C 0.36101 0.77173 0.96231 0.0
C126 C 0.2844 0.78045 0.95094 0.0
C127 C 0.24615 0.83164 0.96373 0.0
C128 C 0.40563 0.59473 0.94005 0.0
C129 C 0.47877 0.60397 0.93246 0.0
C130 C 0.36733 0.649 0.94983 0.0
C131 C 0.40128 0.71395 0.95144 0.0
C132 C 0.47473 0.72269 0.94341 0.0
C133 C 0.51319 0.66799 0.93434 0.0
H134 H 0.78559 0.93064 0.02582 0.0
H135 H 0.97218 0.81127 0.09422 0.0
H136 H 0.70232 0.84604 0.05634 0.0
H137 H 0.88796 0.72674 0.12699 0.0
H138 H 0.71878 0.54571 0.11427 0.0
H139 H 0.81119 0.63756 0.10563 0.0
H140 H 0.64607 0.78996 0.11062 0.0
H141 H 0.55381 0.69777 0.11672 0.0
C142 C 0.80874 0.8871 0.04851 0.0
C143 C 0.88535 0.87728 0.05743 0.0
C144 C 0.76078 0.8386 0.06643 0.0
C145 C 0.78803 0.77884 0.09408 0.0
C146 C 0.86498 0.77155 0.10533 0.0
C147 C 0.91332 0.82039 0.08707 0.0
C148 C 0.70325 0.59896 0.11399 0.0
C149 C 0.62975 0.61558 0.11539 0.0
C150 C 0.75602 0.65157 0.10945 0.0
C151 C 0.73616 0.72168 0.10686 0.0
C152 C 0.66316 0.737 0.11137 0.0
C153 C 0.6103 0.68454 0.11502 0.0
H154 H 0.94463 0.20836 0.88787 0.0
H155 H 0.98596 0.2165 0.01548 0.0
H156 H 0.85848 0.30558 0.87683 0.0
H157 H 0.89934 0.31498 1.00413 0.0
H158 H 0.619 0.34477 0.90773 0.0
H159 H 0.73276 0.27633 0.91793 0.0
H160 H 0.85845 0.45133 0.95017 0.0
H161 H 0.74432 0.52117 0.93793 0.0
C162 C 0.93777 0.23306 0.91324 0.0
C163 C 0.97095 0.20437 0.95262 0.0
C164 C 0.88824 0.2884 0.9069 0.0
C165 C 0.87155 0.31645 0.93977 0.0
C166 C 0.91155 0.29385 0.97838 0.0
C167 C 0.96137 0.23793 0.9848 0.0
C168 C 0.67097 0.36862 0.9167 0.0
C169 C 0.67309 0.43794 0.92207 0.0
C170 C 0.73581 0.32968 0.92263 0.0
C171 C 0.80399 0.35896 0.93467 0.0
C172 C 0.80635 0.42781 0.94101 0.0
C173 C 0.7413 0.46735 0.93429 0.0
H174 H 0.71437 0.7375 0.45525 0.0
H175 H 0.63017 0.73731 0.56792 0.0
H176 H 0.77762 0.84723 0.46079 0.0
H177 H 0.69445 0.84566 0.57441 0.0
H178 H 0.82847 0.03184 0.58746 0.0
H179 H 0.72804 0.96608 0.55632 0.0
H180 H 0.88774 0.85943 0.50621 0.0
H181 H 0.98644 0.92614 0.53697 0.0
C182 C 0.70614 0.76306 0.48007 0.0
C183 C 0.66671 0.72959 0.5109 0.0
C184 C 0.74348 0.82525 0.48369 0.0
C185 C 0.7428 0.85463 0.51855 0.0
C186 C 0.69618 0.82509 0.54702 0.0
C187 C 0.65867 0.76304 0.54324 0.0
C188 C 0.84101 0.99595 0.56852 0.0
C189 C 0.91449 0.98372 0.56431 0.0
C190 C 0.78392 0.95791 0.55098 0.0
C191 C 0.79953 0.90676 0.529 0.0
C192 C 0.87305 0.89876 0.52241 0.0
C193 C 0.92987 0.93673 0.54002 0.0
H194 H 0.88383 0.41632 0.49486 0.0
H195 H 0.6697 0.33095 0.46195 0.0
H196 H 0.94241 0.31913 0.47577 0.0
H197 H 0.7281 0.23577 0.44052 0.0
H198 H 0.85931 0.03235 0.45514 0.0
H199 H 0.79879 0.13213 0.47186 0.0
H200 H 0.96336 0.26867 0.41939 0.0
H201 H 0.02411 0.16816 0.40426 0.0
C202 C 0.84918 0.37771 0.48255 0.0
C203 C 0.77203 0.38206 0.47929 0.0
C204 C 0.88277 0.32207 0.47144 0.0
C205 C 0.83999 0.26949 0.45667 0.0
C206 C 0.76271 0.27493 0.45225 0.0
C207 C 0.72911 0.33041 0.46367 0.0
C208 C 0.88224 0.08389 0.4477 0.0
C209 C 0.94652 0.09334 0.42922 0.0
C210 C 0.84751 0.14101 0.45675 0.0
C211 C 0.87617 0.20855 0.44687 0.0
C212 C 0.94047 0.21742 0.42802 0.0
C213 C 0.97523 0.16028 0.4193 0.0
H214 H 0.46629 0.27106 0.55551 0.0
H215 H 0.34812 0.43549 0.58834 0.0
H216 H 0.37932 0.18617 0.58345 0.0
H217 H 0.26189 0.35033 0.61831 0.0
H218 H 0.062 0.208 0.59316 0.0
H219 H 0.16373 0.29008 0.58838 0.0
H220 H 0.31861 0.1202 0.634 0.0
H221 H 0.21611 0.03816 0.63587 0.0
C222 C 0.42377 0.28832 0.57082 0.0
C223 C 0.41424 0.35941 0.57031 0.0
C224 C 0.37345 0.23968 0.58677 0.0
C225 C 0.3123 0.26121 0.60259 0.0
C226 C 0.30715 0.3319 0.60552 0.0
C227 C 0.35728 0.38066 0.58912 0.0
C228 C 0.11791 0.18855 0.60203 0.0
C229 C 0.13142 0.11684 0.61414 0.0
C230 C 0.17642 0.2356 0.60003 0.0
C231 C 0.25003 0.21211 0.61066 0.0
C232 C 0.26299 0.14035 0.62491 0.0
C233 C 0.20435 0.09328 0.62639 0.0
H234 H 0.45952 0.71936 0.5105 0.0
H235 H 0.407 0.69025 0.3867 0.0
H236 H 0.3711 0.81648 0.49656 0.0
H237 H 0.31939 0.78647 0.37268 0.0
H238 H 0.17285 0.97723 0.35638 0.0
H239 H 0.28883 0.91078 0.36822 0.0
H240 H 0.23407 0.80654 0.48461 0.0
H241 H 0.11841 0.87214 0.47218 0.0
C242 C 0.43146 0.73567 0.47994 0.0
C243 C 0.43948 0.69726 0.44973 0.0
C244 C 0.38022 0.79057 0.47204 0.0
C245 C 0.33724 0.80826 0.43369 0.0
C246 C 0.35152 0.77442 0.40247 0.0
C247 C 0.40177 0.71925 0.41049 0.0
C248 C 0.18578 0.93963 0.38424 0.0
C249 C 0.13674 0.92882 0.41322 0.0
C250 C 0.25225 0.90219 0.39124 0.0
C251 C 0.27111 0.85397 0.4276 0.0
C252 C 0.22217 0.84434 0.45674 0.0
C253 C 0.15569 0.88116 0.44952 0.0
H254 H 0.16626 0.84094 0.17553 0.0
H255 H 0.96569 0.95466 0.12331 0.0
H256 H 0.13275 0.83563 0.24333 0.0
H257 H 0.93185 0.94873 0.19118 0.0
H258 H 1.00569 0.05397 0.30357 0.0
H259 H 1.00774 0.02052 0.23808 0.0
H260 H 0.04248 0.80585 0.29742 0.0
H261 H 0.03762 0.84008 0.36366 0.0
C262 C 0.11341 0.86207 0.17847 0.0
C263 C 0.06904 0.89911 0.14425 0.0
C264 C 0.09419 0.85882 0.21731 0.0
C265 C 0.03058 0.89309 0.22248 0.0
C266 C 0.98177 0.92267 0.18795 0.0
C267 C 1.00078 0.92553 0.14906 0.0
C268 C 1.01225 -0.00051 0.30248 0.0
C269 C 1.0201 0.94935 0.33829 0.0
C270 C 1.01303 0.9802 0.26507 0.0
C271 C 0.02323 0.91029 0.26255 0.0
C272 C 0.03329 0.85994 0.29853 0.0
C273 C 0.03113 0.87936 0.33624 0.0
H274 H 0.19505 0.01675 0.89658 0.0
H275 H 0.05064 0.84562 0.87766 0.0
H276 H 0.22111 0.03117 0.8264 0.0
H277 H 0.07755 0.85876 0.80821 0.0
H278 H 0.12592 0.89473 0.68255 0.0
H279 H 0.16548 0.8648 0.7559 0.0
H280 H 0.12177 0.07633 0.76652 0.0
H281 H 0.08074 0.1051 0.69351 0.0
C282 C 0.17199 0.97995 0.87808 0.0
C283 C 0.12023 0.93058 0.89217 0.0
C284 C 0.18636 0.9886 0.83786 0.0
C285 C 0.15045 0.94684 0.81167 0.0
C286 C 0.10628 0.89165 0.82762 0.0
C287 C 0.09078 0.88402 0.86742 0.0
C288 C 0.12636 0.93485 0.70067 0.0
C289 C 0.09907 0.00172 0.68288 0.0
C290 C 0.14929 0.91795 0.74244 0.0
C291 C 0.14629 0.96807 0.76697 0.0
C292 C 0.12554 0.03674 0.74839 0.0
C293 C 0.10182 0.05332 0.70669 0.0
H294 H 0.70927 0.38158 0.66955 0.0
H295 H 0.4876 0.46146 0.63175 0.0
H296 H 0.69051 0.36905 0.74035 0.0
H297 H 0.46896 0.44971 0.70298 0.0
H298 H 0.45845 0.40793 0.84007 0.0
H299 H 0.46693 0.37704 0.7737 0.0
H300 H 0.68291 0.47031 0.77454 0.0
H301 H 0.67302 0.50231 0.8398 0.0
C302 C 0.65572 0.39453 0.67644 0.0
C303 C 0.60027 0.42364 0.64528 0.0
C304 C 0.64514 0.38764 0.71696 0.0
C305 C 0.57904 0.4101 0.72714 0.0
C306 C 0.52059 0.43208 0.69599 0.0
C307 C 0.53112 0.43868 0.65521 0.0
C308 C 0.50781 0.4209 0.82597 0.0
C309 C 0.56521 0.45725 0.84477 0.0
C310 C 0.51269 0.40331 0.78821 0.0
C311 C 0.57568 0.42089 0.76906 0.0
C312 C 0.63421 0.45482 0.78885 0.0
C313 C 0.6288 0.47314 0.82619 0.0
H314 H 0.68976 0.516 0.39709 0.0
H315 H 0.53917 0.35068 0.37483 0.0
H316 H 0.72328 0.52653 0.32859 0.0
H317 H 0.57408 0.35976 0.30709 0.0
H318 H 0.58376 0.59813 0.19329 0.0
H319 H 0.6213 0.57204 0.26637 0.0
H320 H 0.67619 0.36174 0.25869 0.0
H321 H 0.64235 0.38963 0.18473 0.0
C322 C 0.66653 0.47972 0.37828 0.0
C323 C 0.611 0.43332 0.39079 0.0
C324 C 0.68556 0.48592 0.33912 0.0
C325 C 0.65069 0.44446 0.3125 0.0
C326 C 0.60211 0.39214 0.32703 0.0
C327 C 0.58184 0.38711 0.36572 0.0
C328 C 0.6075 0.54755 0.2069 0.0
C329 C 0.60934 0.4956 0.1836 0.0
C330 C 0.62887 0.53244 0.24878 0.0
C331 C 0.65119 0.4647 0.26817 0.0
C332 C 0.65898 0.41429 0.24443 0.0
C333 C 0.63914 0.43001 0.20233 0.0
loop_
_geom_bond_atom_site_label_1
_geom_bond_atom_site_label_2
_geom_bond_distance
_geom_bond_site_symmetry_2
_ccdc_geom_bond_type
Zn0 O6 1.920 1_545 S
Zn0 O12 1.898 . S
Zn0 O15 1.905 1_545 S
Zn1 O9 1.905 1_565 S
Zn1 O10 1.898 . S
Zn1 O18 1.920 . S
Zn2 O5 2.080 1_445 S
Zn2 O8 2.114 1_554 S
Zn2 O11 2.120 1_545 S
Zn2 O13 2.120 1_455 S
Zn2 O14 2.114 1_554 S
Zn2 O17 2.080 . S
C3 O8 1.166 1_554 S
C3 O9 1.182 . S
C4 O10 1.167 . S
C4 O11 1.299 . S
O5 Zn2 2.080 1_665 S
O5 C19 1.305 . S
O6 Zn0 1.920 1_565 S
O6 C19 1.234 1_556 S
C7 O12 1.167 . S
C7 O13 1.299 1_556 S
O8 Zn2 2.114 1_556 S
O8 C3 1.166 1_556 S
O9 Zn1 1.905 1_545 S
O9 C3 1.182 . S
O10 Zn1 1.898 . S
O10 C4 1.167 . S
O11 Zn2 2.120 1_565 S
O11 C4 1.299 . S
O12 Zn0 1.898 . S
O12 C7 1.167 . S
O13 Zn2 2.120 1_655 S
O13 C7 1.299 1_554 S
O14 Zn2 2.114 1_556 S
O14 C16 1.166 1_545 S
O15 Zn0 1.905 1_565 S
O15 C16 1.182 1_655 S
C16 O14 1.166 1_565 S
C16 O15 1.182 1_455 S
O17 Zn2 2.080 . S
O17 C20 1.304 1_545 S
O18 Zn1 1.920 . S
O18 C20 1.234 . S
C19 O5 1.305 . S
C19 O6 1.234 1_554 S
C20 O17 1.304 1_565 S
C20 O18 1.234 . S
Zn21 O27 1.920 . S
Zn21 O33 1.898 . S
Zn21 O36 1.905 . S
Zn22 O30 1.905 . S
Zn22 O31 1.898 . S
Zn22 O39 1.920 . S
Zn23 O26 2.080 . S
Zn23 O29 2.114 . S
Zn23 O32 2.120 . S
Zn23 O34 2.120 . S
Zn23 O35 2.114 . S
Zn23 O38 2.080 . S
C24 O29 1.166 . S
C24 O30 1.182 . S
C25 O31 1.167 . S
C25 O32 1.299 . S
O26 Zn23 2.080 . S
O26 C40 1.305 . S
O27 Zn21 1.920 . S
O27 C40 1.234 . S
C28 O33 1.167 . S
C28 O34 1.299 . S
O29 Zn23 2.114 . S
O29 C24 1.166 . S
O30 Zn22 1.905 . S
O30 C24 1.182 . S
O31 Zn22 1.898 . S
O31 C25 1.167 . S
O32 Zn23 2.120 . S
O32 C25 1.299 . S
O33 Zn21 1.898 . S
O33 C28 1.167 . S
O34 Zn23 2.120 . S
O34 C28 1.299 . S
O35 Zn23 2.114 . S
O35 C37 1.166 . S
O36 Zn21 1.905 . S
O36 C37 1.182 . S
C37 O35 1.166 . S
C37 O36 1.182 . S
O38 Zn23 2.080 . S
O38 C41 1.305 . S
O39 Zn22 1.920 . S
O39 C41 1.234 . S
C40 O26 1.305 . S
C40 O27 1.234 . S
C41 O38 1.305 . S
C41 O39 1.234 . S
C42 N43 1.317 1_545 S
C42 N44 1.348 . S
C42 C45 1.485 . S
N43 C42 1.317 1_565 S
N43 N47 1.370 1_565 S
N44 C42 1.348 . S
N44 C46 1.346 . S
C45 C42 1.485 . S
C45 H49 0.960 1_545 S
C45 H50 0.961 . S
C45 H51 0.960 1_545 S
C46 N44 1.346 . S
C46 N47 1.307 . S
C46 C48 1.486 1_455 S
N47 N43 1.370 1_545 S
N47 C46 1.307 . S
C48 C46 1.486 1_655 S
C48 H52 0.960 . S
C48 H53 0.960 . S
C48 H54 0.959 . S
H49 C45 0.960 1_565 S
H50 C45 0.961 . S
H51 C45 0.960 1_565 S
H52 C48 0.960 . S
H53 C48 0.960 . S
H54 C48 0.959 . S
C55 N56 1.317 . S
C55 N57 1.348 1_445 S
C55 C58 1.485 . S
N56 C55 1.317 . S
N56 N60 1.370 . S
N57 C55 1.348 1_665 S
N57 C59 1.346 . S
C58 C55 1.485 . S
C58 H62 0.960 1_455 S
C58 H63 0.961 1_545 S
C58 H64 0.960 . S
C59 N57 1.346 . S
C59 N60 1.307 1_665 S
C59 C61 1.486 . S
N60 N56 1.370 . S
N60 C59 1.307 1_445 S
C61 C59 1.486 . S
C61 H65 0.960 . S
C61 H66 0.960 . S
C61 H67 0.959 . S
H62 C58 0.960 1_655 S
H63 C58 0.961 1_565 S
H64 C58 0.960 . S
H65 C61 0.960 . S
H66 C61 0.960 . S
H67 C61 0.959 . S
C68 N69 1.317 . S
C68 N70 1.348 . S
C68 C71 1.485 . S
N69 C68 1.317 . S
N69 N73 1.370 . S
N70 C68 1.348 . S
N70 C72 1.346 . S
C71 C68 1.485 . S
C71 H75 0.960 1_556 S
C71 H76 0.949 1_556 S
C71 H77 0.960 . S
C72 N70 1.346 . S
C72 N73 1.307 . S
C72 C74 1.486 . S
N73 N69 1.370 . S
N73 C72 1.307 . S
C74 C72 1.486 . S
C74 H78 0.960 . S
C74 H79 0.960 . S
C74 H80 0.959 . S
H75 C71 0.960 1_554 S
H76 C71 0.949 1_554 S
H77 C71 0.960 . S
H78 C74 0.960 . S
H79 C74 0.960 . S
H80 C74 0.959 . S
C81 N82 1.317 . S
C81 N83 1.348 . S
C81 C84 1.485 . S
N82 C81 1.317 . S
N82 N86 1.370 . S
N83 C81 1.348 . S
N83 C85 1.346 . S
C84 C81 1.485 . S
C84 H88 0.960 . S
C84 H89 0.961 . S
C84 H90 0.960 . S
C85 N83 1.346 . S
C85 N86 1.307 . S
C85 C87 1.486 . S
N86 N82 1.370 . S
N86 C85 1.307 . S
C87 C85 1.486 . S
C87 H91 0.960 . S
C87 H92 0.960 . S
C87 H93 0.959 . S
H88 C84 0.960 . S
H89 C84 0.961 . S
H90 C84 0.960 . S
H91 C87 0.960 . S
H92 C87 0.960 . S
H93 C87 0.959 . S
H94 C102 0.950 . S
H95 C107 0.950 . S
H96 C104 0.950 . S
H97 C106 0.950 1_556 S
H98 C108 0.950 . S
H99 C110 0.950 . S
H100 C112 0.950 . S
H101 C113 0.950 . S
C102 H94 0.950 . S
C102 C103 1.386 . S
C102 C104 1.391 . S
C103 C102 1.386 . S
C103 C107 1.393 1_554 S
C104 H96 0.950 . S
C104 C102 1.391 . S
C104 C105 1.400 . S
C105 C104 1.400 . S
C105 C106 1.398 . S
C105 C111 1.491 . S
C106 H97 0.950 1_554 S
C106 C105 1.398 . S
C106 C107 1.391 1_554 S
C107 H95 0.950 . S
C107 C103 1.393 1_556 S
C107 C106 1.391 1_556 S
C108 H98 0.950 . S
C108 C109 1.386 . S
C108 C110 1.391 . S
C109 C108 1.386 . S
C109 C113 1.393 . S
C110 H99 0.950 . S
C110 C108 1.391 . S
C110 C111 1.400 . S
C111 C105 1.491 . S
C111 C110 1.400 . S
C111 C112 1.398 . S
C112 H100 0.950 . S
C112 C111 1.398 . S
C112 C113 1.391 . S
C113 H101 0.950 . S
C113 C109 1.393 . S
C113 C112 1.391 . S
H114 C122 0.950 . S
H115 C127 0.950 . S
H116 C124 0.944 1_554 S
H117 C126 0.950 . S
H118 C128 0.950 . S
H119 C130 0.950 . S
H120 C132 0.950 . S
H121 C133 0.950 . S
C122 H114 0.950 . S
C122 C123 1.386 1_554 S
C122 C124 1.386 1_554 S
C123 C122 1.386 1_556 S
C123 C127 1.393 . S
C124 H116 0.944 1_556 S
C124 C122 1.386 1_556 S
C124 C125 1.411 . S
C125 C124 1.411 . S
C125 C126 1.398 . S
C125 C131 1.491 . S
C126 H117 0.950 . S
C126 C125 1.398 . S
C126 C127 1.391 . S
C127 H115 0.950 . S
C127 C123 1.393 . S
C127 C126 1.391 . S
C128 H118 0.950 . S
C128 C129 1.386 . S
C128 C130 1.391 . S
C129 C128 1.386 . S
C129 C133 1.393 . S
C130 H119 0.950 . S
C130 C128 1.391 . S
C130 C131 1.400 . S
C131 C125 1.491 . S
C131 C130 1.400 . S
C131 C132 1.398 . S
C132 H120 0.950 . S
C132 C131 1.398 . S
C132 C133 1.391 . S
C133 H121 0.950 . S
C133 C129 1.393 . S
C133 C132 1.391 . S
H134 C142 0.950 1_556 S
H135 C147 0.950 . S
H136 C144 0.950 1_556 S
H137 C146 0.950 . S
H138 C148 0.950 . S
H139 C150 0.950 . S
H140 C152 0.950 . S
H141 C153 0.950 . S
C142 H134 0.950 1_554 S
C142 C143 1.386 . S
C142 C144 1.391 . S
C143 C142 1.386 . S
C143 C147 1.393 . S
C144 H136 0.950 1_554 S
C144 C142 1.391 . S
C144 C145 1.400 . S
C145 C144 1.400 . S
C145 C146 1.398 . S
C145 C151 1.491 . S
C146 H137 0.950 . S
C146 C145 1.398 . S
C146 C147 1.391 . S
C147 H135 0.950 . S
C147 C143 1.393 . S
C147 C146 1.391 . S
C148 H138 0.950 . S
C148 C149 1.386 . S
C148 C150 1.391 . S
C149 C148 1.386 . S
C149 C153 1.393 . S
C150 H139 0.950 . S
C150 C148 1.391 . S
C150 C151 1.400 . S
C151 C145 1.491 . S
C151 C150 1.400 . S
C151 C152 1.398 . S
C152 H140 0.950 . S
C152 C151 1.398 . S
C152 C153 1.391 . S
C153 H141 0.950 . S
C153 C149 1.393 . S
C153 C152 1.391 . S
H154 C162 0.950 . S
H155 C167 0.950 1_554 S
H156 C164 0.950 . S
H157 C166 0.950 1_554 S
H158 C168 0.950 . S
H159 C170 0.950 . S
H160 C172 0.950 . S
H161 C173 0.950 . S
C162 H154 0.950 . S
C162 C163 1.386 . S
C162 C164 1.391 . S
C163 C162 1.386 . S
C163 C167 1.393 . S
C164 H156 0.950 . S
C164 C162 1.391 . S
C164 C165 1.400 . S
C165 C164 1.400 . S
C165 C166 1.398 . S
C165 C171 1.491 . S
C166 H157 0.950 1_556 S
C166 C165 1.398 . S
C166 C167 1.391 . S
C167 H155 0.950 1_556 S
C167 C163 1.393 . S
C167 C166 1.391 . S
C168 H158 0.950 . S
C168 C169 1.386 . S
C168 C170 1.391 . S
C169 C168 1.386 . S
C169 C173 1.393 . S
C170 H159 0.950 . S
C170 C168 1.391 . S
C170 C171 1.400 . S
C171 C165 1.491 . S
C171 C170 1.400 . S
C171 C172 1.398 . S
C172 H160 0.950 . S
C172 C171 1.398 . S
C172 C173 1.391 . S
C173 H161 0.950 . S
C173 C169 1.393 . S
C173 C172 1.391 . S
H174 C182 0.950 . S
H175 C187 0.950 . S
H176 C184 0.950 . S
H177 C186 0.950 . S
H178 C188 0.950 . S
H179 C190 0.950 . S
H180 C192 0.950 . S
H181 C193 0.950 . S
C182 H174 0.950 . S
C182 C183 1.386 . S
C182 C184 1.391 . S
C183 C182 1.386 . S
C183 C187 1.393 . S
C184 H176 0.950 . S
C184 C182 1.391 . S
C184 C185 1.400 . S
C185 C184 1.400 . S
C185 C186 1.398 . S
C185 C191 1.491 . S
C186 H177 0.950 . S
C186 C185 1.398 . S
C186 C187 1.391 . S
C187 H175 0.950 . S
C187 C183 1.393 . S
C187 C186 1.391 . S
C188 H178 0.950 . S
C188 C189 1.386 . S
C188 C190 1.391 . S
C189 C188 1.386 . S
C189 C193 1.393 . S
C190 H179 0.950 . S
C190 C188 1.391 . S
C190 C191 1.400 . S
C191 C185 1.491 . S
C191 C190 1.400 . S
C191 C192 1.398 . S
C192 H180 0.950 . S
C192 C191 1.398 . S
C192 C193 1.391 . S
C193 H181 0.950 . S
C193 C189 1.393 . S
C193 C192 1.391 . S
H194 C202 0.950 . S
H195 C207 0.950 . S
H196 C204 0.950 . S
H197 C206 0.950 . S
H198 C208 0.950 . S
H199 C210 0.950 . S
H200 C212 0.950 . S
H201 C213 0.954 . S
C202 H194 0.950 . S
C202 C203 1.386 . S
C202 C204 1.391 . S
C203 C202 1.386 . S
C203 C207 1.393 . S
C204 H196 0.950 . S
C204 C202 1.391 . S
C204 C205 1.400 . S
C205 C204 1.400 . S
C205 C206 1.398 . S
C205 C211 1.491 . S
C206 H197 0.950 . S
C206 C205 1.398 . S
C206 C207 1.391 . S
C207 H195 0.950 . S
C207 C203 1.393 . S
C207 C206 1.391 . S
C208 H198 0.950 . S
C208 C209 1.386 . S
C208 C210 1.391 . S
C209 C208 1.386 . S
C209 C213 1.392 1_655 S
C210 H199 0.950 . S
C210 C208 1.391 . S
C210 C211 1.400 . S
C211 C205 1.491 . S
C211 C210 1.400 . S
C211 C212 1.398 . S
C212 H200 0.950 . S
C212 C211 1.398 . S
C212 C213 1.388 1_655 S
C213 H201 0.954 . S
C213 C209 1.392 1_455 S
C213 C212 1.388 1_455 S
H214 C222 0.950 . S
H215 C227 0.950 . S
H216 C224 0.950 . S
H217 C226 0.950 . S
H218 C228 0.950 . S
H219 C230 0.950 . S
H220 C232 0.950 . S
H221 C233 0.950 . S
C222 H214 0.950 . S
C222 C223 1.386 . S
C222 C224 1.391 . S
C223 C222 1.386 . S
C223 C227 1.393 . S
C224 H216 0.950 . S
C224 C222 1.391 . S
C224 C225 1.400 . S
C225 C224 1.400 . S
C225 C226 1.398 . S
C225 C231 1.491 . S
C226 H217 0.950 . S
C226 C225 1.398 . S
C226 C227 1.391 . S
C227 H215 0.950 . S
C227 C223 1.393 . S
C227 C226 1.391 . S
C228 H218 0.950 . S
C228 C229 1.386 . S
C228 C230 1.391 . S
C229 C228 1.386 . S
C229 C233 1.393 . S
C230 H219 0.950 . S
C230 C228 1.391 . S
C230 C231 1.400 . S
C231 C225 1.491 . S
C231 C230 1.400 . S
C231 C232 1.398 . S
C232 H220 0.950 . S
C232 C231 1.398 . S
C232 C233 1.391 . S
C233 H221 0.950 . S
C233 C229 1.393 . S
C233 C232 1.391 . S
H234 C242 0.950 . S
H235 C247 0.950 . S
H236 C244 0.950 . S
H237 C246 0.950 . S
H238 C248 0.950 . S
H239 C250 0.950 . S
H240 C252 0.950 . S
H241 C253 0.950 . S
C242 H234 0.950 . S
C242 C243 1.386 . S
C242 C244 1.391 . S
C243 C242 1.386 . S
C243 C247 1.393 . S
C244 H236 0.950 . S
C244 C242 1.391 . S
C244 C245 1.400 . S
C245 C244 1.400 . S
C245 C246 1.398 . S
C245 C251 1.491 . S
C246 H237 0.950 . S
C246 C245 1.398 . S
C246 C247 1.391 . S
C247 H235 0.950 . S
C247 C243 1.393 . S
C247 C246 1.391 . S
C248 H238 0.950 . S
C248 C249 1.386 . S
C248 C250 1.391 . S
C249 C248 1.386 . S
C249 C253 1.393 . S
C250 H239 0.950 . S
C250 C248 1.391 . S
C250 C251 1.400 . S
C251 C245 1.491 . S
C251 C250 1.400 . S
C251 C252 1.398 . S
C252 H240 0.950 . S
C252 C251 1.398 . S
C252 C253 1.391 . S
C253 H241 0.950 . S
C253 C249 1.393 . S
C253 C252 1.391 . S
H254 C262 0.950 . S
H255 C267 0.950 . S
H256 C264 0.950 . S
H257 C266 0.950 . S
H258 C268 0.950 . S
H259 C270 0.950 . S
H260 C272 0.950 . S
H261 C273 0.950 . S
C262 H254 0.950 . S
C262 C263 1.386 . S
C262 C264 1.391 . S
C263 C262 1.386 . S
C263 C267 1.393 1_565 S
C264 H256 0.950 . S
C264 C262 1.391 . S
C264 C265 1.400 . S
C265 C264 1.400 . S
C265 C266 1.398 1_565 S
C265 C271 1.491 . S
C266 H257 0.950 . S
C266 C265 1.398 1_545 S
C266 C267 1.391 . S
C267 H255 0.950 . S
C267 C263 1.393 1_545 S
C267 C266 1.391 . S
C268 H258 0.950 . S
C268 C269 1.386 . S
C268 C270 1.391 . S
C269 C268 1.386 . S
C269 C273 1.393 1_545 S
C270 H259 0.950 . S
C270 C268 1.391 . S
C270 C271 1.400 1_545 S
C271 C265 1.491 . S
C271 C270 1.400 1_565 S
C271 C272 1.398 . S
C272 H260 0.950 . S
C272 C271 1.398 . S
C272 C273 1.391 . S
C273 H261 0.950 . S
C273 C269 1.393 1_565 S
C273 C272 1.391 . S
H274 C282 0.950 1_655 S
H275 C287 0.950 . S
H276 C284 0.950 . S
H277 C286 0.950 . S
H278 C288 0.950 . S
H279 C290 0.950 . S
H280 C292 0.950 . S
H281 C293 0.950 . S
C282 H274 0.950 1_455 S
C282 C283 1.386 1_545 S
C282 C284 1.391 1_455 S
C283 C282 1.386 1_565 S
C283 C287 1.393 . S
C284 H276 0.950 . S
C284 C282 1.391 1_655 S
C284 C285 1.400 1_655 S
C285 C284 1.400 1_455 S
C285 C286 1.398 1_545 S
C285 C291 1.491 . S
C286 H277 0.950 . S
C286 C285 1.398 1_565 S
C286 C287 1.391 . S
C287 H275 0.950 . S
C287 C283 1.393 . S
C287 C286 1.391 . S
C288 H278 0.950 . S
C288 C289 1.386 1_565 S
C288 C290 1.391 . S
C289 C288 1.386 1_545 S
C289 C293 1.393 1_455 S
C290 H279 0.950 . S
C290 C288 1.391 . S
C290 C291 1.400 1_565 S
C291 C285 1.491 . S
C291 C290 1.400 1_545 S
C291 C292 1.398 1_455 S
C292 H280 0.950 . S
C292 C291 1.398 1_655 S
C292 C293 1.391 . S
C293 H281 0.950 . S
C293 C289 1.393 1_655 S
C293 C292 1.391 . S
H294 C302 0.950 . S
H295 C307 0.950 . S
H296 C304 0.950 . S
H297 C306 0.950 . S
H298 C308 0.950 . S
H299 C310 0.950 . S
H300 C312 0.950 . S
H301 C313 0.950 . S
C302 H294 0.950 . S
C302 C303 1.386 . S
C302 C304 1.391 . S
C303 C302 1.386 . S
C303 C307 1.393 . S
C304 H296 0.950 . S
C304 C302 1.391 . S
C304 C305 1.400 . S
C305 C304 1.400 . S
C305 C306 1.398 . S
C305 C311 1.491 . S
C306 H297 0.950 . S
C306 C305 1.398 . S
C306 C307 1.391 . S
C307 H295 0.950 . S
C307 C303 1.393 . S
C307 C306 1.391 . S
C308 H298 0.950 . S
C308 C309 1.386 . S
C308 C310 1.391 . S
C309 C308 1.386 . S
C309 C313 1.393 . S
C310 H299 0.950 . S
C310 C308 1.391 . S
C310 C311 1.400 . S
C311 C305 1.491 . S
C311 C310 1.400 . S
C311 C312 1.398 . S
C312 H300 0.950 . S
C312 C311 1.398 . S
C312 C313 1.391 . S
C313 H301 0.950 . S
C313 C309 1.393 . S
C313 C312 1.391 . S
H314 C322 0.950 . S
H315 C327 0.950 . S
H316 C324 0.950 . S
H317 C326 0.950 . S
H318 C328 0.950 . S
H319 C330 0.950 . S
H320 C332 0.950 . S
H321 C333 0.950 . S
C322 H314 0.950 . S
C322 C323 1.386 . S
C322 C324 1.391 . S
C323 C322 1.386 . S
C323 C327 1.393 . S
C324 H316 0.950 . S
C324 C322 1.391 . S
C324 C325 1.400 . S
C325 C324 1.400 . S
C325 C326 1.398 . S
C325 C331 1.491 . S
C326 H317 0.950 . S
C326 C325 1.398 . S
C326 C327 1.391 . S
C327 H315 0.950 . S
C327 C323 1.393 . S
C327 C326 1.391 . S
C328 H318 0.950 . S
C328 C329 1.386 . S
C328 C330 1.391 . S
C329 C328 1.386 . S
C329 C333 1.393 . S
C330 H319 0.950 . S
C330 C328 1.391 . S
C330 C331 1.400 . S
C331 C325 1.491 . S
C331 C330 1.400 . S
C331 C332 1.398 . S
C332 H320 0.950 . S
C332 C331 1.398 . S
C332 C333 1.391 . S
C333 H321 0.950 . S
C333 C329 1.393 . S
C333 C332 1.391 . S
C109 N83 1.246 . S
C103 C3 1.086 . S
C123 C4 1.438 1_556 S
C129 N70 1.512 . S
C143 C19 1.539 . S
C149 N82 1.668 . S
C163 C7 1.166 . S
C169 N69 1.352 . S
C183 C37 1.141 . S
C189 N57 1.234 . S
C203 C28 1.435 . S
C209 N44 1.511 1_655 S
C229 N56 1.663 . S
C223 C41 1.550 . S
C249 N43 1.358 . S
C243 C25 1.215 . S
C263 C20 1.334 . S
C269 N47 1.516 . S
C283 C16 1.380 . S
C289 N60 1.477 . S
C309 N73 1.522 . S
C303 C40 1.344 . S
C323 C24 1.378 . S
C329 N86 1.495 . S
