# Generated by pormake.
# Topology ssa, (4,4)-cn, num edge types: 1
# Building blocks:
#     Node 0, Type 0, BuildingBlock: IZENUY_clean_linker_0, # of connection points: 4
#     Node 1, Type 0, BuildingBlock: IZENUY_clean_linker_0, # of connection points: 4
#     Node 2, Type 0, BuildingBlock: IZENUY_clean_linker_0, # of connection points: 4
#     Node 3, Type 0, BuildingBlock: IZENUY_clean_linker_0, # of connection points: 4
#     Node 4, Type 0, BuildingBlock: IZENUY_clean_linker_0, # of connection points: 4
#     Node 5, Type 0, BuildingBlock: IZENUY_clean_linker_0, # of connection points: 4
#     Node 6, Type 1, BuildingBlock: MUDLON_clean_sbu_0, # of connection points: 4
#     Node 7, Type 1, BuildingBlock: MUDLON_clean_sbu_0, # of connection points: 4
#     Node 8, Type 1, BuildingBlock: MUDLON_clean_sbu_0, # of connection points: 4
#     Node 9, Type 1, BuildingBlock: MUDLON_clean_sbu_0, # of connection points: 4
#     Node 10, Type 1, BuildingBlock: MUDLON_clean_sbu_0, # of connection points: 4
#     Node 11, Type 1, BuildingBlock: MUDLON_clean_sbu_0, # of connection points: 4
#     Edge 12, Type (0, 1), BuildingBlock: CIFDUS_clean_linker_0, # of connection points: 2
#     Edge 13, Type (0, 1), BuildingBlock: CIFDUS_clean_linker_0, # of connection points: 2
#     Edge 14, Type (0, 1), BuildingBlock: CIFDUS_clean_linker_0, # of connection points: 2
#     Edge 15, Type (0, 1), BuildingBlock: CIFDUS_clean_linker_0, # of connection points: 2
#     Edge 16, Type (0, 1), BuildingBlock: CIFDUS_clean_linker_0, # of connection points: 2
#     Edge 17, Type (0, 1), BuildingBlock: CIFDUS_clean_linker_0, # of connection points: 2
#     Edge 18, Type (0, 1), BuildingBlock: CIFDUS_clean_linker_0, # of connection points: 2
#     Edge 19, Type (0, 1), BuildingBlock: CIFDUS_clean_linker_0, # of connection points: 2
#     Edge 20, Type (0, 1), BuildingBlock: CIFDUS_clean_linker_0, # of connection points: 2
#     Edge 21, Type (0, 1), BuildingBlock: CIFDUS_clean_linker_0, # of connection points: 2
#     Edge 22, Type (0, 1), BuildingBlock: CIFDUS_clean_linker_0, # of connection points: 2
#     Edge 23, Type (0, 1), BuildingBlock: CIFDUS_clean_linker_0, # of connection points: 2
#     Edge 24, Type (0, 1), BuildingBlock: CIFDUS_clean_linker_0, # of connection points: 2
#     Edge 25, Type (0, 1), BuildingBlock: CIFDUS_clean_linker_0, # of connection points: 2
#     Edge 26, Type (0, 1), BuildingBlock: CIFDUS_clean_linker_0, # of connection points: 2
#     Edge 27, Type (0, 1), BuildingBlock: CIFDUS_clean_linker_0, # of connection points: 2
#     Edge 28, Type (0, 1), BuildingBlock: CIFDUS_clean_linker_0, # of connection points: 2
#     Edge 29, Type (0, 1), BuildingBlock: CIFDUS_clean_linker_0, # of connection points: 2
#     Edge 30, Type (0, 1), BuildingBlock: CIFDUS_clean_linker_0, # of connection points: 2
#     Edge 31, Type (0, 1), BuildingBlock: CIFDUS_clean_linker_0, # of connection points: 2
#     Edge 32, Type (0, 1), BuildingBlock: CIFDUS_clean_linker_0, # of connection points: 2
#     Edge 33, Type (0, 1), BuildingBlock: CIFDUS_clean_linker_0, # of connection points: 2
#     Edge 34, Type (0, 1), BuildingBlock: CIFDUS_clean_linker_0, # of connection points: 2
#     Edge 35, Type (0, 1), BuildingBlock: CIFDUS_clean_linker_0, # of connection points: 2
# Relax obj value: 0.000
# Max RMSD: 0.033
# Mean RMSD: 0.020
data_MOF--net-ssa--node1-MUDLON_clean_sbu_0--node2-IZENUY_clean_linker_0--edge1-CIFDUS_clean_linker_0
_symmetry_space_group_name_H-M    P1
_symmetry_Int_Tables_number       1
_symmetry_cell_setting            triclinic
loop_
_symmetry_equiv_pos_as_xyz
'x, y, z'
_cell_length_a     42.543071
_cell_length_b     42.491366
_cell_length_c     37.433813
_cell_angle_alpha  90.672557
_cell_angle_beta   90.473024
_cell_angle_gamma 120.53324
loop_
_atom_site_label
_atom_site_type_symbol
_atom_site_fract_x
_atom_site_fract_y
_atom_site_fract_z
_atom_type_partial_charge
H0 H 0.96369 0.45725 1.01299 0.0
H1 H 0.97861 0.56532 1.0178 0.0
H2 H 0.91014 0.48901 0.93567 0.0
H3 H 0.05343 0.5672 0.0896 0.0
H4 H 0.01758 0.45259 0.0973 0.0
H5 H 0.10393 0.53099 0.16594 0.0
N6 N 0.00023 0.52249 1.04746 0.0
N7 N 0.00671 0.49969 0.06134 0.0
C8 C 0.9584 0.47765 1.00214 0.0
C9 C 0.93471 0.46861 0.97242 0.0
C10 C 0.97496 0.51272 1.0183 0.0
C11 C 0.96669 0.53859 1.00501 0.0
C12 C 0.9432 0.53 0.97515 0.0
C13 C 0.92797 0.49532 0.95881 0.0
C14 C 0.05573 0.54534 0.10154 0.0
C15 C 0.08189 0.55361 0.12884 0.0
C16 C 0.0327 0.50889 0.08963 0.0
C17 C 0.03567 0.48072 0.10579 0.0
C18 C 0.06176 0.48882 0.13297 0.0
C19 C 0.08481 0.52515 0.14399 0.0
H20 H 0.54675 0.03636 0.60266 0.0
H21 H 0.44161 0.02718 0.58988 0.0
H22 H 0.51641 0.09842 0.67109 0.0
H23 H 0.44023 0.95564 0.51836 0.0
H24 H 0.55277 0.98383 0.51387 0.0
H25 H 0.47544 0.91035 0.43518 0.0
N26 N 0.48421 0.00418 0.5631 0.0
N27 N 0.50665 -0.00323 0.54988 0.0
C28 C 0.52714 0.04397 0.6109 0.0
C29 C 0.53584 0.06902 0.63954 0.0
C30 C 0.49314 0.02871 0.59281 0.0
C31 C 0.46759 0.03841 0.60392 0.0
C32 C 0.47574 0.06285 0.63285 0.0
C33 C 0.50977 0.07805 0.65014 0.0
C34 C 0.4616 0.95293 0.50579 0.0
C35 C 0.4532 0.9302 0.47528 0.0
C36 C 0.49748 0.97241 0.51996 0.0
C37 C 0.525 0.96853 0.50353 0.0
C38 C 0.51684 0.94571 0.4732 0.0
C39 C 0.48108 0.92672 0.45941 0.0
H40 H 0.46825 0.44598 1.0289 0.0
H41 H 0.57156 0.54261 1.00879 0.0
H42 H 0.52998 0.44932 0.93736 0.0
H43 H 0.5405 0.5677 0.10108 0.0
H44 H 0.42771 0.48225 0.10498 0.0
H45 H 0.47233 0.5691 0.18421 0.0
N46 N 0.51604 0.51621 0.05172 0.0
N47 N 0.48746 0.50377 0.06924 0.0
C48 C 0.49202 0.46084 1.0124 0.0
C49 C 0.49603 0.44359 0.98187 0.0
C50 C 0.51903 0.4972 1.02155 0.0
C51 C 0.55039 0.51529 1.00076 0.0
C52 C 0.55488 0.49822 0.97043 0.0
C53 C 0.52707 0.46273 0.96085 0.0
C54 C 0.51397 0.55557 0.11335 0.0
C55 C 0.50928 0.57247 0.14372 0.0
C56 C 0.48428 0.52264 0.09942 0.0
C57 C 0.45034 0.5073 0.11607 0.0
C58 C 0.44544 0.52386 0.1466 0.0
C59 C 0.47519 0.55647 0.16008 0.0
H60 H 0.02809 0.48502 0.52345 0.0
H61 H 0.01956 0.58168 0.53189 0.0
H62 H 0.08399 0.57225 0.44934 0.0
H63 H 0.94357 0.50877 0.60029 0.0
H64 H 0.97338 0.42591 0.60731 0.0
H65 H 0.88831 0.42013 0.67297 0.0
N66 N -0.0049 0.51563 0.55924 0.0
N67 N 0.98731 0.48562 0.57236 0.0
C68 C 0.03475 0.51158 0.51375 0.0
C69 C 0.05817 0.52636 0.48458 0.0
C70 C 0.02018 0.53109 0.53068 0.0
C71 C 0.03005 0.56619 0.5186 0.0
C72 C 0.05315 0.58106 0.48918 0.0
C73 C 0.06648 0.56075 0.47219 0.0
C74 C 0.93973 0.48369 0.61151 0.0
C75 C 0.91308 0.46586 0.63761 0.0
C76 C 0.96119 0.46902 0.59986 0.0
C77 C 0.95638 0.43685 0.61544 0.0
C78 C 0.92979 0.41899 0.64157 0.0
C79 C 0.90801 0.43335 0.65198 0.0
H80 H 0.48454 0.04357 1.01961 0.0
H81 H 0.57767 0.0294 1.02705 0.0
H82 H 0.58174 0.11267 0.9605 0.0
H83 H 0.50944 0.96185 0.09988 0.0
H84 H 0.41496 0.97385 0.09169 0.0
H85 H 0.41599 0.89768 0.16522 0.0
N86 N 0.51198 0.00675 0.05369 0.0
N87 N 0.48111 -0.00233 0.06543 0.0
C88 C 0.51224 0.05198 1.01231 0.0
C89 C 0.53054 0.08013 0.98751 0.0
C90 C 0.52939 0.03409 1.02736 0.0
C91 C 0.56465 0.0436 1.01632 0.0
C92 C 0.58319 0.07169 0.9918 0.0
C93 C 0.56643 0.09026 0.97844 0.0
C94 C 0.48212 0.95409 0.10807 0.0
C95 C 0.46512 0.92771 0.13467 0.0
C96 C 0.46418 0.97083 0.0923 0.0
C97 C 0.42895 0.96114 0.10365 0.0
C98 C 0.412 0.93538 0.13067 0.0
C99 C 0.43007 0.9187 0.14561 0.0
H100 H 0.43397 0.47281 0.52676 0.0
H101 H 0.52406 0.58095 0.50611 0.0
H102 H 0.42385 0.53794 0.44561 0.0
H103 H 0.56177 0.54775 0.58849 0.0
H104 H 0.47591 0.43602 0.59859 0.0
H105 H 0.57804 0.47603 0.6557 0.0
N106 N 0.50458 0.52351 0.5459 0.0
N107 N 0.49407 0.49517 0.56342 0.0
C108 C 0.44577 0.49799 0.51204 0.0
C109 C 0.42499 0.50202 0.48496 0.0
C110 C 0.48195 0.52655 0.51956 0.0
C111 C 0.49647 0.55899 0.50023 0.0
C112 C 0.47546 0.56343 0.47384 0.0
C113 C 0.44002 0.53475 0.46626 0.0
C114 C 0.55172 0.5208 0.59927 0.0
C115 C 0.57361 0.51503 0.6236 0.0
C116 C 0.51679 0.49154 0.5892 0.0
C117 C 0.50351 0.45747 0.60514 0.0
C118 C 0.52502 0.45132 0.62967 0.0
C119 C 0.56055 0.48014 0.63753 0.0
Mg120 Mg 0.21197 0.44153 0.31715 0.0
C121 C 0.14155 0.41277 0.27208 0.0
O122 O 0.12876 0.41827 0.3018 0.0
C123 C 0.24097 0.42145 0.38172 0.0
O124 O 0.22732 0.43939 0.39776 0.0
C125 C 0.16727 0.45249 0.37252 0.0
O126 O 0.15153 0.4167 0.37274 0.0
O127 O 0.19408 0.47057 0.35198 0.0
O128 O 0.17263 0.41513 0.27283 0.0
O129 O 0.26012 0.47809 0.28729 0.0
C130 C 0.26991 0.45995 0.26776 0.0
O131 O 0.25052 0.42409 0.26842 0.0
O132 O 0.23389 0.41353 0.34856 0.0
Mg133 Mg 0.77328 0.21639 0.81818 0.0
C134 C 0.71691 0.18142 0.7598 0.0
O135 O 0.74482 0.18157 0.7449 0.0
C136 C 0.8145 0.27529 0.87216 0.0
O137 O 0.82742 0.25344 0.87758 0.0
C138 C 0.73649 0.1416 0.85083 0.0
O139 O 0.72657 0.13197 0.81729 0.0
O140 O 0.76096 0.17455 0.85794 0.0
O141 O 0.72109 0.19606 0.79067 0.0
O142 O 0.81273 0.2306 0.77511 0.0
C143 C 0.84441 0.25909 0.77599 0.0
O144 O 0.85781 0.27621 0.80668 0.0
O145 O 0.78965 0.26642 0.84846 0.0
Mg146 Mg 0.5685 0.79078 0.3033 0.0
C147 C 0.54121 0.82034 0.24659 0.0
O148 O 0.56907 0.82144 0.23052 0.0
C149 C 0.51725 0.73667 0.35847 0.0
O150 O 0.50769 0.76122 0.36411 0.0
C151 C 0.59915 0.8632 0.34245 0.0
O152 O 0.59254 0.87286 0.31135 0.0
O153 O 0.59811 0.83279 0.34444 0.0
O154 O 0.53281 0.80671 0.27757 0.0
O155 O 0.59345 0.77605 0.26034 0.0
C156 C 0.59703 0.74821 0.26355 0.0
O157 O 0.59495 0.73504 0.29559 0.0
O158 O 0.53972 0.74155 0.33403 0.0
Mg159 Mg 0.78664 0.57475 0.79498 0.0
C160 C 0.74496 0.6017 0.74843 0.0
O161 O 0.73058 0.60318 0.77882 0.0
C162 C 0.8363 0.59844 0.86033 0.0
O163 O 0.80453 0.58086 0.87591 0.0
C164 C 0.73088 0.56532 0.84915 0.0
O165 O 0.75137 0.60113 0.84924 0.0
O166 O 0.73946 0.54647 0.82919 0.0
O167 O 0.77184 0.59634 0.74889 0.0
O168 O 0.80023 0.5383 0.76756 0.0
C169 C 0.78188 0.51568 0.74257 0.0
O170 O 0.749 0.50916 0.73438 0.0
O171 O 0.83708 0.60514 0.8271 0.0
Mg172 Mg 0.21058 0.77966 0.30652 0.0
C173 C 0.21377 0.72688 0.24977 0.0
O174 O 0.2489 0.74307 0.25703 0.0
C175 C 0.27066 0.8202 0.35714 0.0
O176 O 0.25568 0.84042 0.35284 0.0
C177 C 0.16367 0.7546 0.3736 0.0
O178 O 0.19575 0.77134 0.38973 0.0
O179 O 0.16196 0.75807 0.33995 0.0
O180 O 0.19414 0.73654 0.26658 0.0
O181 O 0.23295 0.831 0.27754 0.0
C182 C 0.23505 0.83117 0.24358 0.0
O183 O 0.21518 0.80035 0.22565 0.0
O184 O 0.2567 0.78967 0.34038 0.0
Mg185 Mg 0.44037 0.22583 0.81425 0.0
C186 C 0.41942 0.17854 0.74694 0.0
O187 O 0.44267 0.21037 0.73362 0.0
C188 C 0.42674 0.25885 0.88002 0.0
O189 O 0.45028 0.25059 0.8932 0.0
C190 C 0.45628 0.18548 0.86962 0.0
O191 O 0.4216 0.17333 0.87551 0.0
O192 O 0.47262 0.20973 0.84614 0.0
O193 O 0.40977 0.17728 0.77933 0.0
O194 O 0.47373 0.27323 0.78189 0.0
C195 C 0.45647 0.28184 0.75991 0.0
O196 O 0.42083 0.26104 0.75688 0.0
O197 O 0.41387 0.24751 0.84856 0.0
H198 H 0.11525 0.47225 0.13021 0.0
H199 H 0.01459 0.44379 0.18222 0.0
H200 H 0.02788 0.41164 0.22843 0.0
H201 H 0.07351 0.40184 0.25934 0.0
H202 H 0.17444 0.43058 0.20703 0.0
H203 H 0.15534 0.45145 0.15528 0.0
C204 C 0.09565 0.45771 0.15092 0.0
C205 C 0.06396 0.46013 0.15291 0.0
C206 C 0.10383 0.43984 0.17765 0.0
C207 C 0.03889 0.44178 0.18004 0.0
C208 C 0.04673 0.4238 0.20665 0.0
C209 C 0.0909 0.41173 0.23622 0.0
C210 C 0.12567 0.41527 0.23746 0.0
C211 C 0.07991 0.42412 0.20659 0.0
C212 C 0.14764 0.42771 0.20703 0.0
C213 C 0.13686 0.43996 0.17744 0.0
H214 H 0.55213 0.08865 0.71005 0.0
H215 H 0.60259 0.0916 0.60946 0.0
H216 H 0.66275 0.12599 0.63798 0.0
H217 H 0.70121 0.15757 0.6908 0.0
H218 H 0.65067 0.1589 0.7899 0.0
H219 H 0.59032 0.12182 0.76207 0.0
C220 C 0.5762 0.09713 0.69409 0.0
C221 C 0.57253 0.0875 0.65747 0.0
C222 C 0.61078 0.11825 0.71026 0.0
C223 C 0.60427 0.09796 0.63775 0.0
C224 C 0.63881 0.1181 0.65395 0.0
C225 C 0.67699 0.14985 0.70629 0.0
C226 C 0.68044 0.16105 0.74236 0.0
C227 C 0.64238 0.12875 0.69006 0.0
C228 C 0.6488 0.15091 0.76203 0.0
C229 C 0.61428 0.1295 0.7462 0.0
H230 H 0.52848 0.64259 0.13126 0.0
H231 H 0.55496 0.57612 0.19628 0.0
H232 H 0.5906 0.6279 0.23734 0.0
H233 H 0.6045 0.68826 0.26 0.0
H234 H 0.5767 0.75447 0.19555 0.0
H235 H 0.55226 0.70724 0.1487 0.0
C236 C 0.54336 0.64006 0.15364 0.0
C237 C 0.53956 0.60589 0.1607 0.0
C238 C 0.56304 0.66976 0.17758 0.0
C239 C 0.55812 0.60242 0.19016 0.0
C240 C 0.5781 0.63191 0.21381 0.0
C241 C 0.59398 0.69281 0.23532 0.0
C242 C 0.59186 0.72465 0.23172 0.0
C243 C 0.57936 0.6652 0.20864 0.0
C244 C 0.5785 0.73019 0.19931 0.0
C245 C 0.56423 0.70302 0.17251 0.0
H246 H 0.83977 0.43305 0.64677 0.0
H247 H 0.94067 0.53513 0.66332 0.0
H248 H 0.90865 0.55949 0.69733 0.0
H249 H 0.85299 0.55022 0.72576 0.0
H250 H 0.75119 0.44954 0.70741 0.0
H251 H 0.78254 0.42585 0.67083 0.0
C252 C 0.85455 0.46079 0.65747 0.0
C253 C 0.8925 0.48229 0.65272 0.0
C254 C 0.83595 0.47454 0.67706 0.0
C255 C 0.91142 0.51825 0.66639 0.0
C256 C 0.89319 0.53202 0.68612 0.0
C257 C 0.83768 0.52303 0.71381 0.0
C258 C 0.80002 0.50127 0.71978 0.0
C259 C 0.85567 0.51012 0.69225 0.0
C260 C 0.78028 0.46656 0.7034 0.0
C261 C 0.79818 0.4531 0.6825 0.0
H262 H 0.39311 0.94588 0.19653 0.0
H263 H 0.34788 0.89705 0.09344 0.0
H264 H 0.2866 0.86369 0.11871 0.0
H265 H 0.24817 0.84119 0.17211 0.0
H266 H 0.29414 0.89013 0.27537 0.0
H267 H 0.3525 0.93123 0.24801 0.0
C268 C 0.36957 0.92883 0.17947 0.0
C269 C 0.37479 0.92383 0.14324 0.0
C270 C 0.33464 0.9094 0.19434 0.0
C271 C 0.34433 0.90152 0.12131 0.0
C272 C 0.30941 0.88219 0.13587 0.0
C273 C 0.27068 0.86145 0.18854 0.0
C274 C 0.2668 0.86201 0.2259 0.0
C275 C 0.30449 0.8848 0.17265 0.0
C276 C 0.29622 0.88879 0.24664 0.0
C277 C 0.3298 0.91222 0.23102 0.0
H278 H 0.54131 0.43947 0.6975 0.0
H279 H 0.47453 0.3821 0.60455 0.0
H280 H 0.44733 0.32497 0.6368 0.0
H281 H 0.44152 0.2913 0.69191 0.0
H282 H 0.51374 0.34748 0.78154 0.0
H283 H 0.54105 0.40503 0.74926 0.0
C284 C 0.52163 0.41455 0.68358 0.0
C285 C 0.51003 0.41569 0.64841 0.0
C286 C 0.50719 0.38143 0.70167 0.0
C287 C 0.48353 0.38269 0.6318 0.0
C288 C 0.46814 0.34977 0.65011 0.0
C289 C 0.46348 0.31616 0.70415 0.0
C290 C 0.47554 0.31543 0.73903 0.0
C291 C 0.47954 0.34888 0.68515 0.0
C292 C 0.50422 0.34752 0.75461 0.0
C293 C 0.51963 0.38039 0.73626 0.0
H294 H 0.53762 0.89543 0.4806 0.0
H295 H 0.55704 0.98856 0.41933 0.0
H296 H 0.59023 0.97434 0.37499 0.0
H297 H 0.60434 0.92958 0.34904 0.0
H298 H 0.58409 0.83567 0.40999 0.0
H299 H 0.56162 0.85641 0.45933 0.0
C300 C 0.55037 0.91327 0.45819 0.0
C301 C 0.54531 0.94314 0.4532 0.0
C302 C 0.56883 0.90446 0.43249 0.0
C303 C 0.56116 0.96575 0.4238 0.0
C304 C 0.57979 0.95739 0.39832 0.0
C305 C 0.59592 0.91414 0.37348 0.0
C306 C 0.5954 0.8808 0.37545 0.0
C307 C 0.58246 0.92595 0.40165 0.0
C308 C 0.58472 0.86135 0.40753 0.0
C309 C 0.57154 0.87305 0.43576 0.0
H310 H 0.59161 0.46763 0.94063 0.0
H311 H 0.59505 0.57055 0.95266 0.0
H312 H 0.65052 0.60048 0.91746 0.0
H313 H 0.69704 0.5971 0.88192 0.0
H314 H 0.69117 0.49335 0.86685 0.0
H315 H 0.63699 0.46388 0.90397 0.0
C316 C 0.60408 0.49651 0.93518 0.0
C317 C 0.58891 0.5167 0.94924 0.0
C318 C 0.63545 0.51337 0.91423 0.0
C319 C 0.60624 0.55435 0.9426 0.0
C320 C 0.63784 0.57146 0.92224 0.0
C321 C 0.68399 0.56805 0.88685 0.0
C322 C 0.69818 0.54746 0.87172 0.0
C323 C 0.65258 0.5512 0.9078 0.0
C324 C 0.68075 0.5098 0.8781 0.0
C325 C 0.64982 0.49295 0.89937 0.0
H326 H 0.04161 0.60096 0.42412 0.0
H327 H 0.09595 0.64496 0.5255 0.0
H328 H 0.13232 0.70552 0.4994 0.0
H329 H 0.15561 0.74274 0.44533 0.0
H330 H 0.10101 0.69819 0.34383 0.0
H331 H 0.05738 0.64147 0.37243 0.0
C332 C 0.06054 0.62418 0.4407 0.0
C333 C 0.0662 0.61865 0.47663 0.0
C334 C 0.08172 0.65869 0.42532 0.0
C335 C 0.09093 0.64872 0.49789 0.0
C336 C 0.112 0.68322 0.48283 0.0
C337 C 0.13362 0.72097 0.4296 0.0
C338 C 0.1321 0.72461 0.39231 0.0
C339 C 0.10872 0.68812 0.4462 0.0
C340 C 0.1031 0.69623 0.37248 0.0
C341 C 0.07821 0.66358 0.3888 0.0
H342 H 0.5407 0.10791 0.92017 0.0
H343 H 0.47937 0.09466 1.016 0.0
H344 H 0.45047 0.12515 0.9877 0.0
H345 H 0.44325 0.15659 0.93589 0.0
H346 H 0.51056 0.17623 0.84371 0.0
H347 H 0.53783 0.14368 0.8713 0.0
C348 C 0.52178 0.11236 0.93553 0.0
C349 C 0.51257 0.09883 0.97048 0.0
C350 C 0.50658 0.13151 0.91983 0.0
C351 C 0.48673 0.10396 0.98892 0.0
C352 C 0.47041 0.12184 0.97289 0.0
C353 C 0.46408 0.1539 0.92203 0.0
C354 C 0.47487 0.16867 0.88782 0.0
C355 C 0.48021 0.13581 0.93839 0.0
C356 C 0.50204 0.16532 0.87017 0.0
C357 C 0.51744 0.14651 0.88583 0.0
H358 H 0.39963 0.46279 0.42341 0.0
H359 H 0.36521 0.48028 0.52584 0.0
H360 H 0.30182 0.45003 0.50404 0.0
H361 H 0.25915 0.42983 0.45249 0.0
H362 H 0.29429 0.41376 0.34953 0.0
H363 H 0.35408 0.43125 0.37499 0.0
C364 C 0.37793 0.45861 0.44127 0.0
C365 C 0.38684 0.47361 0.47613 0.0
C366 C 0.34179 0.44199 0.42823 0.0
C367 C 0.35879 0.46855 0.49906 0.0
C368 C 0.32266 0.45166 0.48642 0.0
C369 C 0.27954 0.42916 0.43584 0.0
C370 C 0.2724 0.42116 0.39898 0.0
C371 C 0.31419 0.43992 0.45054 0.0
C372 C 0.29899 0.41996 0.3779 0.0
C373 C 0.33338 0.43028 0.3924 0.0
H374 H 0.86533 0.42884 0.94478 0.0
H375 H 0.96329 0.42403 0.96243 0.0
H376 H 0.9338 0.3631 0.93512 0.0
H377 H 0.88111 0.31203 0.90438 0.0
H378 H 0.78512 0.31887 0.88205 0.0
H379 H 0.81334 0.37863 0.91237 0.0
C380 C 0.88054 0.4148 0.94225 0.0
C381 C 0.91662 0.43127 0.95576 0.0
C382 C 0.86381 0.38016 0.92553 0.0
C383 C 0.93536 0.412 0.9529 0.0
C384 C 0.91861 0.3772 0.93699 0.0
C385 C 0.86625 0.32649 0.90635 0.0
C386 C 0.831 0.31099 0.89118 0.0
C387 C 0.88293 0.3611 0.92309 0.0
C388 C 0.8123 0.33026 0.8935 0.0
C389 C 0.82841 0.36439 0.91084 0.0
H390 H 0.95235 0.55844 0.90889 0.0
H391 H 0.90612 0.55635 1.01137 0.0
H392 H 0.87237 0.58341 0.9855 0.0
H393 H 0.84836 0.5976 0.93169 0.0
H394 H 0.89498 0.59994 0.82914 0.0
H395 H 0.93682 0.58379 0.8571 0.0
C396 C 0.93575 0.56503 0.92569 0.0
C397 C 0.93152 0.55533 0.96191 0.0
C398 C 0.91619 0.58025 0.9105 0.0
C399 C 0.90994 0.56384 0.9835 0.0
C400 C 0.89039 0.57898 0.96861 0.0
C401 C 0.86838 0.59558 0.91561 0.0
C402 C 0.86811 0.59946 0.87828 0.0
C403 C 0.89215 0.58586 0.93184 0.0
C404 C 0.89448 0.5971 0.85788 0.0
C405 C 0.91824 0.5875 0.87383 0.0
H406 H 0.41479 0.86182 0.44464 0.0
H407 H 0.4086 0.95851 0.46674 0.0
H408 H 0.35071 0.93184 0.43406 0.0
H409 H 0.30408 0.88325 0.396 0.0
H410 H 0.31086 0.78746 0.37103 0.0
H411 H 0.36666 0.81193 0.40764 0.0
C412 C 0.40082 0.8771 0.44227 0.0
C413 C 0.41622 0.91223 0.45816 0.0
C414 C 0.36785 0.86195 0.42263 0.0
C415 C 0.39729 0.93128 0.45533 0.0
C416 C 0.3643 0.91619 0.4363 0.0
C417 C 0.31759 0.86754 0.39861 0.0
C418 C 0.3034 0.83365 0.38058 0.0
C419 C 0.34967 0.88186 0.41938 0.0
C420 C 0.32126 0.81368 0.3845 0.0
C421 C 0.35316 0.82766 0.40542 0.0
H422 H 0.45675 0.41463 0.92046 0.0
H423 H 0.48053 0.38515 1.0226 0.0
H424 H 0.45498 0.32193 1.00138 0.0
H425 H 0.43672 0.27862 0.95033 0.0
H426 H 0.413 0.30825 0.84803 0.0
H427 H 0.42682 0.36743 0.87285 0.0
C428 C 0.45509 0.39398 0.93838 0.0
C429 C 0.47059 0.40442 0.97296 0.0
C430 C 0.44087 0.35785 0.92576 0.0
C431 C 0.46849 0.37762 0.99599 0.0
C432 C 0.45427 0.34158 0.9837 0.0
C433 C 0.43354 0.29762 0.93375 0.0
C434 C 0.42436 0.2892 0.89725 0.0
C435 C 0.44196 0.33184 0.94813 0.0
C436 C 0.42001 0.31395 0.87619 0.0
C437 C 0.42826 0.34801 0.8903 0.0
H438 H 0.12709 0.5548 0.45936 0.0
H439 H 0.02555 0.45277 0.46987 0.0
H440 H 0.05127 0.4207 0.43815 0.0
H441 H 0.10143 0.42216 0.40459 0.0
H442 H 0.20112 0.52503 0.39034 0.0
H443 H 0.17689 0.55638 0.42571 0.0
C444 C 0.11034 0.52559 0.45442 0.0
C445 C 0.07427 0.50635 0.46684 0.0
C446 C 0.12489 0.50752 0.43524 0.0
C447 C 0.05348 0.46831 0.461 0.0
C448 C 0.06807 0.44997 0.44258 0.0
C449 C 0.11794 0.45141 0.40941 0.0
C450 C 0.15302 0.47125 0.39485 0.0
C451 C 0.10359 0.46937 0.42922 0.0
C452 C 0.17398 0.50916 0.40111 0.0
C453 C 0.16016 0.5271 0.42137 0.0
H454 H 0.59845 0.03802 0.93895 0.0
H455 H 0.64835 0.13021 1.01191 0.0
H456 H 0.70445 0.15783 0.97721 0.0
H457 H 0.73446 0.16065 0.92049 0.0
H458 H 0.68252 0.06999 0.84534 0.0
H459 H 0.63265 0.0366 0.88664 0.0
C460 C 0.62222 0.06341 0.94792 0.0
C461 C 0.61965 0.08191 0.9781 0.0
C462 C 0.65381 0.07974 0.92699 0.0
C463 C 0.65011 0.1153 0.98907 0.0
C464 C 0.68197 0.13125 0.96898 0.0
C465 C 0.7128 0.13317 0.91351 0.0
C466 C 0.71207 0.11815 0.87951 0.0
C467 C 0.68352 0.11448 0.93702 0.0
C468 C 0.68369 0.08245 0.8711 0.0
C469 C 0.65498 0.06334 0.89468 0.0
H470 H 0.44372 0.60409 0.46372 0.0
H471 H 0.53965 0.59891 0.43825 0.0
H472 H 0.56079 0.65193 0.39973 0.0
H473 H 0.5507 0.69812 0.37173 0.0
H474 H 0.45598 0.70496 0.39903 0.0
H475 H 0.43535 0.65258 0.43828 0.0
C476 C 0.46934 0.61476 0.44981 0.0
C477 C 0.49008 0.59765 0.45356 0.0
C478 C 0.48126 0.64519 0.42787 0.0
C479 C 0.52341 0.61185 0.43587 0.0
C480 C 0.53532 0.64194 0.41369 0.0
C481 C 0.52545 0.68805 0.38616 0.0
C482 C 0.5046 0.70504 0.38216 0.0
C483 C 0.51422 0.6585 0.40916 0.0
C484 C 0.47237 0.6922 0.40156 0.0
C485 C 0.46061 0.66231 0.42399 0.0
H486 H 0.44135 0.05121 0.69597 0.0
H487 H 0.45744 0.1059 0.59588 0.0
H488 H 0.43455 0.14363 0.62148 0.0
H489 H 0.42172 0.16865 0.67549 0.0
H490 H 0.40627 0.11424 0.7759 0.0
H491 H 0.41612 0.06819 0.74696 0.0
C492 C 0.4384 0.07041 0.67947 0.0
C493 C 0.45097 0.0759 0.64416 0.0
C494 C 0.42587 0.09241 0.69464 0.0
C495 C 0.44752 0.10104 0.62299 0.0
C496 C 0.43485 0.12287 0.63779 0.0
C497 C 0.41939 0.14605 0.69079 0.0
C498 C 0.41385 0.14522 0.72791 0.0
C499 C 0.42566 0.11997 0.67405 0.0
C500 C 0.41053 0.1156 0.74734 0.0
C501 C 0.41654 0.08942 0.73084 0.0
H502 H 0.41222 0.55717 0.17914 0.0
H503 H 0.39905 0.45096 0.15755 0.0
H504 H 0.34304 0.42225 0.1916 0.0
H505 H 0.29952 0.42721 0.22978 0.0
H506 H 0.3138 0.53318 0.25478 0.0
H507 H 0.36825 0.56214 0.21771 0.0
C508 C 0.39728 0.52775 0.18205 0.0
C509 C 0.41004 0.50636 0.16567 0.0
C510 C 0.3655 0.51139 0.20256 0.0
C511 C 0.38975 0.46818 0.16923 0.0
C512 C 0.35784 0.4517 0.18905 0.0
C513 C 0.31441 0.45667 0.22711 0.0
C514 C 0.30261 0.47801 0.2451 0.0
C515 C 0.34571 0.47306 0.20612 0.0
C516 C 0.32235 0.51613 0.24132 0.0
C517 C 0.35344 0.53267 0.22009 0.0
H518 H 0.87418 0.34888 0.63655 0.0
H519 H 0.97555 0.41933 0.69245 0.0
H520 H 0.96029 0.3727 0.73769 0.0
H521 H 0.91324 0.31663 0.76636 0.0
H522 H 0.8118 0.24606 0.7099 0.0
H523 H 0.83224 0.28738 0.65957 0.0
C524 C 0.89346 0.3533 0.65792 0.0
C525 C 0.92598 0.38725 0.66123 0.0
C526 C 0.8842 0.32655 0.68404 0.0
C527 C 0.95062 0.39313 0.68922 0.0
C528 C 0.94167 0.36664 0.71528 0.0
C529 C 0.89599 0.3098 0.74266 0.0
C530 C 0.86074 0.27859 0.74232 0.0
C531 C 0.90781 0.33391 0.71377 0.0
C532 C 0.83896 0.26995 0.71115 0.0
C533 C 0.85052 0.29374 0.68234 0.0
H534 H 0.46202 0.90605 0.2037 0.0
H535 H 0.5088 0.9062 0.10163 0.0
H536 H 0.5363 0.87315 0.12727 0.0
H537 H 0.54607 0.84304 0.17827 0.0
H538 H 0.49574 0.83932 0.27902 0.0
H539 H 0.46938 0.87369 0.25373 0.0
C540 C 0.47775 0.89846 0.18677 0.0
C541 C 0.48317 0.90875 0.15065 0.0
C542 C 0.49249 0.87835 0.20133 0.0
C543 C 0.50457 0.89935 0.12963 0.0
C544 C 0.52002 0.88003 0.14417 0.0
C545 C 0.52917 0.84958 0.19466 0.0
C546 C 0.52288 0.8386 0.23049 0.0
C547 C 0.51399 0.86923 0.17992 0.0
C548 C 0.50083 0.8472 0.25131 0.0
C549 C 0.48593 0.86706 0.23693 0.0
H550 H 0.64117 0.5241 0.61728 0.0
H551 H 0.58307 0.57171 0.66552 0.0
H552 H 0.6348 0.60829 0.70625 0.0
H553 H 0.69127 0.61737 0.73509 0.0
H554 H 0.74931 0.56955 0.68642 0.0
H555 H 0.7035 0.54317 0.63856 0.0
C556 C 0.64056 0.54361 0.63579 0.0
C557 C 0.60849 0.54531 0.6385 0.0
C558 C 0.67016 0.56402 0.65949 0.0
C559 C 0.60767 0.57032 0.66275 0.0
C560 C 0.63707 0.59086 0.68633 0.0
C561 C 0.69444 0.60203 0.71348 0.0
C562 C 0.72337 0.59491 0.71484 0.0
C563 C 0.66771 0.58658 0.68606 0.0
C564 C 0.72728 0.57535 0.68632 0.0
C565 C 0.70089 0.55997 0.65897 0.0
H566 H 0.15431 0.58952 0.14631 0.0
H567 H 0.05948 0.60147 0.14688 0.0
H568 H 0.09313 0.65789 0.18237 0.0
H569 H 0.14703 0.69985 0.21852 0.0
H570 H 0.24156 0.68732 0.2195 0.0
H571 H 0.21034 0.63483 0.17832 0.0
C572 C 0.14116 0.60472 0.15392 0.0
C573 C 0.10432 0.59112 0.14427 0.0
C574 C 0.16039 0.63663 0.17505 0.0
C575 C 0.08783 0.61142 0.15373 0.0
C576 C 0.10694 0.64347 0.17438 0.0
C577 C 0.16093 0.68577 0.20962 0.0
C578 C 0.19637 0.69711 0.22254 0.0
C579 C 0.14283 0.65567 0.18606 0.0
C580 C 0.2142 0.67899 0.21018 0.0
C581 C 0.19635 0.64897 0.18666 0.0
loop_
_geom_bond_atom_site_label_1
_geom_bond_atom_site_label_2
_geom_bond_distance
_geom_bond_site_symmetry_2
_ccdc_geom_bond_type
H0 C8 0.940 . S
H1 C11 0.940 . S
H2 C13 0.940 . S
H3 C14 0.940 . S
H4 C17 0.940 . S
H5 C19 0.940 . S
N6 N7 1.208 . S
N6 C10 1.466 1_454 S
N7 N6 1.208 . S
N7 C16 1.477 . S
C8 H0 0.940 . S
C8 C9 1.390 . S
C8 C10 1.322 . S
C9 C8 1.390 . S
C9 C13 1.370 . S
C10 N6 1.466 1_656 S
C10 C8 1.322 . S
C10 C11 1.447 . S
C11 H1 0.940 . S
C11 C10 1.447 . S
C11 C12 1.373 . S
C12 C11 1.373 . S
C12 C13 1.417 . S
C13 H2 0.940 . S
C13 C9 1.370 . S
C13 C12 1.417 . S
C14 H3 0.940 . S
C14 C15 1.390 . S
C14 C16 1.322 . S
C15 C14 1.390 . S
C15 C19 1.370 . S
C16 N7 1.477 . S
C16 C14 1.322 . S
C16 C17 1.447 . S
C17 H4 0.940 . S
C17 C16 1.447 . S
C17 C18 1.373 . S
C18 C17 1.373 . S
C18 C19 1.417 . S
C19 H5 0.940 . S
C19 C15 1.370 . S
C19 C18 1.417 . S
H20 C28 0.940 . S
H21 C31 0.940 . S
H22 C33 0.940 . S
H23 C34 0.940 . S
H24 C37 0.940 . S
H25 C39 0.940 . S
N26 N27 1.190 . S
N26 C30 1.477 . S
N27 N26 1.190 . S
N27 C36 1.477 1_545 S
C28 H20 0.940 . S
C28 C29 1.390 . S
C28 C30 1.322 . S
C29 C28 1.390 . S
C29 C33 1.370 . S
C30 N26 1.477 . S
C30 C28 1.322 . S
C30 C31 1.447 . S
C31 H21 0.940 . S
C31 C30 1.447 . S
C31 C32 1.373 . S
C32 C31 1.373 . S
C32 C33 1.417 . S
C33 H22 0.940 . S
C33 C29 1.370 . S
C33 C32 1.417 . S
C34 H23 0.940 . S
C34 C35 1.390 . S
C34 C36 1.322 . S
C35 C34 1.390 . S
C35 C39 1.370 . S
C36 N27 1.477 1_565 S
C36 C34 1.322 . S
C36 C37 1.447 . S
C37 H24 0.940 . S
C37 C36 1.447 . S
C37 C38 1.373 . S
C38 C37 1.373 . S
C38 C39 1.417 . S
C39 H25 0.940 . S
C39 C35 1.370 . S
C39 C38 1.417 . S
H40 C48 0.940 . S
H41 C51 0.940 . S
H42 C53 0.940 . S
H43 C54 0.940 . S
H44 C57 0.940 . S
H45 C59 0.940 . S
N46 N47 1.190 1_556 S
N46 C50 1.477 . S
N47 N46 1.190 1_554 S
N47 C56 1.477 . S
C48 H40 0.940 . S
C48 C49 1.390 . S
C48 C50 1.322 . S
C49 C48 1.390 . S
C49 C53 1.370 . S
C50 N46 1.477 . S
C50 C48 1.322 . S
C50 C51 1.447 . S
C51 H41 0.940 . S
C51 C50 1.447 . S
C51 C52 1.373 . S
C52 C51 1.373 . S
C52 C53 1.417 . S
C53 H42 0.940 . S
C53 C49 1.370 . S
C53 C52 1.417 . S
C54 H43 0.940 . S
C54 C55 1.390 . S
C54 C56 1.322 . S
C55 C54 1.390 . S
C55 C59 1.370 . S
C56 N47 1.477 . S
C56 C54 1.322 . S
C56 C57 1.447 . S
C57 H44 0.940 . S
C57 C56 1.447 . S
C57 C58 1.373 . S
C58 C57 1.373 . S
C58 C59 1.417 . S
C59 H45 0.940 . S
C59 C55 1.370 . S
C59 C58 1.417 . S
H60 C68 0.940 . S
H61 C71 0.940 . S
H62 C73 0.940 . S
H63 C74 0.940 . S
H64 C77 0.940 . S
H65 C79 0.940 . S
N66 N67 1.190 . S
N66 C70 1.477 1_655 S
N67 N66 1.190 . S
N67 C76 1.477 . S
C68 H60 0.940 . S
C68 C69 1.390 . S
C68 C70 1.322 . S
C69 C68 1.390 . S
C69 C73 1.370 . S
C70 N66 1.477 1_455 S
C70 C68 1.322 . S
C70 C71 1.447 . S
C71 H61 0.940 . S
C71 C70 1.447 . S
C71 C72 1.373 . S
C72 C71 1.373 . S
C72 C73 1.417 . S
C73 H62 0.940 . S
C73 C69 1.370 . S
C73 C72 1.417 . S
C74 H63 0.940 . S
C74 C75 1.390 . S
C74 C76 1.322 . S
C75 C74 1.390 . S
C75 C79 1.370 . S
C76 N67 1.477 . S
C76 C74 1.322 . S
C76 C77 1.447 . S
C77 H64 0.940 . S
C77 C76 1.447 . S
C77 C78 1.373 . S
C78 C77 1.373 . S
C78 C79 1.417 . S
C79 H65 0.940 . S
C79 C75 1.370 . S
C79 C78 1.417 . S
H80 C88 0.940 . S
H81 C91 0.940 . S
H82 C93 0.940 . S
H83 C94 0.940 . S
H84 C97 0.940 . S
H85 C99 0.940 . S
N86 N87 1.190 . S
N86 C90 1.477 1_554 S
N87 N86 1.190 . S
N87 C96 1.477 1_545 S
C88 H80 0.940 . S
C88 C89 1.390 . S
C88 C90 1.322 . S
C89 C88 1.390 . S
C89 C93 1.370 . S
C90 N86 1.477 1_556 S
C90 C88 1.322 . S
C90 C91 1.447 . S
C91 H81 0.940 . S
C91 C90 1.447 . S
C91 C92 1.373 . S
C92 C91 1.373 . S
C92 C93 1.417 . S
C93 H82 0.940 . S
C93 C89 1.370 . S
C93 C92 1.417 . S
C94 H83 0.940 . S
C94 C95 1.390 . S
C94 C96 1.322 . S
C95 C94 1.390 . S
C95 C99 1.370 . S
C96 N87 1.477 1_565 S
C96 C94 1.322 . S
C96 C97 1.447 . S
C97 H84 0.940 . S
C97 C96 1.447 . S
C97 C98 1.373 . S
C98 C97 1.373 . S
C98 C99 1.417 . S
C99 H85 0.940 . S
C99 C95 1.370 . S
C99 C98 1.417 . S
H100 C108 0.940 . S
H101 C111 0.940 . S
H102 C113 0.940 . S
H103 C114 0.940 . S
H104 C117 0.940 . S
H105 C119 0.940 . S
N106 N107 1.190 . S
N106 C110 1.477 . S
N107 N106 1.190 . S
N107 C116 1.477 . S
C108 H100 0.940 . S
C108 C109 1.390 . S
C108 C110 1.322 . S
C109 C108 1.390 . S
C109 C113 1.370 . S
C110 N106 1.477 . S
C110 C108 1.322 . S
C110 C111 1.447 . S
C111 H101 0.940 . S
C111 C110 1.447 . S
C111 C112 1.373 . S
C112 C111 1.373 . S
C112 C113 1.417 . S
C113 H102 0.940 . S
C113 C109 1.370 . S
C113 C112 1.417 . S
C114 H103 0.940 . S
C114 C115 1.390 . S
C114 C116 1.322 . S
C115 C114 1.390 . S
C115 C119 1.370 . S
C116 N107 1.477 . S
C116 C114 1.322 . S
C116 C117 1.447 . S
C117 H104 0.940 . S
C117 C116 1.447 . S
C117 C118 1.373 . S
C118 C117 1.373 . S
C118 C119 1.417 . S
C119 H105 0.940 . S
C119 C115 1.370 . S
C119 C118 1.417 . S
Mg120 O127 2.141 . S
Mg120 O128 2.048 . S
Mg120 O129 2.048 . S
Mg120 O132 2.141 . S
C121 O122 1.313 . S
C121 O128 1.195 . S
O122 C121 1.313 . S
C123 O124 1.245 . S
C123 O132 1.289 . S
O124 C123 1.245 . S
C125 O126 1.245 . S
C125 O127 1.289 . S
O126 C125 1.245 . S
O127 Mg120 2.141 . S
O127 C125 1.289 . S
O128 Mg120 2.048 . S
O128 C121 1.195 . S
O129 Mg120 2.048 . S
O129 C130 1.195 . S
C130 O129 1.195 . S
C130 O131 1.313 . S
O131 C130 1.313 . S
O132 Mg120 2.141 . S
O132 C123 1.289 . S
Mg133 O140 2.141 . S
Mg133 O141 2.048 . S
Mg133 O142 2.048 . S
Mg133 O145 2.141 . S
C134 O135 1.313 . S
C134 O141 1.195 . S
O135 C134 1.313 . S
C136 O137 1.245 . S
C136 O145 1.289 . S
O137 C136 1.245 . S
C138 O139 1.245 . S
C138 O140 1.289 . S
O139 C138 1.245 . S
O140 Mg133 2.141 . S
O140 C138 1.289 . S
O141 Mg133 2.048 . S
O141 C134 1.195 . S
O142 Mg133 2.048 . S
O142 C143 1.195 . S
C143 O142 1.195 . S
C143 O144 1.313 . S
O144 C143 1.313 . S
O145 Mg133 2.141 . S
O145 C136 1.289 . S
Mg146 O153 2.141 . S
Mg146 O154 2.048 . S
Mg146 O155 2.048 . S
Mg146 O158 2.141 . S
C147 O148 1.313 . S
C147 O154 1.195 . S
O148 C147 1.313 . S
C149 O150 1.245 . S
C149 O158 1.289 . S
O150 C149 1.245 . S
C151 O152 1.245 . S
C151 O153 1.289 . S
O152 C151 1.245 . S
O153 Mg146 2.141 . S
O153 C151 1.289 . S
O154 Mg146 2.048 . S
O154 C147 1.195 . S
O155 Mg146 2.048 . S
O155 C156 1.195 . S
C156 O155 1.195 . S
C156 O157 1.313 . S
O157 C156 1.313 . S
O158 Mg146 2.141 . S
O158 C149 1.289 . S
Mg159 O166 2.141 . S
Mg159 O167 2.048 . S
Mg159 O168 2.048 . S
Mg159 O171 2.141 . S
C160 O161 1.313 . S
C160 O167 1.195 . S
O161 C160 1.313 . S
C162 O163 1.245 . S
C162 O171 1.289 . S
O163 C162 1.245 . S
C164 O165 1.245 . S
C164 O166 1.289 . S
O165 C164 1.245 . S
O166 Mg159 2.141 . S
O166 C164 1.289 . S
O167 Mg159 2.048 . S
O167 C160 1.195 . S
O168 Mg159 2.048 . S
O168 C169 1.195 . S
C169 O168 1.195 . S
C169 O170 1.313 . S
O170 C169 1.313 . S
O171 Mg159 2.141 . S
O171 C162 1.289 . S
Mg172 O179 2.141 . S
Mg172 O180 2.048 . S
Mg172 O181 2.048 . S
Mg172 O184 2.141 . S
C173 O174 1.313 . S
C173 O180 1.195 . S
O174 C173 1.313 . S
C175 O176 1.245 . S
C175 O184 1.289 . S
O176 C175 1.245 . S
C177 O178 1.245 . S
C177 O179 1.289 . S
O178 C177 1.245 . S
O179 Mg172 2.141 . S
O179 C177 1.289 . S
O180 Mg172 2.048 . S
O180 C173 1.195 . S
O181 Mg172 2.048 . S
O181 C182 1.195 . S
C182 O181 1.195 . S
C182 O183 1.313 . S
O183 C182 1.313 . S
O184 Mg172 2.141 . S
O184 C175 1.289 . S
Mg185 O192 2.141 . S
Mg185 O193 2.048 . S
Mg185 O194 2.048 . S
Mg185 O197 2.141 . S
C186 O187 1.313 . S
C186 O193 1.195 . S
O187 C186 1.313 . S
C188 O189 1.245 . S
C188 O197 1.289 . S
O189 C188 1.245 . S
C190 O191 1.245 . S
C190 O192 1.289 . S
O191 C190 1.245 . S
O192 Mg185 2.141 . S
O192 C190 1.289 . S
O193 Mg185 2.048 . S
O193 C186 1.195 . S
O194 Mg185 2.048 . S
O194 C195 1.195 . S
C195 O194 1.195 . S
C195 O196 1.313 . S
O196 C195 1.313 . S
O197 Mg185 2.141 . S
O197 C188 1.289 . S
H198 C204 0.930 . S
H199 C207 0.930 . S
H200 C208 0.930 . S
H201 C209 0.930 . S
H202 C212 0.930 . S
H203 C213 0.930 . S
C204 H198 0.930 . S
C204 C205 1.355 . S
C204 C206 1.415 . S
C205 C204 1.355 . S
C205 C207 1.419 . S
C206 C204 1.415 . S
C206 C211 1.425 . S
C206 C213 1.409 . S
C207 H199 0.930 . S
C207 C205 1.419 . S
C207 C208 1.362 . S
C208 H200 0.930 . S
C208 C207 1.362 . S
C208 C211 1.409 . S
C209 H201 0.930 . S
C209 C210 1.355 . S
C209 C211 1.415 . S
C210 C209 1.355 . S
C210 C212 1.419 . S
C211 C206 1.425 . S
C211 C208 1.409 . S
C211 C209 1.415 . S
C212 H202 0.930 . S
C212 C210 1.419 . S
C212 C213 1.362 . S
C213 H203 0.930 . S
C213 C206 1.409 . S
C213 C212 1.362 . S
H214 C220 0.930 . S
H215 C223 0.930 . S
H216 C224 0.930 . S
H217 C225 0.930 . S
H218 C228 0.930 . S
H219 C229 0.930 . S
C220 H214 0.930 . S
C220 C221 1.355 . S
C220 C222 1.415 . S
C221 C220 1.355 . S
C221 C223 1.419 . S
C222 C220 1.415 . S
C222 C227 1.425 . S
C222 C229 1.409 . S
C223 H215 0.930 . S
C223 C221 1.419 . S
C223 C224 1.362 . S
C224 H216 0.930 . S
C224 C223 1.362 . S
C224 C227 1.409 . S
C225 H217 0.930 . S
C225 C226 1.355 . S
C225 C227 1.415 . S
C226 C225 1.355 . S
C226 C228 1.419 . S
C227 C222 1.425 . S
C227 C224 1.409 . S
C227 C225 1.415 . S
C228 H218 0.930 . S
C228 C226 1.419 . S
C228 C229 1.362 . S
C229 H219 0.930 . S
C229 C222 1.409 . S
C229 C228 1.362 . S
H230 C236 0.930 . S
H231 C239 0.930 . S
H232 C240 0.930 . S
H233 C241 0.930 . S
H234 C244 0.930 . S
H235 C245 0.930 . S
C236 H230 0.930 . S
C236 C237 1.355 . S
C236 C238 1.415 . S
C237 C236 1.355 . S
C237 C239 1.419 . S
C238 C236 1.415 . S
C238 C243 1.425 . S
C238 C245 1.409 . S
C239 H231 0.930 . S
C239 C237 1.419 . S
C239 C240 1.362 . S
C240 H232 0.930 . S
C240 C239 1.362 . S
C240 C243 1.409 . S
C241 H233 0.930 . S
C241 C242 1.355 . S
C241 C243 1.415 . S
C242 C241 1.355 . S
C242 C244 1.419 . S
C243 C238 1.425 . S
C243 C240 1.409 . S
C243 C241 1.415 . S
C244 H234 0.930 . S
C244 C242 1.419 . S
C244 C245 1.362 . S
C245 H235 0.930 . S
C245 C238 1.409 . S
C245 C244 1.362 . S
H246 C252 0.930 . S
H247 C255 0.930 . S
H248 C256 0.930 . S
H249 C257 0.930 . S
H250 C260 0.930 . S
H251 C261 0.930 . S
C252 H246 0.930 . S
C252 C253 1.355 . S
C252 C254 1.415 . S
C253 C252 1.355 . S
C253 C255 1.419 . S
C254 C252 1.415 . S
C254 C259 1.425 . S
C254 C261 1.409 . S
C255 H247 0.930 . S
C255 C253 1.419 . S
C255 C256 1.362 . S
C256 H248 0.930 . S
C256 C255 1.362 . S
C256 C259 1.409 . S
C257 H249 0.930 . S
C257 C258 1.355 . S
C257 C259 1.415 . S
C258 C257 1.355 . S
C258 C260 1.419 . S
C259 C254 1.425 . S
C259 C256 1.409 . S
C259 C257 1.415 . S
C260 H250 0.930 . S
C260 C258 1.419 . S
C260 C261 1.362 . S
C261 H251 0.930 . S
C261 C254 1.409 . S
C261 C260 1.362 . S
H262 C268 0.930 . S
H263 C271 0.930 . S
H264 C272 0.930 . S
H265 C273 0.930 . S
H266 C276 0.930 . S
H267 C277 0.930 . S
C268 H262 0.930 . S
C268 C269 1.355 . S
C268 C270 1.415 . S
C269 C268 1.355 . S
C269 C271 1.419 . S
C270 C268 1.415 . S
C270 C275 1.425 . S
C270 C277 1.409 . S
C271 H263 0.930 . S
C271 C269 1.419 . S
C271 C272 1.362 . S
C272 H264 0.930 . S
C272 C271 1.362 . S
C272 C275 1.409 . S
C273 H265 0.930 . S
C273 C274 1.355 . S
C273 C275 1.415 . S
C274 C273 1.355 . S
C274 C276 1.419 . S
C275 C270 1.425 . S
C275 C272 1.409 . S
C275 C273 1.415 . S
C276 H266 0.930 . S
C276 C274 1.419 . S
C276 C277 1.362 . S
C277 H267 0.930 . S
C277 C270 1.409 . S
C277 C276 1.362 . S
H278 C284 0.930 . S
H279 C287 0.930 . S
H280 C288 0.930 . S
H281 C289 0.930 . S
H282 C292 0.930 . S
H283 C293 0.930 . S
C284 H278 0.930 . S
C284 C285 1.355 . S
C284 C286 1.415 . S
C285 C284 1.355 . S
C285 C287 1.419 . S
C286 C284 1.415 . S
C286 C291 1.425 . S
C286 C293 1.409 . S
C287 H279 0.930 . S
C287 C285 1.419 . S
C287 C288 1.362 . S
C288 H280 0.930 . S
C288 C287 1.362 . S
C288 C291 1.409 . S
C289 H281 0.930 . S
C289 C290 1.355 . S
C289 C291 1.415 . S
C290 C289 1.355 . S
C290 C292 1.419 . S
C291 C286 1.425 . S
C291 C288 1.409 . S
C291 C289 1.415 . S
C292 H282 0.930 . S
C292 C290 1.419 . S
C292 C293 1.362 . S
C293 H283 0.930 . S
C293 C286 1.409 . S
C293 C292 1.362 . S
H294 C300 0.930 . S
H295 C303 0.930 . S
H296 C304 0.930 . S
H297 C305 0.930 . S
H298 C308 0.930 . S
H299 C309 0.930 . S
C300 H294 0.930 . S
C300 C301 1.355 . S
C300 C302 1.415 . S
C301 C300 1.355 . S
C301 C303 1.419 . S
C302 C300 1.415 . S
C302 C307 1.425 . S
C302 C309 1.409 . S
C303 H295 0.930 . S
C303 C301 1.419 . S
C303 C304 1.362 . S
C304 H296 0.930 . S
C304 C303 1.362 . S
C304 C307 1.409 . S
C305 H297 0.930 . S
C305 C306 1.355 . S
C305 C307 1.415 . S
C306 C305 1.355 . S
C306 C308 1.419 . S
C307 C302 1.425 . S
C307 C304 1.409 . S
C307 C305 1.415 . S
C308 H298 0.930 . S
C308 C306 1.419 . S
C308 C309 1.362 . S
C309 H299 0.930 . S
C309 C302 1.409 . S
C309 C308 1.362 . S
H310 C316 0.930 . S
H311 C319 0.930 . S
H312 C320 0.930 . S
H313 C321 0.930 . S
H314 C324 0.930 . S
H315 C325 0.930 . S
C316 H310 0.930 . S
C316 C317 1.355 . S
C316 C318 1.415 . S
C317 C316 1.355 . S
C317 C319 1.419 . S
C318 C316 1.415 . S
C318 C323 1.425 . S
C318 C325 1.409 . S
C319 H311 0.930 . S
C319 C317 1.419 . S
C319 C320 1.362 . S
C320 H312 0.930 . S
C320 C319 1.362 . S
C320 C323 1.409 . S
C321 H313 0.930 . S
C321 C322 1.355 . S
C321 C323 1.415 . S
C322 C321 1.355 . S
C322 C324 1.419 . S
C323 C318 1.425 . S
C323 C320 1.409 . S
C323 C321 1.415 . S
C324 H314 0.930 . S
C324 C322 1.419 . S
C324 C325 1.362 . S
C325 H315 0.930 . S
C325 C318 1.409 . S
C325 C324 1.362 . S
H326 C332 0.930 . S
H327 C335 0.930 . S
H328 C336 0.930 . S
H329 C337 0.930 . S
H330 C340 0.930 . S
H331 C341 0.930 . S
C332 H326 0.930 . S
C332 C333 1.355 . S
C332 C334 1.415 . S
C333 C332 1.355 . S
C333 C335 1.419 . S
C334 C332 1.415 . S
C334 C339 1.425 . S
C334 C341 1.409 . S
C335 H327 0.930 . S
C335 C333 1.419 . S
C335 C336 1.362 . S
C336 H328 0.930 . S
C336 C335 1.362 . S
C336 C339 1.409 . S
C337 H329 0.930 . S
C337 C338 1.355 . S
C337 C339 1.415 . S
C338 C337 1.355 . S
C338 C340 1.419 . S
C339 C334 1.425 . S
C339 C336 1.409 . S
C339 C337 1.415 . S
C340 H330 0.930 . S
C340 C338 1.419 . S
C340 C341 1.362 . S
C341 H331 0.930 . S
C341 C334 1.409 . S
C341 C340 1.362 . S
H342 C348 0.930 . S
H343 C351 0.930 . S
H344 C352 0.930 . S
H345 C353 0.930 . S
H346 C356 0.930 . S
H347 C357 0.930 . S
C348 H342 0.930 . S
C348 C349 1.355 . S
C348 C350 1.415 . S
C349 C348 1.355 . S
C349 C351 1.419 . S
C350 C348 1.415 . S
C350 C355 1.425 . S
C350 C357 1.409 . S
C351 H343 0.930 . S
C351 C349 1.419 . S
C351 C352 1.362 . S
C352 H344 0.930 . S
C352 C351 1.362 . S
C352 C355 1.409 . S
C353 H345 0.930 . S
C353 C354 1.355 . S
C353 C355 1.415 . S
C354 C353 1.355 . S
C354 C356 1.419 . S
C355 C350 1.425 . S
C355 C352 1.409 . S
C355 C353 1.415 . S
C356 H346 0.930 . S
C356 C354 1.419 . S
C356 C357 1.362 . S
C357 H347 0.930 . S
C357 C350 1.409 . S
C357 C356 1.362 . S
H358 C364 0.930 . S
H359 C367 0.930 . S
H360 C368 0.930 . S
H361 C369 0.930 . S
H362 C372 0.930 . S
H363 C373 0.930 . S
C364 H358 0.930 . S
C364 C365 1.355 . S
C364 C366 1.415 . S
C365 C364 1.355 . S
C365 C367 1.419 . S
C366 C364 1.415 . S
C366 C371 1.425 . S
C366 C373 1.409 . S
C367 H359 0.930 . S
C367 C365 1.419 . S
C367 C368 1.362 . S
C368 H360 0.930 . S
C368 C367 1.362 . S
C368 C371 1.409 . S
C369 H361 0.930 . S
C369 C370 1.355 . S
C369 C371 1.415 . S
C370 C369 1.355 . S
C370 C372 1.419 . S
C371 C366 1.425 . S
C371 C368 1.409 . S
C371 C369 1.415 . S
C372 H362 0.930 . S
C372 C370 1.419 . S
C372 C373 1.362 . S
C373 H363 0.930 . S
C373 C366 1.409 . S
C373 C372 1.362 . S
H374 C380 0.930 . S
H375 C383 0.930 . S
H376 C384 0.930 . S
H377 C385 0.930 . S
H378 C388 0.930 . S
H379 C389 0.930 . S
C380 H374 0.930 . S
C380 C381 1.355 . S
C380 C382 1.415 . S
C381 C380 1.355 . S
C381 C383 1.419 . S
C382 C380 1.415 . S
C382 C387 1.425 . S
C382 C389 1.409 . S
C383 H375 0.930 . S
C383 C381 1.419 . S
C383 C384 1.362 . S
C384 H376 0.930 . S
C384 C383 1.362 . S
C384 C387 1.409 . S
C385 H377 0.930 . S
C385 C386 1.355 . S
C385 C387 1.415 . S
C386 C385 1.355 . S
C386 C388 1.419 . S
C387 C382 1.425 . S
C387 C384 1.409 . S
C387 C385 1.415 . S
C388 H378 0.930 . S
C388 C386 1.419 . S
C388 C389 1.362 . S
C389 H379 0.930 . S
C389 C382 1.409 . S
C389 C388 1.362 . S
H390 C396 0.930 . S
H391 C399 0.930 . S
H392 C400 0.930 . S
H393 C401 0.930 . S
H394 C404 0.930 . S
H395 C405 0.930 . S
C396 H390 0.930 . S
C396 C397 1.355 . S
C396 C398 1.415 . S
C397 C396 1.355 . S
C397 C399 1.419 . S
C398 C396 1.415 . S
C398 C403 1.425 . S
C398 C405 1.409 . S
C399 H391 0.930 . S
C399 C397 1.419 . S
C399 C400 1.362 . S
C400 H392 0.930 . S
C400 C399 1.362 . S
C400 C403 1.409 . S
C401 H393 0.930 . S
C401 C402 1.355 . S
C401 C403 1.415 . S
C402 C401 1.355 . S
C402 C404 1.419 . S
C403 C398 1.425 . S
C403 C400 1.409 . S
C403 C401 1.415 . S
C404 H394 0.930 . S
C404 C402 1.419 . S
C404 C405 1.362 . S
C405 H395 0.930 . S
C405 C398 1.409 . S
C405 C404 1.362 . S
H406 C412 0.930 . S
H407 C415 0.930 . S
H408 C416 0.930 . S
H409 C417 0.930 . S
H410 C420 0.930 . S
H411 C421 0.930 . S
C412 H406 0.930 . S
C412 C413 1.355 . S
C412 C414 1.415 . S
C413 C412 1.355 . S
C413 C415 1.419 . S
C414 C412 1.415 . S
C414 C419 1.425 . S
C414 C421 1.409 . S
C415 H407 0.930 . S
C415 C413 1.419 . S
C415 C416 1.362 . S
C416 H408 0.930 . S
C416 C415 1.362 . S
C416 C419 1.409 . S
C417 H409 0.930 . S
C417 C418 1.355 . S
C417 C419 1.415 . S
C418 C417 1.355 . S
C418 C420 1.419 . S
C419 C414 1.425 . S
C419 C416 1.409 . S
C419 C417 1.415 . S
C420 H410 0.930 . S
C420 C418 1.419 . S
C420 C421 1.362 . S
C421 H411 0.930 . S
C421 C414 1.409 . S
C421 C420 1.362 . S
H422 C428 0.930 . S
H423 C431 0.930 . S
H424 C432 0.930 . S
H425 C433 0.930 . S
H426 C436 0.930 . S
H427 C437 0.930 . S
C428 H422 0.930 . S
C428 C429 1.355 . S
C428 C430 1.415 . S
C429 C428 1.355 . S
C429 C431 1.419 . S
C430 C428 1.415 . S
C430 C435 1.425 . S
C430 C437 1.409 . S
C431 H423 0.930 . S
C431 C429 1.419 . S
C431 C432 1.362 . S
C432 H424 0.930 . S
C432 C431 1.362 . S
C432 C435 1.409 . S
C433 H425 0.930 . S
C433 C434 1.355 . S
C433 C435 1.415 . S
C434 C433 1.355 . S
C434 C436 1.419 . S
C435 C430 1.425 . S
C435 C432 1.409 . S
C435 C433 1.415 . S
C436 H426 0.930 . S
C436 C434 1.419 . S
C436 C437 1.362 . S
C437 H427 0.930 . S
C437 C430 1.409 . S
C437 C436 1.362 . S
H438 C444 0.930 . S
H439 C447 0.930 . S
H440 C448 0.930 . S
H441 C449 0.930 . S
H442 C452 0.930 . S
H443 C453 0.930 . S
C444 H438 0.930 . S
C444 C445 1.355 . S
C444 C446 1.415 . S
C445 C444 1.355 . S
C445 C447 1.419 . S
C446 C444 1.415 . S
C446 C451 1.425 . S
C446 C453 1.409 . S
C447 H439 0.930 . S
C447 C445 1.419 . S
C447 C448 1.362 . S
C448 H440 0.930 . S
C448 C447 1.362 . S
C448 C451 1.409 . S
C449 H441 0.930 . S
C449 C450 1.355 . S
C449 C451 1.415 . S
C450 C449 1.355 . S
C450 C452 1.419 . S
C451 C446 1.425 . S
C451 C448 1.409 . S
C451 C449 1.415 . S
C452 H442 0.930 . S
C452 C450 1.419 . S
C452 C453 1.362 . S
C453 H443 0.930 . S
C453 C446 1.409 . S
C453 C452 1.362 . S
H454 C460 0.930 . S
H455 C463 0.930 . S
H456 C464 0.930 . S
H457 C465 0.930 . S
H458 C468 0.930 . S
H459 C469 0.930 . S
C460 H454 0.930 . S
C460 C461 1.355 . S
C460 C462 1.415 . S
C461 C460 1.355 . S
C461 C463 1.419 . S
C462 C460 1.415 . S
C462 C467 1.425 . S
C462 C469 1.409 . S
C463 H455 0.930 . S
C463 C461 1.419 . S
C463 C464 1.362 . S
C464 H456 0.930 . S
C464 C463 1.362 . S
C464 C467 1.409 . S
C465 H457 0.930 . S
C465 C466 1.355 . S
C465 C467 1.415 . S
C466 C465 1.355 . S
C466 C468 1.419 . S
C467 C462 1.425 . S
C467 C464 1.409 . S
C467 C465 1.415 . S
C468 H458 0.930 . S
C468 C466 1.419 . S
C468 C469 1.362 . S
C469 H459 0.930 . S
C469 C462 1.409 . S
C469 C468 1.362 . S
H470 C476 0.930 . S
H471 C479 0.930 . S
H472 C480 0.930 . S
H473 C481 0.930 . S
H474 C484 0.930 . S
H475 C485 0.930 . S
C476 H470 0.930 . S
C476 C477 1.355 . S
C476 C478 1.415 . S
C477 C476 1.355 . S
C477 C479 1.419 . S
C478 C476 1.415 . S
C478 C483 1.425 . S
C478 C485 1.409 . S
C479 H471 0.930 . S
C479 C477 1.419 . S
C479 C480 1.362 . S
C480 H472 0.930 . S
C480 C479 1.362 . S
C480 C483 1.409 . S
C481 H473 0.930 . S
C481 C482 1.355 . S
C481 C483 1.415 . S
C482 C481 1.355 . S
C482 C484 1.419 . S
C483 C478 1.425 . S
C483 C480 1.409 . S
C483 C481 1.415 . S
C484 H474 0.930 . S
C484 C482 1.419 . S
C484 C485 1.362 . S
C485 H475 0.930 . S
C485 C478 1.409 . S
C485 C484 1.362 . S
H486 C492 0.930 . S
H487 C495 0.930 . S
H488 C496 0.930 . S
H489 C497 0.930 . S
H490 C500 0.930 . S
H491 C501 0.930 . S
C492 H486 0.930 . S
C492 C493 1.355 . S
C492 C494 1.415 . S
C493 C492 1.355 . S
C493 C495 1.419 . S
C494 C492 1.415 . S
C494 C499 1.425 . S
C494 C501 1.409 . S
C495 H487 0.930 . S
C495 C493 1.419 . S
C495 C496 1.362 . S
C496 H488 0.930 . S
C496 C495 1.362 . S
C496 C499 1.409 . S
C497 H489 0.930 . S
C497 C498 1.355 . S
C497 C499 1.415 . S
C498 C497 1.355 . S
C498 C500 1.419 . S
C499 C494 1.425 . S
C499 C496 1.409 . S
C499 C497 1.415 . S
C500 H490 0.930 . S
C500 C498 1.419 . S
C500 C501 1.362 . S
C501 H491 0.930 . S
C501 C494 1.409 . S
C501 C500 1.362 . S
H502 C508 0.930 . S
H503 C511 0.930 . S
H504 C512 0.930 . S
H505 C513 0.930 . S
H506 C516 0.930 . S
H507 C517 0.930 . S
C508 H502 0.930 . S
C508 C509 1.355 . S
C508 C510 1.415 . S
C509 C508 1.355 . S
C509 C511 1.419 . S
C510 C508 1.415 . S
C510 C515 1.425 . S
C510 C517 1.409 . S
C511 H503 0.930 . S
C511 C509 1.419 . S
C511 C512 1.362 . S
C512 H504 0.930 . S
C512 C511 1.362 . S
C512 C515 1.409 . S
C513 H505 0.930 . S
C513 C514 1.355 . S
C513 C515 1.415 . S
C514 C513 1.355 . S
C514 C516 1.419 . S
C515 C510 1.425 . S
C515 C512 1.409 . S
C515 C513 1.415 . S
C516 H506 0.930 . S
C516 C514 1.419 . S
C516 C517 1.362 . S
C517 H507 0.930 . S
C517 C510 1.409 . S
C517 C516 1.362 . S
H518 C524 0.930 . S
H519 C527 0.930 . S
H520 C528 0.930 . S
H521 C529 0.930 . S
H522 C532 0.930 . S
H523 C533 0.930 . S
C524 H518 0.930 . S
C524 C525 1.355 . S
C524 C526 1.415 . S
C525 C524 1.355 . S
C525 C527 1.419 . S
C526 C524 1.415 . S
C526 C531 1.425 . S
C526 C533 1.409 . S
C527 H519 0.930 . S
C527 C525 1.419 . S
C527 C528 1.362 . S
C528 H520 0.930 . S
C528 C527 1.362 . S
C528 C531 1.409 . S
C529 H521 0.930 . S
C529 C530 1.355 . S
C529 C531 1.415 . S
C530 C529 1.355 . S
C530 C532 1.419 . S
C531 C526 1.425 . S
C531 C528 1.409 . S
C531 C529 1.415 . S
C532 H522 0.930 . S
C532 C530 1.419 . S
C532 C533 1.362 . S
C533 H523 0.930 . S
C533 C526 1.409 . S
C533 C532 1.362 . S
H534 C540 0.930 . S
H535 C543 0.930 . S
H536 C544 0.930 . S
H537 C545 0.930 . S
H538 C548 0.930 . S
H539 C549 0.930 . S
C540 H534 0.930 . S
C540 C541 1.355 . S
C540 C542 1.415 . S
C541 C540 1.355 . S
C541 C543 1.419 . S
C542 C540 1.415 . S
C542 C547 1.425 . S
C542 C549 1.409 . S
C543 H535 0.930 . S
C543 C541 1.419 . S
C543 C544 1.362 . S
C544 H536 0.930 . S
C544 C543 1.362 . S
C544 C547 1.409 . S
C545 H537 0.930 . S
C545 C546 1.355 . S
C545 C547 1.415 . S
C546 C545 1.355 . S
C546 C548 1.419 . S
C547 C542 1.425 . S
C547 C544 1.409 . S
C547 C545 1.415 . S
C548 H538 0.930 . S
C548 C546 1.419 . S
C548 C549 1.362 . S
C549 H539 0.930 . S
C549 C542 1.409 . S
C549 C548 1.362 . S
H550 C556 0.930 . S
H551 C559 0.930 . S
H552 C560 0.930 . S
H553 C561 0.930 . S
H554 C564 0.930 . S
H555 C565 0.930 . S
C556 H550 0.930 . S
C556 C557 1.355 . S
C556 C558 1.415 . S
C557 C556 1.355 . S
C557 C559 1.419 . S
C558 C556 1.415 . S
C558 C563 1.425 . S
C558 C565 1.409 . S
C559 H551 0.930 . S
C559 C557 1.419 . S
C559 C560 1.362 . S
C560 H552 0.930 . S
C560 C559 1.362 . S
C560 C563 1.409 . S
C561 H553 0.930 . S
C561 C562 1.355 . S
C561 C563 1.415 . S
C562 C561 1.355 . S
C562 C564 1.419 . S
C563 C558 1.425 . S
C563 C560 1.409 . S
C563 C561 1.415 . S
C564 H554 0.930 . S
C564 C562 1.419 . S
C564 C565 1.362 . S
C565 H555 0.930 . S
C565 C558 1.409 . S
C565 C564 1.362 . S
H566 C572 0.930 . S
H567 C575 0.930 . S
H568 C576 0.930 . S
H569 C577 0.930 . S
H570 C580 0.930 . S
H571 C581 0.930 . S
C572 H566 0.930 . S
C572 C573 1.355 . S
C572 C574 1.415 . S
C573 C572 1.355 . S
C573 C575 1.419 . S
C574 C572 1.415 . S
C574 C579 1.425 . S
C574 C581 1.409 . S
C575 H567 0.930 . S
C575 C573 1.419 . S
C575 C576 1.362 . S
C576 H568 0.930 . S
C576 C575 1.362 . S
C576 C579 1.409 . S
C577 H569 0.930 . S
C577 C578 1.355 . S
C577 C579 1.415 . S
C578 C577 1.355 . S
C578 C580 1.419 . S
C579 C574 1.425 . S
C579 C576 1.409 . S
C579 C577 1.415 . S
C580 H570 0.930 . S
C580 C578 1.419 . S
C580 C581 1.362 . S
C581 H571 0.930 . S
C581 C574 1.409 . S
C581 C580 1.362 . S
C205 C18 1.407 . S
C210 C121 1.453 . S
C221 C29 1.406 . S
C226 C134 1.537 . S
C242 C156 1.485 . S
C237 C55 1.353 . S
C258 C169 1.524 . S
C253 C75 1.477 . S
C274 C182 1.473 . S
C269 C98 1.404 . S
C290 C195 1.523 . S
C285 C118 1.448 . S
C301 C38 1.437 . S
C306 C151 1.416 . S
C317 C52 1.477 . S
C322 C164 1.484 . S
C338 C177 1.472 . S
C333 C72 1.387 . S
C354 C190 1.548 . S
C349 C89 1.415 . S
C365 C109 1.383 . S
C370 C123 1.482 . S
C386 C136 1.543 . S
C381 C9 1.466 . S
C402 C162 1.417 . S
C397 C12 1.438 . S
C413 C35 1.391 . S
C418 C175 1.521 . S
C434 C188 1.475 . S
C429 C49 1.397 . S
C445 C69 1.396 . S
C450 C125 1.535 . S
C461 C92 1.392 . S
C466 C138 1.459 . S
C477 C112 1.494 . S
C482 C149 1.472 . S
C493 C32 1.382 . S
C498 C186 1.469 . S
C514 C130 1.524 . S
C509 C58 1.491 . S
C525 C78 1.430 . S
C530 C143 1.472 . S
C541 C95 1.436 . S
C546 C147 1.561 . S
C557 C115 1.343 . S
C562 C160 1.490 . S
C573 C15 1.461 . S
C578 C173 1.508 . S
