# Generated by pormake.
# Topology rtl, (3,6)-cn, num edge types: 1
# Building blocks:
#     Node 0, Type 0, BuildingBlock: KAKCAD_clean_linker_0, # of connection points: 3
#     Node 1, Type 0, BuildingBlock: KAKCAD_clean_linker_0, # of connection points: 3
#     Node 2, Type 0, BuildingBlock: KAKCAD_clean_linker_0, # of connection points: 3
#     Node 3, Type 0, BuildingBlock: KAKCAD_clean_linker_0, # of connection points: 3
#     Node 4, Type 1, BuildingBlock: KUMBUR_clean_sbu_1, # of connection points: 6
#     Node 5, Type 1, BuildingBlock: KUMBUR_clean_sbu_1, # of connection points: 6
#     Edge 6, Type (0, 1), BuildingBlock: ZUJKAS_clean_linker_0, # of connection points: 2
#     Edge 7, Type (0, 1), BuildingBlock: ZUJKAS_clean_linker_0, # of connection points: 2
#     Edge 8, Type (0, 1), BuildingBlock: ZUJKAS_clean_linker_0, # of connection points: 2
#     Edge 9, Type (0, 1), BuildingBlock: ZUJKAS_clean_linker_0, # of connection points: 2
#     Edge 10, Type (0, 1), BuildingBlock: ZUJKAS_clean_linker_0, # of connection points: 2
#     Edge 11, Type (0, 1), BuildingBlock: ZUJKAS_clean_linker_0, # of connection points: 2
#     Edge 12, Type (0, 1), BuildingBlock: ZUJKAS_clean_linker_0, # of connection points: 2
#     Edge 13, Type (0, 1), BuildingBlock: ZUJKAS_clean_linker_0, # of connection points: 2
#     Edge 14, Type (0, 1), BuildingBlock: ZUJKAS_clean_linker_0, # of connection points: 2
#     Edge 15, Type (0, 1), BuildingBlock: ZUJKAS_clean_linker_0, # of connection points: 2
#     Edge 16, Type (0, 1), BuildingBlock: ZUJKAS_clean_linker_0, # of connection points: 2
#     Edge 17, Type (0, 1), BuildingBlock: ZUJKAS_clean_linker_0, # of connection points: 2
# Relax obj value: 0.017
# Max RMSD: 0.085
# Mean RMSD: 0.053
data_MOF--net-rtl--node1-KUMBUR_clean_sbu_1--node2-KAKCAD_clean_linker_0--edge1-ZUJKAS_clean_linker_0
_symmetry_space_group_name_H-M    P1
_symmetry_Int_Tables_number       1
_symmetry_cell_setting            triclinic
loop_
_symmetry_equiv_pos_as_xyz
'x, y, z'
_cell_length_a     49.51128
_cell_length_b     50.03813
_cell_length_c     42.859181
_cell_angle_alpha  81.846788
_cell_angle_beta   99.527903
_cell_angle_gamma 90.382252
loop_
_atom_site_label
_atom_site_type_symbol
_atom_site_fract_x
_atom_site_fract_y
_atom_site_fract_z
_atom_type_partial_charge
C0 C 0.1585 0.85623 0.907 0.0
C1 C 0.16197 0.88354 0.89511 0.0
C2 C 0.17039 0.84552 0.93808 0.0
C3 C 0.18549 0.86198 0.95826 0.0
C4 C 0.18856 0.88933 0.94693 0.0
C5 C 0.17717 0.89995 0.91558 0.0
C6 C 0.19866 0.85033 0.9908 0.0
C7 C 0.21708 0.82851 0.99494 0.0
C8 C 0.22982 0.81707 0.02562 0.0
C9 C 0.22349 0.82748 0.05242 0.0
C10 C 0.20464 0.84913 0.04867 0.0
C11 C 0.19265 0.86069 0.01763 0.0
C12 C 0.19641 0.85895 0.07697 0.0
C13 C 0.1908 0.84053 0.10298 0.0
C14 C 0.19267 0.8867 0.07748 0.0
C15 C 0.18278 0.89577 0.10292 0.0
C16 C 0.17637 0.87731 0.12848 0.0
C17 C 0.24992 0.7945 0.02923 0.0
C18 C 0.24429 0.77317 0.0112 0.0
C19 C 0.27539 0.79484 0.04927 0.0
C20 C 0.29521 0.77476 0.05034 0.0
C21 C 0.28989 0.75386 0.03149 0.0
C22 C 0.264 0.75306 0.01237 0.0
C23 C 0.18088 0.84959 0.12841 0.0
H24 H 0.1464 0.84304 0.89243 0.0
H25 H 0.1676 0.82438 0.94649 0.0
H26 H 0.20036 0.90231 0.96209 0.0
H27 H 0.18077 0.92092 0.9073 0.0
H28 H 0.222 0.82087 0.97407 0.0
H29 H 0.1778 0.87711 0.01428 0.0
H30 H 0.23307 0.81857 0.07617 0.0
H31 H 0.1931 0.81899 0.10314 0.0
H32 H 0.19722 0.90144 0.05805 0.0
H33 H 0.18003 0.91729 0.10249 0.0
H34 H 0.22466 0.77213 0.99594 0.0
H35 H 0.28038 0.81117 0.06323 0.0
H36 H 0.17582 0.83479 0.14748 0.0
H37 H 0.25895 0.73692 0.99814 0.0
H38 H 0.315 0.77614 0.06512 0.0
C39 C 0.64501 0.67565 0.70431 0.0
C40 C 0.64053 0.64781 0.71156 0.0
C41 C 0.65512 0.68595 0.67641 0.0
C42 C 0.66095 0.66862 0.65516 0.0
C43 C 0.65708 0.64075 0.66287 0.0
C44 C 0.647 0.6305 0.69064 0.0
C45 C 0.67044 0.67937 0.62465 0.0
C46 C 0.69028 0.69964 0.62352 0.0
C47 C 0.70002 0.70864 0.59486 0.0
C48 C 0.68927 0.69768 0.56706 0.0
C49 C 0.66918 0.67779 0.56762 0.0
C50 C 0.65992 0.66877 0.59648 0.0
C51 C 0.65821 0.66604 0.53822 0.0
C52 C 0.65062 0.68274 0.50881 0.0
C53 C 0.6554 0.63797 0.53938 0.0
C54 C 0.64539 0.62681 0.51171 0.0
C55 C 0.63776 0.64348 0.4823 0.0
C56 C 0.72199 0.72891 0.5938 0.0
C57 C 0.71974 0.75355 0.60541 0.0
C58 C 0.74502 0.724 0.58006 0.0
C59 C 0.76524 0.74343 0.5776 0.0
C60 C 0.76271 0.76837 0.58843 0.0
C61 C 0.7398 0.77321 0.60248 0.0
C62 C 0.64036 0.67158 0.48116 0.0
H63 H 0.64006 0.68957 0.71979 0.0
H64 H 0.65769 0.70753 0.67108 0.0
H65 H 0.66195 0.62675 0.64742 0.0
H66 H 0.64442 0.6089 0.69582 0.0
H67 H 0.69891 0.70768 0.64513 0.0
H68 H 0.64411 0.6537 0.59686 0.0
H69 H 0.69678 0.70451 0.54495 0.0
H70 H 0.65238 0.70446 0.50723 0.0
H71 H 0.66129 0.62458 0.56163 0.0
H72 H 0.64338 0.60511 0.5134 0.0
H73 H 0.70213 0.75785 0.616 0.0
H74 H 0.74735 0.7051 0.57111 0.0
H75 H 0.63483 0.68492 0.4588 0.0
H76 H 0.73743 0.7922 0.6112 0.0
H77 H 0.78256 0.73921 0.56647 0.0
C78 C 0.82509 0.11789 0.14025 0.0
C79 C 0.85365 0.11546 0.14958 0.0
C80 C 0.81374 0.12966 0.10932 0.0
C81 C 0.83071 0.13902 0.08697 0.0
C82 C 0.85925 0.13615 0.09612 0.0
C83 C 0.87061 0.12462 0.12714 0.0
C84 C 0.81868 0.15235 0.05446 0.0
C85 C 0.79788 0.17209 0.05056 0.0
C86 C 0.78676 0.18544 0.02006 0.0
C87 C 0.79655 0.17851 0.99323 0.0
C88 C 0.81743 0.15888 0.99662 0.0
C89 C 0.82839 0.14593 0.02737 0.0
C90 C 0.82822 0.15247 0.96809 0.0
C91 C 0.81035 0.14986 0.93959 0.0
C92 C 0.85657 0.14959 0.96889 0.0
C93 C 0.86681 0.14464 0.94171 0.0
C94 C 0.84896 0.14239 0.91308 0.0
C95 C 0.76569 0.20727 0.01642 0.0
C96 C 0.74481 0.20492 0.03521 0.0
C97 C 0.76671 0.23097 0.99468 0.0
C98 C 0.74752 0.25188 0.99202 0.0
C99 C 0.7269 0.24972 0.01115 0.0
C100 C 0.72569 0.2259 0.03265 0.0
C101 C 0.82059 0.14484 0.91242 0.0
H102 H 0.81151 0.11121 0.15707 0.0
H103 H 0.79167 0.13142 0.10287 0.0
H104 H 0.87285 0.14335 0.0795 0.0
H105 H 0.89268 0.1228 0.13356 0.0
H106 H 0.79107 0.17777 0.07151 0.0
H107 H 0.84421 0.13049 0.03021 0.0
H108 H 0.78814 0.18868 0.96961 0.0
H109 H 0.78839 0.1517 0.93827 0.0
H110 H 0.87091 0.15171 0.99037 0.0
H111 H 0.88876 0.14255 0.94314 0.0
H112 H 0.74321 0.18685 0.05195 0.0
H113 H 0.78268 0.23364 0.98009 0.0
H114 H 0.80629 0.14344 0.8907 0.0
H115 H 0.71028 0.22362 0.04802 0.0
H116 H 0.74888 0.26976 0.9749 0.0
C117 C 0.34548 0.34562 0.34486 0.0
C118 C 0.37358 0.35013 0.34508 0.0
C119 C 0.33583 0.33533 0.37301 0.0
C120 C 0.35403 0.32955 0.40207 0.0
C121 C 0.38215 0.33381 0.40221 0.0
C122 C 0.39182 0.34388 0.37404 0.0
C123 C 0.3437 0.31986 0.43232 0.0
C124 C 0.32384 0.29963 0.43339 0.0
C125 C 0.3139 0.29061 0.46193 0.0
C126 C 0.32386 0.3024 0.4894 0.0
C127 C 0.34358 0.3227 0.48881 0.0
C128 C 0.35349 0.33118 0.4602 0.0
C129 C 0.35345 0.33521 0.51806 0.0
C130 C 0.33498 0.34154 0.53768 0.0
C131 C 0.38136 0.34068 0.5268 0.0
C132 C 0.39058 0.35203 0.5546 0.0
C133 C 0.37209 0.35824 0.57429 0.0
C134 C 0.29295 0.26911 0.46335 0.0
C135 C 0.27077 0.26864 0.43824 0.0
C136 C 0.29446 0.24941 0.49052 0.0
C137 C 0.27391 0.23034 0.49302 0.0
C138 C 0.25142 0.23029 0.4683 0.0
C139 C 0.25027 0.24939 0.44066 0.0
C140 C 0.34418 0.35286 0.56544 0.0
H141 H 0.33093 0.35002 0.32288 0.0
H142 H 0.31403 0.33244 0.37215 0.0
H143 H 0.39672 0.32934 0.42417 0.0
H144 H 0.41355 0.34732 0.37509 0.0
H145 H 0.31662 0.29046 0.41216 0.0
H146 H 0.36823 0.34727 0.45933 0.0
H147 H 0.31614 0.29581 0.5114 0.0
H148 H 0.31329 0.33791 0.53147 0.0
H149 H 0.39617 0.33586 0.51236 0.0
H150 H 0.41218 0.35618 0.56051 0.0
H151 H 0.2688 0.28365 0.4171 0.0
H152 H 0.31156 0.24873 0.51 0.0
H153 H 0.3294 0.35709 0.58018 0.0
H154 H 0.23309 0.24998 0.42129 0.0
H155 H 0.27567 0.21555 0.51435 0.0
Tb156 Tb 0.02499 0.97478 0.50627 0.0
C157 C 0.93989 0.06433 0.49203 0.0
N158 N 0.96665 0.06445 0.5056 0.0
C159 C 0.97204 0.10752 0.47482 0.0
C160 C 0.92834 0.08532 0.4682 0.0
C161 C 0.98262 0.08606 0.49818 0.0
C162 C 0.94488 0.10698 0.45944 0.0
C163 C 0.89597 0.04262 0.48997 0.0
C164 C 0.92408 0.04323 0.50266 0.0
C165 C 0.8845 0.06284 0.4652 0.0
C166 C 0.90066 0.08419 0.45438 0.0
Tb167 Tb 0.98224 0.0281 0.54267 0.0
N168 N 0.93589 0.02432 0.52691 0.0
C169 C 0.88006 0.02232 0.50341 0.0
C170 C 0.91986 0.00614 0.54204 0.0
C171 C 0.89197 0.00434 0.53 0.0
H172 H 0.0037 0.08639 0.50975 0.0
H173 H 0.87959 0.98937 0.54157 0.0
H174 H 0.98692 0.91872 0.50937 0.0
H175 H 0.13157 0.9866 0.55315 0.0
H176 H 0.92835 0.99317 0.56372 0.0
H177 H 0.85839 0.0211 0.49436 0.0
H178 H 0.0876 0.99837 0.51681 0.0
H179 H 0.98489 0.12435 0.46855 0.0
H180 H 0.863 0.06256 0.4549 0.0
H181 H 0.89142 0.09999 0.4358 0.0
H182 H 0.98678 0.87587 0.54542 0.0
H183 H 0.93678 0.12353 0.44121 0.0
H184 H 0.13514 0.94574 0.59379 0.0
N185 N 0.02372 0.93254 0.53514 0.0
C186 C 0.04628 0.92502 0.55734 0.0
C187 C 0.00345 0.88974 0.54945 0.0
C188 C 0.04766 0.90022 0.57779 0.0
C189 C 0.0033 0.91443 0.52947 0.0
C190 C 0.02545 0.88285 0.57421 0.0
N191 N 0.06671 0.96487 0.53738 0.0
C192 C 0.08914 0.98048 0.53444 0.0
C193 C 0.09325 0.93403 0.57933 0.0
C194 C 0.06879 0.9415 0.55804 0.0
C195 C 0.11593 0.95075 0.57783 0.0
C196 C 0.11399 0.97385 0.55493 0.0
H197 H 0.02566 0.86359 0.58944 0.0
H198 H 0.07282 0.87437 0.61648 0.0
H199 H 0.11275 0.90411 0.61793 0.0
O200 O 0.04161 0.9861 0.46429 0.0
O201 O 0.03977 0.98906 0.55217 0.0
O202 O 1.00122 0.99258 0.57394 0.0
O203 O 0.03469 0.94454 0.48024 0.0
O204 O 0.03694 0.01725 0.49718 0.0
O205 O 0.02438 0.03974 0.53711 0.0
O206 O 0.95972 0.04307 0.5743 0.0
O207 O 0.98556 0.03296 0.49163 0.0
O208 O 0.98532 0.98995 0.47945 0.0
O209 O 0.00264 0.05079 0.57689 0.0
O210 O 0.97317 0.98478 0.55248 0.0
O211 O 0.98146 0.96625 0.5084 0.0
C212 C 0.02705 0.98562 0.57683 0.0
C213 C 0.02883 0.95828 0.42479 0.0
C214 C 0.03319 0.95097 0.37067 0.0
C215 C 0.00447 0.95272 0.36223 0.0
C216 C 1.00025 0.95959 0.41598 0.0
C217 C 0.98818 0.957 0.38478 0.0
C218 C 0.04522 0.95391 0.40215 0.0
C219 C 0.03939 0.03716 0.51476 0.0
C220 C 0.04169 0.96166 0.45741 0.0
C221 C 0.0715 0.89317 0.60025 0.0
C222 C 0.09428 0.91005 0.601 0.0
C223 C 0.97827 0.01554 0.4718 0.0
C224 C 0.97558 0.08272 0.59469 0.0
C225 C 0.95817 0.11174 0.62851 0.0
C226 C 0.96684 0.13446 0.60962 0.0
C227 C 0.98442 0.10561 0.57644 0.0
C228 C 0.96247 0.08591 0.62062 0.0
C229 C 0.97983 0.13135 0.58376 0.0
C230 C 0.96805 0.96695 0.53246 0.0
C231 C 0.98056 0.0552 0.58824 0.0
H232 H 0.99454 0.95023 0.33835 0.0
H233 H 0.9873 0.96247 0.43324 0.0
H234 H 0.96611 0.9581 0.37812 0.0
H235 H 0.06732 0.95305 0.40902 0.0
H236 H 0.96355 0.15464 0.6148 0.0
H237 H 0.99513 0.10366 0.55687 0.0
H238 H 0.95631 0.06814 0.63519 0.0
H239 H 0.9866 0.14894 0.56951 0.0
Tb240 Tb 0.47442 0.48369 0.99829 0.0
C241 C 0.59923 0.50801 0.0558 0.0
N242 N 0.58073 0.49121 0.06794 0.0
C243 C 0.61529 0.45652 0.08511 0.0
C244 C 0.62644 0.49945 0.05689 0.0
C245 C 0.5886 0.46616 0.08378 0.0
C246 C 0.63421 0.47309 0.07117 0.0
C247 C 0.61002 0.5532 0.03321 0.0
C248 C 0.59119 0.53442 0.04415 0.0
C249 C 0.63692 0.54456 0.03288 0.0
C250 C 0.64511 0.51771 0.04467 0.0
Tb251 Tb 0.53736 0.50826 0.06208 0.0
N252 N 0.56496 0.54186 0.04459 0.0
C253 C 0.60136 0.58015 0.02364 0.0
C254 C 0.5569 0.56843 0.03748 0.0
C255 C 0.57481 0.58786 0.02625 0.0
H256 H 0.57417 0.4536 0.09524 0.0
H257 H 0.56815 0.60875 0.01967 0.0
H258 H 0.42104 0.51748 0.01038 0.0
H259 H 0.50103 0.37664 0.02229 0.0
H260 H 0.53639 0.57438 0.03951 0.0
H261 H 0.61519 0.59524 0.01501 0.0
H262 H 0.50369 0.42311 0.99601 0.0
H263 H 0.6213 0.4364 0.09705 0.0
H264 H 0.65168 0.55861 0.02424 0.0
H265 H 0.66608 0.51148 0.045 0.0
H266 H 0.38073 0.50804 0.0373 0.0
H267 H 0.65492 0.46565 0.07243 0.0
H268 H 0.46576 0.3645 0.05626 0.0
N269 N 0.43664 0.47718 0.02221 0.0
C270 C 0.43278 0.45158 0.03592 0.0
C271 C 0.39525 0.49201 0.03715 0.0
C272 C 0.41036 0.44536 0.05192 0.0
C273 C 0.41801 0.49729 0.02191 0.0
C274 C 0.39151 0.46597 0.05242 0.0
N275 N 0.47322 0.43873 0.01882 0.0
C276 C 0.48955 0.41886 0.01258 0.0
C277 C 0.44885 0.4051 0.04912 0.0
C278 C 0.45198 0.43185 0.03475 0.0
C279 C 0.46744 0.38528 0.04561 0.0
C280 C 0.4875 0.3921 0.02666 0.0
H281 H 0.37402 0.46201 0.06451 0.0
H282 H 0.39083 0.41381 0.07996 0.0
H283 H 0.4244 0.37851 0.0773 0.0
O284 O 0.46249 0.46283 0.95875 0.0
O285 O 0.47281 0.489 0.04827 0.0
O286 O 0.51401 0.47256 0.07477 0.0
O287 O 0.44156 0.49902 0.96288 0.0
O288 O 0.51594 0.46893 0.9975 0.0
O289 O 0.53381 0.4672 0.05037 0.0
O290 O 0.52015 0.52511 0.09674 0.0
O291 O 0.53873 0.52435 0.01214 0.0
O292 O 0.50367 0.50913 0.97504 0.0
O293 O 0.5621 0.51125 0.10628 0.0
O294 O 0.50158 0.53561 0.04676 0.0
O295 O 0.47282 0.52693 0.99992 0.0
C296 C 0.48751 0.47463 0.07314 0.0
C297 C 0.44747 0.49237 0.91102 0.0
C298 C 0.44717 0.48569 0.85551 0.0
C299 C 0.45423 0.51289 0.84838 0.0
C300 C 0.45408 0.51958 0.90308 0.0
C301 C 0.45759 0.52967 0.87202 0.0
C302 C 0.4438 0.47554 0.88703 0.0
C303 C 0.53555 0.46155 0.02184 0.0
C304 C 0.44483 0.48144 0.94426 0.0
C305 C 0.40772 0.41895 0.06719 0.0
C306 C 0.42693 0.39888 0.06581 0.0
C307 C 0.52598 0.52302 0.98289 0.0
C308 C 0.53904 0.50898 0.15026 0.0
C309 C 0.54203 0.51294 0.20683 0.0
C310 C 0.53258 0.48638 0.21223 0.0
C311 C 0.53064 0.48223 0.1563 0.0
C312 C 0.54491 0.5242 0.17556 0.0
C313 C 0.52704 0.47112 0.18708 0.0
C314 C 0.48135 0.54199 0.02245 0.0
C315 C 0.54239 0.52118 0.11792 0.0
H316 H 0.45663 0.52137 0.82432 0.0
H317 H 0.45654 0.5331 0.92091 0.0
H318 H 0.4628 0.55063 0.86621 0.0
H319 H 0.43866 0.45454 0.89298 0.0
H320 H 0.53027 0.47714 0.23605 0.0
H321 H 0.52719 0.46995 0.13732 0.0
H322 H 0.55179 0.54478 0.17091 0.0
H323 H 0.52032 0.45051 0.19154 0.0
H324 H 0.22659 0.21646 0.52052 0.0
H325 H 0.19001 0.18394 0.52675 0.0
H326 H 0.18861 0.16768 0.43039 0.0
H327 H 0.22539 0.20012 0.42399 0.0
H328 H 0.13516 0.18459 0.48383 0.0
H329 H 0.19902 0.09208 0.49084 0.0
H330 H 0.21371 0.12393 0.49937 0.0
H331 H 0.20155 0.11899 0.45883 0.0
C332 C 0.21864 0.20582 0.50072 0.0
C333 C 0.22899 0.21074 0.47181 0.0
C334 C 0.19765 0.18739 0.50427 0.0
C335 C 0.18681 0.1733 0.47913 0.0
C336 C 0.1969 0.17823 0.45015 0.0
H337 H 0.06889 0.04434 0.46558 0.0
H338 H 0.10353 0.07814 0.45627 0.0
C339 C 0.21776 0.19686 0.44647 0.0
C340 C 0.16483 0.15352 0.48329 0.0
H341 H 0.15198 0.08601 0.49207 0.0
C342 C 0.13876 0.16302 0.48563 0.0
C343 C 0.16965 0.12547 0.48548 0.0
C344 C 0.19751 0.11432 0.48372 0.0
C345 C 0.11719 0.14516 0.48977 0.0
C346 C 0.1221 0.117 0.49254 0.0
C347 C 0.14821 0.10757 0.49001 0.0
C348 C 0.1005 0.09691 0.49807 0.0
C349 C 0.08923 0.15671 0.49038 0.0
C350 C 0.08738 0.09601 0.52485 0.0
C351 C 0.06736 0.07681 0.53014 0.0
C352 C 0.06034 0.05782 0.50901 0.0
C353 C 0.07375 0.0586 0.4824 0.0
C354 C 0.0936 0.07794 0.47701 0.0
H355 H 0.08693 0.17799 0.47849 0.0
H356 H 0.07275 0.14468 0.47844 0.0
H357 H 0.08641 0.15644 0.51557 0.0
H358 H 0.09286 0.10996 0.54192 0.0
H359 H 0.05765 0.07667 0.55103 0.0
H360 H 0.32705 0.72888 0.08181 0.0
H361 H 0.36271 0.69564 0.08027 0.0
H362 H 0.33641 0.69853 0.97876 0.0
H363 H 0.3016 0.7325 0.9798 0.0
H364 H 0.35686 0.64534 0.06225 0.0
H365 H 0.41816 0.70864 0.98402 0.0
H366 H 0.39237 0.72272 1.00249 0.0
H367 H 0.38268 0.70759 0.96669 0.0
C368 C 0.32913 0.72275 0.05908 0.0
C369 C 0.31146 0.73343 0.03093 0.0
C370 C 0.34941 0.70364 0.05827 0.0
C371 C 0.35253 0.69494 0.02931 0.0
C372 C 0.33479 0.70537 1.00126 0.0
H373 H 0.44177 0.56643 0.97458 0.0
H374 H 0.41189 0.60466 0.97668 0.0
C375 C 0.3146 0.72451 1.002 0.0
C376 C 0.37357 0.67417 0.02857 0.0
H377 H 0.42788 0.66118 0.99272 0.0
C378 C 0.37255 0.6489 0.04731 0.0
C379 C 0.39404 0.67885 0.00902 0.0
C380 C 0.39711 0.706 0.98966 0.0
C381 C 0.39101 0.62797 0.04639 0.0
C382 C 0.41109 0.63253 0.02641 0.0
C383 C 0.41234 0.65781 0.00791 0.0
C384 C 0.4307 0.61099 0.02424 0.0
C385 C 0.38859 0.60088 0.0662 0.0
C386 C 0.45158 0.60246 0.04998 0.0
C387 C 0.46881 0.58074 0.04886 0.0
C388 C 0.46534 0.56704 0.02199 0.0
C389 C 0.44497 0.57637 0.99573 0.0
C390 C 0.42787 0.59822 0.99683 0.0
H391 H 0.36939 0.59937 0.07654 0.0
H392 H 0.38921 0.58439 0.05149 0.0
H393 H 0.4062 0.59772 0.08612 0.0
H394 H 0.45416 0.61228 0.07123 0.0
H395 H 0.48424 0.5742 0.06953 0.0
H396 H 0.75414 0.82171 0.56416 0.0
H397 H 0.78864 0.85568 0.55375 0.0
H398 H 0.85283 0.79669 0.59346 0.0
H399 H 0.81839 0.76251 0.60296 0.0
H400 H 0.82803 0.87744 0.59088 0.0
H401 H 0.87555 0.82315 0.50937 0.0
H402 H 0.84392 0.8126 0.52259 0.0
H403 H 0.8763 0.80332 0.54777 0.0
C404 C 0.77563 0.81606 0.57078 0.0
C405 C 0.7836 0.78942 0.58413 0.0
C406 C 0.79533 0.83545 0.56474 0.0
C407 C 0.82338 0.82862 0.5721 0.0
C408 C 0.83135 0.80226 0.58656 0.0
H409 H 0.95512 0.94407 0.58944 0.0
H410 H 0.91985 0.91075 0.59859 0.0
C411 C 0.81167 0.78278 0.59219 0.0
C412 C 0.84424 0.84915 0.56496 0.0
H413 H 0.89999 0.86074 0.5277 0.0
C414 C 0.84366 0.87383 0.57691 0.0
C415 C 0.86436 0.84474 0.54617 0.0
C416 C 0.86493 0.81964 0.53045 0.0
C417 C 0.86292 0.89392 0.5712 0.0
C418 C 0.88392 0.8889 0.55388 0.0
C419 C 0.88415 0.86447 0.54135 0.0
C420 C 0.90576 0.90872 0.54838 0.0
C421 C 0.86017 0.92054 0.58323 0.0
C422 C 0.91043 0.91787 0.5172 0.0
C423 C 0.93094 0.93655 0.51198 0.0
C424 C 0.94702 0.94651 0.53786 0.0
C425 C 0.94269 0.93702 0.56905 0.0
C426 C 0.92243 0.91811 0.57428 0.0
H427 H 0.83885 0.92428 0.58671 0.0
H428 H 0.87367 0.92017 0.6067 0.0
H429 H 0.86623 0.93764 0.56644 0.0
H430 H 0.89798 0.91078 0.49685 0.0
H431 H 0.9339 0.94358 0.48771 0.0
H432 H 0.67192 0.24702 0.01408 0.0
H433 H 0.64007 0.28437 0.01295 0.0
H434 H 0.70479 0.34122 1.00162 0.0
H435 H 0.73709 0.30397 0.00422 0.0
H436 H 0.6762 0.3522 0.04675 0.0
H437 H 0.60426 0.33717 0.93729 0.0
H438 H 0.60895 0.30747 0.96659 0.0
H439 H 0.63739 0.32052 0.94821 0.0
C440 C 0.67945 0.26745 0.01149 0.0
C441 C 0.70711 0.27244 0.00917 0.0
C442 C 0.66109 0.28882 0.01039 0.0
C443 C 0.66991 0.31564 0.00659 0.0
C444 C 0.69747 0.3207 0.00426 0.0
H445 H 0.56119 0.45819 0.97096 0.0
H446 H 0.59482 0.42369 0.96606 0.0
C447 C 0.71587 0.29936 0.00551 0.0
C448 C 0.65076 0.33834 0.00658 0.0
H449 H 0.58915 0.36713 0.96994 0.0
C450 C 0.65727 0.35558 0.0298 0.0
C451 C 0.62625 0.343 0.98415 0.0
C452 C 0.61889 0.32624 0.95744 0.0
C453 C 0.63958 0.37684 0.03179 0.0
C454 C 0.61447 0.38064 0.01039 0.0
C455 C 0.6083 0.36396 0.98654 0.0
C456 C 0.59404 0.40136 0.01301 0.0
C457 C 0.64799 0.3952 0.05665 0.0
C458 C 0.58212 0.39986 0.04068 0.0
C459 C 0.56303 0.41941 0.04346 0.0
C460 C 0.55556 0.44085 0.01862 0.0
C461 C 0.56688 0.44197 0.99053 0.0
C462 C 0.58604 0.42235 0.98775 0.0
H463 H 0.67044 0.39412 0.06531 0.0
H464 H 0.64199 0.41648 0.04694 0.0
H465 H 0.63755 0.38899 0.07746 0.0
H466 H 0.58745 0.38343 0.06009 0.0
H467 H 0.5539 0.4176 0.06493 0.0
H468 H 0.18711 0.85921 0.19293 0.0
H469 H 0.16421 0.87302 0.23472 0.0
H470 H 0.11502 0.93101 0.16457 0.0
H471 H 0.13712 0.91681 0.12256 0.0
H472 H 0.15969 0.92457 0.25428 0.0
H473 H 0.05815 0.88539 0.20708 0.0
H474 H 0.08932 0.87613 0.1943 0.0
H475 H 0.07282 0.90821 0.17843 0.0
C476 C 0.17131 0.87479 0.18636 0.0
C477 C 0.16384 0.88677 0.15434 0.0
C478 C 0.15838 0.88278 0.2103 0.0
C479 C 0.13764 0.90274 0.20264 0.0
C480 C 0.13067 0.91525 0.1709 0.0
H481 H 0.02737 0.97269 0.30752 0.0
H482 H 0.05402 0.96184 0.26759 0.0
C483 C 0.14356 0.90731 0.14697 0.0
C484 C 0.12301 0.91026 0.22774 0.0
H485 H 0.05975 0.91138 0.24941 0.0
C486 C 0.13786 0.92161 0.25333 0.0
C487 C 0.09455 0.90633 0.22642 0.0
C488 C 0.07776 0.89313 0.20026 0.0
C489 C 0.12485 0.92969 0.27733 0.0
C490 C 0.09635 0.92587 0.27591 0.0
C491 C 0.08157 0.91441 0.25037 0.0
C492 C 0.08135 0.93344 0.30068 0.0
C493 C 0.1416 0.9428 0.30357 0.0
C494 C 0.08784 0.92104 0.33254 0.0
C495 C 0.07258 0.92713 0.35541 0.0
C496 C 0.05038 0.94559 0.34679 0.0
C497 C 0.04413 0.95816 0.31488 0.0
C498 C 0.05941 0.95208 0.29207 0.0
H499 H 0.16118 0.95063 0.29677 0.0
H500 H 0.12998 0.9597 0.30968 0.0
H501 H 0.14659 0.92763 0.32531 0.0
H502 H 0.10428 0.90613 0.33958 0.0
H503 H 0.07766 0.91677 0.37964 0.0
H504 H 0.65266 0.66165 0.7721 0.0
H505 H 0.63435 0.64196 0.81987 0.0
H506 H 0.58375 0.58938 0.76429 0.0
H507 H 0.60171 0.60899 0.71654 0.0
H508 H 0.58002 0.63871 0.83193 0.0
H509 H 0.62602 0.53691 0.83827 0.0
H510 H 0.63659 0.56624 0.81384 0.0
H511 H 0.60579 0.5491 0.80019 0.0
C512 C 0.63748 0.64604 0.77 0.0
C513 C 0.62889 0.6367 0.74053 0.0
C514 C 0.62712 0.63474 0.79734 0.0
C515 C 0.60808 0.61385 0.79576 0.0
C516 C 0.59893 0.60501 0.76624 0.0
H517 H 0.49988 0.55175 0.92741 0.0
H518 H 0.52047 0.5746 0.88286 0.0
C519 C 0.60926 0.61624 0.73896 0.0
C520 C 0.59764 0.60126 0.82486 0.0
H521 H 0.59285 0.54083 0.87179 0.0
C522 C 0.58294 0.61735 0.84078 0.0
C523 C 0.60181 0.57345 0.83664 0.0
C524 C 0.61863 0.55543 0.82157 0.0
C525 C 0.57162 0.60619 0.86763 0.0
C526 C 0.57482 0.57817 0.87856 0.0
C527 C 0.59018 0.56226 0.86319 0.0
C528 C 0.56227 0.56486 0.90577 0.0
C529 C 0.55653 0.62452 0.88423 0.0
C530 C 0.57882 0.5513 0.93314 0.0
C531 C 0.567 0.53789 0.95831 0.0
C532 C 0.5384 0.53768 0.95651 0.0
C533 C 0.52188 0.55124 0.92915 0.0
C534 C 0.53368 0.56465 0.90394 0.0
H535 H 0.56202 0.646 0.87837 0.0
H536 H 0.53416 0.62279 0.87634 0.0
H537 H 0.56097 0.6187 0.91058 0.0
H538 H 0.60091 0.55099 0.93495 0.0
H539 H 0.58019 0.52712 0.97882 0.0
H540 H 0.8962 0.13499 0.18865 0.0
H541 H 0.91573 0.11639 0.24372 0.0
H542 H 0.85786 0.05169 0.24087 0.0
H543 H 0.83822 0.0701 0.18567 0.0
H544 H 0.88195 0.10376 0.29826 0.0
H545 H 0.93882 0.01671 0.27053 0.0
H546 H 0.92993 0.04668 0.24177 0.0
H547 H 0.90397 0.02303 0.25067 0.0
C548 C 0.88779 0.11666 0.19964 0.0
C549 C 0.86573 0.10395 0.18281 0.0
C550 C 0.89886 0.10617 0.23112 0.0
C551 C 0.8883 0.08264 0.24618 0.0
C552 C 0.86635 0.06981 0.22951 0.0
H553 H 0.94267 0.98783 0.43313 0.0
H554 H 0.91928 0.00389 0.3787 0.0
C555 C 0.85509 0.08042 0.1981 0.0
C556 C 0.90004 0.07178 0.27955 0.0
H557 H 0.94103 0.02125 0.32481 0.0
C558 C 0.89485 0.08572 0.30416 0.0
C559 C 0.91659 0.04811 0.28702 0.0
C560 C 0.92289 0.03269 0.26122 0.0
C561 C 0.90583 0.07657 0.33623 0.0
C562 C 0.92307 0.05329 0.34368 0.0
C563 C 0.92789 0.03913 0.31904 0.0
C564 C 0.93685 0.0437 0.37678 0.0
C565 C 0.89846 0.09159 0.36188 0.0
C566 C 0.95479 0.06059 0.39355 0.0
C567 C 0.96816 0.05144 0.42451 0.0
C568 C 0.96397 0.02519 0.43919 0.0
C569 C 0.9463 0.00815 0.42229 0.0
C570 C 0.93288 0.01732 0.3913 0.0
H571 H 0.8793 0.10377 0.35341 0.0
H572 H 0.89582 0.07741 0.38352 0.0
H573 H 0.91515 0.1056 0.36876 0.0
H574 H 0.95879 0.08074 0.38252 0.0
H575 H 0.9822 0.06474 0.4367 0.0
H576 H 0.34735 0.39831 0.59744 0.0
H577 H 0.36268 0.41743 0.6466 0.0
H578 H 0.43433 0.36534 0.6671 0.0
H579 H 0.41864 0.34535 0.61843 0.0
H580 H 0.40894 0.36692 0.72004 0.0
H581 H 0.42496 0.47034 0.6609 0.0
H582 H 0.39123 0.45807 0.64893 0.0
H583 H 0.42043 0.44169 0.63938 0.0
C584 C 0.36628 0.39074 0.61248 0.0
C585 C 0.38178 0.3703 0.60391 0.0
C586 C 0.37517 0.40192 0.64041 0.0
C587 C 0.39986 0.39311 0.66025 0.0
C588 C 0.4153 0.37257 0.65199 0.0
H589 H 0.47897 0.48179 0.80994 0.0
H590 H 0.46931 0.45706 0.76416 0.0
C591 C 0.40641 0.36133 0.62404 0.0
C592 C 0.40931 0.40513 0.68983 0.0
H593 H 0.42543 0.46506 0.71708 0.0
C594 C 0.41273 0.38835 0.71943 0.0
C595 C 0.41465 0.43301 0.68895 0.0
C596 C 0.41291 0.4518 0.65783 0.0
C597 C 0.42063 0.39885 0.74826 0.0
C598 C 0.42476 0.42694 0.74742 0.0
C599 C 0.42202 0.44357 0.71775 0.0
C600 C 0.43178 0.43972 0.77691 0.0
C601 C 0.42477 0.37973 0.77927 0.0
C602 C 0.41406 0.43798 0.79952 0.0
C603 C 0.41959 0.45206 0.8258 0.0
C604 C 0.44277 0.46842 0.82969 0.0
C605 C 0.4608 0.46959 0.80741 0.0
C606 C 0.45534 0.45541 0.78129 0.0
H607 H 0.42869 0.35871 0.7754 0.0
H608 H 0.44214 0.38599 0.79645 0.0
H609 H 0.40595 0.37977 0.79019 0.0
H610 H 0.39544 0.4265 0.79629 0.0
H611 H 0.40514 0.45105 0.84232 0.0
H612 H 0.65828 0.59968 0.46196 0.0
H613 H 0.64076 0.57952 0.41401 0.0
H614 H 0.57576 0.63956 0.38869 0.0
H615 H 0.59347 0.66008 0.43642 0.0
H616 H 0.59209 0.55702 0.3973 0.0
H617 H 0.60563 0.64413 0.306 0.0
H618 H 0.62071 0.6427 0.34752 0.0
H619 H 0.58517 0.65201 0.33446 0.0
C620 C 0.64026 0.60859 0.44617 0.0
C621 C 0.62729 0.63151 0.45292 0.0
C622 C 0.63031 0.5971 0.41873 0.0
C623 C 0.60717 0.60824 0.39748 0.0
C624 C 0.59404 0.63101 0.40427 0.0
H625 H 0.5139 0.51852 0.2555 0.0
H626 H 0.52831 0.54248 0.30138 0.0
C627 C 0.60413 0.64267 0.4316 0.0
C628 C 0.59641 0.59538 0.36884 0.0
H629 H 0.58086 0.60709 0.28735 0.0
C630 C 0.58967 0.56796 0.37325 0.0
C631 C 0.59354 0.6096 0.33744 0.0
C632 C 0.60189 0.63866 0.33095 0.0
C633 C 0.58014 0.55434 0.3472 0.0
C634 C 0.57653 0.56873 0.31584 0.0
C635 C 0.58333 0.59616 0.31141 0.0
C636 C 0.56688 0.55542 0.28725 0.0
C637 C 0.57485 0.52448 0.35354 0.0
C638 C 0.58323 0.55564 0.2634 0.0
C639 C 0.57487 0.5423 0.23699 0.0
C640 C 0.55001 0.5284 0.23395 0.0
C641 C 0.53335 0.52871 0.25748 0.0
C642 C 0.54161 0.54231 0.28374 0.0
H643 H 0.58562 0.51521 0.37741 0.0
H644 H 0.55257 0.52137 0.35296 0.0
H645 H 0.5815 0.5137 0.3351 0.0
H646 H 0.60277 0.56567 0.26554 0.0
H647 H 0.58824 0.54223 0.21939 0.0
H648 H 0.82951 0.10889 0.86931 0.0
H649 H 0.84748 0.10239 0.82093 0.0
H650 H 0.91085 0.15976 0.84221 0.0
H651 H 0.89303 0.16644 0.89046 0.0
H652 H 0.85364 0.14012 0.76843 0.0
H653 H 0.95418 0.09478 0.82804 0.0
H654 H 0.9261 0.09802 0.84935 0.0
H655 H 0.94707 0.12658 0.84006 0.0
C656 C 0.84724 0.12017 0.86364 0.0
C657 C 0.85995 0.13806 0.88387 0.0
C658 C 0.85753 0.11635 0.83606 0.0
C659 C 0.88078 0.13024 0.82826 0.0
C660 C 0.89332 0.14832 0.84819 0.0
H661 H 0.97374 0.14528 0.67321 0.0
H662 H 0.95364 0.14965 0.72071 0.0
C663 C 0.88309 0.15211 0.87578 0.0
C664 C 0.89151 0.12644 0.79882 0.0
H665 H 0.94889 0.10824 0.77178 0.0
C666 C 0.87439 0.13294 0.76914 0.0
C667 C 0.91858 0.11705 0.79983 0.0
C668 C 0.93749 0.10845 0.83103 0.0
C669 C 0.88387 0.13104 0.74038 0.0
C670 C 0.91107 0.12206 0.7414 0.0
C671 C 0.92808 0.11525 0.77108 0.0
C672 C 0.92247 0.11987 0.71195 0.0
C673 C 0.86498 0.13937 0.70911 0.0
C674 C 0.91165 0.1016 0.69134 0.0
C675 C 0.92301 0.09914 0.66406 0.0
C676 C 0.94547 0.11487 0.65695 0.0
C677 C 0.9562 0.13318 0.67769 0.0
C678 C 0.94487 0.13556 0.70497 0.0
H679 H 0.84718 0.15157 0.71218 0.0
H680 H 0.87608 0.15125 0.69147 0.0
H681 H 0.85703 0.12103 0.69912 0.0
H682 H 0.89463 0.08899 0.69655 0.0
H683 H 0.91416 0.08498 0.64849 0.0
H684 H 0.35169 0.39251 0.3007 0.0
H685 H 0.36946 0.4128 0.25284 0.0
H686 H 0.43659 0.35514 0.27485 0.0
H687 H 0.41883 0.33455 0.32258 0.0
H688 H 0.42446 0.43485 0.25241 0.0
H689 H 0.40301 0.35155 0.17913 0.0
H690 H 0.38572 0.35493 0.21237 0.0
H691 H 0.42025 0.34199 0.21952 0.0
C692 C 0.37003 0.38391 0.29512 0.0
C693 C 0.38382 0.36187 0.31541 0.0
C694 C 0.38022 0.39562 0.26788 0.0
C695 C 0.40418 0.38531 0.26016 0.0
C696 C 0.41789 0.3632 0.28018 0.0
H697 H 0.50237 0.42709 0.11123 0.0
H698 H 0.48157 0.40584 0.15647 0.0
C699 C 0.40784 0.3516 0.30757 0.0
C700 C 0.41543 0.39834 0.23187 0.0
H701 H 0.42923 0.38775 0.15904 0.0
C702 C 0.42539 0.42465 0.2319 0.0
C703 C 0.41673 0.38488 0.20528 0.0
C704 C 0.4057 0.35684 0.20376 0.0
C705 C 0.43718 0.4377 0.20631 0.0
C706 C 0.43837 0.4243 0.17958 0.0
C707 C 0.42827 0.39801 0.17951 0.0
C708 C 0.45048 0.43703 0.15174 0.0
C709 C 0.44897 0.4654 0.20856 0.0
C710 C 0.43965 0.46139 0.13373 0.0
C711 C 0.45167 0.47365 0.10812 0.0
C712 C 0.47453 0.46161 0.09989 0.0
C713 C 0.48494 0.43692 0.1174 0.0
C714 C 0.47299 0.42472 0.14307 0.0
H715 H 0.4533 0.46954 0.23368 0.0
H716 H 0.46819 0.46768 0.19837 0.0
H717 H 0.43397 0.48087 0.19482 0.0
H718 H 0.4219 0.47094 0.1395 0.0
H719 H 0.44322 0.49264 0.0949 0.0
H720 H 0.15494 0.8578 0.84172 0.0
H721 H 0.13322 0.87548 0.78768 0.0
H722 H 0.1218 0.95295 0.8172 0.0
H723 H 0.14118 0.93477 0.87203 0.0
H724 H 0.07788 0.94117 0.78175 0.0
H725 H 0.16339 0.92171 0.71951 0.0
H726 H 0.15296 0.8911 0.74101 0.0
H727 H 0.16724 0.91779 0.76249 0.0
C728 C 0.14752 0.87851 0.83698 0.0
C729 C 0.14987 0.89475 0.86157 0.0
C730 C 0.13558 0.88878 0.80575 0.0
C731 C 0.12645 0.91578 0.79805 0.0
C732 C 0.12891 0.93212 0.82242 0.0
H733 H 0.07955 0.99588 0.60207 0.0
H734 H 0.10391 0.97916 0.65583 0.0
C735 C 0.14032 0.92171 0.85381 0.0
C736 C 0.113 0.92659 0.76505 0.0
H737 H 0.11964 0.93155 0.68635 0.0
C738 C 0.08718 0.93928 0.76094 0.0
C739 C 0.12523 0.92457 0.73781 0.0
C740 C 0.15386 0.91332 0.74045 0.0
C741 C 0.0731 0.94959 0.7305 0.0
C742 C 0.08459 0.94609 0.70317 0.0
C743 C 0.11061 0.93384 0.70725 0.0
C744 C 0.07014 0.95541 0.67022 0.0
C745 C 0.04638 0.96471 0.72814 0.0
C746 C 0.04332 0.94714 0.66011 0.0
C747 C 0.02926 0.95711 0.62972 0.0
C748 C 0.0421 0.97483 0.60858 0.0
C749 C 0.06927 0.98224 0.61808 0.0
C750 C 0.08316 0.97268 0.64872 0.0
H751 H 0.04513 0.97313 0.75051 0.0
H752 H 0.04368 0.98155 0.70796 0.0
H753 H 0.02914 0.95061 0.7243 0.0
H754 H 0.03318 0.93306 0.67578 0.0
H755 H 0.00847 0.95074 0.62259 0.0
loop_
_geom_bond_atom_site_label_1
_geom_bond_atom_site_label_2
_geom_bond_distance
_geom_bond_site_symmetry_2
_ccdc_geom_bond_type
C0 C1 1.386 . S
C0 C2 1.397 . S
C0 H24 0.931 . S
C1 C0 1.386 . S
C1 C5 1.397 . S
C2 C0 1.397 . S
C2 C3 1.384 . S
C2 H25 0.930 . S
C3 C2 1.384 . S
C3 C4 1.377 . S
C3 C6 1.481 . S
C4 C3 1.377 . S
C4 C5 1.389 . S
C4 H26 0.929 . S
C5 C1 1.397 . S
C5 C4 1.389 . S
C5 H27 0.931 . S
C6 C3 1.481 . S
C6 C7 1.387 . S
C6 C11 1.390 1_556 S
C7 C6 1.387 . S
C7 C8 1.401 1_556 S
C7 H28 0.930 . S
C8 C7 1.401 1_554 S
C8 C9 1.376 . S
C8 C17 1.511 . S
C9 C8 1.376 . S
C9 C10 1.392 . S
C9 H30 0.931 . S
C10 C9 1.392 . S
C10 C11 1.361 . S
C10 C12 1.500 . S
C11 C6 1.390 1_554 S
C11 C10 1.361 . S
C11 H29 0.931 . S
C12 C10 1.500 . S
C12 C13 1.371 . S
C12 C14 1.365 . S
C13 C12 1.371 . S
C13 C23 1.386 . S
C13 H31 0.931 . S
C14 C12 1.365 . S
C14 C15 1.409 . S
C14 H32 0.929 . S
C15 C14 1.409 . S
C15 C16 1.380 . S
C15 H33 0.930 . S
C16 C15 1.380 . S
C16 C23 1.357 . S
C17 C8 1.511 . S
C17 C18 1.341 . S
C17 C19 1.371 . S
C18 C17 1.341 . S
C18 C22 1.394 . S
C18 H34 0.930 1_554 S
C19 C17 1.371 . S
C19 C20 1.392 . S
C19 H35 0.931 . S
C20 C19 1.392 . S
C20 C21 1.331 . S
C20 H38 0.932 . S
C21 C20 1.331 . S
C21 C22 1.336 . S
C22 C18 1.394 . S
C22 C21 1.336 . S
C22 H37 0.929 1_554 S
C23 C13 1.386 . S
C23 C16 1.357 . S
C23 H36 0.928 . S
H24 C0 0.931 . S
H25 C2 0.930 . S
H26 C4 0.929 . S
H27 C5 0.931 . S
H28 C7 0.930 . S
H29 C11 0.931 . S
H30 C9 0.931 . S
H31 C13 0.931 . S
H32 C14 0.929 . S
H33 C15 0.930 . S
H34 C18 0.930 1_556 S
H35 C19 0.931 . S
H36 C23 0.928 . S
H37 C22 0.929 1_556 S
H38 C20 0.932 . S
C39 C40 1.386 . S
C39 C41 1.397 . S
C39 H63 0.931 . S
C40 C39 1.386 . S
C40 C44 1.397 . S
C41 C39 1.397 . S
C41 C42 1.384 . S
C41 H64 0.930 . S
C42 C41 1.384 . S
C42 C43 1.377 . S
C42 C45 1.481 . S
C43 C42 1.377 . S
C43 C44 1.389 . S
C43 H65 0.929 . S
C44 C40 1.397 . S
C44 C43 1.389 . S
C44 H66 0.931 . S
C45 C42 1.481 . S
C45 C46 1.387 . S
C45 C50 1.390 . S
C46 C45 1.387 . S
C46 C47 1.401 . S
C46 H67 0.930 . S
C47 C46 1.401 . S
C47 C48 1.376 . S
C47 C56 1.511 . S
C48 C47 1.376 . S
C48 C49 1.392 . S
C48 H69 0.931 . S
C49 C48 1.392 . S
C49 C50 1.361 . S
C49 C51 1.500 . S
C50 C45 1.390 . S
C50 C49 1.361 . S
C50 H68 0.931 . S
C51 C49 1.500 . S
C51 C52 1.371 . S
C51 C53 1.365 . S
C52 C51 1.371 . S
C52 C62 1.386 . S
C52 H70 0.931 . S
C53 C51 1.365 . S
C53 C54 1.409 . S
C53 H71 0.929 . S
C54 C53 1.409 . S
C54 C55 1.380 . S
C54 H72 0.930 . S
C55 C54 1.380 . S
C55 C62 1.357 . S
C56 C47 1.511 . S
C56 C57 1.341 . S
C56 C58 1.371 . S
C57 C56 1.341 . S
C57 C61 1.394 . S
C57 H73 0.930 . S
C58 C56 1.371 . S
C58 C59 1.392 . S
C58 H74 0.931 . S
C59 C58 1.392 . S
C59 C60 1.331 . S
C59 H77 0.932 . S
C60 C59 1.331 . S
C60 C61 1.336 . S
C61 C57 1.394 . S
C61 C60 1.336 . S
C61 H76 0.929 . S
C62 C52 1.386 . S
C62 C55 1.357 . S
C62 H75 0.928 . S
H63 C39 0.931 . S
H64 C41 0.930 . S
H65 C43 0.929 . S
H66 C44 0.931 . S
H67 C46 0.930 . S
H68 C50 0.931 . S
H69 C48 0.931 . S
H70 C52 0.931 . S
H71 C53 0.929 . S
H72 C54 0.930 . S
H73 C57 0.930 . S
H74 C58 0.931 . S
H75 C62 0.928 . S
H76 C61 0.929 . S
H77 C59 0.932 . S
C78 C79 1.386 . S
C78 C80 1.397 . S
C78 H102 0.931 . S
C79 C78 1.386 . S
C79 C83 1.397 . S
C80 C78 1.397 . S
C80 C81 1.384 . S
C80 H103 0.930 . S
C81 C80 1.384 . S
C81 C82 1.377 . S
C81 C84 1.481 . S
C82 C81 1.377 . S
C82 C83 1.389 . S
C82 H104 0.929 . S
C83 C79 1.397 . S
C83 C82 1.389 . S
C83 H105 0.931 . S
C84 C81 1.481 . S
C84 C85 1.387 . S
C84 C89 1.390 . S
C85 C84 1.387 . S
C85 C86 1.401 . S
C85 H106 0.930 . S
C86 C85 1.401 . S
C86 C87 1.376 1_554 S
C86 C95 1.511 . S
C87 C86 1.376 1_556 S
C87 C88 1.392 . S
C87 H108 0.931 . S
C88 C87 1.392 . S
C88 C89 1.361 1_556 S
C88 C90 1.500 . S
C89 C84 1.390 . S
C89 C88 1.361 1_554 S
C89 H107 0.931 . S
C90 C88 1.500 . S
C90 C91 1.371 . S
C90 C92 1.365 . S
C91 C90 1.371 . S
C91 C101 1.386 . S
C91 H109 0.931 . S
C92 C90 1.365 . S
C92 C93 1.409 . S
C92 H110 0.929 . S
C93 C92 1.409 . S
C93 C94 1.380 . S
C93 H111 0.930 . S
C94 C93 1.380 . S
C94 C101 1.357 . S
C95 C86 1.511 . S
C95 C96 1.341 . S
C95 C97 1.371 1_554 S
C96 C95 1.341 . S
C96 C100 1.394 . S
C96 H112 0.930 . S
C97 C95 1.371 1_556 S
C97 C98 1.392 . S
C97 H113 0.931 . S
C98 C97 1.392 . S
C98 C99 1.331 1_556 S
C98 H116 0.932 . S
C99 C98 1.331 1_554 S
C99 C100 1.336 . S
C100 C96 1.394 . S
C100 C99 1.336 . S
C100 H115 0.929 . S
C101 C91 1.386 . S
C101 C94 1.357 . S
C101 H114 0.928 . S
H102 C78 0.931 . S
H103 C80 0.930 . S
H104 C82 0.929 . S
H105 C83 0.931 . S
H106 C85 0.930 . S
H107 C89 0.931 . S
H108 C87 0.931 . S
H109 C91 0.931 . S
H110 C92 0.929 . S
H111 C93 0.930 . S
H112 C96 0.930 . S
H113 C97 0.931 . S
H114 C101 0.928 . S
H115 C100 0.929 . S
H116 C98 0.932 . S
C117 C118 1.386 . S
C117 C119 1.397 . S
C117 H141 0.931 . S
C118 C117 1.386 . S
C118 C122 1.397 . S
C119 C117 1.397 . S
C119 C120 1.384 . S
C119 H142 0.930 . S
C120 C119 1.384 . S
C120 C121 1.377 . S
C120 C123 1.481 . S
C121 C120 1.377 . S
C121 C122 1.389 . S
C121 H143 0.929 . S
C122 C118 1.397 . S
C122 C121 1.389 . S
C122 H144 0.931 . S
C123 C120 1.481 . S
C123 C124 1.387 . S
C123 C128 1.390 . S
C124 C123 1.387 . S
C124 C125 1.401 . S
C124 H145 0.930 . S
C125 C124 1.401 . S
C125 C126 1.376 . S
C125 C134 1.511 . S
C126 C125 1.376 . S
C126 C127 1.392 . S
C126 H147 0.931 . S
C127 C126 1.392 . S
C127 C128 1.361 . S
C127 C129 1.500 . S
C128 C123 1.390 . S
C128 C127 1.361 . S
C128 H146 0.931 . S
C129 C127 1.500 . S
C129 C130 1.371 . S
C129 C131 1.365 . S
C130 C129 1.371 . S
C130 C140 1.386 . S
C130 H148 0.931 . S
C131 C129 1.365 . S
C131 C132 1.409 . S
C131 H149 0.929 . S
C132 C131 1.409 . S
C132 C133 1.380 . S
C132 H150 0.930 . S
C133 C132 1.380 . S
C133 C140 1.357 . S
C134 C125 1.511 . S
C134 C135 1.341 . S
C134 C136 1.371 . S
C135 C134 1.341 . S
C135 C139 1.394 . S
C135 H151 0.930 . S
C136 C134 1.371 . S
C136 C137 1.392 . S
C136 H152 0.931 . S
C137 C136 1.392 . S
C137 C138 1.331 . S
C137 H155 0.932 . S
C138 C137 1.331 . S
C138 C139 1.336 . S
C139 C135 1.394 . S
C139 C138 1.336 . S
C139 H154 0.929 . S
C140 C130 1.386 . S
C140 C133 1.357 . S
C140 H153 0.928 . S
H141 C117 0.931 . S
H142 C119 0.930 . S
H143 C121 0.929 . S
H144 C122 0.931 . S
H145 C124 0.930 . S
H146 C128 0.931 . S
H147 C126 0.931 . S
H148 C130 0.931 . S
H149 C131 0.929 . S
H150 C132 0.930 . S
H151 C135 0.930 . S
H152 C136 0.931 . S
H153 C140 0.928 . S
H154 C139 0.929 . S
H155 C137 0.932 . S
Tb156 N185 2.617 . S
Tb156 N191 2.572 . S
Tb156 O200 2.465 . S
Tb156 O201 2.387 . S
Tb156 O203 2.428 . S
Tb156 O204 2.308 1_565 S
Tb156 O208 2.349 1_455 S
Tb156 O211 2.393 1_455 S
Tb156 C220 2.802 . S
C157 N158 1.379 . S
C157 C160 1.416 . S
C157 C164 1.424 . S
N158 C157 1.379 . S
N158 C161 1.334 1_655 S
N158 Tb167 2.617 . S
C159 C161 1.390 . S
C159 C162 1.329 1_455 S
C159 H179 0.940 . S
C160 C157 1.416 . S
C160 C162 1.416 . S
C160 C166 1.448 . S
C161 N158 1.334 1_455 S
C161 C159 1.390 . S
C161 H172 0.930 . S
C162 C159 1.329 1_655 S
C162 C160 1.416 . S
C162 H183 0.930 . S
C163 C164 1.413 . S
C163 C165 1.427 . S
C163 C169 1.416 . S
C164 C157 1.424 . S
C164 C163 1.413 . S
C164 N168 1.361 . S
C165 C163 1.427 . S
C165 C166 1.328 . S
C165 H180 0.929 . S
C166 C160 1.448 . S
C166 C165 1.328 . S
C166 H181 0.930 . S
Tb167 N158 2.617 . S
Tb167 N168 2.572 . S
Tb167 O202 2.349 1_655 S
Tb167 O205 2.393 1_655 S
Tb167 O206 2.465 . S
Tb167 O207 2.387 . S
Tb167 O209 2.428 . S
Tb167 O210 2.308 1_545 S
Tb167 C231 2.802 . S
N168 C164 1.361 . S
N168 Tb167 2.572 . S
N168 C170 1.340 . S
C169 C163 1.416 . S
C169 C171 1.332 . S
C169 H177 0.931 . S
C170 N168 1.340 . S
C170 C171 1.407 . S
C170 H176 0.930 . S
C171 C169 1.332 . S
C171 C170 1.407 . S
C171 H173 0.929 . S
H172 C161 0.930 . S
H173 C171 0.929 . S
H174 C189 0.930 1_655 S
H175 C196 0.929 . S
H176 C170 0.930 . S
H177 C169 0.931 . S
H178 C192 0.930 . S
H179 C159 0.940 . S
H180 C165 0.929 . S
H181 C166 0.930 . S
H182 C187 0.930 1_655 S
H183 C162 0.930 . S
H184 C195 0.931 . S
N185 Tb156 2.617 . S
N185 C186 1.379 . S
N185 C189 1.334 . S
C186 N185 1.379 . S
C186 C188 1.416 . S
C186 C194 1.424 . S
C187 H182 0.930 1_455 S
C187 C189 1.390 . S
C187 C190 1.339 . S
C188 C186 1.416 . S
C188 C190 1.416 . S
C188 C221 1.448 . S
C189 H174 0.930 1_455 S
C189 N185 1.334 . S
C189 C187 1.390 . S
C190 C187 1.339 . S
C190 C188 1.416 . S
C190 H197 0.930 . S
N191 Tb156 2.572 . S
N191 C192 1.340 . S
N191 C194 1.361 . S
C192 H178 0.930 . S
C192 N191 1.340 . S
C192 C196 1.407 . S
C193 C194 1.413 . S
C193 C195 1.416 . S
C193 C222 1.427 . S
C194 C186 1.424 . S
C194 N191 1.361 . S
C194 C193 1.413 . S
C195 H184 0.931 . S
C195 C193 1.416 . S
C195 C196 1.332 . S
C196 H175 0.929 . S
C196 C192 1.407 . S
C196 C195 1.332 . S
H197 C190 0.930 . S
H198 C221 0.930 . S
H199 C222 0.929 . S
O200 Tb156 2.465 . S
O200 C220 1.264 . S
O201 Tb156 2.387 . S
O201 C212 1.264 . S
O202 Tb167 2.349 1_455 S
O202 C212 1.243 1_545 S
O203 Tb156 2.428 . S
O203 C220 1.256 . S
O204 Tb156 2.308 1_545 S
O204 C219 1.266 . S
O205 Tb167 2.393 1_455 S
O205 C219 1.248 . S
O206 Tb167 2.465 . S
O206 C231 1.264 . S
O207 Tb167 2.387 . S
O207 C223 1.264 . S
O208 Tb156 2.349 1_655 S
O208 C223 1.243 1_565 S
O209 Tb167 2.428 . S
O209 C231 1.256 . S
O210 Tb167 2.308 1_565 S
O210 C230 1.266 . S
O211 Tb156 2.393 1_655 S
O211 C230 1.248 . S
C212 O201 1.264 . S
C212 O202 1.243 1_565 S
C213 C216 1.399 . S
C213 C218 1.383 . S
C213 C220 1.496 . S
C214 C215 1.399 . S
C214 C218 1.389 . S
C215 C214 1.399 . S
C215 C217 1.380 . S
C215 H232 0.929 . S
C216 C213 1.399 . S
C216 C217 1.392 . S
C216 H233 0.929 . S
C217 C215 1.380 . S
C217 C216 1.392 . S
C217 H234 0.929 . S
C218 C213 1.383 . S
C218 C214 1.389 . S
C218 H235 0.931 . S
C219 O204 1.266 . S
C219 O205 1.248 . S
C220 Tb156 2.802 . S
C220 O200 1.264 . S
C220 O203 1.256 . S
C220 C213 1.496 . S
C221 C188 1.448 . S
C221 H198 0.930 . S
C221 C222 1.328 . S
C222 C193 1.427 . S
C222 H199 0.929 . S
C222 C221 1.328 . S
C223 O207 1.264 . S
C223 O208 1.243 1_545 S
C224 C227 1.399 . S
C224 C228 1.383 . S
C224 C231 1.496 . S
C225 C226 1.399 . S
C225 C228 1.389 . S
C226 C225 1.399 . S
C226 C229 1.380 . S
C226 H236 0.929 . S
C227 C224 1.399 . S
C227 C229 1.392 . S
C227 H237 0.929 . S
C228 C224 1.383 . S
C228 C225 1.389 . S
C228 H238 0.931 . S
C229 C226 1.380 . S
C229 C227 1.392 . S
C229 H239 0.929 . S
C230 O210 1.266 . S
C230 O211 1.248 . S
C231 Tb167 2.802 . S
C231 O206 1.264 . S
C231 O209 1.256 . S
C231 C224 1.496 . S
H232 C215 0.929 . S
H233 C216 0.929 . S
H234 C217 0.929 . S
H235 C218 0.931 . S
H236 C226 0.929 . S
H237 C227 0.929 . S
H238 C228 0.931 . S
H239 C229 0.929 . S
Tb240 N269 2.617 . S
Tb240 N275 2.572 1_556 S
Tb240 O284 2.465 . S
Tb240 O285 2.387 1_556 S
Tb240 O287 2.428 . S
Tb240 O288 2.308 1_556 S
Tb240 O292 2.349 . S
Tb240 O295 2.393 . S
Tb240 C304 2.802 . S
C241 N242 1.379 . S
C241 C244 1.416 . S
C241 C248 1.424 . S
N242 C241 1.379 . S
N242 C245 1.334 . S
N242 Tb251 2.617 . S
C243 C245 1.390 . S
C243 C246 1.339 . S
C243 H263 0.930 . S
C244 C241 1.416 . S
C244 C246 1.416 . S
C244 C250 1.448 . S
C245 N242 1.334 . S
C245 C243 1.390 . S
C245 H256 0.930 . S
C246 C243 1.339 . S
C246 C244 1.416 . S
C246 H267 0.930 . S
C247 C248 1.413 . S
C247 C249 1.427 . S
C247 C253 1.416 . S
C248 C241 1.424 . S
C248 C247 1.413 . S
C248 N252 1.361 . S
C249 C247 1.427 . S
C249 C250 1.328 . S
C249 H264 0.929 . S
C250 C244 1.448 . S
C250 C249 1.328 . S
C250 H265 0.930 . S
Tb251 N242 2.617 . S
Tb251 N252 2.572 . S
Tb251 O286 2.349 . S
Tb251 O289 2.393 . S
Tb251 O290 2.465 . S
Tb251 O291 2.387 1_554 S
Tb251 O293 2.428 . S
Tb251 O294 2.308 . S
Tb251 C315 2.802 . S
N252 C248 1.361 . S
N252 Tb251 2.572 . S
N252 C254 1.340 . S
C253 C247 1.416 . S
C253 C255 1.332 . S
C253 H261 0.931 . S
C254 N252 1.340 . S
C254 C255 1.407 . S
C254 H260 0.930 . S
C255 C253 1.332 . S
C255 C254 1.407 . S
C255 H257 0.929 . S
H256 C245 0.930 . S
H257 C255 0.929 . S
H258 C273 0.930 . S
H259 C280 0.929 . S
H260 C254 0.930 . S
H261 C253 0.931 . S
H262 C276 0.930 . S
H263 C243 0.930 . S
H264 C249 0.929 . S
H265 C250 0.930 . S
H266 C271 0.930 . S
H267 C246 0.930 . S
H268 C279 0.931 . S
N269 Tb240 2.617 . S
N269 C270 1.379 1_556 S
N269 C273 1.334 . S
C270 N269 1.379 1_554 S
C270 C272 1.416 . S
C270 C278 1.424 . S
C271 H266 0.930 . S
C271 C273 1.390 . S
C271 C274 1.339 1_556 S
C272 C270 1.416 . S
C272 C274 1.416 . S
C272 C305 1.448 . S
C273 H258 0.930 . S
C273 N269 1.334 . S
C273 C271 1.390 . S
C274 C271 1.339 1_554 S
C274 C272 1.416 . S
C274 H281 0.930 . S
N275 Tb240 2.572 1_554 S
N275 C276 1.340 . S
N275 C278 1.361 . S
C276 H262 0.930 . S
C276 N275 1.340 . S
C276 C280 1.407 . S
C277 C278 1.413 . S
C277 C279 1.416 . S
C277 C306 1.427 . S
C278 C270 1.424 . S
C278 N275 1.361 . S
C278 C277 1.413 . S
C279 H268 0.931 . S
C279 C277 1.416 . S
C279 C280 1.332 . S
C280 H259 0.929 . S
C280 C276 1.407 . S
C280 C279 1.332 . S
H281 C274 0.930 . S
H282 C305 0.930 . S
H283 C306 0.929 . S
O284 Tb240 2.465 . S
O284 C304 1.264 . S
O285 Tb240 2.387 1_554 S
O285 C296 1.264 . S
O286 Tb251 2.349 . S
O286 C296 1.243 . S
O287 Tb240 2.428 . S
O287 C304 1.256 . S
O288 Tb240 2.308 1_554 S
O288 C303 1.266 . S
O289 Tb251 2.393 . S
O289 C303 1.248 . S
O290 Tb251 2.465 . S
O290 C315 1.264 . S
O291 Tb251 2.387 1_556 S
O291 C307 1.264 . S
O292 Tb240 2.349 . S
O292 C307 1.243 . S
O293 Tb251 2.428 . S
O293 C315 1.256 . S
O294 Tb251 2.308 . S
O294 C314 1.266 . S
O295 Tb240 2.393 . S
O295 C314 1.248 1_556 S
C296 O285 1.264 . S
C296 O286 1.243 . S
C297 C300 1.399 . S
C297 C302 1.383 . S
C297 C304 1.496 . S
C298 C299 1.399 . S
C298 C302 1.389 . S
C299 C298 1.399 . S
C299 C301 1.380 . S
C299 H316 0.929 . S
C300 C297 1.399 . S
C300 C301 1.392 . S
C300 H317 0.929 . S
C301 C299 1.380 . S
C301 C300 1.392 . S
C301 H318 0.929 . S
C302 C297 1.383 . S
C302 C298 1.389 . S
C302 H319 0.931 . S
C303 O288 1.266 . S
C303 O289 1.248 . S
C304 Tb240 2.802 . S
C304 O284 1.264 . S
C304 O287 1.256 . S
C304 C297 1.496 . S
C305 C272 1.448 . S
C305 H282 0.930 . S
C305 C306 1.328 . S
C306 C277 1.427 . S
C306 H283 0.929 . S
C306 C305 1.328 . S
C307 O291 1.264 . S
C307 O292 1.243 . S
C308 C311 1.399 . S
C308 C312 1.383 . S
C308 C315 1.496 . S
C309 C310 1.399 . S
C309 C312 1.389 . S
C310 C309 1.399 . S
C310 C313 1.380 . S
C310 H320 0.929 . S
C311 C308 1.399 . S
C311 C313 1.392 . S
C311 H321 0.929 . S
C312 C308 1.383 . S
C312 C309 1.389 . S
C312 H322 0.931 . S
C313 C310 1.380 . S
C313 C311 1.392 . S
C313 H323 0.929 . S
C314 O294 1.266 . S
C314 O295 1.248 1_554 S
C315 Tb251 2.802 . S
C315 O290 1.264 . S
C315 O293 1.256 . S
C315 C308 1.496 . S
H316 C299 0.929 . S
H317 C300 0.929 . S
H318 C301 0.929 . S
H319 C302 0.931 . S
H320 C310 0.929 . S
H321 C311 0.929 . S
H322 C312 0.931 . S
H323 C313 0.929 . S
H324 C332 0.929 . S
H325 C334 0.930 . S
H326 C336 0.930 . S
H327 C339 0.929 . S
H328 C342 0.930 . S
H329 C344 0.960 . S
H330 C344 0.960 . S
H331 C344 0.960 . S
C332 H324 0.929 . S
C332 C333 1.377 . S
C332 C334 1.384 . S
C333 C332 1.377 . S
C333 C339 1.390 . S
C334 H325 0.930 . S
C334 C332 1.384 . S
C334 C335 1.372 . S
C335 C334 1.372 . S
C335 C336 1.400 . S
C335 C340 1.490 . S
C336 H326 0.930 . S
C336 C335 1.400 . S
C336 C339 1.386 . S
H337 C353 0.930 . S
H338 C354 0.931 . S
C339 H327 0.929 . S
C339 C333 1.390 . S
C339 C336 1.386 . S
C340 C335 1.490 . S
C340 C342 1.395 . S
C340 C343 1.403 . S
H341 C347 0.930 . S
C342 H328 0.930 . S
C342 C340 1.395 . S
C342 C345 1.403 . S
C343 C340 1.403 . S
C343 C344 1.524 . S
C343 C347 1.400 . S
C344 H329 0.960 . S
C344 H330 0.960 . S
C344 H331 0.960 . S
C344 C343 1.524 . S
C345 C342 1.403 . S
C345 C346 1.392 . S
C345 C349 1.495 . S
C346 C345 1.392 . S
C346 C347 1.385 . S
C346 C348 1.478 . S
C347 H341 0.930 . S
C347 C343 1.400 . S
C347 C346 1.385 . S
C348 C346 1.478 . S
C348 C350 1.381 . S
C348 C354 1.383 . S
C349 C345 1.495 . S
C349 H355 0.959 . S
C349 H356 0.961 . S
C349 H357 0.960 . S
C350 C348 1.381 . S
C350 C351 1.394 . S
C350 H358 0.930 . S
C351 C350 1.394 . S
C351 C352 1.383 . S
C351 H359 0.929 . S
C352 C351 1.383 . S
C352 C353 1.377 . S
C353 H337 0.930 . S
C353 C352 1.377 . S
C353 C354 1.379 . S
C354 H338 0.931 . S
C354 C348 1.383 . S
C354 C353 1.379 . S
H355 C349 0.959 . S
H356 C349 0.961 . S
H357 C349 0.960 . S
H358 C350 0.930 . S
H359 C351 0.929 . S
H360 C368 0.929 . S
H361 C370 0.930 . S
H362 C372 0.930 1_556 S
H363 C375 0.929 1_556 S
H364 C378 0.930 . S
H365 C380 0.945 1_556 S
H366 C380 0.960 . S
H367 C380 0.960 1_556 S
C368 H360 0.929 . S
C368 C369 1.377 . S
C368 C370 1.384 . S
C369 C368 1.377 . S
C369 C375 1.390 . S
C370 H361 0.930 . S
C370 C368 1.384 . S
C370 C371 1.372 . S
C371 C370 1.372 . S
C371 C372 1.400 . S
C371 C376 1.490 . S
C372 H362 0.930 1_554 S
C372 C371 1.400 . S
C372 C375 1.386 . S
H373 C389 0.930 . S
H374 C390 0.905 1_556 S
C375 H363 0.929 1_554 S
C375 C369 1.390 . S
C375 C372 1.386 . S
C376 C371 1.490 . S
C376 C378 1.395 . S
C376 C379 1.403 . S
H377 C383 0.930 . S
C378 H364 0.930 . S
C378 C376 1.395 . S
C378 C381 1.403 . S
C379 C376 1.403 . S
C379 C380 1.524 . S
C379 C383 1.400 . S
C380 H365 0.945 1_554 S
C380 H366 0.960 . S
C380 H367 0.960 1_554 S
C380 C379 1.524 . S
C381 C378 1.403 . S
C381 C382 1.392 . S
C381 C385 1.495 . S
C382 C381 1.392 . S
C382 C383 1.385 . S
C382 C384 1.478 . S
C383 H377 0.930 . S
C383 C379 1.400 . S
C383 C382 1.385 . S
C384 C382 1.478 . S
C384 C386 1.381 . S
C384 C390 1.420 . S
C385 C381 1.495 . S
C385 H391 0.959 . S
C385 H392 0.961 . S
C385 H393 0.960 . S
C386 C384 1.381 . S
C386 C387 1.394 . S
C386 H394 0.930 . S
C387 C386 1.394 . S
C387 C388 1.383 . S
C387 H395 0.929 . S
C388 C387 1.383 . S
C388 C389 1.377 1_554 S
C389 H373 0.930 . S
C389 C388 1.377 1_556 S
C389 C390 1.369 1_556 S
C390 H374 0.905 1_554 S
C390 C384 1.420 . S
C390 C389 1.369 1_554 S
H391 C385 0.959 . S
H392 C385 0.961 . S
H393 C385 0.960 . S
H394 C386 0.930 . S
H395 C387 0.929 . S
H396 C404 0.929 . S
H397 C406 0.930 . S
H398 C408 0.930 . S
H399 C411 0.929 . S
H400 C414 0.930 . S
H401 C416 0.960 . S
H402 C416 0.960 . S
H403 C416 0.960 . S
C404 H396 0.929 . S
C404 C405 1.377 . S
C404 C406 1.384 . S
C405 C404 1.377 . S
C405 C411 1.390 . S
C406 H397 0.930 . S
C406 C404 1.384 . S
C406 C407 1.372 . S
C407 C406 1.372 . S
C407 C408 1.400 . S
C407 C412 1.490 . S
C408 H398 0.930 . S
C408 C407 1.400 . S
C408 C411 1.386 . S
H409 C425 0.930 . S
H410 C426 0.931 . S
C411 H399 0.929 . S
C411 C405 1.390 . S
C411 C408 1.386 . S
C412 C407 1.490 . S
C412 C414 1.395 . S
C412 C415 1.403 . S
H413 C419 0.930 . S
C414 H400 0.930 . S
C414 C412 1.395 . S
C414 C417 1.403 . S
C415 C412 1.403 . S
C415 C416 1.524 . S
C415 C419 1.400 . S
C416 H401 0.960 . S
C416 H402 0.960 . S
C416 H403 0.960 . S
C416 C415 1.524 . S
C417 C414 1.403 . S
C417 C418 1.392 . S
C417 C421 1.495 . S
C418 C417 1.392 . S
C418 C419 1.385 . S
C418 C420 1.478 . S
C419 H413 0.930 . S
C419 C415 1.400 . S
C419 C418 1.385 . S
C420 C418 1.478 . S
C420 C422 1.381 . S
C420 C426 1.383 . S
C421 C417 1.495 . S
C421 H427 0.959 . S
C421 H428 0.961 . S
C421 H429 0.960 . S
C422 C420 1.381 . S
C422 C423 1.394 . S
C422 H430 0.930 . S
C423 C422 1.394 . S
C423 C424 1.383 . S
C423 H431 0.929 . S
C424 C423 1.383 . S
C424 C425 1.377 . S
C425 H409 0.930 . S
C425 C424 1.377 . S
C425 C426 1.379 . S
C426 H410 0.931 . S
C426 C420 1.383 . S
C426 C425 1.379 . S
H427 C421 0.959 . S
H428 C421 0.961 . S
H429 C421 0.960 . S
H430 C422 0.930 . S
H431 C423 0.929 . S
H432 C440 0.929 . S
H433 C442 0.930 . S
H434 C444 0.930 . S
H435 C447 0.929 . S
H436 C450 0.930 . S
H437 C452 0.960 . S
H438 C452 0.960 . S
H439 C452 0.960 . S
C440 H432 0.929 . S
C440 C441 1.377 . S
C440 C442 1.384 . S
C441 C440 1.377 . S
C441 C447 1.390 1_554 S
C442 H433 0.930 . S
C442 C440 1.384 . S
C442 C443 1.372 . S
C443 C442 1.372 . S
C443 C444 1.400 1_554 S
C443 C448 1.490 . S
C444 H434 0.930 . S
C444 C443 1.400 1_556 S
C444 C447 1.386 . S
H445 C461 0.930 . S
H446 C462 0.931 . S
C447 H435 0.929 . S
C447 C441 1.390 1_556 S
C447 C444 1.386 . S
C448 C443 1.490 . S
C448 C450 1.395 . S
C448 C451 1.403 1_554 S
H449 C455 0.930 . S
C450 H436 0.930 . S
C450 C448 1.395 . S
C450 C453 1.403 . S
C451 C448 1.403 1_556 S
C451 C452 1.524 . S
C451 C455 1.400 . S
C452 H437 0.960 . S
C452 H438 0.960 . S
C452 H439 0.960 . S
C452 C451 1.524 . S
C453 C450 1.403 . S
C453 C454 1.392 . S
C453 C457 1.495 . S
C454 C453 1.392 . S
C454 C455 1.385 1_554 S
C454 C456 1.478 . S
C455 H449 0.930 . S
C455 C451 1.400 . S
C455 C454 1.385 1_556 S
C456 C454 1.478 . S
C456 C458 1.381 . S
C456 C462 1.383 . S
C457 C453 1.495 . S
C457 H463 0.959 . S
C457 H464 0.961 . S
C457 H465 0.960 . S
C458 C456 1.381 . S
C458 C459 1.394 . S
C458 H466 0.930 . S
C459 C458 1.394 . S
C459 C460 1.383 . S
C459 H467 0.929 . S
C460 C459 1.383 . S
C460 C461 1.377 . S
C461 H445 0.930 . S
C461 C460 1.377 . S
C461 C462 1.379 . S
C462 H446 0.931 . S
C462 C456 1.383 . S
C462 C461 1.379 . S
H463 C457 0.959 . S
H464 C457 0.961 . S
H465 C457 0.960 . S
H466 C458 0.930 . S
H467 C459 0.929 . S
H468 C476 0.929 . S
H469 C478 0.930 . S
H470 C480 0.930 . S
H471 C483 0.929 . S
H472 C486 0.930 . S
H473 C488 0.960 . S
H474 C488 0.960 . S
H475 C488 0.960 . S
C476 H468 0.929 . S
C476 C477 1.377 . S
C476 C478 1.384 . S
C477 C476 1.377 . S
C477 C483 1.390 . S
C478 H469 0.930 . S
C478 C476 1.384 . S
C478 C479 1.372 . S
C479 C478 1.372 . S
C479 C480 1.400 . S
C479 C484 1.490 . S
C480 H470 0.930 . S
C480 C479 1.400 . S
C480 C483 1.386 . S
H481 C497 0.930 . S
H482 C498 0.931 . S
C483 H471 0.929 . S
C483 C477 1.390 . S
C483 C480 1.386 . S
C484 C479 1.490 . S
C484 C486 1.395 . S
C484 C487 1.403 . S
H485 C491 0.930 . S
C486 H472 0.930 . S
C486 C484 1.395 . S
C486 C489 1.403 . S
C487 C484 1.403 . S
C487 C488 1.524 . S
C487 C491 1.400 . S
C488 H473 0.960 . S
C488 H474 0.960 . S
C488 H475 0.960 . S
C488 C487 1.524 . S
C489 C486 1.403 . S
C489 C490 1.392 . S
C489 C493 1.495 . S
C490 C489 1.392 . S
C490 C491 1.385 . S
C490 C492 1.478 . S
C491 H485 0.930 . S
C491 C487 1.400 . S
C491 C490 1.385 . S
C492 C490 1.478 . S
C492 C494 1.381 . S
C492 C498 1.383 . S
C493 C489 1.495 . S
C493 H499 0.959 . S
C493 H500 0.961 . S
C493 H501 0.960 . S
C494 C492 1.381 . S
C494 C495 1.394 . S
C494 H502 0.930 . S
C495 C494 1.394 . S
C495 C496 1.383 . S
C495 H503 0.929 . S
C496 C495 1.383 . S
C496 C497 1.377 . S
C497 H481 0.930 . S
C497 C496 1.377 . S
C497 C498 1.379 . S
C498 H482 0.931 . S
C498 C492 1.383 . S
C498 C497 1.379 . S
H499 C493 0.959 . S
H500 C493 0.961 . S
H501 C493 0.960 . S
H502 C494 0.930 . S
H503 C495 0.929 . S
H504 C512 0.929 . S
H505 C514 0.930 . S
H506 C516 0.930 . S
H507 C519 0.929 . S
H508 C522 0.930 . S
H509 C524 0.960 . S
H510 C524 0.960 . S
H511 C524 0.960 . S
C512 H504 0.929 . S
C512 C513 1.377 . S
C512 C514 1.384 . S
C513 C512 1.377 . S
C513 C519 1.390 . S
C514 H505 0.930 . S
C514 C512 1.384 . S
C514 C515 1.372 . S
C515 C514 1.372 . S
C515 C516 1.400 . S
C515 C520 1.490 . S
C516 H506 0.930 . S
C516 C515 1.400 . S
C516 C519 1.386 . S
H517 C533 0.930 . S
H518 C534 0.931 . S
C519 H507 0.929 . S
C519 C513 1.390 . S
C519 C516 1.386 . S
C520 C515 1.490 . S
C520 C522 1.395 . S
C520 C523 1.403 . S
H521 C527 0.930 . S
C522 H508 0.930 . S
C522 C520 1.395 . S
C522 C525 1.403 . S
C523 C520 1.403 . S
C523 C524 1.524 . S
C523 C527 1.400 . S
C524 H509 0.960 . S
C524 H510 0.960 . S
C524 H511 0.960 . S
C524 C523 1.524 . S
C525 C522 1.403 . S
C525 C526 1.392 . S
C525 C529 1.495 . S
C526 C525 1.392 . S
C526 C527 1.385 . S
C526 C528 1.478 . S
C527 H521 0.930 . S
C527 C523 1.400 . S
C527 C526 1.385 . S
C528 C526 1.478 . S
C528 C530 1.381 . S
C528 C534 1.383 . S
C529 C525 1.495 . S
C529 H535 0.959 . S
C529 H536 0.961 . S
C529 H537 0.960 . S
C530 C528 1.381 . S
C530 C531 1.394 . S
C530 H538 0.930 . S
C531 C530 1.394 . S
C531 C532 1.383 . S
C531 H539 0.929 . S
C532 C531 1.383 . S
C532 C533 1.377 . S
C533 H517 0.930 . S
C533 C532 1.377 . S
C533 C534 1.379 . S
C534 H518 0.931 . S
C534 C528 1.383 . S
C534 C533 1.379 . S
H535 C529 0.959 . S
H536 C529 0.961 . S
H537 C529 0.960 . S
H538 C530 0.930 . S
H539 C531 0.929 . S
H540 C548 0.929 . S
H541 C550 0.930 . S
H542 C552 0.930 . S
H543 C555 0.929 . S
H544 C558 0.930 . S
H545 C560 0.960 1_565 S
H546 C560 0.960 . S
H547 C560 0.960 . S
C548 H540 0.929 . S
C548 C549 1.377 . S
C548 C550 1.384 . S
C549 C548 1.377 . S
C549 C555 1.390 . S
C550 H541 0.930 . S
C550 C548 1.384 . S
C550 C551 1.372 . S
C551 C550 1.372 . S
C551 C552 1.400 . S
C551 C556 1.490 . S
C552 H542 0.930 . S
C552 C551 1.400 . S
C552 C555 1.386 . S
H553 C569 0.930 . S
H554 C570 0.931 . S
C555 H543 0.929 . S
C555 C549 1.390 . S
C555 C552 1.386 . S
C556 C551 1.490 . S
C556 C558 1.395 . S
C556 C559 1.403 . S
H557 C563 0.930 . S
C558 H544 0.930 . S
C558 C556 1.395 . S
C558 C561 1.403 . S
C559 C556 1.403 . S
C559 C560 1.524 . S
C559 C563 1.400 . S
C560 H545 0.960 1_545 S
C560 H546 0.960 . S
C560 H547 0.960 . S
C560 C559 1.524 . S
C561 C558 1.403 . S
C561 C562 1.392 . S
C561 C565 1.495 . S
C562 C561 1.392 . S
C562 C563 1.385 . S
C562 C564 1.478 . S
C563 H557 0.930 . S
C563 C559 1.400 . S
C563 C562 1.385 . S
C564 C562 1.478 . S
C564 C566 1.381 . S
C564 C570 1.383 . S
C565 C561 1.495 . S
C565 H571 0.959 . S
C565 H572 0.961 . S
C565 H573 0.960 . S
C566 C564 1.381 . S
C566 C567 1.394 . S
C566 H574 0.930 . S
C567 C566 1.394 . S
C567 C568 1.383 . S
C567 H575 0.929 . S
C568 C567 1.383 . S
C568 C569 1.377 . S
C569 H553 0.930 . S
C569 C568 1.377 . S
C569 C570 1.379 . S
C570 H554 0.931 . S
C570 C564 1.383 . S
C570 C569 1.379 . S
H571 C565 0.959 . S
H572 C565 0.961 . S
H573 C565 0.960 . S
H574 C566 0.930 . S
H575 C567 0.929 . S
H576 C584 0.929 . S
H577 C586 0.930 . S
H578 C588 0.930 . S
H579 C591 0.929 . S
H580 C594 0.930 . S
H581 C596 0.960 . S
H582 C596 0.960 . S
H583 C596 0.960 . S
C584 H576 0.929 . S
C584 C585 1.377 . S
C584 C586 1.384 . S
C585 C584 1.377 . S
C585 C591 1.390 . S
C586 H577 0.930 . S
C586 C584 1.384 . S
C586 C587 1.372 . S
C587 C586 1.372 . S
C587 C588 1.400 . S
C587 C592 1.490 . S
C588 H578 0.930 . S
C588 C587 1.400 . S
C588 C591 1.386 . S
H589 C605 0.930 . S
H590 C606 0.931 . S
C591 H579 0.929 . S
C591 C585 1.390 . S
C591 C588 1.386 . S
C592 C587 1.490 . S
C592 C594 1.395 . S
C592 C595 1.403 . S
H593 C599 0.930 . S
C594 H580 0.930 . S
C594 C592 1.395 . S
C594 C597 1.403 . S
C595 C592 1.403 . S
C595 C596 1.524 . S
C595 C599 1.400 . S
C596 H581 0.960 . S
C596 H582 0.960 . S
C596 H583 0.960 . S
C596 C595 1.524 . S
C597 C594 1.403 . S
C597 C598 1.392 . S
C597 C601 1.495 . S
C598 C597 1.392 . S
C598 C599 1.385 . S
C598 C600 1.478 . S
C599 H593 0.930 . S
C599 C595 1.400 . S
C599 C598 1.385 . S
C600 C598 1.478 . S
C600 C602 1.381 . S
C600 C606 1.383 . S
C601 C597 1.495 . S
C601 H607 0.959 . S
C601 H608 0.961 . S
C601 H609 0.960 . S
C602 C600 1.381 . S
C602 C603 1.394 . S
C602 H610 0.930 . S
C603 C602 1.394 . S
C603 C604 1.383 . S
C603 H611 0.929 . S
C604 C603 1.383 . S
C604 C605 1.377 . S
C605 H589 0.930 . S
C605 C604 1.377 . S
C605 C606 1.379 . S
C606 H590 0.931 . S
C606 C600 1.383 . S
C606 C605 1.379 . S
H607 C601 0.959 . S
H608 C601 0.961 . S
H609 C601 0.960 . S
H610 C602 0.930 . S
H611 C603 0.929 . S
H612 C620 0.929 . S
H613 C622 0.930 . S
H614 C624 0.930 . S
H615 C627 0.929 . S
H616 C630 0.930 . S
H617 C632 0.960 . S
H618 C632 0.960 . S
H619 C632 0.960 . S
C620 H612 0.929 . S
C620 C621 1.377 . S
C620 C622 1.384 . S
C621 C620 1.377 . S
C621 C627 1.390 . S
C622 H613 0.930 . S
C622 C620 1.384 . S
C622 C623 1.372 . S
C623 C622 1.372 . S
C623 C624 1.400 . S
C623 C628 1.490 . S
C624 H614 0.930 . S
C624 C623 1.400 . S
C624 C627 1.386 . S
H625 C641 0.930 . S
H626 C642 0.931 . S
C627 H615 0.929 . S
C627 C621 1.390 . S
C627 C624 1.386 . S
C628 C623 1.490 . S
C628 C630 1.395 . S
C628 C631 1.403 . S
H629 C635 0.930 . S
C630 H616 0.930 . S
C630 C628 1.395 . S
C630 C633 1.403 . S
C631 C628 1.403 . S
C631 C632 1.524 . S
C631 C635 1.400 . S
C632 H617 0.960 . S
C632 H618 0.960 . S
C632 H619 0.960 . S
C632 C631 1.524 . S
C633 C630 1.403 . S
C633 C634 1.392 . S
C633 C637 1.495 . S
C634 C633 1.392 . S
C634 C635 1.385 . S
C634 C636 1.478 . S
C635 H629 0.930 . S
C635 C631 1.400 . S
C635 C634 1.385 . S
C636 C634 1.478 . S
C636 C638 1.381 . S
C636 C642 1.383 . S
C637 C633 1.495 . S
C637 H643 0.959 . S
C637 H644 0.961 . S
C637 H645 0.960 . S
C638 C636 1.381 . S
C638 C639 1.394 . S
C638 H646 0.930 . S
C639 C638 1.394 . S
C639 C640 1.383 . S
C639 H647 0.929 . S
C640 C639 1.383 . S
C640 C641 1.377 . S
C641 H625 0.930 . S
C641 C640 1.377 . S
C641 C642 1.379 . S
C642 H626 0.931 . S
C642 C636 1.383 . S
C642 C641 1.379 . S
H643 C637 0.959 . S
H644 C637 0.961 . S
H645 C637 0.960 . S
H646 C638 0.930 . S
H647 C639 0.929 . S
H648 C656 0.929 . S
H649 C658 0.930 . S
H650 C660 0.930 . S
H651 C663 0.929 . S
H652 C666 0.930 . S
H653 C668 0.960 . S
H654 C668 0.960 . S
H655 C668 0.960 . S
C656 H648 0.929 . S
C656 C657 1.377 . S
C656 C658 1.384 . S
C657 C656 1.377 . S
C657 C663 1.390 . S
C658 H649 0.930 . S
C658 C656 1.384 . S
C658 C659 1.372 . S
C659 C658 1.372 . S
C659 C660 1.400 . S
C659 C664 1.490 . S
C660 H650 0.930 . S
C660 C659 1.400 . S
C660 C663 1.386 . S
H661 C677 0.930 . S
H662 C678 0.931 . S
C663 H651 0.929 . S
C663 C657 1.390 . S
C663 C660 1.386 . S
C664 C659 1.490 . S
C664 C666 1.395 . S
C664 C667 1.403 . S
H665 C671 0.930 . S
C666 H652 0.930 . S
C666 C664 1.395 . S
C666 C669 1.403 . S
C667 C664 1.403 . S
C667 C668 1.524 . S
C667 C671 1.400 . S
C668 H653 0.960 . S
C668 H654 0.960 . S
C668 H655 0.960 . S
C668 C667 1.524 . S
C669 C666 1.403 . S
C669 C670 1.392 . S
C669 C673 1.495 . S
C670 C669 1.392 . S
C670 C671 1.385 . S
C670 C672 1.478 . S
C671 H665 0.930 . S
C671 C667 1.400 . S
C671 C670 1.385 . S
C672 C670 1.478 . S
C672 C674 1.381 . S
C672 C678 1.383 . S
C673 C669 1.495 . S
C673 H679 0.959 . S
C673 H680 0.961 . S
C673 H681 0.960 . S
C674 C672 1.381 . S
C674 C675 1.394 . S
C674 H682 0.930 . S
C675 C674 1.394 . S
C675 C676 1.383 . S
C675 H683 0.929 . S
C676 C675 1.383 . S
C676 C677 1.377 . S
C677 H661 0.930 . S
C677 C676 1.377 . S
C677 C678 1.379 . S
C678 H662 0.931 . S
C678 C672 1.383 . S
C678 C677 1.379 . S
H679 C673 0.959 . S
H680 C673 0.961 . S
H681 C673 0.960 . S
H682 C674 0.930 . S
H683 C675 0.929 . S
H684 C692 0.929 . S
H685 C694 0.930 . S
H686 C696 0.930 . S
H687 C699 0.929 . S
H688 C702 0.930 . S
H689 C704 0.960 . S
H690 C704 0.960 . S
H691 C704 0.960 . S
C692 H684 0.929 . S
C692 C693 1.377 . S
C692 C694 1.384 . S
C693 C692 1.377 . S
C693 C699 1.390 . S
C694 H685 0.930 . S
C694 C692 1.384 . S
C694 C695 1.372 . S
C695 C694 1.372 . S
C695 C696 1.400 . S
C695 C700 1.490 . S
C696 H686 0.930 . S
C696 C695 1.400 . S
C696 C699 1.386 . S
H697 C713 0.930 . S
H698 C714 0.931 . S
C699 H687 0.929 . S
C699 C693 1.390 . S
C699 C696 1.386 . S
C700 C695 1.490 . S
C700 C702 1.395 . S
C700 C703 1.403 . S
H701 C707 0.930 . S
C702 H688 0.930 . S
C702 C700 1.395 . S
C702 C705 1.403 . S
C703 C700 1.403 . S
C703 C704 1.524 . S
C703 C707 1.400 . S
C704 H689 0.960 . S
C704 H690 0.960 . S
C704 H691 0.960 . S
C704 C703 1.524 . S
C705 C702 1.403 . S
C705 C706 1.392 . S
C705 C709 1.495 . S
C706 C705 1.392 . S
C706 C707 1.385 . S
C706 C708 1.478 . S
C707 H701 0.930 . S
C707 C703 1.400 . S
C707 C706 1.385 . S
C708 C706 1.478 . S
C708 C710 1.381 . S
C708 C714 1.383 . S
C709 C705 1.495 . S
C709 H715 0.959 . S
C709 H716 0.961 . S
C709 H717 0.960 . S
C710 C708 1.381 . S
C710 C711 1.394 . S
C710 H718 0.930 . S
C711 C710 1.394 . S
C711 C712 1.383 . S
C711 H719 0.929 . S
C712 C711 1.383 . S
C712 C713 1.377 . S
C713 H697 0.930 . S
C713 C712 1.377 . S
C713 C714 1.379 . S
C714 H698 0.931 . S
C714 C708 1.383 . S
C714 C713 1.379 . S
H715 C709 0.959 . S
H716 C709 0.961 . S
H717 C709 0.960 . S
H718 C710 0.930 . S
H719 C711 0.929 . S
H720 C728 0.929 . S
H721 C730 0.930 . S
H722 C732 0.930 . S
H723 C735 0.929 . S
H724 C738 0.930 . S
H725 C740 0.948 1_545 S
H726 C740 0.960 . S
H727 C740 0.960 . S
C728 H720 0.929 . S
C728 C729 1.377 . S
C728 C730 1.384 . S
C729 C728 1.377 . S
C729 C735 1.390 . S
C730 H721 0.930 . S
C730 C728 1.384 . S
C730 C731 1.372 . S
C731 C730 1.372 . S
C731 C732 1.400 . S
C731 C736 1.490 . S
C732 H722 0.930 . S
C732 C731 1.400 . S
C732 C735 1.386 . S
H733 C749 0.930 1_545 S
H734 C750 0.931 . S
C735 H723 0.929 . S
C735 C729 1.390 . S
C735 C732 1.386 . S
C736 C731 1.490 . S
C736 C738 1.395 . S
C736 C739 1.403 . S
H737 C743 0.930 . S
C738 H724 0.930 . S
C738 C736 1.395 . S
C738 C741 1.403 . S
C739 C736 1.403 . S
C739 C740 1.524 . S
C739 C743 1.400 . S
C740 H725 0.948 1_565 S
C740 H726 0.960 . S
C740 H727 0.960 . S
C740 C739 1.524 . S
C741 C738 1.403 . S
C741 C742 1.392 . S
C741 C745 1.495 . S
C742 C741 1.392 . S
C742 C743 1.385 . S
C742 C744 1.478 . S
C743 H737 0.930 . S
C743 C739 1.400 . S
C743 C742 1.385 . S
C744 C742 1.478 . S
C744 C746 1.381 . S
C744 C750 1.383 . S
C745 C741 1.495 . S
C745 H751 0.959 . S
C745 H752 0.961 . S
C745 H753 0.960 . S
C746 C744 1.381 . S
C746 C747 1.394 . S
C746 H754 0.930 . S
C747 C746 1.394 . S
C747 C748 1.383 . S
C747 H755 0.929 . S
C748 C747 1.383 . S
C748 C749 1.377 . S
C749 H733 0.930 1_565 S
C749 C748 1.377 . S
C749 C750 1.379 . S
C750 H734 0.931 . S
C750 C744 1.383 . S
C750 C749 1.379 . S
H751 C745 0.959 . S
H752 C745 0.961 . S
H753 C745 0.960 . S
H754 C746 0.930 . S
H755 C747 0.929 . S
C352 C219 1.620 . S
C333 C138 1.622 . S
C369 C21 1.613 . S
C388 C314 1.611 . S
C405 C60 1.627 . S
C424 C230 1.630 . S
C441 C99 1.620 . S
C460 C303 1.589 . S
C496 C214 1.453 . S
C477 C16 1.560 . S
C532 C307 1.609 . S
C513 C40 1.602 . S
C549 C79 1.591 . S
C568 C223 1.600 . S
C585 C133 1.544 . S
C604 C298 1.417 . S
C640 C309 1.388 . S
C621 C55 1.543 . S
C676 C225 1.398 . S
C657 C94 1.560 . S
C712 C296 1.604 . S
C693 C118 1.601 . S
C729 C1 1.587 . S
C748 C212 1.598 . S
