# Generated by pormake.
# Topology eea, (3,6)-cn, num edge types: 1
# Building blocks:
#     Node 0, Type 0, BuildingBlock: CUQRIR_clean_linker_1, # of connection points: 3
#     Node 1, Type 0, BuildingBlock: CUQRIR_clean_linker_1, # of connection points: 3
#     Node 2, Type 0, BuildingBlock: CUQRIR_clean_linker_1, # of connection points: 3
#     Node 3, Type 0, BuildingBlock: CUQRIR_clean_linker_1, # of connection points: 3
#     Node 4, Type 0, BuildingBlock: CUQRIR_clean_linker_1, # of connection points: 3
#     Node 5, Type 0, BuildingBlock: CUQRIR_clean_linker_1, # of connection points: 3
#     Node 6, Type 0, BuildingBlock: CUQRIR_clean_linker_1, # of connection points: 3
#     Node 7, Type 0, BuildingBlock: CUQRIR_clean_linker_1, # of connection points: 3
#     Node 8, Type 0, BuildingBlock: CUQRIR_clean_linker_1, # of connection points: 3
#     Node 9, Type 0, BuildingBlock: CUQRIR_clean_linker_1, # of connection points: 3
#     Node 10, Type 0, BuildingBlock: CUQRIR_clean_linker_1, # of connection points: 3
#     Node 11, Type 0, BuildingBlock: CUQRIR_clean_linker_1, # of connection points: 3
#     Node 12, Type 0, BuildingBlock: CUQRIR_clean_linker_1, # of connection points: 3
#     Node 13, Type 0, BuildingBlock: CUQRIR_clean_linker_1, # of connection points: 3
#     Node 14, Type 0, BuildingBlock: CUQRIR_clean_linker_1, # of connection points: 3
#     Node 15, Type 0, BuildingBlock: CUQRIR_clean_linker_1, # of connection points: 3
#     Node 16, Type 0, BuildingBlock: CUQRIR_clean_linker_1, # of connection points: 3
#     Node 17, Type 0, BuildingBlock: CUQRIR_clean_linker_1, # of connection points: 3
#     Node 18, Type 1, BuildingBlock: LEVNOQ01_clean_sbu_1, # of connection points: 6
#     Node 19, Type 1, BuildingBlock: LEVNOQ01_clean_sbu_1, # of connection points: 6
#     Node 20, Type 1, BuildingBlock: LEVNOQ01_clean_sbu_1, # of connection points: 6
#     Node 21, Type 1, BuildingBlock: LEVNOQ01_clean_sbu_1, # of connection points: 6
#     Node 22, Type 1, BuildingBlock: LEVNOQ01_clean_sbu_1, # of connection points: 6
#     Node 23, Type 1, BuildingBlock: LEVNOQ01_clean_sbu_1, # of connection points: 6
#     Node 24, Type 1, BuildingBlock: LEVNOQ01_clean_sbu_1, # of connection points: 6
#     Node 25, Type 1, BuildingBlock: LEVNOQ01_clean_sbu_1, # of connection points: 6
#     Node 26, Type 1, BuildingBlock: LEVNOQ01_clean_sbu_1, # of connection points: 6
#     Edge 27, Type (0, 1), BuildingBlock: MIFKUJ_clean_linker_0, # of connection points: 2
#     Edge 28, Type (0, 1), BuildingBlock: MIFKUJ_clean_linker_0, # of connection points: 2
#     Edge 29, Type (0, 1), BuildingBlock: MIFKUJ_clean_linker_0, # of connection points: 2
#     Edge 30, Type (0, 1), BuildingBlock: MIFKUJ_clean_linker_0, # of connection points: 2
#     Edge 31, Type (0, 1), BuildingBlock: MIFKUJ_clean_linker_0, # of connection points: 2
#     Edge 32, Type (0, 1), BuildingBlock: MIFKUJ_clean_linker_0, # of connection points: 2
#     Edge 33, Type (0, 1), BuildingBlock: MIFKUJ_clean_linker_0, # of connection points: 2
#     Edge 34, Type (0, 1), BuildingBlock: MIFKUJ_clean_linker_0, # of connection points: 2
#     Edge 35, Type (0, 1), BuildingBlock: MIFKUJ_clean_linker_0, # of connection points: 2
#     Edge 36, Type (0, 1), BuildingBlock: MIFKUJ_clean_linker_0, # of connection points: 2
#     Edge 37, Type (0, 1), BuildingBlock: MIFKUJ_clean_linker_0, # of connection points: 2
#     Edge 38, Type (0, 1), BuildingBlock: MIFKUJ_clean_linker_0, # of connection points: 2
#     Edge 39, Type (0, 1), BuildingBlock: MIFKUJ_clean_linker_0, # of connection points: 2
#     Edge 40, Type (0, 1), BuildingBlock: MIFKUJ_clean_linker_0, # of connection points: 2
#     Edge 41, Type (0, 1), BuildingBlock: MIFKUJ_clean_linker_0, # of connection points: 2
#     Edge 42, Type (0, 1), BuildingBlock: MIFKUJ_clean_linker_0, # of connection points: 2
#     Edge 43, Type (0, 1), BuildingBlock: MIFKUJ_clean_linker_0, # of connection points: 2
#     Edge 44, Type (0, 1), BuildingBlock: MIFKUJ_clean_linker_0, # of connection points: 2
#     Edge 45, Type (0, 1), BuildingBlock: MIFKUJ_clean_linker_0, # of connection points: 2
#     Edge 46, Type (0, 1), BuildingBlock: MIFKUJ_clean_linker_0, # of connection points: 2
#     Edge 47, Type (0, 1), BuildingBlock: MIFKUJ_clean_linker_0, # of connection points: 2
#     Edge 48, Type (0, 1), BuildingBlock: MIFKUJ_clean_linker_0, # of connection points: 2
#     Edge 49, Type (0, 1), BuildingBlock: MIFKUJ_clean_linker_0, # of connection points: 2
#     Edge 50, Type (0, 1), BuildingBlock: MIFKUJ_clean_linker_0, # of connection points: 2
#     Edge 51, Type (0, 1), BuildingBlock: MIFKUJ_clean_linker_0, # of connection points: 2
#     Edge 52, Type (0, 1), BuildingBlock: MIFKUJ_clean_linker_0, # of connection points: 2
#     Edge 53, Type (0, 1), BuildingBlock: MIFKUJ_clean_linker_0, # of connection points: 2
#     Edge 54, Type (0, 1), BuildingBlock: MIFKUJ_clean_linker_0, # of connection points: 2
#     Edge 55, Type (0, 1), BuildingBlock: MIFKUJ_clean_linker_0, # of connection points: 2
#     Edge 56, Type (0, 1), BuildingBlock: MIFKUJ_clean_linker_0, # of connection points: 2
#     Edge 57, Type (0, 1), BuildingBlock: MIFKUJ_clean_linker_0, # of connection points: 2
#     Edge 58, Type (0, 1), BuildingBlock: MIFKUJ_clean_linker_0, # of connection points: 2
#     Edge 59, Type (0, 1), BuildingBlock: MIFKUJ_clean_linker_0, # of connection points: 2
#     Edge 60, Type (0, 1), BuildingBlock: MIFKUJ_clean_linker_0, # of connection points: 2
#     Edge 61, Type (0, 1), BuildingBlock: MIFKUJ_clean_linker_0, # of connection points: 2
#     Edge 62, Type (0, 1), BuildingBlock: MIFKUJ_clean_linker_0, # of connection points: 2
#     Edge 63, Type (0, 1), BuildingBlock: MIFKUJ_clean_linker_0, # of connection points: 2
#     Edge 64, Type (0, 1), BuildingBlock: MIFKUJ_clean_linker_0, # of connection points: 2
#     Edge 65, Type (0, 1), BuildingBlock: MIFKUJ_clean_linker_0, # of connection points: 2
#     Edge 66, Type (0, 1), BuildingBlock: MIFKUJ_clean_linker_0, # of connection points: 2
#     Edge 67, Type (0, 1), BuildingBlock: MIFKUJ_clean_linker_0, # of connection points: 2
#     Edge 68, Type (0, 1), BuildingBlock: MIFKUJ_clean_linker_0, # of connection points: 2
#     Edge 69, Type (0, 1), BuildingBlock: MIFKUJ_clean_linker_0, # of connection points: 2
#     Edge 70, Type (0, 1), BuildingBlock: MIFKUJ_clean_linker_0, # of connection points: 2
#     Edge 71, Type (0, 1), BuildingBlock: MIFKUJ_clean_linker_0, # of connection points: 2
#     Edge 72, Type (0, 1), BuildingBlock: MIFKUJ_clean_linker_0, # of connection points: 2
#     Edge 73, Type (0, 1), BuildingBlock: MIFKUJ_clean_linker_0, # of connection points: 2
#     Edge 74, Type (0, 1), BuildingBlock: MIFKUJ_clean_linker_0, # of connection points: 2
#     Edge 75, Type (0, 1), BuildingBlock: MIFKUJ_clean_linker_0, # of connection points: 2
#     Edge 76, Type (0, 1), BuildingBlock: MIFKUJ_clean_linker_0, # of connection points: 2
#     Edge 77, Type (0, 1), BuildingBlock: MIFKUJ_clean_linker_0, # of connection points: 2
#     Edge 78, Type (0, 1), BuildingBlock: MIFKUJ_clean_linker_0, # of connection points: 2
#     Edge 79, Type (0, 1), BuildingBlock: MIFKUJ_clean_linker_0, # of connection points: 2
#     Edge 80, Type (0, 1), BuildingBlock: MIFKUJ_clean_linker_0, # of connection points: 2
# Relax obj value: 0.107
# Max RMSD: 0.165
# Mean RMSD: 0.139
data_MOF--net-eea--node1-LEVNOQ01_clean_sbu_1--node2-CUQRIR_clean_linker_1--edge1-MIFKUJ_clean_linker_0
_symmetry_space_group_name_H-M    P1
_symmetry_Int_Tables_number       1
_symmetry_cell_setting            triclinic
loop_
_symmetry_equiv_pos_as_xyz
'x, y, z'
_cell_length_a     70.450564
_cell_length_b     70.866376
_cell_length_c     57.307522
_cell_angle_alpha  82.907904
_cell_angle_beta   90.231096
_cell_angle_gamma 119.78912
loop_
_atom_site_label
_atom_site_type_symbol
_atom_site_fract_x
_atom_site_fract_y
_atom_site_fract_z
_atom_type_partial_charge
C0 C 0.20885 0.10368 0.37575 0.0
N1 N 0.2185 0.11973 0.38953 0.0
N2 N 0.21883 0.09154 0.37672 0.0
C3 C 0.18956 0.09956 0.36146 0.0
C4 C 0.23497 0.10085 0.39148 0.0
N5 N 0.23493 0.11815 0.3991 0.0
C6 C 0.24823 0.09077 0.40146 0.0
H7 H 0.17419 0.08872 0.37264 0.0
H8 H 0.18944 0.09126 0.34621 0.0
H9 H 0.19001 0.11521 0.35508 0.0
H10 H 0.25445 0.08562 0.38719 0.0
H11 H 0.2375 0.07589 0.4141 0.0
H12 H 0.2623 0.10232 0.41069 0.0
C13 C 0.88744 0.11757 0.38184 0.0
N14 N 0.89656 0.13134 0.39823 0.0
N15 N 0.86698 0.10126 0.38963 0.0
C16 C 0.89861 0.11975 0.35854 0.0
C17 C 0.86407 0.10532 0.41135 0.0
N18 N 0.88205 0.12345 0.41666 0.0
C19 C 0.84355 0.09131 0.42733 0.0
H20 H 0.89695 0.13182 0.34571 0.0
H21 H 0.89113 0.10395 0.35134 0.0
H22 H 0.91634 0.12583 0.36035 0.0
H23 H 0.83806 0.07367 0.42732 0.0
H24 H 0.83033 0.09419 0.42045 0.0
H25 H 0.84578 0.09505 0.44567 0.0
C26 C 0.87775 0.78931 0.35449 0.0
N27 N 0.88604 0.78369 0.37367 0.0
N28 N 0.8588 0.78854 0.36054 0.0
C29 C 0.8875 0.79412 0.32967 0.0
C30 C 0.85584 0.7821 0.38418 0.0
N31 N 0.87233 0.77903 0.39204 0.0
C32 C 0.83803 0.7807 0.39998 0.0
H33 H 0.89971 0.81186 0.32557 0.0
H34 H 0.87463 0.78985 0.31684 0.0
H35 H 0.89605 0.78474 0.32776 0.0
H36 H 0.8231 0.76441 0.40014 0.0
H37 H 0.83398 0.79362 0.39351 0.0
H38 H 0.84296 0.7825 0.41833 0.0
C39 C 0.08901 0.21173 0.67669 0.0
N40 N 0.10604 0.22074 0.66037 0.0
N41 N 0.07432 0.21807 0.6704 0.0
C42 C 0.08673 0.19694 0.69902 0.0
C43 C 0.0831 0.23145 0.64968 0.0
N44 N 0.10258 0.23326 0.6437 0.0
C45 C 0.07154 0.24059 0.63399 0.0
H46 H 0.07826 0.17965 0.69553 0.0
H47 H 0.0768 0.19838 0.71294 0.0
H48 H 0.10306 0.20104 0.70539 0.0
H49 H 0.07757 0.25783 0.63678 0.0
H50 H 0.05354 0.23112 0.638 0.0
H51 H 0.07515 0.24058 0.61516 0.0
C52 C 0.77486 0.88841 0.64925 0.0
N53 N 0.76752 0.87371 0.63373 0.0
N54 N 0.76911 0.90392 0.64342 0.0
C55 C 0.7891 0.8886 0.6689 0.0
C56 C 0.75813 0.89819 0.62374 0.0
N57 N 0.75742 0.88001 0.61767 0.0
C58 C 0.74958 0.91138 0.60946 0.0
H59 H 0.78286 0.87172 0.67819 0.0
H60 H 0.78977 0.89944 0.68168 0.0
H61 H 0.80593 0.89463 0.66133 0.0
H62 H 0.76356 0.92625 0.59949 0.0
H63 H 0.74131 0.91684 0.62113 0.0
H64 H 0.73773 0.90176 0.59692 0.0
C65 C 0.1146 0.89493 0.66691 0.0
N66 N 0.10775 0.87841 0.65366 0.0
N67 N 0.13627 0.90925 0.66224 0.0
C68 C 0.10035 0.89719 0.6845 0.0
C69 C 0.14236 0.90096 0.64561 0.0
N70 N 0.1251 0.88208 0.64061 0.0
C71 C 0.16433 0.91271 0.63189 0.0
H72 H 0.09294 0.90647 0.6754 0.0
H73 H 0.11024 0.90644 0.69852 0.0
H74 H 0.08698 0.88083 0.69257 0.0
H75 H 0.17311 0.90355 0.6365 0.0
H76 H 0.17465 0.92981 0.63557 0.0
H77 H 0.16203 0.91301 0.6127 0.0
C78 C 0.86665 0.43049 0.71793 0.0
N79 N 0.87789 0.44723 0.73057 0.0
N80 N 0.87317 0.41541 0.72216 0.0
C81 C 0.84944 0.429 0.70151 0.0
C82 C 0.88873 0.42355 0.73777 0.0
N83 N 0.89177 0.44298 0.74268 0.0
C84 C 0.8998 0.41172 0.74956 0.0
H85 H 0.83534 0.42745 0.71187 0.0
H86 H 0.84372 0.41481 0.69165 0.0
H87 H 0.85609 0.44434 0.68883 0.0
H88 H 0.91539 0.41711 0.7393 0.0
H89 H 0.88937 0.39368 0.75027 0.0
H90 H 0.90368 0.41563 0.76775 0.0
C91 C 0.55331 0.45482 0.71731 0.0
N92 N 0.56161 0.47022 0.73212 0.0
N93 N 0.53168 0.44088 0.72279 0.0
C94 C 0.5658 0.45383 0.69672 0.0
C95 C 0.527 0.4483 0.74132 0.0
N96 N 0.5451 0.46626 0.74686 0.0
C97 C 0.50527 0.43642 0.75548 0.0
H98 H 0.55461 0.44606 0.68281 0.0
H99 H 0.57331 0.44368 0.70268 0.0
H100 H 0.57897 0.47051 0.6892 0.0
H101 H 0.49994 0.41871 0.7597 0.0
H102 H 0.49274 0.43776 0.74477 0.0
H103 H 0.50589 0.44316 0.77207 0.0
C104 C 0.53766 0.10826 0.68698 0.0
N105 N 0.54673 0.1043 0.70646 0.0
N106 N 0.51908 0.10822 0.69292 0.0
C107 C 0.54811 0.11432 0.66232 0.0
C108 C 0.51719 0.10407 0.71679 0.0
N109 N 0.53419 0.10199 0.72503 0.0
C110 C 0.49955 0.10362 0.73204 0.0
H111 H 0.56362 0.13029 0.66105 0.0
H112 H 0.53712 0.11546 0.64902 0.0
H113 H 0.55223 0.10183 0.65825 0.0
H114 H 0.48352 0.09561 0.72416 0.0
H115 H 0.50385 0.12072 0.73359 0.0
H116 H 0.49769 0.09462 0.74991 0.0
C117 C 0.76398 0.55544 0.00775 0.0
N118 N 0.78061 0.56505 0.99084 0.0
N119 N 0.74588 0.55496 0.99923 0.0
C120 C 0.7646 0.54417 0.03159 0.0
C121 C 0.75194 0.56445 0.97655 0.0
N122 N 0.77307 0.57045 0.97136 0.0
C123 C 0.73738 0.5684 0.95983 0.0
H124 H 0.77379 0.53535 0.03018 0.0
H125 H 0.7479 0.53231 0.03965 0.0
H126 H 0.77321 0.55675 0.04342 0.0
H127 H 0.72512 0.57048 0.96959 0.0
H128 H 0.72844 0.55398 0.95035 0.0
H129 H 0.74717 0.58316 0.94667 0.0
C130 C 0.43873 0.21784 0.98338 0.0
N131 N 0.43112 0.20382 0.96711 0.0
N132 N 0.43332 0.23368 0.97853 0.0
C133 C 0.45259 0.21693 0.00302 0.0
C134 C 0.4225 0.22905 0.95868 0.0
N135 N 0.42127 0.21102 0.95164 0.0
C136 C 0.41433 0.24305 0.94548 0.0
H137 H 0.44173 0.20486 0.01803 0.0
H138 H 0.46223 0.23312 0.00924 0.0
H139 H 0.46383 0.21144 0.99717 0.0
H140 H 0.42845 0.25793 0.93572 0.0
H141 H 0.40671 0.24847 0.95803 0.0
H142 H 0.40219 0.23411 0.9328 0.0
C143 C 0.78296 0.23251 0.99706 0.0
N144 N 0.77433 0.21579 0.98402 0.0
N145 N 0.80393 0.24713 0.98932 0.0
C146 C 0.77051 0.23545 0.01616 0.0
C147 C 0.80771 0.2388 0.97109 0.0
N148 N 0.78973 0.21973 0.96777 0.0
C149 C 0.82854 0.25025 0.95546 0.0
H150 H 0.7619 0.2439 0.00806 0.0
H151 H 0.78183 0.24567 0.02875 0.0
H152 H 0.75806 0.21929 0.02573 0.0
H153 H 0.84282 0.25963 0.96579 0.0
H154 H 0.8276 0.26205 0.94152 0.0
H155 H 0.83095 0.23828 0.94695 0.0
C156 C 0.5439 0.77151 0.03786 0.0
N157 N 0.55264 0.78675 0.05267 0.0
N158 N 0.55011 0.75625 0.04266 0.0
C159 C 0.52885 0.77125 0.01909 0.0
C160 C 0.56292 0.76278 0.06105 0.0
N161 N 0.56443 0.78131 0.06715 0.0
C162 C 0.5721 0.74977 0.07447 0.0
H163 H 0.51193 0.7637 0.02716 0.0
H164 H 0.52886 0.76162 0.00522 0.0
H165 H 0.53393 0.78828 0.01105 0.0
H166 H 0.58166 0.74623 0.06219 0.0
H167 H 0.55839 0.73382 0.08301 0.0
H168 H 0.58306 0.75866 0.08803 0.0
C169 C 0.22253 0.78682 0.05121 0.0
N170 N 0.23065 0.80084 0.0675 0.0
N171 N 0.20188 0.77058 0.05815 0.0
C172 C 0.23488 0.78843 0.02902 0.0
C173 C 0.19777 0.77486 0.07923 0.0
N174 N 0.21526 0.79313 0.08505 0.0
C175 C 0.17644 0.76106 0.09387 0.0
H176 H 0.23288 0.79933 0.01484 0.0
H177 H 0.22842 0.7721 0.02316 0.0
H178 H 0.25262 0.7955 0.0317 0.0
H179 H 0.17127 0.74341 0.09474 0.0
H180 H 0.16362 0.76356 0.08513 0.0
H181 H 0.17747 0.76529 0.11196 0.0
C182 C 0.20935 0.44815 0.01821 0.0
N183 N 0.21757 0.44043 0.03583 0.0
N184 N 0.18853 0.44269 0.02411 0.0
C185 C 0.22168 0.46169 0.99535 0.0
C186 C 0.1842 0.43101 0.0459 0.0
N187 N 0.20176 0.42943 0.05291 0.0
C188 C 0.16453 0.42482 0.06195 0.0
H189 H 0.22948 0.47937 0.99714 0.0
H190 H 0.21022 0.45848 0.98106 0.0
H191 H 0.23458 0.45796 0.99049 0.0
H192 H 0.15993 0.40956 0.07413 0.0
H193 H 0.15032 0.4225 0.05171 0.0
H194 H 0.16866 0.4382 0.07271 0.0
C195 C 0.43623 0.89771 0.35051 0.0
N196 N 0.45335 0.90474 0.33473 0.0
N197 N 0.4221 0.90416 0.3421 0.0
C198 C 0.43212 0.88268 0.37318 0.0
C199 C 0.43135 0.91548 0.32055 0.0
N200 N 0.45047 0.916 0.31617 0.0
C201 C 0.41975 0.92222 0.30217 0.0
H202 H 0.42283 0.86539 0.36975 0.0
H203 H 0.42222 0.8851 0.38626 0.0
H204 H 0.44785 0.88567 0.38047 0.0
H205 H 0.4317 0.93682 0.28993 0.0
H206 H 0.40793 0.92584 0.31045 0.0
H207 H 0.41057 0.90853 0.29175 0.0
C208 C 0.1015 0.5494 0.31962 0.0
N209 N 0.09465 0.53544 0.3033 0.0
N210 N 0.09196 0.56196 0.31738 0.0
C211 C 0.11727 0.55083 0.338 0.0
C212 C 0.07907 0.5552 0.29919 0.0
N213 N 0.08052 0.53894 0.29074 0.0
C214 C 0.06787 0.56696 0.28759 0.0
H215 H 0.1144 0.55723 0.35353 0.0
H216 H 0.13427 0.56234 0.3305 0.0
H217 H 0.11561 0.5345 0.34367 0.0
H218 H 0.08043 0.58408 0.28062 0.0
H219 H 0.05699 0.56776 0.30089 0.0
H220 H 0.058 0.55887 0.27304 0.0
C221 C 0.44817 0.56708 0.33032 0.0
N222 N 0.43961 0.54881 0.3196 0.0
N223 N 0.46982 0.58006 0.32404 0.0
C224 C 0.43522 0.57302 0.34569 0.0
C225 C 0.47412 0.56878 0.30951 0.0
N226 N 0.45583 0.54976 0.30687 0.0
C227 C 0.49573 0.5773 0.296 0.0
H228 H 0.42998 0.5834 0.33464 0.0
H229 H 0.44534 0.58255 0.35937 0.0
H230 H 0.42047 0.55813 0.35449 0.0
H231 H 0.50933 0.59028 0.30449 0.0
H232 H 0.49498 0.58421 0.27778 0.0
H233 H 0.499 0.56365 0.29484 0.0
O234 O 0.53943 0.02444 0.97477 0.0
Mg235 Mg 0.53808 0.00371 0.00542 0.0
O236 O 0.50528 0.01558 0.98254 0.0
Mg237 Mg 0.50503 0.00455 0.02284 0.0
O238 O 0.51074 0.9747 0.01769 0.0
O239 O 0.53905 0.97787 0.99603 0.0
O240 O 0.50645 0.99094 0.06273 0.0
O241 O 0.46828 0.97801 0.02302 0.0
Mg242 Mg 0.4897 0.01369 0.05639 0.0
O243 O 0.49623 0.033 0.02471 0.0
O244 O 0.51475 0.01956 0.07963 0.0
O245 O 0.46108 0.98183 0.05895 0.0
O246 O 0.48111 0.03679 0.05698 0.0
C247 C 0.55921 0.0348 0.03124 0.0
C248 C 0.52244 0.02491 0.96855 0.0
C249 C 0.52078 0.96581 0.0085 0.0
C250 C 0.51361 0.00121 0.08039 0.0
C251 C 0.45522 0.9714 0.04135 0.0
C252 C 0.48822 0.04311 0.03514 0.0
O253 O 0.56075 0.01795 0.03041 0.0
O254 O 0.54146 0.03425 0.02535 0.0
O255 O 0.00409 0.54114 0.94624 0.0
Mg256 Mg -0.00483 0.54923 0.97595 0.0
O257 O -0.01326 0.50941 0.9689 0.0
Mg258 Mg -0.00406 0.51796 0.00795 0.0
O259 O 0.01679 0.55668 0.00163 0.0
O260 O 0.01257 0.58165 0.97733 0.0
O261 O 0.00657 0.52791 0.04641 0.0
O262 O 0.02783 0.5186 0.99884 0.0
Mg263 Mg -0.00426 0.49025 0.04017 0.0
O264 O 0.97453 0.47865 0.01442 0.0
O265 O 0.98369 0.4978 0.0687 0.0
O266 O 0.03 0.50299 0.0335 0.0
O267 O 0.98077 0.45754 0.04241 0.0
C268 C 0.95273 0.5233 0.00385 0.0
C269 C -0.00634 0.5205 0.94838 0.0
C270 C 0.02286 0.57705 0.9937 0.0
C271 C -0.00288 0.51803 0.06668 0.0
C272 C 0.03852 0.51311 0.01322 0.0
C273 C 0.97004 0.45932 0.02482 0.0
O274 O 0.96146 0.53555 0.98453 0.0
O275 O 0.96337 0.51671 0.01712 0.0
O276 O 0.48469 0.46878 0.09105 0.0
Mg277 Mg 0.46296 0.45804 0.06424 0.0
O278 O 0.48305 0.49617 0.07151 0.0
Mg279 Mg 0.48414 0.48972 0.03189 0.0
O280 O 0.4725 0.45132 0.03454 0.0
O281 O 0.45072 0.42582 0.06454 0.0
O282 O 0.48758 0.48721 0.99165 0.0
O283 O 0.51817 0.49313 0.03899 0.0
Mg284 Mg 0.5223 0.53229 0.00758 0.0
O285 O 0.49504 0.52701 0.02603 0.0
O286 O 0.5151 0.51946 0.97552 0.0
O287 O 0.54406 0.5277 0.02927 0.0
O288 O 0.52146 0.56015 0.00884 0.0
C289 C 0.43391 0.47442 0.04415 0.0
C290 C 0.48662 0.48745 0.09057 0.0
C291 C 0.46128 0.4309 0.04434 0.0
C292 C 0.49997 0.50016 0.97374 0.0
C293 C 0.53795 0.50841 0.03903 0.0
C294 C 0.50315 0.54814 0.02128 0.0
O295 O 0.43651 0.46416 0.06244 0.0
O296 O 0.4491 0.48432 0.02768 0.0
O297 O 0.20669 0.35286 0.30609 0.0
Mg298 Mg 0.2046 0.33545 0.33958 0.0
O299 O 0.17258 0.34489 0.31162 0.0
Mg300 Mg 0.17108 0.33708 0.35274 0.0
O301 O 0.17732 0.30673 0.35271 0.0
O302 O 0.20695 0.30925 0.33453 0.0
O303 O 0.17128 0.32743 0.39405 0.0
O304 O 0.13451 0.30983 0.35289 0.0
Mg305 Mg 0.15209 0.34891 0.38313 0.0
O306 O 0.16177 0.36509 0.34968 0.0
O307 O 0.17556 0.35623 0.40831 0.0
O308 O 0.12424 0.31659 0.38579 0.0
O309 O 0.14444 0.37292 0.37655 0.0
C310 C 0.22459 0.36909 0.36243 0.0
C311 C 0.1899 0.35276 0.29808 0.0
C312 C 0.18814 0.29758 0.34606 0.0
C313 C 0.17624 0.33868 0.4111 0.0
C314 C 0.12018 0.30453 0.36971 0.0
C315 C 0.15359 0.37681 0.35575 0.0
O316 O 0.22653 0.35227 0.36413 0.0
O317 O 0.20696 0.36771 0.35482 0.0
O318 O 0.67599 0.87549 0.27901 0.0
Mg319 Mg 0.66432 0.8811 0.30932 0.0
O320 O 0.65468 0.84309 0.29899 0.0
Mg321 Mg 0.66172 0.84653 0.33917 0.0
O322 O 0.68269 0.88494 0.33779 0.0
O323 O 0.68092 0.91251 0.3156 0.0
O324 O 0.66844 0.84638 0.37931 0.0
O325 O 0.69534 0.85005 0.32916 0.0
Mg326 Mg 0.66573 0.80516 0.35636 0.0
O327 O 0.6408 0.80882 0.34344 0.0
O328 O 0.6717 0.81678 0.3893 0.0
O329 O 0.69161 0.81706 0.33064 0.0
O330 O 0.63794 0.77606 0.35402 0.0
C331 C 0.61934 0.8522 0.33314 0.0
C332 C 0.66383 0.85509 0.27935 0.0
C333 C 0.68944 0.90579 0.33227 0.0
C334 C 0.67168 0.83365 0.39459 0.0
C335 C 0.70247 0.83757 0.32431 0.0
C336 C 0.62921 0.78758 0.34592 0.0
O337 O 0.62999 0.86586 0.31515 0.0
O338 O 0.62858 0.84463 0.3475 0.0
O339 O 0.15209 0.80592 0.42216 0.0
Mg340 Mg 0.12892 0.79167 0.39741 0.0
O341 O 0.14904 0.8315 0.40034 0.0
Mg342 Mg 0.14887 0.82135 0.36215 0.0
O343 O 0.13772 0.78317 0.36867 0.0
O344 O 0.11821 0.75944 0.40081 0.0
O345 O 0.14837 0.81066 0.32345 0.0
O346 O 0.18354 0.82745 0.36771 0.0
Mg347 Mg 0.16963 0.8481 0.32881 0.0
O348 O 0.16101 0.86007 0.35503 0.0
O349 O 0.14789 0.83788 0.30208 0.0
O350 O 0.19498 0.83973 0.33066 0.0
O351 O 0.18549 0.88086 0.32458 0.0
C352 C 0.09847 0.80531 0.37523 0.0
C353 C 0.15351 0.82446 0.41994 0.0
C354 C 0.12765 0.76333 0.38016 0.0
C355 C 0.14568 0.81904 0.30355 0.0
C356 C 0.19781 0.83291 0.35106 0.0
C357 C 0.17442 0.87928 0.34326 0.0
O358 O 0.10149 0.79626 0.39424 0.0
O359 O 0.11352 0.81488 0.35863 0.0
O360 O 0.82342 0.65852 0.62596 0.0
Mg361 Mg 0.84801 0.66098 0.64841 0.0
O362 O 0.83271 0.68559 0.64586 0.0
Mg363 Mg 0.83623 0.67115 0.68435 0.0
O364 O 0.84075 0.64018 0.67935 0.0
O365 O 0.85303 0.63598 0.64533 0.0
O366 O 0.84014 0.65752 0.72285 0.0
O367 O 0.79875 0.64702 0.68927 0.0
Mg368 Mg 0.82468 0.68381 0.72149 0.0
O369 O 0.83181 0.70182 0.68902 0.0
O370 O 0.85056 0.68564 0.74148 0.0
O371 O 0.79321 0.6547 0.72398 0.0
O372 O 0.82251 0.71114 0.72139 0.0
C373 C 0.88625 0.70075 0.66215 0.0
C374 C 0.8256 0.67709 0.62714 0.0
C375 C 0.84673 0.62926 0.66733 0.0
C376 C 0.84887 0.66725 0.74048 0.0
C377 C 0.7861 0.64318 0.70728 0.0
C378 C 0.82771 0.71508 0.69906 0.0
O379 O 0.8792 0.69035 0.64469 0.0
O380 O 0.87353 0.6954 0.68047 0.0
O381 O 0.34292 0.20759 0.61057 0.0
Mg382 Mg 0.33539 0.21719 0.64048 0.0
O383 O 0.32366 0.17616 0.63317 0.0
Mg384 Mg 0.33047 0.18263 0.67268 0.0
O385 O 0.35421 0.22128 0.66853 0.0
O386 O 0.35628 0.24884 0.64237 0.0
O387 O 0.33763 0.18964 0.71284 0.0
O388 O 0.36207 0.18177 0.66595 0.0
Mg389 Mg 0.32697 0.15336 0.70314 0.0
O390 O 0.3069 0.14335 0.67605 0.0
O391 O 0.31332 0.15832 0.73227 0.0
O392 O 0.36119 0.16485 0.70075 0.0
O393 O 0.3129 0.12105 0.70261 0.0
C394 C 0.2918 0.19559 0.66646 0.0
C395 C 0.33157 0.18699 0.61276 0.0
C396 C 0.36308 0.24218 0.66079 0.0
C397 C 0.32692 0.17833 0.73224 0.0
C398 C 0.37141 0.17529 0.68119 0.0
C399 C 0.30272 0.12372 0.68494 0.0
O400 O 0.30326 0.20958 0.64902 0.0
O401 O 0.29862 0.18402 0.67838 0.0
O402 O 0.77482 0.12318 0.74897 0.0
Mg403 Mg 0.76739 0.10975 0.71728 0.0
O404 O 0.80301 0.15401 0.73141 0.0
Mg405 Mg 0.80851 0.1497 0.69261 0.0
O406 O 0.79388 0.11175 0.70043 0.0
O407 O 0.76527 0.08027 0.71756 0.0
O408 O 0.81316 0.14262 0.65346 0.0
O409 O 0.84022 0.15059 0.70435 0.0
Mg410 Mg 0.83785 0.18037 0.66383 0.0
O411 O 0.8237 0.18901 0.68815 0.0
O412 O 0.82313 0.17403 0.63208 0.0
O413 O 0.8617 0.17157 0.6732 0.0
O414 O 0.85299 0.21275 0.6636 0.0
C415 C 0.756 0.13561 0.68206 0.0
C416 C 0.79043 0.14249 0.74971 0.0
C417 C 0.7841 0.0905 0.70586 0.0
C418 C 0.8163 0.15384 0.63317 0.0
C419 C 0.85851 0.15951 0.69259 0.0
C420 C 0.83848 0.2091 0.67978 0.0
O421 O 0.74809 0.11686 0.69417 0.0
O422 O 0.77646 0.14944 0.68106 0.0
H423 H 0.24845 0.83431 0.03184 0.0
H424 H 0.28666 0.86433 0.02648 0.0
H425 H 0.29902 0.84148 0.09499 0.0
H426 H 0.26101 0.81085 0.09986 0.0
H427 H 0.31761 0.89009 0.08222 0.0
H428 H 0.31306 0.82639 0.05301 0.0
H429 H 0.29733 0.79676 0.02816 0.0
H430 H 0.31719 0.84452 0.96607 0.0
H431 H 0.33267 0.87445 0.99061 0.0
H432 H 0.43115 0.9437 0.08022 0.0
H433 H 0.39274 0.91499 0.08334 0.0
H434 H 0.38969 0.92782 0.00821 0.0
H435 H 0.42869 0.95612 0.0049 0.0
H436 H 0.36529 0.88564 0.02212 0.0
H437 H 0.37046 0.94906 0.04759 0.0
H438 H 0.38422 0.98058 0.06973 0.0
H439 H 0.36144 0.93668 0.13495 0.0
H440 H 0.3478 0.90488 0.1132 0.0
C441 C 0.25935 0.83583 0.04575 0.0
C442 C 0.25195 0.82024 0.06616 0.0
C443 C 0.28107 0.85296 0.04273 0.0
C444 C 0.29565 0.85495 0.06025 0.0
C445 C 0.28796 0.84018 0.08129 0.0
C446 C 0.26627 0.82282 0.08414 0.0
C447 C 0.3192 0.8716 0.05601 0.0
C448 C 0.32814 0.88903 0.06932 0.0
C449 C 0.33262 0.87061 0.03844 0.0
C450 C 0.32383 0.85264 0.02367 0.0
C451 C 0.31393 0.83057 0.03407 0.0
C452 C 0.30507 0.81372 0.02004 0.0
C453 C 0.30621 0.81875 0.99555 0.0
C454 C 0.31629 0.84065 0.98504 0.0
C455 C 0.32512 0.85756 0.999 0.0
C456 C 0.42237 0.94023 0.06431 0.0
C457 C 0.43282 0.95229 0.04235 0.0
C458 C 0.40036 0.9239 0.06613 0.0
C459 C 0.38808 0.91967 0.04613 0.0
C460 C 0.39876 0.93091 0.02394 0.0
C461 C 0.42102 0.94705 0.02204 0.0
C462 C 0.36402 0.90406 0.04875 0.0
C463 C 0.35487 0.88684 0.03505 0.0
C464 C 0.35025 0.90553 0.06557 0.0
C465 C 0.35827 0.92459 0.07876 0.0
C466 C 0.36851 0.94613 0.06666 0.0
C467 C 0.37628 0.96404 0.07914 0.0
C468 C 0.37375 0.96064 0.10374 0.0
C469 C 0.3634 0.9393 0.1159 0.0
C470 C 0.35563 0.92131 0.1035 0.0
H471 H 0.37978 0.97453 0.11337 0.0
H472 H 0.29933 0.80568 0.98472 0.0
H473 H 0.15051 0.42726 0.00286 0.0
H474 H 0.13089 0.44743 0.99205 0.0
H475 H 0.18393 0.50534 0.0152 0.0
H476 H 0.2033 0.48512 0.02598 0.0
H477 H 0.14316 0.49119 0.03722 0.0
H478 H 0.17567 0.50663 0.95879 0.0
H479 H 0.18523 0.49724 0.92227 0.0
H480 H 0.11695 0.45702 0.91149 0.0
H481 H 0.10695 0.46589 0.94815 0.0
H482 H 0.07999 0.54173 0.02344 0.0
H483 H 0.11268 0.53877 0.01608 0.0
H484 H 0.07407 0.48293 0.97976 0.0
H485 H 0.04203 0.48695 0.98575 0.0
H486 H 0.11338 0.50253 0.96152 0.0
H487 H 0.08036 0.47839 0.04135 0.0
H488 H 0.06768 0.4829 0.07927 0.0
H489 H 0.13308 0.5334 0.08907 0.0
H490 H 0.14607 0.52937 0.05104 0.0
C491 C 0.15801 0.44442 0.00505 0.0
C492 C 0.17823 0.45485 0.01507 0.0
C493 C 0.14697 0.45592 0.99883 0.0
C494 C 0.15612 0.47789 0.0027 0.0
C495 C 0.17674 0.48847 0.01194 0.0
C496 C 0.18775 0.47702 0.01802 0.0
C497 C 0.14299 0.48888 9e-05 0.0
C498 C 0.13705 0.49418 0.02056 0.0
C499 C 0.13458 0.49206 0.97848 0.0
C500 C 0.14056 0.48683 0.95632 0.0
C501 C 0.16268 0.49565 0.94874 0.0
C502 C 0.16818 0.49044 0.92798 0.0
C503 C 0.15171 0.47652 0.91459 0.0
C504 C 0.12969 0.4678 0.92189 0.0
C505 C 0.1241 0.47294 0.94263 0.0
C506 C 0.07888 0.52939 0.01319 0.0
C507 C 0.0588 0.51452 0.00513 0.0
C508 C 0.0974 0.52758 0.00912 0.0
C509 C 0.09566 0.51024 0.99793 0.0
C510 C 0.07584 0.49641 0.98845 0.0
C511 C 0.05754 0.49863 0.99193 0.0
C512 C 0.11322 0.50452 0.99876 0.0
C513 C 0.11992 0.50007 0.97805 0.0
C514 C 0.12188 0.50144 0.02033 0.0
C515 C 0.11412 0.50378 0.04324 0.0
C516 C 0.092 0.49054 0.05154 0.0
C517 C 0.08476 0.49301 0.07304 0.0
C518 C 0.09955 0.50848 0.08652 0.0
C519 C 0.12163 0.52147 0.07857 0.0
C520 C 0.12894 0.51911 0.05705 0.0
H521 H 0.09392 0.51036 0.10316 0.0
H522 H 0.156 0.4725 0.89853 0.0
H523 H 0.50707 0.72659 0.04531 0.0
H524 H 0.4905 0.68809 0.03928 0.0
H525 H 0.55456 0.69866 0.0198 0.0
H526 H 0.57078 0.73758 0.02413 0.0
H527 H 0.52631 0.66992 0.99596 0.0
H528 H 0.53135 0.6797 0.07723 0.0
H529 H 0.52534 0.69292 0.11278 0.0
H530 H 0.45569 0.65282 0.10974 0.0
H531 H 0.4613 0.63963 0.07391 0.0
H532 H 0.50939 0.56512 0.06194 0.0
H533 H 0.5079 0.59828 0.06599 0.0
H534 H 0.47343 0.59138 0.00237 0.0
H535 H 0.47544 0.55846 0.99808 0.0
H536 H 0.48338 0.61742 0.06682 0.0
H537 H 0.50167 0.63953 0.96568 0.0
H538 H 0.51497 0.62832 0.93316 0.0
H539 H 0.54941 0.60695 0.98159 0.0
H540 H 0.53658 0.61831 0.01426 0.0
C541 C 0.51742 0.72078 0.03895 0.0
C542 C 0.54018 0.73482 0.03544 0.0
C543 C 0.50803 0.69877 0.0358 0.0
C544 C 0.52135 0.69033 0.02974 0.0
C545 C 0.54395 0.70473 0.02468 0.0
C546 C 0.55325 0.72686 0.02737 0.0
C547 C 0.51217 0.66631 0.03062 0.0
C548 C 0.51667 0.65843 0.01133 0.0
C549 C 0.50016 0.65134 0.05096 0.0
C550 C 0.49673 0.65884 0.07278 0.0
C551 C 0.51475 0.67378 0.08409 0.0
C552 C 0.51142 0.68127 0.10428 0.0
C553 C 0.49014 0.67375 0.11349 0.0
C554 C 0.47216 0.65866 0.10256 0.0
C555 C 0.4754 0.65116 0.08232 0.0
C556 C 0.50034 0.56997 0.04966 0.0
C557 C 0.49244 0.55934 0.02978 0.0
C558 C 0.49961 0.58901 0.05187 0.0
C559 C 0.49108 0.5976 0.03411 0.0
C560 C 0.48037 0.58517 0.01606 0.0
C561 C 0.48126 0.56622 0.01378 0.0
C562 C 0.49727 0.62105 0.03206 0.0
C563 C 0.49242 0.62885 0.05119 0.0
C564 C 0.50992 0.63614 0.01204 0.0
C565 C 0.51788 0.62946 0.99243 0.0
C566 C 0.5121 0.63246 0.96935 0.0
C567 C 0.51957 0.6261 0.9509 0.0
C568 C 0.53294 0.61683 0.95533 0.0
C569 C 0.53897 0.61403 0.97819 0.0
C570 C 0.5316 0.62042 0.99668 0.0
H571 H 0.53868 0.61189 0.94103 0.0
H572 H 0.48759 0.67958 0.12911 0.0
H573 H 0.83208 0.26196 0.02309 0.0
H574 H 0.85681 0.30066 0.02762 0.0
H575 H 0.82898 0.32071 0.96906 0.0
H576 H 0.80457 0.28193 0.96454 0.0
H577 H 0.87255 0.34368 0.96427 0.0
H578 H 0.81815 0.32607 0.02443 0.0
H579 H 0.79242 0.30457 0.05901 0.0
H580 H 0.84628 0.31495 0.10139 0.0
H581 H 0.87235 0.33621 0.06696 0.0
H582 H 0.94056 0.45524 0.99127 0.0
H583 H 0.90839 0.42104 0.98304 0.0
H584 H 0.92607 0.38379 0.03475 0.0
H585 H 0.95786 0.41739 0.04303 0.0
H586 H 0.88265 0.37273 0.04057 0.0
H587 H 0.93597 0.38585 0.97738 0.0
H588 H 0.96107 0.40803 0.94249 0.0
H589 H 0.90753 0.40705 0.90553 0.0
H590 H 0.88215 0.38511 0.94033 0.0
C591 C 0.83114 0.27476 0.01159 0.0
C592 C 0.81655 0.26938 0.99369 0.0
C593 C 0.84514 0.29675 0.01411 0.0
C594 C 0.84457 0.31355 0.99878 0.0
C595 C 0.82965 0.30802 0.98108 0.0
C596 C 0.8157 0.28604 0.97859 0.0
C597 C 0.86034 0.33685 0.00059 0.0
C598 C 0.87447 0.35019 0.98084 0.0
C599 C 0.86282 0.34532 0.02217 0.0
C600 C 0.84722 0.33264 0.04303 0.0
C601 C 0.82452 0.32364 0.04107 0.0
C602 C 0.80986 0.31151 0.06066 0.0
C603 C 0.81771 0.30837 0.08237 0.0
C604 C 0.84023 0.31739 0.08455 0.0
C605 C 0.85496 0.32951 0.06501 0.0
C606 C 0.93765 0.43972 0.00069 0.0
C607 C 0.95171 0.43905 0.01786 0.0
C608 C 0.91929 0.42026 0.99602 0.0
C609 C 0.91483 0.39997 0.00846 0.0
C610 C 0.92911 0.39931 0.02516 0.0
C611 C 0.94737 0.41859 0.02976 0.0
C612 C 0.8953 0.37914 0.00456 0.0
C613 C 0.88041 0.36631 0.02392 0.0
C614 C 0.89202 0.37124 0.98259 0.0
C615 C 0.90722 0.38409 0.96155 0.0
C616 C 0.92958 0.39051 0.96187 0.0
C617 C 0.94385 0.40301 0.9421 0.0
C618 C 0.93591 0.40903 0.92183 0.0
C619 C 0.91366 0.40244 0.92125 0.0
C620 C 0.89933 0.38996 0.94099 0.0
H621 H 0.94698 0.41874 0.90655 0.0
H622 H 0.80633 0.29897 0.09752 0.0
H623 H 0.70948 0.52079 0.98675 0.0
H624 H 0.67216 0.50482 0.00494 0.0
H625 H 0.69737 0.55002 0.05607 0.0
H626 H 0.73464 0.56579 0.03788 0.0
H627 H 0.65059 0.48717 0.05374 0.0
H628 H 0.66692 0.57548 0.04973 0.0
H629 H 0.69066 0.61223 0.02725 0.0
H630 H 0.69399 0.58272 0.96743 0.0
H631 H 0.67004 0.54588 0.98943 0.0
H632 H 0.56764 0.53069 0.06938 0.0
H633 H 0.60151 0.53004 0.07658 0.0
H634 H 0.58031 0.47619 0.03616 0.0
H635 H 0.54586 0.47611 0.03009 0.0
H636 H 0.62608 0.54188 0.03787 0.0
H637 H 0.61417 0.45431 0.04253 0.0
H638 H 0.58951 0.4168 0.06265 0.0
H639 H 0.57456 0.44302 0.11897 0.0
H640 H 0.59928 0.48068 0.09934 0.0
C641 C 0.70689 0.52697 0.00207 0.0
C642 C 0.72449 0.5446 0.01087 0.0
C643 C 0.68579 0.51771 0.01261 0.0
C644 C 0.68217 0.52626 0.03182 0.0
C645 C 0.69998 0.54317 0.04133 0.0
C646 C 0.72108 0.55226 0.03092 0.0
C647 C 0.65969 0.52028 0.03922 0.0
C648 C 0.64504 0.499 0.05036 0.0
C649 C 0.65276 0.53586 0.0348 0.0
C650 C 0.66699 0.55796 0.02136 0.0
C651 C 0.67272 0.57687 0.03178 0.0
C652 C 0.68619 0.5977 0.01911 0.0
C653 C 0.69392 0.5998 0.99597 0.0
C654 C 0.6881 0.58108 0.9854 0.0
C655 C 0.67461 0.56022 0.99797 0.0
C656 C 0.56987 0.5181 0.063 0.0
C657 C 0.55454 0.50368 0.04893 0.0
C658 C 0.58913 0.51767 0.06716 0.0
C659 C 0.59357 0.50329 0.05663 0.0
C660 C 0.57717 0.48729 0.04466 0.0
C661 C 0.55757 0.48734 0.04104 0.0
C662 C 0.6166 0.50871 0.05306 0.0
C663 C 0.63148 0.53 0.04207 0.0
C664 C 0.62343 0.49295 0.05739 0.0
C665 C 0.6085 0.47035 0.06936 0.0
C666 C 0.6057 0.45209 0.05926 0.0
C667 C 0.5917 0.43079 0.07057 0.0
C668 C 0.5805 0.42754 0.09208 0.0
C669 C 0.58322 0.44557 0.10229 0.0
C670 C 0.59718 0.4669 0.09104 0.0
H671 H 0.5697 0.41104 0.10083 0.0
H672 H 0.70435 0.61594 0.9862 0.0
H673 H 0.41785 0.16933 0.00089 0.0
H674 H 0.42816 0.14084 0.00306 0.0
H675 H 0.46088 0.16761 0.93368 0.0
H676 H 0.45108 0.19659 0.93185 0.0
H677 H 0.42796 0.11073 0.95934 0.0
H678 H 0.49787 0.18396 0.95496 0.0
H679 H 0.51623 0.22125 0.96626 0.0
H680 H 0.49702 0.19393 0.03909 0.0
H681 H 0.47834 0.1565 0.02811 0.0
H682 H 0.48758 0.05301 0.98721 0.0
H683 H 0.47933 0.08057 0.96699 0.0
H684 H 0.47534 0.10109 0.03375 0.0
H685 H 0.48348 0.07392 0.05383 0.0
H686 H 0.49664 0.13579 0.00088 0.0
H687 H 0.43096 0.06564 0.01017 0.0
H688 H 0.40666 0.02692 0.00512 0.0
H689 H 0.41074 0.04524 0.93029 0.0
H690 H 0.43568 0.0841 0.93482 0.0
C691 C 0.42687 0.1688 0.98598 0.0
C692 C 0.43382 0.18508 0.96629 0.0
C693 C 0.43259 0.1525 0.98713 0.0
C694 C 0.44521 0.15217 0.96851 0.0
C695 C 0.45095 0.16754 0.94811 0.0
C696 C 0.44533 0.184 0.94704 0.0
C697 C 0.45512 0.13802 0.97232 0.0
C698 C 0.44334 0.11626 0.9677 0.0
C699 C 0.47467 0.14515 0.98407 0.0
C700 C 0.48672 0.16753 0.99072 0.0
C701 C 0.49757 0.18595 0.97336 0.0
C702 C 0.508 0.20709 0.9797 0.0
C703 C 0.50779 0.20996 0.00338 0.0
C704 C 0.4972 0.19168 0.02076 0.0
C705 C 0.48672 0.17052 0.0145 0.0
C706 C 0.48528 0.06368 0.99745 0.0
C707 C 0.48605 0.06123 0.02212 0.0
C708 C 0.48046 0.0793 0.98591 0.0
C709 C 0.47657 0.09278 0.9989 0.0
C710 C 0.47831 0.09092 0.02336 0.0
C711 C 0.48288 0.07529 0.03484 0.0
C712 C 0.46971 0.10826 0.98767 0.0
C713 C 0.48186 0.13031 0.99139 0.0
C714 C 0.4502 0.10113 0.97557 0.0
C715 C 0.43562 0.07773 0.97277 0.0
C716 C 0.42703 0.06139 0.99258 0.0
C717 C 0.4131 0.03942 0.98982 0.0
C718 C 0.40732 0.03361 0.96737 0.0
C719 C 0.41541 0.04977 0.94764 0.0
C720 C 0.4295 0.07176 0.95029 0.0
H721 H 0.39646 0.0166 0.96527 0.0
H722 H 0.51582 0.22634 0.00825 0.0
H723 H 0.73861 0.21924 0.97517 0.0
H724 H 0.70018 0.18985 0.98341 0.0
H725 H 0.72183 0.14366 0.00618 0.0
H726 H 0.76014 0.17319 0.99814 0.0
H727 H 0.68598 0.12617 0.97939 0.0
H728 H 0.70876 0.16651 0.04569 0.0
H729 H 0.72412 0.20015 0.0645 0.0
H730 H 0.67179 0.21081 0.04109 0.0
H731 H 0.65632 0.17741 0.02175 0.0
H732 H 0.59786 0.04039 0.04714 0.0
H733 H 0.63343 0.07396 0.04055 0.0
H734 H 0.60229 0.11035 0.0127 0.0
H735 H 0.56641 0.07666 0.01917 0.0
H736 H 0.6413 0.13424 0.04006 0.0
H737 H 0.61806 0.09349 0.97446 0.0
H738 H 0.60254 0.05962 0.95604 0.0
H739 H 0.6558 0.04995 0.97806 0.0
H740 H 0.67141 0.08357 0.99702 0.0
C741 C 0.73496 0.20269 0.98158 0.0
C742 C 0.75203 0.1982 0.98585 0.0
C743 C 0.71315 0.186 0.98636 0.0
C744 C 0.7082 0.16463 0.99561 0.0
C745 C 0.72531 0.16001 0.99897 0.0
C746 C 0.7471 0.17674 0.99426 0.0
C747 C 0.68531 0.14731 0.00294 0.0
C748 C 0.67629 0.1279 0.99274 0.0
C749 C 0.6725 0.14978 0.02003 0.0
C750 C 0.68151 0.16959 0.03207 0.0
C751 C 0.70061 0.17611 0.04441 0.0
C752 C 0.70933 0.19512 0.05518 0.0
C753 C 0.69896 0.20764 0.05394 0.0
C754 C 0.67981 0.20111 0.042 0.0
C755 C 0.67106 0.18214 0.03114 0.0
C756 C 0.59845 0.05562 0.04021 0.0
C757 C 0.57938 0.0558 0.03325 0.0
C758 C 0.6188 0.07479 0.03648 0.0
C759 C 0.62045 0.09447 0.02574 0.0
C760 C 0.60129 0.09525 0.02094 0.0
C761 C 0.58082 0.07599 0.02465 0.0
C762 C 0.64221 0.1131 0.0167 0.0
C763 C 0.65097 0.13267 0.02654 0.0
C764 C 0.65482 0.11087 0.99921 0.0
C765 C 0.6458 0.09094 0.98733 0.0
C766 C 0.62638 0.08406 0.97551 0.0
C767 C 0.61757 0.06491 0.96497 0.0
C768 C 0.62815 0.05262 0.96592 0.0
C769 C 0.64761 0.05949 0.97736 0.0
C770 C 0.65645 0.07859 0.988 0.0
H771 H 0.62131 0.03779 0.95776 0.0
H772 H 0.70575 0.22236 0.06228 0.0
H773 H 0.79356 0.54489 0.96347 0.0
H774 H 0.82309 0.53665 0.97079 0.0
H775 H 0.84078 0.57351 0.02959 0.0
H776 H 0.81164 0.58248 0.02154 0.0
H777 H 0.87675 0.57783 0.00541 0.0
H778 H 0.80728 0.52011 0.04016 0.0
H779 H 0.76775 0.4937 0.04032 0.0
H780 H 0.78053 0.46179 0.98853 0.0
H781 H 0.82014 0.48825 0.98777 0.0
H782 H 0.93926 0.52998 0.0448 0.0
H783 H 0.90646 0.53318 0.05039 0.0
H784 H 0.88448 0.50922 0.98416 0.0
H785 H 0.91736 0.50657 0.9783 0.0
H786 H 0.84956 0.49761 0.01982 0.0
H787 H 0.91694 0.55986 0.97959 0.0
H788 H 0.9566 0.58629 0.97816 0.0
H789 H 0.94725 0.60944 0.04054 0.0
H790 H 0.90754 0.58282 0.04254 0.0
C791 C 0.80432 0.55189 0.97735 0.0
C792 C 0.8005 0.56421 0.99205 0.0
C793 C 0.82094 0.54698 0.98172 0.0
C794 C 0.83364 0.55401 0.00112 0.0
C795 C 0.83097 0.56779 0.01469 0.0
C796 C 0.81443 0.57287 0.01015 0.0
C797 C 0.84837 0.54545 0.00827 0.0
C798 C 0.87075 0.56032 0.00907 0.0
C799 C 0.84045 0.52257 0.01297 0.0
C800 C 0.81669 0.50623 0.01384 0.0
C801 C 0.80166 0.50751 0.02874 0.0
C802 C 0.77924 0.49254 0.02893 0.0
C803 C 0.77163 0.47609 0.01443 0.0
C804 C 0.78645 0.47454 0.99976 0.0
C805 C 0.8089 0.4895 0.99947 0.0
C806 C 0.92688 0.52448 0.03204 0.0
C807 C 0.93066 0.51822 0.01107 0.0
C808 C 0.90825 0.52634 0.0352 0.0
C809 C 0.8933 0.52164 0.01753 0.0
C810 C 0.89584 0.51284 0.99797 0.0
C811 C 0.9146 0.51141 0.99461 0.0
C812 C 0.87788 0.52999 0.01662 0.0
C813 C 0.8554 0.51511 0.01684 0.0
C814 C 0.88566 0.55284 0.0129 0.0
C815 C 0.90938 0.56921 0.01138 0.0
C816 C 0.92338 0.5705 0.99308 0.0
C817 C 0.94585 0.58551 0.99216 0.0
C818 C 0.95445 0.5995 0.00929 0.0
C819 C 0.94057 0.59856 0.02732 0.0
C820 C 0.91809 0.58351 0.02836 0.0
H821 H 0.97186 0.6111 0.00856 0.0
H822 H 0.75426 0.46453 0.01458 0.0
H823 H 0.40978 0.24175 0.00805 0.0
H824 H 0.41881 0.27811 0.01732 0.0
H825 H 0.48178 0.30668 0.97913 0.0
H826 H 0.47263 0.2701 0.97018 0.0
H827 H 0.4837 0.32651 0.01905 0.0
H828 H 0.4425 0.30896 0.95047 0.0
H829 H 0.41216 0.28617 0.92692 0.0
H830 H 0.36577 0.28538 0.97595 0.0
H831 H 0.39585 0.30818 0.99981 0.0
H832 H 0.49164 0.43264 0.01286 0.0
H833 H 0.49085 0.40118 0.9978 0.0
H834 H 0.42772 0.35777 0.03483 0.0
H835 H 0.42848 0.38873 0.04994 0.0
H836 H 0.43035 0.34873 0.98939 0.0
H837 H 0.47158 0.36302 0.05982 0.0
H838 H 0.50196 0.38676 0.08275 0.0
H839 H 0.54867 0.39419 0.02934 0.0
H840 H 0.51851 0.3707 0.00591 0.0
C841 C 0.4258 0.25576 0.00247 0.0
C842 C 0.44067 0.25343 0.9887 0.0
C843 C 0.43088 0.27646 0.00749 0.0
C844 C 0.45081 0.29509 0.99852 0.0
C845 C 0.46633 0.2925 0.98616 0.0
C846 C 0.46121 0.27174 0.98117 0.0
C847 C 0.45445 0.31727 0.00031 0.0
C848 C 0.47228 0.33155 0.01221 0.0
C849 C 0.43956 0.32383 0.99131 0.0
C850 C 0.42141 0.31016 0.977 0.0
C851 C 0.42582 0.30384 0.95629 0.0
C852 C 0.40868 0.29098 0.94285 0.0
C853 C 0.38705 0.28427 0.94998 0.0
C854 C 0.38253 0.29056 0.97047 0.0
C855 C 0.39962 0.30353 0.98391 0.0
C856 C 0.4775 0.4164 0.01744 0.0
C857 C 0.46023 0.41302 0.03274 0.0
C858 C 0.4771 0.39851 0.00893 0.0
C859 C 0.45928 0.37719 0.0154 0.0
C860 C 0.4416 0.37408 0.02967 0.0
C861 C 0.44213 0.39178 0.03838 0.0
C862 C 0.4592 0.35768 0.00872 0.0
C863 C 0.44202 0.34387 0.99583 0.0
C864 C 0.47472 0.35164 0.01673 0.0
C865 C 0.49282 0.36535 0.031 0.0
C866 C 0.48833 0.36984 0.05289 0.0
C867 C 0.5055 0.38322 0.06598 0.0
C868 C 0.52722 0.39204 0.05745 0.0
C869 C 0.53183 0.38738 0.03588 0.0
C870 C 0.51471 0.37403 0.02269 0.0
H871 H 0.54047 0.40244 0.06757 0.0
H872 H 0.3738 0.27424 0.9396 0.0
H873 H 0.20435 0.73425 0.05633 0.0
H874 H 0.17523 0.69956 0.04499 0.0
H875 H 0.13718 0.73074 0.02467 0.0
H876 H 0.16623 0.76516 0.03645 0.0
H877 H 0.11379 0.69414 0.05431 0.0
H878 H 0.16005 0.71502 0.9837 0.0
H879 H 0.1942 0.72661 0.96011 0.0
H880 H 0.1938 0.66773 0.98981 0.0
H881 H 0.15978 0.65592 0.01384 0.0
H882 H 0.03207 0.61929 0.99012 0.0
H883 H 0.06416 0.65034 0.00281 0.0
H884 H 0.08843 0.60762 0.03093 0.0
H885 H 0.05597 0.57607 0.01832 0.0
H886 H 0.11961 0.64722 0.00052 0.0
H887 H 0.0709 0.62548 0.06892 0.0
H888 H 0.03583 0.61418 0.09041 0.0
H889 H 0.04027 0.67549 0.06281 0.0
H890 H 0.07522 0.68705 0.04086 0.0
C891 C 0.19001 0.73368 0.0487 0.0
C892 C 0.1874 0.75214 0.04684 0.0
C893 C 0.17341 0.71396 0.04233 0.0
C894 C 0.15404 0.71258 0.03396 0.0
C895 C 0.15196 0.73143 0.03112 0.0
C896 C 0.16852 0.75106 0.03758 0.0
C897 C 0.13519 0.69116 0.03008 0.0
C898 C 0.11504 0.684 0.04236 0.0
C899 C 0.13701 0.6776 0.01511 0.0
C900 C 0.15752 0.68471 0.00078 0.0
C901 C 0.16736 0.70464 0.98538 0.0
C902 C 0.18667 0.71123 0.97189 0.0
C903 C 0.1962 0.69795 0.97352 0.0
C904 C 0.18642 0.67802 0.9886 0.0
C905 C 0.16712 0.67137 0.00215 0.0
C906 C 0.04412 0.61639 0.99914 0.0
C907 C 0.04157 0.59527 0.00315 0.0
C908 C 0.06241 0.63416 0.00643 0.0
C909 C 0.07857 0.63121 0.01781 0.0
C910 C 0.07606 0.61013 0.02214 0.0
C911 C 0.05752 0.59218 0.01506 0.0
C912 C 0.09827 0.65054 0.0244 0.0
C913 C 0.11853 0.65729 0.01269 0.0
C914 C 0.09656 0.66386 0.03973 0.0
C915 C 0.07564 0.65707 0.05312 0.0
C916 C 0.06433 0.6365 0.0673 0.0
C917 C 0.04448 0.63005 0.07959 0.0
C918 C 0.03581 0.64409 0.07795 0.0
C919 C 0.047 0.66463 0.06406 0.0
C920 C 0.06686 0.67115 0.05172 0.0
H921 H 0.02043 0.63907 0.08747 0.0
H922 H 0.21114 0.70307 0.96304 0.0
H923 H 0.23317 0.41303 0.0481 0.0
H924 H 0.27195 0.42328 0.05051 0.0
H925 H 0.29126 0.49136 0.03001 0.0
H926 H 0.25262 0.48129 0.02897 0.0
H927 H 0.31258 0.47093 0.00315 0.0
H928 H 0.2967 0.48283 0.08017 0.0
H929 H 0.27349 0.47084 0.11709 0.0
H930 H 0.28494 0.41671 0.13354 0.0
H931 H 0.30784 0.42809 0.0964 0.0
H932 H 0.42536 0.50477 0.01911 0.0
H933 H 0.39006 0.50395 0.01862 0.0
H934 H 0.35994 0.44182 0.0643 0.0
H935 H 0.39498 0.4431 0.06568 0.0
H936 H 0.34524 0.46482 0.07858 0.0
H937 H 0.35532 0.44748 0.00225 0.0
H938 H 0.37428 0.4539 0.96352 0.0
H939 H 0.37078 0.51261 0.94473 0.0
H940 H 0.35203 0.50666 0.98349 0.0
C941 C 0.24577 0.43014 0.04435 0.0
C942 C 0.24013 0.44635 0.03782 0.0
C943 C 0.26777 0.43596 0.0456 0.0
C944 C 0.28428 0.45802 0.04015 0.0
C945 C 0.27866 0.47424 0.03394 0.0
C946 C 0.2567 0.46847 0.03317 0.0
C947 C 0.30748 0.46411 0.04093 0.0
C948 C 0.31996 0.47002 0.01959 0.0
C949 C 0.31667 0.46243 0.06245 0.0
C950 C 0.30385 0.45622 0.08538 0.0
C951 C 0.29418 0.4683 0.09158 0.0
C952 C 0.28107 0.46161 0.11255 0.0
C953 C 0.27769 0.44299 0.12762 0.0
C954 C 0.28756 0.43112 0.12183 0.0
C955 C 0.30062 0.43769 0.10082 0.0
C956 C 0.41112 0.49096 0.02893 0.0
C957 C 0.41284 0.47398 0.04236 0.0
C958 C 0.391 0.49048 0.02867 0.0
C959 C 0.37227 0.47272 0.04133 0.0
C960 C 0.37412 0.45579 0.05458 0.0
C961 C 0.39417 0.45648 0.05523 0.0
C962 C 0.35048 0.47115 0.04062 0.0
C963 C 0.33815 0.46613 0.06204 0.0
C964 C 0.34123 0.47315 0.01911 0.0
C965 C 0.35255 0.47679 0.99586 0.0
C966 C 0.35876 0.46185 0.98992 0.0
C967 C 0.36944 0.46539 0.96796 0.0
C968 C 0.3738 0.4837 0.95171 0.0
C969 C 0.36744 0.49847 0.95736 0.0
C970 C 0.35679 0.49503 0.97931 0.0
H971 H 0.38205 0.4864 0.93471 0.0
H972 H 0.26746 0.43778 0.1438 0.0
H973 H 0.5132 0.77939 0.06749 0.0
H974 H 0.50128 0.80674 0.06619 0.0
H975 H 0.56684 0.85805 0.04178 0.0
H976 H 0.57848 0.83053 0.04266 0.0
H977 H 0.54563 0.87037 0.07455 0.0
H978 H 0.53313 0.83802 0.002 0.0
H979 H 0.51815 0.80675 0.97935 0.0
H980 H 0.45303 0.7858 0.0068 0.0
H981 H 0.46769 0.8169 0.02977 0.0
H982 H 0.52609 0.94013 0.98105 0.0
H983 H 0.52335 0.90477 0.99407 0.0
H984 H 0.49654 0.90297 0.06241 0.0
H985 H 0.49932 0.93866 0.04935 0.0
H986 H 0.49351 0.8629 0.01291 0.0
H987 H 0.52414 0.88701 0.10255 0.0
H988 H 0.54132 0.92002 0.12264 0.0
H989 H 0.57412 0.96011 0.05706 0.0
H990 H 0.55731 0.92731 0.03669 0.0
C991 C 0.52503 0.7966 0.06233 0.0
C992 C 0.5467 0.80308 0.0553 0.0
C993 C 0.51829 0.81214 0.06162 0.0
C994 C 0.53319 0.83438 0.05387 0.0
C995 C 0.55517 0.84099 0.04804 0.0
C996 C 0.56184 0.82537 0.04859 0.0
C997 C 0.52541 0.85033 0.0492 0.0
C998 C 0.53399 0.8686 0.06134 0.0
C999 C 0.51037 0.84808 0.03183 0.0
C1000 C 0.50151 0.82962 0.01776 0.0
C1001 C 0.51563 0.82667 0.0033 0.0
C1002 C 0.5072 0.809 0.99039 0.0
C1003 C 0.48467 0.79425 0.99171 0.0
C1004 C 0.47049 0.79722 0.00584 0.0
C1005 C 0.47884 0.81488 0.01877 0.0
C1006 C 0.51895 0.93188 0.99861 0.0
C1007 C 0.51312 0.94218 0.01429 0.0
C1008 C 0.51734 0.91163 0.00602 0.0
C1009 C 0.5101 0.90144 0.02931 0.0
C1010 C 0.50236 0.91071 0.0444 0.0
C1011 C 0.5038 0.93099 0.03689 0.0
C1012 C 0.51373 0.88302 0.03822 0.0
C1013 C 0.50453 0.86432 0.02673 0.0
C1014 C 0.52848 0.88507 0.05593 0.0
C1015 C 0.5393 0.90477 0.06811 0.0
C1016 C 0.53511 0.90287 0.09247 0.0
C1017 C 0.54475 0.92153 0.10389 0.0
C1018 C 0.55874 0.94215 0.09112 0.0
C1019 C 0.56323 0.94414 0.06693 0.0
C1020 C 0.55365 0.92552 0.05544 0.0
H1021 H 0.56613 0.95659 0.09998 0.0
H1022 H 0.47818 0.78055 0.98174 0.0
H1023 H 0.91373 0.16576 0.36348 0.0
H1024 H 0.95193 0.19584 0.35779 0.0
H1025 H 0.96609 0.17038 0.42371 0.0
H1026 H 0.9281 0.13978 0.42888 0.0
H1027 H 0.98441 0.21823 0.41488 0.0
H1028 H 0.97894 0.15793 0.37737 0.0
H1029 H 0.96252 0.13061 0.34989 0.0
H1030 H 0.98119 0.18235 0.29195 0.0
H1031 H -0.00265 0.20999 0.31918 0.0
H1032 H 0.09819 0.27504 0.40814 0.0
H1033 H 0.06018 0.24518 0.41187 0.0
H1034 H 0.05425 0.26061 0.33788 0.0
H1035 H 0.09295 0.28975 0.33387 0.0
H1036 H 0.03061 0.21891 0.34922 0.0
H1037 H 0.03602 0.27924 0.38293 0.0
H1038 H 0.05029 0.30859 0.40817 0.0
H1039 H 0.02972 0.26037 0.46994 0.0
H1040 H 0.0156 0.23074 0.44505 0.0
C1041 C 0.92506 0.16666 0.37671 0.0
C1042 C 0.91814 0.15042 0.39649 0.0
C1043 C 0.94677 0.18384 0.37352 0.0
C1044 C 0.96184 0.18518 0.39023 0.0
C1045 C 0.95468 0.16961 0.41063 0.0
C1046 C 0.933 0.15226 0.41365 0.0
C1047 C 0.98532 0.20211 0.38585 0.0
C1048 C -0.00537 0.21829 0.40072 0.0
C1049 C -0.00167 0.20261 0.36678 0.0
C1050 C -0.01082 0.18601 0.35034 0.0
C1051 C 0.97942 0.16348 0.35879 0.0
C1052 C 0.97017 0.14793 0.34326 0.0
C1053 C 0.97077 0.15474 0.3192 0.0
C1054 C 0.98071 0.17711 0.3106 0.0
C1055 C -0.01007 0.19272 0.32607 0.0
C1056 C 0.08885 0.27176 0.39259 0.0
C1057 C 0.09837 0.2847 0.37075 0.0
C1058 C 0.06706 0.25485 0.39477 0.0
C1059 C 0.05402 0.25108 0.37535 0.0
C1060 C 0.06387 0.26329 0.35319 0.0
C1061 C 0.08596 0.27989 0.35087 0.0
C1062 C 0.03003 0.23503 0.37855 0.0
C1063 C 0.02052 0.21901 0.3634 0.0
C1064 C 0.01665 0.23502 0.39703 0.0
C1065 C 0.02492 0.25278 0.4121 0.0
C1066 C 0.03466 0.2749 0.40189 0.0
C1067 C 0.04271 0.29159 0.41614 0.0
C1068 C 0.04096 0.28635 0.44064 0.0
C1069 C 0.03108 0.26441 0.45095 0.0
C1070 C 0.02303 0.24766 0.43679 0.0
H1071 H 0.04721 0.29929 0.45164 0.0
H1072 H 0.96358 0.14268 0.3072 0.0
H1073 H 0.87498 0.82577 0.32942 0.0
H1074 H 0.85406 0.84024 0.30773 0.0
H1075 H 0.79394 0.78414 0.33999 0.0
H1076 H 0.81486 0.76828 0.35888 0.0
H1077 H 0.7847 0.79531 0.30172 0.0
H1078 H 0.82454 0.83662 0.36323 0.0
H1079 H 0.85738 0.85892 0.38406 0.0
H1080 H 0.88389 0.90822 0.32313 0.0
H1081 H 0.85126 0.88605 0.30185 0.0
H1082 H 0.73792 0.8568 0.34891 0.0
H1083 H 0.77231 0.85788 0.34074 0.0
H1084 H 0.75265 0.84052 0.27143 0.0
H1085 H 0.71728 0.8377 0.28059 0.0
H1086 H 0.80671 0.87096 0.31593 0.0
H1087 H 0.76081 0.80005 0.26146 0.0
H1088 H 0.72279 0.77344 0.2537 0.0
H1089 H 0.70012 0.77611 0.32201 0.0
H1090 H 0.73801 0.80248 0.33024 0.0
C1091 C 0.85728 0.81611 0.33103 0.0
C1092 C 0.84648 0.79601 0.34602 0.0
C1093 C 0.84532 0.82459 0.31898 0.0
C1094 C 0.82242 0.81371 0.32279 0.0
C1095 C 0.8116 0.79301 0.33677 0.0
C1096 C 0.82353 0.78409 0.34793 0.0
C1097 C 0.80978 0.82453 0.31425 0.0
C1098 C 0.78969 0.81196 0.30457 0.0
C1099 C 0.81605 0.8462 0.31817 0.0
C1100 C 0.83565 0.85957 0.33086 0.0
C1101 C 0.83745 0.85216 0.35425 0.0
C1102 C 0.856 0.86477 0.36613 0.0
C1103 C 0.87275 0.88494 0.35489 0.0
C1104 C 0.87093 0.89257 0.33178 0.0
C1105 C 0.85242 0.87999 0.3198 0.0
C1106 C 0.74139 0.85414 0.33159 0.0
C1107 C 0.72513 0.8469 0.31546 0.0
C1108 C 0.76109 0.85481 0.32684 0.0
C1109 C 0.76474 0.8485 0.30575 0.0
C1110 C 0.74986 0.8448 0.28808 0.0
C1111 C 0.72979 0.84337 0.29319 0.0
C1112 C 0.78111 0.84122 0.3049 0.0
C1113 C 0.80207 0.85457 0.3124 0.0
C1114 C 0.77487 0.81957 0.30097 0.0
C1115 C 0.75214 0.80344 0.29627 0.0
C1116 C 0.74769 0.7949 0.2748 0.0
C1117 C 0.72618 0.77986 0.27034 0.0
C1118 C 0.70904 0.77316 0.28731 0.0
C1119 C 0.71339 0.78135 0.30885 0.0
C1120 C 0.73487 0.79632 0.31343 0.0
H1121 H 0.6924 0.76158 0.28379 0.0
H1122 H 0.8871 0.89469 0.36412 0.0
H1123 H 0.23744 0.0777 0.34736 0.0
H1124 H 0.22427 0.03943 0.34164 0.0
H1125 H 0.167 0.01829 0.38788 0.0
H1126 H 0.18048 0.05655 0.39376 0.0
H1127 H 0.18754 0.99528 0.40027 0.0
H1128 H 0.16157 0.01539 0.33004 0.0
H1129 H 0.16375 0.03814 0.29282 0.0
H1130 H 0.21309 0.02745 0.2636 0.0
H1131 H 0.21146 0.00491 0.30077 0.0
H1132 H 0.1474 0.88409 0.37373 0.0
H1133 H 0.15013 0.91887 0.38089 0.0
H1134 H 0.20962 0.95488 0.33568 0.0
H1135 H 0.20698 0.9207 0.32836 0.0
H1136 H 0.18073 0.96796 0.32335 0.0
H1137 H 0.21042 0.95255 0.39498 0.0
H1138 H 0.21045 0.93214 0.4331 0.0
H1139 H 0.15523 0.93504 0.45977 0.0
H1140 H 0.15467 0.95519 0.42169 0.0
C1141 C 0.22189 0.06481 0.35586 0.0
C1142 C 0.20981 0.06977 0.37081 0.0
C1143 C 0.21433 0.04306 0.3526 0.0
C1144 C 0.19457 0.02607 0.36423 0.0
C1145 C 0.18223 0.03118 0.37869 0.0
C1146 C 0.18978 0.05291 0.3819 0.0
C1147 C 0.18774 0.00291 0.36266 0.0
C1148 C 0.18556 0.9891 0.38349 0.0
C1149 C 0.1855 0.99507 0.34074 0.0
C1150 C 0.18648 0.00855 0.31828 0.0
C1151 C 0.173 0.01802 0.31574 0.0
C1152 C 0.17412 0.03086 0.29464 0.0
C1153 C 0.18857 0.03426 0.27587 0.0
C1154 C 0.2019 0.0248 0.27815 0.0
C1155 C 0.20087 0.01196 0.29923 0.0
C1156 C 0.16117 0.89947 0.36559 0.0
C1157 C 0.1768 0.89967 0.35024 0.0
C1158 C 0.1627 0.91928 0.36967 0.0
C1159 C 0.17997 0.93941 0.35859 0.0
C1160 C 0.19601 0.93953 0.34414 0.0
C1161 C 0.19447 0.91993 0.34001 0.0
C1162 C 0.18124 0.96056 0.3609 0.0
C1163 C 0.18229 0.97398 0.34017 0.0
C1164 C 0.18254 0.96806 0.3829 0.0
C1165 C 0.18231 0.95511 0.40538 0.0
C1166 C 0.19808 0.94854 0.40884 0.0
C1167 C 0.19824 0.93709 0.43047 0.0
C1168 C 0.18283 0.93229 0.44881 0.0
C1169 C 0.16713 0.93876 0.44553 0.0
C1170 C 0.16687 0.95017 0.42393 0.0
H1171 H 0.18315 0.92374 0.46564 0.0
H1172 H 0.18941 0.0442 0.25955 0.0
H1173 H 0.4851 0.59999 0.36261 0.0
H1174 H 0.50681 0.63988 0.36362 0.0
H1175 H 0.50542 0.65167 0.28811 0.0
H1176 H 0.48308 0.612 0.28732 0.0
H1177 H 0.54842 0.67325 0.30771 0.0
H1178 H 0.47551 0.66244 0.31689 0.0
H1179 H 0.43814 0.6442 0.33583 0.0
H1180 H 0.46444 0.66522 0.40158 0.0
H1181 H 0.50202 0.68327 0.38312 0.0
H1182 H 0.61084 0.78428 0.30377 0.0
H1183 H 0.57575 0.75289 0.29624 0.0
H1184 H 0.56119 0.7318 0.37111 0.0
H1185 H 0.59598 0.7632 0.3785 0.0
H1186 H 0.52347 0.71611 0.34784 0.0
H1187 H 0.59305 0.71862 0.34457 0.0
H1188 H 0.63177 0.73443 0.33079 0.0
H1189 H 0.6132 0.7263 0.25967 0.0
H1190 H 0.57435 0.71075 0.27304 0.0
C1191 C 0.48929 0.61123 0.34639 0.0
C1192 C 0.48261 0.60321 0.32491 0.0
C1193 C 0.50161 0.63386 0.34693 0.0
C1194 C 0.50753 0.64858 0.32592 0.0
C1195 C 0.50094 0.64051 0.30446 0.0
C1196 C 0.48836 0.61798 0.304 0.0
C1197 C 0.5214 0.6724 0.32617 0.0
C1198 C 0.54282 0.68277 0.31596 0.0
C1199 C 0.51418 0.68448 0.33764 0.0
C1200 C 0.4916 0.67407 0.34865 0.0
C1201 C 0.47334 0.66305 0.33543 0.0
C1202 C 0.45212 0.65275 0.34607 0.0
C1203 C 0.44892 0.65352 0.3699 0.0
C1204 C 0.46694 0.66464 0.38312 0.0
C1205 C 0.48821 0.67492 0.37257 0.0
C1206 C 0.59949 0.77369 0.31853 0.0
C1207 C 0.60593 0.77592 0.34164 0.0
C1208 C 0.57954 0.75568 0.31427 0.0
C1209 C 0.56619 0.73975 0.33313 0.0
C1210 C 0.57127 0.74383 0.35631 0.0
C1211 C 0.59114 0.76176 0.36053 0.0
C1212 C 0.55045 0.71705 0.32911 0.0
C1213 C 0.52883 0.70677 0.33891 0.0
C1214 C 0.55761 0.70476 0.31783 0.0
C1215 C 0.58087 0.71382 0.30974 0.0
C1216 C 0.59725 0.72035 0.32597 0.0
C1217 C 0.61921 0.72925 0.31824 0.0
C1218 C 0.62495 0.73144 0.29435 0.0
C1219 C 0.60873 0.72465 0.27816 0.0
C1220 C 0.58674 0.71581 0.2858 0.0
H1221 H 0.64196 0.73833 0.2884 0.0
H1222 H 0.43247 0.64552 0.37812 0.0
H1223 H 0.39294 0.86222 0.33936 0.0
H1224 H 0.35312 0.84395 0.34769 0.0
H1225 H 0.36016 0.90355 0.36831 0.0
H1226 H 0.40018 0.92176 0.35999 0.0
H1227 H 0.32725 0.86078 0.39723 0.0
H1228 H 0.3509 0.89723 0.31521 0.0
H1229 H 0.37045 0.90284 0.2771 0.0
H1230 H 0.33064 0.83421 0.27158 0.0
H1231 H 0.31113 0.82814 0.30985 0.0
H1232 H 0.22694 0.85716 0.38062 0.0
H1233 H 0.26405 0.86353 0.38454 0.0
H1234 H 0.25197 0.81623 0.3372 0.0
H1235 H 0.21547 0.81162 0.33161 0.0
H1236 H 0.28736 0.84767 0.32405 0.0
H1237 H 0.26032 0.80935 0.40084 0.0
H1238 H 0.241 0.79905 0.44009 0.0
H1239 H 0.28537 0.86316 0.45776 0.0
H1240 H 0.30479 0.87397 0.41849 0.0
C1241 C 0.38588 0.87114 0.34615 0.0
C1242 C 0.39923 0.89323 0.34911 0.0
C1243 C 0.36331 0.86077 0.35093 0.0
C1244 C 0.35385 0.87246 0.35859 0.0
C1245 C 0.3673 0.89429 0.36258 0.0
C1246 C 0.38995 0.90469 0.35772 0.0
C1247 C 0.32987 0.86282 0.35954 0.0
C1248 C 0.31837 0.85797 0.38133 0.0
C1249 C 0.31842 0.85828 0.33883 0.0
C1250 C 0.3297 0.8622 0.31546 0.0
C1251 C 0.3464 0.88333 0.30592 0.0
C1252 C 0.35747 0.88659 0.2843 0.0
C1253 C 0.35181 0.86887 0.27198 0.0
C1254 C 0.33501 0.8479 0.28117 0.0
C1255 C 0.32394 0.84454 0.3028 0.0
C1256 C 0.23222 0.84794 0.37139 0.0
C1257 C 0.21863 0.83393 0.35588 0.0
C1258 C 0.25334 0.85135 0.37382 0.0
C1259 C 0.26085 0.84006 0.36155 0.0
C1260 C 0.24667 0.82519 0.34686 0.0
C1261 C 0.22584 0.82246 0.34371 0.0
C1262 C 0.28417 0.84569 0.36191 0.0
C1263 C 0.29579 0.84996 0.34024 0.0
C1264 C 0.29552 0.84895 0.3829 0.0
C1265 C 0.28394 0.84251 0.40662 0.0
C1266 C 0.26588 0.82131 0.41303 0.0
C1267 C 0.25492 0.81537 0.4353 0.0
C1268 C 0.26193 0.83045 0.45139 0.0
C1269 C 0.27996 0.85149 0.44527 0.0
C1270 C 0.29097 0.85752 0.42302 0.0
H1271 H 0.25341 0.82583 0.46862 0.0
H1272 H 0.3604 0.87136 0.2553 0.0
H1273 H 0.13598 0.54242 0.29951 0.0
H1274 H 0.14663 0.5145 0.29897 0.0
H1275 H 0.07867 0.46508 0.29661 0.0
H1276 H 0.06802 0.49296 0.29882 0.0
H1277 H 0.09548 0.45094 0.32856 0.0
H1278 H 0.11804 0.48253 0.2489 0.0
H1279 H 0.13619 0.51185 0.21518 0.0
H1280 H 0.19899 0.53002 0.24234 0.0
H1281 H 0.18121 0.50102 0.27644 0.0
H1282 H 0.12342 0.36939 0.32379 0.0
H1283 H 0.11468 0.39662 0.30401 0.0
H1284 H 0.17176 0.44829 0.3306 0.0
H1285 H 0.1802 0.42096 0.35085 0.0
H1286 H 0.15831 0.45854 0.28109 0.0
H1287 H 0.13241 0.4303 0.36438 0.0
H1288 H 0.11331 0.39972 0.39678 0.0
H1289 H 0.05461 0.37382 0.35931 0.0
H1290 H 0.07353 0.40409 0.32648 0.0
C1291 C 0.12338 0.52557 0.29896 0.0
C1292 C 0.10118 0.51965 0.29976 0.0
C1293 C 0.12947 0.50967 0.29821 0.0
C1294 C 0.11348 0.48762 0.29758 0.0
C1295 C 0.09132 0.48194 0.29714 0.0
C1296 C 0.08524 0.49783 0.29824 0.0
C1297 C 0.11972 0.47031 0.29974 0.0
C1298 C 0.10889 0.45244 0.31773 0.0
C1299 C 0.13742 0.47226 0.2859 0.0
C1300 C 0.14826 0.48966 0.26534 0.0
C1301 C 0.13571 0.49286 0.24778 0.0
C1302 C 0.14594 0.50942 0.22858 0.0
C1303 C 0.16872 0.52281 0.22664 0.0
C1304 C 0.18134 0.51963 0.24387 0.0
C1305 C 0.17119 0.50312 0.26313 0.0
C1306 C 0.13457 0.38667 0.32451 0.0
C1307 C 0.15255 0.39328 0.33853 0.0
C1308 C 0.12956 0.40216 0.31328 0.0
C1309 C 0.14258 0.4244 0.3159 0.0
C1310 C 0.16168 0.43122 0.3282 0.0
C1311 C 0.16648 0.41567 0.33974 0.0
C1312 C 0.13416 0.43966 0.30988 0.0
C1313 C 0.14463 0.45704 0.29141 0.0
C1314 C 0.11593 0.43719 0.32299 0.0
C1315 C 0.10444 0.41927 0.34289 0.0
C1316 C 0.11549 0.41797 0.36298 0.0
C1317 C 0.10469 0.40072 0.38142 0.0
C1318 C 0.08278 0.38479 0.38007 0.0
C1319 C 0.0716 0.38614 0.36031 0.0
C1320 C 0.08235 0.40334 0.34178 0.0
H1321 H 0.07445 0.37144 0.39437 0.0
H1322 H 0.17661 0.53562 0.21176 0.0
H1323 H 0.40474 0.55411 0.31054 0.0
H1324 H 0.36596 0.52558 0.31732 0.0
H1325 H 0.38496 0.47674 0.33637 0.0
H1326 H 0.42376 0.50546 0.33017 0.0
H1327 H 0.34876 0.46283 0.30804 0.0
H1328 H 0.37369 0.49679 0.37845 0.0
H1329 H 0.39096 0.52854 0.40033 0.0
H1330 H 0.34116 0.54462 0.38126 0.0
H1331 H 0.32381 0.51316 0.35887 0.0
H1332 H 0.26363 0.37658 0.37895 0.0
H1333 H 0.2985 0.41084 0.37202 0.0
H1334 H 0.26554 0.44472 0.34219 0.0
H1335 H 0.2303 0.41023 0.34875 0.0
H1336 H 0.30665 0.46841 0.37363 0.0
H1337 H 0.2816 0.4341 0.30307 0.0
H1338 H 0.26438 0.40186 0.28193 0.0
H1339 H 0.31446 0.38642 0.30184 0.0
H1340 H 0.33179 0.41844 0.32342 0.0
C1341 C 0.40052 0.53726 0.31617 0.0
C1342 C 0.41701 0.53188 0.32047 0.0
C1343 C 0.37847 0.52102 0.3199 0.0
C1344 C 0.37268 0.49916 0.32769 0.0
C1345 C 0.38915 0.49356 0.33044 0.0
C1346 C 0.4112 0.50986 0.32691 0.0
C1347 C 0.34955 0.48235 0.33442 0.0
C1348 C 0.33958 0.46407 0.32236 0.0
C1349 C 0.33749 0.48418 0.35288 0.0
C1350 C 0.34759 0.50278 0.36678 0.0
C1351 C 0.36651 0.50719 0.37878 0.0
C1352 C 0.37631 0.52512 0.39129 0.0
C1353 C 0.3672 0.53862 0.39213 0.0
C1354 C 0.34822 0.53417 0.38055 0.0
C1355 C 0.33839 0.51628 0.36795 0.0
C1356 C 0.26363 0.39138 0.37147 0.0
C1357 C 0.24426 0.39061 0.36396 0.0
C1358 C 0.28358 0.41096 0.36761 0.0
C1359 C 0.28451 0.43012 0.35636 0.0
C1360 C 0.26503 0.43 0.35091 0.0
C1361 C 0.24496 0.41029 0.35465 0.0
C1362 C 0.30602 0.44899 0.34727 0.0
C1363 C 0.31573 0.46749 0.35898 0.0
C1364 C 0.31787 0.44746 0.32843 0.0
C1365 C 0.30787 0.42853 0.31501 0.0
C1366 C 0.28884 0.42373 0.30308 0.0
C1367 C 0.27907 0.40551 0.291 0.0
C1368 C 0.28828 0.39205 0.29059 0.0
C1369 C 0.30734 0.39685 0.30219 0.0
C1370 C 0.31716 0.41505 0.31432 0.0
H1371 H 0.28068 0.37794 0.28125 0.0
H1372 H 0.37482 0.55251 0.40181 0.0
H1373 H 0.49712 0.92761 0.33587 0.0
H1374 H 0.52212 0.91269 0.33672 0.0
H1375 H 0.467 0.84795 0.33353 0.0
H1376 H 0.44222 0.86295 0.33323 0.0
H1377 H 0.49362 0.84568 0.36491 0.0
H1378 H 0.50093 0.87907 0.28487 0.0
H1379 H 0.50808 0.9087 0.25256 0.0
H1380 H 0.57324 0.94763 0.27413 0.0
H1381 H 0.56642 0.91838 0.30675 0.0
H1382 H 0.58915 0.83942 0.30103 0.0
H1383 H 0.55478 0.8399 0.30255 0.0
H1384 H 0.56407 0.85316 0.37452 0.0
H1385 H 0.59837 0.85211 0.37314 0.0
H1386 H 0.5574 0.87759 0.30673 0.0
H1387 H 0.51423 0.84023 0.40083 0.0
H1388 H 0.50569 0.8084 0.43068 0.0
H1389 H 0.50926 0.7731 0.37669 0.0
H1390 H 0.51749 0.80457 0.34648 0.0
C1391 C 0.49058 0.91024 0.33542 0.0
C1392 C 0.46801 0.89625 0.33478 0.0
C1393 C 0.50471 0.90173 0.33584 0.0
C1394 C 0.49636 0.87921 0.3351 0.0
C1395 C 0.47373 0.86531 0.3343 0.0
C1396 C 0.45965 0.8738 0.33411 0.0
C1397 C 0.51123 0.87013 0.33487 0.0
C1398 C 0.50758 0.8526 0.35219 0.0
C1399 C 0.52907 0.87887 0.31791 0.0
C1400 C 0.53311 0.89656 0.29837 0.0
C1401 C 0.51672 0.89402 0.28285 0.0
C1402 C 0.52072 0.91075 0.26447 0.0
C1403 C 0.54109 0.93003 0.26133 0.0
C1404 C 0.55748 0.93267 0.27659 0.0
C1405 C 0.55357 0.91602 0.29501 0.0
C1406 C 0.58336 0.84158 0.31745 0.0
C1407 C 0.5963 0.84592 0.33692 0.0
C1408 C 0.56381 0.84191 0.31828 0.0
C1409 C 0.55706 0.84686 0.33852 0.0
C1410 C 0.56894 0.84916 0.35878 0.0
C1411 C 0.58847 0.84854 0.35803 0.0
C1412 C 0.54004 0.8533 0.33699 0.0
C1413 C 0.54336 0.87049 0.31938 0.0
C1414 C 0.5217 0.84392 0.35336 0.0
C1415 C 0.5167 0.82488 0.37142 0.0
C1416 C 0.51312 0.82565 0.39532 0.0
C1417 C 0.50834 0.80767 0.4123 0.0
C1418 C 0.50701 0.78877 0.40559 0.0
C1419 C 0.51039 0.78778 0.38187 0.0
C1420 C 0.51516 0.80571 0.36482 0.0
H1421 H 0.5033 0.77486 0.41877 0.0
H1422 H 0.54425 0.94291 0.24702 0.0
H1423 H 0.13145 0.59816 0.30898 0.0
H1424 H 0.14118 0.63497 0.31719 0.0
H1425 H 0.07742 0.6082 0.35311 0.0
H1426 H 0.06773 0.57151 0.34434 0.0
H1427 H 0.08583 0.64226 0.32146 0.0
H1428 H 0.12504 0.6269 0.3829 0.0
H1429 H 0.15139 0.61644 0.39951 0.0
H1430 H 0.20386 0.67143 0.35596 0.0
H1431 H 0.17775 0.68207 0.33886 0.0
H1432 H 0.09679 0.72061 0.3913 0.0
H1433 H 0.0944 0.6891 0.37584 0.0
H1434 H 0.15248 0.7319 0.3301 0.0
H1435 H 0.15483 0.764 0.34535 0.0
H1436 H 0.15101 0.69346 0.36048 0.0
H1437 H 0.11079 0.71091 0.30312 0.0
H1438 H 0.08354 0.72111 0.28909 0.0
H1439 H 0.03189 0.6615 0.32754 0.0
H1440 H 0.05886 0.65108 0.34213 0.0
C1441 C 0.11988 0.60021 0.31923 0.0
C1442 C 0.09899 0.58227 0.32631 0.0
C1443 C 0.12535 0.62115 0.32383 0.0
C1444 C 0.11003 0.62432 0.33579 0.0
C1445 C 0.08946 0.60612 0.34377 0.0
C1446 C 0.08397 0.58523 0.339 0.0
C1447 C 0.11478 0.6467 0.33864 0.0
C1448 C 0.10001 0.65337 0.33015 0.0
C1449 C 0.13371 0.66151 0.34917 0.0
C1450 C 0.14941 0.65512 0.3594 0.0
C1451 C 0.14217 0.63665 0.37671 0.0
C1452 C 0.15706 0.63071 0.38625 0.0
C1453 C 0.17927 0.64322 0.37874 0.0
C1454 C 0.18664 0.66174 0.36172 0.0
C1455 C 0.17181 0.66773 0.35212 0.0
C1456 C 0.10905 0.72342 0.37788 0.0
C1457 C 0.1261 0.74473 0.36963 0.0
C1458 C 0.10758 0.7054 0.36901 0.0
C1459 C 0.12322 0.70827 0.35186 0.0
C1460 C 0.14026 0.72949 0.34335 0.0
C1461 C 0.14154 0.74772 0.35199 0.0
C1462 C 0.12177 0.68863 0.34387 0.0
C1463 C 0.1371 0.68245 0.35138 0.0
C1464 C 0.10324 0.67415 0.33267 0.0
C1465 C 0.0869 0.68028 0.32383 0.0
C1466 C 0.09364 0.70005 0.30875 0.0
C1467 C 0.07824 0.70586 0.30066 0.0
C1468 C 0.056 0.69198 0.30744 0.0
C1469 C 0.04912 0.67223 0.3223 0.0
C1470 C 0.06446 0.66636 0.33045 0.0
H1471 H 0.0441 0.6965 0.30116 0.0
H1472 H 0.19078 0.6386 0.38615 0.0
H1473 H 0.87314 0.06829 0.38054 0.0
H1474 H 0.84459 0.0324 0.37103 0.0
H1475 H 0.79813 0.05538 0.36789 0.0
H1476 H 0.82686 0.09133 0.37671 0.0
H1477 H 0.78559 0.01618 0.40023 0.0
H1478 H 0.81246 0.04719 0.31953 0.0
H1479 H 0.84036 0.06509 0.2862 0.0
H1480 H 0.85346 0.01167 0.29585 0.0
H1481 H 0.82581 0.99358 0.32949 0.0
H1482 H 0.6942 0.94408 0.34255 0.0
H1483 H 0.72683 0.97436 0.35595 0.0
H1484 H 0.75883 0.93572 0.36052 0.0
H1485 H 0.72574 0.9049 0.34773 0.0
H1486 H 0.78153 0.97935 0.33066 0.0
H1487 H 0.7512 0.94609 0.40839 0.0
H1488 H 0.7228 0.92805 0.44123 0.0
H1489 H 0.71607 0.98533 0.43733 0.0
H1490 H 0.74418 0.0036 0.40418 0.0
C1491 C 0.85703 0.0658 0.37689 0.0
C1492 C 0.85205 0.0824 0.37907 0.0
C1493 C 0.84074 0.04535 0.37171 0.0
C1494 C 0.81928 0.04128 0.36897 0.0
C1495 C 0.8146 0.05823 0.37007 0.0
C1496 C 0.83093 0.0787 0.37492 0.0
C1497 C 0.80127 0.01895 0.36679 0.0
C1498 C 0.7846 0.00815 0.38497 0.0
C1499 C 0.80053 0.00825 0.34729 0.0
C1500 C 0.8173 0.01919 0.32724 0.0
C1501 C 0.82147 0.03939 0.31473 0.0
C1502 C 0.83719 0.04953 0.29573 0.0
C1503 C 0.84874 0.03956 0.28897 0.0
C1504 C 0.84454 0.0194 0.30115 0.0
C1505 C 0.82885 0.00919 0.32018 0.0
C1506 C 0.708 0.94186 0.34695 0.0
C1507 C 0.70756 0.92226 0.34411 0.0
C1508 C 0.72658 0.95912 0.3546 0.0
C1509 C 0.74517 0.95722 0.35912 0.0
C1510 C 0.74456 0.93739 0.35712 0.0
C1511 C 0.72568 0.91983 0.34998 0.0
C1512 C 0.76562 0.9768 0.36386 0.0
C1513 C 0.78274 0.98717 0.34616 0.0
C1514 C 0.7668 0.98711 0.38382 0.0
C1515 C 0.7497 0.97616 0.40364 0.0
C1516 C 0.74351 0.95477 0.41435 0.0
C1517 C 0.7275 0.94451 0.43308 0.0
C1518 C 0.71761 0.95553 0.44134 0.0
C1519 C 0.72374 0.97682 0.4309 0.0
C1520 C 0.73973 0.98714 0.41216 0.0
H1521 H 0.70524 0.94758 0.45586 0.0
H1522 H 0.86089 0.04743 0.27423 0.0
H1523 H 0.89674 0.753 0.38965 0.0
H1524 H 0.93392 0.75801 0.38963 0.0
H1525 H 0.96065 0.82599 0.35991 0.0
H1526 H 0.92362 0.82092 0.36019 0.0
H1527 H 0.97727 0.80499 0.3368 0.0
H1528 H 0.96459 0.81347 0.41617 0.0
H1529 H 0.94306 0.80161 0.45425 0.0
H1530 H 0.95015 0.74445 0.46553 0.0
H1531 H 0.9713 0.7557 0.42723 0.0
H1532 H 0.08953 0.8359 0.35199 0.0
H1533 H 0.05381 0.8341 0.3515 0.0
H1534 H 0.02368 0.76922 0.39164 0.0
H1535 H 0.05929 0.77153 0.3932 0.0
H1536 H 0.00928 0.79107 0.40963 0.0
H1537 H 0.0191 0.78034 0.32971 0.0
H1538 H 0.0381 0.79002 0.29033 0.0
H1539 H 0.03506 0.84949 0.27946 0.0
H1540 H 0.01627 0.84028 0.3189 0.0
C1541 C 0.91067 0.76897 0.38338 0.0
C1542 C 0.90761 0.78657 0.37479 0.0
C1543 C 0.93177 0.77183 0.38328 0.0
C1544 C 0.94995 0.79238 0.37474 0.0
C1545 C 0.94681 0.80999 0.36639 0.0
C1546 C 0.92579 0.80712 0.36655 0.0
C1547 C 0.97231 0.79562 0.37443 0.0
C1548 C 0.98445 0.80221 0.35272 0.0
C1549 C 0.98136 0.79167 0.39522 0.0
C1550 C 0.9694 0.78535 0.41871 0.0
C1551 C 0.96148 0.79831 0.42671 0.0
C1552 C 0.94932 0.79169 0.44833 0.0
C1553 C 0.9452 0.77227 0.46228 0.0
C1554 C 0.95333 0.75948 0.45469 0.0
C1555 C 0.96541 0.76598 0.43302 0.0
C1556 C 0.07518 0.82125 0.36049 0.0
C1557 C 0.07706 0.80388 0.37267 0.0
C1558 C 0.0548 0.82018 0.36018 0.0
C1559 C 0.03599 0.80144 0.37143 0.0
C1560 C 0.03793 0.78392 0.38302 0.0
C1561 C 0.05826 0.78521 0.38381 0.0
C1562 C 0.01427 0.8 0.37182 0.0
C1563 C 0.00223 0.7939 0.39363 0.0
C1564 C 0.00522 0.80422 0.35107 0.0
C1565 C 0.0165 0.80974 0.32735 0.0
C1566 C 0.02263 0.79556 0.31899 0.0
C1567 C 0.03333 0.80095 0.29664 0.0
C1568 C 0.03784 0.82039 0.28243 0.0
C1569 C 0.0316 0.83445 0.2905 0.0
C1570 C 0.02091 0.82915 0.31284 0.0
H1571 H 0.04613 0.82453 0.26514 0.0
H1572 H 0.93573 0.76714 0.47899 0.0
H1573 H 0.17819 0.11033 0.40503 0.0
H1574 H 0.16536 0.1367 0.40624 0.0
H1575 H 0.23104 0.19011 0.38625 0.0
H1576 H 0.24372 0.16361 0.3848 0.0
H1577 H 0.20838 0.2006 0.41777 0.0
H1578 H 0.19788 0.1705 0.34343 0.0
H1579 H 0.18377 0.14011 0.31953 0.0
H1580 H 0.11819 0.11671 0.34744 0.0
H1581 H 0.13198 0.14699 0.37153 0.0
H1582 H 0.19439 0.27101 0.32115 0.0
H1583 H 0.19018 0.23535 0.33595 0.0
H1584 H 0.16082 0.23547 0.40183 0.0
H1585 H 0.16512 0.27156 0.38695 0.0
H1586 H 0.15817 0.19411 0.35425 0.0
H1587 H 0.18258 0.21832 0.44336 0.0
H1588 H 0.19859 0.25148 0.46309 0.0
H1589 H 0.24033 0.28972 0.40097 0.0
H1590 H 0.2243 0.25674 0.38081 0.0
C1591 C 0.18983 0.12772 0.40114 0.0
C1592 C 0.21175 0.13509 0.39417 0.0
C1593 C 0.18257 0.14273 0.40202 0.0
C1594 C 0.19719 0.16532 0.396 0.0
C1595 C 0.2195 0.17275 0.39096 0.0
C1596 C 0.22673 0.15769 0.39006 0.0
C1597 C 0.18891 0.18091 0.39175 0.0
C1598 C 0.19709 0.19897 0.4042 0.0
C1599 C 0.17427 0.17888 0.37396 0.0
C1600 C 0.16596 0.16081 0.35941 0.0
C1601 C 0.18047 0.1588 0.34452 0.0
C1602 C 0.17253 0.14164 0.33092 0.0
C1603 C 0.15011 0.12644 0.33204 0.0
C1604 C 0.13556 0.12847 0.34664 0.0
C1605 C 0.14342 0.14565 0.36022 0.0
C1606 C 0.18646 0.26316 0.33855 0.0
C1607 C 0.18025 0.27405 0.35301 0.0
C1608 C 0.18399 0.24274 0.34697 0.0
C1609 C 0.17547 0.2329 0.37009 0.0
C1610 C 0.16759 0.2429 0.38398 0.0
C1611 C 0.1699 0.26339 0.37543 0.0
C1612 C 0.17778 0.2139 0.38007 0.0
C1613 C 0.16867 0.19525 0.36855 0.0
C1614 C 0.19181 0.21556 0.39842 0.0
C1615 C 0.20229 0.23515 0.41068 0.0
C1616 C 0.1953 0.23379 0.43403 0.0
C1617 C 0.20432 0.25256 0.44524 0.0
C1618 C 0.22054 0.27271 0.43335 0.0
C1619 C 0.22778 0.27411 0.41018 0.0
C1620 C 0.21871 0.25541 0.39884 0.0
H1621 H 0.22746 0.28723 0.44205 0.0
H1622 H 0.144 0.11313 0.32155 0.0
H1623 H 0.59777 0.46628 0.73009 0.0
H1624 H 0.6358 0.49594 0.72554 0.0
H1625 H 0.61453 0.54272 0.73248 0.0
H1626 H 0.57622 0.51304 0.73468 0.0
H1627 H 0.64444 0.55975 0.69984 0.0
H1628 H 0.64013 0.52469 0.77754 0.0
H1629 H 0.63173 0.49404 0.80897 0.0
H1630 H 0.67725 0.48099 0.77472 0.0
H1631 H 0.6857 0.51138 0.74288 0.0
H1632 H 0.75205 0.64032 0.73277 0.0
H1633 H 0.71373 0.61087 0.73649 0.0
H1634 H 0.72927 0.57626 0.69014 0.0
H1635 H 0.76771 0.60609 0.6857 0.0
H1636 H 0.70306 0.55414 0.74294 0.0
H1637 H 0.70487 0.59064 0.66379 0.0
H1638 H 0.71329 0.62352 0.63567 0.0
H1639 H 0.67216 0.63641 0.67831 0.0
H1640 H 0.66377 0.60377 0.70688 0.0
C1641 C 0.60124 0.48293 0.73037 0.0
C1642 C 0.58409 0.48744 0.73236 0.0
C1643 C 0.62302 0.49988 0.72819 0.0
C1644 C 0.62822 0.52167 0.72899 0.0
C1645 C 0.61104 0.5261 0.73177 0.0
C1646 C 0.58917 0.50914 0.73334 0.0
C1647 C 0.6515 0.53982 0.72603 0.0
C1648 C 0.65712 0.55852 0.70954 0.0
C1649 C 0.66829 0.53838 0.73848 0.0
C1650 C 0.66341 0.52021 0.75772 0.0
C1651 C 0.64825 0.51521 0.77663 0.0
C1652 C 0.64349 0.49788 0.79453 0.0
C1653 C 0.65392 0.48555 0.79382 0.0
C1654 C 0.66918 0.49055 0.77523 0.0
C1655 C 0.67398 0.50784 0.75727 0.0
C1656 C 0.74733 0.62649 0.72327 0.0
C1657 C 0.76289 0.62549 0.70894 0.0
C1658 C 0.72544 0.60974 0.7254 0.0
C1659 C 0.71877 0.5915 0.71357 0.0
C1660 C 0.7342 0.5903 0.69933 0.0
C1661 C 0.75607 0.60733 0.69677 0.0
C1662 C 0.6957 0.57353 0.71664 0.0
C1663 C 0.6902 0.55509 0.73329 0.0
C1664 C 0.67898 0.57542 0.70482 0.0
C1665 C 0.68392 0.59494 0.6876 0.0
C1666 C 0.69782 0.60063 0.6673 0.0
C1667 C 0.70254 0.61918 0.65125 0.0
C1668 C 0.69333 0.63209 0.65524 0.0
C1669 C 0.67932 0.62642 0.67526 0.0
C1670 C 0.67457 0.60789 0.69137 0.0
H1671 H 0.697 0.64644 0.64279 0.0
H1672 H 0.6502 0.47214 0.80768 0.0
H1673 H 0.5384 0.14908 0.66916 0.0
H1674 H 0.51979 0.16822 0.65165 0.0
H1675 H 0.45736 0.10887 0.66922 0.0
H1676 H 0.47627 0.08933 0.68462 0.0
H1677 H 0.45345 0.13216 0.63294 0.0
H1678 H 0.48452 0.14723 0.70985 0.0
H1679 H 0.51511 0.16034 0.7361 0.0
H1680 H 0.54731 0.22335 0.69303 0.0
H1681 H 0.51694 0.21057 0.66649 0.0
H1682 H 0.39732 0.16754 0.71144 0.0
H1683 H 0.42964 0.16547 0.70135 0.0
H1684 H 0.427 0.18688 0.62816 0.0
H1685 H 0.39422 0.18873 0.63814 0.0
H1686 H 0.46995 0.19158 0.68101 0.0
H1687 H 0.43825 0.15457 0.59676 0.0
H1688 H 0.40374 0.13705 0.57669 0.0
H1689 H 0.36695 0.11108 0.6437 0.0
H1690 H 0.40124 0.12824 0.66409 0.0
C1691 C 0.52078 0.13999 0.66829 0.0
C1692 C 0.50858 0.11795 0.67863 0.0
C1693 C 0.51016 0.15093 0.65847 0.0
C1694 C 0.48717 0.14019 0.65986 0.0
C1695 C 0.47512 0.11758 0.66813 0.0
C1696 C 0.48582 0.10648 0.67723 0.0
C1697 C 0.47559 0.15286 0.65674 0.0
C1698 C 0.45734 0.14549 0.64302 0.0
C1699 C 0.48053 0.17017 0.67003 0.0
C1700 C 0.49864 0.1779 0.68608 0.0
C1701 C 0.49817 0.16385 0.70597 0.0
C1702 C 0.51546 0.17121 0.72087 0.0
C1703 C 0.53318 0.19262 0.71617 0.0
C1704 C 0.5336 0.20676 0.69661 0.0
C1705 C 0.51636 0.19948 0.68165 0.0
C1706 C 0.40379 0.17219 0.69324 0.0
C1707 C 0.39302 0.17789 0.67552 0.0
C1708 C 0.42238 0.17116 0.68752 0.0
C1709 C 0.43052 0.17578 0.66397 0.0
C1710 C 0.4208 0.18307 0.6464 0.0
C1711 C 0.40212 0.18413 0.65214 0.0
C1712 C 0.44736 0.17021 0.65807 0.0
C1713 C 0.46666 0.17899 0.67002 0.0
C1714 C 0.44289 0.15362 0.64393 0.0
C1715 C 0.42224 0.14291 0.63188 0.0
C1716 C 0.42278 0.14508 0.60716 0.0
C1717 C 0.40327 0.13521 0.59575 0.0
C1718 C 0.38316 0.12304 0.60891 0.0
C1719 C 0.38252 0.12058 0.63352 0.0
C1720 C 0.40198 0.13037 0.64501 0.0
H1721 H 0.36808 0.11546 0.60004 0.0
H1722 H 0.54655 0.19828 0.72772 0.0
H1723 H 0.89551 0.40289 0.69654 0.0
H1724 H 0.88333 0.36547 0.68859 0.0
H1725 H 0.8198 0.34335 0.72263 0.0
H1726 H 0.83229 0.38099 0.7307 0.0
H1727 H 0.83773 0.31823 0.73965 0.0
H1728 H 0.82464 0.34464 0.66384 0.0
H1729 H 0.83358 0.37039 0.6271 0.0
H1730 H 0.88703 0.36078 0.60928 0.0
H1731 H 0.87863 0.33522 0.64608 0.0
H1732 H 0.80578 0.21079 0.70428 0.0
H1733 H 0.80594 0.24423 0.71237 0.0
H1734 H 0.87209 0.28374 0.68122 0.0
H1735 H 0.87209 0.25096 0.67316 0.0
H1736 H 0.84494 0.29742 0.66207 0.0
H1737 H 0.86102 0.27432 0.73855 0.0
H1738 H 0.85423 0.25001 0.77596 0.0
H1739 H 0.79809 0.25534 0.79371 0.0
H1740 H 0.80387 0.27876 0.75592 0.0
C1741 C 0.87881 0.39006 0.70171 0.0
C1742 C 0.86468 0.39458 0.71392 0.0
C1743 C 0.87184 0.36876 0.69723 0.0
C1744 C 0.85059 0.35167 0.70489 0.0
C1745 C 0.83621 0.35634 0.71649 0.0
C1746 C 0.84321 0.37773 0.7209 0.0
C1747 C 0.84419 0.32878 0.70222 0.0
C1748 C 0.83875 0.31343 0.72264 0.0
C1749 C 0.84603 0.32279 0.68007 0.0
C1750 C 0.85104 0.33807 0.65781 0.0
C1751 C 0.83839 0.34812 0.65217 0.0
C1752 C 0.84335 0.36267 0.63131 0.0
C1753 C 0.86087 0.36723 0.61588 0.0
C1754 C 0.87345 0.35723 0.62125 0.0
C1755 C 0.86857 0.34268 0.64209 0.0
C1756 C 0.82041 0.22662 0.6995 0.0
C1757 C 0.83878 0.22828 0.68777 0.0
C1758 C 0.82047 0.24566 0.70407 0.0
C1759 C 0.83894 0.26644 0.69707 0.0
C1760 C 0.85756 0.2679 0.68644 0.0
C1761 C 0.85751 0.24908 0.68188 0.0
C1762 C 0.83905 0.28703 0.69956 0.0
C1763 C 0.84335 0.30197 0.67905 0.0
C1764 C 0.83643 0.29267 0.72167 0.0
C1765 C 0.83261 0.27796 0.74411 0.0
C1766 C 0.84692 0.26991 0.75016 0.0
C1767 C 0.84325 0.25627 0.77147 0.0
C1768 C 0.82558 0.2509 0.78711 0.0
C1769 C 0.81157 0.25919 0.78147 0.0
C1770 C 0.81499 0.27259 0.76006 0.0
H1771 H 0.82285 0.24045 0.80367 0.0
H1772 H 0.86468 0.37851 0.59975 0.0
H1773 H 0.12864 0.94244 0.64965 0.0
H1774 H 0.15361 0.98132 0.65315 0.0
H1775 H 0.19704 0.96375 0.69078 0.0
H1776 H 0.17196 0.92491 0.68717 0.0
H1777 H 0.19367 0.99692 0.70866 0.0
H1778 H 0.20627 0.97858 0.63424 0.0
H1779 H 0.19511 0.96392 0.5966 0.0
H1780 H 0.17688 0.01259 0.57466 0.0
H1781 H 0.18757 0.02729 0.61241 0.0
H1782 H 0.29896 0.08356 0.69009 0.0
H1783 H 0.26698 0.04902 0.68404 0.0
H1784 H 0.23454 0.08374 0.65503 0.0
H1785 H 0.26685 0.11885 0.66113 0.0
H1786 H 0.22821 0.04453 0.63241 0.0
H1787 H 0.22063 0.06531 0.70717 0.0
H1788 H 0.23383 0.07922 0.74478 0.0
H1789 H 0.24449 0.02513 0.76596 0.0
H1790 H 0.2317 0.01109 0.72829 0.0
C1791 C 0.14322 0.94698 0.65925 0.0
C1792 C 0.14855 0.93101 0.66827 0.0
C1793 C 0.15749 0.96907 0.66109 0.0
C1794 C 0.17724 0.97536 0.672 0.0
C1795 C 0.18185 0.95918 0.68234 0.0
C1796 C 0.16763 0.93712 0.68035 0.0
C1797 C 0.194 -0.00119 0.67088 0.0
C1798 C 0.20118 0.00734 0.69201 0.0
C1799 C 0.20355 0.01244 0.64909 0.0
C1800 C 0.19746 0.00386 0.62625 0.0
C1801 C 0.19971 0.98605 0.62147 0.0
C1802 C 0.19349 0.97774 0.60011 0.0
C1803 C 0.18523 0.98728 0.58327 0.0
C1804 C 0.18324 0.00519 0.58774 0.0
C1805 C 0.18937 0.01351 0.60911 0.0
C1806 C 0.28521 0.08398 0.68203 0.0
C1807 C 0.28522 0.10386 0.67647 0.0
C1808 C 0.26698 0.06421 0.67856 0.0
C1809 C 0.24834 0.06388 0.66954 0.0
C1810 C 0.24882 0.08377 0.66215 0.0
C1811 C 0.26724 0.10375 0.6656 0.0
C1812 C 0.22796 0.04252 0.6702 0.0
C1813 C 0.22024 0.0343 0.64903 0.0
C1814 C 0.21801 0.02906 0.69196 0.0
C1815 C 0.22533 0.03722 0.71484 0.0
C1816 C 0.22593 0.05646 0.71978 0.0
C1817 C 0.23332 0.06436 0.74112 0.0
C1818 C 0.24002 0.05308 0.75774 0.0
C1819 C 0.23929 0.03384 0.75308 0.0
C1820 C 0.23194 0.02589 0.73174 0.0
H1821 H 0.24575 0.05923 0.77424 0.0
H1822 H 0.18043 0.98083 0.56674 0.0
H1823 H 0.05432 0.23766 0.68807 0.0
H1824 H 0.01544 0.2199 0.70202 0.0
H1825 H 0.00586 0.1576 0.68713 0.0
H1826 H 0.04454 0.17544 0.67313 0.0
H1827 H 0.97686 0.16842 0.66661 0.0
H1828 H 0.00332 0.16454 0.74265 0.0
H1829 H 0.027 0.17854 0.77538 0.0
H1830 H 0.00304 0.22282 0.78232 0.0
H1831 H 0.97948 0.20938 0.74935 0.0
H1832 H 0.86528 0.12469 0.69618 0.0
H1833 H 0.90049 0.12625 0.70327 0.0
H1834 H 0.92832 0.1933 0.7167 0.0
H1835 H 0.89337 0.19169 0.70959 0.0
H1836 H 0.94655 0.17191 0.74296 0.0
H1837 H 0.92929 0.18384 0.66212 0.0
H1838 H 0.90681 0.17316 0.62787 0.0
H1839 H 0.91514 0.11704 0.62865 0.0
H1840 H 0.9374 0.12723 0.6632 0.0
C1841 C 0.04382 0.22016 0.68815 0.0
C1842 C 0.05209 0.20775 0.67976 0.0
C1843 C 0.02181 0.21002 0.69621 0.0
C1844 C 0.00793 0.1874 0.69584 0.0
C1845 C 0.01638 0.17501 0.68775 0.0
C1846 C 0.03834 0.18512 0.67983 0.0
C1847 C 0.98418 0.17718 0.70156 0.0
C1848 C 0.97014 0.16861 0.68354 0.0
C1849 C 0.97561 0.17791 0.72348 0.0
C1850 C -0.01029 0.18602 0.7434 0.0
C1851 C 0.00322 0.17739 0.75102 0.0
C1852 C 0.01661 0.18521 0.76964 0.0
C1853 C 0.01655 0.20158 0.7809 0.0
C1854 C 0.00307 0.21015 0.77358 0.0
C1855 C -0.01033 0.20241 0.75494 0.0
C1856 C 0.87877 0.13939 0.70152 0.0
C1857 C 0.87698 0.15813 0.70232 0.0
C1858 C 0.89878 0.1403 0.70554 0.0
C1859 C 0.917 0.15998 0.71027 0.0
C1860 C 0.91444 0.17796 0.71319 0.0
C1861 C 0.89459 0.1771 0.70901 0.0
C1862 C 0.93941 0.16352 0.70788 0.0
C1863 C 0.95322 0.17101 0.72637 0.0
C1864 C 0.94796 0.16217 0.68624 0.0
C1865 C 0.93469 0.15609 0.66543 0.0
C1866 C 0.92616 0.16912 0.65511 0.0
C1867 C 0.91348 0.16317 0.63563 0.0
C1868 C 0.90947 0.14438 0.62615 0.0
C1869 C 0.9182 0.13154 0.63607 0.0
C1870 C 0.93082 0.13738 0.65561 0.0
H1871 H 0.89967 0.13981 0.61106 0.0
H1872 H 0.02692 0.20761 0.79532 0.0
H1873 H 0.79772 0.8749 0.60423 0.0
H1874 H 0.80992 0.84768 0.60564 0.0
H1875 H 0.76148 0.80745 0.66284 0.0
H1876 H 0.74952 0.83476 0.66128 0.0
H1877 H 0.82759 0.83606 0.64296 0.0
H1878 H 0.74499 0.75334 0.66036 0.0
H1879 H 0.70698 0.73776 0.64855 0.0
H1880 H 0.72915 0.78421 0.58522 0.0
H1881 H 0.76733 0.7998 0.59639 0.0
H1882 H 0.83185 0.75132 0.71497 0.0
H1883 H 0.82443 0.77893 0.69449 0.0
H1884 H 0.81336 0.74838 0.63138 0.0
H1885 H 0.82065 0.7203 0.65207 0.0
H1886 H 0.77996 0.7558 0.64332 0.0
H1887 H 0.85775 0.79804 0.63189 0.0
H1888 H 0.89582 0.81362 0.64348 0.0
H1889 H 0.88389 0.84847 0.69235 0.0
H1890 H 0.84566 0.83286 0.68131 0.0
C1891 C 0.78952 0.85998 0.6167 0.0
C1892 C 0.77274 0.85666 0.63261 0.0
C1893 C 0.79648 0.84454 0.6176 0.0
C1894 C 0.78653 0.82546 0.63424 0.0
C1895 C 0.7692 0.82187 0.64962 0.0
C1896 C 0.76239 0.8374 0.64882 0.0
C1897 C 0.79538 0.81021 0.63704 0.0
C1898 C 0.81724 0.81854 0.64277 0.0
C1899 C 0.78197 0.7874 0.63641 0.0
C1900 C 0.75905 0.77785 0.62933 0.0
C1901 C 0.74179 0.76014 0.64383 0.0
C1902 C 0.7202 0.75132 0.63726 0.0
C1903 C 0.71565 0.76002 0.61618 0.0
C1904 C 0.73269 0.77752 0.60158 0.0
C1905 C 0.75431 0.78637 0.60804 0.0
C1906 C 0.82823 0.75066 0.6966 0.0
C1907 C 0.82688 0.73365 0.68512 0.0
C1908 C 0.82406 0.76652 0.68488 0.0
C1909 C 0.81844 0.76582 0.66136 0.0
C1910 C 0.81773 0.74926 0.64952 0.0
C1911 C 0.8221 0.73337 0.66127 0.0
C1912 C 0.81191 0.78159 0.65009 0.0
C1913 C 0.79044 0.77337 0.64294 0.0
C1914 C 0.82569 0.80454 0.6493 0.0
C1915 C 0.84879 0.81421 0.6558 0.0
C1916 C 0.86321 0.80894 0.64519 0.0
C1917 C 0.88483 0.81778 0.65166 0.0
C1918 C 0.89227 0.83201 0.66865 0.0
C1919 C 0.87811 0.83746 0.67917 0.0
C1920 C 0.85647 0.82865 0.67278 0.0
H1921 H 0.90901 0.83882 0.67365 0.0
H1922 H 0.69892 0.75318 0.61114 0.0
H1923 H 0.07124 0.8812 0.64692 0.0
H1924 H 0.03357 0.85057 0.64773 0.0
H1925 H 0.05737 0.80473 0.65758 0.0
H1926 H 0.09501 0.83549 0.65761 0.0
H1927 H 0.01293 0.81865 0.62117 0.0
H1928 H 0.01988 0.75905 0.69447 0.0
H1929 H 0.0416 0.76039 0.72876 0.0
H1930 H 0.05269 0.82462 0.73607 0.0
H1931 H 0.03077 0.82352 0.70207 0.0
H1932 H 0.91843 0.71355 0.62747 0.0
H1933 H 0.9563 0.74344 0.62562 0.0
H1934 H 0.94404 0.75919 0.69226 0.0
H1935 H 0.90616 0.7289 0.69455 0.0
H1936 H 0.98248 0.7608 0.69083 0.0
H1937 H 0.94591 0.78965 0.63994 0.0
H1938 H 0.923 0.78962 0.60728 0.0
H1939 H 0.96923 0.79026 0.55811 0.0
H1940 H -0.00773 0.78999 0.59055 0.0
C1941 C 0.0683 0.86455 0.64952 0.0
C1942 C 0.08578 0.86053 0.65279 0.0
C1943 C 0.04688 0.84711 0.6497 0.0
C1944 C 0.04263 0.82536 0.65308 0.0
C1945 C 0.06024 0.82137 0.65537 0.0
C1946 C 0.08167 0.83885 0.65527 0.0
C1947 C 0.01969 0.80692 0.65488 0.0
C1948 C 0.00629 0.80596 0.63636 0.0
C1949 C 0.01093 0.79056 0.67488 0.0
C1950 C 0.02388 0.79128 0.69557 0.0
C1951 C 0.02689 0.77342 0.70346 0.0
C1952 C 0.03924 0.77414 0.72283 0.0
C1953 C 0.04859 0.79261 0.73453 0.0
C1954 C 0.04552 0.81036 0.72694 0.0
C1955 C 0.03315 0.8097 0.70761 0.0
C1956 C 0.92375 0.72334 0.64177 0.0
C1957 C 0.90923 0.7189 0.66113 0.0
C1958 C 0.94541 0.74048 0.64063 0.0
C1959 C 0.95293 0.75374 0.65865 0.0
C1960 C 0.93857 0.74917 0.67815 0.0
C1961 C 0.91691 0.73191 0.67939 0.0
C1962 C 0.97574 0.77245 0.65705 0.0
C1963 C -0.01086 0.77343 0.67559 0.0
C1964 C 0.98436 0.78908 0.63729 0.0
C1965 C 0.97071 0.7896 0.6177 0.0
C1966 C 0.95113 0.78965 0.62218 0.0
C1967 C 0.93812 0.7897 0.60371 0.0
C1968 C 0.94462 0.78987 0.58064 0.0
C1969 C 0.9642 0.79009 0.57599 0.0
C1970 C 0.97725 0.79001 0.59441 0.0
H1971 H 0.93452 0.78988 0.56637 0.0
H1972 H 0.05816 0.79314 0.74951 0.0
H1973 H 0.1018 0.18078 0.66259 0.0
H1974 H 0.13137 0.17199 0.66517 0.0
H1975 H 0.17904 0.24114 0.65858 0.0
H1976 H 0.14926 0.24983 0.65653 0.0
H1977 H 0.18959 0.21686 0.63065 0.0
H1978 H 0.16509 0.21294 0.71092 0.0
H1979 H 0.13688 0.19928 0.74367 0.0
H1980 H 0.12261 0.13327 0.74073 0.0
H1981 H 0.1505 0.14653 0.70765 0.0
H1982 H 0.28523 0.22919 0.67025 0.0
H1983 H 0.25015 0.22808 0.67231 0.0
H1984 H 0.21614 0.15738 0.6782 0.0
H1985 H 0.25166 0.15842 0.67671 0.0
H1986 H 0.19539 0.1764 0.70505 0.0
H1987 H 0.22186 0.18038 0.62688 0.0
H1988 H 0.24994 0.19399 0.594 0.0
H1989 H 0.25975 0.259 0.59235 0.0
H1990 H 0.23198 0.24585 0.62551 0.0
C1991 C 0.11863 0.194 0.66184 0.0
C1992 C 0.12349 0.2159 0.65987 0.0
C1993 C 0.13541 0.18901 0.66319 0.0
C1994 C 0.15725 0.20592 0.6624 0.0
C1995 C 0.1622 0.22791 0.65932 0.0
C1996 C 0.14535 0.23287 0.65814 0.0
C1997 C 0.17495 0.20071 0.66545 0.0
C1998 C 0.19092 0.20809 0.64691 0.0
C1999 C 0.17613 0.18861 0.68644 0.0
C2000 C 0.15971 0.1807 0.70665 0.0
C2001 C 0.15583 0.1955 0.71714 0.0
C2002 C 0.13991 0.18783 0.73578 0.0
C2003 C 0.12792 0.16541 0.74424 0.0
C2004 C 0.13189 0.15063 0.73413 0.0
C2005 C 0.14775 0.15821 0.71545 0.0
C2006 C 0.27027 0.21337 0.67264 0.0
C2007 C 0.27093 0.1939 0.67304 0.0
C2008 C 0.25031 0.21276 0.67382 0.0
C2009 C 0.2307 0.1927 0.67489 0.0
C2010 C 0.23121 0.17299 0.67729 0.0
C2011 C 0.25137 0.17359 0.67645 0.0
C2012 C 0.21029 0.19307 0.67044 0.0
C2013 C 0.19381 0.18479 0.68863 0.0
C2014 C 0.20849 0.20421 0.64903 0.0
C2015 C 0.22492 0.21214 0.62878 0.0
C2016 C 0.2301 0.19761 0.61961 0.0
C2017 C 0.24595 0.20524 0.60091 0.0
C2018 C 0.25664 0.22736 0.59112 0.0
C2019 C 0.25146 0.24187 0.59996 0.0
C2020 C 0.23564 0.23433 0.61869 0.0
H2021 H 0.26892 0.23324 0.57665 0.0
H2022 H 0.1156 0.1595 0.75866 0.0
H2023 H 0.81128 0.93595 0.64145 0.0
H2024 H 0.82491 0.97372 0.64974 0.0
H2025 H 0.75897 0.95656 0.67108 0.0
H2026 H 0.74559 0.9188 0.66331 0.0
H2027 H 0.78045 0.99423 0.63685 0.0
H2028 H 0.79294 0.96312 0.71159 0.0
H2029 H 0.80889 0.94458 0.73695 0.0
H2030 H 0.87369 0.99595 0.71158 0.0
H2031 H 0.85808 0.01465 0.68583 0.0
H2032 H 0.77219 0.04899 0.72448 0.0
H2033 H 0.78323 0.02478 0.71047 0.0
H2034 H 0.82941 0.07771 0.65891 0.0
H2035 H 0.818 0.10242 0.67273 0.0
H2036 H 0.82914 0.02951 0.69976 0.0
H2037 H 0.81349 0.0608 0.62341 0.0
H2038 H 0.79402 0.07861 0.60388 0.0
H2039 H 0.73263 0.02525 0.63562 0.0
H2040 H 0.75187 0.00751 0.65602 0.0
C2041 C 0.79992 0.94027 0.64848 0.0
C2042 C 0.77746 0.92474 0.65177 0.0
C2043 C 0.80763 0.96176 0.653 0.0
C2044 C 0.79289 0.96794 0.66072 0.0
C2045 C 0.77055 0.95214 0.66486 0.0
C2046 C 0.76294 0.93066 0.66058 0.0
C2047 C 0.80037 0.99094 0.66392 0.0
C2048 C 0.79151 0.00214 0.65024 0.0
C2049 C 0.815 0.00136 0.68116 0.0
C2050 C 0.82436 0.9901 0.69655 0.0
C2051 C 0.81059 0.97033 0.71124 0.0
C2052 C 0.81956 0.95983 0.72572 0.0
C2053 C 0.84229 0.96903 0.7258 0.0
C2054 C 0.85609 0.9888 0.71145 0.0
C2055 C 0.84719 -0.00063 0.69691 0.0
C2056 C 0.78489 0.0557 0.71032 0.0
C2057 C 0.79385 0.07749 0.69929 0.0
C2058 C 0.79134 0.04184 0.70251 0.0
C2059 C 0.80689 0.04939 0.68352 0.0
C2060 C 0.81717 0.07157 0.67347 0.0
C2061 C 0.81067 0.08563 0.68135 0.0
C2062 C 0.80921 0.03271 0.67273 0.0
C2063 C 0.81936 0.02224 0.68527 0.0
C2064 C 0.79581 0.02292 0.65442 0.0
C2065 C 0.78412 0.03298 0.64137 0.0
C2066 C 0.79586 0.05296 0.62634 0.0
C2067 C 0.78489 0.06308 0.61521 0.0
C2068 C 0.76212 0.05311 0.61856 0.0
C2069 C 0.75027 0.03298 0.63308 0.0
C2070 C 0.76121 0.02292 0.64449 0.0
H2071 H 0.75365 0.06094 0.60982 0.0
H2072 H 0.84921 0.96088 0.73704 0.0
H2073 H 0.4931 0.42835 0.70363 0.0
H2074 H 0.46647 0.39107 0.69632 0.0
H2075 H 0.51224 0.36943 0.71735 0.0
H2076 H 0.53889 0.40689 0.7245 0.0
H2077 H 0.48894 0.34964 0.68003 0.0
H2078 H 0.47355 0.35996 0.75673 0.0
H2079 H 0.46768 0.37932 0.78618 0.0
H2080 H 0.41149 0.37444 0.75171 0.0
H2081 H 0.41717 0.35516 0.72181 0.0
H2082 H 0.39569 0.23983 0.68531 0.0
H2083 H 0.42696 0.27044 0.70106 0.0
H2084 H 0.4 0.31238 0.67983 0.0
H2085 H 0.36931 0.28237 0.66403 0.0
H2086 H 0.41672 0.31753 0.72424 0.0
H2087 H 0.43672 0.31299 0.64416 0.0
H2088 H 0.44274 0.2937 0.61453 0.0
H2089 H 0.49034 0.2872 0.65651 0.0
H2090 H 0.48436 0.30622 0.68655 0.0
C2091 C 0.49749 0.41565 0.70623 0.0
C2092 C 0.51782 0.42023 0.71464 0.0
C2093 C 0.48235 0.39442 0.70218 0.0
C2094 C 0.48726 0.37742 0.70677 0.0
C2095 C 0.50813 0.3823 0.7138 0.0
C2096 C 0.52332 0.40361 0.71777 0.0
C2097 C 0.47 0.35444 0.70566 0.0
C2098 C 0.4733 0.34242 0.69004 0.0
C2099 C 0.44965 0.34499 0.71883 0.0
C2100 C 0.44587 0.35623 0.73696 0.0
C2101 C 0.46 0.3631 0.75536 0.0
C2102 C 0.45669 0.37406 0.77215 0.0
C2103 C 0.43926 0.3782 0.77082 0.0
C2104 C 0.42501 0.37125 0.75272 0.0
C2105 C 0.42823 0.36025 0.73587 0.0
C2106 C 0.39638 0.25552 0.68443 0.0
C2107 C 0.38033 0.25891 0.67324 0.0
C2108 C 0.41419 0.27293 0.69332 0.0
C2109 C 0.41578 0.29365 0.69142 0.0
C2110 C 0.39906 0.29653 0.68147 0.0
C2111 C 0.38161 0.2794 0.67233 0.0
C2112 C 0.43539 0.3131 0.69798 0.0
C2113 C 0.43255 0.32451 0.71469 0.0
C2114 C 0.45613 0.3219 0.68587 0.0
C2115 C 0.45991 0.31076 0.6677 0.0
C2116 C 0.44835 0.3073 0.64714 0.0
C2117 C 0.45177 0.29644 0.63027 0.0
C2118 C 0.46686 0.28916 0.63368 0.0
C2119 C 0.47862 0.29281 0.65393 0.0
C2120 C 0.47523 0.30362 0.67087 0.0
H2121 H 0.46948 0.28075 0.6206 0.0
H2122 H 0.43677 0.38673 0.78384 0.0
H2123 H 0.56191 0.08075 0.6887 0.0
H2124 H 0.60049 0.09122 0.68258 0.0
H2125 H 0.61949 0.14722 0.71905 0.0
H2126 H 0.58072 0.137 0.72427 0.0
H2127 H 0.64415 0.15874 0.67828 0.0
H2128 H 0.62056 0.10248 0.74409 0.0
H2129 H 0.59618 0.06588 0.76633 0.0
H2130 H 0.61262 0.03575 0.71555 0.0
H2131 H 0.63614 0.07197 0.69221 0.0
H2132 H 0.75278 0.17069 0.69078 0.0
H2133 H 0.71831 0.17132 0.691 0.0
H2134 H 0.68902 0.11482 0.65406 0.0
H2135 H 0.72313 0.11378 0.65451 0.0
H2136 H 0.67113 0.10655 0.69871 0.0
H2137 H 0.69137 0.16221 0.63103 0.0
H2138 H 0.71433 0.19854 0.60757 0.0
H2139 H 0.70523 0.22971 0.66275 0.0
H2140 H 0.68244 0.19356 0.68669 0.0
C2141 C 0.5744 0.09506 0.69566 0.0
C2142 C 0.56866 0.10808 0.70697 0.0
C2143 C 0.59634 0.10106 0.6922 0.0
C2144 C 0.61283 0.11997 0.70044 0.0
C2145 C 0.607 0.1326 0.71253 0.0
C2146 C 0.58499 0.12665 0.7158 0.0
C2147 C 0.63611 0.12668 0.69578 0.0
C2148 C 0.65021 0.14748 0.68304 0.0
C2149 C 0.64385 0.11186 0.70185 0.0
C2150 C 0.63008 0.09003 0.71626 0.0
C2151 C 0.61887 0.08806 0.73752 0.0
C2152 C 0.60519 0.06737 0.75034 0.0
C2153 C 0.603 0.04855 0.74247 0.0
C2154 C 0.61437 0.05035 0.72165 0.0
C2155 C 0.6278 0.07096 0.70855 0.0
C2156 C 0.73933 0.1592 0.68156 0.0
C2157 C 0.74036 0.14207 0.67278 0.0
C2158 C 0.71962 0.15951 0.6818 0.0
C2159 C 0.70105 0.14286 0.67292 0.0
C2160 C 0.70314 0.12767 0.66119 0.0
C2161 C 0.72264 0.12717 0.66129 0.0
C2162 C 0.67886 0.13817 0.68023 0.0
C2163 C 0.66509 0.11782 0.69391 0.0
C2164 C 0.67155 0.15342 0.67509 0.0
C2165 C 0.6854 0.17517 0.66078 0.0
C2166 C 0.69446 0.17681 0.63828 0.0
C2167 C 0.70739 0.19738 0.62486 0.0
C2168 C 0.7113 0.21642 0.63369 0.0
C2169 C 0.70223 0.21494 0.65594 0.0
C2170 C 0.68928 0.19442 0.66944 0.0
H2171 H 0.7213 0.23233 0.62327 0.0
H2172 H 0.59245 0.03257 0.75249 0.0
H2173 H 0.8956 0.4815 0.69628 0.0
H2174 H 0.89071 0.51363 0.69215 0.0
H2175 H 0.8521 0.4891 0.75858 0.0
H2176 H 0.85589 0.45625 0.7616 0.0
H2177 H 0.83289 0.50296 0.7299 0.0
H2178 H 0.90668 0.53551 0.7507 0.0
H2179 H 0.94529 0.5445 0.74932 0.0
H2180 H 0.9551 0.57665 0.67822 0.0
H2181 H 0.91646 0.56756 0.67902 0.0
H2182 H 0.83583 0.60908 0.7137 0.0
H2183 H 0.84121 0.57877 0.73177 0.0
H2184 H 0.86685 0.57652 0.66463 0.0
H2185 H 0.86131 0.60602 0.64655 0.0
H2186 H 0.89363 0.57847 0.70298 0.0
H2187 H 0.81727 0.53924 0.68205 0.0
H2188 H 0.7788 0.5307 0.68481 0.0
H2189 H 0.7751 0.5125 0.75966 0.0
H2190 H 0.81366 0.52121 0.75735 0.0
C2191 C 0.88635 0.48327 0.71004 0.0
C2192 C 0.87656 0.46689 0.72951 0.0
C2193 C 0.88365 0.50164 0.70784 0.0
C2194 C 0.87148 0.50419 0.72537 0.0
C2195 C 0.86176 0.48771 0.74494 0.0
C2196 C 0.86414 0.46912 0.74687 0.0
C2197 C 0.86787 0.52336 0.72242 0.0
C2198 C 0.84631 0.51953 0.72457 0.0
C2199 C 0.88526 0.5451 0.71544 0.0
C2200 C 0.9086 0.55074 0.7149 0.0
C2201 C 0.91703 0.54438 0.73472 0.0
C2202 C 0.93893 0.54951 0.73404 0.0
C2203 C 0.95264 0.56112 0.71369 0.0
C2204 C 0.94447 0.56766 0.69398 0.0
C2205 C 0.92257 0.56255 0.69454 0.0
C2206 C 0.8424 0.60194 0.70281 0.0
C2207 C 0.84814 0.61003 0.67868 0.0
C2208 C 0.84553 0.58471 0.71315 0.0
C2209 C 0.85462 0.57558 0.69952 0.0
C2210 C 0.86002 0.58347 0.67549 0.0
C2211 C 0.8567 0.60033 0.66517 0.0
C2212 C 0.85875 0.55779 0.70975 0.0
C2213 C 0.88041 0.56193 0.70894 0.0
C2214 C 0.84155 0.53646 0.71826 0.0
C2215 C 0.81839 0.53113 0.71957 0.0
C2216 C 0.8083 0.5336 0.69912 0.0
C2217 C 0.78647 0.52869 0.70059 0.0
C2218 C 0.77453 0.52113 0.72241 0.0
C2219 C 0.78438 0.5184 0.74278 0.0
C2220 C 0.80621 0.52331 0.7414 0.0
H2221 H 0.75764 0.51734 0.72351 0.0
H2222 H 0.96959 0.56508 0.7132 0.0
H2223 H 0.48021 0.95652 0.29609 0.0
H2224 H 0.49664 0.9672 0.25542 0.0
H2225 H 0.46229 0.89912 0.24469 0.0
H2226 H 0.44593 0.88865 0.28537 0.0
H2227 H 0.52205 0.95682 0.22886 0.0
H2228 H 0.44235 0.89806 0.18822 0.0
H2229 H 0.40226 0.87861 0.19665 0.0
H2230 H 0.40913 0.92666 0.23999 0.0
H2231 H 0.44918 0.94666 0.23139 0.0
H2232 H 0.49898 0.95735 0.09286 0.0
H2233 H 0.49421 0.93822 0.13289 0.0
H2234 H 0.52652 0.00042 0.15954 0.0
H2235 H 0.53136 0.01959 0.11975 0.0
H2236 H 0.46903 0.94032 0.1667 0.0
H2237 H 0.54944 0.99615 0.21068 0.0
H2238 H 0.58929 0.01672 0.20059 0.0
H2239 H 0.58129 0.97463 0.14903 0.0
H2240 H 0.54147 0.95356 0.15907 0.0
C2241 C 0.4766 0.94396 0.28502 0.0
C2242 C 0.46195 0.92189 0.29347 0.0
C2243 C 0.48596 0.94997 0.26194 0.0
C2244 C 0.48052 0.93396 0.24698 0.0
C2245 C 0.46656 0.91173 0.25587 0.0
C2246 C 0.45731 0.90575 0.27899 0.0
C2247 C 0.48797 0.94077 0.22164 0.0
C2248 C 0.51052 0.95317 0.21521 0.0
C2249 C 0.47286 0.93565 0.20385 0.0
C2250 C 0.4488 0.92366 0.20941 0.0
C2251 C 0.4353 0.90446 0.19954 0.0
C2252 C 0.41258 0.89338 0.20431 0.0
C2253 C 0.40317 0.90139 0.21886 0.0
C2254 C 0.41645 0.92046 0.22875 0.0
C2255 C 0.43917 0.93167 0.22395 0.0
C2256 C 0.50564 0.96698 0.10716 0.0
C2257 C 0.5153 0.98998 0.1032 0.0
C2258 C 0.50283 0.956 0.13003 0.0
C2259 C 0.50994 0.96787 0.14923 0.0
C2260 C 0.52108 0.99091 0.14501 0.0
C2261 C 0.52375 0.00186 0.12223 0.0
C2262 C 0.5032 0.95646 0.1738 0.0
C2263 C 0.48069 0.94336 0.18018 0.0
C2264 C 0.51837 0.9609 0.19148 0.0
C2265 C 0.54239 0.97337 0.18553 0.0
C2266 C 0.55618 0.99119 0.19729 0.0
C2267 C 0.57877 0.00295 0.19156 0.0
C2268 C 0.58781 0.99702 0.17414 0.0
C2269 C 0.57427 0.97926 0.16246 0.0
C2270 C 0.55167 0.96742 0.16814 0.0
H2271 H 0.6053 0.00617 0.16972 0.0
H2272 H 0.38558 0.89291 0.2223 0.0
H2273 H 0.10653 0.55365 0.2512 0.0
H2274 H 0.09419 0.55104 0.21094 0.0
H2275 H 0.02737 0.50834 0.23914 0.0
H2276 H 0.03991 0.51112 0.27934 0.0
H2277 H 0.03736 0.49686 0.19726 0.0
H2278 H 0.04378 0.561 0.22703 0.0
H2279 H 0.06337 0.59539 0.24445 0.0
H2280 H 0.11294 0.6233 0.18738 0.0
H2281 H 0.09354 0.58909 0.16954 0.0
H2282 H 0.97516 0.50667 0.10936 0.0
H2283 H -0.00832 0.51299 0.14717 0.0
H2284 H 0.05532 0.55615 0.11118 0.0
H2285 H 0.03877 0.55013 0.0731 0.0
H2286 H 0.04985 0.56817 0.15526 0.0
H2287 H 0.04176 0.50532 0.12345 0.0
H2288 H 0.02166 0.47139 0.10539 0.0
H2289 H 0.97611 0.44073 0.16617 0.0
H2290 H -0.00423 0.47464 0.18444 0.0
C2291 C 0.08936 0.54309 0.24857 0.0
C2292 C 0.07407 0.53247 0.26799 0.0
C2293 C 0.0823 0.54178 0.22574 0.0
C2294 C 0.05985 0.52981 0.22217 0.0
C2295 C 0.04476 0.51769 0.24158 0.0
C2296 C 0.05185 0.51913 0.26442 0.0
C2297 C 0.05187 0.53151 0.19853 0.0
C2298 C 0.03997 0.5124 0.18814 0.0
C2299 C 0.05571 0.5519 0.18646 0.0
C2300 C 0.06734 0.57246 0.19709 0.0
C2301 C 0.05892 0.57444 0.21828 0.0
C2302 C 0.06996 0.5939 0.2282 0.0
C2303 C 0.08946 0.61146 0.21712 0.0
C2304 C 0.09786 0.60966 0.19598 0.0
C2305 C 0.08681 0.59028 0.18591 0.0
C2306 C -0.00745 0.51815 0.10951 0.0
C2307 C 0.00576 0.52764 0.08836 0.0
C2308 C 0.00198 0.52165 0.1311 0.0
C2309 C 0.02477 0.5345 0.13186 0.0
C2310 C 0.03771 0.54601 0.11088 0.0
C2311 C 0.02822 0.54264 0.08916 0.0
C2312 C 0.03507 0.53345 0.15416 0.0
C2313 C 0.04743 0.55266 0.16428 0.0
C2314 C 0.03176 0.51315 0.16594 0.0
C2315 C 0.02013 0.49258 0.15522 0.0
C2316 C 0.02738 0.49139 0.1329 0.0
C2317 C 0.01607 0.47216 0.12263 0.0
C2318 C -0.00241 0.45393 0.1346 0.0
C2319 C -0.00958 0.45488 0.15691 0.0
C2320 C 0.00165 0.47409 0.16724 0.0
H2321 H -0.01116 0.43906 0.12661 0.0
H2322 H 0.09801 0.62648 0.22487 0.0
H2323 H 0.46202 0.51545 0.30465 0.0
H2324 H 0.46558 0.50191 0.26831 0.0
H2325 H 0.4496 0.54725 0.228 0.0
H2326 H 0.44497 0.55967 0.26448 0.0
H2327 H 0.43406 0.51254 0.20811 0.0
H2328 H 0.50434 0.55935 0.23766 0.0
H2329 H 0.53246 0.57062 0.26682 0.0
H2330 H 0.53286 0.51012 0.26781 0.0
H2331 H 0.50465 0.49845 0.23874 0.0
H2332 H 0.48393 0.5236 0.09748 0.0
H2333 H 0.47916 0.53383 0.13535 0.0
H2334 H 0.4873 0.48155 0.17181 0.0
H2335 H 0.49241 0.47142 0.13414 0.0
H2336 H 0.50627 0.51819 0.19381 0.0
H2337 H 0.4368 0.47302 0.16169 0.0
H2338 H 0.41072 0.46417 0.13042 0.0
H2339 H 0.41026 0.52424 0.13296 0.0
H2340 H 0.43663 0.53362 0.16398 0.0
C2341 C 0.45853 0.52178 0.28803 0.0
C2342 C 0.45309 0.53836 0.28703 0.0
C2343 C 0.46084 0.51436 0.2673 0.0
C2344 C 0.45846 0.52401 0.24532 0.0
C2345 C 0.4516 0.53959 0.24466 0.0
C2346 C 0.44887 0.54663 0.2654 0.0
C2347 C 0.46464 0.51929 0.22291 0.0
C2348 C 0.44992 0.51395 0.20497 0.0
C2349 C 0.48526 0.52091 0.21878 0.0
C2350 C 0.50224 0.52794 0.23622 0.0
C2351 C 0.51035 0.54841 0.2442 0.0
C2352 C 0.52631 0.55487 0.26069 0.0
C2353 C 0.53438 0.54106 0.26924 0.0
C2354 C 0.52656 0.52079 0.26122 0.0
C2355 C 0.51062 0.51425 0.24471 0.0
C2356 C 0.48517 0.51458 0.11354 0.0
C2357 C 0.48815 0.49645 0.11284 0.0
C2358 C 0.48234 0.52037 0.13515 0.0
C2359 C 0.48234 0.50807 0.15633 0.0
C2360 C 0.48704 0.49111 0.15565 0.0
C2361 C 0.48991 0.48533 0.13409 0.0
C2362 C 0.4758 0.51169 0.17912 0.0
C2363 C 0.49041 0.51674 0.19707 0.0
C2364 C 0.4552 0.51007 0.18316 0.0
C2365 C 0.43881 0.5041 0.16504 0.0
C2366 C 0.4312 0.48438 0.15552 0.0
C2367 C 0.41638 0.47927 0.13783 0.0
C2368 C 0.40887 0.49365 0.12968 0.0
C2369 C 0.4161 0.51313 0.13928 0.0
C2370 C 0.43097 0.51834 0.15692 0.0
H2371 H 0.39742 0.48969 0.11595 0.0
H2372 H 0.54672 0.54608 0.28202 0.0
H2373 H 0.93568 0.4636 0.74049 0.0
H2374 H 0.95865 0.4752 0.77406 0.0
H2375 H 0.9017 0.46011 0.81765 0.0
H2376 H 0.87885 0.44752 0.78446 0.0
H2377 H 0.97036 0.50377 0.80277 0.0
H2378 H 0.90096 0.43494 0.87104 0.0
H2379 H 0.87056 0.397 0.87151 0.0
H2380 H 0.9018 0.38986 0.81172 0.0
H2381 H 0.93262 0.42754 0.81121 0.0
H2382 H 0.98251 0.53732 0.90991 0.0
H2383 H 0.97022 0.52204 0.87369 0.0
H2384 H 0.97565 0.46546 0.90112 0.0
H2385 H -0.01305 0.48045 0.93866 0.0
H2386 H 0.94143 0.45253 0.87775 0.0
H2387 H 0.01414 0.50662 0.85719 0.0
H2388 H 0.04819 0.54229 0.85577 0.0
H2389 H 0.01727 0.57456 0.81761 0.0
H2390 H 0.98293 0.53915 0.81908 0.0
C2391 C 0.92838 0.46349 0.75713 0.0
C2392 C 0.90571 0.45521 0.75995 0.0
C2393 C 0.94138 0.4699 0.77629 0.0
C2394 C 0.93178 0.46802 0.7985 0.0
C2395 C 0.90937 0.46126 0.8008 0.0
C2396 C 0.89639 0.45462 0.78173 0.0
C2397 C 0.94482 0.47232 0.81956 0.0
C2398 C 0.96415 0.49254 0.81912 0.0
C2399 C 0.93747 0.45705 0.84052 0.0
C2400 C 0.91907 0.43418 0.84101 0.0
C2401 C 0.90143 0.42525 0.85809 0.0
C2402 C 0.88411 0.40377 0.85835 0.0
C2403 C 0.88422 0.39105 0.84162 0.0
C2404 C 0.9017 0.39974 0.82465 0.0
C2405 C 0.91911 0.42116 0.82437 0.0
C2406 C 0.98128 0.52168 0.90825 0.0
C2407 C 0.9861 0.51025 0.92687 0.0
C2408 C 0.97439 0.51302 0.88741 0.0
C2409 C 0.9729 0.49305 0.88421 0.0
C2410 C 0.97711 0.48114 0.90303 0.0
C2411 C 0.98353 0.48965 0.92439 0.0
C2412 C 0.96598 0.48472 0.86136 0.0
C2413 C 0.94791 0.46363 0.86133 0.0
C2414 C 0.97514 0.49877 0.83968 0.0
C2415 C -0.00408 0.52016 0.83825 0.0
C2416 C 0.01457 0.52132 0.84854 0.0
C2417 C 0.03393 0.54151 0.84774 0.0
C2418 C 0.03489 0.56068 0.8366 0.0
C2419 C 0.01651 0.55969 0.82619 0.0
C2420 C -0.00289 0.53954 0.82694 0.0
H2421 H 0.04988 0.5763 0.83604 0.0
H2422 H 0.87077 0.37444 0.84184 0.0
H2423 H 0.56168 0.45827 0.78651 0.0
H2424 H 0.55496 0.4653 0.82577 0.0
H2425 H 0.52405 0.50083 0.79442 0.0
H2426 H 0.53063 0.49348 0.75528 0.0
H2427 H 0.55038 0.51941 0.83303 0.0
H2428 H 0.49074 0.44958 0.81501 0.0
H2429 H 0.47491 0.41266 0.80326 0.0
H2430 H 0.50502 0.39378 0.85971 0.0
H2431 H 0.52089 0.43062 0.8719 0.0
H2432 H 0.49222 0.51734 0.93252 0.0
H2433 H 0.4995 0.51164 0.89303 0.0
H2434 H 0.5152 0.46268 0.92377 0.0
H2435 H 0.50643 0.46741 0.96323 0.0
H2436 H 0.49784 0.45144 0.88517 0.0
H2437 H 0.55534 0.51942 0.9058 0.0
H2438 H 0.57126 0.55589 0.91882 0.0
H2439 H 0.54826 0.57889 0.85845 0.0
H2440 H 0.53195 0.54246 0.84523 0.0
C2441 C 0.55424 0.46828 0.78809 0.0
C2442 C 0.54686 0.47561 0.76815 0.0
C2443 C 0.55018 0.47208 0.81041 0.0
C2444 C 0.53875 0.48334 0.81297 0.0
C2445 C 0.53289 0.49213 0.79279 0.0
C2446 C 0.53676 0.48811 0.77051 0.0
C2447 C 0.53115 0.48419 0.83669 0.0
C2448 C 0.53876 0.50461 0.8444 0.0
C2449 C 0.51638 0.46484 0.85168 0.0
C2450 C 0.50713 0.44285 0.84421 0.0
C2451 C 0.49408 0.43758 0.82481 0.0
C2452 C 0.48505 0.41665 0.81812 0.0
C2453 C 0.48905 0.4009 0.83065 0.0
C2454 C 0.50198 0.40601 0.84999 0.0
C2455 C 0.51092 0.42688 0.85685 0.0
C2456 C 0.49644 0.5048 0.9307 0.0
C2457 C 0.49859 0.49264 0.95073 0.0
C2458 C 0.50098 0.50181 0.90819 0.0
C2459 C 0.50872 0.48732 0.90538 0.0
C2460 C 0.50945 0.47411 0.92542 0.0
C2461 C 0.5043 0.47667 0.94795 0.0
C2462 C 0.51706 0.48674 0.88179 0.0
C2463 C 0.50957 0.46633 0.874 0.0
C2464 C 0.53224 0.50615 0.8669 0.0
C2465 C 0.54226 0.52815 0.87464 0.0
C2466 C 0.55359 0.53222 0.89537 0.0
C2467 C 0.56268 0.55289 0.90278 0.0
C2468 C 0.56072 0.56968 0.8895 0.0
C2469 C 0.54973 0.56586 0.86873 0.0
C2470 C 0.54058 0.54521 0.86126 0.0
H2471 H 0.56776 0.58566 0.89527 0.0
H2472 H 0.48206 0.38469 0.82547 0.0
H2473 H 0.53777 0.12712 0.75835 0.0
H2474 H 0.53914 0.11826 0.80087 0.0
H2475 H 0.54244 0.06101 0.7888 0.0
H2476 H 0.54063 0.06977 0.74624 0.0
H2477 H 0.50828 0.08208 0.82785 0.0
H2478 H 0.57227 0.05168 0.83498 0.0
H2479 H 0.608 0.06138 0.81628 0.0
H2480 H 0.61947 0.1259 0.79035 0.0
H2481 H 0.58418 0.11689 0.80952 0.0
H2482 H 0.49018 0.01355 0.93725 0.0
H2483 H 0.49438 0.0303 0.89608 0.0
H2484 H 0.56079 0.0795 0.90625 0.0
H2485 H 0.55698 0.06209 0.94669 0.0
H2486 H 0.56201 0.06614 0.86852 0.0
H2487 H 0.51597 0.08996 0.89956 0.0
H2488 H 0.48377 0.08699 0.9203 0.0
H2489 H 0.44166 0.04553 0.87185 0.0
H2490 H 0.47355 0.04801 0.85099 0.0
C2491 C 0.53895 0.11276 0.76488 0.0
C2492 C 0.53857 0.09878 0.74933 0.0
C2493 C 0.53975 0.10772 0.78907 0.0
C2494 C 0.54065 0.08885 0.79803 0.0
C2495 C 0.54177 0.07566 0.78228 0.0
C2496 C 0.54078 0.08064 0.75805 0.0
C2497 C 0.53865 0.08205 0.82386 0.0
C2498 C 0.52005 0.07862 0.83679 0.0
C2499 C 0.55427 0.07805 0.83557 0.0
C2500 C 0.57534 0.08345 0.82346 0.0
C2501 C 0.58242 0.06796 0.82535 0.0
C2502 C 0.60267 0.07339 0.81477 0.0
C2503 C 0.616 0.09425 0.80215 0.0
C2504 C 0.60911 0.10973 0.8001 0.0
C2505 C 0.58897 0.10446 0.81082 0.0
C2506 C 0.5055 0.02813 0.93069 0.0
C2507 C 0.52327 0.03649 0.94502 0.0
C2508 C 0.50792 0.03775 0.90719 0.0
C2509 C 0.52794 0.05627 0.89794 0.0
C2510 C 0.54528 0.06513 0.91275 0.0
C2511 C 0.54305 0.05524 0.93593 0.0
C2512 C 0.53139 0.06577 0.87258 0.0
C2513 C 0.55022 0.06961 0.85966 0.0
C2514 C 0.51638 0.07088 0.86103 0.0
C2515 C 0.49714 0.06904 0.87382 0.0
C2516 C 0.49982 0.08005 0.89346 0.0
C2517 C 0.48164 0.07848 0.90522 0.0
C2518 C 0.46071 0.06607 0.89739 0.0
C2519 C 0.45789 0.05513 0.87787 0.0
C2520 C 0.47601 0.05663 0.86607 0.0
H2521 H 0.44669 0.06501 0.90634 0.0
H2522 H 0.63162 0.09838 0.7939 0.0
H2523 H 0.12063 0.27599 0.62663 0.0
H2524 H 0.13904 0.29381 0.5874 0.0
H2525 H 0.13174 0.23249 0.57218 0.0
H2526 H 0.11318 0.21471 0.61145 0.0
H2527 H 0.17224 0.26927 0.55372 0.0
H2528 H 0.09574 0.24463 0.55325 0.0
H2529 H 0.06064 0.24025 0.56758 0.0
H2530 H 0.08748 0.31009 0.55435 0.0
H2531 H 0.1229 0.31493 0.54033 0.0
H2532 H 0.17165 0.29806 0.42569 0.0
H2533 H 0.16542 0.27987 0.46651 0.0
H2534 H 0.17631 0.33912 0.49166 0.0
H2535 H 0.18287 0.35748 0.45127 0.0
H2536 H 0.13393 0.30074 0.50438 0.0
H2537 H 0.21078 0.32426 0.50248 0.0
H2538 H 0.24507 0.32697 0.48813 0.0
H2539 H 0.21667 0.25713 0.50493 0.0
H2540 H 0.18189 0.25386 0.51863 0.0
C2541 C 0.12328 0.26651 0.61493 0.0
C2542 C 0.11554 0.24409 0.62182 0.0
C2543 C 0.13379 0.27662 0.59265 0.0
C2544 C 0.13657 0.26439 0.57683 0.0
C2545 C 0.12983 0.24221 0.58415 0.0
C2546 C 0.11927 0.23209 0.6065 0.0
C2547 C 0.14453 0.27433 0.55203 0.0
C2548 C 0.16378 0.27593 0.54276 0.0
C2549 C 0.13342 0.28299 0.53784 0.0
C2550 C 0.11205 0.28016 0.54595 0.0
C2551 C 0.09421 0.25907 0.55356 0.0
C2552 C 0.07425 0.2565 0.56161 0.0
C2553 C 0.07185 0.27488 0.56193 0.0
C2554 C 0.08938 0.29587 0.55413 0.0
C2555 C 0.10941 0.29854 0.54612 0.0
C2556 C 0.17333 0.3074 0.43993 0.0
C2557 C 0.1774 0.32912 0.4352 0.0
C2558 C 0.16977 0.29697 0.46323 0.0
C2559 C 0.17019 0.30813 0.48201 0.0
C2560 C 0.17581 0.33023 0.47736 0.0
C2561 C 0.17956 0.34069 0.45422 0.0
C2562 C 0.16201 0.29625 0.50614 0.0
C2563 C 0.14247 0.29409 0.51525 0.0
C2564 C 0.17274 0.28685 0.5199 0.0
C2565 C 0.19355 0.28878 0.51125 0.0
C2566 C 0.21167 0.30941 0.50273 0.0
C2567 C 0.23124 0.31106 0.49476 0.0
C2568 C 0.23302 0.29223 0.49552 0.0
C2569 C 0.21524 0.27171 0.5043 0.0
C2570 C 0.19557 0.26994 0.51208 0.0
H2571 H 0.24819 0.29354 0.48937 0.0
H2572 H 0.05638 0.27286 0.56818 0.0
H2573 H 0.77417 0.9014 0.57445 0.0
H2574 H 0.75706 0.8906 0.5374 0.0
H2575 H 0.70755 0.82847 0.57477 0.0
H2576 H 0.72452 0.83971 0.61213 0.0
H2577 H 0.72781 0.83018 0.52568 0.0
H2578 H 0.69002 0.85867 0.56702 0.0
H2579 H 0.68861 0.88558 0.58935 0.0
H2580 H 0.72263 0.93655 0.53105 0.0
H2581 H 0.72452 0.90997 0.50848 0.0
H2582 H 0.6577 0.80395 0.43396 0.0
H2583 H 0.6699 0.8101 0.47359 0.0
H2584 H 0.70884 0.8797 0.44986 0.0
H2585 H 0.69589 0.87361 0.41009 0.0
H2586 H 0.69226 0.87253 0.49387 0.0
H2587 H 0.73135 0.84594 0.45276 0.0
H2588 H 0.73552 0.82072 0.43 0.0
H2589 H 0.70206 0.76799 0.48686 0.0
H2590 H 0.69743 0.79284 0.50984 0.0
C2591 C 0.75991 0.88528 0.57454 0.0
C2592 C 0.75036 0.87143 0.59588 0.0
C2593 C 0.75015 0.87916 0.55353 0.0
C2594 C 0.73091 0.85893 0.55354 0.0
C2595 C 0.72237 0.84421 0.57455 0.0
C2596 C 0.73203 0.85051 0.59574 0.0
C2597 C 0.719 0.85423 0.53184 0.0
C2598 C 0.71963 0.83905 0.51888 0.0
C2599 C 0.709 0.86641 0.5228 0.0
C2600 C 0.70761 0.88237 0.53617 0.0
C2601 C 0.69736 0.87565 0.55904 0.0
C2602 C 0.69642 0.89083 0.57172 0.0
C2603 C 0.70557 0.91278 0.56165 0.0
C2604 C 0.71558 0.91955 0.53884 0.0
C2605 C 0.71656 0.90443 0.52608 0.0
C2606 C 0.66854 0.82062 0.43731 0.0
C2607 C 0.67607 0.8383 0.41899 0.0
C2608 C 0.6756 0.8241 0.45992 0.0
C2609 C 0.69082 0.84526 0.46452 0.0
C2610 C 0.69724 0.86319 0.44663 0.0
C2611 C 0.68982 0.85974 0.42397 0.0
C2612 C 0.70094 0.84834 0.48752 0.0
C2613 C 0.70015 0.86337 0.5007 0.0
C2614 C 0.71101 0.83616 0.49666 0.0
C2615 C 0.71385 0.8212 0.48292 0.0
C2616 C 0.72474 0.82893 0.46034 0.0
C2617 C 0.72721 0.81471 0.44741 0.0
C2618 C 0.71901 0.79275 0.45695 0.0
C2619 C 0.70837 0.78499 0.47948 0.0
C2620 C 0.70584 0.79914 0.49247 0.0
H2621 H 0.72093 0.78177 0.44692 0.0
H2622 H 0.70487 0.92452 0.57152 0.0
H2623 H 0.10343 0.88214 0.60219 0.0
H2624 H 0.10799 0.87145 0.56447 0.0
H2625 H 0.15057 0.84909 0.59555 0.0
H2626 H 0.1464 0.86057 0.63306 0.0
H2627 H 0.16912 0.87456 0.55619 0.0
H2628 H 0.0981 0.81331 0.57948 0.0
H2629 H 0.0593 0.79464 0.5941 0.0
H2630 H 0.04469 0.82585 0.53327 0.0
H2631 H 0.08351 0.84507 0.51848 0.0
H2632 H 0.17045 0.81853 0.46108 0.0
H2633 H 0.16599 0.82909 0.4988 0.0
H2634 H 0.13423 0.86291 0.46525 0.0
H2635 H 0.13883 0.85257 0.42727 0.0
H2636 H 0.10998 0.83129 0.50552 0.0
H2637 H 0.18198 0.8912 0.48222 0.0
H2638 H 0.22101 0.90935 0.46875 0.0
H2639 H 0.23361 0.8779 0.53095 0.0
H2640 H 0.19457 0.85942 0.54467 0.0
C2641 C 0.11321 0.87435 0.60097 0.0
C2642 C 0.12442 0.87188 0.62028 0.0
C2643 C 0.11587 0.86829 0.5795 0.0
C2644 C 0.12953 0.85932 0.57719 0.0
C2645 C 0.13999 0.856 0.5969 0.0
C2646 C 0.13751 0.86234 0.61829 0.0
C2647 C 0.13419 0.85501 0.55381 0.0
C2648 C 0.15618 0.86475 0.5453 0.0
C2649 C 0.11728 0.84269 0.53937 0.0
C2650 C 0.0938 0.8308 0.54797 0.0
C2651 C 0.08666 0.81632 0.56928 0.0
C2652 C 0.06465 0.80562 0.5776 0.0
C2653 C 0.04954 0.80909 0.56465 0.0
C2654 C 0.05641 0.8232 0.5433 0.0
C2655 C 0.07842 0.83399 0.53493 0.0
C2656 C 0.16296 0.82863 0.46163 0.0
C2657 C 0.15491 0.83466 0.44128 0.0
C2658 C 0.16037 0.83459 0.48318 0.0
C2659 C 0.14961 0.84658 0.48478 0.0
C2660 C 0.14245 0.85352 0.46432 0.0
C2661 C 0.14529 0.84779 0.44264 0.0
C2662 C 0.14484 0.85079 0.50807 0.0
C2663 C 0.12286 0.84101 0.51652 0.0
C2664 C 0.16174 0.86278 0.52262 0.0
C2665 C 0.18528 0.87383 0.5144 0.0
C2666 C 0.19304 0.88808 0.49296 0.0
C2667 C 0.21518 0.89844 0.48529 0.0
C2668 C 0.22979 0.89476 0.49897 0.0
C2669 C 0.22228 0.88074 0.52037 0.0
C2670 C 0.20014 0.87034 0.52811 0.0
H2671 H 0.24693 0.90278 0.49301 0.0
H2672 H 0.03252 0.80082 0.57114 0.0
H2673 H 0.59932 0.82102 0.07029 0.0
H2674 H 0.6167 0.83465 0.10646 0.0
H2675 H 0.56721 0.77454 0.14748 0.0
H2676 H 0.54917 0.76183 0.11139 0.0
H2677 H 0.57677 0.80601 0.17119 0.0
H2678 H 0.61965 0.78399 0.12899 0.0
H2679 H 0.64103 0.78407 0.09497 0.0
H2680 H 0.68726 0.85238 0.09593 0.0
H2681 H 0.66596 0.85279 0.12974 0.0
H2682 H 0.63449 0.81282 0.27318 0.0
H2683 H 0.61877 0.79967 0.2364 0.0
H2684 H 0.66207 0.86382 0.19806 0.0
H2685 H 0.678 0.87703 0.23466 0.0
H2686 H 0.65598 0.83022 0.17344 0.0
H2687 H 0.61152 0.85109 0.21625 0.0
H2688 H 0.59068 0.84915 0.25184 0.0
H2689 H 0.54756 0.78016 0.25097 0.0
H2690 H 0.56833 0.78165 0.21554 0.0
C2691 C 0.59189 0.81118 0.08716 0.0
C2692 C 0.57301 0.79051 0.08832 0.0
C2693 C 0.60196 0.81873 0.10775 0.0
C2694 C 0.5936 0.80537 0.12968 0.0
C2695 C 0.57406 0.78512 0.13083 0.0
C2696 C 0.56378 0.77783 0.11031 0.0
C2697 C 0.60559 0.81191 0.1513 0.0
C2698 C 0.59403 0.81107 0.17168 0.0
C2699 C 0.6282 0.81872 0.15201 0.0
C2700 C 0.64108 0.81847 0.13175 0.0
C2701 C 0.63429 0.79906 0.12184 0.0
C2702 C 0.6464 0.79902 0.10261 0.0
C2703 C 0.66546 0.81823 0.09326 0.0
C2704 C 0.67247 0.83752 0.10316 0.0
C2705 C 0.66039 0.83766 0.12236 0.0
C2706 C 0.64093 0.82401 0.25688 0.0
C2707 C 0.65719 0.84606 0.2569 0.0
C2708 C 0.6319 0.81649 0.2359 0.0
C2709 C 0.63895 0.83094 0.21464 0.0
C2710 C 0.65631 0.85247 0.21433 0.0
C2711 C 0.66535 0.86 0.23529 0.0
C2712 C 0.62712 0.82423 0.1931 0.0
C2713 C 0.63872 0.82511 0.17281 0.0
C2714 C 0.60451 0.81719 0.19254 0.0
C2715 C 0.59156 0.81645 0.21334 0.0
C2716 C 0.59762 0.8355 0.22369 0.0
C2717 C 0.58584 0.83448 0.24384 0.0
C2718 C 0.56783 0.81454 0.25369 0.0
C2719 C 0.56152 0.79559 0.24333 0.0
C2720 C 0.57327 0.79652 0.2232 0.0
H2721 H 0.55876 0.81377 0.26932 0.0
H2722 H 0.67482 0.81816 0.07837 0.0
H2723 H 0.2237 0.77899 0.127 0.0
H2724 H 0.21286 0.78437 0.16512 0.0
H2725 H 0.19694 0.83157 0.1295 0.0
H2726 H 0.20727 0.82552 0.09136 0.0
H2727 H 0.22145 0.81548 0.19185 0.0
H2728 H 0.15135 0.82465 0.15295 0.0
H2729 H 0.12818 0.81544 0.11904 0.0
H2730 H 0.13508 0.7589 0.11598 0.0
H2731 H 0.15848 0.76792 0.14974 0.0
H2732 H 0.1385 0.83254 0.25962 0.0
H2733 H 0.15121 0.82788 0.22253 0.0
H2734 H 0.16858 0.78241 0.25973 0.0
H2735 H 0.15654 0.78765 0.29724 0.0
H2736 H 0.14387 0.79777 0.1968 0.0
H2737 H 0.21691 0.79122 0.23433 0.0
H2738 H 0.23931 0.80046 0.26882 0.0
H2739 H 0.2261 0.85258 0.27556 0.0
H2740 H 0.20397 0.84393 0.24086 0.0
C2741 C 0.21878 0.79119 0.12756 0.0
C2742 C 0.21646 0.80204 0.10652 0.0
C2743 C 0.2124 0.79413 0.14925 0.0
C2744 C 0.20353 0.80794 0.15016 0.0
C2745 C 0.20327 0.82045 0.1292 0.0
C2746 C 0.20951 0.81734 0.10749 0.0
C2747 C 0.19269 0.8075 0.1726 0.0
C2748 C 0.20444 0.81145 0.19299 0.0
C2749 C 0.17057 0.80251 0.1741 0.0
C2750 C 0.15679 0.79708 0.15366 0.0
C2751 C 0.14795 0.81029 0.14498 0.0
C2752 C 0.13485 0.80514 0.12576 0.0
C2753 C 0.1303 0.78668 0.11526 0.0
C2754 C 0.13882 0.77332 0.12398 0.0
C2755 C 0.15206 0.77848 0.14309 0.0
C2756 C 0.14455 0.82114 0.25993 0.0
C2757 C 0.14689 0.81079 0.28143 0.0
C2758 C 0.15185 0.81851 0.23865 0.0
C2759 C 0.16151 0.80535 0.23837 0.0
C2760 C 0.16176 0.79316 0.25959 0.0
C2761 C 0.15459 0.79593 0.281 0.0
C2762 C 0.1726 0.8058 0.21611 0.0
C2763 C 0.16089 0.80184 0.19573 0.0
C2764 C 0.1948 0.81097 0.21465 0.0
C2765 C 0.20858 0.81674 0.23515 0.0
C2766 C 0.21888 0.80472 0.2431 0.0
C2767 C 0.23153 0.80986 0.26269 0.0
C2768 C 0.23407 0.82705 0.27441 0.0
C2769 C 0.22407 0.83923 0.26649 0.0
C2770 C 0.21148 0.83422 0.24687 0.0
H2771 H 0.24383 0.83097 0.28959 0.0
H2772 H 0.12009 0.78268 0.10043 0.0
H2773 H 0.18383 0.38762 0.07313 0.0
H2774 H 0.18332 0.3747 0.11509 0.0
H2775 H 0.22456 0.44173 0.1276 0.0
H2776 H 0.22497 0.45449 0.08552 0.0
H2777 H 0.21541 0.3796 0.14645 0.0
H2778 H 0.20161 0.44561 0.17984 0.0
H2779 H 0.18764 0.47044 0.16558 0.0
H2780 H 0.14666 0.42525 0.11939 0.0
H2781 H 0.16004 0.39999 0.13371 0.0
H2782 H 0.22633 0.37604 0.26817 0.0
H2783 H 0.22885 0.38956 0.22659 0.0
H2784 H 0.15891 0.36345 0.22905 0.0
H2785 H 0.15625 0.35014 0.27129 0.0
H2786 H 0.18082 0.40374 0.2023 0.0
H2787 H 0.18121 0.33571 0.20734 0.0
H2788 H 0.19394 0.30972 0.22095 0.0
H2789 H 0.25835 0.3558 0.18921 0.0
H2790 H 0.24608 0.38218 0.17568 0.0
C2791 C 0.19311 0.39941 0.08489 0.0
C2792 C 0.20441 0.42191 0.07646 0.0
C2793 C 0.19284 0.39211 0.10872 0.0
C2794 C 0.20367 0.40729 0.12445 0.0
C2795 C 0.21592 0.42979 0.11576 0.0
C2796 C 0.21627 0.43705 0.09186 0.0
C2797 C 0.20083 0.3996 0.1501 0.0
C2798 C 0.20794 0.38494 0.15869 0.0
C2799 C 0.19067 0.40625 0.16594 0.0
C2800 C 0.18203 0.42104 0.15767 0.0
C2801 C 0.18953 0.44093 0.16673 0.0
C2802 C 0.18171 0.45508 0.15864 0.0
C2803 C 0.16633 0.44946 0.14153 0.0
C2804 C 0.15863 0.42962 0.13259 0.0
C2805 C 0.16633 0.41539 0.14068 0.0
C2806 C 0.21141 0.37317 0.26 0.0
C2807 C 0.19101 0.36174 0.27303 0.0
C2808 C 0.21291 0.38091 0.23614 0.0
C2809 C 0.19403 0.37714 0.22458 0.0
C2810 C 0.17368 0.36642 0.23763 0.0
C2811 C 0.17216 0.35877 0.26171 0.0
C2812 C 0.1957 0.38394 0.19875 0.0
C2813 C 0.18835 0.39843 0.1901 0.0
C2814 C 0.20542 0.37693 0.18278 0.0
C2815 C 0.21276 0.36098 0.19066 0.0
C2816 C 0.19812 0.34035 0.20339 0.0
C2817 C 0.20525 0.32554 0.21107 0.0
C2818 C 0.22695 0.33112 0.20599 0.0
C2819 C 0.24155 0.3515 0.19315 0.0
C2820 C 0.23451 0.36638 0.18545 0.0
H2821 H 0.23244 0.31964 0.21196 0.0
H2822 H 0.16034 0.46047 0.13525 0.0
H2823 H 0.76098 0.55447 0.93025 0.0
H2824 H 0.78128 0.57057 0.8917 0.0
H2825 H 0.83306 0.62318 0.92346 0.0
H2826 H 0.81242 0.60711 0.96205 0.0
H2827 H 0.81996 0.63782 0.88331 0.0
H2828 H 0.84115 0.58436 0.90692 0.0
H2829 H 0.83446 0.54739 0.92238 0.0
H2830 H 0.79769 0.52182 0.86281 0.0
H2831 H 0.80378 0.55857 0.8472 0.0
H2832 H 0.87684 0.68391 0.77493 0.0
H2833 H 0.87239 0.66606 0.81547 0.0
H2834 H 0.81935 0.60589 0.79641 0.0
H2835 H 0.82455 0.62333 0.75563 0.0
H2836 H 0.83851 0.59659 0.8325 0.0
H2837 H 0.81049 0.64634 0.81357 0.0
H2838 H 0.81362 0.68195 0.7983 0.0
H2839 H 0.86004 0.71296 0.84933 0.0
H2840 H 0.8574 0.67755 0.86467 0.0
C2841 C 0.77662 0.56954 0.92885 0.0
C2842 C 0.78512 0.57981 0.94883 0.0
C2843 C 0.78831 0.57858 0.90698 0.0
C2844 C 0.80877 0.59795 0.90479 0.0
C2845 C 0.81734 0.60818 0.92482 0.0
C2846 C 0.80564 0.59906 0.94674 0.0
C2847 C 0.82061 0.60801 0.88133 0.0
C2848 C 0.82452 0.62903 0.87241 0.0
C2849 C 0.82601 0.59626 0.86696 0.0
C2850 C 0.82284 0.57424 0.87594 0.0
C2851 C 0.83155 0.57084 0.89716 0.0
C2852 C 0.82785 0.54992 0.90596 0.0
C2853 C 0.81564 0.53227 0.89359 0.0
C2854 C 0.80715 0.53552 0.87237 0.0
C2855 C 0.81074 0.5564 0.86352 0.0
C2856 C 0.86483 0.66663 0.77923 0.0
C2857 C 0.85079 0.65509 0.76231 0.0
C2858 C 0.86221 0.65647 0.8024 0.0
C2859 C 0.845 0.63489 0.80915 0.0
C2860 C 0.83259 0.62262 0.79169 0.0
C2861 C 0.83558 0.63262 0.76835 0.0
C2862 C 0.83769 0.62635 0.83441 0.0
C2863 C 0.83446 0.60558 0.84362 0.0
C2864 C 0.83258 0.63817 0.84905 0.0
C2865 C 0.83393 0.65938 0.84008 0.0
C2866 C 0.82144 0.66078 0.82145 0.0
C2867 C 0.82313 0.68092 0.81278 0.0
C2868 C 0.83707 0.69972 0.8228 0.0
C2869 C 0.84929 0.6984 0.84156 0.0
C2870 C 0.8477 0.6783 0.85024 0.0
H2871 H 0.83836 0.7153 0.81607 0.0
H2872 H 0.81278 0.51607 0.90045 0.0
H2873 H 0.38249 0.17644 0.94466 0.0
H2874 H 0.36558 0.17022 0.90661 0.0
H2875 H 0.42571 0.22386 0.87141 0.0
H2876 H 0.44229 0.22997 0.90947 0.0
H2877 H 0.39069 0.22901 0.86165 0.0
H2878 H 0.40908 0.17222 0.86285 0.0
H2879 H 0.40996 0.13895 0.87965 0.0
H2880 H 0.33967 0.10138 0.88226 0.0
H2881 H 0.33835 0.13454 0.86585 0.0
H2882 H 0.36547 0.21387 0.74145 0.0
H2883 H 0.38057 0.2201 0.78013 0.0
H2884 H 0.31968 0.16622 0.81339 0.0
H2885 H 0.30452 0.15988 0.77495 0.0
H2886 H 0.35425 0.16084 0.82467 0.0
H2887 H 0.33568 0.21727 0.82335 0.0
H2888 H 0.33453 0.25049 0.80695 0.0
H2889 H 0.40477 0.28855 0.80469 0.0
H2890 H 0.40637 0.25547 0.82081 0.0
C2891 C 0.39219 0.1862 0.92858 0.0
C2892 C 0.41364 0.20341 0.9296 0.0
C2893 C 0.38258 0.18282 0.90696 0.0
C2894 C 0.3944 0.19669 0.88622 0.0
C2895 C 0.4163 0.21305 0.8872 0.0
C2896 C 0.42584 0.21636 0.90876 0.0
C2897 C 0.38347 0.19546 0.86389 0.0
C2898 C 0.38298 0.21419 0.85336 0.0
C2899 C 0.37286 0.17594 0.85356 0.0
C2900 C 0.37361 0.15594 0.86335 0.0
C2901 C 0.39379 0.15692 0.86721 0.0
C2902 C 0.39438 0.13807 0.87663 0.0
C2903 C 0.37488 0.11807 0.88208 0.0
C2904 C 0.35476 0.11689 0.87807 0.0
C2905 C 0.35409 0.13571 0.8687 0.0
C2906 C 0.35506 0.20385 0.75706 0.0
C2907 C 0.33391 0.18622 0.75515 0.0
C2908 C 0.36373 0.20736 0.77915 0.0
C2909 C 0.35131 0.19341 0.79957 0.0
C2910 C 0.3296 0.17699 0.79782 0.0
C2911 C 0.32094 0.17349 0.77584 0.0
C2912 C 0.36158 0.19442 0.82233 0.0
C2913 C 0.36193 0.17564 0.83297 0.0
C2914 C 0.37204 0.21389 0.83278 0.0
C2915 C 0.37116 0.23383 0.82306 0.0
C2916 C 0.3509 0.23267 0.81916 0.0
C2917 C 0.35016 0.25149 0.80996 0.0
C2918 C 0.36957 0.2716 0.80472 0.0
C2919 C 0.38975 0.27295 0.80873 0.0
C2920 C 0.39058 0.25417 0.81792 0.0
H2921 H 0.36896 0.28616 0.79759 0.0
H2922 H 0.37536 0.10349 0.88936 0.0
H2923 H 0.78248 0.1792 0.96323 0.0
H2924 H 0.78154 0.16496 0.92603 0.0
H2925 H 0.79056 0.22552 0.88741 0.0
H2926 H 0.78955 0.23868 0.92458 0.0
H2927 H 0.76601 0.19546 0.86477 0.0
H2928 H 0.83397 0.21358 0.89956 0.0
H2929 H 0.85783 0.212 0.93043 0.0
H2930 H 0.83141 0.14319 0.92764 0.0
H2931 H 0.80714 0.14429 0.897 0.0
H2932 H 0.80851 0.18559 0.75644 0.0
H2933 H 0.80961 0.19943 0.79401 0.0
H2934 H 0.78072 0.13347 0.8309 0.0
H2935 H 0.77922 0.11954 0.79365 0.0
H2936 H 0.81643 0.16689 0.8535 0.0
H2937 H 0.74866 0.15134 0.81669 0.0
H2938 H 0.72793 0.15609 0.78394 0.0
H2939 H 0.75829 0.22492 0.78898 0.0
H2940 H 0.77947 0.22061 0.82159 0.0
C2941 C 0.78345 0.18899 0.94675 0.0
C2942 C 0.78602 0.20991 0.94653 0.0
C2943 C 0.78336 0.18111 0.92551 0.0
C2944 C 0.78662 0.19442 0.90383 0.0
C2945 C 0.78812 0.21493 0.9038 0.0
C2946 C 0.78762 0.22249 0.92496 0.0
C2947 C 0.78929 0.18756 0.88116 0.0
C2948 C 0.77726 0.18948 0.86232 0.0
C2949 C 0.80391 0.17965 0.87781 0.0
C2950 C 0.81858 0.17898 0.89616 0.0
C2951 C 0.83315 0.19808 0.90564 0.0
C2952 C 0.84675 0.19728 0.92309 0.0
C2953 C 0.8461 0.1775 0.93103 0.0
C2954 C 0.83187 0.15849 0.9215 0.0
C2955 C 0.81819 0.1592 0.90409 0.0
C2956 C 0.80271 0.17414 0.77263 0.0
C2957 C 0.79358 0.15149 0.77217 0.0
C2958 C 0.80331 0.18203 0.79399 0.0
C2959 C 0.79512 0.16739 0.81511 0.0
C2960 C 0.78711 0.14497 0.81477 0.0
C2961 C 0.78615 0.13706 0.79348 0.0
C2962 C 0.79326 0.17495 0.83741 0.0
C2963 C 0.80535 0.17305 0.85611 0.0
C2964 C 0.77911 0.18336 0.84048 0.0
C2965 C 0.76595 0.18575 0.82127 0.0
C2966 C 0.75109 0.16753 0.81066 0.0
C2967 C 0.73923 0.17013 0.79215 0.0
C2968 C 0.7419 0.19082 0.78429 0.0
C2969 C 0.75633 0.20893 0.79501 0.0
C2970 C 0.76826 0.20642 0.81349 0.0
H2971 H 0.73271 0.19281 0.76995 0.0
H2972 H 0.85665 0.1769 0.94454 0.0
H2973 H 0.21617 0.10473 0.44268 0.0
H2974 H 0.23428 0.11593 0.47914 0.0
H2975 H 0.29446 0.16284 0.43827 0.0
H2976 H 0.27621 0.15077 0.4018 0.0
H2977 H 0.3027 0.14097 0.47348 0.0
H2978 H 0.2627 0.17898 0.46626 0.0
H2979 H 0.23027 0.18318 0.46001 0.0
H2980 H 0.19739 0.13789 0.52279 0.0
H2981 H 0.22947 0.13308 0.52918 0.0
H2982 H 0.35181 0.20262 0.56872 0.0
H2983 H 0.33656 0.18891 0.53203 0.0
H2984 H 0.27992 0.13417 0.57146 0.0
H2985 H 0.29519 0.14769 0.60837 0.0
H2986 H 0.27069 0.16048 0.53691 0.0
H2987 H 0.31301 0.1239 0.54343 0.0
H2988 H 0.34681 0.12205 0.54879 0.0
H2989 H 0.3774 0.16856 0.48626 0.0
H2990 H 0.34389 0.17097 0.48073 0.0
C2991 C 0.23313 0.11772 0.44169 0.0
C2992 C 0.24487 0.12724 0.41982 0.0
C2993 C 0.24348 0.1241 0.46238 0.0
C2994 C 0.26568 0.14043 0.46143 0.0
C2995 C 0.27733 0.15025 0.4394 0.0
C2996 C 0.26696 0.14361 0.41867 0.0
C2997 C 0.27672 0.14669 0.48355 0.0
C2998 C 0.29588 0.14555 0.48721 0.0
C2999 C 0.26763 0.15235 0.5016 0.0
C3000 C 0.24845 0.15553 0.4981 0.0
C3001 C 0.24851 0.16981 0.47866 0.0
C3002 C 0.23019 0.1723 0.4751 0.0
C3003 C 0.21178 0.16078 0.49098 0.0
C3004 C 0.21167 0.14679 0.5105 0.0
C3005 C 0.22992 0.14418 0.51411 0.0
C3006 C 0.33635 0.18738 0.56961 0.0
C3007 C 0.32459 0.1763 0.59136 0.0
C3008 C 0.3277 0.17956 0.54865 0.0
C3009 C 0.3071 0.16062 0.54911 0.0
C3010 C 0.29584 0.14885 0.57084 0.0
C3011 C 0.30464 0.15651 0.59187 0.0
C3012 C 0.29644 0.15449 0.52687 0.0
C3013 C 0.27742 0.15581 0.52317 0.0
C3014 C 0.3059 0.14942 0.50867 0.0
C3015 C 0.32597 0.14775 0.51178 0.0
C3016 C 0.32699 0.13386 0.53092 0.0
C3017 C 0.3461 0.13269 0.53397 0.0
C3018 C 0.36426 0.14521 0.5179 0.0
C3019 C 0.36333 0.15888 0.4987 0.0
C3020 C 0.34427 0.16013 0.49559 0.0
H3021 H 0.37904 0.14429 0.52031 0.0
H3022 H 0.1976 0.16273 0.48818 0.0
H3023 H 0.87631 0.15673 0.42505 0.0
H3024 H 0.86797 0.16268 0.4642 0.0
H3025 H 0.88269 0.11354 0.49656 0.0
H3026 H 0.89118 0.10791 0.45737 0.0
H3027 H 0.84009 0.10429 0.50778 0.0
H3028 H 0.91349 0.16388 0.50703 0.0
H3029 H 0.9465 0.19845 0.49072 0.0
H3030 H 0.91033 0.23258 0.48969 0.0
H3031 H 0.87697 0.19812 0.50562 0.0
H3032 H 0.82251 0.11926 0.62755 0.0
H3033 H 0.83454 0.11294 0.59059 0.0
H3034 H 0.82539 0.16386 0.55227 0.0
H3035 H 0.81345 0.17023 0.58887 0.0
H3036 H 0.8672 0.17159 0.54563 0.0
H3037 H 0.79382 0.11312 0.54281 0.0
H3038 H 0.75927 0.07865 0.55521 0.0
H3039 H 0.79389 0.04283 0.56073 0.0
H3040 H 0.82874 0.07717 0.54868 0.0
C3041 C 0.87878 0.1481 0.44065 0.0
C3042 C 0.88457 0.1321 0.4385 0.0
C3043 C 0.87385 0.1513 0.46293 0.0
C3044 C 0.87456 0.1384 0.48325 0.0
C3045 C 0.88202 0.12362 0.48111 0.0
C3046 C 0.88713 0.12061 0.45886 0.0
C3047 C 0.86492 0.13833 0.50621 0.0
C3048 C 0.84628 0.11887 0.51639 0.0
C3049 C 0.8726 0.15755 0.51688 0.0
C3050 C 0.89265 0.17834 0.50733 0.0
C3051 C 0.9125 0.1787 0.50312 0.0
C3052 C 0.93129 0.19829 0.49398 0.0
C3053 C 0.9305 0.21769 0.48912 0.0
C3054 C 0.91091 0.21754 0.49344 0.0
C3055 C 0.89206 0.19798 0.50255 0.0
C3056 C 0.82235 0.12855 0.61114 0.0
C3057 C 0.81729 0.14542 0.61112 0.0
C3058 C 0.82933 0.12502 0.59005 0.0
C3059 C 0.83117 0.13819 0.56876 0.0
C3060 C 0.82435 0.15372 0.56854 0.0
C3061 C 0.81741 0.15724 0.58947 0.0
C3062 C 0.84224 0.13755 0.54717 0.0
C3063 C 0.86115 0.15691 0.53722 0.0
C3064 C 0.83467 0.11827 0.5366 0.0
C3065 C 0.81395 0.09778 0.5451 0.0
C3066 C 0.79414 0.09796 0.547 0.0
C3067 C 0.77447 0.07841 0.55381 0.0
C3068 C 0.77437 0.05855 0.55862 0.0
C3069 C 0.79397 0.05822 0.55686 0.0
C3070 C 0.81369 0.07772 0.55008 0.0
H3071 H 0.75912 0.04343 0.56387 0.0
H3072 H 0.94507 0.23284 0.48205 0.0
H3073 H 0.85204 0.73743 0.41254 0.0
H3074 H 0.84908 0.7245 0.45483 0.0
H3075 H 0.89293 0.791 0.46746 0.0
H3076 H 0.89585 0.80376 0.42486 0.0
H3077 H 0.87869 0.72742 0.48909 0.0
H3078 H 0.87016 0.79653 0.51832 0.0
H3079 H 0.86194 0.8255 0.5024 0.0
H3080 H 0.82029 0.78448 0.45334 0.0
H3081 H 0.82823 0.75527 0.46902 0.0
H3082 H 0.84607 0.72202 0.61852 0.0
H3083 H 0.85774 0.74438 0.57967 0.0
H3084 H 0.82087 0.6861 0.54674 0.0
H3085 H 0.80923 0.66365 0.58536 0.0
H3086 H 0.83906 0.75164 0.53818 0.0
H3087 H 0.8549 0.68554 0.50592 0.0
H3088 H 0.864 0.65754 0.52303 0.0
H3089 H 0.8934 0.69438 0.58001 0.0
H3090 H 0.88485 0.72277 0.56303 0.0
C3091 C 0.86147 0.74905 0.4244 0.0
C3092 C 0.87422 0.77142 0.41582 0.0
C3093 C 0.8598 0.74176 0.44844 0.0
C3094 C 0.8706 0.75683 0.46428 0.0
C3095 C 0.88435 0.77915 0.45552 0.0
C3096 C 0.88613 0.78641 0.43134 0.0
C3097 C 0.86567 0.74913 0.48991 0.0
C3098 C 0.87004 0.73271 0.49983 0.0
C3099 C 0.85505 0.75659 0.50414 0.0
C3100 C 0.84997 0.77386 0.49468 0.0
C3101 C 0.85923 0.79371 0.50415 0.0
C3102 C 0.85465 0.81017 0.49515 0.0
C3103 C 0.84068 0.80686 0.4768 0.0
C3104 C 0.8312 0.78706 0.46746 0.0
C3105 C 0.83577 0.77057 0.47637 0.0
C3106 C 0.83979 0.71404 0.60306 0.0
C3107 C 0.82697 0.69099 0.60499 0.0
C3108 C 0.8466 0.72686 0.58086 0.0
C3109 C 0.84065 0.71679 0.56038 0.0
C3110 C 0.82601 0.6941 0.56237 0.0
C3111 C 0.81926 0.68131 0.58447 0.0
C3112 C 0.85128 0.7293 0.53701 0.0
C3113 C 0.84807 0.74664 0.5276 0.0
C3114 C 0.8633 0.72294 0.52332 0.0
C3115 C 0.86905 0.70619 0.53328 0.0
C3116 C 0.86344 0.68774 0.52201 0.0
C3117 C 0.86848 0.67179 0.5317 0.0
C3118 C 0.87921 0.67415 0.55262 0.0
C3119 C 0.88503 0.69253 0.56384 0.0
C3120 C 0.88007 0.70855 0.55419 0.0
H3121 H 0.88305 0.66175 0.56012 0.0
H3122 H 0.83715 0.81962 0.46985 0.0
loop_
_geom_bond_atom_site_label_1
_geom_bond_atom_site_label_2
_geom_bond_distance
_geom_bond_site_symmetry_2
_ccdc_geom_bond_type
C0 N1 1.317 . S
C0 N2 1.348 . S
C0 C3 1.485 . S
N1 C0 1.317 . S
N1 N5 1.370 . S
N2 C0 1.348 . S
N2 C4 1.346 . S
C3 C0 1.485 . S
C3 H7 0.960 . S
C3 H8 0.961 . S
C3 H9 0.960 . S
C4 N2 1.346 . S
C4 N5 1.307 . S
C4 C6 1.486 . S
N5 N1 1.370 . S
N5 C4 1.307 . S
C6 C4 1.486 . S
C6 H10 0.960 . S
C6 H11 0.960 . S
C6 H12 0.959 . S
H7 C3 0.960 . S
H8 C3 0.961 . S
H9 C3 0.960 . S
H10 C6 0.960 . S
H11 C6 0.960 . S
H12 C6 0.959 . S
C13 N14 1.317 . S
C13 N15 1.348 . S
C13 C16 1.485 . S
N14 C13 1.317 . S
N14 N18 1.370 . S
N15 C13 1.348 . S
N15 C17 1.346 . S
C16 C13 1.485 . S
C16 H20 0.960 . S
C16 H21 0.961 . S
C16 H22 0.960 . S
C17 N15 1.346 . S
C17 N18 1.307 . S
C17 C19 1.486 . S
N18 N14 1.370 . S
N18 C17 1.307 . S
C19 C17 1.486 . S
C19 H23 0.960 . S
C19 H24 0.960 . S
C19 H25 0.959 . S
H20 C16 0.960 . S
H21 C16 0.961 . S
H22 C16 0.960 . S
H23 C19 0.960 . S
H24 C19 0.960 . S
H25 C19 0.959 . S
C26 N27 1.317 . S
C26 N28 1.348 . S
C26 C29 1.485 . S
N27 C26 1.317 . S
N27 N31 1.370 . S
N28 C26 1.348 . S
N28 C30 1.346 . S
C29 C26 1.485 . S
C29 H33 0.960 . S
C29 H34 0.961 . S
C29 H35 0.960 . S
C30 N28 1.346 . S
C30 N31 1.307 . S
C30 C32 1.486 . S
N31 N27 1.370 . S
N31 C30 1.307 . S
C32 C30 1.486 . S
C32 H36 0.960 . S
C32 H37 0.960 . S
C32 H38 0.959 . S
H33 C29 0.960 . S
H34 C29 0.961 . S
H35 C29 0.960 . S
H36 C32 0.960 . S
H37 C32 0.960 . S
H38 C32 0.959 . S
C39 N40 1.317 . S
C39 N41 1.348 . S
C39 C42 1.485 . S
N40 C39 1.317 . S
N40 N44 1.370 . S
N41 C39 1.348 . S
N41 C43 1.346 . S
C42 C39 1.485 . S
C42 H46 0.960 . S
C42 H47 0.961 . S
C42 H48 0.960 . S
C43 N41 1.346 . S
C43 N44 1.307 . S
C43 C45 1.486 . S
N44 N40 1.370 . S
N44 C43 1.307 . S
C45 C43 1.486 . S
C45 H49 0.960 . S
C45 H50 0.960 . S
C45 H51 0.959 . S
H46 C42 0.960 . S
H47 C42 0.961 . S
H48 C42 0.960 . S
H49 C45 0.960 . S
H50 C45 0.960 . S
H51 C45 0.959 . S
C52 N53 1.317 . S
C52 N54 1.348 . S
C52 C55 1.485 . S
N53 C52 1.317 . S
N53 N57 1.370 . S
N54 C52 1.348 . S
N54 C56 1.346 . S
C55 C52 1.485 . S
C55 H59 0.960 . S
C55 H60 0.961 . S
C55 H61 0.960 . S
C56 N54 1.346 . S
C56 N57 1.307 . S
C56 C58 1.486 . S
N57 N53 1.370 . S
N57 C56 1.307 . S
C58 C56 1.486 . S
C58 H62 0.960 . S
C58 H63 0.960 . S
C58 H64 0.959 . S
H59 C55 0.960 . S
H60 C55 0.961 . S
H61 C55 0.960 . S
H62 C58 0.960 . S
H63 C58 0.960 . S
H64 C58 0.959 . S
C65 N66 1.317 . S
C65 N67 1.348 . S
C65 C68 1.485 . S
N66 C65 1.317 . S
N66 N70 1.370 . S
N67 C65 1.348 . S
N67 C69 1.346 . S
C68 C65 1.485 . S
C68 H72 0.960 . S
C68 H73 0.961 . S
C68 H74 0.960 . S
C69 N67 1.346 . S
C69 N70 1.307 . S
C69 C71 1.486 . S
N70 N66 1.370 . S
N70 C69 1.307 . S
C71 C69 1.486 . S
C71 H75 0.960 . S
C71 H76 0.960 . S
C71 H77 0.959 . S
H72 C68 0.960 . S
H73 C68 0.961 . S
H74 C68 0.960 . S
H75 C71 0.960 . S
H76 C71 0.960 . S
H77 C71 0.959 . S
C78 N79 1.317 . S
C78 N80 1.348 . S
C78 C81 1.485 . S
N79 C78 1.317 . S
N79 N83 1.370 . S
N80 C78 1.348 . S
N80 C82 1.346 . S
C81 C78 1.485 . S
C81 H85 0.960 . S
C81 H86 0.961 . S
C81 H87 0.960 . S
C82 N80 1.346 . S
C82 N83 1.307 . S
C82 C84 1.486 . S
N83 N79 1.370 . S
N83 C82 1.307 . S
C84 C82 1.486 . S
C84 H88 0.960 . S
C84 H89 0.960 . S
C84 H90 0.959 . S
H85 C81 0.960 . S
H86 C81 0.961 . S
H87 C81 0.960 . S
H88 C84 0.960 . S
H89 C84 0.960 . S
H90 C84 0.959 . S
C91 N92 1.317 . S
C91 N93 1.348 . S
C91 C94 1.485 . S
N92 C91 1.317 . S
N92 N96 1.370 . S
N93 C91 1.348 . S
N93 C95 1.346 . S
C94 C91 1.485 . S
C94 H98 0.960 . S
C94 H99 0.961 . S
C94 H100 0.960 . S
C95 N93 1.346 . S
C95 N96 1.307 . S
C95 C97 1.486 . S
N96 N92 1.370 . S
N96 C95 1.307 . S
C97 C95 1.486 . S
C97 H101 0.960 . S
C97 H102 0.960 . S
C97 H103 0.959 . S
H98 C94 0.960 . S
H99 C94 0.961 . S
H100 C94 0.960 . S
H101 C97 0.960 . S
H102 C97 0.960 . S
H103 C97 0.959 . S
C104 N105 1.317 . S
C104 N106 1.348 . S
C104 C107 1.485 . S
N105 C104 1.317 . S
N105 N109 1.370 . S
N106 C104 1.348 . S
N106 C108 1.346 . S
C107 C104 1.485 . S
C107 H111 0.960 . S
C107 H112 0.961 . S
C107 H113 0.960 . S
C108 N106 1.346 . S
C108 N109 1.307 . S
C108 C110 1.486 . S
N109 N105 1.370 . S
N109 C108 1.307 . S
C110 C108 1.486 . S
C110 H114 0.960 . S
C110 H115 0.960 . S
C110 H116 0.959 . S
H111 C107 0.960 . S
H112 C107 0.961 . S
H113 C107 0.960 . S
H114 C110 0.960 . S
H115 C110 0.960 . S
H116 C110 0.959 . S
C117 N118 1.317 1_554 S
C117 N119 1.348 1_554 S
C117 C120 1.485 . S
N118 C117 1.317 1_556 S
N118 N122 1.370 . S
N119 C117 1.348 1_556 S
N119 C121 1.346 . S
C120 C117 1.485 . S
C120 H124 0.960 . S
C120 H125 0.961 . S
C120 H126 0.960 . S
C121 N119 1.346 . S
C121 N122 1.307 . S
C121 C123 1.486 . S
N122 N118 1.370 . S
N122 C121 1.307 . S
C123 C121 1.486 . S
C123 H127 0.960 . S
C123 H128 0.960 . S
C123 H129 0.959 . S
H124 C120 0.960 . S
H125 C120 0.961 . S
H126 C120 0.960 . S
H127 C123 0.960 . S
H128 C123 0.960 . S
H129 C123 0.959 . S
C130 N131 1.317 1_554 S
C130 N132 1.357 . S
C130 C133 1.485 . S
N131 C130 1.317 1_556 S
N131 N135 1.370 . S
N132 C130 1.357 . S
N132 C134 1.314 1_554 S
C133 C130 1.485 . S
C133 H137 0.960 . S
C133 H138 0.961 . S
C133 H139 0.960 . S
C134 N132 1.314 1_556 S
C134 N135 1.307 . S
C134 C136 1.486 . S
N135 N131 1.370 . S
N135 C134 1.307 . S
C136 C134 1.486 . S
C136 H140 0.960 . S
C136 H141 0.960 . S
C136 H142 0.959 . S
H137 C133 0.960 . S
H138 C133 0.961 . S
H139 C133 0.960 . S
H140 C136 0.960 . S
H141 C136 0.960 . S
H142 C136 0.959 . S
C143 N144 1.317 1_554 S
C143 N145 1.353 . S
C143 C146 1.485 . S
N144 C143 1.317 1_556 S
N144 N148 1.370 . S
N145 C143 1.353 . S
N145 C147 1.334 1_554 S
C146 C143 1.485 . S
C146 H150 0.960 . S
C146 H151 0.961 . S
C146 H152 0.960 . S
C147 N145 1.334 1_556 S
C147 N148 1.307 . S
C147 C149 1.486 . S
N148 N144 1.370 . S
N148 C147 1.307 . S
C149 C147 1.486 . S
C149 H153 0.960 . S
C149 H154 0.960 . S
C149 H155 0.959 . S
H150 C146 0.960 . S
H151 C146 0.961 . S
H152 C146 0.960 . S
H153 C149 0.960 . S
H154 C149 0.960 . S
H155 C149 0.959 . S
C156 N157 1.317 . S
C156 N158 1.348 . S
C156 C159 1.485 . S
N157 C156 1.317 . S
N157 N161 1.370 . S
N158 C156 1.348 . S
N158 C160 1.346 . S
C159 C156 1.485 . S
C159 H163 0.960 . S
C159 H164 0.961 1_554 S
C159 H165 0.960 1_554 S
C160 N158 1.346 . S
C160 N161 1.307 . S
C160 C162 1.486 . S
N161 N157 1.370 . S
N161 C160 1.307 . S
C162 C160 1.486 . S
C162 H166 0.960 . S
C162 H167 0.960 . S
C162 H168 0.959 . S
H163 C159 0.960 . S
H164 C159 0.961 1_556 S
H165 C159 0.960 1_556 S
H166 C162 0.960 . S
H167 C162 0.960 . S
H168 C162 0.959 . S
C169 N170 1.317 . S
C169 N171 1.348 . S
C169 C172 1.485 . S
N170 C169 1.317 . S
N170 N174 1.370 . S
N171 C169 1.348 . S
N171 C173 1.346 . S
C172 C169 1.485 . S
C172 H176 0.960 1_554 S
C172 H177 0.961 . S
C172 H178 0.960 . S
C173 N171 1.346 . S
C173 N174 1.307 . S
C173 C175 1.486 . S
N174 N170 1.370 . S
N174 C173 1.307 . S
C175 C173 1.486 . S
C175 H179 0.960 . S
C175 H180 0.960 . S
C175 H181 0.959 . S
H176 C172 0.960 1_556 S
H177 C172 0.961 . S
H178 C172 0.960 . S
H179 C175 0.960 . S
H180 C175 0.960 . S
H181 C175 0.959 . S
C182 N183 1.317 . S
C182 N184 1.348 . S
C182 C185 1.485 . S
N183 C182 1.317 . S
N183 N187 1.370 . S
N184 C182 1.348 . S
N184 C186 1.346 . S
C185 C182 1.485 . S
C185 H189 0.960 . S
C185 H190 0.961 1_554 S
C185 H191 0.960 . S
C186 N184 1.346 . S
C186 N187 1.307 . S
C186 C188 1.486 . S
N187 N183 1.370 . S
N187 C186 1.307 . S
C188 C186 1.486 . S
C188 H192 0.960 . S
C188 H193 0.960 . S
C188 H194 0.959 . S
H189 C185 0.960 . S
H190 C185 0.961 1_556 S
H191 C185 0.960 . S
H192 C188 0.960 . S
H193 C188 0.960 . S
H194 C188 0.959 . S
C195 N196 1.317 . S
C195 N197 1.348 . S
C195 C198 1.485 . S
N196 C195 1.317 . S
N196 N200 1.370 . S
N197 C195 1.348 . S
N197 C199 1.346 . S
C198 C195 1.485 . S
C198 H202 0.960 . S
C198 H203 0.961 . S
C198 H204 0.960 . S
C199 N197 1.346 . S
C199 N200 1.307 . S
C199 C201 1.486 . S
N200 N196 1.370 . S
N200 C199 1.307 . S
C201 C199 1.486 . S
C201 H205 0.960 . S
C201 H206 0.960 . S
C201 H207 0.959 . S
H202 C198 0.960 . S
H203 C198 0.961 . S
H204 C198 0.960 . S
H205 C201 0.960 . S
H206 C201 0.960 . S
H207 C201 0.959 . S
C208 N209 1.317 . S
C208 N210 1.348 . S
C208 C211 1.485 . S
N209 C208 1.317 . S
N209 N213 1.370 . S
N210 C208 1.348 . S
N210 C212 1.346 . S
C211 C208 1.485 . S
C211 H215 0.960 . S
C211 H216 0.961 . S
C211 H217 0.960 . S
C212 N210 1.346 . S
C212 N213 1.307 . S
C212 C214 1.486 . S
N213 N209 1.370 . S
N213 C212 1.307 . S
C214 C212 1.486 . S
C214 H218 0.960 . S
C214 H219 0.960 . S
C214 H220 0.959 . S
H215 C211 0.960 . S
H216 C211 0.961 . S
H217 C211 0.960 . S
H218 C214 0.960 . S
H219 C214 0.960 . S
H220 C214 0.959 . S
C221 N222 1.317 . S
C221 N223 1.348 . S
C221 C224 1.485 . S
N222 C221 1.317 . S
N222 N226 1.370 . S
N223 C221 1.348 . S
N223 C225 1.346 . S
C224 C221 1.485 . S
C224 H228 0.960 . S
C224 H229 0.961 . S
C224 H230 0.960 . S
C225 N223 1.346 . S
C225 N226 1.307 . S
C225 C227 1.486 . S
N226 N222 1.370 . S
N226 C225 1.307 . S
C227 C225 1.486 . S
C227 H231 0.960 . S
C227 H232 0.960 . S
C227 H233 0.959 . S
H228 C224 0.960 . S
H229 C224 0.961 . S
H230 C224 0.960 . S
H231 C227 0.960 . S
H232 C227 0.960 . S
H233 C227 0.959 . S
O234 Mg235 1.990 . S
O234 C248 1.253 . S
Mg235 O234 1.990 . S
Mg235 O238 2.180 1_546 S
Mg235 O239 2.117 1_545 S
Mg235 O253 2.030 . S
O236 Mg237 2.072 1_556 S
O236 C248 1.260 . S
Mg237 O236 2.072 1_554 S
Mg237 O238 2.099 1_545 S
Mg237 O240 2.079 1_545 S
Mg237 O241 2.072 1_545 S
Mg237 O243 2.099 . S
Mg237 O254 2.079 . S
O238 Mg235 2.180 1_564 S
O238 Mg237 2.099 1_565 S
O238 C249 1.279 . S
O239 Mg235 2.117 1_565 S
O239 C249 1.250 1_556 S
O240 Mg237 2.079 1_565 S
O240 C250 1.264 . S
O241 Mg237 2.072 1_565 S
O241 C251 1.260 . S
Mg242 O243 2.180 . S
Mg242 O244 2.030 1_545 S
Mg242 O245 1.990 1_545 S
Mg242 O246 2.117 . S
O243 Mg237 2.099 . S
O243 Mg242 2.180 . S
O243 C252 1.279 . S
O244 Mg242 2.030 1_565 S
O244 C250 1.248 . S
O245 Mg242 1.990 1_565 S
O245 C251 1.253 . S
O246 Mg242 2.117 . S
O246 C252 1.250 . S
C247 O253 1.248 1_554 S
C247 O254 1.264 . S
C248 O234 1.253 . S
C248 O236 1.260 . S
C249 O238 1.279 . S
C249 O239 1.250 1_554 S
C250 O240 1.264 . S
C250 O244 1.248 . S
C251 O241 1.260 . S
C251 O245 1.253 . S
C252 O243 1.279 . S
C252 O246 1.250 . S
O253 Mg235 2.030 . S
O253 C247 1.248 1_556 S
O254 Mg237 2.079 . S
O254 C247 1.264 . S
O255 Mg256 1.990 . S
O255 C269 1.253 . S
Mg256 O255 1.990 . S
Mg256 O259 2.180 1_556 S
Mg256 O260 2.117 . S
Mg256 O274 2.030 1_455 S
O257 Mg258 2.072 1_556 S
O257 C269 1.260 . S
Mg258 O257 2.072 1_554 S
Mg258 O259 2.099 . S
Mg258 O261 2.079 . S
Mg258 O262 2.072 . S
Mg258 O264 2.099 1_455 S
Mg258 O275 2.079 1_455 S
O259 Mg256 2.180 1_554 S
O259 Mg258 2.099 . S
O259 C270 1.279 1_554 S
O260 Mg256 2.117 . S
O260 C270 1.250 . S
O261 Mg258 2.079 . S
O261 C271 1.264 . S
O262 Mg258 2.072 . S
O262 C272 1.260 . S
Mg263 O264 2.180 1_455 S
Mg263 O265 2.030 . S
Mg263 O266 1.990 . S
Mg263 O267 2.117 1_455 S
O264 Mg258 2.099 1_655 S
O264 Mg263 2.180 1_655 S
O264 C273 1.279 . S
O265 Mg263 2.030 . S
O265 C271 1.248 . S
O266 Mg263 1.990 . S
O266 C272 1.253 . S
O267 Mg263 2.117 1_655 S
O267 C273 1.250 . S
C268 O274 1.248 . S
C268 O275 1.264 1_556 S
C269 O255 1.253 . S
C269 O257 1.260 . S
C270 O259 1.279 1_556 S
C270 O260 1.250 . S
C271 O261 1.264 . S
C271 O265 1.248 . S
C272 O262 1.260 . S
C272 O266 1.253 . S
C273 O264 1.279 . S
C273 O267 1.250 . S
O274 Mg256 2.030 1_655 S
O274 C268 1.248 . S
O275 Mg258 2.079 1_655 S
O275 C268 1.264 1_554 S
O276 Mg277 1.990 . S
O276 C290 1.253 . S
Mg277 O276 1.990 . S
Mg277 O280 2.180 . S
Mg277 O281 2.117 . S
Mg277 O295 2.030 . S
O278 Mg279 2.072 . S
O278 C290 1.260 . S
Mg279 O278 2.072 . S
Mg279 O280 2.099 . S
Mg279 O282 2.079 1_554 S
Mg279 O283 2.072 . S
Mg279 O285 2.099 . S
Mg279 O296 2.079 . S
O280 Mg277 2.180 . S
O280 Mg279 2.099 . S
O280 C291 1.279 . S
O281 Mg277 2.117 . S
O281 C291 1.250 . S
O282 Mg279 2.079 1_556 S
O282 C292 1.264 . S
O283 Mg279 2.072 . S
O283 C293 1.260 . S
Mg284 O285 2.180 1_556 S
Mg284 O286 2.030 . S
Mg284 O287 1.990 1_556 S
Mg284 O288 2.117 1_556 S
O285 Mg279 2.099 . S
O285 Mg284 2.180 1_554 S
O285 C294 1.279 . S
O286 Mg284 2.030 . S
O286 C292 1.248 . S
O287 Mg284 1.990 1_554 S
O287 C293 1.253 . S
O288 Mg284 2.117 1_554 S
O288 C294 1.250 . S
C289 O295 1.248 . S
C289 O296 1.264 . S
C290 O276 1.253 . S
C290 O278 1.260 . S
C291 O280 1.279 . S
C291 O281 1.250 . S
C292 O282 1.264 . S
C292 O286 1.248 . S
C293 O283 1.260 . S
C293 O287 1.253 . S
C294 O285 1.279 . S
C294 O288 1.250 . S
O295 Mg277 2.030 . S
O295 C289 1.248 . S
O296 Mg279 2.079 . S
O296 C289 1.264 . S
O297 Mg298 1.990 . S
O297 C311 1.253 . S
Mg298 O297 1.990 . S
Mg298 O301 2.180 . S
Mg298 O302 2.117 . S
Mg298 O316 2.030 . S
O299 Mg300 2.072 . S
O299 C311 1.260 . S
Mg300 O299 2.072 . S
Mg300 O301 2.099 . S
Mg300 O303 2.079 . S
Mg300 O304 2.072 . S
Mg300 O306 2.099 . S
Mg300 O317 2.079 . S
O301 Mg298 2.180 . S
O301 Mg300 2.099 . S
O301 C312 1.279 . S
O302 Mg298 2.117 . S
O302 C312 1.250 . S
O303 Mg300 2.079 . S
O303 C313 1.264 . S
O304 Mg300 2.072 . S
O304 C314 1.260 . S
Mg305 O306 2.180 . S
Mg305 O307 2.030 . S
Mg305 O308 1.990 . S
Mg305 O309 2.117 . S
O306 Mg300 2.099 . S
O306 Mg305 2.180 . S
O306 C315 1.279 . S
O307 Mg305 2.030 . S
O307 C313 1.248 . S
O308 Mg305 1.990 . S
O308 C314 1.253 . S
O309 Mg305 2.117 . S
O309 C315 1.250 . S
C310 O316 1.248 . S
C310 O317 1.264 . S
C311 O297 1.253 . S
C311 O299 1.260 . S
C312 O301 1.279 . S
C312 O302 1.250 . S
C313 O303 1.264 . S
C313 O307 1.248 . S
C314 O304 1.260 . S
C314 O308 1.253 . S
C315 O306 1.279 . S
C315 O309 1.250 . S
O316 Mg298 2.030 . S
O316 C310 1.248 . S
O317 Mg300 2.079 . S
O317 C310 1.264 . S
O318 Mg319 1.990 . S
O318 C332 1.253 . S
Mg319 O318 1.990 . S
Mg319 O322 2.180 . S
Mg319 O323 2.117 . S
Mg319 O337 2.030 . S
O320 Mg321 2.072 . S
O320 C332 1.260 . S
Mg321 O320 2.072 . S
Mg321 O322 2.099 . S
Mg321 O324 2.079 . S
Mg321 O325 2.072 . S
Mg321 O327 2.099 . S
Mg321 O338 2.079 . S
O322 Mg319 2.180 . S
O322 Mg321 2.099 . S
O322 C333 1.279 . S
O323 Mg319 2.117 . S
O323 C333 1.250 . S
O324 Mg321 2.079 . S
O324 C334 1.264 . S
O325 Mg321 2.072 . S
O325 C335 1.260 . S
Mg326 O327 2.180 . S
Mg326 O328 2.030 . S
Mg326 O329 1.990 . S
Mg326 O330 2.117 . S
O327 Mg321 2.099 . S
O327 Mg326 2.180 . S
O327 C336 1.279 . S
O328 Mg326 2.030 . S
O328 C334 1.248 . S
O329 Mg326 1.990 . S
O329 C335 1.253 . S
O330 Mg326 2.117 . S
O330 C336 1.250 . S
C331 O337 1.248 . S
C331 O338 1.264 . S
C332 O318 1.253 . S
C332 O320 1.260 . S
C333 O322 1.279 . S
C333 O323 1.250 . S
C334 O324 1.264 . S
C334 O328 1.248 . S
C335 O325 1.260 . S
C335 O329 1.253 . S
C336 O327 1.279 . S
C336 O330 1.250 . S
O337 Mg319 2.030 . S
O337 C331 1.248 . S
O338 Mg321 2.079 . S
O338 C331 1.264 . S
O339 Mg340 1.990 . S
O339 C353 1.253 . S
Mg340 O339 1.990 . S
Mg340 O343 2.180 . S
Mg340 O344 2.117 . S
Mg340 O358 2.030 . S
O341 Mg342 2.072 . S
O341 C353 1.260 . S
Mg342 O341 2.072 . S
Mg342 O343 2.099 . S
Mg342 O345 2.079 . S
Mg342 O346 2.072 . S
Mg342 O348 2.099 . S
Mg342 O359 2.079 . S
O343 Mg340 2.180 . S
O343 Mg342 2.099 . S
O343 C354 1.279 . S
O344 Mg340 2.117 . S
O344 C354 1.250 . S
O345 Mg342 2.079 . S
O345 C355 1.264 . S
O346 Mg342 2.072 . S
O346 C356 1.260 . S
Mg347 O348 2.180 . S
Mg347 O349 2.030 . S
Mg347 O350 1.990 . S
Mg347 O351 2.117 . S
O348 Mg342 2.099 . S
O348 Mg347 2.180 . S
O348 C357 1.279 . S
O349 Mg347 2.030 . S
O349 C355 1.248 . S
O350 Mg347 1.990 . S
O350 C356 1.253 . S
O351 Mg347 2.117 . S
O351 C357 1.250 . S
C352 O358 1.248 . S
C352 O359 1.264 . S
C353 O339 1.253 . S
C353 O341 1.260 . S
C354 O343 1.279 . S
C354 O344 1.250 . S
C355 O345 1.264 . S
C355 O349 1.248 . S
C356 O346 1.260 . S
C356 O350 1.253 . S
C357 O348 1.279 . S
C357 O351 1.250 . S
O358 Mg340 2.030 . S
O358 C352 1.248 . S
O359 Mg342 2.079 . S
O359 C352 1.264 . S
O360 Mg361 1.990 . S
O360 C374 1.253 . S
Mg361 O360 1.990 . S
Mg361 O364 2.180 . S
Mg361 O365 2.117 . S
Mg361 O379 2.030 . S
O362 Mg363 2.072 . S
O362 C374 1.260 . S
Mg363 O362 2.072 . S
Mg363 O364 2.099 . S
Mg363 O366 2.079 . S
Mg363 O367 2.072 . S
Mg363 O369 2.099 . S
Mg363 O380 2.079 . S
O364 Mg361 2.180 . S
O364 Mg363 2.099 . S
O364 C375 1.279 . S
O365 Mg361 2.117 . S
O365 C375 1.250 . S
O366 Mg363 2.079 . S
O366 C376 1.264 . S
O367 Mg363 2.072 . S
O367 C377 1.260 . S
Mg368 O369 2.180 . S
Mg368 O370 2.030 . S
Mg368 O371 1.990 . S
Mg368 O372 2.117 . S
O369 Mg363 2.099 . S
O369 Mg368 2.180 . S
O369 C378 1.279 . S
O370 Mg368 2.030 . S
O370 C376 1.248 . S
O371 Mg368 1.990 . S
O371 C377 1.253 . S
O372 Mg368 2.117 . S
O372 C378 1.250 . S
C373 O379 1.248 . S
C373 O380 1.264 . S
C374 O360 1.253 . S
C374 O362 1.260 . S
C375 O364 1.279 . S
C375 O365 1.250 . S
C376 O366 1.264 . S
C376 O370 1.248 . S
C377 O367 1.260 . S
C377 O371 1.253 . S
C378 O369 1.279 . S
C378 O372 1.250 . S
O379 Mg361 2.030 . S
O379 C373 1.248 . S
O380 Mg363 2.079 . S
O380 C373 1.264 . S
O381 Mg382 1.990 . S
O381 C395 1.253 . S
Mg382 O381 1.990 . S
Mg382 O385 2.180 . S
Mg382 O386 2.117 . S
Mg382 O400 2.030 . S
O383 Mg384 2.072 . S
O383 C395 1.260 . S
Mg384 O383 2.072 . S
Mg384 O385 2.099 . S
Mg384 O387 2.079 . S
Mg384 O388 2.072 . S
Mg384 O390 2.099 . S
Mg384 O401 2.079 . S
O385 Mg382 2.180 . S
O385 Mg384 2.099 . S
O385 C396 1.279 . S
O386 Mg382 2.117 . S
O386 C396 1.250 . S
O387 Mg384 2.079 . S
O387 C397 1.264 . S
O388 Mg384 2.072 . S
O388 C398 1.260 . S
Mg389 O390 2.180 . S
Mg389 O391 2.030 . S
Mg389 O392 1.990 . S
Mg389 O393 2.117 . S
O390 Mg384 2.099 . S
O390 Mg389 2.180 . S
O390 C399 1.279 . S
O391 Mg389 2.030 . S
O391 C397 1.248 . S
O392 Mg389 1.990 . S
O392 C398 1.253 . S
O393 Mg389 2.117 . S
O393 C399 1.250 . S
C394 O400 1.248 . S
C394 O401 1.264 . S
C395 O381 1.253 . S
C395 O383 1.260 . S
C396 O385 1.279 . S
C396 O386 1.250 . S
C397 O387 1.264 . S
C397 O391 1.248 . S
C398 O388 1.260 . S
C398 O392 1.253 . S
C399 O390 1.279 . S
C399 O393 1.250 . S
O400 Mg382 2.030 . S
O400 C394 1.248 . S
O401 Mg384 2.079 . S
O401 C394 1.264 . S
O402 Mg403 1.990 . S
O402 C416 1.253 . S
Mg403 O402 1.990 . S
Mg403 O406 2.180 . S
Mg403 O407 2.117 . S
Mg403 O421 2.030 . S
O404 Mg405 2.072 . S
O404 C416 1.260 . S
Mg405 O404 2.072 . S
Mg405 O406 2.099 . S
Mg405 O408 2.079 . S
Mg405 O409 2.072 . S
Mg405 O411 2.099 . S
Mg405 O422 2.079 . S
O406 Mg403 2.180 . S
O406 Mg405 2.099 . S
O406 C417 1.279 . S
O407 Mg403 2.117 . S
O407 C417 1.250 . S
O408 Mg405 2.079 . S
O408 C418 1.264 . S
O409 Mg405 2.072 . S
O409 C419 1.260 . S
Mg410 O411 2.180 . S
Mg410 O412 2.030 . S
Mg410 O413 1.990 . S
Mg410 O414 2.117 . S
O411 Mg405 2.099 . S
O411 Mg410 2.180 . S
O411 C420 1.279 . S
O412 Mg410 2.030 . S
O412 C418 1.248 . S
O413 Mg410 1.990 . S
O413 C419 1.253 . S
O414 Mg410 2.117 . S
O414 C420 1.250 . S
C415 O421 1.248 . S
C415 O422 1.264 . S
C416 O402 1.253 . S
C416 O404 1.260 . S
C417 O406 1.279 . S
C417 O407 1.250 . S
C418 O408 1.264 . S
C418 O412 1.248 . S
C419 O409 1.260 . S
C419 O413 1.253 . S
C420 O411 1.279 . S
C420 O414 1.250 . S
O421 Mg403 2.030 . S
O421 C415 1.248 . S
O422 Mg405 2.079 . S
O422 C415 1.264 . S
H423 C441 0.951 . S
H424 C443 0.951 . S
H425 C445 0.950 . S
H426 C446 0.950 . S
H427 C448 0.950 . S
H428 C451 0.950 . S
H429 C452 0.950 . S
H430 C454 0.950 . S
H431 C455 0.950 . S
H432 C456 0.951 . S
H433 C458 0.951 . S
H434 C460 0.950 1_556 S
H435 C461 0.950 1_556 S
H436 C463 0.950 . S
H437 C466 0.950 . S
H438 C467 0.950 . S
H439 C469 0.950 . S
H440 C470 0.950 . S
C441 H423 0.951 . S
C441 C442 1.366 . S
C441 C443 1.388 . S
C442 C441 1.366 . S
C442 C446 1.385 . S
C443 H424 0.951 . S
C443 C441 1.388 . S
C443 C444 1.366 . S
C444 C443 1.366 . S
C444 C445 1.414 . S
C444 C447 1.499 . S
C445 H425 0.950 . S
C445 C444 1.414 . S
C445 C446 1.374 . S
C446 H426 0.950 . S
C446 C442 1.385 . S
C446 C445 1.374 . S
C447 C444 1.499 . S
C447 C448 1.373 . S
C447 C449 1.389 . S
C448 H427 0.950 . S
C448 C447 1.373 . S
C448 C464 1.377 . S
C449 C447 1.389 . S
C449 C450 1.524 . S
C449 C463 1.377 . S
C450 C449 1.524 . S
C450 C451 1.397 . S
C450 C455 1.363 1_554 S
C451 H428 0.950 . S
C451 C450 1.397 . S
C451 C452 1.334 . S
C452 H429 0.950 . S
C452 C451 1.334 . S
C452 C453 1.287 1_554 S
C453 C452 1.287 1_556 S
C453 C454 1.524 . S
C453 H472 0.913 . S
C454 H430 0.950 . S
C454 C453 1.524 . S
C454 C455 1.415 . S
C455 H431 0.950 . S
C455 C450 1.363 1_556 S
C455 C454 1.415 . S
C456 H432 0.951 . S
C456 C457 1.366 . S
C456 C458 1.388 . S
C457 C456 1.366 . S
C457 C461 1.385 . S
C458 H433 0.951 . S
C458 C456 1.388 . S
C458 C459 1.366 . S
C459 C458 1.366 . S
C459 C460 1.414 . S
C459 C462 1.499 . S
C460 H434 0.950 1_554 S
C460 C459 1.414 . S
C460 C461 1.374 . S
C461 H435 0.950 1_554 S
C461 C457 1.385 . S
C461 C460 1.374 . S
C462 C459 1.499 . S
C462 C463 1.373 . S
C462 C464 1.389 . S
C463 H436 0.950 . S
C463 C449 1.377 . S
C463 C462 1.373 . S
C464 C448 1.377 . S
C464 C462 1.389 . S
C464 C465 1.524 . S
C465 C464 1.524 . S
C465 C466 1.397 . S
C465 C470 1.363 . S
C466 H437 0.950 . S
C466 C465 1.397 . S
C466 C467 1.334 . S
C467 H438 0.950 . S
C467 C466 1.334 . S
C467 C468 1.287 . S
C468 C467 1.287 . S
C468 C469 1.524 . S
C468 H471 0.999 . S
C469 H439 0.950 . S
C469 C468 1.524 . S
C469 C470 1.415 . S
C470 H440 0.950 . S
C470 C465 1.363 . S
C470 C469 1.415 . S
H471 C468 0.999 . S
H472 C453 0.913 . S
H473 C491 0.951 . S
H474 C493 0.951 . S
H475 C495 0.950 . S
H476 C496 0.950 . S
H477 C498 0.950 . S
H478 C501 0.950 . S
H479 C502 0.950 . S
H480 C504 0.950 . S
H481 C505 0.950 . S
H482 C506 0.951 . S
H483 C508 0.951 . S
H484 C510 0.950 . S
H485 C511 0.950 . S
H486 C513 0.950 1_556 S
H487 C516 0.950 . S
H488 C517 0.950 . S
H489 C519 0.950 . S
H490 C520 0.950 . S
C491 H473 0.951 . S
C491 C492 1.366 . S
C491 C493 1.388 . S
C492 C491 1.366 . S
C492 C496 1.385 . S
C493 H474 0.951 . S
C493 C491 1.388 . S
C493 C494 1.366 . S
C494 C493 1.366 . S
C494 C495 1.414 . S
C494 C497 1.499 . S
C495 H475 0.950 . S
C495 C494 1.414 . S
C495 C496 1.374 . S
C496 H476 0.950 . S
C496 C492 1.385 . S
C496 C495 1.374 . S
C497 C494 1.499 . S
C497 C498 1.373 . S
C497 C499 1.389 . S
C498 H477 0.950 . S
C498 C497 1.373 . S
C498 C514 1.377 . S
C499 C497 1.389 . S
C499 C500 1.524 1_554 S
C499 C513 1.377 . S
C500 C499 1.524 1_556 S
C500 C501 1.397 . S
C500 C505 1.363 . S
C501 H478 0.950 . S
C501 C500 1.397 . S
C501 C502 1.334 . S
C502 H479 0.950 . S
C502 C501 1.334 . S
C502 C503 1.287 . S
C503 C502 1.287 . S
C503 C504 1.524 . S
C503 H522 0.913 . S
C504 H480 0.950 . S
C504 C503 1.524 . S
C504 C505 1.415 . S
C505 H481 0.950 . S
C505 C500 1.363 . S
C505 C504 1.415 . S
C506 H482 0.951 . S
C506 C507 1.366 . S
C506 C508 1.388 . S
C507 C506 1.366 . S
C507 C511 1.385 . S
C508 H483 0.951 . S
C508 C506 1.388 . S
C508 C509 1.366 . S
C509 C508 1.366 . S
C509 C510 1.414 . S
C509 C512 1.499 . S
C510 H484 0.950 . S
C510 C509 1.414 . S
C510 C511 1.374 . S
C511 H485 0.950 . S
C511 C507 1.385 . S
C511 C510 1.374 . S
C512 C509 1.499 . S
C512 C513 1.373 . S
C512 C514 1.389 . S
C513 H486 0.950 1_554 S
C513 C499 1.377 . S
C513 C512 1.373 . S
C514 C498 1.377 . S
C514 C512 1.389 . S
C514 C515 1.524 . S
C515 C514 1.524 . S
C515 C516 1.397 . S
C515 C520 1.363 . S
C516 H487 0.950 . S
C516 C515 1.397 . S
C516 C517 1.334 . S
C517 H488 0.950 . S
C517 C516 1.334 . S
C517 C518 1.287 . S
C518 C517 1.287 . S
C518 C519 1.524 . S
C518 H521 0.999 . S
C519 H489 0.950 . S
C519 C518 1.524 . S
C519 C520 1.415 . S
C520 H490 0.950 . S
C520 C515 1.363 . S
C520 C519 1.415 . S
H521 C518 0.999 . S
H522 C503 0.913 . S
H523 C541 0.951 . S
H524 C543 0.951 . S
H525 C545 0.950 . S
H526 C546 0.950 . S
H527 C548 0.950 . S
H528 C551 0.950 . S
H529 C552 0.950 . S
H530 C554 0.950 . S
H531 C555 0.950 . S
H532 C556 0.951 . S
H533 C558 0.951 . S
H534 C560 0.950 . S
H535 C561 0.950 . S
H536 C563 0.950 . S
H537 C566 0.950 . S
H538 C567 0.950 . S
H539 C569 0.950 . S
H540 C570 0.950 . S
C541 H523 0.951 . S
C541 C542 1.366 . S
C541 C543 1.388 . S
C542 C541 1.366 . S
C542 C546 1.385 . S
C543 H524 0.951 . S
C543 C541 1.388 . S
C543 C544 1.366 . S
C544 C543 1.366 . S
C544 C545 1.414 . S
C544 C547 1.499 . S
C545 H525 0.950 . S
C545 C544 1.414 . S
C545 C546 1.374 . S
C546 H526 0.950 . S
C546 C542 1.385 . S
C546 C545 1.374 . S
C547 C544 1.499 . S
C547 C548 1.373 . S
C547 C549 1.389 . S
C548 H527 0.950 . S
C548 C547 1.373 . S
C548 C564 1.377 . S
C549 C547 1.389 . S
C549 C550 1.524 . S
C549 C563 1.377 . S
C550 C549 1.524 . S
C550 C551 1.397 . S
C550 C555 1.363 . S
C551 H528 0.950 . S
C551 C550 1.397 . S
C551 C552 1.334 . S
C552 H529 0.950 . S
C552 C551 1.334 . S
C552 C553 1.287 . S
C553 C552 1.287 . S
C553 C554 1.524 . S
C553 H572 0.913 . S
C554 H530 0.950 . S
C554 C553 1.524 . S
C554 C555 1.415 . S
C555 H531 0.950 . S
C555 C550 1.363 . S
C555 C554 1.415 . S
C556 H532 0.951 . S
C556 C557 1.366 . S
C556 C558 1.388 . S
C557 C556 1.366 . S
C557 C561 1.385 . S
C558 H533 0.951 . S
C558 C556 1.388 . S
C558 C559 1.366 . S
C559 C558 1.366 . S
C559 C560 1.414 . S
C559 C562 1.499 . S
C560 H534 0.950 . S
C560 C559 1.414 . S
C560 C561 1.374 . S
C561 H535 0.950 . S
C561 C557 1.385 . S
C561 C560 1.374 . S
C562 C559 1.499 . S
C562 C563 1.373 . S
C562 C564 1.389 . S
C563 H536 0.950 . S
C563 C549 1.377 . S
C563 C562 1.373 . S
C564 C548 1.377 . S
C564 C562 1.389 . S
C564 C565 1.524 . S
C565 C564 1.524 . S
C565 C566 1.397 1_554 S
C565 C570 1.363 . S
C566 H537 0.950 . S
C566 C565 1.397 1_556 S
C566 C567 1.334 . S
C567 H538 0.950 . S
C567 C566 1.334 . S
C567 C568 1.287 . S
C568 C567 1.287 . S
C568 C569 1.524 . S
C568 H571 0.999 . S
C569 H539 0.950 . S
C569 C568 1.524 . S
C569 C570 1.415 1_556 S
C570 H540 0.950 . S
C570 C565 1.363 . S
C570 C569 1.415 1_554 S
H571 C568 0.999 . S
H572 C553 0.913 . S
H573 C591 0.951 . S
H574 C593 0.951 . S
H575 C595 0.950 . S
H576 C596 0.950 . S
H577 C598 0.950 . S
H578 C601 0.950 . S
H579 C602 0.950 . S
H580 C604 0.950 . S
H581 C605 0.950 . S
H582 C606 0.951 . S
H583 C608 0.951 . S
H584 C610 0.950 . S
H585 C611 0.950 . S
H586 C613 0.950 . S
H587 C616 0.950 . S
H588 C617 0.950 . S
H589 C619 0.950 . S
H590 C620 0.950 . S
C591 H573 0.951 . S
C591 C592 1.366 . S
C591 C593 1.388 . S
C592 C591 1.366 . S
C592 C596 1.385 1_554 S
C593 H574 0.951 . S
C593 C591 1.388 . S
C593 C594 1.366 . S
C594 C593 1.366 . S
C594 C595 1.414 1_554 S
C594 C597 1.499 . S
C595 H575 0.950 . S
C595 C594 1.414 1_556 S
C595 C596 1.374 . S
C596 H576 0.950 . S
C596 C592 1.385 1_556 S
C596 C595 1.374 . S
C597 C594 1.499 . S
C597 C598 1.373 1_554 S
C597 C599 1.389 . S
C598 H577 0.950 . S
C598 C597 1.373 1_556 S
C598 C614 1.377 . S
C599 C597 1.389 . S
C599 C600 1.524 . S
C599 C613 1.377 . S
C600 C599 1.524 . S
C600 C601 1.397 . S
C600 C605 1.363 . S
C601 H578 0.950 . S
C601 C600 1.397 . S
C601 C602 1.334 . S
C602 H579 0.950 . S
C602 C601 1.334 . S
C602 C603 1.287 . S
C603 C602 1.287 . S
C603 C604 1.524 . S
C603 H622 0.913 . S
C604 H580 0.950 . S
C604 C603 1.524 . S
C604 C605 1.415 . S
C605 H581 0.950 . S
C605 C600 1.363 . S
C605 C604 1.415 . S
C606 H582 0.951 . S
C606 C607 1.366 1_556 S
C606 C608 1.388 . S
C607 C606 1.366 1_554 S
C607 C611 1.385 . S
C608 H583 0.951 . S
C608 C606 1.388 . S
C608 C609 1.366 1_556 S
C609 C608 1.366 1_554 S
C609 C610 1.414 . S
C609 C612 1.499 . S
C610 H584 0.950 . S
C610 C609 1.414 . S
C610 C611 1.374 . S
C611 H585 0.950 . S
C611 C607 1.385 . S
C611 C610 1.374 . S
C612 C609 1.499 . S
C612 C613 1.373 . S
C612 C614 1.389 1_554 S
C613 H586 0.950 . S
C613 C599 1.377 . S
C613 C612 1.373 . S
C614 C598 1.377 . S
C614 C612 1.389 1_556 S
C614 C615 1.524 . S
C615 C614 1.524 . S
C615 C616 1.397 . S
C615 C620 1.363 . S
C616 H587 0.950 . S
C616 C615 1.397 . S
C616 C617 1.334 . S
C617 H588 0.950 . S
C617 C616 1.334 . S
C617 C618 1.287 . S
C618 C617 1.287 . S
C618 C619 1.524 . S
C618 H621 0.999 . S
C619 H589 0.950 . S
C619 C618 1.524 . S
C619 C620 1.415 . S
C620 H590 0.950 . S
C620 C615 1.363 . S
C620 C619 1.415 . S
H621 C618 0.999 . S
H622 C603 0.913 . S
H623 C641 0.951 . S
H624 C643 0.951 . S
H625 C645 0.950 . S
H626 C646 0.950 . S
H627 C648 0.950 . S
H628 C651 0.950 . S
H629 C652 0.950 1_554 S
H630 C654 0.950 . S
H631 C655 0.950 . S
H632 C656 0.951 . S
H633 C658 0.951 . S
H634 C660 0.950 . S
H635 C661 0.950 1_556 S
H636 C663 0.950 1_556 S
H637 C666 0.950 . S
H638 C667 0.950 . S
H639 C669 0.950 . S
H640 C670 0.950 . S
C641 H623 0.951 . S
C641 C642 1.366 1_556 S
C641 C643 1.388 . S
C642 C641 1.366 1_554 S
C642 C646 1.385 . S
C643 H624 0.951 . S
C643 C641 1.388 . S
C643 C644 1.366 1_556 S
C644 C643 1.366 1_554 S
C644 C645 1.414 . S
C644 C647 1.499 . S
C645 H625 0.950 . S
C645 C644 1.414 . S
C645 C646 1.374 . S
C646 H626 0.950 . S
C646 C642 1.385 . S
C646 C645 1.374 . S
C647 C644 1.499 . S
C647 C648 1.373 . S
C647 C649 1.389 . S
C648 H627 0.950 . S
C648 C647 1.373 . S
C648 C664 1.377 . S
C649 C647 1.389 . S
C649 C650 1.524 1_554 S
C649 C663 1.377 . S
C650 C649 1.524 1_556 S
C650 C651 1.397 1_556 S
C650 C655 1.363 . S
C651 H628 0.950 . S
C651 C650 1.397 1_554 S
C651 C652 1.334 1_554 S
C652 H629 0.950 1_556 S
C652 C651 1.334 1_556 S
C652 C653 1.287 . S
C653 C652 1.287 . S
C653 C654 1.524 . S
C653 H672 0.913 . S
C654 H630 0.950 . S
C654 C653 1.524 . S
C654 C655 1.415 . S
C655 H631 0.950 . S
C655 C650 1.363 . S
C655 C654 1.415 . S
C656 H632 0.951 . S
C656 C657 1.366 . S
C656 C658 1.388 . S
C657 C656 1.366 . S
C657 C661 1.385 . S
C658 H633 0.951 . S
C658 C656 1.388 . S
C658 C659 1.366 . S
C659 C658 1.366 . S
C659 C660 1.414 1_554 S
C659 C662 1.499 . S
C660 H634 0.950 . S
C660 C659 1.414 1_556 S
C660 C661 1.374 1_556 S
C661 H635 0.950 1_554 S
C661 C657 1.385 . S
C661 C660 1.374 1_554 S
C662 C659 1.499 . S
C662 C663 1.373 . S
C662 C664 1.389 . S
C663 H636 0.950 1_554 S
C663 C649 1.377 . S
C663 C662 1.373 . S
C664 C648 1.377 . S
C664 C662 1.389 . S
C664 C665 1.524 . S
C665 C664 1.524 . S
C665 C666 1.397 . S
C665 C670 1.363 . S
C666 H637 0.950 . S
C666 C665 1.397 . S
C666 C667 1.334 . S
C667 H638 0.950 . S
C667 C666 1.334 . S
C667 C668 1.287 . S
C668 C667 1.287 . S
C668 C669 1.524 . S
C668 H671 0.999 . S
C669 H639 0.950 . S
C669 C668 1.524 . S
C669 C670 1.415 . S
C670 H640 0.950 . S
C670 C665 1.363 . S
C670 C669 1.415 . S
H671 C668 0.999 . S
H672 C653 0.913 . S
H673 C691 0.951 . S
H674 C693 0.951 . S
H675 C695 0.950 . S
H676 C696 0.950 . S
H677 C698 0.950 . S
H678 C701 0.950 1_556 S
H679 C702 0.950 1_556 S
H680 C704 0.950 . S
H681 C705 0.950 . S
H682 C706 0.951 . S
H683 C708 0.951 . S
H684 C710 0.950 . S
H685 C711 0.950 . S
H686 C713 0.950 . S
H687 C716 0.950 . S
H688 C717 0.950 . S
H689 C719 0.950 . S
H690 C720 0.950 . S
C691 H673 0.951 . S
C691 C692 1.366 1_554 S
C691 C693 1.388 . S
C692 C691 1.366 1_556 S
C692 C696 1.385 . S
C693 H674 0.951 . S
C693 C691 1.388 . S
C693 C694 1.387 . S
C694 C693 1.387 . S
C694 C695 1.394 1_554 S
C694 C697 1.498 . S
C695 H675 0.950 . S
C695 C694 1.394 1_556 S
C695 C696 1.374 . S
C696 H676 0.950 . S
C696 C692 1.385 . S
C696 C695 1.374 . S
C697 C694 1.498 . S
C697 C698 1.373 1_554 S
C697 C699 1.389 . S
C698 H677 0.950 . S
C698 C697 1.373 1_556 S
C698 C714 1.377 . S
C699 C697 1.389 . S
C699 C700 1.524 . S
C699 C713 1.377 . S
C700 C699 1.524 . S
C700 C701 1.397 . S
C700 C705 1.363 . S
C701 H678 0.950 1_554 S
C701 C700 1.397 . S
C701 C702 1.334 . S
C702 H679 0.950 1_554 S
C702 C701 1.334 . S
C702 C703 1.287 . S
C703 C702 1.287 . S
C703 C704 1.524 . S
C703 H722 0.913 . S
C704 H680 0.950 . S
C704 C703 1.524 . S
C704 C705 1.415 . S
C705 H681 0.950 . S
C705 C700 1.363 . S
C705 C704 1.415 . S
C706 H682 0.951 . S
C706 C707 1.366 1_556 S
C706 C708 1.388 . S
C707 C706 1.366 1_554 S
C707 C711 1.385 . S
C708 H683 0.951 . S
C708 C706 1.388 . S
C708 C709 1.366 1_556 S
C709 C708 1.366 1_554 S
C709 C710 1.414 . S
C709 C712 1.499 . S
C710 H684 0.950 . S
C710 C709 1.414 . S
C710 C711 1.374 . S
C711 H685 0.950 . S
C711 C707 1.385 . S
C711 C710 1.374 . S
C712 C709 1.499 . S
C712 C713 1.373 . S
C712 C714 1.389 1_554 S
C713 H686 0.950 . S
C713 C699 1.377 . S
C713 C712 1.373 . S
C714 C698 1.377 . S
C714 C712 1.389 1_556 S
C714 C715 1.524 . S
C715 C714 1.524 . S
C715 C716 1.397 1_556 S
C715 C720 1.363 . S
C716 H687 0.950 . S
C716 C715 1.397 1_554 S
C716 C717 1.334 . S
C717 H688 0.950 . S
C717 C716 1.334 . S
C717 C718 1.287 1_554 S
C718 C717 1.287 1_556 S
C718 C719 1.524 . S
C718 H721 0.999 . S
C719 H689 0.950 . S
C719 C718 1.524 . S
C719 C720 1.415 . S
C720 H690 0.950 . S
C720 C715 1.363 . S
C720 C719 1.415 . S
H721 C718 0.999 . S
H722 C703 0.913 . S
H723 C741 0.951 . S
H724 C743 0.951 . S
H725 C745 0.950 . S
H726 C746 0.950 . S
H727 C748 0.950 . S
H728 C751 0.950 . S
H729 C752 0.950 . S
H730 C754 0.950 . S
H731 C755 0.950 . S
H732 C756 0.951 . S
H733 C758 0.951 . S
H734 C760 0.950 . S
H735 C761 0.950 . S
H736 C763 0.950 . S
H737 C766 0.950 . S
H738 C767 0.950 . S
H739 C769 0.950 . S
H740 C770 0.950 . S
C741 H723 0.951 . S
C741 C742 1.374 . S
C741 C743 1.388 . S
C742 C741 1.374 . S
C742 C746 1.377 1_556 S
C743 H724 0.951 . S
C743 C741 1.388 . S
C743 C744 1.366 1_556 S
C744 C743 1.366 1_554 S
C744 C745 1.414 . S
C744 C747 1.499 . S
C745 H725 0.950 . S
C745 C744 1.414 . S
C745 C746 1.374 . S
C746 H726 0.950 . S
C746 C742 1.377 1_554 S
C746 C745 1.374 . S
C747 C744 1.499 . S
C747 C748 1.373 1_554 S
C747 C749 1.389 . S
C748 H727 0.950 . S
C748 C747 1.373 1_556 S
C748 C764 1.377 . S
C749 C747 1.389 . S
C749 C750 1.524 . S
C749 C763 1.377 . S
C750 C749 1.524 . S
C750 C751 1.397 . S
C750 C755 1.363 . S
C751 H728 0.950 . S
C751 C750 1.397 . S
C751 C752 1.334 . S
C752 H729 0.950 . S
C752 C751 1.334 . S
C752 C753 1.287 . S
C753 C752 1.287 . S
C753 C754 1.524 . S
C753 H772 0.913 . S
C754 H730 0.950 . S
C754 C753 1.524 . S
C754 C755 1.415 . S
C755 H731 0.950 . S
C755 C750 1.363 . S
C755 C754 1.415 . S
C756 H732 0.951 . S
C756 C757 1.366 . S
C756 C758 1.388 . S
C757 C756 1.366 . S
C757 C761 1.385 . S
C758 H733 0.951 . S
C758 C756 1.388 . S
C758 C759 1.366 . S
C759 C758 1.366 . S
C759 C760 1.414 . S
C759 C762 1.499 . S
C760 H734 0.950 . S
C760 C759 1.414 . S
C760 C761 1.374 . S
C761 H735 0.950 . S
C761 C757 1.385 . S
C761 C760 1.374 . S
C762 C759 1.499 . S
C762 C763 1.373 . S
C762 C764 1.389 1_554 S
C763 H736 0.950 . S
C763 C749 1.377 . S
C763 C762 1.373 . S
C764 C748 1.377 . S
C764 C762 1.389 1_556 S
C764 C765 1.524 . S
C765 C764 1.524 . S
C765 C766 1.397 . S
C765 C770 1.363 . S
C766 H737 0.950 . S
C766 C765 1.397 . S
C766 C767 1.334 . S
C767 H738 0.950 . S
C767 C766 1.334 . S
C767 C768 1.287 . S
C768 C767 1.287 . S
C768 C769 1.524 . S
C768 H771 0.999 . S
C769 H739 0.950 . S
C769 C768 1.524 . S
C769 C770 1.415 . S
C770 H740 0.950 . S
C770 C765 1.363 . S
C770 C769 1.415 . S
H771 C768 0.999 . S
H772 C753 0.913 . S
H773 C791 0.951 . S
H774 C793 0.951 . S
H775 C795 0.950 . S
H776 C796 0.950 . S
H777 C798 0.950 . S
H778 C801 0.950 . S
H779 C802 0.950 . S
H780 C804 0.950 . S
H781 C805 0.950 . S
H782 C806 0.951 . S
H783 C808 0.951 . S
H784 C810 0.950 . S
H785 C811 0.950 . S
H786 C813 0.950 . S
H787 C816 0.950 . S
H788 C817 0.950 . S
H789 C819 0.950 1_554 S
H790 C820 0.950 . S
C791 H773 0.951 . S
C791 C792 1.366 . S
C791 C793 1.388 . S
C792 C791 1.366 . S
C792 C796 1.385 1_556 S
C793 H774 0.951 . S
C793 C791 1.388 . S
C793 C794 1.366 . S
C794 C793 1.366 . S
C794 C795 1.414 1_556 S
C794 C797 1.499 . S
C795 H775 0.950 . S
C795 C794 1.414 1_554 S
C795 C796 1.374 . S
C796 H776 0.950 . S
C796 C792 1.385 1_554 S
C796 C795 1.374 . S
C797 C794 1.499 . S
C797 C798 1.373 . S
C797 C799 1.389 . S
C798 H777 0.950 . S
C798 C797 1.373 . S
C798 C814 1.377 . S
C799 C797 1.389 . S
C799 C800 1.524 1_556 S
C799 C813 1.377 . S
C800 C799 1.524 1_554 S
C800 C801 1.397 . S
C800 C805 1.363 1_554 S
C801 H778 0.950 . S
C801 C800 1.397 . S
C801 C802 1.334 . S
C802 H779 0.950 . S
C802 C801 1.334 . S
C802 C803 1.287 . S
C803 C802 1.287 . S
C803 C804 1.524 1_554 S
C803 H822 0.913 . S
C804 H780 0.950 . S
C804 C803 1.524 1_556 S
C804 C805 1.415 . S
C805 H781 0.950 . S
C805 C800 1.363 1_556 S
C805 C804 1.415 . S
C806 H782 0.951 . S
C806 C807 1.366 . S
C806 C808 1.388 . S
C807 C806 1.366 . S
C807 C811 1.385 1_554 S
C808 H783 0.951 . S
C808 C806 1.388 . S
C808 C809 1.366 1_554 S
C809 C808 1.366 1_556 S
C809 C810 1.414 . S
C809 C812 1.499 . S
C810 H784 0.950 . S
C810 C809 1.414 . S
C810 C811 1.374 . S
C811 H785 0.950 . S
C811 C807 1.385 1_556 S
C811 C810 1.374 . S
C812 C809 1.499 . S
C812 C813 1.373 . S
C812 C814 1.389 . S
C813 H786 0.950 . S
C813 C799 1.377 . S
C813 C812 1.373 . S
C814 C798 1.377 . S
C814 C812 1.389 . S
C814 C815 1.524 . S
C815 C814 1.524 . S
C815 C816 1.397 . S
C815 C820 1.363 1_556 S
C816 H787 0.950 . S
C816 C815 1.397 . S
C816 C817 1.334 . S
C817 H788 0.950 . S
C817 C816 1.334 . S
C817 C818 1.287 . S
C818 C817 1.287 . S
C818 C819 1.524 . S
C818 H821 0.999 . S
C819 H789 0.950 1_556 S
C819 C818 1.524 . S
C819 C820 1.415 1_556 S
C820 H790 0.950 . S
C820 C815 1.363 1_554 S
C820 C819 1.415 1_554 S
H821 C818 0.999 . S
H822 C803 0.913 . S
H823 C841 0.951 . S
H824 C843 0.951 . S
H825 C845 0.950 1_556 S
H826 C846 0.971 . S
H827 C848 0.950 . S
H828 C851 0.950 . S
H829 C852 0.950 . S
H830 C854 0.941 1_554 S
H831 C855 0.950 . S
H832 C856 0.951 . S
H833 C858 0.951 . S
H834 C860 0.950 . S
H835 C861 0.950 . S
H836 C863 0.950 . S
H837 C866 0.950 . S
H838 C867 0.950 . S
H839 C869 0.950 . S
H840 C870 0.950 . S
C841 H823 0.951 . S
C841 C842 1.366 . S
C841 C843 1.388 . S
C842 C841 1.366 . S
C842 C846 1.374 1_554 S
C843 H824 0.951 . S
C843 C841 1.388 . S
C843 C844 1.366 . S
C844 C843 1.366 . S
C844 C845 1.414 . S
C844 C847 1.499 . S
C845 H825 0.950 1_554 S
C845 C844 1.414 . S
C845 C846 1.365 1_554 S
C846 H826 0.971 . S
C846 C842 1.374 1_556 S
C846 C845 1.365 1_556 S
C847 C844 1.499 . S
C847 C848 1.373 . S
C847 C849 1.389 . S
C848 H827 0.950 . S
C848 C847 1.373 . S
C848 C864 1.377 . S
C849 C847 1.389 . S
C849 C850 1.524 1_554 S
C849 C863 1.377 . S
C850 C849 1.524 1_556 S
C850 C851 1.397 . S
C850 C855 1.363 1_556 S
C851 H828 0.950 . S
C851 C850 1.397 . S
C851 C852 1.334 . S
C852 H829 0.950 . S
C852 C851 1.334 . S
C852 C853 1.287 . S
C853 C852 1.287 . S
C853 C854 1.524 . S
C853 H872 0.913 . S
C854 H830 0.941 1_556 S
C854 C853 1.524 . S
C854 C855 1.415 1_556 S
C855 H831 0.950 . S
C855 C850 1.363 1_554 S
C855 C854 1.415 1_554 S
C856 H832 0.951 . S
C856 C857 1.366 . S
C856 C858 1.388 . S
C857 C856 1.366 . S
C857 C861 1.385 . S
C858 H833 0.951 . S
C858 C856 1.388 . S
C858 C859 1.366 . S
C859 C858 1.366 . S
C859 C860 1.414 . S
C859 C862 1.499 . S
C860 H834 0.950 . S
C860 C859 1.414 . S
C860 C861 1.374 . S
C861 H835 0.950 . S
C861 C857 1.385 . S
C861 C860 1.374 . S
C862 C859 1.499 . S
C862 C863 1.373 . S
C862 C864 1.389 . S
C863 H836 0.950 . S
C863 C849 1.377 . S
C863 C862 1.373 . S
C864 C848 1.377 . S
C864 C862 1.389 . S
C864 C865 1.524 . S
C865 C864 1.524 . S
C865 C866 1.397 . S
C865 C870 1.363 . S
C866 H837 0.950 . S
C866 C865 1.397 . S
C866 C867 1.334 . S
C867 H838 0.950 . S
C867 C866 1.334 . S
C867 C868 1.287 . S
C868 C867 1.287 . S
C868 C869 1.524 . S
C868 H871 0.999 . S
C869 H839 0.950 . S
C869 C868 1.524 . S
C869 C870 1.415 . S
C870 H840 0.950 . S
C870 C865 1.363 . S
C870 C869 1.415 . S
H871 C868 0.999 . S
H872 C853 0.913 . S
H873 C891 0.951 . S
H874 C893 0.951 . S
H875 C895 0.950 . S
H876 C896 0.950 . S
H877 C898 0.950 . S
H878 C901 0.950 . S
H879 C902 0.950 . S
H880 C904 0.950 . S
H881 C905 0.950 1_554 S
H882 C906 0.951 . S
H883 C908 0.949 1_556 S
H884 C910 0.950 . S
H885 C911 0.950 . S
H886 C913 0.950 1_556 S
H887 C916 0.950 . S
H888 C917 0.950 . S
H889 C919 0.950 . S
H890 C920 0.950 . S
C891 H873 0.951 . S
C891 C892 1.366 . S
C891 C893 1.388 . S
C892 C891 1.366 . S
C892 C896 1.385 . S
C893 H874 0.951 . S
C893 C891 1.388 . S
C893 C894 1.366 . S
C894 C893 1.366 . S
C894 C895 1.414 . S
C894 C897 1.499 . S
C895 H875 0.950 . S
C895 C894 1.414 . S
C895 C896 1.374 . S
C896 H876 0.950 . S
C896 C892 1.385 . S
C896 C895 1.374 . S
C897 C894 1.499 . S
C897 C898 1.373 . S
C897 C899 1.389 . S
C898 H877 0.950 . S
C898 C897 1.373 . S
C898 C914 1.377 . S
C899 C897 1.389 . S
C899 C900 1.524 1_554 S
C899 C913 1.377 . S
C900 C899 1.524 1_556 S
C900 C901 1.397 . S
C900 C905 1.363 . S
C901 H878 0.950 . S
C901 C900 1.397 . S
C901 C902 1.334 . S
C902 H879 0.950 . S
C902 C901 1.334 . S
C902 C903 1.287 . S
C903 C902 1.287 . S
C903 C904 1.524 . S
C903 H922 0.913 . S
C904 H880 0.950 . S
C904 C903 1.524 . S
C904 C905 1.415 . S
C905 H881 0.950 1_556 S
C905 C900 1.363 . S
C905 C904 1.415 . S
C906 H882 0.951 . S
C906 C907 1.366 1_556 S
C906 C908 1.388 1_556 S
C907 C906 1.366 1_554 S
C907 C911 1.385 . S
C908 H883 0.949 1_554 S
C908 C906 1.388 1_554 S
C908 C909 1.366 . S
C909 C908 1.366 . S
C909 C910 1.414 . S
C909 C912 1.499 . S
C910 H884 0.950 . S
C910 C909 1.414 . S
C910 C911 1.374 . S
C911 H885 0.950 . S
C911 C907 1.385 . S
C911 C910 1.374 . S
C912 C909 1.499 . S
C912 C913 1.373 . S
C912 C914 1.389 . S
C913 H886 0.950 1_554 S
C913 C899 1.377 . S
C913 C912 1.373 . S
C914 C898 1.377 . S
C914 C912 1.389 . S
C914 C915 1.524 . S
C915 C914 1.524 . S
C915 C916 1.397 . S
C915 C920 1.363 . S
C916 H887 0.950 . S
C916 C915 1.397 . S
C916 C917 1.334 . S
C917 H888 0.950 . S
C917 C916 1.334 . S
C917 C918 1.287 . S
C918 C917 1.287 . S
C918 C919 1.524 . S
C918 H921 0.999 . S
C919 H889 0.950 . S
C919 C918 1.524 . S
C919 C920 1.415 . S
C920 H890 0.950 . S
C920 C915 1.363 . S
C920 C919 1.415 . S
H921 C918 0.999 . S
H922 C903 0.913 . S
H923 C941 0.951 . S
H924 C943 0.951 . S
H925 C945 0.950 . S
H926 C946 0.950 . S
H927 C948 0.950 . S
H928 C951 0.950 . S
H929 C952 0.950 . S
H930 C954 0.950 . S
H931 C955 0.950 . S
H932 C956 0.951 . S
H933 C958 0.951 . S
H934 C960 0.950 . S
H935 C961 0.950 . S
H936 C963 0.950 . S
H937 C966 0.950 1_554 S
H938 C967 0.950 . S
H939 C969 0.950 . S
H940 C970 0.950 . S
C941 H923 0.951 . S
C941 C942 1.366 . S
C941 C943 1.388 . S
C942 C941 1.366 . S
C942 C946 1.385 . S
C943 H924 0.951 . S
C943 C941 1.388 . S
C943 C944 1.366 . S
C944 C943 1.366 . S
C944 C945 1.414 . S
C944 C947 1.499 . S
C945 H925 0.950 . S
C945 C944 1.414 . S
C945 C946 1.374 . S
C946 H926 0.950 . S
C946 C942 1.385 . S
C946 C945 1.374 . S
C947 C944 1.499 . S
C947 C948 1.373 . S
C947 C949 1.389 . S
C948 H927 0.950 . S
C948 C947 1.373 . S
C948 C964 1.377 . S
C949 C947 1.389 . S
C949 C950 1.524 . S
C949 C963 1.377 . S
C950 C949 1.524 . S
C950 C951 1.397 . S
C950 C955 1.363 . S
C951 H928 0.950 . S
C951 C950 1.397 . S
C951 C952 1.334 . S
C952 H929 0.950 . S
C952 C951 1.334 . S
C952 C953 1.287 . S
C953 C952 1.287 . S
C953 C954 1.524 . S
C953 H972 0.913 . S
C954 H930 0.950 . S
C954 C953 1.524 . S
C954 C955 1.415 . S
C955 H931 0.950 . S
C955 C950 1.363 . S
C955 C954 1.415 . S
C956 H932 0.951 . S
C956 C957 1.366 . S
C956 C958 1.388 . S
C957 C956 1.366 . S
C957 C961 1.385 . S
C958 H933 0.951 . S
C958 C956 1.388 . S
C958 C959 1.366 . S
C959 C958 1.366 . S
C959 C960 1.414 . S
C959 C962 1.499 . S
C960 H934 0.950 . S
C960 C959 1.414 . S
C960 C961 1.374 . S
C961 H935 0.950 . S
C961 C957 1.385 . S
C961 C960 1.374 . S
C962 C959 1.499 . S
C962 C963 1.373 . S
C962 C964 1.389 . S
C963 H936 0.950 . S
C963 C949 1.377 . S
C963 C962 1.373 . S
C964 C948 1.377 . S
C964 C962 1.389 . S
C964 C965 1.524 1_554 S
C965 C964 1.524 1_556 S
C965 C966 1.397 . S
C965 C970 1.363 . S
C966 H937 0.950 1_556 S
C966 C965 1.397 . S
C966 C967 1.334 . S
C967 H938 0.950 . S
C967 C966 1.334 . S
C967 C968 1.287 . S
C968 C967 1.287 . S
C968 C969 1.524 . S
C968 H971 0.999 . S
C969 H939 0.950 . S
C969 C968 1.524 . S
C969 C970 1.415 . S
C970 H940 0.950 . S
C970 C965 1.363 . S
C970 C969 1.415 . S
H971 C968 0.999 . S
H972 C953 0.913 . S
H973 C991 0.951 . S
H974 C993 0.951 . S
H975 C995 0.950 . S
H976 C996 0.950 . S
H977 C998 0.950 . S
H978 C1001 0.950 . S
H979 C1002 0.950 . S
H980 C1004 0.950 . S
H981 C1005 0.950 . S
H982 C1006 0.951 . S
H983 C1008 0.951 . S
H984 C1010 0.950 . S
H985 C1011 0.950 . S
H986 C1013 0.950 . S
H987 C1016 0.950 . S
H988 C1017 0.950 . S
H989 C1019 0.950 . S
H990 C1020 0.950 . S
C991 H973 0.951 . S
C991 C992 1.366 . S
C991 C993 1.388 . S
C992 C991 1.366 . S
C992 C996 1.385 . S
C993 H974 0.951 . S
C993 C991 1.388 . S
C993 C994 1.366 . S
C994 C993 1.366 . S
C994 C995 1.414 . S
C994 C997 1.499 . S
C995 H975 0.950 . S
C995 C994 1.414 . S
C995 C996 1.374 . S
C996 H976 0.950 . S
C996 C992 1.385 . S
C996 C995 1.374 . S
C997 C994 1.499 . S
C997 C998 1.373 . S
C997 C999 1.389 . S
C998 H977 0.950 . S
C998 C997 1.373 . S
C998 C1014 1.377 . S
C999 C997 1.389 . S
C999 C1000 1.548 . S
C999 C1013 1.377 . S
C1000 C999 1.548 . S
C1000 C1001 1.371 1_554 S
C1000 C1005 1.364 . S
C1001 H978 0.950 . S
C1001 C1000 1.371 1_556 S
C1001 C1002 1.334 . S
C1002 H979 0.950 . S
C1002 C1001 1.334 . S
C1002 C1003 1.287 . S
C1003 C1002 1.287 . S
C1003 C1004 1.524 . S
C1003 H1022 0.913 . S
C1004 H980 0.950 . S
C1004 C1003 1.524 . S
C1004 C1005 1.415 1_556 S
C1005 H981 0.950 . S
C1005 C1000 1.364 . S
C1005 C1004 1.415 1_554 S
C1006 H982 0.951 . S
C1006 C1007 1.366 . S
C1006 C1008 1.388 . S
C1007 C1006 1.366 . S
C1007 C1011 1.385 . S
C1008 H983 0.951 . S
C1008 C1006 1.388 . S
C1008 C1009 1.366 . S
C1009 C1008 1.366 . S
C1009 C1010 1.414 . S
C1009 C1012 1.499 . S
C1010 H984 0.950 . S
C1010 C1009 1.414 . S
C1010 C1011 1.374 . S
C1011 H985 0.950 . S
C1011 C1007 1.385 . S
C1011 C1010 1.374 . S
C1012 C1009 1.499 . S
C1012 C1013 1.373 . S
C1012 C1014 1.389 . S
C1013 H986 0.950 . S
C1013 C999 1.377 . S
C1013 C1012 1.373 . S
C1014 C998 1.377 . S
C1014 C1012 1.389 . S
C1014 C1015 1.524 . S
C1015 C1014 1.524 . S
C1015 C1016 1.397 . S
C1015 C1020 1.363 . S
C1016 H987 0.950 . S
C1016 C1015 1.397 . S
C1016 C1017 1.334 . S
C1017 H988 0.950 . S
C1017 C1016 1.334 . S
C1017 C1018 1.287 . S
C1018 C1017 1.287 . S
C1018 C1019 1.524 . S
C1018 H1021 0.999 . S
C1019 H989 0.950 . S
C1019 C1018 1.524 . S
C1019 C1020 1.415 . S
C1020 H990 0.950 . S
C1020 C1015 1.363 . S
C1020 C1019 1.415 . S
H1021 C1018 0.999 . S
H1022 C1003 0.913 . S
H1023 C1041 0.951 . S
H1024 C1043 0.951 . S
H1025 C1045 0.950 . S
H1026 C1046 0.950 . S
H1027 C1048 0.950 1_655 S
H1028 C1051 0.950 . S
H1029 C1052 0.950 . S
H1030 C1054 0.950 . S
H1031 C1055 0.950 . S
H1032 C1056 0.951 . S
H1033 C1058 0.951 . S
H1034 C1060 0.950 . S
H1035 C1061 0.950 . S
H1036 C1063 0.950 . S
H1037 C1066 0.950 . S
H1038 C1067 0.950 . S
H1039 C1069 0.950 . S
H1040 C1070 0.950 . S
C1041 H1023 0.951 . S
C1041 C1042 1.366 . S
C1041 C1043 1.388 . S
C1042 C1041 1.366 . S
C1042 C1046 1.385 . S
C1043 H1024 0.951 . S
C1043 C1041 1.388 . S
C1043 C1044 1.366 . S
C1044 C1043 1.366 . S
C1044 C1045 1.414 . S
C1044 C1047 1.499 . S
C1045 H1025 0.950 . S
C1045 C1044 1.414 . S
C1045 C1046 1.374 . S
C1046 H1026 0.950 . S
C1046 C1042 1.385 . S
C1046 C1045 1.374 . S
C1047 C1044 1.499 . S
C1047 C1048 1.373 1_655 S
C1047 C1049 1.389 1_655 S
C1048 H1027 0.950 1_455 S
C1048 C1047 1.373 1_455 S
C1048 C1064 1.377 . S
C1049 C1047 1.389 1_455 S
C1049 C1050 1.524 . S
C1049 C1063 1.377 . S
C1050 C1049 1.524 . S
C1050 C1051 1.397 1_455 S
C1050 C1055 1.363 . S
C1051 H1028 0.950 . S
C1051 C1050 1.397 1_655 S
C1051 C1052 1.334 . S
C1052 H1029 0.950 . S
C1052 C1051 1.334 . S
C1052 C1053 1.287 . S
C1053 C1052 1.287 . S
C1053 C1054 1.524 1_655 S
C1053 H1072 0.913 . S
C1054 H1030 0.950 . S
C1054 C1053 1.524 1_455 S
C1054 C1055 1.415 . S
C1055 H1031 0.950 . S
C1055 C1050 1.363 . S
C1055 C1054 1.415 . S
C1056 H1032 0.951 . S
C1056 C1057 1.366 . S
C1056 C1058 1.388 . S
C1057 C1056 1.366 . S
C1057 C1061 1.385 . S
C1058 H1033 0.951 . S
C1058 C1056 1.388 . S
C1058 C1059 1.366 . S
C1059 C1058 1.366 . S
C1059 C1060 1.414 . S
C1059 C1062 1.499 . S
C1060 H1034 0.950 . S
C1060 C1059 1.414 . S
C1060 C1061 1.374 . S
C1061 H1035 0.950 . S
C1061 C1057 1.385 . S
C1061 C1060 1.374 . S
C1062 C1059 1.499 . S
C1062 C1063 1.373 . S
C1062 C1064 1.389 . S
C1063 H1036 0.950 . S
C1063 C1049 1.377 . S
C1063 C1062 1.373 . S
C1064 C1048 1.377 . S
C1064 C1062 1.389 . S
C1064 C1065 1.524 . S
C1065 C1064 1.524 . S
C1065 C1066 1.397 . S
C1065 C1070 1.363 . S
C1066 H1037 0.950 . S
C1066 C1065 1.397 . S
C1066 C1067 1.334 . S
C1067 H1038 0.950 . S
C1067 C1066 1.334 . S
C1067 C1068 1.287 . S
C1068 C1067 1.287 . S
C1068 C1069 1.524 . S
C1068 H1071 0.999 . S
C1069 H1039 0.950 . S
C1069 C1068 1.524 . S
C1069 C1070 1.415 . S
C1070 H1040 0.950 . S
C1070 C1065 1.363 . S
C1070 C1069 1.415 . S
H1071 C1068 0.999 . S
H1072 C1053 0.913 . S
H1073 C1091 0.951 . S
H1074 C1093 0.951 . S
H1075 C1095 0.950 . S
H1076 C1096 0.950 . S
H1077 C1098 0.950 . S
H1078 C1101 0.950 . S
H1079 C1102 0.950 . S
H1080 C1104 0.950 . S
H1081 C1105 0.950 . S
H1082 C1106 0.951 . S
H1083 C1108 0.951 . S
H1084 C1110 0.950 . S
H1085 C1111 0.950 . S
H1086 C1113 0.950 . S
H1087 C1116 0.950 . S
H1088 C1117 0.950 . S
H1089 C1119 0.950 . S
H1090 C1120 0.950 . S
C1091 H1073 0.951 . S
C1091 C1092 1.366 . S
C1091 C1093 1.388 . S
C1092 C1091 1.366 . S
C1092 C1096 1.385 . S
C1093 H1074 0.951 . S
C1093 C1091 1.388 . S
C1093 C1094 1.366 . S
C1094 C1093 1.366 . S
C1094 C1095 1.414 . S
C1094 C1097 1.499 . S
C1095 H1075 0.950 . S
C1095 C1094 1.414 . S
C1095 C1096 1.374 . S
C1096 H1076 0.950 . S
C1096 C1092 1.385 . S
C1096 C1095 1.374 . S
C1097 C1094 1.499 . S
C1097 C1098 1.373 . S
C1097 C1099 1.389 . S
C1098 H1077 0.950 . S
C1098 C1097 1.373 . S
C1098 C1114 1.377 . S
C1099 C1097 1.389 . S
C1099 C1100 1.524 . S
C1099 C1113 1.377 . S
C1100 C1099 1.524 . S
C1100 C1101 1.397 . S
C1100 C1105 1.363 . S
C1101 H1078 0.950 . S
C1101 C1100 1.397 . S
C1101 C1102 1.334 . S
C1102 H1079 0.950 . S
C1102 C1101 1.334 . S
C1102 C1103 1.287 . S
C1103 C1102 1.287 . S
C1103 C1104 1.524 . S
C1103 H1122 0.913 . S
C1104 H1080 0.950 . S
C1104 C1103 1.524 . S
C1104 C1105 1.415 . S
C1105 H1081 0.950 . S
C1105 C1100 1.363 . S
C1105 C1104 1.415 . S
C1106 H1082 0.951 . S
C1106 C1107 1.366 . S
C1106 C1108 1.388 . S
C1107 C1106 1.366 . S
C1107 C1111 1.385 . S
C1108 H1083 0.951 . S
C1108 C1106 1.388 . S
C1108 C1109 1.366 . S
C1109 C1108 1.366 . S
C1109 C1110 1.414 . S
C1109 C1112 1.499 . S
C1110 H1084 0.950 . S
C1110 C1109 1.414 . S
C1110 C1111 1.374 . S
C1111 H1085 0.950 . S
C1111 C1107 1.385 . S
C1111 C1110 1.374 . S
C1112 C1109 1.499 . S
C1112 C1113 1.373 . S
C1112 C1114 1.389 . S
C1113 H1086 0.950 . S
C1113 C1099 1.377 . S
C1113 C1112 1.373 . S
C1114 C1098 1.377 . S
C1114 C1112 1.389 . S
C1114 C1115 1.524 . S
C1115 C1114 1.524 . S
C1115 C1116 1.397 . S
C1115 C1120 1.363 . S
C1116 H1087 0.950 . S
C1116 C1115 1.397 . S
C1116 C1117 1.334 . S
C1117 H1088 0.950 . S
C1117 C1116 1.334 . S
C1117 C1118 1.287 . S
C1118 C1117 1.287 . S
C1118 C1119 1.524 . S
C1118 H1121 0.999 . S
C1119 H1089 0.950 . S
C1119 C1118 1.524 . S
C1119 C1120 1.415 . S
C1120 H1090 0.950 . S
C1120 C1115 1.363 . S
C1120 C1119 1.415 . S
H1121 C1118 0.999 . S
H1122 C1103 0.913 . S
H1123 C1141 0.951 . S
H1124 C1143 0.951 . S
H1125 C1145 0.950 . S
H1126 C1146 0.950 . S
H1127 C1148 0.950 1_545 S
H1128 C1151 0.950 . S
H1129 C1152 0.950 . S
H1130 C1154 0.950 . S
H1131 C1155 0.950 . S
H1132 C1156 0.951 . S
H1133 C1158 0.951 . S
H1134 C1160 0.950 . S
H1135 C1161 0.950 . S
H1136 C1163 0.950 . S
H1137 C1166 0.950 . S
H1138 C1167 0.950 . S
H1139 C1169 0.950 . S
H1140 C1170 0.950 . S
C1141 H1123 0.951 . S
C1141 C1142 1.366 . S
C1141 C1143 1.388 . S
C1142 C1141 1.366 . S
C1142 C1146 1.385 . S
C1143 H1124 0.951 . S
C1143 C1141 1.388 . S
C1143 C1144 1.366 . S
C1144 C1143 1.366 . S
C1144 C1145 1.414 . S
C1144 C1147 1.499 . S
C1145 H1125 0.950 . S
C1145 C1144 1.414 . S
C1145 C1146 1.374 . S
C1146 H1126 0.950 . S
C1146 C1142 1.385 . S
C1146 C1145 1.374 . S
C1147 C1144 1.499 . S
C1147 C1148 1.373 1_545 S
C1147 C1149 1.418 . S
C1148 H1127 0.950 1_565 S
C1148 C1147 1.373 1_565 S
C1148 C1164 1.377 . S
C1149 C1147 1.418 . S
C1149 C1150 1.552 . S
C1149 C1163 1.321 1_545 S
C1150 C1149 1.552 . S
C1150 C1151 1.397 . S
C1150 C1155 1.363 . S
C1151 H1128 0.950 . S
C1151 C1150 1.397 . S
C1151 C1152 1.334 . S
C1152 H1129 0.950 . S
C1152 C1151 1.334 . S
C1152 C1153 1.287 . S
C1153 C1152 1.287 . S
C1153 C1154 1.524 . S
C1153 H1172 0.913 . S
C1154 H1130 0.950 . S
C1154 C1153 1.524 . S
C1154 C1155 1.415 . S
C1155 H1131 0.950 . S
C1155 C1150 1.363 . S
C1155 C1154 1.415 . S
C1156 H1132 0.951 . S
C1156 C1157 1.366 . S
C1156 C1158 1.388 . S
C1157 C1156 1.366 . S
C1157 C1161 1.385 . S
C1158 H1133 0.951 . S
C1158 C1156 1.388 . S
C1158 C1159 1.366 . S
C1159 C1158 1.366 . S
C1159 C1160 1.414 . S
C1159 C1162 1.499 . S
C1160 H1134 0.950 . S
C1160 C1159 1.414 . S
C1160 C1161 1.374 . S
C1161 H1135 0.950 . S
C1161 C1157 1.385 . S
C1161 C1160 1.374 . S
C1162 C1159 1.499 . S
C1162 C1163 1.373 . S
C1162 C1164 1.389 . S
C1163 H1136 0.950 . S
C1163 C1149 1.321 1_565 S
C1163 C1162 1.373 . S
C1164 C1148 1.377 . S
C1164 C1162 1.389 . S
C1164 C1165 1.524 . S
C1165 C1164 1.524 . S
C1165 C1166 1.397 . S
C1165 C1170 1.363 . S
C1166 H1137 0.950 . S
C1166 C1165 1.397 . S
C1166 C1167 1.334 . S
C1167 H1138 0.950 . S
C1167 C1166 1.334 . S
C1167 C1168 1.287 . S
C1168 C1167 1.287 . S
C1168 C1169 1.524 . S
C1168 H1171 0.999 . S
C1169 H1139 0.950 . S
C1169 C1168 1.524 . S
C1169 C1170 1.415 . S
C1170 H1140 0.950 . S
C1170 C1165 1.363 . S
C1170 C1169 1.415 . S
H1171 C1168 0.999 . S
H1172 C1153 0.913 . S
H1173 C1191 0.951 . S
H1174 C1193 0.951 . S
H1175 C1195 0.950 . S
H1176 C1196 0.950 . S
H1177 C1198 0.950 . S
H1178 C1201 0.950 . S
H1179 C1202 0.950 . S
H1180 C1204 0.950 . S
H1181 C1205 0.950 . S
H1182 C1206 0.951 . S
H1183 C1208 0.951 . S
H1184 C1210 0.950 . S
H1185 C1211 0.950 . S
H1186 C1213 0.950 . S
H1187 C1216 0.950 . S
H1188 C1217 0.950 . S
H1189 C1219 0.950 . S
H1190 C1220 0.950 . S
C1191 H1173 0.951 . S
C1191 C1192 1.366 . S
C1191 C1193 1.388 . S
C1192 C1191 1.366 . S
C1192 C1196 1.385 . S
C1193 H1174 0.951 . S
C1193 C1191 1.388 . S
C1193 C1194 1.366 . S
C1194 C1193 1.366 . S
C1194 C1195 1.414 . S
C1194 C1197 1.499 . S
C1195 H1175 0.950 . S
C1195 C1194 1.414 . S
C1195 C1196 1.374 . S
C1196 H1176 0.950 . S
C1196 C1192 1.385 . S
C1196 C1195 1.374 . S
C1197 C1194 1.499 . S
C1197 C1198 1.373 . S
C1197 C1199 1.389 . S
C1198 H1177 0.950 . S
C1198 C1197 1.373 . S
C1198 C1214 1.377 . S
C1199 C1197 1.389 . S
C1199 C1200 1.524 . S
C1199 C1213 1.377 . S
C1200 C1199 1.524 . S
C1200 C1201 1.397 . S
C1200 C1205 1.363 . S
C1201 H1178 0.950 . S
C1201 C1200 1.397 . S
C1201 C1202 1.334 . S
C1202 H1179 0.950 . S
C1202 C1201 1.334 . S
C1202 C1203 1.287 . S
C1203 C1202 1.287 . S
C1203 C1204 1.524 . S
C1203 H1222 0.913 . S
C1204 H1180 0.950 . S
C1204 C1203 1.524 . S
C1204 C1205 1.415 . S
C1205 H1181 0.950 . S
C1205 C1200 1.363 . S
C1205 C1204 1.415 . S
C1206 H1182 0.951 . S
C1206 C1207 1.366 . S
C1206 C1208 1.388 . S
C1207 C1206 1.366 . S
C1207 C1211 1.385 . S
C1208 H1183 0.951 . S
C1208 C1206 1.388 . S
C1208 C1209 1.366 . S
C1209 C1208 1.366 . S
C1209 C1210 1.414 . S
C1209 C1212 1.499 . S
C1210 H1184 0.950 . S
C1210 C1209 1.414 . S
C1210 C1211 1.374 . S
C1211 H1185 0.950 . S
C1211 C1207 1.385 . S
C1211 C1210 1.374 . S
C1212 C1209 1.499 . S
C1212 C1213 1.373 . S
C1212 C1214 1.389 . S
C1213 H1186 0.950 . S
C1213 C1199 1.377 . S
C1213 C1212 1.373 . S
C1214 C1198 1.377 . S
C1214 C1212 1.389 . S
C1214 C1215 1.524 . S
C1215 C1214 1.524 . S
C1215 C1216 1.397 . S
C1215 C1220 1.363 . S
C1216 H1187 0.950 . S
C1216 C1215 1.397 . S
C1216 C1217 1.334 . S
C1217 H1188 0.950 . S
C1217 C1216 1.334 . S
C1217 C1218 1.287 . S
C1218 C1217 1.287 . S
C1218 C1219 1.524 . S
C1218 H1221 0.999 . S
C1219 H1189 0.950 . S
C1219 C1218 1.524 . S
C1219 C1220 1.415 . S
C1220 H1190 0.950 . S
C1220 C1215 1.363 . S
C1220 C1219 1.415 . S
H1221 C1218 0.999 . S
H1222 C1203 0.913 . S
H1223 C1241 0.951 . S
H1224 C1243 0.951 . S
H1225 C1245 0.950 . S
H1226 C1246 0.950 . S
H1227 C1248 0.950 . S
H1228 C1251 0.950 . S
H1229 C1252 0.950 . S
H1230 C1254 0.950 . S
H1231 C1255 0.950 . S
H1232 C1256 0.951 . S
H1233 C1258 0.951 . S
H1234 C1260 0.950 . S
H1235 C1261 0.950 . S
H1236 C1263 0.950 . S
H1237 C1266 0.950 . S
H1238 C1267 0.950 . S
H1239 C1269 0.950 . S
H1240 C1270 0.950 . S
C1241 H1223 0.951 . S
C1241 C1242 1.366 . S
C1241 C1243 1.388 . S
C1242 C1241 1.366 . S
C1242 C1246 1.385 . S
C1243 H1224 0.951 . S
C1243 C1241 1.388 . S
C1243 C1244 1.366 . S
C1244 C1243 1.366 . S
C1244 C1245 1.414 . S
C1244 C1247 1.499 . S
C1245 H1225 0.950 . S
C1245 C1244 1.414 . S
C1245 C1246 1.374 . S
C1246 H1226 0.950 . S
C1246 C1242 1.385 . S
C1246 C1245 1.374 . S
C1247 C1244 1.499 . S
C1247 C1248 1.373 . S
C1247 C1249 1.389 . S
C1248 H1227 0.950 . S
C1248 C1247 1.373 . S
C1248 C1264 1.377 . S
C1249 C1247 1.389 . S
C1249 C1250 1.524 . S
C1249 C1263 1.377 . S
C1250 C1249 1.524 . S
C1250 C1251 1.397 . S
C1250 C1255 1.363 . S
C1251 H1228 0.950 . S
C1251 C1250 1.397 . S
C1251 C1252 1.334 . S
C1252 H1229 0.950 . S
C1252 C1251 1.334 . S
C1252 C1253 1.287 . S
C1253 C1252 1.287 . S
C1253 C1254 1.524 . S
C1253 H1272 0.913 . S
C1254 H1230 0.950 . S
C1254 C1253 1.524 . S
C1254 C1255 1.415 . S
C1255 H1231 0.950 . S
C1255 C1250 1.363 . S
C1255 C1254 1.415 . S
C1256 H1232 0.951 . S
C1256 C1257 1.366 . S
C1256 C1258 1.388 . S
C1257 C1256 1.366 . S
C1257 C1261 1.385 . S
C1258 H1233 0.951 . S
C1258 C1256 1.388 . S
C1258 C1259 1.366 . S
C1259 C1258 1.366 . S
C1259 C1260 1.414 . S
C1259 C1262 1.499 . S
C1260 H1234 0.950 . S
C1260 C1259 1.414 . S
C1260 C1261 1.374 . S
C1261 H1235 0.950 . S
C1261 C1257 1.385 . S
C1261 C1260 1.374 . S
C1262 C1259 1.499 . S
C1262 C1263 1.373 . S
C1262 C1264 1.389 . S
C1263 H1236 0.950 . S
C1263 C1249 1.377 . S
C1263 C1262 1.373 . S
C1264 C1248 1.377 . S
C1264 C1262 1.389 . S
C1264 C1265 1.524 . S
C1265 C1264 1.524 . S
C1265 C1266 1.397 . S
C1265 C1270 1.363 . S
C1266 H1237 0.950 . S
C1266 C1265 1.397 . S
C1266 C1267 1.334 . S
C1267 H1238 0.950 . S
C1267 C1266 1.334 . S
C1267 C1268 1.287 . S
C1268 C1267 1.287 . S
C1268 C1269 1.524 . S
C1268 H1271 0.999 . S
C1269 H1239 0.950 . S
C1269 C1268 1.524 . S
C1269 C1270 1.415 . S
C1270 H1240 0.950 . S
C1270 C1265 1.363 . S
C1270 C1269 1.415 . S
H1271 C1268 0.999 . S
H1272 C1253 0.913 . S
H1273 C1291 0.951 . S
H1274 C1293 0.951 . S
H1275 C1295 0.950 . S
H1276 C1296 0.950 . S
H1277 C1298 0.950 . S
H1278 C1301 0.950 . S
H1279 C1302 0.950 . S
H1280 C1304 0.950 . S
H1281 C1305 0.950 . S
H1282 C1306 0.951 . S
H1283 C1308 0.951 . S
H1284 C1310 0.950 . S
H1285 C1311 0.950 . S
H1286 C1313 0.950 . S
H1287 C1316 0.950 . S
H1288 C1317 0.950 . S
H1289 C1319 0.950 . S
H1290 C1320 0.950 . S
C1291 H1273 0.951 . S
C1291 C1292 1.366 . S
C1291 C1293 1.388 . S
C1292 C1291 1.366 . S
C1292 C1296 1.385 . S
C1293 H1274 0.951 . S
C1293 C1291 1.388 . S
C1293 C1294 1.366 . S
C1294 C1293 1.366 . S
C1294 C1295 1.414 . S
C1294 C1297 1.499 . S
C1295 H1275 0.950 . S
C1295 C1294 1.414 . S
C1295 C1296 1.374 . S
C1296 H1276 0.950 . S
C1296 C1292 1.385 . S
C1296 C1295 1.374 . S
C1297 C1294 1.499 . S
C1297 C1298 1.373 . S
C1297 C1299 1.389 . S
C1298 H1277 0.950 . S
C1298 C1297 1.373 . S
C1298 C1314 1.377 . S
C1299 C1297 1.389 . S
C1299 C1300 1.524 . S
C1299 C1313 1.377 . S
C1300 C1299 1.524 . S
C1300 C1301 1.397 . S
C1300 C1305 1.363 . S
C1301 H1278 0.950 . S
C1301 C1300 1.397 . S
C1301 C1302 1.334 . S
C1302 H1279 0.950 . S
C1302 C1301 1.334 . S
C1302 C1303 1.287 . S
C1303 C1302 1.287 . S
C1303 C1304 1.524 . S
C1303 H1322 0.913 . S
C1304 H1280 0.950 . S
C1304 C1303 1.524 . S
C1304 C1305 1.415 . S
C1305 H1281 0.950 . S
C1305 C1300 1.363 . S
C1305 C1304 1.415 . S
C1306 H1282 0.951 . S
C1306 C1307 1.366 . S
C1306 C1308 1.388 . S
C1307 C1306 1.366 . S
C1307 C1311 1.385 . S
C1308 H1283 0.951 . S
C1308 C1306 1.388 . S
C1308 C1309 1.366 . S
C1309 C1308 1.366 . S
C1309 C1310 1.414 . S
C1309 C1312 1.499 . S
C1310 H1284 0.950 . S
C1310 C1309 1.414 . S
C1310 C1311 1.374 . S
C1311 H1285 0.950 . S
C1311 C1307 1.385 . S
C1311 C1310 1.374 . S
C1312 C1309 1.499 . S
C1312 C1313 1.373 . S
C1312 C1314 1.389 . S
C1313 H1286 0.950 . S
C1313 C1299 1.377 . S
C1313 C1312 1.373 . S
C1314 C1298 1.377 . S
C1314 C1312 1.389 . S
C1314 C1315 1.524 . S
C1315 C1314 1.524 . S
C1315 C1316 1.397 . S
C1315 C1320 1.363 . S
C1316 H1287 0.950 . S
C1316 C1315 1.397 . S
C1316 C1317 1.334 . S
C1317 H1288 0.950 . S
C1317 C1316 1.334 . S
C1317 C1318 1.287 . S
C1318 C1317 1.287 . S
C1318 C1319 1.524 . S
C1318 H1321 0.999 . S
C1319 H1289 0.950 . S
C1319 C1318 1.524 . S
C1319 C1320 1.415 . S
C1320 H1290 0.950 . S
C1320 C1315 1.363 . S
C1320 C1319 1.415 . S
H1321 C1318 0.999 . S
H1322 C1303 0.913 . S
H1323 C1341 0.951 . S
H1324 C1343 0.951 . S
H1325 C1345 0.950 . S
H1326 C1346 0.950 . S
H1327 C1348 0.950 . S
H1328 C1351 0.950 . S
H1329 C1352 0.950 . S
H1330 C1354 0.950 . S
H1331 C1355 0.950 . S
H1332 C1356 0.951 . S
H1333 C1358 0.951 . S
H1334 C1360 0.950 . S
H1335 C1361 0.950 . S
H1336 C1363 0.950 . S
H1337 C1366 0.950 . S
H1338 C1367 0.950 . S
H1339 C1369 0.950 . S
H1340 C1370 0.950 . S
C1341 H1323 0.951 . S
C1341 C1342 1.366 . S
C1341 C1343 1.388 . S
C1342 C1341 1.366 . S
C1342 C1346 1.385 . S
C1343 H1324 0.951 . S
C1343 C1341 1.388 . S
C1343 C1344 1.366 . S
C1344 C1343 1.366 . S
C1344 C1345 1.414 . S
C1344 C1347 1.499 . S
C1345 H1325 0.950 . S
C1345 C1344 1.414 . S
C1345 C1346 1.374 . S
C1346 H1326 0.950 . S
C1346 C1342 1.385 . S
C1346 C1345 1.374 . S
C1347 C1344 1.499 . S
C1347 C1348 1.373 . S
C1347 C1349 1.389 . S
C1348 H1327 0.950 . S
C1348 C1347 1.373 . S
C1348 C1364 1.377 . S
C1349 C1347 1.389 . S
C1349 C1350 1.524 . S
C1349 C1363 1.377 . S
C1350 C1349 1.524 . S
C1350 C1351 1.397 . S
C1350 C1355 1.363 . S
C1351 H1328 0.950 . S
C1351 C1350 1.397 . S
C1351 C1352 1.334 . S
C1352 H1329 0.950 . S
C1352 C1351 1.334 . S
C1352 C1353 1.287 . S
C1353 C1352 1.287 . S
C1353 C1354 1.524 . S
C1353 H1372 0.913 . S
C1354 H1330 0.950 . S
C1354 C1353 1.524 . S
C1354 C1355 1.415 . S
C1355 H1331 0.950 . S
C1355 C1350 1.363 . S
C1355 C1354 1.415 . S
C1356 H1332 0.951 . S
C1356 C1357 1.366 . S
C1356 C1358 1.388 . S
C1357 C1356 1.366 . S
C1357 C1361 1.385 . S
C1358 H1333 0.951 . S
C1358 C1356 1.388 . S
C1358 C1359 1.366 . S
C1359 C1358 1.366 . S
C1359 C1360 1.414 . S
C1359 C1362 1.499 . S
C1360 H1334 0.950 . S
C1360 C1359 1.414 . S
C1360 C1361 1.374 . S
C1361 H1335 0.950 . S
C1361 C1357 1.385 . S
C1361 C1360 1.374 . S
C1362 C1359 1.499 . S
C1362 C1363 1.373 . S
C1362 C1364 1.389 . S
C1363 H1336 0.950 . S
C1363 C1349 1.377 . S
C1363 C1362 1.373 . S
C1364 C1348 1.377 . S
C1364 C1362 1.389 . S
C1364 C1365 1.524 . S
C1365 C1364 1.524 . S
C1365 C1366 1.397 . S
C1365 C1370 1.363 . S
C1366 H1337 0.950 . S
C1366 C1365 1.397 . S
C1366 C1367 1.334 . S
C1367 H1338 0.950 . S
C1367 C1366 1.334 . S
C1367 C1368 1.287 . S
C1368 C1367 1.287 . S
C1368 C1369 1.524 . S
C1368 H1371 0.999 . S
C1369 H1339 0.950 . S
C1369 C1368 1.524 . S
C1369 C1370 1.415 . S
C1370 H1340 0.950 . S
C1370 C1365 1.363 . S
C1370 C1369 1.415 . S
H1371 C1368 0.999 . S
H1372 C1353 0.913 . S
H1373 C1391 0.951 . S
H1374 C1393 0.951 . S
H1375 C1395 0.950 . S
H1376 C1396 0.950 . S
H1377 C1398 0.950 . S
H1378 C1401 0.950 . S
H1379 C1402 0.950 . S
H1380 C1404 0.950 . S
H1381 C1405 0.950 . S
H1382 C1406 0.951 . S
H1383 C1408 0.951 . S
H1384 C1410 0.950 . S
H1385 C1411 0.950 . S
H1386 C1413 0.950 . S
H1387 C1416 0.950 . S
H1388 C1417 0.950 . S
H1389 C1419 0.950 . S
H1390 C1420 0.950 . S
C1391 H1373 0.951 . S
C1391 C1392 1.366 . S
C1391 C1393 1.388 . S
C1392 C1391 1.366 . S
C1392 C1396 1.385 . S
C1393 H1374 0.951 . S
C1393 C1391 1.388 . S
C1393 C1394 1.366 . S
C1394 C1393 1.366 . S
C1394 C1395 1.414 . S
C1394 C1397 1.499 . S
C1395 H1375 0.950 . S
C1395 C1394 1.414 . S
C1395 C1396 1.374 . S
C1396 H1376 0.950 . S
C1396 C1392 1.385 . S
C1396 C1395 1.374 . S
C1397 C1394 1.499 . S
C1397 C1398 1.373 . S
C1397 C1399 1.389 . S
C1398 H1377 0.950 . S
C1398 C1397 1.373 . S
C1398 C1414 1.377 . S
C1399 C1397 1.389 . S
C1399 C1400 1.524 . S
C1399 C1413 1.377 . S
C1400 C1399 1.524 . S
C1400 C1401 1.397 . S
C1400 C1405 1.363 . S
C1401 H1378 0.950 . S
C1401 C1400 1.397 . S
C1401 C1402 1.334 . S
C1402 H1379 0.950 . S
C1402 C1401 1.334 . S
C1402 C1403 1.287 . S
C1403 C1402 1.287 . S
C1403 C1404 1.524 . S
C1403 H1422 0.913 . S
C1404 H1380 0.950 . S
C1404 C1403 1.524 . S
C1404 C1405 1.415 . S
C1405 H1381 0.950 . S
C1405 C1400 1.363 . S
C1405 C1404 1.415 . S
C1406 H1382 0.951 . S
C1406 C1407 1.366 . S
C1406 C1408 1.388 . S
C1407 C1406 1.366 . S
C1407 C1411 1.385 . S
C1408 H1383 0.951 . S
C1408 C1406 1.388 . S
C1408 C1409 1.366 . S
C1409 C1408 1.366 . S
C1409 C1410 1.414 . S
C1409 C1412 1.499 . S
C1410 H1384 0.950 . S
C1410 C1409 1.414 . S
C1410 C1411 1.374 . S
C1411 H1385 0.950 . S
C1411 C1407 1.385 . S
C1411 C1410 1.374 . S
C1412 C1409 1.499 . S
C1412 C1413 1.373 . S
C1412 C1414 1.389 . S
C1413 H1386 0.950 . S
C1413 C1399 1.377 . S
C1413 C1412 1.373 . S
C1414 C1398 1.377 . S
C1414 C1412 1.389 . S
C1414 C1415 1.524 . S
C1415 C1414 1.524 . S
C1415 C1416 1.397 . S
C1415 C1420 1.363 . S
C1416 H1387 0.950 . S
C1416 C1415 1.397 . S
C1416 C1417 1.334 . S
C1417 H1388 0.950 . S
C1417 C1416 1.334 . S
C1417 C1418 1.287 . S
C1418 C1417 1.287 . S
C1418 C1419 1.524 . S
C1418 H1421 0.999 . S
C1419 H1389 0.950 . S
C1419 C1418 1.524 . S
C1419 C1420 1.415 . S
C1420 H1390 0.950 . S
C1420 C1415 1.363 . S
C1420 C1419 1.415 . S
H1421 C1418 0.999 . S
H1422 C1403 0.913 . S
H1423 C1441 0.951 . S
H1424 C1443 0.951 . S
H1425 C1445 0.950 . S
H1426 C1446 0.950 . S
H1427 C1448 0.950 . S
H1428 C1451 0.950 . S
H1429 C1452 0.950 . S
H1430 C1454 0.950 . S
H1431 C1455 0.950 . S
H1432 C1456 0.951 . S
H1433 C1458 0.951 . S
H1434 C1460 0.950 . S
H1435 C1461 0.950 . S
H1436 C1463 0.950 . S
H1437 C1466 0.950 . S
H1438 C1467 0.950 . S
H1439 C1469 0.950 . S
H1440 C1470 0.950 . S
C1441 H1423 0.951 . S
C1441 C1442 1.366 . S
C1441 C1443 1.388 . S
C1442 C1441 1.366 . S
C1442 C1446 1.385 . S
C1443 H1424 0.951 . S
C1443 C1441 1.388 . S
C1443 C1444 1.366 . S
C1444 C1443 1.366 . S
C1444 C1445 1.414 . S
C1444 C1447 1.499 . S
C1445 H1425 0.950 . S
C1445 C1444 1.414 . S
C1445 C1446 1.374 . S
C1446 H1426 0.950 . S
C1446 C1442 1.385 . S
C1446 C1445 1.374 . S
C1447 C1444 1.499 . S
C1447 C1448 1.373 . S
C1447 C1449 1.389 . S
C1448 H1427 0.950 . S
C1448 C1447 1.373 . S
C1448 C1464 1.377 . S
C1449 C1447 1.389 . S
C1449 C1450 1.524 . S
C1449 C1463 1.377 . S
C1450 C1449 1.524 . S
C1450 C1451 1.397 . S
C1450 C1455 1.363 . S
C1451 H1428 0.950 . S
C1451 C1450 1.397 . S
C1451 C1452 1.334 . S
C1452 H1429 0.950 . S
C1452 C1451 1.334 . S
C1452 C1453 1.287 . S
C1453 C1452 1.287 . S
C1453 C1454 1.524 . S
C1453 H1472 0.913 . S
C1454 H1430 0.950 . S
C1454 C1453 1.524 . S
C1454 C1455 1.415 . S
C1455 H1431 0.950 . S
C1455 C1450 1.363 . S
C1455 C1454 1.415 . S
C1456 H1432 0.951 . S
C1456 C1457 1.366 . S
C1456 C1458 1.388 . S
C1457 C1456 1.366 . S
C1457 C1461 1.385 . S
C1458 H1433 0.951 . S
C1458 C1456 1.388 . S
C1458 C1459 1.366 . S
C1459 C1458 1.366 . S
C1459 C1460 1.414 . S
C1459 C1462 1.499 . S
C1460 H1434 0.950 . S
C1460 C1459 1.414 . S
C1460 C1461 1.374 . S
C1461 H1435 0.950 . S
C1461 C1457 1.385 . S
C1461 C1460 1.374 . S
C1462 C1459 1.499 . S
C1462 C1463 1.373 . S
C1462 C1464 1.389 . S
C1463 H1436 0.950 . S
C1463 C1449 1.377 . S
C1463 C1462 1.373 . S
C1464 C1448 1.377 . S
C1464 C1462 1.389 . S
C1464 C1465 1.524 . S
C1465 C1464 1.524 . S
C1465 C1466 1.397 . S
C1465 C1470 1.363 . S
C1466 H1437 0.950 . S
C1466 C1465 1.397 . S
C1466 C1467 1.334 . S
C1467 H1438 0.950 . S
C1467 C1466 1.334 . S
C1467 C1468 1.287 . S
C1468 C1467 1.287 . S
C1468 C1469 1.524 . S
C1468 H1471 0.999 . S
C1469 H1439 0.950 . S
C1469 C1468 1.524 . S
C1469 C1470 1.415 . S
C1470 H1440 0.950 . S
C1470 C1465 1.363 . S
C1470 C1469 1.415 . S
H1471 C1468 0.999 . S
H1472 C1453 0.913 . S
H1473 C1491 0.951 . S
H1474 C1493 0.951 . S
H1475 C1495 0.950 . S
H1476 C1496 0.950 . S
H1477 C1498 0.950 . S
H1478 C1501 0.950 . S
H1479 C1502 0.950 . S
H1480 C1504 0.950 . S
H1481 C1505 0.950 . S
H1482 C1506 0.951 . S
H1483 C1508 0.951 . S
H1484 C1510 0.950 . S
H1485 C1511 0.950 . S
H1486 C1513 0.950 . S
H1487 C1516 0.950 . S
H1488 C1517 0.950 . S
H1489 C1519 0.950 . S
H1490 C1520 0.950 . S
C1491 H1473 0.951 . S
C1491 C1492 1.366 . S
C1491 C1493 1.388 . S
C1492 C1491 1.366 . S
C1492 C1496 1.385 . S
C1493 H1474 0.951 . S
C1493 C1491 1.388 . S
C1493 C1494 1.366 . S
C1494 C1493 1.366 . S
C1494 C1495 1.414 . S
C1494 C1497 1.499 . S
C1495 H1475 0.950 . S
C1495 C1494 1.414 . S
C1495 C1496 1.374 . S
C1496 H1476 0.950 . S
C1496 C1492 1.385 . S
C1496 C1495 1.374 . S
C1497 C1494 1.499 . S
C1497 C1498 1.373 . S
C1497 C1499 1.389 . S
C1498 H1477 0.950 . S
C1498 C1497 1.373 . S
C1498 C1514 1.377 1_545 S
C1499 C1497 1.389 . S
C1499 C1500 1.524 . S
C1499 C1513 1.377 1_545 S
C1500 C1499 1.524 . S
C1500 C1501 1.397 . S
C1500 C1505 1.363 . S
C1501 H1478 0.950 . S
C1501 C1500 1.397 . S
C1501 C1502 1.334 . S
C1502 H1479 0.950 . S
C1502 C1501 1.334 . S
C1502 C1503 1.287 . S
C1503 C1502 1.287 . S
C1503 C1504 1.524 . S
C1503 H1522 0.913 . S
C1504 H1480 0.950 . S
C1504 C1503 1.524 . S
C1504 C1505 1.415 . S
C1505 H1481 0.950 . S
C1505 C1500 1.363 . S
C1505 C1504 1.415 . S
C1506 H1482 0.951 . S
C1506 C1507 1.366 . S
C1506 C1508 1.388 . S
C1507 C1506 1.366 . S
C1507 C1511 1.385 . S
C1508 H1483 0.951 . S
C1508 C1506 1.388 . S
C1508 C1509 1.366 . S
C1509 C1508 1.366 . S
C1509 C1510 1.414 . S
C1509 C1512 1.499 . S
C1510 H1484 0.950 . S
C1510 C1509 1.414 . S
C1510 C1511 1.374 . S
C1511 H1485 0.950 . S
C1511 C1507 1.385 . S
C1511 C1510 1.374 . S
C1512 C1509 1.499 . S
C1512 C1513 1.373 . S
C1512 C1514 1.389 . S
C1513 H1486 0.950 . S
C1513 C1499 1.377 1_565 S
C1513 C1512 1.373 . S
C1514 C1498 1.377 1_565 S
C1514 C1512 1.389 . S
C1514 C1515 1.524 . S
C1515 C1514 1.524 . S
C1515 C1516 1.397 . S
C1515 C1520 1.363 . S
C1516 H1487 0.950 . S
C1516 C1515 1.397 . S
C1516 C1517 1.334 . S
C1517 H1488 0.950 . S
C1517 C1516 1.334 . S
C1517 C1518 1.287 . S
C1518 C1517 1.287 . S
C1518 C1519 1.524 . S
C1518 H1521 0.999 . S
C1519 H1489 0.950 . S
C1519 C1518 1.524 . S
C1519 C1520 1.415 . S
C1520 H1490 0.950 . S
C1520 C1515 1.363 . S
C1520 C1519 1.415 . S
H1521 C1518 0.999 . S
H1522 C1503 0.913 . S
H1523 C1541 0.951 . S
H1524 C1543 0.951 . S
H1525 C1545 0.950 . S
H1526 C1546 0.950 . S
H1527 C1548 0.950 1_655 S
H1528 C1551 0.950 . S
H1529 C1552 0.950 . S
H1530 C1554 0.950 . S
H1531 C1555 0.950 . S
H1532 C1556 0.951 . S
H1533 C1558 0.951 . S
H1534 C1560 0.950 . S
H1535 C1561 0.950 . S
H1536 C1563 0.950 . S
H1537 C1566 0.950 . S
H1538 C1567 0.950 . S
H1539 C1569 0.950 . S
H1540 C1570 0.950 . S
C1541 H1523 0.951 . S
C1541 C1542 1.366 . S
C1541 C1543 1.388 . S
C1542 C1541 1.366 . S
C1542 C1546 1.385 . S
C1543 H1524 0.951 . S
C1543 C1541 1.388 . S
C1543 C1544 1.366 . S
C1544 C1543 1.366 . S
C1544 C1545 1.414 . S
C1544 C1547 1.499 . S
C1545 H1525 0.950 . S
C1545 C1544 1.414 . S
C1545 C1546 1.374 . S
C1546 H1526 0.950 . S
C1546 C1542 1.385 . S
C1546 C1545 1.374 . S
C1547 C1544 1.499 . S
C1547 C1548 1.373 1_655 S
C1547 C1549 1.389 . S
C1548 H1527 0.950 1_455 S
C1548 C1547 1.373 1_455 S
C1548 C1564 1.377 . S
C1549 C1547 1.389 . S
C1549 C1550 1.524 . S
C1549 C1563 1.377 1_655 S
C1550 C1549 1.524 . S
C1550 C1551 1.397 . S
C1550 C1555 1.363 . S
C1551 H1528 0.950 . S
C1551 C1550 1.397 . S
C1551 C1552 1.334 . S
C1552 H1529 0.950 . S
C1552 C1551 1.334 . S
C1552 C1553 1.287 . S
C1553 C1552 1.287 . S
C1553 C1554 1.524 . S
C1553 H1572 0.913 . S
C1554 H1530 0.950 . S
C1554 C1553 1.524 . S
C1554 C1555 1.415 . S
C1555 H1531 0.950 . S
C1555 C1550 1.363 . S
C1555 C1554 1.415 . S
C1556 H1532 0.951 . S
C1556 C1557 1.366 . S
C1556 C1558 1.388 . S
C1557 C1556 1.366 . S
C1557 C1561 1.385 . S
C1558 H1533 0.951 . S
C1558 C1556 1.388 . S
C1558 C1559 1.366 . S
C1559 C1558 1.366 . S
C1559 C1560 1.414 . S
C1559 C1562 1.499 . S
C1560 H1534 0.950 . S
C1560 C1559 1.414 . S
C1560 C1561 1.374 . S
C1561 H1535 0.950 . S
C1561 C1557 1.385 . S
C1561 C1560 1.374 . S
C1562 C1559 1.499 . S
C1562 C1563 1.373 . S
C1562 C1564 1.389 . S
C1563 H1536 0.950 . S
C1563 C1549 1.377 1_455 S
C1563 C1562 1.373 . S
C1564 C1548 1.377 . S
C1564 C1562 1.389 . S
C1564 C1565 1.524 . S
C1565 C1564 1.524 . S
C1565 C1566 1.397 . S
C1565 C1570 1.363 . S
C1566 H1537 0.950 . S
C1566 C1565 1.397 . S
C1566 C1567 1.334 . S
C1567 H1538 0.950 . S
C1567 C1566 1.334 . S
C1567 C1568 1.287 . S
C1568 C1567 1.287 . S
C1568 C1569 1.524 . S
C1568 H1571 0.999 . S
C1569 H1539 0.950 . S
C1569 C1568 1.524 . S
C1569 C1570 1.415 . S
C1570 H1540 0.950 . S
C1570 C1565 1.363 . S
C1570 C1569 1.415 . S
H1571 C1568 0.999 . S
H1572 C1553 0.913 . S
H1573 C1591 0.951 . S
H1574 C1593 0.951 . S
H1575 C1595 0.950 . S
H1576 C1596 0.950 . S
H1577 C1598 0.950 . S
H1578 C1601 0.950 . S
H1579 C1602 0.950 . S
H1580 C1604 0.950 . S
H1581 C1605 0.950 . S
H1582 C1606 0.951 . S
H1583 C1608 0.951 . S
H1584 C1610 0.950 . S
H1585 C1611 0.950 . S
H1586 C1613 0.950 . S
H1587 C1616 0.950 . S
H1588 C1617 0.950 . S
H1589 C1619 0.950 . S
H1590 C1620 0.950 . S
C1591 H1573 0.951 . S
C1591 C1592 1.366 . S
C1591 C1593 1.388 . S
C1592 C1591 1.366 . S
C1592 C1596 1.385 . S
C1593 H1574 0.951 . S
C1593 C1591 1.388 . S
C1593 C1594 1.366 . S
C1594 C1593 1.366 . S
C1594 C1595 1.414 . S
C1594 C1597 1.499 . S
C1595 H1575 0.950 . S
C1595 C1594 1.414 . S
C1595 C1596 1.374 . S
C1596 H1576 0.950 . S
C1596 C1592 1.385 . S
C1596 C1595 1.374 . S
C1597 C1594 1.499 . S
C1597 C1598 1.373 . S
C1597 C1599 1.389 . S
C1598 H1577 0.950 . S
C1598 C1597 1.373 . S
C1598 C1614 1.377 . S
C1599 C1597 1.389 . S
C1599 C1600 1.524 . S
C1599 C1613 1.377 . S
C1600 C1599 1.524 . S
C1600 C1601 1.397 . S
C1600 C1605 1.363 . S
C1601 H1578 0.950 . S
C1601 C1600 1.397 . S
C1601 C1602 1.334 . S
C1602 H1579 0.950 . S
C1602 C1601 1.334 . S
C1602 C1603 1.287 . S
C1603 C1602 1.287 . S
C1603 C1604 1.524 . S
C1603 H1622 0.913 . S
C1604 H1580 0.950 . S
C1604 C1603 1.524 . S
C1604 C1605 1.415 . S
C1605 H1581 0.950 . S
C1605 C1600 1.363 . S
C1605 C1604 1.415 . S
C1606 H1582 0.951 . S
C1606 C1607 1.366 . S
C1606 C1608 1.388 . S
C1607 C1606 1.366 . S
C1607 C1611 1.385 . S
C1608 H1583 0.951 . S
C1608 C1606 1.388 . S
C1608 C1609 1.366 . S
C1609 C1608 1.366 . S
C1609 C1610 1.414 . S
C1609 C1612 1.499 . S
C1610 H1584 0.950 . S
C1610 C1609 1.414 . S
C1610 C1611 1.374 . S
C1611 H1585 0.950 . S
C1611 C1607 1.385 . S
C1611 C1610 1.374 . S
C1612 C1609 1.499 . S
C1612 C1613 1.373 . S
C1612 C1614 1.389 . S
C1613 H1586 0.950 . S
C1613 C1599 1.377 . S
C1613 C1612 1.373 . S
C1614 C1598 1.377 . S
C1614 C1612 1.389 . S
C1614 C1615 1.524 . S
C1615 C1614 1.524 . S
C1615 C1616 1.397 . S
C1615 C1620 1.363 . S
C1616 H1587 0.950 . S
C1616 C1615 1.397 . S
C1616 C1617 1.334 . S
C1617 H1588 0.950 . S
C1617 C1616 1.334 . S
C1617 C1618 1.287 . S
C1618 C1617 1.287 . S
C1618 C1619 1.524 . S
C1618 H1621 0.999 . S
C1619 H1589 0.950 . S
C1619 C1618 1.524 . S
C1619 C1620 1.415 . S
C1620 H1590 0.950 . S
C1620 C1615 1.363 . S
C1620 C1619 1.415 . S
H1621 C1618 0.999 . S
H1622 C1603 0.913 . S
H1623 C1641 0.951 . S
H1624 C1643 0.951 . S
H1625 C1645 0.950 . S
H1626 C1646 0.950 . S
H1627 C1648 0.950 . S
H1628 C1651 0.950 . S
H1629 C1652 0.950 . S
H1630 C1654 0.950 . S
H1631 C1655 0.950 . S
H1632 C1656 0.951 . S
H1633 C1658 0.951 . S
H1634 C1660 0.950 . S
H1635 C1661 0.950 . S
H1636 C1663 0.950 . S
H1637 C1666 0.950 . S
H1638 C1667 0.950 . S
H1639 C1669 0.950 . S
H1640 C1670 0.950 . S
C1641 H1623 0.951 . S
C1641 C1642 1.366 . S
C1641 C1643 1.388 . S
C1642 C1641 1.366 . S
C1642 C1646 1.385 . S
C1643 H1624 0.951 . S
C1643 C1641 1.388 . S
C1643 C1644 1.366 . S
C1644 C1643 1.366 . S
C1644 C1645 1.414 . S
C1644 C1647 1.499 . S
C1645 H1625 0.950 . S
C1645 C1644 1.414 . S
C1645 C1646 1.374 . S
C1646 H1626 0.950 . S
C1646 C1642 1.385 . S
C1646 C1645 1.374 . S
C1647 C1644 1.499 . S
C1647 C1648 1.373 . S
C1647 C1649 1.389 . S
C1648 H1627 0.950 . S
C1648 C1647 1.373 . S
C1648 C1664 1.377 . S
C1649 C1647 1.389 . S
C1649 C1650 1.524 . S
C1649 C1663 1.377 . S
C1650 C1649 1.524 . S
C1650 C1651 1.397 . S
C1650 C1655 1.363 . S
C1651 H1628 0.950 . S
C1651 C1650 1.397 . S
C1651 C1652 1.334 . S
C1652 H1629 0.950 . S
C1652 C1651 1.334 . S
C1652 C1653 1.287 . S
C1653 C1652 1.287 . S
C1653 C1654 1.524 . S
C1653 H1672 0.913 . S
C1654 H1630 0.950 . S
C1654 C1653 1.524 . S
C1654 C1655 1.415 . S
C1655 H1631 0.950 . S
C1655 C1650 1.363 . S
C1655 C1654 1.415 . S
C1656 H1632 0.951 . S
C1656 C1657 1.366 . S
C1656 C1658 1.388 . S
C1657 C1656 1.366 . S
C1657 C1661 1.385 . S
C1658 H1633 0.951 . S
C1658 C1656 1.388 . S
C1658 C1659 1.366 . S
C1659 C1658 1.366 . S
C1659 C1660 1.414 . S
C1659 C1662 1.499 . S
C1660 H1634 0.950 . S
C1660 C1659 1.414 . S
C1660 C1661 1.374 . S
C1661 H1635 0.950 . S
C1661 C1657 1.385 . S
C1661 C1660 1.374 . S
C1662 C1659 1.499 . S
C1662 C1663 1.373 . S
C1662 C1664 1.389 . S
C1663 H1636 0.950 . S
C1663 C1649 1.377 . S
C1663 C1662 1.373 . S
C1664 C1648 1.377 . S
C1664 C1662 1.389 . S
C1664 C1665 1.524 . S
C1665 C1664 1.524 . S
C1665 C1666 1.397 . S
C1665 C1670 1.363 . S
C1666 H1637 0.950 . S
C1666 C1665 1.397 . S
C1666 C1667 1.334 . S
C1667 H1638 0.950 . S
C1667 C1666 1.334 . S
C1667 C1668 1.287 . S
C1668 C1667 1.287 . S
C1668 C1669 1.524 . S
C1668 H1671 0.999 . S
C1669 H1639 0.950 . S
C1669 C1668 1.524 . S
C1669 C1670 1.415 . S
C1670 H1640 0.950 . S
C1670 C1665 1.363 . S
C1670 C1669 1.415 . S
H1671 C1668 0.999 . S
H1672 C1653 0.913 . S
H1673 C1691 0.951 . S
H1674 C1693 0.951 . S
H1675 C1695 0.950 . S
H1676 C1696 0.950 . S
H1677 C1698 0.950 . S
H1678 C1701 0.950 . S
H1679 C1702 0.950 . S
H1680 C1704 0.950 . S
H1681 C1705 0.950 . S
H1682 C1706 0.951 . S
H1683 C1708 0.951 . S
H1684 C1710 0.950 . S
H1685 C1711 0.950 . S
H1686 C1713 0.950 . S
H1687 C1716 0.950 . S
H1688 C1717 0.950 . S
H1689 C1719 0.950 . S
H1690 C1720 0.950 . S
C1691 H1673 0.951 . S
C1691 C1692 1.366 . S
C1691 C1693 1.388 . S
C1692 C1691 1.366 . S
C1692 C1696 1.385 . S
C1693 H1674 0.951 . S
C1693 C1691 1.388 . S
C1693 C1694 1.366 . S
C1694 C1693 1.366 . S
C1694 C1695 1.414 . S
C1694 C1697 1.499 . S
C1695 H1675 0.950 . S
C1695 C1694 1.414 . S
C1695 C1696 1.374 . S
C1696 H1676 0.950 . S
C1696 C1692 1.385 . S
C1696 C1695 1.374 . S
C1697 C1694 1.499 . S
C1697 C1698 1.373 . S
C1697 C1699 1.389 . S
C1698 H1677 0.950 . S
C1698 C1697 1.373 . S
C1698 C1714 1.377 . S
C1699 C1697 1.389 . S
C1699 C1700 1.524 . S
C1699 C1713 1.377 . S
C1700 C1699 1.524 . S
C1700 C1701 1.397 . S
C1700 C1705 1.363 . S
C1701 H1678 0.950 . S
C1701 C1700 1.397 . S
C1701 C1702 1.334 . S
C1702 H1679 0.950 . S
C1702 C1701 1.334 . S
C1702 C1703 1.287 . S
C1703 C1702 1.287 . S
C1703 C1704 1.524 . S
C1703 H1722 0.913 . S
C1704 H1680 0.950 . S
C1704 C1703 1.524 . S
C1704 C1705 1.415 . S
C1705 H1681 0.950 . S
C1705 C1700 1.363 . S
C1705 C1704 1.415 . S
C1706 H1682 0.951 . S
C1706 C1707 1.366 . S
C1706 C1708 1.388 . S
C1707 C1706 1.366 . S
C1707 C1711 1.385 . S
C1708 H1683 0.951 . S
C1708 C1706 1.388 . S
C1708 C1709 1.366 . S
C1709 C1708 1.366 . S
C1709 C1710 1.414 . S
C1709 C1712 1.499 . S
C1710 H1684 0.950 . S
C1710 C1709 1.414 . S
C1710 C1711 1.374 . S
C1711 H1685 0.950 . S
C1711 C1707 1.385 . S
C1711 C1710 1.374 . S
C1712 C1709 1.499 . S
C1712 C1713 1.373 . S
C1712 C1714 1.389 . S
C1713 H1686 0.950 . S
C1713 C1699 1.377 . S
C1713 C1712 1.373 . S
C1714 C1698 1.377 . S
C1714 C1712 1.389 . S
C1714 C1715 1.524 . S
C1715 C1714 1.524 . S
C1715 C1716 1.397 . S
C1715 C1720 1.363 . S
C1716 H1687 0.950 . S
C1716 C1715 1.397 . S
C1716 C1717 1.334 . S
C1717 H1688 0.950 . S
C1717 C1716 1.334 . S
C1717 C1718 1.287 . S
C1718 C1717 1.287 . S
C1718 C1719 1.524 . S
C1718 H1721 0.999 . S
C1719 H1689 0.950 . S
C1719 C1718 1.524 . S
C1719 C1720 1.415 . S
C1720 H1690 0.950 . S
C1720 C1715 1.363 . S
C1720 C1719 1.415 . S
H1721 C1718 0.999 . S
H1722 C1703 0.913 . S
H1723 C1741 0.951 . S
H1724 C1743 0.951 . S
H1725 C1745 0.950 . S
H1726 C1746 0.950 . S
H1727 C1748 0.950 . S
H1728 C1751 0.950 . S
H1729 C1752 0.950 . S
H1730 C1754 0.950 . S
H1731 C1755 0.950 . S
H1732 C1756 0.951 . S
H1733 C1758 0.951 . S
H1734 C1760 0.950 . S
H1735 C1761 0.950 . S
H1736 C1763 0.950 . S
H1737 C1766 0.950 . S
H1738 C1767 0.950 . S
H1739 C1769 0.950 . S
H1740 C1770 0.950 . S
C1741 H1723 0.951 . S
C1741 C1742 1.366 . S
C1741 C1743 1.388 . S
C1742 C1741 1.366 . S
C1742 C1746 1.385 . S
C1743 H1724 0.951 . S
C1743 C1741 1.388 . S
C1743 C1744 1.366 . S
C1744 C1743 1.366 . S
C1744 C1745 1.414 . S
C1744 C1747 1.499 . S
C1745 H1725 0.950 . S
C1745 C1744 1.414 . S
C1745 C1746 1.374 . S
C1746 H1726 0.950 . S
C1746 C1742 1.385 . S
C1746 C1745 1.374 . S
C1747 C1744 1.499 . S
C1747 C1748 1.373 . S
C1747 C1749 1.389 . S
C1748 H1727 0.950 . S
C1748 C1747 1.373 . S
C1748 C1764 1.377 . S
C1749 C1747 1.389 . S
C1749 C1750 1.524 . S
C1749 C1763 1.377 . S
C1750 C1749 1.524 . S
C1750 C1751 1.397 . S
C1750 C1755 1.363 . S
C1751 H1728 0.950 . S
C1751 C1750 1.397 . S
C1751 C1752 1.334 . S
C1752 H1729 0.950 . S
C1752 C1751 1.334 . S
C1752 C1753 1.287 . S
C1753 C1752 1.287 . S
C1753 C1754 1.524 . S
C1753 H1772 0.913 . S
C1754 H1730 0.950 . S
C1754 C1753 1.524 . S
C1754 C1755 1.415 . S
C1755 H1731 0.950 . S
C1755 C1750 1.363 . S
C1755 C1754 1.415 . S
C1756 H1732 0.951 . S
C1756 C1757 1.366 . S
C1756 C1758 1.388 . S
C1757 C1756 1.366 . S
C1757 C1761 1.385 . S
C1758 H1733 0.951 . S
C1758 C1756 1.388 . S
C1758 C1759 1.366 . S
C1759 C1758 1.366 . S
C1759 C1760 1.414 . S
C1759 C1762 1.499 . S
C1760 H1734 0.950 . S
C1760 C1759 1.414 . S
C1760 C1761 1.374 . S
C1761 H1735 0.950 . S
C1761 C1757 1.385 . S
C1761 C1760 1.374 . S
C1762 C1759 1.499 . S
C1762 C1763 1.373 . S
C1762 C1764 1.389 . S
C1763 H1736 0.950 . S
C1763 C1749 1.377 . S
C1763 C1762 1.373 . S
C1764 C1748 1.377 . S
C1764 C1762 1.389 . S
C1764 C1765 1.524 . S
C1765 C1764 1.524 . S
C1765 C1766 1.397 . S
C1765 C1770 1.363 . S
C1766 H1737 0.950 . S
C1766 C1765 1.397 . S
C1766 C1767 1.334 . S
C1767 H1738 0.950 . S
C1767 C1766 1.334 . S
C1767 C1768 1.287 . S
C1768 C1767 1.287 . S
C1768 C1769 1.524 . S
C1768 H1771 0.999 . S
C1769 H1739 0.950 . S
C1769 C1768 1.524 . S
C1769 C1770 1.415 . S
C1770 H1740 0.950 . S
C1770 C1765 1.363 . S
C1770 C1769 1.415 . S
H1771 C1768 0.999 . S
H1772 C1753 0.913 . S
H1773 C1791 0.951 . S
H1774 C1793 0.951 . S
H1775 C1795 0.950 . S
H1776 C1796 0.950 . S
H1777 C1798 0.950 1_565 S
H1778 C1801 0.950 . S
H1779 C1802 0.950 . S
H1780 C1804 0.950 . S
H1781 C1805 0.950 . S
H1782 C1806 0.951 . S
H1783 C1808 0.951 . S
H1784 C1810 0.950 . S
H1785 C1811 0.950 . S
H1786 C1813 0.950 . S
H1787 C1816 0.950 . S
H1788 C1817 0.950 . S
H1789 C1819 0.950 . S
H1790 C1820 0.950 . S
C1791 H1773 0.951 . S
C1791 C1792 1.366 . S
C1791 C1793 1.388 . S
C1792 C1791 1.366 . S
C1792 C1796 1.385 . S
C1793 H1774 0.951 . S
C1793 C1791 1.388 . S
C1793 C1794 1.366 . S
C1794 C1793 1.366 . S
C1794 C1795 1.414 . S
C1794 C1797 1.499 . S
C1795 H1775 0.950 . S
C1795 C1794 1.414 . S
C1795 C1796 1.374 . S
C1796 H1776 0.950 . S
C1796 C1792 1.385 . S
C1796 C1795 1.374 . S
C1797 C1794 1.499 . S
C1797 C1798 1.373 1_565 S
C1797 C1799 1.389 1_565 S
C1798 H1777 0.950 1_545 S
C1798 C1797 1.373 1_545 S
C1798 C1814 1.377 . S
C1799 C1797 1.389 1_545 S
C1799 C1800 1.524 . S
C1799 C1813 1.377 . S
C1800 C1799 1.524 . S
C1800 C1801 1.397 1_545 S
C1800 C1805 1.363 . S
C1801 H1778 0.950 . S
C1801 C1800 1.397 1_565 S
C1801 C1802 1.334 . S
C1802 H1779 0.950 . S
C1802 C1801 1.334 . S
C1802 C1803 1.287 . S
C1803 C1802 1.287 . S
C1803 C1804 1.524 1_565 S
C1803 H1822 0.913 . S
C1804 H1780 0.950 . S
C1804 C1803 1.524 1_545 S
C1804 C1805 1.415 . S
C1805 H1781 0.950 . S
C1805 C1800 1.363 . S
C1805 C1804 1.415 . S
C1806 H1782 0.951 . S
C1806 C1807 1.366 . S
C1806 C1808 1.388 . S
C1807 C1806 1.366 . S
C1807 C1811 1.385 . S
C1808 H1783 0.951 . S
C1808 C1806 1.388 . S
C1808 C1809 1.366 . S
C1809 C1808 1.366 . S
C1809 C1810 1.414 . S
C1809 C1812 1.499 . S
C1810 H1784 0.950 . S
C1810 C1809 1.414 . S
C1810 C1811 1.374 . S
C1811 H1785 0.950 . S
C1811 C1807 1.385 . S
C1811 C1810 1.374 . S
C1812 C1809 1.499 . S
C1812 C1813 1.373 . S
C1812 C1814 1.389 . S
C1813 H1786 0.950 . S
C1813 C1799 1.377 . S
C1813 C1812 1.373 . S
C1814 C1798 1.377 . S
C1814 C1812 1.389 . S
C1814 C1815 1.524 . S
C1815 C1814 1.524 . S
C1815 C1816 1.397 . S
C1815 C1820 1.363 . S
C1816 H1787 0.950 . S
C1816 C1815 1.397 . S
C1816 C1817 1.334 . S
C1817 H1788 0.950 . S
C1817 C1816 1.334 . S
C1817 C1818 1.287 . S
C1818 C1817 1.287 . S
C1818 C1819 1.524 . S
C1818 H1821 0.999 . S
C1819 H1789 0.950 . S
C1819 C1818 1.524 . S
C1819 C1820 1.415 . S
C1820 H1790 0.950 . S
C1820 C1815 1.363 . S
C1820 C1819 1.415 . S
H1821 C1818 0.999 . S
H1822 C1803 0.913 . S
H1823 C1841 0.951 . S
H1824 C1843 0.951 . S
H1825 C1845 0.950 . S
H1826 C1846 0.950 . S
H1827 C1848 0.950 . S
H1828 C1851 0.950 . S
H1829 C1852 0.950 . S
H1830 C1854 0.950 . S
H1831 C1855 0.950 . S
H1832 C1856 0.951 . S
H1833 C1858 0.951 . S
H1834 C1860 0.950 . S
H1835 C1861 0.950 . S
H1836 C1863 0.950 . S
H1837 C1866 0.950 . S
H1838 C1867 0.950 . S
H1839 C1869 0.950 . S
H1840 C1870 0.950 . S
C1841 H1823 0.951 . S
C1841 C1842 1.366 . S
C1841 C1843 1.388 . S
C1842 C1841 1.366 . S
C1842 C1846 1.385 . S
C1843 H1824 0.951 . S
C1843 C1841 1.388 . S
C1843 C1844 1.366 . S
C1844 C1843 1.366 . S
C1844 C1845 1.414 . S
C1844 C1847 1.499 . S
C1845 H1825 0.950 . S
C1845 C1844 1.414 . S
C1845 C1846 1.374 . S
C1846 H1826 0.950 . S
C1846 C1842 1.385 . S
C1846 C1845 1.374 . S
C1847 C1844 1.499 . S
C1847 C1848 1.373 1_455 S
C1847 C1849 1.389 1_455 S
C1848 H1827 0.950 . S
C1848 C1847 1.373 1_655 S
C1848 C1864 1.377 . S
C1849 C1847 1.389 1_655 S
C1849 C1850 1.524 1_655 S
C1849 C1863 1.377 . S
C1850 C1849 1.524 1_455 S
C1850 C1851 1.397 . S
C1850 C1855 1.363 . S
C1851 H1828 0.950 . S
C1851 C1850 1.397 . S
C1851 C1852 1.334 . S
C1852 H1829 0.950 . S
C1852 C1851 1.334 . S
C1852 C1853 1.287 . S
C1853 C1852 1.287 . S
C1853 C1854 1.524 . S
C1853 H1872 0.913 . S
C1854 H1830 0.950 . S
C1854 C1853 1.524 . S
C1854 C1855 1.415 . S
C1855 H1831 0.950 . S
C1855 C1850 1.363 . S
C1855 C1854 1.415 . S
C1856 H1832 0.951 . S
C1856 C1857 1.366 . S
C1856 C1858 1.388 . S
C1857 C1856 1.366 . S
C1857 C1861 1.385 . S
C1858 H1833 0.951 . S
C1858 C1856 1.388 . S
C1858 C1859 1.366 . S
C1859 C1858 1.366 . S
C1859 C1860 1.414 . S
C1859 C1862 1.499 . S
C1860 H1834 0.950 . S
C1860 C1859 1.414 . S
C1860 C1861 1.374 . S
C1861 H1835 0.950 . S
C1861 C1857 1.385 . S
C1861 C1860 1.374 . S
C1862 C1859 1.499 . S
C1862 C1863 1.373 . S
C1862 C1864 1.389 . S
C1863 H1836 0.950 . S
C1863 C1849 1.377 . S
C1863 C1862 1.373 . S
C1864 C1848 1.377 . S
C1864 C1862 1.389 . S
C1864 C1865 1.524 . S
C1865 C1864 1.524 . S
C1865 C1866 1.397 . S
C1865 C1870 1.363 . S
C1866 H1837 0.950 . S
C1866 C1865 1.397 . S
C1866 C1867 1.334 . S
C1867 H1838 0.950 . S
C1867 C1866 1.334 . S
C1867 C1868 1.287 . S
C1868 C1867 1.287 . S
C1868 C1869 1.524 . S
C1868 H1871 0.999 . S
C1869 H1839 0.950 . S
C1869 C1868 1.524 . S
C1869 C1870 1.415 . S
C1870 H1840 0.950 . S
C1870 C1865 1.363 . S
C1870 C1869 1.415 . S
H1871 C1868 0.999 . S
H1872 C1853 0.913 . S
H1873 C1891 0.951 . S
H1874 C1893 0.951 . S
H1875 C1895 0.950 . S
H1876 C1896 0.950 . S
H1877 C1898 0.950 . S
H1878 C1901 0.950 . S
H1879 C1902 0.950 . S
H1880 C1904 0.950 . S
H1881 C1905 0.950 . S
H1882 C1906 0.951 . S
H1883 C1908 0.951 . S
H1884 C1910 0.950 . S
H1885 C1911 0.950 . S
H1886 C1913 0.950 . S
H1887 C1916 0.950 . S
H1888 C1917 0.950 . S
H1889 C1919 0.950 . S
H1890 C1920 0.950 . S
C1891 H1873 0.951 . S
C1891 C1892 1.366 . S
C1891 C1893 1.388 . S
C1892 C1891 1.366 . S
C1892 C1896 1.385 . S
C1893 H1874 0.951 . S
C1893 C1891 1.388 . S
C1893 C1894 1.366 . S
C1894 C1893 1.366 . S
C1894 C1895 1.414 . S
C1894 C1897 1.499 . S
C1895 H1875 0.950 . S
C1895 C1894 1.414 . S
C1895 C1896 1.374 . S
C1896 H1876 0.950 . S
C1896 C1892 1.385 . S
C1896 C1895 1.374 . S
C1897 C1894 1.499 . S
C1897 C1898 1.373 . S
C1897 C1899 1.389 . S
C1898 H1877 0.950 . S
C1898 C1897 1.373 . S
C1898 C1914 1.377 . S
C1899 C1897 1.389 . S
C1899 C1900 1.524 . S
C1899 C1913 1.377 . S
C1900 C1899 1.524 . S
C1900 C1901 1.397 . S
C1900 C1905 1.363 . S
C1901 H1878 0.950 . S
C1901 C1900 1.397 . S
C1901 C1902 1.334 . S
C1902 H1879 0.950 . S
C1902 C1901 1.334 . S
C1902 C1903 1.287 . S
C1903 C1902 1.287 . S
C1903 C1904 1.524 . S
C1903 H1922 0.913 . S
C1904 H1880 0.950 . S
C1904 C1903 1.524 . S
C1904 C1905 1.415 . S
C1905 H1881 0.950 . S
C1905 C1900 1.363 . S
C1905 C1904 1.415 . S
C1906 H1882 0.951 . S
C1906 C1907 1.366 . S
C1906 C1908 1.388 . S
C1907 C1906 1.366 . S
C1907 C1911 1.385 . S
C1908 H1883 0.951 . S
C1908 C1906 1.388 . S
C1908 C1909 1.366 . S
C1909 C1908 1.366 . S
C1909 C1910 1.414 . S
C1909 C1912 1.499 . S
C1910 H1884 0.950 . S
C1910 C1909 1.414 . S
C1910 C1911 1.374 . S
C1911 H1885 0.950 . S
C1911 C1907 1.385 . S
C1911 C1910 1.374 . S
C1912 C1909 1.499 . S
C1912 C1913 1.373 . S
C1912 C1914 1.389 . S
C1913 H1886 0.950 . S
C1913 C1899 1.377 . S
C1913 C1912 1.373 . S
C1914 C1898 1.377 . S
C1914 C1912 1.389 . S
C1914 C1915 1.524 . S
C1915 C1914 1.524 . S
C1915 C1916 1.397 . S
C1915 C1920 1.363 . S
C1916 H1887 0.950 . S
C1916 C1915 1.397 . S
C1916 C1917 1.334 . S
C1917 H1888 0.950 . S
C1917 C1916 1.334 . S
C1917 C1918 1.287 . S
C1918 C1917 1.287 . S
C1918 C1919 1.524 . S
C1918 H1921 0.999 . S
C1919 H1889 0.950 . S
C1919 C1918 1.524 . S
C1919 C1920 1.415 . S
C1920 H1890 0.950 . S
C1920 C1915 1.363 . S
C1920 C1919 1.415 . S
H1921 C1918 0.999 . S
H1922 C1903 0.913 . S
H1923 C1941 0.951 . S
H1924 C1943 0.951 . S
H1925 C1945 0.950 . S
H1926 C1946 0.950 . S
H1927 C1948 0.950 . S
H1928 C1951 0.950 . S
H1929 C1952 0.950 . S
H1930 C1954 0.950 . S
H1931 C1955 0.950 . S
H1932 C1956 0.951 . S
H1933 C1958 0.951 . S
H1934 C1960 0.950 . S
H1935 C1961 0.950 . S
H1936 C1963 0.950 . S
H1937 C1966 0.950 . S
H1938 C1967 0.950 . S
H1939 C1969 0.950 . S
H1940 C1970 0.914 1_455 S
C1941 H1923 0.951 . S
C1941 C1942 1.366 . S
C1941 C1943 1.388 . S
C1942 C1941 1.366 . S
C1942 C1946 1.385 . S
C1943 H1924 0.951 . S
C1943 C1941 1.388 . S
C1943 C1944 1.366 . S
C1944 C1943 1.366 . S
C1944 C1945 1.414 . S
C1944 C1947 1.499 . S
C1945 H1925 0.950 . S
C1945 C1944 1.414 . S
C1945 C1946 1.374 . S
C1946 H1926 0.950 . S
C1946 C1942 1.385 . S
C1946 C1945 1.374 . S
C1947 C1944 1.499 . S
C1947 C1948 1.373 . S
C1947 C1949 1.389 . S
C1948 H1927 0.950 . S
C1948 C1947 1.373 . S
C1948 C1964 1.377 . S
C1949 C1947 1.389 . S
C1949 C1950 1.524 . S
C1949 C1963 1.377 . S
C1950 C1949 1.524 . S
C1950 C1951 1.397 . S
C1950 C1955 1.363 . S
C1951 H1928 0.950 . S
C1951 C1950 1.397 . S
C1951 C1952 1.334 . S
C1952 H1929 0.950 . S
C1952 C1951 1.334 . S
C1952 C1953 1.287 . S
C1953 C1952 1.287 . S
C1953 C1954 1.524 . S
C1953 H1972 0.913 . S
C1954 H1930 0.950 . S
C1954 C1953 1.524 . S
C1954 C1955 1.415 . S
C1955 H1931 0.950 . S
C1955 C1950 1.363 . S
C1955 C1954 1.415 . S
C1956 H1932 0.951 . S
C1956 C1957 1.366 . S
C1956 C1958 1.388 . S
C1957 C1956 1.366 . S
C1957 C1961 1.385 . S
C1958 H1933 0.951 . S
C1958 C1956 1.388 . S
C1958 C1959 1.366 . S
C1959 C1958 1.366 . S
C1959 C1960 1.414 . S
C1959 C1962 1.499 . S
C1960 H1934 0.950 . S
C1960 C1959 1.414 . S
C1960 C1961 1.374 . S
C1961 H1935 0.950 . S
C1961 C1957 1.385 . S
C1961 C1960 1.374 . S
C1962 C1959 1.499 . S
C1962 C1963 1.373 1_655 S
C1962 C1964 1.389 1_655 S
C1963 H1936 0.950 . S
C1963 C1949 1.377 . S
C1963 C1962 1.373 1_455 S
C1964 C1948 1.377 . S
C1964 C1962 1.389 1_455 S
C1964 C1965 1.524 1_455 S
C1965 C1964 1.524 1_655 S
C1965 C1966 1.397 . S
C1965 C1970 1.377 . S
C1966 H1937 0.950 . S
C1966 C1965 1.397 . S
C1966 C1967 1.334 . S
C1967 H1938 0.950 . S
C1967 C1966 1.334 . S
C1967 C1968 1.287 . S
C1968 C1967 1.287 . S
C1968 C1969 1.524 . S
C1968 H1971 0.999 . S
C1969 H1939 0.950 . S
C1969 C1968 1.524 . S
C1969 C1970 1.437 . S
C1970 H1940 0.914 1_655 S
C1970 C1965 1.377 . S
C1970 C1969 1.437 . S
H1971 C1968 0.999 . S
H1972 C1953 0.913 . S
H1973 C1991 0.951 . S
H1974 C1993 0.951 . S
H1975 C1995 0.950 . S
H1976 C1996 0.950 . S
H1977 C1998 0.950 . S
H1978 C2001 0.950 . S
H1979 C2002 0.950 . S
H1980 C2004 0.950 . S
H1981 C2005 0.950 . S
H1982 C2006 0.951 . S
H1983 C2008 0.951 . S
H1984 C2010 0.950 . S
H1985 C2011 0.950 . S
H1986 C2013 0.950 . S
H1987 C2016 0.950 . S
H1988 C2017 0.950 . S
H1989 C2019 0.950 . S
H1990 C2020 0.950 . S
C1991 H1973 0.951 . S
C1991 C1992 1.366 . S
C1991 C1993 1.388 . S
C1992 C1991 1.366 . S
C1992 C1996 1.385 . S
C1993 H1974 0.951 . S
C1993 C1991 1.388 . S
C1993 C1994 1.366 . S
C1994 C1993 1.366 . S
C1994 C1995 1.414 . S
C1994 C1997 1.499 . S
C1995 H1975 0.950 . S
C1995 C1994 1.414 . S
C1995 C1996 1.374 . S
C1996 H1976 0.950 . S
C1996 C1992 1.385 . S
C1996 C1995 1.374 . S
C1997 C1994 1.499 . S
C1997 C1998 1.373 . S
C1997 C1999 1.389 . S
C1998 H1977 0.950 . S
C1998 C1997 1.373 . S
C1998 C2014 1.377 . S
C1999 C1997 1.389 . S
C1999 C2000 1.524 . S
C1999 C2013 1.377 . S
C2000 C1999 1.524 . S
C2000 C2001 1.397 . S
C2000 C2005 1.363 . S
C2001 H1978 0.950 . S
C2001 C2000 1.397 . S
C2001 C2002 1.334 . S
C2002 H1979 0.950 . S
C2002 C2001 1.334 . S
C2002 C2003 1.287 . S
C2003 C2002 1.287 . S
C2003 C2004 1.524 . S
C2003 H2022 0.913 . S
C2004 H1980 0.950 . S
C2004 C2003 1.524 . S
C2004 C2005 1.415 . S
C2005 H1981 0.950 . S
C2005 C2000 1.363 . S
C2005 C2004 1.415 . S
C2006 H1982 0.951 . S
C2006 C2007 1.366 . S
C2006 C2008 1.388 . S
C2007 C2006 1.366 . S
C2007 C2011 1.385 . S
C2008 H1983 0.951 . S
C2008 C2006 1.388 . S
C2008 C2009 1.366 . S
C2009 C2008 1.366 . S
C2009 C2010 1.414 . S
C2009 C2012 1.499 . S
C2010 H1984 0.950 . S
C2010 C2009 1.414 . S
C2010 C2011 1.374 . S
C2011 H1985 0.950 . S
C2011 C2007 1.385 . S
C2011 C2010 1.374 . S
C2012 C2009 1.499 . S
C2012 C2013 1.373 . S
C2012 C2014 1.389 . S
C2013 H1986 0.950 . S
C2013 C1999 1.377 . S
C2013 C2012 1.373 . S
C2014 C1998 1.377 . S
C2014 C2012 1.389 . S
C2014 C2015 1.524 . S
C2015 C2014 1.524 . S
C2015 C2016 1.397 . S
C2015 C2020 1.363 . S
C2016 H1987 0.950 . S
C2016 C2015 1.397 . S
C2016 C2017 1.334 . S
C2017 H1988 0.950 . S
C2017 C2016 1.334 . S
C2017 C2018 1.287 . S
C2018 C2017 1.287 . S
C2018 C2019 1.524 . S
C2018 H2021 0.999 . S
C2019 H1989 0.950 . S
C2019 C2018 1.524 . S
C2019 C2020 1.415 . S
C2020 H1990 0.950 . S
C2020 C2015 1.363 . S
C2020 C2019 1.415 . S
H2021 C2018 0.999 . S
H2022 C2003 0.913 . S
H2023 C2041 0.951 . S
H2024 C2043 0.951 . S
H2025 C2045 0.950 . S
H2026 C2046 0.950 . S
H2027 C2048 0.950 . S
H2028 C2051 0.950 . S
H2029 C2052 0.950 . S
H2030 C2054 0.950 1_545 S
H2031 C2055 0.950 . S
H2032 C2056 0.951 . S
H2033 C2058 0.951 . S
H2034 C2060 0.950 . S
H2035 C2061 0.950 . S
H2036 C2063 0.950 . S
H2037 C2066 0.950 . S
H2038 C2067 0.950 . S
H2039 C2069 0.950 . S
H2040 C2070 0.950 . S
C2041 H2023 0.951 . S
C2041 C2042 1.366 . S
C2041 C2043 1.388 . S
C2042 C2041 1.366 . S
C2042 C2046 1.385 . S
C2043 H2024 0.951 . S
C2043 C2041 1.388 . S
C2043 C2044 1.366 . S
C2044 C2043 1.366 . S
C2044 C2045 1.414 . S
C2044 C2047 1.499 . S
C2045 H2025 0.950 . S
C2045 C2044 1.414 . S
C2045 C2046 1.374 . S
C2046 H2026 0.950 . S
C2046 C2042 1.385 . S
C2046 C2045 1.374 . S
C2047 C2044 1.499 . S
C2047 C2048 1.373 . S
C2047 C2049 1.386 1_565 S
C2048 H2027 0.950 . S
C2048 C2047 1.373 . S
C2048 C2064 1.377 1_565 S
C2049 C2047 1.386 1_545 S
C2049 C2050 1.516 1_545 S
C2049 C2063 1.388 . S
C2050 C2049 1.516 1_565 S
C2050 C2051 1.397 . S
C2050 C2055 1.363 1_565 S
C2051 H2028 0.950 . S
C2051 C2050 1.397 . S
C2051 C2052 1.334 . S
C2052 H2029 0.950 . S
C2052 C2051 1.334 . S
C2052 C2053 1.287 . S
C2053 C2052 1.287 . S
C2053 C2054 1.524 . S
C2053 H2072 0.913 . S
C2054 H2030 0.950 1_565 S
C2054 C2053 1.524 . S
C2054 C2055 1.415 1_565 S
C2055 H2031 0.950 . S
C2055 C2050 1.363 1_545 S
C2055 C2054 1.415 1_545 S
C2056 H2032 0.951 . S
C2056 C2057 1.366 . S
C2056 C2058 1.388 . S
C2057 C2056 1.366 . S
C2057 C2061 1.385 . S
C2058 H2033 0.951 . S
C2058 C2056 1.388 . S
C2058 C2059 1.366 . S
C2059 C2058 1.366 . S
C2059 C2060 1.414 . S
C2059 C2062 1.499 . S
C2060 H2034 0.950 . S
C2060 C2059 1.414 . S
C2060 C2061 1.374 . S
C2061 H2035 0.950 . S
C2061 C2057 1.385 . S
C2061 C2060 1.374 . S
C2062 C2059 1.499 . S
C2062 C2063 1.373 . S
C2062 C2064 1.389 . S
C2063 H2036 0.950 . S
C2063 C2049 1.388 . S
C2063 C2062 1.373 . S
C2064 C2048 1.377 1_545 S
C2064 C2062 1.389 . S
C2064 C2065 1.524 . S
C2065 C2064 1.524 . S
C2065 C2066 1.397 . S
C2065 C2070 1.363 . S
C2066 H2037 0.950 . S
C2066 C2065 1.397 . S
C2066 C2067 1.334 . S
C2067 H2038 0.950 . S
C2067 C2066 1.334 . S
C2067 C2068 1.287 . S
C2068 C2067 1.287 . S
C2068 C2069 1.524 . S
C2068 H2071 0.999 . S
C2069 H2039 0.950 . S
C2069 C2068 1.524 . S
C2069 C2070 1.415 . S
C2070 H2040 0.950 . S
C2070 C2065 1.363 . S
C2070 C2069 1.415 . S
H2071 C2068 0.999 . S
H2072 C2053 0.913 . S
H2073 C2091 0.951 . S
H2074 C2093 0.951 . S
H2075 C2095 0.950 . S
H2076 C2096 0.950 . S
H2077 C2098 0.950 . S
H2078 C2101 0.950 . S
H2079 C2102 0.950 . S
H2080 C2104 0.950 . S
H2081 C2105 0.950 . S
H2082 C2106 0.951 . S
H2083 C2108 0.951 . S
H2084 C2110 0.950 . S
H2085 C2111 0.950 . S
H2086 C2113 0.950 . S
H2087 C2116 0.950 . S
H2088 C2117 0.950 . S
H2089 C2119 0.950 . S
H2090 C2120 0.950 . S
C2091 H2073 0.951 . S
C2091 C2092 1.366 . S
C2091 C2093 1.388 . S
C2092 C2091 1.366 . S
C2092 C2096 1.385 . S
C2093 H2074 0.951 . S
C2093 C2091 1.388 . S
C2093 C2094 1.366 . S
C2094 C2093 1.366 . S
C2094 C2095 1.414 . S
C2094 C2097 1.499 . S
C2095 H2075 0.950 . S
C2095 C2094 1.414 . S
C2095 C2096 1.374 . S
C2096 H2076 0.950 . S
C2096 C2092 1.385 . S
C2096 C2095 1.374 . S
C2097 C2094 1.499 . S
C2097 C2098 1.373 . S
C2097 C2099 1.389 . S
C2098 H2077 0.950 . S
C2098 C2097 1.373 . S
C2098 C2114 1.377 . S
C2099 C2097 1.389 . S
C2099 C2100 1.524 . S
C2099 C2113 1.377 . S
C2100 C2099 1.524 . S
C2100 C2101 1.397 . S
C2100 C2105 1.363 . S
C2101 H2078 0.950 . S
C2101 C2100 1.397 . S
C2101 C2102 1.334 . S
C2102 H2079 0.950 . S
C2102 C2101 1.334 . S
C2102 C2103 1.287 . S
C2103 C2102 1.287 . S
C2103 C2104 1.524 . S
C2103 H2122 0.913 . S
C2104 H2080 0.950 . S
C2104 C2103 1.524 . S
C2104 C2105 1.415 . S
C2105 H2081 0.950 . S
C2105 C2100 1.363 . S
C2105 C2104 1.415 . S
C2106 H2082 0.951 . S
C2106 C2107 1.366 . S
C2106 C2108 1.388 . S
C2107 C2106 1.366 . S
C2107 C2111 1.385 . S
C2108 H2083 0.951 . S
C2108 C2106 1.388 . S
C2108 C2109 1.366 . S
C2109 C2108 1.366 . S
C2109 C2110 1.414 . S
C2109 C2112 1.499 . S
C2110 H2084 0.950 . S
C2110 C2109 1.414 . S
C2110 C2111 1.374 . S
C2111 H2085 0.950 . S
C2111 C2107 1.385 . S
C2111 C2110 1.374 . S
C2112 C2109 1.499 . S
C2112 C2113 1.373 . S
C2112 C2114 1.389 . S
C2113 H2086 0.950 . S
C2113 C2099 1.377 . S
C2113 C2112 1.373 . S
C2114 C2098 1.377 . S
C2114 C2112 1.389 . S
C2114 C2115 1.524 . S
C2115 C2114 1.524 . S
C2115 C2116 1.397 . S
C2115 C2120 1.363 . S
C2116 H2087 0.950 . S
C2116 C2115 1.397 . S
C2116 C2117 1.334 . S
C2117 H2088 0.950 . S
C2117 C2116 1.334 . S
C2117 C2118 1.287 . S
C2118 C2117 1.287 . S
C2118 C2119 1.524 . S
C2118 H2121 0.999 . S
C2119 H2089 0.950 . S
C2119 C2118 1.524 . S
C2119 C2120 1.415 . S
C2120 H2090 0.950 . S
C2120 C2115 1.363 . S
C2120 C2119 1.415 . S
H2121 C2118 0.999 . S
H2122 C2103 0.913 . S
H2123 C2141 0.951 . S
H2124 C2143 0.951 . S
H2125 C2145 0.950 . S
H2126 C2146 0.950 . S
H2127 C2148 0.950 . S
H2128 C2151 0.950 . S
H2129 C2152 0.950 . S
H2130 C2154 0.950 . S
H2131 C2155 0.950 . S
H2132 C2156 0.951 . S
H2133 C2158 0.951 . S
H2134 C2160 0.950 . S
H2135 C2161 0.950 . S
H2136 C2163 0.950 . S
H2137 C2166 0.950 . S
H2138 C2167 0.950 . S
H2139 C2169 0.950 . S
H2140 C2170 0.950 . S
C2141 H2123 0.951 . S
C2141 C2142 1.366 . S
C2141 C2143 1.388 . S
C2142 C2141 1.366 . S
C2142 C2146 1.385 . S
C2143 H2124 0.951 . S
C2143 C2141 1.388 . S
C2143 C2144 1.366 . S
C2144 C2143 1.366 . S
C2144 C2145 1.414 . S
C2144 C2147 1.499 . S
C2145 H2125 0.950 . S
C2145 C2144 1.414 . S
C2145 C2146 1.374 . S
C2146 H2126 0.950 . S
C2146 C2142 1.385 . S
C2146 C2145 1.374 . S
C2147 C2144 1.499 . S
C2147 C2148 1.373 . S
C2147 C2149 1.389 . S
C2148 H2127 0.950 . S
C2148 C2147 1.373 . S
C2148 C2164 1.377 . S
C2149 C2147 1.389 . S
C2149 C2150 1.524 . S
C2149 C2163 1.377 . S
C2150 C2149 1.524 . S
C2150 C2151 1.397 . S
C2150 C2155 1.363 . S
C2151 H2128 0.950 . S
C2151 C2150 1.397 . S
C2151 C2152 1.334 . S
C2152 H2129 0.950 . S
C2152 C2151 1.334 . S
C2152 C2153 1.287 . S
C2153 C2152 1.287 . S
C2153 C2154 1.524 . S
C2153 H2172 0.913 . S
C2154 H2130 0.950 . S
C2154 C2153 1.524 . S
C2154 C2155 1.415 . S
C2155 H2131 0.950 . S
C2155 C2150 1.363 . S
C2155 C2154 1.415 . S
C2156 H2132 0.951 . S
C2156 C2157 1.366 . S
C2156 C2158 1.388 . S
C2157 C2156 1.366 . S
C2157 C2161 1.385 . S
C2158 H2133 0.951 . S
C2158 C2156 1.388 . S
C2158 C2159 1.366 . S
C2159 C2158 1.366 . S
C2159 C2160 1.414 . S
C2159 C2162 1.499 . S
C2160 H2134 0.950 . S
C2160 C2159 1.414 . S
C2160 C2161 1.374 . S
C2161 H2135 0.950 . S
C2161 C2157 1.385 . S
C2161 C2160 1.374 . S
C2162 C2159 1.499 . S
C2162 C2163 1.373 . S
C2162 C2164 1.389 . S
C2163 H2136 0.950 . S
C2163 C2149 1.377 . S
C2163 C2162 1.373 . S
C2164 C2148 1.377 . S
C2164 C2162 1.389 . S
C2164 C2165 1.524 . S
C2165 C2164 1.524 . S
C2165 C2166 1.397 . S
C2165 C2170 1.363 . S
C2166 H2137 0.950 . S
C2166 C2165 1.397 . S
C2166 C2167 1.334 . S
C2167 H2138 0.950 . S
C2167 C2166 1.334 . S
C2167 C2168 1.287 . S
C2168 C2167 1.287 . S
C2168 C2169 1.524 . S
C2168 H2171 0.999 . S
C2169 H2139 0.950 . S
C2169 C2168 1.524 . S
C2169 C2170 1.415 . S
C2170 H2140 0.950 . S
C2170 C2165 1.363 . S
C2170 C2169 1.415 . S
H2171 C2168 0.999 . S
H2172 C2153 0.913 . S
H2173 C2191 0.951 . S
H2174 C2193 0.951 . S
H2175 C2195 0.950 . S
H2176 C2196 0.950 . S
H2177 C2198 0.950 . S
H2178 C2201 0.950 . S
H2179 C2202 0.950 . S
H2180 C2204 0.950 . S
H2181 C2205 0.950 . S
H2182 C2206 0.951 . S
H2183 C2208 0.951 . S
H2184 C2210 0.950 . S
H2185 C2211 0.950 . S
H2186 C2213 0.950 . S
H2187 C2216 0.950 . S
H2188 C2217 0.950 . S
H2189 C2219 0.950 . S
H2190 C2220 0.950 . S
C2191 H2173 0.951 . S
C2191 C2192 1.366 . S
C2191 C2193 1.388 . S
C2192 C2191 1.366 . S
C2192 C2196 1.385 . S
C2193 H2174 0.951 . S
C2193 C2191 1.388 . S
C2193 C2194 1.366 . S
C2194 C2193 1.366 . S
C2194 C2195 1.414 . S
C2194 C2197 1.499 . S
C2195 H2175 0.950 . S
C2195 C2194 1.414 . S
C2195 C2196 1.374 . S
C2196 H2176 0.950 . S
C2196 C2192 1.385 . S
C2196 C2195 1.374 . S
C2197 C2194 1.499 . S
C2197 C2198 1.373 . S
C2197 C2199 1.389 . S
C2198 H2177 0.950 . S
C2198 C2197 1.373 . S
C2198 C2214 1.377 . S
C2199 C2197 1.389 . S
C2199 C2200 1.524 . S
C2199 C2213 1.377 . S
C2200 C2199 1.524 . S
C2200 C2201 1.397 . S
C2200 C2205 1.363 . S
C2201 H2178 0.950 . S
C2201 C2200 1.397 . S
C2201 C2202 1.334 . S
C2202 H2179 0.950 . S
C2202 C2201 1.334 . S
C2202 C2203 1.287 . S
C2203 C2202 1.287 . S
C2203 C2204 1.524 . S
C2203 H2222 0.913 . S
C2204 H2180 0.950 . S
C2204 C2203 1.524 . S
C2204 C2205 1.415 . S
C2205 H2181 0.950 . S
C2205 C2200 1.363 . S
C2205 C2204 1.415 . S
C2206 H2182 0.951 . S
C2206 C2207 1.366 . S
C2206 C2208 1.388 . S
C2207 C2206 1.366 . S
C2207 C2211 1.385 . S
C2208 H2183 0.951 . S
C2208 C2206 1.388 . S
C2208 C2209 1.366 . S
C2209 C2208 1.366 . S
C2209 C2210 1.414 . S
C2209 C2212 1.499 . S
C2210 H2184 0.950 . S
C2210 C2209 1.414 . S
C2210 C2211 1.374 . S
C2211 H2185 0.950 . S
C2211 C2207 1.385 . S
C2211 C2210 1.374 . S
C2212 C2209 1.499 . S
C2212 C2213 1.373 . S
C2212 C2214 1.389 . S
C2213 H2186 0.950 . S
C2213 C2199 1.377 . S
C2213 C2212 1.373 . S
C2214 C2198 1.377 . S
C2214 C2212 1.389 . S
C2214 C2215 1.524 . S
C2215 C2214 1.524 . S
C2215 C2216 1.397 . S
C2215 C2220 1.363 . S
C2216 H2187 0.950 . S
C2216 C2215 1.397 . S
C2216 C2217 1.334 . S
C2217 H2188 0.950 . S
C2217 C2216 1.334 . S
C2217 C2218 1.287 . S
C2218 C2217 1.287 . S
C2218 C2219 1.524 . S
C2218 H2221 0.999 . S
C2219 H2189 0.950 . S
C2219 C2218 1.524 . S
C2219 C2220 1.415 . S
C2220 H2190 0.950 . S
C2220 C2215 1.363 . S
C2220 C2219 1.415 . S
H2221 C2218 0.999 . S
H2222 C2203 0.913 . S
H2223 C2241 0.951 . S
H2224 C2243 0.951 . S
H2225 C2245 0.950 . S
H2226 C2246 0.950 . S
H2227 C2248 0.950 . S
H2228 C2251 0.950 . S
H2229 C2252 0.950 . S
H2230 C2254 0.950 . S
H2231 C2255 0.950 . S
H2232 C2256 0.951 . S
H2233 C2258 0.951 . S
H2234 C2260 0.950 . S
H2235 C2261 0.950 . S
H2236 C2263 0.950 . S
H2237 C2266 0.948 . S
H2238 C2267 0.950 . S
H2239 C2269 0.950 . S
H2240 C2270 0.950 . S
C2241 H2223 0.951 . S
C2241 C2242 1.366 . S
C2241 C2243 1.388 . S
C2242 C2241 1.366 . S
C2242 C2246 1.385 . S
C2243 H2224 0.951 . S
C2243 C2241 1.388 . S
C2243 C2244 1.366 . S
C2244 C2243 1.366 . S
C2244 C2245 1.414 . S
C2244 C2247 1.499 . S
C2245 H2225 0.950 . S
C2245 C2244 1.414 . S
C2245 C2246 1.374 . S
C2246 H2226 0.950 . S
C2246 C2242 1.385 . S
C2246 C2245 1.374 . S
C2247 C2244 1.499 . S
C2247 C2248 1.373 . S
C2247 C2249 1.389 . S
C2248 H2227 0.950 . S
C2248 C2247 1.373 . S
C2248 C2264 1.377 . S
C2249 C2247 1.389 . S
C2249 C2250 1.524 . S
C2249 C2263 1.377 . S
C2250 C2249 1.524 . S
C2250 C2251 1.397 . S
C2250 C2255 1.363 . S
C2251 H2228 0.950 . S
C2251 C2250 1.397 . S
C2251 C2252 1.334 . S
C2252 H2229 0.950 . S
C2252 C2251 1.334 . S
C2252 C2253 1.287 . S
C2253 C2252 1.287 . S
C2253 C2254 1.524 . S
C2253 H2272 0.913 . S
C2254 H2230 0.950 . S
C2254 C2253 1.524 . S
C2254 C2255 1.415 . S
C2255 H2231 0.950 . S
C2255 C2250 1.363 . S
C2255 C2254 1.415 . S
C2256 H2232 0.951 . S
C2256 C2257 1.366 . S
C2256 C2258 1.388 . S
C2257 C2256 1.366 . S
C2257 C2261 1.385 . S
C2258 H2233 0.951 . S
C2258 C2256 1.388 . S
C2258 C2259 1.366 . S
C2259 C2258 1.366 . S
C2259 C2260 1.414 . S
C2259 C2262 1.499 . S
C2260 H2234 0.950 . S
C2260 C2259 1.414 . S
C2260 C2261 1.374 . S
C2261 H2235 0.950 . S
C2261 C2257 1.385 . S
C2261 C2260 1.374 . S
C2262 C2259 1.499 . S
C2262 C2263 1.373 . S
C2262 C2264 1.389 . S
C2263 H2236 0.950 . S
C2263 C2249 1.377 . S
C2263 C2262 1.373 . S
C2264 C2248 1.377 . S
C2264 C2262 1.389 . S
C2264 C2265 1.524 . S
C2265 C2264 1.524 . S
C2265 C2266 1.397 . S
C2265 C2270 1.363 . S
C2266 H2237 0.948 . S
C2266 C2265 1.397 . S
C2266 C2267 1.334 1_565 S
C2267 H2238 0.950 . S
C2267 C2266 1.334 1_545 S
C2267 C2268 1.287 . S
C2268 C2267 1.287 . S
C2268 C2269 1.524 1_545 S
C2268 H2271 0.999 . S
C2269 H2239 0.950 . S
C2269 C2268 1.524 1_565 S
C2269 C2270 1.415 . S
C2270 H2240 0.950 . S
C2270 C2265 1.363 . S
C2270 C2269 1.415 . S
H2271 C2268 0.999 . S
H2272 C2253 0.913 . S
H2273 C2291 0.951 . S
H2274 C2293 0.951 . S
H2275 C2295 0.950 . S
H2276 C2296 0.950 . S
H2277 C2298 0.950 . S
H2278 C2301 0.950 . S
H2279 C2302 0.950 . S
H2280 C2304 0.950 . S
H2281 C2305 0.950 . S
H2282 C2306 0.951 1_655 S
H2283 C2308 0.951 . S
H2284 C2310 0.950 . S
H2285 C2311 0.950 . S
H2286 C2313 0.950 . S
H2287 C2316 0.950 . S
H2288 C2317 0.950 . S
H2289 C2319 0.950 . S
H2290 C2320 0.950 1_655 S
C2291 H2273 0.951 . S
C2291 C2292 1.366 . S
C2291 C2293 1.388 . S
C2292 C2291 1.366 . S
C2292 C2296 1.385 . S
C2293 H2274 0.951 . S
C2293 C2291 1.388 . S
C2293 C2294 1.366 . S
C2294 C2293 1.366 . S
C2294 C2295 1.414 . S
C2294 C2297 1.499 . S
C2295 H2275 0.950 . S
C2295 C2294 1.414 . S
C2295 C2296 1.374 . S
C2296 H2276 0.950 . S
C2296 C2292 1.385 . S
C2296 C2295 1.374 . S
C2297 C2294 1.499 . S
C2297 C2298 1.373 . S
C2297 C2299 1.389 . S
C2298 H2277 0.950 . S
C2298 C2297 1.373 . S
C2298 C2314 1.377 . S
C2299 C2297 1.389 . S
C2299 C2300 1.524 . S
C2299 C2313 1.377 . S
C2300 C2299 1.524 . S
C2300 C2301 1.397 . S
C2300 C2305 1.363 . S
C2301 H2278 0.950 . S
C2301 C2300 1.397 . S
C2301 C2302 1.334 . S
C2302 H2279 0.950 . S
C2302 C2301 1.334 . S
C2302 C2303 1.287 . S
C2303 C2302 1.287 . S
C2303 C2304 1.524 . S
C2303 H2322 0.913 . S
C2304 H2280 0.950 . S
C2304 C2303 1.524 . S
C2304 C2305 1.415 . S
C2305 H2281 0.950 . S
C2305 C2300 1.363 . S
C2305 C2304 1.415 . S
C2306 H2282 0.951 1_455 S
C2306 C2307 1.366 . S
C2306 C2308 1.388 . S
C2307 C2306 1.366 . S
C2307 C2311 1.385 . S
C2308 H2283 0.951 . S
C2308 C2306 1.388 . S
C2308 C2309 1.366 . S
C2309 C2308 1.366 . S
C2309 C2310 1.414 . S
C2309 C2312 1.499 . S
C2310 H2284 0.950 . S
C2310 C2309 1.414 . S
C2310 C2311 1.374 . S
C2311 H2285 0.950 . S
C2311 C2307 1.385 . S
C2311 C2310 1.374 . S
C2312 C2309 1.499 . S
C2312 C2313 1.373 . S
C2312 C2314 1.389 . S
C2313 H2286 0.950 . S
C2313 C2299 1.377 . S
C2313 C2312 1.373 . S
C2314 C2298 1.377 . S
C2314 C2312 1.389 . S
C2314 C2315 1.524 . S
C2315 C2314 1.524 . S
C2315 C2316 1.397 . S
C2315 C2320 1.363 . S
C2316 H2287 0.950 . S
C2316 C2315 1.397 . S
C2316 C2317 1.334 . S
C2317 H2288 0.950 . S
C2317 C2316 1.334 . S
C2317 C2318 1.287 . S
C2318 C2317 1.287 . S
C2318 C2319 1.524 1_455 S
C2318 H2321 0.999 1_455 S
C2319 H2289 0.950 . S
C2319 C2318 1.524 1_655 S
C2319 C2320 1.415 1_655 S
C2320 H2290 0.950 1_455 S
C2320 C2315 1.363 . S
C2320 C2319 1.415 1_455 S
H2321 C2318 0.999 1_655 S
H2322 C2303 0.913 . S
H2323 C2341 0.951 . S
H2324 C2343 0.951 . S
H2325 C2345 0.950 . S
H2326 C2346 0.950 . S
H2327 C2348 0.950 . S
H2328 C2351 0.950 . S
H2329 C2352 0.950 . S
H2330 C2354 0.950 . S
H2331 C2355 0.950 . S
H2332 C2356 0.951 . S
H2333 C2358 0.951 . S
H2334 C2360 0.950 . S
H2335 C2361 0.950 . S
H2336 C2363 0.950 . S
H2337 C2366 0.950 . S
H2338 C2367 0.950 . S
H2339 C2369 0.950 . S
H2340 C2370 0.950 . S
C2341 H2323 0.951 . S
C2341 C2342 1.366 . S
C2341 C2343 1.388 . S
C2342 C2341 1.366 . S
C2342 C2346 1.385 . S
C2343 H2324 0.951 . S
C2343 C2341 1.388 . S
C2343 C2344 1.366 . S
C2344 C2343 1.366 . S
C2344 C2345 1.414 . S
C2344 C2347 1.499 . S
C2345 H2325 0.950 . S
C2345 C2344 1.414 . S
C2345 C2346 1.374 . S
C2346 H2326 0.950 . S
C2346 C2342 1.385 . S
C2346 C2345 1.374 . S
C2347 C2344 1.499 . S
C2347 C2348 1.373 . S
C2347 C2349 1.389 . S
C2348 H2327 0.950 . S
C2348 C2347 1.373 . S
C2348 C2364 1.377 . S
C2349 C2347 1.389 . S
C2349 C2350 1.524 . S
C2349 C2363 1.377 . S
C2350 C2349 1.524 . S
C2350 C2351 1.397 . S
C2350 C2355 1.363 . S
C2351 H2328 0.950 . S
C2351 C2350 1.397 . S
C2351 C2352 1.334 . S
C2352 H2329 0.950 . S
C2352 C2351 1.334 . S
C2352 C2353 1.287 . S
C2353 C2352 1.287 . S
C2353 C2354 1.524 . S
C2353 H2372 0.913 . S
C2354 H2330 0.950 . S
C2354 C2353 1.524 . S
C2354 C2355 1.415 . S
C2355 H2331 0.950 . S
C2355 C2350 1.363 . S
C2355 C2354 1.415 . S
C2356 H2332 0.951 . S
C2356 C2357 1.366 . S
C2356 C2358 1.388 . S
C2357 C2356 1.366 . S
C2357 C2361 1.385 . S
C2358 H2333 0.951 . S
C2358 C2356 1.388 . S
C2358 C2359 1.366 . S
C2359 C2358 1.366 . S
C2359 C2360 1.414 . S
C2359 C2362 1.499 . S
C2360 H2334 0.950 . S
C2360 C2359 1.414 . S
C2360 C2361 1.374 . S
C2361 H2335 0.950 . S
C2361 C2357 1.385 . S
C2361 C2360 1.374 . S
C2362 C2359 1.499 . S
C2362 C2363 1.373 . S
C2362 C2364 1.389 . S
C2363 H2336 0.950 . S
C2363 C2349 1.377 . S
C2363 C2362 1.373 . S
C2364 C2348 1.377 . S
C2364 C2362 1.389 . S
C2364 C2365 1.524 . S
C2365 C2364 1.524 . S
C2365 C2366 1.397 . S
C2365 C2370 1.363 . S
C2366 H2337 0.950 . S
C2366 C2365 1.397 . S
C2366 C2367 1.334 . S
C2367 H2338 0.950 . S
C2367 C2366 1.334 . S
C2367 C2368 1.287 . S
C2368 C2367 1.287 . S
C2368 C2369 1.524 . S
C2368 H2371 0.999 . S
C2369 H2339 0.950 . S
C2369 C2368 1.524 . S
C2369 C2370 1.415 . S
C2370 H2340 0.950 . S
C2370 C2365 1.363 . S
C2370 C2369 1.415 . S
H2371 C2368 0.999 . S
H2372 C2353 0.913 . S
H2373 C2391 0.951 . S
H2374 C2393 0.951 . S
H2375 C2395 0.950 . S
H2376 C2396 0.950 . S
H2377 C2398 0.950 . S
H2378 C2401 0.950 . S
H2379 C2402 0.950 . S
H2380 C2404 0.950 . S
H2381 C2405 0.950 . S
H2382 C2406 0.951 . S
H2383 C2408 0.951 . S
H2384 C2410 0.950 . S
H2385 C2411 0.950 . S
H2386 C2413 0.950 . S
H2387 C2416 0.950 . S
H2388 C2417 0.950 . S
H2389 C2419 0.950 . S
H2390 C2420 0.950 1_655 S
C2391 H2373 0.951 . S
C2391 C2392 1.366 . S
C2391 C2393 1.388 . S
C2392 C2391 1.366 . S
C2392 C2396 1.385 . S
C2393 H2374 0.951 . S
C2393 C2391 1.388 . S
C2393 C2394 1.366 . S
C2394 C2393 1.366 . S
C2394 C2395 1.414 . S
C2394 C2397 1.499 . S
C2395 H2375 0.950 . S
C2395 C2394 1.414 . S
C2395 C2396 1.374 . S
C2396 H2376 0.950 . S
C2396 C2392 1.385 . S
C2396 C2395 1.374 . S
C2397 C2394 1.499 . S
C2397 C2398 1.373 . S
C2397 C2399 1.389 . S
C2398 H2377 0.950 . S
C2398 C2397 1.373 . S
C2398 C2414 1.377 . S
C2399 C2397 1.389 . S
C2399 C2400 1.524 . S
C2399 C2413 1.377 . S
C2400 C2399 1.524 . S
C2400 C2401 1.397 . S
C2400 C2405 1.363 . S
C2401 H2378 0.950 . S
C2401 C2400 1.397 . S
C2401 C2402 1.334 . S
C2402 H2379 0.950 . S
C2402 C2401 1.334 . S
C2402 C2403 1.287 . S
C2403 C2402 1.287 . S
C2403 C2404 1.524 . S
C2403 H2422 0.913 . S
C2404 H2380 0.950 . S
C2404 C2403 1.524 . S
C2404 C2405 1.415 . S
C2405 H2381 0.950 . S
C2405 C2400 1.363 . S
C2405 C2404 1.415 . S
C2406 H2382 0.951 . S
C2406 C2407 1.366 . S
C2406 C2408 1.388 . S
C2407 C2406 1.366 . S
C2407 C2411 1.385 . S
C2408 H2383 0.951 . S
C2408 C2406 1.388 . S
C2408 C2409 1.366 . S
C2409 C2408 1.366 . S
C2409 C2410 1.414 . S
C2409 C2412 1.499 . S
C2410 H2384 0.950 . S
C2410 C2409 1.414 . S
C2410 C2411 1.374 . S
C2411 H2385 0.950 . S
C2411 C2407 1.385 . S
C2411 C2410 1.374 . S
C2412 C2409 1.499 . S
C2412 C2413 1.373 . S
C2412 C2414 1.389 . S
C2413 H2386 0.950 . S
C2413 C2399 1.377 . S
C2413 C2412 1.373 . S
C2414 C2398 1.377 . S
C2414 C2412 1.389 . S
C2414 C2415 1.524 1_655 S
C2415 C2414 1.524 1_455 S
C2415 C2416 1.397 . S
C2415 C2420 1.363 . S
C2416 H2387 0.950 . S
C2416 C2415 1.397 . S
C2416 C2417 1.334 . S
C2417 H2388 0.950 . S
C2417 C2416 1.334 . S
C2417 C2418 1.287 . S
C2418 C2417 1.287 . S
C2418 C2419 1.524 . S
C2418 H2421 0.999 . S
C2419 H2389 0.950 . S
C2419 C2418 1.524 . S
C2419 C2420 1.415 . S
C2420 H2390 0.950 1_455 S
C2420 C2415 1.363 . S
C2420 C2419 1.415 . S
H2421 C2418 0.999 . S
H2422 C2403 0.913 . S
H2423 C2441 0.951 . S
H2424 C2443 0.951 . S
H2425 C2445 0.950 . S
H2426 C2446 0.950 . S
H2427 C2448 0.950 . S
H2428 C2451 0.950 . S
H2429 C2452 0.950 . S
H2430 C2454 0.950 . S
H2431 C2455 0.950 . S
H2432 C2456 0.951 . S
H2433 C2458 0.951 . S
H2434 C2460 0.950 . S
H2435 C2461 0.950 . S
H2436 C2463 0.950 . S
H2437 C2466 0.950 . S
H2438 C2467 0.950 . S
H2439 C2469 0.950 . S
H2440 C2470 0.950 . S
C2441 H2423 0.951 . S
C2441 C2442 1.366 . S
C2441 C2443 1.388 . S
C2442 C2441 1.366 . S
C2442 C2446 1.385 . S
C2443 H2424 0.951 . S
C2443 C2441 1.388 . S
C2443 C2444 1.366 . S
C2444 C2443 1.366 . S
C2444 C2445 1.414 . S
C2444 C2447 1.499 . S
C2445 H2425 0.950 . S
C2445 C2444 1.414 . S
C2445 C2446 1.374 . S
C2446 H2426 0.950 . S
C2446 C2442 1.385 . S
C2446 C2445 1.374 . S
C2447 C2444 1.499 . S
C2447 C2448 1.373 . S
C2447 C2449 1.389 . S
C2448 H2427 0.950 . S
C2448 C2447 1.373 . S
C2448 C2464 1.377 . S
C2449 C2447 1.389 . S
C2449 C2450 1.524 . S
C2449 C2463 1.377 . S
C2450 C2449 1.524 . S
C2450 C2451 1.397 . S
C2450 C2455 1.363 . S
C2451 H2428 0.950 . S
C2451 C2450 1.397 . S
C2451 C2452 1.334 . S
C2452 H2429 0.950 . S
C2452 C2451 1.334 . S
C2452 C2453 1.287 . S
C2453 C2452 1.287 . S
C2453 C2454 1.524 . S
C2453 H2472 0.913 . S
C2454 H2430 0.950 . S
C2454 C2453 1.524 . S
C2454 C2455 1.415 . S
C2455 H2431 0.950 . S
C2455 C2450 1.363 . S
C2455 C2454 1.415 . S
C2456 H2432 0.951 . S
C2456 C2457 1.366 . S
C2456 C2458 1.388 . S
C2457 C2456 1.366 . S
C2457 C2461 1.385 . S
C2458 H2433 0.951 . S
C2458 C2456 1.388 . S
C2458 C2459 1.366 . S
C2459 C2458 1.366 . S
C2459 C2460 1.414 . S
C2459 C2462 1.499 . S
C2460 H2434 0.950 . S
C2460 C2459 1.414 . S
C2460 C2461 1.374 . S
C2461 H2435 0.950 . S
C2461 C2457 1.385 . S
C2461 C2460 1.374 . S
C2462 C2459 1.499 . S
C2462 C2463 1.373 . S
C2462 C2464 1.389 . S
C2463 H2436 0.950 . S
C2463 C2449 1.377 . S
C2463 C2462 1.373 . S
C2464 C2448 1.377 . S
C2464 C2462 1.389 . S
C2464 C2465 1.524 . S
C2465 C2464 1.524 . S
C2465 C2466 1.397 . S
C2465 C2470 1.363 . S
C2466 H2437 0.950 . S
C2466 C2465 1.397 . S
C2466 C2467 1.334 . S
C2467 H2438 0.950 . S
C2467 C2466 1.334 . S
C2467 C2468 1.287 . S
C2468 C2467 1.287 . S
C2468 C2469 1.524 . S
C2468 H2471 0.999 . S
C2469 H2439 0.950 . S
C2469 C2468 1.524 . S
C2469 C2470 1.415 . S
C2470 H2440 0.950 . S
C2470 C2465 1.363 . S
C2470 C2469 1.415 . S
H2471 C2468 0.999 . S
H2472 C2453 0.913 . S
H2473 C2491 0.951 . S
H2474 C2493 0.951 . S
H2475 C2495 0.950 . S
H2476 C2496 0.950 . S
H2477 C2498 0.950 . S
H2478 C2501 0.950 . S
H2479 C2502 0.950 . S
H2480 C2504 0.950 . S
H2481 C2505 0.950 . S
H2482 C2506 0.951 . S
H2483 C2508 0.951 . S
H2484 C2510 0.950 . S
H2485 C2511 0.950 . S
H2486 C2513 0.950 . S
H2487 C2516 0.950 . S
H2488 C2517 0.950 . S
H2489 C2519 0.950 . S
H2490 C2520 0.950 . S
C2491 H2473 0.951 . S
C2491 C2492 1.366 . S
C2491 C2493 1.388 . S
C2492 C2491 1.366 . S
C2492 C2496 1.385 . S
C2493 H2474 0.951 . S
C2493 C2491 1.388 . S
C2493 C2494 1.366 . S
C2494 C2493 1.366 . S
C2494 C2495 1.414 . S
C2494 C2497 1.499 . S
C2495 H2475 0.950 . S
C2495 C2494 1.414 . S
C2495 C2496 1.374 . S
C2496 H2476 0.950 . S
C2496 C2492 1.385 . S
C2496 C2495 1.374 . S
C2497 C2494 1.499 . S
C2497 C2498 1.373 . S
C2497 C2499 1.389 . S
C2498 H2477 0.950 . S
C2498 C2497 1.373 . S
C2498 C2514 1.377 . S
C2499 C2497 1.389 . S
C2499 C2500 1.524 . S
C2499 C2513 1.377 . S
C2500 C2499 1.524 . S
C2500 C2501 1.397 . S
C2500 C2505 1.363 . S
C2501 H2478 0.950 . S
C2501 C2500 1.397 . S
C2501 C2502 1.334 . S
C2502 H2479 0.950 . S
C2502 C2501 1.334 . S
C2502 C2503 1.287 . S
C2503 C2502 1.287 . S
C2503 C2504 1.524 . S
C2503 H2522 0.913 . S
C2504 H2480 0.950 . S
C2504 C2503 1.524 . S
C2504 C2505 1.415 . S
C2505 H2481 0.950 . S
C2505 C2500 1.363 . S
C2505 C2504 1.415 . S
C2506 H2482 0.951 . S
C2506 C2507 1.366 . S
C2506 C2508 1.388 . S
C2507 C2506 1.366 . S
C2507 C2511 1.385 . S
C2508 H2483 0.951 . S
C2508 C2506 1.388 . S
C2508 C2509 1.366 . S
C2509 C2508 1.366 . S
C2509 C2510 1.414 . S
C2509 C2512 1.499 . S
C2510 H2484 0.950 . S
C2510 C2509 1.414 . S
C2510 C2511 1.374 . S
C2511 H2485 0.950 . S
C2511 C2507 1.385 . S
C2511 C2510 1.374 . S
C2512 C2509 1.499 . S
C2512 C2513 1.373 . S
C2512 C2514 1.389 . S
C2513 H2486 0.950 . S
C2513 C2499 1.377 . S
C2513 C2512 1.373 . S
C2514 C2498 1.377 . S
C2514 C2512 1.389 . S
C2514 C2515 1.524 . S
C2515 C2514 1.524 . S
C2515 C2516 1.397 . S
C2515 C2520 1.363 . S
C2516 H2487 0.950 . S
C2516 C2515 1.397 . S
C2516 C2517 1.334 . S
C2517 H2488 0.950 . S
C2517 C2516 1.334 . S
C2517 C2518 1.287 . S
C2518 C2517 1.287 . S
C2518 C2519 1.524 . S
C2518 H2521 0.999 . S
C2519 H2489 0.950 . S
C2519 C2518 1.524 . S
C2519 C2520 1.415 . S
C2520 H2490 0.950 . S
C2520 C2515 1.363 . S
C2520 C2519 1.415 . S
H2521 C2518 0.999 . S
H2522 C2503 0.913 . S
H2523 C2541 0.951 . S
H2524 C2543 0.951 . S
H2525 C2545 0.950 . S
H2526 C2546 0.950 . S
H2527 C2548 0.950 . S
H2528 C2551 0.950 . S
H2529 C2552 0.950 . S
H2530 C2554 0.950 . S
H2531 C2555 0.950 . S
H2532 C2556 0.951 . S
H2533 C2558 0.951 . S
H2534 C2560 0.950 . S
H2535 C2561 0.950 . S
H2536 C2563 0.950 . S
H2537 C2566 0.950 . S
H2538 C2567 0.950 . S
H2539 C2569 0.950 . S
H2540 C2570 0.950 . S
C2541 H2523 0.951 . S
C2541 C2542 1.366 . S
C2541 C2543 1.388 . S
C2542 C2541 1.366 . S
C2542 C2546 1.385 . S
C2543 H2524 0.951 . S
C2543 C2541 1.388 . S
C2543 C2544 1.366 . S
C2544 C2543 1.366 . S
C2544 C2545 1.414 . S
C2544 C2547 1.499 . S
C2545 H2525 0.950 . S
C2545 C2544 1.414 . S
C2545 C2546 1.374 . S
C2546 H2526 0.950 . S
C2546 C2542 1.385 . S
C2546 C2545 1.374 . S
C2547 C2544 1.499 . S
C2547 C2548 1.373 . S
C2547 C2549 1.389 . S
C2548 H2527 0.950 . S
C2548 C2547 1.373 . S
C2548 C2564 1.377 . S
C2549 C2547 1.389 . S
C2549 C2550 1.524 . S
C2549 C2563 1.377 . S
C2550 C2549 1.524 . S
C2550 C2551 1.397 . S
C2550 C2555 1.363 . S
C2551 H2528 0.950 . S
C2551 C2550 1.397 . S
C2551 C2552 1.334 . S
C2552 H2529 0.950 . S
C2552 C2551 1.334 . S
C2552 C2553 1.287 . S
C2553 C2552 1.287 . S
C2553 C2554 1.524 . S
C2553 H2572 0.913 . S
C2554 H2530 0.950 . S
C2554 C2553 1.524 . S
C2554 C2555 1.415 . S
C2555 H2531 0.950 . S
C2555 C2550 1.363 . S
C2555 C2554 1.415 . S
C2556 H2532 0.951 . S
C2556 C2557 1.366 . S
C2556 C2558 1.388 . S
C2557 C2556 1.366 . S
C2557 C2561 1.385 . S
C2558 H2533 0.951 . S
C2558 C2556 1.388 . S
C2558 C2559 1.366 . S
C2559 C2558 1.366 . S
C2559 C2560 1.414 . S
C2559 C2562 1.499 . S
C2560 H2534 0.950 . S
C2560 C2559 1.414 . S
C2560 C2561 1.374 . S
C2561 H2535 0.950 . S
C2561 C2557 1.385 . S
C2561 C2560 1.374 . S
C2562 C2559 1.499 . S
C2562 C2563 1.373 . S
C2562 C2564 1.389 . S
C2563 H2536 0.950 . S
C2563 C2549 1.377 . S
C2563 C2562 1.373 . S
C2564 C2548 1.377 . S
C2564 C2562 1.389 . S
C2564 C2565 1.524 . S
C2565 C2564 1.524 . S
C2565 C2566 1.397 . S
C2565 C2570 1.363 . S
C2566 H2537 0.950 . S
C2566 C2565 1.397 . S
C2566 C2567 1.334 . S
C2567 H2538 0.950 . S
C2567 C2566 1.334 . S
C2567 C2568 1.287 . S
C2568 C2567 1.287 . S
C2568 C2569 1.524 . S
C2568 H2571 0.999 . S
C2569 H2539 0.950 . S
C2569 C2568 1.524 . S
C2569 C2570 1.415 . S
C2570 H2540 0.950 . S
C2570 C2565 1.363 . S
C2570 C2569 1.415 . S
H2571 C2568 0.999 . S
H2572 C2553 0.913 . S
H2573 C2591 0.951 . S
H2574 C2593 0.951 . S
H2575 C2595 0.950 . S
H2576 C2596 0.950 . S
H2577 C2598 0.950 . S
H2578 C2601 0.950 . S
H2579 C2602 0.950 . S
H2580 C2604 0.950 . S
H2581 C2605 0.950 . S
H2582 C2606 0.951 . S
H2583 C2608 0.951 . S
H2584 C2610 0.950 . S
H2585 C2611 0.950 . S
H2586 C2613 0.950 . S
H2587 C2616 0.950 . S
H2588 C2617 0.950 . S
H2589 C2619 0.950 . S
H2590 C2620 0.950 . S
C2591 H2573 0.951 . S
C2591 C2592 1.366 . S
C2591 C2593 1.388 . S
C2592 C2591 1.366 . S
C2592 C2596 1.385 . S
C2593 H2574 0.951 . S
C2593 C2591 1.388 . S
C2593 C2594 1.366 . S
C2594 C2593 1.366 . S
C2594 C2595 1.414 . S
C2594 C2597 1.499 . S
C2595 H2575 0.950 . S
C2595 C2594 1.414 . S
C2595 C2596 1.374 . S
C2596 H2576 0.950 . S
C2596 C2592 1.385 . S
C2596 C2595 1.374 . S
C2597 C2594 1.499 . S
C2597 C2598 1.373 . S
C2597 C2599 1.389 . S
C2598 H2577 0.950 . S
C2598 C2597 1.373 . S
C2598 C2614 1.377 . S
C2599 C2597 1.389 . S
C2599 C2600 1.524 . S
C2599 C2613 1.377 . S
C2600 C2599 1.524 . S
C2600 C2601 1.397 . S
C2600 C2605 1.363 . S
C2601 H2578 0.950 . S
C2601 C2600 1.397 . S
C2601 C2602 1.334 . S
C2602 H2579 0.950 . S
C2602 C2601 1.334 . S
C2602 C2603 1.287 . S
C2603 C2602 1.287 . S
C2603 C2604 1.524 . S
C2603 H2622 0.913 . S
C2604 H2580 0.950 . S
C2604 C2603 1.524 . S
C2604 C2605 1.415 . S
C2605 H2581 0.950 . S
C2605 C2600 1.363 . S
C2605 C2604 1.415 . S
C2606 H2582 0.951 . S
C2606 C2607 1.366 . S
C2606 C2608 1.388 . S
C2607 C2606 1.366 . S
C2607 C2611 1.385 . S
C2608 H2583 0.951 . S
C2608 C2606 1.388 . S
C2608 C2609 1.366 . S
C2609 C2608 1.366 . S
C2609 C2610 1.414 . S
C2609 C2612 1.499 . S
C2610 H2584 0.950 . S
C2610 C2609 1.414 . S
C2610 C2611 1.374 . S
C2611 H2585 0.950 . S
C2611 C2607 1.385 . S
C2611 C2610 1.374 . S
C2612 C2609 1.499 . S
C2612 C2613 1.373 . S
C2612 C2614 1.389 . S
C2613 H2586 0.950 . S
C2613 C2599 1.377 . S
C2613 C2612 1.373 . S
C2614 C2598 1.377 . S
C2614 C2612 1.389 . S
C2614 C2615 1.524 . S
C2615 C2614 1.524 . S
C2615 C2616 1.397 . S
C2615 C2620 1.363 . S
C2616 H2587 0.950 . S
C2616 C2615 1.397 . S
C2616 C2617 1.334 . S
C2617 H2588 0.950 . S
C2617 C2616 1.334 . S
C2617 C2618 1.287 . S
C2618 C2617 1.287 . S
C2618 C2619 1.524 . S
C2618 H2621 0.999 . S
C2619 H2589 0.950 . S
C2619 C2618 1.524 . S
C2619 C2620 1.415 . S
C2620 H2590 0.950 . S
C2620 C2615 1.363 . S
C2620 C2619 1.415 . S
H2621 C2618 0.999 . S
H2622 C2603 0.913 . S
H2623 C2641 0.951 . S
H2624 C2643 0.951 . S
H2625 C2645 0.950 . S
H2626 C2646 0.950 . S
H2627 C2648 0.950 . S
H2628 C2651 0.950 . S
H2629 C2652 0.950 . S
H2630 C2654 0.950 . S
H2631 C2655 0.950 . S
H2632 C2656 0.951 . S
H2633 C2658 0.951 . S
H2634 C2660 0.950 . S
H2635 C2661 0.950 . S
H2636 C2663 0.950 . S
H2637 C2666 0.950 . S
H2638 C2667 0.950 . S
H2639 C2669 0.950 . S
H2640 C2670 0.950 . S
C2641 H2623 0.951 . S
C2641 C2642 1.366 . S
C2641 C2643 1.388 . S
C2642 C2641 1.366 . S
C2642 C2646 1.385 . S
C2643 H2624 0.951 . S
C2643 C2641 1.388 . S
C2643 C2644 1.366 . S
C2644 C2643 1.366 . S
C2644 C2645 1.414 . S
C2644 C2647 1.499 . S
C2645 H2625 0.950 . S
C2645 C2644 1.414 . S
C2645 C2646 1.374 . S
C2646 H2626 0.950 . S
C2646 C2642 1.385 . S
C2646 C2645 1.374 . S
C2647 C2644 1.499 . S
C2647 C2648 1.373 . S
C2647 C2649 1.389 . S
C2648 H2627 0.950 . S
C2648 C2647 1.373 . S
C2648 C2664 1.377 . S
C2649 C2647 1.389 . S
C2649 C2650 1.524 . S
C2649 C2663 1.377 . S
C2650 C2649 1.524 . S
C2650 C2651 1.397 . S
C2650 C2655 1.363 . S
C2651 H2628 0.950 . S
C2651 C2650 1.397 . S
C2651 C2652 1.334 . S
C2652 H2629 0.950 . S
C2652 C2651 1.334 . S
C2652 C2653 1.287 . S
C2653 C2652 1.287 . S
C2653 C2654 1.524 . S
C2653 H2672 0.913 . S
C2654 H2630 0.950 . S
C2654 C2653 1.524 . S
C2654 C2655 1.415 . S
C2655 H2631 0.950 . S
C2655 C2650 1.363 . S
C2655 C2654 1.415 . S
C2656 H2632 0.951 . S
C2656 C2657 1.366 . S
C2656 C2658 1.388 . S
C2657 C2656 1.366 . S
C2657 C2661 1.385 . S
C2658 H2633 0.951 . S
C2658 C2656 1.388 . S
C2658 C2659 1.366 . S
C2659 C2658 1.366 . S
C2659 C2660 1.414 . S
C2659 C2662 1.499 . S
C2660 H2634 0.950 . S
C2660 C2659 1.414 . S
C2660 C2661 1.374 . S
C2661 H2635 0.950 . S
C2661 C2657 1.385 . S
C2661 C2660 1.374 . S
C2662 C2659 1.499 . S
C2662 C2663 1.373 . S
C2662 C2664 1.389 . S
C2663 H2636 0.950 . S
C2663 C2649 1.377 . S
C2663 C2662 1.373 . S
C2664 C2648 1.377 . S
C2664 C2662 1.389 . S
C2664 C2665 1.524 . S
C2665 C2664 1.524 . S
C2665 C2666 1.397 . S
C2665 C2670 1.363 . S
C2666 H2637 0.950 . S
C2666 C2665 1.397 . S
C2666 C2667 1.334 . S
C2667 H2638 0.950 . S
C2667 C2666 1.334 . S
C2667 C2668 1.287 . S
C2668 C2667 1.287 . S
C2668 C2669 1.524 . S
C2668 H2671 0.999 . S
C2669 H2639 0.950 . S
C2669 C2668 1.524 . S
C2669 C2670 1.415 . S
C2670 H2640 0.950 . S
C2670 C2665 1.363 . S
C2670 C2669 1.415 . S
H2671 C2668 0.999 . S
H2672 C2653 0.913 . S
H2673 C2691 0.951 . S
H2674 C2693 0.951 . S
H2675 C2695 0.950 . S
H2676 C2696 0.950 . S
H2677 C2698 0.950 . S
H2678 C2701 0.950 . S
H2679 C2702 0.950 . S
H2680 C2704 0.950 . S
H2681 C2705 0.950 . S
H2682 C2706 0.951 . S
H2683 C2708 0.951 . S
H2684 C2710 0.950 . S
H2685 C2711 0.950 . S
H2686 C2713 0.950 . S
H2687 C2716 0.950 . S
H2688 C2717 0.950 . S
H2689 C2719 0.950 . S
H2690 C2720 0.950 . S
C2691 H2673 0.951 . S
C2691 C2692 1.366 . S
C2691 C2693 1.388 . S
C2692 C2691 1.366 . S
C2692 C2696 1.385 . S
C2693 H2674 0.951 . S
C2693 C2691 1.388 . S
C2693 C2694 1.366 . S
C2694 C2693 1.366 . S
C2694 C2695 1.414 . S
C2694 C2697 1.499 . S
C2695 H2675 0.950 . S
C2695 C2694 1.414 . S
C2695 C2696 1.374 . S
C2696 H2676 0.950 . S
C2696 C2692 1.385 . S
C2696 C2695 1.374 . S
C2697 C2694 1.499 . S
C2697 C2698 1.373 . S
C2697 C2699 1.389 . S
C2698 H2677 0.950 . S
C2698 C2697 1.373 . S
C2698 C2714 1.377 . S
C2699 C2697 1.389 . S
C2699 C2700 1.524 . S
C2699 C2713 1.377 . S
C2700 C2699 1.524 . S
C2700 C2701 1.397 . S
C2700 C2705 1.363 . S
C2701 H2678 0.950 . S
C2701 C2700 1.397 . S
C2701 C2702 1.334 . S
C2702 H2679 0.950 . S
C2702 C2701 1.334 . S
C2702 C2703 1.287 . S
C2703 C2702 1.287 . S
C2703 C2704 1.524 . S
C2703 H2722 0.913 . S
C2704 H2680 0.950 . S
C2704 C2703 1.524 . S
C2704 C2705 1.415 . S
C2705 H2681 0.950 . S
C2705 C2700 1.363 . S
C2705 C2704 1.415 . S
C2706 H2682 0.951 . S
C2706 C2707 1.366 . S
C2706 C2708 1.388 . S
C2707 C2706 1.366 . S
C2707 C2711 1.385 . S
C2708 H2683 0.951 . S
C2708 C2706 1.388 . S
C2708 C2709 1.366 . S
C2709 C2708 1.366 . S
C2709 C2710 1.414 . S
C2709 C2712 1.499 . S
C2710 H2684 0.950 . S
C2710 C2709 1.414 . S
C2710 C2711 1.374 . S
C2711 H2685 0.950 . S
C2711 C2707 1.385 . S
C2711 C2710 1.374 . S
C2712 C2709 1.499 . S
C2712 C2713 1.373 . S
C2712 C2714 1.389 . S
C2713 H2686 0.950 . S
C2713 C2699 1.377 . S
C2713 C2712 1.373 . S
C2714 C2698 1.377 . S
C2714 C2712 1.389 . S
C2714 C2715 1.524 . S
C2715 C2714 1.524 . S
C2715 C2716 1.397 . S
C2715 C2720 1.363 . S
C2716 H2687 0.950 . S
C2716 C2715 1.397 . S
C2716 C2717 1.334 . S
C2717 H2688 0.950 . S
C2717 C2716 1.334 . S
C2717 C2718 1.287 . S
C2718 C2717 1.287 . S
C2718 C2719 1.524 . S
C2718 H2721 0.999 . S
C2719 H2689 0.950 . S
C2719 C2718 1.524 . S
C2719 C2720 1.415 . S
C2720 H2690 0.950 . S
C2720 C2715 1.363 . S
C2720 C2719 1.415 . S
H2721 C2718 0.999 . S
H2722 C2703 0.913 . S
H2723 C2741 0.951 . S
H2724 C2743 0.951 . S
H2725 C2745 0.950 . S
H2726 C2746 0.950 . S
H2727 C2748 0.950 . S
H2728 C2751 0.950 . S
H2729 C2752 0.950 . S
H2730 C2754 0.950 . S
H2731 C2755 0.950 . S
H2732 C2756 0.951 . S
H2733 C2758 0.951 . S
H2734 C2760 0.950 . S
H2735 C2761 0.950 . S
H2736 C2763 0.950 . S
H2737 C2766 0.950 . S
H2738 C2767 0.950 . S
H2739 C2769 0.950 . S
H2740 C2770 0.950 . S
C2741 H2723 0.951 . S
C2741 C2742 1.366 . S
C2741 C2743 1.388 . S
C2742 C2741 1.366 . S
C2742 C2746 1.385 . S
C2743 H2724 0.951 . S
C2743 C2741 1.388 . S
C2743 C2744 1.366 . S
C2744 C2743 1.366 . S
C2744 C2745 1.414 . S
C2744 C2747 1.499 . S
C2745 H2725 0.950 . S
C2745 C2744 1.414 . S
C2745 C2746 1.374 . S
C2746 H2726 0.950 . S
C2746 C2742 1.385 . S
C2746 C2745 1.374 . S
C2747 C2744 1.499 . S
C2747 C2748 1.373 . S
C2747 C2749 1.389 . S
C2748 H2727 0.950 . S
C2748 C2747 1.373 . S
C2748 C2764 1.377 . S
C2749 C2747 1.389 . S
C2749 C2750 1.524 . S
C2749 C2763 1.377 . S
C2750 C2749 1.524 . S
C2750 C2751 1.397 . S
C2750 C2755 1.363 . S
C2751 H2728 0.950 . S
C2751 C2750 1.397 . S
C2751 C2752 1.334 . S
C2752 H2729 0.950 . S
C2752 C2751 1.334 . S
C2752 C2753 1.287 . S
C2753 C2752 1.287 . S
C2753 C2754 1.524 . S
C2753 H2772 0.913 . S
C2754 H2730 0.950 . S
C2754 C2753 1.524 . S
C2754 C2755 1.415 . S
C2755 H2731 0.950 . S
C2755 C2750 1.363 . S
C2755 C2754 1.415 . S
C2756 H2732 0.951 . S
C2756 C2757 1.366 . S
C2756 C2758 1.388 . S
C2757 C2756 1.366 . S
C2757 C2761 1.385 . S
C2758 H2733 0.951 . S
C2758 C2756 1.388 . S
C2758 C2759 1.366 . S
C2759 C2758 1.366 . S
C2759 C2760 1.414 . S
C2759 C2762 1.499 . S
C2760 H2734 0.950 . S
C2760 C2759 1.414 . S
C2760 C2761 1.374 . S
C2761 H2735 0.950 . S
C2761 C2757 1.385 . S
C2761 C2760 1.374 . S
C2762 C2759 1.499 . S
C2762 C2763 1.373 . S
C2762 C2764 1.389 . S
C2763 H2736 0.950 . S
C2763 C2749 1.377 . S
C2763 C2762 1.373 . S
C2764 C2748 1.377 . S
C2764 C2762 1.389 . S
C2764 C2765 1.524 . S
C2765 C2764 1.524 . S
C2765 C2766 1.397 . S
C2765 C2770 1.363 . S
C2766 H2737 0.950 . S
C2766 C2765 1.397 . S
C2766 C2767 1.334 . S
C2767 H2738 0.950 . S
C2767 C2766 1.334 . S
C2767 C2768 1.287 . S
C2768 C2767 1.287 . S
C2768 C2769 1.524 . S
C2768 H2771 0.999 . S
C2769 H2739 0.950 . S
C2769 C2768 1.524 . S
C2769 C2770 1.415 . S
C2770 H2740 0.950 . S
C2770 C2765 1.363 . S
C2770 C2769 1.415 . S
H2771 C2768 0.999 . S
H2772 C2753 0.913 . S
H2773 C2791 0.951 . S
H2774 C2793 0.951 . S
H2775 C2795 0.950 . S
H2776 C2796 0.950 . S
H2777 C2798 0.950 . S
H2778 C2801 0.950 . S
H2779 C2802 0.950 . S
H2780 C2804 0.950 . S
H2781 C2805 0.950 . S
H2782 C2806 0.951 . S
H2783 C2808 0.951 . S
H2784 C2810 0.950 . S
H2785 C2811 0.950 . S
H2786 C2813 0.950 . S
H2787 C2816 0.950 . S
H2788 C2817 0.950 . S
H2789 C2819 0.950 . S
H2790 C2820 0.950 . S
C2791 H2773 0.951 . S
C2791 C2792 1.366 . S
C2791 C2793 1.388 . S
C2792 C2791 1.366 . S
C2792 C2796 1.385 . S
C2793 H2774 0.951 . S
C2793 C2791 1.388 . S
C2793 C2794 1.366 . S
C2794 C2793 1.366 . S
C2794 C2795 1.414 . S
C2794 C2797 1.499 . S
C2795 H2775 0.950 . S
C2795 C2794 1.414 . S
C2795 C2796 1.374 . S
C2796 H2776 0.950 . S
C2796 C2792 1.385 . S
C2796 C2795 1.374 . S
C2797 C2794 1.499 . S
C2797 C2798 1.373 . S
C2797 C2799 1.389 . S
C2798 H2777 0.950 . S
C2798 C2797 1.373 . S
C2798 C2814 1.377 . S
C2799 C2797 1.389 . S
C2799 C2800 1.524 . S
C2799 C2813 1.377 . S
C2800 C2799 1.524 . S
C2800 C2801 1.397 . S
C2800 C2805 1.363 . S
C2801 H2778 0.950 . S
C2801 C2800 1.397 . S
C2801 C2802 1.334 . S
C2802 H2779 0.950 . S
C2802 C2801 1.334 . S
C2802 C2803 1.287 . S
C2803 C2802 1.287 . S
C2803 C2804 1.524 . S
C2803 H2822 0.913 . S
C2804 H2780 0.950 . S
C2804 C2803 1.524 . S
C2804 C2805 1.415 . S
C2805 H2781 0.950 . S
C2805 C2800 1.363 . S
C2805 C2804 1.415 . S
C2806 H2782 0.951 . S
C2806 C2807 1.366 . S
C2806 C2808 1.388 . S
C2807 C2806 1.366 . S
C2807 C2811 1.385 . S
C2808 H2783 0.951 . S
C2808 C2806 1.388 . S
C2808 C2809 1.366 . S
C2809 C2808 1.366 . S
C2809 C2810 1.414 . S
C2809 C2812 1.499 . S
C2810 H2784 0.950 . S
C2810 C2809 1.414 . S
C2810 C2811 1.374 . S
C2811 H2785 0.950 . S
C2811 C2807 1.385 . S
C2811 C2810 1.374 . S
C2812 C2809 1.499 . S
C2812 C2813 1.373 . S
C2812 C2814 1.389 . S
C2813 H2786 0.950 . S
C2813 C2799 1.377 . S
C2813 C2812 1.373 . S
C2814 C2798 1.377 . S
C2814 C2812 1.389 . S
C2814 C2815 1.524 . S
C2815 C2814 1.524 . S
C2815 C2816 1.397 . S
C2815 C2820 1.363 . S
C2816 H2787 0.950 . S
C2816 C2815 1.397 . S
C2816 C2817 1.334 . S
C2817 H2788 0.950 . S
C2817 C2816 1.334 . S
C2817 C2818 1.287 . S
C2818 C2817 1.287 . S
C2818 C2819 1.524 . S
C2818 H2821 0.999 . S
C2819 H2789 0.950 . S
C2819 C2818 1.524 . S
C2819 C2820 1.415 . S
C2820 H2790 0.950 . S
C2820 C2815 1.363 . S
C2820 C2819 1.415 . S
H2821 C2818 0.999 . S
H2822 C2803 0.913 . S
H2823 C2841 0.951 . S
H2824 C2843 0.951 . S
H2825 C2845 0.950 . S
H2826 C2846 0.950 . S
H2827 C2848 0.950 . S
H2828 C2851 0.950 . S
H2829 C2852 0.950 . S
H2830 C2854 0.950 . S
H2831 C2855 0.950 . S
H2832 C2856 0.951 . S
H2833 C2858 0.951 . S
H2834 C2860 0.950 . S
H2835 C2861 0.950 . S
H2836 C2863 0.950 . S
H2837 C2866 0.950 . S
H2838 C2867 0.950 . S
H2839 C2869 0.950 . S
H2840 C2870 0.950 . S
C2841 H2823 0.951 . S
C2841 C2842 1.366 . S
C2841 C2843 1.388 . S
C2842 C2841 1.366 . S
C2842 C2846 1.385 . S
C2843 H2824 0.951 . S
C2843 C2841 1.388 . S
C2843 C2844 1.366 . S
C2844 C2843 1.366 . S
C2844 C2845 1.414 . S
C2844 C2847 1.499 . S
C2845 H2825 0.950 . S
C2845 C2844 1.414 . S
C2845 C2846 1.374 . S
C2846 H2826 0.950 . S
C2846 C2842 1.385 . S
C2846 C2845 1.374 . S
C2847 C2844 1.499 . S
C2847 C2848 1.373 . S
C2847 C2849 1.389 . S
C2848 H2827 0.950 . S
C2848 C2847 1.373 . S
C2848 C2864 1.377 . S
C2849 C2847 1.389 . S
C2849 C2850 1.524 . S
C2849 C2863 1.377 . S
C2850 C2849 1.524 . S
C2850 C2851 1.397 . S
C2850 C2855 1.363 . S
C2851 H2828 0.950 . S
C2851 C2850 1.397 . S
C2851 C2852 1.334 . S
C2852 H2829 0.950 . S
C2852 C2851 1.334 . S
C2852 C2853 1.287 . S
C2853 C2852 1.287 . S
C2853 C2854 1.524 . S
C2853 H2872 0.913 . S
C2854 H2830 0.950 . S
C2854 C2853 1.524 . S
C2854 C2855 1.415 . S
C2855 H2831 0.950 . S
C2855 C2850 1.363 . S
C2855 C2854 1.415 . S
C2856 H2832 0.951 . S
C2856 C2857 1.366 . S
C2856 C2858 1.388 . S
C2857 C2856 1.366 . S
C2857 C2861 1.385 . S
C2858 H2833 0.951 . S
C2858 C2856 1.388 . S
C2858 C2859 1.366 . S
C2859 C2858 1.366 . S
C2859 C2860 1.414 . S
C2859 C2862 1.499 . S
C2860 H2834 0.950 . S
C2860 C2859 1.414 . S
C2860 C2861 1.374 . S
C2861 H2835 0.950 . S
C2861 C2857 1.385 . S
C2861 C2860 1.374 . S
C2862 C2859 1.499 . S
C2862 C2863 1.373 . S
C2862 C2864 1.389 . S
C2863 H2836 0.950 . S
C2863 C2849 1.377 . S
C2863 C2862 1.373 . S
C2864 C2848 1.377 . S
C2864 C2862 1.389 . S
C2864 C2865 1.524 . S
C2865 C2864 1.524 . S
C2865 C2866 1.397 . S
C2865 C2870 1.363 . S
C2866 H2837 0.950 . S
C2866 C2865 1.397 . S
C2866 C2867 1.334 . S
C2867 H2838 0.950 . S
C2867 C2866 1.334 . S
C2867 C2868 1.287 . S
C2868 C2867 1.287 . S
C2868 C2869 1.524 . S
C2868 H2871 0.999 . S
C2869 H2839 0.950 . S
C2869 C2868 1.524 . S
C2869 C2870 1.415 . S
C2870 H2840 0.950 . S
C2870 C2865 1.363 . S
C2870 C2869 1.415 . S
H2871 C2868 0.999 . S
H2872 C2853 0.913 . S
H2873 C2891 0.951 . S
H2874 C2893 0.951 . S
H2875 C2895 0.950 . S
H2876 C2896 0.950 . S
H2877 C2898 0.950 . S
H2878 C2901 0.950 . S
H2879 C2902 0.950 . S
H2880 C2904 0.950 . S
H2881 C2905 0.950 . S
H2882 C2906 0.951 . S
H2883 C2908 0.951 . S
H2884 C2910 0.950 . S
H2885 C2911 0.950 . S
H2886 C2913 0.950 . S
H2887 C2916 0.950 . S
H2888 C2917 0.950 . S
H2889 C2919 0.950 . S
H2890 C2920 0.950 . S
C2891 H2873 0.951 . S
C2891 C2892 1.366 . S
C2891 C2893 1.388 . S
C2892 C2891 1.366 . S
C2892 C2896 1.385 . S
C2893 H2874 0.951 . S
C2893 C2891 1.388 . S
C2893 C2894 1.366 . S
C2894 C2893 1.366 . S
C2894 C2895 1.414 . S
C2894 C2897 1.499 . S
C2895 H2875 0.950 . S
C2895 C2894 1.414 . S
C2895 C2896 1.374 . S
C2896 H2876 0.950 . S
C2896 C2892 1.385 . S
C2896 C2895 1.374 . S
C2897 C2894 1.499 . S
C2897 C2898 1.373 . S
C2897 C2899 1.389 . S
C2898 H2877 0.950 . S
C2898 C2897 1.373 . S
C2898 C2914 1.377 . S
C2899 C2897 1.389 . S
C2899 C2900 1.524 . S
C2899 C2913 1.377 . S
C2900 C2899 1.524 . S
C2900 C2901 1.397 . S
C2900 C2905 1.363 . S
C2901 H2878 0.950 . S
C2901 C2900 1.397 . S
C2901 C2902 1.334 . S
C2902 H2879 0.950 . S
C2902 C2901 1.334 . S
C2902 C2903 1.287 . S
C2903 C2902 1.287 . S
C2903 C2904 1.524 . S
C2903 H2922 0.913 . S
C2904 H2880 0.950 . S
C2904 C2903 1.524 . S
C2904 C2905 1.415 . S
C2905 H2881 0.950 . S
C2905 C2900 1.363 . S
C2905 C2904 1.415 . S
C2906 H2882 0.951 . S
C2906 C2907 1.366 . S
C2906 C2908 1.388 . S
C2907 C2906 1.366 . S
C2907 C2911 1.385 . S
C2908 H2883 0.951 . S
C2908 C2906 1.388 . S
C2908 C2909 1.366 . S
C2909 C2908 1.366 . S
C2909 C2910 1.414 . S
C2909 C2912 1.499 . S
C2910 H2884 0.950 . S
C2910 C2909 1.414 . S
C2910 C2911 1.374 . S
C2911 H2885 0.950 . S
C2911 C2907 1.385 . S
C2911 C2910 1.374 . S
C2912 C2909 1.499 . S
C2912 C2913 1.373 . S
C2912 C2914 1.389 . S
C2913 H2886 0.950 . S
C2913 C2899 1.377 . S
C2913 C2912 1.373 . S
C2914 C2898 1.377 . S
C2914 C2912 1.389 . S
C2914 C2915 1.524 . S
C2915 C2914 1.524 . S
C2915 C2916 1.397 . S
C2915 C2920 1.363 . S
C2916 H2887 0.950 . S
C2916 C2915 1.397 . S
C2916 C2917 1.334 . S
C2917 H2888 0.950 . S
C2917 C2916 1.334 . S
C2917 C2918 1.287 . S
C2918 C2917 1.287 . S
C2918 C2919 1.524 . S
C2918 H2921 0.999 . S
C2919 H2889 0.950 . S
C2919 C2918 1.524 . S
C2919 C2920 1.415 . S
C2920 H2890 0.950 . S
C2920 C2915 1.363 . S
C2920 C2919 1.415 . S
H2921 C2918 0.999 . S
H2922 C2903 0.913 . S
H2923 C2941 0.951 . S
H2924 C2943 0.951 . S
H2925 C2945 0.950 . S
H2926 C2946 0.950 . S
H2927 C2948 0.950 . S
H2928 C2951 0.950 . S
H2929 C2952 0.950 . S
H2930 C2954 0.950 . S
H2931 C2955 0.950 . S
H2932 C2956 0.951 . S
H2933 C2958 0.951 . S
H2934 C2960 0.950 . S
H2935 C2961 0.950 . S
H2936 C2963 0.950 . S
H2937 C2966 0.950 . S
H2938 C2967 0.950 . S
H2939 C2969 0.950 . S
H2940 C2970 0.950 . S
C2941 H2923 0.951 . S
C2941 C2942 1.366 . S
C2941 C2943 1.388 . S
C2942 C2941 1.366 . S
C2942 C2946 1.385 . S
C2943 H2924 0.951 . S
C2943 C2941 1.388 . S
C2943 C2944 1.366 . S
C2944 C2943 1.366 . S
C2944 C2945 1.414 . S
C2944 C2947 1.499 . S
C2945 H2925 0.950 . S
C2945 C2944 1.414 . S
C2945 C2946 1.374 . S
C2946 H2926 0.950 . S
C2946 C2942 1.385 . S
C2946 C2945 1.374 . S
C2947 C2944 1.499 . S
C2947 C2948 1.373 . S
C2947 C2949 1.389 . S
C2948 H2927 0.950 . S
C2948 C2947 1.373 . S
C2948 C2964 1.377 . S
C2949 C2947 1.389 . S
C2949 C2950 1.524 . S
C2949 C2963 1.377 . S
C2950 C2949 1.524 . S
C2950 C2951 1.397 . S
C2950 C2955 1.363 . S
C2951 H2928 0.950 . S
C2951 C2950 1.397 . S
C2951 C2952 1.334 . S
C2952 H2929 0.950 . S
C2952 C2951 1.334 . S
C2952 C2953 1.287 . S
C2953 C2952 1.287 . S
C2953 C2954 1.524 . S
C2953 H2972 0.913 . S
C2954 H2930 0.950 . S
C2954 C2953 1.524 . S
C2954 C2955 1.415 . S
C2955 H2931 0.950 . S
C2955 C2950 1.363 . S
C2955 C2954 1.415 . S
C2956 H2932 0.951 . S
C2956 C2957 1.366 . S
C2956 C2958 1.388 . S
C2957 C2956 1.366 . S
C2957 C2961 1.385 . S
C2958 H2933 0.951 . S
C2958 C2956 1.388 . S
C2958 C2959 1.366 . S
C2959 C2958 1.366 . S
C2959 C2960 1.414 . S
C2959 C2962 1.499 . S
C2960 H2934 0.950 . S
C2960 C2959 1.414 . S
C2960 C2961 1.374 . S
C2961 H2935 0.950 . S
C2961 C2957 1.385 . S
C2961 C2960 1.374 . S
C2962 C2959 1.499 . S
C2962 C2963 1.373 . S
C2962 C2964 1.389 . S
C2963 H2936 0.950 . S
C2963 C2949 1.377 . S
C2963 C2962 1.373 . S
C2964 C2948 1.377 . S
C2964 C2962 1.389 . S
C2964 C2965 1.524 . S
C2965 C2964 1.524 . S
C2965 C2966 1.397 . S
C2965 C2970 1.363 . S
C2966 H2937 0.950 . S
C2966 C2965 1.397 . S
C2966 C2967 1.334 . S
C2967 H2938 0.950 . S
C2967 C2966 1.334 . S
C2967 C2968 1.287 . S
C2968 C2967 1.287 . S
C2968 C2969 1.524 . S
C2968 H2971 0.999 . S
C2969 H2939 0.950 . S
C2969 C2968 1.524 . S
C2969 C2970 1.415 . S
C2970 H2940 0.950 . S
C2970 C2965 1.363 . S
C2970 C2969 1.415 . S
H2971 C2968 0.999 . S
H2972 C2953 0.913 . S
H2973 C2991 0.951 . S
H2974 C2993 0.951 . S
H2975 C2995 0.950 . S
H2976 C2996 0.950 . S
H2977 C2998 0.950 . S
H2978 C3001 0.950 . S
H2979 C3002 0.950 . S
H2980 C3004 0.950 . S
H2981 C3005 0.950 . S
H2982 C3006 0.951 . S
H2983 C3008 0.951 . S
H2984 C3010 0.950 . S
H2985 C3011 0.950 . S
H2986 C3013 0.950 . S
H2987 C3016 0.950 . S
H2988 C3017 0.950 . S
H2989 C3019 0.950 . S
H2990 C3020 0.950 . S
C2991 H2973 0.951 . S
C2991 C2992 1.366 . S
C2991 C2993 1.388 . S
C2992 C2991 1.366 . S
C2992 C2996 1.385 . S
C2993 H2974 0.951 . S
C2993 C2991 1.388 . S
C2993 C2994 1.366 . S
C2994 C2993 1.366 . S
C2994 C2995 1.414 . S
C2994 C2997 1.499 . S
C2995 H2975 0.950 . S
C2995 C2994 1.414 . S
C2995 C2996 1.374 . S
C2996 H2976 0.950 . S
C2996 C2992 1.385 . S
C2996 C2995 1.374 . S
C2997 C2994 1.499 . S
C2997 C2998 1.373 . S
C2997 C2999 1.389 . S
C2998 H2977 0.950 . S
C2998 C2997 1.373 . S
C2998 C3014 1.377 . S
C2999 C2997 1.389 . S
C2999 C3000 1.524 . S
C2999 C3013 1.377 . S
C3000 C2999 1.524 . S
C3000 C3001 1.397 . S
C3000 C3005 1.363 . S
C3001 H2978 0.950 . S
C3001 C3000 1.397 . S
C3001 C3002 1.334 . S
C3002 H2979 0.950 . S
C3002 C3001 1.334 . S
C3002 C3003 1.287 . S
C3003 C3002 1.287 . S
C3003 C3004 1.524 . S
C3003 H3022 0.913 . S
C3004 H2980 0.950 . S
C3004 C3003 1.524 . S
C3004 C3005 1.415 . S
C3005 H2981 0.950 . S
C3005 C3000 1.363 . S
C3005 C3004 1.415 . S
C3006 H2982 0.951 . S
C3006 C3007 1.366 . S
C3006 C3008 1.388 . S
C3007 C3006 1.366 . S
C3007 C3011 1.385 . S
C3008 H2983 0.951 . S
C3008 C3006 1.388 . S
C3008 C3009 1.366 . S
C3009 C3008 1.366 . S
C3009 C3010 1.414 . S
C3009 C3012 1.499 . S
C3010 H2984 0.950 . S
C3010 C3009 1.414 . S
C3010 C3011 1.374 . S
C3011 H2985 0.950 . S
C3011 C3007 1.385 . S
C3011 C3010 1.374 . S
C3012 C3009 1.499 . S
C3012 C3013 1.373 . S
C3012 C3014 1.389 . S
C3013 H2986 0.950 . S
C3013 C2999 1.377 . S
C3013 C3012 1.373 . S
C3014 C2998 1.377 . S
C3014 C3012 1.389 . S
C3014 C3015 1.524 . S
C3015 C3014 1.524 . S
C3015 C3016 1.397 . S
C3015 C3020 1.363 . S
C3016 H2987 0.950 . S
C3016 C3015 1.397 . S
C3016 C3017 1.334 . S
C3017 H2988 0.950 . S
C3017 C3016 1.334 . S
C3017 C3018 1.287 . S
C3018 C3017 1.287 . S
C3018 C3019 1.524 . S
C3018 H3021 0.999 . S
C3019 H2989 0.950 . S
C3019 C3018 1.524 . S
C3019 C3020 1.415 . S
C3020 H2990 0.950 . S
C3020 C3015 1.363 . S
C3020 C3019 1.415 . S
H3021 C3018 0.999 . S
H3022 C3003 0.913 . S
H3023 C3041 0.951 . S
H3024 C3043 0.951 . S
H3025 C3045 0.950 . S
H3026 C3046 0.950 . S
H3027 C3048 0.950 . S
H3028 C3051 0.950 . S
H3029 C3052 0.950 . S
H3030 C3054 0.950 . S
H3031 C3055 0.950 . S
H3032 C3056 0.951 . S
H3033 C3058 0.951 . S
H3034 C3060 0.950 . S
H3035 C3061 0.950 . S
H3036 C3063 0.950 . S
H3037 C3066 0.950 . S
H3038 C3067 0.950 . S
H3039 C3069 0.950 . S
H3040 C3070 0.950 . S
C3041 H3023 0.951 . S
C3041 C3042 1.366 . S
C3041 C3043 1.388 . S
C3042 C3041 1.366 . S
C3042 C3046 1.385 . S
C3043 H3024 0.951 . S
C3043 C3041 1.388 . S
C3043 C3044 1.366 . S
C3044 C3043 1.366 . S
C3044 C3045 1.414 . S
C3044 C3047 1.499 . S
C3045 H3025 0.950 . S
C3045 C3044 1.414 . S
C3045 C3046 1.374 . S
C3046 H3026 0.950 . S
C3046 C3042 1.385 . S
C3046 C3045 1.374 . S
C3047 C3044 1.499 . S
C3047 C3048 1.373 . S
C3047 C3049 1.389 . S
C3048 H3027 0.950 . S
C3048 C3047 1.373 . S
C3048 C3064 1.377 . S
C3049 C3047 1.389 . S
C3049 C3050 1.524 . S
C3049 C3063 1.377 . S
C3050 C3049 1.524 . S
C3050 C3051 1.397 . S
C3050 C3055 1.363 . S
C3051 H3028 0.950 . S
C3051 C3050 1.397 . S
C3051 C3052 1.334 . S
C3052 H3029 0.950 . S
C3052 C3051 1.334 . S
C3052 C3053 1.287 . S
C3053 C3052 1.287 . S
C3053 C3054 1.524 . S
C3053 H3072 0.913 . S
C3054 H3030 0.950 . S
C3054 C3053 1.524 . S
C3054 C3055 1.415 . S
C3055 H3031 0.950 . S
C3055 C3050 1.363 . S
C3055 C3054 1.415 . S
C3056 H3032 0.951 . S
C3056 C3057 1.366 . S
C3056 C3058 1.388 . S
C3057 C3056 1.366 . S
C3057 C3061 1.385 . S
C3058 H3033 0.951 . S
C3058 C3056 1.388 . S
C3058 C3059 1.366 . S
C3059 C3058 1.366 . S
C3059 C3060 1.414 . S
C3059 C3062 1.499 . S
C3060 H3034 0.950 . S
C3060 C3059 1.414 . S
C3060 C3061 1.374 . S
C3061 H3035 0.950 . S
C3061 C3057 1.385 . S
C3061 C3060 1.374 . S
C3062 C3059 1.499 . S
C3062 C3063 1.373 . S
C3062 C3064 1.389 . S
C3063 H3036 0.950 . S
C3063 C3049 1.377 . S
C3063 C3062 1.373 . S
C3064 C3048 1.377 . S
C3064 C3062 1.389 . S
C3064 C3065 1.524 . S
C3065 C3064 1.524 . S
C3065 C3066 1.397 . S
C3065 C3070 1.363 . S
C3066 H3037 0.950 . S
C3066 C3065 1.397 . S
C3066 C3067 1.334 . S
C3067 H3038 0.950 . S
C3067 C3066 1.334 . S
C3067 C3068 1.287 . S
C3068 C3067 1.287 . S
C3068 C3069 1.524 . S
C3068 H3071 0.999 . S
C3069 H3039 0.950 . S
C3069 C3068 1.524 . S
C3069 C3070 1.415 . S
C3070 H3040 0.950 . S
C3070 C3065 1.363 . S
C3070 C3069 1.415 . S
H3071 C3068 0.999 . S
H3072 C3053 0.913 . S
H3073 C3091 0.951 . S
H3074 C3093 0.951 . S
H3075 C3095 0.950 . S
H3076 C3096 0.950 . S
H3077 C3098 0.950 . S
H3078 C3101 0.950 . S
H3079 C3102 0.950 . S
H3080 C3104 0.950 . S
H3081 C3105 0.950 . S
H3082 C3106 0.951 . S
H3083 C3108 0.951 . S
H3084 C3110 0.950 . S
H3085 C3111 0.950 . S
H3086 C3113 0.950 . S
H3087 C3116 0.950 . S
H3088 C3117 0.950 . S
H3089 C3119 0.950 . S
H3090 C3120 0.950 . S
C3091 H3073 0.951 . S
C3091 C3092 1.366 . S
C3091 C3093 1.388 . S
C3092 C3091 1.366 . S
C3092 C3096 1.385 . S
C3093 H3074 0.951 . S
C3093 C3091 1.388 . S
C3093 C3094 1.366 . S
C3094 C3093 1.366 . S
C3094 C3095 1.414 . S
C3094 C3097 1.499 . S
C3095 H3075 0.950 . S
C3095 C3094 1.414 . S
C3095 C3096 1.374 . S
C3096 H3076 0.950 . S
C3096 C3092 1.385 . S
C3096 C3095 1.374 . S
C3097 C3094 1.499 . S
C3097 C3098 1.373 . S
C3097 C3099 1.389 . S
C3098 H3077 0.950 . S
C3098 C3097 1.373 . S
C3098 C3114 1.377 . S
C3099 C3097 1.389 . S
C3099 C3100 1.524 . S
C3099 C3113 1.377 . S
C3100 C3099 1.524 . S
C3100 C3101 1.397 . S
C3100 C3105 1.363 . S
C3101 H3078 0.950 . S
C3101 C3100 1.397 . S
C3101 C3102 1.334 . S
C3102 H3079 0.950 . S
C3102 C3101 1.334 . S
C3102 C3103 1.287 . S
C3103 C3102 1.287 . S
C3103 C3104 1.524 . S
C3103 H3122 0.913 . S
C3104 H3080 0.950 . S
C3104 C3103 1.524 . S
C3104 C3105 1.415 . S
C3105 H3081 0.950 . S
C3105 C3100 1.363 . S
C3105 C3104 1.415 . S
C3106 H3082 0.951 . S
C3106 C3107 1.366 . S
C3106 C3108 1.388 . S
C3107 C3106 1.366 . S
C3107 C3111 1.385 . S
C3108 H3083 0.951 . S
C3108 C3106 1.388 . S
C3108 C3109 1.366 . S
C3109 C3108 1.366 . S
C3109 C3110 1.414 . S
C3109 C3112 1.499 . S
C3110 H3084 0.950 . S
C3110 C3109 1.414 . S
C3110 C3111 1.374 . S
C3111 H3085 0.950 . S
C3111 C3107 1.385 . S
C3111 C3110 1.374 . S
C3112 C3109 1.499 . S
C3112 C3113 1.373 . S
C3112 C3114 1.389 . S
C3113 H3086 0.950 . S
C3113 C3099 1.377 . S
C3113 C3112 1.373 . S
C3114 C3098 1.377 . S
C3114 C3112 1.389 . S
C3114 C3115 1.524 . S
C3115 C3114 1.524 . S
C3115 C3116 1.397 . S
C3115 C3120 1.363 . S
C3116 H3087 0.950 . S
C3116 C3115 1.397 . S
C3116 C3117 1.334 . S
C3117 H3088 0.950 . S
C3117 C3116 1.334 . S
C3117 C3118 1.287 . S
C3118 C3117 1.287 . S
C3118 C3119 1.524 . S
C3118 H3121 0.999 . S
C3119 H3089 0.950 . S
C3119 C3118 1.524 . S
C3119 C3120 1.415 . S
C3120 H3090 0.950 . S
C3120 C3115 1.363 . S
C3120 C3119 1.415 . S
H3121 C3118 0.999 . S
H3122 C3103 0.913 . S
C442 N170 1.877 . S
C457 C251 1.791 . S
C492 N184 0.906 . S
C507 C272 0.886 . S
C542 N158 1.471 . S
C557 C294 1.284 . S
C592 N145 1.471 . S
C607 C273 1.274 . S
C657 C293 0.884 . S
C642 N119 0.908 1_554 S
C692 N131 1.823 . S
C707 C252 1.574 . S
C757 C247 1.400 . S
C742 N144 1.466 . S
C807 C268 1.179 1_554 S
C792 N118 1.218 . S
C842 N132 1.438 . S
C857 C291 1.276 . S
C892 N171 1.401 . S
C907 C270 1.262 1_554 S
C942 N183 1.187 . S
C957 C289 1.147 . S
C1007 C249 1.271 . S
C992 N157 1.473 . S
C1057 C314 1.791 . S
C1042 N14 1.877 . S
C1092 N28 0.908 . S
C1107 C335 0.887 . S
C1142 N2 1.471 . S
C1157 C357 1.283 . S
C1192 N223 1.467 . S
C1207 C336 1.275 . S
C1242 N197 0.909 . S
C1257 C356 0.885 . S
C1292 N209 1.823 . S
C1307 C315 1.574 . S
C1342 N222 1.465 . S
C1357 C310 1.400 . S
C1392 N196 1.218 . S
C1407 C331 1.177 . S
C1457 C354 1.276 . S
C1442 N210 1.422 . S
C1492 N15 1.400 . S
C1507 C333 1.261 . S
C1557 C352 1.147 . S
C1542 N27 1.187 . S
C1592 N1 1.473 . S
C1607 C312 1.271 . S
C1657 C377 1.790 . S
C1642 N92 1.877 . S
C1692 N106 0.908 . S
C1707 C398 0.887 . S
C1757 C420 1.282 . S
C1742 N80 1.470 . S
C1807 C399 1.274 . S
C1792 N67 1.467 . S
C1857 C419 0.886 . S
C1842 N41 0.907 . S
C1892 N53 1.822 . S
C1907 C378 1.572 . S
C1942 N66 1.465 . S
C1957 C373 1.399 . S
C1992 N40 1.218 . S
C2007 C394 1.178 . S
C2057 C417 1.276 . S
C2042 N54 1.423 . S
C2092 N93 1.401 . S
C2107 C396 1.262 . S
C2142 N105 1.187 . S
C2157 C415 1.146 . S
C2192 N79 1.473 . S
C2207 C375 1.270 . S
C2242 N200 1.145 . S
C2257 C250 1.116 . S
C2307 C271 1.784 . S
C2292 N213 1.802 . S
C2342 N226 1.473 . S
C2357 C290 1.471 . S
C2392 N83 1.539 . S
C2407 C269 1.535 1_655 S
C2442 N96 1.832 . S
C2457 C292 1.810 . S
C2507 C248 1.242 . S
C2492 N109 1.250 . S
C2542 N44 1.145 . S
C2557 C313 1.116 . S
C2592 N57 1.802 . S
C2607 C334 1.784 . S
C2642 N70 1.473 . S
C2657 C353 1.470 . S
C2692 N161 1.538 . S
C2707 C332 1.534 . S
C2757 C355 1.810 . S
C2742 N174 1.832 . S
C2792 N187 1.251 . S
C2807 C311 1.243 . S
C2842 N122 1.145 . S
C2857 C376 1.117 . S
C2892 N135 1.802 . S
C2907 C397 1.783 . S
C2957 C416 1.470 . S
C2942 N148 1.473 . S
C2992 N5 1.538 . S
C3007 C395 1.534 . S
C3042 N18 1.832 . S
C3057 C418 1.810 . S
C3092 N31 1.251 . S
C3107 C374 1.243 . S
