# Generated by pormake.
# Topology zzz, (3,6)-cn, num edge types: 1
# Building blocks:
#     Node 0, Type 0, BuildingBlock: ESEHIV_clean_linker_0, # of connection points: 3
#     Node 1, Type 0, BuildingBlock: ESEHIV_clean_linker_0, # of connection points: 3
#     Node 2, Type 0, BuildingBlock: ESEHIV_clean_linker_0, # of connection points: 3
#     Node 3, Type 0, BuildingBlock: ESEHIV_clean_linker_0, # of connection points: 3
#     Node 4, Type 0, BuildingBlock: ESEHIV_clean_linker_0, # of connection points: 3
#     Node 5, Type 0, BuildingBlock: ESEHIV_clean_linker_0, # of connection points: 3
#     Node 6, Type 0, BuildingBlock: ESEHIV_clean_linker_0, # of connection points: 3
#     Node 7, Type 0, BuildingBlock: ESEHIV_clean_linker_0, # of connection points: 3
#     Node 8, Type 1, BuildingBlock: INOVEN_clean_sbu_0, # of connection points: 6
#     Node 9, Type 1, BuildingBlock: INOVEN_clean_sbu_0, # of connection points: 6
#     Node 10, Type 1, BuildingBlock: INOVEN_clean_sbu_0, # of connection points: 6
#     Node 11, Type 1, BuildingBlock: INOVEN_clean_sbu_0, # of connection points: 6
#     Edge 12, Type (0, 1), BuildingBlock: KIFKEQ_clean_linker_1, # of connection points: 2
#     Edge 13, Type (0, 1), BuildingBlock: KIFKEQ_clean_linker_1, # of connection points: 2
#     Edge 14, Type (0, 1), BuildingBlock: KIFKEQ_clean_linker_1, # of connection points: 2
#     Edge 15, Type (0, 1), BuildingBlock: KIFKEQ_clean_linker_1, # of connection points: 2
#     Edge 16, Type (0, 1), BuildingBlock: KIFKEQ_clean_linker_1, # of connection points: 2
#     Edge 17, Type (0, 1), BuildingBlock: KIFKEQ_clean_linker_1, # of connection points: 2
#     Edge 18, Type (0, 1), BuildingBlock: KIFKEQ_clean_linker_1, # of connection points: 2
#     Edge 19, Type (0, 1), BuildingBlock: KIFKEQ_clean_linker_1, # of connection points: 2
#     Edge 20, Type (0, 1), BuildingBlock: KIFKEQ_clean_linker_1, # of connection points: 2
#     Edge 21, Type (0, 1), BuildingBlock: KIFKEQ_clean_linker_1, # of connection points: 2
#     Edge 22, Type (0, 1), BuildingBlock: KIFKEQ_clean_linker_1, # of connection points: 2
#     Edge 23, Type (0, 1), BuildingBlock: KIFKEQ_clean_linker_1, # of connection points: 2
#     Edge 24, Type (0, 1), BuildingBlock: KIFKEQ_clean_linker_1, # of connection points: 2
#     Edge 25, Type (0, 1), BuildingBlock: KIFKEQ_clean_linker_1, # of connection points: 2
#     Edge 26, Type (0, 1), BuildingBlock: KIFKEQ_clean_linker_1, # of connection points: 2
#     Edge 27, Type (0, 1), BuildingBlock: KIFKEQ_clean_linker_1, # of connection points: 2
#     Edge 28, Type (0, 1), BuildingBlock: KIFKEQ_clean_linker_1, # of connection points: 2
#     Edge 29, Type (0, 1), BuildingBlock: KIFKEQ_clean_linker_1, # of connection points: 2
#     Edge 30, Type (0, 1), BuildingBlock: KIFKEQ_clean_linker_1, # of connection points: 2
#     Edge 31, Type (0, 1), BuildingBlock: KIFKEQ_clean_linker_1, # of connection points: 2
#     Edge 32, Type (0, 1), BuildingBlock: KIFKEQ_clean_linker_1, # of connection points: 2
#     Edge 33, Type (0, 1), BuildingBlock: KIFKEQ_clean_linker_1, # of connection points: 2
#     Edge 34, Type (0, 1), BuildingBlock: KIFKEQ_clean_linker_1, # of connection points: 2
#     Edge 35, Type (0, 1), BuildingBlock: KIFKEQ_clean_linker_1, # of connection points: 2
# Relax obj value: 0.482
# Max RMSD: 0.262
# Mean RMSD: 0.252
data_MOF--net-zzz--node1-INOVEN_clean_sbu_0--node2-ESEHIV_clean_linker_0--edge1-KIFKEQ_clean_linker_1
_symmetry_space_group_name_H-M    P1
_symmetry_Int_Tables_number       1
_symmetry_cell_setting            triclinic
loop_
_symmetry_equiv_pos_as_xyz
'x, y, z'
_cell_length_a     45.874052
_cell_length_b     46.016372
_cell_length_c     14.372922
_cell_angle_alpha  89.786085
_cell_angle_beta   89.922276
_cell_angle_gamma 89.966557
loop_
_atom_site_label
_atom_site_type_symbol
_atom_site_fract_x
_atom_site_fract_y
_atom_site_fract_z
_atom_type_partial_charge
H0 H 0.79585 0.45329 0.39148 0.0
H1 H 0.71758 0.44471 0.23064 0.0
H2 H 0.73271 0.52198 0.39326 0.0
C3 C 0.77449 0.46114 0.37131 0.0
C4 C 0.76566 0.48838 0.40397 0.0
C5 C 0.75769 0.4453 0.30772 0.0
C6 C 0.73072 0.45674 0.27979 0.0
C7 C 0.72133 0.48439 0.30949 0.0
C8 C 0.73928 0.50049 0.37094 0.0
H9 H 0.09351 0.79183 0.36552 0.0
H10 H 0.0873 0.71618 0.19442 0.0
H11 H 0.02114 0.73305 0.40105 0.0
C12 C 0.08276 0.77148 0.34927 0.0
C13 C 0.05668 0.76423 0.39505 0.0
C14 C 0.09357 0.75458 0.27623 0.0
C15 C 0.07905 0.72908 0.25177 0.0
C16 C 0.05324 0.72077 0.29715 0.0
C17 C 0.04154 0.73879 0.36773 0.0
H18 H 0.74627 0.08895 0.40104 0.0
H19 H 0.81955 0.08655 0.21592 0.0
H20 H 0.80261 1.01416 0.3995 0.0
C21 C 0.76622 0.07849 0.3781 0.0
C22 C 0.77303 0.05075 0.41262 0.0
C23 C 0.78244 0.09127 0.30616 0.0
C24 C 0.80727 0.07699 0.27287 0.0
C25 C 0.81513 0.04949 0.3073 0.0
C26 C 0.79756 0.03598 0.37604 0.0
H27 H 0.44448 0.742 0.37015 0.0
H28 H 0.51596 0.80172 0.40585 0.0
H29 H 0.44953 0.81837 0.20005 0.0
C30 C 0.45491 0.76258 0.35409 0.0
C31 C 0.44385 0.77958 0.28137 0.0
C32 C 0.48088 0.77006 0.39968 0.0
C33 C 0.49563 0.79581 0.37268 0.0
C34 C 0.48363 0.81394 0.30262 0.0
C35 C 0.45796 0.8054 0.25723 0.0
H36 H 0.24264 0.58767 0.10732 0.0
H37 H 0.31767 0.59015 0.28349 0.0
H38 H 0.30267 0.51575 0.10732 0.0
C39 C 0.26318 0.57819 0.1293 0.0
C40 C 0.271 0.55063 0.09632 0.0
C41 C 0.2796 0.59224 0.19754 0.0
C42 C 0.3054 0.57941 0.2291 0.0
C43 C 0.31451 0.55211 0.19587 0.0
C44 C 0.29663 0.53725 0.13099 0.0
H45 H 0.94474 0.24128 0.1358 0.0
H46 H 0.95078 0.31651 0.30895 0.0
H47 H 1.01658 0.3007 0.10025 0.0
C48 C 0.95539 0.26166 0.15244 0.0
C49 C 0.98133 0.26921 0.10637 0.0
C50 C 0.94459 0.27828 0.22611 0.0
C51 C 0.95902 0.3038 0.25115 0.0
C52 C 0.98466 0.31243 0.20534 0.0
C53 C 0.99632 0.2947 0.13396 0.0
H54 H 0.29428 0.94744 0.10585 0.0
H55 H 0.2195 0.94431 0.28372 0.0
H56 H 0.23302 0.01829 0.10264 0.0
C57 C 0.27356 0.95662 0.12756 0.0
C58 C 0.26524 0.98392 0.09313 0.0
C59 C 0.25749 0.94254 0.19704 0.0
C60 C 0.2315 0.95503 0.22833 0.0
C61 C 0.22187 0.98205 0.19353 0.0
C62 C 0.23942 0.99697 0.12742 0.0
H63 H 0.5945 0.2913 0.12654 0.0
H64 H 0.52259 0.23172 0.09824 0.0
H65 H 0.59049 0.21548 0.29939 0.0
C66 C 0.58415 0.27079 0.14402 0.0
C67 C 0.59569 0.25401 0.21649 0.0
C68 C 0.55784 0.26324 0.10058 0.0
C69 C 0.54318 0.23765 0.12964 0.0
C70 C 0.55564 0.2197 0.19934 0.0
C71 C 0.58169 0.22829 0.24241 0.0
Gd72 Gd 0.04089 1.01208 0.82037 0.0
Gd73 Gd 0.99725 0.02156 0.68215 0.0
C74 C 0.0204 0.95712 0.69477 0.0
C75 C 0.07364 0.99531 0.95693 0.0
C76 C 0.09549 0.97267 0.97452 0.0
C77 C 0.11229 0.96092 0.90212 0.0
C78 C 0.09853 0.96168 0.06474 0.0
C79 C 0.13303 0.9253 1.00919 0.0
C80 C 0.11697 0.9382 0.08196 0.0
C81 C 0.1311 0.93757 0.91946 0.0
C82 C 0.06458 0.02687 0.65248 0.0
C83 C 1.01804 0.0767 0.80637 0.0
C84 C 0.96384 0.03785 0.54661 0.0
C85 C 0.94184 0.0603 0.52869 0.0
C86 C 0.92479 0.07192 0.60072 0.0
C87 C 0.93887 0.07121 0.43838 0.0
C88 C 0.90395 0.1073 0.49306 0.0
C89 C 0.92025 0.09451 0.42067 0.0
C90 C 0.90581 0.09509 0.58289 0.0
C91 C 0.97405 1.00693 0.85089 0.0
O92 O 0.03088 0.96532 0.77633 0.0
O93 O 1.01006 0.9768 0.63691 0.0
O94 O 0.081 1.01574 0.89822 0.0
O95 O 0.04686 0.98629 0.94551 0.0
O96 O 0.0733 0.03653 0.73202 0.0
O97 O 0.04362 1.00954 0.66517 0.0
O98 O 1.00734 0.06838 0.72521 0.0
O99 O 0.02846 0.05709 0.86442 0.0
O100 O 0.95678 0.01761 0.60637 0.0
O101 O 0.99063 0.04702 0.55665 0.0
O102 O 0.96562 0.99646 0.77209 0.0
O103 O 0.99465 0.02455 0.83698 0.0
H104 H 0.11028 0.96926 0.83181 0.0
H105 H 0.08576 0.97055 0.12143 0.0
H106 H 0.11719 0.92922 0.15166 0.0
H107 H 0.14337 0.92859 0.86196 0.0
H108 H 0.92674 0.06363 0.6711 0.0
H109 H 0.95184 0.06244 0.38199 0.0
H110 H 0.92007 0.10344 0.35091 0.0
H111 H 0.89337 0.10403 0.64012 0.0
Gd112 Gd 0.52777 0.03691 0.8315 0.0
Gd113 Gd 0.5104 0.99924 0.68012 0.0
C114 C 0.57934 1.01346 0.70867 0.0
C115 C 0.53737 0.06646 0.98087 0.0
C116 C 0.55986 0.08721 1.01099 0.0
C117 C 0.56878 0.11046 0.95384 0.0
C118 C 0.57386 0.08263 0.09619 0.0
C119 C 0.60682 0.12299 0.06452 0.0
C120 C 0.59721 0.10014 0.12238 0.0
C121 C 0.59198 0.12828 0.98063 0.0
C122 C 0.52851 0.06436 0.66421 0.0
C123 C 0.45878 0.02288 0.80237 0.0
C124 C 0.50119 0.96959 0.53066 0.0
C125 C 0.47909 0.9486 0.4994 0.0
C126 C 0.47037 0.92505 0.55556 0.0
C127 C 0.46538 0.95315 0.41369 0.0
C128 C 0.43309 0.91209 0.44277 0.0
C129 C 0.4425 0.93527 0.38598 0.0
C130 C 0.44764 0.90686 0.52722 0.0
C131 C 0.50969 0.97191 0.84751 0.0
O132 O 0.57293 0.02214 0.79362 0.0
O133 O 0.5583 1.0074 0.6491 0.0
O134 O 0.51976 0.07512 0.91493 0.0
O135 O 0.54604 0.03958 0.97029 0.0
O136 O 0.54783 0.06784 0.72859 0.0
O137 O 0.50884 0.04708 0.69159 0.0
O138 O 0.46525 1.01416 0.7175 0.0
O139 O 0.47979 0.02891 0.86215 0.0
O140 O 0.51871 0.96105 0.59697 0.0
O141 O 0.49218 0.99636 0.54131 0.0
O142 O 0.49029 0.96846 0.78334 0.0
O143 O 0.52942 0.98908 0.81982 0.0
H144 H 0.55835 0.11445 0.88743 0.0
H145 H 0.56739 0.06481 0.14117 0.0
H146 H 0.60845 0.09495 0.18652 0.0
H147 H 0.5987 0.14576 0.93473 0.0
H148 H 0.48059 0.92107 0.62229 0.0
H149 H 0.47173 0.9712 0.36945 0.0
H150 H 0.43145 0.94044 0.32148 0.0
H151 H 0.44104 0.88915 0.57235 0.0
Gd152 Gd 0.49713 0.52127 0.82032 0.0
Gd153 Gd 0.53972 0.51129 0.67763 0.0
C154 C 0.51767 0.57614 0.69329 0.0
C155 C 0.46559 0.53825 0.95936 0.0
C156 C 0.44397 0.56099 0.97788 0.0
C157 C 0.427 0.57299 0.90616 0.0
C158 C 0.44128 0.5718 0.06819 0.0
C159 C 0.40675 0.60845 1.01405 0.0
C160 C 0.423 0.59533 0.08616 0.0
C161 C 0.40836 0.59638 0.92424 0.0
C162 C 0.47212 0.50715 0.65426 0.0
C163 C 0.51922 0.45642 0.80481 0.0
C164 C 0.57127 0.49455 0.53826 0.0
C165 C 0.59307 0.47206 0.51837 0.0
C166 C 0.61108 0.46067 0.58852 0.0
C167 C 0.59503 0.46102 0.42816 0.0
C168 C 0.63107 0.42544 0.47937 0.0
C169 C 0.61368 0.4379 0.40883 0.0
C170 C 0.63009 0.43769 0.569 0.0
C171 C 0.56457 0.52549 0.84377 0.0
O172 O 0.50761 0.56787 0.77557 0.0
O173 O 0.5273 0.55649 0.63435 0.0
O174 O 0.4577 0.51777 0.90211 0.0
O175 O 0.49231 0.54716 0.94518 0.0
O176 O 0.46366 0.4976 0.73453 0.0
O177 O 0.49344 0.5241 0.66531 0.0
O178 O 0.52933 0.46467 0.72255 0.0
O179 O 0.50951 0.47607 0.86362 0.0
O180 O 0.57911 0.51498 0.59574 0.0
O181 O 0.54465 0.48541 0.55274 0.0
O182 O 0.57309 0.53504 0.76358 0.0
O183 O 0.54336 0.50842 0.83257 0.0
H184 H 0.42874 0.56479 0.8358 0.0
H185 H 0.4542 0.56275 0.12436 0.0
H186 H 0.42302 0.60414 0.15587 0.0
H187 H 0.39593 0.60553 0.86725 0.0
H188 H 0.60993 0.46906 0.65877 0.0
H189 H 0.58132 0.46961 0.37317 0.0
H190 H 0.61315 0.42889 0.3394 0.0
H191 H 0.64337 0.42902 0.62479 0.0
Gd192 Gd 1.00916 0.4985 0.81989 0.0
Gd193 Gd 0.02771 0.53737 0.67454 0.0
C194 C 0.95848 0.52429 0.69873 0.0
C195 C 0.99814 0.4659 0.96268 0.0
C196 C 0.9755 0.44412 0.98191 0.0
C197 C 0.96114 0.43007 0.90848 0.0
C198 C 0.96642 0.43905 0.07356 0.0
C199 C 0.92701 0.40836 0.01766 0.0
C200 C 0.94233 0.42128 0.09135 0.0
C201 C 0.93706 0.41234 0.92621 0.0
C202 C 1.00911 0.47287 0.64979 0.0
C203 C 0.07833 0.51246 0.79811 0.0
C204 C 0.03784 0.56848 0.52782 0.0
C205 C 0.06003 0.58964 0.49789 0.0
C206 C 0.06876 0.61276 0.55525 0.0
C207 C 0.07366 0.58579 0.41172 0.0
C208 C 0.10586 0.62672 0.44239 0.0
C209 C 0.09645 0.60395 0.38455 0.0
C210 C 0.09142 0.63122 0.5275 0.0
C211 C 0.02783 0.56322 0.84387 0.0
O212 O 0.96443 0.51485 0.78329 0.0
O213 O 0.9799 0.53024 0.64021 0.0
O214 O 1.01705 0.45906 0.89837 0.0
O215 O 0.98895 0.49272 0.9553 0.0
O216 O 0.98901 0.46969 0.71184 0.0
O217 O 0.02896 0.48934 0.68017 0.0
O218 O 0.07252 0.52178 0.71328 0.0
O219 O 0.05681 0.50617 0.85606 0.0
O220 O 0.02019 0.57652 0.59436 0.0
O221 O 0.04671 0.5416 0.53689 0.0
O222 O 0.04762 0.5669 0.78085 0.0
O223 O 1.008 0.54654 0.81422 0.0
H224 H 0.96777 0.43369 0.83712 0.0
H225 H 0.97714 0.44985 0.13096 0.0
H226 H 0.93454 0.41914 0.16222 0.0
H227 H 0.92545 0.40283 0.86823 0.0
H228 H 0.05857 0.61618 0.62235 0.0
H229 H 0.06728 0.56811 0.36651 0.0
H230 H 0.10742 0.59931 0.31952 0.0
H231 H 0.09803 0.64859 0.57348 0.0
H232 H 0.16966 0.95501 0.21656 0.0
H233 H 0.21252 0.03686 0.26448 0.0
H234 H 0.12934 0.96974 0.31477 0.0
H235 H 0.17127 0.05264 0.36009 0.0
H236 H 0.11914 0.04983 0.63569 0.0
H237 H 0.15379 0.04336 0.50957 0.0
H238 H 0.08852 0.99682 0.35263 0.0
H239 H 0.05428 1.00219 0.48196 0.0
C240 C 0.17004 0.97656 0.24632 0.0
C241 C 0.19454 0.99454 0.23372 0.0
C242 C 0.1467 0.98521 0.30252 0.0
C243 C 0.14696 1.01232 0.34764 0.0
C244 C 0.17048 0.03129 0.32885 0.0
C245 C 0.19401 0.02248 0.27269 0.0
C246 C 0.11206 0.03847 0.57386 0.0
C247 C 0.08402 0.02623 0.56947 0.0
C248 C 0.13195 0.03494 0.50066 0.0
C249 C 0.12432 0.01933 0.42011 0.0
C250 C 0.09562 1.00842 0.41393 0.0
C251 C 0.07581 1.01167 0.48785 0.0
H252 H 0.50694 0.21354 0.30809 0.0
H253 H 0.57573 0.16514 0.17603 0.0
H254 H 0.49596 0.17147 0.408 0.0
H255 H 0.56499 0.12324 0.27547 0.0
H256 H 0.57484 0.08822 0.57801 0.0
H257 H 0.57554 0.12176 0.4468 0.0
H258 H 0.48183 0.11624 0.42634 0.0
H259 H 0.48125 0.08178 0.55833 0.0
C260 C 0.51872 0.19342 0.29731 0.0
C261 C 0.54201 0.19242 0.23374 0.0
C262 C 0.51259 0.16938 0.3549 0.0
C263 C 0.52989 0.14412 0.35041 0.0
C264 C 0.55145 0.14242 0.28103 0.0
C265 C 0.55742 0.16626 0.22346 0.0
C266 C 0.55439 0.0938 0.54481 0.0
C267 C 0.52802 0.08239 0.57845 0.0
C268 C 0.55478 0.11294 0.46916 0.0
C269 C 0.52874 0.12164 0.42566 0.0
C270 C 0.50224 0.10994 0.45837 0.0
C271 C 0.50191 0.09015 0.53344 0.0
H272 H 0.32295 0.49769 0.27216 0.0
H273 H 0.36731 0.57822 0.21402 0.0
H274 H 0.36408 0.4819 0.36829 0.0
H275 H 0.40752 0.56356 0.31288 0.0
H276 H 0.48232 0.53096 0.48171 0.0
H277 H 0.44787 0.53625 0.35311 0.0
H278 H 0.38216 0.49176 0.51592 0.0
H279 H 0.41702 0.48532 0.64131 0.0
C280 C 0.34177 0.51176 0.27828 0.0
C281 C 0.3417 0.53937 0.23626 0.0
C282 C 0.36523 0.50297 0.33477 0.0
C283 C 0.38916 0.52163 0.35092 0.0
C284 C 0.38985 0.54834 0.3028 0.0
C285 C 0.36657 0.55695 0.24621 0.0
C286 C 0.46064 0.52192 0.48909 0.0
C287 C 0.45239 0.50792 0.57207 0.0
C288 C 0.4407 0.52514 0.41557 0.0
C289 C 0.41182 0.51475 0.42349 0.0
C290 C 0.40412 0.49975 0.50559 0.0
C291 C 0.42413 0.49625 0.57838 0.0
H292 H 0.96711 0.3673 0.16892 0.0
H293 H 0.03109 0.31847 0.32287 0.0
H294 H 0.97764 0.41026 0.263 0.0
H295 H 0.04179 0.36155 0.41737 0.0
H296 H 0.05761 0.45199 0.55655 0.0
H297 H 0.05803 0.41585 0.43009 0.0
H298 H 0.96392 0.41565 0.42995 0.0
H299 H 0.9636 0.4509 0.55566 0.0
C300 C 0.98438 0.36621 0.22012 0.0
C301 C 0.99855 0.33972 0.23774 0.0
C302 C 0.99019 0.39067 0.27463 0.0
C303 C 1.01027 0.38927 0.34836 0.0
C304 C 0.02634 0.36346 0.36075 0.0
C305 C 0.02038 0.33882 0.30628 0.0
C306 C 0.03711 0.44449 0.52808 0.0
C307 C 1.01055 0.45423 0.56584 0.0
C308 C 0.03734 0.4237 0.45624 0.0
C309 C 1.01101 0.41293 0.41949 0.0
C310 C 0.9846 0.42369 0.45541 0.0
C311 C 0.9844 0.44383 0.52789 0.0
H312 H 0.87292 0.05211 0.35164 0.0
H313 H 0.81288 1.01592 0.15357 0.0
H314 H 0.91402 0.03738 0.25341 0.0
H315 H 0.85334 1.00223 0.05311 0.0
H316 H 0.92976 0.96976 0.89357 0.0
H317 H 0.89373 0.9741 0.0176 0.0
H318 H 0.93679 0.05181 0.11502 0.0
H319 H 0.97353 0.04643 0.99347 0.0
C320 C 0.86865 0.04022 0.2882 0.0
C321 C 0.83983 0.03449 0.26109 0.0
C322 C 0.89213 0.0322 0.23085 0.0
C323 C 0.8873 0.0187 0.14417 0.0
C324 C 0.8583 1.01201 0.11957 0.0
C325 C 0.83495 0.0198 0.17726 0.0
C326 C 0.93176 0.98748 0.94257 0.0
C327 C 0.95441 1.00782 0.93329 0.0
C328 C 0.9109 0.99018 1.01345 0.0
C329 C 0.9118 1.01359 0.0764 0.0
C330 C 0.9353 0.03327 0.06915 0.0
C331 C 0.95641 0.03031 0.9989 0.0
H332 H 0.46415 0.86845 0.33219 0.0
H333 H 0.53179 0.82063 0.19214 0.0
H334 H 0.47467 0.91105 0.23553 0.0
H335 H 0.54257 0.8634 0.09517 0.0
H336 H 0.5573 0.95357 0.95001 0.0
H337 H 0.55708 0.91843 0.08012 0.0
H338 H 0.4632 0.91413 0.0651 0.0
H339 H 0.46354 0.94835 0.9356 0.0
C340 C 0.48219 0.86757 0.28363 0.0
C341 C 0.49735 0.84141 0.27033 0.0
C342 C 0.48802 0.89183 0.22765 0.0
C343 C 0.50918 0.89053 0.15691 0.0
C344 C 0.52625 0.86519 0.14938 0.0
C345 C 0.52025 0.84075 0.20531 0.0
C346 C 0.53668 0.94534 0.97575 0.0
C347 C 0.51042 0.95361 0.93266 0.0
C348 C 0.53656 0.92516 0.04974 0.0
C349 C 0.51011 0.91357 0.08336 0.0
C350 C 0.48393 0.92284 0.042 0.0
C351 C 0.48411 0.94236 0.96735 0.0
H352 H 0.71227 0.5381 0.22967 0.0
H353 H 0.66867 0.45749 0.29255 0.0
H354 H 0.67128 0.55276 0.13156 0.0
H355 H 0.62862 0.47097 0.19109 0.0
H356 H 0.55406 0.50201 0.01664 0.0
H357 H 0.58813 0.49744 0.14658 0.0
H358 H 0.65401 0.54185 0.98424 0.0
H359 H 0.61953 0.54758 0.85754 0.0
C360 C 0.69365 0.52375 0.22408 0.0
C361 C 0.69395 0.49642 0.26797 0.0
C362 C 0.67027 0.53189 0.16636 0.0
C363 C 0.64666 0.51283 0.1506 0.0
C364 C 0.6461 0.48645 0.20064 0.0
C365 C 0.66929 0.4785 0.25866 0.0
C366 C 0.5757 0.51117 1.00963 0.0
C367 C 0.5841 0.52499 0.92647 0.0
C368 C 0.59542 0.50837 0.08394 0.0
C369 C 0.62422 0.51901 0.07667 0.0
C370 C 0.63209 0.53372 0.99417 0.0
C371 C 0.61229 0.53681 0.92061 0.0
H372 H 1.00617 0.71516 0.18202 0.0
H373 H 0.071 0.66581 0.33038 0.0
H374 H 0.99535 0.6726 0.08535 0.0
H375 H 0.06038 0.62335 0.23422 0.0
H376 H 0.0736 0.58506 0.93722 0.0
H377 H 0.07354 0.61933 0.06576 0.0
H378 H 0.97944 0.61824 0.06989 0.0
H379 H 0.97962 0.58305 0.94073 0.0
C380 C 1.01703 0.69477 0.19703 0.0
C381 C 0.03916 0.6936 0.26452 0.0
C382 C 1.01101 0.67044 0.14127 0.0
C383 C 0.0273 0.64466 0.15136 0.0
C384 C 0.04765 0.64291 0.22428 0.0
C385 C 0.05351 0.66708 0.28006 0.0
C386 C 0.05287 0.59173 0.96647 0.0
C387 C 0.02664 0.58136 0.92897 0.0
C388 C 0.05282 0.61129 0.04058 0.0
C389 C 0.02648 0.62152 0.07856 0.0
C390 C 1.00009 0.61078 0.04218 0.0
C391 C 1.00018 0.59055 0.96875 0.0
H392 H 0.94871 0.26806 0.41044 0.0
H393 H 0.89023 0.25875 0.17807 0.0
H394 H 0.92199 0.23183 0.49592 0.0
H395 H 0.86149 0.22352 0.26624 0.0
H396 H 0.89807 0.15346 0.61333 0.0
H397 H 0.88943 0.20345 0.56938 0.0
H398 H 0.8703 0.17589 0.28839 0.0
H399 H 0.87522 0.1259 0.33575 0.0
C400 C 0.92905 0.25929 0.37965 0.0
C401 C 0.92195 0.26554 0.287 0.0
C402 C 0.9134 0.23836 0.42901 0.0
C403 C 0.89 0.22346 0.38702 0.0
C404 C 0.88017 0.23335 0.29952 0.0
C405 C 0.89637 0.25382 0.24916 0.0
C406 C 0.89058 0.15785 0.54331 0.0
C407 C 0.88904 0.13564 0.47647 0.0
C408 C 0.88611 0.18681 0.51745 0.0
C409 C 0.88128 0.19422 0.42356 0.0
C410 C 0.87486 0.1716 0.36094 0.0
C411 C 0.87826 0.14262 0.38768 0.0
H412 H 0.26696 0.93988 0.38239 0.0
H413 H 0.28116 0.8922 0.12866 0.0
H414 H 0.30674 0.91438 0.45528 0.0
H415 H 0.32049 0.86504 0.20318 0.0
H416 H 0.41596 0.89379 0.27022 0.0
H417 H 0.36655 0.88389 0.22315 0.0
H418 H 0.3398 0.88114 0.5119 0.0
H419 H 0.38912 0.89353 0.55838 0.0
C420 C 0.27756 0.92264 0.34389 0.0
C421 C 0.27163 0.91861 0.24917 0.0
C422 C 0.30057 0.90778 0.38587 0.0
C423 C 0.31792 0.88841 0.33392 0.0
C424 C 0.30848 0.88072 0.24409 0.0
C425 C 0.28575 0.89603 0.20151 0.0
C426 C 0.39964 0.89061 0.32383 0.0
C427 C 0.4062 0.89591 0.41763 0.0
C428 C 0.37114 0.88437 0.29694 0.0
C429 C 0.34862 0.88291 0.36357 0.0
C430 C 0.35629 0.88334 0.45838 0.0
C431 C 0.38476 0.89014 0.48521 0.0
H432 H 0.59255 0.26299 0.40151 0.0
H433 H 0.64933 0.27501 0.16532 0.0
H434 H 0.61853 0.29982 0.48558 0.0
H435 H 0.67733 0.31091 0.252 0.0
H436 H 0.63973 0.37943 0.59968 0.0
H437 H 0.65032 0.32981 0.55618 0.0
H438 H 0.66548 0.35803 0.27261 0.0
H439 H 0.65824 0.40759 0.31857 0.0
C440 C 0.61174 0.27247 0.36951 0.0
C441 C 0.61845 0.26686 0.27619 0.0
C442 C 0.62694 0.29377 0.41806 0.0
C443 C 0.64947 0.30966 0.37444 0.0
C444 C 0.65923 0.30029 0.28643 0.0
C445 C 0.64346 0.27947 0.2369 0.0
C446 C 0.64673 0.37532 0.529 0.0
C447 C 0.64659 0.39753 0.46142 0.0
C448 C 0.65237 0.34657 0.50353 0.0
C449 C 0.65686 0.33932 0.40947 0.0
C450 C 0.66141 0.36216 0.3455 0.0
C451 C 0.65667 0.39092 0.37158 0.0
H452 H 0.27037 0.59589 0.38278 0.0
H453 H 0.25707 0.64286 0.12623 0.0
H454 H 0.23158 0.62286 0.45506 0.0
H455 H 0.21885 0.67162 0.2001 0.0
H456 H 0.14993 0.64462 0.55792 0.0
H457 H 0.19936 0.65645 0.51077 0.0
H458 H 0.17224 0.65542 0.22248 0.0
H459 H 0.12271 0.64634 0.27044 0.0
C460 C 0.2602 0.61326 0.34339 0.0
C461 C 0.26605 0.6167 0.24826 0.0
C462 C 0.23775 0.62899 0.38502 0.0
C463 C 0.22089 0.6487 0.33233 0.0
C464 C 0.23039 0.6557 0.24169 0.0
C465 C 0.2525 0.63947 0.19944 0.0
C466 C 0.15425 0.64831 0.48475 0.0
C467 C 0.13268 0.64312 0.41747 0.0
C468 C 0.1828 0.65476 0.45747 0.0
C469 C 0.19041 0.65525 0.36251 0.0
C470 C 0.16776 0.6547 0.29636 0.0
C471 C 0.13917 0.64895 0.32375 0.0
H472 H 0.14804 0.77407 0.3233 0.0
H473 H 0.08936 0.76422 0.09165 0.0
H474 H 0.1767 0.80907 0.23402 0.0
H475 H 0.11596 0.8003 1.00516 0.0
H476 H 0.13881 0.8792 0.88842 0.0
H477 H 0.14798 0.82921 0.93146 0.0
H478 H 0.16734 0.85655 0.21251 0.0
H479 H 0.16174 0.90641 0.16626 0.0
C480 C 0.14184 0.77883 0.25215 0.0
C481 C 0.11621 0.76707 0.21485 0.0
C482 C 0.15799 0.79917 0.20114 0.0
C483 C 0.148 0.80895 0.11368 0.0
C484 C 0.12462 0.79391 0.07211 0.0
C485 C 0.10904 0.77306 0.12207 0.0
C486 C 0.14644 0.87477 0.95826 0.0
C487 C 0.14791 0.8969 0.02541 0.0
C488 C 0.15123 0.84581 0.98358 0.0
C489 C 0.15636 0.8383 0.07724 0.0
C490 C 0.16262 0.86088 0.14009 0.0
C491 C 0.15882 0.88984 0.11394 0.0
H492 H 0.77272 0.09322 0.12069 0.0
H493 H 0.76033 0.14275 0.3718 0.0
H494 H 0.73315 0.11893 0.04772 0.0
H495 H 0.72106 0.16997 0.29712 0.0
H496 H 0.62495 0.14152 0.23575 0.0
H497 H 0.67469 0.15108 0.2804 0.0
H498 H 0.70028 0.1524 0.99053 0.0
H499 H 0.65062 0.14042 0.94655 0.0
C500 C 0.76261 0.11089 0.15852 0.0
C501 C 0.76893 0.11535 0.25284 0.0
C502 C 0.73968 0.12585 0.11646 0.0
C503 C 0.7228 0.14575 0.16787 0.0
C504 C 0.73272 0.15389 0.25675 0.0
C505 C 0.75542 0.13853 0.29939 0.0
C506 C 0.64109 0.14432 0.18137 0.0
C507 C 0.63408 0.13878 0.08805 0.0
C508 C 0.66977 0.15036 0.20684 0.0
C509 C 0.69203 0.15137 0.13924 0.0
C510 C 0.68398 0.15061 0.04479 0.0
C511 C 0.65532 0.14403 0.0194 0.0
H512 H 0.38961 0.75923 0.32813 0.0
H513 H 0.4485 0.77037 0.09687 0.0
H514 H 0.3617 0.72385 0.23898 0.0
H515 H 0.42265 0.73393 1.01053 0.0
H516 H 0.37854 0.62687 0.17233 0.0
H517 H 0.37236 0.67655 0.21845 0.0
H518 H 0.39098 0.70469 0.93687 0.0
H519 H 0.4006 0.65486 0.89369 0.0
C520 C 0.39599 0.75467 0.25707 0.0
C521 C 0.42148 0.76691 0.21986 0.0
C522 C 0.38029 0.73413 0.20614 0.0
C523 C 0.3906 0.72463 0.1189 0.0
C524 C 0.41378 0.74011 0.07733 0.0
C525 C 0.42891 0.76117 0.12719 0.0
C526 C 0.38114 0.64356 0.11983 0.0
C527 C 0.39189 0.63678 0.03092 0.0
C528 C 0.37701 0.67241 0.14593 0.0
C529 C 0.38281 0.69519 0.08278 0.0
C530 C 0.38798 0.68794 0.98908 0.0
C531 C 0.39305 0.65908 0.96372 0.0
H532 H 0.75082 0.4276 0.12545 0.0
H533 H 0.79472 0.40383 0.38043 0.0
H534 H 0.78537 0.39913 0.03788 0.0
H535 H 0.83179 0.3793 0.29237 0.0
H536 H 0.91158 0.36613 0.14421 0.0
H537 H 0.86235 0.35586 0.19917 0.0
H538 H 0.82837 0.41484 0.98961 0.0
H539 H 0.87676 0.42279 0.93219 0.0
C540 C 0.76747 0.41593 0.1636 0.0
C541 C 0.77108 0.41977 0.25995 0.0
C542 C 0.7879 0.40001 0.11265 0.0
C543 C 0.81314 0.389 0.15622 0.0
C544 C 0.81358 0.38828 0.25428 0.0
C545 C 0.79238 0.40299 0.30551 0.0
C546 C 0.89327 0.37594 0.1084 0.0
C547 C 0.8979 0.39571 0.03534 0.0
C548 C 0.86497 0.37036 0.14036 0.0
C549 C 0.84093 0.38546 0.10238 0.0
C550 C 0.84571 0.40258 0.0221 0.0
C551 C 0.8738 0.40744 0.98877 0.0
H552 H 0.03488 0.24251 0.10266 0.0
H553 H 0.95293 0.24661 0.95699 0.0
H554 H 0.04766 0.19838 0.01695 0.0
H555 H 0.96496 0.20223 0.87385 0.0
H556 H 0.996 0.12419 0.71147 0.0
H557 H 0.99219 0.17436 0.76617 0.0
H558 H 0.0324 0.14924 0.02599 0.0
H559 H 0.03689 0.09973 0.97059 0.0
C560 C 0.02002 0.23452 0.05017 0.0
C561 C 0.9929 0.24807 0.03674 0.0
C562 C 0.02705 0.20887 1.00207 0.0
C563 C 1.00711 0.19614 0.93943 0.0
C564 C 0.98102 0.21117 0.92081 0.0
C565 C 0.97406 0.23673 0.96866 0.0
C566 C 1.00428 0.12947 0.77988 0.0
C567 C 1.01665 0.10773 0.83652 0.0
C568 C 1.002 0.15829 0.81159 0.0
C569 C 1.01201 0.16617 0.90086 0.0
C570 C 0.02492 0.14443 0.95632 0.0
C571 C 0.02723 0.11576 0.92467 0.0
H572 H 0.2951 0.03476 0.12015 0.0
H573 H 0.28456 0.96452 0.92585 0.0
H574 H 0.33996 0.04956 0.04024 0.0
H575 H 0.3295 0.97844 0.84763 0.0
H576 H 0.43803 0.03422 0.97747 0.0
H577 H 0.3882 0.03081 0.0341 0.0
H578 H 0.35882 1.00975 0.75698 0.0
H579 H 0.40902 1.01231 0.70086 0.0
C580 C 0.30178 0.02317 0.0582 0.0
C581 C 0.28615 0.99863 0.02884 0.0
C582 C 0.32784 0.03125 1.01331 0.0
C583 C 0.33891 1.01493 0.93807 0.0
C584 C 0.32185 0.9918 0.90451 0.0
C585 C 0.29591 0.98379 0.94925 0.0
C586 C 0.42096 0.02912 0.92817 0.0
C587 C 0.42776 0.02335 0.83449 0.0
C588 C 0.39216 0.0274 0.96068 0.0
C589 C 0.36914 0.01996 0.90052 0.0
C590 C 0.37586 1.01513 0.80602 0.0
C591 C 0.40473 1.01674 0.77355 0.0
H592 H 0.50441 0.29014 0.1036 0.0
H593 H 0.58459 0.28591 0.94764 0.0
H594 H 0.49087 0.33452 0.01941 0.0
H595 H 0.57182 0.3305 0.86587 0.0
H596 H 0.53949 0.40891 0.70733 0.0
H597 H 0.54341 0.35862 0.76161 0.0
H598 H 0.50663 0.38358 0.02644 0.0
H599 H 0.502 0.43328 0.9715 0.0
C600 C 0.51868 0.29816 0.04918 0.0
C601 C 0.54555 0.2845 0.03233 0.0
C602 C 0.51123 0.32393 1.00194 0.0
C603 C 0.53049 0.33667 0.93676 0.0
C604 C 0.55626 0.32154 0.91485 0.0
C605 C 0.56365 0.29587 0.96188 0.0
C606 C 0.53198 0.40358 0.77679 0.0
C607 C 0.52055 0.42533 0.83496 0.0
C608 C 0.53432 0.37469 0.80823 0.0
C609 C 0.52534 0.36673 0.89878 0.0
C610 C 0.51331 0.38848 0.95583 0.0
C611 C 0.51092 0.41724 0.92443 0.0
H612 H 0.25223 0.57005 0.9282 0.0
H613 H 0.24022 0.5003 0.1252 0.0
H614 H 0.20746 0.55643 0.8492 0.0
H615 H 0.19551 0.4858 0.04453 0.0
H616 H 0.09783 0.50122 0.97499 0.0
H617 H 0.14731 0.50456 0.03456 0.0
H618 H 0.17861 0.52515 0.75846 0.0
H619 H 0.12881 0.52267 0.69946 0.0
C620 C 0.24057 0.55096 0.95217 0.0
C621 C 0.24991 0.53614 0.03257 0.0
C622 C 0.21472 0.54312 0.90695 0.0
C623 C 0.19732 0.52018 0.9408 0.0
C624 C 0.2079 0.50394 0.01725 0.0
C625 C 0.23388 0.51185 0.06261 0.0
C626 C 0.11525 0.50618 0.92658 0.0
C627 C 0.10911 0.51186 0.8323 0.0
C628 C 0.14385 0.50788 0.9608 0.0
C629 C 0.1673 0.5152 0.90178 0.0
C630 C 0.16123 0.5199 0.80671 0.0
C631 C 0.13258 0.51833 0.77257 0.0
H632 H 1.00338 0.79148 0.39713 0.0
H633 H 0.08498 0.78681 0.54465 0.0
H634 H 0.99077 0.83577 0.48229 0.0
H635 H 0.07311 0.83132 0.62732 0.0
H636 H 0.04208 0.90944 0.78963 0.0
H637 H 0.04579 0.8593 0.73454 0.0
H638 H 1.00635 0.88484 0.47394 0.0
H639 H 1.00195 0.93433 0.5297 0.0
C640 C 1.0182 0.79939 0.44989 0.0
C641 C 0.04516 0.7856 0.46405 0.0
C642 C 1.01126 0.82512 0.49768 0.0
C643 C 0.03115 0.83771 0.56079 0.0
C644 C 0.05708 0.82249 0.58001 0.0
C645 C 0.06395 0.79685 0.53243 0.0
C646 C 0.03396 0.90426 0.72094 0.0
C647 C 0.02182 0.92611 0.66422 0.0
C648 C 0.03618 0.87546 0.68901 0.0
C649 C 0.02635 0.8677 0.59942 0.0
C650 C 1.01369 0.88956 0.54383 0.0
C651 C 1.01143 0.91821 0.57569 0.0
H652 H 0.74294 0.99971 0.39117 0.0
H653 H 0.75284 0.07244 0.57639 0.0
H654 H 0.69814 0.98562 0.47263 0.0
H655 H 0.70793 0.05916 0.656 0.0
H656 H 0.62913 0.02559 0.80831 0.0
H657 H 0.67921 0.02827 0.75101 0.0
H658 H 0.64966 1.00421 0.47666 0.0
H659 H 0.59995 1.00076 0.53443 0.0
C660 C 0.73609 1.01209 0.45133 0.0
C661 C 0.75152 0.03712 0.47753 0.0
C662 C 0.71008 1.00437 0.49711 0.0
C663 C 0.69888 0.0215 0.57026 0.0
C664 C 0.71569 0.04522 0.60075 0.0
C665 C 0.74158 0.05288 0.55507 0.0
C666 C 0.63336 0.02053 0.73601 0.0
C667 C 0.61031 1.01308 0.67613 0.0
C668 C 0.66216 0.0222 0.70287 0.0
C669 C 0.66877 1.01655 0.60877 0.0
C670 C 0.64575 1.00827 0.54977 0.0
C671 C 0.61703 1.00653 0.58292 0.0
H672 H 0.45328 0.74707 0.55054 0.0
H673 H 0.53422 0.743 0.39863 0.0
H674 H 0.46552 0.70224 0.63185 0.0
H675 H 0.54719 0.69834 0.48226 0.0
H676 H 0.53544 0.59946 0.52742 0.0
H677 H 0.53115 0.64929 0.47316 0.0
H678 H 0.49356 0.67393 0.73712 0.0
H679 H 0.49716 0.62354 0.79073 0.0
C680 C 0.47427 0.73709 0.53716 0.0
C681 C 0.49275 0.7486 0.468 0.0
C682 C 0.48134 0.71128 0.58389 0.0
C683 C 0.50718 0.69613 0.5629 0.0
C684 C 0.52679 0.70896 0.49901 0.0
C685 C 0.51966 0.73489 0.45211 0.0
C686 C 0.5264 0.61546 0.57443 0.0
C687 C 0.51647 0.60726 0.66346 0.0
C688 C 0.52421 0.64429 0.54344 0.0
C689 C 0.51207 0.66597 0.60047 0.0
C690 C 0.50275 0.6579 0.69056 0.0
C691 C 0.50492 0.62895 0.7216 0.0
H692 H 0.78269 0.47113 0.57579 0.0
H693 H 0.7973 0.53786 0.37017 0.0
H694 H 0.82756 0.48445 0.65444 0.0
H695 H 0.84207 0.55224 0.45062 0.0
H696 H 0.93897 0.53494 0.52177 0.0
H697 H 0.88938 0.53267 0.46324 0.0
H698 H 0.85793 0.51487 0.74119 0.0
H699 H 0.90791 0.51609 0.79912 0.0
C700 C 0.79489 0.48964 0.55001 0.0
C701 C 0.78628 0.50362 0.46729 0.0
C702 C 0.82084 0.49728 0.59496 0.0
C703 C 0.83904 0.51921 0.55857 0.0
C704 C 0.8291 0.53482 0.4799 0.0
C705 C 0.80307 0.52704 0.43464 0.0
C706 C 0.9215 0.5308 0.57081 0.0
C707 C 0.92764 0.5255 0.6653 0.0
C708 C 0.89283 0.52975 0.53717 0.0
C709 C 0.86925 0.52355 0.597 0.0
C710 C 0.87536 0.51925 0.69228 0.0
C711 C 0.90412 0.5201 0.72583 0.0
loop_
_geom_bond_atom_site_label_1
_geom_bond_atom_site_label_2
_geom_bond_distance
_geom_bond_site_symmetry_2
_ccdc_geom_bond_type
H0 C3 0.931 . S
H1 C6 0.928 . S
H2 C8 0.930 . S
C3 H0 0.931 . S
C3 C4 1.413 . S
C3 C5 1.360 . S
C4 C3 1.413 . S
C4 C8 1.429 . S
C5 C3 1.360 . S
C5 C6 1.372 . S
C6 H1 0.928 . S
C6 C5 1.372 . S
C6 C7 1.404 . S
C7 C6 1.404 . S
C7 C8 1.391 . S
C8 H2 0.930 . S
C8 C4 1.429 . S
C8 C7 1.391 . S
H9 C12 0.931 . S
H10 C15 0.928 . S
H11 C17 0.930 . S
C12 H9 0.931 . S
C12 C13 1.413 . S
C12 C14 1.360 . S
C13 C12 1.413 . S
C13 C17 1.429 1_655 S
C14 C12 1.360 . S
C14 C15 1.372 . S
C15 H10 0.928 . S
C15 C14 1.372 . S
C15 C16 1.404 . S
C16 C15 1.404 . S
C16 C17 1.390 1_655 S
C17 H11 0.930 . S
C17 C13 1.429 1_455 S
C17 C16 1.390 1_455 S
H18 C21 0.931 . S
H19 C24 0.928 . S
H20 C26 0.930 . S
C21 H18 0.931 . S
C21 C22 1.413 . S
C21 C23 1.360 . S
C22 C21 1.413 . S
C22 C26 1.429 1_565 S
C23 C21 1.360 . S
C23 C24 1.372 . S
C24 H19 0.928 . S
C24 C23 1.372 . S
C24 C25 1.404 . S
C25 C24 1.404 . S
C25 C26 1.390 1_565 S
C26 H20 0.930 . S
C26 C22 1.429 1_545 S
C26 C25 1.390 1_545 S
H27 C30 0.931 . S
H28 C33 0.928 . S
H29 C35 0.930 . S
C30 H27 0.931 . S
C30 C31 1.413 . S
C30 C32 1.360 . S
C31 C30 1.413 . S
C31 C35 1.429 . S
C32 C30 1.360 . S
C32 C33 1.372 . S
C33 H28 0.928 . S
C33 C32 1.372 . S
C33 C34 1.404 . S
C34 C33 1.404 . S
C34 C35 1.391 . S
C35 H29 0.930 . S
C35 C31 1.429 . S
C35 C34 1.391 . S
H36 C39 0.931 . S
H37 C42 0.928 . S
H38 C44 0.930 . S
C39 H36 0.931 . S
C39 C40 1.413 1_554 S
C39 C41 1.360 . S
C40 C39 1.413 1_556 S
C40 C44 1.429 . S
C41 C39 1.360 . S
C41 C42 1.372 . S
C42 H37 0.928 . S
C42 C41 1.372 . S
C42 C43 1.404 . S
C43 C42 1.404 . S
C43 C44 1.391 1_554 S
C44 H38 0.930 . S
C44 C40 1.429 . S
C44 C43 1.391 1_556 S
H45 C48 0.931 . S
H46 C51 0.928 . S
H47 C53 0.930 . S
C48 H45 0.931 . S
C48 C49 1.413 1_554 S
C48 C50 1.360 . S
C49 C48 1.413 1_556 S
C49 C53 1.429 1_655 S
C50 C48 1.360 . S
C50 C51 1.372 . S
C51 H46 0.928 . S
C51 C50 1.372 . S
C51 C52 1.404 . S
C52 C51 1.404 . S
C52 C53 1.390 1_654 S
C53 H47 0.930 . S
C53 C49 1.429 1_455 S
C53 C52 1.390 1_456 S
H54 C57 0.931 . S
H55 C60 0.928 . S
H56 C62 0.930 . S
C57 H54 0.931 . S
C57 C58 1.413 1_554 S
C57 C59 1.360 . S
C58 C57 1.413 1_556 S
C58 C62 1.429 1_565 S
C59 C57 1.360 . S
C59 C60 1.372 . S
C60 H55 0.928 . S
C60 C59 1.372 . S
C60 C61 1.404 . S
C61 C60 1.404 . S
C61 C62 1.391 1_564 S
C62 H56 0.930 . S
C62 C58 1.429 1_545 S
C62 C61 1.391 1_546 S
H63 C66 0.931 . S
H64 C69 0.928 . S
H65 C71 0.930 . S
C66 H63 0.931 . S
C66 C67 1.413 . S
C66 C68 1.360 1_554 S
C67 C66 1.413 . S
C67 C71 1.429 . S
C68 C66 1.360 1_556 S
C68 C69 1.372 . S
C69 H64 0.928 . S
C69 C68 1.372 . S
C69 C70 1.404 1_556 S
C70 C69 1.404 1_554 S
C70 C71 1.391 . S
C71 H65 0.930 . S
C71 C67 1.429 . S
C71 C70 1.391 . S
Gd72 C75 2.818 . S
Gd72 O92 2.377 . S
Gd72 O94 2.448 . S
Gd72 O95 2.506 . S
Gd72 O96 2.435 . S
Gd72 O97 2.717 1_565 S
Gd72 O99 2.395 1_565 S
Gd72 O103 2.327 1_455 S
Gd73 C84 2.818 . S
Gd73 O93 2.395 1_545 S
Gd73 O97 2.327 1_655 S
Gd73 O98 2.377 . S
Gd73 O100 2.448 . S
Gd73 O101 2.506 . S
Gd73 O102 2.435 . S
Gd73 O103 2.717 1_545 S
C74 O92 1.240 1_655 S
C74 O93 1.240 . S
C75 Gd72 2.818 . S
C75 C76 1.510 . S
C75 O94 1.249 . S
C75 O95 1.252 . S
C76 C75 1.510 . S
C76 C77 1.404 . S
C76 C78 1.352 . S
C77 C76 1.404 . S
C77 C81 1.389 1_556 S
C77 H104 0.930 . S
C78 C76 1.352 . S
C78 C80 1.374 1_556 S
C78 H105 0.931 1_455 S
C79 C80 1.359 . S
C79 C81 1.364 . S
C80 C78 1.374 1_554 S
C80 C79 1.359 . S
C80 H106 0.931 . S
C81 C77 1.389 1_554 S
C81 C79 1.364 . S
C81 H107 0.931 . S
C82 O96 1.256 . S
C82 O97 1.257 1_565 S
C83 O98 1.240 1_455 S
C83 O99 1.240 . S
C84 Gd73 2.818 . S
C84 C85 1.510 . S
C84 O100 1.249 . S
C84 O101 1.252 . S
C85 C84 1.510 . S
C85 C86 1.404 . S
C85 C87 1.352 . S
C86 C85 1.404 . S
C86 C90 1.389 . S
C86 H108 0.930 . S
C87 C85 1.352 . S
C87 C89 1.374 . S
C87 H109 0.931 1_655 S
C88 C89 1.359 . S
C88 C90 1.364 . S
C89 C87 1.374 . S
C89 C88 1.359 . S
C89 H110 0.961 . S
C90 C86 1.389 . S
C90 C88 1.364 . S
C90 H111 0.931 . S
C91 O102 1.256 . S
C91 O103 1.257 1_545 S
O92 Gd72 2.377 . S
O92 C74 1.240 1_455 S
O93 Gd73 2.395 1_565 S
O93 C74 1.240 . S
O94 Gd72 2.448 . S
O94 C75 1.249 . S
O95 Gd72 2.506 . S
O95 C75 1.252 . S
O96 Gd72 2.435 . S
O96 C82 1.256 . S
O97 Gd72 2.717 1_545 S
O97 Gd73 2.327 1_455 S
O97 C82 1.257 1_545 S
O98 Gd73 2.377 . S
O98 C83 1.240 1_655 S
O99 Gd72 2.395 1_545 S
O99 C83 1.240 . S
O100 Gd73 2.448 . S
O100 C84 1.249 . S
O101 Gd73 2.506 . S
O101 C84 1.252 . S
O102 Gd73 2.435 . S
O102 C91 1.256 . S
O103 Gd72 2.327 1_655 S
O103 Gd73 2.717 1_565 S
O103 C91 1.257 1_565 S
H104 C77 0.930 . S
H105 C78 0.931 1_655 S
H106 C80 0.931 . S
H107 C81 0.931 . S
H108 C86 0.930 . S
H109 C87 0.931 1_455 S
H110 C89 0.961 . S
H111 C90 0.931 . S
Gd112 C115 2.818 . S
Gd112 O132 2.377 . S
Gd112 O134 2.448 . S
Gd112 O135 2.506 . S
Gd112 O136 2.435 . S
Gd112 O137 2.717 . S
Gd112 O139 2.395 . S
Gd112 O143 2.327 1_545 S
Gd113 C124 2.818 . S
Gd113 O133 2.395 . S
Gd113 O137 2.327 1_565 S
Gd113 O138 2.377 . S
Gd113 O140 2.448 . S
Gd113 O141 2.506 . S
Gd113 O142 2.435 . S
Gd113 O143 2.717 . S
C114 O132 1.240 1_565 S
C114 O133 1.240 . S
C115 Gd112 2.818 . S
C115 C116 1.510 . S
C115 O134 1.249 . S
C115 O135 1.252 . S
C116 C115 1.510 . S
C116 C117 1.404 . S
C116 C118 1.352 . S
C117 C116 1.404 . S
C117 C121 1.389 1_556 S
C117 H144 0.930 . S
C118 C116 1.352 . S
C118 C120 1.374 1_556 S
C118 H145 0.931 1_545 S
C119 C120 1.359 . S
C119 C121 1.364 . S
C120 C118 1.374 1_554 S
C120 C119 1.359 . S
C120 H146 0.950 . S
C121 C117 1.389 1_554 S
C121 C119 1.364 . S
C121 H147 0.931 . S
C122 O136 1.256 . S
C122 O137 1.257 . S
C123 O138 1.240 1_545 S
C123 O139 1.240 . S
C124 Gd113 2.818 . S
C124 C125 1.510 . S
C124 O140 1.249 . S
C124 O141 1.252 . S
C125 C124 1.510 . S
C125 C126 1.404 . S
C125 C127 1.352 . S
C126 C125 1.404 . S
C126 C130 1.389 . S
C126 H148 0.930 . S
C127 C125 1.352 . S
C127 C129 1.374 . S
C127 H149 0.931 1_565 S
C128 C129 1.359 . S
C128 C130 1.364 . S
C129 C127 1.374 . S
C129 C128 1.359 . S
C129 H150 0.943 . S
C130 C126 1.389 . S
C130 C128 1.364 . S
C130 H151 0.931 . S
C131 O142 1.256 . S
C131 O143 1.257 . S
O132 Gd112 2.377 . S
O132 C114 1.240 1_545 S
O133 Gd113 2.395 . S
O133 C114 1.240 . S
O134 Gd112 2.448 . S
O134 C115 1.249 . S
O135 Gd112 2.506 . S
O135 C115 1.252 . S
O136 Gd112 2.435 . S
O136 C122 1.256 . S
O137 Gd112 2.717 . S
O137 Gd113 2.327 1_545 S
O137 C122 1.257 . S
O138 Gd113 2.377 . S
O138 C123 1.240 1_565 S
O139 Gd112 2.395 . S
O139 C123 1.240 . S
O140 Gd113 2.448 . S
O140 C124 1.249 . S
O141 Gd113 2.506 . S
O141 C124 1.252 . S
O142 Gd113 2.435 . S
O142 C131 1.256 . S
O143 Gd112 2.327 1_565 S
O143 Gd113 2.717 . S
O143 C131 1.257 . S
H144 C117 0.930 . S
H145 C118 0.931 1_565 S
H146 C120 0.950 . S
H147 C121 0.931 . S
H148 C126 0.930 . S
H149 C127 0.931 1_545 S
H150 C129 0.943 . S
H151 C130 0.931 . S
Gd152 C155 2.818 . S
Gd152 O172 2.377 . S
Gd152 O174 2.448 . S
Gd152 O175 2.506 . S
Gd152 O176 2.435 . S
Gd152 O177 2.717 . S
Gd152 O179 2.395 . S
Gd152 O183 2.327 . S
Gd153 C164 2.818 . S
Gd153 O173 2.395 . S
Gd153 O177 2.327 . S
Gd153 O178 2.377 . S
Gd153 O180 2.448 . S
Gd153 O181 2.506 . S
Gd153 O182 2.435 . S
Gd153 O183 2.717 . S
C154 O172 1.240 . S
C154 O173 1.240 . S
C155 Gd152 2.818 . S
C155 C156 1.510 . S
C155 O174 1.249 . S
C155 O175 1.252 . S
C156 C155 1.510 . S
C156 C157 1.404 . S
C156 C158 1.352 . S
C157 C156 1.404 . S
C157 C161 1.389 1_556 S
C157 H184 0.930 . S
C158 C156 1.352 . S
C158 C160 1.374 1_556 S
C158 H185 0.931 . S
C159 C160 1.359 . S
C159 C161 1.364 . S
C160 C158 1.374 1_554 S
C160 C159 1.359 . S
C160 H186 0.931 . S
C161 C157 1.389 1_554 S
C161 C159 1.364 . S
C161 H187 0.931 . S
C162 O176 1.256 . S
C162 O177 1.257 . S
C163 O178 1.240 . S
C163 O179 1.240 . S
C164 Gd153 2.818 . S
C164 C165 1.510 . S
C164 O180 1.249 . S
C164 O181 1.252 . S
C165 C164 1.510 . S
C165 C166 1.404 . S
C165 C167 1.352 . S
C166 C165 1.404 . S
C166 C170 1.389 . S
C166 H188 0.930 . S
C167 C165 1.352 . S
C167 C169 1.374 . S
C167 H189 0.931 . S
C168 C169 1.359 . S
C168 C170 1.364 . S
C169 C167 1.374 . S
C169 C168 1.359 . S
C169 H190 0.931 . S
C170 C166 1.389 . S
C170 C168 1.364 . S
C170 H191 0.931 . S
C171 O182 1.256 . S
C171 O183 1.257 . S
O172 Gd152 2.377 . S
O172 C154 1.240 . S
O173 Gd153 2.395 . S
O173 C154 1.240 . S
O174 Gd152 2.448 . S
O174 C155 1.249 . S
O175 Gd152 2.506 . S
O175 C155 1.252 . S
O176 Gd152 2.435 . S
O176 C162 1.256 . S
O177 Gd152 2.717 . S
O177 Gd153 2.327 . S
O177 C162 1.257 . S
O178 Gd153 2.377 . S
O178 C163 1.240 . S
O179 Gd152 2.395 . S
O179 C163 1.240 . S
O180 Gd153 2.448 . S
O180 C164 1.249 . S
O181 Gd153 2.506 . S
O181 C164 1.252 . S
O182 Gd153 2.435 . S
O182 C171 1.256 . S
O183 Gd152 2.327 . S
O183 Gd153 2.717 . S
O183 C171 1.257 . S
H184 C157 0.930 . S
H185 C158 0.931 . S
H186 C160 0.931 . S
H187 C161 0.931 . S
H188 C166 0.930 . S
H189 C167 0.931 . S
H190 C169 0.931 . S
H191 C170 0.931 . S
Gd192 C195 2.818 . S
Gd192 O212 2.377 . S
Gd192 O214 2.448 . S
Gd192 O215 2.506 . S
Gd192 O216 2.435 . S
Gd192 O217 2.717 1_655 S
Gd192 O219 2.395 1_655 S
Gd192 O223 2.327 . S
Gd193 C204 2.818 . S
Gd193 O213 2.395 1_455 S
Gd193 O217 2.327 . S
Gd193 O218 2.377 . S
Gd193 O220 2.448 . S
Gd193 O221 2.506 . S
Gd193 O222 2.435 . S
Gd193 O223 2.717 1_455 S
C194 O212 1.240 . S
C194 O213 1.240 . S
C195 Gd192 2.818 . S
C195 C196 1.510 . S
C195 O214 1.249 . S
C195 O215 1.252 . S
C196 C195 1.510 . S
C196 C197 1.404 . S
C196 C198 1.352 . S
C197 C196 1.404 . S
C197 C201 1.389 1_556 S
C197 H224 0.930 . S
C198 C196 1.352 . S
C198 C200 1.374 1_556 S
C198 H225 0.931 . S
C199 C200 1.359 . S
C199 C201 1.364 . S
C200 C198 1.374 1_554 S
C200 C199 1.359 . S
C200 H226 0.931 . S
C201 C197 1.389 1_554 S
C201 C199 1.364 . S
C201 H227 0.931 . S
C202 O216 1.273 . S
C202 O217 1.249 1_655 S
C203 O218 1.240 . S
C203 O219 1.240 . S
C204 Gd193 2.818 . S
C204 C205 1.510 . S
C204 O220 1.249 . S
C204 O221 1.252 . S
C205 C204 1.510 . S
C205 C206 1.404 . S
C205 C207 1.352 . S
C206 C205 1.404 . S
C206 C210 1.389 . S
C206 H228 0.930 . S
C207 C205 1.352 . S
C207 C209 1.374 . S
C207 H229 0.931 . S
C208 C209 1.359 . S
C208 C210 1.364 . S
C209 C207 1.374 . S
C209 C208 1.359 . S
C209 H230 0.931 . S
C210 C206 1.389 . S
C210 C208 1.364 . S
C210 H231 0.931 . S
C211 O222 1.256 . S
C211 O223 1.257 1_455 S
O212 Gd192 2.377 . S
O212 C194 1.240 . S
O213 Gd193 2.395 1_655 S
O213 C194 1.240 . S
O214 Gd192 2.448 . S
O214 C195 1.249 . S
O215 Gd192 2.506 . S
O215 C195 1.252 . S
O216 Gd192 2.435 . S
O216 C202 1.273 . S
O217 Gd192 2.717 1_455 S
O217 Gd193 2.327 . S
O217 C202 1.249 1_455 S
O218 Gd193 2.377 . S
O218 C203 1.240 . S
O219 Gd192 2.395 1_455 S
O219 C203 1.240 . S
O220 Gd193 2.448 . S
O220 C204 1.249 . S
O221 Gd193 2.506 . S
O221 C204 1.252 . S
O222 Gd193 2.435 . S
O222 C211 1.256 . S
O223 Gd192 2.327 . S
O223 Gd193 2.717 1_655 S
O223 C211 1.257 1_655 S
H224 C197 0.930 . S
H225 C198 0.931 . S
H226 C200 0.931 . S
H227 C201 0.931 . S
H228 C206 0.930 . S
H229 C207 0.931 . S
H230 C209 0.931 . S
H231 C210 0.931 . S
H232 C240 0.950 . S
H233 C245 0.950 . S
H234 C242 0.950 . S
H235 C244 0.950 . S
H236 C246 0.950 . S
H237 C248 0.950 . S
H238 C250 0.950 . S
H239 C251 0.950 . S
C240 H232 0.950 . S
C240 C241 1.388 . S
C240 C242 1.391 . S
C241 C240 1.388 . S
C241 C245 1.391 1_565 S
C242 H234 0.950 . S
C242 C240 1.391 . S
C242 C243 1.379 1_565 S
C243 C242 1.379 1_545 S
C243 C244 1.418 . S
C243 C249 1.492 . S
C244 H235 0.950 . S
C244 C243 1.418 . S
C244 C245 1.391 . S
C245 H233 0.950 . S
C245 C241 1.391 1_545 S
C245 C244 1.391 . S
C246 H236 0.950 . S
C246 C247 1.386 . S
C246 C248 1.391 . S
C247 C246 1.386 . S
C247 C251 1.393 1_545 S
C248 H237 0.950 . S
C248 C246 1.391 . S
C248 C249 1.400 . S
C249 C243 1.492 . S
C249 C248 1.400 . S
C249 C250 1.398 1_545 S
C250 H238 0.950 . S
C250 C249 1.398 1_565 S
C250 C251 1.391 . S
C251 H239 0.950 . S
C251 C247 1.393 1_565 S
C251 C250 1.391 . S
H252 C260 0.950 . S
H253 C265 0.950 . S
H254 C262 0.950 . S
H255 C264 0.950 . S
H256 C266 0.950 . S
H257 C268 0.950 . S
H258 C270 0.950 . S
H259 C271 0.950 . S
C260 H252 0.950 . S
C260 C261 1.386 . S
C260 C262 1.391 . S
C261 C260 1.386 . S
C261 C265 1.393 . S
C262 H254 0.950 . S
C262 C260 1.391 . S
C262 C263 1.400 . S
C263 C262 1.400 . S
C263 C264 1.398 . S
C263 C269 1.491 . S
C264 H255 0.950 . S
C264 C263 1.398 . S
C264 C265 1.391 . S
C265 H253 0.950 . S
C265 C261 1.393 . S
C265 C264 1.391 . S
C266 H256 0.950 . S
C266 C267 1.386 . S
C266 C268 1.391 . S
C267 C266 1.386 . S
C267 C271 1.393 . S
C268 H257 0.950 . S
C268 C266 1.391 . S
C268 C269 1.400 . S
C269 C263 1.491 . S
C269 C268 1.400 . S
C269 C270 1.398 . S
C270 H258 0.950 . S
C270 C269 1.398 . S
C270 C271 1.391 . S
C271 H259 0.950 . S
C271 C267 1.393 . S
C271 C270 1.391 . S
H272 C280 0.950 . S
H273 C285 0.950 . S
H274 C282 0.950 . S
H275 C284 0.950 . S
H276 C286 0.950 . S
H277 C288 0.950 . S
H278 C290 0.950 . S
H279 C291 0.950 . S
C280 H272 0.950 . S
C280 C281 1.386 . S
C280 C282 1.391 . S
C281 C280 1.386 . S
C281 C285 1.393 . S
C282 H274 0.950 . S
C282 C280 1.391 . S
C282 C283 1.400 . S
C283 C282 1.400 . S
C283 C284 1.398 . S
C283 C289 1.491 . S
C284 H275 0.950 . S
C284 C283 1.398 . S
C284 C285 1.391 . S
C285 H273 0.950 . S
C285 C281 1.393 . S
C285 C284 1.391 . S
C286 H276 0.950 . S
C286 C287 1.386 . S
C286 C288 1.391 . S
C287 C286 1.386 . S
C287 C291 1.393 . S
C288 H277 0.950 . S
C288 C286 1.391 . S
C288 C289 1.400 . S
C289 C283 1.491 . S
C289 C288 1.400 . S
C289 C290 1.398 . S
C290 H278 0.950 . S
C290 C289 1.398 . S
C290 C291 1.391 . S
C291 H279 0.950 . S
C291 C287 1.393 . S
C291 C290 1.391 . S
H292 C300 0.950 . S
H293 C305 0.950 . S
H294 C302 0.950 . S
H295 C304 0.950 . S
H296 C306 0.950 . S
H297 C308 0.950 . S
H298 C310 0.950 . S
H299 C311 0.950 . S
C300 H292 0.950 . S
C300 C301 1.386 1_655 S
C300 C302 1.391 . S
C301 C300 1.386 1_455 S
C301 C305 1.393 . S
C302 H294 0.950 . S
C302 C300 1.391 . S
C302 C303 1.400 1_655 S
C303 C302 1.400 1_455 S
C303 C304 1.398 . S
C303 C309 1.491 . S
C304 H295 0.950 . S
C304 C303 1.398 . S
C304 C305 1.391 . S
C305 H293 0.950 . S
C305 C301 1.393 . S
C305 C304 1.391 . S
C306 H296 0.950 . S
C306 C307 1.386 . S
C306 C308 1.391 . S
C307 C306 1.386 . S
C307 C311 1.393 1_455 S
C308 H297 0.950 . S
C308 C306 1.391 . S
C308 C309 1.400 . S
C309 C303 1.491 . S
C309 C308 1.400 . S
C309 C310 1.398 1_455 S
C310 H298 0.950 . S
C310 C309 1.398 1_655 S
C310 C311 1.391 . S
C311 H299 0.950 . S
C311 C307 1.393 1_655 S
C311 C310 1.391 . S
H312 C320 0.950 . S
H313 C325 0.950 . S
H314 C322 0.950 . S
H315 C324 0.950 . S
H316 C326 0.950 . S
H317 C328 0.950 . S
H318 C330 0.950 1_556 S
H319 C331 0.950 . S
C320 H312 0.950 . S
C320 C321 1.395 . S
C320 C322 1.391 . S
C321 C320 1.395 . S
C321 C325 1.384 1_545 S
C322 H314 0.950 . S
C322 C320 1.391 . S
C322 C323 1.396 1_545 S
C323 C322 1.396 1_565 S
C323 C324 1.402 . S
C323 C329 1.491 . S
C324 H315 0.950 . S
C324 C323 1.402 . S
C324 C325 1.391 . S
C325 H313 0.950 . S
C325 C321 1.384 1_565 S
C325 C324 1.391 . S
C326 H316 0.950 . S
C326 C327 1.386 1_554 S
C326 C328 1.391 . S
C327 C326 1.386 1_556 S
C327 C331 1.393 1_565 S
C328 H317 0.950 . S
C328 C326 1.391 . S
C328 C329 1.400 . S
C329 C323 1.491 . S
C329 C328 1.400 . S
C329 C330 1.401 1_565 S
C330 H318 0.950 1_554 S
C330 C329 1.401 1_545 S
C330 C331 1.388 1_554 S
C331 H319 0.950 . S
C331 C327 1.393 1_545 S
C331 C330 1.388 1_556 S
H332 C340 0.950 . S
H333 C345 0.950 . S
H334 C342 0.950 . S
H335 C344 0.950 . S
H336 C346 0.950 . S
H337 C348 0.950 . S
H338 C350 0.950 . S
H339 C351 0.950 . S
C340 H332 0.950 . S
C340 C341 1.386 . S
C340 C342 1.391 . S
C341 C340 1.386 . S
C341 C345 1.393 . S
C342 H334 0.950 . S
C342 C340 1.391 . S
C342 C343 1.400 . S
C343 C342 1.400 . S
C343 C344 1.398 . S
C343 C349 1.491 . S
C344 H335 0.950 . S
C344 C343 1.398 . S
C344 C345 1.391 . S
C345 H333 0.950 . S
C345 C341 1.393 . S
C345 C344 1.391 . S
C346 H336 0.950 . S
C346 C347 1.386 1_554 S
C346 C348 1.391 . S
C347 C346 1.386 1_556 S
C347 C351 1.393 . S
C348 H337 0.950 . S
C348 C346 1.391 . S
C348 C349 1.400 . S
C349 C343 1.491 . S
C349 C348 1.400 . S
C349 C350 1.395 1_554 S
C350 H338 0.950 . S
C350 C349 1.395 1_556 S
C350 C351 1.394 . S
C351 H339 0.950 . S
C351 C347 1.393 . S
C351 C350 1.394 . S
H352 C360 0.950 . S
H353 C365 0.950 . S
H354 C362 0.950 . S
H355 C364 0.950 . S
H356 C366 0.950 . S
H357 C368 0.950 . S
H358 C370 0.950 . S
H359 C371 0.950 . S
C360 H352 0.950 . S
C360 C361 1.386 . S
C360 C362 1.391 . S
C361 C360 1.386 . S
C361 C365 1.393 . S
C362 H354 0.950 . S
C362 C360 1.391 . S
C362 C363 1.400 . S
C363 C362 1.400 . S
C363 C364 1.398 . S
C363 C369 1.491 . S
C364 H355 0.950 . S
C364 C363 1.398 . S
C364 C365 1.391 . S
C365 H353 0.950 . S
C365 C361 1.393 . S
C365 C364 1.391 . S
C366 H356 0.950 . S
C366 C367 1.385 . S
C366 C368 1.392 1_556 S
C367 C366 1.385 . S
C367 C371 1.393 . S
C368 H357 0.950 . S
C368 C366 1.392 1_554 S
C368 C369 1.400 . S
C369 C363 1.491 . S
C369 C368 1.400 . S
C369 C370 1.398 . S
C370 H358 0.950 . S
C370 C369 1.398 . S
C370 C371 1.391 1_554 S
C371 H359 0.950 . S
C371 C367 1.393 . S
C371 C370 1.391 1_556 S
H372 C380 0.950 . S
H373 C385 0.950 . S
H374 C382 0.950 . S
H375 C384 0.950 . S
H376 C386 0.950 . S
H377 C388 0.950 . S
H378 C390 0.950 . S
H379 C391 0.950 . S
C380 H372 0.950 . S
C380 C381 1.411 . S
C380 C382 1.391 . S
C381 C380 1.411 . S
C381 C385 1.368 1_655 S
C382 H374 0.950 . S
C382 C380 1.391 . S
C382 C383 1.400 . S
C383 C382 1.400 . S
C383 C384 1.398 1_655 S
C383 C389 1.491 . S
C384 H375 0.950 . S
C384 C383 1.398 1_455 S
C384 C385 1.391 . S
C385 H373 0.950 . S
C385 C381 1.368 1_455 S
C385 C384 1.391 . S
C386 H376 0.950 . S
C386 C387 1.386 1_455 S
C386 C388 1.391 1_556 S
C387 C386 1.386 1_655 S
C387 C391 1.393 . S
C388 H377 0.950 . S
C388 C386 1.391 1_554 S
C388 C389 1.400 1_455 S
C389 C383 1.491 . S
C389 C388 1.400 1_655 S
C389 C390 1.398 . S
C390 H378 0.950 . S
C390 C389 1.398 . S
C390 C391 1.391 1_554 S
C391 H379 0.950 . S
C391 C387 1.393 . S
C391 C390 1.391 1_556 S
H392 C400 0.950 . S
H393 C405 0.950 . S
H394 C402 0.950 . S
H395 C404 0.950 . S
H396 C406 0.950 . S
H397 C408 0.950 . S
H398 C410 0.950 1_455 S
H399 C411 0.950 . S
C400 H392 0.950 . S
C400 C401 1.386 . S
C400 C402 1.391 . S
C401 C400 1.386 . S
C401 C405 1.393 1_455 S
C402 H394 0.950 . S
C402 C400 1.391 . S
C402 C403 1.400 1_455 S
C403 C402 1.400 1_655 S
C403 C404 1.398 . S
C403 C409 1.491 . S
C404 H395 0.950 . S
C404 C403 1.398 . S
C404 C405 1.391 . S
C405 H393 0.950 . S
C405 C401 1.393 1_655 S
C405 C404 1.391 . S
C406 H396 0.950 . S
C406 C407 1.386 . S
C406 C408 1.391 . S
C407 C406 1.386 . S
C407 C411 1.393 . S
C408 H397 0.950 . S
C408 C406 1.391 . S
C408 C409 1.400 . S
C409 C403 1.491 . S
C409 C408 1.400 . S
C409 C410 1.398 . S
C410 H398 0.950 1_655 S
C410 C409 1.398 . S
C410 C411 1.391 . S
C411 H399 0.950 . S
C411 C407 1.393 . S
C411 C410 1.391 . S
H412 C420 0.950 . S
H413 C425 0.950 . S
H414 C422 0.950 . S
H415 C424 0.950 . S
H416 C426 0.950 . S
H417 C428 0.950 . S
H418 C430 0.952 . S
H419 C431 0.950 . S
C420 H412 0.950 . S
C420 C421 1.386 . S
C420 C422 1.391 . S
C421 C420 1.386 . S
C421 C425 1.393 1_545 S
C422 H414 0.950 . S
C422 C420 1.391 . S
C422 C423 1.400 1_545 S
C423 C422 1.400 1_565 S
C423 C424 1.398 . S
C423 C429 1.491 . S
C424 H415 0.950 . S
C424 C423 1.398 . S
C424 C425 1.391 . S
C425 H413 0.950 . S
C425 C421 1.393 1_565 S
C425 C424 1.391 . S
C426 H416 0.950 . S
C426 C427 1.386 . S
C426 C428 1.391 . S
C427 C426 1.386 . S
C427 C431 1.393 . S
C428 H417 0.950 . S
C428 C426 1.391 . S
C428 C429 1.400 . S
C429 C423 1.491 . S
C429 C428 1.400 . S
C429 C430 1.398 . S
C430 H418 0.952 . S
C430 C429 1.398 . S
C430 C431 1.391 . S
C431 H419 0.950 . S
C431 C427 1.393 . S
C431 C430 1.391 . S
H432 C440 0.950 . S
H433 C445 0.950 . S
H434 C442 0.950 . S
H435 C444 0.950 . S
H436 C446 0.950 . S
H437 C448 0.950 . S
H438 C450 0.950 . S
H439 C451 0.950 . S
C440 H432 0.950 . S
C440 C441 1.386 . S
C440 C442 1.391 . S
C441 C440 1.386 . S
C441 C445 1.393 . S
C442 H434 0.950 . S
C442 C440 1.391 . S
C442 C443 1.400 . S
C443 C442 1.400 . S
C443 C444 1.398 . S
C443 C449 1.491 . S
C444 H435 0.950 . S
C444 C443 1.398 . S
C444 C445 1.391 . S
C445 H433 0.950 . S
C445 C441 1.393 . S
C445 C444 1.391 . S
C446 H436 0.950 . S
C446 C447 1.386 . S
C446 C448 1.391 . S
C447 C446 1.386 . S
C447 C451 1.393 . S
C448 H437 0.950 . S
C448 C446 1.391 . S
C448 C449 1.400 . S
C449 C443 1.491 . S
C449 C448 1.400 . S
C449 C450 1.398 . S
C450 H438 0.950 . S
C450 C449 1.398 . S
C450 C451 1.391 . S
C451 H439 0.950 . S
C451 C447 1.393 . S
C451 C450 1.391 . S
H452 C460 0.950 . S
H453 C465 0.950 . S
H454 C462 0.950 . S
H455 C464 0.950 . S
H456 C466 0.950 . S
H457 C468 0.950 . S
H458 C470 0.950 . S
H459 C471 0.950 . S
C460 H452 0.950 . S
C460 C461 1.386 . S
C460 C462 1.391 . S
C461 C460 1.386 . S
C461 C465 1.393 . S
C462 H454 0.950 . S
C462 C460 1.391 . S
C462 C463 1.400 . S
C463 C462 1.400 . S
C463 C464 1.398 . S
C463 C469 1.491 . S
C464 H455 0.950 . S
C464 C463 1.398 . S
C464 C465 1.391 . S
C465 H453 0.950 . S
C465 C461 1.393 . S
C465 C464 1.391 . S
C466 H456 0.950 . S
C466 C467 1.386 . S
C466 C468 1.391 . S
C467 C466 1.386 . S
C467 C471 1.393 . S
C468 H457 0.950 . S
C468 C466 1.391 . S
C468 C469 1.400 . S
C469 C463 1.491 . S
C469 C468 1.400 . S
C469 C470 1.398 . S
C470 H458 0.950 . S
C470 C469 1.398 . S
C470 C471 1.391 . S
C471 H459 0.950 . S
C471 C467 1.393 . S
C471 C470 1.391 . S
H472 C480 0.950 . S
H473 C485 0.950 . S
H474 C482 0.950 . S
H475 C484 0.941 1_655 S
H476 C486 0.950 1_556 S
H477 C488 0.950 . S
H478 C490 0.950 . S
H479 C491 0.950 . S
C480 H472 0.950 . S
C480 C481 1.386 1_455 S
C480 C482 1.391 . S
C481 C480 1.386 1_655 S
C481 C485 1.393 . S
C482 H474 0.950 . S
C482 C480 1.391 . S
C482 C483 1.400 . S
C483 C482 1.400 . S
C483 C484 1.421 . S
C483 C489 1.491 . S
C484 H475 0.941 1_455 S
C484 C483 1.421 . S
C484 C485 1.378 1_455 S
C485 H473 0.950 . S
C485 C481 1.393 . S
C485 C484 1.378 1_655 S
C486 H476 0.950 1_554 S
C486 C487 1.386 . S
C486 C488 1.391 . S
C487 C486 1.386 . S
C487 C491 1.393 . S
C488 H477 0.950 . S
C488 C486 1.391 . S
C488 C489 1.400 . S
C489 C483 1.491 . S
C489 C488 1.400 . S
C489 C490 1.398 . S
C490 H478 0.950 . S
C490 C489 1.398 . S
C490 C491 1.391 . S
C491 H479 0.950 . S
C491 C487 1.393 . S
C491 C490 1.391 . S
H492 C500 0.950 . S
H493 C505 0.950 . S
H494 C502 0.950 . S
H495 C504 0.950 . S
H496 C506 0.950 . S
H497 C508 0.950 . S
H498 C510 0.950 . S
H499 C511 0.950 1_556 S
C500 H492 0.950 . S
C500 C501 1.386 . S
C500 C502 1.391 . S
C501 C500 1.386 . S
C501 C505 1.393 1_565 S
C502 H494 0.950 . S
C502 C500 1.391 . S
C502 C503 1.400 1_565 S
C503 C502 1.400 1_545 S
C503 C504 1.398 . S
C503 C509 1.491 . S
C504 H495 0.950 . S
C504 C503 1.398 . S
C504 C505 1.391 . S
C505 H493 0.950 . S
C505 C501 1.393 1_545 S
C505 C504 1.391 . S
C506 H496 0.950 . S
C506 C507 1.386 . S
C506 C508 1.391 . S
C507 C506 1.386 . S
C507 C511 1.393 . S
C508 H497 0.950 . S
C508 C506 1.391 . S
C508 C509 1.400 . S
C509 C503 1.491 . S
C509 C508 1.400 . S
C509 C510 1.398 . S
C510 H498 0.950 . S
C510 C509 1.398 . S
C510 C511 1.391 . S
C511 H499 0.950 1_554 S
C511 C507 1.393 . S
C511 C510 1.391 . S
H512 C520 0.950 . S
H513 C525 0.950 . S
H514 C522 0.950 . S
H515 C524 0.950 . S
H516 C526 0.950 . S
H517 C528 0.950 . S
H518 C530 0.950 . S
H519 C531 0.950 . S
C520 H512 0.950 . S
C520 C521 1.386 . S
C520 C522 1.391 . S
C521 C520 1.386 . S
C521 C525 1.393 . S
C522 H514 0.950 . S
C522 C520 1.391 . S
C522 C523 1.400 . S
C523 C522 1.400 . S
C523 C524 1.398 . S
C523 C529 1.491 . S
C524 H515 0.950 . S
C524 C523 1.398 . S
C524 C525 1.391 . S
C525 H513 0.950 . S
C525 C521 1.393 . S
C525 C524 1.391 . S
C526 H516 0.950 . S
C526 C527 1.386 . S
C526 C528 1.391 . S
C527 C526 1.386 . S
C527 C531 1.393 . S
C528 H517 0.950 . S
C528 C526 1.391 . S
C528 C529 1.400 . S
C529 C523 1.491 . S
C529 C528 1.400 . S
C529 C530 1.398 . S
C530 H518 0.950 . S
C530 C529 1.398 . S
C530 C531 1.391 . S
C531 H519 0.950 . S
C531 C527 1.393 . S
C531 C530 1.391 . S
H532 C540 0.950 . S
H533 C545 0.950 . S
H534 C542 0.950 . S
H535 C544 0.950 . S
H536 C546 0.950 . S
H537 C548 0.950 . S
H538 C550 0.950 . S
H539 C551 0.950 1_556 S
C540 H532 0.950 . S
C540 C541 1.386 . S
C540 C542 1.391 . S
C541 C540 1.386 . S
C541 C545 1.393 . S
C542 H534 0.950 . S
C542 C540 1.391 . S
C542 C543 1.400 . S
C543 C542 1.400 . S
C543 C544 1.398 . S
C543 C549 1.491 . S
C544 H535 0.950 . S
C544 C543 1.398 . S
C544 C545 1.391 . S
C545 H533 0.950 . S
C545 C541 1.393 . S
C545 C544 1.391 . S
C546 H536 0.950 . S
C546 C547 1.386 . S
C546 C548 1.391 . S
C547 C546 1.386 . S
C547 C551 1.393 . S
C548 H537 0.950 . S
C548 C546 1.391 . S
C548 C549 1.400 . S
C549 C543 1.491 . S
C549 C548 1.400 . S
C549 C550 1.398 . S
C550 H538 0.950 . S
C550 C549 1.398 . S
C550 C551 1.391 . S
C551 H539 0.950 1_554 S
C551 C547 1.393 . S
C551 C550 1.391 . S
H552 C560 0.950 1_554 S
H553 C565 0.950 . S
H554 C562 0.950 . S
H555 C564 0.946 1_655 S
H556 C566 0.950 . S
H557 C568 0.950 . S
H558 C570 0.950 . S
H559 C571 0.950 . S
C560 H552 0.950 1_556 S
C560 C561 1.386 . S
C560 C562 1.391 . S
C561 C560 1.386 . S
C561 C565 1.393 1_455 S
C562 H554 0.950 . S
C562 C560 1.391 . S
C562 C563 1.400 . S
C563 C562 1.400 . S
C563 C564 1.406 . S
C563 C569 1.491 . S
C564 H555 0.946 1_455 S
C564 C563 1.406 . S
C564 C565 1.389 1_455 S
C565 H553 0.950 . S
C565 C561 1.393 1_655 S
C565 C564 1.389 1_655 S
C566 H556 0.950 . S
C566 C567 1.386 . S
C566 C568 1.391 . S
C567 C566 1.386 . S
C567 C571 1.393 . S
C568 H557 0.950 . S
C568 C566 1.391 . S
C568 C569 1.400 . S
C569 C563 1.491 . S
C569 C568 1.400 . S
C569 C570 1.398 . S
C570 H558 0.950 . S
C570 C569 1.398 . S
C570 C571 1.391 . S
C571 H559 0.950 . S
C571 C567 1.393 . S
C571 C570 1.391 . S
H572 C580 0.950 . S
H573 C585 0.950 1_554 S
H574 C582 0.950 . S
H575 C584 0.950 . S
H576 C586 0.953 . S
H577 C588 0.950 . S
H578 C590 0.950 . S
H579 C591 0.950 . S
C580 H572 0.950 . S
C580 C581 1.386 . S
C580 C582 1.391 . S
C581 C580 1.386 . S
C581 C585 1.393 1_545 S
C582 H574 0.950 . S
C582 C580 1.391 . S
C582 C583 1.400 . S
C583 C582 1.400 . S
C583 C584 1.398 1_545 S
C583 C589 1.491 . S
C584 H575 0.950 . S
C584 C583 1.398 1_565 S
C584 C585 1.391 . S
C585 H573 0.950 1_556 S
C585 C581 1.393 1_565 S
C585 C584 1.391 . S
C586 H576 0.953 . S
C586 C587 1.382 1_565 S
C586 C588 1.392 . S
C587 C586 1.382 1_545 S
C587 C591 1.393 . S
C588 H577 0.950 . S
C588 C586 1.392 . S
C588 C589 1.400 1_565 S
C589 C583 1.491 . S
C589 C588 1.400 1_545 S
C589 C590 1.398 . S
C590 H578 0.950 . S
C590 C589 1.398 . S
C590 C591 1.391 . S
C591 H579 0.950 . S
C591 C587 1.393 . S
C591 C590 1.391 . S
H592 C600 0.950 1_554 S
H593 C605 0.950 . S
H594 C602 0.950 . S
H595 C604 0.950 . S
H596 C606 0.950 . S
H597 C608 0.950 . S
H598 C610 0.950 . S
H599 C611 0.950 . S
C600 H592 0.950 1_556 S
C600 C601 1.386 . S
C600 C602 1.391 . S
C601 C600 1.386 . S
C601 C605 1.393 . S
C602 H594 0.950 . S
C602 C600 1.391 . S
C602 C603 1.400 . S
C603 C602 1.400 . S
C603 C604 1.398 . S
C603 C609 1.491 . S
C604 H595 0.950 . S
C604 C603 1.398 . S
C604 C605 1.391 . S
C605 H593 0.950 . S
C605 C601 1.393 . S
C605 C604 1.391 . S
C606 H596 0.950 . S
C606 C607 1.386 . S
C606 C608 1.391 . S
C607 C606 1.386 . S
C607 C611 1.393 . S
C608 H597 0.950 . S
C608 C606 1.391 . S
C608 C609 1.400 . S
C609 C603 1.491 . S
C609 C608 1.400 . S
C609 C610 1.398 . S
C610 H598 0.950 . S
C610 C609 1.398 . S
C610 C611 1.391 . S
C611 H599 0.950 . S
C611 C607 1.393 . S
C611 C610 1.391 . S
H612 C620 0.950 . S
H613 C625 0.950 . S
H614 C622 0.950 . S
H615 C624 0.950 . S
H616 C626 0.950 . S
H617 C628 0.950 . S
H618 C630 0.950 . S
H619 C631 0.950 . S
C620 H612 0.950 . S
C620 C621 1.386 . S
C620 C622 1.391 . S
C621 C620 1.386 . S
C621 C625 1.393 . S
C622 H614 0.950 . S
C622 C620 1.391 . S
C622 C623 1.400 . S
C623 C622 1.400 . S
C623 C624 1.398 . S
C623 C629 1.491 . S
C624 H615 0.950 . S
C624 C623 1.398 . S
C624 C625 1.391 . S
C625 H613 0.950 . S
C625 C621 1.393 . S
C625 C624 1.391 . S
C626 H616 0.950 . S
C626 C627 1.386 . S
C626 C628 1.391 . S
C627 C626 1.386 . S
C627 C631 1.393 . S
C628 H617 0.950 . S
C628 C626 1.391 . S
C628 C629 1.400 . S
C629 C623 1.491 . S
C629 C628 1.400 . S
C629 C630 1.398 . S
C630 H618 0.950 . S
C630 C629 1.398 . S
C630 C631 1.391 . S
C631 H619 0.950 . S
C631 C627 1.393 . S
C631 C630 1.391 . S
H632 C640 0.950 . S
H633 C645 0.950 . S
H634 C642 0.950 . S
H635 C644 0.950 . S
H636 C646 0.950 . S
H637 C648 0.950 . S
H638 C650 0.950 . S
H639 C651 0.950 . S
C640 H632 0.950 . S
C640 C641 1.386 . S
C640 C642 1.391 . S
C641 C640 1.386 . S
C641 C645 1.393 1_655 S
C642 H634 0.950 . S
C642 C640 1.391 . S
C642 C643 1.400 . S
C643 C642 1.400 . S
C643 C644 1.398 1_655 S
C643 C649 1.491 . S
C644 H635 0.950 . S
C644 C643 1.398 1_455 S
C644 C645 1.391 . S
C645 H633 0.950 . S
C645 C641 1.393 1_455 S
C645 C644 1.391 . S
C646 H636 0.950 . S
C646 C647 1.386 1_455 S
C646 C648 1.391 . S
C647 C646 1.386 1_655 S
C647 C651 1.393 . S
C648 H637 0.950 . S
C648 C646 1.391 . S
C648 C649 1.400 1_455 S
C649 C643 1.491 . S
C649 C648 1.400 1_655 S
C649 C650 1.398 . S
C650 H638 0.950 . S
C650 C649 1.398 . S
C650 C651 1.391 . S
C651 H639 0.950 . S
C651 C647 1.393 . S
C651 C650 1.391 . S
H652 C660 0.950 . S
H653 C665 0.950 . S
H654 C662 0.950 . S
H655 C664 0.950 . S
H656 C666 0.951 . S
H657 C668 0.950 . S
H658 C670 0.950 . S
H659 C671 0.950 . S
C660 H652 0.950 . S
C660 C661 1.386 . S
C660 C662 1.391 . S
C661 C660 1.386 . S
C661 C665 1.393 1_565 S
C662 H654 0.950 . S
C662 C660 1.391 . S
C662 C663 1.400 . S
C663 C662 1.400 . S
C663 C664 1.398 1_565 S
C663 C669 1.491 . S
C664 H655 0.950 . S
C664 C663 1.398 1_545 S
C664 C665 1.391 . S
C665 H653 0.950 . S
C665 C661 1.393 1_545 S
C665 C664 1.391 . S
C666 H656 0.951 . S
C666 C667 1.384 1_545 S
C666 C668 1.391 . S
C667 C666 1.384 1_565 S
C667 C671 1.393 . S
C668 H657 0.950 . S
C668 C666 1.391 . S
C668 C669 1.400 1_545 S
C669 C663 1.491 . S
C669 C668 1.400 1_565 S
C669 C670 1.398 . S
C670 H658 0.950 . S
C670 C669 1.398 . S
C670 C671 1.391 . S
C671 H659 0.950 . S
C671 C667 1.393 . S
C671 C670 1.391 . S
H672 C680 0.950 . S
H673 C685 0.950 . S
H674 C682 0.950 . S
H675 C684 0.950 . S
H676 C686 0.950 . S
H677 C688 0.950 . S
H678 C690 0.950 . S
H679 C691 0.950 . S
C680 H672 0.950 . S
C680 C681 1.386 . S
C680 C682 1.391 . S
C681 C680 1.386 . S
C681 C685 1.393 . S
C682 H674 0.950 . S
C682 C680 1.391 . S
C682 C683 1.400 . S
C683 C682 1.400 . S
C683 C684 1.398 . S
C683 C689 1.491 . S
C684 H675 0.950 . S
C684 C683 1.398 . S
C684 C685 1.391 . S
C685 H673 0.950 . S
C685 C681 1.393 . S
C685 C684 1.391 . S
C686 H676 0.950 . S
C686 C687 1.386 . S
C686 C688 1.391 . S
C687 C686 1.386 . S
C687 C691 1.393 . S
C688 H677 0.950 . S
C688 C686 1.391 . S
C688 C689 1.400 . S
C689 C683 1.491 . S
C689 C688 1.400 . S
C689 C690 1.398 . S
C690 H678 0.950 . S
C690 C689 1.398 . S
C690 C691 1.391 . S
C691 H679 0.950 . S
C691 C687 1.393 . S
C691 C690 1.391 . S
H692 C700 0.950 . S
H693 C705 0.950 . S
H694 C702 0.950 . S
H695 C704 0.950 . S
H696 C706 0.950 . S
H697 C708 0.950 . S
H698 C710 0.950 . S
H699 C711 0.950 . S
C700 H692 0.950 . S
C700 C701 1.386 . S
C700 C702 1.391 . S
C701 C700 1.386 . S
C701 C705 1.393 . S
C702 H694 0.950 . S
C702 C700 1.391 . S
C702 C703 1.400 . S
C703 C702 1.400 . S
C703 C704 1.398 . S
C703 C709 1.491 . S
C704 H695 0.950 . S
C704 C703 1.398 . S
C704 C705 1.391 . S
C705 H693 0.950 . S
C705 C701 1.393 . S
C705 C704 1.391 . S
C706 H696 0.950 . S
C706 C707 1.386 . S
C706 C708 1.391 . S
C707 C706 1.386 . S
C707 C711 1.393 . S
C708 H697 0.950 . S
C708 C706 1.391 . S
C708 C709 1.400 . S
C709 C703 1.491 . S
C709 C708 1.400 . S
C709 C710 1.398 . S
C710 H698 0.950 . S
C710 C709 1.398 . S
C710 C711 1.391 . S
C711 H699 0.950 . S
C711 C707 1.393 . S
C711 C710 1.391 . S
C241 C61 1.787 . S
C247 C82 1.935 1_545 S
C267 C122 1.943 . S
C261 C70 1.818 . S
C287 C162 1.940 . S
C281 C43 1.822 . S
C307 C202 1.933 1_455 S
C301 C52 1.802 1_455 S
C327 C91 1.938 1_565 S
C321 C25 1.810 1_545 S
C341 C34 1.819 . S
C347 C131 1.946 . S
C361 C7 1.801 . S
C367 C171 1.945 . S
C381 C16 1.791 . S
C387 C211 1.939 1_655 S
C407 C88 0.526 . S
C401 C50 0.499 1_455 S
C427 C128 0.494 . S
C421 C59 0.475 1_545 S
C447 C168 0.533 . S
C441 C67 0.501 . S
C461 C41 0.515 . S
C467 C208 0.560 . S
C481 C14 0.472 . S
C487 C79 0.493 . S
C507 C119 0.561 . S
C501 C23 0.489 . S
C527 C159 0.546 . S
C521 C31 0.511 . S
C541 C5 0.499 . S
C547 C199 0.572 . S
C561 C49 1.990 1_455 S
C567 C83 2.231 . S
C581 C58 1.965 1_545 S
C587 C123 2.210 . S
C607 C163 2.217 . S
C601 C68 1.964 . S
C627 C203 2.220 . S
C621 C40 1.994 . S
C641 C13 2.005 . S
C647 C74 2.234 . S
C667 C114 2.209 . S
C661 C22 1.983 . S
C687 C154 2.215 . S
C681 C32 1.958 . S
C701 C4 1.967 . S
C707 C194 2.223 . S
