# Generated by pormake.
# Topology eea, (3,6)-cn, num edge types: 1
# Building blocks:
#     Node 0, Type 0, BuildingBlock: BETDIP_clean_linker_0, # of connection points: 3
#     Node 1, Type 0, BuildingBlock: BETDIP_clean_linker_0, # of connection points: 3
#     Node 2, Type 0, BuildingBlock: BETDIP_clean_linker_0, # of connection points: 3
#     Node 3, Type 0, BuildingBlock: BETDIP_clean_linker_0, # of connection points: 3
#     Node 4, Type 0, BuildingBlock: BETDIP_clean_linker_0, # of connection points: 3
#     Node 5, Type 0, BuildingBlock: BETDIP_clean_linker_0, # of connection points: 3
#     Node 6, Type 0, BuildingBlock: BETDIP_clean_linker_0, # of connection points: 3
#     Node 7, Type 0, BuildingBlock: BETDIP_clean_linker_0, # of connection points: 3
#     Node 8, Type 0, BuildingBlock: BETDIP_clean_linker_0, # of connection points: 3
#     Node 9, Type 0, BuildingBlock: BETDIP_clean_linker_0, # of connection points: 3
#     Node 10, Type 0, BuildingBlock: BETDIP_clean_linker_0, # of connection points: 3
#     Node 11, Type 0, BuildingBlock: BETDIP_clean_linker_0, # of connection points: 3
#     Node 12, Type 0, BuildingBlock: BETDIP_clean_linker_0, # of connection points: 3
#     Node 13, Type 0, BuildingBlock: BETDIP_clean_linker_0, # of connection points: 3
#     Node 14, Type 0, BuildingBlock: BETDIP_clean_linker_0, # of connection points: 3
#     Node 15, Type 0, BuildingBlock: BETDIP_clean_linker_0, # of connection points: 3
#     Node 16, Type 0, BuildingBlock: BETDIP_clean_linker_0, # of connection points: 3
#     Node 17, Type 0, BuildingBlock: BETDIP_clean_linker_0, # of connection points: 3
#     Node 18, Type 1, BuildingBlock: KUMBUR_clean_sbu_0, # of connection points: 6
#     Node 19, Type 1, BuildingBlock: KUMBUR_clean_sbu_0, # of connection points: 6
#     Node 20, Type 1, BuildingBlock: KUMBUR_clean_sbu_0, # of connection points: 6
#     Node 21, Type 1, BuildingBlock: KUMBUR_clean_sbu_0, # of connection points: 6
#     Node 22, Type 1, BuildingBlock: KUMBUR_clean_sbu_0, # of connection points: 6
#     Node 23, Type 1, BuildingBlock: KUMBUR_clean_sbu_0, # of connection points: 6
#     Node 24, Type 1, BuildingBlock: KUMBUR_clean_sbu_0, # of connection points: 6
#     Node 25, Type 1, BuildingBlock: KUMBUR_clean_sbu_0, # of connection points: 6
#     Node 26, Type 1, BuildingBlock: KUMBUR_clean_sbu_0, # of connection points: 6
#     Edge 27, Type (0, 1), BuildingBlock: OJICUG_clean_linker_0, # of connection points: 2
#     Edge 28, Type (0, 1), BuildingBlock: OJICUG_clean_linker_0, # of connection points: 2
#     Edge 29, Type (0, 1), BuildingBlock: OJICUG_clean_linker_0, # of connection points: 2
#     Edge 30, Type (0, 1), BuildingBlock: OJICUG_clean_linker_0, # of connection points: 2
#     Edge 31, Type (0, 1), BuildingBlock: OJICUG_clean_linker_0, # of connection points: 2
#     Edge 32, Type (0, 1), BuildingBlock: OJICUG_clean_linker_0, # of connection points: 2
#     Edge 33, Type (0, 1), BuildingBlock: OJICUG_clean_linker_0, # of connection points: 2
#     Edge 34, Type (0, 1), BuildingBlock: OJICUG_clean_linker_0, # of connection points: 2
#     Edge 35, Type (0, 1), BuildingBlock: OJICUG_clean_linker_0, # of connection points: 2
#     Edge 36, Type (0, 1), BuildingBlock: OJICUG_clean_linker_0, # of connection points: 2
#     Edge 37, Type (0, 1), BuildingBlock: OJICUG_clean_linker_0, # of connection points: 2
#     Edge 38, Type (0, 1), BuildingBlock: OJICUG_clean_linker_0, # of connection points: 2
#     Edge 39, Type (0, 1), BuildingBlock: OJICUG_clean_linker_0, # of connection points: 2
#     Edge 40, Type (0, 1), BuildingBlock: OJICUG_clean_linker_0, # of connection points: 2
#     Edge 41, Type (0, 1), BuildingBlock: OJICUG_clean_linker_0, # of connection points: 2
#     Edge 42, Type (0, 1), BuildingBlock: OJICUG_clean_linker_0, # of connection points: 2
#     Edge 43, Type (0, 1), BuildingBlock: OJICUG_clean_linker_0, # of connection points: 2
#     Edge 44, Type (0, 1), BuildingBlock: OJICUG_clean_linker_0, # of connection points: 2
#     Edge 45, Type (0, 1), BuildingBlock: OJICUG_clean_linker_0, # of connection points: 2
#     Edge 46, Type (0, 1), BuildingBlock: OJICUG_clean_linker_0, # of connection points: 2
#     Edge 47, Type (0, 1), BuildingBlock: OJICUG_clean_linker_0, # of connection points: 2
#     Edge 48, Type (0, 1), BuildingBlock: OJICUG_clean_linker_0, # of connection points: 2
#     Edge 49, Type (0, 1), BuildingBlock: OJICUG_clean_linker_0, # of connection points: 2
#     Edge 50, Type (0, 1), BuildingBlock: OJICUG_clean_linker_0, # of connection points: 2
#     Edge 51, Type (0, 1), BuildingBlock: OJICUG_clean_linker_0, # of connection points: 2
#     Edge 52, Type (0, 1), BuildingBlock: OJICUG_clean_linker_0, # of connection points: 2
#     Edge 53, Type (0, 1), BuildingBlock: OJICUG_clean_linker_0, # of connection points: 2
#     Edge 54, Type (0, 1), BuildingBlock: OJICUG_clean_linker_0, # of connection points: 2
#     Edge 55, Type (0, 1), BuildingBlock: OJICUG_clean_linker_0, # of connection points: 2
#     Edge 56, Type (0, 1), BuildingBlock: OJICUG_clean_linker_0, # of connection points: 2
#     Edge 57, Type (0, 1), BuildingBlock: OJICUG_clean_linker_0, # of connection points: 2
#     Edge 58, Type (0, 1), BuildingBlock: OJICUG_clean_linker_0, # of connection points: 2
#     Edge 59, Type (0, 1), BuildingBlock: OJICUG_clean_linker_0, # of connection points: 2
#     Edge 60, Type (0, 1), BuildingBlock: OJICUG_clean_linker_0, # of connection points: 2
#     Edge 61, Type (0, 1), BuildingBlock: OJICUG_clean_linker_0, # of connection points: 2
#     Edge 62, Type (0, 1), BuildingBlock: OJICUG_clean_linker_0, # of connection points: 2
#     Edge 63, Type (0, 1), BuildingBlock: OJICUG_clean_linker_0, # of connection points: 2
#     Edge 64, Type (0, 1), BuildingBlock: OJICUG_clean_linker_0, # of connection points: 2
#     Edge 65, Type (0, 1), BuildingBlock: OJICUG_clean_linker_0, # of connection points: 2
#     Edge 66, Type (0, 1), BuildingBlock: OJICUG_clean_linker_0, # of connection points: 2
#     Edge 67, Type (0, 1), BuildingBlock: OJICUG_clean_linker_0, # of connection points: 2
#     Edge 68, Type (0, 1), BuildingBlock: OJICUG_clean_linker_0, # of connection points: 2
#     Edge 69, Type (0, 1), BuildingBlock: OJICUG_clean_linker_0, # of connection points: 2
#     Edge 70, Type (0, 1), BuildingBlock: OJICUG_clean_linker_0, # of connection points: 2
#     Edge 71, Type (0, 1), BuildingBlock: OJICUG_clean_linker_0, # of connection points: 2
#     Edge 72, Type (0, 1), BuildingBlock: OJICUG_clean_linker_0, # of connection points: 2
#     Edge 73, Type (0, 1), BuildingBlock: OJICUG_clean_linker_0, # of connection points: 2
#     Edge 74, Type (0, 1), BuildingBlock: OJICUG_clean_linker_0, # of connection points: 2
#     Edge 75, Type (0, 1), BuildingBlock: OJICUG_clean_linker_0, # of connection points: 2
#     Edge 76, Type (0, 1), BuildingBlock: OJICUG_clean_linker_0, # of connection points: 2
#     Edge 77, Type (0, 1), BuildingBlock: OJICUG_clean_linker_0, # of connection points: 2
#     Edge 78, Type (0, 1), BuildingBlock: OJICUG_clean_linker_0, # of connection points: 2
#     Edge 79, Type (0, 1), BuildingBlock: OJICUG_clean_linker_0, # of connection points: 2
#     Edge 80, Type (0, 1), BuildingBlock: OJICUG_clean_linker_0, # of connection points: 2
# Relax obj value: 0.026
# Max RMSD: 0.187
# Mean RMSD: 0.132
data_MOF--net-eea--node1-KUMBUR_clean_sbu_0--node2-BETDIP_clean_linker_0--edge1-OJICUG_clean_linker_0
_symmetry_space_group_name_H-M    P1
_symmetry_Int_Tables_number       1
_symmetry_cell_setting            triclinic
loop_
_symmetry_equiv_pos_as_xyz
'x, y, z'
_cell_length_a     38.604765
_cell_length_b     40.227991
_cell_length_c     51.859406
_cell_angle_alpha  89.656707
_cell_angle_beta   89.520105
_cell_angle_gamma 120.16514
loop_
_atom_site_label
_atom_site_type_symbol
_atom_site_fract_x
_atom_site_fract_y
_atom_site_fract_z
_atom_type_partial_charge
H0 H 0.2125 0.08343 0.38312 0.0
H1 H 0.27621 0.16588 0.44241 0.0
H2 H 0.28119 0.06236 0.43937 0.0
H3 H 0.23372 0.18493 0.43526 0.0
C4 C 0.22665 0.18094 0.41492 0.0
C5 C 0.2317 0.09218 0.3998 0.0
C6 C 0.24551 0.06825 0.40971 0.0
C7 C 0.24174 0.12713 0.41169 0.0
C8 C 0.26686 0.13862 0.43331 0.0
C9 C 0.28013 0.1148 0.44366 0.0
C10 C 0.2696 0.07993 0.43174 0.0
N11 N 0.22664 0.15026 0.40136 0.0
H12 H 0.95391 0.13698 0.37502 0.0
H13 H 0.86651 0.10334 0.43668 0.0
H14 H 0.96537 0.21837 0.43292 0.0
H15 H 0.85492 0.0457 0.42963 0.0
C16 C 0.85744 0.04405 0.40888 0.0
C17 C 0.94325 0.14372 0.3925 0.0
C18 C 0.96379 0.18153 0.40221 0.0
C19 C 0.90831 0.11475 0.40506 0.0
C20 C 0.89399 0.1244 0.42724 0.0
C21 C 0.91467 0.16142 0.43758 0.0
C22 C 0.94956 0.18963 0.42506 0.0
N23 N 0.8871 0.07676 0.39465 0.0
H24 H 0.89032 0.80937 0.36901 0.0
H25 H 0.9326 0.77406 0.43438 0.0
H26 H 0.81544 0.76243 0.43664 0.0
H27 H 0.99571 0.84925 0.40927 0.0
C28 C 0.99101 0.82723 0.39543 0.0
C29 C 0.88587 0.79829 0.38859 0.0
C30 C 0.84936 0.787 0.40164 0.0
C31 C 0.91637 0.79443 0.40059 0.0
C32 C 0.90989 0.77868 0.42573 0.0
C33 C 0.87304 0.76602 0.43872 0.0
C34 C 0.84357 0.77122 0.42663 0.0
N35 N 0.95153 0.80231 0.38634 0.0
H36 H 0.08917 0.20401 0.66707 0.0
H37 H 0.17241 0.23825 0.60321 0.0
H38 H 0.0717 0.2563 0.59947 0.0
H39 H 0.15484 0.16427 0.62587 0.0
C40 C 0.17237 0.18533 0.64037 0.0
C41 C 0.09818 0.2159 0.64775 0.0
C42 C 0.0754 0.22875 0.63428 0.0
C43 C 0.13306 0.21897 0.63643 0.0
C44 C 0.14519 0.23528 0.61162 0.0
C45 C 0.1235 0.24922 0.59813 0.0
C46 C 0.08846 0.24537 0.60957 0.0
N47 N 0.15777 0.20876 0.65078 0.0
H48 H 0.81956 0.88758 0.65439 0.0
H49 H 0.76046 0.91319 0.59429 0.0
H50 H 0.75256 0.80341 0.5963 0.0
H51 H 0.8074 0.97249 0.60009 0.0
C52 C 0.81281 0.97485 0.62068 0.0
C53 C 0.80172 0.87891 0.6371 0.0
C54 C 0.78682 0.8416 0.62719 0.0
C55 C 0.79363 0.90546 0.62489 0.0
C56 C 0.76858 0.89383 0.60331 0.0
C57 C 0.75363 0.85707 0.59302 0.0
C58 C 0.7635 0.83145 0.60472 0.0
N59 N 0.81016 0.94328 0.63497 0.0
H60 H 0.13408 0.91805 0.65818 0.0
H61 H 0.11671 0.83841 0.59809 0.0
H62 H 0.21896 0.95212 0.59471 0.0
H63 H 0.05996 0.87541 0.65909 0.0
C64 C 0.0572 0.84746 0.65621 0.0
C65 C 0.14378 0.91191 0.64009 0.0
C66 C 0.17946 0.94036 0.62773 0.0
C67 C 0.12127 0.87504 0.62927 0.0
C68 C 0.13426 0.86684 0.6062 0.0
C69 C 0.16874 0.8948 0.59325 0.0
C70 C 0.19122 0.9313 0.60417 0.0
N71 N 0.08662 0.84444 0.6414 0.0
H72 H 0.88808 0.42032 0.71203 0.0
H73 H 0.94544 0.50021 0.77353 0.0
H74 H 0.94765 0.3952 0.7728 0.0
H75 H 0.90184 0.51773 0.76573 0.0
C76 C 0.89616 0.51457 0.74519 0.0
C77 C 0.90459 0.42775 0.72987 0.0
C78 C 0.91744 0.40342 0.74049 0.0
C79 C 0.91308 0.46204 0.74209 0.0
C80 C 0.93656 0.47302 0.76446 0.0
C81 C 0.94884 0.44889 0.77554 0.0
C82 C 0.93858 0.41395 0.76379 0.0
N83 N 0.8983 0.48518 0.73134 0.0
H84 H 0.62009 0.46792 0.70672 0.0
H85 H 0.5357 0.43547 0.77009 0.0
H86 H 0.63434 0.5504 0.76448 0.0
H87 H 0.5233 0.37763 0.76319 0.0
C88 C 0.52521 0.37561 0.74243 0.0
C89 C 0.61025 0.47497 0.72443 0.0
C90 C 0.63096 0.51305 0.73365 0.0
C91 C 0.57616 0.44616 0.73777 0.0
C92 C 0.56307 0.45616 0.76035 0.0
C93 C 0.58409 0.49342 0.77026 0.0
C94 C 0.61783 0.52161 0.75677 0.0
N95 N 0.55445 0.40798 0.72775 0.0
H96 H 0.55294 0.1393 0.70259 0.0
H97 H 0.60127 0.10495 0.76501 0.0
H98 H 0.48327 0.09053 0.77218 0.0
H99 H 0.66041 0.18078 0.73962 0.0
C100 C 0.65579 0.15891 0.72566 0.0
C101 C 0.55006 0.12795 0.72199 0.0
C102 C 0.51458 0.11634 0.73644 0.0
C103 C 0.58161 0.12428 0.73241 0.0
C104 C 0.57732 0.10853 0.75732 0.0
C105 C 0.5418 0.09598 0.77183 0.0
C106 C 0.5109 0.10045 0.76128 0.0
N107 N 0.61617 0.13335 0.7171 0.0
H108 H 0.75655 0.53749 0.99906 0.0
H109 H 0.83984 0.57197 0.93522 0.0
H110 H 0.73814 0.5885 0.93114 0.0
H111 H 0.82341 0.49869 0.9582 0.0
C112 C 0.84069 0.51992 0.97268 0.0
C113 C 0.76546 0.54924 0.9797 0.0
C114 C 0.74231 0.56153 0.96609 0.0
C115 C 0.80054 0.55267 0.96846 0.0
C116 C 0.81249 0.56875 0.94358 0.0
C117 C 0.79041 0.58214 0.92995 0.0
C118 C 0.7552 0.57798 0.94133 0.0
N119 N 0.8256 0.54303 0.98293 0.0
H120 H 0.5025 0.22605 0.9791 0.0
H121 H 0.4297 0.24622 0.92632 0.0
H122 H 0.41646 0.13443 0.93142 0.0
H123 H 0.47704 0.30624 0.92923 0.0
C124 C 0.48561 0.30954 0.94934 0.0
C125 C 0.47931 0.21528 0.9647 0.0
C126 C 0.46119 0.17671 0.95665 0.0
C127 C 0.46841 0.24069 0.95383 0.0
C128 C 0.43886 0.22728 0.93476 0.0
C129 C 0.42097 0.18932 0.92613 0.0
C130 C 0.43175 0.16413 0.93744 0.0
N131 N 0.48684 0.27923 0.96282 0.0
H132 H 0.79904 0.2636 0.99097 0.0
H133 H 0.76868 0.17929 0.93196 0.0
H134 H 0.87969 0.28641 0.92648 0.0
H135 H 0.75225 0.14308 0.97413 0.0
C136 C 0.73145 0.15273 0.97949 0.0
C137 C 0.80658 0.25506 0.97298 0.0
C138 C 0.84294 0.28008 0.95993 0.0
C139 C 0.78022 0.21837 0.96332 0.0
C140 C 0.78945 0.20719 0.93979 0.0
C141 C 0.82484 0.23201 0.92607 0.0
C142 C 0.85145 0.26817 0.9364 0.0
N143 N 0.74474 0.1927 0.97749 0.0
H144 H 0.5372 0.74057 0.05029 0.0
H145 H 0.59884 0.82605 0.10815 0.0
H146 H 0.61275 0.72727 0.10533 0.0
H147 H 0.55007 0.83836 0.10205 0.0
C148 C 0.54479 0.83535 0.08145 0.0
C149 C 0.55716 0.75085 0.06658 0.0
C150 C 0.57387 0.72927 0.07631 0.0
C151 C 0.56526 0.78542 0.07813 0.0
C152 C 0.59115 0.79895 0.09934 0.0
C153 C 0.60735 0.77747 0.10954 0.0
C154 C 0.59887 0.74294 0.09787 0.0
N155 N 0.54777 0.80637 0.06772 0.0
H156 H 0.28673 0.80586 0.04158 0.0
H157 H 0.19891 0.77199 0.10288 0.0
H158 H 0.29664 0.88763 0.09875 0.0
H159 H 0.18948 0.71471 0.09669 0.0
C160 C 0.19184 0.71277 0.07595 0.0
C161 C 0.27575 0.81272 0.05887 0.0
C162 C 0.29578 0.85066 0.06833 0.0
C163 C 0.24107 0.78365 0.07148 0.0
C164 C 0.22627 0.79326 0.09342 0.0
C165 C 0.24637 0.83045 0.1035 0.0
C166 C 0.28115 0.85883 0.09098 0.0
N167 N 0.22069 0.74549 0.06142 0.0
H168 H 0.22439 0.47461 0.03699 0.0
H169 H 0.26608 0.43874 0.10238 0.0
H170 H 0.15004 0.42963 0.105 0.0
H171 H 0.32986 0.51347 0.07647 0.0
C172 C 0.32462 0.49111 0.06279 0.0
C173 C 0.21998 0.46377 0.05663 0.0
C174 C 0.18379 0.45334 0.06983 0.0
C175 C 0.25015 0.45931 0.06856 0.0
C176 C 0.24366 0.44384 0.09378 0.0
C177 C 0.20709 0.43202 0.10692 0.0
C178 C 0.17795 0.4378 0.09489 0.0
N179 N 0.28485 0.46625 0.05415 0.0
H180 H 0.42163 0.87212 0.3314 0.0
H181 H 0.50526 0.9049 0.2679 0.0
H182 H 0.40505 0.92362 0.26306 0.0
H183 H 0.48748 0.83144 0.29133 0.0
C184 C 0.50492 0.85275 0.30572 0.0
C185 C 0.43085 0.8837 0.31203 0.0
C186 C 0.40828 0.89646 0.2982 0.0
C187 C 0.46574 0.88643 0.301 0.0
C188 C 0.47808 0.90227 0.2761 0.0
C189 C 0.45666 0.91619 0.26225 0.0
C190 C 0.42162 0.91273 0.27342 0.0
N191 N 0.49027 0.87637 0.31571 0.0
H192 H 0.15377 0.55575 0.32148 0.0
H193 H 0.09377 0.57993 0.26122 0.0
H194 H 0.08621 0.47037 0.26415 0.0
H195 H 0.13929 0.63935 0.26682 0.0
C196 C 0.14569 0.64214 0.28727 0.0
C197 C 0.13574 0.54672 0.30428 0.0
C198 C 0.12072 0.50918 0.29473 0.0
C199 C 0.12744 0.57298 0.29185 0.0
C200 C 0.10211 0.56084 0.27041 0.0
C201 C 0.08713 0.52391 0.26044 0.0
C202 C 0.09719 0.49857 0.27234 0.0
N203 N 0.144 0.611 0.30159 0.0
H204 H 0.46794 0.58651 0.32382 0.0
H205 H 0.44952 0.50521 0.26471 0.0
H206 H 0.55215 0.61861 0.26008 0.0
H207 H 0.3935 0.5435 0.32549 0.0
C208 C 0.39074 0.51553 0.32276 0.0
C209 C 0.47737 0.57985 0.30581 0.0
C210 C 0.51303 0.60791 0.29315 0.0
C211 C 0.45457 0.5427 0.29541 0.0
C212 C 0.46726 0.53385 0.27248 0.0
C213 C 0.50172 0.56134 0.25925 0.0
C214 C 0.52445 0.59814 0.26973 0.0
N215 N 0.42004 0.51236 0.30789 0.0
Tb216 Tb 0.49401 0.98438 0.98593 0.0
C217 C 0.56891 0.1171 0.0636 0.0
C218 C 0.63905 0.13616 0.06368 0.0
C219 C 0.6188 0.18296 0.07365 0.0
C220 C 0.59857 0.10816 0.05988 0.0
C221 C 0.57843 0.1542 0.07142 0.0
C222 C 0.64913 0.17396 0.06972 0.0
C223 C 0.50763 0.13016 0.07753 0.0
N224 N 0.53042 0.08828 0.06174 0.0
C225 C 0.49978 0.09386 0.06956 0.0
C226 C 0.5471 0.16069 0.07796 0.0
Tb227 Tb 0.52011 0.02968 0.04868 0.0
N228 N 0.58733 0.0711 0.0548 0.0
C229 C 0.61507 0.05945 0.05564 0.0
C230 C 0.66788 0.12489 0.0625 0.0
C231 C 0.65571 0.0862 0.05897 0.0
H232 H 0.46913 0.07062 0.06913 0.0
H233 H 0.67761 0.07692 0.05876 0.0
H234 H 0.6801 0.196 0.07241 0.0
H235 H 0.48321 0.1346 0.08317 0.0
H236 H 0.60644 0.02975 0.05291 0.0
H237 H 0.33643 0.9384 0.97923 0.0
H238 H 0.69933 0.1455 0.06523 0.0
H239 H 0.54368 0.94113 0.96708 0.0
H240 H 0.40811 0.98526 0.9837 0.0
H241 H 0.52818 0.87605 0.95471 0.0
H242 H 0.62681 0.21181 0.07932 0.0
H243 H 0.31381 0.86959 0.97288 0.0
H244 H 0.33199 0.81837 0.96555 0.0
H245 H 0.55311 0.18874 0.08417 0.0
H246 H 0.38437 0.80134 0.95864 0.0
N247 N 0.42652 0.9435 0.98084 0.0
C248 C 0.399 0.95544 0.98091 0.0
C249 C 0.34546 0.89007 0.97491 0.0
C250 C 0.37395 0.87842 0.97309 0.0
C251 C 0.35812 0.92889 0.9784 0.0
C252 C 0.41471 0.90624 0.976 0.0
H253 H 0.45776 0.82289 0.95398 0.0
N254 N 0.48266 0.925 0.97394 0.0
C255 C 0.50416 0.88138 0.9598 0.0
C256 C 0.4439 0.89662 0.97234 0.0
C257 C 0.51282 0.91829 0.96681 0.0
C258 C 0.46439 0.85142 0.95948 0.0
C259 C 0.43359 0.85897 0.96539 0.0
O260 O 0.52942 1.00094 0.95195 0.0
O261 O 0.53885 0.02995 1.00923 0.0
O262 O 0.51746 0.07146 0.02265 0.0
O263 O 0.47842 0.02997 0.98995 0.0
O264 O 0.5579 1.00357 0.98389 0.0
O265 O 0.47456 1.00222 0.95357 0.0
O266 O 0.48546 0.01407 0.08305 0.0
O267 O 0.47572 0.98435 0.02526 0.0
O268 O 0.49707 0.94312 0.01226 0.0
O269 O 0.53744 0.98546 0.04406 0.0
O270 O 0.45568 0.00935 0.05046 0.0
O271 O 0.53755 0.00822 0.07999 0.0
C272 C 0.56982 0.0305 1.00055 0.0
C273 C 0.49565 0.99264 0.91267 0.0
C274 C 0.50212 0.00419 0.86593 0.0
C275 C 0.50903 0.01826 0.89136 0.0
C276 C 0.48122 0.96418 0.86225 0.0
C277 C 0.47459 0.95293 0.90841 0.0
C278 C 0.46745 0.93884 0.88334 0.0
C279 C 0.49547 0.06381 1.00161 0.0
C280 C 0.50476 0.00771 0.93913 0.0
C281 C 0.39298 0.83057 0.96368 0.0
C282 C 0.36317 0.84027 0.9676 0.0
C283 C 0.44412 0.98238 0.03386 0.0
C284 C 0.52053 0.01966 0.12146 0.0
C285 C 0.50523 0.99434 0.14286 0.0
C286 C 0.51725 0.00803 0.16812 0.0
C287 C 0.54429 0.0475 0.1715 0.0
C288 C 0.54757 0.05875 0.12543 0.0
C289 C 0.55922 0.07256 0.15031 0.0
C290 C 0.52007 0.95132 0.03283 0.0
C291 C 0.50888 0.00483 0.09511 0.0
H292 H 0.5254 0.049 0.89458 0.0
H293 H 0.475 0.95243 0.843 0.0
H294 H 0.4638 0.9328 0.92441 0.0
H295 H 0.45119 0.90812 0.88023 0.0
H296 H 0.48468 0.96401 0.1398 0.0
H297 H 0.55362 0.05914 0.1906 0.0
H298 H 0.55985 0.07858 0.10933 0.0
H299 H 0.58001 0.10284 0.15319 0.0
Tb300 Tb 0.04466 0.50636 0.98744 0.0
C301 C 0.89976 0.44358 0.05947 0.0
C302 C 0.87947 0.49126 0.05621 0.0
C303 C 0.82961 0.4245 0.06513 0.0
C304 C 0.90936 0.48094 0.05491 0.0
C305 C 0.86007 0.4151 0.06562 0.0
C306 C 0.83932 0.4626 0.06039 0.0
C307 C 0.8847 0.37215 0.07605 0.0
N308 N 0.93023 0.43607 0.06038 0.0
C309 C 0.92362 0.40153 0.0699 0.0
C310 C 0.85264 0.37869 0.07337 0.0
Tb311 Tb 0.99286 0.48525 0.04908 0.0
N312 N 0.9486 0.5077 0.05159 0.0
C313 C 0.96027 0.54597 0.05166 0.0
C314 C 0.8911 0.5302 0.05457 0.0
C315 C 0.93176 0.5577 0.05289 0.0
H316 H 0.94822 0.39615 0.07185 0.0
H317 H 0.94119 0.58799 0.05228 0.0
H318 H 0.81583 0.46985 0.06108 0.0
H319 H 0.87949 0.34447 0.0828 0.0
H320 H 0.99143 0.56779 0.05009 0.0
H321 H 0.10199 0.40825 0.98516 0.0
H322 H 0.8691 0.53937 0.05548 0.0
H323 H 0.08571 0.59633 0.96642 0.0
H324 H 0.04971 0.42602 0.9877 0.0
H325 H 0.15295 0.64917 0.95373 0.0
H326 H 0.7988 0.40293 0.06943 0.0
H327 H 0.17314 0.45865 0.97961 0.0
H328 H 0.2239 0.52849 0.97177 0.0
H329 H 0.82257 0.35599 0.07832 0.0
H330 H 0.23786 0.59438 0.96297 0.0
N331 N 0.0907 0.48632 0.98463 0.0
C332 C 0.08053 0.44847 0.98525 0.0
C333 C 0.15028 0.4667 0.98081 0.0
C334 C 0.16022 0.50515 0.97831 0.0
C335 C 0.11015 0.43818 0.98384 0.0
C336 C 0.12932 0.51404 0.98019 0.0
H337 H 0.21133 0.63947 0.95545 0.0
N338 N 0.10593 0.55731 0.97575 0.0
C339 C 0.149 0.62175 0.95998 0.0
C340 C 0.13726 0.55096 0.97551 0.0
C341 C 0.11092 0.59172 0.96715 0.0
C342 C 0.18191 0.61621 0.96108 0.0
C343 C 0.17618 0.58025 0.96849 0.0
O344 O 0.03193 0.52273 0.95173 0.0
O345 O 0.99429 0.50078 1.00925 0.0
O346 O 0.9537 0.43786 0.02394 0.0
O347 O 0.99872 0.44458 0.99092 0.0
O348 O 0.01855 0.54382 0.98272 0.0
O349 O 0.02972 0.46841 0.95639 0.0
O350 O 1.00632 0.46776 0.08413 0.0
O351 O 0.04357 0.49055 0.02743 0.0
O352 O 0.08465 0.55262 0.01299 0.0
O353 O 0.03894 0.547 0.04493 0.0
O354 O 0.01625 0.44587 0.05297 0.0
O355 O 1.00787 0.5218 0.08097 0.0
C356 C 0.98991 0.5271 0.99938 0.0
C357 C 0.04713 0.49768 0.91516 0.0
C358 C 0.04271 0.49311 0.86834 0.0
C359 C 0.02419 0.48721 0.89272 0.0
C360 C 0.08454 0.50967 0.86668 0.0
C361 C 0.08875 0.51361 0.91317 0.0
C362 C 0.10735 0.51968 0.88904 0.0
C363 C 0.96367 0.42508 1.00329 0.0
C364 C 0.02695 0.49192 0.9403 0.0
C365 C 0.2076 0.57217 0.96801 0.0
C366 C 0.19964 0.53465 0.97299 0.0
C367 C 0.04585 0.46276 0.03698 0.0
C368 C 0.9896 0.48993 0.12136 0.0
C369 C 1.01092 0.49482 0.14412 0.0
C370 C 0.99153 0.48754 0.16834 0.0
C371 C 0.95025 0.47471 0.16935 0.0
C372 C 0.94863 0.47771 0.12281 0.0
C373 C 0.92904 0.4699 0.14669 0.0
C374 C 0.07451 0.56619 0.03311 0.0
C375 C 1.01068 0.49767 0.0964 0.0
H376 H 0.99198 0.47492 0.89423 0.0
H377 H 0.09949 0.51429 0.84813 0.0
H378 H 0.10688 0.52129 0.93013 0.0
H379 H 0.13952 0.53207 0.88766 0.0
H380 H 0.04279 0.50512 0.14293 0.0
H381 H 0.93434 0.46836 0.18765 0.0
H382 H 0.93181 0.47437 0.10559 0.0
H383 H 0.89734 0.46024 0.14764 0.0
Tb384 Tb 0.54269 0.5069 0.04479 0.0
C385 C 0.47151 0.5747 0.97016 0.0
C386 C 0.40045 0.5296 0.97334 0.0
C387 C 0.42412 0.59663 0.9627 0.0
C388 C 0.4405 0.53811 0.9752 0.0
C389 C 0.46383 0.60418 0.96293 0.0
C390 C 0.39243 0.55934 0.96796 0.0
C391 C 0.53443 0.64442 0.95333 0.0
N392 N 0.50922 0.58045 0.97016 0.0
C393 C 0.54046 0.61421 0.96077 0.0
C394 C 0.49606 0.63967 0.95494 0.0
Tb395 Tb 0.51661 0.5297 0.98286 0.0
N396 N 0.4497 0.51021 0.97955 0.0
C397 C 0.41996 0.47243 0.97989 0.0
C398 C 0.36983 0.49125 0.97564 0.0
C399 C 0.3797 0.46247 0.97833 0.0
H400 H 0.5703 0.61834 0.95959 0.0
H401 H 0.3563 0.43258 0.97938 0.0
H402 H 0.36186 0.55349 0.96677 0.0
H403 H 0.55942 0.67139 0.94649 0.0
H404 H 0.42684 0.44972 0.98214 0.0
H405 H 0.70234 0.60509 0.05071 0.0
H406 H 0.33865 0.48345 0.97436 0.0
H407 H 0.48803 0.41523 0.0622 0.0
H408 H 0.63165 0.58729 0.04677 0.0
H409 H 0.49919 0.36165 0.07349 0.0
H410 H 0.41755 0.619 0.95752 0.0
H411 H 0.72049 0.55459 0.05606 0.0
H412 H 0.69778 0.48444 0.06248 0.0
H413 H 0.49145 0.66306 0.94912 0.0
H414 H 0.64232 0.41797 0.0689 0.0
N415 N 0.60946 0.52694 0.04896 0.0
C416 C 0.63886 0.56481 0.04914 0.0
C417 C 0.68929 0.54654 0.05428 0.0
C418 C 0.65891 0.50798 0.05579 0.0
C419 C 0.67915 0.57511 0.05135 0.0
C420 C 0.61884 0.4991 0.05319 0.0
H421 H 0.56804 0.37199 0.07365 0.0
N422 N 0.5499 0.45537 0.05549 0.0
C423 C 0.52441 0.38967 0.06865 0.0
C424 C 0.58789 0.46189 0.05664 0.0
C425 C 0.51821 0.42013 0.0623 0.0
C426 C 0.56331 0.39559 0.06864 0.0
C427 C 0.59573 0.43222 0.06298 0.0
O428 O 0.51145 0.48886 0.08034 0.0
O429 O 0.49919 0.51293 0.02257 0.0
O430 O 0.52496 0.57613 1.00826 0.0
O431 O 0.5616 0.56861 0.04137 0.0
O432 O 0.47727 0.46904 0.04848 0.0
O433 O 0.56482 0.54432 0.07624 0.0
O434 O 0.55052 0.54461 0.9483 0.0
O435 O 0.5606 0.52429 1.00524 0.0
O436 O 0.53728 0.46298 0.01788 0.0
O437 O 0.49588 0.46783 0.98752 0.0
O438 O 0.58157 0.56893 0.97978 0.0
O439 O 0.49319 0.49289 0.95113 0.0
C440 C 0.46679 0.48621 0.03201 0.0
C441 C 0.55103 0.51483 0.11741 0.0
C442 C 0.55124 0.52034 0.16436 0.0
C443 C 0.53856 0.52534 0.13995 0.0
C444 C 0.57683 0.50496 0.16579 0.0
C445 C 0.57668 0.49974 0.11936 0.0
C446 C 0.58947 0.49484 0.14341 0.0
C447 C 0.54705 0.58816 0.02928 0.0
C448 C 0.53723 0.52 0.0921 0.0
C449 C 0.6356 0.44043 0.06433 0.0
C450 C 0.66717 0.47828 0.06069 0.0
C451 C 0.59261 0.55208 0.99614 0.0
C452 C 0.51312 0.52339 0.91027 0.0
C453 C 0.53097 0.51768 0.88831 0.0
C454 C 0.52231 0.52566 0.86344 0.0
C455 C 0.49565 0.53971 0.861 0.0
C456 C 0.48635 0.53705 0.90735 0.0
C457 C 0.47783 0.5453 0.88283 0.0
C458 C 0.51297 0.4495 0.99797 0.0
C459 C 0.52311 0.51524 0.93598 0.0
H460 H 0.51857 0.53687 0.13849 0.0
H461 H 0.58748 0.50119 0.18422 0.0
H462 H 0.58693 0.49185 0.10238 0.0
H463 H 0.60933 0.48321 0.14471 0.0
H464 H 0.55184 0.50733 0.89063 0.0
H465 H 0.48792 0.54565 0.84217 0.0
H466 H 0.47193 0.54119 0.92393 0.0
H467 H 0.45711 0.55581 0.88072 0.0
Tb468 Tb 0.16407 0.32376 0.32215 0.0
C469 C 0.22889 0.45416 0.40084 0.0
C470 C 0.29965 0.47643 0.40384 0.0
C471 C 0.27535 0.52085 0.41129 0.0
C472 C 0.26011 0.44701 0.39899 0.0
C473 C 0.23589 0.49093 0.40749 0.0
C474 C 0.30722 0.5136 0.40948 0.0
C475 C 0.16426 0.46489 0.40818 0.0
N476 N 0.19131 0.42437 0.39731 0.0
C477 C 0.15889 0.42886 0.40183 0.0
C478 C 0.20296 0.49619 0.41076 0.0
Tb479 Tb 0.18543 0.36682 0.38563 0.0
N480 N 0.2514 0.41068 0.39363 0.0
C481 C 0.2809 0.4013 0.39464 0.0
C482 C 0.33019 0.46737 0.4035 0.0
C483 C 0.32065 0.42951 0.39922 0.0
H484 H 0.12883 0.40496 0.39974 0.0
H485 H 0.34393 0.42201 0.39935 0.0
H486 H 0.33743 0.53669 0.41302 0.0
H487 H 0.13854 0.46848 0.41111 0.0
H488 H 0.27443 0.37235 0.39128 0.0
H489 H 1.004 0.26306 0.31297 0.0
H490 H 0.36099 0.48914 0.40705 0.0
H491 H 0.22242 0.28937 0.30383 0.0
H492 H 0.07357 0.31486 0.31854 0.0
H493 H 0.21461 0.22705 0.29105 0.0
H494 H 0.28144 0.54941 0.41622 0.0
H495 H 0.98886 0.19626 0.30623 0.0
H496 H 1.01459 0.15057 0.29906 0.0
H497 H 0.20704 0.52402 0.41582 0.0
H498 H 0.07216 0.14075 0.29281 0.0
N499 N 0.09822 0.27795 0.31596 0.0
C500 C 0.06775 0.28601 0.3156 0.0
C501 C 0.0196 0.21894 0.30877 0.0
C502 C 0.05111 0.21129 0.30739 0.0
C503 C 0.02805 0.25662 0.31247 0.0
C504 C 0.09052 0.24185 0.31096 0.0
H505 H 0.14701 0.16937 0.28918 0.0
N506 N 0.15986 0.26719 0.30976 0.0
C507 C 0.18846 0.22918 0.29581 0.0
C508 C 0.12258 0.23625 0.30763 0.0
C509 C 0.19275 0.26452 0.30303 0.0
C510 C 0.15026 0.19666 0.29485 0.0
C511 C 0.11664 0.20006 0.3004 0.0
O512 O 0.19936 0.34274 0.28815 0.0
O513 O 0.20557 0.36968 0.3465 0.0
O514 O 0.18206 0.40718 0.35878 0.0
O515 O 0.14145 0.36413 0.32748 0.0
O516 O 0.22967 0.34992 0.32007 0.0
O517 O 0.14309 0.34123 0.29034 0.0
O518 O 0.15061 0.35156 0.41986 0.0
O519 O 0.14366 0.32046 0.36152 0.0
O520 O 0.17009 0.28381 0.34806 0.0
O521 O 0.2076 0.32621 0.38063 0.0
O522 O 0.12028 0.34231 0.38693 0.0
O523 O 0.20228 0.34479 0.41693 0.0
C524 C 0.23855 0.37505 0.33774 0.0
C525 C 0.16419 0.33224 0.24924 0.0
C526 C 0.16702 0.34185 0.2023 0.0
C527 C 0.17622 0.35704 0.22746 0.0
C528 C 0.14653 0.30164 0.19943 0.0
C529 C 0.1434 0.29238 0.24566 0.0
C530 C 0.13487 0.27723 0.22093 0.0
C531 C 0.15739 0.39794 0.33909 0.0
C532 C 0.17346 0.348 0.27557 0.0
C533 C 0.07743 0.16893 0.29807 0.0
C534 C 0.04467 0.17453 0.30163 0.0
C535 C 0.11088 0.3161 0.36999 0.0
C536 C 0.18501 0.35603 0.4584 0.0
C537 C 0.1706 0.3301 0.47951 0.0
C538 C 0.18235 0.3433 0.50488 0.0
C539 C 0.20834 0.38288 0.50868 0.0
C540 C 0.21085 0.39526 0.46278 0.0
C541 C 0.22236 0.40855 0.48778 0.0
C542 C 0.19298 0.29274 0.36871 0.0
C543 C 0.17359 0.3417 0.43194 0.0
H544 H 0.1919 0.38789 0.23013 0.0
H545 H 0.13959 0.28897 0.18046 0.0
H546 H 0.13374 0.2729 0.26195 0.0
H547 H 0.11901 0.24638 0.2184 0.0
H548 H 0.15086 0.2997 0.47613 0.0
H549 H 0.21747 0.39412 0.5279 0.0
H550 H 0.22221 0.41558 0.44691 0.0
H551 H 0.24226 0.43892 0.49099 0.0
Tb552 Tb 0.70822 0.8383 0.31995 0.0
C553 C 0.56409 0.77505 0.39256 0.0
C554 C 0.54376 0.82272 0.38956 0.0
C555 C 0.49398 0.75594 0.3985 0.0
C556 C 0.57364 0.81241 0.38808 0.0
C557 C 0.52445 0.74655 0.39882 0.0
C558 C 0.50363 0.79404 0.39384 0.0
C559 C 0.54919 0.70361 0.40901 0.0
N560 N 0.59458 0.76757 0.39332 0.0
C561 C 0.58806 0.73303 0.40279 0.0
C562 C 0.51709 0.71014 0.40649 0.0
Tb563 Tb 0.65711 0.81676 0.38179 0.0
N564 N 0.61285 0.83918 0.38465 0.0
C565 C 0.62452 0.87744 0.38484 0.0
C566 C 0.55536 0.86166 0.388 0.0
C567 C 0.59601 0.88918 0.38625 0.0
H568 H 0.6127 0.72767 0.40461 0.0
H569 H 0.60544 0.91946 0.38572 0.0
H570 H 0.48015 0.80129 0.39468 0.0
H571 H 0.54404 0.67593 0.41569 0.0
H572 H 0.65568 0.89927 0.38321 0.0
H573 H 0.76403 0.73899 0.31666 0.0
H574 H 0.53337 0.87083 0.38906 0.0
H575 H 0.75 0.92857 0.29947 0.0
H576 H 0.71227 0.75738 0.31968 0.0
H577 H 0.81745 0.98111 0.2868 0.0
H578 H 0.4632 0.73436 0.40289 0.0
H579 H 0.83531 0.78895 0.31095 0.0
H580 H 0.88655 0.8587 0.30334 0.0
H581 H 0.48706 0.68742 0.4115 0.0
H582 H 0.9012 0.92492 0.29506 0.0
N583 N 0.75368 0.81761 0.31665 0.0
C584 C 0.74314 0.77965 0.31714 0.0
C585 C 0.81268 0.79728 0.31234 0.0
C586 C 0.82299 0.83585 0.31005 0.0
C587 C 0.77248 0.76901 0.31547 0.0
C588 C 0.79238 0.84511 0.31217 0.0
H589 H 0.87537 0.97067 0.28811 0.0
N590 N 0.7697 0.88903 0.30842 0.0
C591 C 0.81321 0.95351 0.29287 0.0
C592 C 0.80074 0.88225 0.30787 0.0
C593 C 0.77503 0.92366 0.30003 0.0
C594 C 0.84587 0.94755 0.29373 0.0
C595 C 0.83976 0.91136 0.30086 0.0
O596 O 0.69493 0.85548 0.28477 0.0
O597 O 0.65779 0.83224 0.342 0.0
O598 O 0.6178 0.76889 0.35693 0.0
O599 O 0.662 0.77646 0.32313 0.0
O600 O 0.68247 0.87612 0.31601 0.0
O601 O 0.69388 0.80155 0.2882 0.0
O602 O 0.67064 0.79913 0.41676 0.0
O603 O 0.70759 0.82231 0.35981 0.0
O604 O 0.74859 0.88438 0.34551 0.0
O605 O 0.70331 0.87862 0.37779 0.0
O606 O 0.6809 0.77765 0.38536 0.0
O607 O 0.67269 0.8534 0.41366 0.0
C608 C 0.65365 0.85892 0.3325 0.0
C609 C 0.7104 0.8323 0.24737 0.0
C610 C 0.70507 0.82797 0.20056 0.0
C611 C 0.68694 0.82064 0.22516 0.0
C612 C 0.74705 0.84721 0.19843 0.0
C613 C 0.75224 0.85087 0.24491 0.0
C614 C 0.77044 0.8584 0.22055 0.0
C615 C 0.62745 0.75639 0.336 0.0
C616 C 0.69047 0.82531 0.27271 0.0
C617 C 0.87088 0.90286 0.30008 0.0
C618 C 0.86252 0.86515 0.30476 0.0
C619 C 0.71025 0.79465 0.36921 0.0
C620 C 0.65474 0.82178 0.45412 0.0
C621 C 0.67648 0.82728 0.47676 0.0
C622 C 0.6575 0.82046 0.5011 0.0
C623 C 0.61621 0.80753 0.50234 0.0
C624 C 0.61375 0.80942 0.45579 0.0
C625 C 0.59457 0.8021 0.4798 0.0
C626 C 0.73877 0.89789 0.36581 0.0
C627 C 0.67545 0.82918 0.42904 0.0
H628 H 0.65457 0.80631 0.22702 0.0
H629 H 0.7617 0.85299 0.1797 0.0
H630 H 0.77085 0.85959 0.26165 0.0
H631 H 0.80277 0.87286 0.21882 0.0
H632 H 0.70836 0.83767 0.47538 0.0
H633 H 0.6006 0.80152 0.52074 0.0
H634 H 0.59662 0.80561 0.43866 0.0
H635 H 0.56286 0.79235 0.48093 0.0
Tb636 Tb 0.21082 0.8453 0.37807 0.0
C637 C 0.13638 0.91049 0.30447 0.0
C638 C 0.06565 0.8642 0.30774 0.0
C639 C 0.08775 0.9311 0.29778 0.0
C640 C 0.106 0.87355 0.30934 0.0
C641 C 0.12775 0.93952 0.29771 0.0
C642 C 0.05669 0.89344 0.30284 0.0
C643 C 0.19809 0.98111 0.28792 0.0
N644 N 0.1744 0.91707 0.30413 0.0
C645 C 0.20504 0.95128 0.29482 0.0
C646 C 0.15939 0.97547 0.28989 0.0
Tb647 Tb 0.18341 0.86706 0.31621 0.0
N648 N 0.1161 0.84617 0.31325 0.0
C649 C 0.08697 0.80816 0.31343 0.0
C650 C 0.03568 0.82557 0.3098 0.0
C651 C 0.04645 0.79737 0.31206 0.0
H652 H 0.23512 0.95605 0.29344 0.0
H653 H 0.02356 0.76729 0.31294 0.0
H654 H 0.02588 0.88694 0.30187 0.0
H655 H 0.22262 0.00846 0.28121 0.0
H656 H 0.09447 0.78583 0.31538 0.0
H657 H 0.37082 0.94306 0.38161 0.0
H658 H 1.00431 0.81713 0.3087 0.0
H659 H 0.15649 0.75457 0.39759 0.0
H660 H 0.30009 0.92548 0.37855 0.0
H661 H 0.16768 0.70127 0.40963 0.0
H662 H 0.08046 0.95311 0.29298 0.0
H663 H 0.3888 0.89247 0.38716 0.0
H664 H 0.36595 0.82246 0.39451 0.0
H665 H 0.15405 0.99855 0.28445 0.0
H666 H 0.31045 0.75639 0.40239 0.0
N667 N 0.27768 0.86513 0.38139 0.0
C668 C 0.30723 0.90296 0.38101 0.0
C669 C 0.35758 0.88451 0.38575 0.0
C670 C 0.32711 0.84606 0.38791 0.0
C671 C 0.34754 0.91313 0.38271 0.0
C672 C 0.28701 0.83729 0.38577 0.0
H673 H 0.23632 0.71106 0.40874 0.0
N674 N 0.21811 0.79401 0.38941 0.0
C675 C 0.1928 0.72894 0.40401 0.0
C676 C 0.25604 0.80031 0.39002 0.0
C677 C 0.18659 0.75925 0.39721 0.0
C678 C 0.23157 0.73454 0.40339 0.0
C679 C 0.2639 0.77076 0.39674 0.0
O680 O 0.18008 0.82852 0.41383 0.0
O681 O 0.16685 0.85094 0.35606 0.0
O682 O 0.19222 0.91377 0.34157 0.0
O683 O 0.22995 0.90697 0.37422 0.0
O684 O 0.14547 0.80754 0.38237 0.0
O685 O 0.23416 0.88327 0.40917 0.0
O686 O 0.21614 0.88347 0.28114 0.0
O687 O 0.22775 0.86171 0.33823 0.0
O688 O 0.20388 0.80009 0.35189 0.0
O689 O 0.16337 0.80529 0.32088 0.0
O690 O 0.24835 0.90608 0.31253 0.0
O691 O 0.16088 0.82974 0.28468 0.0
C692 C 0.13466 0.82428 0.36577 0.0
C693 C 0.22066 0.85421 0.45048 0.0
C694 C 0.22006 0.85796 0.49751 0.0
C695 C 0.20723 0.86325 0.47324 0.0
C696 C 0.24664 0.84368 0.49862 0.0
C697 C 0.24741 0.84035 0.45211 0.0
C698 C 0.26024 0.83506 0.47604 0.0
C699 C 0.21499 0.92625 0.36228 0.0
C700 C 0.20664 0.85955 0.4253 0.0
C701 C 0.30374 0.77878 0.39755 0.0
C702 C 0.33533 0.81639 0.39308 0.0
C703 C 0.25961 0.88922 0.32874 0.0
C704 C 0.17738 0.8601 0.24372 0.0
C705 C 0.19455 0.85489 0.2212 0.0
C706 C 0.18284 0.86068 0.19668 0.0
C707 C 0.15415 0.87239 0.19512 0.0
C708 C 0.14862 0.87147 0.24166 0.0
C709 C 0.13727 0.87777 0.21748 0.0
C710 C 0.17949 0.7865 0.33203 0.0
C711 C 0.18953 0.85323 0.26911 0.0
H712 H 0.18647 0.8739 0.47205 0.0
H713 H 0.25736 0.8397 0.51697 0.0
H714 H 0.25855 0.83376 0.43497 0.0
H715 H 0.28093 0.82436 0.47708 0.0
H716 H 0.21633 0.84551 0.2228 0.0
H717 H 0.14488 0.87756 0.17659 0.0
H718 H 0.13475 0.87525 0.25866 0.0
H719 H 0.11515 0.88668 0.21607 0.0
Tb720 Tb 0.83052 0.6559 0.65341 0.0
C721 C 0.89423 0.78582 0.73239 0.0
C722 C 0.96498 0.8083 0.73586 0.0
C723 C 0.94034 0.85251 0.74304 0.0
C724 C 0.92556 0.77881 0.73077 0.0
C725 C 0.90099 0.82252 0.73902 0.0
C726 C 0.97232 0.8454 0.74146 0.0
C727 C 0.82932 0.79624 0.73935 0.0
N728 N 0.85674 0.75595 0.72869 0.0
C729 C 0.82418 0.76028 0.73304 0.0
C730 C 0.86792 0.82762 0.74209 0.0
Tb731 Tb 0.85126 0.69853 0.71708 0.0
N732 N 0.91706 0.74253 0.72544 0.0
C733 C 0.94662 0.73327 0.7267 0.0
C734 C 0.9956 0.79935 0.73578 0.0
C735 C 0.98626 0.76155 0.73152 0.0
H736 H 0.7942 0.7363 0.73083 0.0
H737 H 1.00961 0.75414 0.73185 0.0
H738 H 1.00245 0.86854 0.74518 0.0
H739 H 0.80349 0.7997 0.74213 0.0
H740 H 0.94031 0.70436 0.72337 0.0
H741 H 0.67044 0.59458 0.64382 0.0
H742 H 0.02631 0.82118 0.73952 0.0
H743 H 0.88932 0.6222 0.63475 0.0
H744 H 0.73988 0.64657 0.64961 0.0
H745 H 0.88196 0.56017 0.62166 0.0
H746 H 0.94626 0.88102 0.74795 0.0
H747 H 0.65568 0.52792 0.63695 0.0
H748 H 0.68181 0.48256 0.62968 0.0
H749 H 0.87182 0.85539 0.74713 0.0
H750 H 0.73965 0.47317 0.62337 0.0
N751 N 0.76479 0.60989 0.64703 0.0
C752 C 0.73421 0.61778 0.64662 0.0
C753 C 0.68635 0.55068 0.63959 0.0
C754 C 0.71801 0.54323 0.63824 0.0
C755 C 0.69459 0.58828 0.64336 0.0
C756 C 0.75732 0.57389 0.64194 0.0
H757 H 0.81456 0.50223 0.61971 0.0
N758 N 0.82671 0.5996 0.64078 0.0
C759 C 0.85569 0.56207 0.62652 0.0
C760 C 0.78953 0.56853 0.63858 0.0
C761 C 0.85973 0.59723 0.63392 0.0
C762 C 0.81761 0.52939 0.62552 0.0
C763 C 0.78385 0.53249 0.63118 0.0
O764 O 0.86603 0.67547 0.61951 0.0
O765 O 0.87166 0.70153 0.67802 0.0
O766 O 0.84818 0.739 0.69022 0.0
O767 O 0.80766 0.69609 0.65883 0.0
O768 O 0.89614 0.68236 0.65141 0.0
O769 O 0.80952 0.67347 0.62165 0.0
O770 O 0.81616 0.68307 0.7512 0.0
O771 O 0.80988 0.65228 0.69275 0.0
O772 O 0.83701 0.61605 0.67915 0.0
O773 O 0.87377 0.6582 0.71206 0.0
O774 O 0.78608 0.67375 0.71816 0.0
O775 O 0.8679 0.67641 0.74844 0.0
C776 C 0.90474 0.70713 0.6693 0.0
C777 C 0.83103 0.66504 0.58055 0.0
C778 C 0.83383 0.67502 0.53366 0.0
C779 C 0.84276 0.69 0.55888 0.0
C780 C 0.81392 0.63486 0.53062 0.0
C781 C 0.81079 0.62522 0.57681 0.0
C782 C 0.80253 0.61028 0.55202 0.0
C783 C 0.82357 0.72984 0.67051 0.0
C784 C 0.84004 0.68059 0.60694 0.0
C785 C 0.74472 0.50124 0.62876 0.0
C786 C 0.71181 0.50659 0.63234 0.0
C787 C 0.77698 0.64772 0.70112 0.0
C788 C 0.85047 0.68778 0.78981 0.0
C789 C 0.83641 0.66195 0.81098 0.0
C790 C 0.8481 0.67537 0.83632 0.0
C791 C 0.87367 0.71504 0.84003 0.0
C792 C 0.87588 0.7271 0.79411 0.0
C793 C 0.88734 0.74061 0.81908 0.0
C794 C 0.85972 0.62498 0.69989 0.0
C795 C 0.83913 0.6733 0.76337 0.0
H796 H 0.858 0.72082 0.56167 0.0
H797 H 0.80721 0.62235 0.51159 0.0
H798 H 0.80136 0.60561 0.59302 0.0
H799 H 0.78711 0.57946 0.54937 0.0
H800 H 0.81699 0.63148 0.80768 0.0
H801 H 0.88273 0.72643 0.85922 0.0
H802 H 0.88695 0.74736 0.77822 0.0
H803 H 0.9069 0.77105 0.82222 0.0
Tb804 Tb 0.37461 0.16851 0.65557 0.0
C805 C 0.2296 0.10816 0.72736 0.0
C806 C 0.21026 0.1565 0.72377 0.0
C807 C 0.15968 0.09002 0.73284 0.0
C808 C 0.23974 0.14564 0.72262 0.0
C809 C 0.18972 0.08007 0.73344 0.0
C810 C 0.16995 0.12825 0.72798 0.0
C811 C 0.21333 0.0363 0.74387 0.0
N812 N 0.25967 0.1001 0.72835 0.0
C813 C 0.25246 0.06533 0.73783 0.0
C814 C 0.18167 0.04345 0.74118 0.0
Tb815 Tb 0.32265 0.14871 0.7171 0.0
N816 N 0.2791 0.172 0.71921 0.0
C817 C 0.29129 0.21038 0.71907 0.0
C818 C 0.22242 0.19555 0.72192 0.0
C819 C 0.2632 0.22265 0.72017 0.0
H820 H 0.27674 0.0595 0.73982 0.0
H821 H 0.27305 0.25302 0.71939 0.0
H822 H 0.14677 0.13592 0.72856 0.0
H823 H 0.20762 0.00844 0.75057 0.0
H824 H 0.32257 0.23188 0.71742 0.0
H825 H 0.43059 0.06927 0.65468 0.0
H826 H 0.20075 0.20513 0.72272 0.0
H827 H 0.41645 0.25821 0.63387 0.0
H828 H 0.37877 0.08769 0.65679 0.0
H829 H 0.48391 0.31043 0.62097 0.0
H830 H 0.12874 0.06877 0.73711 0.0
H831 H 0.50189 0.11913 0.6489 0.0
H832 H 0.55313 0.1887 0.64058 0.0
H833 H 0.15144 0.02103 0.74605 0.0
H834 H 0.56775 0.25465 0.6312 0.0
N835 N 0.42018 0.14784 0.6532 0.0
C836 C 0.40966 0.1099 0.65422 0.0
C837 C 0.47924 0.12747 0.64989 0.0
C838 C 0.48954 0.16597 0.64703 0.0
C839 C 0.43902 0.09925 0.65306 0.0
C840 C 0.4589 0.17525 0.64866 0.0
H841 H 0.54187 0.30012 0.62309 0.0
N842 N 0.43614 0.21895 0.64375 0.0
C843 C 0.47968 0.28301 0.6275 0.0
C844 C 0.46722 0.21223 0.64369 0.0
C845 C 0.44148 0.25333 0.63479 0.0
C846 C 0.51235 0.27713 0.62882 0.0
C847 C 0.50625 0.24116 0.63656 0.0
O848 O 0.36154 0.18448 0.61983 0.0
O849 O 0.3243 0.16364 0.67713 0.0
O850 O 0.28328 0.10098 0.69216 0.0
O851 O 0.32836 0.10689 0.65943 0.0
O852 O 0.34923 0.2065 0.65047 0.0
O853 O 0.36026 0.1306 0.62451 0.0
O854 O 0.33481 0.13108 0.75255 0.0
O855 O 0.37314 0.15319 0.69571 0.0
O856 O 0.41494 0.21496 0.68083 0.0
O857 O 0.36962 0.21031 0.71277 0.0
O858 O 0.34578 0.10921 0.72175 0.0
O859 O 0.33831 0.18596 0.74863 0.0
C860 C 0.32045 0.19015 0.66706 0.0
C861 C 0.37768 0.16017 0.58331 0.0
C862 C 0.37396 0.15732 0.53641 0.0
C863 C 0.3551 0.15069 0.56074 0.0
C864 C 0.41578 0.17373 0.53493 0.0
C865 C 0.41929 0.17582 0.58148 0.0
C866 C 0.43823 0.18273 0.55741 0.0
C867 C 0.29327 0.0877 0.67179 0.0
C868 C 0.35719 0.15392 0.60839 0.0
C869 C 0.53741 0.23271 0.63631 0.0
C870 C 0.52908 0.19515 0.64162 0.0
C871 C 0.37534 0.12559 0.70569 0.0
C872 C 0.31905 0.15505 0.78932 0.0
C873 C 0.34008 0.15926 0.81209 0.0
C874 C 0.32102 0.15334 0.83632 0.0
C875 C 0.28033 0.14279 0.83736 0.0
C876 C 0.2786 0.14483 0.79074 0.0
C877 C 0.25933 0.13856 0.81467 0.0
C878 C 0.40517 0.22904 0.70082 0.0
C879 C 0.34005 0.1616 0.76442 0.0
H880 H 0.3229 0.13854 0.5621 0.0
H881 H 0.43095 0.17891 0.51642 0.0
H882 H 0.43714 0.18263 0.59852 0.0
H883 H 0.47039 0.19494 0.55617 0.0
H884 H 0.37158 0.16796 0.81089 0.0
H885 H 0.26471 0.13767 0.85569 0.0
H886 H 0.26198 0.14192 0.77349 0.0
H887 H 0.22805 0.13054 0.81562 0.0
Tb888 Tb 0.87554 0.1767 0.71265 0.0
C889 C 0.80505 0.24463 0.63931 0.0
C890 C 0.73428 0.19791 0.63905 0.0
C891 C 0.75683 0.26577 0.6328 0.0
C892 C 0.77443 0.20712 0.64178 0.0
C893 C 0.79682 0.27439 0.63423 0.0
C894 C 0.72557 0.22754 0.63521 0.0
C895 C 0.86813 0.31811 0.63002 0.0
N896 N 0.84317 0.25156 0.64054 0.0
C897 C 0.87471 0.28749 0.63492 0.0
C898 C 0.82903 0.31164 0.63 0.0
Tb899 Tb 0.85107 0.20009 0.65035 0.0
N900 N 0.78427 0.17944 0.64517 0.0
C901 C 0.75525 0.14149 0.644 0.0
C902 C 0.7043 0.15917 0.63933 0.0
C903 C 0.71494 0.13084 0.64133 0.0
H904 H 0.90505 0.29282 0.63511 0.0
H905 H 0.69207 0.10075 0.64102 0.0
H906 H 0.69487 0.22109 0.63334 0.0
H907 H 0.89322 0.34666 0.62628 0.0
H908 H 0.76268 0.11909 0.64576 0.0
H909 H 0.03604 0.2704 0.71905 0.0
H910 H 0.67306 0.15084 0.63731 0.0
H911 H 0.81787 0.08605 0.7318 0.0
H912 H 0.96629 0.25509 0.71448 0.0
H913 H 0.82616 0.03143 0.74472 0.0
H914 H 0.74979 0.28826 0.62916 0.0
H915 H 0.05139 0.21826 0.72587 0.0
H916 H 0.02589 0.14782 0.73373 0.0
H917 H 0.82401 0.33536 0.62607 0.0
H918 H 0.96855 0.08254 0.74099 0.0
N919 N 0.94168 0.19442 0.71767 0.0
C920 C 0.97218 0.23186 0.71745 0.0
C921 C 0.02056 0.21128 0.72378 0.0
C922 C 0.98908 0.17325 0.72576 0.0
C923 C 1.012 0.24077 0.72002 0.0
C924 C 0.94955 0.16578 0.72273 0.0
H925 H 0.89384 0.039 0.74575 0.0
N926 N 0.88023 0.12425 0.72498 0.0
C927 C 0.85215 0.05876 0.73953 0.0
C928 C 0.91759 0.12928 0.72663 0.0
C929 C 0.84759 0.08988 0.73221 0.0
C930 C 0.89038 0.0631 0.74001 0.0
C931 C 0.92379 0.09888 0.7339 0.0
O932 O 0.84182 0.16154 0.74726 0.0
O933 O 0.83267 0.1825 0.68957 0.0
O934 O 0.85559 0.24302 0.67765 0.0
O935 O 0.89793 0.23899 0.70764 0.0
O936 O 0.80986 0.13917 0.71573 0.0
O937 O 0.89812 0.21439 0.74406 0.0
O938 O 0.88464 0.22007 0.61577 0.0
O939 O 0.89421 0.19365 0.67299 0.0
O940 O 0.86887 0.13139 0.68662 0.0
O941 O 0.83105 0.13818 0.65419 0.0
O942 O 0.91618 0.23868 0.64775 0.0
O943 O 0.83146 0.16424 0.61798 0.0
C944 C 0.79992 0.15581 0.69853 0.0
C945 C 0.87895 0.18493 0.78532 0.0
C946 C 0.87303 0.18735 0.8322 0.0
C947 C 0.86437 0.19483 0.80718 0.0
C948 C 0.89663 0.16999 0.83495 0.0
C949 C 0.90273 0.16801 0.78858 0.0
C950 C 0.91144 0.16054 0.81326 0.0
C951 C 0.88117 0.25739 0.6968 0.0
C952 C 0.86848 0.19176 0.75934 0.0
C953 C 0.96309 0.1056 0.7357 0.0
C954 C 0.99573 0.14276 0.73158 0.0
C955 C 0.92654 0.22113 0.66398 0.0
C956 C 0.84812 0.19608 0.5775 0.0
C957 C 0.86438 0.18916 0.55519 0.0
C958 C 0.8529 0.19461 0.53049 0.0
C959 C 0.82525 0.20755 0.52855 0.0
C960 C 0.82055 0.20886 0.57508 0.0
C961 C 0.80931 0.21466 0.55071 0.0
C962 C 0.84582 0.11866 0.66604 0.0
C963 C 0.86001 0.18952 0.60307 0.0
H964 H 0.84585 0.20781 0.8047 0.0
H965 H 0.90422 0.16429 0.85389 0.0
H966 H 0.91457 0.16056 0.77213 0.0
H967 H 0.92982 0.14745 0.8156 0.0
H968 H 0.88534 0.17883 0.55709 0.0
H969 H 0.81617 0.21247 0.50988 0.0
H970 H 0.80762 0.21423 0.59194 0.0
H971 H 0.78807 0.22463 0.54899 0.0
C972 C 0.36458 0.87815 0.04757 0.0
C973 C 0.3319 0.88242 0.05507 0.0
H974 H 0.42617 0.9065 0.03501 0.0
C975 C 0.33539 0.91879 0.0522 0.0
H976 H 0.36292 0.85058 0.04964 0.0
C977 C 0.37135 0.95057 0.04382 0.0
C978 C 0.40471 0.94687 0.03771 0.0
H979 H 0.31062 0.92299 0.05737 0.0
H980 H 0.37355 0.97849 0.04296 0.0
C981 C 0.4008 0.91018 0.03914 0.0
C982 C 0.15487 0.49136 0.0494 0.0
C983 C 0.15037 0.45593 0.05753 0.0
H984 H 0.12525 0.52183 0.03693 0.0
C985 C 0.11211 0.42298 0.05666 0.0
H986 H 0.18391 0.5173 0.05017 0.0
C987 C 0.07891 0.42545 0.04879 0.0
C988 C 0.0829 0.46091 0.04154 0.0
H989 H 0.10768 0.39531 0.06284 0.0
H990 H 0.0497 0.3996 0.04904 0.0
C991 C 0.12132 0.49393 0.04178 0.0
C992 C 0.56224 0.66198 0.07932 0.0
C993 C 0.56575 0.69266 0.06411 0.0
H994 H 0.55411 0.60538 0.08022 0.0
C995 C 0.5627 0.68841 0.03719 0.0
H996 H 0.56335 0.66367 0.10016 0.0
C997 C 0.55661 0.65449 0.02584 0.0
C998 C 0.55409 0.62436 0.04102 0.0
H999 H 0.56583 0.71154 0.0248 0.0
H1000 H 0.55475 0.65231 1.00517 0.0
C1001 C 0.55689 0.62844 0.0679 0.0
C1002 C 0.89699 0.34993 0.95524 0.0
C1003 C 0.87305 0.31776 0.97123 0.0
H1004 H 0.94456 0.40871 0.95287 0.0
C1005 C 0.87961 0.32143 0.99799 0.0
H1006 H 0.89255 0.3486 0.9346 0.0
C1007 C 0.90919 0.35614 1.00839 0.0
C1008 C 0.93314 0.38796 0.99237 0.0
H1009 H 0.86262 0.2972 0.01092 0.0
H1010 H 0.91407 0.35762 0.0289 0.0
C1011 C 0.92686 0.38446 0.96567 0.0
C1012 C 0.67223 0.52349 0.98514 0.0
C1013 C 0.7054 0.559 0.97755 0.0
H1014 H 0.60998 0.49292 0.99648 0.0
C1015 C 0.70173 0.59201 0.97834 0.0
H1016 H 0.67402 0.49749 0.98442 0.0
C1017 C 0.66552 0.58951 0.98565 0.0
C1018 C 0.63186 0.55397 0.99237 0.0
H1019 H 0.72671 0.61975 0.97259 0.0
H1020 H 0.66347 0.61541 0.98536 0.0
C1021 C 0.63559 0.5209 0.99213 0.0
C1022 C 0.47088 0.11941 0.95313 0.0
C1023 C 0.47261 0.14935 0.96804 0.0
H1024 H 0.47605 0.0691 0.95201 0.0
C1025 C 0.48436 0.1521 0.99394 0.0
H1026 H 0.46365 0.11695 0.93286 0.0
C1027 C 0.4931 0.12517 1.00468 0.0
C1028 C 0.48904 0.09412 0.99013 0.0
H1029 H 0.48596 0.17448 1.00622 0.0
H1030 H 0.50209 0.12829 0.02451 0.0
C1031 C 0.47837 0.09193 0.96411 0.0
C1032 C 0.6813 0.08485 0.98959 0.0
C1033 C 0.6903 0.12319 0.9878 0.0
H1034 H 0.63621 0.02594 0.99538 0.0
C1035 C 0.65955 0.13164 0.99248 0.0
H1036 H 0.70432 0.07746 0.98611 0.0
C1037 C 0.62018 0.10182 0.99791 0.0
C1038 C 0.61131 0.06336 0.99899 0.0
H1039 H 0.66559 0.16096 0.99117 0.0
H1040 H 0.59658 0.10866 1.0004 0.0
C1041 C 0.64234 0.05535 0.99494 0.0
C1042 C 0.91292 0.55748 0.9859 0.0
C1043 C 0.8779 0.52194 0.98226 0.0
H1044 H 0.97617 0.58684 0.99346 0.0
C1045 C 0.87963 0.48806 0.98519 0.0
H1046 H 0.9126 0.58405 0.98325 0.0
C1047 C 0.91556 0.48959 0.99183 0.0
C1048 C 0.95085 0.52513 0.99502 0.0
H1049 H 0.85318 0.46031 0.98212 0.0
H1050 H 0.91594 0.46298 0.9936 0.0
C1051 C 0.94926 0.55906 0.99158 0.0
C1052 C 0.4766 0.36627 0.95179 0.0
C1053 C 0.49253 0.34478 0.96245 0.0
H1054 H 0.46949 0.41536 0.95493 0.0
C1055 C 0.51485 0.35743 0.98512 0.0
H1056 H 0.45925 0.357 0.93429 0.0
C1057 C 0.52164 0.39152 0.99669 0.0
C1058 C 0.5052 0.41288 0.98625 0.0
H1059 H 0.52781 0.34153 0.99357 0.0
H1060 H 0.54017 0.40126 0.01359 0.0
C1061 C 0.48245 0.39969 0.96369 0.0
C1062 C 0.12484 0.65352 0.07632 0.0
C1063 C 0.16198 0.67634 0.06385 0.0
H1064 H 0.06793 0.60173 0.07621 0.0
C1065 C 0.17032 0.66311 0.04099 0.0
H1066 H 0.11778 0.66304 0.09408 0.0
C1067 C 0.14216 0.6272 0.03112 0.0
C1068 C 0.10454 0.60448 0.04334 0.0
H1069 H 0.19901 0.67986 0.03124 0.0
H1070 H 0.15026 0.61711 0.01417 0.0
C1071 C 0.09627 0.61831 0.06604 0.0
C1072 C 0.35791 0.45459 0.04725 0.0
C1073 C 0.35974 0.48981 0.05188 0.0
H1074 H 0.39079 0.42603 0.0379 0.0
C1075 C 0.3966 0.52402 0.04828 0.0
H1076 H 0.33007 0.42777 0.05022 0.0
C1077 C 0.43099 0.5231 0.04038 0.0
C1078 C 0.42953 0.48784 0.0366 0.0
H1079 H 0.39892 0.55156 0.05192 0.0
H1080 H 0.45901 0.54993 0.03831 0.0
C1081 C 0.39265 0.45362 0.04029 0.0
C1082 C 0.55268 0.90019 0.07971 0.0
C1083 C 0.53852 0.86437 0.06816 0.0
H1084 H 0.55926 0.95585 0.07737 0.0
C1085 C 0.51848 0.85698 0.04458 0.0
H1086 H 0.56829 0.90652 0.09789 0.0
C1087 C 0.51213 0.88504 0.033 0.0
C1088 C 0.52686 0.92129 0.04442 0.0
H1089 H 0.50693 0.82932 0.03543 0.0
H1090 H 0.49545 0.87817 0.01531 0.0
C1091 C 0.54745 0.92848 0.06785 0.0
C1092 C 0.03342 0.21063 0.38217 0.0
C1093 C 0.99962 0.21359 0.38885 0.0
H1094 H 0.09577 0.24097 0.37085 0.0
C1095 C 1.0018 0.24931 0.38553 0.0
H1096 H 0.03273 0.18355 0.38461 0.0
C1097 C 0.03753 0.28184 0.3777 0.0
C1098 C 0.07203 0.2796 0.3726 0.0
H1099 H 0.9762 0.2525 0.39014 0.0
H1100 H 0.03865 0.30928 0.37664 0.0
C1101 C 0.06948 0.24347 0.37426 0.0
C1102 C 0.77759 0.75589 0.38848 0.0
C1103 C 0.81566 0.7891 0.38932 0.0
H1104 H 0.71504 0.73189 0.38103 0.0
C1105 C 0.81968 0.82434 0.3812 0.0
H1106 H 0.77352 0.72835 0.39464 0.0
C1107 C 0.78583 0.82648 0.37368 0.0
C1108 C 0.74759 0.79321 0.37352 0.0
H1109 H 0.84855 0.85048 0.38194 0.0
H1110 H 0.78941 0.85425 0.36887 0.0
C1111 C 0.7441 0.75793 0.38072 0.0
C1112 C 0.22832 0.99921 0.41244 0.0
C1113 C 0.23548 0.03125 0.39727 0.0
H1114 H 0.21668 0.94133 0.41321 0.0
C1115 C 0.23492 0.02806 0.37026 0.0
H1116 H 0.2275 1.00018 0.43329 0.0
C1117 C 0.22813 0.99393 0.35879 0.0
C1118 C 0.22215 0.96248 0.37401 0.0
H1119 H 0.24085 0.05225 0.35796 0.0
H1120 H 0.22883 0.99268 0.33806 0.0
C1121 C 0.22211 0.96541 0.40095 0.0
C1122 C 0.5465 0.65097 0.33134 0.0
C1123 C 0.53997 0.64665 0.30459 0.0
H1124 H 0.57989 0.68848 0.36208 0.0
C1125 C 0.5619 0.67932 0.28855 0.0
H1126 H 0.53093 0.62655 0.34433 0.0
C1127 C 0.59041 0.71467 0.29881 0.0
C1128 C 0.59723 0.71868 0.32543 0.0
H1129 H 0.55729 0.67761 0.26793 0.0
H1130 H 0.6069 0.73905 0.28587 0.0
C1131 C 0.57468 0.68657 0.34161 0.0
C1132 C 0.36818 0.92776 0.30977 0.0
C1133 C 0.37153 0.89455 0.30945 0.0
H1134 H 0.33049 0.95185 0.31663 0.0
C1135 C 0.33826 0.85939 0.3175 0.0
H1136 H 0.39323 0.95525 0.30369 0.0
C1137 C 0.30191 0.85733 0.32458 0.0
C1138 C 0.29855 0.89061 0.32448 0.0
H1139 H 0.33979 0.83324 0.31716 0.0
H1140 H 0.27623 0.8296 0.32938 0.0
C1141 C 0.33225 0.9258 0.31719 0.0
C1142 C 0.10132 0.44125 0.30724 0.0
C1143 C 0.12945 0.48095 0.30777 0.0
H1144 H 0.08833 0.38413 0.31635 0.0
C1145 C 0.16615 0.49301 0.32021 0.0
H1146 H 0.07215 0.43064 0.29877 0.0
C1147 C 0.17474 0.4661 0.33118 0.0
C1148 C 0.14727 0.42655 0.32941 0.0
H1149 H 0.18884 0.52313 0.32087 0.0
H1150 H 0.20346 0.47623 0.34026 0.0
C1151 C 0.11038 0.41443 0.31756 0.0
C1152 C 0.31754 0.48156 0.33508 0.0
C1153 C 0.35234 0.47993 0.32944 0.0
H1154 H 0.25393 0.44977 0.34163 0.0
C1155 C 0.34955 0.44373 0.32846 0.0
H1156 H 0.31872 0.50901 0.3358 0.0
C1157 C 0.31268 0.40996 0.33224 0.0
C1158 C 0.2777 0.41145 0.33727 0.0
H1159 H 0.37574 0.44135 0.32426 0.0
H1160 H 0.31136 0.38249 0.33076 0.0
C1161 C 0.28046 0.44762 0.3386 0.0
C1162 C 0.54344 0.82048 0.31835 0.0
C1163 C 0.54197 0.85449 0.31539 0.0
H1164 H 0.57944 0.79504 0.32683 0.0
C1165 C 0.57713 0.88992 0.31906 0.0
H1166 H 0.51688 0.79281 0.31527 0.0
C1167 C 0.61334 0.89125 0.32477 0.0
C1168 C 0.61468 0.85718 0.32818 0.0
H1169 H 0.57702 0.91659 0.3164 0.0
H1170 H 0.64035 0.91894 0.32666 0.0
C1171 C 0.57925 0.82175 0.32501 0.0
C1172 C 0.1765 0.69145 0.32208 0.0
C1173 C 0.15381 0.67825 0.2996 0.0
H1174 H 0.20408 0.7369 0.34926 0.0
C1175 C 0.13934 0.70043 0.28806 0.0
H1176 H 0.18848 0.67508 0.33112 0.0
C1177 C 0.14695 0.73507 0.29893 0.0
C1178 C 0.17012 0.74882 0.32128 0.0
H1179 H 0.12183 0.69079 0.27064 0.0
H1180 H 0.13504 0.75122 0.28952 0.0
C1181 C 0.18516 0.72677 0.33256 0.0
C1182 C 0.78985 0.9854 0.40894 0.0
C1183 C 0.82718 0.00789 0.39658 0.0
H1184 H 0.73255 0.93399 0.40877 0.0
C1185 C 0.83534 0.99439 0.37378 0.0
H1186 H 0.78289 0.99509 0.42667 0.0
C1187 C 0.80686 0.95857 0.3639 0.0
C1188 C 0.76908 0.93616 0.37604 0.0
H1189 H 0.86414 0.01081 0.3641 0.0
H1190 H 0.81486 0.94824 0.34702 0.0
C1191 C 0.76098 0.95029 0.39866 0.0
C1192 C 0.02534 0.79144 0.38045 0.0
C1193 C 0.02658 0.82643 0.38484 0.0
H1194 H 0.05903 0.76352 0.37156 0.0
C1195 C 0.06323 0.8609 0.38137 0.0
H1196 H 0.99767 0.76443 0.38335 0.0
C1197 C 0.09799 0.86044 0.37376 0.0
C1198 C 0.09709 0.82541 0.37015 0.0
H1199 H 0.06509 0.88827 0.38486 0.0
H1200 H 0.12585 0.88745 0.37175 0.0
C1201 C 0.06044 0.79093 0.3738 0.0
C1202 C 0.2323 0.24499 0.41356 0.0
C1203 C 0.21865 0.20919 0.40203 0.0
H1204 H 0.23603 0.2996 0.41187 0.0
C1205 C 0.19702 0.20091 0.37905 0.0
H1206 H 0.24907 0.25202 0.4313 0.0
C1207 C 0.18853 0.22795 0.36811 0.0
C1208 C 0.20251 0.26407 0.37957 0.0
H1209 H 0.1858 0.17327 0.36992 0.0
H1210 H 0.17058 0.22026 0.35094 0.0
C1211 C 0.22476 0.27227 0.40235 0.0
C1212 C 0.66798 0.58037 0.71626 0.0
C1213 C 0.66621 0.54486 0.71976 0.0
H1214 H 0.70444 0.64036 0.70733 0.0
C1215 C 0.70019 0.54217 0.71318 0.0
H1216 H 0.64223 0.58332 0.72087 0.0
C1217 C 0.73609 0.57514 0.70526 0.0
C1218 C 0.73828 0.6111 0.70354 0.0
H1219 H 0.6998 0.51526 0.7158 0.0
H1220 H 0.76257 0.5729 0.70198 0.0
C1221 C 0.70356 0.61304 0.70845 0.0
C1222 C 0.48453 0.15404 0.71714 0.0
C1223 C 0.48018 0.11881 0.72563 0.0
H1224 H 0.45478 0.18437 0.70474 0.0
C1225 C 0.44173 0.08603 0.7258 0.0
H1226 H 0.51373 0.17987 0.71708 0.0
C1227 C 0.40833 0.08844 0.71829 0.0
C1228 C 0.41231 0.12369 0.71041 0.0
H1229 H 0.4374 0.0585 0.73221 0.0
H1230 H 0.37905 0.06271 0.71911 0.0
C1231 C 0.45081 0.15659 0.70998 0.0
C1232 C 0.93652 0.35383 0.72931 0.0
C1233 C 0.90893 0.36697 0.72769 0.0
H1234 H 0.94916 0.30887 0.72121 0.0
C1235 C 0.87286 0.34432 0.71456 0.0
H1236 H 0.9652 0.3709 0.73847 0.0
C1237 C 0.86429 0.30914 0.70393 0.0
C1238 C 0.89122 0.29551 0.70664 0.0
H1239 H 0.85067 0.35313 0.71307 0.0
H1240 H 0.83601 0.29211 0.69427 0.0
C1241 C 0.92752 0.31833 0.71924 0.0
C1242 C 0.21223 0.98257 0.66637 0.0
C1243 C 0.206 0.97883 0.63957 0.0
H1244 H 0.24527 0.01953 0.69748 0.0
C1245 C 0.22788 0.01183 0.62384 0.0
H1246 H 0.19662 0.95786 0.67912 0.0
C1247 C 0.25624 0.04693 0.6344 0.0
C1248 C 0.26287 0.05033 0.66104 0.0
H1249 H 0.22342 0.01057 0.6032 0.0
H1250 H 0.27282 0.07158 0.6217 0.0
C1251 C 0.24023 0.01797 0.67697 0.0
C1252 C 1.00548 0.19149 0.6538 0.0
C1253 C 0.03878 0.22672 0.64585 0.0
H1254 H 0.94328 0.16157 0.66539 0.0
C1255 C 0.03548 0.25995 0.64641 0.0
H1256 H 1.00701 0.16534 0.65333 0.0
C1257 C 0.99947 0.2579 0.65366 0.0
C1258 C 0.96563 0.2226 0.66056 0.0
H1259 H 0.06058 0.2875 0.64047 0.0
H1260 H 0.9977 0.28394 0.65311 0.0
C1261 C 0.96904 0.18935 0.66077 0.0
C1262 C 0.76753 0.77346 0.63901 0.0
C1263 C 0.79554 0.81316 0.6399 0.0
H1264 H 0.75466 0.71622 0.64759 0.0
C1265 C 0.83219 0.82507 0.65236 0.0
H1266 H 0.7384 0.76295 0.63049 0.0
C1267 C 0.84081 0.79804 0.66305 0.0
C1268 C 0.81345 0.75851 0.66096 0.0
H1269 H 0.8548 0.85519 0.65328 0.0
H1270 H 0.86948 0.80807 0.67219 0.0
C1271 C 0.77663 0.74651 0.64904 0.0
C1272 C 1.0159 0.77568 0.66146 0.0
C1273 C 0.01867 0.81187 0.66246 0.0
H1274 H 0.9776 0.71444 0.66326 0.0
C1275 C 0.98376 0.8135 0.66762 0.0
H1276 H 0.0422 0.77333 0.6576 0.0
C1277 C 0.94659 0.77957 0.67064 0.0
C1278 C 0.94386 0.74342 0.66931 0.0
H1279 H 0.98495 0.84097 0.66832 0.0
H1280 H 0.91999 0.78171 0.6733 0.0
C1281 C 0.97893 0.74191 0.66475 0.0
C1282 C 0.21039 0.15257 0.65298 0.0
C1283 C 0.20933 0.18677 0.64987 0.0
H1284 H 0.24591 0.12669 0.66156 0.0
C1285 C 0.24476 0.22206 0.65328 0.0
H1286 H 0.18361 0.12501 0.65007 0.0
C1287 C 0.28082 0.22306 0.65894 0.0
C1288 C 0.28172 0.18881 0.6626 0.0
H1289 H 0.24495 0.24885 0.65048 0.0
H1290 H 0.30802 0.25063 0.66067 0.0
C1291 C 0.24605 0.15354 0.6596 0.0
C1292 C 0.84119 0.02276 0.65653 0.0
C1293 C 0.82076 0.01085 0.63313 0.0
H1294 H 0.86666 0.06696 0.68474 0.0
C1295 C 0.80832 0.03415 0.62086 0.0
H1296 H 0.85154 0.00547 0.6662 0.0
C1297 C 0.81571 0.06864 0.63185 0.0
C1298 C 0.83663 0.08111 0.65513 0.0
H1299 H 0.79255 0.02553 0.60274 0.0
H1300 H 0.80543 0.0857 0.62182 0.0
C1301 C 0.8496 0.0579 0.66722 0.0
C1302 C 0.50225 0.32519 0.7079 0.0
C1303 C 0.49452 0.33933 0.73055 0.0
H1304 H 0.48116 0.27845 0.68165 0.0
C1305 C 0.45727 0.31739 0.74313 0.0
H1306 H 0.53099 0.34119 0.69808 0.0
C1307 C 0.42805 0.28216 0.73318 0.0
C1308 C 0.43575 0.2674 0.71072 0.0
H1309 H 0.45067 0.3276 0.76075 0.0
H1310 H 0.39969 0.26626 0.74342 0.0
C1311 C 0.47345 0.28927 0.69839 0.0
C1312 C 0.72846 0.1925 0.71317 0.0
C1313 C 0.69142 0.15815 0.71523 0.0
H1314 H 0.79153 0.21888 0.70565 0.0
C1315 C 0.68992 0.12326 0.70988 0.0
H1316 H 0.73053 0.21976 0.71748 0.0
C1317 C 0.72517 0.12269 0.70379 0.0
C1318 C 0.76226 0.15708 0.70173 0.0
H1319 H 0.66191 0.0963 0.71172 0.0
H1320 H 0.72355 0.09529 0.70091 0.0
C1321 C 0.7634 0.19203 0.70622 0.0
C1322 C 0.86634 0.53434 0.70935 0.0
C1323 C 0.88764 0.54255 0.73246 0.0
H1324 H 0.8393 0.5533 0.68141 0.0
C1325 C 0.90016 0.57788 0.74439 0.0
H1326 H 0.85593 0.50701 0.69994 0.0
C1327 C 0.89186 0.6048 0.73343 0.0
C1328 C 0.86992 0.59666 0.71052 0.0
H1329 H 0.91661 0.58481 0.76226 0.0
H1330 H 0.90229 0.63179 0.74326 0.0
C1331 C 0.85704 0.56097 0.69867 0.0
C1332 C 0.44645 0.932 0.21663 0.0
C1333 C 0.47238 0.93698 0.23707 0.0
H1334 H 0.44017 0.95025 0.17881 0.0
C1335 C 0.51343 0.96375 0.23384 0.0
H1336 H 0.41472 0.91137 0.21833 0.0
C1337 C 0.52797 0.98582 0.21121 0.0
C1338 C 0.50193 0.98178 0.1911 0.0
H1339 H 0.53428 0.96869 0.2492 0.0
H1340 H 0.5597 0.00654 0.20961 0.0
C1341 C 0.46108 0.95403 0.19387 0.0
C1342 C 0.06762 0.49343 0.21684 0.0
C1343 C 0.06108 0.5122 0.23746 0.0
H1344 H 0.05052 0.47054 0.17889 0.0
C1345 C 0.03041 0.52121 0.23561 0.0
H1346 H 0.09118 0.48631 0.21765 0.0
C1347 C 1.0075 0.51262 0.21337 0.0
C1348 C 1.0146 0.49468 0.19246 0.0
H1349 H 0.02433 0.53526 0.25131 0.0
H1350 H 0.98488 0.52096 0.21233 0.0
C1351 C 0.04464 0.4848 0.19454 0.0
C1352 C 0.52688 0.57598 0.21328 0.0
C1353 C 0.51443 0.55107 0.23483 0.0
H1354 H 0.54798 0.58571 0.174 0.0
C1355 C 0.51375 0.51591 0.23287 0.0
H1356 H 0.52742 0.60314 0.21415 0.0
C1357 C 0.52539 0.50595 0.20997 0.0
C1358 C 0.53783 0.53078 0.18839 0.0
H1359 H 0.50462 0.49623 0.24918 0.0
H1360 H 0.52443 0.4786 0.2091 0.0
C1361 C 0.53824 0.56584 0.19023 0.0
C1362 C 1.007 0.49685 0.80119 0.0
C1363 C 0.97267 0.4603 0.7994 0.0
H1364 H 0.05619 0.53582 0.82446 0.0
C1365 C 0.96134 0.43467 0.82046 0.0
H1366 H 0.01646 0.51702 0.78513 0.0
C1367 C 0.98388 0.44548 0.84297 0.0
C1368 C 0.01843 0.4819 0.84467 0.0
H1369 H 0.93484 0.40641 0.81959 0.0
H1370 H 0.97462 0.42515 0.85892 0.0
C1371 C 0.02982 0.50747 0.82356 0.0
C1372 C 0.56863 0.53682 0.79665 0.0
C1373 C 0.57017 0.50276 0.79458 0.0
H1374 H 0.55269 0.57094 0.82004 0.0
C1375 C 0.55729 0.47705 0.81572 0.0
H1376 H 0.57809 0.55711 0.78067 0.0
C1377 C 0.54251 0.48483 0.83819 0.0
C1378 C 0.54013 0.51847 0.84006 0.0
H1379 H 0.55852 0.45076 0.81485 0.0
H1380 H 0.53202 0.46399 0.85387 0.0
C1381 C 0.5537 0.54454 0.81911 0.0
C1382 C 0.51748 0.08298 0.81821 0.0
C1383 C 0.53544 0.07539 0.79704 0.0
H1384 H 0.49342 0.06688 0.85673 0.0
C1385 C 0.54488 0.04602 0.79952 0.0
H1386 H 0.51006 0.10558 0.81699 0.0
C1387 C 0.53516 0.02381 0.82216 0.0
C1388 C 0.51612 0.0306 0.84304 0.0
H1389 H 0.55838 0.03914 0.78357 0.0
H1390 H 0.54195 1.00078 0.82317 0.0
C1391 C 0.50821 0.06103 0.84104 0.0
C1392 C 0.11277 0.26546 0.55277 0.0
C1393 C 0.13891 0.27049 0.57309 0.0
H1394 H 0.1059 0.2842 0.51528 0.0
C1395 C 0.1798 0.29788 0.56993 0.0
H1396 H 0.08116 0.24437 0.55445 0.0
C1397 C 0.19393 0.32055 0.54751 0.0
C1398 C 0.16763 0.31644 0.52755 0.0
H1399 H 0.20077 0.30285 0.5852 0.0
H1400 H 0.2255 0.3418 0.54597 0.0
C1401 C 0.12699 0.28804 0.53022 0.0
C1402 C 0.6972 0.85492 0.56813 0.0
C1403 C 0.72775 0.84575 0.56996 0.0
H1404 H 0.65152 0.85459 0.54495 0.0
C1405 C 0.73414 0.82689 0.54933 0.0
H1406 H 0.69122 0.86904 0.58383 0.0
C1407 C 0.71101 0.81816 0.5271 0.0
C1408 C 0.68097 0.82804 0.52508 0.0
H1409 H 0.75762 0.81967 0.55011 0.0
H1410 H 0.71671 0.80373 0.51148 0.0
C1411 C 0.67413 0.84623 0.54595 0.0
C1412 C 0.1939 0.91098 0.54738 0.0
C1413 C 0.18169 0.88544 0.56859 0.0
H1414 H 0.21528 0.92218 0.50818 0.0
C1415 C 0.18157 0.85062 0.56605 0.0
H1416 H 0.19398 0.93788 0.54871 0.0
C1417 C 0.19368 0.84166 0.54293 0.0
C1418 C 0.20595 0.86717 0.52173 0.0
H1419 H 0.1726 0.83048 0.58209 0.0
H1420 H 0.19328 0.8146 0.54161 0.0
C1421 C 0.20568 0.90183 0.52413 0.0
C1422 C 0.6243 0.76522 0.15365 0.0
C1423 C 0.6326 0.79062 0.13276 0.0
H1424 H 0.64071 0.75731 0.19157 0.0
C1425 C 0.66487 0.82846 0.13426 0.0
H1426 H 0.59939 0.73597 0.15301 0.0
C1427 C 0.68864 0.84058 0.15624 0.0
C1428 C 0.68015 0.81522 0.1772 0.0
H1429 H 0.67194 0.8485 0.11834 0.0
H1430 H 0.71337 0.8699 0.15699 0.0
C1431 C 0.6477 0.77748 0.17574 0.0
C1432 C 0.25611 0.85964 0.14755 0.0
C1433 C 0.23059 0.83942 0.12712 0.0
H1434 H 0.26107 0.88214 0.18561 0.0
C1435 C 0.18951 0.82673 0.12965 0.0
H1436 H 0.28785 0.86953 0.14622 0.0
C1437 C 0.17421 0.8338 0.15214 0.0
C1438 C 0.19956 0.85363 0.17272 0.0
H1439 H 0.16913 0.81135 0.11417 0.0
H1440 H 0.14231 0.82319 0.15356 0.0
C1441 C 0.24072 0.8665 0.17018 0.0
C1442 C 0.22556 0.42097 0.15188 0.0
C1443 C 0.19728 0.41043 0.13206 0.0
H1444 H 0.23817 0.40802 0.18982 0.0
C1445 C 0.15893 0.3782 0.13616 0.0
H1446 H 0.2553 0.44573 0.14945 0.0
C1447 C 0.14915 0.35696 0.15914 0.0
C1448 C 0.1774 0.367 0.17883 0.0
H1449 H 0.13647 0.36873 0.1213 0.0
H1450 H 0.11931 0.33228 0.1614 0.0
C1451 C 0.21563 0.39963 0.1751 0.0
C1452 C 0.84635 0.63081 0.90155 0.0
C1453 C 0.80557 0.60316 0.90481 0.0
H1454 H 0.89169 0.67474 0.87741 0.0
C1455 C 0.77927 0.59761 0.88448 0.0
H1456 H 0.86744 0.63618 0.91682 0.0
C1457 C 0.79322 0.61997 0.86183 0.0
C1458 C 0.83373 0.64865 0.85907 0.0
H1459 H 0.74775 0.57629 0.88623 0.0
H1460 H 0.77201 0.61576 0.84688 0.0
C1461 C 0.86021 0.65326 0.87903 0.0
C1462 C 0.36336 0.18783 0.90287 0.0
C1463 C 0.39249 0.17673 0.90437 0.0
H1464 H 0.31819 0.18942 0.88016 0.0
C1465 C 0.39611 0.15567 0.88405 0.0
H1466 H 0.35954 0.2037 0.91836 0.0
C1467 C 0.37215 0.14715 0.86228 0.0
C1468 C 0.34404 0.15948 0.86035 0.0
H1469 H 0.41845 0.14693 0.88454 0.0
H1470 H 0.37603 0.13133 0.84678 0.0
C1471 C 0.3394 0.17931 0.8811 0.0
C1472 C 0.8303 0.18297 0.89923 0.0
C1473 C 0.83492 0.21979 0.90142 0.0
H1474 H 0.83848 0.14384 0.87564 0.0
C1475 C 0.85042 0.24525 0.88017 0.0
H1476 H 0.81869 0.16278 0.91528 0.0
C1477 C 0.86169 0.23436 0.85743 0.0
C1478 C 0.85814 0.19794 0.85553 0.0
H1479 H 0.854 0.2737 0.88119 0.0
H1480 H 0.87428 0.25487 0.84159 0.0
C1481 C 0.84193 0.17224 0.8766 0.0
C1482 C 0.33843 0.16258 0.46946 0.0
C1483 C 0.30439 0.12589 0.46733 0.0
H1484 H 0.38737 0.20122 0.49308 0.0
C1485 C 0.29331 0.09972 0.48805 0.0
H1486 H 0.34763 0.18317 0.45368 0.0
C1487 C 0.31575 0.11009 0.51057 0.0
C1488 C 0.34997 0.14665 0.51265 0.0
H1489 H 0.26701 0.07135 0.48693 0.0
H1490 H 0.30664 0.08935 0.52626 0.0
C1491 C 0.36121 0.17277 0.49187 0.0
C1492 C 0.85829 0.1586 0.46387 0.0
C1493 C 0.89921 0.17058 0.46129 0.0
H1494 H 0.81167 0.15649 0.48768 0.0
C1495 C 0.92496 0.19067 0.48167 0.0
H1496 H 0.83774 0.14335 0.44844 0.0
C1497 C 0.90999 0.19825 0.50422 0.0
C1498 C 0.86904 0.18627 0.50675 0.0
H1499 H 0.95658 0.20003 0.48032 0.0
H1500 H 0.93056 0.21387 0.51956 0.0
C1501 C 0.84342 0.16642 0.48627 0.0
C1502 C 0.82533 0.7115 0.46766 0.0
C1503 C 0.8634 0.74421 0.46375 0.0
H1504 H 0.78613 0.66501 0.49266 0.0
C1505 C 0.89159 0.755 0.48364 0.0
H1506 H 0.80296 0.70183 0.45274 0.0
C1507 C 0.88186 0.73343 0.50675 0.0
C1508 C 0.84393 0.70034 0.5103 0.0
H1509 H 0.92111 0.78012 0.48136 0.0
H1510 H 0.90434 0.74203 0.52153 0.0
C1511 C 0.81575 0.69004 0.49054 0.0
loop_
_geom_bond_atom_site_label_1
_geom_bond_atom_site_label_2
_geom_bond_distance
_geom_bond_site_symmetry_2
_ccdc_geom_bond_type
H0 C5 0.930 . S
H1 C8 0.930 . S
H2 C10 0.930 . S
H3 C4 1.016 . S
C4 H3 1.016 . S
C4 N11 1.286 . S
C5 H0 0.930 . S
C5 C6 1.397 . S
C5 C7 1.361 . S
C6 C5 1.397 . S
C6 C10 1.390 . S
C7 C5 1.361 . S
C7 C8 1.393 . S
C7 N11 1.413 . S
C8 H1 0.930 . S
C8 C7 1.393 . S
C8 C9 1.399 . S
C9 C8 1.399 . S
C9 C10 1.381 . S
C10 H2 0.930 . S
C10 C6 1.390 . S
C10 C9 1.381 . S
N11 C4 1.286 . S
N11 C7 1.413 . S
H12 C17 0.930 . S
H13 C20 0.930 . S
H14 C22 0.930 . S
H15 C16 1.016 . S
C16 H15 1.016 . S
C16 N23 1.286 . S
C17 H12 0.930 . S
C17 C18 1.397 . S
C17 C19 1.361 . S
C18 C17 1.397 . S
C18 C22 1.390 . S
C19 C17 1.361 . S
C19 C20 1.393 . S
C19 N23 1.413 . S
C20 H13 0.930 . S
C20 C19 1.393 . S
C20 C21 1.399 . S
C21 C20 1.399 . S
C21 C22 1.381 . S
C22 H14 0.930 . S
C22 C18 1.390 . S
C22 C21 1.381 . S
N23 C16 1.286 . S
N23 C19 1.413 . S
H24 C29 0.930 . S
H25 C32 0.930 . S
H26 C34 0.930 . S
H27 C28 1.016 . S
C28 H27 1.016 . S
C28 N35 1.286 . S
C29 H24 0.930 . S
C29 C30 1.397 . S
C29 C31 1.361 . S
C30 C29 1.397 . S
C30 C34 1.390 . S
C31 C29 1.361 . S
C31 C32 1.393 . S
C31 N35 1.413 . S
C32 H25 0.930 . S
C32 C31 1.393 . S
C32 C33 1.399 . S
C33 C32 1.399 . S
C33 C34 1.381 . S
C34 H26 0.930 . S
C34 C30 1.390 . S
C34 C33 1.381 . S
N35 C28 1.286 . S
N35 C31 1.413 . S
H36 C41 0.930 . S
H37 C44 0.930 . S
H38 C46 0.930 . S
H39 C40 1.016 . S
C40 H39 1.016 . S
C40 N47 1.286 . S
C41 H36 0.930 . S
C41 C42 1.397 . S
C41 C43 1.361 . S
C42 C41 1.397 . S
C42 C46 1.390 . S
C43 C41 1.361 . S
C43 C44 1.393 . S
C43 N47 1.413 . S
C44 H37 0.930 . S
C44 C43 1.393 . S
C44 C45 1.399 . S
C45 C44 1.399 . S
C45 C46 1.381 . S
C46 H38 0.930 . S
C46 C42 1.390 . S
C46 C45 1.381 . S
N47 C40 1.286 . S
N47 C43 1.413 . S
H48 C53 0.930 . S
H49 C56 0.930 . S
H50 C58 0.930 . S
H51 C52 1.016 . S
C52 H51 1.016 . S
C52 N59 1.286 . S
C53 H48 0.930 . S
C53 C54 1.397 . S
C53 C55 1.361 . S
C54 C53 1.397 . S
C54 C58 1.390 . S
C55 C53 1.361 . S
C55 C56 1.393 . S
C55 N59 1.413 . S
C56 H49 0.930 . S
C56 C55 1.393 . S
C56 C57 1.399 . S
C57 C56 1.399 . S
C57 C58 1.381 . S
C58 H50 0.930 . S
C58 C54 1.390 . S
C58 C57 1.381 . S
N59 C52 1.286 . S
N59 C55 1.413 . S
H60 C65 0.930 . S
H61 C68 0.930 . S
H62 C70 0.930 . S
H63 C64 1.016 . S
C64 H63 1.016 . S
C64 N71 1.286 . S
C65 H60 0.930 . S
C65 C66 1.397 . S
C65 C67 1.361 . S
C66 C65 1.397 . S
C66 C70 1.390 . S
C67 C65 1.361 . S
C67 C68 1.393 . S
C67 N71 1.413 . S
C68 H61 0.930 . S
C68 C67 1.393 . S
C68 C69 1.399 . S
C69 C68 1.399 . S
C69 C70 1.381 . S
C70 H62 0.930 . S
C70 C66 1.390 . S
C70 C69 1.381 . S
N71 C64 1.286 . S
N71 C67 1.413 . S
H72 C77 0.930 . S
H73 C80 0.930 . S
H74 C82 0.930 . S
H75 C76 1.016 . S
C76 H75 1.016 . S
C76 N83 1.286 . S
C77 H72 0.930 . S
C77 C78 1.397 . S
C77 C79 1.361 . S
C78 C77 1.397 . S
C78 C82 1.390 . S
C79 C77 1.361 . S
C79 C80 1.393 . S
C79 N83 1.413 . S
C80 H73 0.930 . S
C80 C79 1.393 . S
C80 C81 1.399 . S
C81 C80 1.399 . S
C81 C82 1.381 . S
C82 H74 0.930 . S
C82 C78 1.390 . S
C82 C81 1.381 . S
N83 C76 1.286 . S
N83 C79 1.413 . S
H84 C89 0.930 . S
H85 C92 0.930 . S
H86 C94 0.930 . S
H87 C88 1.016 . S
C88 H87 1.016 . S
C88 N95 1.286 . S
C89 H84 0.930 . S
C89 C90 1.397 . S
C89 C91 1.361 . S
C90 C89 1.397 . S
C90 C94 1.390 . S
C91 C89 1.361 . S
C91 C92 1.393 . S
C91 N95 1.413 . S
C92 H85 0.930 . S
C92 C91 1.393 . S
C92 C93 1.399 . S
C93 C92 1.399 . S
C93 C94 1.381 . S
C94 H86 0.930 . S
C94 C90 1.390 . S
C94 C93 1.381 . S
N95 C88 1.286 . S
N95 C91 1.413 . S
H96 C101 0.930 . S
H97 C104 0.930 . S
H98 C106 0.930 . S
H99 C100 1.016 . S
C100 H99 1.016 . S
C100 N107 1.286 . S
C101 H96 0.930 . S
C101 C102 1.397 . S
C101 C103 1.361 . S
C102 C101 1.397 . S
C102 C106 1.390 . S
C103 C101 1.361 . S
C103 C104 1.393 . S
C103 N107 1.413 . S
C104 H97 0.930 . S
C104 C103 1.393 . S
C104 C105 1.399 . S
C105 C104 1.399 . S
C105 C106 1.381 . S
C106 H98 0.930 . S
C106 C102 1.390 . S
C106 C105 1.381 . S
N107 C100 1.286 . S
N107 C103 1.413 . S
H108 C113 0.930 . S
H109 C116 0.930 . S
H110 C118 0.930 . S
H111 C112 1.016 . S
C112 H111 1.016 . S
C112 N119 1.286 . S
C113 H108 0.930 . S
C113 C114 1.397 . S
C113 C115 1.361 . S
C114 C113 1.397 . S
C114 C118 1.390 . S
C115 C113 1.361 . S
C115 C116 1.393 . S
C115 N119 1.413 . S
C116 H109 0.930 . S
C116 C115 1.393 . S
C116 C117 1.399 . S
C117 C116 1.399 . S
C117 C118 1.381 . S
C118 H110 0.930 . S
C118 C114 1.390 . S
C118 C117 1.381 . S
N119 C112 1.286 . S
N119 C115 1.413 . S
H120 C125 0.930 . S
H121 C128 0.930 . S
H122 C130 0.930 . S
H123 C124 1.016 . S
C124 H123 1.016 . S
C124 N131 1.286 . S
C125 H120 0.930 . S
C125 C126 1.397 . S
C125 C127 1.361 . S
C126 C125 1.397 . S
C126 C130 1.390 . S
C127 C125 1.361 . S
C127 C128 1.393 . S
C127 N131 1.413 . S
C128 H121 0.930 . S
C128 C127 1.393 . S
C128 C129 1.399 . S
C129 C128 1.399 . S
C129 C130 1.381 . S
C130 H122 0.930 . S
C130 C126 1.390 . S
C130 C129 1.381 . S
N131 C124 1.286 . S
N131 C127 1.413 . S
H132 C137 0.930 . S
H133 C140 0.930 . S
H134 C142 0.930 . S
H135 C136 1.016 . S
C136 H135 1.016 . S
C136 N143 1.286 . S
C137 H132 0.930 . S
C137 C138 1.397 . S
C137 C139 1.361 . S
C138 C137 1.397 . S
C138 C142 1.390 . S
C139 C137 1.361 . S
C139 C140 1.393 . S
C139 N143 1.413 . S
C140 H133 0.930 . S
C140 C139 1.393 . S
C140 C141 1.399 . S
C141 C140 1.399 . S
C141 C142 1.381 . S
C142 H134 0.930 . S
C142 C138 1.390 . S
C142 C141 1.381 . S
N143 C136 1.286 . S
N143 C139 1.413 . S
H144 C149 0.930 . S
H145 C152 0.930 . S
H146 C154 0.930 . S
H147 C148 1.016 . S
C148 H147 1.016 . S
C148 N155 1.286 . S
C149 H144 0.930 . S
C149 C150 1.397 . S
C149 C151 1.361 . S
C150 C149 1.397 . S
C150 C154 1.390 . S
C151 C149 1.361 . S
C151 C152 1.393 . S
C151 N155 1.413 . S
C152 H145 0.930 . S
C152 C151 1.393 . S
C152 C153 1.399 . S
C153 C152 1.399 . S
C153 C154 1.381 . S
C154 H146 0.930 . S
C154 C150 1.390 . S
C154 C153 1.381 . S
N155 C148 1.286 . S
N155 C151 1.413 . S
H156 C161 0.930 . S
H157 C164 0.930 . S
H158 C166 0.930 . S
H159 C160 1.016 . S
C160 H159 1.016 . S
C160 N167 1.286 . S
C161 H156 0.930 . S
C161 C162 1.397 . S
C161 C163 1.361 . S
C162 C161 1.397 . S
C162 C166 1.390 . S
C163 C161 1.361 . S
C163 C164 1.393 . S
C163 N167 1.413 . S
C164 H157 0.930 . S
C164 C163 1.393 . S
C164 C165 1.399 . S
C165 C164 1.399 . S
C165 C166 1.381 . S
C166 H158 0.930 . S
C166 C162 1.390 . S
C166 C165 1.381 . S
N167 C160 1.286 . S
N167 C163 1.413 . S
H168 C173 0.930 . S
H169 C176 0.930 . S
H170 C178 0.930 . S
H171 C172 1.016 . S
C172 H171 1.016 . S
C172 N179 1.286 . S
C173 H168 0.930 . S
C173 C174 1.397 . S
C173 C175 1.361 . S
C174 C173 1.397 . S
C174 C178 1.390 . S
C175 C173 1.361 . S
C175 C176 1.393 . S
C175 N179 1.413 . S
C176 H169 0.930 . S
C176 C175 1.393 . S
C176 C177 1.399 . S
C177 C176 1.399 . S
C177 C178 1.381 . S
C178 H170 0.930 . S
C178 C174 1.390 . S
C178 C177 1.381 . S
N179 C172 1.286 . S
N179 C175 1.413 . S
H180 C185 0.930 . S
H181 C188 0.930 . S
H182 C190 0.930 . S
H183 C184 1.016 . S
C184 H183 1.016 . S
C184 N191 1.286 . S
C185 H180 0.930 . S
C185 C186 1.397 . S
C185 C187 1.361 . S
C186 C185 1.397 . S
C186 C190 1.390 . S
C187 C185 1.361 . S
C187 C188 1.393 . S
C187 N191 1.413 . S
C188 H181 0.930 . S
C188 C187 1.393 . S
C188 C189 1.399 . S
C189 C188 1.399 . S
C189 C190 1.381 . S
C190 H182 0.930 . S
C190 C186 1.390 . S
C190 C189 1.381 . S
N191 C184 1.286 . S
N191 C187 1.413 . S
H192 C197 0.930 . S
H193 C200 0.930 . S
H194 C202 0.930 . S
H195 C196 1.016 . S
C196 H195 1.016 . S
C196 N203 1.286 . S
C197 H192 0.930 . S
C197 C198 1.397 . S
C197 C199 1.361 . S
C198 C197 1.397 . S
C198 C202 1.390 . S
C199 C197 1.361 . S
C199 C200 1.393 . S
C199 N203 1.413 . S
C200 H193 0.930 . S
C200 C199 1.393 . S
C200 C201 1.399 . S
C201 C200 1.399 . S
C201 C202 1.381 . S
C202 H194 0.930 . S
C202 C198 1.390 . S
C202 C201 1.381 . S
N203 C196 1.286 . S
N203 C199 1.413 . S
H204 C209 0.930 . S
H205 C212 0.930 . S
H206 C214 0.930 . S
H207 C208 1.016 . S
C208 H207 1.016 . S
C208 N215 1.286 . S
C209 H204 0.930 . S
C209 C210 1.397 . S
C209 C211 1.361 . S
C210 C209 1.397 . S
C210 C214 1.390 . S
C211 C209 1.361 . S
C211 C212 1.393 . S
C211 N215 1.413 . S
C212 H205 0.930 . S
C212 C211 1.393 . S
C212 C213 1.399 . S
C213 C212 1.399 . S
C213 C214 1.381 . S
C214 H206 0.930 . S
C214 C210 1.390 . S
C214 C213 1.381 . S
N215 C208 1.286 . S
N215 C211 1.413 . S
Tb216 N247 2.660 . S
Tb216 N254 2.600 . S
Tb216 O260 2.546 . S
Tb216 O261 2.610 1_566 S
Tb216 O263 2.320 1_565 S
Tb216 O264 2.552 1_565 S
Tb216 O265 2.413 1_565 S
Tb216 O267 2.362 1_556 S
Tb216 O268 2.421 . S
Tb216 C280 2.833 . S
C217 C220 1.432 . S
C217 C221 1.414 . S
C217 N224 1.359 . S
C218 C220 1.417 . S
C218 C222 1.432 . S
C218 C230 1.410 . S
C219 C221 1.444 . S
C219 C222 1.317 . S
C219 H242 0.929 . S
C220 C217 1.432 . S
C220 C218 1.417 . S
C220 N228 1.360 . S
C221 C217 1.414 . S
C221 C219 1.444 . S
C221 C226 1.385 . S
C222 C218 1.432 . S
C222 C219 1.317 . S
C222 H234 0.930 . S
C223 C225 1.392 . S
C223 C226 1.370 . S
C223 H235 0.931 . S
N224 C217 1.359 . S
N224 C225 1.327 . S
N224 Tb227 2.600 . S
C225 C223 1.392 . S
C225 N224 1.327 . S
C225 H232 0.930 . S
C226 C221 1.385 . S
C226 C223 1.370 . S
C226 H245 0.930 . S
Tb227 N224 2.600 . S
Tb227 N228 2.660 . S
Tb227 O261 2.362 . S
Tb227 O262 2.421 . S
Tb227 O266 2.546 . S
Tb227 O267 2.610 1_545 S
Tb227 O269 2.320 1_545 S
Tb227 O270 2.552 1_545 S
Tb227 O271 2.413 1_545 S
Tb227 C291 2.833 . S
N228 C220 1.360 . S
N228 Tb227 2.660 . S
N228 C229 1.305 . S
C229 N228 1.305 . S
C229 C231 1.407 . S
C229 H236 0.930 . S
C230 C218 1.410 . S
C230 C231 1.345 . S
C230 H238 0.930 . S
C231 C229 1.407 . S
C231 C230 1.345 . S
C231 H233 0.930 . S
H232 C225 0.930 . S
H233 C231 0.930 . S
H234 C222 0.930 . S
H235 C223 0.931 . S
H236 C229 0.930 . S
H237 C251 0.930 . S
H238 C230 0.930 . S
H239 C257 0.930 . S
H240 C248 0.930 . S
H241 C255 0.931 . S
H242 C219 0.929 . S
H243 C249 0.930 . S
H244 C282 0.930 . S
H245 C226 0.930 . S
H246 C281 0.929 . S
N247 Tb216 2.660 . S
N247 C248 1.305 . S
N247 C252 1.360 . S
C248 H240 0.930 . S
C248 N247 1.305 . S
C248 C251 1.407 . S
C249 H243 0.930 . S
C249 C250 1.410 . S
C249 C251 1.345 . S
C250 C249 1.410 . S
C250 C252 1.417 . S
C250 C282 1.432 . S
C251 H237 0.930 . S
C251 C248 1.407 . S
C251 C249 1.345 . S
C252 N247 1.360 . S
C252 C250 1.417 . S
C252 C256 1.432 . S
H253 C258 0.930 . S
N254 Tb216 2.600 . S
N254 C256 1.359 . S
N254 C257 1.327 . S
C255 H241 0.931 . S
C255 C257 1.392 . S
C255 C258 1.370 . S
C256 C252 1.432 . S
C256 N254 1.359 . S
C256 C259 1.414 . S
C257 H239 0.930 . S
C257 N254 1.327 . S
C257 C255 1.392 . S
C258 H253 0.930 . S
C258 C255 1.370 . S
C258 C259 1.385 . S
C259 C256 1.414 . S
C259 C258 1.385 . S
C259 C281 1.444 . S
O260 Tb216 2.546 . S
O260 C280 1.251 . S
O261 Tb216 2.610 1_544 S
O261 Tb227 2.362 . S
O261 C272 1.283 1_554 S
O262 Tb227 2.421 . S
O262 C279 1.262 1_554 S
O263 Tb216 2.320 1_545 S
O263 C279 1.260 . S
O264 Tb216 2.552 1_545 S
O264 C272 1.243 . S
O265 Tb216 2.413 1_545 S
O265 C280 1.256 1_545 S
O266 Tb227 2.546 . S
O266 C291 1.251 . S
O267 Tb216 2.362 1_554 S
O267 Tb227 2.610 1_565 S
O267 C283 1.283 . S
O268 Tb216 2.421 . S
O268 C290 1.262 1_556 S
O269 Tb227 2.320 1_565 S
O269 C290 1.260 . S
O270 Tb227 2.552 1_565 S
O270 C283 1.243 . S
O271 Tb227 2.413 1_565 S
O271 C291 1.256 1_565 S
C272 O261 1.283 1_556 S
C272 O264 1.243 . S
C273 C275 1.382 . S
C273 C277 1.393 1_545 S
C273 C280 1.500 1_545 S
C274 C275 1.400 . S
C274 C276 1.384 . S
C275 C273 1.382 . S
C275 C274 1.400 . S
C275 H292 0.930 . S
C276 C274 1.384 . S
C276 C278 1.392 1_545 S
C276 H293 0.931 . S
C277 C273 1.393 1_565 S
C277 C278 1.401 . S
C277 H294 0.930 . S
C278 C276 1.392 1_565 S
C278 C277 1.401 . S
C278 H295 0.930 . S
C279 O262 1.262 1_556 S
C279 O263 1.260 . S
C280 Tb216 2.833 . S
C280 O260 1.251 . S
C280 O265 1.256 1_565 S
C280 C273 1.500 1_565 S
C281 H246 0.929 . S
C281 C259 1.444 . S
C281 C282 1.317 . S
C282 H244 0.930 . S
C282 C250 1.432 . S
C282 C281 1.317 . S
C283 O267 1.283 . S
C283 O270 1.243 . S
C284 C285 1.382 1_545 S
C284 C288 1.393 . S
C284 C291 1.500 . S
C285 C284 1.382 1_565 S
C285 C286 1.400 . S
C285 H296 0.930 . S
C286 C285 1.400 . S
C286 C287 1.384 . S
C287 C286 1.384 . S
C287 C289 1.392 1_565 S
C287 H297 0.931 . S
C288 C284 1.393 . S
C288 C289 1.401 . S
C288 H298 0.930 . S
C289 C287 1.392 1_545 S
C289 C288 1.401 . S
C289 H299 0.930 . S
C290 O268 1.262 1_554 S
C290 O269 1.260 . S
C291 Tb227 2.833 . S
C291 O266 1.251 . S
C291 O271 1.256 1_545 S
C291 C284 1.500 . S
H292 C275 0.930 . S
H293 C276 0.931 . S
H294 C277 0.930 . S
H295 C278 0.930 . S
H296 C285 0.930 . S
H297 C287 0.931 . S
H298 C288 0.930 . S
H299 C289 0.930 . S
Tb300 N331 2.660 . S
Tb300 N338 2.600 . S
Tb300 O344 2.546 . S
Tb300 O345 2.610 1_456 S
Tb300 O347 2.320 1_455 S
Tb300 O348 2.552 1_455 S
Tb300 O349 2.410 1_455 S
Tb300 O351 2.362 1_556 S
Tb300 O352 2.421 . S
Tb300 C364 2.833 . S
C301 C304 1.432 . S
C301 C305 1.414 . S
C301 N308 1.359 . S
C302 C304 1.417 . S
C302 C306 1.432 . S
C302 C314 1.410 . S
C303 C305 1.444 . S
C303 C306 1.317 . S
C303 H326 0.929 . S
C304 C301 1.432 . S
C304 C302 1.417 . S
C304 N312 1.360 . S
C305 C301 1.414 . S
C305 C303 1.444 . S
C305 C310 1.385 . S
C306 C302 1.432 . S
C306 C303 1.317 . S
C306 H318 0.930 . S
C307 C309 1.392 . S
C307 C310 1.370 . S
C307 H319 0.931 . S
N308 C301 1.359 . S
N308 C309 1.327 . S
N308 Tb311 2.600 . S
C309 C307 1.392 . S
C309 N308 1.327 . S
C309 H316 0.930 . S
C310 C305 1.385 . S
C310 C307 1.370 . S
C310 H329 0.930 . S
Tb311 N308 2.600 . S
Tb311 N312 2.660 . S
Tb311 O345 2.362 . S
Tb311 O346 2.421 . S
Tb311 O350 2.546 . S
Tb311 O351 2.610 1_655 S
Tb311 O353 2.320 1_655 S
Tb311 O354 2.552 1_655 S
Tb311 O355 2.413 1_655 S
Tb311 C375 2.833 . S
N312 C304 1.360 . S
N312 Tb311 2.660 . S
N312 C313 1.305 . S
C313 N312 1.305 . S
C313 C315 1.407 . S
C313 H320 0.930 . S
C314 C302 1.410 . S
C314 C315 1.345 . S
C314 H322 0.930 . S
C315 C313 1.407 . S
C315 C314 1.345 . S
C315 H317 0.930 . S
H316 C309 0.930 . S
H317 C315 0.930 . S
H318 C306 0.930 . S
H319 C307 0.931 . S
H320 C313 0.930 . S
H321 C335 0.930 . S
H322 C314 0.930 . S
H323 C341 0.930 . S
H324 C332 0.930 . S
H325 C339 0.931 . S
H326 C303 0.929 . S
H327 C333 0.930 . S
H328 C366 0.930 . S
H329 C310 0.930 . S
H330 C365 0.929 . S
N331 Tb300 2.660 . S
N331 C332 1.305 . S
N331 C336 1.360 . S
C332 H324 0.930 . S
C332 N331 1.305 . S
C332 C335 1.407 . S
C333 H327 0.930 . S
C333 C334 1.410 . S
C333 C335 1.345 . S
C334 C333 1.410 . S
C334 C336 1.417 . S
C334 C366 1.432 . S
C335 H321 0.930 . S
C335 C332 1.407 . S
C335 C333 1.345 . S
C336 N331 1.360 . S
C336 C334 1.417 . S
C336 C340 1.432 . S
H337 C342 0.930 . S
N338 Tb300 2.600 . S
N338 C340 1.359 . S
N338 C341 1.327 . S
C339 H325 0.931 . S
C339 C341 1.392 . S
C339 C342 1.370 . S
C340 C336 1.432 . S
C340 N338 1.359 . S
C340 C343 1.414 . S
C341 H323 0.930 . S
C341 N338 1.327 . S
C341 C339 1.392 . S
C342 H337 0.930 . S
C342 C339 1.370 . S
C342 C343 1.385 . S
C343 C340 1.414 . S
C343 C342 1.385 . S
C343 C365 1.444 . S
O344 Tb300 2.546 . S
O344 C364 1.251 . S
O345 Tb300 2.610 1_654 S
O345 Tb311 2.362 . S
O345 C356 1.283 1_554 S
O346 Tb311 2.421 . S
O346 C363 1.262 1_554 S
O347 Tb300 2.320 1_655 S
O347 C363 1.260 . S
O348 Tb300 2.552 1_655 S
O348 C356 1.243 . S
O349 Tb300 2.410 1_655 S
O349 C364 1.258 1_655 S
O350 Tb311 2.546 . S
O350 C375 1.251 . S
O351 Tb300 2.362 1_554 S
O351 Tb311 2.610 1_455 S
O351 C367 1.283 . S
O352 Tb300 2.421 . S
O352 C374 1.262 1_556 S
O353 Tb311 2.320 1_455 S
O353 C374 1.260 . S
O354 Tb311 2.552 1_455 S
O354 C367 1.243 . S
O355 Tb311 2.413 1_455 S
O355 C375 1.256 1_455 S
C356 O345 1.283 1_556 S
C356 O348 1.243 . S
C357 C359 1.382 1_455 S
C357 C361 1.393 . S
C357 C364 1.500 . S
C358 C359 1.400 . S
C358 C360 1.384 . S
C359 C357 1.382 1_655 S
C359 C358 1.400 . S
C359 H376 0.930 . S
C360 C358 1.384 . S
C360 C362 1.392 1_655 S
C360 H377 0.931 . S
C361 C357 1.393 . S
C361 C362 1.401 . S
C361 H378 0.930 . S
C362 C360 1.392 1_455 S
C362 C361 1.401 . S
C362 H379 0.930 . S
C363 O346 1.262 1_556 S
C363 O347 1.260 . S
C364 Tb300 2.833 . S
C364 O344 1.251 . S
C364 O349 1.258 1_455 S
C364 C357 1.500 . S
C365 H330 0.929 . S
C365 C343 1.444 . S
C365 C366 1.317 . S
C366 H328 0.930 . S
C366 C334 1.432 . S
C366 C365 1.317 . S
C367 O351 1.283 . S
C367 O354 1.243 . S
C368 C369 1.382 . S
C368 C372 1.393 1_455 S
C368 C375 1.500 1_455 S
C369 C368 1.382 . S
C369 C370 1.400 . S
C369 H380 0.930 . S
C370 C369 1.400 . S
C370 C371 1.384 . S
C371 C370 1.384 . S
C371 C373 1.392 1_455 S
C371 H381 0.931 . S
C372 C368 1.393 1_655 S
C372 C373 1.401 . S
C372 H382 0.930 . S
C373 C371 1.392 1_655 S
C373 C372 1.401 . S
C373 H383 0.930 . S
C374 O352 1.262 1_554 S
C374 O353 1.260 . S
C375 Tb311 2.833 . S
C375 O350 1.251 . S
C375 O355 1.256 1_655 S
C375 C368 1.500 1_655 S
H376 C359 0.930 . S
H377 C360 0.931 . S
H378 C361 0.930 . S
H379 C362 0.930 . S
H380 C369 0.930 . S
H381 C371 0.931 . S
H382 C372 0.930 . S
H383 C373 0.930 . S
Tb384 N415 2.660 . S
Tb384 N422 2.600 . S
Tb384 O428 2.546 . S
Tb384 O429 2.610 . S
Tb384 O431 2.320 . S
Tb384 O432 2.552 . S
Tb384 O433 2.413 . S
Tb384 O435 2.362 . S
Tb384 O436 2.421 . S
Tb384 C448 2.833 . S
C385 C388 1.432 . S
C385 C389 1.414 . S
C385 N392 1.359 . S
C386 C388 1.417 . S
C386 C390 1.432 . S
C386 C398 1.410 . S
C387 C389 1.444 . S
C387 C390 1.317 . S
C387 H410 0.929 . S
C388 C385 1.432 . S
C388 C386 1.417 . S
C388 N396 1.360 . S
C389 C385 1.414 . S
C389 C387 1.444 . S
C389 C394 1.385 . S
C390 C386 1.432 . S
C390 C387 1.317 . S
C390 H402 0.930 . S
C391 C393 1.392 . S
C391 C394 1.370 . S
C391 H403 0.931 . S
N392 C385 1.359 . S
N392 C393 1.327 . S
N392 Tb395 2.600 . S
C393 C391 1.392 . S
C393 N392 1.327 . S
C393 H400 0.930 . S
C394 C389 1.385 . S
C394 C391 1.370 . S
C394 H413 0.930 . S
Tb395 N392 2.600 . S
Tb395 N396 2.660 . S
Tb395 O429 2.362 1_556 S
Tb395 O430 2.421 . S
Tb395 O434 2.546 . S
Tb395 O435 2.610 1_556 S
Tb395 O437 2.320 . S
Tb395 O438 2.552 . S
Tb395 O439 2.413 . S
Tb395 C459 2.833 . S
N396 C388 1.360 . S
N396 Tb395 2.660 . S
N396 C397 1.305 . S
C397 N396 1.305 . S
C397 C399 1.407 . S
C397 H404 0.930 . S
C398 C386 1.410 . S
C398 C399 1.345 . S
C398 H406 0.930 . S
C399 C397 1.407 . S
C399 C398 1.345 . S
C399 H401 0.930 . S
H400 C393 0.930 . S
H401 C399 0.930 . S
H402 C390 0.930 . S
H403 C391 0.931 . S
H404 C397 0.930 . S
H405 C419 0.930 . S
H406 C398 0.930 . S
H407 C425 0.930 . S
H408 C416 0.930 . S
H409 C423 0.931 . S
H410 C387 0.929 . S
H411 C417 0.930 . S
H412 C450 0.930 . S
H413 C394 0.930 . S
H414 C449 0.929 . S
N415 Tb384 2.660 . S
N415 C416 1.305 . S
N415 C420 1.360 . S
C416 H408 0.930 . S
C416 N415 1.305 . S
C416 C419 1.407 . S
C417 H411 0.930 . S
C417 C418 1.410 . S
C417 C419 1.345 . S
C418 C417 1.410 . S
C418 C420 1.417 . S
C418 C450 1.432 . S
C419 H405 0.930 . S
C419 C416 1.407 . S
C419 C417 1.345 . S
C420 N415 1.360 . S
C420 C418 1.417 . S
C420 C424 1.432 . S
H421 C426 0.930 . S
N422 Tb384 2.600 . S
N422 C424 1.359 . S
N422 C425 1.327 . S
C423 H409 0.931 . S
C423 C425 1.392 . S
C423 C426 1.370 . S
C424 C420 1.432 . S
C424 N422 1.359 . S
C424 C427 1.414 . S
C425 H407 0.930 . S
C425 N422 1.327 . S
C425 C423 1.392 . S
C426 H421 0.930 . S
C426 C423 1.370 . S
C426 C427 1.385 . S
C427 C424 1.414 . S
C427 C426 1.385 . S
C427 C449 1.444 . S
O428 Tb384 2.546 . S
O428 C448 1.251 . S
O429 Tb384 2.610 . S
O429 Tb395 2.362 1_554 S
O429 C440 1.283 . S
O430 Tb395 2.421 . S
O430 C447 1.262 1_556 S
O431 Tb384 2.320 . S
O431 C447 1.260 . S
O432 Tb384 2.552 . S
O432 C440 1.243 . S
O433 Tb384 2.413 . S
O433 C448 1.256 . S
O434 Tb395 2.546 . S
O434 C459 1.251 . S
O435 Tb384 2.362 . S
O435 Tb395 2.610 1_554 S
O435 C451 1.283 1_554 S
O436 Tb384 2.421 . S
O436 C458 1.262 1_554 S
O437 Tb395 2.320 . S
O437 C458 1.260 . S
O438 Tb395 2.552 . S
O438 C451 1.243 . S
O439 Tb395 2.413 . S
O439 C459 1.256 . S
C440 O429 1.283 . S
C440 O432 1.243 . S
C441 C443 1.382 . S
C441 C445 1.393 . S
C441 C448 1.500 . S
C442 C443 1.400 . S
C442 C444 1.384 . S
C443 C441 1.382 . S
C443 C442 1.400 . S
C443 H460 0.930 . S
C444 C442 1.384 . S
C444 C446 1.392 . S
C444 H461 0.931 . S
C445 C441 1.393 . S
C445 C446 1.401 . S
C445 H462 0.930 . S
C446 C444 1.392 . S
C446 C445 1.401 . S
C446 H463 0.930 . S
C447 O430 1.262 1_554 S
C447 O431 1.260 . S
C448 Tb384 2.833 . S
C448 O428 1.251 . S
C448 O433 1.256 . S
C448 C441 1.500 . S
C449 H414 0.929 . S
C449 C427 1.444 . S
C449 C450 1.317 . S
C450 H412 0.930 . S
C450 C418 1.432 . S
C450 C449 1.317 . S
C451 O435 1.283 1_556 S
C451 O438 1.243 . S
C452 C453 1.382 . S
C452 C456 1.393 . S
C452 C459 1.500 . S
C453 C452 1.382 . S
C453 C454 1.400 . S
C453 H464 0.930 . S
C454 C453 1.400 . S
C454 C455 1.384 . S
C455 C454 1.384 . S
C455 C457 1.392 . S
C455 H465 0.931 . S
C456 C452 1.393 . S
C456 C457 1.401 . S
C456 H466 0.930 . S
C457 C455 1.392 . S
C457 C456 1.401 . S
C457 H467 0.930 . S
C458 O436 1.262 1_556 S
C458 O437 1.260 . S
C459 Tb395 2.833 . S
C459 O434 1.251 . S
C459 O439 1.256 . S
C459 C452 1.500 . S
H460 C443 0.930 . S
H461 C444 0.931 . S
H462 C445 0.930 . S
H463 C446 0.930 . S
H464 C453 0.930 . S
H465 C455 0.931 . S
H466 C456 0.930 . S
H467 C457 0.930 . S
Tb468 N499 2.660 . S
Tb468 N506 2.600 . S
Tb468 O512 2.546 . S
Tb468 O513 2.610 . S
Tb468 O515 2.320 . S
Tb468 O516 2.552 . S
Tb468 O517 2.413 . S
Tb468 O519 2.362 . S
Tb468 O520 2.421 . S
Tb468 C532 2.833 . S
C469 C472 1.432 . S
C469 C473 1.414 . S
C469 N476 1.359 . S
C470 C472 1.417 . S
C470 C474 1.432 . S
C470 C482 1.410 . S
C471 C473 1.444 . S
C471 C474 1.317 . S
C471 H494 0.929 . S
C472 C469 1.432 . S
C472 C470 1.417 . S
C472 N480 1.360 . S
C473 C469 1.414 . S
C473 C471 1.444 . S
C473 C478 1.385 . S
C474 C470 1.432 . S
C474 C471 1.317 . S
C474 H486 0.930 . S
C475 C477 1.392 . S
C475 C478 1.370 . S
C475 H487 0.931 . S
N476 C469 1.359 . S
N476 C477 1.327 . S
N476 Tb479 2.600 . S
C477 C475 1.392 . S
C477 N476 1.327 . S
C477 H484 0.930 . S
C478 C473 1.385 . S
C478 C475 1.370 . S
C478 H497 0.930 . S
Tb479 N476 2.600 . S
Tb479 N480 2.660 . S
Tb479 O513 2.362 . S
Tb479 O514 2.421 . S
Tb479 O518 2.546 . S
Tb479 O519 2.610 . S
Tb479 O521 2.320 . S
Tb479 O522 2.552 . S
Tb479 O523 2.413 . S
Tb479 C543 2.833 . S
N480 C472 1.360 . S
N480 Tb479 2.660 . S
N480 C481 1.305 . S
C481 N480 1.305 . S
C481 C483 1.407 . S
C481 H488 0.930 . S
C482 C470 1.410 . S
C482 C483 1.345 . S
C482 H490 0.930 . S
C483 C481 1.407 . S
C483 C482 1.345 . S
C483 H485 0.930 . S
H484 C477 0.930 . S
H485 C483 0.930 . S
H486 C474 0.930 . S
H487 C475 0.931 . S
H488 C481 0.930 . S
H489 C503 0.930 . S
H490 C482 0.930 . S
H491 C509 0.930 . S
H492 C500 0.930 . S
H493 C507 0.931 . S
H494 C471 0.929 . S
H495 C501 0.930 . S
H496 C534 0.930 . S
H497 C478 0.930 . S
H498 C533 0.929 . S
N499 Tb468 2.660 . S
N499 C500 1.305 . S
N499 C504 1.360 . S
C500 H492 0.930 . S
C500 N499 1.305 . S
C500 C503 1.407 1_455 S
C501 H495 0.930 . S
C501 C502 1.410 . S
C501 C503 1.345 . S
C502 C501 1.410 . S
C502 C504 1.417 1_655 S
C502 C534 1.432 . S
C503 H489 0.930 . S
C503 C500 1.407 1_655 S
C503 C501 1.345 . S
C504 N499 1.360 . S
C504 C502 1.417 1_455 S
C504 C508 1.432 . S
H505 C510 0.930 . S
N506 Tb468 2.600 . S
N506 C508 1.359 . S
N506 C509 1.327 . S
C507 H493 0.931 . S
C507 C509 1.392 . S
C507 C510 1.370 . S
C508 C504 1.432 . S
C508 N506 1.359 . S
C508 C511 1.414 . S
C509 H491 0.930 . S
C509 N506 1.327 . S
C509 C507 1.392 . S
C510 H505 0.930 . S
C510 C507 1.370 . S
C510 C511 1.385 . S
C511 C508 1.414 . S
C511 C510 1.385 . S
C511 C533 1.444 1_455 S
O512 Tb468 2.546 . S
O512 C532 1.251 . S
O513 Tb468 2.610 . S
O513 Tb479 2.362 . S
O513 C524 1.283 . S
O514 Tb479 2.421 . S
O514 C531 1.262 . S
O515 Tb468 2.320 . S
O515 C531 1.260 . S
O516 Tb468 2.552 . S
O516 C524 1.243 . S
O517 Tb468 2.413 . S
O517 C532 1.256 . S
O518 Tb479 2.546 . S
O518 C543 1.251 . S
O519 Tb468 2.362 . S
O519 Tb479 2.610 . S
O519 C535 1.283 . S
O520 Tb468 2.421 . S
O520 C542 1.262 . S
O521 Tb479 2.320 . S
O521 C542 1.260 . S
O522 Tb479 2.552 . S
O522 C535 1.243 . S
O523 Tb479 2.413 . S
O523 C543 1.256 . S
C524 O513 1.283 . S
C524 O516 1.243 . S
C525 C527 1.382 . S
C525 C529 1.393 . S
C525 C532 1.500 . S
C526 C527 1.400 . S
C526 C528 1.384 . S
C527 C525 1.382 . S
C527 C526 1.400 . S
C527 H544 0.930 . S
C528 C526 1.384 . S
C528 C530 1.392 . S
C528 H545 0.931 . S
C529 C525 1.393 . S
C529 C530 1.401 . S
C529 H546 0.930 . S
C530 C528 1.392 . S
C530 C529 1.401 . S
C530 H547 0.930 . S
C531 O514 1.262 . S
C531 O515 1.260 . S
C532 Tb468 2.833 . S
C532 O512 1.251 . S
C532 O517 1.256 . S
C532 C525 1.500 . S
C533 H498 0.929 . S
C533 C511 1.444 1_655 S
C533 C534 1.317 . S
C534 H496 0.930 . S
C534 C502 1.432 . S
C534 C533 1.317 . S
C535 O519 1.283 . S
C535 O522 1.243 . S
C536 C537 1.382 . S
C536 C540 1.393 . S
C536 C543 1.500 . S
C537 C536 1.382 . S
C537 C538 1.400 . S
C537 H548 0.930 . S
C538 C537 1.400 . S
C538 C539 1.384 . S
C539 C538 1.384 . S
C539 C541 1.392 . S
C539 H549 0.931 . S
C540 C536 1.393 . S
C540 C541 1.401 . S
C540 H550 0.930 . S
C541 C539 1.392 . S
C541 C540 1.401 . S
C541 H551 0.930 . S
C542 O520 1.262 . S
C542 O521 1.260 . S
C543 Tb479 2.833 . S
C543 O518 1.251 . S
C543 O523 1.256 . S
C543 C536 1.500 . S
H544 C527 0.930 . S
H545 C528 0.931 . S
H546 C529 0.930 . S
H547 C530 0.930 . S
H548 C537 0.930 . S
H549 C539 0.931 . S
H550 C540 0.930 . S
H551 C541 0.930 . S
Tb552 N583 2.660 . S
Tb552 N590 2.600 . S
Tb552 O596 2.546 . S
Tb552 O597 2.610 . S
Tb552 O599 2.320 . S
Tb552 O600 2.552 . S
Tb552 O601 2.413 . S
Tb552 O603 2.362 . S
Tb552 O604 2.421 . S
Tb552 C616 2.833 . S
C553 C556 1.432 . S
C553 C557 1.414 . S
C553 N560 1.359 . S
C554 C556 1.417 . S
C554 C558 1.432 . S
C554 C566 1.410 . S
C555 C557 1.444 . S
C555 C558 1.317 . S
C555 H578 0.929 . S
C556 C553 1.432 . S
C556 C554 1.417 . S
C556 N564 1.360 . S
C557 C553 1.414 . S
C557 C555 1.444 . S
C557 C562 1.385 . S
C558 C554 1.432 . S
C558 C555 1.317 . S
C558 H570 0.930 . S
C559 C561 1.392 . S
C559 C562 1.370 . S
C559 H571 0.931 . S
N560 C553 1.359 . S
N560 C561 1.327 . S
N560 Tb563 2.600 . S
C561 C559 1.392 . S
C561 N560 1.327 . S
C561 H568 0.930 . S
C562 C557 1.385 . S
C562 C559 1.370 . S
C562 H581 0.930 . S
Tb563 N560 2.600 . S
Tb563 N564 2.660 . S
Tb563 O597 2.362 . S
Tb563 O598 2.421 . S
Tb563 O602 2.546 . S
Tb563 O603 2.610 . S
Tb563 O605 2.320 . S
Tb563 O606 2.552 . S
Tb563 O607 2.413 . S
Tb563 C627 2.833 . S
N564 C556 1.360 . S
N564 Tb563 2.660 . S
N564 C565 1.305 . S
C565 N564 1.305 . S
C565 C567 1.407 . S
C565 H572 0.930 . S
C566 C554 1.410 . S
C566 C567 1.345 . S
C566 H574 0.930 . S
C567 C565 1.407 . S
C567 C566 1.345 . S
C567 H569 0.930 . S
H568 C561 0.930 . S
H569 C567 0.930 . S
H570 C558 0.930 . S
H571 C559 0.931 . S
H572 C565 0.930 . S
H573 C587 0.930 . S
H574 C566 0.930 . S
H575 C593 0.930 . S
H576 C584 0.930 . S
H577 C591 0.931 . S
H578 C555 0.929 . S
H579 C585 0.930 . S
H580 C618 0.930 . S
H581 C562 0.930 . S
H582 C617 0.929 . S
N583 Tb552 2.660 . S
N583 C584 1.305 . S
N583 C588 1.360 . S
C584 H576 0.930 . S
C584 N583 1.305 . S
C584 C587 1.407 . S
C585 H579 0.930 . S
C585 C586 1.410 . S
C585 C587 1.345 . S
C586 C585 1.410 . S
C586 C588 1.417 . S
C586 C618 1.432 . S
C587 H573 0.930 . S
C587 C584 1.407 . S
C587 C585 1.345 . S
C588 N583 1.360 . S
C588 C586 1.417 . S
C588 C592 1.432 . S
H589 C594 0.930 . S
N590 Tb552 2.600 . S
N590 C592 1.359 . S
N590 C593 1.327 . S
C591 H577 0.931 . S
C591 C593 1.392 . S
C591 C594 1.370 . S
C592 C588 1.432 . S
C592 N590 1.359 . S
C592 C595 1.414 . S
C593 H575 0.930 . S
C593 N590 1.327 . S
C593 C591 1.392 . S
C594 H589 0.930 . S
C594 C591 1.370 . S
C594 C595 1.385 . S
C595 C592 1.414 . S
C595 C594 1.385 . S
C595 C617 1.444 . S
O596 Tb552 2.546 . S
O596 C616 1.251 . S
O597 Tb552 2.610 . S
O597 Tb563 2.362 . S
O597 C608 1.283 . S
O598 Tb563 2.421 . S
O598 C615 1.262 . S
O599 Tb552 2.320 . S
O599 C615 1.260 . S
O600 Tb552 2.552 . S
O600 C608 1.243 . S
O601 Tb552 2.413 . S
O601 C616 1.256 . S
O602 Tb563 2.546 . S
O602 C627 1.251 . S
O603 Tb552 2.362 . S
O603 Tb563 2.610 . S
O603 C619 1.283 . S
O604 Tb552 2.421 . S
O604 C626 1.262 . S
O605 Tb563 2.320 . S
O605 C626 1.260 . S
O606 Tb563 2.552 . S
O606 C619 1.243 . S
O607 Tb563 2.413 . S
O607 C627 1.256 . S
C608 O597 1.283 . S
C608 O600 1.243 . S
C609 C611 1.382 . S
C609 C613 1.393 . S
C609 C616 1.500 . S
C610 C611 1.400 . S
C610 C612 1.384 . S
C611 C609 1.382 . S
C611 C610 1.400 . S
C611 H628 0.930 . S
C612 C610 1.384 . S
C612 C614 1.392 . S
C612 H629 0.931 . S
C613 C609 1.393 . S
C613 C614 1.401 . S
C613 H630 0.930 . S
C614 C612 1.392 . S
C614 C613 1.401 . S
C614 H631 0.930 . S
C615 O598 1.262 . S
C615 O599 1.260 . S
C616 Tb552 2.833 . S
C616 O596 1.251 . S
C616 O601 1.256 . S
C616 C609 1.500 . S
C617 H582 0.929 . S
C617 C595 1.444 . S
C617 C618 1.317 . S
C618 H580 0.930 . S
C618 C586 1.432 . S
C618 C617 1.317 . S
C619 O603 1.283 . S
C619 O606 1.243 . S
C620 C621 1.382 . S
C620 C624 1.393 . S
C620 C627 1.500 . S
C621 C620 1.382 . S
C621 C622 1.400 . S
C621 H632 0.930 . S
C622 C621 1.400 . S
C622 C623 1.384 . S
C623 C622 1.384 . S
C623 C625 1.392 . S
C623 H633 0.931 . S
C624 C620 1.393 . S
C624 C625 1.401 . S
C624 H634 0.930 . S
C625 C623 1.392 . S
C625 C624 1.401 . S
C625 H635 0.930 . S
C626 O604 1.262 . S
C626 O605 1.260 . S
C627 Tb563 2.833 . S
C627 O602 1.251 . S
C627 O607 1.256 . S
C627 C620 1.500 . S
H628 C611 0.930 . S
H629 C612 0.931 . S
H630 C613 0.930 . S
H631 C614 0.930 . S
H632 C621 0.930 . S
H633 C623 0.931 . S
H634 C624 0.930 . S
H635 C625 0.930 . S
Tb636 N667 2.660 . S
Tb636 N674 2.600 . S
Tb636 O680 2.546 . S
Tb636 O681 2.610 . S
Tb636 O683 2.320 . S
Tb636 O684 2.552 . S
Tb636 O685 2.413 . S
Tb636 O687 2.362 . S
Tb636 O688 2.421 . S
Tb636 C700 2.833 . S
C637 C640 1.432 . S
C637 C641 1.414 . S
C637 N644 1.359 . S
C638 C640 1.417 . S
C638 C642 1.432 . S
C638 C650 1.410 . S
C639 C641 1.444 . S
C639 C642 1.317 . S
C639 H662 0.929 . S
C640 C637 1.432 . S
C640 C638 1.417 . S
C640 N648 1.360 . S
C641 C637 1.414 . S
C641 C639 1.444 . S
C641 C646 1.385 . S
C642 C638 1.432 . S
C642 C639 1.317 . S
C642 H654 0.930 . S
C643 C645 1.392 . S
C643 C646 1.370 . S
C643 H655 0.931 1_565 S
N644 C637 1.359 . S
N644 C645 1.327 . S
N644 Tb647 2.600 . S
C645 C643 1.392 . S
C645 N644 1.327 . S
C645 H652 0.930 . S
C646 C641 1.385 . S
C646 C643 1.370 . S
C646 H665 0.930 . S
Tb647 N644 2.600 . S
Tb647 N648 2.660 . S
Tb647 O681 2.362 . S
Tb647 O682 2.421 . S
Tb647 O686 2.546 . S
Tb647 O687 2.610 . S
Tb647 O689 2.320 . S
Tb647 O690 2.552 . S
Tb647 O691 2.413 . S
Tb647 C711 2.833 . S
N648 C640 1.360 . S
N648 Tb647 2.660 . S
N648 C649 1.305 . S
C649 N648 1.305 . S
C649 C651 1.407 . S
C649 H656 0.930 . S
C650 C638 1.410 . S
C650 C651 1.345 . S
C650 H658 0.930 . S
C651 C649 1.407 . S
C651 C650 1.345 . S
C651 H653 0.930 . S
H652 C645 0.930 . S
H653 C651 0.930 . S
H654 C642 0.930 . S
H655 C643 0.931 1_545 S
H656 C649 0.930 . S
H657 C671 0.930 . S
H658 C650 0.930 . S
H659 C677 0.930 . S
H660 C668 0.930 . S
H661 C675 0.931 . S
H662 C639 0.929 . S
H663 C669 0.930 . S
H664 C702 0.930 . S
H665 C646 0.930 . S
H666 C701 0.929 . S
N667 Tb636 2.660 . S
N667 C668 1.305 . S
N667 C672 1.360 . S
C668 H660 0.930 . S
C668 N667 1.305 . S
C668 C671 1.407 . S
C669 H663 0.930 . S
C669 C670 1.410 . S
C669 C671 1.345 . S
C670 C669 1.410 . S
C670 C672 1.417 . S
C670 C702 1.432 . S
C671 H657 0.930 . S
C671 C668 1.407 . S
C671 C669 1.345 . S
C672 N667 1.360 . S
C672 C670 1.417 . S
C672 C676 1.432 . S
H673 C678 0.930 . S
N674 Tb636 2.600 . S
N674 C676 1.359 . S
N674 C677 1.327 . S
C675 H661 0.931 . S
C675 C677 1.392 . S
C675 C678 1.370 . S
C676 C672 1.432 . S
C676 N674 1.359 . S
C676 C679 1.414 . S
C677 H659 0.930 . S
C677 N674 1.327 . S
C677 C675 1.392 . S
C678 H673 0.930 . S
C678 C675 1.370 . S
C678 C679 1.385 . S
C679 C676 1.414 . S
C679 C678 1.385 . S
C679 C701 1.444 . S
O680 Tb636 2.546 . S
O680 C700 1.251 . S
O681 Tb636 2.610 . S
O681 Tb647 2.362 . S
O681 C692 1.283 . S
O682 Tb647 2.421 . S
O682 C699 1.262 . S
O683 Tb636 2.320 . S
O683 C699 1.260 . S
O684 Tb636 2.552 . S
O684 C692 1.243 . S
O685 Tb636 2.413 . S
O685 C700 1.256 . S
O686 Tb647 2.546 . S
O686 C711 1.251 . S
O687 Tb636 2.362 . S
O687 Tb647 2.610 . S
O687 C703 1.283 . S
O688 Tb636 2.421 . S
O688 C710 1.262 . S
O689 Tb647 2.320 . S
O689 C710 1.260 . S
O690 Tb647 2.552 . S
O690 C703 1.243 . S
O691 Tb647 2.413 . S
O691 C711 1.256 . S
C692 O681 1.283 . S
C692 O684 1.243 . S
C693 C695 1.382 . S
C693 C697 1.393 . S
C693 C700 1.500 . S
C694 C695 1.400 . S
C694 C696 1.384 . S
C695 C693 1.382 . S
C695 C694 1.400 . S
C695 H712 0.930 . S
C696 C694 1.384 . S
C696 C698 1.392 . S
C696 H713 0.931 . S
C697 C693 1.393 . S
C697 C698 1.401 . S
C697 H714 0.930 . S
C698 C696 1.392 . S
C698 C697 1.401 . S
C698 H715 0.930 . S
C699 O682 1.262 . S
C699 O683 1.260 . S
C700 Tb636 2.833 . S
C700 O680 1.251 . S
C700 O685 1.256 . S
C700 C693 1.500 . S
C701 H666 0.929 . S
C701 C679 1.444 . S
C701 C702 1.317 . S
C702 H664 0.930 . S
C702 C670 1.432 . S
C702 C701 1.317 . S
C703 O687 1.283 . S
C703 O690 1.243 . S
C704 C705 1.382 . S
C704 C708 1.393 . S
C704 C711 1.500 . S
C705 C704 1.382 . S
C705 C706 1.400 . S
C705 H716 0.930 . S
C706 C705 1.400 . S
C706 C707 1.384 . S
C707 C706 1.384 . S
C707 C709 1.392 . S
C707 H717 0.931 . S
C708 C704 1.393 . S
C708 C709 1.401 . S
C708 H718 0.930 . S
C709 C707 1.392 . S
C709 C708 1.401 . S
C709 H719 0.930 . S
C710 O688 1.262 . S
C710 O689 1.260 . S
C711 Tb647 2.833 . S
C711 O686 1.251 . S
C711 O691 1.256 . S
C711 C704 1.500 . S
H712 C695 0.930 . S
H713 C696 0.931 . S
H714 C697 0.930 . S
H715 C698 0.930 . S
H716 C705 0.930 . S
H717 C707 0.931 . S
H718 C708 0.930 . S
H719 C709 0.930 . S
Tb720 N751 2.660 . S
Tb720 N758 2.600 . S
Tb720 O764 2.546 . S
Tb720 O765 2.610 . S
Tb720 O767 2.320 . S
Tb720 O768 2.552 . S
Tb720 O769 2.413 . S
Tb720 O771 2.362 . S
Tb720 O772 2.421 . S
Tb720 C784 2.833 . S
C721 C724 1.432 . S
C721 C725 1.414 . S
C721 N728 1.359 . S
C722 C724 1.417 . S
C722 C726 1.432 . S
C722 C734 1.410 . S
C723 C725 1.444 . S
C723 C726 1.317 . S
C723 H746 0.929 . S
C724 C721 1.432 . S
C724 C722 1.417 . S
C724 N732 1.360 . S
C725 C721 1.414 . S
C725 C723 1.444 . S
C725 C730 1.385 . S
C726 C722 1.432 . S
C726 C723 1.317 . S
C726 H738 0.930 . S
C727 C729 1.392 . S
C727 C730 1.370 . S
C727 H739 0.931 . S
N728 C721 1.359 . S
N728 C729 1.327 . S
N728 Tb731 2.600 . S
C729 C727 1.392 . S
C729 N728 1.327 . S
C729 H736 0.930 . S
C730 C725 1.385 . S
C730 C727 1.370 . S
C730 H749 0.930 . S
Tb731 N728 2.600 . S
Tb731 N732 2.660 . S
Tb731 O765 2.362 . S
Tb731 O766 2.421 . S
Tb731 O770 2.546 . S
Tb731 O771 2.610 . S
Tb731 O773 2.320 . S
Tb731 O774 2.552 . S
Tb731 O775 2.413 . S
Tb731 C795 2.833 . S
N732 C724 1.360 . S
N732 Tb731 2.660 . S
N732 C733 1.305 . S
C733 N732 1.305 . S
C733 C735 1.407 . S
C733 H740 0.930 . S
C734 C722 1.410 . S
C734 C735 1.345 . S
C734 H742 0.930 . S
C735 C733 1.407 . S
C735 C734 1.345 . S
C735 H737 0.930 . S
H736 C729 0.930 . S
H737 C735 0.930 . S
H738 C726 0.930 . S
H739 C727 0.931 . S
H740 C733 0.930 . S
H741 C755 0.930 . S
H742 C734 0.930 . S
H743 C761 0.930 . S
H744 C752 0.930 . S
H745 C759 0.931 . S
H746 C723 0.929 . S
H747 C753 0.930 . S
H748 C786 0.930 . S
H749 C730 0.930 . S
H750 C785 0.929 . S
N751 Tb720 2.660 . S
N751 C752 1.305 . S
N751 C756 1.360 . S
C752 H744 0.930 . S
C752 N751 1.305 . S
C752 C755 1.407 . S
C753 H747 0.930 . S
C753 C754 1.410 . S
C753 C755 1.345 . S
C754 C753 1.410 . S
C754 C756 1.417 . S
C754 C786 1.432 . S
C755 H741 0.930 . S
C755 C752 1.407 . S
C755 C753 1.345 . S
C756 N751 1.360 . S
C756 C754 1.417 . S
C756 C760 1.432 . S
H757 C762 0.930 . S
N758 Tb720 2.600 . S
N758 C760 1.359 . S
N758 C761 1.327 . S
C759 H745 0.931 . S
C759 C761 1.392 . S
C759 C762 1.370 . S
C760 C756 1.432 . S
C760 N758 1.359 . S
C760 C763 1.414 . S
C761 H743 0.930 . S
C761 N758 1.327 . S
C761 C759 1.392 . S
C762 H757 0.930 . S
C762 C759 1.370 . S
C762 C763 1.385 . S
C763 C760 1.414 . S
C763 C762 1.385 . S
C763 C785 1.444 . S
O764 Tb720 2.546 . S
O764 C784 1.251 . S
O765 Tb720 2.610 . S
O765 Tb731 2.362 . S
O765 C776 1.283 . S
O766 Tb731 2.421 . S
O766 C783 1.262 . S
O767 Tb720 2.320 . S
O767 C783 1.260 . S
O768 Tb720 2.552 . S
O768 C776 1.243 . S
O769 Tb720 2.413 . S
O769 C784 1.256 . S
O770 Tb731 2.546 . S
O770 C795 1.251 . S
O771 Tb720 2.362 . S
O771 Tb731 2.610 . S
O771 C787 1.283 . S
O772 Tb720 2.421 . S
O772 C794 1.262 . S
O773 Tb731 2.320 . S
O773 C794 1.260 . S
O774 Tb731 2.552 . S
O774 C787 1.243 . S
O775 Tb731 2.413 . S
O775 C795 1.256 . S
C776 O765 1.283 . S
C776 O768 1.243 . S
C777 C779 1.382 . S
C777 C781 1.393 . S
C777 C784 1.500 . S
C778 C779 1.400 . S
C778 C780 1.384 . S
C779 C777 1.382 . S
C779 C778 1.400 . S
C779 H796 0.930 . S
C780 C778 1.384 . S
C780 C782 1.392 . S
C780 H797 0.931 . S
C781 C777 1.393 . S
C781 C782 1.401 . S
C781 H798 0.930 . S
C782 C780 1.392 . S
C782 C781 1.401 . S
C782 H799 0.930 . S
C783 O766 1.262 . S
C783 O767 1.260 . S
C784 Tb720 2.833 . S
C784 O764 1.251 . S
C784 O769 1.256 . S
C784 C777 1.500 . S
C785 H750 0.929 . S
C785 C763 1.444 . S
C785 C786 1.317 . S
C786 H748 0.930 . S
C786 C754 1.432 . S
C786 C785 1.317 . S
C787 O771 1.283 . S
C787 O774 1.243 . S
C788 C789 1.382 . S
C788 C792 1.393 . S
C788 C795 1.500 . S
C789 C788 1.382 . S
C789 C790 1.400 . S
C789 H800 0.930 . S
C790 C789 1.400 . S
C790 C791 1.384 . S
C791 C790 1.384 . S
C791 C793 1.392 . S
C791 H801 0.931 . S
C792 C788 1.393 . S
C792 C793 1.401 . S
C792 H802 0.930 . S
C793 C791 1.392 . S
C793 C792 1.401 . S
C793 H803 0.930 . S
C794 O772 1.262 . S
C794 O773 1.260 . S
C795 Tb731 2.833 . S
C795 O770 1.251 . S
C795 O775 1.256 . S
C795 C788 1.500 . S
H796 C779 0.930 . S
H797 C780 0.931 . S
H798 C781 0.930 . S
H799 C782 0.930 . S
H800 C789 0.930 . S
H801 C791 0.931 . S
H802 C792 0.930 . S
H803 C793 0.930 . S
Tb804 N835 2.660 . S
Tb804 N842 2.600 . S
Tb804 O848 2.546 . S
Tb804 O849 2.610 . S
Tb804 O851 2.320 . S
Tb804 O852 2.552 . S
Tb804 O853 2.413 . S
Tb804 O855 2.362 . S
Tb804 O856 2.421 . S
Tb804 C868 2.833 . S
C805 C808 1.432 . S
C805 C809 1.414 . S
C805 N812 1.359 . S
C806 C808 1.417 . S
C806 C810 1.432 . S
C806 C818 1.410 . S
C807 C809 1.444 . S
C807 C810 1.317 . S
C807 H830 0.929 . S
C808 C805 1.432 . S
C808 C806 1.417 . S
C808 N816 1.360 . S
C809 C805 1.414 . S
C809 C807 1.444 . S
C809 C814 1.385 . S
C810 C806 1.432 . S
C810 C807 1.317 . S
C810 H822 0.930 . S
C811 C813 1.392 . S
C811 C814 1.370 . S
C811 H823 0.931 . S
N812 C805 1.359 . S
N812 C813 1.327 . S
N812 Tb815 2.600 . S
C813 C811 1.392 . S
C813 N812 1.327 . S
C813 H820 0.930 . S
C814 C809 1.385 . S
C814 C811 1.370 . S
C814 H833 0.930 . S
Tb815 N812 2.600 . S
Tb815 N816 2.660 . S
Tb815 O849 2.362 . S
Tb815 O850 2.421 . S
Tb815 O854 2.546 . S
Tb815 O855 2.610 . S
Tb815 O857 2.320 . S
Tb815 O858 2.552 . S
Tb815 O859 2.413 . S
Tb815 C879 2.833 . S
N816 C808 1.360 . S
N816 Tb815 2.660 . S
N816 C817 1.305 . S
C817 N816 1.305 . S
C817 C819 1.407 . S
C817 H824 0.930 . S
C818 C806 1.410 . S
C818 C819 1.345 . S
C818 H826 0.930 . S
C819 C817 1.407 . S
C819 C818 1.345 . S
C819 H821 0.930 . S
H820 C813 0.930 . S
H821 C819 0.930 . S
H822 C810 0.930 . S
H823 C811 0.931 . S
H824 C817 0.930 . S
H825 C839 0.930 . S
H826 C818 0.930 . S
H827 C845 0.930 . S
H828 C836 0.930 . S
H829 C843 0.931 . S
H830 C807 0.929 . S
H831 C837 0.930 . S
H832 C870 0.930 . S
H833 C814 0.930 . S
H834 C869 0.929 . S
N835 Tb804 2.660 . S
N835 C836 1.305 . S
N835 C840 1.360 . S
C836 H828 0.930 . S
C836 N835 1.305 . S
C836 C839 1.407 . S
C837 H831 0.930 . S
C837 C838 1.410 . S
C837 C839 1.345 . S
C838 C837 1.410 . S
C838 C840 1.417 . S
C838 C870 1.432 . S
C839 H825 0.930 . S
C839 C836 1.407 . S
C839 C837 1.345 . S
C840 N835 1.360 . S
C840 C838 1.417 . S
C840 C844 1.432 . S
H841 C846 0.930 . S
N842 Tb804 2.600 . S
N842 C844 1.359 . S
N842 C845 1.327 . S
C843 H829 0.931 . S
C843 C845 1.392 . S
C843 C846 1.370 . S
C844 C840 1.432 . S
C844 N842 1.359 . S
C844 C847 1.414 . S
C845 H827 0.930 . S
C845 N842 1.327 . S
C845 C843 1.392 . S
C846 H841 0.930 . S
C846 C843 1.370 . S
C846 C847 1.385 . S
C847 C844 1.414 . S
C847 C846 1.385 . S
C847 C869 1.444 . S
O848 Tb804 2.546 . S
O848 C868 1.251 . S
O849 Tb804 2.610 . S
O849 Tb815 2.362 . S
O849 C860 1.283 . S
O850 Tb815 2.421 . S
O850 C867 1.262 . S
O851 Tb804 2.320 . S
O851 C867 1.260 . S
O852 Tb804 2.552 . S
O852 C860 1.243 . S
O853 Tb804 2.413 . S
O853 C868 1.256 . S
O854 Tb815 2.546 . S
O854 C879 1.251 . S
O855 Tb804 2.362 . S
O855 Tb815 2.610 . S
O855 C871 1.283 . S
O856 Tb804 2.421 . S
O856 C878 1.262 . S
O857 Tb815 2.320 . S
O857 C878 1.260 . S
O858 Tb815 2.552 . S
O858 C871 1.243 . S
O859 Tb815 2.413 . S
O859 C879 1.256 . S
C860 O849 1.283 . S
C860 O852 1.243 . S
C861 C863 1.382 . S
C861 C865 1.393 . S
C861 C868 1.500 . S
C862 C863 1.400 . S
C862 C864 1.384 . S
C863 C861 1.382 . S
C863 C862 1.400 . S
C863 H880 0.930 . S
C864 C862 1.384 . S
C864 C866 1.392 . S
C864 H881 0.931 . S
C865 C861 1.393 . S
C865 C866 1.401 . S
C865 H882 0.930 . S
C866 C864 1.392 . S
C866 C865 1.401 . S
C866 H883 0.930 . S
C867 O850 1.262 . S
C867 O851 1.260 . S
C868 Tb804 2.833 . S
C868 O848 1.251 . S
C868 O853 1.256 . S
C868 C861 1.500 . S
C869 H834 0.929 . S
C869 C847 1.444 . S
C869 C870 1.317 . S
C870 H832 0.930 . S
C870 C838 1.432 . S
C870 C869 1.317 . S
C871 O855 1.283 . S
C871 O858 1.243 . S
C872 C873 1.382 . S
C872 C876 1.393 . S
C872 C879 1.500 . S
C873 C872 1.382 . S
C873 C874 1.400 . S
C873 H884 0.930 . S
C874 C873 1.400 . S
C874 C875 1.384 . S
C875 C874 1.384 . S
C875 C877 1.392 . S
C875 H885 0.931 . S
C876 C872 1.393 . S
C876 C877 1.401 . S
C876 H886 0.930 . S
C877 C875 1.392 . S
C877 C876 1.401 . S
C877 H887 0.930 . S
C878 O856 1.262 . S
C878 O857 1.260 . S
C879 Tb815 2.833 . S
C879 O854 1.251 . S
C879 O859 1.256 . S
C879 C872 1.500 . S
H880 C863 0.930 . S
H881 C864 0.931 . S
H882 C865 0.930 . S
H883 C866 0.930 . S
H884 C873 0.930 . S
H885 C875 0.931 . S
H886 C876 0.930 . S
H887 C877 0.930 . S
Tb888 N919 2.660 . S
Tb888 N926 2.600 . S
Tb888 O932 2.546 . S
Tb888 O933 2.610 . S
Tb888 O935 2.320 . S
Tb888 O936 2.552 . S
Tb888 O937 2.413 . S
Tb888 O939 2.362 . S
Tb888 O940 2.421 . S
Tb888 C952 2.833 . S
C889 C892 1.432 . S
C889 C893 1.414 . S
C889 N896 1.359 . S
C890 C892 1.417 . S
C890 C894 1.432 . S
C890 C902 1.410 . S
C891 C893 1.444 . S
C891 C894 1.317 . S
C891 H914 0.929 . S
C892 C889 1.432 . S
C892 C890 1.417 . S
C892 N900 1.360 . S
C893 C889 1.414 . S
C893 C891 1.444 . S
C893 C898 1.385 . S
C894 C890 1.432 . S
C894 C891 1.317 . S
C894 H906 0.930 . S
C895 C897 1.392 . S
C895 C898 1.370 . S
C895 H907 0.931 . S
N896 C889 1.359 . S
N896 C897 1.327 . S
N896 Tb899 2.600 . S
C897 C895 1.392 . S
C897 N896 1.327 . S
C897 H904 0.930 . S
C898 C893 1.385 . S
C898 C895 1.370 . S
C898 H917 0.930 . S
Tb899 N896 2.600 . S
Tb899 N900 2.660 . S
Tb899 O933 2.362 . S
Tb899 O934 2.421 . S
Tb899 O938 2.546 . S
Tb899 O939 2.610 . S
Tb899 O941 2.320 . S
Tb899 O942 2.552 . S
Tb899 O943 2.413 . S
Tb899 C963 2.833 . S
N900 C892 1.360 . S
N900 Tb899 2.660 . S
N900 C901 1.305 . S
C901 N900 1.305 . S
C901 C903 1.407 . S
C901 H908 0.930 . S
C902 C890 1.410 . S
C902 C903 1.345 . S
C902 H910 0.930 . S
C903 C901 1.407 . S
C903 C902 1.345 . S
C903 H905 0.930 . S
H904 C897 0.930 . S
H905 C903 0.930 . S
H906 C894 0.930 . S
H907 C895 0.931 . S
H908 C901 0.930 . S
H909 C923 0.930 . S
H910 C902 0.930 . S
H911 C929 0.930 . S
H912 C920 0.930 . S
H913 C927 0.931 . S
H914 C891 0.929 . S
H915 C921 0.930 . S
H916 C954 0.930 . S
H917 C898 0.930 . S
H918 C953 0.929 . S
N919 Tb888 2.660 . S
N919 C920 1.305 . S
N919 C924 1.360 . S
C920 H912 0.930 . S
C920 N919 1.305 . S
C920 C923 1.407 1_655 S
C921 H915 0.930 . S
C921 C922 1.410 . S
C921 C923 1.345 . S
C922 C921 1.410 . S
C922 C924 1.417 1_455 S
C922 C954 1.432 . S
C923 H909 0.930 . S
C923 C920 1.407 1_455 S
C923 C921 1.345 . S
C924 N919 1.360 . S
C924 C922 1.417 1_655 S
C924 C928 1.432 . S
H925 C930 0.930 . S
N926 Tb888 2.600 . S
N926 C928 1.359 . S
N926 C929 1.327 . S
C927 H913 0.931 . S
C927 C929 1.392 . S
C927 C930 1.370 . S
C928 C924 1.432 . S
C928 N926 1.359 . S
C928 C931 1.414 . S
C929 H911 0.930 . S
C929 N926 1.327 . S
C929 C927 1.392 . S
C930 H925 0.930 . S
C930 C927 1.370 . S
C930 C931 1.385 . S
C931 C928 1.414 . S
C931 C930 1.385 . S
C931 C953 1.444 1_655 S
O932 Tb888 2.546 . S
O932 C952 1.251 . S
O933 Tb888 2.610 . S
O933 Tb899 2.362 . S
O933 C944 1.283 . S
O934 Tb899 2.421 . S
O934 C951 1.262 . S
O935 Tb888 2.320 . S
O935 C951 1.260 . S
O936 Tb888 2.552 . S
O936 C944 1.243 . S
O937 Tb888 2.413 . S
O937 C952 1.256 . S
O938 Tb899 2.546 . S
O938 C963 1.251 . S
O939 Tb888 2.362 . S
O939 Tb899 2.610 . S
O939 C955 1.283 . S
O940 Tb888 2.421 . S
O940 C962 1.262 . S
O941 Tb899 2.320 . S
O941 C962 1.260 . S
O942 Tb899 2.552 . S
O942 C955 1.243 . S
O943 Tb899 2.413 . S
O943 C963 1.256 . S
C944 O933 1.283 . S
C944 O936 1.243 . S
C945 C947 1.382 . S
C945 C949 1.393 . S
C945 C952 1.500 . S
C946 C947 1.400 . S
C946 C948 1.384 . S
C947 C945 1.382 . S
C947 C946 1.400 . S
C947 H964 0.930 . S
C948 C946 1.384 . S
C948 C950 1.392 . S
C948 H965 0.931 . S
C949 C945 1.393 . S
C949 C950 1.401 . S
C949 H966 0.930 . S
C950 C948 1.392 . S
C950 C949 1.401 . S
C950 H967 0.930 . S
C951 O934 1.262 . S
C951 O935 1.260 . S
C952 Tb888 2.833 . S
C952 O932 1.251 . S
C952 O937 1.256 . S
C952 C945 1.500 . S
C953 H918 0.929 . S
C953 C931 1.444 1_455 S
C953 C954 1.317 . S
C954 H916 0.930 . S
C954 C922 1.432 . S
C954 C953 1.317 . S
C955 O939 1.283 . S
C955 O942 1.243 . S
C956 C957 1.382 . S
C956 C960 1.393 . S
C956 C963 1.500 . S
C957 C956 1.382 . S
C957 C958 1.400 . S
C957 H968 0.930 . S
C958 C957 1.400 . S
C958 C959 1.384 . S
C959 C958 1.384 . S
C959 C961 1.392 . S
C959 H969 0.931 . S
C960 C956 1.393 . S
C960 C961 1.401 . S
C960 H970 0.930 . S
C961 C959 1.392 . S
C961 C960 1.401 . S
C961 H971 0.930 . S
C962 O940 1.262 . S
C962 O941 1.260 . S
C963 Tb899 2.833 . S
C963 O938 1.251 . S
C963 O943 1.256 . S
C963 C956 1.500 . S
H964 C947 0.930 . S
H965 C948 0.931 . S
H966 C949 0.930 . S
H967 C950 0.930 . S
H968 C957 0.930 . S
H969 C959 0.931 . S
H970 C960 0.930 . S
H971 C961 0.930 . S
C972 C973 1.387 . S
C972 H976 0.950 . S
C972 C981 1.390 . S
C973 C972 1.387 . S
C973 C975 1.387 . S
H974 C981 0.950 . S
C975 C973 1.387 . S
C975 C977 1.390 . S
C975 H979 0.950 . S
H976 C972 0.950 . S
C977 C975 1.390 . S
C977 C978 1.387 . S
C977 H980 0.950 . S
C978 C977 1.387 . S
C978 C981 1.387 . S
H979 C975 0.950 . S
H980 C977 0.950 . S
C981 C972 1.390 . S
C981 H974 0.950 . S
C981 C978 1.387 . S
C982 C983 1.387 . S
C982 H986 0.950 . S
C982 C991 1.390 . S
C983 C982 1.387 . S
C983 C985 1.387 . S
H984 C991 0.950 . S
C985 C983 1.387 . S
C985 C987 1.390 . S
C985 H989 0.950 . S
H986 C982 0.950 . S
C987 C985 1.390 . S
C987 C988 1.387 . S
C987 H990 0.950 . S
C988 C987 1.387 . S
C988 C991 1.387 . S
H989 C985 0.950 . S
H990 C987 0.950 . S
C991 C982 1.390 . S
C991 H984 0.950 . S
C991 C988 1.387 . S
C992 C993 1.387 . S
C992 H996 0.950 . S
C992 C1001 1.390 . S
C993 C992 1.387 . S
C993 C995 1.387 . S
H994 C1001 0.950 . S
C995 C993 1.387 . S
C995 C997 1.390 . S
C995 H999 0.950 . S
H996 C992 0.950 . S
C997 C995 1.390 . S
C997 C998 1.387 . S
C997 H1000 0.950 1_554 S
C998 C997 1.387 . S
C998 C1001 1.387 . S
H999 C995 0.950 . S
H1000 C997 0.950 1_556 S
C1001 C992 1.390 . S
C1001 H994 0.950 . S
C1001 C998 1.387 . S
C1002 C1003 1.387 . S
C1002 H1006 0.950 . S
C1002 C1011 1.390 . S
C1003 C1002 1.387 . S
C1003 C1005 1.387 . S
H1004 C1011 0.950 . S
C1005 C1003 1.387 . S
C1005 C1007 1.390 1_556 S
C1005 H1009 0.950 1_556 S
H1006 C1002 0.950 . S
C1007 C1005 1.390 1_554 S
C1007 C1008 1.387 1_554 S
C1007 H1010 0.950 . S
C1008 C1007 1.387 1_556 S
C1008 C1011 1.387 . S
H1009 C1005 0.950 1_554 S
H1010 C1007 0.950 . S
C1011 C1002 1.390 . S
C1011 H1004 0.950 . S
C1011 C1008 1.387 . S
C1012 C1013 1.387 . S
C1012 H1016 0.950 . S
C1012 C1021 1.390 . S
C1013 C1012 1.387 . S
C1013 C1015 1.387 . S
H1014 C1021 0.950 . S
C1015 C1013 1.387 . S
C1015 C1017 1.390 . S
C1015 H1019 0.950 . S
H1016 C1012 0.950 . S
C1017 C1015 1.390 . S
C1017 C1018 1.387 . S
C1017 H1020 0.950 . S
C1018 C1017 1.387 . S
C1018 C1021 1.387 . S
H1019 C1015 0.950 . S
H1020 C1017 0.950 . S
C1021 C1012 1.390 . S
C1021 H1014 0.950 . S
C1021 C1018 1.387 . S
C1022 C1023 1.387 . S
C1022 H1026 0.950 . S
C1022 C1031 1.390 . S
C1023 C1022 1.387 . S
C1023 C1025 1.387 . S
H1024 C1031 0.950 . S
C1025 C1023 1.387 . S
C1025 C1027 1.390 1_556 S
C1025 H1029 0.950 1_556 S
H1026 C1022 0.950 . S
C1027 C1025 1.390 1_554 S
C1027 C1028 1.387 1_554 S
C1027 H1030 0.950 . S
C1028 C1027 1.387 1_556 S
C1028 C1031 1.387 . S
H1029 C1025 0.950 1_554 S
H1030 C1027 0.950 . S
C1031 C1022 1.390 . S
C1031 H1024 0.950 . S
C1031 C1028 1.387 . S
C1032 C1033 1.387 . S
C1032 H1036 0.950 . S
C1032 C1041 1.390 . S
C1033 C1032 1.387 . S
C1033 C1035 1.364 1_556 S
H1034 C1041 0.950 . S
C1035 C1033 1.364 1_554 S
C1035 C1037 1.396 . S
C1035 H1039 0.968 . S
H1036 C1032 0.950 . S
C1037 C1035 1.396 . S
C1037 C1038 1.387 1_554 S
C1037 H1040 0.950 . S
C1038 C1037 1.387 1_556 S
C1038 C1041 1.387 . S
H1039 C1035 0.968 . S
H1040 C1037 0.950 . S
C1041 C1032 1.390 . S
C1041 H1034 0.950 . S
C1041 C1038 1.387 . S
C1042 C1043 1.387 . S
C1042 H1046 0.950 1_556 S
C1042 C1051 1.387 1_556 S
C1043 C1042 1.387 . S
C1043 C1045 1.387 . S
H1044 C1051 0.963 . S
C1045 C1043 1.387 . S
C1045 C1047 1.390 . S
C1045 H1049 0.950 . S
H1046 C1042 0.950 1_554 S
C1047 C1045 1.390 . S
C1047 C1048 1.387 . S
C1047 H1050 0.950 . S
C1048 C1047 1.387 . S
C1048 C1051 1.378 1_556 S
H1049 C1045 0.950 . S
H1050 C1047 0.950 . S
C1051 C1042 1.387 1_554 S
C1051 H1044 0.963 . S
C1051 C1048 1.378 1_554 S
C1052 C1053 1.387 . S
C1052 H1056 0.950 . S
C1052 C1061 1.390 . S
C1053 C1052 1.387 . S
C1053 C1055 1.369 1_556 S
H1054 C1061 0.950 . S
C1055 C1053 1.369 1_554 S
C1055 C1057 1.395 . S
C1055 H1059 0.965 . S
H1056 C1052 0.950 . S
C1057 C1055 1.395 . S
C1057 C1058 1.387 1_554 S
C1057 H1060 0.950 . S
C1058 C1057 1.387 1_556 S
C1058 C1061 1.387 . S
H1059 C1055 0.965 . S
H1060 C1057 0.950 . S
C1061 C1052 1.390 . S
C1061 H1054 0.950 . S
C1061 C1058 1.387 . S
C1062 C1063 1.387 . S
C1062 H1066 0.950 . S
C1062 C1071 1.390 . S
C1063 C1062 1.387 . S
C1063 C1065 1.387 . S
H1064 C1071 0.950 . S
C1065 C1063 1.387 . S
C1065 C1067 1.390 . S
C1065 H1069 0.950 . S
H1066 C1062 0.950 . S
C1067 C1065 1.390 . S
C1067 C1068 1.387 . S
C1067 H1070 0.950 1_554 S
C1068 C1067 1.387 . S
C1068 C1071 1.387 . S
H1069 C1065 0.950 . S
H1070 C1067 0.950 1_556 S
C1071 C1062 1.390 . S
C1071 H1064 0.950 . S
C1071 C1068 1.387 . S
C1072 C1073 1.387 . S
C1072 H1076 0.950 . S
C1072 C1081 1.390 . S
C1073 C1072 1.387 . S
C1073 C1075 1.387 . S
H1074 C1081 0.938 1_556 S
C1075 C1073 1.387 . S
C1075 C1077 1.390 . S
C1075 H1079 0.950 . S
H1076 C1072 0.950 . S
C1077 C1075 1.390 . S
C1077 C1078 1.387 . S
C1077 H1080 0.950 . S
C1078 C1077 1.387 . S
C1078 C1081 1.387 . S
H1079 C1075 0.950 . S
H1080 C1077 0.950 . S
C1081 C1072 1.390 . S
C1081 H1074 0.938 1_554 S
C1081 C1078 1.387 . S
C1082 C1083 1.387 . S
C1082 H1086 0.950 . S
C1082 C1091 1.390 . S
C1083 C1082 1.387 . S
C1083 C1085 1.387 . S
H1084 C1091 0.950 . S
C1085 C1083 1.387 . S
C1085 C1087 1.390 . S
C1085 H1089 0.925 1_554 S
H1086 C1082 0.950 . S
C1087 C1085 1.390 . S
C1087 C1088 1.387 . S
C1087 H1090 0.950 1_554 S
C1088 C1087 1.387 . S
C1088 C1091 1.387 . S
H1089 C1085 0.925 1_556 S
H1090 C1087 0.950 1_556 S
C1091 C1082 1.390 . S
C1091 H1084 0.950 . S
C1091 C1088 1.387 . S
C1092 C1093 1.387 . S
C1092 H1096 0.950 . S
C1092 C1101 1.390 1_655 S
C1093 C1092 1.387 . S
C1093 C1095 1.387 . S
H1094 C1101 0.950 . S
C1095 C1093 1.387 . S
C1095 C1097 1.390 1_655 S
C1095 H1099 0.950 . S
H1096 C1092 0.950 . S
C1097 C1095 1.390 1_455 S
C1097 C1098 1.387 . S
C1097 H1100 0.950 . S
C1098 C1097 1.387 . S
C1098 C1101 1.387 . S
H1099 C1095 0.950 . S
H1100 C1097 0.950 . S
C1101 C1092 1.390 1_455 S
C1101 H1094 0.950 . S
C1101 C1098 1.387 . S
C1102 C1103 1.387 . S
C1102 H1106 0.950 . S
C1102 C1111 1.390 . S
C1103 C1102 1.387 . S
C1103 C1105 1.387 . S
H1104 C1111 0.950 . S
C1105 C1103 1.387 . S
C1105 C1107 1.390 . S
C1105 H1109 0.950 . S
H1106 C1102 0.950 . S
C1107 C1105 1.390 . S
C1107 C1108 1.387 . S
C1107 H1110 0.950 . S
C1108 C1107 1.387 . S
C1108 C1111 1.387 . S
H1109 C1105 0.950 . S
H1110 C1107 0.950 . S
C1111 C1102 1.390 . S
C1111 H1104 0.950 . S
C1111 C1108 1.387 . S
C1112 C1113 1.387 . S
C1112 H1116 0.950 . S
C1112 C1121 1.390 1_545 S
C1113 C1112 1.387 . S
C1113 C1115 1.387 . S
H1114 C1121 0.950 . S
C1115 C1113 1.387 . S
C1115 C1117 1.390 . S
C1115 H1119 0.950 . S
H1116 C1112 0.950 . S
C1117 C1115 1.390 . S
C1117 C1118 1.387 1_545 S
C1117 H1120 0.950 . S
C1118 C1117 1.387 1_565 S
C1118 C1121 1.387 . S
H1119 C1115 0.950 . S
H1120 C1117 0.950 . S
C1121 C1112 1.390 1_565 S
C1121 H1114 0.950 . S
C1121 C1118 1.387 . S
C1122 C1123 1.387 . S
C1122 H1126 0.950 . S
C1122 C1131 1.390 . S
C1123 C1122 1.387 . S
C1123 C1125 1.387 . S
H1124 C1131 0.950 . S
C1125 C1123 1.387 . S
C1125 C1127 1.390 . S
C1125 H1129 0.950 . S
H1126 C1122 0.950 . S
C1127 C1125 1.390 . S
C1127 C1128 1.387 . S
C1127 H1130 0.950 . S
C1128 C1127 1.387 . S
C1128 C1131 1.387 . S
H1129 C1125 0.950 . S
H1130 C1127 0.950 . S
C1131 C1122 1.390 . S
C1131 H1124 0.950 . S
C1131 C1128 1.387 . S
C1132 C1133 1.387 . S
C1132 H1136 0.950 . S
C1132 C1141 1.390 . S
C1133 C1132 1.387 . S
C1133 C1135 1.387 . S
H1134 C1141 0.950 . S
C1135 C1133 1.387 . S
C1135 C1137 1.390 . S
C1135 H1139 0.950 . S
H1136 C1132 0.950 . S
C1137 C1135 1.390 . S
C1137 C1138 1.387 . S
C1137 H1140 0.950 . S
C1138 C1137 1.387 . S
C1138 C1141 1.387 . S
H1139 C1135 0.950 . S
H1140 C1137 0.950 . S
C1141 C1132 1.390 . S
C1141 H1134 0.950 . S
C1141 C1138 1.387 . S
C1142 C1143 1.387 . S
C1142 H1146 0.950 . S
C1142 C1151 1.390 . S
C1143 C1142 1.387 . S
C1143 C1145 1.387 . S
H1144 C1151 0.950 . S
C1145 C1143 1.387 . S
C1145 C1147 1.390 . S
C1145 H1149 0.950 . S
H1146 C1142 0.950 . S
C1147 C1145 1.390 . S
C1147 C1148 1.387 . S
C1147 H1150 0.950 . S
C1148 C1147 1.387 . S
C1148 C1151 1.387 . S
H1149 C1145 0.950 . S
H1150 C1147 0.950 . S
C1151 C1142 1.390 . S
C1151 H1144 0.950 . S
C1151 C1148 1.387 . S
C1152 C1153 1.387 . S
C1152 H1156 0.950 . S
C1152 C1161 1.390 . S
C1153 C1152 1.387 . S
C1153 C1155 1.387 . S
H1154 C1161 0.950 . S
C1155 C1153 1.387 . S
C1155 C1157 1.390 . S
C1155 H1159 0.950 . S
H1156 C1152 0.950 . S
C1157 C1155 1.390 . S
C1157 C1158 1.387 . S
C1157 H1160 0.950 . S
C1158 C1157 1.387 . S
C1158 C1161 1.387 . S
H1159 C1155 0.950 . S
H1160 C1157 0.950 . S
C1161 C1152 1.390 . S
C1161 H1154 0.950 . S
C1161 C1158 1.387 . S
C1162 C1163 1.387 . S
C1162 H1166 0.950 . S
C1162 C1171 1.390 . S
C1163 C1162 1.387 . S
C1163 C1165 1.387 . S
H1164 C1171 0.950 . S
C1165 C1163 1.387 . S
C1165 C1167 1.390 . S
C1165 H1169 0.950 . S
H1166 C1162 0.950 . S
C1167 C1165 1.390 . S
C1167 C1168 1.387 . S
C1167 H1170 0.950 . S
C1168 C1167 1.387 . S
C1168 C1171 1.387 . S
H1169 C1165 0.950 . S
H1170 C1167 0.950 . S
C1171 C1162 1.390 . S
C1171 H1164 0.950 . S
C1171 C1168 1.387 . S
C1172 C1173 1.387 . S
C1172 H1176 0.950 . S
C1172 C1181 1.390 . S
C1173 C1172 1.387 . S
C1173 C1175 1.387 . S
H1174 C1181 0.950 . S
C1175 C1173 1.387 . S
C1175 C1177 1.390 . S
C1175 H1179 0.950 . S
H1176 C1172 0.950 . S
C1177 C1175 1.390 . S
C1177 C1178 1.387 . S
C1177 H1180 0.950 . S
C1178 C1177 1.387 . S
C1178 C1181 1.387 . S
H1179 C1175 0.950 . S
H1180 C1177 0.950 . S
C1181 C1172 1.390 . S
C1181 H1174 0.950 . S
C1181 C1178 1.387 . S
C1182 C1183 1.387 . S
C1182 H1186 0.950 . S
C1182 C1191 1.390 . S
C1183 C1182 1.387 . S
C1183 C1185 1.387 . S
H1184 C1191 0.950 . S
C1185 C1183 1.387 . S
C1185 C1187 1.390 . S
C1185 H1189 0.950 . S
H1186 C1182 0.950 . S
C1187 C1185 1.390 . S
C1187 C1188 1.387 . S
C1187 H1190 0.950 . S
C1188 C1187 1.387 . S
C1188 C1191 1.387 . S
H1189 C1185 0.950 . S
H1190 C1187 0.950 . S
C1191 C1182 1.390 . S
C1191 H1184 0.950 . S
C1191 C1188 1.387 . S
C1192 C1193 1.387 . S
C1192 H1196 0.950 . S
C1192 C1201 1.390 . S
C1193 C1192 1.387 . S
C1193 C1195 1.387 . S
H1194 C1201 0.950 . S
C1195 C1193 1.387 . S
C1195 C1197 1.390 . S
C1195 H1199 0.950 . S
H1196 C1192 0.950 . S
C1197 C1195 1.390 . S
C1197 C1198 1.387 . S
C1197 H1200 0.950 . S
C1198 C1197 1.387 . S
C1198 C1201 1.387 . S
H1199 C1195 0.950 . S
H1200 C1197 0.950 . S
C1201 C1192 1.390 . S
C1201 H1194 0.950 . S
C1201 C1198 1.387 . S
C1202 C1203 1.387 . S
C1202 H1206 0.950 . S
C1202 C1211 1.390 . S
C1203 C1202 1.387 . S
C1203 C1205 1.387 . S
H1204 C1211 0.950 . S
C1205 C1203 1.387 . S
C1205 C1207 1.390 . S
C1205 H1209 0.950 . S
H1206 C1202 0.950 . S
C1207 C1205 1.390 . S
C1207 C1208 1.387 . S
C1207 H1210 0.950 . S
C1208 C1207 1.387 . S
C1208 C1211 1.387 . S
H1209 C1205 0.950 . S
H1210 C1207 0.950 . S
C1211 C1202 1.390 . S
C1211 H1204 0.950 . S
C1211 C1208 1.387 . S
C1212 C1213 1.387 . S
C1212 H1216 0.950 . S
C1212 C1221 1.390 . S
C1213 C1212 1.387 . S
C1213 C1215 1.387 . S
H1214 C1221 0.950 . S
C1215 C1213 1.387 . S
C1215 C1217 1.390 . S
C1215 H1219 0.950 . S
H1216 C1212 0.950 . S
C1217 C1215 1.390 . S
C1217 C1218 1.387 . S
C1217 H1220 0.950 . S
C1218 C1217 1.387 . S
C1218 C1221 1.387 . S
H1219 C1215 0.950 . S
H1220 C1217 0.950 . S
C1221 C1212 1.390 . S
C1221 H1214 0.950 . S
C1221 C1218 1.387 . S
C1222 C1223 1.387 . S
C1222 H1226 0.950 . S
C1222 C1231 1.390 . S
C1223 C1222 1.387 . S
C1223 C1225 1.387 . S
H1224 C1231 0.950 . S
C1225 C1223 1.387 . S
C1225 C1227 1.390 . S
C1225 H1229 0.950 . S
H1226 C1222 0.950 . S
C1227 C1225 1.390 . S
C1227 C1228 1.387 . S
C1227 H1230 0.950 . S
C1228 C1227 1.387 . S
C1228 C1231 1.387 . S
H1229 C1225 0.950 . S
H1230 C1227 0.950 . S
C1231 C1222 1.390 . S
C1231 H1224 0.950 . S
C1231 C1228 1.387 . S
C1232 C1233 1.387 . S
C1232 H1236 0.950 . S
C1232 C1241 1.390 . S
C1233 C1232 1.387 . S
C1233 C1235 1.387 . S
H1234 C1241 0.950 . S
C1235 C1233 1.387 . S
C1235 C1237 1.390 . S
C1235 H1239 0.950 . S
H1236 C1232 0.950 . S
C1237 C1235 1.390 . S
C1237 C1238 1.387 . S
C1237 H1240 0.950 . S
C1238 C1237 1.387 . S
C1238 C1241 1.387 . S
H1239 C1235 0.950 . S
H1240 C1237 0.950 . S
C1241 C1232 1.390 . S
C1241 H1234 0.950 . S
C1241 C1238 1.387 . S
C1242 C1243 1.387 . S
C1242 H1246 0.950 . S
C1242 C1251 1.390 1_565 S
C1243 C1242 1.387 . S
C1243 C1245 1.387 . S
H1244 C1251 0.950 . S
C1245 C1243 1.387 . S
C1245 C1247 1.390 1_565 S
C1245 H1249 0.950 . S
H1246 C1242 0.950 . S
C1247 C1245 1.390 1_545 S
C1247 C1248 1.387 . S
C1247 H1250 0.950 . S
C1248 C1247 1.387 . S
C1248 C1251 1.387 . S
H1249 C1245 0.950 . S
H1250 C1247 0.950 . S
C1251 C1242 1.390 1_545 S
C1251 H1244 0.950 . S
C1251 C1248 1.387 . S
C1252 C1253 1.387 . S
C1252 H1256 0.950 . S
C1252 C1261 1.390 1_455 S
C1253 C1252 1.387 . S
C1253 C1255 1.387 . S
H1254 C1261 0.950 . S
C1255 C1253 1.387 . S
C1255 C1257 1.390 . S
C1255 H1259 0.950 . S
H1256 C1252 0.950 . S
C1257 C1255 1.390 . S
C1257 C1258 1.387 1_455 S
C1257 H1260 0.950 . S
C1258 C1257 1.387 1_655 S
C1258 C1261 1.387 . S
H1259 C1255 0.950 . S
H1260 C1257 0.950 . S
C1261 C1252 1.390 1_655 S
C1261 H1254 0.950 . S
C1261 C1258 1.387 . S
C1262 C1263 1.387 . S
C1262 H1266 0.950 . S
C1262 C1271 1.390 . S
C1263 C1262 1.387 . S
C1263 C1265 1.387 . S
H1264 C1271 0.950 . S
C1265 C1263 1.387 . S
C1265 C1267 1.390 . S
C1265 H1269 0.950 . S
H1266 C1262 0.950 . S
C1267 C1265 1.390 . S
C1267 C1268 1.387 . S
C1267 H1270 0.950 . S
C1268 C1267 1.387 . S
C1268 C1271 1.387 . S
H1269 C1265 0.950 . S
H1270 C1267 0.950 . S
C1271 C1262 1.390 . S
C1271 H1264 0.950 . S
C1271 C1268 1.387 . S
C1272 C1273 1.387 . S
C1272 H1276 0.950 . S
C1272 C1281 1.390 . S
C1273 C1272 1.387 . S
C1273 C1275 1.387 . S
H1274 C1281 0.950 . S
C1275 C1273 1.387 . S
C1275 C1277 1.390 . S
C1275 H1279 0.950 . S
H1276 C1272 0.950 . S
C1277 C1275 1.390 . S
C1277 C1278 1.387 . S
C1277 H1280 0.950 . S
C1278 C1277 1.387 . S
C1278 C1281 1.387 . S
H1279 C1275 0.950 . S
H1280 C1277 0.950 . S
C1281 C1272 1.390 . S
C1281 H1274 0.950 . S
C1281 C1278 1.387 . S
C1282 C1283 1.387 . S
C1282 H1286 0.950 . S
C1282 C1291 1.390 . S
C1283 C1282 1.387 . S
C1283 C1285 1.387 . S
H1284 C1291 0.950 . S
C1285 C1283 1.387 . S
C1285 C1287 1.390 . S
C1285 H1289 0.950 . S
H1286 C1282 0.950 . S
C1287 C1285 1.390 . S
C1287 C1288 1.387 . S
C1287 H1290 0.950 . S
C1288 C1287 1.387 . S
C1288 C1291 1.387 . S
H1289 C1285 0.950 . S
H1290 C1287 0.950 . S
C1291 C1282 1.390 . S
C1291 H1284 0.950 . S
C1291 C1288 1.387 . S
C1292 C1293 1.387 . S
C1292 H1296 0.950 . S
C1292 C1301 1.390 . S
C1293 C1292 1.387 . S
C1293 C1295 1.387 . S
H1294 C1301 0.950 . S
C1295 C1293 1.387 . S
C1295 C1297 1.390 . S
C1295 H1299 0.950 . S
H1296 C1292 0.950 . S
C1297 C1295 1.390 . S
C1297 C1298 1.387 . S
C1297 H1300 0.950 . S
C1298 C1297 1.387 . S
C1298 C1301 1.387 . S
H1299 C1295 0.950 . S
H1300 C1297 0.950 . S
C1301 C1292 1.390 . S
C1301 H1294 0.950 . S
C1301 C1298 1.387 . S
C1302 C1303 1.387 . S
C1302 H1306 0.950 . S
C1302 C1311 1.390 . S
C1303 C1302 1.387 . S
C1303 C1305 1.387 . S
H1304 C1311 0.950 . S
C1305 C1303 1.387 . S
C1305 C1307 1.390 . S
C1305 H1309 0.950 . S
H1306 C1302 0.950 . S
C1307 C1305 1.390 . S
C1307 C1308 1.387 . S
C1307 H1310 0.950 . S
C1308 C1307 1.387 . S
C1308 C1311 1.387 . S
H1309 C1305 0.950 . S
H1310 C1307 0.950 . S
C1311 C1302 1.390 . S
C1311 H1304 0.950 . S
C1311 C1308 1.387 . S
C1312 C1313 1.387 . S
C1312 H1316 0.950 . S
C1312 C1321 1.390 . S
C1313 C1312 1.387 . S
C1313 C1315 1.387 . S
H1314 C1321 0.950 . S
C1315 C1313 1.387 . S
C1315 C1317 1.390 . S
C1315 H1319 0.950 . S
H1316 C1312 0.950 . S
C1317 C1315 1.390 . S
C1317 C1318 1.387 . S
C1317 H1320 0.950 . S
C1318 C1317 1.387 . S
C1318 C1321 1.387 . S
H1319 C1315 0.950 . S
H1320 C1317 0.950 . S
C1321 C1312 1.390 . S
C1321 H1314 0.950 . S
C1321 C1318 1.387 . S
C1322 C1323 1.387 . S
C1322 H1326 0.950 . S
C1322 C1331 1.390 . S
C1323 C1322 1.387 . S
C1323 C1325 1.387 . S
H1324 C1331 0.950 . S
C1325 C1323 1.387 . S
C1325 C1327 1.390 . S
C1325 H1329 0.950 . S
H1326 C1322 0.950 . S
C1327 C1325 1.390 . S
C1327 C1328 1.387 . S
C1327 H1330 0.950 . S
C1328 C1327 1.387 . S
C1328 C1331 1.387 . S
H1329 C1325 0.950 . S
H1330 C1327 0.950 . S
C1331 C1322 1.390 . S
C1331 H1324 0.950 . S
C1331 C1328 1.387 . S
C1332 C1333 1.387 . S
C1332 H1336 0.950 . S
C1332 C1341 1.390 . S
C1333 C1332 1.387 . S
C1333 C1335 1.387 . S
H1334 C1341 0.950 . S
C1335 C1333 1.387 . S
C1335 C1337 1.390 . S
C1335 H1339 0.950 . S
H1336 C1332 0.950 . S
C1337 C1335 1.390 . S
C1337 C1338 1.387 . S
C1337 H1340 0.950 . S
C1338 C1337 1.387 . S
C1338 C1341 1.387 . S
H1339 C1335 0.950 . S
H1340 C1337 0.950 . S
C1341 C1332 1.390 . S
C1341 H1334 0.950 . S
C1341 C1338 1.387 . S
C1342 C1343 1.387 . S
C1342 H1346 0.950 . S
C1342 C1351 1.390 . S
C1343 C1342 1.387 . S
C1343 C1345 1.387 . S
H1344 C1351 0.950 . S
C1345 C1343 1.387 . S
C1345 C1347 1.390 . S
C1345 H1349 0.950 . S
H1346 C1342 0.950 . S
C1347 C1345 1.390 . S
C1347 C1348 1.387 . S
C1347 H1350 0.950 . S
C1348 C1347 1.387 . S
C1348 C1351 1.387 . S
H1349 C1345 0.950 . S
H1350 C1347 0.950 . S
C1351 C1342 1.390 . S
C1351 H1344 0.950 . S
C1351 C1348 1.387 . S
C1352 C1353 1.387 . S
C1352 H1356 0.950 . S
C1352 C1361 1.390 . S
C1353 C1352 1.387 . S
C1353 C1355 1.387 . S
H1354 C1361 0.950 . S
C1355 C1353 1.387 . S
C1355 C1357 1.390 . S
C1355 H1359 0.950 . S
H1356 C1352 0.950 . S
C1357 C1355 1.390 . S
C1357 C1358 1.387 . S
C1357 H1360 0.950 . S
C1358 C1357 1.387 . S
C1358 C1361 1.387 . S
H1359 C1355 0.950 . S
H1360 C1357 0.950 . S
C1361 C1352 1.390 . S
C1361 H1354 0.950 . S
C1361 C1358 1.387 . S
C1362 C1363 1.387 . S
C1362 H1366 0.950 . S
C1362 C1371 1.390 . S
C1363 C1362 1.387 . S
C1363 C1365 1.387 . S
H1364 C1371 0.950 . S
C1365 C1363 1.387 . S
C1365 C1367 1.390 . S
C1365 H1369 0.950 . S
H1366 C1362 0.950 . S
C1367 C1365 1.390 . S
C1367 C1368 1.387 . S
C1367 H1370 0.950 . S
C1368 C1367 1.387 . S
C1368 C1371 1.387 . S
H1369 C1365 0.950 . S
H1370 C1367 0.950 . S
C1371 C1362 1.390 . S
C1371 H1364 0.950 . S
C1371 C1368 1.387 . S
C1372 C1373 1.387 . S
C1372 H1376 0.950 . S
C1372 C1381 1.390 . S
C1373 C1372 1.387 . S
C1373 C1375 1.387 . S
H1374 C1381 0.950 . S
C1375 C1373 1.387 . S
C1375 C1377 1.390 . S
C1375 H1379 0.950 . S
H1376 C1372 0.950 . S
C1377 C1375 1.390 . S
C1377 C1378 1.387 . S
C1377 H1380 0.950 . S
C1378 C1377 1.387 . S
C1378 C1381 1.387 . S
H1379 C1375 0.950 . S
H1380 C1377 0.950 . S
C1381 C1372 1.390 . S
C1381 H1374 0.950 . S
C1381 C1378 1.387 . S
C1382 C1383 1.387 . S
C1382 H1386 0.950 . S
C1382 C1391 1.390 . S
C1383 C1382 1.387 . S
C1383 C1385 1.387 . S
H1384 C1391 0.950 . S
C1385 C1383 1.387 . S
C1385 C1387 1.390 . S
C1385 H1389 0.950 . S
H1386 C1382 0.950 . S
C1387 C1385 1.390 . S
C1387 C1388 1.387 . S
C1387 H1390 0.950 . S
C1388 C1387 1.387 . S
C1388 C1391 1.387 . S
H1389 C1385 0.950 . S
H1390 C1387 0.950 . S
C1391 C1382 1.390 . S
C1391 H1384 0.950 . S
C1391 C1388 1.387 . S
C1392 C1393 1.387 . S
C1392 H1396 0.950 . S
C1392 C1401 1.390 . S
C1393 C1392 1.387 . S
C1393 C1395 1.387 . S
H1394 C1401 0.950 . S
C1395 C1393 1.387 . S
C1395 C1397 1.390 . S
C1395 H1399 0.950 . S
H1396 C1392 0.950 . S
C1397 C1395 1.390 . S
C1397 C1398 1.387 . S
C1397 H1400 0.950 . S
C1398 C1397 1.387 . S
C1398 C1401 1.387 . S
H1399 C1395 0.950 . S
H1400 C1397 0.950 . S
C1401 C1392 1.390 . S
C1401 H1394 0.950 . S
C1401 C1398 1.387 . S
C1402 C1403 1.387 . S
C1402 H1406 0.950 . S
C1402 C1411 1.390 . S
C1403 C1402 1.387 . S
C1403 C1405 1.387 . S
H1404 C1411 0.950 . S
C1405 C1403 1.387 . S
C1405 C1407 1.390 . S
C1405 H1409 0.950 . S
H1406 C1402 0.950 . S
C1407 C1405 1.390 . S
C1407 C1408 1.387 . S
C1407 H1410 0.950 . S
C1408 C1407 1.387 . S
C1408 C1411 1.387 . S
H1409 C1405 0.950 . S
H1410 C1407 0.950 . S
C1411 C1402 1.390 . S
C1411 H1404 0.950 . S
C1411 C1408 1.387 . S
C1412 C1413 1.387 . S
C1412 H1416 0.950 . S
C1412 C1421 1.390 . S
C1413 C1412 1.387 . S
C1413 C1415 1.387 . S
H1414 C1421 0.950 . S
C1415 C1413 1.387 . S
C1415 C1417 1.390 . S
C1415 H1419 0.950 . S
H1416 C1412 0.950 . S
C1417 C1415 1.390 . S
C1417 C1418 1.387 . S
C1417 H1420 0.950 . S
C1418 C1417 1.387 . S
C1418 C1421 1.387 . S
H1419 C1415 0.950 . S
H1420 C1417 0.950 . S
C1421 C1412 1.390 . S
C1421 H1414 0.950 . S
C1421 C1418 1.387 . S
C1422 C1423 1.387 . S
C1422 H1426 0.950 . S
C1422 C1431 1.390 . S
C1423 C1422 1.387 . S
C1423 C1425 1.387 . S
H1424 C1431 0.950 . S
C1425 C1423 1.387 . S
C1425 C1427 1.390 . S
C1425 H1429 0.950 . S
H1426 C1422 0.950 . S
C1427 C1425 1.390 . S
C1427 C1428 1.387 . S
C1427 H1430 0.950 . S
C1428 C1427 1.387 . S
C1428 C1431 1.387 . S
H1429 C1425 0.950 . S
H1430 C1427 0.950 . S
C1431 C1422 1.390 . S
C1431 H1424 0.950 . S
C1431 C1428 1.387 . S
C1432 C1433 1.387 . S
C1432 H1436 0.950 . S
C1432 C1441 1.390 . S
C1433 C1432 1.387 . S
C1433 C1435 1.387 . S
H1434 C1441 0.950 . S
C1435 C1433 1.387 . S
C1435 C1437 1.390 . S
C1435 H1439 0.950 . S
H1436 C1432 0.950 . S
C1437 C1435 1.390 . S
C1437 C1438 1.387 . S
C1437 H1440 0.950 . S
C1438 C1437 1.387 . S
C1438 C1441 1.387 . S
H1439 C1435 0.950 . S
H1440 C1437 0.950 . S
C1441 C1432 1.390 . S
C1441 H1434 0.950 . S
C1441 C1438 1.387 . S
C1442 C1443 1.387 . S
C1442 H1446 0.950 . S
C1442 C1451 1.390 . S
C1443 C1442 1.387 . S
C1443 C1445 1.387 . S
H1444 C1451 0.950 . S
C1445 C1443 1.387 . S
C1445 C1447 1.390 . S
C1445 H1449 0.950 . S
H1446 C1442 0.950 . S
C1447 C1445 1.390 . S
C1447 C1448 1.387 . S
C1447 H1450 0.950 . S
C1448 C1447 1.387 . S
C1448 C1451 1.387 . S
H1449 C1445 0.950 . S
H1450 C1447 0.950 . S
C1451 C1442 1.390 . S
C1451 H1444 0.950 . S
C1451 C1448 1.387 . S
C1452 C1453 1.387 . S
C1452 H1456 0.950 . S
C1452 C1461 1.390 . S
C1453 C1452 1.387 . S
C1453 C1455 1.387 . S
H1454 C1461 0.950 . S
C1455 C1453 1.387 . S
C1455 C1457 1.390 . S
C1455 H1459 0.950 . S
H1456 C1452 0.950 . S
C1457 C1455 1.390 . S
C1457 C1458 1.387 . S
C1457 H1460 0.950 . S
C1458 C1457 1.387 . S
C1458 C1461 1.387 . S
H1459 C1455 0.950 . S
H1460 C1457 0.950 . S
C1461 C1452 1.390 . S
C1461 H1454 0.950 . S
C1461 C1458 1.387 . S
C1462 C1463 1.387 . S
C1462 H1466 0.950 . S
C1462 C1471 1.390 . S
C1463 C1462 1.387 . S
C1463 C1465 1.387 . S
H1464 C1471 0.950 . S
C1465 C1463 1.387 . S
C1465 C1467 1.390 . S
C1465 H1469 0.950 . S
H1466 C1462 0.950 . S
C1467 C1465 1.390 . S
C1467 C1468 1.387 . S
C1467 H1470 0.950 . S
C1468 C1467 1.387 . S
C1468 C1471 1.387 . S
H1469 C1465 0.950 . S
H1470 C1467 0.950 . S
C1471 C1462 1.390 . S
C1471 H1464 0.950 . S
C1471 C1468 1.387 . S
C1472 C1473 1.387 . S
C1472 H1476 0.950 . S
C1472 C1481 1.390 . S
C1473 C1472 1.387 . S
C1473 C1475 1.387 . S
H1474 C1481 0.950 . S
C1475 C1473 1.387 . S
C1475 C1477 1.390 . S
C1475 H1479 0.950 . S
H1476 C1472 0.950 . S
C1477 C1475 1.390 . S
C1477 C1478 1.387 . S
C1477 H1480 0.950 . S
C1478 C1477 1.387 . S
C1478 C1481 1.387 . S
H1479 C1475 0.950 . S
H1480 C1477 0.950 . S
C1481 C1472 1.390 . S
C1481 H1474 0.950 . S
C1481 C1478 1.387 . S
C1482 C1483 1.387 . S
C1482 H1486 0.950 . S
C1482 C1491 1.390 . S
C1483 C1482 1.387 . S
C1483 C1485 1.387 . S
H1484 C1491 0.950 . S
C1485 C1483 1.387 . S
C1485 C1487 1.390 . S
C1485 H1489 0.950 . S
H1486 C1482 0.950 . S
C1487 C1485 1.390 . S
C1487 C1488 1.387 . S
C1487 H1490 0.950 . S
C1488 C1487 1.387 . S
C1488 C1491 1.387 . S
H1489 C1485 0.950 . S
H1490 C1487 0.950 . S
C1491 C1482 1.390 . S
C1491 H1484 0.950 . S
C1491 C1488 1.387 . S
C1492 C1493 1.387 . S
C1492 H1496 0.950 . S
C1492 C1501 1.390 . S
C1493 C1492 1.387 . S
C1493 C1495 1.387 . S
H1494 C1501 0.950 . S
C1495 C1493 1.387 . S
C1495 C1497 1.390 . S
C1495 H1499 0.950 . S
H1496 C1492 0.950 . S
C1497 C1495 1.390 . S
C1497 C1498 1.387 . S
C1497 H1500 0.950 . S
C1498 C1497 1.387 . S
C1498 C1501 1.387 . S
H1499 C1495 0.950 . S
H1500 C1497 0.950 . S
C1501 C1492 1.390 . S
C1501 H1494 0.950 . S
C1501 C1498 1.387 . S
C1502 C1503 1.387 . S
C1502 H1506 0.950 . S
C1502 C1511 1.390 . S
C1503 C1502 1.387 . S
C1503 C1505 1.387 . S
H1504 C1511 0.950 . S
C1505 C1503 1.387 . S
C1505 C1507 1.390 . S
C1505 H1509 0.950 . S
H1506 C1502 0.950 . S
C1507 C1505 1.390 . S
C1507 C1508 1.387 . S
C1507 H1510 0.950 . S
C1508 C1507 1.387 . S
C1508 C1511 1.387 . S
H1509 C1505 0.950 . S
H1510 C1507 0.950 . S
C1511 C1502 1.390 . S
C1511 H1504 0.950 . S
C1511 C1508 1.387 . S
C973 C162 1.474 . S
C978 C283 1.418 . S
C983 C174 1.499 . S
C988 C367 1.449 . S
C993 C150 1.470 . S
C998 C447 1.471 . S
C1003 C138 1.459 . S
C1008 C363 1.464 . S
C1018 C451 1.408 . S
C1013 C114 1.466 . S
C1023 C126 1.438 . S
C1028 C279 1.438 . S
C1038 C272 1.460 . S
C1033 C136 1.508 . S
C1048 C356 1.486 . S
C1043 C112 1.528 . S
C1053 C124 1.520 . S
C1058 C458 1.481 . S
C1063 C160 1.499 . S
C1068 C374 1.459 . S
C1073 C172 1.488 . S
C1078 C440 1.439 . S
C1088 C290 1.440 . S
C1083 C148 1.481 . S
C1098 C535 1.417 . S
C1093 C18 1.474 . S
C1103 C30 1.499 . S
C1108 C619 1.446 . S
C1113 C6 1.470 . S
C1118 C699 1.471 . S
C1123 C210 1.460 . S
C1128 C615 1.464 . S
C1133 C186 1.466 . S
C1138 C703 1.405 . S
C1143 C198 1.438 . S
C1148 C531 1.438 . S
C1153 C208 1.509 . S
C1158 C524 1.460 . S
C1163 C184 1.530 . S
C1168 C608 1.483 . S
C1178 C710 1.484 . S
C1173 C196 1.522 . S
C1183 C16 1.499 1_565 S
C1188 C626 1.459 . S
C1198 C692 1.439 . S
C1193 C28 1.488 1_455 S
C1203 C4 1.481 . S
C1208 C542 1.440 . S
C1218 C787 1.415 . S
C1213 C90 1.475 . S
C1223 C102 1.499 . S
C1228 C871 1.449 . S
C1238 C951 1.471 . S
C1233 C78 1.470 . S
C1248 C867 1.463 . S
C1243 C66 1.460 . S
C1258 C955 1.408 . S
C1253 C42 1.466 . S
C1263 C54 1.438 . S
C1268 C783 1.438 . S
C1273 C64 1.508 1_655 S
C1278 C776 1.462 . S
C1283 C40 1.529 . S
C1288 C860 1.483 . S
C1298 C962 1.484 . S
C1293 C52 1.522 1_545 S
C1303 C88 1.498 . S
C1308 C878 1.461 . S
C1313 C100 1.489 . S
C1318 C944 1.436 . S
C1323 C76 1.482 . S
C1328 C794 1.443 . S
C1333 C189 1.583 . S
C1338 C286 1.478 . S
C1348 C370 1.485 . S
C1343 C201 1.627 . S
C1353 C213 1.580 . S
C1358 C442 1.385 . S
C1363 C81 1.590 . S
C1368 C358 1.382 . S
C1373 C93 1.590 . S
C1378 C454 1.460 . S
C1388 C274 1.378 . S
C1383 C105 1.549 . S
C1393 C45 1.583 . S
C1398 C538 1.476 . S
C1403 C57 1.625 . S
C1408 C622 1.486 . S
C1413 C69 1.580 . S
C1418 C694 1.385 . S
C1423 C153 1.591 . S
C1428 C610 1.379 . S
C1438 C706 1.461 . S
C1433 C165 1.591 . S
C1443 C177 1.549 . S
C1448 C526 1.379 . S
C1453 C117 1.582 . S
C1458 C790 1.478 . S
C1463 C129 1.625 . S
C1468 C874 1.486 . S
C1478 C946 1.389 . S
C1473 C141 1.579 . S
C1483 C9 1.590 . S
C1488 C862 1.382 . S
C1493 C21 1.591 . S
C1498 C958 1.463 . S
C1503 C33 1.548 . S
C1508 C778 1.375 . S
