# Generated by pormake.
# Topology dag, (6,3)-cn, num edge types: 1
# Building blocks:
#     Node 0, Type 0, BuildingBlock: OJICUG_clean_sbu_0, # of connection points: 6
#     Node 1, Type 0, BuildingBlock: OJICUG_clean_sbu_0, # of connection points: 6
#     Node 2, Type 0, BuildingBlock: OJICUG_clean_sbu_0, # of connection points: 6
#     Node 3, Type 0, BuildingBlock: OJICUG_clean_sbu_0, # of connection points: 6
#     Node 4, Type 1, BuildingBlock: QEWDON_clean_linker_0, # of connection points: 3
#     Node 5, Type 1, BuildingBlock: QEWDON_clean_linker_0, # of connection points: 3
#     Node 6, Type 1, BuildingBlock: QEWDON_clean_linker_0, # of connection points: 3
#     Node 7, Type 1, BuildingBlock: QEWDON_clean_linker_0, # of connection points: 3
#     Node 8, Type 1, BuildingBlock: QEWDON_clean_linker_0, # of connection points: 3
#     Node 9, Type 1, BuildingBlock: QEWDON_clean_linker_0, # of connection points: 3
#     Node 10, Type 1, BuildingBlock: QEWDON_clean_linker_0, # of connection points: 3
#     Node 11, Type 1, BuildingBlock: QEWDON_clean_linker_0, # of connection points: 3
#     Edge 12, Type (0, 1), BuildingBlock: CIFDUS_clean_linker_0, # of connection points: 2
#     Edge 13, Type (0, 1), BuildingBlock: CIFDUS_clean_linker_0, # of connection points: 2
#     Edge 14, Type (0, 1), BuildingBlock: CIFDUS_clean_linker_0, # of connection points: 2
#     Edge 15, Type (0, 1), BuildingBlock: CIFDUS_clean_linker_0, # of connection points: 2
#     Edge 16, Type (0, 1), BuildingBlock: CIFDUS_clean_linker_0, # of connection points: 2
#     Edge 17, Type (0, 1), BuildingBlock: CIFDUS_clean_linker_0, # of connection points: 2
#     Edge 18, Type (0, 1), BuildingBlock: CIFDUS_clean_linker_0, # of connection points: 2
#     Edge 19, Type (0, 1), BuildingBlock: CIFDUS_clean_linker_0, # of connection points: 2
#     Edge 20, Type (0, 1), BuildingBlock: CIFDUS_clean_linker_0, # of connection points: 2
#     Edge 21, Type (0, 1), BuildingBlock: CIFDUS_clean_linker_0, # of connection points: 2
#     Edge 22, Type (0, 1), BuildingBlock: CIFDUS_clean_linker_0, # of connection points: 2
#     Edge 23, Type (0, 1), BuildingBlock: CIFDUS_clean_linker_0, # of connection points: 2
#     Edge 24, Type (0, 1), BuildingBlock: CIFDUS_clean_linker_0, # of connection points: 2
#     Edge 25, Type (0, 1), BuildingBlock: CIFDUS_clean_linker_0, # of connection points: 2
#     Edge 26, Type (0, 1), BuildingBlock: CIFDUS_clean_linker_0, # of connection points: 2
#     Edge 27, Type (0, 1), BuildingBlock: CIFDUS_clean_linker_0, # of connection points: 2
#     Edge 28, Type (0, 1), BuildingBlock: CIFDUS_clean_linker_0, # of connection points: 2
#     Edge 29, Type (0, 1), BuildingBlock: CIFDUS_clean_linker_0, # of connection points: 2
#     Edge 30, Type (0, 1), BuildingBlock: CIFDUS_clean_linker_0, # of connection points: 2
#     Edge 31, Type (0, 1), BuildingBlock: CIFDUS_clean_linker_0, # of connection points: 2
#     Edge 32, Type (0, 1), BuildingBlock: CIFDUS_clean_linker_0, # of connection points: 2
#     Edge 33, Type (0, 1), BuildingBlock: CIFDUS_clean_linker_0, # of connection points: 2
#     Edge 34, Type (0, 1), BuildingBlock: CIFDUS_clean_linker_0, # of connection points: 2
#     Edge 35, Type (0, 1), BuildingBlock: CIFDUS_clean_linker_0, # of connection points: 2
# Relax obj value: 0.045
# Max RMSD: 0.073
# Mean RMSD: 0.067
data_MOF--net-dag--node1-OJICUG_clean_sbu_0--node2-QEWDON_clean_linker_0--edge1-CIFDUS_clean_linker_0
_symmetry_space_group_name_H-M    P1
_symmetry_Int_Tables_number       1
_symmetry_cell_setting            triclinic
loop_
_symmetry_equiv_pos_as_xyz
'x, y, z'
_cell_length_a     35.157805
_cell_length_b     35.117536
_cell_length_c     36.901893
_cell_angle_alpha  90.251797
_cell_angle_beta   89.846281
_cell_angle_gamma 90.026247
loop_
_atom_site_label
_atom_site_type_symbol
_atom_site_fract_x
_atom_site_fract_y
_atom_site_fract_z
_atom_type_partial_charge
Sc0 Sc 0.09185 0.87325 0.0312 0.0
Sc1 Sc 0.13108 0.78263 0.0176 0.0
Sc2 Sc 0.19086 0.86435 0.02248 0.0
O3 O 0.13805 0.84008 0.02341 0.0
C4 C 0.14253 0.92485 0.97832 0.0
C5 C 0.0642 0.81471 0.96955 0.0
C6 C 0.20148 0.79791 0.96386 0.0
C7 C 0.06716 0.80144 0.07691 0.0
C8 C 0.15021 0.91303 0.08503 0.0
C9 C 0.20054 0.79051 0.07256 0.0
O10 O 0.1114 0.91469 0.993 0.0
O11 O 0.08964 0.7896 0.97497 0.0
O12 O 0.20992 0.83026 0.97717 0.0
O13 O 0.06801 0.83689 0.07117 0.0
O14 O 0.17987 0.90219 0.06811 0.0
O15 O 0.17173 0.77266 0.0602 0.0
O16 O 0.11687 0.90402 0.07524 0.0
O17 O 0.08617 0.77766 0.05816 0.0
O18 O 0.21153 0.82273 0.06059 0.0
O19 O 0.06097 0.84501 0.98838 0.0
O20 O 0.17419 0.90858 0.98476 0.0
O21 O 0.17439 0.77769 0.97611 0.0
Sc22 Sc 0.70793 0.62321 0.49115 0.0
Sc23 Sc 0.64149 0.69868 0.50295 0.0
Sc24 Sc 0.61264 0.60313 0.51038 0.0
O25 O 0.65408 0.64182 0.50153 0.0
C26 C 0.66228 0.55847 0.45085 0.0
C27 C 0.70085 0.69332 0.4369 0.0
C28 C 0.5731 0.66213 0.45731 0.0
C29 C 0.72128 0.69528 0.54376 0.0
C30 C 0.68027 0.5691 0.55619 0.0
C31 C 0.5851 0.66958 0.5641 0.0
O32 O 0.69116 0.58003 0.45247 0.0
O33 O 0.67533 0.71018 0.45542 0.0
O34 O 0.57799 0.62843 0.46906 0.0
O35 O 0.73136 0.6644 0.52828 0.0
O36 O 0.64512 0.57621 0.55187 0.0
O37 O 0.60496 0.69596 0.55019 0.0
O38 O 0.70623 0.58205 0.53532 0.0
O39 O 0.68919 0.71108 0.53818 0.0
O40 O 0.58511 0.63579 0.55199 0.0
O41 O 0.71485 0.66131 0.44578 0.0
O42 O 0.63333 0.56286 0.47099 0.0
O43 O 0.59251 0.69076 0.46798 0.0
Sc44 Sc 0.8714 0.20983 0.98857 0.0
Sc45 Sc 0.80877 0.13055 0.99242 0.0
Sc46 Sc 0.90617 0.11775 0.97575 0.0
O47 O 0.86202 0.15264 0.98608 0.0
C48 C 0.93157 0.18662 0.92722 0.0
C49 C 0.79906 0.20112 0.93769 0.0
C50 C 0.84167 0.07799 0.92878 0.0
C51 C 0.8035 0.20095 0.04647 0.0
C52 C 0.93984 0.17765 0.0337 0.0
C53 C 0.85885 0.06993 0.03477 0.0
O54 O 0.91586 0.21128 0.94757 0.0
O55 O 0.78693 0.1714 0.95391 0.0
O56 O 0.87614 0.08586 0.93544 0.0
O57 O 0.82914 0.21955 0.02995 0.0
O58 O 0.94143 0.14737 0.01457 0.0
O59 O 0.82714 0.08689 0.03023 0.0
O60 O 0.91392 0.2028 0.03041 0.0
O61 O 0.79481 0.167 0.03783 0.0
O62 O 0.88884 0.07885 0.01736 0.0
O63 O 0.82987 0.21814 0.94632 0.0
O64 O 0.92755 0.15122 0.93209 0.0
O65 O 0.81416 0.09073 0.94764 0.0
Sc66 Sc 0.38689 0.3871 0.48624 0.0
Sc67 Sc 0.29528 0.35613 0.51073 0.0
Sc68 Sc 0.37075 0.28949 0.49729 0.0
O69 O 0.35083 0.34413 0.49803 0.0
C70 C 0.41524 0.32439 0.42966 0.0
C71 C 0.31158 0.41442 0.44644 0.0
C72 C 0.28902 0.28207 0.4596 0.0
C73 C 0.33914 0.42251 0.55235 0.0
C74 C 0.43873 0.33383 0.53564 0.0
C75 C 0.31479 0.28909 0.56598 0.0
O76 O 0.41064 0.35861 0.43991 0.0
O77 O 0.28848 0.39676 0.46697 0.0
O78 O 0.32294 0.27073 0.46514 0.0
O79 O 0.36788 0.42042 0.53154 0.0
O80 O 0.42052 0.30315 0.52947 0.0
O81 O 0.29515 0.31765 0.55625 0.0
O82 O 0.42994 0.36552 0.52154 0.0
O83 O 0.30992 0.40143 0.54871 0.0
O84 O 0.34216 0.27594 0.54718 0.0
O85 O 0.3474 0.41289 0.45011 0.0
O86 O 0.40309 0.2961 0.44769 0.0
O87 O 0.27516 0.31189 0.47444 0.0
H88 H 0.15122 0.08791 0.25551 0.0
C89 C 0.13366 0.1053 0.23804 0.0
C90 C 0.13247 0.09776 0.20068 0.0
C91 C 0.11069 0.13411 0.25302 0.0
H92 H 0.10565 0.11115 0.15023 0.0
C93 C 0.10804 0.11893 0.1786 0.0
C94 C 0.08398 0.14702 0.19329 0.0
C95 C 0.08594 0.15479 0.23064 0.0
C96 C 0.10822 0.13912 0.29264 0.0
H97 H 0.06729 0.17597 0.24264 0.0
C98 C 0.13377 0.16289 0.31137 0.0
C99 C 0.12892 0.16958 0.34879 0.0
C100 C 0.07845 0.12142 0.31153 0.0
H101 H 0.05849 0.10316 0.2974 0.0
C102 C 0.07398 0.12746 0.34866 0.0
H103 H 0.15648 0.17701 0.29672 0.0
C104 C 0.09887 0.15155 0.36719 0.0
H105 H 0.09474 0.156 0.39601 0.0
H106 H 0.05094 0.11372 0.36307 0.0
H107 H 0.41612 0.66863 0.74456 0.0
C108 C 0.39849 0.65068 0.72749 0.0
C109 C 0.4108 0.64156 0.6924 0.0
C110 C 0.36508 0.63431 0.74168 0.0
H111 H 0.40035 0.60737 0.64507 0.0
C112 C 0.38955 0.61608 0.67142 0.0
C113 C 0.35702 0.5983 0.68554 0.0
C114 C 0.34424 0.60814 0.72051 0.0
C115 C 0.35725 0.63841 0.78087 0.0
H116 H 0.32028 0.59316 0.73229 0.0
C117 C 0.32726 0.6612 0.79419 0.0
C118 C 0.32305 0.66685 0.83186 0.0
C119 C 0.38197 0.62061 0.80535 0.0
H120 H 0.40518 0.60302 0.79556 0.0
C121 C 0.3773 0.62565 0.84257 0.0
H122 H 0.30827 0.67535 0.7755 0.0
C123 C 0.34821 0.64884 0.85578 0.0
H124 H 0.3453 0.65278 0.8848 0.0
H125 H 0.39655 0.61188 0.86123 0.0
H126 H 0.85969 0.78447 0.2019 0.0
C127 C 0.85539 0.8134 0.19262 0.0
C128 C 0.88693 0.83594 0.18388 0.0
C129 C 0.81831 0.8275 0.18776 0.0
H130 H 0.90582 0.89026 0.16463 0.0
C131 C 0.88119 0.87299 0.17105 0.0
C132 C 0.84453 0.88678 0.1635 0.0
C133 C 0.81303 0.86394 0.1726 0.0
C134 C 0.78529 0.80266 0.19566 0.0
H135 H 0.78449 0.87382 0.16689 0.0
C136 C 0.78169 0.78479 0.22958 0.0
C137 C 0.75147 0.75953 0.23627 0.0
C138 C 0.75804 0.79543 0.16872 0.0
H139 H 0.76037 0.80866 0.14234 0.0
C140 C 0.72812 0.77019 0.17528 0.0
H141 H 0.80243 0.79037 0.25064 0.0
C142 C 0.72493 0.75212 0.20877 0.0
H143 H 0.70142 0.73277 0.21344 0.0
H144 H 0.70742 0.76451 0.15428 0.0
H145 H 0.74211 0.34815 0.66683 0.0
C146 C 0.71365 0.3417 0.65738 0.0
C147 C 0.69213 0.36989 0.64011 0.0
C148 C 0.69841 0.30496 0.66188 0.0
H149 H 0.63961 0.38281 0.61322 0.0
C150 C 0.65552 0.36118 0.62759 0.0
C151 C 0.63991 0.32473 0.63191 0.0
C152 C 0.66171 0.29661 0.64893 0.0
C153 C 0.72051 0.27473 0.67978 0.0
H154 H 0.64996 0.26834 0.65269 0.0
C155 C 0.73178 0.27866 0.71615 0.0
C156 C 0.74865 0.24786 0.73418 0.0
C157 C 0.72762 0.24042 0.66128 0.0
H158 H 0.71904 0.2369 0.63328 0.0
C159 C 0.74541 0.21025 0.67889 0.0
H160 H 0.72569 0.30478 0.73083 0.0
C161 C 0.75553 0.21375 0.71528 0.0
H162 H 0.76857 0.18976 0.72879 0.0
H163 H 0.75074 0.18386 0.6645 0.0
H164 H 0.66681 0.40948 0.25207 0.0
C165 C 0.64109 0.39633 0.26236 0.0
C166 C 0.62848 0.40453 0.2978 0.0
C167 C 0.61934 0.37279 0.23938 0.0
H168 H 0.5833 0.39491 0.33663 0.0
C169 C 0.59452 0.38777 0.31005 0.0
C170 C 0.57279 0.36429 0.28747 0.0
C171 C 0.585 0.35706 0.252 0.0
C172 C 0.62952 0.36912 0.20071 0.0
H173 H 0.56734 0.34024 0.23396 0.0
C174 C 0.66135 0.34783 0.18937 0.0
C175 C 0.67073 0.34568 0.15231 0.0
C176 C 0.60713 0.38783 0.17487 0.0
H177 H 0.58255 0.40434 0.18319 0.0
C178 C 0.61661 0.38591 0.1382 0.0
H179 H 0.67866 0.33315 0.20916 0.0
C180 C 0.64831 0.36509 0.12694 0.0
H181 H 0.65515 0.36375 0.09831 0.0
H182 H 0.59936 0.40061 0.11845 0.0
H183 H 0.2167 0.11583 0.84052 0.0
C184 C 0.18817 0.12583 0.83494 0.0
C185 C 0.1568 0.10358 0.84523 0.0
C186 C 0.18287 0.16163 0.81858 0.0
H187 H 0.09562 0.09999 0.84514 0.0
C188 C 0.12012 0.11698 0.83756 0.0
C189 C 0.11424 0.15322 0.82288 0.0
C190 C 0.14573 0.17551 0.8132 0.0
C191 C 0.21628 0.18509 0.80864 0.0
H192 H 0.14137 0.20387 0.8025 0.0
C193 C 0.21932 0.20103 0.77384 0.0
C194 C 0.2523 0.22101 0.76362 0.0
C195 C 0.246 0.19046 0.83354 0.0
H196 H 0.24414 0.1788 0.86062 0.0
C197 C 0.27838 0.211 0.82375 0.0
H198 H 0.19682 0.19646 0.75426 0.0
C199 C 0.28171 0.22597 0.78893 0.0
H200 H 0.30725 0.2415 0.78175 0.0
H201 H 0.30112 0.21503 0.8431 0.0
H202 H 0.37765 0.69234 0.32664 0.0
C203 C 0.36689 0.66341 0.32699 0.0
C204 C 0.39117 0.63319 0.33602 0.0
C205 C 0.32856 0.65646 0.31846 0.0
H206 H 0.39423 0.57272 0.34538 0.0
C207 C 0.37642 0.59604 0.33644 0.0
C208 C 0.3381 0.58879 0.32848 0.0
C209 C 0.3142 0.61914 0.3193 0.0
C210 C 0.30308 0.68853 0.31028 0.0
H211 H 0.28435 0.6139 0.31385 0.0
C212 C 0.28637 0.6916 0.27594 0.0
C213 C 0.26276 0.72261 0.26803 0.0
C214 C 0.29579 0.71646 0.33673 0.0
H215 H 0.30851 0.71446 0.36337 0.0
C216 C 0.27171 0.74698 0.32902 0.0
H217 H 0.29236 0.67042 0.25522 0.0
C218 C 0.25527 0.75014 0.29476 0.0
H219 H 0.23715 0.77428 0.28891 0.0
H220 H 0.26603 0.76836 0.34954 0.0
H221 H 0.90907 0.80541 0.79437 0.0
C222 C 0.88955 0.82725 0.80373 0.0
C223 C 0.88784 0.83662 0.84075 0.0
C224 C 0.86716 0.84692 0.77844 0.0
H225 H 0.86292 0.87466 0.88021 0.0
C226 C 0.86283 0.86547 0.85211 0.0
C227 C 0.84106 0.88594 0.8271 0.0
C228 C 0.84304 0.87639 0.79019 0.0
C229 C 0.87273 0.83972 0.73937 0.0
H230 H 0.82754 0.89316 0.77055 0.0
C231 C 0.84324 0.82476 0.71793 0.0
C232 C 0.84973 0.81618 0.6811 0.0
C233 C 0.90835 0.84711 0.72365 0.0
H234 H 0.93132 0.85874 0.7398 0.0
C235 C 0.91454 0.83973 0.68697 0.0
H236 H 0.81596 0.81838 0.73024 0.0
C237 C 0.88555 0.82425 0.66581 0.0
H238 H 0.89115 0.81847 0.63743 0.0
H239 H 0.94202 0.8457 0.67497 0.0
H240 H 0.19285 0.97733 0.08987 0.0
H241 H 0.11313 0.908 0.1491 0.0
H242 H 0.10692 0.95754 0.19544 0.0
H243 H 0.11557 0.02441 0.2132 0.0
H244 H 0.18894 0.09663 0.15011 0.0
H245 H 0.20697 0.04241 0.11167 0.0
C246 C 0.17509 0.97276 0.11355 0.0
C247 C 0.1535 0.93921 0.11624 0.0
C248 C 0.17029 0.00218 0.1392 0.0
C249 C 0.12995 0.93372 0.14658 0.0
C250 C 0.12629 0.96208 0.17297 0.0
C251 C 0.13657 0.02778 0.19185 0.0
C252 C 0.15135 0.06409 0.18462 0.0
C253 C 0.1451 0.99699 0.1688 0.0
C254 C 0.1777 0.06866 0.15631 0.0
C255 C 0.18766 0.03778 0.13417 0.0
H256 H 0.5735 0.63116 0.62622 0.0
H257 H 0.53287 0.72664 0.56457 0.0
H258 H 0.47561 0.72998 0.60252 0.0
H259 H 0.43271 0.69844 0.64684 0.0
H260 H 0.47481 0.60403 0.70907 0.0
H261 H 0.53613 0.60773 0.67785 0.0
C262 C 0.55262 0.65344 0.62194 0.0
C263 C 0.55713 0.67852 0.59272 0.0
C264 C 0.51988 0.65502 0.64374 0.0
C265 C 0.53004 0.70728 0.5872 0.0
C266 C 0.49714 0.7089 0.60863 0.0
C267 C 0.45586 0.67964 0.65425 0.0
C268 C 0.44962 0.65105 0.6801 0.0
C269 C 0.49106 0.68193 0.63606 0.0
C270 C 0.47939 0.62642 0.68941 0.0
C271 C 0.51426 0.62835 0.67139 0.0
H272 H 0.80864 0.04567 0.08788 0.0
H273 H 0.91384 0.01605 0.03366 0.0
H274 H 0.91717 0.95725 0.06726 0.0
H275 H 0.89012 0.91301 0.10975 0.0
H276 H 0.78855 0.9422 0.16964 0.0
H277 H 0.78323 0.00151 0.13508 0.0
C278 C 0.83238 0.02645 0.08368 0.0
C279 C 0.86094 0.03563 0.05818 0.0
C280 C 0.83461 0.99227 0.10368 0.0
C281 C 0.89153 0.01025 0.05318 0.0
C282 C 0.89345 0.9763 0.07227 0.0
C283 C 0.86726 0.93261 0.11626 0.0
C284 C 0.84023 0.92316 0.14294 0.0
C285 C 0.86517 0.96699 0.09739 0.0
C286 C 0.80983 0.94848 0.14926 0.0
C287 C 0.80693 0.98259 0.12967 0.0
H288 H 0.49242 0.27831 0.54455 0.0
H289 H 0.45836 0.38964 0.58241 0.0
H290 H 0.51558 0.39435 0.61917 0.0
H291 H 0.57759 0.36973 0.63636 0.0
H292 H 0.61554 0.26113 0.59495 0.0
H293 H 0.5543 0.25192 0.56469 0.0
C294 C 0.49739 0.30325 0.56132 0.0
C295 C 0.47141 0.33369 0.56064 0.0
C296 C 0.53111 0.30633 0.58166 0.0
C297 C 0.47818 0.36602 0.58225 0.0
C298 C 0.51086 0.36875 0.60329 0.0
C299 C 0.57252 0.34401 0.62071 0.0
C300 C 0.60131 0.31646 0.61749 0.0
C301 C 0.53794 0.33956 0.60245 0.0
C302 C 0.59384 0.2828 0.59796 0.0
C303 C 0.55892 0.27766 0.58039 0.0
H304 H 0.67767 0.55547 0.37823 0.0
H305 H 0.64779 0.48631 0.47025 0.0
H306 H 0.64199 0.43034 0.43122 0.0
H307 H 0.63869 0.40269 0.37073 0.0
H308 H 0.65979 0.47301 0.27723 0.0
H309 H 0.67741 0.52617 0.31677 0.0
C310 C 0.67046 0.52794 0.38958 0.0
C311 C 0.66294 0.52482 0.42689 0.0
C312 C 0.66573 0.49606 0.36668 0.0
C313 C 0.65334 0.48925 0.44149 0.0
C314 C 0.6501 0.45728 0.41923 0.0
C315 C 0.64731 0.42958 0.35891 0.0
C316 C 0.64727 0.43387 0.32102 0.0
C317 C 0.65515 0.4606 0.38171 0.0
C318 C 0.65967 0.46865 0.30626 0.0
C319 C 0.66928 0.49931 0.3289 0.0
H320 H 0.94503 0.15452 0.86188 0.0
H321 H 0.98366 0.24383 0.93328 0.0
H322 H 0.04343 0.24819 0.89942 0.0
H323 H 0.08958 0.21527 0.85961 0.0
H324 H 0.05132 0.12385 0.79053 0.0
H325 H 0.98623 0.13232 0.8124 0.0
C326 C 0.96604 0.17585 0.86917 0.0
C327 C 0.96041 0.19831 0.90033 0.0
C328 C 0.0006 0.17747 0.85015 0.0
C329 C 0.98747 0.22618 0.9094 0.0
C330 C 0.02181 0.22839 0.89025 0.0
C331 C 0.06661 0.19854 0.8481 0.0
C332 C 0.0751 0.16868 0.82389 0.0
C333 C 0.02951 0.20261 0.86195 0.0
C334 C 0.04528 0.14689 0.80931 0.0
C335 C 0.00819 0.15144 0.82214 0.0
H336 H 0.33695 0.42207 0.37826 0.0
H337 H 0.25612 0.46805 0.45464 0.0
H338 H 0.25021 0.52584 0.4181 0.0
H339 H 0.28041 0.5683 0.37316 0.0
H340 H 0.36409 0.52265 0.29931 0.0
H341 H 0.35596 0.45938 0.32538 0.0
C342 C 0.31696 0.44421 0.38607 0.0
C343 C 0.29742 0.44133 0.41918 0.0
C344 C 0.31475 0.47762 0.36561 0.0
C345 C 0.27139 0.4698 0.42916 0.0
C346 C 0.26839 0.503 0.40849 0.0
C347 C 0.29555 0.5441 0.36181 0.0
C348 C 0.32321 0.55 0.33481 0.0
C349 C 0.29169 0.50808 0.37788 0.0
C350 C 0.34291 0.51863 0.32034 0.0
C351 C 0.33847 0.48257 0.33542 0.0
H352 H 0.98883 0.80628 0.97721 0.0
H353 H 0.07789 0.81129 0.89708 0.0
H354 H 0.03031 0.81366 0.84855 0.0
H355 H 0.9636 0.82312 0.83035 0.0
H356 H 0.87461 0.81546 0.91086 0.0
H357 H 0.92195 0.80475 0.95792 0.0
C358 C 0.99763 0.80706 0.94901 0.0
C359 C 0.03646 0.80888 0.94041 0.0
C360 C 0.97021 0.80823 0.92151 0.0
C361 C 0.04797 0.80975 0.90403 0.0
C362 C 0.02081 0.8113 0.87642 0.0
C363 C 0.9544 0.81787 0.85794 0.0
C364 C 0.91559 0.82088 0.86714 0.0
C365 C 0.98183 0.81171 0.88495 0.0
C366 C 0.90435 0.81417 0.90317 0.0
C367 C 0.93138 0.80804 0.93012 0.0
H368 H 0.79297 0.01804 0.92935 0.0
H369 H 0.87531 0.07613 0.86278 0.0
H370 H 0.87472 0.02353 0.81927 0.0
H371 H 0.86061 0.95648 0.80693 0.0
H372 H 0.78488 0.89506 0.8775 0.0
H373 H 0.77209 0.95338 0.91214 0.0
C374 C 0.8098 0.01955 0.90472 0.0
C375 C 0.83431 0.05062 0.89924 0.0
C376 C 0.81068 0.98834 0.88071 0.0
C377 C 0.85645 0.05224 0.86755 0.0
C378 C 0.85619 0.02217 0.84275 0.0
C379 C 0.84009 0.95637 0.82895 0.0
C380 C 0.82346 0.92186 0.83962 0.0
C381 C 0.83479 0.98936 0.84993 0.0
C382 C 0.79764 0.92157 0.86873 0.0
C383 C 0.79073 0.95477 0.88874 0.0
H384 H 0.4183 0.36617 0.36834 0.0
H385 H 0.46833 0.26872 0.42041 0.0
H386 H 0.51998 0.26825 0.37582 0.0
H387 H 0.55654 0.30318 0.32914 0.0
H388 H 0.50612 0.40036 0.27728 0.0
H389 H 0.44858 0.39307 0.31409 0.0
C390 C 0.43998 0.34422 0.36925 0.0
C391 C 0.43992 0.31787 0.39781 0.0
C392 C 0.46962 0.34431 0.3437 0.0
C393 C 0.46783 0.28928 0.39862 0.0
C394 C 0.49754 0.28921 0.37331 0.0
C395 C 0.53224 0.32168 0.32503 0.0
C396 C 0.53513 0.3521 0.30062 0.0
C397 C 0.49956 0.3176 0.34671 0.0
C398 C 0.50402 0.37649 0.2957 0.0
C399 C 0.47139 0.37256 0.31699 0.0
H400 H 0.19169 0.94656 0.92378 0.0
H401 H 0.09117 0.98172 0.98272 0.0
H402 H 0.08832 0.04008 0.94811 0.0
H403 H 0.11381 0.08149 0.90212 0.0
H404 H 0.2109 0.04671 0.83837 0.0
H405 H 0.21636 0.98853 0.87462 0.0
C406 C 0.16919 0.96702 0.92888 0.0
C407 C 0.14156 0.95954 0.95567 0.0
C408 C 0.16722 0.00073 0.9083 0.0
C409 C 0.11253 0.98634 0.96198 0.0
C410 C 0.11093 0.01994 0.94234 0.0
C411 C 0.13576 0.06093 0.89542 0.0
C412 C 0.16143 0.06826 0.86703 0.0
C413 C 0.13796 0.02733 0.91543 0.0
C414 C 0.1907 0.04187 0.86006 0.0
C415 C 0.19368 0.00847 0.88065 0.0
H416 H 0.55538 0.61795 0.39996 0.0
H417 H 0.52069 0.71924 0.45747 0.0
H418 H 0.46222 0.7221 0.42153 0.0
H419 H 0.41754 0.69041 0.37974 0.0
H420 H 0.45423 0.59071 0.32034 0.0
H421 H 0.51556 0.5928 0.35087 0.0
C422 C 0.53526 0.64101 0.40409 0.0
C423 C 0.54184 0.66804 0.43148 0.0
C424 C 0.50199 0.64251 0.38331 0.0
C425 C 0.51605 0.69813 0.43643 0.0
C426 C 0.48257 0.69962 0.41607 0.0
C427 C 0.4393 0.6698 0.37264 0.0
C428 C 0.43086 0.63986 0.34844 0.0
C429 C 0.47471 0.67124 0.3902 0.0
C430 C 0.45954 0.61342 0.33964 0.0
C431 C 0.49468 0.61461 0.35701 0.0
H432 H 0.28861 0.47686 0.57688 0.0
H433 H 0.39818 0.42642 0.59773 0.0
H434 H 0.41093 0.47387 0.6444 0.0
H435 H 0.39453 0.53346 0.67437 0.0
H436 H 0.28745 0.58792 0.65265 0.0
H437 H 0.26963 0.53519 0.61177 0.0
C438 C 0.31483 0.476 0.59225 0.0
C439 C 0.34257 0.44838 0.58384 0.0
C440 C 0.32249 0.50427 0.61865 0.0
C441 C 0.37663 0.44763 0.60361 0.0
C442 C 0.38395 0.47474 0.63027 0.0
C443 C 0.36699 0.53336 0.66113 0.0
C444 C 0.34234 0.56432 0.66621 0.0
C445 C 0.35764 0.50374 0.63725 0.0
C446 C 0.30673 0.56414 0.64911 0.0
C447 C 0.29676 0.53417 0.6256 0.0
H448 H 0.05615 0.83048 0.14352 0.0
H449 H 0.01421 0.74516 0.06956 0.0
H450 H 0.9545 0.74149 0.10378 0.0
H451 H 0.90967 0.77468 0.14481 0.0
H452 H 0.9512 0.86306 0.21577 0.0
H453 H 0.01591 0.85283 0.19353 0.0
C454 C 0.03446 0.80998 0.13585 0.0
C455 C 0.03914 0.78847 0.10395 0.0
C456 C 0.99991 0.8091 0.15487 0.0
C457 C 0.01116 0.76188 0.09414 0.0
C458 C 0.97684 0.76019 0.11345 0.0
C459 C 0.93322 0.79038 0.15656 0.0
C460 C 0.92581 0.81989 0.18153 0.0
C461 C 0.97011 0.78537 0.14249 0.0
C462 C 0.95637 0.84036 0.1964 0.0
C463 C 0.99326 0.83476 0.18342 0.0
H464 H 0.73536 0.51449 0.55402 0.0
H465 H 0.64534 0.55993 0.62105 0.0
H466 H 0.64737 0.50353 0.65923 0.0
H467 H 0.66483 0.43642 0.66515 0.0
H468 H 0.75153 0.38857 0.59618 0.0
H469 H 0.76156 0.45078 0.56774 0.0
C470 C 0.71722 0.51258 0.57776 0.0
C471 C 0.68983 0.54099 0.58441 0.0
C472 C 0.71761 0.47932 0.59894 0.0
C473 C 0.6663 0.53814 0.61514 0.0
C474 C 0.66734 0.50584 0.63691 0.0
C475 C 0.68693 0.44013 0.64487 0.0
C476 C 0.70732 0.40826 0.63254 0.0
C477 C 0.69139 0.47546 0.62786 0.0
C478 C 0.73574 0.41296 0.60616 0.0
C479 C 0.74109 0.44839 0.58962 0.0
H480 H 0.93399 0.18268 0.10696 0.0
H481 H 0.01448 0.18355 0.01875 0.0
H482 H 0.06736 0.18094 0.06156 0.0
H483 H 0.09012 0.16998 0.12312 0.0
H484 H 0.00945 0.16137 0.21106 0.0
H485 H 0.95759 0.1768 0.16987 0.0
C486 C 0.96319 0.1833 0.09739 0.0
C487 C 0.97063 0.18349 0.06 0.0
C488 C 0.99342 0.18018 0.12216 0.0
C489 C 0.00837 0.18355 0.04756 0.0
C490 C 0.03852 0.18191 0.07198 0.0
C491 C 0.06123 0.17177 0.13338 0.0
C492 C 0.0538 0.16399 0.17009 0.0
C493 C 0.03132 0.17884 0.10923 0.0
C494 C 0.01623 0.16742 0.18304 0.0
C495 C 0.98639 0.17582 0.15936 0.0
H496 H 0.17098 0.74366 0.12366 0.0
H497 H 0.27347 0.80393 0.09427 0.0
H498 H 0.30284 0.78559 0.15153 0.0
H499 H 0.29744 0.75683 0.21208 0.0
H500 H 0.19393 0.69989 0.24292 0.0
H501 H 0.16668 0.71238 0.18294 0.0
C502 C 0.2 0.75218 0.12948 0.0
C503 C 0.22003 0.77511 0.10476 0.0
C504 C 0.21628 0.74246 0.16287 0.0
C505 C 0.25742 0.78639 0.11293 0.0
C506 C 0.27419 0.776 0.14568 0.0
C507 C 0.26909 0.7469 0.20528 0.0
C508 C 0.24751 0.72754 0.23134 0.0
C509 C 0.25358 0.7548 0.17116 0.0
C510 C 0.2108 0.71482 0.22289 0.0
C511 C 0.19533 0.72199 0.18875 0.0
H512 H 0.70937 0.75519 0.59055 0.0
H513 H 0.79577 0.67664 0.5532 0.0
H514 H 0.84223 0.70667 0.5926 0.0
H515 H 0.8591 0.7554 0.63697 0.0
H516 H 0.77398 0.83412 0.67559 0.0
H517 H 0.72623 0.80357 0.63678 0.0
C518 C 0.73834 0.74464 0.59103 0.0
C519 C 0.74889 0.71369 0.5687 0.0
C520 C 0.76521 0.762 0.61405 0.0
C521 C 0.78661 0.7003 0.56999 0.0
C522 C 0.81336 0.7175 0.59252 0.0
C523 C 0.83014 0.76605 0.63672 0.0
C524 C 0.82016 0.7972 0.65877 0.0
C525 C 0.80305 0.74841 0.61449 0.0
C526 C 0.78232 0.81011 0.65885 0.0
C527 C 0.75509 0.79276 0.63656 0.0
H528 H 0.80726 0.27583 0.0655 0.0
H529 H 0.74713 0.17179 0.09007 0.0
H530 H 0.70337 0.20712 0.12924 0.0
H531 H 0.67774 0.26883 0.15095 0.0
H532 H 0.7357 0.37262 0.12262 0.0
H533 H 0.785 0.3362 0.09086 0.0
C534 C 0.78498 0.26063 0.07979 0.0
C535 C 0.7804 0.22115 0.07441 0.0
C536 C 0.75936 0.28124 0.10155 0.0
C537 C 0.75129 0.20216 0.09338 0.0
C538 C 0.72614 0.22238 0.11578 0.0
C539 C 0.70174 0.2832 0.13851 0.0
C540 C 0.70348 0.32317 0.13918 0.0
C541 C 0.72926 0.26208 0.11928 0.0
C542 C 0.73414 0.3418 0.12251 0.0
C543 C 0.76213 0.32101 0.10424 0.0
H544 H 0.25194 0.29792 0.6091 0.0
H545 H 0.3606 0.24073 0.60349 0.0
H546 H 0.35052 0.21461 0.66371 0.0
H547 H 0.31198 0.20927 0.71881 0.0
H548 H 0.20268 0.26446 0.72467 0.0
H549 H 0.21175 0.28993 0.66348 0.0
C550 C 0.27335 0.27964 0.62099 0.0
C551 C 0.30704 0.2715 0.60173 0.0
C552 C 0.26732 0.26441 0.65573 0.0
C553 C 0.33433 0.24745 0.61751 0.0
C554 C 0.32869 0.23256 0.65208 0.0
C555 C 0.29023 0.22698 0.70666 0.0
C556 C 0.25693 0.23538 0.7262 0.0
C557 C 0.29551 0.24112 0.67153 0.0
C558 C 0.22856 0.25768 0.71002 0.0
C559 C 0.2338 0.27229 0.67514 0.0
H560 H 0.7232 0.65823 0.37461 0.0
H561 H 0.70633 0.7691 0.42275 0.0
H562 H 0.7236 0.79949 0.36554 0.0
H563 H 0.74023 0.79453 0.30078 0.0
H564 H 0.75154 0.68382 0.25125 0.0
H565 H 0.73995 0.65327 0.30987 0.0
C566 C 0.72377 0.68904 0.37263 0.0
C567 C 0.71368 0.71141 0.40286 0.0
C568 C 0.73257 0.7063 0.33932 0.0
C569 C 0.7139 0.75129 0.3998 0.0
C570 C 0.72378 0.76868 0.36712 0.0
C571 C 0.74055 0.76374 0.30309 0.0
C572 C 0.74693 0.74133 0.27207 0.0
C573 C 0.7327 0.74648 0.33658 0.0
C574 C 0.74672 0.70148 0.27497 0.0
C575 C 0.74008 0.68409 0.3084 0.0
H576 H 0.81913 0.25745 0.8902 0.0
H577 H 0.73424 0.17058 0.90891 0.0
H578 H 0.70934 0.17983 0.84819 0.0
H579 H 0.71655 0.20668 0.78728 0.0
H580 H 0.80044 0.29362 0.76783 0.0
H581 H 0.82081 0.29039 0.83137 0.0
C582 C 0.7947 0.24105 0.88134 0.0
C583 C 0.77912 0.21286 0.90409 0.0
C584 C 0.78066 0.24614 0.84604 0.0
C585 C 0.7472 0.19219 0.89204 0.0
C586 C 0.73296 0.1973 0.85717 0.0
C587 C 0.73891 0.22525 0.79725 0.0
C588 C 0.75738 0.25 0.77322 0.0
C589 C 0.7503 0.22319 0.83357 0.0
C590 C 0.78602 0.27431 0.78611 0.0
C591 C 0.79768 0.27234 0.8223 0.0
H592 H 0.21217 0.2871 0.45117 0.0
H593 H 0.3106 0.22544 0.41256 0.0
H594 H 0.27018 0.18683 0.37321 0.0
H595 H 0.20632 0.16884 0.35122 0.0
H596 H 0.10809 0.2289 0.39189 0.0
H597 H 0.14892 0.26994 0.42869 0.0
C598 C 0.22489 0.26538 0.43403 0.0
C599 C 0.26444 0.25925 0.43499 0.0
C600 C 0.20144 0.2429 0.41177 0.0
C601 C 0.28025 0.23074 0.41263 0.0
C602 C 0.25715 0.20864 0.39001 0.0
C603 C 0.19403 0.19122 0.36786 0.0
C604 C 0.15433 0.19588 0.36891 0.0
C605 C 0.21767 0.21425 0.38953 0.0
C606 C 0.1386 0.22467 0.39087 0.0
C607 C 0.16191 0.24813 0.41189 0.0
H608 H 0.18592 0.73893 0.91737 0.0
H609 H 0.27325 0.82034 0.94539 0.0
H610 H 0.31741 0.78914 0.90386 0.0
H611 H 0.33348 0.73478 0.86444 0.0
H612 H 0.24676 0.6538 0.83524 0.0
H613 H 0.19996 0.68891 0.87191 0.0
C614 C 0.21447 0.75011 0.91408 0.0
C615 C 0.22628 0.78171 0.93494 0.0
C616 C 0.23988 0.73204 0.88995 0.0
C617 C 0.26328 0.79608 0.92988 0.0
C618 C 0.28869 0.77815 0.90618 0.0
C619 C 0.30406 0.72547 0.8655 0.0
C620 C 0.29333 0.69198 0.84726 0.0
C621 C 0.2776 0.74562 0.88676 0.0
C622 C 0.25537 0.67979 0.84886 0.0
C623 C 0.22879 0.69967 0.87005 0.0
loop_
_geom_bond_atom_site_label_1
_geom_bond_atom_site_label_2
_geom_bond_distance
_geom_bond_site_symmetry_2
_ccdc_geom_bond_type
Sc0 O3 2.025 . S
Sc0 O10 2.105 1_554 S
Sc0 O13 2.105 . S
Sc0 O16 2.105 . S
Sc0 O19 2.105 1_554 S
Sc1 O3 2.025 . S
Sc1 O11 2.105 1_554 S
Sc1 O15 2.105 . S
Sc1 O17 2.105 . S
Sc1 O21 2.105 1_554 S
Sc2 O3 2.025 . S
Sc2 O12 2.105 1_554 S
Sc2 O14 2.105 . S
Sc2 O18 2.105 . S
Sc2 O20 2.105 1_554 S
O3 Sc0 2.025 . S
O3 Sc1 2.025 . S
O3 Sc2 2.025 . S
C4 O10 1.268 . S
C4 O20 1.268 . S
C5 O11 1.268 . S
C5 O19 1.268 . S
C6 O12 1.268 . S
C6 O21 1.268 . S
C7 O13 1.268 . S
C7 O17 1.268 . S
C8 O14 1.268 . S
C8 O16 1.268 . S
C9 O15 1.268 . S
C9 O18 1.268 . S
O10 Sc0 2.105 1_556 S
O10 C4 1.268 . S
O11 Sc1 2.105 1_556 S
O11 C5 1.268 . S
O12 Sc2 2.105 1_556 S
O12 C6 1.268 . S
O13 Sc0 2.105 . S
O13 C7 1.268 . S
O14 Sc2 2.105 . S
O14 C8 1.268 . S
O15 Sc1 2.105 . S
O15 C9 1.268 . S
O16 Sc0 2.105 . S
O16 C8 1.268 . S
O17 Sc1 2.105 . S
O17 C7 1.268 . S
O18 Sc2 2.105 . S
O18 C9 1.268 . S
O19 Sc0 2.105 1_556 S
O19 C5 1.268 . S
O20 Sc2 2.105 1_556 S
O20 C4 1.268 . S
O21 Sc1 2.105 1_556 S
O21 C6 1.268 . S
Sc22 O25 2.025 . S
Sc22 O32 2.105 . S
Sc22 O35 2.105 . S
Sc22 O38 2.105 . S
Sc22 O41 2.105 . S
Sc23 O25 2.025 . S
Sc23 O33 2.105 . S
Sc23 O37 2.105 . S
Sc23 O39 2.105 . S
Sc23 O43 2.105 . S
Sc24 O25 2.025 . S
Sc24 O34 2.105 . S
Sc24 O36 2.105 . S
Sc24 O40 2.105 . S
Sc24 O42 2.105 . S
O25 Sc22 2.025 . S
O25 Sc23 2.025 . S
O25 Sc24 2.025 . S
C26 O32 1.268 . S
C26 O42 1.268 . S
C27 O33 1.268 . S
C27 O41 1.268 . S
C28 O34 1.268 . S
C28 O43 1.268 . S
C29 O35 1.268 . S
C29 O39 1.268 . S
C30 O36 1.268 . S
C30 O38 1.268 . S
C31 O37 1.268 . S
C31 O40 1.268 . S
O32 Sc22 2.105 . S
O32 C26 1.268 . S
O33 Sc23 2.105 . S
O33 C27 1.268 . S
O34 Sc24 2.105 . S
O34 C28 1.268 . S
O35 Sc22 2.105 . S
O35 C29 1.268 . S
O36 Sc24 2.105 . S
O36 C30 1.268 . S
O37 Sc23 2.105 . S
O37 C31 1.268 . S
O38 Sc22 2.105 . S
O38 C30 1.268 . S
O39 Sc23 2.105 . S
O39 C29 1.268 . S
O40 Sc24 2.105 . S
O40 C31 1.268 . S
O41 Sc22 2.105 . S
O41 C27 1.268 . S
O42 Sc24 2.105 . S
O42 C26 1.268 . S
O43 Sc23 2.105 . S
O43 C28 1.268 . S
Sc44 O47 2.025 . S
Sc44 O54 2.105 1_554 S
Sc44 O57 2.105 . S
Sc44 O60 2.105 . S
Sc44 O63 2.105 1_554 S
Sc45 O47 2.025 . S
Sc45 O55 2.105 1_554 S
Sc45 O59 2.105 . S
Sc45 O61 2.105 . S
Sc45 O65 2.105 1_554 S
Sc46 O47 2.025 . S
Sc46 O56 2.105 1_554 S
Sc46 O58 2.105 . S
Sc46 O62 2.105 . S
Sc46 O64 2.105 1_554 S
O47 Sc44 2.025 . S
O47 Sc45 2.025 . S
O47 Sc46 2.025 . S
C48 O54 1.268 . S
C48 O64 1.268 . S
C49 O55 1.268 . S
C49 O63 1.268 . S
C50 O56 1.268 . S
C50 O65 1.268 . S
C51 O57 1.268 . S
C51 O61 1.268 . S
C52 O58 1.268 . S
C52 O60 1.268 . S
C53 O59 1.268 . S
C53 O62 1.268 . S
O54 Sc44 2.105 1_556 S
O54 C48 1.268 . S
O55 Sc45 2.105 1_556 S
O55 C49 1.268 . S
O56 Sc46 2.105 1_556 S
O56 C50 1.268 . S
O57 Sc44 2.105 . S
O57 C51 1.268 . S
O58 Sc46 2.105 . S
O58 C52 1.268 . S
O59 Sc45 2.105 . S
O59 C53 1.268 . S
O60 Sc44 2.105 . S
O60 C52 1.268 . S
O61 Sc45 2.105 . S
O61 C51 1.268 . S
O62 Sc46 2.105 . S
O62 C53 1.268 . S
O63 Sc44 2.105 1_556 S
O63 C49 1.268 . S
O64 Sc46 2.105 1_556 S
O64 C48 1.268 . S
O65 Sc45 2.105 1_556 S
O65 C50 1.268 . S
Sc66 O69 2.025 . S
Sc66 O76 2.105 . S
Sc66 O79 2.105 . S
Sc66 O82 2.105 . S
Sc66 O85 2.105 . S
Sc67 O69 2.025 . S
Sc67 O77 2.105 . S
Sc67 O81 2.105 . S
Sc67 O83 2.105 . S
Sc67 O87 2.105 . S
Sc68 O69 2.025 . S
Sc68 O78 2.105 . S
Sc68 O80 2.105 . S
Sc68 O84 2.105 . S
Sc68 O86 2.105 . S
O69 Sc66 2.025 . S
O69 Sc67 2.025 . S
O69 Sc68 2.025 . S
C70 O76 1.268 . S
C70 O86 1.268 . S
C71 O77 1.268 . S
C71 O85 1.268 . S
C72 O78 1.268 . S
C72 O87 1.268 . S
C73 O79 1.268 . S
C73 O83 1.268 . S
C74 O80 1.268 . S
C74 O82 1.268 . S
C75 O81 1.268 . S
C75 O84 1.268 . S
O76 Sc66 2.105 . S
O76 C70 1.268 . S
O77 Sc67 2.105 . S
O77 C71 1.268 . S
O78 Sc68 2.105 . S
O78 C72 1.268 . S
O79 Sc66 2.105 . S
O79 C73 1.268 . S
O80 Sc68 2.105 . S
O80 C74 1.268 . S
O81 Sc67 2.105 . S
O81 C75 1.268 . S
O82 Sc66 2.105 . S
O82 C74 1.268 . S
O83 Sc67 2.105 . S
O83 C73 1.268 . S
O84 Sc68 2.105 . S
O84 C75 1.268 . S
O85 Sc66 2.105 . S
O85 C71 1.268 . S
O86 Sc68 2.105 . S
O86 C70 1.268 . S
O87 Sc67 2.105 . S
O87 C72 1.268 . S
H88 C89 0.949 . S
C89 H88 0.949 . S
C89 C90 1.395 . S
C89 C91 1.391 . S
C90 C89 1.395 . S
C90 C93 1.390 . S
C91 C89 1.391 . S
C91 C95 1.387 . S
C91 C96 1.491 . S
H92 C93 0.950 . S
C93 C90 1.390 . S
C93 H92 0.950 . S
C93 C94 1.378 . S
C94 C93 1.378 . S
C94 C95 1.409 . S
C95 C91 1.387 . S
C95 C94 1.409 . S
C95 H97 0.951 . S
C96 C91 1.491 . S
C96 C98 1.382 . S
C96 C100 1.404 . S
H97 C95 0.951 . S
C98 C96 1.382 . S
C98 C99 1.390 . S
C98 H103 0.949 . S
C99 C98 1.390 . S
C99 C104 1.399 . S
C100 C96 1.404 . S
C100 H101 0.950 . S
C100 C102 1.375 . S
H101 C100 0.950 . S
C102 C100 1.375 . S
C102 C104 1.382 . S
C102 H106 0.950 . S
H103 C98 0.949 . S
C104 C99 1.399 . S
C104 C102 1.382 . S
C104 H105 0.952 . S
H105 C104 0.952 . S
H106 C102 0.950 . S
H107 C108 0.949 . S
C108 H107 0.949 . S
C108 C109 1.395 . S
C108 C110 1.391 . S
C109 C108 1.395 . S
C109 C112 1.390 . S
C110 C108 1.391 . S
C110 C114 1.387 . S
C110 C115 1.491 . S
H111 C112 0.950 . S
C112 C109 1.390 . S
C112 H111 0.950 . S
C112 C113 1.378 . S
C113 C112 1.378 . S
C113 C114 1.409 . S
C114 C110 1.387 . S
C114 C113 1.409 . S
C114 H116 0.951 . S
C115 C110 1.491 . S
C115 C117 1.382 . S
C115 C119 1.404 . S
H116 C114 0.951 . S
C117 C115 1.382 . S
C117 C118 1.390 . S
C117 H122 0.949 . S
C118 C117 1.390 . S
C118 C123 1.399 . S
C119 C115 1.404 . S
C119 H120 0.950 . S
C119 C121 1.375 . S
H120 C119 0.950 . S
C121 C119 1.375 . S
C121 C123 1.382 . S
C121 H125 0.950 . S
H122 C117 0.949 . S
C123 C118 1.399 . S
C123 C121 1.382 . S
C123 H124 0.952 . S
H124 C123 0.952 . S
H125 C121 0.950 . S
H126 C127 0.949 . S
C127 H126 0.949 . S
C127 C128 1.395 . S
C127 C129 1.391 . S
C128 C127 1.395 . S
C128 C131 1.390 . S
C129 C127 1.391 . S
C129 C133 1.387 . S
C129 C134 1.491 . S
H130 C131 0.950 . S
C131 C128 1.390 . S
C131 H130 0.950 . S
C131 C132 1.378 . S
C132 C131 1.378 . S
C132 C133 1.409 . S
C133 C129 1.387 . S
C133 C132 1.409 . S
C133 H135 0.951 . S
C134 C129 1.491 . S
C134 C136 1.382 . S
C134 C138 1.404 . S
H135 C133 0.951 . S
C136 C134 1.382 . S
C136 C137 1.390 . S
C136 H141 0.949 . S
C137 C136 1.390 . S
C137 C142 1.399 . S
C138 C134 1.404 . S
C138 H139 0.950 . S
C138 C140 1.375 . S
H139 C138 0.950 . S
C140 C138 1.375 . S
C140 C142 1.382 . S
C140 H144 0.950 . S
H141 C136 0.949 . S
C142 C137 1.399 . S
C142 C140 1.382 . S
C142 H143 0.952 . S
H143 C142 0.952 . S
H144 C140 0.950 . S
H145 C146 0.949 . S
C146 H145 0.949 . S
C146 C147 1.395 . S
C146 C148 1.391 . S
C147 C146 1.395 . S
C147 C150 1.390 . S
C148 C146 1.391 . S
C148 C152 1.387 . S
C148 C153 1.491 . S
H149 C150 0.950 . S
C150 C147 1.390 . S
C150 H149 0.950 . S
C150 C151 1.378 . S
C151 C150 1.378 . S
C151 C152 1.409 . S
C152 C148 1.387 . S
C152 C151 1.409 . S
C152 H154 0.951 . S
C153 C148 1.491 . S
C153 C155 1.382 . S
C153 C157 1.404 . S
H154 C152 0.951 . S
C155 C153 1.382 . S
C155 C156 1.390 . S
C155 H160 0.949 . S
C156 C155 1.390 . S
C156 C161 1.399 . S
C157 C153 1.404 . S
C157 H158 0.950 . S
C157 C159 1.375 . S
H158 C157 0.950 . S
C159 C157 1.375 . S
C159 C161 1.382 . S
C159 H163 0.950 . S
H160 C155 0.949 . S
C161 C156 1.399 . S
C161 C159 1.382 . S
C161 H162 0.952 . S
H162 C161 0.952 . S
H163 C159 0.950 . S
H164 C165 0.949 . S
C165 H164 0.949 . S
C165 C166 1.395 . S
C165 C167 1.391 . S
C166 C165 1.395 . S
C166 C169 1.390 . S
C167 C165 1.391 . S
C167 C171 1.387 . S
C167 C172 1.491 . S
H168 C169 0.950 . S
C169 C166 1.390 . S
C169 H168 0.950 . S
C169 C170 1.378 . S
C170 C169 1.378 . S
C170 C171 1.409 . S
C171 C167 1.387 . S
C171 C170 1.409 . S
C171 H173 0.951 . S
C172 C167 1.491 . S
C172 C174 1.382 . S
C172 C176 1.404 . S
H173 C171 0.951 . S
C174 C172 1.382 . S
C174 C175 1.390 . S
C174 H179 0.949 . S
C175 C174 1.390 . S
C175 C180 1.399 . S
C176 C172 1.404 . S
C176 H177 0.950 . S
C176 C178 1.375 . S
H177 C176 0.950 . S
C178 C176 1.375 . S
C178 C180 1.382 . S
C178 H182 0.950 . S
H179 C174 0.949 . S
C180 C175 1.399 . S
C180 C178 1.382 . S
C180 H181 0.952 . S
H181 C180 0.952 . S
H182 C178 0.950 . S
H183 C184 0.949 . S
C184 H183 0.949 . S
C184 C185 1.395 . S
C184 C186 1.391 . S
C185 C184 1.395 . S
C185 C188 1.390 . S
C186 C184 1.391 . S
C186 C190 1.387 . S
C186 C191 1.491 . S
H187 C188 0.950 . S
C188 C185 1.390 . S
C188 H187 0.950 . S
C188 C189 1.378 . S
C189 C188 1.378 . S
C189 C190 1.409 . S
C190 C186 1.387 . S
C190 C189 1.409 . S
C190 H192 0.951 . S
C191 C186 1.491 . S
C191 C193 1.382 . S
C191 C195 1.404 . S
H192 C190 0.951 . S
C193 C191 1.382 . S
C193 C194 1.390 . S
C193 H198 0.949 . S
C194 C193 1.390 . S
C194 C199 1.399 . S
C195 C191 1.404 . S
C195 H196 0.950 . S
C195 C197 1.375 . S
H196 C195 0.950 . S
C197 C195 1.375 . S
C197 C199 1.382 . S
C197 H201 0.950 . S
H198 C193 0.949 . S
C199 C194 1.399 . S
C199 C197 1.382 . S
C199 H200 0.952 . S
H200 C199 0.952 . S
H201 C197 0.950 . S
H202 C203 0.949 . S
C203 H202 0.949 . S
C203 C204 1.395 . S
C203 C205 1.391 . S
C204 C203 1.395 . S
C204 C207 1.390 . S
C205 C203 1.391 . S
C205 C209 1.387 . S
C205 C210 1.491 . S
H206 C207 0.950 . S
C207 C204 1.390 . S
C207 H206 0.950 . S
C207 C208 1.378 . S
C208 C207 1.378 . S
C208 C209 1.409 . S
C209 C205 1.387 . S
C209 C208 1.409 . S
C209 H211 0.951 . S
C210 C205 1.491 . S
C210 C212 1.382 . S
C210 C214 1.404 . S
H211 C209 0.951 . S
C212 C210 1.382 . S
C212 C213 1.390 . S
C212 H217 0.949 . S
C213 C212 1.390 . S
C213 C218 1.399 . S
C214 C210 1.404 . S
C214 H215 0.950 . S
C214 C216 1.375 . S
H215 C214 0.950 . S
C216 C214 1.375 . S
C216 C218 1.382 . S
C216 H220 0.950 . S
H217 C212 0.949 . S
C218 C213 1.399 . S
C218 C216 1.382 . S
C218 H219 0.952 . S
H219 C218 0.952 . S
H220 C216 0.950 . S
H221 C222 0.949 . S
C222 H221 0.949 . S
C222 C223 1.395 . S
C222 C224 1.391 . S
C223 C222 1.395 . S
C223 C226 1.390 . S
C224 C222 1.391 . S
C224 C228 1.387 . S
C224 C229 1.491 . S
H225 C226 0.950 . S
C226 C223 1.390 . S
C226 H225 0.950 . S
C226 C227 1.378 . S
C227 C226 1.378 . S
C227 C228 1.409 . S
C228 C224 1.387 . S
C228 C227 1.409 . S
C228 H230 0.951 . S
C229 C224 1.491 . S
C229 C231 1.382 . S
C229 C233 1.404 . S
H230 C228 0.951 . S
C231 C229 1.382 . S
C231 C232 1.390 . S
C231 H236 0.949 . S
C232 C231 1.390 . S
C232 C237 1.399 . S
C233 C229 1.404 . S
C233 H234 0.950 . S
C233 C235 1.375 . S
H234 C233 0.950 . S
C235 C233 1.375 . S
C235 C237 1.382 . S
C235 H239 0.950 . S
H236 C231 0.949 . S
C237 C232 1.399 . S
C237 C235 1.382 . S
C237 H238 0.952 . S
H238 C237 0.952 . S
H239 C235 0.950 . S
H240 C246 0.930 . S
H241 C249 0.930 . S
H242 C250 0.930 . S
H243 C251 0.930 . S
H244 C254 0.930 . S
H245 C255 0.930 . S
C246 H240 0.930 . S
C246 C247 1.355 1_545 S
C246 C248 1.415 . S
C247 C246 1.355 1_565 S
C247 C249 1.419 . S
C248 C246 1.415 . S
C248 C253 1.425 . S
C248 C255 1.409 . S
C249 H241 0.930 . S
C249 C247 1.419 . S
C249 C250 1.362 . S
C250 H242 0.930 . S
C250 C249 1.362 . S
C250 C253 1.409 1_565 S
C251 H243 0.930 . S
C251 C252 1.355 . S
C251 C253 1.415 . S
C252 C251 1.355 . S
C252 C254 1.419 . S
C253 C248 1.425 . S
C253 C250 1.409 1_545 S
C253 C251 1.415 . S
C254 H244 0.930 . S
C254 C252 1.419 . S
C254 C255 1.362 . S
C255 H245 0.930 . S
C255 C248 1.409 . S
C255 C254 1.362 . S
H256 C262 0.930 . S
H257 C265 0.930 . S
H258 C266 0.930 . S
H259 C267 0.930 . S
H260 C270 0.930 . S
H261 C271 0.930 . S
C262 H256 0.930 . S
C262 C263 1.355 . S
C262 C264 1.415 . S
C263 C262 1.355 . S
C263 C265 1.419 . S
C264 C262 1.415 . S
C264 C269 1.425 . S
C264 C271 1.409 . S
C265 H257 0.930 . S
C265 C263 1.419 . S
C265 C266 1.362 . S
C266 H258 0.930 . S
C266 C265 1.362 . S
C266 C269 1.409 . S
C267 H259 0.930 . S
C267 C268 1.355 . S
C267 C269 1.415 . S
C268 C267 1.355 . S
C268 C270 1.419 . S
C269 C264 1.425 . S
C269 C266 1.409 . S
C269 C267 1.415 . S
C270 H260 0.930 . S
C270 C268 1.419 . S
C270 C271 1.362 . S
C271 H261 0.930 . S
C271 C264 1.409 . S
C271 C270 1.362 . S
H272 C278 0.930 . S
H273 C281 0.930 . S
H274 C282 0.930 . S
H275 C283 0.930 . S
H276 C286 0.930 . S
H277 C287 0.930 1_545 S
C278 H272 0.930 . S
C278 C279 1.355 . S
C278 C280 1.415 1_545 S
C279 C278 1.355 . S
C279 C281 1.419 1_545 S
C280 C278 1.415 1_565 S
C280 C285 1.425 . S
C280 C287 1.409 . S
C281 H273 0.930 . S
C281 C279 1.419 1_565 S
C281 C282 1.362 . S
C282 H274 0.930 . S
C282 C281 1.362 . S
C282 C285 1.409 . S
C283 H275 0.930 . S
C283 C284 1.355 . S
C283 C285 1.415 . S
C284 C283 1.355 . S
C284 C286 1.419 . S
C285 C280 1.425 . S
C285 C282 1.409 . S
C285 C283 1.415 . S
C286 H276 0.930 . S
C286 C284 1.419 . S
C286 C287 1.362 . S
C287 H277 0.930 1_565 S
C287 C280 1.409 . S
C287 C286 1.362 . S
H288 C294 0.930 . S
H289 C297 0.930 . S
H290 C298 0.930 . S
H291 C299 0.930 . S
H292 C302 0.930 . S
H293 C303 0.930 . S
C294 H288 0.930 . S
C294 C295 1.355 . S
C294 C296 1.415 . S
C295 C294 1.355 . S
C295 C297 1.419 . S
C296 C294 1.415 . S
C296 C301 1.425 . S
C296 C303 1.409 . S
C297 H289 0.930 . S
C297 C295 1.419 . S
C297 C298 1.362 . S
C298 H290 0.930 . S
C298 C297 1.362 . S
C298 C301 1.409 . S
C299 H291 0.930 . S
C299 C300 1.355 . S
C299 C301 1.415 . S
C300 C299 1.355 . S
C300 C302 1.419 . S
C301 C296 1.425 . S
C301 C298 1.409 . S
C301 C299 1.415 . S
C302 H292 0.930 . S
C302 C300 1.419 . S
C302 C303 1.362 . S
C303 H293 0.930 . S
C303 C296 1.409 . S
C303 C302 1.362 . S
H304 C310 0.930 . S
H305 C313 0.930 . S
H306 C314 0.930 . S
H307 C315 0.930 . S
H308 C318 0.930 . S
H309 C319 0.930 . S
C310 H304 0.930 . S
C310 C311 1.355 . S
C310 C312 1.415 . S
C311 C310 1.355 . S
C311 C313 1.419 . S
C312 C310 1.415 . S
C312 C317 1.425 . S
C312 C319 1.409 . S
C313 H305 0.930 . S
C313 C311 1.419 . S
C313 C314 1.362 . S
C314 H306 0.930 . S
C314 C313 1.362 . S
C314 C317 1.409 . S
C315 H307 0.930 . S
C315 C316 1.355 . S
C315 C317 1.415 . S
C316 C315 1.355 . S
C316 C318 1.419 . S
C317 C312 1.425 . S
C317 C314 1.409 . S
C317 C315 1.415 . S
C318 H308 0.930 . S
C318 C316 1.419 . S
C318 C319 1.362 . S
C319 H309 0.930 . S
C319 C312 1.409 . S
C319 C318 1.362 . S
H320 C326 0.930 . S
H321 C329 0.930 . S
H322 C330 0.930 . S
H323 C331 0.930 . S
H324 C334 0.930 . S
H325 C335 0.930 1_655 S
C326 H320 0.930 . S
C326 C327 1.355 . S
C326 C328 1.415 1_655 S
C327 C326 1.355 . S
C327 C329 1.419 1_655 S
C328 C326 1.415 1_455 S
C328 C333 1.425 . S
C328 C335 1.409 . S
C329 H321 0.930 . S
C329 C327 1.419 1_455 S
C329 C330 1.362 . S
C330 H322 0.930 . S
C330 C329 1.362 . S
C330 C333 1.409 . S
C331 H323 0.930 . S
C331 C332 1.355 . S
C331 C333 1.415 . S
C332 C331 1.355 . S
C332 C334 1.419 . S
C333 C328 1.425 . S
C333 C330 1.409 . S
C333 C331 1.415 . S
C334 H324 0.930 . S
C334 C332 1.419 . S
C334 C335 1.362 . S
C335 H325 0.930 1_455 S
C335 C328 1.409 . S
C335 C334 1.362 . S
H336 C342 0.930 . S
H337 C345 0.930 . S
H338 C346 0.930 . S
H339 C347 0.930 . S
H340 C350 0.930 . S
H341 C351 0.930 . S
C342 H336 0.930 . S
C342 C343 1.355 . S
C342 C344 1.415 . S
C343 C342 1.355 . S
C343 C345 1.419 . S
C344 C342 1.415 . S
C344 C349 1.425 . S
C344 C351 1.409 . S
C345 H337 0.930 . S
C345 C343 1.419 . S
C345 C346 1.362 . S
C346 H338 0.930 . S
C346 C345 1.362 . S
C346 C349 1.409 . S
C347 H339 0.930 . S
C347 C348 1.355 . S
C347 C349 1.415 . S
C348 C347 1.355 . S
C348 C350 1.419 . S
C349 C344 1.425 . S
C349 C346 1.409 . S
C349 C347 1.415 . S
C350 H340 0.930 . S
C350 C348 1.419 . S
C350 C351 1.362 . S
C351 H341 0.930 . S
C351 C344 1.409 . S
C351 C350 1.362 . S
H352 C358 0.930 . S
H353 C361 0.930 . S
H354 C362 0.930 . S
H355 C363 0.930 . S
H356 C366 0.930 . S
H357 C367 0.930 . S
C358 H352 0.930 . S
C358 C359 1.355 1_655 S
C358 C360 1.415 . S
C359 C358 1.355 1_455 S
C359 C361 1.419 . S
C360 C358 1.415 . S
C360 C365 1.425 . S
C360 C367 1.409 . S
C361 H353 0.930 . S
C361 C359 1.419 . S
C361 C362 1.362 . S
C362 H354 0.930 . S
C362 C361 1.362 . S
C362 C365 1.409 1_455 S
C363 H355 0.930 . S
C363 C364 1.355 . S
C363 C365 1.415 . S
C364 C363 1.355 . S
C364 C366 1.419 . S
C365 C360 1.425 . S
C365 C362 1.409 1_655 S
C365 C363 1.415 . S
C366 H356 0.930 . S
C366 C364 1.419 . S
C366 C367 1.362 . S
C367 H357 0.930 . S
C367 C360 1.409 . S
C367 C366 1.362 . S
H368 C374 0.930 . S
H369 C377 0.930 . S
H370 C378 0.930 . S
H371 C379 0.930 . S
H372 C382 0.930 . S
H373 C383 0.930 . S
C374 H368 0.930 . S
C374 C375 1.355 1_565 S
C374 C376 1.415 . S
C375 C374 1.355 1_545 S
C375 C377 1.419 . S
C376 C374 1.415 . S
C376 C381 1.425 . S
C376 C383 1.409 . S
C377 H369 0.930 . S
C377 C375 1.419 . S
C377 C378 1.362 . S
C378 H370 0.930 . S
C378 C377 1.362 . S
C378 C381 1.409 1_545 S
C379 H371 0.930 . S
C379 C380 1.355 . S
C379 C381 1.415 . S
C380 C379 1.355 . S
C380 C382 1.419 . S
C381 C376 1.425 . S
C381 C378 1.409 1_565 S
C381 C379 1.415 . S
C382 H372 0.930 . S
C382 C380 1.419 . S
C382 C383 1.362 . S
C383 H373 0.930 . S
C383 C376 1.409 . S
C383 C382 1.362 . S
H384 C390 0.930 . S
H385 C393 0.930 . S
H386 C394 0.930 . S
H387 C395 0.930 . S
H388 C398 0.930 . S
H389 C399 0.930 . S
C390 H384 0.930 . S
C390 C391 1.355 . S
C390 C392 1.415 . S
C391 C390 1.355 . S
C391 C393 1.419 . S
C392 C390 1.415 . S
C392 C397 1.425 . S
C392 C399 1.409 . S
C393 H385 0.930 . S
C393 C391 1.419 . S
C393 C394 1.362 . S
C394 H386 0.930 . S
C394 C393 1.362 . S
C394 C397 1.409 . S
C395 H387 0.930 . S
C395 C396 1.355 . S
C395 C397 1.415 . S
C396 C395 1.355 . S
C396 C398 1.419 . S
C397 C392 1.425 . S
C397 C394 1.409 . S
C397 C395 1.415 . S
C398 H388 0.930 . S
C398 C396 1.419 . S
C398 C399 1.362 . S
C399 H389 0.930 . S
C399 C392 1.409 . S
C399 C398 1.362 . S
H400 C406 0.930 . S
H401 C409 0.930 . S
H402 C410 0.930 . S
H403 C411 0.930 . S
H404 C414 0.930 . S
H405 C415 0.930 1_565 S
C406 H400 0.930 . S
C406 C407 1.355 . S
C406 C408 1.415 1_565 S
C407 C406 1.355 . S
C407 C409 1.419 1_565 S
C408 C406 1.415 1_545 S
C408 C413 1.425 . S
C408 C415 1.409 . S
C409 H401 0.930 . S
C409 C407 1.419 1_545 S
C409 C410 1.362 . S
C410 H402 0.930 . S
C410 C409 1.362 . S
C410 C413 1.409 . S
C411 H403 0.930 . S
C411 C412 1.355 . S
C411 C413 1.415 . S
C412 C411 1.355 . S
C412 C414 1.419 . S
C413 C408 1.425 . S
C413 C410 1.409 . S
C413 C411 1.415 . S
C414 H404 0.930 . S
C414 C412 1.419 . S
C414 C415 1.362 . S
C415 H405 0.930 1_545 S
C415 C408 1.409 . S
C415 C414 1.362 . S
H416 C422 0.930 . S
H417 C425 0.930 . S
H418 C426 0.930 . S
H419 C427 0.930 . S
H420 C430 0.930 . S
H421 C431 0.930 . S
C422 H416 0.930 . S
C422 C423 1.355 . S
C422 C424 1.415 . S
C423 C422 1.355 . S
C423 C425 1.419 . S
C424 C422 1.415 . S
C424 C429 1.425 . S
C424 C431 1.409 . S
C425 H417 0.930 . S
C425 C423 1.419 . S
C425 C426 1.362 . S
C426 H418 0.930 . S
C426 C425 1.362 . S
C426 C429 1.409 . S
C427 H419 0.930 . S
C427 C428 1.355 . S
C427 C429 1.415 . S
C428 C427 1.355 . S
C428 C430 1.419 . S
C429 C424 1.425 . S
C429 C426 1.409 . S
C429 C427 1.415 . S
C430 H420 0.930 . S
C430 C428 1.419 . S
C430 C431 1.362 . S
C431 H421 0.930 . S
C431 C424 1.409 . S
C431 C430 1.362 . S
H432 C438 0.930 . S
H433 C441 0.930 . S
H434 C442 0.930 . S
H435 C443 0.930 . S
H436 C446 0.930 . S
H437 C447 0.930 . S
C438 H432 0.930 . S
C438 C439 1.355 . S
C438 C440 1.415 . S
C439 C438 1.355 . S
C439 C441 1.419 . S
C440 C438 1.415 . S
C440 C445 1.425 . S
C440 C447 1.409 . S
C441 H433 0.930 . S
C441 C439 1.419 . S
C441 C442 1.362 . S
C442 H434 0.930 . S
C442 C441 1.362 . S
C442 C445 1.409 . S
C443 H435 0.930 . S
C443 C444 1.355 . S
C443 C445 1.415 . S
C444 C443 1.355 . S
C444 C446 1.419 . S
C445 C440 1.425 . S
C445 C442 1.409 . S
C445 C443 1.415 . S
C446 H436 0.930 . S
C446 C444 1.419 . S
C446 C447 1.362 . S
C447 H437 0.930 . S
C447 C440 1.409 . S
C447 C446 1.362 . S
H448 C454 0.930 . S
H449 C457 0.930 . S
H450 C458 0.930 . S
H451 C459 0.930 . S
H452 C462 0.930 . S
H453 C463 0.930 1_455 S
C454 H448 0.930 . S
C454 C455 1.355 . S
C454 C456 1.415 1_455 S
C455 C454 1.355 . S
C455 C457 1.419 1_455 S
C456 C454 1.415 1_655 S
C456 C461 1.425 . S
C456 C463 1.409 . S
C457 H449 0.930 . S
C457 C455 1.419 1_655 S
C457 C458 1.362 . S
C458 H450 0.930 . S
C458 C457 1.362 . S
C458 C461 1.409 . S
C459 H451 0.930 . S
C459 C460 1.355 . S
C459 C461 1.415 . S
C460 C459 1.355 . S
C460 C462 1.419 . S
C461 C456 1.425 . S
C461 C458 1.409 . S
C461 C459 1.415 . S
C462 H452 0.930 . S
C462 C460 1.419 . S
C462 C463 1.362 . S
C463 H453 0.930 1_655 S
C463 C456 1.409 . S
C463 C462 1.362 . S
H464 C470 0.930 . S
H465 C473 0.930 . S
H466 C474 0.930 . S
H467 C475 0.930 . S
H468 C478 0.930 . S
H469 C479 0.930 . S
C470 H464 0.930 . S
C470 C471 1.355 . S
C470 C472 1.415 . S
C471 C470 1.355 . S
C471 C473 1.419 . S
C472 C470 1.415 . S
C472 C477 1.425 . S
C472 C479 1.409 . S
C473 H465 0.930 . S
C473 C471 1.419 . S
C473 C474 1.362 . S
C474 H466 0.930 . S
C474 C473 1.362 . S
C474 C477 1.409 . S
C475 H467 0.930 . S
C475 C476 1.355 . S
C475 C477 1.415 . S
C476 C475 1.355 . S
C476 C478 1.419 . S
C477 C472 1.425 . S
C477 C474 1.409 . S
C477 C475 1.415 . S
C478 H468 0.930 . S
C478 C476 1.419 . S
C478 C479 1.362 . S
C479 H469 0.930 . S
C479 C472 1.409 . S
C479 C478 1.362 . S
H480 C486 0.930 . S
H481 C489 0.930 . S
H482 C490 0.930 . S
H483 C491 0.930 . S
H484 C494 0.930 . S
H485 C495 0.930 1_655 S
C486 H480 0.930 . S
C486 C487 1.355 . S
C486 C488 1.415 1_655 S
C487 C486 1.355 . S
C487 C489 1.419 1_655 S
C488 C486 1.415 1_455 S
C488 C493 1.425 . S
C488 C495 1.409 . S
C489 H481 0.930 . S
C489 C487 1.419 1_455 S
C489 C490 1.362 . S
C490 H482 0.930 . S
C490 C489 1.362 . S
C490 C493 1.409 . S
C491 H483 0.930 . S
C491 C492 1.355 . S
C491 C493 1.415 . S
C492 C491 1.355 . S
C492 C494 1.419 . S
C493 C488 1.425 . S
C493 C490 1.409 . S
C493 C491 1.415 . S
C494 H484 0.930 . S
C494 C492 1.419 . S
C494 C495 1.362 . S
C495 H485 0.930 1_455 S
C495 C488 1.409 . S
C495 C494 1.362 . S
H496 C502 0.930 . S
H497 C505 0.930 . S
H498 C506 0.930 . S
H499 C507 0.930 . S
H500 C510 0.930 . S
H501 C511 0.930 . S
C502 H496 0.930 . S
C502 C503 1.355 . S
C502 C504 1.415 . S
C503 C502 1.355 . S
C503 C505 1.419 . S
C504 C502 1.415 . S
C504 C509 1.425 . S
C504 C511 1.409 . S
C505 H497 0.930 . S
C505 C503 1.419 . S
C505 C506 1.362 . S
C506 H498 0.930 . S
C506 C505 1.362 . S
C506 C509 1.409 . S
C507 H499 0.930 . S
C507 C508 1.355 . S
C507 C509 1.415 . S
C508 C507 1.355 . S
C508 C510 1.419 . S
C509 C504 1.425 . S
C509 C506 1.409 . S
C509 C507 1.415 . S
C510 H500 0.930 . S
C510 C508 1.419 . S
C510 C511 1.362 . S
C511 H501 0.930 . S
C511 C504 1.409 . S
C511 C510 1.362 . S
H512 C518 0.930 . S
H513 C521 0.930 . S
H514 C522 0.930 . S
H515 C523 0.930 . S
H516 C526 0.930 . S
H517 C527 0.930 . S
C518 H512 0.930 . S
C518 C519 1.355 . S
C518 C520 1.415 . S
C519 C518 1.355 . S
C519 C521 1.419 . S
C520 C518 1.415 . S
C520 C525 1.425 . S
C520 C527 1.409 . S
C521 H513 0.930 . S
C521 C519 1.419 . S
C521 C522 1.362 . S
C522 H514 0.930 . S
C522 C521 1.362 . S
C522 C525 1.409 . S
C523 H515 0.930 . S
C523 C524 1.355 . S
C523 C525 1.415 . S
C524 C523 1.355 . S
C524 C526 1.419 . S
C525 C520 1.425 . S
C525 C522 1.409 . S
C525 C523 1.415 . S
C526 H516 0.930 . S
C526 C524 1.419 . S
C526 C527 1.362 . S
C527 H517 0.930 . S
C527 C520 1.409 . S
C527 C526 1.362 . S
H528 C534 0.930 . S
H529 C537 0.930 . S
H530 C538 0.930 . S
H531 C539 0.930 . S
H532 C542 0.930 . S
H533 C543 0.930 . S
C534 H528 0.930 . S
C534 C535 1.355 . S
C534 C536 1.415 . S
C535 C534 1.355 . S
C535 C537 1.419 . S
C536 C534 1.415 . S
C536 C541 1.425 . S
C536 C543 1.409 . S
C537 H529 0.930 . S
C537 C535 1.419 . S
C537 C538 1.362 . S
C538 H530 0.930 . S
C538 C537 1.362 . S
C538 C541 1.409 . S
C539 H531 0.930 . S
C539 C540 1.355 . S
C539 C541 1.415 . S
C540 C539 1.355 . S
C540 C542 1.419 . S
C541 C536 1.425 . S
C541 C538 1.409 . S
C541 C539 1.415 . S
C542 H532 0.930 . S
C542 C540 1.419 . S
C542 C543 1.362 . S
C543 H533 0.930 . S
C543 C536 1.409 . S
C543 C542 1.362 . S
H544 C550 0.930 . S
H545 C553 0.930 . S
H546 C554 0.930 . S
H547 C555 0.930 . S
H548 C558 0.930 . S
H549 C559 0.930 . S
C550 H544 0.930 . S
C550 C551 1.355 . S
C550 C552 1.415 . S
C551 C550 1.355 . S
C551 C553 1.419 . S
C552 C550 1.415 . S
C552 C557 1.425 . S
C552 C559 1.409 . S
C553 H545 0.930 . S
C553 C551 1.419 . S
C553 C554 1.362 . S
C554 H546 0.930 . S
C554 C553 1.362 . S
C554 C557 1.409 . S
C555 H547 0.930 . S
C555 C556 1.355 . S
C555 C557 1.415 . S
C556 C555 1.355 . S
C556 C558 1.419 . S
C557 C552 1.425 . S
C557 C554 1.409 . S
C557 C555 1.415 . S
C558 H548 0.930 . S
C558 C556 1.419 . S
C558 C559 1.362 . S
C559 H549 0.930 . S
C559 C552 1.409 . S
C559 C558 1.362 . S
H560 C566 0.930 . S
H561 C569 0.930 . S
H562 C570 0.930 . S
H563 C571 0.930 . S
H564 C574 0.930 . S
H565 C575 0.930 . S
C566 H560 0.930 . S
C566 C567 1.355 . S
C566 C568 1.415 . S
C567 C566 1.355 . S
C567 C569 1.419 . S
C568 C566 1.415 . S
C568 C573 1.425 . S
C568 C575 1.409 . S
C569 H561 0.930 . S
C569 C567 1.419 . S
C569 C570 1.362 . S
C570 H562 0.930 . S
C570 C569 1.362 . S
C570 C573 1.409 . S
C571 H563 0.930 . S
C571 C572 1.355 . S
C571 C573 1.415 . S
C572 C571 1.355 . S
C572 C574 1.419 . S
C573 C568 1.425 . S
C573 C570 1.409 . S
C573 C571 1.415 . S
C574 H564 0.930 . S
C574 C572 1.419 . S
C574 C575 1.362 . S
C575 H565 0.930 . S
C575 C568 1.409 . S
C575 C574 1.362 . S
H576 C582 0.930 . S
H577 C585 0.930 . S
H578 C586 0.930 . S
H579 C587 0.930 . S
H580 C590 0.930 . S
H581 C591 0.930 . S
C582 H576 0.930 . S
C582 C583 1.355 . S
C582 C584 1.415 . S
C583 C582 1.355 . S
C583 C585 1.419 . S
C584 C582 1.415 . S
C584 C589 1.425 . S
C584 C591 1.409 . S
C585 H577 0.930 . S
C585 C583 1.419 . S
C585 C586 1.362 . S
C586 H578 0.930 . S
C586 C585 1.362 . S
C586 C589 1.409 . S
C587 H579 0.930 . S
C587 C588 1.355 . S
C587 C589 1.415 . S
C588 C587 1.355 . S
C588 C590 1.419 . S
C589 C584 1.425 . S
C589 C586 1.409 . S
C589 C587 1.415 . S
C590 H580 0.930 . S
C590 C588 1.419 . S
C590 C591 1.362 . S
C591 H581 0.930 . S
C591 C584 1.409 . S
C591 C590 1.362 . S
H592 C598 0.930 . S
H593 C601 0.930 . S
H594 C602 0.930 . S
H595 C603 0.930 . S
H596 C606 0.930 . S
H597 C607 0.930 . S
C598 H592 0.930 . S
C598 C599 1.355 . S
C598 C600 1.415 . S
C599 C598 1.355 . S
C599 C601 1.419 . S
C600 C598 1.415 . S
C600 C605 1.425 . S
C600 C607 1.409 . S
C601 H593 0.930 . S
C601 C599 1.419 . S
C601 C602 1.362 . S
C602 H594 0.930 . S
C602 C601 1.362 . S
C602 C605 1.409 . S
C603 H595 0.930 . S
C603 C604 1.355 . S
C603 C605 1.415 . S
C604 C603 1.355 . S
C604 C606 1.419 . S
C605 C600 1.425 . S
C605 C602 1.409 . S
C605 C603 1.415 . S
C606 H596 0.930 . S
C606 C604 1.419 . S
C606 C607 1.362 . S
C607 H597 0.930 . S
C607 C600 1.409 . S
C607 C606 1.362 . S
H608 C614 0.930 . S
H609 C617 0.930 . S
H610 C618 0.930 . S
H611 C619 0.930 . S
H612 C622 0.930 . S
H613 C623 0.930 . S
C614 H608 0.930 . S
C614 C615 1.355 . S
C614 C616 1.415 . S
C615 C614 1.355 . S
C615 C617 1.419 . S
C616 C614 1.415 . S
C616 C621 1.425 . S
C616 C623 1.409 . S
C617 H609 0.930 . S
C617 C615 1.419 . S
C617 C618 1.362 . S
C618 H610 0.930 . S
C618 C617 1.362 . S
C618 C621 1.409 . S
C619 H611 0.930 . S
C619 C620 1.355 . S
C619 C621 1.415 . S
C620 C619 1.355 . S
C620 C622 1.419 . S
C621 C616 1.425 . S
C621 C618 1.409 . S
C621 C619 1.415 . S
C622 H612 0.930 . S
C622 C620 1.419 . S
C622 C623 1.362 . S
C623 H613 0.930 . S
C623 C616 1.409 . S
C623 C622 1.362 . S
C247 C8 1.453 . S
C252 C90 1.307 . S
C263 C31 1.472 . S
C268 C109 1.454 . S
C279 C53 1.226 . S
C284 C132 1.273 . S
C300 C151 1.161 . S
C295 C74 1.222 . S
C316 C166 1.401 . S
C311 C26 1.414 . S
C327 C48 1.162 . S
C332 C189 1.213 . S
C343 C71 1.249 . S
C348 C208 1.220 . S
C359 C5 1.511 . S
C364 C223 1.368 . S
C375 C50 1.276 . S
C380 C227 1.229 . S
C396 C170 1.208 . S
C391 C70 1.162 . S
C412 C185 1.400 . S
C407 C4 1.416 . S
C423 C28 1.468 . S
C428 C204 1.439 . S
C444 C113 1.271 . S
C439 C73 1.243 . S
C455 C7 1.476 . S
C460 C128 1.395 . S
C476 C147 1.397 . S
C471 C30 1.437 . S
C492 C94 1.195 . S
C487 C52 1.165 . S
C508 C213 1.255 . S
C503 C9 1.409 . S
C524 C232 1.338 . S
C519 C29 1.392 . S
C535 C51 1.334 . S
C540 C175 1.276 . S
C556 C194 1.239 . S
C551 C75 1.348 . S
C572 C137 1.287 . S
C567 C27 1.395 . S
C583 C49 1.334 . S
C588 C156 1.276 . S
C604 C99 1.278 . S
C599 C72 1.313 . S
C620 C118 1.345 . S
C615 C6 1.395 . S
