# Generated by pormake.
# Topology anh, (6,3)-cn, num edge types: 1
# Building blocks:
#     Node 0, Type 0, BuildingBlock: MIFKUJ_clean_sbu_0, # of connection points: 6
#     Node 1, Type 0, BuildingBlock: MIFKUJ_clean_sbu_0, # of connection points: 6
#     Node 2, Type 0, BuildingBlock: MIFKUJ_clean_sbu_0, # of connection points: 6
#     Node 3, Type 1, BuildingBlock: VETTIZ_charged_linker_0, # of connection points: 3
#     Node 4, Type 1, BuildingBlock: VETTIZ_charged_linker_0, # of connection points: 3
#     Node 5, Type 1, BuildingBlock: VETTIZ_charged_linker_0, # of connection points: 3
#     Node 6, Type 1, BuildingBlock: VETTIZ_charged_linker_0, # of connection points: 3
#     Node 7, Type 1, BuildingBlock: VETTIZ_charged_linker_0, # of connection points: 3
#     Node 8, Type 1, BuildingBlock: VETTIZ_charged_linker_0, # of connection points: 3
#     Edge 9, Type (0, 1), BuildingBlock: XIVTED_clean_linker_0, # of connection points: 2
#     Edge 10, Type (0, 1), BuildingBlock: XIVTED_clean_linker_0, # of connection points: 2
#     Edge 11, Type (0, 1), BuildingBlock: XIVTED_clean_linker_0, # of connection points: 2
#     Edge 12, Type (0, 1), BuildingBlock: XIVTED_clean_linker_0, # of connection points: 2
#     Edge 13, Type (0, 1), BuildingBlock: XIVTED_clean_linker_0, # of connection points: 2
#     Edge 14, Type (0, 1), BuildingBlock: XIVTED_clean_linker_0, # of connection points: 2
#     Edge 15, Type (0, 1), BuildingBlock: XIVTED_clean_linker_0, # of connection points: 2
#     Edge 16, Type (0, 1), BuildingBlock: XIVTED_clean_linker_0, # of connection points: 2
#     Edge 17, Type (0, 1), BuildingBlock: XIVTED_clean_linker_0, # of connection points: 2
#     Edge 18, Type (0, 1), BuildingBlock: XIVTED_clean_linker_0, # of connection points: 2
#     Edge 19, Type (0, 1), BuildingBlock: XIVTED_clean_linker_0, # of connection points: 2
#     Edge 20, Type (0, 1), BuildingBlock: XIVTED_clean_linker_0, # of connection points: 2
#     Edge 21, Type (0, 1), BuildingBlock: XIVTED_clean_linker_0, # of connection points: 2
#     Edge 22, Type (0, 1), BuildingBlock: XIVTED_clean_linker_0, # of connection points: 2
#     Edge 23, Type (0, 1), BuildingBlock: XIVTED_clean_linker_0, # of connection points: 2
#     Edge 24, Type (0, 1), BuildingBlock: XIVTED_clean_linker_0, # of connection points: 2
#     Edge 25, Type (0, 1), BuildingBlock: XIVTED_clean_linker_0, # of connection points: 2
#     Edge 26, Type (0, 1), BuildingBlock: XIVTED_clean_linker_0, # of connection points: 2
# Relax obj value: 0.139
# Max RMSD: 0.186
# Mean RMSD: 0.147
data_MOF--net-anh--node1-MIFKUJ_clean_sbu_0--node2-VETTIZ_charged_linker_0--edge1-XIVTED_clean_linker_0
_symmetry_space_group_name_H-M    P1
_symmetry_Int_Tables_number       1
_symmetry_cell_setting            triclinic
loop_
_symmetry_equiv_pos_as_xyz
'x, y, z'
_cell_length_a     37.039052
_cell_length_b     37.007224
_cell_length_c     64.023952
_cell_angle_alpha  93.71047
_cell_angle_beta   90.803741
_cell_angle_gamma 119.81456
loop_
_atom_site_label
_atom_site_type_symbol
_atom_site_fract_x
_atom_site_fract_y
_atom_site_fract_z
_atom_type_partial_charge
Zn0 Zn 0.04645 0.56829 0.1632 0.0
Zn1 Zn 0.92438 0.48176 0.16225 0.0
C2 C 0.10143 0.5389 0.17727 0.0
O3 O 0.10085 0.55778 0.19526 0.0
C4 C 0.88846 0.53403 0.17563 0.0
O5 O 0.92287 0.56464 0.16905 0.0
O6 O 0.09074 0.62859 0.16366 0.0
O7 O 0.0094 0.55444 0.137 0.0
O8 O 0.94148 0.50759 0.13476 0.0
C9 C 0.11316 0.6443 0.14826 0.0
O10 O 0.10628 0.62087 0.13071 0.0
O11 O 0.07833 0.53692 0.16181 0.0
C12 C 0.90405 0.39383 0.15673 0.0
O13 O 0.94308 0.40747 0.16273 0.0
O14 O 0.89108 0.41965 0.15559 0.0
O15 O 0.97333 0.49663 0.1817 0.0
O16 O 0.01756 0.5626 0.18998 0.0
O17 O 0.88395 0.4976 0.17505 0.0
C18 C 0.97432 0.5347 0.12672 0.0
C19 C 0.9864 0.52873 0.19447 0.0
Zn20 Zn 0.56227 0.07178 0.49029 0.0
Zn21 Zn 0.51095 0.94166 0.49608 0.0
C22 C 0.64716 0.1218 0.50442 0.0
O23 O 0.63035 0.12872 0.52102 0.0
C24 C 0.44127 0.86165 0.48804 0.0
O25 O 0.47025 0.85607 0.47935 0.0
O26 O 0.54588 0.11127 0.47844 0.0
O27 O 0.5399 0.01525 0.47736 0.0
O28 O 0.52059 0.95265 0.46518 0.0
C29 C 0.51204 0.11113 0.48163 0.0
O30 O 0.48283 0.08057 0.4913 0.0
O31 O 0.62364 0.09784 0.48909 0.0
C32 C 0.5304 0.89093 0.52028 0.0
O33 O 0.49666 0.88578 0.52926 0.0
O34 O 0.54503 0.91628 0.50608 0.0
O35 O 0.52217 0.99367 0.51541 0.0
O36 O 0.54557 0.06172 0.51998 0.0
O37 O 0.45095 0.89749 0.4966 0.0
C38 C 0.53388 0.99035 0.46165 0.0
C39 C 0.52918 0.02589 0.52727 0.0
Zn40 Zn 0.58621 0.51803 0.83438 0.0
Zn41 Zn 0.4989 0.56086 0.83566 0.0
C42 C 0.55471 0.43132 0.84302 0.0
O43 O 0.54042 0.44155 0.85968 0.0
C44 C 0.55761 0.64791 0.82747 0.0
O45 O 0.57682 0.63251 0.8161 0.0
O46 O 0.64539 0.55574 0.8267 0.0
O47 O 0.5459 0.52855 0.81964 0.0
O48 O 0.50028 0.54048 0.80545 0.0
C49 C 0.65901 0.54276 0.81155 0.0
O50 O 0.63365 0.50669 0.80118 0.0
O51 O 0.5731 0.4581 0.82976 0.0
C52 C 0.43331 0.56286 0.85623 0.0
O53 O 0.46568 0.59287 0.86733 0.0
O54 O 0.43922 0.54113 0.84197 0.0
O55 O 0.52949 0.54599 0.85792 0.0
O56 O 0.5771 0.5279 0.86454 0.0
O57 O 0.52573 0.62345 0.83697 0.0
C58 C 0.52697 0.52892 0.80321 0.0
C59 C 0.54954 0.53661 0.87087 0.0
C60 C 0.63327 0.09912 0.17678 0.0
C61 C 0.67319 0.12779 0.18585 0.0
C62 C 0.67927 0.13352 0.20786 0.0
C63 C 0.60628 0.08487 0.21148 0.0
C64 C 0.60032 0.07783 0.18991 0.0
C65 C 0.55571 0.04619 0.18319 0.0
H66 H 0.35812 0.92227 0.21172 0.0
C67 C 0.56569 0.0605 0.22071 0.0
C68 C 0.53571 0.03779 0.20425 0.0
H69 H 0.40609 0.92252 0.15051 0.0
H70 H 0.47344 0.98062 0.16325 0.0
H71 H 0.42374 0.91754 0.23348 0.0
H72 H 0.4128 0.02605 0.22574 0.0
H73 H 0.42843 0.02813 0.25214 0.0
H74 H 0.37984 0.9845 0.24138 0.0
H75 H 0.39467 0.93186 0.2509 0.0
H76 H 0.44955 0.95091 0.25588 0.0
C77 C 0.55469 0.00692 0.17242 0.0
C78 C 0.53807 0.06675 0.16907 0.0
C79 C 0.55666 0.0652 0.29992 0.0
C80 C 0.5233 0.0439 0.31278 0.0
C81 C 0.48246 0.02076 0.30372 0.0
C82 C 0.47502 0.01726 0.282 0.0
C83 C 0.50889 0.03634 0.26914 0.0
C84 C 0.54877 0.06069 0.27815 0.0
C85 C 0.58088 0.07782 0.26193 0.0
C86 C 0.55381 0.05832 0.24179 0.0
C87 C 0.5118 0.03414 0.24615 0.0
C88 C 0.61175 0.06152 0.26506 0.0
C89 C 0.60117 0.12608 0.26403 0.0
C90 C 0.38293 0.93479 0.20091 0.0
C91 C 0.37681 0.91714 0.18017 0.0
C92 C 0.40987 0.93534 0.1666 0.0
C93 C 0.4491 0.96865 0.1741 0.0
C94 C 0.45541 0.98341 0.19542 0.0
C95 C 0.42234 0.96661 0.20833 0.0
C96 C 0.43509 0.98198 0.23095 0.0
C97 C 0.48143 0.01091 0.22962 0.0
C98 C 0.49324 0.01233 0.20878 0.0
C99 C 0.42515 0.94387 0.2436 0.0
C100 C 0.4128 0.00628 0.23813 0.0
H101 H 0.65283 0.11884 0.23726 0.0
H102 H 0.62776 0.09387 0.15991 0.0
H103 H 0.54584 0.09812 0.17627 0.0
H104 H 0.50381 0.04861 0.16682 0.0
H105 H 0.55151 0.07083 0.15341 0.0
H106 H 0.58104 0.00341 0.17841 0.0
H107 H 0.55694 0.00867 0.1552 0.0
H108 H 0.52644 0.9776 0.17569 0.0
H109 H 0.58838 0.08283 0.30655 0.0
H110 H 0.45638 0.00428 0.31347 0.0
H111 H 0.44331 0.99859 0.27604 0.0
H112 H 0.59533 0.02914 0.27005 0.0
H113 H 0.63654 0.08148 0.2773 0.0
H114 H 0.62644 0.05927 0.25051 0.0
H115 H 0.57846 0.13577 0.26921 0.0
H116 H 0.6115 0.14011 0.24899 0.0
H117 H 0.62799 0.14058 0.27574 0.0
H118 H 0.70946 0.15587 0.21526 0.0
C119 C 0.64614 0.11238 0.22067 0.0
C120 C 0.59986 0.63938 0.53219 0.0
C121 C 0.61045 0.67611 0.54492 0.0
C122 C 0.62389 0.67951 0.566 0.0
C123 C 0.60991 0.60814 0.56229 0.0
C124 C 0.60028 0.60596 0.54115 0.0
C125 C 0.58936 0.56419 0.53019 0.0
H126 H 0.53507 0.3619 0.5388 0.0
C127 C 0.60201 0.56662 0.56741 0.0
C128 C 0.59056 0.54075 0.54862 0.0
H129 H 0.55272 0.42321 0.48164 0.0
H130 H 0.57344 0.48917 0.50195 0.0
H131 H 0.61824 0.43147 0.56157 0.0
H132 H 0.49232 0.40729 0.56383 0.0
H133 H 0.5139 0.42262 0.58961 0.0
H134 H 0.50984 0.37623 0.57623 0.0
H135 H 0.57952 0.3901 0.57546 0.0
H136 H 0.61124 0.4423 0.58782 0.0
C137 C 0.62362 0.57095 0.51475 0.0
C138 C 0.54512 0.54432 0.51959 0.0
C139 C 0.59602 0.53505 0.64385 0.0
C140 C 0.58257 0.49769 0.65352 0.0
C141 C 0.57204 0.46072 0.64103 0.0
C142 C 0.57382 0.4607 0.61918 0.0
C143 C 0.58568 0.49793 0.60965 0.0
C144 C 0.597 0.53438 0.62197 0.0
C145 C 0.60692 0.5705 0.60908 0.0
C146 C 0.5998 0.54969 0.58697 0.0
C147 C 0.58719 0.50723 0.58746 0.0
C148 C 0.65312 0.60451 0.61403 0.0
C149 C 0.57516 0.58522 0.61399 0.0
C150 C 0.54282 0.38941 0.53064 0.0
C151 C 0.5415 0.3874 0.50867 0.0
C152 C 0.55318 0.42412 0.49859 0.0
C153 C 0.56527 0.46223 0.51038 0.0
C154 C 0.56622 0.46357 0.53244 0.0
C155 C 0.55568 0.42755 0.54211 0.0
C156 C 0.56076 0.43479 0.56555 0.0
C157 C 0.57653 0.48126 0.5685 0.0
C158 C 0.57887 0.49796 0.54913 0.0
C159 C 0.59389 0.4239 0.57318 0.0
C160 C 0.51718 0.40881 0.57445 0.0
H161 H 0.63297 0.64977 0.59104 0.0
H162 H 0.59029 0.6364 0.51581 0.0
H163 H 0.52319 0.5461 0.53074 0.0
H164 H 0.53194 0.51098 0.5144 0.0
H165 H 0.54518 0.56094 0.50573 0.0
H166 H 0.65408 0.59873 0.52014 0.0
H167 H 0.61532 0.57599 0.49888 0.0
H168 H 0.62985 0.54462 0.51356 0.0
H169 H 0.60376 0.56382 0.65305 0.0
H170 H 0.56192 0.43167 0.64817 0.0
H171 H 0.56497 0.43144 0.61056 0.0
H172 H 0.67212 0.5906 0.61903 0.0
H173 H 0.6561 0.62769 0.62685 0.0
H174 H 0.66828 0.62104 0.60012 0.0
H175 H 0.54328 0.55791 0.61468 0.0
H176 H 0.57238 0.60383 0.602 0.0
H177 H 0.58337 0.60388 0.62937 0.0
H178 H 0.63225 0.7075 0.57608 0.0
C179 C 0.62376 0.64577 0.57473 0.0
C180 C 0.13449 0.55785 0.85677 0.0
C181 C 0.15802 0.54774 0.87018 0.0
C182 C 0.14407 0.53505 0.89014 0.0
C183 C 0.08692 0.54764 0.88445 0.0
C184 C 0.09889 0.55767 0.8643 0.0
C185 C 0.07054 0.56929 0.85296 0.0
H186 H 0.91372 0.61411 0.85928 0.0
C187 C 0.05173 0.55448 0.88851 0.0
C188 C 0.04155 0.56698 0.87014 0.0
H189 H 0.97464 0.60664 0.80348 0.0
H190 H 0.0188 0.5892 0.82407 0.0
H191 H 0.8993 0.53301 0.87411 0.0
H192 H 0.99727 0.65852 0.89216 0.0
H193 H 0.98002 0.63258 0.91513 0.0
H194 H 0.94404 0.63882 0.89862 0.0
H195 H 0.89139 0.56729 0.89215 0.0
H196 H 0.91084 0.53443 0.90091 0.0
C197 C 0.04705 0.53595 0.83447 0.0
C198 C 0.09707 0.61417 0.84625 0.0
C199 C 0.00329 0.54707 0.96258 0.0
C200 C 0.974 0.55546 0.97204 0.0
C201 C 0.94895 0.56516 0.95949 0.0
C202 C 0.95436 0.56818 0.93789 0.0
C203 C 0.98498 0.56121 0.92877 0.0
C204 C 0.00818 0.55005 0.94106 0.0
C205 C 0.03924 0.54378 0.92888 0.0
C206 C 0.03124 0.55349 0.9072 0.0
C207 C 0.99979 0.56399 0.90727 0.0
C208 C 0.02782 0.49741 0.92941 0.0
C209 C 0.08338 0.57617 0.93843 0.0
C210 C 0.93744 0.61003 0.85154 0.0
C211 C 0.94155 0.61281 0.82987 0.0
C212 C 0.97141 0.60521 0.82024 0.0
C213 C 0.99668 0.59482 0.83218 0.0
C214 C 0.99133 0.59123 0.85384 0.0
C215 C 0.9619 0.59872 0.86305 0.0
C216 C 0.95753 0.5903 0.88572 0.0
C217 C 0.98912 0.57638 0.88878 0.0
C218 C 0.00949 0.57754 0.87021 0.0
C219 C 0.91245 0.55465 0.88856 0.0
C220 C 0.97005 0.632 0.89873 0.0
H221 H 0.10029 0.52561 0.91282 0.0
H222 H 0.14458 0.56736 0.84127 0.0
H223 H 0.11845 0.63529 0.8595 0.0
H224 H 0.07815 0.62801 0.84156 0.0
H225 H 0.11635 0.61481 0.83298 0.0
H226 H 0.04069 0.50457 0.83847 0.0
H227 H 0.06561 0.54368 0.82028 0.0
H228 H 0.01607 0.53192 0.83053 0.0
H229 H 0.02251 0.53886 0.97181 0.0
H230 H 0.92615 0.57171 0.9665 0.0
H231 H 0.93499 0.57656 0.92921 0.0
H232 H 0.99386 0.47671 0.93115 0.0
H233 H 0.0446 0.49326 0.94272 0.0
H234 H 0.03416 0.48481 0.91463 0.0
H235 H 0.08502 0.60628 0.94357 0.0
H236 H 0.10809 0.58464 0.92719 0.0
H237 H 0.09158 0.56473 0.95234 0.0
H238 H 0.16153 0.52655 0.90051 0.0
C239 C 0.10859 0.53468 0.89727 0.0
C240 C 0.94449 0.37241 0.46954 0.0
C241 C 0.90925 0.33702 0.45974 0.0
C242 C 0.89676 0.33807 0.43902 0.0
C243 C 0.95293 0.40915 0.43828 0.0
C244 C 0.9661 0.40804 0.45842 0.0
C245 C 0.00486 0.44836 0.46594 0.0
H246 H 0.1498 0.64582 0.44627 0.0
C247 C 0.98068 0.45083 0.43125 0.0
C248 C 0.01142 0.47413 0.44729 0.0
H249 H 0.14807 0.58006 0.49991 0.0
H250 H 0.08303 0.51976 0.48618 0.0
H251 H 0.12984 0.5738 0.41405 0.0
H252 H 0.0487 0.61273 0.44225 0.0
H253 H 0.03449 0.60097 0.41529 0.0
H254 H 0.0863 0.64204 0.42379 0.0
H255 H 0.12656 0.61745 0.40569 0.0
H256 H 0.09226 0.56488 0.3944 0.0
C257 C 0.0407 0.43888 0.46944 0.0
C258 C 0.99505 0.46742 0.48576 0.0
C259 C 0.95319 0.48409 0.35906 0.0
C260 C 0.97451 0.5193 0.34758 0.0
C261 C 0.00867 0.55574 0.35753 0.0
C262 C 0.02213 0.55659 0.37821 0.0
C263 C 0.00155 0.52054 0.38912 0.0
C264 C 0.96738 0.48532 0.37961 0.0
C265 C 0.94998 0.44959 0.39335 0.0
C266 C 0.97981 0.46899 0.41254 0.0
C267 C 0.0098 0.5105 0.41001 0.0
C268 C 0.95307 0.41289 0.38202 0.0
C269 C 0.90514 0.43926 0.3983 0.0
C270 C 0.13493 0.61876 0.45529 0.0
C271 C 0.15356 0.61772 0.47429 0.0
C272 C 0.13405 0.58145 0.48524 0.0
C273 C 0.09648 0.54655 0.47721 0.0
C274 C 0.07874 0.54777 0.45787 0.0
C275 C 0.09807 0.58358 0.44731 0.0
C276 C 0.07675 0.57873 0.42637 0.0
C277 C 0.04126 0.53411 0.42603 0.0
C278 C 0.04224 0.51609 0.44456 0.0
C279 C 0.10777 0.58422 0.40913 0.0
C280 C 0.06084 0.61034 0.42673 0.0
H281 H 0.90668 0.37261 0.4127 0.0
H282 H 0.95483 0.37234 0.48544 0.0
H283 H 0.96446 0.46586 0.48346 0.0
H284 H 0.01805 0.50074 0.48955 0.0
H285 H 0.99345 0.45007 0.49957 0.0
H286 H 0.0369 0.41265 0.45835 0.0
H287 H 0.04152 0.42991 0.4856 0.0
H288 H 0.07152 0.46536 0.46641 0.0
H289 H 0.92654 0.45573 0.35209 0.0
H290 H 0.02617 0.5832 0.34907 0.0
H291 H 0.04874 0.58499 0.3847 0.0
H292 H 0.97959 0.42447 0.37151 0.0
H293 H 0.92425 0.39156 0.37224 0.0
H294 H 0.9595 0.39461 0.39296 0.0
H295 H 0.90312 0.46828 0.40042 0.0
H296 H 0.89485 0.42433 0.41311 0.0
H297 H 0.88243 0.41888 0.38534 0.0
H298 H 0.8693 0.31153 0.43127 0.0
C299 C 0.91828 0.37383 0.4283 0.0
C300 C 0.55887 0.93686 0.80542 0.0
C301 C 0.56005 0.90354 0.79411 0.0
C302 C 0.54773 0.8949 0.77263 0.0
C303 C 0.5337 0.9521 0.7738 0.0
C304 C 0.54584 0.96091 0.79489 0.0
C305 C 0.54369 0.99838 0.80404 0.0
H306 H 0.51002 0.15855 0.78646 0.0
C307 C 0.52142 0.98217 0.76746 0.0
C308 C 0.52685 0.00938 0.7851 0.0
H309 H 0.55609 0.13823 0.8442 0.0
H310 H 0.5458 0.07168 0.82863 0.0
H311 H 0.56076 0.1326 0.75665 0.0
H312 H 0.43541 0.06518 0.7765 0.0
H313 H 0.43338 0.04494 0.75066 0.0
H314 H 0.44893 0.09949 0.75585 0.0
H315 H 0.52031 0.14312 0.74894 0.0
H316 H 0.52825 0.10482 0.73432 0.0
C317 C 0.58849 0.03304 0.81123 0.0
C318 C 0.51282 0.98457 0.82179 0.0
C319 C 0.48354 0.98132 0.69077 0.0
C320 C 0.47261 0.00676 0.68 0.0
C321 C 0.46402 0.03499 0.69171 0.0
C322 C 0.46933 0.04009 0.71361 0.0
C323 C 0.48362 0.01691 0.72398 0.0
C324 C 0.48871 0.98684 0.71269 0.0
C325 C 0.50262 0.96421 0.72651 0.0
C326 C 0.50682 0.98703 0.74781 0.0
C327 C 0.49633 0.01824 0.74613 0.0
C328 C 0.54526 0.97116 0.71927 0.0
C329 C 0.46757 0.91777 0.7255 0.0
C330 C 0.51761 0.13954 0.79577 0.0
C331 C 0.53437 0.15349 0.81634 0.0
C332 C 0.54335 0.12791 0.82821 0.0
C333 C 0.5377 0.08964 0.81907 0.0
C334 C 0.52304 0.07723 0.79793 0.0
C335 C 0.51233 0.10173 0.7869 0.0
C336 C 0.49788 0.08477 0.76462 0.0
C337 C 0.50263 0.04643 0.76372 0.0
C338 C 0.51754 0.04202 0.7832 0.0
C339 C 0.52799 0.11787 0.75023 0.0
C340 C 0.45162 0.07318 0.76156 0.0
H341 H 0.52536 0.91035 0.74614 0.0
H342 H 0.5682 0.94419 0.82195 0.0
H343 H 0.48487 0.95366 0.81716 0.0
H344 H 0.50082 0.00612 0.82536 0.0
H345 H 0.52749 0.98163 0.83635 0.0
H346 H 0.61127 0.03373 0.79989 0.0
H347 H 0.59779 0.02759 0.82677 0.0
H348 H 0.59252 0.06468 0.81201 0.0
H349 H 0.49027 0.95921 0.68235 0.0
H350 H 0.45434 0.05411 0.68389 0.0
H351 H 0.46359 0.06302 0.72153 0.0
H352 H 0.56486 0.00354 0.71462 0.0
H353 H 0.5411 0.94929 0.70552 0.0
H354 H 0.56416 0.96797 0.73171 0.0
H355 H 0.43644 0.91436 0.72203 0.0
H356 H 0.46455 0.90389 0.74063 0.0
H357 H 0.47254 0.89857 0.71306 0.0
H358 H 0.54757 0.86892 0.76369 0.0
C359 C 0.53443 0.91878 0.76248 0.0
C360 C 0.59502 0.53552 0.16226 0.0
C361 C 0.63257 0.54153 0.15403 0.0
C362 C 0.63654 0.54144 0.13224 0.0
C363 C 0.56644 0.52889 0.12686 0.0
C364 C 0.56237 0.52971 0.14831 0.0
C365 C 0.52063 0.52493 0.15376 0.0
H366 H 0.33014 0.48857 0.11777 0.0
C367 C 0.52727 0.52122 0.11646 0.0
C368 C 0.49987 0.51865 0.13201 0.0
H369 H 0.37966 0.52063 0.18206 0.0
H370 H 0.44249 0.521 0.17132 0.0
H371 H 0.40708 0.55714 0.10069 0.0
H372 H 0.36692 0.4269 0.10352 0.0
H373 H 0.38601 0.44059 0.07853 0.0
H374 H 0.34214 0.44573 0.0865 0.0
H375 H 0.36838 0.51774 0.08232 0.0
H376 H 0.42322 0.54237 0.07773 0.0
C377 C 0.52862 0.56599 0.16587 0.0
C378 C 0.49724 0.48602 0.16618 0.0
C379 C 0.515 0.51115 0.03693 0.0
C380 C 0.48269 0.50358 0.02239 0.0
C381 C 0.44368 0.49463 0.02986 0.0
C382 C 0.43728 0.49401 0.05141 0.0
C383 C 0.4703 0.50274 0.06575 0.0
C384 C 0.50811 0.5105 0.05837 0.0
C385 C 0.53953 0.51865 0.07576 0.0
C386 C 0.51467 0.51555 0.09489 0.0
C387 C 0.47433 0.50639 0.08896 0.0
C388 C 0.57695 0.56346 0.07458 0.0
C389 C 0.55063 0.48332 0.07355 0.0
C390 C 0.35443 0.49607 0.12968 0.0
C391 C 0.34988 0.50534 0.15077 0.0
C392 C 0.38212 0.51343 0.16567 0.0
C393 C 0.41885 0.51417 0.15937 0.0
C394 C 0.42365 0.5073 0.13794 0.0
C395 C 0.39142 0.49825 0.12361 0.0
C396 C 0.40227 0.49508 0.10137 0.0
C397 C 0.44647 0.50382 0.1045 0.0
C398 C 0.45903 0.51033 0.12595 0.0
C399 C 0.39995 0.52952 0.08974 0.0
C400 C 0.37276 0.44987 0.09178 0.0
H401 H 0.60904 0.53506 0.10226 0.0
H402 H 0.59145 0.53583 0.17902 0.0
H403 H 0.49815 0.45891 0.15819 0.0
H404 H 0.46402 0.47627 0.16748 0.0
H405 H 0.5118 0.49185 0.18223 0.0
H406 H 0.55507 0.59355 0.15948 0.0
H407 H 0.53649 0.56655 0.18274 0.0
H408 H 0.50193 0.57129 0.16441 0.0
H409 H 0.54551 0.51854 0.03183 0.0
H410 H 0.41803 0.48799 0.01901 0.0
H411 H 0.40696 0.48718 0.05608 0.0
H412 H 0.56649 0.58465 0.06878 0.0
H413 H 0.60013 0.5635 0.06374 0.0
H414 H 0.59278 0.57853 0.09003 0.0
H415 H 0.52368 0.45348 0.06666 0.0
H416 H 0.55825 0.47555 0.08877 0.0
H417 H 0.57695 0.49147 0.06318 0.0
H418 H 0.66508 0.54573 0.12564 0.0
C419 C 0.60381 0.53501 0.11867 0.0
H420 H 0.1253 0.51873 0.14015 0.0
H421 H 0.30563 0.48439 0.18698 0.0
H422 H 0.15158 0.53196 0.207 0.0
H423 H 0.30937 0.53555 0.12773 0.0
H424 H 0.24258 0.48842 0.19441 0.0
H425 H 0.18452 0.50805 0.13476 0.0
C426 C 0.14311 0.51878 0.15373 0.0
C427 C 0.1336 0.52662 0.17406 0.0
C428 C 0.25735 0.49848 0.17977 0.0
C429 C 0.20167 0.51448 0.16793 0.0
C430 C 0.29343 0.49645 0.17555 0.0
C431 C 0.31264 0.5088 0.15647 0.0
C432 C 0.24018 0.5124 0.16469 0.0
C433 C 0.29512 0.52412 0.1423 0.0
C434 C 0.17712 0.51297 0.15062 0.0
C435 C 0.158 0.52634 0.19104 0.0
N436 N 0.25987 0.52507 0.14661 0.0
N437 N 0.19105 0.5205 0.18761 0.0
H438 H 0.70553 0.18496 0.53129 0.0
H439 H 0.87731 0.25471 0.44632 0.0
H440 H 0.69209 0.11356 0.47272 0.0
H441 H 0.87986 0.33533 0.49877 0.0
H442 H 0.81949 0.1952 0.46114 0.0
H443 H 0.77841 0.23207 0.52464 0.0
C444 C 0.71808 0.17878 0.5172 0.0
C445 C 0.69253 0.14592 0.50231 0.0
C446 C 0.83324 0.22574 0.46964 0.0
C447 C 0.77577 0.19967 0.49462 0.0
C448 C 0.86624 0.25965 0.46122 0.0
C449 C 0.88274 0.30003 0.47117 0.0
C450 C 0.81654 0.23237 0.48807 0.0
C451 C 0.86787 0.30472 0.49058 0.0
C452 C 0.75968 0.20571 0.51341 0.0
C453 C 0.71053 0.13905 0.48444 0.0
N454 N 0.83501 0.27137 0.49822 0.0
N455 N 0.75096 0.1661 0.48094 0.0
H456 H 0.61549 0.70725 0.80391 0.0
H457 H 0.53292 0.86635 0.8307 0.0
H458 H 0.5259 0.68977 0.85031 0.0
H459 H 0.6135 0.87747 0.78057 0.0
H460 H 0.54197 0.81003 0.84324 0.0
H461 H 0.62648 0.77729 0.80015 0.0
C462 C 0.59857 0.71833 0.81353 0.0
C463 C 0.56921 0.69233 0.82718 0.0
C464 C 0.55822 0.82525 0.82969 0.0
C465 C 0.58148 0.77235 0.82289 0.0
C466 C 0.5533 0.85759 0.82265 0.0
C467 C 0.57195 0.87601 0.8044 0.0
C468 C 0.58194 0.81138 0.81837 0.0
C469 C 0.59792 0.86342 0.79448 0.0
C470 C 0.60481 0.75831 0.81136 0.0
C471 C 0.5484 0.70849 0.83935 0.0
N472 N 0.60171 0.83153 0.80142 0.0
N473 N 0.55457 0.74725 0.83674 0.0
H474 H 0.88434 0.60594 0.175 0.0
H475 H 0.63629 0.48401 0.17724 0.0
H476 H 0.81054 0.47597 0.18681 0.0
H477 H 0.71011 0.60948 0.15915 0.0
H478 H 0.70044 0.4857 0.18926 0.0
H479 H 0.82208 0.61255 0.17724 0.0
C480 C 0.8552 0.57891 0.17837 0.0
C481 C 0.85263 0.54016 0.18035 0.0
C482 C 0.70257 0.51329 0.18318 0.0
C483 C 0.78094 0.54746 0.18281 0.0
C484 C 0.66594 0.51245 0.17657 0.0
C485 C 0.66812 0.54668 0.16727 0.0
C486 C 0.74149 0.54856 0.18032 0.0
C487 C 0.70727 0.58253 0.16631 0.0
C488 C 0.81957 0.5827 0.17963 0.0
C489 C 0.81397 0.50636 0.1849 0.0
N490 N 0.74243 0.58234 0.17247 0.0
N491 N 0.77958 0.51064 0.18569 0.0
H492 H 0.37014 0.86441 0.4954 0.0
H493 H 0.22369 0.61577 0.48601 0.0
H494 H 0.41535 0.77849 0.482 0.0
H495 H 0.17739 0.70063 0.47803 0.0
H496 H 0.29437 0.67576 0.49201 0.0
H497 H 0.29925 0.80493 0.49567 0.0
C498 C 0.36514 0.83303 0.49262 0.0
C499 C 0.39851 0.82628 0.48855 0.0
C500 C 0.26864 0.68121 0.48918 0.0
C501 C 0.31788 0.75835 0.4891 0.0
C502 C 0.22834 0.64708 0.48598 0.0
C503 C 0.19485 0.6534 0.48145 0.0
C504 C 0.27528 0.72183 0.48801 0.0
C505 C 0.20254 0.69454 0.48132 0.0
C506 C 0.32476 0.79917 0.49276 0.0
C507 C 0.39039 0.78504 0.48502 0.0
N508 N 0.24201 0.72724 0.48445 0.0
N509 N 0.35086 0.75258 0.48541 0.0
H510 H 0.51674 0.3659 0.86785 0.0
H511 H 0.58803 0.22523 0.8 0.0
H512 H 0.58917 0.40374 0.81302 0.0
H513 H 0.50342 0.17801 0.84972 0.0
H514 H 0.59599 0.29416 0.80813 0.0
H515 H 0.51667 0.29954 0.86422 0.0
C516 C 0.53252 0.36024 0.85502 0.0
C517 C 0.5528 0.39036 0.84064 0.0
C518 C 0.57597 0.26899 0.81747 0.0
C519 C 0.55324 0.31482 0.83659 0.0
C520 C 0.57169 0.22977 0.81291 0.0
C521 C 0.54494 0.19614 0.82419 0.0
C522 C 0.55301 0.27465 0.83331 0.0
C523 C 0.52443 0.20338 0.84076 0.0
C524 C 0.53257 0.32243 0.85302 0.0
C525 C 0.5729 0.38141 0.82441 0.0
N526 N 0.5285 0.2419 0.84471 0.0
N527 N 0.5726 0.34452 0.82285 0.0
H528 H 0.60954 0.90344 0.51611 0.0
H529 H 0.53951 0.66464 0.52544 0.0
H530 H 0.48581 0.81165 0.53165 0.0
H531 H 0.66265 0.76126 0.548 0.0
H532 H 0.52197 0.71848 0.51839 0.0
H533 H 0.63215 0.85167 0.52001 0.0
C534 C 0.58727 0.87252 0.52039 0.0
C535 C 0.54587 0.86182 0.52372 0.0
C536 C 0.55299 0.72785 0.52464 0.0
C537 C 0.571 0.80265 0.52746 0.0
C538 C 0.56315 0.69724 0.52844 0.0
C539 C 0.60255 0.70862 0.53732 0.0
C540 C 0.58261 0.77014 0.52945 0.0
C541 C 0.63187 0.75133 0.54122 0.0
C542 C 0.60014 0.84316 0.52259 0.0
C543 C 0.51813 0.82135 0.52918 0.0
N544 N 0.62131 0.7807 0.53726 0.0
N545 N 0.53108 0.79312 0.53066 0.0
H546 H 0.721 0.6176 0.83012 0.0
H547 H 0.89321 0.56467 0.79539 0.0
H548 H 0.69913 0.51879 0.78314 0.0
H549 H 0.91753 0.67109 0.83737 0.0
H550 H 0.82681 0.55805 0.78394 0.0
H551 H 0.79589 0.64722 0.82697 0.0
C552 C 0.73192 0.60247 0.81891 0.0
C553 C 0.70378 0.56507 0.80727 0.0
C554 C 0.84713 0.58359 0.79524 0.0
C555 C 0.78954 0.59859 0.80369 0.0
C556 C 0.88529 0.58763 0.8016 0.0
C557 C 0.91034 0.61788 0.81768 0.0
C558 C 0.83396 0.60971 0.80524 0.0
C559 C 0.89855 0.64675 0.82525 0.0
C560 C 0.77474 0.61945 0.81707 0.0
C561 C 0.71971 0.54722 0.79275 0.0
N562 N 0.86073 0.64134 0.81936 0.0
N563 N 0.76152 0.56368 0.79166 0.0
H564 H 0.16552 0.6913 0.11849 0.0
H565 H 0.33415 0.85164 0.20388 0.0
H566 H 0.14393 0.69463 0.18452 0.0
H567 H 0.33091 0.89054 0.14202 0.0
H568 H 0.26869 0.78807 0.195 0.0
H569 H 0.22957 0.75966 0.12479 0.0
C570 C 0.174 0.70649 0.13424 0.0
C571 C 0.14952 0.68705 0.15105 0.0
C572 C 0.28205 0.81061 0.18339 0.0
C573 C 0.22252 0.76439 0.15827 0.0
C574 C 0.31942 0.8472 0.18847 0.0
C575 C 0.33764 0.87735 0.17391 0.0
C576 C 0.26271 0.80319 0.1634 0.0
C577 C 0.31785 0.86838 0.1538 0.0
C578 C 0.2104 0.74542 0.13776 0.0
C579 C 0.16183 0.7082 0.17109 0.0
N580 N 0.28128 0.83195 0.1491 0.0
N581 N 0.19766 0.74539 0.17416 0.0
H582 H 0.44706 0.12493 0.48937 0.0
H583 H 0.58586 0.37073 0.47958 0.0
H584 H 0.57115 0.18422 0.46659 0.0
H585 H 0.47154 0.31232 0.51177 0.0
H586 H 0.57327 0.3012 0.46673 0.0
H587 H 0.44817 0.19151 0.48966 0.0
C588 C 0.4743 0.15174 0.4841 0.0
C589 C 0.5093 0.14902 0.47827 0.0
C590 C 0.55053 0.30363 0.47626 0.0
C591 C 0.51093 0.22559 0.47875 0.0
C592 C 0.55755 0.34326 0.48343 0.0
C593 C 0.52988 0.34705 0.49689 0.0
C594 C 0.51552 0.26775 0.48258 0.0
C595 C 0.49383 0.31057 0.50159 0.0
C596 C 0.47495 0.18983 0.48432 0.0
C597 C 0.54358 0.18486 0.47143 0.0
N598 N 0.48792 0.27247 0.49464 0.0
N599 N 0.54376 0.22177 0.47214 0.0
H600 H 0.41124 0.60466 0.88509 0.0
H601 H 0.17715 0.50883 0.83769 0.0
H602 H 0.36129 0.51311 0.83178 0.0
H603 H 0.23144 0.59909 0.89116 0.0
H604 H 0.24473 0.51202 0.83341 0.0
H605 H 0.34521 0.60354 0.88653 0.0
C606 C 0.38624 0.58404 0.87375 0.0
C607 C 0.39184 0.55894 0.8583 0.0
C608 C 0.24186 0.53139 0.84594 0.0
C609 C 0.31585 0.55776 0.85971 0.0
C610 C 0.20355 0.52982 0.84823 0.0
C611 C 0.19905 0.55362 0.86483 0.0
C612 C 0.27549 0.55701 0.86035 0.0
C613 C 0.2338 0.5801 0.87825 0.0
C614 C 0.34849 0.58355 0.87451 0.0
C615 C 0.35824 0.53288 0.84401 0.0
N616 N 0.27042 0.5809 0.87579 0.0
N617 N 0.32162 0.53302 0.84502 0.0
H618 H 0.91399 0.32849 0.16741 0.0
H619 H 0.66991 0.17077 0.15339 0.0
H620 H 0.82512 0.35602 0.13883 0.0
H621 H 0.75527 0.14866 0.18944 0.0
H622 H 0.72922 0.22971 0.13911 0.0
H623 H 0.85936 0.25514 0.1672 0.0
C624 C 0.88322 0.319 0.16076 0.0
C625 C 0.87382 0.34856 0.15358 0.0
C626 C 0.73501 0.21146 0.14982 0.0
C627 C 0.81128 0.26486 0.1533 0.0
C628 C 0.70112 0.17754 0.15783 0.0
C629 C 0.70773 0.15543 0.17299 0.0
C630 C 0.7757 0.22338 0.15712 0.0
C631 C 0.74887 0.16564 0.17819 0.0
C632 C 0.85203 0.27714 0.16066 0.0
C633 C 0.83351 0.33445 0.14495 0.0
N634 N 0.78134 0.19937 0.17057 0.0
N635 N 0.80362 0.29375 0.1453 0.0
H636 H 0.03707 0.59128 0.10438 0.0
H637 H 0.90412 0.51834 0.99486 0.0
H638 H 0.90711 0.49585 0.09818 0.0
H639 H 0.03805 0.59403 0.00148 0.0
H640 H 0.90201 0.51692 0.03318 0.0
H641 H 0.03516 0.60006 0.06716 0.0
C642 C 0.00803 0.57223 0.09523 0.0
C643 C 0.97235 0.54238 0.10444 0.0
C644 C 0.93179 0.53395 0.0262 0.0
C645 C 0.96997 0.55234 0.06162 0.0
C646 C 0.93297 0.5349 0.00441 0.0
C647 C 0.97135 0.55593 0.99507 0.0
C648 C 0.96923 0.55459 0.03862 0.0
C649 C 0.00788 0.57686 0.00806 0.0
C650 C 0.00698 0.57727 0.07393 0.0
C651 C 0.93549 0.51902 0.09174 0.0
N652 N 0.00591 0.57558 0.02915 0.0
N653 N 0.93531 0.52431 0.07092 0.0
H654 H 0.54386 0.94867 0.42776 0.0
H655 H 0.56313 0.10746 0.34409 0.0
H656 H 0.54608 0.06362 0.44709 0.0
H657 H 0.50194 0.97358 0.33177 0.0
H658 H 0.57466 0.09965 0.38128 0.0
H659 H 0.5495 0.96675 0.39153 0.0
C660 C 0.54582 0.97789 0.42439 0.0
C661 C 0.5435 0.00425 0.44035 0.0
C662 C 0.5589 0.07217 0.37032 0.0
C663 C 0.54958 0.02489 0.39894 0.0
C664 C 0.55235 0.07658 0.34925 0.0
C665 C 0.5312 0.04101 0.33508 0.0
C666 C 0.54516 0.03205 0.37687 0.0
C667 C 0.5179 0.00166 0.34232 0.0
C668 C 0.549 0.98816 0.40373 0.0
C669 C 0.54726 0.04225 0.43517 0.0
N670 N 0.52524 0.99826 0.36267 0.0
N671 N 0.54954 0.05129 0.41478 0.0
H672 H 0.60327 0.55651 0.78791 0.0
H673 H 0.51475 0.44208 0.67338 0.0
H674 H 0.47232 0.48003 0.77085 0.0
H675 H 0.63617 0.5515 0.68545 0.0
H676 H 0.50229 0.44469 0.71076 0.0
H677 H 0.6192 0.54387 0.75201 0.0
C678 C 0.57802 0.53607 0.77669 0.0
C679 C 0.53661 0.51849 0.78229 0.0
C680 C 0.53178 0.4679 0.70523 0.0
C681 C 0.5542 0.50482 0.74127 0.0
C682 C 0.53904 0.46627 0.68396 0.0
C683 C 0.57649 0.49675 0.67634 0.0
C684 C 0.56237 0.49998 0.719 0.0
C685 C 0.60672 0.52769 0.69069 0.0
C686 C 0.58701 0.52937 0.75619 0.0
C687 C 0.50469 0.49385 0.76706 0.0
N688 N 0.59899 0.52856 0.71136 0.0
N689 N 0.51414 0.48763 0.7472 0.0
H690 H 0.53924 0.08813 0.55622 0.0
H691 H 0.44792 0.9402 0.6503 0.0
H692 H 0.49327 0.95527 0.54889 0.0
H693 H 0.50276 0.07442 0.65685 0.0
H694 H 0.45889 0.94355 0.61265 0.0
H695 H 0.521 0.08216 0.59267 0.0
C696 C 0.52526 0.05761 0.56226 0.0
C697 C 0.51789 0.02213 0.54943 0.0
C698 C 0.46819 0.97218 0.62234 0.0
C699 C 0.49684 0.01508 0.59138 0.0
C700 C 0.46202 0.97032 0.64384 0.0
C701 C 0.47448 0.00709 0.65683 0.0
C702 C 0.48704 0.0111 0.6138 0.0
C703 C 0.49206 0.04515 0.6475 0.0
C704 C 0.5148 0.05423 0.58312 0.0
C705 C 0.49961 0.98345 0.5582 0.0
N706 N 0.49799 0.04615 0.62664 0.0
N707 N 0.48978 0.98096 0.57867 0.0
H708 H 0.49348 0.55312 0.89096 0.0
H709 H 0.52717 0.47546 -0.00047 0.0
H710 H 0.58301 0.51306 0.90188 0.0
H711 H 0.45557 0.53763 0.99335 0.0
H712 H 0.54346 0.48434 0.96281 0.0
H713 H 0.47547 0.54404 0.92765 0.0
C714 C 0.50958 0.54276 0.90107 0.0
C715 C 0.53993 0.53403 0.89329 0.0
C716 C 0.52417 0.49605 0.96946 0.0
C717 C 0.51905 0.52299 0.93519 0.0
C718 C 0.51493 0.49108 0.99047 0.0
C719 C 0.49024 0.50613 -0.00036 0.0
C720 C 0.50854 0.51612 0.9574 0.0
C721 C 0.47445 0.52523 0.98693 0.0
C722 C 0.49919 0.53746 0.922 0.0
C723 C 0.55953 0.52034 0.90713 0.0
N724 N 0.48398 0.52981 0.96647 0.0
N725 N 0.54864 0.51512 0.92733 0.0
H726 H 0.9975 0.59201 0.22284 0.0
H727 H 0.94925 0.45289 0.31813 0.0
H728 H 0.94189 0.45786 0.21497 0.0
H729 H 0.97532 0.58064 0.32508 0.0
H730 H 0.93991 0.45238 0.2804 0.0
H731 H 0.98337 0.58736 0.25997 0.0
C732 C 0.98184 0.56149 0.2289 0.0
C733 C 0.97161 0.52534 0.21592 0.0
C734 C 0.94706 0.48035 0.29019 0.0
C735 C 0.95576 0.5198 0.25846 0.0
C736 C 0.95221 0.48063 0.31183 0.0
C737 C 0.9636 0.51707 0.3249 0.0
C738 C 0.95391 0.51691 0.28145 0.0
C739 C 0.96759 0.55217 0.31562 0.0
C740 C 0.97368 0.55884 0.2501 0.0
C741 C 0.95074 0.48657 0.22449 0.0
N742 N 0.96332 0.5514 0.29446 0.0
N743 N 0.94419 0.48487 0.24534 0.0
loop_
_geom_bond_atom_site_label_1
_geom_bond_atom_site_label_2
_geom_bond_distance
_geom_bond_site_symmetry_2
_ccdc_geom_bond_type
Zn0 O6 1.969 . S
Zn0 O7 1.965 . S
Zn0 O11 2.024 . S
Zn0 O16 1.969 . S
Zn1 O8 1.969 . S
Zn1 O14 1.969 . S
Zn1 O15 1.965 . S
Zn1 O17 2.024 . S
C2 O3 1.229 . S
C2 O11 1.058 . S
O3 C2 1.229 . S
C4 O5 1.229 . S
C4 O17 1.058 . S
O5 C4 1.229 . S
O6 Zn0 1.969 . S
O6 C9 1.267 . S
O7 Zn0 1.965 . S
O7 C18 1.260 1_455 S
O8 Zn1 1.969 . S
O8 C18 1.258 . S
C9 O6 1.267 . S
C9 O10 1.228 . S
O10 C9 1.228 . S
O11 Zn0 2.024 . S
O11 C2 1.058 . S
C12 O13 1.228 . S
C12 O14 1.267 . S
O13 C12 1.228 . S
O14 Zn1 1.969 . S
O14 C12 1.267 . S
O15 Zn1 1.965 . S
O15 C19 1.260 1_655 S
O16 Zn0 1.969 . S
O16 C19 1.258 . S
O17 Zn1 2.024 . S
O17 C4 1.058 . S
C18 O7 1.260 1_655 S
C18 O8 1.258 . S
C19 O15 1.260 1_455 S
C19 O16 1.258 . S
Zn20 O26 1.969 . S
Zn20 O27 1.965 . S
Zn20 O31 2.024 . S
Zn20 O36 1.969 . S
Zn21 O28 1.969 . S
Zn21 O34 1.969 . S
Zn21 O35 1.965 . S
Zn21 O37 2.024 . S
C22 O23 1.229 . S
C22 O31 1.058 . S
O23 C22 1.229 . S
C24 O25 1.229 . S
C24 O37 1.058 . S
O25 C24 1.229 . S
O26 Zn20 1.969 . S
O26 C29 1.267 . S
O27 Zn20 1.965 . S
O27 C38 1.260 . S
O28 Zn21 1.969 . S
O28 C38 1.258 1_565 S
C29 O26 1.267 . S
C29 O30 1.228 . S
O30 C29 1.228 . S
O31 Zn20 2.024 . S
O31 C22 1.058 . S
C32 O33 1.228 . S
C32 O34 1.267 . S
O33 C32 1.228 . S
O34 Zn21 1.969 . S
O34 C32 1.267 . S
O35 Zn21 1.965 . S
O35 C39 1.260 1_565 S
O36 Zn20 1.969 . S
O36 C39 1.258 . S
O37 Zn21 2.024 . S
O37 C24 1.058 . S
C38 O27 1.260 . S
C38 O28 1.258 1_545 S
C39 O35 1.260 1_545 S
C39 O36 1.258 . S
Zn40 O46 1.969 . S
Zn40 O47 1.965 . S
Zn40 O51 2.024 . S
Zn40 O56 1.969 . S
Zn41 O48 1.969 . S
Zn41 O54 1.969 . S
Zn41 O55 1.965 . S
Zn41 O57 2.024 . S
C42 O43 1.229 . S
C42 O51 1.058 . S
O43 C42 1.229 . S
C44 O45 1.229 . S
C44 O57 1.058 . S
O45 C44 1.229 . S
O46 Zn40 1.969 . S
O46 C49 1.267 . S
O47 Zn40 1.965 . S
O47 C58 1.260 . S
O48 Zn41 1.969 . S
O48 C58 1.258 . S
C49 O46 1.267 . S
C49 O50 1.228 . S
O50 C49 1.228 . S
O51 Zn40 2.024 . S
O51 C42 1.058 . S
C52 O53 1.228 . S
C52 O54 1.267 . S
O53 C52 1.228 . S
O54 Zn41 1.969 . S
O54 C52 1.267 . S
O55 Zn41 1.965 . S
O55 C59 1.260 . S
O56 Zn40 1.969 . S
O56 C59 1.258 . S
O57 Zn41 2.024 . S
O57 C44 1.058 . S
C58 O47 1.260 . S
C58 O48 1.258 . S
C59 O55 1.260 . S
C59 O56 1.258 . S
C60 C61 1.391 . S
C60 C64 1.391 . S
C60 H102 0.948 . S
C61 C60 1.391 . S
C61 C62 1.391 . S
C62 C61 1.391 . S
C62 H118 0.947 . S
C62 C119 1.392 . S
C63 C64 1.391 . S
C63 C67 1.397 . S
C63 C119 1.419 . S
C64 C60 1.391 . S
C64 C63 1.391 . S
C64 C65 1.399 . S
C65 C64 1.399 . S
C65 C68 1.396 . S
C65 C77 1.453 . S
C65 C78 1.684 . S
H66 C90 0.948 . S
C67 C63 1.397 . S
C67 C68 1.394 . S
C67 C86 1.723 . S
C68 C65 1.396 . S
C68 C67 1.394 . S
C68 C98 1.726 . S
H69 C92 0.947 . S
H70 C93 0.948 . S
H71 C99 0.982 . S
H72 C100 0.979 . S
H73 C100 0.980 . S
H74 C100 0.983 . S
H75 C99 0.979 . S
H76 C99 0.977 . S
C77 C65 1.453 . S
C77 H106 0.982 . S
C77 H107 0.979 . S
C77 H108 0.977 . S
C78 C65 1.684 . S
C78 H103 0.979 . S
C78 H104 0.980 . S
C78 H105 0.983 . S
C79 C80 1.391 . S
C79 C84 1.391 . S
C79 H109 0.948 . S
C80 C79 1.391 . S
C80 C81 1.391 1_545 S
C81 C80 1.391 1_565 S
C81 C82 1.392 . S
C81 H110 0.947 . S
C82 C81 1.392 . S
C82 C83 1.419 1_565 S
C82 H111 0.948 . S
C83 C82 1.419 1_545 S
C83 C84 1.391 . S
C83 C87 1.397 . S
C84 C79 1.391 . S
C84 C83 1.391 . S
C84 C85 1.399 . S
C85 C84 1.399 . S
C85 C86 1.396 . S
C85 C88 1.453 . S
C85 C89 1.684 . S
C86 C67 1.723 . S
C86 C85 1.396 . S
C86 C87 1.394 . S
C87 C83 1.397 . S
C87 C86 1.394 . S
C87 C97 1.723 1_545 S
C88 C85 1.453 . S
C88 H112 0.982 . S
C88 H113 0.979 . S
C88 H114 0.977 . S
C89 C85 1.684 . S
C89 H115 0.979 . S
C89 H116 0.980 . S
C89 H117 0.983 . S
C90 H66 0.948 . S
C90 C91 1.391 . S
C90 C95 1.391 . S
C91 C90 1.391 . S
C91 C92 1.391 . S
C92 H69 0.947 . S
C92 C91 1.391 . S
C92 C93 1.392 . S
C93 H70 0.948 . S
C93 C92 1.392 . S
C93 C94 1.419 . S
C94 C93 1.419 . S
C94 C95 1.391 . S
C94 C98 1.395 1_565 S
C95 C90 1.391 . S
C95 C94 1.391 . S
C95 C96 1.399 . S
C96 C95 1.399 . S
C96 C97 1.396 . S
C96 C99 1.453 . S
C96 C100 1.684 . S
C97 C87 1.723 1_565 S
C97 C96 1.396 . S
C97 C98 1.392 1_565 S
C98 C68 1.726 . S
C98 C94 1.395 1_545 S
C98 C97 1.392 1_545 S
C99 H71 0.982 . S
C99 H75 0.979 . S
C99 H76 0.977 . S
C99 C96 1.453 . S
C100 H72 0.979 . S
C100 H73 0.980 . S
C100 H74 0.983 . S
C100 C96 1.684 . S
H101 C119 0.948 . S
H102 C60 0.948 . S
H103 C78 0.979 . S
H104 C78 0.980 . S
H105 C78 0.983 . S
H106 C77 0.982 . S
H107 C77 0.979 . S
H108 C77 0.977 . S
H109 C79 0.948 . S
H110 C81 0.947 . S
H111 C82 0.948 . S
H112 C88 0.982 . S
H113 C88 0.979 . S
H114 C88 0.977 . S
H115 C89 0.979 . S
H116 C89 0.980 . S
H117 C89 0.983 . S
H118 C62 0.947 . S
C119 C62 1.392 . S
C119 C63 1.419 . S
C119 H101 0.948 . S
C120 C121 1.391 . S
C120 C124 1.391 . S
C120 H162 0.948 . S
C121 C120 1.391 . S
C121 C122 1.391 . S
C122 C121 1.391 . S
C122 H178 0.947 . S
C122 C179 1.392 . S
C123 C124 1.391 . S
C123 C127 1.397 . S
C123 C179 1.419 . S
C124 C120 1.391 . S
C124 C123 1.391 . S
C124 C125 1.399 . S
C125 C124 1.399 . S
C125 C128 1.396 . S
C125 C137 1.453 . S
C125 C138 1.684 . S
H126 C150 0.948 . S
C127 C123 1.397 . S
C127 C128 1.394 . S
C127 C146 1.723 . S
C128 C125 1.396 . S
C128 C127 1.394 . S
C128 C158 1.723 . S
H129 C152 0.947 . S
H130 C153 0.948 . S
H131 C159 0.982 . S
H132 C160 0.979 . S
H133 C160 0.980 . S
H134 C160 0.983 . S
H135 C159 0.979 . S
H136 C159 0.977 . S
C137 C125 1.453 . S
C137 H166 0.982 . S
C137 H167 0.979 . S
C137 H168 0.977 . S
C138 C125 1.684 . S
C138 H163 0.979 . S
C138 H164 0.980 . S
C138 H165 0.983 . S
C139 C140 1.391 . S
C139 C144 1.391 . S
C139 H169 0.948 . S
C140 C139 1.391 . S
C140 C141 1.391 . S
C141 C140 1.391 . S
C141 C142 1.392 . S
C141 H170 0.947 . S
C142 C141 1.392 . S
C142 C143 1.419 . S
C142 H171 0.948 . S
C143 C142 1.419 . S
C143 C144 1.391 . S
C143 C147 1.397 . S
C144 C139 1.391 . S
C144 C143 1.391 . S
C144 C145 1.399 . S
C145 C144 1.399 . S
C145 C146 1.396 . S
C145 C148 1.453 . S
C145 C149 1.684 . S
C146 C127 1.723 . S
C146 C145 1.396 . S
C146 C147 1.394 . S
C147 C143 1.397 . S
C147 C146 1.394 . S
C147 C157 1.723 . S
C148 C145 1.453 . S
C148 H172 0.982 . S
C148 H173 0.979 . S
C148 H174 0.977 . S
C149 C145 1.684 . S
C149 H175 0.979 . S
C149 H176 0.980 . S
C149 H177 0.983 . S
C150 H126 0.948 . S
C150 C151 1.391 . S
C150 C155 1.391 . S
C151 C150 1.391 . S
C151 C152 1.391 . S
C152 H129 0.947 . S
C152 C151 1.391 . S
C152 C153 1.392 . S
C153 H130 0.948 . S
C153 C152 1.392 . S
C153 C154 1.419 . S
C154 C153 1.419 . S
C154 C155 1.391 . S
C154 C158 1.397 . S
C155 C150 1.391 . S
C155 C154 1.391 . S
C155 C156 1.399 . S
C156 C155 1.399 . S
C156 C157 1.396 . S
C156 C159 1.453 . S
C156 C160 1.684 . S
C157 C147 1.723 . S
C157 C156 1.396 . S
C157 C158 1.394 . S
C158 C128 1.723 . S
C158 C154 1.397 . S
C158 C157 1.394 . S
C159 H131 0.982 . S
C159 H135 0.979 . S
C159 H136 0.977 . S
C159 C156 1.453 . S
C160 H132 0.979 . S
C160 H133 0.980 . S
C160 H134 0.983 . S
C160 C156 1.684 . S
H161 C179 0.948 . S
H162 C120 0.948 . S
H163 C138 0.979 . S
H164 C138 0.980 . S
H165 C138 0.983 . S
H166 C137 0.982 . S
H167 C137 0.979 . S
H168 C137 0.977 . S
H169 C139 0.948 . S
H170 C141 0.947 . S
H171 C142 0.948 . S
H172 C148 0.982 . S
H173 C148 0.979 . S
H174 C148 0.977 . S
H175 C149 0.979 . S
H176 C149 0.980 . S
H177 C149 0.983 . S
H178 C122 0.947 . S
C179 C122 1.392 . S
C179 C123 1.419 . S
C179 H161 0.948 . S
C180 C181 1.391 . S
C180 C184 1.391 . S
C180 H222 0.948 . S
C181 C180 1.391 . S
C181 C182 1.391 . S
C182 C181 1.391 . S
C182 H238 0.947 . S
C182 C239 1.392 . S
C183 C184 1.391 . S
C183 C187 1.397 . S
C183 C239 1.419 . S
C184 C180 1.391 . S
C184 C183 1.391 . S
C184 C185 1.399 . S
C185 C184 1.399 . S
C185 C188 1.396 . S
C185 C197 1.453 . S
C185 C198 1.684 . S
H186 C210 0.948 . S
C187 C183 1.397 . S
C187 C188 1.394 . S
C187 C206 1.723 . S
C188 C185 1.396 . S
C188 C187 1.394 . S
C188 C218 1.723 . S
H189 C212 0.947 . S
H190 C213 0.948 . S
H191 C219 0.982 . S
H192 C220 0.979 . S
H193 C220 0.980 . S
H194 C220 0.983 . S
H195 C219 0.979 . S
H196 C219 0.977 . S
C197 C185 1.453 . S
C197 H226 0.982 . S
C197 H227 0.979 . S
C197 H228 0.977 . S
C198 C185 1.684 . S
C198 H223 0.979 . S
C198 H224 0.980 . S
C198 H225 0.983 . S
C199 C200 1.391 . S
C199 C204 1.391 . S
C199 H229 0.948 . S
C200 C199 1.391 . S
C200 C201 1.391 1_455 S
C201 C200 1.391 1_655 S
C201 C202 1.392 . S
C201 H230 0.947 . S
C202 C201 1.392 . S
C202 C203 1.419 1_655 S
C202 H231 0.948 . S
C203 C202 1.419 1_455 S
C203 C204 1.391 . S
C203 C207 1.397 . S
C204 C199 1.391 . S
C204 C203 1.391 . S
C204 C205 1.399 . S
C205 C204 1.399 . S
C205 C206 1.396 . S
C205 C208 1.453 . S
C205 C209 1.684 . S
C206 C187 1.723 . S
C206 C205 1.396 . S
C206 C207 1.394 . S
C207 C203 1.397 . S
C207 C206 1.394 . S
C207 C217 1.723 1_455 S
C208 C205 1.453 . S
C208 H232 0.982 . S
C208 H233 0.979 . S
C208 H234 0.977 . S
C209 C205 1.684 . S
C209 H235 0.979 . S
C209 H236 0.980 . S
C209 H237 0.983 . S
C210 H186 0.948 . S
C210 C211 1.391 . S
C210 C215 1.391 . S
C211 C210 1.391 . S
C211 C212 1.391 . S
C212 H189 0.947 . S
C212 C211 1.391 . S
C212 C213 1.392 . S
C213 H190 0.948 . S
C213 C212 1.392 . S
C213 C214 1.419 . S
C214 C213 1.419 . S
C214 C215 1.391 . S
C214 C218 1.397 1_655 S
C215 C210 1.391 . S
C215 C214 1.391 . S
C215 C216 1.399 . S
C216 C215 1.399 . S
C216 C217 1.396 . S
C216 C219 1.453 . S
C216 C220 1.684 . S
C217 C207 1.723 1_655 S
C217 C216 1.396 . S
C217 C218 1.394 1_655 S
C218 C188 1.723 . S
C218 C214 1.397 1_455 S
C218 C217 1.394 1_455 S
C219 H191 0.982 . S
C219 H195 0.979 . S
C219 H196 0.977 . S
C219 C216 1.453 . S
C220 H192 0.979 . S
C220 H193 0.980 . S
C220 H194 0.983 . S
C220 C216 1.684 . S
H221 C239 0.948 . S
H222 C180 0.948 . S
H223 C198 0.979 . S
H224 C198 0.980 . S
H225 C198 0.983 . S
H226 C197 0.982 . S
H227 C197 0.979 . S
H228 C197 0.977 . S
H229 C199 0.948 . S
H230 C201 0.947 . S
H231 C202 0.948 . S
H232 C208 0.982 . S
H233 C208 0.979 . S
H234 C208 0.977 . S
H235 C209 0.979 . S
H236 C209 0.980 . S
H237 C209 0.983 . S
H238 C182 0.947 . S
C239 C182 1.392 . S
C239 C183 1.419 . S
C239 H221 0.948 . S
C240 C241 1.391 . S
C240 C244 1.391 . S
C240 H282 0.948 . S
C241 C240 1.391 . S
C241 C242 1.391 . S
C242 C241 1.391 . S
C242 H298 0.947 . S
C242 C299 1.392 . S
C243 C244 1.391 . S
C243 C247 1.397 . S
C243 C299 1.419 . S
C244 C240 1.391 . S
C244 C243 1.391 . S
C244 C245 1.399 . S
C245 C244 1.399 . S
C245 C248 1.396 1_655 S
C245 C257 1.453 1_655 S
C245 C258 1.684 . S
H246 C270 0.948 . S
C247 C243 1.397 . S
C247 C248 1.394 1_655 S
C247 C266 1.723 . S
C248 C245 1.396 1_455 S
C248 C247 1.394 1_455 S
C248 C278 1.723 . S
H249 C272 0.947 . S
H250 C273 0.948 . S
H251 C279 0.982 . S
H252 C280 0.979 . S
H253 C280 0.980 . S
H254 C280 0.983 . S
H255 C279 0.979 . S
H256 C279 0.977 . S
C257 C245 1.453 1_455 S
C257 H286 0.982 . S
C257 H287 0.979 . S
C257 H288 0.977 . S
C258 C245 1.684 . S
C258 H283 0.979 . S
C258 H284 0.980 1_655 S
C258 H285 0.983 . S
C259 C260 1.391 1_655 S
C259 C264 1.391 . S
C259 H289 0.948 . S
C260 C259 1.391 1_455 S
C260 C261 1.391 . S
C261 C260 1.391 . S
C261 C262 1.392 . S
C261 H290 0.947 . S
C262 C261 1.392 . S
C262 C263 1.419 . S
C262 H291 0.948 . S
C263 C262 1.419 . S
C263 C264 1.391 1_455 S
C263 C267 1.397 . S
C264 C259 1.391 . S
C264 C263 1.391 1_655 S
C264 C265 1.399 . S
C265 C264 1.399 . S
C265 C266 1.396 . S
C265 C268 1.453 . S
C265 C269 1.684 . S
C266 C247 1.723 . S
C266 C265 1.396 . S
C266 C267 1.394 1_655 S
C267 C263 1.397 . S
C267 C266 1.394 1_455 S
C267 C277 1.723 . S
C268 C265 1.453 . S
C268 H292 0.982 . S
C268 H293 0.979 . S
C268 H294 0.977 . S
C269 C265 1.684 . S
C269 H295 0.979 . S
C269 H296 0.980 . S
C269 H297 0.983 . S
C270 H246 0.948 . S
C270 C271 1.391 . S
C270 C275 1.391 . S
C271 C270 1.391 . S
C271 C272 1.391 . S
C272 H249 0.947 . S
C272 C271 1.391 . S
C272 C273 1.392 . S
C273 H250 0.948 . S
C273 C272 1.392 . S
C273 C274 1.419 . S
C274 C273 1.419 . S
C274 C275 1.391 . S
C274 C278 1.397 . S
C275 C270 1.391 . S
C275 C274 1.391 . S
C275 C276 1.399 . S
C276 C275 1.399 . S
C276 C277 1.396 . S
C276 C279 1.453 . S
C276 C280 1.684 . S
C277 C267 1.723 . S
C277 C276 1.396 . S
C277 C278 1.394 . S
C278 C248 1.723 . S
C278 C274 1.397 . S
C278 C277 1.394 . S
C279 H251 0.982 . S
C279 H255 0.979 . S
C279 H256 0.977 . S
C279 C276 1.453 . S
C280 H252 0.979 . S
C280 H253 0.980 . S
C280 H254 0.983 . S
C280 C276 1.684 . S
H281 C299 0.948 . S
H282 C240 0.948 . S
H283 C258 0.979 . S
H284 C258 0.980 1_455 S
H285 C258 0.983 . S
H286 C257 0.982 . S
H287 C257 0.979 . S
H288 C257 0.977 . S
H289 C259 0.948 . S
H290 C261 0.947 . S
H291 C262 0.948 . S
H292 C268 0.982 . S
H293 C268 0.979 . S
H294 C268 0.977 . S
H295 C269 0.979 . S
H296 C269 0.980 . S
H297 C269 0.983 . S
H298 C242 0.947 . S
C299 C242 1.392 . S
C299 C243 1.419 . S
C299 H281 0.948 . S
C300 C301 1.391 . S
C300 C304 1.391 . S
C300 H342 0.948 . S
C301 C300 1.391 . S
C301 C302 1.391 . S
C302 C301 1.391 . S
C302 H358 0.947 . S
C302 C359 1.392 . S
C303 C304 1.391 . S
C303 C307 1.397 . S
C303 C359 1.419 . S
C304 C300 1.391 . S
C304 C303 1.391 . S
C304 C305 1.399 . S
C305 C304 1.399 . S
C305 C308 1.396 1_565 S
C305 C317 1.453 1_565 S
C305 C318 1.684 . S
H306 C330 0.948 . S
C307 C303 1.397 . S
C307 C308 1.394 1_565 S
C307 C326 1.723 . S
C308 C305 1.396 1_545 S
C308 C307 1.394 1_545 S
C308 C338 1.723 . S
H309 C332 0.947 . S
H310 C333 0.948 . S
H311 C339 0.982 . S
H312 C340 0.979 . S
H313 C340 0.980 . S
H314 C340 0.983 . S
H315 C339 0.979 . S
H316 C339 0.977 . S
C317 C305 1.453 1_545 S
C317 H346 0.982 . S
C317 H347 0.979 . S
C317 H348 0.977 . S
C318 C305 1.684 . S
C318 H343 0.979 . S
C318 H344 0.980 1_565 S
C318 H345 0.983 . S
C319 C320 1.391 1_565 S
C319 C324 1.391 . S
C319 H349 0.948 . S
C320 C319 1.391 1_545 S
C320 C321 1.391 . S
C321 C320 1.391 . S
C321 C322 1.392 . S
C321 H350 0.947 . S
C322 C321 1.392 . S
C322 C323 1.419 . S
C322 H351 0.948 . S
C323 C322 1.419 . S
C323 C324 1.391 1_545 S
C323 C327 1.397 . S
C324 C319 1.391 . S
C324 C323 1.391 1_565 S
C324 C325 1.399 . S
C325 C324 1.399 . S
C325 C326 1.396 . S
C325 C328 1.453 . S
C325 C329 1.684 . S
C326 C307 1.723 . S
C326 C325 1.396 . S
C326 C327 1.394 1_565 S
C327 C323 1.397 . S
C327 C326 1.394 1_545 S
C327 C337 1.723 . S
C328 C325 1.453 . S
C328 H352 0.982 . S
C328 H353 0.979 . S
C328 H354 0.977 . S
C329 C325 1.684 . S
C329 H355 0.979 . S
C329 H356 0.980 . S
C329 H357 0.983 . S
C330 H306 0.948 . S
C330 C331 1.391 . S
C330 C335 1.391 . S
C331 C330 1.391 . S
C331 C332 1.391 . S
C332 H309 0.947 . S
C332 C331 1.391 . S
C332 C333 1.392 . S
C333 H310 0.948 . S
C333 C332 1.392 . S
C333 C334 1.419 . S
C334 C333 1.419 . S
C334 C335 1.391 . S
C334 C338 1.397 . S
C335 C330 1.391 . S
C335 C334 1.391 . S
C335 C336 1.399 . S
C336 C335 1.399 . S
C336 C337 1.396 . S
C336 C339 1.453 . S
C336 C340 1.684 . S
C337 C327 1.723 . S
C337 C336 1.396 . S
C337 C338 1.394 . S
C338 C308 1.723 . S
C338 C334 1.397 . S
C338 C337 1.394 . S
C339 H311 0.982 . S
C339 H315 0.979 . S
C339 H316 0.977 . S
C339 C336 1.453 . S
C340 H312 0.979 . S
C340 H313 0.980 . S
C340 H314 0.983 . S
C340 C336 1.684 . S
H341 C359 0.948 . S
H342 C300 0.948 . S
H343 C318 0.979 . S
H344 C318 0.980 1_545 S
H345 C318 0.983 . S
H346 C317 0.982 . S
H347 C317 0.979 . S
H348 C317 0.977 . S
H349 C319 0.948 . S
H350 C321 0.947 . S
H351 C322 0.948 . S
H352 C328 0.982 . S
H353 C328 0.979 . S
H354 C328 0.977 . S
H355 C329 0.979 . S
H356 C329 0.980 . S
H357 C329 0.983 . S
H358 C302 0.947 . S
C359 C302 1.392 . S
C359 C303 1.419 . S
C359 H341 0.948 . S
C360 C361 1.391 . S
C360 C364 1.391 . S
C360 H402 0.948 . S
C361 C360 1.391 . S
C361 C362 1.391 . S
C362 C361 1.391 . S
C362 H418 0.947 . S
C362 C419 1.392 . S
C363 C364 1.391 . S
C363 C367 1.397 . S
C363 C419 1.419 . S
C364 C360 1.391 . S
C364 C363 1.391 . S
C364 C365 1.399 . S
C365 C364 1.399 . S
C365 C368 1.396 . S
C365 C377 1.453 . S
C365 C378 1.684 . S
H366 C390 0.948 . S
C367 C363 1.397 . S
C367 C368 1.394 . S
C367 C386 1.723 . S
C368 C365 1.396 . S
C368 C367 1.394 . S
C368 C398 1.723 . S
H369 C392 0.947 . S
H370 C393 0.948 . S
H371 C399 0.982 . S
H372 C400 0.979 . S
H373 C400 0.980 . S
H374 C400 0.983 . S
H375 C399 0.979 . S
H376 C399 0.977 . S
C377 C365 1.453 . S
C377 H406 0.982 . S
C377 H407 0.979 . S
C377 H408 0.977 . S
C378 C365 1.684 . S
C378 H403 0.979 . S
C378 H404 0.980 . S
C378 H405 0.983 . S
C379 C380 1.391 . S
C379 C384 1.391 . S
C379 H409 0.948 . S
C380 C379 1.391 . S
C380 C381 1.391 . S
C381 C380 1.391 . S
C381 C382 1.392 . S
C381 H410 0.947 . S
C382 C381 1.392 . S
C382 C383 1.419 . S
C382 H411 0.948 . S
C383 C382 1.419 . S
C383 C384 1.391 . S
C383 C387 1.397 . S
C384 C379 1.391 . S
C384 C383 1.391 . S
C384 C385 1.399 . S
C385 C384 1.399 . S
C385 C386 1.396 . S
C385 C388 1.453 . S
C385 C389 1.684 . S
C386 C367 1.723 . S
C386 C385 1.396 . S
C386 C387 1.394 . S
C387 C383 1.397 . S
C387 C386 1.394 . S
C387 C397 1.723 . S
C388 C385 1.453 . S
C388 H412 0.982 . S
C388 H413 0.979 . S
C388 H414 0.977 . S
C389 C385 1.684 . S
C389 H415 0.979 . S
C389 H416 0.980 . S
C389 H417 0.983 . S
C390 H366 0.948 . S
C390 C391 1.391 . S
C390 C395 1.391 . S
C391 C390 1.391 . S
C391 C392 1.391 . S
C392 H369 0.947 . S
C392 C391 1.391 . S
C392 C393 1.392 . S
C393 H370 0.948 . S
C393 C392 1.392 . S
C393 C394 1.419 . S
C394 C393 1.419 . S
C394 C395 1.391 . S
C394 C398 1.397 . S
C395 C390 1.391 . S
C395 C394 1.391 . S
C395 C396 1.399 . S
C396 C395 1.399 . S
C396 C397 1.396 . S
C396 C399 1.453 . S
C396 C400 1.684 . S
C397 C387 1.723 . S
C397 C396 1.396 . S
C397 C398 1.394 . S
C398 C368 1.723 . S
C398 C394 1.397 . S
C398 C397 1.394 . S
C399 H371 0.982 . S
C399 H375 0.979 . S
C399 H376 0.977 . S
C399 C396 1.453 . S
C400 H372 0.979 . S
C400 H373 0.980 . S
C400 H374 0.983 . S
C400 C396 1.684 . S
H401 C419 0.948 . S
H402 C360 0.948 . S
H403 C378 0.979 . S
H404 C378 0.980 . S
H405 C378 0.983 . S
H406 C377 0.982 . S
H407 C377 0.979 . S
H408 C377 0.977 . S
H409 C379 0.948 . S
H410 C381 0.947 . S
H411 C382 0.948 . S
H412 C388 0.982 . S
H413 C388 0.979 . S
H414 C388 0.977 . S
H415 C389 0.979 . S
H416 C389 0.980 . S
H417 C389 0.983 . S
H418 C362 0.947 . S
C419 C362 1.392 . S
C419 C363 1.419 . S
C419 H401 0.948 . S
H420 C426 0.930 . S
H421 C430 0.930 . S
H422 C435 0.929 . S
H423 C433 0.929 . S
H424 C428 0.929 . S
H425 C434 0.929 . S
C426 H420 0.930 . S
C426 C427 1.367 . S
C426 C434 1.378 . S
C427 C426 1.367 . S
C427 C435 1.433 . S
C428 H424 0.929 . S
C428 C430 1.378 . S
C428 C432 1.350 . S
C429 C432 1.463 . S
C429 C434 1.350 . S
C429 N437 1.427 . S
C430 H421 0.930 . S
C430 C428 1.378 . S
C430 C431 1.367 . S
C431 C430 1.367 . S
C431 C433 1.433 . S
C432 C428 1.350 . S
C432 C429 1.463 . S
C432 N436 1.427 . S
C433 H423 0.929 . S
C433 C431 1.433 . S
C433 N436 1.384 . S
C434 H425 0.929 . S
C434 C426 1.378 . S
C434 C429 1.350 . S
C435 H422 0.929 . S
C435 C427 1.433 . S
C435 N437 1.384 . S
N436 C432 1.427 . S
N436 C433 1.384 . S
N437 C429 1.427 . S
N437 C435 1.384 . S
H438 C444 0.930 . S
H439 C448 0.930 . S
H440 C453 0.929 . S
H441 C451 0.929 . S
H442 C446 0.929 . S
H443 C452 0.929 . S
C444 H438 0.930 . S
C444 C445 1.367 . S
C444 C452 1.378 . S
C445 C444 1.367 . S
C445 C453 1.433 . S
C446 H442 0.929 . S
C446 C448 1.378 . S
C446 C450 1.350 . S
C447 C450 1.463 . S
C447 C452 1.350 . S
C447 N455 1.427 . S
C448 H439 0.930 . S
C448 C446 1.378 . S
C448 C449 1.367 . S
C449 C448 1.367 . S
C449 C451 1.433 . S
C450 C446 1.350 . S
C450 C447 1.463 . S
C450 N454 1.427 . S
C451 H441 0.929 . S
C451 C449 1.433 . S
C451 N454 1.384 . S
C452 H443 0.929 . S
C452 C444 1.378 . S
C452 C447 1.350 . S
C453 H440 0.929 . S
C453 C445 1.433 . S
C453 N455 1.384 . S
N454 C450 1.427 . S
N454 C451 1.384 . S
N455 C447 1.427 . S
N455 C453 1.384 . S
H456 C462 0.930 . S
H457 C466 0.930 . S
H458 C471 0.929 . S
H459 C469 0.929 . S
H460 C464 0.929 . S
H461 C470 0.929 . S
C462 H456 0.930 . S
C462 C463 1.367 . S
C462 C470 1.378 . S
C463 C462 1.367 . S
C463 C471 1.433 . S
C464 H460 0.929 . S
C464 C466 1.378 . S
C464 C468 1.350 . S
C465 C468 1.463 . S
C465 C470 1.350 . S
C465 N473 1.427 . S
C466 H457 0.930 . S
C466 C464 1.378 . S
C466 C467 1.367 . S
C467 C466 1.367 . S
C467 C469 1.433 . S
C468 C464 1.350 . S
C468 C465 1.463 . S
C468 N472 1.427 . S
C469 H459 0.929 . S
C469 C467 1.433 . S
C469 N472 1.384 . S
C470 H461 0.929 . S
C470 C462 1.378 . S
C470 C465 1.350 . S
C471 H458 0.929 . S
C471 C463 1.433 . S
C471 N473 1.384 . S
N472 C468 1.427 . S
N472 C469 1.384 . S
N473 C465 1.427 . S
N473 C471 1.384 . S
H474 C480 0.930 . S
H475 C484 0.930 . S
H476 C489 0.929 . S
H477 C487 0.929 . S
H478 C482 0.929 . S
H479 C488 0.929 . S
C480 H474 0.930 . S
C480 C481 1.367 . S
C480 C488 1.378 . S
C481 C480 1.367 . S
C481 C489 1.433 . S
C482 H478 0.929 . S
C482 C484 1.378 . S
C482 C486 1.350 . S
C483 C486 1.463 . S
C483 C488 1.350 . S
C483 N491 1.427 . S
C484 H475 0.930 . S
C484 C482 1.378 . S
C484 C485 1.367 . S
C485 C484 1.367 . S
C485 C487 1.433 . S
C486 C482 1.350 . S
C486 C483 1.463 . S
C486 N490 1.427 . S
C487 H477 0.929 . S
C487 C485 1.433 . S
C487 N490 1.384 . S
C488 H479 0.929 . S
C488 C480 1.378 . S
C488 C483 1.350 . S
C489 H476 0.929 . S
C489 C481 1.433 . S
C489 N491 1.384 . S
N490 C486 1.427 . S
N490 C487 1.384 . S
N491 C483 1.427 . S
N491 C489 1.384 . S
H492 C498 0.930 . S
H493 C502 0.930 . S
H494 C507 0.929 . S
H495 C505 0.929 . S
H496 C500 0.929 . S
H497 C506 0.929 . S
C498 H492 0.930 . S
C498 C499 1.367 . S
C498 C506 1.378 . S
C499 C498 1.367 . S
C499 C507 1.433 . S
C500 H496 0.929 . S
C500 C502 1.378 . S
C500 C504 1.350 . S
C501 C504 1.463 . S
C501 C506 1.350 . S
C501 N509 1.427 . S
C502 H493 0.930 . S
C502 C500 1.378 . S
C502 C503 1.367 . S
C503 C502 1.367 . S
C503 C505 1.433 . S
C504 C500 1.350 . S
C504 C501 1.463 . S
C504 N508 1.427 . S
C505 H495 0.929 . S
C505 C503 1.433 . S
C505 N508 1.384 . S
C506 H497 0.929 . S
C506 C498 1.378 . S
C506 C501 1.350 . S
C507 H494 0.929 . S
C507 C499 1.433 . S
C507 N509 1.384 . S
N508 C504 1.427 . S
N508 C505 1.384 . S
N509 C501 1.427 . S
N509 C507 1.384 . S
H510 C516 0.930 . S
H511 C520 0.930 . S
H512 C525 0.929 . S
H513 C523 0.929 . S
H514 C518 0.929 . S
H515 C524 0.929 . S
C516 H510 0.930 . S
C516 C517 1.367 . S
C516 C524 1.378 . S
C517 C516 1.367 . S
C517 C525 1.433 . S
C518 H514 0.929 . S
C518 C520 1.378 . S
C518 C522 1.350 . S
C519 C522 1.463 . S
C519 C524 1.350 . S
C519 N527 1.427 . S
C520 H511 0.930 . S
C520 C518 1.378 . S
C520 C521 1.367 . S
C521 C520 1.367 . S
C521 C523 1.433 . S
C522 C518 1.350 . S
C522 C519 1.463 . S
C522 N526 1.427 . S
C523 H513 0.929 . S
C523 C521 1.433 . S
C523 N526 1.384 . S
C524 H515 0.929 . S
C524 C516 1.378 . S
C524 C519 1.350 . S
C525 H512 0.929 . S
C525 C517 1.433 . S
C525 N527 1.384 . S
N526 C522 1.427 . S
N526 C523 1.384 . S
N527 C519 1.427 . S
N527 C525 1.384 . S
H528 C534 0.930 . S
H529 C538 0.930 . S
H530 C543 0.929 . S
H531 C541 0.929 . S
H532 C536 0.929 . S
H533 C542 0.929 . S
C534 H528 0.930 . S
C534 C535 1.367 . S
C534 C542 1.378 . S
C535 C534 1.367 . S
C535 C543 1.433 . S
C536 H532 0.929 . S
C536 C538 1.378 . S
C536 C540 1.350 . S
C537 C540 1.463 . S
C537 C542 1.350 . S
C537 N545 1.427 . S
C538 H529 0.930 . S
C538 C536 1.378 . S
C538 C539 1.367 . S
C539 C538 1.367 . S
C539 C541 1.433 . S
C540 C536 1.350 . S
C540 C537 1.463 . S
C540 N544 1.427 . S
C541 H531 0.929 . S
C541 C539 1.433 . S
C541 N544 1.384 . S
C542 H533 0.929 . S
C542 C534 1.378 . S
C542 C537 1.350 . S
C543 H530 0.929 . S
C543 C535 1.433 . S
C543 N545 1.384 . S
N544 C540 1.427 . S
N544 C541 1.384 . S
N545 C537 1.427 . S
N545 C543 1.384 . S
H546 C552 0.930 . S
H547 C556 0.930 . S
H548 C561 0.929 . S
H549 C559 0.929 . S
H550 C554 0.929 . S
H551 C560 0.929 . S
C552 H546 0.930 . S
C552 C553 1.367 . S
C552 C560 1.378 . S
C553 C552 1.367 . S
C553 C561 1.433 . S
C554 H550 0.929 . S
C554 C556 1.378 . S
C554 C558 1.350 . S
C555 C558 1.463 . S
C555 C560 1.350 . S
C555 N563 1.427 . S
C556 H547 0.930 . S
C556 C554 1.378 . S
C556 C557 1.367 . S
C557 C556 1.367 . S
C557 C559 1.433 . S
C558 C554 1.350 . S
C558 C555 1.463 . S
C558 N562 1.427 . S
C559 H549 0.929 . S
C559 C557 1.433 . S
C559 N562 1.384 . S
C560 H551 0.929 . S
C560 C552 1.378 . S
C560 C555 1.350 . S
C561 H548 0.929 . S
C561 C553 1.433 . S
C561 N563 1.384 . S
N562 C558 1.427 . S
N562 C559 1.384 . S
N563 C555 1.427 . S
N563 C561 1.384 . S
H564 C570 0.930 . S
H565 C574 0.930 . S
H566 C579 0.929 . S
H567 C577 0.929 . S
H568 C572 0.929 . S
H569 C578 0.929 . S
C570 H564 0.930 . S
C570 C571 1.367 . S
C570 C578 1.378 . S
C571 C570 1.367 . S
C571 C579 1.433 . S
C572 H568 0.929 . S
C572 C574 1.378 . S
C572 C576 1.350 . S
C573 C576 1.463 . S
C573 C578 1.350 . S
C573 N581 1.427 . S
C574 H565 0.930 . S
C574 C572 1.378 . S
C574 C575 1.367 . S
C575 C574 1.367 . S
C575 C577 1.433 . S
C576 C572 1.350 . S
C576 C573 1.463 . S
C576 N580 1.427 . S
C577 H567 0.929 . S
C577 C575 1.433 . S
C577 N580 1.384 . S
C578 H569 0.929 . S
C578 C570 1.378 . S
C578 C573 1.350 . S
C579 H566 0.929 . S
C579 C571 1.433 . S
C579 N581 1.384 . S
N580 C576 1.427 . S
N580 C577 1.384 . S
N581 C573 1.427 . S
N581 C579 1.384 . S
H582 C588 0.930 . S
H583 C592 0.930 . S
H584 C597 0.929 . S
H585 C595 0.929 . S
H586 C590 0.929 . S
H587 C596 0.929 . S
C588 H582 0.930 . S
C588 C589 1.367 . S
C588 C596 1.378 . S
C589 C588 1.367 . S
C589 C597 1.433 . S
C590 H586 0.929 . S
C590 C592 1.378 . S
C590 C594 1.350 . S
C591 C594 1.463 . S
C591 C596 1.350 . S
C591 N599 1.427 . S
C592 H583 0.930 . S
C592 C590 1.378 . S
C592 C593 1.367 . S
C593 C592 1.367 . S
C593 C595 1.433 . S
C594 C590 1.350 . S
C594 C591 1.463 . S
C594 N598 1.427 . S
C595 H585 0.929 . S
C595 C593 1.433 . S
C595 N598 1.384 . S
C596 H587 0.929 . S
C596 C588 1.378 . S
C596 C591 1.350 . S
C597 H584 0.929 . S
C597 C589 1.433 . S
C597 N599 1.384 . S
N598 C594 1.427 . S
N598 C595 1.384 . S
N599 C591 1.427 . S
N599 C597 1.384 . S
H600 C606 0.930 . S
H601 C610 0.930 . S
H602 C615 0.929 . S
H603 C613 0.929 . S
H604 C608 0.929 . S
H605 C614 0.929 . S
C606 H600 0.930 . S
C606 C607 1.367 . S
C606 C614 1.378 . S
C607 C606 1.367 . S
C607 C615 1.433 . S
C608 H604 0.929 . S
C608 C610 1.378 . S
C608 C612 1.350 . S
C609 C612 1.463 . S
C609 C614 1.350 . S
C609 N617 1.427 . S
C610 H601 0.930 . S
C610 C608 1.378 . S
C610 C611 1.367 . S
C611 C610 1.367 . S
C611 C613 1.433 . S
C612 C608 1.350 . S
C612 C609 1.463 . S
C612 N616 1.427 . S
C613 H603 0.929 . S
C613 C611 1.433 . S
C613 N616 1.384 . S
C614 H605 0.929 . S
C614 C606 1.378 . S
C614 C609 1.350 . S
C615 H602 0.929 . S
C615 C607 1.433 . S
C615 N617 1.384 . S
N616 C612 1.427 . S
N616 C613 1.384 . S
N617 C609 1.427 . S
N617 C615 1.384 . S
H618 C624 0.930 . S
H619 C628 0.930 . S
H620 C633 0.929 . S
H621 C631 0.929 . S
H622 C626 0.929 . S
H623 C632 0.929 . S
C624 H618 0.930 . S
C624 C625 1.367 . S
C624 C632 1.378 . S
C625 C624 1.367 . S
C625 C633 1.433 . S
C626 H622 0.929 . S
C626 C628 1.378 . S
C626 C630 1.350 . S
C627 C630 1.463 . S
C627 C632 1.350 . S
C627 N635 1.427 . S
C628 H619 0.930 . S
C628 C626 1.378 . S
C628 C629 1.367 . S
C629 C628 1.367 . S
C629 C631 1.433 . S
C630 C626 1.350 . S
C630 C627 1.463 . S
C630 N634 1.427 . S
C631 H621 0.929 . S
C631 C629 1.433 . S
C631 N634 1.384 . S
C632 H623 0.929 . S
C632 C624 1.378 . S
C632 C627 1.350 . S
C633 H620 0.929 . S
C633 C625 1.433 . S
C633 N635 1.384 . S
N634 C630 1.427 . S
N634 C631 1.384 . S
N635 C627 1.427 . S
N635 C633 1.384 . S
H636 C642 0.930 . S
H637 C646 0.930 . S
H638 C651 0.929 . S
H639 C649 0.929 . S
H640 C644 0.929 . S
H641 C650 0.929 . S
C642 H636 0.930 . S
C642 C643 1.367 . S
C642 C650 1.378 . S
C643 C642 1.367 . S
C643 C651 1.433 1_455 S
C644 H640 0.929 . S
C644 C646 1.378 . S
C644 C648 1.350 1_655 S
C645 C648 1.463 . S
C645 C650 1.350 . S
C645 N653 1.427 1_455 S
C646 H637 0.930 . S
C646 C644 1.378 . S
C646 C647 1.367 1_655 S
C647 C646 1.367 1_455 S
C647 C649 1.433 . S
C648 C644 1.350 1_455 S
C648 C645 1.463 . S
C648 N652 1.427 . S
C649 H639 0.929 . S
C649 C647 1.433 . S
C649 N652 1.384 . S
C650 H641 0.929 . S
C650 C642 1.378 . S
C650 C645 1.350 . S
C651 H638 0.929 . S
C651 C643 1.433 1_655 S
C651 N653 1.384 . S
N652 C648 1.427 . S
N652 C649 1.384 . S
N653 C645 1.427 1_655 S
N653 C651 1.384 . S
H654 C660 0.930 . S
H655 C664 0.930 . S
H656 C669 0.929 . S
H657 C667 0.929 . S
H658 C662 0.929 . S
H659 C668 0.929 . S
C660 H654 0.930 . S
C660 C661 1.367 1_565 S
C660 C668 1.378 . S
C661 C660 1.367 1_545 S
C661 C669 1.433 . S
C662 H658 0.929 . S
C662 C664 1.378 . S
C662 C666 1.350 . S
C663 C666 1.463 . S
C663 C668 1.350 1_545 S
C663 N671 1.427 . S
C664 H655 0.930 . S
C664 C662 1.378 . S
C664 C665 1.367 . S
C665 C664 1.367 . S
C665 C667 1.433 1_545 S
C666 C662 1.350 . S
C666 C663 1.463 . S
C666 N670 1.427 1_545 S
C667 H657 0.929 . S
C667 C665 1.433 1_565 S
C667 N670 1.384 . S
C668 H659 0.929 . S
C668 C660 1.378 . S
C668 C663 1.350 1_565 S
C669 H656 0.929 . S
C669 C661 1.433 . S
C669 N671 1.384 . S
N670 C666 1.427 1_565 S
N670 C667 1.384 . S
N671 C663 1.427 . S
N671 C669 1.384 . S
H672 C678 0.930 . S
H673 C682 0.930 . S
H674 C687 0.929 . S
H675 C685 0.929 . S
H676 C680 0.929 . S
H677 C686 0.929 . S
C678 H672 0.930 . S
C678 C679 1.367 . S
C678 C686 1.378 . S
C679 C678 1.367 . S
C679 C687 1.433 . S
C680 H676 0.929 . S
C680 C682 1.378 . S
C680 C684 1.350 . S
C681 C684 1.463 . S
C681 C686 1.350 . S
C681 N689 1.427 . S
C682 H673 0.930 . S
C682 C680 1.378 . S
C682 C683 1.367 . S
C683 C682 1.367 . S
C683 C685 1.433 . S
C684 C680 1.350 . S
C684 C681 1.463 . S
C684 N688 1.427 . S
C685 H675 0.929 . S
C685 C683 1.433 . S
C685 N688 1.384 . S
C686 H677 0.929 . S
C686 C678 1.378 . S
C686 C681 1.350 . S
C687 H674 0.929 . S
C687 C679 1.433 . S
C687 N689 1.384 . S
N688 C684 1.427 . S
N688 C685 1.384 . S
N689 C681 1.427 . S
N689 C687 1.384 . S
H690 C696 0.930 . S
H691 C700 0.930 . S
H692 C705 0.929 . S
H693 C703 0.929 . S
H694 C698 0.929 . S
H695 C704 0.929 . S
C696 H690 0.930 . S
C696 C697 1.367 . S
C696 C704 1.378 . S
C697 C696 1.367 . S
C697 C705 1.433 1_545 S
C698 H694 0.929 . S
C698 C700 1.378 . S
C698 C702 1.350 1_565 S
C699 C702 1.463 . S
C699 C704 1.350 . S
C699 N707 1.427 1_545 S
C700 H691 0.930 . S
C700 C698 1.378 . S
C700 C701 1.367 1_565 S
C701 C700 1.367 1_545 S
C701 C703 1.433 . S
C702 C698 1.350 1_545 S
C702 C699 1.463 . S
C702 N706 1.427 . S
C703 H693 0.929 . S
C703 C701 1.433 . S
C703 N706 1.384 . S
C704 H695 0.929 . S
C704 C696 1.378 . S
C704 C699 1.350 . S
C705 H692 0.929 . S
C705 C697 1.433 1_565 S
C705 N707 1.384 . S
N706 C702 1.427 . S
N706 C703 1.384 . S
N707 C699 1.427 1_565 S
N707 C705 1.384 . S
H708 C714 0.930 . S
H709 C718 0.930 . S
H710 C723 0.929 . S
H711 C721 0.929 . S
H712 C716 0.929 . S
H713 C722 0.929 . S
C714 H708 0.930 . S
C714 C715 1.367 . S
C714 C722 1.378 . S
C715 C714 1.367 . S
C715 C723 1.433 . S
C716 H712 0.929 . S
C716 C718 1.378 . S
C716 C720 1.350 . S
C717 C720 1.463 . S
C717 C722 1.350 . S
C717 N725 1.427 . S
C718 H709 0.930 . S
C718 C716 1.378 . S
C718 C719 1.367 . S
C719 C718 1.367 . S
C719 C721 1.433 . S
C720 C716 1.350 . S
C720 C717 1.463 . S
C720 N724 1.427 . S
C721 H711 0.929 . S
C721 C719 1.433 . S
C721 N724 1.384 . S
C722 H713 0.929 . S
C722 C714 1.378 . S
C722 C717 1.350 . S
C723 H710 0.929 . S
C723 C715 1.433 . S
C723 N725 1.384 . S
N724 C720 1.427 . S
N724 C721 1.384 . S
N725 C717 1.427 . S
N725 C723 1.384 . S
H726 C732 0.930 . S
H727 C736 0.930 . S
H728 C741 0.929 . S
H729 C739 0.929 . S
H730 C734 0.929 . S
H731 C740 0.929 . S
C732 H726 0.930 . S
C732 C733 1.367 . S
C732 C740 1.378 . S
C733 C732 1.367 . S
C733 C741 1.433 1_655 S
C734 H730 0.929 . S
C734 C736 1.378 . S
C734 C738 1.350 . S
C735 C738 1.465 . S
C735 C740 1.328 1_455 S
C735 N743 1.448 . S
C736 H727 0.930 . S
C736 C734 1.378 . S
C736 C737 1.367 . S
C737 C736 1.367 . S
C737 C739 1.433 1_455 S
C738 C734 1.350 . S
C738 C735 1.465 . S
C738 N742 1.427 1_455 S
C739 H729 0.929 . S
C739 C737 1.433 1_655 S
C739 N742 1.384 . S
C740 H731 0.929 . S
C740 C732 1.378 . S
C740 C735 1.328 1_655 S
C741 H728 0.929 . S
C741 C733 1.433 1_455 S
C741 N743 1.384 . S
N742 C738 1.427 1_655 S
N742 C739 1.384 . S
N743 C735 1.448 . S
N743 C741 1.384 . S
C427 C2 1.354 . S
C431 C391 1.449 . S
C445 C22 1.337 . S
C449 C241 1.355 . S
C463 C44 1.396 . S
C467 C301 1.408 . S
C481 C4 1.558 . S
C485 C361 1.550 . S
C503 C271 1.689 . S
C499 C24 1.605 . S
C521 C331 1.612 . S
C517 C42 1.517 . S
C535 C32 1.338 . S
C539 C121 1.251 . S
C553 C49 1.297 . S
C557 C211 1.316 . S
C571 C9 1.281 . S
C575 C91 1.303 . S
C593 C151 1.287 . S
C589 C29 1.249 . S
C611 C181 1.266 . S
C607 C52 1.263 . S
C625 C12 1.267 . S
C629 C61 1.252 . S
C647 C200 1.413 1_554 S
C643 C18 1.433 1_455 S
C661 C38 1.421 . S
C665 C80 1.421 . S
C679 C58 1.415 . S
C683 C140 1.404 . S
C701 C320 1.484 . S
C697 C39 1.484 . S
C719 C380 1.479 1_556 S
C715 C59 1.473 . S
C733 C19 1.476 1_655 S
C737 C260 1.467 . S
