# Generated by pormake.
# Topology ssb, (4,4)-cn, num edge types: 1
# Building blocks:
#     Node 0, Type 0, BuildingBlock: MUDLON_clean_linker_0, # of connection points: 4
#     Node 1, Type 0, BuildingBlock: MUDLON_clean_linker_0, # of connection points: 4
#     Node 2, Type 0, BuildingBlock: MUDLON_clean_linker_0, # of connection points: 4
#     Node 3, Type 0, BuildingBlock: MUDLON_clean_linker_0, # of connection points: 4
#     Node 4, Type 0, BuildingBlock: MUDLON_clean_linker_0, # of connection points: 4
#     Node 5, Type 0, BuildingBlock: MUDLON_clean_linker_0, # of connection points: 4
#     Node 6, Type 0, BuildingBlock: MUDLON_clean_linker_0, # of connection points: 4
#     Node 7, Type 0, BuildingBlock: MUDLON_clean_linker_0, # of connection points: 4
#     Node 8, Type 1, BuildingBlock: NAWXER_clean_sbu_0, # of connection points: 4
#     Node 9, Type 1, BuildingBlock: NAWXER_clean_sbu_0, # of connection points: 4
#     Node 10, Type 1, BuildingBlock: NAWXER_clean_sbu_0, # of connection points: 4
#     Node 11, Type 1, BuildingBlock: NAWXER_clean_sbu_0, # of connection points: 4
#     Node 12, Type 1, BuildingBlock: NAWXER_clean_sbu_0, # of connection points: 4
#     Node 13, Type 1, BuildingBlock: NAWXER_clean_sbu_0, # of connection points: 4
#     Node 14, Type 1, BuildingBlock: NAWXER_clean_sbu_0, # of connection points: 4
#     Node 15, Type 1, BuildingBlock: NAWXER_clean_sbu_0, # of connection points: 4
#     Edge 16, Type (0, 1), BuildingBlock: XUDNAN_clean_linker_2, # of connection points: 2
#     Edge 17, Type (0, 1), BuildingBlock: XUDNAN_clean_linker_2, # of connection points: 2
#     Edge 18, Type (0, 1), BuildingBlock: XUDNAN_clean_linker_2, # of connection points: 2
#     Edge 19, Type (0, 1), BuildingBlock: XUDNAN_clean_linker_2, # of connection points: 2
#     Edge 20, Type (0, 1), BuildingBlock: XUDNAN_clean_linker_2, # of connection points: 2
#     Edge 21, Type (0, 1), BuildingBlock: XUDNAN_clean_linker_2, # of connection points: 2
#     Edge 22, Type (0, 1), BuildingBlock: XUDNAN_clean_linker_2, # of connection points: 2
#     Edge 23, Type (0, 1), BuildingBlock: XUDNAN_clean_linker_2, # of connection points: 2
#     Edge 24, Type (0, 1), BuildingBlock: XUDNAN_clean_linker_2, # of connection points: 2
#     Edge 25, Type (0, 1), BuildingBlock: XUDNAN_clean_linker_2, # of connection points: 2
#     Edge 26, Type (0, 1), BuildingBlock: XUDNAN_clean_linker_2, # of connection points: 2
#     Edge 27, Type (0, 1), BuildingBlock: XUDNAN_clean_linker_2, # of connection points: 2
#     Edge 28, Type (0, 1), BuildingBlock: XUDNAN_clean_linker_2, # of connection points: 2
#     Edge 29, Type (0, 1), BuildingBlock: XUDNAN_clean_linker_2, # of connection points: 2
#     Edge 30, Type (0, 1), BuildingBlock: XUDNAN_clean_linker_2, # of connection points: 2
#     Edge 31, Type (0, 1), BuildingBlock: XUDNAN_clean_linker_2, # of connection points: 2
#     Edge 32, Type (0, 1), BuildingBlock: XUDNAN_clean_linker_2, # of connection points: 2
#     Edge 33, Type (0, 1), BuildingBlock: XUDNAN_clean_linker_2, # of connection points: 2
#     Edge 34, Type (0, 1), BuildingBlock: XUDNAN_clean_linker_2, # of connection points: 2
#     Edge 35, Type (0, 1), BuildingBlock: XUDNAN_clean_linker_2, # of connection points: 2
#     Edge 36, Type (0, 1), BuildingBlock: XUDNAN_clean_linker_2, # of connection points: 2
#     Edge 37, Type (0, 1), BuildingBlock: XUDNAN_clean_linker_2, # of connection points: 2
#     Edge 38, Type (0, 1), BuildingBlock: XUDNAN_clean_linker_2, # of connection points: 2
#     Edge 39, Type (0, 1), BuildingBlock: XUDNAN_clean_linker_2, # of connection points: 2
#     Edge 40, Type (0, 1), BuildingBlock: XUDNAN_clean_linker_2, # of connection points: 2
#     Edge 41, Type (0, 1), BuildingBlock: XUDNAN_clean_linker_2, # of connection points: 2
#     Edge 42, Type (0, 1), BuildingBlock: XUDNAN_clean_linker_2, # of connection points: 2
#     Edge 43, Type (0, 1), BuildingBlock: XUDNAN_clean_linker_2, # of connection points: 2
#     Edge 44, Type (0, 1), BuildingBlock: XUDNAN_clean_linker_2, # of connection points: 2
#     Edge 45, Type (0, 1), BuildingBlock: XUDNAN_clean_linker_2, # of connection points: 2
#     Edge 46, Type (0, 1), BuildingBlock: XUDNAN_clean_linker_2, # of connection points: 2
#     Edge 47, Type (0, 1), BuildingBlock: XUDNAN_clean_linker_2, # of connection points: 2
# Relax obj value: 0.003
# Max RMSD: 0.052
# Mean RMSD: 0.027
data_MOF--net-ssb--node1-NAWXER_clean_sbu_0--node2-MUDLON_clean_linker_0--edge1-XUDNAN_clean_linker_2
_symmetry_space_group_name_H-M    P1
_symmetry_Int_Tables_number       1
_symmetry_cell_setting            triclinic
loop_
_symmetry_equiv_pos_as_xyz
'x, y, z'
_cell_length_a     60.436513
_cell_length_b     60.435518
_cell_length_c     52.625649
_cell_angle_alpha  89.994163
_cell_angle_beta   90.030314
_cell_angle_gamma 89.94688
loop_
_atom_site_label
_atom_site_type_symbol
_atom_site_fract_x
_atom_site_fract_y
_atom_site_fract_z
_atom_type_partial_charge
H0 H 0.24393 0.28686 0.14424 0.0
N1 N 0.28063 0.27978 0.17088 0.0
H2 H 0.23081 0.32184 0.12614 0.0
H3 H 0.29994 0.32052 0.17694 0.0
H4 H 0.28681 0.35556 0.15939 0.0
H5 H 0.31866 0.28519 0.19921 0.0
H6 H 0.35636 0.27957 0.18471 0.0
H7 H 0.2939 0.26353 0.12651 0.0
H8 H 0.33185 0.25887 0.11128 0.0
H9 H 0.25989 0.24266 0.18383 0.0
H10 H 0.28527 0.30344 0.21519 0.0
H11 H 0.2471 0.23145 0.2262 0.0
H12 H 0.27262 0.29243 0.25732 0.0
H13 H 0.18991 0.21755 0.356 0.0
H14 H 0.15834 0.23455 0.37612 0.0
H15 H 0.19044 0.29846 0.37113 0.0
H16 H 0.22318 0.2806 0.35357 0.0
H17 H 0.24588 0.22647 0.39114 0.0
H18 H 0.25052 0.18921 0.40889 0.0
H19 H 0.22686 0.16108 0.33855 0.0
H20 H 0.22191 0.19821 0.32113 0.0
H21 H 0.20651 0.23272 0.30167 0.0
H22 H 0.21903 0.24278 0.2588 0.0
H23 H 0.28167 0.2641 0.28986 0.0
N24 N 0.22992 0.23753 0.3458 0.0
H25 H 0.26897 0.25396 0.33253 0.0
C26 C 0.27285 0.30098 0.16186 0.0
C27 C 0.25324 0.30186 0.14772 0.0
C28 C 0.24575 0.32188 0.13752 0.0
C29 C 0.25778 0.34154 0.14126 0.0
C30 C 0.27729 0.3407 0.15585 0.0
C31 C 0.28475 0.32066 0.16607 0.0
C32 C 0.30323 0.27463 0.16396 0.0
C33 C 0.32121 0.27899 0.18019 0.0
C34 C 0.34293 0.27598 0.17172 0.0
C35 C 0.34728 0.26896 0.14668 0.0
C36 C 0.32924 0.264 0.13076 0.0
C37 C 0.30751 0.26677 0.13937 0.0
C38 C 0.27361 0.27377 0.19622 0.0
C39 C 0.26271 0.25355 0.19985 0.0
C40 C 0.25532 0.24725 0.224 0.0
C41 C 0.25888 0.26104 0.24514 0.0
C42 C 0.26984 0.28132 0.24149 0.0
C43 C 0.27703 0.28768 0.21731 0.0
C44 C 0.20939 0.24769 0.35387 0.0
C45 C 0.19032 0.2352 0.35931 0.0
C46 C 0.1719 0.24516 0.3706 0.0
C47 C 0.17162 0.26806 0.37584 0.0
C48 C 0.19011 0.28072 0.36844 0.0
C49 C 0.20883 0.2706 0.35799 0.0
C50 C 0.23396 0.21524 0.35471 0.0
C51 C 0.2419 0.21223 0.37951 0.0
C52 C 0.24432 0.19099 0.38968 0.0
C53 C 0.23903 0.17225 0.3751 0.0
C54 C 0.23127 0.17522 0.35013 0.0
C55 C 0.22855 0.1965 0.34009 0.0
C56 C 0.23692 0.24257 0.32023 0.0
C57 C 0.22298 0.2394 0.29914 0.0
C58 C 0.23018 0.24511 0.27469 0.0
C59 C 0.25133 0.25431 0.27094 0.0
C60 C 0.2652 0.25731 0.29212 0.0
C61 C 0.25806 0.25142 0.31646 0.0
H62 H 0.69568 0.36659 0.22587 0.0
N63 N 0.70974 0.32506 0.22747 0.0
H64 H 0.71073 0.39694 0.20035 0.0
H65 H 0.74931 0.32445 0.20183 0.0
H66 H 0.76435 0.35457 0.17621 0.0
H67 H 0.71695 0.30587 0.1809 0.0
H68 H 0.68887 0.2919 0.15183 0.0
H69 H 0.66623 0.3232 0.23503 0.0
H70 H 0.63777 0.31007 0.20509 0.0
H71 H 0.71804 0.33039 0.27664 0.0
H72 H 0.73146 0.28643 0.21395 0.0
H73 H 0.73956 0.30633 0.30479 0.0
H74 H 0.75179 0.26204 0.24184 0.0
H75 H 0.79704 0.25557 0.37242 0.0
H76 H 0.82961 0.26708 0.39661 0.0
H77 H 0.8676 0.21452 0.36195 0.0
H78 H 0.83473 0.20294 0.33814 0.0
H79 H 0.78678 0.17968 0.32331 0.0
H80 H 0.76857 0.14951 0.34644 0.0
H81 H 0.75549 0.19396 0.4089 0.0
H82 H 0.77379 0.22386 0.38584 0.0
H83 H 0.75854 0.246 0.35297 0.0
H84 H 0.73857 0.27158 0.32556 0.0
H85 H 0.78485 0.25809 0.26485 0.0
N86 N 0.7945 0.2205 0.33963 0.0
H87 H 0.80407 0.23161 0.29218 0.0
C88 C 0.72133 0.34332 0.21591 0.0
C89 C 0.71097 0.36407 0.21553 0.0
C90 C 0.71945 0.38127 0.20075 0.0
C91 C 0.7386 0.37806 0.18609 0.0
C92 C 0.74965 0.3576 0.18745 0.0
C93 C 0.74106 0.34033 0.20214 0.0
C94 C 0.69375 0.31501 0.21066 0.0
C95 C 0.69985 0.30624 0.18686 0.0
C96 C 0.68377 0.29846 0.17008 0.0
C97 C 0.66128 0.2999 0.17636 0.0
C98 C 0.65508 0.3088 0.19994 0.0
C99 C 0.67125 0.31611 0.21704 0.0
C100 C 0.72277 0.31033 0.2432 0.0
C101 C 0.72547 0.31551 0.26898 0.0
C102 C 0.73765 0.30163 0.28506 0.0
C103 C 0.7474 0.2821 0.27569 0.0
C104 C 0.74484 0.27705 0.24975 0.0
C105 C 0.73285 0.29103 0.23367 0.0
C106 C 0.81356 0.22844 0.35333 0.0
C107 C 0.81238 0.24661 0.36994 0.0
C108 C 0.83107 0.2532 0.3837 0.0
C109 C 0.85124 0.24171 0.38121 0.0
C110 C 0.85229 0.22356 0.36455 0.0
C111 C 0.83363 0.21703 0.35078 0.0
C112 C 0.78161 0.20398 0.35271 0.0
C113 C 0.77966 0.18294 0.34182 0.0
C114 C 0.76935 0.16576 0.35507 0.0
C115 C 0.76063 0.1694 0.37948 0.0
C116 C 0.7618 0.19074 0.39 0.0
C117 C 0.77233 0.20786 0.37682 0.0
C118 C 0.78267 0.23651 0.32445 0.0
C119 C 0.76435 0.24837 0.33376 0.0
C120 C 0.75303 0.26327 0.31805 0.0
C121 C 0.75993 0.26688 0.29283 0.0
C122 C 0.77868 0.25542 0.28392 0.0
C123 C 0.78982 0.24039 0.29954 0.0
H124 H 0.82966 0.80461 0.34892 0.0
N125 N 0.82791 0.82485 0.30251 0.0
H126 H 0.86325 0.79746 0.37339 0.0
H127 H 0.86904 0.82463 0.28472 0.0
H128 H 0.90286 0.81739 0.30905 0.0
H129 H 0.84561 0.86341 0.31536 0.0
H130 H 0.83274 0.88923 0.34727 0.0
H131 H 0.78625 0.82467 0.32479 0.0
H132 H 0.77215 0.85156 0.35465 0.0
H133 H 0.80609 0.78759 0.31879 0.0
H134 H 0.81897 0.82832 0.25332 0.0
H135 H 0.78257 0.76356 0.29321 0.0
H136 H 0.7963 0.80382 0.22711 0.0
H137 H 0.72341 0.6811 0.19934 0.0
H138 H 0.74014 0.65183 0.1736 0.0
H139 H 0.7822 0.70028 0.1374 0.0
H140 H 0.76569 0.72936 0.16382 0.0
H141 H 0.73146 0.74843 0.15355 0.0
H142 H 0.69888 0.76058 0.12969 0.0
H143 H 0.65647 0.73017 0.18558 0.0
H144 H 0.68928 0.71857 0.20992 0.0
H145 H 0.758 0.71285 0.23591 0.0
H146 H 0.78209 0.7365 0.2613 0.0
H147 H 0.75976 0.79342 0.21865 0.0
N148 N 0.73162 0.72417 0.19755 0.0
H149 H 0.73674 0.76986 0.19279 0.0
C150 C 0.84689 0.81511 0.31488 0.0
C151 C 0.84555 0.80656 0.33971 0.0
C152 C 0.86481 0.80259 0.35376 0.0
C153 C 0.88572 0.80718 0.34328 0.0
C154 C 0.88699 0.81405 0.31778 0.0
C155 C 0.86773 0.81794 0.30375 0.0
C156 C 0.81726 0.84182 0.31767 0.0
C157 C 0.82944 0.86086 0.32373 0.0
C158 C 0.82187 0.87579 0.342 0.0
C159 C 0.80137 0.87259 0.35416 0.0
C160 C 0.78838 0.85434 0.34661 0.0
C161 C 0.79637 0.83892 0.32899 0.0
C162 C 0.81422 0.80991 0.28795 0.0
C163 C 0.80405 0.79125 0.29882 0.0
C164 C 0.79065 0.7774 0.28404 0.0
C165 C 0.78739 0.78166 0.25796 0.0
C166 C 0.79795 0.80018 0.24716 0.0
C167 C 0.81109 0.81414 0.26204 0.0
C168 C 0.74322 0.70731 0.18344 0.0
C169 C 0.73642 0.68529 0.18604 0.0
C170 C 0.74588 0.66867 0.17117 0.0
C171 C 0.76235 0.67375 0.15322 0.0
C172 C 0.76965 0.69579 0.15114 0.0
C173 C 0.76015 0.71245 0.1661 0.0
C174 C 0.71279 0.733 0.18393 0.0
C175 C 0.7152 0.74466 0.16094 0.0
C176 C 0.69659 0.75156 0.14728 0.0
C177 C 0.67522 0.74634 0.15587 0.0
C178 C 0.67279 0.73439 0.17858 0.0
C179 C 0.69143 0.72793 0.19256 0.0
C180 C 0.74555 0.73915 0.21206 0.0
C181 C 0.75844 0.73042 0.2319 0.0
C182 C 0.77208 0.74405 0.2466 0.0
C183 C 0.77299 0.76699 0.24212 0.0
C184 C 0.75993 0.7758 0.2224 0.0
C185 C 0.74649 0.76212 0.20748 0.0
H186 H 0.30838 0.74464 0.1701 0.0
N187 N 0.32224 0.72085 0.2116 0.0
H188 H 0.33133 0.76461 0.14055 0.0
H189 H 0.3659 0.72512 0.21287 0.0
H190 H 0.38962 0.74202 0.1811 0.0
H191 H 0.34123 0.68141 0.20748 0.0
H192 H 0.32724 0.64887 0.1848 0.0
H193 H 0.28196 0.71737 0.18821 0.0
H194 H 0.26788 0.68502 0.16537 0.0
H195 H 0.2954 0.75793 0.20637 0.0
H196 H 0.31775 0.7085 0.2597 0.0
H197 H 0.273 0.77482 0.23889 0.0
H198 H 0.29421 0.72492 0.29249 0.0
H199 H 0.25264 0.79293 0.38703 0.0
H200 H 0.27044 0.82373 0.40965 0.0
H201 H 0.24523 0.86936 0.35353 0.0
H202 H 0.2282 0.83837 0.33053 0.0
H203 H 0.22899 0.75372 0.36322 0.0
H204 H 0.19885 0.73547 0.38583 0.0
H205 H 0.15994 0.79547 0.38026 0.0
H206 H 0.18935 0.81266 0.35585 0.0
H207 H 0.21848 0.78939 0.2948 0.0
H208 H 0.24052 0.77015 0.26271 0.0
H209 H 0.29027 0.75587 0.31952 0.0
N210 N 0.22834 0.7959 0.34339 0.0
H211 H 0.26755 0.77403 0.35154 0.0
C212 C 0.33535 0.73418 0.19453 0.0
C213 C 0.32601 0.74501 0.17347 0.0
C214 C 0.33945 0.75589 0.15587 0.0
C215 C 0.36273 0.75496 0.15775 0.0
C216 C 0.37194 0.74389 0.1789 0.0
C217 C 0.35838 0.73397 0.19717 0.0
C218 C 0.31262 0.70167 0.19971 0.0
C219 C 0.3251 0.68216 0.19852 0.0
C220 C 0.31718 0.6637 0.1854 0.0
C221 C 0.29648 0.6644 0.17325 0.0
C222 C 0.28378 0.6839 0.17477 0.0
C223 C 0.29182 0.70242 0.18778 0.0
C224 C 0.30875 0.73187 0.23049 0.0
C225 C 0.29563 0.75053 0.22497 0.0
C226 C 0.28242 0.76017 0.24374 0.0
C227 C 0.28162 0.75127 0.26843 0.0
C228 C 0.29461 0.73251 0.27386 0.0
C229 C 0.30802 0.72301 0.25511 0.0
C230 C 0.23944 0.81343 0.35685 0.0
C231 C 0.25136 0.80949 0.37935 0.0
C232 C 0.26141 0.82707 0.39228 0.0
C233 C 0.2592 0.84886 0.38326 0.0
C234 C 0.24712 0.85272 0.36089 0.0
C235 C 0.23749 0.83511 0.34773 0.0
C236 C 0.21125 0.78452 0.35738 0.0
C237 C 0.21383 0.76279 0.36652 0.0
C238 C 0.19656 0.75243 0.37976 0.0
C239 C 0.1766 0.76375 0.38476 0.0
C240 C 0.17454 0.78574 0.37614 0.0
C241 C 0.19149 0.7958 0.3624 0.0
C242 C 0.24141 0.78345 0.32544 0.0
C243 C 0.23407 0.78192 0.30027 0.0
C244 C 0.24683 0.77108 0.28194 0.0
C245 C 0.26742 0.76167 0.28835 0.0
C246 C 0.27448 0.76275 0.31383 0.0
C247 C 0.26156 0.77339 0.33221 0.0
H248 H 0.19038 0.85822 0.70533 0.0
N249 N 0.2117 0.82514 0.72866 0.0
H250 H 0.20555 0.88637 0.67775 0.0
H251 H 0.25648 0.83599 0.72369 0.0
H252 H 0.2717 0.86523 0.69785 0.0
H253 H 0.21623 0.81063 0.67965 0.0
H254 H 0.18656 0.79672 0.65229 0.0
H255 H 0.17074 0.81428 0.7426 0.0
H256 H 0.14104 0.79991 0.71536 0.0
H257 H 0.21271 0.82085 0.77891 0.0
H258 H 0.24192 0.79529 0.71031 0.0
H259 H 0.23402 0.79434 0.8041 0.0
H260 H 0.26404 0.76936 0.73522 0.0
H261 H 0.30554 0.73378 0.87682 0.0
H262 H 0.34095 0.73836 0.89898 0.0
H263 H 0.37533 0.71387 0.83278 0.0
H264 H 0.33984 0.70957 0.81071 0.0
H265 H 0.31207 0.6739 0.84129 0.0
H266 H 0.29393 0.64745 0.86871 0.0
H267 H 0.23907 0.69295 0.8781 0.0
H268 H 0.2588 0.72027 0.85297 0.0
H269 H 0.28909 0.75733 0.84465 0.0
H270 H 0.26914 0.78469 0.81949 0.0
H271 H 0.26152 0.73674 0.75911 0.0
N272 N 0.29963 0.71488 0.83017 0.0
H273 H 0.28261 0.70988 0.78402 0.0
C274 C 0.22194 0.84384 0.71569 0.0
C275 C 0.2082 0.85951 0.70371 0.0
C276 C 0.217 0.87593 0.68807 0.0
C277 C 0.24001 0.87795 0.68482 0.0
C278 C 0.25389 0.86366 0.6988 0.0
C279 C 0.24504 0.84675 0.71388 0.0
C280 C 0.19559 0.81365 0.71321 0.0
C281 C 0.19998 0.80796 0.68774 0.0
C282 C 0.183 0.8002 0.67206 0.0
C283 C 0.16151 0.79748 0.68169 0.0
C284 C 0.15748 0.80185 0.7075 0.0
C285 C 0.17438 0.80999 0.72306 0.0
C286 C 0.22575 0.81018 0.74283 0.0
C287 C 0.224 0.8097 0.76935 0.0
C288 C 0.23632 0.79457 0.7837 0.0
C289 C 0.25087 0.77959 0.77181 0.0
C290 C 0.25276 0.78029 0.74511 0.0
C291 C 0.24021 0.79525 0.73077 0.0
C292 C 0.32014 0.72151 0.84198 0.0
C293 C 0.32076 0.7301 0.86682 0.0
C294 C 0.34099 0.73261 0.87948 0.0
C295 C 0.36089 0.72628 0.86768 0.0
C296 C 0.36025 0.71865 0.84245 0.0
C297 C 0.34006 0.71639 0.82974 0.0
C298 C 0.28695 0.69908 0.84484 0.0
C299 C 0.29611 0.67813 0.8493 0.0
C300 C 0.28542 0.66283 0.86485 0.0
C301 C 0.26464 0.66762 0.87572 0.0
C302 C 0.25516 0.68854 0.87066 0.0
C303 C 0.26635 0.70423 0.85583 0.0
C304 C 0.28768 0.73155 0.81602 0.0
C305 C 0.2834 0.75275 0.8259 0.0
C306 C 0.2717 0.76838 0.81151 0.0
C307 C 0.26369 0.76308 0.78709 0.0
C308 C 0.26779 0.74171 0.77752 0.0
C309 C 0.2797 0.72622 0.7918 0.0
H310 H 0.30831 0.28723 0.88162 0.0
N311 N 0.29745 0.30226 0.83584 0.0
H312 H 0.34535 0.28535 0.90031 0.0
H313 H 0.33649 0.30703 0.80995 0.0
H314 H 0.37364 0.30547 0.82859 0.0
H315 H 0.31723 0.3408 0.82032 0.0
H316 H 0.31172 0.37699 0.83885 0.0
H317 H 0.26365 0.31466 0.86509 0.0
H318 H 0.25634 0.35157 0.88208 0.0
H319 H 0.29893 0.25988 0.82193 0.0
H320 H 0.28219 0.32471 0.79312 0.0
H321 H 0.28874 0.24358 0.78127 0.0
H322 H 0.27068 0.30842 0.75333 0.0
H323 H 0.23607 0.1942 0.66526 0.0
H324 H 0.25355 0.16246 0.64659 0.0
H325 H 0.31447 0.19957 0.63867 0.0
H326 H 0.29562 0.23237 0.65478 0.0
H327 H 0.23923 0.25384 0.6241 0.0
H328 H 0.20161 0.25305 0.60662 0.0
H329 H 0.1782 0.22219 0.67552 0.0
H330 H 0.21565 0.22325 0.69294 0.0
H331 H 0.24937 0.21725 0.71447 0.0
H332 H 0.25945 0.23383 0.75521 0.0
H333 H 0.28242 0.29233 0.71582 0.0
N334 N 0.25317 0.2365 0.66766 0.0
H335 H 0.27072 0.27609 0.67554 0.0
C336 C 0.3196 0.29735 0.84454 0.0
C337 C 0.32256 0.29063 0.86979 0.0
C338 C 0.34372 0.28961 0.8804 0.0
C339 C 0.36237 0.29547 0.86596 0.0
C340 C 0.35953 0.30113 0.84024 0.0
C341 C 0.33834 0.3019 0.82955 0.0
C342 C 0.29117 0.32478 0.84185 0.0
C343 C 0.3039 0.34295 0.83378 0.0
C344 C 0.30046 0.3639 0.84424 0.0
C345 C 0.28377 0.36743 0.8625 0.0
C346 C 0.26986 0.34952 0.86882 0.0
C347 C 0.27372 0.32842 0.85881 0.0
C348 C 0.29183 0.29359 0.8109 0.0
C349 C 0.2931 0.27064 0.80688 0.0
C350 C 0.28693 0.26128 0.78364 0.0
C351 C 0.27876 0.27459 0.7638 0.0
C352 C 0.27731 0.29759 0.76785 0.0
C353 C 0.28386 0.307 0.79096 0.0
C354 C 0.26428 0.21616 0.66072 0.0
C355 C 0.25312 0.19577 0.6594 0.0
C356 C 0.26345 0.1772 0.64896 0.0
C357 C 0.28559 0.17813 0.64053 0.0
C358 C 0.29722 0.19815 0.6439 0.0
C359 C 0.28658 0.21695 0.6535 0.0
C360 C 0.23036 0.23866 0.65975 0.0
C361 C 0.22587 0.24738 0.63562 0.0
C362 C 0.20441 0.2469 0.62569 0.0
C363 C 0.18703 0.23739 0.63966 0.0
C364 C 0.19134 0.22942 0.66426 0.0
C365 C 0.21275 0.23023 0.67433 0.0
C366 C 0.25894 0.24568 0.69205 0.0
C367 C 0.25617 0.23381 0.71476 0.0
C368 C 0.26231 0.24324 0.73803 0.0
C369 C 0.2718 0.26455 0.73904 0.0
C370 C 0.27474 0.27617 0.71608 0.0
C371 C 0.26823 0.26687 0.69295 0.0
H372 H 0.81195 0.26374 0.63778 0.0
N373 N 0.79865 0.24621 0.6814 0.0
H374 H 0.84945 0.2748 0.62618 0.0
H375 H 0.8335 0.25058 0.71435 0.0
H376 H 0.87099 0.26229 0.70322 0.0
H377 H 0.82475 0.21209 0.6983 0.0
H378 H 0.827 0.17513 0.67993 0.0
H379 H 0.77164 0.22858 0.64699 0.0
H380 H 0.77401 0.1916 0.6281 0.0
H381 H 0.77834 0.28442 0.68967 0.0
H382 H 0.79458 0.2227 0.72637 0.0
H383 H 0.76036 0.29723 0.72846 0.0
H384 H 0.77552 0.23468 0.76448 0.0
H385 H 0.71386 0.3427 0.84346 0.0
H386 H 0.7309 0.37147 0.86862 0.0
H387 H 0.78175 0.32498 0.89205 0.0
H388 H 0.76222 0.29579 0.86995 0.0
H389 H 0.72524 0.25782 0.85916 0.0
H390 H 0.69479 0.23894 0.88058 0.0
H391 H 0.65576 0.29895 0.87564 0.0
H392 H 0.68524 0.31647 0.85203 0.0
H393 H 0.71263 0.30802 0.79324 0.0
H394 H 0.72945 0.29373 0.75428 0.0
H395 H 0.77736 0.25783 0.79949 0.0
N396 N 0.72506 0.30012 0.84098 0.0
H397 H 0.75937 0.27095 0.83799 0.0
C398 C 0.81991 0.25633 0.6768 0.0
C399 C 0.82469 0.26389 0.65226 0.0
C400 C 0.84614 0.2703 0.64573 0.0
C401 C 0.86334 0.26933 0.66373 0.0
C402 C 0.85823 0.26293 0.68879 0.0
C403 C 0.83674 0.2564 0.69526 0.0
C404 C 0.79792 0.22318 0.67401 0.0
C405 C 0.81329 0.20766 0.68336 0.0
C406 C 0.8147 0.18654 0.67266 0.0
C407 C 0.80087 0.18047 0.65233 0.0
C408 C 0.78479 0.19564 0.64387 0.0
C409 C 0.78339 0.21678 0.65461 0.0
C410 C 0.78772 0.25259 0.70475 0.0
C411 C 0.77777 0.27352 0.70599 0.0
C412 C 0.76731 0.28071 0.72819 0.0
C413 C 0.76623 0.26698 0.74977 0.0
C414 C 0.77621 0.24592 0.74849 0.0
C415 C 0.78702 0.23889 0.72638 0.0
C416 C 0.73673 0.31712 0.85468 0.0
C417 C 0.72854 0.33877 0.85436 0.0
C418 C 0.73875 0.35541 0.86854 0.0
C419 C 0.75819 0.35113 0.88265 0.0
C420 C 0.76666 0.32931 0.88222 0.0
C421 C 0.75574 0.31244 0.86897 0.0
C422 C 0.70748 0.28856 0.85382 0.0
C423 C 0.70994 0.26669 0.86236 0.0
C424 C 0.69249 0.256 0.87495 0.0
C425 C 0.67242 0.26718 0.87995 0.0
C426 C 0.6704 0.28927 0.87162 0.0
C427 C 0.68751 0.2996 0.85839 0.0
C428 C 0.73489 0.29083 0.81845 0.0
C429 C 0.72666 0.29691 0.79459 0.0
C430 C 0.73649 0.28887 0.77236 0.0
C431 C 0.75505 0.27475 0.77352 0.0
C432 C 0.76301 0.26844 0.79763 0.0
C433 C 0.75291 0.27622 0.81983 0.0
H434 H 0.76158 0.79601 0.62277 0.0
N435 N 0.77796 0.77845 0.66528 0.0
H436 H 0.75738 0.8353 0.61245 0.0
H437 H 0.78364 0.81326 0.69811 0.0
H438 H 0.77897 0.85242 0.68825 0.0
H439 H 0.81541 0.79043 0.69126 0.0
H440 H 0.85336 0.78761 0.67607 0.0
H441 H 0.79209 0.75804 0.62342 0.0
H442 H 0.83011 0.75583 0.6075 0.0
H443 H 0.73806 0.78541 0.68693 0.0
H444 H 0.799 0.74904 0.69824 0.0
H445 H 0.72486 0.77261 0.72809 0.0
H446 H 0.78573 0.73649 0.7391 0.0
H447 H 0.68787 0.71165 0.85659 0.0
H448 H 0.65644 0.72963 0.87481 0.0
H449 H 0.684 0.79351 0.85542 0.0
H450 H 0.71704 0.77514 0.83919 0.0
H451 H 0.74729 0.71924 0.88007 0.0
H452 H 0.7495 0.68194 0.89808 0.0
H453 H 0.71465 0.65619 0.83278 0.0
H454 H 0.7123 0.69355 0.81511 0.0
H455 H 0.70102 0.72999 0.79492 0.0
H456 H 0.71335 0.73938 0.75184 0.0
H457 H 0.77869 0.75362 0.78092 0.0
N458 N 0.72603 0.73177 0.83829 0.0
H459 H 0.76621 0.74407 0.82379 0.0
C460 C 0.77294 0.80162 0.66109 0.0
C461 C 0.76506 0.80828 0.63723 0.0
C462 C 0.76258 0.83074 0.63144 0.0
C463 C 0.76796 0.84705 0.64948 0.0
C464 C 0.77503 0.84032 0.67376 0.0
C465 C 0.77762 0.81789 0.67948 0.0
C466 C 0.80082 0.77432 0.65847 0.0
C467 C 0.81848 0.78255 0.67315 0.0
C468 C 0.84021 0.78103 0.66432 0.0
C469 C 0.84484 0.77174 0.64037 0.0
C470 C 0.82724 0.76286 0.62613 0.0
C471 C 0.80548 0.76415 0.63514 0.0
C472 C 0.77035 0.76986 0.68973 0.0
C473 C 0.74883 0.77503 0.69827 0.0
C474 C 0.74111 0.76744 0.72175 0.0
C475 C 0.75448 0.75398 0.73716 0.0
C476 C 0.77534 0.74749 0.72804 0.0
C477 C 0.78304 0.75498 0.70451 0.0
C478 C 0.7054 0.74195 0.84642 0.0
C479 C 0.68751 0.72951 0.85601 0.0
C480 C 0.66901 0.73998 0.86632 0.0
C481 C 0.66732 0.76322 0.86672 0.0
C482 C 0.68473 0.77563 0.85608 0.0
C483 C 0.7036 0.76513 0.84643 0.0
C484 C 0.72977 0.70921 0.8463 0.0
C485 C 0.74057 0.70544 0.86944 0.0
C486 C 0.74183 0.68414 0.87964 0.0
C487 C 0.73216 0.66613 0.86689 0.0
C488 C 0.72207 0.66977 0.84315 0.0
C489 C 0.72094 0.69109 0.83288 0.0
C490 C 0.73277 0.73649 0.81255 0.0
C491 C 0.718 0.73506 0.79194 0.0
C492 C 0.72505 0.74052 0.76738 0.0
C493 C 0.747 0.74727 0.76296 0.0
C494 C 0.76176 0.74824 0.7836 0.0
C495 C 0.75467 0.74292 0.8081 0.0
C496 C 0.99372 0.28228 0.55812 0.0
C497 C 0.04472 0.29031 0.48673 0.0
O498 O 1.00164 0.30024 0.5495 0.0
Zn499 Zn 0.01846 0.28712 0.52182 0.0
O500 O 0.99813 0.26391 0.54708 0.0
Zn501 Zn 0.01645 0.25238 0.51492 0.0
O502 O 0.03697 0.23212 0.53113 0.0
O503 O 0.04278 0.26715 0.54104 0.0
O504 O 0.03803 0.27036 0.48984 0.0
O505 O 0.0374 0.30556 0.50112 0.0
O506 O 0.99288 0.27741 0.49605 0.0
O507 O 0.99354 0.24109 0.49241 0.0
C508 C 0.04813 0.24668 0.543 0.0
C509 C 0.98492 0.25959 0.48652 0.0
C510 C 0.7931 0.04543 0.54842 0.0
C511 C 0.78248 0.98513 0.48781 0.0
O512 O 0.8077 0.03588 0.53492 0.0
Zn513 Zn 0.78826 0.01537 0.51786 0.0
O514 O 0.77286 0.03913 0.54691 0.0
Zn515 Zn 0.75372 0.01502 0.52618 0.0
O516 O 0.7422 0.99592 0.55272 0.0
O517 O 0.77853 0.99384 0.54827 0.0
O518 O 0.76448 0.99083 0.49892 0.0
O519 O 0.80035 0.99534 0.49273 0.0
O520 O 0.7686 0.03688 0.49508 0.0
O521 O 0.7337 0.03392 0.50682 0.0
C522 C 0.76071 0.98783 0.55954 0.0
C523 C 0.74831 0.04261 0.49259 0.0
C524 C 0.98402 0.7627 0.54362 0.0
C525 C 0.04525 0.74432 0.48618 0.0
O526 O 0.99563 0.77938 0.53664 0.0
Zn527 Zn 0.02346 0.78662 0.51289 0.0
O528 O 0.98877 0.74352 0.53522 0.0
Zn529 Zn 0.01424 0.75247 0.5149 0.0
O530 O 0.03693 0.76339 0.54368 0.0
O531 O 0.04481 0.79854 0.53676 0.0
O532 O 0.03214 0.7306 0.49662 0.0
O533 O 0.04331 0.76501 0.49075 0.0
O534 O 0.01087 0.80554 0.48716 0.0
O535 O 0.99857 0.77119 0.48503 0.0
C536 C 0.04738 0.78104 0.54986 0.0
C537 C 0.99867 0.79111 0.47655 0.0
C538 C 0.30368 0.04497 0.53948 0.0
C539 C 0.29347 0.98255 0.48168 0.0
O540 O 0.31839 0.03523 0.52635 0.0
Zn541 Zn 0.29897 0.014 0.50989 0.0
O542 O 0.28345 0.0389 0.53769 0.0
Zn543 Zn 0.26431 0.01529 0.51702 0.0
O544 O 0.25136 0.99801 0.54437 0.0
O545 O 0.28742 0.99332 0.54033 0.0
O546 O 0.27515 0.9897 0.49097 0.0
O547 O 0.31153 0.99205 0.48763 0.0
O548 O 0.2806 0.03421 0.48399 0.0
O549 O 0.24565 0.03437 0.49621 0.0
C550 C 0.26916 0.98861 0.55149 0.0
C551 C 0.26063 0.04084 0.48099 0.0
C552 C 0.48228 0.78862 0.0395 0.0
C553 C 0.54043 0.79038 0.97553 0.0
O554 O 0.48948 0.80536 0.0275 0.0
Zn555 Zn 0.51189 0.78999 0.00821 0.0
O556 O 0.491 0.76954 0.0359 0.0
Zn557 Zn 0.51688 0.75548 0.01294 0.0
O558 O 0.53831 0.7448 0.03758 0.0
O559 O 0.53647 0.78118 0.03594 0.0
O560 O 0.53723 0.77094 0.98456 0.0
O561 O 0.52931 0.80663 0.98401 0.0
O562 O 0.49168 0.76903 0.98442 0.0
O563 O 0.50063 0.73433 0.99267 0.0
C564 C 0.54511 0.76355 0.04522 0.0
C565 C 0.48897 0.74826 0.98044 0.0
C566 C 0.26751 0.54137 0.05566 0.0
C567 C 0.27268 0.49059 0.98373 0.0
O568 O 0.28494 0.53474 0.04451 0.0
Zn569 Zn 0.27064 0.5158 0.01956 0.0
O570 O 0.24863 0.53438 0.04805 0.0
Zn571 Zn 0.23554 0.51321 0.01922 0.0
O572 O 0.22082 0.4906 0.03881 0.0
O573 O 0.25721 0.48896 0.04186 0.0
O574 O 0.25266 0.49379 0.99094 0.0
O575 O 0.28853 0.50043 0.99487 0.0
O576 O 0.25402 0.53912 0.99558 0.0
O577 O 0.21799 0.53392 0.99928 0.0
C578 C 0.23806 0.48121 0.04754 0.0
C579 C 0.23416 0.54441 0.98965 0.0
C580 C 0.54153 0.24433 0.98271 0.0
C581 C 0.48405 0.25759 0.04685 0.0
O582 O 0.53878 0.26478 0.98826 0.0
Zn583 Zn 0.51895 0.28473 0.01285 0.0
O584 O 0.52967 0.22965 0.99343 0.0
Zn585 Zn 0.51216 0.24983 0.0143 0.0
O586 O 0.49312 0.26806 0.98714 0.0
O587 O 0.50295 0.3032 0.98898 0.0
O588 O 0.48912 0.23894 0.03724 0.0
O589 O 0.49397 0.2751 0.03925 0.0
O590 O 0.541 0.29752 0.03539 0.0
O591 O 0.53713 0.26139 0.03986 0.0
C592 C 0.49102 0.28805 0.97933 0.0
C593 C 0.54668 0.27951 0.04612 0.0
C594 C 0.78734 0.54738 0.03897 0.0
C595 C 0.79012 0.48353 0.98189 0.0
O596 O 0.80444 0.53915 0.02851 0.0
Zn597 Zn 0.78938 0.51566 0.01027 0.0
O598 O 0.76834 0.53863 0.0348 0.0
Zn599 Zn 0.75449 0.51163 0.01347 0.0
O600 O 0.74228 0.49297 0.03997 0.0
O601 O 0.7787 0.49474 0.04075 0.0
O602 O 0.77045 0.48818 0.98918 0.0
O603 O 0.80634 0.49507 0.98964 0.0
O604 O 0.76992 0.53424 0.98334 0.0
O605 O 0.73472 0.52665 0.99044 0.0
C606 C 0.76056 0.48735 0.05005 0.0
C607 C 0.74939 0.53703 0.9779 0.0
H608 H 0.12759 0.25487 0.3777 0.0
H609 H 0.17284 0.30412 0.40823 0.0
H610 H 0.14296 0.31894 0.4347 0.0
H611 H 0.07602 0.28717 0.38141 0.0
H612 H 0.06024 0.26366 0.39213 0.0
H613 H 0.08375 0.25965 0.37157 0.0
H614 H 0.10106 0.23267 0.40434 0.0
H615 H 0.07761 0.23653 0.42488 0.0
H616 H 0.10513 0.24179 0.43663 0.0
H617 H 0.10913 0.32642 0.4612 0.0
H618 H 0.07575 0.32326 0.48814 0.0
H619 H 0.0543 0.26662 0.44396 0.0
C620 C 0.13141 0.26883 0.38977 0.0
C621 C 0.15285 0.27832 0.39032 0.0
C622 C 0.1566 0.29678 0.4065 0.0
C623 C 0.13968 0.30533 0.42188 0.0
C624 C 0.11903 0.29516 0.42127 0.0
C625 C 0.11491 0.27718 0.40579 0.0
C626 C 0.09228 0.26743 0.41101 0.0
C627 C 0.07718 0.26962 0.38764 0.0
C628 C 0.09414 0.24318 0.41974 0.0
C629 C 0.0846 0.28235 0.43238 0.0
C630 C 0.09998 0.29864 0.43755 0.0
C631 C 0.09688 0.31386 0.45717 0.0
C632 C 0.07784 0.312 0.47231 0.0
C633 C 0.06246 0.29473 0.46809 0.0
C634 C 0.06574 0.28005 0.44754 0.0
H635 H 0.78009 0.12919 0.38622 0.0
H636 H 0.72262 0.16763 0.40817 0.0
H637 H 0.71051 0.13713 0.43642 0.0
H638 H 0.75393 0.07399 0.38832 0.0
H639 H 0.77848 0.06133 0.4013 0.0
H640 H 0.78083 0.08494 0.38056 0.0
H641 H 0.80337 0.1057 0.41506 0.0
H642 H 0.80108 0.08221 0.43584 0.0
H643 H 0.79177 0.10902 0.44639 0.0
H644 H 0.70637 0.10308 0.46472 0.0
H645 H 0.71199 0.07022 0.49223 0.0
H646 H 0.7727 0.05526 0.45179 0.0
C647 C 0.76462 0.13094 0.39641 0.0
C648 C 0.75211 0.15061 0.39477 0.0
C649 C 0.73238 0.15262 0.40911 0.0
C650 C 0.72533 0.13535 0.42507 0.0
C651 C 0.73824 0.11623 0.42648 0.0
C652 C 0.75751 0.11402 0.41252 0.0
C653 C 0.76959 0.09286 0.41906 0.0
C654 C 0.77077 0.07737 0.39593 0.0
C655 C 0.79281 0.09775 0.42972 0.0
C656 C 0.75442 0.0837 0.4393 0.0
C657 C 0.7362 0.09713 0.44309 0.0
C658 C 0.72046 0.09235 0.46172 0.0
C659 C 0.72373 0.07363 0.47719 0.0
C660 C 0.74277 0.06022 0.47413 0.0
C661 C 0.75796 0.06517 0.45457 0.0
H662 H 0.89824 0.7764 0.37924 0.0
H663 H 0.91812 0.83861 0.34498 0.0
H664 H 0.9498 0.84078 0.37441 0.0
H665 H 0.91084 0.79099 0.44282 0.0
H666 H 0.92109 0.76404 0.45166 0.0
H667 H 0.90068 0.76662 0.4269 0.0
H668 H 0.92638 0.74554 0.39577 0.0
H669 H 0.94682 0.74279 0.4205 0.0
H670 H 0.95417 0.75537 0.39062 0.0
H671 H 0.97773 0.83765 0.40966 0.0
H672 H 1.00136 0.82806 0.44643 0.0
H673 H 0.96383 0.76756 0.45715 0.0
C674 C 0.90938 0.79037 0.3778 0.0
C675 C 0.90578 0.80724 0.35965 0.0
C676 C 0.92075 0.82526 0.35838 0.0
C677 C 0.93872 0.82674 0.37515 0.0
C678 C 0.94162 0.80999 0.39302 0.0
C679 C 0.92751 0.79203 0.39429 0.0
C680 C 0.93415 0.77647 0.41555 0.0
C681 C 0.91558 0.77442 0.4354 0.0
C682 C 0.94078 0.7537 0.40497 0.0
C683 C 0.95398 0.78866 0.42623 0.0
C684 C 0.95798 0.80799 0.41302 0.0
C685 C 0.97491 0.82244 0.42 0.0
C686 C 0.98819 0.8169 0.44096 0.0
C687 C 0.98454 0.79702 0.45457 0.0
C688 C 0.96721 0.78277 0.44698 0.0
H689 H 0.23825 0.88624 0.3997 0.0
H690 H 0.30211 0.85356 0.39887 0.0
H691 H 0.31851 0.88524 0.42214 0.0
H692 H 0.25772 0.94241 0.39223 0.0
H693 H 0.23755 0.95383 0.4138 0.0
H694 H 0.23123 0.92913 0.39608 0.0
H695 H 0.22254 0.90837 0.438 0.0
H696 H 0.22874 0.93302 0.45583 0.0
H697 H 0.24305 0.90757 0.46287 0.0
H698 H 0.32781 0.92085 0.44523 0.0
H699 H 0.32864 0.9558 0.46966 0.0
H700 H 0.25814 0.96405 0.45702 0.0
C701 C 0.25572 0.88589 0.40426 0.0
C702 C 0.26902 0.86764 0.39737 0.0
C703 C 0.29171 0.86746 0.40404 0.0
C704 C 0.30115 0.88539 0.41711 0.0
C705 C 0.28758 0.9032 0.42359 0.0
C706 C 0.2653 0.90345 0.41762 0.0
C707 C 0.25406 0.92398 0.4279 0.0
C708 C 0.24459 0.93817 0.4062 0.0
C709 C 0.23604 0.91786 0.4473 0.0
C710 C 0.27348 0.93528 0.44058 0.0
C711 C 0.29273 0.9232 0.43764 0.0
C712 C 0.31282 0.93042 0.44769 0.0
C713 C 0.31315 0.95033 0.46146 0.0
C714 C 0.29346 0.96263 0.46531 0.0
C715 C 0.27346 0.955 0.45449 0.0
H716 H 0.15033 0.81652 0.63633 0.0
H717 H 0.13093 0.76477 0.68885 0.0
H718 H 0.09949 0.75506 0.66079 0.0
H719 H 0.09519 0.83415 0.62088 0.0
H720 H 0.1014 0.83986 0.58803 0.0
H721 H 0.12278 0.84221 0.61174 0.0
H722 H 0.14727 0.81469 0.58652 0.0
H723 H 0.12601 0.81234 0.56268 0.0
H724 H 0.13637 0.78788 0.57827 0.0
H725 H 0.07085 0.75057 0.62669 0.0
H726 H 0.04579 0.75242 0.58974 0.0
H727 H 0.08264 0.80845 0.5603 0.0
C728 C 0.13957 0.80299 0.64174 0.0
C729 C 0.14308 0.79121 0.66459 0.0
C730 C 0.12845 0.77393 0.67139 0.0
C731 C 0.11063 0.76831 0.65557 0.0
C732 C 0.10756 0.78032 0.63322 0.0
C733 C 0.12153 0.79739 0.62637 0.0
C734 C 0.11417 0.80809 0.6017 0.0
C735 C 0.10802 0.83253 0.60585 0.0
C736 C 0.13202 0.80559 0.58108 0.0
C737 C 0.09393 0.79429 0.59566 0.0
C738 C 0.09053 0.77827 0.61401 0.0
C739 C 0.07327 0.76311 0.61228 0.0
C740 C 0.05916 0.76428 0.59119 0.0
C741 C 0.0622 0.78065 0.57223 0.0
C742 C 0.07975 0.79593 0.57465 0.0
H743 H 0.27571 0.1334 0.64515 0.0
H744 H 0.31823 0.17879 0.60356 0.0
H745 H 0.33215 0.1478 0.57814 0.0
H746 H 0.31032 0.08331 0.64126 0.0
H747 H 0.28674 0.06577 0.63543 0.0
H748 H 0.2837 0.09043 0.65439 0.0
H749 H 0.25245 0.10415 0.62451 0.0
H750 H 0.25534 0.07956 0.60558 0.0
H751 H 0.25775 0.1064 0.5909 0.0
H752 H 0.33891 0.11239 0.55393 0.0
H753 H 0.33466 0.07703 0.5306 0.0
H754 H 0.28421 0.05651 0.58412 0.0
C755 C 0.288 0.13707 0.63085 0.0
C756 C 0.29583 0.1589 0.62685 0.0
C757 C 0.31224 0.16237 0.60791 0.0
C758 C 0.32025 0.14478 0.5931 0.0
C759 C 0.31157 0.12374 0.59708 0.0
C760 C 0.29563 0.11988 0.61536 0.0
C761 C 0.28666 0.09655 0.61352 0.0
C762 C 0.2922 0.08323 0.63759 0.0
C763 C 0.26157 0.09669 0.60831 0.0
C764 C 0.29953 0.08812 0.59085 0.0
C765 C 0.31433 0.10377 0.58209 0.0
C766 C 0.32751 0.09994 0.56076 0.0
C767 C 0.32506 0.07982 0.54768 0.0
C768 C 0.30914 0.06414 0.55563 0.0
C769 C 0.29657 0.06823 0.57773 0.0
H770 H 0.87988 0.29983 0.62954 0.0
H771 H 0.89959 0.24542 0.67848 0.0
H772 H 0.93721 0.247 0.66083 0.0
H773 H 0.90705 0.28139 0.57617 0.0
H774 H 0.91545 0.30818 0.56465 0.0
H775 H 0.89121 0.30569 0.58422 0.0
H776 H 0.90748 0.33409 0.616 0.0
H777 H 0.93182 0.33674 0.59643 0.0
H778 H 0.93451 0.32937 0.62948 0.0
H779 H 0.97016 0.24968 0.63313 0.0
H780 H 0.99705 0.25466 0.59827 0.0
H781 H 0.9572 0.30792 0.56747 0.0
C782 C 0.89223 0.28855 0.63693 0.0
C783 C 0.88672 0.27263 0.65562 0.0
C784 C 0.90341 0.25811 0.66465 0.0
C785 C 0.92486 0.2588 0.65463 0.0
C786 C 0.92953 0.27423 0.63572 0.0
C787 C 0.91378 0.28903 0.62712 0.0
C788 C 0.92254 0.30256 0.60501 0.0
C789 C 0.90821 0.29924 0.58111 0.0
C790 C 0.92419 0.32715 0.61217 0.0
C791 C 0.9453 0.29235 0.60182 0.0
C792 C 0.94903 0.27617 0.61994 0.0
C793 C 0.96774 0.26271 0.6193 0.0
C794 C 0.98287 0.2656 0.59944 0.0
C795 C 0.97934 0.28196 0.58067 0.0
C796 C 0.96058 0.29582 0.58215 0.0
H797 H 0.73762 0.86957 0.61982 0.0
H798 H 0.79864 0.87837 0.66223 0.0
H799 H 0.80058 0.91706 0.64785 0.0
H800 H 0.75409 0.89941 0.56626 0.0
H801 H 0.72745 0.91168 0.55998 0.0
H802 H 0.72915 0.88553 0.57619 0.0
H803 H 0.70643 0.90157 0.61366 0.0
H804 H 0.70468 0.92784 0.59754 0.0
H805 H 0.71577 0.92641 0.6293 0.0
H806 H 0.79887 0.95277 0.62475 0.0
H807 H 0.79296 0.98379 0.59497 0.0
H808 H 0.73263 0.95294 0.56798 0.0
C809 C 0.75124 0.87972 0.62634 0.0
C810 C 0.76787 0.87091 0.6424 0.0
C811 C 0.78543 0.88479 0.65043 0.0
C812 C 0.78674 0.9068 0.64227 0.0
C813 C 0.77029 0.91484 0.62619 0.0
C814 C 0.75278 0.90181 0.61842 0.0
C815 C 0.73815 0.91412 0.5997 0.0
C816 C 0.73717 0.90196 0.57402 0.0
C817 C 0.71487 0.9177 0.61071 0.0
C818 C 0.75061 0.93581 0.59754 0.0
C819 C 0.76902 0.93587 0.61315 0.0
C820 C 0.78426 0.95315 0.61286 0.0
C821 C 0.7808 0.97065 0.59588 0.0
C822 C 0.76217 0.97087 0.5796 0.0
C823 C 0.74664 0.95345 0.58081 0.0
H824 H 0.86695 0.74067 0.61097 0.0
H825 H 0.8741 0.80601 0.64443 0.0
H826 H 0.91109 0.80929 0.62551 0.0
H827 H 0.92484 0.72379 0.61737 0.0
H828 H 0.92543 0.70973 0.58717 0.0
H829 H 0.89994 0.71157 0.60479 0.0
H830 H 0.88072 0.72955 0.56591 0.0
H831 H 0.90613 0.72777 0.54818 0.0
H832 H 0.89248 0.7541 0.55192 0.0
H833 H 0.94599 0.80687 0.6014 0.0
H834 H 0.97738 0.79887 0.57322 0.0
H835 H 0.94846 0.73519 0.55421 0.0
C836 C 0.87633 0.75563 0.6144 0.0
C837 C 0.86761 0.77296 0.62956 0.0
C838 C 0.88051 0.79224 0.63352 0.0
C839 C 0.90154 0.79435 0.62269 0.0
C840 C 0.90954 0.77707 0.60784 0.0
C841 C 0.89744 0.75806 0.60365 0.0
C842 C 0.90976 0.74239 0.58604 0.0
C843 C 0.91532 0.72058 0.59966 0.0
C844 C 0.89648 0.73821 0.56156 0.0
C845 C 0.9305 0.75577 0.58074 0.0
C846 C 0.92996 0.77567 0.59366 0.0
C847 C 0.9467 0.79129 0.5913 0.0
C848 C 0.96445 0.78658 0.57514 0.0
C849 C 0.96543 0.76639 0.56148 0.0
C850 C 0.94829 0.75067 0.56457 0.0
H851 H 0.22293 0.91852 0.66906 0.0
H852 H 0.27796 0.87337 0.65628 0.0
H853 H 0.29228 0.89817 0.62333 0.0
H854 H 0.21365 0.92913 0.60348 0.0
H855 H 0.20594 0.95768 0.60794 0.0
H856 H 0.20122 0.9379 0.63294 0.0
H857 H 0.22385 0.96214 0.66412 0.0
H858 H 0.22862 0.98203 0.63921 0.0
H859 H 0.25172 0.97002 0.65596 0.0
H860 H 0.30019 0.92684 0.59068 0.0
H861 H 0.30011 0.95661 0.55875 0.0
H862 H 0.23811 0.98145 0.5892 0.0
C863 C 0.23798 0.91368 0.65942 0.0
C864 C 0.24935 0.89388 0.66584 0.0
C865 C 0.26915 0.88863 0.65261 0.0
C866 C 0.27738 0.90255 0.63356 0.0
C867 C 0.26555 0.92161 0.62755 0.0
C868 C 0.2462 0.92714 0.63991 0.0
C869 C 0.23589 0.94779 0.62849 0.0
C870 C 0.21281 0.94282 0.61756 0.0
C871 C 0.23498 0.96661 0.64812 0.0
C872 C 0.25239 0.95283 0.60757 0.0
C873 C 0.26953 0.93767 0.6077 0.0
C874 C 0.28688 0.93881 0.59038 0.0
C875 C 0.28668 0.95584 0.57235 0.0
C876 C 0.26909 0.97135 0.57145 0.0
C877 C 0.25172 0.96978 0.58935 0.0
H878 H 0.16261 0.26849 0.61403 0.0
H879 H 0.16162 0.2 0.63855 0.0
H880 H 0.12571 0.19464 0.61679 0.0
H881 H 0.10364 0.27823 0.62147 0.0
H882 H 0.10197 0.29595 0.59399 0.0
H883 H 0.12733 0.29429 0.61189 0.0
H884 H 0.14856 0.28354 0.5709 0.0
H885 H 0.12325 0.28506 0.55291 0.0
H886 H 0.13947 0.26002 0.5526 0.0
H887 H 0.09079 0.19636 0.58992 0.0
H888 H 0.05839 0.20591 0.56315 0.0
H889 H 0.08187 0.27359 0.558 0.0
C890 C 0.15477 0.2524 0.61487 0.0
C891 C 0.16485 0.23466 0.62796 0.0
C892 C 0.15404 0.21387 0.62883 0.0
C893 C 0.13372 0.21064 0.61641 0.0
C894 C 0.12433 0.22844 0.60344 0.0
C895 C 0.13439 0.24898 0.60287 0.0
C896 C 0.12081 0.26544 0.58781 0.0
C897 C 0.11297 0.28461 0.60481 0.0
C898 C 0.1338 0.27401 0.56469 0.0
C899 C 0.10166 0.25092 0.57975 0.0
C900 C 0.10401 0.22958 0.58878 0.0
C901 C 0.08868 0.21308 0.58296 0.0
C902 C 0.07039 0.21861 0.56769 0.0
C903 C 0.06752 0.24051 0.55868 0.0
C904 C 0.08343 0.25676 0.56486 0.0
H905 H 0.76916 0.15178 0.6341 0.0
H906 H 0.84024 0.161 0.63947 0.0
H907 H 0.84611 0.12661 0.61515 0.0
H908 H 0.76953 0.09166 0.63922 0.0
H909 H 0.74738 0.08819 0.61663 0.0
H910 H 0.7488 0.11291 0.6357 0.0
H911 H 0.74825 0.13689 0.59486 0.0
H912 H 0.74686 0.11226 0.57569 0.0
H913 H 0.76867 0.13208 0.57052 0.0
H914 H 0.84425 0.09233 0.58792 0.0
H915 H 0.83467 0.06023 0.56096 0.0
H916 H 0.76488 0.07337 0.57356 0.0
C917 C 0.78596 0.14653 0.63025 0.0
C918 C 0.80423 0.15906 0.63888 0.0
C919 C 0.82596 0.15151 0.6335 0.0
C920 C 0.82948 0.13205 0.61954 0.0
C921 C 0.81112 0.12022 0.61114 0.0
C922 C 0.78978 0.1271 0.6164 0.0
C923 C 0.77291 0.11166 0.60466 0.0
C924 C 0.75883 0.10044 0.62529 0.0
C925 C 0.75832 0.12396 0.58528 0.0
C926 C 0.78808 0.09521 0.5917 0.0
C927 C 0.81006 0.1004 0.59567 0.0
C928 C 0.82709 0.08799 0.58485 0.0
C929 C 0.82149 0.06981 0.56953 0.0
C930 C 0.79904 0.06419 0.56523 0.0
C931 C 0.78221 0.07707 0.57664 0.0
H932 H 0.88178 0.21524 0.40553 0.0
H933 H 0.86573 0.28396 0.38997 0.0
H934 H 0.8985 0.29572 0.41446 0.0
H935 H 0.90088 0.22326 0.46919 0.0
H936 H 0.92287 0.2032 0.4669 0.0
H937 H 0.89833 0.20009 0.44781 0.0
H938 H 0.92237 0.19882 0.40709 0.0
H939 H 0.947 0.20193 0.42605 0.0
H940 H 0.94136 0.2211 0.40062 0.0
H941 H 0.93256 0.3001 0.44083 0.0
H942 H 0.96556 0.29705 0.46799 0.0
H943 H 0.96015 0.22539 0.46627 0.0
C944 C 0.88528 0.23276 0.40705 0.0
C945 C 0.87113 0.2487 0.39583 0.0
C946 C 0.87613 0.27146 0.39864 0.0
C947 C 0.89479 0.2783 0.41238 0.0
C948 C 0.90834 0.26218 0.42319 0.0
C949 C 0.90385 0.23988 0.42072 0.0
C950 C 0.92093 0.22599 0.4346 0.0
C951 C 0.9101 0.21233 0.45589 0.0
C952 C 0.93367 0.21108 0.41597 0.0
C953 C 0.93569 0.24398 0.44534 0.0
C954 C 0.92811 0.26472 0.43844 0.0
C955 C 0.93869 0.28397 0.44631 0.0
C956 C 0.95745 0.28203 0.46178 0.0
C957 C 0.96553 0.26097 0.4693 0.0
C958 C 0.9545 0.24171 0.46078 0.0
H959 H 0.81219 0.91676 0.36269 0.0
H960 H 0.77507 0.86202 0.3954 0.0
H961 H 0.76484 0.88554 0.43145 0.0
H962 H 0.83582 0.93342 0.42187 0.0
H963 H 0.83549 0.96251 0.41431 0.0
H964 H 0.83784 0.94235 0.38926 0.0
H965 H 0.80339 0.95907 0.36705 0.0
H966 H 0.80095 0.97932 0.39202 0.0
H967 H 0.77785 0.96165 0.38449 0.0
H968 H 0.75863 0.91484 0.46436 0.0
H969 H 0.75941 0.94702 0.49335 0.0
H970 H 0.80469 0.98075 0.44256 0.0
C971 C 0.80203 0.90946 0.37736 0.0
C972 C 0.79429 0.88735 0.37558 0.0
C973 C 0.78073 0.87899 0.39544 0.0
C974 C 0.77497 0.89219 0.41632 0.0
C975 C 0.7832 0.91365 0.41751 0.0
C976 C 0.79665 0.92217 0.39874 0.0
C977 C 0.80458 0.94523 0.40552 0.0
C978 C 0.82994 0.94591 0.40788 0.0
C979 C 0.79618 0.96233 0.38611 0.0
C980 C 0.79352 0.94829 0.43111 0.0
C981 C 0.78094 0.93001 0.43743 0.0
C982 C 0.76855 0.92918 0.45971 0.0
C983 C 0.76907 0.9475 0.47601 0.0
C984 C 0.78227 0.96616 0.47023 0.0
C985 C 0.79473 0.96651 0.44755 0.0
H986 H 0.13173 0.77107 0.37968 0.0
H987 H 0.17919 0.73261 0.42333 0.0
H988 H 0.1487 0.71766 0.44922 0.0
H989 H 0.10254 0.78892 0.43228 0.0
H990 H 0.07596 0.78909 0.41669 0.0
H991 H 0.10074 0.79288 0.39838 0.0
H992 H 0.08965 0.75979 0.3697 0.0
H993 H 0.06488 0.75577 0.3882 0.0
H994 H 0.08407 0.73323 0.38392 0.0
H995 H 0.11319 0.70998 0.47361 0.0
H996 H 0.07756 0.71393 0.49662 0.0
H997 H 0.05488 0.76039 0.43967 0.0
C998 C 0.13592 0.75945 0.39457 0.0
C999 C 0.15811 0.7531 0.39922 0.0
C1000 C 0.16242 0.7375 0.41881 0.0
C1001 C 0.14515 0.72892 0.43375 0.0
C1002 C 0.12359 0.7361 0.42903 0.0
C1003 C 0.11902 0.75117 0.40999 0.0
C1004 C 0.09514 0.75866 0.41081 0.0
C1005 C 0.09351 0.78387 0.41479 0.0
C1006 C 0.0827 0.75142 0.38672 0.0
C1007 C 0.08712 0.74605 0.43385 0.0
C1008 C 0.10351 0.73256 0.44369 0.0
C1009 C 0.10016 0.72025 0.46584 0.0
C1010 C 0.07986 0.72244 0.4787 0.0
C1011 C 0.06352 0.7372 0.46961 0.0
C1012 C 0.06703 0.74868 0.44665 0.0
H1013 H 0.22567 0.15704 0.42188 0.0
H1014 H 0.2589 0.13664 0.35268 0.0
H1015 H 0.26521 0.09954 0.37111 0.0
H1016 H 0.26087 0.12932 0.46493 0.0
H1017 H 0.23921 0.12139 0.48663 0.0
H1018 H 0.23609 0.14582 0.46739 0.0
H1019 H 0.19922 0.13052 0.44944 0.0
H1020 H 0.20227 0.10597 0.4686 0.0
H1021 H 0.19878 0.1036 0.43469 0.0
H1022 H 0.27139 0.0663 0.39856 0.0
H1023 H 0.27542 0.0383 0.43252 0.0
H1024 H 0.23616 0.07903 0.48313 0.0
C1025 C 0.23416 0.14469 0.41058 0.0
C1026 C 0.24183 0.14968 0.38584 0.0
C1027 C 0.25273 0.13309 0.37156 0.0
C1028 C 0.25641 0.112 0.38189 0.0
C1029 C 0.2488 0.10767 0.40639 0.0
C1030 C 0.2377 0.12345 0.42048 0.0
C1031 C 0.23173 0.11468 0.4466 0.0
C1032 C 0.24263 0.12863 0.46762 0.0
C1033 C 0.2065 0.11363 0.45002 0.0
C1034 C 0.24173 0.09168 0.44526 0.0
C1035 C 0.25151 0.08802 0.42187 0.0
C1036 C 0.26341 0.06878 0.41674 0.0
C1037 C 0.26563 0.053 0.4361 0.0
C1038 C 0.25571 0.05638 0.46014 0.0
C1039 C 0.24331 0.0758 0.46463 0.0
H1040 H 0.6244 0.74783 0.87147 0.0
H1041 H 0.66644 0.80336 0.89209 0.0
H1042 H 0.63585 0.81934 0.91678 0.0
H1043 H 0.57059 0.7765 0.87158 0.0
H1044 H 0.55688 0.75342 0.88646 0.0
H1045 H 0.58026 0.74871 0.86591 0.0
H1046 H 0.60015 0.72731 0.90201 0.0
H1047 H 0.57687 0.7319 0.92259 0.0
H1048 H 0.60412 0.74054 0.93238 0.0
H1049 H 0.60167 0.82764 0.94287 0.0
H1050 H 0.56881 0.82538 0.97094 0.0
H1051 H 0.55167 0.76216 0.93748 0.0
C1052 C 0.62736 0.7634 0.881 0.0
C1053 C 0.64809 0.77423 0.87949 0.0
C1054 C 0.65072 0.79482 0.89216 0.0
C1055 C 0.6334 0.80406 0.90645 0.0
C1056 C 0.61353 0.79248 0.90818 0.0
C1057 C 0.61053 0.77249 0.89592 0.0
C1058 C 0.58886 0.76181 0.90343 0.0
C1059 C 0.57322 0.76002 0.88047 0.0
C1060 C 0.59275 0.73906 0.91585 0.0
C1061 C 0.58045 0.77856 0.92247 0.0
C1062 C 0.59454 0.79649 0.9244 0.0
C1063 C 0.59045 0.81376 0.94137 0.0
C1064 C 0.57175 0.81239 0.95716 0.0
C1065 C 0.55783 0.7936 0.95629 0.0
C1066 C 0.56208 0.77672 0.93844 0.0
H1067 H 0.26865 0.62186 0.87558 0.0
H1068 H 0.23556 0.67549 0.91561 0.0
H1069 H 0.21934 0.64847 0.94505 0.0
H1070 H 0.2282 0.57806 0.88607 0.0
H1071 H 0.24927 0.55754 0.8919 0.0
H1072 H 0.25482 0.58041 0.87086 0.0
H1073 H 0.28921 0.59097 0.8977 0.0
H1074 H 0.28386 0.56809 0.91864 0.0
H1075 H 0.28609 0.5957 0.93134 0.0
H1076 H 0.20859 0.61553 0.97239 0.0
H1077 H 0.20854 0.58092 0.9978 0.0
H1078 H 0.25303 0.55062 0.94351 0.0
C1079 C 0.25809 0.62822 0.89046 0.0
C1080 C 0.25347 0.65114 0.89279 0.0
C1081 C 0.23907 0.65815 0.91258 0.0
C1082 C 0.2298 0.64286 0.92964 0.0
C1083 C 0.23524 0.62057 0.92705 0.0
C1084 C 0.24932 0.61335 0.90813 0.0
C1085 C 0.25494 0.58908 0.91127 0.0
C1086 C 0.24628 0.57548 0.88868 0.0
C1087 C 0.28 0.58578 0.91497 0.0
C1088 C 0.24223 0.58387 0.93528 0.0
C1089 C 0.23039 0.60202 0.94371 0.0
C1090 C 0.21771 0.6012 0.96587 0.0
C1091 C 0.21766 0.5815 0.9801 0.0
C1092 C 0.23066 0.56324 0.9724 0.0
C1093 C 0.24281 0.56437 0.94958 0.0
H1094 H 0.3819 0.26589 0.89851 0.0
H1095 H 0.39213 0.32937 0.86193 0.0
H1096 H 0.42706 0.33413 0.88583 0.0
H1097 H 0.40089 0.28133 0.95926 0.0
H1098 H 0.41418 0.25527 0.966 0.0
H1099 H 0.39085 0.25624 0.94476 0.0
H1100 H 0.41411 0.23733 0.90951 0.0
H1101 H 0.43749 0.23617 0.93072 0.0
H1102 H 0.44016 0.24934 0.90015 0.0
H1103 H 0.45933 0.33326 0.91673 0.0
H1104 H 0.48764 0.32541 0.94962 0.0
H1105 H 0.45639 0.26213 0.96473 0.0
C1106 C 0.39161 0.28068 0.89535 0.0
C1107 C 0.38437 0.29723 0.87833 0.0
C1108 C 0.39755 0.31634 0.87464 0.0
C1109 C 0.41733 0.31926 0.88824 0.0
C1110 C 0.42379 0.3028 0.90525 0.0
C1111 C 0.41145 0.28376 0.90859 0.0
C1112 C 0.42174 0.26875 0.92833 0.0
C1113 C 0.40598 0.2652 0.95092 0.0
C1114 C 0.4288 0.24659 0.91646 0.0
C1115 C 0.44161 0.28246 0.9359 0.0
C1116 C 0.44252 0.30208 0.92248 0.0
C1117 C 0.45893 0.31781 0.92713 0.0
C1118 C 0.47487 0.31327 0.94589 0.0
C1119 C 0.47433 0.2931 0.95958 0.0
C1120 C 0.45746 0.27758 0.95437 0.0
H1121 H 0.75496 0.39699 0.87693 0.0
H1122 H 0.78591 0.34687 0.92475 0.0
H1123 H 0.80252 0.37615 0.95048 0.0
H1124 H 0.79607 0.44053 0.88245 0.0
H1125 H 0.77551 0.46199 0.88543 0.0
H1126 H 0.76948 0.4374 0.86735 0.0
H1127 H 0.73471 0.43025 0.89498 0.0
H1128 H 0.7405 0.45491 0.9129 0.0
H1129 H 0.73754 0.42877 0.92905 0.0
H1130 H 0.81438 0.41105 0.97305 0.0
H1131 H 0.81514 0.44775 0.9941 0.0
H1132 H 0.77147 0.47392 0.93616 0.0
C1133 C 0.76506 0.39177 0.89277 0.0
C1134 C 0.76909 0.36908 0.89809 0.0
C1135 C 0.78291 0.3638 0.91915 0.0
C1136 C 0.79243 0.38044 0.93422 0.0
C1137 C 0.78771 0.40244 0.92854 0.0
C1138 C 0.77397 0.40808 0.90862 0.0
C1139 C 0.76894 0.43266 0.9086 0.0
C1140 C 0.77805 0.4438 0.88452 0.0
C1141 C 0.74395 0.43688 0.91157 0.0
C1142 C 0.78166 0.43988 0.93197 0.0
C1143 C 0.793 0.42234 0.94272 0.0
C1144 C 0.80565 0.42491 0.96472 0.0
C1145 C 0.80612 0.44579 0.97645 0.0
C1146 C 0.79356 0.46352 0.9665 0.0
C1147 C 0.78145 0.4606 0.94384 0.0
H1148 H 0.62808 0.3244 0.15486 0.0
H1149 H 0.65729 0.25888 0.15589 0.0
H1150 H 0.63057 0.24655 0.12319 0.0
H1151 H 0.57091 0.30753 0.14445 0.0
H1152 H 0.56493 0.33014 0.12319 0.0
H1153 H 0.58541 0.33342 0.14779 0.0
H1154 H 0.6144 0.34473 0.11396 0.0
H1155 H 0.59405 0.34137 0.08924 0.0
H1156 H 0.61987 0.32647 0.0876 0.0
H1157 H 0.6012 0.24142 0.09073 0.0
H1158 H 0.57154 0.24379 0.05879 0.0
H1159 H 0.5623 0.31336 0.07655 0.0
C1160 C 0.62855 0.3074 0.14839 0.0
C1161 C 0.64446 0.29242 0.15795 0.0
C1162 C 0.64507 0.27045 0.14877 0.0
C1163 C 0.63 0.26335 0.13028 0.0
C1164 C 0.61464 0.27855 0.12099 0.0
C1165 C 0.61383 0.30014 0.12958 0.0
C1166 C 0.59633 0.31334 0.11549 0.0
C1167 C 0.57833 0.32159 0.13383 0.0
C1168 C 0.6068 0.33261 0.10069 0.0
C1169 C 0.58742 0.29576 0.09766 0.0
C1170 C 0.59814 0.2758 0.10139 0.0
C1171 C 0.5927 0.25695 0.08759 0.0
C1172 C 0.57579 0.25848 0.06953 0.0
C1173 C 0.56464 0.27877 0.06517 0.0
C1174 C 0.57065 0.29769 0.07935 0.0
H1175 H 0.7389 0.64109 0.12937 0.0
H1176 H 0.80548 0.66678 0.13813 0.0
H1177 H 0.81956 0.63735 0.10963 0.0
H1178 H 0.75354 0.58355 0.12957 0.0
H1179 H 0.7329 0.57619 0.10633 0.0
H1180 H 0.72836 0.59942 0.12711 0.0
H1181 H 0.72225 0.62484 0.08803 0.0
H1182 H 0.7268 0.6017 0.06713 0.0
H1183 H 0.74328 0.62637 0.06381 0.0
H1184 H 0.82615 0.60431 0.08012 0.0
H1185 H 0.82447 0.57136 0.05216 0.0
H1186 H 0.75345 0.56793 0.06386 0.0
C1187 C 0.75649 0.64044 0.12556 0.0
C1188 C 0.7711 0.65619 0.13612 0.0
C1189 C 0.79394 0.65499 0.13012 0.0
C1190 C 0.8021 0.63827 0.11405 0.0
C1191 C 0.78719 0.62294 0.10409 0.0
C1192 C 0.76486 0.62396 0.10963 0.0
C1193 C 0.75217 0.60568 0.09654 0.0
C1194 C 0.7411 0.5903 0.11605 0.0
C1195 C 0.73512 0.61522 0.07776 0.0
C1196 C 0.77082 0.5941 0.08278 0.0
C1197 C 0.79093 0.60422 0.0873 0.0
C1198 C 0.81047 0.59628 0.07648 0.0
C1199 C 0.80936 0.57756 0.06063 0.0
C1200 C 0.78885 0.56702 0.05579 0.0
C1201 C 0.76943 0.57552 0.06712 0.0
H1202 H 0.4068 0.76869 0.16051 0.0
H1203 H 0.35231 0.76145 0.1069 0.0
H1204 H 0.37599 0.77528 0.07294 0.0
H1205 H 0.43476 0.81581 0.13114 0.0
H1206 H 0.46193 0.80435 0.13636 0.0
H1207 H 0.43974 0.79799 0.15803 0.0
H1208 H 0.44614 0.75606 0.15076 0.0
H1209 H 0.46842 0.76228 0.12927 0.0
H1210 H 0.44569 0.74525 0.11883 0.0
H1211 H 0.40588 0.78754 0.04364 0.0
H1212 H 0.44116 0.79237 0.02046 0.0
H1213 H 0.47743 0.78626 0.09112 0.0
C1214 C 0.39959 0.76991 0.14177 0.0
C1215 C 0.37715 0.76426 0.13708 0.0
C1216 C 0.36892 0.76644 0.11186 0.0
C1217 C 0.38238 0.77417 0.09212 0.0
C1218 C 0.40431 0.77926 0.09749 0.0
C1219 C 0.413 0.77685 0.12158 0.0
C1220 C 0.43782 0.78062 0.12158 0.0
C1221 C 0.44391 0.8009 0.13774 0.0
C1222 C 0.45024 0.75981 0.13064 0.0
C1223 C 0.44174 0.785 0.09358 0.0
C1224 C 0.42205 0.78481 0.08018 0.0
C1225 C 0.42138 0.78792 0.05394 0.0
C1226 C 0.44141 0.79075 0.04097 0.0
C1227 C 0.46174 0.79002 0.05419 0.0
C1228 C 0.46195 0.7873 0.0808 0.0
H1229 H 0.28328 0.37332 0.11806 0.0
H1230 H 0.21532 0.35753 0.13748 0.0
H1231 H 0.20281 0.39189 0.11642 0.0
H1232 H 0.27887 0.43266 0.1278 0.0
H1233 H 0.29681 0.43918 0.10149 0.0
H1234 H 0.30035 0.41358 0.11856 0.0
H1235 H 0.29645 0.3917 0.07642 0.0
H1236 H 0.29285 0.41722 0.05925 0.0
H1237 H 0.27224 0.39577 0.05693 0.0
H1238 H 0.19767 0.42764 0.09206 0.0
H1239 H 0.20039 0.46197 0.06668 0.0
H1240 H 0.27182 0.45452 0.06414 0.0
C1241 C 0.26579 0.37722 0.11825 0.0
C1242 C 0.25029 0.36268 0.12947 0.0
C1243 C 0.2275 0.36825 0.12879 0.0
C1244 C 0.22024 0.3878 0.117 0.0
C1245 C 0.23597 0.40167 0.10599 0.0
C1246 C 0.25828 0.39664 0.10658 0.0
C1247 C 0.27177 0.41408 0.09293 0.0
C1248 C 0.2879 0.42555 0.11129 0.0
C1249 C 0.28404 0.40409 0.07003 0.0
C1250 C 0.25357 0.42967 0.08448 0.0
C1251 C 0.23303 0.42225 0.09219 0.0
C1252 C 0.21369 0.43367 0.08605 0.0
C1253 C 0.2154 0.45315 0.0716 0.0
C1254 C 0.23631 0.46103 0.06348 0.0
C1255 C 0.25558 0.44909 0.07019 0.0
H1256 H 0.36613 0.2393 0.11269 0.0
H1257 H 0.38076 0.29804 0.15725 0.0
H1258 H 0.4183 0.29886 0.13946 0.0
H1259 H 0.42169 0.21447 0.1158 0.0
H1260 H 0.4208 0.20481 0.08341 0.0
H1261 H 0.39557 0.20727 0.10147 0.0
H1262 H 0.37896 0.23258 0.06659 0.0
H1263 H 0.40408 0.23017 0.04844 0.0
H1264 H 0.39374 0.25712 0.05708 0.0
H1265 H 0.45279 0.29572 0.11458 0.0
H1266 H 0.48257 0.28871 0.08373 0.0
H1267 H 0.44656 0.2321 0.0544 0.0
C1268 C 0.37726 0.25226 0.11886 0.0
C1269 C 0.37041 0.26844 0.13673 0.0
C1270 C 0.38561 0.28509 0.14419 0.0
C1271 C 0.40701 0.2858 0.13404 0.0
C1272 C 0.4131 0.26977 0.1164 0.0
C1273 C 0.39876 0.25327 0.10883 0.0
C1274 C 0.40921 0.23885 0.08844 0.0
C1275 C 0.41198 0.21493 0.09785 0.0
C1276 C 0.39569 0.23975 0.06368 0.0
C1277 C 0.43147 0.25016 0.08538 0.0
C1278 C 0.43332 0.26787 0.10188 0.0
C1279 C 0.45167 0.28175 0.10178 0.0
C1280 C 0.46847 0.27766 0.08413 0.0
C1281 C 0.46695 0.25979 0.0668 0.0
C1282 C 0.44835 0.24562 0.06774 0.0
H1283 H 0.71331 0.40298 0.15368 0.0
H1284 H 0.78113 0.39211 0.17781 0.0
H1285 H 0.79388 0.41981 0.1465 0.0
H1286 H 0.72471 0.40853 0.08797 0.0
H1287 H 0.70428 0.42976 0.08251 0.0
H1288 H 0.70036 0.40998 0.10769 0.0
H1289 H 0.69643 0.44191 0.14024 0.0
H1290 H 0.70025 0.46181 0.11513 0.0
H1291 H 0.71801 0.46238 0.14266 0.0
H1292 H 0.79928 0.44768 0.11186 0.0
H1293 H 0.79728 0.47367 0.07592 0.0
H1294 H 0.72577 0.46648 0.07413 0.0
C1295 C 0.73081 0.40672 0.1527 0.0
C1296 C 0.74624 0.3955 0.16829 0.0
C1297 C 0.76905 0.40045 0.16598 0.0
C1298 C 0.77642 0.41621 0.14835 0.0
C1299 C 0.76077 0.42683 0.13316 0.0
C1300 C 0.73844 0.42232 0.13515 0.0
C1301 C 0.72514 0.43546 0.11593 0.0
C1302 C 0.71291 0.42001 0.09743 0.0
C1303 C 0.70901 0.45134 0.12929 0.0
C1304 C 0.7435 0.44798 0.10267 0.0
C1305 C 0.7639 0.44281 0.113 0.0
C1306 C 0.7834 0.45193 0.10368 0.0
C1307 C 0.78206 0.46668 0.08321 0.0
C1308 C 0.76135 0.47217 0.07216 0.0
C1309 C 0.74183 0.46271 0.08218 0.0
H1310 H 0.64144 0.7204 0.13779 0.0
H1311 H 0.66517 0.78804 0.14008 0.0
H1312 H 0.63319 0.79998 0.11408 0.0
H1313 H 0.62404 0.7219 0.0731 0.0
H1314 H 0.60008 0.70463 0.07782 0.0
H1315 H 0.6238 0.70164 0.09826 0.0
H1316 H 0.59897 0.70812 0.13769 0.0
H1317 H 0.57516 0.71112 0.11735 0.0
H1318 H 0.5822 0.73275 0.13949 0.0
H1319 H 0.59932 0.80445 0.08738 0.0
H1320 H 0.56692 0.80111 0.05929 0.0
H1321 H 0.56569 0.73015 0.07236 0.0
C1322 C 0.63966 0.73775 0.13307 0.0
C1323 C 0.65559 0.7534 0.14105 0.0
C1324 C 0.65308 0.77587 0.13412 0.0
C1325 C 0.63496 0.78279 0.11947 0.0
C1326 C 0.61961 0.76696 0.11172 0.0
C1327 C 0.62182 0.74488 0.11809 0.0
C1328 C 0.60368 0.73109 0.10596 0.0
C1329 C 0.61349 0.7138 0.0877 0.0
C1330 C 0.58914 0.72013 0.12634 0.0
C1331 C 0.59103 0.74886 0.09166 0.0
C1332 C 0.60038 0.76944 0.09553 0.0
C1333 C 0.59182 0.78843 0.08423 0.0
C1334 C 0.57336 0.78634 0.06831 0.0
C1335 C 0.5637 0.76536 0.06355 0.0
C1336 C 0.57265 0.74641 0.0756 0.0
H1337 H 0.31981 0.6382 0.14002 0.0
H1338 H 0.25472 0.64686 0.17341 0.0
H1339 H 0.24089 0.61512 0.14847 0.0
H1340 H 0.3013 0.62444 0.07798 0.0
H1341 H 0.32268 0.60426 0.07218 0.0
H1342 H 0.32775 0.62695 0.09355 0.0
H1343 H 0.33825 0.59928 0.1292 0.0
H1344 H 0.33319 0.57648 0.10792 0.0
H1345 H 0.31899 0.57785 0.13799 0.0
H1346 H 0.23385 0.58343 0.11912 0.0
H1347 H 0.23357 0.55434 0.08639 0.0
H1348 H 0.30337 0.56589 0.07194 0.0
C1349 C 0.30273 0.63321 0.14236 0.0
C1350 C 0.28833 0.64497 0.15872 0.0
C1351 C 0.26598 0.63821 0.16084 0.0
C1352 C 0.25802 0.62012 0.14689 0.0
C1353 C 0.27262 0.60897 0.13089 0.0
C1354 C 0.29449 0.61524 0.12851 0.0
C1355 C 0.30648 0.60095 0.10922 0.0
C1356 C 0.31505 0.61499 0.08691 0.0
C1357 C 0.32534 0.58786 0.12185 0.0
C1358 C 0.28787 0.58579 0.10094 0.0
C1359 C 0.26853 0.59065 0.11382 0.0
C1360 C 0.24891 0.57939 0.109 0.0
C1361 C 0.24894 0.56289 0.09032 0.0
C1362 C 0.26847 0.55776 0.07659 0.0
C1363 C 0.28823 0.56925 0.08225 0.0
H1364 H 0.37809 0.75886 0.89847 0.0
H1365 H 0.3911 0.69275 0.87001 0.0
H1366 H 0.42546 0.69115 0.89539 0.0
H1367 H 0.43525 0.77711 0.89839 0.0
H1368 H 0.43236 0.79314 0.92709 0.0
H1369 H 0.40886 0.7891 0.90654 0.0
H1370 H 0.38657 0.77298 0.94429 0.0
H1371 H 0.41002 0.7769 0.96494 0.0
H1372 H 0.39768 0.74989 0.96187 0.0
H1373 H 0.45749 0.69602 0.92564 0.0
H1374 H 0.48613 0.70813 0.95627 0.0
H1375 H 0.45304 0.77156 0.96358 0.0
C1376 C 0.38821 0.74408 0.89758 0.0
C1377 C 0.38198 0.72595 0.88221 0.0
C1378 C 0.39571 0.70694 0.88141 0.0
C1379 C 0.41518 0.70582 0.89587 0.0
C1380 C 0.42082 0.72393 0.9109 0.0
C1381 C 0.40786 0.74278 0.91168 0.0
C1382 C 0.41779 0.76002 0.9292 0.0
C1383 C 0.42393 0.78109 0.91441 0.0
C1384 C 0.40208 0.76524 0.95139 0.0
C1385 C 0.43825 0.74784 0.93828 0.0
C1386 C 0.43963 0.72698 0.92767 0.0
C1387 C 0.4567 0.7124 0.9339 0.0
C1388 C 0.47285 0.71938 0.95135 0.0
C1389 C 0.47193 0.74083 0.96212 0.0
C1390 C 0.45437 0.75517 0.9554 0.0
H1391 H 0.27014 0.37509 0.9119 0.0
H1392 H 0.29351 0.40937 0.84438 0.0
H1393 H 0.2947 0.4442 0.86854 0.0
H1394 H 0.23347 0.41977 0.93213 0.0
H1395 H 0.23838 0.41446 0.96537 0.0
H1396 H 0.2399 0.39214 0.94276 0.0
H1397 H 0.27959 0.38311 0.95831 0.0
H1398 H 0.27833 0.40561 0.98068 0.0
H1399 H 0.30043 0.40442 0.95773 0.0
H1400 H 0.29589 0.47502 0.90121 0.0
H1401 H 0.29153 0.50029 0.9381 0.0
H1402 H 0.26315 0.44679 0.98204 0.0
C1403 C 0.27503 0.38988 0.9018 0.0
C1404 C 0.28204 0.38911 0.87612 0.0
C1405 C 0.28867 0.40912 0.86416 0.0
C1406 C 0.28926 0.42912 0.8777 0.0
C1407 C 0.28271 0.42907 0.90305 0.0
C1408 C 0.27521 0.41007 0.91479 0.0
C1409 C 0.26836 0.41456 0.94199 0.0
C1410 C 0.24355 0.40996 0.94577 0.0
C1411 C 0.28253 0.40113 0.96077 0.0
C1412 C 0.27339 0.43902 0.9438 0.0
C1413 C 0.282 0.44705 0.92128 0.0
C1414 C 0.28889 0.46898 0.91882 0.0
C1415 C 0.28652 0.48315 0.93981 0.0
C1416 C 0.27697 0.47534 0.96261 0.0
C1417 C 0.27037 0.45306 0.96463 0.0
H1418 H 0.62744 0.27555 0.87639 0.0
H1419 H 0.67488 0.23446 0.9169 0.0
H1420 H 0.64455 0.21899 0.94247 0.0
H1421 H 0.5996 0.29168 0.93101 0.0
H1422 H 0.57277 0.29313 0.91612 0.0
H1423 H 0.59731 0.29732 0.89747 0.0
H1424 H 0.58505 0.26593 0.86698 0.0
H1425 H 0.56052 0.2615 0.88577 0.0
H1426 H 0.57917 0.23884 0.87961 0.0
H1427 H 0.60918 0.21041 0.96669 0.0
H1428 H 0.57379 0.21336 0.99033 0.0
H1429 H 0.55126 0.26349 0.93752 0.0
C1430 C 0.63171 0.26331 0.89055 0.0
C1431 C 0.65388 0.25633 0.89428 0.0
C1432 C 0.65817 0.23987 0.91294 0.0
C1433 C 0.64097 0.23098 0.92775 0.0
C1434 C 0.6195 0.23877 0.92396 0.0
C1435 C 0.61492 0.25478 0.90597 0.0
C1436 C 0.5912 0.26268 0.90783 0.0
C1437 C 0.59017 0.28767 0.91346 0.0
C1438 C 0.57822 0.25688 0.8836 0.0
C1439 C 0.58328 0.24913 0.93022 0.0
C1440 C 0.59957 0.23488 0.93879 0.0
C1441 C 0.59626 0.22134 0.95996 0.0
C1442 C 0.57608 0.22298 0.97317 0.0
C1443 C 0.55984 0.23846 0.96549 0.0
C1444 C 0.56335 0.2513 0.94348 0.0
H1445 H 0.76539 0.64463 0.89264 0.0
H1446 H 0.69676 0.63799 0.86965 0.0
H1447 H 0.69422 0.60279 0.89333 0.0
H1448 H 0.77923 0.5855 0.89029 0.0
H1449 H 0.79688 0.58712 0.91784 0.0
H1450 H 0.79372 0.61082 0.89739 0.0
H1451 H 0.78148 0.63449 0.93599 0.0
H1452 H 0.78454 0.61088 0.95652 0.0
H1453 H 0.75851 0.62541 0.95517 0.0
H1454 H 0.6982 0.57013 0.92295 0.0
H1455 H 0.70905 0.54167 0.95441 0.0
H1456 H 0.77522 0.56942 0.95715 0.0
C1457 C 0.74989 0.63566 0.89238 0.0
C1458 C 0.7313 0.64401 0.8792 0.0
C1459 C 0.71133 0.63174 0.87928 0.0
C1460 C 0.70968 0.61179 0.89279 0.0
C1461 C 0.72822 0.60422 0.90594 0.0
C1462 C 0.74801 0.61567 0.90563 0.0
C1463 C 0.76524 0.60441 0.92204 0.0
C1464 C 0.78493 0.59649 0.90592 0.0
C1465 C 0.77288 0.61971 0.94371 0.0
C1466 C 0.75193 0.58509 0.93205 0.0
C1467 C 0.73062 0.58522 0.92255 0.0
C1468 C 0.71494 0.56967 0.93023 0.0
C1469 C 0.72123 0.55362 0.94815 0.0
C1470 C 0.74302 0.55319 0.95806 0.0
C1471 C 0.75853 0.56906 0.94964 0.0
loop_
_geom_bond_atom_site_label_1
_geom_bond_atom_site_label_2
_geom_bond_distance
_geom_bond_site_symmetry_2
_ccdc_geom_bond_type
H0 C27 0.929 . S
N1 C26 1.433 . S
N1 C32 1.435 . S
N1 C38 1.423 . S
H2 C28 0.930 . S
H3 C31 0.931 . S
H4 C30 0.929 . S
H5 C33 0.930 . S
H6 C34 0.932 . S
H7 C37 0.929 . S
H8 C36 0.931 . S
H9 C39 0.929 . S
H10 C43 0.932 . S
H11 C40 0.931 . S
H12 C42 0.929 . S
H13 C45 0.929 . S
H14 C46 0.930 . S
H15 C48 0.929 . S
H16 C49 0.931 . S
H17 C51 0.930 . S
H18 C52 0.932 . S
H19 C54 0.931 . S
H20 C55 0.929 . S
H21 C57 0.929 . S
H22 C58 0.931 . S
H23 C60 0.929 . S
N24 C44 1.433 . S
N24 C50 1.435 . S
N24 C56 1.423 . S
H25 C61 0.932 . S
C26 N1 1.433 . S
C26 C27 1.363 . S
C26 C31 1.370 . S
C27 H0 0.929 . S
C27 C26 1.363 . S
C27 C28 1.385 . S
C28 H2 0.930 . S
C28 C27 1.385 . S
C28 C29 1.357 . S
C29 C28 1.357 . S
C29 C30 1.406 . S
C30 H4 0.929 . S
C30 C29 1.406 . S
C30 C31 1.391 . S
C31 H3 0.931 . S
C31 C26 1.370 . S
C31 C30 1.391 . S
C32 N1 1.435 . S
C32 C33 1.358 . S
C32 C37 1.371 . S
C33 H5 0.930 . S
C33 C32 1.358 . S
C33 C34 1.405 . S
C34 H6 0.932 . S
C34 C33 1.405 . S
C34 C35 1.383 . S
C35 C34 1.383 . S
C35 C36 1.393 . S
C36 H8 0.931 . S
C36 C35 1.393 . S
C36 C37 1.382 . S
C37 H7 0.929 . S
C37 C32 1.371 . S
C37 C36 1.382 . S
C38 N1 1.423 . S
C38 C39 1.362 . S
C38 C43 1.388 . S
C39 H9 0.929 . S
C39 C38 1.362 . S
C39 C40 1.376 . S
C40 H11 0.931 . S
C40 C39 1.376 . S
C40 C41 1.396 . S
C41 C40 1.396 . S
C41 C42 1.348 . S
C41 C59 1.472 . S
C42 H12 0.929 . S
C42 C41 1.348 . S
C42 C43 1.443 . S
C43 H10 0.932 . S
C43 C38 1.388 . S
C43 C42 1.443 . S
C44 N24 1.433 . S
C44 C45 1.363 . S
C44 C49 1.370 . S
C45 H13 0.929 . S
C45 C44 1.363 . S
C45 C46 1.385 . S
C46 H14 0.930 . S
C46 C45 1.385 . S
C46 C47 1.357 . S
C47 C46 1.357 . S
C47 C48 1.406 . S
C48 H15 0.929 . S
C48 C47 1.406 . S
C48 C49 1.391 . S
C49 H16 0.931 . S
C49 C44 1.370 . S
C49 C48 1.391 . S
C50 N24 1.435 . S
C50 C51 1.358 . S
C50 C55 1.371 . S
C51 H17 0.930 . S
C51 C50 1.358 . S
C51 C52 1.405 . S
C52 H18 0.932 . S
C52 C51 1.405 . S
C52 C53 1.383 . S
C53 C52 1.383 . S
C53 C54 1.393 . S
C54 H19 0.931 . S
C54 C53 1.393 . S
C54 C55 1.382 . S
C55 H20 0.929 . S
C55 C50 1.371 . S
C55 C54 1.382 . S
C56 N24 1.423 . S
C56 C57 1.362 . S
C56 C61 1.388 . S
C57 H21 0.929 . S
C57 C56 1.362 . S
C57 C58 1.376 . S
C58 H22 0.931 . S
C58 C57 1.376 . S
C58 C59 1.396 . S
C59 C41 1.472 . S
C59 C58 1.396 . S
C59 C60 1.348 . S
C60 H23 0.929 . S
C60 C59 1.348 . S
C60 C61 1.443 . S
C61 H25 0.932 . S
C61 C56 1.388 . S
C61 C60 1.443 . S
H62 C89 0.929 . S
N63 C88 1.433 . S
N63 C94 1.435 . S
N63 C100 1.423 . S
H64 C90 0.930 . S
H65 C93 0.931 . S
H66 C92 0.929 . S
H67 C95 0.930 . S
H68 C96 0.932 . S
H69 C99 0.929 . S
H70 C98 0.931 . S
H71 C101 0.929 . S
H72 C105 0.932 . S
H73 C102 0.931 . S
H74 C104 0.929 . S
H75 C107 0.929 . S
H76 C108 0.930 . S
H77 C110 0.929 . S
H78 C111 0.931 . S
H79 C113 0.930 . S
H80 C114 0.932 . S
H81 C116 0.931 . S
H82 C117 0.929 . S
H83 C119 0.929 . S
H84 C120 0.931 . S
H85 C122 0.929 . S
N86 C106 1.433 . S
N86 C112 1.435 . S
N86 C118 1.423 . S
H87 C123 0.932 . S
C88 N63 1.433 . S
C88 C89 1.363 . S
C88 C93 1.370 . S
C89 H62 0.929 . S
C89 C88 1.363 . S
C89 C90 1.385 . S
C90 H64 0.930 . S
C90 C89 1.385 . S
C90 C91 1.357 . S
C91 C90 1.357 . S
C91 C92 1.406 . S
C92 H66 0.929 . S
C92 C91 1.406 . S
C92 C93 1.391 . S
C93 H65 0.931 . S
C93 C88 1.370 . S
C93 C92 1.391 . S
C94 N63 1.435 . S
C94 C95 1.358 . S
C94 C99 1.371 . S
C95 H67 0.930 . S
C95 C94 1.358 . S
C95 C96 1.405 . S
C96 H68 0.932 . S
C96 C95 1.405 . S
C96 C97 1.383 . S
C97 C96 1.383 . S
C97 C98 1.393 . S
C98 H70 0.931 . S
C98 C97 1.393 . S
C98 C99 1.382 . S
C99 H69 0.929 . S
C99 C94 1.371 . S
C99 C98 1.382 . S
C100 N63 1.423 . S
C100 C101 1.362 . S
C100 C105 1.388 . S
C101 H71 0.929 . S
C101 C100 1.362 . S
C101 C102 1.376 . S
C102 H73 0.931 . S
C102 C101 1.376 . S
C102 C103 1.396 . S
C103 C102 1.396 . S
C103 C104 1.348 . S
C103 C121 1.472 . S
C104 H74 0.929 . S
C104 C103 1.348 . S
C104 C105 1.443 . S
C105 H72 0.932 . S
C105 C100 1.388 . S
C105 C104 1.443 . S
C106 N86 1.433 . S
C106 C107 1.363 . S
C106 C111 1.370 . S
C107 H75 0.929 . S
C107 C106 1.363 . S
C107 C108 1.385 . S
C108 H76 0.930 . S
C108 C107 1.385 . S
C108 C109 1.357 . S
C109 C108 1.357 . S
C109 C110 1.406 . S
C110 H77 0.929 . S
C110 C109 1.406 . S
C110 C111 1.391 . S
C111 H78 0.931 . S
C111 C106 1.370 . S
C111 C110 1.391 . S
C112 N86 1.435 . S
C112 C113 1.358 . S
C112 C117 1.371 . S
C113 H79 0.930 . S
C113 C112 1.358 . S
C113 C114 1.405 . S
C114 H80 0.932 . S
C114 C113 1.405 . S
C114 C115 1.383 . S
C115 C114 1.383 . S
C115 C116 1.393 . S
C116 H81 0.931 . S
C116 C115 1.393 . S
C116 C117 1.382 . S
C117 H82 0.929 . S
C117 C112 1.371 . S
C117 C116 1.382 . S
C118 N86 1.423 . S
C118 C119 1.362 . S
C118 C123 1.388 . S
C119 H83 0.929 . S
C119 C118 1.362 . S
C119 C120 1.376 . S
C120 H84 0.931 . S
C120 C119 1.376 . S
C120 C121 1.396 . S
C121 C103 1.472 . S
C121 C120 1.396 . S
C121 C122 1.348 . S
C122 H85 0.929 . S
C122 C121 1.348 . S
C122 C123 1.443 . S
C123 H87 0.932 . S
C123 C118 1.388 . S
C123 C122 1.443 . S
H124 C151 0.929 . S
N125 C150 1.433 . S
N125 C156 1.435 . S
N125 C162 1.423 . S
H126 C152 0.930 . S
H127 C155 0.931 . S
H128 C154 0.929 . S
H129 C157 0.930 . S
H130 C158 0.932 . S
H131 C161 0.929 . S
H132 C160 0.931 . S
H133 C163 0.929 . S
H134 C167 0.932 . S
H135 C164 0.931 . S
H136 C166 0.929 . S
H137 C169 0.929 . S
H138 C170 0.930 . S
H139 C172 0.929 . S
H140 C173 0.931 . S
H141 C175 0.930 . S
H142 C176 0.932 . S
H143 C178 0.931 . S
H144 C179 0.929 . S
H145 C181 0.929 . S
H146 C182 0.931 . S
H147 C184 0.929 . S
N148 C168 1.433 . S
N148 C174 1.435 . S
N148 C180 1.423 . S
H149 C185 0.932 . S
C150 N125 1.433 . S
C150 C151 1.363 . S
C150 C155 1.370 . S
C151 H124 0.929 . S
C151 C150 1.363 . S
C151 C152 1.385 . S
C152 H126 0.930 . S
C152 C151 1.385 . S
C152 C153 1.357 . S
C153 C152 1.357 . S
C153 C154 1.406 . S
C154 H128 0.929 . S
C154 C153 1.406 . S
C154 C155 1.391 . S
C155 H127 0.931 . S
C155 C150 1.370 . S
C155 C154 1.391 . S
C156 N125 1.435 . S
C156 C157 1.358 . S
C156 C161 1.371 . S
C157 H129 0.930 . S
C157 C156 1.358 . S
C157 C158 1.405 . S
C158 H130 0.932 . S
C158 C157 1.405 . S
C158 C159 1.383 . S
C159 C158 1.383 . S
C159 C160 1.393 . S
C160 H132 0.931 . S
C160 C159 1.393 . S
C160 C161 1.382 . S
C161 H131 0.929 . S
C161 C156 1.371 . S
C161 C160 1.382 . S
C162 N125 1.423 . S
C162 C163 1.362 . S
C162 C167 1.388 . S
C163 H133 0.929 . S
C163 C162 1.362 . S
C163 C164 1.376 . S
C164 H135 0.931 . S
C164 C163 1.376 . S
C164 C165 1.396 . S
C165 C164 1.396 . S
C165 C166 1.348 . S
C165 C183 1.472 . S
C166 H136 0.929 . S
C166 C165 1.348 . S
C166 C167 1.443 . S
C167 H134 0.932 . S
C167 C162 1.388 . S
C167 C166 1.443 . S
C168 N148 1.433 . S
C168 C169 1.363 . S
C168 C173 1.370 . S
C169 H137 0.929 . S
C169 C168 1.363 . S
C169 C170 1.385 . S
C170 H138 0.930 . S
C170 C169 1.385 . S
C170 C171 1.357 . S
C171 C170 1.357 . S
C171 C172 1.406 . S
C172 H139 0.929 . S
C172 C171 1.406 . S
C172 C173 1.391 . S
C173 H140 0.931 . S
C173 C168 1.370 . S
C173 C172 1.391 . S
C174 N148 1.435 . S
C174 C175 1.358 . S
C174 C179 1.371 . S
C175 H141 0.930 . S
C175 C174 1.358 . S
C175 C176 1.405 . S
C176 H142 0.932 . S
C176 C175 1.405 . S
C176 C177 1.383 . S
C177 C176 1.383 . S
C177 C178 1.393 . S
C178 H143 0.931 . S
C178 C177 1.393 . S
C178 C179 1.382 . S
C179 H144 0.929 . S
C179 C174 1.371 . S
C179 C178 1.382 . S
C180 N148 1.423 . S
C180 C181 1.362 . S
C180 C185 1.388 . S
C181 H145 0.929 . S
C181 C180 1.362 . S
C181 C182 1.376 . S
C182 H146 0.931 . S
C182 C181 1.376 . S
C182 C183 1.396 . S
C183 C165 1.472 . S
C183 C182 1.396 . S
C183 C184 1.348 . S
C184 H147 0.929 . S
C184 C183 1.348 . S
C184 C185 1.443 . S
C185 H149 0.932 . S
C185 C180 1.388 . S
C185 C184 1.443 . S
H186 C213 0.929 . S
N187 C212 1.433 . S
N187 C218 1.435 . S
N187 C224 1.423 . S
H188 C214 0.930 . S
H189 C217 0.931 . S
H190 C216 0.929 . S
H191 C219 0.930 . S
H192 C220 0.932 . S
H193 C223 0.929 . S
H194 C222 0.931 . S
H195 C225 0.929 . S
H196 C229 0.932 . S
H197 C226 0.931 . S
H198 C228 0.929 . S
H199 C231 0.929 . S
H200 C232 0.930 . S
H201 C234 0.929 . S
H202 C235 0.931 . S
H203 C237 0.930 . S
H204 C238 0.932 . S
H205 C240 0.931 . S
H206 C241 0.929 . S
H207 C243 0.929 . S
H208 C244 0.931 . S
H209 C246 0.929 . S
N210 C230 1.433 . S
N210 C236 1.435 . S
N210 C242 1.423 . S
H211 C247 0.932 . S
C212 N187 1.433 . S
C212 C213 1.363 . S
C212 C217 1.370 . S
C213 H186 0.929 . S
C213 C212 1.363 . S
C213 C214 1.385 . S
C214 H188 0.930 . S
C214 C213 1.385 . S
C214 C215 1.357 . S
C215 C214 1.357 . S
C215 C216 1.406 . S
C216 H190 0.929 . S
C216 C215 1.406 . S
C216 C217 1.391 . S
C217 H189 0.931 . S
C217 C212 1.370 . S
C217 C216 1.391 . S
C218 N187 1.435 . S
C218 C219 1.358 . S
C218 C223 1.371 . S
C219 H191 0.930 . S
C219 C218 1.358 . S
C219 C220 1.405 . S
C220 H192 0.932 . S
C220 C219 1.405 . S
C220 C221 1.383 . S
C221 C220 1.383 . S
C221 C222 1.393 . S
C222 H194 0.931 . S
C222 C221 1.393 . S
C222 C223 1.382 . S
C223 H193 0.929 . S
C223 C218 1.371 . S
C223 C222 1.382 . S
C224 N187 1.423 . S
C224 C225 1.362 . S
C224 C229 1.388 . S
C225 H195 0.929 . S
C225 C224 1.362 . S
C225 C226 1.376 . S
C226 H197 0.931 . S
C226 C225 1.376 . S
C226 C227 1.396 . S
C227 C226 1.396 . S
C227 C228 1.348 . S
C227 C245 1.472 . S
C228 H198 0.929 . S
C228 C227 1.348 . S
C228 C229 1.443 . S
C229 H196 0.932 . S
C229 C224 1.388 . S
C229 C228 1.443 . S
C230 N210 1.433 . S
C230 C231 1.363 . S
C230 C235 1.370 . S
C231 H199 0.929 . S
C231 C230 1.363 . S
C231 C232 1.385 . S
C232 H200 0.930 . S
C232 C231 1.385 . S
C232 C233 1.357 . S
C233 C232 1.357 . S
C233 C234 1.406 . S
C234 H201 0.929 . S
C234 C233 1.406 . S
C234 C235 1.391 . S
C235 H202 0.931 . S
C235 C230 1.370 . S
C235 C234 1.391 . S
C236 N210 1.435 . S
C236 C237 1.358 . S
C236 C241 1.371 . S
C237 H203 0.930 . S
C237 C236 1.358 . S
C237 C238 1.405 . S
C238 H204 0.932 . S
C238 C237 1.405 . S
C238 C239 1.383 . S
C239 C238 1.383 . S
C239 C240 1.393 . S
C240 H205 0.931 . S
C240 C239 1.393 . S
C240 C241 1.382 . S
C241 H206 0.929 . S
C241 C236 1.371 . S
C241 C240 1.382 . S
C242 N210 1.423 . S
C242 C243 1.362 . S
C242 C247 1.388 . S
C243 H207 0.929 . S
C243 C242 1.362 . S
C243 C244 1.376 . S
C244 H208 0.931 . S
C244 C243 1.376 . S
C244 C245 1.396 . S
C245 C227 1.472 . S
C245 C244 1.396 . S
C245 C246 1.348 . S
C246 H209 0.929 . S
C246 C245 1.348 . S
C246 C247 1.443 . S
C247 H211 0.932 . S
C247 C242 1.388 . S
C247 C246 1.443 . S
H248 C275 0.929 . S
N249 C274 1.433 . S
N249 C280 1.435 . S
N249 C286 1.423 . S
H250 C276 0.930 . S
H251 C279 0.931 . S
H252 C278 0.929 . S
H253 C281 0.930 . S
H254 C282 0.932 . S
H255 C285 0.929 . S
H256 C284 0.931 . S
H257 C287 0.929 . S
H258 C291 0.932 . S
H259 C288 0.931 . S
H260 C290 0.929 . S
H261 C293 0.929 . S
H262 C294 0.930 . S
H263 C296 0.929 . S
H264 C297 0.931 . S
H265 C299 0.930 . S
H266 C300 0.932 . S
H267 C302 0.931 . S
H268 C303 0.929 . S
H269 C305 0.929 . S
H270 C306 0.931 . S
H271 C308 0.929 . S
N272 C292 1.433 . S
N272 C298 1.435 . S
N272 C304 1.423 . S
H273 C309 0.932 . S
C274 N249 1.433 . S
C274 C275 1.363 . S
C274 C279 1.370 . S
C275 H248 0.929 . S
C275 C274 1.363 . S
C275 C276 1.385 . S
C276 H250 0.930 . S
C276 C275 1.385 . S
C276 C277 1.357 . S
C277 C276 1.357 . S
C277 C278 1.406 . S
C278 H252 0.929 . S
C278 C277 1.406 . S
C278 C279 1.391 . S
C279 H251 0.931 . S
C279 C274 1.370 . S
C279 C278 1.391 . S
C280 N249 1.435 . S
C280 C281 1.358 . S
C280 C285 1.371 . S
C281 H253 0.930 . S
C281 C280 1.358 . S
C281 C282 1.405 . S
C282 H254 0.932 . S
C282 C281 1.405 . S
C282 C283 1.383 . S
C283 C282 1.383 . S
C283 C284 1.393 . S
C284 H256 0.931 . S
C284 C283 1.393 . S
C284 C285 1.382 . S
C285 H255 0.929 . S
C285 C280 1.371 . S
C285 C284 1.382 . S
C286 N249 1.423 . S
C286 C287 1.362 . S
C286 C291 1.388 . S
C287 H257 0.929 . S
C287 C286 1.362 . S
C287 C288 1.376 . S
C288 H259 0.931 . S
C288 C287 1.376 . S
C288 C289 1.396 . S
C289 C288 1.396 . S
C289 C290 1.348 . S
C289 C307 1.472 . S
C290 H260 0.929 . S
C290 C289 1.348 . S
C290 C291 1.443 . S
C291 H258 0.932 . S
C291 C286 1.388 . S
C291 C290 1.443 . S
C292 N272 1.433 . S
C292 C293 1.363 . S
C292 C297 1.370 . S
C293 H261 0.929 . S
C293 C292 1.363 . S
C293 C294 1.385 . S
C294 H262 0.930 . S
C294 C293 1.385 . S
C294 C295 1.357 . S
C295 C294 1.357 . S
C295 C296 1.406 . S
C296 H263 0.929 . S
C296 C295 1.406 . S
C296 C297 1.391 . S
C297 H264 0.931 . S
C297 C292 1.370 . S
C297 C296 1.391 . S
C298 N272 1.435 . S
C298 C299 1.358 . S
C298 C303 1.371 . S
C299 H265 0.930 . S
C299 C298 1.358 . S
C299 C300 1.405 . S
C300 H266 0.932 . S
C300 C299 1.405 . S
C300 C301 1.383 . S
C301 C300 1.383 . S
C301 C302 1.393 . S
C302 H267 0.931 . S
C302 C301 1.393 . S
C302 C303 1.382 . S
C303 H268 0.929 . S
C303 C298 1.371 . S
C303 C302 1.382 . S
C304 N272 1.423 . S
C304 C305 1.362 . S
C304 C309 1.388 . S
C305 H269 0.929 . S
C305 C304 1.362 . S
C305 C306 1.376 . S
C306 H270 0.931 . S
C306 C305 1.376 . S
C306 C307 1.396 . S
C307 C289 1.472 . S
C307 C306 1.396 . S
C307 C308 1.348 . S
C308 H271 0.929 . S
C308 C307 1.348 . S
C308 C309 1.443 . S
C309 H273 0.932 . S
C309 C304 1.388 . S
C309 C308 1.443 . S
H310 C337 0.929 . S
N311 C336 1.433 . S
N311 C342 1.435 . S
N311 C348 1.423 . S
H312 C338 0.930 . S
H313 C341 0.931 . S
H314 C340 0.929 . S
H315 C343 0.930 . S
H316 C344 0.932 . S
H317 C347 0.929 . S
H318 C346 0.931 . S
H319 C349 0.929 . S
H320 C353 0.932 . S
H321 C350 0.931 . S
H322 C352 0.929 . S
H323 C355 0.929 . S
H324 C356 0.930 . S
H325 C358 0.929 . S
H326 C359 0.931 . S
H327 C361 0.930 . S
H328 C362 0.932 . S
H329 C364 0.931 . S
H330 C365 0.929 . S
H331 C367 0.929 . S
H332 C368 0.931 . S
H333 C370 0.929 . S
N334 C354 1.433 . S
N334 C360 1.435 . S
N334 C366 1.423 . S
H335 C371 0.932 . S
C336 N311 1.433 . S
C336 C337 1.363 . S
C336 C341 1.370 . S
C337 H310 0.929 . S
C337 C336 1.363 . S
C337 C338 1.385 . S
C338 H312 0.930 . S
C338 C337 1.385 . S
C338 C339 1.357 . S
C339 C338 1.357 . S
C339 C340 1.406 . S
C340 H314 0.929 . S
C340 C339 1.406 . S
C340 C341 1.391 . S
C341 H313 0.931 . S
C341 C336 1.370 . S
C341 C340 1.391 . S
C342 N311 1.435 . S
C342 C343 1.358 . S
C342 C347 1.371 . S
C343 H315 0.930 . S
C343 C342 1.358 . S
C343 C344 1.405 . S
C344 H316 0.932 . S
C344 C343 1.405 . S
C344 C345 1.383 . S
C345 C344 1.383 . S
C345 C346 1.393 . S
C346 H318 0.931 . S
C346 C345 1.393 . S
C346 C347 1.382 . S
C347 H317 0.929 . S
C347 C342 1.371 . S
C347 C346 1.382 . S
C348 N311 1.423 . S
C348 C349 1.362 . S
C348 C353 1.388 . S
C349 H319 0.929 . S
C349 C348 1.362 . S
C349 C350 1.376 . S
C350 H321 0.931 . S
C350 C349 1.376 . S
C350 C351 1.396 . S
C351 C350 1.396 . S
C351 C352 1.348 . S
C351 C369 1.472 . S
C352 H322 0.929 . S
C352 C351 1.348 . S
C352 C353 1.443 . S
C353 H320 0.932 . S
C353 C348 1.388 . S
C353 C352 1.443 . S
C354 N334 1.433 . S
C354 C355 1.363 . S
C354 C359 1.370 . S
C355 H323 0.929 . S
C355 C354 1.363 . S
C355 C356 1.385 . S
C356 H324 0.930 . S
C356 C355 1.385 . S
C356 C357 1.357 . S
C357 C356 1.357 . S
C357 C358 1.406 . S
C358 H325 0.929 . S
C358 C357 1.406 . S
C358 C359 1.391 . S
C359 H326 0.931 . S
C359 C354 1.370 . S
C359 C358 1.391 . S
C360 N334 1.435 . S
C360 C361 1.358 . S
C360 C365 1.371 . S
C361 H327 0.930 . S
C361 C360 1.358 . S
C361 C362 1.405 . S
C362 H328 0.932 . S
C362 C361 1.405 . S
C362 C363 1.383 . S
C363 C362 1.383 . S
C363 C364 1.393 . S
C364 H329 0.931 . S
C364 C363 1.393 . S
C364 C365 1.382 . S
C365 H330 0.929 . S
C365 C360 1.371 . S
C365 C364 1.382 . S
C366 N334 1.423 . S
C366 C367 1.362 . S
C366 C371 1.388 . S
C367 H331 0.929 . S
C367 C366 1.362 . S
C367 C368 1.376 . S
C368 H332 0.931 . S
C368 C367 1.376 . S
C368 C369 1.396 . S
C369 C351 1.472 . S
C369 C368 1.396 . S
C369 C370 1.348 . S
C370 H333 0.929 . S
C370 C369 1.348 . S
C370 C371 1.443 . S
C371 H335 0.932 . S
C371 C366 1.388 . S
C371 C370 1.443 . S
H372 C399 0.929 . S
N373 C398 1.433 . S
N373 C404 1.435 . S
N373 C410 1.423 . S
H374 C400 0.930 . S
H375 C403 0.931 . S
H376 C402 0.929 . S
H377 C405 0.930 . S
H378 C406 0.932 . S
H379 C409 0.929 . S
H380 C408 0.931 . S
H381 C411 0.929 . S
H382 C415 0.932 . S
H383 C412 0.931 . S
H384 C414 0.929 . S
H385 C417 0.929 . S
H386 C418 0.930 . S
H387 C420 0.929 . S
H388 C421 0.931 . S
H389 C423 0.930 . S
H390 C424 0.932 . S
H391 C426 0.931 . S
H392 C427 0.929 . S
H393 C429 0.929 . S
H394 C430 0.931 . S
H395 C432 0.929 . S
N396 C416 1.433 . S
N396 C422 1.435 . S
N396 C428 1.423 . S
H397 C433 0.932 . S
C398 N373 1.433 . S
C398 C399 1.363 . S
C398 C403 1.370 . S
C399 H372 0.929 . S
C399 C398 1.363 . S
C399 C400 1.385 . S
C400 H374 0.930 . S
C400 C399 1.385 . S
C400 C401 1.357 . S
C401 C400 1.357 . S
C401 C402 1.406 . S
C402 H376 0.929 . S
C402 C401 1.406 . S
C402 C403 1.391 . S
C403 H375 0.931 . S
C403 C398 1.370 . S
C403 C402 1.391 . S
C404 N373 1.435 . S
C404 C405 1.358 . S
C404 C409 1.371 . S
C405 H377 0.930 . S
C405 C404 1.358 . S
C405 C406 1.405 . S
C406 H378 0.932 . S
C406 C405 1.405 . S
C406 C407 1.383 . S
C407 C406 1.383 . S
C407 C408 1.393 . S
C408 H380 0.931 . S
C408 C407 1.393 . S
C408 C409 1.382 . S
C409 H379 0.929 . S
C409 C404 1.371 . S
C409 C408 1.382 . S
C410 N373 1.423 . S
C410 C411 1.362 . S
C410 C415 1.388 . S
C411 H381 0.929 . S
C411 C410 1.362 . S
C411 C412 1.376 . S
C412 H383 0.931 . S
C412 C411 1.376 . S
C412 C413 1.396 . S
C413 C412 1.396 . S
C413 C414 1.348 . S
C413 C431 1.472 . S
C414 H384 0.929 . S
C414 C413 1.348 . S
C414 C415 1.443 . S
C415 H382 0.932 . S
C415 C410 1.388 . S
C415 C414 1.443 . S
C416 N396 1.433 . S
C416 C417 1.363 . S
C416 C421 1.370 . S
C417 H385 0.929 . S
C417 C416 1.363 . S
C417 C418 1.385 . S
C418 H386 0.930 . S
C418 C417 1.385 . S
C418 C419 1.357 . S
C419 C418 1.357 . S
C419 C420 1.406 . S
C420 H387 0.929 . S
C420 C419 1.406 . S
C420 C421 1.391 . S
C421 H388 0.931 . S
C421 C416 1.370 . S
C421 C420 1.391 . S
C422 N396 1.435 . S
C422 C423 1.358 . S
C422 C427 1.371 . S
C423 H389 0.930 . S
C423 C422 1.358 . S
C423 C424 1.405 . S
C424 H390 0.932 . S
C424 C423 1.405 . S
C424 C425 1.383 . S
C425 C424 1.383 . S
C425 C426 1.393 . S
C426 H391 0.931 . S
C426 C425 1.393 . S
C426 C427 1.382 . S
C427 H392 0.929 . S
C427 C422 1.371 . S
C427 C426 1.382 . S
C428 N396 1.423 . S
C428 C429 1.362 . S
C428 C433 1.388 . S
C429 H393 0.929 . S
C429 C428 1.362 . S
C429 C430 1.376 . S
C430 H394 0.931 . S
C430 C429 1.376 . S
C430 C431 1.396 . S
C431 C413 1.472 . S
C431 C430 1.396 . S
C431 C432 1.348 . S
C432 H395 0.929 . S
C432 C431 1.348 . S
C432 C433 1.443 . S
C433 H397 0.932 . S
C433 C428 1.388 . S
C433 C432 1.443 . S
H434 C461 0.929 . S
N435 C460 1.433 . S
N435 C466 1.435 . S
N435 C472 1.423 . S
H436 C462 0.930 . S
H437 C465 0.931 . S
H438 C464 0.929 . S
H439 C467 0.930 . S
H440 C468 0.932 . S
H441 C471 0.929 . S
H442 C470 0.931 . S
H443 C473 0.929 . S
H444 C477 0.932 . S
H445 C474 0.931 . S
H446 C476 0.929 . S
H447 C479 0.929 . S
H448 C480 0.930 . S
H449 C482 0.929 . S
H450 C483 0.931 . S
H451 C485 0.930 . S
H452 C486 0.932 . S
H453 C488 0.931 . S
H454 C489 0.929 . S
H455 C491 0.929 . S
H456 C492 0.931 . S
H457 C494 0.929 . S
N458 C478 1.433 . S
N458 C484 1.435 . S
N458 C490 1.423 . S
H459 C495 0.932 . S
C460 N435 1.433 . S
C460 C461 1.363 . S
C460 C465 1.370 . S
C461 H434 0.929 . S
C461 C460 1.363 . S
C461 C462 1.385 . S
C462 H436 0.930 . S
C462 C461 1.385 . S
C462 C463 1.357 . S
C463 C462 1.357 . S
C463 C464 1.406 . S
C464 H438 0.929 . S
C464 C463 1.406 . S
C464 C465 1.391 . S
C465 H437 0.931 . S
C465 C460 1.370 . S
C465 C464 1.391 . S
C466 N435 1.435 . S
C466 C467 1.358 . S
C466 C471 1.371 . S
C467 H439 0.930 . S
C467 C466 1.358 . S
C467 C468 1.405 . S
C468 H440 0.932 . S
C468 C467 1.405 . S
C468 C469 1.383 . S
C469 C468 1.383 . S
C469 C470 1.393 . S
C470 H442 0.931 . S
C470 C469 1.393 . S
C470 C471 1.382 . S
C471 H441 0.929 . S
C471 C466 1.371 . S
C471 C470 1.382 . S
C472 N435 1.423 . S
C472 C473 1.362 . S
C472 C477 1.388 . S
C473 H443 0.929 . S
C473 C472 1.362 . S
C473 C474 1.376 . S
C474 H445 0.931 . S
C474 C473 1.376 . S
C474 C475 1.396 . S
C475 C474 1.396 . S
C475 C476 1.348 . S
C475 C493 1.472 . S
C476 H446 0.929 . S
C476 C475 1.348 . S
C476 C477 1.443 . S
C477 H444 0.932 . S
C477 C472 1.388 . S
C477 C476 1.443 . S
C478 N458 1.433 . S
C478 C479 1.363 . S
C478 C483 1.370 . S
C479 H447 0.929 . S
C479 C478 1.363 . S
C479 C480 1.385 . S
C480 H448 0.930 . S
C480 C479 1.385 . S
C480 C481 1.357 . S
C481 C480 1.357 . S
C481 C482 1.406 . S
C482 H449 0.929 . S
C482 C481 1.406 . S
C482 C483 1.391 . S
C483 H450 0.931 . S
C483 C478 1.370 . S
C483 C482 1.391 . S
C484 N458 1.435 . S
C484 C485 1.358 . S
C484 C489 1.371 . S
C485 H451 0.930 . S
C485 C484 1.358 . S
C485 C486 1.405 . S
C486 H452 0.932 . S
C486 C485 1.405 . S
C486 C487 1.383 . S
C487 C486 1.383 . S
C487 C488 1.393 . S
C488 H453 0.931 . S
C488 C487 1.393 . S
C488 C489 1.382 . S
C489 H454 0.929 . S
C489 C484 1.371 . S
C489 C488 1.382 . S
C490 N458 1.423 . S
C490 C491 1.362 . S
C490 C495 1.388 . S
C491 H455 0.929 . S
C491 C490 1.362 . S
C491 C492 1.376 . S
C492 H456 0.931 . S
C492 C491 1.376 . S
C492 C493 1.396 . S
C493 C475 1.472 . S
C493 C492 1.396 . S
C493 C494 1.348 . S
C494 H457 0.929 . S
C494 C493 1.348 . S
C494 C495 1.443 . S
C495 H459 0.932 . S
C495 C490 1.388 . S
C495 C494 1.443 . S
C496 O498 1.247 . S
C496 O500 1.258 . S
C497 O504 1.247 . S
C497 O505 1.258 . S
O498 C496 1.247 . S
O498 Zn499 2.028 1_655 S
Zn499 O498 2.028 1_455 S
Zn499 O503 2.035 . S
Zn499 O505 2.035 . S
Zn499 O506 2.028 1_455 S
O500 C496 1.258 . S
O500 Zn501 2.035 1_655 S
Zn501 O500 2.035 1_455 S
Zn501 O502 2.028 . S
Zn501 O504 2.028 . S
Zn501 O507 2.035 1_455 S
O502 Zn501 2.028 . S
O502 C508 1.247 . S
O503 Zn499 2.035 . S
O503 C508 1.258 . S
O504 C497 1.247 . S
O504 Zn501 2.028 . S
O505 C497 1.258 . S
O505 Zn499 2.035 . S
O506 Zn499 2.028 1_655 S
O506 C509 1.247 . S
O507 Zn501 2.035 1_655 S
O507 C509 1.258 . S
C508 O502 1.247 . S
C508 O503 1.258 . S
C509 O506 1.247 . S
C509 O507 1.258 . S
C510 O512 1.247 . S
C510 O514 1.258 . S
C511 O518 1.247 . S
C511 O519 1.258 . S
O512 C510 1.247 . S
O512 Zn513 2.028 . S
Zn513 O512 2.028 . S
Zn513 O517 2.035 1_545 S
Zn513 O519 2.035 1_545 S
Zn513 O520 2.028 . S
O514 C510 1.258 . S
O514 Zn515 2.035 . S
Zn515 O514 2.035 . S
Zn515 O516 2.028 1_545 S
Zn515 O518 2.028 1_545 S
Zn515 O521 2.035 . S
O516 Zn515 2.028 1_565 S
O516 C522 1.247 . S
O517 Zn513 2.035 1_565 S
O517 C522 1.258 . S
O518 C511 1.247 . S
O518 Zn515 2.028 1_565 S
O519 C511 1.258 . S
O519 Zn513 2.035 1_565 S
O520 Zn513 2.028 . S
O520 C523 1.247 . S
O521 Zn515 2.035 . S
O521 C523 1.258 . S
C522 O516 1.247 . S
C522 O517 1.258 . S
C523 O520 1.247 . S
C523 O521 1.258 . S
C524 O526 1.247 . S
C524 O528 1.258 . S
C525 O532 1.247 . S
C525 O533 1.258 . S
O526 C524 1.247 . S
O526 Zn527 2.028 1_655 S
Zn527 O526 2.028 1_455 S
Zn527 O531 2.035 . S
Zn527 O533 2.035 . S
Zn527 O534 2.028 1_455 S
O528 C524 1.258 . S
O528 Zn529 2.035 1_655 S
Zn529 O528 2.035 1_455 S
Zn529 O530 2.028 . S
Zn529 O532 2.028 . S
Zn529 O535 2.035 1_455 S
O530 Zn529 2.028 . S
O530 C536 1.247 . S
O531 Zn527 2.035 . S
O531 C536 1.258 . S
O532 C525 1.247 . S
O532 Zn529 2.028 . S
O533 C525 1.258 . S
O533 Zn527 2.035 . S
O534 Zn527 2.028 1_655 S
O534 C537 1.247 . S
O535 Zn529 2.035 1_655 S
O535 C537 1.258 . S
C536 O530 1.247 . S
C536 O531 1.258 . S
C537 O534 1.247 . S
C537 O535 1.258 . S
C538 O540 1.247 . S
C538 O542 1.258 . S
C539 O546 1.247 . S
C539 O547 1.258 . S
O540 C538 1.247 . S
O540 Zn541 2.028 . S
Zn541 O540 2.028 . S
Zn541 O545 2.035 1_545 S
Zn541 O547 2.035 1_545 S
Zn541 O548 2.028 . S
O542 C538 1.258 . S
O542 Zn543 2.035 . S
Zn543 O542 2.035 . S
Zn543 O544 2.028 1_545 S
Zn543 O546 2.028 1_545 S
Zn543 O549 2.035 . S
O544 Zn543 2.028 1_565 S
O544 C550 1.247 . S
O545 Zn541 2.035 1_565 S
O545 C550 1.258 . S
O546 C539 1.247 . S
O546 Zn543 2.028 1_565 S
O547 C539 1.258 . S
O547 Zn541 2.035 1_565 S
O548 Zn541 2.028 . S
O548 C551 1.247 . S
O549 Zn543 2.035 . S
O549 C551 1.258 . S
C550 O544 1.247 . S
C550 O545 1.258 . S
C551 O548 1.247 . S
C551 O549 1.258 . S
C552 O554 1.247 . S
C552 O556 1.258 . S
C553 O560 1.247 . S
C553 O561 1.258 . S
O554 C552 1.247 . S
O554 Zn555 2.028 . S
Zn555 O554 2.028 . S
Zn555 O559 2.035 . S
Zn555 O561 2.035 1_554 S
Zn555 O562 2.028 1_554 S
O556 C552 1.258 . S
O556 Zn557 2.035 . S
Zn557 O556 2.035 . S
Zn557 O558 2.028 . S
Zn557 O560 2.028 1_554 S
Zn557 O563 2.035 1_554 S
O558 Zn557 2.028 . S
O558 C564 1.247 . S
O559 Zn555 2.035 . S
O559 C564 1.258 . S
O560 C553 1.247 . S
O560 Zn557 2.028 1_556 S
O561 C553 1.258 . S
O561 Zn555 2.035 1_556 S
O562 Zn555 2.028 1_556 S
O562 C565 1.247 . S
O563 Zn557 2.035 1_556 S
O563 C565 1.258 . S
C564 O558 1.247 . S
C564 O559 1.258 . S
C565 O562 1.247 . S
C565 O563 1.258 . S
C566 O568 1.247 . S
C566 O570 1.258 . S
C567 O574 1.247 . S
C567 O575 1.258 . S
O568 C566 1.247 . S
O568 Zn569 2.028 . S
Zn569 O568 2.028 . S
Zn569 O573 2.035 . S
Zn569 O575 2.035 1_554 S
Zn569 O576 2.028 1_554 S
O570 C566 1.258 . S
O570 Zn571 2.035 . S
Zn571 O570 2.035 . S
Zn571 O572 2.028 . S
Zn571 O574 2.028 1_554 S
Zn571 O577 2.035 1_554 S
O572 Zn571 2.028 . S
O572 C578 1.247 . S
O573 Zn569 2.035 . S
O573 C578 1.258 . S
O574 C567 1.247 . S
O574 Zn571 2.028 1_556 S
O575 C567 1.258 . S
O575 Zn569 2.035 1_556 S
O576 Zn569 2.028 1_556 S
O576 C579 1.247 . S
O577 Zn571 2.035 1_556 S
O577 C579 1.258 . S
C578 O572 1.247 . S
C578 O573 1.258 . S
C579 O576 1.247 . S
C579 O577 1.258 . S
C580 O582 1.247 . S
C580 O584 1.258 . S
C581 O588 1.247 . S
C581 O589 1.258 . S
O582 C580 1.247 . S
O582 Zn583 2.028 1_556 S
Zn583 O582 2.028 1_554 S
Zn583 O587 2.035 1_554 S
Zn583 O589 2.035 . S
Zn583 O590 2.028 . S
O584 C580 1.258 . S
O584 Zn585 2.035 1_556 S
Zn585 O584 2.035 1_554 S
Zn585 O586 2.028 1_554 S
Zn585 O588 2.028 . S
Zn585 O591 2.035 . S
O586 Zn585 2.028 1_556 S
O586 C592 1.247 . S
O587 Zn583 2.035 1_556 S
O587 C592 1.258 . S
O588 C581 1.247 . S
O588 Zn585 2.028 . S
O589 C581 1.258 . S
O589 Zn583 2.035 . S
O590 Zn583 2.028 . S
O590 C593 1.247 . S
O591 Zn585 2.035 . S
O591 C593 1.258 . S
C592 O586 1.247 . S
C592 O587 1.258 . S
C593 O590 1.247 . S
C593 O591 1.258 . S
C594 O596 1.247 . S
C594 O598 1.258 . S
C595 O602 1.247 . S
C595 O603 1.258 . S
O596 C594 1.247 . S
O596 Zn597 2.028 . S
Zn597 O596 2.028 . S
Zn597 O601 2.035 . S
Zn597 O603 2.035 1_554 S
Zn597 O604 2.028 1_554 S
O598 C594 1.258 . S
O598 Zn599 2.035 . S
Zn599 O598 2.035 . S
Zn599 O600 2.028 . S
Zn599 O602 2.028 1_554 S
Zn599 O605 2.035 1_554 S
O600 Zn599 2.028 . S
O600 C606 1.247 . S
O601 Zn597 2.035 . S
O601 C606 1.258 . S
O602 C595 1.247 . S
O602 Zn599 2.028 1_556 S
O603 C595 1.258 . S
O603 Zn597 2.035 1_556 S
O604 Zn597 2.028 1_556 S
O604 C607 1.247 . S
O605 Zn599 2.035 1_556 S
O605 C607 1.258 . S
C606 O600 1.247 . S
C606 O601 1.258 . S
C607 O604 1.247 . S
C607 O605 1.258 . S
H608 C620 0.930 . S
H609 C622 0.930 . S
H610 C623 0.930 . S
H611 C627 0.959 . S
H612 C627 0.959 . S
H613 C627 0.961 . S
H614 C628 0.960 . S
H615 C628 0.961 . S
H616 C628 0.959 . S
H617 C631 0.929 . S
H618 C632 0.931 . S
H619 C634 0.930 . S
C620 H608 0.930 . S
C620 C621 1.399 . S
C620 C625 1.399 . S
C621 C620 1.399 . S
C621 C622 1.376 . S
C622 H609 0.930 . S
C622 C621 1.376 . S
C622 C623 1.388 . S
C623 H610 0.930 . S
C623 C622 1.388 . S
C623 C624 1.390 . S
C624 C623 1.390 . S
C624 C625 1.394 . S
C624 C630 1.465 . S
C625 C620 1.399 . S
C625 C624 1.394 . S
C625 C626 1.516 . S
C626 C625 1.516 . S
C626 C627 1.502 . S
C626 C628 1.561 . S
C626 C629 1.526 . S
C627 H611 0.959 . S
C627 H612 0.959 . S
C627 H613 0.961 . S
C627 C626 1.502 . S
C628 H614 0.960 . S
C628 H615 0.961 . S
C628 H616 0.959 . S
C628 C626 1.561 . S
C629 C626 1.526 . S
C629 C630 1.396 . S
C629 C634 1.390 . S
C630 C624 1.465 . S
C630 C629 1.396 . S
C630 C631 1.399 . S
C631 H617 0.929 . S
C631 C630 1.399 . S
C631 C632 1.385 . S
C632 H618 0.931 . S
C632 C631 1.385 . S
C632 C633 1.389 . S
C633 C632 1.389 . S
C633 C634 1.387 . S
C634 H619 0.930 . S
C634 C629 1.390 . S
C634 C633 1.387 . S
H635 C647 0.930 . S
H636 C649 0.930 . S
H637 C650 0.930 . S
H638 C654 0.959 . S
H639 C654 0.959 . S
H640 C654 0.961 . S
H641 C655 0.960 . S
H642 C655 0.961 . S
H643 C655 0.959 . S
H644 C658 0.929 . S
H645 C659 0.931 . S
H646 C661 0.930 . S
C647 H635 0.930 . S
C647 C648 1.399 . S
C647 C652 1.399 . S
C648 C647 1.399 . S
C648 C649 1.376 . S
C649 H636 0.930 . S
C649 C648 1.376 . S
C649 C650 1.388 . S
C650 H637 0.930 . S
C650 C649 1.388 . S
C650 C651 1.390 . S
C651 C650 1.390 . S
C651 C652 1.394 . S
C651 C657 1.465 . S
C652 C647 1.399 . S
C652 C651 1.394 . S
C652 C653 1.516 . S
C653 C652 1.516 . S
C653 C654 1.502 . S
C653 C655 1.561 . S
C653 C656 1.526 . S
C654 H638 0.959 . S
C654 H639 0.959 . S
C654 H640 0.961 . S
C654 C653 1.502 . S
C655 H641 0.960 . S
C655 H642 0.961 . S
C655 H643 0.959 . S
C655 C653 1.561 . S
C656 C653 1.526 . S
C656 C657 1.396 . S
C656 C661 1.390 . S
C657 C651 1.465 . S
C657 C656 1.396 . S
C657 C658 1.399 . S
C658 H644 0.929 . S
C658 C657 1.399 . S
C658 C659 1.385 . S
C659 H645 0.931 . S
C659 C658 1.385 . S
C659 C660 1.389 . S
C660 C659 1.389 . S
C660 C661 1.387 . S
C661 H646 0.930 . S
C661 C656 1.390 . S
C661 C660 1.387 . S
H662 C674 0.930 . S
H663 C676 0.930 . S
H664 C677 0.930 . S
H665 C681 0.959 . S
H666 C681 0.959 . S
H667 C681 0.961 . S
H668 C682 0.960 . S
H669 C682 0.961 . S
H670 C682 0.959 . S
H671 C685 0.929 . S
H672 C686 0.931 . S
H673 C688 0.930 . S
C674 H662 0.930 . S
C674 C675 1.399 . S
C674 C679 1.399 . S
C675 C674 1.399 . S
C675 C676 1.376 . S
C676 H663 0.930 . S
C676 C675 1.376 . S
C676 C677 1.388 . S
C677 H664 0.930 . S
C677 C676 1.388 . S
C677 C678 1.390 . S
C678 C677 1.390 . S
C678 C679 1.394 . S
C678 C684 1.465 . S
C679 C674 1.399 . S
C679 C678 1.394 . S
C679 C680 1.516 . S
C680 C679 1.516 . S
C680 C681 1.502 . S
C680 C682 1.561 . S
C680 C683 1.526 . S
C681 H665 0.959 . S
C681 H666 0.959 . S
C681 H667 0.961 . S
C681 C680 1.502 . S
C682 H668 0.960 . S
C682 H669 0.961 . S
C682 H670 0.959 . S
C682 C680 1.561 . S
C683 C680 1.526 . S
C683 C684 1.396 . S
C683 C688 1.390 . S
C684 C678 1.465 . S
C684 C683 1.396 . S
C684 C685 1.399 . S
C685 H671 0.929 . S
C685 C684 1.399 . S
C685 C686 1.385 . S
C686 H672 0.931 . S
C686 C685 1.385 . S
C686 C687 1.389 . S
C687 C686 1.389 . S
C687 C688 1.387 . S
C688 H673 0.930 . S
C688 C683 1.390 . S
C688 C687 1.387 . S
H689 C701 0.930 . S
H690 C703 0.930 . S
H691 C704 0.930 . S
H692 C708 0.959 . S
H693 C708 0.959 . S
H694 C708 0.961 . S
H695 C709 0.960 . S
H696 C709 0.961 . S
H697 C709 0.959 . S
H698 C712 0.929 . S
H699 C713 0.931 . S
H700 C715 0.930 . S
C701 H689 0.930 . S
C701 C702 1.399 . S
C701 C706 1.399 . S
C702 C701 1.399 . S
C702 C703 1.376 . S
C703 H690 0.930 . S
C703 C702 1.376 . S
C703 C704 1.388 . S
C704 H691 0.930 . S
C704 C703 1.388 . S
C704 C705 1.390 . S
C705 C704 1.390 . S
C705 C706 1.394 . S
C705 C711 1.465 . S
C706 C701 1.399 . S
C706 C705 1.394 . S
C706 C707 1.516 . S
C707 C706 1.516 . S
C707 C708 1.502 . S
C707 C709 1.561 . S
C707 C710 1.526 . S
C708 H692 0.959 . S
C708 H693 0.959 . S
C708 H694 0.961 . S
C708 C707 1.502 . S
C709 H695 0.960 . S
C709 H696 0.961 . S
C709 H697 0.959 . S
C709 C707 1.561 . S
C710 C707 1.526 . S
C710 C711 1.396 . S
C710 C715 1.390 . S
C711 C705 1.465 . S
C711 C710 1.396 . S
C711 C712 1.399 . S
C712 H698 0.929 . S
C712 C711 1.399 . S
C712 C713 1.385 . S
C713 H699 0.931 . S
C713 C712 1.385 . S
C713 C714 1.389 . S
C714 C713 1.389 . S
C714 C715 1.387 . S
C715 H700 0.930 . S
C715 C710 1.390 . S
C715 C714 1.387 . S
H716 C728 0.930 . S
H717 C730 0.930 . S
H718 C731 0.930 . S
H719 C735 0.959 . S
H720 C735 0.959 . S
H721 C735 0.961 . S
H722 C736 0.960 . S
H723 C736 0.961 . S
H724 C736 0.959 . S
H725 C739 0.929 . S
H726 C740 0.931 . S
H727 C742 0.930 . S
C728 H716 0.930 . S
C728 C729 1.399 . S
C728 C733 1.399 . S
C729 C728 1.399 . S
C729 C730 1.376 . S
C730 H717 0.930 . S
C730 C729 1.376 . S
C730 C731 1.388 . S
C731 H718 0.930 . S
C731 C730 1.388 . S
C731 C732 1.390 . S
C732 C731 1.390 . S
C732 C733 1.394 . S
C732 C738 1.465 . S
C733 C728 1.399 . S
C733 C732 1.394 . S
C733 C734 1.516 . S
C734 C733 1.516 . S
C734 C735 1.502 . S
C734 C736 1.561 . S
C734 C737 1.526 . S
C735 H719 0.959 . S
C735 H720 0.959 . S
C735 H721 0.961 . S
C735 C734 1.502 . S
C736 H722 0.960 . S
C736 H723 0.961 . S
C736 H724 0.959 . S
C736 C734 1.561 . S
C737 C734 1.526 . S
C737 C738 1.396 . S
C737 C742 1.390 . S
C738 C732 1.465 . S
C738 C737 1.396 . S
C738 C739 1.399 . S
C739 H725 0.929 . S
C739 C738 1.399 . S
C739 C740 1.385 . S
C740 H726 0.931 . S
C740 C739 1.385 . S
C740 C741 1.389 . S
C741 C740 1.389 . S
C741 C742 1.387 . S
C742 H727 0.930 . S
C742 C737 1.390 . S
C742 C741 1.387 . S
H743 C755 0.930 . S
H744 C757 0.930 . S
H745 C758 0.930 . S
H746 C762 0.959 . S
H747 C762 0.959 . S
H748 C762 0.961 . S
H749 C763 0.960 . S
H750 C763 0.961 . S
H751 C763 0.959 . S
H752 C766 0.929 . S
H753 C767 0.931 . S
H754 C769 0.930 . S
C755 H743 0.930 . S
C755 C756 1.399 . S
C755 C760 1.399 . S
C756 C755 1.399 . S
C756 C757 1.376 . S
C757 H744 0.930 . S
C757 C756 1.376 . S
C757 C758 1.388 . S
C758 H745 0.930 . S
C758 C757 1.388 . S
C758 C759 1.390 . S
C759 C758 1.390 . S
C759 C760 1.394 . S
C759 C765 1.465 . S
C760 C755 1.399 . S
C760 C759 1.394 . S
C760 C761 1.516 . S
C761 C760 1.516 . S
C761 C762 1.502 . S
C761 C763 1.561 . S
C761 C764 1.526 . S
C762 H746 0.959 . S
C762 H747 0.959 . S
C762 H748 0.961 . S
C762 C761 1.502 . S
C763 H749 0.960 . S
C763 H750 0.961 . S
C763 H751 0.959 . S
C763 C761 1.561 . S
C764 C761 1.526 . S
C764 C765 1.396 . S
C764 C769 1.390 . S
C765 C759 1.465 . S
C765 C764 1.396 . S
C765 C766 1.399 . S
C766 H752 0.929 . S
C766 C765 1.399 . S
C766 C767 1.385 . S
C767 H753 0.931 . S
C767 C766 1.385 . S
C767 C768 1.389 . S
C768 C767 1.389 . S
C768 C769 1.387 . S
C769 H754 0.930 . S
C769 C764 1.390 . S
C769 C768 1.387 . S
H770 C782 0.930 . S
H771 C784 0.930 . S
H772 C785 0.930 . S
H773 C789 0.959 . S
H774 C789 0.959 . S
H775 C789 0.961 . S
H776 C790 0.960 . S
H777 C790 0.961 . S
H778 C790 0.959 . S
H779 C793 0.929 . S
H780 C794 0.931 . S
H781 C796 0.930 . S
C782 H770 0.930 . S
C782 C783 1.399 . S
C782 C787 1.399 . S
C783 C782 1.399 . S
C783 C784 1.376 . S
C784 H771 0.930 . S
C784 C783 1.376 . S
C784 C785 1.388 . S
C785 H772 0.930 . S
C785 C784 1.388 . S
C785 C786 1.390 . S
C786 C785 1.390 . S
C786 C787 1.394 . S
C786 C792 1.465 . S
C787 C782 1.399 . S
C787 C786 1.394 . S
C787 C788 1.516 . S
C788 C787 1.516 . S
C788 C789 1.502 . S
C788 C790 1.561 . S
C788 C791 1.526 . S
C789 H773 0.959 . S
C789 H774 0.959 . S
C789 H775 0.961 . S
C789 C788 1.502 . S
C790 H776 0.960 . S
C790 H777 0.961 . S
C790 H778 0.959 . S
C790 C788 1.561 . S
C791 C788 1.526 . S
C791 C792 1.396 . S
C791 C796 1.390 . S
C792 C786 1.465 . S
C792 C791 1.396 . S
C792 C793 1.399 . S
C793 H779 0.929 . S
C793 C792 1.399 . S
C793 C794 1.385 . S
C794 H780 0.931 . S
C794 C793 1.385 . S
C794 C795 1.389 . S
C795 C794 1.389 . S
C795 C796 1.387 . S
C796 H781 0.930 . S
C796 C791 1.390 . S
C796 C795 1.387 . S
H797 C809 0.930 . S
H798 C811 0.930 . S
H799 C812 0.930 . S
H800 C816 0.959 . S
H801 C816 0.959 . S
H802 C816 0.961 . S
H803 C817 0.960 . S
H804 C817 0.961 . S
H805 C817 0.959 . S
H806 C820 0.929 . S
H807 C821 0.931 . S
H808 C823 0.930 . S
C809 H797 0.930 . S
C809 C810 1.399 . S
C809 C814 1.399 . S
C810 C809 1.399 . S
C810 C811 1.376 . S
C811 H798 0.930 . S
C811 C810 1.376 . S
C811 C812 1.388 . S
C812 H799 0.930 . S
C812 C811 1.388 . S
C812 C813 1.390 . S
C813 C812 1.390 . S
C813 C814 1.394 . S
C813 C819 1.465 . S
C814 C809 1.399 . S
C814 C813 1.394 . S
C814 C815 1.516 . S
C815 C814 1.516 . S
C815 C816 1.502 . S
C815 C817 1.561 . S
C815 C818 1.526 . S
C816 H800 0.959 . S
C816 H801 0.959 . S
C816 H802 0.961 . S
C816 C815 1.502 . S
C817 H803 0.960 . S
C817 H804 0.961 . S
C817 H805 0.959 . S
C817 C815 1.561 . S
C818 C815 1.526 . S
C818 C819 1.396 . S
C818 C823 1.390 . S
C819 C813 1.465 . S
C819 C818 1.396 . S
C819 C820 1.399 . S
C820 H806 0.929 . S
C820 C819 1.399 . S
C820 C821 1.385 . S
C821 H807 0.931 . S
C821 C820 1.385 . S
C821 C822 1.389 . S
C822 C821 1.389 . S
C822 C823 1.387 . S
C823 H808 0.930 . S
C823 C818 1.390 . S
C823 C822 1.387 . S
H824 C836 0.930 . S
H825 C838 0.930 . S
H826 C839 0.930 . S
H827 C843 0.959 . S
H828 C843 0.959 . S
H829 C843 0.961 . S
H830 C844 0.960 . S
H831 C844 0.961 . S
H832 C844 0.959 . S
H833 C847 0.929 . S
H834 C848 0.931 . S
H835 C850 0.930 . S
C836 H824 0.930 . S
C836 C837 1.399 . S
C836 C841 1.399 . S
C837 C836 1.399 . S
C837 C838 1.376 . S
C838 H825 0.930 . S
C838 C837 1.376 . S
C838 C839 1.388 . S
C839 H826 0.930 . S
C839 C838 1.388 . S
C839 C840 1.390 . S
C840 C839 1.390 . S
C840 C841 1.394 . S
C840 C846 1.465 . S
C841 C836 1.399 . S
C841 C840 1.394 . S
C841 C842 1.516 . S
C842 C841 1.516 . S
C842 C843 1.502 . S
C842 C844 1.561 . S
C842 C845 1.526 . S
C843 H827 0.959 . S
C843 H828 0.959 . S
C843 H829 0.961 . S
C843 C842 1.502 . S
C844 H830 0.960 . S
C844 H831 0.961 . S
C844 H832 0.959 . S
C844 C842 1.561 . S
C845 C842 1.526 . S
C845 C846 1.396 . S
C845 C850 1.390 . S
C846 C840 1.465 . S
C846 C845 1.396 . S
C846 C847 1.399 . S
C847 H833 0.929 . S
C847 C846 1.399 . S
C847 C848 1.385 . S
C848 H834 0.931 . S
C848 C847 1.385 . S
C848 C849 1.389 . S
C849 C848 1.389 . S
C849 C850 1.387 . S
C850 H835 0.930 . S
C850 C845 1.390 . S
C850 C849 1.387 . S
H851 C863 0.930 . S
H852 C865 0.930 . S
H853 C866 0.930 . S
H854 C870 0.959 . S
H855 C870 0.959 . S
H856 C870 0.961 . S
H857 C871 0.960 . S
H858 C871 0.961 . S
H859 C871 0.959 . S
H860 C874 0.929 . S
H861 C875 0.931 . S
H862 C877 0.930 . S
C863 H851 0.930 . S
C863 C864 1.399 . S
C863 C868 1.399 . S
C864 C863 1.399 . S
C864 C865 1.376 . S
C865 H852 0.930 . S
C865 C864 1.376 . S
C865 C866 1.388 . S
C866 H853 0.930 . S
C866 C865 1.388 . S
C866 C867 1.390 . S
C867 C866 1.390 . S
C867 C868 1.394 . S
C867 C873 1.465 . S
C868 C863 1.399 . S
C868 C867 1.394 . S
C868 C869 1.516 . S
C869 C868 1.516 . S
C869 C870 1.502 . S
C869 C871 1.561 . S
C869 C872 1.526 . S
C870 H854 0.959 . S
C870 H855 0.959 . S
C870 H856 0.961 . S
C870 C869 1.502 . S
C871 H857 0.960 . S
C871 H858 0.961 . S
C871 H859 0.959 . S
C871 C869 1.561 . S
C872 C869 1.526 . S
C872 C873 1.396 . S
C872 C877 1.390 . S
C873 C867 1.465 . S
C873 C872 1.396 . S
C873 C874 1.399 . S
C874 H860 0.929 . S
C874 C873 1.399 . S
C874 C875 1.385 . S
C875 H861 0.931 . S
C875 C874 1.385 . S
C875 C876 1.389 . S
C876 C875 1.389 . S
C876 C877 1.387 . S
C877 H862 0.930 . S
C877 C872 1.390 . S
C877 C876 1.387 . S
H878 C890 0.930 . S
H879 C892 0.930 . S
H880 C893 0.930 . S
H881 C897 0.959 . S
H882 C897 0.959 . S
H883 C897 0.961 . S
H884 C898 0.960 . S
H885 C898 0.961 . S
H886 C898 0.959 . S
H887 C901 0.929 . S
H888 C902 0.931 . S
H889 C904 0.930 . S
C890 H878 0.930 . S
C890 C891 1.399 . S
C890 C895 1.399 . S
C891 C890 1.399 . S
C891 C892 1.376 . S
C892 H879 0.930 . S
C892 C891 1.376 . S
C892 C893 1.388 . S
C893 H880 0.930 . S
C893 C892 1.388 . S
C893 C894 1.390 . S
C894 C893 1.390 . S
C894 C895 1.394 . S
C894 C900 1.465 . S
C895 C890 1.399 . S
C895 C894 1.394 . S
C895 C896 1.516 . S
C896 C895 1.516 . S
C896 C897 1.502 . S
C896 C898 1.561 . S
C896 C899 1.526 . S
C897 H881 0.959 . S
C897 H882 0.959 . S
C897 H883 0.961 . S
C897 C896 1.502 . S
C898 H884 0.960 . S
C898 H885 0.961 . S
C898 H886 0.959 . S
C898 C896 1.561 . S
C899 C896 1.526 . S
C899 C900 1.396 . S
C899 C904 1.390 . S
C900 C894 1.465 . S
C900 C899 1.396 . S
C900 C901 1.399 . S
C901 H887 0.929 . S
C901 C900 1.399 . S
C901 C902 1.385 . S
C902 H888 0.931 . S
C902 C901 1.385 . S
C902 C903 1.389 . S
C903 C902 1.389 . S
C903 C904 1.387 . S
C904 H889 0.930 . S
C904 C899 1.390 . S
C904 C903 1.387 . S
H905 C917 0.930 . S
H906 C919 0.930 . S
H907 C920 0.930 . S
H908 C924 0.959 . S
H909 C924 0.959 . S
H910 C924 0.961 . S
H911 C925 0.960 . S
H912 C925 0.961 . S
H913 C925 0.959 . S
H914 C928 0.929 . S
H915 C929 0.931 . S
H916 C931 0.930 . S
C917 H905 0.930 . S
C917 C918 1.399 . S
C917 C922 1.399 . S
C918 C917 1.399 . S
C918 C919 1.376 . S
C919 H906 0.930 . S
C919 C918 1.376 . S
C919 C920 1.388 . S
C920 H907 0.930 . S
C920 C919 1.388 . S
C920 C921 1.390 . S
C921 C920 1.390 . S
C921 C922 1.394 . S
C921 C927 1.465 . S
C922 C917 1.399 . S
C922 C921 1.394 . S
C922 C923 1.516 . S
C923 C922 1.516 . S
C923 C924 1.502 . S
C923 C925 1.561 . S
C923 C926 1.526 . S
C924 H908 0.959 . S
C924 H909 0.959 . S
C924 H910 0.961 . S
C924 C923 1.502 . S
C925 H911 0.960 . S
C925 H912 0.961 . S
C925 H913 0.959 . S
C925 C923 1.561 . S
C926 C923 1.526 . S
C926 C927 1.396 . S
C926 C931 1.390 . S
C927 C921 1.465 . S
C927 C926 1.396 . S
C927 C928 1.399 . S
C928 H914 0.929 . S
C928 C927 1.399 . S
C928 C929 1.385 . S
C929 H915 0.931 . S
C929 C928 1.385 . S
C929 C930 1.389 . S
C930 C929 1.389 . S
C930 C931 1.387 . S
C931 H916 0.930 . S
C931 C926 1.390 . S
C931 C930 1.387 . S
H932 C944 0.930 . S
H933 C946 0.930 . S
H934 C947 0.930 . S
H935 C951 0.959 . S
H936 C951 0.959 . S
H937 C951 0.961 . S
H938 C952 0.960 . S
H939 C952 0.961 . S
H940 C952 0.959 . S
H941 C955 0.929 . S
H942 C956 0.931 . S
H943 C958 0.930 . S
C944 H932 0.930 . S
C944 C945 1.399 . S
C944 C949 1.399 . S
C945 C944 1.399 . S
C945 C946 1.376 . S
C946 H933 0.930 . S
C946 C945 1.376 . S
C946 C947 1.388 . S
C947 H934 0.930 . S
C947 C946 1.388 . S
C947 C948 1.390 . S
C948 C947 1.390 . S
C948 C949 1.394 . S
C948 C954 1.465 . S
C949 C944 1.399 . S
C949 C948 1.394 . S
C949 C950 1.516 . S
C950 C949 1.516 . S
C950 C951 1.502 . S
C950 C952 1.561 . S
C950 C953 1.526 . S
C951 H935 0.959 . S
C951 H936 0.959 . S
C951 H937 0.961 . S
C951 C950 1.502 . S
C952 H938 0.960 . S
C952 H939 0.961 . S
C952 H940 0.959 . S
C952 C950 1.561 . S
C953 C950 1.526 . S
C953 C954 1.396 . S
C953 C958 1.390 . S
C954 C948 1.465 . S
C954 C953 1.396 . S
C954 C955 1.399 . S
C955 H941 0.929 . S
C955 C954 1.399 . S
C955 C956 1.385 . S
C956 H942 0.931 . S
C956 C955 1.385 . S
C956 C957 1.389 . S
C957 C956 1.389 . S
C957 C958 1.387 . S
C958 H943 0.930 . S
C958 C953 1.390 . S
C958 C957 1.387 . S
H959 C971 0.930 . S
H960 C973 0.930 . S
H961 C974 0.930 . S
H962 C978 0.959 . S
H963 C978 0.959 . S
H964 C978 0.961 . S
H965 C979 0.960 . S
H966 C979 0.961 . S
H967 C979 0.959 . S
H968 C982 0.929 . S
H969 C983 0.931 . S
H970 C985 0.930 . S
C971 H959 0.930 . S
C971 C972 1.399 . S
C971 C976 1.399 . S
C972 C971 1.399 . S
C972 C973 1.376 . S
C973 H960 0.930 . S
C973 C972 1.376 . S
C973 C974 1.388 . S
C974 H961 0.930 . S
C974 C973 1.388 . S
C974 C975 1.390 . S
C975 C974 1.390 . S
C975 C976 1.394 . S
C975 C981 1.465 . S
C976 C971 1.399 . S
C976 C975 1.394 . S
C976 C977 1.516 . S
C977 C976 1.516 . S
C977 C978 1.502 . S
C977 C979 1.561 . S
C977 C980 1.526 . S
C978 H962 0.959 . S
C978 H963 0.959 . S
C978 H964 0.961 . S
C978 C977 1.502 . S
C979 H965 0.960 . S
C979 H966 0.961 . S
C979 H967 0.959 . S
C979 C977 1.561 . S
C980 C977 1.526 . S
C980 C981 1.396 . S
C980 C985 1.390 . S
C981 C975 1.465 . S
C981 C980 1.396 . S
C981 C982 1.399 . S
C982 H968 0.929 . S
C982 C981 1.399 . S
C982 C983 1.385 . S
C983 H969 0.931 . S
C983 C982 1.385 . S
C983 C984 1.389 . S
C984 C983 1.389 . S
C984 C985 1.387 . S
C985 H970 0.930 . S
C985 C980 1.390 . S
C985 C984 1.387 . S
H986 C998 0.930 . S
H987 C1000 0.930 . S
H988 C1001 0.930 . S
H989 C1005 0.959 . S
H990 C1005 0.959 . S
H991 C1005 0.961 . S
H992 C1006 0.960 . S
H993 C1006 0.961 . S
H994 C1006 0.959 . S
H995 C1009 0.929 . S
H996 C1010 0.931 . S
H997 C1012 0.930 . S
C998 H986 0.930 . S
C998 C999 1.399 . S
C998 C1003 1.399 . S
C999 C998 1.399 . S
C999 C1000 1.376 . S
C1000 H987 0.930 . S
C1000 C999 1.376 . S
C1000 C1001 1.388 . S
C1001 H988 0.930 . S
C1001 C1000 1.388 . S
C1001 C1002 1.390 . S
C1002 C1001 1.390 . S
C1002 C1003 1.394 . S
C1002 C1008 1.465 . S
C1003 C998 1.399 . S
C1003 C1002 1.394 . S
C1003 C1004 1.516 . S
C1004 C1003 1.516 . S
C1004 C1005 1.502 . S
C1004 C1006 1.561 . S
C1004 C1007 1.526 . S
C1005 H989 0.959 . S
C1005 H990 0.959 . S
C1005 H991 0.961 . S
C1005 C1004 1.502 . S
C1006 H992 0.960 . S
C1006 H993 0.961 . S
C1006 H994 0.959 . S
C1006 C1004 1.561 . S
C1007 C1004 1.526 . S
C1007 C1008 1.396 . S
C1007 C1012 1.390 . S
C1008 C1002 1.465 . S
C1008 C1007 1.396 . S
C1008 C1009 1.399 . S
C1009 H995 0.929 . S
C1009 C1008 1.399 . S
C1009 C1010 1.385 . S
C1010 H996 0.931 . S
C1010 C1009 1.385 . S
C1010 C1011 1.389 . S
C1011 C1010 1.389 . S
C1011 C1012 1.387 . S
C1012 H997 0.930 . S
C1012 C1007 1.390 . S
C1012 C1011 1.387 . S
H1013 C1025 0.930 . S
H1014 C1027 0.930 . S
H1015 C1028 0.930 . S
H1016 C1032 0.959 . S
H1017 C1032 0.959 . S
H1018 C1032 0.961 . S
H1019 C1033 0.960 . S
H1020 C1033 0.961 . S
H1021 C1033 0.959 . S
H1022 C1036 0.929 . S
H1023 C1037 0.931 . S
H1024 C1039 0.930 . S
C1025 H1013 0.930 . S
C1025 C1026 1.399 . S
C1025 C1030 1.399 . S
C1026 C1025 1.399 . S
C1026 C1027 1.376 . S
C1027 H1014 0.930 . S
C1027 C1026 1.376 . S
C1027 C1028 1.388 . S
C1028 H1015 0.930 . S
C1028 C1027 1.388 . S
C1028 C1029 1.390 . S
C1029 C1028 1.390 . S
C1029 C1030 1.394 . S
C1029 C1035 1.465 . S
C1030 C1025 1.399 . S
C1030 C1029 1.394 . S
C1030 C1031 1.516 . S
C1031 C1030 1.516 . S
C1031 C1032 1.502 . S
C1031 C1033 1.561 . S
C1031 C1034 1.526 . S
C1032 H1016 0.959 . S
C1032 H1017 0.959 . S
C1032 H1018 0.961 . S
C1032 C1031 1.502 . S
C1033 H1019 0.960 . S
C1033 H1020 0.961 . S
C1033 H1021 0.959 . S
C1033 C1031 1.561 . S
C1034 C1031 1.526 . S
C1034 C1035 1.396 . S
C1034 C1039 1.390 . S
C1035 C1029 1.465 . S
C1035 C1034 1.396 . S
C1035 C1036 1.399 . S
C1036 H1022 0.929 . S
C1036 C1035 1.399 . S
C1036 C1037 1.385 . S
C1037 H1023 0.931 . S
C1037 C1036 1.385 . S
C1037 C1038 1.389 . S
C1038 C1037 1.389 . S
C1038 C1039 1.387 . S
C1039 H1024 0.930 . S
C1039 C1034 1.390 . S
C1039 C1038 1.387 . S
H1040 C1052 0.930 . S
H1041 C1054 0.930 . S
H1042 C1055 0.930 . S
H1043 C1059 0.959 . S
H1044 C1059 0.959 . S
H1045 C1059 0.961 . S
H1046 C1060 0.960 . S
H1047 C1060 0.961 . S
H1048 C1060 0.959 . S
H1049 C1063 0.929 . S
H1050 C1064 0.931 . S
H1051 C1066 0.930 . S
C1052 H1040 0.930 . S
C1052 C1053 1.399 . S
C1052 C1057 1.399 . S
C1053 C1052 1.399 . S
C1053 C1054 1.376 . S
C1054 H1041 0.930 . S
C1054 C1053 1.376 . S
C1054 C1055 1.388 . S
C1055 H1042 0.930 . S
C1055 C1054 1.388 . S
C1055 C1056 1.390 . S
C1056 C1055 1.390 . S
C1056 C1057 1.394 . S
C1056 C1062 1.465 . S
C1057 C1052 1.399 . S
C1057 C1056 1.394 . S
C1057 C1058 1.516 . S
C1058 C1057 1.516 . S
C1058 C1059 1.502 . S
C1058 C1060 1.561 . S
C1058 C1061 1.526 . S
C1059 H1043 0.959 . S
C1059 H1044 0.959 . S
C1059 H1045 0.961 . S
C1059 C1058 1.502 . S
C1060 H1046 0.960 . S
C1060 H1047 0.961 . S
C1060 H1048 0.959 . S
C1060 C1058 1.561 . S
C1061 C1058 1.526 . S
C1061 C1062 1.396 . S
C1061 C1066 1.390 . S
C1062 C1056 1.465 . S
C1062 C1061 1.396 . S
C1062 C1063 1.399 . S
C1063 H1049 0.929 . S
C1063 C1062 1.399 . S
C1063 C1064 1.385 . S
C1064 H1050 0.931 . S
C1064 C1063 1.385 . S
C1064 C1065 1.389 . S
C1065 C1064 1.389 . S
C1065 C1066 1.387 . S
C1066 H1051 0.930 . S
C1066 C1061 1.390 . S
C1066 C1065 1.387 . S
H1067 C1079 0.930 . S
H1068 C1081 0.930 . S
H1069 C1082 0.930 . S
H1070 C1086 0.959 . S
H1071 C1086 0.959 . S
H1072 C1086 0.961 . S
H1073 C1087 0.960 . S
H1074 C1087 0.961 . S
H1075 C1087 0.959 . S
H1076 C1090 0.929 . S
H1077 C1091 0.931 . S
H1078 C1093 0.930 . S
C1079 H1067 0.930 . S
C1079 C1080 1.399 . S
C1079 C1084 1.399 . S
C1080 C1079 1.399 . S
C1080 C1081 1.376 . S
C1081 H1068 0.930 . S
C1081 C1080 1.376 . S
C1081 C1082 1.388 . S
C1082 H1069 0.930 . S
C1082 C1081 1.388 . S
C1082 C1083 1.390 . S
C1083 C1082 1.390 . S
C1083 C1084 1.394 . S
C1083 C1089 1.465 . S
C1084 C1079 1.399 . S
C1084 C1083 1.394 . S
C1084 C1085 1.516 . S
C1085 C1084 1.516 . S
C1085 C1086 1.502 . S
C1085 C1087 1.561 . S
C1085 C1088 1.526 . S
C1086 H1070 0.959 . S
C1086 H1071 0.959 . S
C1086 H1072 0.961 . S
C1086 C1085 1.502 . S
C1087 H1073 0.960 . S
C1087 H1074 0.961 . S
C1087 H1075 0.959 . S
C1087 C1085 1.561 . S
C1088 C1085 1.526 . S
C1088 C1089 1.396 . S
C1088 C1093 1.390 . S
C1089 C1083 1.465 . S
C1089 C1088 1.396 . S
C1089 C1090 1.399 . S
C1090 H1076 0.929 . S
C1090 C1089 1.399 . S
C1090 C1091 1.385 . S
C1091 H1077 0.931 . S
C1091 C1090 1.385 . S
C1091 C1092 1.389 . S
C1092 C1091 1.389 . S
C1092 C1093 1.387 . S
C1093 H1078 0.930 . S
C1093 C1088 1.390 . S
C1093 C1092 1.387 . S
H1094 C1106 0.930 . S
H1095 C1108 0.930 . S
H1096 C1109 0.930 . S
H1097 C1113 0.959 . S
H1098 C1113 0.959 . S
H1099 C1113 0.961 . S
H1100 C1114 0.960 . S
H1101 C1114 0.961 . S
H1102 C1114 0.959 . S
H1103 C1117 0.929 . S
H1104 C1118 0.931 . S
H1105 C1120 0.930 . S
C1106 H1094 0.930 . S
C1106 C1107 1.399 . S
C1106 C1111 1.399 . S
C1107 C1106 1.399 . S
C1107 C1108 1.376 . S
C1108 H1095 0.930 . S
C1108 C1107 1.376 . S
C1108 C1109 1.388 . S
C1109 H1096 0.930 . S
C1109 C1108 1.388 . S
C1109 C1110 1.390 . S
C1110 C1109 1.390 . S
C1110 C1111 1.394 . S
C1110 C1116 1.465 . S
C1111 C1106 1.399 . S
C1111 C1110 1.394 . S
C1111 C1112 1.516 . S
C1112 C1111 1.516 . S
C1112 C1113 1.502 . S
C1112 C1114 1.561 . S
C1112 C1115 1.526 . S
C1113 H1097 0.959 . S
C1113 H1098 0.959 . S
C1113 H1099 0.961 . S
C1113 C1112 1.502 . S
C1114 H1100 0.960 . S
C1114 H1101 0.961 . S
C1114 H1102 0.959 . S
C1114 C1112 1.561 . S
C1115 C1112 1.526 . S
C1115 C1116 1.396 . S
C1115 C1120 1.390 . S
C1116 C1110 1.465 . S
C1116 C1115 1.396 . S
C1116 C1117 1.399 . S
C1117 H1103 0.929 . S
C1117 C1116 1.399 . S
C1117 C1118 1.385 . S
C1118 H1104 0.931 . S
C1118 C1117 1.385 . S
C1118 C1119 1.389 . S
C1119 C1118 1.389 . S
C1119 C1120 1.387 . S
C1120 H1105 0.930 . S
C1120 C1115 1.390 . S
C1120 C1119 1.387 . S
H1121 C1133 0.930 . S
H1122 C1135 0.930 . S
H1123 C1136 0.930 . S
H1124 C1140 0.959 . S
H1125 C1140 0.959 . S
H1126 C1140 0.961 . S
H1127 C1141 0.960 . S
H1128 C1141 0.961 . S
H1129 C1141 0.959 . S
H1130 C1144 0.929 . S
H1131 C1145 0.931 . S
H1132 C1147 0.930 . S
C1133 H1121 0.930 . S
C1133 C1134 1.399 . S
C1133 C1138 1.399 . S
C1134 C1133 1.399 . S
C1134 C1135 1.376 . S
C1135 H1122 0.930 . S
C1135 C1134 1.376 . S
C1135 C1136 1.388 . S
C1136 H1123 0.930 . S
C1136 C1135 1.388 . S
C1136 C1137 1.390 . S
C1137 C1136 1.390 . S
C1137 C1138 1.394 . S
C1137 C1143 1.465 . S
C1138 C1133 1.399 . S
C1138 C1137 1.394 . S
C1138 C1139 1.516 . S
C1139 C1138 1.516 . S
C1139 C1140 1.502 . S
C1139 C1141 1.561 . S
C1139 C1142 1.526 . S
C1140 H1124 0.959 . S
C1140 H1125 0.959 . S
C1140 H1126 0.961 . S
C1140 C1139 1.502 . S
C1141 H1127 0.960 . S
C1141 H1128 0.961 . S
C1141 H1129 0.959 . S
C1141 C1139 1.561 . S
C1142 C1139 1.526 . S
C1142 C1143 1.396 . S
C1142 C1147 1.390 . S
C1143 C1137 1.465 . S
C1143 C1142 1.396 . S
C1143 C1144 1.399 . S
C1144 H1130 0.929 . S
C1144 C1143 1.399 . S
C1144 C1145 1.385 . S
C1145 H1131 0.931 . S
C1145 C1144 1.385 . S
C1145 C1146 1.389 . S
C1146 C1145 1.389 . S
C1146 C1147 1.387 . S
C1147 H1132 0.930 . S
C1147 C1142 1.390 . S
C1147 C1146 1.387 . S
H1148 C1160 0.930 . S
H1149 C1162 0.930 . S
H1150 C1163 0.930 . S
H1151 C1167 0.959 . S
H1152 C1167 0.959 . S
H1153 C1167 0.961 . S
H1154 C1168 0.960 . S
H1155 C1168 0.961 . S
H1156 C1168 0.959 . S
H1157 C1171 0.929 . S
H1158 C1172 0.931 . S
H1159 C1174 0.930 . S
C1160 H1148 0.930 . S
C1160 C1161 1.399 . S
C1160 C1165 1.399 . S
C1161 C1160 1.399 . S
C1161 C1162 1.376 . S
C1162 H1149 0.930 . S
C1162 C1161 1.376 . S
C1162 C1163 1.388 . S
C1163 H1150 0.930 . S
C1163 C1162 1.388 . S
C1163 C1164 1.390 . S
C1164 C1163 1.390 . S
C1164 C1165 1.394 . S
C1164 C1170 1.465 . S
C1165 C1160 1.399 . S
C1165 C1164 1.394 . S
C1165 C1166 1.516 . S
C1166 C1165 1.516 . S
C1166 C1167 1.502 . S
C1166 C1168 1.561 . S
C1166 C1169 1.526 . S
C1167 H1151 0.959 . S
C1167 H1152 0.959 . S
C1167 H1153 0.961 . S
C1167 C1166 1.502 . S
C1168 H1154 0.960 . S
C1168 H1155 0.961 . S
C1168 H1156 0.959 . S
C1168 C1166 1.561 . S
C1169 C1166 1.526 . S
C1169 C1170 1.396 . S
C1169 C1174 1.390 . S
C1170 C1164 1.465 . S
C1170 C1169 1.396 . S
C1170 C1171 1.399 . S
C1171 H1157 0.929 . S
C1171 C1170 1.399 . S
C1171 C1172 1.385 . S
C1172 H1158 0.931 . S
C1172 C1171 1.385 . S
C1172 C1173 1.389 . S
C1173 C1172 1.389 . S
C1173 C1174 1.387 . S
C1174 H1159 0.930 . S
C1174 C1169 1.390 . S
C1174 C1173 1.387 . S
H1175 C1187 0.930 . S
H1176 C1189 0.930 . S
H1177 C1190 0.930 . S
H1178 C1194 0.959 . S
H1179 C1194 0.959 . S
H1180 C1194 0.961 . S
H1181 C1195 0.960 . S
H1182 C1195 0.961 . S
H1183 C1195 0.959 . S
H1184 C1198 0.929 . S
H1185 C1199 0.931 . S
H1186 C1201 0.930 . S
C1187 H1175 0.930 . S
C1187 C1188 1.399 . S
C1187 C1192 1.399 . S
C1188 C1187 1.399 . S
C1188 C1189 1.376 . S
C1189 H1176 0.930 . S
C1189 C1188 1.376 . S
C1189 C1190 1.388 . S
C1190 H1177 0.930 . S
C1190 C1189 1.388 . S
C1190 C1191 1.390 . S
C1191 C1190 1.390 . S
C1191 C1192 1.394 . S
C1191 C1197 1.465 . S
C1192 C1187 1.399 . S
C1192 C1191 1.394 . S
C1192 C1193 1.516 . S
C1193 C1192 1.516 . S
C1193 C1194 1.502 . S
C1193 C1195 1.561 . S
C1193 C1196 1.526 . S
C1194 H1178 0.959 . S
C1194 H1179 0.959 . S
C1194 H1180 0.961 . S
C1194 C1193 1.502 . S
C1195 H1181 0.960 . S
C1195 H1182 0.961 . S
C1195 H1183 0.959 . S
C1195 C1193 1.561 . S
C1196 C1193 1.526 . S
C1196 C1197 1.396 . S
C1196 C1201 1.390 . S
C1197 C1191 1.465 . S
C1197 C1196 1.396 . S
C1197 C1198 1.399 . S
C1198 H1184 0.929 . S
C1198 C1197 1.399 . S
C1198 C1199 1.385 . S
C1199 H1185 0.931 . S
C1199 C1198 1.385 . S
C1199 C1200 1.389 . S
C1200 C1199 1.389 . S
C1200 C1201 1.387 . S
C1201 H1186 0.930 . S
C1201 C1196 1.390 . S
C1201 C1200 1.387 . S
H1202 C1214 0.930 . S
H1203 C1216 0.930 . S
H1204 C1217 0.930 . S
H1205 C1221 0.959 . S
H1206 C1221 0.959 . S
H1207 C1221 0.961 . S
H1208 C1222 0.960 . S
H1209 C1222 0.961 . S
H1210 C1222 0.959 . S
H1211 C1225 0.929 . S
H1212 C1226 0.931 . S
H1213 C1228 0.930 . S
C1214 H1202 0.930 . S
C1214 C1215 1.399 . S
C1214 C1219 1.399 . S
C1215 C1214 1.399 . S
C1215 C1216 1.376 . S
C1216 H1203 0.930 . S
C1216 C1215 1.376 . S
C1216 C1217 1.388 . S
C1217 H1204 0.930 . S
C1217 C1216 1.388 . S
C1217 C1218 1.390 . S
C1218 C1217 1.390 . S
C1218 C1219 1.394 . S
C1218 C1224 1.465 . S
C1219 C1214 1.399 . S
C1219 C1218 1.394 . S
C1219 C1220 1.516 . S
C1220 C1219 1.516 . S
C1220 C1221 1.502 . S
C1220 C1222 1.561 . S
C1220 C1223 1.526 . S
C1221 H1205 0.959 . S
C1221 H1206 0.959 . S
C1221 H1207 0.961 . S
C1221 C1220 1.502 . S
C1222 H1208 0.960 . S
C1222 H1209 0.961 . S
C1222 H1210 0.959 . S
C1222 C1220 1.561 . S
C1223 C1220 1.526 . S
C1223 C1224 1.396 . S
C1223 C1228 1.390 . S
C1224 C1218 1.465 . S
C1224 C1223 1.396 . S
C1224 C1225 1.399 . S
C1225 H1211 0.929 . S
C1225 C1224 1.399 . S
C1225 C1226 1.385 . S
C1226 H1212 0.931 . S
C1226 C1225 1.385 . S
C1226 C1227 1.389 . S
C1227 C1226 1.389 . S
C1227 C1228 1.387 . S
C1228 H1213 0.930 . S
C1228 C1223 1.390 . S
C1228 C1227 1.387 . S
H1229 C1241 0.930 . S
H1230 C1243 0.930 . S
H1231 C1244 0.930 . S
H1232 C1248 0.959 . S
H1233 C1248 0.959 . S
H1234 C1248 0.961 . S
H1235 C1249 0.960 . S
H1236 C1249 0.961 . S
H1237 C1249 0.959 . S
H1238 C1252 0.929 . S
H1239 C1253 0.931 . S
H1240 C1255 0.930 . S
C1241 H1229 0.930 . S
C1241 C1242 1.399 . S
C1241 C1246 1.399 . S
C1242 C1241 1.399 . S
C1242 C1243 1.376 . S
C1243 H1230 0.930 . S
C1243 C1242 1.376 . S
C1243 C1244 1.388 . S
C1244 H1231 0.930 . S
C1244 C1243 1.388 . S
C1244 C1245 1.390 . S
C1245 C1244 1.390 . S
C1245 C1246 1.394 . S
C1245 C1251 1.465 . S
C1246 C1241 1.399 . S
C1246 C1245 1.394 . S
C1246 C1247 1.516 . S
C1247 C1246 1.516 . S
C1247 C1248 1.502 . S
C1247 C1249 1.561 . S
C1247 C1250 1.526 . S
C1248 H1232 0.959 . S
C1248 H1233 0.959 . S
C1248 H1234 0.961 . S
C1248 C1247 1.502 . S
C1249 H1235 0.960 . S
C1249 H1236 0.961 . S
C1249 H1237 0.959 . S
C1249 C1247 1.561 . S
C1250 C1247 1.526 . S
C1250 C1251 1.396 . S
C1250 C1255 1.390 . S
C1251 C1245 1.465 . S
C1251 C1250 1.396 . S
C1251 C1252 1.399 . S
C1252 H1238 0.929 . S
C1252 C1251 1.399 . S
C1252 C1253 1.385 . S
C1253 H1239 0.931 . S
C1253 C1252 1.385 . S
C1253 C1254 1.389 . S
C1254 C1253 1.389 . S
C1254 C1255 1.387 . S
C1255 H1240 0.930 . S
C1255 C1250 1.390 . S
C1255 C1254 1.387 . S
H1256 C1268 0.930 . S
H1257 C1270 0.930 . S
H1258 C1271 0.930 . S
H1259 C1275 0.959 . S
H1260 C1275 0.959 . S
H1261 C1275 0.961 . S
H1262 C1276 0.960 . S
H1263 C1276 0.961 . S
H1264 C1276 0.959 . S
H1265 C1279 0.929 . S
H1266 C1280 0.931 . S
H1267 C1282 0.930 . S
C1268 H1256 0.930 . S
C1268 C1269 1.399 . S
C1268 C1273 1.399 . S
C1269 C1268 1.399 . S
C1269 C1270 1.376 . S
C1270 H1257 0.930 . S
C1270 C1269 1.376 . S
C1270 C1271 1.388 . S
C1271 H1258 0.930 . S
C1271 C1270 1.388 . S
C1271 C1272 1.390 . S
C1272 C1271 1.390 . S
C1272 C1273 1.394 . S
C1272 C1278 1.465 . S
C1273 C1268 1.399 . S
C1273 C1272 1.394 . S
C1273 C1274 1.516 . S
C1274 C1273 1.516 . S
C1274 C1275 1.502 . S
C1274 C1276 1.561 . S
C1274 C1277 1.526 . S
C1275 H1259 0.959 . S
C1275 H1260 0.959 . S
C1275 H1261 0.961 . S
C1275 C1274 1.502 . S
C1276 H1262 0.960 . S
C1276 H1263 0.961 . S
C1276 H1264 0.959 . S
C1276 C1274 1.561 . S
C1277 C1274 1.526 . S
C1277 C1278 1.396 . S
C1277 C1282 1.390 . S
C1278 C1272 1.465 . S
C1278 C1277 1.396 . S
C1278 C1279 1.399 . S
C1279 H1265 0.929 . S
C1279 C1278 1.399 . S
C1279 C1280 1.385 . S
C1280 H1266 0.931 . S
C1280 C1279 1.385 . S
C1280 C1281 1.389 . S
C1281 C1280 1.389 . S
C1281 C1282 1.387 . S
C1282 H1267 0.930 . S
C1282 C1277 1.390 . S
C1282 C1281 1.387 . S
H1283 C1295 0.930 . S
H1284 C1297 0.930 . S
H1285 C1298 0.930 . S
H1286 C1302 0.959 . S
H1287 C1302 0.959 . S
H1288 C1302 0.961 . S
H1289 C1303 0.960 . S
H1290 C1303 0.961 . S
H1291 C1303 0.959 . S
H1292 C1306 0.929 . S
H1293 C1307 0.931 . S
H1294 C1309 0.930 . S
C1295 H1283 0.930 . S
C1295 C1296 1.399 . S
C1295 C1300 1.399 . S
C1296 C1295 1.399 . S
C1296 C1297 1.376 . S
C1297 H1284 0.930 . S
C1297 C1296 1.376 . S
C1297 C1298 1.388 . S
C1298 H1285 0.930 . S
C1298 C1297 1.388 . S
C1298 C1299 1.390 . S
C1299 C1298 1.390 . S
C1299 C1300 1.394 . S
C1299 C1305 1.465 . S
C1300 C1295 1.399 . S
C1300 C1299 1.394 . S
C1300 C1301 1.516 . S
C1301 C1300 1.516 . S
C1301 C1302 1.502 . S
C1301 C1303 1.561 . S
C1301 C1304 1.526 . S
C1302 H1286 0.959 . S
C1302 H1287 0.959 . S
C1302 H1288 0.961 . S
C1302 C1301 1.502 . S
C1303 H1289 0.960 . S
C1303 H1290 0.961 . S
C1303 H1291 0.959 . S
C1303 C1301 1.561 . S
C1304 C1301 1.526 . S
C1304 C1305 1.396 . S
C1304 C1309 1.390 . S
C1305 C1299 1.465 . S
C1305 C1304 1.396 . S
C1305 C1306 1.399 . S
C1306 H1292 0.929 . S
C1306 C1305 1.399 . S
C1306 C1307 1.385 . S
C1307 H1293 0.931 . S
C1307 C1306 1.385 . S
C1307 C1308 1.389 . S
C1308 C1307 1.389 . S
C1308 C1309 1.387 . S
C1309 H1294 0.930 . S
C1309 C1304 1.390 . S
C1309 C1308 1.387 . S
H1310 C1322 0.930 . S
H1311 C1324 0.930 . S
H1312 C1325 0.930 . S
H1313 C1329 0.959 . S
H1314 C1329 0.959 . S
H1315 C1329 0.961 . S
H1316 C1330 0.960 . S
H1317 C1330 0.961 . S
H1318 C1330 0.959 . S
H1319 C1333 0.929 . S
H1320 C1334 0.931 . S
H1321 C1336 0.930 . S
C1322 H1310 0.930 . S
C1322 C1323 1.399 . S
C1322 C1327 1.399 . S
C1323 C1322 1.399 . S
C1323 C1324 1.376 . S
C1324 H1311 0.930 . S
C1324 C1323 1.376 . S
C1324 C1325 1.388 . S
C1325 H1312 0.930 . S
C1325 C1324 1.388 . S
C1325 C1326 1.390 . S
C1326 C1325 1.390 . S
C1326 C1327 1.394 . S
C1326 C1332 1.465 . S
C1327 C1322 1.399 . S
C1327 C1326 1.394 . S
C1327 C1328 1.516 . S
C1328 C1327 1.516 . S
C1328 C1329 1.502 . S
C1328 C1330 1.561 . S
C1328 C1331 1.526 . S
C1329 H1313 0.959 . S
C1329 H1314 0.959 . S
C1329 H1315 0.961 . S
C1329 C1328 1.502 . S
C1330 H1316 0.960 . S
C1330 H1317 0.961 . S
C1330 H1318 0.959 . S
C1330 C1328 1.561 . S
C1331 C1328 1.526 . S
C1331 C1332 1.396 . S
C1331 C1336 1.390 . S
C1332 C1326 1.465 . S
C1332 C1331 1.396 . S
C1332 C1333 1.399 . S
C1333 H1319 0.929 . S
C1333 C1332 1.399 . S
C1333 C1334 1.385 . S
C1334 H1320 0.931 . S
C1334 C1333 1.385 . S
C1334 C1335 1.389 . S
C1335 C1334 1.389 . S
C1335 C1336 1.387 . S
C1336 H1321 0.930 . S
C1336 C1331 1.390 . S
C1336 C1335 1.387 . S
H1337 C1349 0.930 . S
H1338 C1351 0.930 . S
H1339 C1352 0.930 . S
H1340 C1356 0.959 . S
H1341 C1356 0.959 . S
H1342 C1356 0.961 . S
H1343 C1357 0.960 . S
H1344 C1357 0.961 . S
H1345 C1357 0.959 . S
H1346 C1360 0.929 . S
H1347 C1361 0.931 . S
H1348 C1363 0.930 . S
C1349 H1337 0.930 . S
C1349 C1350 1.399 . S
C1349 C1354 1.399 . S
C1350 C1349 1.399 . S
C1350 C1351 1.376 . S
C1351 H1338 0.930 . S
C1351 C1350 1.376 . S
C1351 C1352 1.388 . S
C1352 H1339 0.930 . S
C1352 C1351 1.388 . S
C1352 C1353 1.390 . S
C1353 C1352 1.390 . S
C1353 C1354 1.394 . S
C1353 C1359 1.465 . S
C1354 C1349 1.399 . S
C1354 C1353 1.394 . S
C1354 C1355 1.516 . S
C1355 C1354 1.516 . S
C1355 C1356 1.502 . S
C1355 C1357 1.561 . S
C1355 C1358 1.526 . S
C1356 H1340 0.959 . S
C1356 H1341 0.959 . S
C1356 H1342 0.961 . S
C1356 C1355 1.502 . S
C1357 H1343 0.960 . S
C1357 H1344 0.961 . S
C1357 H1345 0.959 . S
C1357 C1355 1.561 . S
C1358 C1355 1.526 . S
C1358 C1359 1.396 . S
C1358 C1363 1.390 . S
C1359 C1353 1.465 . S
C1359 C1358 1.396 . S
C1359 C1360 1.399 . S
C1360 H1346 0.929 . S
C1360 C1359 1.399 . S
C1360 C1361 1.385 . S
C1361 H1347 0.931 . S
C1361 C1360 1.385 . S
C1361 C1362 1.389 . S
C1362 C1361 1.389 . S
C1362 C1363 1.387 . S
C1363 H1348 0.930 . S
C1363 C1358 1.390 . S
C1363 C1362 1.387 . S
H1364 C1376 0.930 . S
H1365 C1378 0.930 . S
H1366 C1379 0.930 . S
H1367 C1383 0.959 . S
H1368 C1383 0.959 . S
H1369 C1383 0.961 . S
H1370 C1384 0.960 . S
H1371 C1384 0.961 . S
H1372 C1384 0.959 . S
H1373 C1387 0.929 . S
H1374 C1388 0.931 . S
H1375 C1390 0.930 . S
C1376 H1364 0.930 . S
C1376 C1377 1.399 . S
C1376 C1381 1.399 . S
C1377 C1376 1.399 . S
C1377 C1378 1.376 . S
C1378 H1365 0.930 . S
C1378 C1377 1.376 . S
C1378 C1379 1.388 . S
C1379 H1366 0.930 . S
C1379 C1378 1.388 . S
C1379 C1380 1.390 . S
C1380 C1379 1.390 . S
C1380 C1381 1.394 . S
C1380 C1386 1.465 . S
C1381 C1376 1.399 . S
C1381 C1380 1.394 . S
C1381 C1382 1.516 . S
C1382 C1381 1.516 . S
C1382 C1383 1.502 . S
C1382 C1384 1.561 . S
C1382 C1385 1.526 . S
C1383 H1367 0.959 . S
C1383 H1368 0.959 . S
C1383 H1369 0.961 . S
C1383 C1382 1.502 . S
C1384 H1370 0.960 . S
C1384 H1371 0.961 . S
C1384 H1372 0.959 . S
C1384 C1382 1.561 . S
C1385 C1382 1.526 . S
C1385 C1386 1.396 . S
C1385 C1390 1.390 . S
C1386 C1380 1.465 . S
C1386 C1385 1.396 . S
C1386 C1387 1.399 . S
C1387 H1373 0.929 . S
C1387 C1386 1.399 . S
C1387 C1388 1.385 . S
C1388 H1374 0.931 . S
C1388 C1387 1.385 . S
C1388 C1389 1.389 . S
C1389 C1388 1.389 . S
C1389 C1390 1.387 . S
C1390 H1375 0.930 . S
C1390 C1385 1.390 . S
C1390 C1389 1.387 . S
H1391 C1403 0.930 . S
H1392 C1405 0.930 . S
H1393 C1406 0.930 . S
H1394 C1410 0.959 . S
H1395 C1410 0.959 . S
H1396 C1410 0.961 . S
H1397 C1411 0.960 . S
H1398 C1411 0.961 . S
H1399 C1411 0.959 . S
H1400 C1414 0.929 . S
H1401 C1415 0.931 . S
H1402 C1417 0.930 . S
C1403 H1391 0.930 . S
C1403 C1404 1.399 . S
C1403 C1408 1.399 . S
C1404 C1403 1.399 . S
C1404 C1405 1.376 . S
C1405 H1392 0.930 . S
C1405 C1404 1.376 . S
C1405 C1406 1.388 . S
C1406 H1393 0.930 . S
C1406 C1405 1.388 . S
C1406 C1407 1.390 . S
C1407 C1406 1.390 . S
C1407 C1408 1.394 . S
C1407 C1413 1.465 . S
C1408 C1403 1.399 . S
C1408 C1407 1.394 . S
C1408 C1409 1.516 . S
C1409 C1408 1.516 . S
C1409 C1410 1.502 . S
C1409 C1411 1.561 . S
C1409 C1412 1.526 . S
C1410 H1394 0.959 . S
C1410 H1395 0.959 . S
C1410 H1396 0.961 . S
C1410 C1409 1.502 . S
C1411 H1397 0.960 . S
C1411 H1398 0.961 . S
C1411 H1399 0.959 . S
C1411 C1409 1.561 . S
C1412 C1409 1.526 . S
C1412 C1413 1.396 . S
C1412 C1417 1.390 . S
C1413 C1407 1.465 . S
C1413 C1412 1.396 . S
C1413 C1414 1.399 . S
C1414 H1400 0.929 . S
C1414 C1413 1.399 . S
C1414 C1415 1.385 . S
C1415 H1401 0.931 . S
C1415 C1414 1.385 . S
C1415 C1416 1.389 . S
C1416 C1415 1.389 . S
C1416 C1417 1.387 . S
C1417 H1402 0.930 . S
C1417 C1412 1.390 . S
C1417 C1416 1.387 . S
H1418 C1430 0.930 . S
H1419 C1432 0.930 . S
H1420 C1433 0.930 . S
H1421 C1437 0.959 . S
H1422 C1437 0.959 . S
H1423 C1437 0.961 . S
H1424 C1438 0.960 . S
H1425 C1438 0.961 . S
H1426 C1438 0.959 . S
H1427 C1441 0.929 . S
H1428 C1442 0.931 . S
H1429 C1444 0.930 . S
C1430 H1418 0.930 . S
C1430 C1431 1.399 . S
C1430 C1435 1.399 . S
C1431 C1430 1.399 . S
C1431 C1432 1.376 . S
C1432 H1419 0.930 . S
C1432 C1431 1.376 . S
C1432 C1433 1.388 . S
C1433 H1420 0.930 . S
C1433 C1432 1.388 . S
C1433 C1434 1.390 . S
C1434 C1433 1.390 . S
C1434 C1435 1.394 . S
C1434 C1440 1.465 . S
C1435 C1430 1.399 . S
C1435 C1434 1.394 . S
C1435 C1436 1.516 . S
C1436 C1435 1.516 . S
C1436 C1437 1.502 . S
C1436 C1438 1.561 . S
C1436 C1439 1.526 . S
C1437 H1421 0.959 . S
C1437 H1422 0.959 . S
C1437 H1423 0.961 . S
C1437 C1436 1.502 . S
C1438 H1424 0.960 . S
C1438 H1425 0.961 . S
C1438 H1426 0.959 . S
C1438 C1436 1.561 . S
C1439 C1436 1.526 . S
C1439 C1440 1.396 . S
C1439 C1444 1.390 . S
C1440 C1434 1.465 . S
C1440 C1439 1.396 . S
C1440 C1441 1.399 . S
C1441 H1427 0.929 . S
C1441 C1440 1.399 . S
C1441 C1442 1.385 . S
C1442 H1428 0.931 . S
C1442 C1441 1.385 . S
C1442 C1443 1.389 . S
C1443 C1442 1.389 . S
C1443 C1444 1.387 . S
C1444 H1429 0.930 . S
C1444 C1439 1.390 . S
C1444 C1443 1.387 . S
H1445 C1457 0.930 . S
H1446 C1459 0.930 . S
H1447 C1460 0.930 . S
H1448 C1464 0.959 . S
H1449 C1464 0.959 . S
H1450 C1464 0.961 . S
H1451 C1465 0.960 . S
H1452 C1465 0.961 . S
H1453 C1465 0.959 . S
H1454 C1468 0.929 . S
H1455 C1469 0.931 . S
H1456 C1471 0.930 . S
C1457 H1445 0.930 . S
C1457 C1458 1.399 . S
C1457 C1462 1.399 . S
C1458 C1457 1.399 . S
C1458 C1459 1.376 . S
C1459 H1446 0.930 . S
C1459 C1458 1.376 . S
C1459 C1460 1.388 . S
C1460 H1447 0.930 . S
C1460 C1459 1.388 . S
C1460 C1461 1.390 . S
C1461 C1460 1.390 . S
C1461 C1462 1.394 . S
C1461 C1467 1.465 . S
C1462 C1457 1.399 . S
C1462 C1461 1.394 . S
C1462 C1463 1.516 . S
C1463 C1462 1.516 . S
C1463 C1464 1.502 . S
C1463 C1465 1.561 . S
C1463 C1466 1.526 . S
C1464 H1448 0.959 . S
C1464 H1449 0.959 . S
C1464 H1450 0.961 . S
C1464 C1463 1.502 . S
C1465 H1451 0.960 . S
C1465 H1452 0.961 . S
C1465 H1453 0.959 . S
C1465 C1463 1.561 . S
C1466 C1463 1.526 . S
C1466 C1467 1.396 . S
C1466 C1471 1.390 . S
C1467 C1461 1.465 . S
C1467 C1466 1.396 . S
C1467 C1468 1.399 . S
C1468 H1454 0.929 . S
C1468 C1467 1.399 . S
C1468 C1469 1.385 . S
C1469 H1455 0.931 . S
C1469 C1468 1.385 . S
C1469 C1470 1.389 . S
C1470 C1469 1.389 . S
C1470 C1471 1.387 . S
C1471 H1456 0.930 . S
C1471 C1466 1.390 . S
C1471 C1470 1.387 . S
C633 C497 1.608 . S
C621 C47 1.527 . S
C660 C523 1.474 . S
C648 C115 1.468 . S
C687 C537 1.558 . S
C675 C153 1.418 . S
C714 C539 1.680 . S
C702 C233 1.509 . S
C729 C283 1.472 . S
C741 C536 1.474 . S
C768 C538 1.614 . S
C756 C357 1.450 . S
C795 C496 1.664 . S
C783 C401 1.540 . S
C822 C522 1.542 . S
C810 C463 1.462 . S
C849 C524 1.391 . S
C837 C469 1.315 . S
C876 C550 1.533 . S
C864 C277 1.456 . S
C903 C508 1.510 . S
C891 C363 1.482 . S
C930 C510 1.363 . S
C918 C407 1.358 . S
C957 C509 1.523 . S
C945 C109 1.474 . S
C984 C511 1.383 . S
C972 C159 1.370 . S
C1011 C525 1.366 . S
C999 C239 1.339 . S
C1038 C551 1.511 . S
C1026 C53 1.510 . S
C1065 C553 1.614 . S
C1053 C481 1.455 . S
C1080 C301 1.412 . S
C1092 C579 1.491 . S
C1107 C339 1.453 . S
C1119 C592 1.547 . S
C1134 C419 1.493 . S
C1146 C595 1.677 . S
C1161 C97 1.458 . S
C1173 C593 1.479 . S
C1188 C171 1.546 . S
C1200 C594 1.602 . S
C1215 C215 1.479 . S
C1227 C552 1.679 . S
C1254 C578 1.560 . S
C1242 C29 1.350 . S
C1281 C581 1.393 . S
C1269 C35 1.314 . S
C1296 C91 1.444 . S
C1308 C606 1.519 . S
C1323 C177 1.524 . S
C1335 C564 1.522 . S
C1350 C221 1.363 . S
C1362 C566 1.365 . S
C1389 C565 1.521 . S
C1377 C295 1.407 . S
C1416 C567 1.385 . S
C1404 C345 1.333 . S
C1431 C425 1.309 . S
C1443 C580 1.370 . S
C1470 C607 1.510 . S
C1458 C487 1.483 . S
