# Generated by pormake.
# Topology sqc, (4,8)-cn, num edge types: 1
# Building blocks:
#     Node 0, Type 0, BuildingBlock: NAWXER_clean_linker_0, # of connection points: 4
#     Node 1, Type 0, BuildingBlock: NAWXER_clean_linker_0, # of connection points: 4
#     Node 2, Type 0, BuildingBlock: NAWXER_clean_linker_0, # of connection points: 4
#     Node 3, Type 0, BuildingBlock: NAWXER_clean_linker_0, # of connection points: 4
#     Node 4, Type 0, BuildingBlock: NAWXER_clean_linker_0, # of connection points: 4
#     Node 5, Type 0, BuildingBlock: NAWXER_clean_linker_0, # of connection points: 4
#     Node 6, Type 0, BuildingBlock: NAWXER_clean_linker_0, # of connection points: 4
#     Node 7, Type 0, BuildingBlock: NAWXER_clean_linker_0, # of connection points: 4
#     Node 8, Type 1, BuildingBlock: VETTIZ_charged_sbu_0, # of connection points: 8
#     Node 9, Type 1, BuildingBlock: VETTIZ_charged_sbu_0, # of connection points: 8
#     Node 10, Type 1, BuildingBlock: VETTIZ_charged_sbu_0, # of connection points: 8
#     Node 11, Type 1, BuildingBlock: VETTIZ_charged_sbu_0, # of connection points: 8
#     Edge 12, Type (0, 1), BuildingBlock: AJUNOK_clean_linker_0, # of connection points: 2
#     Edge 13, Type (0, 1), BuildingBlock: AJUNOK_clean_linker_0, # of connection points: 2
#     Edge 14, Type (0, 1), BuildingBlock: AJUNOK_clean_linker_0, # of connection points: 2
#     Edge 15, Type (0, 1), BuildingBlock: AJUNOK_clean_linker_0, # of connection points: 2
#     Edge 16, Type (0, 1), BuildingBlock: AJUNOK_clean_linker_0, # of connection points: 2
#     Edge 17, Type (0, 1), BuildingBlock: AJUNOK_clean_linker_0, # of connection points: 2
#     Edge 18, Type (0, 1), BuildingBlock: AJUNOK_clean_linker_0, # of connection points: 2
#     Edge 19, Type (0, 1), BuildingBlock: AJUNOK_clean_linker_0, # of connection points: 2
#     Edge 20, Type (0, 1), BuildingBlock: AJUNOK_clean_linker_0, # of connection points: 2
#     Edge 21, Type (0, 1), BuildingBlock: AJUNOK_clean_linker_0, # of connection points: 2
#     Edge 22, Type (0, 1), BuildingBlock: AJUNOK_clean_linker_0, # of connection points: 2
#     Edge 23, Type (0, 1), BuildingBlock: AJUNOK_clean_linker_0, # of connection points: 2
#     Edge 24, Type (0, 1), BuildingBlock: AJUNOK_clean_linker_0, # of connection points: 2
#     Edge 25, Type (0, 1), BuildingBlock: AJUNOK_clean_linker_0, # of connection points: 2
#     Edge 26, Type (0, 1), BuildingBlock: AJUNOK_clean_linker_0, # of connection points: 2
#     Edge 27, Type (0, 1), BuildingBlock: AJUNOK_clean_linker_0, # of connection points: 2
#     Edge 28, Type (0, 1), BuildingBlock: AJUNOK_clean_linker_0, # of connection points: 2
#     Edge 29, Type (0, 1), BuildingBlock: AJUNOK_clean_linker_0, # of connection points: 2
#     Edge 30, Type (0, 1), BuildingBlock: AJUNOK_clean_linker_0, # of connection points: 2
#     Edge 31, Type (0, 1), BuildingBlock: AJUNOK_clean_linker_0, # of connection points: 2
#     Edge 32, Type (0, 1), BuildingBlock: AJUNOK_clean_linker_0, # of connection points: 2
#     Edge 33, Type (0, 1), BuildingBlock: AJUNOK_clean_linker_0, # of connection points: 2
#     Edge 34, Type (0, 1), BuildingBlock: AJUNOK_clean_linker_0, # of connection points: 2
#     Edge 35, Type (0, 1), BuildingBlock: AJUNOK_clean_linker_0, # of connection points: 2
#     Edge 36, Type (0, 1), BuildingBlock: AJUNOK_clean_linker_0, # of connection points: 2
#     Edge 37, Type (0, 1), BuildingBlock: AJUNOK_clean_linker_0, # of connection points: 2
#     Edge 38, Type (0, 1), BuildingBlock: AJUNOK_clean_linker_0, # of connection points: 2
#     Edge 39, Type (0, 1), BuildingBlock: AJUNOK_clean_linker_0, # of connection points: 2
#     Edge 40, Type (0, 1), BuildingBlock: AJUNOK_clean_linker_0, # of connection points: 2
#     Edge 41, Type (0, 1), BuildingBlock: AJUNOK_clean_linker_0, # of connection points: 2
#     Edge 42, Type (0, 1), BuildingBlock: AJUNOK_clean_linker_0, # of connection points: 2
#     Edge 43, Type (0, 1), BuildingBlock: AJUNOK_clean_linker_0, # of connection points: 2
# Relax obj value: 0.124
# Max RMSD: 0.266
# Mean RMSD: 0.155
data_MOF--net-sqc--node1-VETTIZ_charged_sbu_0--node2-NAWXER_clean_linker_0--edge1-AJUNOK_clean_linker_0
_symmetry_space_group_name_H-M    P1
_symmetry_Int_Tables_number       1
_symmetry_cell_setting            triclinic
loop_
_symmetry_equiv_pos_as_xyz
'x, y, z'
_cell_length_a     21.95628
_cell_length_b     21.987697
_cell_length_c     66.621099
_cell_angle_alpha  89.821114
_cell_angle_beta   89.846719
_cell_angle_gamma 88.906283
loop_
_atom_site_label
_atom_site_type_symbol
_atom_site_fract_x
_atom_site_fract_y
_atom_site_fract_z
_atom_type_partial_charge
C0 C 0.23497 1.01219 0.47454 0.0
C1 C 0.24685 0.95441 0.46639 0.0
C2 C 0.18625 0.02134 0.48779 0.0
C3 C 0.14886 0.97274 0.49328 0.0
C4 C 0.21059 0.90542 0.47239 0.0
C5 C 0.16157 0.91469 0.48553 0.0
C6 C 0.09296 0.98408 0.50525 0.0
C7 C 0.24344 1.00798 0.55051 0.0
C8 C 0.2526 0.06875 0.5559 0.0
C9 C 0.19239 0.99233 0.53917 0.0
C10 C 0.14916 0.03708 0.5334 0.0
C11 C 0.21003 0.11358 0.54983 0.0
C12 C 0.15841 0.09779 0.53889 0.0
C13 C 0.09263 0.02024 0.52274 0.0
C14 C 0.82951 0.03692 0.54742 0.0
C15 C 0.8175 0.09986 0.54565 0.0
C16 C 0.88376 1.01135 0.53991 0.0
C17 C 0.9274 0.04849 0.53094 0.0
C18 C 0.86109 0.13643 0.5362 0.0
C19 C 0.91586 0.11114 0.52923 0.0
C20 C 0.98405 0.02243 0.52239 0.0
C21 C 0.82899 0.98965 0.48081 0.0
C22 C 0.81891 0.92821 0.47628 0.0
C23 C 0.88287 1.00733 0.48993 0.0
C24 C 0.92724 0.96389 0.49566 0.0
C25 C 0.86393 0.88464 0.4816 0.0
C26 C 0.91753 0.90237 0.49124 0.0
C27 C 0.9842 0.9829 0.50571 0.0
H28 H 0.26201 0.05072 0.47013 0.0
H29 H 0.17638 0.06699 0.4931 0.0
H30 H 0.21969 0.85999 0.46674 0.0
H31 H 0.13321 0.87665 0.48947 0.0
H32 H 0.27543 0.97269 0.55523 0.0
H33 H 0.18576 0.94504 0.5354 0.0
H34 H 0.21595 0.16066 0.55404 0.0
H35 H 0.12559 0.13299 0.53472 0.0
H36 H 0.79808 1.00763 0.55519 0.0
H37 H 0.89209 0.96281 0.54136 0.0
H38 H 0.85324 0.18494 0.53446 0.0
H39 H 0.9488 0.14032 0.52209 0.0
H40 H 0.79557 0.02456 0.47691 0.0
H41 H 0.89004 0.05535 0.49221 0.0
H42 H 0.85868 0.8372 0.4778 0.0
H43 H 0.95154 0.86806 0.49517 0.0
N44 N 0.03882 0.96565 0.49763 0.0
N45 N 0.03808 0.03916 0.53041 0.0
C46 C 0.35357 0.56168 0.7487 0.0
C47 C 0.34911 0.55536 0.72779 0.0
C48 C 0.33701 0.61673 0.75788 0.0
C49 C 0.31404 0.6658 0.74636 0.0
C50 C 0.32906 0.60555 0.71626 0.0
C51 C 0.31171 0.6601 0.72544 0.0
C52 C 0.29307 0.72348 0.75585 0.0
C53 C 0.17206 0.57694 0.77732 0.0
C54 C 0.17994 0.56223 0.79768 0.0
C55 C 0.19548 0.63086 0.76952 0.0
C56 C 0.22798 0.6707 0.78185 0.0
C57 C 0.21071 0.60316 0.81012 0.0
C58 C 0.23416 0.65702 0.80231 0.0
C59 C 0.25662 0.72568 0.7733 0.0
C60 C 0.21899 0.99857 0.7874 0.0
C61 C 0.21679 0.99554 0.80851 0.0
C62 C 0.23331 0.94688 0.77598 0.0
C63 C 0.25003 0.89149 0.78531 0.0
C64 C 0.2333 0.94015 0.81783 0.0
C65 C 0.25015 0.88923 0.80642 0.0
C66 C 0.2639 0.83438 0.77386 0.0
C67 C 0.37755 0.97079 0.73615 0.0
C68 C 0.34584 0.98249 0.71819 0.0
C69 C 0.36045 0.92272 0.74871 0.0
C70 C 0.312 0.88557 0.74326 0.0
C71 C 0.29699 0.9457 0.71295 0.0
C72 C 0.28078 0.89709 0.72524 0.0
C73 C 0.29554 0.83194 0.75526 0.0
H74 H 0.36844 0.52381 0.75802 0.0
H75 H 0.34146 0.6206 0.774 0.0
H76 H 0.32618 0.60242 0.70007 0.0
H77 H 0.29521 0.69748 0.71618 0.0
H78 H 0.14877 0.54632 0.76736 0.0
H79 H 0.18899 0.64103 0.75374 0.0
H80 H 0.21659 0.59348 0.82596 0.0
H81 H 0.25846 0.68725 0.81214 0.0
H82 H 0.20839 0.0406 0.77956 0.0
H83 H 0.22889 0.95063 0.75991 0.0
H84 H 0.23147 0.93533 0.834 0.0
H85 H 0.26226 0.84743 0.81423 0.0
H86 H 0.41545 0.99877 0.74041 0.0
H87 H 0.38548 0.91393 0.76244 0.0
H88 H 0.27225 0.95381 0.69912 0.0
H89 H 0.24367 0.86841 0.72072 0.0
N90 N 0.30946 0.77671 0.74722 0.0
N91 N 0.24503 0.78075 0.78195 0.0
C92 C 0.33843 0.0524 0.96911 0.0
C93 C 0.31604 0.11279 0.96825 0.0
C94 C 0.38779 0.03653 0.98145 0.0
C95 C 0.41625 0.0807 0.99316 0.0
C96 C 0.34429 0.15677 0.98025 0.0
C97 C 0.39442 0.14103 0.99232 0.0
C98 C 0.46894 0.06395 0.00612 0.0
C99 C 0.3045 0.99679 0.03997 0.0
C100 C 0.30223 0.933 0.04105 0.0
C101 C 0.35671 0.02511 0.03279 0.0
C102 C 0.4076 0.99013 0.02669 0.0
C103 C 0.35204 0.89824 0.0338 0.0
C104 C 0.4045 0.92657 0.0269 0.0
C105 C 0.46535 0.0195 0.02136 0.0
C106 C 0.7106 0.04203 0.06218 0.0
C107 C 0.73006 0.98089 0.06358 0.0
C108 C 0.65845 0.05824 0.0511 0.0
C109 C 0.62425 0.01356 0.04138 0.0
C110 C 0.69564 0.93632 0.05391 0.0
C111 C 0.64285 0.95236 0.04319 0.0
C112 C 0.57108 0.03074 0.02854 0.0
C113 C 0.73718 0.0772 0.99352 0.0
C114 C 0.74166 0.13798 0.98744 0.0
C115 C 0.68354 0.05658 1.00213 0.0
C116 C 0.63402 0.09684 0.00545 0.0
C117 C 0.69251 0.17852 0.99075 0.0
C118 C 0.63909 0.1581 0.99979 0.0
C119 C 0.57514 0.07362 0.01274 0.0
H120 H 0.31825 0.01739 0.96002 0.0
H121 H 0.40423 0.98976 0.9817 0.0
H122 H 0.32726 0.2033 0.98054 0.0
H123 H 0.41542 0.17577 1.00132 0.0
H124 H 0.26766 0.02487 0.04591 0.0
H125 H 0.3585 0.07431 0.03296 0.0
H126 H 0.35153 0.84901 0.0344 0.0
H127 H 0.44322 0.89885 0.02216 0.0
H128 H 0.7362 0.07736 0.06943 0.0
H129 H 0.64496 0.10578 0.05001 0.0
H130 H 0.70938 0.88886 0.05476 0.0
H131 H 0.61753 0.9171 0.03579 0.0
H132 H 0.7738 0.04478 0.99045 0.0
H133 H 0.68 1.00847 0.00529 0.0
H134 H 0.69483 0.22539 0.98577 0.0
H135 H 0.60115 0.18972 1.00186 0.0
N136 N 0.52381 0.0892 1.00231 0.0
N137 N 0.51637 1.00459 0.03207 0.0
C138 C 0.22995 0.04519 0.24428 0.0
C139 C 0.17342 0.03713 0.23497 0.0
C140 C 0.24429 0.10094 0.25267 0.0
C141 C 0.2009 0.14875 0.2533 0.0
C142 C 0.12959 0.08455 0.23571 0.0
C143 C 0.14323 0.1399 0.24484 0.0
C144 C 0.21743 0.20919 0.26121 0.0
C145 C 0.24427 0.07219 0.31056 0.0
C146 C 0.30542 0.06334 0.31605 0.0
C147 C 0.2266 0.1229 0.29896 0.0
C148 C 0.27006 0.16505 0.29241 0.0
C149 C 0.3484 0.10636 0.31012 0.0
C150 C 0.3309 0.15679 0.29847 0.0
C151 C 0.25332 0.21639 0.27866 0.0
C152 C 0.27524 0.48566 0.28863 0.0
C153 C 0.33699 0.48662 0.29401 0.0
C154 C 0.25072 0.43314 0.28027 0.0
C155 C 0.28783 0.38116 0.27711 0.0
C156 C 0.37458 0.43589 0.2897 0.0
C157 C 0.35016 0.38357 0.28144 0.0
C158 C 0.26166 0.32239 0.2712 0.0
C159 C 0.24067 0.44732 0.21778 0.0
C160 C 0.17963 0.46521 0.21441 0.0
C161 C 0.25504 0.39876 0.2307 0.0
C162 C 0.20871 0.36688 0.2405 0.0
C163 C 0.1334 0.43316 0.22436 0.0
C164 C 0.14779 0.38401 0.23703 0.0
C165 C 0.22364 0.31574 0.25434 0.0
H166 H 0.26424 1.00912 0.24434 0.0
H167 H 0.2901 0.10687 0.25818 0.0
H168 H 0.08577 0.07979 0.22851 0.0
H169 H 0.10926 0.17629 0.24486 0.0
H170 H 0.21028 0.04001 0.31527 0.0
H171 H 0.17914 0.12877 0.29488 0.0
H172 H 0.39574 0.10063 0.31441 0.0
H173 H 0.36528 0.18854 0.29375 0.0
H174 H 0.24516 0.52375 0.29219 0.0
H175 H 0.20225 0.43202 0.27738 0.0
H176 H 0.4223 0.43552 0.29383 0.0
H177 H 0.37961 0.34411 0.27909 0.0
H178 H 0.27742 0.47059 0.21031 0.0
H179 H 0.3024 0.38588 0.23296 0.0
H180 H 0.08602 0.44665 0.22266 0.0
H181 H 0.11135 0.36024 0.24451 0.0
N182 N 0.20313 0.25932 0.24994 0.0
N183 N 0.2748 0.27262 0.28273 0.0
C184 C 0.85565 0.07162 0.23332 0.0
C185 C 0.83302 0.06744 0.21369 0.0
C186 C 0.83785 0.12014 0.24568 0.0
C187 C 0.79764 0.16567 0.23853 0.0
C188 C 0.79261 0.11271 0.20655 0.0
C189 C 0.77569 0.16193 0.2188 0.0
C190 C 0.77979 0.21788 0.25146 0.0
C191 C 0.67953 0.05621 0.27351 0.0
C192 C 0.69335 0.03817 0.29323 0.0
C193 C 0.69868 0.11238 0.2662 0.0
C194 C 0.73327 0.15104 0.2783 0.0
C195 C 0.72753 0.07714 0.30536 0.0
C196 C 0.74708 0.13307 0.29799 0.0
C197 C 0.75351 0.21085 0.27069 0.0
C198 C 0.68847 0.46864 0.29406 0.0
C199 C 0.70942 0.47093 0.31398 0.0
C200 C 0.70438 0.4196 0.28161 0.0
C201 C 0.74152 0.37148 0.28876 0.0
C202 C 0.74689 0.42277 0.32106 0.0
C203 C 0.7624 0.37346 0.30864 0.0
C204 C 0.75702 0.31845 0.27575 0.0
C205 C 0.86081 0.47455 0.24757 0.0
C206 C 0.83812 0.49066 0.22853 0.0
C207 C 0.84087 0.42173 0.25714 0.0
C208 C 0.7983 0.38444 0.24773 0.0
C209 C 0.79374 0.45431 0.21962 0.0
C210 C 0.77452 0.40143 0.22903 0.0
C211 C 0.78183 0.32518 0.25632 0.0
H212 H 0.88706 0.03723 0.23907 0.0
H213 H 0.85601 0.12251 0.26076 0.0
H214 H 0.77497 0.11043 0.1914 0.0
H215 H 0.74491 0.19674 0.21296 0.0
H216 H 0.65357 0.02713 0.26378 0.0
H217 H 0.68567 0.12585 0.25114 0.0
H218 H 0.73803 0.06496 0.32076 0.0
H219 H 0.7731 0.16227 0.30768 0.0
H220 H 0.65778 0.50356 0.28827 0.0
H221 H 0.68626 0.41854 0.26651 0.0
H222 H 0.76366 0.42286 0.33634 0.0
H223 H 0.79088 0.33685 0.31454 0.0
H224 H 0.89569 0.50122 0.25463 0.0
H225 H 0.86038 0.40875 0.27148 0.0
H226 H 0.77492 0.46604 0.20507 0.0
H227 H 0.74162 0.37323 0.22157 0.0
N228 N 0.79229 0.27481 0.24494 0.0
N229 N 0.74376 0.26133 0.28224 0.0
C230 C 0.6626 0.9715 0.74975 0.0
C231 C 0.67217 0.97887 0.72905 0.0
C232 C 0.67721 0.91611 0.75911 0.0
C233 C 0.70342 0.8678 0.74804 0.0
C234 C 0.6953 0.92938 0.71786 0.0
C235 C 0.71079 0.87452 0.72725 0.0
C236 C 0.72293 0.81003 0.75785 0.0
C237 C 0.8389 0.95556 0.78257 0.0
C238 C 0.83316 0.96571 0.80323 0.0
C239 C 0.8139 0.90379 0.77393 0.0
C240 C 0.78098 0.86219 0.7857 0.0
C241 C 0.80166 0.92357 0.81509 0.0
C242 C 0.77572 0.87234 0.80641 0.0
C243 C 0.7537 0.80752 0.77646 0.0
C244 C 0.81838 0.54752 0.79186 0.0
C245 C 0.78688 0.53511 0.80985 0.0
C246 C 0.80418 0.59963 0.7805 0.0
C247 C 0.7589 0.64093 0.78704 0.0
C248 C 0.73973 0.57556 0.8158 0.0
C249 C 0.72642 0.62818 0.80465 0.0
C250 C 0.7474 0.699 0.77627 0.0
C251 C 0.65928 0.55428 0.73718 0.0
C252 C 0.68651 0.55104 0.71807 0.0
C253 C 0.67262 0.60205 0.75021 0.0
C254 C 0.71288 0.64748 0.74418 0.0
C255 C 0.72734 0.5961 0.71222 0.0
C256 C 0.74002 0.64411 0.7251 0.0
C257 C 0.72338 0.70164 0.75666 0.0
H258 H 0.64524 1.00882 0.7588 0.0
H259 H 0.66896 0.91145 0.77507 0.0
H260 H 0.70205 0.93331 0.7018 0.0
H261 H 0.7299 0.83775 0.7183 0.0
H262 H 0.86439 0.98658 0.77325 0.0
H263 H 0.82089 0.89601 0.75804 0.0
H264 H 0.79757 0.93016 0.83115 0.0
H265 H 0.7514 0.84075 0.81586 0.0
H266 H 0.85608 0.51874 0.78702 0.0
H267 H 0.83019 0.60894 0.76703 0.0
H268 H 0.71419 0.56746 0.82945 0.0
H269 H 0.69115 0.65941 0.80991 0.0
H270 H 0.62745 0.52003 0.74195 0.0
H271 H 0.65025 0.60444 0.76471 0.0
H272 H 0.74822 0.595 0.69747 0.0
H273 H 0.7707 0.67911 0.72009 0.0
N274 N 0.71094 0.757 0.7484 0.0
N275 N 0.76286 0.75207 0.78532 0.0
C276 C 0.69788 0.50705 0.96789 0.0
C277 C 0.7154 0.44588 0.96494 0.0
C278 C 0.64896 0.5223 0.98054 0.0
C279 C 0.61676 0.47675 0.99063 0.0
C280 C 0.6832 0.40037 0.97516 0.0
C281 C 0.63398 0.41566 0.98769 0.0
C282 C 0.56372 0.49256 1.00357 0.0
C283 C 0.72154 0.55123 0.04354 0.0
C284 C 0.73099 0.6138 0.04077 0.0
C285 C 0.66922 0.52434 0.03602 0.0
C286 C 0.62542 0.55978 0.02586 0.0
C287 C 0.68902 0.64795 0.02921 0.0
C288 C 0.63599 0.62139 0.02217 0.0
C289 C 0.56749 0.53315 0.0198 0.0
C290 C 0.31695 0.51011 0.0578 0.0
C291 C 0.3009 0.57156 0.06082 0.0
C292 C 0.36969 0.49412 0.04695 0.0
C293 C 0.40776 0.53929 0.03913 0.0
C294 C 0.33985 0.61659 0.05344 0.0
C295 C 0.39297 0.60061 0.04286 0.0
C296 C 0.46128 0.52304 0.02628 0.0
C297 C 0.29703 0.49118 0.98892 0.0
C298 C 0.29083 0.43222 0.9813 0.0
C299 C 0.3505 0.50772 0.99842 0.0
C300 C 0.39815 0.46501 1.00118 0.0
C301 C 0.33836 0.38928 0.98406 0.0
C302 C 0.3916 0.40559 0.99397 0.0
C303 C 0.45702 0.48425 0.00945 0.0
H304 H 0.72133 0.54313 0.96013 0.0
H305 H 0.63556 0.56969 0.98213 0.0
H306 H 0.69635 0.35289 0.97361 0.0
H307 H 0.60971 0.37977 0.99527 0.0
H308 H 0.75286 0.52378 0.05244 0.0
H309 H 0.66167 0.47652 0.03886 0.0
H310 H 0.69596 0.69582 0.02631 0.0
H311 H 0.60286 0.64904 0.01406 0.0
H312 H 0.28816 0.47455 0.06354 0.0
H313 H 0.38047 0.44644 0.0445 0.0
H314 H 0.32927 0.6643 0.05595 0.0
H315 H 0.42159 0.63626 0.03708 0.0
H316 H 0.26126 0.52526 0.9869 0.0
H317 H 0.35525 0.55466 1.0029 0.0
H318 H 0.33552 0.34398 0.97783 0.0
H319 H 0.42831 0.37229 0.99554 0.0
N320 N 0.5085 0.46972 0.99894 0.0
N321 N 0.51644 0.54676 0.03067 0.0
C322 C 0.79747 0.53539 0.55504 0.0
C323 C 0.78771 0.47386 0.55938 0.0
C324 C 0.84822 0.55251 0.54368 0.0
C325 C 0.89058 0.50845 0.53675 0.0
C326 C 0.82945 0.42976 0.55221 0.0
C327 C 0.88082 0.44695 0.54122 0.0
C328 C 0.94631 0.52679 0.52571 0.0
C329 C 0.7994 0.54529 0.47991 0.0
C330 C 0.78521 0.60485 0.47358 0.0
C331 C 0.84996 0.5336 0.49206 0.0
C332 C 0.88755 0.58118 0.49814 0.0
C333 C 0.82266 0.65253 0.47977 0.0
C334 C 0.87362 0.64071 0.49183 0.0
C335 C 0.94449 0.56739 0.50923 0.0
C336 C 0.2068 0.57455 0.48256 0.0
C337 C 0.21796 0.6373 0.48227 0.0
C338 C 0.15297 0.55242 0.49079 0.0
C339 C 0.1093 0.59244 0.49916 0.0
C340 C 0.17335 0.67757 0.49005 0.0
C341 C 0.11947 0.65529 0.49842 0.0
C342 C 0.05315 0.56884 0.50864 0.0
C343 C 0.20988 0.50442 0.54808 0.0
C344 C 0.22218 0.44211 0.54483 0.0
C345 C 0.15571 0.53154 0.54115 0.0
C346 C 0.11243 0.49661 0.5312 0.0
C347 C 0.17921 0.40791 0.53429 0.0
C348 C 0.12457 0.43474 0.52778 0.0
C349 C 0.05483 0.52429 0.52395 0.0
H350 H 0.76609 0.57013 0.56055 0.0
H351 H 0.85519 0.60035 0.54072 0.0
H352 H 0.82305 0.38205 0.55557 0.0
H353 H 0.91289 0.4122 0.53615 0.0
H354 H 0.77276 0.50733 0.47487 0.0
H355 H 0.86099 0.48691 0.49607 0.0
H356 H 0.81297 0.69892 0.47509 0.0
H357 H 0.90245 0.67796 0.49609 0.0
H358 H 0.23915 0.54253 0.47599 0.0
H359 H 0.14531 0.50394 0.49047 0.0
H360 H 0.18033 0.72621 0.48975 0.0
H361 H 0.08611 0.68707 0.50458 0.0
H362 H 0.24083 0.53178 0.55667 0.0
H363 H 0.14693 0.57943 0.54394 0.0
H364 H 0.18728 0.35995 0.53144 0.0
H365 H 0.09189 0.40727 0.51993 0.0
N366 N 1.00151 0.50551 0.53214 0.0
N367 N 0.99792 0.58815 0.50162 0.0
Fe368 Fe 0.01477 0.7688 0.16141 0.0
O369 O 0.0673 0.80067 0.13951 0.0
Fe370 Fe 0.87506 0.75275 0.13911 0.0
Fe371 Fe 0.15567 0.78684 0.13989 0.0
O372 O 0.9635 0.74037 0.13882 0.0
O373 O 0.96371 0.74015 0.1367 0.0
O374 O 0.06712 0.80143 0.13737 0.0
Fe375 Fe 0.01586 0.77258 0.11449 0.0
C376 C 0.11999 0.8429 0.17958 0.0
O377 O 0.06012 0.68666 0.16125 0.0
O378 O 0.15466 0.71966 0.16211 0.0
O379 O 0.95272 0.73758 0.094 0.0
O380 O 0.8775 0.69674 0.11428 0.0
O381 O 0.88152 0.68737 0.16098 0.0
O382 O 0.95382 0.72838 0.18169 0.0
O383 O 0.15916 0.72088 0.11853 0.0
O384 O 0.06434 0.69035 0.1125 0.0
C385 C 0.91165 0.68944 0.17766 0.0
O386 O 0.96678 0.85483 0.11341 0.0
O387 O 0.872 0.82241 0.11893 0.0
O388 O 0.07496 0.80604 0.18251 0.0
O389 O 0.14948 0.84804 0.16281 0.0
C390 C 0.11583 0.67852 0.16553 0.0
C391 C 0.12219 0.68351 0.11113 0.0
C392 C 0.12998 0.84036 0.09846 0.0
O393 O 0.15502 0.84671 0.116 0.0
O394 O 0.08032 0.81052 0.09478 0.0
C395 C 0.90376 0.70595 0.09702 0.0
O396 O 0.8746 0.81673 0.16218 0.0
O397 O 0.96891 0.85054 0.16226 0.0
C398 C 0.90879 0.86126 0.11213 0.0
C399 C 0.91277 0.858 0.16618 0.0
Fe400 Fe 0.51676 0.77603 0.41138 0.0
O401 O 0.47477 0.72536 0.39123 0.0
Fe402 Fe 0.55446 0.90513 0.38547 0.0
Fe403 Fe 0.4725 0.63702 0.39427 0.0
O404 O 0.55301 0.81612 0.3875 0.0
O405 O 0.55236 0.81579 0.38545 0.0
O406 O 0.47385 0.72521 0.38919 0.0
Fe407 Fe 0.50999 0.76525 0.36491 0.0
C408 C 0.58626 0.6638 0.41903 0.0
O409 O 0.46898 0.72934 0.43421 0.0
O410 O 0.41237 0.65981 0.41677 0.0
O411 O 0.43622 0.82631 0.36323 0.0
O412 O 0.48418 0.91509 0.36562 0.0
O413 O 0.49277 0.92125 0.40898 0.0
O414 O 0.44424 0.83412 0.41065 0.0
O415 O 0.41311 0.64231 0.37036 0.0
O416 O 0.46117 0.70366 0.34706 0.0
C417 C 0.44585 0.89074 0.41344 0.0
O418 O 0.5544 0.81682 0.34262 0.0
O419 O 0.60852 0.88786 0.36069 0.0
O420 O 0.58912 0.71722 0.41212 0.0
O421 O 0.53871 0.6322 0.41673 0.0
C422 C 0.42287 0.69323 0.43232 0.0
C423 C 0.42375 0.6606 0.35211 0.0
C424 C 0.58114 0.64545 0.36467 0.0
O425 O 0.53824 0.61723 0.37331 0.0
O426 O 0.58325 0.70359 0.36413 0.0
C427 C 0.43811 0.88407 0.36097 0.0
O428 O 0.6194 0.89375 0.40716 0.0
O429 O 0.56929 0.83329 0.42982 0.0
C430 C 0.59528 0.85901 0.34431 0.0
C431 C 0.61367 0.86902 0.42473 0.0
Fe432 Fe 0.5162 0.26807 0.6609 0.0
O433 O 0.56854 0.23556 0.63881 0.0
Fe434 Fe 0.3759 0.2883 0.63861 0.0
Fe435 Fe 0.65692 0.24506 0.63901 0.0
O436 O 0.46432 0.29986 0.63857 0.0
O437 O 0.46441 0.29989 0.63647 0.0
O438 O 0.56843 0.23517 0.63673 0.0
Fe439 Fe 0.51717 0.26765 0.6141 0.0
C440 C 0.61814 0.35301 0.66542 0.0
O441 O 0.5764 0.22722 0.6817 0.0
O442 O 0.65083 0.1828 0.66189 0.0
O443 O 0.47012 0.18693 0.61265 0.0
O444 O 0.37454 0.22059 0.61766 0.0
O445 O 0.37636 0.22312 0.66133 0.0
O446 O 0.47125 0.18767 0.66137 0.0
O447 O 0.65528 0.18633 0.61501 0.0
O448 O 0.5818 0.22921 0.59408 0.0
C449 C 0.41556 0.18178 0.66572 0.0
O450 O 0.45358 0.30638 0.59379 0.0
O451 O 0.37721 0.34655 0.61428 0.0
O452 O 0.56209 0.34823 0.66126 0.0
O453 O 0.65639 0.31057 0.66131 0.0
C454 C 0.62043 0.18776 0.67857 0.0
C455 C 0.63024 0.19539 0.59757 0.0
C456 C 0.62269 0.35271 0.61125 0.0
O457 O 0.65997 0.31267 0.61792 0.0
O458 O 0.56492 0.34819 0.61285 0.0
C459 C 0.41261 0.18172 0.61078 0.0
O460 O 0.37996 0.35107 0.6612 0.0
O461 O 0.45478 0.3093 0.6814 0.0
C462 C 0.40412 0.33897 0.59702 0.0
C463 C 0.40967 0.34738 0.67799 0.0
Fe464 Fe 0.01426 0.27489 0.91203 0.0
O465 O 0.98234 0.21956 0.8912 0.0
Fe466 Fe 0.03107 0.41138 0.88794 0.0
Fe467 Fe 0.99548 0.13173 0.8933 0.0
O468 O 0.04287 0.3231 0.8887 0.0
O469 O 0.04302 0.3226 0.88665 0.0
O470 O 0.98062 0.21987 0.88914 0.0
Fe471 Fe 1.00936 0.26818 0.86541 0.0
C472 C 0.10447 0.17528 0.91812 0.0
O473 O 0.97804 0.2186 0.93426 0.0
O474 O 0.93376 0.14198 0.91633 0.0
O475 O 0.92765 0.31764 0.86407 0.0
O476 O 0.96176 0.41246 0.86763 0.0
O477 O 0.96652 0.41453 0.91105 0.0
O478 O 0.93225 0.32039 0.91215 0.0
O479 O 0.93454 0.12931 0.86996 0.0
O480 O 0.96944 0.20066 0.84704 0.0
C481 C 0.92504 0.37679 0.91541 0.0
O482 O 0.04626 0.32891 0.84394 0.0
O483 O 0.08792 0.40543 0.86335 0.0
O484 O 0.09652 0.22996 0.91259 0.0
O485 O 0.06355 0.13589 0.91515 0.0
C486 C 0.93861 0.17592 0.93208 0.0
C487 C 0.93974 0.15151 0.85193 0.0
C488 C 0.09755 0.16163 0.86304 0.0
O489 O 0.06097 0.12516 0.87138 0.0
O490 O 0.091 0.21934 0.86406 0.0
C491 C 0.92185 0.3753 0.86184 0.0
O492 O 0.0961 0.40748 0.91005 0.0
O493 O 0.05341 0.33768 0.93125 0.0
C494 C 0.08062 0.37636 0.84656 0.0
C495 C 0.09305 0.3789 0.92707 0.0
C496 C 0.35495 0.96735 0.45477 0.0
C497 C 0.29601 0.94535 0.45128 0.0
C498 C 0.40324 0.95389 0.44151 0.0
C499 C 0.39389 0.91794 0.42444 0.0
H500 H 0.36442 0.99267 0.46829 0.0
H501 H 0.44866 0.96836 0.4453 0.0
S502 S 0.24662 0.85846 0.40675 0.0
N503 N 0.22979 0.89314 0.42805 0.0
N504 N 0.32058 0.86663 0.40351 0.0
C505 C 0.33453 0.89922 0.42014 0.0
C506 C 0.28557 0.91317 0.43347 0.0
C507 C 0.324 0.08138 0.70082 0.0
C508 C 0.36415 0.0322 0.70458 0.0
C509 C 0.34038 0.12884 0.68787 0.0
C510 C 0.39738 0.12857 0.67808 0.0
H511 H 0.27993 0.08353 0.70817 0.0
H512 H 0.30846 0.1665 0.68584 0.0
S513 S 0.51586 1.00574 0.68146 0.0
N514 N 0.46117 0.98338 0.6967 0.0
N515 N 0.49214 0.07162 0.67208 0.0
C516 C 0.43705 0.07817 0.68127 0.0
C517 C 0.42041 0.03026 0.6946 0.0
C518 C 0.2126 0.09093 0.95385 0.0
C519 C 0.2632 0.12931 0.95499 0.0
C520 C 0.1623 0.10533 0.9416 0.0
C521 C 0.16011 0.15894 0.92998 0.0
H522 H 0.21126 0.04976 0.9628 0.0
H523 H 0.12428 0.07466 0.94159 0.0
S524 S 0.28221 0.27353 0.92665 0.0
N525 N 0.30901 0.22202 0.94257 0.0
N526 N 0.21446 0.24971 0.91992 0.0
C527 C 0.2108 0.19739 0.93076 0.0
C528 C 0.26214 0.18254 0.94317 0.0
C529 C 0.10746 0.9514 0.2237 0.0
C530 C 0.16295 0.98231 0.22261 0.0
C531 C 0.09501 0.90332 0.21058 0.0
C532 C 0.1375 0.88498 0.19583 0.0
H533 H 0.0728 0.96555 0.2344 0.0
H534 H 0.05063 0.88272 0.21132 0.0
S535 S 0.29167 0.94803 0.1879 0.0
N536 N 0.26163 0.98937 0.20613 0.0
N537 N 0.23966 0.8978 0.18226 0.0
C538 C 0.1945 0.91337 0.1954 0.0
C539 C 0.20682 0.96241 0.20856 0.0
C540 C 0.30221 0.07099 0.58958 0.0
C541 C 0.30392 0.08568 0.56903 0.0
C542 C 0.34283 0.09735 0.60314 0.0
C543 C 0.38752 0.13782 0.5965 0.0
H544 H 0.26643 0.04254 0.5954 0.0
H545 H 0.33657 0.08938 0.61907 0.0
S546 S 0.41387 0.1868 0.54398 0.0
N547 N 0.35575 0.14037 0.54253 0.0
N548 N 0.4334 0.18823 0.56791 0.0
C549 C 0.39248 0.14914 0.5758 0.0
C550 C 0.35026 0.12354 0.56208 0.0
C551 C 0.2179 0.05928 0.84003 0.0
C552 C 0.19321 0.04785 0.82086 0.0
C553 C 0.19002 0.10097 0.85331 0.0
C554 C 0.13786 0.13455 0.84763 0.0
H555 H 0.25752 0.03376 0.84522 0.0
H556 H 0.20747 0.10464 0.86845 0.0
S557 S 0.05606 0.12517 0.79922 0.0
N558 N 0.11273 0.0752 0.79714 0.0
N559 N 0.06431 0.15667 0.82146 0.0
C560 C 0.11522 0.12701 0.82814 0.0
C561 C 0.14198 0.08311 0.81488 0.0
C562 C 0.27194 0.86172 0.06805 0.0
C563 C 0.25399 0.90335 0.05305 0.0
C564 C 0.23022 0.83993 0.08198 0.0
C565 C 0.16872 0.85866 0.08153 0.0
H566 H 0.31935 0.8482 0.06979 0.0
H567 H 0.24678 0.80947 0.09366 0.0
S568 S 0.09624 0.96041 0.04386 0.0
N569 N 0.16898 0.95792 0.03735 0.0
N570 N 0.09008 0.91629 0.06388 0.0
C571 C 0.14885 0.897 0.06594 0.0
C572 C 0.19171 0.91978 0.05167 0.0
C573 C 0.34342 0.95537 0.31976 0.0
C574 C 0.32513 1.01086 0.32863 0.0
C575 C 0.37409 0.90986 0.33102 0.0
C576 C 0.38769 0.91893 0.35141 0.0
H577 H 0.33746 0.94876 0.30378 0.0
H578 H 0.39184 0.86993 0.32333 0.0
S579 S 0.34337 0.05347 0.38195 0.0
N580 N 0.31749 0.06974 0.35926 0.0
N581 N 0.37575 0.98527 0.38027 0.0
C582 C 0.36569 0.97248 0.36063 0.0
C583 C 0.33435 0.0183 0.34927 0.0
C584 C 0.77232 0.18186 0.56704 0.0
C585 C 0.7638 0.12869 0.55576 0.0
C586 C 0.72605 0.20582 0.57918 0.0
C587 C 0.66946 0.17758 0.58067 0.0
H588 H 0.81628 0.20334 0.5675 0.0
H589 H 0.73589 0.24488 0.58845 0.0
S590 S 0.61997 0.04301 0.55233 0.0
N591 N 0.69117 0.05284 0.54506 0.0
N592 N 0.60455 0.09754 0.56871 0.0
C593 C 0.65837 0.12695 0.56865 0.0
C594 C 0.70558 0.10247 0.55603 0.0
C595 C 0.70804 0.94328 0.31363 0.0
C596 C 0.66962 0.98077 0.30184 0.0
C597 C 0.6843 0.89702 0.32567 0.0
C598 C 0.62148 0.88607 0.32611 0.0
H599 H 0.75627 0.95237 0.31458 0.0
H600 H 0.71456 0.8731 0.33595 0.0
S601 S 0.5022 0.96668 0.29654 0.0
N602 N 0.56608 1.00027 0.29016 0.0
N603 N 0.52203 0.91222 0.31249 0.0
C604 C 0.5834 0.91907 0.31297 0.0
C605 C 0.60734 0.96682 0.30089 0.0
C606 C 0.83092 0.92541 0.06689 0.0
C607 C 0.78497 0.96264 0.07552 0.0
C608 C 0.87782 0.89935 0.07865 0.0
C609 C 0.88012 0.90901 0.0995 0.0
H610 H 0.8288 0.91382 0.05112 0.0
H611 H 0.90897 0.86683 0.07171 0.0
S612 S 0.77337 1.00546 0.12922 0.0
N613 N 0.74751 1.01105 0.10601 0.0
N614 N 0.83459 0.96075 0.12806 0.0
C615 C 0.83675 0.94904 0.10805 0.0
C616 C 0.78946 0.97618 0.09608 0.0
C617 C 0.91121 1.00238 0.8268 0.0
C618 C 0.86515 0.01641 0.81294 0.0
C619 C 0.93807 0.04792 0.8381 0.0
C620 C 0.91951 0.10934 0.8362 0.0
H621 H 0.92532 0.9555 0.82937 0.0
H622 H 0.97197 0.03452 0.84915 0.0
S623 S 0.80464 0.17058 0.80056 0.0
N624 N 0.8054 0.09636 0.79653 0.0
N625 N 0.85557 0.18249 0.8183 0.0
C626 C 0.87615 0.1247 0.82153 0.0
C627 C 0.8489 0.07798 0.80979 0.0
C628 C 0.74732 0.94895 0.44796 0.0
C629 C 0.7643 0.91174 0.46429 0.0
C630 C 0.69739 0.93558 0.43597 0.0
C631 C 0.66198 0.88384 0.43947 0.0
H632 H 0.77368 0.98843 0.44405 0.0
H633 H 0.68722 0.96603 0.42356 0.0
S634 S 0.68572 0.77175 0.48062 0.0
N635 N 0.74028 0.82153 0.48385 0.0
N636 N 0.6469 0.79525 0.46076 0.0
C637 C 0.67763 0.84631 0.45591 0.0
C638 C 0.7288 0.86027 0.46833 0.0
C639 C 0.81195 0.97139 0.19498 0.0
C640 C 0.85299 0.01648 0.20059 0.0
C641 C 0.83132 0.92091 0.18356 0.0
C642 C 0.89239 0.91395 0.17717 0.0
H643 H 0.76489 0.97448 0.19986 0.0
H644 H 0.79824 0.88669 0.18 0.0
S645 S 0.01561 0.02455 0.18621 0.0
N646 N 0.95574 0.05395 0.19796 0.0
N647 N 0.99247 0.96048 0.17616 0.0
C648 C 0.93319 0.96055 0.1821 0.0
C649 C 0.91343 1.01138 0.19391 0.0
C650 C 0.78201 0.17288 0.95478 0.0
C651 C 0.7934 0.15566 0.97474 0.0
C652 C 0.82988 0.17972 0.94118 0.0
C653 C 0.8906 0.17103 0.94722 0.0
H654 H 0.73567 0.17822 0.94939 0.0
H655 H 0.81934 0.19105 0.92572 0.0
S656 S 0.94473 0.12949 0.99807 0.0
N657 N 0.86966 0.13187 1.00012 0.0
N658 N 0.96023 0.14747 0.97452 0.0
C659 C 0.90297 0.15659 0.96731 0.0
C660 C 0.85407 0.14812 0.9811 0.0
C661 C 0.70401 0.05976 0.70524 0.0
C662 C 0.6605 0.0381 0.71886 0.0
C663 C 0.69187 0.11066 0.69325 0.0
C664 C 0.63572 0.14245 0.6944 0.0
H665 H 0.74734 0.03601 0.70337 0.0
H666 H 0.72624 0.1238 0.68246 0.0
S667 S 0.50953 0.10953 0.72979 0.0
N668 N 0.56116 0.05564 0.7343 0.0
N669 N 0.53867 0.15265 0.71198 0.0
C670 C 0.59354 0.12433 0.70912 0.0
C671 C 0.60583 0.07181 0.72129 0.0
C672 C 0.82224 0.46172 0.95238 0.0
C673 C 0.7673 0.42976 0.95132 0.0
C674 C 0.87245 0.44588 0.94021 0.0
C675 C 0.86979 0.39719 0.9266 0.0
H676 H 0.82706 0.49833 0.96307 0.0
H677 H 0.91427 0.47066 0.94197 0.0
S678 S 0.73426 0.30421 0.9161 0.0
N679 N 0.7116 0.35107 0.93405 0.0
N680 N 0.80607 0.32058 0.91154 0.0
C681 C 0.81452 0.36625 0.9249 0.0
C682 C 0.76334 0.38264 0.93716 0.0
C683 C 0.87933 0.53252 0.19674 0.0
C684 C 0.86332 0.54205 0.21694 0.0
C685 C 0.89679 0.58062 0.18448 0.0
C686 C 0.90006 0.64003 0.19198 0.0
H687 H 0.87703 0.48758 0.19018 0.0
H688 H 0.90687 0.57136 0.16883 0.0
S689 S 0.86719 0.68903 0.24407 0.0
N690 N 0.85442 0.61518 0.2442 0.0
N691 N 0.88941 0.70587 0.22102 0.0
C692 C 0.88759 0.65007 0.21238 0.0
C693 C 0.86877 0.60093 0.22492 0.0
C694 C 0.74256 0.65421 0.44269 0.0
C695 C 0.73377 0.61679 0.45956 0.0
C696 C 0.69506 0.66703 0.4293 0.0
C697 C 0.63683 0.64261 0.43209 0.0
H698 H 0.78659 0.67392 0.4398 0.0
H699 H 0.70391 0.69706 0.41674 0.0
S700 S 0.58944 0.54312 0.47416 0.0
N701 N 0.66195 0.55634 0.47859 0.0
N702 N 0.57284 0.57947 0.45309 0.0
C703 C 0.62754 0.6042 0.44868 0.0
C704 C 0.67592 0.59158 0.46249 0.0
C705 C 0.60978 0.49322 0.69865 0.0
C706 C 0.67081 0.50189 0.70396 0.0
C707 C 0.59356 0.44651 0.68555 0.0
C708 C 0.63769 0.40597 0.6775 0.0
H709 H 0.57424 0.52281 0.70468 0.0
H710 H 0.54575 0.44152 0.68211 0.0
S711 S 0.80477 0.41274 0.68579 0.0
N712 N 0.77607 0.46891 0.69946 0.0
N713 N 0.74601 0.38069 0.67494 0.0
C714 C 0.69931 0.41563 0.68224 0.0
C715 C 0.71574 0.46362 0.69545 0.0
C716 C 0.83855 0.61796 0.05373 0.0
C717 C 0.77958 0.64434 0.05222 0.0
C718 C 0.88148 0.64062 0.06729 0.0
C719 C 0.86642 0.69019 0.07966 0.0
H720 H 0.85066 0.57811 0.04496 0.0
H721 H 0.92513 0.61733 0.0689 0.0
S722 S 0.7204 0.7773 0.08106 0.0
N723 N 0.71 0.72422 0.06403 0.0
N724 N 0.79103 0.76719 0.08891 0.0
C725 C 0.80923 0.71891 0.07751 0.0
C726 C 0.76564 0.69594 0.06392 0.0
C727 C 0.66485 0.5034 0.34701 0.0
C728 C 0.68684 0.51969 0.32793 0.0
C729 C 0.63509 0.54594 0.3594 0.0
C730 C 0.62583 0.60691 0.35335 0.0
H731 H 0.66753 0.45653 0.35204 0.0
H732 H 0.6165 0.53003 0.37352 0.0
S733 S 0.68234 0.67536 0.30604 0.0
N734 N 0.70365 0.60302 0.30454 0.0
N735 N 0.64656 0.68284 0.32777 0.0
C736 C 0.65132 0.62504 0.33494 0.0
C737 C 0.68177 0.58147 0.32222 0.0
C738 C 0.69031 0.41821 0.56456 0.0
C739 C 0.73621 0.45514 0.57233 0.0
C740 C 0.64737 0.39108 0.57729 0.0
C741 C 0.64962 0.39927 0.5982 0.0
H742 H 0.68958 0.40777 0.54868 0.0
H743 H 0.61574 0.35924 0.57091 0.0
S744 S 0.75875 0.49407 0.62585 0.0
N745 N 0.7788 0.50162 0.60205 0.0
N746 N 0.69947 0.4489 0.62597 0.0
C747 C 0.69323 0.43859 0.60599 0.0
C748 C 0.73623 0.467 0.59304 0.0
C749 C 0.81436 0.49802 0.84432 0.0
C750 C 0.80841 0.48543 0.8237 0.0
C751 C 0.84507 0.45766 0.85725 0.0
C752 C 0.87117 0.40287 0.8502 0.0
H753 H 0.79933 0.54148 0.85034 0.0
H754 H 0.85269 0.47174 0.87261 0.0
S755 S 0.86032 0.34315 0.79844 0.0
N756 N 0.82409 0.40967 0.7975 0.0
N757 N 0.8835 0.33465 0.82188 0.0
C758 C 0.86111 0.38693 0.83011 0.0
C759 C 0.82961 0.42812 0.81683 0.0
C760 C 0.23725 0.56971 0.09221 0.0
C761 C 0.2449 0.58928 0.07224 0.0
C762 C 0.19115 0.59511 0.10448 0.0
C763 C 0.15003 0.63952 0.09702 0.0
H764 H 0.2699 0.53808 0.09885 0.0
H765 H 0.19063 0.58346 0.1203 0.0
S766 S 0.14646 0.70111 0.04521 0.0
N767 N 0.20436 0.65199 0.04513 0.0
N768 N 0.11717 0.69845 0.06805 0.0
C769 C 0.15416 0.65557 0.07665 0.0
C770 C 0.20177 0.63083 0.0643 0.0
C771 C 0.19394 0.46883 0.81881 0.0
C772 C 0.15627 0.5047 0.80625 0.0
C773 C 0.17028 0.42094 0.83013 0.0
C774 C 0.10825 0.40666 0.82916 0.0
H775 H 0.24139 0.48005 0.82076 0.0
H776 H 0.19968 0.39799 0.84091 0.0
S777 S 0.99138 0.48254 0.79734 0.0
N778 N 0.05457 0.51946 0.7924 0.0
N779 N 1.01052 0.42874 0.81362 0.0
C780 C 0.07115 0.43862 0.81545 0.0
C781 C 0.09507 0.48789 0.804 0.0
C782 C 0.26584 0.35591 0.5649 0.0
C783 C 0.27518 0.41106 0.55466 0.0
C784 C 0.31088 0.33024 0.5772 0.0
C785 C 0.36699 0.35862 0.57982 0.0
H786 H 0.222 0.33419 0.56452 0.0
H787 H 0.30028 0.28971 0.58574 0.0
S788 S 0.41875 0.49777 0.5541 0.0
N789 N 0.34848 0.48877 0.54592 0.0
N790 N 0.43266 0.44078 0.56978 0.0
C791 C 0.3791 0.41112 0.56868 0.0
C792 C 0.33319 0.43736 0.55594 0.0
C793 C 0.38255 0.51498 0.32639 0.0
C794 C 0.35956 0.53389 0.30773 0.0
C795 C 0.40253 0.55691 0.34039 0.0
C796 C 0.40081 0.61981 0.33638 0.0
H797 H 0.38437 0.46713 0.33036 0.0
H798 H 0.42021 0.5395 0.3545 0.0
S799 S 0.34584 0.69303 0.28949 0.0
N800 N 0.33625 0.61952 0.28569 0.0
N801 N 0.37546 0.69918 0.31217 0.0
C802 C 0.37884 0.63969 0.31764 0.0
C803 C 0.35743 0.59654 0.30333 0.0
C804 C 0.22009 0.45949 0.9535 0.0
C805 C 0.23768 0.41823 0.96867 0.0
C806 C 0.17203 0.4471 0.9406 0.0
C807 C 0.13948 0.39289 0.94231 0.0
H808 H 0.24472 0.50119 0.95121 0.0
H809 H 0.16102 0.48008 0.92899 0.0
S810 S 0.16669 0.2703 0.97997 0.0
N811 N 0.21808 0.32176 0.98515 0.0
N812 N 0.12773 0.29767 0.96068 0.0
C813 C 0.1558 0.35154 0.95769 0.0
C814 C 0.20508 0.36426 0.97086 0.0
C815 C 0.32212 0.47577 0.70309 0.0
C816 C 0.36269 0.49647 0.7177 0.0
C817 C 0.33632 0.42513 0.6913 0.0
C818 C 0.39181 0.39262 0.69357 0.0
H819 H 0.27951 0.50002 0.70032 0.0
H820 H 0.30408 0.41282 0.67979 0.0
S821 S 0.50933 0.42204 0.73215 0.0
N822 N 0.45778 0.47681 0.73545 0.0
N823 N 0.48404 0.3801 0.71353 0.0
C824 C 0.4307 0.40969 0.70929 0.0
C825 C 0.41629 0.46198 0.72128 0.0
C826 C 0.26956 0.70492 0.45736 0.0
C827 C 0.27414 0.66027 0.47251 0.0
C828 C 0.32003 0.71932 0.4454 0.0
C829 C 0.37694 0.69038 0.4484 0.0
H830 H 0.22586 0.726 0.45385 0.0
H831 H 0.31368 0.75073 0.43298 0.0
S832 S 0.41528 0.57696 0.48775 0.0
N833 N 0.34204 0.5923 0.49122 0.0
N834 N 0.43661 0.61945 0.46857 0.0
C835 C 0.38331 0.64903 0.46432 0.0
C836 C 0.33194 0.63401 0.47645 0.0
C837 C 0.19841 0.57166 0.20196 0.0
C838 C 0.1645 0.51793 0.20094 0.0
C839 C 0.18373 0.62266 0.19001 0.0
C840 C 0.13412 0.62232 0.17668 0.0
H841 H 0.23578 0.575 0.21246 0.0
H842 H 0.21032 0.6633 0.19173 0.0
S843 S 0.03479 0.49112 0.1666 0.0
N844 N 0.08233 0.46606 0.18405 0.0
N845 N 0.05367 0.5622 0.16213 0.0
C846 C 0.10084 0.56842 0.17509 0.0
C847 C 0.11621 0.5163 0.18708 0.0
loop_
_geom_bond_atom_site_label_1
_geom_bond_atom_site_label_2
_geom_bond_distance
_geom_bond_site_symmetry_2
_ccdc_geom_bond_type
C0 C1 1.384 . S
C0 C2 1.384 1_565 S
C0 H28 0.931 1_565 S
C1 C0 1.384 . S
C1 C4 1.382 . S
C2 C0 1.384 1_545 S
C2 C3 1.381 1_545 S
C2 H29 0.930 . S
C3 C2 1.381 1_565 S
C3 C5 1.381 . S
C3 C6 1.487 . S
C4 C1 1.382 . S
C4 C5 1.387 . S
C4 H30 0.930 . S
C5 C3 1.381 . S
C5 C4 1.387 . S
C5 H31 0.931 . S
C6 C3 1.487 . S
C6 C13 1.399 1_565 S
C6 N44 1.343 . S
C7 C8 1.384 . S
C7 C9 1.384 . S
C7 H32 0.931 . S
C8 C7 1.384 . S
C8 C11 1.382 . S
C9 C7 1.384 . S
C9 C10 1.381 . S
C9 H33 0.930 1_545 S
C10 C9 1.381 . S
C10 C12 1.381 . S
C10 C13 1.487 . S
C11 C8 1.382 . S
C11 C12 1.387 . S
C11 H34 0.930 . S
C12 C10 1.381 . S
C12 C11 1.387 . S
C12 H35 0.931 . S
C13 C6 1.399 1_545 S
C13 C10 1.487 . S
C13 N45 1.343 . S
C14 C15 1.384 . S
C14 C16 1.384 . S
C14 H36 0.931 . S
C15 C14 1.384 . S
C15 C18 1.382 . S
C16 C14 1.384 . S
C16 C17 1.381 . S
C16 H37 0.930 1_545 S
C17 C16 1.381 . S
C17 C19 1.381 . S
C17 C20 1.487 . S
C18 C15 1.382 . S
C18 C19 1.387 . S
C18 H38 0.930 . S
C19 C17 1.381 . S
C19 C18 1.387 . S
C19 H39 0.931 . S
C20 C17 1.487 . S
C20 C27 1.399 1_545 S
C20 N45 1.343 1_655 S
C21 C22 1.384 . S
C21 C23 1.384 1_565 S
C21 H40 0.931 1_565 S
C22 C21 1.384 . S
C22 C25 1.382 . S
C23 C21 1.384 1_545 S
C23 C24 1.381 1_545 S
C23 H41 0.930 . S
C24 C23 1.381 1_565 S
C24 C26 1.381 . S
C24 C27 1.487 . S
C25 C22 1.382 . S
C25 C26 1.387 . S
C25 H42 0.930 . S
C26 C24 1.381 . S
C26 C25 1.387 . S
C26 H43 0.931 . S
C27 C20 1.399 1_565 S
C27 C24 1.487 . S
C27 N44 1.343 1_655 S
H28 C0 0.931 1_545 S
H29 C2 0.930 . S
H30 C4 0.930 . S
H31 C5 0.931 . S
H32 C7 0.931 . S
H33 C9 0.930 1_565 S
H34 C11 0.930 . S
H35 C12 0.931 . S
H36 C14 0.931 . S
H37 C16 0.930 1_565 S
H38 C18 0.930 . S
H39 C19 0.931 . S
H40 C21 0.931 1_545 S
H41 C23 0.930 . S
H42 C25 0.930 . S
H43 C26 0.931 . S
N44 C6 1.343 . S
N44 C27 1.343 1_455 S
N45 C13 1.343 . S
N45 C20 1.343 1_455 S
C46 C47 1.384 . S
C46 C48 1.384 . S
C46 H74 0.931 . S
C47 C46 1.384 . S
C47 C50 1.382 . S
C48 C46 1.384 . S
C48 C49 1.381 . S
C48 H75 0.930 . S
C49 C48 1.381 . S
C49 C51 1.381 . S
C49 C52 1.487 . S
C50 C47 1.382 . S
C50 C51 1.387 . S
C50 H76 0.930 . S
C51 C49 1.381 . S
C51 C50 1.387 . S
C51 H77 0.931 . S
C52 C49 1.487 . S
C52 C59 1.399 . S
C52 N90 1.343 . S
C53 C54 1.384 . S
C53 C55 1.384 . S
C53 H78 0.931 . S
C54 C53 1.384 . S
C54 C57 1.382 . S
C55 C53 1.384 . S
C55 C56 1.381 . S
C55 H79 0.930 . S
C56 C55 1.381 . S
C56 C58 1.381 . S
C56 C59 1.487 . S
C57 C54 1.382 . S
C57 C58 1.387 . S
C57 H80 0.930 . S
C58 C56 1.381 . S
C58 C57 1.387 . S
C58 H81 0.931 . S
C59 C52 1.399 . S
C59 C56 1.487 . S
C59 N91 1.343 . S
C60 C61 1.384 . S
C60 C62 1.384 . S
C60 H82 0.931 . S
C61 C60 1.384 . S
C61 C64 1.382 . S
C62 C60 1.384 . S
C62 C63 1.381 . S
C62 H83 0.930 . S
C63 C62 1.381 . S
C63 C65 1.381 . S
C63 C66 1.487 . S
C64 C61 1.382 . S
C64 C65 1.387 . S
C64 H84 0.930 . S
C65 C63 1.381 . S
C65 C64 1.387 . S
C65 H85 0.931 . S
C66 C63 1.487 . S
C66 C73 1.399 . S
C66 N91 1.343 . S
C67 C68 1.384 . S
C67 C69 1.384 . S
C67 H86 0.931 . S
C68 C67 1.384 . S
C68 C71 1.382 . S
C69 C67 1.384 . S
C69 C70 1.381 . S
C69 H87 0.930 . S
C70 C69 1.381 . S
C70 C72 1.381 . S
C70 C73 1.487 . S
C71 C68 1.382 . S
C71 C72 1.387 . S
C71 H88 0.930 . S
C72 C70 1.381 . S
C72 C71 1.387 . S
C72 H89 0.931 . S
C73 C66 1.399 . S
C73 C70 1.487 . S
C73 N90 1.343 . S
H74 C46 0.931 . S
H75 C48 0.930 . S
H76 C50 0.930 . S
H77 C51 0.931 . S
H78 C53 0.931 . S
H79 C55 0.930 . S
H80 C57 0.930 . S
H81 C58 0.931 . S
H82 C60 0.931 . S
H83 C62 0.930 . S
H84 C64 0.930 . S
H85 C65 0.931 . S
H86 C67 0.931 . S
H87 C69 0.930 . S
H88 C71 0.930 . S
H89 C72 0.931 . S
N90 C52 1.343 . S
N90 C73 1.343 . S
N91 C59 1.343 . S
N91 C66 1.343 . S
C92 C93 1.384 . S
C92 C94 1.384 . S
C92 H120 0.931 1_545 S
C93 C92 1.384 . S
C93 C96 1.382 . S
C94 C92 1.384 . S
C94 C95 1.381 . S
C94 H121 0.930 1_545 S
C95 C94 1.381 . S
C95 C97 1.381 . S
C95 C98 1.487 1_556 S
C96 C93 1.382 . S
C96 C97 1.387 . S
C96 H122 0.930 . S
C97 C95 1.381 . S
C97 C96 1.387 . S
C97 H123 0.931 . S
C98 C95 1.487 1_554 S
C98 C105 1.399 1_545 S
C98 N136 1.343 1_554 S
C99 C100 1.384 . S
C99 C101 1.384 . S
C99 H124 0.931 1_565 S
C100 C99 1.384 . S
C100 C103 1.382 . S
C101 C99 1.384 . S
C101 C102 1.381 . S
C101 H125 0.930 1_565 S
C102 C101 1.381 . S
C102 C104 1.381 . S
C102 C105 1.487 . S
C103 C100 1.382 . S
C103 C104 1.387 . S
C103 H126 0.930 . S
C104 C102 1.381 . S
C104 C103 1.387 . S
C104 H127 0.931 . S
C105 C98 1.399 1_565 S
C105 C102 1.487 . S
C105 N137 1.343 . S
C106 C107 1.384 . S
C106 C108 1.384 . S
C106 H128 0.931 1_565 S
C107 C106 1.384 . S
C107 C110 1.382 . S
C108 C106 1.384 . S
C108 C109 1.381 . S
C108 H129 0.930 1_565 S
C109 C108 1.381 . S
C109 C111 1.381 . S
C109 C112 1.487 . S
C110 C107 1.382 . S
C110 C111 1.387 . S
C110 H130 0.930 . S
C111 C109 1.381 . S
C111 C110 1.387 . S
C111 H131 0.931 . S
C112 C109 1.487 . S
C112 C119 1.399 1_565 S
C112 N137 1.343 . S
C113 C114 1.384 . S
C113 C115 1.384 . S
C113 H132 0.931 1_545 S
C114 C113 1.384 . S
C114 C117 1.382 . S
C115 C113 1.384 . S
C115 C116 1.381 . S
C115 H133 0.930 1_545 S
C116 C115 1.381 . S
C116 C118 1.381 . S
C116 C119 1.487 1_556 S
C117 C114 1.382 . S
C117 C118 1.387 . S
C117 H134 0.930 . S
C118 C116 1.381 . S
C118 C117 1.387 . S
C118 H135 0.931 . S
C119 C112 1.399 1_545 S
C119 C116 1.487 1_554 S
C119 N136 1.343 1_554 S
H120 C92 0.931 1_565 S
H121 C94 0.930 1_565 S
H122 C96 0.930 . S
H123 C97 0.931 . S
H124 C99 0.931 1_545 S
H125 C101 0.930 1_545 S
H126 C103 0.930 . S
H127 C104 0.931 . S
H128 C106 0.931 1_545 S
H129 C108 0.930 1_545 S
H130 C110 0.930 . S
H131 C111 0.931 . S
H132 C113 0.931 1_565 S
H133 C115 0.930 1_565 S
H134 C117 0.930 . S
H135 C118 0.931 . S
N136 C98 1.343 1_556 S
N136 C119 1.343 1_556 S
N137 C105 1.343 . S
N137 C112 1.343 . S
C138 C139 1.384 . S
C138 C140 1.384 . S
C138 H166 0.931 . S
C139 C138 1.384 . S
C139 C142 1.382 . S
C140 C138 1.384 . S
C140 C141 1.381 . S
C140 H167 0.930 . S
C141 C140 1.381 . S
C141 C143 1.381 . S
C141 C144 1.487 . S
C142 C139 1.382 . S
C142 C143 1.387 . S
C142 H168 0.930 . S
C143 C141 1.381 . S
C143 C142 1.387 . S
C143 H169 0.931 . S
C144 C141 1.487 . S
C144 C151 1.399 . S
C144 N182 1.343 . S
C145 C146 1.384 . S
C145 C147 1.384 . S
C145 H170 0.931 . S
C146 C145 1.384 . S
C146 C149 1.382 . S
C147 C145 1.384 . S
C147 C148 1.381 . S
C147 H171 0.930 . S
C148 C147 1.381 . S
C148 C150 1.381 . S
C148 C151 1.487 . S
C149 C146 1.382 . S
C149 C150 1.387 . S
C149 H172 0.930 . S
C150 C148 1.381 . S
C150 C149 1.387 . S
C150 H173 0.931 . S
C151 C144 1.399 . S
C151 C148 1.487 . S
C151 N183 1.343 . S
C152 C153 1.384 . S
C152 C154 1.384 . S
C152 H174 0.931 . S
C153 C152 1.384 . S
C153 C156 1.382 . S
C154 C152 1.384 . S
C154 C155 1.381 . S
C154 H175 0.930 . S
C155 C154 1.381 . S
C155 C157 1.381 . S
C155 C158 1.487 . S
C156 C153 1.382 . S
C156 C157 1.387 . S
C156 H176 0.930 . S
C157 C155 1.381 . S
C157 C156 1.387 . S
C157 H177 0.931 . S
C158 C155 1.487 . S
C158 C165 1.399 . S
C158 N183 1.343 . S
C159 C160 1.384 . S
C159 C161 1.384 . S
C159 H178 0.931 . S
C160 C159 1.384 . S
C160 C163 1.382 . S
C161 C159 1.384 . S
C161 C162 1.381 . S
C161 H179 0.930 . S
C162 C161 1.381 . S
C162 C164 1.381 . S
C162 C165 1.487 . S
C163 C160 1.382 . S
C163 C164 1.387 . S
C163 H180 0.930 . S
C164 C162 1.381 . S
C164 C163 1.387 . S
C164 H181 0.931 . S
C165 C158 1.399 . S
C165 C162 1.487 . S
C165 N182 1.343 . S
H166 C138 0.931 . S
H167 C140 0.930 . S
H168 C142 0.930 . S
H169 C143 0.931 . S
H170 C145 0.931 . S
H171 C147 0.930 . S
H172 C149 0.930 . S
H173 C150 0.931 . S
H174 C152 0.931 . S
H175 C154 0.930 . S
H176 C156 0.930 . S
H177 C157 0.931 . S
H178 C159 0.931 . S
H179 C161 0.930 . S
H180 C163 0.930 . S
H181 C164 0.931 . S
N182 C144 1.343 . S
N182 C165 1.343 . S
N183 C151 1.343 . S
N183 C158 1.343 . S
C184 C185 1.384 . S
C184 C186 1.384 . S
C184 H212 0.931 . S
C185 C184 1.384 . S
C185 C188 1.382 . S
C186 C184 1.384 . S
C186 C187 1.381 . S
C186 H213 0.930 . S
C187 C186 1.381 . S
C187 C189 1.381 . S
C187 C190 1.487 . S
C188 C185 1.382 . S
C188 C189 1.387 . S
C188 H214 0.930 . S
C189 C187 1.381 . S
C189 C188 1.387 . S
C189 H215 0.931 . S
C190 C187 1.487 . S
C190 C197 1.399 . S
C190 N228 1.343 . S
C191 C192 1.384 . S
C191 C193 1.384 . S
C191 H216 0.931 . S
C192 C191 1.384 . S
C192 C195 1.382 . S
C193 C191 1.384 . S
C193 C194 1.381 . S
C193 H217 0.930 . S
C194 C193 1.381 . S
C194 C196 1.381 . S
C194 C197 1.487 . S
C195 C192 1.382 . S
C195 C196 1.387 . S
C195 H218 0.930 . S
C196 C194 1.381 . S
C196 C195 1.387 . S
C196 H219 0.931 . S
C197 C190 1.399 . S
C197 C194 1.487 . S
C197 N229 1.343 . S
C198 C199 1.384 . S
C198 C200 1.384 . S
C198 H220 0.931 . S
C199 C198 1.384 . S
C199 C202 1.382 . S
C200 C198 1.384 . S
C200 C201 1.381 . S
C200 H221 0.930 . S
C201 C200 1.381 . S
C201 C203 1.381 . S
C201 C204 1.487 . S
C202 C199 1.382 . S
C202 C203 1.387 . S
C202 H222 0.930 . S
C203 C201 1.381 . S
C203 C202 1.387 . S
C203 H223 0.931 . S
C204 C201 1.487 . S
C204 C211 1.399 . S
C204 N229 1.343 . S
C205 C206 1.384 . S
C205 C207 1.384 . S
C205 H224 0.931 . S
C206 C205 1.384 . S
C206 C209 1.382 . S
C207 C205 1.384 . S
C207 C208 1.381 . S
C207 H225 0.930 . S
C208 C207 1.381 . S
C208 C210 1.381 . S
C208 C211 1.487 . S
C209 C206 1.382 . S
C209 C210 1.387 . S
C209 H226 0.930 . S
C210 C208 1.381 . S
C210 C209 1.387 . S
C210 H227 0.931 . S
C211 C204 1.399 . S
C211 C208 1.487 . S
C211 N228 1.343 . S
H212 C184 0.931 . S
H213 C186 0.930 . S
H214 C188 0.930 . S
H215 C189 0.931 . S
H216 C191 0.931 . S
H217 C193 0.930 . S
H218 C195 0.930 . S
H219 C196 0.931 . S
H220 C198 0.931 . S
H221 C200 0.930 . S
H222 C202 0.930 . S
H223 C203 0.931 . S
H224 C205 0.931 . S
H225 C207 0.930 . S
H226 C209 0.930 . S
H227 C210 0.931 . S
N228 C190 1.343 . S
N228 C211 1.343 . S
N229 C197 1.343 . S
N229 C204 1.343 . S
C230 C231 1.384 . S
C230 C232 1.384 . S
C230 H258 0.931 . S
C231 C230 1.384 . S
C231 C234 1.382 . S
C232 C230 1.384 . S
C232 C233 1.381 . S
C232 H259 0.930 . S
C233 C232 1.381 . S
C233 C235 1.381 . S
C233 C236 1.487 . S
C234 C231 1.382 . S
C234 C235 1.387 . S
C234 H260 0.930 . S
C235 C233 1.381 . S
C235 C234 1.387 . S
C235 H261 0.931 . S
C236 C233 1.487 . S
C236 C243 1.399 . S
C236 N274 1.343 . S
C237 C238 1.384 . S
C237 C239 1.384 . S
C237 H262 0.931 . S
C238 C237 1.384 . S
C238 C241 1.382 . S
C239 C237 1.384 . S
C239 C240 1.381 . S
C239 H263 0.930 . S
C240 C239 1.381 . S
C240 C242 1.381 . S
C240 C243 1.487 . S
C241 C238 1.382 . S
C241 C242 1.387 . S
C241 H264 0.930 . S
C242 C240 1.381 . S
C242 C241 1.387 . S
C242 H265 0.931 . S
C243 C236 1.399 . S
C243 C240 1.487 . S
C243 N275 1.343 . S
C244 C245 1.384 . S
C244 C246 1.384 . S
C244 H266 0.931 . S
C245 C244 1.384 . S
C245 C248 1.382 . S
C246 C244 1.384 . S
C246 C247 1.381 . S
C246 H267 0.930 . S
C247 C246 1.381 . S
C247 C249 1.381 . S
C247 C250 1.487 . S
C248 C245 1.382 . S
C248 C249 1.387 . S
C248 H268 0.930 . S
C249 C247 1.381 . S
C249 C248 1.387 . S
C249 H269 0.931 . S
C250 C247 1.487 . S
C250 C257 1.399 . S
C250 N275 1.343 . S
C251 C252 1.384 . S
C251 C253 1.384 . S
C251 H270 0.931 . S
C252 C251 1.384 . S
C252 C255 1.382 . S
C253 C251 1.384 . S
C253 C254 1.381 . S
C253 H271 0.930 . S
C254 C253 1.381 . S
C254 C256 1.381 . S
C254 C257 1.487 . S
C255 C252 1.382 . S
C255 C256 1.387 . S
C255 H272 0.930 . S
C256 C254 1.381 . S
C256 C255 1.387 . S
C256 H273 0.931 . S
C257 C250 1.399 . S
C257 C254 1.487 . S
C257 N274 1.343 . S
H258 C230 0.931 . S
H259 C232 0.930 . S
H260 C234 0.930 . S
H261 C235 0.931 . S
H262 C237 0.931 . S
H263 C239 0.930 . S
H264 C241 0.930 . S
H265 C242 0.931 . S
H266 C244 0.931 . S
H267 C246 0.930 . S
H268 C248 0.930 . S
H269 C249 0.931 . S
H270 C251 0.931 . S
H271 C253 0.930 . S
H272 C255 0.930 . S
H273 C256 0.931 . S
N274 C236 1.343 . S
N274 C257 1.343 . S
N275 C243 1.343 . S
N275 C250 1.343 . S
C276 C277 1.384 . S
C276 C278 1.384 . S
C276 H304 0.931 . S
C277 C276 1.384 . S
C277 C280 1.382 . S
C278 C276 1.384 . S
C278 C279 1.381 . S
C278 H305 0.930 . S
C279 C278 1.381 . S
C279 C281 1.381 . S
C279 C282 1.487 1_556 S
C280 C277 1.382 . S
C280 C281 1.387 . S
C280 H306 0.930 . S
C281 C279 1.381 . S
C281 C280 1.387 . S
C281 H307 0.931 . S
C282 C279 1.487 1_554 S
C282 C289 1.399 . S
C282 N320 1.343 1_554 S
C283 C284 1.384 . S
C283 C285 1.384 . S
C283 H308 0.931 . S
C284 C283 1.384 . S
C284 C287 1.382 . S
C285 C283 1.384 . S
C285 C286 1.381 . S
C285 H309 0.930 . S
C286 C285 1.381 . S
C286 C288 1.381 . S
C286 C289 1.487 . S
C287 C284 1.382 . S
C287 C288 1.387 . S
C287 H310 0.930 . S
C288 C286 1.381 . S
C288 C287 1.387 . S
C288 H311 0.931 . S
C289 C282 1.399 . S
C289 C286 1.487 . S
C289 N321 1.343 . S
C290 C291 1.384 . S
C290 C292 1.384 . S
C290 H312 0.931 . S
C291 C290 1.384 . S
C291 C294 1.382 . S
C292 C290 1.384 . S
C292 C293 1.381 . S
C292 H313 0.930 . S
C293 C292 1.381 . S
C293 C295 1.381 . S
C293 C296 1.487 . S
C294 C291 1.382 . S
C294 C295 1.387 . S
C294 H314 0.930 . S
C295 C293 1.381 . S
C295 C294 1.387 . S
C295 H315 0.931 . S
C296 C293 1.487 . S
C296 C303 1.399 . S
C296 N321 1.343 . S
C297 C298 1.384 . S
C297 C299 1.384 . S
C297 H316 0.931 . S
C298 C297 1.384 . S
C298 C301 1.382 . S
C299 C297 1.384 . S
C299 C300 1.381 . S
C299 H317 0.930 . S
C300 C299 1.381 . S
C300 C302 1.381 . S
C300 C303 1.487 1_556 S
C301 C298 1.382 . S
C301 C302 1.387 . S
C301 H318 0.930 . S
C302 C300 1.381 . S
C302 C301 1.387 . S
C302 H319 0.931 . S
C303 C296 1.399 . S
C303 C300 1.487 1_554 S
C303 N320 1.343 1_554 S
H304 C276 0.931 . S
H305 C278 0.930 . S
H306 C280 0.930 . S
H307 C281 0.931 . S
H308 C283 0.931 . S
H309 C285 0.930 . S
H310 C287 0.930 . S
H311 C288 0.931 . S
H312 C290 0.931 . S
H313 C292 0.930 . S
H314 C294 0.930 . S
H315 C295 0.931 . S
H316 C297 0.931 . S
H317 C299 0.930 . S
H318 C301 0.930 . S
H319 C302 0.931 . S
N320 C282 1.343 1_556 S
N320 C303 1.343 1_556 S
N321 C289 1.343 . S
N321 C296 1.343 . S
C322 C323 1.384 . S
C322 C324 1.384 . S
C322 H350 0.931 . S
C323 C322 1.384 . S
C323 C326 1.382 . S
C324 C322 1.384 . S
C324 C325 1.381 . S
C324 H351 0.930 . S
C325 C324 1.381 . S
C325 C327 1.381 . S
C325 C328 1.487 . S
C326 C323 1.382 . S
C326 C327 1.387 . S
C326 H352 0.930 . S
C327 C325 1.381 . S
C327 C326 1.387 . S
C327 H353 0.931 . S
C328 C325 1.487 . S
C328 C335 1.399 . S
C328 N366 1.343 1_655 S
C329 C330 1.384 . S
C329 C331 1.384 . S
C329 H354 0.931 . S
C330 C329 1.384 . S
C330 C333 1.382 . S
C331 C329 1.384 . S
C331 C332 1.381 . S
C331 H355 0.930 . S
C332 C331 1.381 . S
C332 C334 1.381 . S
C332 C335 1.487 . S
C333 C330 1.382 . S
C333 C334 1.387 . S
C333 H356 0.930 . S
C334 C332 1.381 . S
C334 C333 1.387 . S
C334 H357 0.931 . S
C335 C328 1.399 . S
C335 C332 1.487 . S
C335 N367 1.343 1_655 S
C336 C337 1.384 . S
C336 C338 1.384 . S
C336 H358 0.931 . S
C337 C336 1.384 . S
C337 C340 1.382 . S
C338 C336 1.384 . S
C338 C339 1.381 . S
C338 H359 0.930 . S
C339 C338 1.381 . S
C339 C341 1.381 . S
C339 C342 1.487 . S
C340 C337 1.382 . S
C340 C341 1.387 . S
C340 H360 0.930 . S
C341 C339 1.381 . S
C341 C340 1.387 . S
C341 H361 0.931 . S
C342 C339 1.487 . S
C342 C349 1.399 . S
C342 N367 1.343 . S
C343 C344 1.384 . S
C343 C345 1.384 . S
C343 H362 0.931 . S
C344 C343 1.384 . S
C344 C347 1.382 . S
C345 C343 1.384 . S
C345 C346 1.381 . S
C345 H363 0.930 . S
C346 C345 1.381 . S
C346 C348 1.381 . S
C346 C349 1.487 . S
C347 C344 1.382 . S
C347 C348 1.387 . S
C347 H364 0.930 . S
C348 C346 1.381 . S
C348 C347 1.387 . S
C348 H365 0.931 . S
C349 C342 1.399 . S
C349 C346 1.487 . S
C349 N366 1.343 . S
H350 C322 0.931 . S
H351 C324 0.930 . S
H352 C326 0.930 . S
H353 C327 0.931 . S
H354 C329 0.931 . S
H355 C331 0.930 . S
H356 C333 0.930 . S
H357 C334 0.931 . S
H358 C336 0.931 . S
H359 C338 0.930 . S
H360 C340 0.930 . S
H361 C341 0.931 . S
H362 C343 0.931 . S
H363 C345 0.930 . S
H364 C347 0.930 . S
H365 C348 0.931 . S
N366 C328 1.343 1_455 S
N366 C349 1.343 . S
N367 C335 1.343 1_455 S
N367 C342 1.343 . S
Fe368 O369 1.886 . S
Fe368 O372 1.715 1_455 S
Fe368 O377 2.077 . S
Fe368 O382 1.935 1_455 S
Fe368 O388 2.077 . S
Fe368 O397 1.935 1_455 S
O369 Fe368 1.886 . S
O369 Fe371 1.715 . S
Fe370 O372 1.886 . S
Fe370 O373 1.715 . S
Fe370 O380 1.935 . S
Fe370 O381 2.077 . S
Fe370 O387 1.935 . S
Fe370 O396 2.077 . S
Fe371 O369 1.715 . S
Fe371 O374 1.886 . S
Fe371 O378 1.935 . S
Fe371 O383 2.077 . S
Fe371 O389 1.935 . S
Fe371 O393 2.077 . S
O372 Fe368 1.715 1_655 S
O372 Fe370 1.886 . S
O373 Fe370 1.715 . S
O373 Fe375 1.886 . S
O374 Fe371 1.886 . S
O374 Fe375 1.715 1_455 S
Fe375 O373 1.886 . S
Fe375 O374 1.715 1_655 S
Fe375 O379 2.077 . S
Fe375 O384 1.935 1_655 S
Fe375 O386 2.077 . S
Fe375 O394 1.935 1_655 S
C376 O388 1.381 . S
C376 O389 1.421 . S
O377 Fe368 2.077 . S
O377 C390 1.381 . S
O378 Fe371 1.935 . S
O378 C390 1.421 . S
O379 Fe375 2.077 . S
O379 C395 1.381 . S
O380 Fe370 1.935 . S
O380 C395 1.421 . S
O381 Fe370 2.077 . S
O381 C385 1.381 . S
O382 Fe368 1.935 1_655 S
O382 C385 1.421 . S
O383 Fe371 2.077 . S
O383 C391 1.381 . S
O384 Fe375 1.935 1_455 S
O384 C391 1.421 . S
C385 O381 1.381 . S
C385 O382 1.421 . S
O386 Fe375 2.077 . S
O386 C398 1.381 . S
O387 Fe370 1.935 . S
O387 C398 1.421 . S
O388 Fe368 2.077 . S
O388 C376 1.381 . S
O389 Fe371 1.935 . S
O389 C376 1.421 . S
C390 O377 1.381 . S
C390 O378 1.421 . S
C391 O383 1.381 . S
C391 O384 1.421 . S
C392 O393 1.381 . S
C392 O394 1.421 . S
O393 Fe371 2.077 . S
O393 C392 1.381 . S
O394 Fe375 1.935 1_455 S
O394 C392 1.421 . S
C395 O379 1.381 . S
C395 O380 1.421 . S
O396 Fe370 2.077 . S
O396 C399 1.381 . S
O397 Fe368 1.935 1_655 S
O397 C399 1.421 . S
C398 O386 1.381 . S
C398 O387 1.421 . S
C399 O396 1.381 . S
C399 O397 1.421 . S
Fe400 O401 1.886 . S
Fe400 O404 1.715 . S
Fe400 O409 2.077 . S
Fe400 O414 1.935 . S
Fe400 O420 2.077 . S
Fe400 O429 1.935 . S
O401 Fe400 1.886 . S
O401 Fe403 1.715 . S
Fe402 O404 1.886 . S
Fe402 O405 1.715 . S
Fe402 O412 1.935 . S
Fe402 O413 2.077 . S
Fe402 O419 1.935 . S
Fe402 O428 2.077 . S
Fe403 O401 1.715 . S
Fe403 O406 1.886 . S
Fe403 O410 1.935 . S
Fe403 O415 2.077 . S
Fe403 O421 1.935 . S
Fe403 O425 2.077 . S
O404 Fe400 1.715 . S
O404 Fe402 1.886 . S
O405 Fe402 1.715 . S
O405 Fe407 1.886 . S
O406 Fe403 1.886 . S
O406 Fe407 1.715 . S
Fe407 O405 1.886 . S
Fe407 O406 1.715 . S
Fe407 O411 2.077 . S
Fe407 O416 1.935 . S
Fe407 O418 2.077 . S
Fe407 O426 1.935 . S
C408 O420 1.381 . S
C408 O421 1.421 . S
O409 Fe400 2.077 . S
O409 C422 1.381 . S
O410 Fe403 1.935 . S
O410 C422 1.421 . S
O411 Fe407 2.077 . S
O411 C427 1.381 . S
O412 Fe402 1.935 . S
O412 C427 1.421 . S
O413 Fe402 2.077 . S
O413 C417 1.381 . S
O414 Fe400 1.935 . S
O414 C417 1.421 . S
O415 Fe403 2.077 . S
O415 C423 1.381 . S
O416 Fe407 1.935 . S
O416 C423 1.421 . S
C417 O413 1.381 . S
C417 O414 1.421 . S
O418 Fe407 2.077 . S
O418 C430 1.381 . S
O419 Fe402 1.935 . S
O419 C430 1.421 . S
O420 Fe400 2.077 . S
O420 C408 1.381 . S
O421 Fe403 1.935 . S
O421 C408 1.421 . S
C422 O409 1.381 . S
C422 O410 1.421 . S
C423 O415 1.381 . S
C423 O416 1.421 . S
C424 O425 1.381 . S
C424 O426 1.421 . S
O425 Fe403 2.077 . S
O425 C424 1.381 . S
O426 Fe407 1.935 . S
O426 C424 1.421 . S
C427 O411 1.381 . S
C427 O412 1.421 . S
O428 Fe402 2.077 . S
O428 C431 1.381 . S
O429 Fe400 1.935 . S
O429 C431 1.421 . S
C430 O418 1.381 . S
C430 O419 1.421 . S
C431 O428 1.381 . S
C431 O429 1.421 . S
Fe432 O433 1.886 . S
Fe432 O436 1.715 . S
Fe432 O441 2.077 . S
Fe432 O446 1.935 . S
Fe432 O452 2.077 . S
Fe432 O461 1.935 . S
O433 Fe432 1.886 . S
O433 Fe435 1.715 . S
Fe434 O436 1.886 . S
Fe434 O437 1.715 . S
Fe434 O444 1.935 . S
Fe434 O445 2.077 . S
Fe434 O451 1.935 . S
Fe434 O460 2.077 . S
Fe435 O433 1.715 . S
Fe435 O438 1.886 . S
Fe435 O442 1.935 . S
Fe435 O447 2.077 . S
Fe435 O453 1.935 . S
Fe435 O457 2.077 . S
O436 Fe432 1.715 . S
O436 Fe434 1.886 . S
O437 Fe434 1.715 . S
O437 Fe439 1.886 . S
O438 Fe435 1.886 . S
O438 Fe439 1.715 . S
Fe439 O437 1.886 . S
Fe439 O438 1.715 . S
Fe439 O443 2.077 . S
Fe439 O448 1.935 . S
Fe439 O450 2.077 . S
Fe439 O458 1.935 . S
C440 O452 1.381 . S
C440 O453 1.421 . S
O441 Fe432 2.077 . S
O441 C454 1.381 . S
O442 Fe435 1.935 . S
O442 C454 1.421 . S
O443 Fe439 2.077 . S
O443 C459 1.381 . S
O444 Fe434 1.935 . S
O444 C459 1.421 . S
O445 Fe434 2.077 . S
O445 C449 1.381 . S
O446 Fe432 1.935 . S
O446 C449 1.421 . S
O447 Fe435 2.077 . S
O447 C455 1.381 . S
O448 Fe439 1.935 . S
O448 C455 1.421 . S
C449 O445 1.381 . S
C449 O446 1.421 . S
O450 Fe439 2.077 . S
O450 C462 1.381 . S
O451 Fe434 1.935 . S
O451 C462 1.421 . S
O452 Fe432 2.077 . S
O452 C440 1.381 . S
O453 Fe435 1.935 . S
O453 C440 1.421 . S
C454 O441 1.381 . S
C454 O442 1.421 . S
C455 O447 1.381 . S
C455 O448 1.421 . S
C456 O457 1.381 . S
C456 O458 1.421 . S
O457 Fe435 2.077 . S
O457 C456 1.381 . S
O458 Fe439 1.935 . S
O458 C456 1.421 . S
C459 O443 1.381 . S
C459 O444 1.421 . S
O460 Fe434 2.077 . S
O460 C463 1.381 . S
O461 Fe432 1.935 . S
O461 C463 1.421 . S
C462 O450 1.381 . S
C462 O451 1.421 . S
C463 O460 1.381 . S
C463 O461 1.421 . S
Fe464 O465 1.886 . S
Fe464 O468 1.715 . S
Fe464 O473 2.077 1_455 S
Fe464 O478 1.935 1_455 S
Fe464 O484 2.077 . S
Fe464 O493 1.935 . S
O465 Fe464 1.886 . S
O465 Fe467 1.715 . S
Fe466 O468 1.886 . S
Fe466 O469 1.715 . S
Fe466 O476 1.935 1_455 S
Fe466 O477 2.077 1_455 S
Fe466 O483 1.935 . S
Fe466 O492 2.077 . S
Fe467 O465 1.715 . S
Fe467 O470 1.886 . S
Fe467 O474 1.935 1_455 S
Fe467 O479 2.077 1_455 S
Fe467 O485 1.935 . S
Fe467 O489 2.077 . S
O468 Fe464 1.715 . S
O468 Fe466 1.886 . S
O469 Fe466 1.715 . S
O469 Fe471 1.886 . S
O470 Fe467 1.886 . S
O470 Fe471 1.715 . S
Fe471 O469 1.886 . S
Fe471 O470 1.715 . S
Fe471 O475 2.077 1_455 S
Fe471 O480 1.935 1_455 S
Fe471 O482 2.077 . S
Fe471 O490 1.935 . S
C472 O484 1.381 . S
C472 O485 1.421 . S
O473 Fe464 2.077 1_655 S
O473 C486 1.381 . S
O474 Fe467 1.935 1_655 S
O474 C486 1.421 . S
O475 Fe471 2.077 1_655 S
O475 C491 1.381 . S
O476 Fe466 1.935 1_655 S
O476 C491 1.421 . S
O477 Fe466 2.077 1_655 S
O477 C481 1.381 . S
O478 Fe464 1.935 1_655 S
O478 C481 1.421 . S
O479 Fe467 2.077 1_655 S
O479 C487 1.381 . S
O480 Fe471 1.935 1_655 S
O480 C487 1.421 . S
C481 O477 1.381 . S
C481 O478 1.421 . S
O482 Fe471 2.077 . S
O482 C494 1.381 . S
O483 Fe466 1.935 . S
O483 C494 1.421 . S
O484 Fe464 2.077 . S
O484 C472 1.381 . S
O485 Fe467 1.935 . S
O485 C472 1.421 . S
C486 O473 1.381 . S
C486 O474 1.421 . S
C487 O479 1.381 . S
C487 O480 1.421 . S
C488 O489 1.381 . S
C488 O490 1.421 . S
O489 Fe467 2.077 . S
O489 C488 1.381 . S
O490 Fe471 1.935 . S
O490 C488 1.421 . S
C491 O475 1.381 . S
C491 O476 1.421 . S
O492 Fe466 2.077 . S
O492 C495 1.381 . S
O493 Fe464 1.935 . S
O493 C495 1.421 . S
C494 O482 1.381 . S
C494 O483 1.421 . S
C495 O492 1.381 . S
C495 O493 1.421 . S
C496 C497 1.369 . S
C496 C498 1.419 . S
C496 H500 0.930 . S
C497 C496 1.369 . S
C497 C506 1.429 . S
C498 C496 1.419 . S
C498 C499 1.363 . S
C498 H501 0.929 . S
C499 C498 1.363 . S
C499 C505 1.428 . S
H500 C496 0.930 . S
H501 C498 0.929 . S
S502 N503 1.613 . S
S502 N504 1.610 . S
N503 S502 1.613 . S
N503 C506 1.350 . S
N504 S502 1.610 . S
N504 C505 1.351 . S
C505 C499 1.428 . S
C505 N504 1.351 . S
C505 C506 1.434 . S
C506 C497 1.429 . S
C506 N503 1.350 . S
C506 C505 1.434 . S
C507 C508 1.369 . S
C507 C509 1.419 . S
C507 H511 0.930 . S
C508 C507 1.369 . S
C508 C517 1.429 . S
C509 C507 1.419 . S
C509 C510 1.363 . S
C509 H512 0.929 . S
C510 C509 1.363 . S
C510 C516 1.428 . S
H511 C507 0.930 . S
H512 C509 0.929 . S
S513 N514 1.613 . S
S513 N515 1.610 1_565 S
N514 S513 1.613 . S
N514 C517 1.350 1_565 S
N515 S513 1.610 1_545 S
N515 C516 1.351 . S
C516 C510 1.428 . S
C516 N515 1.351 . S
C516 C517 1.434 . S
C517 C508 1.429 . S
C517 N514 1.350 1_545 S
C517 C516 1.434 . S
C518 C519 1.369 . S
C518 C520 1.419 . S
C518 H522 0.930 . S
C519 C518 1.369 . S
C519 C528 1.429 . S
C520 C518 1.419 . S
C520 C521 1.363 . S
C520 H523 0.929 . S
C521 C520 1.363 . S
C521 C527 1.428 . S
H522 C518 0.930 . S
H523 C520 0.929 . S
S524 N525 1.613 . S
S524 N526 1.610 . S
N525 S524 1.613 . S
N525 C528 1.350 . S
N526 S524 1.610 . S
N526 C527 1.351 . S
C527 C521 1.428 . S
C527 N526 1.351 . S
C527 C528 1.434 . S
C528 C519 1.429 . S
C528 N525 1.350 . S
C528 C527 1.434 . S
C529 C530 1.369 1_565 S
C529 C531 1.419 . S
C529 H533 0.930 . S
C530 C529 1.369 1_545 S
C530 C539 1.429 1_545 S
C531 C529 1.419 . S
C531 C532 1.363 . S
C531 H534 0.929 . S
C532 C531 1.363 . S
C532 C538 1.428 . S
H533 C529 0.930 . S
H534 C531 0.929 . S
S535 N536 1.613 1_565 S
S535 N537 1.610 . S
N536 S535 1.613 1_545 S
N536 C539 1.350 1_545 S
N537 S535 1.610 . S
N537 C538 1.351 . S
C538 C532 1.428 . S
C538 N537 1.351 . S
C538 C539 1.434 . S
C539 C530 1.429 1_565 S
C539 N536 1.350 1_565 S
C539 C538 1.434 . S
C540 C541 1.369 . S
C540 C542 1.419 . S
C540 H544 0.930 . S
C541 C540 1.369 . S
C541 C550 1.429 . S
C542 C540 1.419 . S
C542 C543 1.363 . S
C542 H545 0.929 . S
C543 C542 1.363 . S
C543 C549 1.428 . S
H544 C540 0.930 . S
H545 C542 0.929 . S
S546 N547 1.613 . S
S546 N548 1.610 . S
N547 S546 1.613 . S
N547 C550 1.350 . S
N548 S546 1.610 . S
N548 C549 1.351 . S
C549 C543 1.428 . S
C549 N548 1.351 . S
C549 C550 1.434 . S
C550 C541 1.429 . S
C550 N547 1.350 . S
C550 C549 1.434 . S
C551 C552 1.369 . S
C551 C553 1.419 . S
C551 H555 0.930 . S
C552 C551 1.369 . S
C552 C561 1.429 . S
C553 C551 1.419 . S
C553 C554 1.363 . S
C553 H556 0.929 . S
C554 C553 1.363 . S
C554 C560 1.428 . S
H555 C551 0.930 . S
H556 C553 0.929 . S
S557 N558 1.613 . S
S557 N559 1.610 . S
N558 S557 1.613 . S
N558 C561 1.350 . S
N559 S557 1.610 . S
N559 C560 1.351 . S
C560 C554 1.428 . S
C560 N559 1.351 . S
C560 C561 1.434 . S
C561 C552 1.429 . S
C561 N558 1.350 . S
C561 C560 1.434 . S
C562 C563 1.369 . S
C562 C564 1.419 . S
C562 H566 0.930 . S
C563 C562 1.369 . S
C563 C572 1.429 . S
C564 C562 1.419 . S
C564 C565 1.363 . S
C564 H567 0.929 . S
C565 C564 1.363 . S
C565 C571 1.428 . S
H566 C562 0.930 . S
H567 C564 0.929 . S
S568 N569 1.613 . S
S568 N570 1.610 . S
N569 S568 1.613 . S
N569 C572 1.350 . S
N570 S568 1.610 . S
N570 C571 1.351 . S
C571 C565 1.428 . S
C571 N570 1.351 . S
C571 C572 1.434 . S
C572 C563 1.429 . S
C572 N569 1.350 . S
C572 C571 1.434 . S
C573 C574 1.369 1_565 S
C573 C575 1.419 . S
C573 H577 0.930 . S
C574 C573 1.369 1_545 S
C574 C583 1.429 . S
C575 C573 1.419 . S
C575 C576 1.363 . S
C575 H578 0.929 . S
C576 C575 1.363 . S
C576 C582 1.428 . S
H577 C573 0.930 . S
H578 C575 0.929 . S
S579 N580 1.613 . S
S579 N581 1.610 1_545 S
N580 S579 1.613 . S
N580 C583 1.350 . S
N581 S579 1.610 1_565 S
N581 C582 1.351 . S
C582 C576 1.428 . S
C582 N581 1.351 . S
C582 C583 1.434 1_565 S
C583 C574 1.429 . S
C583 N580 1.350 . S
C583 C582 1.434 1_545 S
C584 C585 1.369 . S
C584 C586 1.419 . S
C584 H588 0.930 . S
C585 C584 1.369 . S
C585 C594 1.429 . S
C586 C584 1.419 . S
C586 C587 1.363 . S
C586 H589 0.929 . S
C587 C586 1.363 . S
C587 C593 1.428 . S
H588 C584 0.930 . S
H589 C586 0.929 . S
S590 N591 1.613 . S
S590 N592 1.610 . S
N591 S590 1.613 . S
N591 C594 1.350 . S
N592 S590 1.610 . S
N592 C593 1.351 . S
C593 C587 1.428 . S
C593 N592 1.351 . S
C593 C594 1.434 . S
C594 C585 1.429 . S
C594 N591 1.350 . S
C594 C593 1.434 . S
C595 C596 1.369 1_565 S
C595 C597 1.419 . S
C595 H599 0.930 . S
C596 C595 1.369 1_545 S
C596 C605 1.429 1_545 S
C597 C595 1.419 . S
C597 C598 1.363 . S
C597 H600 0.929 . S
C598 C597 1.363 . S
C598 C604 1.428 . S
H599 C595 0.930 . S
H600 C597 0.929 . S
S601 N602 1.613 . S
S601 N603 1.610 1_545 S
N602 S601 1.613 . S
N602 C605 1.350 1_545 S
N603 S601 1.610 1_565 S
N603 C604 1.351 . S
C604 C598 1.428 . S
C604 N603 1.351 . S
C604 C605 1.434 . S
C605 C596 1.429 1_565 S
C605 N602 1.350 1_565 S
C605 C604 1.434 . S
C606 C607 1.369 . S
C606 C608 1.419 . S
C606 H610 0.930 . S
C607 C606 1.369 . S
C607 C616 1.429 . S
C608 C606 1.419 . S
C608 C609 1.363 . S
C608 H611 0.929 . S
C609 C608 1.363 . S
C609 C615 1.428 . S
H610 C606 0.930 . S
H611 C608 0.929 . S
S612 N613 1.613 . S
S612 N614 1.610 . S
N613 S612 1.613 . S
N613 C616 1.350 . S
N614 S612 1.610 . S
N614 C615 1.351 . S
C615 C609 1.428 . S
C615 N614 1.351 . S
C615 C616 1.434 . S
C616 C607 1.429 . S
C616 N613 1.350 . S
C616 C615 1.434 . S
C617 C618 1.369 . S
C617 C619 1.419 . S
C617 H621 0.930 1_545 S
C618 C617 1.369 . S
C618 C627 1.429 . S
C619 C617 1.419 . S
C619 C620 1.363 . S
C619 H622 0.929 . S
C620 C619 1.363 . S
C620 C626 1.428 . S
H621 C617 0.930 1_565 S
H622 C619 0.929 . S
S623 N624 1.613 . S
S623 N625 1.610 . S
N624 S623 1.613 . S
N624 C627 1.350 . S
N625 S623 1.610 . S
N625 C626 1.351 . S
C626 C620 1.428 . S
C626 N625 1.351 . S
C626 C627 1.434 . S
C627 C618 1.429 . S
C627 N624 1.350 . S
C627 C626 1.434 . S
C628 C629 1.369 . S
C628 C630 1.419 . S
C628 H632 0.930 . S
C629 C628 1.369 . S
C629 C638 1.429 . S
C630 C628 1.419 . S
C630 C631 1.363 . S
C630 H633 0.929 . S
C631 C630 1.363 . S
C631 C637 1.428 . S
H632 C628 0.930 . S
H633 C630 0.929 . S
S634 N635 1.613 . S
S634 N636 1.610 . S
N635 S634 1.613 . S
N635 C638 1.350 . S
N636 S634 1.610 . S
N636 C637 1.351 . S
C637 C631 1.428 . S
C637 N636 1.351 . S
C637 C638 1.434 . S
C638 C629 1.429 . S
C638 N635 1.350 . S
C638 C637 1.434 . S
C639 C640 1.369 1_565 S
C639 C641 1.419 . S
C639 H643 0.930 . S
C640 C639 1.369 1_545 S
C640 C649 1.429 1_545 S
C641 C639 1.419 . S
C641 C642 1.363 . S
C641 H644 0.929 . S
C642 C641 1.363 . S
C642 C648 1.428 . S
H643 C639 0.930 . S
H644 C641 0.929 . S
S645 N646 1.613 1_465 S
S645 N647 1.610 1_455 S
N646 S645 1.613 1_645 S
N646 C649 1.350 1_545 S
N647 S645 1.610 1_655 S
N647 C648 1.351 . S
C648 C642 1.428 . S
C648 N647 1.351 . S
C648 C649 1.434 . S
C649 C640 1.429 1_565 S
C649 N646 1.350 1_565 S
C649 C648 1.434 . S
C650 C651 1.369 . S
C650 C652 1.419 . S
C650 H654 0.930 . S
C651 C650 1.369 . S
C651 C660 1.429 . S
C652 C650 1.419 . S
C652 C653 1.363 . S
C652 H655 0.929 . S
C653 C652 1.363 . S
C653 C659 1.428 . S
H654 C650 0.930 . S
H655 C652 0.929 . S
S656 N657 1.613 1_565 S
S656 N658 1.610 1_565 S
N657 S656 1.613 1_545 S
N657 C660 1.350 . S
N658 S656 1.610 1_545 S
N658 C659 1.351 . S
C659 C653 1.428 . S
C659 N658 1.351 . S
C659 C660 1.434 . S
C660 C651 1.429 . S
C660 N657 1.350 . S
C660 C659 1.434 . S
C661 C662 1.369 . S
C661 C663 1.419 . S
C661 H665 0.930 . S
C662 C661 1.369 . S
C662 C671 1.429 . S
C663 C661 1.419 . S
C663 C664 1.363 . S
C663 H666 0.929 . S
C664 C663 1.363 . S
C664 C670 1.428 . S
H665 C661 0.930 . S
H666 C663 0.929 . S
S667 N668 1.613 . S
S667 N669 1.610 . S
N668 S667 1.613 . S
N668 C671 1.350 . S
N669 S667 1.610 . S
N669 C670 1.351 . S
C670 C664 1.428 . S
C670 N669 1.351 . S
C670 C671 1.434 . S
C671 C662 1.429 . S
C671 N668 1.350 . S
C671 C670 1.434 . S
C672 C673 1.369 . S
C672 C674 1.419 . S
C672 H676 0.930 . S
C673 C672 1.369 . S
C673 C682 1.429 . S
C674 C672 1.419 . S
C674 C675 1.363 . S
C674 H677 0.929 . S
C675 C674 1.363 . S
C675 C681 1.428 . S
H676 C672 0.930 . S
H677 C674 0.929 . S
S678 N679 1.613 . S
S678 N680 1.610 . S
N679 S678 1.613 . S
N679 C682 1.350 . S
N680 S678 1.610 . S
N680 C681 1.351 . S
C681 C675 1.428 . S
C681 N680 1.351 . S
C681 C682 1.434 . S
C682 C673 1.429 . S
C682 N679 1.350 . S
C682 C681 1.434 . S
C683 C684 1.369 . S
C683 C685 1.419 . S
C683 H687 0.930 . S
C684 C683 1.369 . S
C684 C693 1.429 . S
C685 C683 1.419 . S
C685 C686 1.363 . S
C685 H688 0.929 . S
C686 C685 1.363 . S
C686 C692 1.428 . S
H687 C683 0.930 . S
H688 C685 0.929 . S
S689 N690 1.613 . S
S689 N691 1.610 . S
N690 S689 1.613 . S
N690 C693 1.350 . S
N691 S689 1.610 . S
N691 C692 1.351 . S
C692 C686 1.428 . S
C692 N691 1.351 . S
C692 C693 1.434 . S
C693 C684 1.429 . S
C693 N690 1.350 . S
C693 C692 1.434 . S
C694 C695 1.369 . S
C694 C696 1.419 . S
C694 H698 0.930 . S
C695 C694 1.369 . S
C695 C704 1.429 . S
C696 C694 1.419 . S
C696 C697 1.363 . S
C696 H699 0.929 . S
C697 C696 1.363 . S
C697 C703 1.428 . S
H698 C694 0.930 . S
H699 C696 0.929 . S
S700 N701 1.613 . S
S700 N702 1.610 . S
N701 S700 1.613 . S
N701 C704 1.350 . S
N702 S700 1.610 . S
N702 C703 1.351 . S
C703 C697 1.428 . S
C703 N702 1.351 . S
C703 C704 1.434 . S
C704 C695 1.429 . S
C704 N701 1.350 . S
C704 C703 1.434 . S
C705 C706 1.369 . S
C705 C707 1.419 . S
C705 H709 0.930 . S
C706 C705 1.369 . S
C706 C715 1.429 . S
C707 C705 1.419 . S
C707 C708 1.363 . S
C707 H710 0.929 . S
C708 C707 1.363 . S
C708 C714 1.428 . S
H709 C705 0.930 . S
H710 C707 0.929 . S
S711 N712 1.613 . S
S711 N713 1.610 . S
N712 S711 1.613 . S
N712 C715 1.350 . S
N713 S711 1.610 . S
N713 C714 1.351 . S
C714 C708 1.428 . S
C714 N713 1.351 . S
C714 C715 1.434 . S
C715 C706 1.429 . S
C715 N712 1.350 . S
C715 C714 1.434 . S
C716 C717 1.369 . S
C716 C718 1.419 . S
C716 H720 0.930 . S
C717 C716 1.369 . S
C717 C726 1.429 . S
C718 C716 1.419 . S
C718 C719 1.363 . S
C718 H721 0.929 . S
C719 C718 1.363 . S
C719 C725 1.428 . S
H720 C716 0.930 . S
H721 C718 0.929 . S
S722 N723 1.613 . S
S722 N724 1.610 . S
N723 S722 1.613 . S
N723 C726 1.350 . S
N724 S722 1.610 . S
N724 C725 1.351 . S
C725 C719 1.428 . S
C725 N724 1.351 . S
C725 C726 1.434 . S
C726 C717 1.429 . S
C726 N723 1.350 . S
C726 C725 1.434 . S
C727 C728 1.369 . S
C727 C729 1.419 . S
C727 H731 0.930 . S
C728 C727 1.369 . S
C728 C737 1.429 . S
C729 C727 1.419 . S
C729 C730 1.363 . S
C729 H732 0.929 . S
C730 C729 1.363 . S
C730 C736 1.428 . S
H731 C727 0.930 . S
H732 C729 0.929 . S
S733 N734 1.613 . S
S733 N735 1.610 . S
N734 S733 1.613 . S
N734 C737 1.350 . S
N735 S733 1.610 . S
N735 C736 1.351 . S
C736 C730 1.428 . S
C736 N735 1.351 . S
C736 C737 1.434 . S
C737 C728 1.429 . S
C737 N734 1.350 . S
C737 C736 1.434 . S
C738 C739 1.369 . S
C738 C740 1.419 . S
C738 H742 0.930 . S
C739 C738 1.369 . S
C739 C748 1.429 . S
C740 C738 1.419 . S
C740 C741 1.363 . S
C740 H743 0.929 . S
C741 C740 1.363 . S
C741 C747 1.428 . S
H742 C738 0.930 . S
H743 C740 0.929 . S
S744 N745 1.613 . S
S744 N746 1.610 . S
N745 S744 1.613 . S
N745 C748 1.350 . S
N746 S744 1.610 . S
N746 C747 1.351 . S
C747 C741 1.428 . S
C747 N746 1.351 . S
C747 C748 1.434 . S
C748 C739 1.429 . S
C748 N745 1.350 . S
C748 C747 1.434 . S
C749 C750 1.369 . S
C749 C751 1.419 . S
C749 H753 0.930 . S
C750 C749 1.369 . S
C750 C759 1.429 . S
C751 C749 1.419 . S
C751 C752 1.363 . S
C751 H754 0.929 . S
C752 C751 1.363 . S
C752 C758 1.428 . S
H753 C749 0.930 . S
H754 C751 0.929 . S
S755 N756 1.613 . S
S755 N757 1.610 . S
N756 S755 1.613 . S
N756 C759 1.350 . S
N757 S755 1.610 . S
N757 C758 1.351 . S
C758 C752 1.428 . S
C758 N757 1.351 . S
C758 C759 1.434 . S
C759 C750 1.429 . S
C759 N756 1.350 . S
C759 C758 1.434 . S
C760 C761 1.369 . S
C760 C762 1.419 . S
C760 H764 0.930 . S
C761 C760 1.369 . S
C761 C770 1.429 . S
C762 C760 1.419 . S
C762 C763 1.363 . S
C762 H765 0.929 . S
C763 C762 1.363 . S
C763 C769 1.428 . S
H764 C760 0.930 . S
H765 C762 0.929 . S
S766 N767 1.613 . S
S766 N768 1.610 . S
N767 S766 1.613 . S
N767 C770 1.350 . S
N768 S766 1.610 . S
N768 C769 1.351 . S
C769 C763 1.428 . S
C769 N768 1.351 . S
C769 C770 1.434 . S
C770 C761 1.429 . S
C770 N767 1.350 . S
C770 C769 1.434 . S
C771 C772 1.369 . S
C771 C773 1.419 . S
C771 H775 0.930 . S
C772 C771 1.369 . S
C772 C781 1.429 . S
C773 C771 1.419 . S
C773 C774 1.363 . S
C773 H776 0.929 . S
C774 C773 1.363 . S
C774 C780 1.428 . S
H775 C771 0.930 . S
H776 C773 0.929 . S
S777 N778 1.613 . S
S777 N779 1.610 . S
N778 S777 1.613 . S
N778 C781 1.350 . S
N779 S777 1.610 . S
N779 C780 1.351 . S
C780 C774 1.428 . S
C780 N779 1.351 . S
C780 C781 1.434 . S
C781 C772 1.429 . S
C781 N778 1.350 . S
C781 C780 1.434 . S
C782 C783 1.369 . S
C782 C784 1.419 . S
C782 H786 0.930 . S
C783 C782 1.369 . S
C783 C792 1.429 . S
C784 C782 1.419 . S
C784 C785 1.363 . S
C784 H787 0.929 . S
C785 C784 1.363 . S
C785 C791 1.428 . S
H786 C782 0.930 . S
H787 C784 0.929 . S
S788 N789 1.613 . S
S788 N790 1.610 . S
N789 S788 1.613 . S
N789 C792 1.350 . S
N790 S788 1.610 . S
N790 C791 1.351 . S
C791 C785 1.428 . S
C791 N790 1.351 . S
C791 C792 1.434 . S
C792 C783 1.429 . S
C792 N789 1.350 . S
C792 C791 1.434 . S
C793 C794 1.369 . S
C793 C795 1.419 . S
C793 H797 0.930 . S
C794 C793 1.369 . S
C794 C803 1.429 . S
C795 C793 1.419 . S
C795 C796 1.363 . S
C795 H798 0.929 . S
C796 C795 1.363 . S
C796 C802 1.428 . S
H797 C793 0.930 . S
H798 C795 0.929 . S
S799 N800 1.613 . S
S799 N801 1.610 . S
N800 S799 1.613 . S
N800 C803 1.350 . S
N801 S799 1.610 . S
N801 C802 1.351 . S
C802 C796 1.428 . S
C802 N801 1.351 . S
C802 C803 1.434 . S
C803 C794 1.429 . S
C803 N800 1.350 . S
C803 C802 1.434 . S
C804 C805 1.369 . S
C804 C806 1.419 . S
C804 H808 0.930 . S
C805 C804 1.369 . S
C805 C814 1.429 . S
C806 C804 1.419 . S
C806 C807 1.363 . S
C806 H809 0.929 . S
C807 C806 1.363 . S
C807 C813 1.428 . S
H808 C804 0.930 . S
H809 C806 0.929 . S
S810 N811 1.613 . S
S810 N812 1.610 . S
N811 S810 1.613 . S
N811 C814 1.350 . S
N812 S810 1.610 . S
N812 C813 1.351 . S
C813 C807 1.428 . S
C813 N812 1.351 . S
C813 C814 1.434 . S
C814 C805 1.429 . S
C814 N811 1.350 . S
C814 C813 1.434 . S
C815 C816 1.369 . S
C815 C817 1.419 . S
C815 H819 0.930 . S
C816 C815 1.369 . S
C816 C825 1.429 . S
C817 C815 1.419 . S
C817 C818 1.363 . S
C817 H820 0.929 . S
C818 C817 1.363 . S
C818 C824 1.428 . S
H819 C815 0.930 . S
H820 C817 0.929 . S
S821 N822 1.613 . S
S821 N823 1.610 . S
N822 S821 1.613 . S
N822 C825 1.350 . S
N823 S821 1.610 . S
N823 C824 1.351 . S
C824 C818 1.428 . S
C824 N823 1.351 . S
C824 C825 1.434 . S
C825 C816 1.429 . S
C825 N822 1.350 . S
C825 C824 1.434 . S
C826 C827 1.369 . S
C826 C828 1.419 . S
C826 H830 0.930 . S
C827 C826 1.369 . S
C827 C836 1.429 . S
C828 C826 1.419 . S
C828 C829 1.363 . S
C828 H831 0.929 . S
C829 C828 1.363 . S
C829 C835 1.428 . S
H830 C826 0.930 . S
H831 C828 0.929 . S
S832 N833 1.613 . S
S832 N834 1.610 . S
N833 S832 1.613 . S
N833 C836 1.350 . S
N834 S832 1.610 . S
N834 C835 1.351 . S
C835 C829 1.428 . S
C835 N834 1.351 . S
C835 C836 1.434 . S
C836 C827 1.429 . S
C836 N833 1.350 . S
C836 C835 1.434 . S
C837 C838 1.369 . S
C837 C839 1.419 . S
C837 H841 0.930 . S
C838 C837 1.369 . S
C838 C847 1.429 . S
C839 C837 1.419 . S
C839 C840 1.363 . S
C839 H842 0.929 . S
C840 C839 1.363 . S
C840 C846 1.428 . S
H841 C837 0.930 . S
H842 C839 0.929 . S
S843 N844 1.613 1_655 S
S843 N845 1.610 1_655 S
N844 S843 1.613 1_455 S
N844 C847 1.350 . S
N845 S843 1.610 1_455 S
N845 C846 1.351 . S
C846 C840 1.428 . S
C846 N845 1.351 . S
C846 C847 1.434 . S
C847 C838 1.429 . S
C847 N844 1.350 . S
C847 C846 1.434 . S
C499 C417 1.525 . S
C497 C1 1.550 . S
C508 C68 1.548 1_545 S
C510 C449 1.525 . S
C519 C93 1.552 . S
C521 C472 1.543 . S
C532 C376 1.544 . S
C530 C139 1.550 . S
C543 C459 1.358 . S
C541 C8 1.530 . S
C554 C488 1.369 . S
C552 C61 1.525 1_545 S
C565 C392 1.377 . S
C563 C100 1.529 . S
C576 C427 1.361 . S
C574 C146 1.531 . S
C585 C15 1.531 . S
C587 C455 1.376 . S
C596 C192 1.525 . S
C598 C430 1.357 . S
C607 C107 1.530 . S
C609 C398 1.365 . S
C620 C487 1.371 . S
C618 C238 1.526 1_545 S
C631 C431 1.524 . S
C629 C22 1.554 . S
C640 C185 1.548 . S
C642 C399 1.527 . S
C651 C114 1.551 . S
C653 C486 1.545 . S
C664 C454 1.543 . S
C662 C231 1.548 1_545 S
C673 C277 1.552 . S
C675 C481 1.530 . S
C684 C206 1.547 . S
C686 C385 1.524 . S
C695 C330 1.551 . S
C697 C408 1.545 . S
C706 C252 1.546 . S
C708 C440 1.544 . S
C719 C395 1.357 . S
C717 C284 1.534 . S
C728 C199 1.525 . S
C730 C424 1.373 . S
C739 C323 1.530 . S
C741 C456 1.377 . S
C752 C491 1.364 . S
C750 C245 1.525 . S
C761 C291 1.532 . S
C763 C391 1.367 . S
C772 C54 1.523 . S
C774 C494 1.361 . S
C783 C344 1.530 . S
C785 C462 1.366 . S
C796 C423 1.372 . S
C794 C153 1.532 . S
C807 C495 1.524 . S
C805 C298 1.550 . S
C818 C463 1.524 . S
C816 C47 1.548 . S
C829 C422 1.542 . S
C827 C337 1.550 . S
C840 C390 1.544 . S
C838 C160 1.551 . S
