# Generated by pormake.
# Topology pth, (4,4)-cn, num edge types: 1
# Building blocks:
#     Node 0, Type 0, BuildingBlock: CEKHIL_clean_sbu_0, # of connection points: 4
#     Node 1, Type 0, BuildingBlock: CEKHIL_clean_sbu_0, # of connection points: 4
#     Node 2, Type 0, BuildingBlock: CEKHIL_clean_sbu_0, # of connection points: 4
#     Node 3, Type 1, BuildingBlock: NAWXER_clean_linker_0, # of connection points: 4
#     Node 4, Type 1, BuildingBlock: NAWXER_clean_linker_0, # of connection points: 4
#     Node 5, Type 1, BuildingBlock: NAWXER_clean_linker_0, # of connection points: 4
#     Edge 6, Type (0, 1), BuildingBlock: TEMPAE_clean_linker_10, # of connection points: 2
#     Edge 7, Type (0, 1), BuildingBlock: TEMPAE_clean_linker_10, # of connection points: 2
#     Edge 8, Type (0, 1), BuildingBlock: TEMPAE_clean_linker_10, # of connection points: 2
#     Edge 9, Type (0, 1), BuildingBlock: TEMPAE_clean_linker_10, # of connection points: 2
#     Edge 10, Type (0, 1), BuildingBlock: TEMPAE_clean_linker_10, # of connection points: 2
#     Edge 11, Type (0, 1), BuildingBlock: TEMPAE_clean_linker_10, # of connection points: 2
#     Edge 12, Type (0, 1), BuildingBlock: TEMPAE_clean_linker_10, # of connection points: 2
#     Edge 13, Type (0, 1), BuildingBlock: TEMPAE_clean_linker_10, # of connection points: 2
#     Edge 14, Type (0, 1), BuildingBlock: TEMPAE_clean_linker_10, # of connection points: 2
#     Edge 15, Type (0, 1), BuildingBlock: TEMPAE_clean_linker_10, # of connection points: 2
#     Edge 16, Type (0, 1), BuildingBlock: TEMPAE_clean_linker_10, # of connection points: 2
#     Edge 17, Type (0, 1), BuildingBlock: TEMPAE_clean_linker_10, # of connection points: 2
# Relax obj value: 0.006
# Max RMSD: 0.048
# Mean RMSD: 0.037
data_MOF--net-pth--node1-CEKHIL_clean_sbu_0--node2-NAWXER_clean_linker_0--edge1-TEMPAE_clean_linker_10
_symmetry_space_group_name_H-M    P1
_symmetry_Int_Tables_number       1
_symmetry_cell_setting            triclinic
loop_
_symmetry_equiv_pos_as_xyz
'x, y, z'
_cell_length_a     28.855264
_cell_length_b     28.943818
_cell_length_c     66.931003
_cell_angle_alpha  91.05259
_cell_angle_beta   89.992509
_cell_angle_gamma 120.33118
loop_
_atom_site_label
_atom_site_type_symbol
_atom_site_fract_x
_atom_site_fract_y
_atom_site_fract_z
_atom_type_partial_charge
Co0 Co 0.02444 0.03305 0.06008 0.0
O1 O 0.98869 0.98007 0.08013 0.0
O2 O 0.05575 0.98768 0.0616 0.0
C3 C 0.03353 0.10195 0.07931 0.0
O4 O 0.07356 0.08448 0.03889 0.0
Co5 Co 0.97467 0.09667 0.04289 0.0
O6 O 0.04785 0.14429 0.03275 0.0
C7 C 0.93566 0.98612 0.02825 0.0
C8 C 0.02202 0.96373 0.07595 0.0
C9 C 0.08125 0.12801 0.03094 0.0
O10 O 0.97134 0.98393 0.03907 0.0
O11 O 0.92883 0.02654 0.02833 0.0
O12 O 0.06747 0.08521 0.08085 0.0
O13 O 0.99324 0.07443 0.0673 0.0
Co14 Co 0.00994 0.03893 0.37896 0.0
O15 O 0.97478 0.05676 0.35868 0.0
O16 O 0.0406 0.11582 0.37835 0.0
C17 C 0.02139 0.98103 0.3596 0.0
O18 O 0.05791 0.03593 0.40071 0.0
Co19 Co 0.95791 0.92307 0.39443 0.0
O20 O 0.02534 0.9506 0.41001 0.0
C21 C 0.91613 0.99245 0.40796 0.0
C22 C 0.00752 0.10653 0.36357 0.0
C23 C 0.0606 0.00017 0.41099 0.0
O24 O 0.95544 0.03248 0.39935 0.0
O25 O 0.9076 0.94462 0.40631 0.0
O26 O 0.05461 0.03218 0.35865 0.0
O27 O 0.9801 0.96676 0.37085 0.0
Co28 Co 0.00728 0.03006 0.71348 0.0
O29 O 0.06449 0.06841 0.69497 0.0
O30 O 0.05094 0.99682 0.71127 0.0
C31 C 0.94206 0.0265 0.6938 0.0
O32 O 0.95161 0.97895 0.73316 0.0
Co33 Co 0.94481 0.0817 0.73135 0.0
O34 O 0.89604 0.00916 0.74152 0.0
C35 C 0.05377 0.11602 0.74648 0.0
C36 C 0.07898 0.0335 0.69836 0.0
C37 C 0.90953 0.97352 0.74203 0.0
O38 O 0.05391 0.07831 0.73604 0.0
O39 O 0.01566 0.12647 0.74554 0.0
O40 O 0.9578 0.99194 0.69139 0.0
O41 O 0.96892 0.06441 0.70684 0.0
C42 C 0.99505 0.37656 0.25756 0.0
C43 C 0.03706 0.39122 0.2714 0.0
C44 C 0.9974 0.41357 0.24388 0.0
C45 C 0.0415 0.46599 0.24399 0.0
C46 C 0.08169 0.44331 0.27121 0.0
C47 C 0.08353 0.48063 0.25778 0.0
C48 C 0.04157 0.5068 0.23105 0.0
C49 C 0.07682 0.40718 0.18724 0.0
C50 C 0.03354 0.37599 0.17417 0.0
C51 C 0.07623 0.4462 0.19968 0.0
C52 C 0.03273 0.45509 0.19896 0.0
C53 C 0.98937 0.38386 0.1739 0.0
C54 C 0.98932 0.42366 0.18601 0.0
C55 C 0.03465 0.50032 0.2102 0.0
C56 C 0.07032 0.71493 0.18408 0.0
C57 C 0.03581 0.6966 0.16723 0.0
C58 C 0.07113 0.67874 0.19747 0.0
C59 C 0.03577 0.62342 0.19485 0.0
C60 C 0.00202 0.64102 0.1643 0.0
C61 C 0.00172 0.60509 0.17799 0.0
C62 C 0.03637 0.5836 0.20841 0.0
C63 C 0.00745 0.69235 0.24953 0.0
C64 C 0.04055 0.71226 0.26673 0.0
C65 C 0.00765 0.65267 0.23733 0.0
C66 C 0.04286 0.63375 0.24145 0.0
C67 C 0.07462 0.69201 0.27104 0.0
C68 C 0.07609 0.65377 0.25849 0.0
C69 C 0.04216 0.58959 0.22953 0.0
H70 H 0.96033 0.33653 0.25741 0.0
H71 H 0.96406 0.40173 0.23362 0.0
H72 H 0.11439 0.45554 0.28182 0.0
H73 H 0.11761 0.52107 0.25823 0.0
H74 H 0.11125 0.40166 0.18766 0.0
H75 H 0.11049 0.47067 0.20934 0.0
H76 H 0.95576 0.36043 0.16383 0.0
H77 H 0.95566 0.43033 0.18514 0.0
H78 H 0.09671 0.75729 0.18706 0.0
H79 H 0.09962 0.69419 0.20979 0.0
H80 H 0.97608 0.62485 0.15128 0.0
H81 H 0.97485 0.56262 0.17528 0.0
H82 H 0.98101 0.70706 0.24544 0.0
H83 H 0.9797 0.63643 0.22486 0.0
H84 H 0.09954 0.70462 0.28438 0.0
H85 H 0.10282 0.63914 0.26233 0.0
N86 N 0.04498 0.55101 0.23987 0.0
N87 N 0.03242 0.53887 0.19972 0.0
C88 C 0.68828 0.07664 0.51901 0.0
C89 C 0.67041 0.03858 0.50323 0.0
C90 C 0.65151 0.07858 0.53214 0.0
C91 C 0.59623 0.04203 0.52988 0.0
C92 C 0.61512 0.00198 0.50109 0.0
C93 C 0.57849 0.00386 0.5142 0.0
C94 C 0.55606 0.04549 0.54264 0.0
C95 C 0.64625 0.0024 0.587 0.0
C96 C 0.67825 0.04469 0.60039 0.0
C97 C 0.60928 0.00559 0.57445 0.0
C98 C 0.60333 0.05082 0.57532 0.0
C99 C 0.67303 0.09037 0.60094 0.0
C100 C 0.63529 0.09308 0.58868 0.0
C101 C 0.5607 0.0521 0.56361 0.0
C102 C 0.34365 0.00259 0.58992 0.0
C103 C 0.35743 0.04169 0.60517 0.0
C104 C 0.38221 0.00637 0.57633 0.0
C105 C 0.43523 0.0494 0.57767 0.0
C106 C 0.41053 0.08497 0.60629 0.0
C107 C 0.44907 0.08847 0.5928 0.0
C108 C 0.47757 0.05135 0.56467 0.0
C109 C 0.36645 0.07363 0.52346 0.0
C110 C 0.34833 0.04009 0.50627 0.0
C111 C 0.40655 0.07539 0.53579 0.0
C112 C 0.42828 0.04241 0.53158 0.0
C113 C 0.37103 0.00801 0.50194 0.0
C114 C 0.41012 0.00894 0.51447 0.0
C115 C 0.47306 0.04531 0.5436 0.0
H116 H 0.73056 0.10584 0.52089 0.0
H117 H 0.66625 0.10962 0.54367 0.0
H118 H 0.60011 0.97169 0.48926 0.0
H119 H 0.53607 0.9754 0.51207 0.0
H120 H 0.64971 0.96684 0.58633 0.0
H121 H 0.58432 0.97217 0.56447 0.0
H122 H 0.69706 0.12327 0.61126 0.0
H123 H 0.6308 0.12802 0.5897 0.0
H124 H 0.30343 0.96828 0.58879 0.0
H125 H 0.37094 0.97493 0.56511 0.0
H126 H 0.42241 0.11628 0.61759 0.0
H127 H 0.48986 0.12177 0.59421 0.0
H128 H 0.34985 0.09872 0.52742 0.0
H129 H 0.42114 0.10342 0.54834 0.0
H130 H 0.35949 0.98275 0.48861 0.0
H131 H 0.42667 0.98369 0.5106 0.0
N132 N 0.5125 0.04242 0.53354 0.0
N133 N 0.52144 0.05495 0.57377 0.0
C134 C 0.38627 0.33785 0.85342 0.0
C135 C 0.36202 0.35492 0.8394 0.0
C136 C 0.42821 0.37515 0.86577 0.0
C137 C 0.44607 0.43005 0.86449 0.0
C138 C 0.37987 0.40982 0.83828 0.0
C139 C 0.42155 0.44691 0.8506 0.0
C140 C 0.49227 0.47095 0.87647 0.0
C141 C 0.36465 0.37479 0.92129 0.0
C142 C 0.37975 0.35063 0.93597 0.0
C143 C 0.40286 0.41233 0.90851 0.0
C144 C 0.45688 0.42585 0.90988 0.0
C145 C 0.43389 0.36443 0.93741 0.0
C146 C 0.47207 0.40181 0.92453 0.0
C147 C 0.49834 0.46816 0.8973 0.0
C148 C 0.6608 0.68858 0.92185 0.0
C149 C 0.695 0.68085 0.93449 0.0
C150 C 0.62486 0.64729 0.90902 0.0
C151 C 0.62205 0.59743 0.90886 0.0
C152 C 0.69306 0.63139 0.93403 0.0
C153 C 0.65622 0.58966 0.9215 0.0
C154 C 0.58041 0.5523 0.89679 0.0
C155 C 0.70483 0.66007 0.85241 0.0
C156 C 0.68516 0.67692 0.83661 0.0
C157 C 0.66933 0.6212 0.86557 0.0
C158 C 0.61355 0.59933 0.86341 0.0
C159 C 0.62949 0.65521 0.83455 0.0
C160 C 0.59416 0.6169 0.84777 0.0
C161 C 0.57457 0.55483 0.87596 0.0
H162 H 0.37375 0.29585 0.85447 0.0
H163 H 0.44736 0.36121 0.87601 0.0
H164 H 0.36148 0.4242 0.82788 0.0
H165 H 0.43465 0.48902 0.8493 0.0
H166 H 0.32352 0.36597 0.92009 0.0
H167 H 0.3903 0.43177 0.8979 0.0
H168 H 0.44674 0.34639 0.94852 0.0
H169 H 0.51361 0.41212 0.92606 0.0
H170 H 0.6617 0.72646 0.92203 0.0
H171 H 0.59818 0.65378 0.89962 0.0
H172 H 0.71892 0.62462 0.94378 0.0
H173 H 0.65418 0.55126 0.92173 0.0
H174 H 0.74755 0.67574 0.85422 0.0
H175 H 0.68555 0.60716 0.87698 0.0
H176 H 0.6132 0.66794 0.82268 0.0
H177 H 0.55141 0.60061 0.84566 0.0
N178 N 0.53062 0.51411 0.86672 0.0
N179 N 0.54234 0.50893 0.90661 0.0
C180 C 0.00947 0.17191 0.08722 0.0
C181 C 0.03741 0.14572 0.09219 0.0
C182 C 0.01045 0.21139 0.10003 0.0
C183 C 0.03887 0.22379 0.11844 0.0
C184 C 0.06751 0.19771 0.12342 0.0
C185 C 0.06699 0.15945 0.11011 0.0
C186 C 0.98056 0.23935 0.09397 0.0
C187 C 0.09738 0.20902 0.14309 0.0
C188 C 0.07721 0.35374 0.14648 0.0
C189 C 0.03534 0.33685 0.1602 0.0
C190 C 0.07845 0.31753 0.13256 0.0
C191 C 0.03752 0.26298 0.13276 0.0
C192 C 0.99552 0.24567 0.14682 0.0
C193 C 0.99457 0.28305 0.16022 0.0
C194 C 0.12317 0.33771 0.11752 0.0
C195 C 0.95185 0.18764 0.1478 0.0
H196 H 0.98681 0.16151 0.07332 0.0
H197 H 0.0883 0.13894 0.11406 0.0
H198 H 0.94742 0.22968 0.10455 0.0
H199 H 0.00787 0.28339 0.09469 0.0
H200 H 0.96335 0.22755 0.07863 0.0
H201 H 0.11798 0.18558 0.14462 0.0
H202 H 0.12775 0.25221 0.1446 0.0
H203 H 0.06893 0.19919 0.15563 0.0
H204 H 0.10837 0.39559 0.14639 0.0
H205 H 0.96234 0.27018 0.17091 0.0
H206 H 0.10607 0.32828 0.10214 0.0
H207 H 0.14653 0.31718 0.11939 0.0
H208 H 0.15106 0.3816 0.11902 0.0
H209 H 0.92951 0.17442 0.13338 0.0
H210 H 0.92287 0.18055 0.15994 0.0
H211 H 0.9699 0.16222 0.15028 0.0
C212 C 0.83733 0.95915 0.43081 0.0
C213 C 0.88013 0.00206 0.42107 0.0
C214 C 0.80427 0.96748 0.44395 0.0
C215 C 0.81402 0.02001 0.44748 0.0
C216 C 0.85664 0.0635 0.43756 0.0
C217 C 0.8892 0.05404 0.42447 0.0
C218 C 0.75909 0.91999 0.45419 0.0
C219 C 0.86813 0.12007 0.44093 0.0
C220 C 0.69689 0.02986 0.46832 0.0
C221 C 0.70896 0.03715 0.48886 0.0
C222 C 0.7315 0.02576 0.45462 0.0
C223 C 0.77938 0.02903 0.4616 0.0
C224 C 0.79254 0.03782 0.48224 0.0
C225 C 0.75717 0.04182 0.49562 0.0
C226 C 0.71617 0.01665 0.43272 0.0
C227 C 0.84319 0.04141 0.49025 0.0
H228 H 0.82976 0.9188 0.42833 0.0
H229 H 0.92209 0.08752 0.41706 0.0
H230 H 0.76473 0.92533 0.47064 0.0
H231 H 0.72018 0.9171 0.45057 0.0
H232 H 0.75662 0.88164 0.44972 0.0
H233 H 0.90221 0.14938 0.43183 0.0
H234 H 0.83203 0.12258 0.43718 0.0
H235 H 0.87767 0.13174 0.45694 0.0
H236 H 0.66016 0.0272 0.46296 0.0
H237 H 0.76654 0.04708 0.51148 0.0
H238 H 0.70967 0.97705 0.42769 0.0
H239 H 0.74922 0.04737 0.42367 0.0
H240 H 0.67903 0.01793 0.42959 0.0
H241 H 0.84148 0.00258 0.48773 0.0
H242 H 0.84917 0.05152 0.50649 0.0
H243 H 0.87865 0.07219 0.48216 0.0
C244 C 0.83012 0.91875 0.76362 0.0
C245 C 0.8769 0.92573 0.75439 0.0
C246 C 0.80064 0.87627 0.77653 0.0
C247 C 0.81806 0.83949 0.78033 0.0
C248 C 0.86446 0.84537 0.77075 0.0
C249 C 0.89337 0.88845 0.75789 0.0
C250 C 0.75124 0.87132 0.78638 0.0
C251 C 0.88402 0.80669 0.77436 0.0
C252 C 0.76747 0.76421 0.82879 0.0
C253 C 0.72217 0.71663 0.82211 0.0
C254 C 0.80027 0.80385 0.81525 0.0
C255 C 0.78768 0.79541 0.79456 0.0
C256 C 0.74329 0.74645 0.78768 0.0
C257 C 0.71095 0.70777 0.80155 0.0
C258 C 0.84704 0.85567 0.82318 0.0
C259 C 0.72885 0.73566 0.76574 0.0
H260 H 0.81672 0.94703 0.761 0.0
H261 H 0.92941 0.89339 0.75088 0.0
H262 H 0.71574 0.83163 0.78271 0.0
H263 H 0.75653 0.87411 0.80286 0.0
H264 H 0.74267 0.90288 0.78165 0.0
H265 H 0.91953 0.81553 0.76517 0.0
H266 H 0.89494 0.80842 0.79036 0.0
H267 H 0.85151 0.76512 0.77091 0.0
H268 H 0.7761 0.77128 0.84468 0.0
H269 H 0.67643 0.67062 0.79632 0.0
H270 H 0.83949 0.88904 0.82048 0.0
H271 H 0.88429 0.86482 0.81518 0.0
H272 H 0.85379 0.85445 0.83946 0.0
H273 H 0.71576 0.76336 0.76037 0.0
H274 H 0.69605 0.69389 0.76269 0.0
H275 H 0.76446 0.74317 0.75691 0.0
C276 C 0.0412 0.88913 0.08023 0.0
C277 C 0.02406 0.92298 0.08823 0.0
C278 C 0.04337 0.85072 0.09216 0.0
C279 C 0.02996 0.84768 0.11266 0.0
C280 C 0.01355 0.88255 0.12081 0.0
C281 C 0.00993 0.91911 0.10841 0.0
C282 C 0.05933 0.81302 0.0828 0.0
C283 C 0.00044 0.88175 0.14271 0.0
C284 C 0.9871 0.72271 0.14271 0.0
C285 C 0.03493 0.73494 0.15274 0.0
C286 C 0.98558 0.75798 0.12898 0.0
C287 C 0.03245 0.80782 0.12569 0.0
C288 C 0.08079 0.82077 0.13575 0.0
C289 C 0.08167 0.78387 0.14887 0.0
C290 C 0.93346 0.74219 0.11823 0.0
C291 C 0.13131 0.87415 0.13304 0.0
H292 H 0.05195 0.89205 0.0646 0.0
H293 H 0.99733 0.94579 0.11468 0.0
H294 H 0.09597 0.81809 0.09026 0.0
H295 H 0.027 0.77096 0.08493 0.0
H296 H 0.06719 0.81967 0.06655 0.0
H297 H 0.99062 0.91315 0.14685 0.0
H298 H 0.96574 0.84218 0.14646 0.0
H299 H 0.035 0.88783 0.15201 0.0
H300 H 0.95031 0.68582 0.14577 0.0
H301 H 0.11922 0.7936 0.15607 0.0
H302 H 0.94019 0.74759 0.1019 0.0
H303 H 0.91792 0.76844 0.12334 0.0
H304 H 0.90221 0.69994 0.12089 0.0
H305 H 0.14263 0.87972 0.11706 0.0
H306 H 0.16566 0.87807 0.14193 0.0
H307 H 0.12404 0.90699 0.13761 0.0
C308 C 0.15769 0.03656 0.41828 0.0
C309 C 0.10536 0.01669 0.42515 0.0
C310 C 0.19916 0.04492 0.43153 0.0
C311 C 0.18792 0.03436 0.45211 0.0
C312 C 0.13555 0.01719 0.45919 0.0
C313 C 0.09464 0.00764 0.44554 0.0
C314 C 0.25412 0.062 0.42333 0.0
C315 C 0.1222 0.00688 0.48106 0.0
C316 C 0.26945 0.99105 0.48278 0.0
C317 C 0.30665 0.03889 0.49268 0.0
C318 C 0.23156 0.98947 0.46926 0.0
C319 C 0.22938 0.03648 0.46595 0.0
C320 C 0.26583 0.08469 0.47615 0.0
C321 C 0.30445 0.08551 0.48919 0.0
C322 C 0.1938 0.93732 0.4585 0.0
C323 C 0.26389 0.13533 0.47335 0.0
H324 H 0.16551 0.04292 0.40243 0.0
H325 H 0.05393 0.99226 0.45074 0.0
H326 H 0.28541 0.09714 0.43189 0.0
H327 H 0.26286 0.02905 0.42499 0.0
H328 H 0.25732 0.07228 0.40728 0.0
H329 H 0.08147 0.99991 0.48442 0.0
H330 H 0.12403 0.97113 0.48554 0.0
H331 H 0.15203 0.04127 0.49036 0.0
H332 H 0.26964 0.95443 0.48565 0.0
H333 H 0.33334 0.12295 0.49644 0.0
H334 H 0.19644 0.94318 0.44211 0.0
H335 H 0.15178 0.92366 0.46282 0.0
H336 H 0.20272 0.90516 0.46189 0.0
H337 H 0.27116 0.14713 0.45748 0.0
H338 H 0.2941 0.16917 0.4828 0.0
H339 H 0.22337 0.12824 0.4771 0.0
C340 C 0.10018 0.18934 0.77234 0.0
C341 C 0.09947 0.14857 0.7604 0.0
C342 C 0.1431 0.22068 0.78549 0.0
C343 C 0.18652 0.21117 0.78678 0.0
C344 C 0.18599 0.16986 0.77495 0.0
C345 C 0.14251 0.13908 0.7619 0.0
C346 C 0.14226 0.26446 0.79784 0.0
C347 C 0.23162 0.15858 0.77593 0.0
C348 C 0.31863 0.32822 0.80553 0.0
C349 C 0.31865 0.31609 0.82573 0.0
C350 C 0.27649 0.29378 0.7926 0.0
C351 C 0.23329 0.24588 0.80002 0.0
C352 C 0.23375 0.23257 0.82025 0.0
C353 C 0.27648 0.26787 0.83288 0.0
C354 C 0.27763 0.3093 0.7711 0.0
C355 C 0.18838 0.18181 0.82868 0.0
H356 H 0.0672 0.19705 0.7714 0.0
H357 H 0.14246 0.10769 0.75279 0.0
H358 H 0.14609 0.2585 0.81395 0.0
H359 H 0.17702 0.3039 0.79396 0.0
H360 H 0.10484 0.26579 0.79549 0.0
H361 H 0.22438 0.12399 0.7662 0.0
H362 H 0.26946 0.19432 0.77126 0.0
H363 H 0.23769 0.15023 0.79152 0.0
H364 H 0.35162 0.36495 0.79982 0.0
H365 H 0.2761 0.25845 0.8485 0.0
H366 H 0.24307 0.315 0.76804 0.0
H367 H 0.27362 0.27679 0.76091 0.0
H368 H 0.31522 0.34682 0.76749 0.0
H369 H 0.15067 0.1832 0.82818 0.0
H370 H 0.19628 0.17575 0.84439 0.0
H371 H 0.18168 0.14665 0.81948 0.0
C372 C 0.88684 0.99814 0.66254 0.0
C373 C 0.89992 0.0256 0.68102 0.0
C374 C 0.84997 0.00017 0.64945 0.0
C375 C 0.82462 0.02927 0.65521 0.0
C376 C 0.83638 0.05562 0.67415 0.0
C377 C 0.87447 0.05403 0.68674 0.0
C378 C 0.83932 0.97244 0.62923 0.0
C379 C 0.80916 0.08594 0.68102 0.0
C380 C 0.77018 0.08015 0.6148 0.0
C381 C 0.71581 0.0405 0.61424 0.0
C382 C 0.80616 0.07673 0.62795 0.0
C383 C 0.78689 0.03329 0.64117 0.0
C384 C 0.73178 0.99347 0.64081 0.0
C385 C 0.69698 0.99724 0.62715 0.0
C386 C 0.86483 0.11932 0.62758 0.0
C387 C 0.70953 0.9472 0.65495 0.0
H388 H 0.90675 0.97641 0.65801 0.0
H389 H 0.88433 0.07504 0.70108 0.0
H390 H 0.79588 0.94309 0.62732 0.0
H391 H 0.85067 0.00225 0.61728 0.0
H392 H 0.86205 0.95116 0.6271 0.0
H393 H 0.82033 0.10145 0.69663 0.0
H394 H 0.82028 0.12023 0.6711 0.0
H395 H 0.7649 0.05962 0.68 0.0
H396 H 0.78462 0.11343 0.60471 0.0
H397 H 0.65473 0.9669 0.62681 0.0
H398 H 0.88958 0.10061 0.62449 0.0
H399 H 0.8776 0.13987 0.64239 0.0
H400 H 0.87349 0.14979 0.61609 0.0
H401 H 0.72925 0.92319 0.65242 0.0
H402 H 0.66545 0.92044 0.65312 0.0
H403 H 0.71833 0.96252 0.67063 0.0
C404 C 0.88853 0.88815 0.01951 0.0
C405 C 0.90145 0.94026 0.01471 0.0
C406 C 0.85519 0.84436 0.00688 0.0
C407 C 0.83563 0.85316 0.98879 0.0
C408 C 0.84957 0.90586 0.98369 0.0
C409 C 0.8817 0.94865 0.99683 0.0
C410 C 0.84013 0.78862 0.01307 0.0
C411 C 0.83061 0.91709 0.96431 0.0
C412 C 0.78687 0.74669 0.94734 0.0
C413 C 0.73114 0.72377 0.94868 0.0
C414 C 0.82151 0.78883 0.96035 0.0
C415 C 0.79963 0.80728 0.97533 0.0
C416 C 0.74318 0.7831 0.97701 0.0
C417 C 0.70961 0.74207 0.96347 0.0
C418 C 0.88143 0.81444 0.95777 0.0
C419 C 0.71825 0.80075 0.99304 0.0
H420 H 0.90351 0.88149 0.03337 0.0
H421 H 0.8921 0.98894 0.99295 0.0
H422 H 0.79583 0.76354 0.01424 0.0
H423 H 0.85302 0.76949 0.00156 0.0
H424 H 0.85853 0.78855 0.02764 0.0
H425 H 0.84715 0.96059 0.96213 0.0
H426 H 0.84263 0.90069 0.95151 0.0
H427 H 0.78614 0.89686 0.96404 0.0
H428 H 0.80328 0.73247 0.9358 0.0
H429 H 0.66638 0.72384 0.96452 0.0
H430 H 0.90043 0.81208 0.97182 0.0
H431 H 0.89894 0.85751 0.95448 0.0
H432 H 0.89195 0.79513 0.94549 0.0
H433 H 0.73394 0.79891 0.00796 0.0
H434 H 0.67376 0.77564 0.99307 0.0
H435 H 0.72933 0.84296 0.99076 0.0
C436 C 0.04676 0.95678 0.32732 0.0
C437 C 0.02688 0.94243 0.34668 0.0
C438 C 0.04895 0.91962 0.3142 0.0
C439 C 0.03286 0.86758 0.32092 0.0
C440 C 0.01434 0.8535 0.34073 0.0
C441 C 0.01049 0.89086 0.35327 0.0
C442 C 0.0671 0.93559 0.29299 0.0
C443 C 0.99875 0.79911 0.34867 0.0
C444 C 0.99088 0.75381 0.28296 0.0
C445 C 0.03874 0.7528 0.28041 0.0
C446 C 0.98867 0.79148 0.29583 0.0
C447 C 0.03477 0.82776 0.3071 0.0
C448 C 0.08291 0.82658 0.30493 0.0
C449 C 0.08465 0.79005 0.29131 0.0
C450 C 0.937 0.79258 0.29728 0.0
C451 C 0.13257 0.86374 0.31707 0.0
H452 H 0.05883 0.99659 0.32219 0.0
H453 H 0.9954 0.88003 0.36832 0.0
H454 H 0.10297 0.93213 0.28985 0.0
H455 H 0.03499 0.90804 0.28238 0.0
H456 H 0.07709 0.97724 0.29002 0.0
H457 H 0.98836 0.79567 0.36477 0.0
H458 H 0.9637 0.76755 0.34016 0.0
H459 H 0.03225 0.7911 0.34663 0.0
H460 H 0.95469 0.7248 0.27508 0.0
H461 H 0.12233 0.79099 0.28923 0.0
H462 H 0.9446 0.83334 0.29413 0.0
H463 H 0.92114 0.78298 0.31267 0.0
H464 H 0.90567 0.76363 0.2867 0.0
H465 H 0.14703 0.90588 0.31311 0.0
H466 H 0.16568 0.85529 0.31461 0.0
H467 H 0.12294 0.86 0.33322 0.0
C468 C 0.12937 0.98918 0.68602 0.0
C469 C 0.12341 0.03433 0.68704 0.0
C470 C 0.16814 0.98812 0.67359 0.0
C471 C 0.20203 0.03351 0.66215 0.0
C472 C 0.19745 0.07987 0.66374 0.0
C473 C 0.15802 0.07958 0.67607 0.0
C474 C 0.17163 0.93786 0.67218 0.0
C475 C 0.23331 0.12938 0.65203 0.0
C476 C 0.33135 0.05135 0.64016 0.0
C477 C 0.31688 0.03724 0.61998 0.0
C478 C 0.29414 0.04932 0.65415 0.0
C479 C 0.24094 0.03219 0.64788 0.0
C480 C 0.22564 0.01653 0.62767 0.0
C481 C 0.26381 0.0195 0.61396 0.0
C482 C 0.31207 0.0666 0.67554 0.0
C483 C 0.16919 0.99781 0.62043 0.0
H484 H 0.10256 0.95402 0.69441 0.0
H485 H 0.15385 0.11475 0.67689 0.0
H486 H 0.1609 0.92061 0.65679 0.0
H487 H 0.21336 0.94732 0.6752 0.0
H488 H 0.14441 0.90708 0.68282 0.0
H489 H 0.22659 0.16308 0.65579 0.0
H490 H 0.27611 0.14257 0.65498 0.0
H491 H 0.22583 0.12015 0.63579 0.0
H492 H 0.37192 0.06407 0.64506 0.0
H493 H 0.25233 0.00907 0.59839 0.0
H494 H 0.28574 0.03429 0.68581 0.0
H495 H 0.30849 0.10207 0.67947 0.0
H496 H 0.35429 0.07696 0.67818 0.0
H497 H 0.13973 0.96467 0.62976 0.0
H498 H 0.1628 0.9838 0.60457 0.0
H499 H 0.16064 0.03102 0.62192 0.0
C500 C 0.16134 0.13842 0.01206 0.0
C501 C 0.12916 0.15946 0.01834 0.0
C502 C 0.2046 0.16689 0.99907 0.0
C503 C 0.21608 0.21767 0.99231 0.0
C504 C 0.18464 0.23965 0.99901 0.0
C505 C 0.14164 0.21033 0.01188 0.0
C506 C 0.23726 0.14219 0.99223 0.0
C507 C 0.19576 0.29385 0.99229 0.0
C508 C 0.35137 0.3177 0.97076 0.0
C509 C 0.33939 0.31303 0.95025 0.0
C510 C 0.3122 0.28543 0.9846 0.0
C511 C 0.25982 0.24752 0.97775 0.0
C512 C 0.24809 0.24123 0.957 0.0
C513 C 0.28797 0.27412 0.94351 0.0
C514 C 0.32623 0.29352 0.0066 0.0
C515 C 0.19283 0.20105 0.94908 0.0
H516 H 0.15206 0.09917 0.01693 0.0
H517 H 0.11741 0.22727 0.01674 0.0
H518 H 0.23291 0.1352 0.9758 0.0
H519 H 0.28049 0.16999 0.99549 0.0
H520 H 0.22474 0.1035 0.99952 0.0
H521 H 0.16877 0.3061 0.99944 0.0
H522 H 0.23795 0.32472 0.99585 0.0
H523 H 0.19052 0.29309 0.97584 0.0
H524 H 0.39086 0.34804 0.9761 0.0
H525 H 0.27872 0.26979 0.92765 0.0
H526 H 0.31431 0.25465 0.01357 0.0
H527 H 0.30364 0.31034 0.0142 0.0
H528 H 0.36982 0.32116 0.00937 0.0
H529 H 0.17984 0.16083 0.95504 0.0
H530 H 0.19136 0.19824 0.9325 0.0
H531 H 0.16346 0.21265 0.95419 0.0
C532 C 0.03673 0.20323 0.35875 0.0
C533 C 0.0097 0.15006 0.35162 0.0
C534 C 0.04116 0.2448 0.34684 0.0
C535 C 0.01916 0.2329 0.32722 0.0
C536 C 0.9916 0.17921 0.32004 0.0
C537 C 0.98671 0.13845 0.33241 0.0
C538 C 0.06974 0.30143 0.35515 0.0
C539 C 0.96839 0.1649 0.2991 0.0
C540 C 0.98895 0.3271 0.29872 0.0
C541 C 0.0337 0.35249 0.28629 0.0
C542 C 0.98471 0.28964 0.31271 0.0
C543 C 0.02562 0.2764 0.31392 0.0
C544 C 0.07116 0.30237 0.30149 0.0
C545 C 0.07492 0.34061 0.28797 0.0
C546 C 0.9361 0.26367 0.32597 0.0
C547 C 0.11507 0.28853 0.30203 0.0
H548 H 0.05443 0.21234 0.37362 0.0
H549 H 0.96615 0.09747 0.32674 0.0
H550 H 0.10608 0.32665 0.34625 0.0
H551 H 0.04332 0.31886 0.354 0.0
H552 H 0.08202 0.30362 0.37103 0.0
H553 H 0.94836 0.1212 0.29578 0.0
H554 H 0.9387 0.17803 0.29696 0.0
H555 H 0.00073 0.18616 0.28807 0.0
H556 H 0.95739 0.33685 0.29755 0.0
H557 H 0.10941 0.36019 0.27828 0.0
H558 H 0.9488 0.26771 0.34186 0.0
H559 H 0.91193 0.22024 0.32229 0.0
H560 H 0.91008 0.28146 0.32428 0.0
H561 H 0.1315 0.29395 0.31742 0.0
H562 H 0.14852 0.31347 0.29182 0.0
H563 H 0.09828 0.24579 0.29767 0.0
loop_
_geom_bond_atom_site_label_1
_geom_bond_atom_site_label_2
_geom_bond_distance
_geom_bond_site_symmetry_2
_ccdc_geom_bond_type
Co0 O1 2.216 1_445 S
Co0 O2 2.091 1_545 S
Co0 O4 2.004 . S
Co0 O10 2.021 1_445 S
Co0 O12 2.137 . S
Co0 O13 2.244 1_455 S
O1 Co0 2.216 1_665 S
O1 C8 1.247 1_655 S
O2 Co0 2.091 1_565 S
O2 C8 1.261 . S
C3 O12 1.247 . S
C3 O13 1.272 1_455 S
O4 Co0 2.004 . S
O4 C9 1.259 . S
Co5 O6 2.061 1_655 S
Co5 O11 2.052 . S
Co5 O13 2.135 . S
O6 Co5 2.061 1_455 S
O6 C9 1.235 . S
C7 O10 1.238 . S
C7 O11 1.241 1_565 S
C8 O1 1.247 1_455 S
C8 O2 1.261 . S
C9 O4 1.259 . S
C9 O6 1.235 . S
O10 Co0 2.021 1_665 S
O10 C7 1.238 . S
O11 Co5 2.052 . S
O11 C7 1.241 1_545 S
O12 Co0 2.137 . S
O12 C3 1.247 . S
O13 Co0 2.244 1_655 S
O13 C3 1.272 1_655 S
O13 Co5 2.135 . S
Co14 O15 2.216 1_455 S
Co14 O16 2.091 . S
Co14 O18 2.004 . S
Co14 O24 2.003 1_455 S
Co14 O26 2.137 . S
Co14 O27 2.244 1_445 S
O15 Co14 2.216 1_655 S
O15 C22 1.247 1_655 S
O16 Co14 2.091 . S
O16 C22 1.261 . S
C17 O26 1.247 1_565 S
C17 O27 1.264 1_455 S
O18 Co14 2.004 . S
O18 C23 1.259 . S
Co19 O20 2.061 1_655 S
Co19 O25 2.052 . S
Co19 O27 2.135 . S
O20 Co19 2.061 1_455 S
O20 C23 1.235 1_565 S
C21 O24 1.251 . S
C21 O25 1.241 1_545 S
C22 O15 1.247 1_455 S
C22 O16 1.261 . S
C23 O18 1.259 . S
C23 O20 1.235 1_545 S
O24 Co14 2.003 1_655 S
O24 C21 1.251 . S
O25 Co19 2.052 . S
O25 C21 1.241 1_565 S
O26 Co14 2.137 . S
O26 C17 1.247 1_545 S
O27 Co14 2.244 1_665 S
O27 C17 1.264 1_655 S
O27 Co19 2.135 . S
Co28 O29 2.216 . S
Co28 O30 2.091 1_545 S
Co28 O32 2.004 1_445 S
Co28 O38 2.021 . S
Co28 O40 2.137 1_445 S
Co28 O41 2.244 1_455 S
O29 Co28 2.216 . S
O29 C36 1.247 . S
O30 Co28 2.091 1_565 S
O30 C36 1.261 1_565 S
C31 O40 1.247 1_545 S
C31 O41 1.272 . S
O32 Co28 2.004 1_665 S
O32 C37 1.259 . S
Co33 O34 2.063 . S
Co33 O39 2.052 1_655 S
Co33 O41 2.135 . S
O34 Co33 2.063 . S
O34 C37 1.233 1_545 S
C35 O38 1.238 . S
C35 O39 1.241 . S
C36 O29 1.247 . S
C36 O30 1.261 1_545 S
C37 O32 1.259 . S
C37 O34 1.233 1_565 S
O38 Co28 2.021 . S
O38 C35 1.238 . S
O39 Co33 2.052 1_455 S
O39 C35 1.241 . S
O40 Co28 2.137 1_665 S
O40 C31 1.247 1_565 S
O41 Co28 2.244 1_655 S
O41 C31 1.272 . S
O41 Co33 2.135 . S
C42 C43 1.384 1_655 S
C42 C44 1.384 . S
C42 H70 0.931 . S
C43 C42 1.384 1_455 S
C43 C46 1.382 . S
C44 C42 1.384 . S
C44 C45 1.381 1_655 S
C44 H71 0.930 . S
C45 C44 1.381 1_455 S
C45 C47 1.381 . S
C45 C48 1.487 . S
C46 C43 1.382 . S
C46 C47 1.387 . S
C46 H72 0.930 . S
C47 C45 1.381 . S
C47 C46 1.387 . S
C47 H73 0.931 . S
C48 C45 1.487 . S
C48 C55 1.399 . S
C48 N86 1.343 . S
C49 C50 1.384 . S
C49 C51 1.384 . S
C49 H74 0.931 . S
C50 C49 1.384 . S
C50 C53 1.382 1_455 S
C51 C49 1.384 . S
C51 C52 1.381 . S
C51 H75 0.930 . S
C52 C51 1.381 . S
C52 C54 1.381 1_455 S
C52 C55 1.487 . S
C53 C50 1.382 1_655 S
C53 C54 1.387 . S
C53 H76 0.930 . S
C54 C52 1.381 1_655 S
C54 C53 1.387 . S
C54 H77 0.931 . S
C55 C48 1.399 . S
C55 C52 1.487 . S
C55 N87 1.343 . S
C56 C57 1.384 . S
C56 C58 1.384 . S
C56 H78 0.931 . S
C57 C56 1.384 . S
C57 C60 1.382 1_455 S
C58 C56 1.384 . S
C58 C59 1.381 . S
C58 H79 0.930 . S
C59 C58 1.381 . S
C59 C61 1.381 1_455 S
C59 C62 1.487 . S
C60 C57 1.382 1_655 S
C60 C61 1.387 . S
C60 H80 0.930 . S
C61 C59 1.381 1_655 S
C61 C60 1.387 . S
C61 H81 0.931 . S
C62 C59 1.487 . S
C62 C69 1.399 . S
C62 N87 1.343 . S
C63 C64 1.384 1_655 S
C63 C65 1.384 . S
C63 H82 0.931 . S
C64 C63 1.384 1_455 S
C64 C67 1.382 . S
C65 C63 1.384 . S
C65 C66 1.381 1_655 S
C65 H83 0.930 . S
C66 C65 1.381 1_455 S
C66 C68 1.381 . S
C66 C69 1.487 . S
C67 C64 1.382 . S
C67 C68 1.387 . S
C67 H84 0.930 . S
C68 C66 1.381 . S
C68 C67 1.387 . S
C68 H85 0.931 . S
C69 C62 1.399 . S
C69 C66 1.487 . S
C69 N86 1.343 . S
H70 C42 0.931 . S
H71 C44 0.930 . S
H72 C46 0.930 . S
H73 C47 0.931 . S
H74 C49 0.931 . S
H75 C51 0.930 . S
H76 C53 0.930 . S
H77 C54 0.931 . S
H78 C56 0.931 . S
H79 C58 0.930 . S
H80 C60 0.930 . S
H81 C61 0.931 . S
H82 C63 0.931 . S
H83 C65 0.930 . S
H84 C67 0.930 . S
H85 C68 0.931 . S
N86 C48 1.343 . S
N86 C69 1.343 . S
N87 C55 1.343 . S
N87 C62 1.343 . S
C88 C89 1.384 . S
C88 C90 1.384 . S
C88 H116 0.931 . S
C89 C88 1.384 . S
C89 C92 1.382 1_545 S
C90 C88 1.384 . S
C90 C91 1.381 . S
C90 H117 0.930 . S
C91 C90 1.381 . S
C91 C93 1.381 1_545 S
C91 C94 1.487 . S
C92 C89 1.382 1_565 S
C92 C93 1.387 . S
C92 H118 0.930 . S
C93 C91 1.381 1_565 S
C93 C92 1.387 . S
C93 H119 0.931 . S
C94 C91 1.487 . S
C94 C101 1.399 . S
C94 N132 1.343 . S
C95 C96 1.384 1_565 S
C95 C97 1.384 . S
C95 H120 0.931 . S
C96 C95 1.384 1_545 S
C96 C99 1.382 . S
C97 C95 1.384 . S
C97 C98 1.381 1_565 S
C97 H121 0.930 . S
C98 C97 1.381 1_545 S
C98 C100 1.381 . S
C98 C101 1.487 . S
C99 C96 1.382 . S
C99 C100 1.387 . S
C99 H122 0.930 . S
C100 C98 1.381 . S
C100 C99 1.387 . S
C100 H123 0.931 . S
C101 C94 1.399 . S
C101 C98 1.487 . S
C101 N133 1.343 . S
C102 C103 1.384 1_565 S
C102 C104 1.384 . S
C102 H124 0.931 . S
C103 C102 1.384 1_545 S
C103 C106 1.382 . S
C104 C102 1.384 . S
C104 C105 1.381 1_565 S
C104 H125 0.930 . S
C105 C104 1.381 1_545 S
C105 C107 1.381 . S
C105 C108 1.487 . S
C106 C103 1.382 . S
C106 C107 1.387 . S
C106 H126 0.930 . S
C107 C105 1.381 . S
C107 C106 1.387 . S
C107 H127 0.931 . S
C108 C105 1.487 . S
C108 C115 1.399 . S
C108 N133 1.343 . S
C109 C110 1.384 . S
C109 C111 1.384 . S
C109 H128 0.931 . S
C110 C109 1.384 . S
C110 C113 1.382 1_545 S
C111 C109 1.384 . S
C111 C112 1.381 . S
C111 H129 0.930 . S
C112 C111 1.381 . S
C112 C114 1.381 1_545 S
C112 C115 1.487 . S
C113 C110 1.382 1_565 S
C113 C114 1.387 . S
C113 H130 0.930 . S
C114 C112 1.381 1_565 S
C114 C113 1.387 . S
C114 H131 0.931 . S
C115 C108 1.399 . S
C115 C112 1.487 . S
C115 N132 1.343 . S
H116 C88 0.931 . S
H117 C90 0.930 . S
H118 C92 0.930 . S
H119 C93 0.931 . S
H120 C95 0.931 . S
H121 C97 0.930 . S
H122 C99 0.930 . S
H123 C100 0.931 . S
H124 C102 0.931 . S
H125 C104 0.930 . S
H126 C106 0.930 . S
H127 C107 0.931 . S
H128 C109 0.931 . S
H129 C111 0.930 . S
H130 C113 0.930 . S
H131 C114 0.931 . S
N132 C94 1.343 . S
N132 C115 1.343 . S
N133 C101 1.343 . S
N133 C108 1.343 . S
C134 C135 1.384 . S
C134 C136 1.384 . S
C134 H162 0.931 . S
C135 C134 1.384 . S
C135 C138 1.382 . S
C136 C134 1.384 . S
C136 C137 1.381 . S
C136 H163 0.930 . S
C137 C136 1.381 . S
C137 C139 1.381 . S
C137 C140 1.487 . S
C138 C135 1.382 . S
C138 C139 1.387 . S
C138 H164 0.930 . S
C139 C137 1.381 . S
C139 C138 1.387 . S
C139 H165 0.931 . S
C140 C137 1.487 . S
C140 C147 1.399 . S
C140 N178 1.343 . S
C141 C142 1.384 . S
C141 C143 1.384 . S
C141 H166 0.931 . S
C142 C141 1.384 . S
C142 C145 1.382 . S
C143 C141 1.384 . S
C143 C144 1.381 . S
C143 H167 0.930 . S
C144 C143 1.381 . S
C144 C146 1.381 . S
C144 C147 1.487 . S
C145 C142 1.382 . S
C145 C146 1.387 . S
C145 H168 0.930 . S
C146 C144 1.381 . S
C146 C145 1.387 . S
C146 H169 0.931 . S
C147 C140 1.399 . S
C147 C144 1.487 . S
C147 N179 1.343 . S
C148 C149 1.384 . S
C148 C150 1.384 . S
C148 H170 0.931 . S
C149 C148 1.384 . S
C149 C152 1.382 . S
C150 C148 1.384 . S
C150 C151 1.381 . S
C150 H171 0.930 . S
C151 C150 1.381 . S
C151 C153 1.381 . S
C151 C154 1.487 . S
C152 C149 1.382 . S
C152 C153 1.387 . S
C152 H172 0.930 . S
C153 C151 1.381 . S
C153 C152 1.387 . S
C153 H173 0.931 . S
C154 C151 1.487 . S
C154 C161 1.399 . S
C154 N179 1.343 . S
C155 C156 1.384 . S
C155 C157 1.384 . S
C155 H174 0.931 . S
C156 C155 1.384 . S
C156 C159 1.382 . S
C157 C155 1.384 . S
C157 C158 1.381 . S
C157 H175 0.930 . S
C158 C157 1.381 . S
C158 C160 1.381 . S
C158 C161 1.487 . S
C159 C156 1.382 . S
C159 C160 1.387 . S
C159 H176 0.930 . S
C160 C158 1.381 . S
C160 C159 1.387 . S
C160 H177 0.931 . S
C161 C154 1.399 . S
C161 C158 1.487 . S
C161 N178 1.343 . S
H162 C134 0.931 . S
H163 C136 0.930 . S
H164 C138 0.930 . S
H165 C139 0.931 . S
H166 C141 0.931 . S
H167 C143 0.930 . S
H168 C145 0.930 . S
H169 C146 0.931 . S
H170 C148 0.931 . S
H171 C150 0.930 . S
H172 C152 0.930 . S
H173 C153 0.931 . S
H174 C155 0.931 . S
H175 C157 0.930 . S
H176 C159 0.930 . S
H177 C160 0.931 . S
N178 C140 1.343 . S
N178 C161 1.343 . S
N179 C147 1.343 . S
N179 C154 1.343 . S
C180 C181 1.391 . S
C180 C182 1.394 . S
C180 H196 0.931 . S
C181 C180 1.391 . S
C181 C185 1.376 1_455 S
C182 C180 1.394 . S
C182 C183 1.369 . S
C182 C186 1.531 . S
C183 C182 1.369 . S
C183 C184 1.410 1_455 S
C183 C191 1.503 . S
C184 C183 1.410 1_655 S
C184 C185 1.392 . S
C184 C187 1.511 . S
C185 C181 1.376 1_655 S
C185 C184 1.392 . S
C185 H197 0.929 . S
C186 C182 1.531 . S
C186 H198 0.960 . S
C186 H199 0.962 . S
C186 H200 0.960 . S
C187 C184 1.511 . S
C187 H201 0.961 . S
C187 H202 0.961 . S
C187 H203 0.961 . S
C188 C189 1.370 . S
C188 C190 1.363 . S
C188 H204 0.931 . S
C189 C188 1.370 . S
C189 C193 1.408 1_455 S
C190 C188 1.363 . S
C190 C191 1.370 . S
C190 C194 1.524 . S
C191 C183 1.503 . S
C191 C190 1.370 . S
C191 C192 1.403 1_455 S
C192 C191 1.403 1_655 S
C192 C193 1.404 . S
C192 C195 1.539 . S
C193 C189 1.408 1_655 S
C193 C192 1.404 . S
C193 H205 0.930 . S
C194 C190 1.524 . S
C194 H206 0.956 . S
C194 H207 0.961 . S
C194 H208 0.961 . S
C195 C192 1.539 . S
C195 H209 0.958 . S
C195 H210 0.961 . S
C195 H211 0.960 . S
H196 C180 0.931 . S
H197 C185 0.929 . S
H198 C186 0.960 . S
H199 C186 0.962 . S
H200 C186 0.960 . S
H201 C187 0.961 . S
H202 C187 0.961 . S
H203 C187 0.961 . S
H204 C188 0.931 . S
H205 C193 0.930 . S
H206 C194 0.956 . S
H207 C194 0.961 . S
H208 C194 0.961 . S
H209 C195 0.958 . S
H210 C195 0.961 . S
H211 C195 0.960 . S
C212 C213 1.391 1_565 S
C212 C214 1.394 . S
C212 H228 0.931 . S
C213 C212 1.391 1_545 S
C213 C217 1.376 . S
C214 C212 1.394 . S
C214 C215 1.369 1_565 S
C214 C218 1.531 . S
C215 C214 1.369 1_545 S
C215 C216 1.410 . S
C215 C223 1.503 . S
C216 C215 1.410 . S
C216 C217 1.392 . S
C216 C219 1.511 . S
C217 C213 1.376 . S
C217 C216 1.392 . S
C217 H229 0.929 . S
C218 C214 1.531 . S
C218 H230 0.960 . S
C218 H231 0.962 . S
C218 H232 0.960 . S
C219 C216 1.511 . S
C219 H233 0.961 . S
C219 H234 0.961 . S
C219 H235 0.961 . S
C220 C221 1.370 . S
C220 C222 1.363 . S
C220 H236 0.931 . S
C221 C220 1.370 . S
C221 C225 1.408 . S
C222 C220 1.363 . S
C222 C223 1.370 . S
C222 C226 1.524 . S
C223 C215 1.503 . S
C223 C222 1.370 . S
C223 C224 1.403 . S
C224 C223 1.403 . S
C224 C225 1.404 . S
C224 C227 1.539 . S
C225 C221 1.408 . S
C225 C224 1.404 . S
C225 H237 0.930 . S
C226 C222 1.524 . S
C226 H238 0.956 1_545 S
C226 H239 0.961 . S
C226 H240 0.961 1_545 S
C227 C224 1.539 . S
C227 H241 0.958 . S
C227 H242 0.961 . S
C227 H243 0.960 . S
H228 C212 0.931 . S
H229 C217 0.929 . S
H230 C218 0.960 . S
H231 C218 0.962 . S
H232 C218 0.960 . S
H233 C219 0.961 . S
H234 C219 0.961 . S
H235 C219 0.961 . S
H236 C220 0.931 . S
H237 C225 0.930 . S
H238 C226 0.956 1_565 S
H239 C226 0.961 . S
H240 C226 0.961 1_565 S
H241 C227 0.958 . S
H242 C227 0.961 . S
H243 C227 0.960 . S
C244 C245 1.391 . S
C244 C246 1.394 . S
C244 H260 0.931 . S
C245 C244 1.391 . S
C245 C249 1.376 . S
C246 C244 1.394 . S
C246 C247 1.369 . S
C246 C250 1.531 . S
C247 C246 1.369 . S
C247 C248 1.410 . S
C247 C255 1.503 . S
C248 C247 1.410 . S
C248 C249 1.392 . S
C248 C251 1.511 . S
C249 C245 1.376 . S
C249 C248 1.392 . S
C249 H261 0.929 . S
C250 C246 1.531 . S
C250 H262 0.960 . S
C250 H263 0.962 . S
C250 H264 0.960 . S
C251 C248 1.511 . S
C251 H265 0.961 . S
C251 H266 0.961 . S
C251 H267 0.961 . S
C252 C253 1.370 . S
C252 C254 1.363 . S
C252 H268 0.931 . S
C253 C252 1.370 . S
C253 C257 1.408 . S
C254 C252 1.363 . S
C254 C255 1.370 . S
C254 C258 1.524 . S
C255 C247 1.503 . S
C255 C254 1.370 . S
C255 C256 1.403 . S
C256 C255 1.403 . S
C256 C257 1.404 . S
C256 C259 1.539 . S
C257 C253 1.408 . S
C257 C256 1.404 . S
C257 H269 0.930 . S
C258 C254 1.524 . S
C258 H270 0.956 . S
C258 H271 0.961 . S
C258 H272 0.961 . S
C259 C256 1.539 . S
C259 H273 0.958 . S
C259 H274 0.961 . S
C259 H275 0.960 . S
H260 C244 0.931 . S
H261 C249 0.929 . S
H262 C250 0.960 . S
H263 C250 0.962 . S
H264 C250 0.960 . S
H265 C251 0.961 . S
H266 C251 0.961 . S
H267 C251 0.961 . S
H268 C252 0.931 . S
H269 C257 0.930 . S
H270 C258 0.956 . S
H271 C258 0.961 . S
H272 C258 0.961 . S
H273 C259 0.958 . S
H274 C259 0.961 . S
H275 C259 0.960 . S
C276 C277 1.391 1_655 S
C276 C278 1.394 . S
C276 H292 0.931 . S
C277 C276 1.391 1_455 S
C277 C281 1.376 . S
C278 C276 1.394 . S
C278 C279 1.369 1_655 S
C278 C282 1.531 . S
C279 C278 1.369 1_455 S
C279 C280 1.410 . S
C279 C287 1.503 . S
C280 C279 1.410 . S
C280 C281 1.392 . S
C280 C283 1.511 . S
C281 C277 1.376 . S
C281 C280 1.392 . S
C281 H293 0.929 . S
C282 C278 1.531 . S
C282 H294 0.960 . S
C282 H295 0.962 . S
C282 H296 0.960 . S
C283 C280 1.511 . S
C283 H297 0.961 . S
C283 H298 0.961 . S
C283 H299 0.961 . S
C284 C285 1.370 1_655 S
C284 C286 1.363 . S
C284 H300 0.931 . S
C285 C284 1.370 1_455 S
C285 C289 1.408 . S
C286 C284 1.363 . S
C286 C287 1.370 1_655 S
C286 C290 1.524 . S
C287 C279 1.503 . S
C287 C286 1.370 1_455 S
C287 C288 1.403 . S
C288 C287 1.403 . S
C288 C289 1.404 . S
C288 C291 1.539 . S
C289 C285 1.408 . S
C289 C288 1.404 . S
C289 H301 0.930 . S
C290 C286 1.524 . S
C290 H302 0.956 . S
C290 H303 0.961 . S
C290 H304 0.961 . S
C291 C288 1.539 . S
C291 H305 0.958 . S
C291 H306 0.961 . S
C291 H307 0.960 . S
H292 C276 0.931 . S
H293 C281 0.929 . S
H294 C282 0.960 . S
H295 C282 0.962 . S
H296 C282 0.960 . S
H297 C283 0.961 . S
H298 C283 0.961 . S
H299 C283 0.961 . S
H300 C284 0.931 . S
H301 C289 0.930 . S
H302 C290 0.956 . S
H303 C290 0.961 . S
H304 C290 0.961 . S
H305 C291 0.958 . S
H306 C291 0.961 . S
H307 C291 0.960 . S
C308 C309 1.391 . S
C308 C310 1.394 . S
C308 H324 0.931 . S
C309 C308 1.391 . S
C309 C313 1.376 . S
C310 C308 1.394 . S
C310 C311 1.369 . S
C310 C314 1.531 . S
C311 C310 1.369 . S
C311 C312 1.410 . S
C311 C319 1.503 . S
C312 C311 1.410 . S
C312 C313 1.392 . S
C312 C315 1.511 . S
C313 C309 1.376 . S
C313 C312 1.392 . S
C313 H325 0.929 . S
C314 C310 1.531 . S
C314 H326 0.960 . S
C314 H327 0.962 . S
C314 H328 0.960 . S
C315 C312 1.511 . S
C315 H329 0.961 1_545 S
C315 H330 0.961 . S
C315 H331 0.961 . S
C316 C317 1.370 1_565 S
C316 C318 1.363 . S
C316 H332 0.931 . S
C317 C316 1.370 1_545 S
C317 C321 1.408 . S
C318 C316 1.363 . S
C318 C319 1.370 1_565 S
C318 C322 1.524 . S
C319 C311 1.503 . S
C319 C318 1.370 1_545 S
C319 C320 1.403 . S
C320 C319 1.403 . S
C320 C321 1.404 . S
C320 C323 1.539 . S
C321 C317 1.408 . S
C321 C320 1.404 . S
C321 H333 0.930 . S
C322 C318 1.524 . S
C322 H334 0.956 . S
C322 H335 0.961 . S
C322 H336 0.961 . S
C323 C320 1.539 . S
C323 H337 0.958 . S
C323 H338 0.961 . S
C323 H339 0.960 . S
H324 C308 0.931 . S
H325 C313 0.929 . S
H326 C314 0.960 . S
H327 C314 0.962 . S
H328 C314 0.960 . S
H329 C315 0.961 1_565 S
H330 C315 0.961 . S
H331 C315 0.961 . S
H332 C316 0.931 . S
H333 C321 0.930 . S
H334 C322 0.956 . S
H335 C322 0.961 . S
H336 C322 0.961 . S
H337 C323 0.958 . S
H338 C323 0.961 . S
H339 C323 0.960 . S
C340 C341 1.391 . S
C340 C342 1.394 . S
C340 H356 0.931 . S
C341 C340 1.391 . S
C341 C345 1.376 . S
C342 C340 1.394 . S
C342 C343 1.369 . S
C342 C346 1.531 . S
C343 C342 1.369 . S
C343 C344 1.410 . S
C343 C351 1.503 . S
C344 C343 1.410 . S
C344 C345 1.392 . S
C344 C347 1.511 . S
C345 C341 1.376 . S
C345 C344 1.392 . S
C345 H357 0.929 . S
C346 C342 1.531 . S
C346 H358 0.960 . S
C346 H359 0.962 . S
C346 H360 0.960 . S
C347 C344 1.511 . S
C347 H361 0.961 . S
C347 H362 0.961 . S
C347 H363 0.961 . S
C348 C349 1.370 . S
C348 C350 1.363 . S
C348 H364 0.931 . S
C349 C348 1.370 . S
C349 C353 1.408 . S
C350 C348 1.363 . S
C350 C351 1.370 . S
C350 C354 1.524 . S
C351 C343 1.503 . S
C351 C350 1.370 . S
C351 C352 1.403 . S
C352 C351 1.403 . S
C352 C353 1.404 . S
C352 C355 1.539 . S
C353 C349 1.408 . S
C353 C352 1.404 . S
C353 H365 0.930 . S
C354 C350 1.524 . S
C354 H366 0.956 . S
C354 H367 0.961 . S
C354 H368 0.961 . S
C355 C352 1.539 . S
C355 H369 0.958 . S
C355 H370 0.961 . S
C355 H371 0.960 . S
H356 C340 0.931 . S
H357 C345 0.929 . S
H358 C346 0.960 . S
H359 C346 0.962 . S
H360 C346 0.960 . S
H361 C347 0.961 . S
H362 C347 0.961 . S
H363 C347 0.961 . S
H364 C348 0.931 . S
H365 C353 0.930 . S
H366 C354 0.956 . S
H367 C354 0.961 . S
H368 C354 0.961 . S
H369 C355 0.958 . S
H370 C355 0.961 . S
H371 C355 0.960 . S
C372 C373 1.391 . S
C372 C374 1.394 1_545 S
C372 H388 0.931 1_545 S
C373 C372 1.391 . S
C373 C377 1.376 . S
C374 C372 1.394 1_565 S
C374 C375 1.369 1_565 S
C374 C378 1.531 . S
C375 C374 1.369 1_545 S
C375 C376 1.410 . S
C375 C383 1.503 . S
C376 C375 1.410 . S
C376 C377 1.392 . S
C376 C379 1.511 . S
C377 C373 1.376 . S
C377 C376 1.392 . S
C377 H389 0.929 . S
C378 C374 1.531 . S
C378 H390 0.960 . S
C378 H391 0.962 . S
C378 H392 0.960 . S
C379 C376 1.511 . S
C379 H393 0.961 . S
C379 H394 0.961 . S
C379 H395 0.961 . S
C380 C381 1.370 . S
C380 C382 1.363 . S
C380 H396 0.931 . S
C381 C380 1.370 . S
C381 C385 1.408 1_545 S
C382 C380 1.363 . S
C382 C383 1.370 . S
C382 C386 1.524 . S
C383 C375 1.503 . S
C383 C382 1.370 . S
C383 C384 1.403 1_545 S
C384 C383 1.403 1_565 S
C384 C385 1.404 . S
C384 C387 1.539 . S
C385 C381 1.408 1_565 S
C385 C384 1.404 . S
C385 H397 0.930 . S
C386 C382 1.524 . S
C386 H398 0.956 . S
C386 H399 0.961 . S
C386 H400 0.961 . S
C387 C384 1.539 . S
C387 H401 0.958 . S
C387 H402 0.961 . S
C387 H403 0.960 . S
H388 C372 0.931 1_565 S
H389 C377 0.929 . S
H390 C378 0.960 . S
H391 C378 0.962 . S
H392 C378 0.960 . S
H393 C379 0.961 . S
H394 C379 0.961 . S
H395 C379 0.961 . S
H396 C380 0.931 . S
H397 C385 0.930 . S
H398 C386 0.956 . S
H399 C386 0.961 . S
H400 C386 0.961 . S
H401 C387 0.958 . S
H402 C387 0.961 . S
H403 C387 0.960 . S
C404 C405 1.391 . S
C404 C406 1.394 . S
C404 H420 0.931 . S
C405 C404 1.391 . S
C405 C409 1.376 1_554 S
C406 C404 1.394 . S
C406 C407 1.369 1_554 S
C406 C410 1.531 . S
C407 C406 1.369 1_556 S
C407 C408 1.410 . S
C407 C415 1.503 . S
C408 C407 1.410 . S
C408 C409 1.392 . S
C408 C411 1.511 . S
C409 C405 1.376 1_556 S
C409 C408 1.392 . S
C409 H421 0.929 . S
C410 C406 1.531 . S
C410 H422 0.960 . S
C410 H423 0.962 . S
C410 H424 0.960 . S
C411 C408 1.511 . S
C411 H425 0.961 . S
C411 H426 0.961 . S
C411 H427 0.961 . S
C412 C413 1.370 . S
C412 C414 1.363 . S
C412 H428 0.931 . S
C413 C412 1.370 . S
C413 C417 1.408 . S
C414 C412 1.363 . S
C414 C415 1.370 . S
C414 C418 1.524 . S
C415 C407 1.503 . S
C415 C414 1.370 . S
C415 C416 1.403 . S
C416 C415 1.403 . S
C416 C417 1.404 . S
C416 C419 1.539 . S
C417 C413 1.408 . S
C417 C416 1.404 . S
C417 H429 0.930 . S
C418 C414 1.524 . S
C418 H430 0.956 . S
C418 H431 0.961 . S
C418 H432 0.961 . S
C419 C416 1.539 . S
C419 H433 0.958 . S
C419 H434 0.961 . S
C419 H435 0.960 . S
H420 C404 0.931 . S
H421 C409 0.929 . S
H422 C410 0.960 . S
H423 C410 0.962 . S
H424 C410 0.960 . S
H425 C411 0.961 . S
H426 C411 0.961 . S
H427 C411 0.961 . S
H428 C412 0.931 . S
H429 C417 0.930 . S
H430 C418 0.956 . S
H431 C418 0.961 . S
H432 C418 0.961 . S
H433 C419 0.958 . S
H434 C419 0.961 . S
H435 C419 0.960 . S
C436 C437 1.391 . S
C436 C438 1.394 . S
C436 H452 0.931 1_455 S
C437 C436 1.391 . S
C437 C441 1.376 . S
C438 C436 1.394 . S
C438 C439 1.369 . S
C438 C442 1.531 1_455 S
C439 C438 1.369 . S
C439 C440 1.410 . S
C439 C447 1.503 . S
C440 C439 1.410 . S
C440 C441 1.392 . S
C440 C443 1.511 . S
C441 C437 1.376 . S
C441 C440 1.392 . S
C441 H453 0.929 . S
C442 C438 1.531 1_655 S
C442 H454 0.960 . S
C442 H455 0.962 . S
C442 H456 0.960 . S
C443 C440 1.511 . S
C443 H457 0.961 . S
C443 H458 0.961 . S
C443 H459 0.961 . S
C444 C445 1.370 1_655 S
C444 C446 1.363 . S
C444 H460 0.931 . S
C445 C444 1.370 1_455 S
C445 C449 1.408 . S
C446 C444 1.363 . S
C446 C447 1.370 1_655 S
C446 C450 1.524 . S
C447 C439 1.503 . S
C447 C446 1.370 1_455 S
C447 C448 1.403 . S
C448 C447 1.403 . S
C448 C449 1.404 . S
C448 C451 1.539 . S
C449 C445 1.408 . S
C449 C448 1.404 . S
C449 H461 0.930 . S
C450 C446 1.524 . S
C450 H462 0.956 . S
C450 H463 0.961 . S
C450 H464 0.961 . S
C451 C448 1.539 . S
C451 H465 0.958 . S
C451 H466 0.961 . S
C451 H467 0.960 . S
H452 C436 0.931 1_655 S
H453 C441 0.929 . S
H454 C442 0.960 . S
H455 C442 0.962 . S
H456 C442 0.960 . S
H457 C443 0.961 . S
H458 C443 0.961 . S
H459 C443 0.961 . S
H460 C444 0.931 . S
H461 C449 0.930 . S
H462 C450 0.956 . S
H463 C450 0.961 . S
H464 C450 0.961 . S
H465 C451 0.958 . S
H466 C451 0.961 . S
H467 C451 0.960 . S
C468 C469 1.391 1_565 S
C468 C470 1.394 . S
C468 H484 0.931 . S
C469 C468 1.391 1_545 S
C469 C473 1.376 . S
C470 C468 1.394 . S
C470 C471 1.369 1_565 S
C470 C474 1.531 . S
C471 C470 1.369 1_545 S
C471 C472 1.410 . S
C471 C479 1.503 . S
C472 C471 1.410 . S
C472 C473 1.392 . S
C472 C475 1.511 . S
C473 C469 1.376 . S
C473 C472 1.392 . S
C473 H485 0.929 . S
C474 C470 1.531 . S
C474 H486 0.960 . S
C474 H487 0.962 . S
C474 H488 0.960 . S
C475 C472 1.511 . S
C475 H489 0.961 . S
C475 H490 0.961 . S
C475 H491 0.961 . S
C476 C477 1.370 . S
C476 C478 1.363 . S
C476 H492 0.931 . S
C477 C476 1.370 . S
C477 C481 1.408 . S
C478 C476 1.363 . S
C478 C479 1.370 . S
C478 C482 1.524 . S
C479 C471 1.503 . S
C479 C478 1.370 . S
C479 C480 1.403 . S
C480 C479 1.403 . S
C480 C481 1.404 . S
C480 C483 1.539 1_545 S
C481 C477 1.408 . S
C481 C480 1.404 . S
C481 H493 0.930 1_545 S
C482 C478 1.524 . S
C482 H494 0.956 . S
C482 H495 0.961 . S
C482 H496 0.961 . S
C483 C480 1.539 1_565 S
C483 H497 0.958 . S
C483 H498 0.961 . S
C483 H499 0.960 1_565 S
H484 C468 0.931 . S
H485 C473 0.929 . S
H486 C474 0.960 . S
H487 C474 0.962 . S
H488 C474 0.960 . S
H489 C475 0.961 . S
H490 C475 0.961 . S
H491 C475 0.961 . S
H492 C476 0.931 . S
H493 C481 0.930 1_565 S
H494 C482 0.956 . S
H495 C482 0.961 . S
H496 C482 0.961 . S
H497 C483 0.958 . S
H498 C483 0.961 . S
H499 C483 0.960 1_545 S
C500 C501 1.389 . S
C500 C502 1.396 1_554 S
C500 H516 0.930 . S
C501 C500 1.389 . S
C501 C505 1.376 . S
C502 C500 1.396 1_556 S
C502 C503 1.369 . S
C502 C506 1.531 . S
C503 C502 1.369 . S
C503 C504 1.410 . S
C503 C511 1.503 . S
C504 C503 1.410 . S
C504 C505 1.392 1_556 S
C504 C507 1.511 . S
C505 C501 1.376 . S
C505 C504 1.392 1_554 S
C505 H517 0.929 . S
C506 C502 1.531 . S
C506 H518 0.960 . S
C506 H519 0.962 . S
C506 H520 0.960 . S
C507 C504 1.511 . S
C507 H521 0.961 1_556 S
C507 H522 0.961 . S
C507 H523 0.961 . S
C508 C509 1.370 . S
C508 C510 1.363 . S
C508 H524 0.931 . S
C509 C508 1.370 . S
C509 C513 1.408 . S
C510 C508 1.363 . S
C510 C511 1.370 . S
C510 C514 1.467 1_556 S
C511 C503 1.503 . S
C511 C510 1.370 . S
C511 C512 1.403 . S
C512 C511 1.403 . S
C512 C513 1.404 . S
C512 C515 1.539 . S
C513 C509 1.408 . S
C513 C512 1.404 . S
C513 H525 0.930 . S
C514 C510 1.467 1_554 S
C514 H526 0.969 . S
C514 H527 0.994 . S
C514 H528 0.975 . S
C515 C512 1.539 . S
C515 H529 0.958 . S
C515 H530 0.961 . S
C515 H531 0.960 . S
H516 C500 0.930 . S
H517 C505 0.929 . S
H518 C506 0.960 . S
H519 C506 0.962 . S
H520 C506 0.960 . S
H521 C507 0.961 1_554 S
H522 C507 0.961 . S
H523 C507 0.961 . S
H524 C508 0.931 . S
H525 C513 0.930 . S
H526 C514 0.969 . S
H527 C514 0.994 . S
H528 C514 0.975 . S
H529 C515 0.958 . S
H530 C515 0.961 . S
H531 C515 0.960 . S
C532 C533 1.391 . S
C532 C534 1.394 . S
C532 H548 0.931 . S
C533 C532 1.391 . S
C533 C537 1.376 . S
C534 C532 1.394 . S
C534 C535 1.369 . S
C534 C538 1.531 . S
C535 C534 1.369 . S
C535 C536 1.410 . S
C535 C543 1.503 . S
C536 C535 1.410 . S
C536 C537 1.392 . S
C536 C539 1.511 . S
C537 C533 1.376 . S
C537 C536 1.392 . S
C537 H549 0.929 . S
C538 C534 1.531 . S
C538 H550 0.960 . S
C538 H551 0.962 1_455 S
C538 H552 0.960 . S
C539 C536 1.511 . S
C539 H553 0.961 . S
C539 H554 0.961 . S
C539 H555 0.961 . S
C540 C541 1.370 1_655 S
C540 C542 1.363 . S
C540 H556 0.931 . S
C541 C540 1.370 1_455 S
C541 C545 1.408 . S
C542 C540 1.363 . S
C542 C543 1.370 1_655 S
C542 C546 1.524 . S
C543 C535 1.503 . S
C543 C542 1.370 1_455 S
C543 C544 1.403 . S
C544 C543 1.403 . S
C544 C545 1.404 . S
C544 C547 1.539 . S
C545 C541 1.408 . S
C545 C544 1.404 . S
C545 H557 0.930 . S
C546 C542 1.524 . S
C546 H558 0.956 . S
C546 H559 0.961 . S
C546 H560 0.961 . S
C547 C544 1.539 . S
C547 H561 0.958 . S
C547 H562 0.961 . S
C547 H563 0.960 . S
H548 C532 0.931 . S
H549 C537 0.929 . S
H550 C538 0.960 . S
H551 C538 0.962 1_655 S
H552 C538 0.960 . S
H553 C539 0.961 . S
H554 C539 0.961 . S
H555 C539 0.961 . S
H556 C540 0.931 . S
H557 C545 0.930 . S
H558 C546 0.956 . S
H559 C546 0.961 . S
H560 C546 0.961 . S
H561 C547 0.958 . S
H562 C547 0.961 . S
H563 C547 0.960 . S
C189 C50 1.494 . S
C181 C3 1.496 . S
C213 C21 1.499 . S
C221 C89 1.529 . S
C245 C37 1.502 . S
C253 C156 1.510 . S
C277 C8 1.496 . S
C285 C57 1.500 . S
C317 C110 1.513 . S
C309 C23 1.506 . S
C341 C35 1.484 . S
C349 C135 1.509 . S
C381 C96 1.489 . S
C373 C31 1.474 . S
C405 C7 1.464 . S
C413 C149 1.510 . S
C445 C64 1.494 . S
C437 C17 1.480 . S
C477 C103 1.474 . S
C469 C36 1.468 . S
C509 C142 1.509 . S
C501 C9 1.477 . S
C533 C22 1.496 . S
C541 C43 1.497 . S
