# Generated by pormake.
# Topology anh, (6,3)-cn, num edge types: 1
# Building blocks:
#     Node 0, Type 0, BuildingBlock: BETFAJ_clean_sbu_0, # of connection points: 6
#     Node 1, Type 0, BuildingBlock: BETFAJ_clean_sbu_0, # of connection points: 6
#     Node 2, Type 0, BuildingBlock: BETFAJ_clean_sbu_0, # of connection points: 6
#     Node 3, Type 1, BuildingBlock: ESEHIV_clean_linker_0, # of connection points: 3
#     Node 4, Type 1, BuildingBlock: ESEHIV_clean_linker_0, # of connection points: 3
#     Node 5, Type 1, BuildingBlock: ESEHIV_clean_linker_0, # of connection points: 3
#     Node 6, Type 1, BuildingBlock: ESEHIV_clean_linker_0, # of connection points: 3
#     Node 7, Type 1, BuildingBlock: ESEHIV_clean_linker_0, # of connection points: 3
#     Node 8, Type 1, BuildingBlock: ESEHIV_clean_linker_0, # of connection points: 3
#     Edge 9, Type (0, 1), BuildingBlock: XUDNAN_clean_linker_2, # of connection points: 2
#     Edge 10, Type (0, 1), BuildingBlock: XUDNAN_clean_linker_2, # of connection points: 2
#     Edge 11, Type (0, 1), BuildingBlock: XUDNAN_clean_linker_2, # of connection points: 2
#     Edge 12, Type (0, 1), BuildingBlock: XUDNAN_clean_linker_2, # of connection points: 2
#     Edge 13, Type (0, 1), BuildingBlock: XUDNAN_clean_linker_2, # of connection points: 2
#     Edge 14, Type (0, 1), BuildingBlock: XUDNAN_clean_linker_2, # of connection points: 2
#     Edge 15, Type (0, 1), BuildingBlock: XUDNAN_clean_linker_2, # of connection points: 2
#     Edge 16, Type (0, 1), BuildingBlock: XUDNAN_clean_linker_2, # of connection points: 2
#     Edge 17, Type (0, 1), BuildingBlock: XUDNAN_clean_linker_2, # of connection points: 2
#     Edge 18, Type (0, 1), BuildingBlock: XUDNAN_clean_linker_2, # of connection points: 2
#     Edge 19, Type (0, 1), BuildingBlock: XUDNAN_clean_linker_2, # of connection points: 2
#     Edge 20, Type (0, 1), BuildingBlock: XUDNAN_clean_linker_2, # of connection points: 2
#     Edge 21, Type (0, 1), BuildingBlock: XUDNAN_clean_linker_2, # of connection points: 2
#     Edge 22, Type (0, 1), BuildingBlock: XUDNAN_clean_linker_2, # of connection points: 2
#     Edge 23, Type (0, 1), BuildingBlock: XUDNAN_clean_linker_2, # of connection points: 2
#     Edge 24, Type (0, 1), BuildingBlock: XUDNAN_clean_linker_2, # of connection points: 2
#     Edge 25, Type (0, 1), BuildingBlock: XUDNAN_clean_linker_2, # of connection points: 2
#     Edge 26, Type (0, 1), BuildingBlock: XUDNAN_clean_linker_2, # of connection points: 2
# Relax obj value: 0.216
# Max RMSD: 0.226
# Mean RMSD: 0.165
data_MOF--net-anh--node1-BETFAJ_clean_sbu_0--node2-ESEHIV_clean_linker_0--edge1-XUDNAN_clean_linker_2
_symmetry_space_group_name_H-M    P1
_symmetry_Int_Tables_number       1
_symmetry_cell_setting            triclinic
loop_
_symmetry_equiv_pos_as_xyz
'x, y, z'
_cell_length_a     28.55497
_cell_length_b     35.018829
_cell_length_c     51.910087
_cell_angle_alpha  91.962311
_cell_angle_beta   89.604611
_cell_angle_gamma 130.13859
loop_
_atom_site_label
_atom_site_type_symbol
_atom_site_fract_x
_atom_site_fract_y
_atom_site_fract_z
_atom_type_partial_charge
Sm0 Sm 0.15589 0.55003 0.13562 0.0
Sm1 Sm 1.08136 0.57768 0.15376 0.0
C2 C 0.23408 0.54462 0.1126 0.0
C3 C 0.2986 0.56938 0.1175 0.0
C4 C 0.33493 0.57538 0.09716 0.0
C5 C 0.39431 0.59368 0.10213 0.0
C6 C 0.4178 0.6058 0.12757 0.0
C7 C 0.38275 0.60311 0.14767 0.0
C8 C 0.32361 0.58533 0.14264 0.0
C9 C 0.14792 0.55403 0.18855 0.0
C10 C 0.2239 0.67062 0.14504 0.0
C11 C 1.00593 0.58378 0.1794 0.0
C12 C 0.9482 0.54606 0.19233 0.0
C13 C 0.93766 0.50483 0.20304 0.0
C14 C 0.87829 0.46274 0.20905 0.0
C15 C 0.82903 0.46144 0.20429 0.0
C16 C 0.84058 0.50468 0.19627 0.0
C17 C 0.89995 0.5468 0.19025 0.0
C18 C 0.09673 0.58149 0.10122 0.0
C19 C 1.01557 0.45855 0.14393 0.0
O20 O 0.22297 0.57322 0.10476 0.0
O21 O 0.19579 0.5134 0.12993 0.0
O22 O 0.15603 0.58433 0.173 0.0
O23 O 0.1471 0.52052 0.17655 0.0
O24 O 0.22548 0.63676 0.13411 0.0
O25 O 0.17426 0.65733 0.15661 0.0
O26 O 1.05512 0.59493 0.18982 0.0
O27 O 1.00369 0.57782 0.15429 0.0
O28 O 1.08462 0.54702 0.11491 0.0
O29 O 0.09772 0.61375 0.11494 0.0
O30 O 1.01796 0.49125 0.15885 0.0
O31 O 1.06074 0.47411 0.12823 0.0
H32 H 0.31643 0.56376 0.07763 0.0
H33 H 0.41998 0.59462 0.08633 0.0
H34 H 0.39984 0.61208 0.16741 0.0
H35 H 0.29639 0.58181 0.15853 0.0
H36 H 0.97441 0.50357 0.20494 0.0
H37 H 0.87051 0.43008 0.2155 0.0
H38 H 0.80295 0.50406 0.19212 0.0
H39 H 0.90728 0.57825 0.18198 0.0
Sm40 Sm 0.67452 0.04183 0.4647 0.0
Sm41 Sm 0.5879 0.06277 0.46512 0.0
C42 C 0.73295 1.00757 0.47307 0.0
C43 C 0.72442 0.96607 0.48559 0.0
C44 C 0.73088 0.96665 0.51247 0.0
C45 C 0.72827 0.92969 0.52381 0.0
C46 C 0.71917 0.89129 0.50859 0.0
C47 C 0.71076 0.88979 0.48182 0.0
C48 C 0.71372 0.92695 0.47044 0.0
C49 C 0.64936 0.05621 0.41674 0.0
C50 C 0.526 0.94778 0.46374 0.0
C51 C 0.53075 0.09823 0.45734 0.0
C52 C 0.54024 0.14364 0.46573 0.0
C53 C 0.53942 0.17167 0.44735 0.0
C54 C 0.55085 0.21588 0.45474 0.0
C55 C 0.56294 0.23281 0.48074 0.0
C56 C 0.56287 0.20428 0.49919 0.0
C57 C 0.55197 0.16031 0.49176 0.0
C58 C 0.61174 0.04814 0.51335 0.0
C59 C 0.73905 0.15857 0.4641 0.0
O60 O 0.73921 0.0416 0.48797 0.0
O61 O 0.70047 0.99642 0.45214 0.0
O62 O 0.61049 0.03121 0.43402 0.0
O63 O 0.70307 0.07253 0.42396 0.0
O64 O 0.57965 0.96565 0.47355 0.0
O65 O 0.51921 0.97848 0.4542 0.0
O66 O 0.57098 0.1048 0.44144 0.0
O67 O 0.51485 0.06614 0.47496 0.0
O68 O 0.65144 0.07296 0.49624 0.0
O69 O 0.55884 0.03309 0.50582 0.0
O70 O 0.68261 0.14266 0.46347 0.0
O71 O 0.74988 0.12735 0.46578 0.0
H72 H 0.73919 0.99618 0.52476 0.0
H73 H 0.73411 0.93149 0.54453 0.0
H74 H 0.70422 0.86098 0.46956 0.0
H75 H 0.7091 0.92573 0.44966 0.0
H76 H 0.53052 0.1596 0.42718 0.0
H77 H 0.55008 0.23678 0.4401 0.0
H78 H 0.5728 0.21663 0.51931 0.0
H79 H 0.55352 0.13976 0.50636 0.0
Sm80 Sm 0.61623 0.54223 0.8466 0.0
Sm81 Sm 0.52651 0.4295 0.83971 0.0
C82 C 0.67857 0.63856 0.83883 0.0
C83 C 0.66363 0.66984 0.83134 0.0
C84 C 0.60355 0.64785 0.824 0.0
C85 C 0.58982 0.67735 0.81594 0.0
C86 C 0.63599 0.72953 0.81491 0.0
C87 C 0.69628 0.75147 0.82223 0.0
C88 C 0.70991 0.72182 0.83042 0.0
C89 C 0.5845 0.49292 0.8913 0.0
C90 C 0.46316 0.48145 0.84608 0.0
C91 C 0.46654 0.3328 0.84345 0.0
C92 C 0.47473 0.29715 0.83434 0.0
C93 C 0.46048 0.26001 0.85064 0.0
C94 C 0.46721 0.22544 0.84226 0.0
C95 C 0.48799 0.22712 0.8173 0.0
C96 C 0.50324 0.26507 0.80117 0.0
C97 C 0.49694 0.29987 0.80965 0.0
C98 C 0.5635 0.47812 0.79408 0.0
C99 C 0.67911 0.48918 0.84538 0.0
O100 O 0.66835 0.60653 0.821 0.0
O101 O 0.6611 0.61946 0.86163 0.0
O102 O 0.54803 0.4809 0.87294 0.0
O103 O 0.63947 0.53458 0.88735 0.0
O104 O 0.52016 0.52439 0.84351 0.0
O105 O 0.45388 0.43921 0.84761 0.0
O106 O 0.50576 0.36626 0.86106 0.0
O107 O 0.45385 0.35103 0.82588 0.0
O108 O 0.5973 0.49039 0.81356 0.0
O109 O 0.50833 0.43699 0.79777 0.0
O110 O 0.62116 0.44664 0.84351 0.0
O111 O 0.69103 0.5328 0.84604 0.0
H112 H 0.56733 0.6078 0.82415 0.0
H113 H 0.54312 0.65911 0.81007 0.0
H114 H 0.73278 0.79157 0.82187 0.0
H115 H 0.75665 0.73943 0.83588 0.0
H116 H 0.44399 0.25767 0.86987 0.0
H117 H 0.45628 0.19747 0.85543 0.0
H118 H 0.51883 0.26731 0.78177 0.0
H119 H 0.50887 0.3286 0.79679 0.0
H120 H 0.53477 0.9899 0.22459 0.0
H121 H 0.69892 0.14281 0.22943 0.0
H122 H 0.62467 0.06634 0.15495 0.0
C123 C 0.57095 0.02369 0.21495 0.0
C124 C 0.57396 0.02269 0.18797 0.0
C125 C 0.61527 0.06694 0.22988 0.0
C126 C 0.66415 0.10998 0.21762 0.0
C127 C 0.66833 0.11101 0.1905 0.0
C128 C 0.62293 0.06661 0.17579 0.0
H129 H 0.67494 0.62824 0.61503 0.0
H130 H 0.62516 0.48477 0.60133 0.0
H131 H 0.6542 0.57306 0.53715 0.0
C132 C 0.66452 0.59921 0.60155 0.0
C133 C 0.66698 0.60602 0.57496 0.0
C134 C 0.64841 0.55528 0.61103 0.0
C135 C 0.63487 0.51759 0.5937 0.0
C136 C 0.63746 0.52352 0.56683 0.0
C137 C 0.65237 0.56772 0.55768 0.0
H138 H 1.03516 0.53743 0.91017 0.0
H139 H 0.18231 0.53446 0.91288 0.0
H140 H 1.07175 0.48453 0.84295 0.0
C141 C 1.06231 0.53018 0.90014 0.0
C142 C 1.04679 0.51121 0.87453 0.0
C143 C 0.1101 0.53798 0.91385 0.0
C144 C 0.14565 0.52809 0.9018 0.0
C145 C 0.13427 0.50965 0.87599 0.0
C146 C 1.08275 0.49977 0.86256 0.0
H147 H 1.04929 0.4718 0.37939 0.0
H148 H 0.20631 0.62816 0.38252 0.0
H149 H 0.13269 0.54912 0.45288 0.0
C150 C 1.08507 0.50538 0.39055 0.0
C151 C 1.08626 0.50435 0.41768 0.0
C152 C 0.12723 0.55028 0.37788 0.0
C153 C 0.17248 0.59399 0.39244 0.0
C154 C 0.17514 0.59452 0.41944 0.0
C155 C 0.13169 0.54928 0.43202 0.0
H156 H 0.59315 0.05651 0.703 0.0
H157 H 0.62698 0.9531 0.70163 0.0
H158 H 0.56889 0.98047 0.77146 0.0
C159 C 0.59568 0.03112 0.71292 0.0
C160 C 0.57912 0.02149 0.73887 0.0
C161 C 0.61343 1.00687 0.6994 0.0
C162 C 0.61532 0.97309 0.71222 0.0
C163 C 0.59799 0.96251 0.73815 0.0
C164 C 0.58106 0.9876 0.75133 0.0
H165 H 0.55144 0.45272 0.06199 0.0
H166 H 0.51897 0.31603 0.07152 0.0
H167 H 0.55008 0.408 0.13794 0.0
C168 C 0.5463 0.42623 0.07462 0.0
C169 C 0.55149 0.43508 0.10132 0.0
C170 C 0.53438 0.38347 0.06382 0.0
C171 C 0.52617 0.34827 0.07992 0.0
C172 C 0.5311 0.35655 0.10688 0.0
C173 C 0.54318 0.39988 0.11732 0.0
H174 H 0.42217 0.55131 0.16093 0.0
H175 H 0.53015 0.66508 0.10485 0.0
H176 H 0.60115 0.64769 0.1031 0.0
H177 H 0.55562 0.55676 0.18911 0.0
H178 H 0.50113 0.48971 0.19108 0.0
H179 H 0.47745 0.52597 0.19746 0.0
H180 H 0.39084 0.47162 0.16304 0.0
H181 H 0.4146 0.43613 0.15617 0.0
H182 H 0.41007 0.46715 0.13051 0.0
H183 H 0.63663 0.60097 0.09599 0.0
H184 H 0.63307 0.53048 0.08412 0.0
H185 H 0.49765 0.44216 0.14251 0.0
C186 C 0.46326 0.57483 0.1497 0.0
C187 C 0.47142 0.60984 0.13328 0.0
C188 C 0.52381 0.63853 0.11781 0.0
C189 C 0.56443 0.62892 0.11681 0.0
C190 C 0.55185 0.59056 0.1314 0.0
C191 C 0.50294 0.56448 0.14802 0.0
C192 C 0.48983 0.51753 0.15663 0.0
C193 C 0.50707 0.52284 0.18527 0.0
C194 C 0.42243 0.47043 0.15121 0.0
C195 C 0.53345 0.51791 0.13975 0.0
C196 C 0.57114 0.56161 0.12642 0.0
C197 C 0.60866 0.5673 0.10685 0.0
C198 C 0.60571 0.52679 0.09998 0.0
C199 C 0.56453 0.48077 0.11229 0.0
C200 C 0.53034 0.47726 0.13319 0.0
H201 H 0.84305 0.20679 0.43494 0.0
H202 H 0.75052 0.2337 0.48936 0.0
H203 H 0.83338 0.32496 0.48594 0.0
H204 H 1.00139 0.31463 0.4536 0.0
H205 H 1.02752 0.3273 0.42086 0.0
H206 H 0.96444 0.2643 0.42953 0.0
H207 H 0.89649 0.25807 0.39391 0.0
H208 H 0.95934 0.32098 0.38512 0.0
H209 H 0.88697 0.30419 0.39361 0.0
H210 H 0.92632 0.41381 0.47627 0.0
H211 H 1.01534 0.49263 0.45761 0.0
H212 H 1.04377 0.40871 0.40667 0.0
C213 C 0.84104 0.23203 0.44649 0.0
C214 C 0.79099 0.21321 0.46286 0.0
C215 C 0.78876 0.24733 0.47696 0.0
C216 C 0.83571 0.29923 0.47517 0.0
C217 C 0.88427 0.31671 0.45876 0.0
C218 C 0.88685 0.28413 0.44438 0.0
C219 C 0.94122 0.31264 0.4265 0.0
C220 C 0.98631 0.30421 0.43302 0.0
C221 C 0.91971 0.2981 0.39811 0.0
C222 C 0.96878 0.36623 0.43309 0.0
C223 C 0.93579 0.36776 0.45207 0.0
C224 C 0.95244 0.41299 0.4614 0.0
C225 C 1.00338 0.45768 0.4508 0.0
C226 C 1.0368 0.45707 0.43073 0.0
C227 C 1.01921 0.41051 0.42198 0.0
H228 H 0.70182 0.8092 0.78273 0.0
H229 H 0.53585 0.72015 0.82744 0.0
H230 H 0.50809 0.7692 0.81204 0.0
H231 H 0.73484 0.9273 0.79398 0.0
H232 H 0.76273 0.94839 0.76196 0.0
H233 H 0.76985 0.90633 0.7765 0.0
H234 H 0.71206 0.84413 0.73733 0.0
H235 H 0.70442 0.88586 0.72274 0.0
H236 H 0.63728 0.82221 0.72816 0.0
H237 H 0.49739 0.82662 0.79172 0.0
H238 H 0.50526 0.89056 0.76841 0.0
H239 H 0.67923 0.94451 0.73729 0.0
C240 C 0.65996 0.80036 0.78949 0.0
C241 C 0.62087 0.7606 0.80623 0.0
C242 C 0.5661 0.74988 0.81434 0.0
C243 C 0.55005 0.77769 0.80579 0.0
C244 C 0.58923 0.81621 0.78914 0.0
C245 C 0.64315 0.82776 0.7811 0.0
C246 C 0.67686 0.87106 0.76307 0.0
C247 C 0.7398 0.91593 0.77457 0.0
C248 C 0.683 0.85482 0.73623 0.0
C249 C 0.63344 0.88201 0.76228 0.0
C250 C 0.58322 0.84981 0.77747 0.0
C251 C 0.53668 0.85228 0.7799 0.0
C252 C 0.54178 0.88895 0.76668 0.0
C253 C 0.5932 0.92298 0.75124 0.0
C254 C 0.63931 0.91899 0.74886 0.0
H255 H 0.79336 0.40128 0.16313 0.0
H256 H 0.72664 0.41899 0.23338 0.0
H257 H 0.62019 0.35468 0.21719 0.0
H258 H 0.72178 0.41279 0.12531 0.0
H259 H 0.70236 0.36827 0.09969 0.0
H260 H 0.76561 0.3925 0.12074 0.0
H261 H 0.71738 0.30287 0.13084 0.0
H262 H 0.65031 0.27675 0.11129 0.0
H263 H 0.64238 0.26139 0.1447 0.0
H264 H 0.5313 0.31605 0.18949 0.0
H265 H 0.47924 0.32117 0.15408 0.0
H266 H 0.6008 0.33041 0.09953 0.0
C267 C 0.75558 0.3887 0.1756 0.0
C268 C 0.76719 0.41328 0.19967 0.0
C269 C 0.71803 0.399 0.21524 0.0
C270 C 0.65749 0.36229 0.20614 0.0
C271 C 0.64721 0.34084 0.18134 0.0
C272 C 0.69534 0.35315 0.16634 0.0
C273 C 0.67564 0.33693 0.13833 0.0
C274 C 0.7188 0.38023 0.12002 0.0
C275 C 0.67113 0.29178 0.1309 0.0
C276 C 0.61248 0.3215 0.13913 0.0
C277 C 0.59493 0.32005 0.16433 0.0
C278 C 0.54387 0.31583 0.1698 0.0
C279 C 0.51437 0.31875 0.14952 0.0
C280 C 0.53719 0.32721 0.12425 0.0
C281 C 0.58234 0.32335 0.11869 0.0
H282 H 0.41753 0.89309 0.43531 0.0
H283 H 0.51712 0.8771 0.4903 0.0
H284 H 0.434 0.78551 0.48807 0.0
H285 H 0.26271 0.79038 0.45729 0.0
H286 H 0.23037 0.77109 0.42506 0.0
H287 H 0.2953 0.83568 0.43256 0.0
H288 H 0.35605 0.83402 0.3959 0.0
H289 H 0.29133 0.76956 0.38826 0.0
H290 H 0.36493 0.78748 0.39556 0.0
H291 H 0.34088 0.694 0.47824 0.0
H292 H 0.25041 0.61194 0.45952 0.0
H293 H 0.21217 0.68754 0.41085 0.0
C294 C 0.42146 0.87042 0.44719 0.0
C295 C 0.47395 0.89265 0.46314 0.0
C296 C 0.47753 0.86126 0.47797 0.0
C297 C 0.43031 0.80904 0.4769 0.0
C298 C 0.37947 0.7883 0.46085 0.0
C299 C 0.3749 0.81807 0.44618 0.0
C300 C 0.31732 0.78629 0.42928 0.0
C301 C 0.27386 0.79647 0.43649 0.0
C302 C 0.33339 0.79485 0.40055 0.0
C303 C 0.29074 0.73411 0.43644 0.0
C304 C 0.32677 0.73593 0.45491 0.0
C305 C 0.31217 0.69224 0.46389 0.0
C306 C 0.26039 0.64567 0.45328 0.0
C307 C 0.22403 0.643 0.43367 0.0
C308 C 0.23907 0.68808 0.42571 0.0
H309 H 0.57603 0.23984 0.78639 0.0
H310 H 0.40894 0.12703 0.82671 0.0
H311 H 0.41531 0.06313 0.81151 0.0
H312 H 0.54163 0.16123 0.73028 0.0
H313 H 0.61995 0.18755 0.72605 0.0
H314 H 0.60353 0.22508 0.74069 0.0
H315 H 0.6697 0.24317 0.78073 0.0
H316 H 0.68633 0.20571 0.76623 0.0
H317 H 0.65304 0.1917 0.79772 0.0
H318 H 0.43909 0.0113 0.79204 0.0
H319 H 0.47803 0.97442 0.76881 0.0
H320 H 0.62792 0.1198 0.73986 0.0
C321 C 0.54046 0.20166 0.79189 0.0
C322 C 0.4922 0.18871 0.80798 0.0
C323 C 0.44708 0.13827 0.81489 0.0
C324 C 0.45 0.10155 0.80619 0.0
C325 C 0.4981 0.11563 0.79042 0.0
C326 C 0.54242 0.16439 0.78323 0.0
C327 C 0.58887 0.16935 0.76584 0.0
C328 C 0.58844 0.18683 0.73913 0.0
C329 C 0.65329 0.20457 0.77839 0.0
C330 C 0.56364 0.11573 0.76441 0.0
C331 C 0.51138 0.08546 0.77882 0.0
C332 C 0.48001 0.03461 0.78072 0.0
C333 C 0.50267 0.01407 0.76757 0.0
C334 C 0.55614 0.04427 0.75263 0.0
C335 C 0.58675 0.09576 0.75099 0.0
H336 H 0.64305 0.78905 0.4994 0.0
H337 H 0.80233 0.91121 0.54451 0.0
H338 H 0.80863 0.85178 0.56451 0.0
H339 H 0.57555 0.69967 0.54884 0.0
H340 H 0.5479 0.64725 0.52728 0.0
H341 H 0.55693 0.69951 0.5157 0.0
H342 H 0.62718 0.71006 0.47961 0.0
H343 H 0.61856 0.65791 0.49116 0.0
H344 H 0.69397 0.71764 0.48807 0.0
H345 H 0.79731 0.78008 0.58021 0.0
H346 H 0.76641 0.69921 0.59215 0.0
H347 H 0.61399 0.62208 0.53731 0.0
C348 C 0.67952 0.80326 0.51333 0.0
C349 C 0.72209 0.85481 0.52048 0.0
C350 C 0.76871 0.87187 0.53901 0.0
C351 C 0.77298 0.83845 0.55032 0.0
C352 C 0.73032 0.78799 0.54293 0.0
C353 C 0.68431 0.77028 0.52495 0.0
C354 C 0.64318 0.71386 0.52118 0.0
C355 C 0.57697 0.6886 0.52871 0.0
C356 C 0.64591 0.69901 0.49335 0.0
C357 C 0.67307 0.7027 0.54 0.0
C358 C 0.72349 0.74618 0.55218 0.0
C359 C 0.75796 0.74577 0.57081 0.0
C360 C 0.73991 0.69965 0.57753 0.0
C361 C 0.68767 0.65439 0.56576 0.0
C362 C 0.65443 0.65611 0.54644 0.0
H363 H 0.80399 0.5607 0.8626 0.0
H364 H 0.67269 0.41009 0.82955 0.0
H365 H 0.75177 0.40133 0.83004 0.0
H366 H 0.93975 0.59442 0.82963 0.0
H367 H 0.99042 0.6283 0.8572 0.0
H368 H 0.92456 0.62411 0.85318 0.0
H369 H 0.88715 0.58726 0.89828 0.0
H370 H 0.95306 0.59162 0.90247 0.0
H371 H 0.87711 0.53248 0.90571 0.0
H372 H 0.84898 0.40849 0.83441 0.0
H373 H 0.94719 0.42846 0.84595 0.0
H374 H 1.01611 0.57302 0.87725 0.0
C375 C 0.79181 0.52596 0.85523 0.0
C376 C 0.73075 0.48624 0.84579 0.0
C377 C 0.71809 0.44141 0.83686 0.0
C378 C 0.7633 0.43603 0.83699 0.0
C379 C 0.82252 0.47553 0.84639 0.0
C380 C 0.83667 0.51958 0.8556 0.0
C381 C 0.90309 0.5554 0.86584 0.0
C382 C 0.94174 0.60341 0.85055 0.0
C383 C 0.90522 0.5674 0.89479 0.0
C384 C 0.92398 0.52491 0.86097 0.0
C385 C 0.87704 0.47902 0.84949 0.0
C386 C 0.88575 0.44451 0.84341 0.0
C387 C 0.94245 0.45639 0.84981 0.0
C388 C 0.991 0.50246 0.86253 0.0
C389 C 0.98088 0.53727 0.86757 0.0
H390 H 0.24717 0.75029 0.17256 0.0
H391 H 0.32899 0.71268 0.11799 0.0
H392 H 0.42433 0.80078 0.11949 0.0
H393 H 0.32014 0.87517 0.14918 0.0
H394 H 0.33083 0.90157 0.18121 0.0
H395 H 0.2672 0.83643 0.17412 0.0
H396 H 0.30232 0.81182 0.21124 0.0
H397 H 0.36582 0.87679 0.21848 0.0
H398 H 0.37941 0.83386 0.21169 0.0
H399 H 0.51402 0.89301 0.12912 0.0
H400 H 0.59052 0.97896 0.14795 0.0
H401 H 0.44974 0.95628 0.1957 0.0
C402 C 0.28473 0.76064 0.1606 0.0
C403 C 0.28015 0.72434 0.14504 0.0
C404 C 0.33103 0.7396 0.13004 0.0
C405 C 0.38547 0.78973 0.13068 0.0
C406 C 0.38863 0.82447 0.14638 0.0
C407 C 0.33956 0.81051 0.1611 0.0
C408 C 0.35595 0.85434 0.17761 0.0
C409 C 0.31616 0.86766 0.17007 0.0
C410 C 0.35057 0.84355 0.20645 0.0
C411 C 0.42216 0.89486 0.17027 0.0
C412 C 0.44011 0.87717 0.15202 0.0
C413 C 0.5002 0.90735 0.14324 0.0
C414 C 0.54334 0.95632 0.15389 0.0
C415 C 0.52639 0.97457 0.17331 0.0
C416 C 0.46441 0.94354 0.18096 0.0
H417 H 0.52025 0.25257 0.52239 0.0
H418 H 0.63946 0.32187 0.45679 0.0
H419 H 0.6672 0.40264 0.47031 0.0
H420 H 0.46625 0.32285 0.52143 0.0
H421 H 0.46488 0.32748 0.55608 0.0
H422 H 0.45244 0.27465 0.54064 0.0
H423 H 0.54139 0.29358 0.56795 0.0
H424 H 0.55412 0.34646 0.58344 0.0
H425 H 0.61609 0.35472 0.56734 0.0
H426 H 0.68746 0.47704 0.49264 0.0
H427 H 0.6969 0.53917 0.52133 0.0
H428 H 0.55991 0.42072 0.57124 0.0
C429 C 0.55208 0.28474 0.51085 0.0
C430 C 0.5776 0.28086 0.48848 0.0
C431 C 0.61874 0.32376 0.4738 0.0
C432 C 0.63497 0.36985 0.48138 0.0
C433 C 0.60925 0.37243 0.50359 0.0
C434 C 0.56834 0.33095 0.51801 0.0
C435 C 0.54801 0.34403 0.54127 0.0
C436 C 0.47878 0.31556 0.53975 0.0
C437 C 0.56599 0.33411 0.56649 0.0
C438 C 0.58478 0.39952 0.53794 0.0
C439 C 0.61972 0.41512 0.51607 0.0
C440 C 0.65952 0.46511 0.50959 0.0
C441 C 0.66412 0.50017 0.52598 0.0
C442 C 0.62877 0.48523 0.5486 0.0
C443 C 0.58805 0.43387 0.55431 0.0
H444 H 0.45384 0.55497 0.86266 0.0
H445 H 0.34386 0.40262 0.83177 0.0
H446 H 0.25185 0.39527 0.83289 0.0
H447 H 0.33862 0.52994 0.90718 0.0
H448 H 0.35672 0.58917 0.90354 0.0
H449 H 0.41497 0.58396 0.89873 0.0
H450 H 0.43423 0.61882 0.85324 0.0
H451 H 0.37585 0.62398 0.85792 0.0
H452 H 0.37113 0.58862 0.83047 0.0
H453 H 0.16787 0.40439 0.83706 0.0
H454 H 0.10249 0.42588 0.84844 0.0
H455 H 0.26274 0.56988 0.87955 0.0
C456 C 0.41055 0.52013 0.85592 0.0
C457 C 0.40757 0.47944 0.84684 0.0
C458 C 0.3488 0.43458 0.83875 0.0
C459 C 0.29568 0.43004 0.83924 0.0
C460 C 0.30005 0.47039 0.84831 0.0
C461 C 0.35608 0.51449 0.85684 0.0
C462 C 0.3473 0.55114 0.8671 0.0
C463 C 0.36549 0.56434 0.89584 0.0
C464 C 0.38434 0.59846 0.85125 0.0
C465 C 0.27804 0.52096 0.86308 0.0
C466 C 0.25174 0.47469 0.85179 0.0
C467 C 0.18852 0.44061 0.84599 0.0
C468 C 0.15133 0.45334 0.85234 0.0
C469 C 0.17613 0.49971 0.86494 0.0
C470 C 0.24117 0.53395 0.86997 0.0
H471 H 0.92606 0.40896 0.18097 0.0
H472 H 0.98738 0.38331 0.11086 0.0
H473 H 0.90503 0.29227 0.11431 0.0
H474 H 0.89122 0.30531 0.21392 0.0
H475 H 0.82495 0.29006 0.22977 0.0
H476 H 0.8866 0.35349 0.22124 0.0
H477 H 0.81048 0.35422 0.19531 0.0
H478 H 0.74853 0.29137 0.2041 0.0
H479 H 0.76225 0.30668 0.17061 0.0
H480 H 0.81567 0.20226 0.12614 0.0
H481 H 0.72934 0.12319 0.14552 0.0
H482 H 0.72558 0.20829 0.20712 0.0
C483 C 0.92179 0.38429 0.16616 0.0
C484 C 0.96337 0.40368 0.14555 0.0
C485 C 0.95636 0.3697 0.12684 0.0
C486 C 0.90956 0.31774 0.12862 0.0
C487 C 0.8699 0.29985 0.14931 0.0
C488 C 0.87553 0.33215 0.16775 0.0
C489 C 0.82834 0.30315 0.18857 0.0
C490 C 0.85966 0.31363 0.21493 0.0
C491 C 0.78471 0.31448 0.18969 0.0
C492 C 0.79491 0.2499 0.1788 0.0
C493 C 0.81947 0.24852 0.15619 0.0
C494 C 0.79594 0.20312 0.14379 0.0
C495 C 0.74629 0.15821 0.15486 0.0
C496 C 0.71999 0.15872 0.17806 0.0
C497 C 0.74482 0.2057 0.1898 0.0
H498 H 0.09065 0.51513 0.06752 0.0
H499 H 0.12518 0.65541 0.07113 0.0
H500 H 0.14047 0.66234 0.02423 0.0
H501 H 0.20169 0.54988 0.01703 0.0
H502 H 0.15335 0.48856 0.0014 0.0
H503 H 0.14824 0.49547 0.03563 0.0
H504 H 1.03194 0.44733 0.03037 0.0
H505 H 1.03666 0.44012 -0.00382 0.0
H506 H 1.00583 0.46875 0.00806 0.0
H507 H 0.1458 0.65231 0.97696 0.0
H508 H 0.1394 0.62489 0.93167 0.0
H509 H 0.10362 0.49193 0.95742 0.0
C510 C 0.10183 0.5474 0.05839 0.0
C511 C 0.10662 0.58474 0.073 0.0
C512 C 0.12113 0.62632 0.06038 0.0
C513 C 0.13014 0.63071 0.03372 0.0
C514 C 0.12481 0.59331 0.01982 0.0
C515 C 0.11105 0.55242 0.03163 0.0
C516 C 0.1058 0.51674 0.01183 0.0
C517 C 0.15522 0.51242 0.01677 0.0
C518 C 1.04122 0.46519 0.0116 0.0
C519 C 0.11754 0.54353 0.98708 0.0
C520 C 0.1288 0.58782 0.99227 0.0
C521 C 0.1378 0.61804 0.97266 0.0
C522 C 0.13417 0.60226 0.94702 0.0
C523 C 0.12193 0.55679 0.94113 0.0
C524 C 0.11444 0.52743 0.96147 0.0
H525 H 0.72542 0.0971 0.37559 0.0
H526 H 0.53768 0.01971 0.39791 0.0
H527 H 0.51004 0.01915 0.35275 0.0
H528 H 0.73271 0.17412 0.32679 0.0
H529 H 0.77863 0.16887 0.30553 0.0
H530 H 0.78452 0.16661 0.3399 0.0
H531 H 0.75952 0.08134 0.33375 0.0
H532 H 0.75349 0.08329 0.29941 0.0
H533 H 0.6904 0.03047 0.31651 0.0
H534 H 0.50163 0.02227 0.3049 0.0
H535 H 0.51268 0.02868 0.25767 0.0
H536 H 0.70584 0.10329 0.26645 0.0
C537 C 0.67867 0.0806 0.37101 0.0
C538 C 0.6336 0.05845 0.39016 0.0
C539 C 0.57284 0.03689 0.38346 0.0
C540 C 0.55679 0.0365 0.35791 0.0
C541 C 0.60215 0.05803 0.33938 0.0
C542 C 0.6619 0.07983 0.34562 0.0
C543 C 0.70123 0.09824 0.32189 0.0
C544 C 0.75229 0.15535 0.32364 0.0
C545 C 0.72769 0.07174 0.31765 0.0
C546 C 0.65401 0.08251 0.30124 0.0
C547 C 0.59727 0.05973 0.31177 0.0
C548 C 0.54591 0.04033 0.29646 0.0
C549 C 0.55257 0.04389 0.26966 0.0
C550 C 0.6101 0.06648 0.2584 0.0
C551 C 0.66153 0.08652 0.27451 0.0
H552 H 0.50205 0.43993 0.74759 0.0
H553 H 0.67951 0.56094 0.78243 0.0
H554 H 0.72068 0.59355 0.73931 0.0
H555 H 0.56108 0.41878 0.69264 0.0
H556 H 0.50259 0.40432 0.67062 0.0
H557 H 0.48613 0.39169 0.70429 0.0
H558 H 0.453 0.44535 0.70685 0.0
H559 H 0.46896 0.45787 0.67315 0.0
H560 H 0.50509 0.50897 0.6967 0.0
H561 H 0.74194 0.61367 0.69256 0.0
H562 H 0.74271 0.61861 0.64509 0.0
H563 H 0.55356 0.48152 0.64032 0.0
C564 C 0.54945 0.47351 0.74614 0.0
C565 C 0.58744 0.49844 0.76836 0.0
C566 C 0.64941 0.54179 0.76569 0.0
C567 C 0.67325 0.56042 0.74127 0.0
C568 C 0.6347 0.53481 0.71973 0.0
C569 C 0.57423 0.49213 0.72189 0.0
C570 C 0.54306 0.47091 0.69562 0.0
C571 C 0.52198 0.41831 0.6905 0.0
C572 C 0.48936 0.47079 0.69293 0.0
C573 C 0.59535 0.50851 0.67835 0.0
C574 C 0.6477 0.54522 0.69268 0.0
C575 C 0.70139 0.58497 0.68113 0.0
C576 C 0.70143 0.5875 0.65424 0.0
C577 C 0.64839 0.55025 0.63921 0.0
C578 C 0.59492 0.51002 0.65142 0.0
H579 H 0.53831 0.02099 0.55449 0.0
H580 H 0.71495 0.06763 0.5329 0.0
H581 H 0.7345 0.05988 0.57816 0.0
H582 H 0.58847 0.08894 0.61513 0.0
H583 H 0.51781 0.04171 0.63095 0.0
H584 H 0.5175 0.04892 0.59679 0.0
H585 H 0.46509 0.95556 0.58838 0.0
H586 H 0.46527 0.94805 0.62251 0.0
H587 H 0.50025 0.93179 0.60095 0.0
H588 H 0.7326 0.04516 0.62646 0.0
H589 H 0.71283 0.03084 0.67327 0.0
H590 H 0.53993 0.99861 0.6624 0.0
C591 C 0.58108 0.02943 0.55922 0.0
C592 C 0.62501 0.04453 0.5402 0.0
C593 C 0.68065 0.05578 0.54721 0.0
C594 C 0.69202 0.05142 0.57284 0.0
C595 C 0.64755 0.03639 0.59118 0.0
C596 C 0.59345 0.02606 0.58464 0.0
C597 C 0.55385 0.01245 0.60787 0.0
C598 C 0.54385 0.05027 0.61298 0.0
C599 C 0.4925 0.95877 0.60473 0.0
C600 C 0.5939 0.01661 0.62864 0.0
C601 C 0.64753 0.02993 0.61871 0.0
C602 C 0.69091 0.035 0.6344 0.0
C603 C 0.6793 0.02668 0.66089 0.0
C604 C 0.62523 0.01417 0.67138 0.0
C605 C 0.58209 1.00889 0.65493 0.0
H606 H 0.65747 0.51477 0.93252 0.0
H607 H 0.47278 0.40332 0.90143 0.0
H608 H 0.44401 0.35372 0.94021 0.0
H609 H 0.66769 0.42841 0.96591 0.0
H610 H 0.70952 0.47194 0.99295 0.0
H611 H 0.71766 0.49473 0.96121 0.0
H612 H 0.68641 0.54582 0.97846 0.0
H613 H 0.67908 0.52374 0.01017 0.0
H614 H 0.61534 0.51432 0.99526 0.0
H615 H 0.43268 0.32147 0.98449 0.0
H616 H 0.43802 0.31373 0.03152 0.0
H617 H 0.62978 0.44602 0.0331 0.0
C618 C 0.61126 0.47951 0.9337 0.0
C619 C 0.5674 0.46261 0.91402 0.0
C620 C 0.50712 0.41671 0.91633 0.0
C621 C 0.49052 0.38816 0.93818 0.0
C622 C 0.53485 0.40602 0.95741 0.0
C623 C 0.59396 0.45078 0.95537 0.0
C624 C 0.6313 0.46451 0.97972 0.0
C625 C 0.6847 0.4649 0.97463 0.0
C626 C 0.65433 0.51505 0.99159 0.0
C627 C 0.58341 0.42151 -0.00383 0.0
C628 C 0.52834 0.3875 0.98286 0.0
C629 C 0.47587 0.34721 0.99496 0.0
C630 C 0.47927 0.34282 0.02155 0.0
C631 C 0.53453 0.37882 0.03554 0.0
C632 C 0.58752 0.41742 0.02252 0.0
H633 H 0.12753 0.49137 0.22665 0.0
H634 H 0.15785 0.62769 0.214 0.0
H635 H 0.14688 0.63644 0.26031 0.0
H636 H 1.01698 0.44596 0.27851 0.0
H637 H 1.04709 0.42303 0.29691 0.0
H638 H 1.05294 0.42468 0.2623 0.0
H639 H 0.1705 0.47781 0.26654 0.0
H640 H 0.16497 0.47607 0.30113 0.0
H641 H 0.21491 0.53529 0.28583 0.0
H642 H 0.13537 0.63265 0.30727 0.0
H643 H 0.13159 0.62002 0.35378 0.0
H644 H 0.11314 0.48823 0.33814 0.0
C645 C 0.13148 0.52282 0.23371 0.0
C646 C 0.14247 0.55842 0.21665 0.0
C647 C 0.14822 0.59944 0.22659 0.0
C648 C 0.14213 0.60481 0.2529 0.0
C649 C 0.13087 0.56909 0.2692 0.0
C650 C 0.12611 0.5291 0.26018 0.0
C651 C 0.11719 0.49783 0.28237 0.0
C652 C 1.05484 0.44472 0.27987 0.0
C653 C 0.17005 0.49671 0.28406 0.0
C654 C 0.11878 0.52713 0.30517 0.0
C655 C 0.12591 0.56767 0.29691 0.0
C656 C 0.12993 0.60112 0.31404 0.0
C657 C 0.12801 0.59374 0.34043 0.0
C658 C 0.12277 0.5535 0.34962 0.0
C659 C 0.11684 0.51913 0.33168 0.0
loop_
_geom_bond_atom_site_label_1
_geom_bond_atom_site_label_2
_geom_bond_distance
_geom_bond_site_symmetry_2
_ccdc_geom_bond_type
Sm0 C2 2.846 . S
Sm0 O20 2.543 . S
Sm0 O21 2.450 . S
Sm0 O22 2.681 . S
Sm0 O23 2.464 . S
Sm0 O24 2.396 . S
Sm0 O28 2.386 . S
Sm0 O31 2.408 1_455 S
Sm1 C11 2.846 . S
Sm1 O22 2.386 1_655 S
Sm1 O25 2.408 1_655 S
Sm1 O26 2.543 . S
Sm1 O27 2.450 . S
Sm1 O28 2.681 1_655 S
Sm1 O29 2.464 . S
Sm1 O30 2.396 . S
C2 Sm0 2.846 . S
C2 C3 1.506 . S
C2 O20 1.261 . S
C2 O21 1.242 . S
C3 C2 1.506 . S
C3 C4 1.358 . S
C3 C8 1.382 . S
C4 C3 1.358 . S
C4 C5 1.385 . S
C4 H32 0.930 . S
C5 C4 1.385 . S
C5 C6 1.395 . S
C5 H33 0.929 . S
C6 C5 1.395 . S
C6 C7 1.335 . S
C7 C6 1.335 . S
C7 C8 1.398 . S
C7 H34 0.930 . S
C8 C3 1.382 . S
C8 C7 1.398 . S
C8 H35 0.929 . S
C9 O22 1.271 . S
C9 O23 1.251 . S
C10 O24 1.252 . S
C10 O25 1.272 . S
C11 Sm1 2.846 . S
C11 C12 1.506 . S
C11 O26 1.261 . S
C11 O27 1.242 . S
C12 C11 1.506 . S
C12 C13 1.358 . S
C12 C17 1.382 . S
C13 C12 1.358 . S
C13 C14 1.385 . S
C13 H36 0.930 . S
C14 C13 1.385 . S
C14 C15 1.395 . S
C14 H37 0.929 . S
C15 C14 1.395 . S
C15 C16 1.335 . S
C16 C15 1.335 . S
C16 C17 1.398 . S
C16 H38 0.930 . S
C17 C12 1.382 . S
C17 C16 1.398 . S
C17 H39 0.929 . S
C18 O28 1.271 . S
C18 O29 1.251 1_455 S
C19 O30 1.252 . S
C19 O31 1.272 . S
O20 Sm0 2.543 . S
O20 C2 1.261 . S
O21 Sm0 2.450 . S
O21 C2 1.242 . S
O22 Sm0 2.681 . S
O22 Sm1 2.386 1_455 S
O22 C9 1.271 . S
O23 Sm0 2.464 . S
O23 C9 1.251 . S
O24 Sm0 2.396 . S
O24 C10 1.252 . S
O25 Sm1 2.408 1_455 S
O25 C10 1.272 . S
O26 Sm1 2.543 . S
O26 C11 1.261 . S
O27 Sm1 2.450 . S
O27 C11 1.242 . S
O28 Sm0 2.386 . S
O28 Sm1 2.681 1_455 S
O28 C18 1.271 . S
O29 Sm1 2.464 . S
O29 C18 1.251 1_655 S
O30 Sm1 2.396 . S
O30 C19 1.252 . S
O31 Sm0 2.408 1_655 S
O31 C19 1.272 . S
H32 C4 0.930 . S
H33 C5 0.929 . S
H34 C7 0.930 . S
H35 C8 0.929 . S
H36 C13 0.930 . S
H37 C14 0.929 . S
H38 C16 0.930 . S
H39 C17 0.929 . S
Sm40 C42 2.846 . S
Sm40 O60 2.543 . S
Sm40 O61 2.450 . S
Sm40 O62 2.681 1_565 S
Sm40 O63 2.464 . S
Sm40 O64 2.396 . S
Sm40 O68 2.386 . S
Sm40 O71 2.408 1_565 S
Sm41 C51 2.846 . S
Sm41 O62 2.386 . S
Sm41 O65 2.408 1_545 S
Sm41 O66 2.543 . S
Sm41 O67 2.450 . S
Sm41 O68 2.681 1_545 S
Sm41 O69 2.464 . S
Sm41 O70 2.396 . S
C42 Sm40 2.846 . S
C42 C43 1.506 . S
C42 O60 1.261 . S
C42 O61 1.242 . S
C43 C42 1.506 . S
C43 C44 1.358 . S
C43 C48 1.382 . S
C44 C43 1.358 . S
C44 C45 1.385 . S
C44 H72 0.930 . S
C45 C44 1.385 . S
C45 C46 1.395 . S
C45 H73 0.929 . S
C46 C45 1.395 . S
C46 C47 1.335 . S
C47 C46 1.335 . S
C47 C48 1.398 . S
C47 H74 0.930 . S
C48 C43 1.382 . S
C48 C47 1.398 . S
C48 H75 0.929 . S
C49 O62 1.271 . S
C49 O63 1.251 1_545 S
C50 O64 1.252 . S
C50 O65 1.272 . S
C51 Sm41 2.846 . S
C51 C52 1.506 . S
C51 O66 1.261 . S
C51 O67 1.242 . S
C52 C51 1.506 . S
C52 C53 1.358 . S
C52 C57 1.382 . S
C53 C52 1.358 . S
C53 C54 1.385 . S
C53 H76 0.930 . S
C54 C53 1.385 . S
C54 C55 1.395 . S
C54 H77 0.929 . S
C55 C54 1.395 . S
C55 C56 1.335 . S
C56 C55 1.335 . S
C56 C57 1.398 . S
C56 H78 0.930 . S
C57 C52 1.382 . S
C57 C56 1.398 . S
C57 H79 0.929 . S
C58 O68 1.271 1_545 S
C58 O69 1.251 . S
C59 O70 1.252 . S
C59 O71 1.272 . S
O60 Sm40 2.543 . S
O60 C42 1.261 . S
O61 Sm40 2.450 . S
O61 C42 1.242 . S
O62 Sm40 2.681 1_545 S
O62 Sm41 2.386 . S
O62 C49 1.271 . S
O63 Sm40 2.464 . S
O63 C49 1.251 1_565 S
O64 Sm40 2.396 . S
O64 C50 1.252 . S
O65 Sm41 2.408 1_565 S
O65 C50 1.272 . S
O66 Sm41 2.543 . S
O66 C51 1.261 . S
O67 Sm41 2.450 . S
O67 C51 1.242 . S
O68 Sm40 2.386 . S
O68 Sm41 2.681 1_565 S
O68 C58 1.271 1_565 S
O69 Sm41 2.464 . S
O69 C58 1.251 . S
O70 Sm41 2.396 . S
O70 C59 1.252 . S
O71 Sm40 2.408 1_545 S
O71 C59 1.272 . S
H72 C44 0.930 . S
H73 C45 0.929 . S
H74 C47 0.930 . S
H75 C48 0.929 . S
H76 C53 0.930 . S
H77 C54 0.929 . S
H78 C56 0.930 . S
H79 C57 0.929 . S
Sm80 C82 2.846 . S
Sm80 O100 2.543 . S
Sm80 O101 2.450 . S
Sm80 O102 2.681 . S
Sm80 O103 2.464 . S
Sm80 O104 2.396 . S
Sm80 O108 2.386 . S
Sm80 O111 2.408 . S
Sm81 C91 2.846 . S
Sm81 O102 2.386 . S
Sm81 O105 2.408 . S
Sm81 O106 2.543 . S
Sm81 O107 2.450 . S
Sm81 O108 2.681 . S
Sm81 O109 2.464 . S
Sm81 O110 2.396 . S
C82 Sm80 2.846 . S
C82 C83 1.506 . S
C82 O100 1.261 . S
C82 O101 1.242 . S
C83 C82 1.506 . S
C83 C84 1.358 . S
C83 C88 1.382 . S
C84 C83 1.358 . S
C84 C85 1.385 . S
C84 H112 0.930 . S
C85 C84 1.385 . S
C85 C86 1.395 . S
C85 H113 0.929 . S
C86 C85 1.395 . S
C86 C87 1.335 . S
C87 C86 1.335 . S
C87 C88 1.398 . S
C87 H114 0.930 . S
C88 C83 1.382 . S
C88 C87 1.398 . S
C88 H115 0.929 . S
C89 O102 1.271 . S
C89 O103 1.251 . S
C90 O104 1.252 . S
C90 O105 1.272 . S
C91 Sm81 2.846 . S
C91 C92 1.506 . S
C91 O106 1.261 . S
C91 O107 1.242 . S
C92 C91 1.506 . S
C92 C93 1.358 . S
C92 C97 1.382 . S
C93 C92 1.358 . S
C93 C94 1.385 . S
C93 H116 0.930 . S
C94 C93 1.385 . S
C94 C95 1.395 . S
C94 H117 0.929 . S
C95 C94 1.395 . S
C95 C96 1.335 . S
C96 C95 1.335 . S
C96 C97 1.398 . S
C96 H118 0.930 . S
C97 C92 1.382 . S
C97 C96 1.398 . S
C97 H119 0.929 . S
C98 O108 1.271 . S
C98 O109 1.251 . S
C99 O110 1.252 . S
C99 O111 1.272 . S
O100 Sm80 2.543 . S
O100 C82 1.261 . S
O101 Sm80 2.450 . S
O101 C82 1.242 . S
O102 Sm80 2.681 . S
O102 Sm81 2.386 . S
O102 C89 1.271 . S
O103 Sm80 2.464 . S
O103 C89 1.251 . S
O104 Sm80 2.396 . S
O104 C90 1.252 . S
O105 Sm81 2.408 . S
O105 C90 1.272 . S
O106 Sm81 2.543 . S
O106 C91 1.261 . S
O107 Sm81 2.450 . S
O107 C91 1.242 . S
O108 Sm80 2.386 . S
O108 Sm81 2.681 . S
O108 C98 1.271 . S
O109 Sm81 2.464 . S
O109 C98 1.251 . S
O110 Sm81 2.396 . S
O110 C99 1.252 . S
O111 Sm80 2.408 . S
O111 C99 1.272 . S
H112 C84 0.930 . S
H113 C85 0.929 . S
H114 C87 0.930 . S
H115 C88 0.929 . S
H116 C93 0.930 . S
H117 C94 0.929 . S
H118 C96 0.930 . S
H119 C97 0.929 . S
H120 C123 0.931 . S
H121 C126 0.928 . S
H122 C128 0.930 . S
C123 H120 0.931 . S
C123 C124 1.413 . S
C123 C125 1.360 1_565 S
C124 C123 1.413 . S
C124 C128 1.429 1_565 S
C125 C123 1.360 1_545 S
C125 C126 1.372 . S
C126 H121 0.928 . S
C126 C125 1.372 . S
C126 C127 1.404 . S
C127 C126 1.404 . S
C127 C128 1.391 . S
C128 H122 0.930 . S
C128 C124 1.429 1_545 S
C128 C127 1.391 . S
H129 C132 0.931 . S
H130 C135 0.928 . S
H131 C137 0.930 . S
C132 H129 0.931 . S
C132 C133 1.413 . S
C132 C134 1.360 . S
C133 C132 1.413 . S
C133 C137 1.429 . S
C134 C132 1.360 . S
C134 C135 1.372 . S
C135 H130 0.928 . S
C135 C134 1.372 . S
C135 C136 1.404 . S
C136 C135 1.404 . S
C136 C137 1.391 . S
C137 H131 0.930 . S
C137 C133 1.429 . S
C137 C136 1.391 . S
H138 C141 0.931 1_655 S
H139 C144 0.928 . S
H140 C146 0.930 . S
C141 H138 0.931 1_455 S
C141 C142 1.413 . S
C141 C143 1.360 . S
C142 C141 1.413 . S
C142 C146 1.429 . S
C143 C141 1.360 . S
C143 C144 1.372 . S
C144 H139 0.928 . S
C144 C143 1.372 . S
C144 C145 1.404 . S
C145 C144 1.404 . S
C145 C146 1.391 . S
C146 H140 0.930 . S
C146 C142 1.429 . S
C146 C145 1.391 . S
H147 C150 0.931 . S
H148 C153 0.928 . S
H149 C155 0.930 . S
C150 H147 0.931 . S
C150 C151 1.413 . S
C150 C152 1.359 1_655 S
C151 C150 1.413 . S
C151 C155 1.429 1_655 S
C152 C150 1.359 1_455 S
C152 C153 1.373 . S
C153 H148 0.928 . S
C153 C152 1.373 . S
C153 C154 1.404 . S
C154 C153 1.404 . S
C154 C155 1.391 . S
C155 H149 0.930 . S
C155 C151 1.429 1_455 S
C155 C154 1.391 . S
H156 C159 0.931 . S
H157 C162 0.928 . S
H158 C164 0.930 . S
C159 H156 0.931 . S
C159 C160 1.413 . S
C159 C161 1.345 1_545 S
C160 C159 1.413 . S
C160 C164 1.429 . S
C161 C159 1.345 1_565 S
C161 C162 1.387 . S
C162 H157 0.928 . S
C162 C161 1.387 . S
C162 C163 1.404 . S
C163 C162 1.404 . S
C163 C164 1.391 1_565 S
C164 H158 0.930 . S
C164 C160 1.429 . S
C164 C163 1.391 1_545 S
H165 C168 0.931 . S
H166 C171 0.928 . S
H167 C173 0.930 . S
C168 H165 0.931 . S
C168 C169 1.413 . S
C168 C170 1.360 . S
C169 C168 1.413 . S
C169 C173 1.429 . S
C170 C168 1.360 . S
C170 C171 1.372 . S
C171 H166 0.928 . S
C171 C170 1.372 . S
C171 C172 1.404 . S
C172 C171 1.404 . S
C172 C173 1.391 . S
C173 H167 0.930 . S
C173 C169 1.429 . S
C173 C172 1.391 . S
H174 C186 0.930 . S
H175 C188 0.930 . S
H176 C189 0.930 . S
H177 C193 0.959 . S
H178 C193 0.959 . S
H179 C193 0.961 . S
H180 C194 0.960 . S
H181 C194 0.961 . S
H182 C194 0.959 . S
H183 C197 0.929 . S
H184 C198 0.931 . S
H185 C200 0.930 . S
C186 H174 0.930 . S
C186 C187 1.399 . S
C186 C191 1.399 . S
C187 C186 1.399 . S
C187 C188 1.376 . S
C188 H175 0.930 . S
C188 C187 1.376 . S
C188 C189 1.388 . S
C189 H176 0.930 . S
C189 C188 1.388 . S
C189 C190 1.390 . S
C190 C189 1.390 . S
C190 C191 1.394 . S
C190 C196 1.465 . S
C191 C186 1.399 . S
C191 C190 1.394 . S
C191 C192 1.516 . S
C192 C191 1.516 . S
C192 C193 1.502 . S
C192 C194 1.561 . S
C192 C195 1.526 . S
C193 H177 0.959 . S
C193 H178 0.959 . S
C193 H179 0.961 . S
C193 C192 1.502 . S
C194 H180 0.960 . S
C194 H181 0.961 . S
C194 H182 0.959 . S
C194 C192 1.561 . S
C195 C192 1.526 . S
C195 C196 1.396 . S
C195 C200 1.390 . S
C196 C190 1.465 . S
C196 C195 1.396 . S
C196 C197 1.399 . S
C197 H183 0.929 . S
C197 C196 1.399 . S
C197 C198 1.385 . S
C198 H184 0.931 . S
C198 C197 1.385 . S
C198 C199 1.389 . S
C199 C198 1.389 . S
C199 C200 1.387 . S
C200 H185 0.930 . S
C200 C195 1.390 . S
C200 C199 1.387 . S
H201 C213 0.930 . S
H202 C215 0.930 . S
H203 C216 0.930 . S
H204 C220 0.959 . S
H205 C220 0.959 . S
H206 C220 0.961 . S
H207 C221 0.960 . S
H208 C221 0.961 . S
H209 C221 0.959 . S
H210 C224 0.929 . S
H211 C225 0.931 . S
H212 C227 0.930 . S
C213 H201 0.930 . S
C213 C214 1.399 . S
C213 C218 1.399 . S
C214 C213 1.399 . S
C214 C215 1.376 . S
C215 H202 0.930 . S
C215 C214 1.376 . S
C215 C216 1.388 . S
C216 H203 0.930 . S
C216 C215 1.388 . S
C216 C217 1.390 . S
C217 C216 1.390 . S
C217 C218 1.394 . S
C217 C223 1.465 . S
C218 C213 1.399 . S
C218 C217 1.394 . S
C218 C219 1.516 . S
C219 C218 1.516 . S
C219 C220 1.502 . S
C219 C221 1.561 . S
C219 C222 1.526 . S
C220 H204 0.959 . S
C220 H205 0.959 . S
C220 H206 0.961 . S
C220 C219 1.502 . S
C221 H207 0.960 . S
C221 H208 0.961 . S
C221 H209 0.959 . S
C221 C219 1.561 . S
C222 C219 1.526 . S
C222 C223 1.396 . S
C222 C227 1.390 . S
C223 C217 1.465 . S
C223 C222 1.396 . S
C223 C224 1.399 . S
C224 H210 0.929 . S
C224 C223 1.399 . S
C224 C225 1.385 . S
C225 H211 0.931 . S
C225 C224 1.385 . S
C225 C226 1.389 . S
C226 C225 1.389 . S
C226 C227 1.387 . S
C227 H212 0.930 . S
C227 C222 1.390 . S
C227 C226 1.387 . S
H228 C240 0.930 . S
H229 C242 0.930 . S
H230 C243 0.930 . S
H231 C247 0.959 . S
H232 C247 0.959 . S
H233 C247 0.961 . S
H234 C248 0.960 . S
H235 C248 0.961 . S
H236 C248 0.959 . S
H237 C251 0.929 . S
H238 C252 0.931 . S
H239 C254 0.930 . S
C240 H228 0.930 . S
C240 C241 1.399 . S
C240 C245 1.399 . S
C241 C240 1.399 . S
C241 C242 1.376 . S
C242 H229 0.930 . S
C242 C241 1.376 . S
C242 C243 1.388 . S
C243 H230 0.930 . S
C243 C242 1.388 . S
C243 C244 1.390 . S
C244 C243 1.390 . S
C244 C245 1.394 . S
C244 C250 1.465 . S
C245 C240 1.399 . S
C245 C244 1.394 . S
C245 C246 1.516 . S
C246 C245 1.516 . S
C246 C247 1.502 . S
C246 C248 1.561 . S
C246 C249 1.526 . S
C247 H231 0.959 . S
C247 H232 0.959 . S
C247 H233 0.961 . S
C247 C246 1.502 . S
C248 H234 0.960 . S
C248 H235 0.961 . S
C248 H236 0.959 . S
C248 C246 1.561 . S
C249 C246 1.526 . S
C249 C250 1.396 . S
C249 C254 1.390 . S
C250 C244 1.465 . S
C250 C249 1.396 . S
C250 C251 1.399 . S
C251 H237 0.929 . S
C251 C250 1.399 . S
C251 C252 1.385 . S
C252 H238 0.931 . S
C252 C251 1.385 . S
C252 C253 1.389 . S
C253 C252 1.389 . S
C253 C254 1.387 . S
C254 H239 0.930 . S
C254 C249 1.390 . S
C254 C253 1.387 . S
H255 C267 0.930 . S
H256 C269 0.930 . S
H257 C270 0.930 . S
H258 C274 0.959 . S
H259 C274 0.959 . S
H260 C274 0.961 . S
H261 C275 0.960 . S
H262 C275 0.961 . S
H263 C275 0.959 . S
H264 C278 0.929 . S
H265 C279 0.931 . S
H266 C281 0.930 . S
C267 H255 0.930 . S
C267 C268 1.399 . S
C267 C272 1.399 . S
C268 C267 1.399 . S
C268 C269 1.376 . S
C269 H256 0.930 . S
C269 C268 1.376 . S
C269 C270 1.388 . S
C270 H257 0.930 . S
C270 C269 1.388 . S
C270 C271 1.390 . S
C271 C270 1.390 . S
C271 C272 1.394 . S
C271 C277 1.465 . S
C272 C267 1.399 . S
C272 C271 1.394 . S
C272 C273 1.516 . S
C273 C272 1.516 . S
C273 C274 1.502 . S
C273 C275 1.561 . S
C273 C276 1.526 . S
C274 H258 0.959 . S
C274 H259 0.959 . S
C274 H260 0.961 . S
C274 C273 1.502 . S
C275 H261 0.960 . S
C275 H262 0.961 . S
C275 H263 0.959 . S
C275 C273 1.561 . S
C276 C273 1.526 . S
C276 C277 1.396 . S
C276 C281 1.390 . S
C277 C271 1.465 . S
C277 C276 1.396 . S
C277 C278 1.399 . S
C278 H264 0.929 . S
C278 C277 1.399 . S
C278 C279 1.385 . S
C279 H265 0.931 . S
C279 C278 1.385 . S
C279 C280 1.389 . S
C280 C279 1.389 . S
C280 C281 1.387 . S
C281 H266 0.930 . S
C281 C276 1.390 . S
C281 C280 1.387 . S
H282 C294 0.930 . S
H283 C296 0.930 . S
H284 C297 0.930 . S
H285 C301 0.959 . S
H286 C301 0.959 . S
H287 C301 0.961 . S
H288 C302 0.960 . S
H289 C302 0.961 . S
H290 C302 0.959 . S
H291 C305 0.929 . S
H292 C306 0.931 . S
H293 C308 0.930 . S
C294 H282 0.930 . S
C294 C295 1.399 . S
C294 C299 1.399 . S
C295 C294 1.399 . S
C295 C296 1.376 . S
C296 H283 0.930 . S
C296 C295 1.376 . S
C296 C297 1.388 . S
C297 H284 0.930 . S
C297 C296 1.388 . S
C297 C298 1.390 . S
C298 C297 1.390 . S
C298 C299 1.394 . S
C298 C304 1.465 . S
C299 C294 1.399 . S
C299 C298 1.394 . S
C299 C300 1.516 . S
C300 C299 1.516 . S
C300 C301 1.502 . S
C300 C302 1.561 . S
C300 C303 1.526 . S
C301 H285 0.959 . S
C301 H286 0.959 . S
C301 H287 0.961 . S
C301 C300 1.502 . S
C302 H288 0.960 . S
C302 H289 0.961 . S
C302 H290 0.959 . S
C302 C300 1.561 . S
C303 C300 1.526 . S
C303 C304 1.396 . S
C303 C308 1.390 . S
C304 C298 1.465 . S
C304 C303 1.396 . S
C304 C305 1.399 . S
C305 H291 0.929 . S
C305 C304 1.399 . S
C305 C306 1.385 . S
C306 H292 0.931 . S
C306 C305 1.385 . S
C306 C307 1.389 . S
C307 C306 1.389 . S
C307 C308 1.387 . S
C308 H293 0.930 . S
C308 C303 1.390 . S
C308 C307 1.387 . S
H309 C321 0.930 . S
H310 C323 0.930 . S
H311 C324 0.930 . S
H312 C328 0.959 . S
H313 C328 0.959 . S
H314 C328 0.961 . S
H315 C329 0.960 . S
H316 C329 0.961 . S
H317 C329 0.959 . S
H318 C332 0.929 . S
H319 C333 0.931 . S
H320 C335 0.930 . S
C321 H309 0.930 . S
C321 C322 1.399 . S
C321 C326 1.399 . S
C322 C321 1.399 . S
C322 C323 1.376 . S
C323 H310 0.930 . S
C323 C322 1.376 . S
C323 C324 1.388 . S
C324 H311 0.930 . S
C324 C323 1.388 . S
C324 C325 1.390 . S
C325 C324 1.390 . S
C325 C326 1.394 . S
C325 C331 1.465 . S
C326 C321 1.399 . S
C326 C325 1.394 . S
C326 C327 1.516 . S
C327 C326 1.516 . S
C327 C328 1.502 . S
C327 C329 1.561 . S
C327 C330 1.526 . S
C328 H312 0.959 . S
C328 H313 0.959 . S
C328 H314 0.961 . S
C328 C327 1.502 . S
C329 H315 0.960 . S
C329 H316 0.961 . S
C329 H317 0.959 . S
C329 C327 1.561 . S
C330 C327 1.526 . S
C330 C331 1.396 . S
C330 C335 1.390 . S
C331 C325 1.465 . S
C331 C330 1.396 . S
C331 C332 1.399 . S
C332 H318 0.929 . S
C332 C331 1.399 . S
C332 C333 1.385 . S
C333 H319 0.931 . S
C333 C332 1.385 . S
C333 C334 1.389 . S
C334 C333 1.389 . S
C334 C335 1.387 . S
C335 H320 0.930 . S
C335 C330 1.390 . S
C335 C334 1.387 . S
H336 C348 0.930 . S
H337 C350 0.930 . S
H338 C351 0.930 . S
H339 C355 0.959 . S
H340 C355 0.959 . S
H341 C355 0.961 . S
H342 C356 0.960 . S
H343 C356 0.961 . S
H344 C356 0.959 . S
H345 C359 0.929 . S
H346 C360 0.931 . S
H347 C362 0.930 . S
C348 H336 0.930 . S
C348 C349 1.399 . S
C348 C353 1.399 . S
C349 C348 1.399 . S
C349 C350 1.376 . S
C350 H337 0.930 . S
C350 C349 1.376 . S
C350 C351 1.388 . S
C351 H338 0.930 . S
C351 C350 1.388 . S
C351 C352 1.390 . S
C352 C351 1.390 . S
C352 C353 1.394 . S
C352 C358 1.465 . S
C353 C348 1.399 . S
C353 C352 1.394 . S
C353 C354 1.516 . S
C354 C353 1.516 . S
C354 C355 1.502 . S
C354 C356 1.561 . S
C354 C357 1.526 . S
C355 H339 0.959 . S
C355 H340 0.959 . S
C355 H341 0.961 . S
C355 C354 1.502 . S
C356 H342 0.960 . S
C356 H343 0.961 . S
C356 H344 0.959 . S
C356 C354 1.561 . S
C357 C354 1.526 . S
C357 C358 1.396 . S
C357 C362 1.390 . S
C358 C352 1.465 . S
C358 C357 1.396 . S
C358 C359 1.399 . S
C359 H345 0.929 . S
C359 C358 1.399 . S
C359 C360 1.385 . S
C360 H346 0.931 . S
C360 C359 1.385 . S
C360 C361 1.389 . S
C361 C360 1.389 . S
C361 C362 1.387 . S
C362 H347 0.930 . S
C362 C357 1.390 . S
C362 C361 1.387 . S
H363 C375 0.930 . S
H364 C377 0.930 . S
H365 C378 0.930 . S
H366 C382 0.959 . S
H367 C382 0.959 . S
H368 C382 0.961 . S
H369 C383 0.960 . S
H370 C383 0.961 . S
H371 C383 0.959 . S
H372 C386 0.929 . S
H373 C387 0.931 . S
H374 C389 0.930 . S
C375 H363 0.930 . S
C375 C376 1.399 . S
C375 C380 1.399 . S
C376 C375 1.399 . S
C376 C377 1.376 . S
C377 H364 0.930 . S
C377 C376 1.376 . S
C377 C378 1.388 . S
C378 H365 0.930 . S
C378 C377 1.388 . S
C378 C379 1.390 . S
C379 C378 1.390 . S
C379 C380 1.394 . S
C379 C385 1.465 . S
C380 C375 1.399 . S
C380 C379 1.394 . S
C380 C381 1.516 . S
C381 C380 1.516 . S
C381 C382 1.502 . S
C381 C383 1.561 . S
C381 C384 1.526 . S
C382 H366 0.959 . S
C382 H367 0.959 . S
C382 H368 0.961 . S
C382 C381 1.502 . S
C383 H369 0.960 . S
C383 H370 0.961 . S
C383 H371 0.959 . S
C383 C381 1.561 . S
C384 C381 1.526 . S
C384 C385 1.396 . S
C384 C389 1.390 . S
C385 C379 1.465 . S
C385 C384 1.396 . S
C385 C386 1.399 . S
C386 H372 0.929 . S
C386 C385 1.399 . S
C386 C387 1.385 . S
C387 H373 0.931 . S
C387 C386 1.385 . S
C387 C388 1.389 . S
C388 C387 1.389 . S
C388 C389 1.387 . S
C389 H374 0.930 . S
C389 C384 1.390 . S
C389 C388 1.387 . S
H390 C402 0.930 . S
H391 C404 0.930 . S
H392 C405 0.930 . S
H393 C409 0.959 . S
H394 C409 0.959 . S
H395 C409 0.961 . S
H396 C410 0.960 . S
H397 C410 0.961 . S
H398 C410 0.959 . S
H399 C413 0.929 . S
H400 C414 0.931 . S
H401 C416 0.930 . S
C402 H390 0.930 . S
C402 C403 1.399 . S
C402 C407 1.399 . S
C403 C402 1.399 . S
C403 C404 1.376 . S
C404 H391 0.930 . S
C404 C403 1.376 . S
C404 C405 1.388 . S
C405 H392 0.930 . S
C405 C404 1.388 . S
C405 C406 1.390 . S
C406 C405 1.390 . S
C406 C407 1.394 . S
C406 C412 1.465 . S
C407 C402 1.399 . S
C407 C406 1.394 . S
C407 C408 1.516 . S
C408 C407 1.516 . S
C408 C409 1.502 . S
C408 C410 1.561 . S
C408 C411 1.526 . S
C409 H393 0.959 . S
C409 H394 0.959 . S
C409 H395 0.961 . S
C409 C408 1.502 . S
C410 H396 0.960 . S
C410 H397 0.961 . S
C410 H398 0.959 . S
C410 C408 1.561 . S
C411 C408 1.526 . S
C411 C412 1.396 . S
C411 C416 1.390 . S
C412 C406 1.465 . S
C412 C411 1.396 . S
C412 C413 1.399 . S
C413 H399 0.929 . S
C413 C412 1.399 . S
C413 C414 1.385 . S
C414 H400 0.931 . S
C414 C413 1.385 . S
C414 C415 1.389 . S
C415 C414 1.389 . S
C415 C416 1.387 . S
C416 H401 0.930 . S
C416 C411 1.390 . S
C416 C415 1.387 . S
H417 C429 0.930 . S
H418 C431 0.930 . S
H419 C432 0.930 . S
H420 C436 0.959 . S
H421 C436 0.959 . S
H422 C436 0.961 . S
H423 C437 0.960 . S
H424 C437 0.961 . S
H425 C437 0.959 . S
H426 C440 0.929 . S
H427 C441 0.931 . S
H428 C443 0.930 . S
C429 H417 0.930 . S
C429 C430 1.399 . S
C429 C434 1.399 . S
C430 C429 1.399 . S
C430 C431 1.376 . S
C431 H418 0.930 . S
C431 C430 1.376 . S
C431 C432 1.388 . S
C432 H419 0.930 . S
C432 C431 1.388 . S
C432 C433 1.390 . S
C433 C432 1.390 . S
C433 C434 1.394 . S
C433 C439 1.465 . S
C434 C429 1.399 . S
C434 C433 1.394 . S
C434 C435 1.516 . S
C435 C434 1.516 . S
C435 C436 1.502 . S
C435 C437 1.561 . S
C435 C438 1.526 . S
C436 H420 0.959 . S
C436 H421 0.959 . S
C436 H422 0.961 . S
C436 C435 1.502 . S
C437 H423 0.960 . S
C437 H424 0.961 . S
C437 H425 0.959 . S
C437 C435 1.561 . S
C438 C435 1.526 . S
C438 C439 1.396 . S
C438 C443 1.390 . S
C439 C433 1.465 . S
C439 C438 1.396 . S
C439 C440 1.399 . S
C440 H426 0.929 . S
C440 C439 1.399 . S
C440 C441 1.385 . S
C441 H427 0.931 . S
C441 C440 1.385 . S
C441 C442 1.389 . S
C442 C441 1.389 . S
C442 C443 1.387 . S
C443 H428 0.930 . S
C443 C438 1.390 . S
C443 C442 1.387 . S
H444 C456 0.930 . S
H445 C458 0.930 . S
H446 C459 0.930 . S
H447 C463 0.959 . S
H448 C463 0.959 . S
H449 C463 0.961 . S
H450 C464 0.960 . S
H451 C464 0.961 . S
H452 C464 0.959 . S
H453 C467 0.929 . S
H454 C468 0.931 . S
H455 C470 0.930 . S
C456 H444 0.930 . S
C456 C457 1.399 . S
C456 C461 1.399 . S
C457 C456 1.399 . S
C457 C458 1.376 . S
C458 H445 0.930 . S
C458 C457 1.376 . S
C458 C459 1.388 . S
C459 H446 0.930 . S
C459 C458 1.388 . S
C459 C460 1.390 . S
C460 C459 1.390 . S
C460 C461 1.394 . S
C460 C466 1.465 . S
C461 C456 1.399 . S
C461 C460 1.394 . S
C461 C462 1.516 . S
C462 C461 1.516 . S
C462 C463 1.502 . S
C462 C464 1.561 . S
C462 C465 1.526 . S
C463 H447 0.959 . S
C463 H448 0.959 . S
C463 H449 0.961 . S
C463 C462 1.502 . S
C464 H450 0.960 . S
C464 H451 0.961 . S
C464 H452 0.959 . S
C464 C462 1.561 . S
C465 C462 1.526 . S
C465 C466 1.396 . S
C465 C470 1.390 . S
C466 C460 1.465 . S
C466 C465 1.396 . S
C466 C467 1.399 . S
C467 H453 0.929 . S
C467 C466 1.399 . S
C467 C468 1.385 . S
C468 H454 0.931 . S
C468 C467 1.385 . S
C468 C469 1.389 . S
C469 C468 1.389 . S
C469 C470 1.387 . S
C470 H455 0.930 . S
C470 C465 1.390 . S
C470 C469 1.387 . S
H471 C483 0.930 . S
H472 C485 0.930 . S
H473 C486 0.930 . S
H474 C490 0.959 . S
H475 C490 0.959 . S
H476 C490 0.961 . S
H477 C491 0.960 . S
H478 C491 0.961 . S
H479 C491 0.959 . S
H480 C494 0.929 . S
H481 C495 0.931 . S
H482 C497 0.930 . S
C483 H471 0.930 . S
C483 C484 1.399 . S
C483 C488 1.399 . S
C484 C483 1.399 . S
C484 C485 1.376 . S
C485 H472 0.930 . S
C485 C484 1.376 . S
C485 C486 1.388 . S
C486 H473 0.930 . S
C486 C485 1.388 . S
C486 C487 1.390 . S
C487 C486 1.390 . S
C487 C488 1.394 . S
C487 C493 1.465 . S
C488 C483 1.399 . S
C488 C487 1.394 . S
C488 C489 1.516 . S
C489 C488 1.516 . S
C489 C490 1.502 . S
C489 C491 1.561 . S
C489 C492 1.526 . S
C490 H474 0.959 . S
C490 H475 0.959 . S
C490 H476 0.961 . S
C490 C489 1.502 . S
C491 H477 0.960 . S
C491 H478 0.961 . S
C491 H479 0.959 . S
C491 C489 1.561 . S
C492 C489 1.526 . S
C492 C493 1.396 . S
C492 C497 1.390 . S
C493 C487 1.465 . S
C493 C492 1.396 . S
C493 C494 1.399 . S
C494 H480 0.929 . S
C494 C493 1.399 . S
C494 C495 1.385 . S
C495 H481 0.931 . S
C495 C494 1.385 . S
C495 C496 1.389 . S
C496 C495 1.389 . S
C496 C497 1.387 . S
C497 H482 0.930 . S
C497 C492 1.390 . S
C497 C496 1.387 . S
H498 C510 0.930 . S
H499 C512 0.930 . S
H500 C513 0.930 . S
H501 C517 0.959 . S
H502 C517 0.942 1_556 S
H503 C517 0.961 . S
H504 C518 0.960 . S
H505 C518 0.961 1_556 S
H506 C518 0.959 . S
H507 C521 0.929 . S
H508 C522 0.931 . S
H509 C524 0.930 . S
C510 H498 0.930 . S
C510 C511 1.399 . S
C510 C515 1.399 . S
C511 C510 1.399 . S
C511 C512 1.376 . S
C512 H499 0.930 . S
C512 C511 1.376 . S
C512 C513 1.388 . S
C513 H500 0.930 . S
C513 C512 1.388 . S
C513 C514 1.390 . S
C514 C513 1.390 . S
C514 C515 1.394 . S
C514 C520 1.465 . S
C515 C510 1.399 . S
C515 C514 1.394 . S
C515 C516 1.516 . S
C516 C515 1.516 . S
C516 C517 1.502 . S
C516 C518 1.561 1_455 S
C516 C519 1.526 1_554 S
C517 H501 0.959 . S
C517 H502 0.942 1_554 S
C517 H503 0.961 . S
C517 C516 1.502 . S
C518 H504 0.960 . S
C518 H505 0.961 1_554 S
C518 H506 0.959 . S
C518 C516 1.561 1_655 S
C519 C516 1.526 1_556 S
C519 C520 1.396 1_556 S
C519 C524 1.390 . S
C520 C514 1.465 . S
C520 C519 1.396 1_554 S
C520 C521 1.399 1_554 S
C521 H507 0.929 . S
C521 C520 1.399 1_556 S
C521 C522 1.385 . S
C522 H508 0.931 . S
C522 C521 1.385 . S
C522 C523 1.389 . S
C523 C522 1.389 . S
C523 C524 1.387 . S
C524 H509 0.930 . S
C524 C519 1.390 . S
C524 C523 1.387 . S
H525 C537 0.930 . S
H526 C539 0.930 . S
H527 C540 0.930 . S
H528 C544 0.959 . S
H529 C544 0.959 . S
H530 C544 0.961 . S
H531 C545 0.960 . S
H532 C545 0.961 . S
H533 C545 0.959 . S
H534 C548 0.929 . S
H535 C549 0.931 . S
H536 C551 0.930 . S
C537 H525 0.930 . S
C537 C538 1.399 1_565 S
C537 C542 1.399 . S
C538 C537 1.399 1_545 S
C538 C539 1.376 . S
C539 H526 0.930 . S
C539 C538 1.376 . S
C539 C540 1.388 . S
C540 H527 0.930 . S
C540 C539 1.388 . S
C540 C541 1.390 . S
C541 C540 1.390 . S
C541 C542 1.394 1_545 S
C541 C547 1.465 . S
C542 C537 1.399 . S
C542 C541 1.394 1_565 S
C542 C543 1.516 . S
C543 C542 1.516 . S
C543 C544 1.502 . S
C543 C545 1.561 . S
C543 C546 1.526 . S
C544 H528 0.959 . S
C544 H529 0.959 . S
C544 H530 0.961 . S
C544 C543 1.502 . S
C545 H531 0.960 . S
C545 H532 0.961 . S
C545 H533 0.959 . S
C545 C543 1.561 . S
C546 C543 1.526 . S
C546 C547 1.396 1_565 S
C546 C551 1.390 . S
C547 C541 1.465 . S
C547 C546 1.396 1_545 S
C547 C548 1.399 . S
C548 H534 0.929 . S
C548 C547 1.399 . S
C548 C549 1.385 . S
C549 H535 0.931 . S
C549 C548 1.385 . S
C549 C550 1.389 . S
C550 C549 1.389 . S
C550 C551 1.387 1_545 S
C551 H536 0.930 . S
C551 C546 1.390 . S
C551 C550 1.387 1_565 S
H552 C564 0.930 . S
H553 C566 0.930 . S
H554 C567 0.930 . S
H555 C571 0.959 . S
H556 C571 0.959 . S
H557 C571 0.961 . S
H558 C572 0.960 . S
H559 C572 0.961 . S
H560 C572 0.959 . S
H561 C575 0.929 . S
H562 C576 0.931 . S
H563 C578 0.930 . S
C564 H552 0.930 . S
C564 C565 1.399 . S
C564 C569 1.399 . S
C565 C564 1.399 . S
C565 C566 1.376 . S
C566 H553 0.930 . S
C566 C565 1.376 . S
C566 C567 1.388 . S
C567 H554 0.930 . S
C567 C566 1.388 . S
C567 C568 1.390 . S
C568 C567 1.390 . S
C568 C569 1.394 . S
C568 C574 1.465 . S
C569 C564 1.399 . S
C569 C568 1.394 . S
C569 C570 1.516 . S
C570 C569 1.516 . S
C570 C571 1.502 . S
C570 C572 1.561 . S
C570 C573 1.526 . S
C571 H555 0.959 . S
C571 H556 0.959 . S
C571 H557 0.961 . S
C571 C570 1.502 . S
C572 H558 0.960 . S
C572 H559 0.961 . S
C572 H560 0.959 . S
C572 C570 1.561 . S
C573 C570 1.526 . S
C573 C574 1.396 . S
C573 C578 1.390 . S
C574 C568 1.465 . S
C574 C573 1.396 . S
C574 C575 1.399 . S
C575 H561 0.929 . S
C575 C574 1.399 . S
C575 C576 1.385 . S
C576 H562 0.931 . S
C576 C575 1.385 . S
C576 C577 1.389 . S
C577 C576 1.389 . S
C577 C578 1.387 . S
C578 H563 0.930 . S
C578 C573 1.390 . S
C578 C577 1.387 . S
H579 C591 0.930 . S
H580 C593 0.930 . S
H581 C594 0.930 . S
H582 C598 0.959 . S
H583 C598 0.959 . S
H584 C598 0.961 . S
H585 C599 0.960 . S
H586 C599 0.961 . S
H587 C599 0.959 . S
H588 C602 0.929 . S
H589 C603 0.931 . S
H590 C605 0.930 . S
C591 H579 0.930 . S
C591 C592 1.399 1_565 S
C591 C596 1.399 . S
C592 C591 1.399 1_545 S
C592 C593 1.376 . S
C593 H580 0.930 . S
C593 C592 1.376 . S
C593 C594 1.388 . S
C594 H581 0.930 . S
C594 C593 1.388 . S
C594 C595 1.390 . S
C595 C594 1.390 . S
C595 C596 1.394 1_545 S
C595 C601 1.465 . S
C596 C591 1.399 . S
C596 C595 1.394 1_565 S
C596 C597 1.516 . S
C597 C596 1.516 . S
C597 C598 1.502 . S
C597 C599 1.561 . S
C597 C600 1.526 . S
C598 H582 0.959 . S
C598 H583 0.959 . S
C598 H584 0.961 . S
C598 C597 1.502 . S
C599 H585 0.960 . S
C599 H586 0.961 . S
C599 H587 0.959 . S
C599 C597 1.561 . S
C600 C597 1.526 . S
C600 C601 1.396 1_565 S
C600 C605 1.390 . S
C601 C595 1.465 . S
C601 C600 1.396 1_545 S
C601 C602 1.399 . S
C602 H588 0.929 . S
C602 C601 1.399 . S
C602 C603 1.385 . S
C603 H589 0.931 . S
C603 C602 1.385 . S
C603 C604 1.389 . S
C604 C603 1.389 . S
C604 C605 1.387 1_545 S
C605 H590 0.930 . S
C605 C600 1.390 . S
C605 C604 1.387 1_565 S
H606 C618 0.930 . S
H607 C620 0.930 . S
H608 C621 0.930 . S
H609 C625 0.959 . S
H610 C625 0.959 . S
H611 C625 0.961 . S
H612 C626 0.960 . S
H613 C626 0.961 . S
H614 C626 0.959 . S
H615 C629 0.929 . S
H616 C630 0.931 . S
H617 C632 0.930 . S
C618 H606 0.930 . S
C618 C619 1.399 . S
C618 C623 1.399 . S
C619 C618 1.399 . S
C619 C620 1.376 . S
C620 H607 0.930 . S
C620 C619 1.376 . S
C620 C621 1.388 . S
C621 H608 0.930 . S
C621 C620 1.388 . S
C621 C622 1.390 . S
C622 C621 1.390 . S
C622 C623 1.394 . S
C622 C628 1.465 . S
C623 C618 1.399 . S
C623 C622 1.394 . S
C623 C624 1.516 . S
C624 C623 1.516 . S
C624 C625 1.502 . S
C624 C626 1.561 . S
C624 C627 1.526 . S
C625 H609 0.959 . S
C625 H610 0.959 . S
C625 H611 0.961 . S
C625 C624 1.502 . S
C626 H612 0.960 . S
C626 H613 0.961 . S
C626 H614 0.959 . S
C626 C624 1.561 . S
C627 C624 1.526 . S
C627 C628 1.396 . S
C627 C632 1.390 1_556 S
C628 C622 1.465 . S
C628 C627 1.396 . S
C628 C629 1.399 . S
C629 H615 0.929 . S
C629 C628 1.399 . S
C629 C630 1.385 1_556 S
C630 H616 0.931 . S
C630 C629 1.385 1_554 S
C630 C631 1.389 . S
C631 C630 1.389 . S
C631 C632 1.387 . S
C632 H617 0.930 . S
C632 C627 1.390 1_554 S
C632 C631 1.387 . S
H633 C645 0.930 . S
H634 C647 0.930 . S
H635 C648 0.930 . S
H636 C652 0.959 . S
H637 C652 0.959 . S
H638 C652 0.961 . S
H639 C653 0.960 . S
H640 C653 0.961 . S
H641 C653 0.959 . S
H642 C656 0.929 . S
H643 C657 0.931 . S
H644 C659 0.930 . S
C645 H633 0.930 . S
C645 C646 1.399 1_655 S
C645 C650 1.399 . S
C646 C645 1.399 1_455 S
C646 C647 1.376 . S
C647 H634 0.930 . S
C647 C646 1.376 . S
C647 C648 1.388 . S
C648 H635 0.930 . S
C648 C647 1.388 . S
C648 C649 1.390 . S
C649 C648 1.390 . S
C649 C650 1.394 1_455 S
C649 C655 1.465 . S
C650 C645 1.399 . S
C650 C649 1.394 1_655 S
C650 C651 1.516 . S
C651 C650 1.516 . S
C651 C652 1.502 . S
C651 C653 1.561 . S
C651 C654 1.526 . S
C652 H636 0.959 . S
C652 H637 0.959 . S
C652 H638 0.961 . S
C652 C651 1.502 . S
C653 H639 0.960 . S
C653 H640 0.961 . S
C653 H641 0.959 . S
C653 C651 1.561 . S
C654 C651 1.526 . S
C654 C655 1.396 1_655 S
C654 C659 1.390 . S
C655 C649 1.465 . S
C655 C654 1.396 1_455 S
C655 C656 1.399 . S
C656 H642 0.929 . S
C656 C655 1.399 . S
C656 C657 1.385 . S
C657 H643 0.931 . S
C657 C656 1.385 . S
C657 C658 1.389 . S
C658 C657 1.389 . S
C658 C659 1.387 1_455 S
C659 H644 0.930 . S
C659 C654 1.390 . S
C659 C658 1.387 1_655 S
C187 C6 0.649 . S
C199 C169 0.701 . S
C214 C59 1.820 . S
C226 C151 1.814 . S
C241 C86 1.282 . S
C253 C163 1.361 . S
C268 C15 0.700 . S
C280 C172 0.550 . S
C307 C154 1.840 . S
C295 C50 1.849 . S
C334 C160 1.392 . S
C322 C95 1.384 . S
C349 C46 1.245 . S
C361 C133 1.313 . S
C376 C99 2.983 . S
C388 C142 2.960 1_655 S
C403 C10 1.878 . S
C415 C124 1.878 . S
C442 C136 1.384 . S
C430 C55 1.364 . S
C469 C145 2.887 . S
C457 C90 2.882 . S
C484 C19 1.815 . S
C496 C127 1.811 . S
C523 C143 1.784 . S
C511 C18 1.680 . S
C538 C49 1.351 . S
C550 C125 1.361 . S
C565 C98 1.480 . S
C577 C134 1.500 . S
C604 C161 1.469 1_545 S
C592 C58 1.442 . S
C631 C170 1.054 . S
C619 C89 1.047 . S
C646 C9 1.289 . S
C658 C152 1.339 . S
