# Generated by pormake.
# Topology zzz, (3,6)-cn, num edge types: 1
# Building blocks:
#     Node 0, Type 0, BuildingBlock: QEWDON_clean_linker_0, # of connection points: 3
#     Node 1, Type 0, BuildingBlock: QEWDON_clean_linker_0, # of connection points: 3
#     Node 2, Type 0, BuildingBlock: QEWDON_clean_linker_0, # of connection points: 3
#     Node 3, Type 0, BuildingBlock: QEWDON_clean_linker_0, # of connection points: 3
#     Node 4, Type 0, BuildingBlock: QEWDON_clean_linker_0, # of connection points: 3
#     Node 5, Type 0, BuildingBlock: QEWDON_clean_linker_0, # of connection points: 3
#     Node 6, Type 0, BuildingBlock: QEWDON_clean_linker_0, # of connection points: 3
#     Node 7, Type 0, BuildingBlock: QEWDON_clean_linker_0, # of connection points: 3
#     Node 8, Type 1, BuildingBlock: BETDAH_clean_sbu_0, # of connection points: 6
#     Node 9, Type 1, BuildingBlock: BETDAH_clean_sbu_0, # of connection points: 6
#     Node 10, Type 1, BuildingBlock: BETDAH_clean_sbu_0, # of connection points: 6
#     Node 11, Type 1, BuildingBlock: BETDAH_clean_sbu_0, # of connection points: 6
#     Edge 12, Type (0, 1), BuildingBlock: XUDNAN_clean_linker_2, # of connection points: 2
#     Edge 13, Type (0, 1), BuildingBlock: XUDNAN_clean_linker_2, # of connection points: 2
#     Edge 14, Type (0, 1), BuildingBlock: XUDNAN_clean_linker_2, # of connection points: 2
#     Edge 15, Type (0, 1), BuildingBlock: XUDNAN_clean_linker_2, # of connection points: 2
#     Edge 16, Type (0, 1), BuildingBlock: XUDNAN_clean_linker_2, # of connection points: 2
#     Edge 17, Type (0, 1), BuildingBlock: XUDNAN_clean_linker_2, # of connection points: 2
#     Edge 18, Type (0, 1), BuildingBlock: XUDNAN_clean_linker_2, # of connection points: 2
#     Edge 19, Type (0, 1), BuildingBlock: XUDNAN_clean_linker_2, # of connection points: 2
#     Edge 20, Type (0, 1), BuildingBlock: XUDNAN_clean_linker_2, # of connection points: 2
#     Edge 21, Type (0, 1), BuildingBlock: XUDNAN_clean_linker_2, # of connection points: 2
#     Edge 22, Type (0, 1), BuildingBlock: XUDNAN_clean_linker_2, # of connection points: 2
#     Edge 23, Type (0, 1), BuildingBlock: XUDNAN_clean_linker_2, # of connection points: 2
#     Edge 24, Type (0, 1), BuildingBlock: XUDNAN_clean_linker_2, # of connection points: 2
#     Edge 25, Type (0, 1), BuildingBlock: XUDNAN_clean_linker_2, # of connection points: 2
#     Edge 26, Type (0, 1), BuildingBlock: XUDNAN_clean_linker_2, # of connection points: 2
#     Edge 27, Type (0, 1), BuildingBlock: XUDNAN_clean_linker_2, # of connection points: 2
#     Edge 28, Type (0, 1), BuildingBlock: XUDNAN_clean_linker_2, # of connection points: 2
#     Edge 29, Type (0, 1), BuildingBlock: XUDNAN_clean_linker_2, # of connection points: 2
#     Edge 30, Type (0, 1), BuildingBlock: XUDNAN_clean_linker_2, # of connection points: 2
#     Edge 31, Type (0, 1), BuildingBlock: XUDNAN_clean_linker_2, # of connection points: 2
#     Edge 32, Type (0, 1), BuildingBlock: XUDNAN_clean_linker_2, # of connection points: 2
#     Edge 33, Type (0, 1), BuildingBlock: XUDNAN_clean_linker_2, # of connection points: 2
#     Edge 34, Type (0, 1), BuildingBlock: XUDNAN_clean_linker_2, # of connection points: 2
#     Edge 35, Type (0, 1), BuildingBlock: XUDNAN_clean_linker_2, # of connection points: 2
# Relax obj value: 0.174
# Max RMSD: 0.174
# Mean RMSD: 0.126
data_MOF--net-zzz--node1-BETDAH_clean_sbu_0--node2-QEWDON_clean_linker_0--edge1-XUDNAN_clean_linker_2
_symmetry_space_group_name_H-M    P1
_symmetry_Int_Tables_number       1
_symmetry_cell_setting            triclinic
loop_
_symmetry_equiv_pos_as_xyz
'x, y, z'
_cell_length_a     55.352259
_cell_length_b     55.620586
_cell_length_c     12.684157
_cell_angle_alpha  90.072748
_cell_angle_beta   89.868721
_cell_angle_gamma 89.842583
loop_
_atom_site_label
_atom_site_type_symbol
_atom_site_fract_x
_atom_site_fract_y
_atom_site_fract_z
_atom_type_partial_charge
H0 H 0.74667 0.53698 0.22146 0.0
C1 C 0.75985 0.5369 0.28424 0.0
C2 C 0.78231 0.5471 0.26373 0.0
C3 C 0.75504 0.52584 0.38213 0.0
H4 H 0.81865 0.55147 0.31434 0.0
C5 C 0.80088 0.54528 0.33765 0.0
C6 C 0.79748 0.5343 0.43579 0.0
C7 C 0.77414 0.52494 0.45834 0.0
C8 C 0.73067 0.51418 0.40035 0.0
H9 H 0.77102 0.51707 0.53497 0.0
C10 C 0.70972 0.52096 0.3418 0.0
C11 C 0.6875 0.50873 0.35399 0.0
C12 C 0.72836 0.4951 0.47265 0.0
H13 H 0.74367 0.48851 0.51683 0.0
C14 C 0.70629 0.48348 0.48709 0.0
H15 H 0.71032 0.53587 0.28732 0.0
C16 C 0.68609 0.49011 0.42837 0.0
H17 H 0.66946 0.4802 0.43941 0.0
H18 H 0.70496 0.46881 0.54281 0.0
H19 H 0.03744 0.75991 0.17748 0.0
C20 C 0.03326 0.77352 0.2359 0.0
C21 C 0.03506 0.79753 0.20639 0.0
C22 C 0.02677 0.76716 0.33974 0.0
H23 H 0.03418 0.83425 0.25811 0.0
C24 C 0.03142 0.81567 0.28116 0.0
C25 C 0.02607 0.81037 0.38618 0.0
C26 C 1.02368 0.78591 0.41577 0.0
C27 C 1.02445 0.74091 0.36656 0.0
H28 H 1.01923 0.78166 0.49675 0.0
C29 C 1.01721 0.72392 0.28914 0.0
C30 C 1.0176 0.69893 0.30917 0.0
C31 C 0.03096 0.7323 0.46672 0.0
H32 H 0.03697 0.74446 0.52788 0.0
C33 C 0.03067 0.70766 0.48829 0.0
H34 H 1.01175 0.73006 0.21188 0.0
C35 C 1.02429 0.69109 0.41026 0.0
H36 H 1.02442 0.67212 0.42946 0.0
H37 H 0.03583 0.70131 0.56569 0.0
H38 H 0.80112 0.04627 0.20086 0.0
C39 C 0.78735 0.04143 0.25776 0.0
C40 C 0.76341 0.03985 0.22392 0.0
C41 C 0.79325 0.03812 0.36486 0.0
H42 H 0.7264 0.03582 0.27045 0.0
C43 C 0.745 0.03532 0.29706 0.0
C44 C 0.74973 0.03243 0.40444 0.0
C45 C 0.7741 0.03373 0.43824 0.0
C46 C 0.81902 0.04159 0.39946 0.0
H47 H 0.77802 0.03143 0.52118 0.0
C48 C 0.83896 0.03577 0.33266 0.0
C49 C 0.86305 0.04119 0.36239 0.0
C50 C 0.82383 0.05249 0.49722 0.0
H51 H 0.80932 0.05784 0.54957 0.0
C52 C 0.84745 0.05769 0.52735 0.0
H53 H 0.83579 0.02685 0.2581 0.0
C54 C 0.86679 0.05235 0.46069 0.0
H55 H 0.88472 0.05751 0.48588 0.0
H56 H 0.85075 0.06642 0.60226 0.0
H57 H 0.52143 0.79167 0.17851 0.0
C58 C 0.52122 0.77846 0.24109 0.0
C59 C 0.51353 0.75527 0.21692 0.0
C60 C 0.52985 0.78404 0.34282 0.0
H61 H 0.50837 0.71921 0.27256 0.0
C62 C 0.5144 0.73718 0.2931 0.0
C63 C 0.52313 0.74158 0.39423 0.0
C64 C 0.5304 0.76529 0.42021 0.0
C65 C 0.54032 0.80868 0.36243 0.0
H66 H 0.53686 0.76885 0.49913 0.0
C67 C 0.53247 0.82929 0.30494 0.0
C68 C 0.54507 0.85134 0.31129 0.0
C69 C 0.56011 0.81134 0.43098 0.0
H70 H 0.56715 0.79622 0.4749 0.0
C71 C 0.57201 0.83335 0.44013 0.0
H72 H 0.51708 0.82816 0.25271 0.0
C73 C 0.56483 0.85306 0.3798 0.0
H74 H 0.57476 0.86975 0.38659 0.0
H75 H 0.58735 0.83496 0.49242 0.0
H76 H 0.2845 0.50694 0.25527 0.0
C77 C 0.27151 0.50738 0.19171 0.0
C78 C 0.24866 0.49795 0.21104 0.0
C79 C 0.27702 0.5182 0.09398 0.0
H80 H 0.21241 0.49459 0.15776 0.0
C81 C 0.23045 0.50026 0.13579 0.0
C82 C 0.23452 0.51123 0.03808 0.0
C83 C 0.25818 0.51993 0.01694 0.0
C84 C 0.30191 0.52878 0.07713 0.0
H85 H 0.26177 0.52795 0.94093 0.0
C86 C 0.32243 0.52034 0.13404 0.0
C87 C 0.34526 0.53175 0.12608 0.0
C88 C 0.30517 0.54845 0.00892 0.0
H89 H 0.29019 0.55609 0.96571 0.0
C90 C 0.32778 0.55922 0.99765 0.0
H91 H 0.32068 0.50513 0.18628 0.0
C92 C 0.34758 0.5511 0.05566 0.0
H93 H 0.36478 0.55997 0.04458 0.0
H94 H 0.3299 0.57429 0.94453 0.0
H95 H 1.00088 0.28022 0.32111 0.0
C96 C 1.00581 0.26845 0.25647 0.0
C97 C 0.99144 0.24817 0.23658 0.0
C98 C 0.02711 0.27268 0.19744 0.0
H99 H 0.98861 0.21536 0.14666 0.0
C100 C 0.99875 0.23179 0.15873 0.0
C101 C 1.01993 0.23493 0.10105 0.0
C102 C 0.03375 0.25579 0.11779 0.0
C103 C 0.04348 0.29323 0.22645 0.0
H104 H 0.04999 0.25827 0.07145 0.0
C105 C 0.03443 0.31505 0.26998 0.0
C106 C 0.05028 0.3334 0.30453 0.0
C107 C 0.0687 0.29053 0.21666 0.0
H108 H 0.07662 0.27401 0.18735 0.0
C109 C 0.08432 0.3088 0.24781 0.0
H110 H 1.01515 0.31767 0.27863 0.0
C111 C 0.07528 0.32999 0.29146 0.0
H112 H 0.08795 0.34382 0.3146 0.0
H113 H 0.10364 0.30639 0.23933 0.0
H114 H 0.26512 0.99019 0.20485 0.0
C115 C 0.27865 0.99764 0.15248 0.0
C116 C 0.3029 0.99144 0.1677 0.0
C117 C 0.27182 1.01231 0.06678 0.0
H118 H 0.33937 0.99586 0.11377 0.0
C119 C 0.32061 1.00066 0.10035 0.0
C120 C 0.31475 1.01549 0.01538 0.0
C121 C 0.29013 1.021 0.99734 0.0
C122 C 0.24547 1.01698 0.04731 0.0
H123 H 0.28534 0.03225 0.93093 0.0
C124 C 0.22897 1.02091 0.13158 0.0
C125 C 0.20383 1.02329 0.11303 0.0
C126 C 0.23635 1.01594 0.94412 0.0
H127 H 0.24825 1.01258 0.87781 0.0
C128 C 0.21161 1.01834 0.92531 0.0
H129 H 0.23566 1.02194 0.21165 0.0
C130 C 0.19547 1.02185 0.00873 0.0
H131 H 0.17643 0.02392 0.99125 0.0
H132 H 0.20486 1.01735 0.84538 0.0
H133 H 0.5612 0.25983 0.25468 0.0
C134 C 0.55326 0.27391 0.20689 0.0
C135 C 0.55319 0.29748 0.24502 0.0
C136 C 0.54444 0.26876 0.10537 0.0
H137 H 0.54349 0.33397 0.21594 0.0
C138 C 0.54399 0.31607 0.18251 0.0
C139 C 0.53778 0.31242 0.07649 0.0
C140 C 0.53727 0.28831 0.0394 0.0
C141 C 0.54551 0.24329 0.0658 0.0
H142 H 0.53194 0.28476 0.95895 0.0
C143 C 0.54085 0.22332 0.13307 0.0
C144 C 0.54364 0.19932 0.09649 0.0
C145 C 0.55279 0.23875 0.96147 0.0
H146 H 0.55714 0.25334 0.90838 0.0
C147 C 0.55563 0.21528 0.92506 0.0
H148 H 0.53483 0.22648 0.21318 0.0
C149 C 0.55133 0.19582 0.99159 0.0
H150 H 0.55454 0.17795 0.96064 0.0
H151 H 0.56163 0.21212 0.84492 0.0
Ho152 Ho 0.04819 1.02242 0.81204 0.0
Ho153 Ho 1.01508 0.03 0.62115 0.0
C154 C 0.03278 0.97583 0.66631 0.0
C155 C 0.07172 1.00693 0.973 0.0
C156 C 0.08372 0.98354 0.98523 0.0
C157 C 0.07773 0.96916 0.07186 0.0
C158 C 0.08183 0.94447 0.06771 0.0
C159 C 0.09194 0.93399 0.97687 0.0
C160 C 0.10086 0.94868 0.89643 0.0
C161 C 0.09665 0.9734 0.90021 0.0
C162 C 0.07108 0.03797 0.63597 0.0
C163 C 0.02792 0.07469 0.77772 0.0
C164 C 0.99695 0.04395 0.44469 0.0
C165 C 0.97838 0.06247 0.4259 0.0
C166 C 0.98112 0.0786 0.34197 0.0
C167 C 0.96787 0.10005 0.34044 0.0
C168 C 0.95192 0.10571 0.42354 0.0
C169 C 0.94756 0.08852 0.50194 0.0
C170 C 0.96058 0.06701 0.50275 0.0
C171 C 0.98724 0.02689 0.80075 0.0
O172 O 0.04363 0.98418 0.75208 0.0
O173 O 1.02154 0.99029 0.59947 0.0
O174 O 0.08114 1.02138 0.90315 0.0
O175 O 0.04817 1.00578 0.96604 0.0
O176 O 0.07457 0.04595 0.73061 0.0
O177 O 0.05459 1.02205 0.63752 0.0
O178 O 1.02356 0.06775 0.67937 0.0
O179 O 0.03381 0.05896 0.85145 0.0
O180 O 0.98978 0.02447 0.49357 0.0
O181 O 1.01733 0.05232 0.48209 0.0
O182 O 0.97869 0.02969 0.70704 0.0
O183 O 1.00977 0.02547 0.79104 0.0
H184 H 0.06772 0.9766 0.13785 0.0
H185 H 0.07488 0.93327 0.1307 0.0
H186 H 0.10856 0.94083 0.82563 0.0
H187 H 0.10141 0.98409 0.83197 0.0
H188 H 0.99478 0.07549 0.28212 0.0
H189 H 0.97172 0.11311 0.27941 0.0
H190 H 0.93528 0.09243 0.56641 0.0
H191 H 0.95789 0.0548 0.56785 0.0
Ho192 Ho 0.53474 0.04458 0.82033 0.0
Ho193 Ho 0.52989 1.01052 0.63031 0.0
C194 C 0.58244 0.02978 0.67918 0.0
C195 C 0.54756 0.06001 0.00205 0.0
C196 C 0.57003 0.07288 0.0258 0.0
C197 C 0.58506 0.06377 0.10504 0.0
C198 C 0.60988 0.06785 0.10061 0.0
C199 C 0.61987 0.08127 0.01744 0.0
C200 C 0.6045 0.09315 0.94701 0.0
C201 C 0.57967 0.08888 0.9508 0.0
C202 C 0.53558 0.07165 0.64065 0.0
C203 C 0.48092 0.02974 0.75549 0.0
C204 C 0.51458 0.98651 0.47045 0.0
C205 C 0.49189 0.97295 0.46451 0.0
C206 C 0.47926 0.97128 0.36936 0.0
C207 C 0.45555 0.96265 0.36858 0.0
C208 C 0.44412 0.95564 0.46317 0.0
C209 C 0.45744 0.95599 0.55718 0.0
C210 C 0.48106 0.96463 0.55791 0.0
C211 C 0.53763 0.98885 0.81968 0.0
O212 O 0.57359 0.03597 0.77295 0.0
O213 O 0.56816 1.02223 0.6024 0.0
O214 O 0.53165 0.07139 0.9438 0.0
O215 O 0.55127 0.03781 0.97095 0.0
O216 O 0.53663 0.08039 0.7351 0.0
O217 O 0.53369 0.04911 0.64843 0.0
O218 O 0.49063 1.01811 0.67409 0.0
O219 O 0.4944 0.04057 0.8273 0.0
O220 O 0.5306 0.97805 0.53631 0.0
O221 O 0.51184 1.00979 0.47901 0.0
O222 O 0.54778 0.98246 0.73194 0.0
O223 O 0.52382 1.00653 0.80197 0.0
H224 H 0.57803 0.05133 0.16318 0.0
H225 H 0.6215 0.05883 0.15686 0.0
H226 H 0.61185 0.10363 0.88261 0.0
H227 H 0.5685 0.09609 0.88835 0.0
H228 H 0.48723 0.97785 0.29683 0.0
H229 H 0.44569 0.96299 0.29493 0.0
H230 H 0.44925 0.95056 0.63102 0.0
H231 H 0.49042 0.96597 0.63263 0.0
Ho232 Ho 0.50287 0.52718 0.80227 0.0
Ho233 Ho 0.53754 0.52116 0.61321 0.0
C234 C 0.51958 0.57494 0.66451 0.0
C235 C 0.47869 0.54216 0.96303 0.0
C236 C 0.4684 0.56624 0.98069 0.0
C237 C 0.47696 0.57998 0.06527 0.0
C238 C 0.474 0.60485 0.06498 0.0
C239 C 0.46238 0.61624 0.98021 0.0
C240 C 0.45127 0.60234 0.90226 0.0
C241 C 0.45437 0.57743 0.90207 0.0
C242 C 0.48198 0.51369 0.61876 0.0
C243 C 0.52391 0.47527 0.76298 0.0
C244 C 0.55586 0.50724 0.43718 0.0
C245 C 0.57276 0.48714 0.42004 0.0
C246 C 0.56834 0.47075 0.33836 0.0
C247 C 0.57887 0.44791 0.34099 0.0
C248 C 0.59395 0.44131 0.42511 0.0
C249 C 0.60026 0.45842 0.50096 0.0
C250 C 0.5898 0.48128 0.49824 0.0
C251 C 0.56405 0.52353 0.79571 0.0
O252 O 0.50851 0.56596 0.74893 0.0
O253 O 0.53099 0.56095 0.59582 0.0
O254 O 0.46902 0.52951 0.88726 0.0
O255 O 0.50233 0.54145 0.96086 0.0
O256 O 0.47683 0.50472 0.71032 0.0
O257 O 0.49836 0.52944 0.62823 0.0
O258 O 0.52883 0.48289 0.66606 0.0
O259 O 0.51706 0.49032 0.83813 0.0
O260 O 0.56421 0.52575 0.48975 0.0
O261 O 0.53443 0.50052 0.46967 0.0
O262 O 0.57331 0.52161 0.7025 0.0
O263 O 0.54153 0.5246 0.78408 0.0
H264 H 0.48777 0.57176 0.12665 0.0
H265 H 0.48247 0.61537 0.12659 0.0
H266 H 0.44228 0.61085 0.83626 0.0
H267 H 0.44757 0.5673 0.8355 0.0
H268 H 0.55517 0.47484 0.27785 0.0
H269 H 0.57365 0.43473 0.28237 0.0
H270 H 0.61166 0.45351 0.56689 0.0
H271 H 0.59354 0.49356 0.56227 0.0
Ho272 Ho 1.01309 0.51738 0.85621 0.0
Ho273 Ho 1.0186 0.53471 0.63198 0.0
C274 C 0.96463 0.52841 0.70844 0.0
C275 C 0.99736 0.51747 0.04585 0.0
C276 C 0.97455 0.52931 0.07695 0.0
C277 C 0.97053 0.5535 0.04926 0.0
C278 C 0.94716 0.56264 0.04199 0.0
C279 C 0.92729 0.54791 0.06428 0.0
C280 C 0.93145 0.52456 0.10349 0.0
C281 C 0.95488 0.51529 0.10913 0.0
C282 C 1.02125 0.48202 0.71486 0.0
C283 C 0.06702 0.52292 0.77835 0.0
C284 C 0.03452 0.53434 0.44298 0.0
C285 C 0.05701 0.52166 0.41386 0.0
C286 C 0.06048 0.49774 0.44704 0.0
C287 C 0.08362 0.48803 0.45465 0.0
C288 C 0.10379 0.50191 0.42765 0.0
C289 C 0.10014 0.52497 0.3843 0.0
C290 C 0.07694 0.53481 0.37806 0.0
C291 C 1.00944 0.57007 0.77166 0.0
O292 O 0.97408 0.5242 0.80299 0.0
O293 O 0.97836 0.53215 0.62484 0.0
O294 O 0.99478 0.49887 0.98342 0.0
O295 O 1.0146 0.53187 0.01432 0.0
O296 O 0.02919 0.48136 0.81138 0.0
O297 O 1.00813 0.50037 0.70225 0.0
O298 O 0.05749 0.52738 0.68436 0.0
O299 O 0.0534 0.51928 0.86233 0.0
O300 O 0.03756 0.55286 0.50548 0.0
O301 O 1.01668 0.52056 0.47338 0.0
O302 O 1.00194 0.57039 0.67446 0.0
O303 O 1.02303 0.55208 0.78622 0.0
H304 H 0.98526 0.56492 0.02496 0.0
H305 H 0.94469 0.58075 0.01248 0.0
H306 H 0.91653 0.51304 0.12556 0.0
H307 H 0.95746 0.49664 0.13111 0.0
H308 H 0.04554 0.48702 0.47508 0.0
H309 H 0.08571 0.4702 0.4877 0.0
H310 H 0.1153 0.53581 0.35899 0.0
H311 H 0.07478 0.55327 0.35235 0.0
H312 H 0.15851 1.00328 0.14671 0.0
H313 H 0.20909 0.0548 0.27726 0.0
H314 H 0.17953 0.06511 0.41618 0.0
H315 H 0.10418 0.03889 0.1989 0.0
H316 H 0.08601 1.01304 0.23017 0.0
H317 H 0.11115 1.01025 0.13992 0.0
H318 H 0.12875 0.97608 0.2556 0.0
H319 H 0.10392 0.9792 0.34657 0.0
H320 H 0.13455 0.98176 0.39327 0.0
H321 H 0.14436 0.0713 0.53536 0.0
H322 H 0.10788 0.06944 0.64484 0.0
H323 H 0.07947 1.01231 0.44737 0.0
C324 C 0.16337 1.01673 0.20463 0.0
C325 C 0.1863 0.02822 0.2008 0.0
C326 C 0.19191 0.04554 0.27884 0.0
C327 C 0.1751 0.05168 0.3576 0.0
C328 C 0.15269 0.04026 0.35826 0.0
C329 C 0.14684 1.02291 0.2849 0.0
C330 C 0.12154 1.01313 0.30551 0.0
C331 C 0.1047 1.01918 0.21313 0.0
C332 C 0.12225 0.98592 0.32653 0.0
C333 C 0.11437 0.0272 0.40386 0.0
C334 C 0.1325 0.04315 0.43063 0.0
C335 C 0.13019 0.0587 0.51584 0.0
C336 C 0.10925 0.05749 0.57756 0.0
C337 C 0.09077 0.04053 0.55603 0.0
C338 C 0.0932 0.02544 0.46629 0.0
H339 H 0.55182 0.19373 0.31235 0.0
H340 H 0.52483 0.15539 0.03844 0.0
H341 H 0.52131 0.11854 0.14402 0.0
H342 H 0.58585 0.14552 0.42369 0.0
H343 H 0.57795 0.15238 0.55835 0.0
H344 H 0.57868 0.17599 0.46134 0.0
H345 H 0.53441 0.18732 0.50604 0.0
H346 H 0.53365 0.16391 0.60398 0.0
H347 H 0.51136 0.16452 0.50062 0.0
H348 H 0.52232 0.08463 0.27909 0.0
H349 H 0.52397 0.05832 0.43707 0.0
H350 H 0.54736 0.11906 0.62496 0.0
C351 C 0.54481 0.17776 0.27459 0.0
C352 C 0.53911 0.1777 0.16554 0.0
C353 C 0.5301 0.15606 0.12049 0.0
C354 C 0.52784 0.13492 0.18019 0.0
C355 C 0.53417 0.13548 0.28631 0.0
C356 C 0.54209 0.15645 0.33363 0.0
C357 C 0.54724 0.15227 0.44977 0.0
C358 C 0.57402 0.15681 0.47471 0.0
C359 C 0.53067 0.16793 0.51919 0.0
C360 C 0.54103 0.12576 0.46006 0.0
C361 C 0.53377 0.11629 0.36467 0.0
C362 C 0.52775 0.09196 0.35445 0.0
C363 C 0.52882 0.07709 0.44437 0.0
C364 C 0.53561 0.08661 0.54339 0.0
C365 C 0.5419 0.11126 0.55049 0.0
H366 H 0.38137 0.55993 0.21455 0.0
H367 H 0.35782 0.48572 0.18816 0.0
H368 H 0.39189 0.4731 0.30018 0.0
H369 H 0.44645 0.5465 0.20497 0.0
H370 H 0.45394 0.56996 0.29737 0.0
H371 H 0.42805 0.57323 0.21261 0.0
H372 H 0.40066 0.58004 0.37598 0.0
H373 H 0.42646 0.57685 0.46098 0.0
H374 H 0.40041 0.55796 0.47994 0.0
H375 H 0.42701 0.46868 0.42508 0.0
H376 H 0.46045 0.47291 0.55256 0.0
H377 H 0.4635 0.54937 0.48934 0.0
C378 C 0.38351 0.54094 0.23039 0.0
C379 C 0.36653 0.5239 0.19188 0.0
C380 C 0.37005 0.49931 0.21747 0.0
C381 C 0.38959 0.49189 0.28044 0.0
C382 C 0.40583 0.50914 0.31688 0.0
C383 C 0.40309 0.53316 0.29234 0.0
C384 C 0.42283 0.54814 0.34368 0.0
C385 C 0.43875 0.56018 0.25966 0.0
C386 C 0.41193 0.56685 0.41965 0.0
C387 C 0.4368 0.52886 0.40294 0.0
C388 C 0.42668 0.50647 0.38594 0.0
C389 C 0.4353 0.48605 0.43742 0.0
C390 C 0.45436 0.48861 0.5095 0.0
C391 C 0.46494 0.51131 0.529 0.0
C392 C 0.45629 0.53166 0.47345 0.0
H393 H 0.06918 0.35732 0.47591 0.0
H394 H 1.01104 0.36113 0.24752 0.0
H395 H 0.99758 0.39968 0.32608 0.0
H396 H 0.03654 0.38175 0.69563 0.0
H397 H 0.06195 0.39834 0.74616 0.0
H398 H 0.06688 0.37115 0.67187 0.0
H399 H 0.09449 0.3944 0.5422 0.0
H400 H 0.08953 0.42173 0.61567 0.0
H401 H 0.08296 0.42078 0.47667 0.0
H402 H 0.99143 0.43888 0.42661 0.0
H403 H 0.99126 0.4737 0.54814 0.0
H404 H 0.05301 0.44391 0.71282 0.0
C405 C 0.05367 0.36627 0.44181 0.0
C406 C 0.04122 0.3561 0.35491 0.0
C407 C 1.02076 0.36832 0.31444 0.0
C408 C 1.01309 0.39036 0.35812 0.0
C409 C 1.026 0.39998 0.44267 0.0
C410 C 0.04578 0.38822 0.48448 0.0
C411 C 0.05642 0.40222 0.5761 0.0
C412 C 0.05537 0.38748 0.67849 0.0
C413 C 0.08239 0.41025 0.55114 0.0
C414 C 0.03937 0.42358 0.58043 0.0
C415 C 1.02213 0.42213 0.50189 0.0
C416 C 1.00475 0.44006 0.48869 0.0
C417 C 1.00482 0.4598 0.55805 0.0
C418 C 1.02199 0.4614 0.64046 0.0
C419 C 0.03951 0.44304 0.65125 0.0
H420 H 0.86626 0.04353 0.14326 0.0
H421 H 0.90887 0.02694 0.42116 0.0
H422 H 0.94502 1.02207 0.31007 0.0
H423 H 0.89618 1.00008 0.97042 0.0
H424 H 0.89462 1.01938 0.85657 0.0
H425 H 0.87195 1.02162 0.95831 0.0
H426 H 0.88115 0.06703 0.97854 0.0
H427 H 0.90395 0.06487 0.87741 0.0
H428 H 0.91163 0.07653 0.00567 0.0
H429 H 0.97754 1.02034 0.16785 0.0
H430 H 1.00251 1.01966 0.00512 0.0
H431 H 0.93873 0.03519 0.81944 0.0
C432 C 0.88305 0.03847 0.18091 0.0
C433 C 0.88444 0.03595 0.29206 0.0
C434 C 0.90711 0.02958 0.337 0.0
C435 C 0.92787 0.02659 0.27427 0.0
C436 C 0.92591 0.02964 0.16565 0.0
C437 C 0.90401 0.03518 0.11915 0.0
C438 C 0.90685 0.03741 0.00039 0.0
C439 C 0.89149 1.01849 0.94305 0.0
C440 C 0.90052 0.06298 0.96336 0.0
C441 C 0.93369 0.03226 0.98754 0.0
C442 C 0.94443 0.02797 0.08386 0.0
C443 C 0.96923 1.02343 0.0919 0.0
C444 C 0.98331 1.02307 0.99912 0.0
C445 C 0.97261 0.0271 0.89948 0.0
C446 C 0.94745 0.03179 0.89433 0.0
H447 H 0.5735 0.87375 0.1648 0.0
H448 H 0.50243 0.87685 0.30751 0.0
H449 H 0.49336 0.91399 0.2059 0.0
H450 H 0.58484 0.93734 0.15506 0.0
H451 H 0.59971 0.93623 0.02859 0.0
H452 H 0.60066 0.91049 0.11457 0.0
H453 H 0.58262 0.88381 0.96695 0.0
H454 H 0.58189 0.9094 0.88022 0.0
H455 H 0.55465 0.89264 0.90532 0.0
H456 H 0.4931 0.9523 0.09079 0.0
H457 H 0.4994 0.98433 0.95754 0.0
H458 H 0.56961 0.95417 0.88222 0.0
C459 C 0.55598 0.88222 0.17417 0.0
C460 C 0.53864 0.87247 0.24415 0.0
C461 C 0.51588 0.88396 0.25392 0.0
C462 C 0.51068 0.90514 0.197 0.0
C463 C 0.52831 0.91444 0.12932 0.0
C464 C 0.55036 0.90305 0.11651 0.0
C465 C 0.56588 0.91597 0.03579 0.0
C466 C 0.58915 0.92557 0.08656 0.0
C467 C 0.57158 0.89947 0.94148 0.0
C468 C 0.54917 0.9364 0.00445 0.0
C469 C 0.52773 0.93554 0.06055 0.0
C470 C 0.50976 0.95294 0.04609 0.0
C471 C 0.51355 0.9712 0.9707 0.0
C472 C 0.53498 0.97175 0.90933 0.0
C473 C 0.55304 0.95421 0.92778 0.0
H474 H 0.68527 0.51544 0.13831 0.0
H475 H 0.64039 0.51411 0.41889 0.0
H476 H 0.604 0.51943 0.30865 0.0
H477 H 0.64934 0.55975 0.99152 0.0
H478 H 0.65404 0.54481 0.86694 0.0
H479 H 0.67661 0.54271 0.96868 0.0
H480 H 0.6745 0.49624 0.95929 0.0
H481 H 0.65185 0.4982 0.85805 0.0
H482 H 0.64581 0.48148 0.97681 0.0
H483 H 0.57172 0.52193 0.165 0.0
H484 H 0.54728 0.52339 0.00111 0.0
H485 H 0.6131 0.52287 0.81543 0.0
C486 C 0.66783 0.51672 0.17674 0.0
C487 C 0.66581 0.51446 0.28766 0.0
C488 C 0.64249 0.5157 0.33427 0.0
C489 C 0.62166 0.51867 0.27223 0.0
C490 C 0.62421 0.52021 0.16307 0.0
C491 C 0.64675 0.51942 0.11577 0.0
C492 C 0.64451 0.52065 0.99662 0.0
C493 C 0.65686 0.54333 0.95341 0.0
C494 C 0.65478 0.49778 0.94467 0.0
C495 C 0.61725 0.52208 0.98423 0.0
C496 C 0.60579 0.52187 0.08107 0.0
C497 C 0.58057 0.52239 0.08886 0.0
C498 C 0.56679 0.52325 0.99543 0.0
C499 C 0.57821 0.5235 0.8955 0.0
C500 C 0.60379 0.52292 0.89062 0.0
H501 H 0.03966 0.65519 0.26592 0.0
H502 H 0.98194 0.70214 0.15877 0.0
H503 H 0.97313 0.67384 0.01407 0.0
H504 H 0.06087 0.63734 0.01412 0.0
H505 H 0.06702 0.60659 0.05022 0.0
H506 H 0.06826 0.62992 0.1486 0.0
H507 H 0.0371 0.60689 0.26286 0.0
H508 H 0.0359 0.58344 0.16483 0.0
H509 H 1.00854 0.59838 0.20608 0.0
H510 H 0.97125 0.64108 0.87712 0.0
H511 H 0.97658 0.60629 0.75791 0.0
H512 H 0.0351 0.58 0.95351 0.0
C513 C 1.0249 0.65939 0.21317 0.0
C514 C 1.01158 0.68112 0.22419 0.0
C515 C 0.99271 0.68593 0.15168 0.0
C516 C 0.98742 0.66983 0.06948 0.0
C517 C 1.00103 0.64879 0.06049 0.0
C518 C 1.01932 0.64344 0.13061 0.0
C519 C 0.03159 0.61983 0.10156 0.0
C520 C 0.05853 0.62366 0.07717 0.0
C521 C 0.02807 0.60103 0.18906 0.0
C522 C 1.01765 0.61299 0.003 0.0
C523 C 0.99996 0.62987 0.98134 0.0
C524 C 0.98498 0.62773 0.89366 0.0
C525 C 0.98818 0.60793 0.82617 0.0
C526 C 1.00621 0.59043 0.84634 0.0
C527 C 1.02109 0.59303 0.93629 0.0
H528 H 0.94831 0.22965 0.17806 0.0
H529 H 0.99049 0.24802 0.45257 0.0
H530 H 0.96893 0.21757 0.55551 0.0
H531 H 0.89353 0.19648 0.3206 0.0
H532 H 0.89497 0.17367 0.21967 0.0
H533 H 0.90081 0.20468 0.18683 0.0
H534 H 0.94198 0.19201 0.10606 0.0
H535 H 0.93651 0.16139 0.14004 0.0
H536 H 0.96345 0.17603 0.18695 0.0
H537 H 0.9572 0.17724 0.60637 0.0
H538 H 0.95838 0.13313 0.59793 0.0
H539 H 0.92979 0.13517 0.28101 0.0
C540 C 0.95179 0.22811 0.26176 0.0
C541 C 0.97126 0.2408 0.3069 0.0
C542 C 0.97557 0.23861 0.41616 0.0
C543 C 0.96342 0.22107 0.47517 0.0
C544 C 0.94732 0.20576 0.42335 0.0
C545 C 0.94126 0.20931 0.31845 0.0
C546 C 0.93027 0.1868 0.27073 0.0
C547 C 0.90329 0.19064 0.24818 0.0
C548 C 0.9439 0.1786 0.17028 0.0
C549 C 0.93378 0.1693 0.3606 0.0
C550 C 0.94209 0.18093 0.45012 0.0
C551 C 0.94995 0.1681 0.53809 0.0
C552 C 0.95058 0.14297 0.53262 0.0
C553 C 0.94398 0.1309 0.43882 0.0
C554 C 0.93447 0.14415 0.3539 0.0
H555 H 0.32719 0.94997 0.14595 0.0
H556 H 0.29921 0.9993 0.37948 0.0
H557 H 0.3282 0.98348 0.50971 0.0
H558 H 0.35349 0.90073 0.33996 0.0
H559 H 0.37936 0.89785 0.25425 0.0
H560 H 0.34986 0.90352 0.19931 0.0
H561 H 0.36704 0.94067 0.10243 0.0
H562 H 0.3962 0.93571 0.15857 0.0
H563 H 0.38123 0.96422 0.17794 0.0
H564 H 0.3674 0.9739 0.58906 0.0
H565 H 0.41149 0.9719 0.60904 0.0
H566 H 0.41698 0.93079 0.31972 0.0
C567 C 0.32619 0.95609 0.22695 0.0
C568 C 0.31101 0.97554 0.25375 0.0
C569 C 0.31041 0.98401 0.35858 0.0
C570 C 0.32697 0.97515 0.43275 0.0
C571 C 0.34383 0.95786 0.40035 0.0
C572 C 0.34324 0.94804 0.29986 0.0
C573 C 0.36649 0.9348 0.27418 0.0
C574 C 0.36203 0.9076 0.26653 0.0
C575 C 0.37842 0.94447 0.17247 0.0
C576 C 0.3812 0.94082 0.37081 0.0
C577 C 0.3675 0.95311 0.44489 0.0
C578 C 0.37807 0.96361 0.5333 0.0
C579 C 0.40323 0.96244 0.54391 0.0
C580 C 0.41766 0.95128 0.46539 0.0
C581 C 0.40633 0.93937 0.38084 0.0
H582 H 0.53706 0.31892 0.42332 0.0
H583 H 0.60158 0.29487 0.26328 0.0
H584 H 0.62487 0.32696 0.348 0.0
H585 H 0.53905 0.37156 0.37312 0.0
H586 H 0.53007 0.38629 0.49388 0.0
H587 H 0.52146 0.35585 0.47124 0.0
H588 H 0.54165 0.34273 0.64463 0.0
H589 H 0.55059 0.37339 0.66975 0.0
H590 H 0.5729 0.34981 0.66906 0.0
H591 H 0.6351 0.36923 0.37349 0.0
H592 H 0.63306 0.41373 0.36896 0.0
H593 H 0.56315 0.41162 0.52047 0.0
C594 C 0.55651 0.31929 0.41434 0.0
C595 C 0.56761 0.30466 0.33747 0.0
C596 C 0.59288 0.30576 0.32333 0.0
C597 C 0.60623 0.32418 0.37064 0.0
C598 C 0.5941 0.34075 0.43438 0.0
C599 C 0.56993 0.33777 0.46103 0.0
C600 C 0.55983 0.3603 0.51233 0.0
C601 C 0.53627 0.36899 0.45923 0.0
C602 C 0.55602 0.3563 0.631 0.0
C603 C 0.58053 0.37745 0.49343 0.0
C604 C 0.60058 0.3657 0.45277 0.0
C605 C 0.62005 0.37848 0.41021 0.0
C606 C 0.61875 0.40369 0.40701 0.0
C607 C 0.59811 0.41567 0.44594 0.0
C608 C 0.57931 0.40252 0.49304 0.0
H609 H 0.23752 0.52409 0.38043 0.0
H610 H 0.24084 0.45142 0.26358 0.0
H611 H 0.2061 0.44048 0.37352 0.0
H612 H 0.20017 0.50879 0.65237 0.0
H613 H 0.18406 0.53655 0.6301 0.0
H614 H 0.21596 0.53467 0.60185 0.0
H615 H 0.20642 0.55031 0.41436 0.0
H616 H 0.17478 0.55075 0.44082 0.0
H617 H 0.18617 0.53339 0.33121 0.0
H618 H 0.16349 0.44268 0.41097 0.0
H619 H 0.12117 0.45592 0.40083 0.0
H620 H 0.14235 0.52746 0.49906 0.0
C621 C 0.2321 0.50546 0.38649 0.0
C622 C 0.24154 0.48858 0.31478 0.0
C623 C 0.23391 0.46444 0.31972 0.0
C624 C 0.21395 0.45818 0.38148 0.0
C625 C 0.20215 0.47628 0.4382 0.0
C626 C 0.21157 0.49937 0.44527 0.0
C627 C 0.19276 0.51694 0.48627 0.0
C628 C 0.19862 0.52466 0.59948 0.0
C629 C 0.18987 0.53908 0.41368 0.0
C630 C 0.17062 0.50114 0.48437 0.0
C631 C 0.17649 0.47752 0.46117 0.0
C632 C 0.15874 0.46082 0.43419 0.0
C633 C 0.13468 0.46855 0.42782 0.0
C634 C 0.12854 0.49283 0.44798 0.0
C635 C 0.14662 0.50886 0.48184 0.0
H636 H 1.01134 0.82619 0.07309 0.0
H637 H 0.07795 0.78683 0.11182 0.0
H638 H 0.09861 0.8149 0.99231 0.0
H639 H 1.02545 0.85781 0.8031 0.0
H640 H 1.01316 0.88563 0.85295 0.0
H641 H 0.99972 0.8573 0.88957 0.0
H642 H 1.00449 0.86692 0.08612 0.0
H643 H 1.01741 0.89536 0.05476 0.0
H644 H 0.03386 0.87465 0.13711 0.0
H645 H 0.11521 0.8538 0.9395 0.0
H646 H 0.12481 0.89731 0.94823 0.0
H647 H 0.04853 0.91392 0.95978 0.0
C648 C 0.02981 0.82267 0.04916 0.0
C649 C 0.04317 0.80469 0.10051 0.0
C650 C 0.06743 0.80046 0.07158 0.0
C651 C 0.07931 0.8165 0.00415 0.0
C652 C 0.06659 0.83653 0.96741 0.0
C653 C 0.04203 0.83938 0.98722 0.0
C654 C 0.03391 0.86502 0.96861 0.0
C655 C 1.01708 0.86655 0.87279 0.0
C656 C 1.02177 0.87609 0.06749 0.0
C657 C 0.05798 0.87657 0.94604 0.0
C658 C 0.07652 0.85987 0.94103 0.0
C659 C 0.10077 0.86695 0.93925 0.0
C660 C 0.10614 0.89158 0.94538 0.0
C661 C 0.08729 0.9085 0.95565 0.0
C662 C 0.0631 0.90099 0.95198 0.0
H663 H 0.73805 1.01283 0.08869 0.0
H664 H 0.76984 0.08295 0.12749 0.0
H665 H 0.73852 0.10058 0.0144 0.0
H666 H 0.70207 0.02528 0.82261 0.0
H667 H 0.67655 1.00924 0.87539 0.0
H668 H 0.7069 0.99914 0.90314 0.0
H669 H 0.69846 1.0008 0.10233 0.0
H670 H 0.66829 1.01073 0.07889 0.0
H671 H 0.68794 0.02853 0.16071 0.0
H672 H 0.69723 0.11288 0.97195 0.0
H673 H 0.65285 0.11757 0.98885 0.0
H674 H 0.64506 0.04024 0.99391 0.0
C675 C 0.73931 0.03152 0.06543 0.0
C676 C 0.75599 0.04661 0.11631 0.0
C677 C 0.75726 0.07109 0.08802 0.0
C678 C 0.73928 0.08127 0.0244 0.0
C679 C 0.7204 0.06663 0.98998 0.0
C680 C 0.72065 0.04194 0.00708 0.0
C681 C 0.6958 0.03116 0.99124 0.0
C682 C 0.69529 1.01527 0.89217 0.0
C683 C 0.68715 1.01702 0.0891 0.0
C684 C 0.68115 0.0538 0.97559 0.0
C685 C 0.69564 0.07398 0.96991 0.0
C686 C 0.68576 0.09716 0.97245 0.0
C687 C 0.66063 0.09973 0.98328 0.0
C688 C 0.64589 0.07922 0.99426 0.0
C689 C 0.6562 0.05613 0.98649 0.0
H690 H 0.53826 0.72822 0.0819 0.0
H691 H 0.46999 0.76433 0.12614 0.0
H692 H 0.4503 0.73515 0.00838 0.0
H693 H 0.52539 0.6957 0.814 0.0
H694 H 0.53888 0.66847 0.86355 0.0
H695 H 0.55107 0.69737 0.89994 0.0
H696 H 0.54676 0.68771 0.0964 0.0
H697 H 0.53499 0.6587 0.0659 0.0
H698 H 0.51774 0.67889 0.14825 0.0
H699 H 0.43555 0.69558 0.95218 0.0
H700 H 0.42804 0.65164 0.9561 0.0
H701 H 0.50504 0.63863 0.9682 0.0
C702 C 0.5196 0.73091 0.05895 0.0
C703 C 0.50558 0.74838 0.11082 0.0
C704 C 0.48101 0.75125 0.08465 0.0
C705 C 0.4697 0.73454 0.01842 0.0
C706 C 0.48327 0.71513 0.98057 0.0
C707 C 0.50799 0.71349 0.99854 0.0
C708 C 0.51727 0.68822 0.97972 0.0
C709 C 0.53414 0.68737 0.88352 0.0
C710 C 0.52988 0.67781 0.07839 0.0
C711 C 0.49377 0.67553 0.95784 0.0
C712 C 0.47446 0.69134 0.95411 0.0
C713 C 0.4506 0.68312 0.95133 0.0
C714 C 0.44643 0.65824 0.95471 0.0
C715 C 0.46604 0.64213 0.96376 0.0
C716 C 0.48985 0.65085 0.9618 0.0
H717 H 0.79409 0.5219 0.09239 0.0
H718 H 0.78782 0.59405 0.21296 0.0
H719 H 0.82277 0.60642 0.10761 0.0
H720 H 0.84504 0.5138 0.14706 0.0
H721 H 0.85781 0.49726 0.03792 0.0
H722 H 0.82599 0.49666 0.05945 0.0
H723 H 0.81746 0.51283 0.87204 0.0
H724 H 0.8496 0.51201 0.84851 0.0
H725 H 0.83285 0.53938 0.82596 0.0
H726 H 0.86575 0.60534 0.07909 0.0
H727 H 0.90827 0.59316 0.095 0.0
H728 H 0.88994 0.52167 0.98557 0.0
C729 C 0.79892 0.54072 0.08786 0.0
C730 C 0.7887 0.55702 0.16009 0.0
C731 C 0.79543 0.58144 0.15672 0.0
C732 C 0.81555 0.5885 0.09768 0.0
C733 C 0.8283 0.57094 0.04172 0.0
C734 C 0.8196 0.54761 0.03184 0.0
C735 C 0.83921 0.53073 0.99239 0.0
C736 C 0.84217 0.50837 0.06362 0.0
C737 C 0.83446 0.52334 0.87781 0.0
C738 C 0.86086 0.54712 0.99885 0.0
C739 C 0.85415 0.57047 0.02303 0.0
C740 C 0.87119 0.58747 0.0548 0.0
C741 C 0.89538 0.58034 0.06444 0.0
C742 C 0.90237 0.55637 0.04244 0.0
C743 C 0.88502 0.54004 0.00426 0.0
H744 H 0.02879 0.18896 0.16066 0.0
H745 H 0.02605 0.23478 0.88527 0.0
H746 H 0.02883 0.19864 0.77009 0.0
H747 H 0.06997 0.1426 0.05371 0.0
H748 H 0.05395 0.11872 0.11939 0.0
H749 H 0.05471 0.14833 0.17699 0.0
H750 H 1.00789 0.14883 0.1829 0.0
H751 H 1.00698 0.11945 0.12353 0.0
H752 H 0.99115 0.14417 0.06297 0.0
H753 H 0.02721 0.15649 0.68653 0.0
H754 H 1.02571 0.11321 0.64194 0.0
H755 H 0.02941 0.0955 0.97465 0.0
C756 C 0.02961 0.19142 0.076 0.0
C757 C 0.02763 0.21468 0.0316 0.0
C758 C 0.02811 0.21719 0.92067 0.0
C759 C 0.02941 0.19672 0.85494 0.0
C760 C 0.0303 0.17394 0.9016 0.0
C761 C 0.03079 0.17129 0.00988 0.0
C762 C 0.03051 0.145 0.0414 0.0
C763 C 0.05367 0.13827 0.10139 0.0
C764 C 1.00779 0.13903 0.10651 0.0
C765 C 0.02974 0.1331 0.934 0.0
C766 C 0.02948 0.15002 0.85419 0.0
C767 C 0.02777 0.14317 0.74857 0.0
C768 C 0.02679 0.11848 0.72401 0.0
C769 C 0.02764 0.10081 0.80456 0.0
C770 C 0.02899 0.10843 0.91089 0.0
H771 H 0.35684 0.03653 0.0782 0.0
H772 H 0.31979 1.01087 0.79973 0.0
H773 H 0.3579 1.01457 0.69728 0.0
H774 H 0.39958 0.07834 0.94594 0.0
H775 H 0.42365 0.07046 0.03503 0.0
H776 H 0.39271 0.06952 0.07939 0.0
H777 H 0.39864 0.02514 0.13562 0.0
H778 H 0.42941 0.02574 0.08984 0.0
H779 H 0.40885 1.00343 0.0397 0.0
H780 H 0.40203 1.01605 0.63258 0.0
H781 H 0.44642 1.01712 0.60933 0.0
H782 H 0.45429 0.04147 0.93253 0.0
C783 C 0.35653 0.03247 0.99466 0.0
C784 C 0.33518 0.02368 0.94666 0.0
C785 C 0.33569 1.01812 0.8377 0.0
C786 C 0.35738 1.01994 0.77928 0.0
C787 C 0.37839 0.02751 0.83077 0.0
C788 C 0.37796 0.03401 0.93593 0.0
C789 C 0.40314 0.03968 0.97595 0.0
C790 C 0.40487 0.06607 0.01113 0.0
C791 C 0.41043 1.02247 0.06553 0.0
C792 C 0.41803 0.0351 0.87746 0.0
C793 C 0.40349 0.02813 0.79433 0.0
C794 C 0.41346 1.02171 0.69706 0.0
C795 C 0.43878 1.02236 0.68464 0.0
C796 C 0.45403 0.02963 0.76865 0.0
C797 C 0.44328 0.03618 0.86602 0.0
H798 H 0.5566 0.35864 0.09859 0.0
H799 H 0.51039 0.31666 0.89161 0.0
H800 H 0.50384 0.35296 0.78277 0.0
H801 H 0.51762 0.41024 0.10289 0.0
H802 H 0.54239 0.43111 0.11232 0.0
H803 H 0.54536 0.40131 0.16608 0.0
H804 H 0.58371 0.3944 0.05293 0.0
H805 H 0.58078 0.4241 0.99798 0.0
H806 H 0.58222 0.3983 0.91196 0.0
H807 H 0.50346 0.39506 0.69309 0.0
H808 H 0.50467 0.43845 0.6473 0.0
H809 H 0.54519 0.45295 0.93188 0.0
C810 C 0.54445 0.3567 0.0326 0.0
C811 C 0.53371 0.3342 0.00647 0.0
C812 C 0.51912 0.33323 0.91453 0.0
C813 C 0.51513 0.35394 0.85218 0.0
C814 C 0.52552 0.37575 0.8829 0.0
C815 C 0.53956 0.37721 0.97226 0.0
C816 C 0.54752 0.40288 0.99352 0.0
C817 C 0.53762 0.41191 0.09998 0.0
C818 C 0.5752 0.40503 0.98877 0.0
C819 C 0.53576 0.41585 0.90195 0.0
C820 C 0.52364 0.39987 0.83726 0.0
C821 C 0.51253 0.40767 0.7445 0.0
C822 C 0.51342 0.43232 0.71872 0.0
C823 C 0.52474 0.44907 0.78669 0.0
C824 C 0.5361 0.4406 0.87924 0.0
H825 H 0.19466 0.48158 0.01176 0.0
H826 H 0.22454 0.54923 0.90231 0.0
H827 H 0.18611 0.55782 0.81015 0.0
H828 H 0.15494 0.46776 0.79133 0.0
H829 H 0.13116 0.45706 0.87633 0.0
H830 H 0.16225 0.45432 0.91662 0.0
H831 H 0.15248 0.47745 0.08927 0.0
H832 H 0.12142 0.48028 0.04956 0.0
H833 H 0.13862 0.50675 0.08178 0.0
H834 H 0.14283 0.55878 0.72986 0.0
H835 H 0.09879 0.55558 0.69652 0.0
H836 H 0.09597 0.49115 0.88739 0.0
C837 C 0.19344 0.49826 0.96831 0.0
C838 C 0.21309 0.51474 0.96554 0.0
C839 C 0.21026 0.53599 0.90499 0.0
C840 C 0.18829 0.54113 0.85285 0.0
C841 C 0.1691 0.52488 0.86136 0.0
C842 C 0.17149 0.50401 0.91908 0.0
C843 C 0.14755 0.49084 0.92804 0.0
C844 C 0.14908 0.46602 0.87491 0.0
C845 C 0.13955 0.48872 0.04401 0.0
C846 C 0.13108 0.5076 0.86699 0.0
C847 C 0.14396 0.52673 0.82592 0.0
C848 C 0.13265 0.54402 0.76309 0.0
C849 C 0.10761 0.54202 0.74422 0.0
C850 C 0.09386 0.52332 0.79054 0.0
C851 C 0.10592 0.50583 0.85207 0.0
H852 H 1.0006 0.85254 0.36601 0.0
H853 H 0.05152 0.81615 0.5703 0.0
H854 H 0.05824 0.85432 0.66704 0.0
H855 H 0.03356 0.90549 0.33978 0.0
H856 H 1.00791 0.92552 0.33806 0.0
H857 H 1.0047 0.89497 0.29344 0.0
H858 H 0.97011 0.88785 0.42704 0.0
H859 H 0.97273 0.91855 0.47098 0.0
H860 H 0.97492 0.89431 0.56472 0.0
H861 H 0.06178 0.89773 0.73109 0.0
H862 H 0.05987 0.94138 0.76694 0.0
H863 H 1.00756 0.94978 0.51554 0.0
C864 C 1.01252 0.85239 0.43362 0.0
C865 C 1.02523 0.83112 0.46173 0.0
C866 C 0.04112 0.83192 0.54895 0.0
C867 C 0.04524 0.85365 0.60348 0.0
C868 C 0.03302 0.87444 0.57123 0.0
C869 C 1.01675 0.87387 0.48893 0.0
C870 C 1.00702 0.89888 0.46521 0.0
C871 C 1.01371 0.90667 0.35246 0.0
C872 C 0.97956 0.89996 0.48308 0.0
C873 C 1.02037 0.91376 0.54683 0.0
C874 C 0.03525 0.89932 0.60729 0.0
C875 C 0.04979 0.90908 0.68595 0.0
C876 C 0.04871 0.93401 0.70509 0.0
C877 C 0.03358 0.94929 0.64446 0.0
C878 C 1.01932 0.93881 0.5638 0.0
H879 H 0.70807 1.00596 0.37762 0.0
H880 H 0.74201 0.05601 0.59347 0.0
H881 H 0.70344 0.05959 0.69198 0.0
H882 H 0.65368 0.03682 0.35671 0.0
H883 H 0.63438 1.01081 0.35012 0.0
H884 H 0.66512 1.00879 0.30496 0.0
H885 H 0.67412 0.97367 0.43052 0.0
H886 H 0.64315 0.97447 0.47443 0.0
H887 H 0.66731 0.97665 0.56898 0.0
H888 H 0.65963 0.05963 0.75965 0.0
H889 H 0.61571 0.05574 0.79212 0.0
H890 H 0.60997 1.00775 0.52376 0.0
C891 C 0.70763 1.0173 0.44709 0.0
C892 C 0.72838 0.03059 0.47791 0.0
C893 C 0.72673 0.04526 0.56911 0.0
C894 C 0.70473 0.04758 0.62499 0.0
C895 C 0.68448 0.03489 0.58985 0.0
C896 C 0.68585 1.0199 0.50318 0.0
C897 C 0.66123 1.00943 0.47677 0.0
C898 C 0.65313 1.01694 0.36558 0.0
C899 C 0.66147 0.98192 0.4884 0.0
C900 C 0.64559 1.02109 0.56108 0.0
C901 C 0.65937 0.03548 0.62644 0.0
C902 C 0.64882 0.04815 0.70974 0.0
C903 C 0.62376 0.0459 0.72728 0.0
C904 C 0.60916 0.0315 0.66053 0.0
C905 C 0.62044 1.019 0.57619 0.0
H906 H 0.54756 0.69931 0.36367 0.0
H907 H 0.4994 0.73515 0.58303 0.0
H908 H 0.49366 0.69662 0.67848 0.0
H909 H 0.51501 0.64615 0.343 0.0
H910 H 0.54064 0.62614 0.33545 0.0
H911 H 0.54341 0.65671 0.29108 0.0
H912 H 0.57912 0.66415 0.41681 0.0
H913 H 0.57728 0.63337 0.46011 0.0
H914 H 0.57587 0.65746 0.55515 0.0
H915 H 0.49121 0.6529 0.74175 0.0
H916 H 0.4937 0.60913 0.77451 0.0
H917 H 0.54314 0.60169 0.51061 0.0
C918 C 0.53655 0.69925 0.43439 0.0
C919 C 0.52439 0.72048 0.46754 0.0
C920 C 0.50946 0.7194 0.5581 0.0
C921 C 0.50594 0.69748 0.61208 0.0
C922 C 0.51784 0.67678 0.57592 0.0
C923 C 0.53308 0.67761 0.48964 0.0
C924 C 0.54277 0.6527 0.46287 0.0
C925 C 0.53497 0.64498 0.35152 0.0
C926 C 0.5704 0.65187 0.47446 0.0
C927 C 0.5305 0.63756 0.54692 0.0
C928 C 0.51624 0.65178 0.61152 0.0
C929 C 0.50273 0.64172 0.69316 0.0
C930 C 0.50413 0.61672 0.71058 0.0
C931 C 0.51862 0.60165 0.64555 0.0
C932 C 0.53191 0.61247 0.56237 0.0
H933 H 0.83726 0.56452 0.45613 0.0
H934 H 0.80817 0.49751 0.57723 0.0
H935 H 0.8465 0.49049 0.67235 0.0
H936 H 0.89434 0.53922 0.39485 0.0
H937 H 0.9108 0.56643 0.42212 0.0
H938 H 0.8799 0.56806 0.37889 0.0
H939 H 0.86884 0.59316 0.5446 0.0
H940 H 0.89974 0.59156 0.58856 0.0
H941 H 0.8757 0.58148 0.67368 0.0
H942 H 0.88936 0.49143 0.7573 0.0
H943 H 0.93307 0.4961 0.79495 0.0
H944 H 0.93556 0.55829 0.59012 0.0
C945 C 0.83863 0.54823 0.50225 0.0
C946 C 0.81917 0.53156 0.50777 0.0
C947 C 0.82225 0.51093 0.57225 0.0
C948 C 0.84417 0.50668 0.62622 0.0
C949 C 0.8631 0.52315 0.61559 0.0
C950 C 0.86056 0.54332 0.55341 0.0
C951 C 0.88428 0.55685 0.54362 0.0
C952 C 0.89283 0.55768 0.42805 0.0
C953 C 0.88199 0.58227 0.59041 0.0
C954 C 0.90076 0.54122 0.61018 0.0
C955 C 0.88808 0.52226 0.65392 0.0
C956 C 0.89939 0.50603 0.72198 0.0
C957 C 0.92424 0.50888 0.74338 0.0
C958 C 0.93784 0.52737 0.69456 0.0
C959 C 0.92575 0.54381 0.62771 0.0
loop_
_geom_bond_atom_site_label_1
_geom_bond_atom_site_label_2
_geom_bond_distance
_geom_bond_site_symmetry_2
_ccdc_geom_bond_type
H0 C1 0.949 . S
C1 H0 0.949 . S
C1 C2 1.395 . S
C1 C3 1.391 . S
C2 C1 1.395 . S
C2 C5 1.390 . S
C3 C1 1.391 . S
C3 C7 1.387 . S
C3 C8 1.491 . S
H4 C5 0.950 . S
C5 C2 1.390 . S
C5 H4 0.950 . S
C5 C6 1.378 . S
C6 C5 1.378 . S
C6 C7 1.409 . S
C7 C3 1.387 . S
C7 C6 1.409 . S
C7 H9 0.951 . S
C8 C3 1.491 . S
C8 C10 1.382 . S
C8 C12 1.404 . S
H9 C7 0.951 . S
C10 C8 1.382 . S
C10 C11 1.390 . S
C10 H15 0.949 . S
C11 C10 1.390 . S
C11 C16 1.399 . S
C12 C8 1.404 . S
C12 H13 0.950 . S
C12 C14 1.375 . S
H13 C12 0.950 . S
C14 C12 1.375 . S
C14 C16 1.382 . S
C14 H18 0.950 . S
H15 C10 0.949 . S
C16 C11 1.399 . S
C16 C14 1.382 . S
C16 H17 0.952 . S
H17 C16 0.952 . S
H18 C14 0.950 . S
H19 C20 0.949 . S
C20 H19 0.949 . S
C20 C21 1.395 . S
C20 C22 1.391 . S
C21 C20 1.395 . S
C21 C24 1.390 1_655 S
C22 C20 1.391 . S
C22 C26 1.387 . S
C22 C27 1.491 . S
H23 C24 0.950 . S
C24 C21 1.390 1_455 S
C24 H23 0.950 . S
C24 C25 1.377 1_455 S
C25 C24 1.377 1_655 S
C25 C26 1.413 . S
C26 C22 1.387 . S
C26 C25 1.413 . S
C26 H28 0.951 . S
C27 C22 1.491 . S
C27 C29 1.382 . S
C27 C31 1.404 . S
H28 C26 0.951 . S
C29 C27 1.382 . S
C29 C30 1.390 . S
C29 H34 0.949 1_655 S
C30 C29 1.390 . S
C30 C35 1.399 . S
C31 C27 1.404 . S
C31 H32 0.950 . S
C31 C33 1.375 . S
H32 C31 0.950 . S
C33 C31 1.375 . S
C33 C35 1.382 . S
C33 H37 0.950 . S
H34 C29 0.949 1_455 S
C35 C30 1.399 . S
C35 C33 1.382 . S
C35 H36 0.952 . S
H36 C35 0.952 . S
H37 C33 0.950 . S
H38 C39 0.949 . S
C39 H38 0.949 . S
C39 C40 1.395 . S
C39 C41 1.391 . S
C40 C39 1.395 . S
C40 C43 1.390 1_565 S
C41 C39 1.391 . S
C41 C45 1.387 . S
C41 C46 1.491 . S
H42 C43 0.950 . S
C43 C40 1.390 1_545 S
C43 H42 0.950 . S
C43 C44 1.377 1_545 S
C44 C43 1.377 1_565 S
C44 C45 1.413 . S
C45 C41 1.387 . S
C45 C44 1.413 . S
C45 H47 0.951 . S
C46 C41 1.491 . S
C46 C48 1.382 . S
C46 C50 1.404 . S
H47 C45 0.951 . S
C48 C46 1.382 . S
C48 C49 1.390 . S
C48 H53 0.949 1_565 S
C49 C48 1.390 . S
C49 C54 1.399 . S
C50 C46 1.404 . S
C50 H51 0.950 . S
C50 C52 1.375 . S
H51 C50 0.950 . S
C52 C50 1.375 . S
C52 C54 1.382 . S
C52 H56 0.950 . S
H53 C48 0.949 1_545 S
C54 C49 1.399 . S
C54 C52 1.382 . S
C54 H55 0.952 . S
H55 C54 0.952 . S
H56 C52 0.950 . S
H57 C58 0.949 . S
C58 H57 0.949 . S
C58 C59 1.395 . S
C58 C60 1.391 . S
C59 C58 1.395 . S
C59 C62 1.390 . S
C60 C58 1.391 . S
C60 C64 1.387 . S
C60 C65 1.491 . S
H61 C62 0.950 . S
C62 C59 1.390 . S
C62 H61 0.950 . S
C62 C63 1.378 . S
C63 C62 1.378 . S
C63 C64 1.409 . S
C64 C60 1.387 . S
C64 C63 1.409 . S
C64 H66 0.951 . S
C65 C60 1.491 . S
C65 C67 1.382 . S
C65 C69 1.404 . S
H66 C64 0.951 . S
C67 C65 1.382 . S
C67 C68 1.390 . S
C67 H72 0.949 . S
C68 C67 1.390 . S
C68 C73 1.399 . S
C69 C65 1.404 . S
C69 H70 0.950 . S
C69 C71 1.375 . S
H70 C69 0.950 . S
C71 C69 1.375 . S
C71 C73 1.382 . S
C71 H75 0.950 . S
H72 C67 0.949 . S
C73 C68 1.399 . S
C73 C71 1.382 . S
C73 H74 0.952 . S
H74 C73 0.952 . S
H75 C71 0.950 . S
H76 C77 0.949 . S
C77 H76 0.949 . S
C77 C78 1.395 . S
C77 C79 1.391 1_554 S
C78 C77 1.395 . S
C78 C81 1.390 1_554 S
C79 C77 1.391 1_556 S
C79 C83 1.387 . S
C79 C84 1.491 . S
H80 C81 0.950 . S
C81 C78 1.390 1_556 S
C81 H80 0.950 . S
C81 C82 1.378 . S
C82 C81 1.378 . S
C82 C83 1.409 . S
C83 C79 1.387 . S
C83 C82 1.409 . S
C83 H85 0.951 . S
C84 C79 1.491 . S
C84 C86 1.382 1_556 S
C84 C88 1.404 . S
H85 C83 0.951 . S
C86 C84 1.382 1_554 S
C86 C87 1.390 . S
C86 H91 0.949 . S
C87 C86 1.390 . S
C87 C92 1.399 1_554 S
C88 C84 1.404 . S
C88 H89 0.950 . S
C88 C90 1.375 . S
H89 C88 0.950 . S
C90 C88 1.375 . S
C90 C92 1.382 . S
C90 H94 0.950 . S
H91 C86 0.949 . S
C92 C87 1.399 1_556 S
C92 C90 1.382 . S
C92 H93 0.952 . S
H93 C92 0.952 . S
H94 C90 0.950 . S
H95 C96 0.949 . S
C96 H95 0.949 . S
C96 C97 1.392 1_655 S
C96 C98 1.391 1_554 S
C97 C96 1.392 1_455 S
C97 C100 1.391 1_554 S
C98 C96 1.391 1_556 S
C98 C102 1.387 . S
C98 C103 1.491 . S
H99 C100 0.950 . S
C100 C97 1.391 1_556 S
C100 H99 0.950 . S
C100 C101 1.378 . S
C101 C100 1.378 . S
C101 C102 1.409 1_455 S
C102 C98 1.387 . S
C102 C101 1.409 1_655 S
C102 H104 0.951 . S
C103 C98 1.491 . S
C103 C105 1.392 1_556 S
C103 C107 1.404 . S
H104 C102 0.951 . S
C105 C103 1.392 1_554 S
C105 C106 1.394 . S
C105 H110 0.934 1_655 S
C106 C105 1.394 . S
C106 C111 1.399 1_554 S
C107 C103 1.404 . S
C107 H108 0.950 . S
C107 C109 1.375 . S
H108 C107 0.950 . S
C109 C107 1.375 . S
C109 C111 1.382 . S
C109 H113 0.950 . S
H110 C105 0.934 1_455 S
C111 C106 1.399 1_556 S
C111 C109 1.382 . S
C111 H112 0.952 . S
H112 C111 0.952 . S
H113 C109 0.950 . S
H114 C115 0.949 . S
C115 H114 0.949 . S
C115 C116 1.392 1_565 S
C115 C117 1.391 1_554 S
C116 C115 1.392 1_545 S
C116 C119 1.391 1_554 S
C117 C115 1.391 1_556 S
C117 C121 1.387 . S
C117 C122 1.491 . S
H118 C119 0.950 . S
C119 C116 1.391 1_556 S
C119 H118 0.950 . S
C119 C120 1.378 . S
C120 C119 1.378 . S
C120 C121 1.409 1_545 S
C121 C117 1.387 . S
C121 C120 1.409 1_565 S
C121 H123 0.951 . S
C122 C117 1.491 . S
C122 C124 1.392 1_556 S
C122 C126 1.404 . S
H123 C121 0.951 . S
C124 C122 1.392 1_554 S
C124 C125 1.395 . S
C124 H129 0.934 1_565 S
C125 C124 1.395 . S
C125 C130 1.399 1_554 S
C126 C122 1.404 . S
C126 H127 0.950 . S
C126 C128 1.375 . S
H127 C126 0.950 . S
C128 C126 1.375 . S
C128 C130 1.382 . S
C128 H132 0.950 . S
H129 C124 0.934 1_545 S
C130 C125 1.399 1_556 S
C130 C128 1.382 . S
C130 H131 0.952 . S
H131 C130 0.952 . S
H132 C128 0.950 . S
H133 C134 0.949 . S
C134 H133 0.949 . S
C134 C135 1.395 . S
C134 C136 1.391 1_554 S
C135 C134 1.395 . S
C135 C138 1.390 1_554 S
C136 C134 1.391 1_556 S
C136 C140 1.387 . S
C136 C141 1.491 . S
H137 C138 0.950 . S
C138 C135 1.390 1_556 S
C138 H137 0.950 . S
C138 C139 1.378 . S
C139 C138 1.378 . S
C139 C140 1.409 . S
C140 C136 1.387 . S
C140 C139 1.409 . S
C140 H142 0.951 . S
C141 C136 1.491 . S
C141 C143 1.382 1_556 S
C141 C145 1.404 . S
H142 C140 0.951 . S
C143 C141 1.382 1_554 S
C143 C144 1.390 . S
C143 H148 0.949 . S
C144 C143 1.390 . S
C144 C149 1.399 1_554 S
C145 C141 1.404 . S
C145 H146 0.950 . S
C145 C147 1.375 . S
H146 C145 0.950 . S
C147 C145 1.375 . S
C147 C149 1.382 . S
C147 H151 0.950 . S
H148 C143 0.949 . S
C149 C144 1.399 1_556 S
C149 C147 1.382 . S
C149 H150 0.952 . S
H150 C149 0.952 . S
H151 C147 0.950 . S
Ho152 C155 2.811 . S
Ho152 O172 2.322 . S
Ho152 O174 2.378 . S
Ho152 O175 2.524 1_455 S
Ho152 O176 2.381 . S
Ho152 O177 2.669 1_565 S
Ho152 O179 2.346 1_565 S
Ho152 O183 2.305 1_455 S
Ho153 C164 2.811 . S
Ho153 O173 2.346 1_545 S
Ho153 O177 2.305 1_655 S
Ho153 O178 2.322 . S
Ho153 O180 2.378 . S
Ho153 O181 2.524 1_655 S
Ho153 O182 2.381 . S
Ho153 O183 2.669 1_545 S
C154 O172 1.259 1_655 S
C154 O173 1.268 . S
C155 Ho152 2.811 . S
C155 C156 1.488 1_556 S
C155 O174 1.215 . S
C155 O175 1.289 1_455 S
C156 C155 1.488 1_554 S
C156 C157 1.348 . S
C156 C161 1.413 . S
C157 C156 1.348 . S
C157 C158 1.442 . S
C157 H184 0.930 1_455 S
C158 C157 1.442 . S
C158 C159 1.381 . S
C158 H185 0.931 1_455 S
C159 C158 1.381 . S
C159 C160 1.321 . S
C160 C159 1.321 . S
C160 C161 1.403 . S
C160 H186 0.934 . S
C161 C156 1.413 . S
C161 C160 1.403 . S
C161 H187 0.930 1_554 S
C162 O176 1.292 . S
C162 O177 1.246 1_565 S
C163 O178 1.259 1_455 S
C163 O179 1.268 . S
C164 Ho153 2.811 . S
C164 C165 1.488 . S
C164 O180 1.215 . S
C164 O181 1.289 1_655 S
C165 C164 1.488 . S
C165 C166 1.348 . S
C165 C170 1.413 . S
C166 C165 1.348 . S
C166 C167 1.442 . S
C166 H188 0.930 1_655 S
C167 C166 1.442 . S
C167 C168 1.381 . S
C167 H189 0.931 1_655 S
C168 C167 1.381 . S
C168 C169 1.321 . S
C169 C168 1.321 . S
C169 C170 1.403 . S
C169 H190 0.934 . S
C170 C165 1.413 . S
C170 C169 1.403 . S
C170 H191 0.930 . S
C171 O182 1.275 . S
C171 O183 1.256 1_545 S
O172 Ho152 2.322 . S
O172 C154 1.259 1_455 S
O173 Ho153 2.346 1_565 S
O173 C154 1.268 . S
O174 Ho152 2.378 . S
O174 C155 1.215 . S
O175 Ho152 2.524 1_655 S
O175 C155 1.289 1_655 S
O176 Ho152 2.381 . S
O176 C162 1.292 . S
O177 Ho152 2.669 1_545 S
O177 Ho153 2.305 1_455 S
O177 C162 1.246 1_545 S
O178 Ho153 2.322 . S
O178 C163 1.259 1_655 S
O179 Ho152 2.346 1_545 S
O179 C163 1.268 . S
O180 Ho153 2.378 . S
O180 C164 1.215 . S
O181 Ho153 2.524 1_455 S
O181 C164 1.289 1_455 S
O182 Ho153 2.381 . S
O182 C171 1.275 . S
O183 Ho152 2.305 1_655 S
O183 Ho153 2.669 1_565 S
O183 C171 1.256 1_565 S
H184 C157 0.930 1_655 S
H185 C158 0.931 1_655 S
H186 C160 0.934 . S
H187 C161 0.930 1_556 S
H188 C166 0.930 1_455 S
H189 C167 0.931 1_455 S
H190 C169 0.934 . S
H191 C170 0.930 . S
Ho192 C195 2.811 . S
Ho192 O212 2.322 . S
Ho192 O214 2.378 . S
Ho192 O215 2.524 1_545 S
Ho192 O216 2.381 . S
Ho192 O217 2.669 . S
Ho192 O219 2.346 . S
Ho192 O223 2.305 1_545 S
Ho193 C204 2.811 . S
Ho193 O213 2.346 . S
Ho193 O217 2.305 1_565 S
Ho193 O218 2.322 . S
Ho193 O220 2.378 . S
Ho193 O221 2.524 1_565 S
Ho193 O222 2.381 . S
Ho193 O223 2.669 . S
C194 O212 1.259 1_565 S
C194 O213 1.268 . S
C195 Ho192 2.811 . S
C195 C196 1.488 1_556 S
C195 O214 1.215 . S
C195 O215 1.289 1_545 S
C196 C195 1.488 1_554 S
C196 C197 1.348 . S
C196 C201 1.413 . S
C197 C196 1.348 . S
C197 C198 1.442 . S
C197 H224 0.930 1_545 S
C198 C197 1.442 . S
C198 C199 1.381 . S
C198 H225 0.931 1_545 S
C199 C198 1.381 . S
C199 C200 1.321 . S
C200 C199 1.321 . S
C200 C201 1.403 . S
C200 H226 0.934 . S
C201 C196 1.413 . S
C201 C200 1.403 . S
C201 H227 0.930 1_554 S
C202 O216 1.275 . S
C202 O217 1.256 . S
C203 O218 1.259 1_545 S
C203 O219 1.268 . S
C204 Ho193 2.811 . S
C204 C205 1.488 . S
C204 O220 1.215 . S
C204 O221 1.289 1_565 S
C205 C204 1.488 . S
C205 C206 1.348 . S
C205 C210 1.413 . S
C206 C205 1.348 . S
C206 C207 1.442 . S
C206 H228 0.930 1_565 S
C207 C206 1.442 . S
C207 C208 1.381 . S
C207 H229 0.931 1_565 S
C208 C207 1.381 . S
C208 C209 1.321 . S
C209 C208 1.321 . S
C209 C210 1.403 . S
C209 H230 0.934 . S
C210 C205 1.413 . S
C210 C209 1.403 . S
C210 H231 0.930 . S
C211 O222 1.275 . S
C211 O223 1.256 . S
O212 Ho192 2.322 . S
O212 C194 1.259 1_545 S
O213 Ho193 2.346 . S
O213 C194 1.268 . S
O214 Ho192 2.378 . S
O214 C195 1.215 . S
O215 Ho192 2.524 1_565 S
O215 C195 1.289 1_565 S
O216 Ho192 2.381 . S
O216 C202 1.275 . S
O217 Ho192 2.669 . S
O217 Ho193 2.305 1_545 S
O217 C202 1.256 . S
O218 Ho193 2.322 . S
O218 C203 1.259 1_565 S
O219 Ho192 2.346 . S
O219 C203 1.268 . S
O220 Ho193 2.378 . S
O220 C204 1.215 . S
O221 Ho193 2.524 1_545 S
O221 C204 1.289 1_545 S
O222 Ho193 2.381 . S
O222 C211 1.275 . S
O223 Ho192 2.305 1_565 S
O223 Ho193 2.669 . S
O223 C211 1.256 . S
H224 C197 0.930 1_565 S
H225 C198 0.931 1_565 S
H226 C200 0.934 . S
H227 C201 0.930 1_556 S
H228 C206 0.930 1_545 S
H229 C207 0.931 1_545 S
H230 C209 0.934 . S
H231 C210 0.930 . S
Ho232 C235 2.811 . S
Ho232 O252 2.322 . S
Ho232 O254 2.378 . S
Ho232 O255 2.524 . S
Ho232 O256 2.381 . S
Ho232 O257 2.669 . S
Ho232 O259 2.346 . S
Ho232 O263 2.305 . S
Ho233 C244 2.811 . S
Ho233 O253 2.346 . S
Ho233 O257 2.305 . S
Ho233 O258 2.322 . S
Ho233 O260 2.378 . S
Ho233 O261 2.524 . S
Ho233 O262 2.381 . S
Ho233 O263 2.669 . S
C234 O252 1.259 . S
C234 O253 1.268 . S
C235 Ho232 2.811 . S
C235 C236 1.488 1_556 S
C235 O254 1.215 . S
C235 O255 1.289 . S
C236 C235 1.488 1_554 S
C236 C237 1.348 . S
C236 C241 1.413 . S
C237 C236 1.348 . S
C237 C238 1.442 . S
C237 H264 0.930 . S
C238 C237 1.442 . S
C238 C239 1.381 . S
C238 H265 0.931 . S
C239 C238 1.381 . S
C239 C240 1.321 . S
C240 C239 1.321 . S
C240 C241 1.403 . S
C240 H266 0.934 . S
C241 C236 1.413 . S
C241 C240 1.403 . S
C241 H267 0.930 1_554 S
C242 O256 1.275 . S
C242 O257 1.256 . S
C243 O258 1.259 . S
C243 O259 1.268 . S
C244 Ho233 2.811 . S
C244 C245 1.488 . S
C244 O260 1.215 . S
C244 O261 1.289 . S
C245 C244 1.488 . S
C245 C246 1.348 . S
C245 C250 1.413 . S
C246 C245 1.348 . S
C246 C247 1.442 . S
C246 H268 0.930 . S
C247 C246 1.442 . S
C247 C248 1.381 . S
C247 H269 0.931 . S
C248 C247 1.381 . S
C248 C249 1.321 . S
C249 C248 1.321 . S
C249 C250 1.403 . S
C249 H270 0.934 . S
C250 C245 1.413 . S
C250 C249 1.403 . S
C250 H271 0.930 . S
C251 O262 1.275 . S
C251 O263 1.256 . S
O252 Ho232 2.322 . S
O252 C234 1.259 . S
O253 Ho233 2.346 . S
O253 C234 1.268 . S
O254 Ho232 2.378 . S
O254 C235 1.215 . S
O255 Ho232 2.524 . S
O255 C235 1.289 . S
O256 Ho232 2.381 . S
O256 C242 1.275 . S
O257 Ho232 2.669 . S
O257 Ho233 2.305 . S
O257 C242 1.256 . S
O258 Ho233 2.322 . S
O258 C243 1.259 . S
O259 Ho232 2.346 . S
O259 C243 1.268 . S
O260 Ho233 2.378 . S
O260 C244 1.215 . S
O261 Ho233 2.524 . S
O261 C244 1.289 . S
O262 Ho233 2.381 . S
O262 C251 1.275 . S
O263 Ho232 2.305 . S
O263 Ho233 2.669 . S
O263 C251 1.256 . S
H264 C237 0.930 . S
H265 C238 0.931 . S
H266 C240 0.934 . S
H267 C241 0.930 1_556 S
H268 C246 0.930 . S
H269 C247 0.931 . S
H270 C249 0.934 . S
H271 C250 0.930 . S
Ho272 C275 2.811 . S
Ho272 O292 2.322 . S
Ho272 O294 2.378 . S
Ho272 O295 2.524 . S
Ho272 O296 2.381 . S
Ho272 O297 2.669 1_655 S
Ho272 O299 2.346 1_655 S
Ho272 O303 2.305 . S
Ho273 C284 2.811 . S
Ho273 O293 2.346 1_455 S
Ho273 O297 2.305 . S
Ho273 O298 2.322 . S
Ho273 O300 2.378 . S
Ho273 O301 2.524 . S
Ho273 O302 2.381 . S
Ho273 O303 2.669 1_455 S
C274 O292 1.259 . S
C274 O293 1.268 . S
C275 Ho272 2.811 . S
C275 C276 1.488 1_556 S
C275 O294 1.215 . S
C275 O295 1.289 . S
C276 C275 1.488 1_554 S
C276 C277 1.348 . S
C276 C281 1.413 . S
C277 C276 1.348 . S
C277 C278 1.442 . S
C277 H304 0.930 . S
C278 C277 1.442 . S
C278 C279 1.381 . S
C278 H305 0.931 . S
C279 C278 1.381 . S
C279 C280 1.321 . S
C280 C279 1.321 . S
C280 C281 1.403 . S
C280 H306 0.934 . S
C281 C276 1.413 . S
C281 C280 1.403 . S
C281 H307 0.930 1_554 S
C282 O296 1.291 . S
C282 O297 1.247 1_655 S
C283 O298 1.259 . S
C283 O299 1.268 . S
C284 Ho273 2.811 . S
C284 C285 1.488 . S
C284 O300 1.215 . S
C284 O301 1.289 . S
C285 C284 1.488 . S
C285 C286 1.348 . S
C285 C290 1.413 . S
C286 C285 1.348 . S
C286 C287 1.442 . S
C286 H308 0.930 . S
C287 C286 1.442 . S
C287 C288 1.381 . S
C287 H309 0.931 . S
C288 C287 1.381 . S
C288 C289 1.321 . S
C289 C288 1.321 . S
C289 C290 1.403 . S
C289 H310 0.934 . S
C290 C285 1.413 . S
C290 C289 1.403 . S
C290 H311 0.930 . S
C291 O302 1.275 . S
C291 O303 1.256 1_455 S
O292 Ho272 2.322 . S
O292 C274 1.259 . S
O293 Ho273 2.346 1_655 S
O293 C274 1.268 . S
O294 Ho272 2.378 . S
O294 C275 1.215 . S
O295 Ho272 2.524 . S
O295 C275 1.289 . S
O296 Ho272 2.381 . S
O296 C282 1.291 . S
O297 Ho272 2.669 1_455 S
O297 Ho273 2.305 . S
O297 C282 1.247 1_455 S
O298 Ho273 2.322 . S
O298 C283 1.259 . S
O299 Ho272 2.346 1_455 S
O299 C283 1.268 . S
O300 Ho273 2.378 . S
O300 C284 1.215 . S
O301 Ho273 2.524 . S
O301 C284 1.289 . S
O302 Ho273 2.381 . S
O302 C291 1.275 . S
O303 Ho272 2.305 . S
O303 Ho273 2.669 1_655 S
O303 C291 1.256 1_655 S
H304 C277 0.930 . S
H305 C278 0.931 . S
H306 C280 0.934 . S
H307 C281 0.930 1_556 S
H308 C286 0.930 . S
H309 C287 0.931 . S
H310 C289 0.934 . S
H311 C290 0.930 . S
H312 C324 0.930 . S
H313 C326 0.930 . S
H314 C327 0.930 . S
H315 C331 0.959 . S
H316 C331 0.959 . S
H317 C331 0.961 . S
H318 C332 0.960 . S
H319 C332 0.961 . S
H320 C332 0.959 . S
H321 C335 0.929 . S
H322 C336 0.931 . S
H323 C338 0.930 . S
C324 H312 0.930 . S
C324 C325 1.399 1_565 S
C324 C329 1.399 . S
C325 C324 1.399 1_545 S
C325 C326 1.376 . S
C326 H313 0.930 . S
C326 C325 1.376 . S
C326 C327 1.388 . S
C327 H314 0.930 . S
C327 C326 1.388 . S
C327 C328 1.390 . S
C328 C327 1.390 . S
C328 C329 1.394 1_545 S
C328 C334 1.465 . S
C329 C324 1.399 . S
C329 C328 1.394 1_565 S
C329 C330 1.516 . S
C330 C329 1.516 . S
C330 C331 1.502 . S
C330 C332 1.561 . S
C330 C333 1.526 . S
C331 H315 0.959 . S
C331 H316 0.959 . S
C331 H317 0.961 . S
C331 C330 1.502 . S
C332 H318 0.960 . S
C332 H319 0.961 . S
C332 H320 0.959 . S
C332 C330 1.561 . S
C333 C330 1.526 . S
C333 C334 1.396 1_565 S
C333 C338 1.390 . S
C334 C328 1.465 . S
C334 C333 1.396 1_545 S
C334 C335 1.399 . S
C335 H321 0.929 . S
C335 C334 1.399 . S
C335 C336 1.385 . S
C336 H322 0.931 . S
C336 C335 1.385 . S
C336 C337 1.389 . S
C337 C336 1.389 . S
C337 C338 1.387 1_545 S
C338 H323 0.930 . S
C338 C333 1.390 . S
C338 C337 1.387 1_565 S
H339 C351 0.930 . S
H340 C353 0.930 . S
H341 C354 0.930 . S
H342 C358 0.959 . S
H343 C358 0.959 . S
H344 C358 0.961 . S
H345 C359 0.960 . S
H346 C359 0.961 . S
H347 C359 0.959 . S
H348 C362 0.929 . S
H349 C363 0.931 . S
H350 C365 0.930 . S
C351 H339 0.930 . S
C351 C352 1.399 . S
C351 C356 1.399 . S
C352 C351 1.399 . S
C352 C353 1.376 . S
C353 H340 0.930 . S
C353 C352 1.376 . S
C353 C354 1.388 . S
C354 H341 0.930 . S
C354 C353 1.388 . S
C354 C355 1.390 . S
C355 C354 1.390 . S
C355 C356 1.394 . S
C355 C361 1.465 . S
C356 C351 1.399 . S
C356 C355 1.394 . S
C356 C357 1.516 . S
C357 C356 1.516 . S
C357 C358 1.502 . S
C357 C359 1.561 . S
C357 C360 1.526 . S
C358 H342 0.959 . S
C358 H343 0.959 . S
C358 H344 0.961 . S
C358 C357 1.502 . S
C359 H345 0.960 . S
C359 H346 0.961 . S
C359 H347 0.959 . S
C359 C357 1.561 . S
C360 C357 1.526 . S
C360 C361 1.396 . S
C360 C365 1.390 . S
C361 C355 1.465 . S
C361 C360 1.396 . S
C361 C362 1.399 . S
C362 H348 0.929 . S
C362 C361 1.399 . S
C362 C363 1.385 . S
C363 H349 0.931 . S
C363 C362 1.385 . S
C363 C364 1.389 . S
C364 C363 1.389 . S
C364 C365 1.387 . S
C365 H350 0.930 . S
C365 C360 1.390 . S
C365 C364 1.387 . S
H366 C378 0.930 . S
H367 C380 0.930 . S
H368 C381 0.930 . S
H369 C385 0.959 . S
H370 C385 0.959 . S
H371 C385 0.961 . S
H372 C386 0.960 . S
H373 C386 0.961 . S
H374 C386 0.959 . S
H375 C389 0.929 . S
H376 C390 0.931 . S
H377 C392 0.930 . S
C378 H366 0.930 . S
C378 C379 1.399 . S
C378 C383 1.399 . S
C379 C378 1.399 . S
C379 C380 1.376 . S
C380 H367 0.930 . S
C380 C379 1.376 . S
C380 C381 1.388 . S
C381 H368 0.930 . S
C381 C380 1.388 . S
C381 C382 1.390 . S
C382 C381 1.390 . S
C382 C383 1.394 . S
C382 C388 1.465 . S
C383 C378 1.399 . S
C383 C382 1.394 . S
C383 C384 1.516 . S
C384 C383 1.516 . S
C384 C385 1.502 . S
C384 C386 1.561 . S
C384 C387 1.526 . S
C385 H369 0.959 . S
C385 H370 0.959 . S
C385 H371 0.961 . S
C385 C384 1.502 . S
C386 H372 0.960 . S
C386 H373 0.961 . S
C386 H374 0.959 . S
C386 C384 1.561 . S
C387 C384 1.526 . S
C387 C388 1.396 . S
C387 C392 1.390 . S
C388 C382 1.465 . S
C388 C387 1.396 . S
C388 C389 1.399 . S
C389 H375 0.929 . S
C389 C388 1.399 . S
C389 C390 1.385 . S
C390 H376 0.931 . S
C390 C389 1.385 . S
C390 C391 1.389 . S
C391 C390 1.389 . S
C391 C392 1.387 . S
C392 H377 0.930 . S
C392 C387 1.390 . S
C392 C391 1.387 . S
H393 C405 0.930 . S
H394 C407 0.930 . S
H395 C408 0.930 . S
H396 C412 0.959 . S
H397 C412 0.959 . S
H398 C412 0.961 . S
H399 C413 0.960 . S
H400 C413 0.961 . S
H401 C413 0.959 . S
H402 C416 0.929 . S
H403 C417 0.931 . S
H404 C419 0.930 . S
C405 H393 0.930 . S
C405 C406 1.399 1_455 S
C405 C410 1.399 . S
C406 C405 1.399 1_655 S
C406 C407 1.376 . S
C407 H394 0.930 . S
C407 C406 1.376 . S
C407 C408 1.388 . S
C408 H395 0.930 . S
C408 C407 1.388 . S
C408 C409 1.390 . S
C409 C408 1.390 . S
C409 C410 1.394 1_655 S
C409 C415 1.465 . S
C410 C405 1.399 . S
C410 C409 1.394 1_455 S
C410 C411 1.516 . S
C411 C410 1.516 . S
C411 C412 1.502 . S
C411 C413 1.561 . S
C411 C414 1.526 . S
C412 H396 0.959 . S
C412 H397 0.959 . S
C412 H398 0.961 . S
C412 C411 1.502 . S
C413 H399 0.960 . S
C413 H400 0.961 . S
C413 H401 0.959 . S
C413 C411 1.561 . S
C414 C411 1.526 . S
C414 C415 1.396 1_455 S
C414 C419 1.390 . S
C415 C409 1.465 . S
C415 C414 1.396 1_655 S
C415 C416 1.399 . S
C416 H402 0.929 . S
C416 C415 1.399 . S
C416 C417 1.385 . S
C417 H403 0.931 . S
C417 C416 1.385 . S
C417 C418 1.421 . S
C418 C417 1.421 . S
C418 C419 1.362 1_655 S
C419 H404 0.930 . S
C419 C414 1.390 . S
C419 C418 1.362 1_455 S
H420 C432 0.930 . S
H421 C434 0.930 . S
H422 C435 0.930 . S
H423 C439 0.959 1_556 S
H424 C439 0.959 . S
H425 C439 0.961 . S
H426 C440 0.960 . S
H427 C440 0.961 . S
H428 C440 0.959 . S
H429 C443 0.929 . S
H430 C444 0.931 . S
H431 C446 0.930 . S
C432 H420 0.930 . S
C432 C433 1.399 1_545 S
C432 C437 1.399 . S
C433 C432 1.399 1_565 S
C433 C434 1.376 . S
C434 H421 0.930 . S
C434 C433 1.376 . S
C434 C435 1.388 . S
C435 H422 0.930 . S
C435 C434 1.388 . S
C435 C436 1.390 . S
C436 C435 1.390 . S
C436 C437 1.394 1_565 S
C436 C442 1.465 . S
C437 C432 1.399 . S
C437 C436 1.394 1_545 S
C437 C438 1.516 . S
C438 C437 1.516 . S
C438 C439 1.502 . S
C438 C440 1.561 . S
C438 C441 1.526 . S
C439 H423 0.959 1_554 S
C439 H424 0.959 . S
C439 H425 0.961 . S
C439 C438 1.502 . S
C440 H426 0.960 . S
C440 H427 0.961 . S
C440 H428 0.959 . S
C440 C438 1.561 . S
C441 C438 1.526 . S
C441 C442 1.396 1_545 S
C441 C446 1.390 1_554 S
C442 C436 1.465 . S
C442 C441 1.396 1_565 S
C442 C443 1.399 . S
C443 H429 0.929 . S
C443 C442 1.399 . S
C443 C444 1.385 1_554 S
C444 H430 0.931 . S
C444 C443 1.385 1_556 S
C444 C445 1.389 . S
C445 C444 1.389 . S
C445 C446 1.387 1_565 S
C446 H431 0.930 . S
C446 C441 1.390 1_556 S
C446 C445 1.387 1_545 S
H447 C459 0.930 . S
H448 C461 0.930 . S
H449 C462 0.930 . S
H450 C466 0.959 . S
H451 C466 0.959 . S
H452 C466 0.961 . S
H453 C467 0.960 . S
H454 C467 0.961 . S
H455 C467 0.959 . S
H456 C470 0.929 . S
H457 C471 0.931 . S
H458 C473 0.930 1_554 S
C459 H447 0.930 . S
C459 C460 1.399 . S
C459 C464 1.399 . S
C460 C459 1.399 . S
C460 C461 1.376 . S
C461 H448 0.930 . S
C461 C460 1.376 . S
C461 C462 1.388 . S
C462 H449 0.930 . S
C462 C461 1.388 . S
C462 C463 1.390 . S
C463 C462 1.390 . S
C463 C464 1.394 . S
C463 C469 1.465 . S
C464 C459 1.399 . S
C464 C463 1.394 . S
C464 C465 1.516 . S
C465 C464 1.516 . S
C465 C466 1.502 . S
C465 C467 1.561 . S
C465 C468 1.526 . S
C466 H450 0.959 . S
C466 H451 0.959 . S
C466 H452 0.961 . S
C466 C465 1.502 . S
C467 H453 0.960 . S
C467 H454 0.961 . S
C467 H455 0.959 . S
C467 C465 1.561 . S
C468 C465 1.526 . S
C468 C469 1.396 . S
C468 C473 1.390 1_554 S
C469 C463 1.465 . S
C469 C468 1.396 . S
C469 C470 1.399 1_554 S
C470 H456 0.929 . S
C470 C469 1.399 1_556 S
C470 C471 1.385 . S
C471 H457 0.931 . S
C471 C470 1.385 . S
C471 C472 1.389 . S
C472 C471 1.389 . S
C472 C473 1.387 . S
C473 H458 0.930 1_556 S
C473 C468 1.390 1_556 S
C473 C472 1.387 . S
H474 C486 0.930 . S
H475 C488 0.930 . S
H476 C489 0.930 . S
H477 C493 0.959 1_556 S
H478 C493 0.959 1_556 S
H479 C493 0.961 . S
H480 C494 0.960 . S
H481 C494 0.961 . S
H482 C494 0.959 . S
H483 C497 0.929 . S
H484 C498 0.931 . S
H485 C500 0.930 . S
C486 H474 0.930 . S
C486 C487 1.399 . S
C486 C491 1.399 . S
C487 C486 1.399 . S
C487 C488 1.376 . S
C488 H475 0.930 . S
C488 C487 1.376 . S
C488 C489 1.388 . S
C489 H476 0.930 . S
C489 C488 1.388 . S
C489 C490 1.390 . S
C490 C489 1.390 . S
C490 C491 1.394 . S
C490 C496 1.465 . S
C491 C486 1.399 . S
C491 C490 1.394 . S
C491 C492 1.516 . S
C492 C491 1.516 . S
C492 C493 1.502 . S
C492 C494 1.561 . S
C492 C495 1.526 . S
C493 H477 0.959 1_554 S
C493 H478 0.959 1_554 S
C493 H479 0.961 . S
C493 C492 1.502 . S
C494 H480 0.960 . S
C494 H481 0.961 . S
C494 H482 0.959 . S
C494 C492 1.561 . S
C495 C492 1.526 . S
C495 C496 1.396 . S
C495 C500 1.390 1_554 S
C496 C490 1.465 . S
C496 C495 1.396 . S
C496 C497 1.399 . S
C497 H483 0.929 . S
C497 C496 1.399 . S
C497 C498 1.385 1_554 S
C498 H484 0.931 . S
C498 C497 1.385 1_556 S
C498 C499 1.389 . S
C499 C498 1.389 . S
C499 C500 1.387 . S
C500 H485 0.930 . S
C500 C495 1.390 1_556 S
C500 C499 1.387 . S
H501 C513 0.939 . S
H502 C515 0.930 . S
H503 C516 0.930 . S
H504 C520 0.959 . S
H505 C520 0.959 . S
H506 C520 0.961 . S
H507 C521 0.960 . S
H508 C521 0.961 . S
H509 C521 0.959 . S
H510 C524 0.929 . S
H511 C525 0.931 . S
H512 C527 0.929 . S
C513 H501 0.939 . S
C513 C514 1.395 1_455 S
C513 C518 1.396 1_455 S
C514 C513 1.395 1_655 S
C514 C515 1.376 . S
C515 H502 0.930 . S
C515 C514 1.376 . S
C515 C516 1.388 . S
C516 H503 0.930 . S
C516 C515 1.388 . S
C516 C517 1.390 . S
C517 C516 1.390 . S
C517 C518 1.394 . S
C517 C523 1.465 . S
C518 C513 1.396 1_655 S
C518 C517 1.394 . S
C518 C519 1.516 . S
C519 C518 1.516 . S
C519 C520 1.504 1_655 S
C519 C521 1.558 . S
C519 C522 1.526 . S
C520 H504 0.959 . S
C520 H505 0.959 . S
C520 H506 0.961 . S
C520 C519 1.504 1_455 S
C521 H507 0.960 . S
C521 H508 0.961 . S
C521 H509 0.959 . S
C521 C519 1.558 . S
C522 C519 1.526 . S
C522 C523 1.396 . S
C522 C527 1.390 1_655 S
C523 C517 1.465 . S
C523 C522 1.396 . S
C523 C524 1.399 1_554 S
C524 H510 0.929 . S
C524 C523 1.399 1_556 S
C524 C525 1.385 . S
C525 H511 0.931 . S
C525 C524 1.385 . S
C525 C526 1.389 . S
C526 C525 1.389 . S
C526 C527 1.387 1_656 S
C527 H512 0.929 . S
C527 C522 1.390 1_455 S
C527 C526 1.387 1_454 S
H528 C540 0.930 . S
H529 C542 0.930 . S
H530 C543 0.930 . S
H531 C547 0.959 . S
H532 C547 0.959 . S
H533 C547 0.961 . S
H534 C548 0.960 1_556 S
H535 C548 0.962 . S
H536 C548 0.962 1_455 S
H537 C551 0.929 1_455 S
H538 C552 0.931 . S
H539 C554 0.930 . S
C540 H528 0.930 . S
C540 C541 1.399 1_655 S
C540 C545 1.399 . S
C541 C540 1.399 1_455 S
C541 C542 1.376 . S
C542 H529 0.930 . S
C542 C541 1.376 . S
C542 C543 1.388 . S
C543 H530 0.930 . S
C543 C542 1.388 . S
C543 C544 1.390 1_455 S
C544 C543 1.390 1_655 S
C544 C545 1.394 . S
C544 C550 1.465 . S
C545 C540 1.399 . S
C545 C544 1.394 . S
C545 C546 1.516 . S
C546 C545 1.516 . S
C546 C547 1.502 . S
C546 C548 1.561 . S
C546 C549 1.526 . S
C547 H531 0.959 . S
C547 H532 0.959 . S
C547 H533 0.961 . S
C547 C546 1.502 . S
C548 H534 0.960 1_554 S
C548 H535 0.962 . S
C548 H536 0.962 1_655 S
C548 C546 1.561 . S
C549 C546 1.526 . S
C549 C550 1.396 . S
C549 C554 1.390 . S
C550 C544 1.465 . S
C550 C549 1.396 . S
C550 C551 1.399 . S
C551 H537 0.929 1_655 S
C551 C550 1.399 . S
C551 C552 1.385 . S
C552 H538 0.931 . S
C552 C551 1.385 . S
C552 C553 1.389 . S
C553 C552 1.389 . S
C553 C554 1.387 . S
C554 H539 0.930 . S
C554 C549 1.390 . S
C554 C553 1.387 . S
H555 C567 0.930 . S
H556 C569 0.930 . S
H557 C570 0.930 . S
H558 C574 0.959 . S
H559 C574 0.959 . S
H560 C574 0.961 . S
H561 C575 0.960 1_556 S
H562 C575 0.962 . S
H563 C575 0.961 1_545 S
H564 C578 0.929 1_545 S
H565 C579 0.931 . S
H566 C581 0.930 . S
C567 H555 0.930 . S
C567 C568 1.399 1_565 S
C567 C572 1.399 . S
C568 C567 1.399 1_545 S
C568 C569 1.376 . S
C569 H556 0.930 . S
C569 C568 1.376 . S
C569 C570 1.388 . S
C570 H557 0.930 . S
C570 C569 1.388 . S
C570 C571 1.390 1_545 S
C571 C570 1.390 1_565 S
C571 C572 1.394 . S
C571 C577 1.465 . S
C572 C567 1.399 . S
C572 C571 1.394 . S
C572 C573 1.516 . S
C573 C572 1.516 . S
C573 C574 1.502 . S
C573 C575 1.561 . S
C573 C576 1.526 . S
C574 H558 0.959 . S
C574 H559 0.959 . S
C574 H560 0.961 . S
C574 C573 1.502 . S
C575 H561 0.960 1_554 S
C575 H562 0.962 . S
C575 H563 0.961 1_565 S
C575 C573 1.561 . S
C576 C573 1.526 . S
C576 C577 1.396 . S
C576 C581 1.390 . S
C577 C571 1.465 . S
C577 C576 1.396 . S
C577 C578 1.399 . S
C578 H564 0.929 1_565 S
C578 C577 1.399 . S
C578 C579 1.385 . S
C579 H565 0.931 . S
C579 C578 1.385 . S
C579 C580 1.389 . S
C580 C579 1.389 . S
C580 C581 1.387 . S
C581 H566 0.930 . S
C581 C576 1.390 . S
C581 C580 1.387 . S
H582 C594 0.930 . S
H583 C596 0.930 1_556 S
H584 C597 0.930 1_556 S
H585 C601 0.959 . S
H586 C601 0.959 . S
H587 C601 0.961 . S
H588 C602 0.960 . S
H589 C602 0.961 . S
H590 C602 0.959 . S
H591 C605 0.929 . S
H592 C606 0.931 . S
H593 C608 0.930 . S
C594 H582 0.930 . S
C594 C595 1.399 . S
C594 C599 1.399 . S
C595 C594 1.399 . S
C595 C596 1.376 . S
C596 H583 0.930 1_554 S
C596 C595 1.376 . S
C596 C597 1.388 . S
C597 H584 0.930 1_554 S
C597 C596 1.388 . S
C597 C598 1.390 . S
C598 C597 1.390 . S
C598 C599 1.394 . S
C598 C604 1.465 . S
C599 C594 1.399 . S
C599 C598 1.394 . S
C599 C600 1.516 . S
C600 C599 1.516 . S
C600 C601 1.502 . S
C600 C602 1.561 . S
C600 C603 1.526 . S
C601 H585 0.959 . S
C601 H586 0.959 . S
C601 H587 0.961 . S
C601 C600 1.502 . S
C602 H588 0.960 . S
C602 H589 0.961 . S
C602 H590 0.959 . S
C602 C600 1.561 . S
C603 C600 1.526 . S
C603 C604 1.396 . S
C603 C608 1.390 . S
C604 C598 1.465 . S
C604 C603 1.396 . S
C604 C605 1.399 . S
C605 H591 0.929 . S
C605 C604 1.399 . S
C605 C606 1.385 . S
C606 H592 0.931 . S
C606 C605 1.385 . S
C606 C607 1.389 . S
C607 C606 1.389 . S
C607 C608 1.387 . S
C608 H593 0.930 . S
C608 C603 1.390 . S
C608 C607 1.387 . S
H609 C621 0.930 . S
H610 C623 0.930 . S
H611 C624 0.930 . S
H612 C628 0.959 . S
H613 C628 0.959 . S
H614 C628 0.961 . S
H615 C629 0.960 . S
H616 C629 0.961 . S
H617 C629 0.959 . S
H618 C632 0.929 . S
H619 C633 0.931 . S
H620 C635 0.930 . S
C621 H609 0.930 . S
C621 C622 1.399 . S
C621 C626 1.399 . S
C622 C621 1.399 . S
C622 C623 1.376 . S
C623 H610 0.930 . S
C623 C622 1.376 . S
C623 C624 1.388 . S
C624 H611 0.930 . S
C624 C623 1.388 . S
C624 C625 1.390 . S
C625 C624 1.390 . S
C625 C626 1.394 . S
C625 C631 1.465 . S
C626 C621 1.399 . S
C626 C625 1.394 . S
C626 C627 1.516 . S
C627 C626 1.516 . S
C627 C628 1.502 . S
C627 C629 1.561 . S
C627 C630 1.526 . S
C628 H612 0.959 . S
C628 H613 0.959 . S
C628 H614 0.961 . S
C628 C627 1.502 . S
C629 H615 0.960 . S
C629 H616 0.961 . S
C629 H617 0.959 . S
C629 C627 1.561 . S
C630 C627 1.526 . S
C630 C631 1.396 . S
C630 C635 1.390 . S
C631 C625 1.465 . S
C631 C630 1.396 . S
C631 C632 1.399 . S
C632 H618 0.929 . S
C632 C631 1.399 . S
C632 C633 1.385 . S
C633 H619 0.931 . S
C633 C632 1.385 . S
C633 C634 1.389 . S
C634 C633 1.389 . S
C634 C635 1.387 . S
C635 H620 0.930 . S
C635 C630 1.390 . S
C635 C634 1.387 . S
H636 C648 0.930 . S
H637 C650 0.930 . S
H638 C651 0.930 . S
H639 C655 0.959 . S
H640 C655 0.959 1_556 S
H641 C655 0.961 . S
H642 C656 0.960 . S
H643 C656 0.961 . S
H644 C656 0.959 . S
H645 C659 0.929 . S
H646 C660 0.931 . S
H647 C662 0.930 . S
C648 H636 0.930 . S
C648 C649 1.399 . S
C648 C653 1.399 1_655 S
C649 C648 1.399 . S
C649 C650 1.376 1_655 S
C650 H637 0.930 . S
C650 C649 1.376 1_455 S
C650 C651 1.388 . S
C651 H638 0.930 . S
C651 C650 1.388 . S
C651 C652 1.390 . S
C652 C651 1.390 . S
C652 C653 1.394 . S
C652 C658 1.465 . S
C653 C648 1.399 1_455 S
C653 C652 1.394 . S
C653 C654 1.516 . S
C654 C653 1.516 . S
C654 C655 1.502 . S
C654 C656 1.561 1_455 S
C654 C657 1.526 . S
C655 H639 0.959 . S
C655 H640 0.959 1_554 S
C655 H641 0.961 . S
C655 C654 1.502 . S
C656 H642 0.960 . S
C656 H643 0.961 . S
C656 H644 0.959 . S
C656 C654 1.561 1_655 S
C657 C654 1.526 . S
C657 C658 1.396 . S
C657 C662 1.390 . S
C658 C652 1.465 . S
C658 C657 1.396 . S
C658 C659 1.399 . S
C659 H645 0.929 . S
C659 C658 1.399 . S
C659 C660 1.385 . S
C660 H646 0.931 . S
C660 C659 1.385 . S
C660 C661 1.389 . S
C661 C660 1.389 . S
C661 C662 1.387 . S
C662 H647 0.930 . S
C662 C657 1.390 . S
C662 C661 1.387 . S
H663 C675 0.930 . S
H664 C677 0.930 . S
H665 C678 0.930 . S
H666 C682 0.959 1_545 S
H667 C682 0.958 1_556 S
H668 C682 0.961 . S
H669 C683 0.960 . S
H670 C683 0.961 . S
H671 C683 0.959 . S
H672 C686 0.929 . S
H673 C687 0.931 . S
H674 C689 0.930 . S
C675 H663 0.930 . S
C675 C676 1.402 . S
C675 C680 1.399 . S
C676 C675 1.402 . S
C676 C677 1.371 1_565 S
C677 H664 0.930 . S
C677 C676 1.371 1_545 S
C677 C678 1.388 . S
C678 H665 0.930 . S
C678 C677 1.388 . S
C678 C679 1.390 . S
C679 C678 1.390 . S
C679 C680 1.395 1_545 S
C679 C685 1.465 . S
C680 C675 1.399 . S
C680 C679 1.395 1_565 S
C680 C681 1.516 . S
C681 C680 1.516 . S
C681 C682 1.502 . S
C681 C683 1.561 . S
C681 C684 1.526 1_565 S
C682 H666 0.959 1_565 S
C682 H667 0.958 1_554 S
C682 H668 0.961 . S
C682 C681 1.502 . S
C683 H669 0.960 . S
C683 H670 0.961 . S
C683 H671 0.959 . S
C683 C681 1.561 . S
C684 C681 1.526 1_545 S
C684 C685 1.396 . S
C684 C689 1.390 . S
C685 C679 1.465 . S
C685 C684 1.396 . S
C685 C686 1.399 . S
C686 H672 0.929 . S
C686 C685 1.399 . S
C686 C687 1.385 . S
C687 H673 0.931 . S
C687 C686 1.385 . S
C687 C688 1.389 . S
C688 C687 1.389 . S
C688 C689 1.387 . S
C689 H674 0.930 . S
C689 C684 1.390 . S
C689 C688 1.387 . S
H690 C702 0.930 . S
H691 C704 0.930 . S
H692 C705 0.930 . S
H693 C709 0.959 . S
H694 C709 0.959 . S
H695 C709 0.961 . S
H696 C710 0.960 . S
H697 C710 0.961 . S
H698 C710 0.959 . S
H699 C713 0.929 . S
H700 C714 0.931 . S
H701 C716 0.930 . S
C702 H690 0.930 . S
C702 C703 1.399 . S
C702 C707 1.399 . S
C703 C702 1.399 . S
C703 C704 1.376 . S
C704 H691 0.930 . S
C704 C703 1.376 . S
C704 C705 1.388 . S
C705 H692 0.930 . S
C705 C704 1.388 . S
C705 C706 1.390 . S
C706 C705 1.390 . S
C706 C707 1.394 . S
C706 C712 1.465 . S
C707 C702 1.399 . S
C707 C706 1.394 . S
C707 C708 1.516 . S
C708 C707 1.516 . S
C708 C709 1.502 . S
C708 C710 1.561 . S
C708 C711 1.526 . S
C709 H693 0.959 . S
C709 H694 0.959 . S
C709 H695 0.961 . S
C709 C708 1.502 . S
C710 H696 0.960 . S
C710 H697 0.961 . S
C710 H698 0.959 . S
C710 C708 1.561 . S
C711 C708 1.526 . S
C711 C712 1.396 . S
C711 C716 1.390 . S
C712 C706 1.465 . S
C712 C711 1.396 . S
C712 C713 1.399 . S
C713 H699 0.929 . S
C713 C712 1.399 . S
C713 C714 1.385 . S
C714 H700 0.931 . S
C714 C713 1.385 . S
C714 C715 1.389 . S
C715 C714 1.389 . S
C715 C716 1.387 . S
C716 H701 0.930 . S
C716 C711 1.390 . S
C716 C715 1.387 . S
H717 C729 0.930 . S
H718 C731 0.930 . S
H719 C732 0.930 . S
H720 C736 0.959 . S
H721 C736 0.959 . S
H722 C736 0.961 . S
H723 C737 0.960 . S
H724 C737 0.961 1_556 S
H725 C737 0.959 . S
H726 C740 0.929 . S
H727 C741 0.931 . S
H728 C743 0.930 . S
C729 H717 0.930 . S
C729 C730 1.399 . S
C729 C734 1.399 . S
C730 C729 1.399 . S
C730 C731 1.376 . S
C731 H718 0.930 . S
C731 C730 1.376 . S
C731 C732 1.388 . S
C732 H719 0.930 . S
C732 C731 1.388 . S
C732 C733 1.390 . S
C733 C732 1.390 . S
C733 C734 1.394 . S
C733 C739 1.465 . S
C734 C729 1.399 . S
C734 C733 1.394 . S
C734 C735 1.516 . S
C735 C734 1.516 . S
C735 C736 1.502 . S
C735 C737 1.561 . S
C735 C738 1.526 . S
C736 H720 0.959 . S
C736 H721 0.959 . S
C736 H722 0.961 . S
C736 C735 1.502 . S
C737 H723 0.960 . S
C737 H724 0.961 1_554 S
C737 H725 0.959 . S
C737 C735 1.561 . S
C738 C735 1.526 . S
C738 C739 1.396 . S
C738 C743 1.390 . S
C739 C733 1.465 . S
C739 C738 1.396 . S
C739 C740 1.399 . S
C740 H726 0.929 . S
C740 C739 1.399 . S
C740 C741 1.385 . S
C741 H727 0.931 . S
C741 C740 1.385 . S
C741 C742 1.389 . S
C742 C741 1.389 . S
C742 C743 1.387 . S
C743 H728 0.930 . S
C743 C738 1.390 . S
C743 C742 1.387 . S
H744 C756 0.930 . S
H745 C758 0.930 . S
H746 C759 0.930 . S
H747 C763 0.959 . S
H748 C763 0.959 1_554 S
H749 C763 0.961 1_554 S
H750 C764 0.960 . S
H751 C764 0.967 . S
H752 C764 0.959 1_556 S
H753 C767 0.929 . S
H754 C768 0.931 . S
H755 C770 0.930 . S
C756 H744 0.930 . S
C756 C757 1.403 . S
C756 C761 1.399 . S
C757 C756 1.403 . S
C757 C758 1.372 1_455 S
C758 H745 0.930 . S
C758 C757 1.372 1_655 S
C758 C759 1.388 . S
C759 H746 0.930 . S
C759 C758 1.388 . S
C759 C760 1.390 . S
C760 C759 1.390 . S
C760 C761 1.394 1_655 S
C760 C766 1.465 1_655 S
C761 C756 1.399 . S
C761 C760 1.394 1_455 S
C761 C762 1.516 . S
C762 C761 1.516 . S
C762 C763 1.502 . S
C762 C764 1.561 1_456 S
C762 C765 1.526 . S
C763 H747 0.959 . S
C763 H748 0.959 1_556 S
C763 H749 0.961 1_556 S
C763 C762 1.502 . S
C764 H750 0.960 . S
C764 H751 0.967 . S
C764 H752 0.959 1_554 S
C764 C762 1.561 1_654 S
C765 C762 1.526 . S
C765 C766 1.397 . S
C765 C770 1.390 . S
C766 C760 1.465 1_455 S
C766 C765 1.397 . S
C766 C767 1.398 1_455 S
C767 H753 0.929 . S
C767 C766 1.398 1_655 S
C767 C768 1.385 . S
C768 H754 0.931 . S
C768 C767 1.385 . S
C768 C769 1.389 1_655 S
C769 C768 1.389 1_455 S
C769 C770 1.387 . S
C770 H755 0.930 . S
C770 C765 1.390 . S
C770 C769 1.387 . S
H771 C783 0.930 . S
H772 C785 0.930 . S
H773 C786 0.930 1_554 S
H774 C790 0.959 1_565 S
H775 C790 0.959 . S
H776 C790 0.961 . S
H777 C791 0.960 . S
H778 C791 0.961 . S
H779 C791 0.959 . S
H780 C794 0.929 1_554 S
H781 C795 0.926 1_565 S
H782 C797 0.930 . S
C783 H771 0.930 . S
C783 C784 1.399 . S
C783 C788 1.399 . S
C784 C783 1.399 . S
C784 C785 1.376 1_545 S
C785 H772 0.930 . S
C785 C784 1.376 1_565 S
C785 C786 1.388 . S
C786 H773 0.930 1_556 S
C786 C785 1.388 . S
C786 C787 1.390 1_565 S
C787 C786 1.390 1_545 S
C787 C788 1.394 . S
C787 C793 1.465 . S
C788 C783 1.399 . S
C788 C787 1.394 . S
C788 C789 1.516 . S
C789 C788 1.516 . S
C789 C790 1.502 . S
C789 C791 1.561 . S
C789 C792 1.526 . S
C790 H774 0.959 1_545 S
C790 H775 0.959 . S
C790 H776 0.961 . S
C790 C789 1.502 . S
C791 H777 0.960 . S
C791 H778 0.961 . S
C791 H779 0.959 . S
C791 C789 1.561 . S
C792 C789 1.526 . S
C792 C793 1.396 . S
C792 C797 1.390 . S
C793 C787 1.465 . S
C793 C792 1.396 . S
C793 C794 1.399 1_545 S
C794 H780 0.929 1_556 S
C794 C793 1.399 1_565 S
C794 C795 1.384 1_565 S
C795 H781 0.926 1_545 S
C795 C794 1.384 1_545 S
C795 C796 1.395 . S
C796 C795 1.395 . S
C796 C797 1.387 . S
C797 H782 0.930 . S
C797 C792 1.390 . S
C797 C796 1.387 . S
H798 C810 0.930 . S
H799 C812 0.930 . S
H800 C813 0.930 . S
H801 C817 0.962 . S
H802 C817 0.959 . S
H803 C817 0.961 . S
H804 C818 0.960 1_554 S
H805 C818 0.961 1_554 S
H806 C818 0.959 . S
H807 C821 0.929 . S
H808 C822 0.931 . S
H809 C824 0.930 . S
C810 H798 0.930 . S
C810 C811 1.399 . S
C810 C815 1.399 . S
C811 C810 1.399 . S
C811 C812 1.376 . S
C812 H799 0.930 . S
C812 C811 1.376 . S
C812 C813 1.388 . S
C813 H800 0.930 . S
C813 C812 1.388 . S
C813 C814 1.390 . S
C814 C813 1.390 . S
C814 C815 1.394 . S
C814 C820 1.465 . S
C815 C810 1.399 . S
C815 C814 1.394 . S
C815 C816 1.516 . S
C816 C815 1.516 . S
C816 C817 1.502 1_556 S
C816 C818 1.561 . S
C816 C819 1.526 . S
C817 H801 0.962 . S
C817 H802 0.959 . S
C817 H803 0.961 . S
C817 C816 1.502 1_554 S
C818 H804 0.960 1_556 S
C818 H805 0.961 1_556 S
C818 H806 0.959 . S
C818 C816 1.561 . S
C819 C816 1.526 . S
C819 C820 1.396 . S
C819 C824 1.390 . S
C820 C814 1.465 . S
C820 C819 1.396 . S
C820 C821 1.399 . S
C821 H807 0.929 . S
C821 C820 1.399 . S
C821 C822 1.385 . S
C822 H808 0.931 . S
C822 C821 1.385 . S
C822 C823 1.389 . S
C823 C822 1.389 . S
C823 C824 1.387 . S
C824 H809 0.930 . S
C824 C819 1.390 . S
C824 C823 1.387 . S
H825 C837 0.930 . S
H826 C839 0.930 . S
H827 C840 0.930 . S
H828 C844 0.959 . S
H829 C844 0.959 . S
H830 C844 0.961 . S
H831 C845 0.960 . S
H832 C845 0.961 . S
H833 C845 0.959 . S
H834 C848 0.929 . S
H835 C849 0.931 . S
H836 C851 0.930 . S
C837 H825 0.930 . S
C837 C838 1.399 . S
C837 C842 1.399 . S
C838 C837 1.399 . S
C838 C839 1.376 . S
C839 H826 0.930 . S
C839 C838 1.376 . S
C839 C840 1.388 . S
C840 H827 0.930 . S
C840 C839 1.388 . S
C840 C841 1.390 . S
C841 C840 1.390 . S
C841 C842 1.394 . S
C841 C847 1.465 . S
C842 C837 1.399 . S
C842 C841 1.394 . S
C842 C843 1.516 . S
C843 C842 1.516 . S
C843 C844 1.502 . S
C843 C845 1.561 1_556 S
C843 C846 1.526 . S
C844 H828 0.959 . S
C844 H829 0.959 . S
C844 H830 0.961 . S
C844 C843 1.502 . S
C845 H831 0.960 . S
C845 H832 0.961 . S
C845 H833 0.959 . S
C845 C843 1.561 1_554 S
C846 C843 1.526 . S
C846 C847 1.396 . S
C846 C851 1.390 . S
C847 C841 1.465 . S
C847 C846 1.396 . S
C847 C848 1.399 . S
C848 H834 0.929 . S
C848 C847 1.399 . S
C848 C849 1.385 . S
C849 H835 0.931 . S
C849 C848 1.385 . S
C849 C850 1.389 . S
C850 C849 1.389 . S
C850 C851 1.387 . S
C851 H836 0.930 . S
C851 C846 1.390 . S
C851 C850 1.387 . S
H852 C864 0.930 . S
H853 C866 0.930 . S
H854 C867 0.930 . S
H855 C871 0.959 . S
H856 C871 0.959 . S
H857 C871 0.961 . S
H858 C872 0.960 . S
H859 C872 0.961 . S
H860 C872 0.959 . S
H861 C875 0.929 . S
H862 C876 0.931 . S
H863 C878 0.930 . S
C864 H852 0.930 . S
C864 C865 1.402 . S
C864 C869 1.399 . S
C865 C864 1.402 . S
C865 C866 1.373 1_655 S
C866 H853 0.930 . S
C866 C865 1.373 1_455 S
C866 C867 1.388 . S
C867 H854 0.930 . S
C867 C866 1.388 . S
C867 C868 1.390 . S
C868 C867 1.390 . S
C868 C869 1.394 1_455 S
C868 C874 1.465 . S
C869 C864 1.399 . S
C869 C868 1.394 1_655 S
C869 C870 1.516 . S
C870 C869 1.516 . S
C870 C871 1.502 . S
C870 C872 1.561 . S
C870 C873 1.526 . S
C871 H855 0.959 . S
C871 H856 0.959 . S
C871 H857 0.961 . S
C871 C870 1.502 . S
C872 H858 0.960 . S
C872 H859 0.961 . S
C872 H860 0.959 . S
C872 C870 1.561 . S
C873 C870 1.526 . S
C873 C874 1.396 1_655 S
C873 C878 1.390 . S
C874 C868 1.465 . S
C874 C873 1.396 1_455 S
C874 C875 1.399 . S
C875 H861 0.929 . S
C875 C874 1.399 . S
C875 C876 1.385 . S
C876 H862 0.931 . S
C876 C875 1.385 . S
C876 C877 1.389 1_455 S
C877 C876 1.389 1_655 S
C877 C878 1.387 . S
C878 H863 0.930 . S
C878 C873 1.390 . S
C878 C877 1.387 . S
H879 C891 0.930 . S
H880 C893 0.930 . S
H881 C894 0.930 . S
H882 C898 0.959 . S
H883 C898 0.959 . S
H884 C898 0.961 . S
H885 C899 0.960 . S
H886 C899 0.961 . S
H887 C899 0.959 . S
H888 C902 0.929 . S
H889 C903 0.931 . S
H890 C905 0.930 . S
C891 H879 0.930 . S
C891 C892 1.399 . S
C891 C896 1.399 . S
C892 C891 1.399 . S
C892 C893 1.376 . S
C893 H880 0.930 . S
C893 C892 1.376 . S
C893 C894 1.388 . S
C894 H881 0.930 . S
C894 C893 1.388 . S
C894 C895 1.390 . S
C895 C894 1.390 . S
C895 C896 1.394 . S
C895 C901 1.465 . S
C896 C891 1.399 . S
C896 C895 1.394 . S
C896 C897 1.516 . S
C897 C896 1.516 . S
C897 C898 1.502 1_565 S
C897 C899 1.561 . S
C897 C900 1.526 . S
C898 H882 0.959 . S
C898 H883 0.959 . S
C898 H884 0.961 . S
C898 C897 1.502 1_545 S
C899 H885 0.960 . S
C899 H886 0.961 . S
C899 H887 0.959 . S
C899 C897 1.561 . S
C900 C897 1.526 . S
C900 C901 1.396 . S
C900 C905 1.390 . S
C901 C895 1.465 . S
C901 C900 1.396 . S
C901 C902 1.399 . S
C902 H888 0.929 . S
C902 C901 1.399 . S
C902 C903 1.385 . S
C903 H889 0.931 . S
C903 C902 1.385 . S
C903 C904 1.389 . S
C904 C903 1.389 . S
C904 C905 1.387 . S
C905 H890 0.930 . S
C905 C900 1.390 . S
C905 C904 1.387 . S
H906 C918 0.930 . S
H907 C920 0.930 . S
H908 C921 0.930 . S
H909 C925 0.959 . S
H910 C925 0.959 . S
H911 C925 0.961 . S
H912 C926 0.960 . S
H913 C926 0.961 . S
H914 C926 0.959 . S
H915 C929 0.929 . S
H916 C930 0.931 . S
H917 C932 0.930 . S
C918 H906 0.930 . S
C918 C919 1.399 . S
C918 C923 1.399 . S
C919 C918 1.399 . S
C919 C920 1.376 . S
C920 H907 0.930 . S
C920 C919 1.376 . S
C920 C921 1.388 . S
C921 H908 0.930 . S
C921 C920 1.388 . S
C921 C922 1.390 . S
C922 C921 1.390 . S
C922 C923 1.394 . S
C922 C928 1.465 . S
C923 C918 1.399 . S
C923 C922 1.394 . S
C923 C924 1.516 . S
C924 C923 1.516 . S
C924 C925 1.502 . S
C924 C926 1.561 . S
C924 C927 1.526 . S
C925 H909 0.959 . S
C925 H910 0.959 . S
C925 H911 0.961 . S
C925 C924 1.502 . S
C926 H912 0.960 . S
C926 H913 0.961 . S
C926 H914 0.959 . S
C926 C924 1.561 . S
C927 C924 1.526 . S
C927 C928 1.396 . S
C927 C932 1.390 . S
C928 C922 1.465 . S
C928 C927 1.396 . S
C928 C929 1.399 . S
C929 H915 0.929 . S
C929 C928 1.399 . S
C929 C930 1.385 . S
C930 H916 0.931 . S
C930 C929 1.385 . S
C930 C931 1.389 . S
C931 C930 1.389 . S
C931 C932 1.387 . S
C932 H917 0.930 . S
C932 C927 1.390 . S
C932 C931 1.387 . S
H933 C945 0.930 . S
H934 C947 0.930 . S
H935 C948 0.930 . S
H936 C952 0.959 . S
H937 C952 0.959 . S
H938 C952 0.961 . S
H939 C953 0.960 . S
H940 C953 0.961 . S
H941 C953 0.959 . S
H942 C956 0.929 . S
H943 C957 0.931 . S
H944 C959 0.930 . S
C945 H933 0.930 . S
C945 C946 1.399 . S
C945 C950 1.399 . S
C946 C945 1.399 . S
C946 C947 1.376 . S
C947 H934 0.930 . S
C947 C946 1.376 . S
C947 C948 1.388 . S
C948 H935 0.930 . S
C948 C947 1.388 . S
C948 C949 1.390 . S
C949 C948 1.390 . S
C949 C950 1.394 . S
C949 C955 1.465 . S
C950 C945 1.399 . S
C950 C949 1.394 . S
C950 C951 1.516 . S
C951 C950 1.516 . S
C951 C952 1.502 . S
C951 C953 1.561 . S
C951 C954 1.526 . S
C952 H936 0.959 . S
C952 H937 0.959 . S
C952 H938 0.961 . S
C952 C951 1.502 . S
C953 H939 0.960 . S
C953 H940 0.961 . S
C953 H941 0.959 . S
C953 C951 1.561 . S
C954 C951 1.526 . S
C954 C955 1.396 . S
C954 C959 1.390 . S
C955 C949 1.465 . S
C955 C954 1.396 . S
C955 C956 1.399 . S
C956 H942 0.929 . S
C956 C955 1.399 . S
C956 C957 1.385 . S
C957 H943 0.931 . S
C957 C956 1.385 . S
C957 C958 1.389 . S
C958 C957 1.389 . S
C958 C959 1.387 . S
C959 H944 0.930 . S
C959 C954 1.390 . S
C959 C958 1.387 . S
C325 C125 1.923 1_545 S
C337 C162 1.947 1_545 S
C364 C202 1.958 . S
C352 C144 1.929 . S
C391 C242 1.953 . S
C379 C87 1.925 . S
C418 C282 1.935 . S
C406 C106 1.880 . S
C445 C171 1.956 1_565 S
C433 C49 1.875 . S
C460 C68 1.905 . S
C472 C211 1.936 . S
C487 C11 1.876 . S
C499 C251 1.957 . S
C514 C30 1.888 . S
C526 C291 1.944 1_655 S
C553 C168 0.479 . S
C541 C97 0.676 . S
C580 C208 0.479 . S
C568 C116 0.676 . S
C607 C248 0.579 . S
C595 C135 0.464 . S
C622 C78 0.519 . S
C634 C288 0.506 . S
C649 C21 0.484 . S
C661 C159 0.581 . S
C688 C199 0.615 . S
C676 C40 0.464 . S
C715 C239 0.593 . S
C703 C59 0.593 . S
C730 C2 0.566 . S
C742 C279 0.518 . S
C757 C101 2.081 . S
C769 C163 2.262 . S
C784 C120 2.003 . S
C796 C203 2.273 . S
C823 C243 2.272 . S
C811 C139 2.094 . S
C850 C283 2.257 . S
C838 C82 2.058 . S
C865 C25 2.086 . S
C877 C154 2.258 . S
C904 C194 2.273 . S
C892 C44 2.089 . S
C931 C234 2.279 . S
C919 C63 2.078 . S
C946 C6 2.094 . S
C958 C274 2.265 . S
