# Generated by pormake.
# Topology ftw, (4,12)-cn, num edge types: 1
# Building blocks:
#     Node 0, Type 0, BuildingBlock: MUDLON_clean_linker_0, # of connection points: 4
#     Node 1, Type 0, BuildingBlock: MUDLON_clean_linker_0, # of connection points: 4
#     Node 2, Type 0, BuildingBlock: MUDLON_clean_linker_0, # of connection points: 4
#     Node 3, Type 1, BuildingBlock: QEWDON_clean_sbu_0, # of connection points: 12
#     Edge 4, Type (0, 1), BuildingBlock: FUNLAD_clean_linker_1, # of connection points: 2
#     Edge 5, Type (0, 1), BuildingBlock: FUNLAD_clean_linker_1, # of connection points: 2
#     Edge 6, Type (0, 1), BuildingBlock: FUNLAD_clean_linker_1, # of connection points: 2
#     Edge 7, Type (0, 1), BuildingBlock: FUNLAD_clean_linker_1, # of connection points: 2
#     Edge 8, Type (0, 1), BuildingBlock: FUNLAD_clean_linker_1, # of connection points: 2
#     Edge 9, Type (0, 1), BuildingBlock: FUNLAD_clean_linker_1, # of connection points: 2
#     Edge 10, Type (0, 1), BuildingBlock: FUNLAD_clean_linker_1, # of connection points: 2
#     Edge 11, Type (0, 1), BuildingBlock: FUNLAD_clean_linker_1, # of connection points: 2
#     Edge 12, Type (0, 1), BuildingBlock: FUNLAD_clean_linker_1, # of connection points: 2
#     Edge 13, Type (0, 1), BuildingBlock: FUNLAD_clean_linker_1, # of connection points: 2
#     Edge 14, Type (0, 1), BuildingBlock: FUNLAD_clean_linker_1, # of connection points: 2
#     Edge 15, Type (0, 1), BuildingBlock: FUNLAD_clean_linker_1, # of connection points: 2
# Relax obj value: 0.099
# Max RMSD: 0.252
# Mean RMSD: 0.184
data_MOF--net-ftw--node1-QEWDON_clean_sbu_0--node2-MUDLON_clean_linker_0--edge1-FUNLAD_clean_linker_1
_symmetry_space_group_name_H-M    P1
_symmetry_Int_Tables_number       1
_symmetry_cell_setting            triclinic
loop_
_symmetry_equiv_pos_as_xyz
'x, y, z'
_cell_length_a     29.667145
_cell_length_b     34.198585
_cell_length_c     32.932913
_cell_angle_alpha  89.910957
_cell_angle_beta   90.051949
_cell_angle_gamma 90.145283
loop_
_atom_site_label
_atom_site_type_symbol
_atom_site_fract_x
_atom_site_fract_y
_atom_site_fract_z
_atom_type_partial_charge
H0 H 0.93285 0.66752 0.56485 0.0
N1 N -0.00474 0.64409 0.51185 0.0
H2 H 0.94413 0.70277 0.62841 0.0
H3 H 0.07597 0.6666 0.54408 0.0
H4 H 0.08807 0.70214 0.60774 0.0
H5 H 0.0694 0.66731 0.46899 0.0
H6 H 0.07042 0.70772 0.40762 0.0
H7 H 0.92459 0.672 0.47128 0.0
H8 H 0.92478 0.71246 0.40983 0.0
H9 H 0.92993 0.5906 0.50535 0.0
H10 H 0.07394 0.60283 0.51334 0.0
H11 H 0.93747 0.5195 0.50195 0.0
H12 H 0.0822 0.53174 0.51228 0.0
H13 H 0.95459 0.3168 0.53444 0.0
H14 H 0.94227 0.28278 0.59899 0.0
H15 H 0.08108 0.30484 0.6322 0.0
H16 H 0.09273 0.33836 0.56764 0.0
H17 H 0.0934 0.30553 0.4691 0.0
H18 H 0.08313 0.26762 0.40718 0.0
H19 H 0.94454 0.30609 0.40079 0.0
H20 H 0.95573 0.34419 0.46315 0.0
H21 H 0.96015 0.39145 0.53525 0.0
H22 H 0.95185 0.46232 0.53652 0.0
H23 H 0.07996 0.47464 0.47519 0.0
N24 N 0.03336 0.34996 0.50778 0.0
H25 H 0.08902 0.40364 0.47657 0.0
C26 C 0.00342 0.66418 0.54977 0.0
C27 C 0.96681 0.67501 0.57417 0.0
C28 C 0.97349 0.6956 0.61056 0.0
C29 C 0.0173 0.70604 0.62342 0.0
C30 C 0.05392 0.6948 0.59885 0.0
C31 C 0.04711 0.67429 0.56242 0.0
C32 C -0.00316 0.66671 0.47477 0.0
C33 C 0.03779 0.67714 0.45618 0.0
C34 C 0.03818 0.70056 0.42095 0.0
C35 C -0.00253 0.71404 0.40358 0.0
C36 C 0.95674 0.70293 0.42228 0.0
C37 C 0.95647 0.67971 0.45737 0.0
C38 C 0.00121 0.60213 0.50985 0.0
C39 C 0.96325 0.57779 0.50669 0.0
C40 C 0.96774 0.53694 0.50514 0.0
C41 C 0.01053 0.51906 0.50708 0.0
C42 C 0.04863 0.54385 0.51008 0.0
C43 C 0.04404 0.58479 0.51115 0.0
C44 C 0.0248 0.33002 0.54596 0.0
C45 C 0.98236 0.31419 0.55557 0.0
C46 C 0.97539 0.29473 0.59266 0.0
C47 C 0.01052 0.29042 0.62118 0.0
C48 C 0.05295 0.30673 0.61147 0.0
C49 C 0.05982 0.32621 0.57436 0.0
C50 C 0.02553 0.32779 0.47088 0.0
C51 C 0.06081 0.30572 0.45427 0.0
C52 C 0.05467 0.28388 0.41854 0.0
C53 C 0.01267 0.28344 0.39832 0.0
C54 C 0.9773 0.30558 0.41532 0.0
C55 C 0.98356 0.32745 0.45107 0.0
C56 C 0.02568 0.3919 0.50627 0.0
C57 C 0.98659 0.40931 0.52223 0.0
C58 C 0.98171 0.45023 0.52255 0.0
C59 C 0.01531 0.47503 0.50617 0.0
C60 C 0.0537 0.45717 0.48909 0.0
C61 C 0.05881 0.41634 0.48939 0.0
H62 H 0.50546 0.92446 0.29599 0.0
N63 N 0.52197 0.97035 0.35945 0.0
H64 H 0.43814 0.92326 0.25272 0.0
H65 H 0.44269 0.0109 0.37249 0.0
H66 H 0.37478 0.00828 0.33042 0.0
H67 H 0.52009 0.02975 0.3031 0.0
H68 H 0.5825 0.04937 0.25865 0.0
H69 H 0.60864 0.95026 0.36619 0.0
H70 H 0.67168 0.97188 0.3235 0.0
H71 H 0.53055 0.91509 0.41582 0.0
H72 H 0.51395 0.03912 0.40057 0.0
H73 H 0.53533 0.92331 0.48932 0.0
H74 H 0.51548 0.04786 0.4743 0.0
H75 H 0.50951 0.94169 0.70135 0.0
H76 H 0.44127 0.92782 0.74066 0.0
H77 H 0.38988 0.04232 0.71014 0.0
H78 H 0.45814 0.0558 0.67118 0.0
H79 H 0.56735 0.06241 0.71198 0.0
H80 H 0.63554 0.05551 0.75282 0.0
H81 H 0.65413 0.93889 0.70533 0.0
H82 H 0.58569 0.94652 0.66405 0.0
H83 H 0.50207 0.94426 0.62211 0.0
H84 H 0.49794 0.9354 0.5489 0.0
H85 H 0.56012 0.0488 0.53156 0.0
N86 N 0.53006 0.01032 0.66235 0.0
H87 H 0.56089 0.05834 0.60504 0.0
C88 C 0.47946 0.96738 0.33781 0.0
C89 C 0.47685 0.94246 0.30404 0.0
C90 C 0.43847 0.94184 0.27934 0.0
C91 C 0.40108 0.9652 0.28856 0.0
C92 C 0.40282 0.98934 0.32307 0.0
C93 C 0.44188 0.99087 0.34717 0.0
C94 C 0.55943 0.98787 0.33776 0.0
C95 C 0.55306 0.01715 0.30813 0.0
C96 C 0.58874 0.02852 0.2828 0.0
C97 C 0.63182 0.01236 0.28791 0.0
C98 C 0.63892 0.98523 0.31932 0.0
C99 C 0.60295 0.97282 0.34366 0.0
C100 C 0.52127 0.97631 0.40287 0.0
C101 C 0.52701 0.94407 0.4286 0.0
C102 C 0.52947 0.94893 0.47075 0.0
C103 C 0.52563 0.98631 0.4884 0.0
C104 C 0.5194 0.01865 0.46224 0.0
C105 C 0.51781 0.01376 0.41997 0.0
C106 C 0.48907 7e-05 0.68357 0.0
C107 C 0.48341 0.96366 0.70287 0.0
C108 C 0.44426 0.95568 0.72516 0.0
C109 C 0.40965 0.98353 0.72808 0.0
C110 C 0.415 0.01957 0.70782 0.0
C111 C 0.45429 0.0276 0.68581 0.0
C112 C 0.57144 0.00517 0.68495 0.0
C113 C 0.58621 0.03538 0.71045 0.0
C114 C 0.62507 0.0311 0.7342 0.0
C115 C 0.65007 0.99613 0.73318 0.0
C116 C 0.63552 0.96605 0.70705 0.0
C117 C 0.59647 0.97036 0.68336 0.0
C118 C 0.53124 0.00237 0.61921 0.0
C119 C 0.51464 0.9673 0.60262 0.0
C120 C 0.51271 0.96214 0.56041 0.0
C121 C 0.52834 0.99148 0.53366 0.0
C122 C 0.54653 0.02588 0.55069 0.0
C123 C 0.54762 0.03127 0.59283 0.0
H124 H 0.4799 0.30305 0.11949 0.0
N125 N 0.51796 0.36349 0.08247 0.0
H126 H 0.40462 0.27594 0.10838 0.0
H127 H 0.44954 0.39599 0.03439 0.0
H128 H 0.37522 0.36902 0.02391 0.0
H129 H 0.51089 0.3195 0.0127 0.0
H130 H 0.56957 0.27763 0.98413 0.0
H131 H 0.59923 0.34984 0.11216 0.0
H132 H 0.65861 0.30928 0.08255 0.0
H133 H 0.52987 0.42209 0.13417 0.0
H134 H 0.52982 0.39405 1.0066 0.0
H135 H 0.54377 0.49083 0.11777 0.0
H136 H 0.53998 0.46223 0.98968 0.0
H137 H 0.51017 0.68714 0.06652 0.0
H138 H 0.44085 0.71944 0.08604 0.0
H139 H 0.3719 0.66418 0.98545 0.0
H140 H 0.44233 0.63338 0.96488 0.0
H141 H 0.54937 0.69 0.94193 0.0
H142 H 0.61509 0.73385 0.94358 0.0
H143 H 0.64765 0.69169 0.06388 0.0
H144 H 0.58284 0.64825 0.06188 0.0
H145 H 0.4938 0.60888 0.07227 0.0
H146 H 0.5018 0.54204 0.09346 0.0
H147 H 0.58249 0.51817 0.98686 0.0
N148 N 0.52267 0.6406 0.99936 0.0
H149 H 0.57013 0.585 0.96346 0.0
C150 C 0.47152 0.35115 0.07764 0.0
C151 C 0.45721 0.3177 0.09868 0.0
C152 C 0.41447 0.30207 0.09199 0.0
C153 C 0.38489 0.32003 0.06439 0.0
C154 C 0.3979 0.35453 0.04487 0.0
C155 C 0.44093 0.36984 0.05098 0.0
C156 C 0.55048 0.33701 0.06537 0.0
C157 C 0.54266 0.31687 0.02865 0.0
C158 C 0.57619 0.29328 0.01209 0.0
C159 C 0.61817 0.2905 0.03139 0.0
C160 C 0.62634 0.31132 0.06724 0.0
C161 C 0.59253 0.334 0.08434 0.0
C162 C 0.52781 0.40336 0.07176 0.0
C163 C 0.53268 0.43094 0.10268 0.0
C164 C 0.5404 0.47009 0.09316 0.0
C165 C 0.5423 0.48231 0.05234 0.0
C166 C 0.53949 0.45409 0.02144 0.0
C167 C 0.5331 0.41495 0.03105 0.0
C168 C 0.48185 0.65921 0.01286 0.0
C169 C 0.4805 0.68245 0.04812 0.0
C170 C 0.44057 0.70039 0.05977 0.0
C171 C 0.40136 0.69551 0.03659 0.0
C172 C 0.40194 0.67001 1.00308 0.0
C173 C 0.44205 0.65228 0.99124 0.0
C174 C 0.56184 0.66543 1.00123 0.0
C175 C 0.57114 0.69011 0.96835 0.0
C176 C 0.60837 0.71504 0.9694 0.0
C177 C 0.63706 0.71523 1.00323 0.0
C178 C 0.6272 0.69108 0.03665 0.0
C179 C 0.58995 0.66634 0.03565 0.0
C180 C 0.52989 0.60174 0.01508 0.0
C181 C 0.51275 0.58948 0.05291 0.0
C182 C 0.51824 0.55104 0.06563 0.0
C183 C 0.54235 0.52436 0.04167 0.0
C184 C 0.56243 0.53754 1.00546 0.0
C185 C 0.55563 0.5757 0.99207 0.0
Zn186 Zn 0.07565 0.06596 0.96512 0.0
Zn187 Zn 0.0809 0.06877 0.06571 0.0
O188 O 0.05857 0.03763 0.01712 0.0
H189 H 0.06415 0.01007 0.01368 0.0
C190 C 0.00577 0.11868 0.88833 0.0
O191 O 0.02189 0.08309 0.89102 0.0
Zn192 Zn 0.96836 0.93343 0.08637 0.0
Zn193 Zn 0.97668 0.9454 0.98938 0.0
O194 O -0.00018 0.96591 0.0452 0.0
H195 H 0.00839 0.99217 0.05212 0.0
Zn196 Zn 0.9601 0.09566 0.96691 0.0
O197 O -0.00668 0.09303 0.0219 0.0
Zn198 Zn 0.94783 0.0809 0.06667 0.0
H199 H 0.02063 0.10789 0.02623 0.0
Zn200 Zn 0.06747 0.90103 0.9662 0.0
O201 O 0.03871 0.90286 0.02341 0.0
H202 H 0.04902 0.90119 0.99566 0.0
Zn203 Zn 0.08642 0.91908 0.0643 0.0
C204 C 0.02331 0.88343 0.88593 0.0
O205 O 0.01399 0.92091 0.88727 0.0
O206 O 0.11427 0.11422 0.97635 0.0
O207 O 0.11897 0.11311 0.04406 0.0
O208 O 0.94975 0.89005 0.99278 0.0
O209 O 0.93214 0.89181 0.0585 0.0
O210 O 0.89198 0.09597 0.97766 0.0
O211 O 0.88659 0.09497 0.04557 0.0
C212 C 0.1207 0.99599 0.0992 0.0
O213 O 0.13596 0.89689 0.97268 0.0
O214 O 0.14539 0.90229 0.03986 0.0
O215 O 0.9358 0.97701 0.94868 0.0
C216 C 0.12848 0.1283 1.00967 0.0
O217 O 0.1003 0.03437 0.9158 0.0
C218 C 0.91802 0.00523 0.10703 0.0
O219 O 0.98068 0.13145 0.91677 0.0
C220 C 0.92958 0.87608 0.02357 0.0
O221 O 0.043 0.86759 0.91617 0.0
C222 C 0.00598 0.11178 0.12744 0.0
O223 O 0.1202 0.03328 0.0994 0.0
O224 O 0.09333 0.97758 0.07596 0.0
C225 C 0.86899 0.09708 1.01027 0.0
O226 O 0.92335 0.96867 0.11271 0.0
O227 O 0.94465 0.02351 0.0831 0.0
C228 C 0.04195 0.8891 0.14103 0.0
O229 O 0.96457 0.1112 0.11734 0.0
O230 O 0.03462 0.09541 0.10397 0.0
C231 C 0.16084 0.89632 1.00416 0.0
O232 O 0.0761 0.89134 0.11767 0.0
O233 O 0.00413 0.90456 0.1315 0.0
C234 C 0.89942 0.99322 0.96017 0.0
O235 O 0.89048 0.99538 0.99913 0.0
C236 C 0.1358 0.01416 0.9204 0.0
O237 O 0.1532 0.01054 0.95693 0.0
H238 H 0.97045 0.26287 0.34659 0.0
C239 C 0.00406 0.26091 0.35962 0.0
H240 H 0.06826 0.2348 0.35186 0.0
H241 H 0.01299 0.09514 0.23799 0.0
H242 H 0.03208 0.06116 0.30027 0.0
H243 H 0.04744 0.09766 0.3633 0.0
H244 H 0.0437 0.16844 0.36458 0.0
C245 C 0.03472 0.23879 0.33956 0.0
C246 C 0.02395 0.21679 0.30094 0.0
C247 C 0.02671 0.17526 0.30022 0.0
C248 C 0.01797 0.15404 0.26358 0.0
C249 C 0.01988 0.1127 0.26455 0.0
C250 C 0.03065 0.09279 0.30017 0.0
C251 C 0.03932 0.11335 0.33567 0.0
C252 C 0.03724 0.15403 0.33592 0.0
H253 H 0.05662 0.13155 0.17306 0.0
C254 C 0.02106 0.13244 0.16519 0.0
H255 H 0.95697 0.15424 0.18109 0.0
H256 H 0.02164 0.29601 0.28899 0.0
H257 H 0.00314 0.32984 0.2266 0.0
H258 H 0.98569 0.29317 0.16411 0.0
H259 H 0.98718 0.22228 0.1635 0.0
C260 C -0.00774 0.15216 0.18962 0.0
C261 C 0.0066 0.17416 0.22722 0.0
C262 C 0.00459 0.21568 0.22776 0.0
C263 C 0.01378 0.23695 0.26427 0.0
C264 C 0.01351 0.27833 0.26281 0.0
C265 C 0.00327 0.29819 0.22704 0.0
C266 C -0.00651 0.27754 0.19183 0.0
C267 C -0.00574 0.23682 0.19197 0.0
H268 H 0.65892 0.01567 0.22562 0.0
C269 C 0.66754 0.01996 0.25738 0.0
H270 H 0.71789 0.03386 0.29972 0.0
H271 H 0.88507 0.96967 0.20505 0.0
H272 H 0.88817 0.9347 0.26901 0.0
H273 H 0.82706 0.94105 0.31924 0.0
H274 H 0.76306 0.98267 0.30623 0.0
C275 C 0.71013 0.02924 0.26783 0.0
C276 C 0.74831 0.02769 0.23801 0.0
C277 C 0.78564 0.00289 0.24624 0.0
C278 C 0.82018 0.9981 0.21671 0.0
C279 C 0.85731 0.97358 0.22595 0.0
C280 C 0.85966 0.95344 0.26263 0.0
C281 C 0.82533 0.9571 0.29093 0.0
C282 C 0.78873 0.9814 0.28303 0.0
H283 H 0.88446 0.05619 0.13651 0.0
C284 C 0.88166 0.02518 0.12985 0.0
H285 H 0.84549 0.97264 0.13802 0.0
H286 H 0.68825 0.08464 0.21569 0.0
H287 H 0.68189 0.11484 0.14912 0.0
H288 H 0.73581 0.09877 0.09468 0.0
H289 H 0.79889 0.05547 0.10752 0.0
C290 C 0.84749 0.00362 0.14525 0.0
C291 C 0.81678 0.01672 0.1783 0.0
C292 C 0.78031 0.04224 0.17037 0.0
C293 C 0.74698 0.04889 0.20079 0.0
C294 C 0.71265 0.07652 0.19286 0.0
C295 C 0.70893 0.09438 0.15494 0.0
C296 C 0.73958 0.08569 0.12441 0.0
C297 C 0.77541 0.06051 0.13207 0.0
H298 H 0.96179 0.74524 0.35388 0.0
C299 C -0.00487 0.73914 0.36607 0.0
H300 H 0.06461 0.75157 0.35832 0.0
H301 H 0.9814 0.79143 0.17424 0.0
H302 H 0.9607 0.72286 0.17106 0.0
H303 H 0.97079 0.67976 0.23045 0.0
H304 H 0.00106 0.70494 0.29353 0.0
C305 C 0.03078 0.75506 0.34646 0.0
C306 C 0.02522 0.78077 0.3096 0.0
C307 C 0.0082 0.76544 0.27248 0.0
C308 C 0.00339 0.79017 0.23774 0.0
C309 C 0.98587 0.77403 0.20141 0.0
C310 C 0.97396 0.73469 0.19912 0.0
C311 C 0.97957 0.71043 0.23259 0.0
C312 C -0.00333 0.72539 0.2688 0.0
H313 H 0.08021 0.85702 0.18824 0.0
C314 C 0.04662 0.86656 0.17954 0.0
H315 H 0.97723 0.86332 0.19353 0.0
H316 H 0.05883 0.82016 0.37522 0.0
H317 H 0.08047 0.88853 0.37779 0.0
H318 H 0.07293 0.93086 0.31749 0.0
H319 H 0.04373 0.9051 0.25413 0.0
C320 C 0.01127 0.85576 0.20279 0.0
C321 C 0.01682 0.83001 0.23945 0.0
C322 C 0.0342 0.84527 0.27633 0.0
C323 C 0.03845 0.82072 0.31128 0.0
C324 C 0.05529 0.8372 0.3477 0.0
C325 C 0.06769 0.87647 0.34966 0.0
C326 C 0.06345 0.90032 0.3157 0.0
C327 C 0.0468 0.8851 0.27945 0.0
H328 H 0.37032 0.96572 0.22748 0.0
C329 C 0.3625 0.96632 0.25972 0.0
H330 H 0.31112 0.96643 0.3037 0.0
H331 H 0.15703 0.04112 0.1974 0.0
H332 H 0.1601 0.08362 0.25615 0.0
H333 H 0.21907 0.07527 0.30824 0.0
H334 H 0.27474 0.02407 0.30235 0.0
C335 C 0.31899 0.96665 0.2715 0.0
C336 C 0.28097 0.96964 0.24141 0.0
C337 C 0.249 0.00025 0.24501 0.0
C338 C 0.21588 0.00596 0.21418 0.0
C339 C 0.18375 0.03619 0.21919 0.0
C340 C 0.18494 0.0607 0.2529 0.0
C341 C 0.21806 0.05592 0.28227 0.0
C342 C 0.24982 0.02622 0.27851 0.0
H343 H 0.14565 0.94555 0.13605 0.0
C344 C 0.15261 0.97548 0.12693 0.0
H345 H 0.19382 0.02524 0.13352 0.0
H346 H 0.32637 0.90074 0.23136 0.0
H347 H 0.32481 0.85916 0.17182 0.0
H348 H 0.27567 0.87463 0.11403 0.0
H349 H 0.22521 0.93073 0.11606 0.0
C350 C 0.18789 0.99524 0.14317 0.0
C351 C 0.21557 0.98215 0.17883 0.0
C352 C 0.2459 0.95022 0.17632 0.0
C353 C 0.27721 0.94302 0.20844 0.0
C354 C 0.30434 0.90909 0.20666 0.0
C355 C 0.30339 0.88472 0.1729 0.0
C356 C 0.27532 0.89332 0.14039 0.0
C357 C 0.24664 0.92553 0.14197 0.0
H358 H 0.06155 0.72961 0.67221 0.0
C359 C 0.02666 0.72778 0.66224 0.0
H360 H 0.95986 0.74458 0.67694 0.0
H361 H 0.98498 0.76726 0.86474 0.0
H362 H 0.94353 0.70611 0.86308 0.0
H363 H 0.93077 0.6714 0.79849 0.0
H364 H 0.95914 0.6977 0.73503 0.0
C365 C -0.00485 0.74568 0.68531 0.0
C366 C 0.00635 0.7657 0.72472 0.0
C367 C -0.01004 0.74993 0.76181 0.0
C368 C -0.00207 0.76972 0.7993 0.0
C369 C 0.98047 0.75331 0.83555 0.0
C370 C 0.95652 0.71823 0.83504 0.0
C371 C 0.94927 0.69872 0.79866 0.0
C372 C 0.96566 0.71422 0.76242 0.0
H373 H -0.00663 0.87592 0.82495 0.0
C374 C 0.01348 0.86135 0.84804 0.0
H375 H 0.05063 0.81069 0.86265 0.0
H376 H 0.03986 0.8061 0.65956 0.0
H377 H 0.08454 0.8655 0.66156 0.0
H378 H 0.10326 0.89697 0.72678 0.0
H379 H 0.07648 0.86984 0.79032 0.0
C380 C 0.0308 0.82581 0.83977 0.0
C381 C 0.0225 0.80538 0.80001 0.0
C382 C 0.04002 0.82066 0.76304 0.0
C383 C 0.0311 0.80134 0.7254 0.0
C384 C 0.04694 0.81863 0.68901 0.0
C385 C 0.07248 0.85286 0.6897 0.0
C386 C 0.08287 0.87067 0.72641 0.0
C387 C 0.06698 0.8549 0.7627 0.0
H388 H 0.37592 0.9551 0.78041 0.0
C389 C 0.3708 0.97568 0.75563 0.0
H390 H 0.32385 0.01424 0.72822 0.0
H391 H 0.17487 0.92879 0.8448 0.0
H392 H 0.1705 0.88209 0.78934 0.0
H393 H 0.22414 0.88531 0.73221 0.0
H394 H 0.28277 0.9352 0.7302 0.0
C395 C 0.33088 0.99414 0.75293 0.0
C396 C 0.29765 0.99207 0.78675 0.0
C397 C 0.26362 0.96288 0.78741 0.0
C398 C 0.23235 0.96126 0.82021 0.0
C399 C 0.19907 0.93155 0.82039 0.0
C400 C 0.19627 0.90456 0.78882 0.0
C401 C 0.22653 0.90635 0.75665 0.0
C402 C 0.25998 0.93506 0.75584 0.0
H403 H 0.14856 0.01027 0.85447 0.0
C404 C 0.16169 0.00226 0.88417 0.0
H405 H 0.21776 0.98116 0.91687 0.0
H406 H 0.35706 0.05316 0.79352 0.0
H407 H 0.35994 0.10097 0.84771 0.0
H408 H 0.30595 0.09815 0.90456 0.0
H409 H 0.24878 0.04755 0.90756 0.0
C410 C 0.20352 0.98753 0.88717 0.0
C411 C 0.23516 0.98893 0.85212 0.0
C412 C 0.26877 0.01851 0.85106 0.0
C413 C 0.29985 0.02018 0.81827 0.0
C414 C 0.33267 0.05038 0.81776 0.0
C415 C 0.33469 0.07808 0.84866 0.0
C416 C 0.30432 0.07648 0.88067 0.0
C417 C 0.2717 0.04716 0.88203 0.0
H418 H 0.96638 0.25979 0.66566 0.0
C419 C 0.00101 0.2689 0.66022 0.0
H420 H 0.06693 0.26817 0.68526 0.0
H421 H 0.01892 0.2406 0.86853 0.0
H422 H 0.04397 0.30809 0.86973 0.0
H423 H 0.05776 0.34422 0.80607 0.0
H424 H 0.04692 0.31302 0.74071 0.0
C425 C 0.03209 0.25924 0.68865 0.0
C426 C 0.02019 0.23766 0.72715 0.0
C427 C 0.02601 0.25628 0.76534 0.0
C428 C 0.01723 0.23556 0.80223 0.0
C429 C 0.02434 0.25498 0.83966 0.0
C430 C 0.03884 0.29373 0.84081 0.0
C431 C 0.04668 0.31406 0.80496 0.0
C432 C 0.04042 0.29573 0.76763 0.0
H433 H 0.04119 0.13085 0.83071 0.0
C434 C 0.0157 0.14213 0.85125 0.0
H435 H 0.96762 0.1865 0.86082 0.0
H436 H 0.0102 0.19106 0.6602 0.0
H437 H 0.98138 0.12478 0.65879 0.0
H438 H 0.95894 0.09126 0.722 0.0
H439 H 0.96638 0.1234 0.78708 0.0
C440 C -0.0071 0.17465 0.84044 0.0
C441 C 0.00212 0.19612 0.80127 0.0
C442 C -0.005 0.17782 0.763 0.0
C443 C 0.00533 0.19812 0.72614 0.0
C444 C 0.00098 0.17788 0.68887 0.0
C445 C 0.98471 0.13967 0.68763 0.0
C446 C 0.97228 0.12073 0.72323 0.0
C447 C 0.97715 0.13945 0.76049 0.0
H448 H 0.7152 0.96773 0.74853 0.0
C449 C 0.69177 0.99031 0.7581 0.0
H450 H 0.67811 0.03256 0.80337 0.0
H451 H 0.82755 0.92172 0.89981 0.0
H452 H 0.77318 0.86909 0.89312 0.0
H453 H 0.704 0.87778 0.85266 0.0
H454 H 0.68878 0.93899 0.81839 0.0
C455 C 0.70097 0.01019 0.79257 0.0
C456 C 0.74324 0.00399 0.81675 0.0
C457 C 0.75133 0.96803 0.83718 0.0
C458 C 0.79086 0.96328 0.8614 0.0
C459 C 0.79814 0.927 0.88116 0.0
C460 C 0.76717 0.89652 0.87766 0.0
C461 C 0.72822 0.90142 0.85484 0.0
C462 C 0.72009 0.93671 0.83499 0.0
H463 H 0.83642 0.02248 0.9413 0.0
C464 C 0.8642 0.00464 0.93049 0.0
H465 H 0.88825 0.96955 0.88251 0.0
H466 H 0.73895 0.07646 0.78163 0.0
H467 H 0.79286 0.12935 0.78948 0.0
H468 H 0.86043 0.12131 0.83237 0.0
H469 H 0.87458 0.06024 0.86767 0.0
C470 C 0.86234 0.98967 0.89271 0.0
C471 C 0.82162 0.99479 0.86637 0.0
C472 C 0.81352 0.03071 0.84614 0.0
C473 C 0.77442 0.0353 0.82135 0.0
C474 C 0.76774 0.07141 0.80112 0.0
C475 C 0.79854 0.10198 0.80522 0.0
C476 C 0.83657 0.09748 0.82939 0.0
C477 C 0.8442 0.06231 0.84961 0.0
H478 H 0.31178 0.32279 0.05168 0.0
C479 C 0.34024 0.30319 0.0558 0.0
H480 H 0.36286 0.24471 0.05522 0.0
H481 H 0.18183 0.16871 0.11137 0.0
H482 H 0.22721 0.16189 0.17184 0.0
H483 H 0.30102 0.19479 0.17747 0.0
H484 H 0.32998 0.23426 0.12221 0.0
C485 C 0.3345 0.26454 0.05196 0.0
C486 C 0.28894 0.24734 0.04876 0.0
C487 C 0.272 0.2253 0.08184 0.0
C488 C 0.22908 0.20721 0.07894 0.0
C489 C 0.21378 0.18392 0.1119 0.0
C490 C 0.23958 0.17963 0.14695 0.0
C491 C 0.28114 0.19808 0.1501 0.0
C492 C 0.29737 0.22063 0.11805 0.0
H493 H 0.18558 0.16062 0.98406 0.0
C494 C 0.16058 0.16065 1.00819 0.0
H495 H 0.13665 0.18729 0.0614 0.0
H496 H 0.31296 0.28596 0.97886 0.0
H497 H 0.2657 0.2963 0.91963 0.0
H498 H 0.188 0.2704 0.91738 0.0
H499 H 0.15765 0.2331 0.97402 0.0
C500 C 0.1622 0.18741 0.03776 0.0
C501 C 0.20307 0.21182 0.04309 0.0
C502 C 0.21888 0.23597 1.01102 0.0
C503 C 0.2626 0.25272 0.01328 0.0
C504 C 0.27922 0.27392 0.97945 0.0
C505 C 0.25253 0.27991 0.94517 0.0
C506 C 0.20886 0.2652 0.94383 0.0
C507 C 0.192 0.24357 0.97635 0.0
H508 H 0.36282 0.73635 0.07473 0.0
C509 C 0.36255 0.72084 0.04587 0.0
H510 H 0.33343 0.71938 0.98719 0.0
H511 H 0.19738 0.83709 0.09193 0.0
H512 H 0.17743 0.78061 0.13227 0.0
H513 H 0.2163 0.71763 0.12262 0.0
H514 H 0.27547 0.71102 0.07233 0.0
C515 C 0.3329 0.73191 0.0174 0.0
C516 C 0.3081 0.76889 0.02262 0.0
C517 C 0.27361 0.77206 0.05209 0.0
C518 C 0.25108 0.80821 0.05734 0.0
C519 C 0.21602 0.81051 0.08653 0.0
C520 C 0.20408 0.7782 0.10999 0.0
C521 C 0.226 0.74278 0.1046 0.0
C522 C 0.26015 0.73948 0.07583 0.0
H523 H 0.214 0.86587 0.97113 0.0
C524 C 0.20627 0.88049 0.99961 0.0
H525 H 0.22461 0.88914 0.06037 0.0
H526 H 0.37539 0.77304 0.96525 0.0
H527 H 0.39667 0.8301 0.92605 0.0
H528 H 0.35795 0.89315 0.93595 0.0
H529 H 0.29749 0.89925 0.98529 0.0
C530 C 0.23282 0.87505 0.03195 0.0
C531 C 0.26286 0.8407 0.03257 0.0
C532 C 0.29875 0.83797 1.0045 0.0
C533 C 0.32117 0.80183 0.99916 0.0
C534 C 0.35675 0.7997 0.9705 0.0
C535 C 0.3695 0.83232 0.94783 0.0
C536 C 0.34768 0.86779 0.95338 0.0
C537 C 0.31285 0.87081 0.98152 0.0
H538 H 0.68841 0.27392 0.021 0.0
C539 C 0.65364 0.26465 0.01633 0.0
H540 H 0.61093 0.21615 1.00426 0.0
H541 H 0.79428 0.13822 0.93312 0.0
H542 H 0.75199 0.14549 0.87046 0.0
H543 H 0.67744 0.17734 0.87012 0.0
H544 H 0.6446 0.20202 0.93283 0.0
C545 C 0.64516 0.22723 1.00696 0.0
C546 C 0.68301 0.19934 1.00813 0.0
C547 C 0.70075 0.18422 0.97162 0.0
C548 C 0.74348 0.16575 0.97189 0.0
C549 C 0.76158 0.15205 0.93477 0.0
C550 C 0.73774 0.15616 0.89855 0.0
C551 C 0.69577 0.17416 0.89837 0.0
C552 C 0.67736 0.18824 0.93441 0.0
H553 H 0.7956 0.08816 1.004 0.0
C554 C 0.82248 0.10956 1.00727 0.0
H555 H 0.84151 0.16867 0.01325 0.0
H556 H 0.65251 0.21645 0.08462 0.0
H557 H 0.69487 0.21018 0.1475 0.0
H558 H 0.77189 0.18303 0.14737 0.0
H559 H 0.80628 0.16085 0.08467 0.0
C560 C 0.81416 0.14782 1.00886 0.0
C561 C 0.76787 0.16285 1.00877 0.0
C562 C 0.74905 0.17619 0.04564 0.0
C563 C 0.70569 0.19318 0.04551 0.0
C564 C 0.68631 0.20472 0.08293 0.0
C565 C 0.71012 0.20108 0.11921 0.0
C566 C 0.75345 0.1858 0.11914 0.0
C567 C 0.77283 0.17329 0.0829 0.0
H568 H 0.67449 0.76851 0.98587 0.0
C569 C 0.6764 0.74155 1.00339 0.0
H570 H 0.71809 0.7057 0.0401 0.0
H571 H 0.85049 0.83864 0.95038 0.0
H572 H 0.83411 0.80398 0.88804 0.0
H573 H 0.7817 0.74783 0.88765 0.0
H574 H 0.74453 0.72685 0.94958 0.0
C575 C 0.71465 0.73272 0.02304 0.0
C576 C 0.75215 0.76114 0.0245 0.0
C577 C 0.77577 0.77116 0.98857 0.0
C578 C 0.80821 0.80167 0.98936 0.0
C579 C 0.82793 0.81385 0.95223 0.0
C580 C 0.81839 0.79449 0.91603 0.0
C581 C 0.7887 0.76305 0.91576 0.0
C582 C 0.76742 0.75145 0.95149 0.0
H583 H 0.90737 0.81754 1.00335 0.0
C584 C 0.89702 0.84462 0.01778 0.0
H585 H 0.84471 0.87856 0.04232 0.0
H586 H 0.71195 0.749 0.09844 0.0
H587 H 0.7305 0.78163 0.16161 0.0
H588 H 0.79113 0.83105 0.16433 0.0
H589 H 0.83305 0.84849 0.10395 0.0
C590 C 0.85416 0.85072 0.02884 0.0
C591 C 0.81935 0.81977 0.02682 0.0
C592 C 0.79642 0.80901 0.06296 0.0
C593 C 0.76236 0.7799 0.06167 0.0
C594 C 0.73867 0.77058 0.09781 0.0
C595 C 0.74895 0.78909 0.13431 0.0
C596 C 0.78302 0.81695 0.13583 0.0
C597 C 0.80671 0.82679 0.10077 0.0
loop_
_geom_bond_atom_site_label_1
_geom_bond_atom_site_label_2
_geom_bond_distance
_geom_bond_site_symmetry_2
_ccdc_geom_bond_type
H0 C27 0.929 . S
N1 C26 1.433 . S
N1 C32 1.435 . S
N1 C38 1.423 . S
H2 C28 0.930 1_655 S
H3 C31 0.931 . S
H4 C30 0.929 . S
H5 C33 0.930 . S
H6 C34 0.932 . S
H7 C37 0.929 . S
H8 C36 0.931 . S
H9 C39 0.929 . S
H10 C43 0.932 . S
H11 C40 0.931 . S
H12 C42 0.929 . S
H13 C45 0.929 . S
H14 C46 0.930 1_655 S
H15 C48 0.929 . S
H16 C49 0.931 . S
H17 C51 0.930 . S
H18 C52 0.932 . S
H19 C54 0.931 . S
H20 C55 0.929 . S
H21 C57 0.929 . S
H22 C58 0.931 . S
H23 C60 0.929 . S
N24 C44 1.433 . S
N24 C50 1.435 . S
N24 C56 1.423 . S
H25 C61 0.932 . S
C26 N1 1.433 . S
C26 C27 1.363 1_455 S
C26 C31 1.370 . S
C27 H0 0.929 . S
C27 C26 1.363 1_655 S
C27 C28 1.385 1_655 S
C28 H2 0.930 1_455 S
C28 C27 1.385 1_455 S
C28 C29 1.357 . S
C29 C28 1.357 . S
C29 C30 1.406 . S
C30 H4 0.929 . S
C30 C29 1.406 . S
C30 C31 1.391 . S
C31 H3 0.931 . S
C31 C26 1.370 . S
C31 C30 1.391 . S
C32 N1 1.435 . S
C32 C33 1.358 . S
C32 C37 1.371 1_455 S
C33 H5 0.930 . S
C33 C32 1.358 . S
C33 C34 1.405 . S
C34 H6 0.932 . S
C34 C33 1.405 . S
C34 C35 1.383 . S
C35 C34 1.383 . S
C35 C36 1.393 1_455 S
C36 H8 0.931 . S
C36 C35 1.393 1_655 S
C36 C37 1.382 . S
C37 H7 0.929 . S
C37 C32 1.371 1_655 S
C37 C36 1.382 . S
C38 N1 1.423 . S
C38 C39 1.362 1_455 S
C38 C43 1.388 . S
C39 H9 0.929 . S
C39 C38 1.362 1_655 S
C39 C40 1.376 . S
C40 H11 0.931 . S
C40 C39 1.376 . S
C40 C41 1.396 . S
C41 C40 1.396 . S
C41 C42 1.348 1_655 S
C41 C59 1.472 . S
C42 H12 0.929 . S
C42 C41 1.348 1_455 S
C42 C43 1.443 . S
C43 H10 0.932 . S
C43 C38 1.388 . S
C43 C42 1.443 . S
C44 N24 1.433 . S
C44 C45 1.363 1_455 S
C44 C49 1.370 . S
C45 H13 0.929 . S
C45 C44 1.363 1_655 S
C45 C46 1.385 1_655 S
C46 H14 0.930 1_455 S
C46 C45 1.385 1_455 S
C46 C47 1.357 . S
C47 C46 1.357 . S
C47 C48 1.406 . S
C48 H15 0.929 . S
C48 C47 1.406 . S
C48 C49 1.391 . S
C49 H16 0.931 . S
C49 C44 1.370 . S
C49 C48 1.391 . S
C50 N24 1.435 . S
C50 C51 1.358 . S
C50 C55 1.371 1_455 S
C51 H17 0.930 . S
C51 C50 1.358 . S
C51 C52 1.405 . S
C52 H18 0.932 . S
C52 C51 1.405 . S
C52 C53 1.383 . S
C53 C52 1.383 . S
C53 C54 1.393 1_455 S
C54 H19 0.931 . S
C54 C53 1.393 1_655 S
C54 C55 1.382 . S
C55 H20 0.929 . S
C55 C50 1.371 1_655 S
C55 C54 1.382 . S
C56 N24 1.423 . S
C56 C57 1.362 1_455 S
C56 C61 1.388 . S
C57 H21 0.929 . S
C57 C56 1.362 1_655 S
C57 C58 1.376 . S
C58 H22 0.931 . S
C58 C57 1.376 . S
C58 C59 1.396 . S
C59 C41 1.472 . S
C59 C58 1.396 . S
C59 C60 1.348 1_655 S
C60 H23 0.929 . S
C60 C59 1.348 1_455 S
C60 C61 1.443 . S
C61 H25 0.932 . S
C61 C56 1.388 . S
C61 C60 1.443 . S
H62 C89 0.929 . S
N63 C88 1.433 . S
N63 C94 1.435 . S
N63 C100 1.423 . S
H64 C90 0.930 . S
H65 C93 0.931 . S
H66 C92 0.929 . S
H67 C95 0.930 . S
H68 C96 0.932 . S
H69 C99 0.929 . S
H70 C98 0.931 . S
H71 C101 0.929 . S
H72 C105 0.932 1_545 S
H73 C102 0.931 . S
H74 C104 0.929 1_545 S
H75 C107 0.929 . S
H76 C108 0.930 . S
H77 C110 0.929 . S
H78 C111 0.931 . S
H79 C113 0.930 . S
H80 C114 0.932 . S
H81 C116 0.931 . S
H82 C117 0.929 . S
H83 C119 0.929 . S
H84 C120 0.931 . S
H85 C122 0.929 1_545 S
N86 C106 1.433 . S
N86 C112 1.435 . S
N86 C118 1.423 . S
H87 C123 0.932 1_545 S
C88 N63 1.433 . S
C88 C89 1.363 . S
C88 C93 1.370 1_565 S
C89 H62 0.929 . S
C89 C88 1.363 . S
C89 C90 1.385 . S
C90 H64 0.930 . S
C90 C89 1.385 . S
C90 C91 1.357 . S
C91 C90 1.357 . S
C91 C92 1.406 1_565 S
C92 H66 0.929 . S
C92 C91 1.406 1_545 S
C92 C93 1.391 . S
C93 H65 0.931 . S
C93 C88 1.370 1_545 S
C93 C92 1.391 . S
C94 N63 1.435 . S
C94 C95 1.358 1_565 S
C94 C99 1.371 . S
C95 H67 0.930 . S
C95 C94 1.358 1_545 S
C95 C96 1.405 . S
C96 H68 0.932 . S
C96 C95 1.405 . S
C96 C97 1.376 1_545 S
C97 C96 1.376 1_565 S
C97 C98 1.402 . S
C98 H70 0.931 . S
C98 C97 1.402 . S
C98 C99 1.382 . S
C99 H69 0.929 . S
C99 C94 1.371 . S
C99 C98 1.382 . S
C100 N63 1.423 . S
C100 C101 1.362 . S
C100 C105 1.388 . S
C101 H71 0.929 . S
C101 C100 1.362 . S
C101 C102 1.376 . S
C102 H73 0.931 . S
C102 C101 1.376 . S
C102 C103 1.396 . S
C103 C102 1.396 . S
C103 C104 1.348 . S
C103 C121 1.472 . S
C104 H74 0.929 1_565 S
C104 C103 1.348 . S
C104 C105 1.443 . S
C105 H72 0.932 1_565 S
C105 C100 1.388 . S
C105 C104 1.443 . S
C106 N86 1.433 . S
C106 C107 1.363 . S
C106 C111 1.370 1_565 S
C107 H75 0.929 . S
C107 C106 1.363 . S
C107 C108 1.385 . S
C108 H76 0.930 . S
C108 C107 1.385 . S
C108 C109 1.357 . S
C109 C108 1.357 . S
C109 C110 1.406 1_565 S
C110 H77 0.929 . S
C110 C109 1.406 1_545 S
C110 C111 1.391 . S
C111 H78 0.931 . S
C111 C106 1.370 1_545 S
C111 C110 1.391 . S
C112 N86 1.435 . S
C112 C113 1.358 1_565 S
C112 C117 1.371 . S
C113 H79 0.930 . S
C113 C112 1.358 1_545 S
C113 C114 1.405 . S
C114 H80 0.932 . S
C114 C113 1.405 . S
C114 C115 1.376 1_545 S
C115 C114 1.376 1_565 S
C115 C116 1.402 . S
C116 H81 0.931 . S
C116 C115 1.402 . S
C116 C117 1.382 . S
C117 H82 0.929 . S
C117 C112 1.371 . S
C117 C116 1.382 . S
C118 N86 1.423 . S
C118 C119 1.362 . S
C118 C123 1.388 . S
C119 H83 0.929 . S
C119 C118 1.362 . S
C119 C120 1.376 . S
C120 H84 0.931 . S
C120 C119 1.376 . S
C120 C121 1.396 . S
C121 C103 1.472 . S
C121 C120 1.396 . S
C121 C122 1.348 . S
C122 H85 0.929 1_565 S
C122 C121 1.348 . S
C122 C123 1.443 . S
C123 H87 0.932 1_565 S
C123 C118 1.388 . S
C123 C122 1.443 . S
H124 C151 0.929 . S
N125 C150 1.433 . S
N125 C156 1.435 . S
N125 C162 1.423 . S
H126 C152 0.930 . S
H127 C155 0.919 1_556 S
H128 C154 0.929 . S
H129 C157 0.930 . S
H130 C158 0.932 . S
H131 C161 0.929 . S
H132 C160 0.931 . S
H133 C163 0.929 . S
H134 C167 0.932 1_556 S
H135 C164 0.931 . S
H136 C166 0.929 . S
H137 C169 0.929 . S
H138 C170 0.930 . S
H139 C172 0.929 . S
H140 C173 0.919 1_556 S
H141 C175 0.930 . S
H142 C176 0.932 . S
H143 C178 0.931 . S
H144 C179 0.929 . S
H145 C181 0.929 . S
H146 C182 0.931 . S
H147 C184 0.929 . S
N148 C168 1.433 . S
N148 C174 1.435 . S
N148 C180 1.423 . S
H149 C185 0.932 1_556 S
C150 N125 1.433 . S
C150 C151 1.363 . S
C150 C155 1.386 . S
C151 H124 0.929 . S
C151 C150 1.363 . S
C151 C152 1.385 . S
C152 H126 0.930 . S
C152 C151 1.385 . S
C152 C153 1.357 . S
C153 C152 1.357 . S
C153 C154 1.406 1_554 S
C154 H128 0.929 . S
C154 C153 1.406 1_556 S
C154 C155 1.388 1_556 S
C155 H127 0.919 1_554 S
C155 C150 1.386 . S
C155 C154 1.388 1_554 S
C156 N125 1.435 . S
C156 C157 1.358 1_554 S
C156 C161 1.371 . S
C157 H129 0.930 . S
C157 C156 1.358 1_556 S
C157 C158 1.405 . S
C158 H130 0.932 . S
C158 C157 1.405 . S
C158 C159 1.383 1_556 S
C159 C158 1.383 1_554 S
C159 C160 1.393 . S
C160 H132 0.931 . S
C160 C159 1.393 . S
C160 C161 1.382 . S
C161 H131 0.929 . S
C161 C156 1.371 . S
C161 C160 1.382 . S
C162 N125 1.423 . S
C162 C163 1.362 . S
C162 C167 1.388 . S
C163 H133 0.929 . S
C163 C162 1.362 . S
C163 C164 1.376 . S
C164 H135 0.931 . S
C164 C163 1.376 . S
C164 C165 1.396 . S
C165 C164 1.396 . S
C165 C166 1.348 . S
C165 C183 1.472 . S
C166 H136 0.929 . S
C166 C165 1.348 . S
C166 C167 1.443 . S
C167 H134 0.932 1_554 S
C167 C162 1.388 . S
C167 C166 1.443 . S
C168 N148 1.433 . S
C168 C169 1.363 . S
C168 C173 1.386 . S
C169 H137 0.929 . S
C169 C168 1.363 . S
C169 C170 1.385 . S
C170 H138 0.930 . S
C170 C169 1.385 . S
C170 C171 1.357 . S
C171 C170 1.357 . S
C171 C172 1.406 1_554 S
C172 H139 0.929 . S
C172 C171 1.406 1_556 S
C172 C173 1.388 1_556 S
C173 H140 0.919 1_554 S
C173 C168 1.386 . S
C173 C172 1.388 1_554 S
C174 N148 1.435 . S
C174 C175 1.358 1_554 S
C174 C179 1.371 . S
C175 H141 0.930 . S
C175 C174 1.358 1_556 S
C175 C176 1.405 . S
C176 H142 0.932 . S
C176 C175 1.405 . S
C176 C177 1.383 1_556 S
C177 C176 1.383 1_554 S
C177 C178 1.393 . S
C178 H143 0.931 . S
C178 C177 1.393 . S
C178 C179 1.382 . S
C179 H144 0.929 . S
C179 C174 1.371 . S
C179 C178 1.382 . S
C180 N148 1.423 . S
C180 C181 1.362 . S
C180 C185 1.388 . S
C181 H145 0.929 . S
C181 C180 1.362 . S
C181 C182 1.376 . S
C182 H146 0.931 . S
C182 C181 1.376 . S
C182 C183 1.396 . S
C183 C165 1.472 . S
C183 C182 1.396 . S
C183 C184 1.348 . S
C184 H147 0.929 . S
C184 C183 1.348 . S
C184 C185 1.443 . S
C185 H149 0.932 1_554 S
C185 C180 1.388 . S
C185 C184 1.443 . S
Zn186 O188 1.933 1_556 S
Zn186 O206 1.985 . S
Zn186 O217 1.955 . S
Zn187 O188 1.911 . S
Zn187 O207 1.970 . S
Zn187 O223 1.945 . S
Zn187 O230 1.981 . S
O188 Zn186 1.933 1_554 S
O188 Zn187 1.911 . S
O188 H189 0.841 . S
H189 O188 0.841 . S
C190 O191 1.246 . S
C190 O219 1.276 1_455 S
O191 C190 1.246 . S
Zn192 O194 1.911 . S
Zn192 O209 1.970 . S
Zn192 O226 1.945 . S
Zn192 O233 1.981 1_655 S
Zn193 O194 1.933 1_556 S
Zn193 O208 1.985 . S
Zn193 O215 1.955 . S
O194 Zn192 1.911 . S
O194 Zn193 1.933 1_554 S
O194 H195 0.841 . S
H195 O194 0.841 . S
Zn196 O197 1.933 1_556 S
Zn196 O210 1.985 . S
Zn196 O219 1.955 . S
O197 Zn196 1.933 1_554 S
O197 Zn198 1.911 . S
O197 H199 0.841 1_655 S
Zn198 O197 1.911 . S
Zn198 O211 1.970 . S
Zn198 O227 1.981 . S
Zn198 O229 1.945 . S
H199 O197 0.841 1_455 S
Zn200 O201 1.933 1_556 S
Zn200 O213 1.985 . S
Zn200 O221 1.955 . S
O201 Zn200 1.933 1_554 S
O201 H202 0.841 . S
O201 Zn203 1.911 . S
H202 O201 0.841 . S
Zn203 O201 1.911 . S
Zn203 O214 1.970 . S
Zn203 O224 1.981 . S
Zn203 O232 1.945 . S
C204 O205 1.246 . S
C204 O221 1.276 . S
O205 C204 1.246 . S
O206 Zn186 1.985 . S
O206 C216 1.245 1_556 S
O207 Zn187 1.970 . S
O207 C216 1.263 . S
O208 Zn193 1.985 . S
O208 C220 1.245 1_556 S
O209 Zn192 1.970 . S
O209 C220 1.263 . S
O210 Zn196 1.985 . S
O210 C225 1.245 1_556 S
O211 Zn198 1.970 . S
O211 C225 1.263 . S
C212 O223 1.269 . S
C212 O224 1.241 1_545 S
O213 Zn200 1.985 . S
O213 C231 1.245 1_556 S
O214 Zn203 1.970 . S
O214 C231 1.263 . S
O215 Zn193 1.955 . S
O215 C234 1.276 1_565 S
C216 O206 1.245 1_554 S
C216 O207 1.263 . S
O217 Zn186 1.955 . S
O217 C236 1.276 1_545 S
C218 O226 1.256 1_545 S
C218 O227 1.248 . S
O219 C190 1.276 1_655 S
O219 Zn196 1.955 . S
C220 O208 1.245 1_554 S
C220 O209 1.263 . S
O221 Zn200 1.955 . S
O221 C204 1.276 . S
C222 O229 1.262 1_455 S
C222 O230 1.245 . S
O223 Zn187 1.945 . S
O223 C212 1.269 . S
O224 Zn203 1.981 . S
O224 C212 1.241 1_565 S
C225 O210 1.245 1_554 S
C225 O211 1.263 . S
O226 Zn192 1.945 . S
O226 C218 1.256 1_565 S
O227 Zn198 1.981 . S
O227 C218 1.248 . S
C228 O232 1.262 . S
C228 O233 1.245 . S
O229 Zn198 1.945 . S
O229 C222 1.262 1_655 S
O230 Zn187 1.981 . S
O230 C222 1.245 . S
C231 O213 1.245 1_554 S
C231 O214 1.263 . S
O232 Zn203 1.945 . S
O232 C228 1.262 . S
O233 Zn192 1.981 1_455 S
O233 C228 1.245 . S
C234 O215 1.276 1_545 S
C234 O235 1.246 . S
O235 C234 1.246 . S
C236 O217 1.276 1_565 S
C236 O237 1.246 . S
O237 C236 1.246 . S
H238 C239 0.951 1_655 S
C239 H238 0.951 1_455 S
C239 C245 1.265 . S
H240 C245 0.950 . S
H241 C249 0.949 . S
H242 C250 0.950 . S
H243 C251 0.951 . S
H244 C252 0.951 . S
C245 C239 1.265 . S
C245 H240 0.950 . S
C245 C246 1.478 . S
C246 C245 1.478 . S
C246 C247 1.397 . S
C246 C263 1.394 . S
C247 C246 1.397 . S
C247 C248 1.438 . S
C247 C252 1.429 . S
C248 C247 1.438 . S
C248 C249 1.428 . S
C248 C261 1.394 . S
C249 H241 0.949 . S
C249 C248 1.428 . S
C249 C250 1.345 . S
C250 H242 0.950 . S
C250 C249 1.345 . S
C250 C251 1.424 . S
C251 H243 0.951 . S
C251 C250 1.424 . S
C251 C252 1.347 . S
C252 H244 0.951 . S
C252 C247 1.429 . S
C252 C251 1.347 . S
H253 C254 0.951 . S
C254 H253 0.951 . S
C254 C260 1.265 . S
H255 C260 0.950 1_655 S
H256 C264 0.949 . S
H257 C265 0.950 . S
H258 C266 0.951 . S
H259 C267 0.951 . S
C260 C254 1.265 . S
C260 H255 0.950 1_455 S
C260 C261 1.478 . S
C261 C248 1.394 . S
C261 C260 1.478 . S
C261 C262 1.397 . S
C262 C261 1.397 . S
C262 C263 1.438 . S
C262 C267 1.429 . S
C263 C246 1.394 . S
C263 C262 1.438 . S
C263 C264 1.428 . S
C264 H256 0.949 . S
C264 C263 1.428 . S
C264 C265 1.345 . S
C265 H257 0.950 . S
C265 C264 1.345 . S
C265 C266 1.424 . S
C266 H258 0.951 . S
C266 C265 1.424 . S
C266 C267 1.347 . S
C267 H259 0.951 . S
C267 C262 1.429 . S
C267 C266 1.347 . S
H268 C269 0.949 1_565 S
C269 H268 0.949 1_545 S
C269 C275 1.266 . S
H270 C275 0.950 . S
H271 C279 0.949 . S
H272 C280 0.950 . S
H273 C281 0.951 . S
H274 C282 0.951 . S
C275 C269 1.266 . S
C275 H270 0.950 . S
C275 C276 1.478 . S
C276 C275 1.478 . S
C276 C277 1.397 1_545 S
C276 C293 1.394 . S
C277 C276 1.397 1_565 S
C277 C278 1.438 . S
C277 C282 1.429 . S
C278 C277 1.438 . S
C278 C279 1.428 . S
C278 C291 1.394 1_565 S
C279 H271 0.949 . S
C279 C278 1.428 . S
C279 C280 1.345 . S
C280 H272 0.950 . S
C280 C279 1.345 . S
C280 C281 1.424 . S
C281 H273 0.951 . S
C281 C280 1.424 . S
C281 C282 1.347 . S
C282 H274 0.951 . S
C282 C277 1.429 . S
C282 C281 1.347 . S
H283 C284 0.951 . S
C284 H283 0.951 . S
C284 C290 1.265 . S
H285 C290 0.950 1_565 S
H286 C294 0.949 . S
H287 C295 0.950 . S
H288 C296 0.951 . S
H289 C297 0.951 . S
C290 C284 1.265 . S
C290 H285 0.950 1_545 S
C290 C291 1.478 . S
C291 C278 1.394 1_545 S
C291 C290 1.478 . S
C291 C292 1.397 . S
C292 C291 1.397 . S
C292 C293 1.438 . S
C292 C297 1.429 . S
C293 C276 1.394 . S
C293 C292 1.438 . S
C293 C294 1.428 . S
C294 H286 0.949 . S
C294 C293 1.428 . S
C294 C295 1.345 . S
C295 H287 0.950 . S
C295 C294 1.345 . S
C295 C296 1.424 . S
C296 H288 0.951 . S
C296 C295 1.424 . S
C296 C297 1.347 . S
C297 H289 0.951 . S
C297 C292 1.429 . S
C297 C296 1.347 . S
H298 C299 0.951 . S
C299 H298 0.951 . S
C299 C305 1.265 . S
H300 C305 0.950 . S
H301 C309 0.949 . S
H302 C310 0.950 . S
H303 C311 0.951 . S
H304 C312 0.951 . S
C305 C299 1.265 . S
C305 H300 0.950 . S
C305 C306 1.478 . S
C306 C305 1.478 . S
C306 C307 1.397 . S
C306 C323 1.394 . S
C307 C306 1.397 . S
C307 C308 1.438 . S
C307 C312 1.429 . S
C308 C307 1.438 . S
C308 C309 1.428 1_455 S
C308 C321 1.394 . S
C309 H301 0.949 . S
C309 C308 1.428 1_655 S
C309 C310 1.345 . S
C310 H302 0.950 . S
C310 C309 1.345 . S
C310 C311 1.424 . S
C311 H303 0.951 . S
C311 C310 1.424 . S
C311 C312 1.347 1_655 S
C312 H304 0.951 . S
C312 C307 1.429 . S
C312 C311 1.347 1_455 S
H313 C314 0.951 . S
C314 H313 0.951 . S
C314 C320 1.265 . S
H315 C320 0.950 1_655 S
H316 C324 0.949 . S
H317 C325 0.950 . S
H318 C326 0.951 . S
H319 C327 0.951 . S
C320 C314 1.265 . S
C320 H315 0.950 1_455 S
C320 C321 1.478 . S
C321 C308 1.394 . S
C321 C320 1.478 . S
C321 C322 1.397 . S
C322 C321 1.397 . S
C322 C323 1.438 . S
C322 C327 1.429 . S
C323 C306 1.394 . S
C323 C322 1.438 . S
C323 C324 1.428 . S
C324 H316 0.949 . S
C324 C323 1.428 . S
C324 C325 1.345 . S
C325 H317 0.950 . S
C325 C324 1.345 . S
C325 C326 1.424 . S
C326 H318 0.951 . S
C326 C325 1.424 . S
C326 C327 1.347 . S
C327 H319 0.951 . S
C327 C322 1.429 . S
C327 C326 1.347 . S
H328 C329 0.951 . S
C329 H328 0.951 . S
C329 C335 1.265 1_545 S
H330 C335 0.950 . S
H331 C339 0.949 . S
H332 C340 0.950 . S
H333 C341 0.951 . S
H334 C342 0.951 . S
C335 C329 1.265 1_565 S
C335 H330 0.950 . S
C335 C336 1.478 . S
C336 C335 1.478 . S
C336 C337 1.397 1_565 S
C336 C353 1.394 . S
C337 C336 1.397 1_545 S
C337 C338 1.438 . S
C337 C342 1.429 . S
C338 C337 1.438 . S
C338 C339 1.428 . S
C338 C351 1.394 1_545 S
C339 H331 0.949 . S
C339 C338 1.428 . S
C339 C340 1.345 . S
C340 H332 0.950 . S
C340 C339 1.345 . S
C340 C341 1.424 . S
C341 H333 0.951 . S
C341 C340 1.424 . S
C341 C342 1.347 . S
C342 H334 0.951 . S
C342 C337 1.429 . S
C342 C341 1.347 . S
H343 C344 0.951 . S
C344 H343 0.951 . S
C344 C350 1.265 . S
H345 C350 0.950 . S
H346 C354 0.949 . S
H347 C355 0.950 . S
H348 C356 0.951 . S
H349 C357 0.951 . S
C350 C344 1.265 . S
C350 H345 0.950 . S
C350 C351 1.478 . S
C351 C338 1.394 1_565 S
C351 C350 1.478 . S
C351 C352 1.397 . S
C352 C351 1.397 . S
C352 C353 1.438 . S
C352 C357 1.429 . S
C353 C336 1.394 . S
C353 C352 1.438 . S
C353 C354 1.428 . S
C354 H346 0.949 . S
C354 C353 1.428 . S
C354 C355 1.345 . S
C355 H347 0.950 . S
C355 C354 1.345 . S
C355 C356 1.424 . S
C356 H348 0.951 . S
C356 C355 1.424 . S
C356 C357 1.347 . S
C357 H349 0.951 . S
C357 C352 1.429 . S
C357 C356 1.347 . S
H358 C359 0.951 . S
C359 H358 0.951 . S
C359 C365 1.265 . S
H360 C365 0.950 1_655 S
H361 C369 0.951 . S
H362 C370 0.950 . S
H363 C371 0.951 . S
H364 C372 0.951 . S
C365 C359 1.265 . S
C365 H360 0.950 1_455 S
C365 C366 1.478 . S
C366 C365 1.478 . S
C366 C367 1.397 . S
C366 C383 1.394 . S
C367 C366 1.397 . S
C367 C368 1.438 . S
C367 C372 1.429 1_455 S
C368 C367 1.438 . S
C368 C369 1.431 . S
C368 C381 1.394 . S
C369 H361 0.951 . S
C369 C368 1.431 . S
C369 C370 1.340 1_455 S
C370 H362 0.950 . S
C370 C369 1.340 1_655 S
C370 C371 1.424 . S
C371 H363 0.951 . S
C371 C370 1.424 . S
C371 C372 1.347 . S
C372 H364 0.951 . S
C372 C367 1.429 1_655 S
C372 C371 1.347 . S
H373 C374 0.951 1_655 S
C374 H373 0.951 1_455 S
C374 C380 1.265 . S
H375 C380 0.950 . S
H376 C384 0.949 . S
H377 C385 0.950 . S
H378 C386 0.951 . S
H379 C387 0.951 . S
C380 C374 1.265 . S
C380 H375 0.950 . S
C380 C381 1.478 . S
C381 C368 1.394 . S
C381 C380 1.478 . S
C381 C382 1.397 . S
C382 C381 1.397 . S
C382 C383 1.438 . S
C382 C387 1.429 . S
C383 C366 1.394 . S
C383 C382 1.438 . S
C383 C384 1.428 . S
C384 H376 0.949 . S
C384 C383 1.428 . S
C384 C385 1.345 . S
C385 H377 0.950 . S
C385 C384 1.345 . S
C385 C386 1.424 . S
C386 H378 0.951 . S
C386 C385 1.424 . S
C386 C387 1.347 . S
C387 H379 0.951 . S
C387 C382 1.429 . S
C387 C386 1.347 . S
H388 C389 0.951 . S
C389 H388 0.951 . S
C389 C395 1.265 1_565 S
H390 C395 0.950 . S
H391 C399 0.949 . S
H392 C400 0.950 . S
H393 C401 0.951 . S
H394 C402 0.951 . S
C395 C389 1.265 1_545 S
C395 H390 0.950 . S
C395 C396 1.478 1_545 S
C396 C395 1.478 1_565 S
C396 C397 1.397 . S
C396 C413 1.394 1_565 S
C397 C396 1.397 . S
C397 C398 1.438 . S
C397 C402 1.429 . S
C398 C397 1.438 . S
C398 C399 1.428 . S
C398 C411 1.394 . S
C399 H391 0.949 . S
C399 C398 1.428 . S
C399 C400 1.345 . S
C400 H392 0.950 . S
C400 C399 1.345 . S
C400 C401 1.424 . S
C401 H393 0.951 . S
C401 C400 1.424 . S
C401 C402 1.347 . S
C402 H394 0.951 . S
C402 C397 1.429 . S
C402 C401 1.347 . S
H403 C404 0.951 . S
C404 H403 0.951 . S
C404 C410 1.265 . S
H405 C410 0.950 . S
H406 C414 0.949 . S
H407 C415 0.950 . S
H408 C416 0.951 . S
H409 C417 0.951 . S
C410 C404 1.265 . S
C410 H405 0.950 . S
C410 C411 1.478 . S
C411 C398 1.394 . S
C411 C410 1.478 . S
C411 C412 1.397 1_565 S
C412 C411 1.397 1_545 S
C412 C413 1.438 . S
C412 C417 1.429 . S
C413 C396 1.394 1_545 S
C413 C412 1.438 . S
C413 C414 1.428 . S
C414 H406 0.949 . S
C414 C413 1.428 . S
C414 C415 1.345 . S
C415 H407 0.950 . S
C415 C414 1.345 . S
C415 C416 1.424 . S
C416 H408 0.951 . S
C416 C415 1.424 . S
C416 C417 1.347 . S
C417 H409 0.951 . S
C417 C412 1.429 . S
C417 C416 1.347 . S
H418 C419 0.951 1_655 S
C419 H418 0.951 1_455 S
C419 C425 1.265 . S
H420 C425 0.950 . S
H421 C429 0.949 . S
H422 C430 0.950 . S
H423 C431 0.951 . S
H424 C432 0.951 . S
C425 C419 1.265 . S
C425 H420 0.950 . S
C425 C426 1.478 . S
C426 C425 1.478 . S
C426 C427 1.397 . S
C426 C443 1.394 . S
C427 C426 1.397 . S
C427 C428 1.438 . S
C427 C432 1.429 . S
C428 C427 1.438 . S
C428 C429 1.428 . S
C428 C441 1.394 . S
C429 H421 0.949 . S
C429 C428 1.428 . S
C429 C430 1.345 . S
C430 H422 0.950 . S
C430 C429 1.345 . S
C430 C431 1.424 . S
C431 H423 0.951 . S
C431 C430 1.424 . S
C431 C432 1.347 . S
C432 H424 0.951 . S
C432 C427 1.429 . S
C432 C431 1.347 . S
H433 C434 0.951 . S
C434 H433 0.951 . S
C434 C440 1.265 . S
H435 C440 0.950 1_655 S
H436 C444 0.949 . S
H437 C445 0.950 . S
H438 C446 0.951 . S
H439 C447 0.951 . S
C440 C434 1.265 . S
C440 H435 0.950 1_455 S
C440 C441 1.478 . S
C441 C428 1.394 . S
C441 C440 1.478 . S
C441 C442 1.397 . S
C442 C441 1.397 . S
C442 C443 1.438 . S
C442 C447 1.429 . S
C443 C426 1.394 . S
C443 C442 1.438 . S
C443 C444 1.428 . S
C444 H436 0.949 . S
C444 C443 1.428 . S
C444 C445 1.345 . S
C445 H437 0.950 . S
C445 C444 1.345 . S
C445 C446 1.424 . S
C446 H438 0.951 . S
C446 C445 1.424 . S
C446 C447 1.347 . S
C447 H439 0.951 . S
C447 C442 1.429 . S
C447 C446 1.347 . S
H448 C449 0.951 . S
C449 H448 0.951 . S
C449 C455 1.265 . S
H450 C455 0.949 1_565 S
H451 C459 0.949 . S
H452 C460 0.950 . S
H453 C461 0.951 . S
H454 C462 0.951 . S
C455 C449 1.265 . S
C455 H450 0.949 1_545 S
C455 C456 1.479 . S
C456 C455 1.479 . S
C456 C457 1.397 1_545 S
C456 C473 1.394 . S
C457 C456 1.397 1_565 S
C457 C458 1.438 . S
C457 C462 1.429 . S
C458 C457 1.438 . S
C458 C459 1.428 . S
C458 C471 1.394 1_565 S
C459 H451 0.949 . S
C459 C458 1.428 . S
C459 C460 1.345 . S
C460 H452 0.950 . S
C460 C459 1.345 . S
C460 C461 1.424 . S
C461 H453 0.951 . S
C461 C460 1.424 . S
C461 C462 1.347 . S
C462 H454 0.951 . S
C462 C457 1.429 . S
C462 C461 1.347 . S
H463 C464 0.951 . S
C464 H463 0.951 . S
C464 C470 1.265 . S
H465 C470 0.950 . S
H466 C474 0.949 . S
H467 C475 0.950 . S
H468 C476 0.951 . S
H469 C477 0.951 . S
C470 C464 1.265 . S
C470 H465 0.950 . S
C470 C471 1.478 . S
C471 C458 1.394 1_545 S
C471 C470 1.478 . S
C471 C472 1.397 . S
C472 C471 1.397 . S
C472 C473 1.438 . S
C472 C477 1.429 . S
C473 C456 1.394 . S
C473 C472 1.438 . S
C473 C474 1.428 . S
C474 H466 0.949 . S
C474 C473 1.428 . S
C474 C475 1.345 . S
C475 H467 0.950 . S
C475 C474 1.345 . S
C475 C476 1.424 . S
C476 H468 0.951 . S
C476 C475 1.424 . S
C476 C477 1.347 . S
C477 H469 0.951 . S
C477 C472 1.429 . S
C477 C476 1.347 . S
H478 C479 0.951 . S
C479 H478 0.951 . S
C479 C485 1.265 . S
H480 C485 0.950 . S
H481 C489 0.949 . S
H482 C490 0.950 . S
H483 C491 0.951 . S
H484 C492 0.951 . S
C485 C479 1.265 . S
C485 H480 0.950 . S
C485 C486 1.478 . S
C486 C485 1.478 . S
C486 C487 1.397 . S
C486 C503 1.394 1_554 S
C487 C486 1.397 . S
C487 C488 1.438 . S
C487 C492 1.429 . S
C488 C487 1.438 . S
C488 C489 1.428 . S
C488 C501 1.394 . S
C489 H481 0.949 . S
C489 C488 1.428 . S
C489 C490 1.345 . S
C490 H482 0.950 . S
C490 C489 1.345 . S
C490 C491 1.424 . S
C491 H483 0.951 . S
C491 C490 1.424 . S
C491 C492 1.347 . S
C492 H484 0.951 . S
C492 C487 1.429 . S
C492 C491 1.347 . S
H493 C494 0.951 . S
C494 H493 0.951 . S
C494 C500 1.265 . S
H495 C500 0.950 1_556 S
H496 C504 0.949 . S
H497 C505 0.950 . S
H498 C506 0.951 . S
H499 C507 0.951 . S
C500 C494 1.265 . S
C500 H495 0.950 1_554 S
C500 C501 1.478 . S
C501 C488 1.394 . S
C501 C500 1.478 . S
C501 C502 1.397 1_554 S
C502 C501 1.397 1_556 S
C502 C503 1.438 . S
C502 C507 1.429 . S
C503 C486 1.394 1_556 S
C503 C502 1.438 . S
C503 C504 1.428 . S
C504 H496 0.949 . S
C504 C503 1.428 . S
C504 C505 1.345 . S
C505 H497 0.950 . S
C505 C504 1.345 . S
C505 C506 1.424 . S
C506 H498 0.951 . S
C506 C505 1.424 . S
C506 C507 1.347 . S
C507 H499 0.951 . S
C507 C502 1.429 . S
C507 C506 1.347 . S
H508 C509 0.951 . S
C509 H508 0.951 . S
C509 C515 1.265 . S
H510 C515 0.950 . S
H511 C519 0.949 . S
H512 C520 0.950 . S
H513 C521 0.951 . S
H514 C522 0.951 . S
C515 C509 1.265 . S
C515 H510 0.950 . S
C515 C516 1.478 . S
C516 C515 1.478 . S
C516 C517 1.397 . S
C516 C533 1.394 1_554 S
C517 C516 1.397 . S
C517 C518 1.438 . S
C517 C522 1.429 . S
C518 C517 1.438 . S
C518 C519 1.428 . S
C518 C531 1.394 . S
C519 H511 0.949 . S
C519 C518 1.428 . S
C519 C520 1.345 . S
C520 H512 0.950 . S
C520 C519 1.345 . S
C520 C521 1.424 . S
C521 H513 0.951 . S
C521 C520 1.424 . S
C521 C522 1.347 . S
C522 H514 0.951 . S
C522 C517 1.429 . S
C522 C521 1.347 . S
H523 C524 0.951 . S
C524 H523 0.951 . S
C524 C530 1.265 . S
H525 C530 0.950 . S
H526 C534 0.949 . S
H527 C535 0.950 . S
H528 C536 0.951 . S
H529 C537 0.951 . S
C530 C524 1.265 . S
C530 H525 0.950 . S
C530 C531 1.478 . S
C531 C518 1.394 . S
C531 C530 1.478 . S
C531 C532 1.397 1_554 S
C532 C531 1.397 1_556 S
C532 C533 1.438 . S
C532 C537 1.429 . S
C533 C516 1.394 1_556 S
C533 C532 1.438 . S
C533 C534 1.428 . S
C534 H526 0.949 . S
C534 C533 1.428 . S
C534 C535 1.345 . S
C535 H527 0.950 . S
C535 C534 1.345 . S
C535 C536 1.424 . S
C536 H528 0.951 . S
C536 C535 1.424 . S
C536 C537 1.347 . S
C537 H529 0.951 . S
C537 C532 1.429 . S
C537 C536 1.347 . S
H538 C539 0.951 . S
C539 H538 0.951 . S
C539 C545 1.265 . S
H540 C545 0.950 1_556 S
H541 C549 0.949 . S
H542 C550 0.950 . S
H543 C551 0.951 . S
H544 C552 0.951 . S
C545 C539 1.265 . S
C545 H540 0.950 1_554 S
C545 C546 1.478 . S
C546 C545 1.478 . S
C546 C547 1.397 1_554 S
C546 C563 1.394 . S
C547 C546 1.397 1_556 S
C547 C548 1.438 . S
C547 C552 1.429 . S
C548 C547 1.438 . S
C548 C549 1.428 . S
C548 C561 1.394 1_556 S
C549 H541 0.949 . S
C549 C548 1.428 . S
C549 C550 1.345 . S
C550 H542 0.950 . S
C550 C549 1.345 . S
C550 C551 1.424 . S
C551 H543 0.951 . S
C551 C550 1.424 . S
C551 C552 1.347 . S
C552 H544 0.951 . S
C552 C547 1.429 . S
C552 C551 1.347 . S
H553 C554 0.951 1_556 S
C554 H553 0.951 1_554 S
C554 C560 1.265 . S
H555 C560 0.950 . S
H556 C564 0.949 . S
H557 C565 0.950 . S
H558 C566 0.951 . S
H559 C567 0.951 . S
C560 C554 1.265 . S
C560 H555 0.950 . S
C560 C561 1.478 . S
C561 C548 1.394 1_554 S
C561 C560 1.478 . S
C561 C562 1.397 . S
C562 C561 1.397 . S
C562 C563 1.438 . S
C562 C567 1.429 . S
C563 C546 1.394 . S
C563 C562 1.438 . S
C563 C564 1.428 . S
C564 H556 0.949 . S
C564 C563 1.428 . S
C564 C565 1.345 . S
C565 H557 0.950 . S
C565 C564 1.345 . S
C565 C566 1.424 . S
C566 H558 0.951 . S
C566 C565 1.424 . S
C566 C567 1.347 . S
C567 H559 0.951 . S
C567 C562 1.429 . S
C567 C566 1.347 . S
H568 C569 0.951 . S
C569 H568 0.951 . S
C569 C575 1.265 . S
H570 C575 0.950 . S
H571 C579 0.949 . S
H572 C580 0.950 . S
H573 C581 0.951 . S
H574 C582 0.951 . S
C575 C569 1.265 . S
C575 H570 0.950 . S
C575 C576 1.478 . S
C576 C575 1.478 . S
C576 C577 1.397 1_554 S
C576 C593 1.394 . S
C577 C576 1.397 1_556 S
C577 C578 1.438 . S
C577 C582 1.429 . S
C578 C577 1.438 . S
C578 C579 1.428 . S
C578 C591 1.394 1_556 S
C579 H571 0.949 . S
C579 C578 1.428 . S
C579 C580 1.345 . S
C580 H572 0.950 . S
C580 C579 1.345 . S
C580 C581 1.424 . S
C581 H573 0.951 . S
C581 C580 1.424 . S
C581 C582 1.347 . S
C582 H574 0.951 . S
C582 C577 1.429 . S
C582 C581 1.347 . S
H583 C584 0.951 . S
C584 H583 0.951 . S
C584 C590 1.265 . S
H585 C590 0.950 . S
H586 C594 0.949 . S
H587 C595 0.950 . S
H588 C596 0.951 . S
H589 C597 0.951 . S
C590 C584 1.265 . S
C590 H585 0.950 . S
C590 C591 1.478 . S
C591 C578 1.394 1_554 S
C591 C590 1.478 . S
C591 C592 1.397 . S
C592 C591 1.397 . S
C592 C593 1.438 . S
C592 C597 1.429 . S
C593 C576 1.394 . S
C593 C592 1.438 . S
C593 C594 1.428 . S
C594 H586 0.949 . S
C594 C593 1.428 . S
C594 C595 1.345 . S
C595 H587 0.950 . S
C595 C594 1.345 . S
C595 C596 1.424 . S
C596 H588 0.951 . S
C596 C595 1.424 . S
C596 C597 1.347 . S
C597 H589 0.951 . S
C597 C592 1.429 . S
C597 C596 1.347 . S
C254 C222 2.224 . S
C239 C53 2.257 . S
C284 C218 1.297 . S
C269 C97 1.326 1_545 S
C314 C228 2.166 . S
C299 C35 2.258 . S
C344 C212 1.443 1_565 S
C329 C91 1.400 1_545 S
C359 C29 2.479 . S
C374 C204 2.436 . S
C404 C236 1.530 . S
C389 C109 1.524 . S
C419 C47 2.465 . S
C434 C190 2.431 . S
C449 C115 1.453 1_545 S
C464 C234 1.265 . S
C479 C153 1.162 . S
C494 C216 1.067 . S
C509 C171 1.060 . S
C524 C231 1.089 . S
C554 C225 0.968 . S
C539 C159 0.941 . S
C584 C220 1.062 . S
C569 C177 1.028 . S
