# Generated by pormake.
# Topology tsx, (6,3)-cn, num edge types: 1
# Building blocks:
#     Node 0, Type 0, BuildingBlock: JUFBIX_clean_sbu_0, # of connection points: 6
#     Node 1, Type 0, BuildingBlock: JUFBIX_clean_sbu_0, # of connection points: 6
#     Node 2, Type 1, BuildingBlock: BETDIP_clean_linker_0, # of connection points: 3
#     Node 3, Type 1, BuildingBlock: BETDIP_clean_linker_0, # of connection points: 3
#     Node 4, Type 1, BuildingBlock: BETDIP_clean_linker_0, # of connection points: 3
#     Node 5, Type 1, BuildingBlock: BETDIP_clean_linker_0, # of connection points: 3
#     Edge 6, Type (0, 1), BuildingBlock: CIFDUS_clean_linker_0, # of connection points: 2
#     Edge 7, Type (0, 1), BuildingBlock: CIFDUS_clean_linker_0, # of connection points: 2
#     Edge 8, Type (0, 1), BuildingBlock: CIFDUS_clean_linker_0, # of connection points: 2
#     Edge 9, Type (0, 1), BuildingBlock: CIFDUS_clean_linker_0, # of connection points: 2
#     Edge 10, Type (0, 1), BuildingBlock: CIFDUS_clean_linker_0, # of connection points: 2
#     Edge 11, Type (0, 1), BuildingBlock: CIFDUS_clean_linker_0, # of connection points: 2
#     Edge 12, Type (0, 1), BuildingBlock: CIFDUS_clean_linker_0, # of connection points: 2
#     Edge 13, Type (0, 1), BuildingBlock: CIFDUS_clean_linker_0, # of connection points: 2
#     Edge 14, Type (0, 1), BuildingBlock: CIFDUS_clean_linker_0, # of connection points: 2
#     Edge 15, Type (0, 1), BuildingBlock: CIFDUS_clean_linker_0, # of connection points: 2
#     Edge 16, Type (0, 1), BuildingBlock: CIFDUS_clean_linker_0, # of connection points: 2
#     Edge 17, Type (0, 1), BuildingBlock: CIFDUS_clean_linker_0, # of connection points: 2
# Relax obj value: 0.106
# Max RMSD: 0.133
# Mean RMSD: 0.118
data_MOF--net-tsx--node1-JUFBIX_clean_sbu_0--node2-BETDIP_clean_linker_0--edge1-CIFDUS_clean_linker_0
_symmetry_space_group_name_H-M    P1
_symmetry_Int_Tables_number       1
_symmetry_cell_setting            triclinic
loop_
_symmetry_equiv_pos_as_xyz
'x, y, z'
_cell_length_a     17.791913
_cell_length_b     21.019973
_cell_length_c     29.180358
_cell_angle_alpha  94.291416
_cell_angle_beta   98.17417
_cell_angle_gamma 101.09753
loop_
_atom_site_label
_atom_site_type_symbol
_atom_site_fract_x
_atom_site_fract_y
_atom_site_fract_z
_atom_type_partial_charge
Co0 Co 0.11045 0.99448 -0.00297 0.0
C1 C 0.01753 0.98419 0.91079 0.0
Co2 Co 1.0087 0.04074 -0.00291 0.0
C3 C 0.19797 0.89621 0.976 0.0
C4 C 0.26991 0.98246 0.01445 0.0
N5 N 0.19587 0.95617 -0.00467 0.0
N6 N 0.27039 0.88385 -0.01756 0.0
C7 C 0.31576 0.93827 0.00661 0.0
H8 H 0.14692 0.86196 0.95819 0.0
H9 H 0.28928 0.03069 0.03302 0.0
C10 C 0.10275 0.05124 0.08316 0.0
N11 N 0.9244 0.07964 0.00058 0.0
C12 C 0.89789 0.12182 0.9729 0.0
C13 C 0.88319 0.07878 0.03609 0.0
N14 N 0.84307 0.14805 -0.0097 0.0
C15 C 0.83354 0.12129 0.03003 0.0
C16 C 0.98012 0.91105 0.01493 0.0
O17 O 0.1417 0.01837 0.06134 0.0
O18 O 0.04267 0.06628 0.06163 0.0
O19 O 0.95051 0.96106 0.01039 0.0
O20 O 0.05063 0.91438 0.01003 0.0
O21 O 0.97644 0.01564 0.9323 0.0
H22 H 0.89102 0.05098 0.06551 0.0
H23 H 0.92108 0.13555 0.94187 0.0
O24 O 0.07821 0.97032 0.93278 0.0
O25 O 0.16946 0.0761 -0.01555 0.0
O26 O 0.06671 0.11938 -0.0159 0.0
C27 C 0.13773 0.12521 0.98029 0.0
H28 H 0.37788 0.94612 0.01738 0.0
H29 H 0.79429 0.13239 0.05319 0.0
Co30 Co 0.52054 0.4549 0.48291 0.0
C31 C 0.44058 0.48018 0.39819 0.0
Co32 Co 0.45023 0.53076 0.48738 0.0
C33 C 0.65308 0.39051 0.48094 0.0
C34 C 0.54304 0.32759 0.45532 0.0
N35 N 0.57587 0.38925 0.47365 0.0
N36 N 0.66899 0.33179 0.46841 0.0
C37 C 0.59974 0.2923 0.45237 0.0
H38 H 0.69672 0.43357 0.49484 0.0
H39 H 0.48167 0.30948 0.44357 0.0
C40 C 0.5327 0.50658 0.57176 0.0
N41 N 0.39316 0.59368 0.49777 0.0
C42 C 0.3902 0.64965 0.47842 0.0
C43 C 0.34734 0.59337 0.53088 0.0
N44 N 0.34409 0.68403 0.49821 0.0
C45 C 0.31708 0.64857 0.53117 0.0
C46 C 0.36828 0.40688 0.496 0.0
O47 O 0.55577 0.46388 0.54733 0.0
O48 O 0.48691 0.53956 0.55233 0.0
O49 O 0.36414 0.46618 0.49466 0.0
O50 O 0.43206 0.39033 0.49142 0.0
O51 O 0.41582 0.52234 0.42227 0.0
H52 H 0.3378 0.5559 0.55412 0.0
H53 H 0.4213 0.66478 0.45047 0.0
O54 O 0.48481 0.44631 0.41822 0.0
O55 O 0.60829 0.52179 0.4754 0.0
O56 O 0.53521 0.59467 0.47983 0.0
C57 C 0.60013 0.58078 0.47497 0.0
H58 H 0.59091 0.24203 0.43778 0.0
H59 H 0.27962 0.66224 0.55467 0.0
H60 H 0.10056 0.01212 0.47973 0.0
H61 H 0.06797 0.10386 0.35464 0.0
H62 H 0.22761 0.97387 0.37046 0.0
H63 H 0.05785 0.19154 0.41219 0.0
C64 C 0.01752 0.16066 0.42994 0.0
C65 C 0.11634 0.02141 0.44619 0.0
C66 C 0.16858 0.98799 0.42838 0.0
C67 C 0.08408 0.06641 0.42101 0.0
C68 C 0.09934 0.07417 0.37562 0.0
C69 C 0.14942 0.03916 0.35629 0.0
C70 C 0.18731 0.9996 0.38432 0.0
N71 N 0.03067 0.09835 0.44038 0.0
H72 H 0.96293 0.93067 0.50388 0.0
H73 H 1.00809 0.05942 0.63108 0.0
H74 H 0.89006 0.8607 0.62871 0.0
H75 H 1.00536 0.13813 0.57493 0.0
C76 C 0.04607 0.1183 0.5565 0.0
C77 C 0.95809 0.93931 0.54032 0.0
C78 C 0.9226 0.88819 0.56344 0.0
C79 C 0.98851 1.00149 0.56445 0.0
C80 C 0.98231 0.01244 0.61172 0.0
C81 C 0.94759 0.96162 0.63509 0.0
C82 C 0.91794 0.89982 0.61078 0.0
N83 N 0.03117 0.05044 0.5418 0.0
H84 H 0.62109 0.48873 0.97832 0.0
H85 H 0.54426 0.56012 0.84937 0.0
H86 H 0.70354 0.43074 0.85333 0.0
H87 H 0.43651 0.5596 0.88706 0.0
C88 C 0.4684 0.58706 0.9193 0.0
C89 C 0.62274 0.49087 0.94157 0.0
C90 C 0.66394 0.4513 0.91821 0.0
C91 C 0.57985 0.53064 0.91689 0.0
C92 C 0.57908 0.53117 0.8687 0.0
C93 C 0.62217 0.49387 0.84529 0.0
C94 C 0.66725 0.45699 0.87089 0.0
N95 N 0.53742 0.56945 0.94083 0.0
H96 H 0.50397 0.48913 0.00429 0.0
H97 H 0.56014 0.59626 0.14036 0.0
H98 H 0.37627 0.42522 0.11188 0.0
H99 H 0.69532 0.59 0.1056 0.0
C100 C 0.67061 0.6182 0.07989 0.0
C101 C 0.49354 0.49592 0.03969 0.0
C102 C 0.43624 0.45111 0.05496 0.0
C103 C 0.53841 0.54818 0.07041 0.0
C104 C 0.5248 0.55609 0.11657 0.0
C105 C 0.46598 0.51199 0.13193 0.0
C106 C 0.42148 0.46003 0.10057 0.0
N107 N 0.59558 0.59343 0.05403 0.0
H108 H 0.29452 0.16106 -0.01652 0.0
H109 H 0.08457 0.23734 0.97175 0.0
H110 H 0.1606 0.34807 -0.01334 0.0
H111 H 0.2854 0.42161 0.017 0.0
H112 H 0.4956 0.34714 0.02927 0.0
H113 H 0.42126 0.23755 -0.00053 0.0
C114 C 0.26548 0.20195 -0.01698 0.0
C115 C 0.18408 0.19083 0.97775 0.0
C116 C 0.30962 0.26587 -0.00781 0.0
C117 C 0.14725 0.24439 0.9766 0.0
C118 C 0.19062 0.30789 -0.01476 0.0
C119 C 0.31473 0.38157 0.01161 0.0
C120 C 0.3951 0.39149 0.02532 0.0
C121 C 0.27161 0.31899 -0.0048 0.0
C122 C 0.43342 0.33996 0.01859 0.0
C123 C 0.39093 0.27741 0.00198 0.0
H124 H 0.39524 0.83909 0.02035 0.0
H125 H 0.20022 0.79603 0.9086 0.0
H126 H 0.24277 0.69865 0.88056 0.0
H127 H 0.33815 0.62754 0.88603 0.0
H128 H 0.53448 0.67221 -0.0038 0.0
H129 H 0.48937 0.76738 0.02653 0.0
C130 C 0.36226 0.80879 -0.01033 0.0
C131 C 0.29466 0.82533 0.96659 0.0
C132 C 0.38747 0.75308 0.97345 0.0
C133 C 0.25194 0.78441 0.9274 0.0
C134 C 0.27652 0.72881 0.91113 0.0
C135 C 0.37067 0.65803 0.91684 0.0
C136 C 0.43948 0.64292 0.93911 0.0
C137 C 0.34445 0.7129 0.93369 0.0
C138 C 0.48124 0.68271 0.97885 0.0
C139 C 0.4555 0.73721 -0.00401 0.0
H140 H 0.82678 0.88708 0.02037 0.0
H141 H 0.02781 0.79905 0.03689 0.0
H142 H 0.94997 0.70077 0.05956 0.0
H143 H 0.82414 0.64007 0.0753 0.0
H144 H 0.62463 0.72913 0.05814 0.0
H145 H 0.70229 0.82686 0.03499 0.0
C146 C 0.85372 0.84641 0.02882 0.0
C147 C 0.93303 0.85048 0.02701 0.0
C148 C 0.80874 0.79021 0.04162 0.0
C149 C 0.96681 0.79716 0.03794 0.0
C150 C 0.92241 0.74101 0.05102 0.0
C151 C 0.79814 0.68109 0.06646 0.0
C152 C 0.71876 0.67736 0.06728 0.0
C153 C 0.84336 0.73709 0.05316 0.0
C154 C 0.68513 0.73042 0.05606 0.0
C155 C 0.72968 0.78645 0.04334 0.0
H156 H 0.82771 0.25925 0.03625 0.0
H157 H 0.77519 0.14616 0.90221 0.0
H158 H 0.71007 0.22873 0.86907 0.0
H159 H 0.66868 0.33154 0.87841 0.0
H160 H 0.73411 0.45323 0.00959 0.0
H161 H 0.7912 0.3675 0.04448 0.0
C162 C 0.80159 0.25304 -0.00012 0.0
C163 C 0.8054 0.19698 0.97148 0.0
C164 C 0.76643 0.30171 0.9809 0.0
C165 C 0.77273 0.1892 0.92432 0.0
C166 C 0.73551 0.23617 0.90558 0.0
C167 C 0.69707 0.34061 0.91438 0.0
C168 C 0.69825 0.3998 0.94092 0.0
C169 C 0.73251 0.29267 0.93349 0.0
C170 C 0.73204 0.40841 -0.01183 0.0
C171 C 0.76524 0.35953 0.00807 0.0
H172 H 0.74933 0.59728 0.51839 0.0
H173 H 0.59519 0.68737 0.42931 0.0
H174 H 0.69076 0.78985 0.44196 0.0
H175 H 0.80703 0.85872 0.48963 0.0
H176 H 0.95548 0.77167 0.58457 0.0
H177 H 0.87488 0.66347 0.55809 0.0
C178 C 0.73808 0.63879 0.50057 0.0
C179 C 0.66555 0.63507 0.47309 0.0
C180 C 0.79203 0.69858 0.50973 0.0
C181 C 0.65078 0.68937 0.45074 0.0
C182 C 0.70519 0.74807 0.45816 0.0
C183 C 0.82295 0.81568 0.50325 0.0
C184 C 0.88665 0.82282 0.53896 0.0
C185 C 0.77447 0.75409 0.48925 0.0
C186 C 0.90639 0.76701 0.55702 0.0
C187 C 0.86009 0.70528 0.5421 0.0
H188 H 0.70502 0.21682 0.48517 0.0
H189 H 0.79979 0.4076 0.44927 0.0
H190 H 0.91951 0.37224 0.43662 0.0
H191 H 0.99203 0.28348 0.42902 0.0
H192 H 0.89557 0.09308 0.46561 0.0
H193 H 0.78177 0.1316 0.48461 0.0
C194 C 0.75218 0.25071 0.47488 0.0
C195 C 0.74335 0.31443 0.4676 0.0
C196 C 0.82013 0.22982 0.46732 0.0
C197 C 0.80539 0.35838 0.45521 0.0
C198 C 0.87349 0.33797 0.44761 0.0
C199 C 0.94614 0.25071 0.44142 0.0
C200 C 0.95158 0.18537 0.44518 0.0
C201 C 0.8807 0.2733 0.45246 0.0
C202 C 0.89255 0.14347 0.46198 0.0
C203 C 0.82736 0.16545 0.47286 0.0
H204 H 0.35543 0.27609 0.50266 0.0
H205 H 0.22728 0.43053 0.50927 0.0
H206 H 0.11674 0.35494 0.52806 0.0
H207 H 0.05728 0.24574 0.54548 0.0
H208 H 0.18434 0.09116 0.53934 0.0
H209 H 0.29385 0.16555 0.51745 0.0
C210 C 0.30322 0.29312 0.50801 0.0
C211 C 0.30013 0.35907 0.50478 0.0
C212 C 0.23949 0.24932 0.51904 0.0
C213 C 0.23168 0.38015 0.51166 0.0
C214 C 0.16828 0.33699 0.52254 0.0
C215 C 0.10909 0.22858 0.53932 0.0
C216 C 0.11248 0.16308 0.54329 0.0
C217 C 0.17182 0.2717 0.52688 0.0
C218 C 0.17971 0.14111 0.53533 0.0
C219 C 0.24257 0.18375 0.52316 0.0
H220 H 0.21357 0.72624 0.50813 0.0
H221 H 0.43581 0.78088 0.46336 0.0
H222 H 0.40459 0.88458 0.44298 0.0
H223 H 0.31167 0.95703 0.43472 0.0
H224 H 0.08622 0.89789 0.47514 0.0
H225 H 0.12322 0.80042 0.50313 0.0
C226 C 0.25571 0.76117 0.49457 0.0
C227 C 0.32676 0.74572 0.48707 0.0
C228 C 0.23725 0.82033 0.48284 0.0
C229 C 0.3802 0.79115 0.46873 0.0
C230 C 0.36263 0.85063 0.45745 0.0
C231 C 0.27057 0.92286 0.44967 0.0
C232 C 0.19603 0.93479 0.45239 0.0
C233 C 0.29088 0.86529 0.46379 0.0
C234 C 0.14433 0.89072 0.47304 0.0
C235 C 0.16501 0.83432 0.48848 0.0
H236 H 0.15173 0.97181 0.14252 0.0
H237 H 0.0925 0.1606 0.13647 0.0
H238 H 0.11171 0.17755 0.22186 0.0
H239 H 0.13686 0.13465 0.29749 0.0
H240 H 0.17033 0.93603 0.29932 0.0
H241 H 0.17284 0.92825 0.2169 0.0
C242 C 0.1444 0.0171 0.16004 0.0
C243 C 0.12163 0.06517 0.13383 0.0
C244 C 0.15136 0.02483 0.20851 0.0
C245 C 0.11034 0.1231 0.15643 0.0
C246 C 0.12113 0.13264 0.20506 0.0
C247 C 0.14418 0.08944 0.28004 0.0
C248 C 0.15493 0.03675 0.30566 0.0
C249 C 0.13999 0.08309 0.23144 0.0
C250 C 0.16521 0.97889 0.28178 0.0
C251 C 0.16535 0.97365 0.23408 0.0
H252 H 0.94634 0.04918 0.84655 0.0
H253 H 0.04808 0.88 0.86218 0.0
H254 H 0.02997 0.85561 0.77776 0.0
H255 H 0.99448 0.88681 0.69991 0.0
H256 H 0.90097 0.05974 0.68324 0.0
H257 H 0.907 0.07877 0.76774 0.0
C258 C 0.96328 1.00647 0.83131 0.0
C259 C 0.99825 0.9663 0.86024 0.0
C260 C 0.95509 0.99398 0.78273 0.0
C261 C 0.02119 0.91162 0.84037 0.0
C262 C 1.01102 0.89774 0.79221 0.0
C263 C 0.97438 0.92811 0.7148 0.0
C264 C 0.94711 0.97172 0.68569 0.0
C265 C 0.97945 0.93925 0.76312 0.0
C266 C 0.92254 0.02577 0.70525 0.0
C267 C 0.92579 0.03651 0.75341 0.0
H268 H 0.57286 0.41862 0.62824 0.0
H269 H 0.54467 0.61787 0.62847 0.0
H270 H 0.57675 0.63358 0.7134 0.0
H271 H 0.60704 0.58897 0.78749 0.0
H272 H 0.61922 0.38542 0.78654 0.0
H273 H 0.60156 0.37384 0.70215 0.0
C274 C 0.57459 0.46561 0.64695 0.0
C275 C 0.55663 0.51699 0.62246 0.0
C276 C 0.59054 0.47364 0.69565 0.0
C277 C 0.55803 0.57751 0.64687 0.0
C278 C 0.57638 0.58652 0.69533 0.0
C279 C 0.6053 0.54194 0.76893 0.0
C280 C 0.61511 0.48848 0.7937 0.0
C281 C 0.59153 0.53457 0.72012 0.0
C282 C 0.61389 0.42812 0.76875 0.0
C283 C 0.60285 0.42105 0.72031 0.0
H284 H 0.43457 0.57746 0.34263 0.0
H285 H 0.4195 0.36995 0.34009 0.0
H286 H 0.42201 0.36135 0.25646 0.0
H287 H 0.44221 0.41395 0.18645 0.0
H288 H 0.46259 0.62198 0.18798 0.0
H289 H 0.4462 0.62969 0.27004 0.0
C290 C 0.42977 0.53029 0.32336 0.0
C291 C 0.42634 0.4743 0.34709 0.0
C292 C 0.43424 0.5261 0.27555 0.0
C293 C 0.4219 0.41354 0.32225 0.0
C294 C 0.42388 0.40869 0.27461 0.0
C295 C 0.44154 0.46089 0.20439 0.0
C296 C 0.45349 0.51729 0.18115 0.0
C297 C 0.43222 0.46485 0.25125 0.0
C298 C 0.45437 0.57793 0.20529 0.0
C299 C 0.44445 0.58228 0.25207 0.0
loop_
_geom_bond_atom_site_label_1
_geom_bond_atom_site_label_2
_geom_bond_distance
_geom_bond_site_symmetry_2
_ccdc_geom_bond_type
Co0 N5 2.057 . S
Co0 O17 2.021 . S
Co0 O20 2.062 1_455 S
Co0 O24 2.117 1_554 S
Co0 O25 2.020 1_565 S
C1 O21 1.259 1_455 S
C1 O24 1.258 1_545 S
Co2 N11 2.057 . S
Co2 O18 2.115 1_655 S
Co2 O19 2.020 1_545 S
Co2 O21 2.021 1_554 S
Co2 O26 2.062 1_655 S
C3 N5 1.316 . S
C3 N6 1.347 . S
C3 H8 0.931 . S
C4 N5 1.375 1_556 S
C4 C7 1.350 . S
C4 H9 0.930 . S
N5 Co0 2.057 . S
N5 C3 1.316 . S
N5 C4 1.375 1_554 S
N6 C3 1.347 . S
N6 C7 1.373 1_554 S
C7 C4 1.350 . S
C7 N6 1.373 1_556 S
C7 H28 0.931 . S
H8 C3 0.931 . S
H9 C4 0.930 . S
C10 O17 1.259 . S
C10 O18 1.264 1_565 S
N11 Co2 2.057 . S
N11 C12 1.316 1_554 S
N11 C13 1.375 . S
C12 N11 1.316 1_556 S
C12 N14 1.347 1_556 S
C12 H23 0.931 . S
C13 N11 1.375 . S
C13 C15 1.350 . S
C13 H22 0.930 . S
N14 C12 1.347 1_554 S
N14 C15 1.373 . S
C15 C13 1.350 . S
C15 N14 1.373 . S
C15 H29 0.931 . S
C16 O19 1.256 . S
C16 O20 1.255 . S
O17 Co0 2.021 . S
O17 C10 1.259 . S
O18 Co2 2.115 1_455 S
O18 C10 1.264 1_545 S
O19 Co2 2.020 1_565 S
O19 C16 1.256 . S
O20 Co0 2.062 1_655 S
O20 C16 1.255 . S
O21 C1 1.259 1_655 S
O21 Co2 2.021 1_556 S
H22 C13 0.930 . S
H23 C12 0.931 . S
O24 Co0 2.117 1_556 S
O24 C1 1.258 1_565 S
O25 Co0 2.020 1_545 S
O25 C27 1.256 . S
O26 Co2 2.062 1_455 S
O26 C27 1.255 . S
C27 O25 1.256 . S
C27 O26 1.255 . S
H28 C7 0.931 . S
H29 C15 0.931 . S
Co30 N35 2.057 . S
Co30 O47 2.021 . S
Co30 O50 2.062 . S
Co30 O54 2.117 . S
Co30 O55 2.020 . S
C31 O51 1.259 . S
C31 O54 1.258 . S
Co32 N41 2.057 . S
Co32 O48 2.117 . S
Co32 O49 2.020 . S
Co32 O51 2.021 . S
Co32 O56 2.062 . S
C33 N35 1.316 . S
C33 N36 1.347 . S
C33 H38 0.931 . S
C34 N35 1.375 . S
C34 C37 1.350 . S
C34 H39 0.930 . S
N35 Co30 2.057 . S
N35 C33 1.316 . S
N35 C34 1.375 . S
N36 C33 1.347 . S
N36 C37 1.373 . S
C37 C34 1.350 . S
C37 N36 1.373 . S
C37 H58 0.931 . S
H38 C33 0.931 . S
H39 C34 0.930 . S
C40 O47 1.259 . S
C40 O48 1.258 . S
N41 Co32 2.057 . S
N41 C42 1.316 . S
N41 C43 1.375 . S
C42 N41 1.316 . S
C42 N44 1.347 . S
C42 H53 0.931 . S
C43 N41 1.375 . S
C43 C45 1.350 . S
C43 H52 0.930 . S
N44 C42 1.347 . S
N44 C45 1.373 . S
C45 C43 1.350 . S
C45 N44 1.373 . S
C45 H59 0.931 . S
C46 O49 1.256 . S
C46 O50 1.255 . S
O47 Co30 2.021 . S
O47 C40 1.259 . S
O48 Co32 2.117 . S
O48 C40 1.258 . S
O49 Co32 2.020 . S
O49 C46 1.256 . S
O50 Co30 2.062 . S
O50 C46 1.255 . S
O51 C31 1.259 . S
O51 Co32 2.021 . S
H52 C43 0.930 . S
H53 C42 0.931 . S
O54 Co30 2.117 . S
O54 C31 1.258 . S
O55 Co30 2.020 . S
O55 C57 1.256 . S
O56 Co32 2.062 . S
O56 C57 1.255 . S
C57 O55 1.256 . S
C57 O56 1.255 . S
H58 C37 0.931 . S
H59 C45 0.931 . S
H60 C65 0.930 . S
H61 C68 0.930 1_655 S
H62 C70 0.930 . S
H63 C64 1.016 . S
C64 H63 1.016 . S
C64 N71 1.286 . S
C65 H60 0.930 . S
C65 C66 1.397 . S
C65 C67 1.361 1_565 S
C66 C65 1.397 . S
C66 C70 1.390 . S
C67 C65 1.361 1_545 S
C67 C68 1.393 . S
C67 N71 1.413 1_455 S
C68 H61 0.930 1_455 S
C68 C67 1.393 . S
C68 C69 1.399 1_545 S
C69 C68 1.399 1_565 S
C69 C70 1.381 . S
C70 H62 0.930 . S
C70 C66 1.390 . S
C70 C69 1.381 . S
N71 C64 1.286 . S
N71 C67 1.413 1_655 S
H72 C77 0.930 . S
H73 C80 0.930 . S
H74 C82 0.930 . S
H75 C76 1.016 . S
C76 H75 1.016 . S
C76 N83 1.286 . S
C77 H72 0.930 . S
C77 C78 1.397 . S
C77 C79 1.361 1_665 S
C78 C77 1.397 . S
C78 C82 1.390 . S
C79 C77 1.361 1_445 S
C79 C80 1.393 . S
C79 N83 1.413 . S
C80 H73 0.930 . S
C80 C79 1.393 . S
C80 C81 1.399 1_445 S
C81 C80 1.399 1_665 S
C81 C82 1.381 . S
C82 H74 0.930 . S
C82 C78 1.390 . S
C82 C81 1.381 . S
N83 C76 1.286 . S
N83 C79 1.413 . S
H84 C89 0.930 1_554 S
H85 C92 0.930 . S
H86 C94 0.930 . S
H87 C88 1.016 . S
C88 H87 1.016 . S
C88 N95 1.286 . S
C89 H84 0.930 1_556 S
C89 C90 1.397 . S
C89 C91 1.361 . S
C90 C89 1.397 . S
C90 C94 1.390 . S
C91 C89 1.361 . S
C91 C92 1.393 . S
C91 N95 1.413 . S
C92 H85 0.930 . S
C92 C91 1.393 . S
C92 C93 1.399 . S
C93 C92 1.399 . S
C93 C94 1.381 . S
C94 H86 0.930 . S
C94 C90 1.390 . S
C94 C93 1.381 . S
N95 C88 1.286 . S
N95 C91 1.413 . S
H96 C101 0.930 1_556 S
H97 C104 0.930 . S
H98 C106 0.930 . S
H99 C100 1.016 . S
C100 H99 1.016 . S
C100 N107 1.286 . S
C101 H96 0.930 1_554 S
C101 C102 1.397 . S
C101 C103 1.361 . S
C102 C101 1.397 . S
C102 C106 1.390 . S
C103 C101 1.361 . S
C103 C104 1.393 . S
C103 N107 1.413 . S
C104 H97 0.930 . S
C104 C103 1.393 . S
C104 C105 1.399 . S
C105 C104 1.399 . S
C105 C106 1.381 . S
C106 H98 0.930 . S
C106 C102 1.390 . S
C106 C105 1.381 . S
N107 C100 1.286 . S
N107 C103 1.413 . S
H108 C114 0.930 . S
H109 C117 0.930 . S
H110 C118 0.930 . S
H111 C119 0.930 . S
H112 C122 0.930 . S
H113 C123 0.930 . S
C114 H108 0.930 . S
C114 C115 1.355 . S
C114 C116 1.415 . S
C115 C114 1.355 . S
C115 C117 1.419 . S
C116 C114 1.415 . S
C116 C121 1.425 . S
C116 C123 1.409 . S
C117 H109 0.930 . S
C117 C115 1.419 . S
C117 C118 1.362 . S
C118 H110 0.930 . S
C118 C117 1.362 . S
C118 C121 1.409 . S
C119 H111 0.930 . S
C119 C120 1.355 . S
C119 C121 1.415 . S
C120 C119 1.355 . S
C120 C122 1.419 . S
C121 C116 1.425 . S
C121 C118 1.409 . S
C121 C119 1.415 . S
C122 H112 0.930 . S
C122 C120 1.419 . S
C122 C123 1.362 . S
C123 H113 0.930 . S
C123 C116 1.409 . S
C123 C122 1.362 . S
H124 C130 0.930 . S
H125 C133 0.930 . S
H126 C134 0.930 . S
H127 C135 0.930 . S
H128 C138 0.930 . S
H129 C139 0.930 . S
C130 H124 0.930 . S
C130 C131 1.355 . S
C130 C132 1.415 . S
C131 C130 1.355 . S
C131 C133 1.419 1_554 S
C132 C130 1.415 . S
C132 C137 1.425 1_554 S
C132 C139 1.409 . S
C133 H125 0.930 . S
C133 C131 1.419 1_556 S
C133 C134 1.362 . S
C134 H126 0.930 . S
C134 C133 1.362 . S
C134 C137 1.409 . S
C135 H127 0.930 . S
C135 C136 1.355 1_556 S
C135 C137 1.415 . S
C136 C135 1.355 1_554 S
C136 C138 1.419 . S
C137 C132 1.425 1_556 S
C137 C134 1.409 . S
C137 C135 1.415 . S
C138 H128 0.930 . S
C138 C136 1.419 . S
C138 C139 1.362 . S
C139 H129 0.930 . S
C139 C132 1.409 . S
C139 C138 1.362 . S
H140 C146 0.930 . S
H141 C149 0.930 . S
H142 C150 0.930 . S
H143 C151 0.930 . S
H144 C154 0.930 . S
H145 C155 0.930 . S
C146 H140 0.930 . S
C146 C147 1.355 . S
C146 C148 1.415 . S
C147 C146 1.355 . S
C147 C149 1.419 . S
C148 C146 1.415 . S
C148 C153 1.425 . S
C148 C155 1.409 . S
C149 H141 0.930 . S
C149 C147 1.419 . S
C149 C150 1.362 . S
C150 H142 0.930 . S
C150 C149 1.362 . S
C150 C153 1.409 . S
C151 H143 0.930 . S
C151 C152 1.355 . S
C151 C153 1.415 . S
C152 C151 1.355 . S
C152 C154 1.419 . S
C153 C148 1.425 . S
C153 C150 1.409 . S
C153 C151 1.415 . S
C154 H144 0.930 . S
C154 C152 1.419 . S
C154 C155 1.362 . S
C155 H145 0.930 . S
C155 C148 1.409 . S
C155 C154 1.362 . S
H156 C162 0.930 . S
H157 C165 0.930 . S
H158 C166 0.930 . S
H159 C167 0.930 . S
H160 C170 0.930 . S
H161 C171 0.930 . S
C162 H156 0.930 . S
C162 C163 1.355 1_554 S
C162 C164 1.415 . S
C163 C162 1.355 1_556 S
C163 C165 1.419 . S
C164 C162 1.415 . S
C164 C169 1.425 1_554 S
C164 C171 1.409 . S
C165 H157 0.930 . S
C165 C163 1.419 . S
C165 C166 1.362 . S
C166 H158 0.930 . S
C166 C165 1.362 . S
C166 C169 1.409 . S
C167 H159 0.930 . S
C167 C168 1.355 . S
C167 C169 1.415 . S
C168 C167 1.355 . S
C168 C170 1.419 1_556 S
C169 C164 1.425 1_556 S
C169 C166 1.409 . S
C169 C167 1.415 . S
C170 H160 0.930 . S
C170 C168 1.419 1_554 S
C170 C171 1.362 . S
C171 H161 0.930 . S
C171 C164 1.409 . S
C171 C170 1.362 . S
H172 C178 0.930 . S
H173 C181 0.930 . S
H174 C182 0.930 . S
H175 C183 0.930 . S
H176 C186 0.930 . S
H177 C187 0.930 . S
C178 H172 0.930 . S
C178 C179 1.355 . S
C178 C180 1.415 . S
C179 C178 1.355 . S
C179 C181 1.419 . S
C180 C178 1.415 . S
C180 C185 1.425 . S
C180 C187 1.409 . S
C181 H173 0.930 . S
C181 C179 1.419 . S
C181 C182 1.362 . S
C182 H174 0.930 . S
C182 C181 1.362 . S
C182 C185 1.409 . S
C183 H175 0.930 . S
C183 C184 1.355 . S
C183 C185 1.415 . S
C184 C183 1.355 . S
C184 C186 1.419 . S
C185 C180 1.425 . S
C185 C182 1.409 . S
C185 C183 1.415 . S
C186 H176 0.930 . S
C186 C184 1.419 . S
C186 C187 1.362 . S
C187 H177 0.930 . S
C187 C180 1.409 . S
C187 C186 1.362 . S
H188 C194 0.930 . S
H189 C197 0.930 . S
H190 C198 0.930 . S
H191 C199 0.930 . S
H192 C202 0.930 . S
H193 C203 0.930 . S
C194 H188 0.930 . S
C194 C195 1.355 . S
C194 C196 1.415 . S
C195 C194 1.355 . S
C195 C197 1.419 . S
C196 C194 1.415 . S
C196 C201 1.425 . S
C196 C203 1.409 . S
C197 H189 0.930 . S
C197 C195 1.419 . S
C197 C198 1.362 . S
C198 H190 0.930 . S
C198 C197 1.362 . S
C198 C201 1.409 . S
C199 H191 0.930 . S
C199 C200 1.355 . S
C199 C201 1.415 . S
C200 C199 1.355 . S
C200 C202 1.419 . S
C201 C196 1.425 . S
C201 C198 1.409 . S
C201 C199 1.415 . S
C202 H192 0.930 . S
C202 C200 1.419 . S
C202 C203 1.362 . S
C203 H193 0.930 . S
C203 C196 1.409 . S
C203 C202 1.362 . S
H204 C210 0.930 . S
H205 C213 0.930 . S
H206 C214 0.930 . S
H207 C215 0.930 . S
H208 C218 0.930 . S
H209 C219 0.930 . S
C210 H204 0.930 . S
C210 C211 1.355 . S
C210 C212 1.415 . S
C211 C210 1.355 . S
C211 C213 1.419 . S
C212 C210 1.415 . S
C212 C217 1.425 . S
C212 C219 1.409 . S
C213 H205 0.930 . S
C213 C211 1.419 . S
C213 C214 1.362 . S
C214 H206 0.930 . S
C214 C213 1.362 . S
C214 C217 1.409 . S
C215 H207 0.930 . S
C215 C216 1.355 . S
C215 C217 1.415 . S
C216 C215 1.355 . S
C216 C218 1.419 . S
C217 C212 1.425 . S
C217 C214 1.409 . S
C217 C215 1.415 . S
C218 H208 0.930 . S
C218 C216 1.419 . S
C218 C219 1.362 . S
C219 H209 0.930 . S
C219 C212 1.409 . S
C219 C218 1.362 . S
H220 C226 0.930 . S
H221 C229 0.930 . S
H222 C230 0.930 . S
H223 C231 0.930 . S
H224 C234 0.930 . S
H225 C235 0.930 . S
C226 H220 0.930 . S
C226 C227 1.355 . S
C226 C228 1.415 . S
C227 C226 1.355 . S
C227 C229 1.419 . S
C228 C226 1.415 . S
C228 C233 1.425 . S
C228 C235 1.409 . S
C229 H221 0.930 . S
C229 C227 1.419 . S
C229 C230 1.362 . S
C230 H222 0.930 . S
C230 C229 1.362 . S
C230 C233 1.409 . S
C231 H223 0.930 . S
C231 C232 1.355 . S
C231 C233 1.415 . S
C232 C231 1.355 . S
C232 C234 1.419 . S
C233 C228 1.425 . S
C233 C230 1.409 . S
C233 C231 1.415 . S
C234 H224 0.930 . S
C234 C232 1.419 . S
C234 C235 1.362 . S
C235 H225 0.930 . S
C235 C228 1.409 . S
C235 C234 1.362 . S
H236 C242 0.930 . S
H237 C245 0.930 . S
H238 C246 0.930 . S
H239 C247 0.930 . S
H240 C250 0.930 . S
H241 C251 0.930 . S
C242 H236 0.930 . S
C242 C243 1.355 1_565 S
C242 C244 1.415 . S
C243 C242 1.355 1_545 S
C243 C245 1.419 . S
C244 C242 1.415 . S
C244 C249 1.425 1_565 S
C244 C251 1.409 . S
C245 H237 0.930 . S
C245 C243 1.419 . S
C245 C246 1.362 . S
C246 H238 0.930 . S
C246 C245 1.362 . S
C246 C249 1.409 . S
C247 H239 0.930 . S
C247 C248 1.355 1_545 S
C247 C249 1.415 . S
C248 C247 1.355 1_565 S
C248 C250 1.419 . S
C249 C244 1.425 1_545 S
C249 C246 1.409 . S
C249 C247 1.415 . S
C250 H240 0.930 . S
C250 C248 1.419 . S
C250 C251 1.362 . S
C251 H241 0.930 . S
C251 C244 1.409 . S
C251 C250 1.362 . S
H252 C258 0.930 . S
H253 C261 0.930 . S
H254 C262 0.930 . S
H255 C263 0.930 . S
H256 C266 0.930 . S
H257 C267 0.930 . S
C258 H252 0.930 . S
C258 C259 1.355 1_445 S
C258 C260 1.415 . S
C259 C258 1.355 1_665 S
C259 C261 1.419 . S
C260 C258 1.415 . S
C260 C265 1.425 1_445 S
C260 C267 1.409 . S
C261 H253 0.930 . S
C261 C259 1.419 . S
C261 C262 1.362 . S
C262 H254 0.930 . S
C262 C261 1.362 . S
C262 C265 1.409 . S
C263 H255 0.930 . S
C263 C264 1.355 1_565 S
C263 C265 1.415 . S
C264 C263 1.355 1_545 S
C264 C266 1.419 1_655 S
C265 C260 1.425 1_665 S
C265 C262 1.409 . S
C265 C263 1.415 . S
C266 H256 0.930 . S
C266 C264 1.419 1_455 S
C266 C267 1.362 . S
C267 H257 0.930 . S
C267 C260 1.409 . S
C267 C266 1.362 . S
H268 C274 0.930 . S
H269 C277 0.930 . S
H270 C278 0.930 . S
H271 C279 0.930 . S
H272 C282 0.930 . S
H273 C283 0.930 . S
C274 H268 0.930 . S
C274 C275 1.355 . S
C274 C276 1.415 . S
C275 C274 1.355 . S
C275 C277 1.419 . S
C276 C274 1.415 . S
C276 C281 1.425 . S
C276 C283 1.409 . S
C277 H269 0.930 . S
C277 C275 1.419 . S
C277 C278 1.362 . S
C278 H270 0.930 . S
C278 C277 1.362 . S
C278 C281 1.409 . S
C279 H271 0.930 . S
C279 C280 1.355 . S
C279 C281 1.415 . S
C280 C279 1.355 . S
C280 C282 1.419 . S
C281 C276 1.425 . S
C281 C278 1.409 . S
C281 C279 1.415 . S
C282 H272 0.930 . S
C282 C280 1.419 . S
C282 C283 1.362 . S
C283 H273 0.930 . S
C283 C276 1.409 . S
C283 C282 1.362 . S
H284 C290 0.930 . S
H285 C293 0.930 . S
H286 C294 0.930 . S
H287 C295 0.930 . S
H288 C298 0.930 . S
H289 C299 0.930 . S
C290 H284 0.930 . S
C290 C291 1.355 . S
C290 C292 1.415 . S
C291 C290 1.355 . S
C291 C293 1.419 . S
C292 C290 1.415 . S
C292 C297 1.425 . S
C292 C299 1.409 . S
C293 H285 0.930 . S
C293 C291 1.419 . S
C293 C294 1.362 . S
C294 H286 0.930 . S
C294 C293 1.362 . S
C294 C297 1.409 . S
C295 H287 0.930 . S
C295 C296 1.355 . S
C295 C297 1.415 . S
C296 C295 1.355 . S
C296 C298 1.419 . S
C297 C292 1.425 . S
C297 C294 1.409 . S
C297 C295 1.415 . S
C298 H288 0.930 . S
C298 C296 1.419 . S
C298 C299 1.362 . S
C299 H289 0.930 . S
C299 C292 1.409 . S
C299 C298 1.362 . S
C120 C102 1.455 . S
C115 C27 1.482 . S
C131 N6 1.356 . S
C136 C88 1.408 1_554 S
C147 C16 1.447 . S
C152 C100 1.402 . S
C163 N14 1.456 1_556 S
C168 C90 1.463 . S
C179 C57 1.484 . S
C184 C78 1.481 . S
C195 N36 1.379 . S
C200 C64 1.369 . S
C216 C76 1.375 . S
C211 C46 1.446 . S
C232 C66 1.425 . S
C227 N44 1.444 . S
C243 C10 1.477 1_545 S
C248 C69 1.463 . S
C259 C1 1.539 1_665 S
C264 C81 1.547 1_545 S
C280 C93 1.465 . S
C275 C40 1.477 . S
C291 C31 1.538 . S
C296 C105 1.546 . S
