# Generated by pormake.
# Topology pto, (3,4)-cn, num edge types: 1
# Building blocks:
#     Node 0, Type 0, BuildingBlock: PAMTOO_clean_linker_0, # of connection points: 3
#     Node 1, Type 0, BuildingBlock: PAMTOO_clean_linker_0, # of connection points: 3
#     Node 2, Type 0, BuildingBlock: PAMTOO_clean_linker_0, # of connection points: 3
#     Node 3, Type 0, BuildingBlock: PAMTOO_clean_linker_0, # of connection points: 3
#     Node 4, Type 0, BuildingBlock: PAMTOO_clean_linker_0, # of connection points: 3
#     Node 5, Type 0, BuildingBlock: PAMTOO_clean_linker_0, # of connection points: 3
#     Node 6, Type 0, BuildingBlock: PAMTOO_clean_linker_0, # of connection points: 3
#     Node 7, Type 0, BuildingBlock: PAMTOO_clean_linker_0, # of connection points: 3
#     Node 8, Type 1, BuildingBlock: KOZSID_clean_sbu_0, # of connection points: 4
#     Node 9, Type 1, BuildingBlock: KOZSID_clean_sbu_0, # of connection points: 4
#     Node 10, Type 1, BuildingBlock: KOZSID_clean_sbu_0, # of connection points: 4
#     Node 11, Type 1, BuildingBlock: KOZSID_clean_sbu_0, # of connection points: 4
#     Node 12, Type 1, BuildingBlock: KOZSID_clean_sbu_0, # of connection points: 4
#     Node 13, Type 1, BuildingBlock: KOZSID_clean_sbu_0, # of connection points: 4
#     Edge 14, Type (0, 1), BuildingBlock: TEMPAE_clean_linker_10, # of connection points: 2
#     Edge 15, Type (0, 1), BuildingBlock: TEMPAE_clean_linker_10, # of connection points: 2
#     Edge 16, Type (0, 1), BuildingBlock: TEMPAE_clean_linker_10, # of connection points: 2
#     Edge 17, Type (0, 1), BuildingBlock: TEMPAE_clean_linker_10, # of connection points: 2
#     Edge 18, Type (0, 1), BuildingBlock: TEMPAE_clean_linker_10, # of connection points: 2
#     Edge 19, Type (0, 1), BuildingBlock: TEMPAE_clean_linker_10, # of connection points: 2
#     Edge 20, Type (0, 1), BuildingBlock: TEMPAE_clean_linker_10, # of connection points: 2
#     Edge 21, Type (0, 1), BuildingBlock: TEMPAE_clean_linker_10, # of connection points: 2
#     Edge 22, Type (0, 1), BuildingBlock: TEMPAE_clean_linker_10, # of connection points: 2
#     Edge 23, Type (0, 1), BuildingBlock: TEMPAE_clean_linker_10, # of connection points: 2
#     Edge 24, Type (0, 1), BuildingBlock: TEMPAE_clean_linker_10, # of connection points: 2
#     Edge 25, Type (0, 1), BuildingBlock: TEMPAE_clean_linker_10, # of connection points: 2
#     Edge 26, Type (0, 1), BuildingBlock: TEMPAE_clean_linker_10, # of connection points: 2
#     Edge 27, Type (0, 1), BuildingBlock: TEMPAE_clean_linker_10, # of connection points: 2
#     Edge 28, Type (0, 1), BuildingBlock: TEMPAE_clean_linker_10, # of connection points: 2
#     Edge 29, Type (0, 1), BuildingBlock: TEMPAE_clean_linker_10, # of connection points: 2
#     Edge 30, Type (0, 1), BuildingBlock: TEMPAE_clean_linker_10, # of connection points: 2
#     Edge 31, Type (0, 1), BuildingBlock: TEMPAE_clean_linker_10, # of connection points: 2
#     Edge 32, Type (0, 1), BuildingBlock: TEMPAE_clean_linker_10, # of connection points: 2
#     Edge 33, Type (0, 1), BuildingBlock: TEMPAE_clean_linker_10, # of connection points: 2
#     Edge 34, Type (0, 1), BuildingBlock: TEMPAE_clean_linker_10, # of connection points: 2
#     Edge 35, Type (0, 1), BuildingBlock: TEMPAE_clean_linker_10, # of connection points: 2
#     Edge 36, Type (0, 1), BuildingBlock: TEMPAE_clean_linker_10, # of connection points: 2
#     Edge 37, Type (0, 1), BuildingBlock: TEMPAE_clean_linker_10, # of connection points: 2
# Relax obj value: 0.025
# Max RMSD: 0.173
# Mean RMSD: 0.074
data_MOF--net-pto--node1-KOZSID_clean_sbu_0--node2-PAMTOO_clean_linker_0--edge1-TEMPAE_clean_linker_10
_symmetry_space_group_name_H-M    P1
_symmetry_Int_Tables_number       1
_symmetry_cell_setting            triclinic
loop_
_symmetry_equiv_pos_as_xyz
'x, y, z'
_cell_length_a     39.455796
_cell_length_b     50.46905
_cell_length_c     45.897433
_cell_angle_alpha  81.926861
_cell_angle_beta   80.411185
_cell_angle_gamma 103.04872
loop_
_atom_site_label
_atom_site_type_symbol
_atom_site_fract_x
_atom_site_fract_y
_atom_site_fract_z
_atom_type_partial_charge
H0 H 0.20071 0.27993 0.38574 0.0
H1 H 0.28348 0.25428 0.33078 0.0
H2 H 0.25569 0.32825 0.29944 0.0
H3 H 0.25913 0.29441 0.25558 0.0
C4 C 0.27823 0.28278 0.26247 0.0
O5 O 0.29217 0.29328 0.28537 0.0
H6 H 0.26325 0.26071 0.27051 0.0
C7 C 0.2211 0.28294 0.36586 0.0
C8 C 0.22703 0.30697 0.34404 0.0
C9 C 0.24103 0.26317 0.36197 0.0
C10 C 0.26672 0.26811 0.33503 0.0
C11 C 0.27104 0.29099 0.31246 0.0
C12 C 0.25192 0.31063 0.31721 0.0
H13 H 0.22153 0.80372 0.73587 0.0
H14 H 0.27028 0.76057 0.79809 0.0
H15 H 0.29618 0.84913 0.78114 0.0
H16 H 0.35669 0.82339 0.78327 0.0
C17 C 0.34309 0.80473 0.80084 0.0
O18 O 0.30827 0.80528 0.81061 0.0
H19 H 0.3439 0.78596 0.79088 0.0
C20 C 0.23914 0.80403 0.75166 0.0
C21 C 0.25813 0.82957 0.75668 0.0
C22 C 0.24318 0.7789 0.76644 0.0
C23 C 0.26623 0.77959 0.78676 0.0
C24 C 0.28539 0.80488 0.79174 0.0
C25 C 0.28127 0.82974 0.77688 0.0
H26 H 0.7187 0.80124 0.31285 0.0
H27 H 0.7492 0.72643 0.29802 0.0
H28 H 0.7715 0.76201 0.37424 0.0
H29 H 0.82969 0.7457 0.34725 0.0
C30 C 0.8175 0.73026 0.33446 0.0
O31 O 0.78094 0.72366 0.34338 0.0
H32 H 0.82526 0.73953 0.31004 0.0
C33 C 0.73019 0.78437 0.31963 0.0
C34 C 0.74412 0.78371 0.34585 0.0
C35 C 0.73113 0.76358 0.30221 0.0
C36 C 0.7477 0.74265 0.31095 0.0
C37 C 0.76254 0.7424 0.3366 0.0
C38 C 0.75986 0.7624 0.35445 0.0
H39 H 0.77427 0.32843 0.75922 0.0
H40 H 0.72647 0.24627 0.74709 0.0
H41 H 0.80019 0.30317 0.67424 0.0
H42 H 0.73932 0.27001 0.65656 0.0
C43 C 0.73348 0.25099 0.67401 0.0
O44 O 0.75882 0.25358 0.69151 0.0
H45 H 0.70672 0.24851 0.68813 0.0
C46 C 0.77108 0.31297 0.74522 0.0
C47 C 0.7913 0.31926 0.71557 0.0
C48 C 0.74688 0.28698 0.75708 0.0
C49 C 0.74371 0.26685 0.73869 0.0
C50 C 0.76278 0.27298 0.70899 0.0
C51 C 0.78621 0.29901 0.69744 0.0
H52 H 0.73926 0.81401 0.76651 0.0
H53 H 0.7839 0.74629 0.79322 0.0
H54 H 0.80542 0.78484 0.70037 0.0
H55 H 0.79063 0.72412 0.71182 0.0
C56 C 0.80265 0.72089 0.7319 0.0
O57 O 0.8169 0.74624 0.73883 0.0
H58 H 0.78151 0.70814 0.75106 0.0
C59 C 0.75534 0.79995 0.76078 0.0
C60 C 0.77176 0.802 0.73066 0.0
C61 C 0.75943 0.77997 0.78361 0.0
C62 C 0.78021 0.76177 0.77597 0.0
C63 C 0.79671 0.76364 0.74599 0.0
C64 C 0.79264 0.78375 0.72346 0.0
H65 H 0.7872 0.26273 0.36164 0.0
H66 H 0.71674 0.22704 0.30704 0.0
H67 H 0.7629 0.31449 0.28912 0.0
H68 H 0.68665 0.29714 0.28574 0.0
C69 C 0.68659 0.27741 0.27751 0.0
O70 O 0.72067 0.27398 0.27299 0.0
H71 H 0.6685 0.26004 0.29474 0.0
C72 C 0.77344 0.26505 0.34325 0.0
C73 C 0.77811 0.29149 0.32614 0.0
C74 C 0.75125 0.24158 0.3367 0.0
C75 C 0.73364 0.24484 0.31276 0.0
C76 C 0.73786 0.27109 0.29584 0.0
C77 C 0.76007 0.29429 0.3024 0.0
H78 H 0.22201 0.29477 0.67729 0.0
H79 H 0.26826 0.33513 0.74339 0.0
H80 H 0.28156 0.25503 0.73234 0.0
H81 H 0.26061 0.26556 0.79589 0.0
C82 C 0.27813 0.28688 0.7924 0.0
O83 O 0.2952 0.29498 0.76257 0.0
H84 H 0.26146 0.30116 0.79842 0.0
C85 C 0.23759 0.29495 0.69465 0.0
C86 C 0.25144 0.27221 0.70268 0.0
C87 C 0.24349 0.31779 0.70926 0.0
C88 C 0.26377 0.31786 0.73166 0.0
C89 C 0.27692 0.2951 0.74018 0.0
C90 C 0.27081 0.27238 0.72575 0.0
H91 H 0.19821 0.78217 0.38733 0.0
H92 H 0.26448 0.7629 0.31291 0.0
H93 H 0.29294 0.84263 0.33665 0.0
H94 H 0.31136 0.84701 0.26999 0.0
C95 C 0.3062 0.82432 0.27067 0.0
O96 O 0.30897 0.81158 0.2985 0.0
H97 H 0.27886 0.81699 0.26657 0.0
C98 C 0.22187 0.78807 0.36964 0.0
C99 C 0.24466 0.81489 0.36468 0.0
C100 C 0.22876 0.76903 0.35123 0.0
C101 C 0.25854 0.77718 0.32739 0.0
C102 C 0.28108 0.80377 0.32206 0.0
C103 C 0.27454 0.82236 0.34084 0.0
C104 C 0.06036 0.55519 0.39955 0.0
C105 C 0.06579 0.55898 0.42794 0.0
C106 C 0.04263 0.53725 0.4479 0.0
C107 C 0.02457 0.52149 0.43061 0.0
N108 N 0.03502 0.5317 0.40078 0.0
Co109 Co 0.0158 0.51551 0.36756 0.0
N110 N 0.97795 0.48611 0.39708 0.0
C111 C 0.97171 0.48296 0.42741 0.0
C112 C 0.94342 0.46124 0.44169 0.0
C113 C 0.93076 0.44984 0.41913 0.0
C114 C 0.95229 0.46528 0.39232 0.0
N115 N 0.99763 0.49865 0.33429 0.0
C116 C 0.971 0.47598 0.33554 0.0
C117 C 0.96812 0.47062 0.30707 0.0
C118 C 0.99396 0.49056 0.28709 0.0
C119 C 0.01113 0.50682 0.30442 0.0
N120 N 0.05248 0.54577 0.33805 0.0
C121 C 0.05783 0.54971 0.30768 0.0
C122 C 0.08338 0.57325 0.29345 0.0
C123 C 0.09462 0.58542 0.31605 0.0
C124 C 0.07526 0.5684 0.34286 0.0
N125 N 0.04904 0.49118 0.36755 0.0
C126 C 0.09071 0.45256 0.36552 0.0
C127 C 0.0933 0.47251 0.34031 0.0
C128 C 0.07245 0.49139 0.3418 0.0
C129 C 0.06818 0.45317 0.39221 0.0
C130 C 0.04799 0.47263 0.39278 0.0
N131 N 0.98256 0.53961 0.36748 0.0
C132 C 0.95258 0.56837 0.34022 0.0
C133 C 0.93754 0.57553 0.36675 0.0
C134 C 0.94493 0.56414 0.39376 0.0
C135 C 0.96712 0.54612 0.39365 0.0
C136 C 0.97497 0.55063 0.34106 0.0
H137 H 0.97163 0.53789 0.41496 0.0
H138 H 0.98619 0.54643 0.31998 0.0
H139 H 0.07546 0.50564 0.3216 0.0
H140 H 0.03126 0.47183 0.41378 0.0
C141 C 0.9946 0.49935 0.4418 0.0
C142 C 0.07858 0.57512 0.37227 0.0
C143 C 0.94799 0.45881 0.36301 0.0
C144 C 0.03851 0.53081 0.29324 0.0
H145 H 0.08391 0.5761 0.43362 0.0
H146 H 0.03835 0.53402 0.47219 0.0
H147 H 0.93364 0.45417 0.46565 0.0
H148 H 0.90857 0.43192 0.42205 0.0
H149 H 0.94924 0.45402 0.30133 0.0
H150 H 0.99937 0.49306 0.26282 0.0
H151 H 0.0924 0.58086 0.2695 0.0
H152 H 0.11444 0.60483 0.31314 0.0
H153 H 0.11118 0.47349 0.31931 0.0
H154 H 0.06524 0.4382 0.41243 0.0
H155 H 0.94787 0.57701 0.31873 0.0
H156 H 0.93357 0.56903 0.41487 0.0
C157 C 0.09748 0.57436 0.74574 0.0
C158 C 0.10079 0.57427 0.77537 0.0
C159 C 0.07536 0.55195 0.79232 0.0
C160 C 0.05819 0.53971 0.77212 0.0
N161 N 0.07143 0.55269 0.74326 0.0
Co162 Co 0.05468 0.54196 0.70669 0.0
N163 N 0.01272 0.513 0.7319 0.0
C164 C 0.00316 0.50762 0.76227 0.0
C165 C 0.97112 0.48865 0.77322 0.0
C166 C 0.95968 0.48126 0.74837 0.0
C167 C 0.98593 0.49577 0.72358 0.0
N168 N 0.03889 0.53025 0.67006 0.0
C169 C 0.01211 0.50893 0.66767 0.0
C170 C 0.01321 0.50597 0.6379 0.0
C171 C 0.04123 0.52632 0.62093 0.0
C172 C 0.05597 0.54026 0.64116 0.0
N173 N 0.09545 0.57225 0.6816 0.0
C174 C 0.10411 0.57888 0.65126 0.0
C175 C 0.13163 0.60208 0.64048 0.0
C176 C 0.14057 0.61123 0.66547 0.0
C177 C 0.118 0.59287 0.69007 0.0
N178 N 0.08427 0.51475 0.70612 0.0
C179 C 0.12245 0.47365 0.70364 0.0
C180 C 0.1301 0.49647 0.68029 0.0
C181 C 0.11085 0.51651 0.68193 0.0
C182 C 0.0959 0.4722 0.72856 0.0
C183 C 0.07763 0.49285 0.72946 0.0
N184 N 0.02498 0.56878 0.70727 0.0
C185 C 0.99861 0.60139 0.68127 0.0
C186 C 0.9795 0.60443 0.70856 0.0
C187 C 0.98441 0.59005 0.73514 0.0
C188 C 0.00727 0.57266 0.73401 0.0
C189 C 0.02101 0.58347 0.68113 0.0
H190 H 0.00998 0.56238 0.7551 0.0
H191 H 0.03458 0.58157 0.65966 0.0
H192 H 0.1179 0.53307 0.66315 0.0
H193 H 0.05789 0.49031 0.74922 0.0
C194 C 0.02589 0.51955 0.77986 0.0
C195 C 0.11789 0.59644 0.721 0.0
C196 C 0.98568 0.49075 0.69296 0.0
C197 C 0.08552 0.56301 0.63367 0.0
H198 H 0.11879 0.5894 0.78389 0.0
H199 H 0.06877 0.54633 0.81661 0.0
H200 H 0.95795 0.48078 0.79649 0.0
H201 H 0.93517 0.46627 0.74859 0.0
H202 H 0.99598 0.49055 0.62917 0.0
H203 H 0.05006 0.53027 0.59674 0.0
H204 H 0.14327 0.61156 0.61724 0.0
H205 H 0.16094 0.62959 0.6656 0.0
H206 H 0.15096 0.499 0.66074 0.0
H207 H 0.08856 0.45488 0.7472 0.0
H208 H 0.99562 0.61223 0.66012 0.0
H209 H 0.97069 0.59225 0.75682 0.0
C210 C 0.26326 0.0063 0.59049 0.0
C211 C 0.29782 0.00377 0.5891 0.0
C212 C 0.31592 0.01455 0.56016 0.0
C213 C 0.29165 0.02326 0.54555 0.0
N214 N 0.25956 0.01907 0.56365 0.0
Co215 Co 0.21716 0.02842 0.55138 0.0
N216 N 0.24655 0.05322 0.51428 0.0
C217 C 0.27907 0.05242 0.50052 0.0
C218 C 0.29206 0.07158 0.47433 0.0
C219 C 0.26603 0.08524 0.47164 0.0
C220 C 0.23874 0.07373 0.4966 0.0
N221 N 0.17513 0.03835 0.53893 0.0
C222 C 0.17379 0.06159 0.52084 0.0
C223 C 0.13876 0.06226 0.52099 0.0
C224 C 0.11778 0.03818 0.53905 0.0
C225 C 0.14093 0.02437 0.5494 0.0
N226 N 0.18743 0.00303 0.58825 0.0
C227 C 0.15199 0.99239 0.59316 0.0
C228 C 0.13859 0.97462 0.62022 0.0
C229 C 0.16743 0.97367 0.63292 0.0
C230 C 0.19701 0.99103 0.61281 0.0
N231 N 0.22286 0.05927 0.57308 0.0
C232 C 0.2294 0.10583 0.60072 0.0
C233 C 0.19696 0.08573 0.60604 0.0
C234 C 0.19422 0.06281 0.59193 0.0
C235 C 0.25875 0.10163 0.58174 0.0
C236 C 0.25499 0.07816 0.56839 0.0
N237 N 0.21149 0.99764 0.52949 0.0
C238 C 0.21736 0.95192 0.52489 0.0
C239 C 0.21073 0.95556 0.49581 0.0
C240 C 0.20295 0.98018 0.48433 0.0
C241 C 0.20365 0.00104 0.50147 0.0
C242 C 0.2172 0.97304 0.54146 0.0
H243 H 0.19887 0.02024 0.4917 0.0
H244 H 0.22264 0.96963 0.56368 0.0
H245 H 0.16868 0.04816 0.59596 0.0
H246 H 0.27793 0.0756 0.55375 0.0
C247 C 0.29889 0.03776 0.51592 0.0
C248 C 0.2338 0.99255 0.61604 0.0
C249 C 0.20556 0.08232 0.50279 0.0
C250 C 0.13181 0.0025 0.57398 0.0
H251 H 0.30847 0.99416 0.60687 0.0
H252 H 0.34354 0.01604 0.55097 0.0
H253 H 0.31803 0.07609 0.45978 0.0
H254 H 0.2672 0.10197 0.45363 0.0
H255 H 0.12896 0.07853 0.51012 0.0
H256 H 0.08907 0.03249 0.54564 0.0
H257 H 0.11107 0.96403 0.62985 0.0
H258 H 0.16684 0.96108 0.65422 0.0
H259 H 0.17368 0.0876 0.62102 0.0
H260 H 0.28432 0.11662 0.57664 0.0
H261 H 0.22302 0.93298 0.53465 0.0
H262 H 0.19774 0.98371 0.46186 0.0
C263 C 0.5043 0.81384 0.08304 0.0
C264 C 0.5034 0.84042 0.08731 0.0
C265 C 0.5317 0.85814 0.06745 0.0
C266 C 0.5482 0.8415 0.05226 0.0
N267 N 0.53218 0.81416 0.0612 0.0
Co268 Co 0.54726 0.7828 0.04481 0.0
N269 N 0.58955 0.80891 0.01642 0.0
C270 C 0.60075 0.83656 0.01474 0.0
C271 C 0.63081 0.84891 0.99314 0.0
C272 C 0.63923 0.82792 0.9801 0.0
C273 C 0.61365 0.80391 0.99456 0.0
N274 N 0.56141 0.75157 0.0274 0.0
C275 C 0.58735 0.7522 0.00371 0.0
C276 C 0.58702 0.72589 0.99792 0.0
C277 C 0.5596 0.70795 0.01852 0.0
C278 C 0.54479 0.72429 0.03554 0.0
N279 N 0.50575 0.75658 0.07404 0.0
C280 C 0.49691 0.72862 0.07801 0.0
C281 C 0.4678 0.71613 0.1005 0.0
C282 C 0.45758 0.73734 0.11182 0.0
C283 C 0.48121 0.76165 0.09551 0.0
N284 N 0.51766 0.78623 0.01428 0.0
C285 C 0.47744 0.79075 0.96946 0.0
C286 C 0.47382 0.76527 0.98768 0.0
C287 C 0.49384 0.76351 0.00992 0.0
C288 C 0.50116 0.814 0.97429 0.0
C289 C 0.52098 0.81128 0.99655 0.0
N290 N 0.57698 0.77933 0.07549 0.0
C291 C 0.60092 0.7511 0.1097 0.0
C292 C 0.61628 0.77409 0.12122 0.0
C293 C 0.61222 0.79985 0.10885 0.0
C294 C 0.59313 0.80203 0.086 0.0
C295 C 0.58131 0.75411 0.08733 0.0
H296 H 0.59153 0.82232 0.07755 0.0
H297 H 0.56976 0.73559 0.08023 0.0
H298 H 0.48977 0.74355 0.02321 0.0
H299 H 0.53908 0.82967 0.99883 0.0
C300 C 0.58033 0.8507 0.03133 0.0
C301 C 0.47912 0.78898 0.10128 0.0
C302 C 0.61237 0.77716 0.98574 0.0
C303 C 0.51553 0.71473 0.05946 0.0
H304 H 0.48472 0.84639 0.10356 0.0
H305 H 0.53983 0.88045 0.06496 0.0
H306 H 0.64424 0.87072 0.98687 0.0
H307 H 0.6612 0.83012 0.96156 0.0
H308 H 0.60465 0.72032 0.98044 0.0
H309 H 0.55125 0.68569 0.02066 0.0
H310 H 0.45535 0.69421 0.10768 0.0
H311 H 0.43524 0.73518 0.13001 0.0
H312 H 0.45539 0.74675 0.98494 0.0
H313 H 0.50501 0.83414 0.96051 0.0
H314 H 0.60384 0.73071 0.11786 0.0
H315 H 0.62304 0.81838 0.11709 0.0
C316 C 0.7782 0.97911 0.56454 0.0
C317 C 0.81206 0.97806 0.5684 0.0
C318 C 0.83541 0.99758 0.54612 0.0
C319 C 0.81458 0.00932 0.52996 0.0
N320 N 0.77927 0.99878 0.54081 0.0
Co321 Co 0.73946 0.00873 0.52329 0.0
N322 N 0.77392 0.03629 0.48947 0.0
C323 C 0.80985 0.04257 0.48455 0.0
C324 C 0.82627 0.06316 0.46021 0.0
C325 C 0.79924 0.07087 0.44915 0.0
C326 C 0.76778 0.05438 0.46746 0.0
N327 N 0.69968 0.0184 0.50553 0.0
C328 C 0.70077 0.03817 0.4819 0.0
C329 C 0.66702 0.03856 0.47728 0.0
C330 C 0.64363 0.01856 0.49912 0.0
C331 C 0.66439 0.00713 0.51571 0.0
N332 N 0.70501 0.98146 0.55736 0.0
C333 C 0.66908 0.97571 0.56269 0.0
C334 C 0.65267 0.95564 0.58752 0.0
C335 C 0.6797 0.94784 0.59855 0.0
C336 C 0.71111 0.96363 0.57964 0.0
N337 N 0.73911 0.03847 0.54732 0.0
C338 C 0.73822 0.08337 0.57739 0.0
C339 C 0.70665 0.06479 0.57606 0.0
C340 C 0.7077 0.04266 0.56112 0.0
C341 C 0.77032 0.0786 0.5642 0.0
C342 C 0.77015 0.05617 0.54947 0.0
N343 N 0.73975 0.97904 0.49917 0.0
C344 C 0.70872 0.93823 0.48334 0.0
C345 C 0.74029 0.9361 0.46599 0.0
C346 C 0.77157 0.95596 0.46546 0.0
C347 C 0.77073 0.97694 0.48218 0.0
C348 C 0.70903 0.95974 0.49942 0.0
H349 H 0.79553 0.99117 0.48102 0.0
H350 H 0.68406 0.96015 0.51206 0.0
H351 H 0.68269 0.02946 0.56073 0.0
H352 H 0.79544 0.05388 0.53956 0.0
C353 C 0.82739 0.02952 0.50391 0.0
C354 C 0.74595 0.9601 0.58303 0.0
C355 C 0.73289 0.05786 0.4642 0.0
C356 C 0.65153 0.98779 0.54249 0.0
H357 H 0.81918 0.9642 0.5852 0.0
H358 H 0.86415 0.0022 0.54179 0.0
H359 H 0.85451 0.07201 0.45197 0.0
H360 H 0.80236 0.08725 0.43021 0.0
H361 H 0.66007 0.05237 0.46031 0.0
H362 H 0.6149 0.01362 0.50311 0.0
H363 H 0.62443 0.94706 0.59602 0.0
H364 H 0.67666 0.93187 0.6179 0.0
H365 H 0.68111 0.06729 0.58649 0.0
H366 H 0.79551 0.09249 0.56453 0.0
H367 H 0.68381 0.92317 0.48492 0.0
H368 H 0.79668 0.95554 0.452 0.0
C369 C 0.47399 0.31269 0.05288 0.0
C370 C 0.47253 0.33908 0.05739 0.0
C371 C 0.49942 0.35717 0.03646 0.0
C372 C 0.51558 0.34088 0.02038 0.0
N373 N 0.50038 0.31344 0.02949 0.0
Co374 Co 0.51582 0.28235 0.0128 0.0
N375 N 0.55727 0.30886 0.98379 0.0
C376 C 0.56691 0.33674 0.98101 0.0
C377 C 0.59746 0.34931 0.96012 0.0
C378 C 0.60771 0.32829 0.94846 0.0
C379 C 0.58238 0.304 0.96267 0.0
N380 N 0.53126 0.25125 0.99602 0.0
C381 C 0.55733 0.25196 0.97229 0.0
C382 C 0.5567 0.22556 0.96649 0.0
C383 C 0.5299 0.20759 0.98752 0.0
C384 C 0.5153 0.22386 0.00467 0.0
N385 N 0.47442 0.25583 0.04199 0.0
C386 C 0.46507 0.22792 0.04518 0.0
C387 C 0.43647 0.21517 0.06801 0.0
C388 C 0.42715 0.23612 0.08047 0.0
C389 C 0.45065 0.26058 0.06432 0.0
N390 N 0.48579 0.28492 0.98231 0.0
C391 C 0.44385 0.2882 0.93853 0.0
C392 C 0.44365 0.2627 0.95494 0.0
C393 C 0.46445 0.26156 0.97663 0.0
C394 C 0.46523 0.31209 0.94444 0.0
C395 C 0.48601 0.30998 0.96611 0.0
N396 N 0.54568 0.27979 0.04337 0.0
C397 C 0.56259 0.25277 0.08371 0.0
C398 C 0.58255 0.27671 0.09073 0.0
C399 C 0.5849 0.30211 0.07293 0.0
C400 C 0.56639 0.30317 0.04959 0.0
C401 C 0.54476 0.25475 0.05996 0.0
H402 H 0.56864 0.32322 0.03737 0.0
H403 H 0.52992 0.23578 0.0558 0.0
H404 H 0.46276 0.2415 0.98846 0.0
H405 H 0.50216 0.3289 0.96923 0.0
C406 C 0.54649 0.35059 0.99809 0.0
C407 C 0.45044 0.28762 0.07202 0.0
C408 C 0.58236 0.27712 0.95416 0.0
C409 C 0.48489 0.21418 0.02747 0.0
H410 H 0.45432 0.34462 0.07444 0.0
H411 H 0.50691 0.37951 0.03381 0.0
H412 H 0.61054 0.37119 0.95391 0.0
H413 H 0.63093 0.33068 0.93106 0.0
H414 H 0.57315 0.21966 0.94853 0.0
H415 H 0.52125 0.18536 0.98941 0.0
H416 H 0.42447 0.19319 0.07529 0.0
H417 H 0.40598 0.23356 0.09976 0.0
H418 H 0.4271 0.24365 0.95136 0.0
H419 H 0.46635 0.33231 0.93207 0.0
H420 H 0.56055 0.23257 0.09662 0.0
H421 H 0.59997 0.32124 0.07762 0.0
C422 C 0.22421 0.35637 0.34065 0.0
C423 C 0.20685 0.32809 0.34891 0.0
C424 C 0.20553 0.37664 0.34432 0.0
C425 C 0.16864 0.36846 0.35681 0.0
C426 C 0.15104 0.33999 0.36571 0.0
C427 C 0.17032 0.32014 0.3615 0.0
C428 C 0.22518 0.40681 0.33441 0.0
C429 C 0.11173 0.3305 0.37922 0.0
C430 C 0.12603 0.42204 0.38738 0.0
C431 C 0.1106 0.4309 0.36359 0.0
C432 C 0.14469 0.40149 0.38565 0.0
C433 C 0.14824 0.38972 0.35943 0.0
C434 C 0.13269 0.39851 0.33539 0.0
C435 C 0.1139 0.41884 0.33784 0.0
C436 C 0.16076 0.39248 0.4118 0.0
C437 C 0.13601 0.3865 0.307 0.0
H438 H 0.25253 0.36267 0.33134 0.0
H439 H 0.15659 0.29835 0.36755 0.0
H440 H 0.21377 0.41662 0.31652 0.0
H441 H 0.22193 0.4179 0.3535 0.0
H442 H 0.25403 0.40972 0.32566 0.0
H443 H 0.10241 0.30766 0.38638 0.0
H444 H 0.10551 0.34024 0.399 0.0
H445 H 0.09647 0.33715 0.36258 0.0
H446 H 0.12393 0.43142 0.40722 0.0
H447 H 0.10145 0.42511 0.31961 0.0
H448 H 0.19004 0.39688 0.40448 0.0
H449 H 0.15058 0.36981 0.41983 0.0
H450 H 0.15475 0.40311 0.43092 0.0
H451 H 0.16448 0.39008 0.29646 0.0
H452 H 0.12247 0.39569 0.29033 0.0
H453 H 0.1244 0.36379 0.31246 0.0
C454 C 0.22216 0.74919 0.73025 0.0
C455 C 0.22429 0.75205 0.75992 0.0
C456 C 0.20482 0.72393 0.72365 0.0
C457 C 0.18935 0.70091 0.74726 0.0
C458 C 0.19139 0.70361 0.77725 0.0
C459 C 0.20879 0.72916 0.78322 0.0
C460 C 0.20319 0.72184 0.69138 0.0
C461 C 0.17517 0.67951 0.80302 0.0
C462 C 0.11727 0.64257 0.73399 0.0
C463 C 0.13643 0.62323 0.72745 0.0
C464 C 0.13418 0.668 0.74049 0.0
C465 C 0.17102 0.67398 0.74055 0.0
C466 C 0.19038 0.6543 0.73402 0.0
C467 C 0.17276 0.62907 0.7275 0.0
C468 C 0.11266 0.68845 0.74723 0.0
C469 C 0.22962 0.65989 0.73397 0.0
H470 H 0.23458 0.76663 0.71205 0.0
H471 H 0.20999 0.7313 0.80623 0.0
H472 H 0.21636 0.70582 0.68448 0.0
H473 H 0.1751 0.71531 0.68913 0.0
H474 H 0.21622 0.74176 0.67567 0.0
H475 H 0.17925 0.68498 0.82503 0.0
H476 H 0.1462 0.6722 0.80408 0.0
H477 H 0.18697 0.66197 0.79936 0.0
H478 H 0.08906 0.63773 0.73396 0.0
H479 H 0.18727 0.61384 0.72252 0.0
H480 H 0.12389 0.70817 0.73087 0.0
H481 H 0.11411 0.6932 0.76993 0.0
H482 H 0.08428 0.68058 0.74625 0.0
H483 H 0.24434 0.67877 0.71723 0.0
H484 H 0.24071 0.64237 0.72858 0.0
H485 H 0.23443 0.66381 0.7563 0.0
C486 C 0.81607 0.68429 0.36573 0.0
C487 C 0.83159 0.70508 0.34027 0.0
C488 C 0.83065 0.66169 0.37193 0.0
C489 C 0.86196 0.66034 0.35266 0.0
C490 C 0.878 0.68151 0.32722 0.0
C491 C 0.86263 0.70364 0.32139 0.0
C492 C 0.81278 0.63942 0.39919 0.0
C493 C 0.91168 0.68099 0.30636 0.0
C494 C 0.92281 0.61845 0.38021 0.0
C495 C 0.91555 0.5957 0.36583 0.0
C496 C 0.90469 0.63927 0.37693 0.0
C497 C 0.87848 0.63705 0.35912 0.0
C498 C 0.86995 0.61348 0.34567 0.0
C499 C 0.88878 0.59316 0.34903 0.0
C500 C 0.91478 0.66422 0.39138 0.0
C501 C 0.84181 0.61021 0.32688 0.0
H502 H 0.79261 0.68574 0.38085 0.0
H503 H 0.87513 0.72008 0.30215 0.0
H504 H 0.8064 0.61892 0.39239 0.0
H505 H 0.83111 0.63848 0.41498 0.0
H506 H 0.7879 0.64305 0.4113 0.0
H507 H 0.92076 0.69908 0.28756 0.0
H508 H 0.93322 0.68084 0.31909 0.0
H509 H 0.90739 0.66181 0.29676 0.0
H510 H 0.94373 0.62054 0.39298 0.0
H511 H 0.88291 0.57539 0.33818 0.0
H512 H 0.89078 0.66791 0.40484 0.0
H513 H 0.92705 0.68289 0.37365 0.0
H514 H 0.93389 0.66187 0.4062 0.0
H515 H 0.81672 0.61305 0.33949 0.0
H516 H 0.83625 0.58961 0.32015 0.0
H517 H 0.85061 0.6264 0.30624 0.0
C518 C 0.81475 0.36998 0.71635 0.0
C519 C 0.81858 0.34639 0.70437 0.0
C520 C 0.84277 0.39394 0.71045 0.0
C521 C 0.87455 0.39537 0.6901 0.0
C522 C 0.87718 0.37302 0.67518 0.0
C523 C 0.84976 0.3485 0.68319 0.0
C524 C 0.83888 0.41716 0.72723 0.0
C525 C 0.90946 0.3746 0.65148 0.0
C526 C 0.93522 0.46812 0.67039 0.0
C527 C 0.96014 0.46575 0.68843 0.0
C528 C 0.90893 0.44481 0.66857 0.0
C529 C 0.90602 0.41904 0.68694 0.0
C530 C 0.93158 0.41653 0.70478 0.0
C531 C 0.95907 0.43971 0.70441 0.0
C532 C 0.88373 0.44825 0.64778 0.0
C533 C 0.9286 0.38989 0.72588 0.0
H534 H 0.79024 0.3696 0.73124 0.0
H535 H 0.85359 0.33079 0.67347 0.0
H536 H 0.86154 0.42266 0.73861 0.0
H537 H 0.83917 0.43584 0.71122 0.0
H538 H 0.81378 0.41165 0.74442 0.0
H539 H 0.90383 0.35879 0.63714 0.0
H540 H 0.91874 0.39541 0.63689 0.0
H541 H 0.93145 0.37097 0.66239 0.0
H542 H 0.93587 0.48828 0.65811 0.0
H543 H 0.97858 0.4379 0.71815 0.0
H544 H 0.86087 0.45452 0.65977 0.0
H545 H 0.87341 0.42878 0.63987 0.0
H546 H 0.89701 0.46479 0.62788 0.0
H547 H 0.94989 0.39181 0.73913 0.0
H548 H 0.93008 0.37301 0.71307 0.0
H549 H 0.90245 0.38366 0.74175 0.0
C550 C 0.24474 0.21378 0.37768 0.0
C551 C 0.23436 0.23731 0.3853 0.0
C552 C 0.23947 0.18979 0.39918 0.0
C553 C 0.22054 0.18803 0.42867 0.0
C554 C 0.20868 0.21097 0.43653 0.0
C555 C 0.21703 0.2356 0.41526 0.0
C556 C 0.25415 0.16627 0.39011 0.0
C557 C 0.18656 0.20937 0.46726 0.0
C558 C 0.18233 0.11318 0.46734 0.0
C559 C 0.20479 0.11015 0.48753 0.0
C560 C 0.18505 0.13911 0.45011 0.0
C561 C 0.21303 0.16198 0.45103 0.0
C562 C 0.23593 0.15902 0.47128 0.0
C563 C 0.23077 0.13334 0.48995 0.0
C564 C 0.15889 0.14162 0.42997 0.0
C565 C 0.26766 0.18218 0.4715 0.0
H566 H 0.25684 0.21357 0.35484 0.0
H567 H 0.20963 0.25332 0.42253 0.0
H568 H 0.26727 0.1579 0.4076 0.0
H569 H 0.23219 0.14921 0.38766 0.0
H570 H 0.27372 0.17283 0.3684 0.0
H571 H 0.17598 0.22786 0.46871 0.0
H572 H 0.16387 0.19066 0.47276 0.0
H573 H 0.20272 0.20753 0.48465 0.0
H574 H 0.16361 0.09517 0.46392 0.0
H575 H 0.24863 0.13086 0.50513 0.0
H576 H 0.17102 0.14076 0.40665 0.0
H577 H 0.15159 0.16163 0.42962 0.0
H578 H 0.13426 0.1245 0.43738 0.0
H579 H 0.2866 0.18661 0.44957 0.0
H580 H 0.28177 0.17696 0.48968 0.0
H581 H 0.25954 0.20145 0.4743 0.0
C582 C 0.39779 0.81836 0.82239 0.0
C583 C 0.36203 0.80389 0.82675 0.0
C584 C 0.41655 0.81663 0.84573 0.0
C585 C 0.39911 0.79997 0.87405 0.0
C586 C 0.36301 0.78523 0.87855 0.0
C587 C 0.34502 0.7871 0.85471 0.0
C588 C 0.45517 0.83233 0.83994 0.0
C589 C 0.34348 0.76732 0.90847 0.0
C590 C 0.45539 0.77409 0.92557 0.0
C591 C 0.45702 0.79298 0.94528 0.0
C592 C 0.43669 0.77617 0.90224 0.0
C593 C 0.41888 0.79747 0.89877 0.0
C594 C 0.4202 0.81647 0.91877 0.0
C595 C 0.43945 0.81409 0.9417 0.0
C596 C 0.43629 0.75574 0.88113 0.0
C597 C 0.4012 0.83925 0.91598 0.0
H598 H 0.41118 0.83085 0.80058 0.0
H599 H 0.31762 0.77535 0.85789 0.0
H600 H 0.45914 0.84662 0.85608 0.0
H601 H 0.47186 0.81766 0.84351 0.0
H602 H 0.46471 0.84456 0.81673 0.0
H603 H 0.3151 0.75803 0.9086 0.0
H604 H 0.35637 0.75039 0.91396 0.0
H605 H 0.34486 0.77975 0.92656 0.0
H606 H 0.46932 0.75795 0.92808 0.0
H607 H 0.44042 0.82856 0.9571 0.0
H608 H 0.44777 0.76691 0.85771 0.0
H609 H 0.40852 0.7444 0.88176 0.0
H610 H 0.45156 0.74044 0.88687 0.0
H611 H 0.41155 0.85292 0.89362 0.0
H612 H 0.40441 0.85207 0.93362 0.0
H613 H 0.37242 0.83022 0.91764 0.0
C614 C 0.75684 0.83362 0.34979 0.0
C615 C 0.74323 0.8058 0.36372 0.0
C616 C 0.75664 0.85483 0.36647 0.0
C617 C 0.7419 0.84799 0.3977 0.0
C618 C 0.72783 0.81989 0.41182 0.0
C619 C 0.72899 0.79908 0.39467 0.0
C620 C 0.77245 0.88453 0.35075 0.0
C621 C 0.71133 0.81186 0.44497 0.0
C622 C 0.76894 0.90072 0.44637 0.0
C623 C 0.74057 0.91334 0.44865 0.0
C624 C 0.76975 0.87947 0.4298 0.0
C625 C 0.74124 0.87028 0.41557 0.0
C626 C 0.71231 0.88263 0.41806 0.0
C627 C 0.71247 0.90415 0.43435 0.0
C628 C 0.80121 0.86694 0.42739 0.0
C629 C 0.68127 0.87318 0.4034 0.0
H630 H 0.76818 0.83872 0.32588 0.0
H631 H 0.71827 0.77752 0.40533 0.0
H632 H 0.75196 0.89637 0.35315 0.0
H633 H 0.79412 0.89442 0.36136 0.0
H634 H 0.78334 0.88629 0.32642 0.0
H635 H 0.70112 0.78909 0.4524 0.0
H636 H 0.73119 0.81959 0.45831 0.0
H637 H 0.68903 0.82161 0.45015 0.0
H638 H 0.79047 0.90729 0.45776 0.0
H639 H 0.6907 0.91403 0.43556 0.0
H640 H 0.81397 0.86926 0.40341 0.0
H641 H 0.79222 0.84444 0.43679 0.0
H642 H 0.82147 0.87669 0.43946 0.0
H643 H 0.69053 0.87668 0.37867 0.0
H644 H 0.66023 0.88422 0.40844 0.0
H645 H 0.66941 0.85063 0.4112 0.0
C646 C 0.73582 0.2956 0.81041 0.0
C647 C 0.72422 0.28149 0.78807 0.0
C648 C 0.71299 0.2938 0.83793 0.0
C649 C 0.67846 0.27583 0.8444 0.0
C650 C 0.66749 0.2597 0.8232 0.0
C651 C 0.68999 0.26333 0.79502 0.0
C652 C 0.72531 0.31216 0.85945 0.0
C653 C 0.63156 0.23915 0.8299 0.0
C654 C 0.63139 0.26008 0.92651 0.0
C655 C 0.60644 0.27589 0.92594 0.0
C656 C 0.65385 0.25875 0.8999 0.0
C657 C 0.65311 0.27525 0.8725 0.0
C658 C 0.62865 0.2919 0.872 0.0
C659 C 0.60488 0.29133 0.89857 0.0
C660 C 0.67815 0.23958 0.90113 0.0
C661 C 0.62815 0.31087 0.84361 0.0
H662 H 0.76258 0.30867 0.80636 0.0
H663 H 0.68007 0.25239 0.77827 0.0
H664 H 0.70656 0.32515 0.86434 0.0
H665 H 0.72552 0.2994 0.8811 0.0
H666 H 0.75237 0.326 0.85038 0.0
H667 H 0.62958 0.22494 0.81348 0.0
H668 H 0.62622 0.22661 0.85285 0.0
H669 H 0.61046 0.25031 0.82909 0.0
H670 H 0.63299 0.24848 0.94776 0.0
H671 H 0.58559 0.30359 0.89817 0.0
H672 H 0.70612 0.2518 0.89738 0.0
H673 H 0.67623 0.22715 0.88307 0.0
H674 H 0.6717 0.22526 0.92315 0.0
H675 H 0.65513 0.32463 0.83407 0.0
H676 H 0.60925 0.32393 0.84759 0.0
H677 H 0.62052 0.29855 0.82647 0.0
C678 C 0.22134 0.85915 0.73588 0.0
C679 C 0.25476 0.85593 0.73987 0.0
C680 C 0.21809 0.88297 0.71792 0.0
C681 C 0.249 0.90408 0.7036 0.0
C682 C 0.28267 0.90146 0.70851 0.0
C683 C 0.28515 0.8774 0.72658 0.0
C684 C 0.18169 0.88505 0.71331 0.0
C685 C 0.31625 0.9235 0.69356 0.0
C686 C 0.24476 0.9463 0.62988 0.0
C687 C 0.23956 0.9708 0.6386 0.0
C688 C 0.24836 0.92463 0.65079 0.0
C689 C 0.24643 0.92751 0.68123 0.0
C690 C 0.24135 0.95236 0.69012 0.0
C691 C 0.23789 0.97381 0.66859 0.0
C692 C 0.25369 0.8985 0.64036 0.0
C693 C 0.23907 0.95609 0.72237 0.0
H694 H 0.19771 0.84281 0.7465 0.0
H695 H 0.31109 0.87495 0.72935 0.0
H696 H 0.17714 0.90512 0.71782 0.0
H697 H 0.17997 0.88426 0.68955 0.0
H698 H 0.16011 0.86803 0.72803 0.0
H699 H 0.33986 0.91959 0.7019 0.0
H700 H 0.3211 0.92423 0.66891 0.0
H701 H 0.31337 0.94416 0.69744 0.0
H702 H 0.24559 0.94404 0.60664 0.0
H703 H 0.23349 0.99277 0.67516 0.0
H704 H 0.23131 0.88066 0.65226 0.0
H705 H 0.27842 0.89412 0.64592 0.0
H706 H 0.25541 0.89989 0.61576 0.0
H707 H 0.21604 0.94031 0.737 0.0
H708 H 0.23612 0.97697 0.72543 0.0
H709 H 0.26327 0.95291 0.73013 0.0
C710 C 0.68412 0.77323 0.27455 0.0
C711 C 0.71508 0.76398 0.27499 0.0
C712 C 0.66922 0.77462 0.24888 0.0
C713 C 0.68492 0.7657 0.22326 0.0
C714 C 0.71562 0.75572 0.22368 0.0
C715 C 0.73062 0.75535 0.24936 0.0
C716 C 0.63677 0.78583 0.24914 0.0
C717 C 0.73261 0.74545 0.19699 0.0
C718 C 0.6242 0.74743 0.16913 0.0
C719 C 0.63545 0.77118 0.14643 0.0
C720 C 0.64103 0.7449 0.19363 0.0
C721 C 0.66912 0.76699 0.19604 0.0
C722 C 0.68093 0.79088 0.17316 0.0
C723 C 0.66434 0.7925 0.14844 0.0
C724 C 0.62819 0.71883 0.21729 0.0
C725 C 0.71042 0.81507 0.17521 0.0
H726 H 0.67128 0.77932 0.29436 0.0
H727 H 0.75481 0.74858 0.24914 0.0
H728 H 0.64218 0.80354 0.23022 0.0
H729 H 0.61419 0.76969 0.2459 0.0
H730 H 0.62857 0.79286 0.27048 0.0
H731 H 0.75541 0.73714 0.20142 0.0
H732 H 0.71269 0.72893 0.19095 0.0
H733 H 0.74216 0.76253 0.1772 0.0
H734 H 0.60161 0.73097 0.16826 0.0
H735 H 0.67393 0.81067 0.13078 0.0
H736 H 0.61579 0.72361 0.23878 0.0
H737 H 0.65093 0.7104 0.22153 0.0
H738 H 0.60839 0.70258 0.21069 0.0
H739 H 0.70258 0.8235 0.19566 0.0
H740 H 0.71684 0.832 0.15531 0.0
H741 H 0.73484 0.80821 0.17734 0.0
C742 C 0.71353 0.19988 0.67477 0.0
C743 C 0.73367 0.22616 0.65945 0.0
C744 C 0.7142 0.17635 0.66185 0.0
C745 C 0.73583 0.17925 0.6331 0.0
C746 C 0.75666 0.20575 0.61776 0.0
C747 C 0.75547 0.22891 0.63124 0.0
C748 C 0.69174 0.14843 0.67893 0.0
C749 C 0.78016 0.20963 0.58714 0.0
C750 C 0.76169 0.11589 0.61022 0.0
C751 C 0.73758 0.10782 0.59188 0.0
C752 C 0.76143 0.1391 0.62381 0.0
C753 C 0.73644 0.15458 0.61894 0.0
C754 C 0.71204 0.14655 0.60046 0.0
C755 C 0.71294 0.1233 0.58712 0.0
C756 C 0.78783 0.14703 0.64342 0.0
C757 C 0.68508 0.1626 0.59467 0.0
H758 H 0.69723 0.1978 0.69687 0.0
H759 H 0.77154 0.24923 0.61973 0.0
H760 H 0.67267 0.13926 0.66559 0.0
H761 H 0.70885 0.13409 0.68252 0.0
H762 H 0.67658 0.14971 0.70114 0.0
H763 H 0.7948 0.2316 0.5783 0.0
H764 H 0.79974 0.19701 0.58828 0.0
H765 H 0.76388 0.20229 0.57095 0.0
H766 H 0.78053 0.10384 0.61424 0.0
H767 H 0.69463 0.11745 0.57258 0.0
H768 H 0.77355 0.14675 0.66647 0.0
H769 H 0.80443 0.16843 0.63445 0.0
H770 H 0.80561 0.13288 0.64483 0.0
H771 H 0.66802 0.16316 0.61627 0.0
H772 H 0.66779 0.1535 0.57992 0.0
H773 H 0.69888 0.18432 0.58392 0.0
C774 C 0.31925 0.26211 0.22982 0.0
C775 C 0.30739 0.28532 0.23577 0.0
C776 C 0.34434 0.26369 0.20367 0.0
C777 C 0.35807 0.28919 0.18322 0.0
C778 C 0.34733 0.31299 0.18986 0.0
C779 C 0.32208 0.31076 0.21615 0.0
C780 C 0.35522 0.23788 0.19742 0.0
C781 C 0.36165 0.34057 0.16876 0.0
C782 C 0.44144 0.29558 0.12488 0.0
C783 C 0.42698 0.28952 0.10002 0.0
C784 C 0.4194 0.29617 0.15202 0.0
C785 C 0.38214 0.29047 0.15417 0.0
C786 C 0.36761 0.28493 0.12876 0.0
C787 C 0.39031 0.28463 0.10188 0.0
C788 C 0.43588 0.30234 0.17853 0.0
C789 C 0.32804 0.2787 0.13015 0.0
H790 H 0.30816 0.24252 0.24525 0.0
H791 H 0.31308 0.32874 0.22105 0.0
H792 H 0.34673 0.23219 0.17678 0.0
H793 H 0.38458 0.24173 0.1933 0.0
H794 H 0.34338 0.22003 0.21627 0.0
H795 H 0.35254 0.35746 0.17822 0.0
H796 H 0.39114 0.34612 0.16363 0.0
H797 H 0.35284 0.33919 0.14717 0.0
H798 H 0.46995 0.29943 0.12314 0.0
H799 H 0.37943 0.2801 0.08242 0.0
H800 H 0.4266 0.28405 0.19703 0.0
H801 H 0.42732 0.31973 0.18723 0.0
H802 H 0.4654 0.30776 0.17268 0.0
H803 H 0.31438 0.25971 0.14708 0.0
H804 H 0.32116 0.27562 0.10814 0.0
H805 H 0.31752 0.29586 0.13739 0.0
C806 C 0.85519 0.7047 0.74507 0.0
C807 C 0.83105 0.70559 0.72597 0.0
C808 C 0.88051 0.6893 0.74079 0.0
C809 C 0.88113 0.67389 0.71726 0.0
C810 C 0.85672 0.67464 0.69797 0.0
C811 C 0.83191 0.69046 0.70259 0.0
C812 C 0.90614 0.68907 0.7618 0.0
C813 C 0.85622 0.65819 0.67291 0.0
C814 C 0.96381 0.64906 0.69299 0.0
C815 C 0.95404 0.62203 0.70961 0.0
C816 C 0.94027 0.6662 0.69507 0.0
C817 C 0.90608 0.65586 0.71391 0.0
C818 C 0.89585 0.62835 0.73018 0.0
C819 C 0.92001 0.61183 0.72794 0.0
C820 C 0.95222 0.6955 0.6776 0.0
C821 C 0.85946 0.61641 0.75019 0.0
H822 H 0.85405 0.71592 0.76355 0.0
H823 H 0.81281 0.69071 0.68816 0.0
H824 H 0.90132 0.66787 0.77487 0.0
H825 H 0.93389 0.69497 0.74873 0.0
H826 H 0.90356 0.70343 0.77782 0.0
H827 H 0.83649 0.66186 0.65917 0.0
H828 H 0.88289 0.66361 0.65795 0.0
H829 H 0.8497 0.63577 0.68249 0.0
H830 H 0.99021 0.65703 0.67896 0.0
H831 H 0.91224 0.59079 0.7405 0.0
H832 H 0.9521 0.71026 0.69338 0.0
H833 H 0.93343 0.69913 0.66292 0.0
H834 H 0.97933 0.70017 0.66343 0.0
H835 H 0.85592 0.6284 0.76846 0.0
H836 H 0.85525 0.59434 0.76049 0.0
H837 H 0.83857 0.61808 0.73708 0.0
C838 C 0.826 0.33569 0.30953 0.0
C839 C 0.80204 0.31608 0.3329 0.0
C840 C 0.84916 0.35882 0.31554 0.0
C841 C 0.84828 0.36244 0.34567 0.0
C842 C 0.82405 0.3428 0.36937 0.0
C843 C 0.80122 0.31982 0.3627 0.0
C844 C 0.87478 0.37927 0.28968 0.0
C845 C 0.82229 0.34606 0.40175 0.0
C846 C 0.93106 0.40862 0.36109 0.0
C847 C 0.92145 0.43363 0.36096 0.0
C848 C 0.90716 0.38503 0.3568 0.0
C849 C 0.873 0.38672 0.35227 0.0
C850 C 0.86302 0.41194 0.35283 0.0
C851 C 0.88752 0.43521 0.35712 0.0
C852 C 0.91877 0.35853 0.35633 0.0
C853 C 0.82685 0.41452 0.34813 0.0
H854 H 0.82706 0.3327 0.28649 0.0
H855 H 0.78244 0.30489 0.38082 0.0
H856 H 0.87047 0.40024 0.28974 0.0
H857 H 0.90252 0.38049 0.29227 0.0
H858 H 0.87187 0.37358 0.26754 0.0
H859 H 0.80182 0.329 0.41755 0.0
H860 H 0.84848 0.34658 0.40779 0.0
H861 H 0.81616 0.366 0.40486 0.0
H862 H 0.95755 0.40774 0.36395 0.0
H863 H 0.88049 0.45479 0.35694 0.0
H864 H 0.91918 0.35284 0.33382 0.0
H865 H 0.89953 0.34135 0.37287 0.0
H866 H 0.94562 0.36037 0.36154 0.0
H867 H 0.82379 0.41112 0.32524 0.0
H868 H 0.82264 0.43517 0.35075 0.0
H869 H 0.8057 0.3984 0.3644 0.0
C870 C 0.24733 0.36841 0.69737 0.0
C871 C 0.22691 0.34096 0.70274 0.0
C872 C 0.23132 0.39057 0.69475 0.0
C873 C 0.19391 0.38506 0.69818 0.0
C874 C 0.1733 0.35737 0.70262 0.0
C875 C 0.19011 0.33563 0.70462 0.0
C876 C 0.2543 0.4198 0.68939 0.0
C877 C 0.13332 0.35062 0.70679 0.0
C878 C 0.14975 0.43816 0.72794 0.0
C879 C 0.14162 0.4514 0.70196 0.0
C880 C 0.16655 0.41649 0.72699 0.0
C881 C 0.17615 0.4081 0.69927 0.0
C882 C 0.16868 0.42164 0.67284 0.0
C883 C 0.15125 0.44295 0.67454 0.0
C884 C 0.17384 0.40245 0.75574 0.0
C885 C 0.17891 0.41351 0.64281 0.0
H886 H 0.27584 0.37251 0.69574 0.0
H887 H 0.17427 0.31438 0.70909 0.0
H888 H 0.24814 0.43276 0.67037 0.0
H889 H 0.24859 0.42909 0.7096 0.0
H890 H 0.28311 0.42067 0.68442 0.0
H891 H 0.12141 0.32822 0.7081 0.0
H892 H 0.1219 0.35674 0.72782 0.0
H893 H 0.12547 0.36254 0.68799 0.0
H894 H 0.14314 0.44481 0.74914 0.0
H895 H 0.14467 0.45268 0.65439 0.0
H896 H 0.20283 0.4048 0.75365 0.0
H897 H 0.16092 0.37994 0.75991 0.0
H898 H 0.16402 0.41104 0.77555 0.0
H899 H 0.20784 0.41497 0.63773 0.0
H900 H 0.17242 0.42676 0.62418 0.0
H901 H 0.16486 0.39166 0.64359 0.0
C902 C 0.19506 0.7289 0.33242 0.0
C903 C 0.20487 0.74069 0.35665 0.0
C904 C 0.17366 0.70181 0.33697 0.0
C905 C 0.16168 0.68611 0.3665 0.0
C906 C 0.17101 0.698 0.39114 0.0
C907 C 0.19251 0.72518 0.38592 0.0
C908 C 0.16413 0.6899 0.31012 0.0
C909 C 0.15875 0.68186 0.42292 0.0
C910 C 0.0826 0.62426 0.37669 0.0
C911 C 0.09947 0.60289 0.37418 0.0
C912 C 0.10244 0.6514 0.37534 0.0
C913 C 0.13993 0.65708 0.37131 0.0
C914 C 0.15686 0.63519 0.36983 0.0
C915 C 0.13632 0.60827 0.37124 0.0
C916 C 0.08343 0.67413 0.37706 0.0
C917 C 0.19673 0.6404 0.36557 0.0
H918 H 0.20406 0.74094 0.3098 0.0
H919 H 0.2003 0.73409 0.40471 0.0
H920 H 0.17431 0.67127 0.30853 0.0
H921 H 0.13481 0.68328 0.31284 0.0
H922 H 0.17522 0.70496 0.28867 0.0
H923 H 0.16735 0.69439 0.43969 0.0
H924 H 0.12933 0.67439 0.42845 0.0
H925 H 0.16951 0.66334 0.42504 0.0
H926 H 0.05399 0.61981 0.37885 0.0
H927 H 0.14908 0.59151 0.36921 0.0
H928 H 0.09108 0.68873 0.35521 0.0
H929 H 0.09143 0.68612 0.39439 0.0
H930 H 0.05406 0.66595 0.38247 0.0
H931 H 0.20953 0.65354 0.34323 0.0
H932 H 0.20545 0.62089 0.36702 0.0
H933 H 0.20644 0.65179 0.38279 0.0
C934 C 0.79657 0.8396 0.68518 0.0
C935 C 0.76724 0.82347 0.70702 0.0
C936 C 0.79299 0.8612 0.66401 0.0
C937 C 0.75928 0.86677 0.66476 0.0
C938 C 0.72941 0.8501 0.68625 0.0
C939 C 0.73374 0.82862 0.70708 0.0
C940 C 0.82543 0.87853 0.64136 0.0
C941 C 0.69301 0.85533 0.68764 0.0
C942 C 0.75656 0.93949 0.63225 0.0
C943 C 0.74862 0.93609 0.60425 0.0
C944 C 0.76006 0.91702 0.65223 0.0
C945 C 0.75549 0.89068 0.64381 0.0
C946 C 0.74722 0.88723 0.61548 0.0
C947 C 0.74383 0.91008 0.59598 0.0
C948 C 0.76876 0.92148 0.68227 0.0
C949 C 0.74216 0.8595 0.60573 0.0
H950 H 0.82256 0.83586 0.6852 0.0
H951 H 0.71086 0.81591 0.7236 0.0
H952 H 0.82047 0.8789 0.61823 0.0
H953 H 0.83112 0.90021 0.64507 0.0
H954 H 0.84934 0.87068 0.64282 0.0
H955 H 0.67228 0.83983 0.705 0.0
H956 H 0.69354 0.87623 0.6928 0.0
H957 H 0.68533 0.85489 0.6655 0.0
H958 H 0.7602 0.95978 0.63837 0.0
H959 H 0.73771 0.90775 0.57416 0.0
H960 H 0.79406 0.91601 0.68439 0.0
H961 H 0.74769 0.90769 0.70072 0.0
H962 H 0.77133 0.94323 0.68539 0.0
H963 H 0.76671 0.85222 0.60546 0.0
H964 H 0.73566 0.86031 0.58303 0.0
H965 H 0.72043 0.84391 0.62205 0.0
C966 C 0.67717 0.25724 0.23137 0.0
C967 C 0.67316 0.27754 0.24867 0.0
C968 C 0.66379 0.25657 0.20494 0.0
C969 C 0.6453 0.2763 0.19602 0.0
C970 C 0.6408 0.29663 0.21364 0.0
C971 C 0.65478 0.29699 0.2398 0.0
C972 C 0.6692 0.23464 0.18667 0.0
C973 C 0.62087 0.31781 0.20504 0.0
C974 C 0.63432 0.29103 0.11517 0.0
C975 C 0.59948 0.27542 0.11722 0.0
C976 C 0.64986 0.29108 0.14053 0.0
C977 C 0.62993 0.27535 0.16863 0.0
C978 C 0.59491 0.25927 0.17075 0.0
C979 C 0.58016 0.25942 0.14498 0.0
C980 C 0.68742 0.30823 0.13736 0.0
C981 C 0.57271 0.24244 0.20037 0.0
H982 H 0.6908 0.24188 0.23858 0.0
H983 H 0.65114 0.31238 0.25347 0.0
H984 H 0.64308 0.22124 0.18571 0.0
H985 H 0.68282 0.2445 0.16321 0.0
H986 H 0.68519 0.22141 0.19616 0.0
H987 H 0.61994 0.33234 0.22106 0.0
H988 H 0.63362 0.32995 0.18222 0.0
H989 H 0.59323 0.30722 0.20429 0.0
H990 H 0.64941 0.30322 0.09367 0.0
H991 H 0.55305 0.24762 0.14672 0.0
H992 H 0.7041 0.29501 0.14559 0.0
H993 H 0.68755 0.32443 0.1514 0.0
H994 H 0.69978 0.31845 0.11371 0.0
H995 H 0.58676 0.22777 0.21011 0.0
H996 H 0.54626 0.23051 0.19804 0.0
H997 H 0.56867 0.25633 0.21663 0.0
C998 C 0.23336 0.22125 0.70369 0.0
C999 C 0.24597 0.24827 0.68705 0.0
C1000 C 0.22972 0.19828 0.68933 0.0
C1001 C 0.23951 0.20243 0.65759 0.0
C1002 C 0.25197 0.22971 0.64065 0.0
C1003 C 0.25475 0.25233 0.6556 0.0
C1004 C 0.21566 0.16956 0.70815 0.0
C1005 C 0.26317 0.23498 0.60682 0.0
C1006 C 0.26336 0.14238 0.6246 0.0
C1007 C 0.23237 0.131 0.61471 0.0
C1008 C 0.26628 0.16592 0.63805 0.0
C1009 C 0.23731 0.17817 0.64221 0.0
C1010 C 0.206 0.16689 0.63226 0.0
C1011 C 0.20404 0.14366 0.6184 0.0
C1012 C 0.30028 0.17753 0.64807 0.0
C1013 C 0.1744 0.1792 0.63655 0.0
H1014 H 0.22628 0.21812 0.72801 0.0
H1015 H 0.26481 0.27323 0.64275 0.0
H1016 H 0.1922 0.15815 0.70059 0.0
H1017 H 0.2362 0.1578 0.70519 0.0
H1018 H 0.20787 0.16993 0.73246 0.0
H1019 H 0.27173 0.25741 0.59694 0.0
H1020 H 0.28548 0.22556 0.6003 0.0
H1021 H 0.24092 0.22505 0.59686 0.0
H1022 H 0.28524 0.13264 0.62229 0.0
H1023 H 0.18026 0.13548 0.6103 0.0
H1024 H 0.29482 0.17611 0.67282 0.0
H1025 H 0.31103 0.19976 0.63779 0.0
H1026 H 0.32095 0.16641 0.64192 0.0
H1027 H 0.16502 0.17883 0.66081 0.0
H1028 H 0.15194 0.16789 0.62768 0.0
H1029 H 0.18221 0.20117 0.62504 0.0
C1030 C 0.36323 0.83788 0.23161 0.0
C1031 C 0.33215 0.81783 0.24651 0.0
C1032 C 0.3871 0.83218 0.2085 0.0
C1033 C 0.37977 0.80573 0.20036 0.0
C1034 C 0.34879 0.7852 0.21588 0.0
C1035 C 0.32534 0.79151 0.23885 0.0
C1036 C 0.4199 0.85458 0.19252 0.0
C1037 C 0.34022 0.75673 0.20797 0.0
C1038 C 0.42314 0.80134 0.12148 0.0
C1039 C 0.45243 0.7916 0.12684 0.0
C1040 C 0.39889 0.80559 0.14531 0.0
C1041 C 0.40417 0.79985 0.17511 0.0
C1042 C 0.43341 0.78938 0.18059 0.0
C1043 C 0.45729 0.78543 0.15629 0.0
C1044 C 0.36809 0.8168 0.13856 0.0
C1045 C 0.43985 0.78293 0.21202 0.0
H1046 H 0.36862 0.85813 0.23781 0.0
H1047 H 0.30142 0.77598 0.2507 0.0
H1048 H 0.44408 0.8472 0.19415 0.0
H1049 H 0.41945 0.85956 0.16828 0.0
H1050 H 0.42204 0.87386 0.20195 0.0
H1051 H 0.31566 0.74286 0.22285 0.0
H1052 H 0.3367 0.75837 0.18436 0.0
H1053 H 0.36261 0.74707 0.20965 0.0
H1054 H 0.41966 0.80607 0.09855 0.0
H1055 H 0.48014 0.77793 0.16017 0.0
H1056 H 0.37021 0.8372 0.14549 0.0
H1057 H 0.34264 0.80274 0.15165 0.0
H1058 H 0.36714 0.81932 0.11429 0.0
H1059 H 0.44493 0.80215 0.22151 0.0
H1060 H 0.46287 0.77375 0.21256 0.0
H1061 H 0.4159 0.76833 0.22686 0.0
C1062 C 0.71262 0.19543 0.3644 0.0
C1063 C 0.74652 0.21375 0.35485 0.0
C1064 C 0.70775 0.16923 0.38197 0.0
C1065 C 0.73751 0.16121 0.39017 0.0
C1066 C 0.77182 0.17952 0.3804 0.0
C1067 C 0.77591 0.20556 0.36285 0.0
C1068 C 0.67077 0.15026 0.39203 0.0
C1069 C 0.80422 0.17164 0.38862 0.0
C1070 C 0.72624 0.10598 0.45871 0.0
C1071 C 0.73039 0.08335 0.44539 0.0
C1072 C 0.72741 0.13131 0.44102 0.0
C1073 C 0.73289 0.13385 0.40934 0.0
C1074 C 0.73591 0.11062 0.39594 0.0
C1075 C 0.73465 0.08554 0.41423 0.0
C1076 C 0.72405 0.15558 0.45612 0.0
C1077 C 0.74171 0.11252 0.36229 0.0
H1078 H 0.68976 0.20178 0.35855 0.0
H1079 H 0.80224 0.21947 0.35515 0.0
H1080 H 0.67004 0.13023 0.38447 0.0
H1081 H 0.66333 0.1457 0.41695 0.0
H1082 H 0.65056 0.15935 0.38315 0.0
H1083 H 0.82907 0.18814 0.37895 0.0
H1084 H 0.80112 0.16735 0.41343 0.0
H1085 H 0.807 0.15239 0.38049 0.0
H1086 H 0.72308 0.10401 0.48291 0.0
H1087 H 0.73794 0.06783 0.4042 0.0
H1088 H 0.70296 0.1646 0.44887 0.0
H1089 H 0.74935 0.172 0.44929 0.0
H1090 H 0.7177 0.14968 0.48104 0.0
H1091 H 0.72101 0.12089 0.35337 0.0
H1092 H 0.74117 0.09212 0.35563 0.0
H1093 H 0.76781 0.12705 0.35147 0.0
C1094 C 0.29429 0.27038 0.84117 0.0
C1095 C 0.30453 0.28752 0.81275 0.0
C1096 C 0.31747 0.27124 0.86131 0.0
C1097 C 0.35174 0.28975 0.85282 0.0
C1098 C 0.3621 0.3074 0.82429 0.0
C1099 C 0.33817 0.30636 0.80474 0.0
C1100 C 0.30523 0.25241 0.89173 0.0
C1101 C 0.39848 0.32732 0.8144 0.0
C1102 C 0.39993 0.30817 0.91521 0.0
C1103 C 0.42161 0.28968 0.9156 0.0
C1104 C 0.37731 0.30866 0.89466 0.0
C1105 C 0.37674 0.29045 0.8738 0.0
C1106 C 0.39927 0.27224 0.87362 0.0
C1107 C 0.42128 0.27195 0.89465 0.0
C1108 C 0.35336 0.32815 0.89577 0.0
C1109 C 0.39979 0.2528 0.85146 0.0
H1110 H 0.26796 0.25634 0.84767 0.0
H1111 H 0.34587 0.32025 0.78315 0.0
H1112 H 0.32299 0.23843 0.89432 0.0
H1113 H 0.30678 0.26487 0.90978 0.0
H1114 H 0.27752 0.23959 0.89507 0.0
H1115 H 0.4026 0.33936 0.79133 0.0
H1116 H 0.40223 0.342 0.83015 0.0
H1117 H 0.4193 0.31581 0.81498 0.0
H1118 H 0.39994 0.32172 0.93157 0.0
H1119 H 0.43836 0.25787 0.89471 0.0
H1120 H 0.32514 0.31609 0.90133 0.0
H1121 H 0.3578 0.34153 0.87343 0.0
H1122 H 0.3578 0.34156 0.91272 0.0
H1123 H 0.3733 0.23801 0.85522 0.0
H1124 H 0.42001 0.24084 0.85339 0.0
H1125 H 0.40544 0.26462 0.82815 0.0
C1126 C 0.22313 0.82633 0.41506 0.0
C1127 C 0.23724 0.83512 0.3841 0.0
C1128 C 0.21667 0.84529 0.4336 0.0
C1129 C 0.22525 0.87384 0.42107 0.0
C1130 C 0.23927 0.88288 0.38989 0.0
C1131 C 0.24466 0.86341 0.37175 0.0
C1132 C 0.20118 0.83482 0.4667 0.0
C1133 C 0.24923 0.9132 0.37574 0.0
C1134 C 0.18628 0.92357 0.46298 0.0
C1135 C 0.21386 0.93432 0.47704 0.0
C1136 C 0.18928 0.90342 0.44513 0.0
C1137 C 0.22097 0.89442 0.44075 0.0
C1138 C 0.24898 0.90544 0.45476 0.0
C1139 C 0.24492 0.92506 0.473 0.0
C1140 C 0.15858 0.89171 0.43106 0.0
C1141 C 0.28347 0.89684 0.45013 0.0
H1142 H 0.21772 0.80464 0.425 0.0
H1143 H 0.25476 0.87045 0.3478 0.0
H1144 H 0.22083 0.8429 0.48008 0.0
H1145 H 0.17734 0.84247 0.47352 0.0
H1146 H 0.19357 0.81185 0.47253 0.0
H1147 H 0.25976 0.91682 0.35112 0.0
H1148 H 0.22574 0.92182 0.37976 0.0
H1149 H 0.26972 0.92487 0.38631 0.0
H1150 H 0.16219 0.93067 0.46629 0.0
H1151 H 0.26639 0.93363 0.48365 0.0
H1152 H 0.15012 0.86885 0.43801 0.0
H1153 H 0.167 0.89636 0.40621 0.0
H1154 H 0.13536 0.90022 0.4375 0.0
H1155 H 0.2783 0.87419 0.45781 0.0
H1156 H 0.30274 0.90758 0.46245 0.0
H1157 H 0.29587 0.90146 0.42583 0.0
C1158 C 0.7417 0.80232 0.82704 0.0
C1159 C 0.7414 0.77814 0.81519 0.0
C1160 C 0.72213 0.8013 0.8558 0.0
C1161 C 0.70181 0.77546 0.87317 0.0
C1162 C 0.70242 0.75086 0.86182 0.0
C1163 C 0.72226 0.75249 0.83292 0.0
C1164 C 0.72233 0.82799 0.86719 0.0
C1165 C 0.68112 0.72293 0.87974 0.0
C1166 C 0.66959 0.77288 0.95655 0.0
C1167 C 0.63501 0.77563 0.95722 0.0
C1168 C 0.69155 0.77224 0.92938 0.0
C1169 C 0.6784 0.77447 0.90247 0.0
C1170 C 0.64316 0.77686 0.90331 0.0
C1171 C 0.62183 0.77741 0.93078 0.0
C1172 C 0.72892 0.76966 0.92935 0.0
C1173 C 0.62819 0.77934 0.87512 0.0
H1174 H 0.75695 0.82215 0.8136 0.0
H1175 H 0.72176 0.73376 0.82377 0.0
H1176 H 0.69523 0.83139 0.87017 0.0
H1177 H 0.72983 0.82675 0.88949 0.0
H1178 H 0.74103 0.84619 0.85158 0.0
H1179 H 0.68646 0.70566 0.86867 0.0
H1180 H 0.68722 0.71995 0.90253 0.0
H1181 H 0.65232 0.72186 0.88264 0.0
H1182 H 0.67945 0.7715 0.97725 0.0
H1183 H 0.59495 0.77952 0.93165 0.0
H1184 H 0.7483 0.78843 0.91543 0.0
H1185 H 0.73333 0.75174 0.91914 0.0
H1186 H 0.73455 0.76699 0.95236 0.0
H1187 H 0.64394 0.79839 0.85909 0.0
H1188 H 0.59993 0.78014 0.87982 0.0
H1189 H 0.63019 0.76152 0.86387 0.0
loop_
_geom_bond_atom_site_label_1
_geom_bond_atom_site_label_2
_geom_bond_distance
_geom_bond_site_symmetry_2
_ccdc_geom_bond_type
H0 C7 0.929 . S
H1 C10 0.930 . S
H2 C12 0.929 . S
H3 C4 0.969 . S
C4 H3 0.969 . S
C4 O5 1.550 . S
C4 H6 0.973 . S
O5 C4 1.550 . S
O5 C11 1.412 . S
H6 C4 0.973 . S
C7 H0 0.929 . S
C7 C8 1.400 . S
C7 C9 1.364 . S
C8 C7 1.400 . S
C8 C12 1.377 . S
C9 C7 1.364 . S
C9 C10 1.374 . S
C10 H1 0.930 . S
C10 C9 1.374 . S
C10 C11 1.383 . S
C11 O5 1.412 . S
C11 C10 1.383 . S
C11 C12 1.394 . S
C12 H2 0.929 . S
C12 C8 1.377 . S
C12 C11 1.394 . S
H13 C20 0.929 . S
H14 C23 0.930 . S
H15 C25 0.929 . S
H16 C17 0.969 . S
C17 H16 0.969 . S
C17 O18 1.550 . S
C17 H19 0.973 . S
O18 C17 1.550 . S
O18 C24 1.412 . S
H19 C17 0.973 . S
C20 H13 0.929 . S
C20 C21 1.400 . S
C20 C22 1.364 . S
C21 C20 1.400 . S
C21 C25 1.377 . S
C22 C20 1.364 . S
C22 C23 1.374 . S
C23 H14 0.930 . S
C23 C22 1.374 . S
C23 C24 1.383 . S
C24 O18 1.412 . S
C24 C23 1.383 . S
C24 C25 1.394 . S
C25 H15 0.929 . S
C25 C21 1.377 . S
C25 C24 1.394 . S
H26 C33 0.929 . S
H27 C36 0.930 . S
H28 C38 0.929 . S
H29 C30 0.969 . S
C30 H29 0.969 . S
C30 O31 1.550 . S
C30 H32 0.973 . S
O31 C30 1.550 . S
O31 C37 1.412 . S
H32 C30 0.973 . S
C33 H26 0.929 . S
C33 C34 1.400 . S
C33 C35 1.364 . S
C34 C33 1.400 . S
C34 C38 1.377 . S
C35 C33 1.364 . S
C35 C36 1.374 . S
C36 H27 0.930 . S
C36 C35 1.374 . S
C36 C37 1.383 . S
C37 O31 1.412 . S
C37 C36 1.383 . S
C37 C38 1.394 . S
C38 H28 0.929 . S
C38 C34 1.377 . S
C38 C37 1.394 . S
H39 C46 0.929 . S
H40 C49 0.930 . S
H41 C51 0.929 . S
H42 C43 0.969 . S
C43 H42 0.969 . S
C43 O44 1.550 . S
C43 H45 0.973 . S
O44 C43 1.550 . S
O44 C50 1.412 . S
H45 C43 0.973 . S
C46 H39 0.929 . S
C46 C47 1.400 . S
C46 C48 1.364 . S
C47 C46 1.400 . S
C47 C51 1.377 . S
C48 C46 1.364 . S
C48 C49 1.374 . S
C49 H40 0.930 . S
C49 C48 1.374 . S
C49 C50 1.383 . S
C50 O44 1.412 . S
C50 C49 1.383 . S
C50 C51 1.394 . S
C51 H41 0.929 . S
C51 C47 1.377 . S
C51 C50 1.394 . S
H52 C59 0.929 . S
H53 C62 0.930 . S
H54 C64 0.929 . S
H55 C56 0.969 . S
C56 H55 0.969 . S
C56 O57 1.550 . S
C56 H58 0.973 . S
O57 C56 1.550 . S
O57 C63 1.412 . S
H58 C56 0.973 . S
C59 H52 0.929 . S
C59 C60 1.400 . S
C59 C61 1.364 . S
C60 C59 1.400 . S
C60 C64 1.377 . S
C61 C59 1.364 . S
C61 C62 1.374 . S
C62 H53 0.930 . S
C62 C61 1.374 . S
C62 C63 1.383 . S
C63 O57 1.412 . S
C63 C62 1.383 . S
C63 C64 1.394 . S
C64 H54 0.929 . S
C64 C60 1.377 . S
C64 C63 1.394 . S
H65 C72 0.929 . S
H66 C75 0.930 . S
H67 C77 0.929 . S
H68 C69 0.969 . S
C69 H68 0.969 . S
C69 O70 1.550 . S
C69 H71 0.973 . S
O70 C69 1.550 . S
O70 C76 1.412 . S
H71 C69 0.973 . S
C72 H65 0.929 . S
C72 C73 1.400 . S
C72 C74 1.364 . S
C73 C72 1.400 . S
C73 C77 1.377 . S
C74 C72 1.364 . S
C74 C75 1.374 . S
C75 H66 0.930 . S
C75 C74 1.374 . S
C75 C76 1.383 . S
C76 O70 1.412 . S
C76 C75 1.383 . S
C76 C77 1.394 . S
C77 H67 0.929 . S
C77 C73 1.377 . S
C77 C76 1.394 . S
H78 C85 0.929 . S
H79 C88 0.930 . S
H80 C90 0.929 . S
H81 C82 0.969 . S
C82 H81 0.969 . S
C82 O83 1.550 . S
C82 H84 0.973 . S
O83 C82 1.550 . S
O83 C89 1.412 . S
H84 C82 0.973 . S
C85 H78 0.929 . S
C85 C86 1.400 . S
C85 C87 1.364 . S
C86 C85 1.400 . S
C86 C90 1.377 . S
C87 C85 1.364 . S
C87 C88 1.374 . S
C88 H79 0.930 . S
C88 C87 1.374 . S
C88 C89 1.383 . S
C89 O83 1.412 . S
C89 C88 1.383 . S
C89 C90 1.394 . S
C90 H80 0.929 . S
C90 C86 1.377 . S
C90 C89 1.394 . S
H91 C98 0.929 . S
H92 C101 0.930 . S
H93 C103 0.929 . S
H94 C95 0.969 . S
C95 H94 0.969 . S
C95 O96 1.550 . S
C95 H97 0.973 . S
O96 C95 1.550 . S
O96 C102 1.412 . S
H97 C95 0.973 . S
C98 H91 0.929 . S
C98 C99 1.400 . S
C98 C100 1.364 . S
C99 C98 1.400 . S
C99 C103 1.377 . S
C100 C98 1.364 . S
C100 C101 1.374 . S
C101 H92 0.930 . S
C101 C100 1.374 . S
C101 C102 1.383 . S
C102 O96 1.412 . S
C102 C101 1.383 . S
C102 C103 1.394 . S
C103 H93 0.929 . S
C103 C99 1.377 . S
C103 C102 1.394 . S
C104 C105 1.443 . S
C104 N108 1.376 . S
C104 C142 1.389 . S
C105 C104 1.443 . S
C105 C106 1.340 . S
C105 H145 0.951 . S
C106 C105 1.340 . S
C106 C107 1.439 1_455 S
C106 H146 0.950 . S
C107 C106 1.439 1_655 S
C107 N108 1.374 1_655 S
C107 C141 1.395 . S
N108 C104 1.376 . S
N108 C107 1.374 1_455 S
N108 Co109 2.008 . S
Co109 N108 2.008 . S
Co109 N110 1.995 1_455 S
Co109 N115 2.008 1_455 S
Co109 N120 1.995 . S
Co109 N125 2.282 . S
Co109 N131 2.282 1_455 S
N110 Co109 1.995 1_655 S
N110 C111 1.376 . S
N110 C114 1.383 . S
C111 N110 1.376 . S
C111 C112 1.446 . S
C111 C141 1.391 . S
C112 C111 1.446 . S
C112 C113 1.339 . S
C112 H147 0.949 . S
C113 C112 1.339 . S
C113 C114 1.439 . S
C113 H148 0.950 . S
C114 N110 1.383 . S
C114 C113 1.439 . S
C114 C143 1.392 . S
N115 Co109 2.008 1_655 S
N115 C116 1.376 . S
N115 C119 1.374 1_655 S
C116 N115 1.376 . S
C116 C117 1.443 . S
C116 C143 1.389 . S
C117 C116 1.443 . S
C117 C118 1.340 . S
C117 H149 0.951 . S
C118 C117 1.340 . S
C118 C119 1.439 1_655 S
C118 H150 0.950 . S
C119 N115 1.374 1_455 S
C119 C118 1.439 1_455 S
C119 C144 1.395 . S
N120 Co109 1.995 . S
N120 C121 1.376 . S
N120 C124 1.383 . S
C121 N120 1.376 . S
C121 C122 1.446 . S
C121 C144 1.391 . S
C122 C121 1.446 . S
C122 C123 1.339 . S
C122 H151 0.949 . S
C123 C122 1.339 . S
C123 C124 1.439 . S
C123 H152 0.950 . S
C124 N120 1.383 . S
C124 C123 1.439 . S
C124 C142 1.392 . S
N125 Co109 2.282 . S
N125 C128 1.332 . S
N125 C130 1.332 . S
C126 C127 1.386 . S
C126 C129 1.388 . S
C127 C126 1.386 . S
C127 C128 1.382 . S
C127 H153 0.950 . S
C128 N125 1.332 . S
C128 C127 1.382 . S
C128 H139 0.952 . S
C129 C126 1.388 . S
C129 C130 1.382 . S
C129 H154 0.950 . S
C130 N125 1.332 . S
C130 C129 1.382 . S
C130 H140 0.948 . S
N131 Co109 2.282 1_655 S
N131 C135 1.332 . S
N131 C136 1.332 . S
C132 C133 1.388 . S
C132 C136 1.382 . S
C132 H155 0.950 . S
C133 C132 1.388 . S
C133 C134 1.386 . S
C134 C133 1.386 . S
C134 C135 1.382 . S
C134 H156 0.950 . S
C135 N131 1.332 . S
C135 C134 1.382 . S
C135 H137 0.952 . S
C136 N131 1.332 . S
C136 C132 1.382 . S
C136 H138 0.948 . S
H137 C135 0.952 . S
H138 C136 0.948 . S
H139 C128 0.952 . S
H140 C130 0.948 . S
C141 C107 1.395 . S
C141 C111 1.391 . S
C142 C104 1.389 . S
C142 C124 1.392 . S
C143 C114 1.392 . S
C143 C116 1.389 . S
C144 C119 1.395 . S
C144 C121 1.391 . S
H145 C105 0.951 . S
H146 C106 0.950 . S
H147 C112 0.949 . S
H148 C113 0.950 . S
H149 C117 0.951 . S
H150 C118 0.950 . S
H151 C122 0.949 . S
H152 C123 0.950 . S
H153 C127 0.950 . S
H154 C129 0.950 . S
H155 C132 0.950 . S
H156 C134 0.950 . S
C157 C158 1.443 . S
C157 N161 1.376 . S
C157 C195 1.389 . S
C158 C157 1.443 . S
C158 C159 1.340 . S
C158 H198 0.951 . S
C159 C158 1.340 . S
C159 C160 1.439 . S
C159 H199 0.950 . S
C160 C159 1.439 . S
C160 N161 1.374 . S
C160 C194 1.395 . S
N161 C157 1.376 . S
N161 C160 1.374 . S
N161 Co162 2.008 . S
Co162 N161 2.008 . S
Co162 N163 1.995 . S
Co162 N168 2.008 . S
Co162 N173 1.995 . S
Co162 N178 2.282 . S
Co162 N184 2.282 . S
N163 Co162 1.995 . S
N163 C164 1.376 . S
N163 C167 1.383 1_455 S
C164 N163 1.376 . S
C164 C165 1.446 1_455 S
C164 C194 1.391 . S
C165 C164 1.446 1_655 S
C165 C166 1.339 . S
C165 H200 0.949 . S
C166 C165 1.339 . S
C166 C167 1.439 . S
C166 H201 0.950 . S
C167 N163 1.383 1_655 S
C167 C166 1.439 . S
C167 C196 1.392 . S
N168 Co162 2.008 . S
N168 C169 1.376 . S
N168 C172 1.374 . S
C169 N168 1.376 . S
C169 C170 1.443 . S
C169 C196 1.389 1_455 S
C170 C169 1.443 . S
C170 C171 1.340 . S
C170 H202 0.951 . S
C171 C170 1.340 . S
C171 C172 1.439 . S
C171 H203 0.950 . S
C172 N168 1.374 . S
C172 C171 1.439 . S
C172 C197 1.395 . S
N173 Co162 1.995 . S
N173 C174 1.376 . S
N173 C177 1.383 . S
C174 N173 1.376 . S
C174 C175 1.446 . S
C174 C197 1.391 . S
C175 C174 1.446 . S
C175 C176 1.339 . S
C175 H204 0.949 . S
C176 C175 1.339 . S
C176 C177 1.439 . S
C176 H205 0.950 . S
C177 N173 1.383 . S
C177 C176 1.439 . S
C177 C195 1.392 . S
N178 Co162 2.282 . S
N178 C181 1.332 . S
N178 C183 1.332 . S
C179 C180 1.386 . S
C179 C182 1.388 . S
C180 C179 1.386 . S
C180 C181 1.382 . S
C180 H206 0.950 . S
C181 N178 1.332 . S
C181 C180 1.382 . S
C181 H192 0.952 . S
C182 C179 1.388 . S
C182 C183 1.382 . S
C182 H207 0.950 . S
C183 N178 1.332 . S
C183 C182 1.382 . S
C183 H193 0.948 . S
N184 Co162 2.282 . S
N184 C188 1.332 1_455 S
N184 C189 1.332 . S
C185 C186 1.388 1_455 S
C185 C189 1.382 . S
C185 H208 0.950 . S
C186 C185 1.388 1_655 S
C186 C187 1.386 . S
C187 C186 1.386 . S
C187 C188 1.382 . S
C187 H209 0.950 . S
C188 N184 1.332 1_655 S
C188 C187 1.382 . S
C188 H190 0.952 . S
C189 N184 1.332 . S
C189 C185 1.382 . S
C189 H191 0.948 . S
H190 C188 0.952 . S
H191 C189 0.948 . S
H192 C181 0.952 . S
H193 C183 0.948 . S
C194 C160 1.395 . S
C194 C164 1.391 . S
C195 C157 1.389 . S
C195 C177 1.392 . S
C196 C167 1.392 . S
C196 C169 1.389 1_655 S
C197 C172 1.395 . S
C197 C174 1.391 . S
H198 C158 0.951 . S
H199 C159 0.950 . S
H200 C165 0.949 . S
H201 C166 0.950 . S
H202 C170 0.951 . S
H203 C171 0.950 . S
H204 C175 0.949 . S
H205 C176 0.950 . S
H206 C180 0.950 . S
H207 C182 0.950 . S
H208 C185 0.950 . S
H209 C187 0.950 . S
C210 C211 1.443 . S
C210 N214 1.346 1_565 S
C210 C248 1.389 . S
C211 C210 1.443 . S
C211 C212 1.340 . S
C211 H251 0.951 . S
C212 C211 1.340 . S
C212 C213 1.439 1_565 S
C212 H252 0.950 . S
C213 C212 1.439 1_545 S
C213 N214 1.375 . S
C213 C247 1.395 . S
N214 C210 1.346 1_545 S
N214 C213 1.375 . S
N214 Co215 2.029 . S
Co215 N214 2.029 . S
Co215 N216 1.995 . S
Co215 N221 2.008 . S
Co215 N226 1.995 1_545 S
Co215 N231 2.282 . S
Co215 N237 2.282 1_545 S
N216 Co215 1.995 . S
N216 C217 1.376 . S
N216 C220 1.383 . S
C217 N216 1.376 . S
C217 C218 1.446 . S
C217 C247 1.391 . S
C218 C217 1.446 . S
C218 C219 1.339 . S
C218 H253 0.949 . S
C219 C218 1.339 . S
C219 C220 1.439 . S
C219 H254 0.950 . S
C220 N216 1.383 . S
C220 C219 1.439 . S
C220 C249 1.392 . S
N221 Co215 2.008 . S
N221 C222 1.376 . S
N221 C225 1.374 . S
C222 N221 1.376 . S
C222 C223 1.443 . S
C222 C249 1.389 . S
C223 C222 1.443 . S
C223 C224 1.340 . S
C223 H255 0.951 . S
C224 C223 1.340 . S
C224 C225 1.439 . S
C224 H256 0.950 . S
C225 N221 1.374 . S
C225 C224 1.439 . S
C225 C250 1.395 . S
N226 Co215 1.995 1_565 S
N226 C227 1.376 . S
N226 C230 1.383 . S
C227 N226 1.376 . S
C227 C228 1.446 . S
C227 C250 1.391 1_565 S
C228 C227 1.446 . S
C228 C229 1.339 . S
C228 H257 0.949 . S
C229 C228 1.339 . S
C229 C230 1.439 . S
C229 H258 0.950 . S
C230 N226 1.383 . S
C230 C229 1.439 . S
C230 C248 1.392 . S
N231 Co215 2.282 . S
N231 C234 1.332 . S
N231 C236 1.332 . S
C232 C233 1.386 . S
C232 C235 1.388 . S
C233 C232 1.386 . S
C233 C234 1.382 . S
C233 H259 0.950 . S
C234 N231 1.332 . S
C234 C233 1.382 . S
C234 H245 0.952 . S
C235 C232 1.388 . S
C235 C236 1.382 . S
C235 H260 0.950 . S
C236 N231 1.332 . S
C236 C235 1.382 . S
C236 H246 0.948 . S
N237 Co215 2.282 1_565 S
N237 C241 1.332 . S
N237 C242 1.332 . S
C238 C239 1.388 . S
C238 C242 1.382 . S
C238 H261 0.950 . S
C239 C238 1.388 . S
C239 C240 1.386 . S
C240 C239 1.386 . S
C240 C241 1.382 . S
C240 H262 0.950 . S
C241 N237 1.332 . S
C241 C240 1.382 . S
C241 H243 0.952 . S
C242 N237 1.332 . S
C242 C238 1.382 . S
C242 H244 0.948 . S
H243 C241 0.952 . S
H244 C242 0.948 . S
H245 C234 0.952 . S
H246 C236 0.948 . S
C247 C213 1.395 . S
C247 C217 1.391 . S
C248 C210 1.389 . S
C248 C230 1.392 . S
C249 C220 1.392 . S
C249 C222 1.389 . S
C250 C225 1.395 . S
C250 C227 1.391 1_545 S
H251 C211 0.951 . S
H252 C212 0.950 . S
H253 C218 0.949 . S
H254 C219 0.950 . S
H255 C223 0.951 . S
H256 C224 0.950 . S
H257 C228 0.949 . S
H258 C229 0.950 . S
H259 C233 0.950 . S
H260 C235 0.950 . S
H261 C238 0.950 . S
H262 C240 0.950 . S
C263 C264 1.443 . S
C263 N267 1.376 . S
C263 C301 1.389 . S
C264 C263 1.443 . S
C264 C265 1.340 . S
C264 H304 0.951 . S
C265 C264 1.340 . S
C265 C266 1.439 . S
C265 H305 0.950 . S
C266 C265 1.439 . S
C266 N267 1.374 . S
C266 C300 1.395 . S
N267 C263 1.376 . S
N267 C266 1.374 . S
N267 Co268 2.008 . S
Co268 N267 2.008 . S
Co268 N269 1.995 . S
Co268 N274 2.008 . S
Co268 N279 1.995 . S
Co268 N284 2.271 1_554 S
Co268 N290 2.282 . S
N269 Co268 1.995 . S
N269 C270 1.376 . S
N269 C273 1.383 1_554 S
C270 N269 1.376 . S
C270 C271 1.446 1_554 S
C270 C300 1.391 . S
C271 C270 1.446 1_556 S
C271 C272 1.339 . S
C271 H306 0.949 . S
C272 C271 1.339 . S
C272 C273 1.439 . S
C272 H307 0.950 . S
C273 N269 1.383 1_556 S
C273 C272 1.439 . S
C273 C302 1.392 . S
N274 Co268 2.008 . S
N274 C275 1.376 1_554 S
N274 C278 1.374 . S
C275 N274 1.376 1_556 S
C275 C276 1.443 . S
C275 C302 1.389 . S
C276 C275 1.443 . S
C276 C277 1.340 . S
C276 H308 0.951 . S
C277 C276 1.340 . S
C277 C278 1.439 1_556 S
C277 H309 0.950 . S
C278 N274 1.374 . S
C278 C277 1.439 1_554 S
C278 C303 1.395 . S
N279 Co268 1.995 . S
N279 C280 1.376 . S
N279 C283 1.383 . S
C280 N279 1.376 . S
C280 C281 1.446 . S
C280 C303 1.391 . S
C281 C280 1.446 . S
C281 C282 1.339 . S
C281 H310 0.949 . S
C282 C281 1.339 . S
C282 C283 1.439 . S
C282 H311 0.950 . S
C283 N279 1.383 . S
C283 C282 1.439 . S
C283 C301 1.392 . S
N284 Co268 2.271 1_556 S
N284 C287 1.337 . S
N284 C289 1.340 . S
C285 C286 1.386 . S
C285 C288 1.388 . S
C286 C285 1.386 . S
C286 C287 1.382 . S
C286 H312 0.950 . S
C287 N284 1.337 . S
C287 C286 1.382 . S
C287 H298 0.952 1_556 S
C288 C285 1.388 . S
C288 C289 1.382 . S
C288 H313 0.950 . S
C289 N284 1.340 . S
C289 C288 1.382 . S
C289 H299 0.948 . S
N290 Co268 2.282 . S
N290 C294 1.332 . S
N290 C295 1.332 . S
C291 C292 1.388 . S
C291 C295 1.382 . S
C291 H314 0.950 . S
C292 C291 1.388 . S
C292 C293 1.386 . S
C293 C292 1.386 . S
C293 C294 1.382 . S
C293 H315 0.950 . S
C294 N290 1.332 . S
C294 C293 1.382 . S
C294 H296 0.952 . S
C295 N290 1.332 . S
C295 C291 1.382 . S
C295 H297 0.948 . S
H296 C294 0.952 . S
H297 C295 0.948 . S
H298 C287 0.952 1_554 S
H299 C289 0.948 . S
C300 C266 1.395 . S
C300 C270 1.391 . S
C301 C263 1.389 . S
C301 C283 1.392 . S
C302 C273 1.392 . S
C302 C275 1.389 . S
C303 C278 1.395 . S
C303 C280 1.391 . S
H304 C264 0.951 . S
H305 C265 0.950 . S
H306 C271 0.949 . S
H307 C272 0.950 . S
H308 C276 0.951 . S
H309 C277 0.950 . S
H310 C281 0.949 . S
H311 C282 0.950 . S
H312 C286 0.950 . S
H313 C288 0.950 . S
H314 C291 0.950 . S
H315 C293 0.950 . S
C316 C317 1.443 . S
C316 N320 1.376 . S
C316 C354 1.389 . S
C317 C316 1.443 . S
C317 C318 1.340 . S
C317 H357 0.951 . S
C318 C317 1.340 . S
C318 C319 1.439 . S
C318 H358 0.950 . S
C319 C318 1.439 . S
C319 N320 1.374 . S
C319 C353 1.395 1_565 S
N320 C316 1.376 . S
N320 C319 1.374 . S
N320 Co321 2.008 1_565 S
Co321 N320 2.008 1_545 S
Co321 N322 1.995 . S
Co321 N327 2.008 . S
Co321 N332 1.995 1_545 S
Co321 N337 2.282 . S
Co321 N343 2.282 1_545 S
N322 Co321 1.995 . S
N322 C323 1.376 . S
N322 C326 1.383 . S
C323 N322 1.376 . S
C323 C324 1.446 . S
C323 C353 1.391 . S
C324 C323 1.446 . S
C324 C325 1.339 . S
C324 H359 0.949 . S
C325 C324 1.339 . S
C325 C326 1.439 . S
C325 H360 0.950 . S
C326 N322 1.383 . S
C326 C325 1.439 . S
C326 C355 1.392 . S
N327 Co321 2.008 . S
N327 C328 1.376 . S
N327 C331 1.374 . S
C328 N327 1.376 . S
C328 C329 1.443 . S
C328 C355 1.389 . S
C329 C328 1.443 . S
C329 C330 1.340 . S
C329 H361 0.951 . S
C330 C329 1.340 . S
C330 C331 1.439 . S
C330 H362 0.950 . S
C331 N327 1.374 . S
C331 C330 1.439 . S
C331 C356 1.395 1_545 S
N332 Co321 1.995 1_565 S
N332 C333 1.376 . S
N332 C336 1.383 . S
C333 N332 1.376 . S
C333 C334 1.446 . S
C333 C356 1.391 . S
C334 C333 1.446 . S
C334 C335 1.339 . S
C334 H363 0.949 . S
C335 C334 1.339 . S
C335 C336 1.439 . S
C335 H364 0.950 . S
C336 N332 1.383 . S
C336 C335 1.439 . S
C336 C354 1.392 . S
N337 Co321 2.282 . S
N337 C340 1.332 . S
N337 C342 1.332 . S
C338 C339 1.386 . S
C338 C341 1.388 . S
C339 C338 1.386 . S
C339 C340 1.382 . S
C339 H365 0.950 . S
C340 N337 1.332 . S
C340 C339 1.382 . S
C340 H351 0.952 . S
C341 C338 1.388 . S
C341 C342 1.382 . S
C341 H366 0.950 . S
C342 N337 1.332 . S
C342 C341 1.382 . S
C342 H352 0.948 . S
N343 Co321 2.282 1_565 S
N343 C347 1.332 . S
N343 C348 1.332 . S
C344 C345 1.388 . S
C344 C348 1.382 . S
C344 H367 0.950 . S
C345 C344 1.388 . S
C345 C346 1.386 . S
C346 C345 1.386 . S
C346 C347 1.382 . S
C346 H368 0.950 . S
C347 N343 1.332 . S
C347 C346 1.382 . S
C347 H349 0.952 . S
C348 N343 1.332 . S
C348 C344 1.382 . S
C348 H350 0.948 . S
H349 C347 0.952 . S
H350 C348 0.948 . S
H351 C340 0.952 . S
H352 C342 0.948 . S
C353 C319 1.395 1_545 S
C353 C323 1.391 . S
C354 C316 1.389 . S
C354 C336 1.392 . S
C355 C326 1.392 . S
C355 C328 1.389 . S
C356 C331 1.395 1_565 S
C356 C333 1.391 . S
H357 C317 0.951 . S
H358 C318 0.950 . S
H359 C324 0.949 . S
H360 C325 0.950 . S
H361 C329 0.951 . S
H362 C330 0.950 . S
H363 C334 0.949 . S
H364 C335 0.950 . S
H365 C339 0.950 . S
H366 C341 0.950 . S
H367 C344 0.950 . S
H368 C346 0.950 . S
C369 C370 1.443 . S
C369 N373 1.376 . S
C369 C407 1.389 . S
C370 C369 1.443 . S
C370 C371 1.340 . S
C370 H410 0.951 . S
C371 C370 1.340 . S
C371 C372 1.439 . S
C371 H411 0.950 . S
C372 C371 1.439 . S
C372 N373 1.374 . S
C372 C406 1.395 1_554 S
N373 C369 1.376 . S
N373 C372 1.374 . S
N373 Co374 2.020 . S
Co374 N373 2.020 . S
Co374 N375 1.985 1_554 S
Co374 N380 1.996 1_554 S
Co374 N385 2.005 . S
Co374 N390 2.266 1_554 S
Co374 N396 2.299 . S
N375 Co374 1.985 1_556 S
N375 C376 1.376 . S
N375 C379 1.383 . S
C376 N375 1.376 . S
C376 C377 1.446 . S
C376 C406 1.391 . S
C377 C376 1.446 . S
C377 C378 1.339 . S
C377 H412 0.949 . S
C378 C377 1.339 . S
C378 C379 1.439 . S
C378 H413 0.950 . S
C379 N375 1.383 . S
C379 C378 1.439 . S
C379 C408 1.392 . S
N380 Co374 1.996 1_556 S
N380 C381 1.376 . S
N380 C384 1.374 . S
C381 N380 1.376 . S
C381 C382 1.443 . S
C381 C408 1.389 . S
C382 C381 1.443 . S
C382 C383 1.340 . S
C382 H414 0.951 . S
C383 C382 1.340 . S
C383 C384 1.439 . S
C383 H415 0.950 . S
C384 N380 1.374 . S
C384 C383 1.439 . S
C384 C409 1.395 1_556 S
N385 Co374 2.005 . S
N385 C386 1.376 . S
N385 C389 1.383 . S
C386 N385 1.376 . S
C386 C387 1.446 . S
C386 C409 1.391 . S
C387 C386 1.446 . S
C387 C388 1.339 . S
C387 H416 0.949 . S
C388 C387 1.339 . S
C388 C389 1.439 . S
C388 H417 0.950 . S
C389 N385 1.383 . S
C389 C388 1.439 . S
C389 C407 1.392 . S
N390 Co374 2.266 1_556 S
N390 C393 1.332 . S
N390 C395 1.332 . S
C391 C392 1.386 . S
C391 C394 1.388 . S
C392 C391 1.386 . S
C392 C393 1.382 . S
C392 H418 0.950 . S
C393 N390 1.332 . S
C393 C392 1.382 . S
C393 H404 0.952 . S
C394 C391 1.388 . S
C394 C395 1.382 . S
C394 H419 0.950 . S
C395 N390 1.332 . S
C395 C394 1.382 . S
C395 H405 0.948 . S
N396 Co374 2.299 . S
N396 C400 1.332 . S
N396 C401 1.332 . S
C397 C398 1.388 . S
C397 C401 1.382 . S
C397 H420 0.950 . S
C398 C397 1.388 . S
C398 C399 1.386 . S
C399 C398 1.386 . S
C399 C400 1.382 . S
C399 H421 0.950 . S
C400 N396 1.332 . S
C400 C399 1.382 . S
C400 H402 0.952 . S
C401 N396 1.332 . S
C401 C397 1.382 . S
C401 H403 0.948 . S
H402 C400 0.952 . S
H403 C401 0.948 . S
H404 C393 0.952 . S
H405 C395 0.948 . S
C406 C372 1.395 1_556 S
C406 C376 1.391 . S
C407 C369 1.389 . S
C407 C389 1.392 . S
C408 C379 1.392 . S
C408 C381 1.389 . S
C409 C384 1.395 1_554 S
C409 C386 1.391 . S
H410 C370 0.951 . S
H411 C371 0.950 . S
H412 C377 0.949 . S
H413 C378 0.950 . S
H414 C382 0.951 . S
H415 C383 0.950 . S
H416 C387 0.949 . S
H417 C388 0.950 . S
H418 C392 0.950 . S
H419 C394 0.950 . S
H420 C397 0.950 . S
H421 C399 0.950 . S
C422 C423 1.391 . S
C422 C424 1.394 . S
C422 H438 0.931 . S
C423 C422 1.391 . S
C423 C427 1.376 . S
C424 C422 1.394 . S
C424 C425 1.369 . S
C424 C428 1.531 . S
C425 C424 1.369 . S
C425 C426 1.410 . S
C425 C433 1.503 . S
C426 C425 1.410 . S
C426 C427 1.392 . S
C426 C429 1.511 . S
C427 C423 1.376 . S
C427 C426 1.392 . S
C427 H439 0.929 . S
C428 C424 1.531 . S
C428 H440 0.960 . S
C428 H441 0.962 . S
C428 H442 0.960 . S
C429 C426 1.511 . S
C429 H443 0.961 . S
C429 H444 0.961 . S
C429 H445 0.961 . S
C430 C431 1.370 . S
C430 C432 1.363 . S
C430 H446 0.931 . S
C431 C430 1.370 . S
C431 C435 1.408 . S
C432 C430 1.363 . S
C432 C433 1.370 . S
C432 C436 1.524 . S
C433 C425 1.503 . S
C433 C432 1.370 . S
C433 C434 1.403 . S
C434 C433 1.403 . S
C434 C435 1.404 . S
C434 C437 1.539 . S
C435 C431 1.408 . S
C435 C434 1.404 . S
C435 H447 0.930 . S
C436 C432 1.524 . S
C436 H448 0.956 . S
C436 H449 0.961 . S
C436 H450 0.961 . S
C437 C434 1.539 . S
C437 H451 0.958 . S
C437 H452 0.961 . S
C437 H453 0.960 . S
H438 C422 0.931 . S
H439 C427 0.929 . S
H440 C428 0.960 . S
H441 C428 0.962 . S
H442 C428 0.960 . S
H443 C429 0.961 . S
H444 C429 0.961 . S
H445 C429 0.961 . S
H446 C430 0.931 . S
H447 C435 0.930 . S
H448 C436 0.956 . S
H449 C436 0.961 . S
H450 C436 0.961 . S
H451 C437 0.958 . S
H452 C437 0.961 . S
H453 C437 0.960 . S
C454 C455 1.391 . S
C454 C456 1.394 . S
C454 H470 0.931 . S
C455 C454 1.391 . S
C455 C459 1.376 . S
C456 C454 1.394 . S
C456 C457 1.369 . S
C456 C460 1.531 . S
C457 C456 1.369 . S
C457 C458 1.410 . S
C457 C465 1.503 . S
C458 C457 1.410 . S
C458 C459 1.392 . S
C458 C461 1.511 . S
C459 C455 1.376 . S
C459 C458 1.392 . S
C459 H471 0.929 . S
C460 C456 1.531 . S
C460 H472 0.960 . S
C460 H473 0.962 . S
C460 H474 0.960 . S
C461 C458 1.511 . S
C461 H475 0.961 . S
C461 H476 0.961 . S
C461 H477 0.961 . S
C462 C463 1.370 . S
C462 C464 1.363 . S
C462 H478 0.931 . S
C463 C462 1.370 . S
C463 C467 1.408 . S
C464 C462 1.363 . S
C464 C465 1.370 . S
C464 C468 1.524 . S
C465 C457 1.503 . S
C465 C464 1.370 . S
C465 C466 1.403 . S
C466 C465 1.403 . S
C466 C467 1.404 . S
C466 C469 1.539 . S
C467 C463 1.408 . S
C467 C466 1.404 . S
C467 H479 0.930 . S
C468 C464 1.524 . S
C468 H480 0.956 . S
C468 H481 0.961 . S
C468 H482 0.961 . S
C469 C466 1.539 . S
C469 H483 0.958 . S
C469 H484 0.961 . S
C469 H485 0.960 . S
H470 C454 0.931 . S
H471 C459 0.929 . S
H472 C460 0.960 . S
H473 C460 0.962 . S
H474 C460 0.960 . S
H475 C461 0.961 . S
H476 C461 0.961 . S
H477 C461 0.961 . S
H478 C462 0.931 . S
H479 C467 0.930 . S
H480 C468 0.956 . S
H481 C468 0.961 . S
H482 C468 0.961 . S
H483 C469 0.958 . S
H484 C469 0.961 . S
H485 C469 0.960 . S
C486 C487 1.391 . S
C486 C488 1.394 . S
C486 H502 0.931 . S
C487 C486 1.391 . S
C487 C491 1.376 . S
C488 C486 1.394 . S
C488 C489 1.369 . S
C488 C492 1.531 . S
C489 C488 1.369 . S
C489 C490 1.410 . S
C489 C497 1.503 . S
C490 C489 1.410 . S
C490 C491 1.392 . S
C490 C493 1.511 . S
C491 C487 1.376 . S
C491 C490 1.392 . S
C491 H503 0.929 . S
C492 C488 1.531 . S
C492 H504 0.960 . S
C492 H505 0.962 . S
C492 H506 0.960 . S
C493 C490 1.511 . S
C493 H507 0.961 . S
C493 H508 0.961 . S
C493 H509 0.961 . S
C494 C495 1.370 . S
C494 C496 1.363 . S
C494 H510 0.931 . S
C495 C494 1.370 . S
C495 C499 1.408 . S
C496 C494 1.363 . S
C496 C497 1.370 . S
C496 C500 1.524 . S
C497 C489 1.503 . S
C497 C496 1.370 . S
C497 C498 1.403 . S
C498 C497 1.403 . S
C498 C499 1.404 . S
C498 C501 1.539 . S
C499 C495 1.408 . S
C499 C498 1.404 . S
C499 H511 0.930 . S
C500 C496 1.524 . S
C500 H512 0.956 . S
C500 H513 0.961 . S
C500 H514 0.961 . S
C501 C498 1.539 . S
C501 H515 0.958 . S
C501 H516 0.961 . S
C501 H517 0.960 . S
H502 C486 0.931 . S
H503 C491 0.929 . S
H504 C492 0.960 . S
H505 C492 0.962 . S
H506 C492 0.960 . S
H507 C493 0.961 . S
H508 C493 0.961 . S
H509 C493 0.961 . S
H510 C494 0.931 . S
H511 C499 0.930 . S
H512 C500 0.956 . S
H513 C500 0.961 . S
H514 C500 0.961 . S
H515 C501 0.958 . S
H516 C501 0.961 . S
H517 C501 0.960 . S
C518 C519 1.391 . S
C518 C520 1.394 . S
C518 H534 0.931 . S
C519 C518 1.391 . S
C519 C523 1.376 . S
C520 C518 1.394 . S
C520 C521 1.369 . S
C520 C524 1.531 . S
C521 C520 1.369 . S
C521 C522 1.410 . S
C521 C529 1.503 . S
C522 C521 1.410 . S
C522 C523 1.392 . S
C522 C525 1.511 . S
C523 C519 1.376 . S
C523 C522 1.392 . S
C523 H535 0.929 . S
C524 C520 1.531 . S
C524 H536 0.960 . S
C524 H537 0.962 . S
C524 H538 0.960 . S
C525 C522 1.511 . S
C525 H539 0.961 . S
C525 H540 0.961 . S
C525 H541 0.961 . S
C526 C527 1.370 . S
C526 C528 1.363 . S
C526 H542 0.931 . S
C527 C526 1.370 . S
C527 C531 1.408 . S
C528 C526 1.363 . S
C528 C529 1.370 . S
C528 C532 1.524 . S
C529 C521 1.503 . S
C529 C528 1.370 . S
C529 C530 1.403 . S
C530 C529 1.403 . S
C530 C531 1.404 . S
C530 C533 1.539 . S
C531 C527 1.408 . S
C531 C530 1.404 . S
C531 H543 0.930 . S
C532 C528 1.524 . S
C532 H544 0.956 . S
C532 H545 0.961 . S
C532 H546 0.961 . S
C533 C530 1.539 . S
C533 H547 0.958 . S
C533 H548 0.961 . S
C533 H549 0.960 . S
H534 C518 0.931 . S
H535 C523 0.929 . S
H536 C524 0.960 . S
H537 C524 0.962 . S
H538 C524 0.960 . S
H539 C525 0.961 . S
H540 C525 0.961 . S
H541 C525 0.961 . S
H542 C526 0.931 . S
H543 C531 0.930 . S
H544 C532 0.956 . S
H545 C532 0.961 . S
H546 C532 0.961 . S
H547 C533 0.958 . S
H548 C533 0.961 . S
H549 C533 0.960 . S
C550 C551 1.391 . S
C550 C552 1.394 . S
C550 H566 0.931 . S
C551 C550 1.391 . S
C551 C555 1.376 . S
C552 C550 1.394 . S
C552 C553 1.369 . S
C552 C556 1.531 . S
C553 C552 1.369 . S
C553 C554 1.410 . S
C553 C561 1.503 . S
C554 C553 1.410 . S
C554 C555 1.392 . S
C554 C557 1.511 . S
C555 C551 1.376 . S
C555 C554 1.392 . S
C555 H567 0.929 . S
C556 C552 1.531 . S
C556 H568 0.960 . S
C556 H569 0.962 . S
C556 H570 0.960 . S
C557 C554 1.511 . S
C557 H571 0.961 . S
C557 H572 0.961 . S
C557 H573 0.961 . S
C558 C559 1.370 . S
C558 C560 1.363 . S
C558 H574 0.931 . S
C559 C558 1.370 . S
C559 C563 1.408 . S
C560 C558 1.363 . S
C560 C561 1.370 . S
C560 C564 1.524 . S
C561 C553 1.503 . S
C561 C560 1.370 . S
C561 C562 1.403 . S
C562 C561 1.403 . S
C562 C563 1.404 . S
C562 C565 1.539 . S
C563 C559 1.408 . S
C563 C562 1.404 . S
C563 H575 0.930 . S
C564 C560 1.524 . S
C564 H576 0.956 . S
C564 H577 0.961 . S
C564 H578 0.961 . S
C565 C562 1.539 . S
C565 H579 0.958 . S
C565 H580 0.961 . S
C565 H581 0.960 . S
H566 C550 0.931 . S
H567 C555 0.929 . S
H568 C556 0.960 . S
H569 C556 0.962 . S
H570 C556 0.960 . S
H571 C557 0.961 . S
H572 C557 0.961 . S
H573 C557 0.961 . S
H574 C558 0.931 . S
H575 C563 0.930 . S
H576 C564 0.956 . S
H577 C564 0.961 . S
H578 C564 0.961 . S
H579 C565 0.958 . S
H580 C565 0.961 . S
H581 C565 0.960 . S
C582 C583 1.391 . S
C582 C584 1.394 . S
C582 H598 0.931 . S
C583 C582 1.391 . S
C583 C587 1.376 . S
C584 C582 1.394 . S
C584 C585 1.369 . S
C584 C588 1.531 . S
C585 C584 1.369 . S
C585 C586 1.410 . S
C585 C593 1.503 . S
C586 C585 1.410 . S
C586 C587 1.392 . S
C586 C589 1.511 . S
C587 C583 1.376 . S
C587 C586 1.392 . S
C587 H599 0.929 . S
C588 C584 1.531 . S
C588 H600 0.960 . S
C588 H601 0.962 . S
C588 H602 0.960 . S
C589 C586 1.511 . S
C589 H603 0.961 . S
C589 H604 0.961 . S
C589 H605 0.961 . S
C590 C591 1.370 . S
C590 C592 1.363 . S
C590 H606 0.931 . S
C591 C590 1.370 . S
C591 C595 1.408 . S
C592 C590 1.363 . S
C592 C593 1.370 . S
C592 C596 1.524 . S
C593 C585 1.503 . S
C593 C592 1.370 . S
C593 C594 1.403 . S
C594 C593 1.403 . S
C594 C595 1.404 . S
C594 C597 1.539 . S
C595 C591 1.408 . S
C595 C594 1.404 . S
C595 H607 0.930 . S
C596 C592 1.524 . S
C596 H608 0.956 . S
C596 H609 0.961 . S
C596 H610 0.961 . S
C597 C594 1.539 . S
C597 H611 0.958 . S
C597 H612 0.961 . S
C597 H613 0.960 . S
H598 C582 0.931 . S
H599 C587 0.929 . S
H600 C588 0.960 . S
H601 C588 0.962 . S
H602 C588 0.960 . S
H603 C589 0.961 . S
H604 C589 0.961 . S
H605 C589 0.961 . S
H606 C590 0.931 . S
H607 C595 0.930 . S
H608 C596 0.956 . S
H609 C596 0.961 . S
H610 C596 0.961 . S
H611 C597 0.958 . S
H612 C597 0.961 . S
H613 C597 0.960 . S
C614 C615 1.391 . S
C614 C616 1.394 . S
C614 H630 0.931 . S
C615 C614 1.391 . S
C615 C619 1.376 . S
C616 C614 1.394 . S
C616 C617 1.369 . S
C616 C620 1.531 . S
C617 C616 1.369 . S
C617 C618 1.410 . S
C617 C625 1.503 . S
C618 C617 1.410 . S
C618 C619 1.392 . S
C618 C621 1.511 . S
C619 C615 1.376 . S
C619 C618 1.392 . S
C619 H631 0.929 . S
C620 C616 1.531 . S
C620 H632 0.960 . S
C620 H633 0.962 . S
C620 H634 0.960 . S
C621 C618 1.511 . S
C621 H635 0.961 . S
C621 H636 0.961 . S
C621 H637 0.961 . S
C622 C623 1.370 . S
C622 C624 1.363 . S
C622 H638 0.931 . S
C623 C622 1.370 . S
C623 C627 1.408 . S
C624 C622 1.363 . S
C624 C625 1.370 . S
C624 C628 1.524 . S
C625 C617 1.503 . S
C625 C624 1.370 . S
C625 C626 1.403 . S
C626 C625 1.403 . S
C626 C627 1.404 . S
C626 C629 1.539 . S
C627 C623 1.408 . S
C627 C626 1.404 . S
C627 H639 0.930 . S
C628 C624 1.524 . S
C628 H640 0.956 . S
C628 H641 0.961 . S
C628 H642 0.961 . S
C629 C626 1.539 . S
C629 H643 0.958 . S
C629 H644 0.961 . S
C629 H645 0.960 . S
H630 C614 0.931 . S
H631 C619 0.929 . S
H632 C620 0.960 . S
H633 C620 0.962 . S
H634 C620 0.960 . S
H635 C621 0.961 . S
H636 C621 0.961 . S
H637 C621 0.961 . S
H638 C622 0.931 . S
H639 C627 0.930 . S
H640 C628 0.956 . S
H641 C628 0.961 . S
H642 C628 0.961 . S
H643 C629 0.958 . S
H644 C629 0.961 . S
H645 C629 0.960 . S
C646 C647 1.391 . S
C646 C648 1.394 . S
C646 H662 0.931 . S
C647 C646 1.391 . S
C647 C651 1.376 . S
C648 C646 1.394 . S
C648 C649 1.369 . S
C648 C652 1.531 . S
C649 C648 1.369 . S
C649 C650 1.410 . S
C649 C657 1.503 . S
C650 C649 1.410 . S
C650 C651 1.392 . S
C650 C653 1.511 . S
C651 C647 1.376 . S
C651 C650 1.392 . S
C651 H663 0.929 . S
C652 C648 1.531 . S
C652 H664 0.960 . S
C652 H665 0.962 . S
C652 H666 0.960 . S
C653 C650 1.511 . S
C653 H667 0.961 . S
C653 H668 0.961 . S
C653 H669 0.961 . S
C654 C655 1.370 . S
C654 C656 1.363 . S
C654 H670 0.931 . S
C655 C654 1.370 . S
C655 C659 1.408 . S
C656 C654 1.363 . S
C656 C657 1.370 . S
C656 C660 1.524 . S
C657 C649 1.503 . S
C657 C656 1.370 . S
C657 C658 1.403 . S
C658 C657 1.403 . S
C658 C659 1.404 . S
C658 C661 1.539 . S
C659 C655 1.408 . S
C659 C658 1.404 . S
C659 H671 0.930 . S
C660 C656 1.524 . S
C660 H672 0.956 . S
C660 H673 0.961 . S
C660 H674 0.961 . S
C661 C658 1.539 . S
C661 H675 0.958 . S
C661 H676 0.961 . S
C661 H677 0.960 . S
H662 C646 0.931 . S
H663 C651 0.929 . S
H664 C652 0.960 . S
H665 C652 0.962 . S
H666 C652 0.960 . S
H667 C653 0.961 . S
H668 C653 0.961 . S
H669 C653 0.961 . S
H670 C654 0.931 . S
H671 C659 0.930 . S
H672 C660 0.956 . S
H673 C660 0.961 . S
H674 C660 0.961 . S
H675 C661 0.958 . S
H676 C661 0.961 . S
H677 C661 0.960 . S
C678 C679 1.391 . S
C678 C680 1.394 . S
C678 H694 0.931 . S
C679 C678 1.391 . S
C679 C683 1.376 . S
C680 C678 1.394 . S
C680 C681 1.369 . S
C680 C684 1.531 . S
C681 C680 1.369 . S
C681 C682 1.410 . S
C681 C689 1.503 . S
C682 C681 1.410 . S
C682 C683 1.392 . S
C682 C685 1.511 . S
C683 C679 1.376 . S
C683 C682 1.392 . S
C683 H695 0.929 . S
C684 C680 1.531 . S
C684 H696 0.960 . S
C684 H697 0.962 . S
C684 H698 0.960 . S
C685 C682 1.511 . S
C685 H699 0.961 . S
C685 H700 0.961 . S
C685 H701 0.961 . S
C686 C687 1.370 . S
C686 C688 1.363 . S
C686 H702 0.931 . S
C687 C686 1.370 . S
C687 C691 1.408 . S
C688 C686 1.363 . S
C688 C689 1.370 . S
C688 C692 1.524 . S
C689 C681 1.503 . S
C689 C688 1.370 . S
C689 C690 1.403 . S
C690 C689 1.403 . S
C690 C691 1.404 . S
C690 C693 1.539 . S
C691 C687 1.408 . S
C691 C690 1.404 . S
C691 H703 0.930 . S
C692 C688 1.524 . S
C692 H704 0.956 . S
C692 H705 0.961 . S
C692 H706 0.961 . S
C693 C690 1.539 . S
C693 H707 0.958 . S
C693 H708 0.961 . S
C693 H709 0.960 . S
H694 C678 0.931 . S
H695 C683 0.929 . S
H696 C684 0.960 . S
H697 C684 0.962 . S
H698 C684 0.960 . S
H699 C685 0.961 . S
H700 C685 0.961 . S
H701 C685 0.961 . S
H702 C686 0.931 . S
H703 C691 0.930 . S
H704 C692 0.956 . S
H705 C692 0.961 . S
H706 C692 0.961 . S
H707 C693 0.958 . S
H708 C693 0.961 . S
H709 C693 0.960 . S
C710 C711 1.391 . S
C710 C712 1.394 . S
C710 H726 0.931 . S
C711 C710 1.391 . S
C711 C715 1.376 . S
C712 C710 1.394 . S
C712 C713 1.369 . S
C712 C716 1.531 . S
C713 C712 1.369 . S
C713 C714 1.410 . S
C713 C721 1.503 . S
C714 C713 1.410 . S
C714 C715 1.392 . S
C714 C717 1.511 . S
C715 C711 1.376 . S
C715 C714 1.392 . S
C715 H727 0.929 . S
C716 C712 1.531 . S
C716 H728 0.960 . S
C716 H729 0.962 . S
C716 H730 0.960 . S
C717 C714 1.511 . S
C717 H731 0.961 . S
C717 H732 0.961 . S
C717 H733 0.961 . S
C718 C719 1.370 . S
C718 C720 1.363 . S
C718 H734 0.931 . S
C719 C718 1.370 . S
C719 C723 1.408 . S
C720 C718 1.363 . S
C720 C721 1.370 . S
C720 C724 1.524 . S
C721 C713 1.503 . S
C721 C720 1.370 . S
C721 C722 1.403 . S
C722 C721 1.403 . S
C722 C723 1.404 . S
C722 C725 1.539 . S
C723 C719 1.408 . S
C723 C722 1.404 . S
C723 H735 0.930 . S
C724 C720 1.524 . S
C724 H736 0.956 . S
C724 H737 0.961 . S
C724 H738 0.961 . S
C725 C722 1.539 . S
C725 H739 0.958 . S
C725 H740 0.961 . S
C725 H741 0.960 . S
H726 C710 0.931 . S
H727 C715 0.929 . S
H728 C716 0.960 . S
H729 C716 0.962 . S
H730 C716 0.960 . S
H731 C717 0.961 . S
H732 C717 0.961 . S
H733 C717 0.961 . S
H734 C718 0.931 . S
H735 C723 0.930 . S
H736 C724 0.956 . S
H737 C724 0.961 . S
H738 C724 0.961 . S
H739 C725 0.958 . S
H740 C725 0.961 . S
H741 C725 0.960 . S
C742 C743 1.391 . S
C742 C744 1.394 . S
C742 H758 0.931 . S
C743 C742 1.391 . S
C743 C747 1.376 . S
C744 C742 1.394 . S
C744 C745 1.369 . S
C744 C748 1.531 . S
C745 C744 1.369 . S
C745 C746 1.410 . S
C745 C753 1.503 . S
C746 C745 1.410 . S
C746 C747 1.392 . S
C746 C749 1.511 . S
C747 C743 1.376 . S
C747 C746 1.392 . S
C747 H759 0.929 . S
C748 C744 1.531 . S
C748 H760 0.960 . S
C748 H761 0.962 . S
C748 H762 0.960 . S
C749 C746 1.511 . S
C749 H763 0.961 . S
C749 H764 0.961 . S
C749 H765 0.961 . S
C750 C751 1.370 . S
C750 C752 1.363 . S
C750 H766 0.931 . S
C751 C750 1.370 . S
C751 C755 1.408 . S
C752 C750 1.363 . S
C752 C753 1.370 . S
C752 C756 1.524 . S
C753 C745 1.503 . S
C753 C752 1.370 . S
C753 C754 1.403 . S
C754 C753 1.403 . S
C754 C755 1.404 . S
C754 C757 1.539 . S
C755 C751 1.408 . S
C755 C754 1.404 . S
C755 H767 0.930 . S
C756 C752 1.524 . S
C756 H768 0.956 . S
C756 H769 0.961 . S
C756 H770 0.961 . S
C757 C754 1.539 . S
C757 H771 0.958 . S
C757 H772 0.961 . S
C757 H773 0.960 . S
H758 C742 0.931 . S
H759 C747 0.929 . S
H760 C748 0.960 . S
H761 C748 0.962 . S
H762 C748 0.960 . S
H763 C749 0.961 . S
H764 C749 0.961 . S
H765 C749 0.961 . S
H766 C750 0.931 . S
H767 C755 0.930 . S
H768 C756 0.956 . S
H769 C756 0.961 . S
H770 C756 0.961 . S
H771 C757 0.958 . S
H772 C757 0.961 . S
H773 C757 0.960 . S
C774 C775 1.391 . S
C774 C776 1.394 . S
C774 H790 0.931 . S
C775 C774 1.391 . S
C775 C779 1.376 . S
C776 C774 1.394 . S
C776 C777 1.369 . S
C776 C780 1.531 . S
C777 C776 1.369 . S
C777 C778 1.410 . S
C777 C785 1.503 . S
C778 C777 1.410 . S
C778 C779 1.392 . S
C778 C781 1.511 . S
C779 C775 1.376 . S
C779 C778 1.392 . S
C779 H791 0.929 . S
C780 C776 1.531 . S
C780 H792 0.960 . S
C780 H793 0.962 . S
C780 H794 0.960 . S
C781 C778 1.511 . S
C781 H795 0.961 . S
C781 H796 0.961 . S
C781 H797 0.961 . S
C782 C783 1.370 . S
C782 C784 1.363 . S
C782 H798 0.931 . S
C783 C782 1.370 . S
C783 C787 1.408 . S
C784 C782 1.363 . S
C784 C785 1.370 . S
C784 C788 1.524 . S
C785 C777 1.503 . S
C785 C784 1.370 . S
C785 C786 1.403 . S
C786 C785 1.403 . S
C786 C787 1.404 . S
C786 C789 1.539 . S
C787 C783 1.408 . S
C787 C786 1.404 . S
C787 H799 0.930 . S
C788 C784 1.524 . S
C788 H800 0.956 . S
C788 H801 0.961 . S
C788 H802 0.961 . S
C789 C786 1.539 . S
C789 H803 0.958 . S
C789 H804 0.961 . S
C789 H805 0.960 . S
H790 C774 0.931 . S
H791 C779 0.929 . S
H792 C780 0.960 . S
H793 C780 0.962 . S
H794 C780 0.960 . S
H795 C781 0.961 . S
H796 C781 0.961 . S
H797 C781 0.961 . S
H798 C782 0.931 . S
H799 C787 0.930 . S
H800 C788 0.956 . S
H801 C788 0.961 . S
H802 C788 0.961 . S
H803 C789 0.958 . S
H804 C789 0.961 . S
H805 C789 0.960 . S
C806 C807 1.391 . S
C806 C808 1.394 . S
C806 H822 0.931 . S
C807 C806 1.391 . S
C807 C811 1.376 . S
C808 C806 1.394 . S
C808 C809 1.369 . S
C808 C812 1.531 . S
C809 C808 1.369 . S
C809 C810 1.410 . S
C809 C817 1.503 . S
C810 C809 1.410 . S
C810 C811 1.392 . S
C810 C813 1.511 . S
C811 C807 1.376 . S
C811 C810 1.392 . S
C811 H823 0.929 . S
C812 C808 1.531 . S
C812 H824 0.960 . S
C812 H825 0.962 . S
C812 H826 0.960 . S
C813 C810 1.511 . S
C813 H827 0.961 . S
C813 H828 0.961 . S
C813 H829 0.961 . S
C814 C815 1.370 . S
C814 C816 1.363 . S
C814 H830 0.931 . S
C815 C814 1.370 . S
C815 C819 1.408 . S
C816 C814 1.363 . S
C816 C817 1.370 . S
C816 C820 1.524 . S
C817 C809 1.503 . S
C817 C816 1.370 . S
C817 C818 1.403 . S
C818 C817 1.403 . S
C818 C819 1.404 . S
C818 C821 1.539 . S
C819 C815 1.408 . S
C819 C818 1.404 . S
C819 H831 0.930 . S
C820 C816 1.524 . S
C820 H832 0.956 . S
C820 H833 0.961 . S
C820 H834 0.961 . S
C821 C818 1.539 . S
C821 H835 0.958 . S
C821 H836 0.961 . S
C821 H837 0.960 . S
H822 C806 0.931 . S
H823 C811 0.929 . S
H824 C812 0.960 . S
H825 C812 0.962 . S
H826 C812 0.960 . S
H827 C813 0.961 . S
H828 C813 0.961 . S
H829 C813 0.961 . S
H830 C814 0.931 . S
H831 C819 0.930 . S
H832 C820 0.956 . S
H833 C820 0.961 . S
H834 C820 0.961 . S
H835 C821 0.958 . S
H836 C821 0.961 . S
H837 C821 0.960 . S
C838 C839 1.391 . S
C838 C840 1.394 . S
C838 H854 0.931 . S
C839 C838 1.391 . S
C839 C843 1.376 . S
C840 C838 1.394 . S
C840 C841 1.369 . S
C840 C844 1.531 . S
C841 C840 1.369 . S
C841 C842 1.410 . S
C841 C849 1.503 . S
C842 C841 1.410 . S
C842 C843 1.392 . S
C842 C845 1.511 . S
C843 C839 1.376 . S
C843 C842 1.392 . S
C843 H855 0.929 . S
C844 C840 1.531 . S
C844 H856 0.960 . S
C844 H857 0.962 . S
C844 H858 0.960 . S
C845 C842 1.511 . S
C845 H859 0.961 . S
C845 H860 0.961 . S
C845 H861 0.961 . S
C846 C847 1.370 . S
C846 C848 1.363 . S
C846 H862 0.931 . S
C847 C846 1.370 . S
C847 C851 1.408 . S
C848 C846 1.363 . S
C848 C849 1.370 . S
C848 C852 1.524 . S
C849 C841 1.503 . S
C849 C848 1.370 . S
C849 C850 1.403 . S
C850 C849 1.403 . S
C850 C851 1.404 . S
C850 C853 1.539 . S
C851 C847 1.408 . S
C851 C850 1.404 . S
C851 H863 0.930 . S
C852 C848 1.524 . S
C852 H864 0.956 . S
C852 H865 0.961 . S
C852 H866 0.961 . S
C853 C850 1.539 . S
C853 H867 0.958 . S
C853 H868 0.961 . S
C853 H869 0.960 . S
H854 C838 0.931 . S
H855 C843 0.929 . S
H856 C844 0.960 . S
H857 C844 0.962 . S
H858 C844 0.960 . S
H859 C845 0.961 . S
H860 C845 0.961 . S
H861 C845 0.961 . S
H862 C846 0.931 . S
H863 C851 0.930 . S
H864 C852 0.956 . S
H865 C852 0.961 . S
H866 C852 0.961 . S
H867 C853 0.958 . S
H868 C853 0.961 . S
H869 C853 0.960 . S
C870 C871 1.391 . S
C870 C872 1.394 . S
C870 H886 0.931 . S
C871 C870 1.391 . S
C871 C875 1.376 . S
C872 C870 1.394 . S
C872 C873 1.369 . S
C872 C876 1.531 . S
C873 C872 1.369 . S
C873 C874 1.410 . S
C873 C881 1.503 . S
C874 C873 1.410 . S
C874 C875 1.392 . S
C874 C877 1.511 . S
C875 C871 1.376 . S
C875 C874 1.392 . S
C875 H887 0.929 . S
C876 C872 1.531 . S
C876 H888 0.960 . S
C876 H889 0.962 . S
C876 H890 0.960 . S
C877 C874 1.511 . S
C877 H891 0.961 . S
C877 H892 0.961 . S
C877 H893 0.961 . S
C878 C879 1.370 . S
C878 C880 1.363 . S
C878 H894 0.931 . S
C879 C878 1.370 . S
C879 C883 1.408 . S
C880 C878 1.363 . S
C880 C881 1.370 . S
C880 C884 1.524 . S
C881 C873 1.503 . S
C881 C880 1.370 . S
C881 C882 1.403 . S
C882 C881 1.403 . S
C882 C883 1.404 . S
C882 C885 1.539 . S
C883 C879 1.408 . S
C883 C882 1.404 . S
C883 H895 0.930 . S
C884 C880 1.524 . S
C884 H896 0.956 . S
C884 H897 0.961 . S
C884 H898 0.961 . S
C885 C882 1.539 . S
C885 H899 0.958 . S
C885 H900 0.961 . S
C885 H901 0.960 . S
H886 C870 0.931 . S
H887 C875 0.929 . S
H888 C876 0.960 . S
H889 C876 0.962 . S
H890 C876 0.960 . S
H891 C877 0.961 . S
H892 C877 0.961 . S
H893 C877 0.961 . S
H894 C878 0.931 . S
H895 C883 0.930 . S
H896 C884 0.956 . S
H897 C884 0.961 . S
H898 C884 0.961 . S
H899 C885 0.958 . S
H900 C885 0.961 . S
H901 C885 0.960 . S
C902 C903 1.391 . S
C902 C904 1.394 . S
C902 H918 0.931 . S
C903 C902 1.391 . S
C903 C907 1.376 . S
C904 C902 1.394 . S
C904 C905 1.369 . S
C904 C908 1.531 . S
C905 C904 1.369 . S
C905 C906 1.410 . S
C905 C913 1.503 . S
C906 C905 1.410 . S
C906 C907 1.392 . S
C906 C909 1.511 . S
C907 C903 1.376 . S
C907 C906 1.392 . S
C907 H919 0.929 . S
C908 C904 1.531 . S
C908 H920 0.960 . S
C908 H921 0.962 . S
C908 H922 0.960 . S
C909 C906 1.511 . S
C909 H923 0.961 . S
C909 H924 0.961 . S
C909 H925 0.961 . S
C910 C911 1.370 . S
C910 C912 1.363 . S
C910 H926 0.931 . S
C911 C910 1.370 . S
C911 C915 1.408 . S
C912 C910 1.363 . S
C912 C913 1.370 . S
C912 C916 1.524 . S
C913 C905 1.503 . S
C913 C912 1.370 . S
C913 C914 1.403 . S
C914 C913 1.403 . S
C914 C915 1.404 . S
C914 C917 1.539 . S
C915 C911 1.408 . S
C915 C914 1.404 . S
C915 H927 0.930 . S
C916 C912 1.524 . S
C916 H928 0.956 . S
C916 H929 0.961 . S
C916 H930 0.961 . S
C917 C914 1.539 . S
C917 H931 0.958 . S
C917 H932 0.961 . S
C917 H933 0.960 . S
H918 C902 0.931 . S
H919 C907 0.929 . S
H920 C908 0.960 . S
H921 C908 0.962 . S
H922 C908 0.960 . S
H923 C909 0.961 . S
H924 C909 0.961 . S
H925 C909 0.961 . S
H926 C910 0.931 . S
H927 C915 0.930 . S
H928 C916 0.956 . S
H929 C916 0.961 . S
H930 C916 0.961 . S
H931 C917 0.958 . S
H932 C917 0.961 . S
H933 C917 0.960 . S
C934 C935 1.391 . S
C934 C936 1.394 . S
C934 H950 0.931 . S
C935 C934 1.391 . S
C935 C939 1.376 . S
C936 C934 1.394 . S
C936 C937 1.369 . S
C936 C940 1.531 . S
C937 C936 1.369 . S
C937 C938 1.410 . S
C937 C945 1.503 . S
C938 C937 1.410 . S
C938 C939 1.392 . S
C938 C941 1.511 . S
C939 C935 1.376 . S
C939 C938 1.392 . S
C939 H951 0.929 . S
C940 C936 1.531 . S
C940 H952 0.960 . S
C940 H953 0.962 . S
C940 H954 0.960 . S
C941 C938 1.511 . S
C941 H955 0.961 . S
C941 H956 0.961 . S
C941 H957 0.961 . S
C942 C943 1.370 . S
C942 C944 1.363 . S
C942 H958 0.931 . S
C943 C942 1.370 . S
C943 C947 1.408 . S
C944 C942 1.363 . S
C944 C945 1.370 . S
C944 C948 1.524 . S
C945 C937 1.503 . S
C945 C944 1.370 . S
C945 C946 1.403 . S
C946 C945 1.403 . S
C946 C947 1.404 . S
C946 C949 1.539 . S
C947 C943 1.408 . S
C947 C946 1.404 . S
C947 H959 0.930 . S
C948 C944 1.524 . S
C948 H960 0.956 . S
C948 H961 0.961 . S
C948 H962 0.961 . S
C949 C946 1.539 . S
C949 H963 0.958 . S
C949 H964 0.961 . S
C949 H965 0.960 . S
H950 C934 0.931 . S
H951 C939 0.929 . S
H952 C940 0.960 . S
H953 C940 0.962 . S
H954 C940 0.960 . S
H955 C941 0.961 . S
H956 C941 0.961 . S
H957 C941 0.961 . S
H958 C942 0.931 . S
H959 C947 0.930 . S
H960 C948 0.956 . S
H961 C948 0.961 . S
H962 C948 0.961 . S
H963 C949 0.958 . S
H964 C949 0.961 . S
H965 C949 0.960 . S
C966 C967 1.391 . S
C966 C968 1.394 . S
C966 H982 0.931 . S
C967 C966 1.391 . S
C967 C971 1.376 . S
C968 C966 1.394 . S
C968 C969 1.369 . S
C968 C972 1.531 . S
C969 C968 1.369 . S
C969 C970 1.410 . S
C969 C977 1.503 . S
C970 C969 1.410 . S
C970 C971 1.392 . S
C970 C973 1.511 . S
C971 C967 1.376 . S
C971 C970 1.392 . S
C971 H983 0.929 . S
C972 C968 1.531 . S
C972 H984 0.960 . S
C972 H985 0.962 . S
C972 H986 0.960 . S
C973 C970 1.511 . S
C973 H987 0.961 . S
C973 H988 0.961 . S
C973 H989 0.961 . S
C974 C975 1.370 . S
C974 C976 1.363 . S
C974 H990 0.931 . S
C975 C974 1.370 . S
C975 C979 1.408 . S
C976 C974 1.363 . S
C976 C977 1.370 . S
C976 C980 1.524 . S
C977 C969 1.503 . S
C977 C976 1.370 . S
C977 C978 1.403 . S
C978 C977 1.403 . S
C978 C979 1.404 . S
C978 C981 1.539 . S
C979 C975 1.408 . S
C979 C978 1.404 . S
C979 H991 0.930 . S
C980 C976 1.524 . S
C980 H992 0.956 . S
C980 H993 0.961 . S
C980 H994 0.961 . S
C981 C978 1.539 . S
C981 H995 0.958 . S
C981 H996 0.961 . S
C981 H997 0.960 . S
H982 C966 0.931 . S
H983 C971 0.929 . S
H984 C972 0.960 . S
H985 C972 0.962 . S
H986 C972 0.960 . S
H987 C973 0.961 . S
H988 C973 0.961 . S
H989 C973 0.961 . S
H990 C974 0.931 . S
H991 C979 0.930 . S
H992 C980 0.956 . S
H993 C980 0.961 . S
H994 C980 0.961 . S
H995 C981 0.958 . S
H996 C981 0.961 . S
H997 C981 0.960 . S
C998 C999 1.391 . S
C998 C1000 1.394 . S
C998 H1014 0.931 . S
C999 C998 1.391 . S
C999 C1003 1.376 . S
C1000 C998 1.394 . S
C1000 C1001 1.369 . S
C1000 C1004 1.531 . S
C1001 C1000 1.369 . S
C1001 C1002 1.410 . S
C1001 C1009 1.503 . S
C1002 C1001 1.410 . S
C1002 C1003 1.392 . S
C1002 C1005 1.511 . S
C1003 C999 1.376 . S
C1003 C1002 1.392 . S
C1003 H1015 0.929 . S
C1004 C1000 1.531 . S
C1004 H1016 0.960 . S
C1004 H1017 0.962 . S
C1004 H1018 0.960 . S
C1005 C1002 1.511 . S
C1005 H1019 0.961 . S
C1005 H1020 0.961 . S
C1005 H1021 0.961 . S
C1006 C1007 1.370 . S
C1006 C1008 1.363 . S
C1006 H1022 0.931 . S
C1007 C1006 1.370 . S
C1007 C1011 1.408 . S
C1008 C1006 1.363 . S
C1008 C1009 1.370 . S
C1008 C1012 1.524 . S
C1009 C1001 1.503 . S
C1009 C1008 1.370 . S
C1009 C1010 1.403 . S
C1010 C1009 1.403 . S
C1010 C1011 1.404 . S
C1010 C1013 1.539 . S
C1011 C1007 1.408 . S
C1011 C1010 1.404 . S
C1011 H1023 0.930 . S
C1012 C1008 1.524 . S
C1012 H1024 0.956 . S
C1012 H1025 0.961 . S
C1012 H1026 0.961 . S
C1013 C1010 1.539 . S
C1013 H1027 0.958 . S
C1013 H1028 0.961 . S
C1013 H1029 0.960 . S
H1014 C998 0.931 . S
H1015 C1003 0.929 . S
H1016 C1004 0.960 . S
H1017 C1004 0.962 . S
H1018 C1004 0.960 . S
H1019 C1005 0.961 . S
H1020 C1005 0.961 . S
H1021 C1005 0.961 . S
H1022 C1006 0.931 . S
H1023 C1011 0.930 . S
H1024 C1012 0.956 . S
H1025 C1012 0.961 . S
H1026 C1012 0.961 . S
H1027 C1013 0.958 . S
H1028 C1013 0.961 . S
H1029 C1013 0.960 . S
C1030 C1031 1.391 . S
C1030 C1032 1.394 . S
C1030 H1046 0.931 . S
C1031 C1030 1.391 . S
C1031 C1035 1.376 . S
C1032 C1030 1.394 . S
C1032 C1033 1.369 . S
C1032 C1036 1.531 . S
C1033 C1032 1.369 . S
C1033 C1034 1.410 . S
C1033 C1041 1.503 . S
C1034 C1033 1.410 . S
C1034 C1035 1.392 . S
C1034 C1037 1.511 . S
C1035 C1031 1.376 . S
C1035 C1034 1.392 . S
C1035 H1047 0.929 . S
C1036 C1032 1.531 . S
C1036 H1048 0.960 . S
C1036 H1049 0.962 . S
C1036 H1050 0.960 . S
C1037 C1034 1.511 . S
C1037 H1051 0.961 . S
C1037 H1052 0.961 . S
C1037 H1053 0.961 . S
C1038 C1039 1.370 . S
C1038 C1040 1.363 . S
C1038 H1054 0.931 . S
C1039 C1038 1.370 . S
C1039 C1043 1.408 . S
C1040 C1038 1.363 . S
C1040 C1041 1.370 . S
C1040 C1044 1.524 . S
C1041 C1033 1.503 . S
C1041 C1040 1.370 . S
C1041 C1042 1.403 . S
C1042 C1041 1.403 . S
C1042 C1043 1.404 . S
C1042 C1045 1.539 . S
C1043 C1039 1.408 . S
C1043 C1042 1.404 . S
C1043 H1055 0.930 . S
C1044 C1040 1.524 . S
C1044 H1056 0.956 . S
C1044 H1057 0.961 . S
C1044 H1058 0.961 . S
C1045 C1042 1.539 . S
C1045 H1059 0.958 . S
C1045 H1060 0.961 . S
C1045 H1061 0.960 . S
H1046 C1030 0.931 . S
H1047 C1035 0.929 . S
H1048 C1036 0.960 . S
H1049 C1036 0.962 . S
H1050 C1036 0.960 . S
H1051 C1037 0.961 . S
H1052 C1037 0.961 . S
H1053 C1037 0.961 . S
H1054 C1038 0.931 . S
H1055 C1043 0.930 . S
H1056 C1044 0.956 . S
H1057 C1044 0.961 . S
H1058 C1044 0.961 . S
H1059 C1045 0.958 . S
H1060 C1045 0.961 . S
H1061 C1045 0.960 . S
C1062 C1063 1.391 . S
C1062 C1064 1.394 . S
C1062 H1078 0.931 . S
C1063 C1062 1.391 . S
C1063 C1067 1.376 . S
C1064 C1062 1.394 . S
C1064 C1065 1.369 . S
C1064 C1068 1.531 . S
C1065 C1064 1.369 . S
C1065 C1066 1.410 . S
C1065 C1073 1.503 . S
C1066 C1065 1.410 . S
C1066 C1067 1.392 . S
C1066 C1069 1.511 . S
C1067 C1063 1.376 . S
C1067 C1066 1.392 . S
C1067 H1079 0.929 . S
C1068 C1064 1.531 . S
C1068 H1080 0.960 . S
C1068 H1081 0.962 . S
C1068 H1082 0.960 . S
C1069 C1066 1.511 . S
C1069 H1083 0.961 . S
C1069 H1084 0.961 . S
C1069 H1085 0.961 . S
C1070 C1071 1.370 . S
C1070 C1072 1.363 . S
C1070 H1086 0.931 . S
C1071 C1070 1.370 . S
C1071 C1075 1.408 . S
C1072 C1070 1.363 . S
C1072 C1073 1.370 . S
C1072 C1076 1.524 . S
C1073 C1065 1.503 . S
C1073 C1072 1.370 . S
C1073 C1074 1.403 . S
C1074 C1073 1.403 . S
C1074 C1075 1.404 . S
C1074 C1077 1.539 . S
C1075 C1071 1.408 . S
C1075 C1074 1.404 . S
C1075 H1087 0.930 . S
C1076 C1072 1.524 . S
C1076 H1088 0.956 . S
C1076 H1089 0.961 . S
C1076 H1090 0.961 . S
C1077 C1074 1.539 . S
C1077 H1091 0.958 . S
C1077 H1092 0.961 . S
C1077 H1093 0.960 . S
H1078 C1062 0.931 . S
H1079 C1067 0.929 . S
H1080 C1068 0.960 . S
H1081 C1068 0.962 . S
H1082 C1068 0.960 . S
H1083 C1069 0.961 . S
H1084 C1069 0.961 . S
H1085 C1069 0.961 . S
H1086 C1070 0.931 . S
H1087 C1075 0.930 . S
H1088 C1076 0.956 . S
H1089 C1076 0.961 . S
H1090 C1076 0.961 . S
H1091 C1077 0.958 . S
H1092 C1077 0.961 . S
H1093 C1077 0.960 . S
C1094 C1095 1.391 . S
C1094 C1096 1.394 . S
C1094 H1110 0.931 . S
C1095 C1094 1.391 . S
C1095 C1099 1.376 . S
C1096 C1094 1.394 . S
C1096 C1097 1.369 . S
C1096 C1100 1.531 . S
C1097 C1096 1.369 . S
C1097 C1098 1.410 . S
C1097 C1105 1.503 . S
C1098 C1097 1.410 . S
C1098 C1099 1.392 . S
C1098 C1101 1.511 . S
C1099 C1095 1.376 . S
C1099 C1098 1.392 . S
C1099 H1111 0.929 . S
C1100 C1096 1.531 . S
C1100 H1112 0.960 . S
C1100 H1113 0.962 . S
C1100 H1114 0.960 . S
C1101 C1098 1.511 . S
C1101 H1115 0.961 . S
C1101 H1116 0.961 . S
C1101 H1117 0.961 . S
C1102 C1103 1.370 . S
C1102 C1104 1.363 . S
C1102 H1118 0.931 . S
C1103 C1102 1.370 . S
C1103 C1107 1.408 . S
C1104 C1102 1.363 . S
C1104 C1105 1.370 . S
C1104 C1108 1.524 . S
C1105 C1097 1.503 . S
C1105 C1104 1.370 . S
C1105 C1106 1.403 . S
C1106 C1105 1.403 . S
C1106 C1107 1.404 . S
C1106 C1109 1.539 . S
C1107 C1103 1.408 . S
C1107 C1106 1.404 . S
C1107 H1119 0.930 . S
C1108 C1104 1.524 . S
C1108 H1120 0.956 . S
C1108 H1121 0.961 . S
C1108 H1122 0.961 . S
C1109 C1106 1.539 . S
C1109 H1123 0.958 . S
C1109 H1124 0.961 . S
C1109 H1125 0.960 . S
H1110 C1094 0.931 . S
H1111 C1099 0.929 . S
H1112 C1100 0.960 . S
H1113 C1100 0.962 . S
H1114 C1100 0.960 . S
H1115 C1101 0.961 . S
H1116 C1101 0.961 . S
H1117 C1101 0.961 . S
H1118 C1102 0.931 . S
H1119 C1107 0.930 . S
H1120 C1108 0.956 . S
H1121 C1108 0.961 . S
H1122 C1108 0.961 . S
H1123 C1109 0.958 . S
H1124 C1109 0.961 . S
H1125 C1109 0.960 . S
C1126 C1127 1.391 . S
C1126 C1128 1.394 . S
C1126 H1142 0.931 . S
C1127 C1126 1.391 . S
C1127 C1131 1.376 . S
C1128 C1126 1.394 . S
C1128 C1129 1.369 . S
C1128 C1132 1.531 . S
C1129 C1128 1.369 . S
C1129 C1130 1.410 . S
C1129 C1137 1.503 . S
C1130 C1129 1.410 . S
C1130 C1131 1.392 . S
C1130 C1133 1.511 . S
C1131 C1127 1.376 . S
C1131 C1130 1.392 . S
C1131 H1143 0.929 . S
C1132 C1128 1.531 . S
C1132 H1144 0.960 . S
C1132 H1145 0.962 . S
C1132 H1146 0.960 . S
C1133 C1130 1.511 . S
C1133 H1147 0.961 . S
C1133 H1148 0.961 . S
C1133 H1149 0.961 . S
C1134 C1135 1.370 . S
C1134 C1136 1.363 . S
C1134 H1150 0.931 . S
C1135 C1134 1.370 . S
C1135 C1139 1.408 . S
C1136 C1134 1.363 . S
C1136 C1137 1.370 . S
C1136 C1140 1.524 . S
C1137 C1129 1.503 . S
C1137 C1136 1.370 . S
C1137 C1138 1.403 . S
C1138 C1137 1.403 . S
C1138 C1139 1.404 . S
C1138 C1141 1.539 . S
C1139 C1135 1.408 . S
C1139 C1138 1.404 . S
C1139 H1151 0.930 . S
C1140 C1136 1.524 . S
C1140 H1152 0.956 . S
C1140 H1153 0.961 . S
C1140 H1154 0.961 . S
C1141 C1138 1.539 . S
C1141 H1155 0.958 . S
C1141 H1156 0.961 . S
C1141 H1157 0.960 . S
H1142 C1126 0.931 . S
H1143 C1131 0.929 . S
H1144 C1132 0.960 . S
H1145 C1132 0.962 . S
H1146 C1132 0.960 . S
H1147 C1133 0.961 . S
H1148 C1133 0.961 . S
H1149 C1133 0.961 . S
H1150 C1134 0.931 . S
H1151 C1139 0.930 . S
H1152 C1140 0.956 . S
H1153 C1140 0.961 . S
H1154 C1140 0.961 . S
H1155 C1141 0.958 . S
H1156 C1141 0.961 . S
H1157 C1141 0.960 . S
C1158 C1159 1.391 . S
C1158 C1160 1.394 . S
C1158 H1174 0.931 . S
C1159 C1158 1.391 . S
C1159 C1163 1.376 . S
C1160 C1158 1.394 . S
C1160 C1161 1.369 . S
C1160 C1164 1.531 . S
C1161 C1160 1.369 . S
C1161 C1162 1.410 . S
C1161 C1169 1.503 . S
C1162 C1161 1.410 . S
C1162 C1163 1.392 . S
C1162 C1165 1.511 . S
C1163 C1159 1.376 . S
C1163 C1162 1.392 . S
C1163 H1175 0.929 . S
C1164 C1160 1.531 . S
C1164 H1176 0.960 . S
C1164 H1177 0.962 . S
C1164 H1178 0.960 . S
C1165 C1162 1.511 . S
C1165 H1179 0.961 . S
C1165 H1180 0.961 . S
C1165 H1181 0.961 . S
C1166 C1167 1.370 . S
C1166 C1168 1.363 . S
C1166 H1182 0.931 . S
C1167 C1166 1.370 . S
C1167 C1171 1.408 . S
C1168 C1166 1.363 . S
C1168 C1169 1.370 . S
C1168 C1172 1.524 . S
C1169 C1161 1.503 . S
C1169 C1168 1.370 . S
C1169 C1170 1.403 . S
C1170 C1169 1.403 . S
C1170 C1171 1.404 . S
C1170 C1173 1.539 . S
C1171 C1167 1.408 . S
C1171 C1170 1.404 . S
C1171 H1183 0.930 . S
C1172 C1168 1.524 . S
C1172 H1184 0.956 . S
C1172 H1185 0.961 . S
C1172 H1186 0.961 . S
C1173 C1170 1.539 . S
C1173 H1187 0.958 . S
C1173 H1188 0.961 . S
C1173 H1189 0.960 . S
H1174 C1158 0.931 . S
H1175 C1163 0.929 . S
H1176 C1164 0.960 . S
H1177 C1164 0.962 . S
H1178 C1164 0.960 . S
H1179 C1165 0.961 . S
H1180 C1165 0.961 . S
H1181 C1165 0.961 . S
H1182 C1166 0.931 . S
H1183 C1171 0.930 . S
H1184 C1172 0.956 . S
H1185 C1172 0.961 . S
H1186 C1172 0.961 . S
H1187 C1173 0.958 . S
H1188 C1173 0.961 . S
H1189 C1173 0.960 . S
C431 C126 1.841 . S
C423 C8 1.871 . S
C463 C195 1.706 . S
C455 C22 1.711 . S
C495 C133 1.726 . S
C487 C30 1.770 . S
C527 C196 1.347 . S
C519 C47 1.365 . S
C559 C249 1.807 . S
C551 C9 1.845 . S
C591 C285 1.742 . S
C583 C17 1.727 . S
C615 C34 1.599 . S
C623 C345 1.596 . S
C655 C408 1.500 . S
C647 C48 1.473 . S
C687 C248 1.875 . S
C679 C21 1.927 . S
C711 C35 1.813 . S
C719 C292 1.846 . S
C751 C338 1.327 . S
C743 C43 1.230 . S
C783 C407 1.572 . S
C775 C4 1.489 . S
C807 C56 1.487 . S
C815 C186 1.527 . S
C847 C143 1.738 . S
C839 C73 1.773 . S
C871 C87 1.722 . S
C879 C179 1.731 . S
C903 C100 1.992 . S
C911 C142 1.953 . S
C943 C354 1.649 . S
C935 C60 1.653 . S
C975 C398 1.404 . S
C967 C69 1.332 . S
C1007 C232 1.902 . S
C999 C86 1.918 . S
C1031 C95 1.486 . S
C1039 C301 1.554 . S
C1071 C355 1.638 . S
C1063 C74 1.634 . S
C1103 C391 1.400 . S
C1095 C82 1.377 . S
C1135 C239 1.979 . S
C1127 C99 2.020 . S
C1159 C61 1.654 . S
C1167 C302 1.689 . S
