# Generated by pormake.
# Topology apo, (3,6)-cn, num edge types: 1
# Building blocks:
#     Node 0, Type 0, BuildingBlock: KAKCAD_clean_linker_0, # of connection points: 3
#     Node 1, Type 0, BuildingBlock: KAKCAD_clean_linker_0, # of connection points: 3
#     Node 2, Type 0, BuildingBlock: KAKCAD_clean_linker_0, # of connection points: 3
#     Node 3, Type 0, BuildingBlock: KAKCAD_clean_linker_0, # of connection points: 3
#     Node 4, Type 0, BuildingBlock: KAKCAD_clean_linker_0, # of connection points: 3
#     Node 5, Type 0, BuildingBlock: KAKCAD_clean_linker_0, # of connection points: 3
#     Node 6, Type 0, BuildingBlock: KAKCAD_clean_linker_0, # of connection points: 3
#     Node 7, Type 0, BuildingBlock: KAKCAD_clean_linker_0, # of connection points: 3
#     Node 8, Type 1, BuildingBlock: KUMJIN_clean_sbu_1, # of connection points: 6
#     Node 9, Type 1, BuildingBlock: KUMJIN_clean_sbu_1, # of connection points: 6
#     Node 10, Type 1, BuildingBlock: KUMJIN_clean_sbu_1, # of connection points: 6
#     Node 11, Type 1, BuildingBlock: KUMJIN_clean_sbu_1, # of connection points: 6
#     Edge 12, Type (0, 1), BuildingBlock: OJICUG_clean_linker_0, # of connection points: 2
#     Edge 13, Type (0, 1), BuildingBlock: OJICUG_clean_linker_0, # of connection points: 2
#     Edge 14, Type (0, 1), BuildingBlock: OJICUG_clean_linker_0, # of connection points: 2
#     Edge 15, Type (0, 1), BuildingBlock: OJICUG_clean_linker_0, # of connection points: 2
#     Edge 16, Type (0, 1), BuildingBlock: OJICUG_clean_linker_0, # of connection points: 2
#     Edge 17, Type (0, 1), BuildingBlock: OJICUG_clean_linker_0, # of connection points: 2
#     Edge 18, Type (0, 1), BuildingBlock: OJICUG_clean_linker_0, # of connection points: 2
#     Edge 19, Type (0, 1), BuildingBlock: OJICUG_clean_linker_0, # of connection points: 2
#     Edge 20, Type (0, 1), BuildingBlock: OJICUG_clean_linker_0, # of connection points: 2
#     Edge 21, Type (0, 1), BuildingBlock: OJICUG_clean_linker_0, # of connection points: 2
#     Edge 22, Type (0, 1), BuildingBlock: OJICUG_clean_linker_0, # of connection points: 2
#     Edge 23, Type (0, 1), BuildingBlock: OJICUG_clean_linker_0, # of connection points: 2
#     Edge 24, Type (0, 1), BuildingBlock: OJICUG_clean_linker_0, # of connection points: 2
#     Edge 25, Type (0, 1), BuildingBlock: OJICUG_clean_linker_0, # of connection points: 2
#     Edge 26, Type (0, 1), BuildingBlock: OJICUG_clean_linker_0, # of connection points: 2
#     Edge 27, Type (0, 1), BuildingBlock: OJICUG_clean_linker_0, # of connection points: 2
#     Edge 28, Type (0, 1), BuildingBlock: OJICUG_clean_linker_0, # of connection points: 2
#     Edge 29, Type (0, 1), BuildingBlock: OJICUG_clean_linker_0, # of connection points: 2
#     Edge 30, Type (0, 1), BuildingBlock: OJICUG_clean_linker_0, # of connection points: 2
#     Edge 31, Type (0, 1), BuildingBlock: OJICUG_clean_linker_0, # of connection points: 2
#     Edge 32, Type (0, 1), BuildingBlock: OJICUG_clean_linker_0, # of connection points: 2
#     Edge 33, Type (0, 1), BuildingBlock: OJICUG_clean_linker_0, # of connection points: 2
#     Edge 34, Type (0, 1), BuildingBlock: OJICUG_clean_linker_0, # of connection points: 2
#     Edge 35, Type (0, 1), BuildingBlock: OJICUG_clean_linker_0, # of connection points: 2
# Relax obj value: 0.008
# Max RMSD: 0.113
# Mean RMSD: 0.086
data_MOF--net-apo--node1-KUMJIN_clean_sbu_1--node2-KAKCAD_clean_linker_0--edge1-OJICUG_clean_linker_0
_symmetry_space_group_name_H-M    P1
_symmetry_Int_Tables_number       1
_symmetry_cell_setting            triclinic
loop_
_symmetry_equiv_pos_as_xyz
'x, y, z'
_cell_length_a     23.065777
_cell_length_b     40.767023
_cell_length_c     51.492868
_cell_angle_alpha  89.861607
_cell_angle_beta   89.903116
_cell_angle_gamma 90.712488
loop_
_atom_site_label
_atom_site_type_symbol
_atom_site_fract_x
_atom_site_fract_y
_atom_site_fract_z
_atom_type_partial_charge
C0 C 0.30553 0.47993 0.34949 0.0
C1 C 0.36144 0.4922 0.35484 0.0
C2 C 0.28207 0.45396 0.36401 0.0
C3 C 0.31381 0.4397 0.38433 0.0
C4 C 0.36916 0.45246 0.39013 0.0
C5 C 0.39281 0.47834 0.37547 0.0
C6 C 0.28973 0.41091 0.39876 0.0
C7 C 0.26246 0.38529 0.3851 0.0
C8 C 0.23772 0.3582 0.39813 0.0
C9 C 0.24108 0.35685 0.42543 0.0
C10 C 0.26896 0.3821 0.43953 0.0
C11 C 0.2934 0.40895 0.42596 0.0
C12 C 0.27143 0.38098 0.46845 0.0
C13 C 0.2218 0.37292 0.4831 0.0
C14 C 0.32311 0.38875 0.48163 0.0
C15 C 0.32506 0.38859 0.50882 0.0
C16 C 0.27519 0.381 0.5236 0.0
C17 C 0.20856 0.33161 0.38291 0.0
C18 C 0.17476 0.33942 0.36108 0.0
C19 C 0.21581 0.29836 0.38934 0.0
C20 C 0.19073 0.27359 0.37404 0.0
C21 C 0.15778 0.28147 0.35193 0.0
C22 C 0.15002 0.31475 0.34576 0.0
C23 C 0.22355 0.37309 0.51029 0.0
H24 H 0.28039 0.48987 0.33362 0.0
H25 H 0.23903 0.44492 0.35926 0.0
H26 H 0.39477 0.44191 0.40558 0.0
H27 H 0.43576 0.48747 0.38025 0.0
H28 H 0.26158 0.3862 0.36407 0.0
H29 H 0.31363 0.42888 0.43665 0.0
H30 H 0.22187 0.33621 0.43575 0.0
H31 H 0.18111 0.36726 0.47354 0.0
H32 H 0.36229 0.39469 0.47089 0.0
H33 H 0.36595 0.39416 0.51822 0.0
H34 H 0.16745 0.36474 0.35572 0.0
H35 H 0.24189 0.29141 0.40588 0.0
H36 H 0.18392 0.3677 0.52084 0.0
H37 H 0.12558 0.32187 0.32877 0.0
H38 H 0.19701 0.24825 0.37961 0.0
C39 C 0.17255 0.00569 0.87179 0.0
C40 C 0.14093 0.01194 0.84902 0.0
C41 C 0.19297 0.03166 0.88718 0.0
C42 C 0.18275 0.06434 0.87988 0.0
C43 C 0.15136 0.0705 0.85706 0.0
C44 C 0.13058 0.04462 0.84186 0.0
C45 C 0.20605 0.09213 0.89546 0.0
C46 C 0.23511 0.11809 0.88299 0.0
C47 C 0.2578 0.14476 0.89706 0.0
C48 C 0.24939 0.14572 0.92418 0.0
C49 C 0.2198 0.1199 0.93715 0.0
C50 C 0.1991 0.093 0.92252 0.0
C51 C 0.21075 0.12042 0.96592 0.0
C52 C 0.25466 0.13156 0.98283 0.0
C53 C 0.15872 0.10821 0.97679 0.0
C54 C 0.1519 0.10562 1.00371 0.0
C55 C 0.19663 0.11549 0.02056 0.0
C56 C 0.29017 0.17117 0.88288 0.0
C57 C 0.32827 0.16292 0.86263 0.0
C58 C 0.28097 0.20453 0.88817 0.0
C59 C 0.30791 0.22898 0.873 0.0
C60 C 0.34464 0.2206 0.8522 0.0
C61 C 0.35472 0.18721 0.84742 0.0
C62 C 0.24759 0.12922 1.00985 0.0
H63 H 0.18075 0.98073 0.8779 0.0
H64 H 0.21746 0.02622 0.90456 0.0
H65 H 0.14252 0.09541 0.85103 0.0
H66 H 0.10671 0.05022 0.82433 0.0
H67 H 0.24027 0.1174 0.86207 0.0
H68 H 0.1772 0.07267 0.93214 0.0
H69 H 0.26603 0.16642 0.93514 0.0
H70 H 0.29545 0.14089 0.97522 0.0
H71 H 0.1233 0.1002 0.96447 0.0
H72 H 0.11174 0.09545 0.01136 0.0
H73 H 0.33716 0.1375 0.85825 0.0
H74 H 0.25171 0.21173 0.90355 0.0
H75 H 0.28304 0.13681 0.02231 0.0
H76 H 0.38204 0.17963 0.83147 0.0
H77 H 0.29982 0.25443 0.87754 0.0
C78 C 0.81583 0.02486 0.67049 0.0
C79 C 0.87299 0.01388 0.66771 0.0
C80 C 0.79648 0.05176 0.65629 0.0
C81 C 0.83373 0.06831 0.63891 0.0
C82 C 0.89034 0.05677 0.63544 0.0
C83 C 0.90984 0.02985 0.64975 0.0
C84 C 0.81366 0.09824 0.62534 0.0
C85 C 0.78338 0.12208 0.63929 0.0
C86 C 0.76032 0.14982 0.62693 0.0
C87 C 0.76991 0.15372 0.60003 0.0
C88 C 0.80299 0.13101 0.58598 0.0
C89 C 0.82428 0.10315 0.59877 0.0
C90 C 0.81673 0.13696 0.55813 0.0
C91 C 0.77396 0.14799 0.54088 0.0
C92 C 0.87348 0.13275 0.54883 0.0
C93 C 0.88742 0.14 0.523 0.0
C94 C 0.84485 0.15144 0.50582 0.0
C95 C 0.72766 0.17475 0.64234 0.0
C96 C 0.69818 0.16571 0.6653 0.0
C97 C 0.72669 0.20793 0.63476 0.0
C98 C 0.69741 0.23117 0.64961 0.0
C99 C 0.67014 0.22237 0.6732 0.0
C100 C 0.67128 0.18916 0.68075 0.0
C101 C 0.78783 0.15505 0.51499 0.0
H102 H 0.78593 0.01269 0.6837 0.0
H103 H 0.75224 0.05972 0.659 0.0
H104 H 0.9201 0.06919 0.6223 0.0
H105 H 0.95429 0.02217 0.64731 0.0
H106 H 0.77916 0.11904 0.66009 0.0
H107 H 0.84809 0.08495 0.58792 0.0
H108 H 0.75249 0.17467 0.58991 0.0
H109 H 0.72974 0.15121 0.54741 0.0
H110 H 0.9075 0.12455 0.56169 0.0
H111 H 0.93159 0.1366 0.51646 0.0
H112 H 0.69574 0.14043 0.67167 0.0
H113 H 0.74922 0.21642 0.61754 0.0
H114 H 0.75413 0.16401 0.50228 0.0
H115 H 0.65217 0.18086 0.69882 0.0
H116 H 0.69653 0.25604 0.64232 0.0
C117 C 0.69916 0.47656 0.16987 0.0
C118 C 0.64261 0.48823 0.16653 0.0
C119 C 0.71814 0.44934 0.15598 0.0
C120 C 0.68092 0.43305 0.13852 0.0
C121 C 0.62491 0.44534 0.1346 0.0
C122 C 0.60598 0.47267 0.14844 0.0
C123 C 0.69968 0.40252 0.12541 0.0
C124 C 0.73078 0.37887 0.13933 0.0
C125 C 0.74803 0.34956 0.12752 0.0
C126 C 0.73386 0.34401 0.10138 0.0
C127 C 0.70246 0.36724 0.08713 0.0
C128 C 0.68551 0.39644 0.0993 0.0
C129 C 0.68681 0.36072 0.05966 0.0
C130 C 0.7279 0.34797 0.04235 0.0
C131 C 0.63034 0.36656 0.05069 0.0
C132 C 0.6151 0.35938 0.02503 0.0
C133 C 0.65613 0.34647 1.00776 0.0
C134 C 0.77964 0.32453 0.14278 0.0
C135 C 0.82403 0.33396 0.16 0.0
C136 C 0.76489 0.29109 0.14064 0.0
C137 C 0.79366 0.26764 0.15548 0.0
C138 C 0.83783 0.2771 0.1728 0.0
C139 C 0.85278 0.31052 0.17485 0.0
C140 C 0.71279 0.34102 0.01666 0.0
H141 H 0.72869 0.48839 0.18335 0.0
H142 H 0.76194 0.4409 0.15907 0.0
H143 H 0.59495 0.43316 0.12151 0.0
H144 H 0.56196 0.48091 0.14564 0.0
H145 H 0.73995 0.38279 0.15973 0.0
H146 H 0.66221 0.41471 0.08827 0.0
H147 H 0.74689 0.3214 0.09213 0.0
H148 H 0.77188 0.34347 0.04865 0.0
H149 H 0.59763 0.37614 0.06364 0.0
H150 H 0.57126 0.36413 0.01867 0.0
H151 H 0.83694 0.35949 0.16182 0.0
H152 H 0.73026 0.28308 0.12787 0.0
H153 H 0.74524 0.33086 1.00386 0.0
H154 H 0.88725 0.31853 0.1877 0.0
H155 H 0.78057 0.24214 0.15372 0.0
C156 C 0.61327 0.55045 0.67822 0.0
C157 C 0.62713 0.51794 0.67176 0.0
C158 C 0.63349 0.57667 0.66303 0.0
C159 C 0.66763 0.571 0.64091 0.0
C160 C 0.6812 0.53856 0.63432 0.0
C161 C 0.66139 0.51236 0.64961 0.0
C162 C 0.68995 0.59881 0.62497 0.0
C163 C 0.71524 0.62635 0.63692 0.0
C164 C 0.73899 0.6521 0.622 0.0
C165 C 0.73625 0.65047 0.59474 0.0
C166 C 0.7104 0.62319 0.58246 0.0
C167 C 0.6876 0.59748 0.59776 0.0
C168 C 0.70781 0.62086 0.5537 0.0
C169 C 0.68801 0.64712 0.5385 0.0
C170 C 0.72333 0.5916 0.54134 0.0
C171 C 0.71812 0.58834 0.51448 0.0
C172 C 0.69663 0.61415 0.49921 0.0
C173 C 0.76885 0.67979 0.63522 0.0
C174 C 0.74204 0.69575 0.65611 0.0
C175 C 0.82579 0.68887 0.6283 0.0
C176 C 0.85598 0.71276 0.64254 0.0
C177 C 0.82939 0.72837 0.66367 0.0
C178 C 0.77185 0.71996 0.67008 0.0
C179 C 0.68227 0.64377 0.51152 0.0
H180 H 0.58618 0.55567 0.69486 0.0
H181 H 0.62185 0.6014 0.66842 0.0
H182 H 0.70817 0.53347 0.6176 0.0
H183 H 0.67383 0.48775 0.64428 0.0
H184 H 0.71857 0.62716 0.65791 0.0
H185 H 0.66714 0.57652 0.58845 0.0
H186 H 0.75478 0.67019 0.58312 0.0
H187 H 0.67541 0.66991 0.54757 0.0
H188 H 0.73972 0.57115 0.55249 0.0
H189 H 0.73134 0.56552 0.50569 0.0
H190 H 0.69816 0.68921 0.66182 0.0
H191 H 0.84759 0.67672 0.61242 0.0
H192 H 0.66536 0.66411 0.50043 0.0
H193 H 0.75047 0.73146 0.68638 0.0
H194 H 0.90018 0.71895 0.63712 0.0
C195 C 0.77304 0.86444 0.01106 0.0
C196 C 0.82261 0.87908 0.99987 0.0
C197 C 0.76701 0.86255 0.03809 0.0
C198 C 0.81072 0.87499 0.05452 0.0
C199 C 0.86136 0.88837 0.04318 0.0
C200 C 0.86703 0.8906 0.01621 0.0
C201 C 0.80302 0.87509 0.08331 0.0
C202 C 0.77502 0.8488 0.09619 0.0
C203 C 0.76872 0.84891 0.12333 0.0
C204 C 0.79075 0.87548 0.13768 0.0
C205 C 0.81753 0.9024 0.12523 0.0
C206 C 0.82324 0.90196 0.09804 0.0
C207 C 0.8389 0.93105 0.14061 0.0
C208 C 0.80794 0.94193 0.16248 0.0
C209 C 0.89048 0.94772 0.13365 0.0
C210 C 0.91059 0.97444 0.14821 0.0
C211 C 0.88001 0.98484 0.17024 0.0
C212 C 0.73828 0.8216 0.13693 0.0
C213 C 0.68216 0.81185 0.12938 0.0
C214 C 0.764 0.80631 0.15843 0.0
C215 C 0.73403 0.78189 0.17224 0.0
C216 C 0.67738 0.77266 0.1651 0.0
C217 C 0.65175 0.78779 0.1435 0.0
C218 C 0.82848 0.96835 0.17721 0.0
H219 H 0.73781 0.8557 0.99893 0.0
H220 H 0.72717 0.85239 0.04604 0.0
H221 H 0.89659 0.89744 0.05516 0.0
H222 H 0.90602 0.90165 1.0081 0.0
H223 H 0.75924 0.82786 0.08525 0.0
H224 H 0.84211 0.92305 0.08821 0.0
H225 H 0.78644 0.87522 0.15864 0.0
H226 H 0.76742 0.93026 0.16814 0.0
H227 H 0.916 0.93979 0.1172 0.0
H228 H 0.95078 0.98653 0.14257 0.0
H229 H 0.66127 0.82346 0.113 0.0
H230 H 0.80726 0.81337 0.16459 0.0
H231 H 0.80367 0.97615 0.19393 0.0
H232 H 0.60824 0.78096 0.13753 0.0
H233 H 0.75464 0.77073 0.18891 0.0
C234 C 0.13904 0.94837 0.33623 0.0
C235 C 0.1331 0.97965 0.34737 0.0
C236 C 0.15598 0.92159 0.35123 0.0
C237 C 0.16959 0.92532 0.37772 0.0
C238 C 0.16321 0.95649 0.38897 0.0
C239 C 0.14455 0.98313 0.37411 0.0
C240 C 0.19226 0.89707 0.39311 0.0
C241 C 0.22645 0.87328 0.38095 0.0
C242 C 0.24767 0.84625 0.39471 0.0
C243 C 0.23732 0.84401 0.42154 0.0
C244 C 0.20416 0.8678 0.43446 0.0
C245 C 0.18081 0.89382 0.41989 0.0
C246 C 0.19516 0.86587 0.46319 0.0
C247 C 0.18975 0.83533 0.4759 0.0
C248 C 0.19422 0.89459 0.47835 0.0
C249 C 0.18926 0.89279 0.5054 0.0
C250 C 0.18605 0.86225 0.51799 0.0
C251 C 0.28014 0.82042 0.38065 0.0
C252 C 0.26118 0.80996 0.35604 0.0
C253 C 0.3305 0.80655 0.39117 0.0
C254 C 0.36194 0.7834 0.37706 0.0
C255 C 0.34373 0.7738 0.35212 0.0
C256 C 0.29264 0.78705 0.34195 0.0
C257 C 0.18583 0.83356 0.50298 0.0
H258 H 0.13164 0.94441 0.31573 0.0
H259 H 0.15868 0.89794 0.34183 0.0
H260 H 0.17366 0.96064 0.40919 0.0
H261 H 0.13923 0.00645 0.38375 0.0
H262 H 0.2378 0.87599 0.36064 0.0
H263 H 0.15301 0.91131 0.42939 0.0
H264 H 0.25529 0.8237 0.43231 0.0
H265 H 0.18884 0.81268 0.46497 0.0
H266 H 0.19923 0.91855 0.46944 0.0
H267 H 0.19016 0.91529 0.51655 0.0
H268 H 0.22184 0.81954 0.34761 0.0
H269 H 0.34648 0.81423 0.40999 0.0
H270 H 0.18281 0.8097 0.51223 0.0
H271 H 0.27681 0.77961 0.32303 0.0
H272 H 0.40133 0.77369 0.38533 0.0
C273 C 0.26337 0.64291 1.0067 0.0
C274 C 0.31415 0.63242 0.01916 0.0
C275 C 0.2577 0.64088 0.97976 0.0
C276 C 0.30277 0.6285 0.96438 0.0
C277 C 0.35344 0.61764 0.97676 0.0
C278 C 0.35915 0.61968 1.00384 0.0
C279 C 0.29663 0.62746 0.93555 0.0
C280 C 0.27049 0.65368 0.9223 0.0
C281 C 0.26202 0.65264 0.8953 0.0
C282 C 0.28037 0.62498 0.8815 0.0
C283 C 0.30698 0.59862 0.89418 0.0
C284 C 0.31527 0.60012 0.92124 0.0
C285 C 0.32563 0.56963 0.87888 0.0
C286 C 0.29022 0.55692 0.85897 0.0
C287 C 0.37973 0.55524 0.88336 0.0
C288 C 0.39833 0.52909 0.86803 0.0
C289 C 0.36321 0.51666 0.8479 0.0
C290 C 0.23279 0.67992 0.88139 0.0
C291 C 0.18404 0.69526 0.89219 0.0
C292 C 0.2518 0.68973 0.85655 0.0
C293 C 0.22147 0.7132 0.84243 0.0
C294 C 0.17173 0.72771 0.85288 0.0
C295 C 0.15396 0.71902 0.87811 0.0
C296 C 0.30883 0.53082 0.84363 0.0
H297 H 0.22814 0.6534 0.0177 0.0
H298 H 0.21773 0.64903 0.97098 0.0
H299 H 0.38915 0.60815 0.96549 0.0
H300 H 0.39873 0.61121 0.01278 0.0
H301 H 0.25745 0.67523 0.933 0.0
H302 H 0.33441 0.57953 0.93126 0.0
H303 H 0.27366 0.62384 0.8607 0.0
H304 H 0.24784 0.56707 0.85528 0.0
H305 H 0.40835 0.56471 0.89829 0.0
H306 H 0.4408 0.51902 0.87164 0.0
H307 H 0.16785 0.6881 0.91115 0.0
H308 H 0.28995 0.67904 0.84787 0.0
H309 H 0.28029 0.52147 0.82862 0.0
H310 H 0.11555 0.72971 0.88657 0.0
H311 H 0.23676 0.71988 0.8232 0.0
Eu312 Eu 0.07708 0.1377 0.23431 0.0
C313 C 0.8219 0.1104 0.26123 0.0
N314 N 0.85223 0.1389 0.26455 0.0
C315 C 0.77562 0.16883 0.24422 0.0
C316 C 0.76821 0.10989 0.24814 0.0
C317 C 0.8281 0.16811 0.25775 0.0
C318 C 0.74606 0.13952 0.23893 0.0
C319 C 0.8101 0.05252 0.27146 0.0
C320 C 0.84245 0.08204 0.27267 0.0
C321 C 0.75812 0.05154 0.25732 0.0
C322 C 0.73729 0.08015 0.24562 0.0
Eu323 Eu 0.943 0.13445 0.28588 0.0
N324 N 0.89329 0.08361 0.28586 0.0
C325 C 0.83031 0.02516 0.28508 0.0
C326 C 0.91165 0.05768 0.30037 0.0
C327 C 0.88083 0.02792 0.29995 0.0
H328 H 0.84861 0.19102 0.2631 0.0
H329 H 0.89613 0.00713 0.31098 0.0
H330 H 0.18531 0.10762 0.26937 0.0
H331 H 0.06168 0.25679 0.18531 0.0
H332 H 0.95066 0.05998 0.31185 0.0
H333 H 0.80662 0.00205 0.2847 0.0
H334 H 0.03726 0.19868 0.19321 0.0
H335 H 0.75751 0.19204 0.23829 0.0
H336 H 0.73298 0.02899 0.25586 0.0
H337 H 0.69628 0.07923 0.2354 0.0
H338 H 0.27662 0.12719 0.28981 0.0
H339 H 0.705 0.14018 0.22876 0.0
H340 H 0.144 0.28282 0.2085 0.0
N341 N 0.16471 0.15437 0.25394 0.0
C342 C 0.18192 0.18598 0.25007 0.0
C343 C 0.2502 0.14401 0.27882 0.0
C344 C 0.23324 0.19828 0.26146 0.0
C345 C 0.19866 0.133 0.2673 0.0
C346 C 0.26726 0.17688 0.27613 0.0
N347 N 0.10022 0.19275 0.22294 0.0
C348 C 0.07111 0.21013 0.20453 0.0
C349 C 0.16512 0.23875 0.22986 0.0
C350 C 0.14809 0.2059 0.23452 0.0
C351 C 0.13238 0.2575 0.2126 0.0
C352 C 0.08577 0.24293 0.19954 0.0
H353 H 0.30705 0.18538 0.28518 0.0
H354 H 0.2881 0.24133 0.26648 0.0
H355 H 0.22853 0.27677 0.23877 0.0
O356 O 0.11758 0.13935 0.19546 0.0
O357 O 0.08768 0.15819 0.2754 0.0
O358 O 0.99892 0.18033 0.2834 0.0
O359 O 0.11995 0.09447 0.21876 0.0
O360 O 0.99064 0.15895 0.22167 0.0
O361 O 0.95037 0.17931 0.25937 0.0
O362 O 0.95585 0.13004 0.32775 0.0
O363 O 0.95787 0.09153 0.25842 0.0
O364 O 0.98926 0.11817 0.22199 0.0
O365 O 0.87803 0.15223 0.31324 0.0
O366 O 0.02802 0.11179 0.29843 0.0
O367 O 0.07304 0.09303 0.26093 0.0
C368 C 0.0554 0.18072 0.28623 0.0
C369 C 0.16653 0.09213 0.17633 0.0
C370 C 0.19274 0.08499 0.1306 0.0
C371 C 0.22349 0.0567 0.13739 0.0
C372 C 0.19767 0.06379 0.18252 0.0
C373 C 0.22622 0.04636 0.16318 0.0
C374 C 0.16493 0.10303 0.15028 0.0
C375 C 0.95747 0.17997 0.23396 0.0
C376 C 0.13387 0.10898 0.19703 0.0
C377 C 0.24912 0.23131 0.25766 0.0
C378 C 0.2151 0.25151 0.24194 0.0
C379 C 0.96408 0.09284 0.2331 0.0
C380 C 0.91305 0.17017 0.3539 0.0
C381 C 0.90459 0.18551 0.39953 0.0
C382 C 0.92595 0.21704 0.39326 0.0
C383 C 0.93373 0.20177 0.34795 0.0
C384 C 0.89838 0.16216 0.37961 0.0
C385 C 0.94027 0.22507 0.3676 0.0
C386 C 0.06085 0.09086 0.28592 0.0
C387 C 0.90817 0.14494 0.33373 0.0
H388 H 0.24557 0.04256 0.12267 0.0
H389 H 0.19978 0.05495 0.20235 0.0
H390 H 0.25008 0.02454 0.16816 0.0
H391 H 0.14043 0.12462 0.14519 0.0
H392 H 0.93086 0.23561 0.40813 0.0
H393 H 0.94479 0.20829 0.32817 0.0
H394 H 0.88309 0.13754 0.38413 0.0
H395 H 0.95643 0.24942 0.36293 0.0
Eu396 Eu 0.43585 0.3632 0.73304 0.0
C397 C 0.68942 0.38766 0.7643 0.0
N398 N 0.65773 0.35953 0.76731 0.0
C399 C 0.73515 0.32856 0.74863 0.0
C400 C 0.74426 0.38743 0.75212 0.0
C401 C 0.68147 0.32998 0.76121 0.0
C402 C 0.76615 0.35749 0.74355 0.0
C403 C 0.70287 0.44539 0.77452 0.0
C404 C 0.66914 0.41634 0.77531 0.0
C405 C 0.75599 0.44567 0.76116 0.0
C406 C 0.77658 0.41676 0.74993 0.0
Eu407 Eu 0.56546 0.36529 0.78726 0.0
N408 N 0.61731 0.41546 0.78784 0.0
C409 C 0.68296 0.47298 0.78786 0.0
C410 C 0.59924 0.44155 0.80219 0.0
C411 C 0.63141 0.47087 0.80214 0.0
H412 H 0.65955 0.30726 0.76619 0.0
H413 H 0.61636 0.49181 0.813 0.0
H414 H 0.32672 0.39567 0.76638 0.0
H415 H 0.44969 0.24302 0.68627 0.0
H416 H 0.55925 0.43979 0.81311 0.0
H417 H 0.70773 0.49574 0.78779 0.0
H418 H 0.47808 0.3004 0.69472 0.0
H419 H 0.75292 0.30511 0.74318 0.0
H420 H 0.78223 0.46785 0.76004 0.0
H421 H 0.81849 0.4171 0.74039 0.0
H422 H 0.23181 0.37842 0.78471 0.0
H423 H 0.80807 0.35627 0.73409 0.0
H424 H 0.36149 0.2195 0.70683 0.0
N425 N 0.34501 0.34863 0.75098 0.0
C426 C 0.32565 0.31751 0.74672 0.0
C427 C 0.25795 0.361 0.77421 0.0
C428 C 0.27201 0.30656 0.75686 0.0
C429 C 0.31167 0.37067 0.76393 0.0
C430 C 0.23822 0.32874 0.77085 0.0
N431 N 0.41074 0.30835 0.72221 0.0
C432 C 0.44131 0.29001 0.70492 0.0
C433 C 0.34089 0.26425 0.72726 0.0
C434 C 0.35996 0.29663 0.73226 0.0
C435 C 0.37463 0.2445 0.71116 0.0
C436 C 0.42453 0.25765 0.69959 0.0
H437 H 0.19668 0.32128 0.77893 0.0
H438 H 0.21287 0.26507 0.76042 0.0
H439 H 0.27305 0.22804 0.7344 0.0
O440 O 0.41252 0.36105 0.69211 0.0
O441 O 0.42038 0.34095 0.77334 0.0
O442 O 0.50886 0.31966 0.78392 0.0
O443 O 0.38889 0.40349 0.71443 0.0
O444 O 0.52359 0.34164 0.72254 0.0
O445 O 0.55956 0.32048 0.76088 0.0
O446 O 0.54848 0.37003 0.82882 0.0
O447 O 0.55378 0.4093 0.76044 0.0
O448 O 0.52567 0.38255 0.72397 0.0
O449 O 0.62712 0.34723 0.81596 0.0
O450 O 0.47833 0.38703 0.79743 0.0
O451 O 0.43671 0.40779 0.7599 0.0
C452 C 0.452 0.31908 0.78541 0.0
C453 C 0.32953 0.38842 0.67815 0.0
C454 C 0.27756 0.38507 0.63676 0.0
C455 C 0.225 0.38281 0.65058 0.0
C456 C 0.27661 0.38617 0.69151 0.0
C457 C 0.22465 0.38353 0.67774 0.0
C458 C 0.32973 0.3881 0.6508 0.0
C459 C 0.55416 0.31999 0.73543 0.0
C460 C 0.38537 0.38871 0.69203 0.0
C461 C 0.25378 0.27403 0.75263 0.0
C462 C 0.28815 0.25291 0.73788 0.0
C463 C 0.54771 0.40851 0.73517 0.0
C464 C 0.58794 0.32982 0.85606 0.0
C465 C 0.59395 0.31434 0.90175 0.0
C466 C 0.57134 0.28314 0.89549 0.0
C467 C 0.56633 0.29849 0.85008 0.0
C468 C 0.60186 0.33763 0.88181 0.0
C469 C 0.55778 0.2753 0.86977 0.0
C470 C 0.44766 0.40925 0.78512 0.0
C471 C 0.5952 0.35489 0.83581 0.0
H472 H 0.18409 0.38074 0.64038 0.0
H473 H 0.27543 0.38611 0.71251 0.0
H474 H 0.18392 0.38176 0.68815 0.0
H475 H 0.37073 0.38921 0.64048 0.0
H476 H 0.5651 0.26463 0.9104 0.0
H477 H 0.55628 0.29211 0.83023 0.0
H478 H 0.61819 0.36201 0.88634 0.0
H479 H 0.54087 0.25115 0.86507 0.0
Eu480 Eu 0.06966 0.85699 0.73705 0.0
C481 C 0.8192 0.81824 0.7642 0.0
N482 N 0.83875 0.84973 0.76208 0.0
C483 C 0.75597 0.86387 0.73654 0.0
C484 C 0.76749 0.80815 0.75184 0.0
C485 C 0.80785 0.87268 0.74885 0.0
C486 C 0.73586 0.83143 0.73791 0.0
C487 C 0.83178 0.76329 0.78122 0.0
C488 C 0.85157 0.79603 0.77848 0.0
C489 C 0.78119 0.75291 0.76832 0.0
C490 C 0.74914 0.77527 0.75367 0.0
Eu491 Eu 0.92675 0.86255 0.78312 0.0
N492 N 0.90058 0.80674 0.79073 0.0
C493 C 0.86225 0.74223 0.7976 0.0
C494 C 0.92635 0.78723 0.80885 0.0
C495 C 0.90892 0.75448 0.81194 0.0
H496 H 0.82373 0.8977 0.74762 0.0
H497 H 0.93066 0.73895 0.82583 0.0
H498 H 0.15333 0.79548 0.75708 0.0
H499 H 0.12051 0.98773 0.72643 0.0
H500 H 0.95913 0.79688 0.82168 0.0
H501 H 0.84841 0.71694 0.80025 0.0
H502 H 0.06058 0.93761 0.72257 0.0
H503 H 0.73174 0.88203 0.72588 0.0
H504 H 0.76578 0.72777 0.77001 0.0
H505 H 0.70984 0.76697 0.74409 0.0
H506 H 0.25058 0.7878 0.77618 0.0
H507 H 0.69591 0.82461 0.72816 0.0
H508 H 0.21918 0.98479 0.74497 0.0
N509 N 0.16242 0.84715 0.75428 0.0
C510 C 0.19807 0.87373 0.75689 0.0
C511 C 0.23621 0.81213 0.77102 0.0
C512 C 0.25436 0.8705 0.76714 0.0
C513 C 0.1809 0.81655 0.76062 0.0
C514 C 0.27302 0.83925 0.77443 0.0
N515 N 0.12341 0.90667 0.73967 0.0
C516 C 0.103 0.93599 0.73105 0.0
C517 C 0.21434 0.93232 0.75145 0.0
C518 C 0.17837 0.90429 0.74904 0.0
C519 C 0.19291 0.96267 0.74342 0.0
C520 C 0.13715 0.96445 0.73302 0.0
H521 H 0.31596 0.83574 0.7824 0.0
H522 H 0.33356 0.89641 0.77753 0.0
H523 H 0.29848 0.95051 0.76388 0.0
O524 O 0.07071 0.86556 0.695 0.0
O525 O 0.07974 0.88548 0.77504 0.0
O526 O 0.98884 0.90569 0.78373 0.0
O527 O 0.12289 0.82715 0.71154 0.0
O528 O 0.99528 0.88767 0.72173 0.0
O529 O 0.93962 0.90626 0.75639 0.0
O530 O 0.90939 0.86444 0.82544 0.0
O531 O 0.91808 0.84329 0.74184 0.0
O532 O 0.00289 0.81588 0.73755 0.0
O533 O 0.85915 0.89386 0.79838 0.0
O534 O 0.00983 0.84036 0.79933 0.0
O535 O 0.04676 0.81457 0.76347 0.0
C536 C 0.04525 0.9063 0.78671 0.0
C537 C 0.159 0.85338 0.67372 0.0
C538 C 0.19909 0.8606 0.63012 0.0
C539 C 0.25327 0.86838 0.64108 0.0
C540 C 0.21342 0.8615 0.68426 0.0
C541 C 0.26016 0.86906 0.66799 0.0
C542 C 0.15183 0.8534 0.64659 0.0
C543 C 0.95755 0.90794 0.73205 0.0
C544 C 0.11015 0.84359 0.69065 0.0
C545 C 0.29022 0.89841 0.76965 0.0
C546 C 0.27027 0.92922 0.76183 0.0
C547 C 0.94878 0.82027 0.73091 0.0
C548 C 0.83387 0.8998 0.84379 0.0
C549 C 0.81248 0.90615 0.88998 0.0
C550 C 0.77241 0.93062 0.88384 0.0
C551 C 0.79306 0.92416 0.83816 0.0
C552 C 0.84291 0.89051 0.86985 0.0
C553 C 0.76254 0.93935 0.85807 0.0
C554 C 0.04301 0.81792 0.78876 0.0
C555 C 0.8683 0.88571 0.82237 0.0
H556 H 0.29019 0.87416 0.62878 0.0
H557 H 0.22013 0.86156 0.70501 0.0
H558 H 0.30201 0.87517 0.67627 0.0
H559 H 0.11002 0.84697 0.63831 0.0
H560 H 0.74842 0.94284 0.89904 0.0
H561 H 0.78513 0.93184 0.81834 0.0
H562 H 0.87439 0.87189 0.87455 0.0
H563 H 0.73145 0.95818 0.85352 0.0
Eu564 Eu 0.43663 0.63957 0.23774 0.0
C565 C 0.69167 0.67611 0.26241 0.0
N566 N 0.66939 0.64518 0.26043 0.0
C567 C 0.74984 0.62904 0.23412 0.0
C568 C 0.74372 0.68489 0.24961 0.0
C569 C 0.69777 0.62154 0.24688 0.0
C570 C 0.77279 0.66088 0.23538 0.0
C571 C 0.68383 0.73144 0.27914 0.0
C572 C 0.66149 0.69918 0.2768 0.0
C573 C 0.73489 0.74048 0.26589 0.0
C574 C 0.76476 0.71727 0.25118 0.0
Eu575 Eu 0.58146 0.63455 0.28243 0.0
N576 N 0.61185 0.68981 0.28934 0.0
C577 C 0.65525 0.75341 0.29541 0.0
C578 C 0.58772 0.71019 0.30728 0.0
C579 C 0.60776 0.7425 0.30998 0.0
H580 H 0.67995 0.59696 0.24589 0.0
H581 H 0.58737 0.75873 0.32376 0.0
H582 H 0.34749 0.69088 0.26831 0.0
H583 H 0.40677 0.50913 0.21447 0.0
H584 H 0.55431 0.70156 0.32029 0.0
H585 H 0.67106 0.77837 0.29775 0.0
H586 H 0.45533 0.56284 0.21297 0.0
H587 H 0.7721 0.61031 0.22324 0.0
H588 H 0.75225 0.76523 0.26729 0.0
H589 H 0.80435 0.72456 0.24126 0.0
H590 H 0.25276 0.68905 0.29078 0.0
H591 H 0.8129 0.66668 0.22529 0.0
H592 H 0.31304 0.50257 0.23734 0.0
N593 N 0.34628 0.64022 0.25915 0.0
C594 C 0.31573 0.61147 0.25952 0.0
C595 C 0.27014 0.66701 0.28224 0.0
C596 C 0.26122 0.60933 0.27192 0.0
C597 C 0.32409 0.66792 0.26986 0.0
C598 C 0.23864 0.63756 0.28338 0.0
N599 N 0.39348 0.58641 0.23697 0.0
C600 C 0.41629 0.56032 0.22414 0.0
C601 C 0.30988 0.55349 0.24904 0.0
C602 C 0.34011 0.5838 0.2483 0.0
C603 C 0.3349 0.52625 0.2372 0.0
C604 C 0.38798 0.5298 0.22443 0.0
H605 H 0.1969 0.6369 0.29307 0.0
H606 H 0.18956 0.57699 0.2823 0.0
H607 H 0.23202 0.52818 0.26223 0.0
O608 O 0.42194 0.63572 0.19524 0.0
O609 O 0.42838 0.61489 0.27751 0.0
O610 O 0.51772 0.59197 0.28332 0.0
O611 O 0.37473 0.67117 0.21869 0.0
O612 O 0.51335 0.61194 0.22083 0.0
O613 O 0.56396 0.59121 0.25607 0.0
O614 O 0.59907 0.63236 0.3247 0.0
O615 O 0.58938 0.65531 0.24147 0.0
O616 O 0.50278 0.68115 0.23592 0.0
O617 O 0.6488 0.60294 0.29746 0.0
O618 O 0.50093 0.65876 0.29918 0.0
O619 O 0.4599 0.68281 0.26324 0.0
C620 C 0.46214 0.59314 0.28847 0.0
C621 C 0.35153 0.67111 0.17286 0.0
C622 C 0.32302 0.66772 0.1272 0.0
C623 C 0.2855 0.69415 0.13097 0.0
C624 C 0.31381 0.69769 0.17597 0.0
C625 C 0.28127 0.70912 0.15515 0.0
C626 C 0.35664 0.65636 0.14817 0.0
C627 C 0.55069 0.59136 0.23117 0.0
C628 C 0.38331 0.65881 0.1958 0.0
C629 C 0.23139 0.57912 0.27279 0.0
C630 C 0.25565 0.5513 0.26141 0.0
C631 C 0.55789 0.6779 0.23034 0.0
C632 C 0.67486 0.59688 0.34274 0.0
C633 C 0.69772 0.5905 0.38877 0.0
C634 C 0.73821 0.56638 0.38235 0.0
C635 C 0.71609 0.57285 0.33684 0.0
C636 C 0.66631 0.606 0.36887 0.0
C637 C 0.74754 0.55781 0.35654 0.0
C638 C 0.46739 0.68098 0.28849 0.0
C639 C 0.64019 0.61113 0.32147 0.0
H640 H 0.25954 0.70333 0.11507 0.0
H641 H 0.30904 0.70964 0.19461 0.0
H642 H 0.25232 0.72955 0.15781 0.0
H643 H 0.38531 0.6358 0.14541 0.0
H644 H 0.76291 0.55427 0.39739 0.0
H645 H 0.72375 0.56537 0.31697 0.0
H646 H 0.6346 0.62439 0.37378 0.0
H647 H 0.77897 0.53926 0.35178 0.0
C648 C 0.13454 0.04046 0.33734 0.0
C649 C 0.11558 0.00839 0.33113 0.0
H650 H 0.13133 0.09178 0.32793 0.0
C651 C 0.07986 0.00409 0.30913 0.0
H652 H 0.16314 0.045 0.3536 0.0
C653 C 0.06415 0.03087 0.2938 0.0
C654 C 0.08215 0.06262 0.30057 0.0
H655 H 0.06284 0.98016 0.30391 0.0
H656 H 0.0361 0.02693 0.2772 0.0
C657 C 0.11712 0.06732 0.32247 0.0
C658 C 0.37399 0.48851 0.80457 0.0
C659 C 0.38313 0.48884 0.83161 0.0
H660 H 0.38717 0.46322 0.76857 0.0
C661 C 0.41188 0.46238 0.8431 0.0
H662 H 0.35235 0.50867 0.79508 0.0
C663 C 0.43179 0.4365 0.82799 0.0
C664 C 0.42362 0.43631 0.8009 0.0
H665 H 0.41874 0.46153 0.8639 0.0
H666 H 0.45399 0.4167 0.83769 0.0
C667 C 0.39409 0.46252 0.78936 0.0
C668 C 0.58846 0.46025 0.67655 0.0
C669 C 0.60618 0.48998 0.68806 0.0
H670 H 0.5564 0.41131 0.68231 0.0
C671 C 0.60377 0.49272 0.71527 0.0
H672 H 0.58868 0.45741 0.65565 0.0
C673 C 0.58423 0.46642 0.73053 0.0
C674 C 0.56747 0.4366 0.71904 0.0
H675 H 0.61755 0.51509 0.72488 0.0
H676 H 0.58194 0.4696 0.75132 0.0
C677 C 0.56946 0.43387 0.69185 0.0
C678 C 0.92034 0.04206 0.17451 0.0
C679 C 0.90215 0.01249 0.1862 0.0
H680 H 0.9534 0.09085 0.18018 0.0
C681 C 0.90544 0.00936 0.21331 0.0
H682 H 0.91809 0.04513 0.15363 0.0
C683 C 0.92646 0.03527 0.22843 0.0
C684 C 0.94333 0.06515 0.2169 0.0
H685 H 0.89268 0.98665 0.2228 0.0
H686 H 0.93009 0.03168 0.24914 0.0
C687 C 0.94046 0.0682 0.18972 0.0
C688 C 0.87872 0.9843 0.71042 0.0
C689 C 0.8943 0.98646 0.68404 0.0
H690 H 0.88626 0.95805 0.7462 0.0
C691 C 0.93053 0.9624 0.67354 0.0
H692 H 0.85161 0.00271 0.71924 0.0
C693 C 0.95076 0.93682 0.68906 0.0
C694 C 0.93528 0.93473 0.71547 0.0
H695 H 0.94279 0.96313 0.65323 0.0
H696 H 0.97859 0.91871 0.6803 0.0
C697 C 0.89889 0.95874 0.72593 0.0
C698 C 0.63249 0.51614 0.20954 0.0
C699 C 0.62105 0.51554 0.18275 0.0
H700 H 0.61912 0.54024 0.2458 0.0
C701 C 0.58759 0.54061 0.17183 0.0
H702 H 0.65754 0.49694 0.21858 0.0
C703 C 0.56559 0.56557 0.18744 0.0
C704 C 0.57609 0.56581 0.21435 0.0
H705 H 0.57856 0.54096 0.1512 0.0
H706 H 0.5398 0.58447 0.17842 0.0
C707 C 0.61019 0.54092 0.22516 0.0
C708 C 0.35448 0.54567 0.33052 0.0
C709 C 0.38747 0.51864 0.33842 0.0
H710 H 0.35254 0.59084 0.30932 0.0
C711 C 0.44534 0.51664 0.33005 0.0
H712 H 0.30999 0.54817 0.33691 0.0
C713 C 0.46946 0.54086 0.31394 0.0
C714 C 0.43637 0.56777 0.30585 0.0
H715 H 0.47174 0.49596 0.33552 0.0
H716 H 0.51399 0.53826 0.30763 0.0
C717 C 0.3788 0.57007 0.31458 0.0
C718 C 0.15136 0.9575 0.8265 0.0
C719 C 0.11723 0.98462 0.83305 0.0
H720 H 0.15561 0.91142 0.80659 0.0
C721 C 0.0598 0.98573 0.82413 0.0
H722 H 0.19594 0.95612 0.83295 0.0
C723 C 0.03684 0.96034 0.80908 0.0
C724 C 0.07081 0.93321 0.80241 0.0
H725 H 0.03224 0.00612 0.82907 0.0
H726 H 0.99231 0.96209 0.80263 0.0
C727 C 0.12843 0.93207 0.81122 0.0
C728 C 0.20854 0.13286 0.0674 0.0
C729 C 0.1917 0.10911 0.049 0.0
H730 H 0.22079 0.14411 0.10787 0.0
C731 C 0.17199 0.07829 0.05788 0.0
H732 H 0.2236 0.15688 0.06115 0.0
C733 C 0.17086 0.071 0.0844 0.0
C734 C 0.18871 0.09443 0.10277 0.0
H735 H 0.15923 0.05935 0.04425 0.0
H736 H 0.15681 0.04674 0.09057 0.0
C737 C 0.20651 0.12568 0.09409 0.0
C738 C 0.3112 0.40492 0.56599 0.0
C739 C 0.27678 0.38165 0.55268 0.0
H740 H 0.33835 0.42429 0.60279 0.0
C741 C 0.24336 0.35924 0.56744 0.0
H742 H 0.33679 0.42298 0.55544 0.0
C743 C 0.24368 0.36038 0.59462 0.0
C744 C 0.27788 0.38371 0.60783 0.0
H745 H 0.21725 0.3405 0.55805 0.0
H746 H 0.21762 0.34266 0.60533 0.0
C747 C 0.31198 0.40581 0.5932 0.0
C748 C 0.67701 0.34698 0.95992 0.0
C749 C 0.63988 0.33847 0.98059 0.0
H750 H 0.69169 0.34593 0.91887 0.0
C751 C 0.58741 0.32198 0.97515 0.0
H752 H 0.71752 0.35992 0.96348 0.0
C753 C 0.57257 0.31401 0.94959 0.0
C754 C 0.60966 0.3226 0.92893 0.0
H755 H 0.55815 0.31484 0.9907 0.0
H756 H 0.53175 0.30142 0.94598 0.0
C757 C 0.66198 0.33923 0.93437 0.0
C758 C 0.82366 0.15077 0.45795 0.0
C759 C 0.86014 0.16007 0.47856 0.0
H760 H 0.80897 0.15158 0.41689 0.0
C761 C 0.91126 0.1779 0.47299 0.0
H762 H 0.78419 0.13682 0.46159 0.0
C763 C 0.92552 0.18629 0.44739 0.0
C764 C 0.88917 0.17686 0.42677 0.0
H765 H 0.93998 0.18573 0.48846 0.0
H766 H 0.9654 0.19984 0.44373 0.0
C767 C 0.83811 0.15896 0.43233 0.0
C768 C 0.8406 0.91596 0.96176 0.0
C769 C 0.82594 0.88466 0.9714 0.0
H770 H 0.84773 0.94716 0.92832 0.0
C771 C 0.81138 0.85962 0.95373 0.0
H772 H 0.85151 0.93581 0.9749 0.0
C773 C 0.81006 0.86605 0.92698 0.0
C774 C 0.8222 0.89776 0.91759 0.0
H775 H 0.80019 0.83523 0.96065 0.0
H776 H 0.79715 0.84668 0.91376 0.0
C777 C 0.8383 0.9225 0.93516 0.0
C778 C 0.67224 0.57914 0.46056 0.0
C779 C 0.68977 0.60977 0.4706 0.0
H780 H 0.66086 0.54927 0.42673 0.0
C781 C 0.70342 0.63531 0.45305 0.0
H782 H 0.65974 0.55917 0.47337 0.0
C783 C 0.70261 0.62973 0.42618 0.0
C784 C 0.6886 0.59849 0.41647 0.0
H785 H 0.71732 0.65916 0.46005 0.0
H786 H 0.71584 0.64927 0.41309 0.0
C787 C 0.6722 0.5735 0.43384 0.0
C788 C 0.27171 0.63096 0.06415 0.0
C789 C 0.32009 0.63608 0.04788 0.0
H790 H 0.23523 0.63676 0.10213 0.0
C791 C 0.37238 0.64731 0.0591 0.0
H792 H 0.2312 0.62157 0.05639 0.0
C793 C 0.37488 0.65535 0.08557 0.0
C794 C 0.32514 0.65242 0.10118 0.0
H795 H 0.41042 0.65169 0.04718 0.0
H796 H 0.41454 0.66577 0.09344 0.0
C797 C 0.2741 0.63929 0.09041 0.0
C798 C 0.22713 0.84067 0.55948 0.0
C799 C 0.18642 0.86036 0.54676 0.0
H800 H 0.26321 0.82561 0.59588 0.0
C801 C 0.14807 0.87914 0.5617 0.0
H802 H 0.25746 0.82616 0.54843 0.0
C803 C 0.1508 0.87842 0.58888 0.0
C804 C 0.19277 0.8595 0.6015 0.0
H805 H 0.11618 0.89443 0.55234 0.0
H806 H 0.12132 0.89339 0.60001 0.0
C807 C 0.23063 0.84049 0.58657 0.0
C808 C 0.16158 0.22614 0.33001 0.0
C809 C 0.13164 0.2553 0.33524 0.0
H810 H 0.16066 0.17952 0.31081 0.0
C811 C 0.07663 0.25953 0.32402 0.0
H812 H 0.20431 0.22213 0.338 0.0
C813 C 0.05249 0.2355 0.30789 0.0
C814 C 0.08225 0.20636 0.3028 0.0
H815 H 0.05178 0.28135 0.32786 0.0
H816 H 0.01037 0.23983 0.29936 0.0
C817 C 0.13701 0.2019 0.31407 0.0
C818 C 0.34181 0.27475 0.82824 0.0
C819 C 0.372 0.24626 0.83526 0.0
H820 H 0.34351 0.32024 0.80724 0.0
C821 C 0.42827 0.24196 0.82532 0.0
H822 H 0.29809 0.27872 0.83513 0.0
C823 C 0.45341 0.26525 0.80872 0.0
C824 C 0.42362 0.29386 0.80203 0.0
H825 H 0.45335 0.22065 0.83049 0.0
H826 H 0.49641 0.26079 0.80113 0.0
C827 C 0.36745 0.29834 0.81189 0.0
C828 C 0.65708 0.28105 0.68819 0.0
C829 C 0.64101 0.24756 0.68981 0.0
H830 H 0.64077 0.33022 0.70087 0.0
C831 C 0.59675 0.23851 0.70755 0.0
H832 H 0.69198 0.28943 0.67571 0.0
C833 C 0.57038 0.26195 0.72324 0.0
C834 C 0.58531 0.29512 0.72061 0.0
H835 H 0.58121 0.21348 0.70918 0.0
H836 H 0.53657 0.25432 0.73668 0.0
C837 C 0.62846 0.3046 0.70293 0.0
C838 C 0.88457 0.22217 0.17753 0.0
C839 C 0.8683 0.25216 0.18861 0.0
H840 H 0.92534 0.17585 0.18323 0.0
C841 C 0.88142 0.25815 0.21485 0.0
H842 H 0.8757 0.21696 0.15729 0.0
C843 C 0.91022 0.23466 0.22966 0.0
C844 C 0.92649 0.20476 0.21851 0.0
H845 H 0.86892 0.28087 0.22403 0.0
H846 H 0.92005 0.23999 0.24979 0.0
C847 C 0.91339 0.19874 0.19232 0.0
C848 C 0.83647 0.78275 0.68599 0.0
C849 C 0.86179 0.75272 0.67953 0.0
H850 H 0.84536 0.8282 0.70623 0.0
C851 C 0.91735 0.74567 0.68906 0.0
H852 H 0.79405 0.78902 0.67863 0.0
C853 C 0.94621 0.76781 0.70544 0.0
C854 C 0.9202 0.79753 0.71241 0.0
H855 H 0.93774 0.72261 0.68446 0.0
H856 H 0.98831 0.76133 0.71304 0.0
C857 C 0.86571 0.80507 0.70196 0.0
C858 C 0.67102 0.71774 0.18676 0.0
C859 C 0.64507 0.74768 0.1805 0.0
H860 H 0.66248 0.67161 0.20621 0.0
C861 C 0.58884 0.75392 0.18965 0.0
H862 H 0.71397 0.7121 0.17963 0.0
C863 C 0.55994 0.73107 0.20555 0.0
C864 C 0.58655 0.70143 0.21234 0.0
H865 H 0.56794 0.77689 0.18514 0.0
H866 H 0.5173 0.73694 0.21291 0.0
C867 C 0.64172 0.6947 0.20218 0.0
C868 C 0.38796 0.75696 0.30987 0.0
C869 C 0.37811 0.75058 0.33635 0.0
H870 H 0.42456 0.74031 0.27417 0.0
C871 C 0.40011 0.72169 0.34731 0.0
H872 H 0.37246 0.7793 0.30097 0.0
C873 C 0.42987 0.6992 0.33188 0.0
C874 C 0.43838 0.70528 0.30525 0.0
H875 H 0.39296 0.71607 0.36764 0.0
H876 H 0.44521 0.67677 0.34069 0.0
C877 C 0.41794 0.73466 0.29453 0.0
C878 C 0.11813 0.78064 0.84715 0.0
C879 C 0.13733 0.75072 0.83693 0.0
H880 H 0.0737 0.82565 0.83978 0.0
C881 C 0.12345 0.74268 0.81116 0.0
H882 H 0.12824 0.78743 0.86697 0.0
C883 C 0.09181 0.76423 0.79579 0.0
C884 C 0.07421 0.79462 0.80565 0.0
H885 H 0.13665 0.7195 0.80293 0.0
H886 H 0.08136 0.7571 0.77608 0.0
C887 C 0.08699 0.80246 0.83161 0.0
loop_
_geom_bond_atom_site_label_1
_geom_bond_atom_site_label_2
_geom_bond_distance
_geom_bond_site_symmetry_2
_ccdc_geom_bond_type
C0 C1 1.386 . S
C0 C2 1.397 . S
C0 H24 0.931 . S
C1 C0 1.386 . S
C1 C5 1.397 . S
C2 C0 1.397 . S
C2 C3 1.384 . S
C2 H25 0.930 . S
C3 C2 1.384 . S
C3 C4 1.377 . S
C3 C6 1.481 . S
C4 C3 1.377 . S
C4 C5 1.389 . S
C4 H26 0.929 . S
C5 C1 1.397 . S
C5 C4 1.389 . S
C5 H27 0.931 . S
C6 C3 1.481 . S
C6 C7 1.387 . S
C6 C11 1.390 . S
C7 C6 1.387 . S
C7 C8 1.401 . S
C7 H28 0.930 . S
C8 C7 1.401 . S
C8 C9 1.376 . S
C8 C17 1.511 . S
C9 C8 1.376 . S
C9 C10 1.392 . S
C9 H30 0.931 . S
C10 C9 1.392 . S
C10 C11 1.361 . S
C10 C12 1.500 . S
C11 C6 1.390 . S
C11 C10 1.361 . S
C11 H29 0.931 . S
C12 C10 1.500 . S
C12 C13 1.371 . S
C12 C14 1.365 . S
C13 C12 1.371 . S
C13 C23 1.386 . S
C13 H31 0.931 . S
C14 C12 1.365 . S
C14 C15 1.409 . S
C14 H32 0.929 . S
C15 C14 1.409 . S
C15 C16 1.380 . S
C15 H33 0.930 . S
C16 C15 1.380 . S
C16 C23 1.357 . S
C17 C8 1.511 . S
C17 C18 1.341 . S
C17 C19 1.371 . S
C18 C17 1.341 . S
C18 C22 1.394 . S
C18 H34 0.930 . S
C19 C17 1.371 . S
C19 C20 1.392 . S
C19 H35 0.931 . S
C20 C19 1.392 . S
C20 C21 1.331 . S
C20 H38 0.932 . S
C21 C20 1.331 . S
C21 C22 1.336 . S
C22 C18 1.394 . S
C22 C21 1.336 . S
C22 H37 0.929 . S
C23 C13 1.386 . S
C23 C16 1.357 . S
C23 H36 0.928 . S
H24 C0 0.931 . S
H25 C2 0.930 . S
H26 C4 0.929 . S
H27 C5 0.931 . S
H28 C7 0.930 . S
H29 C11 0.931 . S
H30 C9 0.931 . S
H31 C13 0.931 . S
H32 C14 0.929 . S
H33 C15 0.930 . S
H34 C18 0.930 . S
H35 C19 0.931 . S
H36 C23 0.928 . S
H37 C22 0.929 . S
H38 C20 0.932 . S
C39 C40 1.386 . S
C39 C41 1.397 . S
C39 H63 0.931 . S
C40 C39 1.386 . S
C40 C44 1.397 . S
C41 C39 1.397 . S
C41 C42 1.384 . S
C41 H64 0.930 . S
C42 C41 1.384 . S
C42 C43 1.377 . S
C42 C45 1.481 . S
C43 C42 1.377 . S
C43 C44 1.389 . S
C43 H65 0.929 . S
C44 C40 1.397 . S
C44 C43 1.389 . S
C44 H66 0.931 . S
C45 C42 1.481 . S
C45 C46 1.387 . S
C45 C50 1.390 . S
C46 C45 1.387 . S
C46 C47 1.401 . S
C46 H67 0.930 . S
C47 C46 1.401 . S
C47 C48 1.376 . S
C47 C56 1.511 . S
C48 C47 1.376 . S
C48 C49 1.392 . S
C48 H69 0.931 . S
C49 C48 1.392 . S
C49 C50 1.361 . S
C49 C51 1.500 . S
C50 C45 1.390 . S
C50 C49 1.361 . S
C50 H68 0.931 . S
C51 C49 1.500 . S
C51 C52 1.371 . S
C51 C53 1.365 . S
C52 C51 1.371 . S
C52 C62 1.386 . S
C52 H70 0.931 . S
C53 C51 1.365 . S
C53 C54 1.409 . S
C53 H71 0.929 . S
C54 C53 1.409 . S
C54 C55 1.380 1_556 S
C54 H72 0.930 . S
C55 C54 1.380 1_554 S
C55 C62 1.357 1_554 S
C56 C47 1.511 . S
C56 C57 1.341 . S
C56 C58 1.371 . S
C57 C56 1.341 . S
C57 C61 1.394 . S
C57 H73 0.930 . S
C58 C56 1.371 . S
C58 C59 1.392 . S
C58 H74 0.931 . S
C59 C58 1.392 . S
C59 C60 1.331 . S
C59 H77 0.932 . S
C60 C59 1.331 . S
C60 C61 1.336 . S
C61 C57 1.394 . S
C61 C60 1.336 . S
C61 H76 0.929 . S
C62 C52 1.386 . S
C62 C55 1.357 1_556 S
C62 H75 0.928 1_556 S
H63 C39 0.931 . S
H64 C41 0.930 . S
H65 C43 0.929 . S
H66 C44 0.931 . S
H67 C46 0.930 . S
H68 C50 0.931 . S
H69 C48 0.931 . S
H70 C52 0.931 . S
H71 C53 0.929 . S
H72 C54 0.930 . S
H73 C57 0.930 . S
H74 C58 0.931 . S
H75 C62 0.928 1_554 S
H76 C61 0.929 . S
H77 C59 0.932 . S
C78 C79 1.386 . S
C78 C80 1.397 . S
C78 H102 0.931 . S
C79 C78 1.386 . S
C79 C83 1.397 . S
C80 C78 1.397 . S
C80 C81 1.384 . S
C80 H103 0.930 . S
C81 C80 1.384 . S
C81 C82 1.377 . S
C81 C84 1.481 . S
C82 C81 1.377 . S
C82 C83 1.389 . S
C82 H104 0.929 . S
C83 C79 1.397 . S
C83 C82 1.389 . S
C83 H105 0.931 . S
C84 C81 1.481 . S
C84 C85 1.387 . S
C84 C89 1.390 . S
C85 C84 1.387 . S
C85 C86 1.401 . S
C85 H106 0.930 . S
C86 C85 1.401 . S
C86 C87 1.376 . S
C86 C95 1.511 . S
C87 C86 1.376 . S
C87 C88 1.392 . S
C87 H108 0.931 . S
C88 C87 1.392 . S
C88 C89 1.361 . S
C88 C90 1.500 . S
C89 C84 1.390 . S
C89 C88 1.361 . S
C89 H107 0.931 . S
C90 C88 1.500 . S
C90 C91 1.371 . S
C90 C92 1.365 . S
C91 C90 1.371 . S
C91 C101 1.386 . S
C91 H109 0.931 . S
C92 C90 1.365 . S
C92 C93 1.409 . S
C92 H110 0.929 . S
C93 C92 1.409 . S
C93 C94 1.380 . S
C93 H111 0.930 . S
C94 C93 1.380 . S
C94 C101 1.357 . S
C95 C86 1.511 . S
C95 C96 1.341 . S
C95 C97 1.371 . S
C96 C95 1.341 . S
C96 C100 1.394 . S
C96 H112 0.930 . S
C97 C95 1.371 . S
C97 C98 1.392 . S
C97 H113 0.931 . S
C98 C97 1.392 . S
C98 C99 1.331 . S
C98 H116 0.932 . S
C99 C98 1.331 . S
C99 C100 1.336 . S
C100 C96 1.394 . S
C100 C99 1.336 . S
C100 H115 0.929 . S
C101 C91 1.386 . S
C101 C94 1.357 . S
C101 H114 0.928 . S
H102 C78 0.931 . S
H103 C80 0.930 . S
H104 C82 0.929 . S
H105 C83 0.931 . S
H106 C85 0.930 . S
H107 C89 0.931 . S
H108 C87 0.931 . S
H109 C91 0.931 . S
H110 C92 0.929 . S
H111 C93 0.930 . S
H112 C96 0.930 . S
H113 C97 0.931 . S
H114 C101 0.928 . S
H115 C100 0.929 . S
H116 C98 0.932 . S
C117 C118 1.386 . S
C117 C119 1.397 . S
C117 H141 0.931 . S
C118 C117 1.386 . S
C118 C122 1.397 . S
C119 C117 1.397 . S
C119 C120 1.384 . S
C119 H142 0.930 . S
C120 C119 1.384 . S
C120 C121 1.377 . S
C120 C123 1.481 . S
C121 C120 1.377 . S
C121 C122 1.389 . S
C121 H143 0.929 . S
C122 C118 1.397 . S
C122 C121 1.389 . S
C122 H144 0.931 . S
C123 C120 1.481 . S
C123 C124 1.387 . S
C123 C128 1.390 . S
C124 C123 1.387 . S
C124 C125 1.401 . S
C124 H145 0.930 . S
C125 C124 1.401 . S
C125 C126 1.376 . S
C125 C134 1.511 . S
C126 C125 1.376 . S
C126 C127 1.392 . S
C126 H147 0.931 . S
C127 C126 1.392 . S
C127 C128 1.361 . S
C127 C129 1.500 . S
C128 C123 1.390 . S
C128 C127 1.361 . S
C128 H146 0.931 . S
C129 C127 1.500 . S
C129 C130 1.371 . S
C129 C131 1.365 . S
C130 C129 1.371 . S
C130 C140 1.386 . S
C130 H148 0.931 . S
C131 C129 1.365 . S
C131 C132 1.409 . S
C131 H149 0.929 . S
C132 C131 1.409 . S
C132 C133 1.380 1_554 S
C132 H150 0.930 . S
C133 C132 1.380 1_556 S
C133 C140 1.357 1_556 S
C134 C125 1.511 . S
C134 C135 1.341 . S
C134 C136 1.371 . S
C135 C134 1.341 . S
C135 C139 1.394 . S
C135 H151 0.930 . S
C136 C134 1.371 . S
C136 C137 1.392 . S
C136 H152 0.931 . S
C137 C136 1.392 . S
C137 C138 1.331 . S
C137 H155 0.932 . S
C138 C137 1.331 . S
C138 C139 1.336 . S
C139 C135 1.394 . S
C139 C138 1.336 . S
C139 H154 0.929 . S
C140 C130 1.386 . S
C140 C133 1.357 1_554 S
C140 H153 0.928 1_554 S
H141 C117 0.931 . S
H142 C119 0.930 . S
H143 C121 0.929 . S
H144 C122 0.931 . S
H145 C124 0.930 . S
H146 C128 0.931 . S
H147 C126 0.931 . S
H148 C130 0.931 . S
H149 C131 0.929 . S
H150 C132 0.930 . S
H151 C135 0.930 . S
H152 C136 0.931 . S
H153 C140 0.928 1_556 S
H154 C139 0.929 . S
H155 C137 0.932 . S
C156 C157 1.386 . S
C156 C158 1.397 . S
C156 H180 0.931 . S
C157 C156 1.386 . S
C157 C161 1.397 . S
C158 C156 1.397 . S
C158 C159 1.384 . S
C158 H181 0.930 . S
C159 C158 1.384 . S
C159 C160 1.377 . S
C159 C162 1.481 . S
C160 C159 1.377 . S
C160 C161 1.389 . S
C160 H182 0.929 . S
C161 C157 1.397 . S
C161 C160 1.389 . S
C161 H183 0.931 . S
C162 C159 1.481 . S
C162 C163 1.387 . S
C162 C167 1.390 . S
C163 C162 1.387 . S
C163 C164 1.401 . S
C163 H184 0.930 . S
C164 C163 1.401 . S
C164 C165 1.376 . S
C164 C173 1.511 . S
C165 C164 1.376 . S
C165 C166 1.392 . S
C165 H186 0.931 . S
C166 C165 1.392 . S
C166 C167 1.361 . S
C166 C168 1.500 . S
C167 C162 1.390 . S
C167 C166 1.361 . S
C167 H185 0.931 . S
C168 C166 1.500 . S
C168 C169 1.371 . S
C168 C170 1.365 . S
C169 C168 1.371 . S
C169 C179 1.386 . S
C169 H187 0.931 . S
C170 C168 1.365 . S
C170 C171 1.409 . S
C170 H188 0.929 . S
C171 C170 1.409 . S
C171 C172 1.380 . S
C171 H189 0.930 . S
C172 C171 1.380 . S
C172 C179 1.357 . S
C173 C164 1.511 . S
C173 C174 1.341 . S
C173 C175 1.371 . S
C174 C173 1.341 . S
C174 C178 1.394 . S
C174 H190 0.930 . S
C175 C173 1.371 . S
C175 C176 1.392 . S
C175 H191 0.931 . S
C176 C175 1.392 . S
C176 C177 1.331 . S
C176 H194 0.932 . S
C177 C176 1.331 . S
C177 C178 1.336 . S
C178 C174 1.394 . S
C178 C177 1.336 . S
C178 H193 0.929 . S
C179 C169 1.386 . S
C179 C172 1.357 . S
C179 H192 0.928 . S
H180 C156 0.931 . S
H181 C158 0.930 . S
H182 C160 0.929 . S
H183 C161 0.931 . S
H184 C163 0.930 . S
H185 C167 0.931 . S
H186 C165 0.931 . S
H187 C169 0.931 . S
H188 C170 0.929 . S
H189 C171 0.930 . S
H190 C174 0.930 . S
H191 C175 0.931 . S
H192 C179 0.928 . S
H193 C178 0.929 . S
H194 C176 0.932 . S
C195 C196 1.386 1_554 S
C195 C197 1.397 . S
C195 H219 0.931 1_554 S
C196 C195 1.386 1_556 S
C196 C200 1.397 1_556 S
C197 C195 1.397 . S
C197 C198 1.384 . S
C197 H220 0.930 . S
C198 C197 1.384 . S
C198 C199 1.377 . S
C198 C201 1.481 . S
C199 C198 1.377 . S
C199 C200 1.389 . S
C199 H221 0.929 . S
C200 C196 1.397 1_554 S
C200 C199 1.389 . S
C200 H222 0.931 . S
C201 C198 1.481 . S
C201 C202 1.387 . S
C201 C206 1.390 . S
C202 C201 1.387 . S
C202 C203 1.401 . S
C202 H223 0.930 . S
C203 C202 1.401 . S
C203 C204 1.376 . S
C203 C212 1.511 . S
C204 C203 1.376 . S
C204 C205 1.392 . S
C204 H225 0.931 . S
C205 C204 1.392 . S
C205 C206 1.361 . S
C205 C207 1.500 . S
C206 C201 1.390 . S
C206 C205 1.361 . S
C206 H224 0.931 . S
C207 C205 1.500 . S
C207 C208 1.371 . S
C207 C209 1.365 . S
C208 C207 1.371 . S
C208 C218 1.386 . S
C208 H226 0.931 . S
C209 C207 1.365 . S
C209 C210 1.409 . S
C209 H227 0.929 . S
C210 C209 1.409 . S
C210 C211 1.380 . S
C210 H228 0.930 . S
C211 C210 1.380 . S
C211 C218 1.357 . S
C212 C203 1.511 . S
C212 C213 1.341 . S
C212 C214 1.371 . S
C213 C212 1.341 . S
C213 C217 1.394 . S
C213 H229 0.930 . S
C214 C212 1.371 . S
C214 C215 1.392 . S
C214 H230 0.931 . S
C215 C214 1.392 . S
C215 C216 1.331 . S
C215 H233 0.932 . S
C216 C215 1.331 . S
C216 C217 1.336 . S
C217 C213 1.394 . S
C217 C216 1.336 . S
C217 H232 0.929 . S
C218 C208 1.386 . S
C218 C211 1.357 . S
C218 H231 0.928 . S
H219 C195 0.931 1_556 S
H220 C197 0.930 . S
H221 C199 0.929 . S
H222 C200 0.931 . S
H223 C202 0.930 . S
H224 C206 0.931 . S
H225 C204 0.931 . S
H226 C208 0.931 . S
H227 C209 0.929 . S
H228 C210 0.930 . S
H229 C213 0.930 . S
H230 C214 0.931 . S
H231 C218 0.928 . S
H232 C217 0.929 . S
H233 C215 0.932 . S
C234 C235 1.386 . S
C234 C236 1.397 . S
C234 H258 0.931 . S
C235 C234 1.386 . S
C235 C239 1.397 . S
C236 C234 1.397 . S
C236 C237 1.384 . S
C236 H259 0.930 . S
C237 C236 1.384 . S
C237 C238 1.377 . S
C237 C240 1.481 . S
C238 C237 1.377 . S
C238 C239 1.389 . S
C238 H260 0.929 . S
C239 C235 1.397 . S
C239 C238 1.389 . S
C239 H261 0.931 1_565 S
C240 C237 1.481 . S
C240 C241 1.387 . S
C240 C245 1.390 . S
C241 C240 1.387 . S
C241 C242 1.401 . S
C241 H262 0.930 . S
C242 C241 1.401 . S
C242 C243 1.376 . S
C242 C251 1.511 . S
C243 C242 1.376 . S
C243 C244 1.392 . S
C243 H264 0.931 . S
C244 C243 1.392 . S
C244 C245 1.361 . S
C244 C246 1.500 . S
C245 C240 1.390 . S
C245 C244 1.361 . S
C245 H263 0.931 . S
C246 C244 1.500 . S
C246 C247 1.371 . S
C246 C248 1.365 . S
C247 C246 1.371 . S
C247 C257 1.386 . S
C247 H265 0.931 . S
C248 C246 1.365 . S
C248 C249 1.409 . S
C248 H266 0.929 . S
C249 C248 1.409 . S
C249 C250 1.380 . S
C249 H267 0.930 . S
C250 C249 1.380 . S
C250 C257 1.357 . S
C251 C242 1.511 . S
C251 C252 1.341 . S
C251 C253 1.371 . S
C252 C251 1.341 . S
C252 C256 1.394 . S
C252 H268 0.930 . S
C253 C251 1.371 . S
C253 C254 1.392 . S
C253 H269 0.931 . S
C254 C253 1.392 . S
C254 C255 1.331 . S
C254 H272 0.932 . S
C255 C254 1.331 . S
C255 C256 1.336 . S
C256 C252 1.394 . S
C256 C255 1.336 . S
C256 H271 0.929 . S
C257 C247 1.386 . S
C257 C250 1.357 . S
C257 H270 0.928 . S
H258 C234 0.931 . S
H259 C236 0.930 . S
H260 C238 0.929 . S
H261 C239 0.931 1_545 S
H262 C241 0.930 . S
H263 C245 0.931 . S
H264 C243 0.931 . S
H265 C247 0.931 . S
H266 C248 0.929 . S
H267 C249 0.930 . S
H268 C252 0.930 . S
H269 C253 0.931 . S
H270 C257 0.928 . S
H271 C256 0.929 . S
H272 C254 0.932 . S
C273 C274 1.386 1_556 S
C273 C275 1.397 . S
C273 H297 0.931 1_556 S
C274 C273 1.386 1_554 S
C274 C278 1.397 1_554 S
C275 C273 1.397 . S
C275 C276 1.384 . S
C275 H298 0.930 . S
C276 C275 1.384 . S
C276 C277 1.377 . S
C276 C279 1.481 . S
C277 C276 1.377 . S
C277 C278 1.389 . S
C277 H299 0.929 . S
C278 C274 1.397 1_556 S
C278 C277 1.389 . S
C278 H300 0.931 . S
C279 C276 1.481 . S
C279 C280 1.387 . S
C279 C284 1.390 . S
C280 C279 1.387 . S
C280 C281 1.401 . S
C280 H301 0.930 . S
C281 C280 1.401 . S
C281 C282 1.376 . S
C281 C290 1.511 . S
C282 C281 1.376 . S
C282 C283 1.392 . S
C282 H303 0.931 . S
C283 C282 1.392 . S
C283 C284 1.361 . S
C283 C285 1.500 . S
C284 C279 1.390 . S
C284 C283 1.361 . S
C284 H302 0.931 . S
C285 C283 1.500 . S
C285 C286 1.371 . S
C285 C287 1.365 . S
C286 C285 1.371 . S
C286 C296 1.386 . S
C286 H304 0.931 . S
C287 C285 1.365 . S
C287 C288 1.409 . S
C287 H305 0.929 . S
C288 C287 1.409 . S
C288 C289 1.380 . S
C288 H306 0.930 . S
C289 C288 1.380 . S
C289 C296 1.357 . S
C290 C281 1.511 . S
C290 C291 1.341 . S
C290 C292 1.371 . S
C291 C290 1.341 . S
C291 C295 1.394 . S
C291 H307 0.930 . S
C292 C290 1.371 . S
C292 C293 1.392 . S
C292 H308 0.931 . S
C293 C292 1.392 . S
C293 C294 1.331 . S
C293 H311 0.932 . S
C294 C293 1.331 . S
C294 C295 1.336 . S
C295 C291 1.394 . S
C295 C294 1.336 . S
C295 H310 0.929 . S
C296 C286 1.386 . S
C296 C289 1.357 . S
C296 H309 0.928 . S
H297 C273 0.931 1_554 S
H298 C275 0.930 . S
H299 C277 0.929 . S
H300 C278 0.931 . S
H301 C280 0.930 . S
H302 C284 0.931 . S
H303 C282 0.931 . S
H304 C286 0.931 . S
H305 C287 0.929 . S
H306 C288 0.930 . S
H307 C291 0.930 . S
H308 C292 0.931 . S
H309 C296 0.928 . S
H310 C295 0.929 . S
H311 C293 0.932 . S
Eu312 N341 2.600 . S
Eu312 N347 2.562 . S
Eu312 O356 2.462 . S
Eu312 O357 2.373 . S
Eu312 O359 2.432 . S
Eu312 O360 2.291 . S
Eu312 O364 2.335 . S
Eu312 O367 2.372 . S
Eu312 C376 2.787 . S
C313 N314 1.365 . S
C313 C316 1.405 . S
C313 C320 1.448 . S
N314 C313 1.365 . S
N314 C317 1.319 . S
N314 Eu323 2.600 . S
C315 C317 1.397 . S
C315 C318 1.367 . S
C315 H335 0.931 . S
C316 C313 1.405 . S
C316 C318 1.403 . S
C316 C322 1.439 . S
C317 N314 1.319 . S
C317 C315 1.397 . S
C317 H328 0.930 . S
C318 C315 1.367 . S
C318 C316 1.403 . S
C318 H339 0.929 . S
C319 C320 1.430 . S
C319 C321 1.387 . S
C319 C325 1.404 . S
C320 C313 1.448 . S
C320 C319 1.430 . S
C320 N324 1.351 . S
C321 C319 1.387 . S
C321 C322 1.374 . S
C321 H336 0.931 . S
C322 C316 1.439 . S
C322 C321 1.374 . S
C322 H337 0.931 . S
Eu323 N314 2.600 . S
Eu323 N324 2.562 . S
Eu323 O358 2.335 1_655 S
Eu323 O361 2.372 . S
Eu323 O362 2.462 . S
Eu323 O363 2.373 . S
Eu323 O365 2.432 . S
Eu323 O366 2.291 1_655 S
Eu323 C387 2.787 . S
N324 C320 1.351 . S
N324 Eu323 2.562 . S
N324 C326 1.325 . S
C325 C319 1.404 . S
C325 C327 1.366 . S
C325 H333 0.930 . S
C326 N324 1.325 . S
C326 C327 1.416 . S
C326 H332 0.929 . S
C327 C325 1.366 . S
C327 C326 1.416 . S
C327 H329 0.930 . S
H328 C317 0.930 . S
H329 C327 0.930 . S
H330 C345 0.930 . S
H331 C352 0.930 . S
H332 C326 0.929 . S
H333 C325 0.930 . S
H334 C348 0.929 . S
H335 C315 0.931 . S
H336 C321 0.931 . S
H337 C322 0.931 . S
H338 C343 0.931 . S
H339 C318 0.929 . S
H340 C351 0.930 . S
N341 Eu312 2.600 . S
N341 C342 1.365 . S
N341 C345 1.319 . S
C342 N341 1.365 . S
C342 C344 1.405 . S
C342 C350 1.448 . S
C343 H338 0.931 . S
C343 C345 1.397 . S
C343 C346 1.367 . S
C344 C342 1.405 . S
C344 C346 1.403 . S
C344 C377 1.439 . S
C345 H330 0.930 . S
C345 N341 1.319 . S
C345 C343 1.397 . S
C346 C343 1.367 . S
C346 C344 1.403 . S
C346 H353 0.929 . S
N347 Eu312 2.562 . S
N347 C348 1.325 . S
N347 C350 1.351 . S
C348 H334 0.929 . S
C348 N347 1.325 . S
C348 C352 1.416 . S
C349 C350 1.430 . S
C349 C351 1.404 . S
C349 C378 1.387 . S
C350 C342 1.448 . S
C350 N347 1.351 . S
C350 C349 1.430 . S
C351 H340 0.930 . S
C351 C349 1.404 . S
C351 C352 1.366 . S
C352 H331 0.930 . S
C352 C348 1.416 . S
C352 C351 1.366 . S
H353 C346 0.929 . S
H354 C377 0.931 . S
H355 C378 0.931 . S
O356 Eu312 2.462 . S
O356 C376 1.252 . S
O357 Eu312 2.373 . S
O357 C368 1.249 . S
O358 Eu323 2.335 1_455 S
O358 C368 1.264 . S
O359 Eu312 2.432 . S
O359 C376 1.268 . S
O360 Eu312 2.291 . S
O360 C375 1.255 1_455 S
O361 Eu323 2.372 . S
O361 C375 1.257 . S
O362 Eu323 2.462 . S
O362 C387 1.252 . S
O363 Eu323 2.373 . S
O363 C379 1.249 . S
O364 Eu312 2.335 . S
O364 C379 1.264 1_455 S
O365 Eu323 2.432 . S
O365 C387 1.268 . S
O366 Eu323 2.291 1_455 S
O366 C386 1.255 . S
O367 Eu312 2.372 . S
O367 C386 1.257 . S
C368 O357 1.249 . S
C368 O358 1.264 . S
C369 C372 1.382 . S
C369 C374 1.390 . S
C369 C376 1.506 . S
C370 C371 1.398 . S
C370 C374 1.392 . S
C371 C370 1.398 . S
C371 C373 1.372 . S
C371 H388 0.931 . S
C372 C369 1.382 . S
C372 C373 1.390 . S
C372 H389 0.931 . S
C373 C371 1.372 . S
C373 C372 1.390 . S
C373 H390 0.929 . S
C374 C369 1.390 . S
C374 C370 1.392 . S
C374 H391 0.930 . S
C375 O360 1.255 1_655 S
C375 O361 1.257 . S
C376 Eu312 2.787 . S
C376 O356 1.252 . S
C376 O359 1.268 . S
C376 C369 1.506 . S
C377 C344 1.439 . S
C377 H354 0.931 . S
C377 C378 1.374 . S
C378 C349 1.387 . S
C378 H355 0.931 . S
C378 C377 1.374 . S
C379 O363 1.249 . S
C379 O364 1.264 1_655 S
C380 C383 1.382 . S
C380 C384 1.390 . S
C380 C387 1.506 . S
C381 C382 1.398 . S
C381 C384 1.392 . S
C382 C381 1.398 . S
C382 C385 1.372 . S
C382 H392 0.931 . S
C383 C380 1.382 . S
C383 C385 1.390 . S
C383 H393 0.931 . S
C384 C380 1.390 . S
C384 C381 1.392 . S
C384 H394 0.930 . S
C385 C382 1.372 . S
C385 C383 1.390 . S
C385 H395 0.929 . S
C386 O366 1.255 . S
C386 O367 1.257 . S
C387 Eu323 2.787 . S
C387 O362 1.252 . S
C387 O365 1.268 . S
C387 C380 1.506 . S
H388 C371 0.931 . S
H389 C372 0.931 . S
H390 C373 0.929 . S
H391 C374 0.930 . S
H392 C382 0.931 . S
H393 C383 0.931 . S
H394 C384 0.930 . S
H395 C385 0.929 . S
Eu396 N425 2.600 . S
Eu396 N431 2.562 . S
Eu396 O440 2.462 . S
Eu396 O441 2.373 . S
Eu396 O443 2.432 . S
Eu396 O444 2.291 . S
Eu396 O448 2.335 . S
Eu396 O451 2.372 . S
Eu396 C460 2.787 . S
C397 N398 1.365 . S
C397 C400 1.405 . S
C397 C404 1.448 . S
N398 C397 1.365 . S
N398 C401 1.319 . S
N398 Eu407 2.600 . S
C399 C401 1.397 . S
C399 C402 1.367 . S
C399 H419 0.931 . S
C400 C397 1.405 . S
C400 C402 1.403 . S
C400 C406 1.439 . S
C401 N398 1.319 . S
C401 C399 1.397 . S
C401 H412 0.930 . S
C402 C399 1.367 . S
C402 C400 1.403 . S
C402 H423 0.929 . S
C403 C404 1.430 . S
C403 C405 1.387 . S
C403 C409 1.404 . S
C404 C397 1.448 . S
C404 C403 1.430 . S
C404 N408 1.351 . S
C405 C403 1.387 . S
C405 C406 1.374 . S
C405 H420 0.931 . S
C406 C400 1.439 . S
C406 C405 1.374 . S
C406 H421 0.931 . S
Eu407 N398 2.600 . S
Eu407 N408 2.562 . S
Eu407 O442 2.335 . S
Eu407 O445 2.372 . S
Eu407 O446 2.462 . S
Eu407 O447 2.373 . S
Eu407 O449 2.432 . S
Eu407 O450 2.291 . S
Eu407 C471 2.787 . S
N408 C404 1.351 . S
N408 Eu407 2.562 . S
N408 C410 1.325 . S
C409 C403 1.404 . S
C409 C411 1.366 . S
C409 H417 0.930 . S
C410 N408 1.325 . S
C410 C411 1.416 . S
C410 H416 0.929 . S
C411 C409 1.366 . S
C411 C410 1.416 . S
C411 H413 0.930 . S
H412 C401 0.930 . S
H413 C411 0.930 . S
H414 C429 0.930 . S
H415 C436 0.930 . S
H416 C410 0.929 . S
H417 C409 0.930 . S
H418 C432 0.929 . S
H419 C399 0.931 . S
H420 C405 0.931 . S
H421 C406 0.931 . S
H422 C427 0.931 . S
H423 C402 0.929 . S
H424 C435 0.930 . S
N425 Eu396 2.600 . S
N425 C426 1.365 . S
N425 C429 1.319 . S
C426 N425 1.365 . S
C426 C428 1.405 . S
C426 C434 1.448 . S
C427 H422 0.931 . S
C427 C429 1.397 . S
C427 C430 1.367 . S
C428 C426 1.405 . S
C428 C430 1.403 . S
C428 C461 1.439 . S
C429 H414 0.930 . S
C429 N425 1.319 . S
C429 C427 1.397 . S
C430 C427 1.367 . S
C430 C428 1.403 . S
C430 H437 0.929 . S
N431 Eu396 2.562 . S
N431 C432 1.325 . S
N431 C434 1.351 . S
C432 H418 0.929 . S
C432 N431 1.325 . S
C432 C436 1.416 . S
C433 C434 1.430 . S
C433 C435 1.404 . S
C433 C462 1.387 . S
C434 C426 1.448 . S
C434 N431 1.351 . S
C434 C433 1.430 . S
C435 H424 0.930 . S
C435 C433 1.404 . S
C435 C436 1.366 . S
C436 H415 0.930 . S
C436 C432 1.416 . S
C436 C435 1.366 . S
H437 C430 0.929 . S
H438 C461 0.931 . S
H439 C462 0.931 . S
O440 Eu396 2.462 . S
O440 C460 1.252 . S
O441 Eu396 2.373 . S
O441 C452 1.249 . S
O442 Eu407 2.335 . S
O442 C452 1.264 . S
O443 Eu396 2.432 . S
O443 C460 1.268 . S
O444 Eu396 2.291 . S
O444 C459 1.255 . S
O445 Eu407 2.372 . S
O445 C459 1.257 . S
O446 Eu407 2.462 . S
O446 C471 1.252 . S
O447 Eu407 2.373 . S
O447 C463 1.249 . S
O448 Eu396 2.335 . S
O448 C463 1.264 . S
O449 Eu407 2.432 . S
O449 C471 1.268 . S
O450 Eu407 2.291 . S
O450 C470 1.255 . S
O451 Eu396 2.372 . S
O451 C470 1.257 . S
C452 O441 1.249 . S
C452 O442 1.264 . S
C453 C456 1.382 . S
C453 C458 1.390 . S
C453 C460 1.506 . S
C454 C455 1.398 . S
C454 C458 1.392 . S
C455 C454 1.398 . S
C455 C457 1.372 . S
C455 H472 0.931 . S
C456 C453 1.382 . S
C456 C457 1.390 . S
C456 H473 0.931 . S
C457 C455 1.372 . S
C457 C456 1.390 . S
C457 H474 0.929 . S
C458 C453 1.390 . S
C458 C454 1.392 . S
C458 H475 0.930 . S
C459 O444 1.255 . S
C459 O445 1.257 . S
C460 Eu396 2.787 . S
C460 O440 1.252 . S
C460 O443 1.268 . S
C460 C453 1.506 . S
C461 C428 1.439 . S
C461 H438 0.931 . S
C461 C462 1.374 . S
C462 C433 1.387 . S
C462 H439 0.931 . S
C462 C461 1.374 . S
C463 O447 1.249 . S
C463 O448 1.264 . S
C464 C467 1.382 . S
C464 C468 1.390 . S
C464 C471 1.506 . S
C465 C466 1.398 . S
C465 C468 1.392 . S
C466 C465 1.398 . S
C466 C469 1.372 . S
C466 H476 0.931 . S
C467 C464 1.382 . S
C467 C469 1.390 . S
C467 H477 0.931 . S
C468 C464 1.390 . S
C468 C465 1.392 . S
C468 H478 0.930 . S
C469 C466 1.372 . S
C469 C467 1.390 . S
C469 H479 0.929 . S
C470 O450 1.255 . S
C470 O451 1.257 . S
C471 Eu407 2.787 . S
C471 O446 1.252 . S
C471 O449 1.268 . S
C471 C464 1.506 . S
H472 C455 0.931 . S
H473 C456 0.931 . S
H474 C457 0.929 . S
H475 C458 0.930 . S
H476 C466 0.931 . S
H477 C467 0.931 . S
H478 C468 0.930 . S
H479 C469 0.929 . S
Eu480 N509 2.600 . S
Eu480 N515 2.562 . S
Eu480 O524 2.462 . S
Eu480 O525 2.373 . S
Eu480 O527 2.432 . S
Eu480 O528 2.291 . S
Eu480 O532 2.335 . S
Eu480 O535 2.372 . S
Eu480 C544 2.787 . S
C481 N482 1.365 . S
C481 C484 1.405 . S
C481 C488 1.448 . S
N482 C481 1.365 . S
N482 C485 1.319 . S
N482 Eu491 2.600 . S
C483 C485 1.397 . S
C483 C486 1.367 . S
C483 H503 0.931 . S
C484 C481 1.405 . S
C484 C486 1.403 . S
C484 C490 1.439 . S
C485 N482 1.319 . S
C485 C483 1.397 . S
C485 H496 0.930 . S
C486 C483 1.367 . S
C486 C484 1.403 . S
C486 H507 0.929 . S
C487 C488 1.430 . S
C487 C489 1.387 . S
C487 C493 1.404 . S
C488 C481 1.448 . S
C488 C487 1.430 . S
C488 N492 1.351 . S
C489 C487 1.387 . S
C489 C490 1.374 . S
C489 H504 0.931 . S
C490 C484 1.439 . S
C490 C489 1.374 . S
C490 H505 0.931 . S
Eu491 N482 2.600 . S
Eu491 N492 2.562 . S
Eu491 O526 2.335 1_655 S
Eu491 O529 2.372 . S
Eu491 O530 2.462 . S
Eu491 O531 2.373 . S
Eu491 O533 2.432 . S
Eu491 O534 2.291 1_655 S
Eu491 C555 2.787 . S
N492 C488 1.351 . S
N492 Eu491 2.562 . S
N492 C494 1.325 . S
C493 C487 1.404 . S
C493 C495 1.366 . S
C493 H501 0.930 . S
C494 N492 1.325 . S
C494 C495 1.416 . S
C494 H500 0.929 . S
C495 C493 1.366 . S
C495 C494 1.416 . S
C495 H497 0.930 . S
H496 C485 0.930 . S
H497 C495 0.930 . S
H498 C513 0.930 . S
H499 C520 0.930 . S
H500 C494 0.929 . S
H501 C493 0.930 . S
H502 C516 0.929 . S
H503 C483 0.931 . S
H504 C489 0.931 . S
H505 C490 0.931 . S
H506 C511 0.931 . S
H507 C486 0.929 . S
H508 C519 0.930 . S
N509 Eu480 2.600 . S
N509 C510 1.365 . S
N509 C513 1.319 . S
C510 N509 1.365 . S
C510 C512 1.405 . S
C510 C518 1.448 . S
C511 H506 0.931 . S
C511 C513 1.397 . S
C511 C514 1.367 . S
C512 C510 1.405 . S
C512 C514 1.403 . S
C512 C545 1.439 . S
C513 H498 0.930 . S
C513 N509 1.319 . S
C513 C511 1.397 . S
C514 C511 1.367 . S
C514 C512 1.403 . S
C514 H521 0.929 . S
N515 Eu480 2.562 . S
N515 C516 1.325 . S
N515 C518 1.351 . S
C516 H502 0.929 . S
C516 N515 1.325 . S
C516 C520 1.416 . S
C517 C518 1.430 . S
C517 C519 1.404 . S
C517 C546 1.387 . S
C518 C510 1.448 . S
C518 N515 1.351 . S
C518 C517 1.430 . S
C519 H508 0.930 . S
C519 C517 1.404 . S
C519 C520 1.366 . S
C520 H499 0.930 . S
C520 C516 1.416 . S
C520 C519 1.366 . S
H521 C514 0.929 . S
H522 C545 0.931 . S
H523 C546 0.931 . S
O524 Eu480 2.462 . S
O524 C544 1.252 . S
O525 Eu480 2.373 . S
O525 C536 1.249 . S
O526 Eu491 2.335 1_455 S
O526 C536 1.264 . S
O527 Eu480 2.432 . S
O527 C544 1.268 . S
O528 Eu480 2.291 . S
O528 C543 1.255 1_455 S
O529 Eu491 2.372 . S
O529 C543 1.257 . S
O530 Eu491 2.462 . S
O530 C555 1.252 . S
O531 Eu491 2.373 . S
O531 C547 1.249 . S
O532 Eu480 2.335 . S
O532 C547 1.264 1_455 S
O533 Eu491 2.432 . S
O533 C555 1.268 . S
O534 Eu491 2.291 1_455 S
O534 C554 1.255 . S
O535 Eu480 2.372 . S
O535 C554 1.257 . S
C536 O525 1.249 . S
C536 O526 1.264 . S
C537 C540 1.382 . S
C537 C542 1.390 . S
C537 C544 1.506 . S
C538 C539 1.398 . S
C538 C542 1.392 . S
C539 C538 1.398 . S
C539 C541 1.372 . S
C539 H556 0.931 . S
C540 C537 1.382 . S
C540 C541 1.390 . S
C540 H557 0.931 . S
C541 C539 1.372 . S
C541 C540 1.390 . S
C541 H558 0.929 . S
C542 C537 1.390 . S
C542 C538 1.392 . S
C542 H559 0.930 . S
C543 O528 1.255 1_655 S
C543 O529 1.257 . S
C544 Eu480 2.787 . S
C544 O524 1.252 . S
C544 O527 1.268 . S
C544 C537 1.506 . S
C545 C512 1.439 . S
C545 H522 0.931 . S
C545 C546 1.374 . S
C546 C517 1.387 . S
C546 H523 0.931 . S
C546 C545 1.374 . S
C547 O531 1.249 . S
C547 O532 1.264 1_655 S
C548 C551 1.382 . S
C548 C552 1.390 . S
C548 C555 1.506 . S
C549 C550 1.398 . S
C549 C552 1.392 . S
C550 C549 1.398 . S
C550 C553 1.372 . S
C550 H560 0.931 . S
C551 C548 1.382 . S
C551 C553 1.390 . S
C551 H561 0.931 . S
C552 C548 1.390 . S
C552 C549 1.392 . S
C552 H562 0.930 . S
C553 C550 1.372 . S
C553 C551 1.390 . S
C553 H563 0.929 . S
C554 O534 1.255 . S
C554 O535 1.257 . S
C555 Eu491 2.787 . S
C555 O530 1.252 . S
C555 O533 1.268 . S
C555 C548 1.506 . S
H556 C539 0.931 . S
H557 C540 0.931 . S
H558 C541 0.929 . S
H559 C542 0.930 . S
H560 C550 0.931 . S
H561 C551 0.931 . S
H562 C552 0.930 . S
H563 C553 0.929 . S
Eu564 N593 2.600 . S
Eu564 N599 2.562 . S
Eu564 O608 2.462 . S
Eu564 O609 2.373 . S
Eu564 O611 2.432 . S
Eu564 O612 2.291 . S
Eu564 O616 2.335 . S
Eu564 O619 2.372 . S
Eu564 C628 2.787 . S
C565 N566 1.365 . S
C565 C568 1.405 . S
C565 C572 1.448 . S
N566 C565 1.365 . S
N566 C569 1.319 . S
N566 Eu575 2.600 . S
C567 C569 1.397 . S
C567 C570 1.367 . S
C567 H587 0.931 . S
C568 C565 1.405 . S
C568 C570 1.403 . S
C568 C574 1.439 . S
C569 N566 1.319 . S
C569 C567 1.397 . S
C569 H580 0.930 . S
C570 C567 1.367 . S
C570 C568 1.403 . S
C570 H591 0.929 . S
C571 C572 1.430 . S
C571 C573 1.387 . S
C571 C577 1.404 . S
C572 C565 1.448 . S
C572 C571 1.430 . S
C572 N576 1.351 . S
C573 C571 1.387 . S
C573 C574 1.374 . S
C573 H588 0.931 . S
C574 C568 1.439 . S
C574 C573 1.374 . S
C574 H589 0.931 . S
Eu575 N566 2.600 . S
Eu575 N576 2.562 . S
Eu575 O610 2.335 . S
Eu575 O613 2.372 . S
Eu575 O614 2.462 . S
Eu575 O615 2.373 . S
Eu575 O617 2.432 . S
Eu575 O618 2.291 . S
Eu575 C639 2.787 . S
N576 C572 1.351 . S
N576 Eu575 2.562 . S
N576 C578 1.325 . S
C577 C571 1.404 . S
C577 C579 1.366 . S
C577 H585 0.930 . S
C578 N576 1.325 . S
C578 C579 1.416 . S
C578 H584 0.929 . S
C579 C577 1.366 . S
C579 C578 1.416 . S
C579 H581 0.930 . S
H580 C569 0.930 . S
H581 C579 0.930 . S
H582 C597 0.930 . S
H583 C604 0.930 . S
H584 C578 0.929 . S
H585 C577 0.930 . S
H586 C600 0.929 . S
H587 C567 0.931 . S
H588 C573 0.931 . S
H589 C574 0.931 . S
H590 C595 0.931 . S
H591 C570 0.929 . S
H592 C603 0.930 . S
N593 Eu564 2.600 . S
N593 C594 1.365 . S
N593 C597 1.319 . S
C594 N593 1.365 . S
C594 C596 1.405 . S
C594 C602 1.448 . S
C595 H590 0.931 . S
C595 C597 1.397 . S
C595 C598 1.367 . S
C596 C594 1.405 . S
C596 C598 1.403 . S
C596 C629 1.439 . S
C597 H582 0.930 . S
C597 N593 1.319 . S
C597 C595 1.397 . S
C598 C595 1.367 . S
C598 C596 1.403 . S
C598 H605 0.929 . S
N599 Eu564 2.562 . S
N599 C600 1.325 . S
N599 C602 1.351 . S
C600 H586 0.929 . S
C600 N599 1.325 . S
C600 C604 1.416 . S
C601 C602 1.430 . S
C601 C603 1.404 . S
C601 C630 1.387 . S
C602 C594 1.448 . S
C602 N599 1.351 . S
C602 C601 1.430 . S
C603 H592 0.930 . S
C603 C601 1.404 . S
C603 C604 1.366 . S
C604 H583 0.930 . S
C604 C600 1.416 . S
C604 C603 1.366 . S
H605 C598 0.929 . S
H606 C629 0.931 . S
H607 C630 0.931 . S
O608 Eu564 2.462 . S
O608 C628 1.252 . S
O609 Eu564 2.373 . S
O609 C620 1.249 . S
O610 Eu575 2.335 . S
O610 C620 1.264 . S
O611 Eu564 2.432 . S
O611 C628 1.268 . S
O612 Eu564 2.291 . S
O612 C627 1.255 . S
O613 Eu575 2.372 . S
O613 C627 1.257 . S
O614 Eu575 2.462 . S
O614 C639 1.252 . S
O615 Eu575 2.373 . S
O615 C631 1.249 . S
O616 Eu564 2.335 . S
O616 C631 1.264 . S
O617 Eu575 2.432 . S
O617 C639 1.268 . S
O618 Eu575 2.291 . S
O618 C638 1.255 . S
O619 Eu564 2.372 . S
O619 C638 1.257 . S
C620 O609 1.249 . S
C620 O610 1.264 . S
C621 C624 1.382 . S
C621 C626 1.390 . S
C621 C628 1.506 . S
C622 C623 1.398 . S
C622 C626 1.392 . S
C623 C622 1.398 . S
C623 C625 1.372 . S
C623 H640 0.931 . S
C624 C621 1.382 . S
C624 C625 1.390 . S
C624 H641 0.931 . S
C625 C623 1.372 . S
C625 C624 1.390 . S
C625 H642 0.929 . S
C626 C621 1.390 . S
C626 C622 1.392 . S
C626 H643 0.930 . S
C627 O612 1.255 . S
C627 O613 1.257 . S
C628 Eu564 2.787 . S
C628 O608 1.252 . S
C628 O611 1.268 . S
C628 C621 1.506 . S
C629 C596 1.439 . S
C629 H606 0.931 . S
C629 C630 1.374 . S
C630 C601 1.387 . S
C630 H607 0.931 . S
C630 C629 1.374 . S
C631 O615 1.249 . S
C631 O616 1.264 . S
C632 C635 1.382 . S
C632 C636 1.390 . S
C632 C639 1.506 . S
C633 C634 1.398 . S
C633 C636 1.392 . S
C634 C633 1.398 . S
C634 C637 1.372 . S
C634 H644 0.931 . S
C635 C632 1.382 . S
C635 C637 1.390 . S
C635 H645 0.931 . S
C636 C632 1.390 . S
C636 C633 1.392 . S
C636 H646 0.930 . S
C637 C634 1.372 . S
C637 C635 1.390 . S
C637 H647 0.929 . S
C638 O618 1.255 . S
C638 O619 1.257 . S
C639 Eu575 2.787 . S
C639 O614 1.252 . S
C639 O617 1.268 . S
C639 C632 1.506 . S
H640 C623 0.931 . S
H641 C624 0.931 . S
H642 C625 0.929 . S
H643 C626 0.930 . S
H644 C634 0.931 . S
H645 C635 0.931 . S
H646 C636 0.930 . S
H647 C637 0.929 . S
C648 C649 1.387 . S
C648 H652 0.950 . S
C648 C657 1.390 . S
C649 C648 1.387 . S
C649 C651 1.387 . S
H650 C657 0.950 . S
C651 C649 1.387 . S
C651 C653 1.390 . S
C651 H655 0.950 1_545 S
H652 C648 0.950 . S
C653 C651 1.390 . S
C653 C654 1.387 . S
C653 H656 0.950 . S
C654 C653 1.387 . S
C654 C657 1.387 . S
H655 C651 0.950 1_565 S
H656 C653 0.950 . S
C657 C648 1.390 . S
C657 H650 0.950 . S
C657 C654 1.387 . S
C658 C659 1.387 . S
C658 H662 0.950 . S
C658 C667 1.390 . S
C659 C658 1.387 . S
C659 C661 1.387 . S
H660 C667 0.950 . S
C661 C659 1.387 . S
C661 C663 1.390 . S
C661 H665 0.950 . S
H662 C658 0.950 . S
C663 C661 1.390 . S
C663 C664 1.387 . S
C663 H666 0.950 . S
C664 C663 1.387 . S
C664 C667 1.387 . S
H665 C661 0.950 . S
H666 C663 0.950 . S
C667 C658 1.390 . S
C667 H660 0.950 . S
C667 C664 1.387 . S
C668 C669 1.387 . S
C668 H672 0.950 . S
C668 C677 1.390 . S
C669 C668 1.387 . S
C669 C671 1.387 . S
H670 C677 0.950 . S
C671 C669 1.387 . S
C671 C673 1.390 . S
C671 H675 0.950 . S
H672 C668 0.950 . S
C673 C671 1.390 . S
C673 C674 1.387 . S
C673 H676 0.950 . S
C674 C673 1.387 . S
C674 C677 1.387 . S
H675 C671 0.950 . S
H676 C673 0.950 . S
C677 C668 1.390 . S
C677 H670 0.950 . S
C677 C674 1.387 . S
C678 C679 1.387 . S
C678 H682 0.950 . S
C678 C687 1.390 . S
C679 C678 1.387 . S
C679 C681 1.387 . S
H680 C687 0.950 . S
C681 C679 1.387 . S
C681 C683 1.390 . S
C681 H685 0.950 1_545 S
H682 C678 0.950 . S
C683 C681 1.390 . S
C683 C684 1.387 . S
C683 H686 0.950 . S
C684 C683 1.387 . S
C684 C687 1.387 . S
H685 C681 0.950 1_565 S
H686 C683 0.950 . S
C687 C678 1.390 . S
C687 H680 0.950 . S
C687 C684 1.387 . S
C688 C689 1.387 . S
C688 H692 0.950 1_565 S
C688 C697 1.390 . S
C689 C688 1.387 . S
C689 C691 1.387 . S
H690 C697 0.950 . S
C691 C689 1.387 . S
C691 C693 1.390 . S
C691 H695 0.950 . S
H692 C688 0.950 1_545 S
C693 C691 1.390 . S
C693 C694 1.387 . S
C693 H696 0.950 . S
C694 C693 1.387 . S
C694 C697 1.387 . S
H695 C691 0.950 . S
H696 C693 0.950 . S
C697 C688 1.390 . S
C697 H690 0.950 . S
C697 C694 1.387 . S
C698 C699 1.387 . S
C698 H702 0.950 . S
C698 C707 1.390 . S
C699 C698 1.387 . S
C699 C701 1.387 . S
H700 C707 0.950 . S
C701 C699 1.387 . S
C701 C703 1.390 . S
C701 H705 0.950 . S
H702 C698 0.950 . S
C703 C701 1.390 . S
C703 C704 1.387 . S
C703 H706 0.950 . S
C704 C703 1.387 . S
C704 C707 1.387 . S
H705 C701 0.950 . S
H706 C703 0.950 . S
C707 C698 1.390 . S
C707 H700 0.950 . S
C707 C704 1.387 . S
C708 C709 1.387 . S
C708 H712 0.950 . S
C708 C717 1.390 . S
C709 C708 1.387 . S
C709 C711 1.387 . S
H710 C717 0.950 . S
C711 C709 1.387 . S
C711 C713 1.390 . S
C711 H715 0.950 . S
H712 C708 0.950 . S
C713 C711 1.390 . S
C713 C714 1.387 . S
C713 H716 0.950 . S
C714 C713 1.387 . S
C714 C717 1.387 . S
H715 C711 0.950 . S
H716 C713 0.950 . S
C717 C708 1.390 . S
C717 H710 0.950 . S
C717 C714 1.387 . S
C718 C719 1.387 . S
C718 H722 0.950 . S
C718 C727 1.390 . S
C719 C718 1.387 . S
C719 C721 1.387 . S
H720 C727 0.950 . S
C721 C719 1.387 . S
C721 C723 1.390 . S
C721 H725 0.950 . S
H722 C718 0.950 . S
C723 C721 1.390 . S
C723 C724 1.387 . S
C723 H726 0.950 . S
C724 C723 1.387 . S
C724 C727 1.387 . S
H725 C721 0.950 . S
H726 C723 0.950 . S
C727 C718 1.390 . S
C727 H720 0.950 . S
C727 C724 1.387 . S
C728 C729 1.387 . S
C728 H732 0.950 . S
C728 C737 1.390 . S
C729 C728 1.387 . S
C729 C731 1.387 . S
H730 C737 0.950 . S
C731 C729 1.387 . S
C731 C733 1.390 . S
C731 H735 0.950 . S
H732 C728 0.950 . S
C733 C731 1.390 . S
C733 C734 1.387 . S
C733 H736 0.950 . S
C734 C733 1.387 . S
C734 C737 1.387 . S
H735 C731 0.950 . S
H736 C733 0.950 . S
C737 C728 1.390 . S
C737 H730 0.950 . S
C737 C734 1.387 . S
C738 C739 1.387 . S
C738 H742 0.950 . S
C738 C747 1.390 . S
C739 C738 1.387 . S
C739 C741 1.387 . S
H740 C747 0.950 . S
C741 C739 1.387 . S
C741 C743 1.390 . S
C741 H745 0.950 . S
H742 C738 0.950 . S
C743 C741 1.390 . S
C743 C744 1.387 . S
C743 H746 0.950 . S
C744 C743 1.387 . S
C744 C747 1.387 . S
H745 C741 0.950 . S
H746 C743 0.950 . S
C747 C738 1.390 . S
C747 H740 0.950 . S
C747 C744 1.387 . S
C748 C749 1.387 . S
C748 H752 0.950 . S
C748 C757 1.390 . S
C749 C748 1.387 . S
C749 C751 1.387 . S
H750 C757 0.950 . S
C751 C749 1.387 . S
C751 C753 1.390 . S
C751 H755 0.950 . S
H752 C748 0.950 . S
C753 C751 1.390 . S
C753 C754 1.387 . S
C753 H756 0.950 . S
C754 C753 1.387 . S
C754 C757 1.387 . S
H755 C751 0.950 . S
H756 C753 0.950 . S
C757 C748 1.390 . S
C757 H750 0.950 . S
C757 C754 1.387 . S
C758 C759 1.387 . S
C758 H762 0.950 . S
C758 C767 1.390 . S
C759 C758 1.387 . S
C759 C761 1.387 . S
H760 C767 0.950 . S
C761 C759 1.387 . S
C761 C763 1.390 . S
C761 H765 0.950 . S
H762 C758 0.950 . S
C763 C761 1.390 . S
C763 C764 1.387 . S
C763 H766 0.950 . S
C764 C763 1.387 . S
C764 C767 1.387 . S
H765 C761 0.950 . S
H766 C763 0.950 . S
C767 C758 1.390 . S
C767 H760 0.950 . S
C767 C764 1.387 . S
C768 C769 1.387 . S
C768 H772 0.950 . S
C768 C777 1.390 . S
C769 C768 1.387 . S
C769 C771 1.387 . S
H770 C777 0.950 . S
C771 C769 1.387 . S
C771 C773 1.390 . S
C771 H775 0.950 . S
H772 C768 0.950 . S
C773 C771 1.390 . S
C773 C774 1.387 . S
C773 H776 0.950 . S
C774 C773 1.387 . S
C774 C777 1.387 . S
H775 C771 0.950 . S
H776 C773 0.950 . S
C777 C768 1.390 . S
C777 H770 0.950 . S
C777 C774 1.387 . S
C778 C779 1.387 . S
C778 H782 0.950 . S
C778 C787 1.390 . S
C779 C778 1.387 . S
C779 C781 1.387 . S
H780 C787 0.950 . S
C781 C779 1.387 . S
C781 C783 1.390 . S
C781 H785 0.950 . S
H782 C778 0.950 . S
C783 C781 1.390 . S
C783 C784 1.387 . S
C783 H786 0.950 . S
C784 C783 1.387 . S
C784 C787 1.387 . S
H785 C781 0.950 . S
H786 C783 0.950 . S
C787 C778 1.390 . S
C787 H780 0.950 . S
C787 C784 1.387 . S
C788 C789 1.387 . S
C788 H792 0.950 . S
C788 C797 1.390 . S
C789 C788 1.387 . S
C789 C791 1.387 . S
H790 C797 0.950 . S
C791 C789 1.387 . S
C791 C793 1.390 . S
C791 H795 0.950 . S
H792 C788 0.950 . S
C793 C791 1.390 . S
C793 C794 1.387 . S
C793 H796 0.950 . S
C794 C793 1.387 . S
C794 C797 1.387 . S
H795 C791 0.950 . S
H796 C793 0.950 . S
C797 C788 1.390 . S
C797 H790 0.950 . S
C797 C794 1.387 . S
C798 C799 1.387 . S
C798 H802 0.950 . S
C798 C807 1.390 . S
C799 C798 1.387 . S
C799 C801 1.387 . S
H800 C807 0.950 . S
C801 C799 1.387 . S
C801 C803 1.390 . S
C801 H805 0.950 . S
H802 C798 0.950 . S
C803 C801 1.390 . S
C803 C804 1.387 . S
C803 H806 0.950 . S
C804 C803 1.387 . S
C804 C807 1.387 . S
H805 C801 0.950 . S
H806 C803 0.950 . S
C807 C798 1.390 . S
C807 H800 0.950 . S
C807 C804 1.387 . S
C808 C809 1.387 . S
C808 H812 0.950 . S
C808 C817 1.390 . S
C809 C808 1.387 . S
C809 C811 1.387 . S
H810 C817 0.950 . S
C811 C809 1.387 . S
C811 C813 1.390 . S
C811 H815 0.950 . S
H812 C808 0.950 . S
C813 C811 1.390 . S
C813 C814 1.387 . S
C813 H816 0.957 . S
C814 C813 1.387 . S
C814 C817 1.387 . S
H815 C811 0.950 . S
H816 C813 0.957 . S
C817 C808 1.390 . S
C817 H810 0.950 . S
C817 C814 1.387 . S
C818 C819 1.387 . S
C818 H822 0.950 . S
C818 C827 1.390 . S
C819 C818 1.387 . S
C819 C821 1.387 . S
H820 C827 0.950 . S
C821 C819 1.387 . S
C821 C823 1.390 . S
C821 H825 0.950 . S
H822 C818 0.950 . S
C823 C821 1.390 . S
C823 C824 1.387 . S
C823 H826 0.950 . S
C824 C823 1.387 . S
C824 C827 1.387 . S
H825 C821 0.950 . S
H826 C823 0.950 . S
C827 C818 1.390 . S
C827 H820 0.950 . S
C827 C824 1.387 . S
C828 C829 1.387 . S
C828 H832 0.950 . S
C828 C837 1.390 . S
C829 C828 1.387 . S
C829 C831 1.387 . S
H830 C837 0.950 . S
C831 C829 1.387 . S
C831 C833 1.390 . S
C831 H835 0.950 . S
H832 C828 0.950 . S
C833 C831 1.390 . S
C833 C834 1.387 . S
C833 H836 0.950 . S
C834 C833 1.387 . S
C834 C837 1.387 . S
H835 C831 0.950 . S
H836 C833 0.950 . S
C837 C828 1.390 . S
C837 H830 0.950 . S
C837 C834 1.387 . S
C838 C839 1.387 . S
C838 H842 0.950 . S
C838 C847 1.390 . S
C839 C838 1.387 . S
C839 C841 1.387 . S
H840 C847 0.950 . S
C841 C839 1.387 . S
C841 C843 1.390 . S
C841 H845 0.950 . S
H842 C838 0.950 . S
C843 C841 1.390 . S
C843 C844 1.387 . S
C843 H846 0.950 . S
C844 C843 1.387 . S
C844 C847 1.387 . S
H845 C841 0.950 . S
H846 C843 0.950 . S
C847 C838 1.390 . S
C847 H840 0.950 . S
C847 C844 1.387 . S
C848 C849 1.387 . S
C848 H852 0.950 . S
C848 C857 1.390 . S
C849 C848 1.387 . S
C849 C851 1.387 . S
H850 C857 0.950 . S
C851 C849 1.387 . S
C851 C853 1.390 . S
C851 H855 0.950 . S
H852 C848 0.950 . S
C853 C851 1.390 . S
C853 C854 1.387 . S
C853 H856 0.950 1_655 S
C854 C853 1.387 . S
C854 C857 1.387 . S
H855 C851 0.950 . S
H856 C853 0.950 1_455 S
C857 C848 1.390 . S
C857 H850 0.950 . S
C857 C854 1.387 . S
C858 C859 1.387 . S
C858 H862 0.950 . S
C858 C867 1.390 . S
C859 C858 1.387 . S
C859 C861 1.387 . S
H860 C867 0.950 . S
C861 C859 1.387 . S
C861 C863 1.390 . S
C861 H865 0.950 . S
H862 C858 0.950 . S
C863 C861 1.390 . S
C863 C864 1.387 . S
C863 H866 0.950 . S
C864 C863 1.387 . S
C864 C867 1.387 . S
H865 C861 0.950 . S
H866 C863 0.950 . S
C867 C858 1.390 . S
C867 H860 0.950 . S
C867 C864 1.387 . S
C868 C869 1.387 . S
C868 H872 0.950 . S
C868 C877 1.390 . S
C869 C868 1.387 . S
C869 C871 1.387 . S
H870 C877 0.950 . S
C871 C869 1.387 . S
C871 C873 1.390 . S
C871 H875 0.950 . S
H872 C868 0.950 . S
C873 C871 1.390 . S
C873 C874 1.387 . S
C873 H876 0.950 . S
C874 C873 1.387 . S
C874 C877 1.387 . S
H875 C871 0.950 . S
H876 C873 0.950 . S
C877 C868 1.390 . S
C877 H870 0.950 . S
C877 C874 1.387 . S
C878 C879 1.387 . S
C878 H882 0.950 . S
C878 C887 1.390 . S
C879 C878 1.387 . S
C879 C881 1.387 . S
H880 C887 0.950 . S
C881 C879 1.387 . S
C881 C883 1.390 . S
C881 H885 0.950 . S
H882 C878 0.950 . S
C883 C881 1.390 . S
C883 C884 1.387 . S
C883 H886 0.950 . S
C884 C883 1.387 . S
C884 C887 1.387 . S
H885 C881 0.950 . S
H886 C883 0.950 . S
C887 C878 1.390 . S
C887 H880 0.950 . S
C887 C884 1.387 . S
C649 C235 1.486 1_545 S
C654 C386 1.476 . S
C664 C470 1.475 . S
C659 C289 1.485 . S
C674 C463 1.482 . S
C669 C157 1.481 . S
C679 C211 1.480 1_545 S
C684 C379 1.480 . S
C694 C543 1.476 . S
C689 C79 1.487 1_565 S
C704 C627 1.479 . S
C699 C118 1.491 . S
C709 C1 1.483 . S
C714 C620 1.481 . S
C719 C40 1.486 1_565 S
C724 C536 1.484 . S
C734 C370 1.323 . S
C729 C55 1.520 . S
C744 C454 1.319 . S
C739 C16 1.518 . S
C754 C465 1.396 . S
C749 C133 1.533 . S
C764 C381 1.396 . S
C759 C94 1.532 . S
C774 C549 1.326 . S
C769 C196 1.527 . S
C779 C172 1.525 . S
C784 C633 1.327 . S
C794 C622 1.403 . S
C789 C274 1.540 . S
C799 C250 1.537 . S
C804 C538 1.399 . S
C814 C368 1.574 . S
C809 C21 1.569 . S
C824 C452 1.578 . S
C819 C60 1.573 . S
C829 C99 1.561 . S
C834 C459 1.563 . S
C844 C375 1.566 . S
C839 C138 1.564 . S
C854 C547 1.582 . S
C849 C177 1.569 . S
C859 C216 1.572 . S
C864 C631 1.582 . S
C869 C255 1.561 . S
C874 C638 1.569 . S
C879 C294 1.563 . S
C884 C554 1.569 . S
