# Generated by pormake.
# Topology ptr, (4,4)-cn, num edge types: 1
# Building blocks:
#     Node 0, Type 0, BuildingBlock: AZAVOO_clean_sbu_0, # of connection points: 4
#     Node 1, Type 0, BuildingBlock: AZAVOO_clean_sbu_0, # of connection points: 4
#     Node 2, Type 0, BuildingBlock: AZAVOO_clean_sbu_0, # of connection points: 4
#     Node 3, Type 0, BuildingBlock: AZAVOO_clean_sbu_0, # of connection points: 4
#     Node 4, Type 0, BuildingBlock: AZAVOO_clean_sbu_0, # of connection points: 4
#     Node 5, Type 0, BuildingBlock: AZAVOO_clean_sbu_0, # of connection points: 4
#     Node 6, Type 0, BuildingBlock: AZAVOO_clean_sbu_0, # of connection points: 4
#     Node 7, Type 0, BuildingBlock: AZAVOO_clean_sbu_0, # of connection points: 4
#     Node 8, Type 0, BuildingBlock: AZAVOO_clean_sbu_0, # of connection points: 4
#     Node 9, Type 0, BuildingBlock: AZAVOO_clean_sbu_0, # of connection points: 4
#     Node 10, Type 0, BuildingBlock: AZAVOO_clean_sbu_0, # of connection points: 4
#     Node 11, Type 0, BuildingBlock: AZAVOO_clean_sbu_0, # of connection points: 4
#     Node 12, Type 0, BuildingBlock: AZAVOO_clean_sbu_0, # of connection points: 4
#     Node 13, Type 0, BuildingBlock: AZAVOO_clean_sbu_0, # of connection points: 4
#     Node 14, Type 0, BuildingBlock: AZAVOO_clean_sbu_0, # of connection points: 4
#     Node 15, Type 0, BuildingBlock: AZAVOO_clean_sbu_0, # of connection points: 4
#     Node 16, Type 0, BuildingBlock: AZAVOO_clean_sbu_0, # of connection points: 4
#     Node 17, Type 0, BuildingBlock: AZAVOO_clean_sbu_0, # of connection points: 4
#     Node 18, Type 1, BuildingBlock: MIFKUJ_clean_linker_1, # of connection points: 4
#     Node 19, Type 1, BuildingBlock: MIFKUJ_clean_linker_1, # of connection points: 4
#     Node 20, Type 1, BuildingBlock: MIFKUJ_clean_linker_1, # of connection points: 4
#     Node 21, Type 1, BuildingBlock: MIFKUJ_clean_linker_1, # of connection points: 4
#     Node 22, Type 1, BuildingBlock: MIFKUJ_clean_linker_1, # of connection points: 4
#     Node 23, Type 1, BuildingBlock: MIFKUJ_clean_linker_1, # of connection points: 4
#     Node 24, Type 1, BuildingBlock: MIFKUJ_clean_linker_1, # of connection points: 4
#     Node 25, Type 1, BuildingBlock: MIFKUJ_clean_linker_1, # of connection points: 4
#     Node 26, Type 1, BuildingBlock: MIFKUJ_clean_linker_1, # of connection points: 4
#     Node 27, Type 1, BuildingBlock: MIFKUJ_clean_linker_1, # of connection points: 4
#     Node 28, Type 1, BuildingBlock: MIFKUJ_clean_linker_1, # of connection points: 4
#     Node 29, Type 1, BuildingBlock: MIFKUJ_clean_linker_1, # of connection points: 4
#     Node 30, Type 1, BuildingBlock: MIFKUJ_clean_linker_1, # of connection points: 4
#     Node 31, Type 1, BuildingBlock: MIFKUJ_clean_linker_1, # of connection points: 4
#     Node 32, Type 1, BuildingBlock: MIFKUJ_clean_linker_1, # of connection points: 4
#     Node 33, Type 1, BuildingBlock: MIFKUJ_clean_linker_1, # of connection points: 4
#     Node 34, Type 1, BuildingBlock: MIFKUJ_clean_linker_1, # of connection points: 4
#     Node 35, Type 1, BuildingBlock: MIFKUJ_clean_linker_1, # of connection points: 4
#     Edge 36, Type (0, 1), BuildingBlock: FUNLAD_clean_linker_1, # of connection points: 2
#     Edge 37, Type (0, 1), BuildingBlock: FUNLAD_clean_linker_1, # of connection points: 2
#     Edge 38, Type (0, 1), BuildingBlock: FUNLAD_clean_linker_1, # of connection points: 2
#     Edge 39, Type (0, 1), BuildingBlock: FUNLAD_clean_linker_1, # of connection points: 2
#     Edge 40, Type (0, 1), BuildingBlock: FUNLAD_clean_linker_1, # of connection points: 2
#     Edge 41, Type (0, 1), BuildingBlock: FUNLAD_clean_linker_1, # of connection points: 2
#     Edge 42, Type (0, 1), BuildingBlock: FUNLAD_clean_linker_1, # of connection points: 2
#     Edge 43, Type (0, 1), BuildingBlock: FUNLAD_clean_linker_1, # of connection points: 2
#     Edge 44, Type (0, 1), BuildingBlock: FUNLAD_clean_linker_1, # of connection points: 2
#     Edge 45, Type (0, 1), BuildingBlock: FUNLAD_clean_linker_1, # of connection points: 2
#     Edge 46, Type (0, 1), BuildingBlock: FUNLAD_clean_linker_1, # of connection points: 2
#     Edge 47, Type (0, 1), BuildingBlock: FUNLAD_clean_linker_1, # of connection points: 2
#     Edge 48, Type (0, 1), BuildingBlock: FUNLAD_clean_linker_1, # of connection points: 2
#     Edge 49, Type (0, 1), BuildingBlock: FUNLAD_clean_linker_1, # of connection points: 2
#     Edge 50, Type (0, 1), BuildingBlock: FUNLAD_clean_linker_1, # of connection points: 2
#     Edge 51, Type (0, 1), BuildingBlock: FUNLAD_clean_linker_1, # of connection points: 2
#     Edge 52, Type (0, 1), BuildingBlock: FUNLAD_clean_linker_1, # of connection points: 2
#     Edge 53, Type (0, 1), BuildingBlock: FUNLAD_clean_linker_1, # of connection points: 2
#     Edge 54, Type (0, 1), BuildingBlock: FUNLAD_clean_linker_1, # of connection points: 2
#     Edge 55, Type (0, 1), BuildingBlock: FUNLAD_clean_linker_1, # of connection points: 2
#     Edge 56, Type (0, 1), BuildingBlock: FUNLAD_clean_linker_1, # of connection points: 2
#     Edge 57, Type (0, 1), BuildingBlock: FUNLAD_clean_linker_1, # of connection points: 2
#     Edge 58, Type (0, 1), BuildingBlock: FUNLAD_clean_linker_1, # of connection points: 2
#     Edge 59, Type (0, 1), BuildingBlock: FUNLAD_clean_linker_1, # of connection points: 2
#     Edge 60, Type (0, 1), BuildingBlock: FUNLAD_clean_linker_1, # of connection points: 2
#     Edge 61, Type (0, 1), BuildingBlock: FUNLAD_clean_linker_1, # of connection points: 2
#     Edge 62, Type (0, 1), BuildingBlock: FUNLAD_clean_linker_1, # of connection points: 2
#     Edge 63, Type (0, 1), BuildingBlock: FUNLAD_clean_linker_1, # of connection points: 2
#     Edge 64, Type (0, 1), BuildingBlock: FUNLAD_clean_linker_1, # of connection points: 2
#     Edge 65, Type (0, 1), BuildingBlock: FUNLAD_clean_linker_1, # of connection points: 2
#     Edge 66, Type (0, 1), BuildingBlock: FUNLAD_clean_linker_1, # of connection points: 2
#     Edge 67, Type (0, 1), BuildingBlock: FUNLAD_clean_linker_1, # of connection points: 2
#     Edge 68, Type (0, 1), BuildingBlock: FUNLAD_clean_linker_1, # of connection points: 2
#     Edge 69, Type (0, 1), BuildingBlock: FUNLAD_clean_linker_1, # of connection points: 2
#     Edge 70, Type (0, 1), BuildingBlock: FUNLAD_clean_linker_1, # of connection points: 2
#     Edge 71, Type (0, 1), BuildingBlock: FUNLAD_clean_linker_1, # of connection points: 2
#     Edge 72, Type (0, 1), BuildingBlock: FUNLAD_clean_linker_1, # of connection points: 2
#     Edge 73, Type (0, 1), BuildingBlock: FUNLAD_clean_linker_1, # of connection points: 2
#     Edge 74, Type (0, 1), BuildingBlock: FUNLAD_clean_linker_1, # of connection points: 2
#     Edge 75, Type (0, 1), BuildingBlock: FUNLAD_clean_linker_1, # of connection points: 2
#     Edge 76, Type (0, 1), BuildingBlock: FUNLAD_clean_linker_1, # of connection points: 2
#     Edge 77, Type (0, 1), BuildingBlock: FUNLAD_clean_linker_1, # of connection points: 2
#     Edge 78, Type (0, 1), BuildingBlock: FUNLAD_clean_linker_1, # of connection points: 2
#     Edge 79, Type (0, 1), BuildingBlock: FUNLAD_clean_linker_1, # of connection points: 2
#     Edge 80, Type (0, 1), BuildingBlock: FUNLAD_clean_linker_1, # of connection points: 2
#     Edge 81, Type (0, 1), BuildingBlock: FUNLAD_clean_linker_1, # of connection points: 2
#     Edge 82, Type (0, 1), BuildingBlock: FUNLAD_clean_linker_1, # of connection points: 2
#     Edge 83, Type (0, 1), BuildingBlock: FUNLAD_clean_linker_1, # of connection points: 2
#     Edge 84, Type (0, 1), BuildingBlock: FUNLAD_clean_linker_1, # of connection points: 2
#     Edge 85, Type (0, 1), BuildingBlock: FUNLAD_clean_linker_1, # of connection points: 2
#     Edge 86, Type (0, 1), BuildingBlock: FUNLAD_clean_linker_1, # of connection points: 2
#     Edge 87, Type (0, 1), BuildingBlock: FUNLAD_clean_linker_1, # of connection points: 2
#     Edge 88, Type (0, 1), BuildingBlock: FUNLAD_clean_linker_1, # of connection points: 2
#     Edge 89, Type (0, 1), BuildingBlock: FUNLAD_clean_linker_1, # of connection points: 2
#     Edge 90, Type (0, 1), BuildingBlock: FUNLAD_clean_linker_1, # of connection points: 2
#     Edge 91, Type (0, 1), BuildingBlock: FUNLAD_clean_linker_1, # of connection points: 2
#     Edge 92, Type (0, 1), BuildingBlock: FUNLAD_clean_linker_1, # of connection points: 2
#     Edge 93, Type (0, 1), BuildingBlock: FUNLAD_clean_linker_1, # of connection points: 2
#     Edge 94, Type (0, 1), BuildingBlock: FUNLAD_clean_linker_1, # of connection points: 2
#     Edge 95, Type (0, 1), BuildingBlock: FUNLAD_clean_linker_1, # of connection points: 2
#     Edge 96, Type (0, 1), BuildingBlock: FUNLAD_clean_linker_1, # of connection points: 2
#     Edge 97, Type (0, 1), BuildingBlock: FUNLAD_clean_linker_1, # of connection points: 2
#     Edge 98, Type (0, 1), BuildingBlock: FUNLAD_clean_linker_1, # of connection points: 2
#     Edge 99, Type (0, 1), BuildingBlock: FUNLAD_clean_linker_1, # of connection points: 2
#     Edge 100, Type (0, 1), BuildingBlock: FUNLAD_clean_linker_1, # of connection points: 2
#     Edge 101, Type (0, 1), BuildingBlock: FUNLAD_clean_linker_1, # of connection points: 2
#     Edge 102, Type (0, 1), BuildingBlock: FUNLAD_clean_linker_1, # of connection points: 2
#     Edge 103, Type (0, 1), BuildingBlock: FUNLAD_clean_linker_1, # of connection points: 2
#     Edge 104, Type (0, 1), BuildingBlock: FUNLAD_clean_linker_1, # of connection points: 2
#     Edge 105, Type (0, 1), BuildingBlock: FUNLAD_clean_linker_1, # of connection points: 2
#     Edge 106, Type (0, 1), BuildingBlock: FUNLAD_clean_linker_1, # of connection points: 2
#     Edge 107, Type (0, 1), BuildingBlock: FUNLAD_clean_linker_1, # of connection points: 2
# Relax obj value: 0.079
# Max RMSD: 0.277
# Mean RMSD: 0.120
data_MOF--net-ptr--node1-AZAVOO_clean_sbu_0--node2-MIFKUJ_clean_linker_1--edge1-FUNLAD_clean_linker_1
_symmetry_space_group_name_H-M    P1
_symmetry_Int_Tables_number       1
_symmetry_cell_setting            triclinic
loop_
_symmetry_equiv_pos_as_xyz
'x, y, z'
_cell_length_a     93.976789
_cell_length_b     92.404949
_cell_length_c     61.496292
_cell_angle_alpha  91.07377
_cell_angle_beta   90.906801
_cell_angle_gamma 120.04046
loop_
_atom_site_label
_atom_site_type_symbol
_atom_site_fract_x
_atom_site_fract_y
_atom_site_fract_z
_atom_type_partial_charge
Mg0 Mg 0.01881 0.34266 0.99175 0.0
O1 O 0.00716 0.35209 0.01683 0.0
O2 O 0.98893 0.35673 0.99908 0.0
Mg3 Mg 0.98847 0.34974 0.96309 0.0
C4 C 0.99657 0.35689 0.01653 0.0
C5 C 0.03564 0.32527 0.01534 0.0
O6 O 0.03407 0.31892 0.99555 0.0
O7 O 0.9958 0.31677 0.98941 0.0
O8 O 0.97849 0.32193 0.97021 0.0
O9 O 0.03766 0.36912 0.98593 0.0
O10 O 0.01404 0.35525 0.96732 0.0
C11 C 0.98197 0.31182 0.97964 0.0
C12 C 0.02744 0.36915 0.97162 0.0
O13 O 0.03013 0.33508 0.01924 0.0
Mg14 Mg 0.65623 0.65007 0.03588 0.0
O15 O 0.6371 0.64218 0.00769 0.0
O16 O 0.61288 0.63521 0.02214 0.0
Mg17 Mg 0.61655 0.63901 0.05911 0.0
C18 C 0.62172 0.63695 0.00575 0.0
C19 C 0.68835 0.65699 0.01652 0.0
O20 O 0.68716 0.64861 0.03405 0.0
O21 O 0.65743 0.67523 0.04061 0.0
O22 O 0.63332 0.66749 0.05601 0.0
O23 O 0.64976 0.6235 0.03898 0.0
O24 O 0.63785 0.63525 0.05716 0.0
C25 C 0.64722 0.67874 0.04929 0.0
C26 C 0.63868 0.62207 0.05236 0.0
O27 O 0.67712 0.66039 0.01198 0.0
Mg28 Mg 0.33918 0.97454 0.97408 0.0
O29 O 0.36186 0.99143 0.99571 0.0
O30 O 0.38158 0.01005 0.97487 0.0
Mg31 Mg 0.37126 0.00524 0.93981 0.0
C32 C 0.37638 0.00369 0.99333 0.0
C33 C 0.30942 0.96256 0.00427 0.0
O34 O 0.30361 0.96609 0.98684 0.0
O35 O 0.33278 0.99522 0.97124 0.0
O36 O 0.35206 0.01258 0.94885 0.0
O37 O 0.34985 0.95797 0.96783 0.0
O38 O 0.35392 0.97913 0.94742 0.0
C39 C 0.33926 0.00836 0.96 0.0
C40 C 0.35727 0.96762 0.95185 0.0
O41 O 0.32385 0.96467 0.00429 0.0
Mg42 Mg 0.98646 0.66028 0.03846 0.0
O43 O 0.99462 0.64881 0.01121 0.0
O44 O 0.01342 0.64361 0.02614 0.0
Mg45 Mg 0.01678 0.6509 0.06241 0.0
C46 C 0.00472 0.64341 0.00984 0.0
C47 C 0.96211 0.65969 0.0021 0.0
O48 O 0.95596 0.64347 0.00349 0.0
O49 O 0.01077 0.68502 0.03778 0.0
O50 O 0.02797 0.67884 0.05539 0.0
O51 O 0.96661 0.63461 0.04667 0.0
O52 O 0.99171 0.64707 0.06138 0.0
C53 C 0.02485 0.68932 0.04632 0.0
C54 C 0.97745 0.63382 0.05906 0.0
O55 O 0.97467 0.66963 0.01375 0.0
Mg56 Mg 0.35303 0.34484 0.98272 0.0
O57 O 0.37481 0.35522 0.00738 0.0
O58 O 0.39735 0.36105 0.98903 0.0
Mg59 Mg 0.39014 0.35477 0.95298 0.0
C60 C 0.39024 0.3606 0.00671 0.0
C61 C 0.32387 0.33945 0.01 0.0
O62 O 0.32346 0.34869 0.99428 0.0
O63 O 0.35235 0.31994 0.97941 0.0
O64 O 0.37468 0.32675 0.95997 0.0
O65 O 0.35822 0.37081 0.97707 0.0
O66 O 0.3688 0.35802 0.95816 0.0
C67 C 0.36179 0.316 0.96942 0.0
C68 C 0.36805 0.37131 0.96219 0.0
O69 O 0.335 0.33549 0.01027 0.0
Mg70 Mg 0.6625 0.01278 0.03876 0.0
O71 O 0.64282 0.00132 0.01119 0.0
O72 O 0.61884 0.98368 0.02598 0.0
Mg73 Mg 0.62332 0.98311 0.06248 0.0
C74 C 0.62737 0.991 0.00957 0.0
C75 C 0.69282 0.03898 0.01568 0.0
O76 O 0.69149 0.04772 0.03178 0.0
O77 O 0.66377 0.98888 0.0411 0.0
O78 O 0.63989 0.97175 0.05655 0.0
O79 O 0.65587 0.03258 0.04413 0.0
O80 O 0.64456 0.00861 0.06115 0.0
C81 C 0.65367 0.97481 0.04901 0.0
C82 C 0.64499 0.02247 0.05731 0.0
O83 O 0.68253 0.02343 0.01371 0.0
Mg84 Mg 0.67967 0.67518 0.31844 0.0
O85 O 0.67259 0.68641 0.34734 0.0
O86 O 0.65356 0.69224 0.33489 0.0
Mg87 Mg 0.64771 0.68406 0.29911 0.0
C88 C 0.66292 0.69222 0.35016 0.0
C89 C 0.69752 0.65661 0.33456 0.0
O90 O 0.69238 0.64978 0.31503 0.0
O91 O 0.65584 0.64995 0.32039 0.0
O92 O 0.63741 0.65653 0.30756 0.0
O93 O 0.69824 0.7011 0.30883 0.0
O94 O 0.6724 0.68741 0.2967 0.0
C95 C 0.64112 0.64594 0.31477 0.0
C96 C 0.6864 0.70097 0.29761 0.0
O97 O 0.69386 0.66736 0.34146 0.0
Mg98 Mg 0.32759 0.98913 0.37714 0.0
O99 O 0.30784 0.98057 0.34992 0.0
O100 O 0.28508 0.97827 0.36412 0.0
Mg101 Mg 0.29032 0.98528 0.40054 0.0
C102 C 0.29293 0.97711 0.34804 0.0
C103 C 0.35648 0.98896 0.35508 0.0
O104 O 0.35505 0.98065 0.37277 0.0
O105 O 0.33201 0.01574 0.3771 0.0
O106 O 0.30971 0.01258 0.39389 0.0
O107 O 0.31832 0.96246 0.38509 0.0
O108 O 0.30954 0.97836 0.40025 0.0
C109 C 0.32368 0.02179 0.38544 0.0
C110 C 0.30834 0.96393 0.39801 0.0
O111 O 0.3469 0.99473 0.35181 0.0
Mg112 Mg 0.0161 0.32245 0.31695 0.0
O113 O 0.03755 0.33457 0.34208 0.0
O114 O 0.06082 0.34953 0.32427 0.0
Mg115 Mg 0.05418 0.3475 0.28798 0.0
C116 C 0.05315 0.34403 0.34185 0.0
C117 C 0.98379 0.31308 0.34092 0.0
O118 O 0.97985 0.31625 0.3217 0.0
O119 O 0.01686 0.34725 0.31244 0.0
O120 O 0.03992 0.36141 0.29379 0.0
O121 O 0.02014 0.30073 0.31278 0.0
O122 O 0.03182 0.32335 0.29299 0.0
C123 C 0.02715 0.36023 0.3025 0.0
C124 C 0.03028 0.30915 0.2978 0.0
O125 O 0.99802 0.31506 0.3443 0.0
Mg126 Mg 0.65317 0.98557 0.35675 0.0
O127 O 0.66603 0.97749 0.33178 0.0
O128 O 0.68397 0.97271 0.35007 0.0
Mg129 Mg 0.68286 0.97806 0.38638 0.0
C130 C 0.6769 0.97306 0.33233 0.0
C131 C 0.62726 0.98888 0.3295 0.0
O132 O 0.61839 0.97866 0.34467 0.0
O133 O 0.67592 0.01149 0.36105 0.0
O134 O 0.69281 0.00615 0.38097 0.0
O135 O 0.63443 0.95871 0.36085 0.0
O136 O 0.65738 0.97242 0.38083 0.0
C137 C 0.68942 0.01637 0.37168 0.0
C138 C 0.64421 0.95854 0.37574 0.0
O139 O 0.64263 0.99426 0.32954 0.0
Mg140 Mg 0.01045 0.68493 0.32343 0.0
O141 O 0.03333 0.69437 0.34618 0.0
O142 O 0.05458 0.70048 0.32478 0.0
Mg143 Mg 0.04571 0.69562 0.28917 0.0
C144 C 0.0486 0.69961 0.34352 0.0
C145 C 0.98006 0.66056 0.3497 0.0
O146 O 0.97748 0.65139 0.33193 0.0
O147 O 0.00963 0.66009 0.31714 0.0
O148 O 0.0302 0.66728 0.29421 0.0
O149 O 0.01566 0.71115 0.32109 0.0
O150 O 0.02529 0.69932 0.29864 0.0
C151 C 0.01803 0.65629 0.30462 0.0
C152 C 0.02504 0.71252 0.30517 0.0
O153 O 0.99309 0.67476 0.35179 0.0
Mg154 Mg 0.32799 0.35693 0.37822 0.0
O155 O 0.30725 0.34214 0.35266 0.0
O156 O 0.28432 0.32562 0.37043 0.0
Mg157 Mg 0.29036 0.32971 0.40691 0.0
C158 C 0.29194 0.33125 0.35284 0.0
C159 C 0.36188 0.37015 0.35855 0.0
O160 O 0.36521 0.37055 0.37944 0.0
O161 O 0.33011 0.33398 0.38541 0.0
O162 O 0.30712 0.31839 0.40359 0.0
O163 O 0.32077 0.37659 0.37927 0.0
O164 O 0.31091 0.35487 0.40069 0.0
C165 C 0.32063 0.32088 0.39575 0.0
C166 C 0.31065 0.36788 0.39412 0.0
O167 O 0.34712 0.36481 0.35212 0.0
Mg168 Mg 0.35903 0.01676 0.64971 0.0
O169 O 0.34727 0.02456 0.67674 0.0
O170 O 0.32843 0.02921 0.66076 0.0
Mg171 Mg 0.32735 0.02353 0.62426 0.0
C172 C 0.33639 0.02896 0.67764 0.0
C173 C 0.37745 0.99968 0.66848 0.0
O174 O 0.37492 0.99436 0.64808 0.0
O175 O 0.33646 0.99049 0.64673 0.0
O176 O 0.31827 0.9957 0.62993 0.0
O177 O 0.37698 0.04375 0.64484 0.0
O178 O 0.3531 0.02959 0.62695 0.0
C179 C 0.32228 0.98553 0.63796 0.0
C180 C 0.36625 0.04366 0.63133 0.0
O181 O 0.3718 0.0089 0.67503 0.0
Mg182 Mg 0.98498 0.3187 0.7069 0.0
O183 O 0.9673 0.30959 0.67692 0.0
O184 O 0.94206 0.30172 0.68848 0.0
Mg185 Mg 0.94363 0.30681 0.72519 0.0
C186 C 0.95191 0.30357 0.67333 0.0
C187 C 0.01739 0.32411 0.68903 0.0
O188 O 0.01493 0.31434 0.70546 0.0
O189 O 0.98498 0.34338 0.70814 0.0
O190 O 0.95983 0.33515 0.72054 0.0
O191 O 0.97904 0.29248 0.71373 0.0
O192 O 0.96568 0.30449 0.72712 0.0
C193 C 0.97391 0.34655 0.71451 0.0
C194 C 0.96722 0.29149 0.72532 0.0
O195 O 0.00703 0.32879 0.68484 0.0
Mg196 Mg 0.67016 0.64417 0.65607 0.0
O197 O 0.69126 0.66104 0.67997 0.0
O198 O 0.71382 0.67676 0.6611 0.0
Mg199 Mg 0.70645 0.67128 0.6249 0.0
C200 C 0.70648 0.67194 0.67907 0.0
C201 C 0.6384 0.63578 0.68077 0.0
O202 O 0.63466 0.6396 0.66186 0.0
O203 O 0.66663 0.66603 0.64778 0.0
O204 O 0.68862 0.68147 0.62781 0.0
O205 O 0.67876 0.62553 0.65587 0.0
O206 O 0.68676 0.64613 0.63286 0.0
C207 C 0.67517 0.6787 0.63626 0.0
C208 C 0.68802 0.63383 0.64008 0.0
O209 O 0.6522 0.63662 0.68362 0.0
Mg210 Mg 0.31464 0.32242 0.70767 0.0
O211 O 0.32638 0.31465 0.68044 0.0
O212 O 0.34348 0.30779 0.697 0.0
Mg213 Mg 0.34321 0.31146 0.73379 0.0
C214 C 0.33662 0.30938 0.67982 0.0
C215 C 0.28861 0.32788 0.68612 0.0
O216 O 0.28119 0.31765 0.70195 0.0
O217 O 0.33828 0.34776 0.71323 0.0
O218 O 0.35407 0.33984 0.73109 0.0
O219 O 0.29497 0.29563 0.7099 0.0
O220 O 0.31821 0.30724 0.72935 0.0
C221 C 0.3516 0.35118 0.72348 0.0
C222 C 0.30465 0.294 0.72353 0.0
O223 O 0.30375 0.33297 0.68322 0.0
Mg224 Mg 0.68175 0.01474 0.6416 0.0
O225 O 0.70031 0.02463 0.67054 0.0
O226 O 0.72407 0.02761 0.65909 0.0
Mg227 Mg 0.72088 0.01994 0.62299 0.0
C228 C 0.71528 0.02863 0.674 0.0
C229 C 0.64616 0.99863 0.65828 0.0
O230 O 0.64325 0.99163 0.63872 0.0
O231 O 0.67857 0.98871 0.64399 0.0
O232 O 0.70234 0.99268 0.63089 0.0
O233 O 0.69023 0.04087 0.63151 0.0
O234 O 0.7008 0.02552 0.61997 0.0
C235 C 0.68805 0.98321 0.63825 0.0
C236 C 0.7011 0.03958 0.62023 0.0
O237 O 0.66091 0.00862 0.66465 0.0
Mg238 Mg 0.99566 0.68449 0.70542 0.0
O239 O 0.97555 0.67342 0.67856 0.0
O240 O 0.95162 0.65703 0.69435 0.0
Mg241 Mg 0.95637 0.6583 0.73118 0.0
C242 C 0.96003 0.66349 0.67749 0.0
C243 C 0.02804 0.69114 0.68409 0.0
O244 O 0.02922 0.6846 0.70232 0.0
O245 O 0.99437 0.6594 0.70891 0.0
O246 O 0.97129 0.6449 0.72734 0.0
O247 O 0.9915 0.70613 0.70924 0.0
O248 O 0.97858 0.68287 0.72767 0.0
C249 C 0.98426 0.64637 0.71883 0.0
C250 C 0.98026 0.69713 0.72277 0.0
O251 O 0.01544 0.6925 0.68024 0.0
H252 H 0.16115 0.33577 0.19592 0.0
H253 H 0.13866 0.33441 0.21684 0.0
H254 H 0.10565 0.28549 0.18789 0.0
H255 H 0.12828 0.2868 0.16749 0.0
H256 H 0.17486 0.3169 0.19752 0.0
H257 H 0.14806 0.33173 0.14428 0.0
H258 H 0.12614 0.33027 0.12123 0.0
H259 H 0.11848 0.28402 0.09152 0.0
H260 H 0.14066 0.28565 0.11485 0.0
H261 H 0.18968 0.2918 0.11927 0.0
H262 H 0.21318 0.29642 0.09788 0.0
H263 H 0.24133 0.34664 0.12554 0.0
H264 H 0.21762 0.34199 0.14657 0.0
H265 H 0.17289 0.30928 0.11727 0.0
H266 H 0.20271 0.29736 0.17403 0.0
H267 H 0.22572 0.3028 0.19866 0.0
H268 H 0.22928 0.3493 0.22031 0.0
H269 H 0.20634 0.3438 0.19561 0.0
C270 C 0.14639 0.31138 0.18019 0.0
C271 C 0.14908 0.32471 0.19422 0.0
C272 C 0.13622 0.32393 0.2061 0.0
C273 C 0.12045 0.30976 0.20441 0.0
C274 C 0.11769 0.29645 0.19012 0.0
C275 C 0.1306 0.29726 0.17818 0.0
C276 C 0.16028 0.31221 0.1681 0.0
C277 C 0.17445 0.31533 0.17995 0.0
C278 C 0.15967 0.31001 0.1452 0.0
C279 C 0.14583 0.30864 0.13159 0.0
C280 C 0.14144 0.32108 0.13313 0.0
C281 C 0.12876 0.32016 0.11992 0.0
C282 C 0.12018 0.30673 0.1048 0.0
C283 C 0.12472 0.29439 0.10318 0.0
C284 C 0.13741 0.29532 0.11644 0.0
C285 C 0.20199 0.31645 0.13474 0.0
C286 C 0.20099 0.30372 0.12089 0.0
C287 C 0.21454 0.30635 0.10884 0.0
C288 C 0.2293 0.32184 0.11041 0.0
C289 C 0.23019 0.33454 0.12423 0.0
C290 C 0.21669 0.33188 0.13632 0.0
C291 C 0.18745 0.31398 0.14675 0.0
C292 C 0.17315 0.31056 0.13486 0.0
C293 C 0.18809 0.3164 0.16957 0.0
C294 C 0.20277 0.32013 0.18313 0.0
C295 C 0.20855 0.30878 0.18398 0.0
C296 C 0.2216 0.31184 0.19822 0.0
C297 C 0.22907 0.32636 0.21178 0.0
C298 C 0.22368 0.33799 0.21015 0.0
C299 C 0.21056 0.33484 0.19614 0.0
H300 H 0.73094 0.89175 0.20526 0.0
H301 H 0.72968 0.91177 0.23062 0.0
H302 H 0.68194 0.89874 0.20322 0.0
H303 H 0.68325 0.87878 0.17818 0.0
H304 H 0.71161 0.85934 0.20429 0.0
H305 H 0.72562 0.9019 0.15189 0.0
H306 H 0.72307 0.92259 0.13038 0.0
H307 H 0.67611 0.88357 0.1042 0.0
H308 H 0.67851 0.86321 0.12612 0.0
H309 H 0.67714 0.82034 0.12811 0.0
H310 H 0.6724 0.79532 0.10821 0.0
H311 H 0.72063 0.80487 0.12891 0.0
H312 H 0.72522 0.83004 0.14904 0.0
H313 H 0.69958 0.85281 0.12479 0.0
H314 H 0.68447 0.81087 0.1785 0.0
H315 H 0.68625 0.78984 0.19959 0.0
H316 H 0.73478 0.82713 0.22358 0.0
H317 H 0.7331 0.84807 0.2016 0.0
C318 C 0.70728 0.88386 0.18961 0.0
C319 C 0.72033 0.89343 0.20449 0.0
C320 C 0.71961 0.90488 0.21895 0.0
C321 C 0.70587 0.9071 0.21882 0.0
C322 C 0.69296 0.8978 0.20352 0.0
C323 C 0.69367 0.88629 0.18911 0.0
C324 C 0.70719 0.87026 0.17616 0.0
C325 C 0.70933 0.85813 0.18682 0.0
C326 C 0.70376 0.86837 0.15346 0.0
C327 C 0.70213 0.88105 0.14089 0.0
C328 C 0.71466 0.89789 0.14179 0.0
C329 C 0.71325 0.90966 0.12938 0.0
C330 C 0.69927 0.90485 0.11595 0.0
C331 C 0.68683 0.88791 0.11485 0.0
C332 C 0.68827 0.87616 0.12722 0.0
C333 C 0.70149 0.82704 0.14015 0.0
C334 C 0.68679 0.81718 0.12812 0.0
C335 C 0.68416 0.80284 0.11655 0.0
C336 C 0.69631 0.79816 0.11656 0.0
C337 C 0.71109 0.80819 0.12846 0.0
C338 C 0.71371 0.82253 0.14005 0.0
C339 C 0.70383 0.8419 0.15298 0.0
C340 C 0.70208 0.8542 0.14222 0.0
C341 C 0.70756 0.84392 0.1756 0.0
C342 C 0.7087 0.83102 0.18831 0.0
C343 C 0.69555 0.81449 0.18816 0.0
C344 C 0.69651 0.80249 0.2006 0.0
C345 C 0.71058 0.80688 0.2138 0.0
C346 C 0.72375 0.82341 0.21374 0.0
C347 C 0.7228 0.83538 0.20123 0.0
H348 H 0.12673 0.8482 0.20303 0.0
H349 H 0.10541 0.82526 0.22308 0.0
H350 H 0.12012 0.79158 0.19529 0.0
H351 H 0.14149 0.81464 0.17535 0.0
H352 H 0.15947 0.86225 0.20412 0.0
H353 H 0.1162 0.83277 0.15233 0.0
H354 H 0.09495 0.80772 0.13279 0.0
H355 H 0.13252 0.80165 0.10152 0.0
H356 H 0.15375 0.8262 0.12184 0.0
H357 H 0.19597 0.86548 0.13007 0.0
H358 H 0.2185 0.88438 0.10789 0.0
H359 H 0.21113 0.92515 0.12828 0.0
H360 H 0.18803 0.90578 0.15021 0.0
H361 H 0.16437 0.85714 0.12455 0.0
H362 H 0.20652 0.88314 0.18248 0.0
H363 H 0.22659 0.90479 0.20763 0.0
H364 H 0.19004 0.91754 0.2267 0.0
H365 H 0.1701 0.89603 0.20115 0.0
C366 C 0.1356 0.83311 0.18756 0.0
C367 C 0.12545 0.8359 0.20144 0.0
C368 C 0.11331 0.82274 0.21302 0.0
C369 C 0.11124 0.80658 0.21103 0.0
C370 C 0.12147 0.80389 0.19717 0.0
C371 C 0.13362 0.81704 0.18571 0.0
C372 C 0.1484 0.84698 0.1751 0.0
C373 C 0.16039 0.86128 0.18664 0.0
C374 C 0.14957 0.84562 0.15229 0.0
C375 C 0.13664 0.83127 0.13892 0.0
C376 C 0.11991 0.82603 0.14137 0.0
C377 C 0.10777 0.8118 0.13008 0.0
C378 C 0.11208 0.80288 0.11548 0.0
C379 C 0.12881 0.80847 0.11232 0.0
C380 C 0.14097 0.8225 0.124 0.0
C381 C 0.19038 0.88423 0.14191 0.0
C382 C 0.19932 0.87854 0.13 0.0
C383 C 0.21242 0.8895 0.1175 0.0
C384 C 0.21694 0.90648 0.11671 0.0
C385 C 0.20805 0.91219 0.12881 0.0
C386 C 0.19491 0.90118 0.14138 0.0
C387 C 0.17578 0.87206 0.15375 0.0
C388 C 0.16334 0.85815 0.14199 0.0
C389 C 0.17411 0.87383 0.1763 0.0
C390 C 0.18682 0.88798 0.18993 0.0
C391 C 0.20291 0.89076 0.19186 0.0
C392 C 0.21431 0.90302 0.20652 0.0
C393 C 0.20976 0.91262 0.21963 0.0
C394 C 0.19385 0.91025 0.21696 0.0
C395 C 0.18245 0.89796 0.2024 0.0
H396 H 0.2823 0.15525 0.8095 0.0
H397 H 0.28278 0.17865 0.79096 0.0
H398 H 0.32925 0.21268 0.82339 0.0
H399 H 0.32883 0.1892 0.84157 0.0
H400 H 0.30297 0.14278 0.80895 0.0
H401 H 0.28523 0.16841 0.86472 0.0
H402 H 0.28853 0.19217 0.88714 0.0
H403 H 0.33518 0.19981 0.91222 0.0
H404 H 0.33167 0.17624 0.89016 0.0
H405 H 0.33303 0.13632 0.8862 0.0
H406 H 0.33691 0.11593 0.90626 0.0
H407 H 0.29081 0.07616 0.87895 0.0
H408 H 0.2869 0.09669 0.85918 0.0
H409 H 0.30921 0.144 0.8893 0.0
H410 H 0.33015 0.12254 0.83572 0.0
H411 H 0.33227 0.10248 0.81214 0.0
H412 H 0.28567 0.0896 0.78078 0.0
H413 H 0.2834 0.10945 0.80532 0.0
C414 C 0.3054 0.17048 0.82717 0.0
C415 C 0.29266 0.16774 0.81244 0.0
C416 C 0.29302 0.18115 0.80173 0.0
C417 C 0.30621 0.19755 0.80553 0.0
C418 C 0.31896 0.2002 0.82016 0.0
C419 C 0.31867 0.1868 0.83066 0.0
C420 C 0.30495 0.15632 0.83881 0.0
C421 C 0.30396 0.14284 0.82655 0.0
C422 C 0.30677 0.15666 0.86174 0.0
C423 C 0.30823 0.17059 0.87575 0.0
C424 C 0.29608 0.17519 0.87521 0.0
C425 C 0.29795 0.18869 0.88811 0.0
C426 C 0.31191 0.19778 0.90186 0.0
C427 C 0.32398 0.19299 0.90246 0.0
C428 C 0.32208 0.17949 0.88965 0.0
C429 C 0.30968 0.118 0.87123 0.0
C430 C 0.32369 0.12321 0.88469 0.0
C431 C 0.3259 0.11157 0.89612 0.0
C432 C 0.31405 0.09452 0.89459 0.0
C433 C 0.29999 0.08926 0.88103 0.0
C434 C 0.29782 0.10094 0.86946 0.0
C435 C 0.3075 0.13062 0.85946 0.0
C436 C 0.30787 0.14375 0.87171 0.0
C437 C 0.30556 0.13013 0.83654 0.0
C438 C 0.30652 0.1174 0.82251 0.0
C439 C 0.32024 0.1152 0.82402 0.0
C440 C 0.32152 0.10376 0.81017 0.0
C441 C 0.30919 0.09446 0.79413 0.0
C442 C 0.29539 0.09658 0.79287 0.0
C443 C 0.29409 0.10795 0.80684 0.0
H444 H 0.83657 0.10302 0.82569 0.0
H445 H 0.81729 0.08388 0.79752 0.0
H446 H 0.78277 0.10001 0.81435 0.0
H447 H 0.802 0.11896 0.84225 0.0
H448 H 0.85051 0.13616 0.82582 0.0
H449 H 0.81685 0.09335 0.87503 0.0
H450 H 0.79168 0.07316 0.89278 0.0
H451 H 0.78309 0.1133 0.91215 0.0
H452 H 0.80813 0.13327 0.89458 0.0
H453 H 0.84926 0.17532 0.89757 0.0
H454 H 0.86823 0.20104 0.91804 0.0
H455 H 0.90779 0.1909 0.90717 0.0
H456 H 0.88872 0.16515 0.887 0.0
H457 H 0.83895 0.14261 0.90269 0.0
H458 H 0.86777 0.18387 0.85025 0.0
H459 H 0.89035 0.20508 0.8299 0.0
H460 H 0.90595 0.16956 0.81348 0.0
H461 H 0.88345 0.14839 0.83459 0.0
C462 C 0.82066 0.11228 0.83628 0.0
C463 C 0.8247 0.10217 0.82354 0.0
C464 C 0.81368 0.09124 0.80746 0.0
C465 C 0.79838 0.09017 0.80377 0.0
C466 C 0.79419 0.10005 0.81693 0.0
C467 C 0.80524 0.11099 0.83299 0.0
C468 C 0.83316 0.12538 0.85138 0.0
C469 C 0.84816 0.1373 0.84281 0.0
C470 C 0.82984 0.12722 0.87331 0.0
C471 C 0.81443 0.11484 0.88357 0.0
C472 C 0.8095 0.09776 0.88305 0.0
C473 C 0.79516 0.08625 0.89324 0.0
C474 C 0.78563 0.09164 0.90438 0.0
C475 C 0.79041 0.10872 0.90446 0.0
C476 C 0.80471 0.12019 0.89426 0.0
C477 C 0.86757 0.16833 0.89071 0.0
C478 C 0.86196 0.17849 0.89994 0.0
C479 C 0.87281 0.1932 0.91158 0.0
C480 C 0.88944 0.19792 0.91456 0.0
C481 C 0.89499 0.18751 0.90571 0.0
C482 C 0.88413 0.17284 0.89393 0.0
C483 C 0.85619 0.1534 0.87703 0.0
C484 C 0.84143 0.1412 0.88585 0.0
C485 C 0.85957 0.15141 0.85519 0.0
C486 C 0.87399 0.16458 0.84405 0.0
C487 C 0.87617 0.18069 0.84252 0.0
C488 C 0.88895 0.19275 0.83051 0.0
C489 C 0.89966 0.18881 0.8195 0.0
C490 C 0.89776 0.17284 0.82161 0.0
C491 C 0.88494 0.16077 0.83362 0.0
H492 H 0.7961 0.67181 0.84388 0.0
H493 H 0.77497 0.66792 0.81686 0.0
H494 H 0.80423 0.71969 0.79982 0.0
H495 H 0.8255 0.72343 0.82665 0.0
H496 H 0.84131 0.70428 0.82355 0.0
H497 H 0.80379 0.67036 0.89907 0.0
H498 H 0.77988 0.66706 0.9181 0.0
H499 H 0.78823 0.71421 0.89383 0.0
H500 H 0.81229 0.71747 0.87478 0.0
H501 H 0.8681 0.70898 0.91133 0.0
H502 H 0.88541 0.70046 0.93091 0.0
H503 H 0.87294 0.66118 0.88237 0.0
H504 H 0.85548 0.66968 0.86302 0.0
H505 H 0.83488 0.69094 0.90179 0.0
H506 H 0.88489 0.71722 0.86294 0.0
H507 H 0.9078 0.71877 0.84257 0.0
H508 H 0.87374 0.68704 0.79153 0.0
H509 H 0.85086 0.68483 0.81223 0.0
C510 C 0.81226 0.69794 0.83738 0.0
C511 C 0.79778 0.68242 0.8347 0.0
C512 C 0.78577 0.6802 0.81923 0.0
C513 C 0.78788 0.69352 0.80647 0.0
C514 C 0.8021 0.70928 0.80975 0.0
C515 C 0.81429 0.71142 0.82498 0.0
C516 C 0.82596 0.69928 0.85114 0.0
C517 C 0.84004 0.70153 0.84072 0.0
C518 C 0.82428 0.69596 0.87358 0.0
C519 C 0.80988 0.69416 0.88549 0.0
C520 C 0.80062 0.68011 0.89807 0.0
C521 C 0.78695 0.6783 0.90909 0.0
C522 C 0.78234 0.69061 0.90788 0.0
C523 C 0.79155 0.70459 0.89515 0.0
C524 C 0.80525 0.70643 0.8842 0.0
C525 C 0.86069 0.69013 0.88556 0.0
C526 C 0.86921 0.69862 0.90485 0.0
C527 C 0.87926 0.69382 0.9159 0.0
C528 C 0.88086 0.68033 0.90788 0.0
C529 C 0.8721 0.67173 0.88877 0.0
C530 C 0.86216 0.67659 0.87768 0.0
C531 C 0.84987 0.69502 0.87388 0.0
C532 C 0.83634 0.69397 0.88472 0.0
C533 C 0.85198 0.69929 0.85169 0.0
C534 C 0.86608 0.7008 0.83924 0.0
C535 C 0.88231 0.71046 0.84747 0.0
C536 C 0.8954 0.71147 0.83577 0.0
C537 C 0.89255 0.70333 0.81535 0.0
C538 C 0.87635 0.69384 0.80697 0.0
C539 C 0.86325 0.69253 0.81885 0.0
H540 H 0.81826 0.66232 0.53782 0.0
H541 H 0.79506 0.65807 0.55948 0.0
H542 H 0.76175 0.61874 0.51441 0.0
H543 H 0.78516 0.62264 0.493 0.0
H544 H 0.82966 0.64301 0.53101 0.0
H545 H 0.80946 0.66977 0.48493 0.0
H546 H 0.78849 0.67242 0.4643 0.0
H547 H 0.78015 0.6305 0.4226 0.0
H548 H 0.80113 0.62806 0.44325 0.0
H549 H 0.84764 0.62941 0.4471 0.0
H550 H 0.87207 0.63386 0.42826 0.0
H551 H 0.9021 0.67731 0.46998 0.0
H552 H 0.87745 0.673 0.48833 0.0
H553 H 0.83402 0.64956 0.45114 0.0
H554 H 0.85666 0.62486 0.5023 0.0
H555 H 0.87629 0.62392 0.52831 0.0
H556 H 0.88085 0.66737 0.56264 0.0
H557 H 0.8616 0.66831 0.53668 0.0
C558 C 0.8035 0.64281 0.51375 0.0
C559 C 0.80599 0.65268 0.53264 0.0
C560 C 0.79273 0.65016 0.5451 0.0
C561 C 0.77666 0.63776 0.53886 0.0
C562 C 0.77406 0.62825 0.51962 0.0
C563 C 0.7874 0.63058 0.50731 0.0
C564 C 0.8179 0.64481 0.50166 0.0
C565 C 0.83066 0.64466 0.51356 0.0
C566 C 0.81913 0.64671 0.47885 0.0
C567 C 0.80679 0.64863 0.46574 0.0
C568 C 0.8031 0.66117 0.47131 0.0
C569 C 0.79113 0.66269 0.45947 0.0
C570 C 0.78266 0.65185 0.44162 0.0
C571 C 0.7865 0.63936 0.43591 0.0
C572 C 0.79852 0.63786 0.44779 0.0
C573 C 0.86074 0.65069 0.46934 0.0
C574 C 0.85951 0.63985 0.45222 0.0
C575 C 0.87359 0.64232 0.44164 0.0
C576 C 0.8892 0.65575 0.44803 0.0
C577 C 0.8903 0.66674 0.46492 0.0
C578 C 0.87624 0.66425 0.47547 0.0
C579 C 0.84583 0.648 0.48066 0.0
C580 C 0.83293 0.64789 0.46857 0.0
C581 C 0.84467 0.64646 0.50347 0.0
C582 C 0.85778 0.64673 0.5175 0.0
C583 C 0.86222 0.63438 0.51517 0.0
C584 C 0.87337 0.63382 0.53005 0.0
C585 C 0.8804 0.64572 0.54728 0.0
C586 C 0.87615 0.65829 0.54924 0.0
C587 C 0.86497 0.65875 0.53451 0.0
H588 H 0.3855 0.22547 0.55063 0.0
H589 H 0.38455 0.24584 0.57573 0.0
H590 H 0.33992 0.23763 0.543 0.0
H591 H 0.34062 0.21696 0.51878 0.0
H592 H 0.36451 0.19287 0.54562 0.0
H593 H 0.38514 0.23967 0.49753 0.0
H594 H 0.38497 0.26259 0.47832 0.0
H595 H 0.33758 0.22731 0.44883 0.0
H596 H 0.33804 0.20478 0.46766 0.0
H597 H 0.33385 0.16099 0.46433 0.0
H598 H 0.32835 0.13647 0.44203 0.0
H599 H 0.37336 0.14026 0.46728 0.0
H600 H 0.37893 0.16496 0.48899 0.0
H601 H 0.35847 0.19287 0.46534 0.0
H602 H 0.33589 0.14714 0.51442 0.0
H603 H 0.33471 0.12294 0.53167 0.0
H604 H 0.38375 0.15478 0.55901 0.0
H605 H 0.38474 0.17879 0.54181 0.0
C606 C 0.36318 0.21972 0.53272 0.0
C607 C 0.3755 0.22807 0.54893 0.0
C608 C 0.37496 0.23974 0.56322 0.0
C609 C 0.36202 0.24319 0.56179 0.0
C610 C 0.34988 0.23509 0.54517 0.0
C611 C 0.3504 0.22338 0.53095 0.0
C612 C 0.36319 0.20657 0.51838 0.0
C613 C 0.36352 0.19307 0.52804 0.0
C614 C 0.36155 0.20655 0.49545 0.0
C615 C 0.36159 0.22054 0.48401 0.0
C616 C 0.37477 0.23696 0.48683 0.0
C617 C 0.3747 0.25 0.47576 0.0
C618 C 0.36151 0.24687 0.46159 0.0
C619 C 0.34828 0.23035 0.45893 0.0
C620 C 0.34841 0.21735 0.4699 0.0
C621 C 0.35676 0.16476 0.47841 0.0
C622 C 0.34265 0.15668 0.46477 0.0
C623 C 0.33951 0.14265 0.45208 0.0
C624 C 0.35046 0.13649 0.45254 0.0
C625 C 0.36477 0.14478 0.46598 0.0
C626 C 0.36791 0.15884 0.47869 0.0
C627 C 0.35949 0.17915 0.49259 0.0
C628 C 0.35971 0.19285 0.48291 0.0
C629 C 0.36146 0.17926 0.51547 0.0
C630 C 0.36045 0.16473 0.52672 0.0
C631 C 0.34635 0.14887 0.5242 0.0
C632 C 0.34568 0.13507 0.53411 0.0
C633 C 0.35897 0.13686 0.54699 0.0
C634 C 0.37305 0.15285 0.5497 0.0
C635 C 0.37371 0.16666 0.53975 0.0
H636 H 0.79181 0.18232 0.51392 0.0
H637 H 0.7699 0.16101 0.53554 0.0
H638 H 0.78445 0.12531 0.51542 0.0
H639 H 0.80646 0.14671 0.49446 0.0
H640 H 0.82541 0.19416 0.51984 0.0
H641 H 0.78318 0.1645 0.46274 0.0
H642 H 0.76347 0.13853 0.44385 0.0
H643 H 0.80322 0.13078 0.4242 0.0
H644 H 0.82285 0.15665 0.44377 0.0
H645 H 0.86334 0.19992 0.44345 0.0
H646 H 0.88557 0.22109 0.42262 0.0
H647 H 0.87604 0.25886 0.44961 0.0
H648 H 0.8534 0.23739 0.47003 0.0
H649 H 0.83174 0.18893 0.44063 0.0
H650 H 0.86947 0.20637 0.5019 0.0
H651 H 0.89039 0.22403 0.52965 0.0
H652 H 0.8635 0.24962 0.54315 0.0
H653 H 0.84233 0.23154 0.51584 0.0
C654 C 0.8007 0.16606 0.50256 0.0
C655 C 0.79025 0.16989 0.51425 0.0
C656 C 0.77776 0.15773 0.52654 0.0
C657 C 0.77568 0.14163 0.52765 0.0
C658 C 0.78598 0.13772 0.51555 0.0
C659 C 0.79845 0.14988 0.50324 0.0
C660 C 0.81447 0.17923 0.49051 0.0
C661 C 0.82657 0.19323 0.5024 0.0
C662 C 0.81645 0.17748 0.46801 0.0
C663 C 0.80449 0.16248 0.45484 0.0
C664 C 0.78765 0.15725 0.45425 0.0
C665 C 0.77637 0.1424 0.44315 0.0
C666 C 0.78177 0.13256 0.43217 0.0
C667 C 0.79868 0.13809 0.43238 0.0
C668 C 0.80993 0.15291 0.44349 0.0
C669 C 0.85682 0.21708 0.4585 0.0
C670 C 0.86614 0.21278 0.44505 0.0
C671 C 0.87903 0.22501 0.43333 0.0
C672 C 0.88286 0.24182 0.43487 0.0
C673 C 0.87349 0.24606 0.44833 0.0
C674 C 0.86063 0.23383 0.46009 0.0
C675 C 0.84257 0.20397 0.46996 0.0
C676 C 0.83039 0.19002 0.45797 0.0
C677 C 0.84079 0.20534 0.49253 0.0
C678 C 0.85447 0.21778 0.50676 0.0
C679 C 0.86828 0.21602 0.51053 0.0
C680 C 0.88016 0.22606 0.52636 0.0
C681 C 0.87866 0.2383 0.53827 0.0
C682 C 0.86515 0.24052 0.53386 0.0
C683 C 0.85303 0.23018 0.51838 0.0
H684 H 0.96207 0.49845 0.14778 0.0
H685 H 0.96214 0.52106 0.12792 0.0
H686 H 0.01221 0.5546 0.15059 0.0
H687 H 0.01213 0.53169 0.1699 0.0
H688 H 0.98115 0.4839 0.14429 0.0
H689 H 0.97037 0.51451 0.20058 0.0
H690 H 0.97624 0.53999 0.22075 0.0
H691 H 0.02405 0.54778 0.24014 0.0
H692 H 0.01814 0.52232 0.21957 0.0
H693 H 0.01319 0.47693 0.2212 0.0
H694 H 0.01376 0.45573 0.24345 0.0
H695 H 0.96487 0.41952 0.21944 0.0
H696 H 0.96422 0.44109 0.19754 0.0
H697 H 0.99389 0.48977 0.22363 0.0
H698 H 0.00606 0.46044 0.16963 0.0
H699 H 0.0038 0.43775 0.14638 0.0
H700 H 0.957 0.42907 0.12059 0.0
H701 H 0.95912 0.45153 0.14461 0.0
C702 C 0.98698 0.51344 0.16064 0.0
C703 C 0.97305 0.51069 0.14844 0.0
C704 C 0.97308 0.52375 0.13725 0.0
C705 C 0.98712 0.53986 0.13808 0.0
C706 C 0.00116 0.5424 0.14984 0.0
C707 C 0.00112 0.52935 0.16097 0.0
C708 C 0.98679 0.49972 0.173 0.0
C709 C 0.98363 0.485 0.16171 0.0
C710 C 0.99059 0.50144 0.19559 0.0
C711 C 0.99383 0.51655 0.20853 0.0
C712 C 0.98207 0.52166 0.20928 0.0
C713 C 0.9854 0.53615 0.22108 0.0
C714 C 0.00055 0.54574 0.23246 0.0
C715 C 0.01224 0.54055 0.23169 0.0
C716 C 0.00887 0.52602 0.22001 0.0
C717 C 0.98876 0.46056 0.20747 0.0
C718 C 0.00263 0.4644 0.2206 0.0
C719 C 0.00299 0.45216 0.23317 0.0
C720 C 0.98946 0.43576 0.23281 0.0
C721 C 0.97552 0.432 0.21985 0.0
C722 C 0.97518 0.44426 0.20723 0.0
C723 C 0.98825 0.47387 0.19495 0.0
C724 C 0.99125 0.48851 0.20624 0.0
C725 C 0.98455 0.47213 0.1723 0.0
C726 C 0.98273 0.45768 0.15897 0.0
C727 C 0.9952 0.45351 0.1592 0.0
C728 C 0.99399 0.44064 0.14554 0.0
C729 C 0.98035 0.43181 0.13111 0.0
C730 C 0.96771 0.43572 0.13137 0.0
C731 C 0.96892 0.44858 0.14505 0.0
H732 H 0.49677 0.44097 0.15941 0.0
H733 H 0.47476 0.42095 0.13496 0.0
H734 H 0.442 0.43664 0.16111 0.0
H735 H 0.46419 0.45661 0.18579 0.0
H736 H 0.51017 0.47537 0.16082 0.0
H737 H 0.48011 0.42924 0.2098 0.0
H738 H 0.45527 0.40924 0.22843 0.0
H739 H 0.45201 0.45041 0.25752 0.0
H740 H 0.47663 0.47014 0.23903 0.0
H741 H 0.52024 0.50924 0.24463 0.0
H742 H 0.54267 0.53214 0.26535 0.0
H743 H 0.5773 0.52119 0.23412 0.0
H744 H 0.55459 0.49819 0.21332 0.0
H745 H 0.50761 0.47655 0.2413 0.0
H746 H 0.53114 0.52137 0.19404 0.0
H747 H 0.55146 0.5446 0.17329 0.0
H748 H 0.56331 0.5107 0.13936 0.0
H749 H 0.54294 0.48762 0.16011 0.0
C750 C 0.48212 0.45025 0.17446 0.0
C751 C 0.48484 0.44009 0.15986 0.0
C752 C 0.47222 0.42873 0.1457 0.0
C753 C 0.45665 0.42748 0.14567 0.0
C754 C 0.45388 0.43739 0.16068 0.0
C755 C 0.46652 0.44876 0.17483 0.0
C756 C 0.49587 0.46293 0.18853 0.0
C757 C 0.50979 0.4754 0.17845 0.0
C758 C 0.49495 0.46349 0.21146 0.0
C759 C 0.48024 0.45119 0.22306 0.0
C760 C 0.47403 0.43391 0.22025 0.0
C761 C 0.45989 0.42252 0.23092 0.0
C762 C 0.4519 0.4282 0.24485 0.0
C763 C 0.45814 0.44552 0.24756 0.0
C764 C 0.4722 0.45687 0.23686 0.0
C765 C 0.53571 0.50206 0.22729 0.0
C766 C 0.53264 0.51161 0.24251 0.0
C767 C 0.5456 0.52474 0.25449 0.0
C768 C 0.56194 0.52848 0.25164 0.0
C769 C 0.56488 0.5186 0.23676 0.0
C770 C 0.55192 0.50551 0.22478 0.0
C771 C 0.52204 0.48885 0.21358 0.0
C772 C 0.50815 0.47632 0.22369 0.0
C773 C 0.52264 0.4886 0.1906 0.0
C774 C 0.53561 0.50278 0.17873 0.0
C775 C 0.53825 0.51899 0.18227 0.0
C776 C 0.54979 0.53224 0.17031 0.0
C777 C 0.55881 0.52955 0.15434 0.0
C778 C 0.55635 0.51331 0.15104 0.0
C779 C 0.54476 0.50004 0.16305 0.0
H780 H 0.53113 0.03947 0.1565 0.0
H781 H 0.55455 0.04091 0.13818 0.0
H782 H 0.53988 0.99082 0.15821 0.0
H783 H 0.51646 0.98959 0.17669 0.0
H784 H 0.49783 0.0173 0.14973 0.0
H785 H 0.5389 0.03243 0.20765 0.0
H786 H 0.55847 0.02883 0.23009 0.0
H787 H 0.51909 0.98117 0.25042 0.0
H788 H 0.49957 0.98482 0.22774 0.0
H789 H 0.45866 0.98608 0.2248 0.0
H790 H 0.43578 0.98458 0.24468 0.0
H791 H 0.44591 0.03191 0.21893 0.0
H792 H 0.46891 0.03333 0.19894 0.0
H793 H 0.49018 0.00744 0.22878 0.0
H794 H 0.44986 0.98922 0.17187 0.0
H795 H 0.42909 0.98792 0.14623 0.0
H796 H 0.4646 0.03641 0.12284 0.0
H797 H 0.48523 0.03754 0.14839 0.0
C798 C 0.52213 0.01448 0.16803 0.0
C799 C 0.53292 0.02877 0.15677 0.0
C800 C 0.54628 0.0295 0.14615 0.0
C801 C 0.54896 0.01579 0.14637 0.0
C802 C 0.5381 0.00152 0.15768 0.0
C803 C 0.52476 0.00082 0.16829 0.0
C804 C 0.50807 0.01383 0.17939 0.0
C805 C 0.49627 0.01546 0.1671 0.0
C806 C 0.50579 0.01075 0.20187 0.0
C807 C 0.51778 0.00879 0.21575 0.0
C808 C 0.53452 0.0211 0.21671 0.0
C809 C 0.54574 0.01896 0.22951 0.0
C810 C 0.54038 0.00447 0.24172 0.0
C811 C 0.52359 0.99238 0.24106 0.0
C812 C 0.51241 0.99448 0.22818 0.0
C813 C 0.46554 0.00983 0.21043 0.0
C814 C 0.45602 0.99619 0.22352 0.0
C815 C 0.44299 0.99542 0.23503 0.0
C816 C 0.43932 0.00841 0.23384 0.0
C817 C 0.44856 0.02182 0.22025 0.0
C818 C 0.46164 0.0226 0.20878 0.0
C819 C 0.47985 0.01092 0.19912 0.0
C820 C 0.49175 0.00943 0.21144 0.0
C821 C 0.48202 0.01372 0.17656 0.0
C822 C 0.46911 0.01351 0.1621 0.0
C823 C 0.4531 0.99967 0.1614 0.0
C824 C 0.44126 0.9989 0.14667 0.0
C825 C 0.4452 0.01183 0.13211 0.0
C826 C 0.46114 0.02593 0.13325 0.0
C827 C 0.47298 0.02669 0.14802 0.0
H828 H 0.50002 0.00554 0.87467 0.0
H829 H 0.47782 0.99888 0.89984 0.0
H830 H 0.44401 0.95838 0.85649 0.0
H831 H 0.46629 0.96478 0.83165 0.0
H832 H 0.51316 0.98846 0.86395 0.0
H833 H 0.48631 0.01171 0.82376 0.0
H834 H 0.46412 0.01356 0.80512 0.0
H835 H 0.45658 0.97324 0.76088 0.0
H836 H 0.47877 0.9716 0.77945 0.0
H837 H 0.52367 0.97319 0.77733 0.0
H838 H 0.54608 0.9761 0.7551 0.0
H839 H 0.57982 0.02137 0.79152 0.0
H840 H 0.55718 0.01825 0.81386 0.0
H841 H 0.51065 0.99364 0.78408 0.0
H842 H 0.53981 0.97229 0.82764 0.0
H843 H 0.56241 0.97285 0.84893 0.0
H844 H 0.5668 0.01426 0.88812 0.0
H845 H 0.54438 0.01365 0.86696 0.0
C846 C 0.48481 0.98582 0.85108 0.0
C847 C 0.48781 0.99528 0.87051 0.0
C848 C 0.47515 0.99147 0.88488 0.0
C849 C 0.45918 0.97831 0.87999 0.0
C850 C 0.4561 0.96889 0.86047 0.0
C851 C 0.46884 0.97257 0.84621 0.0
C852 C 0.49867 0.98905 0.83686 0.0
C853 C 0.5127 0.98989 0.84652 0.0
C854 C 0.49796 0.99063 0.81406 0.0
C855 C 0.4842 0.99148 0.80305 0.0
C856 C 0.4798 0.00322 0.8101 0.0
C857 C 0.46715 0.00431 0.79938 0.0
C858 C 0.45873 0.99384 0.78122 0.0
C859 C 0.46301 0.98191 0.77435 0.0
C860 C 0.47569 0.98084 0.78508 0.0
C861 C 0.53875 0.99544 0.7973 0.0
C862 C 0.53586 0.98385 0.78035 0.0
C863 C 0.54875 0.98563 0.76752 0.0
C864 C 0.5648 0.99921 0.77128 0.0
C865 C 0.5676 0.01083 0.78821 0.0
C866 C 0.5547 0.00905 0.80101 0.0
C867 C 0.5251 0.99312 0.81129 0.0
C868 C 0.51108 0.99233 0.80154 0.0
C869 C 0.52597 0.99205 0.83413 0.0
C870 C 0.54036 0.9929 0.84577 0.0
C871 C 0.54577 0.98159 0.84069 0.0
C872 C 0.55862 0.98186 0.85289 0.0
C873 C 0.56605 0.99323 0.87058 0.0
C874 C 0.56096 0.0049 0.87514 0.0
C875 C 0.54821 0.00468 0.86292 0.0
H876 H 0.04226 0.54857 0.88345 0.0
H877 H 0.04257 0.5696 0.90846 0.0
H878 H 0.99395 0.5567 0.88461 0.0
H879 H 0.99382 0.53582 0.85973 0.0
H880 H 0.02106 0.51505 0.88249 0.0
H881 H 0.03465 0.56103 0.83489 0.0
H882 H 0.03022 0.58166 0.81608 0.0
H883 H 0.9865 0.54169 0.78422 0.0
H884 H 0.99052 0.52117 0.80362 0.0
H885 H 0.99198 0.48069 0.8005 0.0
H886 H 0.99011 0.45787 0.77809 0.0
H887 H 0.0372 0.46778 0.80447 0.0
H888 H 0.0389 0.49072 0.82706 0.0
H889 H 0.01291 0.51325 0.80242 0.0
H890 H 0.99517 0.46821 0.8502 0.0
H891 H 0.99508 0.44536 0.86959 0.0
H892 H 0.04135 0.48072 0.90162 0.0
H893 H 0.04157 0.50326 0.88164 0.0
C894 C 0.0181 0.54074 0.86956 0.0
C895 C 0.03174 0.5504 0.88351 0.0
C896 C 0.03191 0.56245 0.89775 0.0
C897 C 0.01846 0.56511 0.89841 0.0
C898 C 0.00477 0.55542 0.88434 0.0
C899 C 0.00461 0.54335 0.87007 0.0
C900 C 0.01778 0.52748 0.85521 0.0
C901 C 0.01954 0.51481 0.86494 0.0
C902 C 0.01511 0.52679 0.83238 0.0
C903 C 0.01281 0.53951 0.82089 0.0
C904 C 0.024 0.55669 0.82406 0.0
C905 C 0.02156 0.56846 0.81319 0.0
C906 C 0.00824 0.56325 0.79843 0.0
C907 C 0.99714 0.54607 0.79507 0.0
C908 C 0.99939 0.53434 0.80625 0.0
C909 C 0.01552 0.48736 0.81555 0.0
C910 C 0.00201 0.4781 0.80123 0.0
C911 C 0.00104 0.46506 0.78824 0.0
C912 C 0.01372 0.46113 0.78912 0.0
C913 C 0.02732 0.47058 0.80331 0.0
C914 C 0.02826 0.48362 0.81631 0.0
C915 C 0.01618 0.50088 0.82971 0.0
C916 C 0.01452 0.51358 0.81997 0.0
C917 C 0.01843 0.50134 0.85257 0.0
C918 C 0.01854 0.48742 0.86413 0.0
C919 C 0.00544 0.47097 0.8611 0.0
C920 C 0.00536 0.45792 0.87231 0.0
C921 C 0.01828 0.46101 0.88694 0.0
C922 C 0.03131 0.47759 0.8902 0.0
C923 C 0.03141 0.49063 0.87888 0.0
H924 H 0.44583 0.51782 0.86029 0.0
H925 H 0.42516 0.4959 0.88266 0.0
H926 H 0.4408 0.46174 0.85957 0.0
H927 H 0.46147 0.48368 0.83757 0.0
H928 H 0.47952 0.53036 0.86469 0.0
H929 H 0.43608 0.49971 0.81143 0.0
H930 H 0.41628 0.4754 0.78922 0.0
H931 H 0.4562 0.47354 0.75821 0.0
H932 H 0.476 0.49706 0.7814 0.0
H933 H 0.51609 0.53514 0.78908 0.0
H934 H 0.53912 0.55502 0.76831 0.0
H935 H 0.53258 0.59523 0.7936 0.0
H936 H 0.509 0.57495 0.81408 0.0
H937 H 0.48499 0.52688 0.78504 0.0
H938 H 0.52661 0.54943 0.84126 0.0
H939 H 0.54767 0.56858 0.86733 0.0
H940 H 0.5137 0.58287 0.89287 0.0
H941 H 0.49259 0.56355 0.86653 0.0
C942 C 0.45513 0.50233 0.84729 0.0
C943 C 0.44474 0.50558 0.86006 0.0
C944 C 0.43297 0.49308 0.87278 0.0
C945 C 0.43165 0.47729 0.87331 0.0
C946 C 0.44183 0.47395 0.86008 0.0
C947 C 0.45351 0.4864 0.84725 0.0
C948 C 0.46838 0.51591 0.83512 0.0
C949 C 0.48056 0.52978 0.84719 0.0
C950 C 0.46994 0.51467 0.81237 0.0
C951 C 0.45764 0.50014 0.79855 0.0
C952 C 0.44064 0.49387 0.80029 0.0
C953 C 0.4293 0.48002 0.78749 0.0
C954 C 0.43478 0.47253 0.77222 0.0
C955 C 0.45171 0.4791 0.76992 0.0
C956 C 0.46301 0.4926 0.78314 0.0
C957 C 0.5109 0.55356 0.80323 0.0
C958 C 0.51969 0.54826 0.79031 0.0
C959 C 0.53307 0.55975 0.77866 0.0
C960 C 0.538 0.57687 0.77977 0.0
C961 C 0.52917 0.58216 0.7927 0.0
C962 C 0.51576 0.57062 0.80443 0.0
C963 C 0.49629 0.54104 0.81471 0.0
C964 C 0.48381 0.52748 0.8025 0.0
C965 C 0.49469 0.54219 0.8374 0.0
C966 C 0.50806 0.55521 0.85169 0.0
C967 C 0.52383 0.55703 0.85206 0.0
C968 C 0.53594 0.56809 0.86707 0.0
C969 C 0.53248 0.57754 0.8821 0.0
C970 C 0.51677 0.57585 0.88143 0.0
C971 C 0.50469 0.56482 0.8664 0.0
H972 H 0.61992 0.82588 0.47987 0.0
H973 H 0.62048 0.84877 0.46008 0.0
H974 H 0.66564 0.88384 0.49458 0.0
H975 H 0.66499 0.86081 0.51428 0.0
H976 H 0.64118 0.81454 0.48052 0.0
H977 H 0.62011 0.83714 0.53388 0.0
H978 H 0.61989 0.85898 0.55688 0.0
H979 H 0.66545 0.86873 0.58831 0.0
H980 H 0.66587 0.84744 0.56492 0.0
H981 H 0.67144 0.80931 0.55837 0.0
H982 H 0.67657 0.78945 0.57774 0.0
H983 H 0.63176 0.74856 0.54901 0.0
H984 H 0.62655 0.76852 0.5302 0.0
H985 H 0.64643 0.81544 0.56097 0.0
H986 H 0.66897 0.79503 0.50651 0.0
H987 H 0.67057 0.77432 0.48345 0.0
H988 H 0.62301 0.76026 0.45423 0.0
H989 H 0.62134 0.78079 0.47808 0.0
C990 C 0.64232 0.84162 0.49869 0.0
C991 C 0.62997 0.8385 0.48308 0.0
C992 C 0.63041 0.85165 0.47164 0.0
C993 C 0.64334 0.86819 0.47546 0.0
C994 C 0.65557 0.87125 0.49123 0.0
C995 C 0.65516 0.85811 0.50259 0.0
C996 C 0.64218 0.82764 0.51039 0.0
C997 C 0.64201 0.81456 0.49814 0.0
C998 C 0.64355 0.82782 0.53336 0.0
C999 C 0.64317 0.84086 0.5474 0.0
C1000 C 0.63015 0.84415 0.54555 0.0
C1001 C 0.62997 0.85653 0.55879 0.0
C1002 C 0.64282 0.86588 0.57402 0.0
C1003 C 0.65561 0.86222 0.57627 0.0
C1004 C 0.65578 0.84986 0.56305 0.0
C1005 C 0.64864 0.79038 0.54283 0.0
C1006 C 0.66264 0.79606 0.55647 0.0
C1007 C 0.66557 0.78471 0.56748 0.0
C1008 C 0.65449 0.76747 0.56529 0.0
C1009 C 0.6404 0.76175 0.55162 0.0
C1010 C 0.63748 0.77315 0.54057 0.0
C1011 C 0.64586 0.80264 0.5311 0.0
C1012 C 0.64539 0.81533 0.54336 0.0
C1013 C 0.64401 0.80213 0.50817 0.0
C1014 C 0.64497 0.78938 0.49418 0.0
C1015 C 0.6588 0.78735 0.4953 0.0
C1016 C 0.65976 0.77553 0.4818 0.0
C1017 C 0.64694 0.76564 0.4666 0.0
C1018 C 0.6331 0.76769 0.46567 0.0
C1019 C 0.63214 0.77945 0.47923 0.0
H1020 H 0.161 0.77669 0.49373 0.0
H1021 H 0.13844 0.7561 0.47026 0.0
H1022 H 0.10689 0.7739 0.49468 0.0
H1023 H 0.12956 0.79456 0.51801 0.0
H1024 H 0.17626 0.80977 0.49319 0.0
H1025 H 0.14643 0.76904 0.54619 0.0
H1026 H 0.1224 0.74967 0.56607 0.0
H1027 H 0.1167 0.79091 0.58932 0.0
H1028 H 0.14054 0.81018 0.56874 0.0
H1029 H 0.18277 0.85185 0.56567 0.0
H1030 H 0.20393 0.87764 0.58396 0.0
H1031 H 0.24069 0.86449 0.56759 0.0
H1032 H 0.21944 0.83866 0.54963 0.0
H1033 H 0.17164 0.81881 0.57193 0.0
H1034 H 0.19745 0.85812 0.51532 0.0
H1035 H 0.22012 0.87821 0.49393 0.0
H1036 H 0.23258 0.84033 0.47717 0.0
H1037 H 0.20993 0.82028 0.49913 0.0
C1038 C 0.14699 0.78713 0.50776 0.0
C1039 C 0.14922 0.77616 0.49402 0.0
C1040 C 0.1363 0.76445 0.48047 0.0
C1041 C 0.12091 0.7636 0.48027 0.0
C1042 C 0.11861 0.7743 0.49444 0.0
C1043 C 0.13154 0.78605 0.50787 0.0
C1044 C 0.161 0.80031 0.52108 0.0
C1045 C 0.17537 0.81148 0.51052 0.0
C1046 C 0.15976 0.80284 0.5436 0.0
C1047 C 0.14527 0.79105 0.55596 0.0
C1048 C 0.13996 0.77389 0.55552 0.0
C1049 C 0.12627 0.76282 0.56717 0.0
C1050 C 0.11775 0.7688 0.57969 0.0
C1051 C 0.12306 0.78597 0.57993 0.0
C1052 C 0.13673 0.797 0.56828 0.0
C1053 C 0.19952 0.84335 0.55623 0.0
C1054 C 0.19535 0.8544 0.56635 0.0
C1055 C 0.20745 0.86914 0.57674 0.0
C1056 C 0.22394 0.87304 0.57756 0.0
C1057 C 0.22808 0.86177 0.56779 0.0
C1058 C 0.21595 0.84705 0.55727 0.0
C1059 C 0.18671 0.82832 0.54393 0.0
C1060 C 0.1726 0.81685 0.55469 0.0
C1061 C 0.18813 0.82553 0.52158 0.0
C1062 C 0.20208 0.83775 0.50888 0.0
C1063 C 0.20511 0.85416 0.50711 0.0
C1064 C 0.21795 0.86557 0.49459 0.0
C1065 C 0.22789 0.86069 0.48338 0.0
C1066 C 0.22499 0.84434 0.48547 0.0
C1067 C 0.21209 0.8329 0.49795 0.0
H1068 H 0.13884 0.33958 0.49944 0.0
H1069 H 0.11662 0.33626 0.47521 0.0
H1070 H 0.11966 0.38072 0.50423 0.0
H1071 H 0.14204 0.38394 0.52874 0.0
H1072 H 0.16989 0.36547 0.50072 0.0
H1073 H 0.12532 0.33941 0.55111 0.0
H1074 H 0.10211 0.3373 0.57091 0.0
H1075 H 0.1339 0.38592 0.60136 0.0
H1076 H 0.1571 0.38806 0.58106 0.0
H1077 H 0.20403 0.38895 0.58493 0.0
H1078 H 0.2262 0.38806 0.6054 0.0
H1079 H 0.21544 0.34288 0.56949 0.0
H1080 H 0.19325 0.34368 0.54957 0.0
H1081 H 0.17076 0.36692 0.5814 0.0
H1082 H 0.21656 0.38996 0.53506 0.0
H1083 H 0.23923 0.39201 0.51361 0.0
H1084 H 0.2046 0.34956 0.47359 0.0
H1085 H 0.18211 0.34704 0.49552 0.0
C1086 C 0.14219 0.36206 0.51581 0.0
C1087 C 0.13476 0.34865 0.5006 0.0
C1088 C 0.12213 0.34686 0.48659 0.0
C1089 C 0.11675 0.35859 0.48733 0.0
C1090 C 0.12372 0.37163 0.50317 0.0
C1091 C 0.13643 0.37344 0.5172 0.0
C1092 C 0.15652 0.36443 0.52922 0.0
C1093 C 0.17002 0.36556 0.51837 0.0
C1094 C 0.15695 0.36534 0.55222 0.0
C1095 C 0.14292 0.36391 0.56458 0.0
C1096 C 0.12729 0.34961 0.56205 0.0
C1097 C 0.11405 0.34835 0.57362 0.0
C1098 C 0.11626 0.36135 0.5881 0.0
C1099 C 0.13189 0.37569 0.59043 0.0
C1100 C 0.14514 0.3769 0.57893 0.0
C1101 C 0.197 0.36641 0.56569 0.0
C1102 C 0.20636 0.37877 0.58168 0.0
C1103 C 0.21906 0.37829 0.59327 0.0
C1104 C 0.22242 0.36527 0.58941 0.0
C1105 C 0.21297 0.35286 0.57341 0.0
C1106 C 0.20035 0.3534 0.56177 0.0
C1107 C 0.18387 0.36713 0.55282 0.0
C1108 C 0.17069 0.36683 0.56375 0.0
C1109 C 0.1837 0.36693 0.52978 0.0
C1110 C 0.1976 0.36825 0.51705 0.0
C1111 C 0.21386 0.38094 0.52187 0.0
C1112 C 0.22677 0.38222 0.50952 0.0
C1113 C 0.2236 0.37122 0.49171 0.0
C1114 C 0.20736 0.35854 0.48686 0.0
C1115 C 0.1945 0.35704 0.49946 0.0
H1116 H 0.00168 0.36522 0.05112 0.0
C1117 C 0.99452 0.36455 0.03669 0.0
H1118 H 0.97913 0.3725 0.02231 0.0
H1119 H 0.97686 0.38933 0.12785 0.0
H1120 H 0.96235 0.3593 0.1323 0.0
H1121 H 0.95861 0.34007 0.10154 0.0
H1122 H 0.96957 0.35077 0.06621 0.0
C1123 C 0.98568 0.37236 0.03696 0.0
C1124 C 0.98715 0.38368 0.0555 0.0
C1125 C 0.98028 0.37719 0.07587 0.0
C1126 C 0.98196 0.38827 0.09342 0.0
C1127 C 0.97553 0.38148 0.11381 0.0
C1128 C 0.96724 0.36427 0.11661 0.0
C1129 C 0.96517 0.35344 0.09931 0.0
C1130 C 0.97158 0.35975 0.07913 0.0
H1131 H 0.96693 0.41032 0.10781 0.0
C1132 C 0.97895 0.41871 0.11531 0.0
H1133 H 0.00429 0.42647 0.11426 0.0
H1134 H 0.00225 0.4003 0.0188 0.0
H1135 H 0.01603 0.43023 0.01403 0.0
H1136 H 0.01796 0.44933 0.04397 0.0
H1137 H 0.00623 0.43861 0.07892 0.0
C1138 C 0.9919 0.41755 0.1085 0.0
C1139 C 0.99012 0.40577 0.09037 0.0
C1140 C 0.99688 0.41223 0.06995 0.0
C1141 C 0.99546 0.40119 0.05255 0.0
C1142 C 0.00265 0.40805 0.03246 0.0
C1143 C 0.01066 0.42524 0.02951 0.0
C1144 C 0.01177 0.43599 0.04637 0.0
C1145 C 0.00501 0.42965 0.06638 0.0
H1146 H 0.62777 0.59483 0.05573 0.0
C1147 C 0.62733 0.60577 0.06154 0.0
H1148 H 0.61731 0.61531 0.08441 0.0
H1149 H 0.55988 0.53629 0.0878 0.0
H1150 H 0.55107 0.54071 0.05251 0.0
H1151 H 0.5679 0.56693 0.03336 0.0
H1152 H 0.59364 0.58892 0.04946 0.0
C1153 C 0.61732 0.60436 0.0777 0.0
C1154 C 0.60746 0.58826 0.08866 0.0
C1155 C 0.59254 0.57549 0.07893 0.0
C1156 C 0.58286 0.56037 0.08999 0.0
C1157 C 0.56782 0.54796 0.08009 0.0
C1158 C 0.56258 0.55035 0.05984 0.0
C1159 C 0.57206 0.56511 0.04906 0.0
C1160 C 0.58684 0.57761 0.05845 0.0
H1161 H 0.57356 0.55647 0.14761 0.0
C1162 C 0.5706 0.54408 0.14169 0.0
H1163 H 0.57397 0.53082 0.11562 0.0
H1164 H 0.6357 0.61012 0.11142 0.0
H1165 H 0.64515 0.60534 0.14605 0.0
H1166 H 0.62897 0.57865 0.16451 0.0
H1167 H 0.60319 0.55668 0.14858 0.0
C1168 C 0.57728 0.54288 0.12302 0.0
C1169 C 0.58813 0.55811 0.11075 0.0
C1170 C 0.60343 0.57063 0.12003 0.0
C1171 C 0.61295 0.58583 0.10913 0.0
C1172 C 0.628 0.59829 0.11896 0.0
C1173 C 0.6336 0.5957 0.13881 0.0
C1174 C 0.62448 0.58069 0.14922 0.0
C1175 C 0.60961 0.56823 0.13998 0.0
H1176 H 0.40056 0.02012 0.00952 0.0
C1177 C 0.38815 0.00994 0.01208 0.0
H1178 H 0.3724 0.99174 0.03384 0.0
H1179 H 0.4313 0.98987 0.08207 0.0
H1180 H 0.41905 0.96385 0.06089 0.0
H1181 H 0.39679 0.957 0.03377 0.0
H1182 H 0.38671 0.97617 0.0276 0.0
C1183 C 0.38451 0.00245 0.03135 0.0
C1184 C 0.39755 0.00657 0.04832 0.0
C1185 C 0.40304 0.99504 0.05208 0.0
C1186 C 0.41572 0.99889 0.06792 0.0
C1187 C 0.42141 0.98742 0.07069 0.0
C1188 C 0.41456 0.97247 0.05852 0.0
C1189 C 0.40204 0.96861 0.04323 0.0
C1190 C 0.39634 0.97973 0.03991 0.0
H1191 H 0.41981 0.00015 0.11833 0.0
C1192 C 0.43245 0.00982 0.11574 0.0
H1193 H 0.44821 0.02769 0.09337 0.0
H1194 H 0.38931 0.03103 0.04589 0.0
H1195 H 0.4017 0.05718 0.06696 0.0
H1196 H 0.42382 0.06395 0.09429 0.0
H1197 H 0.43366 0.04456 0.10079 0.0
C1198 C 0.43582 0.01814 0.09706 0.0
C1199 C 0.42265 0.01413 0.0803 0.0
C1200 C 0.41722 0.02569 0.07647 0.0
C1201 C 0.40458 0.02187 0.06055 0.0
C1202 C 0.39908 0.03344 0.05748 0.0
C1203 C 0.40604 0.04847 0.06954 0.0
C1204 C 0.41849 0.05227 0.08494 0.0
C1205 C 0.42404 0.04105 0.08849 0.0
H1206 H 0.37523 0.97503 0.92621 0.0
C1207 C 0.37055 0.96715 0.94025 0.0
H1208 H 0.37358 0.95074 0.96088 0.0
H1209 H 0.41222 0.93703 0.88563 0.0
H1210 H 0.38848 0.90939 0.88945 0.0
H1211 H 0.36631 0.90496 0.91416 0.0
H1212 H 0.36783 0.92815 0.93541 0.0
C1213 C 0.37799 0.9588 0.94701 0.0
C1214 C 0.39255 0.96075 0.93527 0.0
C1215 C 0.3915 0.94709 0.92308 0.0
C1216 C 0.40417 0.94971 0.9086 0.0
C1217 C 0.40284 0.93581 0.89665 0.0
C1218 C 0.3893 0.91987 0.89873 0.0
C1219 C 0.37682 0.91737 0.91265 0.0
C1220 C 0.37783 0.93078 0.92471 0.0
H1221 H 0.44988 0.97773 0.91294 0.0
C1222 C 0.44618 0.97454 0.89587 0.0
H1223 H 0.42637 0.96572 0.87297 0.0
H1224 H 0.40029 0.9886 0.96044 0.0
H1225 H 0.4235 0.01651 0.95611 0.0
H1226 H 0.44377 0.0219 0.92782 0.0
H1227 H 0.44125 0.99943 0.90427 0.0
C1228 C 0.43038 0.96877 0.88992 0.0
C1229 C 0.41778 0.96603 0.9062 0.0
C1230 C 0.41905 0.97964 0.91895 0.0
C1231 C 0.40677 0.97681 0.93417 0.0
C1232 C 0.40885 0.99029 0.94784 0.0
C1233 C 0.42217 0.00633 0.94563 0.0
C1234 C 0.43361 0.00935 0.92979 0.0
C1235 C 0.4321 0.99624 0.91651 0.0
H1236 H 0.04179 0.39637 0.96695 0.0
C1237 C 0.03059 0.38494 0.96199 0.0
H1238 H 0.00869 0.37437 0.94265 0.0
H1239 H 0.01049 0.44423 0.94193 0.0
H1240 H 0.99149 0.43117 0.9711 0.0
H1241 H 0.98657 0.40439 0.9856 0.0
H1242 H 0.00091 0.39068 0.97136 0.0
C1243 C 0.02006 0.38558 0.94758 0.0
C1244 C 0.02313 0.40172 0.93878 0.0
C1245 C 0.01446 0.40941 0.94705 0.0
C1246 C 0.01699 0.42464 0.93831 0.0
C1247 C 0.00865 0.43239 0.94747 0.0
C1248 C 0.99779 0.42509 0.96433 0.0
C1249 C 0.99505 0.41003 0.97254 0.0
C1250 C 0.00332 0.40227 0.96416 0.0
H1251 H 0.00586 0.43474 0.89719 0.0
C1252 C 0.01734 0.44662 0.8987 0.0
H1253 H 0.04179 0.45835 0.91171 0.0
H1254 H 0.04158 0.39009 0.91918 0.0
H1255 H 0.06058 0.40311 0.89002 0.0
H1256 H 0.06485 0.42942 0.87465 0.0
H1257 H 0.05014 0.44287 0.88833 0.0
C1258 C 0.02976 0.44719 0.91061 0.0
C1259 C 0.02788 0.4319 0.92092 0.0
C1260 C 0.03678 0.42435 0.91294 0.0
C1261 C 0.03436 0.40921 0.92184 0.0
C1262 C 0.04309 0.4017 0.9132 0.0
C1263 C 0.054 0.40901 0.8964 0.0
C1264 C 0.0564 0.42382 0.88775 0.0
C1265 C 0.04789 0.43143 0.8958 0.0
H1266 H 0.62132 0.63228 0.97026 0.0
C1267 C 0.61377 0.6316 0.98386 0.0
H1268 H 0.58971 0.62424 0.9939 0.0
H1269 H 0.56225 0.62252 0.89829 0.0
H1270 H 0.56717 0.64975 0.91082 0.0
H1271 H 0.58216 0.6625 0.94556 0.0
H1272 H 0.59246 0.64814 0.96793 0.0
C1273 C 0.59745 0.62483 0.98061 0.0
C1274 C 0.58923 0.61753 0.95908 0.0
C1275 C 0.58311 0.62596 0.94634 0.0
C1276 C 0.57421 0.61847 0.92648 0.0
C1277 C 0.56868 0.62742 0.91379 0.0
C1278 C 0.57151 0.64311 0.92072 0.0
C1279 C 0.57998 0.65029 0.94027 0.0
C1280 C 0.58578 0.6419 0.95298 0.0
H1281 H 0.53941 0.59152 0.91371 0.0
C1282 C 0.54434 0.58822 0.8998 0.0
H1283 H 0.56617 0.59087 0.88644 0.0
H1284 H 0.59899 0.59777 0.97978 0.0
H1285 H 0.59432 0.57072 0.96708 0.0
H1286 H 0.57913 0.55788 0.9325 0.0
H1287 H 0.56845 0.57197 0.91046 0.0
C1288 C 0.56059 0.59371 0.89993 0.0
C1289 C 0.57117 0.6024 0.91961 0.0
C1290 C 0.57773 0.5942 0.93202 0.0
C1291 C 0.58665 0.6017 0.95186 0.0
C1292 C 0.59243 0.59286 0.96437 0.0
C1293 C 0.58977 0.57726 0.95733 0.0
C1294 C 0.58121 0.57002 0.93787 0.0
C1295 C 0.57517 0.57829 0.92535 0.0
H1296 H 0.99611 0.63313 0.97639 0.0
C1297 C 0.00508 0.63514 0.9892 0.0
H1298 H 0.02371 0.63026 0.99969 0.0
H1299 H 0.99758 0.56258 0.94704 0.0
H1300 H 0.99245 0.55332 0.98414 0.0
H1301 H 0.99662 0.57305 0.01438 0.0
H1302 H 0.00543 0.60204 0.00767 0.0
C1303 C 0.01507 0.62874 0.98668 0.0
C1304 C 0.01285 0.6171 0.96814 0.0
C1305 C 0.0077 0.60015 0.9724 0.0
C1306 C 0.00569 0.58885 0.95503 0.0
C1307 C -0.0001 0.57186 0.95967 0.0
C1308 C 0.99675 0.56632 0.9809 0.0
C1309 C 0.99903 0.57741 0.99791 0.0
C1310 C 0.00424 0.59408 0.99381 0.0
H1311 H 0.02848 0.58179 0.92768 0.0
C1312 C 0.01893 0.57735 0.91493 0.0
H1313 H 0.99909 0.57989 0.90256 0.0
H1314 H 0.02389 0.64895 0.95441 0.0
H1315 H 0.02914 0.65818 0.91726 0.0
H1316 H 0.02526 0.63844 0.8871 0.0
H1317 H 0.01619 0.60935 0.89394 0.0
C1318 C 0.00826 0.58305 0.91546 0.0
C1319 C 0.00923 0.59458 0.93346 0.0
C1320 C 0.0141 0.61143 0.92914 0.0
C1321 C 0.01607 0.62276 0.94651 0.0
C1322 C 0.02171 0.63969 0.94181 0.0
C1323 C 0.02489 0.64519 0.92056 0.0
C1324 C 0.02273 0.63408 0.90358 0.0
C1325 C 0.01748 0.61741 0.90773 0.0
H1326 H 0.38626 0.38582 0.93792 0.0
C1327 C 0.37838 0.38649 0.95019 0.0
H1328 H 0.37047 0.40188 0.96548 0.0
H1329 H 0.43715 0.46504 0.93319 0.0
H1330 H 0.44363 0.46641 0.97184 0.0
H1331 H 0.42472 0.44436 0.99602 0.0
H1332 H 0.39917 0.42082 0.98169 0.0
C1333 C 0.37797 0.40069 0.95309 0.0
C1334 C 0.38807 0.41514 0.9393 0.0
C1335 C 0.4028 0.42886 0.94798 0.0
C1336 C 0.41373 0.44149 0.93402 0.0
C1337 C 0.42846 0.45502 0.94305 0.0
C1338 C 0.43231 0.45597 0.96521 0.0
C1339 C 0.42166 0.44356 0.97882 0.0
C1340 C 0.40706 0.43012 0.9704 0.0
H1341 H 0.40867 0.46521 0.89178 0.0
C1342 C 0.41956 0.46455 0.88771 0.0
H1343 H 0.43333 0.45266 0.89445 0.0
H1344 H 0.35957 0.39185 0.91831 0.0
H1345 H 0.35299 0.39035 0.87969 0.0
H1346 H 0.37252 0.4115 0.85506 0.0
H1347 H 0.3986 0.43434 0.8689 0.0
C1348 C 0.42195 0.45277 0.89671 0.0
C1349 C 0.40983 0.44035 0.91146 0.0
C1350 C 0.39475 0.42697 0.90293 0.0
C1351 C 0.38374 0.41448 0.91697 0.0
C1352 C 0.36858 0.40141 0.90821 0.0
C1353 C 0.36462 0.40045 0.88611 0.0
C1354 C 0.37559 0.41238 0.87226 0.0
C1355 C 0.39051 0.42549 0.88046 0.0
H1356 H 0.60514 0.98127 0.98854 0.0
C1357 C 0.6185 0.98851 0.98858 0.0
H1358 H 0.63935 0.00361 0.97021 0.0
H1359 H 0.57101 0.96458 0.90477 0.0
H1360 H 0.57016 0.93879 0.91395 0.0
H1361 H 0.59086 0.93898 0.93932 0.0
H1362 H 0.61235 0.96503 0.95604 0.0
C1363 C 0.62604 0.99597 0.97028 0.0
C1364 C 0.61623 0.99612 0.95105 0.0
C1365 C 0.60434 0.98095 0.94045 0.0
C1366 C 0.5929 0.98095 0.92501 0.0
C1367 C 0.58041 0.96545 0.91595 0.0
C1368 C 0.57972 0.95051 0.92117 0.0
C1369 C 0.59134 0.95061 0.93551 0.0
C1370 C 0.60353 0.96561 0.9451 0.0
H1371 H 0.58644 0.98808 0.8767 0.0
C1372 C 0.57892 0.9926 0.88418 0.0
H1373 H 0.57321 0.00059 0.91353 0.0
H1374 H 0.63872 0.02773 0.96644 0.0
H1375 H 0.64091 0.05371 0.95516 0.0
H1376 H 0.6219 0.05381 0.92712 0.0
H1377 H 0.60047 0.02784 0.9103 0.0
C1378 C 0.58086 0.99645 0.90563 0.0
C1379 C 0.59391 0.99626 0.91943 0.0
C1380 C 0.60667 0.01155 0.92868 0.0
C1381 C 0.61781 0.0115 0.94457 0.0
C1382 C 0.63004 0.02697 0.95409 0.0
C1383 C 0.63144 0.04202 0.94777 0.0
C1384 C 0.62073 0.04207 0.93201 0.0
C1385 C 0.60845 0.02707 0.92255 0.0
H1386 H 0.63257 0.03729 0.06102 0.0
C1387 C 0.63274 0.02622 0.06634 0.0
H1388 H 0.62245 0.00566 0.08711 0.0
H1389 H 0.59387 0.03798 0.15166 0.0
H1390 H 0.6181 0.04284 0.17244 0.0
H1391 H 0.63878 0.03737 0.15595 0.0
H1392 H 0.6354 0.02713 0.11852 0.0
C1393 C 0.62193 0.01633 0.08093 0.0
C1394 C 0.60975 0.02019 0.09039 0.0
C1395 C 0.61181 0.02594 0.11236 0.0
C1396 C 0.59975 0.02881 0.12197 0.0
C1397 C 0.60239 0.0351 0.14374 0.0
C1398 C 0.61631 0.03807 0.15581 0.0
C1399 C 0.62797 0.03501 0.14652 0.0
C1400 C 0.62584 0.02908 0.12503 0.0
H1401 H 0.56599 0.00636 0.13993 0.0
C1402 C 0.56304 0.01594 0.13555 0.0
H1403 H 0.56894 0.03585 0.11422 0.0
H1404 H 0.60194 0.00888 0.0479 0.0
H1405 H 0.57786 0.00429 0.02705 0.0
H1406 H 0.557 0.00941 0.04368 0.0
H1407 H 0.56009 0.01911 0.08131 0.0
C1408 C 0.57201 0.02678 0.12029 0.0
C1409 C 0.58547 0.02551 0.10971 0.0
C1410 C 0.58366 0.02026 0.08753 0.0
C1411 C 0.59577 0.01747 0.07788 0.0
C1412 C 0.59332 0.01155 0.05595 0.0
C1413 C 0.5795 0.00877 0.04381 0.0
C1414 C 0.56775 0.01164 0.05317 0.0
C1415 C 0.5697 0.01724 0.07479 0.0
H1416 H 0.96135 0.60731 0.06692 0.0
C1417 C 0.97378 0.61788 0.0688 0.0
H1418 H 0.99767 0.62665 0.08191 0.0
H1419 H 0.98143 0.57419 0.15378 0.0
H1420 H 0.99041 0.59968 0.17529 0.0
H1421 H 0.99501 0.62551 0.15807 0.0
H1422 H 0.99094 0.62607 0.11916 0.0
C1423 C 0.98537 0.61604 0.07939 0.0
C1424 C 0.98174 0.60009 0.0896 0.0
C1425 C 0.98409 0.59995 0.11244 0.0
C1426 C 0.98141 0.58506 0.1224 0.0
C1427 C 0.98362 0.58523 0.14527 0.0
C1428 C 0.98862 0.59974 0.15788 0.0
C1429 C 0.99124 0.61429 0.14817 0.0
C1430 C 0.98894 0.61445 0.12577 0.0
H1431 H -0.00015 0.56542 0.12535 0.0
C1432 C 0.98781 0.55434 0.1269 0.0
H1433 H 0.96221 0.54445 0.12091 0.0
H1434 H 0.97771 0.59627 0.04505 0.0
H1435 H 0.96825 0.57064 0.0238 0.0
H1436 H 0.96248 0.54455 0.04138 0.0
H1437 H 0.96609 0.54398 0.08047 0.0
C1438 C 0.97455 0.55499 0.11968 0.0
C1439 C 0.97646 0.57033 0.10951 0.0
C1440 C 0.97376 0.57034 0.08678 0.0
C1441 C 0.97669 0.5853 0.07671 0.0
C1442 C 0.97494 0.58516 0.05376 0.0
C1443 C 0.9697 0.57054 0.04129 0.0
C1444 C 0.96647 0.55585 0.05118 0.0
C1445 C 0.96856 0.5557 0.07363 0.0
H1446 H 0.41362 0.37131 0.02559 0.0
C1447 C 0.40067 0.36753 0.02663 0.0
H1448 H 0.38254 0.36778 0.0463 0.0
H1449 H 0.4441 0.38266 0.11607 0.0
H1450 H 0.43575 0.35344 0.10959 0.0
H1451 H 0.41393 0.33614 0.08229 0.0
H1452 H 0.40036 0.34797 0.06121 0.0
C1453 C 0.39521 0.37064 0.04522 0.0
C1454 C 0.40698 0.38036 0.06345 0.0
C1455 C 0.41462 0.37319 0.07583 0.0
C1456 C 0.42707 0.38313 0.09172 0.0
C1457 C 0.43459 0.37569 0.10374 0.0
C1458 C 0.42989 0.35892 0.10023 0.0
C1459 C 0.41761 0.34919 0.08485 0.0
C1460 C 0.40999 0.35615 0.07278 0.0
H1461 H 0.43061 0.41298 0.13406 0.0
C1462 C 0.44308 0.41616 0.13018 0.0
H1463 H 0.45781 0.41384 0.10611 0.0
H1464 H 0.39409 0.39765 0.04343 0.0
H1465 H 0.40236 0.42681 0.04992 0.0
H1466 H 0.4243 0.4442 0.07701 0.0
H1467 H 0.43806 0.43253 0.09782 0.0
C1468 C 0.44557 0.41071 0.11095 0.0
C1469 C 0.43173 0.40014 0.09541 0.0
C1470 C 0.42379 0.4072 0.08342 0.0
C1471 C 0.41128 0.39723 0.06758 0.0
C1472 C 0.40366 0.40463 0.05566 0.0
C1473 C 0.4083 0.42137 0.0592 0.0
C1474 C 0.42064 0.43115 0.07446 0.0
C1475 C 0.42839 0.42425 0.0864 0.0
H1476 H 0.67145 0.70021 0.38439 0.0
C1477 C 0.66353 0.70032 0.3714 0.0
H1478 H 0.64822 0.70976 0.36119 0.0
H1479 H 0.64272 0.72276 0.46454 0.0
H1480 H 0.62503 0.69263 0.46562 0.0
H1481 H 0.62223 0.67449 0.43396 0.0
H1482 H 0.63725 0.68635 0.4011 0.0
C1483 C 0.65561 0.70893 0.37435 0.0
C1484 C 0.65831 0.71948 0.39423 0.0
C1485 C 0.64932 0.71236 0.41317 0.0
C1486 C 0.65063 0.72286 0.43123 0.0
C1487 C 0.64181 0.7154 0.45015 0.0
C1488 C 0.6317 0.69812 0.45103 0.0
C1489 C 0.63014 0.6879 0.43321 0.0
C1490 C 0.63883 0.69487 0.41446 0.0
H1491 H 0.63646 0.74545 0.44118 0.0
C1492 C 0.64747 0.75328 0.45117 0.0
H1493 H 0.67238 0.75975 0.45645 0.0
H1494 H 0.6783 0.73692 0.3611 0.0
H1495 H 0.69639 0.76698 0.36026 0.0
H1496 H 0.6982 0.78527 0.39118 0.0
H1497 H 0.6821 0.77364 0.42324 0.0
C1498 C 0.66079 0.75174 0.44785 0.0
C1499 C 0.66066 0.74048 0.43009 0.0
C1500 C 0.67024 0.74752 0.41152 0.0
C1501 C 0.66905 0.737 0.39357 0.0
C1502 C 0.67864 0.74435 0.37513 0.0
C1503 C 0.68908 0.76158 0.37443 0.0
C1504 C 0.69013 0.77188 0.39186 0.0
C1505 C 0.68082 0.76502 0.41019 0.0
H1506 H 0.28785 0.95196 0.42034 0.0
C1507 C 0.29565 0.94966 0.40961 0.0
H1508 H 0.30109 0.93153 0.39709 0.0
H1509 H 0.26371 0.90151 0.49028 0.0
H1510 H 0.29005 0.92175 0.50682 0.0
H1511 H 0.31272 0.94154 0.48433 0.0
H1512 H 0.30915 0.94118 0.4451 0.0
C1513 C 0.29373 0.93429 0.40803 0.0
C1514 C 0.28114 0.92065 0.42104 0.0
C1515 C 0.28361 0.92067 0.44385 0.0
C1516 C 0.27069 0.90896 0.45672 0.0
C1517 C 0.27323 0.90977 0.4796 0.0
C1518 C 0.28826 0.92142 0.48934 0.0
C1519 C 0.30103 0.93257 0.47669 0.0
C1520 C 0.29879 0.93228 0.45421 0.0
H1521 H 0.25179 0.87029 0.46734 0.0
C1522 C 0.24157 0.87247 0.46983 0.0
H1523 H 0.23102 0.8871 0.46067 0.0
H1524 H 0.27314 0.91637 0.37754 0.0
H1525 H 0.24734 0.89511 0.36059 0.0
H1526 H 0.22497 0.87452 0.38281 0.0
H1527 H 0.22833 0.87495 0.42211 0.0
C1528 C 0.2416 0.88535 0.46002 0.0
C1529 C 0.25551 0.89697 0.44661 0.0
C1530 C 0.25334 0.89647 0.42369 0.0
C1531 C 0.26622 0.9083 0.41087 0.0
C1532 C 0.26373 0.90765 0.38802 0.0
C1533 C 0.24899 0.89553 0.3781 0.0
C1534 C 0.2364 0.88392 0.39061 0.0
C1535 C 0.23848 0.88432 0.41315 0.0
H1536 H 0.07631 0.35483 0.36122 0.0
C1537 C 0.06299 0.34815 0.36233 0.0
H1538 H 0.04295 0.33627 0.38322 0.0
H1539 H 0.08317 0.31976 0.45204 0.0
H1540 H 0.06179 0.29211 0.43964 0.0
H1541 H 0.04249 0.2886 0.40962 0.0
H1542 H 0.04436 0.31267 0.39192 0.0
C1543 C 0.05624 0.34333 0.38188 0.0
C1544 C 0.06671 0.34563 0.40158 0.0
C1545 C 0.06536 0.33139 0.41181 0.0
C1546 C 0.07665 0.33339 0.42887 0.0
C1547 C 0.07506 0.31895 0.43878 0.0
C1548 C 0.06282 0.303 0.43187 0.0
C1549 C 0.05194 0.30103 0.415 0.0
C1550 C 0.05315 0.31499 0.40499 0.0
H1551 H 0.09631 0.36259 0.47666 0.0
C1552 C 0.10401 0.3575 0.47168 0.0
H1553 H 0.11019 0.34652 0.44571 0.0
H1554 H 0.07054 0.37551 0.3886 0.0
H1555 H 0.09206 0.40319 0.40077 0.0
H1556 H 0.11291 0.40667 0.42846 0.0
H1557 H 0.1122 0.38256 0.44444 0.0
C1558 C 0.10235 0.35128 0.45124 0.0
C1559 C 0.08933 0.34961 0.4356 0.0
C1560 C 0.09025 0.36389 0.42604 0.0
C1561 C 0.07868 0.36189 0.40934 0.0
C1562 C 0.07943 0.37633 0.40068 0.0
C1563 C 0.09164 0.39229 0.40764 0.0
C1564 C 0.10334 0.39425 0.42328 0.0
C1565 C 0.10274 0.38027 0.4324 0.0
H1566 H 0.03982 0.29177 0.29326 0.0
C1567 C 0.04036 0.30305 0.28738 0.0
H1568 H 0.04995 0.32187 0.26407 0.0
H1569 H 0.10656 0.29986 0.26073 0.0
H1570 H 0.11325 0.30992 0.29835 0.0
H1571 H 0.09588 0.31832 0.31843 0.0
H1572 H 0.07164 0.31647 0.3012 0.0
C1573 C 0.04997 0.31107 0.27072 0.0
C1574 C 0.05991 0.30497 0.2595 0.0
C1575 C 0.07421 0.30646 0.26984 0.0
C1576 C 0.08458 0.30224 0.25804 0.0
C1577 C 0.09856 0.3034 0.26879 0.0
C1578 C 0.10249 0.30907 0.29039 0.0
C1579 C 0.09268 0.31375 0.30172 0.0
C1580 C 0.07872 0.31254 0.29164 0.0
H1581 H 0.10951 0.32157 0.22436 0.0
C1582 C 0.10729 0.30963 0.21756 0.0
H1583 H 0.09034 0.28346 0.21632 0.0
H1584 H 0.03264 0.2992 0.23561 0.0
H1585 H 0.02612 0.28921 0.19797 0.0
H1586 H 0.0446 0.28271 0.17723 0.0
H1587 H 0.06967 0.28606 0.19406 0.0
C1588 C 0.09323 0.29576 0.22237 0.0
C1589 C 0.08095 0.29718 0.23578 0.0
C1590 C 0.06628 0.2949 0.22579 0.0
C1591 C 0.05573 0.29882 0.23767 0.0
C1592 C 0.04119 0.2966 0.22725 0.0
C1593 C 0.03728 0.29083 0.20567 0.0
C1594 C 0.04768 0.28715 0.194 0.0
C1595 C 0.06203 0.28915 0.20385 0.0
H1596 H 0.67726 0.71494 0.2792 0.0
C1597 C 0.68816 0.71593 0.2871 0.0
H1598 H 0.71372 0.73148 0.29332 0.0
H1599 H 0.71482 0.77042 0.20745 0.0
H1600 H 0.72859 0.7557 0.19508 0.0
H1601 H 0.73131 0.73589 0.21871 0.0
H1602 H 0.72009 0.73058 0.25485 0.0
C1603 C 0.7025 0.73034 0.28633 0.0
C1604 C 0.70342 0.74443 0.27391 0.0
C1605 C 0.71069 0.74797 0.25325 0.0
C1606 C 0.70947 0.75972 0.23985 0.0
C1607 C 0.71588 0.76212 0.21868 0.0
C1608 C 0.72372 0.75364 0.21127 0.0
C1609 C 0.72522 0.74246 0.22456 0.0
C1610 C 0.71873 0.73954 0.24527 0.0
H1611 H 0.72435 0.79787 0.23355 0.0
C1612 C 0.71214 0.79461 0.22749 0.0
H1613 H 0.68678 0.77674 0.22901 0.0
H1614 H 0.6898 0.74185 0.31367 0.0
H1615 H 0.67633 0.75686 0.32646 0.0
H1616 H 0.6746 0.77758 0.30356 0.0
H1617 H 0.6861 0.78326 0.2676 0.0
C1618 C 0.69928 0.77996 0.23326 0.0
C1619 C 0.70146 0.76832 0.24751 0.0
C1620 C 0.69478 0.76525 0.26856 0.0
C1621 C 0.69579 0.75332 0.28179 0.0
C1622 C 0.6891 0.75057 0.30281 0.0
C1623 C 0.68146 0.75919 0.31042 0.0
C1624 C 0.68047 0.77085 0.29751 0.0
C1625 C 0.68707 0.77394 0.27685 0.0
H1626 H 0.29106 0.96857 0.31381 0.0
C1627 C 0.28425 0.97019 0.32685 0.0
H1628 H 0.26096 0.96538 0.33699 0.0
H1629 H 0.25148 0.9521 0.22886 0.0
H1630 H 0.27055 0.98184 0.22623 0.0
H1631 H 0.28415 0.99945 0.25914 0.0
H1632 H 0.27892 0.98737 0.29486 0.0
C1633 C 0.26808 0.96449 0.32381 0.0
C1634 C 0.25898 0.95437 0.30394 0.0
C1635 C 0.26183 0.96173 0.28325 0.0
C1636 C 0.25355 0.95168 0.26433 0.0
C1637 C 0.25708 0.95922 0.24381 0.0
C1638 C 0.26805 0.97627 0.24206 0.0
C1639 C 0.27574 0.98617 0.26058 0.0
C1640 C 0.27271 0.97906 0.28098 0.0
H1641 H 0.21817 0.93427 0.24269 0.0
C1642 C 0.22096 0.92484 0.23669 0.0
H1643 H 0.23551 0.91364 0.24239 0.0
H1644 H 0.25047 0.93629 0.34114 0.0
H1645 H 0.2305 0.90686 0.34389 0.0
H1646 H 0.21565 0.88963 0.31124 0.0
H1647 H 0.22061 0.90178 0.27562 0.0
C1648 C 0.23322 0.92373 0.24664 0.0
C1649 C 0.24211 0.9344 0.26623 0.0
C1650 C 0.23904 0.92711 0.28696 0.0
C1651 C 0.24748 0.93709 0.30582 0.0
C1652 C 0.24428 0.9294 0.32628 0.0
C1653 C 0.23288 0.91247 0.3281 0.0
C1654 C 0.22452 0.90278 0.30972 0.0
C1655 C 0.22751 0.90993 0.28936 0.0
H1656 H 0.67397 0.96702 0.297 0.0
C1657 C 0.68037 0.96692 0.31183 0.0
H1658 H 0.69583 0.95908 0.32624 0.0
H1659 H 0.67669 0.89937 0.25947 0.0
H1660 H 0.66222 0.88456 0.29129 0.0
H1661 H 0.66056 0.89986 0.32351 0.0
H1662 H 0.67343 0.93009 0.32419 0.0
C1663 C 0.68999 0.95998 0.31134 0.0
C1664 C 0.69084 0.95094 0.29152 0.0
C1665 C 0.68344 0.93327 0.29153 0.0
C1666 C 0.68444 0.92443 0.27297 0.0
C1667 C 0.67659 0.90675 0.27326 0.0
C1668 C 0.66816 0.89807 0.29138 0.0
C1669 C 0.66723 0.90669 0.30954 0.0
C1670 C 0.67472 0.92407 0.3097 0.0
H1671 H 0.71272 0.92083 0.25062 0.0
C1672 C 0.70484 0.91798 0.23615 0.0
H1673 H 0.68704 0.92245 0.22088 0.0
H1674 H 0.70692 0.98482 0.28635 0.0
H1675 H 0.72087 0.99953 0.25414 0.0
H1676 H 0.72208 0.9841 0.2217 0.0
H1677 H 0.70944 0.95384 0.22133 0.0
C1678 C 0.69448 0.92406 0.23536 0.0
C1679 C 0.69296 0.93329 0.25448 0.0
C1680 C 0.70007 0.9509 0.25428 0.0
C1681 C 0.69915 0.95977 0.27289 0.0
C1682 C 0.70692 0.97742 0.27251 0.0
C1683 C 0.71504 0.98603 0.25416 0.0
C1684 C 0.71574 0.97734 0.2359 0.0
C1685 C 0.70842 0.95999 0.23589 0.0
H1686 H 0.03673 0.73999 0.30387 0.0
C1687 C 0.0361 0.72898 0.2962 0.0
H1688 H 0.04438 0.71972 0.27061 0.0
H1689 H 0.06609 0.7838 0.21421 0.0
H1690 H 0.03969 0.76492 0.19654 0.0
H1691 H 0.02072 0.73775 0.21231 0.0
H1692 H 0.028 0.72934 0.24593 0.0
C1693 C 0.04536 0.73064 0.27902 0.0
C1694 C 0.05656 0.74727 0.27012 0.0
C1695 C 0.05218 0.75189 0.25036 0.0
C1696 C 0.06321 0.76742 0.2411 0.0
C1697 C 0.05835 0.77194 0.22165 0.0
C1698 C 0.04318 0.76127 0.21142 0.0
C1699 C 0.0325 0.74598 0.22031 0.0
C1700 C 0.03685 0.74129 0.23958 0.0
H1701 H 0.09491 0.77964 0.21631 0.0
C1702 C 0.09832 0.7921 0.22254 0.0
H1703 H 0.09485 0.80549 0.24835 0.0
H1704 H 0.06878 0.74205 0.3081 0.0
H1705 H 0.09512 0.76096 0.32579 0.0
H1706 H 0.11412 0.7881 0.30997 0.0
H1707 H 0.10701 0.79636 0.27611 0.0
C1708 C 0.09107 0.79343 0.24055 0.0
C1709 C 0.07873 0.77813 0.25143 0.0
C1710 C 0.08288 0.77376 0.27156 0.0
C1711 C 0.07182 0.75823 0.28085 0.0
C1712 C 0.07657 0.75383 0.30051 0.0
C1713 C 0.09167 0.76456 0.31083 0.0
C1714 C 0.10239 0.77982 0.30189 0.0
C1715 C 0.09815 0.78441 0.28245 0.0
H1716 H 0.26934 0.31591 0.33301 0.0
C1717 C 0.28212 0.32578 0.33231 0.0
H1718 H 0.3004 0.34367 0.31241 0.0
H1719 H 0.26278 0.30861 0.22329 0.0
H1720 H 0.28602 0.30398 0.22183 0.0
H1721 H 0.30498 0.31098 0.25354 0.0
H1722 H 0.30091 0.32276 0.2869 0.0
C1723 C 0.28768 0.3338 0.31361 0.0
C1724 C 0.2764 0.32986 0.29432 0.0
C1725 C 0.2789 0.3229 0.27502 0.0
C1726 C 0.26786 0.3187 0.2568 0.0
C1727 C 0.27073 0.31191 0.23765 0.0
C1728 C 0.28402 0.3092 0.23659 0.0
C1729 C 0.2947 0.31315 0.25445 0.0
C1730 C 0.29223 0.31991 0.27349 0.0
H1731 H 0.24995 0.34248 0.2342 0.0
C1732 C 0.24205 0.32962 0.22837 0.0
H1733 H 0.23513 0.30437 0.23385 0.0
H1734 H 0.26951 0.34563 0.32741 0.0
H1735 H 0.24561 0.34897 0.32953 0.0
H1736 H 0.22485 0.33885 0.2995 0.0
H1737 H 0.22815 0.32578 0.26697 0.0
C1738 C 0.24303 0.31742 0.23868 0.0
C1739 C 0.25431 0.3214 0.25795 0.0
C1740 C 0.25164 0.32808 0.27742 0.0
C1741 C 0.26302 0.33289 0.29531 0.0
C1742 C 0.26078 0.34084 0.31382 0.0
C1743 C 0.24717 0.343 0.31518 0.0
C1744 C 0.23554 0.33738 0.29824 0.0
C1745 C 0.23767 0.33001 0.27956 0.0
H1746 H 0.29645 0.38108 0.39355 0.0
C1747 C 0.29827 0.37189 0.402 0.0
H1748 H 0.29096 0.35493 0.42757 0.0
H1749 H 0.25922 0.40126 0.45977 0.0
H1750 H 0.28713 0.4248 0.46163 0.0
H1751 H 0.3102 0.42183 0.44836 0.0
H1752 H 0.30547 0.39549 0.43267 0.0
C1753 C 0.28928 0.36428 0.41931 0.0
C1754 C 0.27561 0.36671 0.42658 0.0
C1755 C 0.27878 0.38207 0.43645 0.0
C1756 C 0.26562 0.38354 0.44521 0.0
C1757 C 0.2689 0.39925 0.45386 0.0
C1758 C 0.28483 0.4129 0.45485 0.0
C1759 C 0.29781 0.41125 0.4473 0.0
C1760 C 0.2949 0.39604 0.43822 0.0
H1761 H 0.24897 0.37623 0.48756 0.0
C1762 C 0.23743 0.37268 0.47895 0.0
H1763 H 0.22486 0.36672 0.44845 0.0
H1764 H 0.2651 0.33627 0.40624 0.0
H1765 H 0.23727 0.31266 0.40481 0.0
H1766 H 0.21476 0.31459 0.42212 0.0
H1767 H 0.21988 0.34015 0.44073 0.0
C1768 C 0.23621 0.3699 0.45727 0.0
C1769 C 0.24955 0.36937 0.44521 0.0
C1770 C 0.24629 0.35424 0.43452 0.0
C1771 C 0.25932 0.35298 0.42501 0.0
C1772 C 0.25572 0.33779 0.41418 0.0
C1773 C 0.23978 0.32416 0.41314 0.0
C1774 C 0.22711 0.32526 0.42285 0.0
C1775 C 0.23024 0.34006 0.43347 0.0
H1776 H 0.63039 0.93113 0.37912 0.0
C1777 C 0.64076 0.94272 0.38557 0.0
H1778 H 0.65986 0.95387 0.4096 0.0
H1779 H 0.6206 0.89066 0.46934 0.0
H1780 H 0.61149 0.90884 0.4849 0.0
H1781 H 0.61807 0.93531 0.46768 0.0
H1782 H 0.63371 0.94367 0.43468 0.0
C1783 C 0.64982 0.94236 0.40243 0.0
C1784 C 0.64587 0.9264 0.41267 0.0
C1785 C 0.63698 0.92184 0.43213 0.0
C1786 C 0.63349 0.90676 0.4423 0.0
C1787 C 0.62405 0.90222 0.4613 0.0
C1788 C 0.61863 0.91249 0.47032 0.0
C1789 C 0.62232 0.92738 0.46061 0.0
C1790 C 0.63133 0.93204 0.4417 0.0
H1791 H 0.65259 0.89509 0.4707 0.0
C1792 C 0.64448 0.88263 0.4637 0.0
H1793 H 0.62942 0.86927 0.43614 0.0
H1794 H 0.66351 0.93176 0.37573 0.0
H1795 H 0.67309 0.91387 0.36046 0.0
H1796 H 0.66704 0.88767 0.37799 0.0
H1797 H 0.65165 0.87936 0.41117 0.0
C1798 C 0.63669 0.88129 0.44457 0.0
C1799 C 0.63928 0.89649 0.43324 0.0
C1800 C 0.64797 0.90094 0.41357 0.0
C1801 C 0.65133 0.91596 0.40332 0.0
C1802 C 0.66046 0.92039 0.38405 0.0
C1803 C 0.66603 0.91023 0.3751 0.0
C1804 C 0.66266 0.89551 0.38501 0.0
C1805 C 0.65378 0.89087 0.40404 0.0
H1806 H 0.07316 0.71049 0.35925 0.0
C1807 C 0.06033 0.70638 0.36227 0.0
H1808 H 0.04357 0.70541 0.3856 0.0
H1809 H 0.09467 0.7173 0.46357 0.0
H1810 H 0.0746 0.68801 0.46813 0.0
H1811 H 0.05186 0.6726 0.4412 0.0
H1812 H 0.04905 0.68639 0.40952 0.0
C1813 C 0.05627 0.70938 0.38201 0.0
C1814 C 0.06924 0.71898 0.3991 0.0
C1815 C 0.07055 0.71082 0.41767 0.0
C1816 C 0.08361 0.71975 0.43328 0.0
C1817 C 0.08488 0.71118 0.45139 0.0
C1818 C 0.07347 0.69436 0.45415 0.0
C1819 C 0.06067 0.68568 0.43898 0.0
C1820 C 0.05919 0.69373 0.42089 0.0
H1821 H 0.09472 0.74914 0.46939 0.0
C1822 C 0.10707 0.75201 0.46533 0.0
H1823 H 0.12146 0.74991 0.44067 0.0
H1824 H 0.06882 0.7391 0.36713 0.0
H1825 H 0.08851 0.76849 0.36306 0.0
H1826 H 0.11169 0.78368 0.3894 0.0
H1827 H 0.11512 0.76964 0.42025 0.0
C1828 C 0.10923 0.74622 0.44617 0.0
C1829 C 0.09524 0.73684 0.43033 0.0
C1830 C 0.09367 0.74511 0.41206 0.0
C1831 C 0.08053 0.73625 0.39659 0.0
C1832 C 0.07885 0.74505 0.37902 0.0
C1833 C 0.09002 0.76197 0.37654 0.0
C1834 C 0.10304 0.77053 0.3914 0.0
C1835 C 0.10488 0.76229 0.40902 0.0
H1836 H 0.34077 0.03496 0.713 0.0
C1837 C 0.33402 0.03534 0.6987 0.0
H1838 H 0.31901 0.0443 0.68575 0.0
H1839 H 0.30453 0.05147 0.78825 0.0
H1840 H 0.28753 0.02122 0.78636 0.0
H1841 H 0.28758 0.005 0.75405 0.0
H1842 H 0.30478 0.01893 0.72351 0.0
C1843 C 0.32515 0.04307 0.70012 0.0
C1844 C 0.32557 0.05255 0.72015 0.0
C1845 C 0.31528 0.04424 0.73767 0.0
C1846 C 0.31496 0.05365 0.75608 0.0
C1847 C 0.30491 0.045 0.77363 0.0
C1848 C 0.29517 0.02763 0.7728 0.0
C1849 C 0.29521 0.01849 0.75463 0.0
C1850 C 0.30514 0.02663 0.73722 0.0
H1851 H 0.29976 0.07553 0.76706 0.0
C1852 C 0.31032 0.08282 0.77801 0.0
H1853 H 0.33499 0.08903 0.7848 0.0
H1854 H 0.34757 0.07216 0.69001 0.0
H1855 H 0.36463 0.10239 0.69184 0.0
H1856 H 0.36348 0.1188 0.72318 0.0
H1857 H 0.3454 0.10509 0.75295 0.0
C1858 C 0.3238 0.08148 0.77519 0.0
C1859 C 0.32469 0.07136 0.75667 0.0
C1860 C 0.33532 0.07961 0.73938 0.0
C1861 C 0.33579 0.07018 0.72114 0.0
C1862 C 0.34658 0.07873 0.70414 0.0
C1863 C 0.35647 0.09608 0.70499 0.0
C1864 C 0.35583 0.10531 0.72264 0.0
C1865 C 0.34541 0.09725 0.73966 0.0
H1866 H 0.94546 0.2761 0.74441 0.0
C1867 C 0.95591 0.2763 0.73673 0.0
H1868 H 0.9693 0.26367 0.73272 0.0
H1869 H 0.92667 0.23681 0.82376 0.0
H1870 H 0.946 0.26457 0.83851 0.0
H1871 H 0.96722 0.28572 0.81555 0.0
H1872 H 0.96902 0.27939 0.77756 0.0
C1873 C 0.95895 0.26379 0.74015 0.0
C1874 C 0.94841 0.25016 0.75493 0.0
C1875 C 0.94801 0.25386 0.77735 0.0
C1876 C 0.93612 0.24152 0.79075 0.0
C1877 C 0.93556 0.24571 0.81288 0.0
C1878 C 0.94661 0.26156 0.82159 0.0
C1879 C 0.95853 0.27349 0.80864 0.0
C1880 C 0.95932 0.26974 0.7868 0.0
H1881 H 0.92354 0.1997 0.80303 0.0
C1882 C 0.91285 0.20105 0.80567 0.0
H1883 H 0.90089 0.21448 0.79694 0.0
H1884 H 0.94738 0.23849 0.71341 0.0
H1885 H 0.92889 0.21033 0.69907 0.0
H1886 H 0.90848 0.18877 0.72247 0.0
H1887 H 0.9064 0.19521 0.76035 0.0
C1888 C 0.91165 0.21312 0.7954 0.0
C1889 C 0.92507 0.22536 0.7819 0.0
C1890 C 0.92623 0.2213 0.7599 0.0
C1891 C 0.93797 0.23373 0.74639 0.0
C1892 C 0.93868 0.22949 0.72436 0.0
C1893 C 0.92815 0.21339 0.71594 0.0
C1894 C 0.91666 0.20124 0.72912 0.0
C1895 C 0.91561 0.20509 0.75084 0.0
H1896 H 0.70944 0.67878 0.71408 0.0
C1897 C 0.71593 0.67852 0.69974 0.0
H1898 H 0.73813 0.68191 0.68735 0.0
H1899 H 0.78932 0.72705 0.75922 0.0
H1900 H 0.79826 0.74487 0.72813 0.0
H1901 H 0.78099 0.73711 0.69457 0.0
H1902 H 0.7548 0.71132 0.69177 0.0
C1903 C 0.73173 0.68238 0.70168 0.0
C1904 C 0.74114 0.68766 0.72289 0.0
C1905 C 0.75617 0.70312 0.72458 0.0
C1906 C 0.76591 0.70784 0.74418 0.0
C1907 C 0.78124 0.72296 0.74495 0.0
C1908 C 0.78655 0.73333 0.72719 0.0
C1909 C 0.77685 0.72895 0.70828 0.0
C1910 C 0.76184 0.71405 0.70689 0.0
H1911 H 0.77024 0.67781 0.78041 0.0
C1912 C 0.77589 0.69011 0.78844 0.0
H1913 H 0.77693 0.71345 0.7898 0.0
H1914 H 0.71448 0.65572 0.72474 0.0
H1915 H 0.70411 0.63948 0.75699 0.0
H1916 H 0.7185 0.65022 0.7926 0.0
H1917 H 0.74382 0.67697 0.79578 0.0
C1918 C 0.77158 0.7012 0.78178 0.0
C1919 C 0.76036 0.69736 0.76235 0.0
C1920 C 0.74471 0.68258 0.76123 0.0
C1921 C 0.73557 0.6772 0.74117 0.0
C1922 C 0.72121 0.66119 0.73988 0.0
C1923 C 0.71521 0.65158 0.75826 0.0
C1924 C 0.72337 0.65757 0.77826 0.0
C1925 C 0.73796 0.67286 0.77982 0.0
H1926 H 0.70329 0.62174 0.64046 0.0
C1927 C 0.70064 0.63032 0.63183 0.0
H1928 H 0.7065 0.64654 0.60554 0.0
H1929 H 0.77886 0.66513 0.59281 0.0
H1930 H 0.78309 0.68948 0.6138 0.0
H1931 H 0.76 0.68966 0.63211 0.0
H1932 H 0.73251 0.6655 0.62934 0.0
C1933 C 0.709 0.63782 0.61405 0.0
C1934 C 0.72306 0.63623 0.60651 0.0
C1935 C 0.73913 0.65026 0.60877 0.0
C1936 C 0.75246 0.65001 0.5986 0.0
C1937 C 0.76829 0.66447 0.60047 0.0
C1938 C 0.7709 0.67858 0.61246 0.0
C1939 C 0.7579 0.6787 0.62273 0.0
C1940 C 0.74217 0.66476 0.62094 0.0
H1941 H 0.75098 0.63174 0.54334 0.0
C1942 C 0.76246 0.63497 0.55189 0.0
H1943 H 0.7746 0.63904 0.5825 0.0
H1944 H 0.69385 0.60694 0.59976 0.0
H1945 H 0.68995 0.58174 0.58126 0.0
H1946 H 0.71347 0.58061 0.56584 0.0
H1947 H 0.74097 0.60481 0.56846 0.0
C1948 C 0.76332 0.63622 0.57376 0.0
C1949 C 0.74969 0.6356 0.5864 0.0
C1950 C 0.73386 0.62108 0.58564 0.0
C1951 C 0.72043 0.6215 0.59533 0.0
C1952 C 0.70456 0.60717 0.59321 0.0
C1953 C 0.70215 0.59263 0.58259 0.0
C1954 C 0.71538 0.592 0.57385 0.0
C1955 C 0.73108 0.60602 0.57533 0.0
H1956 H 0.37891 0.07113 0.62884 0.0
C1957 C 0.36849 0.05943 0.62272 0.0
H1958 H 0.34808 0.04809 0.60065 0.0
H1959 H 0.35666 0.12329 0.61023 0.0
H1960 H 0.3451 0.11443 0.6458 0.0
H1961 H 0.34019 0.08761 0.66007 0.0
H1962 H 0.34728 0.06968 0.63923 0.0
C1963 C 0.35815 0.05968 0.6076 0.0
C1964 C 0.36069 0.07567 0.59886 0.0
C1965 C 0.35669 0.08609 0.61144 0.0
C1966 C 0.35922 0.10141 0.603 0.0
C1967 C 0.35501 0.11153 0.61583 0.0
C1968 C 0.34834 0.10658 0.63627 0.0
C1969 C 0.34564 0.09151 0.64435 0.0
C1970 C 0.34978 0.08135 0.6322 0.0
H1971 H 0.34825 0.10955 0.55009 0.0
C1972 C 0.35782 0.12166 0.55658 0.0
H1973 H 0.37661 0.1336 0.58104 0.0
H1974 H 0.36901 0.05823 0.57034 0.0
H1975 H 0.38001 0.06674 0.53442 0.0
H1976 H 0.38497 0.09358 0.52007 0.0
H1977 H 0.37885 0.112 0.54144 0.0
C1978 C 0.36764 0.12194 0.57295 0.0
C1979 C 0.36548 0.10613 0.58189 0.0
C1980 C 0.36945 0.09567 0.56929 0.0
C1981 C 0.36687 0.08033 0.57772 0.0
C1982 C 0.37077 0.07003 0.56475 0.0
C1983 C 0.37711 0.07477 0.54411 0.0
C1984 C 0.37988 0.08987 0.53602 0.0
C1985 C 0.3762 0.10028 0.54842 0.0
H1986 H 0.95365 0.3044 0.63749 0.0
C1987 C 0.94533 0.29867 0.65078 0.0
H1988 H 0.92131 0.28135 0.65992 0.0
H1989 H 0.8784 0.27466 0.57909 0.0
H1990 H 0.86894 0.28703 0.60606 0.0
H1991 H 0.88395 0.29807 0.64119 0.0
H1992 H 0.90837 0.2965 0.64969 0.0
C1993 C 0.92952 0.28704 0.6465 0.0
C1994 C 0.92211 0.28243 0.624 0.0
C1995 C 0.90821 0.28407 0.61887 0.0
C1996 C 0.89988 0.27823 0.59829 0.0
C1997 C 0.88551 0.27924 0.59418 0.0
C1998 C 0.87988 0.28629 0.60956 0.0
C1999 C 0.8883 0.29247 0.62936 0.0
C2000 C 0.90229 0.29141 0.63405 0.0
H2001 H 0.89429 0.24016 0.5665 0.0
C2002 C 0.89029 0.24724 0.55676 0.0
H2003 H 0.89213 0.27064 0.55212 0.0
H2004 H 0.94716 0.27533 0.62885 0.0
H2005 H 0.95844 0.2659 0.60049 0.0
H2006 H 0.94668 0.26019 0.56306 0.0
H2007 H 0.92309 0.26323 0.55411 0.0
C2008 C 0.89587 0.26343 0.56201 0.0
C2009 C 0.90579 0.2713 0.5825 0.0
C2010 C 0.9205 0.27097 0.58698 0.0
C2011 C 0.92818 0.2757 0.60807 0.0
C2012 C 0.94157 0.27317 0.61276 0.0
C2013 C 0.94808 0.26756 0.59665 0.0
C2014 C 0.9414 0.26425 0.57562 0.0
C2015 C 0.92776 0.26589 0.57076 0.0
H2016 H 0.33283 0.30396 0.64427 0.0
C2017 C 0.33928 0.30327 0.65869 0.0
H2018 H 0.35374 0.29379 0.67194 0.0
H2019 H 0.32944 0.23245 0.60743 0.0
H2020 H 0.31379 0.219 0.63919 0.0
H2021 H 0.31303 0.23574 0.6704 0.0
H2022 H 0.32804 0.26603 0.67011 0.0
C2023 C 0.34792 0.29527 0.6574 0.0
C2024 C 0.34731 0.28547 0.63756 0.0
C2025 C 0.33826 0.26775 0.63783 0.0
C2026 C 0.33845 0.2581 0.61967 0.0
C2027 C 0.32955 0.24042 0.62062 0.0
C2028 C 0.32053 0.23252 0.63878 0.0
C2029 C 0.32013 0.24194 0.65637 0.0
C2030 C 0.32886 0.25934 0.656 0.0
H2031 H 0.37257 0.26274 0.58813 0.0
C2032 C 0.36153 0.25505 0.57815 0.0
H2033 H 0.33631 0.24758 0.57406 0.0
H2034 H 0.36614 0.31914 0.63187 0.0
H2035 H 0.38097 0.33264 0.59953 0.0
H2036 H 0.38034 0.31591 0.5674 0.0
H2037 H 0.36504 0.28557 0.56749 0.0
C2038 C 0.34793 0.25585 0.58246 0.0
C2039 C 0.34762 0.26617 0.60117 0.0
C2040 C 0.35629 0.2839 0.60064 0.0
C2041 C 0.35628 0.29356 0.61896 0.0
C2042 C 0.36547 0.31122 0.61826 0.0
C2043 C 0.37406 0.31912 0.59982 0.0
C2044 C 0.37373 0.3097 0.58174 0.0
C2045 C 0.36496 0.29229 0.58204 0.0
H2046 H 0.72276 0.05169 0.59982 0.0
C2047 C 0.71355 0.05352 0.60791 0.0
H2048 H 0.70428 0.06993 0.61314 0.0
H2049 H 0.77252 0.13261 0.58686 0.0
H2050 H 0.77269 0.13827 0.62561 0.0
H2051 H 0.75116 0.11768 0.64882 0.0
H2052 H 0.7293 0.09131 0.63341 0.0
C2053 C 0.71322 0.06771 0.60503 0.0
C2054 C 0.72526 0.08073 0.59072 0.0
C2055 C 0.73777 0.09615 0.59996 0.0
C2056 C 0.75018 0.10801 0.58659 0.0
C2057 C 0.76274 0.1232 0.59627 0.0
C2058 C 0.763 0.12659 0.61849 0.0
C2059 C 0.75088 0.115 0.63155 0.0
C2060 C 0.7384 0.09992 0.6225 0.0
H2061 H 0.75239 0.1311 0.54537 0.0
C2062 C 0.76262 0.12923 0.54146 0.0
H2063 H 0.77358 0.11439 0.54757 0.0
H2064 H 0.70157 0.05349 0.56724 0.0
H2065 H 0.70151 0.04782 0.52855 0.0
H2066 H 0.72374 0.06787 0.50571 0.0
H2067 H 0.74598 0.09389 0.52135 0.0
C2068 C 0.7633 0.11639 0.55023 0.0
C2069 C 0.74997 0.10441 0.56405 0.0
C2070 C 0.73722 0.0892 0.55469 0.0
C2071 C 0.72469 0.07744 0.56798 0.0
C2072 C 0.71173 0.06261 0.55806 0.0
C2073 C 0.71147 0.05926 0.53583 0.0
C2074 C 0.72395 0.07058 0.52295 0.0
C2075 C 0.73667 0.08544 0.53215 0.0
H2076 H 0.95846 0.66856 0.64291 0.0
C2077 C 0.95146 0.66081 0.65621 0.0
H2078 H 0.92802 0.64285 0.66672 0.0
H2079 H 0.88841 0.66473 0.60574 0.0
H2080 H 0.88288 0.67168 0.64162 0.0
H2081 H 0.89725 0.66952 0.67423 0.0
H2082 H 0.9171 0.66026 0.67117 0.0
C2083 C 0.9352 0.65035 0.65336 0.0
C2084 C 0.9262 0.65094 0.63355 0.0
C2085 C 0.91471 0.65654 0.63565 0.0
C2086 C 0.90669 0.65815 0.61682 0.0
C2087 C 0.8951 0.66355 0.61943 0.0
C2088 C 0.89175 0.66755 0.63996 0.0
C2089 C 0.89982 0.66631 0.65831 0.0
C2090 C 0.91118 0.66091 0.6563 0.0
H2091 H 0.88888 0.63144 0.56687 0.0
C2092 C 0.89091 0.64391 0.56407 0.0
H2093 H 0.90476 0.66948 0.57371 0.0
H2094 H 0.94571 0.63759 0.62405 0.0
H2095 H 0.95188 0.63139 0.58805 0.0
H2096 H 0.93958 0.6362 0.55521 0.0
H2097 H 0.92082 0.64694 0.55816 0.0
C2098 C 0.90231 0.65687 0.57638 0.0
C2099 C 0.91031 0.65434 0.59588 0.0
C2100 C 0.92169 0.64859 0.59378 0.0
C2101 C 0.92937 0.64654 0.61268 0.0
C2102 C 0.94005 0.64001 0.61021 0.0
C2103 C 0.94361 0.63629 0.58964 0.0
C2104 C 0.93664 0.63895 0.57115 0.0
C2105 C 0.92581 0.64504 0.57309 0.0
H2106 H 0.96954 0.71364 0.72436 0.0
C2107 C 0.96887 0.70245 0.73081 0.0
H2108 H 0.95675 0.68234 0.75194 0.0
H2109 H 0.9334 0.73308 0.79378 0.0
H2110 H 0.96219 0.75174 0.80357 0.0
H2111 H 0.9835 0.74569 0.79089 0.0
H2112 H 0.97622 0.72122 0.76792 0.0
C2113 C 0.95771 0.6937 0.74568 0.0
C2114 C 0.94525 0.69806 0.75269 0.0
C2115 C 0.94974 0.7121 0.76676 0.0
C2116 C 0.93738 0.7151 0.77503 0.0
C2117 C 0.94223 0.72975 0.78799 0.0
C2118 C 0.95871 0.74064 0.79356 0.0
C2119 C 0.97072 0.73727 0.78635 0.0
C2120 C 0.96636 0.72319 0.7731 0.0
H2121 H 0.91634 0.7041 0.81312 0.0
C2122 C 0.90649 0.70408 0.80357 0.0
H2123 H 0.89778 0.70518 0.77215 0.0
H2124 H 0.93292 0.67157 0.72348 0.0
H2125 H 0.90419 0.65315 0.71325 0.0
H2126 H 0.88256 0.65728 0.72933 0.0
H2127 H 0.88949 0.67994 0.75545 0.0
C2128 C 0.90738 0.7048 0.78177 0.0
C2129 C 0.92053 0.70352 0.77023 0.0
C2130 C 0.91615 0.69003 0.75514 0.0
C2131 C 0.92856 0.6874 0.74624 0.0
C2132 C 0.92393 0.67396 0.73102 0.0
C2133 C 0.9075 0.66331 0.72496 0.0
C2134 C 0.89533 0.66566 0.73399 0.0
C2135 C 0.8995 0.67878 0.74897 0.0
H2136 H 0.28936 0.26649 0.72457 0.0
C2137 C 0.30067 0.27729 0.73078 0.0
H2138 H 0.32193 0.28571 0.751 0.0
H2139 H 0.27868 0.21537 0.79957 0.0
H2140 H 0.26542 0.22946 0.81607 0.0
H2141 H 0.27093 0.25693 0.80341 0.0
H2142 H 0.28965 0.27042 0.77407 0.0
C2143 C 0.31054 0.27513 0.7447 0.0
C2144 C 0.30653 0.25823 0.75163 0.0
C2145 C 0.29565 0.2506 0.76888 0.0
C2146 C 0.29273 0.23492 0.77646 0.0
C2147 C 0.28161 0.22744 0.7935 0.0
C2148 C 0.27386 0.23535 0.80304 0.0
C2149 C 0.27695 0.25081 0.79589 0.0
C2150 C 0.2877 0.25841 0.77902 0.0
H2151 H 0.31446 0.22445 0.80332 0.0
C2152 C 0.30685 0.21228 0.79526 0.0
H2153 H 0.29239 0.19991 0.76686 0.0
H2154 H 0.32759 0.26924 0.71773 0.0
H2155 H 0.3409 0.25516 0.7013 0.0
H2156 H 0.33577 0.22794 0.71439 0.0
H2157 H 0.31751 0.21471 0.74428 0.0
C2158 C 0.29915 0.21154 0.77631 0.0
C2159 C 0.30088 0.22706 0.76698 0.0
C2160 C 0.31133 0.23443 0.74925 0.0
C2161 C 0.31423 0.25009 0.74164 0.0
C2162 C 0.32498 0.25736 0.72418 0.0
C2163 C 0.33266 0.2494 0.71456 0.0
C2164 C 0.32979 0.23408 0.72196 0.0
C2165 C 0.31928 0.22662 0.73912 0.0
H2166 H 0.71536 0.03701 0.70794 0.0
C2167 C 0.72278 0.03539 0.69581 0.0
H2168 H 0.7463 0.03928 0.68848 0.0
H2169 H 0.78472 0.09975 0.75527 0.0
H2170 H 0.79119 0.11404 0.72109 0.0
H2171 H 0.7774 0.0989 0.68675 0.0
H2172 H 0.757 0.06939 0.68642 0.0
C2173 C 0.73857 0.04027 0.70069 0.0
C2174 C 0.74665 0.04921 0.72162 0.0
C2175 C 0.75875 0.06641 0.72148 0.0
C2176 C 0.76684 0.0751 0.74123 0.0
C2177 C 0.77849 0.09242 0.74069 0.0
C2178 C 0.78225 0.10082 0.72119 0.0
C2179 C 0.77448 0.0923 0.70186 0.0
C2180 C 0.76282 0.07533 0.70191 0.0
H2181 H 0.79369 0.07599 0.77256 0.0
C2182 C 0.78792 0.07981 0.78486 0.0
H2183 H 0.76534 0.07793 0.79383 0.0
H2184 H 0.72457 0.01609 0.72755 0.0
H2185 H 0.71782 0.00193 0.76186 0.0
H2186 H 0.73157 0.01714 0.79619 0.0
H2187 H 0.75225 0.04662 0.79639 0.0
C2188 C 0.77204 0.07538 0.78159 0.0
C2189 C 0.76302 0.06649 0.76107 0.0
C2190 C 0.7507 0.04939 0.76128 0.0
C2191 C 0.7426 0.04068 0.74151 0.0
C2192 C 0.73082 0.02343 0.74212 0.0
C2193 C 0.7269 0.01511 0.7617 0.0
C2194 C 0.73465 0.02367 0.78103 0.0
C2195 C 0.74648 0.04059 0.78092 0.0
H2196 H 0.04717 0.32908 0.04808 0.0
C2197 C 0.04511 0.32249 0.03248 0.0
H2198 H 0.05062 0.3069 0.01317 0.0
H2199 H 0.11881 0.33091 0.062 0.0
H2200 H 0.12748 0.34328 0.02686 0.0
H2201 H 0.10726 0.34184 0.99957 0.0
H2202 H 0.07827 0.32811 0.00735 0.0
C2203 C 0.0521 0.31306 0.02895 0.0
C2204 C 0.06396 0.31282 0.0451 0.0
C2205 C 0.08084 0.32051 0.04007 0.0
C2206 C 0.09247 0.32108 0.05567 0.0
C2207 C 0.10935 0.32959 0.05056 0.0
C2208 C 0.11454 0.33689 0.03048 0.0
C2209 C 0.10316 0.3361 0.01513 0.0
C2210 C 0.08652 0.32811 0.01981 0.0
H2211 H 0.10418 0.29774 0.07503 0.0
C2212 C 0.10723 0.30573 0.08958 0.0
H2213 H 0.101 0.32149 0.10755 0.0
H2214 H 0.03237 0.2958 0.05924 0.0
H2215 H 0.02366 0.28337 0.09445 0.0
H2216 H 0.04386 0.28464 0.12166 0.0
H2217 H 0.07289 0.29825 0.11377 0.0
C2218 C 0.09926 0.3143 0.09261 0.0
C2219 C 0.08714 0.3136 0.07612 0.0
C2220 C 0.07025 0.30583 0.08109 0.0
C2221 C 0.05862 0.3053 0.06551 0.0
C2222 C 0.04177 0.29695 0.07067 0.0
C2223 C 0.03659 0.28966 0.09077 0.0
C2224 C 0.04796 0.29036 0.10608 0.0
C2225 C 0.0646 0.29826 0.10136 0.0
H2226 H 0.6425 0.69874 0.06011 0.0
C2227 C 0.65193 0.69632 0.05399 0.0
H2228 H 0.67733 0.70692 0.04822 0.0
H2229 H 0.68926 0.78137 0.05116 0.0
H2230 H 0.69251 0.77789 0.01268 0.0
H2231 H 0.6864 0.75051 0.99709 0.0
H2232 H 0.67708 0.72642 0.01994 0.0
C2233 C 0.66759 0.70893 0.05408 0.0
C2234 C 0.67212 0.72568 0.06366 0.0
C2235 C 0.67752 0.7396 0.05012 0.0
C2236 C 0.68085 0.75535 0.05909 0.0
C2237 C 0.68635 0.76907 0.04518 0.0
C2238 C 0.68831 0.76726 0.02307 0.0
C2239 C 0.68488 0.75185 0.01429 0.0
C2240 C 0.67954 0.73813 0.02758 0.0
H2241 H 0.70185 0.77783 0.11027 0.0
C2242 C 0.69368 0.78247 0.10556 0.0
H2243 H 0.67384 0.7781 0.08431 0.0
H2244 H 0.66486 0.70238 0.09493 0.0
H2245 H 0.66072 0.70548 0.13313 0.0
H2246 H 0.66384 0.73192 0.14802 0.0
H2247 H 0.67152 0.75549 0.12495 0.0
C2248 C 0.68158 0.77347 0.09067 0.0
C2249 C 0.67872 0.75713 0.08158 0.0
C2250 C 0.67339 0.74318 0.09517 0.0
C2251 C 0.67061 0.72762 0.08633 0.0
C2252 C 0.66636 0.71424 0.10054 0.0
C2253 C 0.66406 0.71588 0.12256 0.0
C2254 C 0.66589 0.73078 0.13096 0.0
C2255 C 0.67046 0.74429 0.11752 0.0
H2256 H 0.30412 0.95187 0.03694 0.0
C2257 C 0.29913 0.95545 0.02334 0.0
H2258 H 0.27836 0.95574 0.01022 0.0
H2259 H 0.22833 0.89388 0.06383 0.0
H2260 H 0.22383 0.88125 0.02762 0.0
H2261 H 0.24171 0.89694 0.99763 0.0
H2262 H 0.26416 0.92536 0.00366 0.0
C2263 C 0.28371 0.95273 0.02398 0.0
C2264 C 0.27283 0.94361 0.04212 0.0
C2265 C 0.25975 0.92701 0.03828 0.0
C2266 C 0.24956 0.91792 0.0556 0.0
C2267 C 0.23656 0.90134 0.05131 0.0
C2268 C 0.23381 0.89393 0.03059 0.0
C2269 C 0.24387 0.90277 0.0137 0.0
C2270 C 0.25671 0.9191 0.0174 0.0
H2271 H 0.22918 0.92886 0.09645 0.0
C2272 C 0.22986 0.91811 0.10202 0.0
H2273 H 0.24316 0.90519 0.10008 0.0
H2274 H 0.29589 0.9757 0.05449 0.0
H2275 H 0.30053 0.98826 0.09082 0.0
H2276 H 0.28342 0.97214 0.12116 0.0
H2277 H 0.26144 0.9434 0.11532 0.0
C2278 C 0.24187 0.91559 0.09467 0.0
C2279 C 0.25242 0.92547 0.07669 0.0
C2280 C 0.26537 0.94213 0.08051 0.0
C2281 C 0.27551 0.95128 0.06313 0.0
C2282 C 0.28808 0.96805 0.06722 0.0
C2283 C 0.29083 0.97544 0.08797 0.0
C2284 C 0.28117 0.96637 0.10505 0.0
C2285 C 0.26858 0.9499 0.10146 0.0
H2286 H 0.31963 0.01424 0.96712 0.0
C2287 C 0.33076 0.01808 0.9581 0.0
H2288 H 0.34624 0.03378 0.93395 0.0
H2289 H 0.29439 0.04377 0.88298 0.0
H2290 H 0.29238 0.0203 0.86194 0.0
H2291 H 0.30519 0.00443 0.87558 0.0
H2292 H 0.32015 0.01197 0.91032 0.0
C2293 C 0.33558 0.03037 0.94379 0.0
C2294 C 0.32532 0.03783 0.93796 0.0
C2295 C 0.3163 0.033 0.91788 0.0
C2296 C 0.30881 0.04204 0.91011 0.0
C2297 C 0.30026 0.03727 0.8897 0.0
C2298 C 0.299 0.02382 0.87746 0.0
C2299 C 0.30623 0.01489 0.88513 0.0
C2300 C 0.31481 0.01938 0.90507 0.0
H2301 H 0.33006 0.08675 0.91102 0.0
C2302 C 0.31732 0.08265 0.90651 0.0
H2303 H 0.29272 0.06272 0.90837 0.0
H2304 H 0.34032 0.04918 0.97808 0.0
H2305 H 0.34095 0.07162 1.0001 0.0
H2306 H 0.32717 0.08674 0.98708 0.0
H2307 H 0.3128 0.07961 0.95185 0.0
C2308 C 0.30562 0.06736 0.91225 0.0
C2309 C 0.31044 0.05592 0.92241 0.0
C2310 C 0.31823 0.05982 0.94335 0.0
C2311 C 0.32584 0.05085 0.95106 0.0
C2312 C 0.33416 0.05546 0.97159 0.0
C2313 C 0.33461 0.06831 0.98437 0.0
C2314 C 0.32687 0.07684 0.97703 0.0
C2315 C 0.31876 0.0727 0.95676 0.0
H2316 H 0.97399 0.28509 0.98383 0.0
C2317 C 0.97035 0.29362 0.9772 0.0
H2318 H 0.95298 0.29593 0.95762 0.0
H2319 H 0.92957 0.23139 0.89953 0.0
H2320 H 0.94647 0.25293 0.87455 0.0
H2321 H 0.96367 0.28231 0.88734 0.0
H2322 H 0.96418 0.29028 0.92526 0.0
C2323 C 0.95636 0.28746 0.96508 0.0
C2324 C 0.94669 0.26951 0.95799 0.0
C2325 C 0.94651 0.26509 0.93571 0.0
C2326 C 0.93656 0.24818 0.92827 0.0
C2327 C 0.93676 0.24408 0.906 0.0
C2328 C 0.94644 0.25632 0.89147 0.0
C2329 C 0.95613 0.27285 0.89869 0.0
C2330 C 0.95625 0.27725 0.92052 0.0
H2331 H 0.89707 0.22379 0.92546 0.0
C2332 C 0.90078 0.21436 0.92541 0.0
H2333 H 0.91934 0.20921 0.93614 0.0
H2334 H 0.94395 0.27364 0.00166 0.0
H2335 H 0.92759 0.25183 0.02671 0.0
H2336 H 0.9108 0.22242 0.01382 0.0
H2337 H 0.9102 0.21466 0.97569 0.0
C2338 C 0.91536 0.21835 0.9348 0.0
C2339 C 0.9267 0.23574 0.94305 0.0
C2340 C 0.92726 0.24001 0.96541 0.0
C2341 C 0.93717 0.25695 0.97289 0.0
C2342 C 0.93696 0.26095 0.99517 0.0
C2343 C 0.92755 0.24855 0.00971 0.0
C2344 C 0.91808 0.232 0.00244 0.0
C2345 C 0.91784 0.22771 0.98055 0.0
H2346 H 0.71077 0.65718 0.00652 0.0
C2347 C 0.7022 0.66139 0.0021 0.0
H2348 H 0.69638 0.67458 0.97912 0.0
H2349 H 0.77257 0.71025 0.95299 0.0
H2350 H 0.77242 0.73305 0.97296 0.0
H2351 H 0.74753 0.72875 0.99141 0.0
H2352 H 0.72262 0.70153 0.99008 0.0
C2353 C 0.70446 0.66983 0.98375 0.0
C2354 C 0.71843 0.67308 0.96969 0.0
C2355 C 0.73267 0.68916 0.96998 0.0
C2356 C 0.74693 0.6917 0.95901 0.0
C2357 C 0.76126 0.70769 0.96053 0.0
C2358 C 0.76137 0.72088 0.97205 0.0
C2359 C 0.74736 0.71846 0.98247 0.0
C2360 C 0.73316 0.70279 0.98158 0.0
H2361 H 0.76196 0.69578 0.91273 0.0
C2362 C 0.76778 0.68905 0.91913 0.0
H2363 H 0.76749 0.67358 0.94429 0.0
H2364 H 0.69236 0.64135 0.9634 0.0
H2365 H 0.69213 0.61865 0.94258 0.0
H2366 H 0.71685 0.62295 0.92365 0.0
H2367 H 0.74192 0.64997 0.92537 0.0
C2368 C 0.76185 0.68022 0.93718 0.0
C2369 C 0.74673 0.67818 0.94738 0.0
C2370 C 0.73221 0.6623 0.94626 0.0
C2371 C 0.71802 0.65977 0.95731 0.0
C2372 C 0.70359 0.64385 0.95566 0.0
C2373 C 0.70326 0.63074 0.94366 0.0
C2374 C 0.71718 0.63317 0.93299 0.0
C2375 C 0.7315 0.64873 0.93417 0.0
H2376 H 0.95893 0.67998 0.9889 0.0
C2377 C 0.95391 0.66652 0.98846 0.0
H2378 H 0.93471 0.64316 0.97652 0.0
H2379 H 0.88329 0.66723 0.96279 0.0
H2380 H 0.8718 0.64863 0.99291 0.0
H2381 H 0.88716 0.63673 0.01075 0.0
H2382 H 0.91412 0.64337 0.99861 0.0
C2383 C 0.94017 0.65667 0.97648 0.0
C2384 C 0.93087 0.66364 0.96515 0.0
C2385 C 0.91501 0.65946 0.9723 0.0
C2386 C 0.9061 0.66625 0.96194 0.0
C2387 C 0.89048 0.6622 0.96979 0.0
C2388 C 0.88376 0.6516 0.98716 0.0
C2389 C 0.89241 0.64491 0.9972 0.0
C2390 C 0.90788 0.64879 0.99 0.0
H2391 H 0.88785 0.66149 0.9163 0.0
C2392 C 0.89085 0.67435 0.91949 0.0
H2393 H 0.90777 0.6972 0.93573 0.0
H2394 H 0.96022 0.67293 0.94588 0.0
H2395 H 0.97171 0.69167 0.91589 0.0
H2396 H 0.95657 0.70407 0.89869 0.0
H2397 H 0.92975 0.69768 0.9113 0.0
C2398 C 0.90357 0.684 0.93322 0.0
C2399 C 0.91298 0.67709 0.94432 0.0
C2400 C 0.92882 0.68129 0.93718 0.0
C2401 C 0.9377 0.6744 0.9474 0.0
C2402 C 0.95316 0.67821 0.93921 0.0
C2403 C 0.95986 0.68886 0.92188 0.0
C2404 C 0.95132 0.69582 0.91217 0.0
C2405 C 0.93595 0.69208 0.9196 0.0
H2406 H 0.36595 0.29551 0.95937 0.0
C2407 C 0.3569 0.29828 0.96607 0.0
H2408 H 0.33177 0.28835 0.97316 0.0
H2409 H 0.33633 0.23964 0.89544 0.0
H2410 H 0.34395 0.2633 0.87263 0.0
H2411 H 0.34694 0.28962 0.88782 0.0
H2412 H 0.34283 0.2925 0.92609 0.0
C2413 C 0.34117 0.28594 0.96695 0.0
C2414 C 0.33599 0.26911 0.95717 0.0
C2415 C 0.33721 0.26724 0.93442 0.0
C2416 C 0.33429 0.2517 0.92538 0.0
C2417 C 0.3373 0.25075 0.90301 0.0
C2418 C 0.34187 0.26434 0.88971 0.0
C2419 C 0.34364 0.27917 0.89828 0.0
C2420 C 0.34138 0.28069 0.92034 0.0
H2421 H 0.30607 0.21775 0.90918 0.0
C2422 C 0.31401 0.21285 0.91397 0.0
H2423 H 0.33325 0.21646 0.93593 0.0
H2424 H 0.33126 0.26825 0.00095 0.0
H2425 H 0.32156 0.24396 0.02351 0.0
H2426 H 0.31479 0.21648 0.00751 0.0
H2427 H 0.3178 0.21313 0.9689 0.0
C2428 C 0.32573 0.22133 0.9295 0.0
C2429 C 0.32879 0.23765 0.93882 0.0
C2430 C 0.32672 0.23932 0.96135 0.0
C2431 C 0.3304 0.2551 0.97055 0.0
C2432 C 0.32853 0.25651 0.99315 0.0
C2433 C 0.32297 0.24268 0.00627 0.0
C2434 C 0.31917 0.22721 0.99726 0.0
C2435 C 0.32099 0.22547 0.97508 0.0
H2436 H 0.71399 0.06098 0.00234 0.0
C2437 C 0.70596 0.04754 1.00003 0.0
H2438 H 0.70079 0.02609 0.98087 0.0
H2439 H 0.7446 0.09176 0.91877 0.0
H2440 H 0.71948 0.09305 0.91583 0.0
H2441 H 0.69506 0.07396 0.93632 0.0
H2442 H 0.69565 0.05352 0.95998 0.0
C2443 C 0.7083 0.03957 0.9832 0.0
C2444 C 0.72192 0.04909 0.96813 0.0
C2445 C 0.72125 0.06072 0.95405 0.0
C2446 C 0.73525 0.07157 0.94205 0.0
C2447 C 0.73433 0.08324 0.92833 0.0
C2448 C 0.71997 0.08409 0.92643 0.0
C2449 C 0.70623 0.07335 0.93798 0.0
C2450 C 0.70677 0.06175 0.95161 0.0
H2451 H 0.76488 0.06615 0.91001 0.0
C2452 C 0.77075 0.07916 0.9156 0.0
H2453 H 0.77058 0.09594 0.93942 0.0
H2454 H 0.72647 0.02684 0.99166 0.0
H2455 H 0.75132 0.02499 0.99395 0.0
H2456 H 0.77584 0.04414 0.97367 0.0
H2457 H 0.77565 0.06518 0.95092 0.0
C2458 C 0.76482 0.08316 0.93304 0.0
C2459 C 0.74978 0.07058 0.94388 0.0
C2460 C 0.75016 0.05834 0.95709 0.0
C2461 C 0.73612 0.04746 0.96905 0.0
C2462 C 0.73682 0.03545 0.9823 0.0
C2463 C 0.751 0.03425 0.98376 0.0
C2464 C 0.7648 0.04503 0.97232 0.0
C2465 C 0.76449 0.05701 0.95921 0.0
H2466 H 0.64911 0.94986 0.05745 0.0
C2467 C 0.65849 0.96204 0.05204 0.0
H2468 H 0.68395 0.9781 0.04807 0.0
H2469 H 0.69529 0.94033 0.12634 0.0
H2470 H 0.70382 0.96748 0.14298 0.0
H2471 H 0.70134 0.98895 0.12277 0.0
H2472 H 0.69011 0.98327 0.08584 0.0
C2473 C 0.67422 0.96566 0.05199 0.0
C2474 C 0.6788 0.95399 0.06209 0.0
C2475 C 0.68613 0.9578 0.08329 0.0
C2476 C 0.68798 0.94557 0.09473 0.0
C2477 C 0.69419 0.94931 0.1165 0.0
C2478 C 0.69902 0.96484 0.12637 0.0
C2479 C 0.69759 0.97691 0.11501 0.0
C2480 C 0.69113 0.97347 0.09379 0.0
H2481 H 0.70954 0.92917 0.09981 0.0
C2482 C 0.69817 0.91774 0.10313 0.0
H2483 H 0.67218 0.90536 0.10014 0.0
H2484 H 0.66617 0.9436 0.02078 0.0
H2485 H 0.65834 0.91668 0.00345 0.0
H2486 H 0.66191 0.89556 0.02296 0.0
H2487 H 0.6733 0.9012 0.05988 0.0
C2488 C 0.6838 0.91642 0.09677 0.0
C2489 C 0.68305 0.92978 0.08455 0.0
C2490 C 0.67644 0.9263 0.06294 0.0
C2491 C 0.67433 0.93843 0.0517 0.0
C2492 C 0.66777 0.93468 0.03013 0.0
C2493 C 0.66332 0.91934 0.01997 0.0
C2494 C 0.66534 0.90745 0.03095 0.0
C2495 C 0.67184 0.91083 0.05217 0.0
H2496 H 0.03635 0.71559 0.03605 0.0
C2497 C 0.03758 0.70722 0.04709 0.0
H2498 H 0.05085 0.70504 0.07357 0.0
H2499 H 0.11811 0.76984 0.07391 0.0
H2500 H 0.12548 0.74923 0.06283 0.0
H2501 H 0.10413 0.72049 0.05198 0.0
H2502 H 0.07522 0.71213 0.05244 0.0
C2503 C 0.04968 0.71345 0.06251 0.0
C2504 C 0.06224 0.73157 0.06508 0.0
C2505 C 0.07913 0.73648 0.06394 0.0
C2506 C 0.09147 0.7532 0.06964 0.0
C2507 C 0.1082 0.75745 0.06936 0.0
C2508 C 0.11263 0.74572 0.06306 0.0
C2509 C 0.10061 0.72953 0.05699 0.0
C2510 C 0.08405 0.72489 0.05742 0.0
H2511 H 0.08806 0.77955 0.11448 0.0
C2512 C 0.09892 0.78712 0.10509 0.0
H2513 H 0.11037 0.78951 0.07509 0.0
H2514 H 0.03104 0.72651 0.07075 0.0
H2515 H 0.0238 0.74779 0.07796 0.0
H2516 H 0.04526 0.77747 0.08264 0.0
H2517 H 0.07416 0.78587 0.08092 0.0
C2518 C 0.09974 0.78192 0.0848 0.0
C2519 C 0.0869 0.76513 0.07593 0.0
C2520 C 0.07006 0.76061 0.07507 0.0
C2521 C 0.05768 0.74367 0.07063 0.0
C2522 C 0.04099 0.73927 0.07248 0.0
C2523 C 0.03664 0.75138 0.07685 0.0
C2524 C 0.04871 0.76807 0.07961 0.0
C2525 C 0.06525 0.7727 0.07877 0.0
H2526 H 0.31173 0.32515 0.03905 0.0
C2527 C 0.31139 0.33336 0.02688 0.0
H2528 H 0.2989 0.34536 0.0149 0.0
H2529 H 0.23024 0.29822 0.05387 0.0
H2530 H 0.22468 0.28987 0.01567 0.0
H2531 H 0.24727 0.29981 0.98982 0.0
H2532 H 0.27554 0.31826 0.00199 0.0
C2533 C 0.29965 0.33759 0.0274 0.0
C2534 C 0.28638 0.33061 0.04352 0.0
C2535 C 0.26995 0.3196 0.03619 0.0
C2536 C 0.25696 0.31366 0.05115 0.0
C2537 C 0.24062 0.30298 0.04328 0.0
C2538 C 0.23724 0.29809 0.02137 0.0
C2539 C 0.24995 0.3037 0.00682 0.0
C2540 C 0.26613 0.31432 0.01403 0.0
H2541 H 0.25223 0.3387 0.09386 0.0
C2542 C 0.24363 0.32562 0.0969 0.0
H2543 H 0.23852 0.30075 0.09122 0.0
H2544 H 0.31642 0.35222 0.06295 0.0
H2545 H 0.32211 0.35922 0.10146 0.0
H2546 H 0.29979 0.34718 0.12775 0.0
H2547 H 0.27159 0.32831 0.11554 0.0
C2548 C 0.24663 0.31393 0.08842 0.0
C2549 C 0.26045 0.3187 0.07341 0.0
C2550 C 0.27697 0.32903 0.08094 0.0
C2551 C 0.28993 0.33533 0.06591 0.0
C2552 C 0.30617 0.34652 0.0737 0.0
C2553 C 0.30961 0.35073 0.09579 0.0
C2554 C 0.29704 0.34401 0.11057 0.0
C2555 C 0.28089 0.33328 0.10334 0.0
H2556 H 0.7116 0.64374 0.34016 0.0
C2557 C 0.70854 0.65266 0.3473 0.0
H2558 H 0.71248 0.66899 0.37417 0.0
H2559 H 0.73762 0.63062 0.43498 0.0
H2560 H 0.71049 0.62085 0.44918 0.0
H2561 H 0.69096 0.62753 0.43107 0.0
H2562 H 0.69843 0.64396 0.39853 0.0
C2563 C 0.71557 0.66027 0.36651 0.0
C2564 C 0.72769 0.6569 0.37792 0.0
C2565 C 0.72329 0.64762 0.39719 0.0
C2566 C 0.73467 0.64399 0.40784 0.0
C2567 C 0.72967 0.63413 0.42656 0.0
C2568 C 0.71407 0.62834 0.43482 0.0
C2569 C 0.70307 0.63209 0.4246 0.0
C2570 C 0.70753 0.64155 0.40596 0.0
H2571 H 0.76616 0.66231 0.43729 0.0
C2572 C 0.7698 0.65391 0.42988 0.0
H2573 H 0.76653 0.63878 0.40176 0.0
H2574 H 0.74067 0.67635 0.34244 0.0
H2575 H 0.76785 0.68628 0.32837 0.0
H2576 H 0.78744 0.67971 0.34653 0.0
H2577 H 0.77997 0.66322 0.37897 0.0
C2578 C 0.7627 0.64647 0.41057 0.0
C2579 C 0.75057 0.64996 0.39942 0.0
C2580 C 0.755 0.65933 0.38022 0.0
C2581 C 0.74362 0.66294 0.36957 0.0
C2582 C 0.74863 0.67286 0.35088 0.0
C2583 C 0.76426 0.67875 0.34269 0.0
C2584 C 0.77529 0.67506 0.35293 0.0
C2585 C 0.77081 0.66553 0.37152 0.0
H2586 H 0.3434 0.04793 0.38091 0.0
C2587 C 0.33141 0.04017 0.38782 0.0
H2588 H 0.3135 0.03954 0.40873 0.0
H2589 H 0.36228 0.10167 0.46675 0.0
H2590 H 0.36079 0.07943 0.48867 0.0
H2591 H 0.34757 0.05041 0.474 0.0
H2592 H 0.3357 0.04345 0.43734 0.0
C2593 C 0.32504 0.04726 0.40076 0.0
C2594 C 0.33476 0.06506 0.40824 0.0
C2595 C 0.34187 0.06896 0.42958 0.0
C2596 C 0.34961 0.08569 0.43797 0.0
C2597 C 0.35633 0.08918 0.4595 0.0
C2598 C 0.35557 0.07653 0.47227 0.0
C2599 C 0.34811 0.06019 0.46402 0.0
C2600 C 0.34131 0.05637 0.44296 0.0
H2601 H 0.33303 0.113 0.43477 0.0
C2602 C 0.34587 0.12079 0.43995 0.0
H2603 H 0.36935 0.12274 0.43956 0.0
H2604 H 0.32307 0.0619 0.36638 0.0
H2605 H 0.3255 0.08435 0.34393 0.0
H2606 H 0.33959 0.11353 0.35817 0.0
H2607 H 0.35123 0.12044 0.39501 0.0
C2608 C 0.3564 0.11547 0.43494 0.0
C2609 C 0.35015 0.09847 0.42503 0.0
C2610 C 0.34382 0.09473 0.40329 0.0
C2611 C 0.33599 0.07796 0.39493 0.0
C2612 C 0.32932 0.07447 0.37342 0.0
C2613 C 0.33062 0.08722 0.36038 0.0
C2614 C 0.33853 0.10366 0.36841 0.0
C2615 C 0.34508 0.10744 0.3896 0.0
H2616 H 0.97494 0.30136 0.37241 0.0
C2617 C 0.97135 0.30513 0.35761 0.0
H2618 H 0.95171 0.30415 0.33925 0.0
H2619 H 0.89913 0.23604 0.37916 0.0
H2620 H 0.89903 0.22787 0.34144 0.0
H2621 H 0.91899 0.24777 0.31605 0.0
H2622 H 0.93908 0.27596 0.32817 0.0
C2623 C 0.95559 0.30102 0.35432 0.0
C2624 C 0.94276 0.28964 0.36932 0.0
C2625 C 0.93108 0.27319 0.3619 0.0
C2626 C 0.91974 0.26164 0.3766 0.0
C2627 C 0.90817 0.24528 0.36876 0.0
C2628 C 0.90795 0.24042 0.34713 0.0
C2629 C 0.91917 0.25163 0.33284 0.0
C2630 C 0.93064 0.26781 0.34003 0.0
H2631 H 0.89476 0.26593 0.41813 0.0
C2632 C 0.89579 0.25499 0.42167 0.0
H2633 H 0.91022 0.24348 0.41736 0.0
H2634 H 0.96192 0.32087 0.38796 0.0
H2635 H 0.9623 0.32895 0.42586 0.0
H2636 H 0.94374 0.30844 0.45188 0.0
H2637 H 0.92452 0.27982 0.44012 0.0
C2638 C 0.90861 0.25406 0.41396 0.0
C2639 C 0.92012 0.26654 0.39867 0.0
C2640 C 0.93156 0.28309 0.40601 0.0
C2641 C 0.9427 0.29475 0.3912 0.0
C2642 C 0.95359 0.31137 0.39871 0.0
C2643 C 0.95386 0.3162 0.42038 0.0
C2644 C 0.94338 0.30466 0.43502 0.0
C2645 C 0.93234 0.28828 0.42802 0.0
H2646 H 0.0334 0.38524 0.29187 0.0
C2647 C 0.02367 0.37385 0.29868 0.0
H2648 H 0.99832 0.36007 0.30512 0.0
H2649 H 0.01605 0.43885 0.28751 0.0
H2650 H 0.02891 0.44527 0.32362 0.0
H2651 H 0.03072 0.42366 0.34447 0.0
H2652 H 0.01962 0.39545 0.32931 0.0
C2653 C 0.0085 0.37178 0.2998 0.0
C2654 C 0.00489 0.38397 0.28919 0.0
C2655 C 0.01125 0.4003 0.29833 0.0
C2656 C 0.01016 0.41271 0.28631 0.0
C2657 C 0.01666 0.42896 0.29584 0.0
C2658 C 0.02403 0.4328 0.31658 0.0
C2659 C 0.02505 0.42063 0.32832 0.0
C2660 C 0.01873 0.40454 0.3194 0.0
H2661 H 0.9775 0.41197 0.25034 0.0
C2662 C 0.98934 0.42245 0.2461 0.0
H2663 H 0.01512 0.43238 0.24769 0.0
H2664 H 0.9899 0.35335 0.26802 0.0
H2665 H 0.97716 0.34682 0.23189 0.0
H2666 H 0.97644 0.36864 0.21021 0.0
H2667 H 0.98824 0.397 0.22458 0.0
C2668 C 0.00311 0.4223 0.25199 0.0
C2669 C 0.0027 0.40876 0.26517 0.0
C2670 C 0.99583 0.39224 0.2563 0.0
C2671 C 0.99665 0.37975 0.26855 0.0
C2672 C 0.98973 0.36335 0.25938 0.0
C2673 C 0.98239 0.35942 0.23864 0.0
C2674 C 0.98195 0.3717 0.22645 0.0
C2675 C 0.98866 0.38794 0.23502 0.0
H2676 H 0.61541 0.62579 0.31138 0.0
C2677 C 0.62794 0.62827 0.31377 0.0
H2678 H 0.64334 0.61765 0.31249 0.0
H2679 H 0.57823 0.54448 0.31736 0.0
H2680 H 0.58853 0.54749 0.35461 0.0
H2681 H 0.61216 0.5741 0.36837 0.0
H2682 H 0.62573 0.59789 0.34489 0.0
C2683 C 0.63091 0.61557 0.31109 0.0
C2684 C 0.61754 0.59904 0.30246 0.0
C2685 C 0.60977 0.5853 0.31631 0.0
C2686 C 0.59604 0.57 0.30839 0.0
C2687 C 0.58858 0.55644 0.32258 0.0
C2688 C 0.5944 0.55799 0.34398 0.0
C2689 C 0.60771 0.57297 0.35173 0.0
C2690 C 0.61536 0.58652 0.33812 0.0
H2691 H 0.58843 0.54704 0.25611 0.0
C2692 C 0.57635 0.54323 0.26244 0.0
H2693 H 0.56383 0.54898 0.2865 0.0
H2694 H 0.63126 0.62206 0.27061 0.0
H2695 H 0.62052 0.61956 0.23379 0.0
H2696 H 0.59522 0.59406 0.22103 0.0
H2697 H 0.58076 0.57084 0.24478 0.0
C2698 C 0.57534 0.55267 0.27864 0.0
C2699 C 0.59008 0.56851 0.28664 0.0
C2700 C 0.59793 0.5823 0.27274 0.0
C2701 C 0.61198 0.59736 0.28046 0.0
C2702 C 0.62014 0.61058 0.26588 0.0
C2703 C 0.61417 0.60929 0.24465 0.0
C2704 C 0.59997 0.59491 0.23744 0.0
C2705 C 0.59187 0.58158 0.25124 0.0
H2706 H 0.37615 0.98509 0.34255 0.0
C2707 C 0.36866 0.99074 0.33902 0.0
H2708 H 0.36352 0.00472 0.31654 0.0
H2709 H 0.43534 0.03198 0.27839 0.0
H2710 H 0.43888 0.05695 0.29706 0.0
H2711 H 0.41676 0.05605 0.31912 0.0
H2712 H 0.39098 0.03008 0.32274 0.0
C2713 C 0.37054 0.9986 0.32023 0.0
C2714 C 0.38281 0.99959 0.30447 0.0
C2715 C 0.39756 0.01496 0.30194 0.0
C2716 C 0.41019 0.01553 0.28891 0.0
C2717 C 0.42515 0.03088 0.28758 0.0
C2718 C 0.42739 0.04531 0.29834 0.0
C2719 C 0.41495 0.0448 0.31078 0.0
C2720 C 0.40021 0.02982 0.31271 0.0
H2721 H 0.42031 0.01531 0.24047 0.0
C2722 C 0.42597 0.00832 0.2465 0.0
H2723 H 0.42696 0.99409 0.27248 0.0
H2724 H 0.35502 0.96869 0.30337 0.0
H2725 H 0.35112 0.94379 0.284 0.0
H2726 H 0.3731 0.94467 0.26166 0.0
H2727 H 0.39908 0.97047 0.25848 0.0
C2728 C 0.42131 0.00083 0.2657 0.0
C2729 C 0.40783 0.00076 0.27806 0.0
C2730 C 0.39279 0.98555 0.27987 0.0
C2731 C 0.3802 0.98499 0.29295 0.0
C2732 C 0.36514 0.96972 0.29408 0.0
C2733 C 0.3627 0.95535 0.28293 0.0
C2734 C 0.37507 0.95585 0.27034 0.0
C2735 C 0.38995 0.97074 0.26871 0.0
H2736 H 0.62743 0.00338 0.30116 0.0
C2737 C 0.61961 0.99442 0.31294 0.0
H2738 H 0.59555 0.98027 0.32453 0.0
H2739 H 0.56832 0.02511 0.28885 0.0
H2740 H 0.57178 0.03287 0.32727 0.0
H2741 H 0.58622 0.02356 0.35221 0.0
H2742 H 0.59736 0.00651 0.33885 0.0
C2743 C 0.60336 0.98883 0.31237 0.0
C2744 C 0.59563 0.99522 0.29685 0.0
C2745 C 0.58906 0.00506 0.30496 0.0
C2746 C 0.58055 0.01026 0.29064 0.0
C2747 C 0.5745 0.02045 0.2991 0.0
C2748 C 0.57651 0.0251 0.3211 0.0
C2749 C 0.58465 0.01987 0.33513 0.0
C2750 C 0.59093 0.01002 0.32725 0.0
H2751 H 0.54626 0.99256 0.26856 0.0
C2752 C 0.5517 0.00171 0.25592 0.0
H2753 H 0.57399 0.01766 0.24038 0.0
H2754 H 0.6064 0.97616 0.27593 0.0
H2755 H 0.60342 0.96896 0.23739 0.0
H2756 H 0.58912 0.97844 0.21249 0.0
H2757 H 0.5776 0.99511 0.22604 0.0
C2758 C 0.56809 0.00935 0.25367 0.0
C2759 C 0.5784 0.00538 0.26829 0.0
C2760 C 0.5855 0.99609 0.26001 0.0
C2761 C 0.59399 0.99085 0.27433 0.0
C2762 C 0.60023 0.98086 0.26576 0.0
C2763 C 0.59851 0.97655 0.24366 0.0
C2764 C 0.59044 0.98187 0.22964 0.0
C2765 C 0.58391 0.99145 0.23764 0.0
H2766 H 0.00239 0.62917 0.30989 0.0
C2767 C 0.0126 0.63841 0.30072 0.0
H2768 H 0.02852 0.64239 0.27476 0.0
H2769 H 0.00768 0.56416 0.28888 0.0
H2770 H 0.02523 0.57464 0.32145 0.0
H2771 H 0.03676 0.60395 0.33433 0.0
H2772 H 0.03066 0.62291 0.31483 0.0
C2773 C 0.01886 0.63333 0.28478 0.0
C2774 C 0.01129 0.61542 0.27796 0.0
C2775 C 0.01516 0.6046 0.28939 0.0
C2776 C 0.00887 0.58783 0.28163 0.0
C2777 C 0.01255 0.57715 0.29368 0.0
C2778 C 0.02252 0.58298 0.31248 0.0
C2779 C 0.02898 0.59947 0.31975 0.0
C2780 C 0.02538 0.61022 0.30842 0.0
H2781 H 0.01794 0.57093 0.24632 0.0
C2782 C 0.00495 0.56168 0.24424 0.0
H2783 H 0.98077 0.55621 0.25111 0.0
H2784 H 0.00062 0.63262 0.25319 0.0
H2785 H 0.98266 0.62201 0.22102 0.0
H2786 H 0.97188 0.593 0.20741 0.0
H2787 H 0.97922 0.57451 0.22562 0.0
C2788 C 0.99383 0.56519 0.25255 0.0
C2789 C 0.99902 0.58207 0.2622 0.0
C2790 C 0.99457 0.59268 0.25134 0.0
C2791 C 0.00077 0.6094 0.25919 0.0
C2792 C 0.9963 0.61982 0.24788 0.0
C2793 C 0.98599 0.61389 0.22941 0.0
C2794 C 0.97994 0.59756 0.22174 0.0
C2795 C 0.98421 0.58706 0.23241 0.0
H2796 H 0.38794 0.38303 0.35004 0.0
C2797 C 0.37546 0.37711 0.34325 0.0
H2798 H 0.36065 0.37163 0.31471 0.0
H2799 H 0.416 0.4339 0.26651 0.0
H2800 H 0.39437 0.44085 0.26902 0.0
H2801 H 0.36927 0.42312 0.28918 0.0
H2802 H 0.36559 0.39829 0.30681 0.0
C2803 C 0.37304 0.37711 0.32167 0.0
C2804 C 0.38723 0.38653 0.30734 0.0
C2805 C 0.3891 0.40096 0.29704 0.0
C2806 C 0.40367 0.41131 0.2857 0.0
C2807 C 0.40527 0.4257 0.27559 0.0
C2808 C 0.39294 0.42982 0.27685 0.0
C2809 C 0.3788 0.41983 0.28818 0.0
C2810 C 0.37685 0.40558 0.29822 0.0
H2811 H 0.42945 0.40346 0.24816 0.0
C2812 C 0.43681 0.41583 0.25578 0.0
H2813 H 0.43943 0.43132 0.28312 0.0
H2814 H 0.38603 0.35805 0.32149 0.0
H2815 H 0.4077 0.3511 0.31912 0.0
H2816 H 0.43379 0.37003 0.30163 0.0
H2817 H 0.43825 0.39585 0.28607 0.0
C2818 C 0.43217 0.41921 0.27488 0.0
C2819 C 0.41635 0.40727 0.28475 0.0
C2820 C 0.41418 0.39245 0.29425 0.0
C2821 C 0.39943 0.38189 0.30516 0.0
C2822 C 0.39726 0.36683 0.31377 0.0
C2823 C 0.40955 0.36263 0.31238 0.0
C2824 C 0.42421 0.37327 0.30247 0.0
C2825 C 0.42659 0.38803 0.29351 0.0
H2826 H 0.31653 0.29686 0.40749 0.0
C2827 C 0.32568 0.30857 0.40064 0.0
H2828 H 0.35083 0.32362 0.3933 0.0
H2829 H 0.34134 0.26869 0.46952 0.0
H2830 H 0.33491 0.28582 0.49291 0.0
H2831 H 0.33458 0.31048 0.47885 0.0
H2832 H 0.34019 0.31776 0.44103 0.0
C2833 C 0.34135 0.31201 0.3999 0.0
C2834 C 0.34605 0.30025 0.40942 0.0
C2835 C 0.34407 0.29698 0.43196 0.0
C2836 C 0.34544 0.28351 0.44039 0.0
C2837 C 0.34157 0.27941 0.46244 0.0
C2838 C 0.33767 0.28905 0.47607 0.0
C2839 C 0.33739 0.30288 0.46813 0.0
C2840 C 0.34051 0.30683 0.44635 0.0
H2841 H 0.37031 0.27377 0.45727 0.0
C2842 C 0.36155 0.26124 0.45102 0.0
H2843 H 0.34277 0.24757 0.42707 0.0
H2844 H 0.35256 0.30467 0.36615 0.0
H2845 H 0.3614 0.28915 0.34314 0.0
H2846 H 0.36555 0.26691 0.35817 0.0
H2847 H 0.36074 0.25994 0.39622 0.0
C2848 C 0.35093 0.25962 0.43492 0.0
C2849 C 0.35018 0.27424 0.42659 0.0
C2850 C 0.35339 0.27839 0.40442 0.0
C2851 C 0.35124 0.29137 0.3958 0.0
C2852 C 0.3541 0.29497 0.3735 0.0
C2853 C 0.3592 0.28618 0.36014 0.0
C2854 C 0.36152 0.27366 0.3686 0.0
C2855 C 0.35867 0.26975 0.39046 0.0
H2856 H 0.69797 0.04311 0.36646 0.0
C2857 C 0.70086 0.03456 0.37472 0.0
H2858 H 0.71631 0.03229 0.39808 0.0
H2859 H 0.76368 0.11223 0.37683 0.0
H2860 H 0.76683 0.10252 0.34123 0.0
H2861 H 0.75039 0.0727 0.33002 0.0
H2862 H 0.73058 0.05243 0.35422 0.0
C2863 C 0.71378 0.04072 0.38886 0.0
C2864 C 0.72345 0.05884 0.39503 0.0
C2865 C 0.73512 0.07047 0.38078 0.0
C2866 C 0.74493 0.0876 0.38748 0.0
C2867 C 0.75623 0.09901 0.37277 0.0
C2868 C 0.7581 0.09362 0.35226 0.0
C2869 C 0.74881 0.07683 0.34593 0.0
C2870 C 0.73745 0.06533 0.35995 0.0
H2871 H 0.77505 0.10769 0.41801 0.0
C2872 C 0.77026 0.11601 0.42157 0.0
H2873 H 0.74889 0.11827 0.41959 0.0
H2874 H 0.70166 0.03998 0.42588 0.0
H2875 H 0.69857 0.04972 0.46145 0.0
H2876 H 0.7158 0.07935 0.47317 0.0
H2877 H 0.73632 0.09937 0.44953 0.0
C2878 C 0.75435 0.11055 0.4165 0.0
C2879 C 0.74326 0.09298 0.40856 0.0
C2880 C 0.73128 0.08144 0.42256 0.0
C2881 C 0.72141 0.06436 0.41582 0.0
C2882 C 0.7096 0.05309 0.43022 0.0
C2883 C 0.70767 0.05851 0.45067 0.0
C2884 C 0.71737 0.07518 0.45728 0.0
C2885 C 0.72908 0.08656 0.4435 0.0
H2886 H 0.95589 0.64302 0.36276 0.0
C2887 C 0.96677 0.65527 0.36538 0.0
H2888 H 0.9772 0.67837 0.38289 0.0
H2889 H 0.90567 0.66792 0.39548 0.0
H2890 H 0.91568 0.68836 0.36727 0.0
H2891 H 0.9423 0.69695 0.35043 0.0
H2892 H 0.95897 0.68499 0.3616 0.0
C2893 C 0.96682 0.66573 0.38087 0.0
C2894 C 0.95154 0.66149 0.39255 0.0
C2895 C 0.94222 0.66903 0.38636 0.0
C2896 C 0.92707 0.66439 0.39645 0.0
C2897 C 0.91756 0.67142 0.38902 0.0
C2898 C 0.9231 0.68309 0.37266 0.0
C2899 C 0.93806 0.6879 0.36316 0.0
C2900 C 0.94752 0.68095 0.36977 0.0
H2901 H 0.91518 0.67169 0.43923 0.0
C2902 C 0.90449 0.65925 0.43691 0.0
H2903 H 0.89604 0.63513 0.4227 0.0
H2904 H 0.96682 0.64525 0.40876 0.0
H2905 H 0.95696 0.62491 0.43728 0.0
H2906 H 0.93088 0.6171 0.45519 0.0
H2907 H 0.91447 0.62955 0.4447 0.0
C2908 C 0.90593 0.64802 0.42431 0.0
C2909 C 0.92156 0.65261 0.41325 0.0
C2910 C 0.93093 0.64512 0.41948 0.0
C2911 C 0.94595 0.64958 0.40913 0.0
C2912 C 0.95521 0.64212 0.4159 0.0
C2913 C 0.94973 0.63049 0.4323 0.0
C2914 C 0.93505 0.6261 0.4424 0.0
C2915 C 0.92573 0.63332 0.43618 0.0
H2916 H 0.39295 0.98863 0.67574 0.0
C2917 C 0.38807 0.99612 0.68268 0.0
H2918 H 0.38795 0.0099 0.71047 0.0
H2919 H 0.41349 0.97153 0.77121 0.0
H2920 H 0.38512 0.95882 0.782 0.0
H2921 H 0.36556 0.9649 0.76275 0.0
H2922 H 0.37425 0.98367 0.73246 0.0
C2923 C 0.39282 0.0026 0.70301 0.0
C2924 C 0.40498 2e-05 0.71574 0.0
C2925 C 0.39984 0.98937 0.73373 0.0
C2926 C 0.41121 0.98607 0.74505 0.0
C2927 C 0.40553 0.97481 0.76237 0.0
C2928 C 0.38923 0.96735 0.76866 0.0
C2929 C 0.37821 0.97075 0.75781 0.0
C2930 C 0.38336 0.98157 0.74047 0.0
H2931 H 0.44108 0.00307 0.77848 0.0
C2932 C 0.44562 0.99581 0.77004 0.0
H2933 H 0.44474 0.9837 0.74004 0.0
H2934 H 0.41943 0.02283 0.68382 0.0
H2935 H 0.44792 0.036 0.67346 0.0
H2936 H 0.46753 0.03 0.69272 0.0
H2937 H 0.45879 0.01087 0.72253 0.0
C2938 C 0.43974 0.98993 0.74972 0.0
C2939 C 0.4278 0.9937 0.73858 0.0
C2940 C 0.43303 0.00472 0.72095 0.0
C2941 C 0.42167 0.00801 0.70965 0.0
C2942 C 0.42741 0.01951 0.69259 0.0
C2943 C 0.44377 0.02726 0.68656 0.0
C2944 C 0.45481 0.0239 0.69742 0.0
C2945 C 0.4496 0.01283 0.71446 0.0
H2946 H 0.96769 0.36606 0.72174 0.0
C2947 C 0.9778 0.36399 0.71789 0.0
H2948 H 0.00372 0.37506 0.71743 0.0
H2949 H 0.01219 0.44857 0.72192 0.0
H2950 H 0.01869 0.44738 0.6841 0.0
H2951 H 0.01502 0.42122 0.66731 0.0
H2952 H 0.00492 0.39608 0.68829 0.0
C2953 C 0.9933 0.37676 0.72059 0.0
C2954 C 0.99647 0.39283 0.73093 0.0
C2955 C 0.00233 0.40736 0.71849 0.0
C2956 C 0.00428 0.42239 0.72814 0.0
C2957 C 0.01031 0.43677 0.71535 0.0
C2958 C 0.01411 0.43627 0.69364 0.0
C2959 C 0.01206 0.42154 0.68418 0.0
C2960 C 0.00624 0.4072 0.69639 0.0
H2961 H 0.02077 0.44202 0.78212 0.0
C2962 C 0.01271 0.44662 0.77678 0.0
H2963 H 0.99446 0.44314 0.75318 0.0
H2964 H 0.98762 0.36803 0.76045 0.0
H2965 H 0.98003 0.36874 0.79775 0.0
H2966 H 0.98064 0.39382 0.81342 0.0
H2967 H 0.98924 0.41842 0.79208 0.0
C2968 C 0.00199 0.43845 0.76011 0.0
C2969 C 0.00026 0.4228 0.75019 0.0
C2970 C 0.99434 0.4082 0.76265 0.0
C2971 C 0.993 0.3934 0.75322 0.0
C2972 C 0.98812 0.37936 0.76644 0.0
C2973 C 0.98383 0.37962 0.78795 0.0
C2974 C 0.98425 0.39376 0.7968 0.0
C2975 C 0.98938 0.40789 0.78438 0.0
H2976 H 0.62954 0.62491 0.71272 0.0
C2977 C 0.62629 0.62913 0.69804 0.0
H2978 H 0.60756 0.63076 0.68076 0.0
H2979 H 0.55153 0.5674 0.72626 0.0
H2980 H 0.54927 0.55682 0.68924 0.0
H2981 H 0.56945 0.57387 0.66204 0.0
H2982 H 0.59196 0.60162 0.67167 0.0
C2983 C 0.61119 0.62715 0.69564 0.0
C2984 C 0.59837 0.61762 0.71168 0.0
C2985 C 0.58524 0.60146 0.70568 0.0
C2986 C 0.57373 0.59156 0.7214 0.0
C2987 C 0.56073 0.57542 0.71503 0.0
C2988 C 0.55926 0.56918 0.69381 0.0
C2989 C 0.57062 0.57879 0.6785 0.0
C2990 C 0.58348 0.59472 0.68426 0.0
H2991 H 0.55123 0.60035 0.76179 0.0
C2992 C 0.55151 0.5892 0.76643 0.0
H2993 H 0.56463 0.57613 0.76411 0.0
H2994 H 0.62085 0.64888 0.72766 0.0
H2995 H 0.62321 0.65943 0.7648 0.0
H2996 H 0.60389 0.64181 0.79249 0.0
H2997 H 0.58199 0.6136 0.78316 0.0
C2998 C 0.56377 0.58694 0.75948 0.0
C2999 C 0.57536 0.59787 0.74304 0.0
C3000 C 0.58821 0.6142 0.74891 0.0
C3001 C 0.59964 0.62418 0.73311 0.0
C3002 C 0.61212 0.64061 0.73919 0.0
C3003 C 0.61356 0.64685 0.76041 0.0
C3004 C 0.60266 0.63694 0.77599 0.0
C3005 C 0.59011 0.62079 0.77041 0.0
H3006 H 0.65689 0.68705 0.63805 0.0
C3007 C 0.66852 0.68975 0.63116 0.0
H3008 H 0.6869 0.7043 0.60902 0.0
H3009 H 0.6427 0.7202 0.54847 0.0
H3010 H 0.64449 0.69913 0.52647 0.0
H3011 H 0.65654 0.68303 0.54178 0.0
H3012 H 0.66694 0.68795 0.57912 0.0
C3013 C 0.67569 0.70199 0.61683 0.0
C3014 C 0.66735 0.71089 0.60845 0.0
C3015 C 0.66113 0.70767 0.58666 0.0
C3016 C 0.65403 0.7168 0.5779 0.0
C3017 C 0.64814 0.71355 0.55599 0.0
C3018 C 0.64908 0.70148 0.54317 0.0
C3019 C 0.65588 0.69243 0.55178 0.0
C3020 C 0.66184 0.69542 0.57325 0.0
H3021 H 0.67126 0.76092 0.58232 0.0
C3022 C 0.65856 0.75596 0.57676 0.0
H3023 H 0.63476 0.73438 0.57591 0.0
H3024 H 0.67825 0.72024 0.65078 0.0
H3025 H 0.67542 0.74051 0.67315 0.0
H3026 H 0.66197 0.75545 0.65837 0.0
H3027 H 0.65143 0.75034 0.62101 0.0
C3028 C 0.6476 0.73998 0.58088 0.0
C3029 C 0.65322 0.72915 0.59093 0.0
C3030 C 0.65878 0.73187 0.613 0.0
C3031 C 0.66607 0.72288 0.62171 0.0
C3032 C 0.67221 0.72638 0.6435 0.0
C3033 C 0.67072 0.73804 0.65649 0.0
C3034 C 0.66319 0.74649 0.64816 0.0
C3035 C 0.65727 0.7435 0.62667 0.0
H3036 H 0.31496 0.95875 0.63942 0.0
C3037 C 0.3107 0.96734 0.63515 0.0
H3038 H 0.29162 0.96995 0.62075 0.0
H3039 H 0.26119 0.90731 0.55816 0.0
H3040 H 0.27447 0.92979 0.53291 0.0
H3041 H 0.29324 0.95874 0.54618 0.0
H3042 H 0.29866 0.96542 0.5848 0.0
C3043 C 0.29571 0.96135 0.62566 0.0
C3044 C 0.28539 0.94357 0.61804 0.0
C3045 C 0.28242 0.93986 0.59535 0.0
C3046 C 0.27163 0.92317 0.58766 0.0
C3047 C 0.26904 0.91981 0.56492 0.0
C3048 C 0.27669 0.93258 0.55021 0.0
C3049 C 0.28723 0.94888 0.55769 0.0
C3050 C 0.29017 0.95254 0.57994 0.0
H3051 H 0.23338 0.89931 0.58839 0.0
C3052 C 0.23653 0.88948 0.58729 0.0
H3053 H 0.25494 0.88338 0.59518 0.0
H3054 H 0.28788 0.94631 0.66258 0.0
H3055 H 0.27485 0.92368 0.68771 0.0
H3056 H 0.2568 0.89462 0.67423 0.0
H3057 H 0.25155 0.88804 0.63548 0.0
C3058 C 0.25152 0.89298 0.59463 0.0
C3059 C 0.26376 0.9102 0.60265 0.0
C3060 C 0.26714 0.91377 0.62527 0.0
C3061 C 0.27782 0.93051 0.63302 0.0
C3062 C 0.28027 0.93381 0.65576 0.0
C3063 C 0.27278 0.92093 0.67038 0.0
C3064 C 0.26259 0.90457 0.66279 0.0
C3065 C 0.2597 0.90096 0.64052 0.0
H3066 H 0.03966 0.32378 0.67954 0.0
C3067 C 0.03182 0.32895 0.67555 0.0
H3068 H 0.02757 0.34402 0.65399 0.0
H3069 H 0.10527 0.3595 0.64362 0.0
H3070 H 0.11008 0.37136 0.68026 0.0
H3071 H 0.08756 0.37103 0.70074 0.0
H3072 H 0.05999 0.35845 0.6848 0.0
C3073 C 0.03551 0.33911 0.65865 0.0
C3074 C 0.04971 0.34258 0.64483 0.0
C3075 C 0.06596 0.35088 0.65388 0.0
C3076 C 0.07913 0.35192 0.6416 0.0
C3077 C 0.09495 0.35907 0.65173 0.0
C3078 C 0.09787 0.36583 0.67286 0.0
C3079 C 0.08519 0.36558 0.68442 0.0
C3080 C 0.06939 0.3582 0.67514 0.0
H3081 H 0.1034 0.37218 0.60618 0.0
C3082 C 0.10253 0.36048 0.60075 0.0
H3083 H 0.08855 0.3341 0.60215 0.0
H3084 H 0.02026 0.32699 0.62203 0.0
H3085 H 0.01573 0.31678 0.58452 0.0
H3086 H 0.03879 0.31985 0.5626 0.0
H3087 H 0.06652 0.33304 0.57812 0.0
C3088 C 0.08968 0.346 0.60692 0.0
C3089 C 0.07618 0.34554 0.6198 0.0
C3090 C 0.06009 0.33809 0.61037 0.0
C3091 C 0.04683 0.33655 0.62291 0.0
C3092 C 0.03082 0.32866 0.61321 0.0
C3093 C 0.02804 0.32272 0.59168 0.0
C3094 C 0.04102 0.32444 0.57935 0.0
C3095 C 0.05687 0.33201 0.58848 0.0
H3096 H 0.26589 0.3271 0.67524 0.0
C3097 C 0.27898 0.33293 0.67228 0.0
H3098 H 0.29837 0.35002 0.65307 0.0
H3099 H 0.24883 0.34234 0.57587 0.0
H3100 H 0.2652 0.33197 0.55874 0.0
H3101 H 0.28592 0.32886 0.58006 0.0
H3102 H 0.29051 0.33624 0.6186 0.0
C3103 C 0.28541 0.3443 0.65671 0.0
C3104 C 0.27453 0.34833 0.64326 0.0
C3105 C 0.27204 0.34402 0.62074 0.0
C3106 C 0.25989 0.34556 0.60852 0.0
C3107 C 0.25771 0.34118 0.58601 0.0
C3108 C 0.26705 0.33525 0.57595 0.0
C3109 C 0.27873 0.33352 0.58795 0.0
C3110 C 0.28123 0.3378 0.61008 0.0
H3111 H 0.24586 0.37706 0.60875 0.0
C3112 C 0.23606 0.36521 0.60197 0.0
H3113 H 0.22659 0.33906 0.60009 0.0
H3114 H 0.27883 0.36138 0.68473 0.0
H3115 H 0.2622 0.37129 0.70221 0.0
H3116 H 0.23928 0.37131 0.68212 0.0
H3117 H 0.23315 0.36189 0.64438 0.0
C3118 C 0.23633 0.35111 0.6063 0.0
C3119 C 0.25014 0.35128 0.61885 0.0
C3120 C 0.25304 0.35617 0.64125 0.0
C3121 C 0.26561 0.3552 0.65324 0.0
C3122 C 0.26892 0.36109 0.6752 0.0
C3123 C 0.25955 0.36692 0.68538 0.0
C3124 C 0.2467 0.36701 0.67403 0.0
C3125 C 0.2434 0.36167 0.65227 0.0
H3126 H 0.69071 0.9611 0.63345 0.0
C3127 C 0.6819 0.96509 0.63729 0.0
H3128 H 0.6567 0.95748 0.6392 0.0
H3129 H 0.64526 0.90406 0.5639 0.0
H3130 H 0.63787 0.9224 0.54563 0.0
H3131 H 0.64028 0.94727 0.56473 0.0
H3132 H 0.65029 0.954 0.60219 0.0
C3133 C 0.66579 0.95366 0.63681 0.0
C3134 C 0.6603 0.93658 0.62772 0.0
C3135 C 0.65358 0.93233 0.60619 0.0
C3136 C 0.65179 0.91774 0.59537 0.0
C3137 C 0.64631 0.91457 0.57327 0.0
C3138 C 0.64213 0.9251 0.56247 0.0
C3139 C 0.64352 0.93911 0.5732 0.0
C3140 C 0.64928 0.94282 0.59474 0.0
H3141 H 0.63084 0.87879 0.58938 0.0
C3142 C 0.64259 0.87941 0.58716 0.0
H3143 H 0.66837 0.89429 0.5923 0.0
H3144 H 0.67094 0.93986 0.67001 0.0
H3145 H 0.6773 0.92088 0.68913 0.0
H3146 H 0.67383 0.89532 0.67068 0.0
H3147 H 0.66401 0.88856 0.63303 0.0
C3148 C 0.6564 0.89306 0.59466 0.0
C3149 C 0.65615 0.90711 0.60648 0.0
C3150 C 0.66174 0.91077 0.62852 0.0
C3151 C 0.6638 0.92551 0.63915 0.0
C3152 C 0.66943 0.92892 0.66114 0.0
C3153 C 0.67303 0.91811 0.6723 0.0
C3154 C 0.67107 0.90371 0.66191 0.0
C3155 C 0.66548 0.9 0.64029 0.0
H3156 H 0.0528 0.69739 0.67386 0.0
C3157 C 0.042 0.69823 0.6694 0.0
H3158 H 0.03146 0.70739 0.64678 0.0
H3159 H 0.11145 0.75821 0.63561 0.0
H3160 H 0.11118 0.76825 0.67223 0.0
H3161 H 0.08599 0.75472 0.69359 0.0
H3162 H 0.06109 0.73093 0.67863 0.0
C3163 C 0.04223 0.70668 0.65176 0.0
C3164 C 0.05719 0.71544 0.6386 0.0
C3165 C 0.07145 0.72978 0.64737 0.0
C3166 C 0.0857 0.7381 0.6347 0.0
C3167 C 0.10006 0.75184 0.64421 0.0
C3168 C 0.10011 0.75767 0.66527 0.0
C3169 C 0.08596 0.75002 0.67732 0.0
C3170 C 0.07176 0.73626 0.66856 0.0
H3171 H 0.09568 0.76272 0.59842 0.0
C3172 C 0.10329 0.7577 0.59265 0.0
H3173 H 0.1068 0.73671 0.59387 0.0
H3174 H 0.03205 0.68816 0.61716 0.0
H3175 H 0.03216 0.67862 0.58014 0.0
H3176 H 0.05659 0.6937 0.55769 0.0
H3177 H 0.08111 0.71837 0.57216 0.0
C3178 C 0.09962 0.74236 0.59885 0.0
C3179 C 0.08539 0.7326 0.61291 0.0
C3180 C 0.07122 0.7182 0.60422 0.0
C3181 C 0.05708 0.7096 0.61709 0.0
C3182 C 0.04307 0.69524 0.60802 0.0
C3183 C 0.04298 0.68962 0.58681 0.0
C3184 C 0.05674 0.6981 0.57418 0.0
C3185 C 0.07073 0.71224 0.58268 0.0
H3186 H 0.9976 0.63285 0.71168 0.0
C3187 C 0.98839 0.63311 0.7219 0.0
H3188 H 0.97318 0.62288 0.74879 0.0
H3189 H 0.96927 0.55426 0.7566 0.0
H3190 H 0.94142 0.54581 0.74478 0.0
H3191 H 0.93432 0.56652 0.73162 0.0
H3192 H 0.95503 0.59588 0.73047 0.0
C3193 C 0.98234 0.62261 0.73848 0.0
C3194 C 0.98741 0.61011 0.74342 0.0
C3195 C 0.97528 0.59291 0.74333 0.0
C3196 C 0.97947 0.58091 0.7504 0.0
C3197 C 0.96691 0.56391 0.75101 0.0
C3198 C 0.95082 0.55886 0.7443 0.0
C3199 C 0.94682 0.57052 0.73693 0.0
C3200 C 0.95884 0.58735 0.73643 0.0
H3201 H 0.00903 0.58748 0.79651 0.0
C3202 C 0.00569 0.57593 0.78748 0.0
H3203 H 0.9967 0.56248 0.75755 0.0
H3204 H 0.01368 0.64229 0.74786 0.0
H3205 H 0.04195 0.65032 0.75623 0.0
H3206 H 0.04976 0.62901 0.76352 0.0
H3207 H 0.02912 0.59954 0.76322 0.0
C3208 C -0.00026 0.5738 0.76691 0.0
C3209 C 0.99588 0.5861 0.75709 0.0
C3210 C 0.00827 0.60312 0.75555 0.0
C3211 C 0.00394 0.61526 0.74966 0.0
C3212 C 0.01633 0.63237 0.75072 0.0
C3213 C 0.03264 0.6372 0.75574 0.0
C3214 C 0.03703 0.62522 0.75997 0.0
C3215 C 0.02504 0.60837 0.75992 0.0
H3216 H 0.37388 0.37063 0.7405 0.0
C3217 C 0.36427 0.36869 0.72874 0.0
H3218 H 0.35444 0.38037 0.7094 0.0
H3219 H 0.38341 0.4459 0.76941 0.0
H3220 H 0.35424 0.43632 0.76771 0.0
H3221 H 0.3347 0.4096 0.749 0.0
H3222 H 0.34421 0.39243 0.73157 0.0
C3223 C 0.36413 0.38209 0.72084 0.0
C3224 C 0.37615 0.39931 0.72957 0.0
C3225 C 0.37034 0.40914 0.7399 0.0
C3226 C 0.38157 0.42436 0.75123 0.0
C3227 C 0.37543 0.43406 0.76101 0.0
C3228 C 0.3587 0.42875 0.7601 0.0
C3229 C 0.3477 0.41372 0.74954 0.0
C3230 C 0.35336 0.40397 0.73957 0.0
H3231 H 0.42625 0.45742 0.74148 0.0
C3232 C 0.42312 0.45795 0.75832 0.0
H3233 H 0.40687 0.4451 0.78333 0.0
H3234 H 0.39197 0.38631 0.70635 0.0
H3235 H 0.42097 0.39497 0.70937 0.0
H3236 H 0.43977 0.4186 0.73385 0.0
H3237 H 0.4299 0.4341 0.75463 0.0
C3238 C 0.40987 0.44474 0.7664 0.0
C3239 C 0.39856 0.42953 0.75279 0.0
C3240 C 0.40441 0.41983 0.74209 0.0
C3241 C 0.39332 0.40525 0.72952 0.0
C3242 C 0.39971 0.39678 0.71726 0.0
C3243 C 0.41633 0.4017 0.71869 0.0
C3244 C 0.42693 0.41507 0.73236 0.0
C3245 C 0.42111 0.42402 0.74402 0.0
H3246 H 0.61987 0.98715 0.66559 0.0
C3247 C 0.63226 0.99545 0.67207 0.0
H3248 H 0.64669 0.01167 0.69816 0.0
H3249 H 0.59021 0.02533 0.72808 0.0
H3250 H 0.60983 0.05214 0.71376 0.0
H3251 H 0.6344 0.05581 0.69505 0.0
H3252 H 0.63944 0.03267 0.69043 0.0
C3253 C 0.6344 0.00287 0.6918 0.0
C3254 C 0.6201 0.00075 0.70436 0.0
C3255 C 0.61754 0.01453 0.70734 0.0
C3256 C 0.6035 0.01248 0.71841 0.0
C3257 C 0.60089 0.02627 0.72035 0.0
C3258 C 0.612 0.04173 0.71207 0.0
C3259 C 0.62582 0.04379 0.70151 0.0
C3260 C 0.62858 0.03039 0.69903 0.0
H3261 H 0.59129 0.00954 0.76537 0.0
C3262 C 0.579 0.00142 0.75843 0.0
H3263 H 0.56558 0.9864 0.73075 0.0
H3264 H 0.62228 0.97225 0.70351 0.0
H3265 H 0.60271 0.94546 0.71797 0.0
H3266 H 0.57809 0.94177 0.73657 0.0
H3267 H 0.57296 0.96489 0.74094 0.0
C3268 C 0.57753 0.99442 0.73854 0.0
C3269 C 0.59222 0.99672 0.72684 0.0
C3270 C 0.59486 0.98299 0.72403 0.0
C3271 C 0.60891 0.98504 0.71298 0.0
C3272 C 0.61157 0.97128 0.71117 0.0
C3273 C 0.60049 0.95585 0.71955 0.0
C3274 C 0.58664 0.95378 0.73005 0.0
C3275 C 0.58383 0.96715 0.7324 0.0
loop_
_geom_bond_atom_site_label_1
_geom_bond_atom_site_label_2
_geom_bond_distance
_geom_bond_site_symmetry_2
_ccdc_geom_bond_type
Mg0 O1 2.028 1_556 S
Mg0 O7 1.986 1_455 S
Mg0 O9 2.114 . S
Mg0 O10 2.251 1_455 S
Mg0 O13 2.010 1_556 S
O1 Mg0 2.028 1_554 S
O1 C4 1.250 1_455 S
O2 Mg3 2.028 1_554 S
O2 C4 1.248 . S
Mg3 O2 2.028 1_556 S
Mg3 O8 2.032 . S
Mg3 O10 2.079 . S
C4 O1 1.250 1_655 S
C4 O2 1.248 . S
C5 O6 1.264 . S
C5 O13 1.249 . S
O6 C5 1.264 . S
O7 Mg0 1.986 1_655 S
O7 C11 1.246 . S
O8 Mg3 2.032 . S
O8 C11 1.259 . S
O9 Mg0 2.114 . S
O9 C12 1.252 . S
O10 Mg0 2.251 1_655 S
O10 Mg3 2.079 . S
O10 C12 1.273 1_655 S
C11 O7 1.246 . S
C11 O8 1.259 . S
C12 O9 1.252 . S
C12 O10 1.273 1_455 S
O13 Mg0 2.010 1_554 S
O13 C5 1.249 . S
Mg14 O15 2.028 1_554 S
Mg14 O21 1.986 . S
Mg14 O23 2.114 . S
Mg14 O24 2.251 . S
Mg14 O27 2.010 . S
O15 Mg14 2.028 1_556 S
O15 C18 1.250 . S
O16 Mg17 2.026 1_556 S
O16 C18 1.249 . S
Mg17 O16 2.026 1_554 S
Mg17 O22 2.032 . S
Mg17 O24 2.079 . S
C18 O15 1.250 . S
C18 O16 1.249 . S
C19 O20 1.260 1_556 S
C19 O27 1.246 1_556 S
O20 C19 1.260 1_554 S
O21 Mg14 1.986 . S
O21 C25 1.246 . S
O22 Mg17 2.032 . S
O22 C25 1.259 . S
O23 Mg14 2.114 . S
O23 C26 1.252 . S
O24 Mg14 2.251 . S
O24 Mg17 2.079 . S
O24 C26 1.273 . S
C25 O21 1.246 . S
C25 O22 1.259 . S
C26 O23 1.252 . S
C26 O24 1.273 . S
O27 Mg14 2.010 . S
O27 C19 1.246 1_554 S
Mg28 O29 2.033 1_566 S
Mg28 O35 1.986 1_565 S
Mg28 O37 2.114 . S
Mg28 O38 2.251 1_565 S
Mg28 O41 2.010 1_556 S
O29 Mg28 2.033 1_544 S
O29 C32 1.258 . S
O30 Mg31 2.028 1_554 S
O30 C32 1.248 . S
Mg31 O30 2.028 1_556 S
Mg31 O36 2.032 . S
Mg31 O38 2.079 . S
C32 O29 1.258 . S
C32 O30 1.248 . S
C33 O34 1.264 . S
C33 O41 1.249 . S
O34 C33 1.264 . S
O35 Mg28 1.986 1_545 S
O35 C39 1.246 . S
O36 Mg31 2.032 . S
O36 C39 1.259 . S
O37 Mg28 2.114 . S
O37 C40 1.252 . S
O38 Mg28 2.251 1_545 S
O38 Mg31 2.079 . S
O38 C40 1.273 1_545 S
C39 O35 1.246 . S
C39 O36 1.259 . S
C40 O37 1.252 . S
C40 O38 1.273 1_565 S
O41 Mg28 2.010 1_554 S
O41 C33 1.249 . S
Mg42 O43 2.028 1_654 S
Mg42 O49 1.986 1_655 S
Mg42 O51 2.114 . S
Mg42 O52 2.251 1_655 S
Mg42 O55 2.010 . S
O43 Mg42 2.028 1_456 S
O43 C46 1.251 . S
O44 Mg45 2.028 1_556 S
O44 C46 1.248 . S
Mg45 O44 2.028 1_554 S
Mg45 O50 2.032 . S
Mg45 O52 2.079 . S
C46 O43 1.251 . S
C46 O44 1.248 . S
C47 O48 1.264 . S
C47 O55 1.249 . S
O48 C47 1.264 . S
O49 Mg42 1.986 1_455 S
O49 C53 1.246 . S
O50 Mg45 2.032 . S
O50 C53 1.259 . S
O51 Mg42 2.114 . S
O51 C54 1.252 . S
O52 Mg42 2.251 1_455 S
O52 Mg45 2.079 . S
O52 C54 1.273 1_455 S
C53 O49 1.246 . S
C53 O50 1.259 . S
C54 O51 1.252 . S
C54 O52 1.273 1_655 S
O55 Mg42 2.010 . S
O55 C47 1.249 . S
Mg56 O57 2.028 1_556 S
Mg56 O63 1.986 . S
Mg56 O65 2.114 . S
Mg56 O66 2.251 . S
Mg56 O69 2.010 1_556 S
O57 Mg56 2.028 1_554 S
O57 C60 1.250 . S
O58 Mg59 2.028 1_554 S
O58 C60 1.248 . S
Mg59 O58 2.028 1_556 S
Mg59 O64 2.032 . S
Mg59 O66 2.079 . S
C60 O57 1.250 . S
C60 O58 1.248 . S
C61 O62 1.264 . S
C61 O69 1.249 . S
O62 C61 1.264 . S
O63 Mg56 1.986 . S
O63 C67 1.246 . S
O64 Mg59 2.032 . S
O64 C67 1.259 . S
O65 Mg56 2.114 . S
O65 C68 1.252 . S
O66 Mg56 2.251 . S
O66 Mg59 2.079 . S
O66 C68 1.273 . S
C67 O63 1.246 . S
C67 O64 1.259 . S
C68 O65 1.252 . S
C68 O66 1.273 . S
O69 Mg56 2.010 1_554 S
O69 C61 1.249 . S
Mg70 O71 2.028 1_554 S
Mg70 O77 1.986 1_545 S
Mg70 O79 2.114 . S
Mg70 O80 2.251 1_545 S
Mg70 O83 2.010 . S
O71 Mg70 2.028 1_556 S
O71 C74 1.250 1_545 S
O72 Mg73 2.011 1_556 S
O72 C74 1.258 . S
Mg73 O72 2.011 1_554 S
Mg73 O78 2.032 . S
Mg73 O80 2.079 . S
C74 O71 1.250 1_565 S
C74 O72 1.258 . S
C75 O76 1.264 . S
C75 O83 1.249 . S
O76 C75 1.264 . S
O77 Mg70 1.986 1_565 S
O77 C81 1.246 . S
O78 Mg73 2.032 . S
O78 C81 1.259 . S
O79 Mg70 2.114 . S
O79 C82 1.252 . S
O80 Mg70 2.251 1_565 S
O80 Mg73 2.079 . S
O80 C82 1.273 1_565 S
C81 O77 1.246 . S
C81 O78 1.259 . S
C82 O79 1.252 . S
C82 O80 1.273 1_545 S
O83 Mg70 2.010 . S
O83 C75 1.249 . S
Mg84 O85 2.028 . S
Mg84 O91 1.986 . S
Mg84 O93 2.114 . S
Mg84 O94 2.251 . S
Mg84 O97 2.010 . S
O85 Mg84 2.028 . S
O85 C88 1.250 . S
O86 Mg87 2.028 . S
O86 C88 1.248 . S
Mg87 O86 2.028 . S
Mg87 O92 2.032 . S
Mg87 O94 2.079 . S
C88 O85 1.250 . S
C88 O86 1.248 . S
C89 O90 1.264 . S
C89 O97 1.249 . S
O90 C89 1.264 . S
O91 Mg84 1.986 . S
O91 C95 1.246 . S
O92 Mg87 2.032 . S
O92 C95 1.259 . S
O93 Mg84 2.114 . S
O93 C96 1.252 . S
O94 Mg84 2.251 . S
O94 Mg87 2.079 . S
O94 C96 1.273 . S
C95 O91 1.246 . S
C95 O92 1.259 . S
C96 O93 1.252 . S
C96 O94 1.273 . S
O97 Mg84 2.010 . S
O97 C89 1.249 . S
Mg98 O99 2.028 . S
Mg98 O105 1.986 1_565 S
Mg98 O107 2.114 . S
Mg98 O108 2.251 . S
Mg98 O111 2.010 . S
O99 Mg98 2.028 . S
O99 C102 1.250 . S
O100 Mg101 2.028 . S
O100 C102 1.248 . S
Mg101 O100 2.028 . S
Mg101 O106 2.032 1_565 S
Mg101 O108 2.079 . S
C102 O99 1.250 . S
C102 O100 1.248 . S
C103 O104 1.264 . S
C103 O111 1.249 . S
O104 C103 1.264 . S
O105 Mg98 1.986 1_545 S
O105 C109 1.246 . S
O106 Mg101 2.032 1_545 S
O106 C109 1.259 . S
O107 Mg98 2.114 . S
O107 C110 1.252 . S
O108 Mg98 2.251 . S
O108 Mg101 2.079 . S
O108 C110 1.273 . S
C109 O105 1.246 . S
C109 O106 1.259 . S
C110 O107 1.252 . S
C110 O108 1.273 . S
O111 Mg98 2.010 . S
O111 C103 1.249 . S
Mg112 O113 2.028 . S
Mg112 O119 1.986 . S
Mg112 O121 2.114 . S
Mg112 O122 2.251 . S
Mg112 O125 2.010 1_455 S
O113 Mg112 2.028 . S
O113 C116 1.250 . S
O114 Mg115 2.028 . S
O114 C116 1.248 . S
Mg115 O114 2.028 . S
Mg115 O120 2.032 . S
Mg115 O122 2.079 . S
C116 O113 1.250 . S
C116 O114 1.248 . S
C117 O118 1.264 . S
C117 O125 1.249 . S
O118 C117 1.264 . S
O119 Mg112 1.986 . S
O119 C123 1.246 . S
O120 Mg115 2.032 . S
O120 C123 1.259 . S
O121 Mg112 2.114 . S
O121 C124 1.252 . S
O122 Mg112 2.251 . S
O122 Mg115 2.079 . S
O122 C124 1.273 . S
C123 O119 1.246 . S
C123 O120 1.259 . S
C124 O121 1.252 . S
C124 O122 1.273 . S
O125 Mg112 2.010 1_655 S
O125 C117 1.249 . S
Mg126 O127 2.028 . S
Mg126 O133 1.986 1_565 S
Mg126 O135 2.114 . S
Mg126 O136 2.251 . S
Mg126 O139 2.010 . S
O127 Mg126 2.028 . S
O127 C130 1.250 . S
O128 Mg129 2.028 . S
O128 C130 1.248 . S
Mg129 O128 2.028 . S
Mg129 O134 2.032 1_565 S
Mg129 O136 2.079 . S
C130 O127 1.250 . S
C130 O128 1.248 . S
C131 O132 1.264 . S
C131 O139 1.249 . S
O132 C131 1.264 . S
O133 Mg126 1.986 1_545 S
O133 C137 1.246 . S
O134 Mg129 2.032 1_545 S
O134 C137 1.259 . S
O135 Mg126 2.114 . S
O135 C138 1.252 . S
O136 Mg126 2.251 . S
O136 Mg129 2.079 . S
O136 C138 1.273 . S
C137 O133 1.246 . S
C137 O134 1.259 . S
C138 O135 1.252 . S
C138 O136 1.273 . S
O139 Mg126 2.010 . S
O139 C131 1.249 . S
Mg140 O141 2.028 . S
Mg140 O147 1.986 . S
Mg140 O149 2.114 . S
Mg140 O150 2.251 . S
Mg140 O153 2.010 1_455 S
O141 Mg140 2.028 . S
O141 C144 1.250 . S
O142 Mg143 2.028 . S
O142 C144 1.248 . S
Mg143 O142 2.028 . S
Mg143 O148 2.032 . S
Mg143 O150 2.079 . S
C144 O141 1.250 . S
C144 O142 1.248 . S
C145 O146 1.264 . S
C145 O153 1.249 . S
O146 C145 1.264 . S
O147 Mg140 1.986 . S
O147 C151 1.246 . S
O148 Mg143 2.032 . S
O148 C151 1.259 . S
O149 Mg140 2.114 . S
O149 C152 1.252 . S
O150 Mg140 2.251 . S
O150 Mg143 2.079 . S
O150 C152 1.273 . S
C151 O147 1.246 . S
C151 O148 1.259 . S
C152 O149 1.252 . S
C152 O150 1.273 . S
O153 Mg140 2.010 1_655 S
O153 C145 1.249 . S
Mg154 O155 2.028 . S
Mg154 O161 1.986 . S
Mg154 O163 2.114 . S
Mg154 O164 2.251 . S
Mg154 O167 2.010 . S
O155 Mg154 2.028 . S
O155 C158 1.250 . S
O156 Mg157 2.028 . S
O156 C158 1.248 . S
Mg157 O156 2.028 . S
Mg157 O162 2.032 . S
Mg157 O164 2.079 . S
C158 O155 1.250 . S
C158 O156 1.248 . S
C159 O160 1.264 . S
C159 O167 1.249 . S
O160 C159 1.264 . S
O161 Mg154 1.986 . S
O161 C165 1.246 . S
O162 Mg157 2.032 . S
O162 C165 1.259 . S
O163 Mg154 2.114 . S
O163 C166 1.252 . S
O164 Mg154 2.251 . S
O164 Mg157 2.079 . S
O164 C166 1.273 . S
C165 O161 1.246 . S
C165 O162 1.259 . S
C166 O163 1.252 . S
C166 O164 1.273 . S
O167 Mg154 2.010 . S
O167 C159 1.249 . S
Mg168 O169 2.028 . S
Mg168 O175 1.986 1_545 S
Mg168 O177 2.114 . S
Mg168 O178 2.251 . S
Mg168 O181 2.010 . S
O169 Mg168 2.028 . S
O169 C172 1.250 . S
O170 Mg171 2.028 . S
O170 C172 1.248 . S
Mg171 O170 2.028 . S
Mg171 O176 2.032 1_545 S
Mg171 O178 2.079 . S
C172 O169 1.250 . S
C172 O170 1.248 . S
C173 O174 1.264 . S
C173 O181 1.249 . S
O174 C173 1.264 . S
O175 Mg168 1.986 1_565 S
O175 C179 1.246 . S
O176 Mg171 2.032 1_565 S
O176 C179 1.259 . S
O177 Mg168 2.114 . S
O177 C180 1.252 . S
O178 Mg168 2.251 . S
O178 Mg171 2.079 . S
O178 C180 1.273 . S
C179 O175 1.246 . S
C179 O176 1.259 . S
C180 O177 1.252 . S
C180 O178 1.273 . S
O181 Mg168 2.010 . S
O181 C173 1.249 . S
Mg182 O183 2.028 . S
Mg182 O189 1.986 . S
Mg182 O191 2.114 . S
Mg182 O192 2.251 . S
Mg182 O195 2.010 1_655 S
O183 Mg182 2.028 . S
O183 C186 1.250 . S
O184 Mg185 2.028 . S
O184 C186 1.248 . S
Mg185 O184 2.028 . S
Mg185 O190 2.032 . S
Mg185 O192 2.079 . S
C186 O183 1.250 . S
C186 O184 1.248 . S
C187 O188 1.264 . S
C187 O195 1.249 . S
O188 C187 1.264 . S
O189 Mg182 1.986 . S
O189 C193 1.246 . S
O190 Mg185 2.032 . S
O190 C193 1.259 . S
O191 Mg182 2.114 . S
O191 C194 1.252 . S
O192 Mg182 2.251 . S
O192 Mg185 2.079 . S
O192 C194 1.273 . S
C193 O189 1.246 . S
C193 O190 1.259 . S
C194 O191 1.252 . S
C194 O192 1.273 . S
O195 Mg182 2.010 1_455 S
O195 C187 1.249 . S
Mg196 O197 2.028 . S
Mg196 O203 1.986 . S
Mg196 O205 2.114 . S
Mg196 O206 2.251 . S
Mg196 O209 2.010 . S
O197 Mg196 2.028 . S
O197 C200 1.250 . S
O198 Mg199 2.028 . S
O198 C200 1.248 . S
Mg199 O198 2.028 . S
Mg199 O204 2.032 . S
Mg199 O206 2.079 . S
C200 O197 1.250 . S
C200 O198 1.248 . S
C201 O202 1.264 . S
C201 O209 1.249 . S
O202 C201 1.264 . S
O203 Mg196 1.986 . S
O203 C207 1.246 . S
O204 Mg199 2.032 . S
O204 C207 1.259 . S
O205 Mg196 2.114 . S
O205 C208 1.252 . S
O206 Mg196 2.251 . S
O206 Mg199 2.079 . S
O206 C208 1.273 . S
C207 O203 1.246 . S
C207 O204 1.259 . S
C208 O205 1.252 . S
C208 O206 1.273 . S
O209 Mg196 2.010 . S
O209 C201 1.249 . S
Mg210 O211 2.028 . S
Mg210 O217 1.986 . S
Mg210 O219 2.114 . S
Mg210 O220 2.251 . S
Mg210 O223 2.010 . S
O211 Mg210 2.028 . S
O211 C214 1.250 . S
O212 Mg213 2.028 . S
O212 C214 1.248 . S
Mg213 O212 2.028 . S
Mg213 O218 2.032 . S
Mg213 O220 2.079 . S
C214 O211 1.250 . S
C214 O212 1.248 . S
C215 O216 1.264 . S
C215 O223 1.249 . S
O216 C215 1.264 . S
O217 Mg210 1.986 . S
O217 C221 1.246 . S
O218 Mg213 2.032 . S
O218 C221 1.259 . S
O219 Mg210 2.114 . S
O219 C222 1.252 . S
O220 Mg210 2.251 . S
O220 Mg213 2.079 . S
O220 C222 1.273 . S
C221 O217 1.246 . S
C221 O218 1.259 . S
C222 O219 1.252 . S
C222 O220 1.273 . S
O223 Mg210 2.010 . S
O223 C215 1.249 . S
Mg224 O225 2.028 . S
Mg224 O231 1.986 1_545 S
Mg224 O233 2.114 . S
Mg224 O234 2.251 . S
Mg224 O237 2.010 . S
O225 Mg224 2.028 . S
O225 C228 1.250 . S
O226 Mg227 2.028 . S
O226 C228 1.248 . S
Mg227 O226 2.028 . S
Mg227 O232 2.032 1_545 S
Mg227 O234 2.079 . S
C228 O225 1.250 . S
C228 O226 1.248 . S
C229 O230 1.264 . S
C229 O237 1.249 . S
O230 C229 1.264 . S
O231 Mg224 1.986 1_565 S
O231 C235 1.246 . S
O232 Mg227 2.032 1_565 S
O232 C235 1.259 . S
O233 Mg224 2.114 . S
O233 C236 1.252 . S
O234 Mg224 2.251 . S
O234 Mg227 2.079 . S
O234 C236 1.273 . S
C235 O231 1.246 . S
C235 O232 1.259 . S
C236 O233 1.252 . S
C236 O234 1.273 . S
O237 Mg224 2.010 . S
O237 C229 1.249 . S
Mg238 O239 2.028 . S
Mg238 O245 1.986 . S
Mg238 O247 2.114 . S
Mg238 O248 2.251 . S
Mg238 O251 2.010 1_655 S
O239 Mg238 2.028 . S
O239 C242 1.250 . S
O240 Mg241 2.028 . S
O240 C242 1.248 . S
Mg241 O240 2.028 . S
Mg241 O246 2.032 . S
Mg241 O248 2.079 . S
C242 O239 1.250 . S
C242 O240 1.248 . S
C243 O244 1.264 . S
C243 O251 1.249 . S
O244 C243 1.264 . S
O245 Mg238 1.986 . S
O245 C249 1.246 . S
O246 Mg241 2.032 . S
O246 C249 1.259 . S
O247 Mg238 2.114 . S
O247 C250 1.252 . S
O248 Mg238 2.251 . S
O248 Mg241 2.079 . S
O248 C250 1.273 . S
C249 O245 1.246 . S
C249 O246 1.259 . S
C250 O247 1.252 . S
C250 O248 1.273 . S
O251 Mg238 2.010 1_455 S
O251 C243 1.249 . S
H252 C271 0.949 . S
H253 C272 0.950 . S
H254 C274 0.950 . S
H255 C275 0.950 . S
H256 C277 0.950 . S
H257 C280 0.950 . S
H258 C281 0.950 . S
H259 C283 0.951 . S
H260 C284 0.949 . S
H261 C286 0.949 . S
H262 C287 0.950 . S
H263 C289 0.950 . S
H264 C290 0.950 . S
H265 C292 0.950 . S
H266 C295 0.950 . S
H267 C296 0.950 . S
H268 C298 0.951 . S
H269 C299 0.949 . S
C270 C271 1.376 . S
C270 C275 1.386 . S
C270 C276 1.483 . S
C271 H252 0.949 . S
C271 C270 1.376 . S
C271 C272 1.397 . S
C272 H253 0.950 . S
C272 C271 1.397 . S
C272 C273 1.391 . S
C273 C272 1.391 . S
C273 C274 1.405 . S
C274 H254 0.950 . S
C274 C273 1.405 . S
C274 C275 1.367 . S
C275 H255 0.950 . S
C275 C270 1.386 . S
C275 C274 1.367 . S
C276 C270 1.483 . S
C276 C277 1.382 . S
C276 C278 1.403 . S
C277 H256 0.950 . S
C277 C276 1.382 . S
C277 C293 1.411 . S
C278 C276 1.403 . S
C278 C279 1.489 . S
C278 C292 1.411 . S
C279 C278 1.489 . S
C279 C280 1.383 . S
C279 C284 1.382 . S
C280 H257 0.950 . S
C280 C279 1.383 . S
C280 C281 1.395 . S
C281 H258 0.950 . S
C281 C280 1.395 . S
C281 C282 1.288 . S
C282 C281 1.288 . S
C282 C283 1.392 . S
C283 H259 0.951 . S
C283 C282 1.392 . S
C283 C284 1.392 . S
C284 H260 0.949 . S
C284 C279 1.382 . S
C284 C283 1.392 . S
C285 C286 1.376 . S
C285 C290 1.386 . S
C285 C291 1.483 . S
C286 H261 0.949 . S
C286 C285 1.376 . S
C286 C287 1.397 . S
C287 H262 0.950 . S
C287 C286 1.397 . S
C287 C288 1.391 . S
C288 C287 1.391 . S
C288 C289 1.405 . S
C289 H263 0.950 . S
C289 C288 1.405 . S
C289 C290 1.367 . S
C290 H264 0.950 . S
C290 C285 1.386 . S
C290 C289 1.367 . S
C291 C285 1.483 . S
C291 C292 1.382 . S
C291 C293 1.403 . S
C292 H265 0.950 . S
C292 C278 1.411 . S
C292 C291 1.382 . S
C293 C277 1.411 . S
C293 C291 1.403 . S
C293 C294 1.489 . S
C294 C293 1.489 . S
C294 C295 1.383 . S
C294 C299 1.382 . S
C295 H266 0.950 . S
C295 C294 1.383 . S
C295 C296 1.395 . S
C296 H267 0.950 . S
C296 C295 1.395 . S
C296 C297 1.288 . S
C297 C296 1.288 . S
C297 C298 1.392 . S
C298 H268 0.951 . S
C298 C297 1.392 . S
C298 C299 1.392 . S
C299 H269 0.949 . S
C299 C294 1.382 . S
C299 C298 1.392 . S
H300 C319 0.949 . S
H301 C320 0.950 . S
H302 C322 0.950 . S
H303 C323 0.950 . S
H304 C325 0.950 . S
H305 C328 0.950 . S
H306 C329 0.950 . S
H307 C331 0.951 . S
H308 C332 0.949 . S
H309 C334 0.949 . S
H310 C335 0.950 . S
H311 C337 0.950 . S
H312 C338 0.950 . S
H313 C340 0.950 . S
H314 C343 0.950 . S
H315 C344 0.950 . S
H316 C346 0.951 . S
H317 C347 0.949 . S
C318 C319 1.376 . S
C318 C323 1.386 . S
C318 C324 1.483 . S
C319 H300 0.949 . S
C319 C318 1.376 . S
C319 C320 1.397 . S
C320 H301 0.950 . S
C320 C319 1.397 . S
C320 C321 1.391 . S
C321 C320 1.391 . S
C321 C322 1.405 . S
C322 H302 0.950 . S
C322 C321 1.405 . S
C322 C323 1.367 . S
C323 H303 0.950 . S
C323 C318 1.386 . S
C323 C322 1.367 . S
C324 C318 1.483 . S
C324 C325 1.382 . S
C324 C326 1.403 . S
C325 H304 0.950 . S
C325 C324 1.382 . S
C325 C341 1.411 . S
C326 C324 1.403 . S
C326 C327 1.489 . S
C326 C340 1.411 . S
C327 C326 1.489 . S
C327 C328 1.383 . S
C327 C332 1.382 . S
C328 H305 0.950 . S
C328 C327 1.383 . S
C328 C329 1.395 . S
C329 H306 0.950 . S
C329 C328 1.395 . S
C329 C330 1.288 . S
C330 C329 1.288 . S
C330 C331 1.392 . S
C331 H307 0.951 . S
C331 C330 1.392 . S
C331 C332 1.392 . S
C332 H308 0.949 . S
C332 C327 1.382 . S
C332 C331 1.392 . S
C333 C334 1.376 . S
C333 C338 1.386 . S
C333 C339 1.483 . S
C334 H309 0.949 . S
C334 C333 1.376 . S
C334 C335 1.397 . S
C335 H310 0.950 . S
C335 C334 1.397 . S
C335 C336 1.391 . S
C336 C335 1.391 . S
C336 C337 1.405 . S
C337 H311 0.950 . S
C337 C336 1.405 . S
C337 C338 1.367 . S
C338 H312 0.950 . S
C338 C333 1.386 . S
C338 C337 1.367 . S
C339 C333 1.483 . S
C339 C340 1.382 . S
C339 C341 1.403 . S
C340 H313 0.950 . S
C340 C326 1.411 . S
C340 C339 1.382 . S
C341 C325 1.411 . S
C341 C339 1.403 . S
C341 C342 1.489 . S
C342 C341 1.489 . S
C342 C343 1.383 . S
C342 C347 1.382 . S
C343 H314 0.950 . S
C343 C342 1.383 . S
C343 C344 1.395 . S
C344 H315 0.950 . S
C344 C343 1.395 . S
C344 C345 1.288 . S
C345 C344 1.288 . S
C345 C346 1.392 . S
C346 H316 0.951 . S
C346 C345 1.392 . S
C346 C347 1.392 . S
C347 H317 0.949 . S
C347 C342 1.382 . S
C347 C346 1.392 . S
H348 C367 0.949 . S
H349 C368 0.950 . S
H350 C370 0.950 . S
H351 C371 0.950 . S
H352 C373 0.950 . S
H353 C376 0.950 . S
H354 C377 0.950 . S
H355 C379 0.951 . S
H356 C380 0.949 . S
H357 C382 0.949 . S
H358 C383 0.950 . S
H359 C385 0.950 . S
H360 C386 0.950 . S
H361 C388 0.950 . S
H362 C391 0.950 . S
H363 C392 0.950 . S
H364 C394 0.951 . S
H365 C395 0.949 . S
C366 C367 1.376 . S
C366 C371 1.386 . S
C366 C372 1.483 . S
C367 H348 0.949 . S
C367 C366 1.376 . S
C367 C368 1.397 . S
C368 H349 0.950 . S
C368 C367 1.397 . S
C368 C369 1.391 . S
C369 C368 1.391 . S
C369 C370 1.405 . S
C370 H350 0.950 . S
C370 C369 1.405 . S
C370 C371 1.367 . S
C371 H351 0.950 . S
C371 C366 1.386 . S
C371 C370 1.367 . S
C372 C366 1.483 . S
C372 C373 1.382 . S
C372 C374 1.403 . S
C373 H352 0.950 . S
C373 C372 1.382 . S
C373 C389 1.411 . S
C374 C372 1.403 . S
C374 C375 1.489 . S
C374 C388 1.411 . S
C375 C374 1.489 . S
C375 C376 1.383 . S
C375 C380 1.382 . S
C376 H353 0.950 . S
C376 C375 1.383 . S
C376 C377 1.395 . S
C377 H354 0.950 . S
C377 C376 1.395 . S
C377 C378 1.288 . S
C378 C377 1.288 . S
C378 C379 1.392 . S
C379 H355 0.951 . S
C379 C378 1.392 . S
C379 C380 1.392 . S
C380 H356 0.949 . S
C380 C375 1.382 . S
C380 C379 1.392 . S
C381 C382 1.376 . S
C381 C386 1.386 . S
C381 C387 1.483 . S
C382 H357 0.949 . S
C382 C381 1.376 . S
C382 C383 1.397 . S
C383 H358 0.950 . S
C383 C382 1.397 . S
C383 C384 1.391 . S
C384 C383 1.391 . S
C384 C385 1.405 . S
C385 H359 0.950 . S
C385 C384 1.405 . S
C385 C386 1.367 . S
C386 H360 0.950 . S
C386 C381 1.386 . S
C386 C385 1.367 . S
C387 C381 1.483 . S
C387 C388 1.382 . S
C387 C389 1.403 . S
C388 H361 0.950 . S
C388 C374 1.411 . S
C388 C387 1.382 . S
C389 C373 1.411 . S
C389 C387 1.403 . S
C389 C390 1.489 . S
C390 C389 1.489 . S
C390 C391 1.383 . S
C390 C395 1.382 . S
C391 H362 0.950 . S
C391 C390 1.383 . S
C391 C392 1.395 . S
C392 H363 0.950 . S
C392 C391 1.395 . S
C392 C393 1.288 . S
C393 C392 1.288 . S
C393 C394 1.392 . S
C394 H364 0.951 . S
C394 C393 1.392 . S
C394 C395 1.392 . S
C395 H365 0.949 . S
C395 C390 1.382 . S
C395 C394 1.392 . S
H396 C415 0.949 . S
H397 C416 0.950 . S
H398 C418 0.950 . S
H399 C419 0.950 . S
H400 C421 0.950 . S
H401 C424 0.950 . S
H402 C425 0.950 . S
H403 C427 0.951 . S
H404 C428 0.949 . S
H405 C430 0.949 . S
H406 C431 0.950 . S
H407 C433 0.950 . S
H408 C434 0.950 . S
H409 C436 0.950 . S
H410 C439 0.950 . S
H411 C440 0.950 . S
H412 C442 0.951 . S
H413 C443 0.949 . S
C414 C415 1.376 . S
C414 C419 1.386 . S
C414 C420 1.483 . S
C415 H396 0.949 . S
C415 C414 1.376 . S
C415 C416 1.397 . S
C416 H397 0.950 . S
C416 C415 1.397 . S
C416 C417 1.391 . S
C417 C416 1.391 . S
C417 C418 1.405 . S
C418 H398 0.950 . S
C418 C417 1.405 . S
C418 C419 1.367 . S
C419 H399 0.950 . S
C419 C414 1.386 . S
C419 C418 1.367 . S
C420 C414 1.483 . S
C420 C421 1.382 . S
C420 C422 1.403 . S
C421 H400 0.950 . S
C421 C420 1.382 . S
C421 C437 1.411 . S
C422 C420 1.403 . S
C422 C423 1.489 . S
C422 C436 1.411 . S
C423 C422 1.489 . S
C423 C424 1.383 . S
C423 C428 1.382 . S
C424 H401 0.950 . S
C424 C423 1.383 . S
C424 C425 1.395 . S
C425 H402 0.950 . S
C425 C424 1.395 . S
C425 C426 1.288 . S
C426 C425 1.288 . S
C426 C427 1.392 . S
C427 H403 0.951 . S
C427 C426 1.392 . S
C427 C428 1.392 . S
C428 H404 0.949 . S
C428 C423 1.382 . S
C428 C427 1.392 . S
C429 C430 1.376 . S
C429 C434 1.386 . S
C429 C435 1.483 . S
C430 H405 0.949 . S
C430 C429 1.376 . S
C430 C431 1.397 . S
C431 H406 0.950 . S
C431 C430 1.397 . S
C431 C432 1.391 . S
C432 C431 1.391 . S
C432 C433 1.405 . S
C433 H407 0.950 . S
C433 C432 1.405 . S
C433 C434 1.367 . S
C434 H408 0.950 . S
C434 C429 1.386 . S
C434 C433 1.367 . S
C435 C429 1.483 . S
C435 C436 1.382 . S
C435 C437 1.403 . S
C436 H409 0.950 . S
C436 C422 1.411 . S
C436 C435 1.382 . S
C437 C421 1.411 . S
C437 C435 1.403 . S
C437 C438 1.489 . S
C438 C437 1.489 . S
C438 C439 1.383 . S
C438 C443 1.382 . S
C439 H410 0.950 . S
C439 C438 1.383 . S
C439 C440 1.395 . S
C440 H411 0.950 . S
C440 C439 1.395 . S
C440 C441 1.288 . S
C441 C440 1.288 . S
C441 C442 1.392 . S
C442 H412 0.951 . S
C442 C441 1.392 . S
C442 C443 1.392 . S
C443 H413 0.949 . S
C443 C438 1.382 . S
C443 C442 1.392 . S
H444 C463 0.949 . S
H445 C464 0.950 . S
H446 C466 0.950 . S
H447 C467 0.950 . S
H448 C469 0.950 . S
H449 C472 0.950 . S
H450 C473 0.950 . S
H451 C475 0.951 . S
H452 C476 0.949 . S
H453 C478 0.949 . S
H454 C479 0.950 . S
H455 C481 0.950 . S
H456 C482 0.950 . S
H457 C484 0.950 . S
H458 C487 0.950 . S
H459 C488 0.950 . S
H460 C490 0.951 . S
H461 C491 0.949 . S
C462 C463 1.376 . S
C462 C467 1.386 . S
C462 C468 1.483 . S
C463 H444 0.949 . S
C463 C462 1.376 . S
C463 C464 1.397 . S
C464 H445 0.950 . S
C464 C463 1.397 . S
C464 C465 1.391 . S
C465 C464 1.391 . S
C465 C466 1.405 . S
C466 H446 0.950 . S
C466 C465 1.405 . S
C466 C467 1.367 . S
C467 H447 0.950 . S
C467 C462 1.386 . S
C467 C466 1.367 . S
C468 C462 1.483 . S
C468 C469 1.382 . S
C468 C470 1.403 . S
C469 H448 0.950 . S
C469 C468 1.382 . S
C469 C485 1.411 . S
C470 C468 1.403 . S
C470 C471 1.489 . S
C470 C484 1.411 . S
C471 C470 1.489 . S
C471 C472 1.383 . S
C471 C476 1.382 . S
C472 H449 0.950 . S
C472 C471 1.383 . S
C472 C473 1.395 . S
C473 H450 0.950 . S
C473 C472 1.395 . S
C473 C474 1.288 . S
C474 C473 1.288 . S
C474 C475 1.392 . S
C475 H451 0.951 . S
C475 C474 1.392 . S
C475 C476 1.392 . S
C476 H452 0.949 . S
C476 C471 1.382 . S
C476 C475 1.392 . S
C477 C478 1.376 . S
C477 C482 1.386 . S
C477 C483 1.483 . S
C478 H453 0.949 . S
C478 C477 1.376 . S
C478 C479 1.397 . S
C479 H454 0.950 . S
C479 C478 1.397 . S
C479 C480 1.391 . S
C480 C479 1.391 . S
C480 C481 1.405 . S
C481 H455 0.950 . S
C481 C480 1.405 . S
C481 C482 1.367 . S
C482 H456 0.950 . S
C482 C477 1.386 . S
C482 C481 1.367 . S
C483 C477 1.483 . S
C483 C484 1.382 . S
C483 C485 1.403 . S
C484 H457 0.950 . S
C484 C470 1.411 . S
C484 C483 1.382 . S
C485 C469 1.411 . S
C485 C483 1.403 . S
C485 C486 1.489 . S
C486 C485 1.489 . S
C486 C487 1.383 . S
C486 C491 1.382 . S
C487 H458 0.950 . S
C487 C486 1.383 . S
C487 C488 1.395 . S
C488 H459 0.950 . S
C488 C487 1.395 . S
C488 C489 1.288 . S
C489 C488 1.288 . S
C489 C490 1.392 . S
C490 H460 0.951 . S
C490 C489 1.392 . S
C490 C491 1.392 . S
C491 H461 0.949 . S
C491 C486 1.382 . S
C491 C490 1.392 . S
H492 C511 0.949 . S
H493 C512 0.950 . S
H494 C514 0.950 . S
H495 C515 0.950 . S
H496 C517 0.950 . S
H497 C520 0.950 . S
H498 C521 0.950 . S
H499 C523 0.951 . S
H500 C524 0.949 . S
H501 C526 0.949 . S
H502 C527 0.950 . S
H503 C529 0.950 . S
H504 C530 0.950 . S
H505 C532 0.950 . S
H506 C535 0.950 . S
H507 C536 0.950 . S
H508 C538 0.951 . S
H509 C539 0.949 . S
C510 C511 1.376 . S
C510 C515 1.386 . S
C510 C516 1.483 . S
C511 H492 0.949 . S
C511 C510 1.376 . S
C511 C512 1.397 . S
C512 H493 0.950 . S
C512 C511 1.397 . S
C512 C513 1.391 . S
C513 C512 1.391 . S
C513 C514 1.405 . S
C514 H494 0.950 . S
C514 C513 1.405 . S
C514 C515 1.367 . S
C515 H495 0.950 . S
C515 C510 1.386 . S
C515 C514 1.367 . S
C516 C510 1.483 . S
C516 C517 1.382 . S
C516 C518 1.403 . S
C517 H496 0.950 . S
C517 C516 1.382 . S
C517 C533 1.411 . S
C518 C516 1.403 . S
C518 C519 1.489 . S
C518 C532 1.411 . S
C519 C518 1.489 . S
C519 C520 1.383 . S
C519 C524 1.382 . S
C520 H497 0.950 . S
C520 C519 1.383 . S
C520 C521 1.395 . S
C521 H498 0.950 . S
C521 C520 1.395 . S
C521 C522 1.288 . S
C522 C521 1.288 . S
C522 C523 1.392 . S
C523 H499 0.951 . S
C523 C522 1.392 . S
C523 C524 1.392 . S
C524 H500 0.949 . S
C524 C519 1.382 . S
C524 C523 1.392 . S
C525 C526 1.376 . S
C525 C530 1.386 . S
C525 C531 1.483 . S
C526 H501 0.949 . S
C526 C525 1.376 . S
C526 C527 1.397 . S
C527 H502 0.950 . S
C527 C526 1.397 . S
C527 C528 1.391 . S
C528 C527 1.391 . S
C528 C529 1.405 . S
C529 H503 0.950 . S
C529 C528 1.405 . S
C529 C530 1.367 . S
C530 H504 0.950 . S
C530 C525 1.386 . S
C530 C529 1.367 . S
C531 C525 1.483 . S
C531 C532 1.382 . S
C531 C533 1.403 . S
C532 H505 0.950 . S
C532 C518 1.411 . S
C532 C531 1.382 . S
C533 C517 1.411 . S
C533 C531 1.403 . S
C533 C534 1.489 . S
C534 C533 1.489 . S
C534 C535 1.383 . S
C534 C539 1.382 . S
C535 H506 0.950 . S
C535 C534 1.383 . S
C535 C536 1.395 . S
C536 H507 0.950 . S
C536 C535 1.395 . S
C536 C537 1.288 . S
C537 C536 1.288 . S
C537 C538 1.392 . S
C538 H508 0.951 . S
C538 C537 1.392 . S
C538 C539 1.392 . S
C539 H509 0.949 . S
C539 C534 1.382 . S
C539 C538 1.392 . S
H540 C559 0.949 . S
H541 C560 0.950 . S
H542 C562 0.950 . S
H543 C563 0.950 . S
H544 C565 0.950 . S
H545 C568 0.950 . S
H546 C569 0.950 . S
H547 C571 0.951 . S
H548 C572 0.949 . S
H549 C574 0.949 . S
H550 C575 0.950 . S
H551 C577 0.950 . S
H552 C578 0.950 . S
H553 C580 0.950 . S
H554 C583 0.950 . S
H555 C584 0.950 . S
H556 C586 0.951 . S
H557 C587 0.949 . S
C558 C559 1.376 . S
C558 C563 1.386 . S
C558 C564 1.483 . S
C559 H540 0.949 . S
C559 C558 1.376 . S
C559 C560 1.397 . S
C560 H541 0.950 . S
C560 C559 1.397 . S
C560 C561 1.391 . S
C561 C560 1.391 . S
C561 C562 1.405 . S
C562 H542 0.950 . S
C562 C561 1.405 . S
C562 C563 1.367 . S
C563 H543 0.950 . S
C563 C558 1.386 . S
C563 C562 1.367 . S
C564 C558 1.483 . S
C564 C565 1.382 . S
C564 C566 1.403 . S
C565 H544 0.950 . S
C565 C564 1.382 . S
C565 C581 1.411 . S
C566 C564 1.403 . S
C566 C567 1.489 . S
C566 C580 1.411 . S
C567 C566 1.489 . S
C567 C568 1.383 . S
C567 C572 1.382 . S
C568 H545 0.950 . S
C568 C567 1.383 . S
C568 C569 1.395 . S
C569 H546 0.950 . S
C569 C568 1.395 . S
C569 C570 1.288 . S
C570 C569 1.288 . S
C570 C571 1.392 . S
C571 H547 0.951 . S
C571 C570 1.392 . S
C571 C572 1.392 . S
C572 H548 0.949 . S
C572 C567 1.382 . S
C572 C571 1.392 . S
C573 C574 1.376 . S
C573 C578 1.386 . S
C573 C579 1.483 . S
C574 H549 0.949 . S
C574 C573 1.376 . S
C574 C575 1.397 . S
C575 H550 0.950 . S
C575 C574 1.397 . S
C575 C576 1.391 . S
C576 C575 1.391 . S
C576 C577 1.405 . S
C577 H551 0.950 . S
C577 C576 1.405 . S
C577 C578 1.367 . S
C578 H552 0.950 . S
C578 C573 1.386 . S
C578 C577 1.367 . S
C579 C573 1.483 . S
C579 C580 1.382 . S
C579 C581 1.403 . S
C580 H553 0.950 . S
C580 C566 1.411 . S
C580 C579 1.382 . S
C581 C565 1.411 . S
C581 C579 1.403 . S
C581 C582 1.489 . S
C582 C581 1.489 . S
C582 C583 1.383 . S
C582 C587 1.382 . S
C583 H554 0.950 . S
C583 C582 1.383 . S
C583 C584 1.395 . S
C584 H555 0.950 . S
C584 C583 1.395 . S
C584 C585 1.288 . S
C585 C584 1.288 . S
C585 C586 1.392 . S
C586 H556 0.951 . S
C586 C585 1.392 . S
C586 C587 1.392 . S
C587 H557 0.949 . S
C587 C582 1.382 . S
C587 C586 1.392 . S
H588 C607 0.949 . S
H589 C608 0.950 . S
H590 C610 0.950 . S
H591 C611 0.950 . S
H592 C613 0.950 . S
H593 C616 0.950 . S
H594 C617 0.950 . S
H595 C619 0.951 . S
H596 C620 0.949 . S
H597 C622 0.949 . S
H598 C623 0.950 . S
H599 C625 0.950 . S
H600 C626 0.950 . S
H601 C628 0.950 . S
H602 C631 0.950 . S
H603 C632 0.950 . S
H604 C634 0.951 . S
H605 C635 0.949 . S
C606 C607 1.376 . S
C606 C611 1.386 . S
C606 C612 1.483 . S
C607 H588 0.949 . S
C607 C606 1.376 . S
C607 C608 1.397 . S
C608 H589 0.950 . S
C608 C607 1.397 . S
C608 C609 1.391 . S
C609 C608 1.391 . S
C609 C610 1.405 . S
C610 H590 0.950 . S
C610 C609 1.405 . S
C610 C611 1.367 . S
C611 H591 0.950 . S
C611 C606 1.386 . S
C611 C610 1.367 . S
C612 C606 1.483 . S
C612 C613 1.382 . S
C612 C614 1.403 . S
C613 H592 0.950 . S
C613 C612 1.382 . S
C613 C629 1.411 . S
C614 C612 1.403 . S
C614 C615 1.489 . S
C614 C628 1.411 . S
C615 C614 1.489 . S
C615 C616 1.383 . S
C615 C620 1.382 . S
C616 H593 0.950 . S
C616 C615 1.383 . S
C616 C617 1.395 . S
C617 H594 0.950 . S
C617 C616 1.395 . S
C617 C618 1.288 . S
C618 C617 1.288 . S
C618 C619 1.392 . S
C619 H595 0.951 . S
C619 C618 1.392 . S
C619 C620 1.392 . S
C620 H596 0.949 . S
C620 C615 1.382 . S
C620 C619 1.392 . S
C621 C622 1.376 . S
C621 C626 1.386 . S
C621 C627 1.483 . S
C622 H597 0.949 . S
C622 C621 1.376 . S
C622 C623 1.397 . S
C623 H598 0.950 . S
C623 C622 1.397 . S
C623 C624 1.391 . S
C624 C623 1.391 . S
C624 C625 1.405 . S
C625 H599 0.950 . S
C625 C624 1.405 . S
C625 C626 1.367 . S
C626 H600 0.950 . S
C626 C621 1.386 . S
C626 C625 1.367 . S
C627 C621 1.483 . S
C627 C628 1.382 . S
C627 C629 1.403 . S
C628 H601 0.950 . S
C628 C614 1.411 . S
C628 C627 1.382 . S
C629 C613 1.411 . S
C629 C627 1.403 . S
C629 C630 1.489 . S
C630 C629 1.489 . S
C630 C631 1.383 . S
C630 C635 1.382 . S
C631 H602 0.950 . S
C631 C630 1.383 . S
C631 C632 1.395 . S
C632 H603 0.950 . S
C632 C631 1.395 . S
C632 C633 1.288 . S
C633 C632 1.288 . S
C633 C634 1.392 . S
C634 H604 0.951 . S
C634 C633 1.392 . S
C634 C635 1.392 . S
C635 H605 0.949 . S
C635 C630 1.382 . S
C635 C634 1.392 . S
H636 C655 0.949 . S
H637 C656 0.950 . S
H638 C658 0.950 . S
H639 C659 0.950 . S
H640 C661 0.950 . S
H641 C664 0.950 . S
H642 C665 0.950 . S
H643 C667 0.951 . S
H644 C668 0.949 . S
H645 C670 0.949 . S
H646 C671 0.950 . S
H647 C673 0.950 . S
H648 C674 0.950 . S
H649 C676 0.950 . S
H650 C679 0.950 . S
H651 C680 0.950 . S
H652 C682 0.951 . S
H653 C683 0.949 . S
C654 C655 1.376 . S
C654 C659 1.386 . S
C654 C660 1.483 . S
C655 H636 0.949 . S
C655 C654 1.376 . S
C655 C656 1.397 . S
C656 H637 0.950 . S
C656 C655 1.397 . S
C656 C657 1.391 . S
C657 C656 1.391 . S
C657 C658 1.405 . S
C658 H638 0.950 . S
C658 C657 1.405 . S
C658 C659 1.367 . S
C659 H639 0.950 . S
C659 C654 1.386 . S
C659 C658 1.367 . S
C660 C654 1.483 . S
C660 C661 1.382 . S
C660 C662 1.403 . S
C661 H640 0.950 . S
C661 C660 1.382 . S
C661 C677 1.411 . S
C662 C660 1.403 . S
C662 C663 1.489 . S
C662 C676 1.411 . S
C663 C662 1.489 . S
C663 C664 1.383 . S
C663 C668 1.382 . S
C664 H641 0.950 . S
C664 C663 1.383 . S
C664 C665 1.395 . S
C665 H642 0.950 . S
C665 C664 1.395 . S
C665 C666 1.288 . S
C666 C665 1.288 . S
C666 C667 1.392 . S
C667 H643 0.951 . S
C667 C666 1.392 . S
C667 C668 1.392 . S
C668 H644 0.949 . S
C668 C663 1.382 . S
C668 C667 1.392 . S
C669 C670 1.376 . S
C669 C674 1.386 . S
C669 C675 1.483 . S
C670 H645 0.949 . S
C670 C669 1.376 . S
C670 C671 1.397 . S
C671 H646 0.950 . S
C671 C670 1.397 . S
C671 C672 1.391 . S
C672 C671 1.391 . S
C672 C673 1.405 . S
C673 H647 0.950 . S
C673 C672 1.405 . S
C673 C674 1.367 . S
C674 H648 0.950 . S
C674 C669 1.386 . S
C674 C673 1.367 . S
C675 C669 1.483 . S
C675 C676 1.382 . S
C675 C677 1.403 . S
C676 H649 0.950 . S
C676 C662 1.411 . S
C676 C675 1.382 . S
C677 C661 1.411 . S
C677 C675 1.403 . S
C677 C678 1.489 . S
C678 C677 1.489 . S
C678 C679 1.383 . S
C678 C683 1.382 . S
C679 H650 0.950 . S
C679 C678 1.383 . S
C679 C680 1.395 . S
C680 H651 0.950 . S
C680 C679 1.395 . S
C680 C681 1.288 . S
C681 C680 1.288 . S
C681 C682 1.392 . S
C682 H652 0.951 . S
C682 C681 1.392 . S
C682 C683 1.392 . S
C683 H653 0.949 . S
C683 C678 1.382 . S
C683 C682 1.392 . S
H684 C703 0.949 . S
H685 C704 0.950 . S
H686 C706 0.950 . S
H687 C707 0.950 . S
H688 C709 0.950 . S
H689 C712 0.950 . S
H690 C713 0.950 . S
H691 C715 0.951 . S
H692 C716 0.949 . S
H693 C718 0.949 . S
H694 C719 0.950 . S
H695 C721 0.950 . S
H696 C722 0.950 . S
H697 C724 0.950 . S
H698 C727 0.950 . S
H699 C728 0.950 . S
H700 C730 0.951 . S
H701 C731 0.949 . S
C702 C703 1.376 . S
C702 C707 1.386 1_655 S
C702 C708 1.483 . S
C703 H684 0.949 . S
C703 C702 1.376 . S
C703 C704 1.397 . S
C704 H685 0.950 . S
C704 C703 1.397 . S
C704 C705 1.391 . S
C705 C704 1.391 . S
C705 C706 1.405 1_655 S
C706 H686 0.950 . S
C706 C705 1.405 1_455 S
C706 C707 1.367 . S
C707 H687 0.950 . S
C707 C702 1.386 1_455 S
C707 C706 1.367 . S
C708 C702 1.483 . S
C708 C709 1.382 . S
C708 C710 1.403 1_655 S
C709 H688 0.950 . S
C709 C708 1.382 . S
C709 C725 1.411 . S
C710 C708 1.403 1_455 S
C710 C711 1.489 . S
C710 C724 1.411 . S
C711 C710 1.489 . S
C711 C712 1.383 1_455 S
C711 C716 1.382 . S
C712 H689 0.950 . S
C712 C711 1.383 1_655 S
C712 C713 1.395 . S
C713 H690 0.950 . S
C713 C712 1.395 . S
C713 C714 1.288 1_655 S
C714 C713 1.288 1_455 S
C714 C715 1.392 . S
C715 H691 0.951 . S
C715 C714 1.392 . S
C715 C716 1.392 . S
C716 H692 0.949 . S
C716 C711 1.382 . S
C716 C715 1.392 . S
C717 C718 1.376 . S
C717 C722 1.386 1_455 S
C717 C723 1.483 . S
C718 H693 0.949 . S
C718 C717 1.376 . S
C718 C719 1.397 . S
C719 H694 0.950 . S
C719 C718 1.397 . S
C719 C720 1.391 . S
C720 C719 1.391 . S
C720 C721 1.405 1_455 S
C721 H695 0.950 . S
C721 C720 1.405 1_655 S
C721 C722 1.367 . S
C722 H696 0.950 . S
C722 C717 1.386 1_655 S
C722 C721 1.367 . S
C723 C717 1.483 . S
C723 C724 1.382 . S
C723 C725 1.403 1_455 S
C724 H697 0.950 . S
C724 C710 1.411 . S
C724 C723 1.382 . S
C725 C709 1.411 . S
C725 C723 1.403 1_655 S
C725 C726 1.489 . S
C726 C725 1.489 . S
C726 C727 1.383 1_655 S
C726 C731 1.382 . S
C727 H698 0.950 . S
C727 C726 1.383 1_455 S
C727 C728 1.395 . S
C728 H699 0.950 . S
C728 C727 1.395 . S
C728 C729 1.288 1_455 S
C729 C728 1.288 1_655 S
C729 C730 1.392 . S
C730 H700 0.951 . S
C730 C729 1.392 . S
C730 C731 1.392 . S
C731 H701 0.949 . S
C731 C726 1.382 . S
C731 C730 1.392 . S
H732 C751 0.949 . S
H733 C752 0.950 . S
H734 C754 0.950 . S
H735 C755 0.950 . S
H736 C757 0.950 . S
H737 C760 0.950 . S
H738 C761 0.950 . S
H739 C763 0.951 . S
H740 C764 0.949 . S
H741 C766 0.949 . S
H742 C767 0.950 . S
H743 C769 0.950 . S
H744 C770 0.950 . S
H745 C772 0.950 . S
H746 C775 0.950 . S
H747 C776 0.950 . S
H748 C778 0.951 . S
H749 C779 0.949 . S
C750 C751 1.376 . S
C750 C755 1.386 . S
C750 C756 1.483 . S
C751 H732 0.949 . S
C751 C750 1.376 . S
C751 C752 1.397 . S
C752 H733 0.950 . S
C752 C751 1.397 . S
C752 C753 1.391 . S
C753 C752 1.391 . S
C753 C754 1.405 . S
C754 H734 0.950 . S
C754 C753 1.405 . S
C754 C755 1.367 . S
C755 H735 0.950 . S
C755 C750 1.386 . S
C755 C754 1.367 . S
C756 C750 1.483 . S
C756 C757 1.382 . S
C756 C758 1.403 . S
C757 H736 0.950 . S
C757 C756 1.382 . S
C757 C773 1.411 . S
C758 C756 1.403 . S
C758 C759 1.489 . S
C758 C772 1.411 . S
C759 C758 1.489 . S
C759 C760 1.383 . S
C759 C764 1.382 . S
C760 H737 0.950 . S
C760 C759 1.383 . S
C760 C761 1.395 . S
C761 H738 0.950 . S
C761 C760 1.395 . S
C761 C762 1.288 . S
C762 C761 1.288 . S
C762 C763 1.392 . S
C763 H739 0.951 . S
C763 C762 1.392 . S
C763 C764 1.392 . S
C764 H740 0.949 . S
C764 C759 1.382 . S
C764 C763 1.392 . S
C765 C766 1.376 . S
C765 C770 1.386 . S
C765 C771 1.483 . S
C766 H741 0.949 . S
C766 C765 1.376 . S
C766 C767 1.397 . S
C767 H742 0.950 . S
C767 C766 1.397 . S
C767 C768 1.391 . S
C768 C767 1.391 . S
C768 C769 1.405 . S
C769 H743 0.950 . S
C769 C768 1.405 . S
C769 C770 1.367 . S
C770 H744 0.950 . S
C770 C765 1.386 . S
C770 C769 1.367 . S
C771 C765 1.483 . S
C771 C772 1.382 . S
C771 C773 1.403 . S
C772 H745 0.950 . S
C772 C758 1.411 . S
C772 C771 1.382 . S
C773 C757 1.411 . S
C773 C771 1.403 . S
C773 C774 1.489 . S
C774 C773 1.489 . S
C774 C775 1.383 . S
C774 C779 1.382 . S
C775 H746 0.950 . S
C775 C774 1.383 . S
C775 C776 1.395 . S
C776 H747 0.950 . S
C776 C775 1.395 . S
C776 C777 1.288 . S
C777 C776 1.288 . S
C777 C778 1.392 . S
C778 H748 0.951 . S
C778 C777 1.392 . S
C778 C779 1.392 . S
C779 H749 0.949 . S
C779 C774 1.382 . S
C779 C778 1.392 . S
H780 C799 0.949 . S
H781 C800 0.950 . S
H782 C802 0.950 . S
H783 C803 0.950 . S
H784 C805 0.950 . S
H785 C808 0.950 . S
H786 C809 0.950 . S
H787 C811 0.951 . S
H788 C812 0.949 . S
H789 C814 0.949 . S
H790 C815 0.950 . S
H791 C817 0.950 . S
H792 C818 0.950 . S
H793 C820 0.950 . S
H794 C823 0.950 . S
H795 C824 0.950 . S
H796 C826 0.951 . S
H797 C827 0.949 . S
C798 C799 1.376 . S
C798 C803 1.386 1_545 S
C798 C804 1.483 . S
C799 H780 0.949 . S
C799 C798 1.376 . S
C799 C800 1.397 . S
C800 H781 0.950 . S
C800 C799 1.397 . S
C800 C801 1.391 . S
C801 C800 1.391 . S
C801 C802 1.405 1_545 S
C802 H782 0.950 . S
C802 C801 1.405 1_565 S
C802 C803 1.367 . S
C803 H783 0.950 . S
C803 C798 1.386 1_565 S
C803 C802 1.367 . S
C804 C798 1.483 . S
C804 C805 1.382 . S
C804 C806 1.403 1_545 S
C805 H784 0.950 . S
C805 C804 1.382 . S
C805 C821 1.411 . S
C806 C804 1.403 1_565 S
C806 C807 1.489 . S
C806 C820 1.411 . S
C807 C806 1.489 . S
C807 C808 1.383 1_565 S
C807 C812 1.382 . S
C808 H785 0.950 . S
C808 C807 1.383 1_545 S
C808 C809 1.395 . S
C809 H786 0.950 . S
C809 C808 1.395 . S
C809 C810 1.288 1_545 S
C810 C809 1.288 1_565 S
C810 C811 1.392 . S
C811 H787 0.951 . S
C811 C810 1.392 . S
C811 C812 1.392 . S
C812 H788 0.949 . S
C812 C807 1.382 . S
C812 C811 1.392 . S
C813 C814 1.376 . S
C813 C818 1.386 1_565 S
C813 C819 1.483 . S
C814 H789 0.949 . S
C814 C813 1.376 . S
C814 C815 1.397 . S
C815 H790 0.950 . S
C815 C814 1.397 . S
C815 C816 1.391 . S
C816 C815 1.391 . S
C816 C817 1.405 1_565 S
C817 H791 0.950 . S
C817 C816 1.405 1_545 S
C817 C818 1.367 . S
C818 H792 0.950 . S
C818 C813 1.386 1_545 S
C818 C817 1.367 . S
C819 C813 1.483 . S
C819 C820 1.382 . S
C819 C821 1.403 1_565 S
C820 H793 0.950 . S
C820 C806 1.411 . S
C820 C819 1.382 . S
C821 C805 1.411 . S
C821 C819 1.403 1_545 S
C821 C822 1.489 . S
C822 C821 1.489 . S
C822 C823 1.383 1_545 S
C822 C827 1.382 . S
C823 H794 0.950 . S
C823 C822 1.383 1_565 S
C823 C824 1.395 . S
C824 H795 0.950 . S
C824 C823 1.395 . S
C824 C825 1.288 1_565 S
C825 C824 1.288 1_545 S
C825 C826 1.392 . S
C826 H796 0.951 . S
C826 C825 1.392 . S
C826 C827 1.392 . S
C827 H797 0.949 . S
C827 C822 1.382 . S
C827 C826 1.392 . S
H828 C847 0.949 . S
H829 C848 0.950 . S
H830 C850 0.950 . S
H831 C851 0.950 . S
H832 C853 0.950 . S
H833 C856 0.950 . S
H834 C857 0.950 . S
H835 C859 0.951 . S
H836 C860 0.949 . S
H837 C862 0.949 . S
H838 C863 0.950 . S
H839 C865 0.950 . S
H840 C866 0.950 . S
H841 C868 0.950 . S
H842 C871 0.950 . S
H843 C872 0.950 . S
H844 C874 0.951 . S
H845 C875 0.949 . S
C846 C847 1.376 . S
C846 C851 1.386 1_545 S
C846 C852 1.506 . S
C847 H828 0.949 . S
C847 C846 1.376 . S
C847 C848 1.397 . S
C848 H829 0.950 . S
C848 C847 1.397 . S
C848 C849 1.391 1_545 S
C849 C848 1.391 1_565 S
C849 C850 1.405 . S
C850 H830 0.950 . S
C850 C849 1.405 . S
C850 C851 1.367 . S
C851 H831 0.950 . S
C851 C846 1.386 1_565 S
C851 C850 1.367 . S
C852 C846 1.506 . S
C852 C853 1.360 . S
C852 C854 1.400 1_545 S
C853 H832 0.950 . S
C853 C852 1.360 . S
C853 C869 1.446 . S
C854 C852 1.400 1_565 S
C854 C855 1.485 . S
C854 C868 1.436 . S
C855 C854 1.485 . S
C855 C856 1.341 1_565 S
C855 C860 1.404 . S
C856 H833 0.950 . S
C856 C855 1.341 1_545 S
C856 C857 1.395 . S
C857 H834 0.950 . S
C857 C856 1.395 . S
C857 C858 1.288 . S
C858 C857 1.288 . S
C858 C859 1.392 1_545 S
C859 H835 0.951 . S
C859 C858 1.392 1_565 S
C859 C860 1.392 . S
C860 H836 0.949 . S
C860 C855 1.404 . S
C860 C859 1.392 . S
C861 C862 1.376 1_545 S
C861 C866 1.386 . S
C861 C867 1.498 1_545 S
C862 H837 0.949 . S
C862 C861 1.376 1_565 S
C862 C863 1.397 . S
C863 H838 0.950 . S
C863 C862 1.397 . S
C863 C864 1.391 1_565 S
C864 C863 1.391 1_545 S
C864 C865 1.405 . S
C865 H839 0.950 . S
C865 C864 1.405 . S
C865 C866 1.367 . S
C866 H840 0.950 . S
C866 C861 1.386 . S
C866 C865 1.367 . S
C867 C861 1.498 1_565 S
C867 C868 1.367 . S
C867 C869 1.400 1_565 S
C868 H841 0.950 . S
C868 C854 1.436 . S
C868 C867 1.367 . S
C869 C853 1.446 . S
C869 C867 1.400 1_545 S
C869 C870 1.485 . S
C870 C869 1.485 . S
C870 C871 1.324 1_545 S
C870 C875 1.414 . S
C871 H842 0.950 . S
C871 C870 1.324 1_565 S
C871 C872 1.395 . S
C872 H843 0.950 . S
C872 C871 1.395 . S
C872 C873 1.323 . S
C873 C872 1.323 . S
C873 C874 1.323 1_565 S
C874 H844 0.951 . S
C874 C873 1.323 1_545 S
C874 C875 1.392 . S
C875 H845 0.949 . S
C875 C870 1.414 . S
C875 C874 1.392 . S
H876 C895 0.949 . S
H877 C896 0.950 . S
H878 C898 0.950 . S
H879 C899 0.950 . S
H880 C901 0.950 . S
H881 C904 0.950 . S
H882 C905 0.950 . S
H883 C907 0.951 . S
H884 C908 0.949 . S
H885 C910 0.949 . S
H886 C911 0.950 . S
H887 C913 0.950 . S
H888 C914 0.950 . S
H889 C916 0.950 . S
H890 C919 0.950 . S
H891 C920 0.950 . S
H892 C922 0.951 . S
H893 C923 0.949 . S
C894 C895 1.376 . S
C894 C899 1.386 1_455 S
C894 C900 1.483 . S
C895 H876 0.949 . S
C895 C894 1.376 . S
C895 C896 1.397 . S
C896 H877 0.950 . S
C896 C895 1.397 . S
C896 C897 1.391 . S
C897 C896 1.391 . S
C897 C898 1.405 1_455 S
C898 H878 0.950 . S
C898 C897 1.405 1_655 S
C898 C899 1.367 . S
C899 H879 0.950 . S
C899 C894 1.386 1_655 S
C899 C898 1.367 . S
C900 C894 1.483 . S
C900 C901 1.382 . S
C900 C902 1.403 1_455 S
C901 H880 0.950 . S
C901 C900 1.382 . S
C901 C917 1.411 . S
C902 C900 1.403 1_655 S
C902 C903 1.489 . S
C902 C916 1.411 . S
C903 C902 1.489 . S
C903 C904 1.383 1_655 S
C903 C908 1.382 . S
C904 H881 0.950 . S
C904 C903 1.383 1_455 S
C904 C905 1.395 . S
C905 H882 0.950 . S
C905 C904 1.395 . S
C905 C906 1.288 1_455 S
C906 C905 1.288 1_655 S
C906 C907 1.392 . S
C907 H883 0.951 . S
C907 C906 1.392 . S
C907 C908 1.392 . S
C908 H884 0.949 . S
C908 C903 1.382 . S
C908 C907 1.392 . S
C909 C910 1.376 . S
C909 C914 1.386 1_655 S
C909 C915 1.483 . S
C910 H885 0.949 . S
C910 C909 1.376 . S
C910 C911 1.397 . S
C911 H886 0.950 . S
C911 C910 1.397 . S
C911 C912 1.391 . S
C912 C911 1.391 . S
C912 C913 1.405 1_655 S
C913 H887 0.950 . S
C913 C912 1.405 1_455 S
C913 C914 1.367 . S
C914 H888 0.950 . S
C914 C909 1.386 1_455 S
C914 C913 1.367 . S
C915 C909 1.483 . S
C915 C916 1.382 . S
C915 C917 1.403 1_655 S
C916 H889 0.950 . S
C916 C902 1.411 . S
C916 C915 1.382 . S
C917 C901 1.411 . S
C917 C915 1.403 1_455 S
C917 C918 1.489 . S
C918 C917 1.489 . S
C918 C919 1.383 1_455 S
C918 C923 1.382 . S
C919 H890 0.950 . S
C919 C918 1.383 1_655 S
C919 C920 1.395 . S
C920 H891 0.950 . S
C920 C919 1.395 . S
C920 C921 1.288 1_655 S
C921 C920 1.288 1_455 S
C921 C922 1.392 . S
C922 H892 0.951 . S
C922 C921 1.392 . S
C922 C923 1.392 . S
C923 H893 0.949 . S
C923 C918 1.382 . S
C923 C922 1.392 . S
H924 C943 0.949 . S
H925 C944 0.950 . S
H926 C946 0.950 . S
H927 C947 0.950 . S
H928 C949 0.950 . S
H929 C952 0.950 . S
H930 C953 0.950 . S
H931 C955 0.951 . S
H932 C956 0.949 . S
H933 C958 0.949 . S
H934 C959 0.950 . S
H935 C961 0.950 . S
H936 C962 0.950 . S
H937 C964 0.950 . S
H938 C967 0.950 . S
H939 C968 0.950 . S
H940 C970 0.951 . S
H941 C971 0.949 . S
C942 C943 1.376 . S
C942 C947 1.386 . S
C942 C948 1.483 . S
C943 H924 0.949 . S
C943 C942 1.376 . S
C943 C944 1.397 . S
C944 H925 0.950 . S
C944 C943 1.397 . S
C944 C945 1.391 . S
C945 C944 1.391 . S
C945 C946 1.405 . S
C946 H926 0.950 . S
C946 C945 1.405 . S
C946 C947 1.367 . S
C947 H927 0.950 . S
C947 C942 1.386 . S
C947 C946 1.367 . S
C948 C942 1.483 . S
C948 C949 1.382 . S
C948 C950 1.403 . S
C949 H928 0.950 . S
C949 C948 1.382 . S
C949 C965 1.411 . S
C950 C948 1.403 . S
C950 C951 1.489 . S
C950 C964 1.411 . S
C951 C950 1.489 . S
C951 C952 1.383 . S
C951 C956 1.382 . S
C952 H929 0.950 . S
C952 C951 1.383 . S
C952 C953 1.395 . S
C953 H930 0.950 . S
C953 C952 1.395 . S
C953 C954 1.288 . S
C954 C953 1.288 . S
C954 C955 1.392 . S
C955 H931 0.951 . S
C955 C954 1.392 . S
C955 C956 1.392 . S
C956 H932 0.949 . S
C956 C951 1.382 . S
C956 C955 1.392 . S
C957 C958 1.376 . S
C957 C962 1.386 . S
C957 C963 1.483 . S
C958 H933 0.949 . S
C958 C957 1.376 . S
C958 C959 1.397 . S
C959 H934 0.950 . S
C959 C958 1.397 . S
C959 C960 1.391 . S
C960 C959 1.391 . S
C960 C961 1.405 . S
C961 H935 0.950 . S
C961 C960 1.405 . S
C961 C962 1.367 . S
C962 H936 0.950 . S
C962 C957 1.386 . S
C962 C961 1.367 . S
C963 C957 1.483 . S
C963 C964 1.382 . S
C963 C965 1.403 . S
C964 H937 0.950 . S
C964 C950 1.411 . S
C964 C963 1.382 . S
C965 C949 1.411 . S
C965 C963 1.403 . S
C965 C966 1.489 . S
C966 C965 1.489 . S
C966 C967 1.383 . S
C966 C971 1.382 . S
C967 H938 0.950 . S
C967 C966 1.383 . S
C967 C968 1.395 . S
C968 H939 0.950 . S
C968 C967 1.395 . S
C968 C969 1.288 . S
C969 C968 1.288 . S
C969 C970 1.392 . S
C970 H940 0.951 . S
C970 C969 1.392 . S
C970 C971 1.392 . S
C971 H941 0.949 . S
C971 C966 1.382 . S
C971 C970 1.392 . S
H972 C991 0.949 . S
H973 C992 0.950 . S
H974 C994 0.950 . S
H975 C995 0.950 . S
H976 C997 0.950 . S
H977 C1000 0.950 . S
H978 C1001 0.950 . S
H979 C1003 0.951 . S
H980 C1004 0.949 . S
H981 C1006 0.949 . S
H982 C1007 0.950 . S
H983 C1009 0.950 . S
H984 C1010 0.950 . S
H985 C1012 0.950 . S
H986 C1015 0.950 . S
H987 C1016 0.950 . S
H988 C1018 0.951 . S
H989 C1019 0.949 . S
C990 C991 1.376 . S
C990 C995 1.386 . S
C990 C996 1.483 . S
C991 H972 0.949 . S
C991 C990 1.376 . S
C991 C992 1.397 . S
C992 H973 0.950 . S
C992 C991 1.397 . S
C992 C993 1.391 . S
C993 C992 1.391 . S
C993 C994 1.405 . S
C994 H974 0.950 . S
C994 C993 1.405 . S
C994 C995 1.367 . S
C995 H975 0.950 . S
C995 C990 1.386 . S
C995 C994 1.367 . S
C996 C990 1.483 . S
C996 C997 1.382 . S
C996 C998 1.403 . S
C997 H976 0.950 . S
C997 C996 1.382 . S
C997 C1013 1.411 . S
C998 C996 1.403 . S
C998 C999 1.489 . S
C998 C1012 1.411 . S
C999 C998 1.489 . S
C999 C1000 1.383 . S
C999 C1004 1.382 . S
C1000 H977 0.950 . S
C1000 C999 1.383 . S
C1000 C1001 1.395 . S
C1001 H978 0.950 . S
C1001 C1000 1.395 . S
C1001 C1002 1.288 . S
C1002 C1001 1.288 . S
C1002 C1003 1.392 . S
C1003 H979 0.951 . S
C1003 C1002 1.392 . S
C1003 C1004 1.392 . S
C1004 H980 0.949 . S
C1004 C999 1.382 . S
C1004 C1003 1.392 . S
C1005 C1006 1.376 . S
C1005 C1010 1.386 . S
C1005 C1011 1.483 . S
C1006 H981 0.949 . S
C1006 C1005 1.376 . S
C1006 C1007 1.397 . S
C1007 H982 0.950 . S
C1007 C1006 1.397 . S
C1007 C1008 1.391 . S
C1008 C1007 1.391 . S
C1008 C1009 1.405 . S
C1009 H983 0.950 . S
C1009 C1008 1.405 . S
C1009 C1010 1.367 . S
C1010 H984 0.950 . S
C1010 C1005 1.386 . S
C1010 C1009 1.367 . S
C1011 C1005 1.483 . S
C1011 C1012 1.382 . S
C1011 C1013 1.403 . S
C1012 H985 0.950 . S
C1012 C998 1.411 . S
C1012 C1011 1.382 . S
C1013 C997 1.411 . S
C1013 C1011 1.403 . S
C1013 C1014 1.489 . S
C1014 C1013 1.489 . S
C1014 C1015 1.383 . S
C1014 C1019 1.382 . S
C1015 H986 0.950 . S
C1015 C1014 1.383 . S
C1015 C1016 1.395 . S
C1016 H987 0.950 . S
C1016 C1015 1.395 . S
C1016 C1017 1.288 . S
C1017 C1016 1.288 . S
C1017 C1018 1.392 . S
C1018 H988 0.951 . S
C1018 C1017 1.392 . S
C1018 C1019 1.392 . S
C1019 H989 0.949 . S
C1019 C1014 1.382 . S
C1019 C1018 1.392 . S
H1020 C1039 0.949 . S
H1021 C1040 0.950 . S
H1022 C1042 0.950 . S
H1023 C1043 0.950 . S
H1024 C1045 0.950 . S
H1025 C1048 0.950 . S
H1026 C1049 0.950 . S
H1027 C1051 0.951 . S
H1028 C1052 0.949 . S
H1029 C1054 0.949 . S
H1030 C1055 0.950 . S
H1031 C1057 0.950 . S
H1032 C1058 0.950 . S
H1033 C1060 0.950 . S
H1034 C1063 0.950 . S
H1035 C1064 0.950 . S
H1036 C1066 0.951 . S
H1037 C1067 0.949 . S
C1038 C1039 1.376 . S
C1038 C1043 1.386 . S
C1038 C1044 1.483 . S
C1039 H1020 0.949 . S
C1039 C1038 1.376 . S
C1039 C1040 1.397 . S
C1040 H1021 0.950 . S
C1040 C1039 1.397 . S
C1040 C1041 1.391 . S
C1041 C1040 1.391 . S
C1041 C1042 1.405 . S
C1042 H1022 0.950 . S
C1042 C1041 1.405 . S
C1042 C1043 1.367 . S
C1043 H1023 0.950 . S
C1043 C1038 1.386 . S
C1043 C1042 1.367 . S
C1044 C1038 1.483 . S
C1044 C1045 1.382 . S
C1044 C1046 1.403 . S
C1045 H1024 0.950 . S
C1045 C1044 1.382 . S
C1045 C1061 1.411 . S
C1046 C1044 1.403 . S
C1046 C1047 1.489 . S
C1046 C1060 1.411 . S
C1047 C1046 1.489 . S
C1047 C1048 1.383 . S
C1047 C1052 1.382 . S
C1048 H1025 0.950 . S
C1048 C1047 1.383 . S
C1048 C1049 1.395 . S
C1049 H1026 0.950 . S
C1049 C1048 1.395 . S
C1049 C1050 1.288 . S
C1050 C1049 1.288 . S
C1050 C1051 1.392 . S
C1051 H1027 0.951 . S
C1051 C1050 1.392 . S
C1051 C1052 1.392 . S
C1052 H1028 0.949 . S
C1052 C1047 1.382 . S
C1052 C1051 1.392 . S
C1053 C1054 1.376 . S
C1053 C1058 1.386 . S
C1053 C1059 1.483 . S
C1054 H1029 0.949 . S
C1054 C1053 1.376 . S
C1054 C1055 1.397 . S
C1055 H1030 0.950 . S
C1055 C1054 1.397 . S
C1055 C1056 1.391 . S
C1056 C1055 1.391 . S
C1056 C1057 1.405 . S
C1057 H1031 0.950 . S
C1057 C1056 1.405 . S
C1057 C1058 1.367 . S
C1058 H1032 0.950 . S
C1058 C1053 1.386 . S
C1058 C1057 1.367 . S
C1059 C1053 1.483 . S
C1059 C1060 1.382 . S
C1059 C1061 1.403 . S
C1060 H1033 0.950 . S
C1060 C1046 1.411 . S
C1060 C1059 1.382 . S
C1061 C1045 1.411 . S
C1061 C1059 1.403 . S
C1061 C1062 1.489 . S
C1062 C1061 1.489 . S
C1062 C1063 1.383 . S
C1062 C1067 1.382 . S
C1063 H1034 0.950 . S
C1063 C1062 1.383 . S
C1063 C1064 1.395 . S
C1064 H1035 0.950 . S
C1064 C1063 1.395 . S
C1064 C1065 1.288 . S
C1065 C1064 1.288 . S
C1065 C1066 1.392 . S
C1066 H1036 0.951 . S
C1066 C1065 1.392 . S
C1066 C1067 1.392 . S
C1067 H1037 0.949 . S
C1067 C1062 1.382 . S
C1067 C1066 1.392 . S
H1068 C1087 0.949 . S
H1069 C1088 0.950 . S
H1070 C1090 0.950 . S
H1071 C1091 0.950 . S
H1072 C1093 0.950 . S
H1073 C1096 0.950 . S
H1074 C1097 0.950 . S
H1075 C1099 0.951 . S
H1076 C1100 0.949 . S
H1077 C1102 0.949 . S
H1078 C1103 0.950 . S
H1079 C1105 0.950 . S
H1080 C1106 0.950 . S
H1081 C1108 0.950 . S
H1082 C1111 0.950 . S
H1083 C1112 0.950 . S
H1084 C1114 0.951 . S
H1085 C1115 0.949 . S
C1086 C1087 1.376 . S
C1086 C1091 1.386 . S
C1086 C1092 1.483 . S
C1087 H1068 0.949 . S
C1087 C1086 1.376 . S
C1087 C1088 1.397 . S
C1088 H1069 0.950 . S
C1088 C1087 1.397 . S
C1088 C1089 1.391 . S
C1089 C1088 1.391 . S
C1089 C1090 1.405 . S
C1090 H1070 0.950 . S
C1090 C1089 1.405 . S
C1090 C1091 1.367 . S
C1091 H1071 0.950 . S
C1091 C1086 1.386 . S
C1091 C1090 1.367 . S
C1092 C1086 1.483 . S
C1092 C1093 1.382 . S
C1092 C1094 1.403 . S
C1093 H1072 0.950 . S
C1093 C1092 1.382 . S
C1093 C1109 1.411 . S
C1094 C1092 1.403 . S
C1094 C1095 1.489 . S
C1094 C1108 1.411 . S
C1095 C1094 1.489 . S
C1095 C1096 1.383 . S
C1095 C1100 1.382 . S
C1096 H1073 0.950 . S
C1096 C1095 1.383 . S
C1096 C1097 1.395 . S
C1097 H1074 0.950 . S
C1097 C1096 1.395 . S
C1097 C1098 1.288 . S
C1098 C1097 1.288 . S
C1098 C1099 1.392 . S
C1099 H1075 0.951 . S
C1099 C1098 1.392 . S
C1099 C1100 1.392 . S
C1100 H1076 0.949 . S
C1100 C1095 1.382 . S
C1100 C1099 1.392 . S
C1101 C1102 1.376 . S
C1101 C1106 1.386 . S
C1101 C1107 1.483 . S
C1102 H1077 0.949 . S
C1102 C1101 1.376 . S
C1102 C1103 1.397 . S
C1103 H1078 0.950 . S
C1103 C1102 1.397 . S
C1103 C1104 1.391 . S
C1104 C1103 1.391 . S
C1104 C1105 1.405 . S
C1105 H1079 0.950 . S
C1105 C1104 1.405 . S
C1105 C1106 1.367 . S
C1106 H1080 0.950 . S
C1106 C1101 1.386 . S
C1106 C1105 1.367 . S
C1107 C1101 1.483 . S
C1107 C1108 1.382 . S
C1107 C1109 1.403 . S
C1108 H1081 0.950 . S
C1108 C1094 1.411 . S
C1108 C1107 1.382 . S
C1109 C1093 1.411 . S
C1109 C1107 1.403 . S
C1109 C1110 1.489 . S
C1110 C1109 1.489 . S
C1110 C1111 1.383 . S
C1110 C1115 1.382 . S
C1111 H1082 0.950 . S
C1111 C1110 1.383 . S
C1111 C1112 1.395 . S
C1112 H1083 0.950 . S
C1112 C1111 1.395 . S
C1112 C1113 1.288 . S
C1113 C1112 1.288 . S
C1113 C1114 1.392 . S
C1114 H1084 0.951 . S
C1114 C1113 1.392 . S
C1114 C1115 1.392 . S
C1115 H1085 0.949 . S
C1115 C1110 1.382 . S
C1115 C1114 1.392 . S
H1116 C1117 0.889 1_455 S
C1117 H1116 0.889 1_655 S
C1117 C1123 1.335 . S
H1118 C1123 0.950 . S
H1119 C1127 0.949 . S
H1120 C1128 0.950 . S
H1121 C1129 0.951 . S
H1122 C1130 0.951 . S
C1123 C1117 1.335 . S
C1123 H1118 0.950 . S
C1123 C1124 1.478 . S
C1124 C1123 1.478 . S
C1124 C1125 1.397 . S
C1124 C1141 1.394 1_655 S
C1125 C1124 1.397 . S
C1125 C1126 1.438 . S
C1125 C1130 1.429 . S
C1126 C1125 1.438 . S
C1126 C1127 1.428 . S
C1126 C1139 1.377 1_655 S
C1127 H1119 0.949 . S
C1127 C1126 1.428 . S
C1127 C1128 1.345 . S
C1128 H1120 0.950 . S
C1128 C1127 1.345 . S
C1128 C1129 1.424 . S
C1129 H1121 0.951 . S
C1129 C1128 1.424 . S
C1129 C1130 1.347 . S
C1130 H1122 0.951 . S
C1130 C1125 1.429 . S
C1130 C1129 1.347 . S
H1131 C1132 0.951 . S
C1132 H1131 0.951 . S
C1132 C1138 1.265 1_655 S
H1133 C1138 0.950 . S
H1134 C1142 0.949 . S
H1135 C1143 0.950 . S
H1136 C1144 0.951 . S
H1137 C1145 0.951 . S
C1138 C1132 1.265 1_455 S
C1138 H1133 0.950 . S
C1138 C1139 1.468 . S
C1139 C1126 1.377 1_455 S
C1139 C1138 1.468 . S
C1139 C1140 1.431 . S
C1140 C1139 1.431 . S
C1140 C1141 1.438 . S
C1140 C1145 1.429 . S
C1141 C1124 1.394 1_455 S
C1141 C1140 1.438 . S
C1141 C1142 1.428 . S
C1142 H1134 0.949 . S
C1142 C1141 1.428 . S
C1142 C1143 1.345 . S
C1143 H1135 0.950 . S
C1143 C1142 1.345 . S
C1143 C1144 1.424 . S
C1144 H1136 0.951 . S
C1144 C1143 1.424 . S
C1144 C1145 1.347 . S
C1145 H1137 0.951 . S
C1145 C1140 1.429 . S
C1145 C1144 1.347 . S
H1146 C1147 0.951 . S
C1147 H1146 0.951 . S
C1147 C1153 1.265 . S
H1148 C1153 0.950 . S
H1149 C1157 0.949 . S
H1150 C1158 0.950 . S
H1151 C1159 0.951 . S
H1152 C1160 0.951 . S
C1153 C1147 1.265 . S
C1153 H1148 0.950 . S
C1153 C1154 1.478 . S
C1154 C1153 1.478 . S
C1154 C1155 1.397 . S
C1154 C1171 1.394 . S
C1155 C1154 1.397 . S
C1155 C1156 1.438 . S
C1155 C1160 1.429 . S
C1156 C1155 1.438 . S
C1156 C1157 1.428 . S
C1156 C1169 1.394 . S
C1157 H1149 0.949 . S
C1157 C1156 1.428 . S
C1157 C1158 1.345 . S
C1158 H1150 0.950 . S
C1158 C1157 1.345 . S
C1158 C1159 1.424 . S
C1159 H1151 0.951 . S
C1159 C1158 1.424 . S
C1159 C1160 1.347 . S
C1160 H1152 0.951 . S
C1160 C1155 1.429 . S
C1160 C1159 1.347 . S
H1161 C1162 0.951 . S
C1162 H1161 0.951 . S
C1162 C1168 1.265 . S
H1163 C1168 0.950 . S
H1164 C1172 0.949 . S
H1165 C1173 0.950 . S
H1166 C1174 0.951 . S
H1167 C1175 0.951 . S
C1168 C1162 1.265 . S
C1168 H1163 0.950 . S
C1168 C1169 1.478 . S
C1169 C1156 1.394 . S
C1169 C1168 1.478 . S
C1169 C1170 1.397 . S
C1170 C1169 1.397 . S
C1170 C1171 1.438 . S
C1170 C1175 1.429 . S
C1171 C1154 1.394 . S
C1171 C1170 1.438 . S
C1171 C1172 1.428 . S
C1172 H1164 0.949 . S
C1172 C1171 1.428 . S
C1172 C1173 1.345 . S
C1173 H1165 0.950 . S
C1173 C1172 1.345 . S
C1173 C1174 1.424 . S
C1174 H1166 0.951 . S
C1174 C1173 1.424 . S
C1174 C1175 1.347 . S
C1175 H1167 0.951 . S
C1175 C1170 1.429 . S
C1175 C1174 1.347 . S
H1176 C1177 0.951 . S
C1177 H1176 0.951 . S
C1177 C1183 1.265 . S
H1178 C1183 0.950 1_565 S
H1179 C1187 0.949 . S
H1180 C1188 0.950 . S
H1181 C1189 0.951 . S
H1182 C1190 0.951 . S
C1183 C1177 1.265 . S
C1183 H1178 0.950 1_545 S
C1183 C1184 1.478 . S
C1184 C1183 1.478 . S
C1184 C1185 1.397 1_545 S
C1184 C1201 1.394 . S
C1185 C1184 1.397 1_565 S
C1185 C1186 1.438 . S
C1185 C1190 1.429 . S
C1186 C1185 1.438 . S
C1186 C1187 1.428 . S
C1186 C1199 1.394 1_565 S
C1187 H1179 0.949 . S
C1187 C1186 1.428 . S
C1187 C1188 1.345 . S
C1188 H1180 0.950 . S
C1188 C1187 1.345 . S
C1188 C1189 1.424 . S
C1189 H1181 0.951 . S
C1189 C1188 1.424 . S
C1189 C1190 1.347 . S
C1190 H1182 0.951 . S
C1190 C1185 1.429 . S
C1190 C1189 1.347 . S
H1191 C1192 0.951 1_565 S
C1192 H1191 0.951 1_545 S
C1192 C1198 1.265 . S
H1193 C1198 0.950 . S
H1194 C1202 0.949 . S
H1195 C1203 0.950 . S
H1196 C1204 0.951 . S
H1197 C1205 0.951 . S
C1198 C1192 1.265 . S
C1198 H1193 0.950 . S
C1198 C1199 1.478 . S
C1199 C1186 1.394 1_545 S
C1199 C1198 1.478 . S
C1199 C1200 1.397 . S
C1200 C1199 1.397 . S
C1200 C1201 1.438 . S
C1200 C1205 1.429 . S
C1201 C1184 1.394 . S
C1201 C1200 1.438 . S
C1201 C1202 1.428 . S
C1202 H1194 0.949 . S
C1202 C1201 1.428 . S
C1202 C1203 1.345 . S
C1203 H1195 0.950 . S
C1203 C1202 1.345 . S
C1203 C1204 1.424 . S
C1204 H1196 0.951 . S
C1204 C1203 1.424 . S
C1204 C1205 1.347 . S
C1205 H1197 0.951 . S
C1205 C1200 1.429 . S
C1205 C1204 1.347 . S
H1206 C1207 0.951 . S
C1207 H1206 0.951 . S
C1207 C1213 1.265 . S
H1208 C1213 0.950 . S
H1209 C1217 0.949 . S
H1210 C1218 0.950 . S
H1211 C1219 0.951 . S
H1212 C1220 0.951 . S
C1213 C1207 1.265 . S
C1213 H1208 0.950 . S
C1213 C1214 1.478 . S
C1214 C1213 1.478 . S
C1214 C1215 1.397 . S
C1214 C1231 1.394 1_565 S
C1215 C1214 1.397 . S
C1215 C1216 1.438 . S
C1215 C1220 1.429 . S
C1216 C1215 1.438 . S
C1216 C1217 1.428 . S
C1216 C1229 1.394 . S
C1217 H1209 0.949 . S
C1217 C1216 1.428 . S
C1217 C1218 1.345 . S
C1218 H1210 0.950 . S
C1218 C1217 1.345 . S
C1218 C1219 1.424 . S
C1219 H1211 0.951 . S
C1219 C1218 1.424 . S
C1219 C1220 1.347 . S
C1220 H1212 0.951 . S
C1220 C1215 1.429 . S
C1220 C1219 1.347 . S
H1221 C1222 0.951 . S
C1222 H1221 0.951 . S
C1222 C1228 1.265 . S
H1223 C1228 0.950 1_545 S
H1224 C1232 0.949 . S
H1225 C1233 0.950 . S
H1226 C1234 0.951 . S
H1227 C1235 0.951 . S
C1228 C1222 1.265 . S
C1228 H1223 0.950 1_565 S
C1228 C1229 1.478 . S
C1229 C1216 1.394 . S
C1229 C1228 1.478 . S
C1229 C1230 1.397 1_565 S
C1230 C1229 1.397 1_545 S
C1230 C1231 1.438 . S
C1230 C1235 1.429 . S
C1231 C1214 1.394 1_545 S
C1231 C1230 1.438 . S
C1231 C1232 1.428 . S
C1232 H1224 0.949 . S
C1232 C1231 1.428 . S
C1232 C1233 1.345 . S
C1233 H1225 0.950 . S
C1233 C1232 1.345 . S
C1233 C1234 1.424 . S
C1234 H1226 0.951 . S
C1234 C1233 1.424 . S
C1234 C1235 1.347 . S
C1235 H1227 0.951 . S
C1235 C1230 1.429 . S
C1235 C1234 1.347 . S
H1236 C1237 0.951 . S
C1237 H1236 0.951 . S
C1237 C1243 1.265 . S
H1238 C1243 0.950 1_655 S
H1239 C1247 0.949 . S
H1240 C1248 0.950 . S
H1241 C1249 0.951 . S
H1242 C1250 0.951 . S
C1243 C1237 1.265 . S
C1243 H1238 0.950 1_455 S
C1243 C1244 1.478 . S
C1244 C1243 1.478 . S
C1244 C1245 1.397 1_455 S
C1244 C1261 1.394 . S
C1245 C1244 1.397 1_655 S
C1245 C1246 1.440 1_655 S
C1245 C1250 1.429 . S
C1246 C1245 1.440 1_455 S
C1246 C1247 1.421 1_455 S
C1246 C1259 1.398 . S
C1247 H1239 0.949 . S
C1247 C1246 1.421 1_655 S
C1247 C1248 1.345 . S
C1248 H1240 0.950 . S
C1248 C1247 1.345 . S
C1248 C1249 1.424 . S
C1249 H1241 0.951 . S
C1249 C1248 1.424 . S
C1249 C1250 1.347 . S
C1250 H1242 0.951 . S
C1250 C1245 1.429 . S
C1250 C1249 1.347 . S
H1251 C1252 0.951 1_655 S
C1252 H1251 0.951 1_455 S
C1252 C1258 1.265 . S
H1253 C1258 0.950 . S
H1254 C1262 0.949 . S
H1255 C1263 0.950 . S
H1256 C1264 0.951 . S
H1257 C1265 0.951 . S
C1258 C1252 1.265 . S
C1258 H1253 0.950 . S
C1258 C1259 1.478 . S
C1259 C1246 1.398 . S
C1259 C1258 1.478 . S
C1259 C1260 1.397 . S
C1260 C1259 1.397 . S
C1260 C1261 1.438 . S
C1260 C1265 1.429 . S
C1261 C1244 1.394 . S
C1261 C1260 1.438 . S
C1261 C1262 1.428 . S
C1262 H1254 0.949 . S
C1262 C1261 1.428 . S
C1262 C1263 1.345 . S
C1263 H1255 0.950 . S
C1263 C1262 1.345 . S
C1263 C1264 1.424 . S
C1264 H1256 0.951 . S
C1264 C1263 1.424 . S
C1264 C1265 1.347 . S
C1265 H1257 0.951 . S
C1265 C1260 1.429 . S
C1265 C1264 1.347 . S
H1266 C1267 0.951 . S
C1267 H1266 0.951 . S
C1267 C1273 1.265 . S
H1268 C1273 0.950 . S
H1269 C1277 0.949 . S
H1270 C1278 0.950 . S
H1271 C1279 0.951 . S
H1272 C1280 0.951 . S
C1273 C1267 1.265 . S
C1273 H1268 0.950 . S
C1273 C1274 1.478 . S
C1274 C1273 1.478 . S
C1274 C1275 1.397 . S
C1274 C1291 1.394 . S
C1275 C1274 1.397 . S
C1275 C1276 1.438 . S
C1275 C1280 1.429 . S
C1276 C1275 1.438 . S
C1276 C1277 1.428 . S
C1276 C1289 1.394 . S
C1277 H1269 0.949 . S
C1277 C1276 1.428 . S
C1277 C1278 1.345 . S
C1278 H1270 0.950 . S
C1278 C1277 1.345 . S
C1278 C1279 1.424 . S
C1279 H1271 0.951 . S
C1279 C1278 1.424 . S
C1279 C1280 1.347 . S
C1280 H1272 0.951 . S
C1280 C1275 1.429 . S
C1280 C1279 1.347 . S
H1281 C1282 0.951 . S
C1282 H1281 0.951 . S
C1282 C1288 1.265 . S
H1283 C1288 0.950 . S
H1284 C1292 0.949 . S
H1285 C1293 0.950 . S
H1286 C1294 0.951 . S
H1287 C1295 0.951 . S
C1288 C1282 1.265 . S
C1288 H1283 0.950 . S
C1288 C1289 1.478 . S
C1289 C1276 1.394 . S
C1289 C1288 1.478 . S
C1289 C1290 1.397 . S
C1290 C1289 1.397 . S
C1290 C1291 1.438 . S
C1290 C1295 1.429 . S
C1291 C1274 1.394 . S
C1291 C1290 1.438 . S
C1291 C1292 1.428 . S
C1292 H1284 0.949 . S
C1292 C1291 1.428 . S
C1292 C1293 1.345 . S
C1293 H1285 0.950 . S
C1293 C1292 1.345 . S
C1293 C1294 1.424 . S
C1294 H1286 0.951 . S
C1294 C1293 1.424 . S
C1294 C1295 1.347 . S
C1295 H1287 0.951 . S
C1295 C1290 1.429 . S
C1295 C1294 1.347 . S
H1296 C1297 0.951 1_655 S
C1297 H1296 0.951 1_455 S
C1297 C1303 1.265 . S
H1298 C1303 0.950 . S
H1299 C1307 0.949 . S
H1300 C1308 0.950 . S
H1301 C1309 0.951 . S
H1302 C1310 0.951 . S
C1303 C1297 1.265 . S
C1303 H1298 0.950 . S
C1303 C1304 1.478 . S
C1304 C1303 1.478 . S
C1304 C1305 1.397 . S
C1304 C1321 1.394 . S
C1305 C1304 1.397 . S
C1305 C1306 1.438 . S
C1305 C1310 1.429 . S
C1306 C1305 1.438 . S
C1306 C1307 1.428 . S
C1306 C1319 1.394 . S
C1307 H1299 0.949 . S
C1307 C1306 1.428 . S
C1307 C1308 1.345 . S
C1308 H1300 0.950 . S
C1308 C1307 1.345 . S
C1308 C1309 1.424 . S
C1309 H1301 0.951 . S
C1309 C1308 1.424 . S
C1309 C1310 1.347 . S
C1310 H1302 0.951 . S
C1310 C1305 1.429 . S
C1310 C1309 1.347 . S
H1311 C1312 0.951 . S
C1312 H1311 0.951 . S
C1312 C1318 1.265 1_455 S
H1313 C1318 0.950 . S
H1314 C1322 0.949 . S
H1315 C1323 0.950 . S
H1316 C1324 0.951 . S
H1317 C1325 0.951 . S
C1318 C1312 1.265 1_655 S
C1318 H1313 0.950 . S
C1318 C1319 1.478 1_655 S
C1319 C1306 1.394 . S
C1319 C1318 1.478 1_455 S
C1319 C1320 1.350 1_455 S
C1320 C1319 1.350 1_655 S
C1320 C1321 1.452 1_655 S
C1320 C1325 1.468 . S
C1321 C1304 1.394 . S
C1321 C1320 1.452 1_455 S
C1321 C1322 1.428 . S
C1322 H1314 0.949 . S
C1322 C1321 1.428 . S
C1322 C1323 1.345 1_455 S
C1323 H1315 0.950 . S
C1323 C1322 1.345 1_655 S
C1323 C1324 1.424 . S
C1324 H1316 0.951 . S
C1324 C1323 1.424 . S
C1324 C1325 1.347 . S
C1325 H1317 0.951 . S
C1325 C1320 1.468 . S
C1325 C1324 1.347 . S
H1326 C1327 0.951 . S
C1327 H1326 0.951 . S
C1327 C1333 1.265 . S
H1328 C1333 0.950 . S
H1329 C1337 0.949 . S
H1330 C1338 0.950 . S
H1331 C1339 0.951 . S
H1332 C1340 0.951 . S
C1333 C1327 1.265 . S
C1333 H1328 0.950 . S
C1333 C1334 1.478 . S
C1334 C1333 1.478 . S
C1334 C1335 1.397 . S
C1334 C1351 1.394 . S
C1335 C1334 1.397 . S
C1335 C1336 1.438 . S
C1335 C1340 1.429 . S
C1336 C1335 1.438 . S
C1336 C1337 1.428 . S
C1336 C1349 1.394 . S
C1337 H1329 0.949 . S
C1337 C1336 1.428 . S
C1337 C1338 1.345 . S
C1338 H1330 0.950 . S
C1338 C1337 1.345 . S
C1338 C1339 1.424 . S
C1339 H1331 0.951 . S
C1339 C1338 1.424 . S
C1339 C1340 1.347 . S
C1340 H1332 0.951 . S
C1340 C1335 1.429 . S
C1340 C1339 1.347 . S
H1341 C1342 0.951 . S
C1342 H1341 0.951 . S
C1342 C1348 1.265 . S
H1343 C1348 0.950 . S
H1344 C1352 0.949 . S
H1345 C1353 0.950 . S
H1346 C1354 0.951 . S
H1347 C1355 0.951 . S
C1348 C1342 1.265 . S
C1348 H1343 0.950 . S
C1348 C1349 1.478 . S
C1349 C1336 1.394 . S
C1349 C1348 1.478 . S
C1349 C1350 1.397 . S
C1350 C1349 1.397 . S
C1350 C1351 1.438 . S
C1350 C1355 1.429 . S
C1351 C1334 1.394 . S
C1351 C1350 1.438 . S
C1351 C1352 1.428 . S
C1352 H1344 0.949 . S
C1352 C1351 1.428 . S
C1352 C1353 1.345 . S
C1353 H1345 0.950 . S
C1353 C1352 1.345 . S
C1353 C1354 1.424 . S
C1354 H1346 0.951 . S
C1354 C1353 1.424 . S
C1354 C1355 1.347 . S
C1355 H1347 0.951 . S
C1355 C1350 1.429 . S
C1355 C1354 1.347 . S
H1356 C1357 0.951 . S
C1357 H1356 0.951 . S
C1357 C1363 1.265 . S
H1358 C1363 0.950 . S
H1359 C1367 0.949 . S
H1360 C1368 0.950 . S
H1361 C1369 0.951 . S
H1362 C1370 0.951 . S
C1363 C1357 1.265 . S
C1363 H1358 0.950 . S
C1363 C1364 1.478 . S
C1364 C1363 1.478 . S
C1364 C1365 1.397 . S
C1364 C1381 1.394 1_565 S
C1365 C1364 1.397 . S
C1365 C1366 1.438 . S
C1365 C1370 1.429 . S
C1366 C1365 1.438 . S
C1366 C1367 1.428 . S
C1366 C1379 1.394 . S
C1367 H1359 0.949 . S
C1367 C1366 1.428 . S
C1367 C1368 1.345 . S
C1368 H1360 0.950 . S
C1368 C1367 1.345 . S
C1368 C1369 1.424 . S
C1369 H1361 0.951 . S
C1369 C1368 1.424 . S
C1369 C1370 1.347 . S
C1370 H1362 0.951 . S
C1370 C1365 1.429 . S
C1370 C1369 1.347 . S
H1371 C1372 0.951 . S
C1372 H1371 0.951 . S
C1372 C1378 1.265 . S
H1373 C1378 0.950 1_545 S
H1374 C1382 0.949 . S
H1375 C1383 0.950 . S
H1376 C1384 0.951 . S
H1377 C1385 0.951 . S
C1378 C1372 1.265 . S
C1378 H1373 0.950 1_565 S
C1378 C1379 1.478 . S
C1379 C1366 1.394 . S
C1379 C1378 1.478 . S
C1379 C1380 1.397 1_565 S
C1380 C1379 1.397 1_545 S
C1380 C1381 1.438 . S
C1380 C1385 1.429 . S
C1381 C1364 1.394 1_545 S
C1381 C1380 1.438 . S
C1381 C1382 1.428 . S
C1382 H1374 0.949 . S
C1382 C1381 1.428 . S
C1382 C1383 1.345 . S
C1383 H1375 0.950 . S
C1383 C1382 1.345 . S
C1383 C1384 1.424 . S
C1384 H1376 0.951 . S
C1384 C1383 1.424 . S
C1384 C1385 1.347 . S
C1385 H1377 0.951 . S
C1385 C1380 1.429 . S
C1385 C1384 1.347 . S
H1386 C1387 0.951 . S
C1387 H1386 0.951 . S
C1387 C1393 1.265 . S
H1388 C1393 0.996 . S
H1389 C1397 0.949 . S
H1390 C1398 0.950 . S
H1391 C1399 0.951 . S
H1392 C1400 0.951 . S
C1393 C1387 1.265 . S
C1393 H1388 0.996 . S
C1393 C1394 1.478 . S
C1394 C1393 1.478 . S
C1394 C1395 1.397 . S
C1394 C1411 1.394 . S
C1395 C1394 1.397 . S
C1395 C1396 1.438 . S
C1395 C1400 1.429 . S
C1396 C1395 1.438 . S
C1396 C1397 1.428 . S
C1396 C1409 1.394 . S
C1397 H1389 0.949 . S
C1397 C1396 1.428 . S
C1397 C1398 1.345 . S
C1398 H1390 0.950 . S
C1398 C1397 1.345 . S
C1398 C1399 1.424 . S
C1399 H1391 0.951 . S
C1399 C1398 1.424 . S
C1399 C1400 1.347 . S
C1400 H1392 0.951 . S
C1400 C1395 1.429 . S
C1400 C1399 1.347 . S
H1401 C1402 0.951 1_565 S
C1402 H1401 0.951 1_545 S
C1402 C1408 1.265 . S
H1403 C1408 0.950 . S
H1404 C1412 0.949 . S
H1405 C1413 0.950 . S
H1406 C1414 0.951 . S
H1407 C1415 0.951 . S
C1408 C1402 1.265 . S
C1408 H1403 0.950 . S
C1408 C1409 1.478 . S
C1409 C1396 1.394 . S
C1409 C1408 1.478 . S
C1409 C1410 1.397 . S
C1410 C1409 1.397 . S
C1410 C1411 1.438 . S
C1410 C1415 1.429 1_545 S
C1411 C1394 1.394 . S
C1411 C1410 1.438 . S
C1411 C1412 1.428 1_545 S
C1412 H1404 0.949 . S
C1412 C1411 1.428 1_565 S
C1412 C1413 1.345 . S
C1413 H1405 0.950 . S
C1413 C1412 1.345 . S
C1413 C1414 1.424 . S
C1414 H1406 0.951 . S
C1414 C1413 1.424 . S
C1414 C1415 1.347 . S
C1415 H1407 0.951 . S
C1415 C1410 1.429 1_565 S
C1415 C1414 1.347 . S
H1416 C1417 0.951 . S
C1417 H1416 0.951 . S
C1417 C1423 1.273 . S
H1418 C1423 0.943 1_455 S
H1419 C1427 0.949 . S
H1420 C1428 0.950 . S
H1421 C1429 0.951 . S
H1422 C1430 0.951 . S
C1423 C1417 1.273 . S
C1423 H1418 0.943 1_655 S
C1423 C1424 1.476 . S
C1424 C1423 1.476 . S
C1424 C1425 1.397 1_655 S
C1424 C1441 1.394 . S
C1425 C1424 1.397 1_455 S
C1425 C1426 1.438 . S
C1425 C1430 1.429 . S
C1426 C1425 1.438 . S
C1426 C1427 1.428 . S
C1426 C1439 1.394 1_455 S
C1427 H1419 0.949 . S
C1427 C1426 1.428 . S
C1427 C1428 1.345 . S
C1428 H1420 0.950 . S
C1428 C1427 1.345 . S
C1428 C1429 1.424 . S
C1429 H1421 0.951 . S
C1429 C1428 1.424 . S
C1429 C1430 1.347 . S
C1430 H1422 0.951 . S
C1430 C1425 1.429 . S
C1430 C1429 1.347 . S
H1431 C1432 0.951 1_455 S
C1432 H1431 0.951 1_655 S
C1432 C1438 1.265 . S
H1433 C1438 0.950 . S
H1434 C1442 0.949 . S
H1435 C1443 0.950 . S
H1436 C1444 0.951 . S
H1437 C1445 0.951 . S
C1438 C1432 1.265 . S
C1438 H1433 0.950 . S
C1438 C1439 1.478 . S
C1439 C1426 1.394 1_655 S
C1439 C1438 1.478 . S
C1439 C1440 1.397 . S
C1440 C1439 1.397 . S
C1440 C1441 1.438 . S
C1440 C1445 1.429 . S
C1441 C1424 1.394 . S
C1441 C1440 1.438 . S
C1441 C1442 1.428 . S
C1442 H1434 0.949 . S
C1442 C1441 1.428 . S
C1442 C1443 1.345 . S
C1443 H1435 0.950 . S
C1443 C1442 1.345 . S
C1443 C1444 1.424 . S
C1444 H1436 0.951 . S
C1444 C1443 1.424 . S
C1444 C1445 1.347 . S
C1445 H1437 0.951 . S
C1445 C1440 1.429 . S
C1445 C1444 1.347 . S
H1446 C1447 0.951 . S
C1447 H1446 0.951 . S
C1447 C1453 1.265 . S
H1448 C1453 0.950 . S
H1449 C1457 0.949 . S
H1450 C1458 0.950 . S
H1451 C1459 0.951 . S
H1452 C1460 0.951 . S
C1453 C1447 1.265 . S
C1453 H1448 0.950 . S
C1453 C1454 1.478 . S
C1454 C1453 1.478 . S
C1454 C1455 1.397 . S
C1454 C1471 1.394 . S
C1455 C1454 1.397 . S
C1455 C1456 1.438 . S
C1455 C1460 1.429 . S
C1456 C1455 1.438 . S
C1456 C1457 1.428 . S
C1456 C1469 1.394 . S
C1457 H1449 0.949 . S
C1457 C1456 1.428 . S
C1457 C1458 1.345 . S
C1458 H1450 0.950 . S
C1458 C1457 1.345 . S
C1458 C1459 1.424 . S
C1459 H1451 0.951 . S
C1459 C1458 1.424 . S
C1459 C1460 1.347 . S
C1460 H1452 0.951 . S
C1460 C1455 1.429 . S
C1460 C1459 1.347 . S
H1461 C1462 0.951 . S
C1462 H1461 0.951 . S
C1462 C1468 1.265 . S
H1463 C1468 0.950 . S
H1464 C1472 0.949 . S
H1465 C1473 0.950 . S
H1466 C1474 0.951 . S
H1467 C1475 0.951 . S
C1468 C1462 1.265 . S
C1468 H1463 0.950 . S
C1468 C1469 1.478 . S
C1469 C1456 1.394 . S
C1469 C1468 1.478 . S
C1469 C1470 1.397 . S
C1470 C1469 1.397 . S
C1470 C1471 1.438 . S
C1470 C1475 1.429 . S
C1471 C1454 1.394 . S
C1471 C1470 1.438 . S
C1471 C1472 1.428 . S
C1472 H1464 0.949 . S
C1472 C1471 1.428 . S
C1472 C1473 1.345 . S
C1473 H1465 0.950 . S
C1473 C1472 1.345 . S
C1473 C1474 1.424 . S
C1474 H1466 0.951 . S
C1474 C1473 1.424 . S
C1474 C1475 1.347 . S
C1475 H1467 0.951 . S
C1475 C1470 1.429 . S
C1475 C1474 1.347 . S
H1476 C1477 0.951 . S
C1477 H1476 0.951 . S
C1477 C1483 1.265 . S
H1478 C1483 0.950 . S
H1479 C1487 0.949 . S
H1480 C1488 0.950 . S
H1481 C1489 0.951 . S
H1482 C1490 0.951 . S
C1483 C1477 1.265 . S
C1483 H1478 0.950 . S
C1483 C1484 1.478 . S
C1484 C1483 1.478 . S
C1484 C1485 1.397 . S
C1484 C1501 1.394 . S
C1485 C1484 1.397 . S
C1485 C1486 1.438 . S
C1485 C1490 1.429 . S
C1486 C1485 1.438 . S
C1486 C1487 1.428 . S
C1486 C1499 1.394 . S
C1487 H1479 0.949 . S
C1487 C1486 1.428 . S
C1487 C1488 1.345 . S
C1488 H1480 0.950 . S
C1488 C1487 1.345 . S
C1488 C1489 1.424 . S
C1489 H1481 0.951 . S
C1489 C1488 1.424 . S
C1489 C1490 1.347 . S
C1490 H1482 0.951 . S
C1490 C1485 1.429 . S
C1490 C1489 1.347 . S
H1491 C1492 0.951 . S
C1492 H1491 0.951 . S
C1492 C1498 1.265 . S
H1493 C1498 0.950 . S
H1494 C1502 0.949 . S
H1495 C1503 0.950 . S
H1496 C1504 0.951 . S
H1497 C1505 0.951 . S
C1498 C1492 1.265 . S
C1498 H1493 0.950 . S
C1498 C1499 1.478 . S
C1499 C1486 1.394 . S
C1499 C1498 1.478 . S
C1499 C1500 1.397 . S
C1500 C1499 1.397 . S
C1500 C1501 1.438 . S
C1500 C1505 1.429 . S
C1501 C1484 1.394 . S
C1501 C1500 1.438 . S
C1501 C1502 1.428 . S
C1502 H1494 0.949 . S
C1502 C1501 1.428 . S
C1502 C1503 1.345 . S
C1503 H1495 0.950 . S
C1503 C1502 1.345 . S
C1503 C1504 1.424 . S
C1504 H1496 0.951 . S
C1504 C1503 1.424 . S
C1504 C1505 1.347 . S
C1505 H1497 0.951 . S
C1505 C1500 1.429 . S
C1505 C1504 1.347 . S
H1506 C1507 0.951 . S
C1507 H1506 0.951 . S
C1507 C1513 1.265 . S
H1508 C1513 0.950 . S
H1509 C1517 0.949 . S
H1510 C1518 0.950 . S
H1511 C1519 0.951 . S
H1512 C1520 0.951 . S
C1513 C1507 1.265 . S
C1513 H1508 0.950 . S
C1513 C1514 1.478 . S
C1514 C1513 1.478 . S
C1514 C1515 1.397 . S
C1514 C1531 1.394 . S
C1515 C1514 1.397 . S
C1515 C1516 1.438 . S
C1515 C1520 1.429 . S
C1516 C1515 1.438 . S
C1516 C1517 1.428 . S
C1516 C1529 1.394 . S
C1517 H1509 0.949 . S
C1517 C1516 1.428 . S
C1517 C1518 1.345 . S
C1518 H1510 0.950 . S
C1518 C1517 1.345 . S
C1518 C1519 1.424 . S
C1519 H1511 0.951 . S
C1519 C1518 1.424 . S
C1519 C1520 1.347 . S
C1520 H1512 0.951 . S
C1520 C1515 1.429 . S
C1520 C1519 1.347 . S
H1521 C1522 0.951 . S
C1522 H1521 0.951 . S
C1522 C1528 1.265 . S
H1523 C1528 0.950 . S
H1524 C1532 0.949 . S
H1525 C1533 0.950 . S
H1526 C1534 0.951 . S
H1527 C1535 0.951 . S
C1528 C1522 1.265 . S
C1528 H1523 0.950 . S
C1528 C1529 1.478 . S
C1529 C1516 1.394 . S
C1529 C1528 1.478 . S
C1529 C1530 1.397 . S
C1530 C1529 1.397 . S
C1530 C1531 1.438 . S
C1530 C1535 1.429 . S
C1531 C1514 1.394 . S
C1531 C1530 1.438 . S
C1531 C1532 1.428 . S
C1532 H1524 0.949 . S
C1532 C1531 1.428 . S
C1532 C1533 1.345 . S
C1533 H1525 0.950 . S
C1533 C1532 1.345 . S
C1533 C1534 1.424 . S
C1534 H1526 0.951 . S
C1534 C1533 1.424 . S
C1534 C1535 1.347 . S
C1535 H1527 0.951 . S
C1535 C1530 1.429 . S
C1535 C1534 1.347 . S
H1536 C1537 0.951 . S
C1537 H1536 0.951 . S
C1537 C1543 1.265 . S
H1538 C1543 0.950 . S
H1539 C1547 0.949 . S
H1540 C1548 0.950 . S
H1541 C1549 0.951 . S
H1542 C1550 0.951 . S
C1543 C1537 1.265 . S
C1543 H1538 0.950 . S
C1543 C1544 1.478 . S
C1544 C1543 1.478 . S
C1544 C1545 1.397 . S
C1544 C1561 1.394 . S
C1545 C1544 1.397 . S
C1545 C1546 1.438 . S
C1545 C1550 1.429 . S
C1546 C1545 1.438 . S
C1546 C1547 1.428 . S
C1546 C1559 1.394 . S
C1547 H1539 0.949 . S
C1547 C1546 1.428 . S
C1547 C1548 1.345 . S
C1548 H1540 0.950 . S
C1548 C1547 1.345 . S
C1548 C1549 1.424 . S
C1549 H1541 0.951 . S
C1549 C1548 1.424 . S
C1549 C1550 1.347 . S
C1550 H1542 0.951 . S
C1550 C1545 1.429 . S
C1550 C1549 1.347 . S
H1551 C1552 0.951 . S
C1552 H1551 0.951 . S
C1552 C1558 1.265 . S
H1553 C1558 0.950 . S
H1554 C1562 0.949 . S
H1555 C1563 0.950 . S
H1556 C1564 0.951 . S
H1557 C1565 0.951 . S
C1558 C1552 1.265 . S
C1558 H1553 0.950 . S
C1558 C1559 1.478 . S
C1559 C1546 1.394 . S
C1559 C1558 1.478 . S
C1559 C1560 1.397 . S
C1560 C1559 1.397 . S
C1560 C1561 1.438 . S
C1560 C1565 1.429 . S
C1561 C1544 1.394 . S
C1561 C1560 1.438 . S
C1561 C1562 1.428 . S
C1562 H1554 0.949 . S
C1562 C1561 1.428 . S
C1562 C1563 1.345 . S
C1563 H1555 0.950 . S
C1563 C1562 1.345 . S
C1563 C1564 1.424 . S
C1564 H1556 0.951 . S
C1564 C1563 1.424 . S
C1564 C1565 1.347 . S
C1565 H1557 0.951 . S
C1565 C1560 1.429 . S
C1565 C1564 1.347 . S
H1566 C1567 0.951 . S
C1567 H1566 0.951 . S
C1567 C1573 1.265 . S
H1568 C1573 0.950 . S
H1569 C1577 0.949 . S
H1570 C1578 0.950 . S
H1571 C1579 0.951 . S
H1572 C1580 0.951 . S
C1573 C1567 1.265 . S
C1573 H1568 0.950 . S
C1573 C1574 1.478 . S
C1574 C1573 1.478 . S
C1574 C1575 1.397 . S
C1574 C1591 1.394 . S
C1575 C1574 1.397 . S
C1575 C1576 1.438 . S
C1575 C1580 1.429 . S
C1576 C1575 1.438 . S
C1576 C1577 1.428 . S
C1576 C1589 1.394 . S
C1577 H1569 0.949 . S
C1577 C1576 1.428 . S
C1577 C1578 1.345 . S
C1578 H1570 0.950 . S
C1578 C1577 1.345 . S
C1578 C1579 1.424 . S
C1579 H1571 0.951 . S
C1579 C1578 1.424 . S
C1579 C1580 1.347 . S
C1580 H1572 0.951 . S
C1580 C1575 1.429 . S
C1580 C1579 1.347 . S
H1581 C1582 0.951 . S
C1582 H1581 0.951 . S
C1582 C1588 1.265 . S
H1583 C1588 0.950 . S
H1584 C1592 0.949 . S
H1585 C1593 0.950 . S
H1586 C1594 0.951 . S
H1587 C1595 0.951 . S
C1588 C1582 1.265 . S
C1588 H1583 0.950 . S
C1588 C1589 1.478 . S
C1589 C1576 1.394 . S
C1589 C1588 1.478 . S
C1589 C1590 1.397 . S
C1590 C1589 1.397 . S
C1590 C1591 1.438 . S
C1590 C1595 1.429 . S
C1591 C1574 1.394 . S
C1591 C1590 1.438 . S
C1591 C1592 1.428 . S
C1592 H1584 0.949 . S
C1592 C1591 1.428 . S
C1592 C1593 1.345 . S
C1593 H1585 0.950 . S
C1593 C1592 1.345 . S
C1593 C1594 1.424 . S
C1594 H1586 0.951 . S
C1594 C1593 1.424 . S
C1594 C1595 1.347 . S
C1595 H1587 0.951 . S
C1595 C1590 1.429 . S
C1595 C1594 1.347 . S
H1596 C1597 0.951 . S
C1597 H1596 0.951 . S
C1597 C1603 1.265 . S
H1598 C1603 0.950 . S
H1599 C1607 0.949 . S
H1600 C1608 0.950 . S
H1601 C1609 0.951 . S
H1602 C1610 0.951 . S
C1603 C1597 1.265 . S
C1603 H1598 0.950 . S
C1603 C1604 1.478 . S
C1604 C1603 1.478 . S
C1604 C1605 1.397 . S
C1604 C1621 1.394 . S
C1605 C1604 1.397 . S
C1605 C1606 1.438 . S
C1605 C1610 1.429 . S
C1606 C1605 1.438 . S
C1606 C1607 1.428 . S
C1606 C1619 1.394 . S
C1607 H1599 0.949 . S
C1607 C1606 1.428 . S
C1607 C1608 1.345 . S
C1608 H1600 0.950 . S
C1608 C1607 1.345 . S
C1608 C1609 1.424 . S
C1609 H1601 0.951 . S
C1609 C1608 1.424 . S
C1609 C1610 1.347 . S
C1610 H1602 0.951 . S
C1610 C1605 1.429 . S
C1610 C1609 1.347 . S
H1611 C1612 0.951 . S
C1612 H1611 0.951 . S
C1612 C1618 1.265 . S
H1613 C1618 0.950 . S
H1614 C1622 0.949 . S
H1615 C1623 0.950 . S
H1616 C1624 0.951 . S
H1617 C1625 0.951 . S
C1618 C1612 1.265 . S
C1618 H1613 0.950 . S
C1618 C1619 1.478 . S
C1619 C1606 1.394 . S
C1619 C1618 1.478 . S
C1619 C1620 1.397 . S
C1620 C1619 1.397 . S
C1620 C1621 1.438 . S
C1620 C1625 1.429 . S
C1621 C1604 1.394 . S
C1621 C1620 1.438 . S
C1621 C1622 1.428 . S
C1622 H1614 0.949 . S
C1622 C1621 1.428 . S
C1622 C1623 1.345 . S
C1623 H1615 0.950 . S
C1623 C1622 1.345 . S
C1623 C1624 1.424 . S
C1624 H1616 0.951 . S
C1624 C1623 1.424 . S
C1624 C1625 1.347 . S
C1625 H1617 0.951 . S
C1625 C1620 1.429 . S
C1625 C1624 1.347 . S
H1626 C1627 0.951 . S
C1627 H1626 0.951 . S
C1627 C1633 1.265 . S
H1628 C1633 0.950 . S
H1629 C1637 0.949 . S
H1630 C1638 0.950 . S
H1631 C1639 0.951 . S
H1632 C1640 0.951 . S
C1633 C1627 1.265 . S
C1633 H1628 0.950 . S
C1633 C1634 1.478 . S
C1634 C1633 1.478 . S
C1634 C1635 1.397 . S
C1634 C1651 1.394 . S
C1635 C1634 1.397 . S
C1635 C1636 1.438 . S
C1635 C1640 1.429 . S
C1636 C1635 1.438 . S
C1636 C1637 1.428 . S
C1636 C1649 1.394 . S
C1637 H1629 0.949 . S
C1637 C1636 1.428 . S
C1637 C1638 1.345 . S
C1638 H1630 0.950 . S
C1638 C1637 1.345 . S
C1638 C1639 1.424 . S
C1639 H1631 0.951 . S
C1639 C1638 1.424 . S
C1639 C1640 1.347 . S
C1640 H1632 0.951 . S
C1640 C1635 1.429 . S
C1640 C1639 1.347 . S
H1641 C1642 0.951 . S
C1642 H1641 0.951 . S
C1642 C1648 1.265 . S
H1643 C1648 0.950 . S
H1644 C1652 0.949 . S
H1645 C1653 0.950 . S
H1646 C1654 0.951 . S
H1647 C1655 0.951 . S
C1648 C1642 1.265 . S
C1648 H1643 0.950 . S
C1648 C1649 1.478 . S
C1649 C1636 1.394 . S
C1649 C1648 1.478 . S
C1649 C1650 1.397 . S
C1650 C1649 1.397 . S
C1650 C1651 1.438 . S
C1650 C1655 1.429 . S
C1651 C1634 1.394 . S
C1651 C1650 1.438 . S
C1651 C1652 1.428 . S
C1652 H1644 0.949 . S
C1652 C1651 1.428 . S
C1652 C1653 1.345 . S
C1653 H1645 0.950 . S
C1653 C1652 1.345 . S
C1653 C1654 1.424 . S
C1654 H1646 0.951 . S
C1654 C1653 1.424 . S
C1654 C1655 1.347 . S
C1655 H1647 0.951 . S
C1655 C1650 1.429 . S
C1655 C1654 1.347 . S
H1656 C1657 0.951 . S
C1657 H1656 0.951 . S
C1657 C1663 1.265 . S
H1658 C1663 0.950 . S
H1659 C1667 0.949 . S
H1660 C1668 0.950 . S
H1661 C1669 0.951 . S
H1662 C1670 0.951 . S
C1663 C1657 1.265 . S
C1663 H1658 0.950 . S
C1663 C1664 1.478 . S
C1664 C1663 1.478 . S
C1664 C1665 1.397 . S
C1664 C1681 1.394 . S
C1665 C1664 1.397 . S
C1665 C1666 1.438 . S
C1665 C1670 1.429 . S
C1666 C1665 1.438 . S
C1666 C1667 1.428 . S
C1666 C1679 1.394 . S
C1667 H1659 0.949 . S
C1667 C1666 1.428 . S
C1667 C1668 1.345 . S
C1668 H1660 0.950 . S
C1668 C1667 1.345 . S
C1668 C1669 1.424 . S
C1669 H1661 0.951 . S
C1669 C1668 1.424 . S
C1669 C1670 1.347 . S
C1670 H1662 0.951 . S
C1670 C1665 1.429 . S
C1670 C1669 1.347 . S
H1671 C1672 0.951 . S
C1672 H1671 0.951 . S
C1672 C1678 1.265 . S
H1673 C1678 0.950 . S
H1674 C1682 0.949 . S
H1675 C1683 0.950 . S
H1676 C1684 0.951 . S
H1677 C1685 0.951 . S
C1678 C1672 1.265 . S
C1678 H1673 0.950 . S
C1678 C1679 1.478 . S
C1679 C1666 1.394 . S
C1679 C1678 1.478 . S
C1679 C1680 1.397 . S
C1680 C1679 1.397 . S
C1680 C1681 1.438 . S
C1680 C1685 1.429 . S
C1681 C1664 1.394 . S
C1681 C1680 1.438 . S
C1681 C1682 1.428 . S
C1682 H1674 0.949 . S
C1682 C1681 1.428 . S
C1682 C1683 1.345 . S
C1683 H1675 0.950 . S
C1683 C1682 1.345 . S
C1683 C1684 1.424 . S
C1684 H1676 0.951 . S
C1684 C1683 1.424 . S
C1684 C1685 1.347 . S
C1685 H1677 0.951 . S
C1685 C1680 1.429 . S
C1685 C1684 1.347 . S
H1686 C1687 0.951 . S
C1687 H1686 0.951 . S
C1687 C1693 1.265 . S
H1688 C1693 0.950 . S
H1689 C1697 0.949 . S
H1690 C1698 0.950 . S
H1691 C1699 0.951 . S
H1692 C1700 0.951 . S
C1693 C1687 1.265 . S
C1693 H1688 0.950 . S
C1693 C1694 1.478 . S
C1694 C1693 1.478 . S
C1694 C1695 1.397 . S
C1694 C1711 1.394 . S
C1695 C1694 1.397 . S
C1695 C1696 1.438 . S
C1695 C1700 1.429 . S
C1696 C1695 1.438 . S
C1696 C1697 1.428 . S
C1696 C1709 1.394 . S
C1697 H1689 0.949 . S
C1697 C1696 1.428 . S
C1697 C1698 1.345 . S
C1698 H1690 0.950 . S
C1698 C1697 1.345 . S
C1698 C1699 1.424 . S
C1699 H1691 0.951 . S
C1699 C1698 1.424 . S
C1699 C1700 1.347 . S
C1700 H1692 0.951 . S
C1700 C1695 1.429 . S
C1700 C1699 1.347 . S
H1701 C1702 0.951 . S
C1702 H1701 0.951 . S
C1702 C1708 1.265 . S
H1703 C1708 0.950 . S
H1704 C1712 0.949 . S
H1705 C1713 0.950 . S
H1706 C1714 0.951 . S
H1707 C1715 0.951 . S
C1708 C1702 1.265 . S
C1708 H1703 0.950 . S
C1708 C1709 1.478 . S
C1709 C1696 1.394 . S
C1709 C1708 1.478 . S
C1709 C1710 1.397 . S
C1710 C1709 1.397 . S
C1710 C1711 1.438 . S
C1710 C1715 1.429 . S
C1711 C1694 1.394 . S
C1711 C1710 1.438 . S
C1711 C1712 1.428 . S
C1712 H1704 0.949 . S
C1712 C1711 1.428 . S
C1712 C1713 1.345 . S
C1713 H1705 0.950 . S
C1713 C1712 1.345 . S
C1713 C1714 1.424 . S
C1714 H1706 0.951 . S
C1714 C1713 1.424 . S
C1714 C1715 1.347 . S
C1715 H1707 0.951 . S
C1715 C1710 1.429 . S
C1715 C1714 1.347 . S
H1716 C1717 0.951 . S
C1717 H1716 0.951 . S
C1717 C1723 1.265 . S
H1718 C1723 0.950 . S
H1719 C1727 0.949 . S
H1720 C1728 0.950 . S
H1721 C1729 0.951 . S
H1722 C1730 0.951 . S
C1723 C1717 1.265 . S
C1723 H1718 0.950 . S
C1723 C1724 1.478 . S
C1724 C1723 1.478 . S
C1724 C1725 1.397 . S
C1724 C1741 1.394 . S
C1725 C1724 1.397 . S
C1725 C1726 1.438 . S
C1725 C1730 1.429 . S
C1726 C1725 1.438 . S
C1726 C1727 1.428 . S
C1726 C1739 1.394 . S
C1727 H1719 0.949 . S
C1727 C1726 1.428 . S
C1727 C1728 1.345 . S
C1728 H1720 0.950 . S
C1728 C1727 1.345 . S
C1728 C1729 1.424 . S
C1729 H1721 0.951 . S
C1729 C1728 1.424 . S
C1729 C1730 1.347 . S
C1730 H1722 0.951 . S
C1730 C1725 1.429 . S
C1730 C1729 1.347 . S
H1731 C1732 0.951 . S
C1732 H1731 0.951 . S
C1732 C1738 1.265 . S
H1733 C1738 0.950 . S
H1734 C1742 0.949 . S
H1735 C1743 0.950 . S
H1736 C1744 0.951 . S
H1737 C1745 0.951 . S
C1738 C1732 1.265 . S
C1738 H1733 0.950 . S
C1738 C1739 1.478 . S
C1739 C1726 1.394 . S
C1739 C1738 1.478 . S
C1739 C1740 1.397 . S
C1740 C1739 1.397 . S
C1740 C1741 1.438 . S
C1740 C1745 1.429 . S
C1741 C1724 1.394 . S
C1741 C1740 1.438 . S
C1741 C1742 1.428 . S
C1742 H1734 0.949 . S
C1742 C1741 1.428 . S
C1742 C1743 1.345 . S
C1743 H1735 0.950 . S
C1743 C1742 1.345 . S
C1743 C1744 1.424 . S
C1744 H1736 0.951 . S
C1744 C1743 1.424 . S
C1744 C1745 1.347 . S
C1745 H1737 0.951 . S
C1745 C1740 1.429 . S
C1745 C1744 1.347 . S
H1746 C1747 0.951 . S
C1747 H1746 0.951 . S
C1747 C1753 1.265 . S
H1748 C1753 0.950 . S
H1749 C1757 0.949 . S
H1750 C1758 0.950 . S
H1751 C1759 0.951 . S
H1752 C1760 0.951 . S
C1753 C1747 1.265 . S
C1753 H1748 0.950 . S
C1753 C1754 1.478 . S
C1754 C1753 1.478 . S
C1754 C1755 1.397 . S
C1754 C1771 1.394 . S
C1755 C1754 1.397 . S
C1755 C1756 1.438 . S
C1755 C1760 1.429 . S
C1756 C1755 1.438 . S
C1756 C1757 1.428 . S
C1756 C1769 1.394 . S
C1757 H1749 0.949 . S
C1757 C1756 1.428 . S
C1757 C1758 1.345 . S
C1758 H1750 0.950 . S
C1758 C1757 1.345 . S
C1758 C1759 1.424 . S
C1759 H1751 0.951 . S
C1759 C1758 1.424 . S
C1759 C1760 1.347 . S
C1760 H1752 0.951 . S
C1760 C1755 1.429 . S
C1760 C1759 1.347 . S
H1761 C1762 0.951 . S
C1762 H1761 0.951 . S
C1762 C1768 1.265 . S
H1763 C1768 0.950 . S
H1764 C1772 0.949 . S
H1765 C1773 0.950 . S
H1766 C1774 0.951 . S
H1767 C1775 0.951 . S
C1768 C1762 1.265 . S
C1768 H1763 0.950 . S
C1768 C1769 1.478 . S
C1769 C1756 1.394 . S
C1769 C1768 1.478 . S
C1769 C1770 1.397 . S
C1770 C1769 1.397 . S
C1770 C1771 1.438 . S
C1770 C1775 1.429 . S
C1771 C1754 1.394 . S
C1771 C1770 1.438 . S
C1771 C1772 1.428 . S
C1772 H1764 0.949 . S
C1772 C1771 1.428 . S
C1772 C1773 1.345 . S
C1773 H1765 0.950 . S
C1773 C1772 1.345 . S
C1773 C1774 1.424 . S
C1774 H1766 0.951 . S
C1774 C1773 1.424 . S
C1774 C1775 1.347 . S
C1775 H1767 0.951 . S
C1775 C1770 1.429 . S
C1775 C1774 1.347 . S
H1776 C1777 0.951 . S
C1777 H1776 0.951 . S
C1777 C1783 1.265 . S
H1778 C1783 0.950 . S
H1779 C1787 0.949 . S
H1780 C1788 0.950 . S
H1781 C1789 0.951 . S
H1782 C1790 0.951 . S
C1783 C1777 1.265 . S
C1783 H1778 0.950 . S
C1783 C1784 1.478 . S
C1784 C1783 1.478 . S
C1784 C1785 1.397 . S
C1784 C1801 1.394 . S
C1785 C1784 1.397 . S
C1785 C1786 1.438 . S
C1785 C1790 1.429 . S
C1786 C1785 1.438 . S
C1786 C1787 1.428 . S
C1786 C1799 1.394 . S
C1787 H1779 0.949 . S
C1787 C1786 1.428 . S
C1787 C1788 1.345 . S
C1788 H1780 0.950 . S
C1788 C1787 1.345 . S
C1788 C1789 1.424 . S
C1789 H1781 0.951 . S
C1789 C1788 1.424 . S
C1789 C1790 1.347 . S
C1790 H1782 0.951 . S
C1790 C1785 1.429 . S
C1790 C1789 1.347 . S
H1791 C1792 0.951 . S
C1792 H1791 0.951 . S
C1792 C1798 1.265 . S
H1793 C1798 0.950 . S
H1794 C1802 0.949 . S
H1795 C1803 0.950 . S
H1796 C1804 0.951 . S
H1797 C1805 0.951 . S
C1798 C1792 1.265 . S
C1798 H1793 0.950 . S
C1798 C1799 1.478 . S
C1799 C1786 1.394 . S
C1799 C1798 1.478 . S
C1799 C1800 1.397 . S
C1800 C1799 1.397 . S
C1800 C1801 1.438 . S
C1800 C1805 1.429 . S
C1801 C1784 1.394 . S
C1801 C1800 1.438 . S
C1801 C1802 1.428 . S
C1802 H1794 0.949 . S
C1802 C1801 1.428 . S
C1802 C1803 1.345 . S
C1803 H1795 0.950 . S
C1803 C1802 1.345 . S
C1803 C1804 1.424 . S
C1804 H1796 0.951 . S
C1804 C1803 1.424 . S
C1804 C1805 1.347 . S
C1805 H1797 0.951 . S
C1805 C1800 1.429 . S
C1805 C1804 1.347 . S
H1806 C1807 0.951 . S
C1807 H1806 0.951 . S
C1807 C1813 1.265 . S
H1808 C1813 0.950 . S
H1809 C1817 0.949 . S
H1810 C1818 0.950 . S
H1811 C1819 0.951 . S
H1812 C1820 0.951 . S
C1813 C1807 1.265 . S
C1813 H1808 0.950 . S
C1813 C1814 1.478 . S
C1814 C1813 1.478 . S
C1814 C1815 1.397 . S
C1814 C1831 1.394 . S
C1815 C1814 1.397 . S
C1815 C1816 1.438 . S
C1815 C1820 1.429 . S
C1816 C1815 1.438 . S
C1816 C1817 1.428 . S
C1816 C1829 1.394 . S
C1817 H1809 0.949 . S
C1817 C1816 1.428 . S
C1817 C1818 1.345 . S
C1818 H1810 0.950 . S
C1818 C1817 1.345 . S
C1818 C1819 1.424 . S
C1819 H1811 0.951 . S
C1819 C1818 1.424 . S
C1819 C1820 1.347 . S
C1820 H1812 0.951 . S
C1820 C1815 1.429 . S
C1820 C1819 1.347 . S
H1821 C1822 0.951 . S
C1822 H1821 0.951 . S
C1822 C1828 1.265 . S
H1823 C1828 0.950 . S
H1824 C1832 0.949 . S
H1825 C1833 0.950 . S
H1826 C1834 0.951 . S
H1827 C1835 0.951 . S
C1828 C1822 1.265 . S
C1828 H1823 0.950 . S
C1828 C1829 1.478 . S
C1829 C1816 1.394 . S
C1829 C1828 1.478 . S
C1829 C1830 1.397 . S
C1830 C1829 1.397 . S
C1830 C1831 1.438 . S
C1830 C1835 1.429 . S
C1831 C1814 1.394 . S
C1831 C1830 1.438 . S
C1831 C1832 1.428 . S
C1832 H1824 0.949 . S
C1832 C1831 1.428 . S
C1832 C1833 1.345 . S
C1833 H1825 0.950 . S
C1833 C1832 1.345 . S
C1833 C1834 1.424 . S
C1834 H1826 0.951 . S
C1834 C1833 1.424 . S
C1834 C1835 1.347 . S
C1835 H1827 0.951 . S
C1835 C1830 1.429 . S
C1835 C1834 1.347 . S
H1836 C1837 0.951 . S
C1837 H1836 0.951 . S
C1837 C1843 1.265 . S
H1838 C1843 0.950 . S
H1839 C1847 0.949 . S
H1840 C1848 0.950 . S
H1841 C1849 0.951 . S
H1842 C1850 0.951 . S
C1843 C1837 1.265 . S
C1843 H1838 0.950 . S
C1843 C1844 1.478 . S
C1844 C1843 1.478 . S
C1844 C1845 1.397 . S
C1844 C1861 1.394 . S
C1845 C1844 1.397 . S
C1845 C1846 1.438 . S
C1845 C1850 1.429 . S
C1846 C1845 1.438 . S
C1846 C1847 1.428 . S
C1846 C1859 1.394 . S
C1847 H1839 0.949 . S
C1847 C1846 1.428 . S
C1847 C1848 1.345 . S
C1848 H1840 0.950 . S
C1848 C1847 1.345 . S
C1848 C1849 1.424 . S
C1849 H1841 0.951 . S
C1849 C1848 1.424 . S
C1849 C1850 1.347 . S
C1850 H1842 0.951 . S
C1850 C1845 1.429 . S
C1850 C1849 1.347 . S
H1851 C1852 0.951 . S
C1852 H1851 0.951 . S
C1852 C1858 1.265 . S
H1853 C1858 0.950 . S
H1854 C1862 0.949 . S
H1855 C1863 0.950 . S
H1856 C1864 0.951 . S
H1857 C1865 0.951 . S
C1858 C1852 1.265 . S
C1858 H1853 0.950 . S
C1858 C1859 1.478 . S
C1859 C1846 1.394 . S
C1859 C1858 1.478 . S
C1859 C1860 1.397 . S
C1860 C1859 1.397 . S
C1860 C1861 1.438 . S
C1860 C1865 1.429 . S
C1861 C1844 1.394 . S
C1861 C1860 1.438 . S
C1861 C1862 1.428 . S
C1862 H1854 0.949 . S
C1862 C1861 1.428 . S
C1862 C1863 1.345 . S
C1863 H1855 0.950 . S
C1863 C1862 1.345 . S
C1863 C1864 1.424 . S
C1864 H1856 0.951 . S
C1864 C1863 1.424 . S
C1864 C1865 1.347 . S
C1865 H1857 0.951 . S
C1865 C1860 1.429 . S
C1865 C1864 1.347 . S
H1866 C1867 0.951 . S
C1867 H1866 0.951 . S
C1867 C1873 1.265 . S
H1868 C1873 0.950 . S
H1869 C1877 0.949 . S
H1870 C1878 0.950 . S
H1871 C1879 0.951 . S
H1872 C1880 0.951 . S
C1873 C1867 1.265 . S
C1873 H1868 0.950 . S
C1873 C1874 1.478 . S
C1874 C1873 1.478 . S
C1874 C1875 1.397 . S
C1874 C1891 1.394 . S
C1875 C1874 1.397 . S
C1875 C1876 1.438 . S
C1875 C1880 1.429 . S
C1876 C1875 1.438 . S
C1876 C1877 1.428 . S
C1876 C1889 1.394 . S
C1877 H1869 0.949 . S
C1877 C1876 1.428 . S
C1877 C1878 1.345 . S
C1878 H1870 0.950 . S
C1878 C1877 1.345 . S
C1878 C1879 1.424 . S
C1879 H1871 0.951 . S
C1879 C1878 1.424 . S
C1879 C1880 1.347 . S
C1880 H1872 0.951 . S
C1880 C1875 1.429 . S
C1880 C1879 1.347 . S
H1881 C1882 0.951 . S
C1882 H1881 0.951 . S
C1882 C1888 1.265 . S
H1883 C1888 0.950 . S
H1884 C1892 0.949 . S
H1885 C1893 0.950 . S
H1886 C1894 0.951 . S
H1887 C1895 0.951 . S
C1888 C1882 1.265 . S
C1888 H1883 0.950 . S
C1888 C1889 1.478 . S
C1889 C1876 1.394 . S
C1889 C1888 1.478 . S
C1889 C1890 1.397 . S
C1890 C1889 1.397 . S
C1890 C1891 1.438 . S
C1890 C1895 1.429 . S
C1891 C1874 1.394 . S
C1891 C1890 1.438 . S
C1891 C1892 1.428 . S
C1892 H1884 0.949 . S
C1892 C1891 1.428 . S
C1892 C1893 1.345 . S
C1893 H1885 0.950 . S
C1893 C1892 1.345 . S
C1893 C1894 1.424 . S
C1894 H1886 0.951 . S
C1894 C1893 1.424 . S
C1894 C1895 1.347 . S
C1895 H1887 0.951 . S
C1895 C1890 1.429 . S
C1895 C1894 1.347 . S
H1896 C1897 0.951 . S
C1897 H1896 0.951 . S
C1897 C1903 1.265 . S
H1898 C1903 0.950 . S
H1899 C1907 0.949 . S
H1900 C1908 0.950 . S
H1901 C1909 0.951 . S
H1902 C1910 0.951 . S
C1903 C1897 1.265 . S
C1903 H1898 0.950 . S
C1903 C1904 1.478 . S
C1904 C1903 1.478 . S
C1904 C1905 1.397 . S
C1904 C1921 1.394 . S
C1905 C1904 1.397 . S
C1905 C1906 1.438 . S
C1905 C1910 1.429 . S
C1906 C1905 1.438 . S
C1906 C1907 1.428 . S
C1906 C1919 1.394 . S
C1907 H1899 0.949 . S
C1907 C1906 1.428 . S
C1907 C1908 1.345 . S
C1908 H1900 0.950 . S
C1908 C1907 1.345 . S
C1908 C1909 1.424 . S
C1909 H1901 0.951 . S
C1909 C1908 1.424 . S
C1909 C1910 1.347 . S
C1910 H1902 0.951 . S
C1910 C1905 1.429 . S
C1910 C1909 1.347 . S
H1911 C1912 0.951 . S
C1912 H1911 0.951 . S
C1912 C1918 1.265 . S
H1913 C1918 0.950 . S
H1914 C1922 0.949 . S
H1915 C1923 0.950 . S
H1916 C1924 0.951 . S
H1917 C1925 0.951 . S
C1918 C1912 1.265 . S
C1918 H1913 0.950 . S
C1918 C1919 1.478 . S
C1919 C1906 1.394 . S
C1919 C1918 1.478 . S
C1919 C1920 1.397 . S
C1920 C1919 1.397 . S
C1920 C1921 1.438 . S
C1920 C1925 1.429 . S
C1921 C1904 1.394 . S
C1921 C1920 1.438 . S
C1921 C1922 1.428 . S
C1922 H1914 0.949 . S
C1922 C1921 1.428 . S
C1922 C1923 1.345 . S
C1923 H1915 0.950 . S
C1923 C1922 1.345 . S
C1923 C1924 1.424 . S
C1924 H1916 0.951 . S
C1924 C1923 1.424 . S
C1924 C1925 1.347 . S
C1925 H1917 0.951 . S
C1925 C1920 1.429 . S
C1925 C1924 1.347 . S
H1926 C1927 0.951 . S
C1927 H1926 0.951 . S
C1927 C1933 1.265 . S
H1928 C1933 0.950 . S
H1929 C1937 0.949 . S
H1930 C1938 0.950 . S
H1931 C1939 0.951 . S
H1932 C1940 0.951 . S
C1933 C1927 1.265 . S
C1933 H1928 0.950 . S
C1933 C1934 1.478 . S
C1934 C1933 1.478 . S
C1934 C1935 1.397 . S
C1934 C1951 1.394 . S
C1935 C1934 1.397 . S
C1935 C1936 1.438 . S
C1935 C1940 1.429 . S
C1936 C1935 1.438 . S
C1936 C1937 1.428 . S
C1936 C1949 1.394 . S
C1937 H1929 0.949 . S
C1937 C1936 1.428 . S
C1937 C1938 1.345 . S
C1938 H1930 0.950 . S
C1938 C1937 1.345 . S
C1938 C1939 1.424 . S
C1939 H1931 0.951 . S
C1939 C1938 1.424 . S
C1939 C1940 1.347 . S
C1940 H1932 0.951 . S
C1940 C1935 1.429 . S
C1940 C1939 1.347 . S
H1941 C1942 0.951 . S
C1942 H1941 0.951 . S
C1942 C1948 1.265 . S
H1943 C1948 0.950 . S
H1944 C1952 0.949 . S
H1945 C1953 0.950 . S
H1946 C1954 0.951 . S
H1947 C1955 0.951 . S
C1948 C1942 1.265 . S
C1948 H1943 0.950 . S
C1948 C1949 1.478 . S
C1949 C1936 1.394 . S
C1949 C1948 1.478 . S
C1949 C1950 1.397 . S
C1950 C1949 1.397 . S
C1950 C1951 1.438 . S
C1950 C1955 1.429 . S
C1951 C1934 1.394 . S
C1951 C1950 1.438 . S
C1951 C1952 1.428 . S
C1952 H1944 0.949 . S
C1952 C1951 1.428 . S
C1952 C1953 1.345 . S
C1953 H1945 0.950 . S
C1953 C1952 1.345 . S
C1953 C1954 1.424 . S
C1954 H1946 0.951 . S
C1954 C1953 1.424 . S
C1954 C1955 1.347 . S
C1955 H1947 0.951 . S
C1955 C1950 1.429 . S
C1955 C1954 1.347 . S
H1956 C1957 0.951 . S
C1957 H1956 0.951 . S
C1957 C1963 1.265 . S
H1958 C1963 0.950 . S
H1959 C1967 0.949 . S
H1960 C1968 0.950 . S
H1961 C1969 0.951 . S
H1962 C1970 0.951 . S
C1963 C1957 1.265 . S
C1963 H1958 0.950 . S
C1963 C1964 1.478 . S
C1964 C1963 1.478 . S
C1964 C1965 1.397 . S
C1964 C1981 1.394 . S
C1965 C1964 1.397 . S
C1965 C1966 1.438 . S
C1965 C1970 1.429 . S
C1966 C1965 1.438 . S
C1966 C1967 1.428 . S
C1966 C1979 1.394 . S
C1967 H1959 0.949 . S
C1967 C1966 1.428 . S
C1967 C1968 1.345 . S
C1968 H1960 0.950 . S
C1968 C1967 1.345 . S
C1968 C1969 1.424 . S
C1969 H1961 0.951 . S
C1969 C1968 1.424 . S
C1969 C1970 1.347 . S
C1970 H1962 0.951 . S
C1970 C1965 1.429 . S
C1970 C1969 1.347 . S
H1971 C1972 0.951 . S
C1972 H1971 0.951 . S
C1972 C1978 1.265 . S
H1973 C1978 0.950 . S
H1974 C1982 0.949 . S
H1975 C1983 0.950 . S
H1976 C1984 0.951 . S
H1977 C1985 0.951 . S
C1978 C1972 1.265 . S
C1978 H1973 0.950 . S
C1978 C1979 1.478 . S
C1979 C1966 1.394 . S
C1979 C1978 1.478 . S
C1979 C1980 1.397 . S
C1980 C1979 1.397 . S
C1980 C1981 1.438 . S
C1980 C1985 1.429 . S
C1981 C1964 1.394 . S
C1981 C1980 1.438 . S
C1981 C1982 1.428 . S
C1982 H1974 0.949 . S
C1982 C1981 1.428 . S
C1982 C1983 1.345 . S
C1983 H1975 0.950 . S
C1983 C1982 1.345 . S
C1983 C1984 1.424 . S
C1984 H1976 0.951 . S
C1984 C1983 1.424 . S
C1984 C1985 1.347 . S
C1985 H1977 0.951 . S
C1985 C1980 1.429 . S
C1985 C1984 1.347 . S
H1986 C1987 0.951 . S
C1987 H1986 0.951 . S
C1987 C1993 1.265 . S
H1988 C1993 0.950 . S
H1989 C1997 0.949 . S
H1990 C1998 0.950 . S
H1991 C1999 0.951 . S
H1992 C2000 0.951 . S
C1993 C1987 1.265 . S
C1993 H1988 0.950 . S
C1993 C1994 1.478 . S
C1994 C1993 1.478 . S
C1994 C1995 1.397 . S
C1994 C2011 1.394 . S
C1995 C1994 1.397 . S
C1995 C1996 1.438 . S
C1995 C2000 1.429 . S
C1996 C1995 1.438 . S
C1996 C1997 1.428 . S
C1996 C2009 1.394 . S
C1997 H1989 0.949 . S
C1997 C1996 1.428 . S
C1997 C1998 1.345 . S
C1998 H1990 0.950 . S
C1998 C1997 1.345 . S
C1998 C1999 1.424 . S
C1999 H1991 0.951 . S
C1999 C1998 1.424 . S
C1999 C2000 1.347 . S
C2000 H1992 0.951 . S
C2000 C1995 1.429 . S
C2000 C1999 1.347 . S
H2001 C2002 0.951 . S
C2002 H2001 0.951 . S
C2002 C2008 1.265 . S
H2003 C2008 0.950 . S
H2004 C2012 0.949 . S
H2005 C2013 0.950 . S
H2006 C2014 0.951 . S
H2007 C2015 0.951 . S
C2008 C2002 1.265 . S
C2008 H2003 0.950 . S
C2008 C2009 1.478 . S
C2009 C1996 1.394 . S
C2009 C2008 1.478 . S
C2009 C2010 1.397 . S
C2010 C2009 1.397 . S
C2010 C2011 1.438 . S
C2010 C2015 1.429 . S
C2011 C1994 1.394 . S
C2011 C2010 1.438 . S
C2011 C2012 1.428 . S
C2012 H2004 0.949 . S
C2012 C2011 1.428 . S
C2012 C2013 1.345 . S
C2013 H2005 0.950 . S
C2013 C2012 1.345 . S
C2013 C2014 1.424 . S
C2014 H2006 0.951 . S
C2014 C2013 1.424 . S
C2014 C2015 1.347 . S
C2015 H2007 0.951 . S
C2015 C2010 1.429 . S
C2015 C2014 1.347 . S
H2016 C2017 0.951 . S
C2017 H2016 0.951 . S
C2017 C2023 1.265 . S
H2018 C2023 0.950 . S
H2019 C2027 0.949 . S
H2020 C2028 0.950 . S
H2021 C2029 0.951 . S
H2022 C2030 0.951 . S
C2023 C2017 1.265 . S
C2023 H2018 0.950 . S
C2023 C2024 1.478 . S
C2024 C2023 1.478 . S
C2024 C2025 1.397 . S
C2024 C2041 1.394 . S
C2025 C2024 1.397 . S
C2025 C2026 1.438 . S
C2025 C2030 1.429 . S
C2026 C2025 1.438 . S
C2026 C2027 1.428 . S
C2026 C2039 1.394 . S
C2027 H2019 0.949 . S
C2027 C2026 1.428 . S
C2027 C2028 1.345 . S
C2028 H2020 0.950 . S
C2028 C2027 1.345 . S
C2028 C2029 1.424 . S
C2029 H2021 0.951 . S
C2029 C2028 1.424 . S
C2029 C2030 1.347 . S
C2030 H2022 0.951 . S
C2030 C2025 1.429 . S
C2030 C2029 1.347 . S
H2031 C2032 0.951 . S
C2032 H2031 0.951 . S
C2032 C2038 1.265 . S
H2033 C2038 0.950 . S
H2034 C2042 0.949 . S
H2035 C2043 0.950 . S
H2036 C2044 0.951 . S
H2037 C2045 0.951 . S
C2038 C2032 1.265 . S
C2038 H2033 0.950 . S
C2038 C2039 1.478 . S
C2039 C2026 1.394 . S
C2039 C2038 1.478 . S
C2039 C2040 1.397 . S
C2040 C2039 1.397 . S
C2040 C2041 1.438 . S
C2040 C2045 1.429 . S
C2041 C2024 1.394 . S
C2041 C2040 1.438 . S
C2041 C2042 1.428 . S
C2042 H2034 0.949 . S
C2042 C2041 1.428 . S
C2042 C2043 1.345 . S
C2043 H2035 0.950 . S
C2043 C2042 1.345 . S
C2043 C2044 1.424 . S
C2044 H2036 0.951 . S
C2044 C2043 1.424 . S
C2044 C2045 1.347 . S
C2045 H2037 0.951 . S
C2045 C2040 1.429 . S
C2045 C2044 1.347 . S
H2046 C2047 0.951 . S
C2047 H2046 0.951 . S
C2047 C2053 1.265 . S
H2048 C2053 0.950 . S
H2049 C2057 0.949 . S
H2050 C2058 0.950 . S
H2051 C2059 0.951 . S
H2052 C2060 0.951 . S
C2053 C2047 1.265 . S
C2053 H2048 0.950 . S
C2053 C2054 1.478 . S
C2054 C2053 1.478 . S
C2054 C2055 1.397 . S
C2054 C2071 1.394 . S
C2055 C2054 1.397 . S
C2055 C2056 1.438 . S
C2055 C2060 1.429 . S
C2056 C2055 1.438 . S
C2056 C2057 1.428 . S
C2056 C2069 1.394 . S
C2057 H2049 0.949 . S
C2057 C2056 1.428 . S
C2057 C2058 1.345 . S
C2058 H2050 0.950 . S
C2058 C2057 1.345 . S
C2058 C2059 1.424 . S
C2059 H2051 0.951 . S
C2059 C2058 1.424 . S
C2059 C2060 1.347 . S
C2060 H2052 0.951 . S
C2060 C2055 1.429 . S
C2060 C2059 1.347 . S
H2061 C2062 0.951 . S
C2062 H2061 0.951 . S
C2062 C2068 1.265 . S
H2063 C2068 0.950 . S
H2064 C2072 0.949 . S
H2065 C2073 0.950 . S
H2066 C2074 0.951 . S
H2067 C2075 0.951 . S
C2068 C2062 1.265 . S
C2068 H2063 0.950 . S
C2068 C2069 1.478 . S
C2069 C2056 1.394 . S
C2069 C2068 1.478 . S
C2069 C2070 1.397 . S
C2070 C2069 1.397 . S
C2070 C2071 1.438 . S
C2070 C2075 1.429 . S
C2071 C2054 1.394 . S
C2071 C2070 1.438 . S
C2071 C2072 1.428 . S
C2072 H2064 0.949 . S
C2072 C2071 1.428 . S
C2072 C2073 1.345 . S
C2073 H2065 0.950 . S
C2073 C2072 1.345 . S
C2073 C2074 1.424 . S
C2074 H2066 0.951 . S
C2074 C2073 1.424 . S
C2074 C2075 1.347 . S
C2075 H2067 0.951 . S
C2075 C2070 1.429 . S
C2075 C2074 1.347 . S
H2076 C2077 0.951 . S
C2077 H2076 0.951 . S
C2077 C2083 1.265 . S
H2078 C2083 0.950 . S
H2079 C2087 0.949 . S
H2080 C2088 0.950 . S
H2081 C2089 0.951 . S
H2082 C2090 0.951 . S
C2083 C2077 1.265 . S
C2083 H2078 0.950 . S
C2083 C2084 1.478 . S
C2084 C2083 1.478 . S
C2084 C2085 1.397 . S
C2084 C2101 1.394 . S
C2085 C2084 1.397 . S
C2085 C2086 1.438 . S
C2085 C2090 1.429 . S
C2086 C2085 1.438 . S
C2086 C2087 1.428 . S
C2086 C2099 1.394 . S
C2087 H2079 0.949 . S
C2087 C2086 1.428 . S
C2087 C2088 1.345 . S
C2088 H2080 0.950 . S
C2088 C2087 1.345 . S
C2088 C2089 1.424 . S
C2089 H2081 0.951 . S
C2089 C2088 1.424 . S
C2089 C2090 1.347 . S
C2090 H2082 0.951 . S
C2090 C2085 1.429 . S
C2090 C2089 1.347 . S
H2091 C2092 0.951 . S
C2092 H2091 0.951 . S
C2092 C2098 1.265 . S
H2093 C2098 0.950 . S
H2094 C2102 0.949 . S
H2095 C2103 0.950 . S
H2096 C2104 0.951 . S
H2097 C2105 0.951 . S
C2098 C2092 1.265 . S
C2098 H2093 0.950 . S
C2098 C2099 1.478 . S
C2099 C2086 1.394 . S
C2099 C2098 1.478 . S
C2099 C2100 1.397 . S
C2100 C2099 1.397 . S
C2100 C2101 1.438 . S
C2100 C2105 1.429 . S
C2101 C2084 1.394 . S
C2101 C2100 1.438 . S
C2101 C2102 1.428 . S
C2102 H2094 0.949 . S
C2102 C2101 1.428 . S
C2102 C2103 1.345 . S
C2103 H2095 0.950 . S
C2103 C2102 1.345 . S
C2103 C2104 1.424 . S
C2104 H2096 0.951 . S
C2104 C2103 1.424 . S
C2104 C2105 1.347 . S
C2105 H2097 0.951 . S
C2105 C2100 1.429 . S
C2105 C2104 1.347 . S
H2106 C2107 0.951 . S
C2107 H2106 0.951 . S
C2107 C2113 1.265 . S
H2108 C2113 0.950 . S
H2109 C2117 0.949 . S
H2110 C2118 0.950 . S
H2111 C2119 0.951 . S
H2112 C2120 0.951 . S
C2113 C2107 1.265 . S
C2113 H2108 0.950 . S
C2113 C2114 1.478 . S
C2114 C2113 1.478 . S
C2114 C2115 1.397 . S
C2114 C2131 1.394 . S
C2115 C2114 1.397 . S
C2115 C2116 1.438 . S
C2115 C2120 1.429 . S
C2116 C2115 1.438 . S
C2116 C2117 1.428 . S
C2116 C2129 1.394 . S
C2117 H2109 0.949 . S
C2117 C2116 1.428 . S
C2117 C2118 1.345 . S
C2118 H2110 0.950 . S
C2118 C2117 1.345 . S
C2118 C2119 1.424 . S
C2119 H2111 0.951 . S
C2119 C2118 1.424 . S
C2119 C2120 1.347 . S
C2120 H2112 0.951 . S
C2120 C2115 1.429 . S
C2120 C2119 1.347 . S
H2121 C2122 0.951 . S
C2122 H2121 0.951 . S
C2122 C2128 1.265 . S
H2123 C2128 0.950 . S
H2124 C2132 0.949 . S
H2125 C2133 0.950 . S
H2126 C2134 0.951 . S
H2127 C2135 0.951 . S
C2128 C2122 1.265 . S
C2128 H2123 0.950 . S
C2128 C2129 1.478 . S
C2129 C2116 1.394 . S
C2129 C2128 1.478 . S
C2129 C2130 1.397 . S
C2130 C2129 1.397 . S
C2130 C2131 1.438 . S
C2130 C2135 1.429 . S
C2131 C2114 1.394 . S
C2131 C2130 1.438 . S
C2131 C2132 1.428 . S
C2132 H2124 0.949 . S
C2132 C2131 1.428 . S
C2132 C2133 1.345 . S
C2133 H2125 0.950 . S
C2133 C2132 1.345 . S
C2133 C2134 1.424 . S
C2134 H2126 0.951 . S
C2134 C2133 1.424 . S
C2134 C2135 1.347 . S
C2135 H2127 0.951 . S
C2135 C2130 1.429 . S
C2135 C2134 1.347 . S
H2136 C2137 0.951 . S
C2137 H2136 0.951 . S
C2137 C2143 1.265 . S
H2138 C2143 0.950 . S
H2139 C2147 0.949 . S
H2140 C2148 0.950 . S
H2141 C2149 0.951 . S
H2142 C2150 0.951 . S
C2143 C2137 1.265 . S
C2143 H2138 0.950 . S
C2143 C2144 1.478 . S
C2144 C2143 1.478 . S
C2144 C2145 1.397 . S
C2144 C2161 1.394 . S
C2145 C2144 1.397 . S
C2145 C2146 1.438 . S
C2145 C2150 1.429 . S
C2146 C2145 1.438 . S
C2146 C2147 1.428 . S
C2146 C2159 1.394 . S
C2147 H2139 0.949 . S
C2147 C2146 1.428 . S
C2147 C2148 1.345 . S
C2148 H2140 0.950 . S
C2148 C2147 1.345 . S
C2148 C2149 1.424 . S
C2149 H2141 0.951 . S
C2149 C2148 1.424 . S
C2149 C2150 1.347 . S
C2150 H2142 0.951 . S
C2150 C2145 1.429 . S
C2150 C2149 1.347 . S
H2151 C2152 0.951 . S
C2152 H2151 0.951 . S
C2152 C2158 1.265 . S
H2153 C2158 0.950 . S
H2154 C2162 0.949 . S
H2155 C2163 0.950 . S
H2156 C2164 0.951 . S
H2157 C2165 0.951 . S
C2158 C2152 1.265 . S
C2158 H2153 0.950 . S
C2158 C2159 1.478 . S
C2159 C2146 1.394 . S
C2159 C2158 1.478 . S
C2159 C2160 1.397 . S
C2160 C2159 1.397 . S
C2160 C2161 1.438 . S
C2160 C2165 1.429 . S
C2161 C2144 1.394 . S
C2161 C2160 1.438 . S
C2161 C2162 1.428 . S
C2162 H2154 0.949 . S
C2162 C2161 1.428 . S
C2162 C2163 1.345 . S
C2163 H2155 0.950 . S
C2163 C2162 1.345 . S
C2163 C2164 1.424 . S
C2164 H2156 0.951 . S
C2164 C2163 1.424 . S
C2164 C2165 1.347 . S
C2165 H2157 0.951 . S
C2165 C2160 1.429 . S
C2165 C2164 1.347 . S
H2166 C2167 0.951 . S
C2167 H2166 0.951 . S
C2167 C2173 1.265 . S
H2168 C2173 0.950 . S
H2169 C2177 0.949 . S
H2170 C2178 0.950 . S
H2171 C2179 0.951 . S
H2172 C2180 0.951 . S
C2173 C2167 1.265 . S
C2173 H2168 0.950 . S
C2173 C2174 1.478 . S
C2174 C2173 1.478 . S
C2174 C2175 1.397 . S
C2174 C2191 1.394 . S
C2175 C2174 1.397 . S
C2175 C2176 1.438 . S
C2175 C2180 1.429 . S
C2176 C2175 1.438 . S
C2176 C2177 1.428 . S
C2176 C2189 1.394 . S
C2177 H2169 0.949 . S
C2177 C2176 1.428 . S
C2177 C2178 1.345 . S
C2178 H2170 0.950 . S
C2178 C2177 1.345 . S
C2178 C2179 1.424 . S
C2179 H2171 0.951 . S
C2179 C2178 1.424 . S
C2179 C2180 1.347 . S
C2180 H2172 0.951 . S
C2180 C2175 1.429 . S
C2180 C2179 1.347 . S
H2181 C2182 0.951 . S
C2182 H2181 0.951 . S
C2182 C2188 1.265 . S
H2183 C2188 0.950 . S
H2184 C2192 0.949 . S
H2185 C2193 0.950 . S
H2186 C2194 0.951 . S
H2187 C2195 0.951 . S
C2188 C2182 1.265 . S
C2188 H2183 0.950 . S
C2188 C2189 1.478 . S
C2189 C2176 1.394 . S
C2189 C2188 1.478 . S
C2189 C2190 1.397 . S
C2190 C2189 1.397 . S
C2190 C2191 1.438 . S
C2190 C2195 1.429 . S
C2191 C2174 1.394 . S
C2191 C2190 1.438 . S
C2191 C2192 1.428 . S
C2192 H2184 0.949 . S
C2192 C2191 1.428 . S
C2192 C2193 1.345 . S
C2193 H2185 0.950 . S
C2193 C2192 1.345 . S
C2193 C2194 1.424 . S
C2194 H2186 0.951 . S
C2194 C2193 1.424 . S
C2194 C2195 1.347 . S
C2195 H2187 0.951 . S
C2195 C2190 1.429 . S
C2195 C2194 1.347 . S
H2196 C2197 0.951 . S
C2197 H2196 0.951 . S
C2197 C2203 1.265 . S
H2198 C2203 0.950 . S
H2199 C2207 0.949 . S
H2200 C2208 0.950 . S
H2201 C2209 0.951 1_556 S
H2202 C2210 0.951 . S
C2203 C2197 1.265 . S
C2203 H2198 0.950 . S
C2203 C2204 1.478 . S
C2204 C2203 1.478 . S
C2204 C2205 1.397 . S
C2204 C2221 1.394 . S
C2205 C2204 1.397 . S
C2205 C2206 1.438 . S
C2205 C2210 1.429 . S
C2206 C2205 1.438 . S
C2206 C2207 1.428 . S
C2206 C2219 1.394 . S
C2207 H2199 0.949 . S
C2207 C2206 1.428 . S
C2207 C2208 1.345 . S
C2208 H2200 0.950 . S
C2208 C2207 1.345 . S
C2208 C2209 1.424 . S
C2209 H2201 0.951 1_554 S
C2209 C2208 1.424 . S
C2209 C2210 1.347 . S
C2210 H2202 0.951 . S
C2210 C2205 1.429 . S
C2210 C2209 1.347 . S
H2211 C2212 0.951 . S
C2212 H2211 0.951 . S
C2212 C2218 1.265 . S
H2213 C2218 0.950 . S
H2214 C2222 0.949 . S
H2215 C2223 0.950 . S
H2216 C2224 0.951 . S
H2217 C2225 0.951 . S
C2218 C2212 1.265 . S
C2218 H2213 0.950 . S
C2218 C2219 1.478 . S
C2219 C2206 1.394 . S
C2219 C2218 1.478 . S
C2219 C2220 1.397 . S
C2220 C2219 1.397 . S
C2220 C2221 1.438 . S
C2220 C2225 1.429 . S
C2221 C2204 1.394 . S
C2221 C2220 1.438 . S
C2221 C2222 1.428 . S
C2222 H2214 0.949 . S
C2222 C2221 1.428 . S
C2222 C2223 1.345 . S
C2223 H2215 0.950 . S
C2223 C2222 1.345 . S
C2223 C2224 1.424 . S
C2224 H2216 0.951 . S
C2224 C2223 1.424 . S
C2224 C2225 1.347 . S
C2225 H2217 0.951 . S
C2225 C2220 1.429 . S
C2225 C2224 1.347 . S
H2226 C2227 0.951 . S
C2227 H2226 0.951 . S
C2227 C2233 1.265 . S
H2228 C2233 0.950 . S
H2229 C2237 0.949 . S
H2230 C2238 0.950 . S
H2231 C2239 0.951 1_556 S
H2232 C2240 0.951 . S
C2233 C2227 1.265 . S
C2233 H2228 0.950 . S
C2233 C2234 1.478 . S
C2234 C2233 1.478 . S
C2234 C2235 1.397 . S
C2234 C2251 1.394 . S
C2235 C2234 1.397 . S
C2235 C2236 1.438 . S
C2235 C2240 1.429 . S
C2236 C2235 1.438 . S
C2236 C2237 1.428 . S
C2236 C2249 1.394 . S
C2237 H2229 0.949 . S
C2237 C2236 1.428 . S
C2237 C2238 1.345 . S
C2238 H2230 0.950 . S
C2238 C2237 1.345 . S
C2238 C2239 1.424 . S
C2239 H2231 0.951 1_554 S
C2239 C2238 1.424 . S
C2239 C2240 1.347 . S
C2240 H2232 0.951 . S
C2240 C2235 1.429 . S
C2240 C2239 1.347 . S
H2241 C2242 0.951 . S
C2242 H2241 0.951 . S
C2242 C2248 1.265 . S
H2243 C2248 0.950 . S
H2244 C2252 0.949 . S
H2245 C2253 0.950 . S
H2246 C2254 0.951 . S
H2247 C2255 0.951 . S
C2248 C2242 1.265 . S
C2248 H2243 0.950 . S
C2248 C2249 1.478 . S
C2249 C2236 1.394 . S
C2249 C2248 1.478 . S
C2249 C2250 1.397 . S
C2250 C2249 1.397 . S
C2250 C2251 1.438 . S
C2250 C2255 1.429 . S
C2251 C2234 1.394 . S
C2251 C2250 1.438 . S
C2251 C2252 1.428 . S
C2252 H2244 0.949 . S
C2252 C2251 1.428 . S
C2252 C2253 1.345 . S
C2253 H2245 0.950 . S
C2253 C2252 1.345 . S
C2253 C2254 1.424 . S
C2254 H2246 0.951 . S
C2254 C2253 1.424 . S
C2254 C2255 1.347 . S
C2255 H2247 0.951 . S
C2255 C2250 1.429 . S
C2255 C2254 1.347 . S
H2256 C2257 0.951 . S
C2257 H2256 0.951 . S
C2257 C2263 1.265 . S
H2258 C2263 0.950 . S
H2259 C2267 0.949 . S
H2260 C2268 0.950 . S
H2261 C2269 0.951 . S
H2262 C2270 0.951 . S
C2263 C2257 1.265 . S
C2263 H2258 0.950 . S
C2263 C2264 1.478 . S
C2264 C2263 1.478 . S
C2264 C2265 1.397 . S
C2264 C2281 1.394 . S
C2265 C2264 1.397 . S
C2265 C2266 1.438 . S
C2265 C2270 1.429 . S
C2266 C2265 1.438 . S
C2266 C2267 1.428 . S
C2266 C2279 1.394 . S
C2267 H2259 0.949 . S
C2267 C2266 1.428 . S
C2267 C2268 1.345 . S
C2268 H2260 0.950 . S
C2268 C2267 1.345 . S
C2268 C2269 1.424 . S
C2269 H2261 0.951 . S
C2269 C2268 1.424 . S
C2269 C2270 1.347 . S
C2270 H2262 0.951 . S
C2270 C2265 1.429 . S
C2270 C2269 1.347 . S
H2271 C2272 0.951 . S
C2272 H2271 0.951 . S
C2272 C2278 1.265 . S
H2273 C2278 0.950 . S
H2274 C2282 0.949 . S
H2275 C2283 0.950 . S
H2276 C2284 0.951 . S
H2277 C2285 0.951 . S
C2278 C2272 1.265 . S
C2278 H2273 0.950 . S
C2278 C2279 1.478 . S
C2279 C2266 1.394 . S
C2279 C2278 1.478 . S
C2279 C2280 1.397 . S
C2280 C2279 1.397 . S
C2280 C2281 1.438 . S
C2280 C2285 1.429 . S
C2281 C2264 1.394 . S
C2281 C2280 1.438 . S
C2281 C2282 1.428 . S
C2282 H2274 0.949 . S
C2282 C2281 1.428 . S
C2282 C2283 1.345 . S
C2283 H2275 0.950 . S
C2283 C2282 1.345 . S
C2283 C2284 1.424 . S
C2284 H2276 0.951 . S
C2284 C2283 1.424 . S
C2284 C2285 1.347 . S
C2285 H2277 0.951 . S
C2285 C2280 1.429 . S
C2285 C2284 1.347 . S
H2286 C2287 0.951 . S
C2287 H2286 0.951 . S
C2287 C2293 1.265 . S
H2288 C2293 0.950 . S
H2289 C2297 0.949 . S
H2290 C2298 0.950 . S
H2291 C2299 0.951 . S
H2292 C2300 0.951 . S
C2293 C2287 1.265 . S
C2293 H2288 0.950 . S
C2293 C2294 1.478 . S
C2294 C2293 1.478 . S
C2294 C2295 1.397 . S
C2294 C2311 1.394 . S
C2295 C2294 1.397 . S
C2295 C2296 1.438 . S
C2295 C2300 1.429 . S
C2296 C2295 1.438 . S
C2296 C2297 1.428 . S
C2296 C2309 1.394 . S
C2297 H2289 0.949 . S
C2297 C2296 1.428 . S
C2297 C2298 1.345 . S
C2298 H2290 0.950 . S
C2298 C2297 1.345 . S
C2298 C2299 1.424 . S
C2299 H2291 0.951 . S
C2299 C2298 1.424 . S
C2299 C2300 1.347 . S
C2300 H2292 0.951 . S
C2300 C2295 1.429 . S
C2300 C2299 1.347 . S
H2301 C2302 0.951 . S
C2302 H2301 0.951 . S
C2302 C2308 1.265 . S
H2303 C2308 0.950 . S
H2304 C2312 0.949 . S
H2305 C2313 0.950 . S
H2306 C2314 0.951 . S
H2307 C2315 0.951 . S
C2308 C2302 1.265 . S
C2308 H2303 0.950 . S
C2308 C2309 1.478 . S
C2309 C2296 1.394 . S
C2309 C2308 1.478 . S
C2309 C2310 1.397 . S
C2310 C2309 1.397 . S
C2310 C2311 1.438 . S
C2310 C2315 1.429 . S
C2311 C2294 1.394 . S
C2311 C2310 1.438 . S
C2311 C2312 1.428 1_556 S
C2312 H2304 0.949 . S
C2312 C2311 1.428 1_554 S
C2312 C2313 1.345 . S
C2313 H2305 0.950 . S
C2313 C2312 1.345 . S
C2313 C2314 1.424 . S
C2314 H2306 0.951 . S
C2314 C2313 1.424 . S
C2314 C2315 1.347 1_554 S
C2315 H2307 0.951 . S
C2315 C2310 1.429 . S
C2315 C2314 1.347 1_556 S
H2316 C2317 0.951 . S
C2317 H2316 0.951 . S
C2317 C2323 1.265 . S
H2318 C2323 0.950 . S
H2319 C2327 0.949 . S
H2320 C2328 0.950 . S
H2321 C2329 0.951 . S
H2322 C2330 0.951 . S
C2323 C2317 1.265 . S
C2323 H2318 0.950 . S
C2323 C2324 1.478 . S
C2324 C2323 1.478 . S
C2324 C2325 1.397 . S
C2324 C2341 1.394 . S
C2325 C2324 1.397 . S
C2325 C2326 1.438 . S
C2325 C2330 1.429 . S
C2326 C2325 1.438 . S
C2326 C2327 1.428 . S
C2326 C2339 1.394 . S
C2327 H2319 0.949 . S
C2327 C2326 1.428 . S
C2327 C2328 1.345 . S
C2328 H2320 0.950 . S
C2328 C2327 1.345 . S
C2328 C2329 1.424 . S
C2329 H2321 0.951 . S
C2329 C2328 1.424 . S
C2329 C2330 1.347 . S
C2330 H2322 0.951 . S
C2330 C2325 1.429 . S
C2330 C2329 1.347 . S
H2331 C2332 0.951 . S
C2332 H2331 0.951 . S
C2332 C2338 1.265 . S
H2333 C2338 0.950 . S
H2334 C2342 0.955 . S
H2335 C2343 0.950 1_554 S
H2336 C2344 0.951 . S
H2337 C2345 0.951 . S
C2338 C2332 1.265 . S
C2338 H2333 0.950 . S
C2338 C2339 1.478 . S
C2339 C2326 1.394 . S
C2339 C2338 1.478 . S
C2339 C2340 1.397 . S
C2340 C2339 1.397 . S
C2340 C2341 1.438 . S
C2340 C2345 1.429 . S
C2341 C2324 1.394 . S
C2341 C2340 1.438 . S
C2341 C2342 1.428 . S
C2342 H2334 0.955 . S
C2342 C2341 1.428 . S
C2342 C2343 1.345 . S
C2343 H2335 0.950 1_556 S
C2343 C2342 1.345 . S
C2343 C2344 1.424 . S
C2344 H2336 0.951 . S
C2344 C2343 1.424 . S
C2344 C2345 1.347 . S
C2345 H2337 0.951 . S
C2345 C2340 1.429 . S
C2345 C2344 1.347 . S
H2346 C2347 0.951 . S
C2347 H2346 0.951 . S
C2347 C2353 1.265 . S
H2348 C2353 0.950 . S
H2349 C2357 0.949 . S
H2350 C2358 0.950 . S
H2351 C2359 0.951 . S
H2352 C2360 0.951 . S
C2353 C2347 1.265 . S
C2353 H2348 0.950 . S
C2353 C2354 1.478 . S
C2354 C2353 1.478 . S
C2354 C2355 1.397 . S
C2354 C2371 1.394 . S
C2355 C2354 1.397 . S
C2355 C2356 1.438 . S
C2355 C2360 1.429 . S
C2356 C2355 1.438 . S
C2356 C2357 1.428 . S
C2356 C2369 1.394 . S
C2357 H2349 0.949 . S
C2357 C2356 1.428 . S
C2357 C2358 1.345 . S
C2358 H2350 0.950 . S
C2358 C2357 1.345 . S
C2358 C2359 1.424 . S
C2359 H2351 0.951 . S
C2359 C2358 1.424 . S
C2359 C2360 1.347 . S
C2360 H2352 0.951 . S
C2360 C2355 1.429 . S
C2360 C2359 1.347 . S
H2361 C2362 0.951 . S
C2362 H2361 0.951 . S
C2362 C2368 1.265 . S
H2363 C2368 0.950 . S
H2364 C2372 0.949 . S
H2365 C2373 0.950 . S
H2366 C2374 0.951 . S
H2367 C2375 0.951 . S
C2368 C2362 1.265 . S
C2368 H2363 0.950 . S
C2368 C2369 1.478 . S
C2369 C2356 1.394 . S
C2369 C2368 1.478 . S
C2369 C2370 1.397 . S
C2370 C2369 1.397 . S
C2370 C2371 1.438 . S
C2370 C2375 1.429 . S
C2371 C2354 1.394 . S
C2371 C2370 1.438 . S
C2371 C2372 1.428 . S
C2372 H2364 0.949 . S
C2372 C2371 1.428 . S
C2372 C2373 1.345 . S
C2373 H2365 0.950 . S
C2373 C2372 1.345 . S
C2373 C2374 1.424 . S
C2374 H2366 0.951 . S
C2374 C2373 1.424 . S
C2374 C2375 1.347 . S
C2375 H2367 0.951 . S
C2375 C2370 1.429 . S
C2375 C2374 1.347 . S
H2376 C2377 0.951 . S
C2377 H2376 0.951 . S
C2377 C2383 1.265 . S
H2378 C2383 0.950 . S
H2379 C2387 0.949 . S
H2380 C2388 0.950 . S
H2381 C2389 0.951 1_554 S
H2382 C2390 0.951 . S
C2383 C2377 1.265 . S
C2383 H2378 0.950 . S
C2383 C2384 1.478 . S
C2384 C2383 1.478 . S
C2384 C2385 1.397 . S
C2384 C2401 1.394 . S
C2385 C2384 1.397 . S
C2385 C2386 1.438 . S
C2385 C2390 1.429 . S
C2386 C2385 1.438 . S
C2386 C2387 1.428 . S
C2386 C2399 1.394 . S
C2387 H2379 0.949 . S
C2387 C2386 1.428 . S
C2387 C2388 1.345 . S
C2388 H2380 0.950 . S
C2388 C2387 1.345 . S
C2388 C2389 1.424 . S
C2389 H2381 0.951 1_556 S
C2389 C2388 1.424 . S
C2389 C2390 1.347 . S
C2390 H2382 0.951 . S
C2390 C2385 1.429 . S
C2390 C2389 1.347 . S
H2391 C2392 0.951 . S
C2392 H2391 0.951 . S
C2392 C2398 1.265 . S
H2393 C2398 0.950 . S
H2394 C2402 0.949 . S
H2395 C2403 0.950 . S
H2396 C2404 0.951 . S
H2397 C2405 0.951 . S
C2398 C2392 1.265 . S
C2398 H2393 0.950 . S
C2398 C2399 1.478 . S
C2399 C2386 1.394 . S
C2399 C2398 1.478 . S
C2399 C2400 1.397 . S
C2400 C2399 1.397 . S
C2400 C2401 1.438 . S
C2400 C2405 1.429 . S
C2401 C2384 1.394 . S
C2401 C2400 1.438 . S
C2401 C2402 1.428 . S
C2402 H2394 0.949 . S
C2402 C2401 1.428 . S
C2402 C2403 1.345 . S
C2403 H2395 0.950 . S
C2403 C2402 1.345 . S
C2403 C2404 1.424 . S
C2404 H2396 0.951 . S
C2404 C2403 1.424 . S
C2404 C2405 1.347 . S
C2405 H2397 0.951 . S
C2405 C2400 1.429 . S
C2405 C2404 1.347 . S
H2406 C2407 0.951 . S
C2407 H2406 0.951 . S
C2407 C2413 1.265 . S
H2408 C2413 0.950 . S
H2409 C2417 0.949 . S
H2410 C2418 0.950 . S
H2411 C2419 0.951 . S
H2412 C2420 0.951 . S
C2413 C2407 1.265 . S
C2413 H2408 0.950 . S
C2413 C2414 1.478 . S
C2414 C2413 1.478 . S
C2414 C2415 1.397 . S
C2414 C2431 1.394 . S
C2415 C2414 1.397 . S
C2415 C2416 1.438 . S
C2415 C2420 1.429 . S
C2416 C2415 1.438 . S
C2416 C2417 1.428 . S
C2416 C2429 1.394 . S
C2417 H2409 0.949 . S
C2417 C2416 1.428 . S
C2417 C2418 1.345 . S
C2418 H2410 0.950 . S
C2418 C2417 1.345 . S
C2418 C2419 1.424 . S
C2419 H2411 0.951 . S
C2419 C2418 1.424 . S
C2419 C2420 1.347 . S
C2420 H2412 0.951 . S
C2420 C2415 1.429 . S
C2420 C2419 1.347 . S
H2421 C2422 0.951 . S
C2422 H2421 0.951 . S
C2422 C2428 1.265 . S
H2423 C2428 0.950 . S
H2424 C2432 0.949 . S
H2425 C2433 0.950 . S
H2426 C2434 0.951 . S
H2427 C2435 0.951 . S
C2428 C2422 1.265 . S
C2428 H2423 0.950 . S
C2428 C2429 1.478 . S
C2429 C2416 1.394 . S
C2429 C2428 1.478 . S
C2429 C2430 1.397 . S
C2430 C2429 1.397 . S
C2430 C2431 1.438 . S
C2430 C2435 1.429 . S
C2431 C2414 1.394 . S
C2431 C2430 1.438 . S
C2431 C2432 1.428 1_556 S
C2432 H2424 0.949 . S
C2432 C2431 1.428 1_554 S
C2432 C2433 1.345 . S
C2433 H2425 0.950 . S
C2433 C2432 1.345 . S
C2433 C2434 1.424 . S
C2434 H2426 0.951 . S
C2434 C2433 1.424 . S
C2434 C2435 1.347 1_554 S
C2435 H2427 0.951 . S
C2435 C2430 1.429 . S
C2435 C2434 1.347 1_556 S
H2436 C2437 0.951 1_554 S
C2437 H2436 0.951 1_556 S
C2437 C2443 1.265 . S
H2438 C2443 0.950 . S
H2439 C2447 0.949 . S
H2440 C2448 0.950 . S
H2441 C2449 0.951 . S
H2442 C2450 0.951 . S
C2443 C2437 1.265 . S
C2443 H2438 0.950 . S
C2443 C2444 1.478 . S
C2444 C2443 1.478 . S
C2444 C2445 1.397 . S
C2444 C2461 1.394 . S
C2445 C2444 1.397 . S
C2445 C2446 1.438 . S
C2445 C2450 1.429 . S
C2446 C2445 1.438 . S
C2446 C2447 1.428 . S
C2446 C2459 1.394 . S
C2447 H2439 0.949 . S
C2447 C2446 1.428 . S
C2447 C2448 1.345 . S
C2448 H2440 0.950 . S
C2448 C2447 1.345 . S
C2448 C2449 1.424 . S
C2449 H2441 0.951 . S
C2449 C2448 1.424 . S
C2449 C2450 1.347 . S
C2450 H2442 0.951 . S
C2450 C2445 1.429 . S
C2450 C2449 1.347 . S
H2451 C2452 0.951 . S
C2452 H2451 0.951 . S
C2452 C2458 1.265 . S
H2453 C2458 0.950 . S
H2454 C2462 0.949 . S
H2455 C2463 0.950 . S
H2456 C2464 0.951 . S
H2457 C2465 0.951 . S
C2458 C2452 1.265 . S
C2458 H2453 0.950 . S
C2458 C2459 1.478 . S
C2459 C2446 1.394 . S
C2459 C2458 1.478 . S
C2459 C2460 1.397 . S
C2460 C2459 1.397 . S
C2460 C2461 1.438 . S
C2460 C2465 1.429 . S
C2461 C2444 1.394 . S
C2461 C2460 1.438 . S
C2461 C2462 1.428 . S
C2462 H2454 0.949 . S
C2462 C2461 1.428 . S
C2462 C2463 1.345 . S
C2463 H2455 0.950 . S
C2463 C2462 1.345 . S
C2463 C2464 1.424 . S
C2464 H2456 0.951 . S
C2464 C2463 1.424 . S
C2464 C2465 1.347 . S
C2465 H2457 0.951 . S
C2465 C2460 1.429 . S
C2465 C2464 1.347 . S
H2466 C2467 0.951 . S
C2467 H2466 0.951 . S
C2467 C2473 1.265 . S
H2468 C2473 0.950 . S
H2469 C2477 0.949 . S
H2470 C2478 0.950 . S
H2471 C2479 0.951 . S
H2472 C2480 0.951 . S
C2473 C2467 1.265 . S
C2473 H2468 0.950 . S
C2473 C2474 1.478 . S
C2474 C2473 1.478 . S
C2474 C2475 1.397 . S
C2474 C2491 1.394 . S
C2475 C2474 1.397 . S
C2475 C2476 1.438 . S
C2475 C2480 1.429 . S
C2476 C2475 1.438 . S
C2476 C2477 1.428 . S
C2476 C2489 1.394 . S
C2477 H2469 0.949 . S
C2477 C2476 1.428 . S
C2477 C2478 1.345 . S
C2478 H2470 0.950 . S
C2478 C2477 1.345 . S
C2478 C2479 1.424 . S
C2479 H2471 0.951 . S
C2479 C2478 1.424 . S
C2479 C2480 1.347 . S
C2480 H2472 0.951 . S
C2480 C2475 1.429 . S
C2480 C2479 1.347 . S
H2481 C2482 0.951 . S
C2482 H2481 0.951 . S
C2482 C2488 1.265 . S
H2483 C2488 0.950 . S
H2484 C2492 0.949 . S
H2485 C2493 0.950 1_556 S
H2486 C2494 0.951 . S
H2487 C2495 0.951 . S
C2488 C2482 1.265 . S
C2488 H2483 0.950 . S
C2488 C2489 1.478 . S
C2489 C2476 1.394 . S
C2489 C2488 1.478 . S
C2489 C2490 1.397 . S
C2490 C2489 1.397 . S
C2490 C2491 1.438 . S
C2490 C2495 1.429 . S
C2491 C2474 1.394 . S
C2491 C2490 1.438 . S
C2491 C2492 1.428 . S
C2492 H2484 0.949 . S
C2492 C2491 1.428 . S
C2492 C2493 1.345 . S
C2493 H2485 0.950 1_554 S
C2493 C2492 1.345 . S
C2493 C2494 1.424 . S
C2494 H2486 0.951 . S
C2494 C2493 1.424 . S
C2494 C2495 1.347 . S
C2495 H2487 0.951 . S
C2495 C2490 1.429 . S
C2495 C2494 1.347 . S
H2496 C2497 0.951 . S
C2497 H2496 0.951 . S
C2497 C2503 1.265 . S
H2498 C2503 0.950 . S
H2499 C2507 0.949 . S
H2500 C2508 0.950 . S
H2501 C2509 0.951 . S
H2502 C2510 0.951 . S
C2503 C2497 1.265 . S
C2503 H2498 0.950 . S
C2503 C2504 1.478 . S
C2504 C2503 1.478 . S
C2504 C2505 1.397 . S
C2504 C2521 1.394 . S
C2505 C2504 1.397 . S
C2505 C2506 1.438 . S
C2505 C2510 1.429 . S
C2506 C2505 1.438 . S
C2506 C2507 1.428 . S
C2506 C2519 1.394 . S
C2507 H2499 0.949 . S
C2507 C2506 1.428 . S
C2507 C2508 1.345 . S
C2508 H2500 0.950 . S
C2508 C2507 1.345 . S
C2508 C2509 1.424 . S
C2509 H2501 0.951 . S
C2509 C2508 1.424 . S
C2509 C2510 1.347 . S
C2510 H2502 0.951 . S
C2510 C2505 1.429 . S
C2510 C2509 1.347 . S
H2511 C2512 0.951 . S
C2512 H2511 0.951 . S
C2512 C2518 1.265 . S
H2513 C2518 0.950 . S
H2514 C2522 0.949 . S
H2515 C2523 0.950 . S
H2516 C2524 0.951 . S
H2517 C2525 0.951 . S
C2518 C2512 1.265 . S
C2518 H2513 0.950 . S
C2518 C2519 1.478 . S
C2519 C2506 1.394 . S
C2519 C2518 1.478 . S
C2519 C2520 1.397 . S
C2520 C2519 1.397 . S
C2520 C2521 1.438 . S
C2520 C2525 1.429 . S
C2521 C2504 1.394 . S
C2521 C2520 1.438 . S
C2521 C2522 1.428 . S
C2522 H2514 0.949 . S
C2522 C2521 1.428 . S
C2522 C2523 1.345 . S
C2523 H2515 0.950 . S
C2523 C2522 1.345 . S
C2523 C2524 1.424 . S
C2524 H2516 0.951 . S
C2524 C2523 1.424 . S
C2524 C2525 1.347 . S
C2525 H2517 0.951 . S
C2525 C2520 1.429 . S
C2525 C2524 1.347 . S
H2526 C2527 0.951 . S
C2527 H2526 0.951 . S
C2527 C2533 1.265 . S
H2528 C2533 0.950 . S
H2529 C2537 0.949 . S
H2530 C2538 0.950 . S
H2531 C2539 0.951 1_556 S
H2532 C2540 0.951 . S
C2533 C2527 1.265 . S
C2533 H2528 0.950 . S
C2533 C2534 1.478 . S
C2534 C2533 1.478 . S
C2534 C2535 1.397 . S
C2534 C2551 1.394 . S
C2535 C2534 1.397 . S
C2535 C2536 1.438 . S
C2535 C2540 1.429 . S
C2536 C2535 1.438 . S
C2536 C2537 1.428 . S
C2536 C2549 1.394 . S
C2537 H2529 0.949 . S
C2537 C2536 1.428 . S
C2537 C2538 1.345 . S
C2538 H2530 0.950 . S
C2538 C2537 1.345 . S
C2538 C2539 1.424 . S
C2539 H2531 0.951 1_554 S
C2539 C2538 1.424 . S
C2539 C2540 1.347 . S
C2540 H2532 0.951 . S
C2540 C2535 1.429 . S
C2540 C2539 1.347 . S
H2541 C2542 0.951 . S
C2542 H2541 0.951 . S
C2542 C2548 1.265 . S
H2543 C2548 0.950 . S
H2544 C2552 0.949 . S
H2545 C2553 0.950 . S
H2546 C2554 0.951 . S
H2547 C2555 0.951 . S
C2548 C2542 1.265 . S
C2548 H2543 0.950 . S
C2548 C2549 1.478 . S
C2549 C2536 1.394 . S
C2549 C2548 1.478 . S
C2549 C2550 1.397 . S
C2550 C2549 1.397 . S
C2550 C2551 1.438 . S
C2550 C2555 1.429 . S
C2551 C2534 1.394 . S
C2551 C2550 1.438 . S
C2551 C2552 1.428 . S
C2552 H2544 0.949 . S
C2552 C2551 1.428 . S
C2552 C2553 1.345 . S
C2553 H2545 0.950 . S
C2553 C2552 1.345 . S
C2553 C2554 1.424 . S
C2554 H2546 0.951 . S
C2554 C2553 1.424 . S
C2554 C2555 1.347 . S
C2555 H2547 0.951 . S
C2555 C2550 1.429 . S
C2555 C2554 1.347 . S
H2556 C2557 0.951 . S
C2557 H2556 0.951 . S
C2557 C2563 1.265 . S
H2558 C2563 0.950 . S
H2559 C2567 0.949 . S
H2560 C2568 0.950 . S
H2561 C2569 0.951 . S
H2562 C2570 0.951 . S
C2563 C2557 1.265 . S
C2563 H2558 0.950 . S
C2563 C2564 1.478 . S
C2564 C2563 1.478 . S
C2564 C2565 1.397 . S
C2564 C2581 1.394 . S
C2565 C2564 1.397 . S
C2565 C2566 1.438 . S
C2565 C2570 1.429 . S
C2566 C2565 1.438 . S
C2566 C2567 1.428 . S
C2566 C2579 1.394 . S
C2567 H2559 0.949 . S
C2567 C2566 1.428 . S
C2567 C2568 1.345 . S
C2568 H2560 0.950 . S
C2568 C2567 1.345 . S
C2568 C2569 1.424 . S
C2569 H2561 0.951 . S
C2569 C2568 1.424 . S
C2569 C2570 1.347 . S
C2570 H2562 0.951 . S
C2570 C2565 1.429 . S
C2570 C2569 1.347 . S
H2571 C2572 0.951 . S
C2572 H2571 0.951 . S
C2572 C2578 1.265 . S
H2573 C2578 0.950 . S
H2574 C2582 0.949 . S
H2575 C2583 0.950 . S
H2576 C2584 0.951 . S
H2577 C2585 0.951 . S
C2578 C2572 1.265 . S
C2578 H2573 0.950 . S
C2578 C2579 1.478 . S
C2579 C2566 1.394 . S
C2579 C2578 1.478 . S
C2579 C2580 1.397 . S
C2580 C2579 1.397 . S
C2580 C2581 1.438 . S
C2580 C2585 1.429 . S
C2581 C2564 1.394 . S
C2581 C2580 1.438 . S
C2581 C2582 1.428 . S
C2582 H2574 0.949 . S
C2582 C2581 1.428 . S
C2582 C2583 1.345 . S
C2583 H2575 0.950 . S
C2583 C2582 1.345 . S
C2583 C2584 1.424 . S
C2584 H2576 0.951 . S
C2584 C2583 1.424 . S
C2584 C2585 1.347 . S
C2585 H2577 0.951 . S
C2585 C2580 1.429 . S
C2585 C2584 1.347 . S
H2586 C2587 0.951 . S
C2587 H2586 0.951 . S
C2587 C2593 1.265 . S
H2588 C2593 0.950 . S
H2589 C2597 0.949 . S
H2590 C2598 0.950 . S
H2591 C2599 0.951 . S
H2592 C2600 0.951 . S
C2593 C2587 1.265 . S
C2593 H2588 0.950 . S
C2593 C2594 1.478 . S
C2594 C2593 1.478 . S
C2594 C2595 1.397 . S
C2594 C2611 1.394 . S
C2595 C2594 1.397 . S
C2595 C2596 1.438 . S
C2595 C2600 1.429 . S
C2596 C2595 1.438 . S
C2596 C2597 1.428 . S
C2596 C2609 1.394 . S
C2597 H2589 0.949 . S
C2597 C2596 1.428 . S
C2597 C2598 1.345 . S
C2598 H2590 0.950 . S
C2598 C2597 1.345 . S
C2598 C2599 1.424 . S
C2599 H2591 0.951 . S
C2599 C2598 1.424 . S
C2599 C2600 1.347 . S
C2600 H2592 0.951 . S
C2600 C2595 1.429 . S
C2600 C2599 1.347 . S
H2601 C2602 0.951 . S
C2602 H2601 0.951 . S
C2602 C2608 1.265 . S
H2603 C2608 0.950 . S
H2604 C2612 0.949 . S
H2605 C2613 0.950 . S
H2606 C2614 0.951 . S
H2607 C2615 0.951 . S
C2608 C2602 1.265 . S
C2608 H2603 0.950 . S
C2608 C2609 1.478 . S
C2609 C2596 1.394 . S
C2609 C2608 1.478 . S
C2609 C2610 1.397 . S
C2610 C2609 1.397 . S
C2610 C2611 1.438 . S
C2610 C2615 1.429 . S
C2611 C2594 1.394 . S
C2611 C2610 1.438 . S
C2611 C2612 1.428 . S
C2612 H2604 0.949 . S
C2612 C2611 1.428 . S
C2612 C2613 1.345 . S
C2613 H2605 0.950 . S
C2613 C2612 1.345 . S
C2613 C2614 1.424 . S
C2614 H2606 0.951 . S
C2614 C2613 1.424 . S
C2614 C2615 1.347 . S
C2615 H2607 0.951 . S
C2615 C2610 1.429 . S
C2615 C2614 1.347 . S
H2616 C2617 0.951 . S
C2617 H2616 0.951 . S
C2617 C2623 1.265 . S
H2618 C2623 0.950 . S
H2619 C2627 0.949 . S
H2620 C2628 0.950 . S
H2621 C2629 0.951 . S
H2622 C2630 0.951 . S
C2623 C2617 1.265 . S
C2623 H2618 0.950 . S
C2623 C2624 1.478 . S
C2624 C2623 1.478 . S
C2624 C2625 1.397 . S
C2624 C2641 1.394 . S
C2625 C2624 1.397 . S
C2625 C2626 1.438 . S
C2625 C2630 1.429 . S
C2626 C2625 1.438 . S
C2626 C2627 1.428 . S
C2626 C2639 1.394 . S
C2627 H2619 0.949 . S
C2627 C2626 1.428 . S
C2627 C2628 1.345 . S
C2628 H2620 0.950 . S
C2628 C2627 1.345 . S
C2628 C2629 1.424 . S
C2629 H2621 0.951 . S
C2629 C2628 1.424 . S
C2629 C2630 1.347 . S
C2630 H2622 0.951 . S
C2630 C2625 1.429 . S
C2630 C2629 1.347 . S
H2631 C2632 0.951 . S
C2632 H2631 0.951 . S
C2632 C2638 1.265 . S
H2633 C2638 0.950 . S
H2634 C2642 0.949 . S
H2635 C2643 0.950 . S
H2636 C2644 0.951 . S
H2637 C2645 0.951 . S
C2638 C2632 1.265 . S
C2638 H2633 0.950 . S
C2638 C2639 1.478 . S
C2639 C2626 1.394 . S
C2639 C2638 1.478 . S
C2639 C2640 1.397 . S
C2640 C2639 1.397 . S
C2640 C2641 1.438 . S
C2640 C2645 1.429 . S
C2641 C2624 1.394 . S
C2641 C2640 1.438 . S
C2641 C2642 1.428 . S
C2642 H2634 0.949 . S
C2642 C2641 1.428 . S
C2642 C2643 1.345 . S
C2643 H2635 0.950 . S
C2643 C2642 1.345 . S
C2643 C2644 1.424 . S
C2644 H2636 0.951 . S
C2644 C2643 1.424 . S
C2644 C2645 1.347 . S
C2645 H2637 0.951 . S
C2645 C2640 1.429 . S
C2645 C2644 1.347 . S
H2646 C2647 0.951 . S
C2647 H2646 0.951 . S
C2647 C2653 1.265 . S
H2648 C2653 0.950 . S
H2649 C2657 0.949 . S
H2650 C2658 0.950 . S
H2651 C2659 0.951 . S
H2652 C2660 0.951 . S
C2653 C2647 1.265 . S
C2653 H2648 0.950 . S
C2653 C2654 1.478 . S
C2654 C2653 1.478 . S
C2654 C2655 1.397 . S
C2654 C2671 1.394 . S
C2655 C2654 1.397 . S
C2655 C2656 1.438 . S
C2655 C2660 1.429 . S
C2656 C2655 1.438 . S
C2656 C2657 1.428 . S
C2656 C2669 1.394 . S
C2657 H2649 0.949 . S
C2657 C2656 1.428 . S
C2657 C2658 1.345 . S
C2658 H2650 0.950 . S
C2658 C2657 1.345 . S
C2658 C2659 1.424 . S
C2659 H2651 0.951 . S
C2659 C2658 1.424 . S
C2659 C2660 1.347 . S
C2660 H2652 0.951 . S
C2660 C2655 1.429 . S
C2660 C2659 1.347 . S
H2661 C2662 0.951 1_655 S
C2662 H2661 0.951 1_455 S
C2662 C2668 1.265 . S
H2663 C2668 0.950 . S
H2664 C2672 0.949 . S
H2665 C2673 0.950 . S
H2666 C2674 0.951 . S
H2667 C2675 0.951 . S
C2668 C2662 1.265 . S
C2668 H2663 0.950 . S
C2668 C2669 1.478 . S
C2669 C2656 1.394 . S
C2669 C2668 1.478 . S
C2669 C2670 1.397 . S
C2670 C2669 1.397 . S
C2670 C2671 1.438 . S
C2670 C2675 1.429 1_455 S
C2671 C2654 1.394 . S
C2671 C2670 1.438 . S
C2671 C2672 1.428 1_455 S
C2672 H2664 0.949 . S
C2672 C2671 1.428 1_655 S
C2672 C2673 1.345 . S
C2673 H2665 0.950 . S
C2673 C2672 1.345 . S
C2673 C2674 1.424 . S
C2674 H2666 0.951 . S
C2674 C2673 1.424 . S
C2674 C2675 1.347 . S
C2675 H2667 0.951 . S
C2675 C2670 1.429 1_655 S
C2675 C2674 1.347 . S
H2676 C2677 0.951 . S
C2677 H2676 0.951 . S
C2677 C2683 1.265 . S
H2678 C2683 0.950 . S
H2679 C2687 0.949 . S
H2680 C2688 0.950 . S
H2681 C2689 0.951 . S
H2682 C2690 0.951 . S
C2683 C2677 1.265 . S
C2683 H2678 0.950 . S
C2683 C2684 1.478 . S
C2684 C2683 1.478 . S
C2684 C2685 1.397 . S
C2684 C2701 1.394 . S
C2685 C2684 1.397 . S
C2685 C2686 1.438 . S
C2685 C2690 1.429 . S
C2686 C2685 1.438 . S
C2686 C2687 1.428 . S
C2686 C2699 1.394 . S
C2687 H2679 0.949 . S
C2687 C2686 1.428 . S
C2687 C2688 1.345 . S
C2688 H2680 0.950 . S
C2688 C2687 1.345 . S
C2688 C2689 1.424 . S
C2689 H2681 0.951 . S
C2689 C2688 1.424 . S
C2689 C2690 1.347 . S
C2690 H2682 0.951 . S
C2690 C2685 1.429 . S
C2690 C2689 1.347 . S
H2691 C2692 0.951 . S
C2692 H2691 0.951 . S
C2692 C2698 1.265 . S
H2693 C2698 0.950 . S
H2694 C2702 0.949 . S
H2695 C2703 0.950 . S
H2696 C2704 0.951 . S
H2697 C2705 0.951 . S
C2698 C2692 1.265 . S
C2698 H2693 0.950 . S
C2698 C2699 1.478 . S
C2699 C2686 1.394 . S
C2699 C2698 1.478 . S
C2699 C2700 1.397 . S
C2700 C2699 1.397 . S
C2700 C2701 1.438 . S
C2700 C2705 1.429 . S
C2701 C2684 1.394 . S
C2701 C2700 1.438 . S
C2701 C2702 1.428 . S
C2702 H2694 0.949 . S
C2702 C2701 1.428 . S
C2702 C2703 1.345 . S
C2703 H2695 0.950 . S
C2703 C2702 1.345 . S
C2703 C2704 1.424 . S
C2704 H2696 0.951 . S
C2704 C2703 1.424 . S
C2704 C2705 1.347 . S
C2705 H2697 0.951 . S
C2705 C2700 1.429 . S
C2705 C2704 1.347 . S
H2706 C2707 0.951 . S
C2707 H2706 0.951 . S
C2707 C2713 1.265 . S
H2708 C2713 0.950 . S
H2709 C2717 0.949 . S
H2710 C2718 0.950 . S
H2711 C2719 0.951 . S
H2712 C2720 0.951 . S
C2713 C2707 1.265 . S
C2713 H2708 0.950 . S
C2713 C2714 1.478 . S
C2714 C2713 1.478 . S
C2714 C2715 1.397 1_565 S
C2714 C2731 1.394 . S
C2715 C2714 1.397 1_545 S
C2715 C2716 1.438 . S
C2715 C2720 1.429 . S
C2716 C2715 1.438 . S
C2716 C2717 1.428 . S
C2716 C2729 1.394 1_545 S
C2717 H2709 0.949 . S
C2717 C2716 1.428 . S
C2717 C2718 1.345 . S
C2718 H2710 0.950 . S
C2718 C2717 1.345 . S
C2718 C2719 1.424 . S
C2719 H2711 0.951 . S
C2719 C2718 1.424 . S
C2719 C2720 1.347 . S
C2720 H2712 0.951 . S
C2720 C2715 1.429 . S
C2720 C2719 1.347 . S
H2721 C2722 0.951 . S
C2722 H2721 0.951 . S
C2722 C2728 1.265 . S
H2723 C2728 0.950 . S
H2724 C2732 0.949 . S
H2725 C2733 0.950 . S
H2726 C2734 0.951 . S
H2727 C2735 0.951 . S
C2728 C2722 1.265 . S
C2728 H2723 0.950 . S
C2728 C2729 1.478 . S
C2729 C2716 1.394 1_565 S
C2729 C2728 1.478 . S
C2729 C2730 1.397 . S
C2730 C2729 1.397 . S
C2730 C2731 1.438 . S
C2730 C2735 1.429 . S
C2731 C2714 1.394 . S
C2731 C2730 1.438 . S
C2731 C2732 1.428 . S
C2732 H2724 0.949 . S
C2732 C2731 1.428 . S
C2732 C2733 1.345 . S
C2733 H2725 0.950 . S
C2733 C2732 1.345 . S
C2733 C2734 1.424 . S
C2734 H2726 0.951 . S
C2734 C2733 1.424 . S
C2734 C2735 1.347 . S
C2735 H2727 0.951 . S
C2735 C2730 1.429 . S
C2735 C2734 1.347 . S
H2736 C2737 0.951 . S
C2737 H2736 0.951 . S
C2737 C2743 1.265 . S
H2738 C2743 0.950 . S
H2739 C2747 0.949 . S
H2740 C2748 0.950 . S
H2741 C2749 0.951 . S
H2742 C2750 0.936 1_565 S
C2743 C2737 1.265 . S
C2743 H2738 0.950 . S
C2743 C2744 1.478 . S
C2744 C2743 1.478 . S
C2744 C2745 1.397 . S
C2744 C2761 1.394 . S
C2745 C2744 1.397 . S
C2745 C2746 1.483 . S
C2745 C2750 1.422 1_565 S
C2746 C2745 1.483 . S
C2746 C2747 1.367 1_565 S
C2746 C2759 1.413 . S
C2747 H2739 0.949 . S
C2747 C2746 1.367 1_545 S
C2747 C2748 1.345 . S
C2748 H2740 0.950 . S
C2748 C2747 1.345 . S
C2748 C2749 1.424 . S
C2749 H2741 0.951 . S
C2749 C2748 1.424 . S
C2749 C2750 1.368 . S
C2750 H2742 0.936 1_545 S
C2750 C2745 1.422 1_545 S
C2750 C2749 1.368 . S
H2751 C2752 0.951 . S
C2752 H2751 0.951 . S
C2752 C2758 1.265 . S
H2753 C2758 0.950 1_545 S
H2754 C2762 0.949 . S
H2755 C2763 0.950 . S
H2756 C2764 0.951 . S
H2757 C2765 0.951 . S
C2758 C2752 1.265 . S
C2758 H2753 0.950 1_565 S
C2758 C2759 1.478 . S
C2759 C2746 1.413 . S
C2759 C2758 1.478 . S
C2759 C2760 1.397 . S
C2760 C2759 1.397 . S
C2760 C2761 1.438 . S
C2760 C2765 1.429 . S
C2761 C2744 1.394 . S
C2761 C2760 1.438 . S
C2761 C2762 1.428 . S
C2762 H2754 0.949 . S
C2762 C2761 1.428 . S
C2762 C2763 1.345 . S
C2763 H2755 0.950 . S
C2763 C2762 1.345 . S
C2763 C2764 1.424 . S
C2764 H2756 0.951 . S
C2764 C2763 1.424 . S
C2764 C2765 1.347 . S
C2765 H2757 0.951 . S
C2765 C2760 1.429 . S
C2765 C2764 1.347 . S
H2766 C2767 0.951 . S
C2767 H2766 0.951 . S
C2767 C2773 1.265 . S
H2768 C2773 0.950 . S
H2769 C2777 0.953 1_655 S
H2770 C2778 0.950 . S
H2771 C2779 0.951 . S
H2772 C2780 0.951 . S
C2773 C2767 1.265 . S
C2773 H2768 0.950 . S
C2773 C2774 1.478 . S
C2774 C2773 1.478 . S
C2774 C2775 1.397 . S
C2774 C2791 1.394 . S
C2775 C2774 1.397 . S
C2775 C2776 1.438 . S
C2775 C2780 1.429 . S
C2776 C2775 1.438 . S
C2776 C2777 1.428 . S
C2776 C2789 1.394 . S
C2777 H2769 0.953 1_455 S
C2777 C2776 1.428 . S
C2777 C2778 1.345 . S
C2778 H2770 0.950 . S
C2778 C2777 1.345 . S
C2778 C2779 1.424 . S
C2779 H2771 0.951 . S
C2779 C2778 1.424 . S
C2779 C2780 1.347 . S
C2780 H2772 0.951 . S
C2780 C2775 1.429 . S
C2780 C2779 1.347 . S
H2781 C2782 0.951 . S
C2782 H2781 0.951 . S
C2782 C2788 1.265 1_455 S
H2783 C2788 0.950 . S
H2784 C2792 0.949 . S
H2785 C2793 0.950 . S
H2786 C2794 0.951 . S
H2787 C2795 0.951 . S
C2788 C2782 1.265 1_655 S
C2788 H2783 0.950 . S
C2788 C2789 1.478 1_655 S
C2789 C2776 1.394 . S
C2789 C2788 1.478 1_455 S
C2789 C2790 1.397 . S
C2790 C2789 1.397 . S
C2790 C2791 1.438 . S
C2790 C2795 1.429 . S
C2791 C2774 1.394 . S
C2791 C2790 1.438 . S
C2791 C2792 1.428 . S
C2792 H2784 0.949 . S
C2792 C2791 1.428 . S
C2792 C2793 1.345 . S
C2793 H2785 0.950 . S
C2793 C2792 1.345 . S
C2793 C2794 1.424 . S
C2794 H2786 0.951 . S
C2794 C2793 1.424 . S
C2794 C2795 1.347 . S
C2795 H2787 0.951 . S
C2795 C2790 1.429 . S
C2795 C2794 1.347 . S
H2796 C2797 0.951 . S
C2797 H2796 0.951 . S
C2797 C2803 1.265 . S
H2798 C2803 0.950 . S
H2799 C2807 0.949 . S
H2800 C2808 0.950 . S
H2801 C2809 0.951 . S
H2802 C2810 0.951 . S
C2803 C2797 1.265 . S
C2803 H2798 0.950 . S
C2803 C2804 1.478 . S
C2804 C2803 1.478 . S
C2804 C2805 1.397 . S
C2804 C2821 1.394 . S
C2805 C2804 1.397 . S
C2805 C2806 1.438 . S
C2805 C2810 1.429 . S
C2806 C2805 1.438 . S
C2806 C2807 1.428 . S
C2806 C2819 1.394 . S
C2807 H2799 0.949 . S
C2807 C2806 1.428 . S
C2807 C2808 1.345 . S
C2808 H2800 0.950 . S
C2808 C2807 1.345 . S
C2808 C2809 1.424 . S
C2809 H2801 0.951 . S
C2809 C2808 1.424 . S
C2809 C2810 1.347 . S
C2810 H2802 0.951 . S
C2810 C2805 1.429 . S
C2810 C2809 1.347 . S
H2811 C2812 0.951 . S
C2812 H2811 0.951 . S
C2812 C2818 1.265 . S
H2813 C2818 0.950 . S
H2814 C2822 0.949 . S
H2815 C2823 0.950 . S
H2816 C2824 0.951 . S
H2817 C2825 0.951 . S
C2818 C2812 1.265 . S
C2818 H2813 0.950 . S
C2818 C2819 1.478 . S
C2819 C2806 1.394 . S
C2819 C2818 1.478 . S
C2819 C2820 1.397 . S
C2820 C2819 1.397 . S
C2820 C2821 1.438 . S
C2820 C2825 1.429 . S
C2821 C2804 1.394 . S
C2821 C2820 1.438 . S
C2821 C2822 1.428 . S
C2822 H2814 0.949 . S
C2822 C2821 1.428 . S
C2822 C2823 1.345 . S
C2823 H2815 0.950 . S
C2823 C2822 1.345 . S
C2823 C2824 1.424 . S
C2824 H2816 0.951 . S
C2824 C2823 1.424 . S
C2824 C2825 1.347 . S
C2825 H2817 0.951 . S
C2825 C2820 1.429 . S
C2825 C2824 1.347 . S
H2826 C2827 0.951 . S
C2827 H2826 0.951 . S
C2827 C2833 1.265 . S
H2828 C2833 0.950 . S
H2829 C2837 0.949 . S
H2830 C2838 0.950 . S
H2831 C2839 0.951 . S
H2832 C2840 0.951 . S
C2833 C2827 1.265 . S
C2833 H2828 0.950 . S
C2833 C2834 1.478 . S
C2834 C2833 1.478 . S
C2834 C2835 1.397 . S
C2834 C2851 1.394 . S
C2835 C2834 1.397 . S
C2835 C2836 1.438 . S
C2835 C2840 1.429 . S
C2836 C2835 1.438 . S
C2836 C2837 1.428 . S
C2836 C2849 1.394 . S
C2837 H2829 0.949 . S
C2837 C2836 1.428 . S
C2837 C2838 1.345 . S
C2838 H2830 0.950 . S
C2838 C2837 1.345 . S
C2838 C2839 1.424 . S
C2839 H2831 0.951 . S
C2839 C2838 1.424 . S
C2839 C2840 1.347 . S
C2840 H2832 0.951 . S
C2840 C2835 1.429 . S
C2840 C2839 1.347 . S
H2841 C2842 0.951 . S
C2842 H2841 0.951 . S
C2842 C2848 1.265 . S
H2843 C2848 0.950 . S
H2844 C2852 0.949 . S
H2845 C2853 0.950 . S
H2846 C2854 0.951 . S
H2847 C2855 0.951 . S
C2848 C2842 1.265 . S
C2848 H2843 0.950 . S
C2848 C2849 1.478 . S
C2849 C2836 1.394 . S
C2849 C2848 1.478 . S
C2849 C2850 1.397 . S
C2850 C2849 1.397 . S
C2850 C2851 1.438 . S
C2850 C2855 1.429 . S
C2851 C2834 1.394 . S
C2851 C2850 1.438 . S
C2851 C2852 1.428 . S
C2852 H2844 0.949 . S
C2852 C2851 1.428 . S
C2852 C2853 1.345 . S
C2853 H2845 0.950 . S
C2853 C2852 1.345 . S
C2853 C2854 1.424 . S
C2854 H2846 0.951 . S
C2854 C2853 1.424 . S
C2854 C2855 1.347 . S
C2855 H2847 0.951 . S
C2855 C2850 1.429 . S
C2855 C2854 1.347 . S
H2856 C2857 0.951 . S
C2857 H2856 0.951 . S
C2857 C2863 1.265 . S
H2858 C2863 0.950 . S
H2859 C2867 0.949 . S
H2860 C2868 0.950 . S
H2861 C2869 0.951 . S
H2862 C2870 0.951 . S
C2863 C2857 1.265 . S
C2863 H2858 0.950 . S
C2863 C2864 1.478 . S
C2864 C2863 1.478 . S
C2864 C2865 1.397 . S
C2864 C2881 1.394 . S
C2865 C2864 1.397 . S
C2865 C2866 1.438 . S
C2865 C2870 1.429 . S
C2866 C2865 1.438 . S
C2866 C2867 1.428 . S
C2866 C2879 1.394 . S
C2867 H2859 0.949 . S
C2867 C2866 1.428 . S
C2867 C2868 1.345 . S
C2868 H2860 0.950 . S
C2868 C2867 1.345 . S
C2868 C2869 1.424 . S
C2869 H2861 0.951 . S
C2869 C2868 1.424 . S
C2869 C2870 1.347 . S
C2870 H2862 0.951 . S
C2870 C2865 1.429 . S
C2870 C2869 1.347 . S
H2871 C2872 0.951 . S
C2872 H2871 0.951 . S
C2872 C2878 1.265 . S
H2873 C2878 0.950 . S
H2874 C2882 0.949 . S
H2875 C2883 0.950 . S
H2876 C2884 0.951 . S
H2877 C2885 0.951 . S
C2878 C2872 1.265 . S
C2878 H2873 0.950 . S
C2878 C2879 1.478 . S
C2879 C2866 1.394 . S
C2879 C2878 1.478 . S
C2879 C2880 1.397 . S
C2880 C2879 1.397 . S
C2880 C2881 1.438 . S
C2880 C2885 1.429 . S
C2881 C2864 1.394 . S
C2881 C2880 1.438 . S
C2881 C2882 1.428 . S
C2882 H2874 0.949 . S
C2882 C2881 1.428 . S
C2882 C2883 1.345 . S
C2883 H2875 0.950 . S
C2883 C2882 1.345 . S
C2883 C2884 1.424 . S
C2884 H2876 0.951 . S
C2884 C2883 1.424 . S
C2884 C2885 1.347 . S
C2885 H2877 0.951 . S
C2885 C2880 1.429 . S
C2885 C2884 1.347 . S
H2886 C2887 0.951 . S
C2887 H2886 0.951 . S
C2887 C2893 1.265 . S
H2888 C2893 0.950 . S
H2889 C2897 0.949 . S
H2890 C2898 0.950 . S
H2891 C2899 0.951 . S
H2892 C2900 0.951 . S
C2893 C2887 1.265 . S
C2893 H2888 0.950 . S
C2893 C2894 1.478 . S
C2894 C2893 1.478 . S
C2894 C2895 1.397 . S
C2894 C2911 1.394 . S
C2895 C2894 1.397 . S
C2895 C2896 1.438 . S
C2895 C2900 1.429 . S
C2896 C2895 1.438 . S
C2896 C2897 1.428 . S
C2896 C2909 1.394 . S
C2897 H2889 0.949 . S
C2897 C2896 1.428 . S
C2897 C2898 1.345 . S
C2898 H2890 0.950 . S
C2898 C2897 1.345 . S
C2898 C2899 1.424 . S
C2899 H2891 0.951 . S
C2899 C2898 1.424 . S
C2899 C2900 1.347 . S
C2900 H2892 0.951 . S
C2900 C2895 1.429 . S
C2900 C2899 1.347 . S
H2901 C2902 0.951 . S
C2902 H2901 0.951 . S
C2902 C2908 1.265 . S
H2903 C2908 0.950 . S
H2904 C2912 0.949 . S
H2905 C2913 0.950 . S
H2906 C2914 0.951 . S
H2907 C2915 0.951 . S
C2908 C2902 1.265 . S
C2908 H2903 0.950 . S
C2908 C2909 1.478 . S
C2909 C2896 1.394 . S
C2909 C2908 1.478 . S
C2909 C2910 1.397 . S
C2910 C2909 1.397 . S
C2910 C2911 1.438 . S
C2910 C2915 1.429 . S
C2911 C2894 1.394 . S
C2911 C2910 1.438 . S
C2911 C2912 1.428 . S
C2912 H2904 0.949 . S
C2912 C2911 1.428 . S
C2912 C2913 1.345 . S
C2913 H2905 0.950 . S
C2913 C2912 1.345 . S
C2913 C2914 1.424 . S
C2914 H2906 0.951 . S
C2914 C2913 1.424 . S
C2914 C2915 1.347 . S
C2915 H2907 0.951 . S
C2915 C2910 1.429 . S
C2915 C2914 1.347 . S
H2916 C2917 0.951 . S
C2917 H2916 0.951 . S
C2917 C2923 1.265 . S
H2918 C2923 0.950 . S
H2919 C2927 0.949 . S
H2920 C2928 0.950 . S
H2921 C2929 0.951 . S
H2922 C2930 0.951 . S
C2923 C2917 1.265 . S
C2923 H2918 0.950 . S
C2923 C2924 1.478 . S
C2924 C2923 1.478 . S
C2924 C2925 1.397 . S
C2924 C2941 1.394 . S
C2925 C2924 1.397 . S
C2925 C2926 1.438 1_545 S
C2925 C2930 1.429 1_545 S
C2926 C2925 1.438 1_565 S
C2926 C2927 1.428 . S
C2926 C2939 1.394 1_565 S
C2927 H2919 0.949 . S
C2927 C2926 1.428 . S
C2927 C2928 1.345 . S
C2928 H2920 0.950 . S
C2928 C2927 1.345 . S
C2928 C2929 1.424 . S
C2929 H2921 0.951 . S
C2929 C2928 1.424 . S
C2929 C2930 1.347 . S
C2930 H2922 0.951 . S
C2930 C2925 1.429 1_565 S
C2930 C2929 1.347 . S
H2931 C2932 0.951 . S
C2932 H2931 0.951 . S
C2932 C2938 1.265 . S
H2933 C2938 0.960 . S
H2934 C2942 0.949 . S
H2935 C2943 0.950 . S
H2936 C2944 0.951 . S
H2937 C2945 0.951 . S
C2938 C2932 1.265 . S
C2938 H2933 0.960 . S
C2938 C2939 1.478 . S
C2939 C2926 1.394 1_545 S
C2939 C2938 1.478 . S
C2939 C2940 1.397 . S
C2940 C2939 1.397 . S
C2940 C2941 1.438 . S
C2940 C2945 1.429 . S
C2941 C2924 1.394 . S
C2941 C2940 1.438 . S
C2941 C2942 1.428 . S
C2942 H2934 0.949 . S
C2942 C2941 1.428 . S
C2942 C2943 1.345 . S
C2943 H2935 0.950 . S
C2943 C2942 1.345 . S
C2943 C2944 1.424 . S
C2944 H2936 0.951 . S
C2944 C2943 1.424 . S
C2944 C2945 1.347 . S
C2945 H2937 0.951 . S
C2945 C2940 1.429 . S
C2945 C2944 1.347 . S
H2946 C2947 0.951 . S
C2947 H2946 0.951 . S
C2947 C2953 1.265 . S
H2948 C2953 0.950 1_455 S
H2949 C2957 0.949 . S
H2950 C2958 0.950 . S
H2951 C2959 0.951 . S
H2952 C2960 0.951 . S
C2953 C2947 1.265 . S
C2953 H2948 0.950 1_655 S
C2953 C2954 1.478 . S
C2954 C2953 1.478 . S
C2954 C2955 1.397 1_655 S
C2954 C2971 1.394 . S
C2955 C2954 1.397 1_455 S
C2955 C2956 1.430 1_455 S
C2955 C2960 1.437 . S
C2956 C2955 1.430 1_655 S
C2956 C2957 1.428 1_655 S
C2956 C2969 1.394 . S
C2957 H2949 0.949 . S
C2957 C2956 1.428 1_455 S
C2957 C2958 1.345 . S
C2958 H2950 0.950 . S
C2958 C2957 1.345 . S
C2958 C2959 1.424 . S
C2959 H2951 0.951 . S
C2959 C2958 1.424 . S
C2959 C2960 1.347 . S
C2960 H2952 0.951 . S
C2960 C2955 1.437 . S
C2960 C2959 1.347 . S
H2961 C2962 0.951 1_455 S
C2962 H2961 0.951 1_655 S
C2962 C2968 1.265 . S
H2963 C2968 0.950 . S
H2964 C2972 0.949 . S
H2965 C2973 0.950 . S
H2966 C2974 0.951 . S
H2967 C2975 0.951 . S
C2968 C2962 1.265 . S
C2968 H2963 0.950 . S
C2968 C2969 1.478 . S
C2969 C2956 1.394 . S
C2969 C2968 1.478 . S
C2969 C2970 1.397 . S
C2970 C2969 1.397 . S
C2970 C2971 1.438 . S
C2970 C2975 1.429 . S
C2971 C2954 1.394 . S
C2971 C2970 1.438 . S
C2971 C2972 1.428 . S
C2972 H2964 0.949 . S
C2972 C2971 1.428 . S
C2972 C2973 1.345 . S
C2973 H2965 0.950 . S
C2973 C2972 1.345 . S
C2973 C2974 1.424 . S
C2974 H2966 0.951 . S
C2974 C2973 1.424 . S
C2974 C2975 1.347 . S
C2975 H2967 0.951 . S
C2975 C2970 1.429 . S
C2975 C2974 1.347 . S
H2976 C2977 0.951 . S
C2977 H2976 0.951 . S
C2977 C2983 1.265 . S
H2978 C2983 0.950 . S
H2979 C2987 0.949 . S
H2980 C2988 0.950 . S
H2981 C2989 0.951 . S
H2982 C2990 0.951 . S
C2983 C2977 1.265 . S
C2983 H2978 0.950 . S
C2983 C2984 1.478 . S
C2984 C2983 1.478 . S
C2984 C2985 1.397 . S
C2984 C3001 1.394 . S
C2985 C2984 1.397 . S
C2985 C2986 1.438 . S
C2985 C2990 1.429 . S
C2986 C2985 1.438 . S
C2986 C2987 1.428 . S
C2986 C2999 1.394 . S
C2987 H2979 0.949 . S
C2987 C2986 1.428 . S
C2987 C2988 1.345 . S
C2988 H2980 0.950 . S
C2988 C2987 1.345 . S
C2988 C2989 1.424 . S
C2989 H2981 0.951 . S
C2989 C2988 1.424 . S
C2989 C2990 1.347 . S
C2990 H2982 0.951 . S
C2990 C2985 1.429 . S
C2990 C2989 1.347 . S
H2991 C2992 0.951 . S
C2992 H2991 0.951 . S
C2992 C2998 1.265 . S
H2993 C2998 0.950 . S
H2994 C3002 0.949 . S
H2995 C3003 0.950 . S
H2996 C3004 0.951 . S
H2997 C3005 0.951 . S
C2998 C2992 1.265 . S
C2998 H2993 0.950 . S
C2998 C2999 1.478 . S
C2999 C2986 1.394 . S
C2999 C2998 1.478 . S
C2999 C3000 1.397 . S
C3000 C2999 1.397 . S
C3000 C3001 1.438 . S
C3000 C3005 1.429 . S
C3001 C2984 1.394 . S
C3001 C3000 1.438 . S
C3001 C3002 1.428 . S
C3002 H2994 0.949 . S
C3002 C3001 1.428 . S
C3002 C3003 1.345 . S
C3003 H2995 0.950 . S
C3003 C3002 1.345 . S
C3003 C3004 1.424 . S
C3004 H2996 0.951 . S
C3004 C3003 1.424 . S
C3004 C3005 1.347 . S
C3005 H2997 0.951 . S
C3005 C3000 1.429 . S
C3005 C3004 1.347 . S
H3006 C3007 0.951 . S
C3007 H3006 0.951 . S
C3007 C3013 1.265 . S
H3008 C3013 0.950 . S
H3009 C3017 0.949 . S
H3010 C3018 0.950 . S
H3011 C3019 0.951 . S
H3012 C3020 0.951 . S
C3013 C3007 1.265 . S
C3013 H3008 0.950 . S
C3013 C3014 1.478 . S
C3014 C3013 1.478 . S
C3014 C3015 1.397 . S
C3014 C3031 1.394 . S
C3015 C3014 1.397 . S
C3015 C3016 1.438 . S
C3015 C3020 1.429 . S
C3016 C3015 1.438 . S
C3016 C3017 1.428 . S
C3016 C3029 1.394 . S
C3017 H3009 0.949 . S
C3017 C3016 1.428 . S
C3017 C3018 1.345 . S
C3018 H3010 0.950 . S
C3018 C3017 1.345 . S
C3018 C3019 1.424 . S
C3019 H3011 0.951 . S
C3019 C3018 1.424 . S
C3019 C3020 1.347 . S
C3020 H3012 0.951 . S
C3020 C3015 1.429 . S
C3020 C3019 1.347 . S
H3021 C3022 0.951 . S
C3022 H3021 0.951 . S
C3022 C3028 1.265 . S
H3023 C3028 0.950 . S
H3024 C3032 0.949 . S
H3025 C3033 0.950 . S
H3026 C3034 0.951 . S
H3027 C3035 0.951 . S
C3028 C3022 1.265 . S
C3028 H3023 0.950 . S
C3028 C3029 1.478 . S
C3029 C3016 1.394 . S
C3029 C3028 1.478 . S
C3029 C3030 1.397 . S
C3030 C3029 1.397 . S
C3030 C3031 1.438 . S
C3030 C3035 1.429 . S
C3031 C3014 1.394 . S
C3031 C3030 1.438 . S
C3031 C3032 1.428 . S
C3032 H3024 0.949 . S
C3032 C3031 1.428 . S
C3032 C3033 1.345 . S
C3033 H3025 0.950 . S
C3033 C3032 1.345 . S
C3033 C3034 1.424 . S
C3034 H3026 0.951 . S
C3034 C3033 1.424 . S
C3034 C3035 1.347 . S
C3035 H3027 0.951 . S
C3035 C3030 1.429 . S
C3035 C3034 1.347 . S
H3036 C3037 0.951 . S
C3037 H3036 0.951 . S
C3037 C3043 1.265 . S
H3038 C3043 0.950 . S
H3039 C3047 0.949 . S
H3040 C3048 0.950 . S
H3041 C3049 0.951 . S
H3042 C3050 0.951 . S
C3043 C3037 1.265 . S
C3043 H3038 0.950 . S
C3043 C3044 1.478 . S
C3044 C3043 1.478 . S
C3044 C3045 1.397 . S
C3044 C3061 1.394 . S
C3045 C3044 1.397 . S
C3045 C3046 1.438 . S
C3045 C3050 1.429 . S
C3046 C3045 1.438 . S
C3046 C3047 1.428 . S
C3046 C3059 1.394 . S
C3047 H3039 0.949 . S
C3047 C3046 1.428 . S
C3047 C3048 1.345 . S
C3048 H3040 0.950 . S
C3048 C3047 1.345 . S
C3048 C3049 1.424 . S
C3049 H3041 0.951 . S
C3049 C3048 1.424 . S
C3049 C3050 1.347 . S
C3050 H3042 0.951 . S
C3050 C3045 1.429 . S
C3050 C3049 1.347 . S
H3051 C3052 0.951 . S
C3052 H3051 0.951 . S
C3052 C3058 1.265 . S
H3053 C3058 0.950 . S
H3054 C3062 0.949 . S
H3055 C3063 0.950 . S
H3056 C3064 0.951 . S
H3057 C3065 0.951 . S
C3058 C3052 1.265 . S
C3058 H3053 0.950 . S
C3058 C3059 1.478 . S
C3059 C3046 1.394 . S
C3059 C3058 1.478 . S
C3059 C3060 1.397 . S
C3060 C3059 1.397 . S
C3060 C3061 1.438 . S
C3060 C3065 1.429 . S
C3061 C3044 1.394 . S
C3061 C3060 1.438 . S
C3061 C3062 1.428 . S
C3062 H3054 0.949 . S
C3062 C3061 1.428 . S
C3062 C3063 1.345 . S
C3063 H3055 0.950 . S
C3063 C3062 1.345 . S
C3063 C3064 1.424 . S
C3064 H3056 0.951 . S
C3064 C3063 1.424 . S
C3064 C3065 1.347 . S
C3065 H3057 0.951 . S
C3065 C3060 1.429 . S
C3065 C3064 1.347 . S
H3066 C3067 0.951 . S
C3067 H3066 0.951 . S
C3067 C3073 1.265 . S
H3068 C3073 0.950 . S
H3069 C3077 0.949 . S
H3070 C3078 0.950 . S
H3071 C3079 0.951 . S
H3072 C3080 0.951 . S
C3073 C3067 1.265 . S
C3073 H3068 0.950 . S
C3073 C3074 1.478 . S
C3074 C3073 1.478 . S
C3074 C3075 1.397 . S
C3074 C3091 1.394 . S
C3075 C3074 1.397 . S
C3075 C3076 1.438 . S
C3075 C3080 1.429 . S
C3076 C3075 1.438 . S
C3076 C3077 1.428 . S
C3076 C3089 1.394 . S
C3077 H3069 0.949 . S
C3077 C3076 1.428 . S
C3077 C3078 1.345 . S
C3078 H3070 0.950 . S
C3078 C3077 1.345 . S
C3078 C3079 1.424 . S
C3079 H3071 0.951 . S
C3079 C3078 1.424 . S
C3079 C3080 1.347 . S
C3080 H3072 0.951 . S
C3080 C3075 1.429 . S
C3080 C3079 1.347 . S
H3081 C3082 0.951 . S
C3082 H3081 0.951 . S
C3082 C3088 1.265 . S
H3083 C3088 0.950 . S
H3084 C3092 0.949 . S
H3085 C3093 0.950 . S
H3086 C3094 0.951 . S
H3087 C3095 0.951 . S
C3088 C3082 1.265 . S
C3088 H3083 0.950 . S
C3088 C3089 1.478 . S
C3089 C3076 1.394 . S
C3089 C3088 1.478 . S
C3089 C3090 1.397 . S
C3090 C3089 1.397 . S
C3090 C3091 1.438 . S
C3090 C3095 1.429 . S
C3091 C3074 1.394 . S
C3091 C3090 1.438 . S
C3091 C3092 1.428 . S
C3092 H3084 0.949 . S
C3092 C3091 1.428 . S
C3092 C3093 1.345 . S
C3093 H3085 0.950 . S
C3093 C3092 1.345 . S
C3093 C3094 1.424 . S
C3094 H3086 0.951 . S
C3094 C3093 1.424 . S
C3094 C3095 1.347 . S
C3095 H3087 0.951 . S
C3095 C3090 1.429 . S
C3095 C3094 1.347 . S
H3096 C3097 0.951 . S
C3097 H3096 0.951 . S
C3097 C3103 1.265 . S
H3098 C3103 0.950 . S
H3099 C3107 0.949 . S
H3100 C3108 0.950 . S
H3101 C3109 0.951 . S
H3102 C3110 0.951 . S
C3103 C3097 1.265 . S
C3103 H3098 0.950 . S
C3103 C3104 1.478 . S
C3104 C3103 1.478 . S
C3104 C3105 1.397 . S
C3104 C3121 1.394 . S
C3105 C3104 1.397 . S
C3105 C3106 1.438 . S
C3105 C3110 1.429 . S
C3106 C3105 1.438 . S
C3106 C3107 1.428 . S
C3106 C3119 1.394 . S
C3107 H3099 0.949 . S
C3107 C3106 1.428 . S
C3107 C3108 1.345 . S
C3108 H3100 0.950 . S
C3108 C3107 1.345 . S
C3108 C3109 1.424 . S
C3109 H3101 0.951 . S
C3109 C3108 1.424 . S
C3109 C3110 1.347 . S
C3110 H3102 0.951 . S
C3110 C3105 1.429 . S
C3110 C3109 1.347 . S
H3111 C3112 0.951 . S
C3112 H3111 0.951 . S
C3112 C3118 1.265 . S
H3113 C3118 0.950 . S
H3114 C3122 0.949 . S
H3115 C3123 0.950 . S
H3116 C3124 0.951 . S
H3117 C3125 0.951 . S
C3118 C3112 1.265 . S
C3118 H3113 0.950 . S
C3118 C3119 1.478 . S
C3119 C3106 1.394 . S
C3119 C3118 1.478 . S
C3119 C3120 1.397 . S
C3120 C3119 1.397 . S
C3120 C3121 1.438 . S
C3120 C3125 1.429 . S
C3121 C3104 1.394 . S
C3121 C3120 1.438 . S
C3121 C3122 1.428 . S
C3122 H3114 0.949 . S
C3122 C3121 1.428 . S
C3122 C3123 1.345 . S
C3123 H3115 0.950 . S
C3123 C3122 1.345 . S
C3123 C3124 1.424 . S
C3124 H3116 0.951 . S
C3124 C3123 1.424 . S
C3124 C3125 1.347 . S
C3125 H3117 0.951 . S
C3125 C3120 1.429 . S
C3125 C3124 1.347 . S
H3126 C3127 0.951 . S
C3127 H3126 0.951 . S
C3127 C3133 1.265 . S
H3128 C3133 0.950 . S
H3129 C3137 0.949 . S
H3130 C3138 0.950 . S
H3131 C3139 0.951 . S
H3132 C3140 0.951 . S
C3133 C3127 1.265 . S
C3133 H3128 0.950 . S
C3133 C3134 1.478 . S
C3134 C3133 1.478 . S
C3134 C3135 1.397 . S
C3134 C3151 1.394 . S
C3135 C3134 1.397 . S
C3135 C3136 1.438 . S
C3135 C3140 1.429 . S
C3136 C3135 1.438 . S
C3136 C3137 1.428 . S
C3136 C3149 1.394 . S
C3137 H3129 0.949 . S
C3137 C3136 1.428 . S
C3137 C3138 1.345 . S
C3138 H3130 0.950 . S
C3138 C3137 1.345 . S
C3138 C3139 1.424 . S
C3139 H3131 0.951 . S
C3139 C3138 1.424 . S
C3139 C3140 1.347 . S
C3140 H3132 0.951 . S
C3140 C3135 1.429 . S
C3140 C3139 1.347 . S
H3141 C3142 0.951 . S
C3142 H3141 0.951 . S
C3142 C3148 1.265 . S
H3143 C3148 0.950 . S
H3144 C3152 0.949 . S
H3145 C3153 0.950 . S
H3146 C3154 0.951 . S
H3147 C3155 0.951 . S
C3148 C3142 1.265 . S
C3148 H3143 0.950 . S
C3148 C3149 1.478 . S
C3149 C3136 1.394 . S
C3149 C3148 1.478 . S
C3149 C3150 1.397 . S
C3150 C3149 1.397 . S
C3150 C3151 1.438 . S
C3150 C3155 1.429 . S
C3151 C3134 1.394 . S
C3151 C3150 1.438 . S
C3151 C3152 1.428 . S
C3152 H3144 0.949 . S
C3152 C3151 1.428 . S
C3152 C3153 1.345 . S
C3153 H3145 0.950 . S
C3153 C3152 1.345 . S
C3153 C3154 1.424 . S
C3154 H3146 0.951 . S
C3154 C3153 1.424 . S
C3154 C3155 1.347 . S
C3155 H3147 0.951 . S
C3155 C3150 1.429 . S
C3155 C3154 1.347 . S
H3156 C3157 0.951 . S
C3157 H3156 0.951 . S
C3157 C3163 1.265 . S
H3158 C3163 0.950 . S
H3159 C3167 0.949 . S
H3160 C3168 0.950 . S
H3161 C3169 0.951 . S
H3162 C3170 0.951 . S
C3163 C3157 1.265 . S
C3163 H3158 0.950 . S
C3163 C3164 1.478 . S
C3164 C3163 1.478 . S
C3164 C3165 1.397 . S
C3164 C3181 1.394 . S
C3165 C3164 1.397 . S
C3165 C3166 1.438 . S
C3165 C3170 1.429 . S
C3166 C3165 1.438 . S
C3166 C3167 1.428 . S
C3166 C3179 1.394 . S
C3167 H3159 0.949 . S
C3167 C3166 1.428 . S
C3167 C3168 1.345 . S
C3168 H3160 0.950 . S
C3168 C3167 1.345 . S
C3168 C3169 1.424 . S
C3169 H3161 0.951 . S
C3169 C3168 1.424 . S
C3169 C3170 1.347 . S
C3170 H3162 0.951 . S
C3170 C3165 1.429 . S
C3170 C3169 1.347 . S
H3171 C3172 0.951 . S
C3172 H3171 0.951 . S
C3172 C3178 1.265 . S
H3173 C3178 0.950 . S
H3174 C3182 0.949 . S
H3175 C3183 0.950 . S
H3176 C3184 0.951 . S
H3177 C3185 0.951 . S
C3178 C3172 1.265 . S
C3178 H3173 0.950 . S
C3178 C3179 1.478 . S
C3179 C3166 1.394 . S
C3179 C3178 1.478 . S
C3179 C3180 1.397 . S
C3180 C3179 1.397 . S
C3180 C3181 1.438 . S
C3180 C3185 1.429 . S
C3181 C3164 1.394 . S
C3181 C3180 1.438 . S
C3181 C3182 1.428 . S
C3182 H3174 0.949 . S
C3182 C3181 1.428 . S
C3182 C3183 1.345 . S
C3183 H3175 0.950 . S
C3183 C3182 1.345 . S
C3183 C3184 1.424 . S
C3184 H3176 0.951 . S
C3184 C3183 1.424 . S
C3184 C3185 1.347 . S
C3185 H3177 0.951 . S
C3185 C3180 1.429 . S
C3185 C3184 1.347 . S
H3186 C3187 0.951 . S
C3187 H3186 0.951 . S
C3187 C3193 1.265 . S
H3188 C3193 0.950 . S
H3189 C3197 0.949 . S
H3190 C3198 0.950 . S
H3191 C3199 0.951 . S
H3192 C3200 0.951 . S
C3193 C3187 1.265 . S
C3193 H3188 0.950 . S
C3193 C3194 1.478 . S
C3194 C3193 1.478 . S
C3194 C3195 1.397 . S
C3194 C3211 1.394 1_655 S
C3195 C3194 1.397 . S
C3195 C3196 1.438 . S
C3195 C3200 1.429 . S
C3196 C3195 1.438 . S
C3196 C3197 1.428 . S
C3196 C3209 1.394 . S
C3197 H3189 0.949 . S
C3197 C3196 1.428 . S
C3197 C3198 1.345 . S
C3198 H3190 0.950 . S
C3198 C3197 1.345 . S
C3198 C3199 1.424 . S
C3199 H3191 0.951 . S
C3199 C3198 1.424 . S
C3199 C3200 1.347 . S
C3200 H3192 0.951 . S
C3200 C3195 1.429 . S
C3200 C3199 1.347 . S
H3201 C3202 0.951 . S
C3202 H3201 0.951 . S
C3202 C3208 1.265 . S
H3203 C3208 0.950 1_455 S
H3204 C3212 0.949 . S
H3205 C3213 0.950 . S
H3206 C3214 0.951 . S
H3207 C3215 0.951 . S
C3208 C3202 1.265 . S
C3208 H3203 0.950 1_655 S
C3208 C3209 1.478 . S
C3209 C3196 1.394 . S
C3209 C3208 1.478 . S
C3209 C3210 1.397 1_655 S
C3210 C3209 1.397 1_455 S
C3210 C3211 1.438 . S
C3210 C3215 1.429 . S
C3211 C3194 1.394 1_455 S
C3211 C3210 1.438 . S
C3211 C3212 1.428 . S
C3212 H3204 0.949 . S
C3212 C3211 1.428 . S
C3212 C3213 1.345 . S
C3213 H3205 0.950 . S
C3213 C3212 1.345 . S
C3213 C3214 1.424 . S
C3214 H3206 0.951 . S
C3214 C3213 1.424 . S
C3214 C3215 1.347 . S
C3215 H3207 0.951 . S
C3215 C3210 1.429 . S
C3215 C3214 1.347 . S
H3216 C3217 0.951 . S
C3217 H3216 0.951 . S
C3217 C3223 1.265 . S
H3218 C3223 0.950 . S
H3219 C3227 0.949 . S
H3220 C3228 0.950 . S
H3221 C3229 0.951 . S
H3222 C3230 0.951 . S
C3223 C3217 1.265 . S
C3223 H3218 0.950 . S
C3223 C3224 1.478 . S
C3224 C3223 1.478 . S
C3224 C3225 1.397 . S
C3224 C3241 1.394 . S
C3225 C3224 1.397 . S
C3225 C3226 1.438 . S
C3225 C3230 1.429 . S
C3226 C3225 1.438 . S
C3226 C3227 1.428 . S
C3226 C3239 1.394 . S
C3227 H3219 0.949 . S
C3227 C3226 1.428 . S
C3227 C3228 1.345 . S
C3228 H3220 0.950 . S
C3228 C3227 1.345 . S
C3228 C3229 1.424 . S
C3229 H3221 0.951 . S
C3229 C3228 1.424 . S
C3229 C3230 1.347 . S
C3230 H3222 0.951 . S
C3230 C3225 1.429 . S
C3230 C3229 1.347 . S
H3231 C3232 0.951 . S
C3232 H3231 0.951 . S
C3232 C3238 1.265 . S
H3233 C3238 0.950 . S
H3234 C3242 0.949 . S
H3235 C3243 0.950 . S
H3236 C3244 0.951 . S
H3237 C3245 0.951 . S
C3238 C3232 1.265 . S
C3238 H3233 0.950 . S
C3238 C3239 1.478 . S
C3239 C3226 1.394 . S
C3239 C3238 1.478 . S
C3239 C3240 1.397 . S
C3240 C3239 1.397 . S
C3240 C3241 1.438 . S
C3240 C3245 1.429 . S
C3241 C3224 1.394 . S
C3241 C3240 1.438 . S
C3241 C3242 1.428 . S
C3242 H3234 0.949 . S
C3242 C3241 1.428 . S
C3242 C3243 1.345 . S
C3243 H3235 0.950 . S
C3243 C3242 1.345 . S
C3243 C3244 1.424 . S
C3244 H3236 0.951 . S
C3244 C3243 1.424 . S
C3244 C3245 1.347 . S
C3245 H3237 0.951 . S
C3245 C3240 1.429 . S
C3245 C3244 1.347 . S
H3246 C3247 0.951 . S
C3247 H3246 0.951 . S
C3247 C3253 1.265 . S
H3248 C3253 0.950 . S
H3249 C3257 0.949 . S
H3250 C3258 0.950 . S
H3251 C3259 0.951 . S
H3252 C3260 0.951 . S
C3253 C3247 1.265 . S
C3253 H3248 0.950 . S
C3253 C3254 1.478 . S
C3254 C3253 1.478 . S
C3254 C3255 1.397 . S
C3254 C3271 1.394 1_545 S
C3255 C3254 1.397 . S
C3255 C3256 1.438 . S
C3255 C3260 1.429 . S
C3256 C3255 1.438 . S
C3256 C3257 1.428 . S
C3256 C3269 1.394 . S
C3257 H3249 0.949 . S
C3257 C3256 1.428 . S
C3257 C3258 1.345 . S
C3258 H3250 0.950 . S
C3258 C3257 1.345 . S
C3258 C3259 1.424 . S
C3259 H3251 0.951 . S
C3259 C3258 1.424 . S
C3259 C3260 1.347 . S
C3260 H3252 0.951 . S
C3260 C3255 1.429 . S
C3260 C3259 1.347 . S
H3261 C3262 0.951 . S
C3262 H3261 0.951 . S
C3262 C3268 1.265 . S
H3263 C3268 0.950 . S
H3264 C3272 0.949 . S
H3265 C3273 0.950 . S
H3266 C3274 0.951 . S
H3267 C3275 0.951 . S
C3268 C3262 1.265 . S
C3268 H3263 0.950 . S
C3268 C3269 1.478 . S
C3269 C3256 1.394 . S
C3269 C3268 1.478 . S
C3269 C3270 1.397 1_545 S
C3270 C3269 1.397 1_565 S
C3270 C3271 1.438 . S
C3270 C3275 1.429 . S
C3271 C3254 1.394 1_565 S
C3271 C3270 1.438 . S
C3271 C3272 1.428 . S
C3272 H3264 0.949 . S
C3272 C3271 1.428 . S
C3272 C3273 1.345 . S
C3273 H3265 0.950 . S
C3273 C3272 1.345 . S
C3273 C3274 1.424 . S
C3274 H3266 0.951 . S
C3274 C3273 1.424 . S
C3274 C3275 1.347 . S
C3275 H3267 0.951 . S
C3275 C3270 1.429 . S
C3275 C3274 1.347 . S
C1117 C4 1.463 . S
C1132 C729 1.473 . S
C1147 C26 1.550 . S
C1162 C777 1.537 . S
C1192 C825 1.454 . S
C1177 C32 1.358 . S
C1207 C40 1.427 . S
C1222 C849 1.438 . S
C1237 C12 1.484 . S
C1252 C921 1.498 . S
C1267 C18 1.514 . S
C1282 C969 1.502 . S
C1297 C46 1.449 . S
C1312 C897 1.474 . S
C1342 C945 1.551 . S
C1327 C68 1.521 . S
C1372 C873 1.505 . S
C1357 C74 1.364 . S
C1387 C82 1.412 . S
C1402 C801 1.429 . S
C1432 C705 1.502 . S
C1417 C54 1.507 . S
C1447 C60 1.426 . S
C1462 C753 1.522 . S
C1477 C88 1.614 . S
C1492 C1017 1.626 . S
C1507 C110 1.594 . S
C1522 C1065 1.612 . S
C1552 C1089 1.588 . S
C1537 C116 1.503 . S
C1567 C124 1.491 . S
C1582 C273 1.466 . S
C1597 C96 1.525 . S
C1612 C345 1.547 . S
C1627 C102 1.528 . S
C1642 C393 1.553 . S
C1657 C130 1.559 . S
C1672 C321 1.560 . S
C1687 C152 1.611 . S
C1702 C369 1.583 . S
C1732 C297 1.530 . S
C1717 C158 1.512 . S
C1762 C1113 1.536 . S
C1747 C166 1.524 . S
C1792 C993 1.519 . S
C1777 C138 1.533 . S
C1822 C1041 1.585 . S
C1807 C144 1.503 . S
C1837 C172 1.553 . S
C1852 C441 1.566 . S
C1867 C194 1.581 . S
C1882 C489 1.605 . S
C1897 C200 1.585 . S
C1912 C513 1.572 . S
C1927 C208 1.520 . S
C1942 C561 1.531 . S
C1972 C633 1.528 . S
C1957 C180 1.547 . S
C2002 C681 1.561 . S
C1987 C186 1.543 . S
C2032 C609 1.648 . S
C2017 C214 1.620 . S
C2062 C657 1.616 . S
C2047 C236 1.601 . S
C2077 C242 1.566 . S
C2092 C585 1.554 . S
C2122 C537 1.464 . S
C2107 C250 1.453 . S
C2137 C222 1.544 . S
C2152 C417 1.546 . S
C2182 C465 1.575 . S
C2167 C228 1.501 . S
C2212 C282 1.500 . S
C2197 C5 1.357 . S
C2227 C25 1.390 . S
C2242 C336 1.400 . S
C2272 C384 1.508 . S
C2257 C33 1.383 . S
C2302 C432 1.326 . S
C2287 C39 1.382 . S
C2332 C480 1.405 . S
C2317 C11 1.432 . S
C2362 C522 1.401 . S
C2347 C19 1.131 . S
C2377 C47 1.227 1_556 S
C2392 C528 1.477 . S
C2407 C67 1.397 . S
C2422 C426 1.390 . S
C2437 C75 1.194 1_556 S
C2452 C474 1.425 . S
C2467 C81 1.377 . S
C2482 C330 1.403 . S
C2512 C378 1.352 . S
C2497 C53 1.445 . S
C2527 C61 1.178 . S
C2542 C288 1.368 . S
C2572 C570 1.431 . S
C2557 C89 1.110 . S
C2587 C109 1.499 . S
C2602 C624 1.418 . S
C2617 C117 1.357 . S
C2632 C672 1.508 . S
C2662 C720 1.252 . S
C2647 C123 1.181 . S
C2677 C95 1.384 . S
C2692 C768 1.365 . S
C2707 C103 0.982 . S
C2722 C816 1.229 . S
C2737 C131 1.142 . S
C2752 C810 1.231 . S
C2767 C151 1.259 . S
C2782 C714 1.224 . S
C2812 C762 1.362 . S
C2797 C159 1.095 . S
C2827 C165 1.370 . S
C2842 C618 1.358 . S
C2857 C137 1.479 . S
C2872 C666 1.392 . S
C2902 C576 1.439 . S
C2887 C145 1.181 . S
C2932 C858 1.266 . S
C2917 C173 0.985 . S
C2947 C193 1.197 . S
C2962 C912 1.243 . S
C2977 C201 1.289 . S
C2992 C960 1.422 . S
C3022 C1008 1.335 . S
C3007 C207 1.349 . S
C3052 C1056 1.424 . S
C3037 C179 1.495 . S
C3067 C187 1.310 . S
C3082 C1098 1.489 . S
C3097 C215 1.182 . S
C3112 C1104 1.452 . S
C3127 C235 1.465 . S
C3142 C1002 1.484 . S
C3172 C1050 1.404 . S
C3157 C243 1.189 . S
C3202 C906 1.185 . S
C3187 C249 1.217 . S
C3232 C954 1.379 . S
C3217 C221 1.371 . S
C3247 C229 0.994 . S
C3262 C864 1.242 . S
