# Generated by pormake.
# Topology pth, (4,4)-cn, num edge types: 1
# Building blocks:
#     Node 0, Type 0, BuildingBlock: UXUYUI_clean_sbu_0, # of connection points: 4
#     Node 1, Type 0, BuildingBlock: UXUYUI_clean_sbu_0, # of connection points: 4
#     Node 2, Type 0, BuildingBlock: UXUYUI_clean_sbu_0, # of connection points: 4
#     Node 3, Type 1, BuildingBlock: MUDLON_clean_linker_0, # of connection points: 4
#     Node 4, Type 1, BuildingBlock: MUDLON_clean_linker_0, # of connection points: 4
#     Node 5, Type 1, BuildingBlock: MUDLON_clean_linker_0, # of connection points: 4
#     Edge 6, Type (0, 1), BuildingBlock: CIFDUS_clean_linker_0, # of connection points: 2
#     Edge 7, Type (0, 1), BuildingBlock: CIFDUS_clean_linker_0, # of connection points: 2
#     Edge 8, Type (0, 1), BuildingBlock: CIFDUS_clean_linker_0, # of connection points: 2
#     Edge 9, Type (0, 1), BuildingBlock: CIFDUS_clean_linker_0, # of connection points: 2
#     Edge 10, Type (0, 1), BuildingBlock: CIFDUS_clean_linker_0, # of connection points: 2
#     Edge 11, Type (0, 1), BuildingBlock: CIFDUS_clean_linker_0, # of connection points: 2
#     Edge 12, Type (0, 1), BuildingBlock: CIFDUS_clean_linker_0, # of connection points: 2
#     Edge 13, Type (0, 1), BuildingBlock: CIFDUS_clean_linker_0, # of connection points: 2
#     Edge 14, Type (0, 1), BuildingBlock: CIFDUS_clean_linker_0, # of connection points: 2
#     Edge 15, Type (0, 1), BuildingBlock: CIFDUS_clean_linker_0, # of connection points: 2
#     Edge 16, Type (0, 1), BuildingBlock: CIFDUS_clean_linker_0, # of connection points: 2
#     Edge 17, Type (0, 1), BuildingBlock: CIFDUS_clean_linker_0, # of connection points: 2
# Relax obj value: 0.088
# Max RMSD: 0.213
# Mean RMSD: 0.143
data_MOF--net-pth--node1-UXUYUI_clean_sbu_0--node2-MUDLON_clean_linker_0--edge1-CIFDUS_clean_linker_0
_symmetry_space_group_name_H-M    P1
_symmetry_Int_Tables_number       1
_symmetry_cell_setting            triclinic
loop_
_symmetry_equiv_pos_as_xyz
'x, y, z'
_cell_length_a     36.349439
_cell_length_b     36.365854
_cell_length_c     73.233268
_cell_angle_alpha  89.988862
_cell_angle_beta   90.019935
_cell_angle_gamma 120.02422
loop_
_atom_site_label
_atom_site_type_symbol
_atom_site_fract_x
_atom_site_fract_y
_atom_site_fract_z
_atom_type_partial_charge
Li0 Li 0.04106 0.03109 0.03123 0.0
Li1 Li 0.99099 0.02563 0.05473 0.0
Li2 Li 0.01611 0.97316 0.05282 0.0
Li3 Li 0.96525 0.97089 0.03043 0.0
C4 C 0.09009 0.06637 0.06075 0.0
N5 N 0.17296 0.13104 0.06543 0.0
C6 C 0.0985 0.10485 0.06859 0.0
C7 C 0.1238 0.06058 0.0555 0.0
C8 C 0.14062 0.13721 0.07079 0.0
C9 C 0.16548 0.09371 0.05791 0.0
C10 C 0.96703 0.05301 0.02186 0.0
C11 C 0.9022 0.05181 0.01354 0.0
N12 N 0.92517 0.09344 0.00871 0.0
C13 C 0.99002 0.0956 0.01653 0.0
C14 C 0.92279 0.03075 0.02011 0.0
C15 C 0.96827 0.11555 0.01003 0.0
C16 C 0.09515 0.05694 0.00059 0.0
N17 N 0.08542 0.07094 0.01605 0.0
C18 C 0.13103 0.14321 0.00728 0.0
C19 C 0.10298 0.11309 0.01967 0.0
C20 C 0.14033 0.12973 0.99085 0.0
C21 C 0.1227 0.08598 0.9877 0.0
H22 H 0.08008 0.02322 0.99791 0.0
H23 H 0.09358 0.12337 0.03174 0.0
C24 C 0.96668 0.04317 0.0884 0.0
N25 N 0.97938 0.05872 0.07127 0.0
C26 C 0.96456 0.06884 0.10204 0.0
C27 C 0.98755 0.1257 0.08002 0.0
C28 C 0.98926 0.09892 0.06681 0.0
C29 C 0.97608 0.11104 0.09802 0.0
H30 H 0.95993 0.01138 0.09166 0.0
H31 H 0.00085 0.11107 0.05332 0.0
C32 C 0.02895 0.93925 0.02292 0.0
N33 N 0.04905 0.87615 0.01752 0.0
C34 C 0.99678 0.89743 0.01975 0.0
C35 C 0.07135 0.94908 0.02311 0.0
C36 C 0.00759 0.86596 0.01711 0.0
C37 C 0.08086 0.9167 0.02042 0.0
C38 C 0.91615 0.943 0.0631 0.0
C39 C 0.89736 0.90255 0.07094 0.0
C40 C 0.89267 0.96371 0.06147 0.0
C41 C 0.85513 0.88321 0.07674 0.0
C42 C 0.85054 0.94334 0.06745 0.0
N43 N 0.83277 0.90382 0.07487 0.0
C44 C 0.06175 0.95277 0.07881 0.0
C45 C 4e-05 0.89473 0.06608 0.0
C46 C 0.06668 0.92556 0.09076 0.0
N47 N 0.0285 0.93698 0.06697 0.0
C48 C 0.00378 0.86644 0.0777 0.0
C49 C 0.03697 0.88182 0.09052 0.0
H50 H 0.08352 0.9866 0.07945 0.0
H51 H 0.97338 0.8832 0.05682 0.0
C52 C 0.93464 0.94085 0.99613 0.0
N53 N 0.92191 0.93472 0.01385 0.0
C54 C 0.90871 0.91267 0.98267 0.0
C55 C 0.85601 0.87336 0.0058 0.0
C56 C 0.88317 0.90219 0.01887 0.0
C57 C 0.8692 0.87788 0.98751 0.0
H58 H 0.96579 0.9668 0.99259 0.0
H59 H 0.87384 0.89745 0.03303 0.0
O60 O 0.04906 0.03447 0.05833 0.0
O61 O 0.98792 0.03283 0.02799 0.0
O62 O 0.019 0.97044 0.02568 0.0
O63 O 0.95751 0.96234 0.05738 0.0
H64 H 0.0728 0.10976 0.07286 0.0
H65 H 0.11781 0.03087 0.04957 0.0
H66 H 0.14761 0.16724 0.07675 0.0
H67 H 0.19187 0.08975 0.05381 0.0
H68 H 0.86797 0.03499 0.01221 0.0
H69 H 0.02428 0.11319 0.01753 0.0
H70 H 0.90449 0.99748 0.02364 0.0
H71 H 0.98566 0.1486 0.00602 0.0
H72 H 0.14335 0.17662 0.01004 0.0
H73 H 0.12917 0.0744 0.97518 0.0
H74 H 0.95532 0.05622 0.11572 0.0
H75 H 0.99749 0.15825 0.07642 0.0
H76 H 0.96379 0.88923 0.01955 0.0
H77 H 0.09665 0.98137 0.02527 0.0
H78 H 0.983 0.83341 0.01478 0.0
H79 H 0.11353 0.92382 0.02061 0.0
H80 H 0.91512 0.88618 0.07249 0.0
H81 H 0.90689 0.99533 0.05583 0.0
H82 H 0.84013 0.85183 0.08275 0.0
H83 H 0.83202 0.95901 0.06623 0.0
H84 H 0.09282 0.93871 0.10039 0.0
H85 H 0.97965 0.83316 0.07726 0.0
H86 H 0.91984 0.91749 0.96868 0.0
H87 H 0.82594 0.84672 0.0101 0.0
Li88 Li 0.98234 0.94979 0.35984 0.0
Li89 Li 0.03205 0.99824 0.38415 0.0
Li90 Li 0.95653 0.97585 0.38435 0.0
Li91 Li 0.00174 0.02592 0.36185 0.0
C92 C 0.95676 0.90972 0.39832 0.0
N93 N 0.90085 0.85115 0.42306 0.0
C94 C 0.96714 0.91377 0.41686 0.0
C95 C 0.91816 0.87581 0.39231 0.0
C96 C 0.93838 0.88384 0.42917 0.0
C97 C 0.89026 0.84654 0.40505 0.0
C98 C 0.07982 0.02175 0.35075 0.0
C99 C 0.14684 0.08548 0.34521 0.0
N100 N 0.1625 0.06161 0.33804 0.0
C101 C 0.09642 0.9979 0.34309 0.0
C102 C 0.10508 0.06594 0.35163 0.0
C103 C 0.13835 0.01861 0.33684 0.0
C104 C 0.9452 0.89167 0.33031 0.0
N105 N 0.9733 0.90451 0.34438 0.0
C106 C 0.99587 0.85559 0.33578 0.0
C107 C 0.99784 0.88672 0.34751 0.0
C108 C 0.96794 0.84237 0.32083 0.0
C109 C 0.94178 0.86018 0.31832 0.0
H110 H 0.92619 0.90652 0.32816 0.0
H111 H 0.01975 0.89757 0.3589 0.0
C112 C 0.08131 0.02551 0.41591 0.0
N113 N 0.0793 0.00929 0.39899 0.0
C114 C 0.11459 0.03327 0.42768 0.0
C115 C 0.14271 0.0066 0.40456 0.0
C116 C 0.1088 0.99934 0.39322 0.0
C117 C 0.14593 0.02386 0.42205 0.0
H118 H 0.05672 0.03196 0.42033 0.0
H119 H 0.10578 0.98528 0.37993 0.0
C120 C 0.91562 0.98748 0.35392 0.0
N121 N 0.85859 0.01458 0.34608 0.0
C122 C 0.91366 0.01777 0.36497 0.0
C123 C 0.88857 0.971 0.33885 0.0
C124 C 0.88464 0.03106 0.3608 0.0
C125 C 0.85995 0.98509 0.33512 0.0
C126 C 0.02367 0.07309 0.39539 0.0
C127 C 0.99885 0.08748 0.40398 0.0
C128 C 0.06755 0.10013 0.39397 0.0
C129 C 0.01825 0.12906 0.41059 0.0
C130 C 0.08577 0.14148 0.40077 0.0
N131 N 0.06095 0.155 0.40884 0.0
C132 C 0.92288 0.97635 0.41825 0.0
C133 C 0.86961 0.9414 0.39571 0.0
C134 C 0.89244 0.97113 0.43112 0.0
N135 N 0.91111 0.96208 0.4009 0.0
C136 C 0.83808 0.93621 0.40808 0.0
C137 C 0.84955 0.9516 0.42598 0.0
H138 H 0.95616 0.99269 0.42195 0.0
H139 H 0.8611 0.92999 0.38185 0.0
C140 C 0.02631 0.07455 0.32984 0.0
N141 N 0.0126 0.07372 0.34719 0.0
C142 C 0.03379 0.10783 0.31811 0.0
C143 C 0.01219 0.13848 0.34217 0.0
C144 C 0.00542 0.10476 0.35348 0.0
C145 C 0.02653 0.14027 0.32421 0.0
H146 H 0.03108 0.04909 0.32509 0.0
H147 H 0.99375 0.10313 0.36716 0.0
O148 O 0.98387 0.93933 0.38614 0.0
O149 O 0.03874 0.00189 0.35689 0.0
O150 O 0.94402 0.97417 0.35766 0.0
O151 O 0.00508 0.03237 0.38889 0.0
H152 H 0.99688 0.94 0.4217 0.0
H153 H 0.90969 0.87244 0.37799 0.0
H154 H 0.94584 0.88666 0.44358 0.0
H155 H 0.86014 0.82025 0.40063 0.0
H156 H 0.16673 0.11966 0.34586 0.0
H157 H 0.07724 0.96374 0.34209 0.0
H158 H 0.09248 0.08507 0.35697 0.0
H159 H 0.15168 0.0005 0.33101 0.0
H160 H 0.01625 0.8423 0.33824 0.0
H161 H 0.92009 0.85098 0.30687 0.0
H162 H 0.11525 0.04568 0.44119 0.0
H163 H 0.16617 0.99892 0.39967 0.0
H164 H 0.93424 0.0308 0.37667 0.0
H165 H 0.88968 0.9476 0.33011 0.0
H166 H 0.88283 0.05448 0.36926 0.0
H167 H 0.83883 0.97259 0.3235 0.0
H168 H 0.9649 0.06684 0.40545 0.0
H169 H 0.08745 0.08917 0.38796 0.0
H170 H 0.99938 0.14069 0.41713 0.0
H171 H 0.1197 0.16275 0.39972 0.0
H172 H 0.90252 0.98378 0.44475 0.0
H173 H 0.80523 0.92082 0.4037 0.0
H174 H 0.04417 0.10763 0.30426 0.0
H175 H 0.00634 0.16292 0.34743 0.0
Li176 Li 0.03299 0.99055 0.69826 0.0
Li177 Li 0.02501 0.03121 0.72125 0.0
Li178 Li 0.9733 0.9564 0.71939 0.0
Li179 Li 0.97324 0.00745 0.69666 0.0
C180 C 0.05594 0.96023 0.72535 0.0
N181 N 0.09935 0.91581 0.72445 0.0
C182 C 0.09516 0.97631 0.73419 0.0
C183 C 0.03892 0.92153 0.71608 0.0
C184 C 0.11658 0.95339 0.73357 0.0
C185 C 0.06128 0.89955 0.71577 0.0
C186 C 0.06144 0.0883 0.69383 0.0
C187 C 0.07312 0.15812 0.68678 0.0
N188 N 0.11458 0.17518 0.69171 0.0
C189 C 0.10423 0.10647 0.69868 0.0
C190 C 0.04575 0.11424 0.68773 0.0
C191 C 0.13055 0.15049 0.69758 0.0
C192 C 0.06455 0.96844 0.66688 0.0
N193 N 0.0746 0.98751 0.68353 0.0
C194 C 0.14826 0.01218 0.67861 0.0
C195 C 0.11542 0.00889 0.68954 0.0
C196 C 0.13932 0.99433 0.66103 0.0
C197 C 0.09663 0.97146 0.65533 0.0
H198 H 0.03188 0.95233 0.66231 0.0
H199 H 0.12271 0.02451 0.70266 0.0
C200 C 0.07882 0.07153 0.75099 0.0
N201 N 0.05627 0.07758 0.73774 0.0
C202 C 0.10494 0.10459 0.76271 0.0
C203 C 0.08237 0.1491 0.74765 0.0
C204 C 0.05674 0.11509 0.73616 0.0
C205 C 0.10741 0.14426 0.76101 0.0
H206 H 0.07672 0.04104 0.75238 0.0
H207 H 0.03751 0.11878 0.72588 0.0
C208 C 0.93747 0.91463 0.68722 0.0
N209 N 0.86725 0.83817 0.67763 0.0
C210 C 0.89685 0.90979 0.68791 0.0
C211 C 0.94242 0.88073 0.68143 0.0
C212 C 0.86174 0.87085 0.68307 0.0
C213 C 0.90652 0.84229 0.6767 0.0
C214 C 0.95846 0.01898 0.73981 0.0
C215 C 0.96333 0.00069 0.75576 0.0
C216 C 0.95217 0.0538 0.74105 0.0
C217 C 0.96145 0.01734 0.7727 0.0
C218 C 0.95053 0.06955 0.75825 0.0
N219 N 0.95515 0.05114 0.77358 0.0
C220 C 0.94536 0.88177 0.74187 0.0
C221 C 0.89325 0.89939 0.73324 0.0
C222 C 0.91553 0.84769 0.75232 0.0
N223 N 0.93374 0.90668 0.73253 0.0
C224 C 0.86247 0.8658 0.74354 0.0
C225 C 0.87353 0.83962 0.75339 0.0
H226 H 0.97795 0.88895 0.74175 0.0
H227 H 0.88509 0.92037 0.72612 0.0
C228 C 0.93673 0.00675 0.66286 0.0
N229 N 0.9384 0.01788 0.68068 0.0
C230 C 0.90981 0.01158 0.65072 0.0
C231 C 0.88748 0.03999 0.67545 0.0
C232 C 0.91448 0.03415 0.68715 0.0
C233 C 0.88471 0.02835 0.65701 0.0
H234 H 0.95596 0.9936 0.65815 0.0
H235 H 0.91588 0.04201 0.70143 0.0
O236 O 0.03467 0.9825 0.72541 0.0
O237 O 0.03507 0.04531 0.69482 0.0
O238 O 0.97224 0.95245 0.69201 0.0
O239 O 0.96153 0.00385 0.7231 0.0
H240 H 0.10942 0.00645 0.74121 0.0
H241 H 0.00868 0.90861 0.70921 0.0
H242 H 0.14701 0.96558 0.74027 0.0
H243 H 0.04838 0.86959 0.70862 0.0
H244 H 0.06139 0.17861 0.68215 0.0
H245 H 0.11683 0.0869 0.70353 0.0
H246 H 0.01274 0.10065 0.68385 0.0
H247 H 0.16365 0.16502 0.70145 0.0
H248 H 0.18049 0.02946 0.68376 0.0
H249 H 0.08821 0.95767 0.64181 0.0
H250 H 0.12372 0.0993 0.77273 0.0
H251 H 0.0825 0.17877 0.74611 0.0
H252 H 0.89239 0.93566 0.69234 0.0
H253 H 0.97367 0.88408 0.68052 0.0
H254 H 0.83011 0.86659 0.68367 0.0
H255 H 0.90987 0.81576 0.67225 0.0
H256 H 0.96918 0.97436 0.75509 0.0
H257 H 0.94942 0.06911 0.7289 0.0
H258 H 0.96527 0.00355 0.78514 0.0
H259 H 0.94587 0.0966 0.7594 0.0
H260 H 0.92562 0.82885 0.76002 0.0
H261 H 0.83045 0.86065 0.74394 0.0
H262 H 0.90881 0.00255 0.63656 0.0
H263 H 0.86828 0.05258 0.68086 0.0
H264 H 0.88007 0.61769 0.20722 0.0
N265 N 0.94169 0.60092 0.20009 0.0
H266 H 0.87523 0.65806 0.23285 0.0
H267 H 0.99456 0.62899 0.23022 0.0
H268 H 0.98876 0.66707 0.25616 0.0
H269 H 0.01677 0.67669 0.19945 0.0
H270 H 0.04385 0.72727 0.1742 0.0
H271 H 0.90831 0.59132 0.16701 0.0
H272 H 0.93454 0.64225 0.14178 0.0
H273 H 0.89107 0.51731 0.20069 0.0
H274 H 0.02295 0.61471 0.20329 0.0
H275 H 0.91139 0.46271 0.20279 0.0
H276 H 0.04348 0.56091 0.20644 0.0
H277 H 0.95732 0.31042 0.22185 0.0
H278 H 0.95171 0.26785 0.24853 0.0
H279 H 0.08319 0.35523 0.2616 0.0
H280 H 0.08856 0.39801 0.23472 0.0
H281 H 0.08274 0.36176 0.19272 0.0
H282 H 0.06695 0.31141 0.16766 0.0
H283 H 0.93841 0.28847 0.16541 0.0
H284 H 0.9544 0.33878 0.19052 0.0
H285 H 0.9575 0.37608 0.22423 0.0
H286 H 0.93751 0.43036 0.22255 0.0
H287 H 0.04944 0.50883 0.19016 0.0
N288 N 0.02954 0.38043 0.20944 0.0
H289 H 0.07055 0.45502 0.19287 0.0
C290 C 0.93737 0.61995 0.21667 0.0
C291 C 0.90355 0.62797 0.21801 0.0
C292 C 0.90078 0.6509 0.23273 0.0
C293 C 0.93177 0.66612 0.24658 0.0
C294 C 0.96478 0.65661 0.24559 0.0
C295 C 0.96785 0.6342 0.23074 0.0
C296 C 0.96032 0.63015 0.18507 0.0
C297 C 0.99898 0.66861 0.18682 0.0
C298 C 0.01429 0.69767 0.1724 0.0
C299 C 0.99128 0.68891 0.15599 0.0
C300 C 0.95337 0.6498 0.15412 0.0
C301 C 0.93815 0.62076 0.16853 0.0
C302 C 0.95522 0.56998 0.20193 0.0
C303 C 0.92436 0.52684 0.20194 0.0
C304 C 0.9361 0.49575 0.20328 0.0
C305 C 0.97916 0.50727 0.20485 0.0
C306 C 0.01008 0.5507 0.20495 0.0
C307 C 0.99832 0.58169 0.20332 0.0
C308 C 0.02349 0.35771 0.22635 0.0
C309 C 0.98472 0.32105 0.23063 0.0
C310 C 0.98151 0.29671 0.24593 0.0
C311 C 0.01704 0.30817 0.25712 0.0
C312 C 0.05538 0.3455 0.25314 0.0
C313 C 0.05844 0.37006 0.23791 0.0
C314 C 0.02 0.35416 0.19343 0.0
C315 C 0.05138 0.34628 0.18662 0.0
C316 C 0.04221 0.31737 0.17244 0.0
C317 C 0.00137 0.29587 0.16471 0.0
C318 C 0.97022 0.30483 0.17107 0.0
C319 C 0.97934 0.33355 0.18541 0.0
C320 C 0.01619 0.41172 0.2089 0.0
C321 C 0.97818 0.40502 0.21697 0.0
C322 C 0.9664 0.43612 0.2158 0.0
C323 C 0.99183 0.47422 0.20625 0.0
C324 C 0.02946 0.48042 0.19798 0.0
C325 C 0.0415 0.4496 0.19939 0.0
H326 H 0.73886 0.09635 0.54796 0.0
N327 N 0.66225 0.04122 0.53542 0.0
H328 H 0.77716 0.08656 0.57326 0.0
H329 H 0.62984 0.97369 0.5589 0.0
H330 H 0.66796 0.96341 0.58426 0.0
H331 H 0.64343 0.95976 0.52801 0.0
H332 H 0.66858 0.93682 0.50182 0.0
H333 H 0.702 0.08662 0.50604 0.0
H334 H 0.72687 0.06374 0.4796 0.0
H335 H 0.64051 0.08402 0.55823 0.0
H336 H 0.58753 0.98446 0.51767 0.0
H337 H 0.57195 0.08 0.56127 0.0
H338 H 0.52018 0.98259 0.51967 0.0
H339 H 0.36465 0.09187 0.55516 0.0
H340 H 0.31328 0.07405 0.5798 0.0
H341 H 0.29844 0.94859 0.58317 0.0
H342 H 0.3486 0.96634 0.55803 0.0
H343 H 0.32526 0.96557 0.52541 0.0
H344 H 0.28203 0.95596 0.49835 0.0
H345 H 0.35915 0.08987 0.48624 0.0
H346 H 0.40114 0.09925 0.51378 0.0
H347 H 0.46553 0.10412 0.54491 0.0
H348 H 0.53101 0.10112 0.54514 0.0
H349 H 0.4582 0.96549 0.53576 0.0
N350 N 0.38745 0.0414 0.53895 0.0
H351 H 0.39329 0.96977 0.5343 0.0
C352 C 0.6818 0.03582 0.55155 0.0
C353 C 0.72308 0.06758 0.55604 0.0
C354 C 0.74477 0.06195 0.5705 0.0
C355 C 0.72558 0.02415 0.58071 0.0
C356 C 0.68368 0.99267 0.5765 0.0
C357 C 0.66185 0.99852 0.56208 0.0
C358 C 0.67146 0.02522 0.51906 0.0
C359 C 0.66139 0.98261 0.51748 0.0
C360 C 0.67569 0.96949 0.50249 0.0
C361 C 0.69988 0.99856 0.48875 0.0
C362 C 0.70797 0.04055 0.48991 0.0
C363 C 0.69397 0.05372 0.50498 0.0
C364 C 0.61986 0.03483 0.53777 0.0
C365 C 0.61413 0.06118 0.55003 0.0
C366 C 0.57492 0.05919 0.55157 0.0
C367 C 0.54044 0.03147 0.54049 0.0
C368 C 0.54572 0.00407 0.52858 0.0
C369 C 0.5848 0.00544 0.52732 0.0
C370 C 0.36083 0.0308 0.55486 0.0
C371 C 0.3507 0.06077 0.56143 0.0
C372 C 0.32144 0.05049 0.57556 0.0
C373 C 0.30174 0.00985 0.58356 0.0
C374 C 0.31263 0.98001 0.5772 0.0
C375 C 0.34176 0.9903 0.56292 0.0
C376 C 0.36606 0.03335 0.52166 0.0
C377 C 0.33321 0.99268 0.51678 0.0
C378 C 0.30865 0.98723 0.50123 0.0
C379 C 0.31675 0.02229 0.49025 0.0
C380 C 0.35147 0.06238 0.4946 0.0
C381 C 0.37573 0.06779 0.5102 0.0
C382 C 0.42471 0.03728 0.53985 0.0
C383 C 0.46389 0.0738 0.543 0.0
C384 C 0.50122 0.07182 0.54329 0.0
C385 C 0.50013 0.03291 0.54068 0.0
C386 C 0.46049 0.99609 0.53766 0.0
C387 C 0.42314 0.99832 0.53707 0.0
H388 H 0.63431 0.68309 0.88441 0.0
N389 N 0.64326 0.6148 0.87554 0.0
H390 H 0.67053 0.73361 0.90921 0.0
H391 H 0.69213 0.61014 0.90137 0.0
H392 H 0.72856 0.66065 0.92629 0.0
H393 H 0.71455 0.6253 0.86074 0.0
H394 H 0.75383 0.67081 0.83501 0.0
H395 H 0.61558 0.65618 0.85303 0.0
H396 H 0.65382 0.70069 0.82685 0.0
H397 H 0.58083 0.60787 0.89979 0.0
H398 H 0.60096 0.55387 0.85075 0.0
H399 H 0.50611 0.55659 0.89867 0.0
H400 H 0.52505 0.50272 0.84947 0.0
H401 H 0.25922 0.37767 0.89396 0.0
H402 H 0.22874 0.33107 0.92055 0.0
H403 H 0.34435 0.32653 0.92693 0.0
H404 H 0.37431 0.37185 0.90017 0.0
H405 H 0.33158 0.32485 0.87063 0.0
H406 H 0.28831 0.27163 0.84795 0.0
H407 H 0.24305 0.35365 0.82793 0.0
H408 H 0.28726 0.40739 0.85062 0.0
H409 H 0.36657 0.48168 0.88377 0.0
H410 H 0.4417 0.5364 0.8821 0.0
H411 H 0.47292 0.44112 0.86563 0.0
N412 N 0.3321 0.3992 0.87741 0.0
H413 H 0.39813 0.38727 0.86683 0.0
C414 C 0.66051 0.64269 0.89111 0.0
C415 C 0.6545 0.67775 0.89358 0.0
C416 C 0.67497 0.70643 0.90782 0.0
C417 C 0.70239 0.70105 0.91962 0.0
C418 C 0.70779 0.66566 0.91731 0.0
C419 C 0.68689 0.63672 0.90321 0.0
C420 C 0.66228 0.63728 0.85879 0.0
C421 C 0.7009 0.64119 0.85318 0.0
C422 C 0.72316 0.66708 0.83841 0.0
C423 C 0.70708 0.68958 0.82885 0.0
C424 C 0.66746 0.68436 0.83407 0.0
C425 C 0.64536 0.65866 0.84895 0.0
C426 C 0.59748 0.5863 0.8749 0.0
C427 C 0.56963 0.58603 0.88843 0.0
C428 C 0.52626 0.55632 0.88784 0.0
C429 C 0.50937 0.52574 0.87389 0.0
C430 C 0.53697 0.52569 0.86047 0.0
C431 C 0.5804 0.55529 0.86109 0.0
C432 C 0.31903 0.37863 0.89501 0.0
C433 C 0.27834 0.36743 0.90135 0.0
C434 C 0.26094 0.34072 0.91642 0.0
C435 C 0.28429 0.3253 0.92565 0.0
C436 C 0.32595 0.33835 0.92006 0.0
C437 C 0.34309 0.36443 0.90473 0.0
C438 C 0.31267 0.37031 0.86231 0.0
C439 C 0.31328 0.33198 0.86109 0.0
C440 C 0.28812 0.30132 0.84823 0.0
C441 C 0.26184 0.30823 0.83633 0.0
C442 C 0.26312 0.3475 0.83686 0.0
C443 C 0.2883 0.37819 0.84978 0.0
C444 C 0.37651 0.43046 0.87543 0.0
C445 C 0.3897 0.47283 0.87964 0.0
C446 C 0.43263 0.50392 0.8788 0.0
C447 C 0.46342 0.49315 0.87379 0.0
C448 C 0.45006 0.45069 0.86927 0.0
C449 C 0.40708 0.41967 0.87004 0.0
H450 H 0.95145 0.17075 0.09749 0.0
H451 H 0.01092 0.11856 0.13166 0.0
H452 H 0.02275 0.17029 0.15539 0.0
H453 H 0.01889 0.23202 0.16601 0.0
H454 H 0.96014 0.28525 0.13217 0.0
H455 H 0.94534 0.23151 0.10871 0.0
C456 C 0.96693 0.17072 0.11015 0.0
C457 C 0.98017 0.14076 0.11281 0.0
C458 C 0.97397 0.20085 0.12374 0.0
C459 C 0.99981 0.14081 0.12936 0.0
C460 C 0.00693 0.17062 0.14289 0.0
C461 C 0.00302 0.23194 0.15345 0.0
C462 C 0.99104 0.26274 0.15069 0.0
C463 C 0.99458 0.20103 0.14014 0.0
C464 C 0.96964 0.26178 0.13456 0.0
C465 C 0.9613 0.23118 0.12115 0.0
H466 H 0.79294 0.9781 0.42015 0.0
H467 H 0.83623 0.92322 0.46109 0.0
H468 H 0.79027 0.92933 0.48383 0.0
H469 H 0.74295 0.9562 0.49262 0.0
H470 H 0.70238 0.01458 0.45214 0.0
H471 H 0.74198 0.00111 0.42859 0.0
C472 C 0.79157 0.96672 0.43397 0.0
C473 C 0.81778 0.95021 0.439 0.0
C474 C 0.76594 0.97138 0.44704 0.0
C475 C 0.81638 0.93619 0.45699 0.0
C476 C 0.79019 0.93973 0.46996 0.0
C477 C 0.74208 0.96517 0.47856 0.0
C478 C 0.7198 0.98631 0.47409 0.0
C479 C 0.76557 0.95813 0.46524 0.0
C480 C 0.71957 0.99851 0.4559 0.0
C481 C 0.74214 0.99078 0.44246 0.0
H482 H 0.81747 0.84415 0.77644 0.0
H483 H 0.85941 0.75878 0.75757 0.0
H484 H 0.80999 0.70396 0.77857 0.0
H485 H 0.75628 0.6811 0.80285 0.0
H486 H 0.71663 0.76794 0.82237 0.0
H487 H 0.76262 0.82073 0.80008 0.0
C488 C 0.81535 0.81332 0.77672 0.0
C489 C 0.84208 0.80556 0.76545 0.0
C490 C 0.78708 0.78211 0.78886 0.0
C491 C 0.83949 0.7657 0.76623 0.0
C492 C 0.81112 0.7343 0.77818 0.0
C493 C 0.75777 0.71161 0.80228 0.0
C494 C 0.73291 0.72038 0.81432 0.0
C495 C 0.78508 0.74232 0.78969 0.0
C496 C 0.73479 0.75991 0.81313 0.0
C497 C 0.76144 0.79036 0.80049 0.0
H498 H 0.02201 0.80113 0.08574 0.0
H499 H 0.05314 0.89712 0.12696 0.0
H500 H 0.0455 0.84677 0.15071 0.0
H501 H 0.02271 0.77377 0.16003 0.0
H502 H 0.99007 0.67707 0.119 0.0
H503 H 0.00478 0.72924 0.09495 0.0
C504 C 0.02735 0.81107 0.09992 0.0
C505 C 0.03789 0.85278 0.10455 0.0
C506 C 0.02204 0.78169 0.11357 0.0
C507 C 0.04542 0.86538 0.12296 0.0
C508 C 0.04066 0.83647 0.13659 0.0
C509 C 0.0197 0.76424 0.14582 0.0
C510 C 0.00498 0.72146 0.14134 0.0
C511 C 0.02803 0.79432 0.13208 0.0
C512 C 0.00068 0.70963 0.12284 0.0
C513 C 0.00924 0.73947 0.10908 0.0
H514 H 0.17939 0.9724 0.42794 0.0
H515 H 0.19153 0.092 0.44437 0.0
H516 H 0.24629 0.10249 0.4664 0.0
H517 H 0.28818 0.07635 0.48193 0.0
H518 H 0.27782 0.95769 0.46526 0.0
H519 H 0.22487 0.94825 0.44231 0.0
C520 C 0.19447 0.00107 0.43614 0.0
C521 C 0.18113 0.03122 0.43458 0.0
C522 C 0.22606 0.00697 0.44878 0.0
C523 C 0.20065 0.06793 0.4455 0.0
C524 C 0.23213 0.07408 0.45804 0.0
C525 C 0.27505 0.0488 0.47304 0.0
C526 C 0.28707 0.01782 0.47531 0.0
C527 C 0.24474 0.04361 0.45992 0.0
C528 C 0.26886 0.98184 0.46394 0.0
C529 C 0.23869 0.97649 0.45077 0.0
H530 H 0.12334 0.14166 0.79714 0.0
H531 H 0.15713 0.22807 0.75163 0.0
H532 H 0.20718 0.28667 0.77093 0.0
H533 H 0.24333 0.3129 0.80056 0.0
H534 H 0.2105 0.22538 0.84558 0.0
H535 H 0.15907 0.16751 0.82648 0.0
C536 C 0.14189 0.17321 0.79136 0.0
C537 C 0.13649 0.18032 0.77293 0.0
C538 C 0.1712 0.20653 0.80241 0.0
C539 C 0.16018 0.2217 0.76583 0.0
C540 C 0.18911 0.2552 0.77681 0.0
C541 C 0.22476 0.28118 0.80617 0.0
C542 C 0.23103 0.27339 0.8244 0.0
C543 C 0.19511 0.24793 0.7951 0.0
C544 C 0.20689 0.23207 0.83149 0.0
C545 C 0.17723 0.19901 0.82062 0.0
H546 H 0.82947 0.97072 0.63273 0.0
H547 H 0.87465 0.09742 0.65321 0.0
H548 H 0.82797 0.10668 0.63197 0.0
H549 H 0.77592 0.07949 0.60694 0.0
H550 H 0.73082 0.95279 0.58645 0.0
H551 H 0.77548 0.9426 0.60845 0.0
C552 C 0.82917 0.0004 0.63247 0.0
C553 C 0.85564 0.03345 0.64441 0.0
C554 C 0.80216 0.00541 0.62029 0.0
C555 C 0.85441 0.07146 0.64419 0.0
C556 C 0.82785 0.07681 0.63202 0.0
C557 C 0.7759 0.04966 0.60731 0.0
C558 C 0.75021 0.01701 0.59505 0.0
C559 C 0.80182 0.04412 0.61992 0.0
C560 C 0.74999 0.97828 0.59586 0.0
C561 C 0.77576 0.97254 0.60834 0.0
H562 H 0.78385 0.84037 0.98157 0.0
H563 H 0.89685 0.84134 0.96282 0.0
H564 H 0.8551 0.78632 0.94046 0.0
H565 H 0.78668 0.73801 0.92616 0.0
H566 H 0.67345 0.73724 0.94425 0.0
H567 H 0.71496 0.79198 0.96698 0.0
C568 C 0.7992 0.82836 0.97261 0.0
C569 C 0.84337 0.84501 0.97378 0.0
C570 C 0.77498 0.79675 0.95971 0.0
C571 C 0.86299 0.82948 0.962 0.0
C572 C 0.83912 0.79783 0.94929 0.0
C573 C 0.77106 0.74956 0.93521 0.0
C574 C 0.7271 0.73347 0.93367 0.0
C575 C 0.79514 0.78123 0.94804 0.0
C576 C 0.70733 0.74929 0.9452 0.0
C577 C 0.73101 0.78048 0.95819 0.0
H578 H 0.89958 0.77199 0.30679 0.0
H579 H 0.03645 0.84485 0.30475 0.0
H580 H 0.03732 0.79637 0.28193 0.0
H581 H 0.9993 0.73514 0.26182 0.0
H582 H 0.86248 0.65981 0.26459 0.0
H583 H 0.86146 0.7079 0.28759 0.0
C584 C 0.92951 0.77714 0.3013 0.0
C585 C 0.96788 0.81188 0.30741 0.0
C586 C 0.9298 0.74895 0.28826 0.0
C587 C 0.00653 0.81808 0.30037 0.0
C588 C 0.00704 0.79051 0.28727 0.0
C589 C 0.96923 0.7286 0.26767 0.0
C590 C 0.93104 0.6938 0.2614 0.0
C591 C 0.96888 0.75595 0.28107 0.0
C592 C 0.89237 0.68666 0.26892 0.0
C593 C 0.89174 0.71402 0.28216 0.0
H594 H 0.14239 0.93978 0.63606 0.0
H595 H 0.21574 0.0673 0.65732 0.0
H596 H 0.27332 0.08179 0.6364 0.0
H597 H 0.30211 0.05969 0.61135 0.0
H598 H 0.22723 0.93443 0.58816 0.0
H599 H 0.17142 0.91765 0.61065 0.0
C600 C 0.17086 0.97081 0.63606 0.0
C601 C 0.17462 0.00221 0.6484 0.0
C602 C 0.20375 0.97941 0.62366 0.0
C603 C 0.2121 0.0421 0.6483 0.0
C604 C 0.24504 0.05064 0.63621 0.0
C605 C 0.27348 0.02878 0.61109 0.0
C606 C 0.26893 0.99853 0.59798 0.0
C607 C 0.24106 0.01969 0.62374 0.0
C608 C 0.23195 0.95826 0.5982 0.0
C609 C 0.19978 0.94873 0.61097 0.0
H610 H 0.21521 0.20422 0.99431 0.0
H611 H 0.11941 0.12555 0.95502 0.0
H612 H 0.1556 0.17927 0.93145 0.0
H613 H 0.21294 0.24962 0.92224 0.0
H614 H 0.31048 0.32787 0.96083 0.0
H615 H 0.27516 0.27351 0.98454 0.0
C616 C 0.20248 0.19889 0.98055 0.0
C617 C 0.16476 0.16103 0.97639 0.0
C618 C 0.22353 0.22993 0.96704 0.0
C619 C 0.14868 0.15422 0.9585 0.0
C620 C 0.16915 0.18505 0.94505 0.0
C621 C 0.22627 0.2547 0.93589 0.0
C622 C 0.26373 0.29267 0.93998 0.0
C623 C 0.20628 0.22315 0.94922 0.0
C624 C 0.28144 0.29881 0.95752 0.0
C625 C 0.26129 0.26781 0.97101 0.0
H626 H 0.97426 0.17286 0.31946 0.0
H627 H 0.09265 0.18545 0.30085 0.0
H628 H 0.10129 0.24031 0.27917 0.0
H629 H 0.0736 0.28229 0.26457 0.0
H630 H 0.95475 0.26905 0.28281 0.0
H631 H 0.94804 0.21707 0.30572 0.0
C632 C 0.00224 0.18805 0.31084 0.0
C633 C 0.03273 0.17505 0.31173 0.0
C634 C 0.00685 0.21934 0.29833 0.0
C635 C 0.06849 0.19455 0.30027 0.0
C636 C 0.07354 0.22603 0.28793 0.0
C637 C 0.04661 0.26857 0.27378 0.0
C638 C 0.01476 0.27953 0.27204 0.0
C639 C 0.04272 0.23836 0.28672 0.0
C640 C 0.97954 0.26089 0.28382 0.0
C641 C 0.97572 0.23123 0.29692 0.0
loop_
_geom_bond_atom_site_label_1
_geom_bond_atom_site_label_2
_geom_bond_distance
_geom_bond_site_symmetry_2
_ccdc_geom_bond_type
Li0 N17 1.990 . S
Li0 O60 1.956 . S
Li0 O61 1.970 1_455 S
Li0 O62 1.961 1_545 S
Li1 N25 1.990 . S
Li1 O60 1.970 1_655 S
Li1 O61 1.956 . S
Li1 O63 1.961 1_545 S
Li2 N47 1.990 . S
Li2 O60 1.961 1_565 S
Li2 O62 1.956 . S
Li2 O63 1.970 1_455 S
Li3 N53 1.990 . S
Li3 O61 1.961 1_565 S
Li3 O62 1.970 1_655 S
Li3 O63 1.956 . S
C4 C6 1.348 . S
C4 C7 1.356 . S
C4 O60 1.325 . S
N5 C8 1.314 . S
N5 C9 1.279 . S
C6 C4 1.348 . S
C6 C8 1.353 . S
C6 H64 0.929 . S
C7 C4 1.356 . S
C7 C9 1.358 . S
C7 H65 0.930 . S
C8 N5 1.314 . S
C8 C6 1.353 . S
C8 H66 0.930 . S
C9 N5 1.279 . S
C9 C7 1.358 . S
C9 H67 0.930 . S
C10 C13 1.348 1_655 S
C10 C14 1.356 . S
C10 O61 1.325 . S
C11 N12 1.279 1_554 S
C11 C14 1.358 . S
C11 H68 0.930 . S
N12 C11 1.279 1_556 S
N12 C15 1.318 . S
C13 C10 1.348 1_455 S
C13 C15 1.339 1_454 S
C13 H69 0.929 . S
C14 C10 1.356 . S
C14 C11 1.358 . S
C14 H70 0.930 . S
C15 N12 1.318 . S
C15 C13 1.339 1_656 S
C15 H71 0.942 1_655 S
C16 N17 1.314 1_556 S
C16 C21 1.353 . S
C16 H22 0.930 . S
N17 Li0 1.990 . S
N17 C16 1.314 1_554 S
N17 C19 1.279 . S
C18 C19 1.358 . S
C18 C20 1.356 1_554 S
C18 H72 0.930 . S
C19 N17 1.279 . S
C19 C18 1.358 . S
C19 H23 0.930 . S
C20 C18 1.356 1_556 S
C20 C21 1.348 . S
C21 C16 1.353 . S
C21 C20 1.348 . S
C21 H73 0.929 . S
H22 C16 0.930 . S
H23 C19 0.930 . S
C24 N25 1.314 . S
C24 C26 1.353 . S
C24 H30 0.930 . S
N25 Li1 1.990 . S
N25 C24 1.314 . S
N25 C28 1.279 . S
C26 C24 1.353 . S
C26 C29 1.348 . S
C26 H74 0.929 . S
C27 C28 1.358 . S
C27 C29 1.356 . S
C27 H75 0.930 . S
C28 N25 1.279 . S
C28 C27 1.358 . S
C28 H31 0.930 . S
C29 C26 1.348 . S
C29 C27 1.356 . S
H30 C24 0.930 . S
H31 C28 0.930 . S
C32 C34 1.348 1_455 S
C32 C35 1.356 . S
C32 O62 1.325 . S
N33 C36 1.318 . S
N33 C37 1.279 1_556 S
C34 C32 1.348 1_655 S
C34 C36 1.339 1_654 S
C34 H76 0.929 . S
C35 C32 1.356 . S
C35 C37 1.358 . S
C35 H77 0.930 . S
C36 N33 1.318 . S
C36 C34 1.339 1_456 S
C36 H78 0.942 1_455 S
C37 N33 1.279 1_554 S
C37 C35 1.358 . S
C37 H79 0.930 . S
C38 C39 1.348 . S
C38 C40 1.356 . S
C38 O63 1.325 . S
C39 C38 1.348 . S
C39 C41 1.353 . S
C39 H80 0.929 . S
C40 C38 1.356 . S
C40 C42 1.358 . S
C40 H81 0.930 . S
C41 C39 1.353 . S
C41 N43 1.314 . S
C41 H82 0.930 . S
C42 C40 1.358 . S
C42 N43 1.279 . S
C42 H83 0.930 . S
N43 C41 1.314 . S
N43 C42 1.279 . S
C44 C46 1.353 . S
C44 N47 1.314 . S
C44 H50 0.930 . S
C45 N47 1.279 . S
C45 C48 1.358 . S
C45 H51 0.930 . S
C46 C44 1.353 . S
C46 C49 1.348 . S
C46 H84 0.929 . S
N47 Li2 1.990 . S
N47 C44 1.314 . S
N47 C45 1.279 . S
C48 C45 1.358 . S
C48 C49 1.356 . S
C48 H85 0.930 . S
C49 C46 1.348 . S
C49 C48 1.356 . S
H50 C44 0.930 . S
H51 C45 0.930 . S
C52 N53 1.314 1_556 S
C52 C54 1.353 . S
C52 H58 0.930 . S
N53 Li3 1.990 . S
N53 C52 1.314 1_554 S
N53 C56 1.279 . S
C54 C52 1.353 . S
C54 C57 1.348 . S
C54 H86 0.929 . S
C55 C56 1.358 . S
C55 C57 1.356 1_554 S
C55 H87 0.930 . S
C56 N53 1.279 . S
C56 C55 1.358 . S
C56 H59 0.930 . S
C57 C54 1.348 . S
C57 C55 1.356 1_556 S
H58 C52 0.930 . S
H59 C56 0.930 . S
O60 Li0 1.956 . S
O60 Li1 1.970 1_455 S
O60 Li2 1.961 1_545 S
O60 C4 1.325 . S
O61 Li0 1.970 1_655 S
O61 Li1 1.956 . S
O61 Li3 1.961 1_545 S
O61 C10 1.325 . S
O62 Li0 1.961 1_565 S
O62 Li2 1.956 . S
O62 Li3 1.970 1_455 S
O62 C32 1.325 . S
O63 Li1 1.961 1_565 S
O63 Li2 1.970 1_655 S
O63 Li3 1.956 . S
O63 C38 1.325 . S
H64 C6 0.929 . S
H65 C7 0.930 . S
H66 C8 0.930 . S
H67 C9 0.930 . S
H68 C11 0.930 . S
H69 C13 0.929 . S
H70 C14 0.930 . S
H71 C15 0.942 1_455 S
H72 C18 0.930 . S
H73 C21 0.929 . S
H74 C26 0.929 . S
H75 C27 0.930 . S
H76 C34 0.929 . S
H77 C35 0.930 . S
H78 C36 0.942 1_655 S
H79 C37 0.930 . S
H80 C39 0.929 . S
H81 C40 0.930 . S
H82 C41 0.930 . S
H83 C42 0.930 . S
H84 C46 0.929 . S
H85 C48 0.930 . S
H86 C54 0.929 . S
H87 C55 0.930 . S
Li88 N105 1.990 . S
Li88 O148 1.956 . S
Li88 O149 1.970 1_665 S
Li88 O150 1.961 . S
Li89 N113 1.990 . S
Li89 O148 1.970 1_445 S
Li89 O149 1.956 . S
Li89 O151 1.961 . S
Li90 N135 1.990 . S
Li90 O148 1.961 . S
Li90 O150 1.956 . S
Li90 O151 1.970 1_665 S
Li91 N141 1.990 . S
Li91 O149 1.961 . S
Li91 O150 1.970 1_445 S
Li91 O151 1.956 . S
C92 C94 1.348 1_655 S
C92 C95 1.356 . S
C92 O148 1.325 . S
N93 C96 1.314 . S
N93 C97 1.279 . S
C94 C92 1.348 1_455 S
C94 C96 1.353 1_455 S
C94 H152 0.929 . S
C95 C92 1.356 . S
C95 C97 1.358 . S
C95 H153 0.930 . S
C96 N93 1.314 . S
C96 C94 1.353 1_655 S
C96 H154 0.930 1_655 S
C97 N93 1.279 . S
C97 C95 1.358 . S
C97 H155 0.930 . S
C98 C101 1.348 1_545 S
C98 C102 1.356 . S
C98 O149 1.325 . S
C99 N100 1.279 . S
C99 C102 1.358 . S
C99 H156 0.930 . S
N100 C99 1.279 . S
N100 C103 1.314 . S
C101 C98 1.348 1_565 S
C101 C103 1.353 1_565 S
C101 H157 0.929 . S
C102 C98 1.356 . S
C102 C99 1.358 . S
C102 H158 0.930 . S
C103 N100 1.314 . S
C103 C101 1.353 1_545 S
C103 H159 0.930 1_545 S
C104 N105 1.314 . S
C104 C109 1.353 . S
C104 H110 0.930 . S
N105 Li88 1.990 . S
N105 C104 1.314 . S
N105 C107 1.279 . S
C106 C107 1.358 . S
C106 C108 1.356 . S
C106 H160 0.930 . S
C107 N105 1.279 . S
C107 C106 1.358 . S
C107 H111 0.930 . S
C108 C106 1.356 . S
C108 C109 1.348 . S
C109 C104 1.353 . S
C109 C108 1.348 . S
C109 H161 0.929 . S
H110 C104 0.930 . S
H111 C107 0.930 . S
C112 N113 1.314 . S
C112 C114 1.353 . S
C112 H118 0.930 . S
N113 Li89 1.990 . S
N113 C112 1.314 . S
N113 C116 1.279 . S
C114 C112 1.353 . S
C114 C117 1.348 . S
C114 H162 0.929 . S
C115 C116 1.358 . S
C115 C117 1.356 . S
C115 H163 0.930 . S
C116 N113 1.279 . S
C116 C115 1.358 . S
C116 H119 0.930 . S
C117 C114 1.348 . S
C117 C115 1.356 . S
H118 C112 0.930 . S
H119 C116 0.930 . S
C120 C122 1.348 1_565 S
C120 C123 1.356 . S
C120 O150 1.325 . S
N121 C124 1.314 . S
N121 C125 1.279 . S
C122 C120 1.348 1_545 S
C122 C124 1.353 1_545 S
C122 H164 0.929 . S
C123 C120 1.356 . S
C123 C125 1.358 . S
C123 H165 0.930 . S
C124 N121 1.314 . S
C124 C122 1.353 1_565 S
C124 H166 0.930 1_565 S
C125 N121 1.279 . S
C125 C123 1.358 . S
C125 H167 0.930 . S
C126 C127 1.348 1_455 S
C126 C128 1.356 . S
C126 O151 1.325 . S
C127 C126 1.348 1_655 S
C127 C129 1.353 1_655 S
C127 H168 0.929 . S
C128 C126 1.356 . S
C128 C130 1.358 . S
C128 H169 0.930 . S
C129 C127 1.353 1_455 S
C129 N131 1.314 . S
C129 H170 0.930 1_455 S
C130 C128 1.358 . S
C130 N131 1.279 . S
C130 H171 0.930 . S
N131 C129 1.314 . S
N131 C130 1.279 . S
C132 C134 1.353 . S
C132 N135 1.314 . S
C132 H138 0.930 . S
C133 N135 1.279 . S
C133 C136 1.358 . S
C133 H139 0.930 . S
C134 C132 1.353 . S
C134 C137 1.348 . S
C134 H172 0.929 . S
N135 Li90 1.990 . S
N135 C132 1.314 . S
N135 C133 1.279 . S
C136 C133 1.358 . S
C136 C137 1.356 . S
C136 H173 0.930 . S
C137 C134 1.348 . S
C137 C136 1.356 . S
H138 C132 0.930 . S
H139 C133 0.930 . S
C140 N141 1.314 . S
C140 C142 1.353 . S
C140 H146 0.930 . S
N141 Li91 1.990 . S
N141 C140 1.314 . S
N141 C144 1.279 . S
C142 C140 1.353 . S
C142 C145 1.348 . S
C142 H174 0.929 . S
C143 C144 1.358 . S
C143 C145 1.356 . S
C143 H175 0.930 . S
C144 N141 1.279 . S
C144 C143 1.358 . S
C144 H147 0.930 . S
C145 C142 1.348 . S
C145 C143 1.356 . S
H146 C140 0.930 . S
H147 C144 0.930 . S
O148 Li88 1.956 . S
O148 Li89 1.970 1_665 S
O148 Li90 1.961 . S
O148 C92 1.325 . S
O149 Li88 1.970 1_445 S
O149 Li89 1.956 . S
O149 Li91 1.961 . S
O149 C98 1.325 . S
O150 Li88 1.961 . S
O150 Li90 1.956 . S
O150 Li91 1.970 1_665 S
O150 C120 1.325 . S
O151 Li89 1.961 . S
O151 Li90 1.970 1_445 S
O151 Li91 1.956 . S
O151 C126 1.325 . S
H152 C94 0.929 . S
H153 C95 0.930 . S
H154 C96 0.930 1_455 S
H155 C97 0.930 . S
H156 C99 0.930 . S
H157 C101 0.929 . S
H158 C102 0.930 . S
H159 C103 0.930 1_565 S
H160 C106 0.930 . S
H161 C109 0.929 . S
H162 C114 0.929 . S
H163 C115 0.930 . S
H164 C122 0.929 . S
H165 C123 0.930 . S
H166 C124 0.930 1_545 S
H167 C125 0.930 . S
H168 C127 0.929 . S
H169 C128 0.930 . S
H170 C129 0.930 1_655 S
H171 C130 0.930 . S
H172 C134 0.929 . S
H173 C136 0.930 . S
H174 C142 0.929 . S
H175 C143 0.930 . S
Li176 N193 1.990 . S
Li176 O236 1.956 . S
Li176 O237 1.970 1_565 S
Li176 O238 1.961 1_455 S
Li177 N201 1.990 . S
Li177 O236 1.970 1_545 S
Li177 O237 1.956 . S
Li177 O239 1.961 1_455 S
Li178 N223 1.990 . S
Li178 O236 1.961 1_655 S
Li178 O238 1.956 . S
Li178 O239 1.970 1_565 S
Li179 N229 1.990 . S
Li179 O237 1.961 1_655 S
Li179 O238 1.970 1_545 S
Li179 O239 1.956 . S
C180 C182 1.348 1_565 S
C180 C183 1.356 . S
C180 O236 1.325 . S
N181 C184 1.314 . S
N181 C185 1.279 . S
C182 C180 1.348 1_545 S
C182 C184 1.353 1_545 S
C182 H240 0.929 . S
C183 C180 1.356 . S
C183 C185 1.358 . S
C183 H241 0.930 . S
C184 N181 1.314 . S
C184 C182 1.353 1_565 S
C184 H242 0.930 1_565 S
C185 N181 1.279 . S
C185 C183 1.358 . S
C185 H243 0.930 . S
C186 C189 1.348 . S
C186 C190 1.356 . S
C186 O237 1.325 . S
C187 N188 1.279 . S
C187 C190 1.358 . S
C187 H244 0.930 . S
N188 C187 1.279 . S
N188 C191 1.314 . S
C189 C186 1.348 . S
C189 C191 1.353 . S
C189 H245 0.929 . S
C190 C186 1.356 . S
C190 C187 1.358 . S
C190 H246 0.930 . S
C191 N188 1.314 . S
C191 C189 1.353 . S
C191 H247 0.930 . S
C192 N193 1.314 . S
C192 C197 1.353 . S
C192 H198 0.930 . S
N193 Li176 1.990 . S
N193 C192 1.314 . S
N193 C195 1.279 . S
C194 C195 1.358 . S
C194 C196 1.356 . S
C194 H248 0.930 . S
C195 N193 1.279 . S
C195 C194 1.358 . S
C195 H199 0.930 . S
C196 C194 1.356 . S
C196 C197 1.348 . S
C197 C192 1.353 . S
C197 C196 1.348 . S
C197 H249 0.929 . S
H198 C192 0.930 . S
H199 C195 0.930 . S
C200 N201 1.314 . S
C200 C202 1.353 . S
C200 H206 0.930 . S
N201 Li177 1.990 . S
N201 C200 1.314 . S
N201 C204 1.279 . S
C202 C200 1.353 . S
C202 C205 1.348 . S
C202 H250 0.929 . S
C203 C204 1.358 . S
C203 C205 1.356 . S
C203 H251 0.930 . S
C204 N201 1.279 . S
C204 C203 1.358 . S
C204 H207 0.930 . S
C205 C202 1.348 . S
C205 C203 1.356 . S
H206 C200 0.930 . S
H207 C204 0.930 . S
C208 C210 1.348 . S
C208 C211 1.356 . S
C208 O238 1.325 . S
N209 C212 1.314 . S
N209 C213 1.279 . S
C210 C208 1.348 . S
C210 C212 1.353 . S
C210 H252 0.929 . S
C211 C208 1.356 . S
C211 C213 1.358 . S
C211 H253 0.930 . S
C212 N209 1.314 . S
C212 C210 1.353 . S
C212 H254 0.930 . S
C213 N209 1.279 . S
C213 C211 1.358 . S
C213 H255 0.930 . S
C214 C215 1.348 1_545 S
C214 C216 1.356 . S
C214 O239 1.325 . S
C215 C214 1.348 1_565 S
C215 C217 1.353 1_565 S
C215 H256 0.929 . S
C216 C214 1.356 . S
C216 C218 1.358 . S
C216 H257 0.930 . S
C217 C215 1.353 1_545 S
C217 N219 1.314 . S
C217 H258 0.930 1_545 S
C218 C216 1.358 . S
C218 N219 1.279 . S
C218 H259 0.930 . S
N219 C217 1.314 . S
N219 C218 1.279 . S
C220 C222 1.353 . S
C220 N223 1.314 . S
C220 H226 0.930 . S
C221 N223 1.279 . S
C221 C224 1.358 . S
C221 H227 0.930 . S
C222 C220 1.353 . S
C222 C225 1.348 . S
C222 H260 0.929 . S
N223 Li178 1.990 . S
N223 C220 1.314 . S
N223 C221 1.279 . S
C224 C221 1.358 . S
C224 C225 1.356 . S
C224 H261 0.930 . S
C225 C222 1.348 . S
C225 C224 1.356 . S
H226 C220 0.930 . S
H227 C221 0.930 . S
C228 N229 1.314 . S
C228 C230 1.353 . S
C228 H234 0.930 . S
N229 Li179 1.990 . S
N229 C228 1.314 . S
N229 C232 1.279 . S
C230 C228 1.353 . S
C230 C233 1.348 . S
C230 H262 0.929 . S
C231 C232 1.358 . S
C231 C233 1.356 . S
C231 H263 0.930 . S
C232 N229 1.279 . S
C232 C231 1.358 . S
C232 H235 0.930 . S
C233 C230 1.348 . S
C233 C231 1.356 . S
H234 C228 0.930 . S
H235 C232 0.930 . S
O236 Li176 1.956 . S
O236 Li177 1.970 1_565 S
O236 Li178 1.961 1_455 S
O236 C180 1.325 . S
O237 Li176 1.970 1_545 S
O237 Li177 1.956 . S
O237 Li179 1.961 1_455 S
O237 C186 1.325 . S
O238 Li176 1.961 1_655 S
O238 Li178 1.956 . S
O238 Li179 1.970 1_565 S
O238 C208 1.325 . S
O239 Li177 1.961 1_655 S
O239 Li178 1.970 1_545 S
O239 Li179 1.956 . S
O239 C214 1.325 . S
H240 C182 0.929 . S
H241 C183 0.930 . S
H242 C184 0.930 1_545 S
H243 C185 0.930 . S
H244 C187 0.930 . S
H245 C189 0.929 . S
H246 C190 0.930 . S
H247 C191 0.930 . S
H248 C194 0.930 . S
H249 C197 0.929 . S
H250 C202 0.929 . S
H251 C203 0.930 . S
H252 C210 0.929 . S
H253 C211 0.930 . S
H254 C212 0.930 . S
H255 C213 0.930 . S
H256 C215 0.929 . S
H257 C216 0.930 . S
H258 C217 0.930 1_565 S
H259 C218 0.930 . S
H260 C222 0.929 . S
H261 C224 0.930 . S
H262 C230 0.929 . S
H263 C231 0.930 . S
H264 C291 0.929 . S
N265 C290 1.433 . S
N265 C296 1.435 . S
N265 C302 1.423 . S
H266 C292 0.930 . S
H267 C295 0.931 . S
H268 C294 0.929 . S
H269 C297 0.930 . S
H270 C298 0.932 . S
H271 C301 0.929 . S
H272 C300 0.931 . S
H273 C303 0.929 . S
H274 C307 0.932 1_455 S
H275 C304 0.931 . S
H276 C306 0.929 1_455 S
H277 C309 0.929 . S
H278 C310 0.930 . S
H279 C312 0.929 . S
H280 C313 0.931 . S
H281 C315 0.930 . S
H282 C316 0.932 . S
H283 C318 0.931 . S
H284 C319 0.929 . S
H285 C321 0.929 . S
H286 C322 0.931 . S
H287 C324 0.929 1_455 S
N288 C308 1.433 . S
N288 C314 1.435 . S
N288 C320 1.423 . S
H289 C325 0.932 1_455 S
C290 N265 1.433 . S
C290 C291 1.363 . S
C290 C295 1.370 1_655 S
C291 H264 0.929 . S
C291 C290 1.363 . S
C291 C292 1.385 . S
C292 H266 0.930 . S
C292 C291 1.385 . S
C292 C293 1.357 . S
C293 C292 1.357 . S
C293 C294 1.406 1_655 S
C294 H268 0.929 . S
C294 C293 1.406 1_455 S
C294 C295 1.391 . S
C295 H267 0.931 . S
C295 C290 1.370 1_455 S
C295 C294 1.391 . S
C296 N265 1.435 . S
C296 C297 1.358 1_655 S
C296 C301 1.371 . S
C297 H269 0.930 . S
C297 C296 1.358 1_455 S
C297 C298 1.405 . S
C298 H270 0.932 . S
C298 C297 1.405 . S
C298 C299 1.383 1_455 S
C299 C298 1.383 1_655 S
C299 C300 1.393 . S
C300 H272 0.931 . S
C300 C299 1.393 . S
C300 C301 1.382 . S
C301 H271 0.929 . S
C301 C296 1.371 . S
C301 C300 1.382 . S
C302 N265 1.423 . S
C302 C303 1.362 . S
C302 C307 1.388 . S
C303 H273 0.929 . S
C303 C302 1.362 . S
C303 C304 1.376 . S
C304 H275 0.931 . S
C304 C303 1.376 . S
C304 C305 1.396 . S
C305 C304 1.396 . S
C305 C306 1.348 . S
C305 C323 1.472 . S
C306 H276 0.929 1_655 S
C306 C305 1.348 . S
C306 C307 1.443 . S
C307 H274 0.932 1_655 S
C307 C302 1.388 . S
C307 C306 1.443 . S
C308 N288 1.433 . S
C308 C309 1.363 . S
C308 C313 1.370 1_655 S
C309 H277 0.929 . S
C309 C308 1.363 . S
C309 C310 1.385 . S
C310 H278 0.930 . S
C310 C309 1.385 . S
C310 C311 1.357 . S
C311 C310 1.357 . S
C311 C312 1.406 1_655 S
C312 H279 0.929 . S
C312 C311 1.406 1_455 S
C312 C313 1.391 . S
C313 H280 0.931 . S
C313 C308 1.370 1_455 S
C313 C312 1.391 . S
C314 N288 1.435 . S
C314 C315 1.358 1_655 S
C314 C319 1.371 . S
C315 H281 0.930 . S
C315 C314 1.358 1_455 S
C315 C316 1.405 . S
C316 H282 0.932 . S
C316 C315 1.405 . S
C316 C317 1.383 1_455 S
C317 C316 1.383 1_655 S
C317 C318 1.393 . S
C318 H283 0.931 . S
C318 C317 1.393 . S
C318 C319 1.382 . S
C319 H284 0.929 . S
C319 C314 1.371 . S
C319 C318 1.382 . S
C320 N288 1.423 . S
C320 C321 1.362 . S
C320 C325 1.388 . S
C321 H285 0.929 . S
C321 C320 1.362 . S
C321 C322 1.376 . S
C322 H286 0.931 . S
C322 C321 1.376 . S
C322 C323 1.396 . S
C323 C305 1.472 . S
C323 C322 1.396 . S
C323 C324 1.348 . S
C324 H287 0.929 1_655 S
C324 C323 1.348 . S
C324 C325 1.443 . S
C325 H289 0.932 1_655 S
C325 C320 1.388 . S
C325 C324 1.443 . S
H326 C353 0.929 . S
N327 C352 1.433 . S
N327 C358 1.435 . S
N327 C364 1.423 . S
H328 C354 0.930 . S
H329 C357 0.931 . S
H330 C356 0.929 . S
H331 C359 0.930 . S
H332 C360 0.932 . S
H333 C363 0.929 . S
H334 C362 0.931 . S
H335 C365 0.929 . S
H336 C369 0.932 1_565 S
H337 C366 0.931 . S
H338 C368 0.929 1_565 S
H339 C371 0.929 . S
H340 C372 0.930 . S
H341 C374 0.929 . S
H342 C375 0.931 . S
H343 C377 0.930 . S
H344 C378 0.932 . S
H345 C380 0.931 . S
H346 C381 0.929 . S
H347 C383 0.929 . S
H348 C384 0.931 . S
H349 C386 0.929 1_565 S
N350 C370 1.433 . S
N350 C376 1.435 . S
N350 C382 1.423 . S
H351 C387 0.932 1_565 S
C352 N327 1.433 . S
C352 C353 1.363 . S
C352 C357 1.370 1_545 S
C353 H326 0.929 . S
C353 C352 1.363 . S
C353 C354 1.385 . S
C354 H328 0.930 . S
C354 C353 1.385 . S
C354 C355 1.357 . S
C355 C354 1.357 . S
C355 C356 1.406 1_545 S
C356 H330 0.929 . S
C356 C355 1.406 1_565 S
C356 C357 1.391 . S
C357 H329 0.931 . S
C357 C352 1.370 1_565 S
C357 C356 1.391 . S
C358 N327 1.435 . S
C358 C359 1.358 1_545 S
C358 C363 1.371 . S
C359 H331 0.930 . S
C359 C358 1.358 1_565 S
C359 C360 1.405 . S
C360 H332 0.932 . S
C360 C359 1.405 . S
C360 C361 1.383 1_565 S
C361 C360 1.383 1_545 S
C361 C362 1.393 . S
C362 H334 0.931 . S
C362 C361 1.393 . S
C362 C363 1.382 . S
C363 H333 0.929 . S
C363 C358 1.371 . S
C363 C362 1.382 . S
C364 N327 1.423 . S
C364 C365 1.362 . S
C364 C369 1.388 . S
C365 H335 0.929 . S
C365 C364 1.362 . S
C365 C366 1.376 . S
C366 H337 0.931 . S
C366 C365 1.376 . S
C366 C367 1.396 . S
C367 C366 1.396 . S
C367 C368 1.348 . S
C367 C385 1.472 . S
C368 H338 0.929 1_545 S
C368 C367 1.348 . S
C368 C369 1.443 . S
C369 H336 0.932 1_545 S
C369 C364 1.388 . S
C369 C368 1.443 . S
C370 N350 1.433 . S
C370 C371 1.363 . S
C370 C375 1.370 1_545 S
C371 H339 0.929 . S
C371 C370 1.363 . S
C371 C372 1.385 . S
C372 H340 0.930 . S
C372 C371 1.385 . S
C372 C373 1.357 . S
C373 C372 1.357 . S
C373 C374 1.406 1_545 S
C374 H341 0.929 . S
C374 C373 1.406 1_565 S
C374 C375 1.391 . S
C375 H342 0.931 . S
C375 C370 1.370 1_565 S
C375 C374 1.391 . S
C376 N350 1.435 . S
C376 C377 1.358 1_545 S
C376 C381 1.371 . S
C377 H343 0.930 . S
C377 C376 1.358 1_565 S
C377 C378 1.405 . S
C378 H344 0.932 . S
C378 C377 1.405 . S
C378 C379 1.383 1_565 S
C379 C378 1.383 1_545 S
C379 C380 1.393 . S
C380 H345 0.931 . S
C380 C379 1.393 . S
C380 C381 1.382 . S
C381 H346 0.929 . S
C381 C376 1.371 . S
C381 C380 1.382 . S
C382 N350 1.423 . S
C382 C383 1.362 . S
C382 C387 1.388 . S
C383 H347 0.929 . S
C383 C382 1.362 . S
C383 C384 1.376 . S
C384 H348 0.931 . S
C384 C383 1.376 . S
C384 C385 1.396 . S
C385 C367 1.472 . S
C385 C384 1.396 . S
C385 C386 1.348 . S
C386 H349 0.929 1_545 S
C386 C385 1.348 . S
C386 C387 1.443 . S
C387 H351 0.932 1_545 S
C387 C382 1.388 . S
C387 C386 1.443 . S
H388 C415 0.929 . S
N389 C414 1.433 . S
N389 C420 1.435 . S
N389 C426 1.423 . S
H390 C416 0.930 . S
H391 C419 0.931 . S
H392 C418 0.929 . S
H393 C421 0.930 . S
H394 C422 0.932 . S
H395 C425 0.929 . S
H396 C424 0.931 . S
H397 C427 0.929 . S
H398 C431 0.932 . S
H399 C428 0.931 . S
H400 C430 0.929 . S
H401 C433 0.929 . S
H402 C434 0.930 . S
H403 C436 0.929 . S
H404 C437 0.931 . S
H405 C439 0.930 . S
H406 C440 0.932 . S
H407 C442 0.931 . S
H408 C443 0.929 . S
H409 C445 0.929 . S
H410 C446 0.931 . S
H411 C448 0.929 . S
N412 C432 1.433 . S
N412 C438 1.435 . S
N412 C444 1.423 . S
H413 C449 0.932 . S
C414 N389 1.433 . S
C414 C415 1.363 . S
C414 C419 1.370 . S
C415 H388 0.929 . S
C415 C414 1.363 . S
C415 C416 1.385 . S
C416 H390 0.930 . S
C416 C415 1.385 . S
C416 C417 1.357 . S
C417 C416 1.357 . S
C417 C418 1.406 . S
C418 H392 0.929 . S
C418 C417 1.406 . S
C418 C419 1.391 . S
C419 H391 0.931 . S
C419 C414 1.370 . S
C419 C418 1.391 . S
C420 N389 1.435 . S
C420 C421 1.358 . S
C420 C425 1.371 . S
C421 H393 0.930 . S
C421 C420 1.358 . S
C421 C422 1.405 . S
C422 H394 0.932 . S
C422 C421 1.405 . S
C422 C423 1.383 . S
C423 C422 1.383 . S
C423 C424 1.393 . S
C424 H396 0.931 . S
C424 C423 1.393 . S
C424 C425 1.382 . S
C425 H395 0.929 . S
C425 C420 1.371 . S
C425 C424 1.382 . S
C426 N389 1.423 . S
C426 C427 1.362 . S
C426 C431 1.388 . S
C427 H397 0.929 . S
C427 C426 1.362 . S
C427 C428 1.376 . S
C428 H399 0.931 . S
C428 C427 1.376 . S
C428 C429 1.396 . S
C429 C428 1.396 . S
C429 C430 1.348 . S
C429 C447 1.472 . S
C430 H400 0.929 . S
C430 C429 1.348 . S
C430 C431 1.443 . S
C431 H398 0.932 . S
C431 C426 1.388 . S
C431 C430 1.443 . S
C432 N412 1.433 . S
C432 C433 1.363 . S
C432 C437 1.370 . S
C433 H401 0.929 . S
C433 C432 1.363 . S
C433 C434 1.385 . S
C434 H402 0.930 . S
C434 C433 1.385 . S
C434 C435 1.357 . S
C435 C434 1.357 . S
C435 C436 1.406 . S
C436 H403 0.929 . S
C436 C435 1.406 . S
C436 C437 1.391 . S
C437 H404 0.931 . S
C437 C432 1.370 . S
C437 C436 1.391 . S
C438 N412 1.435 . S
C438 C439 1.358 . S
C438 C443 1.371 . S
C439 H405 0.930 . S
C439 C438 1.358 . S
C439 C440 1.405 . S
C440 H406 0.932 . S
C440 C439 1.405 . S
C440 C441 1.383 . S
C441 C440 1.383 . S
C441 C442 1.393 . S
C442 H407 0.931 . S
C442 C441 1.393 . S
C442 C443 1.382 . S
C443 H408 0.929 . S
C443 C438 1.371 . S
C443 C442 1.382 . S
C444 N412 1.423 . S
C444 C445 1.362 . S
C444 C449 1.388 . S
C445 H409 0.929 . S
C445 C444 1.362 . S
C445 C446 1.376 . S
C446 H410 0.931 . S
C446 C445 1.376 . S
C446 C447 1.396 . S
C447 C429 1.472 . S
C447 C446 1.396 . S
C447 C448 1.348 . S
C448 H411 0.929 . S
C448 C447 1.348 . S
C448 C449 1.443 . S
C449 H413 0.932 . S
C449 C444 1.388 . S
C449 C448 1.443 . S
H450 C456 0.930 . S
H451 C459 0.930 . S
H452 C460 0.930 . S
H453 C461 0.930 . S
H454 C464 0.930 . S
H455 C465 0.930 . S
C456 H450 0.930 . S
C456 C457 1.355 . S
C456 C458 1.415 . S
C457 C456 1.355 . S
C457 C459 1.419 . S
C458 C456 1.415 . S
C458 C463 1.425 . S
C458 C465 1.409 . S
C459 H451 0.930 . S
C459 C457 1.419 . S
C459 C460 1.362 . S
C460 H452 0.930 . S
C460 C459 1.362 . S
C460 C463 1.409 . S
C461 H453 0.930 . S
C461 C462 1.355 . S
C461 C463 1.415 . S
C462 C461 1.355 . S
C462 C464 1.419 . S
C463 C458 1.425 . S
C463 C460 1.409 . S
C463 C461 1.415 . S
C464 H454 0.930 . S
C464 C462 1.419 . S
C464 C465 1.362 . S
C465 H455 0.930 . S
C465 C458 1.409 . S
C465 C464 1.362 . S
H466 C472 0.930 . S
H467 C475 0.930 . S
H468 C476 0.930 . S
H469 C477 0.930 . S
H470 C480 0.919 1_545 S
H471 C481 0.930 . S
C472 H466 0.930 . S
C472 C473 1.355 . S
C472 C474 1.415 . S
C473 C472 1.355 . S
C473 C475 1.419 . S
C474 C472 1.415 . S
C474 C479 1.425 . S
C474 C481 1.409 . S
C475 H467 0.930 . S
C475 C473 1.419 . S
C475 C476 1.362 . S
C476 H468 0.930 . S
C476 C475 1.362 . S
C476 C479 1.409 . S
C477 H469 0.930 . S
C477 C478 1.355 . S
C477 C479 1.415 . S
C478 C477 1.355 . S
C478 C480 1.423 . S
C479 C474 1.425 . S
C479 C476 1.409 . S
C479 C477 1.415 . S
C480 H470 0.919 1_565 S
C480 C478 1.423 . S
C480 C481 1.369 . S
C481 H471 0.930 . S
C481 C474 1.409 . S
C481 C480 1.369 . S
H482 C488 0.930 . S
H483 C491 0.930 . S
H484 C492 0.930 . S
H485 C493 0.930 . S
H486 C496 0.930 . S
H487 C497 0.930 . S
C488 H482 0.930 . S
C488 C489 1.355 . S
C488 C490 1.415 . S
C489 C488 1.355 . S
C489 C491 1.419 . S
C490 C488 1.415 . S
C490 C495 1.425 . S
C490 C497 1.409 . S
C491 H483 0.930 . S
C491 C489 1.419 . S
C491 C492 1.362 . S
C492 H484 0.930 . S
C492 C491 1.362 . S
C492 C495 1.409 . S
C493 H485 0.930 . S
C493 C494 1.355 . S
C493 C495 1.415 . S
C494 C493 1.355 . S
C494 C496 1.419 . S
C495 C490 1.425 . S
C495 C492 1.409 . S
C495 C493 1.415 . S
C496 H486 0.930 . S
C496 C494 1.419 . S
C496 C497 1.362 . S
C497 H487 0.930 . S
C497 C490 1.409 . S
C497 C496 1.362 . S
H498 C504 0.930 . S
H499 C507 0.930 1_655 S
H500 C508 0.930 . S
H501 C509 0.930 . S
H502 C512 0.930 . S
H503 C513 0.930 . S
C504 H498 0.930 . S
C504 C505 1.355 . S
C504 C506 1.415 . S
C505 C504 1.355 . S
C505 C507 1.419 . S
C506 C504 1.415 . S
C506 C511 1.425 . S
C506 C513 1.409 . S
C507 H499 0.930 1_455 S
C507 C505 1.419 . S
C507 C508 1.362 1_455 S
C508 H500 0.930 . S
C508 C507 1.362 1_655 S
C508 C511 1.409 1_655 S
C509 H501 0.930 . S
C509 C510 1.355 1_655 S
C509 C511 1.415 1_655 S
C510 C509 1.355 1_455 S
C510 C512 1.419 . S
C511 C506 1.425 . S
C511 C508 1.409 1_455 S
C511 C509 1.415 1_455 S
C512 H502 0.930 . S
C512 C510 1.419 . S
C512 C513 1.362 . S
C513 H503 0.930 . S
C513 C506 1.409 . S
C513 C512 1.362 . S
H514 C520 0.930 1_565 S
H515 C523 0.930 . S
H516 C524 0.930 . S
H517 C525 0.930 . S
H518 C528 0.930 . S
H519 C529 0.930 . S
C520 H514 0.930 1_545 S
C520 C521 1.355 . S
C520 C522 1.415 . S
C521 C520 1.355 . S
C521 C523 1.419 . S
C522 C520 1.415 . S
C522 C527 1.425 . S
C522 C529 1.409 1_545 S
C523 H515 0.930 . S
C523 C521 1.419 . S
C523 C524 1.362 . S
C524 H516 0.930 . S
C524 C523 1.362 . S
C524 C527 1.409 . S
C525 H517 0.930 . S
C525 C526 1.355 . S
C525 C527 1.415 . S
C526 C525 1.355 . S
C526 C528 1.419 1_545 S
C527 C522 1.425 . S
C527 C524 1.409 . S
C527 C525 1.415 . S
C528 H518 0.930 . S
C528 C526 1.419 1_565 S
C528 C529 1.362 . S
C529 H519 0.930 . S
C529 C522 1.409 1_565 S
C529 C528 1.362 . S
H530 C536 0.930 . S
H531 C539 0.930 . S
H532 C540 0.930 . S
H533 C541 0.930 . S
H534 C544 0.930 . S
H535 C545 0.930 . S
C536 H530 0.930 . S
C536 C537 1.355 . S
C536 C538 1.415 . S
C537 C536 1.355 . S
C537 C539 1.419 . S
C538 C536 1.415 . S
C538 C543 1.425 . S
C538 C545 1.409 . S
C539 H531 0.930 . S
C539 C537 1.419 . S
C539 C540 1.362 . S
C540 H532 0.930 . S
C540 C539 1.362 . S
C540 C543 1.409 . S
C541 H533 0.930 . S
C541 C542 1.355 . S
C541 C543 1.415 . S
C542 C541 1.355 . S
C542 C544 1.419 . S
C543 C538 1.425 . S
C543 C540 1.409 . S
C543 C541 1.415 . S
C544 H534 0.930 . S
C544 C542 1.419 . S
C544 C545 1.362 . S
C545 H535 0.930 . S
C545 C538 1.409 . S
C545 C544 1.362 . S
H546 C552 0.930 . S
H547 C555 0.930 . S
H548 C556 0.930 . S
H549 C557 0.930 . S
H550 C560 0.930 . S
H551 C561 0.930 . S
C552 H546 0.930 . S
C552 C553 1.355 . S
C552 C554 1.415 . S
C553 C552 1.355 . S
C553 C555 1.419 . S
C554 C552 1.415 . S
C554 C559 1.425 . S
C554 C561 1.409 1_545 S
C555 H547 0.930 . S
C555 C553 1.419 . S
C555 C556 1.362 . S
C556 H548 0.930 . S
C556 C555 1.362 . S
C556 C559 1.409 . S
C557 H549 0.930 . S
C557 C558 1.355 . S
C557 C559 1.415 . S
C558 C557 1.355 . S
C558 C560 1.419 1_545 S
C559 C554 1.425 . S
C559 C556 1.409 . S
C559 C557 1.415 . S
C560 H550 0.930 . S
C560 C558 1.419 1_565 S
C560 C561 1.362 . S
C561 H551 0.930 . S
C561 C554 1.409 1_565 S
C561 C560 1.362 . S
H562 C568 0.930 . S
H563 C571 0.930 . S
H564 C572 0.930 . S
H565 C573 0.930 . S
H566 C576 0.930 . S
H567 C577 0.930 . S
C568 H562 0.930 . S
C568 C569 1.355 . S
C568 C570 1.415 . S
C569 C568 1.355 . S
C569 C571 1.419 . S
C570 C568 1.415 . S
C570 C575 1.425 . S
C570 C577 1.409 . S
C571 H563 0.930 . S
C571 C569 1.419 . S
C571 C572 1.362 . S
C572 H564 0.930 . S
C572 C571 1.362 . S
C572 C575 1.409 . S
C573 H565 0.930 . S
C573 C574 1.355 . S
C573 C575 1.415 . S
C574 C573 1.355 . S
C574 C576 1.419 . S
C575 C570 1.425 . S
C575 C572 1.409 . S
C575 C573 1.415 . S
C576 H566 0.930 . S
C576 C574 1.419 . S
C576 C577 1.362 . S
C577 H567 0.930 . S
C577 C570 1.409 . S
C577 C576 1.362 . S
H578 C584 0.930 . S
H579 C587 0.930 . S
H580 C588 0.930 . S
H581 C589 0.930 . S
H582 C592 0.930 . S
H583 C593 0.930 . S
C584 H578 0.930 . S
C584 C585 1.355 . S
C584 C586 1.415 . S
C585 C584 1.355 . S
C585 C587 1.419 1_655 S
C586 C584 1.415 . S
C586 C591 1.425 . S
C586 C593 1.409 . S
C587 H579 0.930 . S
C587 C585 1.419 1_455 S
C587 C588 1.362 . S
C588 H580 0.930 . S
C588 C587 1.362 . S
C588 C591 1.409 1_455 S
C589 H581 0.930 . S
C589 C590 1.355 1_455 S
C589 C591 1.415 1_455 S
C590 C589 1.355 1_655 S
C590 C592 1.419 . S
C591 C586 1.425 . S
C591 C588 1.409 1_655 S
C591 C589 1.415 1_655 S
C592 H582 0.930 . S
C592 C590 1.419 . S
C592 C593 1.362 . S
C593 H583 0.930 . S
C593 C586 1.409 . S
C593 C592 1.362 . S
H594 C600 0.930 . S
H595 C603 0.930 . S
H596 C604 0.930 . S
H597 C605 0.930 . S
H598 C608 0.930 . S
H599 C609 0.930 . S
C600 H594 0.930 . S
C600 C601 1.355 . S
C600 C602 1.415 . S
C601 C600 1.355 . S
C601 C603 1.419 1_565 S
C602 C600 1.415 . S
C602 C607 1.425 . S
C602 C609 1.409 . S
C603 H595 0.930 . S
C603 C601 1.419 1_545 S
C603 C604 1.362 . S
C604 H596 0.930 . S
C604 C603 1.362 . S
C604 C607 1.409 1_545 S
C605 H597 0.930 . S
C605 C606 1.355 1_545 S
C605 C607 1.415 1_545 S
C606 C605 1.355 1_565 S
C606 C608 1.419 . S
C607 C602 1.425 . S
C607 C604 1.409 1_565 S
C607 C605 1.415 1_565 S
C608 H598 0.930 . S
C608 C606 1.419 . S
C608 C609 1.362 . S
C609 H599 0.930 . S
C609 C602 1.409 . S
C609 C608 1.362 . S
H610 C616 0.930 . S
H611 C619 0.930 . S
H612 C620 0.930 . S
H613 C621 0.930 . S
H614 C624 0.930 . S
H615 C625 0.930 . S
C616 H610 0.930 . S
C616 C617 1.355 . S
C616 C618 1.415 . S
C617 C616 1.355 . S
C617 C619 1.419 . S
C618 C616 1.415 . S
C618 C623 1.425 . S
C618 C625 1.409 . S
C619 H611 0.930 . S
C619 C617 1.419 . S
C619 C620 1.362 . S
C620 H612 0.930 . S
C620 C619 1.362 . S
C620 C623 1.409 . S
C621 H613 0.930 . S
C621 C622 1.355 . S
C621 C623 1.415 . S
C622 C621 1.355 . S
C622 C624 1.419 . S
C623 C618 1.425 . S
C623 C620 1.409 . S
C623 C621 1.415 . S
C624 H614 0.930 . S
C624 C622 1.419 . S
C624 C625 1.362 . S
C625 H615 0.930 . S
C625 C618 1.409 . S
C625 C624 1.362 . S
H626 C632 0.930 1_655 S
H627 C635 0.930 . S
H628 C636 0.930 . S
H629 C637 0.930 . S
H630 C640 0.930 . S
H631 C641 0.930 . S
C632 H626 0.930 1_455 S
C632 C633 1.355 . S
C632 C634 1.415 . S
C633 C632 1.355 . S
C633 C635 1.419 . S
C634 C632 1.415 . S
C634 C639 1.425 . S
C634 C641 1.409 1_455 S
C635 H627 0.930 . S
C635 C633 1.419 . S
C635 C636 1.362 . S
C636 H628 0.930 . S
C636 C635 1.362 . S
C636 C639 1.409 . S
C637 H629 0.930 . S
C637 C638 1.355 . S
C637 C639 1.415 . S
C638 C637 1.355 . S
C638 C640 1.419 1_455 S
C639 C634 1.425 . S
C639 C636 1.409 . S
C639 C637 1.415 . S
C640 H630 0.930 . S
C640 C638 1.419 1_655 S
C640 C641 1.362 . S
C641 H631 0.930 . S
C641 C634 1.409 1_655 S
C641 C640 1.362 . S
C462 C317 1.356 . S
C457 C29 1.326 . S
C473 C137 1.338 . S
C478 C361 1.384 1_565 S
C489 C225 1.362 . S
C494 C423 1.389 . S
C505 C49 1.317 . S
C510 C299 1.367 1_455 S
C526 C379 1.382 . S
C521 C117 1.367 . S
C537 C205 1.350 . S
C542 C441 1.332 . S
C558 C355 1.554 . S
C553 C233 1.688 . S
C569 C57 1.649 . S
C574 C417 1.552 . S
C590 C293 1.526 . S
C585 C108 1.651 . S
C606 C373 1.607 1_565 S
C601 C196 1.647 . S
C622 C435 1.639 . S
C617 C20 1.667 . S
C633 C145 1.696 . S
C638 C311 1.613 1_455 S
