# Generated by pormake.
# Topology nom, (4,4)-cn, num edge types: 1
# Building blocks:
#     Node 0, Type 0, BuildingBlock: MUDLON_clean_linker_0, # of connection points: 4
#     Node 1, Type 0, BuildingBlock: MUDLON_clean_linker_0, # of connection points: 4
#     Node 2, Type 0, BuildingBlock: MUDLON_clean_linker_0, # of connection points: 4
#     Node 3, Type 0, BuildingBlock: MUDLON_clean_linker_0, # of connection points: 4
#     Node 4, Type 0, BuildingBlock: MUDLON_clean_linker_0, # of connection points: 4
#     Node 5, Type 0, BuildingBlock: MUDLON_clean_linker_0, # of connection points: 4
#     Node 6, Type 1, BuildingBlock: NAHDIM_clean_sbu_0, # of connection points: 4
#     Node 7, Type 1, BuildingBlock: NAHDIM_clean_sbu_0, # of connection points: 4
#     Node 8, Type 1, BuildingBlock: NAHDIM_clean_sbu_0, # of connection points: 4
#     Node 9, Type 1, BuildingBlock: NAHDIM_clean_sbu_0, # of connection points: 4
#     Node 10, Type 1, BuildingBlock: NAHDIM_clean_sbu_0, # of connection points: 4
#     Node 11, Type 1, BuildingBlock: NAHDIM_clean_sbu_0, # of connection points: 4
#     Edge 12, Type (0, 1), BuildingBlock: CIFDUS_clean_linker_0, # of connection points: 2
#     Edge 13, Type (0, 1), BuildingBlock: CIFDUS_clean_linker_0, # of connection points: 2
#     Edge 14, Type (0, 1), BuildingBlock: CIFDUS_clean_linker_0, # of connection points: 2
#     Edge 15, Type (0, 1), BuildingBlock: CIFDUS_clean_linker_0, # of connection points: 2
#     Edge 16, Type (0, 1), BuildingBlock: CIFDUS_clean_linker_0, # of connection points: 2
#     Edge 17, Type (0, 1), BuildingBlock: CIFDUS_clean_linker_0, # of connection points: 2
#     Edge 18, Type (0, 1), BuildingBlock: CIFDUS_clean_linker_0, # of connection points: 2
#     Edge 19, Type (0, 1), BuildingBlock: CIFDUS_clean_linker_0, # of connection points: 2
#     Edge 20, Type (0, 1), BuildingBlock: CIFDUS_clean_linker_0, # of connection points: 2
#     Edge 21, Type (0, 1), BuildingBlock: CIFDUS_clean_linker_0, # of connection points: 2
#     Edge 22, Type (0, 1), BuildingBlock: CIFDUS_clean_linker_0, # of connection points: 2
#     Edge 23, Type (0, 1), BuildingBlock: CIFDUS_clean_linker_0, # of connection points: 2
#     Edge 24, Type (0, 1), BuildingBlock: CIFDUS_clean_linker_0, # of connection points: 2
#     Edge 25, Type (0, 1), BuildingBlock: CIFDUS_clean_linker_0, # of connection points: 2
#     Edge 26, Type (0, 1), BuildingBlock: CIFDUS_clean_linker_0, # of connection points: 2
#     Edge 27, Type (0, 1), BuildingBlock: CIFDUS_clean_linker_0, # of connection points: 2
#     Edge 28, Type (0, 1), BuildingBlock: CIFDUS_clean_linker_0, # of connection points: 2
#     Edge 29, Type (0, 1), BuildingBlock: CIFDUS_clean_linker_0, # of connection points: 2
#     Edge 30, Type (0, 1), BuildingBlock: CIFDUS_clean_linker_0, # of connection points: 2
#     Edge 31, Type (0, 1), BuildingBlock: CIFDUS_clean_linker_0, # of connection points: 2
#     Edge 32, Type (0, 1), BuildingBlock: CIFDUS_clean_linker_0, # of connection points: 2
#     Edge 33, Type (0, 1), BuildingBlock: CIFDUS_clean_linker_0, # of connection points: 2
#     Edge 34, Type (0, 1), BuildingBlock: CIFDUS_clean_linker_0, # of connection points: 2
#     Edge 35, Type (0, 1), BuildingBlock: CIFDUS_clean_linker_0, # of connection points: 2
# Relax obj value: 0.026
# Max RMSD: 0.122
# Mean RMSD: 0.105
data_MOF--net-nom--node1-NAHDIM_clean_sbu_0--node2-MUDLON_clean_linker_0--edge1-CIFDUS_clean_linker_0
_symmetry_space_group_name_H-M    P1
_symmetry_Int_Tables_number       1
_symmetry_cell_setting            triclinic
loop_
_symmetry_equiv_pos_as_xyz
'x, y, z'
_cell_length_a     54.072368
_cell_length_b     56.34313
_cell_length_c     55.097155
_cell_angle_alpha  90.295527
_cell_angle_beta   90.448889
_cell_angle_gamma 121.36395
loop_
_atom_site_label
_atom_site_type_symbol
_atom_site_fract_x
_atom_site_fract_y
_atom_site_fract_z
_atom_type_partial_charge
H0 H 0.13408 0.54919 0.274 0.0
N1 N 0.10976 0.55571 0.31308 0.0
H2 H 0.17057 0.58584 0.24823 0.0
H3 H 0.12481 0.6103 0.31346 0.0
H4 H 0.16151 0.64699 0.28824 0.0
H5 H 0.10102 0.58373 0.34929 0.0
H6 H 0.12573 0.59707 0.38883 0.0
H7 H 0.14542 0.54109 0.33123 0.0
H8 H 0.16939 0.55324 0.37107 0.0
H9 H 0.07393 0.50232 0.32153 0.0
H10 H 0.07512 0.57658 0.30081 0.0
H11 H 0.02125 0.47582 0.31865 0.0
H12 H 0.02263 0.54997 0.29619 0.0
H13 H 0.85604 0.39605 0.27166 0.0
H14 H 0.83464 0.38909 0.23108 0.0
H15 H 0.88792 0.47744 0.21839 0.0
H16 H 0.90831 0.48418 0.25939 0.0
H17 H 0.87266 0.47877 0.2931 0.0
H18 H 0.83288 0.47366 0.31758 0.0
H19 H 0.83343 0.40846 0.35821 0.0
H20 H 0.87223 0.41273 0.33254 0.0
H21 H 0.93188 0.42884 0.2854 0.0
H22 H 0.98435 0.4569 0.28994 0.0
H23 H 0.97755 0.52611 0.31524 0.0
N24 N 0.8937 0.44378 0.2933 0.0
H25 H 0.92515 0.49828 0.30901 0.0
C26 C 0.12686 0.57693 0.29568 0.0
C27 C 0.13946 0.57042 0.27672 0.0
C28 C 0.1604 0.59138 0.26218 0.0
C29 C 0.16918 0.61935 0.26642 0.0
C30 C 0.15511 0.62565 0.2844 0.0
C31 C 0.13417 0.60465 0.29895 0.0
C32 C 0.12165 0.56158 0.33734 0.0
C33 C 0.11586 0.57699 0.354 0.0
C34 C 0.12986 0.5844 0.37666 0.0
C35 C 0.14974 0.57639 0.38309 0.0
C36 C 0.15468 0.56023 0.36657 0.0
C37 C 0.14084 0.55302 0.34391 0.0
C38 C 0.07862 0.54125 0.31103 0.0
C39 C 0.06277 0.51281 0.31608 0.0
C40 C 0.03263 0.49767 0.3142 0.0
C41 C 0.01749 0.51055 0.30674 0.0
C42 C 0.03341 0.5393 0.30213 0.0
C43 C 0.06365 0.55458 0.3045 0.0
C44 C 0.88379 0.44047 0.26846 0.0
C45 C 0.86327 0.4138 0.25995 0.0
C46 C 0.85122 0.4099 0.23671 0.0
C47 C 0.85959 0.43271 0.2214 0.0
C48 C 0.88072 0.45946 0.22979 0.0
C49 C 0.89263 0.46334 0.25315 0.0
C50 C 0.87494 0.4456 0.31069 0.0
C51 C 0.86449 0.46363 0.30747 0.0
C52 C 0.84183 0.46083 0.32168 0.0
C53 C 0.82947 0.44024 0.33959 0.0
C54 C 0.84185 0.42401 0.34414 0.0
C55 C 0.86421 0.42658 0.3297 0.0
C56 C 0.92454 0.46118 0.29718 0.0
C57 C 0.9418 0.45007 0.29196 0.0
C58 C 0.97181 0.46615 0.29478 0.0
C59 C 0.98539 0.49378 0.30333 0.0
C60 C 0.968 0.50503 0.30844 0.0
C61 C 0.93788 0.48898 0.30517 0.0
H62 H 0.47579 0.87771 0.48185 0.0
N63 N 0.46996 0.91543 0.45847 0.0
H64 H 0.43963 0.8399 0.50669 0.0
H65 H 0.42039 0.9113 0.47571 0.0
H66 H 0.38409 0.87362 0.50055 0.0
H67 H 0.42301 0.90865 0.43271 0.0
H68 H 0.40602 0.886 0.39347 0.0
H69 H 0.4961 0.89773 0.42946 0.0
H70 H 0.47816 0.87318 0.39058 0.0
H71 H 0.52299 0.94733 0.47624 0.0
H72 H 0.44897 0.95018 0.45086 0.0
H73 H 0.54907 0.99743 0.48421 0.0
H74 H 0.47501 9e-05 0.45801 0.0
H75 H 0.61723 0.12837 0.5273 0.0
H76 H 0.62053 0.14623 0.56863 0.0
H77 H 0.54225 0.14737 0.55549 0.0
H78 H 0.53882 0.12908 0.51478 0.0
H79 H 0.53418 0.12264 0.47139 0.0
H80 H 0.53934 0.16234 0.44907 0.0
H81 H 0.63244 0.2013 0.45242 0.0
H82 H 0.62703 0.16196 0.47552 0.0
H83 H 0.5982 0.0905 0.47232 0.0
H84 H 0.57126 0.04071 0.46277 0.0
H85 H 0.49339 0.03414 0.49053 0.0
N86 N 0.57864 0.11995 0.49297 0.0
H87 H 0.52027 0.08391 0.49927 0.0
C88 C 0.45079 0.89717 0.4768 0.0
C89 C 0.45615 0.87733 0.48647 0.0
C90 C 0.43548 0.8558 0.50069 0.0
C91 C 0.40888 0.85366 0.50543 0.0
C92 C 0.40424 0.87456 0.49695 0.0
C93 C 0.42506 0.8962 0.48279 0.0
C94 C 0.46127 0.90539 0.43393 0.0
C95 C 0.43586 0.90198 0.42337 0.0
C96 C 0.42579 0.88844 0.40098 0.0
C97 C 0.44048 0.87739 0.3889 0.0
C98 C 0.46644 0.88168 0.39914 0.0
C99 C 0.47672 0.89563 0.42139 0.0
C100 C 0.48416 0.94491 0.46287 0.0
C101 C 0.51245 0.9588 0.47228 0.0
C102 C 0.52735 0.98743 0.47663 0.0
C103 C 0.5142 0.00284 0.47159 0.0
C104 C 0.48568 0.98883 0.4623 0.0
C105 C 0.47077 0.96013 0.45803 0.0
C106 C 0.57792 0.12739 0.51792 0.0
C107 C 0.60056 0.13203 0.53359 0.0
C108 C 0.6025 0.14242 0.55707 0.0
C109 C 0.58174 0.1484 0.56531 0.0
C110 C 0.55841 0.14269 0.54987 0.0
C111 C 0.55649 0.13228 0.52643 0.0
C112 C 0.58037 0.13963 0.47546 0.0
C113 C 0.55567 0.13947 0.46697 0.0
C114 C 0.55864 0.16214 0.45406 0.0
C115 C 0.58631 0.18519 0.44939 0.0
C116 C 0.61083 0.18413 0.45621 0.0
C117 C 0.60783 0.16162 0.4692 0.0
C118 C 0.56143 0.09091 0.48659 0.0
C119 C 0.57526 0.07826 0.47613 0.0
C120 C 0.55988 0.04981 0.4709 0.0
C121 C 0.5302 0.03336 0.47611 0.0
C122 C 0.51616 0.04622 0.48611 0.0
C123 C 0.5316 0.07475 0.49126 0.0
H124 H 0.48614 0.63716 0.64075 0.0
N125 N 0.47271 0.59037 0.66276 0.0
H126 H 0.45448 0.6459 0.61538 0.0
H127 H 0.41942 0.55067 0.64494 0.0
H128 H 0.38692 0.55935 0.62075 0.0
H129 H 0.42539 0.55016 0.68685 0.0
H130 H 0.41156 0.55344 0.72813 0.0
H131 H 0.50305 0.6308 0.6949 0.0
H132 H 0.4897 0.63409 0.73666 0.0
H133 H 0.52665 0.61225 0.64812 0.0
H134 H 0.44903 0.53396 0.66277 0.0
H135 H 0.55226 0.58812 0.63914 0.0
H136 H 0.47463 0.50959 0.65472 0.0
H137 H 0.62076 0.52987 0.59585 0.0
H138 H 0.62633 0.51956 0.55362 0.0
H139 H 0.55118 0.43701 0.56055 0.0
H140 H 0.54582 0.44741 0.60251 0.0
H141 H 0.53592 0.4478 0.64552 0.0
H142 H 0.53881 0.41434 0.67176 0.0
H143 H 0.63204 0.46748 0.67427 0.0
H144 H 0.62888 0.50075 0.64807 0.0
H145 H 0.59894 0.54227 0.65223 0.0
H146 H 0.57112 0.56428 0.66086 0.0
H147 H 0.49692 0.49684 0.62349 0.0
N148 N 0.58191 0.49574 0.62759 0.0
H149 H 0.52468 0.47458 0.61574 0.0
C150 C 0.45503 0.59348 0.645 0.0
C151 C 0.46471 0.62002 0.63594 0.0
C152 C 0.44646 0.62498 0.62168 0.0
C153 C 0.41787 0.60346 0.61645 0.0
C154 C 0.40877 0.57642 0.62436 0.0
C155 C 0.42727 0.57144 0.63843 0.0
C156 C 0.4653 0.59037 0.68778 0.0
C157 C 0.43974 0.5684 0.6976 0.0
C158 C 0.4319 0.57026 0.72133 0.0
C159 C 0.44945 0.5941 0.73566 0.0
C160 C 0.47549 0.61563 0.72598 0.0
C161 C 0.48327 0.61373 0.70226 0.0
C162 C 0.48614 0.575 0.65624 0.0
C163 C 0.51519 0.58981 0.64936 0.0
C164 C 0.5298 0.57598 0.64448 0.0
C165 C 0.51563 0.54691 0.64656 0.0
C166 C 0.48616 0.53196 0.65285 0.0
C167 C 0.4715 0.54589 0.6576 0.0
C168 C 0.58317 0.48944 0.60241 0.0
C169 C 0.60539 0.50967 0.58811 0.0
C170 C 0.60844 0.50379 0.56402 0.0
C171 C 0.5893 0.4774 0.55386 0.0
C172 C 0.5665 0.45739 0.56801 0.0
C173 C 0.56337 0.46336 0.59203 0.0
C174 C 0.58233 0.47679 0.64481 0.0
C175 C 0.55693 0.45237 0.6519 0.0
C176 C 0.55862 0.43321 0.66683 0.0
C177 C 0.58566 0.43825 0.67507 0.0
C178 C 0.61087 0.46312 0.66851 0.0
C179 C 0.60915 0.4821 0.65349 0.0
C180 C 0.56408 0.50704 0.63322 0.0
C181 C 0.5766 0.53221 0.64609 0.0
C182 C 0.56072 0.54483 0.65078 0.0
C183 C 0.53187 0.53254 0.64255 0.0
C184 C 0.51903 0.50682 0.63018 0.0
C185 C 0.53496 0.49412 0.62561 0.0
H186 H 0.14089 0.61052 0.79599 0.0
N187 N 0.09547 0.56281 0.78104 0.0
H188 H 0.18174 0.61707 0.8204 0.0
H189 H 0.09664 0.52216 0.8078 0.0
H190 H 0.13652 0.52861 0.83341 0.0
H191 H 0.11369 0.52944 0.76206 0.0
H192 H 0.14049 0.53742 0.72478 0.0
H193 H 0.1037 0.59896 0.7466 0.0
H194 H 0.13182 0.60795 0.70955 0.0
H195 H 0.05818 0.57224 0.80343 0.0
H196 H 0.06466 0.50704 0.76848 0.0
H197 H 0.00778 0.53853 0.81368 0.0
H198 H 0.01495 0.47345 0.77898 0.0
H199 H 0.88 0.4522 0.84879 0.0
H200 H 0.86451 0.45345 0.89004 0.0
H201 H 0.87698 0.38611 0.90952 0.0
H202 H 0.89302 0.38547 0.86823 0.0
H203 H 0.8614 0.36325 0.81968 0.0
H204 H 0.81617 0.3417 0.79614 0.0
H205 H 0.82932 0.42294 0.78246 0.0
H206 H 0.87453 0.44426 0.80617 0.0
H207 H 0.93729 0.46396 0.85613 0.0
H208 H 0.98361 0.49975 0.84145 0.0
H209 H 0.96458 0.45868 0.77152 0.0
N210 N 0.8959 0.4166 0.83106 0.0
H211 H 0.91779 0.42207 0.78624 0.0
C212 C 0.11567 0.56601 0.79996 0.0
C213 C 0.13955 0.59267 0.80463 0.0
C214 C 0.16288 0.59633 0.8187 0.0
C215 C 0.16267 0.57332 0.82877 0.0
C216 C 0.13776 0.54675 0.82552 0.0
C217 C 0.11462 0.54306 0.81108 0.0
C218 C 0.10633 0.56351 0.75705 0.0
C219 C 0.11649 0.54596 0.75031 0.0
C220 C 0.13231 0.55085 0.72912 0.0
C221 C 0.13871 0.57359 0.71436 0.0
C222 C 0.12711 0.59012 0.72038 0.0
C223 C 0.11103 0.58504 0.74153 0.0
C224 C 0.06535 0.54243 0.78519 0.0
C225 C 0.04868 0.55074 0.79782 0.0
C226 C 0.01999 0.53144 0.80375 0.0
C227 C 0.00736 0.50328 0.79718 0.0
C228 C 0.02386 0.49504 0.784 0.0
C229 C 0.05254 0.51437 0.77806 0.0
C230 C 0.88764 0.41863 0.85549 0.0
C231 C 0.87932 0.43768 0.86192 0.0
C232 C 0.87045 0.43836 0.88553 0.0
C233 C 0.86948 0.41987 0.9031 0.0
C234 C 0.87793 0.40095 0.89657 0.0
C235 C 0.88693 0.4004 0.873 0.0
C236 C 0.87121 0.4052 0.81475 0.0
C237 C 0.85469 0.37636 0.81125 0.0
C238 C 0.82894 0.36415 0.79774 0.0
C239 C 0.81912 0.38062 0.78747 0.0
C240 C 0.83615 0.40968 0.79039 0.0
C241 C 0.862 0.4219 0.80388 0.0
C242 C 0.92261 0.44028 0.82205 0.0
C243 C 0.94211 0.46261 0.83735 0.0
C244 C 0.96905 0.48338 0.82896 0.0
C245 C 0.97772 0.48229 0.80524 0.0
C246 C 0.95856 0.46015 0.78992 0.0
C247 C 0.93155 0.43933 0.79829 0.0
H248 H 0.51544 0.16438 0.98075 0.0
N249 N 0.52039 0.12438 0.96011 0.0
H250 H 0.55239 0.20461 0.00408 0.0
H251 H 0.57271 0.1327 0.97618 0.0
H252 H 0.60934 0.17239 -0.00029 0.0
H253 H 0.57001 0.14558 0.93328 0.0
H254 H 0.57687 0.16303 0.89218 0.0
H255 H 0.4807 0.12335 0.93045 0.0
H256 H 0.48748 0.14088 0.88878 0.0
H257 H 0.47942 0.08802 0.98927 0.0
H258 H 0.54708 0.09771 0.9418 0.0
H259 H 0.46862 0.04133 -0.00024 0.0
H260 H 0.53681 0.05177 0.95237 0.0
H261 H 0.43972 0.9222 0.02728 0.0
H262 H 0.42301 0.89614 0.06511 0.0
H263 H 0.50814 0.90892 0.07734 0.0
H264 H 0.5245 0.93453 0.03927 0.0
H265 H 0.51566 0.9111 0.99184 0.0
H266 H 0.49142 0.866 0.97114 0.0
H267 H 0.41455 0.8707 0.96229 0.0
H268 H 0.43876 0.91539 0.9838 0.0
H269 H 0.48793 0.97798 0.03502 0.0
H270 H 0.4921 0.02094 0.02242 0.0
H271 H 0.50114 0.00279 0.94796 0.0
N272 N 0.49216 0.94007 0.006 0.0
H273 H 0.49756 0.95987 0.96044 0.0
C274 C 0.54111 0.1455 0.97666 0.0
C275 C 0.5357 0.16579 0.98526 0.0
C276 C 0.55679 0.18868 0.99864 0.0
C277 C 0.58386 0.19175 0.00361 0.0
C278 C 0.58883 0.17078 0.9959 0.0
C279 C 0.56772 0.14789 0.98255 0.0
C280 C 0.52462 0.13291 0.93503 0.0
C281 C 0.55167 0.14402 0.92374 0.0
C282 C 0.55559 0.15397 0.90009 0.0
C283 C 0.53269 0.15326 0.88718 0.0
C284 C 0.50557 0.14185 0.89833 0.0
C285 C 0.50161 0.13169 0.92201 0.0
C286 C 0.51384 0.09646 0.96467 0.0
C287 C 0.49178 0.08003 0.98099 0.0
C288 C 0.48578 0.05347 0.98705 0.0
C289 C 0.50181 0.04279 0.97685 0.0
C290 C 0.52369 0.05913 0.96024 0.0
C291 C 0.52968 0.08565 0.95422 0.0
C292 C 0.48342 0.93019 0.03043 0.0
C293 C 0.45491 0.91987 0.03836 0.0
C294 C 0.44543 0.90507 0.06002 0.0
C295 C 0.46417 0.90018 0.07397 0.0
C296 C 0.4931 0.91201 0.06675 0.0
C297 C 0.50257 0.92686 0.04519 0.0
C298 C 0.47912 0.91657 0.98942 0.0
C299 C 0.49382 0.90264 0.9849 0.0
C300 C 0.4799 0.87688 0.973 0.0
C301 C 0.45089 0.86453 0.96522 0.0
C302 C 0.4367 0.87934 0.96847 0.0
C303 C 0.45059 0.90502 0.98058 0.0
C304 C 0.49074 0.96416 0.99862 0.0
C305 C 0.48978 0.98237 0.01581 0.0
C306 C 0.49232 0.00729 0.00862 0.0
C307 C 0.49666 0.01521 0.98416 0.0
C308 C 0.49781 0.99733 0.96698 0.0
C309 C 0.49529 0.97243 0.97413 0.0
H310 H 0.50576 0.37916 0.13917 0.0
N311 N 0.51291 0.42521 0.15928 0.0
H312 H 0.53689 0.37528 0.10941 0.0
H313 H 0.55769 0.46849 0.13516 0.0
H314 H 0.58902 0.46483 0.10547 0.0
H315 H 0.56658 0.4642 0.17743 0.0
H316 H 0.58858 0.46091 0.21491 0.0
H317 H 0.48726 0.38815 0.19423 0.0
H318 H 0.5095 0.38433 0.2318 0.0
H319 H 0.46386 0.40897 0.13563 0.0
H320 H 0.5341 0.47984 0.17286 0.0
H321 H 0.44235 0.43645 0.12532 0.0
H322 H 0.51211 0.50705 0.16375 0.0
H323 H 0.38219 0.51085 0.07888 0.0
H324 H 0.38281 0.5266 0.03738 0.0
H325 H 0.47158 0.59322 0.04835 0.0
H326 H 0.4709 0.57713 0.08929 0.0
H327 H 0.46526 0.58718 0.12925 0.0
H328 H 0.45621 0.62132 0.14793 0.0
H329 H 0.36495 0.55908 0.15125 0.0
H330 H 0.37416 0.52555 0.13141 0.0
H331 H 0.39637 0.48358 0.12729 0.0
H332 H 0.41775 0.45705 0.14135 0.0
H333 H 0.50329 0.52925 0.13141 0.0
N334 N 0.42352 0.53564 0.11252 0.0
H335 H 0.48157 0.55584 0.1188 0.0
C336 C 0.52948 0.42397 0.13949 0.0
C337 C 0.52358 0.39789 0.13148 0.0
C338 C 0.54129 0.39575 0.11444 0.0
C339 C 0.56545 0.41978 0.10518 0.0
C340 C 0.5707 0.44598 0.11247 0.0
C341 C 0.55278 0.44808 0.1294 0.0
C342 C 0.52507 0.42634 0.18298 0.0
C343 C 0.55363 0.44702 0.18936 0.0
C344 C 0.56635 0.44498 0.21076 0.0
C345 C 0.55093 0.42217 0.2262 0.0
C346 C 0.52191 0.40226 0.22041 0.0
C347 C 0.50917 0.40437 0.19897 0.0
C348 C 0.50035 0.44203 0.1552 0.0
C349 C 0.47435 0.43033 0.14194 0.0
C350 C 0.46202 0.44608 0.13621 0.0
C351 C 0.47535 0.47401 0.14384 0.0
C352 C 0.50139 0.48573 0.15733 0.0
C353 C 0.5139 0.46999 0.16281 0.0
C354 C 0.42638 0.54265 0.0872 0.0
C355 C 0.40196 0.52841 0.07203 0.0
C356 C 0.40229 0.53759 0.04846 0.0
C357 C 0.42717 0.56134 0.03965 0.0
C358 C 0.45216 0.57471 0.05446 0.0
C359 C 0.45178 0.5655 0.07803 0.0
C360 C 0.42019 0.55396 0.12854 0.0
C361 C 0.4434 0.58078 0.13432 0.0
C362 C 0.4382 0.60026 0.14518 0.0
C363 C 0.40975 0.5931 0.1506 0.0
C364 C 0.38702 0.56548 0.14672 0.0
C365 C 0.39222 0.5462 0.13566 0.0
C366 C 0.43726 0.52144 0.12166 0.0
C367 C 0.41973 0.49363 0.12838 0.0
C368 C 0.43204 0.47849 0.1362 0.0
C369 C 0.46232 0.49083 0.13721 0.0
C370 C 0.47991 0.51906 0.13105 0.0
C371 C 0.46749 0.53429 0.12351 0.0
C372 C 0.6236 0.3392 0.42034 0.0
O373 O 0.64349 0.36227 0.43115 0.0
O374 O 0.66375 0.39944 0.38903 0.0
Zn375 Zn 0.62131 0.38082 0.39681 0.0
O376 O 0.61536 0.39595 0.4279 0.0
C377 C 0.60964 0.39035 0.34795 0.0
O378 O 0.63496 0.39303 0.34441 0.0
O379 O 0.60869 0.34087 0.40321 0.0
C380 C 0.61391 0.41761 0.4305 0.0
O381 O 0.61688 0.43284 0.4115 0.0
C382 C 0.68345 0.42503 0.38914 0.0
O383 O 0.67698 0.44383 0.39482 0.0
O384 O 0.59886 0.38454 0.36907 0.0
C385 C 0.30808 0.70409 0.56154 0.0
O386 O 0.31368 0.69166 0.57896 0.0
O387 O 0.29267 0.63597 0.55704 0.0
Zn388 Zn 0.26405 0.6479 0.55012 0.0
O389 O 0.24177 0.63105 0.5189 0.0
C390 C 0.23996 0.62808 0.59782 0.0
O391 O 0.26344 0.627 0.60105 0.0
O392 O 0.28691 0.68953 0.54711 0.0
C393 C 0.21607 0.62618 0.51688 0.0
O394 O 0.20467 0.63189 0.53529 0.0
C395 C 0.29126 0.61359 0.55063 0.0
O396 O 0.26923 0.59521 0.5373 0.0
O397 O 0.23601 0.63672 0.57776 0.0
C398 C 0.59773 0.31199 0.72472 0.0
O399 O 0.61779 0.32024 0.74173 0.0
O400 O 0.64637 0.28811 0.73146 0.0
Zn401 Zn 0.60366 0.26385 0.72352 0.0
O402 O 0.59816 0.23944 0.69466 0.0
C403 C 0.58975 0.22132 0.75739 0.0
O404 O 0.60714 0.21829 0.74293 0.0
O405 O 0.58773 0.28817 0.71493 0.0
C406 C 0.57377 0.21806 0.68931 0.0
O407 O 0.55133 0.21168 0.70292 0.0
C408 C 0.66489 0.28235 0.72407 0.0
O409 O 0.65621 0.26017 0.71037 0.0
O410 O 0.58396 0.23999 0.75264 0.0
C411 C 0.39113 0.71034 0.91523 0.0
O412 O 0.36454 0.69319 0.92246 0.0
O413 O 0.34041 0.6491 0.88595 0.0
Zn414 Zn 0.38165 0.66028 0.89316 0.0
O415 O 0.38224 0.63754 0.92095 0.0
C416 C 0.39765 0.63224 0.85742 0.0
O417 O 0.38406 0.61081 0.87186 0.0
O418 O 0.40367 0.70087 0.90251 0.0
C419 C 0.40427 0.63606 0.92642 0.0
O420 O 0.42783 0.64978 0.91344 0.0
C421 C 0.32061 0.62415 0.88127 0.0
O422 O 0.32707 0.60468 0.88087 0.0
O423 O 0.39931 0.65493 0.86308 0.0
C424 C 0.69339 0.40499 0.0536 0.0
O425 O 0.68487 0.38628 0.03613 0.0
O426 O 0.71162 0.35276 0.05402 0.0
Zn427 Zn 0.73958 0.39381 0.05887 0.0
O428 O 0.76548 0.40096 0.08795 0.0
C429 C 0.78553 0.40762 0.02525 0.0
O430 O 0.79495 0.39881 0.04302 0.0
O431 O 0.71673 0.41215 0.06516 0.0
C432 C 0.77131 0.38324 0.09584 0.0
O433 O 0.76057 0.35926 0.08444 0.0
C434 C 0.68925 0.33886 0.06693 0.0
O435 O 0.68451 0.35131 0.08493 0.0
O436 O 0.76262 0.4083 0.02821 0.0
C437 C 0.39616 0.72077 0.19624 0.0
O438 O 0.37423 0.72019 0.18515 0.0
O439 O 0.34968 0.73354 0.226 0.0
Zn440 Zn 0.39179 0.76186 0.21999 0.0
O441 O 0.39802 0.786 0.19113 0.0
C442 C 0.39487 0.78934 0.26497 0.0
O443 O 0.36672 0.77624 0.26142 0.0
O444 O 0.40963 0.73889 0.21285 0.0
C445 C 0.39429 0.80649 0.19124 0.0
O446 O 0.38418 0.81185 0.21077 0.0
C447 C 0.32661 0.73331 0.22081 0.0
O448 O 0.32816 0.75477 0.21002 0.0
O449 O 0.41041 0.78621 0.24963 0.0
H450 H 0.22006 0.62238 0.25919 0.0
H451 H 0.1768 0.66758 0.24711 0.0
H452 H 0.22147 0.70663 0.23077 0.0
H453 H 0.27366 0.72872 0.22187 0.0
H454 H 0.3162 0.68293 0.23521 0.0
H455 H 0.27086 0.64322 0.24877 0.0
C456 C 0.22018 0.64052 0.25251 0.0
C457 C 0.19511 0.642 0.25423 0.0
C458 C 0.2459 0.66289 0.2435 0.0
C459 C 0.19588 0.66598 0.24606 0.0
C460 C 0.22139 0.68828 0.23671 0.0
C461 C 0.27292 0.70997 0.22756 0.0
C462 C 0.29837 0.70893 0.22766 0.0
C463 C 0.24669 0.68713 0.23566 0.0
C464 C 0.29704 0.68446 0.23514 0.0
C465 C 0.27109 0.66166 0.24288 0.0
H466 H 0.62343 0.23709 0.46614 0.0
H467 H 0.55643 0.19213 0.41214 0.0
H468 H 0.5617 0.23583 0.39828 0.0
H469 H 0.58562 0.28709 0.4018 0.0
H470 H 0.65266 0.33081 0.45628 0.0
H471 H 0.64727 0.28731 0.46941 0.0
C472 C 0.61028 0.23682 0.45105 0.0
C473 C 0.58984 0.21144 0.43999 0.0
C474 C 0.61338 0.26184 0.4433 0.0
C475 C 0.57235 0.21142 0.42096 0.0
C476 C 0.5754 0.2364 0.41302 0.0
C477 C 0.59902 0.28705 0.41654 0.0
C478 C 0.61951 0.31225 0.42801 0.0
C479 C 0.59583 0.26177 0.42411 0.0
C480 C 0.6367 0.31182 0.44709 0.0
C481 C 0.63368 0.28692 0.45464 0.0
H482 H 0.37522 0.57223 0.5827 0.0
H483 H 0.4133 0.64883 0.62418 0.0
H484 H 0.37866 0.65915 0.60654 0.0
H485 H 0.33653 0.6459 0.58082 0.0
H486 H 0.29644 0.56863 0.54031 0.0
H487 H 0.33268 0.55902 0.55633 0.0
C488 C 0.37588 0.59113 0.58793 0.0
C489 C 0.39711 0.60979 0.60464 0.0
C490 C 0.35543 0.59679 0.57802 0.0
C491 C 0.39772 0.63433 0.611 0.0
C492 C 0.37771 0.64017 0.60109 0.0
C493 C 0.3357 0.62697 0.57535 0.0
C494 C 0.31372 0.608 0.5594 0.0
C495 C 0.35638 0.62149 0.58474 0.0
C496 C 0.31308 0.5836 0.55259 0.0
C497 C 0.3338 0.57808 0.56175 0.0
H498 H 0.79617 0.33722 0.75534 0.0
H499 H 0.77742 0.39385 0.79198 0.0
H500 H 0.72856 0.3694 0.77452 0.0
H501 H 0.69017 0.33016 0.75099 0.0
H502 H 0.70868 0.27295 0.71498 0.0
H503 H 0.75849 0.29929 0.73021 0.0
C504 C 0.78138 0.34421 0.75949 0.0
C505 C 0.79041 0.36725 0.77504 0.0
C506 C 0.75319 0.32983 0.74965 0.0
C507 C 0.77115 0.37635 0.77989 0.0
C508 C 0.74311 0.36224 0.77007 0.0
C509 C 0.70512 0.32351 0.74636 0.0
C510 C 0.69558 0.29946 0.73202 0.0
C511 C 0.73375 0.33869 0.75524 0.0
C512 C 0.71535 0.2913 0.72606 0.0
C513 C 0.74387 0.30634 0.73477 0.0
H514 H 0.47071 0.83951 0.93501 0.0
H515 H 0.39509 0.82378 0.9746 0.0
H516 H 0.36979 0.77517 0.96193 0.0
H517 H 0.36981 0.73656 0.94141 0.0
H518 H 0.44591 0.75152 0.90312 0.0
H519 H 0.47048 0.80084 0.91392 0.0
C520 C 0.44873 0.82545 0.94093 0.0
C521 C 0.43489 0.83544 0.95573 0.0
C522 C 0.43446 0.79728 0.93405 0.0
C523 C 0.40619 0.81692 0.96287 0.0
C524 C 0.39176 0.78898 0.95585 0.0
C525 C 0.39177 0.75058 0.93539 0.0
C526 C 0.40602 0.74029 0.92157 0.0
C527 C 0.40579 0.77887 0.9417 0.0
C528 C 0.43444 0.75883 0.91385 0.0
C529 C 0.44851 0.78706 0.91999 0.0
H530 H 0.6239 0.44865 0.10992 0.0
H531 H 0.5539 0.38481 0.06644 0.0
H532 H 0.58804 0.37644 0.04481 0.0
H533 H 0.63702 0.38439 0.04096 0.0
H534 H 0.70657 0.44706 0.08575 0.0
H535 H 0.67344 0.45912 0.10384 0.0
C536 C 0.61621 0.43335 0.09533 0.0
C537 C 0.58643 0.41731 0.08982 0.0
C538 C 0.63586 0.42831 0.08333 0.0
C539 C 0.57671 0.39723 0.07115 0.0
C540 C 0.59621 0.39246 0.05878 0.0
C541 C 0.64504 0.40098 0.05441 0.0
C542 C 0.67418 0.41465 0.06212 0.0
C543 C 0.62573 0.40742 0.06513 0.0
C544 C 0.68419 0.43606 0.07961 0.0
C545 C 0.66525 0.44295 0.09 0.0
H546 H 0.41217 0.82609 0.54467 0.0
H547 H 0.35229 0.82352 0.49095 0.0
H548 H 0.31479 0.77791 0.50513 0.0
H549 H 0.30065 0.73675 0.52981 0.0
H550 H 0.36074 0.73875 0.58303 0.0
H551 H 0.39642 0.78648 0.57201 0.0
C552 C 0.39082 0.81562 0.53624 0.0
C553 C 0.38512 0.82812 0.5167 0.0
C554 C 0.36946 0.78915 0.5442 0.0
C555 C 0.35721 0.81451 0.50618 0.0
C556 C 0.33581 0.78829 0.51412 0.0
C557 C 0.32143 0.74771 0.53919 0.0
C558 C 0.32813 0.73405 0.55698 0.0
C559 C 0.34194 0.77511 0.53267 0.0
C560 C 0.35505 0.74869 0.56916 0.0
C561 C 0.37553 0.77599 0.56283 0.0
H562 H 0.5573 0.38246 0.66678 0.0
H563 H 0.61962 0.44675 0.71508 0.0
H564 H 0.62743 0.4129 0.73578 0.0
H565 H 0.61897 0.36578 0.73837 0.0
H566 H 0.55724 0.30162 0.68955 0.0
H567 H 0.54644 0.33459 0.67116 0.0
C568 C 0.57217 0.38896 0.68213 0.0
C569 C 0.58796 0.41712 0.68929 0.0
C570 C 0.57678 0.36944 0.6938 0.0
C571 C 0.60747 0.42526 0.70901 0.0
C572 C 0.61189 0.40591 0.7209 0.0
C573 C 0.60293 0.35889 0.72387 0.0
C574 C 0.58912 0.33128 0.71526 0.0
C575 C 0.59708 0.37805 0.71314 0.0
C576 C 0.56833 0.32277 0.69648 0.0
C577 C 0.56216 0.34163 0.68591 0.0
H578 H 0.20248 0.61653 0.85736 0.0
H579 H 0.18344 0.53819 0.82611 0.0
H580 H 0.22941 0.54597 0.84145 0.0
H581 H 0.27687 0.57668 0.86064 0.0
H582 H 0.29768 0.65671 0.88884 0.0
H583 H 0.24951 0.64682 0.87728 0.0
C584 C 0.20836 0.60116 0.85379 0.0
C585 C 0.18935 0.57684 0.84049 0.0
C586 C 0.2354 0.60621 0.86185 0.0
C587 C 0.19723 0.55692 0.83661 0.0
C588 C 0.22376 0.56148 0.84514 0.0
C589 C 0.27079 0.59187 0.86444 0.0
C590 C 0.29089 0.61743 0.87546 0.0
C591 C 0.24325 0.58628 0.85735 0.0
C592 C 0.28269 0.63693 0.88019 0.0
C593 C 0.25513 0.63129 0.87363 0.0
H594 H 0.5806 0.22042 0.04233 0.0
H595 H 0.64035 0.22173 0.99008 0.0
H596 H 0.67872 0.26639 0.00623 0.0
H597 H 0.69447 0.30647 0.03323 0.0
H598 H 0.63484 0.30599 0.08514 0.0
H599 H 0.59732 0.25967 0.07107 0.0
C600 C 0.60205 0.23048 0.03454 0.0
C601 C 0.60756 0.21776 0.015 0.0
C602 C 0.624 0.25638 0.04375 0.0
C603 C 0.63558 0.23087 0.00531 0.0
C604 C 0.6575 0.25653 0.01441 0.0
C605 C 0.67334 0.29619 0.04161 0.0
C606 C 0.66743 0.3098 0.06007 0.0
C607 C 0.65184 0.26966 0.03336 0.0
C608 C 0.63998 0.29603 0.07086 0.0
C609 C 0.61846 0.26956 0.06277 0.0
H610 H 0.43999 0.63703 0.18227 0.0
H611 H 0.36527 0.59836 0.13432 0.0
H612 H 0.35479 0.63427 0.14426 0.0
H613 H 0.36691 0.67683 0.16578 0.0
H614 H 0.44157 0.71665 0.21361 0.0
H615 H 0.45226 0.68038 0.20415 0.0
C616 C 0.42147 0.63653 0.17398 0.0
C617 C 0.40329 0.61478 0.15778 0.0
C618 C 0.41566 0.65756 0.17956 0.0
C619 C 0.37928 0.6144 0.14729 0.0
C620 C 0.37339 0.63511 0.15276 0.0
C621 C 0.38562 0.67772 0.17412 0.0
C622 C 0.40347 0.69949 0.19031 0.0
C623 C 0.39146 0.6568 0.16877 0.0
C624 C 0.42749 0.70014 0.20104 0.0
C625 C 0.43359 0.67938 0.19567 0.0
H626 H 0.81288 0.47629 0.35516 0.0
H627 H 0.78354 0.38892 0.35011 0.0
H628 H 0.73685 0.37697 0.36627 0.0
H629 H 0.70321 0.39071 0.37939 0.0
H630 H 0.7307 0.4776 0.38314 0.0
H631 H 0.77906 0.49024 0.36962 0.0
C632 C 0.79628 0.45464 0.3576 0.0
C633 C 0.80197 0.43361 0.35149 0.0
C634 C 0.769 0.44775 0.36643 0.0
C635 C 0.7802 0.40566 0.35508 0.0
C636 C 0.75327 0.39872 0.36409 0.0
C637 C 0.71974 0.41247 0.37734 0.0
C638 C 0.71322 0.43316 0.38211 0.0
C639 C 0.74731 0.41954 0.36947 0.0
C640 C 0.73507 0.46123 0.37952 0.0
C641 C 0.76273 0.46847 0.37177 0.0
H642 H 0.12944 0.57965 0.42741 0.0
H643 H 0.20668 0.59391 0.39158 0.0
H644 H 0.23358 0.60927 0.42988 0.0
H645 H 0.23566 0.61994 0.47336 0.0
H646 H 0.15898 0.60763 0.50882 0.0
H647 H 0.13158 0.59061 0.47082 0.0
C648 C 0.15221 0.58633 0.42792 0.0
C649 C 0.16591 0.5855 0.4066 0.0
C650 C 0.16774 0.59559 0.44995 0.0
C651 C 0.19538 0.59385 0.40774 0.0
C652 C 0.21089 0.60285 0.42962 0.0
C653 C 0.21292 0.61342 0.47281 0.0
C654 C 0.19943 0.61508 0.49392 0.0
C655 C 0.19732 0.6039 0.45082 0.0
C656 C 0.16997 0.60666 0.49284 0.0
C657 C 0.15424 0.5969 0.4711 0.0
H658 H 0.54 0.13783 0.5984 0.0
H659 H 0.63169 0.19057 0.58576 0.0
H660 H 0.63745 0.21587 0.62347 0.0
H661 H 0.61618 0.22468 0.65888 0.0
H662 H 0.52429 0.17287 0.67117 0.0
H663 H 0.51889 0.1458 0.63461 0.0
C664 C 0.56123 0.15489 0.60388 0.0
C665 C 0.58535 0.16227 0.58922 0.0
C666 C 0.56435 0.16968 0.62543 0.0
C667 C 0.6128 0.18415 0.59681 0.0
C668 C 0.61609 0.19882 0.61829 0.0
C669 C 0.59496 0.20743 0.65363 0.0
C670 C 0.57065 0.20097 0.66768 0.0
C671 C 0.59197 0.192 0.63257 0.0
C672 C 0.54337 0.1784 0.66066 0.0
C673 C 0.54024 0.16289 0.63974 0.0
H674 H 0.45267 0.64005 0.75506 0.0
H675 H 0.42426 0.55473 0.77101 0.0
H676 H 0.4061 0.55909 0.81024 0.0
H677 H 0.39737 0.58689 0.83959 0.0
H678 H 0.42621 0.67234 0.82344 0.0
H679 H 0.44553 0.66823 0.78488 0.0
C680 C 0.44293 0.62252 0.76726 0.0
C681 C 0.43986 0.59711 0.76009 0.0
C682 C 0.43256 0.62517 0.78975 0.0
C683 C 0.42663 0.57444 0.77596 0.0
C684 C 0.41634 0.57695 0.79844 0.0
C685 C 0.40797 0.60465 0.82769 0.0
C686 C 0.41021 0.62984 0.83441 0.0
C687 C 0.41899 0.60216 0.80544 0.0
C688 C 0.42409 0.65266 0.81875 0.0
C689 C 0.43515 0.65035 0.79665 0.0
H690 H 0.82416 0.42538 0.91595 0.0
H691 H 0.89108 0.41393 0.9462 0.0
H692 H 0.87177 0.4104 0.98679 0.0
H693 H 0.83469 0.40854 0.01339 0.0
H694 H 0.7681 0.42057 0.98323 0.0
H695 H 0.78897 0.4266 0.94297 0.0
C696 C 0.83485 0.42259 0.93145 0.0
C697 C 0.85892 0.41971 0.92797 0.0
C698 C 0.82371 0.42071 0.95476 0.0
C699 C 0.87221 0.41571 0.94828 0.0
C700 C 0.86129 0.41385 0.97152 0.0
C701 C 0.82484 0.4127 0.99806 0.0
C702 C 0.79974 0.4139 0.00133 0.0
C703 C 0.83682 0.41595 0.97493 0.0
C704 C 0.78739 0.41946 0.98125 0.0
C705 C 0.79926 0.42284 0.95819 0.0
H706 H 0.42935 0.89799 0.11071 0.0
H707 H 0.4737 0.85833 0.08333 0.0
H708 H 0.45518 0.8254 0.11661 0.0
H709 H 0.42684 0.80801 0.1535 0.0
H710 H 0.38315 0.84782 0.18203 0.0
H711 H 0.40064 0.88031 0.14814 0.0
C712 C 0.43485 0.88208 0.11206 0.0
C713 C 0.45308 0.88076 0.0947 0.0
C714 C 0.42415 0.86316 0.13135 0.0
C715 C 0.46016 0.86012 0.0967 0.0
C716 C 0.44941 0.84114 0.11562 0.0
C717 C 0.42095 0.82366 0.15227 0.0
C718 C 0.40364 0.82541 0.17024 0.0
C719 C 0.43145 0.84249 0.13304 0.0
C720 C 0.39646 0.84601 0.16844 0.0
C721 C 0.40648 0.86462 0.14908 0.0
H722 H 0.53025 0.40493 0.27195 0.0
H723 H 0.60498 0.42988 0.22729 0.0
H724 H 0.62953 0.42233 0.26091 0.0
H725 H 0.62974 0.40811 0.30266 0.0
H726 H 0.55532 0.3829 0.34776 0.0
H727 H 0.53061 0.39076 0.31422 0.0
C728 C 0.55186 0.40861 0.26959 0.0
C729 C 0.5658 0.41814 0.24716 0.0
C730 C 0.56588 0.40406 0.28901 0.0
C731 C 0.59393 0.42304 0.24446 0.0
C732 C 0.60793 0.41852 0.26362 0.0
C733 C 0.60809 0.40426 0.3052 0.0
C734 C 0.5944 0.39484 0.32768 0.0
C735 C 0.59411 0.40897 0.28594 0.0
C736 C 0.56638 0.39013 0.33063 0.0
C737 C 0.55222 0.39464 0.31146 0.0
H738 H 0.46865 0.87484 0.34877 0.0
H739 H 0.38332 0.8399 0.37916 0.0
H740 H 0.36193 0.81047 0.34337 0.0
H741 H 0.36723 0.79372 0.30394 0.0
H742 H 0.45243 0.82635 0.27416 0.0
H743 H 0.47406 0.85713 0.30948 0.0
C744 C 0.4454 0.86065 0.34768 0.0
C745 C 0.42769 0.85991 0.36664 0.0
C746 C 0.43318 0.84318 0.32722 0.0
C747 C 0.39753 0.84153 0.36468 0.0
C748 C 0.38523 0.82442 0.34429 0.0
C749 C 0.39054 0.80758 0.30512 0.0
C750 C 0.40816 0.80775 0.28643 0.0
C751 C 0.40283 0.82501 0.32551 0.0
C752 C 0.43835 0.82574 0.28834 0.0
C753 C 0.45074 0.8434 0.30851 0.0
H754 H 0.58795 0.43075 0.53952 0.0
H755 H 0.60155 0.50836 0.51262 0.0
H756 H 0.61028 0.49678 0.47192 0.0
H757 H 0.61421 0.46449 0.44407 0.0
H758 H 0.60116 0.38724 0.47178 0.0
H759 H 0.59183 0.39873 0.51198 0.0
C760 C 0.5925 0.44499 0.52468 0.0
C761 C 0.59393 0.47028 0.52902 0.0
C762 C 0.59765 0.43829 0.50148 0.0
C763 C 0.60046 0.4888 0.50974 0.0
C764 C 0.60537 0.48216 0.48648 0.0
C765 C 0.60929 0.45016 0.45889 0.0
C766 C 0.60838 0.42504 0.45484 0.0
C767 C 0.60409 0.45696 0.48214 0.0
C768 C 0.60207 0.40676 0.47432 0.0
C769 C 0.59669 0.41327 0.49736 0.0
H770 H 0.13597 0.59263 0.66948 0.0
H771 H 0.18874 0.57288 0.71409 0.0
H772 H 0.22425 0.5875 0.68195 0.0
H773 H 0.24111 0.607 0.64169 0.0
H774 H 0.18927 0.62795 0.59714 0.0
H775 H 0.15293 0.61219 0.6289 0.0
C776 C 0.15528 0.59161 0.67218 0.0
C777 C 0.1595 0.58146 0.69413 0.0
C778 C 0.17594 0.60047 0.65372 0.0
C779 C 0.18456 0.58004 0.69723 0.0
C780 C 0.20508 0.58866 0.67893 0.0
C781 C 0.22189 0.60816 0.63889 0.0
C782 C 0.218 0.61872 0.61709 0.0
C783 C 0.20107 0.59904 0.65718 0.0
C784 C 0.19288 0.61997 0.61378 0.0
C785 C 0.17204 0.61093 0.63192 0.0
H786 H 0.56168 0.14688 0.85018 0.0
H787 H 0.51516 0.18735 0.86909 0.0
H788 H 0.5273 0.21092 0.82998 0.0
H789 H 0.55389 0.22234 0.79151 0.0
H790 H 0.60098 0.18213 0.77324 0.0
H791 H 0.58601 0.15636 0.81102 0.0
C792 C 0.55418 0.16085 0.84573 0.0
C793 C 0.53773 0.1655 0.86259 0.0
C794 C 0.56152 0.17455 0.82338 0.0
C795 C 0.52769 0.18325 0.85637 0.0
C796 C 0.5348 0.19689 0.83408 0.0
C797 C 0.56072 0.20781 0.79572 0.0
C798 C 0.57874 0.20439 0.77961 0.0
C799 C 0.55211 0.19304 0.8176 0.0
C800 C 0.58724 0.18533 0.78531 0.0
C801 C 0.57871 0.17055 0.80695 0.0
H802 H 0.38384 0.56739 0.02192 0.0
H803 H 0.46894 0.58355 0.00472 0.0
H804 H 0.46918 0.60767 0.96787 0.0
H805 H 0.44591 0.62572 0.94142 0.0
H806 H 0.3606 0.60905 0.95886 0.0
H807 H 0.35964 0.58324 0.99456 0.0
C808 C 0.40223 0.57569 0.00988 0.0
C809 C 0.42633 0.57364 0.01608 0.0
C810 C 0.40226 0.58959 0.98883 0.0
C811 C 0.45022 0.58506 0.0005 0.0
C812 C 0.45034 0.5988 0.9794 0.0
C813 C 0.42707 0.61636 0.95298 0.0
C814 C 0.40345 0.6195 0.94751 0.0
C815 C 0.42663 0.60152 0.97356 0.0
C816 C 0.37913 0.60707 0.96263 0.0
C817 C 0.37855 0.59229 0.98308 0.0
H818 H 0.8439 0.39039 0.18883 0.0
H819 H 0.84273 0.46575 0.19978 0.0
H820 H 0.81676 0.45781 0.16137 0.0
H821 H 0.7922 0.42837 0.12573 0.0
H822 H 0.79126 0.35185 0.11565 0.0
H823 H 0.81982 0.36118 0.15288 0.0
C824 C 0.83784 0.40502 0.1829 0.0
C825 C 0.84528 0.42862 0.19727 0.0
C826 C 0.82232 0.40004 0.16103 0.0
C827 C 0.83771 0.44762 0.189 0.0
C828 C 0.8226 0.44298 0.16711 0.0
C829 C 0.79833 0.41377 0.13159 0.0
C830 C 0.78949 0.38939 0.11794 0.0
C831 C 0.81452 0.41911 0.15312 0.0
C832 C 0.79765 0.37072 0.12584 0.0
C833 C 0.81401 0.37604 0.14713 0.0
loop_
_geom_bond_atom_site_label_1
_geom_bond_atom_site_label_2
_geom_bond_distance
_geom_bond_site_symmetry_2
_ccdc_geom_bond_type
H0 C27 0.929 . S
N1 C26 1.433 . S
N1 C32 1.435 . S
N1 C38 1.423 . S
H2 C28 0.930 . S
H3 C31 0.931 . S
H4 C30 0.929 . S
H5 C33 0.930 . S
H6 C34 0.932 . S
H7 C37 0.929 . S
H8 C36 0.931 . S
H9 C39 0.929 . S
H10 C43 0.932 . S
H11 C40 0.931 . S
H12 C42 0.929 . S
H13 C45 0.929 . S
H14 C46 0.930 . S
H15 C48 0.929 . S
H16 C49 0.931 . S
H17 C51 0.930 . S
H18 C52 0.932 . S
H19 C54 0.931 . S
H20 C55 0.929 . S
H21 C57 0.929 . S
H22 C58 0.931 . S
H23 C60 0.929 . S
N24 C44 1.433 . S
N24 C50 1.435 . S
N24 C56 1.423 . S
H25 C61 0.932 . S
C26 N1 1.433 . S
C26 C27 1.363 . S
C26 C31 1.370 . S
C27 H0 0.929 . S
C27 C26 1.363 . S
C27 C28 1.385 . S
C28 H2 0.930 . S
C28 C27 1.385 . S
C28 C29 1.357 . S
C29 C28 1.357 . S
C29 C30 1.406 . S
C30 H4 0.929 . S
C30 C29 1.406 . S
C30 C31 1.391 . S
C31 H3 0.931 . S
C31 C26 1.370 . S
C31 C30 1.391 . S
C32 N1 1.435 . S
C32 C33 1.358 . S
C32 C37 1.371 . S
C33 H5 0.930 . S
C33 C32 1.358 . S
C33 C34 1.405 . S
C34 H6 0.932 . S
C34 C33 1.405 . S
C34 C35 1.383 . S
C35 C34 1.383 . S
C35 C36 1.393 . S
C36 H8 0.931 . S
C36 C35 1.393 . S
C36 C37 1.382 . S
C37 H7 0.929 . S
C37 C32 1.371 . S
C37 C36 1.382 . S
C38 N1 1.423 . S
C38 C39 1.362 . S
C38 C43 1.388 . S
C39 H9 0.929 . S
C39 C38 1.362 . S
C39 C40 1.376 . S
C40 H11 0.931 . S
C40 C39 1.376 . S
C40 C41 1.396 . S
C41 C40 1.396 . S
C41 C42 1.348 . S
C41 C59 1.472 1_455 S
C42 H12 0.929 . S
C42 C41 1.348 . S
C42 C43 1.443 . S
C43 H10 0.932 . S
C43 C38 1.388 . S
C43 C42 1.443 . S
C44 N24 1.433 . S
C44 C45 1.363 . S
C44 C49 1.370 . S
C45 H13 0.929 . S
C45 C44 1.363 . S
C45 C46 1.385 . S
C46 H14 0.930 . S
C46 C45 1.385 . S
C46 C47 1.357 . S
C47 C46 1.357 . S
C47 C48 1.406 . S
C48 H15 0.929 . S
C48 C47 1.406 . S
C48 C49 1.391 . S
C49 H16 0.931 . S
C49 C44 1.370 . S
C49 C48 1.391 . S
C50 N24 1.435 . S
C50 C51 1.358 . S
C50 C55 1.371 . S
C51 H17 0.930 . S
C51 C50 1.358 . S
C51 C52 1.405 . S
C52 H18 0.932 . S
C52 C51 1.405 . S
C52 C53 1.383 . S
C53 C52 1.383 . S
C53 C54 1.393 . S
C54 H19 0.931 . S
C54 C53 1.393 . S
C54 C55 1.382 . S
C55 H20 0.929 . S
C55 C50 1.371 . S
C55 C54 1.382 . S
C56 N24 1.423 . S
C56 C57 1.362 . S
C56 C61 1.388 . S
C57 H21 0.929 . S
C57 C56 1.362 . S
C57 C58 1.376 . S
C58 H22 0.931 . S
C58 C57 1.376 . S
C58 C59 1.396 . S
C59 C41 1.472 1_655 S
C59 C58 1.396 . S
C59 C60 1.348 . S
C60 H23 0.929 . S
C60 C59 1.348 . S
C60 C61 1.443 . S
C61 H25 0.932 . S
C61 C56 1.388 . S
C61 C60 1.443 . S
H62 C89 0.929 . S
N63 C88 1.433 . S
N63 C94 1.435 . S
N63 C100 1.423 . S
H64 C90 0.930 . S
H65 C93 0.931 . S
H66 C92 0.929 . S
H67 C95 0.930 . S
H68 C96 0.932 . S
H69 C99 0.929 . S
H70 C98 0.931 . S
H71 C101 0.929 . S
H72 C105 0.932 . S
H73 C102 0.931 . S
H74 C104 0.929 1_545 S
H75 C107 0.929 . S
H76 C108 0.930 . S
H77 C110 0.929 . S
H78 C111 0.931 . S
H79 C113 0.930 . S
H80 C114 0.932 . S
H81 C116 0.931 . S
H82 C117 0.929 . S
H83 C119 0.929 . S
H84 C120 0.931 . S
H85 C122 0.929 . S
N86 C106 1.433 . S
N86 C112 1.435 . S
N86 C118 1.423 . S
H87 C123 0.932 . S
C88 N63 1.433 . S
C88 C89 1.363 . S
C88 C93 1.370 . S
C89 H62 0.929 . S
C89 C88 1.363 . S
C89 C90 1.385 . S
C90 H64 0.930 . S
C90 C89 1.385 . S
C90 C91 1.357 . S
C91 C90 1.357 . S
C91 C92 1.406 . S
C92 H66 0.929 . S
C92 C91 1.406 . S
C92 C93 1.391 . S
C93 H65 0.931 . S
C93 C88 1.370 . S
C93 C92 1.391 . S
C94 N63 1.435 . S
C94 C95 1.358 . S
C94 C99 1.371 . S
C95 H67 0.930 . S
C95 C94 1.358 . S
C95 C96 1.405 . S
C96 H68 0.932 . S
C96 C95 1.405 . S
C96 C97 1.383 . S
C97 C96 1.383 . S
C97 C98 1.393 . S
C98 H70 0.931 . S
C98 C97 1.393 . S
C98 C99 1.382 . S
C99 H69 0.929 . S
C99 C94 1.371 . S
C99 C98 1.382 . S
C100 N63 1.423 . S
C100 C101 1.362 . S
C100 C105 1.388 . S
C101 H71 0.929 . S
C101 C100 1.362 . S
C101 C102 1.376 . S
C102 H73 0.931 . S
C102 C101 1.376 . S
C102 C103 1.396 1_565 S
C103 C102 1.396 1_545 S
C103 C104 1.348 1_545 S
C103 C121 1.472 . S
C104 H74 0.929 1_565 S
C104 C103 1.348 1_565 S
C104 C105 1.443 . S
C105 H72 0.932 . S
C105 C100 1.388 . S
C105 C104 1.443 . S
C106 N86 1.433 . S
C106 C107 1.363 . S
C106 C111 1.370 . S
C107 H75 0.929 . S
C107 C106 1.363 . S
C107 C108 1.385 . S
C108 H76 0.930 . S
C108 C107 1.385 . S
C108 C109 1.357 . S
C109 C108 1.357 . S
C109 C110 1.406 . S
C110 H77 0.929 . S
C110 C109 1.406 . S
C110 C111 1.391 . S
C111 H78 0.931 . S
C111 C106 1.370 . S
C111 C110 1.391 . S
C112 N86 1.435 . S
C112 C113 1.358 . S
C112 C117 1.371 . S
C113 H79 0.930 . S
C113 C112 1.358 . S
C113 C114 1.405 . S
C114 H80 0.932 . S
C114 C113 1.405 . S
C114 C115 1.383 . S
C115 C114 1.383 . S
C115 C116 1.393 . S
C116 H81 0.931 . S
C116 C115 1.393 . S
C116 C117 1.382 . S
C117 H82 0.929 . S
C117 C112 1.371 . S
C117 C116 1.382 . S
C118 N86 1.423 . S
C118 C119 1.362 . S
C118 C123 1.388 . S
C119 H83 0.929 . S
C119 C118 1.362 . S
C119 C120 1.376 . S
C120 H84 0.931 . S
C120 C119 1.376 . S
C120 C121 1.396 . S
C121 C103 1.472 . S
C121 C120 1.396 . S
C121 C122 1.348 . S
C122 H85 0.929 . S
C122 C121 1.348 . S
C122 C123 1.443 . S
C123 H87 0.932 . S
C123 C118 1.388 . S
C123 C122 1.443 . S
H124 C151 0.929 . S
N125 C150 1.433 . S
N125 C156 1.435 . S
N125 C162 1.423 . S
H126 C152 0.930 . S
H127 C155 0.931 . S
H128 C154 0.929 . S
H129 C157 0.930 . S
H130 C158 0.932 . S
H131 C161 0.929 . S
H132 C160 0.931 . S
H133 C163 0.929 . S
H134 C167 0.932 . S
H135 C164 0.931 . S
H136 C166 0.929 . S
H137 C169 0.929 . S
H138 C170 0.930 . S
H139 C172 0.929 . S
H140 C173 0.931 . S
H141 C175 0.930 . S
H142 C176 0.932 . S
H143 C178 0.931 . S
H144 C179 0.929 . S
H145 C181 0.929 . S
H146 C182 0.931 . S
H147 C184 0.929 . S
N148 C168 1.433 . S
N148 C174 1.435 . S
N148 C180 1.423 . S
H149 C185 0.932 . S
C150 N125 1.433 . S
C150 C151 1.363 . S
C150 C155 1.370 . S
C151 H124 0.929 . S
C151 C150 1.363 . S
C151 C152 1.385 . S
C152 H126 0.930 . S
C152 C151 1.385 . S
C152 C153 1.357 . S
C153 C152 1.357 . S
C153 C154 1.406 . S
C154 H128 0.929 . S
C154 C153 1.406 . S
C154 C155 1.391 . S
C155 H127 0.931 . S
C155 C150 1.370 . S
C155 C154 1.391 . S
C156 N125 1.435 . S
C156 C157 1.358 . S
C156 C161 1.371 . S
C157 H129 0.930 . S
C157 C156 1.358 . S
C157 C158 1.405 . S
C158 H130 0.932 . S
C158 C157 1.405 . S
C158 C159 1.383 . S
C159 C158 1.383 . S
C159 C160 1.393 . S
C160 H132 0.931 . S
C160 C159 1.393 . S
C160 C161 1.382 . S
C161 H131 0.929 . S
C161 C156 1.371 . S
C161 C160 1.382 . S
C162 N125 1.423 . S
C162 C163 1.362 . S
C162 C167 1.388 . S
C163 H133 0.929 . S
C163 C162 1.362 . S
C163 C164 1.376 . S
C164 H135 0.931 . S
C164 C163 1.376 . S
C164 C165 1.396 . S
C165 C164 1.396 . S
C165 C166 1.348 . S
C165 C183 1.472 . S
C166 H136 0.929 . S
C166 C165 1.348 . S
C166 C167 1.443 . S
C167 H134 0.932 . S
C167 C162 1.388 . S
C167 C166 1.443 . S
C168 N148 1.433 . S
C168 C169 1.363 . S
C168 C173 1.370 . S
C169 H137 0.929 . S
C169 C168 1.363 . S
C169 C170 1.385 . S
C170 H138 0.930 . S
C170 C169 1.385 . S
C170 C171 1.357 . S
C171 C170 1.357 . S
C171 C172 1.406 . S
C172 H139 0.929 . S
C172 C171 1.406 . S
C172 C173 1.391 . S
C173 H140 0.931 . S
C173 C168 1.370 . S
C173 C172 1.391 . S
C174 N148 1.435 . S
C174 C175 1.358 . S
C174 C179 1.371 . S
C175 H141 0.930 . S
C175 C174 1.358 . S
C175 C176 1.405 . S
C176 H142 0.932 . S
C176 C175 1.405 . S
C176 C177 1.383 . S
C177 C176 1.383 . S
C177 C178 1.393 . S
C178 H143 0.931 . S
C178 C177 1.393 . S
C178 C179 1.382 . S
C179 H144 0.929 . S
C179 C174 1.371 . S
C179 C178 1.382 . S
C180 N148 1.423 . S
C180 C181 1.362 . S
C180 C185 1.388 . S
C181 H145 0.929 . S
C181 C180 1.362 . S
C181 C182 1.376 . S
C182 H146 0.931 . S
C182 C181 1.376 . S
C182 C183 1.396 . S
C183 C165 1.472 . S
C183 C182 1.396 . S
C183 C184 1.348 . S
C184 H147 0.929 . S
C184 C183 1.348 . S
C184 C185 1.443 . S
C185 H149 0.932 . S
C185 C180 1.388 . S
C185 C184 1.443 . S
H186 C213 0.929 . S
N187 C212 1.433 . S
N187 C218 1.435 . S
N187 C224 1.423 . S
H188 C214 0.930 . S
H189 C217 0.931 . S
H190 C216 0.929 . S
H191 C219 0.930 . S
H192 C220 0.932 . S
H193 C223 0.929 . S
H194 C222 0.931 . S
H195 C225 0.929 . S
H196 C229 0.932 . S
H197 C226 0.931 . S
H198 C228 0.929 . S
H199 C231 0.929 . S
H200 C232 0.930 . S
H201 C234 0.929 . S
H202 C235 0.931 . S
H203 C237 0.930 . S
H204 C238 0.932 . S
H205 C240 0.931 . S
H206 C241 0.929 . S
H207 C243 0.929 . S
H208 C244 0.931 . S
H209 C246 0.929 . S
N210 C230 1.433 . S
N210 C236 1.435 . S
N210 C242 1.423 . S
H211 C247 0.932 . S
C212 N187 1.433 . S
C212 C213 1.363 . S
C212 C217 1.370 . S
C213 H186 0.929 . S
C213 C212 1.363 . S
C213 C214 1.385 . S
C214 H188 0.930 . S
C214 C213 1.385 . S
C214 C215 1.357 . S
C215 C214 1.357 . S
C215 C216 1.406 . S
C216 H190 0.929 . S
C216 C215 1.406 . S
C216 C217 1.391 . S
C217 H189 0.931 . S
C217 C212 1.370 . S
C217 C216 1.391 . S
C218 N187 1.435 . S
C218 C219 1.358 . S
C218 C223 1.371 . S
C219 H191 0.930 . S
C219 C218 1.358 . S
C219 C220 1.405 . S
C220 H192 0.932 . S
C220 C219 1.405 . S
C220 C221 1.383 . S
C221 C220 1.383 . S
C221 C222 1.393 . S
C222 H194 0.931 . S
C222 C221 1.393 . S
C222 C223 1.382 . S
C223 H193 0.929 . S
C223 C218 1.371 . S
C223 C222 1.382 . S
C224 N187 1.423 . S
C224 C225 1.362 . S
C224 C229 1.388 . S
C225 H195 0.929 . S
C225 C224 1.362 . S
C225 C226 1.376 . S
C226 H197 0.931 . S
C226 C225 1.376 . S
C226 C227 1.396 . S
C227 C226 1.396 . S
C227 C228 1.348 . S
C227 C245 1.472 1_455 S
C228 H198 0.929 . S
C228 C227 1.348 . S
C228 C229 1.443 . S
C229 H196 0.932 . S
C229 C224 1.388 . S
C229 C228 1.443 . S
C230 N210 1.433 . S
C230 C231 1.363 . S
C230 C235 1.370 . S
C231 H199 0.929 . S
C231 C230 1.363 . S
C231 C232 1.385 . S
C232 H200 0.930 . S
C232 C231 1.385 . S
C232 C233 1.357 . S
C233 C232 1.357 . S
C233 C234 1.406 . S
C234 H201 0.929 . S
C234 C233 1.406 . S
C234 C235 1.391 . S
C235 H202 0.931 . S
C235 C230 1.370 . S
C235 C234 1.391 . S
C236 N210 1.435 . S
C236 C237 1.358 . S
C236 C241 1.371 . S
C237 H203 0.930 . S
C237 C236 1.358 . S
C237 C238 1.405 . S
C238 H204 0.932 . S
C238 C237 1.405 . S
C238 C239 1.383 . S
C239 C238 1.383 . S
C239 C240 1.393 . S
C240 H205 0.931 . S
C240 C239 1.393 . S
C240 C241 1.382 . S
C241 H206 0.929 . S
C241 C236 1.371 . S
C241 C240 1.382 . S
C242 N210 1.423 . S
C242 C243 1.362 . S
C242 C247 1.388 . S
C243 H207 0.929 . S
C243 C242 1.362 . S
C243 C244 1.376 . S
C244 H208 0.931 . S
C244 C243 1.376 . S
C244 C245 1.396 . S
C245 C227 1.472 1_655 S
C245 C244 1.396 . S
C245 C246 1.348 . S
C246 H209 0.929 . S
C246 C245 1.348 . S
C246 C247 1.443 . S
C247 H211 0.932 . S
C247 C242 1.388 . S
C247 C246 1.443 . S
H248 C275 0.929 . S
N249 C274 1.433 . S
N249 C280 1.435 . S
N249 C286 1.423 . S
H250 C276 0.930 . S
H251 C279 0.931 . S
H252 C278 0.929 . S
H253 C281 0.930 . S
H254 C282 0.932 . S
H255 C285 0.929 . S
H256 C284 0.931 . S
H257 C287 0.929 . S
H258 C291 0.932 . S
H259 C288 0.931 . S
H260 C290 0.929 . S
H261 C293 0.929 . S
H262 C294 0.930 . S
H263 C296 0.929 . S
H264 C297 0.931 . S
H265 C299 0.930 1_554 S
H266 C300 0.932 . S
H267 C302 0.931 . S
H268 C303 0.929 . S
H269 C305 0.929 . S
H270 C306 0.931 1_554 S
H271 C308 0.929 . S
N272 C292 1.433 . S
N272 C298 1.435 1_554 S
N272 C304 1.423 1_554 S
H273 C309 0.932 . S
C274 N249 1.433 . S
C274 C275 1.363 . S
C274 C279 1.370 . S
C275 H248 0.929 . S
C275 C274 1.363 . S
C275 C276 1.385 . S
C276 H250 0.930 . S
C276 C275 1.385 . S
C276 C277 1.357 1_556 S
C277 C276 1.357 1_554 S
C277 C278 1.406 . S
C278 H252 0.929 . S
C278 C277 1.406 . S
C278 C279 1.391 1_554 S
C279 H251 0.931 . S
C279 C274 1.370 . S
C279 C278 1.391 1_556 S
C280 N249 1.435 . S
C280 C281 1.358 . S
C280 C285 1.371 . S
C281 H253 0.930 . S
C281 C280 1.358 . S
C281 C282 1.405 . S
C282 H254 0.932 . S
C282 C281 1.405 . S
C282 C283 1.383 . S
C283 C282 1.383 . S
C283 C284 1.393 . S
C284 H256 0.931 . S
C284 C283 1.393 . S
C284 C285 1.382 . S
C285 H255 0.929 . S
C285 C280 1.371 . S
C285 C284 1.382 . S
C286 N249 1.423 . S
C286 C287 1.362 . S
C286 C291 1.388 . S
C287 H257 0.929 . S
C287 C286 1.362 . S
C287 C288 1.376 . S
C288 H259 0.931 . S
C288 C287 1.376 . S
C288 C289 1.396 . S
C289 C288 1.396 . S
C289 C290 1.348 . S
C289 C307 1.472 1_545 S
C290 H260 0.929 . S
C290 C289 1.348 . S
C290 C291 1.443 . S
C291 H258 0.932 . S
C291 C286 1.388 . S
C291 C290 1.443 . S
C292 N272 1.433 . S
C292 C293 1.363 . S
C292 C297 1.370 . S
C293 H261 0.929 . S
C293 C292 1.363 . S
C293 C294 1.385 . S
C294 H262 0.930 . S
C294 C293 1.385 . S
C294 C295 1.357 . S
C295 C294 1.357 . S
C295 C296 1.406 . S
C296 H263 0.929 . S
C296 C295 1.406 . S
C296 C297 1.391 . S
C297 H264 0.931 . S
C297 C292 1.370 . S
C297 C296 1.391 . S
C298 N272 1.435 1_556 S
C298 C299 1.358 . S
C298 C303 1.371 . S
C299 H265 0.930 1_556 S
C299 C298 1.358 . S
C299 C300 1.405 . S
C300 H266 0.932 . S
C300 C299 1.405 . S
C300 C301 1.383 . S
C301 C300 1.383 . S
C301 C302 1.393 . S
C302 H267 0.931 . S
C302 C301 1.393 . S
C302 C303 1.382 . S
C303 H268 0.929 . S
C303 C298 1.371 . S
C303 C302 1.382 . S
C304 N272 1.423 1_556 S
C304 C305 1.362 1_556 S
C304 C309 1.388 . S
C305 H269 0.929 . S
C305 C304 1.362 1_554 S
C305 C306 1.376 1_554 S
C306 H270 0.931 1_556 S
C306 C305 1.376 1_556 S
C306 C307 1.396 . S
C307 C289 1.472 1_565 S
C307 C306 1.396 . S
C307 C308 1.348 . S
C308 H271 0.929 . S
C308 C307 1.348 . S
C308 C309 1.443 . S
C309 H273 0.932 . S
C309 C304 1.388 . S
C309 C308 1.443 . S
H310 C337 0.929 . S
N311 C336 1.433 . S
N311 C342 1.435 . S
N311 C348 1.423 . S
H312 C338 0.930 . S
H313 C341 0.931 . S
H314 C340 0.929 . S
H315 C343 0.930 . S
H316 C344 0.932 . S
H317 C347 0.929 . S
H318 C346 0.931 . S
H319 C349 0.929 . S
H320 C353 0.932 . S
H321 C350 0.931 . S
H322 C352 0.929 . S
H323 C355 0.929 . S
H324 C356 0.930 . S
H325 C358 0.929 . S
H326 C359 0.931 . S
H327 C361 0.930 . S
H328 C362 0.932 . S
H329 C364 0.931 . S
H330 C365 0.929 . S
H331 C367 0.929 . S
H332 C368 0.931 . S
H333 C370 0.929 . S
N334 C354 1.433 . S
N334 C360 1.435 . S
N334 C366 1.423 . S
H335 C371 0.932 . S
C336 N311 1.433 . S
C336 C337 1.363 . S
C336 C341 1.370 . S
C337 H310 0.929 . S
C337 C336 1.363 . S
C337 C338 1.385 . S
C338 H312 0.930 . S
C338 C337 1.385 . S
C338 C339 1.357 . S
C339 C338 1.357 . S
C339 C340 1.406 . S
C340 H314 0.929 . S
C340 C339 1.406 . S
C340 C341 1.391 . S
C341 H313 0.931 . S
C341 C336 1.370 . S
C341 C340 1.391 . S
C342 N311 1.435 . S
C342 C343 1.358 . S
C342 C347 1.371 . S
C343 H315 0.930 . S
C343 C342 1.358 . S
C343 C344 1.405 . S
C344 H316 0.932 . S
C344 C343 1.405 . S
C344 C345 1.383 . S
C345 C344 1.383 . S
C345 C346 1.393 . S
C346 H318 0.931 . S
C346 C345 1.393 . S
C346 C347 1.382 . S
C347 H317 0.929 . S
C347 C342 1.371 . S
C347 C346 1.382 . S
C348 N311 1.423 . S
C348 C349 1.362 . S
C348 C353 1.388 . S
C349 H319 0.929 . S
C349 C348 1.362 . S
C349 C350 1.376 . S
C350 H321 0.931 . S
C350 C349 1.376 . S
C350 C351 1.396 . S
C351 C350 1.396 . S
C351 C352 1.348 . S
C351 C369 1.472 . S
C352 H322 0.929 . S
C352 C351 1.348 . S
C352 C353 1.443 . S
C353 H320 0.932 . S
C353 C348 1.388 . S
C353 C352 1.443 . S
C354 N334 1.433 . S
C354 C355 1.363 . S
C354 C359 1.370 . S
C355 H323 0.929 . S
C355 C354 1.363 . S
C355 C356 1.385 . S
C356 H324 0.930 . S
C356 C355 1.385 . S
C356 C357 1.357 . S
C357 C356 1.357 . S
C357 C358 1.406 . S
C358 H325 0.929 . S
C358 C357 1.406 . S
C358 C359 1.391 . S
C359 H326 0.931 . S
C359 C354 1.370 . S
C359 C358 1.391 . S
C360 N334 1.435 . S
C360 C361 1.358 . S
C360 C365 1.371 . S
C361 H327 0.930 . S
C361 C360 1.358 . S
C361 C362 1.405 . S
C362 H328 0.932 . S
C362 C361 1.405 . S
C362 C363 1.383 . S
C363 C362 1.383 . S
C363 C364 1.393 . S
C364 H329 0.931 . S
C364 C363 1.393 . S
C364 C365 1.382 . S
C365 H330 0.929 . S
C365 C360 1.371 . S
C365 C364 1.382 . S
C366 N334 1.423 . S
C366 C367 1.362 . S
C366 C371 1.388 . S
C367 H331 0.929 . S
C367 C366 1.362 . S
C367 C368 1.376 . S
C368 H332 0.931 . S
C368 C367 1.376 . S
C368 C369 1.396 . S
C369 C351 1.472 . S
C369 C368 1.396 . S
C369 C370 1.348 . S
C370 H333 0.929 . S
C370 C369 1.348 . S
C370 C371 1.443 . S
C371 H335 0.932 . S
C371 C366 1.388 . S
C371 C370 1.443 . S
C372 O373 1.160 . S
C372 O379 1.185 . S
O373 C372 1.160 . S
O374 Zn375 1.899 . S
O374 C382 1.284 . S
Zn375 O374 1.899 . S
Zn375 O376 2.032 . S
Zn375 O379 2.086 . S
Zn375 O384 1.977 . S
O376 Zn375 2.032 . S
O376 C380 1.278 . S
C377 O378 1.203 . S
C377 O384 1.267 . S
O378 C377 1.203 . S
O379 C372 1.185 . S
O379 Zn375 2.086 . S
C380 O376 1.278 . S
C380 O381 1.211 . S
O381 C380 1.211 . S
C382 O374 1.284 . S
C382 O383 1.273 . S
O383 C382 1.273 . S
O384 Zn375 1.977 . S
O384 C377 1.267 . S
C385 O386 1.160 . S
C385 O392 1.185 . S
O386 C385 1.160 . S
O387 Zn388 1.899 . S
O387 C395 1.284 . S
Zn388 O387 1.899 . S
Zn388 O389 2.032 . S
Zn388 O392 2.086 . S
Zn388 O397 1.977 . S
O389 Zn388 2.032 . S
O389 C393 1.278 . S
C390 O391 1.203 . S
C390 O397 1.267 . S
O391 C390 1.203 . S
O392 C385 1.185 . S
O392 Zn388 2.086 . S
C393 O389 1.278 . S
C393 O394 1.211 . S
O394 C393 1.211 . S
C395 O387 1.284 . S
C395 O396 1.273 . S
O396 C395 1.273 . S
O397 Zn388 1.977 . S
O397 C390 1.267 . S
C398 O399 1.160 . S
C398 O405 1.185 . S
O399 C398 1.160 . S
O400 Zn401 1.899 . S
O400 C408 1.284 . S
Zn401 O400 1.899 . S
Zn401 O402 2.032 . S
Zn401 O405 2.086 . S
Zn401 O410 1.977 . S
O402 Zn401 2.032 . S
O402 C406 1.278 . S
C403 O404 1.203 . S
C403 O410 1.267 . S
O404 C403 1.203 . S
O405 C398 1.185 . S
O405 Zn401 2.086 . S
C406 O402 1.278 . S
C406 O407 1.211 . S
O407 C406 1.211 . S
C408 O400 1.284 . S
C408 O409 1.273 . S
O409 C408 1.273 . S
O410 Zn401 1.977 . S
O410 C403 1.267 . S
C411 O412 1.160 . S
C411 O418 1.185 . S
O412 C411 1.160 . S
O413 Zn414 1.899 . S
O413 C421 1.284 . S
Zn414 O413 1.899 . S
Zn414 O415 2.032 . S
Zn414 O418 2.086 . S
Zn414 O423 1.977 . S
O415 Zn414 2.032 . S
O415 C419 1.278 . S
C416 O417 1.203 . S
C416 O423 1.267 . S
O417 C416 1.203 . S
O418 C411 1.185 . S
O418 Zn414 2.086 . S
C419 O415 1.278 . S
C419 O420 1.211 . S
O420 C419 1.211 . S
C421 O413 1.284 . S
C421 O422 1.273 . S
O422 C421 1.273 . S
O423 Zn414 1.977 . S
O423 C416 1.267 . S
C424 O425 1.160 . S
C424 O431 1.185 . S
O425 C424 1.160 . S
O426 Zn427 1.899 . S
O426 C434 1.284 . S
Zn427 O426 1.899 . S
Zn427 O428 2.032 . S
Zn427 O431 2.086 . S
Zn427 O436 1.977 . S
O428 Zn427 2.032 . S
O428 C432 1.278 . S
C429 O430 1.203 . S
C429 O436 1.267 . S
O430 C429 1.203 . S
O431 C424 1.185 . S
O431 Zn427 2.086 . S
C432 O428 1.278 . S
C432 O433 1.211 . S
O433 C432 1.211 . S
C434 O426 1.284 . S
C434 O435 1.273 . S
O435 C434 1.273 . S
O436 Zn427 1.977 . S
O436 C429 1.267 . S
C437 O438 1.160 . S
C437 O444 1.185 . S
O438 C437 1.160 . S
O439 Zn440 1.899 . S
O439 C447 1.284 . S
Zn440 O439 1.899 . S
Zn440 O441 2.032 . S
Zn440 O444 2.086 . S
Zn440 O449 1.977 . S
O441 Zn440 2.032 . S
O441 C445 1.278 . S
C442 O443 1.203 . S
C442 O449 1.267 . S
O443 C442 1.203 . S
O444 C437 1.185 . S
O444 Zn440 2.086 . S
C445 O441 1.278 . S
C445 O446 1.211 . S
O446 C445 1.211 . S
C447 O439 1.284 . S
C447 O448 1.273 . S
O448 C447 1.273 . S
O449 Zn440 1.977 . S
O449 C442 1.267 . S
H450 C456 0.930 . S
H451 C459 0.930 . S
H452 C460 0.930 . S
H453 C461 0.930 . S
H454 C464 0.930 . S
H455 C465 0.930 . S
C456 H450 0.930 . S
C456 C457 1.355 . S
C456 C458 1.415 . S
C457 C456 1.355 . S
C457 C459 1.419 . S
C458 C456 1.415 . S
C458 C463 1.425 . S
C458 C465 1.409 . S
C459 H451 0.930 . S
C459 C457 1.419 . S
C459 C460 1.362 . S
C460 H452 0.930 . S
C460 C459 1.362 . S
C460 C463 1.409 . S
C461 H453 0.930 . S
C461 C462 1.355 . S
C461 C463 1.415 . S
C462 C461 1.355 . S
C462 C464 1.419 . S
C463 C458 1.425 . S
C463 C460 1.409 . S
C463 C461 1.415 . S
C464 H454 0.930 . S
C464 C462 1.419 . S
C464 C465 1.362 . S
C465 H455 0.930 . S
C465 C458 1.409 . S
C465 C464 1.362 . S
H466 C472 0.930 . S
H467 C475 0.930 . S
H468 C476 0.930 . S
H469 C477 0.930 . S
H470 C480 0.930 . S
H471 C481 0.930 . S
C472 H466 0.930 . S
C472 C473 1.355 . S
C472 C474 1.415 . S
C473 C472 1.355 . S
C473 C475 1.419 . S
C474 C472 1.415 . S
C474 C479 1.425 . S
C474 C481 1.409 . S
C475 H467 0.930 . S
C475 C473 1.419 . S
C475 C476 1.362 . S
C476 H468 0.930 . S
C476 C475 1.362 . S
C476 C479 1.409 . S
C477 H469 0.930 . S
C477 C478 1.355 . S
C477 C479 1.415 . S
C478 C477 1.355 . S
C478 C480 1.419 . S
C479 C474 1.425 . S
C479 C476 1.409 . S
C479 C477 1.415 . S
C480 H470 0.930 . S
C480 C478 1.419 . S
C480 C481 1.362 . S
C481 H471 0.930 . S
C481 C474 1.409 . S
C481 C480 1.362 . S
H482 C488 0.930 . S
H483 C491 0.930 . S
H484 C492 0.930 . S
H485 C493 0.930 . S
H486 C496 0.930 . S
H487 C497 0.930 . S
C488 H482 0.930 . S
C488 C489 1.355 . S
C488 C490 1.415 . S
C489 C488 1.355 . S
C489 C491 1.419 . S
C490 C488 1.415 . S
C490 C495 1.425 . S
C490 C497 1.409 . S
C491 H483 0.930 . S
C491 C489 1.419 . S
C491 C492 1.362 . S
C492 H484 0.930 . S
C492 C491 1.362 . S
C492 C495 1.409 . S
C493 H485 0.930 . S
C493 C494 1.355 . S
C493 C495 1.415 . S
C494 C493 1.355 . S
C494 C496 1.419 . S
C495 C490 1.425 . S
C495 C492 1.409 . S
C495 C493 1.415 . S
C496 H486 0.930 . S
C496 C494 1.419 . S
C496 C497 1.362 . S
C497 H487 0.930 . S
C497 C490 1.409 . S
C497 C496 1.362 . S
H498 C504 0.930 . S
H499 C507 0.930 . S
H500 C508 0.930 . S
H501 C509 0.930 . S
H502 C512 0.930 . S
H503 C513 0.930 . S
C504 H498 0.930 . S
C504 C505 1.355 . S
C504 C506 1.415 . S
C505 C504 1.355 . S
C505 C507 1.419 . S
C506 C504 1.415 . S
C506 C511 1.425 . S
C506 C513 1.409 . S
C507 H499 0.930 . S
C507 C505 1.419 . S
C507 C508 1.362 . S
C508 H500 0.930 . S
C508 C507 1.362 . S
C508 C511 1.409 . S
C509 H501 0.930 . S
C509 C510 1.355 . S
C509 C511 1.415 . S
C510 C509 1.355 . S
C510 C512 1.419 . S
C511 C506 1.425 . S
C511 C508 1.409 . S
C511 C509 1.415 . S
C512 H502 0.930 . S
C512 C510 1.419 . S
C512 C513 1.362 . S
C513 H503 0.930 . S
C513 C506 1.409 . S
C513 C512 1.362 . S
H514 C520 0.930 . S
H515 C523 0.930 . S
H516 C524 0.930 . S
H517 C525 0.930 . S
H518 C528 0.930 . S
H519 C529 0.930 . S
C520 H514 0.930 . S
C520 C521 1.355 . S
C520 C522 1.415 . S
C521 C520 1.355 . S
C521 C523 1.419 . S
C522 C520 1.415 . S
C522 C527 1.425 . S
C522 C529 1.409 . S
C523 H515 0.930 . S
C523 C521 1.419 . S
C523 C524 1.362 . S
C524 H516 0.930 . S
C524 C523 1.362 . S
C524 C527 1.409 . S
C525 H517 0.930 . S
C525 C526 1.355 . S
C525 C527 1.415 . S
C526 C525 1.355 . S
C526 C528 1.419 . S
C527 C522 1.425 . S
C527 C524 1.409 . S
C527 C525 1.415 . S
C528 H518 0.930 . S
C528 C526 1.419 . S
C528 C529 1.362 . S
C529 H519 0.930 . S
C529 C522 1.409 . S
C529 C528 1.362 . S
H530 C536 0.930 . S
H531 C539 0.930 . S
H532 C540 0.930 . S
H533 C541 0.930 . S
H534 C544 0.930 . S
H535 C545 0.930 . S
C536 H530 0.930 . S
C536 C537 1.355 . S
C536 C538 1.415 . S
C537 C536 1.355 . S
C537 C539 1.419 . S
C538 C536 1.415 . S
C538 C543 1.425 . S
C538 C545 1.409 . S
C539 H531 0.930 . S
C539 C537 1.419 . S
C539 C540 1.362 . S
C540 H532 0.930 . S
C540 C539 1.362 . S
C540 C543 1.409 . S
C541 H533 0.930 . S
C541 C542 1.355 . S
C541 C543 1.415 . S
C542 C541 1.355 . S
C542 C544 1.419 . S
C543 C538 1.425 . S
C543 C540 1.409 . S
C543 C541 1.415 . S
C544 H534 0.930 . S
C544 C542 1.419 . S
C544 C545 1.362 . S
C545 H535 0.930 . S
C545 C538 1.409 . S
C545 C544 1.362 . S
H546 C552 0.930 . S
H547 C555 0.930 . S
H548 C556 0.930 . S
H549 C557 0.930 . S
H550 C560 0.930 . S
H551 C561 0.930 . S
C552 H546 0.930 . S
C552 C553 1.355 . S
C552 C554 1.415 . S
C553 C552 1.355 . S
C553 C555 1.419 . S
C554 C552 1.415 . S
C554 C559 1.425 . S
C554 C561 1.409 . S
C555 H547 0.930 . S
C555 C553 1.419 . S
C555 C556 1.362 . S
C556 H548 0.930 . S
C556 C555 1.362 . S
C556 C559 1.409 . S
C557 H549 0.930 . S
C557 C558 1.355 . S
C557 C559 1.415 . S
C558 C557 1.355 . S
C558 C560 1.419 . S
C559 C554 1.425 . S
C559 C556 1.409 . S
C559 C557 1.415 . S
C560 H550 0.930 . S
C560 C558 1.419 . S
C560 C561 1.362 . S
C561 H551 0.930 . S
C561 C554 1.409 . S
C561 C560 1.362 . S
H562 C568 0.930 . S
H563 C571 0.930 . S
H564 C572 0.930 . S
H565 C573 0.930 . S
H566 C576 0.930 . S
H567 C577 0.930 . S
C568 H562 0.930 . S
C568 C569 1.355 . S
C568 C570 1.415 . S
C569 C568 1.355 . S
C569 C571 1.419 . S
C570 C568 1.415 . S
C570 C575 1.425 . S
C570 C577 1.409 . S
C571 H563 0.930 . S
C571 C569 1.419 . S
C571 C572 1.362 . S
C572 H564 0.930 . S
C572 C571 1.362 . S
C572 C575 1.409 . S
C573 H565 0.930 . S
C573 C574 1.355 . S
C573 C575 1.415 . S
C574 C573 1.355 . S
C574 C576 1.419 . S
C575 C570 1.425 . S
C575 C572 1.409 . S
C575 C573 1.415 . S
C576 H566 0.930 . S
C576 C574 1.419 . S
C576 C577 1.362 . S
C577 H567 0.930 . S
C577 C570 1.409 . S
C577 C576 1.362 . S
H578 C584 0.930 . S
H579 C587 0.930 . S
H580 C588 0.930 . S
H581 C589 0.930 . S
H582 C592 0.930 . S
H583 C593 0.930 . S
C584 H578 0.930 . S
C584 C585 1.355 . S
C584 C586 1.415 . S
C585 C584 1.355 . S
C585 C587 1.419 . S
C586 C584 1.415 . S
C586 C591 1.425 . S
C586 C593 1.409 . S
C587 H579 0.930 . S
C587 C585 1.419 . S
C587 C588 1.362 . S
C588 H580 0.930 . S
C588 C587 1.362 . S
C588 C591 1.409 . S
C589 H581 0.930 . S
C589 C590 1.355 . S
C589 C591 1.415 . S
C590 C589 1.355 . S
C590 C592 1.419 . S
C591 C586 1.425 . S
C591 C588 1.409 . S
C591 C589 1.415 . S
C592 H582 0.930 . S
C592 C590 1.419 . S
C592 C593 1.362 . S
C593 H583 0.930 . S
C593 C586 1.409 . S
C593 C592 1.362 . S
H594 C600 0.930 . S
H595 C603 0.930 1_556 S
H596 C604 0.930 1_556 S
H597 C605 0.930 . S
H598 C608 0.930 . S
H599 C609 0.930 . S
C600 H594 0.930 . S
C600 C601 1.355 . S
C600 C602 1.415 . S
C601 C600 1.355 . S
C601 C603 1.419 . S
C602 C600 1.415 . S
C602 C607 1.425 . S
C602 C609 1.409 . S
C603 H595 0.930 1_554 S
C603 C601 1.419 . S
C603 C604 1.362 . S
C604 H596 0.930 1_554 S
C604 C603 1.362 . S
C604 C607 1.409 . S
C605 H597 0.930 . S
C605 C606 1.355 . S
C605 C607 1.415 . S
C606 C605 1.355 . S
C606 C608 1.419 . S
C607 C602 1.425 . S
C607 C604 1.409 . S
C607 C605 1.415 . S
C608 H598 0.930 . S
C608 C606 1.419 . S
C608 C609 1.362 . S
C609 H599 0.930 . S
C609 C602 1.409 . S
C609 C608 1.362 . S
H610 C616 0.930 . S
H611 C619 0.930 . S
H612 C620 0.930 . S
H613 C621 0.930 . S
H614 C624 0.930 . S
H615 C625 0.930 . S
C616 H610 0.930 . S
C616 C617 1.355 . S
C616 C618 1.415 . S
C617 C616 1.355 . S
C617 C619 1.419 . S
C618 C616 1.415 . S
C618 C623 1.425 . S
C618 C625 1.409 . S
C619 H611 0.930 . S
C619 C617 1.419 . S
C619 C620 1.362 . S
C620 H612 0.930 . S
C620 C619 1.362 . S
C620 C623 1.409 . S
C621 H613 0.930 . S
C621 C622 1.355 . S
C621 C623 1.415 . S
C622 C621 1.355 . S
C622 C624 1.419 . S
C623 C618 1.425 . S
C623 C620 1.409 . S
C623 C621 1.415 . S
C624 H614 0.930 . S
C624 C622 1.419 . S
C624 C625 1.362 . S
C625 H615 0.930 . S
C625 C618 1.409 . S
C625 C624 1.362 . S
H626 C632 0.930 . S
H627 C635 0.930 . S
H628 C636 0.930 . S
H629 C637 0.930 . S
H630 C640 0.930 . S
H631 C641 0.930 . S
C632 H626 0.930 . S
C632 C633 1.355 . S
C632 C634 1.415 . S
C633 C632 1.355 . S
C633 C635 1.419 . S
C634 C632 1.415 . S
C634 C639 1.425 . S
C634 C641 1.409 . S
C635 H627 0.930 . S
C635 C633 1.419 . S
C635 C636 1.362 . S
C636 H628 0.930 . S
C636 C635 1.362 . S
C636 C639 1.409 . S
C637 H629 0.930 . S
C637 C638 1.355 . S
C637 C639 1.415 . S
C638 C637 1.355 . S
C638 C640 1.419 . S
C639 C634 1.425 . S
C639 C636 1.409 . S
C639 C637 1.415 . S
C640 H630 0.930 . S
C640 C638 1.419 . S
C640 C641 1.362 . S
C641 H631 0.930 . S
C641 C634 1.409 . S
C641 C640 1.362 . S
H642 C648 0.930 . S
H643 C651 0.930 . S
H644 C652 0.930 . S
H645 C653 0.930 . S
H646 C656 0.930 . S
H647 C657 0.930 . S
C648 H642 0.930 . S
C648 C649 1.355 . S
C648 C650 1.415 . S
C649 C648 1.355 . S
C649 C651 1.419 . S
C650 C648 1.415 . S
C650 C655 1.425 . S
C650 C657 1.409 . S
C651 H643 0.930 . S
C651 C649 1.419 . S
C651 C652 1.362 . S
C652 H644 0.930 . S
C652 C651 1.362 . S
C652 C655 1.409 . S
C653 H645 0.930 . S
C653 C654 1.355 . S
C653 C655 1.415 . S
C654 C653 1.355 . S
C654 C656 1.419 . S
C655 C650 1.425 . S
C655 C652 1.409 . S
C655 C653 1.415 . S
C656 H646 0.930 . S
C656 C654 1.419 . S
C656 C657 1.362 . S
C657 H647 0.930 . S
C657 C650 1.409 . S
C657 C656 1.362 . S
H658 C664 0.930 . S
H659 C667 0.930 . S
H660 C668 0.930 . S
H661 C669 0.930 . S
H662 C672 0.930 . S
H663 C673 0.930 . S
C664 H658 0.930 . S
C664 C665 1.355 . S
C664 C666 1.415 . S
C665 C664 1.355 . S
C665 C667 1.419 . S
C666 C664 1.415 . S
C666 C671 1.425 . S
C666 C673 1.409 . S
C667 H659 0.930 . S
C667 C665 1.419 . S
C667 C668 1.362 . S
C668 H660 0.930 . S
C668 C667 1.362 . S
C668 C671 1.409 . S
C669 H661 0.930 . S
C669 C670 1.355 . S
C669 C671 1.415 . S
C670 C669 1.355 . S
C670 C672 1.419 . S
C671 C666 1.425 . S
C671 C668 1.409 . S
C671 C669 1.415 . S
C672 H662 0.930 . S
C672 C670 1.419 . S
C672 C673 1.362 . S
C673 H663 0.930 . S
C673 C666 1.409 . S
C673 C672 1.362 . S
H674 C680 0.930 . S
H675 C683 0.930 . S
H676 C684 0.930 . S
H677 C685 0.930 . S
H678 C688 0.930 . S
H679 C689 0.930 . S
C680 H674 0.930 . S
C680 C681 1.355 . S
C680 C682 1.415 . S
C681 C680 1.355 . S
C681 C683 1.419 . S
C682 C680 1.415 . S
C682 C687 1.425 . S
C682 C689 1.409 . S
C683 H675 0.930 . S
C683 C681 1.419 . S
C683 C684 1.362 . S
C684 H676 0.930 . S
C684 C683 1.362 . S
C684 C687 1.409 . S
C685 H677 0.930 . S
C685 C686 1.355 . S
C685 C687 1.415 . S
C686 C685 1.355 . S
C686 C688 1.419 . S
C687 C682 1.425 . S
C687 C684 1.409 . S
C687 C685 1.415 . S
C688 H678 0.930 . S
C688 C686 1.419 . S
C688 C689 1.362 . S
C689 H679 0.930 . S
C689 C682 1.409 . S
C689 C688 1.362 . S
H690 C696 0.930 . S
H691 C699 0.930 . S
H692 C700 0.930 . S
H693 C701 0.930 1_554 S
H694 C704 0.930 . S
H695 C705 0.930 . S
C696 H690 0.930 . S
C696 C697 1.355 . S
C696 C698 1.415 . S
C697 C696 1.355 . S
C697 C699 1.419 . S
C698 C696 1.415 . S
C698 C703 1.425 . S
C698 C705 1.409 . S
C699 H691 0.930 . S
C699 C697 1.419 . S
C699 C700 1.362 . S
C700 H692 0.930 . S
C700 C699 1.362 . S
C700 C703 1.409 . S
C701 H693 0.930 1_556 S
C701 C702 1.355 . S
C701 C703 1.415 . S
C702 C701 1.355 . S
C702 C704 1.419 . S
C703 C698 1.425 . S
C703 C700 1.409 . S
C703 C701 1.415 . S
C704 H694 0.930 . S
C704 C702 1.419 . S
C704 C705 1.362 . S
C705 H695 0.930 . S
C705 C698 1.409 . S
C705 C704 1.362 . S
H706 C712 0.930 . S
H707 C715 0.930 . S
H708 C716 0.930 . S
H709 C717 0.930 . S
H710 C720 0.930 . S
H711 C721 0.930 . S
C712 H706 0.930 . S
C712 C713 1.355 . S
C712 C714 1.415 . S
C713 C712 1.355 . S
C713 C715 1.419 . S
C714 C712 1.415 . S
C714 C719 1.425 . S
C714 C721 1.409 . S
C715 H707 0.930 . S
C715 C713 1.419 . S
C715 C716 1.362 . S
C716 H708 0.930 . S
C716 C715 1.362 . S
C716 C719 1.409 . S
C717 H709 0.930 . S
C717 C718 1.355 . S
C717 C719 1.415 . S
C718 C717 1.355 . S
C718 C720 1.419 . S
C719 C714 1.425 . S
C719 C716 1.409 . S
C719 C717 1.415 . S
C720 H710 0.930 . S
C720 C718 1.419 . S
C720 C721 1.362 . S
C721 H711 0.930 . S
C721 C714 1.409 . S
C721 C720 1.362 . S
H722 C728 0.930 . S
H723 C731 0.930 . S
H724 C732 0.930 . S
H725 C733 0.930 . S
H726 C736 0.930 . S
H727 C737 0.930 . S
C728 H722 0.930 . S
C728 C729 1.355 . S
C728 C730 1.415 . S
C729 C728 1.355 . S
C729 C731 1.419 . S
C730 C728 1.415 . S
C730 C735 1.425 . S
C730 C737 1.409 . S
C731 H723 0.930 . S
C731 C729 1.419 . S
C731 C732 1.362 . S
C732 H724 0.930 . S
C732 C731 1.362 . S
C732 C735 1.409 . S
C733 H725 0.930 . S
C733 C734 1.355 . S
C733 C735 1.415 . S
C734 C733 1.355 . S
C734 C736 1.419 . S
C735 C730 1.425 . S
C735 C732 1.409 . S
C735 C733 1.415 . S
C736 H726 0.930 . S
C736 C734 1.419 . S
C736 C737 1.362 . S
C737 H727 0.930 . S
C737 C730 1.409 . S
C737 C736 1.362 . S
H738 C744 0.930 . S
H739 C747 0.930 . S
H740 C748 0.930 . S
H741 C749 0.930 . S
H742 C752 0.930 . S
H743 C753 0.930 . S
C744 H738 0.930 . S
C744 C745 1.355 . S
C744 C746 1.415 . S
C745 C744 1.355 . S
C745 C747 1.419 . S
C746 C744 1.415 . S
C746 C751 1.425 . S
C746 C753 1.409 . S
C747 H739 0.930 . S
C747 C745 1.419 . S
C747 C748 1.362 . S
C748 H740 0.930 . S
C748 C747 1.362 . S
C748 C751 1.409 . S
C749 H741 0.930 . S
C749 C750 1.355 . S
C749 C751 1.415 . S
C750 C749 1.355 . S
C750 C752 1.419 . S
C751 C746 1.425 . S
C751 C748 1.409 . S
C751 C749 1.415 . S
C752 H742 0.930 . S
C752 C750 1.419 . S
C752 C753 1.362 . S
C753 H743 0.930 . S
C753 C746 1.409 . S
C753 C752 1.362 . S
H754 C760 0.930 . S
H755 C763 0.930 . S
H756 C764 0.930 . S
H757 C765 0.930 . S
H758 C768 0.930 . S
H759 C769 0.930 . S
C760 H754 0.930 . S
C760 C761 1.355 . S
C760 C762 1.415 . S
C761 C760 1.355 . S
C761 C763 1.419 . S
C762 C760 1.415 . S
C762 C767 1.425 . S
C762 C769 1.409 . S
C763 H755 0.930 . S
C763 C761 1.419 . S
C763 C764 1.362 . S
C764 H756 0.930 . S
C764 C763 1.362 . S
C764 C767 1.409 . S
C765 H757 0.930 . S
C765 C766 1.355 . S
C765 C767 1.415 . S
C766 C765 1.355 . S
C766 C768 1.419 . S
C767 C762 1.425 . S
C767 C764 1.409 . S
C767 C765 1.415 . S
C768 H758 0.930 . S
C768 C766 1.419 . S
C768 C769 1.362 . S
C769 H759 0.930 . S
C769 C762 1.409 . S
C769 C768 1.362 . S
H770 C776 0.930 . S
H771 C779 0.930 . S
H772 C780 0.930 . S
H773 C781 0.930 . S
H774 C784 0.930 . S
H775 C785 0.930 . S
C776 H770 0.930 . S
C776 C777 1.355 . S
C776 C778 1.415 . S
C777 C776 1.355 . S
C777 C779 1.419 . S
C778 C776 1.415 . S
C778 C783 1.425 . S
C778 C785 1.409 . S
C779 H771 0.930 . S
C779 C777 1.419 . S
C779 C780 1.362 . S
C780 H772 0.930 . S
C780 C779 1.362 . S
C780 C783 1.409 . S
C781 H773 0.930 . S
C781 C782 1.355 . S
C781 C783 1.415 . S
C782 C781 1.355 . S
C782 C784 1.419 . S
C783 C778 1.425 . S
C783 C780 1.409 . S
C783 C781 1.415 . S
C784 H774 0.930 . S
C784 C782 1.419 . S
C784 C785 1.362 . S
C785 H775 0.930 . S
C785 C778 1.409 . S
C785 C784 1.362 . S
H786 C792 0.930 . S
H787 C795 0.930 . S
H788 C796 0.930 . S
H789 C797 0.930 . S
H790 C800 0.930 . S
H791 C801 0.930 . S
C792 H786 0.930 . S
C792 C793 1.355 . S
C792 C794 1.415 . S
C793 C792 1.355 . S
C793 C795 1.419 . S
C794 C792 1.415 . S
C794 C799 1.425 . S
C794 C801 1.409 . S
C795 H787 0.930 . S
C795 C793 1.419 . S
C795 C796 1.362 . S
C796 H788 0.930 . S
C796 C795 1.362 . S
C796 C799 1.409 . S
C797 H789 0.930 . S
C797 C798 1.355 . S
C797 C799 1.415 . S
C798 C797 1.355 . S
C798 C800 1.419 . S
C799 C794 1.425 . S
C799 C796 1.409 . S
C799 C797 1.415 . S
C800 H790 0.930 . S
C800 C798 1.419 . S
C800 C801 1.362 . S
C801 H791 0.930 . S
C801 C794 1.409 . S
C801 C800 1.362 . S
H802 C808 0.930 . S
H803 C811 0.930 . S
H804 C812 0.930 . S
H805 C813 0.930 . S
H806 C816 0.930 . S
H807 C817 0.930 1_554 S
C808 H802 0.930 . S
C808 C809 1.355 . S
C808 C810 1.415 1_554 S
C809 C808 1.355 . S
C809 C811 1.419 1_554 S
C810 C808 1.415 1_556 S
C810 C815 1.425 . S
C810 C817 1.409 . S
C811 H803 0.930 . S
C811 C809 1.419 1_556 S
C811 C812 1.362 . S
C812 H804 0.930 . S
C812 C811 1.362 . S
C812 C815 1.409 . S
C813 H805 0.930 . S
C813 C814 1.355 . S
C813 C815 1.415 . S
C814 C813 1.355 . S
C814 C816 1.419 . S
C815 C810 1.425 . S
C815 C812 1.409 . S
C815 C813 1.415 . S
C816 H806 0.930 . S
C816 C814 1.419 . S
C816 C817 1.362 . S
C817 H807 0.930 1_556 S
C817 C810 1.409 . S
C817 C816 1.362 . S
H818 C824 0.930 . S
H819 C827 0.930 . S
H820 C828 0.930 . S
H821 C829 0.930 . S
H822 C832 0.930 . S
H823 C833 0.930 . S
C824 H818 0.930 . S
C824 C825 1.355 . S
C824 C826 1.415 . S
C825 C824 1.355 . S
C825 C827 1.419 . S
C826 C824 1.415 . S
C826 C831 1.425 . S
C826 C833 1.409 . S
C827 H819 0.930 . S
C827 C825 1.419 . S
C827 C828 1.362 . S
C828 H820 0.930 . S
C828 C827 1.362 . S
C828 C831 1.409 . S
C829 H821 0.930 . S
C829 C830 1.355 . S
C829 C831 1.415 . S
C830 C829 1.355 . S
C830 C832 1.419 . S
C831 C826 1.425 . S
C831 C828 1.409 . S
C831 C829 1.415 . S
C832 H822 0.930 . S
C832 C830 1.419 . S
C832 C833 1.362 . S
C833 H823 0.930 . S
C833 C826 1.409 . S
C833 C832 1.362 . S
C462 C447 1.661 . S
C457 C29 1.612 . S
C473 C115 1.553 . S
C478 C372 1.440 . S
C489 C153 1.548 . S
C494 C395 1.681 . S
C505 C239 1.438 . S
C510 C408 1.448 . S
C526 C411 1.597 . S
C521 C301 1.631 . S
C537 C339 1.761 . S
C542 C424 1.751 . S
C553 C91 1.460 . S
C558 C385 1.496 . S
C569 C177 1.615 . S
C574 C398 1.527 . S
C585 C215 1.451 . S
C590 C421 1.517 . S
C606 C434 1.941 . S
C601 C277 1.789 . S
C622 C437 1.564 . S
C617 C363 1.598 . S
C638 C382 1.588 . S
C633 C53 1.586 . S
C649 C35 1.509 . S
C654 C393 1.497 . S
C665 C109 1.307 . S
C670 C406 1.388 . S
C686 C416 1.437 . S
C681 C159 1.461 . S
C697 C233 1.608 . S
C702 C429 1.654 1_556 S
C718 C445 1.538 . S
C713 C295 1.470 . S
C734 C377 1.337 . S
C729 C345 1.329 . S
C750 C442 1.400 . S
C745 C97 1.386 . S
C761 C171 1.354 . S
C766 C380 1.439 . S
C782 C390 1.532 . S
C777 C221 1.527 . S
C793 C283 1.370 . S
C798 C403 1.307 . S
C809 C357 1.408 . S
C814 C419 1.481 . S
C825 C47 1.581 . S
C830 C432 1.655 . S
