# Generated by pormake.
# Topology zzz, (3,6)-cn, num edge types: 1
# Building blocks:
#     Node 0, Type 0, BuildingBlock: QEWDON_clean_linker_0, # of connection points: 3
#     Node 1, Type 0, BuildingBlock: QEWDON_clean_linker_0, # of connection points: 3
#     Node 2, Type 0, BuildingBlock: QEWDON_clean_linker_0, # of connection points: 3
#     Node 3, Type 0, BuildingBlock: QEWDON_clean_linker_0, # of connection points: 3
#     Node 4, Type 0, BuildingBlock: QEWDON_clean_linker_0, # of connection points: 3
#     Node 5, Type 0, BuildingBlock: QEWDON_clean_linker_0, # of connection points: 3
#     Node 6, Type 0, BuildingBlock: QEWDON_clean_linker_0, # of connection points: 3
#     Node 7, Type 0, BuildingBlock: QEWDON_clean_linker_0, # of connection points: 3
#     Node 8, Type 1, BuildingBlock: PAMTOO_clean_sbu_0, # of connection points: 6
#     Node 9, Type 1, BuildingBlock: PAMTOO_clean_sbu_0, # of connection points: 6
#     Node 10, Type 1, BuildingBlock: PAMTOO_clean_sbu_0, # of connection points: 6
#     Node 11, Type 1, BuildingBlock: PAMTOO_clean_sbu_0, # of connection points: 6
#     Edge 12, Type (0, 1), BuildingBlock: MIFKUJ_clean_linker_0, # of connection points: 2
#     Edge 13, Type (0, 1), BuildingBlock: MIFKUJ_clean_linker_0, # of connection points: 2
#     Edge 14, Type (0, 1), BuildingBlock: MIFKUJ_clean_linker_0, # of connection points: 2
#     Edge 15, Type (0, 1), BuildingBlock: MIFKUJ_clean_linker_0, # of connection points: 2
#     Edge 16, Type (0, 1), BuildingBlock: MIFKUJ_clean_linker_0, # of connection points: 2
#     Edge 17, Type (0, 1), BuildingBlock: MIFKUJ_clean_linker_0, # of connection points: 2
#     Edge 18, Type (0, 1), BuildingBlock: MIFKUJ_clean_linker_0, # of connection points: 2
#     Edge 19, Type (0, 1), BuildingBlock: MIFKUJ_clean_linker_0, # of connection points: 2
#     Edge 20, Type (0, 1), BuildingBlock: MIFKUJ_clean_linker_0, # of connection points: 2
#     Edge 21, Type (0, 1), BuildingBlock: MIFKUJ_clean_linker_0, # of connection points: 2
#     Edge 22, Type (0, 1), BuildingBlock: MIFKUJ_clean_linker_0, # of connection points: 2
#     Edge 23, Type (0, 1), BuildingBlock: MIFKUJ_clean_linker_0, # of connection points: 2
#     Edge 24, Type (0, 1), BuildingBlock: MIFKUJ_clean_linker_0, # of connection points: 2
#     Edge 25, Type (0, 1), BuildingBlock: MIFKUJ_clean_linker_0, # of connection points: 2
#     Edge 26, Type (0, 1), BuildingBlock: MIFKUJ_clean_linker_0, # of connection points: 2
#     Edge 27, Type (0, 1), BuildingBlock: MIFKUJ_clean_linker_0, # of connection points: 2
#     Edge 28, Type (0, 1), BuildingBlock: MIFKUJ_clean_linker_0, # of connection points: 2
#     Edge 29, Type (0, 1), BuildingBlock: MIFKUJ_clean_linker_0, # of connection points: 2
#     Edge 30, Type (0, 1), BuildingBlock: MIFKUJ_clean_linker_0, # of connection points: 2
#     Edge 31, Type (0, 1), BuildingBlock: MIFKUJ_clean_linker_0, # of connection points: 2
#     Edge 32, Type (0, 1), BuildingBlock: MIFKUJ_clean_linker_0, # of connection points: 2
#     Edge 33, Type (0, 1), BuildingBlock: MIFKUJ_clean_linker_0, # of connection points: 2
#     Edge 34, Type (0, 1), BuildingBlock: MIFKUJ_clean_linker_0, # of connection points: 2
#     Edge 35, Type (0, 1), BuildingBlock: MIFKUJ_clean_linker_0, # of connection points: 2
# Relax obj value: 0.129
# Max RMSD: 0.249
# Mean RMSD: 0.079
data_MOF--net-zzz--node1-PAMTOO_clean_sbu_0--node2-QEWDON_clean_linker_0--edge1-MIFKUJ_clean_linker_0
_symmetry_space_group_name_H-M    P1
_symmetry_Int_Tables_number       1
_symmetry_cell_setting            triclinic
loop_
_symmetry_equiv_pos_as_xyz
'x, y, z'
_cell_length_a     76.896133
_cell_length_b     68.784535
_cell_length_c     19.671831
_cell_angle_alpha  90.834671
_cell_angle_beta   81.626931
_cell_angle_gamma 86.854379
loop_
_atom_site_label
_atom_site_type_symbol
_atom_site_fract_x
_atom_site_fract_y
_atom_site_fract_z
_atom_type_partial_charge
H0 H 0.79176 0.53127 0.30848 0.0
C1 C 0.80106 0.52702 0.34265 0.0
C2 C 0.81899 0.52546 0.31633 0.0
C3 C 0.79501 0.52349 0.41201 0.0
H4 H 0.84519 0.5198 0.34118 0.0
C5 C 0.83127 0.52128 0.36117 0.0
C6 C 0.82594 0.51887 0.43172 0.0
C7 C 0.80769 0.51988 0.45711 0.0
C8 C 0.77544 0.52418 0.43533 0.0
H9 H 0.8035 0.51736 0.51105 0.0
C10 C 0.7636 0.51913 0.38948 0.0
C11 C 0.74513 0.52202 0.40777 0.0
C12 C 0.76833 0.53111 0.50159 0.0
H13 H 0.77678 0.53541 0.53796 0.0
C14 C 0.75012 0.5334 0.52102 0.0
H15 H 0.76873 0.51292 0.33923 0.0
C16 C 0.73864 0.52916 0.47459 0.0
H17 H 0.72466 0.53199 0.49086 0.0
H18 H 0.74484 0.53902 0.57197 0.0
H19 H 0.99183 0.73247 0.26968 0.0
C20 C 0.99424 0.74329 0.30713 0.0
C21 C 0.99271 0.76285 0.28963 0.0
C22 C 0.99858 0.73781 0.3717 0.0
H23 H 0.99382 0.79251 0.32402 0.0
C24 C 0.99463 0.77734 0.33821 0.0
C25 C 0.99838 0.77264 0.40377 0.0
C26 C 1.00085 0.75281 0.41981 0.0
C27 C 1.00015 0.7165 0.38819 0.0
H28 H 1.00437 0.74927 0.46963 0.0
C29 C 1.00429 0.70198 0.33531 0.0
C30 C 1.00399 0.68196 0.34982 0.0
C31 C 0.99654 0.71034 0.45649 0.0
H32 H 0.99289 0.72069 0.49874 0.0
C33 C 0.99699 0.69054 0.47142 0.0
H34 H 1.00782 0.70604 0.28241 0.0
C35 C 1.00055 0.67645 0.4187 0.0
H36 H 1.00011 0.66123 0.43182 0.0
H37 H 0.99409 0.68607 0.52421 0.0
H38 H 0.7726 0.99182 0.14199 0.0
C39 C 0.76256 0.99421 0.18634 0.0
C40 C 0.74493 0.99594 0.17555 0.0
C41 C 0.767 0.99472 0.25358 0.0
H42 H 0.71786 0.99938 0.2222 0.0
C43 C 0.73145 0.99825 0.23136 0.0
C44 C 0.73511 0.99908 0.29861 0.0
C45 C 0.75289 0.99744 0.30982 0.0
C46 C 0.78605 0.99121 0.26475 0.0
H47 H 0.75552 0.99848 0.36222 0.0
C48 C 0.80071 0.99441 0.21293 0.0
C49 C 0.81828 0.98928 0.22347 0.0
C50 C 0.78972 0.98335 0.32725 0.0
H51 H 0.77933 0.97985 0.36755 0.0
C52 C 0.80695 0.97914 0.33871 0.0
H53 H 0.79862 1.00046 0.16416 0.0
C54 C 0.82104 0.982 0.28764 0.0
H55 H 0.83424 0.97836 0.29841 0.0
H56 H 0.80941 0.97321 0.38734 0.0
H57 H 0.52873 0.74113 0.06038 0.0
C58 C 0.52857 0.73228 0.1055 0.0
C59 C 0.52078 0.7143 0.10595 0.0
C60 C 0.53685 0.73819 0.16153 0.0
H61 H 0.51633 0.68762 0.15897 0.0
C62 C 0.52171 0.70185 0.16078 0.0
C63 C 0.53067 0.70665 0.2149 0.0
C64 C 0.53746 0.72519 0.21695 0.0
C65 C 0.54618 0.75691 0.15954 0.0
H66 H 0.5438 0.72897 0.26052 0.0
C67 C 0.54093 0.77328 0.12242 0.0
C68 C 0.55042 0.79042 0.1192 0.0
C69 C 0.56107 0.75825 0.1932 0.0
H70 H 0.56623 0.74601 0.21946 0.0
C71 C 0.56997 0.77532 0.19247 0.0
H72 H 0.52969 0.77268 0.09536 0.0
C73 C 0.56469 0.79127 0.15635 0.0
H74 H 0.5719 0.80433 0.15746 0.0
H75 H 0.58122 0.77612 0.21949 0.0
H76 H 0.25553 0.49996 0.17238 0.0
C77 C 0.24722 0.50079 0.13257 0.0
C78 C 0.22979 0.50802 0.15086 0.0
C79 C 0.25389 0.49471 0.06471 0.0
H80 H 0.20472 0.51349 0.1164 0.0
C81 C 0.21838 0.50849 0.10138 0.0
C82 C 0.22414 0.5017 0.03373 0.0
C83 C 0.24199 0.49501 0.01542 0.0
C84 C 0.27305 0.48776 0.04745 0.0
H85 H 0.24648 0.49044 0.96267 0.0
C86 C 0.28588 0.49356 0.08804 0.0
C87 C 0.30352 0.48599 0.075 0.0
C88 C 0.27868 0.47462 0.99202 0.0
H89 H 0.26952 0.46924 0.96044 0.0
C90 C 0.29626 0.46766 0.97738 0.0
H91 H 0.28244 0.50413 0.12967 0.0
C92 C 0.30857 0.47321 0.01848 0.0
H93 H 0.32198 0.46708 0.00707 0.0
H94 H 0.30031 0.45754 0.93464 0.0
H95 H 0.02341 0.27131 0.18818 0.0
C96 C 0.02628 0.26066 0.14642 0.0
C97 C 0.02351 0.24114 0.16095 0.0
C98 C 0.03166 0.26649 0.07847 0.0
H99 H 0.02395 0.21203 0.11888 0.0
C100 C 0.02609 0.22718 0.10758 0.0
C101 C 0.03136 0.2324 0.03972 0.0
C102 C 0.03438 0.25203 0.025 0.0
C103 C 0.03287 0.28779 0.06408 0.0
H104 H 0.03854 0.25592 0.97225 0.0
C105 C 0.03722 0.30105 0.11405 0.0
C106 C 0.03574 0.32141 0.10522 0.0
C107 C 0.02812 0.2953 0.00285 0.0
H108 H 0.02433 0.28584 0.96376 0.0
C109 C 0.02731 0.31532 0.99243 0.0
H110 H 0.04162 0.29553 0.16024 0.0
C111 C 0.03081 0.32827 0.04329 0.0
H112 H 0.02911 0.34371 0.03453 0.0
H113 H 0.02337 0.32089 0.94545 0.0
H114 H 0.27578 0.99061 0.31482 0.0
C115 C 0.28537 0.99518 0.27306 0.0
C116 C 0.30329 0.99392 0.28055 0.0
C117 C 0.28003 1.00072 0.2101 0.0
H118 H 0.3298 0.99784 0.2317 0.0
C119 C 0.31596 0.99889 0.22583 0.0
C120 C 0.31123 0.00459 0.16296 0.0
C121 C 0.29324 0.00566 0.15523 0.0
C122 C 0.26115 0.99901 0.19909 0.0
H123 H 0.28964 0.00997 0.10618 0.0
C124 C 0.24649 0.00293 0.25205 0.0
C125 C 0.22896 1.00019 0.23983 0.0
C126 C 0.25781 0.99208 0.13486 0.0
H127 H 0.26847 0.98823 0.09381 0.0
C128 C 0.24075 0.98921 0.12293 0.0
H129 H 0.24866 0.00836 0.30189 0.0
C130 C 0.22654 0.9931 0.17456 0.0
H131 H 0.21355 0.99016 0.16335 0.0
H132 H 0.23852 0.98362 0.07337 0.0
H133 H 0.52843 0.2755 0.37017 0.0
C134 C 0.52265 0.28451 0.33366 0.0
C135 C 0.52019 0.30467 0.34652 0.0
C136 C 0.51856 0.2763 0.27207 0.0
H137 H 0.51266 0.33236 0.30761 0.0
C138 C 0.51369 0.31671 0.29831 0.0
C139 C 0.50992 0.30912 0.23622 0.0
C140 C 0.51209 0.28889 0.22373 0.0
C141 C 0.52232 0.25498 0.25542 0.0
H142 H 0.50888 0.28311 0.17587 0.0
C143 C 0.52068 0.24066 0.30691 0.0
C144 C 0.52474 0.2207 0.28968 0.0
C145 C 0.52812 0.24885 0.18684 0.0
H146 H 0.53024 0.25924 0.14609 0.0
C147 C 0.53164 0.22921 0.16948 0.0
H148 H 0.51641 0.245 0.3601 0.0
C149 C 0.52989 0.21526 0.2201 0.0
H150 H 0.53256 0.2001 0.20444 0.0
H151 H 0.53589 0.22477 0.11637 0.0
Dy152 Dy 0.0152 0.00828 0.66852 0.0
Dy153 Dy 0.03174 0.99173 0.79926 0.0
C154 C 0.05734 1.00215 0.66386 0.0
O155 O 1.00975 0.97661 0.66736 0.0
O156 O 0.03155 0.96601 0.72782 0.0
O157 O 0.01759 0.01488 0.56056 0.0
O158 O 0.99294 0.02134 0.62686 0.0
O159 O 1.00279 0.98648 0.81825 0.0
O160 O 0.99396 0.01249 0.75994 0.0
O161 O 0.02774 0.02391 0.82212 0.0
O162 O 0.02563 0.03446 0.71331 0.0
O163 O 0.03015 0.98858 0.90911 0.0
O164 O 0.05173 0.97415 0.84031 0.0
C165 C 0.01978 0.96243 0.68781 0.0
O166 O 0.04389 1.00045 0.63007 0.0
O167 O 0.05495 0.00283 0.73141 0.0
C168 C 1.00276 0.04541 0.55059 0.0
C169 C 1.00181 0.08618 0.53784 0.0
C170 C 0.01743 0.07583 0.54827 0.0
C171 C 0.01788 0.05568 0.55499 0.0
C172 C 0.98725 0.05559 0.53877 0.0
C173 C 0.98676 0.07582 0.53251 0.0
C174 C 1.00244 0.02474 0.56843 0.0
C175 C 0.99035 0.9993 0.80657 0.0
C176 C 0.02734 0.038 0.7777 0.0
C177 C 0.0377 0.95562 0.92762 0.0
C178 C 0.02955 0.91651 0.94676 0.0
C179 C 0.01648 0.9306 0.93506 0.0
C180 C 0.02051 0.94993 0.92557 0.0
C181 C 0.05065 0.94178 0.94193 0.0
C182 C 0.0466 0.92234 0.95162 0.0
C183 C 0.04268 0.97476 0.9018 0.0
H184 H 0.02935 0.08329 0.55136 0.0
H185 H 0.02996 0.04823 0.56542 0.0
H186 H 0.97536 0.04798 0.53669 0.0
H187 H 0.97446 0.08338 0.52521 0.0
H188 H 1.00329 0.92657 0.93014 0.0
H189 H 1.01032 0.96022 0.91324 0.0
H190 H 0.06404 0.94582 0.94259 0.0
H191 H 0.05688 0.91182 0.96157 0.0
Dy192 Dy 0.5144 0.99807 0.65567 0.0
Dy193 Dy 0.52814 0.0168 0.78849 0.0
C194 C 0.51938 0.04311 0.66666 0.0
O195 O 0.54389 0.99314 0.62725 0.0
O196 O 0.55236 0.01336 0.70948 0.0
O197 O 0.50208 1.00199 0.56479 0.0
O198 O 0.50794 0.97287 0.59872 0.0
O199 O 0.53607 0.98502 0.78584 0.0
O200 O 0.51269 0.9757 0.73796 0.0
O201 O 0.49993 0.01077 0.82654 0.0
O202 O 0.49034 0.01166 0.72192 0.0
O203 O 0.53275 0.01585 0.89423 0.0
O204 O 0.54022 0.04067 0.83225 0.0
C205 C 0.55615 1.0022 0.65376 0.0
O206 O 0.5233 0.02761 0.62669 0.0
O207 O 0.51612 0.04132 0.73356 0.0
C208 C 0.48011 0.97943 0.56426 0.0
C209 C 0.44426 0.97086 0.57776 0.0
C210 C 0.4492 0.98873 0.60224 0.0
C211 C 0.46688 0.99292 0.59583 0.0
C212 C 0.4753 0.9615 0.54018 0.0
C213 C 0.45753 0.95724 0.54684 0.0
C214 C 0.49885 0.98362 0.56081 0.0
C215 C 0.52525 0.97167 0.77484 0.0
C216 C 0.48699 0.01177 0.78941 0.0
C217 C 0.56072 0.02772 0.89768 0.0
C218 C 0.59736 0.02347 0.89791 0.0
C219 C 0.58861 0.00915 0.86681 0.0
C220 C 0.5705 0.01127 0.86666 0.0
C221 C 0.56927 0.04194 0.92969 0.0
C222 C 0.58747 0.03981 0.93004 0.0
C223 C 0.54228 0.03105 0.8874 0.0
H224 H 0.43939 0.99973 0.6251 0.0
H225 H 0.47016 0.00681 0.6156 0.0
H226 H 0.48529 0.95076 0.51666 0.0
H227 H 0.45421 0.94325 0.52804 0.0
H228 H 0.59583 0.99656 0.84071 0.0
H229 H 0.56422 1.00031 0.8402 0.0
H230 H 0.56197 0.05488 0.95286 0.0
H231 H 0.5938 0.05097 0.95527 0.0
Dy232 Dy 0.54424 0.51416 0.77082 0.0
Dy233 Dy 0.50772 0.50449 0.69478 0.0
C234 C 0.51901 0.4792 0.82405 0.0
O235 O 0.54903 0.48481 0.72066 0.0
O236 O 0.53307 0.49235 0.63532 0.0
O237 O 0.57263 0.51696 0.7598 0.0
O238 O 0.55603 0.52416 0.85709 0.0
O239 O 0.51513 0.53365 0.65865 0.0
O240 O 0.54433 0.5323 0.67536 0.0
O241 O 0.49787 0.52928 0.76779 0.0
O242 O 0.52293 0.53575 0.81608 0.0
O243 O 0.48049 0.49766 0.69326 0.0
O244 O 0.4992 0.49599 0.59915 0.0
C245 C 0.54398 0.48043 0.66192 0.0
O246 O 0.53142 0.49085 0.83554 0.0
O247 O 0.50967 0.4815 0.77327 0.0
C248 C 0.58683 0.51795 0.86165 0.0
C249 C 0.61425 0.51312 0.94434 0.0
C250 C 0.59886 0.50261 0.9574 0.0
C251 C 0.58529 0.50505 0.91674 0.0
C252 C 0.6023 0.52797 0.84732 0.0
C253 C 0.61577 0.52567 0.888 0.0
C254 C 0.57199 0.52314 0.82335 0.0
C255 C 0.5309 0.54048 0.64901 0.0
C256 C 0.50631 0.53933 0.80893 0.0
C257 C 0.4686 0.49921 0.58558 0.0
C258 C 0.44033 0.50273 0.50639 0.0
C259 C 0.45761 0.49721 0.47525 0.0
C260 C 0.47148 0.49546 0.51421 0.0
C261 C 0.45143 0.50512 0.61679 0.0
C262 C 0.43752 0.50693 0.5777 0.0
C263 C 0.48293 0.49408 0.62699 0.0
H264 H 0.59721 0.49257 0.9994 0.0
H265 H 0.57346 0.4972 0.92928 0.0
H266 H 0.60373 0.53823 0.80584 0.0
H267 H 0.62711 0.53435 0.87651 0.0
H268 H 0.46037 0.49347 0.42096 0.0
H269 H 0.4844 0.49039 0.48864 0.0
H270 H 0.44863 0.50786 0.67175 0.0
H271 H 0.42449 0.51143 0.60365 0.0
Dy272 Dy 0.03395 0.51644 0.6683 0.0
Dy273 Dy 0.02021 0.48517 0.78284 0.0
C274 C 0.03301 0.47184 0.62835 0.0
O275 O 1.0046 0.52017 0.67106 0.0
O276 O 0.99666 0.49268 0.73057 0.0
O277 O 0.04714 0.52302 0.56747 0.0
O278 O 0.03876 0.54636 0.64188 0.0
O279 O 1.01066 0.51436 0.82991 0.0
O280 O 0.03291 0.53068 0.77186 0.0
O281 O 0.04725 0.491 0.80494 0.0
O282 O 0.05835 0.50134 0.6983 0.0
O283 O 0.01663 0.47455 0.88653 0.0
O284 O 1.00819 0.45787 0.80435 0.0
C285 C 0.99275 0.50772 0.69378 0.0
O286 O 0.02891 0.48961 0.61042 0.0
O287 O 0.03481 0.46817 0.69232 0.0
C288 C 0.06763 0.54622 0.58356 0.0
C289 C 0.10216 0.55573 0.59714 0.0
C290 C 0.09762 0.53627 0.59789 0.0
C291 C 0.08064 0.53157 0.59081 0.0
C292 C 0.07206 0.56576 0.58252 0.0
C293 C 0.08931 0.57049 0.58846 0.0
C294 C 0.04924 0.54096 0.58582 0.0
C295 C 0.0203 0.52956 0.82394 0.0
C296 C 0.06069 0.49545 0.7598 0.0
C297 C 0.9881 0.46268 0.90489 0.0
C298 C 0.95164 0.47204 0.9317 0.0
C299 C 0.96356 0.48456 0.95429 0.0
C300 C 0.98157 0.4799 0.94136 0.0
C301 C 0.97616 0.44937 0.88743 0.0
C302 C 0.95805 0.45403 0.90058 0.0
C303 C 1.00648 0.46109 0.87056 0.0
H304 H 0.10736 0.52455 0.60236 0.0
H305 H 0.0777 0.51636 0.59171 0.0
H306 H 0.06216 0.57731 0.57792 0.0
H307 H 0.09258 0.58561 0.58673 0.0
H308 H 0.95912 0.49863 0.97792 0.0
H309 H 0.99035 0.49059 0.95525 0.0
H310 H 0.98088 0.43604 0.85901 0.0
H311 H 0.94913 0.44393 0.8839 0.0
H312 H 0.22438 0.99295 0.38004 0.0
H313 H 0.19676 0.99553 0.46088 0.0
H314 H 0.16921 0.01765 0.2996 0.0
H315 H 0.1967 0.01651 0.22116 0.0
H316 H 0.15464 0.03483 0.40495 0.0
H317 H 0.17045 0.96668 0.3595 0.0
H318 H 0.18927 0.93636 0.35589 0.0
H319 H 0.18838 0.94061 0.57439 0.0
H320 H 0.16971 0.97111 0.57914 0.0
H321 H 0.06724 0.0076 0.52547 0.0
H322 H 0.09703 0.00911 0.4623 0.0
H323 H 0.11879 1.00015 0.64999 0.0
H324 H 0.08902 0.99874 0.71366 0.0
H325 H 0.13685 0.97732 0.54153 0.0
H326 H 0.11726 0.04472 0.582 0.0
H327 H 0.09696 0.07354 0.57843 0.0
H328 H 0.10349 0.06889 0.35828 0.0
H329 H 0.12362 0.03979 0.36048 0.0
C330 C 0.21251 0.99877 0.36227 0.0
C331 C 0.21288 0.00412 0.29321 0.0
C332 C 0.19656 0.99995 0.4084 0.0
C333 C 0.1805 0.00622 0.38649 0.0
C334 C 0.18115 0.01255 0.31859 0.0
C335 C 0.19701 0.01168 0.27314 0.0
C336 C 0.16294 0.00591 0.4325 0.0
C337 C 0.1508 0.02211 0.4341 0.0
C338 C 0.15766 0.98958 0.47226 0.0
C339 C 0.16888 0.97128 0.46954 0.0
C340 C 0.17438 0.96122 0.40669 0.0
C341 C 0.185 0.94399 0.40445 0.0
C342 C 0.19006 0.9366 0.46485 0.0
C343 C 0.18448 0.94638 0.52764 0.0
C344 C 0.17387 0.96363 0.53014 0.0
C345 C 0.07833 0.00595 0.55351 0.0
C346 C 0.07558 0.00308 0.62499 0.0
C347 C 0.09543 0.00689 0.51721 0.0
C348 C 0.11031 0.00489 0.55115 0.0
C349 C 0.10762 1.00177 0.62233 0.0
C350 C 0.09052 1.00104 0.65883 0.0
C351 C 0.12861 0.00601 0.51241 0.0
C352 C 0.14082 0.99002 0.51245 0.0
C353 C 0.13382 0.02234 0.47288 0.0
C354 C 0.12184 0.03996 0.47147 0.0
C355 C 0.11427 0.04975 0.53284 0.0
C356 C 0.1028 0.06616 0.53106 0.0
C357 C 0.0989 0.07304 0.46821 0.0
C358 C 0.10651 0.06354 0.40695 0.0
C359 C 0.11796 0.04708 0.40842 0.0
H360 H 0.09002 0.08575 0.46695 0.0
H361 H 0.19828 0.92326 0.46301 0.0
H362 H 0.54755 0.18897 0.29429 0.0
H363 H 0.54416 0.1612 0.36957 0.0
H364 H 0.49717 0.18938 0.48304 0.0
H365 H 0.49999 0.21716 0.40548 0.0
H366 H 0.52637 0.16728 0.56108 0.0
H367 H 0.48643 0.16008 0.39375 0.0
H368 H 0.47896 0.16052 0.27601 0.0
H369 H 0.51997 0.11634 0.21208 0.0
H370 H 0.52786 0.11589 0.32926 0.0
H371 H 0.50411 0.07759 0.72552 0.0
H372 H 0.50296 0.10955 0.67244 0.0
H373 H 0.53296 0.08495 0.4855 0.0
H374 H 0.53346 0.05296 0.5372 0.0
H375 H 0.50874 0.10745 0.45154 0.0
H376 H 0.55047 0.11483 0.60866 0.0
H377 H 0.56099 0.11446 0.72127 0.0
H378 H 0.52036 0.15767 0.8002 0.0
H379 H 0.50946 0.15811 0.68823 0.0
C380 C 0.53642 0.18936 0.33503 0.0
C381 C 0.52383 0.20522 0.34265 0.0
C382 C 0.53462 0.1735 0.37846 0.0
C383 C 0.52036 0.17316 0.4315 0.0
C384 C 0.50829 0.18939 0.44234 0.0
C385 C 0.50996 0.20528 0.39807 0.0
C386 C 0.51765 0.15511 0.47145 0.0
C387 C 0.52215 0.15426 0.53798 0.0
C388 C 0.5127 0.13801 0.44033 0.0
C389 C 0.50783 0.13808 0.37009 0.0
C390 C 0.49395 0.15059 0.35443 0.0
C391 C 0.48962 0.15082 0.28783 0.0
C392 C 0.49901 0.1385 0.23655 0.0
C393 C 0.51272 0.12589 0.25183 0.0
C394 C 0.51711 0.12563 0.31834 0.0
C395 C 0.51047 0.07903 0.67312 0.0
C396 C 0.51887 0.06269 0.63563 0.0
C397 C 0.5099 0.09736 0.64285 0.0
C398 C 0.51806 0.09987 0.57494 0.0
C399 C 0.52648 0.08352 0.53775 0.0
C400 C 0.5268 0.06518 0.56751 0.0
C401 C 0.51768 0.11931 0.54163 0.0
C402 C 0.51269 0.12044 0.47576 0.0
C403 C 0.52248 0.13654 0.5731 0.0
C404 C 0.52903 0.13633 0.64035 0.0
C405 C 0.5437 0.12414 0.6502 0.0
C406 C 0.54975 0.12394 0.71387 0.0
C407 C 0.54132 0.13599 0.76792 0.0
C408 C 0.52686 0.14832 0.75833 0.0
C409 C 0.52074 0.14855 0.69477 0.0
H410 H 0.54601 0.13582 0.81718 0.0
H411 H 0.49565 0.1387 0.18502 0.0
H412 H 0.29946 0.48448 0.21557 0.0
H413 H 0.32171 0.48875 0.29095 0.0
H414 H 0.35928 0.50241 0.11555 0.0
H415 H 0.33725 0.49729 0.03996 0.0
H416 H 0.37511 0.47958 0.18842 0.0
H417 H 0.33776 0.5375 0.24726 0.0
H418 H 0.30972 0.55638 0.285 0.0
H419 H 0.30373 0.52659 0.47657 0.0
H420 H 0.33163 0.50735 0.43963 0.0
H421 H 0.4402 0.51453 0.37302 0.0
H422 H 0.41647 0.5132 0.30324 0.0
H423 H 0.38248 0.49112 0.47502 0.0
H424 H 0.40626 0.49206 0.54502 0.0
H425 H 0.3647 0.51831 0.40659 0.0
H426 H 0.40222 0.46062 0.34615 0.0
H427 H 0.43037 0.44203 0.30778 0.0
H428 H 0.43611 0.4724 0.11734 0.0
H429 H 0.40811 0.49137 0.15501 0.0
C430 C 0.3124 0.48867 0.19326 0.0
C431 C 0.31654 0.4906 0.1217 0.0
C432 C 0.32516 0.49118 0.23653 0.0
C433 C 0.34229 0.4962 0.20962 0.0
C434 C 0.34628 0.4985 0.13813 0.0
C435 C 0.33363 0.49564 0.09478 0.0
C436 C 0.35628 0.4982 0.255 0.0
C437 C 0.37283 0.48836 0.23545 0.0
C438 C 0.35339 0.50916 0.31781 0.0
C439 C 0.33671 0.52085 0.34039 0.0
C440 C 0.33041 0.53489 0.29727 0.0
C441 C 0.31455 0.54567 0.31854 0.0
C442 C 0.30493 0.54265 0.38306 0.0
C443 C 0.31118 0.5289 0.42656 0.0
C444 C 0.32703 0.51806 0.40552 0.0
C445 C 0.42774 0.50926 0.39613 0.0
C446 C 0.42534 0.50325 0.46493 0.0
C447 C 0.41411 0.50858 0.35602 0.0
C448 C 0.39766 0.50182 0.38333 0.0
C449 C 0.395 0.4964 0.45254 0.0
C450 C 0.40866 0.49703 0.49272 0.0
C451 C 0.38346 0.49994 0.33921 0.0
C452 C 0.36691 0.50968 0.35922 0.0
C453 C 0.38635 0.48901 0.27656 0.0
C454 C 0.40315 0.47755 0.25369 0.0
C455 C 0.40955 0.46344 0.29631 0.0
C456 C 0.42547 0.45282 0.27465 0.0
C457 C 0.43505 0.45607 0.21024 0.0
C458 C 0.4287 0.46991 0.16727 0.0
C459 C 0.41279 0.48059 0.18872 0.0
H460 H 0.44737 0.44783 0.19356 0.0
H461 H 0.29264 0.551 0.3994 0.0
H462 H 0.02837 0.31708 0.24579 0.0
H463 H 0.03044 0.34092 0.33645 0.0
H464 H 0.04918 0.38239 0.18439 0.0
H465 H 0.04876 0.35806 0.09373 0.0
H466 H 0.06514 0.3876 0.28545 0.0
H467 H 1.00398 0.38164 0.26976 0.0
H468 H 0.97659 0.36463 0.26894 0.0
H469 H 0.97895 0.34556 0.47446 0.0
H470 H 1.00648 0.36227 0.47618 0.0
H471 H 0.03762 0.47444 0.48805 0.0
H472 H 0.04011 0.4478 0.40252 0.0
H473 H 0.0352 0.40608 0.56462 0.0
H474 H 0.03295 0.43261 0.65054 0.0
H475 H 1.0128 0.4005 0.46297 0.0
H476 H 0.07383 0.40977 0.47656 0.0
H477 H 0.10004 0.42901 0.47357 0.0
H478 H 0.09628 0.44462 0.26544 0.0
H479 H 0.06986 0.42571 0.26754 0.0
C480 C 0.03337 0.33106 0.23128 0.0
C481 C 0.0382 0.33553 0.16159 0.0
C482 C 0.03424 0.3449 0.28353 0.0
C483 C 0.03945 0.36379 0.26766 0.0
C484 C 0.04491 0.36805 0.19845 0.0
C485 C 0.04443 0.3541 0.14628 0.0
C486 C 0.03889 0.37923 0.32261 0.0
C487 C 0.05359 0.3905 0.32366 0.0
C488 C 0.02396 0.38303 0.37361 0.0
C489 C 1.00738 0.37303 0.37281 0.0
C490 C 0.99871 0.37371 0.3146 0.0
C491 C 0.98316 0.36414 0.314 0.0
C492 C 0.97606 0.35398 0.37153 0.0
C493 C 0.98448 0.35341 0.42988 0.0
C494 C 1.00005 0.36294 0.43072 0.0
C495 C 0.03717 0.45959 0.50557 0.0
C496 C 0.03513 0.45567 0.57623 0.0
C497 C 0.03864 0.44438 0.45656 0.0
C498 C 0.03791 0.42493 0.47712 0.0
C499 C 0.03582 0.42097 0.54757 0.0
C500 C 0.03461 0.43616 0.5966 0.0
C501 C 0.03895 0.40878 0.42513 0.0
C502 C 0.02434 0.39745 0.42473 0.0
C503 C 0.05379 0.40522 0.37398 0.0
C504 C 0.06976 0.41647 0.37245 0.0
C505 C 0.0785 0.41744 0.43034 0.0
C506 C 0.09341 0.42826 0.42878 0.0
C507 C 0.09979 0.43807 0.36941 0.0
C508 C 0.0913 0.43703 0.31142 0.0
C509 C 0.07637 0.42625 0.31276 0.0
H510 H 0.11134 0.44645 0.36831 0.0
H511 H 0.96402 0.34657 0.37097 0.0
H512 H 0.82771 0.01981 0.13701 0.0
H513 H 0.85583 0.02277 0.06079 0.0
H514 H 0.8728 0.96469 0.1115 0.0
H515 H 0.845 0.96171 0.18675 0.0
H516 H 0.89793 0.9885 0.12456 0.0
H517 H 0.86119 0.9767 0.95079 0.0
H518 H 0.83607 0.98325 0.88789 0.0
H519 H 0.85417 0.03987 0.83623 0.0
H520 H 0.87928 0.03376 0.89963 0.0
H521 H 0.97638 0.97064 0.8905 0.0
H522 H 0.94668 0.96981 0.95416 0.0
H523 H 0.93315 0.02623 0.87755 0.0
H524 H 0.9627 0.02676 0.81155 0.0
H525 H 0.90605 0.00577 0.87868 0.0
H526 H 0.94261 0.01823 0.04939 0.0
H527 H 0.96774 0.01274 0.11308 0.0
H528 H 0.9498 0.95663 0.17324 0.0
H529 H 0.92469 0.96169 0.10917 0.0
C530 C 0.83731 0.00756 0.13079 0.0
C531 C 0.83407 0.9906 0.16882 0.0
C532 C 0.85346 0.00927 0.08725 0.0
C533 C 0.86669 0.99399 0.08028 0.0
C534 C 0.86307 0.97682 0.11616 0.0
C535 C 0.84706 0.97513 0.15933 0.0
C536 C 0.8846 0.99587 0.03868 0.0
C537 C 0.89964 0.99206 0.07055 0.0
C538 C 0.88709 1.00117 0.96864 0.0
C539 C 0.872 0.00485 0.93063 0.0
C540 C 0.85972 0.99061 0.92654 0.0
C541 C 0.84551 0.99423 0.89069 0.0
C542 C 0.84349 0.01198 0.85827 0.0
C543 C 0.85572 0.02614 0.86148 0.0
C544 C 0.86996 0.0226 0.89733 0.0
C545 C 0.96713 0.98291 0.88715 0.0
C546 C 0.97211 0.99883 0.84596 0.0
C547 C 0.95006 0.98248 0.92409 0.0
C548 C 0.9375 0.99814 0.92238 0.0
C549 C 0.94241 0.01393 0.88041 0.0
C550 C 0.95943 0.01426 0.8427 0.0
C551 C 0.9194 0.99805 0.96433 0.0
C552 C 0.90435 1.00226 0.93272 0.0
C553 C 0.91684 0.99331 0.03497 0.0
C554 C 0.93186 0.99027 0.07398 0.0
C555 C 0.94409 0.00467 0.07587 0.0
C556 C 0.95832 1.00164 0.11207 0.0
C557 C 0.96039 0.98433 0.14705 0.0
C558 C 0.9482 0.97003 0.14606 0.0
C559 C 0.93395 0.97298 0.10988 0.0
H560 H 0.97142 0.982 0.17502 0.0
H561 H 0.83248 0.01476 0.83052 0.0
H562 H 0.51764 0.80602 0.09794 0.0
H563 H 0.5112 0.83573 0.03586 0.0
H564 H 0.56675 0.84347 0.98479 0.0
H565 H 0.57334 0.81359 0.04312 0.0
H566 H 0.54564 0.87702 0.05032 0.0
H567 H 0.5474 0.82953 0.86393 0.0
H568 H 0.53774 0.80036 0.809 0.0
H569 H 0.48506 0.82611 0.82818 0.0
H570 H 0.49437 0.85535 0.88419 0.0
H571 H 0.55388 0.9546 0.82283 0.0
H572 H 0.55627 0.92313 0.87757 0.0
H573 H 0.50223 0.91374 0.85694 0.0
H574 H 0.5001 0.94484 0.79879 0.0
H575 H 0.51947 0.88102 0.83457 0.0
H576 H 0.51621 0.9285 0.01499 0.0
H577 H 0.52396 0.95784 0.0748 0.0
H578 H 0.57626 0.93271 0.07654 0.0
H579 H 0.56889 0.90331 0.01589 0.0
C580 C 0.52849 0.81382 0.07241 0.0
C581 C 0.54602 0.80748 0.07688 0.0
C582 C 0.52478 0.83088 0.03728 0.0
C583 C 0.53851 0.84194 0.00638 0.0
C584 C 0.55595 0.83532 0.00899 0.0
C585 C 0.55966 0.81824 0.04293 0.0
C586 C 0.53498 0.86081 0.97329 0.0
C587 C 0.54003 0.87791 0.00287 0.0
C588 C 0.5271 0.86206 0.91277 0.0
C589 C 0.52153 0.84451 0.87903 0.0
C590 C 0.53372 0.82889 0.85709 0.0
C591 C 0.52832 0.81236 0.82561 0.0
C592 C 0.51079 0.81135 0.81532 0.0
C593 C 0.49863 0.8269 0.83632 0.0
C594 C 0.50396 0.84345 0.86789 0.0
C595 C 0.54251 0.94582 0.82979 0.0
C596 C 0.52677 0.95231 0.80679 0.0
C597 C 0.54384 0.92782 0.86162 0.0
C598 C 0.52929 0.91611 0.87327 0.0
C599 C 0.51365 0.92243 0.84904 0.0
C600 C 0.51243 0.94027 0.81587 0.0
C601 C 0.53045 0.89739 0.91085 0.0
C602 C 0.52493 0.88029 0.88234 0.0
C603 C 0.53758 0.89617 0.97336 0.0
C604 C 0.54204 0.91376 0.01039 0.0
C605 C 0.5294 0.92927 0.02777 0.0
C606 C 0.53372 0.94591 0.06185 0.0
C607 C 0.5506 0.94716 0.07932 0.0
C608 C 0.56319 0.93173 0.06292 0.0
C609 C 0.55894 0.91507 0.02876 0.0
H610 H 0.55392 0.96006 0.10568 0.0
H611 H 0.50663 0.79855 0.79091 0.0
H612 H 0.75015 0.52736 0.26722 0.0
H613 H 0.72922 0.52358 0.18656 0.0
H614 H 0.69033 0.50633 0.35179 0.0
H615 H 0.71153 0.50875 0.43188 0.0
H616 H 0.68705 0.48569 0.24579 0.0
H617 H 0.69124 0.55436 0.28086 0.0
H618 H 0.7062 0.58512 0.28351 0.0
H619 H 0.72529 0.57835 0.06774 0.0
H620 H 0.71062 0.54741 0.06401 0.0
H621 H 0.61054 0.50791 0.08482 0.0
H622 H 0.63334 0.50726 0.15947 0.0
H623 H 0.67277 0.5153 0.9844 0.0
H624 H 0.65023 0.51529 0.9089 0.0
H625 H 0.67613 0.54016 0.09222 0.0
H626 H 0.67021 0.47174 0.05874 0.0
H627 H 0.65418 0.44166 0.05862 0.0
H628 H 0.63696 0.44901 0.27555 0.0
H629 H 0.65269 0.4793 0.27679 0.0
C630 C 0.73728 0.52238 0.28652 0.0
C631 C 0.73265 0.51856 0.35691 0.0
C632 C 0.72515 0.52052 0.24017 0.0
C633 C 0.70789 0.51513 0.26285 0.0
C634 C 0.70343 0.51069 0.33254 0.0
C635 C 0.7156 0.51231 0.37873 0.0
C636 C 0.69442 0.51437 0.21461 0.0
C637 C 0.68457 0.49775 0.21294 0.0
C638 C 0.6912 0.52986 0.17028 0.0
C639 C 0.69999 0.54848 0.17233 0.0
C640 C 0.69873 0.55937 0.23409 0.0
C641 C 0.70714 0.57684 0.23577 0.0
C642 C 0.71673 0.58366 0.17587 0.0
C643 C 0.71788 0.57304 0.11412 0.0
C644 C 0.70951 0.55554 0.11218 0.0
C645 C 0.62408 0.50916 0.06163 0.0
C646 C 0.62835 0.51169 0.9902 0.0
C647 C 0.63715 0.5089 0.10473 0.0
C648 C 0.65487 0.51121 0.07783 0.0
C649 C 0.65922 0.5136 0.0067 0.0
C650 C 0.64621 0.51369 0.96349 0.0
C651 C 0.66879 0.51158 0.12387 0.0
C652 C 0.67869 0.52812 0.12507 0.0
C653 C 0.6719 0.49613 0.16827 0.0
C654 C 0.66248 0.47789 0.16771 0.0
C655 C 0.66288 0.46703 0.10631 0.0
C656 C 0.65387 0.44993 0.10606 0.0
C657 C 0.64451 0.44346 0.167 0.0
C658 C 0.64419 0.45406 0.22837 0.0
C659 C 0.65316 0.47118 0.22888 0.0
H660 H 0.63755 0.43021 0.16671 0.0
H661 H 0.72323 0.59719 0.17728 0.0
H662 H 0.02319 0.64687 0.3423 0.0
H663 H 0.02549 0.62137 0.25271 0.0
H664 H 0.99229 0.65709 0.14005 0.0
H665 H 0.98977 0.68257 0.22985 0.0
H666 H 0.98243 0.61936 0.14586 0.0
H667 H 0.03561 0.65248 0.08645 0.0
H668 H 0.0634 0.66626 0.10667 0.0
H669 H 0.08383 0.60955 0.15464 0.0
H670 H 0.05605 0.59548 0.13563 0.0
H671 H 0.03372 0.56551 0.81608 0.0
H672 H 0.03026 0.59134 0.90398 0.0
H673 H 0.99818 0.55521 0.04267 0.0
H674 H 1.00111 0.52945 0.95363 0.0
H675 H 0.04027 0.59393 0.0226 0.0
H676 H 0.97004 0.5832 0.15803 0.0
H677 H 0.9424 0.57026 0.13183 0.0
H678 H 0.95577 0.585 0.92003 0.0
H679 H 0.9834 0.59825 0.94513 0.0
C680 C 0.01638 0.64932 0.29846 0.0
C681 C 1.00634 0.66684 0.29328 0.0
C682 C 0.01776 0.63474 0.24708 0.0
C683 C 1.0091 0.63729 0.18937 0.0
C684 C 0.99908 0.65475 0.18403 0.0
C685 C 0.9978 0.6694 0.23512 0.0
C686 C 1.01051 0.62175 0.13465 0.0
C687 C 0.99508 0.61379 0.11892 0.0
C688 C 0.02697 0.61455 0.09885 0.0
C689 C 0.04369 0.62296 0.1103 0.0
C690 C 0.04598 0.64298 0.10189 0.0
C691 C 0.06173 0.65083 0.11301 0.0
C692 C 0.07536 0.6388 0.13211 0.0
C693 C 0.07326 0.61886 0.13995 0.0
C694 C 0.05752 0.61094 0.12896 0.0
C695 C 0.02582 0.56305 0.86512 0.0
C696 C 0.01764 0.54538 0.87758 0.0
C697 C 0.02391 0.57787 0.9156 0.0
C698 C 0.01385 0.57542 0.98017 0.0
C699 C 1.00574 0.55771 0.99299 0.0
C700 C 1.00747 0.54292 0.94204 0.0
C701 C 1.01219 0.59137 0.03378 0.0
C702 C 0.0276 0.59941 0.04952 0.0
C703 C 0.99569 0.59882 0.06882 0.0
C704 C 0.97885 0.59154 0.0534 0.0
C705 C 0.96703 0.58379 0.10597 0.0
C706 C 0.95138 0.57638 0.09129 0.0
C707 C 0.94738 0.57673 0.02427 0.0
C708 C 0.95894 0.58466 0.97186 0.0
C709 C 0.97459 0.59212 0.98628 0.0
H710 H 0.93533 0.57086 0.013 0.0
H711 H 0.08755 0.64491 0.14067 0.0
H712 H 0.99589 0.2194 0.2042 0.0
H713 H 0.99005 0.20316 0.31338 0.0
H714 H 0.03233 0.23224 0.38671 0.0
H715 H 0.0384 0.24843 0.2759 0.0
H716 H 0.03717 0.19408 0.39219 0.0
H717 H 0.99062 0.23821 0.47836 0.0
H718 H 0.96442 0.26052 0.47867 0.0
H719 H 0.9341 0.21251 0.43488 0.0
H720 H 0.96015 0.18992 0.43318 0.0
H721 H 0.01762 0.11283 0.61046 0.0
H722 H 0.01952 0.14776 0.58906 0.0
H723 H 0.98671 0.1429 0.43042 0.0
H724 H 0.98515 0.10812 0.44954 0.0
H725 H 0.97918 0.17734 0.51554 0.0
H726 H 0.02906 0.13702 0.39289 0.0
H727 H 0.05595 0.11539 0.38484 0.0
H728 H 0.08068 0.15809 0.49359 0.0
H729 H 0.05368 0.17973 0.50427 0.0
C730 C 1.00362 0.22274 0.24432 0.0
C731 C 0.01771 0.23493 0.2317 0.0
C732 C 1.00015 0.21364 0.30709 0.0
C733 C 1.01065 0.21663 0.3586 0.0
C734 C 0.02399 0.22988 0.34784 0.0
C735 C 0.02743 0.23911 0.28477 0.0
C736 C 1.00963 0.20306 0.41654 0.0
C737 C 0.02461 0.19087 0.42145 0.0
C738 C 0.99326 0.19887 0.45456 0.0
C739 C 0.9774 0.21233 0.45582 0.0
C740 C 0.97839 0.23239 0.46849 0.0
C741 C 0.96355 0.2451 0.46892 0.0
C742 C 0.9476 0.23794 0.45687 0.0
C743 C 0.94646 0.21804 0.4444 0.0
C744 C 0.96126 0.20526 0.44389 0.0
C745 C 1.01079 0.11923 0.57106 0.0
C746 C 1.00142 0.10764 0.53097 0.0
C747 C 1.01177 0.13916 0.55953 0.0
C748 C 1.00333 0.14777 0.50813 0.0
C749 C 0.99319 0.13649 0.47078 0.0
C750 C 0.99232 0.11659 0.48179 0.0
C751 C 1.00643 0.1679 0.48687 0.0
C752 C 0.99186 0.18121 0.48916 0.0
C753 C 0.02321 0.17316 0.45544 0.0
C754 C 0.03919 0.15981 0.4508 0.0
C755 C 0.04009 0.14165 0.41626 0.0
C756 C 0.05538 0.12941 0.41098 0.0
C757 C 0.07 0.13533 0.43885 0.0
C758 C 0.06934 0.15351 0.47209 0.0
C759 C 0.05401 0.16571 0.47814 0.0
H760 H 0.08183 0.12584 0.43465 0.0
H761 H 0.93613 0.2478 0.45718 0.0
H762 H 0.32689 0.96372 0.28618 0.0
H763 H 0.34228 0.955 0.38144 0.0
H764 H 0.30927 0.99745 0.51231 0.0
H765 H 0.2941 0.00674 0.41464 0.0
H766 H 0.34123 0.00329 0.52159 0.0
H767 H 0.31066 0.94697 0.55245 0.0
H768 H 0.29583 0.91764 0.52467 0.0
H769 H 0.34519 0.89082 0.42853 0.0
H770 H 0.36032 0.92007 0.45464 0.0
H771 H 0.41697 0.98063 0.68166 0.0
H772 H 0.38544 0.97951 0.67655 0.0
H773 H 0.39703 0.95143 0.47644 0.0
H774 H 0.42842 0.95297 0.48001 0.0
H775 H 0.3673 0.93728 0.55669 0.0
H776 H 0.39216 1.00182 0.4956 0.0
H777 H 0.4063 0.03091 0.53127 0.0
H778 H 0.36473 0.04098 0.70124 0.0
H779 H 0.3504 0.01194 0.66636 0.0
C780 C 0.32262 0.97087 0.33573 0.0
C781 C 0.30947 0.98603 0.34303 0.0
C782 C 0.33129 0.96571 0.39067 0.0
C783 C 0.32686 0.97536 0.45481 0.0
C784 C 0.31288 0.98971 0.46352 0.0
C785 C 0.30417 0.99495 0.40796 0.0
C786 C 0.33882 0.97241 0.50738 0.0
C787 C 0.34645 0.98879 0.53136 0.0
C788 C 0.34559 0.95357 0.52167 0.0
C789 C 0.33665 0.93578 0.50572 0.0
C790 C 0.31836 0.93487 0.52509 0.0
C791 C 0.3099 0.91824 0.50963 0.0
C792 C 0.31956 0.90237 0.47491 0.0
C793 C 0.33773 0.9031 0.4556 0.0
C794 C 0.34627 0.91969 0.4709 0.0
C795 C 0.41281 0.97402 0.63683 0.0
C796 C 0.42527 0.96715 0.58069 0.0
C797 C 0.39477 0.97322 0.63444 0.0
C798 C 0.38889 0.96547 0.57603 0.0
C799 C 0.40128 0.95735 0.52226 0.0
C800 C 0.41927 0.95824 0.5244 0.0
C801 C 0.37022 0.96807 0.56526 0.0
C802 C 0.36141 0.95165 0.54952 0.0
C803 C 0.36208 0.98682 0.56008 0.0
C804 C 0.37033 0.00468 0.57889 0.0
C805 C 0.38606 0.01028 0.54051 0.0
C806 C 0.3941 0.02674 0.56057 0.0
C807 C 0.38644 0.03777 0.61857 0.0
C808 C 0.37067 0.03243 0.65638 0.0
C809 C 0.36257 0.01599 0.63646 0.0
H810 H 0.39272 0.05047 0.63415 0.0
H811 H 0.31298 0.88952 0.46297 0.0
H812 H 0.55224 0.31801 0.35046 0.0
H813 H 0.55885 0.34421 0.42582 0.0
H814 H 0.50772 0.3407 0.54779 0.0
H815 H 0.5009 0.31492 0.46992 0.0
H816 H 0.51089 0.37541 0.51062 0.0
H817 H 0.54753 0.33223 0.61709 0.0
H818 H 0.57017 0.30604 0.62692 0.0
H819 H 0.60974 0.3401 0.51709 0.0
H820 H 0.5873 0.3664 0.50571 0.0
H821 H 0.55468 0.44799 0.72644 0.0
H822 H 0.55366 0.41424 0.68812 0.0
H823 H 0.53994 0.43378 0.49426 0.0
H824 H 0.54051 0.4676 0.53297 0.0
H825 H 0.56721 0.38915 0.59176 0.0
H826 H 0.50686 0.40776 0.44918 0.0
H827 H 0.48279 0.43315 0.45421 0.0
H828 H 0.48722 0.44608 0.66498 0.0
H829 H 0.51114 0.42064 0.66153 0.0
C830 C 0.5428 0.32221 0.3954 0.0
C831 C 0.52622 0.31431 0.40542 0.0
C832 C 0.54654 0.33724 0.43847 0.0
C833 C 0.53381 0.34448 0.49285 0.0
C834 C 0.51775 0.3354 0.5062 0.0
C835 C 0.51393 0.32051 0.46244 0.0
C836 C 0.53627 0.36321 0.52807 0.0
C837 C 0.52316 0.3783 0.52895 0.0
C838 C 0.55208 0.367 0.55353 0.0
C839 C 0.56569 0.35125 0.56021 0.0
C840 C 0.56103 0.33408 0.59459 0.0
C841 C 0.57384 0.31923 0.60052 0.0
C842 C 0.59138 0.3214 0.57256 0.0
C843 C 0.59615 0.33845 0.53873 0.0
C844 C 0.5834 0.35335 0.53263 0.0
C845 C 0.55186 0.44511 0.67499 0.0
C846 C 0.54742 0.46044 0.63301 0.0
C847 C 0.55122 0.42577 0.65324 0.0
C848 C 0.54614 0.42149 0.58924 0.0
C849 C 0.54339 0.43677 0.5447 0.0
C850 C 0.54381 0.45609 0.56669 0.0
C851 C 0.54215 0.40134 0.57139 0.0
C852 C 0.55491 0.38609 0.57398 0.0
C853 C 0.52571 0.39721 0.55159 0.0
C854 C 0.51094 0.41229 0.55483 0.0
C855 C 0.50265 0.41591 0.49672 0.0
C856 C 0.48902 0.43036 0.49929 0.0
C857 C 0.48349 0.44124 0.55984 0.0
C858 C 0.49152 0.43766 0.61806 0.0
C859 C 0.50512 0.42321 0.6158 0.0
H860 H 0.47296 0.45242 0.56169 0.0
H861 H 0.60127 0.30987 0.57719 0.0
H862 H 0.21045 0.5416 0.19187 0.0
H863 H 0.19919 0.55281 0.30903 0.0
H864 H 0.22422 0.50206 0.38845 0.0
H865 H 0.23517 0.4905 0.27084 0.0
H866 H 0.19117 0.50594 0.44156 0.0
H867 H 0.23727 0.54702 0.42929 0.0
H868 H 0.2592 0.56972 0.38028 0.0
H869 H 0.21794 0.61338 0.36486 0.0
H870 H 0.19571 0.59086 0.41268 0.0
H871 H 0.12425 0.54198 0.68488 0.0
H872 H 0.15633 0.53843 0.65747 0.0
H873 H 0.15418 0.57418 0.48015 0.0
H874 H 0.12228 0.57792 0.5077 0.0
H875 H 0.18653 0.57493 0.52253 0.0
H876 H 0.14605 0.52173 0.46652 0.0
H877 H 0.1245 0.49743 0.50596 0.0
H878 H 0.15697 0.47688 0.65316 0.0
H879 H 0.17873 0.50101 0.61408 0.0
C880 C 0.21361 0.53288 0.23431 0.0
C881 C 0.22356 0.51513 0.22224 0.0
C882 C 0.20746 0.53946 0.30133 0.0
C883 C 0.21118 0.52847 0.35768 0.0
C884 C 0.22142 0.51091 0.34581 0.0
C885 C 0.22762 0.50432 0.27865 0.0
C886 C 0.20205 0.53406 0.42741 0.0
C887 C 0.1907 0.52085 0.46097 0.0
C888 C 0.20155 0.5534 0.45344 0.0
C889 C 0.21479 0.5672 0.42475 0.0
C890 C 0.23284 0.56143 0.41513 0.0
C891 C 0.24534 0.57427 0.38756 0.0
C892 C 0.23996 0.59298 0.36951 0.0
C893 C 0.22208 0.59889 0.37903 0.0
C894 C 0.20952 0.58609 0.40656 0.0
C895 C 0.13075 0.54981 0.64188 0.0
C896 C 0.12083 0.55981 0.59722 0.0
C897 C 0.14907 0.5478 0.62642 0.0
C898 C 0.15759 0.55555 0.56571 0.0
C899 C 0.14789 0.56796 0.52712 0.0
C900 C 0.12959 0.5701 0.54281 0.0
C901 C 0.17493 0.54717 0.53228 0.0
C902 C 0.18784 0.55979 0.50557 0.0
C903 C 0.1771 0.52718 0.51282 0.0
C904 C 0.16392 0.51307 0.53751 0.0
C905 C 0.14855 0.51198 0.5072 0.0
C906 C 0.13635 0.49823 0.52932 0.0
C907 C 0.13945 0.48551 0.58155 0.0
C908 C 0.15468 0.48663 0.61226 0.0
C909 C 0.16695 0.50031 0.59014 0.0
H910 H 0.12999 0.47488 0.59863 0.0
H911 H 0.24966 0.60291 0.34814 0.0
H912 H 1.0115 0.74771 0.17064 0.0
H913 H 0.01582 0.76421 0.0608 0.0
H914 H 0.97494 0.80761 0.1393 0.0
H915 H 0.97031 0.79096 0.24847 0.0
H916 H 0.98039 0.80477 0.99405 0.0
H917 H 0.01377 0.81223 0.18873 0.0
H918 H 0.03205 0.79819 0.27105 0.0
H919 H 0.06997 0.77487 0.10364 0.0
H920 H 0.0517 0.78855 0.02039 0.0
H921 H 0.99985 0.90153 0.01383 0.0
H922 H 0.99294 0.86745 0.02269 0.0
H923 H 0.04286 0.85034 0.90071 0.0
H924 H 0.04977 0.88464 0.89036 0.0
H925 H 0.03744 0.83197 0.02219 0.0
H926 H 1.00632 0.84392 0.83872 0.0
H927 H 0.98629 0.86049 0.76857 0.0
H928 H 0.9422 0.85061 0.92211 0.0
H929 H 0.96195 0.83436 0.99417 0.0
C930 C 1.0028 0.76017 0.1632 0.0
C931 C 0.99094 0.76846 0.21852 0.0
C932 C 1.00526 0.76956 0.10031 0.0
C933 C 0.99601 0.78738 0.09271 0.0
C934 C 0.98229 0.79394 0.14427 0.0
C935 C 0.9798 0.78456 0.20697 0.0
C936 C 1.00355 0.8017 0.04314 0.0
C937 C 0.99293 0.81068 0.99905 0.0
C938 C 0.02015 0.80901 0.04889 0.0
C939 C 0.03133 0.80119 0.09854 0.0
C940 C 0.02599 0.80405 0.1696 0.0
C941 C 0.03632 0.79615 0.21638 0.0
C942 C 0.05215 0.78561 0.19258 0.0
C943 C 0.05769 0.783 0.12196 0.0
C944 C 0.04735 0.7908 0.07497 0.0
C945 C 1.00923 0.89057 0.98774 0.0
C946 C 0.0254 0.89576 0.95172 0.0
C947 C 1.00522 0.87111 0.99248 0.0
C948 C 0.01727 0.85643 0.9613 0.0
C949 C 0.03334 0.86151 0.92456 0.0
C950 C 0.03735 0.88105 0.9195 0.0
C951 C 0.01385 0.83586 0.9756 0.0
C952 C 0.02528 0.82568 0.01359 0.0
C953 C 0.99782 0.82786 0.96515 0.0
C954 C 0.98573 0.83771 0.92192 0.0
C955 C 0.99238 0.84529 0.85784 0.0
C956 C 0.98106 0.85468 0.81767 0.0
C957 C 0.96298 0.85653 0.84071 0.0
C958 C 0.95621 0.84908 0.90415 0.0
C959 C 0.96748 0.83974 0.94467 0.0
H960 H 0.95424 0.86378 0.80948 0.0
H961 H 0.06014 0.7795 0.22885 0.0
H962 H 0.74889 0.02463 0.08273 0.0
H963 H 0.73046 0.03018 0.99232 0.0
H964 H 0.70983 0.97352 0.02658 0.0
H965 H 0.72818 0.96803 0.1169 0.0
H966 H 0.70963 0.98673 0.88806 0.0
H967 H 0.68802 0.00615 0.12642 0.0
H968 H 0.69033 0.02222 0.23736 0.0
H969 H 0.69917 0.07644 0.13598 0.0
H970 H 0.69665 0.06066 0.02439 0.0
H971 H 0.61713 0.99024 0.91621 0.0
H972 H 0.64862 0.98683 0.9211 0.0
H973 H 0.65295 0.04811 0.88311 0.0
H974 H 0.62136 0.05161 0.87696 0.0
H975 H 0.66534 0.03702 0.99889 0.0
H976 H 0.67414 0.01441 0.7643 0.0
H977 H 0.66893 0.99451 0.6644 0.0
H978 H 0.68177 0.94232 0.7676 0.0
H979 H 0.68705 0.96176 0.86807 0.0
C980 C 0.74116 0.01298 0.06809 0.0
C981 C 0.73986 0.99593 0.10626 0.0
C982 C 0.73059 0.01617 0.01676 0.0
C983 C 0.71866 1.00234 0.00348 0.0
C984 C 0.71903 0.98431 0.03578 0.0
C985 C 0.72949 0.98118 0.08731 0.0
C986 C 0.70326 0.00818 0.96987 0.0
C987 C 0.69998 0.99786 0.91148 0.0
C988 C 0.69072 0.02266 0.00078 0.0
C989 C 0.69236 0.03222 0.06726 0.0
C990 C 0.69054 0.02148 0.12786 0.0
C991 C 0.69186 0.03053 0.19081 0.0
C992 C 0.69505 0.05031 0.19368 0.0
C993 C 0.69677 0.06111 0.13363 0.0
C994 C 0.69533 0.05214 0.07056 0.0
C995 C 0.62483 0.00293 0.9072 0.0
C996 C 0.6167 0.02124 0.8968 0.0
C997 C 0.64287 1.00092 0.90961 0.0
C998 C 0.65318 0.01716 0.90151 0.0
C999 C 0.64523 0.03537 0.88906 0.0
C1000 C 0.62716 0.03739 0.88645 0.0
C1001 C 0.67149 0.01557 0.91666 0.0
C1002 C 0.67525 0.02653 0.97281 0.0
C1003 C 0.68415 1.00132 0.88444 0.0
C1004 C 0.68096 0.98958 0.82393 0.0
C1005 C 0.67576 0.99868 0.76591 0.0
C1006 C 0.67281 0.9875 0.70914 0.0
C1007 C 0.67495 0.96721 0.70982 0.0
C1008 C 0.68012 0.95804 0.76713 0.0
C1009 C 0.68316 0.96914 0.8239 0.0
H1010 H 0.67264 0.95861 0.66586 0.0
H1011 H 0.69611 0.05728 0.24247 0.0
H1012 H 0.48668 0.71201 0.08582 0.0
H1013 H 0.47627 0.6863 0.01686 0.0
H1014 H 0.5301 0.66983 0.93119 0.0
H1015 H 0.5402 0.6962 0.99643 0.0
H1016 H 0.51202 0.65895 0.84603 0.0
H1017 H 0.50869 0.65085 0.08858 0.0
H1018 H 0.49949 0.65869 0.21183 0.0
H1019 H 0.44528 0.65492 0.18576 0.0
H1020 H 0.4542 0.64705 0.06224 0.0
H1021 H 0.50861 0.55334 0.93659 0.0
H1022 H 0.50292 0.58717 0.97672 0.0
H1023 H 0.48113 0.60112 0.79209 0.0
H1024 H 0.48661 0.56706 0.75217 0.0
H1025 H 0.47748 0.61513 0.00465 0.0
H1026 H 0.50317 0.64243 0.72799 0.0
H1027 H 0.52475 0.63195 0.62677 0.0
H1028 H 0.55011 0.59138 0.74991 0.0
H1029 H 0.529 0.60187 0.8518 0.0
C1030 C 0.4961 0.70365 0.04882 0.0
C1031 C 0.5142 0.70611 0.04568 0.0
C1032 C 0.49021 0.68871 0.01048 0.0
C1033 C 0.50242 0.67561 0.97065 0.0
C1034 C 0.52035 0.67959 0.96161 0.0
C1035 C 0.52616 0.69481 0.99852 0.0
C1036 C 0.49717 0.65641 0.94676 0.0
C1037 C 0.50408 0.64957 0.88022 0.0
C1038 C 0.48752 0.6437 0.99228 0.0
C1039 C 0.48208 0.64865 0.06615 0.0
C1040 C 0.49481 0.65183 0.10911 0.0
C1041 C 0.48965 0.65624 0.17898 0.0
C1042 C 0.47181 0.65741 0.20651 0.0
C1043 C 0.45909 0.65407 0.16428 0.0
C1044 C 0.46418 0.64961 0.09438 0.0
C1045 C 0.50194 0.56347 0.90593 0.0
C1046 C 0.49799 0.55763 0.84149 0.0
C1047 C 0.49869 0.5828 0.92885 0.0
C1048 C 0.49178 0.59673 0.88706 0.0
C1049 C 0.48653 0.59061 0.82502 0.0
C1050 C 0.48951 0.57113 0.80256 0.0
C1051 C 0.49245 0.61775 0.90426 0.0
C1052 C 0.48469 0.62486 0.96945 0.0
C1053 C 0.50261 0.63018 0.85974 0.0
C1054 C 0.51426 0.62267 0.79715 0.0
C1055 C 0.51324 0.63113 0.73318 0.0
C1056 C 0.52547 0.62528 0.67584 0.0
C1057 C 0.53882 0.61108 0.68219 0.0
C1058 C 0.53976 0.60238 0.74523 0.0
C1059 C 0.52763 0.60822 0.80268 0.0
H1060 H 0.5486 0.60694 0.63864 0.0
H1061 H 0.46784 0.66084 0.26061 0.0
H1062 H 0.80258 0.51319 0.20914 0.0
H1063 H 0.81476 0.51108 0.08766 0.0
H1064 H 0.86132 0.53801 0.13278 0.0
H1065 H 0.84854 0.54191 0.25261 0.0
H1066 H 0.85768 0.54501 0.0059 0.0
H1067 H 0.85423 0.48441 0.14994 0.0
H1068 H 0.83641 0.46014 0.21495 0.0
H1069 H 0.80917 0.45096 0.04245 0.0
H1070 H 0.8268 0.47529 0.97674 0.0
H1071 H 0.93142 0.49192 0.03816 0.0
H1072 H 0.9015 0.50576 0.04217 0.0
H1073 H 0.8988 0.48044 0.84242 0.0
H1074 H 0.92941 0.46729 0.83594 0.0
H1075 H 0.87015 0.47384 0.96982 0.0
H1076 H 0.89648 0.52041 0.82977 0.0
H1077 H 0.91849 0.54308 0.78152 0.0
H1078 H 0.90711 0.57884 0.96488 0.0
H1079 H 0.88554 0.5561 0.01531 0.0
C1080 C 0.81509 0.51942 0.19291 0.0
C1081 C 0.82486 0.52717 0.24127 0.0
C1082 C 0.82209 0.51807 0.12322 0.0
C1083 C 0.8392 0.52377 0.10122 0.0
C1084 C 0.84814 0.5333 0.14827 0.0
C1085 C 0.84097 0.53515 0.21739 0.0
C1086 C 0.84944 0.51657 0.03499 0.0
C1087 C 0.86036 0.52948 0.99686 0.0
C1088 C 0.85214 0.49632 0.01991 0.0
C1089 C 0.84163 0.48172 0.05895 0.0
C1090 C 0.84441 0.47719 0.1261 0.0
C1091 C 0.83435 0.46347 0.16302 0.0
C1092 C 0.82163 0.45405 0.13291 0.0
C1093 C 0.81898 0.45831 0.06575 0.0
C1094 C 0.82899 0.47206 0.02867 0.0
C1095 C 0.92462 0.48947 0.99456 0.0
C1096 C 0.93283 0.4786 0.93664 0.0
C1097 C 0.90755 0.49741 0.99688 0.0
C1098 C 0.89821 0.49442 0.94192 0.0
C1099 C 0.906 0.48305 0.88478 0.0
C1100 C 0.92333 0.47536 0.88176 0.0
C1101 C 0.87983 0.5022 0.94935 0.0
C1102 C 0.86707 0.48943 0.97514 0.0
C1103 C 0.87599 0.52254 0.95559 0.0
C1104 C 0.8891 0.5365 0.92603 0.0
C1105 C 0.8987 0.53304 0.86002 0.0
C1106 C 0.91117 0.5459 0.83233 0.0
C1107 C 0.91418 0.56241 0.87008 0.0
C1108 C 0.90475 0.56605 0.93563 0.0
C1109 C 0.89235 0.55316 0.96374 0.0
H1110 H 0.92384 0.57236 0.84861 0.0
H1111 H 0.81385 0.44343 0.16155 0.0
H1112 H 1.00439 0.2163 0.99016 0.0
H1113 H 1.0052 0.1842 0.93393 0.0
H1114 H 0.06178 0.17986 0.91929 0.0
H1115 H 0.06093 0.21212 0.97587 0.0
H1116 H 0.04887 0.16186 0.80457 0.0
H1117 H 0.04046 0.16162 0.05108 0.0
H1118 H 0.02611 0.17297 0.16621 0.0
H1119 H 0.97682 0.15305 0.12301 0.0
H1120 H 0.99081 0.14193 0.007 0.0
H1121 H 0.03768 0.0517 0.89694 0.0
H1122 H 0.03995 0.08568 0.93223 0.0
H1123 H 0.02119 0.10486 0.74667 0.0
H1124 H 0.01957 0.07111 0.71005 0.0
H1125 H 0.01761 0.11538 0.963 0.0
H1126 H 0.0358 0.14447 0.6929 0.0
H1127 H 0.05091 0.13239 0.57981 0.0
H1128 H 0.08468 0.09371 0.67824 0.0
H1129 H 0.06943 0.10519 0.79183 0.0
C1130 C 0.01704 0.20886 0.97211 0.0
C1131 C 0.03262 0.21678 0.98625 0.0
C1132 C 0.01749 0.19044 0.94063 0.0
C1133 C 0.03353 0.17949 0.92319 0.0
C1134 C 0.04926 0.18805 0.93213 0.0
C1135 C 0.0488 0.20653 0.96395 0.0
C1136 C 0.03357 0.15844 0.9039 0.0
C1137 C 0.04204 0.15172 0.83916 0.0
C1138 C 0.02499 0.14503 0.94954 0.0
C1139 C 0.01665 0.15109 0.0201 0.0
C1140 C 0.02654 0.15975 0.06598 0.0
C1141 C 0.01847 0.16615 0.13139 0.0
C1142 C 1.00056 0.16377 0.15186 0.0
C1143 C 0.9907 0.1549 0.10705 0.0
C1144 C 0.99869 0.14854 0.04145 0.0
C1145 C 0.03414 0.06316 0.86347 0.0
C1146 C 0.02863 0.05859 0.80028 0.0
C1147 C 0.03539 0.08263 0.88383 0.0
C1148 C 0.03107 0.09799 0.8417 0.0
C1149 C 0.02513 0.09341 0.77939 0.0
C1150 C 0.02412 0.074 0.7586 0.0
C1151 C 0.03263 0.11876 0.8629 0.0
C1152 C 0.02448 0.12547 0.92827 0.0
C1153 C 0.04179 0.13206 0.81844 0.0
C1154 C 0.05151 0.12569 0.75058 0.0
C1155 C 0.04654 0.1335 0.69024 0.0
C1156 C 0.05508 0.12669 0.62605 0.0
C1157 C 0.06883 0.11238 0.6216 0.0
C1158 C 0.07402 0.10477 0.6815 0.0
C1159 C 0.06538 0.11134 0.74583 0.0
H1160 H 0.07543 0.10717 0.5718 0.0
H1161 H 0.99433 0.16877 0.20248 0.0
H1162 H 0.32762 0.03827 0.13171 0.0
H1163 H 0.3558 0.04169 0.0574 0.0
H1164 H 0.35718 0.98091 0.9983 0.0
H1165 H 0.32882 0.97777 0.0712 0.0
H1166 H 0.38597 0.02726 0.07012 0.0
H1167 H 0.38431 0.97051 0.84813 0.0
H1168 H 0.3635 0.95891 0.77436 0.0
H1169 H 0.33214 0.01262 0.81163 0.0
H1170 H 0.35281 0.0246 0.88519 0.0
H1171 H 0.47405 1.0022 0.92173 0.0
H1172 H 0.44334 1.00219 0.97568 0.0
H1173 H 0.42651 0.02372 0.78942 0.0
H1174 H 0.45718 0.02281 0.73435 0.0
H1175 H 0.40463 0.99995 0.8346 0.0
H1176 H 0.42715 0.05304 0.94627 0.0
H1177 H 0.44746 0.06979 0.01038 0.0
H1178 H 0.43539 0.03187 0.18016 0.0
H1179 H 0.41517 0.01473 0.11671 0.0
C1180 C 0.33363 0.02588 0.10067 0.0
C1181 C 0.32575 0.0079 0.10579 0.0
C1182 C 0.3499 0.02773 0.05878 0.0
C1183 C 0.35883 0.0116 0.02135 0.0
C1184 C 0.3506 0.99376 0.02494 0.0
C1185 C 0.33429 0.99195 0.06657 0.0
C1186 C 0.37729 0.01301 0.98385 0.0
C1187 C 0.38995 0.02131 0.01849 0.0
C1188 C 0.38274 0.00563 0.91581 0.0
C1189 C 0.37 0.99834 0.87297 0.0
C1190 C 0.37295 0.97982 0.84076 0.0
C1191 C 0.36116 0.97317 0.79904 0.0
C1192 C 0.34646 0.98498 0.78861 0.0
C1193 C 0.34347 0.00344 0.82009 0.0
C1194 C 0.35519 0.01014 0.862 0.0
C1195 C 0.46383 0.00706 0.89233 0.0
C1196 C 0.46822 0.01266 0.8237 0.0
C1197 C 0.44616 0.00715 0.92346 0.0
C1198 C 0.43232 0.01336 0.88763 0.0
C1199 C 0.43673 0.01887 0.81885 0.0
C1200 C 0.45438 0.01844 0.7873 0.0
C1201 C 0.41334 0.01394 0.92136 0.0
C1202 C 0.40061 0.00594 0.88615 0.0
C1203 C 0.40768 0.02219 0.98805 0.0
C1204 C 0.41977 0.0325 0.02648 0.0
C1205 C 0.42891 0.0482 0.99711 0.0
C1206 C 0.44039 0.05777 0.03335 0.0
C1207 C 0.44274 0.05187 0.09923 0.0
C1208 C 0.43357 0.03641 0.12909 0.0
C1209 C 0.42209 0.02678 0.09305 0.0
H1210 H 0.45164 0.0593 0.1272 0.0
H1211 H 0.33743 0.97986 0.75586 0.0
H1212 H 0.5259 0.3103 0.10296 0.0
H1213 H 0.52498 0.33799 0.02621 0.0
H1214 H 0.48457 0.36742 0.17278 0.0
H1215 H 0.48556 0.33988 0.24973 0.0
H1216 H 0.50194 0.35962 0.96132 0.0
H1217 H 0.49543 0.4143 0.19181 0.0
H1218 H 0.50149 0.4147 0.31171 0.0
H1219 H 0.54196 0.36912 0.26122 0.0
H1220 H 0.5364 0.36874 0.14092 0.0
H1221 H 0.49169 0.45488 0.83246 0.0
H1222 H 0.48824 0.42489 0.89659 0.0
H1223 H 0.53735 0.4327 0.97248 0.0
H1224 H 0.54055 0.4631 0.91049 0.0
H1225 H 0.51612 0.42103 0.07121 0.0
H1226 H 0.53264 0.39607 0.83842 0.0
H1227 H 0.53122 0.39085 0.71503 0.0
H1228 H 0.47788 0.37438 0.76247 0.0
H1229 H 0.47908 0.37909 0.88633 0.0
C1230 C 0.51639 0.32237 0.11766 0.0
C1231 C 0.50591 0.323 0.18257 0.0
C1232 C 0.51593 0.33825 0.07391 0.0
C1233 C 0.50499 0.35498 0.09443 0.0
C1234 C 0.49335 0.35483 0.15643 0.0
C1235 C 0.49387 0.33905 0.2002 0.0
C1236 C 0.50705 0.37323 0.05492 0.0
C1237 C 0.50493 0.3731 0.98534 0.0
C1238 C 0.51148 0.39069 0.08572 0.0
C1239 C 0.51535 0.39136 0.1575 0.0
C1240 C 0.5057 0.40447 0.20622 0.0
C1241 C 0.50905 0.40468 0.27426 0.0
C1242 C 0.52207 0.3919 0.29407 0.0
C1243 C 0.53185 0.37898 0.24584 0.0
C1244 C 0.52862 0.37877 0.17774 0.0
C1245 C 0.50173 0.4503 0.86314 0.0
C1246 C 0.51637 0.46153 0.86643 0.0
C1247 C 0.49982 0.43297 0.8993 0.0
C1248 C 0.51268 0.42619 0.93866 0.0
C1249 C 0.52721 0.43752 0.94264 0.0
C1250 C 0.52901 0.45498 0.90718 0.0
C1251 C 0.51082 0.40762 0.97708 0.0
C1252 C 0.51299 0.40767 0.04689 0.0
C1253 C 0.50696 0.38994 0.94586 0.0
C1254 C 0.50589 0.38813 0.87147 0.0
C1255 C 0.52056 0.39153 0.82246 0.0
C1256 C 0.51983 0.38856 0.75249 0.0
C1257 C 0.50446 0.38242 0.73089 0.0
C1258 C 0.48978 0.37917 0.77926 0.0
C1259 C 0.4905 0.38188 0.84935 0.0
H1260 H 0.50393 0.3801 0.67673 0.0
H1261 H 0.52463 0.39202 0.34672 0.0
H1262 H 0.21705 0.47094 0.95319 0.0
H1263 H 0.19196 0.46854 0.88962 0.0
H1264 H 0.17585 0.52856 0.94223 0.0
H1265 H 0.20081 0.53095 0.00554 0.0
H1266 H 0.15828 0.47121 0.94047 0.0
H1267 H 0.1531 0.54862 0.82387 0.0
H1268 H 0.17219 0.57204 0.76051 0.0
H1269 H 0.21147 0.52601 0.69731 0.0
H1270 H 0.19258 0.50231 0.75997 0.0
H1271 H 0.0701 0.49155 0.88856 0.0
H1272 H 0.09949 0.49167 0.92157 0.0
H1273 H 0.12184 0.49753 0.70944 0.0
H1274 H 0.09246 0.49751 0.67607 0.0
H1275 H 0.13862 0.51859 0.77585 0.0
H1276 H 0.12446 0.45274 0.80456 0.0
H1277 H 0.10683 0.42517 0.8451 0.0
H1278 H 0.10964 0.44159 0.05449 0.0
H1279 H 0.12711 0.46942 0.01522 0.0
C1280 C 0.20842 0.48375 0.94962 0.0
C1281 C 0.21097 0.50113 0.98454 0.0
C1282 C 0.19397 0.48234 0.91368 0.0
C1283 C 0.18188 0.49837 0.91074 0.0
C1284 C 0.18497 0.51601 0.94273 0.0
C1285 C 0.19926 0.51735 0.97927 0.0
C1286 C 0.16522 0.49628 0.88034 0.0
C1287 C 0.15404 0.48157 0.90435 0.0
C1288 C 0.15969 0.50938 0.83165 0.0
C1289 C 0.17152 0.52375 0.79741 0.0
C1290 C 0.16586 0.54353 0.79688 0.0
C1291 C 0.17664 0.55685 0.76099 0.0
C1292 C 0.19306 0.55053 0.72511 0.0
C1293 C 0.19878 0.5309 0.72541 0.0
C1294 C 0.18808 0.51754 0.76138 0.0
C1295 C 0.08128 0.49262 0.84864 0.0
C1296 C 0.0788 0.49446 0.77944 0.0
C1297 C 0.09819 0.49261 0.86764 0.0
C1298 C 0.11319 0.4941 0.81791 0.0
C1299 C 0.11067 0.4961 0.74887 0.0
C1300 C 0.09376 0.49617 0.72983 0.0
C1301 C 0.13137 0.49393 0.83791 0.0
C1302 C 0.14283 0.50822 0.812 0.0
C1303 C 0.13742 0.48001 0.88301 0.0
C1304 C 0.12697 0.46326 0.90693 0.0
C1305 C 0.12123 0.45054 0.85926 0.0
C1306 C 0.11127 0.43486 0.88201 0.0
C1307 C 0.10708 0.43166 0.95233 0.0
C1308 C 0.11288 0.4441 4e-05 0.0
C1309 C 0.12283 0.45982 0.97756 0.0
H1310 H 0.09937 0.41951 0.96984 0.0
H1311 H 0.20132 0.56083 0.69692 0.0
H1312 H 0.02522 0.77959 0.47899 0.0
H1313 H 0.02945 0.81018 0.53992 0.0
H1314 H 0.97908 0.83356 0.49742 0.0
H1315 H 0.97479 0.80326 0.43773 0.0
H1316 H 1.00603 0.8569 0.45158 0.0
H1317 H 0.98493 0.82339 0.65954 0.0
H1318 H 0.98513 0.7976 0.74526 0.0
H1319 H 0.03728 0.81104 0.7768 0.0
H1320 H 0.03745 0.83682 0.6908 0.0
H1321 H 0.9941 0.94825 0.62052 0.0
H1322 H 0.99101 0.91472 0.58378 0.0
H1323 H 0.03808 0.89641 0.66642 0.0
H1324 H 0.04089 0.92987 0.70555 0.0
H1325 H 0.0157 0.86957 0.69162 0.0
H1326 H 0.03754 0.90278 0.48911 0.0
H1327 H 0.03881 0.92858 0.40311 0.0
H1328 H 0.98792 0.91494 0.35687 0.0
H1329 H 0.98624 0.88922 0.44332 0.0
C1330 C 0.01486 0.79106 0.48458 0.0
C1331 C 0.99973 0.78905 0.45311 0.0
C1332 C 0.01731 0.80858 0.51913 0.0
C1333 C 1.00464 0.82431 0.52281 0.0
C1334 C 0.98911 0.82177 0.49491 0.0
C1335 C 0.98665 0.80439 0.46087 0.0
C1336 C 1.00801 0.84402 0.54942 0.0
C1337 C 1.00793 0.85968 0.50437 0.0
C1338 C 1.01124 0.84761 0.61741 0.0
C1339 C 1.0113 0.83185 0.66799 0.0
C1340 C 0.99654 0.82066 0.68402 0.0
C1341 C 0.99656 0.8061 0.73286 0.0
C1342 C 1.01125 0.8026 0.76615 0.0
C1343 C 0.02595 0.81368 0.75069 0.0
C1344 C 0.02597 0.82831 0.70203 0.0
C1345 C 1.00383 0.93713 0.63088 0.0
C1346 C 0.01787 0.94191 0.66535 0.0
C1347 C 1.00209 0.91788 0.60956 0.0
C1348 C 0.01452 0.90292 0.62082 0.0
C1349 C 0.02833 0.90758 0.65664 0.0
C1350 C 0.02997 0.92682 0.67872 0.0
C1351 C 1.0132 0.88257 0.59417 0.0
C1352 C 0.01382 0.8668 0.63883 0.0
C1353 C 1.01074 0.87874 0.5253 0.0
C1354 C 1.0117 0.89418 0.47316 0.0
C1355 C 0.02657 0.90537 0.46096 0.0
C1356 C 0.02737 0.91997 0.41208 0.0
C1357 C 1.01344 0.92342 0.37467 0.0
C1358 C 0.99869 0.91226 0.38595 0.0
C1359 C 0.99781 0.89766 0.43484 0.0
H1360 H 0.01409 0.93473 0.33683 0.0
H1361 H 1.0112 0.79139 0.80422 0.0
H1362 H 0.7218 0.97117 0.38609 0.0
H1363 H 0.69227 0.97191 0.45407 0.0
H1364 H 0.68316 0.03173 0.3999 0.0
H1365 H 0.71263 0.03092 0.33208 0.0
H1366 H 0.66753 0.02603 0.53091 0.0
H1367 H 0.6684 0.99707 0.31044 0.0
H1368 H 0.67904 0.97443 0.21319 0.0
H1369 H 0.66506 0.9258 0.34029 0.0
H1370 H 0.65465 0.94819 0.43883 0.0
H1371 H 0.56967 0.99663 0.51628 0.0
H1372 H 0.60061 0.99681 0.46302 0.0
H1373 H 0.61634 1.00248 0.66385 0.0
H1374 H 0.58553 0.00356 0.71615 0.0
H1375 H 0.62887 0.97688 0.45678 0.0
H1376 H 0.65439 0.02588 0.66189 0.0
H1377 H 0.64285 0.05199 0.7459 0.0
H1378 H 0.60175 0.06739 0.62704 0.0
H1379 H 0.61326 0.04156 0.54149 0.0
C1380 C 0.71375 0.98468 0.39096 0.0
C1381 C 0.71971 1.0011 0.35482 0.0
C1382 C 0.69674 0.98505 0.42912 0.0
C1383 C 0.68525 1.00183 0.43187 0.0
C1384 C 0.69165 0.01861 0.39919 0.0
C1385 C 0.70859 0.01819 0.36069 0.0
C1386 C 0.66621 1.00142 0.46356 0.0
C1387 C 0.65911 0.01518 0.51513 0.0
C1388 C 0.65489 0.98782 0.44141 0.0
C1389 C 0.66092 0.97429 0.38223 0.0
C1390 C 0.66772 0.98154 0.31783 0.0
C1391 C 0.6737 0.96876 0.26245 0.0
C1392 C 0.67276 0.94868 0.2706 0.0
C1393 C 0.6658 0.94136 0.33412 0.0
C1394 C 0.65987 0.95409 0.38977 0.0
C1395 C 0.57975 0.99788 0.54897 0.0
C1396 C 0.57502 1.00029 0.62055 0.0
C1397 C 0.59753 0.99797 0.51847 0.0
C1398 C 0.61111 1.00016 0.55877 0.0
C1399 C 0.60635 1.0015 0.63066 0.0
C1400 C 0.58861 1.00194 0.66084 0.0
C1401 C 0.6301 1.00121 0.52592 0.0
C1402 C 0.63723 0.98763 0.47356 0.0
C1403 C 0.64126 0.0155 0.54568 0.0
C1404 C 0.63453 0.03149 0.59583 0.0
C1405 C 0.64291 0.03481 0.65356 0.0
C1406 C 0.63636 0.04958 0.70151 0.0
C1407 C 0.62148 0.06123 0.6922 0.0
C1408 C 0.61322 0.05827 0.63446 0.0
C1409 C 0.61976 0.04356 0.58618 0.0
H1410 H 0.61639 0.07262 0.72954 0.0
H1411 H 0.67738 0.9388 0.22766 0.0
H1412 H 0.52543 0.70775 0.35714 0.0
H1413 H 0.52851 0.68 0.43338 0.0
H1414 H 0.54744 0.6428 0.25669 0.0
H1415 H 0.54445 0.67016 0.18134 0.0
H1416 H 0.52128 0.62693 0.33634 0.0
H1417 H 0.57482 0.65691 0.36645 0.0
H1418 H 0.5927 0.68352 0.39681 0.0
H1419 H 0.56491 0.6856 0.60282 0.0
H1420 H 0.54668 0.65919 0.57342 0.0
H1421 H 0.56166 0.55442 0.58191 0.0
H1422 H 0.56453 0.58281 0.50713 0.0
H1423 H 0.50831 0.59485 0.54727 0.0
H1424 H 0.50532 0.56661 0.62015 0.0
H1425 H 0.5555 0.62228 0.53111 0.0
H1426 H 0.49371 0.61006 0.40229 0.0
H1427 H 0.47682 0.5828 0.36979 0.0
H1428 H 0.52306 0.54417 0.35546 0.0
H1429 H 0.54029 0.57124 0.38684 0.0
C1430 C 0.53053 0.69371 0.33501 0.0
C1431 C 0.53446 0.69106 0.26331 0.0
C1432 C 0.53227 0.67787 0.37844 0.0
C1433 C 0.53809 0.65924 0.35069 0.0
C1434 C 0.54274 0.65692 0.27935 0.0
C1435 C 0.54102 0.6726 0.23633 0.0
C1436 C 0.53842 0.64178 0.39453 0.0
C1437 C 0.5287 0.62599 0.37918 0.0
C1438 C 0.5483 0.64034 0.44979 0.0
C1439 C 0.55925 0.65622 0.46749 0.0
C1440 C 0.57241 0.66317 0.41805 0.0
C1441 C 0.58263 0.67819 0.43513 0.0
C1442 C 0.57991 0.68629 0.50164 0.0
C1443 C 0.56698 0.67934 0.55128 0.0
C1444 C 0.55671 0.66434 0.53445 0.0
C1445 C 0.54995 0.56315 0.57472 0.0
C1446 C 0.53325 0.55805 0.60625 0.0
C1447 C 0.55159 0.57934 0.53197 0.0
C1448 C 0.5366 0.59079 0.52067 0.0
C1449 C 0.52003 0.58604 0.55394 0.0
C1450 C 0.51836 0.56985 0.5958 0.0
C1451 C 0.53797 0.60769 0.47405 0.0
C1452 C 0.54799 0.6233 0.48868 0.0
C1453 C 0.52841 0.60899 0.41781 0.0
C1454 C 0.51825 0.59266 0.39755 0.0
C1455 C 0.5003 0.59577 0.39186 0.0
C1456 C 0.49066 0.58035 0.37369 0.0
C1457 C 0.49885 0.56175 0.36079 0.0
C1458 C 0.51672 0.55856 0.36572 0.0
C1459 C 0.52642 0.57394 0.38376 0.0
H1460 H 0.49135 0.54983 0.34686 0.0
H1461 H 0.58784 0.69791 0.51477 0.0
H1462 H 0.85187 0.48985 0.41776 0.0
H1463 H 0.87835 0.48758 0.47313 0.0
H1464 H 0.85934 0.53859 0.59782 0.0
H1465 H 0.83251 0.54052 0.54322 0.0
H1466 H 0.90322 0.51041 0.46381 0.0
H1467 H 0.87982 0.5421 0.7357 0.0
H1468 H 0.85502 0.54158 0.83058 0.0
H1469 H 0.84116 0.48641 0.75582 0.0
H1470 H 0.86604 0.4865 0.66112 0.0
H1471 H 0.97978 0.53362 0.60485 0.0
H1472 H 0.95038 0.53581 0.57047 0.0
H1473 H 0.93475 0.48919 0.70612 0.0
H1474 H 0.96395 0.48711 0.74145 0.0
H1475 H 0.90819 0.51481 0.71171 0.0
H1476 H 0.94683 0.4818 0.52868 0.0
H1477 H 0.97292 0.47726 0.43966 0.0
H1478 H 0.95628 0.52843 0.33845 0.0
H1479 H 0.93019 0.53343 0.42748 0.0
C1480 C 0.85311 0.50027 0.45836 0.0
C1481 C 0.83998 0.51529 0.47634 0.0
C1482 C 0.86838 0.49908 0.48972 0.0
C1483 C 0.87112 0.51293 0.53987 0.0
C1484 C 0.85762 0.52749 0.5602 0.0
C1485 C 0.8422 0.52858 0.52905 0.0
C1486 C 0.88862 0.51286 0.56611 0.0
C1487 C 0.90418 0.51147 0.51819 0.0
C1488 C 0.89024 0.51408 0.63696 0.0
C1489 C 0.87471 0.51438 0.69125 0.0
C1490 C 0.87143 0.5299 0.73945 0.0
C1491 C 0.85739 0.52967 0.79323 0.0
C1492 C 0.84651 0.51398 0.79919 0.0
C1493 C 0.84958 0.49856 0.7511 0.0
C1494 C 0.86364 0.49871 0.6973 0.0
C1495 C 0.97008 0.5239 0.62779 0.0
C1496 C 0.97446 0.51005 0.67551 0.0
C1497 C 0.95322 0.5251 0.60773 0.0
C1498 C 0.94026 0.51243 0.63452 0.0
C1499 C 0.94441 0.49909 0.6841 0.0
C1500 C 0.96125 0.49786 0.70409 0.0
C1501 C 0.92263 0.51262 0.60954 0.0
C1502 C 0.90711 0.51403 0.65749 0.0
C1503 C 0.92102 0.51107 0.53878 0.0
C1504 C 0.93667 0.5081 0.48514 0.0
C1505 C 0.94881 0.49217 0.48773 0.0
C1506 C 0.96358 0.4895 0.43723 0.0
C1507 C 0.96628 0.50258 0.38354 0.0
C1508 C 0.95418 0.51833 0.38015 0.0
C1509 C 0.9394 0.52108 0.43059 0.0
H1510 H 0.97772 0.50049 0.34448 0.0
H1511 H 0.83571 0.51376 0.84112 0.0
loop_
_geom_bond_atom_site_label_1
_geom_bond_atom_site_label_2
_geom_bond_distance
_geom_bond_site_symmetry_2
_ccdc_geom_bond_type
H0 C1 0.949 . S
C1 H0 0.949 . S
C1 C2 1.395 . S
C1 C3 1.391 . S
C2 C1 1.395 . S
C2 C5 1.390 . S
C3 C1 1.391 . S
C3 C7 1.387 . S
C3 C8 1.491 . S
H4 C5 0.950 . S
C5 C2 1.390 . S
C5 H4 0.950 . S
C5 C6 1.378 . S
C6 C5 1.378 . S
C6 C7 1.409 . S
C7 C3 1.387 . S
C7 C6 1.409 . S
C7 H9 0.951 . S
C8 C3 1.491 . S
C8 C10 1.382 . S
C8 C12 1.404 . S
H9 C7 0.951 . S
C10 C8 1.382 . S
C10 C11 1.390 . S
C10 H15 0.949 . S
C11 C10 1.390 . S
C11 C16 1.399 . S
C12 C8 1.404 . S
C12 H13 0.950 . S
C12 C14 1.375 . S
H13 C12 0.950 . S
C14 C12 1.375 . S
C14 C16 1.382 . S
C14 H18 0.950 . S
H15 C10 0.949 . S
C16 C11 1.399 . S
C16 C14 1.382 . S
C16 H17 0.952 . S
H17 C16 0.952 . S
H18 C14 0.950 . S
H19 C20 0.949 . S
C20 H19 0.949 . S
C20 C21 1.395 . S
C20 C22 1.391 . S
C21 C20 1.395 . S
C21 C24 1.390 . S
C22 C20 1.391 . S
C22 C26 1.387 . S
C22 C27 1.491 . S
H23 C24 0.950 . S
C24 C21 1.390 . S
C24 H23 0.950 . S
C24 C25 1.378 . S
C25 C24 1.378 . S
C25 C26 1.409 . S
C26 C22 1.387 . S
C26 C25 1.409 . S
C26 H28 0.951 . S
C27 C22 1.491 . S
C27 C29 1.382 . S
C27 C31 1.404 . S
H28 C26 0.951 . S
C29 C27 1.382 . S
C29 C30 1.390 . S
C29 H34 0.912 1_655 S
C30 C29 1.390 . S
C30 C35 1.399 . S
C31 C27 1.404 . S
C31 H32 0.950 . S
C31 C33 1.375 . S
H32 C31 0.950 . S
C33 C31 1.375 . S
C33 C35 1.382 . S
C33 H37 0.950 . S
H34 C29 0.912 1_455 S
C35 C30 1.399 . S
C35 C33 1.382 . S
C35 H36 0.952 . S
H36 C35 0.952 . S
H37 C33 0.950 . S
H38 C39 0.949 . S
C39 H38 0.949 . S
C39 C40 1.395 . S
C39 C41 1.391 . S
C40 C39 1.395 . S
C40 C43 1.390 . S
C41 C39 1.391 . S
C41 C45 1.387 . S
C41 C46 1.491 . S
H42 C43 0.950 . S
C43 C40 1.390 . S
C43 H42 0.950 . S
C43 C44 1.378 . S
C44 C43 1.378 . S
C44 C45 1.409 . S
C45 C41 1.387 . S
C45 C44 1.409 . S
C45 H47 0.951 . S
C46 C41 1.491 . S
C46 C48 1.382 . S
C46 C50 1.404 . S
H47 C45 0.951 . S
C48 C46 1.382 . S
C48 C49 1.390 . S
C48 H53 0.949 1_565 S
C49 C48 1.390 . S
C49 C54 1.399 . S
C50 C46 1.404 . S
C50 H51 0.950 . S
C50 C52 1.375 . S
H51 C50 0.950 . S
C52 C50 1.375 . S
C52 C54 1.382 . S
C52 H56 0.950 . S
H53 C48 0.949 1_545 S
C54 C49 1.399 . S
C54 C52 1.382 . S
C54 H55 0.952 . S
H55 C54 0.952 . S
H56 C52 0.950 . S
H57 C58 0.949 . S
C58 H57 0.949 . S
C58 C59 1.395 . S
C58 C60 1.391 . S
C59 C58 1.395 . S
C59 C62 1.390 . S
C60 C58 1.391 . S
C60 C64 1.387 . S
C60 C65 1.491 . S
H61 C62 0.950 . S
C62 C59 1.390 . S
C62 H61 0.950 . S
C62 C63 1.378 . S
C63 C62 1.378 . S
C63 C64 1.409 . S
C64 C60 1.387 . S
C64 C63 1.409 . S
C64 H66 0.951 . S
C65 C60 1.491 . S
C65 C67 1.382 . S
C65 C69 1.404 . S
H66 C64 0.951 . S
C67 C65 1.382 . S
C67 C68 1.390 . S
C67 H72 0.949 . S
C68 C67 1.390 . S
C68 C73 1.399 . S
C69 C65 1.404 . S
C69 H70 0.950 . S
C69 C71 1.375 . S
H70 C69 0.950 . S
C71 C69 1.375 . S
C71 C73 1.382 . S
C71 H75 0.950 . S
H72 C67 0.949 . S
C73 C68 1.399 . S
C73 C71 1.382 . S
C73 H74 0.952 . S
H74 C73 0.952 . S
H75 C71 0.950 . S
H76 C77 0.949 . S
C77 H76 0.949 . S
C77 C78 1.395 . S
C77 C79 1.391 1_554 S
C78 C77 1.395 . S
C78 C81 1.390 1_554 S
C79 C77 1.391 1_556 S
C79 C83 1.387 . S
C79 C84 1.491 . S
H80 C81 0.950 . S
C81 C78 1.390 1_556 S
C81 H80 0.950 . S
C81 C82 1.378 . S
C82 C81 1.378 . S
C82 C83 1.409 . S
C83 C79 1.387 . S
C83 C82 1.409 . S
C83 H85 0.951 . S
C84 C79 1.491 . S
C84 C86 1.382 1_556 S
C84 C88 1.404 . S
H85 C83 0.951 . S
C86 C84 1.382 1_554 S
C86 C87 1.390 . S
C86 H91 0.949 . S
C87 C86 1.390 . S
C87 C92 1.399 1_554 S
C88 C84 1.404 . S
C88 H89 0.950 . S
C88 C90 1.375 . S
H89 C88 0.950 . S
C90 C88 1.375 . S
C90 C92 1.382 . S
C90 H94 0.950 . S
H91 C86 0.949 . S
C92 C87 1.399 1_556 S
C92 C90 1.382 . S
C92 H93 0.952 . S
H93 C92 0.952 . S
H94 C90 0.950 . S
H95 C96 0.949 . S
C96 H95 0.949 . S
C96 C97 1.395 . S
C96 C98 1.391 . S
C97 C96 1.395 . S
C97 C100 1.390 . S
C98 C96 1.391 . S
C98 C102 1.387 . S
C98 C103 1.491 . S
H99 C100 0.950 . S
C100 C97 1.390 . S
C100 H99 0.950 . S
C100 C101 1.378 . S
C101 C100 1.378 . S
C101 C102 1.409 . S
C102 C98 1.387 . S
C102 C101 1.409 . S
C102 H104 0.951 1_554 S
C103 C98 1.491 . S
C103 C105 1.382 . S
C103 C107 1.404 . S
H104 C102 0.951 1_556 S
C105 C103 1.382 . S
C105 C106 1.390 . S
C105 H110 0.949 . S
C106 C105 1.390 . S
C106 C111 1.399 . S
C107 C103 1.404 . S
C107 H108 0.920 1_455 S
C107 C109 1.383 . S
H108 C107 0.920 1_655 S
C109 C107 1.383 . S
C109 C111 1.411 . S
C109 H113 0.915 1_455 S
H110 C105 0.949 . S
C111 C106 1.399 . S
C111 C109 1.411 . S
C111 H112 0.952 . S
H112 C111 0.952 . S
H113 C109 0.915 1_655 S
H114 C115 0.949 . S
C115 H114 0.949 . S
C115 C116 1.395 . S
C115 C117 1.391 . S
C116 C115 1.395 . S
C116 C119 1.390 . S
C117 C115 1.391 . S
C117 C121 1.387 . S
C117 C122 1.479 1_545 S
H118 C119 0.950 . S
C119 C116 1.390 . S
C119 H118 0.950 . S
C119 C120 1.378 . S
C120 C119 1.378 . S
C120 C121 1.409 . S
C121 C117 1.387 . S
C121 C120 1.409 . S
C121 H123 0.951 . S
C122 C117 1.479 1_565 S
C122 C124 1.363 1_565 S
C122 C126 1.438 . S
H123 C121 0.951 . S
C124 C122 1.363 1_545 S
C124 C125 1.390 . S
C124 H129 0.949 . S
C125 C124 1.390 . S
C125 C130 1.399 1_545 S
C126 C122 1.438 . S
C126 H127 0.950 . S
C126 C128 1.375 . S
H127 C126 0.950 . S
C128 C126 1.375 . S
C128 C130 1.382 . S
C128 H132 0.950 . S
H129 C124 0.949 . S
C130 C125 1.399 1_565 S
C130 C128 1.382 . S
C130 H131 0.952 . S
H131 C130 0.952 . S
H132 C128 0.950 . S
H133 C134 0.949 . S
C134 H133 0.949 . S
C134 C135 1.395 . S
C134 C136 1.391 . S
C135 C134 1.395 . S
C135 C138 1.390 . S
C136 C134 1.391 . S
C136 C140 1.387 . S
C136 C141 1.491 . S
H137 C138 0.950 . S
C138 C135 1.390 . S
C138 H137 0.950 . S
C138 C139 1.378 . S
C139 C138 1.378 . S
C139 C140 1.409 . S
C140 C136 1.387 . S
C140 C139 1.409 . S
C140 H142 0.951 . S
C141 C136 1.491 . S
C141 C143 1.382 . S
C141 C145 1.404 . S
H142 C140 0.951 . S
C143 C141 1.382 . S
C143 C144 1.390 . S
C143 H148 0.949 . S
C144 C143 1.390 . S
C144 C149 1.399 . S
C145 C141 1.404 . S
C145 H146 0.950 . S
C145 C147 1.375 . S
H146 C145 0.950 . S
C147 C145 1.375 . S
C147 C149 1.382 . S
C147 H151 0.950 . S
H148 C143 0.949 . S
C149 C144 1.399 . S
C149 C147 1.382 . S
C149 H150 0.952 . S
H150 C149 0.952 . S
H151 C147 0.950 . S
Dy152 O155 2.302 1_445 S
Dy152 O157 2.395 . S
Dy152 O158 2.379 1_455 S
Dy152 O160 2.339 1_455 S
Dy152 O162 2.298 . S
Dy152 O166 2.275 . S
Dy152 C174 2.738 . S
Dy153 O156 2.298 . S
Dy153 O159 2.290 1_455 S
Dy153 O161 2.307 1_565 S
Dy153 O163 2.395 . S
Dy153 O164 2.379 . S
Dy153 O167 2.339 . S
Dy153 C183 2.738 . S
C154 O166 1.255 . S
C154 O167 1.255 1_545 S
O155 Dy152 2.302 1_665 S
O155 C165 1.251 1_655 S
O156 Dy153 2.298 . S
O156 C165 1.236 . S
O157 Dy152 2.395 . S
O157 C174 1.255 . S
O158 Dy152 2.379 1_655 S
O158 C174 1.249 1_655 S
O159 Dy153 2.290 1_655 S
O159 C175 1.244 1_565 S
O160 Dy152 2.339 1_655 S
O160 C175 1.257 . S
O161 Dy153 2.307 1_545 S
O161 C176 1.266 . S
O162 Dy152 2.298 . S
O162 C176 1.236 . S
O163 Dy153 2.395 . S
O163 C183 1.255 . S
O164 Dy153 2.379 . S
O164 C183 1.249 . S
C165 O155 1.251 1_455 S
C165 O156 1.236 . S
O166 Dy152 2.275 . S
O166 C154 1.255 . S
O167 Dy153 2.339 . S
O167 C154 1.255 1_565 S
C168 C171 1.344 . S
C168 C172 1.328 1_455 S
C168 C174 1.516 . S
C169 C170 1.304 . S
C169 C173 1.323 1_455 S
C170 C169 1.304 . S
C170 C171 1.371 . S
C170 H184 0.930 . S
C171 C168 1.344 . S
C171 C170 1.371 . S
C171 H185 0.931 . S
C172 C168 1.328 1_655 S
C172 C173 1.433 . S
C172 H186 0.931 . S
C173 C169 1.323 1_655 S
C173 C172 1.433 . S
C173 H187 0.933 . S
C174 Dy152 2.738 . S
C174 O157 1.255 . S
C174 O158 1.249 1_455 S
C174 C168 1.516 . S
C175 O159 1.244 1_545 S
C175 O160 1.257 . S
C176 O161 1.266 . S
C176 O162 1.236 . S
C177 C180 1.344 . S
C177 C181 1.328 . S
C177 C183 1.516 . S
C178 C179 1.340 . S
C178 C182 1.323 . S
C179 C178 1.340 . S
C179 C180 1.371 . S
C179 H188 0.893 1_455 S
C180 C177 1.344 . S
C180 C179 1.371 . S
C180 H189 0.931 1_455 S
C181 C177 1.328 . S
C181 C182 1.433 . S
C181 H190 0.931 . S
C182 C178 1.323 . S
C182 C181 1.433 . S
C182 H191 0.933 . S
C183 Dy153 2.738 . S
C183 O163 1.255 . S
C183 O164 1.249 . S
C183 C177 1.516 . S
H184 C170 0.930 . S
H185 C171 0.931 . S
H186 C172 0.931 . S
H187 C173 0.933 . S
H188 C179 0.893 1_655 S
H189 C180 0.931 1_655 S
H190 C181 0.931 . S
H191 C182 0.933 . S
Dy192 O195 2.307 . S
Dy192 O197 2.395 1_565 S
Dy192 O198 2.379 . S
Dy192 O200 2.339 . S
Dy192 O202 2.298 . S
Dy192 O206 2.275 1_565 S
Dy192 C214 2.738 . S
Dy193 O196 2.298 . S
Dy193 O199 2.275 1_545 S
Dy193 O201 2.307 . S
Dy193 O203 2.395 1_545 S
Dy193 O204 2.379 . S
Dy193 O207 2.339 . S
Dy193 C223 2.738 . S
C194 O206 1.254 . S
C194 O207 1.257 . S
O195 Dy192 2.307 . S
O195 C205 1.266 . S
O196 Dy193 2.298 . S
O196 C205 1.236 1_545 S
O197 Dy192 2.395 1_545 S
O197 C214 1.255 1_545 S
O198 Dy192 2.379 . S
O198 C214 1.249 . S
O199 Dy193 2.275 1_565 S
O199 C215 1.254 . S
O200 Dy192 2.339 . S
O200 C215 1.257 . S
O201 Dy193 2.307 . S
O201 C216 1.266 . S
O202 Dy192 2.298 . S
O202 C216 1.236 1_565 S
O203 Dy193 2.395 1_565 S
O203 C223 1.255 1_565 S
O204 Dy193 2.379 . S
O204 C223 1.249 . S
C205 O195 1.266 . S
C205 O196 1.236 1_565 S
O206 Dy192 2.275 1_545 S
O206 C194 1.254 . S
O207 Dy193 2.339 . S
O207 C194 1.257 . S
C208 C211 1.344 1_565 S
C208 C212 1.328 . S
C208 C214 1.516 . S
C209 C210 1.304 1_565 S
C209 C213 1.323 . S
C210 C209 1.304 1_545 S
C210 C211 1.371 . S
C210 H224 0.930 . S
C211 C208 1.344 1_545 S
C211 C210 1.371 . S
C211 H225 0.931 . S
C212 C208 1.328 . S
C212 C213 1.433 . S
C212 H226 0.931 . S
C213 C209 1.323 . S
C213 C212 1.433 . S
C213 H227 0.933 . S
C214 Dy192 2.738 . S
C214 O197 1.255 1_565 S
C214 O198 1.249 . S
C214 C208 1.516 . S
C215 O199 1.254 . S
C215 O200 1.257 . S
C216 O201 1.266 . S
C216 O202 1.236 1_545 S
C217 C220 1.344 1_545 S
C217 C221 1.328 . S
C217 C223 1.516 . S
C218 C219 1.304 1_545 S
C218 C222 1.323 . S
C219 C218 1.304 1_565 S
C219 C220 1.371 . S
C219 H228 0.930 . S
C220 C217 1.344 1_565 S
C220 C219 1.371 . S
C220 H229 0.931 . S
C221 C217 1.328 . S
C221 C222 1.433 . S
C221 H230 0.931 . S
C222 C218 1.323 . S
C222 C221 1.433 . S
C222 H231 0.933 . S
C223 Dy193 2.738 . S
C223 O203 1.255 1_545 S
C223 O204 1.249 . S
C223 C217 1.516 . S
H224 C210 0.930 . S
H225 C211 0.931 . S
H226 C212 0.931 . S
H227 C213 0.933 . S
H228 C219 0.930 . S
H229 C220 0.931 . S
H230 C221 0.931 . S
H231 C222 0.933 . S
Dy232 O235 2.307 . S
Dy232 O237 2.395 . S
Dy232 O238 2.379 . S
Dy232 O240 2.339 . S
Dy232 O242 2.298 . S
Dy232 O246 2.275 . S
Dy232 C254 2.738 . S
Dy233 O236 2.298 . S
Dy233 O239 2.275 . S
Dy233 O241 2.307 . S
Dy233 O243 2.395 . S
Dy233 O244 2.379 . S
Dy233 O247 2.339 . S
Dy233 C263 2.738 . S
C234 O246 1.254 . S
C234 O247 1.257 . S
O235 Dy232 2.307 . S
O235 C245 1.266 . S
O236 Dy233 2.298 . S
O236 C245 1.236 . S
O237 Dy232 2.395 . S
O237 C254 1.255 . S
O238 Dy232 2.379 . S
O238 C254 1.249 . S
O239 Dy233 2.275 . S
O239 C255 1.254 . S
O240 Dy232 2.339 . S
O240 C255 1.257 . S
O241 Dy233 2.307 . S
O241 C256 1.266 . S
O242 Dy232 2.298 . S
O242 C256 1.236 . S
O243 Dy233 2.395 . S
O243 C263 1.255 . S
O244 Dy233 2.379 . S
O244 C263 1.249 . S
C245 O235 1.266 . S
C245 O236 1.236 . S
O246 Dy232 2.275 . S
O246 C234 1.254 . S
O247 Dy233 2.339 . S
O247 C234 1.257 . S
C248 C251 1.344 . S
C248 C252 1.328 . S
C248 C254 1.516 . S
C249 C250 1.304 . S
C249 C253 1.323 . S
C250 C249 1.304 . S
C250 C251 1.371 . S
C250 H264 0.930 . S
C251 C248 1.344 . S
C251 C250 1.371 . S
C251 H265 0.931 . S
C252 C248 1.328 . S
C252 C253 1.433 . S
C252 H266 0.931 . S
C253 C249 1.323 . S
C253 C252 1.433 . S
C253 H267 0.933 . S
C254 Dy232 2.738 . S
C254 O237 1.255 . S
C254 O238 1.249 . S
C254 C248 1.516 . S
C255 O239 1.254 . S
C255 O240 1.257 . S
C256 O241 1.266 . S
C256 O242 1.236 . S
C257 C260 1.344 . S
C257 C261 1.328 . S
C257 C263 1.516 . S
C258 C259 1.304 . S
C258 C262 1.323 . S
C259 C258 1.304 . S
C259 C260 1.371 . S
C259 H268 0.930 . S
C260 C257 1.344 . S
C260 C259 1.371 . S
C260 H269 0.931 . S
C261 C257 1.328 . S
C261 C262 1.433 . S
C261 H270 0.931 . S
C262 C258 1.323 . S
C262 C261 1.433 . S
C262 H271 0.933 . S
C263 Dy233 2.738 . S
C263 O243 1.255 . S
C263 O244 1.249 . S
C263 C257 1.516 . S
H264 C250 0.930 . S
H265 C251 0.931 . S
H266 C252 0.931 . S
H267 C253 0.933 . S
H268 C259 0.930 . S
H269 C260 0.931 . S
H270 C261 0.931 . S
H271 C262 0.933 . S
Dy272 O275 2.307 1_455 S
Dy272 O277 2.395 . S
Dy272 O278 2.379 . S
Dy272 O280 2.339 . S
Dy272 O282 2.298 . S
Dy272 O286 2.275 . S
Dy272 C294 2.738 . S
Dy273 O276 2.298 . S
Dy273 O279 2.275 1_655 S
Dy273 O281 2.307 1_655 S
Dy273 O283 2.395 . S
Dy273 O284 2.379 . S
Dy273 O287 2.339 1_655 S
Dy273 C303 2.738 . S
C274 O286 1.254 . S
C274 O287 1.266 . S
O275 Dy272 2.307 1_655 S
O275 C285 1.266 . S
O276 Dy273 2.298 . S
O276 C285 1.236 . S
O277 Dy272 2.395 . S
O277 C294 1.255 . S
O278 Dy272 2.379 . S
O278 C294 1.249 . S
O279 Dy273 2.275 1_455 S
O279 C295 1.254 . S
O280 Dy272 2.339 . S
O280 C295 1.257 . S
O281 Dy273 2.307 1_455 S
O281 C296 1.266 . S
O282 Dy272 2.298 . S
O282 C296 1.236 . S
O283 Dy273 2.395 . S
O283 C303 1.255 . S
O284 Dy273 2.379 . S
O284 C303 1.249 . S
C285 O275 1.266 . S
C285 O276 1.236 . S
O286 Dy272 2.275 . S
O286 C274 1.254 . S
O287 Dy273 2.339 1_455 S
O287 C274 1.266 . S
C288 C291 1.344 . S
C288 C292 1.328 . S
C288 C294 1.516 . S
C289 C290 1.304 . S
C289 C293 1.323 . S
C290 C289 1.304 . S
C290 C291 1.371 . S
C290 H304 0.930 . S
C291 C288 1.344 . S
C291 C290 1.371 . S
C291 H305 0.931 . S
C292 C288 1.328 . S
C292 C293 1.433 . S
C292 H306 0.931 . S
C293 C289 1.323 . S
C293 C292 1.433 . S
C293 H307 0.933 . S
C294 Dy272 2.738 . S
C294 O277 1.255 . S
C294 O278 1.249 . S
C294 C288 1.516 . S
C295 O279 1.254 . S
C295 O280 1.257 . S
C296 O281 1.266 . S
C296 O282 1.236 . S
C297 C300 1.344 . S
C297 C301 1.328 . S
C297 C303 1.516 . S
C298 C299 1.304 . S
C298 C302 1.323 1_554 S
C299 C298 1.304 . S
C299 C300 1.371 1_554 S
C299 H308 0.930 . S
C300 C297 1.344 . S
C300 C299 1.371 1_556 S
C300 H309 0.931 . S
C301 C297 1.328 . S
C301 C302 1.433 . S
C301 H310 0.931 . S
C302 C298 1.323 1_556 S
C302 C301 1.433 . S
C302 H311 0.933 1_556 S
C303 Dy273 2.738 . S
C303 O283 1.255 . S
C303 O284 1.249 . S
C303 C297 1.516 . S
H304 C290 0.930 . S
H305 C291 0.931 . S
H306 C292 0.931 . S
H307 C293 0.933 . S
H308 C299 0.930 . S
H309 C300 0.931 . S
H310 C301 0.931 . S
H311 C302 0.933 1_554 S
H312 C330 0.951 . S
H313 C332 0.951 . S
H314 C334 0.950 . S
H315 C335 0.950 . S
H316 C337 0.950 . S
H317 C340 0.950 . S
H318 C341 0.950 . S
H319 C343 0.950 . S
H320 C344 0.950 . S
H321 C345 0.951 . S
H322 C347 0.951 . S
H323 C349 0.950 . S
H324 C350 0.950 . S
H325 C352 0.950 . S
H326 C355 0.950 . S
H327 C356 0.950 . S
H328 C358 0.950 . S
H329 C359 0.950 . S
C330 H312 0.951 . S
C330 C331 1.366 . S
C330 C332 1.388 . S
C331 C330 1.366 . S
C331 C335 1.385 . S
C332 H313 0.951 . S
C332 C330 1.388 . S
C332 C333 1.366 . S
C333 C332 1.366 . S
C333 C334 1.414 . S
C333 C336 1.499 . S
C334 H314 0.950 . S
C334 C333 1.414 . S
C334 C335 1.374 . S
C335 H315 0.950 . S
C335 C331 1.385 . S
C335 C334 1.374 . S
C336 C333 1.499 . S
C336 C337 1.373 . S
C336 C338 1.389 1_545 S
C337 H316 0.950 . S
C337 C336 1.373 . S
C337 C353 1.377 . S
C338 C336 1.389 1_565 S
C338 C339 1.524 . S
C338 C352 1.377 . S
C339 C338 1.524 . S
C339 C340 1.397 . S
C339 C344 1.363 . S
C340 H317 0.950 . S
C340 C339 1.397 . S
C340 C341 1.334 . S
C341 H318 0.950 . S
C341 C340 1.334 . S
C341 C342 1.287 . S
C342 C341 1.287 . S
C342 C343 1.524 . S
C342 H361 0.913 . S
C343 H319 0.950 . S
C343 C342 1.524 . S
C343 C344 1.415 . S
C344 H320 0.950 . S
C344 C339 1.363 . S
C344 C343 1.415 . S
C345 H321 0.951 . S
C345 C346 1.366 . S
C345 C347 1.388 . S
C346 C345 1.366 . S
C346 C350 1.385 . S
C347 H322 0.951 . S
C347 C345 1.388 . S
C347 C348 1.366 . S
C348 C347 1.366 . S
C348 C349 1.414 . S
C348 C351 1.499 . S
C349 H323 0.950 . S
C349 C348 1.414 . S
C349 C350 1.374 . S
C350 H324 0.950 . S
C350 C346 1.385 . S
C350 C349 1.374 . S
C351 C348 1.499 . S
C351 C352 1.373 1_545 S
C351 C353 1.389 . S
C352 H325 0.950 . S
C352 C338 1.377 . S
C352 C351 1.373 1_565 S
C353 C337 1.377 . S
C353 C351 1.389 . S
C353 C354 1.524 . S
C354 C353 1.524 . S
C354 C355 1.397 . S
C354 C359 1.363 . S
C355 H326 0.950 . S
C355 C354 1.397 . S
C355 C356 1.334 . S
C356 H327 0.950 . S
C356 C355 1.334 . S
C356 C357 1.287 . S
C357 C356 1.287 . S
C357 C358 1.524 . S
C357 H360 0.999 . S
C358 H328 0.950 . S
C358 C357 1.524 . S
C358 C359 1.415 . S
C359 H329 0.950 . S
C359 C354 1.363 . S
C359 C358 1.415 . S
H360 C357 0.999 . S
H361 C342 0.913 . S
H362 C380 0.951 . S
H363 C382 0.951 . S
H364 C384 0.950 . S
H365 C385 0.950 . S
H366 C387 0.950 . S
H367 C390 0.950 . S
H368 C391 0.950 . S
H369 C393 0.950 . S
H370 C394 0.950 . S
H371 C395 0.951 . S
H372 C397 0.951 . S
H373 C399 0.950 . S
H374 C400 0.950 . S
H375 C402 0.950 . S
H376 C405 0.950 . S
H377 C406 0.950 . S
H378 C408 0.950 . S
H379 C409 0.950 . S
C380 H362 0.951 . S
C380 C381 1.366 . S
C380 C382 1.388 . S
C381 C380 1.366 . S
C381 C385 1.385 . S
C382 H363 0.951 . S
C382 C380 1.388 . S
C382 C383 1.366 . S
C383 C382 1.366 . S
C383 C384 1.414 . S
C383 C386 1.499 . S
C384 H364 0.950 . S
C384 C383 1.414 . S
C384 C385 1.374 . S
C385 H365 0.950 . S
C385 C381 1.385 . S
C385 C384 1.374 . S
C386 C383 1.499 . S
C386 C387 1.373 . S
C386 C388 1.389 . S
C387 H366 0.950 . S
C387 C386 1.373 . S
C387 C403 1.377 . S
C388 C386 1.389 . S
C388 C389 1.524 . S
C388 C402 1.377 . S
C389 C388 1.524 . S
C389 C390 1.397 . S
C389 C394 1.363 . S
C390 H367 0.950 . S
C390 C389 1.397 . S
C390 C391 1.334 . S
C391 H368 0.950 . S
C391 C390 1.334 . S
C391 C392 1.287 . S
C392 C391 1.287 . S
C392 C393 1.524 . S
C392 H411 0.913 . S
C393 H369 0.950 . S
C393 C392 1.524 . S
C393 C394 1.415 . S
C394 H370 0.950 . S
C394 C389 1.363 . S
C394 C393 1.415 . S
C395 H371 0.951 . S
C395 C396 1.366 . S
C395 C397 1.388 . S
C396 C395 1.366 . S
C396 C400 1.385 . S
C397 H372 0.951 . S
C397 C395 1.388 . S
C397 C398 1.366 . S
C398 C397 1.366 . S
C398 C399 1.414 . S
C398 C401 1.499 . S
C399 H373 0.950 . S
C399 C398 1.414 . S
C399 C400 1.374 . S
C400 H374 0.950 . S
C400 C396 1.385 . S
C400 C399 1.374 . S
C401 C398 1.499 . S
C401 C402 1.373 . S
C401 C403 1.389 . S
C402 H375 0.950 . S
C402 C388 1.377 . S
C402 C401 1.373 . S
C403 C387 1.377 . S
C403 C401 1.389 . S
C403 C404 1.524 . S
C404 C403 1.524 . S
C404 C405 1.397 . S
C404 C409 1.363 . S
C405 H376 0.950 . S
C405 C404 1.397 . S
C405 C406 1.334 . S
C406 H377 0.950 . S
C406 C405 1.334 . S
C406 C407 1.287 . S
C407 C406 1.287 . S
C407 C408 1.524 . S
C407 H410 0.999 . S
C408 H378 0.950 . S
C408 C407 1.524 . S
C408 C409 1.415 . S
C409 H379 0.950 . S
C409 C404 1.363 . S
C409 C408 1.415 . S
H410 C407 0.999 . S
H411 C392 0.913 . S
H412 C430 0.951 . S
H413 C432 0.951 . S
H414 C434 0.950 . S
H415 C435 0.950 . S
H416 C437 0.950 . S
H417 C440 0.950 . S
H418 C441 0.950 . S
H419 C443 0.950 . S
H420 C444 0.950 . S
H421 C445 0.951 . S
H422 C447 0.951 . S
H423 C449 0.950 . S
H424 C450 0.950 . S
H425 C452 0.950 . S
H426 C455 0.950 . S
H427 C456 0.950 . S
H428 C458 0.950 . S
H429 C459 0.950 . S
C430 H412 0.951 . S
C430 C431 1.366 . S
C430 C432 1.388 . S
C431 C430 1.366 . S
C431 C435 1.385 . S
C432 H413 0.951 . S
C432 C430 1.388 . S
C432 C433 1.366 . S
C433 C432 1.366 . S
C433 C434 1.414 . S
C433 C436 1.499 . S
C434 H414 0.950 . S
C434 C433 1.414 . S
C434 C435 1.374 . S
C435 H415 0.950 . S
C435 C431 1.385 . S
C435 C434 1.374 . S
C436 C433 1.499 . S
C436 C437 1.373 . S
C436 C438 1.389 . S
C437 H416 0.950 . S
C437 C436 1.373 . S
C437 C453 1.377 . S
C438 C436 1.389 . S
C438 C439 1.524 . S
C438 C452 1.377 . S
C439 C438 1.524 . S
C439 C440 1.397 . S
C439 C444 1.363 . S
C440 H417 0.950 . S
C440 C439 1.397 . S
C440 C441 1.334 . S
C441 H418 0.950 . S
C441 C440 1.334 . S
C441 C442 1.287 . S
C442 C441 1.287 . S
C442 C443 1.524 . S
C442 H461 0.913 . S
C443 H419 0.950 . S
C443 C442 1.524 . S
C443 C444 1.415 . S
C444 H420 0.950 . S
C444 C439 1.363 . S
C444 C443 1.415 . S
C445 H421 0.951 . S
C445 C446 1.366 . S
C445 C447 1.388 . S
C446 C445 1.366 . S
C446 C450 1.385 . S
C447 H422 0.951 . S
C447 C445 1.388 . S
C447 C448 1.366 . S
C448 C447 1.366 . S
C448 C449 1.414 . S
C448 C451 1.499 . S
C449 H423 0.950 . S
C449 C448 1.414 . S
C449 C450 1.374 . S
C450 H424 0.950 . S
C450 C446 1.385 . S
C450 C449 1.374 . S
C451 C448 1.499 . S
C451 C452 1.373 . S
C451 C453 1.389 . S
C452 H425 0.950 . S
C452 C438 1.377 . S
C452 C451 1.373 . S
C453 C437 1.377 . S
C453 C451 1.389 . S
C453 C454 1.524 . S
C454 C453 1.524 . S
C454 C455 1.397 . S
C454 C459 1.363 . S
C455 H426 0.950 . S
C455 C454 1.397 . S
C455 C456 1.334 . S
C456 H427 0.950 . S
C456 C455 1.334 . S
C456 C457 1.287 . S
C457 C456 1.287 . S
C457 C458 1.524 . S
C457 H460 0.999 . S
C458 H428 0.950 . S
C458 C457 1.524 . S
C458 C459 1.415 . S
C459 H429 0.950 . S
C459 C454 1.363 . S
C459 C458 1.415 . S
H460 C457 0.999 . S
H461 C442 0.913 . S
H462 C480 0.951 . S
H463 C482 0.951 . S
H464 C484 0.950 . S
H465 C485 0.950 . S
H466 C487 0.950 . S
H467 C490 0.950 . S
H468 C491 0.950 . S
H469 C493 0.950 . S
H470 C494 0.950 . S
H471 C495 0.926 1_655 S
H472 C497 0.951 . S
H473 C499 0.950 . S
H474 C500 0.950 . S
H475 C502 0.950 . S
H476 C505 0.950 . S
H477 C506 0.950 . S
H478 C508 0.950 . S
H479 C509 0.950 . S
C480 H462 0.951 . S
C480 C481 1.366 . S
C480 C482 1.388 . S
C481 C480 1.366 . S
C481 C485 1.385 . S
C482 H463 0.951 . S
C482 C480 1.388 . S
C482 C483 1.366 . S
C483 C482 1.366 . S
C483 C484 1.414 . S
C483 C486 1.499 . S
C484 H464 0.950 . S
C484 C483 1.414 . S
C484 C485 1.374 . S
C485 H465 0.950 . S
C485 C481 1.385 . S
C485 C484 1.374 . S
C486 C483 1.499 . S
C486 C487 1.373 . S
C486 C488 1.389 . S
C487 H466 0.950 . S
C487 C486 1.373 . S
C487 C503 1.377 . S
C488 C486 1.389 . S
C488 C489 1.524 . S
C488 C502 1.377 . S
C489 C488 1.524 . S
C489 C490 1.397 1_455 S
C489 C494 1.363 . S
C490 H467 0.950 . S
C490 C489 1.397 1_655 S
C490 C491 1.334 . S
C491 H468 0.950 . S
C491 C490 1.334 . S
C491 C492 1.287 . S
C492 C491 1.287 . S
C492 C493 1.524 1_655 S
C492 H511 0.913 . S
C493 H469 0.950 . S
C493 C492 1.524 1_455 S
C493 C494 1.415 . S
C494 H470 0.950 . S
C494 C489 1.363 . S
C494 C493 1.415 . S
C495 H471 0.926 1_455 S
C495 C496 1.366 . S
C495 C497 1.388 . S
C496 C495 1.366 . S
C496 C500 1.385 . S
C497 H472 0.951 . S
C497 C495 1.388 . S
C497 C498 1.366 . S
C498 C497 1.366 . S
C498 C499 1.414 . S
C498 C501 1.499 . S
C499 H473 0.950 . S
C499 C498 1.414 . S
C499 C500 1.374 . S
C500 H474 0.950 . S
C500 C496 1.385 . S
C500 C499 1.374 . S
C501 C498 1.499 . S
C501 C502 1.373 . S
C501 C503 1.389 . S
C502 H475 0.950 . S
C502 C488 1.377 . S
C502 C501 1.373 . S
C503 C487 1.377 . S
C503 C501 1.389 . S
C503 C504 1.524 . S
C504 C503 1.524 . S
C504 C505 1.397 . S
C504 C509 1.363 . S
C505 H476 0.950 . S
C505 C504 1.397 . S
C505 C506 1.334 . S
C506 H477 0.950 . S
C506 C505 1.334 . S
C506 C507 1.287 . S
C507 C506 1.287 . S
C507 C508 1.524 . S
C507 H510 0.999 . S
C508 H478 0.950 . S
C508 C507 1.524 . S
C508 C509 1.415 . S
C509 H479 0.950 . S
C509 C504 1.363 . S
C509 C508 1.415 . S
H510 C507 0.999 . S
H511 C492 0.913 . S
H512 C530 0.951 . S
H513 C532 0.951 . S
H514 C534 0.950 . S
H515 C535 0.950 . S
H516 C537 0.950 . S
H517 C540 0.950 . S
H518 C541 0.950 . S
H519 C543 0.950 . S
H520 C544 0.950 . S
H521 C545 0.951 . S
H522 C547 0.951 . S
H523 C549 0.950 . S
H524 C550 0.950 . S
H525 C552 0.950 . S
H526 C555 0.950 . S
H527 C556 0.950 . S
H528 C558 0.950 . S
H529 C559 0.950 1_556 S
C530 H512 0.951 . S
C530 C531 1.366 1_545 S
C530 C532 1.388 . S
C531 C530 1.366 1_565 S
C531 C535 1.385 . S
C532 H513 0.951 . S
C532 C530 1.388 . S
C532 C533 1.366 1_545 S
C533 C532 1.366 1_565 S
C533 C534 1.414 . S
C533 C536 1.499 . S
C534 H514 0.950 . S
C534 C533 1.414 . S
C534 C535 1.374 . S
C535 H515 0.950 . S
C535 C531 1.385 . S
C535 C534 1.374 . S
C536 C533 1.499 . S
C536 C537 1.373 . S
C536 C538 1.389 1_564 S
C537 H516 0.950 . S
C537 C536 1.373 . S
C537 C553 1.377 1_554 S
C538 C536 1.389 1_546 S
C538 C539 1.524 . S
C538 C552 1.377 . S
C539 C538 1.524 . S
C539 C540 1.397 . S
C539 C544 1.363 . S
C540 H517 0.950 . S
C540 C539 1.397 . S
C540 C541 1.334 . S
C541 H518 0.950 . S
C541 C540 1.334 . S
C541 C542 1.287 . S
C542 C541 1.287 . S
C542 C543 1.524 . S
C542 H561 0.913 . S
C543 H519 0.950 . S
C543 C542 1.524 . S
C543 C544 1.415 . S
C544 H520 0.950 . S
C544 C539 1.363 . S
C544 C543 1.415 . S
C545 H521 0.951 . S
C545 C546 1.353 1_565 S
C545 C547 1.388 . S
C546 C545 1.353 1_545 S
C546 C550 1.396 . S
C547 H522 0.951 . S
C547 C545 1.388 . S
C547 C548 1.366 . S
C548 C547 1.366 . S
C548 C549 1.414 1_565 S
C548 C551 1.499 . S
C549 H523 0.950 . S
C549 C548 1.414 1_545 S
C549 C550 1.374 . S
C550 H524 0.950 . S
C550 C546 1.396 . S
C550 C549 1.374 . S
C551 C548 1.499 . S
C551 C552 1.373 1_565 S
C551 C553 1.389 . S
C552 H525 0.950 . S
C552 C538 1.377 . S
C552 C551 1.373 1_545 S
C553 C537 1.377 1_556 S
C553 C551 1.389 . S
C553 C554 1.524 1_556 S
C554 C553 1.524 1_554 S
C554 C555 1.397 . S
C554 C559 1.363 . S
C555 H526 0.950 . S
C555 C554 1.397 . S
C555 C556 1.334 . S
C556 H527 0.950 . S
C556 C555 1.334 . S
C556 C557 1.287 . S
C557 C556 1.287 . S
C557 C558 1.524 . S
C557 H560 0.999 . S
C558 H528 0.950 . S
C558 C557 1.524 . S
C558 C559 1.416 . S
C559 H529 0.950 1_554 S
C559 C554 1.363 . S
C559 C558 1.416 . S
H560 C557 0.999 . S
H561 C542 0.913 . S
H562 C580 0.951 . S
H563 C582 0.951 . S
H564 C584 0.950 . S
H565 C585 0.950 . S
H566 C587 0.950 . S
H567 C590 0.950 . S
H568 C591 0.950 . S
H569 C593 0.950 . S
H570 C594 0.950 . S
H571 C595 0.951 . S
H572 C597 0.951 . S
H573 C599 0.950 . S
H574 C600 0.950 . S
H575 C602 0.950 . S
H576 C605 0.950 . S
H577 C606 0.950 . S
H578 C608 0.950 . S
H579 C609 0.950 . S
C580 H562 0.951 . S
C580 C581 1.366 . S
C580 C582 1.388 1_554 S
C581 C580 1.366 . S
C581 C585 1.385 1_554 S
C582 H563 0.951 . S
C582 C580 1.388 1_556 S
C582 C583 1.366 . S
C583 C582 1.366 . S
C583 C584 1.414 . S
C583 C586 1.499 . S
C584 H564 0.950 . S
C584 C583 1.414 . S
C584 C585 1.374 . S
C585 H565 0.950 . S
C585 C581 1.385 1_556 S
C585 C584 1.374 . S
C586 C583 1.499 . S
C586 C587 1.373 . S
C586 C588 1.389 . S
C587 H566 0.950 . S
C587 C586 1.373 . S
C587 C603 1.377 . S
C588 C586 1.389 . S
C588 C589 1.524 . S
C588 C602 1.377 . S
C589 C588 1.524 . S
C589 C590 1.397 . S
C589 C594 1.363 . S
C590 H567 0.950 . S
C590 C589 1.397 . S
C590 C591 1.334 . S
C591 H568 0.950 . S
C591 C590 1.334 . S
C591 C592 1.287 . S
C592 C591 1.287 . S
C592 C593 1.524 . S
C592 H611 0.913 . S
C593 H569 0.950 . S
C593 C592 1.524 . S
C593 C594 1.415 . S
C594 H570 0.950 . S
C594 C589 1.363 . S
C594 C593 1.415 . S
C595 H571 0.951 . S
C595 C596 1.366 . S
C595 C597 1.388 . S
C596 C595 1.366 . S
C596 C600 1.385 . S
C597 H572 0.951 . S
C597 C595 1.388 . S
C597 C598 1.366 . S
C598 C597 1.366 . S
C598 C599 1.414 . S
C598 C601 1.499 . S
C599 H573 0.950 . S
C599 C598 1.414 . S
C599 C600 1.374 . S
C600 H574 0.950 . S
C600 C596 1.385 . S
C600 C599 1.374 . S
C601 C598 1.499 . S
C601 C602 1.373 . S
C601 C603 1.389 . S
C602 H575 0.950 . S
C602 C588 1.377 . S
C602 C601 1.373 . S
C603 C587 1.377 . S
C603 C601 1.389 . S
C603 C604 1.524 . S
C604 C603 1.524 . S
C604 C605 1.397 . S
C604 C609 1.363 . S
C605 H576 0.950 . S
C605 C604 1.397 . S
C605 C606 1.334 1_556 S
C606 H577 0.950 . S
C606 C605 1.334 1_554 S
C606 C607 1.287 . S
C607 C606 1.287 . S
C607 C608 1.524 . S
C607 H610 0.999 . S
C608 H578 0.950 . S
C608 C607 1.524 . S
C608 C609 1.415 1_554 S
C609 H579 0.950 . S
C609 C604 1.363 . S
C609 C608 1.415 1_556 S
H610 C607 0.999 . S
H611 C592 0.913 . S
H612 C630 0.951 . S
H613 C632 0.951 . S
H614 C634 0.950 . S
H615 C635 0.950 . S
H616 C637 0.950 . S
H617 C640 0.950 . S
H618 C641 0.950 . S
H619 C643 0.950 . S
H620 C644 0.950 . S
H621 C645 0.951 . S
H622 C647 0.951 . S
H623 C649 0.950 . S
H624 C650 0.950 . S
H625 C652 0.950 . S
H626 C655 0.950 . S
H627 C656 0.950 . S
H628 C658 0.950 . S
H629 C659 0.950 . S
C630 H612 0.951 . S
C630 C631 1.366 . S
C630 C632 1.388 . S
C631 C630 1.366 . S
C631 C635 1.385 . S
C632 H613 0.951 . S
C632 C630 1.388 . S
C632 C633 1.366 . S
C633 C632 1.366 . S
C633 C634 1.414 . S
C633 C636 1.499 . S
C634 H614 0.950 . S
C634 C633 1.414 . S
C634 C635 1.374 . S
C635 H615 0.950 . S
C635 C631 1.385 . S
C635 C634 1.374 . S
C636 C633 1.499 . S
C636 C637 1.373 . S
C636 C638 1.389 . S
C637 H616 0.950 . S
C637 C636 1.373 . S
C637 C653 1.377 . S
C638 C636 1.389 . S
C638 C639 1.524 . S
C638 C652 1.377 . S
C639 C638 1.524 . S
C639 C640 1.397 . S
C639 C644 1.363 . S
C640 H617 0.950 . S
C640 C639 1.397 . S
C640 C641 1.334 . S
C641 H618 0.950 . S
C641 C640 1.334 . S
C641 C642 1.287 . S
C642 C641 1.287 . S
C642 C643 1.524 . S
C642 H661 0.913 . S
C643 H619 0.950 . S
C643 C642 1.524 . S
C643 C644 1.415 . S
C644 H620 0.950 . S
C644 C639 1.363 . S
C644 C643 1.415 . S
C645 H621 0.951 . S
C645 C646 1.366 1_554 S
C645 C647 1.388 . S
C646 C645 1.366 1_556 S
C646 C650 1.385 . S
C647 H622 0.951 . S
C647 C645 1.388 . S
C647 C648 1.366 . S
C648 C647 1.366 . S
C648 C649 1.414 1_554 S
C648 C651 1.499 . S
C649 H623 0.950 . S
C649 C648 1.414 1_556 S
C649 C650 1.374 . S
C650 H624 0.950 . S
C650 C646 1.385 . S
C650 C649 1.374 . S
C651 C648 1.499 . S
C651 C652 1.373 . S
C651 C653 1.389 . S
C652 H625 0.950 . S
C652 C638 1.377 . S
C652 C651 1.373 . S
C653 C637 1.377 . S
C653 C651 1.389 . S
C653 C654 1.524 . S
C654 C653 1.524 . S
C654 C655 1.397 . S
C654 C659 1.363 . S
C655 H626 0.950 . S
C655 C654 1.397 . S
C655 C656 1.334 . S
C656 H627 0.950 . S
C656 C655 1.334 . S
C656 C657 1.287 . S
C657 C656 1.287 . S
C657 C658 1.524 . S
C657 H660 0.999 . S
C658 H628 0.950 . S
C658 C657 1.524 . S
C658 C659 1.415 . S
C659 H629 0.950 . S
C659 C654 1.363 . S
C659 C658 1.415 . S
H660 C657 0.999 . S
H661 C642 0.913 . S
H662 C680 0.951 . S
H663 C682 0.951 . S
H664 C684 0.950 . S
H665 C685 0.950 . S
H666 C687 0.950 . S
H667 C690 0.950 . S
H668 C691 0.950 . S
H669 C693 0.950 . S
H670 C694 0.950 . S
H671 C695 0.951 . S
H672 C697 0.951 . S
H673 C699 0.950 . S
H674 C700 0.950 . S
H675 C702 0.947 1_556 S
H676 C705 0.950 . S
H677 C706 0.950 . S
H678 C708 0.950 . S
H679 C709 0.950 . S
C680 H662 0.951 . S
C680 C681 1.366 1_455 S
C680 C682 1.388 . S
C681 C680 1.366 1_655 S
C681 C685 1.385 . S
C682 H663 0.951 . S
C682 C680 1.388 . S
C682 C683 1.366 1_455 S
C683 C682 1.366 1_655 S
C683 C684 1.414 . S
C683 C686 1.499 . S
C684 H664 0.950 . S
C684 C683 1.414 . S
C684 C685 1.374 . S
C685 H665 0.950 . S
C685 C681 1.385 . S
C685 C684 1.374 . S
C686 C683 1.499 . S
C686 C687 1.373 . S
C686 C688 1.389 1_655 S
C687 H666 0.950 . S
C687 C686 1.373 . S
C687 C703 1.377 . S
C688 C686 1.389 1_455 S
C688 C689 1.524 . S
C688 C702 1.381 . S
C689 C688 1.524 . S
C689 C690 1.397 . S
C689 C694 1.363 . S
C690 H667 0.950 . S
C690 C689 1.397 . S
C690 C691 1.334 . S
C691 H668 0.950 . S
C691 C690 1.334 . S
C691 C692 1.287 . S
C692 C691 1.287 . S
C692 C693 1.524 . S
C692 H711 0.913 . S
C693 H669 0.950 . S
C693 C692 1.524 . S
C693 C694 1.415 . S
C694 H670 0.950 . S
C694 C689 1.363 . S
C694 C693 1.415 . S
C695 H671 0.951 . S
C695 C696 1.366 1_655 S
C695 C697 1.388 . S
C696 C695 1.366 1_455 S
C696 C700 1.385 . S
C697 H672 0.951 . S
C697 C695 1.388 . S
C697 C698 1.366 1_655 S
C698 C697 1.366 1_455 S
C698 C699 1.414 . S
C698 C701 1.499 . S
C699 H673 0.950 . S
C699 C698 1.414 . S
C699 C700 1.374 . S
C700 H674 0.950 . S
C700 C696 1.385 . S
C700 C699 1.374 . S
C701 C698 1.499 . S
C701 C702 1.372 1_556 S
C701 C703 1.389 1_456 S
C702 H675 0.947 1_554 S
C702 C688 1.381 . S
C702 C701 1.372 1_554 S
C703 C687 1.377 . S
C703 C701 1.389 1_654 S
C703 C704 1.524 . S
C704 C703 1.524 . S
C704 C705 1.397 . S
C704 C709 1.363 . S
C705 H676 0.950 . S
C705 C704 1.397 . S
C705 C706 1.334 . S
C706 H677 0.950 . S
C706 C705 1.334 . S
C706 C707 1.287 . S
C707 C706 1.287 . S
C707 C708 1.524 . S
C707 H710 0.999 . S
C708 H678 0.950 . S
C708 C707 1.524 . S
C708 C709 1.415 . S
C709 H679 0.950 . S
C709 C704 1.363 . S
C709 C708 1.415 . S
H710 C707 0.999 . S
H711 C692 0.913 . S
H712 C730 0.951 . S
H713 C732 0.951 . S
H714 C734 0.950 . S
H715 C735 0.950 . S
H716 C737 0.950 . S
H717 C740 0.950 . S
H718 C741 0.950 . S
H719 C743 0.950 . S
H720 C744 0.950 . S
H721 C745 0.951 . S
H722 C747 0.951 . S
H723 C749 0.950 . S
H724 C750 0.950 . S
H725 C752 0.950 . S
H726 C755 0.950 . S
H727 C756 0.950 . S
H728 C758 0.950 . S
H729 C759 0.950 . S
C730 H712 0.951 . S
C730 C731 1.366 . S
C730 C732 1.388 . S
C731 C730 1.366 . S
C731 C735 1.385 . S
C732 H713 0.951 . S
C732 C730 1.388 . S
C732 C733 1.366 . S
C733 C732 1.366 . S
C733 C734 1.414 . S
C733 C736 1.499 . S
C734 H714 0.950 . S
C734 C733 1.414 . S
C734 C735 1.374 . S
C735 H715 0.950 . S
C735 C731 1.385 . S
C735 C734 1.374 . S
C736 C733 1.499 . S
C736 C737 1.373 . S
C736 C738 1.385 . S
C737 H716 0.950 . S
C737 C736 1.373 . S
C737 C753 1.377 . S
C738 C736 1.385 . S
C738 C739 1.528 1_455 S
C738 C752 1.377 1_455 S
C739 C738 1.528 1_655 S
C739 C740 1.397 . S
C739 C744 1.363 . S
C740 H717 0.950 . S
C740 C739 1.397 . S
C740 C741 1.334 . S
C741 H718 0.950 . S
C741 C740 1.334 . S
C741 C742 1.287 . S
C742 C741 1.287 . S
C742 C743 1.524 . S
C742 H761 0.913 . S
C743 H719 0.950 . S
C743 C742 1.524 . S
C743 C744 1.415 . S
C744 H720 0.950 . S
C744 C739 1.363 . S
C744 C743 1.415 . S
C745 H721 0.951 . S
C745 C746 1.366 . S
C745 C747 1.388 . S
C746 C745 1.366 . S
C746 C750 1.385 1_455 S
C747 H722 0.951 . S
C747 C745 1.388 . S
C747 C748 1.366 . S
C748 C747 1.366 . S
C748 C749 1.414 1_455 S
C748 C751 1.499 . S
C749 H723 0.950 . S
C749 C748 1.414 1_655 S
C749 C750 1.374 . S
C750 H724 0.950 . S
C750 C746 1.385 1_655 S
C750 C749 1.374 . S
C751 C748 1.499 . S
C751 C752 1.373 1_455 S
C751 C753 1.389 . S
C752 H725 0.950 . S
C752 C738 1.377 1_655 S
C752 C751 1.373 1_655 S
C753 C737 1.377 . S
C753 C751 1.389 . S
C753 C754 1.524 . S
C754 C753 1.524 . S
C754 C755 1.397 . S
C754 C759 1.363 . S
C755 H726 0.950 . S
C755 C754 1.397 . S
C755 C756 1.334 . S
C756 H727 0.950 . S
C756 C755 1.334 . S
C756 C757 1.287 . S
C757 C756 1.287 . S
C757 C758 1.524 . S
C757 H760 0.999 . S
C758 H728 0.950 . S
C758 C757 1.524 . S
C758 C759 1.415 . S
C759 H729 0.950 . S
C759 C754 1.363 . S
C759 C758 1.415 . S
H760 C757 0.999 . S
H761 C742 0.913 . S
H762 C780 0.955 . S
H763 C782 0.952 1_565 S
H764 C784 0.950 . S
H765 C785 0.950 . S
H766 C787 0.950 . S
H767 C790 0.950 . S
H768 C791 0.950 . S
H769 C793 0.950 . S
H770 C794 0.950 . S
H771 C795 0.951 . S
H772 C797 0.951 1_545 S
H773 C799 0.950 . S
H774 C800 0.950 . S
H775 C802 0.950 . S
H776 C805 0.950 . S
H777 C806 0.950 . S
H778 C808 0.950 . S
H779 C809 0.950 . S
C780 H762 0.955 . S
C780 C781 1.366 . S
C780 C782 1.387 . S
C781 C780 1.366 . S
C781 C785 1.385 . S
C782 H763 0.952 1_545 S
C782 C780 1.387 . S
C782 C783 1.365 . S
C783 C782 1.365 . S
C783 C784 1.414 . S
C783 C786 1.502 . S
C784 H764 0.950 . S
C784 C783 1.414 . S
C784 C785 1.374 . S
C785 H765 0.950 . S
C785 C781 1.385 . S
C785 C784 1.374 . S
C786 C783 1.502 . S
C786 C787 1.409 . S
C786 C788 1.354 1_545 S
C787 H766 0.950 . S
C787 C786 1.409 . S
C787 C803 1.377 . S
C788 C786 1.354 1_565 S
C788 C789 1.524 . S
C788 C802 1.377 . S
C789 C788 1.524 . S
C789 C790 1.397 . S
C789 C794 1.363 . S
C790 H767 0.950 . S
C790 C789 1.397 . S
C790 C791 1.334 . S
C791 H768 0.950 . S
C791 C790 1.334 . S
C791 C792 1.287 . S
C792 C791 1.287 . S
C792 C793 1.524 . S
C792 H811 0.913 . S
C793 H769 0.950 . S
C793 C792 1.524 . S
C793 C794 1.415 . S
C794 H770 0.950 . S
C794 C789 1.363 . S
C794 C793 1.415 . S
C795 H771 0.951 . S
C795 C796 1.366 . S
C795 C797 1.388 . S
C796 C795 1.366 . S
C796 C800 1.385 . S
C797 H772 0.951 1_565 S
C797 C795 1.388 . S
C797 C798 1.366 . S
C798 C797 1.366 . S
C798 C799 1.414 . S
C798 C801 1.499 . S
C799 H773 0.950 . S
C799 C798 1.414 . S
C799 C800 1.374 . S
C800 H774 0.950 . S
C800 C796 1.385 . S
C800 C799 1.374 . S
C801 C798 1.499 . S
C801 C802 1.373 . S
C801 C803 1.389 1_565 S
C802 H775 0.950 . S
C802 C788 1.377 . S
C802 C801 1.373 . S
C803 C787 1.377 . S
C803 C801 1.389 1_545 S
C803 C804 1.524 . S
C804 C803 1.524 . S
C804 C805 1.397 . S
C804 C809 1.363 . S
C805 H776 0.950 . S
C805 C804 1.397 . S
C805 C806 1.334 . S
C806 H777 0.950 . S
C806 C805 1.334 . S
C806 C807 1.287 . S
C807 C806 1.287 . S
C807 C808 1.524 . S
C807 H810 0.999 . S
C808 H778 0.950 . S
C808 C807 1.524 . S
C808 C809 1.415 . S
C809 H779 0.950 . S
C809 C804 1.363 . S
C809 C808 1.415 . S
H810 C807 0.999 . S
H811 C792 0.913 . S
H812 C830 0.951 . S
H813 C832 0.951 . S
H814 C834 0.950 . S
H815 C835 0.950 . S
H816 C837 0.950 . S
H817 C840 0.950 . S
H818 C841 0.950 . S
H819 C843 0.950 . S
H820 C844 0.950 . S
H821 C845 0.951 . S
H822 C847 0.951 . S
H823 C849 0.950 . S
H824 C850 0.950 . S
H825 C852 0.950 . S
H826 C855 0.950 . S
H827 C856 0.950 . S
H828 C858 0.950 . S
H829 C859 0.950 . S
C830 H812 0.951 . S
C830 C831 1.366 . S
C830 C832 1.388 . S
C831 C830 1.366 . S
C831 C835 1.385 . S
C832 H813 0.951 . S
C832 C830 1.388 . S
C832 C833 1.366 . S
C833 C832 1.366 . S
C833 C834 1.414 . S
C833 C836 1.499 . S
C834 H814 0.950 . S
C834 C833 1.414 . S
C834 C835 1.374 . S
C835 H815 0.950 . S
C835 C831 1.385 . S
C835 C834 1.374 . S
C836 C833 1.499 . S
C836 C837 1.373 . S
C836 C838 1.389 . S
C837 H816 0.950 . S
C837 C836 1.373 . S
C837 C853 1.377 . S
C838 C836 1.389 . S
C838 C839 1.524 . S
C838 C852 1.377 . S
C839 C838 1.524 . S
C839 C840 1.397 . S
C839 C844 1.363 . S
C840 H817 0.950 . S
C840 C839 1.397 . S
C840 C841 1.334 . S
C841 H818 0.950 . S
C841 C840 1.334 . S
C841 C842 1.287 . S
C842 C841 1.287 . S
C842 C843 1.524 . S
C842 H861 0.913 . S
C843 H819 0.950 . S
C843 C842 1.524 . S
C843 C844 1.415 . S
C844 H820 0.950 . S
C844 C839 1.363 . S
C844 C843 1.415 . S
C845 H821 0.951 . S
C845 C846 1.366 . S
C845 C847 1.388 . S
C846 C845 1.366 . S
C846 C850 1.385 . S
C847 H822 0.951 . S
C847 C845 1.388 . S
C847 C848 1.366 . S
C848 C847 1.366 . S
C848 C849 1.414 . S
C848 C851 1.499 . S
C849 H823 0.950 . S
C849 C848 1.414 . S
C849 C850 1.374 . S
C850 H824 0.950 . S
C850 C846 1.385 . S
C850 C849 1.374 . S
C851 C848 1.499 . S
C851 C852 1.373 . S
C851 C853 1.389 . S
C852 H825 0.950 . S
C852 C838 1.377 . S
C852 C851 1.373 . S
C853 C837 1.377 . S
C853 C851 1.389 . S
C853 C854 1.524 . S
C854 C853 1.524 . S
C854 C855 1.397 . S
C854 C859 1.363 . S
C855 H826 0.950 . S
C855 C854 1.397 . S
C855 C856 1.334 . S
C856 H827 0.950 . S
C856 C855 1.334 . S
C856 C857 1.287 . S
C857 C856 1.287 . S
C857 C858 1.524 . S
C857 H860 0.999 . S
C858 H828 0.950 . S
C858 C857 1.524 . S
C858 C859 1.415 . S
C859 H829 0.950 . S
C859 C854 1.363 . S
C859 C858 1.415 . S
H860 C857 0.999 . S
H861 C842 0.913 . S
H862 C880 0.951 1_556 S
H863 C882 0.951 . S
H864 C884 0.950 . S
H865 C885 0.950 . S
H866 C887 0.950 . S
H867 C890 0.950 . S
H868 C891 0.950 . S
H869 C893 0.950 . S
H870 C894 0.950 . S
H871 C895 0.951 . S
H872 C897 0.951 . S
H873 C899 0.950 . S
H874 C900 0.950 . S
H875 C902 0.950 . S
H876 C905 0.950 . S
H877 C906 0.950 . S
H878 C908 0.950 . S
H879 C909 0.950 . S
C880 H862 0.951 1_554 S
C880 C881 1.366 . S
C880 C882 1.388 . S
C881 C880 1.366 . S
C881 C885 1.385 . S
C882 H863 0.951 . S
C882 C880 1.388 . S
C882 C883 1.366 . S
C883 C882 1.366 . S
C883 C884 1.414 . S
C883 C886 1.499 . S
C884 H864 0.950 . S
C884 C883 1.414 . S
C884 C885 1.374 . S
C885 H865 0.950 . S
C885 C881 1.385 . S
C885 C884 1.374 . S
C886 C883 1.499 . S
C886 C887 1.373 . S
C886 C888 1.389 . S
C887 H866 0.950 . S
C887 C886 1.373 . S
C887 C903 1.377 . S
C888 C886 1.389 . S
C888 C889 1.524 . S
C888 C902 1.377 . S
C889 C888 1.524 . S
C889 C890 1.397 . S
C889 C894 1.363 . S
C890 H867 0.950 . S
C890 C889 1.397 . S
C890 C891 1.334 . S
C891 H868 0.950 . S
C891 C890 1.334 . S
C891 C892 1.287 . S
C892 C891 1.287 . S
C892 C893 1.524 . S
C892 H911 0.913 . S
C893 H869 0.950 . S
C893 C892 1.524 . S
C893 C894 1.415 . S
C894 H870 0.950 . S
C894 C889 1.363 . S
C894 C893 1.415 . S
C895 H871 0.951 . S
C895 C896 1.366 . S
C895 C897 1.388 . S
C896 C895 1.366 . S
C896 C900 1.385 . S
C897 H872 0.951 . S
C897 C895 1.388 . S
C897 C898 1.366 . S
C898 C897 1.366 . S
C898 C899 1.414 . S
C898 C901 1.499 . S
C899 H873 0.950 . S
C899 C898 1.414 . S
C899 C900 1.374 . S
C900 H874 0.950 . S
C900 C896 1.385 . S
C900 C899 1.374 . S
C901 C898 1.499 . S
C901 C902 1.373 . S
C901 C903 1.389 . S
C902 H875 0.950 . S
C902 C888 1.377 . S
C902 C901 1.373 . S
C903 C887 1.377 . S
C903 C901 1.389 . S
C903 C904 1.524 . S
C904 C903 1.524 . S
C904 C905 1.397 . S
C904 C909 1.363 . S
C905 H876 0.950 . S
C905 C904 1.397 . S
C905 C906 1.334 . S
C906 H877 0.950 . S
C906 C905 1.334 . S
C906 C907 1.287 . S
C907 C906 1.287 . S
C907 C908 1.524 . S
C907 H910 0.999 . S
C908 H878 0.950 . S
C908 C907 1.524 . S
C908 C909 1.415 . S
C909 H879 0.950 . S
C909 C904 1.363 . S
C909 C908 1.415 . S
H910 C907 0.999 . S
H911 C892 0.913 . S
H912 C930 0.951 . S
H913 C932 0.951 . S
H914 C934 0.950 . S
H915 C935 0.950 . S
H916 C937 0.950 . S
H917 C940 0.950 . S
H918 C941 0.950 . S
H919 C943 0.950 . S
H920 C944 0.950 . S
H921 C945 0.951 1_655 S
H922 C947 0.984 . S
H923 C949 0.950 . S
H924 C950 0.950 . S
H925 C952 0.950 . S
H926 C955 0.950 1_556 S
H927 C956 0.950 . S
H928 C958 0.950 . S
H929 C959 0.950 . S
C930 H912 0.951 . S
C930 C931 1.366 1_455 S
C930 C932 1.388 . S
C931 C930 1.366 1_655 S
C931 C935 1.385 . S
C932 H913 0.951 . S
C932 C930 1.388 . S
C932 C933 1.329 1_455 S
C933 C932 1.329 1_655 S
C933 C934 1.463 . S
C933 C936 1.493 1_655 S
C934 H914 0.950 . S
C934 C933 1.463 . S
C934 C935 1.374 . S
C935 H915 0.950 . S
C935 C931 1.385 . S
C935 C934 1.374 . S
C936 C933 1.493 1_455 S
C936 C937 1.373 1_455 S
C936 C938 1.389 . S
C937 H916 0.950 . S
C937 C936 1.373 1_655 S
C937 C953 1.377 . S
C938 C936 1.389 . S
C938 C939 1.524 . S
C938 C952 1.377 . S
C939 C938 1.524 . S
C939 C940 1.397 . S
C939 C944 1.363 . S
C940 H917 0.950 . S
C940 C939 1.397 . S
C940 C941 1.334 . S
C941 H918 0.950 . S
C941 C940 1.334 . S
C941 C942 1.287 . S
C942 C941 1.287 . S
C942 C943 1.524 . S
C942 H961 0.913 . S
C943 H919 0.950 . S
C943 C942 1.524 . S
C943 C944 1.415 . S
C944 H920 0.950 . S
C944 C939 1.363 . S
C944 C943 1.415 . S
C945 H921 0.951 1_455 S
C945 C946 1.366 1_554 S
C945 C947 1.382 1_455 S
C946 C945 1.366 1_556 S
C946 C950 1.385 . S
C947 H922 0.984 . S
C947 C945 1.382 1_655 S
C947 C948 1.341 1_655 S
C948 C947 1.341 1_455 S
C948 C949 1.414 . S
C948 C951 1.499 . S
C949 H923 0.950 . S
C949 C948 1.414 . S
C949 C950 1.374 1_554 S
C950 H924 0.950 . S
C950 C946 1.385 . S
C950 C949 1.374 1_556 S
C951 C948 1.499 . S
C951 C952 1.373 . S
C951 C953 1.389 1_455 S
C952 H925 0.950 . S
C952 C938 1.377 . S
C952 C951 1.373 . S
C953 C937 1.377 . S
C953 C951 1.389 1_655 S
C953 C954 1.524 . S
C954 C953 1.524 . S
C954 C955 1.397 . S
C954 C959 1.363 . S
C955 H926 0.950 1_554 S
C955 C954 1.397 . S
C955 C956 1.334 1_554 S
C956 H927 0.950 . S
C956 C955 1.334 1_556 S
C956 C957 1.286 . S
C957 C956 1.286 . S
C957 C958 1.525 1_556 S
C957 H960 0.999 . S
C958 H928 0.950 . S
C958 C957 1.525 1_554 S
C958 C959 1.415 . S
C959 H929 0.950 . S
C959 C954 1.363 . S
C959 C958 1.415 . S
H960 C957 0.999 . S
H961 C942 0.913 . S
H962 C980 0.951 . S
H963 C982 0.951 . S
H964 C984 0.950 . S
H965 C985 0.950 . S
H966 C987 0.950 . S
H967 C990 0.950 . S
H968 C991 0.950 . S
H969 C993 0.950 . S
H970 C994 0.950 . S
H971 C995 0.951 . S
H972 C997 0.951 . S
H973 C999 0.950 . S
H974 C1000 0.950 . S
H975 C1002 0.950 . S
H976 C1005 0.950 . S
H977 C1006 0.950 . S
H978 C1008 0.950 . S
H979 C1009 0.950 . S
C980 H962 0.951 . S
C980 C981 1.366 1_545 S
C980 C982 1.388 . S
C981 C980 1.366 1_565 S
C981 C985 1.385 . S
C982 H963 0.951 . S
C982 C980 1.388 . S
C982 C983 1.383 . S
C983 C982 1.383 . S
C983 C984 1.394 1_545 S
C983 C986 1.500 . S
C984 H964 0.950 . S
C984 C983 1.394 1_565 S
C984 C985 1.374 . S
C985 H965 0.950 . S
C985 C981 1.385 . S
C985 C984 1.374 . S
C986 C983 1.500 . S
C986 C987 1.373 1_545 S
C986 C988 1.389 . S
C987 H966 0.950 . S
C987 C986 1.373 1_565 S
C987 C1003 1.377 . S
C988 C986 1.389 . S
C988 C989 1.524 . S
C988 C1002 1.377 . S
C989 C988 1.524 . S
C989 C990 1.397 . S
C989 C994 1.363 . S
C990 H967 0.950 . S
C990 C989 1.397 . S
C990 C991 1.334 . S
C991 H968 0.950 . S
C991 C990 1.334 . S
C991 C992 1.287 . S
C992 C991 1.287 . S
C992 C993 1.524 . S
C992 H1011 0.913 . S
C993 H969 0.950 . S
C993 C992 1.524 . S
C993 C994 1.415 . S
C994 H970 0.950 . S
C994 C989 1.363 . S
C994 C993 1.415 . S
C995 H971 0.951 . S
C995 C996 1.366 1_564 S
C995 C997 1.388 . S
C996 C995 1.366 1_546 S
C996 C1000 1.385 . S
C997 H972 0.951 . S
C997 C995 1.388 . S
C997 C998 1.366 1_565 S
C998 C997 1.366 1_545 S
C998 C999 1.414 1_554 S
C998 C1001 1.499 . S
C999 H973 0.950 . S
C999 C998 1.414 1_556 S
C999 C1000 1.374 . S
C1000 H974 0.950 . S
C1000 C996 1.385 . S
C1000 C999 1.374 . S
C1001 C998 1.499 . S
C1001 C1002 1.373 . S
C1001 C1003 1.389 1_545 S
C1002 H975 0.950 . S
C1002 C988 1.377 . S
C1002 C1001 1.373 . S
C1003 C987 1.377 . S
C1003 C1001 1.389 1_565 S
C1003 C1004 1.524 1_554 S
C1004 C1003 1.524 1_556 S
C1004 C1005 1.397 . S
C1004 C1009 1.363 1_556 S
C1005 H976 0.950 . S
C1005 C1004 1.397 . S
C1005 C1006 1.334 . S
C1006 H977 0.950 . S
C1006 C1005 1.334 . S
C1006 C1007 1.287 . S
C1007 C1006 1.287 . S
C1007 C1008 1.524 . S
C1007 H1010 0.999 . S
C1008 H978 0.950 . S
C1008 C1007 1.524 . S
C1008 C1009 1.415 1_556 S
C1009 H979 0.950 . S
C1009 C1004 1.363 1_554 S
C1009 C1008 1.415 1_554 S
H1010 C1007 0.999 . S
H1011 C992 0.913 . S
H1012 C1030 0.951 . S
H1013 C1032 0.951 . S
H1014 C1034 0.950 . S
H1015 C1035 0.950 . S
H1016 C1037 0.950 . S
H1017 C1040 0.950 . S
H1018 C1041 0.950 . S
H1019 C1043 0.950 . S
H1020 C1044 0.950 . S
H1021 C1045 0.951 . S
H1022 C1047 0.951 . S
H1023 C1049 0.950 . S
H1024 C1050 0.950 . S
H1025 C1052 0.950 1_554 S
H1026 C1055 0.950 . S
H1027 C1056 0.950 . S
H1028 C1058 0.950 . S
H1029 C1059 0.950 . S
C1030 H1012 0.951 . S
C1030 C1031 1.366 . S
C1030 C1032 1.388 . S
C1031 C1030 1.366 . S
C1031 C1035 1.385 . S
C1032 H1013 0.951 . S
C1032 C1030 1.388 . S
C1032 C1033 1.366 1_554 S
C1033 C1032 1.366 1_556 S
C1033 C1034 1.414 . S
C1033 C1036 1.499 . S
C1034 H1014 0.950 . S
C1034 C1033 1.414 . S
C1034 C1035 1.374 1_556 S
C1035 H1015 0.950 . S
C1035 C1031 1.385 . S
C1035 C1034 1.374 1_554 S
C1036 C1033 1.499 . S
C1036 C1037 1.373 . S
C1036 C1038 1.389 1_556 S
C1037 H1016 0.950 . S
C1037 C1036 1.373 . S
C1037 C1053 1.377 . S
C1038 C1036 1.389 1_554 S
C1038 C1039 1.524 . S
C1038 C1052 1.377 1_554 S
C1039 C1038 1.524 . S
C1039 C1040 1.397 . S
C1039 C1044 1.363 . S
C1040 H1017 0.950 . S
C1040 C1039 1.397 . S
C1040 C1041 1.334 . S
C1041 H1018 0.950 . S
C1041 C1040 1.334 . S
C1041 C1042 1.287 . S
C1042 C1041 1.287 . S
C1042 C1043 1.524 . S
C1042 H1061 0.913 . S
C1043 H1019 0.950 . S
C1043 C1042 1.524 . S
C1043 C1044 1.415 . S
C1044 H1020 0.950 . S
C1044 C1039 1.363 . S
C1044 C1043 1.415 . S
C1045 H1021 0.951 . S
C1045 C1046 1.366 . S
C1045 C1047 1.388 . S
C1046 C1045 1.366 . S
C1046 C1050 1.385 . S
C1047 H1022 0.951 . S
C1047 C1045 1.388 . S
C1047 C1048 1.366 . S
C1048 C1047 1.366 . S
C1048 C1049 1.414 . S
C1048 C1051 1.499 . S
C1049 H1023 0.950 . S
C1049 C1048 1.414 . S
C1049 C1050 1.374 . S
C1050 H1024 0.950 . S
C1050 C1046 1.385 . S
C1050 C1049 1.374 . S
C1051 C1048 1.499 . S
C1051 C1052 1.373 . S
C1051 C1053 1.389 . S
C1052 H1025 0.950 1_556 S
C1052 C1038 1.377 1_556 S
C1052 C1051 1.373 . S
C1053 C1037 1.377 . S
C1053 C1051 1.389 . S
C1053 C1054 1.524 . S
C1054 C1053 1.524 . S
C1054 C1055 1.397 . S
C1054 C1059 1.363 . S
C1055 H1026 0.950 . S
C1055 C1054 1.397 . S
C1055 C1056 1.334 . S
C1056 H1027 0.950 . S
C1056 C1055 1.334 . S
C1056 C1057 1.287 . S
C1057 C1056 1.287 . S
C1057 C1058 1.524 . S
C1057 H1060 0.999 . S
C1058 H1028 0.950 . S
C1058 C1057 1.524 . S
C1058 C1059 1.415 . S
C1059 H1029 0.950 . S
C1059 C1054 1.363 . S
C1059 C1058 1.415 . S
H1060 C1057 0.999 . S
H1061 C1042 0.913 . S
H1062 C1080 0.951 . S
H1063 C1082 0.951 . S
H1064 C1084 0.950 . S
H1065 C1085 0.950 . S
H1066 C1087 0.950 . S
H1067 C1090 0.950 . S
H1068 C1091 0.950 . S
H1069 C1093 0.950 . S
H1070 C1094 0.950 . S
H1071 C1095 0.951 . S
H1072 C1097 0.951 . S
H1073 C1099 0.950 . S
H1074 C1100 0.950 1_556 S
H1075 C1102 0.950 . S
H1076 C1105 0.950 . S
H1077 C1106 0.950 . S
H1078 C1108 0.950 . S
H1079 C1109 0.950 . S
C1080 H1062 0.951 . S
C1080 C1081 1.366 . S
C1080 C1082 1.388 . S
C1081 C1080 1.366 . S
C1081 C1085 1.385 . S
C1082 H1063 0.951 . S
C1082 C1080 1.388 . S
C1082 C1083 1.366 . S
C1083 C1082 1.366 . S
C1083 C1084 1.414 . S
C1083 C1086 1.499 . S
C1084 H1064 0.950 . S
C1084 C1083 1.414 . S
C1084 C1085 1.374 . S
C1085 H1065 0.950 . S
C1085 C1081 1.385 . S
C1085 C1084 1.374 . S
C1086 C1083 1.499 . S
C1086 C1087 1.373 . S
C1086 C1088 1.389 . S
C1087 H1066 0.950 . S
C1087 C1086 1.373 . S
C1087 C1103 1.377 . S
C1088 C1086 1.389 . S
C1088 C1089 1.524 . S
C1088 C1102 1.377 . S
C1089 C1088 1.524 . S
C1089 C1090 1.397 . S
C1089 C1094 1.363 . S
C1090 H1067 0.950 . S
C1090 C1089 1.397 . S
C1090 C1091 1.334 . S
C1091 H1068 0.950 . S
C1091 C1090 1.334 . S
C1091 C1092 1.287 . S
C1092 C1091 1.287 . S
C1092 C1093 1.524 . S
C1092 H1111 0.913 . S
C1093 H1069 0.950 . S
C1093 C1092 1.524 . S
C1093 C1094 1.415 . S
C1094 H1070 0.950 . S
C1094 C1089 1.363 . S
C1094 C1093 1.415 . S
C1095 H1071 0.951 . S
C1095 C1096 1.366 . S
C1095 C1097 1.388 . S
C1096 C1095 1.366 . S
C1096 C1100 1.385 . S
C1097 H1072 0.951 . S
C1097 C1095 1.388 . S
C1097 C1098 1.366 . S
C1098 C1097 1.366 . S
C1098 C1099 1.414 . S
C1098 C1101 1.499 . S
C1099 H1073 0.950 . S
C1099 C1098 1.414 . S
C1099 C1100 1.374 . S
C1100 H1074 0.950 1_554 S
C1100 C1096 1.385 . S
C1100 C1099 1.374 . S
C1101 C1098 1.499 . S
C1101 C1102 1.373 . S
C1101 C1103 1.389 . S
C1102 H1075 0.950 . S
C1102 C1088 1.377 . S
C1102 C1101 1.373 . S
C1103 C1087 1.377 . S
C1103 C1101 1.389 . S
C1103 C1104 1.524 . S
C1104 C1103 1.524 . S
C1104 C1105 1.397 . S
C1104 C1109 1.363 . S
C1105 H1076 0.950 . S
C1105 C1104 1.397 . S
C1105 C1106 1.334 . S
C1106 H1077 0.950 . S
C1106 C1105 1.334 . S
C1106 C1107 1.287 . S
C1107 C1106 1.287 . S
C1107 C1108 1.524 . S
C1107 H1110 0.999 . S
C1108 H1078 0.950 . S
C1108 C1107 1.524 . S
C1108 C1109 1.415 . S
C1109 H1079 0.950 . S
C1109 C1104 1.363 . S
C1109 C1108 1.415 . S
H1110 C1107 0.999 . S
H1111 C1092 0.913 . S
H1112 C1130 0.954 1_554 S
H1113 C1132 0.896 1_655 S
H1114 C1134 0.950 . S
H1115 C1135 0.950 . S
H1116 C1137 0.950 . S
H1117 C1140 0.950 . S
H1118 C1141 0.950 . S
H1119 C1143 0.950 . S
H1120 C1144 0.950 . S
H1121 C1145 0.951 . S
H1122 C1147 0.951 . S
H1123 C1149 0.950 1_655 S
H1124 C1150 0.950 1_655 S
H1125 C1152 0.950 . S
H1126 C1155 0.950 . S
H1127 C1156 0.950 . S
H1128 C1158 0.950 . S
H1129 C1159 0.950 . S
C1130 H1112 0.954 1_556 S
C1130 C1131 1.366 . S
C1130 C1132 1.388 . S
C1131 C1130 1.366 . S
C1131 C1135 1.385 . S
C1132 H1113 0.896 1_455 S
C1132 C1130 1.388 . S
C1132 C1133 1.366 . S
C1133 C1132 1.366 . S
C1133 C1134 1.414 . S
C1133 C1136 1.499 . S
C1134 H1114 0.950 . S
C1134 C1133 1.414 . S
C1134 C1135 1.374 . S
C1135 H1115 0.950 . S
C1135 C1131 1.385 . S
C1135 C1134 1.374 . S
C1136 C1133 1.499 . S
C1136 C1137 1.373 . S
C1136 C1138 1.389 . S
C1137 H1116 0.950 . S
C1137 C1136 1.373 . S
C1137 C1153 1.377 . S
C1138 C1136 1.389 . S
C1138 C1139 1.524 1_556 S
C1138 C1152 1.377 . S
C1139 C1138 1.524 1_554 S
C1139 C1140 1.397 . S
C1139 C1144 1.363 1_455 S
C1140 H1117 0.950 . S
C1140 C1139 1.397 . S
C1140 C1141 1.334 . S
C1141 H1118 0.950 . S
C1141 C1140 1.334 . S
C1141 C1142 1.287 . S
C1142 C1141 1.287 . S
C1142 C1143 1.524 1_455 S
C1142 H1161 0.913 . S
C1143 H1119 0.950 . S
C1143 C1142 1.524 1_655 S
C1143 C1144 1.415 . S
C1144 H1120 0.950 . S
C1144 C1139 1.363 1_655 S
C1144 C1143 1.415 . S
C1145 H1121 0.951 . S
C1145 C1146 1.366 . S
C1145 C1147 1.388 . S
C1146 C1145 1.366 . S
C1146 C1150 1.385 . S
C1147 H1122 0.951 . S
C1147 C1145 1.388 . S
C1147 C1148 1.366 . S
C1148 C1147 1.366 . S
C1148 C1149 1.414 . S
C1148 C1151 1.499 . S
C1149 H1123 0.950 1_455 S
C1149 C1148 1.414 . S
C1149 C1150 1.374 . S
C1150 H1124 0.950 1_455 S
C1150 C1146 1.385 . S
C1150 C1149 1.374 . S
C1151 C1148 1.499 . S
C1151 C1152 1.373 . S
C1151 C1153 1.389 . S
C1152 H1125 0.950 . S
C1152 C1138 1.377 . S
C1152 C1151 1.373 . S
C1153 C1137 1.377 . S
C1153 C1151 1.389 . S
C1153 C1154 1.524 . S
C1154 C1153 1.524 . S
C1154 C1155 1.397 . S
C1154 C1159 1.363 . S
C1155 H1126 0.950 . S
C1155 C1154 1.397 . S
C1155 C1156 1.334 . S
C1156 H1127 0.950 . S
C1156 C1155 1.334 . S
C1156 C1157 1.287 . S
C1157 C1156 1.287 . S
C1157 C1158 1.524 . S
C1157 H1160 0.999 . S
C1158 H1128 0.950 . S
C1158 C1157 1.524 . S
C1158 C1159 1.415 . S
C1159 H1129 0.950 . S
C1159 C1154 1.363 . S
C1159 C1158 1.415 . S
H1160 C1157 0.999 . S
H1161 C1142 0.913 . S
H1162 C1180 0.951 1_556 S
H1163 C1182 0.951 . S
H1164 C1184 0.950 . S
H1165 C1185 0.950 . S
H1166 C1187 0.950 . S
H1167 C1190 0.950 . S
H1168 C1191 0.950 . S
H1169 C1193 0.950 . S
H1170 C1194 0.950 . S
H1171 C1195 0.951 . S
H1172 C1197 0.951 . S
H1173 C1199 0.950 . S
H1174 C1200 0.950 . S
H1175 C1202 0.950 . S
H1176 C1205 0.950 . S
H1177 C1206 0.950 . S
H1178 C1208 0.950 . S
H1179 C1209 0.950 . S
C1180 H1162 0.951 1_554 S
C1180 C1181 1.366 . S
C1180 C1182 1.388 1_554 S
C1181 C1180 1.366 . S
C1181 C1185 1.385 1_545 S
C1182 H1163 0.951 . S
C1182 C1180 1.388 1_556 S
C1182 C1183 1.366 1_556 S
C1183 C1182 1.366 1_554 S
C1183 C1184 1.414 1_545 S
C1183 C1186 1.499 1_554 S
C1184 H1164 0.950 . S
C1184 C1183 1.414 1_565 S
C1184 C1185 1.374 . S
C1185 H1165 0.950 . S
C1185 C1181 1.385 1_565 S
C1185 C1184 1.374 . S
C1186 C1183 1.499 1_556 S
C1186 C1187 1.373 1_556 S
C1186 C1188 1.389 . S
C1187 H1166 0.950 . S
C1187 C1186 1.373 1_554 S
C1187 C1203 1.377 1_554 S
C1188 C1186 1.389 . S
C1188 C1189 1.524 . S
C1188 C1202 1.377 . S
C1189 C1188 1.524 . S
C1189 C1190 1.397 1_545 S
C1189 C1194 1.363 . S
C1190 H1167 0.950 . S
C1190 C1189 1.397 1_565 S
C1190 C1191 1.334 . S
C1191 H1168 0.950 . S
C1191 C1190 1.334 . S
C1191 C1192 1.260 1_565 S
C1192 C1191 1.260 1_545 S
C1192 C1193 1.560 . S
C1192 H1211 0.905 1_545 S
C1193 H1169 0.950 . S
C1193 C1192 1.560 . S
C1193 C1194 1.415 . S
C1194 H1170 0.950 . S
C1194 C1189 1.363 . S
C1194 C1193 1.415 . S
C1195 H1171 0.951 . S
C1195 C1196 1.366 1_565 S
C1195 C1197 1.388 . S
C1196 C1195 1.366 1_545 S
C1196 C1200 1.385 . S
C1197 H1172 0.951 . S
C1197 C1195 1.388 . S
C1197 C1198 1.366 1_565 S
C1198 C1197 1.366 1_545 S
C1198 C1199 1.414 . S
C1198 C1201 1.499 . S
C1199 H1173 0.950 . S
C1199 C1198 1.414 . S
C1199 C1200 1.374 . S
C1200 H1174 0.950 . S
C1200 C1196 1.385 . S
C1200 C1199 1.374 . S
C1201 C1198 1.499 . S
C1201 C1202 1.373 . S
C1201 C1203 1.389 . S
C1202 H1175 0.950 . S
C1202 C1188 1.377 . S
C1202 C1201 1.373 . S
C1203 C1187 1.377 1_556 S
C1203 C1201 1.389 . S
C1203 C1204 1.524 1_556 S
C1204 C1203 1.524 1_554 S
C1204 C1205 1.397 . S
C1204 C1209 1.363 1_545 S
C1205 H1176 0.950 . S
C1205 C1204 1.397 . S
C1205 C1206 1.334 . S
C1206 H1177 0.950 . S
C1206 C1205 1.334 . S
C1206 C1207 1.287 . S
C1207 C1206 1.287 . S
C1207 C1208 1.524 1_545 S
C1207 H1210 0.999 . S
C1208 H1178 0.950 . S
C1208 C1207 1.524 1_565 S
C1208 C1209 1.415 . S
C1209 H1179 0.950 . S
C1209 C1204 1.363 1_565 S
C1209 C1208 1.415 . S
H1210 C1207 0.999 . S
H1211 C1192 0.905 1_565 S
H1212 C1230 0.951 . S
H1213 C1232 0.951 . S
H1214 C1234 0.950 . S
H1215 C1235 0.950 . S
H1216 C1237 0.950 . S
H1217 C1240 0.950 . S
H1218 C1241 0.950 . S
H1219 C1243 0.950 . S
H1220 C1244 0.950 . S
H1221 C1245 0.951 . S
H1222 C1247 0.951 . S
H1223 C1249 0.950 . S
H1224 C1250 0.950 . S
H1225 C1252 0.950 . S
H1226 C1255 0.950 . S
H1227 C1256 0.950 . S
H1228 C1258 0.950 . S
H1229 C1259 0.950 1_554 S
C1230 H1212 0.951 . S
C1230 C1231 1.366 . S
C1230 C1232 1.388 . S
C1231 C1230 1.366 . S
C1231 C1235 1.385 . S
C1232 H1213 0.951 . S
C1232 C1230 1.388 . S
C1232 C1233 1.366 . S
C1233 C1232 1.366 . S
C1233 C1234 1.414 . S
C1233 C1236 1.499 . S
C1234 H1214 0.950 . S
C1234 C1233 1.414 . S
C1234 C1235 1.374 . S
C1235 H1215 0.950 . S
C1235 C1231 1.385 . S
C1235 C1234 1.374 . S
C1236 C1233 1.499 . S
C1236 C1237 1.373 . S
C1236 C1238 1.389 . S
C1237 H1216 0.950 . S
C1237 C1236 1.373 . S
C1237 C1253 1.377 . S
C1238 C1236 1.389 . S
C1238 C1239 1.524 . S
C1238 C1252 1.377 . S
C1239 C1238 1.524 . S
C1239 C1240 1.397 . S
C1239 C1244 1.363 . S
C1240 H1217 0.950 . S
C1240 C1239 1.397 . S
C1240 C1241 1.334 . S
C1241 H1218 0.950 . S
C1241 C1240 1.334 . S
C1241 C1242 1.287 . S
C1242 C1241 1.287 . S
C1242 C1243 1.524 . S
C1242 H1261 0.913 . S
C1243 H1219 0.950 . S
C1243 C1242 1.524 . S
C1243 C1244 1.415 . S
C1244 H1220 0.950 . S
C1244 C1239 1.363 . S
C1244 C1243 1.415 . S
C1245 H1221 0.951 . S
C1245 C1246 1.366 . S
C1245 C1247 1.388 . S
C1246 C1245 1.366 . S
C1246 C1250 1.385 . S
C1247 H1222 0.951 . S
C1247 C1245 1.388 . S
C1247 C1248 1.366 . S
C1248 C1247 1.366 . S
C1248 C1249 1.414 . S
C1248 C1251 1.499 1_556 S
C1249 H1223 0.950 . S
C1249 C1248 1.414 . S
C1249 C1250 1.374 . S
C1250 H1224 0.950 . S
C1250 C1246 1.385 . S
C1250 C1249 1.374 . S
C1251 C1248 1.499 1_554 S
C1251 C1252 1.373 . S
C1251 C1253 1.389 . S
C1252 H1225 0.950 . S
C1252 C1238 1.377 . S
C1252 C1251 1.373 . S
C1253 C1237 1.377 . S
C1253 C1251 1.389 . S
C1253 C1254 1.524 1_554 S
C1254 C1253 1.524 1_556 S
C1254 C1255 1.397 . S
C1254 C1259 1.363 . S
C1255 H1226 0.950 . S
C1255 C1254 1.397 . S
C1255 C1256 1.334 . S
C1256 H1227 0.950 . S
C1256 C1255 1.334 . S
C1256 C1257 1.287 . S
C1257 C1256 1.287 . S
C1257 C1258 1.524 . S
C1257 H1260 0.999 . S
C1258 H1228 0.950 . S
C1258 C1257 1.524 . S
C1258 C1259 1.415 . S
C1259 H1229 0.950 1_556 S
C1259 C1254 1.363 . S
C1259 C1258 1.415 . S
H1260 C1257 0.999 . S
H1261 C1242 0.913 . S
H1262 C1280 0.951 . S
H1263 C1282 0.951 . S
H1264 C1284 0.950 . S
H1265 C1285 0.950 . S
H1266 C1287 0.950 . S
H1267 C1290 0.950 . S
H1268 C1291 0.950 . S
H1269 C1293 0.950 . S
H1270 C1294 0.950 . S
H1271 C1295 0.951 . S
H1272 C1297 0.951 . S
H1273 C1299 0.950 . S
H1274 C1300 0.950 . S
H1275 C1302 0.950 . S
H1276 C1305 0.950 . S
H1277 C1306 0.950 . S
H1278 C1308 0.950 . S
H1279 C1309 0.950 . S
C1280 H1262 0.951 . S
C1280 C1281 1.366 . S
C1280 C1282 1.388 . S
C1281 C1280 1.366 . S
C1281 C1285 1.385 . S
C1282 H1263 0.951 . S
C1282 C1280 1.388 . S
C1282 C1283 1.366 . S
C1283 C1282 1.366 . S
C1283 C1284 1.414 . S
C1283 C1286 1.499 . S
C1284 H1264 0.950 . S
C1284 C1283 1.414 . S
C1284 C1285 1.374 . S
C1285 H1265 0.950 . S
C1285 C1281 1.385 . S
C1285 C1284 1.374 . S
C1286 C1283 1.499 . S
C1286 C1287 1.373 . S
C1286 C1288 1.389 . S
C1287 H1266 0.950 . S
C1287 C1286 1.373 . S
C1287 C1303 1.377 . S
C1288 C1286 1.389 . S
C1288 C1289 1.524 . S
C1288 C1302 1.377 . S
C1289 C1288 1.524 . S
C1289 C1290 1.397 . S
C1289 C1294 1.363 . S
C1290 H1267 0.950 . S
C1290 C1289 1.397 . S
C1290 C1291 1.334 . S
C1291 H1268 0.950 . S
C1291 C1290 1.334 . S
C1291 C1292 1.287 . S
C1292 C1291 1.287 . S
C1292 C1293 1.524 . S
C1292 H1311 0.913 . S
C1293 H1269 0.950 . S
C1293 C1292 1.524 . S
C1293 C1294 1.415 . S
C1294 H1270 0.950 . S
C1294 C1289 1.363 . S
C1294 C1293 1.415 . S
C1295 H1271 0.951 . S
C1295 C1296 1.366 . S
C1295 C1297 1.388 . S
C1296 C1295 1.366 . S
C1296 C1300 1.385 . S
C1297 H1272 0.951 . S
C1297 C1295 1.388 . S
C1297 C1298 1.366 . S
C1298 C1297 1.366 . S
C1298 C1299 1.414 . S
C1298 C1301 1.499 . S
C1299 H1273 0.950 . S
C1299 C1298 1.414 . S
C1299 C1300 1.374 . S
C1300 H1274 0.950 . S
C1300 C1296 1.385 . S
C1300 C1299 1.374 . S
C1301 C1298 1.499 . S
C1301 C1302 1.373 . S
C1301 C1303 1.389 . S
C1302 H1275 0.950 . S
C1302 C1288 1.377 . S
C1302 C1301 1.373 . S
C1303 C1287 1.377 . S
C1303 C1301 1.389 . S
C1303 C1304 1.524 . S
C1304 C1303 1.524 . S
C1304 C1305 1.397 . S
C1304 C1309 1.363 . S
C1305 H1276 0.950 . S
C1305 C1304 1.397 . S
C1305 C1306 1.334 . S
C1306 H1277 0.950 . S
C1306 C1305 1.334 . S
C1306 C1307 1.287 . S
C1307 C1306 1.287 . S
C1307 C1308 1.524 . S
C1307 H1310 0.999 . S
C1308 H1278 0.950 . S
C1308 C1307 1.524 . S
C1308 C1309 1.415 . S
C1309 H1279 0.950 . S
C1309 C1304 1.363 . S
C1309 C1308 1.415 . S
H1310 C1307 0.999 . S
H1311 C1292 0.913 . S
H1312 C1330 0.951 . S
H1313 C1332 0.951 . S
H1314 C1334 0.950 . S
H1315 C1335 0.950 . S
H1316 C1337 0.950 . S
H1317 C1340 0.950 1_655 S
H1318 C1341 0.950 . S
H1319 C1343 0.950 . S
H1320 C1344 0.950 . S
H1321 C1345 0.951 . S
H1322 C1347 0.951 . S
H1323 C1349 0.950 . S
H1324 C1350 0.950 . S
H1325 C1352 0.950 . S
H1326 C1355 0.950 1_455 S
H1327 C1356 0.950 . S
H1328 C1358 0.950 . S
H1329 C1359 0.950 . S
C1330 H1312 0.951 . S
C1330 C1331 1.366 1_455 S
C1330 C1332 1.388 . S
C1331 C1330 1.366 1_655 S
C1331 C1335 1.385 . S
C1332 H1313 0.951 . S
C1332 C1330 1.388 . S
C1332 C1333 1.366 1_455 S
C1333 C1332 1.366 1_655 S
C1333 C1334 1.414 . S
C1333 C1336 1.499 . S
C1334 H1314 0.950 . S
C1334 C1333 1.414 . S
C1334 C1335 1.374 . S
C1335 H1315 0.950 . S
C1335 C1331 1.385 . S
C1335 C1334 1.374 . S
C1336 C1333 1.499 . S
C1336 C1337 1.373 . S
C1336 C1338 1.389 1_655 S
C1337 H1316 0.950 . S
C1337 C1336 1.373 . S
C1337 C1353 1.377 . S
C1338 C1336 1.389 1_455 S
C1338 C1339 1.524 . S
C1338 C1352 1.377 . S
C1339 C1338 1.524 . S
C1339 C1340 1.397 . S
C1339 C1344 1.363 . S
C1340 H1317 0.950 1_455 S
C1340 C1339 1.397 . S
C1340 C1341 1.334 . S
C1341 H1318 0.950 . S
C1341 C1340 1.334 . S
C1341 C1342 1.287 . S
C1342 C1341 1.287 . S
C1342 C1343 1.524 . S
C1342 H1361 0.913 . S
C1343 H1319 0.950 . S
C1343 C1342 1.524 . S
C1343 C1344 1.415 . S
C1344 H1320 0.950 . S
C1344 C1339 1.363 . S
C1344 C1343 1.415 . S
C1345 H1321 0.951 . S
C1345 C1346 1.366 1_655 S
C1345 C1347 1.388 . S
C1346 C1345 1.366 1_455 S
C1346 C1350 1.385 . S
C1347 H1322 0.951 . S
C1347 C1345 1.388 . S
C1347 C1348 1.371 1_655 S
C1348 C1347 1.371 1_455 S
C1348 C1349 1.407 . S
C1348 C1351 1.497 1_455 S
C1349 H1323 0.950 . S
C1349 C1348 1.407 . S
C1349 C1350 1.374 . S
C1350 H1324 0.950 . S
C1350 C1346 1.385 . S
C1350 C1349 1.374 . S
C1351 C1348 1.497 1_655 S
C1351 C1352 1.362 1_655 S
C1351 C1353 1.404 . S
C1352 H1325 0.950 . S
C1352 C1338 1.377 . S
C1352 C1351 1.362 1_455 S
C1353 C1337 1.377 . S
C1353 C1351 1.404 . S
C1353 C1354 1.524 . S
C1354 C1353 1.524 . S
C1354 C1355 1.397 . S
C1354 C1359 1.363 . S
C1355 H1326 0.950 1_655 S
C1355 C1354 1.397 . S
C1355 C1356 1.334 . S
C1356 H1327 0.950 . S
C1356 C1355 1.334 . S
C1356 C1357 1.287 . S
C1357 C1356 1.287 . S
C1357 C1358 1.524 . S
C1357 H1360 0.999 . S
C1358 H1328 0.950 . S
C1358 C1357 1.524 . S
C1358 C1359 1.415 . S
C1359 H1329 0.950 . S
C1359 C1354 1.363 . S
C1359 C1358 1.415 . S
H1360 C1357 0.999 . S
H1361 C1342 0.913 . S
H1362 C1380 0.951 . S
H1363 C1382 0.951 . S
H1364 C1384 0.950 . S
H1365 C1385 0.950 . S
H1366 C1387 0.950 . S
H1367 C1390 0.950 . S
H1368 C1391 0.950 . S
H1369 C1393 0.950 . S
H1370 C1394 0.950 . S
H1371 C1395 0.951 . S
H1372 C1397 0.951 . S
H1373 C1399 0.950 . S
H1374 C1400 0.950 . S
H1375 C1402 0.950 . S
H1376 C1405 0.950 . S
H1377 C1406 0.950 . S
H1378 C1408 0.950 . S
H1379 C1409 0.950 . S
C1380 H1362 0.951 . S
C1380 C1381 1.366 . S
C1380 C1382 1.388 . S
C1381 C1380 1.366 . S
C1381 C1385 1.385 1_565 S
C1382 H1363 0.951 . S
C1382 C1380 1.388 . S
C1382 C1383 1.366 . S
C1383 C1382 1.366 . S
C1383 C1384 1.414 1_565 S
C1383 C1386 1.499 . S
C1384 H1364 0.950 . S
C1384 C1383 1.414 1_545 S
C1384 C1385 1.374 . S
C1385 H1365 0.950 . S
C1385 C1381 1.385 1_545 S
C1385 C1384 1.374 . S
C1386 C1383 1.499 . S
C1386 C1387 1.373 1_565 S
C1386 C1388 1.389 . S
C1387 H1366 0.950 . S
C1387 C1386 1.373 1_545 S
C1387 C1403 1.377 . S
C1388 C1386 1.389 . S
C1388 C1389 1.524 . S
C1388 C1402 1.377 . S
C1389 C1388 1.524 . S
C1389 C1390 1.397 . S
C1389 C1394 1.363 . S
C1390 H1367 0.950 . S
C1390 C1389 1.397 . S
C1390 C1391 1.334 . S
C1391 H1368 0.950 . S
C1391 C1390 1.334 . S
C1391 C1392 1.287 . S
C1392 C1391 1.287 . S
C1392 C1393 1.524 . S
C1392 H1411 0.913 . S
C1393 H1369 0.950 . S
C1393 C1392 1.524 . S
C1393 C1394 1.415 . S
C1394 H1370 0.950 . S
C1394 C1389 1.363 . S
C1394 C1393 1.415 . S
C1395 H1371 0.951 . S
C1395 C1396 1.366 1_545 S
C1395 C1397 1.388 . S
C1396 C1395 1.366 1_565 S
C1396 C1400 1.385 . S
C1397 H1372 0.951 . S
C1397 C1395 1.388 . S
C1397 C1398 1.366 1_545 S
C1398 C1397 1.366 1_565 S
C1398 C1399 1.414 . S
C1398 C1401 1.499 . S
C1399 H1373 0.950 . S
C1399 C1398 1.414 . S
C1399 C1400 1.374 . S
C1400 H1374 0.950 . S
C1400 C1396 1.385 . S
C1400 C1399 1.374 . S
C1401 C1398 1.499 . S
C1401 C1402 1.373 . S
C1401 C1403 1.389 1_565 S
C1402 H1375 0.950 . S
C1402 C1388 1.377 . S
C1402 C1401 1.373 . S
C1403 C1387 1.377 . S
C1403 C1401 1.389 1_545 S
C1403 C1404 1.524 . S
C1404 C1403 1.524 . S
C1404 C1405 1.397 . S
C1404 C1409 1.363 . S
C1405 H1376 0.950 . S
C1405 C1404 1.397 . S
C1405 C1406 1.334 . S
C1406 H1377 0.950 . S
C1406 C1405 1.334 . S
C1406 C1407 1.287 . S
C1407 C1406 1.287 . S
C1407 C1408 1.524 . S
C1407 H1410 0.999 . S
C1408 H1378 0.950 . S
C1408 C1407 1.524 . S
C1408 C1409 1.415 . S
C1409 H1379 0.950 . S
C1409 C1404 1.363 . S
C1409 C1408 1.415 . S
H1410 C1407 0.999 . S
H1411 C1392 0.913 . S
H1412 C1430 0.951 . S
H1413 C1432 0.951 . S
H1414 C1434 0.950 . S
H1415 C1435 0.950 . S
H1416 C1437 0.950 . S
H1417 C1440 0.950 . S
H1418 C1441 0.950 . S
H1419 C1443 0.950 . S
H1420 C1444 0.950 . S
H1421 C1445 0.951 . S
H1422 C1447 0.951 . S
H1423 C1449 0.950 . S
H1424 C1450 0.950 . S
H1425 C1452 0.950 . S
H1426 C1455 0.950 . S
H1427 C1456 0.950 . S
H1428 C1458 0.950 . S
H1429 C1459 0.950 . S
C1430 H1412 0.951 . S
C1430 C1431 1.366 . S
C1430 C1432 1.388 . S
C1431 C1430 1.366 . S
C1431 C1435 1.385 . S
C1432 H1413 0.951 . S
C1432 C1430 1.388 . S
C1432 C1433 1.366 . S
C1433 C1432 1.366 . S
C1433 C1434 1.414 . S
C1433 C1436 1.499 . S
C1434 H1414 0.950 . S
C1434 C1433 1.414 . S
C1434 C1435 1.374 . S
C1435 H1415 0.950 . S
C1435 C1431 1.385 . S
C1435 C1434 1.374 . S
C1436 C1433 1.499 . S
C1436 C1437 1.373 . S
C1436 C1438 1.389 . S
C1437 H1416 0.950 . S
C1437 C1436 1.373 . S
C1437 C1453 1.377 . S
C1438 C1436 1.389 . S
C1438 C1439 1.524 . S
C1438 C1452 1.377 . S
C1439 C1438 1.524 . S
C1439 C1440 1.397 . S
C1439 C1444 1.363 . S
C1440 H1417 0.950 . S
C1440 C1439 1.397 . S
C1440 C1441 1.334 . S
C1441 H1418 0.950 . S
C1441 C1440 1.334 . S
C1441 C1442 1.287 . S
C1442 C1441 1.287 . S
C1442 C1443 1.524 . S
C1442 H1461 0.913 . S
C1443 H1419 0.950 . S
C1443 C1442 1.524 . S
C1443 C1444 1.415 . S
C1444 H1420 0.950 . S
C1444 C1439 1.363 . S
C1444 C1443 1.415 . S
C1445 H1421 0.951 . S
C1445 C1446 1.366 . S
C1445 C1447 1.388 . S
C1446 C1445 1.366 . S
C1446 C1450 1.385 . S
C1447 H1422 0.951 . S
C1447 C1445 1.388 . S
C1447 C1448 1.366 . S
C1448 C1447 1.366 . S
C1448 C1449 1.414 . S
C1448 C1451 1.499 . S
C1449 H1423 0.950 . S
C1449 C1448 1.414 . S
C1449 C1450 1.374 . S
C1450 H1424 0.950 . S
C1450 C1446 1.385 . S
C1450 C1449 1.374 . S
C1451 C1448 1.499 . S
C1451 C1452 1.373 . S
C1451 C1453 1.389 . S
C1452 H1425 0.950 . S
C1452 C1438 1.377 . S
C1452 C1451 1.373 . S
C1453 C1437 1.377 . S
C1453 C1451 1.389 . S
C1453 C1454 1.524 . S
C1454 C1453 1.524 . S
C1454 C1455 1.397 . S
C1454 C1459 1.363 . S
C1455 H1426 0.950 . S
C1455 C1454 1.397 . S
C1455 C1456 1.334 . S
C1456 H1427 0.950 . S
C1456 C1455 1.334 . S
C1456 C1457 1.287 . S
C1457 C1456 1.287 . S
C1457 C1458 1.524 . S
C1457 H1460 0.999 . S
C1458 H1428 0.950 . S
C1458 C1457 1.524 . S
C1458 C1459 1.415 . S
C1459 H1429 0.950 . S
C1459 C1454 1.363 . S
C1459 C1458 1.415 . S
H1460 C1457 0.999 . S
H1461 C1442 0.913 . S
H1462 C1480 0.951 . S
H1463 C1482 0.951 . S
H1464 C1484 0.950 . S
H1465 C1485 0.950 . S
H1466 C1487 0.950 . S
H1467 C1490 0.950 . S
H1468 C1491 0.950 . S
H1469 C1493 0.950 . S
H1470 C1494 0.950 . S
H1471 C1495 0.951 . S
H1472 C1497 0.951 . S
H1473 C1499 0.950 . S
H1474 C1500 0.950 . S
H1475 C1502 0.950 . S
H1476 C1505 0.950 . S
H1477 C1506 0.950 . S
H1478 C1508 0.950 . S
H1479 C1509 0.950 . S
C1480 H1462 0.951 . S
C1480 C1481 1.366 . S
C1480 C1482 1.388 . S
C1481 C1480 1.366 . S
C1481 C1485 1.385 . S
C1482 H1463 0.951 . S
C1482 C1480 1.388 . S
C1482 C1483 1.366 . S
C1483 C1482 1.366 . S
C1483 C1484 1.414 . S
C1483 C1486 1.499 . S
C1484 H1464 0.950 . S
C1484 C1483 1.414 . S
C1484 C1485 1.374 . S
C1485 H1465 0.950 . S
C1485 C1481 1.385 . S
C1485 C1484 1.374 . S
C1486 C1483 1.499 . S
C1486 C1487 1.373 . S
C1486 C1488 1.389 . S
C1487 H1466 0.950 . S
C1487 C1486 1.373 . S
C1487 C1503 1.377 . S
C1488 C1486 1.389 . S
C1488 C1489 1.524 . S
C1488 C1502 1.377 . S
C1489 C1488 1.524 . S
C1489 C1490 1.397 . S
C1489 C1494 1.363 . S
C1490 H1467 0.950 . S
C1490 C1489 1.397 . S
C1490 C1491 1.334 . S
C1491 H1468 0.950 . S
C1491 C1490 1.334 . S
C1491 C1492 1.287 . S
C1492 C1491 1.287 . S
C1492 C1493 1.524 . S
C1492 H1511 0.913 . S
C1493 H1469 0.950 . S
C1493 C1492 1.524 . S
C1493 C1494 1.415 . S
C1494 H1470 0.950 . S
C1494 C1489 1.363 . S
C1494 C1493 1.415 . S
C1495 H1471 0.951 . S
C1495 C1496 1.366 . S
C1495 C1497 1.388 . S
C1496 C1495 1.366 . S
C1496 C1500 1.385 . S
C1497 H1472 0.951 . S
C1497 C1495 1.388 . S
C1497 C1498 1.366 . S
C1498 C1497 1.366 . S
C1498 C1499 1.414 . S
C1498 C1501 1.499 . S
C1499 H1473 0.950 . S
C1499 C1498 1.414 . S
C1499 C1500 1.374 . S
C1500 H1474 0.950 . S
C1500 C1496 1.385 . S
C1500 C1499 1.374 . S
C1501 C1498 1.499 . S
C1501 C1502 1.373 . S
C1501 C1503 1.389 . S
C1502 H1475 0.950 . S
C1502 C1488 1.377 . S
C1502 C1501 1.373 . S
C1503 C1487 1.377 . S
C1503 C1501 1.389 . S
C1503 C1504 1.524 . S
C1504 C1503 1.524 . S
C1504 C1505 1.397 . S
C1504 C1509 1.363 . S
C1505 H1476 0.950 . S
C1505 C1504 1.397 . S
C1505 C1506 1.334 . S
C1506 H1477 0.950 . S
C1506 C1505 1.334 . S
C1506 C1507 1.287 . S
C1507 C1506 1.287 . S
C1507 C1508 1.524 . S
C1507 H1510 0.999 . S
C1508 H1478 0.950 . S
C1508 C1507 1.524 . S
C1508 C1509 1.415 . S
C1509 H1479 0.950 . S
C1509 C1504 1.363 . S
C1509 C1508 1.415 . S
H1510 C1507 0.999 . S
H1511 C1492 0.913 . S
C331 C125 1.891 . S
C346 C154 1.950 . S
C396 C194 2.117 . S
C381 C144 1.998 . S
C446 C258 1.842 . S
C431 C87 1.804 . S
C496 C274 1.466 . S
C481 C106 1.424 . S
C546 C175 1.952 . S
C531 C49 1.901 . S
C581 C68 2.069 . S
C596 C215 2.117 . S
C631 C11 1.856 . S
C646 C249 1.843 . S
C681 C30 1.449 . S
C696 C295 1.466 . S
C746 C169 0.318 . S
C731 C97 0.382 . S
C796 C209 0.670 . S
C781 C116 0.681 . S
C846 C245 0.551 . S
C831 C135 0.572 . S
C881 C78 0.446 . S
C896 C289 0.461 . S
C931 C21 0.382 . S
C946 C178 0.319 . S
C996 C218 0.670 . S
C981 C40 0.682 . S
C1046 C256 0.553 . S
C1031 C59 0.573 . S
C1081 C2 0.443 . S
C1096 C298 0.462 . S
C1131 C101 1.837 1_556 S
C1146 C176 1.978 . S
C1181 C120 1.829 . S
C1196 C216 1.936 . S
C1246 C234 1.467 . S
C1231 C139 1.471 . S
C1296 C296 2.373 . S
C1281 C82 2.196 . S
C1331 C25 1.837 . S
C1346 C165 1.977 . S
C1396 C205 1.935 . S
C1381 C44 1.829 . S
C1446 C255 1.467 . S
C1431 C63 1.474 . S
C1481 C6 2.198 . S
C1496 C285 2.374 . S
