# Generated by pormake.
# Topology zzz, (3,6)-cn, num edge types: 1
# Building blocks:
#     Node 0, Type 0, BuildingBlock: CUQRIR_clean_linker_1, # of connection points: 3
#     Node 1, Type 0, BuildingBlock: CUQRIR_clean_linker_1, # of connection points: 3
#     Node 2, Type 0, BuildingBlock: CUQRIR_clean_linker_1, # of connection points: 3
#     Node 3, Type 0, BuildingBlock: CUQRIR_clean_linker_1, # of connection points: 3
#     Node 4, Type 0, BuildingBlock: CUQRIR_clean_linker_1, # of connection points: 3
#     Node 5, Type 0, BuildingBlock: CUQRIR_clean_linker_1, # of connection points: 3
#     Node 6, Type 0, BuildingBlock: CUQRIR_clean_linker_1, # of connection points: 3
#     Node 7, Type 0, BuildingBlock: CUQRIR_clean_linker_1, # of connection points: 3
#     Node 8, Type 1, BuildingBlock: KUMJIN_clean_sbu_0, # of connection points: 6
#     Node 9, Type 1, BuildingBlock: KUMJIN_clean_sbu_0, # of connection points: 6
#     Node 10, Type 1, BuildingBlock: KUMJIN_clean_sbu_0, # of connection points: 6
#     Node 11, Type 1, BuildingBlock: KUMJIN_clean_sbu_0, # of connection points: 6
#     Edge 12, Type (0, 1), BuildingBlock: ZUJKAS_clean_linker_0, # of connection points: 2
#     Edge 13, Type (0, 1), BuildingBlock: ZUJKAS_clean_linker_0, # of connection points: 2
#     Edge 14, Type (0, 1), BuildingBlock: ZUJKAS_clean_linker_0, # of connection points: 2
#     Edge 15, Type (0, 1), BuildingBlock: ZUJKAS_clean_linker_0, # of connection points: 2
#     Edge 16, Type (0, 1), BuildingBlock: ZUJKAS_clean_linker_0, # of connection points: 2
#     Edge 17, Type (0, 1), BuildingBlock: ZUJKAS_clean_linker_0, # of connection points: 2
#     Edge 18, Type (0, 1), BuildingBlock: ZUJKAS_clean_linker_0, # of connection points: 2
#     Edge 19, Type (0, 1), BuildingBlock: ZUJKAS_clean_linker_0, # of connection points: 2
#     Edge 20, Type (0, 1), BuildingBlock: ZUJKAS_clean_linker_0, # of connection points: 2
#     Edge 21, Type (0, 1), BuildingBlock: ZUJKAS_clean_linker_0, # of connection points: 2
#     Edge 22, Type (0, 1), BuildingBlock: ZUJKAS_clean_linker_0, # of connection points: 2
#     Edge 23, Type (0, 1), BuildingBlock: ZUJKAS_clean_linker_0, # of connection points: 2
#     Edge 24, Type (0, 1), BuildingBlock: ZUJKAS_clean_linker_0, # of connection points: 2
#     Edge 25, Type (0, 1), BuildingBlock: ZUJKAS_clean_linker_0, # of connection points: 2
#     Edge 26, Type (0, 1), BuildingBlock: ZUJKAS_clean_linker_0, # of connection points: 2
#     Edge 27, Type (0, 1), BuildingBlock: ZUJKAS_clean_linker_0, # of connection points: 2
#     Edge 28, Type (0, 1), BuildingBlock: ZUJKAS_clean_linker_0, # of connection points: 2
#     Edge 29, Type (0, 1), BuildingBlock: ZUJKAS_clean_linker_0, # of connection points: 2
#     Edge 30, Type (0, 1), BuildingBlock: ZUJKAS_clean_linker_0, # of connection points: 2
#     Edge 31, Type (0, 1), BuildingBlock: ZUJKAS_clean_linker_0, # of connection points: 2
#     Edge 32, Type (0, 1), BuildingBlock: ZUJKAS_clean_linker_0, # of connection points: 2
#     Edge 33, Type (0, 1), BuildingBlock: ZUJKAS_clean_linker_0, # of connection points: 2
#     Edge 34, Type (0, 1), BuildingBlock: ZUJKAS_clean_linker_0, # of connection points: 2
#     Edge 35, Type (0, 1), BuildingBlock: ZUJKAS_clean_linker_0, # of connection points: 2
# Relax obj value: 0.165
# Max RMSD: 0.155
# Mean RMSD: 0.116
data_MOF--net-zzz--node1-KUMJIN_clean_sbu_0--node2-CUQRIR_clean_linker_1--edge1-ZUJKAS_clean_linker_0
_symmetry_space_group_name_H-M    P1
_symmetry_Int_Tables_number       1
_symmetry_cell_setting            triclinic
loop_
_symmetry_equiv_pos_as_xyz
'x, y, z'
_cell_length_a     62.620934
_cell_length_b     62.464837
_cell_length_c     17.452549
_cell_angle_alpha  91.156631
_cell_angle_beta   89.685366
_cell_angle_gamma 89.97468
loop_
_atom_site_label
_atom_site_type_symbol
_atom_site_fract_x
_atom_site_fract_y
_atom_site_fract_z
_atom_type_partial_charge
C0 C 0.75438 0.52621 0.18335 0.0
N1 N 0.77517 0.53234 0.18691 0.0
N2 N 0.74478 0.53431 0.12017 0.0
C3 C 0.74342 0.51284 0.24212 0.0
C4 C 0.76068 0.5454 0.08562 0.0
N5 N 0.77889 0.54432 0.12643 0.0
C6 C 0.75895 0.55584 0.00894 0.0
H7 H 0.74496 0.49571 0.22483 0.0
H8 H 0.72619 0.51689 0.24597 0.0
H9 H 0.75098 0.51512 0.29907 0.0
H10 H 0.75336 0.57257 0.01779 0.0
H11 H 0.74733 0.54723 0.97178 0.0
H12 H 0.77467 0.5563 0.97939 0.0
C13 C 1.00582 0.75887 0.23792 0.0
N14 N 0.99764 0.77918 0.23734 0.0
N15 N 0.99771 0.74656 0.17924 0.0
C16 C 0.0213 0.75098 0.29606 0.0
C17 C 0.98464 0.76023 0.14266 0.0
N18 N 0.9844 0.77975 0.17802 0.0
C19 C 0.97391 0.75512 0.06731 0.0
H20 H 0.03775 0.75474 0.27668 0.0
H21 H 0.01994 0.73338 0.30207 0.0
H22 H 0.01855 0.75914 0.35234 0.0
H23 H 0.95709 0.75051 0.07849 0.0
H24 H 0.98195 0.74169 0.03621 0.0
H25 H 0.97393 0.76924 0.02978 0.0
C26 C 0.77532 1.00177 0.2365 0.0
N27 N 0.75615 0.99167 0.24354 0.0
N28 N 0.78835 0.991 0.18607 0.0
C29 C 0.78119 0.0222 0.27764 0.0
C30 C 0.77617 0.97427 0.16199 0.0
N31 N 0.75675 0.97462 0.19667 0.0
C32 C 0.78257 0.95881 0.09855 0.0
H33 H 0.7757 0.0359 0.24337 0.0
H34 H 0.79876 0.02341 0.28452 0.0
H35 H 0.77321 0.02321 0.33454 0.0
H36 H 0.7964 0.94919 0.11723 0.0
H37 H 0.78765 0.96785 0.04746 0.0
H38 H 0.76948 0.94766 0.08263 0.0
C39 C 0.53638 0.78984 0.24335 0.0
N40 N 0.54576 0.77081 0.25852 0.0
N41 N 0.54954 0.80217 0.20037 0.0
C42 C 0.51398 0.79577 0.266 0.0
C43 C 0.56713 0.78979 0.18952 0.0
N44 N 0.56488 0.77086 0.22504 0.0
C45 C 0.5857 0.7956 0.139 0.0
H46 H 0.50283 0.78893 0.22283 0.0
H47 H 0.51195 0.81342 0.26819 0.0
H48 H 0.50986 0.78899 0.32247 0.0
H49 H 0.59272 0.81097 0.15934 0.0
H50 H 0.57995 0.79793 0.0797 0.0
H51 H 0.59835 0.78318 0.13861 0.0
C52 C 0.27976 0.50158 0.10238 0.0
N53 N 0.25894 0.49555 0.10005 0.0
N54 N 0.28938 0.49413 0.1665 0.0
C55 C 0.29064 0.51449 0.04213 0.0
C56 C 0.27342 0.4837 0.20324 0.0
N57 N 0.25516 0.48439 0.16253 0.0
C58 C 0.27523 0.47427 0.28157 0.0
H59 H 0.30788 0.51046 0.03858 0.0
H60 H 0.28906 0.53173 0.05763 0.0
H61 H 0.28305 0.51171 0.98549 0.0
H62 H 0.25947 0.47359 0.31076 0.0
H63 H 0.28649 0.48371 0.31764 0.0
H64 H 0.28147 0.45769 0.27553 0.0
C65 C 0.02914 0.28317 0.07565 0.0
N66 N 0.03896 0.26373 0.06708 0.0
N67 N 0.03984 0.29612 0.12665 0.0
C68 C 1.00925 0.28947 0.03447 0.0
C69 C 0.05622 0.28355 0.14945 0.0
N70 N 0.05579 0.26417 0.11315 0.0
C71 C 0.07188 0.28979 0.21127 0.0
H72 H 1.00869 0.30706 0.02703 0.0
H73 H 0.99519 0.28468 0.06907 0.0
H74 H 1.00833 0.28112 0.97784 0.0
H75 H 0.06363 0.29876 0.25832 0.0
H76 H 0.0842 0.30042 0.18664 0.0
H77 H 0.08014 0.27573 0.2351 0.0
C78 C 0.25039 0.03766 0.011 0.0
N79 N 0.26972 0.04736 1.00301 0.0
N80 N 0.23776 0.04873 0.06187 0.0
C81 C 0.24436 0.01684 0.9729 0.0
C82 C 0.2503 0.06524 0.0851 0.0
N83 N 0.26962 0.06443 0.04977 0.0
C84 C 0.24419 0.0812 0.14713 0.0
H85 H 0.25154 0.01562 0.91469 0.0
H86 H 0.22674 0.01522 0.96948 0.0
H87 H 0.25071 1.00352 1.00719 0.0
H88 H 0.24503 0.07333 0.20349 0.0
H89 H 0.22751 0.08666 0.13913 0.0
H90 H 0.25497 0.09529 0.14749 0.0
C91 C 0.49404 0.25665 0.03756 0.0
N92 N 0.4902 0.27805 0.03752 0.0
N93 N 0.48697 0.24798 0.1041 0.0
C94 C 0.50425 0.24426 0.97269 0.0
C95 C 0.47903 0.265 0.14452 0.0
N96 N 0.48091 0.28307 0.104 0.0
C97 C 0.47098 0.26422 0.22581 0.0
H98 H 0.49855 0.22743 0.97145 0.0
H99 H 0.5218 0.2442 0.98106 0.0
H100 H 0.50083 0.25186 0.91716 0.0
H101 H 0.47974 0.25195 0.25834 0.0
H102 H 0.45382 0.25983 0.2252 0.0
H103 H 0.47259 0.28 0.25554 0.0
Eu104 Eu 0.03509 0.01953 0.72005 0.0
C105 C 0.95823 0.99299 0.52334 0.0
C106 C 0.97236 0.96726 0.43035 0.0
C107 C 0.93557 0.96432 0.47373 0.0
C108 C 0.97517 0.98533 0.47925 0.0
C109 C 0.93811 0.98285 0.51961 0.0
C110 C 0.95266 0.95654 0.42922 0.0
C111 C 0.92385 1.01125 0.60094 0.0
N112 N 0.96108 1.01098 0.56696 0.0
C113 C 0.94402 0.02081 0.60242 0.0
C114 C 0.92095 0.99201 0.5603 0.0
Eu115 Eu 0.99593 0.0259 0.56764 0.0
N116 N 0.99411 0.99595 0.48176 0.0
C117 C 1.01029 0.99026 0.43244 0.0
C118 C 0.9893 0.96071 0.38287 0.0
C119 C 1.00823 0.97245 0.38319 0.0
H120 H 0.94629 0.03565 0.63436 0.0
H121 H 0.02132 0.96771 0.34581 0.0
H122 H 0.95033 0.9425 0.39274 0.0
H123 H 0.91058 0.01871 0.6312 0.0
H124 H 0.02513 0.99893 0.43178 0.0
H125 H 1.00713 0.06541 0.97462 0.0
H126 H 0.98781 0.94687 0.34486 0.0
H127 H 0.08756 0.01406 0.67867 0.0
H128 H 1.0086 0.03466 0.88606 0.0
H129 H 0.12041 0.03603 0.68122 0.0
H130 H 0.9203 0.9562 0.47078 0.0
H131 H 0.03459 0.09372 0.96803 0.0
H132 H 0.06921 0.1063 0.9118 0.0
H133 H 0.90528 0.98467 0.55896 0.0
H134 H 0.10049 0.0983 0.83016 0.0
N135 N 0.0345 0.04676 0.81935 0.0
C136 C 0.01976 0.0475 0.87763 0.0
C137 C 0.03479 0.0806 0.92648 0.0
C138 C 0.05135 0.07844 0.87293 0.0
C139 C 0.01926 0.06469 0.93023 0.0
C140 C 0.05091 0.06094 0.82034 0.0
H141 H 0.12004 0.07173 0.74536 0.0
N142 N 0.06833 0.03799 0.73316 0.0
C143 C 0.10581 0.04219 0.70674 0.0
C144 C 0.0684 0.05649 0.77483 0.0
C145 C 0.08716 0.02989 0.70473 0.0
C146 C 0.10551 0.06234 0.74275 0.0
C147 C 0.08689 0.06936 0.78009 0.0
O148 O 0.05783 1.0004 0.78431 0.0
O149 O 0.01481 1.00202 0.6329 0.0
O150 O 0.98025 1.0084 0.66593 0.0
O151 O 1.00037 0.02246 0.76512 0.0
O152 O 0.04627 0.9924 0.64005 0.0
O153 O 0.0241 0.99533 0.79962 0.0
O154 O 0.97368 0.04983 0.52671 0.0
O155 O 0.01761 0.04353 0.65071 0.0
O156 O 0.05401 0.0277 0.61236 0.0
O157 O 0.02924 0.02921 0.51311 0.0
O158 O 0.98676 0.0549 0.64296 0.0
O159 O 0.99896 0.03784 0.4515 0.0
C160 C 0.0282 0.98826 0.60778 0.0
C161 C 0.04554 0.96455 0.7861 0.0
C162 C 0.02853 0.92976 0.7656 0.0
C163 C 0.0284 0.95055 0.79776 0.0
C164 C 0.04642 0.92289 0.72262 0.0
C165 C 0.06351 0.95719 0.74449 0.0
C166 C 0.06384 0.93649 0.71285 0.0
C167 C 0.98239 0.01389 0.73884 0.0
C168 C 0.04314 0.9874 0.80828 0.0
C169 C 0.08661 0.08798 0.82656 0.0
C170 C 0.06883 0.09251 0.87313 0.0
C171 C 1.00501 0.05811 0.67483 0.0
C172 C 0.98627 0.07329 0.43329 0.0
C173 C 1.0067 0.08169 0.41889 0.0
C174 C 1.00894 0.10258 0.39177 0.0
C175 C 0.99053 0.11502 0.37993 0.0
C176 C 0.96815 0.08595 0.42109 0.0
C177 C 0.9703 0.10674 0.39478 0.0
C178 C 0.04912 0.02977 0.53914 0.0
C179 C 0.98322 0.05144 0.46056 0.0
H180 H 0.01482 0.95604 0.83158 0.0
H181 H 0.04697 0.90703 0.69651 0.0
H182 H 0.07698 0.96761 0.73399 0.0
H183 H 0.07754 0.93108 0.67965 0.0
H184 H 0.02075 0.07212 0.42925 0.0
H185 H 0.99174 0.13106 0.35782 0.0
H186 H 0.95229 0.0797 0.43184 0.0
H187 H 0.95625 0.1164 0.38521 0.0
Eu188 Eu 0.5197 0.04108 0.71975 0.0
C189 C 0.54832 0.97352 0.4861 0.0
C190 C 0.56921 0.99436 0.39743 0.0
C191 C 0.57882 0.95738 0.41945 0.0
C192 C 0.55222 0.99271 0.4508 0.0
C193 C 0.56125 0.95546 0.46911 0.0
C194 C 0.58275 0.97679 0.38345 0.0
C195 C 0.53681 0.93408 0.54228 0.0
N196 N 0.53102 0.97205 0.53279 0.0
C197 C 0.52435 0.95232 0.55622 0.0
C198 C 0.55562 0.93574 0.49982 0.0
Eu199 Eu 0.51085 1.00397 0.5576 0.0
N200 N 0.53907 1.00957 0.46661 0.0
C201 C 0.5414 0.02808 0.42645 0.0
C202 C 0.57193 0.0135 0.35864 0.0
C203 C 0.5578 0.03032 0.37257 0.0
H204 H 0.50937 0.95062 0.58654 0.0
H205 H 0.55957 0.04514 0.34207 0.0
H206 H 0.59604 0.97792 0.34367 0.0
H207 H 0.53173 0.91871 0.56336 0.0
H208 H 0.53093 0.04148 0.43498 0.0
H209 H 0.47385 0.99745 0.93643 0.0
H210 H 0.58466 0.01532 0.31699 0.0
H211 H 0.51891 0.09448 0.69205 0.0
H212 H 0.50147 1.00232 0.84048 0.0
H213 H 0.49578 0.12554 0.71887 0.0
H214 H 0.58904 0.94377 0.40655 0.0
H215 H 0.44822 0.02649 0.96626 0.0
H216 H 0.43638 0.06399 0.94634 0.0
H217 H 0.56514 0.92154 0.48819 0.0
H218 H 0.44162 0.0985 0.8842 0.0
N219 N 0.49187 0.03392 0.81049 0.0
C220 C 0.49056 0.01526 0.85032 0.0
C221 C 0.46038 0.02876 0.92274 0.0
C222 C 0.46217 0.0481 0.88453 0.0
C223 C 0.47481 0.01238 0.90615 0.0
C224 C 0.4783 0.05031 0.82811 0.0
H225 H 0.46333 0.12145 0.7983 0.0
N226 N 0.49809 0.07202 0.74462 0.0
C227 C 0.49125 0.1099 0.73903 0.0
C228 C 0.4813 0.06979 0.79332 0.0
C229 C 0.50407 0.0921 0.72248 0.0
C230 C 0.47299 0.10753 0.7839 0.0
C231 C 0.46827 0.08752 0.81411 0.0
O232 O 0.54169 0.06545 0.76397 0.0
O233 O 0.53595 0.01997 0.63047 0.0
O234 O 0.51815 0.98338 0.65939 0.0
O235 O 0.52953 1.00726 0.75513 0.0
O236 O 0.54835 0.0505 0.64805 0.0
O237 O 0.53371 0.03816 0.83288 0.0
O238 O 0.48862 0.98034 0.51037 0.0
O239 O 0.49458 0.02518 0.64677 0.0
O240 O 0.5122 0.06185 0.61854 0.0
O241 O 0.50294 0.03795 0.51999 0.0
O242 O 0.48267 0.9944 0.63161 0.0
O243 O 0.49489 1.00934 0.44904 0.0
C244 C 0.55075 0.03267 0.61051 0.0
C245 C 0.56834 0.05302 0.84707 0.0
C246 C 0.5985 0.0314 0.88808 0.0
C247 C 0.57719 0.03303 0.86442 0.0
C248 C 0.61103 0.0501 0.8927 0.0
C249 C 0.5811 0.07143 0.852 0.0
C250 C 0.60238 0.06992 0.8743 0.0
C251 C 0.52588 0.98757 0.72823 0.0
C252 C 0.54572 0.05507 0.82612 0.0
C253 C 0.45177 0.0851 0.86787 0.0
C254 C 0.44883 0.06547 0.90341 0.0
C255 C 0.47998 0.0124 0.66784 0.0
C256 C 0.4595 0.99599 0.44641 0.0
C257 C 0.45182 0.01464 0.41213 0.0
C258 C 0.42979 0.01833 0.40551 0.0
C259 C 0.41543 1.00296 0.43347 0.0
C260 C 0.44486 0.98084 0.47352 0.0
C261 C 0.42297 0.98439 0.46724 0.0
C262 C 0.50576 0.05762 0.54799 0.0
C263 C 0.48269 0.99255 0.45484 0.0
H264 H 0.5675 0.01876 0.85969 0.0
H265 H 0.62741 0.04953 0.91219 0.0
H266 H 0.57455 0.087 0.83913 0.0
H267 H 0.61213 0.0842 0.87844 0.0
H268 H 0.46298 0.02638 0.39111 0.0
H269 H 0.39835 1.005 0.42776 0.0
H270 H 0.45032 0.96627 0.49978 0.0
H271 H 0.41178 0.97263 0.48816 0.0
Eu272 Eu 0.533 0.51753 0.56396 0.0
C273 C 0.45842 0.50607 0.78649 0.0
C274 C 0.42747 0.5191 0.71889 0.0
C275 C 0.42329 0.49099 0.81181 0.0
C276 C 0.44972 0.51921 0.73153 0.0
C277 C 0.44515 0.49222 0.82852 0.0
C278 C 0.41445 0.50447 0.75738 0.0
C279 C 0.47536 0.48399 0.90804 0.0
N280 N 0.47953 0.508 0.80302 0.0
C281 C 0.48782 0.49808 0.86563 0.0
C282 C 0.45403 0.48073 0.88853 0.0
Eu283 Eu 0.49945 0.53161 0.72464 0.0
N284 N 0.4626 0.53345 0.69571 0.0
C285 C 0.45399 0.54909 0.65184 0.0
C286 C 0.41875 0.53449 0.67117 0.0
C287 C 0.43203 0.54969 0.63821 0.0
H288 H 0.50412 0.5007 0.88278 0.0
H289 H 0.42536 0.56202 0.60281 0.0
H290 H 0.39738 0.504 0.74745 0.0
H291 H 0.48217 0.47577 0.95617 0.0
H292 H 0.46384 0.56121 0.62663 0.0
H293 H 0.54223 0.43466 0.4592 0.0
H294 H 0.40168 0.53535 0.66228 0.0
H295 H 0.5727 0.55329 0.60303 0.0
H296 H 0.52384 0.46919 0.47722 0.0
H297 H 0.61091 0.55291 0.631 0.0
H298 H 0.41292 0.48028 0.84294 0.0
H299 H 0.5791 0.43013 0.50618 0.0
H300 H 0.61183 0.44666 0.56428 0.0
H301 H 0.44436 0.46995 0.92203 0.0
H302 H 0.63059 0.47893 0.61048 0.0
N303 N 0.54963 0.48402 0.53743 0.0
C304 C 0.53987 0.46751 0.49847 0.0
C305 C 0.57104 0.44535 0.51484 0.0
C306 C 0.58154 0.4628 0.54925 0.0
C307 C 0.55025 0.44785 0.48808 0.0
C308 C 0.57034 0.48228 0.55935 0.0
H309 H 0.63067 0.51874 0.63121 0.0
N310 N 0.57001 0.51931 0.59101 0.0
C311 C 0.6026 0.53801 0.61952 0.0
C312 C 0.58084 0.50045 0.58656 0.0
C313 C 0.58074 0.53808 0.60394 0.0
C314 C 0.61366 0.51866 0.62011 0.0
C315 C 0.6029 0.49958 0.60262 0.0
O316 O 0.52027 0.53497 0.46686 0.0
O317 O 0.49926 0.52593 0.59812 0.0
O318 O 0.49945 0.4951 0.7154 0.0
O319 O 0.5278 0.48682 0.63206 0.0
O320 O 0.5035 0.49893 0.52863 0.0
O321 O 0.55136 0.5209 0.45748 0.0
O322 O 0.48225 0.55225 0.80678 0.0
O323 O 0.53368 0.52958 0.6845 0.0
O324 O 0.53557 0.55272 0.59879 0.0
O325 O 0.50107 0.5584 0.63746 0.0
O326 O 0.52644 0.51602 0.78895 0.0
O327 O 0.51595 0.55671 0.79076 0.0
C328 C 0.48951 0.51085 0.56326 0.0
C329 C 0.53145 0.5238 0.34416 0.0
C330 C 0.5144 0.49825 0.25679 0.0
C331 C 0.51927 0.50527 0.33167 0.0
C332 C 0.52167 0.51018 0.19443 0.0
C333 C 0.53877 0.53545 0.28146 0.0
C334 C 0.53393 0.52857 0.20689 0.0
C335 C 0.51298 0.48129 0.6828 0.0
C336 C 0.53647 0.53118 0.42225 0.0
C337 C 0.61375 0.47993 0.5971 0.0
C338 C 0.60307 0.46156 0.57073 0.0
C339 C 0.54148 0.51952 0.74028 0.0
C340 C 0.50264 0.56248 0.91576 0.0
C341 C 0.51796 0.57658 0.94607 0.0
C342 C 0.52144 0.57817 0.02557 0.0
C343 C 0.50955 0.56504 0.07448 0.0
C344 C 0.49095 0.54945 0.96555 0.0
C345 C 0.49453 0.55067 0.04444 0.0
C346 C 0.51891 0.56554 0.60622 0.0
C347 C 0.49937 0.56164 0.83216 0.0
H348 H 0.51361 0.49631 0.38018 0.0
H349 H 0.51844 0.50494 0.13609 0.0
H350 H 0.54827 0.54978 0.29019 0.0
H351 H 0.53991 0.53732 0.15848 0.0
H352 H 0.52718 0.58635 0.90733 0.0
H353 H 0.51148 0.56622 0.13603 0.0
H354 H 0.47902 0.53841 0.94377 0.0
H355 H 0.48543 0.54065 0.08257 0.0
Eu356 Eu 0.02377 0.5394 0.59294 0.0
C357 C 1.00706 0.44985 0.68447 0.0
C358 C 0.97071 0.4364 0.68624 0.0
C359 C 1.00008 0.4118 0.66328 0.0
C360 C 0.98536 0.45356 0.69302 0.0
C361 C 0.01461 0.42882 0.66974 0.0
C362 C 0.97818 0.41562 0.67032 0.0
C363 C 0.05052 0.44257 0.67188 0.0
N364 N 0.02083 0.46657 0.69249 0.0
C365 C 0.0424 0.46303 0.68741 0.0
C366 C 0.03659 0.42537 0.66334 0.0
Eu367 Eu 1.00559 0.50023 0.73066 0.0
N368 N 0.97861 0.47363 0.7119 0.0
C369 C 0.95756 0.47711 0.73061 0.0
C370 C 0.949 0.44041 0.699 0.0
C371 C 0.94243 0.46084 0.72214 0.0
H372 H 0.05371 0.47583 0.69329 0.0
H373 H 0.92579 0.46396 0.73527 0.0
H374 H 0.96718 0.40228 0.66545 0.0
H375 H 0.06758 0.44008 0.66699 0.0
H376 H 0.9524 0.49256 0.75291 0.0
H377 H 0.09822 0.58501 0.62026 0.0
H378 H 0.93731 0.42768 0.69403 0.0
H379 H 0.97239 0.55849 0.60764 0.0
H380 H 0.07556 0.55435 0.58367 0.0
H381 H 0.95389 0.59171 0.63819 0.0
H382 H 1.00564 0.39554 0.65334 0.0
H383 H 0.08176 0.61821 0.67244 0.0
H384 H 0.04859 0.63908 0.70176 0.0
H385 H 0.04298 0.40948 0.65229 0.0
H386 H 1.00949 0.64131 0.70151 0.0
N387 N 0.04672 0.56867 0.62508 0.0
C388 C 0.06825 0.56826 0.6107 0.0
C389 C 0.07178 0.6045 0.65879 0.0
C390 C 0.04956 0.60571 0.66559 0.0
C391 C 0.08114 0.5858 0.62967 0.0
C392 C 0.03724 0.58735 0.64723 0.0
H393 H 0.97421 0.62404 0.67481 0.0
N394 N 1.0037 0.57074 0.6285 0.0
C395 C 0.97113 0.59103 0.64159 0.0
C396 C 0.01516 0.58854 0.64758 0.0
C397 C 0.9819 0.57195 0.62433 0.0
C398 C 0.98265 0.60922 0.66256 0.0
C399 C 1.0049 0.60816 0.66622 0.0
O400 O 1.00912 0.5512 0.48799 0.0
O401 O 0.01488 0.50472 0.60704 0.0
O402 O 0.04089 0.50696 0.75233 0.0
O403 O 0.05342 0.53109 0.66234 0.0
O404 O 0.04211 0.51082 0.54341 0.0
O405 O 0.0434 0.54689 0.49418 0.0
O406 O 0.02303 0.49266 0.8357 0.0
O407 O 0.01503 0.53473 0.71665 0.0
O408 O 0.9904 0.52787 0.55777 0.0
O409 O 0.97641 0.50906 0.66028 0.0
O410 O 0.98758 0.52915 0.77948 0.0
O411 O 0.98857 0.49202 0.83477 0.0
C412 C 0.02948 0.49589 0.56652 0.0
C413 C 0.02783 0.54466 0.37087 0.0
C414 C 0.04544 0.52437 0.26782 0.0
C415 C 0.04186 0.52834 0.34631 0.0
C416 C 0.03439 0.53651 0.21399 0.0
C417 C 0.01628 0.55604 0.31638 0.0
C418 C 0.01947 0.55186 0.23825 0.0
C419 C 0.05637 0.51847 0.72154 0.0
C420 C 0.02729 0.55204 0.45142 0.0
C421 C 0.01711 0.62619 0.6868 0.0
C422 C 0.03938 0.62492 0.68706 0.0
C423 C 1.00058 0.54379 0.75695 0.0
C424 C 1.00491 0.49969 0.95377 0.0
C425 C 0.99051 0.51625 0.97236 0.0
C426 C 0.98711 0.52276 0.04903 0.0
C427 C 0.99856 0.51263 0.10702 0.0
C428 C 0.01681 0.49036 0.01214 0.0
C429 C 0.01369 0.49688 0.08842 0.0
C430 C 0.97442 0.51806 0.5928 0.0
C431 C 1.00567 0.49018 0.87594 0.0
H432 H 0.05114 0.51975 0.388 0.0
H433 H 0.03743 0.53421 0.15324 0.0
H434 H 1.00543 0.56873 0.33421 0.0
H435 H 0.01085 0.561 0.19638 0.0
H436 H 0.98092 0.52315 0.92767 0.0
H437 H 0.99572 0.5168 0.16669 0.0
H438 H 0.02795 0.4775 0.999 0.0
H439 H 0.0226 0.48931 0.13345 0.0
H440 H 0.1997 0.06717 0.03421 0.0
H441 H 0.16641 0.06289 0.10817 0.0
H442 H 0.19671 0.01455 0.24297 0.0
H443 H 0.22995 0.01896 0.16867 0.0
H444 H 0.13909 0.02706 0.14078 0.0
H445 H 0.17724 0.0599 0.4041 0.0
H446 H 0.18921 0.06228 0.31033 0.0
H447 H 0.19089 0.03747 0.36029 0.0
C448 C 0.19898 0.05525 0.07834 0.0
C449 C 0.21727 0.04317 0.09503 0.0
C450 C 0.18001 0.05289 0.12099 0.0
C451 C 0.17898 0.03861 0.18226 0.0
C452 C 0.19705 0.02589 0.19688 0.0
H453 H 0.08869 1.01158 0.54829 0.0
H454 H 0.11885 0.01422 0.46044 0.0
C455 C 0.21598 0.02818 0.15385 0.0
C456 C 0.15943 0.03774 0.23272 0.0
H457 H 0.14215 0.04659 0.41726 0.0
C458 C 0.13974 0.03138 0.20122 0.0
C459 C 0.1601 0.04347 0.31168 0.0
C460 C 0.18041 0.05136 0.34875 0.0
C461 C 0.12101 0.02993 0.24665 0.0
C462 C 0.12169 0.03556 0.3259 0.0
C463 C 0.14139 0.04219 0.35691 0.0
C464 C 0.10258 0.03396 0.37865 0.0
C465 C 0.10087 0.02162 0.20953 0.0
C466 C 0.08299 0.04417 0.36328 0.0
C467 C 0.0655 0.04261 0.41425 0.0
C468 C 0.06729 0.03133 0.48301 0.0
C469 C 0.08684 0.02112 0.49784 0.0
C470 C 0.10416 0.02244 0.4468 0.0
H471 H 0.10438 0.01231 0.15603 0.0
H472 H 0.09175 1.01127 0.24899 0.0
H473 H 0.09062 0.03537 0.19425 0.0
H474 H 0.08124 0.05361 0.31237 0.0
H475 H 0.05071 0.05054 0.4004 0.0
H476 H 0.45417 0.2234 0.14955 0.0
H477 H 0.45638 0.18901 0.2146 0.0
H478 H 0.52478 0.1891 0.18485 0.0
H479 H 0.52246 0.22362 0.11937 0.0
H480 H 0.50533 0.14757 0.16307 0.0
H481 H 0.47934 0.18736 0.43519 0.0
H482 H 0.46143 0.19087 0.35639 0.0
H483 H 0.48778 0.20221 0.35275 0.0
C484 C 0.46961 0.21585 0.15591 0.0
C485 C 0.48814 0.22615 0.12981 0.0
C486 C 0.4709 0.19628 0.19338 0.0
C487 C 0.49079 0.18661 0.20608 0.0
C488 C 0.50925 0.19626 0.17606 0.0
H489 H 0.52297 0.09775 0.56093 0.0
H490 H 0.51866 0.12787 0.47603 0.0
C491 C 0.50794 0.2159 0.13835 0.0
C492 C 0.49236 0.16723 0.25465 0.0
H493 H 0.48299 0.14972 0.43627 0.0
C494 C 0.50042 0.14801 0.22277 0.0
C495 C 0.4862 0.16782 0.33292 0.0
C496 C 0.47838 0.18819 0.37177 0.0
C497 C 0.50232 0.12939 0.26679 0.0
C498 C 0.49576 0.1299 0.34471 0.0
C499 C 0.48782 0.14918 0.37648 0.0
C500 C 0.49809 0.1111 0.39583 0.0
C501 C 0.51185 0.1095 0.23001 0.0
C502 C 0.48779 0.09149 0.38 0.0
C503 C 0.49011 0.07413 0.42935 0.0
C504 C 0.50254 0.07607 0.49616 0.0
C505 C 0.51274 0.09575 0.51166 0.0
C506 C 0.51047 0.11301 0.46246 0.0
H507 H 0.52069 0.11313 0.17645 0.0
H508 H 0.5229 0.10149 0.26991 0.0
H509 H 0.49885 0.09811 0.21526 0.0
H510 H 0.4778 0.08964 0.32986 0.0
H511 H 0.48207 0.05924 0.41543 0.0
H512 H 0.31069 0.53157 0.1881 0.0
H513 H 0.34592 0.53643 0.24785 0.0
H514 H 0.35157 0.46801 0.26988 0.0
H515 H 0.31686 0.46326 0.20791 0.0
H516 H 0.35733 0.52639 0.39049 0.0
H517 H 0.41006 0.4813 0.18999 0.0
H518 H 0.38311 0.48861 0.16533 0.0
H519 H 0.38809 0.46533 0.22187 0.0
C520 C 0.31978 0.51761 0.20382 0.0
C521 C 0.3111 0.49703 0.193 0.0
C522 C 0.33984 0.52036 0.23856 0.0
C523 C 0.35172 0.50259 0.26276 0.0
C524 C 0.34315 0.48201 0.25033 0.0
H525 H 0.45916 0.47983 0.56369 0.0
H526 H 0.42544 0.479 0.49188 0.0
C527 C 0.32318 0.47928 0.21552 0.0
C528 C 0.37217 0.50554 0.30615 0.0
H529 H 0.42423 0.48878 0.31535 0.0
C530 C 0.37202 0.51844 0.37313 0.0
C531 C 0.39146 0.49506 0.28438 0.0
C532 C 0.39329 0.48198 0.21104 0.0
C533 C 0.39027 0.52065 0.4196 0.0
C534 C 0.40928 0.50967 0.39915 0.0
C535 C 0.40961 0.49706 0.33158 0.0
C536 C 0.4289 0.5109 0.44752 0.0
C537 C 0.38879 0.53372 0.49277 0.0
C538 C 0.44206 0.52914 0.44705 0.0
C539 C 0.46128 0.52962 0.48821 0.0
C540 C 0.46759 0.51201 0.5317 0.0
C541 C 0.45436 0.49385 0.53254 0.0
C542 C 0.43519 0.49332 0.49114 0.0
H543 H 0.37313 0.54192 0.49958 0.0
H544 H 0.39105 0.52291 0.54166 0.0
H545 H 0.40163 0.54594 0.49468 0.0
H546 H 0.43774 0.54277 0.41305 0.0
H547 H 0.47155 0.54351 0.48424 0.0
H548 H 1.00324 0.31088 0.19512 0.0
H549 H 0.99793 0.3458 0.26076 0.0
H550 H 0.06162 0.36451 0.19515 0.0
H551 H 0.06632 0.3303 0.12677 0.0
H552 H 0.01643 0.36238 0.3801 0.0
H553 H 0.03325 0.41891 0.1493 0.0
H554 H 0.02958 0.39069 0.13012 0.0
H555 H 0.05523 0.4009 0.16005 0.0
C556 C 0.01579 0.32276 0.19268 0.0
C557 C 0.03517 0.31777 0.15513 0.0
C558 C 0.01287 0.34273 0.23103 0.0
C559 C 0.02922 0.35834 0.23276 0.0
C560 C 0.04839 0.35338 0.19363 0.0
H561 H 0.06159 0.47463 0.49152 0.0
H562 H 0.05994 0.44197 0.41174 0.0
C563 C 0.05121 0.33358 0.15496 0.0
C564 C 0.02697 0.37895 0.27986 0.0
H565 H 0.03606 0.43325 0.27808 0.0
C566 C 0.02039 0.37788 0.357 0.0
C567 C 0.03213 0.39949 0.25109 0.0
C568 C 0.03771 0.40261 0.16789 0.0
C569 C 0.01963 0.39622 0.40596 0.0
C570 C 0.02548 0.41659 0.37804 0.0
C571 C 0.03167 0.41778 0.30053 0.0
C572 C 0.02615 0.43659 0.42875 0.0
C573 C 0.01355 0.39347 0.48857 0.0
C574 C 1.0077 0.445 0.46532 0.0
C575 C 1.0086 0.46396 0.51099 0.0
C576 C 0.02806 0.47487 0.52255 0.0
C577 C 0.04639 0.46652 0.48537 0.0
C578 C 0.04545 0.44778 0.43929 0.0
H579 H 0.01294 0.37637 0.50473 0.0
H580 H 0.02524 0.40189 0.52583 0.0
H581 H 0.99756 0.40061 0.49921 0.0
H582 H 0.99244 0.43717 0.45726 0.0
H583 H 0.99402 0.47024 0.53634 0.0
H584 H 0.79943 0.02672 0.10888 0.0
H585 H 0.83313 0.03284 0.03907 0.0
H586 H 0.85769 0.97302 0.12078 0.0
H587 H 0.82436 0.9674 0.19213 0.0
H588 H 0.88878 1.0023 0.12043 0.0
H589 H 0.8484 1.00342 0.83877 0.0
H590 H 0.83901 0.02373 0.90488 0.0
H591 H 0.83473 0.99594 0.92539 0.0
C592 C 0.81226 0.01518 0.11318 0.0
C593 C 0.80926 0.99656 0.1559 0.0
C594 C 0.83142 0.01848 0.07223 0.0
C595 C 0.84797 1.00312 0.0725 0.0
C596 C 0.84528 0.98508 0.11857 0.0
H597 H 0.94919 0.98533 0.72778 0.0
H598 H 0.91732 0.98299 0.80948 0.0
C599 C 0.8262 0.98184 0.15948 0.0
C600 C 0.86782 1.0054 0.02397 0.0
H601 H 0.88549 1.01068 0.83886 0.0
C602 C 0.888 1.0042 0.05888 0.0
C603 C 0.86708 1.00745 0.94313 0.0
C604 C 0.84617 1.0075 0.90056 0.0
C605 C 0.90718 1.00514 0.01597 0.0
C606 C 0.90643 1.0078 0.93542 0.0
C607 C 0.88627 1.00884 0.90044 0.0
C608 C 0.92627 1.00909 0.88626 0.0
C609 C 0.92809 1.00261 0.05738 0.0
C610 C 0.94209 0.02464 0.90085 0.0
C611 C 0.96042 0.02594 0.85415 0.0
C612 C 0.96344 1.01183 0.79106 0.0
C613 C 0.94751 0.99641 0.776 0.0
C614 C 0.9292 0.99508 0.8228 0.0
H615 H 0.92589 0.99457 0.11309 0.0
H616 H 0.93971 0.99319 0.02218 0.0
H617 H 0.93502 0.01867 0.06935 0.0
H618 H 0.94008 0.03614 0.94758 0.0
H619 H 0.97187 0.0385 0.86614 0.0
H620 H 0.51905 0.80957 0.09524 0.0
H621 H 0.51469 0.84211 0.01959 0.0
H622 H 0.56638 0.87205 0.14385 0.0
H623 H 0.57042 0.8396 0.22004 0.0
H624 H 0.53141 0.89994 0.1186 0.0
H625 H 0.55709 0.85843 0.84948 0.0
H626 H 0.53511 0.84596 0.89772 0.0
H627 H 0.56086 0.84701 0.94263 0.0
C628 C 0.52915 0.82329 0.1071 0.0
C629 C 0.54508 0.82215 0.16322 0.0
C630 C 0.52685 0.84177 0.06341 0.0
C631 C 0.54048 0.85945 0.0749 0.0
C632 C 0.55577 0.85862 0.13342 0.0
H633 H 0.55262 0.98479 0.85284 0.0
H634 H 0.5572 0.95443 0.93811 0.0
C635 C 0.55809 0.84012 0.17686 0.0
C636 C 0.53925 0.87851 0.0246 0.0
H637 H 0.54446 0.89393 0.83845 0.0
C638 C 0.53432 0.89866 0.05737 0.0
C639 C 0.54319 0.87692 0.9447 0.0
C640 C 0.54955 0.85598 0.90641 0.0
C641 C 0.53256 0.91707 0.01222 0.0
C642 C 0.53632 0.91543 0.93208 0.0
C643 C 0.54152 0.89529 0.89966 0.0
C644 C 0.53411 0.93409 0.88009 0.0
C645 C 0.52599 0.93792 0.05061 0.0
C646 C 0.5202 0.93274 0.81732 0.0
C647 C 0.51785 0.94996 0.76794 0.0
C648 C 0.5294 0.96907 0.7796 0.0
C649 C 0.54344 0.97041 0.84219 0.0
C650 C 0.54593 0.95306 0.89144 0.0
H651 H 0.51818 0.93532 0.10698 0.0
H652 H 0.54039 0.94791 0.06071 0.0
H653 H 0.51485 0.94698 0.01406 0.0
H654 H 0.51084 0.9184 0.80705 0.0
H655 H 0.50648 0.94844 0.72171 0.0
H656 H 0.7176 0.5656 0.08004 0.0
H657 H 0.68301 0.56144 0.01713 0.0
H658 H 0.68779 0.49287 0.0366 0.0
H659 H 0.72311 0.49712 0.09623 0.0
H660 H 0.67532 0.50229 0.89745 0.0
H661 H 0.62497 0.54973 0.09806 0.0
H662 H 0.64686 0.56541 0.06399 0.0
H663 H 0.65196 0.54222 0.12101 0.0
C664 C 0.71116 0.54965 0.07143 0.0
C665 C 0.72306 0.5317 0.09314 0.0
C666 C 0.69123 0.54727 0.03614 0.0
C667 C 0.68238 0.52683 0.02294 0.0
C668 C 0.69407 0.50884 0.04634 0.0
H669 H 0.56544 0.48541 0.78054 0.0
H670 H 0.59986 0.48595 0.84713 0.0
C671 C 0.71417 0.51125 0.08117 0.0
C672 C 0.66168 0.52433 0.98059 0.0
H673 H 0.61026 0.54284 0.9735 0.0
C674 C 0.66105 0.51102 0.91463 0.0
C675 C 0.64286 0.53555 1.00268 0.0
C676 C 0.64161 0.54883 0.07577 0.0
C677 C 0.64258 0.50925 0.86896 0.0
C678 C 0.624 0.52109 0.88957 0.0
C679 C 0.6245 0.53403 0.95645 0.0
C680 C 0.60383 0.52036 0.84337 0.0
C681 C 0.64347 0.49503 0.79816 0.0
C682 C 0.59421 0.53947 0.81936 0.0
C683 C 0.57446 0.53913 0.78157 0.0
C684 C 0.56401 0.51966 0.76586 0.0
C685 C 0.57357 0.50056 0.78947 0.0
C686 C 0.59328 0.50088 0.82753 0.0
H687 H 0.63744 0.47889 0.81254 0.0
H688 H 0.63345 0.50139 0.75183 0.0
H689 H 0.66007 0.49316 0.77631 0.0
H690 H 0.60178 0.55475 0.8313 0.0
H691 H 0.56705 0.55414 0.76665 0.0
H692 H 0.96828 0.71522 0.1731 0.0
H693 H 0.97143 0.68024 0.10765 0.0
H694 H 0.03794 0.6927 0.06204 0.0
H695 H 0.03463 0.72785 0.12823 0.0
H696 H 0.98132 0.67473 0.95545 0.0
H697 H 0.04012 0.62996 0.12651 0.0
H698 H 0.02658 0.65356 0.16345 0.0
H699 H 0.04859 0.65611 0.09785 0.0
C700 C 0.98374 0.71016 0.15136 0.0
C701 C 1.00127 0.7242 0.15712 0.0
C702 C 0.98553 0.69019 0.11318 0.0
C703 C 1.00496 0.68346 0.07966 0.0
C704 C 0.02282 0.69709 0.08827 0.0
H705 H 0.03659 0.56713 0.79895 0.0
H706 H 0.03812 0.60119 0.87221 0.0
C707 C 0.02099 0.71721 0.12654 0.0
C708 C 1.00572 0.66323 0.03034 0.0
H709 H 0.02917 0.61373 0.00951 0.0
C710 C 0.99181 0.66141 0.96758 0.0
C711 C 0.01947 0.64573 0.04478 0.0
C712 C 0.03445 0.64624 0.11211 0.0
C713 C 0.99128 0.64298 0.91922 0.0
C714 C 1.00467 0.62514 0.93434 0.0
C715 C 0.01883 0.6271 0.99681 0.0
C716 C 1.00388 0.60433 0.88751 0.0
C717 C 0.97659 0.64335 0.85116 0.0
C718 C 0.98429 0.59413 0.8713 0.0
C719 C 0.98342 0.57493 0.82776 0.0
C720 C 1.0021 0.56499 0.79933 0.0
C721 C 0.02181 0.57464 0.81768 0.0
C722 C 0.02268 0.59409 0.86052 0.0
H723 H 0.97433 0.65991 0.83056 0.0
H724 H 0.98285 0.63337 0.80316 0.0
H725 H 0.96067 0.63719 0.86815 0.0
H726 H 0.9695 0.60079 0.89345 0.0
H727 H 0.96799 0.56769 0.81688 0.0
H728 H 0.04817 0.24318 0.2414 0.0
H729 H 0.06376 0.20913 0.27926 0.0
H730 H 0.10294 0.20802 0.07497 0.0
H731 H 0.08779 0.24292 0.03901 0.0
H732 H 0.07553 0.17142 0.097 0.0
H733 H 0.12283 0.18793 0.3557 0.0
H734 H 0.09926 0.20426 0.35628 0.0
H735 H 0.119 0.20751 0.28183 0.0
C736 C 0.06054 0.23588 0.20599 0.0
C737 C 0.0668 0.24535 0.13754 0.0
C738 C 0.06956 0.21659 0.22762 0.0
C739 C 0.08484 0.20629 0.18063 0.0
C740 C 0.09146 0.21593 0.11255 0.0
H741 H 0.04195 0.08303 0.31271 0.0
H742 H 0.07372 0.10061 0.2602 0.0
C743 C 0.08268 0.23561 0.0917 0.0
C744 C 0.09068 0.18404 0.19851 0.0
H745 H 0.09838 0.15653 0.36203 0.0
C746 C 0.08148 0.16772 0.15349 0.0
C747 C 0.09916 0.17911 0.27077 0.0
C748 C 0.11086 0.19565 0.31848 0.0
C749 C 0.07659 0.14784 0.18525 0.0
C750 C 0.08108 0.14458 0.26371 0.0
C751 C 0.09433 0.15927 0.30267 0.0
C752 C 0.06628 0.1317 0.31073 0.0
C753 C 0.064 0.13185 0.13792 0.0
C754 C 0.05258 0.14284 0.36159 0.0
C755 C 0.03481 0.13281 0.39258 0.0
C756 C 0.03021 0.11145 0.3729 0.0
C757 C 0.04503 0.09961 0.32822 0.0
C758 C 0.06307 0.10968 0.29759 0.0
H759 H 0.06265 0.13663 0.07716 0.0
H760 H 0.0719 0.11596 0.13886 0.0
H761 H 0.04767 0.13017 0.16219 0.0
H762 H 0.0547 0.15982 0.3731 0.0
H763 H 0.02398 0.14215 0.42853 0.0
H764 H 0.29605 0.08962 0.96748 0.0
H765 H 0.33203 0.10145 1.00639 0.0
H766 H 0.32163 0.07453 0.22932 0.0
H767 H 0.28623 0.06248 0.18988 0.0
H768 H 0.34634 0.11516 0.22773 0.0
H769 H 0.37609 0.05199 0.02278 0.0
H770 H 0.3592 0.07337 0.9912 0.0
H771 H 0.34821 0.05265 0.04914 0.0
C772 C 0.30147 0.08668 0.02508 0.0
C773 C 0.28865 0.07509 0.07582 0.0
C774 C 0.32186 0.0935 0.04734 0.0
C775 C 0.32946 0.0888 0.12064 0.0
C776 C 0.31597 0.07855 0.17281 0.0
H777 H 0.3949 0.04262 0.44419 0.0
H778 H 0.37771 0.06932 0.36679 0.0
C779 C 0.29579 0.07166 0.15044 0.0
C780 C 0.35224 0.09085 0.14086 0.0
H781 H 0.39574 0.05831 0.13403 0.0
C782 C 0.35762 0.10336 0.20558 0.0
C783 C 0.3672 0.07593 0.11062 0.0
C784 C 0.36257 0.06266 0.03951 0.0
C785 C 0.37623 0.09914 0.24701 0.0
C786 C 0.38921 0.08157 0.22421 0.0
C787 C 0.38557 0.07148 0.15281 0.0
C788 C 0.40258 0.06997 0.27976 0.0
C789 C 0.38091 0.1125 0.3178 0.0
C790 C 0.42243 0.06134 0.2575 0.0
C791 C 0.4319 0.04528 0.30044 0.0
C792 C 0.42174 0.03768 0.36676 0.0
C793 C 0.40287 0.04769 0.39239 0.0
C794 C 0.39327 0.06346 0.34896 0.0
H795 H 0.37747 0.12963 0.30723 0.0
H796 H 0.37025 0.10748 0.3652 0.0
H797 H 0.39779 0.11091 0.33603 0.0
H798 H 0.42987 0.06596 0.20415 0.0
H799 H 0.44644 0.03793 0.27878 0.0
H800 H 0.51138 0.31149 0.13621 0.0
H801 H 0.50654 0.3499 0.16215 0.0
H802 H 0.43816 0.34171 0.15479 0.0
H803 H 0.4432 0.30296 0.12895 0.0
H804 H 0.48098 0.377 0.05406 0.0
H805 H 0.45331 0.37834 0.35843 0.0
H806 H 0.46894 0.35624 0.32024 0.0
H807 H 0.44188 0.35965 0.28997 0.0
C808 C 0.49538 0.31794 0.14188 0.0
C809 C 0.47764 0.30461 0.13139 0.0
C810 C 0.4926 0.33975 0.15607 0.0
C811 C 0.47201 0.34852 0.16001 0.0
C812 C 0.45415 0.33511 0.15225 0.0
H813 H 0.48136 0.48974 0.1582 0.0
H814 H 0.46451 0.45488 0.13188 0.0
C815 C 0.45698 0.31314 0.13809 0.0
C816 C 0.46981 0.37192 0.16899 0.0
H817 H 0.46414 0.41102 0.30639 0.0
C818 C 0.47685 0.38463 0.10855 0.0
C819 C 0.46425 0.38156 0.24005 0.0
C820 C 0.45666 0.36837 0.30629 0.0
C821 C 0.48021 0.40666 0.11925 0.0
C822 C 0.47602 0.41615 0.19216 0.0
C823 C 0.46733 0.40366 0.25068 0.0
C824 C 0.48397 0.43779 0.21264 0.0
C825 C 0.48983 0.41918 0.05444 0.0
C826 C 0.49985 0.43983 0.26869 0.0
C827 C 0.50927 0.4596 0.28422 0.0
C828 C 0.50303 0.47776 0.24385 0.0
C829 C 0.48663 0.4759 0.18938 0.0
C830 C 0.47703 0.45605 0.17429 0.0
H831 H 0.49471 0.40868 1.00528 0.0
H832 H 0.47792 0.4308 0.03345 0.0
H833 H 0.50401 0.42831 0.07456 0.0
H834 H 0.50551 0.42592 0.29869 0.0
H835 H 0.52203 0.4605 0.32583 0.0
H836 H 0.23503 0.44669 0.14082 0.0
H837 H 0.19662 0.44004 0.1623 0.0
H838 H 0.18989 0.50397 0.25803 0.0
H839 H 0.22808 0.51028 0.23704 0.0
H840 H 0.16628 0.47265 0.33684 0.0
H841 H 0.15342 0.46968 0.02102 0.0
H842 H 0.17114 0.45011 0.06047 0.0
H843 H 0.17847 0.47784 0.0628 0.0
C844 C 0.22528 0.45892 0.16854 0.0
C845 C 0.23416 0.47886 0.18832 0.0
C846 C 0.20346 0.45525 0.1801 0.0
C847 C 0.19043 0.47159 0.21116 0.0
C848 C 0.19969 0.49111 0.23442 0.0
H849 H 0.07776 0.53305 0.16957 0.0
H850 H 0.11074 0.51288 0.15196 0.0
C851 C 0.22139 0.49472 0.22283 0.0
C852 C 0.16692 0.46957 0.21399 0.0
H853 H 0.12316 0.47324 0.09936 0.0
C854 C 0.1567 0.4722 0.28523 0.0
C855 C 0.15461 0.46903 0.14624 0.0
C856 C 0.16485 0.46662 0.06805 0.0
C857 C 0.13468 0.47611 0.29038 0.0
C858 C 0.12255 0.47691 0.22221 0.0
C859 C 0.13251 0.4725 0.15139 0.0
C860 C 0.10089 0.48642 0.22211 0.0
C861 C 0.12503 0.48124 0.36812 0.0
C862 C 0.08405 0.47784 0.26518 0.0
C863 C 0.06524 0.4896 0.27653 0.0
C864 C 0.06293 0.50983 0.24357 0.0
C865 C 0.07904 0.51743 0.19508 0.0
C866 C 0.0979 0.50589 0.18488 0.0
H867 H 0.13733 0.48291 0.41347 0.0
H868 H 0.11572 0.49636 0.36662 0.0
H869 H 0.11401 0.46819 0.3845 0.0
H870 H 0.08585 0.46262 0.29304 0.0
H871 H 0.05289 0.48334 0.31353 0.0
H872 H 1.00519 0.81601 0.14589 0.0
H873 H 0.99146 0.84619 0.07523 0.0
H874 H 0.92964 0.81592 0.0617 0.0
H875 H 0.94324 0.786 0.13754 0.0
H876 H 0.95126 0.82464 0.9171 0.0
H877 H 0.94846 0.89668 0.10468 0.0
H878 H 0.9711 0.88027 0.12613 0.0
H879 H 0.94456 0.86991 0.14029 0.0
C880 C 0.98842 0.81629 0.13127 0.0
C881 C 0.97521 0.79885 0.14734 0.0
C882 C 0.98056 0.83349 0.09074 0.0
C883 C 0.95944 0.83338 0.0642 0.0
C884 C 0.94587 0.81639 0.08275 0.0
H885 H 0.98557 0.93904 0.7714 0.0
H886 H 0.95731 0.91646 0.82429 0.0
C887 C 0.95366 0.79934 0.12529 0.0
C888 C 0.9536 0.84904 1.00584 0.0
H889 H 0.96363 0.90163 0.97508 0.0
C890 C 0.95288 0.84165 0.92941 0.0
C891 C 0.9552 0.87121 0.02183 0.0
C892 C 0.95464 0.88 0.10287 0.0
C893 C 0.95754 0.85547 0.86933 0.0
C894 C 0.96297 0.87693 0.88691 0.0
C895 C 0.95984 0.88502 0.96176 0.0
C896 C 0.9777 0.88885 0.83726 0.0
C897 C 0.9591 0.8465 0.78869 0.0
C898 C 0.99837 0.88063 0.82591 0.0
C899 C 0.01463 0.8936 0.7985 0.0
C900 C 1.01051 0.91505 0.78115 0.0
C901 C 0.98937 0.92273 0.78631 0.0
C902 C 0.97312 0.9098 0.81532 0.0
H903 H 0.94721 0.83352 0.77933 0.0
H904 H 0.95655 0.85914 0.74581 0.0
H905 H 0.97522 0.8395 0.77932 0.0
H906 H 1.00236 0.86464 0.8442 0.0
H907 H 0.03069 0.88719 0.79584 0.0
H908 H 0.73314 0.94299 0.25991 0.0
H909 H 0.69811 0.93009 0.2138 0.0
H910 H 0.70414 0.97044 0.01696 0.0
H911 H 0.73825 0.98386 0.06492 0.0
H912 H 0.66399 0.95975 0.1912 0.0
H913 H 0.67962 0.91419 0.92448 0.0
H914 H 0.69875 0.91596 1.00184 0.0
H915 H 0.69746 0.9366 0.93122 0.0
C916 C 0.72687 0.94886 0.20667 0.0
C917 C 0.73796 0.96455 0.16603 0.0
C918 C 0.70713 0.94132 0.17996 0.0
C919 C 0.6988 0.94895 0.11115 0.0
C920 C 0.71054 0.96386 0.06904 0.0
H921 H 0.63856 0.01595 0.85977 0.0
H922 H 0.65532 0.98505 0.91627 0.0
C923 C 0.72988 0.97165 0.09647 0.0
C924 C 0.67649 0.94486 0.08822 0.0
H925 H 0.65038 0.94135 0.91829 0.0
C926 C 0.66048 0.95478 0.13268 0.0
C927 C 0.67176 0.9377 0.01303 0.0
C928 C 0.68781 0.92528 0.96531 0.0
C929 C 0.64144 0.96161 0.09884 0.0
C930 C 0.6387 0.95828 0.01891 0.0
C931 C 0.6528 0.94451 0.97898 0.0
C932 C 0.62667 0.97401 0.97359 0.0
C933 C 0.62598 0.97484 0.14657 0.0
C934 C 0.60475 0.97773 0.98438 0.0
C935 C 0.59525 0.99595 0.9539 0.0
C936 C 0.60747 1.01048 0.91105 0.0
C937 C 0.62888 1.00552 0.89456 0.0
C938 C 0.63839 0.9876 0.92589 0.0
H939 H 0.63043 0.97543 0.20812 0.0
H940 H 0.62541 0.99145 0.12522 0.0
H941 H 0.60973 0.9679 0.14226 0.0
H942 H 0.59525 0.96717 0.01922 0.0
H943 H 0.57865 0.99919 0.96738 0.0
H944 H 0.58484 0.74871 0.33434 0.0
H945 H 0.59618 0.71114 0.32148 0.0
H946 H 0.5825 0.71254 0.07942 0.0
H947 H 0.57201 0.74994 0.09251 0.0
H948 H 0.56716 0.68355 0.28839 0.0
H949 H 0.62979 0.67058 0.07258 0.0
H950 H 0.62576 0.69646 0.11863 0.0
H951 H 0.61109 0.68896 0.03333 0.0
C952 C 0.58547 0.74115 0.27798 0.0
C953 C 0.57777 0.75201 0.21419 0.0
C954 C 0.5918 0.71974 0.27064 0.0
C955 C 0.59034 0.70894 0.19943 0.0
C956 C 0.58447 0.72052 0.13456 0.0
H957 H 0.52772 0.61898 0.97764 0.0
H958 H 0.55138 0.6461 0.03186 0.0
C959 C 0.57838 0.74192 0.14188 0.0
C960 C 0.58977 0.68521 0.19494 0.0
H961 H 0.59902 0.64468 0.06528 0.0
C962 C 0.57485 0.67477 0.24167 0.0
C963 C 0.59998 0.67353 0.13489 0.0
C964 C 0.61772 0.68302 0.08779 0.0
C965 C 0.56775 0.65403 0.22326 0.0
C966 C 0.57581 0.64361 0.15665 0.0
C967 C 0.5926 0.65293 0.11563 0.0
C968 C 0.56387 0.62583 0.1201 0.0
C969 C 0.55002 0.64436 0.27013 0.0
C970 C 0.56327 0.60537 0.15148 0.0
C971 C 0.54976 0.58967 0.12019 0.0
C972 C 0.53668 0.59426 0.05714 0.0
C973 C 0.5378 0.6147 0.02517 0.0
C974 C 0.5513 0.63027 0.05617 0.0
H975 H 0.5458 0.6545 0.32076 0.0
H976 H 0.53556 0.64217 0.23427 0.0
H977 H 0.55494 0.62839 0.29042 0.0
H978 H 0.5729 0.60169 0.20087 0.0
H979 H 0.54948 0.57403 0.14561 0.0
H980 H 0.7935 0.5849 0.1306 0.0
H981 H 0.83063 0.59636 0.10572 0.0
H982 H 0.84771 0.53079 0.05139 0.0
H983 H 0.81083 0.51973 0.07506 0.0
H984 H 0.86639 0.58311 0.18288 0.0
H985 H 0.87541 0.56243 0.87639 0.0
H986 H 0.84954 0.56564 0.92164 0.0
H987 H 0.86351 0.54043 0.92516 0.0
C988 C 0.80525 0.57322 0.1115 0.0
C989 C 0.79966 0.55156 0.1038 0.0
C990 C 0.82632 0.57967 0.09766 0.0
C991 C 0.8418 0.56448 0.07519 0.0
C992 C 0.83592 0.54288 0.06647 0.0
H993 H 0.95673 0.51983 0.16101 0.0
H994 H 0.92361 0.54009 0.17059 0.0
C995 C 0.815 0.53651 0.08036 0.0
C996 C 0.86459 0.57032 0.06735 0.0
H997 H 0.90758 0.55792 0.95481 0.0
C998 C 0.87541 0.57826 0.13221 0.0
C999 C 0.87632 0.56474 1.00048 0.0
C1000 C 0.86551 0.55808 0.92676 0.0
C1001 C 0.89782 0.57825 0.13463 0.0
C1002 C 0.90941 0.56954 0.07181 0.0
C1003 C 0.89865 0.56416 1.00382 0.0
C1004 C 0.93162 0.56188 0.07975 0.0
C1005 C 0.90905 0.5868 0.20492 0.0
C1006 C 0.9474 0.56769 0.02678 0.0
C1007 C 0.96643 0.55606 0.02136 0.0
C1008 C 0.96979 0.53823 0.06772 0.0
C1009 C 0.95473 0.53357 0.12488 0.0
C1010 C 0.93578 0.54525 0.13062 0.0
H1011 H 0.89825 0.59667 0.242 0.0
H1012 H 0.91506 0.57331 0.23874 0.0
H1013 H 0.92306 0.59658 0.18809 0.0
H1014 H 0.94444 0.58035 0.98667 0.0
H1015 H 0.97804 0.56017 0.97804 0.0
H1016 H 1.00451 0.2376 0.08521 0.0
H1017 H 0.99772 0.20321 0.01809 0.0
H1018 H 0.05425 0.21232 0.8804 0.0
H1019 H 0.06007 0.24715 0.94439 0.0
H1020 H 0.02557 0.1948 0.79345 0.0
H1021 H 0.0244 0.14742 0.05859 0.0
H1022 H 1.00515 0.16854 0.05852 0.0
H1023 H 0.03321 0.17493 0.05829 0.0
C1024 C 0.01518 0.23239 0.0395 0.0
C1025 C 0.03286 0.24511 0.02024 0.0
C1026 C 0.0116 0.21242 1.00202 0.0
C1027 C 0.02587 0.20438 0.94526 0.0
C1028 C 0.04302 0.21767 0.92414 0.0
H1029 H 0.04022 0.08469 0.66318 0.0
H1030 H 0.04585 0.11972 0.72742 0.0
C1031 C 0.0464 0.23767 0.96084 0.0
C1032 C 0.02309 0.18241 0.90736 0.0
H1033 H 0.01625 0.12893 0.94349 0.0
C1034 C 0.02367 0.18045 0.82669 0.0
C1035 C 0.02059 0.1633 0.94953 0.0
C1036 C 0.02102 0.16354 0.03596 0.0
C1037 C 0.02147 0.16043 0.78773 0.0
C1038 C 0.01891 0.14138 0.8299 0.0
C1039 C 0.01827 0.1433 0.91048 0.0
C1040 C 0.01616 0.11951 0.79177 0.0
C1041 C 0.02128 0.16001 0.70129 0.0
C1042 C 0.99796 0.10705 0.8073 0.0
C1043 C 0.99483 0.08698 0.77082 0.0
C1044 C 1.01005 0.07833 0.71913 0.0
C1045 C 0.02838 0.09061 0.70382 0.0
C1046 C 0.03144 0.11086 0.73989 0.0
H1047 H 0.01767 0.17602 0.67801 0.0
H1048 H 0.03726 0.15506 0.6796 0.0
H1049 H 1.00933 0.14839 0.67883 0.0
H1050 H 0.98585 0.11307 0.84669 0.0
H1051 H 0.98035 0.07816 0.78295 0.0
H1052 H 0.28137 0.06031 0.86262 0.0
H1053 H 0.31591 0.05408 0.79774 0.0
H1054 H 0.33526 0.01347 0.98168 0.0
H1055 H 0.30075 0.02006 0.0466 0.0
H1056 H 0.35613 0.06466 0.85556 0.0
H1057 H 0.35234 0.97773 0.78988 0.0
H1058 H 0.32893 0.99352 0.81307 0.0
H1059 H 0.3463 0.98481 0.8879 0.0
C1060 C 0.29281 0.04956 0.88779 0.0
C1061 C 0.2882 0.04025 0.95863 0.0
C1062 C 0.31265 0.04615 0.85116 0.0
C1063 C 0.32833 0.03307 0.88393 0.0
C1064 C 0.32342 0.02324 0.95392 0.0
H1065 H 0.45663 0.98882 0.76599 0.0
H1066 H 0.42109 0.99571 0.81807 0.0
C1067 C 0.30366 0.02691 0.99102 0.0
C1068 C 0.35017 0.03087 0.84767 0.0
H1069 H 0.38582 0.99437 0.77359 0.0
C1070 C 0.36275 0.04925 0.83828 0.0
C1071 C 0.35879 1.01091 0.82337 0.0
C1072 C 0.34587 0.9906 0.82824 0.0
C1073 C 0.38396 0.0482 0.80992 0.0
C1074 C 0.39292 0.0281 0.7862 0.0
C1075 C 0.37975 1.00982 0.79279 0.0
C1076 C 0.4158 0.02518 0.75704 0.0
C1077 C 0.39639 0.06883 0.80885 0.0
C1078 C 0.42572 0.03935 0.7054 0.0
C1079 C 0.44698 0.0361 0.67983 0.0
C1080 C 0.45859 0.01798 0.70184 0.0
C1081 C 0.44839 1.00328 0.74971 0.0
C1082 C 0.42774 1.00713 0.77869 0.0
H1083 H 0.39076 0.08023 0.85434 0.0
H1084 H 0.41359 0.06607 0.81724 0.0
H1085 H 0.39402 0.07658 0.75287 0.0
H1086 H 0.417 0.05278 0.68319 0.0
H1087 H 0.45399 0.04728 0.64029 0.0
H1088 H 0.52874 0.29096 0.98372 0.0
H1089 H 0.53553 0.32357 0.91001 0.0
H1090 H 0.46765 0.33404 0.89264 0.0
H1091 H 0.46109 0.30132 0.9642 0.0
H1092 H 0.48752 0.34446 0.76089 0.0
H1093 H 0.52929 0.38267 1.00747 0.0
H1094 H 0.54191 0.35856 0.97231 0.0
H1095 H 0.51571 0.35734 0.01452 0.0
C1096 C 0.51537 0.29987 0.96151 0.0
C1097 C 0.4944 0.29354 0.97865 0.0
C1098 C 0.5192 0.31872 0.92075 0.0
C1099 C 0.50211 0.33166 0.897 0.0
C1100 C 0.48116 0.32452 0.91028 0.0
H1101 H 0.47906 0.46062 0.74777 0.0
H1102 H 0.4777 0.42411 0.7959 0.0
C1103 C 0.47738 0.30573 0.95065 0.0
C1104 C 0.50571 0.35301 0.86127 0.0
H1105 H 0.52729 0.40279 0.89402 0.0
C1106 C 0.49633 0.35713 0.78997 0.0
C1107 C 0.51699 0.3698 0.8993 0.0
C1108 C 0.52639 0.36702 0.97793 0.0
C1109 C 0.49792 0.37736 0.756 0.0
C1110 C 0.50918 0.39404 0.79396 0.0
C1111 C 0.51883 0.38993 0.8646 0.0
C1112 C 0.51011 0.41613 0.76291 0.0
C1113 C 0.48741 0.38094 0.6798 0.0
C1114 C 0.52879 0.42387 0.72812 0.0
C1115 C 0.52962 0.44482 0.70019 0.0
C1116 C 0.51184 0.45856 0.70739 0.0
C1117 C 0.49313 0.45063 0.74184 0.0
C1118 C 0.49228 0.42969 0.76916 0.0
H1119 H 0.48176 0.36575 0.65268 0.0
H1120 H 0.4735 0.39178 0.68819 0.0
H1121 H 0.49873 0.38884 0.64011 0.0
H1122 H 0.54277 0.41371 0.72277 0.0
H1123 H 0.54435 0.4504 0.67467 0.0
H1124 H 0.24036 0.46781 1.00197 0.0
H1125 H 0.2073 0.47341 0.9303 0.0
H1126 H 0.20632 0.53949 1.00671 0.0
H1127 H 0.2394 0.53358 0.07932 0.0
H1128 H 0.168 0.51998 0.03062 0.0
H1129 H 0.19375 0.50262 0.73201 0.0
H1130 H 0.20039 0.48154 0.796 0.0
H1131 H 0.21255 0.50748 0.80846 0.0
C1132 C 0.23344 0.4837 1.00093 0.0
C1133 C 0.24269 0.50041 0.0443 0.0
C1134 C 0.21452 0.48692 0.9601 0.0
C1135 C 0.20432 0.50699 0.96173 0.0
C1136 C 0.21389 0.5239 1.00372 0.0
H1137 H 0.09424 0.53739 0.67552 0.0
H1138 H 0.12926 0.53545 0.73504 0.0
C1139 C 0.23293 0.52065 0.04438 0.0
C1140 C 0.18294 0.50977 0.92469 0.0
H1141 H 0.15613 0.50305 0.75535 0.0
C1142 C 0.16548 0.51648 0.97022 0.0
C1143 C 0.17947 0.50528 0.84579 0.0
C1144 C 0.19757 0.49903 0.79251 0.0
C1145 C 0.14475 0.51835 0.93974 0.0
C1146 C 0.14113 0.51314 0.86136 0.0
C1147 C 0.15869 0.50688 0.81549 0.0
C1148 C 0.11939 0.51439 0.82552 0.0
C1149 C 0.12699 0.5262 0.99185 0.0
C1150 C 0.10194 0.50299 0.85517 0.0
C1151 C 0.08164 0.50437 0.82161 0.0
C1152 C 0.0782 0.51698 0.75661 0.0
C1153 C 0.09587 0.5279 0.72599 0.0
C1154 C 0.11612 0.52666 0.75993 0.0
H1155 H 0.13327 0.53495 0.04301 0.0
H1156 H 0.11593 0.53692 0.96119 0.0
H1157 H 0.11777 0.51225 0.01221 0.0
H1158 H 0.104 0.49282 0.90407 0.0
H1159 H 0.06867 0.49542 0.8468 0.0
H1160 H 0.96815 0.80197 0.31781 0.0
H1161 H 0.97306 0.83647 0.38558 0.0
H1162 H 0.04061 0.83333 0.33863 0.0
H1163 H 0.03559 0.79868 0.27073 0.0
H1164 H 0.9984 0.85015 0.51314 0.0
H1165 H 0.0228 0.89153 0.24854 0.0
H1166 H 1.01008 0.86559 0.24659 0.0
H1167 H 0.03795 0.8679 0.26918 0.0
C1168 C 0.98412 0.80842 0.32349 0.0
C1169 C 1.00149 0.79737 0.28949 0.0
C1170 C 0.98692 0.82827 0.36194 0.0
C1171 C 1.00717 0.83796 0.36673 0.0
C1172 C 0.02473 0.82655 0.3352 0.0
H1173 H 0.0554 0.96289 0.52502 0.0
H1174 H 0.0497 0.92688 0.47119 0.0
C1175 C 0.02194 0.80651 0.29732 0.0
C1176 C 1.00969 0.86008 0.4029 0.0
H1177 H 0.02469 0.91165 0.36438 0.0
C1178 C 1.00414 0.86358 0.48046 0.0
C1179 C 0.01699 0.87789 0.36085 0.0
C1180 C 0.02213 0.87572 0.27651 0.0
C1181 C 1.00633 0.88392 0.51731 0.0
C1182 C 0.01383 0.90176 0.47547 0.0
C1183 C 0.01907 0.89825 0.39747 0.0
C1184 C 0.01709 0.92393 0.51127 0.0
C1185 C 1.00134 0.88577 0.60173 0.0
C1186 C 1.00082 0.93484 0.5529 0.0
C1187 C 1.00417 0.95564 0.58431 0.0
C1188 C 0.0237 0.96639 0.57353 0.0
C1189 C 0.04001 0.95535 0.53323 0.0
C1190 C 0.03672 0.93464 0.50218 0.0
H1191 H 1.00216 0.87 0.62991 0.0
H1192 H 0.01263 0.89686 0.63075 0.0
H1193 H 0.98491 0.89211 0.60985 0.0
H1194 H 0.98533 0.92748 0.5602 0.0
H1195 H 0.99142 0.96334 0.61671 0.0
H1196 H 0.73788 0.96968 0.35775 0.0
H1197 H 0.70319 0.97648 0.41931 0.0
H1198 H 0.69792 0.0356 0.29731 0.0
H1199 H 0.73201 0.02777 0.23155 0.0
H1200 H 0.68706 1.00471 0.51209 0.0
H1201 H 0.64133 0.01263 0.24292 0.0
H1202 H 0.66823 1.00221 0.24359 0.0
H1203 H 0.66341 0.03063 0.25041 0.0
C1204 C 0.72918 0.98404 0.34379 0.0
C1205 C 0.73751 0.99798 0.28891 0.0
C1206 C 0.70933 0.98802 0.3793 0.0
C1207 C 0.69722 1.00626 0.36172 0.0
C1208 C 0.70623 0.02093 0.31007 0.0
H1209 H 0.57558 0.05877 0.52613 0.0
H1210 H 0.61068 0.05168 0.46843 0.0
C1211 C 0.726 0.01672 0.2735 0.0
C1212 C 0.67541 1.00973 0.39793 0.0
H1213 H 0.62288 0.02041 0.35814 0.0
C1214 C 0.67306 1.008 0.47801 0.0
C1215 C 0.65681 0.01397 0.3544 0.0
C1216 C 0.65746 0.01475 0.26806 0.0
C1217 C 0.65308 1.01079 0.51527 0.0
C1218 C 0.63462 0.01528 0.47178 0.0
C1219 C 0.6369 0.01696 0.39187 0.0
C1220 C 0.61302 0.0192 0.5081 0.0
C1221 C 0.652 1.00946 0.60141 0.0
C1222 C 0.6023 1.00336 0.55014 0.0
C1223 C 0.58195 1.00736 0.58279 0.0
C1224 C 0.57175 0.02722 0.57335 0.0
C1225 C 0.58276 0.04315 0.53308 0.0
C1226 C 0.60289 0.0391 0.5 0.0
H1227 H 0.66808 1.01058 0.62783 0.0
H1228 H 0.64177 0.02241 0.62612 0.0
H1229 H 0.64487 0.99389 0.61716 0.0
H1230 H 0.60953 0.98777 0.55696 0.0
H1231 H 0.57419 0.99495 0.61525 0.0
H1232 H 0.53909 0.76587 0.40999 0.0
H1233 H 0.53114 0.73208 0.47455 0.0
H1234 H 0.52605 0.69983 0.25453 0.0
H1235 H 0.53313 0.7338 0.19073 0.0
H1236 H 0.49682 0.68441 0.35222 0.0
H1237 H 0.57576 0.68609 0.4934 0.0
H1238 H 0.55939 0.70863 0.5204 0.0
H1239 H 0.56824 0.70527 0.42267 0.0
C1240 C 0.53557 0.75166 0.37583 0.0
C1241 C 0.53655 0.75241 0.29558 0.0
C1242 C 0.5314 0.73227 0.41255 0.0
C1243 C 0.52848 0.71315 0.36965 0.0
C1244 C 0.52829 0.71422 0.28922 0.0
H1245 H 0.55102 0.58324 0.52074 0.0
H1246 H 0.55226 0.61876 0.46453 0.0
C1247 C 0.53225 0.73363 0.25268 0.0
C1248 C 0.52654 0.69194 0.40793 0.0
H1249 H 0.55233 0.6581 0.52871 0.0
C1250 C 0.50892 0.67872 0.39109 0.0
C1251 C 0.54253 0.68414 0.45743 0.0
C1252 C 0.56266 0.69665 0.474 0.0
C1253 C 0.50681 0.65817 0.42242 0.0
C1254 C 0.52249 0.65066 0.47376 0.0
C1255 C 0.54013 0.66385 0.49031 0.0
C1256 C 0.52141 0.6289 0.50846 0.0
C1257 C 0.48821 0.64437 0.39779 0.0
C1258 C 0.50376 0.6226 0.55289 0.0
C1259 C 0.50294 0.60214 0.58496 0.0
C1260 C 0.51989 0.58754 0.57421 0.0
C1261 C 0.53768 0.59402 0.53068 0.0
C1262 C 0.53842 0.61439 0.49834 0.0
H1263 H 0.48116 0.64989 0.34335 0.0
H1264 H 0.49314 0.62738 0.38998 0.0
H1265 H 0.47559 0.64521 0.44262 0.0
H1266 H 0.49062 0.63357 0.56331 0.0
H1267 H 0.48903 0.59781 0.61835 0.0
H1268 H 0.79749 0.49571 0.20308 0.0
H1269 H 0.83031 0.49143 0.27792 0.0
H1270 H 0.82245 0.55548 0.37116 0.0
H1271 H 0.79027 0.55983 0.29336 0.0
H1272 H 0.86113 0.55128 0.32589 0.0
H1273 H 0.84351 0.4794 0.49459 0.0
H1274 H 0.84075 0.47417 0.39378 0.0
H1275 H 0.82317 0.49307 0.44153 0.0
C1276 C 0.80245 0.50849 0.24184 0.0
C1277 C 0.79108 0.52787 0.24431 0.0
C1278 C 0.82126 0.50612 0.28461 0.0
C1279 C 0.82894 0.52299 0.33181 0.0
C1280 C 0.81703 0.54212 0.33588 0.0
H1281 H 0.93462 0.51436 0.65906 0.0
H1282 H 0.89974 0.51517 0.59636 0.0
C1283 C 0.79845 0.54455 0.29232 0.0
C1284 C 0.85008 0.5215 0.37212 0.0
H1285 H 0.88006 0.49045 0.49058 0.0
C1286 C 0.86512 0.53799 0.36224 0.0
C1287 C 0.85549 0.50439 0.42069 0.0
C1288 C 0.83979 0.48689 0.43899 0.0
C1289 C 0.88518 0.53777 0.39851 0.0
C1290 C 0.891 0.52016 0.44393 0.0
C1291 C 0.8759 0.5038 0.45482 0.0
C1292 C 0.91246 0.51874 0.48177 0.0
C1293 C 0.8997 0.55684 0.39003 0.0
C1294 C 0.93148 0.52 0.43869 0.0
C1295 C 0.95149 0.51975 0.47465 0.0
C1296 C 0.95309 0.51768 0.55459 0.0
C1297 C 0.93408 0.51572 0.59741 0.0
C1298 C 0.91405 0.51626 0.5615 0.0
H1299 H 0.89102 0.57102 0.36863 0.0
H1300 H 0.90724 0.56122 0.44562 0.0
H1301 H 0.91259 0.55276 0.34854 0.0
H1302 H 0.9309 0.52116 0.37694 0.0
H1303 H 0.96574 0.52104 0.43961 0.0
loop_
_geom_bond_atom_site_label_1
_geom_bond_atom_site_label_2
_geom_bond_distance
_geom_bond_site_symmetry_2
_ccdc_geom_bond_type
C0 N1 1.317 . S
C0 N2 1.348 . S
C0 C3 1.485 . S
N1 C0 1.317 . S
N1 N5 1.370 . S
N2 C0 1.348 . S
N2 C4 1.346 . S
C3 C0 1.485 . S
C3 H7 0.960 . S
C3 H8 0.961 . S
C3 H9 0.960 . S
C4 N2 1.346 . S
C4 N5 1.307 . S
C4 C6 1.486 . S
N5 N1 1.370 . S
N5 C4 1.307 . S
C6 C4 1.486 . S
C6 H10 0.960 . S
C6 H11 0.960 . S
C6 H12 0.959 . S
H7 C3 0.960 . S
H8 C3 0.961 . S
H9 C3 0.960 . S
H10 C6 0.960 . S
H11 C6 0.960 . S
H12 C6 0.959 . S
C13 N14 1.317 . S
C13 N15 1.348 . S
C13 C16 1.485 . S
N14 C13 1.317 . S
N14 N18 1.370 . S
N15 C13 1.348 . S
N15 C17 1.346 . S
C16 C13 1.485 . S
C16 H20 0.960 . S
C16 H21 0.961 . S
C16 H22 0.960 . S
C17 N15 1.346 . S
C17 N18 1.307 . S
C17 C19 1.486 . S
N18 N14 1.370 . S
N18 C17 1.307 . S
C19 C17 1.486 . S
C19 H23 0.960 . S
C19 H24 0.960 . S
C19 H25 0.959 . S
H20 C16 0.960 . S
H21 C16 0.961 . S
H22 C16 0.960 . S
H23 C19 0.960 . S
H24 C19 0.960 . S
H25 C19 0.959 . S
C26 N27 1.317 . S
C26 N28 1.348 . S
C26 C29 1.485 . S
N27 C26 1.317 . S
N27 N31 1.370 . S
N28 C26 1.348 . S
N28 C30 1.346 . S
C29 C26 1.485 . S
C29 H33 0.960 . S
C29 H34 0.961 . S
C29 H35 0.960 . S
C30 N28 1.346 . S
C30 N31 1.307 . S
C30 C32 1.486 . S
N31 N27 1.370 . S
N31 C30 1.307 . S
C32 C30 1.486 . S
C32 H36 0.960 . S
C32 H37 0.960 . S
C32 H38 0.959 . S
H33 C29 0.960 . S
H34 C29 0.961 . S
H35 C29 0.960 . S
H36 C32 0.960 . S
H37 C32 0.960 . S
H38 C32 0.959 . S
C39 N40 1.317 . S
C39 N41 1.348 . S
C39 C42 1.485 . S
N40 C39 1.317 . S
N40 N44 1.370 . S
N41 C39 1.348 . S
N41 C43 1.346 . S
C42 C39 1.485 . S
C42 H46 0.960 . S
C42 H47 0.961 . S
C42 H48 0.960 . S
C43 N41 1.346 . S
C43 N44 1.307 . S
C43 C45 1.486 . S
N44 N40 1.370 . S
N44 C43 1.307 . S
C45 C43 1.486 . S
C45 H49 0.960 . S
C45 H50 0.960 . S
C45 H51 0.959 . S
H46 C42 0.960 . S
H47 C42 0.961 . S
H48 C42 0.960 . S
H49 C45 0.960 . S
H50 C45 0.960 . S
H51 C45 0.959 . S
C52 N53 1.317 . S
C52 N54 1.348 1_556 S
C52 C55 1.485 . S
N53 C52 1.317 . S
N53 N57 1.370 1_556 S
N54 C52 1.348 1_554 S
N54 C56 1.346 . S
C55 C52 1.485 . S
C55 H59 0.960 . S
C55 H60 0.961 . S
C55 H61 0.960 . S
C56 N54 1.346 . S
C56 N57 1.307 . S
C56 C58 1.486 . S
N57 N53 1.370 1_554 S
N57 C56 1.307 . S
C58 C56 1.486 . S
C58 H62 0.960 . S
C58 H63 0.960 . S
C58 H64 0.959 . S
H59 C55 0.960 . S
H60 C55 0.961 . S
H61 C55 0.960 . S
H62 C58 0.960 . S
H63 C58 0.960 . S
H64 C58 0.959 . S
C65 N66 1.317 . S
C65 N67 1.348 1_556 S
C65 C68 1.485 . S
N66 C65 1.317 . S
N66 N70 1.370 1_556 S
N67 C65 1.348 1_554 S
N67 C69 1.346 . S
C68 C65 1.485 . S
C68 H72 0.960 . S
C68 H73 0.961 . S
C68 H74 0.960 . S
C69 N67 1.346 . S
C69 N70 1.307 . S
C69 C71 1.486 . S
N70 N66 1.370 1_554 S
N70 C69 1.307 . S
C71 C69 1.486 . S
C71 H75 0.960 . S
C71 H76 0.960 . S
C71 H77 0.959 . S
H72 C68 0.960 . S
H73 C68 0.961 . S
H74 C68 0.960 . S
H75 C71 0.960 . S
H76 C71 0.960 . S
H77 C71 0.959 . S
C78 N79 1.317 . S
C78 N80 1.348 1_556 S
C78 C81 1.485 . S
N79 C78 1.317 . S
N79 N83 1.370 1_556 S
N80 C78 1.348 1_554 S
N80 C82 1.346 . S
C81 C78 1.485 . S
C81 H85 0.960 . S
C81 H86 0.961 . S
C81 H87 0.960 . S
C82 N80 1.346 . S
C82 N83 1.307 . S
C82 C84 1.486 . S
N83 N79 1.370 1_554 S
N83 C82 1.307 . S
C84 C82 1.486 . S
C84 H88 0.960 . S
C84 H89 0.960 . S
C84 H90 0.959 . S
H85 C81 0.960 . S
H86 C81 0.961 . S
H87 C81 0.960 . S
H88 C84 0.960 . S
H89 C84 0.960 . S
H90 C84 0.959 . S
C91 N92 1.317 . S
C91 N93 1.348 1_556 S
C91 C94 1.485 . S
N92 C91 1.317 . S
N92 N96 1.370 1_556 S
N93 C91 1.348 1_554 S
N93 C95 1.346 . S
C94 C91 1.485 . S
C94 H98 0.960 . S
C94 H99 0.961 . S
C94 H100 0.960 . S
C95 N93 1.346 . S
C95 N96 1.307 . S
C95 C97 1.486 . S
N96 N92 1.370 1_554 S
N96 C95 1.307 . S
C97 C95 1.486 . S
C97 H101 0.960 . S
C97 H102 0.960 . S
C97 H103 0.959 . S
H98 C94 0.960 . S
H99 C94 0.961 . S
H100 C94 0.960 . S
H101 C97 0.960 . S
H102 C97 0.960 . S
H103 C97 0.959 . S
Eu104 N135 2.657 1_565 S
Eu104 N142 2.598 1_565 S
Eu104 O148 2.558 . S
Eu104 O149 2.612 1_455 S
Eu104 O151 2.339 1_455 S
Eu104 O152 2.563 . S
Eu104 O153 2.419 . S
Eu104 O155 2.380 1_565 S
Eu104 O156 2.432 . S
Eu104 C168 2.848 . S
C105 C108 1.429 1_545 S
C105 C109 1.411 . S
C105 N112 1.377 . S
C106 C108 1.420 . S
C106 C110 1.423 . S
C106 C118 1.392 . S
C107 C109 1.420 1_565 S
C107 C110 1.351 . S
C107 H130 0.931 . S
C108 C105 1.429 1_565 S
C108 C106 1.420 . S
C108 N116 1.362 1_565 S
C109 C105 1.411 . S
C109 C107 1.420 1_545 S
C109 C114 1.395 . S
C110 C106 1.423 . S
C110 C107 1.351 . S
C110 H122 0.930 . S
C111 C113 1.400 . S
C111 C114 1.386 . S
C111 H123 0.930 . S
N112 C105 1.377 . S
N112 C113 1.321 . S
N112 Eu115 2.609 . S
C113 C111 1.400 . S
C113 N112 1.321 . S
C113 H120 0.930 . S
C114 C109 1.395 . S
C114 C111 1.386 . S
C114 H133 0.930 . S
Eu115 N112 2.609 . S
Eu115 N116 2.657 . S
Eu115 O149 2.380 1_545 S
Eu115 O150 2.432 . S
Eu115 O154 2.558 . S
Eu115 O155 2.612 1_655 S
Eu115 O157 2.339 1_655 S
Eu115 O158 2.563 1_655 S
Eu115 O159 2.419 . S
Eu115 C179 2.848 . S
N116 C108 1.362 1_545 S
N116 Eu115 2.657 . S
N116 C117 1.334 1_645 S
C117 N116 1.334 1_465 S
C117 C119 1.413 . S
C117 H124 0.929 . S
C118 C106 1.392 . S
C118 C119 1.367 1_655 S
C118 H126 0.930 . S
C119 C117 1.413 . S
C119 C118 1.367 1_455 S
C119 H121 0.930 . S
H120 C113 0.930 . S
H121 C119 0.930 . S
H122 C110 0.930 . S
H123 C111 0.930 . S
H124 C117 0.929 . S
H125 C139 0.930 1_655 S
H126 C118 0.930 . S
H127 C145 0.930 . S
H128 C136 0.929 1_655 S
H129 C143 0.930 . S
H130 C107 0.931 . S
H131 C137 0.930 1_554 S
H132 C170 0.930 1_554 S
H133 C114 0.930 . S
H134 C169 0.931 . S
N135 Eu104 2.657 1_545 S
N135 C136 1.334 . S
N135 C140 1.362 . S
C136 H128 0.929 1_455 S
C136 N135 1.334 . S
C136 C139 1.413 . S
C137 H131 0.930 1_556 S
C137 C138 1.392 . S
C137 C139 1.367 . S
C138 C137 1.392 . S
C138 C140 1.420 . S
C138 C170 1.423 . S
C139 H125 0.930 1_455 S
C139 C136 1.413 . S
C139 C137 1.367 . S
C140 N135 1.362 . S
C140 C138 1.420 . S
C140 C144 1.429 . S
H141 C146 0.930 . S
N142 Eu104 2.598 1_545 S
N142 C144 1.403 . S
N142 C145 1.302 1_545 S
C143 H129 0.930 . S
C143 C145 1.400 . S
C143 C146 1.386 1_565 S
C144 C140 1.429 . S
C144 N142 1.403 . S
C144 C147 1.411 . S
C145 H127 0.930 . S
C145 N142 1.302 1_565 S
C145 C143 1.400 . S
C146 H141 0.930 . S
C146 C143 1.386 1_545 S
C146 C147 1.395 . S
C147 C144 1.411 . S
C147 C146 1.395 . S
C147 C169 1.420 . S
O148 Eu104 2.558 . S
O148 C168 1.257 . S
O149 Eu104 2.612 1_655 S
O149 Eu115 2.380 1_565 S
O149 C160 1.276 . S
O150 Eu115 2.432 . S
O150 C167 1.264 . S
O151 Eu104 2.339 1_655 S
O151 C167 1.254 1_565 S
O152 Eu104 2.563 . S
O152 C160 1.235 1_455 S
O153 Eu104 2.419 . S
O153 C168 1.249 . S
O154 Eu115 2.558 . S
O154 C179 1.257 . S
O155 Eu104 2.380 1_545 S
O155 Eu115 2.612 1_455 S
O155 C171 1.276 . S
O156 Eu104 2.432 . S
O156 C178 1.264 1_565 S
O157 Eu115 2.339 1_455 S
O157 C178 1.254 . S
O158 Eu115 2.563 1_455 S
O158 C171 1.235 . S
O159 Eu115 2.419 . S
O159 C179 1.249 . S
C160 O149 1.276 . S
C160 O152 1.235 1_655 S
C161 C163 1.393 . S
C161 C165 1.395 . S
C161 C168 1.492 . S
C162 C163 1.392 . S
C162 C164 1.386 . S
C163 C161 1.393 . S
C163 C162 1.392 . S
C163 H180 0.905 1_455 S
C164 C162 1.386 . S
C164 C166 1.395 . S
C164 H181 0.930 . S
C165 C161 1.395 . S
C165 C166 1.379 . S
C165 H182 0.930 . S
C166 C164 1.395 . S
C166 C165 1.379 . S
C166 H183 0.930 . S
C167 O150 1.264 . S
C167 O151 1.254 1_545 S
C168 Eu104 2.848 . S
C168 O148 1.257 . S
C168 O153 1.249 . S
C168 C161 1.492 . S
C169 H134 0.931 . S
C169 C147 1.420 . S
C169 C170 1.351 . S
C170 H132 0.930 1_556 S
C170 C138 1.423 . S
C170 C169 1.351 . S
C171 O155 1.276 . S
C171 O158 1.235 . S
C172 C173 1.393 . S
C172 C176 1.395 . S
C172 C179 1.492 . S
C173 C172 1.393 . S
C173 C174 1.392 . S
C173 H184 0.930 1_655 S
C174 C173 1.392 . S
C174 C175 1.386 . S
C175 C174 1.386 . S
C175 C177 1.395 . S
C175 H185 0.930 . S
C176 C172 1.395 . S
C176 C177 1.379 . S
C176 H186 0.930 . S
C177 C175 1.395 . S
C177 C176 1.379 . S
C177 H187 0.930 . S
C178 O156 1.264 1_545 S
C178 O157 1.254 . S
C179 Eu115 2.848 . S
C179 O154 1.257 . S
C179 O159 1.249 . S
C179 C172 1.492 . S
H180 C163 0.905 1_655 S
H181 C164 0.930 . S
H182 C165 0.930 . S
H183 C166 0.930 . S
H184 C173 0.930 1_455 S
H185 C175 0.930 . S
H186 C176 0.930 . S
H187 C177 0.930 . S
Eu188 N219 2.657 . S
Eu188 N226 2.609 . S
Eu188 O232 2.558 . S
Eu188 O233 2.588 1_545 S
Eu188 O235 2.339 1_545 S
Eu188 O236 2.563 . S
Eu188 O237 2.419 . S
Eu188 O239 2.380 . S
Eu188 O240 2.432 . S
Eu188 C252 2.848 . S
C189 C192 1.429 . S
C189 C193 1.411 . S
C189 N196 1.377 . S
C190 C192 1.420 . S
C190 C194 1.423 . S
C190 C202 1.392 . S
C191 C193 1.420 . S
C191 C194 1.351 . S
C191 H214 0.931 . S
C192 C189 1.429 . S
C192 C190 1.420 . S
C192 N200 1.362 . S
C193 C189 1.411 . S
C193 C191 1.420 . S
C193 C198 1.395 . S
C194 C190 1.423 . S
C194 C191 1.351 . S
C194 H206 0.930 . S
C195 C197 1.400 . S
C195 C198 1.386 . S
C195 H207 0.930 . S
N196 C189 1.377 . S
N196 C197 1.321 . S
N196 Eu199 2.609 . S
C197 C195 1.400 . S
C197 N196 1.321 . S
C197 H204 0.930 . S
C198 C193 1.395 . S
C198 C195 1.386 . S
C198 H217 0.930 . S
Eu199 N196 2.609 . S
Eu199 N200 2.657 . S
Eu199 O233 2.388 . S
Eu199 O234 2.432 . S
Eu199 O238 2.558 . S
Eu199 O239 2.612 1_565 S
Eu199 O241 2.339 1_565 S
Eu199 O242 2.563 1_565 S
Eu199 O243 2.408 1_565 S
Eu199 C263 2.848 . S
N200 C192 1.362 . S
N200 Eu199 2.657 . S
N200 C201 1.334 1_565 S
C201 N200 1.334 1_545 S
C201 C203 1.413 . S
C201 H208 0.929 . S
C202 C190 1.392 . S
C202 C203 1.367 1_565 S
C202 H210 0.930 . S
C203 C201 1.413 . S
C203 C202 1.367 1_545 S
C203 H205 0.930 . S
H204 C197 0.930 . S
H205 C203 0.930 . S
H206 C194 0.930 . S
H207 C195 0.930 . S
H208 C201 0.929 . S
H209 C223 0.930 1_565 S
H210 C202 0.930 . S
H211 C229 0.930 . S
H212 C220 0.929 1_565 S
H213 C227 0.930 . S
H214 C191 0.931 . S
H215 C221 0.930 1_554 S
H216 C254 0.930 1_554 S
H217 C198 0.930 . S
H218 C253 0.931 . S
N219 Eu188 2.657 . S
N219 C220 1.334 . S
N219 C224 1.362 . S
C220 H212 0.929 1_545 S
C220 N219 1.334 . S
C220 C223 1.413 . S
C221 H215 0.930 1_556 S
C221 C222 1.392 . S
C221 C223 1.367 . S
C222 C221 1.392 . S
C222 C224 1.420 . S
C222 C254 1.423 . S
C223 H209 0.930 1_545 S
C223 C220 1.413 . S
C223 C221 1.367 . S
C224 N219 1.362 . S
C224 C222 1.420 . S
C224 C228 1.429 . S
H225 C230 0.930 . S
N226 Eu188 2.609 . S
N226 C228 1.377 . S
N226 C229 1.321 . S
C227 H213 0.930 . S
C227 C229 1.400 . S
C227 C230 1.386 . S
C228 C224 1.429 . S
C228 N226 1.377 . S
C228 C231 1.411 . S
C229 H211 0.930 . S
C229 N226 1.321 . S
C229 C227 1.400 . S
C230 H225 0.930 . S
C230 C227 1.386 . S
C230 C231 1.395 . S
C231 C228 1.411 . S
C231 C230 1.395 . S
C231 C253 1.420 . S
O232 Eu188 2.558 . S
O232 C252 1.257 . S
O233 Eu188 2.588 1_565 S
O233 Eu199 2.388 . S
O233 C244 1.275 . S
O234 Eu199 2.432 . S
O234 C251 1.264 . S
O235 Eu188 2.339 1_565 S
O235 C251 1.254 . S
O236 Eu188 2.563 . S
O236 C244 1.237 1_545 S
O237 Eu188 2.419 . S
O237 C252 1.249 . S
O238 Eu199 2.558 . S
O238 C263 1.257 . S
O239 Eu188 2.380 . S
O239 Eu199 2.612 1_545 S
O239 C255 1.276 . S
O240 Eu188 2.432 . S
O240 C262 1.264 . S
O241 Eu199 2.339 1_545 S
O241 C262 1.254 . S
O242 Eu199 2.563 1_545 S
O242 C255 1.235 . S
O243 Eu199 2.408 1_545 S
O243 C263 1.204 1_545 S
C244 O233 1.275 . S
C244 O236 1.237 1_565 S
C245 C247 1.393 . S
C245 C249 1.395 . S
C245 C252 1.492 . S
C246 C247 1.392 . S
C246 C248 1.386 . S
C247 C245 1.393 . S
C247 C246 1.392 . S
C247 H264 0.930 . S
C248 C246 1.386 . S
C248 C250 1.395 . S
C248 H265 0.930 . S
C249 C245 1.395 . S
C249 C250 1.379 . S
C249 H266 0.930 . S
C250 C248 1.395 . S
C250 C249 1.379 . S
C250 H267 0.930 . S
C251 O234 1.264 . S
C251 O235 1.254 . S
C252 Eu188 2.848 . S
C252 O232 1.257 . S
C252 O237 1.249 . S
C252 C245 1.492 . S
C253 H218 0.931 . S
C253 C231 1.420 . S
C253 C254 1.351 . S
C254 H216 0.930 1_556 S
C254 C222 1.423 . S
C254 C253 1.351 . S
C255 O239 1.276 . S
C255 O242 1.235 . S
C256 C257 1.375 1_565 S
C256 C260 1.395 . S
C256 C263 1.492 . S
C257 C256 1.375 1_545 S
C257 C258 1.391 1_545 S
C257 H268 0.950 . S
C258 C257 1.391 1_565 S
C258 C259 1.386 . S
C259 C258 1.386 . S
C259 C261 1.395 . S
C259 H269 0.930 . S
C260 C256 1.395 . S
C260 C261 1.379 . S
C260 H270 0.930 . S
C261 C259 1.395 . S
C261 C260 1.379 . S
C261 H271 0.930 . S
C262 O240 1.264 . S
C262 O241 1.254 . S
C263 Eu199 2.848 . S
C263 O238 1.257 . S
C263 O243 1.204 1_565 S
C263 C256 1.492 . S
H264 C247 0.930 . S
H265 C248 0.930 . S
H266 C249 0.930 . S
H267 C250 0.930 . S
H268 C257 0.950 . S
H269 C259 0.930 . S
H270 C260 0.930 . S
H271 C261 0.930 . S
Eu272 N303 2.657 . S
Eu272 N310 2.609 . S
Eu272 O316 2.558 . S
Eu272 O317 2.612 . S
Eu272 O319 2.339 . S
Eu272 O320 2.563 . S
Eu272 O321 2.419 . S
Eu272 O323 2.380 . S
Eu272 O324 2.432 . S
Eu272 C336 2.848 . S
C273 C276 1.429 . S
C273 C277 1.411 . S
C273 N280 1.377 . S
C274 C276 1.420 . S
C274 C278 1.423 . S
C274 C286 1.392 . S
C275 C277 1.420 . S
C275 C278 1.351 . S
C275 H298 0.931 . S
C276 C273 1.429 . S
C276 C274 1.420 . S
C276 N284 1.362 . S
C277 C273 1.411 . S
C277 C275 1.420 . S
C277 C282 1.395 . S
C278 C274 1.423 . S
C278 C275 1.351 . S
C278 H290 0.930 . S
C279 C281 1.400 . S
C279 C282 1.386 . S
C279 H291 0.930 . S
N280 C273 1.377 . S
N280 C281 1.321 . S
N280 Eu283 2.609 . S
C281 C279 1.400 . S
C281 N280 1.321 . S
C281 H288 0.930 . S
C282 C277 1.395 . S
C282 C279 1.386 . S
C282 H301 0.930 . S
Eu283 N280 2.609 . S
Eu283 N284 2.657 . S
Eu283 O317 2.380 . S
Eu283 O318 2.432 . S
Eu283 O322 2.558 . S
Eu283 O323 2.612 . S
Eu283 O325 2.339 . S
Eu283 O326 2.563 . S
Eu283 O327 2.419 . S
Eu283 C347 2.848 . S
N284 C276 1.362 . S
N284 Eu283 2.657 . S
N284 C285 1.334 . S
C285 N284 1.334 . S
C285 C287 1.413 . S
C285 H292 0.929 . S
C286 C274 1.392 . S
C286 C287 1.367 . S
C286 H294 0.930 . S
C287 C285 1.413 . S
C287 C286 1.367 . S
C287 H289 0.930 . S
H288 C281 0.930 . S
H289 C287 0.930 . S
H290 C278 0.930 . S
H291 C279 0.930 . S
H292 C285 0.929 . S
H293 C307 0.930 . S
H294 C286 0.930 . S
H295 C313 0.930 . S
H296 C304 0.929 . S
H297 C311 0.930 . S
H298 C275 0.931 . S
H299 C305 0.930 . S
H300 C338 0.930 . S
H301 C282 0.930 . S
H302 C337 0.931 . S
N303 Eu272 2.657 . S
N303 C304 1.334 . S
N303 C308 1.362 . S
C304 H296 0.929 . S
C304 N303 1.334 . S
C304 C307 1.413 . S
C305 H299 0.930 . S
C305 C306 1.392 . S
C305 C307 1.367 . S
C306 C305 1.392 . S
C306 C308 1.420 . S
C306 C338 1.423 . S
C307 H293 0.930 . S
C307 C304 1.413 . S
C307 C305 1.367 . S
C308 N303 1.362 . S
C308 C306 1.420 . S
C308 C312 1.429 . S
H309 C314 0.930 . S
N310 Eu272 2.609 . S
N310 C312 1.377 . S
N310 C313 1.321 . S
C311 H297 0.930 . S
C311 C313 1.400 . S
C311 C314 1.386 . S
C312 C308 1.429 . S
C312 N310 1.377 . S
C312 C315 1.411 . S
C313 H295 0.930 . S
C313 N310 1.321 . S
C313 C311 1.400 . S
C314 H309 0.930 . S
C314 C311 1.386 . S
C314 C315 1.395 . S
C315 C312 1.411 . S
C315 C314 1.395 . S
C315 C337 1.420 . S
O316 Eu272 2.558 . S
O316 C336 1.257 . S
O317 Eu272 2.612 . S
O317 Eu283 2.380 . S
O317 C328 1.276 . S
O318 Eu283 2.432 . S
O318 C335 1.264 . S
O319 Eu272 2.339 . S
O319 C335 1.254 . S
O320 Eu272 2.563 . S
O320 C328 1.235 . S
O321 Eu272 2.419 . S
O321 C336 1.249 . S
O322 Eu283 2.558 . S
O322 C347 1.257 . S
O323 Eu272 2.380 . S
O323 Eu283 2.612 . S
O323 C339 1.276 . S
O324 Eu272 2.432 . S
O324 C346 1.264 . S
O325 Eu283 2.339 . S
O325 C346 1.254 . S
O326 Eu283 2.563 . S
O326 C339 1.235 . S
O327 Eu283 2.419 . S
O327 C347 1.249 . S
C328 O317 1.276 . S
C328 O320 1.235 . S
C329 C331 1.393 . S
C329 C333 1.395 . S
C329 C336 1.492 . S
C330 C331 1.392 . S
C330 C332 1.386 . S
C331 C329 1.393 . S
C331 C330 1.392 . S
C331 H348 0.930 . S
C332 C330 1.386 . S
C332 C334 1.395 . S
C332 H349 0.930 . S
C333 C329 1.395 . S
C333 C334 1.379 . S
C333 H350 0.930 . S
C334 C332 1.395 . S
C334 C333 1.379 . S
C334 H351 0.930 . S
C335 O318 1.264 . S
C335 O319 1.254 . S
C336 Eu272 2.848 . S
C336 O316 1.257 . S
C336 O321 1.249 . S
C336 C329 1.492 . S
C337 H302 0.931 . S
C337 C315 1.420 . S
C337 C338 1.351 . S
C338 H300 0.930 . S
C338 C306 1.423 . S
C338 C337 1.351 . S
C339 O323 1.276 . S
C339 O326 1.235 . S
C340 C341 1.393 . S
C340 C344 1.395 . S
C340 C347 1.492 . S
C341 C340 1.393 . S
C341 C342 1.392 . S
C341 H352 0.930 . S
C342 C341 1.392 . S
C342 C343 1.386 1_556 S
C343 C342 1.386 1_554 S
C343 C345 1.395 . S
C343 H353 0.930 . S
C344 C340 1.395 . S
C344 C345 1.379 1_556 S
C344 H354 0.930 . S
C345 C343 1.395 . S
C345 C344 1.379 1_554 S
C345 H355 0.930 . S
C346 O324 1.264 . S
C346 O325 1.254 . S
C347 Eu283 2.848 . S
C347 O322 1.257 . S
C347 O327 1.249 . S
C347 C340 1.492 . S
H348 C331 0.930 . S
H349 C332 0.930 . S
H350 C333 0.930 . S
H351 C334 0.930 . S
H352 C341 0.930 . S
H353 C343 0.930 . S
H354 C344 0.930 . S
H355 C345 0.930 . S
Eu356 N387 2.657 . S
Eu356 N394 2.609 . S
Eu356 O400 2.558 . S
Eu356 O401 2.612 . S
Eu356 O403 2.339 . S
Eu356 O404 2.563 . S
Eu356 O405 2.419 . S
Eu356 O407 2.380 . S
Eu356 O408 2.432 1_455 S
Eu356 C420 2.848 . S
C357 C360 1.429 . S
C357 C361 1.411 . S
C357 N364 1.377 . S
C358 C360 1.420 . S
C358 C362 1.423 . S
C358 C370 1.392 . S
C359 C361 1.420 . S
C359 C362 1.351 . S
C359 H382 0.931 . S
C360 C357 1.429 . S
C360 C358 1.420 . S
C360 N368 1.362 . S
C361 C357 1.411 . S
C361 C359 1.420 . S
C361 C366 1.395 1_655 S
C362 C358 1.423 . S
C362 C359 1.351 . S
C362 H374 0.930 . S
C363 C365 1.400 . S
C363 C366 1.386 . S
C363 H375 0.930 . S
N364 C357 1.377 . S
N364 C365 1.321 1_655 S
N364 Eu367 2.609 . S
C365 C363 1.400 . S
C365 N364 1.321 1_455 S
C365 H372 0.930 . S
C366 C361 1.395 1_455 S
C366 C363 1.386 . S
C366 H385 0.930 . S
Eu367 N364 2.609 . S
Eu367 N368 2.657 . S
Eu367 O401 2.380 1_655 S
Eu367 O402 2.432 1_655 S
Eu367 O406 2.558 . S
Eu367 O407 2.612 1_655 S
Eu367 O409 2.339 . S
Eu367 O410 2.563 . S
Eu367 O411 2.419 . S
Eu367 C431 2.848 . S
N368 C360 1.362 . S
N368 Eu367 2.657 . S
N368 C369 1.334 . S
C369 N368 1.334 . S
C369 C371 1.413 . S
C369 H376 0.929 . S
C370 C358 1.392 . S
C370 C371 1.367 . S
C370 H378 0.930 . S
C371 C369 1.413 . S
C371 C370 1.367 . S
C371 H373 0.930 . S
H372 C365 0.930 . S
H373 C371 0.930 . S
H374 C362 0.930 . S
H375 C363 0.930 . S
H376 C369 0.929 . S
H377 C391 0.930 . S
H378 C370 0.930 . S
H379 C397 0.930 1_655 S
H380 C388 0.929 . S
H381 C395 0.959 . S
H382 C359 0.931 . S
H383 C389 0.930 . S
H384 C422 0.930 . S
H385 C366 0.930 . S
H386 C421 0.931 . S
N387 Eu356 2.657 . S
N387 C388 1.334 . S
N387 C392 1.362 . S
C388 H380 0.929 . S
C388 N387 1.334 . S
C388 C391 1.413 . S
C389 H383 0.930 . S
C389 C390 1.392 . S
C389 C391 1.367 . S
C390 C389 1.392 . S
C390 C392 1.420 . S
C390 C422 1.423 . S
C391 H377 0.930 . S
C391 C388 1.413 . S
C391 C389 1.367 . S
C392 N387 1.362 . S
C392 C390 1.420 . S
C392 C396 1.429 . S
H393 C398 0.930 . S
N394 Eu356 2.609 . S
N394 C396 1.377 . S
N394 C397 1.321 . S
C395 H381 0.959 . S
C395 C397 1.394 1_655 S
C395 C398 1.364 1_655 S
C396 C392 1.429 . S
C396 N394 1.377 . S
C396 C399 1.411 . S
C397 H379 0.930 1_455 S
C397 N394 1.321 . S
C397 C395 1.394 1_455 S
C398 H393 0.930 . S
C398 C395 1.364 1_455 S
C398 C399 1.395 . S
C399 C396 1.411 . S
C399 C398 1.395 . S
C399 C421 1.420 . S
O400 Eu356 2.558 . S
O400 C420 1.257 . S
O401 Eu356 2.612 . S
O401 Eu367 2.380 1_455 S
O401 C412 1.276 . S
O402 Eu367 2.432 1_455 S
O402 C419 1.264 . S
O403 Eu356 2.339 . S
O403 C419 1.254 . S
O404 Eu356 2.563 . S
O404 C412 1.235 . S
O405 Eu356 2.419 . S
O405 C420 1.249 . S
O406 Eu367 2.558 . S
O406 C431 1.257 . S
O407 Eu356 2.380 . S
O407 Eu367 2.612 1_455 S
O407 C423 1.276 1_455 S
O408 Eu356 2.432 1_655 S
O408 C430 1.264 . S
O409 Eu367 2.339 . S
O409 C430 1.254 . S
O410 Eu367 2.563 . S
O410 C423 1.235 . S
O411 Eu367 2.419 . S
O411 C431 1.249 . S
C412 O401 1.276 . S
C412 O404 1.235 . S
C413 C415 1.393 . S
C413 C417 1.395 . S
C413 C420 1.492 . S
C414 C415 1.392 . S
C414 C416 1.386 . S
C415 C413 1.393 . S
C415 C414 1.392 . S
C415 H432 0.930 . S
C416 C414 1.386 . S
C416 C418 1.395 . S
C416 H433 0.930 . S
C417 C413 1.395 . S
C417 C418 1.379 . S
C417 H434 0.930 . S
C418 C416 1.395 . S
C418 C417 1.379 . S
C418 H435 0.930 . S
C419 O402 1.264 . S
C419 O403 1.254 . S
C420 Eu356 2.848 . S
C420 O400 1.257 . S
C420 O405 1.249 . S
C420 C413 1.492 . S
C421 H386 0.931 . S
C421 C399 1.420 . S
C421 C422 1.351 . S
C422 H384 0.930 . S
C422 C390 1.423 . S
C422 C421 1.351 . S
C423 O407 1.276 1_655 S
C423 O410 1.235 . S
C424 C425 1.393 . S
C424 C428 1.395 . S
C424 C431 1.492 . S
C425 C424 1.393 . S
C425 C426 1.392 . S
C425 H436 0.930 . S
C426 C425 1.392 . S
C426 C427 1.386 1_556 S
C427 C426 1.386 1_554 S
C427 C429 1.395 . S
C427 H437 0.930 . S
C428 C424 1.395 . S
C428 C429 1.379 1_556 S
C428 H438 0.930 . S
C429 C427 1.395 . S
C429 C428 1.379 1_554 S
C429 H439 0.930 . S
C430 O408 1.264 . S
C430 O409 1.254 . S
C431 Eu367 2.848 . S
C431 O406 1.257 . S
C431 O411 1.249 . S
C431 C424 1.492 . S
H432 C415 0.930 . S
H433 C416 0.930 . S
H434 C417 0.930 . S
H435 C418 0.930 . S
H436 C425 0.930 . S
H437 C427 0.930 . S
H438 C428 0.930 . S
H439 C429 0.930 . S
H440 C448 0.929 . S
H441 C450 0.930 . S
H442 C452 0.930 . S
H443 C455 0.929 . S
H444 C458 0.930 . S
H445 C460 0.960 . S
H446 C460 0.960 . S
H447 C460 0.960 . S
C448 H440 0.929 . S
C448 C449 1.377 . S
C448 C450 1.384 . S
C449 C448 1.377 . S
C449 C455 1.390 . S
C450 H441 0.930 . S
C450 C448 1.384 . S
C450 C451 1.372 . S
C451 C450 1.372 . S
C451 C452 1.400 . S
C451 C456 1.490 . S
C452 H442 0.930 . S
C452 C451 1.400 . S
C452 C455 1.386 . S
H453 C469 0.930 1_565 S
H454 C470 0.950 . S
C455 H443 0.929 . S
C455 C449 1.390 . S
C455 C452 1.386 . S
C456 C451 1.490 . S
C456 C458 1.395 . S
C456 C459 1.403 . S
H457 C463 0.930 . S
C458 H444 0.930 . S
C458 C456 1.395 . S
C458 C461 1.403 . S
C459 C456 1.403 . S
C459 C460 1.524 . S
C459 C463 1.400 . S
C460 H445 0.960 . S
C460 H446 0.960 . S
C460 H447 0.960 . S
C460 C459 1.524 . S
C461 C458 1.403 . S
C461 C462 1.392 . S
C461 C465 1.495 . S
C462 C461 1.392 . S
C462 C463 1.385 . S
C462 C464 1.478 . S
C463 H457 0.930 . S
C463 C459 1.400 . S
C463 C462 1.385 . S
C464 C462 1.478 . S
C464 C466 1.381 . S
C464 C470 1.383 . S
C465 C461 1.495 . S
C465 H471 0.959 . S
C465 H472 0.961 . S
C465 H473 0.960 . S
C466 C464 1.381 . S
C466 C467 1.394 . S
C466 H474 0.930 . S
C467 C466 1.394 . S
C467 C468 1.383 . S
C467 H475 0.929 . S
C468 C467 1.383 . S
C468 C469 1.377 . S
C469 H453 0.930 1_545 S
C469 C468 1.377 . S
C469 C470 1.379 . S
C470 H454 0.950 . S
C470 C464 1.383 . S
C470 C469 1.379 . S
H471 C465 0.959 . S
H472 C465 0.961 . S
H473 C465 0.960 . S
H474 C466 0.930 . S
H475 C467 0.929 . S
H476 C484 0.929 . S
H477 C486 0.930 . S
H478 C488 0.930 . S
H479 C491 0.929 . S
H480 C494 0.930 . S
H481 C496 0.960 . S
H482 C496 0.960 . S
H483 C496 0.960 . S
C484 H476 0.929 . S
C484 C485 1.377 . S
C484 C486 1.384 . S
C485 C484 1.377 . S
C485 C491 1.390 . S
C486 H477 0.930 . S
C486 C484 1.384 . S
C486 C487 1.372 . S
C487 C486 1.372 . S
C487 C488 1.400 . S
C487 C492 1.490 . S
C488 H478 0.930 . S
C488 C487 1.400 . S
C488 C491 1.386 . S
H489 C505 0.930 . S
H490 C506 0.931 . S
C491 H479 0.929 . S
C491 C485 1.390 . S
C491 C488 1.386 . S
C492 C487 1.490 . S
C492 C494 1.395 . S
C492 C495 1.403 . S
H493 C499 0.930 . S
C494 H480 0.930 . S
C494 C492 1.395 . S
C494 C497 1.403 . S
C495 C492 1.403 . S
C495 C496 1.524 . S
C495 C499 1.400 . S
C496 H481 0.960 . S
C496 H482 0.960 . S
C496 H483 0.960 . S
C496 C495 1.524 . S
C497 C494 1.403 . S
C497 C498 1.392 . S
C497 C501 1.495 . S
C498 C497 1.392 . S
C498 C499 1.385 . S
C498 C500 1.478 . S
C499 H493 0.930 . S
C499 C495 1.400 . S
C499 C498 1.385 . S
C500 C498 1.478 . S
C500 C502 1.381 . S
C500 C506 1.383 . S
C501 C497 1.495 . S
C501 H507 0.959 . S
C501 H508 0.961 . S
C501 H509 0.960 . S
C502 C500 1.381 . S
C502 C503 1.394 . S
C502 H510 0.930 . S
C503 C502 1.394 . S
C503 C504 1.383 . S
C503 H511 0.929 . S
C504 C503 1.383 . S
C504 C505 1.377 . S
C505 H489 0.930 . S
C505 C504 1.377 . S
C505 C506 1.379 . S
C506 H490 0.931 . S
C506 C500 1.383 . S
C506 C505 1.379 . S
H507 C501 0.959 . S
H508 C501 0.961 . S
H509 C501 0.960 . S
H510 C502 0.930 . S
H511 C503 0.929 . S
H512 C520 0.929 . S
H513 C522 0.930 . S
H514 C524 0.930 . S
H515 C527 0.929 . S
H516 C530 0.930 . S
H517 C532 0.960 . S
H518 C532 0.960 . S
H519 C532 0.960 . S
C520 H512 0.929 . S
C520 C521 1.377 . S
C520 C522 1.384 . S
C521 C520 1.377 . S
C521 C527 1.390 . S
C522 H513 0.930 . S
C522 C520 1.384 . S
C522 C523 1.372 . S
C523 C522 1.372 . S
C523 C524 1.400 . S
C523 C528 1.490 . S
C524 H514 0.930 . S
C524 C523 1.400 . S
C524 C527 1.386 . S
H525 C541 0.930 . S
H526 C542 0.931 . S
C527 H515 0.929 . S
C527 C521 1.390 . S
C527 C524 1.386 . S
C528 C523 1.490 . S
C528 C530 1.395 . S
C528 C531 1.403 . S
H529 C535 0.930 . S
C530 H516 0.930 . S
C530 C528 1.395 . S
C530 C533 1.403 . S
C531 C528 1.403 . S
C531 C532 1.524 . S
C531 C535 1.400 . S
C532 H517 0.960 . S
C532 H518 0.960 . S
C532 H519 0.960 . S
C532 C531 1.524 . S
C533 C530 1.403 . S
C533 C534 1.392 . S
C533 C537 1.495 . S
C534 C533 1.392 . S
C534 C535 1.385 . S
C534 C536 1.478 . S
C535 H529 0.930 . S
C535 C531 1.400 . S
C535 C534 1.385 . S
C536 C534 1.478 . S
C536 C538 1.381 . S
C536 C542 1.383 . S
C537 C533 1.495 . S
C537 H543 0.959 . S
C537 H544 0.961 . S
C537 H545 0.960 . S
C538 C536 1.381 . S
C538 C539 1.394 . S
C538 H546 0.930 . S
C539 C538 1.394 . S
C539 C540 1.383 . S
C539 H547 0.929 . S
C540 C539 1.383 . S
C540 C541 1.377 . S
C541 H525 0.930 . S
C541 C540 1.377 . S
C541 C542 1.379 . S
C542 H526 0.931 . S
C542 C536 1.383 . S
C542 C541 1.379 . S
H543 C537 0.959 . S
H544 C537 0.961 . S
H545 C537 0.960 . S
H546 C538 0.930 . S
H547 C539 0.929 . S
H548 C556 0.929 . S
H549 C558 0.930 . S
H550 C560 0.930 . S
H551 C563 0.929 . S
H552 C566 0.930 . S
H553 C568 0.960 . S
H554 C568 0.960 . S
H555 C568 0.960 . S
C556 H548 0.929 . S
C556 C557 1.377 . S
C556 C558 1.384 . S
C557 C556 1.377 . S
C557 C563 1.390 . S
C558 H549 0.930 . S
C558 C556 1.384 . S
C558 C559 1.372 . S
C559 C558 1.372 . S
C559 C560 1.400 . S
C559 C564 1.490 . S
C560 H550 0.930 . S
C560 C559 1.400 . S
C560 C563 1.386 . S
H561 C577 0.930 . S
H562 C578 0.931 . S
C563 H551 0.929 . S
C563 C557 1.390 . S
C563 C560 1.386 . S
C564 C559 1.490 . S
C564 C566 1.395 . S
C564 C567 1.403 . S
H565 C571 0.930 . S
C566 H552 0.930 . S
C566 C564 1.395 . S
C566 C569 1.403 . S
C567 C564 1.403 . S
C567 C568 1.524 . S
C567 C571 1.400 . S
C568 H553 0.960 . S
C568 H554 0.960 . S
C568 H555 0.960 . S
C568 C567 1.524 . S
C569 C566 1.403 . S
C569 C570 1.392 . S
C569 C573 1.495 . S
C570 C569 1.392 . S
C570 C571 1.385 . S
C570 C572 1.478 . S
C571 H565 0.930 . S
C571 C567 1.400 . S
C571 C570 1.385 . S
C572 C570 1.478 . S
C572 C574 1.381 . S
C572 C578 1.383 . S
C573 C569 1.495 . S
C573 H579 0.959 . S
C573 H580 0.961 . S
C573 H581 0.960 . S
C574 C572 1.381 . S
C574 C575 1.394 . S
C574 H582 0.930 1_455 S
C575 C574 1.394 . S
C575 C576 1.383 . S
C575 H583 0.929 1_455 S
C576 C575 1.383 . S
C576 C577 1.377 . S
C577 H561 0.930 . S
C577 C576 1.377 . S
C577 C578 1.379 . S
C578 H562 0.931 . S
C578 C572 1.383 . S
C578 C577 1.379 . S
H579 C573 0.959 . S
H580 C573 0.961 . S
H581 C573 0.960 . S
H582 C574 0.930 1_655 S
H583 C575 0.929 1_655 S
H584 C592 0.929 . S
H585 C594 0.930 . S
H586 C596 0.930 . S
H587 C599 0.929 . S
H588 C602 0.930 . S
H589 C604 0.960 . S
H590 C604 0.962 . S
H591 C604 0.960 1_565 S
C592 H584 0.929 . S
C592 C593 1.377 . S
C592 C594 1.384 . S
C593 C592 1.377 . S
C593 C599 1.390 . S
C594 H585 0.930 . S
C594 C592 1.384 . S
C594 C595 1.372 . S
C595 C594 1.372 . S
C595 C596 1.400 . S
C595 C600 1.490 . S
C596 H586 0.930 . S
C596 C595 1.400 . S
C596 C599 1.386 . S
H597 C613 0.930 . S
H598 C614 0.931 . S
C599 H587 0.929 . S
C599 C593 1.390 . S
C599 C596 1.386 . S
C600 C595 1.490 . S
C600 C602 1.395 . S
C600 C603 1.403 1_554 S
H601 C607 0.941 . S
C602 H588 0.930 . S
C602 C600 1.395 . S
C602 C605 1.403 1_554 S
C603 C600 1.403 1_556 S
C603 C604 1.524 1_565 S
C603 C607 1.400 . S
C604 H589 0.960 . S
C604 H590 0.962 . S
C604 H591 0.960 1_545 S
C604 C603 1.524 1_545 S
C605 C602 1.403 1_556 S
C605 C606 1.392 . S
C605 C609 1.495 1_556 S
C606 C605 1.392 . S
C606 C607 1.385 . S
C606 C608 1.478 . S
C607 H601 0.941 . S
C607 C603 1.400 . S
C607 C606 1.385 . S
C608 C606 1.478 . S
C608 C610 1.381 . S
C608 C614 1.383 . S
C609 C605 1.495 1_554 S
C609 H615 0.959 . S
C609 H616 0.961 1_554 S
C609 H617 0.960 . S
C610 C608 1.381 . S
C610 C611 1.396 . S
C610 H618 0.930 . S
C611 C610 1.396 . S
C611 C612 1.386 . S
C611 H619 0.925 1_565 S
C612 C611 1.386 . S
C612 C613 1.377 . S
C613 H597 0.930 . S
C613 C612 1.377 . S
C613 C614 1.379 . S
C614 H598 0.931 . S
C614 C608 1.383 . S
C614 C613 1.379 . S
H615 C609 0.959 . S
H616 C609 0.961 1_556 S
H617 C609 0.960 . S
H618 C610 0.930 . S
H619 C611 0.925 1_545 S
H620 C628 0.929 . S
H621 C630 0.930 . S
H622 C632 0.930 . S
H623 C635 0.929 . S
H624 C638 0.930 . S
H625 C640 0.960 . S
H626 C640 0.960 . S
H627 C640 0.960 . S
C628 H620 0.929 . S
C628 C629 1.377 . S
C628 C630 1.384 . S
C629 C628 1.377 . S
C629 C635 1.390 . S
C630 H621 0.930 . S
C630 C628 1.384 . S
C630 C631 1.372 . S
C631 C630 1.372 . S
C631 C632 1.400 . S
C631 C636 1.490 . S
C632 H622 0.930 . S
C632 C631 1.400 . S
C632 C635 1.386 . S
H633 C649 0.930 . S
H634 C650 0.931 . S
C635 H623 0.929 . S
C635 C629 1.390 . S
C635 C632 1.386 . S
C636 C631 1.490 . S
C636 C638 1.395 . S
C636 C639 1.403 1_554 S
H637 C643 0.930 . S
C638 H624 0.930 . S
C638 C636 1.395 . S
C638 C641 1.403 . S
C639 C636 1.403 1_556 S
C639 C640 1.524 . S
C639 C643 1.400 . S
C640 H625 0.960 . S
C640 H626 0.960 . S
C640 H627 0.960 . S
C640 C639 1.524 . S
C641 C638 1.403 . S
C641 C642 1.392 1_554 S
C641 C645 1.495 . S
C642 C641 1.392 1_556 S
C642 C643 1.385 . S
C642 C644 1.478 . S
C643 H637 0.930 . S
C643 C639 1.400 . S
C643 C642 1.385 . S
C644 C642 1.478 . S
C644 C646 1.381 . S
C644 C650 1.383 . S
C645 C641 1.495 . S
C645 H651 0.959 . S
C645 H652 0.961 . S
C645 H653 0.960 . S
C646 C644 1.381 . S
C646 C647 1.394 . S
C646 H654 0.930 . S
C647 C646 1.394 . S
C647 C648 1.383 . S
C647 H655 0.929 . S
C648 C647 1.383 . S
C648 C649 1.377 . S
C649 H633 0.930 . S
C649 C648 1.377 . S
C649 C650 1.379 . S
C650 H634 0.931 . S
C650 C644 1.383 . S
C650 C649 1.379 . S
H651 C645 0.959 . S
H652 C645 0.961 . S
H653 C645 0.960 . S
H654 C646 0.930 . S
H655 C647 0.929 . S
H656 C664 0.929 . S
H657 C666 0.930 . S
H658 C668 0.930 . S
H659 C671 0.929 . S
H660 C674 0.930 . S
H661 C676 0.960 . S
H662 C676 0.960 . S
H663 C676 0.960 . S
C664 H656 0.929 . S
C664 C665 1.377 . S
C664 C666 1.384 . S
C665 C664 1.377 . S
C665 C671 1.390 . S
C666 H657 0.930 . S
C666 C664 1.384 . S
C666 C667 1.372 . S
C667 C666 1.372 . S
C667 C668 1.400 . S
C667 C672 1.490 . S
C668 H658 0.930 . S
C668 C667 1.400 . S
C668 C671 1.386 . S
H669 C685 0.930 . S
H670 C686 0.931 . S
C671 H659 0.929 . S
C671 C665 1.390 . S
C671 C668 1.386 . S
C672 C667 1.490 . S
C672 C674 1.395 1_554 S
C672 C675 1.403 . S
H673 C679 0.930 . S
C674 H660 0.930 . S
C674 C672 1.395 1_556 S
C674 C677 1.403 . S
C675 C672 1.403 . S
C675 C676 1.524 . S
C675 C679 1.400 1_554 S
C676 H661 0.960 . S
C676 H662 0.960 . S
C676 H663 0.960 . S
C676 C675 1.524 . S
C677 C674 1.403 . S
C677 C678 1.392 . S
C677 C681 1.495 . S
C678 C677 1.392 . S
C678 C679 1.385 . S
C678 C680 1.478 . S
C679 H673 0.930 . S
C679 C675 1.400 1_556 S
C679 C678 1.385 . S
C680 C678 1.478 . S
C680 C682 1.381 . S
C680 C686 1.383 . S
C681 C677 1.495 . S
C681 H687 0.959 . S
C681 H688 0.961 . S
C681 H689 0.960 . S
C682 C680 1.381 . S
C682 C683 1.394 . S
C682 H690 0.930 . S
C683 C682 1.394 . S
C683 C684 1.383 . S
C683 H691 0.929 . S
C684 C683 1.383 . S
C684 C685 1.377 . S
C685 H669 0.930 . S
C685 C684 1.377 . S
C685 C686 1.379 . S
C686 H670 0.931 . S
C686 C680 1.383 . S
C686 C685 1.379 . S
H687 C681 0.959 . S
H688 C681 0.961 . S
H689 C681 0.960 . S
H690 C682 0.930 . S
H691 C683 0.929 . S
H692 C700 0.929 . S
H693 C702 0.930 . S
H694 C704 0.930 . S
H695 C707 0.929 . S
H696 C710 0.930 . S
H697 C712 0.960 . S
H698 C712 0.960 . S
H699 C712 0.960 . S
C700 H692 0.929 . S
C700 C701 1.377 . S
C700 C702 1.384 . S
C701 C700 1.377 . S
C701 C707 1.390 . S
C702 H693 0.930 . S
C702 C700 1.384 . S
C702 C703 1.372 . S
C703 C702 1.372 . S
C703 C704 1.400 . S
C703 C708 1.490 . S
C704 H694 0.930 . S
C704 C703 1.400 . S
C704 C707 1.386 . S
H705 C721 0.930 . S
H706 C722 0.973 . S
C707 H695 0.929 . S
C707 C701 1.390 . S
C707 C704 1.386 . S
C708 C703 1.490 . S
C708 C710 1.395 1_554 S
C708 C711 1.403 . S
H709 C715 0.930 . S
C710 H696 0.930 . S
C710 C708 1.395 1_556 S
C710 C713 1.403 . S
C711 C708 1.403 . S
C711 C712 1.524 . S
C711 C715 1.400 1_554 S
C712 H697 0.960 . S
C712 H698 0.960 . S
C712 H699 0.960 . S
C712 C711 1.524 . S
C713 C710 1.403 . S
C713 C714 1.392 . S
C713 C717 1.495 . S
C714 C713 1.392 . S
C714 C715 1.385 . S
C714 C716 1.478 . S
C715 H709 0.930 . S
C715 C711 1.400 1_556 S
C715 C714 1.385 . S
C716 C714 1.478 . S
C716 C718 1.381 . S
C716 C722 1.330 1_655 S
C717 C713 1.495 . S
C717 H723 0.959 . S
C717 H724 0.961 . S
C717 H725 0.960 . S
C718 C716 1.381 . S
C718 C719 1.394 . S
C718 H726 0.930 . S
C719 C718 1.394 . S
C719 C720 1.383 . S
C719 H727 0.929 . S
C720 C719 1.383 . S
C720 C721 1.377 1_655 S
C721 H705 0.930 . S
C721 C720 1.377 1_455 S
C721 C722 1.393 . S
C722 H706 0.973 . S
C722 C716 1.330 1_455 S
C722 C721 1.393 . S
H723 C717 0.959 . S
H724 C717 0.961 . S
H725 C717 0.960 . S
H726 C718 0.930 . S
H727 C719 0.929 . S
H728 C736 0.929 . S
H729 C738 0.930 . S
H730 C740 0.930 . S
H731 C743 0.929 . S
H732 C746 0.930 . S
H733 C748 0.960 . S
H734 C748 0.960 . S
H735 C748 0.960 . S
C736 H728 0.929 . S
C736 C737 1.377 . S
C736 C738 1.384 . S
C737 C736 1.377 . S
C737 C743 1.390 . S
C738 H729 0.930 . S
C738 C736 1.384 . S
C738 C739 1.372 . S
C739 C738 1.372 . S
C739 C740 1.400 . S
C739 C744 1.490 . S
C740 H730 0.930 . S
C740 C739 1.400 . S
C740 C743 1.386 . S
H741 C757 0.930 . S
H742 C758 0.931 . S
C743 H731 0.929 . S
C743 C737 1.390 . S
C743 C740 1.386 . S
C744 C739 1.490 . S
C744 C746 1.395 . S
C744 C747 1.403 . S
H745 C751 0.930 . S
C746 H732 0.930 . S
C746 C744 1.395 . S
C746 C749 1.403 . S
C747 C744 1.403 . S
C747 C748 1.524 . S
C747 C751 1.400 . S
C748 H733 0.960 . S
C748 H734 0.960 . S
C748 H735 0.960 . S
C748 C747 1.524 . S
C749 C746 1.403 . S
C749 C750 1.392 . S
C749 C753 1.495 1_455 S
C750 C749 1.392 . S
C750 C751 1.385 . S
C750 C752 1.478 . S
C751 H745 0.930 . S
C751 C747 1.400 . S
C751 C750 1.385 . S
C752 C750 1.478 . S
C752 C754 1.387 . S
C752 C758 1.383 . S
C753 C749 1.495 1_655 S
C753 H759 0.959 . S
C753 H760 0.961 . S
C753 H761 0.960 . S
C754 C752 1.387 . S
C754 C755 1.392 1_455 S
C754 H762 0.926 1_455 S
C755 C754 1.392 1_655 S
C755 C756 1.383 1_655 S
C755 H763 0.929 . S
C756 C755 1.383 1_455 S
C756 C757 1.377 . S
C757 H741 0.930 . S
C757 C756 1.377 . S
C757 C758 1.379 . S
C758 H742 0.931 . S
C758 C752 1.383 . S
C758 C757 1.379 . S
H759 C753 0.959 . S
H760 C753 0.961 . S
H761 C753 0.960 . S
H762 C754 0.926 1_655 S
H763 C755 0.929 . S
H764 C772 0.929 1_556 S
H765 C774 0.930 . S
H766 C776 0.930 . S
H767 C779 0.929 . S
H768 C782 0.930 . S
H769 C784 0.960 1_565 S
H770 C784 0.963 . S
H771 C784 0.960 . S
C772 H764 0.929 1_554 S
C772 C773 1.377 . S
C772 C774 1.384 . S
C773 C772 1.377 . S
C773 C779 1.390 . S
C774 H765 0.930 . S
C774 C772 1.384 . S
C774 C775 1.372 . S
C775 C774 1.372 . S
C775 C776 1.400 . S
C775 C780 1.490 . S
C776 H766 0.930 . S
C776 C775 1.400 . S
C776 C779 1.386 . S
H777 C793 0.930 . S
H778 C794 0.931 . S
C779 H767 0.929 . S
C779 C773 1.390 . S
C779 C776 1.386 . S
C780 C775 1.490 . S
C780 C782 1.395 . S
C780 C783 1.403 . S
H781 C787 0.930 . S
C782 H768 0.930 . S
C782 C780 1.395 . S
C782 C785 1.403 . S
C783 C780 1.403 . S
C783 C784 1.524 . S
C783 C787 1.400 . S
C784 H769 0.960 1_545 S
C784 H770 0.963 . S
C784 H771 0.960 . S
C784 C783 1.524 . S
C785 C782 1.403 . S
C785 C786 1.392 . S
C785 C789 1.495 . S
C786 C785 1.392 . S
C786 C787 1.385 . S
C786 C788 1.478 . S
C787 H781 0.930 . S
C787 C783 1.400 . S
C787 C786 1.385 . S
C788 C786 1.478 . S
C788 C790 1.381 . S
C788 C794 1.383 . S
C789 C785 1.495 . S
C789 H795 0.959 . S
C789 H796 0.961 . S
C789 H797 0.960 . S
C790 C788 1.381 . S
C790 C791 1.394 . S
C790 H798 0.930 . S
C791 C790 1.394 . S
C791 C792 1.383 . S
C791 H799 0.929 . S
C792 C791 1.383 . S
C792 C793 1.377 . S
C793 H777 0.930 . S
C793 C792 1.377 . S
C793 C794 1.379 . S
C794 H778 0.931 . S
C794 C788 1.383 . S
C794 C793 1.379 . S
H795 C789 0.959 . S
H796 C789 0.961 . S
H797 C789 0.960 . S
H798 C790 0.930 . S
H799 C791 0.929 . S
H800 C808 0.929 . S
H801 C810 0.930 . S
H802 C812 0.930 . S
H803 C815 0.929 . S
H804 C818 0.930 . S
H805 C820 0.960 . S
H806 C820 0.960 . S
H807 C820 0.960 . S
C808 H800 0.929 . S
C808 C809 1.377 . S
C808 C810 1.384 . S
C809 C808 1.377 . S
C809 C815 1.390 . S
C810 H801 0.930 . S
C810 C808 1.384 . S
C810 C811 1.372 . S
C811 C810 1.372 . S
C811 C812 1.400 . S
C811 C816 1.490 . S
C812 H802 0.930 . S
C812 C811 1.400 . S
C812 C815 1.386 . S
H813 C829 0.930 . S
H814 C830 0.931 . S
C815 H803 0.929 . S
C815 C809 1.390 . S
C815 C812 1.386 . S
C816 C811 1.490 . S
C816 C818 1.395 . S
C816 C819 1.403 . S
H817 C823 0.930 . S
C818 H804 0.930 . S
C818 C816 1.395 . S
C818 C821 1.403 . S
C819 C816 1.403 . S
C819 C820 1.524 . S
C819 C823 1.400 . S
C820 H805 0.960 . S
C820 H806 0.960 . S
C820 H807 0.960 . S
C820 C819 1.524 . S
C821 C818 1.403 . S
C821 C822 1.392 . S
C821 C825 1.495 . S
C822 C821 1.392 . S
C822 C823 1.385 . S
C822 C824 1.478 . S
C823 H817 0.930 . S
C823 C819 1.400 . S
C823 C822 1.385 . S
C824 C822 1.478 . S
C824 C826 1.381 . S
C824 C830 1.383 . S
C825 C821 1.495 . S
C825 H831 0.959 . S
C825 H832 0.961 . S
C825 H833 0.960 . S
C826 C824 1.381 . S
C826 C827 1.394 . S
C826 H834 0.930 . S
C827 C826 1.394 . S
C827 C828 1.383 . S
C827 H835 0.929 . S
C828 C827 1.383 . S
C828 C829 1.377 . S
C829 H813 0.930 . S
C829 C828 1.377 . S
C829 C830 1.379 . S
C830 H814 0.931 . S
C830 C824 1.383 . S
C830 C829 1.379 . S
H831 C825 0.959 . S
H832 C825 0.961 . S
H833 C825 0.960 . S
H834 C826 0.930 . S
H835 C827 0.929 . S
H836 C844 0.929 . S
H837 C846 0.930 . S
H838 C848 0.930 . S
H839 C851 0.929 1_556 S
H840 C854 0.930 . S
H841 C856 0.960 . S
H842 C856 0.960 . S
H843 C856 0.960 . S
C844 H836 0.929 . S
C844 C845 1.377 . S
C844 C846 1.384 . S
C845 C844 1.377 . S
C845 C851 1.390 . S
C846 H837 0.930 . S
C846 C844 1.384 . S
C846 C847 1.372 . S
C847 C846 1.372 . S
C847 C848 1.400 . S
C847 C852 1.490 . S
C848 H838 0.930 . S
C848 C847 1.400 . S
C848 C851 1.386 . S
H849 C865 0.930 . S
H850 C866 0.931 . S
C851 H839 0.929 1_554 S
C851 C845 1.390 . S
C851 C848 1.386 . S
C852 C847 1.490 . S
C852 C854 1.395 . S
C852 C855 1.403 . S
H853 C859 0.930 . S
C854 H840 0.930 . S
C854 C852 1.395 . S
C854 C857 1.403 . S
C855 C852 1.403 . S
C855 C856 1.524 . S
C855 C859 1.400 . S
C856 H841 0.960 . S
C856 H842 0.960 . S
C856 H843 0.960 . S
C856 C855 1.524 . S
C857 C854 1.403 . S
C857 C858 1.392 . S
C857 C861 1.495 . S
C858 C857 1.392 . S
C858 C859 1.385 . S
C858 C860 1.478 . S
C859 H853 0.930 . S
C859 C855 1.400 . S
C859 C858 1.385 . S
C860 C858 1.478 . S
C860 C862 1.381 . S
C860 C866 1.383 . S
C861 C857 1.495 . S
C861 H867 0.959 . S
C861 H868 0.961 . S
C861 H869 0.960 . S
C862 C860 1.381 . S
C862 C863 1.394 . S
C862 H870 0.930 . S
C863 C862 1.394 . S
C863 C864 1.383 . S
C863 H871 0.929 . S
C864 C863 1.383 . S
C864 C865 1.377 . S
C865 H849 0.930 . S
C865 C864 1.377 . S
C865 C866 1.379 . S
C866 H850 0.931 . S
C866 C860 1.383 . S
C866 C865 1.379 . S
H867 C861 0.959 . S
H868 C861 0.961 . S
H869 C861 0.960 . S
H870 C862 0.930 . S
H871 C863 0.929 . S
H872 C880 0.929 . S
H873 C882 0.930 . S
H874 C884 0.930 . S
H875 C887 0.929 . S
H876 C890 0.930 1_455 S
H877 C892 0.960 . S
H878 C892 0.960 . S
H879 C892 0.960 . S
C880 H872 0.929 . S
C880 C881 1.377 . S
C880 C882 1.384 . S
C881 C880 1.377 . S
C881 C887 1.390 . S
C882 H873 0.930 . S
C882 C880 1.384 . S
C882 C883 1.372 . S
C883 C882 1.372 . S
C883 C884 1.400 . S
C883 C888 1.490 . S
C884 H874 0.930 . S
C884 C883 1.400 . S
C884 C887 1.386 . S
H885 C901 0.930 . S
H886 C902 0.931 . S
C887 H875 0.929 . S
C887 C881 1.390 . S
C887 C884 1.386 . S
C888 C883 1.490 . S
C888 C890 1.395 . S
C888 C891 1.403 . S
H889 C895 0.930 . S
C890 H876 0.930 1_655 S
C890 C888 1.395 . S
C890 C893 1.403 1_655 S
C891 C888 1.403 . S
C891 C892 1.524 . S
C891 C895 1.400 . S
C892 H877 0.960 . S
C892 H878 0.960 . S
C892 H879 0.960 . S
C892 C891 1.524 . S
C893 C890 1.403 1_455 S
C893 C894 1.392 1_455 S
C893 C897 1.495 . S
C894 C893 1.392 1_655 S
C894 C895 1.385 . S
C894 C896 1.478 1_554 S
C895 H889 0.930 . S
C895 C891 1.400 . S
C895 C894 1.385 . S
C896 C894 1.478 1_556 S
C896 C898 1.381 1_656 S
C896 C902 1.383 . S
C897 C893 1.495 . S
C897 H903 0.959 . S
C897 H904 0.961 1_554 S
C897 H905 0.960 . S
C898 C896 1.381 1_454 S
C898 C899 1.394 1_554 S
C898 H906 0.930 . S
C899 C898 1.394 1_556 S
C899 C900 1.383 . S
C899 H907 0.929 1_556 S
C900 C899 1.383 . S
C900 C901 1.377 1_455 S
C901 H885 0.930 . S
C901 C900 1.377 1_655 S
C901 C902 1.379 . S
C902 H886 0.931 . S
C902 C896 1.383 . S
C902 C901 1.379 . S
H903 C897 0.959 . S
H904 C897 0.961 1_556 S
H905 C897 0.960 . S
H906 C898 0.930 . S
H907 C899 0.929 1_554 S
H908 C916 0.929 . S
H909 C918 0.930 . S
H910 C920 0.930 . S
H911 C923 0.929 . S
H912 C926 0.934 . S
H913 C928 0.960 1_556 S
H914 C928 0.960 . S
H915 C928 0.960 1_556 S
C916 H908 0.929 . S
C916 C917 1.377 . S
C916 C918 1.384 . S
C917 C916 1.377 . S
C917 C923 1.390 . S
C918 H909 0.930 . S
C918 C916 1.384 . S
C918 C919 1.372 . S
C919 C918 1.372 . S
C919 C920 1.400 . S
C919 C924 1.490 . S
C920 H910 0.930 . S
C920 C919 1.400 . S
C920 C923 1.386 . S
H921 C937 0.930 . S
H922 C938 0.931 . S
C923 H911 0.929 . S
C923 C917 1.390 . S
C923 C920 1.386 . S
C924 C919 1.490 . S
C924 C926 1.395 . S
C924 C927 1.403 . S
H925 C931 0.930 1_556 S
C926 H912 0.934 . S
C926 C924 1.395 . S
C926 C929 1.403 1_565 S
C927 C924 1.403 . S
C927 C928 1.524 . S
C927 C931 1.400 . S
C928 H913 0.960 1_554 S
C928 H914 0.960 . S
C928 H915 0.960 1_554 S
C928 C927 1.524 . S
C929 C926 1.403 1_545 S
C929 C930 1.392 1_545 S
C929 C933 1.495 . S
C930 C929 1.392 1_565 S
C930 C931 1.385 . S
C930 C932 1.476 1_554 S
C931 H925 0.930 1_554 S
C931 C927 1.400 . S
C931 C930 1.385 . S
C932 C930 1.476 1_556 S
C932 C934 1.381 1_556 S
C932 C938 1.385 1_565 S
C933 C929 1.495 . S
C933 H939 0.959 . S
C933 H940 0.961 . S
C933 H941 0.960 . S
C934 C932 1.381 1_554 S
C934 C935 1.394 1_564 S
C934 H942 0.930 . S
C935 C934 1.394 1_546 S
C935 C936 1.383 . S
C935 H943 0.937 1_556 S
C936 C935 1.383 . S
C936 C937 1.377 . S
C937 H921 0.930 . S
C937 C936 1.377 . S
C937 C938 1.379 . S
C938 H922 0.931 . S
C938 C932 1.385 1_545 S
C938 C937 1.379 . S
H939 C933 0.959 . S
H940 C933 0.961 . S
H941 C933 0.960 . S
H942 C934 0.930 . S
H943 C935 0.937 1_554 S
H944 C952 0.929 . S
H945 C954 0.930 . S
H946 C956 0.930 . S
H947 C959 0.929 . S
H948 C962 0.930 . S
H949 C964 0.960 . S
H950 C964 0.960 . S
H951 C964 0.960 . S
C952 H944 0.929 . S
C952 C953 1.377 . S
C952 C954 1.384 . S
C953 C952 1.377 . S
C953 C959 1.390 . S
C954 H945 0.930 . S
C954 C952 1.384 . S
C954 C955 1.372 . S
C955 C954 1.372 . S
C955 C956 1.400 . S
C955 C960 1.490 . S
C956 H946 0.930 . S
C956 C955 1.400 . S
C956 C959 1.386 . S
H957 C973 0.930 . S
H958 C974 0.931 . S
C959 H947 0.929 . S
C959 C953 1.390 . S
C959 C956 1.386 . S
C960 C955 1.490 . S
C960 C962 1.395 . S
C960 C963 1.403 . S
H961 C967 0.930 . S
C962 H948 0.930 . S
C962 C960 1.395 . S
C962 C965 1.403 . S
C963 C960 1.403 . S
C963 C964 1.524 1_554 S
C963 C967 1.400 1_554 S
C964 H949 0.960 . S
C964 H950 0.960 . S
C964 H951 0.960 . S
C964 C963 1.524 1_556 S
C965 C962 1.403 . S
C965 C966 1.392 . S
C965 C969 1.495 . S
C966 C965 1.392 . S
C966 C967 1.385 1_554 S
C966 C968 1.478 . S
C967 H961 0.930 . S
C967 C963 1.400 1_556 S
C967 C966 1.385 1_556 S
C968 C966 1.478 . S
C968 C970 1.381 . S
C968 C974 1.383 1_554 S
C969 C965 1.495 . S
C969 H975 0.959 . S
C969 H976 0.961 . S
C969 H977 0.960 . S
C970 C968 1.381 . S
C970 C971 1.394 1_554 S
C970 H978 0.930 . S
C971 C970 1.394 1_556 S
C971 C972 1.383 . S
C971 H979 0.929 . S
C972 C971 1.383 . S
C972 C973 1.377 . S
C973 H957 0.930 . S
C973 C972 1.377 . S
C973 C974 1.379 . S
C974 H958 0.931 . S
C974 C968 1.383 1_556 S
C974 C973 1.379 . S
H975 C969 0.959 . S
H976 C969 0.961 . S
H977 C969 0.960 . S
H978 C970 0.930 . S
H979 C971 0.929 . S
H980 C988 0.929 . S
H981 C990 0.930 . S
H982 C992 0.930 . S
H983 C995 0.929 . S
H984 C998 0.930 . S
H985 C1000 0.960 1_556 S
H986 C1000 0.960 . S
H987 C1000 0.960 . S
C988 H980 0.929 . S
C988 C989 1.377 . S
C988 C990 1.384 . S
C989 C988 1.377 . S
C989 C995 1.390 . S
C990 H981 0.930 . S
C990 C988 1.384 . S
C990 C991 1.372 . S
C991 C990 1.372 . S
C991 C992 1.400 . S
C991 C996 1.490 . S
C992 H982 0.930 . S
C992 C991 1.400 . S
C992 C995 1.386 . S
H993 C1009 0.930 . S
H994 C1010 0.931 . S
C995 H983 0.929 . S
C995 C989 1.390 . S
C995 C992 1.386 . S
C996 C991 1.490 . S
C996 C998 1.395 . S
C996 C999 1.403 . S
H997 C1003 0.930 1_556 S
C998 H984 0.930 . S
C998 C996 1.395 . S
C998 C1001 1.403 . S
C999 C996 1.403 . S
C999 C1000 1.524 . S
C999 C1003 1.400 . S
C1000 H985 0.960 1_554 S
C1000 H986 0.960 . S
C1000 H987 0.960 . S
C1000 C999 1.524 . S
C1001 C998 1.403 . S
C1001 C1002 1.392 . S
C1001 C1005 1.495 . S
C1002 C1001 1.392 . S
C1002 C1003 1.385 . S
C1002 C1004 1.472 1_554 S
C1003 H997 0.930 1_554 S
C1003 C999 1.400 . S
C1003 C1002 1.385 . S
C1004 C1002 1.472 1_556 S
C1004 C1006 1.391 . S
C1004 C1010 1.379 1_556 S
C1005 C1001 1.495 . S
C1005 H1011 0.959 . S
C1005 H1012 0.961 . S
C1005 H1013 0.960 . S
C1006 C1004 1.391 . S
C1006 C1007 1.394 . S
C1006 H1014 0.930 . S
C1007 C1006 1.394 . S
C1007 C1008 1.383 . S
C1007 H1015 0.929 . S
C1008 C1007 1.383 . S
C1008 C1009 1.377 . S
C1009 H993 0.930 . S
C1009 C1008 1.377 . S
C1009 C1010 1.379 1_556 S
C1010 H994 0.931 . S
C1010 C1004 1.379 1_554 S
C1010 C1009 1.379 1_554 S
H1011 C1005 0.959 . S
H1012 C1005 0.961 . S
H1013 C1005 0.960 . S
H1014 C1006 0.930 . S
H1015 C1007 0.929 . S
H1016 C1024 0.929 . S
H1017 C1026 0.930 . S
H1018 C1028 0.930 . S
H1019 C1031 0.929 1_554 S
H1020 C1034 0.930 . S
H1021 C1036 0.960 . S
H1022 C1036 0.960 . S
H1023 C1036 0.960 . S
C1024 H1016 0.929 . S
C1024 C1025 1.377 . S
C1024 C1026 1.384 . S
C1025 C1024 1.377 . S
C1025 C1031 1.390 . S
C1026 H1017 0.930 . S
C1026 C1024 1.384 . S
C1026 C1027 1.372 . S
C1027 C1026 1.372 . S
C1027 C1028 1.400 . S
C1027 C1032 1.490 . S
C1028 H1018 0.930 . S
C1028 C1027 1.400 . S
C1028 C1031 1.386 . S
H1029 C1045 0.930 . S
H1030 C1046 0.931 . S
C1031 H1019 0.929 1_556 S
C1031 C1025 1.390 . S
C1031 C1028 1.386 . S
C1032 C1027 1.490 . S
C1032 C1034 1.395 . S
C1032 C1035 1.403 . S
H1033 C1039 0.930 . S
C1034 H1020 0.930 . S
C1034 C1032 1.395 . S
C1034 C1037 1.403 . S
C1035 C1032 1.403 . S
C1035 C1036 1.524 . S
C1035 C1039 1.400 . S
C1036 H1021 0.960 . S
C1036 H1022 0.960 . S
C1036 H1023 0.960 . S
C1036 C1035 1.524 . S
C1037 C1034 1.403 . S
C1037 C1038 1.392 . S
C1037 C1041 1.495 . S
C1038 C1037 1.392 . S
C1038 C1039 1.385 . S
C1038 C1040 1.478 . S
C1039 H1033 0.930 . S
C1039 C1035 1.400 . S
C1039 C1038 1.385 . S
C1040 C1038 1.478 . S
C1040 C1042 1.381 . S
C1040 C1046 1.383 . S
C1041 C1037 1.495 . S
C1041 H1047 0.959 . S
C1041 H1048 0.961 . S
C1041 H1049 0.960 . S
C1042 C1040 1.381 . S
C1042 C1043 1.394 . S
C1042 H1050 0.930 . S
C1043 C1042 1.394 . S
C1043 C1044 1.383 . S
C1043 H1051 0.929 . S
C1044 C1043 1.383 . S
C1044 C1045 1.377 . S
C1045 H1029 0.930 . S
C1045 C1044 1.377 . S
C1045 C1046 1.379 . S
C1046 H1030 0.931 . S
C1046 C1040 1.383 . S
C1046 C1045 1.379 . S
H1047 C1041 0.959 . S
H1048 C1041 0.961 . S
H1049 C1041 0.960 . S
H1050 C1042 0.930 . S
H1051 C1043 0.929 . S
H1052 C1060 0.929 . S
H1053 C1062 0.930 . S
H1054 C1064 0.930 . S
H1055 C1067 0.929 . S
H1056 C1070 0.930 . S
H1057 C1072 0.960 1_565 S
H1058 C1072 0.960 . S
H1059 C1072 0.960 . S
C1060 H1052 0.929 . S
C1060 C1061 1.377 . S
C1060 C1062 1.384 . S
C1061 C1060 1.377 . S
C1061 C1067 1.390 . S
C1062 H1053 0.930 . S
C1062 C1060 1.384 . S
C1062 C1063 1.372 . S
C1063 C1062 1.372 . S
C1063 C1064 1.400 . S
C1063 C1068 1.490 . S
C1064 H1054 0.930 . S
C1064 C1063 1.400 . S
C1064 C1067 1.386 . S
H1065 C1081 0.930 . S
H1066 C1082 0.931 . S
C1067 H1055 0.929 . S
C1067 C1061 1.390 . S
C1067 C1064 1.386 . S
C1068 C1063 1.490 . S
C1068 C1070 1.395 . S
C1068 C1071 1.403 . S
H1069 C1075 0.930 . S
C1070 H1056 0.930 . S
C1070 C1068 1.395 . S
C1070 C1073 1.403 . S
C1071 C1068 1.403 . S
C1071 C1072 1.524 . S
C1071 C1075 1.400 . S
C1072 H1057 0.960 1_545 S
C1072 H1058 0.960 . S
C1072 H1059 0.960 . S
C1072 C1071 1.524 . S
C1073 C1070 1.403 . S
C1073 C1074 1.392 . S
C1073 C1077 1.495 . S
C1074 C1073 1.392 . S
C1074 C1075 1.385 . S
C1074 C1076 1.478 . S
C1075 H1069 0.930 . S
C1075 C1071 1.400 . S
C1075 C1074 1.385 . S
C1076 C1074 1.478 . S
C1076 C1078 1.381 . S
C1076 C1082 1.383 . S
C1077 C1073 1.495 . S
C1077 H1083 0.959 . S
C1077 H1084 0.961 . S
C1077 H1085 0.960 . S
C1078 C1076 1.381 . S
C1078 C1079 1.394 . S
C1078 H1086 0.930 . S
C1079 C1078 1.394 . S
C1079 C1080 1.383 . S
C1079 H1087 0.929 . S
C1080 C1079 1.383 . S
C1080 C1081 1.377 . S
C1081 H1065 0.930 . S
C1081 C1080 1.377 . S
C1081 C1082 1.379 . S
C1082 H1066 0.931 . S
C1082 C1076 1.383 . S
C1082 C1081 1.379 . S
H1083 C1077 0.959 . S
H1084 C1077 0.961 . S
H1085 C1077 0.960 . S
H1086 C1078 0.930 . S
H1087 C1079 0.929 . S
H1088 C1096 0.929 . S
H1089 C1098 0.930 . S
H1090 C1100 0.930 . S
H1091 C1103 0.929 1_554 S
H1092 C1106 0.930 . S
H1093 C1108 0.960 . S
H1094 C1108 0.960 . S
H1095 C1108 0.970 . S
C1096 H1088 0.929 . S
C1096 C1097 1.377 . S
C1096 C1098 1.384 . S
C1097 C1096 1.377 . S
C1097 C1103 1.390 . S
C1098 H1089 0.930 . S
C1098 C1096 1.384 . S
C1098 C1099 1.372 . S
C1099 C1098 1.372 . S
C1099 C1100 1.400 . S
C1099 C1104 1.490 . S
C1100 H1090 0.930 . S
C1100 C1099 1.400 . S
C1100 C1103 1.386 . S
H1101 C1117 0.930 . S
H1102 C1118 0.931 . S
C1103 H1091 0.929 1_556 S
C1103 C1097 1.390 . S
C1103 C1100 1.386 . S
C1104 C1099 1.490 . S
C1104 C1106 1.395 . S
C1104 C1107 1.403 . S
H1105 C1111 0.930 . S
C1106 H1092 0.930 . S
C1106 C1104 1.395 . S
C1106 C1109 1.403 . S
C1107 C1104 1.403 . S
C1107 C1108 1.524 . S
C1107 C1111 1.400 . S
C1108 H1093 0.960 . S
C1108 H1094 0.960 . S
C1108 H1095 0.970 . S
C1108 C1107 1.524 . S
C1109 C1106 1.403 . S
C1109 C1110 1.392 . S
C1109 C1113 1.495 . S
C1110 C1109 1.392 . S
C1110 C1111 1.385 . S
C1110 C1112 1.478 . S
C1111 H1105 0.930 . S
C1111 C1107 1.400 . S
C1111 C1110 1.385 . S
C1112 C1110 1.478 . S
C1112 C1114 1.381 . S
C1112 C1118 1.383 . S
C1113 C1109 1.495 . S
C1113 H1119 0.959 . S
C1113 H1120 0.961 . S
C1113 H1121 0.960 . S
C1114 C1112 1.381 . S
C1114 C1115 1.394 . S
C1114 H1122 0.930 . S
C1115 C1114 1.394 . S
C1115 C1116 1.383 . S
C1115 H1123 0.929 . S
C1116 C1115 1.383 . S
C1116 C1117 1.377 . S
C1117 H1101 0.930 . S
C1117 C1116 1.377 . S
C1117 C1118 1.379 . S
C1118 H1102 0.931 . S
C1118 C1112 1.383 . S
C1118 C1117 1.379 . S
H1119 C1113 0.959 . S
H1120 C1113 0.961 . S
H1121 C1113 0.960 . S
H1122 C1114 0.930 . S
H1123 C1115 0.929 . S
H1124 C1132 0.923 1_554 S
H1125 C1134 0.930 . S
H1126 C1136 0.930 . S
H1127 C1139 0.929 . S
H1128 C1142 0.930 . S
H1129 C1144 0.960 . S
H1130 C1144 0.960 . S
H1131 C1144 0.960 . S
C1132 H1124 0.923 1_556 S
C1132 C1133 1.377 . S
C1132 C1134 1.384 . S
C1133 C1132 1.377 . S
C1133 C1139 1.390 . S
C1134 H1125 0.930 . S
C1134 C1132 1.384 . S
C1134 C1135 1.372 . S
C1135 C1134 1.372 . S
C1135 C1136 1.400 . S
C1135 C1140 1.490 . S
C1136 H1126 0.930 . S
C1136 C1135 1.400 . S
C1136 C1139 1.386 . S
H1137 C1153 0.930 . S
H1138 C1154 0.931 . S
C1139 H1127 0.929 . S
C1139 C1133 1.390 . S
C1139 C1136 1.386 . S
C1140 C1135 1.490 . S
C1140 C1142 1.395 . S
C1140 C1143 1.403 . S
H1141 C1147 0.930 . S
C1142 H1128 0.930 . S
C1142 C1140 1.395 . S
C1142 C1145 1.403 . S
C1143 C1140 1.403 . S
C1143 C1144 1.524 . S
C1143 C1147 1.400 . S
C1144 H1129 0.960 . S
C1144 H1130 0.960 . S
C1144 H1131 0.960 . S
C1144 C1143 1.524 . S
C1145 C1142 1.403 . S
C1145 C1146 1.392 . S
C1145 C1149 1.495 . S
C1146 C1145 1.392 . S
C1146 C1147 1.385 . S
C1146 C1148 1.478 . S
C1147 H1141 0.930 . S
C1147 C1143 1.400 . S
C1147 C1146 1.385 . S
C1148 C1146 1.478 . S
C1148 C1150 1.381 . S
C1148 C1154 1.383 . S
C1149 C1145 1.495 . S
C1149 H1155 0.959 . S
C1149 H1156 0.961 . S
C1149 H1157 0.960 . S
C1150 C1148 1.381 . S
C1150 C1151 1.394 . S
C1150 H1158 0.930 . S
C1151 C1150 1.394 . S
C1151 C1152 1.383 . S
C1151 H1159 0.929 . S
C1152 C1151 1.383 . S
C1152 C1153 1.377 . S
C1153 H1137 0.930 . S
C1153 C1152 1.377 . S
C1153 C1154 1.379 . S
C1154 H1138 0.931 . S
C1154 C1148 1.383 . S
C1154 C1153 1.379 . S
H1155 C1149 0.959 . S
H1156 C1149 0.961 . S
H1157 C1149 0.960 . S
H1158 C1150 0.930 . S
H1159 C1151 0.929 . S
H1160 C1168 0.929 . S
H1161 C1170 0.930 . S
H1162 C1172 0.930 . S
H1163 C1175 0.929 . S
H1164 C1178 0.930 . S
H1165 C1180 0.960 . S
H1166 C1180 0.961 . S
H1167 C1180 0.960 . S
C1168 H1160 0.929 . S
C1168 C1169 1.377 . S
C1168 C1170 1.384 . S
C1169 C1168 1.377 . S
C1169 C1175 1.390 . S
C1170 H1161 0.930 . S
C1170 C1168 1.384 . S
C1170 C1171 1.372 . S
C1171 C1170 1.372 . S
C1171 C1172 1.400 . S
C1171 C1176 1.490 . S
C1172 H1162 0.930 . S
C1172 C1171 1.400 . S
C1172 C1175 1.386 . S
H1173 C1189 0.930 1_455 S
H1174 C1190 0.931 . S
C1175 H1163 0.929 . S
C1175 C1169 1.390 . S
C1175 C1172 1.386 . S
C1176 C1171 1.490 . S
C1176 C1178 1.395 . S
C1176 C1179 1.403 . S
H1177 C1183 0.967 . S
C1178 H1164 0.930 . S
C1178 C1176 1.395 . S
C1178 C1181 1.403 . S
C1179 C1176 1.403 . S
C1179 C1180 1.524 1_655 S
C1179 C1183 1.400 . S
C1180 H1165 0.960 . S
C1180 H1166 0.961 . S
C1180 H1167 0.960 . S
C1180 C1179 1.524 1_455 S
C1181 C1178 1.403 . S
C1181 C1182 1.392 . S
C1181 C1185 1.495 . S
C1182 C1181 1.392 . S
C1182 C1183 1.385 . S
C1182 C1184 1.478 . S
C1183 H1177 0.967 . S
C1183 C1179 1.400 . S
C1183 C1182 1.385 . S
C1184 C1182 1.478 . S
C1184 C1186 1.381 . S
C1184 C1190 1.383 . S
C1185 C1181 1.495 . S
C1185 H1191 0.959 . S
C1185 H1192 0.961 . S
C1185 H1193 0.960 . S
C1186 C1184 1.381 . S
C1186 C1187 1.394 . S
C1186 H1194 0.930 . S
C1187 C1186 1.394 . S
C1187 C1188 1.383 . S
C1187 H1195 0.929 . S
C1188 C1187 1.383 . S
C1188 C1189 1.377 . S
C1189 H1173 0.930 1_655 S
C1189 C1188 1.377 . S
C1189 C1190 1.379 . S
C1190 H1174 0.931 . S
C1190 C1184 1.383 . S
C1190 C1189 1.379 . S
H1191 C1185 0.959 . S
H1192 C1185 0.961 . S
H1193 C1185 0.960 . S
H1194 C1186 0.930 . S
H1195 C1187 0.929 . S
H1196 C1204 0.929 . S
H1197 C1206 0.930 . S
H1198 C1208 0.930 . S
H1199 C1211 0.929 . S
H1200 C1214 0.930 . S
H1201 C1216 0.960 . S
H1202 C1216 0.960 . S
H1203 C1216 0.960 . S
C1204 H1196 0.929 . S
C1204 C1205 1.377 . S
C1204 C1206 1.384 . S
C1205 C1204 1.377 . S
C1205 C1211 1.390 . S
C1206 H1197 0.930 . S
C1206 C1204 1.384 . S
C1206 C1207 1.372 . S
C1207 C1206 1.372 . S
C1207 C1208 1.400 . S
C1207 C1212 1.490 . S
C1208 H1198 0.930 . S
C1208 C1207 1.400 . S
C1208 C1211 1.386 . S
H1209 C1225 0.930 . S
H1210 C1226 0.958 . S
C1211 H1199 0.929 . S
C1211 C1205 1.390 . S
C1211 C1208 1.386 . S
C1212 C1207 1.490 . S
C1212 C1214 1.395 . S
C1212 C1215 1.403 . S
H1213 C1219 0.930 . S
C1214 H1200 0.930 . S
C1214 C1212 1.395 . S
C1214 C1217 1.403 . S
C1215 C1212 1.403 . S
C1215 C1216 1.524 . S
C1215 C1219 1.400 . S
C1216 H1201 0.960 . S
C1216 H1202 0.960 . S
C1216 H1203 0.960 . S
C1216 C1215 1.524 . S
C1217 C1214 1.403 . S
C1217 C1218 1.392 . S
C1217 C1221 1.495 . S
C1218 C1217 1.392 . S
C1218 C1219 1.385 . S
C1218 C1220 1.478 . S
C1219 H1213 0.930 . S
C1219 C1215 1.400 . S
C1219 C1218 1.385 . S
C1220 C1218 1.478 . S
C1220 C1222 1.381 . S
C1220 C1226 1.351 1_565 S
C1221 C1217 1.495 . S
C1221 H1227 0.959 . S
C1221 H1228 0.961 . S
C1221 H1229 0.960 . S
C1222 C1220 1.381 . S
C1222 C1223 1.394 . S
C1222 H1230 0.930 . S
C1223 C1222 1.394 . S
C1223 C1224 1.383 . S
C1223 H1231 0.929 . S
C1224 C1223 1.383 . S
C1224 C1225 1.377 1_565 S
C1225 H1209 0.930 . S
C1225 C1224 1.377 1_545 S
C1225 C1226 1.386 . S
C1226 H1210 0.958 . S
C1226 C1220 1.351 1_545 S
C1226 C1225 1.386 . S
H1227 C1221 0.959 . S
H1228 C1221 0.961 . S
H1229 C1221 0.960 . S
H1230 C1222 0.930 . S
H1231 C1223 0.929 . S
H1232 C1240 0.929 . S
H1233 C1242 0.930 . S
H1234 C1244 0.930 . S
H1235 C1247 0.929 . S
H1236 C1250 0.930 . S
H1237 C1252 0.960 . S
H1238 C1252 0.960 . S
H1239 C1252 0.960 . S
C1240 H1232 0.929 . S
C1240 C1241 1.377 . S
C1240 C1242 1.384 . S
C1241 C1240 1.377 . S
C1241 C1247 1.390 . S
C1242 H1233 0.930 . S
C1242 C1240 1.384 . S
C1242 C1243 1.372 . S
C1243 C1242 1.372 . S
C1243 C1244 1.400 . S
C1243 C1248 1.490 . S
C1244 H1234 0.930 . S
C1244 C1243 1.400 . S
C1244 C1247 1.386 . S
H1245 C1261 0.930 . S
H1246 C1262 0.931 . S
C1247 H1235 0.929 . S
C1247 C1241 1.390 . S
C1247 C1244 1.386 . S
C1248 C1243 1.490 . S
C1248 C1250 1.395 . S
C1248 C1251 1.403 . S
H1249 C1255 0.930 . S
C1250 H1236 0.930 . S
C1250 C1248 1.395 . S
C1250 C1253 1.403 . S
C1251 C1248 1.403 . S
C1251 C1252 1.524 . S
C1251 C1255 1.400 . S
C1252 H1237 0.960 . S
C1252 H1238 0.960 . S
C1252 H1239 0.960 . S
C1252 C1251 1.524 . S
C1253 C1250 1.403 . S
C1253 C1254 1.392 . S
C1253 C1257 1.495 . S
C1254 C1253 1.392 . S
C1254 C1255 1.385 . S
C1254 C1256 1.478 . S
C1255 H1249 0.930 . S
C1255 C1251 1.400 . S
C1255 C1254 1.385 . S
C1256 C1254 1.478 . S
C1256 C1258 1.381 . S
C1256 C1262 1.383 . S
C1257 C1253 1.495 . S
C1257 H1263 0.959 . S
C1257 H1264 0.961 . S
C1257 H1265 0.960 . S
C1258 C1256 1.381 . S
C1258 C1259 1.394 . S
C1258 H1266 0.930 . S
C1259 C1258 1.394 . S
C1259 C1260 1.383 . S
C1259 H1267 0.929 . S
C1260 C1259 1.383 . S
C1260 C1261 1.377 . S
C1261 H1245 0.930 . S
C1261 C1260 1.377 . S
C1261 C1262 1.379 . S
C1262 H1246 0.931 . S
C1262 C1256 1.383 . S
C1262 C1261 1.379 . S
H1263 C1257 0.959 . S
H1264 C1257 0.961 . S
H1265 C1257 0.960 . S
H1266 C1258 0.930 . S
H1267 C1259 0.929 . S
H1268 C1276 0.929 . S
H1269 C1278 0.930 . S
H1270 C1280 0.930 . S
H1271 C1283 0.929 . S
H1272 C1286 0.930 . S
H1273 C1288 0.960 . S
H1274 C1288 0.960 . S
H1275 C1288 0.960 . S
C1276 H1268 0.929 . S
C1276 C1277 1.377 . S
C1276 C1278 1.384 . S
C1277 C1276 1.377 . S
C1277 C1283 1.390 . S
C1278 H1269 0.930 . S
C1278 C1276 1.384 . S
C1278 C1279 1.372 . S
C1279 C1278 1.372 . S
C1279 C1280 1.400 . S
C1279 C1284 1.490 . S
C1280 H1270 0.930 . S
C1280 C1279 1.400 . S
C1280 C1283 1.386 . S
H1281 C1297 0.930 . S
H1282 C1298 0.931 . S
C1283 H1271 0.929 . S
C1283 C1277 1.390 . S
C1283 C1280 1.386 . S
C1284 C1279 1.490 . S
C1284 C1286 1.395 . S
C1284 C1287 1.403 . S
H1285 C1291 0.930 . S
C1286 H1272 0.930 . S
C1286 C1284 1.395 . S
C1286 C1289 1.403 . S
C1287 C1284 1.403 . S
C1287 C1288 1.524 . S
C1287 C1291 1.400 . S
C1288 H1273 0.960 . S
C1288 H1274 0.960 . S
C1288 H1275 0.960 . S
C1288 C1287 1.524 . S
C1289 C1286 1.403 . S
C1289 C1290 1.392 . S
C1289 C1293 1.495 . S
C1290 C1289 1.392 . S
C1290 C1291 1.385 . S
C1290 C1292 1.478 . S
C1291 H1285 0.930 . S
C1291 C1287 1.400 . S
C1291 C1290 1.385 . S
C1292 C1290 1.478 . S
C1292 C1294 1.381 . S
C1292 C1298 1.383 . S
C1293 C1289 1.495 . S
C1293 H1299 0.959 . S
C1293 H1300 0.961 . S
C1293 H1301 0.960 . S
C1294 C1292 1.381 . S
C1294 C1295 1.394 . S
C1294 H1302 0.930 . S
C1295 C1294 1.394 . S
C1295 C1296 1.383 . S
C1295 H1303 0.929 . S
C1296 C1295 1.383 . S
C1296 C1297 1.377 . S
C1297 H1281 0.930 . S
C1297 C1296 1.377 . S
C1297 C1298 1.379 . S
C1298 H1282 0.931 . S
C1298 C1292 1.383 . S
C1298 C1297 1.379 . S
H1299 C1293 0.959 . S
H1300 C1293 0.961 . S
H1301 C1293 0.960 . S
H1302 C1294 0.930 . S
H1303 C1295 0.929 . S
C449 N80 1.843 . S
C468 C178 1.833 . S
C504 C262 1.854 . S
C485 N93 1.872 . S
C540 C328 1.933 . S
C521 N54 1.983 . S
C576 C412 1.909 . S
C557 N67 1.960 . S
C612 C167 1.848 1_565 S
C593 N28 1.853 . S
C629 N41 1.875 . S
C648 C251 1.858 . S
C665 N2 1.994 . S
C684 C339 1.932 . S
C701 N15 1.972 . S
C720 C423 1.908 . S
C756 C174 0.415 1_455 S
C737 N70 0.407 . S
C792 C258 0.583 1_545 S
C773 N83 0.374 . S
C828 C330 0.381 . S
C809 N96 0.334 . S
C845 N57 0.388 . S
C864 C414 0.545 . S
C881 N18 0.410 . S
C900 C162 0.411 . S
C936 C246 0.411 . S
C917 N31 0.383 . S
C972 C342 0.389 . S
C953 N44 0.345 . S
C989 N5 0.366 . S
C1008 C426 0.480 . S
C1025 N66 2.011 . S
C1044 C171 1.958 . S
C1061 N79 1.982 . S
C1080 C255 1.948 . S
C1116 C335 1.913 . S
C1097 N92 1.867 . S
C1152 C419 1.918 . S
C1133 N53 1.901 . S
C1169 N14 2.025 . S
C1188 C160 1.971 . S
C1224 C244 1.902 . S
C1205 N27 1.992 . S
C1260 C346 1.895 . S
C1241 N40 1.886 . S
C1277 N1 1.916 . S
C1296 C430 1.936 . S
